# Generated by pormake.
# Topology ana-f, (3,3)-cn, num edge types: 1
# Building blocks:
#     Node 0, Type 0, BuildingBlock: WUSLED_clean_sbu_0, # of connection points: 3
#     Node 1, Type 0, BuildingBlock: WUSLED_clean_sbu_0, # of connection points: 3
#     Node 2, Type 0, BuildingBlock: WUSLED_clean_sbu_0, # of connection points: 3
#     Node 3, Type 0, BuildingBlock: WUSLED_clean_sbu_0, # of connection points: 3
#     Node 4, Type 0, BuildingBlock: WUSLED_clean_sbu_0, # of connection points: 3
#     Node 5, Type 0, BuildingBlock: WUSLED_clean_sbu_0, # of connection points: 3
#     Node 6, Type 0, BuildingBlock: WUSLED_clean_sbu_0, # of connection points: 3
#     Node 7, Type 0, BuildingBlock: WUSLED_clean_sbu_0, # of connection points: 3
#     Node 8, Type 0, BuildingBlock: WUSLED_clean_sbu_0, # of connection points: 3
#     Node 9, Type 0, BuildingBlock: WUSLED_clean_sbu_0, # of connection points: 3
#     Node 10, Type 0, BuildingBlock: WUSLED_clean_sbu_0, # of connection points: 3
#     Node 11, Type 0, BuildingBlock: WUSLED_clean_sbu_0, # of connection points: 3
#     Node 12, Type 0, BuildingBlock: WUSLED_clean_sbu_0, # of connection points: 3
#     Node 13, Type 0, BuildingBlock: WUSLED_clean_sbu_0, # of connection points: 3
#     Node 14, Type 0, BuildingBlock: WUSLED_clean_sbu_0, # of connection points: 3
#     Node 15, Type 0, BuildingBlock: WUSLED_clean_sbu_0, # of connection points: 3
#     Node 16, Type 0, BuildingBlock: WUSLED_clean_sbu_0, # of connection points: 3
#     Node 17, Type 0, BuildingBlock: WUSLED_clean_sbu_0, # of connection points: 3
#     Node 18, Type 0, BuildingBlock: WUSLED_clean_sbu_0, # of connection points: 3
#     Node 19, Type 0, BuildingBlock: WUSLED_clean_sbu_0, # of connection points: 3
#     Node 20, Type 0, BuildingBlock: WUSLED_clean_sbu_0, # of connection points: 3
#     Node 21, Type 0, BuildingBlock: WUSLED_clean_sbu_0, # of connection points: 3
#     Node 22, Type 0, BuildingBlock: WUSLED_clean_sbu_0, # of connection points: 3
#     Node 23, Type 0, BuildingBlock: WUSLED_clean_sbu_0, # of connection points: 3
#     Node 24, Type 0, BuildingBlock: WUSLED_clean_sbu_0, # of connection points: 3
#     Node 25, Type 0, BuildingBlock: WUSLED_clean_sbu_0, # of connection points: 3
#     Node 26, Type 0, BuildingBlock: WUSLED_clean_sbu_0, # of connection points: 3
#     Node 27, Type 0, BuildingBlock: WUSLED_clean_sbu_0, # of connection points: 3
#     Node 28, Type 0, BuildingBlock: WUSLED_clean_sbu_0, # of connection points: 3
#     Node 29, Type 0, BuildingBlock: WUSLED_clean_sbu_0, # of connection points: 3
#     Node 30, Type 0, BuildingBlock: WUSLED_clean_sbu_0, # of connection points: 3
#     Node 31, Type 0, BuildingBlock: WUSLED_clean_sbu_0, # of connection points: 3
#     Node 32, Type 0, BuildingBlock: WUSLED_clean_sbu_0, # of connection points: 3
#     Node 33, Type 0, BuildingBlock: WUSLED_clean_sbu_0, # of connection points: 3
#     Node 34, Type 0, BuildingBlock: WUSLED_clean_sbu_0, # of connection points: 3
#     Node 35, Type 0, BuildingBlock: WUSLED_clean_sbu_0, # of connection points: 3
#     Node 36, Type 0, BuildingBlock: WUSLED_clean_sbu_0, # of connection points: 3
#     Node 37, Type 0, BuildingBlock: WUSLED_clean_sbu_0, # of connection points: 3
#     Node 38, Type 0, BuildingBlock: WUSLED_clean_sbu_0, # of connection points: 3
#     Node 39, Type 0, BuildingBlock: WUSLED_clean_sbu_0, # of connection points: 3
#     Node 40, Type 0, BuildingBlock: WUSLED_clean_sbu_0, # of connection points: 3
#     Node 41, Type 0, BuildingBlock: WUSLED_clean_sbu_0, # of connection points: 3
#     Node 42, Type 0, BuildingBlock: WUSLED_clean_sbu_0, # of connection points: 3
#     Node 43, Type 0, BuildingBlock: WUSLED_clean_sbu_0, # of connection points: 3
#     Node 44, Type 0, BuildingBlock: WUSLED_clean_sbu_0, # of connection points: 3
#     Node 45, Type 0, BuildingBlock: WUSLED_clean_sbu_0, # of connection points: 3
#     Node 46, Type 0, BuildingBlock: WUSLED_clean_sbu_0, # of connection points: 3
#     Node 47, Type 0, BuildingBlock: WUSLED_clean_sbu_0, # of connection points: 3
#     Node 48, Type 0, BuildingBlock: WUSLED_clean_sbu_0, # of connection points: 3
#     Node 49, Type 0, BuildingBlock: WUSLED_clean_sbu_0, # of connection points: 3
#     Node 50, Type 0, BuildingBlock: WUSLED_clean_sbu_0, # of connection points: 3
#     Node 51, Type 0, BuildingBlock: WUSLED_clean_sbu_0, # of connection points: 3
#     Node 52, Type 0, BuildingBlock: WUSLED_clean_sbu_0, # of connection points: 3
#     Node 53, Type 0, BuildingBlock: WUSLED_clean_sbu_0, # of connection points: 3
#     Node 54, Type 0, BuildingBlock: WUSLED_clean_sbu_0, # of connection points: 3
#     Node 55, Type 0, BuildingBlock: WUSLED_clean_sbu_0, # of connection points: 3
#     Node 56, Type 0, BuildingBlock: WUSLED_clean_sbu_0, # of connection points: 3
#     Node 57, Type 0, BuildingBlock: WUSLED_clean_sbu_0, # of connection points: 3
#     Node 58, Type 0, BuildingBlock: WUSLED_clean_sbu_0, # of connection points: 3
#     Node 59, Type 0, BuildingBlock: WUSLED_clean_sbu_0, # of connection points: 3
#     Node 60, Type 0, BuildingBlock: WUSLED_clean_sbu_0, # of connection points: 3
#     Node 61, Type 0, BuildingBlock: WUSLED_clean_sbu_0, # of connection points: 3
#     Node 62, Type 0, BuildingBlock: WUSLED_clean_sbu_0, # of connection points: 3
#     Node 63, Type 0, BuildingBlock: WUSLED_clean_sbu_0, # of connection points: 3
#     Node 64, Type 0, BuildingBlock: WUSLED_clean_sbu_0, # of connection points: 3
#     Node 65, Type 0, BuildingBlock: WUSLED_clean_sbu_0, # of connection points: 3
#     Node 66, Type 0, BuildingBlock: WUSLED_clean_sbu_0, # of connection points: 3
#     Node 67, Type 0, BuildingBlock: WUSLED_clean_sbu_0, # of connection points: 3
#     Node 68, Type 0, BuildingBlock: WUSLED_clean_sbu_0, # of connection points: 3
#     Node 69, Type 0, BuildingBlock: WUSLED_clean_sbu_0, # of connection points: 3
#     Node 70, Type 0, BuildingBlock: WUSLED_clean_sbu_0, # of connection points: 3
#     Node 71, Type 0, BuildingBlock: WUSLED_clean_sbu_0, # of connection points: 3
#     Node 72, Type 0, BuildingBlock: WUSLED_clean_sbu_0, # of connection points: 3
#     Node 73, Type 0, BuildingBlock: WUSLED_clean_sbu_0, # of connection points: 3
#     Node 74, Type 0, BuildingBlock: WUSLED_clean_sbu_0, # of connection points: 3
#     Node 75, Type 0, BuildingBlock: WUSLED_clean_sbu_0, # of connection points: 3
#     Node 76, Type 0, BuildingBlock: WUSLED_clean_sbu_0, # of connection points: 3
#     Node 77, Type 0, BuildingBlock: WUSLED_clean_sbu_0, # of connection points: 3
#     Node 78, Type 0, BuildingBlock: WUSLED_clean_sbu_0, # of connection points: 3
#     Node 79, Type 0, BuildingBlock: WUSLED_clean_sbu_0, # of connection points: 3
#     Node 80, Type 0, BuildingBlock: WUSLED_clean_sbu_0, # of connection points: 3
#     Node 81, Type 0, BuildingBlock: WUSLED_clean_sbu_0, # of connection points: 3
#     Node 82, Type 0, BuildingBlock: WUSLED_clean_sbu_0, # of connection points: 3
#     Node 83, Type 0, BuildingBlock: WUSLED_clean_sbu_0, # of connection points: 3
#     Node 84, Type 0, BuildingBlock: WUSLED_clean_sbu_0, # of connection points: 3
#     Node 85, Type 0, BuildingBlock: WUSLED_clean_sbu_0, # of connection points: 3
#     Node 86, Type 0, BuildingBlock: WUSLED_clean_sbu_0, # of connection points: 3
#     Node 87, Type 0, BuildingBlock: WUSLED_clean_sbu_0, # of connection points: 3
#     Node 88, Type 0, BuildingBlock: WUSLED_clean_sbu_0, # of connection points: 3
#     Node 89, Type 0, BuildingBlock: WUSLED_clean_sbu_0, # of connection points: 3
#     Node 90, Type 0, BuildingBlock: WUSLED_clean_sbu_0, # of connection points: 3
#     Node 91, Type 0, BuildingBlock: WUSLED_clean_sbu_0, # of connection points: 3
#     Node 92, Type 0, BuildingBlock: WUSLED_clean_sbu_0, # of connection points: 3
#     Node 93, Type 0, BuildingBlock: WUSLED_clean_sbu_0, # of connection points: 3
#     Node 94, Type 0, BuildingBlock: WUSLED_clean_sbu_0, # of connection points: 3
#     Node 95, Type 0, BuildingBlock: WUSLED_clean_sbu_0, # of connection points: 3
#     Node 96, Type 1, BuildingBlock: CUQRIR_clean_linker_1, # of connection points: 3
#     Node 97, Type 1, BuildingBlock: CUQRIR_clean_linker_1, # of connection points: 3
#     Node 98, Type 1, BuildingBlock: CUQRIR_clean_linker_1, # of connection points: 3
#     Node 99, Type 1, BuildingBlock: CUQRIR_clean_linker_1, # of connection points: 3
#     Node 100, Type 1, BuildingBlock: CUQRIR_clean_linker_1, # of connection points: 3
#     Node 101, Type 1, BuildingBlock: CUQRIR_clean_linker_1, # of connection points: 3
#     Node 102, Type 1, BuildingBlock: CUQRIR_clean_linker_1, # of connection points: 3
#     Node 103, Type 1, BuildingBlock: CUQRIR_clean_linker_1, # of connection points: 3
#     Node 104, Type 1, BuildingBlock: CUQRIR_clean_linker_1, # of connection points: 3
#     Node 105, Type 1, BuildingBlock: CUQRIR_clean_linker_1, # of connection points: 3
#     Node 106, Type 1, BuildingBlock: CUQRIR_clean_linker_1, # of connection points: 3
#     Node 107, Type 1, BuildingBlock: CUQRIR_clean_linker_1, # of connection points: 3
#     Node 108, Type 1, BuildingBlock: CUQRIR_clean_linker_1, # of connection points: 3
#     Node 109, Type 1, BuildingBlock: CUQRIR_clean_linker_1, # of connection points: 3
#     Node 110, Type 1, BuildingBlock: CUQRIR_clean_linker_1, # of connection points: 3
#     Node 111, Type 1, BuildingBlock: CUQRIR_clean_linker_1, # of connection points: 3
#     Node 112, Type 1, BuildingBlock: CUQRIR_clean_linker_1, # of connection points: 3
#     Node 113, Type 1, BuildingBlock: CUQRIR_clean_linker_1, # of connection points: 3
#     Node 114, Type 1, BuildingBlock: CUQRIR_clean_linker_1, # of connection points: 3
#     Node 115, Type 1, BuildingBlock: CUQRIR_clean_linker_1, # of connection points: 3
#     Node 116, Type 1, BuildingBlock: CUQRIR_clean_linker_1, # of connection points: 3
#     Node 117, Type 1, BuildingBlock: CUQRIR_clean_linker_1, # of connection points: 3
#     Node 118, Type 1, BuildingBlock: CUQRIR_clean_linker_1, # of connection points: 3
#     Node 119, Type 1, BuildingBlock: CUQRIR_clean_linker_1, # of connection points: 3
#     Node 120, Type 1, BuildingBlock: CUQRIR_clean_linker_1, # of connection points: 3
#     Node 121, Type 1, BuildingBlock: CUQRIR_clean_linker_1, # of connection points: 3
#     Node 122, Type 1, BuildingBlock: CUQRIR_clean_linker_1, # of connection points: 3
#     Node 123, Type 1, BuildingBlock: CUQRIR_clean_linker_1, # of connection points: 3
#     Node 124, Type 1, BuildingBlock: CUQRIR_clean_linker_1, # of connection points: 3
#     Node 125, Type 1, BuildingBlock: CUQRIR_clean_linker_1, # of connection points: 3
#     Node 126, Type 1, BuildingBlock: CUQRIR_clean_linker_1, # of connection points: 3
#     Node 127, Type 1, BuildingBlock: CUQRIR_clean_linker_1, # of connection points: 3
#     Node 128, Type 1, BuildingBlock: CUQRIR_clean_linker_1, # of connection points: 3
#     Node 129, Type 1, BuildingBlock: CUQRIR_clean_linker_1, # of connection points: 3
#     Node 130, Type 1, BuildingBlock: CUQRIR_clean_linker_1, # of connection points: 3
#     Node 131, Type 1, BuildingBlock: CUQRIR_clean_linker_1, # of connection points: 3
#     Node 132, Type 1, BuildingBlock: CUQRIR_clean_linker_1, # of connection points: 3
#     Node 133, Type 1, BuildingBlock: CUQRIR_clean_linker_1, # of connection points: 3
#     Node 134, Type 1, BuildingBlock: CUQRIR_clean_linker_1, # of connection points: 3
#     Node 135, Type 1, BuildingBlock: CUQRIR_clean_linker_1, # of connection points: 3
#     Node 136, Type 1, BuildingBlock: CUQRIR_clean_linker_1, # of connection points: 3
#     Node 137, Type 1, BuildingBlock: CUQRIR_clean_linker_1, # of connection points: 3
#     Node 138, Type 1, BuildingBlock: CUQRIR_clean_linker_1, # of connection points: 3
#     Node 139, Type 1, BuildingBlock: CUQRIR_clean_linker_1, # of connection points: 3
#     Node 140, Type 1, BuildingBlock: CUQRIR_clean_linker_1, # of connection points: 3
#     Node 141, Type 1, BuildingBlock: CUQRIR_clean_linker_1, # of connection points: 3
#     Node 142, Type 1, BuildingBlock: CUQRIR_clean_linker_1, # of connection points: 3
#     Node 143, Type 1, BuildingBlock: CUQRIR_clean_linker_1, # of connection points: 3
#     Node 144, Type 1, BuildingBlock: CUQRIR_clean_linker_1, # of connection points: 3
#     Node 145, Type 1, BuildingBlock: CUQRIR_clean_linker_1, # of connection points: 3
#     Node 146, Type 1, BuildingBlock: CUQRIR_clean_linker_1, # of connection points: 3
#     Node 147, Type 1, BuildingBlock: CUQRIR_clean_linker_1, # of connection points: 3
#     Node 148, Type 1, BuildingBlock: CUQRIR_clean_linker_1, # of connection points: 3
#     Node 149, Type 1, BuildingBlock: CUQRIR_clean_linker_1, # of connection points: 3
#     Node 150, Type 1, BuildingBlock: CUQRIR_clean_linker_1, # of connection points: 3
#     Node 151, Type 1, BuildingBlock: CUQRIR_clean_linker_1, # of connection points: 3
#     Node 152, Type 1, BuildingBlock: CUQRIR_clean_linker_1, # of connection points: 3
#     Node 153, Type 1, BuildingBlock: CUQRIR_clean_linker_1, # of connection points: 3
#     Node 154, Type 1, BuildingBlock: CUQRIR_clean_linker_1, # of connection points: 3
#     Node 155, Type 1, BuildingBlock: CUQRIR_clean_linker_1, # of connection points: 3
#     Node 156, Type 1, BuildingBlock: CUQRIR_clean_linker_1, # of connection points: 3
#     Node 157, Type 1, BuildingBlock: CUQRIR_clean_linker_1, # of connection points: 3
#     Node 158, Type 1, BuildingBlock: CUQRIR_clean_linker_1, # of connection points: 3
#     Node 159, Type 1, BuildingBlock: CUQRIR_clean_linker_1, # of connection points: 3
#     Node 160, Type 1, BuildingBlock: CUQRIR_clean_linker_1, # of connection points: 3
#     Node 161, Type 1, BuildingBlock: CUQRIR_clean_linker_1, # of connection points: 3
#     Node 162, Type 1, BuildingBlock: CUQRIR_clean_linker_1, # of connection points: 3
#     Node 163, Type 1, BuildingBlock: CUQRIR_clean_linker_1, # of connection points: 3
#     Node 164, Type 1, BuildingBlock: CUQRIR_clean_linker_1, # of connection points: 3
#     Node 165, Type 1, BuildingBlock: CUQRIR_clean_linker_1, # of connection points: 3
#     Node 166, Type 1, BuildingBlock: CUQRIR_clean_linker_1, # of connection points: 3
#     Node 167, Type 1, BuildingBlock: CUQRIR_clean_linker_1, # of connection points: 3
#     Node 168, Type 1, BuildingBlock: CUQRIR_clean_linker_1, # of connection points: 3
#     Node 169, Type 1, BuildingBlock: CUQRIR_clean_linker_1, # of connection points: 3
#     Node 170, Type 1, BuildingBlock: CUQRIR_clean_linker_1, # of connection points: 3
#     Node 171, Type 1, BuildingBlock: CUQRIR_clean_linker_1, # of connection points: 3
#     Node 172, Type 1, BuildingBlock: CUQRIR_clean_linker_1, # of connection points: 3
#     Node 173, Type 1, BuildingBlock: CUQRIR_clean_linker_1, # of connection points: 3
#     Node 174, Type 1, BuildingBlock: CUQRIR_clean_linker_1, # of connection points: 3
#     Node 175, Type 1, BuildingBlock: CUQRIR_clean_linker_1, # of connection points: 3
#     Node 176, Type 1, BuildingBlock: CUQRIR_clean_linker_1, # of connection points: 3
#     Node 177, Type 1, BuildingBlock: CUQRIR_clean_linker_1, # of connection points: 3
#     Node 178, Type 1, BuildingBlock: CUQRIR_clean_linker_1, # of connection points: 3
#     Node 179, Type 1, BuildingBlock: CUQRIR_clean_linker_1, # of connection points: 3
#     Node 180, Type 1, BuildingBlock: CUQRIR_clean_linker_1, # of connection points: 3
#     Node 181, Type 1, BuildingBlock: CUQRIR_clean_linker_1, # of connection points: 3
#     Node 182, Type 1, BuildingBlock: CUQRIR_clean_linker_1, # of connection points: 3
#     Node 183, Type 1, BuildingBlock: CUQRIR_clean_linker_1, # of connection points: 3
#     Node 184, Type 1, BuildingBlock: CUQRIR_clean_linker_1, # of connection points: 3
#     Node 185, Type 1, BuildingBlock: CUQRIR_clean_linker_1, # of connection points: 3
#     Node 186, Type 1, BuildingBlock: CUQRIR_clean_linker_1, # of connection points: 3
#     Node 187, Type 1, BuildingBlock: CUQRIR_clean_linker_1, # of connection points: 3
#     Node 188, Type 1, BuildingBlock: CUQRIR_clean_linker_1, # of connection points: 3
#     Node 189, Type 1, BuildingBlock: CUQRIR_clean_linker_1, # of connection points: 3
#     Node 190, Type 1, BuildingBlock: CUQRIR_clean_linker_1, # of connection points: 3
#     Node 191, Type 1, BuildingBlock: CUQRIR_clean_linker_1, # of connection points: 3
#     Edge 192, Type (0, 1), BuildingBlock: XIVTED_clean_linker_0, # of connection points: 2
#     Edge 193, Type (0, 1), BuildingBlock: XIVTED_clean_linker_0, # of connection points: 2
#     Edge 194, Type (0, 1), BuildingBlock: XIVTED_clean_linker_0, # of connection points: 2
#     Edge 195, Type (0, 1), BuildingBlock: XIVTED_clean_linker_0, # of connection points: 2
#     Edge 196, Type (0, 1), BuildingBlock: XIVTED_clean_linker_0, # of connection points: 2
#     Edge 197, Type (0, 1), BuildingBlock: XIVTED_clean_linker_0, # of connection points: 2
#     Edge 198, Type (0, 1), BuildingBlock: XIVTED_clean_linker_0, # of connection points: 2
#     Edge 199, Type (0, 1), BuildingBlock: XIVTED_clean_linker_0, # of connection points: 2
#     Edge 200, Type (0, 1), BuildingBlock: XIVTED_clean_linker_0, # of connection points: 2
#     Edge 201, Type (0, 1), BuildingBlock: XIVTED_clean_linker_0, # of connection points: 2
#     Edge 202, Type (0, 1), BuildingBlock: XIVTED_clean_linker_0, # of connection points: 2
#     Edge 203, Type (0, 1), BuildingBlock: XIVTED_clean_linker_0, # of connection points: 2
#     Edge 204, Type (0, 1), BuildingBlock: XIVTED_clean_linker_0, # of connection points: 2
#     Edge 205, Type (0, 1), BuildingBlock: XIVTED_clean_linker_0, # of connection points: 2
#     Edge 206, Type (0, 1), BuildingBlock: XIVTED_clean_linker_0, # of connection points: 2
#     Edge 207, Type (0, 1), BuildingBlock: XIVTED_clean_linker_0, # of connection points: 2
#     Edge 208, Type (0, 1), BuildingBlock: XIVTED_clean_linker_0, # of connection points: 2
#     Edge 209, Type (0, 1), BuildingBlock: XIVTED_clean_linker_0, # of connection points: 2
#     Edge 210, Type (0, 1), BuildingBlock: XIVTED_clean_linker_0, # of connection points: 2
#     Edge 211, Type (0, 1), BuildingBlock: XIVTED_clean_linker_0, # of connection points: 2
#     Edge 212, Type (0, 1), BuildingBlock: XIVTED_clean_linker_0, # of connection points: 2
#     Edge 213, Type (0, 1), BuildingBlock: XIVTED_clean_linker_0, # of connection points: 2
#     Edge 214, Type (0, 1), BuildingBlock: XIVTED_clean_linker_0, # of connection points: 2
#     Edge 215, Type (0, 1), BuildingBlock: XIVTED_clean_linker_0, # of connection points: 2
#     Edge 216, Type (0, 1), BuildingBlock: XIVTED_clean_linker_0, # of connection points: 2
#     Edge 217, Type (0, 1), BuildingBlock: XIVTED_clean_linker_0, # of connection points: 2
#     Edge 218, Type (0, 1), BuildingBlock: XIVTED_clean_linker_0, # of connection points: 2
#     Edge 219, Type (0, 1), BuildingBlock: XIVTED_clean_linker_0, # of connection points: 2
#     Edge 220, Type (0, 1), BuildingBlock: XIVTED_clean_linker_0, # of connection points: 2
#     Edge 221, Type (0, 1), BuildingBlock: XIVTED_clean_linker_0, # of connection points: 2
#     Edge 222, Type (0, 1), BuildingBlock: XIVTED_clean_linker_0, # of connection points: 2
#     Edge 223, Type (0, 1), BuildingBlock: XIVTED_clean_linker_0, # of connection points: 2
#     Edge 224, Type (0, 1), BuildingBlock: XIVTED_clean_linker_0, # of connection points: 2
#     Edge 225, Type (0, 1), BuildingBlock: XIVTED_clean_linker_0, # of connection points: 2
#     Edge 226, Type (0, 1), BuildingBlock: XIVTED_clean_linker_0, # of connection points: 2
#     Edge 227, Type (0, 1), BuildingBlock: XIVTED_clean_linker_0, # of connection points: 2
#     Edge 228, Type (0, 1), BuildingBlock: XIVTED_clean_linker_0, # of connection points: 2
#     Edge 229, Type (0, 1), BuildingBlock: XIVTED_clean_linker_0, # of connection points: 2
#     Edge 230, Type (0, 1), BuildingBlock: XIVTED_clean_linker_0, # of connection points: 2
#     Edge 231, Type (0, 1), BuildingBlock: XIVTED_clean_linker_0, # of connection points: 2
#     Edge 232, Type (0, 1), BuildingBlock: XIVTED_clean_linker_0, # of connection points: 2
#     Edge 233, Type (0, 1), BuildingBlock: XIVTED_clean_linker_0, # of connection points: 2
#     Edge 234, Type (0, 1), BuildingBlock: XIVTED_clean_linker_0, # of connection points: 2
#     Edge 235, Type (0, 1), BuildingBlock: XIVTED_clean_linker_0, # of connection points: 2
#     Edge 236, Type (0, 1), BuildingBlock: XIVTED_clean_linker_0, # of connection points: 2
#     Edge 237, Type (0, 1), BuildingBlock: XIVTED_clean_linker_0, # of connection points: 2
#     Edge 238, Type (0, 1), BuildingBlock: XIVTED_clean_linker_0, # of connection points: 2
#     Edge 239, Type (0, 1), BuildingBlock: XIVTED_clean_linker_0, # of connection points: 2
#     Edge 240, Type (0, 1), BuildingBlock: XIVTED_clean_linker_0, # of connection points: 2
#     Edge 241, Type (0, 1), BuildingBlock: XIVTED_clean_linker_0, # of connection points: 2
#     Edge 242, Type (0, 1), BuildingBlock: XIVTED_clean_linker_0, # of connection points: 2
#     Edge 243, Type (0, 1), BuildingBlock: XIVTED_clean_linker_0, # of connection points: 2
#     Edge 244, Type (0, 1), BuildingBlock: XIVTED_clean_linker_0, # of connection points: 2
#     Edge 245, Type (0, 1), BuildingBlock: XIVTED_clean_linker_0, # of connection points: 2
#     Edge 246, Type (0, 1), BuildingBlock: XIVTED_clean_linker_0, # of connection points: 2
#     Edge 247, Type (0, 1), BuildingBlock: XIVTED_clean_linker_0, # of connection points: 2
#     Edge 248, Type (0, 1), BuildingBlock: XIVTED_clean_linker_0, # of connection points: 2
#     Edge 249, Type (0, 1), BuildingBlock: XIVTED_clean_linker_0, # of connection points: 2
#     Edge 250, Type (0, 1), BuildingBlock: XIVTED_clean_linker_0, # of connection points: 2
#     Edge 251, Type (0, 1), BuildingBlock: XIVTED_clean_linker_0, # of connection points: 2
#     Edge 252, Type (0, 1), BuildingBlock: XIVTED_clean_linker_0, # of connection points: 2
#     Edge 253, Type (0, 1), BuildingBlock: XIVTED_clean_linker_0, # of connection points: 2
#     Edge 254, Type (0, 1), BuildingBlock: XIVTED_clean_linker_0, # of connection points: 2
#     Edge 255, Type (0, 1), BuildingBlock: XIVTED_clean_linker_0, # of connection points: 2
#     Edge 256, Type (0, 1), BuildingBlock: XIVTED_clean_linker_0, # of connection points: 2
#     Edge 257, Type (0, 1), BuildingBlock: XIVTED_clean_linker_0, # of connection points: 2
#     Edge 258, Type (0, 1), BuildingBlock: XIVTED_clean_linker_0, # of connection points: 2
#     Edge 259, Type (0, 1), BuildingBlock: XIVTED_clean_linker_0, # of connection points: 2
#     Edge 260, Type (0, 1), BuildingBlock: XIVTED_clean_linker_0, # of connection points: 2
#     Edge 261, Type (0, 1), BuildingBlock: XIVTED_clean_linker_0, # of connection points: 2
#     Edge 262, Type (0, 1), BuildingBlock: XIVTED_clean_linker_0, # of connection points: 2
#     Edge 263, Type (0, 1), BuildingBlock: XIVTED_clean_linker_0, # of connection points: 2
#     Edge 264, Type (0, 1), BuildingBlock: XIVTED_clean_linker_0, # of connection points: 2
#     Edge 265, Type (0, 1), BuildingBlock: XIVTED_clean_linker_0, # of connection points: 2
#     Edge 266, Type (0, 1), BuildingBlock: XIVTED_clean_linker_0, # of connection points: 2
#     Edge 267, Type (0, 1), BuildingBlock: XIVTED_clean_linker_0, # of connection points: 2
#     Edge 268, Type (0, 1), BuildingBlock: XIVTED_clean_linker_0, # of connection points: 2
#     Edge 269, Type (0, 1), BuildingBlock: XIVTED_clean_linker_0, # of connection points: 2
#     Edge 270, Type (0, 1), BuildingBlock: XIVTED_clean_linker_0, # of connection points: 2
#     Edge 271, Type (0, 1), BuildingBlock: XIVTED_clean_linker_0, # of connection points: 2
#     Edge 272, Type (0, 1), BuildingBlock: XIVTED_clean_linker_0, # of connection points: 2
#     Edge 273, Type (0, 1), BuildingBlock: XIVTED_clean_linker_0, # of connection points: 2
#     Edge 274, Type (0, 1), BuildingBlock: XIVTED_clean_linker_0, # of connection points: 2
#     Edge 275, Type (0, 1), BuildingBlock: XIVTED_clean_linker_0, # of connection points: 2
#     Edge 276, Type (0, 1), BuildingBlock: XIVTED_clean_linker_0, # of connection points: 2
#     Edge 277, Type (0, 1), BuildingBlock: XIVTED_clean_linker_0, # of connection points: 2
#     Edge 278, Type (0, 1), BuildingBlock: XIVTED_clean_linker_0, # of connection points: 2
#     Edge 279, Type (0, 1), BuildingBlock: XIVTED_clean_linker_0, # of connection points: 2
#     Edge 280, Type (0, 1), BuildingBlock: XIVTED_clean_linker_0, # of connection points: 2
#     Edge 281, Type (0, 1), BuildingBlock: XIVTED_clean_linker_0, # of connection points: 2
#     Edge 282, Type (0, 1), BuildingBlock: XIVTED_clean_linker_0, # of connection points: 2
#     Edge 283, Type (0, 1), BuildingBlock: XIVTED_clean_linker_0, # of connection points: 2
#     Edge 284, Type (0, 1), BuildingBlock: XIVTED_clean_linker_0, # of connection points: 2
#     Edge 285, Type (0, 1), BuildingBlock: XIVTED_clean_linker_0, # of connection points: 2
#     Edge 286, Type (0, 1), BuildingBlock: XIVTED_clean_linker_0, # of connection points: 2
#     Edge 287, Type (0, 1), BuildingBlock: XIVTED_clean_linker_0, # of connection points: 2
#     Edge 288, Type (0, 1), BuildingBlock: XIVTED_clean_linker_0, # of connection points: 2
#     Edge 289, Type (0, 1), BuildingBlock: XIVTED_clean_linker_0, # of connection points: 2
#     Edge 290, Type (0, 1), BuildingBlock: XIVTED_clean_linker_0, # of connection points: 2
#     Edge 291, Type (0, 1), BuildingBlock: XIVTED_clean_linker_0, # of connection points: 2
#     Edge 292, Type (0, 1), BuildingBlock: XIVTED_clean_linker_0, # of connection points: 2
#     Edge 293, Type (0, 1), BuildingBlock: XIVTED_clean_linker_0, # of connection points: 2
#     Edge 294, Type (0, 1), BuildingBlock: XIVTED_clean_linker_0, # of connection points: 2
#     Edge 295, Type (0, 1), BuildingBlock: XIVTED_clean_linker_0, # of connection points: 2
#     Edge 296, Type (0, 1), BuildingBlock: XIVTED_clean_linker_0, # of connection points: 2
#     Edge 297, Type (0, 1), BuildingBlock: XIVTED_clean_linker_0, # of connection points: 2
#     Edge 298, Type (0, 1), BuildingBlock: XIVTED_clean_linker_0, # of connection points: 2
#     Edge 299, Type (0, 1), BuildingBlock: XIVTED_clean_linker_0, # of connection points: 2
#     Edge 300, Type (0, 1), BuildingBlock: XIVTED_clean_linker_0, # of connection points: 2
#     Edge 301, Type (0, 1), BuildingBlock: XIVTED_clean_linker_0, # of connection points: 2
#     Edge 302, Type (0, 1), BuildingBlock: XIVTED_clean_linker_0, # of connection points: 2
#     Edge 303, Type (0, 1), BuildingBlock: XIVTED_clean_linker_0, # of connection points: 2
#     Edge 304, Type (0, 1), BuildingBlock: XIVTED_clean_linker_0, # of connection points: 2
#     Edge 305, Type (0, 1), BuildingBlock: XIVTED_clean_linker_0, # of connection points: 2
#     Edge 306, Type (0, 1), BuildingBlock: XIVTED_clean_linker_0, # of connection points: 2
#     Edge 307, Type (0, 1), BuildingBlock: XIVTED_clean_linker_0, # of connection points: 2
#     Edge 308, Type (0, 1), BuildingBlock: XIVTED_clean_linker_0, # of connection points: 2
#     Edge 309, Type (0, 1), BuildingBlock: XIVTED_clean_linker_0, # of connection points: 2
#     Edge 310, Type (0, 1), BuildingBlock: XIVTED_clean_linker_0, # of connection points: 2
#     Edge 311, Type (0, 1), BuildingBlock: XIVTED_clean_linker_0, # of connection points: 2
#     Edge 312, Type (0, 1), BuildingBlock: XIVTED_clean_linker_0, # of connection points: 2
#     Edge 313, Type (0, 1), BuildingBlock: XIVTED_clean_linker_0, # of connection points: 2
#     Edge 314, Type (0, 1), BuildingBlock: XIVTED_clean_linker_0, # of connection points: 2
#     Edge 315, Type (0, 1), BuildingBlock: XIVTED_clean_linker_0, # of connection points: 2
#     Edge 316, Type (0, 1), BuildingBlock: XIVTED_clean_linker_0, # of connection points: 2
#     Edge 317, Type (0, 1), BuildingBlock: XIVTED_clean_linker_0, # of connection points: 2
#     Edge 318, Type (0, 1), BuildingBlock: XIVTED_clean_linker_0, # of connection points: 2
#     Edge 319, Type (0, 1), BuildingBlock: XIVTED_clean_linker_0, # of connection points: 2
#     Edge 320, Type (0, 1), BuildingBlock: XIVTED_clean_linker_0, # of connection points: 2
#     Edge 321, Type (0, 1), BuildingBlock: XIVTED_clean_linker_0, # of connection points: 2
#     Edge 322, Type (0, 1), BuildingBlock: XIVTED_clean_linker_0, # of connection points: 2
#     Edge 323, Type (0, 1), BuildingBlock: XIVTED_clean_linker_0, # of connection points: 2
#     Edge 324, Type (0, 1), BuildingBlock: XIVTED_clean_linker_0, # of connection points: 2
#     Edge 325, Type (0, 1), BuildingBlock: XIVTED_clean_linker_0, # of connection points: 2
#     Edge 326, Type (0, 1), BuildingBlock: XIVTED_clean_linker_0, # of connection points: 2
#     Edge 327, Type (0, 1), BuildingBlock: XIVTED_clean_linker_0, # of connection points: 2
#     Edge 328, Type (0, 1), BuildingBlock: XIVTED_clean_linker_0, # of connection points: 2
#     Edge 329, Type (0, 1), BuildingBlock: XIVTED_clean_linker_0, # of connection points: 2
#     Edge 330, Type (0, 1), BuildingBlock: XIVTED_clean_linker_0, # of connection points: 2
#     Edge 331, Type (0, 1), BuildingBlock: XIVTED_clean_linker_0, # of connection points: 2
#     Edge 332, Type (0, 1), BuildingBlock: XIVTED_clean_linker_0, # of connection points: 2
#     Edge 333, Type (0, 1), BuildingBlock: XIVTED_clean_linker_0, # of connection points: 2
#     Edge 334, Type (0, 1), BuildingBlock: XIVTED_clean_linker_0, # of connection points: 2
#     Edge 335, Type (0, 1), BuildingBlock: XIVTED_clean_linker_0, # of connection points: 2
#     Edge 336, Type (0, 1), BuildingBlock: XIVTED_clean_linker_0, # of connection points: 2
#     Edge 337, Type (0, 1), BuildingBlock: XIVTED_clean_linker_0, # of connection points: 2
#     Edge 338, Type (0, 1), BuildingBlock: XIVTED_clean_linker_0, # of connection points: 2
#     Edge 339, Type (0, 1), BuildingBlock: XIVTED_clean_linker_0, # of connection points: 2
#     Edge 340, Type (0, 1), BuildingBlock: XIVTED_clean_linker_0, # of connection points: 2
#     Edge 341, Type (0, 1), BuildingBlock: XIVTED_clean_linker_0, # of connection points: 2
#     Edge 342, Type (0, 1), BuildingBlock: XIVTED_clean_linker_0, # of connection points: 2
#     Edge 343, Type (0, 1), BuildingBlock: XIVTED_clean_linker_0, # of connection points: 2
#     Edge 344, Type (0, 1), BuildingBlock: XIVTED_clean_linker_0, # of connection points: 2
#     Edge 345, Type (0, 1), BuildingBlock: XIVTED_clean_linker_0, # of connection points: 2
#     Edge 346, Type (0, 1), BuildingBlock: XIVTED_clean_linker_0, # of connection points: 2
#     Edge 347, Type (0, 1), BuildingBlock: XIVTED_clean_linker_0, # of connection points: 2
#     Edge 348, Type (0, 1), BuildingBlock: XIVTED_clean_linker_0, # of connection points: 2
#     Edge 349, Type (0, 1), BuildingBlock: XIVTED_clean_linker_0, # of connection points: 2
#     Edge 350, Type (0, 1), BuildingBlock: XIVTED_clean_linker_0, # of connection points: 2
#     Edge 351, Type (0, 1), BuildingBlock: XIVTED_clean_linker_0, # of connection points: 2
#     Edge 352, Type (0, 1), BuildingBlock: XIVTED_clean_linker_0, # of connection points: 2
#     Edge 353, Type (0, 1), BuildingBlock: XIVTED_clean_linker_0, # of connection points: 2
#     Edge 354, Type (0, 1), BuildingBlock: XIVTED_clean_linker_0, # of connection points: 2
#     Edge 355, Type (0, 1), BuildingBlock: XIVTED_clean_linker_0, # of connection points: 2
#     Edge 356, Type (0, 1), BuildingBlock: XIVTED_clean_linker_0, # of connection points: 2
#     Edge 357, Type (0, 1), BuildingBlock: XIVTED_clean_linker_0, # of connection points: 2
#     Edge 358, Type (0, 1), BuildingBlock: XIVTED_clean_linker_0, # of connection points: 2
#     Edge 359, Type (0, 1), BuildingBlock: XIVTED_clean_linker_0, # of connection points: 2
#     Edge 360, Type (0, 1), BuildingBlock: XIVTED_clean_linker_0, # of connection points: 2
#     Edge 361, Type (0, 1), BuildingBlock: XIVTED_clean_linker_0, # of connection points: 2
#     Edge 362, Type (0, 1), BuildingBlock: XIVTED_clean_linker_0, # of connection points: 2
#     Edge 363, Type (0, 1), BuildingBlock: XIVTED_clean_linker_0, # of connection points: 2
#     Edge 364, Type (0, 1), BuildingBlock: XIVTED_clean_linker_0, # of connection points: 2
#     Edge 365, Type (0, 1), BuildingBlock: XIVTED_clean_linker_0, # of connection points: 2
#     Edge 366, Type (0, 1), BuildingBlock: XIVTED_clean_linker_0, # of connection points: 2
#     Edge 367, Type (0, 1), BuildingBlock: XIVTED_clean_linker_0, # of connection points: 2
#     Edge 368, Type (0, 1), BuildingBlock: XIVTED_clean_linker_0, # of connection points: 2
#     Edge 369, Type (0, 1), BuildingBlock: XIVTED_clean_linker_0, # of connection points: 2
#     Edge 370, Type (0, 1), BuildingBlock: XIVTED_clean_linker_0, # of connection points: 2
#     Edge 371, Type (0, 1), BuildingBlock: XIVTED_clean_linker_0, # of connection points: 2
#     Edge 372, Type (0, 1), BuildingBlock: XIVTED_clean_linker_0, # of connection points: 2
#     Edge 373, Type (0, 1), BuildingBlock: XIVTED_clean_linker_0, # of connection points: 2
#     Edge 374, Type (0, 1), BuildingBlock: XIVTED_clean_linker_0, # of connection points: 2
#     Edge 375, Type (0, 1), BuildingBlock: XIVTED_clean_linker_0, # of connection points: 2
#     Edge 376, Type (0, 1), BuildingBlock: XIVTED_clean_linker_0, # of connection points: 2
#     Edge 377, Type (0, 1), BuildingBlock: XIVTED_clean_linker_0, # of connection points: 2
#     Edge 378, Type (0, 1), BuildingBlock: XIVTED_clean_linker_0, # of connection points: 2
#     Edge 379, Type (0, 1), BuildingBlock: XIVTED_clean_linker_0, # of connection points: 2
#     Edge 380, Type (0, 1), BuildingBlock: XIVTED_clean_linker_0, # of connection points: 2
#     Edge 381, Type (0, 1), BuildingBlock: XIVTED_clean_linker_0, # of connection points: 2
#     Edge 382, Type (0, 1), BuildingBlock: XIVTED_clean_linker_0, # of connection points: 2
#     Edge 383, Type (0, 1), BuildingBlock: XIVTED_clean_linker_0, # of connection points: 2
#     Edge 384, Type (0, 1), BuildingBlock: XIVTED_clean_linker_0, # of connection points: 2
#     Edge 385, Type (0, 1), BuildingBlock: XIVTED_clean_linker_0, # of connection points: 2
#     Edge 386, Type (0, 1), BuildingBlock: XIVTED_clean_linker_0, # of connection points: 2
#     Edge 387, Type (0, 1), BuildingBlock: XIVTED_clean_linker_0, # of connection points: 2
#     Edge 388, Type (0, 1), BuildingBlock: XIVTED_clean_linker_0, # of connection points: 2
#     Edge 389, Type (0, 1), BuildingBlock: XIVTED_clean_linker_0, # of connection points: 2
#     Edge 390, Type (0, 1), BuildingBlock: XIVTED_clean_linker_0, # of connection points: 2
#     Edge 391, Type (0, 1), BuildingBlock: XIVTED_clean_linker_0, # of connection points: 2
#     Edge 392, Type (0, 1), BuildingBlock: XIVTED_clean_linker_0, # of connection points: 2
#     Edge 393, Type (0, 1), BuildingBlock: XIVTED_clean_linker_0, # of connection points: 2
#     Edge 394, Type (0, 1), BuildingBlock: XIVTED_clean_linker_0, # of connection points: 2
#     Edge 395, Type (0, 1), BuildingBlock: XIVTED_clean_linker_0, # of connection points: 2
#     Edge 396, Type (0, 1), BuildingBlock: XIVTED_clean_linker_0, # of connection points: 2
#     Edge 397, Type (0, 1), BuildingBlock: XIVTED_clean_linker_0, # of connection points: 2
#     Edge 398, Type (0, 1), BuildingBlock: XIVTED_clean_linker_0, # of connection points: 2
#     Edge 399, Type (0, 1), BuildingBlock: XIVTED_clean_linker_0, # of connection points: 2
#     Edge 400, Type (0, 1), BuildingBlock: XIVTED_clean_linker_0, # of connection points: 2
#     Edge 401, Type (0, 1), BuildingBlock: XIVTED_clean_linker_0, # of connection points: 2
#     Edge 402, Type (0, 1), BuildingBlock: XIVTED_clean_linker_0, # of connection points: 2
#     Edge 403, Type (0, 1), BuildingBlock: XIVTED_clean_linker_0, # of connection points: 2
#     Edge 404, Type (0, 1), BuildingBlock: XIVTED_clean_linker_0, # of connection points: 2
#     Edge 405, Type (0, 1), BuildingBlock: XIVTED_clean_linker_0, # of connection points: 2
#     Edge 406, Type (0, 1), BuildingBlock: XIVTED_clean_linker_0, # of connection points: 2
#     Edge 407, Type (0, 1), BuildingBlock: XIVTED_clean_linker_0, # of connection points: 2
#     Edge 408, Type (0, 1), BuildingBlock: XIVTED_clean_linker_0, # of connection points: 2
#     Edge 409, Type (0, 1), BuildingBlock: XIVTED_clean_linker_0, # of connection points: 2
#     Edge 410, Type (0, 1), BuildingBlock: XIVTED_clean_linker_0, # of connection points: 2
#     Edge 411, Type (0, 1), BuildingBlock: XIVTED_clean_linker_0, # of connection points: 2
#     Edge 412, Type (0, 1), BuildingBlock: XIVTED_clean_linker_0, # of connection points: 2
#     Edge 413, Type (0, 1), BuildingBlock: XIVTED_clean_linker_0, # of connection points: 2
#     Edge 414, Type (0, 1), BuildingBlock: XIVTED_clean_linker_0, # of connection points: 2
#     Edge 415, Type (0, 1), BuildingBlock: XIVTED_clean_linker_0, # of connection points: 2
#     Edge 416, Type (0, 1), BuildingBlock: XIVTED_clean_linker_0, # of connection points: 2
#     Edge 417, Type (0, 1), BuildingBlock: XIVTED_clean_linker_0, # of connection points: 2
#     Edge 418, Type (0, 1), BuildingBlock: XIVTED_clean_linker_0, # of connection points: 2
#     Edge 419, Type (0, 1), BuildingBlock: XIVTED_clean_linker_0, # of connection points: 2
#     Edge 420, Type (0, 1), BuildingBlock: XIVTED_clean_linker_0, # of connection points: 2
#     Edge 421, Type (0, 1), BuildingBlock: XIVTED_clean_linker_0, # of connection points: 2
#     Edge 422, Type (0, 1), BuildingBlock: XIVTED_clean_linker_0, # of connection points: 2
#     Edge 423, Type (0, 1), BuildingBlock: XIVTED_clean_linker_0, # of connection points: 2
#     Edge 424, Type (0, 1), BuildingBlock: XIVTED_clean_linker_0, # of connection points: 2
#     Edge 425, Type (0, 1), BuildingBlock: XIVTED_clean_linker_0, # of connection points: 2
#     Edge 426, Type (0, 1), BuildingBlock: XIVTED_clean_linker_0, # of connection points: 2
#     Edge 427, Type (0, 1), BuildingBlock: XIVTED_clean_linker_0, # of connection points: 2
#     Edge 428, Type (0, 1), BuildingBlock: XIVTED_clean_linker_0, # of connection points: 2
#     Edge 429, Type (0, 1), BuildingBlock: XIVTED_clean_linker_0, # of connection points: 2
#     Edge 430, Type (0, 1), BuildingBlock: XIVTED_clean_linker_0, # of connection points: 2
#     Edge 431, Type (0, 1), BuildingBlock: XIVTED_clean_linker_0, # of connection points: 2
#     Edge 432, Type (0, 1), BuildingBlock: XIVTED_clean_linker_0, # of connection points: 2
#     Edge 433, Type (0, 1), BuildingBlock: XIVTED_clean_linker_0, # of connection points: 2
#     Edge 434, Type (0, 1), BuildingBlock: XIVTED_clean_linker_0, # of connection points: 2
#     Edge 435, Type (0, 1), BuildingBlock: XIVTED_clean_linker_0, # of connection points: 2
#     Edge 436, Type (0, 1), BuildingBlock: XIVTED_clean_linker_0, # of connection points: 2
#     Edge 437, Type (0, 1), BuildingBlock: XIVTED_clean_linker_0, # of connection points: 2
#     Edge 438, Type (0, 1), BuildingBlock: XIVTED_clean_linker_0, # of connection points: 2
#     Edge 439, Type (0, 1), BuildingBlock: XIVTED_clean_linker_0, # of connection points: 2
#     Edge 440, Type (0, 1), BuildingBlock: XIVTED_clean_linker_0, # of connection points: 2
#     Edge 441, Type (0, 1), BuildingBlock: XIVTED_clean_linker_0, # of connection points: 2
#     Edge 442, Type (0, 1), BuildingBlock: XIVTED_clean_linker_0, # of connection points: 2
#     Edge 443, Type (0, 1), BuildingBlock: XIVTED_clean_linker_0, # of connection points: 2
#     Edge 444, Type (0, 1), BuildingBlock: XIVTED_clean_linker_0, # of connection points: 2
#     Edge 445, Type (0, 1), BuildingBlock: XIVTED_clean_linker_0, # of connection points: 2
#     Edge 446, Type (0, 1), BuildingBlock: XIVTED_clean_linker_0, # of connection points: 2
#     Edge 447, Type (0, 1), BuildingBlock: XIVTED_clean_linker_0, # of connection points: 2
#     Edge 448, Type (0, 1), BuildingBlock: XIVTED_clean_linker_0, # of connection points: 2
#     Edge 449, Type (0, 1), BuildingBlock: XIVTED_clean_linker_0, # of connection points: 2
#     Edge 450, Type (0, 1), BuildingBlock: XIVTED_clean_linker_0, # of connection points: 2
#     Edge 451, Type (0, 1), BuildingBlock: XIVTED_clean_linker_0, # of connection points: 2
#     Edge 452, Type (0, 1), BuildingBlock: XIVTED_clean_linker_0, # of connection points: 2
#     Edge 453, Type (0, 1), BuildingBlock: XIVTED_clean_linker_0, # of connection points: 2
#     Edge 454, Type (0, 1), BuildingBlock: XIVTED_clean_linker_0, # of connection points: 2
#     Edge 455, Type (0, 1), BuildingBlock: XIVTED_clean_linker_0, # of connection points: 2
#     Edge 456, Type (0, 1), BuildingBlock: XIVTED_clean_linker_0, # of connection points: 2
#     Edge 457, Type (0, 1), BuildingBlock: XIVTED_clean_linker_0, # of connection points: 2
#     Edge 458, Type (0, 1), BuildingBlock: XIVTED_clean_linker_0, # of connection points: 2
#     Edge 459, Type (0, 1), BuildingBlock: XIVTED_clean_linker_0, # of connection points: 2
#     Edge 460, Type (0, 1), BuildingBlock: XIVTED_clean_linker_0, # of connection points: 2
#     Edge 461, Type (0, 1), BuildingBlock: XIVTED_clean_linker_0, # of connection points: 2
#     Edge 462, Type (0, 1), BuildingBlock: XIVTED_clean_linker_0, # of connection points: 2
#     Edge 463, Type (0, 1), BuildingBlock: XIVTED_clean_linker_0, # of connection points: 2
#     Edge 464, Type (0, 1), BuildingBlock: XIVTED_clean_linker_0, # of connection points: 2
#     Edge 465, Type (0, 1), BuildingBlock: XIVTED_clean_linker_0, # of connection points: 2
#     Edge 466, Type (0, 1), BuildingBlock: XIVTED_clean_linker_0, # of connection points: 2
#     Edge 467, Type (0, 1), BuildingBlock: XIVTED_clean_linker_0, # of connection points: 2
#     Edge 468, Type (0, 1), BuildingBlock: XIVTED_clean_linker_0, # of connection points: 2
#     Edge 469, Type (0, 1), BuildingBlock: XIVTED_clean_linker_0, # of connection points: 2
#     Edge 470, Type (0, 1), BuildingBlock: XIVTED_clean_linker_0, # of connection points: 2
#     Edge 471, Type (0, 1), BuildingBlock: XIVTED_clean_linker_0, # of connection points: 2
#     Edge 472, Type (0, 1), BuildingBlock: XIVTED_clean_linker_0, # of connection points: 2
#     Edge 473, Type (0, 1), BuildingBlock: XIVTED_clean_linker_0, # of connection points: 2
#     Edge 474, Type (0, 1), BuildingBlock: XIVTED_clean_linker_0, # of connection points: 2
#     Edge 475, Type (0, 1), BuildingBlock: XIVTED_clean_linker_0, # of connection points: 2
#     Edge 476, Type (0, 1), BuildingBlock: XIVTED_clean_linker_0, # of connection points: 2
#     Edge 477, Type (0, 1), BuildingBlock: XIVTED_clean_linker_0, # of connection points: 2
#     Edge 478, Type (0, 1), BuildingBlock: XIVTED_clean_linker_0, # of connection points: 2
#     Edge 479, Type (0, 1), BuildingBlock: XIVTED_clean_linker_0, # of connection points: 2
# Relax obj value: 0.031
# Max RMSD: 0.050
# Mean RMSD: 0.033
data_MOF--net-ana-f--node1-WUSLED_clean_sbu_0--node2-CUQRIR_clean_linker_1--edge1-XIVTED_clean_linker_0
_symmetry_space_group_name_H-M    P1
_symmetry_Int_Tables_number       1
_symmetry_cell_setting            triclinic
loop_
_symmetry_equiv_pos_as_xyz
'x, y, z'
_cell_length_a     174.40771
_cell_length_b     174.52952
_cell_length_c     174.42154
_cell_angle_alpha  90.034268
_cell_angle_beta   89.968692
_cell_angle_gamma 90.028029
loop_
_atom_site_label
_atom_site_type_symbol
_atom_site_fract_x
_atom_site_fract_y
_atom_site_fract_z
_atom_type_partial_charge
C0 C 0.08952 0.12762 0.41457 0.0
C1 C 0.09709 0.13002 0.41321 0.0
C2 C 0.10116 0.1238 0.42508 0.0
C3 C 0.10291 0.12807 0.41844 0.0
C4 C 0.09363 0.12119 0.42616 0.0
C5 C 0.08789 0.12309 0.42097 0.0
U6 U 0.07718 0.13892 0.39927 0.0
O7 O 0.06709 0.13418 0.39317 0.0
O8 O 0.06564 0.14327 0.40201 0.0
C9 C 0.06241 0.13876 0.39691 0.0
C10 C 0.08292 0.13004 0.40994 0.0
C11 C 0.05403 0.13786 0.3966 0.0
C12 C 0.04189 0.13339 0.40178 0.0
C13 C 0.04993 0.13354 0.40202 0.0
C14 C 0.04204 0.14166 0.39062 0.0
C15 C 0.03789 0.1375 0.39612 0.0
C16 C 0.05004 0.14185 0.3909 0.0
C17 C 0.08921 0.1542 0.38663 0.0
C18 C 0.08781 0.16393 0.37674 0.0
C19 C 0.10005 0.16215 0.38304 0.0
C20 C 0.09691 0.15627 0.38743 0.0
C21 C 0.09556 0.16611 0.37767 0.0
C22 C 0.08464 0.158 0.38121 0.0
C23 C 0.08631 0.14822 0.39183 0.0
O24 O 0.08022 0.13693 0.41129 0.0
O25 O 0.08259 0.128 0.40269 0.0
O26 O 0.08447 0.1414 0.38919 0.0
O27 O 0.08283 0.15017 0.39822 0.0
H28 H 0.09844 0.13356 0.40829 0.0
H29 H 0.10868 0.13017 0.41749 0.0
H30 H 0.09211 0.1178 0.43114 0.0
H31 H 0.08208 0.12119 0.4221 0.0
H32 H 0.03877 0.13009 0.40603 0.0
H33 H 0.05291 0.13041 0.40647 0.0
H34 H 0.03909 0.14491 0.38624 0.0
H35 H 0.05313 0.14525 0.38672 0.0
H36 H 0.0842 0.16682 0.37261 0.0
H37 H 0.10597 0.16373 0.38405 0.0
H38 H 0.10051 0.15342 0.39162 0.0
H39 H 0.07867 0.15646 0.38049 0.0
C40 C 0.11083 0.82643 0.68987 0.0
C41 C 0.10946 0.83378 0.68687 0.0
C42 C 0.11856 0.83929 0.69595 0.0
C43 C 0.11335 0.84017 0.68987 0.0
C44 C 0.11971 0.83198 0.69909 0.0
C45 C 0.11591 0.82561 0.69604 0.0
U46 U 0.09662 0.8154 0.67674 0.0
O47 O 0.09901 0.80577 0.66896 0.0
O48 O 0.09112 0.80415 0.67865 0.0
C49 C 0.09454 0.80101 0.67271 0.0
C50 C 0.1075 0.81944 0.6864 0.0
C51 C 0.09714 0.79296 0.67333 0.0
C52 C 0.10625 0.78301 0.67706 0.0
C53 C 0.10371 0.79068 0.67742 0.0
C54 C 0.09558 0.7799 0.66875 0.0
C55 C 0.10231 0.77759 0.67253 0.0
C56 C 0.09305 0.78747 0.66915 0.0
C57 C 0.08196 0.82889 0.66566 0.0
C58 C 0.07277 0.82714 0.65527 0.0
C59 C 0.07484 0.83975 0.6607 0.0
C60 C 0.08016 0.8367 0.6658 0.0
C61 C 0.07104 0.83506 0.65535 0.0
C62 C 0.07822 0.82408 0.66039 0.0
C63 C 0.08811 0.82634 0.67087 0.0
O64 O 0.10054 0.81752 0.6886 0.0
O65 O 0.10862 0.81854 0.67901 0.0
O66 O 0.09457 0.82402 0.66777 0.0
O67 O 0.08622 0.82261 0.67713 0.0
H68 H 0.10554 0.83455 0.68211 0.0
H69 H 0.11235 0.84578 0.6874 0.0
H70 H 0.12372 0.83117 0.70375 0.0
H71 H 0.11707 0.81999 0.69842 0.0
H72 H 0.11146 0.7814 0.68003 0.0
H73 H 0.10696 0.79483 0.68069 0.0
H74 H 0.09235 0.77587 0.6653 0.0
H75 H 0.08796 0.78909 0.66597 0.0
H76 H 0.06994 0.82334 0.65127 0.0
H77 H 0.07389 0.84587 0.66085 0.0
H78 H 0.08304 0.84052 0.66976 0.0
H79 H 0.07956 0.81802 0.66018 0.0
C80 C 0.42126 0.87966 0.91546 0.0
C81 C 0.4143 0.87561 0.91505 0.0
C82 C 0.409 0.88338 0.92546 0.0
C83 C 0.40823 0.87744 0.92003 0.0
C84 C 0.41588 0.88758 0.92563 0.0
C85 C 0.42194 0.88571 0.9207 0.0
U86 U 0.43155 0.86805 0.89959 0.0
O87 O 0.44121 0.8714 0.89208 0.0
O88 O 0.44251 0.86181 0.90014 0.0
C89 C 0.44574 0.86603 0.8948 0.0
C90 C 0.42807 0.87738 0.91094 0.0
C91 C 0.45404 0.86765 0.89558 0.0
C92 C 0.46508 0.87492 0.90023 0.0
C93 C 0.45707 0.87389 0.89971 0.0
C94 C 0.46702 0.86352 0.89255 0.0
C95 C 0.47013 0.86966 0.89672 0.0
C96 C 0.4591 0.86256 0.89197 0.0
C97 C 0.41776 0.85422 0.88797 0.0
C98 C 0.42002 0.84423 0.87848 0.0
C99 C 0.4072 0.84642 0.88336 0.0
C100 C 0.40997 0.85233 0.88796 0.0
C101 C 0.41216 0.84224 0.87858 0.0
C102 C 0.42281 0.85019 0.88316 0.0
C103 C 0.42027 0.86015 0.89345 0.0
O104 O 0.43045 0.87031 0.91194 0.0
O105 O 0.42827 0.87956 0.90373 0.0
O106 O 0.42258 0.86679 0.89074 0.0
O107 O 0.42416 0.85784 0.89946 0.0
H108 H 0.41363 0.87092 0.91103 0.0
H109 H 0.40297 0.87415 0.9197 0.0
H110 H 0.41671 0.89212 0.92978 0.0
H111 H 0.42726 0.88889 0.92113 0.0
H112 H 0.46733 0.8797 0.90349 0.0
H113 H 0.45327 0.8779 0.90255 0.0
H114 H 0.47075 0.85945 0.88971 0.0
H115 H 0.45691 0.85775 0.88871 0.0
H116 H 0.42399 0.84117 0.87483 0.0
H117 H 0.40117 0.84497 0.88375 0.0
H118 H 0.406 0.85533 0.89169 0.0
H119 H 0.42886 0.85156 0.88309 0.0
C120 C 0.39726 0.18224 0.1898 0.0
C121 C 0.39971 0.17481 0.18789 0.0
C122 C 0.38965 0.16931 0.19599 0.0
C123 C 0.39593 0.16839 0.19096 0.0
C124 C 0.38737 0.17679 0.19796 0.0
C125 C 0.39114 0.18316 0.1949 0.0
U126 U 0.41185 0.19306 0.177 0.0
O127 O 0.40977 0.20258 0.16902 0.0
O128 O 0.41738 0.2043 0.1789 0.0
C129 C 0.41407 0.20741 0.17289 0.0
C130 C 0.40067 0.18918 0.18635 0.0
C131 C 0.41115 0.21532 0.17368 0.0
C132 C 0.4009 0.22453 0.17596 0.0
C133 C 0.40368 0.21697 0.1762 0.0
C134 C 0.4131 0.22887 0.17095 0.0
C135 C 0.40554 0.23055 0.1732 0.0
C136 C 0.41585 0.22135 0.17119 0.0
C137 C 0.42703 0.18002 0.16645 0.0
C138 C 0.43309 0.17981 0.15387 0.0
C139 C 0.43672 0.1705 0.16349 0.0
C140 C 0.43163 0.17384 0.16866 0.0
C141 C 0.43728 0.17321 0.15592 0.0
C142 C 0.42798 0.18318 0.1591 0.0
C143 C 0.42061 0.18211 0.17154 0.0
O144 O 0.40755 0.19114 0.18873 0.0
O145 O 0.39978 0.18994 0.17891 0.0
O146 O 0.41418 0.18429 0.16828 0.0
O147 O 0.4222 0.18582 0.17791 0.0
H148 H 0.40445 0.17398 0.18397 0.0
H149 H 0.3979 0.16272 0.18939 0.0
H150 H 0.3825 0.17775 0.20169 0.0
H151 H 0.38914 0.18884 0.19642 0.0
H152 H 0.39508 0.22564 0.17782 0.0
H153 H 0.39995 0.21241 0.17815 0.0
H154 H 0.4168 0.2333 0.16869 0.0
H155 H 0.42161 0.22019 0.16917 0.0
H156 H 0.43338 0.18208 0.14811 0.0
H157 H 0.44003 0.1656 0.16538 0.0
H158 H 0.43099 0.17131 0.17431 0.0
H159 H 0.4245 0.18798 0.15727 0.0
C160 C 0.08966 0.87988 0.09385 0.0
C161 C 0.09734 0.87811 0.09553 0.0
C162 C 0.10127 0.88387 0.08341 0.0
C163 C 0.10315 0.88016 0.09031 0.0
C164 C 0.09362 0.88576 0.0819 0.0
C165 C 0.08789 0.88382 0.0871 0.0
U166 U 0.07723 0.86885 0.1094 0.0
O167 O 0.06716 0.87387 0.11531 0.0
O168 O 0.06564 0.86468 0.10659 0.0
C169 C 0.06245 0.86934 0.11156 0.0
C170 C 0.08315 0.87746 0.0986 0.0
C171 C 0.05409 0.87028 0.11186 0.0
C172 C 0.04198 0.87458 0.10649 0.0
C173 C 0.05001 0.87436 0.10625 0.0
C174 C 0.04209 0.86684 0.11803 0.0
C175 C 0.03796 0.87075 0.11235 0.0
C176 C 0.05008 0.86659 0.11776 0.0
C177 C 0.08921 0.85363 0.1223 0.0
C178 C 0.08813 0.84288 0.13115 0.0
C179 C 0.10055 0.84651 0.12609 0.0
C180 C 0.09715 0.85248 0.12202 0.0
C181 C 0.09609 0.84153 0.13057 0.0
C182 C 0.0847 0.84888 0.12699 0.0
C183 C 0.08598 0.85949 0.11716 0.0
O184 O 0.08043 0.87056 0.09736 0.0
O185 O 0.08284 0.87962 0.10581 0.0
O186 O 0.08438 0.86644 0.11961 0.0
O187 O 0.08254 0.85747 0.11077 0.0
H188 H 0.09881 0.87502 0.10071 0.0
H189 H 0.10904 0.87859 0.09152 0.0
H190 H 0.09205 0.8886 0.07661 0.0
H191 H 0.082 0.88522 0.08572 0.0
H192 H 0.03889 0.87769 0.1021 0.0
H193 H 0.05302 0.87725 0.10165 0.0
H194 H 0.03913 0.8638 0.12257 0.0
H195 H 0.05316 0.86338 0.12209 0.0
H196 H 0.08454 0.83913 0.13454 0.0
H197 H 0.10669 0.84573 0.12562 0.0
H198 H 0.10073 0.8561 0.11845 0.0
H199 H 0.07855 0.84968 0.12727 0.0
C200 C 0.39765 0.82626 0.31867 0.0
C201 C 0.39879 0.83355 0.32191 0.0
C202 C 0.39019 0.83924 0.31242 0.0
C203 C 0.39506 0.83999 0.31882 0.0
C204 C 0.38928 0.83196 0.30908 0.0
C205 C 0.39296 0.82556 0.31218 0.0
U206 U 0.41183 0.81505 0.33159 0.0
O207 O 0.40951 0.80547 0.33945 0.0
O208 O 0.41716 0.80373 0.32958 0.0
C209 C 0.41386 0.80065 0.33561 0.0
C210 C 0.40085 0.81921 0.32213 0.0
C211 C 0.41119 0.79262 0.33511 0.0
C212 C 0.40209 0.78265 0.33138 0.0
C213 C 0.4047 0.79029 0.33092 0.0
C214 C 0.41252 0.77966 0.34002 0.0
C215 C 0.40588 0.77732 0.33612 0.0
C216 C 0.41515 0.78719 0.33949 0.0
C217 C 0.42707 0.82808 0.34233 0.0
C218 C 0.43355 0.82803 0.35471 0.0
C219 C 0.43659 0.83778 0.34534 0.0
C220 C 0.43138 0.83452 0.34024 0.0
C221 C 0.43755 0.8348 0.35278 0.0
C222 C 0.42835 0.82469 0.34952 0.0
C223 C 0.42068 0.82587 0.33724 0.0
O224 O 0.4077 0.81711 0.31981 0.0
O225 O 0.39985 0.81839 0.32955 0.0
O226 O 0.41423 0.82366 0.34047 0.0
O227 O 0.42229 0.82218 0.33087 0.0
H228 H 0.40242 0.83424 0.3269 0.0
H229 H 0.39595 0.84553 0.32146 0.0
H230 H 0.38552 0.83115 0.30421 0.0
H231 H 0.39199 0.81999 0.30961 0.0
H232 H 0.39692 0.781 0.32835 0.0
H233 H 0.40155 0.79439 0.32749 0.0
H234 H 0.41559 0.77568 0.34367 0.0
H235 H 0.42017 0.78884 0.34276 0.0
H236 H 0.4341 0.82551 0.36035 0.0
H237 H 0.43974 0.84278 0.34345 0.0
H238 H 0.43049 0.83723 0.33472 0.0
H239 H 0.4251 0.8197 0.35126 0.0
C240 C 0.41891 0.12834 0.59374 0.0
C241 C 0.41154 0.13154 0.59436 0.0
C242 C 0.40749 0.12438 0.583 0.0
C243 C 0.40583 0.12952 0.58903 0.0
C244 C 0.41479 0.12101 0.58267 0.0
C245 C 0.42041 0.12297 0.58798 0.0
U246 U 0.43118 0.13942 0.60933 0.0
O247 O 0.44122 0.13444 0.61525 0.0
O248 O 0.44277 0.14386 0.60678 0.0
C249 C 0.44594 0.13911 0.61168 0.0
C250 C 0.42547 0.13079 0.59842 0.0
C251 C 0.4543 0.13824 0.61221 0.0
C252 C 0.46643 0.13283 0.60796 0.0
C253 C 0.45838 0.13287 0.60781 0.0
C254 C 0.46631 0.14332 0.61706 0.0
C255 C 0.47049 0.13816 0.6125 0.0
C256 C 0.45831 0.14336 0.6169 0.0
C257 C 0.41904 0.15447 0.62226 0.0
C258 C 0.4203 0.16519 0.63112 0.0
C259 C 0.40779 0.16162 0.62625 0.0
C260 C 0.41111 0.15565 0.62211 0.0
C261 C 0.41234 0.16657 0.63068 0.0
C262 C 0.42365 0.1592 0.62688 0.0
C263 C 0.42214 0.1486 0.61702 0.0
O264 O 0.42809 0.13774 0.59725 0.0
O265 O 0.42582 0.12857 0.60561 0.0
O266 O 0.42384 0.14168 0.61946 0.0
O267 O 0.42566 0.15069 0.6107 0.0
H268 H 0.41029 0.13572 0.59877 0.0
H269 H 0.40026 0.13223 0.5894 0.0
H270 H 0.41621 0.11695 0.57819 0.0
H271 H 0.42606 0.12045 0.58742 0.0
H272 H 0.46946 0.12881 0.60433 0.0
H273 H 0.45537 0.12889 0.60411 0.0
H274 H 0.46921 0.1474 0.62074 0.0
H275 H 0.45524 0.14753 0.62033 0.0
H276 H 0.42395 0.16893 0.63447 0.0
H277 H 0.40165 0.16243 0.62588 0.0
H278 H 0.40746 0.15205 0.61859 0.0
H279 H 0.4298 0.15838 0.62705 0.0
C280 C 0.11083 0.182 0.81878 0.0
C281 C 0.10823 0.17453 0.8203 0.0
C282 C 0.11841 0.1692 0.8122 0.0
C283 C 0.11199 0.16818 0.81704 0.0
C284 C 0.12086 0.17672 0.81065 0.0
C285 C 0.11712 0.18302 0.8139 0.0
U286 U 0.09649 0.1929 0.832 0.0
O287 O 0.09885 0.20255 0.83978 0.0
O288 O 0.09101 0.20417 0.83005 0.0
C289 C 0.0944 0.20731 0.83601 0.0
C290 C 0.10739 0.18888 0.82236 0.0
C291 C 0.097 0.21536 0.8354 0.0
C292 C 0.10607 0.22534 0.83161 0.0
C293 C 0.10353 0.21767 0.83124 0.0
C294 C 0.0955 0.22841 0.84006 0.0
C295 C 0.10218 0.23074 0.83621 0.0
C296 C 0.09296 0.22084 0.83965 0.0
C297 C 0.08167 0.17956 0.84303 0.0
C298 C 0.07328 0.18111 0.85411 0.0
C299 C 0.07382 0.16896 0.84743 0.0
C300 C 0.07912 0.17201 0.84229 0.0
C301 C 0.07083 0.17342 0.85344 0.0
C302 C 0.07869 0.18416 0.84894 0.0
C303 C 0.0879 0.182 0.83786 0.0
O304 O 0.10044 0.19077 0.82017 0.0
O305 O 0.10848 0.1897 0.82977 0.0
O306 O 0.09434 0.18433 0.84098 0.0
O307 O 0.08608 0.18568 0.83154 0.0
H308 H 0.10337 0.17361 0.82406 0.0
H309 H 0.10988 0.16248 0.8183 0.0
H310 H 0.12584 0.17777 0.80709 0.0
H311 H 0.11924 0.18872 0.81268 0.0
H312 H 0.11125 0.22697 0.82859 0.0
H313 H 0.10675 0.21353 0.82792 0.0
H314 H 0.09231 0.23242 0.84357 0.0
H315 H 0.08791 0.2192 0.84288 0.0
H316 H 0.07106 0.18474 0.85864 0.0
H317 H 0.07228 0.16298 0.8468 0.0
H318 H 0.08142 0.16834 0.83783 0.0
H319 H 0.08062 0.19002 0.84963 0.0
C320 C 0.41471 0.0873 0.12825 0.0
C321 C 0.4132 0.09494 0.13035 0.0
C322 C 0.42513 0.09907 0.12424 0.0
C323 C 0.41836 0.1008 0.12831 0.0
C324 C 0.42639 0.09146 0.12191 0.0
C325 C 0.42126 0.08567 0.12391 0.0
U326 U 0.39866 0.0773 0.14017 0.0
O327 O 0.39134 0.06751 0.13683 0.0
O328 O 0.39944 0.06636 0.14643 0.0
C329 C 0.39417 0.06304 0.1422 0.0
C330 C 0.40996 0.08076 0.13079 0.0
C331 C 0.39504 0.05473 0.14062 0.0
C332 C 0.39977 0.04363 0.13348 0.0
C333 C 0.39935 0.05165 0.13452 0.0
C334 C 0.39172 0.04181 0.14462 0.0
C335 C 0.39587 0.0386 0.1385 0.0
C336 C 0.39129 0.04972 0.14563 0.0
C337 C 0.38674 0.09066 0.15408 0.0
C338 C 0.37897 0.08789 0.16536 0.0
C339 C 0.38093 0.10104 0.16136 0.0
C340 C 0.38537 0.09849 0.1552 0.0
C341 C 0.37781 0.09578 0.16659 0.0
C342 C 0.38338 0.08533 0.15911 0.0
C343 C 0.39231 0.08847 0.1481 0.0
O344 O 0.411 0.0785 0.13789 0.0
O345 O 0.40272 0.08066 0.12867 0.0
O346 O 0.38967 0.08615 0.14144 0.0
O347 O 0.39843 0.08471 0.15036 0.0
H348 H 0.40816 0.09632 0.13371 0.0
H349 H 0.41724 0.10661 0.1302 0.0
H350 H 0.43145 0.08993 0.11865 0.0
H351 H 0.42252 0.07983 0.12221 0.0
H352 H 0.40302 0.04137 0.12869 0.0
H353 H 0.40232 0.05542 0.13058 0.0
H354 H 0.3888 0.0382 0.14874 0.0
H355 H 0.38799 0.05194 0.15041 0.0
H356 H 0.3766 0.08374 0.16932 0.0
H357 H 0.38022 0.10714 0.16224 0.0
H358 H 0.38797 0.10269 0.15144 0.0
H359 H 0.38438 0.07925 0.15836 0.0
C360 C 0.18199 0.18999 0.39828 0.0
C361 C 0.17473 0.18659 0.39918 0.0
C362 C 0.16907 0.1962 0.39073 0.0
C363 C 0.16833 0.18965 0.39538 0.0
C364 C 0.17628 0.19974 0.39011 0.0
C365 C 0.18267 0.19663 0.39381 0.0
U366 U 0.19308 0.17665 0.41212 0.0
O367 O 0.20268 0.1689 0.40955 0.0
O368 O 0.20435 0.17841 0.41765 0.0
C369 C 0.20747 0.17256 0.41407 0.0
C370 C 0.18903 0.18648 0.40143 0.0
C371 C 0.21551 0.17328 0.41143 0.0
C372 C 0.22527 0.17567 0.40167 0.0
C373 C 0.2176 0.17618 0.4042 0.0
C374 C 0.22878 0.16971 0.41368 0.0
C375 C 0.2309 0.17219 0.40631 0.0
C376 C 0.22121 0.17023 0.41619 0.0
C377 C 0.1796 0.16556 0.42679 0.0
C378 C 0.18119 0.15474 0.43548 0.0
C379 C 0.16884 0.16098 0.43433 0.0
C380 C 0.17192 0.16608 0.42903 0.0
C381 C 0.17339 0.15521 0.43763 0.0
C382 C 0.18428 0.15989 0.43007 0.0
C383 C 0.18213 0.17077 0.42064 0.0
O384 O 0.19104 0.18856 0.40839 0.0
O385 O 0.18989 0.1791 0.40019 0.0
O386 O 0.18443 0.1677 0.41416 0.0
O387 O 0.18589 0.17701 0.42255 0.0
H388 H 0.17406 0.18148 0.40263 0.0
H389 H 0.16281 0.18685 0.39599 0.0
H390 H 0.17701 0.20475 0.38652 0.0
H391 H 0.18822 0.19932 0.39302 0.0
H392 H 0.2267 0.17765 0.39596 0.0
H393 H 0.21328 0.17856 0.40043 0.0
H394 H 0.23297 0.16715 0.41748 0.0
H395 H 0.21974 0.16798 0.42179 0.0
H396 H 0.18488 0.15041 0.43795 0.0
H397 H 0.16279 0.16143 0.43564 0.0
H398 H 0.1682 0.17036 0.4265 0.0
H399 H 0.19024 0.15937 0.42839 0.0
C400 C 0.09392 0.92039 0.62824 0.0
C401 C 0.09467 0.91308 0.63156 0.0
C402 C 0.08358 0.9085 0.62428 0.0
C403 C 0.08955 0.90716 0.62957 0.0
C404 C 0.08311 0.91574 0.62078 0.0
C405 C 0.0882 0.92159 0.62274 0.0
U406 U 0.10978 0.93073 0.64009 0.0
O407 O 0.11742 0.94026 0.63662 0.0
O408 O 0.10898 0.94194 0.64584 0.0
C409 C 0.11447 0.945 0.64168 0.0
C410 C 0.09858 0.92705 0.63066 0.0
C411 C 0.11384 0.95324 0.6397 0.0
C412 C 0.10675 0.96466 0.63571 0.0
C413 C 0.10726 0.95661 0.63647 0.0
C414 C 0.11946 0.96592 0.64111 0.0
C415 C 0.11278 0.96943 0.63826 0.0
C416 C 0.11995 0.95797 0.64184 0.0
C417 C 0.12148 0.91738 0.65428 0.0
C418 C 0.13026 0.92006 0.66481 0.0
C419 C 0.12647 0.90698 0.66209 0.0
C420 C 0.12198 0.90955 0.65599 0.0
C421 C 0.13056 0.9122 0.66661 0.0
C422 C 0.12576 0.92265 0.65863 0.0
C423 C 0.11596 0.91969 0.64829 0.0
O424 O 0.09747 0.92948 0.6377 0.0
O425 O 0.10583 0.92715 0.6286 0.0
O426 O 0.11866 0.92182 0.64158 0.0
O427 O 0.10994 0.92363 0.6505 0.0
H428 H 0.09906 0.91203 0.63582 0.0
H429 H 0.09007 0.90167 0.6324 0.0
H430 H 0.0787 0.91694 0.61658 0.0
H431 H 0.08754 0.92717 0.62009 0.0
H432 H 0.10153 0.96714 0.63346 0.0
H433 H 0.10245 0.95307 0.63476 0.0
H434 H 0.12432 0.96932 0.64292 0.0
H435 H 0.12509 0.95552 0.64432 0.0
H436 H 0.13334 0.92418 0.66829 0.0
H437 H 0.12653 0.90092 0.66345 0.0
H438 H 0.11868 0.90541 0.65274 0.0
H439 H 0.12544 0.92872 0.65741 0.0
C440 C 0.32871 0.81796 0.89891 0.0
C441 C 0.33625 0.81941 0.90132 0.0
C442 C 0.34105 0.81178 0.89064 0.0
C443 C 0.34242 0.81625 0.89722 0.0
C444 C 0.3335 0.81022 0.88843 0.0
C445 C 0.32739 0.81326 0.89255 0.0
U446 U 0.31531 0.83082 0.91212 0.0
O447 O 0.30534 0.8369 0.9072 0.0
O448 O 0.30362 0.82723 0.91536 0.0
C449 C 0.30053 0.83249 0.91094 0.0
C450 C 0.32195 0.82154 0.90237 0.0
C451 C 0.29221 0.83297 0.90984 0.0
C452 C 0.28053 0.8291 0.90331 0.0
C453 C 0.28827 0.82784 0.90506 0.0
C454 C 0.2806 0.84044 0.91133 0.0
C455 C 0.27665 0.83552 0.90631 0.0
C456 C 0.28831 0.83919 0.91304 0.0
C457 C 0.32687 0.84369 0.92777 0.0
C458 C 0.32633 0.85437 0.93673 0.0
C459 C 0.33848 0.8482 0.934 0.0
C460 C 0.33478 0.84312 0.92905 0.0
C461 C 0.3343 0.8539 0.93781 0.0
C462 C 0.32262 0.8493 0.93168 0.0
C463 C 0.32342 0.83867 0.92195 0.0
O464 O 0.31979 0.81935 0.90925 0.0
O465 O 0.3208 0.82884 0.90097 0.0
O466 O 0.32176 0.84128 0.91509 0.0
O467 O 0.32044 0.83197 0.92369 0.0
H468 H 0.33735 0.82307 0.90622 0.0
H469 H 0.34824 0.81754 0.89899 0.0
H470 H 0.33231 0.80675 0.88341 0.0
H471 H 0.3216 0.8121 0.89062 0.0
H472 H 0.2777 0.82526 0.89934 0.0
H473 H 0.29124 0.82304 0.90246 0.0
H474 H 0.27778 0.84537 0.91384 0.0
H475 H 0.2913 0.84322 0.91671 0.0
H476 H 0.32303 0.85875 0.93964 0.0
H477 H 0.34462 0.84775 0.93478 0.0
H478 H 0.33815 0.83884 0.92606 0.0
H479 H 0.31651 0.84985 0.93074 0.0
C480 C 0.41429 0.91858 0.38049 0.0
C481 C 0.41333 0.91124 0.37733 0.0
C482 C 0.42449 0.90676 0.38443 0.0
C483 C 0.41845 0.90535 0.37929 0.0
C484 C 0.42526 0.91403 0.38774 0.0
C485 C 0.4202 0.91988 0.38578 0.0
U486 U 0.39899 0.93079 0.36916 0.0
O487 O 0.39282 0.94085 0.37388 0.0
O488 O 0.40154 0.94234 0.36469 0.0
C489 C 0.39646 0.94554 0.36924 0.0
C490 C 0.40979 0.92527 0.37806 0.0
C491 C 0.3961 0.95393 0.37012 0.0
C492 C 0.40116 0.96617 0.37449 0.0
C493 C 0.40149 0.95813 0.37436 0.0
C494 C 0.38992 0.96582 0.36636 0.0
C495 C 0.39541 0.97016 0.3704 0.0
C496 C 0.3903 0.95783 0.3662 0.0
C497 C 0.38595 0.91893 0.35414 0.0
C498 C 0.37826 0.92096 0.34266 0.0
C499 C 0.38021 0.9081 0.34748 0.0
C500 C 0.38458 0.91104 0.3535 0.0
C501 C 0.37708 0.91299 0.34191 0.0
C502 C 0.38267 0.92392 0.34874 0.0
C503 C 0.39144 0.92143 0.3601 0.0
O504 O 0.41106 0.9278 0.37108 0.0
O505 O 0.40257 0.92569 0.38017 0.0
O506 O 0.38898 0.92326 0.36699 0.0
O507 O 0.39773 0.925 0.35801 0.0
H508 H 0.40882 0.91015 0.3732 0.0
H509 H 0.41784 0.89977 0.37664 0.0
H510 H 0.42995 0.91526 0.39162 0.0
H511 H 0.42106 0.92554 0.38821 0.0
H512 H 0.40557 0.96924 0.37759 0.0
H513 H 0.40604 0.95522 0.37742 0.0
H514 H 0.38527 0.96855 0.3633 0.0
H515 H 0.38608 0.95467 0.36291 0.0
H516 H 0.37587 0.92488 0.33848 0.0
H517 H 0.37955 0.90195 0.34702 0.0
H518 H 0.38714 0.90709 0.35755 0.0
H519 H 0.38367 0.93003 0.34911 0.0
C520 C 0.32686 0.18957 0.61083 0.0
C521 C 0.33421 0.18643 0.60972 0.0
C522 C 0.33971 0.19587 0.61851 0.0
C523 C 0.34058 0.18955 0.61355 0.0
C524 C 0.33237 0.1991 0.61939 0.0
C525 C 0.32604 0.19597 0.6156 0.0
U526 U 0.31575 0.17643 0.59669 0.0
O527 O 0.30616 0.16864 0.59919 0.0
O528 O 0.30443 0.17828 0.59128 0.0
C529 C 0.30132 0.17239 0.59481 0.0
C530 C 0.31987 0.18603 0.60758 0.0
C531 C 0.29332 0.17317 0.5976 0.0
C532 C 0.28378 0.17471 0.60774 0.0
C533 C 0.29144 0.17516 0.60518 0.0
C534 C 0.27982 0.17071 0.59506 0.0
C535 C 0.27787 0.17225 0.60276 0.0
C536 C 0.28742 0.17111 0.59256 0.0
C537 C 0.32878 0.16554 0.58158 0.0
C538 C 0.32709 0.15398 0.57392 0.0
C539 C 0.33894 0.16119 0.57309 0.0
C540 C 0.3361 0.16646 0.57839 0.0
C541 C 0.33453 0.15484 0.57092 0.0
C542 C 0.3242 0.15934 0.57922 0.0
C543 C 0.32661 0.17073 0.5879 0.0
O544 O 0.31781 0.18827 0.60068 0.0
O545 O 0.31908 0.17862 0.60864 0.0
O546 O 0.32441 0.16758 0.59438 0.0
O547 O 0.32285 0.17703 0.5862 0.0
H548 H 0.33499 0.18149 0.60604 0.0
H549 H 0.34617 0.18699 0.61267 0.0
H550 H 0.33146 0.2039 0.62321 0.0
H551 H 0.32043 0.19846 0.61656 0.0
H552 H 0.28257 0.17596 0.61369 0.0
H553 H 0.2959 0.17679 0.60918 0.0
H554 H 0.2755 0.16907 0.59094 0.0
H555 H 0.28872 0.16957 0.58668 0.0
H556 H 0.3236 0.14911 0.57229 0.0
H557 H 0.34471 0.16191 0.5709 0.0
H558 H 0.33974 0.17116 0.58019 0.0
H559 H 0.31854 0.15851 0.58163 0.0
C560 C 0.09394 0.08943 0.88043 0.0
C561 C 0.09564 0.09713 0.87879 0.0
C562 C 0.0834 0.10098 0.88442 0.0
C563 C 0.09039 0.1029 0.88084 0.0
C564 C 0.08194 0.09329 0.88625 0.0
C565 C 0.08715 0.0876 0.88428 0.0
U566 U 0.10955 0.07733 0.8692 0.0
O567 O 0.11563 0.06726 0.874 0.0
O568 O 0.10697 0.0658 0.86475 0.0
C569 C 0.11199 0.06257 0.86934 0.0
C570 C 0.09869 0.08293 0.87796 0.0
C571 C 0.11225 0.05418 0.87026 0.0
C572 C 0.1069 0.04199 0.87441 0.0
C573 C 0.10663 0.05004 0.87426 0.0
C574 C 0.11849 0.04224 0.86677 0.0
C575 C 0.11278 0.03796 0.87056 0.0
C576 C 0.11819 0.05023 0.8666 0.0
C577 C 0.12272 0.089 0.8542 0.0
C578 C 0.13044 0.08676 0.84278 0.0
C579 C 0.12842 0.09971 0.84734 0.0
C580 C 0.12406 0.09688 0.85341 0.0
C581 C 0.13156 0.09472 0.84186 0.0
C582 C 0.12604 0.08391 0.84891 0.0
C583 C 0.11719 0.08662 0.86015 0.0
O584 O 0.09747 0.08031 0.87101 0.0
O585 O 0.1059 0.08262 0.88012 0.0
O586 O 0.11961 0.08479 0.86705 0.0
O587 O 0.11089 0.08307 0.85804 0.0
H588 H 0.10087 0.09864 0.8758 0.0
H589 H 0.09162 0.1088 0.87934 0.0
H590 H 0.07665 0.09165 0.88907 0.0
H591 H 0.08576 0.08169 0.8856 0.0
H592 H 0.10234 0.03895 0.87733 0.0
H593 H 0.10198 0.05299 0.87712 0.0
H594 H 0.12322 0.03945 0.86389 0.0
H595 H 0.12257 0.05335 0.86349 0.0
H596 H 0.13285 0.08277 0.83868 0.0
H597 H 0.12904 0.10586 0.84675 0.0
H598 H 0.12147 0.1009 0.85738 0.0
H599 H 0.12506 0.0778 0.8494 0.0
C600 C 0.18205 0.81877 0.11101 0.0
C601 C 0.17456 0.82048 0.10858 0.0
C602 C 0.16927 0.81241 0.11878 0.0
C603 C 0.16822 0.81733 0.11244 0.0
C604 C 0.17681 0.81063 0.12103 0.0
C605 C 0.18309 0.81377 0.11719 0.0
U606 U 0.1929 0.83186 0.09658 0.0
O607 O 0.20241 0.83981 0.09896 0.0
O608 O 0.20425 0.83 0.09127 0.0
C609 C 0.20729 0.83602 0.09465 0.0
C610 C 0.18891 0.82234 0.10757 0.0
C611 C 0.21528 0.83547 0.09744 0.0
C612 C 0.2252 0.83111 0.1063 0.0
C613 C 0.21753 0.83097 0.10373 0.0
C614 C 0.22835 0.8402 0.09631 0.0
C615 C 0.23073 0.83578 0.10264 0.0
C616 C 0.22078 0.83999 0.09374 0.0
C617 C 0.18 0.84272 0.08143 0.0
C618 C 0.18116 0.85476 0.07443 0.0
C619 C 0.17025 0.84647 0.07222 0.0
C620 C 0.17314 0.84124 0.07752 0.0
C621 C 0.17414 0.85335 0.0707 0.0
C622 C 0.18409 0.84946 0.07976 0.0
C623 C 0.18205 0.83752 0.08777 0.0
O624 O 0.19087 0.82007 0.10066 0.0
O625 O 0.18963 0.82977 0.10857 0.0
O626 O 0.1842 0.84067 0.09427 0.0
O627 O 0.18579 0.8312 0.0861 0.0
H628 H 0.17362 0.82433 0.10381 0.0
H629 H 0.1625 0.81875 0.1105 0.0
H630 H 0.17787 0.80698 0.12593 0.0
H631 H 0.18882 0.8124 0.11917 0.0
H632 H 0.22678 0.82756 0.11113 0.0
H633 H 0.21337 0.82744 0.10669 0.0
H634 H 0.23225 0.84405 0.09343 0.0
H635 H 0.21916 0.84355 0.08892 0.0
H636 H 0.18431 0.86 0.07332 0.0
H637 H 0.16478 0.84525 0.06953 0.0
H638 H 0.16984 0.83613 0.07879 0.0
H639 H 0.1894 0.85074 0.08272 0.0
C640 C 0.12824 0.41468 0.08733 0.0
C641 C 0.13209 0.41407 0.09438 0.0
C642 C 0.12456 0.42471 0.09957 0.0
C643 C 0.13026 0.41905 0.10044 0.0
C644 C 0.12054 0.42507 0.09259 0.0
C645 C 0.12238 0.42012 0.08654 0.0
U646 U 0.13977 0.39873 0.077 0.0
O647 O 0.13631 0.39116 0.06742 0.0
O648 O 0.14581 0.39934 0.06594 0.0
C649 C 0.14159 0.39395 0.0628 0.0
C650 C 0.13054 0.41014 0.08054 0.0
C651 C 0.13985 0.3946 0.05453 0.0
C652 C 0.13607 0.40172 0.04308 0.0
C653 C 0.13655 0.40113 0.05114 0.0
C654 C 0.14187 0.38919 0.04185 0.0
C655 C 0.13896 0.39583 0.03834 0.0
C656 C 0.14232 0.38861 0.04981 0.0
C657 C 0.15339 0.38667 0.09064 0.0
C658 C 0.16451 0.37846 0.08854 0.0
C659 C 0.16011 0.38107 0.10145 0.0
C660 C 0.15415 0.38551 0.09854 0.0
C661 C 0.1655 0.37767 0.09653 0.0
C662 C 0.1585 0.38298 0.0856 0.0
C663 C 0.14762 0.39234 0.08816 0.0
O664 O 0.13764 0.41109 0.07821 0.0
O665 O 0.1283 0.40295 0.08032 0.0
O666 O 0.14086 0.38984 0.08596 0.0
O667 O 0.15007 0.39829 0.08426 0.0
H668 H 0.13662 0.4099 0.09512 0.0
H669 H 0.1334 0.41855 0.10578 0.0
H670 H 0.11619 0.42939 0.09167 0.0
H671 H 0.11936 0.42069 0.08115 0.0
H672 H 0.13375 0.4069 0.04058 0.0
H673 H 0.13459 0.40584 0.05468 0.0
H674 H 0.14395 0.38443 0.03844 0.0
H675 H 0.14487 0.38352 0.05229 0.0
H676 H 0.16858 0.3759 0.08461 0.0
H677 H 0.16061 0.38047 0.10761 0.0
H678 H 0.15026 0.38828 0.10252 0.0
H679 H 0.15801 0.38381 0.07947 0.0
C680 C 0.62862 0.09361 0.91884 0.0
C681 C 0.63039 0.09539 0.91119 0.0
C682 C 0.62433 0.08345 0.907 0.0
C683 C 0.62823 0.09034 0.9053 0.0
C684 C 0.62253 0.08183 0.91468 0.0
C685 C 0.62464 0.08685 0.9205 0.0
U686 U 0.63977 0.10909 0.93114 0.0
O687 O 0.63489 0.11516 0.94118 0.0
O688 O 0.64404 0.10642 0.94271 0.0
C689 C 0.63948 0.11149 0.9459 0.0
C690 C 0.63101 0.09829 0.92541 0.0
C691 C 0.63845 0.11172 0.95425 0.0
C692 C 0.63403 0.10633 0.9663 0.0
C693 C 0.63422 0.10618 0.95826 0.0
C694 C 0.64209 0.11764 0.96632 0.0
C695 C 0.63806 0.112 0.97039 0.0
C696 C 0.64229 0.11748 0.95832 0.0
C697 C 0.65508 0.12187 0.91924 0.0
C698 C 0.66509 0.1315 0.92078 0.0
C699 C 0.6628 0.12579 0.90832 0.0
C700 C 0.65693 0.12136 0.91145 0.0
C701 C 0.66701 0.13088 0.91293 0.0
C702 C 0.65914 0.12702 0.92392 0.0
C703 C 0.64911 0.11661 0.9221 0.0
O704 O 0.63792 0.09703 0.92812 0.0
O705 O 0.62891 0.10552 0.92569 0.0
O706 O 0.64224 0.11916 0.92384 0.0
O707 O 0.65109 0.11026 0.92561 0.0
H708 H 0.63348 0.1006 0.90981 0.0
H709 H 0.62965 0.09179 0.89943 0.0
H710 H 0.6197 0.07654 0.91626 0.0
H711 H 0.62329 0.08537 0.92638 0.0
H712 H 0.63079 0.10198 0.96933 0.0
H713 H 0.6312 0.10169 0.95522 0.0
H714 H 0.64529 0.12204 0.96931 0.0
H715 H 0.64562 0.12176 0.95529 0.0
H716 H 0.6682 0.1354 0.92447 0.0
H717 H 0.66419 0.12504 0.90232 0.0
H718 H 0.65389 0.11739 0.90776 0.0
H719 H 0.6578 0.1275 0.92996 0.0
C720 C 0.1903 0.39744 0.18265 0.0
C721 C 0.18791 0.39914 0.17514 0.0
C722 C 0.19666 0.38945 0.17003 0.0
C723 C 0.19109 0.39519 0.16887 0.0
C724 C 0.19918 0.38799 0.17754 0.0
C725 C 0.19604 0.39195 0.18376 0.0
U726 U 0.17683 0.41168 0.19326 0.0
O727 O 0.16898 0.40932 0.20284 0.0
O728 O 0.17853 0.41737 0.20446 0.0
C729 C 0.1727 0.41379 0.20763 0.0
C730 C 0.18667 0.40088 0.18949 0.0
C731 C 0.17372 0.41088 0.21553 0.0
C732 C 0.17569 0.40049 0.22463 0.0
C733 C 0.1759 0.40328 0.21708 0.0
C734 C 0.17154 0.41293 0.22916 0.0
C735 C 0.17337 0.40526 0.23072 0.0
C736 C 0.17169 0.41569 0.22164 0.0
C737 C 0.16568 0.42607 0.17968 0.0
C738 C 0.15576 0.4357 0.18164 0.0
C739 C 0.16022 0.43277 0.16882 0.0
C740 C 0.16531 0.42742 0.1718 0.0
C741 C 0.15538 0.43702 0.17366 0.0
C742 C 0.16089 0.43024 0.18464 0.0
C743 C 0.17096 0.42 0.1822 0.0
O744 O 0.18875 0.40789 0.19131 0.0
O745 O 0.17927 0.39968 0.19027 0.0
O746 O 0.16794 0.41351 0.18452 0.0
O747 O 0.17717 0.422 0.18598 0.0
H748 H 0.18347 0.40337 0.17415 0.0
H749 H 0.18901 0.39644 0.16316 0.0
H750 H 0.20354 0.38371 0.17863 0.0
H751 H 0.19799 0.39058 0.18949 0.0
H752 H 0.17716 0.39455 0.22569 0.0
H753 H 0.17749 0.39946 0.21245 0.0
H754 H 0.16964 0.41671 0.23371 0.0
H755 H 0.16992 0.42155 0.22056 0.0
H756 H 0.15213 0.43889 0.18554 0.0
H757 H 0.15998 0.43341 0.16265 0.0
H758 H 0.1689 0.4242 0.16787 0.0
H759 H 0.16108 0.42925 0.19077 0.0
C760 C 0.88059 0.91451 0.41919 0.0
C761 C 0.87866 0.91278 0.41158 0.0
C762 C 0.88498 0.92455 0.40728 0.0
C763 C 0.88087 0.91776 0.40565 0.0
C764 C 0.88694 0.92613 0.41493 0.0
C765 C 0.88479 0.92116 0.42079 0.0
U766 U 0.86922 0.89919 0.43144 0.0
O767 O 0.87391 0.89304 0.44152 0.0
O768 O 0.86485 0.9019 0.44298 0.0
C769 C 0.86932 0.89677 0.44619 0.0
C770 C 0.87815 0.9099 0.42579 0.0
C771 C 0.87021 0.89647 0.45457 0.0
C772 C 0.87453 0.90171 0.46672 0.0
C773 C 0.87438 0.90198 0.45868 0.0
C774 C 0.8665 0.89038 0.46652 0.0
C775 C 0.8705 0.89597 0.47072 0.0
C776 C 0.86635 0.89066 0.45853 0.0
C777 C 0.85387 0.88658 0.4194 0.0
C778 C 0.84527 0.87559 0.42019 0.0
C779 C 0.84521 0.88366 0.40891 0.0
C780 C 0.85093 0.88819 0.41212 0.0
C781 C 0.84228 0.87726 0.41284 0.0
C782 C 0.85103 0.88023 0.42346 0.0
C783 C 0.85986 0.89178 0.42232 0.0
O784 O 0.87124 0.91123 0.42847 0.0
O785 O 0.88017 0.90264 0.42609 0.0
O786 O 0.86668 0.88913 0.42417 0.0
O787 O 0.85795 0.89821 0.42574 0.0
H788 H 0.8754 0.90766 0.41024 0.0
H789 H 0.87933 0.91632 0.39981 0.0
H790 H 0.88993 0.93135 0.41647 0.0
H791 H 0.88627 0.92261 0.42664 0.0
H792 H 0.87776 0.90602 0.46982 0.0
H793 H 0.87742 0.90651 0.45572 0.0
H794 H 0.8633 0.88592 0.46943 0.0
H795 H 0.86307 0.8864 0.45542 0.0
H796 H 0.84322 0.87069 0.42339 0.0
H797 H 0.84299 0.88533 0.40337 0.0
H798 H 0.85304 0.89308 0.40891 0.0
H799 H 0.85323 0.87887 0.4291 0.0
C800 C 0.81813 0.11057 0.18229 0.0
C801 C 0.81941 0.10785 0.1748 0.0
C802 C 0.81193 0.11848 0.16958 0.0
C803 C 0.81628 0.11176 0.16848 0.0
C804 C 0.81054 0.12102 0.1771 0.0
C805 C 0.8136 0.1171 0.18336 0.0
U806 U 0.83141 0.09614 0.19283 0.0
O807 O 0.83934 0.0984 0.20234 0.0
O808 O 0.82967 0.09052 0.20406 0.0
C809 C 0.83557 0.09403 0.20718 0.0
C810 C 0.8217 0.10705 0.18911 0.0
C811 C 0.83464 0.09703 0.21506 0.0
C812 C 0.83263 0.10752 0.22408 0.0
C813 C 0.83236 0.10461 0.21656 0.0
C814 C 0.83705 0.0952 0.22869 0.0
C815 C 0.8351 0.10286 0.23019 0.0
C816 C 0.83685 0.09234 0.2212 0.0
C817 C 0.84252 0.08153 0.17964 0.0
C818 C 0.85401 0.07387 0.18166 0.0
C819 C 0.84742 0.07343 0.16944 0.0
C820 C 0.84197 0.07858 0.17219 0.0
C821 C 0.85354 0.07114 0.17409 0.0
C822 C 0.8485 0.07905 0.18445 0.0
C823 C 0.83717 0.08769 0.18176 0.0
O824 O 0.81954 0.10006 0.19089 0.0
O825 O 0.82911 0.10817 0.18989 0.0
O826 O 0.84021 0.0942 0.18403 0.0
O827 O 0.83091 0.08581 0.18552 0.0
H828 H 0.82291 0.10282 0.17384 0.0
H829 H 0.81747 0.10969 0.16275 0.0
H830 H 0.80713 0.1261 0.17814 0.0
H831 H 0.81253 0.11927 0.18909 0.0
H832 H 0.83108 0.11344 0.22509 0.0
H833 H 0.83063 0.10834 0.21191 0.0
H834 H 0.83906 0.09152 0.23326 0.0
H835 H 0.8387 0.08651 0.22016 0.0
H836 H 0.85871 0.07213 0.18532 0.0
H837 H 0.84699 0.07142 0.16357 0.0
H838 H 0.83744 0.08048 0.16839 0.0
H839 H 0.84903 0.08127 0.19022 0.0
C840 C 0.38013 0.59356 0.58726 0.0
C841 C 0.37743 0.59505 0.59471 0.0
C842 C 0.38424 0.58379 0.59957 0.0
C843 C 0.37949 0.59021 0.60081 0.0
C844 C 0.38706 0.58248 0.59212 0.0
C845 C 0.38502 0.58731 0.58606 0.0
U846 U 0.36805 0.60924 0.57714 0.0
O847 O 0.37122 0.61689 0.56755 0.0
O848 O 0.36198 0.60844 0.5661 0.0
C849 C 0.36604 0.61393 0.56294 0.0
C850 C 0.37765 0.5981 0.58055 0.0
C851 C 0.36788 0.61323 0.55468 0.0
C852 C 0.37364 0.60698 0.54354 0.0
C853 C 0.37253 0.60743 0.55155 0.0
C854 C 0.36549 0.61806 0.54184 0.0
C855 C 0.37013 0.61231 0.53857 0.0
C856 C 0.36443 0.61852 0.54974 0.0
C857 C 0.35407 0.62075 0.59093 0.0
C858 C 0.34404 0.6302 0.58871 0.0
C859 C 0.34624 0.62533 0.60151 0.0
C860 C 0.35218 0.62076 0.59873 0.0
C861 C 0.34202 0.63008 0.59655 0.0
C862 C 0.35002 0.62556 0.5859 0.0
C863 C 0.36005 0.61531 0.58841 0.0
O864 O 0.37058 0.59694 0.57825 0.0
O865 O 0.37965 0.60537 0.58041 0.0
O866 O 0.36667 0.61808 0.58611 0.0
O867 O 0.3578 0.60927 0.58452 0.0
H868 H 0.37365 0.59986 0.59577 0.0
H869 H 0.37728 0.59146 0.60648 0.0
H870 H 0.39063 0.57755 0.59089 0.0
H871 H 0.38713 0.58604 0.58036 0.0
H872 H 0.37728 0.6025 0.54126 0.0
H873 H 0.37523 0.60326 0.55526 0.0
H874 H 0.36251 0.62216 0.53826 0.0
H875 H 0.36076 0.62298 0.55201 0.0
H876 H 0.34098 0.63385 0.58472 0.0
H877 H 0.34479 0.6249 0.60753 0.0
H878 H 0.3552 0.61706 0.60269 0.0
H879 H 0.3514 0.62564 0.57985 0.0
C880 C 0.18969 0.61106 0.32649 0.0
C881 C 0.18929 0.60765 0.33378 0.0
C882 C 0.19628 0.61851 0.3394 0.0
C883 C 0.1926 0.61132 0.34017 0.0
C884 C 0.19659 0.62181 0.33202 0.0
C885 C 0.19341 0.61811 0.32569 0.0
U886 U 0.17681 0.59657 0.31542 0.0
O887 O 0.16879 0.59891 0.30596 0.0
O888 O 0.17876 0.59147 0.30398 0.0
C889 C 0.17265 0.59473 0.30102 0.0
C890 C 0.18617 0.60765 0.31958 0.0
C891 C 0.17304 0.59757 0.29303 0.0
C892 C 0.17798 0.60578 0.28283 0.0
C893 C 0.17815 0.60327 0.29052 0.0
C894 C 0.16761 0.59697 0.28022 0.0
C895 C 0.17267 0.60267 0.27754 0.0
C896 C 0.16784 0.59444 0.28779 0.0
C897 C 0.16632 0.58115 0.32846 0.0
C898 C 0.15405 0.57446 0.3284 0.0
C899 C 0.16327 0.57199 0.33847 0.0
C900 C 0.16837 0.57711 0.33508 0.0
C901 C 0.15593 0.5708 0.33535 0.0
C902 C 0.1592 0.57964 0.32499 0.0
C903 C 0.17134 0.58757 0.32618 0.0
O904 O 0.18854 0.6008 0.31752 0.0
O905 O 0.17873 0.60855 0.31884 0.0
O906 O 0.16804 0.594 0.32409 0.0
O907 O 0.17767 0.58602 0.32239 0.0
H908 H 0.18643 0.6022 0.33453 0.0
H909 H 0.19229 0.6085 0.34568 0.0
H910 H 0.19912 0.62739 0.3311 0.0
H911 H 0.19374 0.62085 0.32013 0.0
H912 H 0.18204 0.61013 0.28104 0.0
H913 H 0.18222 0.60579 0.29448 0.0
H914 H 0.16325 0.59454 0.27653 0.0
H915 H 0.16381 0.59007 0.28961 0.0
H916 H 0.14846 0.57365 0.32583 0.0
H917 H 0.165 0.56913 0.3437 0.0
H918 H 0.17382 0.57819 0.33786 0.0
H919 H 0.1575 0.58271 0.31987 0.0
C920 C 0.31827 0.39695 0.82595 0.0
C921 C 0.31889 0.40002 0.83337 0.0
C922 C 0.31184 0.38905 0.83867 0.0
C923 C 0.31565 0.39614 0.83967 0.0
C924 C 0.31126 0.3861 0.83116 0.0
C925 C 0.31436 0.39003 0.82492 0.0
U926 U 0.3312 0.41173 0.81538 0.0
O927 O 0.33945 0.40955 0.80608 0.0
O928 O 0.32949 0.41697 0.80399 0.0
C929 C 0.33569 0.41376 0.80111 0.0
C930 C 0.32184 0.40052 0.81916 0.0
C931 C 0.33545 0.41099 0.7931 0.0
C932 C 0.331 0.40257 0.78284 0.0
C933 C 0.33065 0.40504 0.79054 0.0
C934 C 0.34094 0.41191 0.78033 0.0
C935 C 0.33619 0.40597 0.77761 0.0
C936 C 0.34052 0.4144 0.78792 0.0
C937 C 0.34147 0.42686 0.82886 0.0
C938 C 0.35256 0.43522 0.82733 0.0
C939 C 0.34611 0.43438 0.83961 0.0
C940 C 0.34083 0.42926 0.8365 0.0
C941 C 0.35211 0.43728 0.83513 0.0
C942 C 0.34729 0.42996 0.82422 0.0
C943 C 0.33643 0.42054 0.82642 0.0
O944 O 0.31945 0.40739 0.81721 0.0
O945 O 0.32929 0.39967 0.81851 0.0
O946 O 0.33974 0.41412 0.82432 0.0
O947 O 0.33024 0.4222 0.82246 0.0
H948 H 0.3219 0.40537 0.8343 0.0
H949 H 0.31615 0.39873 0.84528 0.0
H950 H 0.30862 0.38061 0.83004 0.0
H951 H 0.31386 0.38754 0.81925 0.0
H952 H 0.32719 0.39802 0.78101 0.0
H953 H 0.32669 0.4023 0.79446 0.0
H954 H 0.34519 0.41457 0.77668 0.0
H955 H 0.34431 0.41896 0.78978 0.0
H956 H 0.35717 0.4374 0.82379 0.0
H957 H 0.34563 0.43591 0.84562 0.0
H958 H 0.3364 0.42692 0.84017 0.0
H959 H 0.3479 0.42815 0.81831 0.0
C960 C 0.92199 0.87692 0.59109 0.0
C961 C 0.91456 0.87433 0.59285 0.0
C962 C 0.90945 0.88087 0.58153 0.0
C963 C 0.90835 0.8763 0.58812 0.0
C964 C 0.91691 0.88349 0.5799 0.0
C965 C 0.92308 0.88154 0.58462 0.0
U966 U 0.93217 0.86558 0.60717 0.0
O967 O 0.94335 0.85971 0.60683 0.0
O968 O 0.94149 0.86916 0.61497 0.0
C969 C 0.94627 0.86398 0.6123 0.0
C970 C 0.92876 0.87474 0.59569 0.0
C971 C 0.9545 0.86597 0.61179 0.0
C972 C 0.96563 0.87209 0.60589 0.0
C973 C 0.95765 0.87074 0.6061 0.0
C974 C 0.96726 0.86394 0.61699 0.0
C975 C 0.97054 0.86869 0.61136 0.0
C976 C 0.95938 0.86263 0.6172 0.0
C977 C 0.91832 0.85185 0.61884 0.0
C978 C 0.92039 0.842 0.62852 0.0
C979 C 0.90768 0.84411 0.62334 0.0
C980 C 0.91051 0.85 0.61876 0.0
C981 C 0.91258 0.83996 0.62816 0.0
C982 C 0.92327 0.8479 0.62382 0.0
C983 C 0.92091 0.85764 0.61326 0.0
O984 O 0.92885 0.87698 0.60288 0.0
O985 O 0.93121 0.86768 0.59477 0.0
O986 O 0.92498 0.85522 0.60741 0.0
O987 O 0.92303 0.86439 0.61584 0.0
H988 H 0.91359 0.87075 0.59783 0.0
H989 H 0.90268 0.87425 0.58964 0.0
H990 H 0.91806 0.88687 0.57483 0.0
H991 H 0.92877 0.88356 0.58314 0.0
H992 H 0.96795 0.87581 0.60149 0.0
H993 H 0.95398 0.87337 0.60184 0.0
H994 H 0.9708 0.86106 0.62119 0.0
H995 H 0.95708 0.85889 0.6216 0.0
H996 H 0.92428 0.83883 0.63217 0.0
H997 H 0.90164 0.84268 0.62298 0.0
H998 H 0.90661 0.85298 0.61497 0.0
H999 H 0.92933 0.84925 0.62395 0.0
C1000 C 0.90088 0.17961 0.31594 0.0
C1001 C 0.90229 0.17218 0.31868 0.0
C1002 C 0.89241 0.16719 0.31013 0.0
C1003 C 0.89804 0.16598 0.31578 0.0
C1004 C 0.89126 0.1746 0.30726 0.0
C1005 C 0.89545 0.18074 0.31015 0.0
U1006 U 0.91395 0.19333 0.32857 0.0
O1007 O 0.91684 0.2052 0.32521 0.0
O1008 O 0.90893 0.20301 0.335 0.0
C1009 C 0.91255 0.20804 0.33073 0.0
C1010 C 0.90414 0.18651 0.31947 0.0
C1011 C 0.91094 0.21627 0.33132 0.0
C1012 C 0.90329 0.22753 0.32843 0.0
C1013 C 0.9052 0.21985 0.32699 0.0
C1014 C 0.91305 0.2281 0.33829 0.0
C1015 C 0.90709 0.23172 0.33422 0.0
C1016 C 0.9149 0.22046 0.33688 0.0
C1017 C 0.93035 0.18241 0.34097 0.0
C1018 C 0.93739 0.18238 0.35302 0.0
C1019 C 0.93819 0.17148 0.34446 0.0
C1020 C 0.93338 0.17519 0.33927 0.0
C1021 C 0.94006 0.1749 0.35153 0.0
C1022 C 0.93252 0.1861 0.34779 0.0
C1023 C 0.92429 0.1854 0.33592 0.0
O1024 O 0.90295 0.18751 0.32684 0.0
O1025 O 0.91083 0.18903 0.31707 0.0
O1026 O 0.92574 0.18851 0.32921 0.0
O1027 O 0.91746 0.18683 0.33875 0.0
H1028 H 0.90645 0.17122 0.32318 0.0
H1029 H 0.89906 0.16029 0.31803 0.0
H1030 H 0.8869 0.1757 0.30297 0.0
H1031 H 0.89423 0.18646 0.30806 0.0
H1032 H 0.89861 0.23005 0.32523 0.0
H1033 H 0.90205 0.21666 0.32269 0.0
H1034 H 0.91625 0.23113 0.34265 0.0
H1035 H 0.91934 0.21776 0.34027 0.0
H1036 H 0.93871 0.1852 0.35839 0.0
H1037 H 0.94029 0.16583 0.34299 0.0
H1038 H 0.93176 0.17225 0.33404 0.0
H1039 H 0.93024 0.19169 0.3492 0.0
C1040 C 0.58931 0.13072 0.09173 0.0
C1041 C 0.59674 0.13371 0.09248 0.0
C1042 C 0.60083 0.12623 0.08138 0.0
C1043 C 0.6025 0.13143 0.08734 0.0
C1044 C 0.59343 0.12315 0.08083 0.0
C1045 C 0.58774 0.12537 0.08596 0.0
U1046 U 0.57652 0.14147 0.10728 0.0
O1047 O 0.56467 0.14485 0.10432 0.0
O1048 O 0.56679 0.13584 0.11311 0.0
C1049 C 0.56179 0.13973 0.10905 0.0
C1050 C 0.58282 0.13319 0.09646 0.0
C1051 C 0.55349 0.13876 0.11005 0.0
C1052 C 0.54118 0.13475 0.10491 0.0
C1053 C 0.54914 0.13541 0.10419 0.0
C1054 C 0.54185 0.14074 0.11743 0.0
C1055 C 0.53742 0.13753 0.11148 0.0
C1056 C 0.54983 0.14132 0.11673 0.0
C1057 C 0.58824 0.15689 0.12034 0.0
C1058 C 0.58759 0.16817 0.12852 0.0
C1059 C 0.59992 0.16271 0.1252 0.0
C1060 C 0.59625 0.157 0.12096 0.0
C1061 C 0.59566 0.16842 0.12896 0.0
C1062 C 0.58391 0.16248 0.12418 0.0
C1063 C 0.58465 0.15109 0.11538 0.0
O1064 O 0.58248 0.13093 0.10363 0.0
O1065 O 0.58008 0.1401 0.09528 0.0
O1066 O 0.58109 0.15311 0.10905 0.0
O1067 O 0.58363 0.14395 0.11756 0.0
H1068 H 0.59802 0.13788 0.0969 0.0
H1069 H 0.60817 0.13392 0.08784 0.0
H1070 H 0.592 0.11909 0.07635 0.0
H1071 H 0.58203 0.12301 0.08532 0.0
H1072 H 0.53796 0.13231 0.1002 0.0
H1073 H 0.55189 0.13338 0.09901 0.0
H1074 H 0.53914 0.14286 0.1226 0.0
H1075 H 0.55312 0.1439 0.12132 0.0
H1076 H 0.58415 0.17252 0.13131 0.0
H1077 H 0.60613 0.16268 0.1255 0.0
H1078 H 0.59968 0.15273 0.11803 0.0
H1079 H 0.57771 0.16249 0.12376 0.0
C1080 C 0.60882 0.82581 0.8163 0.0
C1081 C 0.60541 0.83311 0.81631 0.0
C1082 C 0.61688 0.83858 0.81036 0.0
C1083 C 0.6094 0.83946 0.8133 0.0
C1084 C 0.62012 0.83121 0.81018 0.0
C1085 C 0.61613 0.82492 0.81311 0.0
U1086 U 0.59445 0.81492 0.82959 0.0
O1087 O 0.58938 0.8034 0.82794 0.0
O1088 O 0.59714 0.80558 0.83761 0.0
C1089 C 0.59287 0.80055 0.83398 0.0
C1090 C 0.60524 0.81899 0.81985 0.0
C1091 C 0.59569 0.79253 0.83372 0.0
C1092 C 0.60492 0.78256 0.83022 0.0
C1093 C 0.60216 0.79014 0.82951 0.0
C1094 C 0.59466 0.77972 0.83911 0.0
C1095 C 0.6013 0.77731 0.83522 0.0
C1096 C 0.59193 0.78719 0.83838 0.0
C1097 C 0.57967 0.82809 0.84085 0.0
C1098 C 0.57141 0.82601 0.85194 0.0
C1099 C 0.57236 0.83865 0.84628 0.0
C1100 C 0.57745 0.83581 0.8408 0.0
C1101 C 0.5694 0.83382 0.85196 0.0
C1102 C 0.57654 0.82315 0.8464 0.0
C1103 C 0.58575 0.82578 0.83544 0.0
O1104 O 0.6064 0.81815 0.82724 0.0
O1105 O 0.59825 0.81714 0.81771 0.0
O1106 O 0.58382 0.82184 0.8293 0.0
O1107 O 0.59236 0.82371 0.83838 0.0
H1108 H 0.59976 0.83393 0.81877 0.0
H1109 H 0.60677 0.84507 0.81353 0.0
H1110 H 0.6258 0.83031 0.80785 0.0
H1111 H 0.61886 0.81935 0.81301 0.0
H1112 H 0.61004 0.7809 0.82713 0.0
H1113 H 0.60518 0.79416 0.82586 0.0
H1114 H 0.5916 0.77583 0.84287 0.0
H1115 H 0.58692 0.78888 0.84165 0.0
H1116 H 0.56914 0.8222 0.85628 0.0
H1117 H 0.57089 0.84468 0.8462 0.0
H1118 H 0.57984 0.83973 0.83661 0.0
H1119 H 0.5782 0.81717 0.84655 0.0
C1120 C 0.92168 0.13072 0.91767 0.0
C1121 C 0.91433 0.1337 0.91628 0.0
C1122 C 0.90922 0.12661 0.92726 0.0
C1123 C 0.90815 0.13165 0.92102 0.0
C1124 C 0.91659 0.12358 0.92851 0.0
C1125 C 0.92273 0.12561 0.92376 0.0
U1126 U 0.93178 0.14233 0.90171 0.0
O1127 O 0.9431 0.1479 0.90193 0.0
O1128 O 0.94082 0.13872 0.89359 0.0
C1129 C 0.94583 0.14363 0.89636 0.0
C1130 C 0.92842 0.13298 0.91305 0.0
C1131 C 0.95395 0.1412 0.89684 0.0
C1132 C 0.96561 0.13824 0.90399 0.0
C1133 C 0.95761 0.13932 0.90378 0.0
C1134 C 0.96626 0.14053 0.89033 0.0
C1135 C 0.97008 0.13907 0.89728 0.0
C1136 C 0.95833 0.14161 0.89013 0.0
C1137 C 0.91839 0.15632 0.89006 0.0
C1138 C 0.92096 0.16735 0.88192 0.0
C1139 C 0.90794 0.16282 0.88356 0.0
C1140 C 0.91058 0.15698 0.88832 0.0
C1141 C 0.91306 0.16816 0.88036 0.0
C1142 C 0.92361 0.16147 0.88675 0.0
C1143 C 0.92061 0.15053 0.8958 0.0
O1144 O 0.9284 0.13087 0.90582 0.0
O1145 O 0.93091 0.14001 0.91408 0.0
O1146 O 0.92483 0.15284 0.9016 0.0
O1147 O 0.92244 0.14367 0.89329 0.0
H1148 H 0.91339 0.13765 0.91158 0.0
H1149 H 0.90255 0.13402 0.9198 0.0
H1150 H 0.91771 0.11981 0.93331 0.0
H1151 H 0.92836 0.12327 0.92494 0.0
H1152 H 0.96832 0.13711 0.90946 0.0
H1153 H 0.95434 0.13896 0.90905 0.0
H1154 H 0.9694 0.14098 0.88499 0.0
H1155 H 0.95565 0.14305 0.88472 0.0
H1156 H 0.92508 0.17131 0.87949 0.0
H1157 H 0.90182 0.16332 0.88265 0.0
H1158 H 0.90646 0.15309 0.89087 0.0
H1159 H 0.92968 0.16106 0.88802 0.0
C1160 C 0.60909 0.18266 0.69216 0.0
C1161 C 0.60576 0.17533 0.69199 0.0
C1162 C 0.61705 0.16991 0.69841 0.0
C1163 C 0.60968 0.16902 0.69514 0.0
C1164 C 0.62024 0.17733 0.69857 0.0
C1165 C 0.61629 0.18359 0.69555 0.0
U1166 U 0.59455 0.19337 0.67902 0.0
O1167 O 0.58929 0.20479 0.68069 0.0
O1168 O 0.59703 0.20272 0.67096 0.0
C1169 C 0.59274 0.2077 0.67464 0.0
C1170 C 0.60553 0.18946 0.68859 0.0
C1171 C 0.59558 0.21569 0.67506 0.0
C1172 C 0.60565 0.22526 0.67685 0.0
C1173 C 0.60294 0.21768 0.67768 0.0
C1174 C 0.59356 0.2289 0.67113 0.0
C1175 C 0.60106 0.23091 0.67333 0.0
C1176 C 0.59089 0.22141 0.67196 0.0
C1177 C 0.5795 0.18018 0.66829 0.0
C1178 C 0.57195 0.1815 0.65661 0.0
C1179 C 0.57105 0.16992 0.66419 0.0
C1180 C 0.57625 0.17294 0.66944 0.0
C1181 C 0.56889 0.17409 0.65764 0.0
C1182 C 0.57724 0.18453 0.6619 0.0
C1183 C 0.58578 0.18245 0.67347 0.0
O1184 O 0.60656 0.1902 0.68117 0.0
O1185 O 0.59858 0.19135 0.69084 0.0
O1186 O 0.58404 0.18631 0.6797 0.0
O1187 O 0.59228 0.18456 0.6703 0.0
H1188 H 0.60018 0.17448 0.68939 0.0
H1189 H 0.60692 0.16346 0.69498 0.0
H1190 H 0.62593 0.17835 0.7008 0.0
H1191 H 0.61899 0.18918 0.69569 0.0
H1192 H 0.61145 0.22659 0.67863 0.0
H1193 H 0.60668 0.21336 0.68009 0.0
H1194 H 0.58976 0.2331 0.66859 0.0
H1195 H 0.58519 0.22002 0.66991 0.0
H1196 H 0.57036 0.1849 0.65167 0.0
H1197 H 0.56896 0.16415 0.66512 0.0
H1198 H 0.57798 0.16946 0.67428 0.0
H1199 H 0.5797 0.19014 0.6609 0.0
C1200 C 0.58935 0.87774 0.4169 0.0
C1201 C 0.59593 0.87314 0.41738 0.0
C1202 C 0.60122 0.88176 0.42702 0.0
C1203 C 0.60183 0.87514 0.42246 0.0
C1204 C 0.59477 0.88648 0.42629 0.0
C1205 C 0.58887 0.88446 0.42128 0.0
U1206 U 0.57696 0.86673 0.40162 0.0
O1207 O 0.56524 0.86242 0.40378 0.0
O1208 O 0.5672 0.87179 0.39536 0.0
C1209 C 0.5623 0.86718 0.39874 0.0
C1210 C 0.58252 0.87546 0.41254 0.0
C1211 C 0.55398 0.86834 0.3981 0.0
C1212 C 0.54202 0.87462 0.40155 0.0
C1213 C 0.55004 0.8741 0.40211 0.0
C1214 C 0.54191 0.86372 0.39294 0.0
C1215 C 0.53785 0.86938 0.39701 0.0
C1216 C 0.54987 0.86324 0.39349 0.0
C1217 C 0.58871 0.85171 0.38852 0.0
C1218 C 0.58674 0.84016 0.38093 0.0
C1219 C 0.59948 0.84553 0.38217 0.0
C1220 C 0.59654 0.85141 0.38673 0.0
C1221 C 0.59465 0.83978 0.37928 0.0
C1222 C 0.58378 0.8461 0.38552 0.0
C1223 C 0.58629 0.85759 0.39411 0.0
O1224 O 0.58208 0.87766 0.40536 0.0
O1225 O 0.57987 0.86851 0.41373 0.0
O1226 O 0.58252 0.85547 0.40028 0.0
O1227 O 0.5847 0.86458 0.39178 0.0
H1228 H 0.59639 0.86792 0.41405 0.0
H1229 H 0.60677 0.87142 0.423 0.0
H1230 H 0.59413 0.89153 0.42984 0.0
H1231 H 0.58379 0.88802 0.42103 0.0
H1232 H 0.5391 0.87913 0.40466 0.0
H1233 H 0.55312 0.87811 0.40571 0.0
H1234 H 0.53895 0.85951 0.38949 0.0
H1235 H 0.55284 0.85875 0.39038 0.0
H1236 H 0.58288 0.83581 0.37875 0.0
H1237 H 0.6056 0.84534 0.38114 0.0
H1238 H 0.60046 0.85562 0.38907 0.0
H1239 H 0.57771 0.8462 0.38687 0.0
C1240 C 0.9 0.82609 0.19224 0.0
C1241 C 0.90197 0.83348 0.1897 0.0
C1242 C 0.89227 0.83906 0.19811 0.0
C1243 C 0.89809 0.83992 0.19258 0.0
C1244 C 0.89055 0.8317 0.20084 0.0
C1245 C 0.89435 0.82528 0.19791 0.0
U1246 U 0.91409 0.81502 0.17908 0.0
O1247 O 0.91929 0.80358 0.18074 0.0
O1248 O 0.91154 0.80566 0.17103 0.0
C1249 C 0.91585 0.80069 0.17468 0.0
C1250 C 0.90323 0.81909 0.18873 0.0
C1251 C 0.91307 0.79268 0.17501 0.0
C1252 C 0.9035 0.78286 0.17788 0.0
C1253 C 0.90621 0.79045 0.17863 0.0
C1254 C 0.9146 0.77971 0.17018 0.0
C1255 C 0.90757 0.77746 0.17343 0.0
C1256 C 0.91728 0.7872 0.17094 0.0
C1257 C 0.92918 0.82805 0.16821 0.0
C1258 C 0.93653 0.82665 0.15641 0.0
C1259 C 0.93777 0.83817 0.16406 0.0
C1260 C 0.93257 0.83523 0.16936 0.0
C1261 C 0.93974 0.83399 0.15746 0.0
C1262 C 0.93126 0.82369 0.16176 0.0
C1263 C 0.92292 0.82587 0.17346 0.0
O1264 O 0.90215 0.81833 0.18132 0.0
O1265 O 0.91014 0.81703 0.19094 0.0
O1266 O 0.92466 0.82201 0.17968 0.0
O1267 O 0.91638 0.8238 0.17035 0.0
H1268 H 0.90633 0.83424 0.18534 0.0
H1269 H 0.89954 0.84556 0.19042 0.0
H1270 H 0.88605 0.83088 0.20505 0.0
H1271 H 0.89272 0.81964 0.19991 0.0
H1272 H 0.89807 0.78133 0.18047 0.0
H1273 H 0.90286 0.79459 0.18182 0.0
H1274 H 0.91799 0.7757 0.16687 0.0
H1275 H 0.92259 0.78878 0.16813 0.0
H1276 H 0.93799 0.82326 0.15141 0.0
H1277 H 0.94001 0.84389 0.165 0.0
H1278 H 0.93097 0.83872 0.17425 0.0
H1279 H 0.92868 0.81814 0.16076 0.0
C1280 C 0.59136 0.92165 0.87756 0.0
C1281 C 0.59062 0.91514 0.87289 0.0
C1282 C 0.58156 0.90941 0.88201 0.0
C1283 C 0.58574 0.90911 0.87506 0.0
C1284 C 0.58263 0.91586 0.88677 0.0
C1285 C 0.5874 0.92191 0.88454 0.0
U1286 U 0.60719 0.93174 0.86575 0.0
O1287 O 0.60687 0.94296 0.85999 0.0
O1288 O 0.61525 0.9409 0.86918 0.0
C1289 C 0.61244 0.9458 0.8642 0.0
C1290 C 0.59589 0.92842 0.87518 0.0
C1291 C 0.61182 0.95393 0.86657 0.0
C1292 C 0.60455 0.96522 0.87047 0.0
C1293 C 0.60495 0.95727 0.86915 0.0
C1294 C 0.61789 0.96648 0.86686 0.0
C1295 C 0.61101 0.96993 0.86925 0.0
C1296 C 0.61827 0.95859 0.86554 0.0
C1297 C 0.61884 0.9181 0.85195 0.0
C1298 C 0.62755 0.92057 0.84132 0.0
C1299 C 0.62483 0.90752 0.84519 0.0
C1300 C 0.62004 0.91023 0.85098 0.0
C1301 C 0.6286 0.91262 0.84022 0.0
C1302 C 0.62268 0.92329 0.84715 0.0
C1303 C 0.61314 0.92046 0.85773 0.0
O1304 O 0.60312 0.92855 0.8773 0.0
O1305 O 0.59484 0.93081 0.86812 0.0
O1306 O 0.60732 0.9246 0.85535 0.0
O1307 O 0.61568 0.92246 0.86453 0.0
H1308 H 0.59365 0.9148 0.86748 0.0
H1309 H 0.58508 0.90437 0.87113 0.0
H1310 H 0.57978 0.91631 0.89226 0.0
H1311 H 0.58793 0.92686 0.88826 0.0
H1312 H 0.59918 0.96769 0.87238 0.0
H1313 H 0.59988 0.95378 0.86998 0.0
H1314 H 0.62294 0.96991 0.86574 0.0
H1315 H 0.62361 0.95616 0.86348 0.0
H1316 H 0.63042 0.92467 0.83766 0.0
H1317 H 0.62533 0.90138 0.84445 0.0
H1318 H 0.61708 0.90614 0.8546 0.0
H1319 H 0.62182 0.9294 0.84781 0.0
C1320 C 0.82569 0.8157 0.6085 0.0
C1321 C 0.83322 0.81722 0.60603 0.0
C1322 C 0.83836 0.8098 0.61677 0.0
C1323 C 0.83952 0.81425 0.61012 0.0
C1324 C 0.83079 0.80807 0.61896 0.0
C1325 C 0.82456 0.81099 0.61489 0.0
U1326 U 0.81496 0.82914 0.59424 0.0
O1327 O 0.80347 0.82773 0.58903 0.0
O1328 O 0.80572 0.83728 0.59692 0.0
C1329 C 0.80064 0.83373 0.59263 0.0
C1330 C 0.81886 0.81934 0.60502 0.0
C1331 C 0.79274 0.83318 0.5957 0.0
C1332 C 0.78357 0.83093 0.60603 0.0
C1333 C 0.79107 0.83041 0.60308 0.0
C1334 C 0.77931 0.83672 0.59418 0.0
C1335 C 0.77762 0.83421 0.60165 0.0
C1336 C 0.78676 0.83623 0.59126 0.0
C1337 C 0.82851 0.84011 0.57962 0.0
C1338 C 0.82652 0.85027 0.57026 0.0
C1339 C 0.83941 0.84637 0.57365 0.0
C1340 C 0.83644 0.84086 0.5786 0.0
C1341 C 0.83451 0.85122 0.56955 0.0
C1342 C 0.82351 0.84476 0.57534 0.0
C1343 C 0.82596 0.83475 0.58561 0.0
O1344 O 0.81815 0.82674 0.60618 0.0
O1345 O 0.81693 0.81723 0.59805 0.0
O1346 O 0.82187 0.82874 0.58362 0.0
O1347 O 0.82395 0.83773 0.59223 0.0
H1348 H 0.83423 0.82086 0.6011 0.0
H1349 H 0.84527 0.81569 0.60826 0.0
H1350 H 0.82967 0.80453 0.62394 0.0
H1351 H 0.81881 0.80973 0.61687 0.0
H1352 H 0.78245 0.82889 0.61179 0.0
H1353 H 0.79559 0.82804 0.60662 0.0
H1354 H 0.77492 0.83937 0.59068 0.0
H1355 H 0.78792 0.83847 0.58559 0.0
H1356 H 0.82264 0.85396 0.56712 0.0
H1357 H 0.84557 0.84693 0.57314 0.0
H1358 H 0.84038 0.83731 0.58183 0.0
H1359 H 0.81736 0.84427 0.57607 0.0
C1360 C 0.9175 0.08607 0.37786 0.0
C1361 C 0.91636 0.09336 0.37465 0.0
C1362 C 0.92705 0.09847 0.38215 0.0
C1363 C 0.92111 0.09951 0.37677 0.0
C1364 C 0.92804 0.09119 0.38544 0.0
C1365 C 0.92332 0.08506 0.38331 0.0
U1366 U 0.90159 0.07611 0.36605 0.0
O1367 O 0.90183 0.06485 0.36037 0.0
O1368 O 0.89347 0.06703 0.36955 0.0
C1369 C 0.89626 0.06206 0.36461 0.0
C1370 C 0.91291 0.07935 0.3755 0.0
C1371 C 0.89687 0.05396 0.36707 0.0
C1372 C 0.90411 0.0427 0.37109 0.0
C1373 C 0.90373 0.05064 0.36969 0.0
C1374 C 0.89077 0.04143 0.36748 0.0
C1375 C 0.89763 0.03799 0.36992 0.0
C1376 C 0.89041 0.0493 0.36608 0.0
C1377 C 0.89013 0.09014 0.35228 0.0
C1378 C 0.88183 0.08846 0.34117 0.0
C1379 C 0.88415 0.10115 0.34625 0.0
C1380 C 0.88883 0.09803 0.35192 0.0
C1381 C 0.88074 0.09648 0.34062 0.0
C1382 C 0.88648 0.08532 0.34697 0.0
C1383 C 0.89575 0.08743 0.35801 0.0
O1384 O 0.90567 0.07933 0.37758 0.0
O1385 O 0.91395 0.07696 0.36843 0.0
O1386 O 0.90147 0.08317 0.35559 0.0
O1387 O 0.89318 0.08548 0.36482 0.0
H1388 H 0.91189 0.09427 0.37044 0.0
H1389 H 0.92015 0.10506 0.37418 0.0
H1390 H 0.93261 0.09014 0.3895 0.0
H1391 H 0.9243 0.07948 0.38583 0.0
H1392 H 0.90946 0.04023 0.37303 0.0
H1393 H 0.9088 0.05413 0.37049 0.0
H1394 H 0.88571 0.038 0.36639 0.0
H1395 H 0.88508 0.05172 0.36398 0.0
H1396 H 0.87935 0.08463 0.33697 0.0
H1397 H 0.88329 0.10729 0.3463 0.0
H1398 H 0.89156 0.10185 0.35599 0.0
H1399 H 0.8874 0.07918 0.34716 0.0
C1400 C 0.67988 0.19259 0.10751 0.0
C1401 C 0.67234 0.19103 0.10518 0.0
C1402 C 0.66754 0.19848 0.11597 0.0
C1403 C 0.66616 0.19399 0.10942 0.0
C1404 C 0.67508 0.20017 0.11812 0.0
C1405 C 0.68119 0.19725 0.11392 0.0
U1406 U 0.69353 0.17967 0.09452 0.0
O1407 O 0.70545 0.18297 0.0917 0.0
O1408 O 0.70314 0.17349 0.09991 0.0
C1409 C 0.70823 0.1776 0.09619 0.0
C1410 C 0.68662 0.18898 0.10406 0.0
C1411 C 0.71645 0.17701 0.09791 0.0
C1412 C 0.72744 0.17961 0.10603 0.0
C1413 C 0.71981 0.18107 0.10398 0.0
C1414 C 0.72846 0.17028 0.09579 0.0
C1415 C 0.73179 0.1741 0.10205 0.0
C1416 C 0.72084 0.17171 0.09377 0.0
C1417 C 0.68205 0.16706 0.07854 0.0
C1418 C 0.68226 0.15741 0.06848 0.0
C1419 C 0.67014 0.16173 0.07372 0.0
C1420 C 0.67403 0.16677 0.07858 0.0
C1421 C 0.67422 0.15688 0.06875 0.0
C1422 C 0.68616 0.16245 0.07338 0.0
C1423 C 0.68605 0.17166 0.08436 0.0
O1424 O 0.68769 0.18167 0.10547 0.0
O1425 O 0.68897 0.19118 0.09724 0.0
O1426 O 0.68903 0.17839 0.08274 0.0
O1427 O 0.68704 0.16923 0.09141 0.0
H1428 H 0.67124 0.1874 0.10026 0.0
H1429 H 0.66034 0.19265 0.10771 0.0
H1430 H 0.67623 0.20358 0.12319 0.0
H1431 H 0.68699 0.19842 0.11584 0.0
H1432 H 0.72991 0.18268 0.11084 0.0
H1433 H 0.7165 0.18518 0.10725 0.0
H1434 H 0.73165 0.16597 0.09266 0.0
H1435 H 0.71828 0.16848 0.08912 0.0
H1436 H 0.68554 0.1537 0.06472 0.0
H1437 H 0.66394 0.16151 0.07397 0.0
H1438 H 0.67077 0.1703 0.08253 0.0
H1439 H 0.69237 0.16257 0.07332 0.0
C1440 C 0.5922 0.08898 0.63056 0.0
C1441 C 0.5921 0.09597 0.63456 0.0
C1442 C 0.58189 0.1006 0.62617 0.0
C1443 C 0.58698 0.10178 0.63234 0.0
C1444 C 0.58227 0.09368 0.62208 0.0
C1445 C 0.58736 0.08796 0.62426 0.0
U1446 U 0.60749 0.07666 0.6418 0.0
O1447 O 0.6051 0.06495 0.64587 0.0
O1448 O 0.61387 0.06687 0.63681 0.0
C1449 C 0.61027 0.06198 0.64126 0.0
C1450 C 0.59668 0.08231 0.63302 0.0
C1451 C 0.61074 0.05365 0.64007 0.0
C1452 C 0.60565 0.04141 0.63572 0.0
C1453 C 0.605 0.04941 0.63634 0.0
C1454 C 0.61778 0.0419 0.64247 0.0
C1455 C 0.612 0.03756 0.6389 0.0
C1456 C 0.61714 0.04985 0.64303 0.0
C1457 C 0.62047 0.0886 0.65683 0.0
C1458 C 0.62976 0.08678 0.66709 0.0
C1459 C 0.625 0.0995 0.66423 0.0
C1460 C 0.62051 0.09649 0.65835 0.0
C1461 C 0.6296 0.09468 0.66869 0.0
C1462 C 0.62519 0.08373 0.66117 0.0
C1463 C 0.61503 0.08588 0.65096 0.0
O1464 O 0.60389 0.08187 0.63086 0.0
O1465 O 0.59542 0.07971 0.63998 0.0
O1466 O 0.6088 0.08221 0.65308 0.0
O1467 O 0.61745 0.08419 0.64403 0.0
H1468 H 0.59579 0.09684 0.63948 0.0
H1469 H 0.58678 0.10704 0.63563 0.0
H1470 H 0.57852 0.09263 0.61724 0.0
H1471 H 0.58736 0.08259 0.62113 0.0
H1472 H 0.60107 0.03823 0.633 0.0
H1473 H 0.6 0.05226 0.634 0.0
H1474 H 0.6228 0.03917 0.64488 0.0
H1475 H 0.62162 0.05304 0.64591 0.0
H1476 H 0.63322 0.08297 0.67056 0.0
H1477 H 0.62472 0.10558 0.66544 0.0
H1478 H 0.61687 0.10033 0.6551 0.0
H1479 H 0.62522 0.07761 0.6601 0.0
C1480 C 0.68019 0.81549 0.40077 0.0
C1481 C 0.67272 0.81566 0.40377 0.0
C1482 C 0.66796 0.80939 0.39218 0.0
C1483 C 0.66662 0.81256 0.39949 0.0
C1484 C 0.6755 0.80902 0.3894 0.0
C1485 C 0.68153 0.81204 0.39365 0.0
U1486 U 0.69346 0.82824 0.41437 0.0
O1487 O 0.70534 0.82473 0.41714 0.0
O1488 O 0.70318 0.8346 0.40935 0.0
C1489 C 0.70818 0.83 0.41254 0.0
C1490 C 0.68681 0.81912 0.40447 0.0
C1491 C 0.71648 0.83109 0.41155 0.0
C1492 C 0.72824 0.82746 0.40501 0.0
C1493 C 0.72069 0.82582 0.40719 0.0
C1494 C 0.72758 0.83946 0.41195 0.0
C1495 C 0.73174 0.83439 0.40723 0.0
C1496 C 0.71999 0.83787 0.41401 0.0
C1497 C 0.68207 0.84081 0.43038 0.0
C1498 C 0.68235 0.8523 0.4383 0.0
C1499 C 0.67069 0.84483 0.4373 0.0
C1500 C 0.67442 0.83965 0.43248 0.0
C1501 C 0.67452 0.85135 0.44012 0.0
C1502 C 0.68609 0.84708 0.43343 0.0
C1503 C 0.68536 0.83578 0.42445 0.0
O1504 O 0.68789 0.82645 0.40324 0.0
O1505 O 0.689 0.81679 0.41129 0.0
O1506 O 0.68849 0.82912 0.42607 0.0
O1507 O 0.6869 0.8385 0.41761 0.0
H1508 H 0.67159 0.81831 0.40927 0.0
H1509 H 0.66085 0.81291 0.40176 0.0
H1510 H 0.67673 0.8065 0.38386 0.0
H1511 H 0.68727 0.81183 0.39127 0.0
H1512 H 0.73119 0.82345 0.4013 0.0
H1513 H 0.71801 0.82062 0.40512 0.0
H1514 H 0.73012 0.84477 0.41393 0.0
H1515 H 0.7168 0.84204 0.41735 0.0
H1516 H 0.6855 0.85724 0.44034 0.0
H1517 H 0.66474 0.84376 0.43871 0.0
H1518 H 0.67122 0.83485 0.43018 0.0
H1519 H 0.69202 0.84806 0.43186 0.0
C1520 C 0.91687 0.91951 0.13098 0.0
C1521 C 0.91707 0.91282 0.13544 0.0
C1522 C 0.92683 0.90751 0.12697 0.0
C1523 C 0.92208 0.90685 0.13345 0.0
C1524 C 0.92641 0.91409 0.12241 0.0
C1525 C 0.92149 0.92005 0.12442 0.0
U1526 U 0.90139 0.93175 0.14184 0.0
O1527 O 0.90334 0.94346 0.14631 0.0
O1528 O 0.8951 0.94148 0.13678 0.0
C1529 C 0.89833 0.94638 0.14151 0.0
C1530 C 0.91246 0.92633 0.1332 0.0
C1531 C 0.89762 0.95471 0.14037 0.0
C1532 C 0.90051 0.9666 0.1337 0.0
C1533 C 0.90101 0.95858 0.13417 0.0
C1534 C 0.89318 0.96686 0.1455 0.0
C1535 C 0.89667 0.97083 0.13942 0.0
C1536 C 0.89365 0.95889 0.14595 0.0
C1537 C 0.88836 0.91977 0.15672 0.0
C1538 C 0.88083 0.92157 0.16836 0.0
C1539 C 0.88209 0.90891 0.1628 0.0
C1540 C 0.8866 0.91194 0.15693 0.0
C1541 C 0.87923 0.91365 0.16864 0.0
C1542 C 0.88537 0.92462 0.16242 0.0
C1543 C 0.89394 0.92229 0.15088 0.0
O1544 O 0.9053 0.92672 0.13092 0.0
O1545 O 0.91356 0.92898 0.14017 0.0
O1546 O 0.90005 0.92612 0.15306 0.0
O1547 O 0.89162 0.92389 0.14389 0.0
H1548 H 0.91355 0.91231 0.14053 0.0
H1549 H 0.92236 0.90179 0.13704 0.0
H1550 H 0.93011 0.91474 0.11745 0.0
H1551 H 0.92144 0.92521 0.12096 0.0
H1552 H 0.90332 0.96952 0.12899 0.0
H1553 H 0.90414 0.95545 0.12982 0.0
H1554 H 0.8901 0.96992 0.14994 0.0
H1555 H 0.89099 0.95598 0.15075 0.0
H1556 H 0.87866 0.92536 0.17277 0.0
H1557 H 0.8811 0.90278 0.16292 0.0
H1558 H 0.88893 0.90809 0.15266 0.0
H1559 H 0.8867 0.93069 0.16239 0.0
C1560 C 0.82597 0.19243 0.90025 0.0
C1561 C 0.8335 0.19066 0.90253 0.0
C1562 C 0.83864 0.19836 0.89197 0.0
C1563 C 0.83979 0.19363 0.89844 0.0
C1564 C 0.83108 0.20037 0.89001 0.0
C1565 C 0.82485 0.19743 0.89408 0.0
U1566 U 0.81497 0.17892 0.91429 0.0
O1567 O 0.80346 0.18053 0.91939 0.0
O1568 O 0.80558 0.17101 0.91142 0.0
C1569 C 0.80057 0.17459 0.91576 0.0
C1570 C 0.81912 0.18878 0.90366 0.0
C1571 C 0.79257 0.17501 0.91292 0.0
C1572 C 0.78287 0.17772 0.90318 0.0
C1573 C 0.79045 0.17844 0.90594 0.0
C1574 C 0.77949 0.17044 0.91448 0.0
C1575 C 0.77735 0.17348 0.90732 0.0
C1576 C 0.78697 0.17118 0.91721 0.0
C1577 C 0.82837 0.16773 0.92904 0.0
C1578 C 0.82666 0.15731 0.9382 0.0
C1579 C 0.83932 0.16248 0.93582 0.0
C1580 C 0.83624 0.16767 0.9306 0.0
C1581 C 0.83462 0.15721 0.93969 0.0
C1582 C 0.82354 0.16256 0.93289 0.0
C1583 C 0.82577 0.17303 0.92299 0.0
O1584 O 0.81836 0.1814 0.90242 0.0
O1585 O 0.81716 0.19084 0.91064 0.0
O1586 O 0.82182 0.17915 0.92495 0.0
O1587 O 0.8237 0.17007 0.91639 0.0
H1588 H 0.83449 0.18681 0.9073 0.0
H1589 H 0.84553 0.19196 0.90012 0.0
H1590 H 0.82995 0.20414 0.88522 0.0
H1591 H 0.8191 0.1989 0.89225 0.0
H1592 H 0.78143 0.18016 0.89765 0.0
H1593 H 0.79468 0.18145 0.90252 0.0
H1594 H 0.7754 0.16731 0.91795 0.0
H1595 H 0.78846 0.1685 0.92261 0.0
H1596 H 0.82287 0.15336 0.94111 0.0
H1597 H 0.84548 0.16249 0.93665 0.0
H1598 H 0.84007 0.17156 0.92764 0.0
H1599 H 0.81744 0.1625 0.93174 0.0
C1600 C 0.87729 0.59079 0.92158 0.0
C1601 C 0.87329 0.59141 0.91462 0.0
C1602 C 0.88103 0.5811 0.90909 0.0
C1603 C 0.87515 0.58661 0.90843 0.0
C1604 C 0.88512 0.58068 0.91603 0.0
C1605 C 0.88327 0.58548 0.92218 0.0
U1606 U 0.86581 0.6067 0.93173 0.0
O1607 O 0.86003 0.60644 0.94295 0.0
O1608 O 0.86932 0.61472 0.94088 0.0
C1609 C 0.86425 0.61202 0.94576 0.0
C1610 C 0.87512 0.59532 0.9284 0.0
C1611 C 0.86643 0.61157 0.95394 0.0
C1612 C 0.87184 0.60519 0.96515 0.0
C1613 C 0.87043 0.60538 0.95719 0.0
C1614 C 0.8653 0.61734 0.96656 0.0
C1615 C 0.86927 0.61119 0.96994 0.0
C1616 C 0.86394 0.61753 0.95869 0.0
C1617 C 0.85207 0.61835 0.91803 0.0
C1618 C 0.84178 0.62745 0.92045 0.0
C1619 C 0.84515 0.62408 0.90741 0.0
C1620 C 0.85088 0.61924 0.91015 0.0
C1621 C 0.84046 0.62822 0.91249 0.0
C1622 C 0.84754 0.62253 0.9232 0.0
C1623 C 0.85781 0.61265 0.92043 0.0
O1624 O 0.8773 0.60253 0.92847 0.0
O1625 O 0.86807 0.59434 0.93087 0.0
O1626 O 0.85541 0.60686 0.9246 0.0
O1627 O 0.86462 0.61518 0.92243 0.0
H1628 H 0.86866 0.5955 0.91401 0.0
H1629 H 0.87195 0.5872 0.90314 0.0
H1630 H 0.88961 0.57647 0.91682 0.0
H1631 H 0.88641 0.58491 0.92751 0.0
H1632 H 0.87496 0.60039 0.96753 0.0
H1633 H 0.87238 0.60069 0.95361 0.0
H1634 H 0.86304 0.62197 0.97002 0.0
H1635 H 0.86078 0.62232 0.95632 0.0
H1636 H 0.83833 0.63061 0.92454 0.0
H1637 H 0.84424 0.62434 0.90127 0.0
H1638 H 0.85429 0.61602 0.90607 0.0
H1639 H 0.84837 0.62191 0.92933 0.0
C1640 C 0.37786 0.91701 0.08727 0.0
C1641 C 0.37354 0.91691 0.09408 0.0
C1642 C 0.38177 0.9268 0.09959 0.0
C1643 C 0.37546 0.92181 0.10018 0.0
C1644 C 0.38621 0.92671 0.09289 0.0
C1645 C 0.38426 0.92187 0.08678 0.0
U1646 U 0.36627 0.90123 0.07678 0.0
O1647 O 0.36044 0.90184 0.06559 0.0
O1648 O 0.36977 0.89355 0.06733 0.0
C1649 C 0.36464 0.89636 0.06259 0.0
C1650 C 0.37559 0.91254 0.08042 0.0
C1651 C 0.36665 0.89694 0.05436 0.0
C1652 C 0.37286 0.90289 0.0433 0.0
C1653 C 0.37148 0.90262 0.05128 0.0
C1654 C 0.36459 0.8919 0.04154 0.0
C1655 C 0.36943 0.89749 0.03832 0.0
C1656 C 0.36326 0.89162 0.04942 0.0
C1657 C 0.3524 0.88944 0.09047 0.0
C1658 C 0.34255 0.87974 0.08838 0.0
C1659 C 0.34463 0.88493 0.1011 0.0
C1660 C 0.35051 0.88952 0.09827 0.0
C1661 C 0.34049 0.88009 0.09619 0.0
C1662 C 0.34846 0.88445 0.08551 0.0
C1663 C 0.35824 0.895 0.08792 0.0
O1664 O 0.37775 0.90533 0.0802 0.0
O1665 O 0.36853 0.91356 0.078 0.0
O1666 O 0.35588 0.90094 0.08395 0.0
O1667 O 0.36497 0.89239 0.08575 0.0
H1668 H 0.36858 0.91322 0.09459 0.0
H1669 H 0.37193 0.92184 0.10529 0.0
H1670 H 0.39104 0.93057 0.09227 0.0
H1671 H 0.38764 0.92207 0.08157 0.0
H1672 H 0.37665 0.90726 0.04106 0.0
H1673 H 0.37414 0.90682 0.055 0.0
H1674 H 0.36165 0.88776 0.03796 0.0
H1675 H 0.35946 0.88724 0.05166 0.0
H1676 H 0.3394 0.87607 0.08448 0.0
H1677 H 0.34319 0.88529 0.10713 0.0
H1678 H 0.35349 0.89332 0.10219 0.0
H1679 H 0.34983 0.88432 0.07946 0.0
C1680 C 0.81617 0.60854 0.82569 0.0
C1681 C 0.81621 0.60509 0.83297 0.0
C1682 C 0.81012 0.61648 0.83858 0.0
C1683 C 0.81316 0.60901 0.83936 0.0
C1684 C 0.81012 0.6198 0.83122 0.0
C1685 C 0.81304 0.61587 0.82489 0.0
U1686 U 0.82924 0.59406 0.81482 0.0
O1687 O 0.82764 0.5889 0.80334 0.0
O1688 O 0.83739 0.59656 0.80552 0.0
C1689 C 0.83373 0.59232 0.80048 0.0
C1690 C 0.81962 0.60497 0.81881 0.0
C1691 C 0.83335 0.59529 0.79253 0.0
C1692 C 0.82948 0.60465 0.78288 0.0
C1693 C 0.82897 0.60172 0.7904 0.0
C1694 C 0.83853 0.59467 0.77957 0.0
C1695 C 0.83434 0.60118 0.77744 0.0
C1696 C 0.83803 0.59177 0.78702 0.0
C1697 C 0.84027 0.5795 0.82841 0.0
C1698 C 0.8507 0.5704 0.82652 0.0
C1699 C 0.84644 0.57357 0.83936 0.0
C1700 C 0.84087 0.5784 0.83633 0.0
C1701 C 0.85151 0.56965 0.83451 0.0
C1702 C 0.84513 0.57538 0.82346 0.0
C1703 C 0.83491 0.58547 0.82582 0.0
O1704 O 0.82702 0.60606 0.81793 0.0
O1705 O 0.8174 0.598 0.81697 0.0
O1706 O 0.82886 0.58348 0.82179 0.0
O1707 O 0.8379 0.59206 0.82373 0.0
H1708 H 0.81863 0.59943 0.83374 0.0
H1709 H 0.81321 0.60616 0.84487 0.0
H1710 H 0.80808 0.62558 0.83029 0.0
H1711 H 0.813 0.61866 0.81934 0.0
H1712 H 0.82626 0.60973 0.78137 0.0
H1713 H 0.82535 0.60456 0.79457 0.0
H1714 H 0.84239 0.59197 0.77552 0.0
H1715 H 0.8415 0.58685 0.78855 0.0
H1716 H 0.85456 0.56741 0.82268 0.0
H1717 H 0.8469 0.57301 0.84553 0.0
H1718 H 0.83717 0.58151 0.84024 0.0
H1719 H 0.84476 0.57617 0.81731 0.0
C1720 C 0.13076 0.09114 0.58688 0.0
C1721 C 0.13415 0.09213 0.59412 0.0
C1722 C 0.12666 0.08141 0.59922 0.0
C1723 C 0.13211 0.08731 0.60024 0.0
C1724 C 0.12321 0.08059 0.59198 0.0
C1725 C 0.12524 0.08541 0.5859 0.0
U1726 U 0.14246 0.10708 0.57679 0.0
O1727 O 0.14808 0.10675 0.56549 0.0
O1728 O 0.13893 0.11514 0.56768 0.0
C1729 C 0.14385 0.11232 0.5627 0.0
C1730 C 0.13305 0.09576 0.58016 0.0
C1731 C 0.14144 0.11179 0.55458 0.0
C1732 C 0.13856 0.10458 0.54292 0.0
C1733 C 0.13962 0.10483 0.55093 0.0
C1734 C 0.14072 0.11826 0.54226 0.0
C1735 C 0.13934 0.11128 0.53844 0.0
C1736 C 0.1418 0.11848 0.55018 0.0
C1737 C 0.15651 0.11858 0.59036 0.0
C1738 C 0.16664 0.12786 0.58783 0.0
C1739 C 0.16407 0.12375 0.60085 0.0
C1740 C 0.15818 0.11904 0.5982 0.0
C1741 C 0.1684 0.12812 0.5957 0.0
C1742 C 0.1607 0.12309 0.58516 0.0
C1743 C 0.15065 0.11297 0.58799 0.0
O1744 O 0.13097 0.103 0.58017 0.0
O1745 O 0.14009 0.09472 0.57768 0.0
O1746 O 0.15294 0.10714 0.58381 0.0
O1747 O 0.14386 0.11558 0.58605 0.0
H1748 H 0.13843 0.09654 0.595 0.0
H1749 H 0.13482 0.08819 0.60575 0.0
H1750 H 0.1191 0.07607 0.59091 0.0
H1751 H 0.12258 0.08454 0.58035 0.0
H1752 H 0.13749 0.0991 0.54023 0.0
H1753 H 0.1393 0.09957 0.5542 0.0
H1754 H 0.1411 0.1236 0.53913 0.0
H1755 H 0.14319 0.12392 0.55286 0.0
H1756 H 0.16999 0.13115 0.58377 0.0
H1757 H 0.16539 0.12381 0.60692 0.0
H1758 H 0.15503 0.11559 0.6023 0.0
H1759 H 0.15951 0.12279 0.57907 0.0
C1760 C 0.19254 0.89972 0.82549 0.0
C1761 C 0.19222 0.90301 0.83285 0.0
C1762 C 0.19842 0.89167 0.83828 0.0
C1763 C 0.1952 0.89902 0.8392 0.0
C1764 C 0.19893 0.88858 0.83085 0.0
C1765 C 0.19603 0.89256 0.82456 0.0
U1766 U 0.17932 0.91418 0.81476 0.0
O1767 O 0.18085 0.91932 0.80326 0.0
O1768 O 0.17115 0.91162 0.80551 0.0
C1769 C 0.1748 0.91582 0.80043 0.0
C1770 C 0.18895 0.90326 0.81867 0.0
C1771 C 0.17529 0.91272 0.79252 0.0
C1772 C 0.1776 0.90241 0.78334 0.0
C1773 C 0.17814 0.90537 0.79084 0.0
C1774 C 0.17162 0.91418 0.77912 0.0
C1775 C 0.17423 0.90676 0.7774 0.0
C1776 C 0.17214 0.9171 0.78658 0.0
C1777 C 0.16869 0.92914 0.82827 0.0
C1778 C 0.15743 0.93729 0.82686 0.0
C1779 C 0.16383 0.93634 0.83915 0.0
C1780 C 0.16923 0.9314 0.83595 0.0
C1781 C 0.15775 0.93918 0.83472 0.0
C1782 C 0.16285 0.93223 0.82366 0.0
C1783 C 0.17387 0.92297 0.82573 0.0
O1784 O 0.18153 0.90221 0.81797 0.0
O1785 O 0.19117 0.91019 0.81674 0.0
O1786 O 0.17998 0.92478 0.82169 0.0
O1787 O 0.17072 0.91645 0.82369 0.0
H1788 H 0.18954 0.90854 0.8337 0.0
H1789 H 0.19471 0.90155 0.84486 0.0
H1790 H 0.2015 0.88301 0.82991 0.0
H1791 H 0.19635 0.88994 0.81893 0.0
H1792 H 0.17973 0.89669 0.7822 0.0
H1793 H 0.18059 0.90187 0.79534 0.0
H1794 H 0.16889 0.91765 0.77476 0.0
H1795 H 0.16983 0.92275 0.78775 0.0
H1796 H 0.15281 0.93943 0.82332 0.0
H1797 H 0.16429 0.93778 0.84517 0.0
H1798 H 0.17369 0.92909 0.8396 0.0
H1799 H 0.16232 0.93054 0.81771 0.0
C1800 C 0.63095 0.41703 0.42198 0.0
C1801 C 0.63546 0.41764 0.41533 0.0
C1802 C 0.62624 0.4266 0.40971 0.0
C1803 C 0.63314 0.4224 0.40926 0.0
C1804 C 0.62166 0.42572 0.4163 0.0
C1805 C 0.62401 0.42103 0.42235 0.0
U1806 U 0.64296 0.40142 0.4322 0.0
O1807 O 0.6488 0.40198 0.44339 0.0
O1808 O 0.63959 0.39357 0.44153 0.0
C1809 C 0.64468 0.3964 0.44632 0.0
C1810 C 0.63343 0.41259 0.42876 0.0
C1811 C 0.64268 0.39683 0.45456 0.0
C1812 C 0.63607 0.40223 0.46568 0.0
C1813 C 0.63748 0.40213 0.4577 0.0
C1814 C 0.64504 0.39179 0.46733 0.0
C1815 C 0.63983 0.39701 0.47061 0.0
C1816 C 0.64639 0.39168 0.45946 0.0
C1817 C 0.65686 0.39005 0.41818 0.0
C1818 C 0.66573 0.37939 0.41976 0.0
C1819 C 0.66486 0.38593 0.40755 0.0
C1820 C 0.65927 0.39077 0.41057 0.0
C1821 C 0.66818 0.38015 0.41207 0.0
C1822 C 0.66009 0.38431 0.4228 0.0
C1823 C 0.65099 0.39549 0.42089 0.0
O1824 O 0.63137 0.40535 0.42898 0.0
O1825 O 0.6405 0.41373 0.4311 0.0
O1826 O 0.65331 0.40139 0.42495 0.0
O1827 O 0.64431 0.39276 0.42308 0.0
H1828 H 0.64085 0.41458 0.4149 0.0
H1829 H 0.63689 0.42295 0.40434 0.0
H1830 H 0.61622 0.42867 0.41683 0.0
H1831 H 0.62042 0.42061 0.42741 0.0
H1832 H 0.632 0.40631 0.46797 0.0
H1833 H 0.63454 0.40618 0.45403 0.0
H1834 H 0.64822 0.38782 0.47087 0.0
H1835 H 0.65047 0.38758 0.45718 0.0
H1836 H 0.66812 0.37498 0.42341 0.0
H1837 H 0.66669 0.38687 0.4017 0.0
H1838 H 0.65686 0.39518 0.40692 0.0
H1839 H 0.6583 0.38365 0.42871 0.0
C1840 C 0.81601 0.40055 0.68035 0.0
C1841 C 0.81632 0.40354 0.6729 0.0
C1842 C 0.80974 0.39212 0.66801 0.0
C1843 C 0.81315 0.39937 0.66677 0.0
C1844 C 0.80945 0.38929 0.67556 0.0
C1845 C 0.81248 0.39348 0.68162 0.0
U1846 U 0.82865 0.41402 0.69387 0.0
O1847 O 0.82504 0.41683 0.70571 0.0
O1848 O 0.83487 0.40895 0.70364 0.0
C1849 C 0.83029 0.41226 0.70861 0.0
C1850 C 0.81955 0.40422 0.68704 0.0
C1851 C 0.83132 0.41131 0.71691 0.0
C1852 C 0.8275 0.40513 0.72881 0.0
C1853 C 0.82592 0.40719 0.72121 0.0
C1854 C 0.83971 0.41169 0.728 0.0
C1855 C 0.8345 0.40722 0.73226 0.0
C1856 C 0.83818 0.41363 0.72037 0.0
C1857 C 0.8413 0.42985 0.68226 0.0
C1858 C 0.85156 0.43929 0.68249 0.0
C1859 C 0.84609 0.43526 0.67037 0.0
C1860 C 0.84103 0.43043 0.67426 0.0
C1861 C 0.85151 0.43964 0.67442 0.0
C1862 C 0.84652 0.43438 0.68638 0.0
C1863 C 0.83655 0.42404 0.68607 0.0
O1864 O 0.82686 0.40291 0.68825 0.0
O1865 O 0.81725 0.41106 0.6892 0.0
O1866 O 0.82981 0.42569 0.68903 0.0
O1867 O 0.83913 0.41711 0.68745 0.0
H1868 H 0.81904 0.40902 0.67182 0.0
H1869 H 0.8134 0.40183 0.66108 0.0
H1870 H 0.80712 0.38369 0.67683 0.0
H1871 H 0.81223 0.39107 0.68734 0.0
H1872 H 0.82339 0.40162 0.73186 0.0
H1873 H 0.82065 0.40523 0.71858 0.0
H1874 H 0.84508 0.41357 0.73049 0.0
H1875 H 0.84243 0.41678 0.71712 0.0
H1876 H 0.8557 0.44257 0.68576 0.0
H1877 H 0.84582 0.4355 0.66417 0.0
H1878 H 0.83704 0.42696 0.67099 0.0
H1879 H 0.84683 0.43396 0.69257 0.0
C1880 C 0.69222 0.60884 0.18324 0.0
C1881 C 0.69248 0.60545 0.17593 0.0
C1882 C 0.69846 0.61704 0.17062 0.0
C1883 C 0.69562 0.6095 0.16968 0.0
C1884 C 0.69815 0.62029 0.17801 0.0
C1885 C 0.69515 0.61623 0.18421 0.0
U1886 U 0.67912 0.59412 0.19387 0.0
O1887 O 0.68073 0.58889 0.20531 0.0
O1888 O 0.67101 0.59658 0.20321 0.0
C1889 C 0.6747 0.59236 0.20823 0.0
C1890 C 0.68869 0.60512 0.19 0.0
C1891 C 0.67528 0.59543 0.21613 0.0
C1892 C 0.6777 0.60571 0.22532 0.0
C1893 C 0.67814 0.60278 0.2178 0.0
C1894 C 0.6718 0.59391 0.22958 0.0
C1895 C 0.67443 0.60133 0.23128 0.0
C1896 C 0.67221 0.59102 0.22211 0.0
C1897 C 0.66829 0.57937 0.18032 0.0
C1898 C 0.65715 0.57109 0.18192 0.0
C1899 C 0.66297 0.57258 0.1694 0.0
C1900 C 0.6685 0.57742 0.17253 0.0
C1901 C 0.65712 0.56952 0.174 0.0
C1902 C 0.66268 0.57606 0.18507 0.0
C1903 C 0.67355 0.58547 0.18286 0.0
O1904 O 0.68127 0.60614 0.1908 0.0
O1905 O 0.69094 0.59816 0.19178 0.0
O1906 O 0.67967 0.58359 0.18683 0.0
O1907 O 0.67045 0.59199 0.18498 0.0
H1908 H 0.69022 0.59973 0.17505 0.0
H1909 H 0.69581 0.60669 0.16415 0.0
H1910 H 0.70001 0.62611 0.17906 0.0
H1911 H 0.69496 0.61897 0.18978 0.0
H1912 H 0.67983 0.61143 0.22645 0.0
H1913 H 0.68053 0.60631 0.21328 0.0
H1914 H 0.66915 0.59042 0.23398 0.0
H1915 H 0.6699 0.58537 0.22095 0.0
H1916 H 0.6527 0.56878 0.18559 0.0
H1917 H 0.66316 0.57137 0.16331 0.0
H1918 H 0.67278 0.5799 0.16878 0.0
H1919 H 0.66242 0.57752 0.1911 0.0
C1920 C 0.58758 0.62827 0.91512 0.0
C1921 C 0.59517 0.63046 0.91345 0.0
C1922 C 0.59955 0.62456 0.92535 0.0
C1923 C 0.60113 0.62857 0.91854 0.0
C1924 C 0.592 0.62224 0.92687 0.0
C1925 C 0.58609 0.62404 0.92178 0.0
U1926 U 0.57767 0.64014 0.89911 0.0
O1927 O 0.56806 0.63687 0.89153 0.0
O1928 O 0.56667 0.64629 0.8998 0.0
C1929 C 0.56349 0.64214 0.89438 0.0
C1930 C 0.58098 0.63069 0.91039 0.0
C1931 C 0.55523 0.64039 0.89512 0.0
C1932 C 0.54412 0.63416 0.90097 0.0
C1933 C 0.55213 0.63527 0.90054 0.0
C1934 C 0.54237 0.64327 0.89066 0.0
C1935 C 0.53915 0.63814 0.89597 0.0
C1936 C 0.55027 0.64434 0.89022 0.0
C1937 C 0.59115 0.65407 0.8874 0.0
C1938 C 0.58841 0.66411 0.87809 0.0
C1939 C 0.60143 0.66206 0.88244 0.0
C1940 C 0.59892 0.65607 0.8871 0.0
C1941 C 0.59623 0.66623 0.87793 0.0
C1942 C 0.58588 0.65807 0.8828 0.0
C1943 C 0.5889 0.64811 0.89295 0.0
O1944 O 0.57866 0.63777 0.91145 0.0
O1945 O 0.58096 0.62861 0.90315 0.0
O1946 O 0.58664 0.64144 0.89027 0.0
O1947 O 0.58504 0.65036 0.89901 0.0
H1948 H 0.59643 0.63378 0.90836 0.0
H1949 H 0.60691 0.63049 0.91731 0.0
H1950 H 0.59065 0.61919 0.93211 0.0
H1951 H 0.58029 0.62232 0.92318 0.0
H1952 H 0.54184 0.63015 0.90512 0.0
H1953 H 0.55587 0.63218 0.90441 0.0
H1954 H 0.53877 0.64659 0.88685 0.0
H1955 H 0.55252 0.64837 0.88606 0.0
H1956 H 0.58426 0.66717 0.87464 0.0
H1957 H 0.60745 0.66359 0.88261 0.0
H1958 H 0.60306 0.6531 0.89064 0.0
H1959 H 0.57985 0.65661 0.88295 0.0
C1960 C 0.61103 0.32642 0.19026 0.0
C1961 C 0.60848 0.33391 0.18874 0.0
C1962 C 0.61893 0.33915 0.19649 0.0
C1963 C 0.61239 0.34024 0.19187 0.0
C1964 C 0.62126 0.33162 0.19816 0.0
C1965 C 0.61735 0.32535 0.19508 0.0
U1966 U 0.59665 0.31573 0.177 0.0
O1967 O 0.599 0.30613 0.16918 0.0
O1968 O 0.59106 0.30451 0.17883 0.0
C1969 C 0.59451 0.30137 0.17291 0.0
C1970 C 0.60755 0.31958 0.18669 0.0
C1971 C 0.59712 0.29334 0.17358 0.0
C1972 C 0.6068 0.28357 0.17616 0.0
C1973 C 0.60428 0.29123 0.17665 0.0
C1974 C 0.59494 0.28011 0.16985 0.0
C1975 C 0.60224 0.27797 0.17252 0.0
C1976 C 0.59244 0.28768 0.17036 0.0
C1977 C 0.58179 0.3287 0.16591 0.0
C1978 C 0.57479 0.32742 0.15388 0.0
C1979 C 0.57264 0.33844 0.16206 0.0
C1980 C 0.57792 0.33558 0.16732 0.0
C1981 C 0.57109 0.33448 0.15522 0.0
C1982 C 0.58011 0.32454 0.15921 0.0
C1983 C 0.58808 0.32665 0.17117 0.0
O1984 O 0.60057 0.31775 0.18886 0.0
O1985 O 0.60867 0.3188 0.17928 0.0
O1986 O 0.59458 0.32439 0.1681 0.0
O1987 O 0.58631 0.32302 0.17753 0.0
H1988 H 0.6036 0.33487 0.18502 0.0
H1989 H 0.61047 0.34597 0.19046 0.0
H1990 H 0.62617 0.33057 0.2018 0.0
H1991 H 0.61938 0.31963 0.19636 0.0
H1992 H 0.61245 0.28211 0.17828 0.0
H1993 H 0.608 0.29552 0.17917 0.0
H1994 H 0.5912 0.27594 0.16716 0.0
H1995 H 0.5869 0.28917 0.16798 0.0
H1996 H 0.57366 0.32422 0.14869 0.0
H1997 H 0.57 0.34394 0.16322 0.0
H1998 H 0.5792 0.33892 0.17241 0.0
H1999 H 0.58305 0.31921 0.158 0.0
C2000 C 0.92077 0.38014 0.41508 0.0
C2001 C 0.91357 0.37654 0.41456 0.0
C2002 C 0.9089 0.38401 0.4255 0.0
C2003 C 0.90766 0.37848 0.41973 0.0
C2004 C 0.91602 0.38781 0.4257 0.0
C2005 C 0.92186 0.38588 0.42057 0.0
U2006 U 0.93112 0.36849 0.3991 0.0
O2007 O 0.94064 0.37198 0.39148 0.0
O2008 O 0.94228 0.36266 0.39981 0.0
C2009 C 0.94536 0.36686 0.39436 0.0
C2010 C 0.92745 0.37777 0.41043 0.0
C2011 C 0.95359 0.36882 0.39502 0.0
C2012 C 0.96508 0.37225 0.40228 0.0
C2013 C 0.95703 0.37155 0.4018 0.0
C2014 C 0.9662 0.36783 0.38918 0.0
C2015 C 0.96978 0.37016 0.39603 0.0
C2016 C 0.95825 0.36715 0.38871 0.0
C2017 C 0.9176 0.35458 0.38724 0.0
C2018 C 0.91993 0.34423 0.37814 0.0
C2019 C 0.90705 0.34675 0.3827 0.0
C2020 C 0.90977 0.35284 0.38708 0.0
C2021 C 0.91209 0.34226 0.37834 0.0
C2022 C 0.92269 0.35035 0.38264 0.0
C2023 C 0.92004 0.36046 0.39279 0.0
O2024 O 0.92985 0.37071 0.41144 0.0
O2025 O 0.92761 0.37994 0.40321 0.0
O2026 O 0.92222 0.36717 0.39018 0.0
O2027 O 0.92395 0.35813 0.39879 0.0
H2028 H 0.91259 0.37208 0.41035 0.0
H2029 H 0.90226 0.37542 0.41941 0.0
H2030 H 0.91715 0.3922 0.42994 0.0
H2031 H 0.92735 0.38876 0.42105 0.0
H2032 H 0.96761 0.37409 0.40764 0.0
H2033 H 0.95354 0.37289 0.40676 0.0
H2034 H 0.96956 0.36639 0.38416 0.0
H2035 H 0.95574 0.36505 0.38343 0.0
H2036 H 0.92393 0.34082 0.37484 0.0
H2037 H 0.90098 0.3454 0.38291 0.0
H2038 H 0.90575 0.35604 0.39058 0.0
H2039 H 0.92877 0.35162 0.3827 0.0
C2040 C 0.89751 0.68191 0.68983 0.0
C2041 C 0.90051 0.67453 0.68867 0.0
C2042 C 0.89005 0.66894 0.69627 0.0
C2043 C 0.89684 0.6681 0.69189 0.0
C2044 C 0.88718 0.67641 0.69738 0.0
C2045 C 0.89088 0.68277 0.69426 0.0
U2046 U 0.91179 0.69293 0.67676 0.0
O2047 O 0.90943 0.70254 0.66896 0.0
O2048 O 0.91727 0.7042 0.67868 0.0
C2049 C 0.91388 0.70732 0.67272 0.0
C2050 C 0.90088 0.68886 0.68635 0.0
C2051 C 0.91128 0.71537 0.67332 0.0
C2052 C 0.90171 0.72523 0.67602 0.0
C2053 C 0.90423 0.71757 0.67656 0.0
C2054 C 0.91337 0.72853 0.66925 0.0
C2055 C 0.90617 0.73075 0.67213 0.0
C2056 C 0.91587 0.72096 0.66984 0.0
C2057 C 0.92673 0.67998 0.6657 0.0
C2058 C 0.93376 0.68122 0.6537 0.0
C2059 C 0.93567 0.67009 0.66177 0.0
C2060 C 0.93047 0.67303 0.66707 0.0
C2061 C 0.9373 0.67407 0.65496 0.0
C2062 C 0.92849 0.68416 0.65905 0.0
C2063 C 0.92044 0.68206 0.67094 0.0
O2064 O 0.90782 0.69079 0.68858 0.0
O2065 O 0.89979 0.68971 0.67895 0.0
O2066 O 0.91396 0.68431 0.66784 0.0
O2067 O 0.92219 0.68572 0.67729 0.0
H2068 H 0.90564 0.67373 0.68525 0.0
H2069 H 0.89934 0.66251 0.69096 0.0
H2070 H 0.8819 0.6774 0.70048 0.0
H2071 H 0.88845 0.68841 0.69518 0.0
H2072 H 0.89614 0.72675 0.67829 0.0
H2073 H 0.90058 0.71334 0.67928 0.0
H2074 H 0.91703 0.73263 0.66636 0.0
H2075 H 0.92133 0.71941 0.66731 0.0
H2076 H 0.93495 0.68445 0.64854 0.0
H2077 H 0.93817 0.66452 0.66287 0.0
H2078 H 0.92913 0.66967 0.67212 0.0
H2079 H 0.92564 0.68955 0.65788 0.0
C2080 C 0.58781 0.38 0.59359 0.0
C2081 C 0.59481 0.37603 0.594 0.0
C2082 C 0.59995 0.38376 0.58351 0.0
C2083 C 0.60082 0.37788 0.58897 0.0
C2084 C 0.59304 0.38789 0.58333 0.0
C2085 C 0.58703 0.386 0.5883 0.0
U2086 U 0.57753 0.36835 0.60947 0.0
O2087 O 0.56784 0.3717 0.61692 0.0
O2088 O 0.56653 0.36219 0.60873 0.0
C2089 C 0.5633 0.3664 0.61408 0.0
C2090 C 0.58104 0.37766 0.59813 0.0
C2091 C 0.55505 0.36814 0.61324 0.0
C2092 C 0.54404 0.37449 0.60738 0.0
C2093 C 0.55204 0.37337 0.60789 0.0
C2094 C 0.54213 0.36518 0.61747 0.0
C2095 C 0.53899 0.37042 0.61221 0.0
C2096 C 0.55002 0.3641 0.61799 0.0
C2097 C 0.59122 0.35457 0.62132 0.0
C2098 C 0.58904 0.34429 0.63055 0.0
C2099 C 0.60183 0.34673 0.62572 0.0
C2100 C 0.59904 0.35278 0.62134 0.0
C2101 C 0.59686 0.34227 0.63023 0.0
C2102 C 0.58621 0.35039 0.62607 0.0
C2103 C 0.5887 0.36047 0.61582 0.0
O2104 O 0.57873 0.37057 0.59713 0.0
O2105 O 0.58083 0.37985 0.60534 0.0
O2106 O 0.58637 0.36713 0.61846 0.0
O2107 O 0.5849 0.35813 0.60976 0.0
H2108 H 0.59554 0.37139 0.59805 0.0
H2109 H 0.60611 0.37463 0.58925 0.0
H2110 H 0.59218 0.39238 0.57914 0.0
H2111 H 0.58166 0.38909 0.58785 0.0
H2112 H 0.54183 0.37859 0.60327 0.0
H2113 H 0.55584 0.37654 0.60413 0.0
H2114 H 0.53847 0.36177 0.62116 0.0
H2115 H 0.5522 0.35999 0.6221 0.0
H2116 H 0.58508 0.34095 0.63398 0.0
H2117 H 0.60789 0.34541 0.62544 0.0
H2118 H 0.603 0.35594 0.61775 0.0
H2119 H 0.58014 0.35169 0.62613 0.0
C2120 C 0.898 0.32612 0.81871 0.0
C2121 C 0.89888 0.33334 0.82218 0.0
C2122 C 0.89024 0.33904 0.81276 0.0
C2123 C 0.895 0.33974 0.81925 0.0
C2124 C 0.88963 0.33187 0.80915 0.0
C2125 C 0.89344 0.32548 0.81212 0.0
U2126 U 0.91202 0.31504 0.83186 0.0
O2127 O 0.90956 0.30545 0.83967 0.0
O2128 O 0.91751 0.30377 0.83003 0.0
C2129 C 0.91403 0.30067 0.83596 0.0
C2130 C 0.90124 0.31907 0.82211 0.0
C2131 C 0.91139 0.29264 0.83533 0.0
C2132 C 0.90228 0.28272 0.83149 0.0
C2133 C 0.9049 0.29036 0.8311 0.0
C2134 C 0.91272 0.27963 0.84009 0.0
C2135 C 0.90607 0.27734 0.83617 0.0
C2136 C 0.91534 0.28716 0.83966 0.0
C2137 C 0.92648 0.32869 0.84309 0.0
C2138 C 0.9363 0.32694 0.85287 0.0
C2139 C 0.93292 0.3397 0.84862 0.0
C2140 C 0.9276 0.3366 0.84355 0.0
C2141 C 0.93739 0.33495 0.85336 0.0
C2142 C 0.93086 0.32382 0.84777 0.0
C2143 C 0.92044 0.32602 0.83781 0.0
O2144 O 0.90821 0.31716 0.81997 0.0
O2145 O 0.90004 0.31812 0.82949 0.0
O2146 O 0.91393 0.32372 0.84082 0.0
O2147 O 0.92244 0.32223 0.83161 0.0
H2148 H 0.9024 0.33398 0.82725 0.0
H2149 H 0.89563 0.34523 0.82209 0.0
H2150 H 0.88597 0.33114 0.80419 0.0
H2151 H 0.89266 0.31996 0.80938 0.0
H2152 H 0.89712 0.28111 0.82842 0.0
H2153 H 0.90175 0.29451 0.82772 0.0
H2154 H 0.91581 0.27561 0.84367 0.0
H2155 H 0.92036 0.28878 0.84294 0.0
H2156 H 0.93966 0.32309 0.8564 0.0
H2157 H 0.93336 0.34587 0.84894 0.0
H2158 H 0.92423 0.34046 0.84004 0.0
H2159 H 0.93006 0.31767 0.84752 0.0
C2160 C 0.91896 0.62827 0.09387 0.0
C2161 C 0.91134 0.63021 0.09556 0.0
C2162 C 0.90712 0.624 0.0837 0.0
C2163 C 0.90544 0.62806 0.09051 0.0
C2164 C 0.91477 0.62199 0.08219 0.0
C2165 C 0.92059 0.62408 0.08723 0.0
U2166 U 0.93144 0.6395 0.1092 0.0
O2167 O 0.9415 0.63457 0.11517 0.0
O2168 O 0.94302 0.64365 0.10632 0.0
C2169 C 0.94621 0.63905 0.11135 0.0
C2170 C 0.92554 0.6307 0.09852 0.0
C2171 C 0.95456 0.63815 0.11172 0.0
C2172 C 0.96668 0.6335 0.10667 0.0
C2173 C 0.95864 0.63371 0.10639 0.0
C2174 C 0.96652 0.64205 0.11763 0.0
C2175 C 0.9707 0.63775 0.11224 0.0
C2176 C 0.95854 0.64223 0.11736 0.0
C2177 C 0.91941 0.65492 0.12187 0.0
C2178 C 0.92005 0.66454 0.13199 0.0
C2179 C 0.90845 0.66306 0.12451 0.0
C2180 C 0.91185 0.65715 0.12037 0.0
C2181 C 0.91254 0.66697 0.13025 0.0
C2182 C 0.92349 0.65856 0.12779 0.0
C2183 C 0.92275 0.64903 0.11683 0.0
O2184 O 0.92827 0.63758 0.09718 0.0
O2185 O 0.92584 0.62867 0.10578 0.0
O2186 O 0.92439 0.64215 0.1194 0.0
O2187 O 0.92609 0.65091 0.11034 0.0
H2188 H 0.90998 0.63346 0.10068 0.0
H2189 H 0.8996 0.62963 0.0919 0.0
H2190 H 0.91633 0.61902 0.07697 0.0
H2191 H 0.92645 0.62258 0.08582 0.0
H2192 H 0.96974 0.63004 0.10252 0.0
H2193 H 0.95565 0.63051 0.102 0.0
H2194 H 0.96943 0.64545 0.12193 0.0
H2195 H 0.95545 0.64572 0.12147 0.0
H2196 H 0.92335 0.66744 0.13637 0.0
H2197 H 0.90261 0.66466 0.12312 0.0
H2198 H 0.9086 0.65437 0.11586 0.0
H2199 H 0.92934 0.6569 0.12904 0.0
C2200 C 0.61069 0.68167 0.31863 0.0
C2201 C 0.60873 0.67422 0.32099 0.0
C2202 C 0.6183 0.66882 0.31225 0.0
C2203 C 0.61252 0.66784 0.31782 0.0
C2204 C 0.62007 0.6763 0.30982 0.0
C2205 C 0.61631 0.68263 0.31298 0.0
U2206 U 0.59652 0.69255 0.33192 0.0
O2207 O 0.59895 0.70217 0.33971 0.0
O2208 O 0.59097 0.70379 0.3301 0.0
C2209 C 0.59447 0.70694 0.33599 0.0
C2210 C 0.60736 0.68859 0.3222 0.0
C2211 C 0.59713 0.71496 0.33526 0.0
C2212 C 0.6068 0.72468 0.33246 0.0
C2213 C 0.60425 0.71702 0.33208 0.0
C2214 C 0.59504 0.72823 0.33892 0.0
C2215 C 0.60231 0.73033 0.33611 0.0
C2216 C 0.59251 0.72066 0.33851 0.0
C2217 C 0.58171 0.67947 0.34307 0.0
C2218 C 0.5742 0.68113 0.35473 0.0
C2219 C 0.57312 0.66939 0.34738 0.0
C2220 C 0.57841 0.67221 0.34209 0.0
C2221 C 0.57106 0.67376 0.3538 0.0
C2222 C 0.57949 0.684 0.34936 0.0
C2223 C 0.58795 0.68162 0.33778 0.0
O2224 O 0.6004 0.69052 0.32005 0.0
O2225 O 0.6085 0.6894 0.3296 0.0
O2226 O 0.59444 0.6839 0.34084 0.0
O2227 O 0.58613 0.68532 0.33147 0.0
H2228 H 0.60439 0.67335 0.32534 0.0
H2229 H 0.61094 0.66216 0.31976 0.0
H2230 H 0.62455 0.67731 0.30564 0.0
H2231 H 0.61793 0.68833 0.31111 0.0
H2232 H 0.61243 0.7261 0.33023 0.0
H2233 H 0.60791 0.71271 0.32953 0.0
H2234 H 0.59134 0.73243 0.3416 0.0
H2235 H 0.587 0.71921 0.34098 0.0
H2236 H 0.57263 0.68459 0.35965 0.0
H2237 H 0.57081 0.66368 0.34659 0.0
H2238 H 0.5801 0.6686 0.33732 0.0
H2239 H 0.58198 0.68961 0.35022 0.0
C2240 C 0.91458 0.58687 0.62884 0.0
C2241 C 0.91336 0.5942 0.63195 0.0
C2242 C 0.92454 0.59913 0.62502 0.0
C2243 C 0.91828 0.60028 0.63004 0.0
C2244 C 0.92556 0.59181 0.62179 0.0
C2245 C 0.92063 0.58577 0.62368 0.0
U2246 U 0.89856 0.57677 0.64047 0.0
O2247 O 0.89102 0.56716 0.63711 0.0
O2248 O 0.8991 0.5658 0.64666 0.0
C2249 C 0.89378 0.56258 0.64242 0.0
C2250 C 0.90999 0.58014 0.63119 0.0
C2251 C 0.89475 0.55435 0.64054 0.0
C2252 C 0.90125 0.54358 0.6344 0.0
C2253 C 0.90043 0.55154 0.63554 0.0
C2254 C 0.8907 0.54124 0.64311 0.0
C2255 C 0.89641 0.53838 0.63824 0.0
C2256 C 0.88989 0.54912 0.64425 0.0
C2257 C 0.88665 0.59045 0.65409 0.0
C2258 C 0.87841 0.58797 0.66508 0.0
C2259 C 0.88091 0.60102 0.66112 0.0
C2260 C 0.88544 0.59831 0.65511 0.0
C2261 C 0.87743 0.59591 0.66629 0.0
C2262 C 0.88301 0.58525 0.65904 0.0
C2263 C 0.8923 0.58808 0.64825 0.0
O2264 O 0.91094 0.57786 0.6383 0.0
O2265 O 0.90278 0.57997 0.62897 0.0
O2266 O 0.88973 0.58579 0.64155 0.0
O2267 O 0.89828 0.5842 0.65065 0.0
H2268 H 0.9087 0.59517 0.63594 0.0
H2269 H 0.91723 0.60586 0.63255 0.0
H2270 H 0.93034 0.59063 0.61802 0.0
H2271 H 0.92169 0.58016 0.62125 0.0
H2272 H 0.90569 0.54147 0.6306 0.0
H2273 H 0.90425 0.55546 0.63262 0.0
H2274 H 0.88691 0.53735 0.64613 0.0
H2275 H 0.88549 0.55115 0.64814 0.0
H2276 H 0.87573 0.58386 0.66889 0.0
H2277 H 0.88044 0.60716 0.6619 0.0
H2278 H 0.88826 0.60242 0.65139 0.0
H2279 H 0.88387 0.57914 0.65836 0.0
C2280 C 0.68223 0.69031 0.89793 0.0
C2281 C 0.6748 0.68837 0.90037 0.0
C2282 C 0.66924 0.69677 0.89059 0.0
C2283 C 0.66836 0.69157 0.89673 0.0
C2284 C 0.67672 0.69875 0.8883 0.0
C2285 C 0.68312 0.69556 0.89193 0.0
U2286 U 0.69318 0.67711 0.91209 0.0
O2287 O 0.70274 0.66925 0.90967 0.0
O2288 O 0.70445 0.67888 0.91761 0.0
C2289 C 0.70755 0.67296 0.91413 0.0
C2290 C 0.68919 0.68677 0.90122 0.0
C2291 C 0.71558 0.67362 0.91147 0.0
C2292 C 0.7253 0.6756 0.90158 0.0
C2293 C 0.71763 0.67615 0.90409 0.0
C2294 C 0.72891 0.67034 0.91389 0.0
C2295 C 0.73099 0.67244 0.90638 0.0
C2296 C 0.72132 0.6709 0.91637 0.0
C2297 C 0.67971 0.66623 0.92687 0.0
C2298 C 0.68137 0.65526 0.93533 0.0
C2299 C 0.66891 0.66128 0.9341 0.0
C2300 C 0.672 0.66662 0.92904 0.0
C2301 C 0.67351 0.65546 0.93717 0.0
C2302 C 0.68446 0.6606 0.93013 0.0
C2303 C 0.68219 0.67142 0.92069 0.0
O2304 O 0.69118 0.68895 0.90815 0.0
O2305 O 0.68998 0.67936 0.90011 0.0
O2306 O 0.68445 0.66828 0.91422 0.0
O2307 O 0.68601 0.67765 0.92253 0.0
H2308 H 0.67398 0.68432 0.90501 0.0
H2309 H 0.66269 0.68997 0.89871 0.0
H2310 H 0.67767 0.70261 0.88354 0.0
H2311 H 0.68879 0.6971 0.88993 0.0
H2312 H 0.72669 0.67728 0.89576 0.0
H2313 H 0.71329 0.67828 0.9002 0.0
H2314 H 0.73313 0.66806 0.91782 0.0
H2315 H 0.71988 0.66893 0.92209 0.0
H2316 H 0.68501 0.6508 0.93765 0.0
H2317 H 0.66286 0.66159 0.93548 0.0
H2318 H 0.66825 0.67092 0.92658 0.0
H2319 H 0.69044 0.6602 0.9285 0.0
C2320 C 0.5937 0.41854 0.1282 0.0
C2321 C 0.59534 0.41081 0.12976 0.0
C2322 C 0.5831 0.4071 0.12408 0.0
C2323 C 0.59006 0.40509 0.12765 0.0
C2324 C 0.58168 0.41481 0.12233 0.0
C2325 C 0.58693 0.42045 0.12437 0.0
U2326 U 0.60958 0.43047 0.13924 0.0
O2327 O 0.61553 0.44052 0.1343 0.0
O2328 O 0.60719 0.44202 0.14384 0.0
C2329 C 0.61206 0.44522 0.13908 0.0
C2330 C 0.59855 0.42497 0.13063 0.0
C2331 C 0.61241 0.45358 0.1381 0.0
C2332 C 0.60864 0.46559 0.1321 0.0
C2333 C 0.60846 0.45753 0.13232 0.0
C2334 C 0.61655 0.4657 0.14348 0.0
C2335 C 0.61261 0.46985 0.13777 0.0
C2336 C 0.61651 0.45772 0.14357 0.0
C2337 C 0.62249 0.41858 0.15436 0.0
C2338 C 0.63088 0.4205 0.16535 0.0
C2339 C 0.62743 0.40765 0.16143 0.0
C2340 C 0.62311 0.41066 0.15542 0.0
C2341 C 0.6313 0.4125 0.16656 0.0
C2342 C 0.62647 0.42353 0.15931 0.0
C2343 C 0.61709 0.42123 0.14841 0.0
O2344 O 0.59743 0.42764 0.13758 0.0
O2345 O 0.60576 0.42515 0.12841 0.0
O2346 O 0.61956 0.42296 0.14149 0.0
O2347 O 0.61082 0.42486 0.15048 0.0
H2348 H 0.60056 0.40924 0.13273 0.0
H2349 H 0.59125 0.39917 0.12908 0.0
H2350 H 0.57641 0.41651 0.11951 0.0
H2351 H 0.58559 0.42638 0.12309 0.0
H2352 H 0.60565 0.4684 0.12746 0.0
H2353 H 0.6052 0.45442 0.12804 0.0
H2354 H 0.61953 0.46849 0.14813 0.0
H2355 H 0.61954 0.45475 0.14811 0.0
H2356 H 0.63387 0.42442 0.16913 0.0
H2357 H 0.62746 0.40149 0.16222 0.0
H2358 H 0.62001 0.40675 0.15171 0.0
H2359 H 0.62606 0.42968 0.1586 0.0
C2360 C 0.82636 0.31826 0.39778 0.0
C2361 C 0.83377 0.32129 0.39879 0.0
C2362 C 0.83897 0.31188 0.38977 0.0
C2363 C 0.84002 0.31811 0.39482 0.0
C2364 C 0.83158 0.30871 0.38907 0.0
C2365 C 0.82537 0.31188 0.39302 0.0
U2366 U 0.81557 0.3317 0.4119 0.0
O2367 O 0.80597 0.33947 0.40943 0.0
O2368 O 0.80433 0.32993 0.41749 0.0
C2369 C 0.80119 0.33578 0.41393 0.0
C2370 C 0.81947 0.32188 0.40113 0.0
C2371 C 0.79318 0.33499 0.41124 0.0
C2372 C 0.78352 0.33236 0.40145 0.0
C2373 C 0.79118 0.33197 0.40403 0.0
C2374 C 0.77985 0.33846 0.41336 0.0
C2375 C 0.77782 0.33585 0.406 0.0
C2376 C 0.78741 0.33805 0.41592 0.0
C2377 C 0.82922 0.34274 0.42648 0.0
C2378 C 0.82757 0.35302 0.43582 0.0
C2379 C 0.84016 0.34764 0.43353 0.0
C2380 C 0.83705 0.34262 0.42817 0.0
C2381 C 0.8355 0.35292 0.43745 0.0
C2382 C 0.82444 0.34795 0.43035 0.0
C2383 C 0.82659 0.33754 0.42036 0.0
O2384 O 0.81755 0.31979 0.40811 0.0
O2385 O 0.81869 0.32927 0.39994 0.0
O2386 O 0.82427 0.34062 0.41389 0.0
O2387 O 0.8228 0.33132 0.42229 0.0
H2388 H 0.83467 0.32622 0.40245 0.0
H2389 H 0.84562 0.32072 0.39548 0.0
H2390 H 0.83056 0.30382 0.38539 0.0
H2391 H 0.81972 0.30944 0.39219 0.0
H2392 H 0.78216 0.33029 0.39576 0.0
H2393 H 0.79554 0.32957 0.40032 0.0
H2394 H 0.77561 0.34103 0.4171 0.0
H2395 H 0.78882 0.34039 0.4215 0.0
H2396 H 0.8238 0.35698 0.43875 0.0
H2397 H 0.8463 0.3475 0.43442 0.0
H2398 H 0.84085 0.33869 0.4252 0.0
H2399 H 0.81836 0.34815 0.4291 0.0
C2400 C 0.91469 0.41854 0.88028 0.0
C2401 C 0.91409 0.41138 0.87664 0.0
C2402 C 0.92484 0.40666 0.88421 0.0
C2403 C 0.91919 0.40547 0.87858 0.0
C2404 C 0.92521 0.41373 0.88801 0.0
C2405 C 0.92019 0.41961 0.88603 0.0
U2406 U 0.8993 0.43084 0.86921 0.0
O2407 O 0.89342 0.44092 0.87411 0.0
O2408 O 0.90175 0.44238 0.86455 0.0
C2409 C 0.89691 0.4456 0.86934 0.0
C2410 C 0.91023 0.42527 0.87792 0.0
C2411 C 0.89643 0.45397 0.87024 0.0
C2412 C 0.89987 0.46598 0.87645 0.0
C2413 C 0.90001 0.45793 0.87627 0.0
C2414 C 0.89245 0.46609 0.86471 0.0
C2415 C 0.89614 0.47015 0.87062 0.0
C2416 C 0.89261 0.4581 0.86454 0.0
C2417 C 0.88612 0.41905 0.85428 0.0
C2418 C 0.87838 0.42111 0.84284 0.0
C2419 C 0.88035 0.40824 0.84763 0.0
C2420 C 0.88475 0.41117 0.85363 0.0
C2421 C 0.8772 0.41314 0.84209 0.0
C2422 C 0.88281 0.42406 0.84891 0.0
C2423 C 0.89164 0.42153 0.8602 0.0
O2424 O 0.91139 0.4278 0.87092 0.0
O2425 O 0.90305 0.42573 0.88015 0.0
O2426 O 0.88925 0.42334 0.86712 0.0
O2427 O 0.89793 0.42509 0.85806 0.0
H2428 H 0.90988 0.41046 0.87217 0.0
H2429 H 0.91886 0.40005 0.87557 0.0
H2430 H 0.9296 0.41479 0.89227 0.0
H2431 H 0.92077 0.42512 0.88884 0.0
H2432 H 0.90267 0.46893 0.88114 0.0
H2433 H 0.903 0.45483 0.88074 0.0
H2434 H 0.8896 0.46908 0.86008 0.0
H2435 H 0.88986 0.45513 0.85982 0.0
H2436 H 0.87598 0.42503 0.83867 0.0
H2437 H 0.87968 0.40209 0.84716 0.0
H2438 H 0.88734 0.4072 0.85765 0.0
H2439 H 0.88382 0.43017 0.84928 0.0
C2440 C 0.82678 0.68943 0.11102 0.0
C2441 C 0.83423 0.68693 0.10919 0.0
C2442 C 0.83965 0.6957 0.11872 0.0
C2443 C 0.84061 0.69004 0.11302 0.0
C2444 C 0.83218 0.69828 0.12034 0.0
C2445 C 0.82584 0.69518 0.11653 0.0
U2446 U 0.81577 0.67621 0.09685 0.0
O2447 O 0.80628 0.66828 0.09935 0.0
O2448 O 0.80439 0.67801 0.09157 0.0
C2449 C 0.80139 0.672 0.095 0.0
C2450 C 0.81984 0.68587 0.10771 0.0
C2451 C 0.79338 0.67249 0.09774 0.0
C2452 C 0.78321 0.67734 0.10606 0.0
C2453 C 0.79091 0.67749 0.10357 0.0
C2454 C 0.78051 0.66724 0.09695 0.0
C2455 C 0.77788 0.67216 0.10279 0.0
C2456 C 0.78809 0.66745 0.09445 0.0
C2457 C 0.82908 0.66522 0.08198 0.0
C2458 C 0.82701 0.65515 0.0725 0.0
C2459 C 0.83982 0.65995 0.07489 0.0
C2460 C 0.83692 0.66502 0.08032 0.0
C2461 C 0.83494 0.65494 0.07089 0.0
C2462 C 0.82408 0.66027 0.07803 0.0
C2463 C 0.82664 0.67045 0.08816 0.0
O2464 O 0.81784 0.68806 0.10078 0.0
O2465 O 0.81905 0.67847 0.1088 0.0
O2466 O 0.82448 0.66736 0.09468 0.0
O2467 O 0.8228 0.67666 0.08632 0.0
H2468 H 0.83509 0.68249 0.10493 0.0
H2469 H 0.84628 0.68799 0.11155 0.0
H2470 H 0.83118 0.70254 0.12475 0.0
H2471 H 0.82015 0.69716 0.11806 0.0
H2472 H 0.78145 0.68128 0.11051 0.0
H2473 H 0.79491 0.68143 0.10621 0.0
H2474 H 0.77677 0.66299 0.0944 0.0
H2475 H 0.78988 0.66351 0.08998 0.0
H2476 H 0.82309 0.65139 0.0695 0.0
H2477 H 0.84596 0.65985 0.07398 0.0
H2478 H 0.84087 0.66873 0.08336 0.0
H2479 H 0.818 0.66032 0.07926 0.0
C2480 C 0.59379 0.58962 0.38001 0.0
C2481 C 0.594 0.59652 0.37588 0.0
C2482 C 0.58346 0.6015 0.38364 0.0
C2483 C 0.58886 0.60243 0.3777 0.0
C2484 C 0.58351 0.59469 0.38792 0.0
C2485 C 0.58862 0.58882 0.38611 0.0
U2486 U 0.60914 0.57727 0.36901 0.0
O2487 O 0.61513 0.56723 0.37387 0.0
O2488 O 0.60675 0.56571 0.36437 0.0
C2489 C 0.61164 0.56252 0.36912 0.0
C2490 C 0.5982 0.58282 0.37775 0.0
C2491 C 0.61223 0.55415 0.36996 0.0
C2492 C 0.60871 0.54202 0.37587 0.0
C2493 C 0.60836 0.55006 0.37572 0.0
C2494 C 0.61688 0.54216 0.36464 0.0
C2495 C 0.61294 0.53796 0.3703 0.0
C2496 C 0.61651 0.55014 0.36449 0.0
C2497 C 0.62223 0.58915 0.35407 0.0
C2498 C 0.63031 0.58703 0.34287 0.0
C2499 C 0.62767 0.59996 0.34715 0.0
C2500 C 0.62327 0.59705 0.35317 0.0
C2501 C 0.63116 0.59501 0.34184 0.0
C2502 C 0.62586 0.58411 0.34894 0.0
C2503 C 0.61672 0.58665 0.36 0.0
O2504 O 0.59705 0.58022 0.37078 0.0
O2505 O 0.60539 0.58236 0.37998 0.0
O2506 O 0.61914 0.58482 0.3669 0.0
O2507 O 0.61045 0.58305 0.35787 0.0
H2508 H 0.59796 0.59723 0.37114 0.0
H2509 H 0.58899 0.60766 0.37436 0.0
H2510 H 0.57937 0.59376 0.39246 0.0
H2511 H 0.58834 0.5835 0.3893 0.0
H2512 H 0.60569 0.53897 0.38036 0.0
H2513 H 0.605 0.55306 0.38 0.0
H2514 H 0.62011 0.53927 0.3602 0.0
H2515 H 0.61949 0.55321 0.35998 0.0
H2516 H 0.63298 0.58305 0.33891 0.0
H2517 H 0.62806 0.60611 0.34648 0.0
H2518 H 0.62045 0.60104 0.35701 0.0
H2519 H 0.62511 0.57797 0.34951 0.0
C2520 C 0.68202 0.31811 0.61083 0.0
C2521 C 0.67447 0.3198 0.60853 0.0
C2522 C 0.66944 0.31184 0.61892 0.0
C2523 C 0.66822 0.31664 0.61254 0.0
C2524 C 0.677 0.31002 0.62099 0.0
C2525 C 0.6832 0.31311 0.61698 0.0
U2526 U 0.69269 0.33147 0.59645 0.0
O2527 O 0.70233 0.33921 0.59888 0.0
O2528 O 0.70391 0.32962 0.59084 0.0
C2529 C 0.7071 0.33547 0.59439 0.0
C2530 C 0.68881 0.32174 0.6073 0.0
C2531 C 0.71509 0.33462 0.59709 0.0
C2532 C 0.72469 0.33285 0.60712 0.0
C2533 C 0.71703 0.33239 0.60459 0.0
C2534 C 0.72852 0.33738 0.59458 0.0
C2535 C 0.73049 0.3356 0.60219 0.0
C2536 C 0.72093 0.33692 0.59209 0.0
C2537 C 0.67947 0.34259 0.5817 0.0
C2538 C 0.6813 0.35364 0.57335 0.0
C2539 C 0.66905 0.34712 0.5737 0.0
C2540 C 0.67195 0.34195 0.57903 0.0
C2541 C 0.67364 0.35308 0.57079 0.0
C2542 C 0.68421 0.34843 0.57879 0.0
C2543 C 0.68176 0.33736 0.58793 0.0
O2544 O 0.69061 0.3196 0.6003 0.0
O2545 O 0.68959 0.32914 0.60844 0.0
O2546 O 0.68408 0.34044 0.5944 0.0
O2547 O 0.68543 0.33104 0.58609 0.0
H2548 H 0.67343 0.32366 0.60379 0.0
H2549 H 0.66245 0.31816 0.61082 0.0
H2550 H 0.67814 0.30625 0.62579 0.0
H2551 H 0.68897 0.31172 0.61882 0.0
H2552 H 0.72599 0.33142 0.61301 0.0
H2553 H 0.7126 0.33059 0.60856 0.0
H2554 H 0.73283 0.33933 0.59055 0.0
H2555 H 0.71958 0.33865 0.58627 0.0
H2556 H 0.68503 0.35812 0.5712 0.0
H2557 H 0.66309 0.34657 0.57206 0.0
H2558 H 0.66818 0.33754 0.58126 0.0
H2559 H 0.69005 0.34904 0.58081 0.0
C2560 C 0.62906 0.91452 0.58676 0.0
C2561 C 0.63034 0.91244 0.59444 0.0
C2562 C 0.62511 0.92473 0.59878 0.0
C2563 C 0.62834 0.91749 0.6004 0.0
C2564 C 0.62381 0.92668 0.59105 0.0
C2565 C 0.62573 0.92163 0.58515 0.0
U2566 U 0.64062 0.89815 0.57714 0.0
O2567 O 0.63724 0.89045 0.56766 0.0
O2568 O 0.64684 0.89846 0.56617 0.0
C2569 C 0.64253 0.89315 0.56301 0.0
C2570 C 0.63139 0.90966 0.58023 0.0
C2571 C 0.64049 0.89423 0.55486 0.0
C2572 C 0.63447 0.90115 0.54431 0.0
C2573 C 0.63574 0.90019 0.55223 0.0
C2574 C 0.64252 0.89016 0.54168 0.0
C2575 C 0.63791 0.89615 0.53899 0.0
C2576 C 0.64382 0.88923 0.54952 0.0
C2577 C 0.65429 0.88644 0.59076 0.0
C2578 C 0.66546 0.87851 0.58809 0.0
C2579 C 0.66142 0.88061 0.60121 0.0
C2580 C 0.65534 0.8851 0.59862 0.0
C2581 C 0.66663 0.8774 0.596 0.0
C2582 C 0.65929 0.88298 0.58547 0.0
C2583 C 0.64842 0.89207 0.58851 0.0
O2584 O 0.63849 0.91054 0.57788 0.0
O2585 O 0.62916 0.90246 0.5803 0.0
O2586 O 0.6417 0.88948 0.5863 0.0
O2587 O 0.65079 0.89802 0.58455 0.0
H2588 H 0.63292 0.90697 0.59581 0.0
H2589 H 0.62935 0.91572 0.60626 0.0
H2590 H 0.62153 0.93222 0.58949 0.0
H2591 H 0.62475 0.92336 0.57927 0.0
H2592 H 0.63086 0.9058 0.54233 0.0
H2593 H 0.63312 0.90413 0.55626 0.0
H2594 H 0.64524 0.88626 0.53768 0.0
H2595 H 0.64753 0.88463 0.55142 0.0
H2596 H 0.66941 0.87607 0.58396 0.0
H2597 H 0.66226 0.87994 0.60733 0.0
H2598 H 0.65159 0.88778 0.60279 0.0
H2599 H 0.65859 0.88396 0.57938 0.0
C2600 C 0.12839 0.59362 0.42072 0.0
C2601 C 0.13214 0.59386 0.41357 0.0
C2602 C 0.12418 0.58328 0.40888 0.0
C2603 C 0.13004 0.58874 0.40769 0.0
C2604 C 0.12024 0.58339 0.41593 0.0
C2605 C 0.12235 0.58845 0.42176 0.0
U2606 U 0.14033 0.60946 0.43097 0.0
O2607 O 0.13696 0.61691 0.44066 0.0
O2608 O 0.14646 0.60875 0.44198 0.0
C2609 C 0.14226 0.6141 0.44522 0.0
C2610 C 0.1309 0.59823 0.4274 0.0
C2611 C 0.14055 0.61326 0.4535 0.0
C2612 C 0.13336 0.60827 0.46444 0.0
C2613 C 0.13441 0.60891 0.45644 0.0
C2614 C 0.14449 0.61629 0.46653 0.0
C2615 C 0.13849 0.61187 0.46955 0.0
C2616 C 0.14548 0.61699 0.45862 0.0
C2617 C 0.15435 0.62101 0.41726 0.0
C2618 C 0.16388 0.631 0.41933 0.0
C2619 C 0.16263 0.62509 0.40683 0.0
C2620 C 0.15671 0.6205 0.40961 0.0
C2621 C 0.16634 0.63039 0.41163 0.0
C2622 C 0.15793 0.62632 0.42214 0.0
C2623 C 0.14835 0.61561 0.41978 0.0
O2624 O 0.13798 0.59715 0.42971 0.0
O2625 O 0.12879 0.60546 0.42759 0.0
O2626 O 0.14174 0.61839 0.4221 0.0
O2627 O 0.15059 0.60955 0.42363 0.0
H2628 H 0.13683 0.59783 0.41263 0.0
H2629 H 0.13322 0.58883 0.40236 0.0
H2630 H 0.11557 0.57944 0.41702 0.0
H2631 H 0.11935 0.58819 0.4272 0.0
H2632 H 0.12868 0.60482 0.46663 0.0
H2633 H 0.13052 0.60598 0.45259 0.0
H2634 H 0.14846 0.61921 0.47031 0.0
H2635 H 0.15021 0.62042 0.4565 0.0
H2636 H 0.16657 0.63506 0.42319 0.0
H2637 H 0.16443 0.62428 0.40095 0.0
H2638 H 0.15406 0.61639 0.40578 0.0
H2639 H 0.15618 0.6268 0.42808 0.0
C2640 C 0.69034 0.89716 0.68232 0.0
C2641 C 0.68884 0.89975 0.67483 0.0
C2642 C 0.69632 0.88914 0.66954 0.0
C2643 C 0.69186 0.89579 0.66847 0.0
C2644 C 0.69795 0.88675 0.67705 0.0
C2645 C 0.69501 0.89072 0.68335 0.0
U2646 U 0.67727 0.91164 0.69315 0.0
O2647 O 0.66932 0.90932 0.70267 0.0
O2648 O 0.67912 0.91703 0.70447 0.0
C2649 C 0.67308 0.91369 0.70752 0.0
C2650 C 0.68685 0.90067 0.6892 0.0
C2651 C 0.67358 0.91099 0.71554 0.0
C2652 C 0.67765 0.90206 0.72552 0.0
C2653 C 0.67806 0.9047 0.71789 0.0
C2654 C 0.66845 0.91203 0.72846 0.0
C2655 C 0.67268 0.90561 0.73082 0.0
C2656 C 0.66892 0.91469 0.72094 0.0
C2657 C 0.6662 0.92632 0.67984 0.0
C2658 C 0.6555 0.93504 0.68197 0.0
C2659 C 0.6606 0.93326 0.66917 0.0
C2660 C 0.66606 0.92819 0.67203 0.0
C2661 C 0.65521 0.93663 0.67407 0.0
C2662 C 0.66096 0.92984 0.68485 0.0
C2663 C 0.6715 0.92019 0.68218 0.0
O2664 O 0.68909 0.90763 0.69103 0.0
O2665 O 0.67944 0.89962 0.69005 0.0
O2666 O 0.66844 0.91368 0.68441 0.0
O2667 O 0.67772 0.92207 0.68599 0.0
H2668 H 0.68522 0.90471 0.6739 0.0
H2669 H 0.69049 0.89775 0.66274 0.0
H2670 H 0.70145 0.88173 0.67807 0.0
H2671 H 0.69625 0.88864 0.68907 0.0
H2672 H 0.68093 0.89706 0.72719 0.0
H2673 H 0.68168 0.90175 0.7138 0.0
H2674 H 0.66461 0.91489 0.73242 0.0
H2675 H 0.66543 0.91954 0.71927 0.0
H2676 H 0.65137 0.9376 0.68584 0.0
H2677 H 0.66049 0.93444 0.66307 0.0
H2678 H 0.67004 0.92552 0.66808 0.0
H2679 H 0.66096 0.92844 0.6909 0.0
C2680 C 0.38001 0.41465 0.9213 0.0
C2681 C 0.37725 0.41365 0.91378 0.0
C2682 C 0.38397 0.42527 0.90967 0.0
C2683 C 0.37926 0.41891 0.90799 0.0
C2684 C 0.3869 0.42602 0.91713 0.0
C2685 C 0.38495 0.42078 0.92286 0.0
U2686 U 0.36809 0.39851 0.93119 0.0
O2687 O 0.37138 0.39089 0.94076 0.0
O2688 O 0.36205 0.39923 0.94226 0.0
C2689 C 0.36619 0.3938 0.94541 0.0
C2690 C 0.37749 0.40982 0.92781 0.0
C2691 C 0.36814 0.39459 0.95363 0.0
C2692 C 0.37278 0.40166 0.9648 0.0
C2693 C 0.3717 0.4011 0.9568 0.0
C2694 C 0.3669 0.38921 0.96643 0.0
C2695 C 0.37036 0.3957 0.9697 0.0
C2696 C 0.36581 0.38867 0.95853 0.0
C2697 C 0.35417 0.38684 0.91748 0.0
C2698 C 0.34451 0.37695 0.91962 0.0
C2699 C 0.34566 0.38299 0.90717 0.0
C2700 C 0.35173 0.38742 0.90986 0.0
C2701 C 0.34188 0.37783 0.91203 0.0
C2702 C 0.35062 0.38149 0.92236 0.0
C2703 C 0.36013 0.3923 0.91999 0.0
O2704 O 0.3704 0.41084 0.93012 0.0
O2705 O 0.3796 0.40259 0.92781 0.0
O2706 O 0.36677 0.38959 0.92228 0.0
O2707 O 0.35785 0.39835 0.92384 0.0
H2708 H 0.37341 0.40896 0.91245 0.0
H2709 H 0.37688 0.41818 0.9023 0.0
H2710 H 0.39063 0.43076 0.9186 0.0
H2711 H 0.38715 0.42164 0.9286 0.0
H2712 H 0.37551 0.40672 0.96715 0.0
H2713 H 0.37353 0.40576 0.95313 0.0
H2714 H 0.36485 0.38457 0.97002 0.0
H2715 H 0.36297 0.38364 0.95623 0.0
H2716 H 0.34164 0.37303 0.92348 0.0
H2717 H 0.34377 0.38376 0.9013 0.0
H2718 H 0.3544 0.39149 0.90601 0.0
H2719 H 0.35242 0.38096 0.92828 0.0
C2720 C 0.31819 0.61089 0.68207 0.0
C2721 C 0.31946 0.60811 0.6746 0.0
C2722 C 0.31186 0.61861 0.66931 0.0
C2723 C 0.31626 0.61193 0.66825 0.0
C2724 C 0.31047 0.62121 0.67681 0.0
C2725 C 0.31357 0.61737 0.6831 0.0
U2726 U 0.33138 0.59653 0.69286 0.0
O2727 O 0.33943 0.59893 0.70227 0.0
O2728 O 0.32962 0.59127 0.70424 0.0
C2729 C 0.33569 0.59463 0.70719 0.0
C2730 C 0.32182 0.60749 0.68891 0.0
C2731 C 0.33522 0.59744 0.71517 0.0
C2732 C 0.33065 0.60608 0.72517 0.0
C2733 C 0.3305 0.60353 0.7175 0.0
C2734 C 0.34022 0.59649 0.72812 0.0
C2735 C 0.33555 0.60259 0.7306 0.0
C2736 C 0.34001 0.59394 0.72055 0.0
C2737 C 0.34212 0.5812 0.68014 0.0
C2738 C 0.35462 0.57498 0.6804 0.0
C2739 C 0.34527 0.5714 0.6708 0.0
C2740 C 0.34007 0.5766 0.67391 0.0
C2741 C 0.35274 0.57074 0.67378 0.0
C2742 C 0.34935 0.58019 0.68356 0.0
C2743 C 0.33695 0.58761 0.68208 0.0
O2744 O 0.31957 0.60059 0.69093 0.0
O2745 O 0.32926 0.6085 0.68956 0.0
O2746 O 0.34012 0.59413 0.68411 0.0
O2747 O 0.33061 0.58602 0.68583 0.0
H2748 H 0.32303 0.60312 0.67367 0.0
H2749 H 0.31744 0.60983 0.66253 0.0
H2750 H 0.30704 0.62629 0.67779 0.0
H2751 H 0.3125 0.61958 0.6888 0.0
H2752 H 0.32692 0.61075 0.72684 0.0
H2753 H 0.32676 0.60634 0.71341 0.0
H2754 H 0.34424 0.59376 0.73197 0.0
H2755 H 0.34374 0.58927 0.71886 0.0
H2756 H 0.3603 0.5746 0.68289 0.0
H2757 H 0.34349 0.56806 0.66587 0.0
H2758 H 0.33452 0.57727 0.67119 0.0
H2759 H 0.35105 0.58368 0.68841 0.0
C2760 C 0.8797 0.09282 0.08717 0.0
C2761 C 0.87766 0.09469 0.09474 0.0
C2762 C 0.88373 0.08292 0.09941 0.0
C2763 C 0.87966 0.08978 0.10082 0.0
C2764 C 0.88582 0.0812 0.09181 0.0
C2765 C 0.88384 0.08609 0.08579 0.0
U2766 U 0.86819 0.10901 0.07722 0.0
O2767 O 0.8716 0.11667 0.06772 0.0
O2768 O 0.86207 0.10856 0.06619 0.0
C2769 C 0.86631 0.11395 0.06308 0.0
C2770 C 0.87738 0.09751 0.08051 0.0
C2771 C 0.86815 0.11324 0.05483 0.0
C2772 C 0.87342 0.10664 0.04365 0.0
C2773 C 0.87234 0.10712 0.05166 0.0
C2774 C 0.86615 0.11834 0.04202 0.0
C2775 C 0.87031 0.11227 0.03873 0.0
C2776 C 0.86512 0.11882 0.04994 0.0
C2777 C 0.85469 0.12094 0.09095 0.0
C2778 C 0.84388 0.12942 0.08853 0.0
C2779 C 0.84772 0.12662 0.10158 0.0
C2780 C 0.85365 0.12203 0.09883 0.0
C2781 C 0.84267 0.13029 0.09649 0.0
C2782 C 0.84985 0.12476 0.08577 0.0
C2783 C 0.86045 0.11525 0.08855 0.0
O2784 O 0.87027 0.09662 0.0782 0.0
O2785 O 0.87964 0.1047 0.08042 0.0
O2786 O 0.86719 0.11776 0.08631 0.0
O2787 O 0.85798 0.10934 0.0846 0.0
H2788 H 0.87445 0.09986 0.09594 0.0
H2789 H 0.87802 0.09134 0.1066 0.0
H2790 H 0.88881 0.07594 0.09045 0.0
H2791 H 0.88543 0.08452 0.07999 0.0
H2792 H 0.87669 0.10191 0.04133 0.0
H2793 H 0.87471 0.10272 0.05534 0.0
H2794 H 0.86351 0.12268 0.03847 0.0
H2795 H 0.8618 0.12353 0.05224 0.0
H2796 H 0.84015 0.13223 0.08446 0.0
H2797 H 0.8469 0.127 0.10772 0.0
H2798 H 0.85729 0.11908 0.10291 0.0
H2799 H 0.85056 0.12399 0.07965 0.0
C2800 C 0.69001 0.11063 0.82677 0.0
C2801 C 0.68735 0.10889 0.83418 0.0
C2802 C 0.69635 0.11813 0.8397 0.0
C2803 C 0.69049 0.11262 0.84059 0.0
C2804 C 0.69912 0.11963 0.83228 0.0
C2805 C 0.69598 0.11593 0.8259 0.0
U2806 U 0.67665 0.09663 0.81579 0.0
O2807 O 0.66869 0.09912 0.80634 0.0
O2808 O 0.67837 0.09128 0.80444 0.0
C2809 C 0.67236 0.09471 0.80145 0.0
C2810 C 0.68641 0.10742 0.8198 0.0
C2811 C 0.67284 0.0974 0.79343 0.0
C2812 C 0.67765 0.10568 0.78323 0.0
C2813 C 0.6778 0.10323 0.79094 0.0
C2814 C 0.66758 0.09652 0.78057 0.0
C2815 C 0.67248 0.10237 0.77792 0.0
C2816 C 0.66782 0.09405 0.78816 0.0
C2817 C 0.66567 0.08166 0.82881 0.0
C2818 C 0.65405 0.07404 0.82726 0.0
C2819 C 0.66166 0.07287 0.83881 0.0
C2820 C 0.66684 0.07824 0.83596 0.0
C2821 C 0.65517 0.07073 0.83455 0.0
C2822 C 0.65928 0.07949 0.8244 0.0
C2823 C 0.67091 0.08793 0.82667 0.0
O2824 O 0.68855 0.1005 0.81773 0.0
O2825 O 0.679 0.10857 0.81907 0.0
O2826 O 0.66782 0.09445 0.82451 0.0
O2827 O 0.67719 0.08618 0.8229 0.0
H2828 H 0.68276 0.10478 0.83498 0.0
H2829 H 0.68829 0.11126 0.84624 0.0
H2830 H 0.70354 0.12389 0.83135 0.0
H2831 H 0.69809 0.11737 0.82024 0.0
H2832 H 0.68158 0.11014 0.78146 0.0
H2833 H 0.68173 0.10592 0.79493 0.0
H2834 H 0.66334 0.09393 0.77685 0.0
H2835 H 0.6639 0.08957 0.78997 0.0
H2836 H 0.64913 0.07247 0.82381 0.0
H2837 H 0.66264 0.07059 0.8445 0.0
H2838 H 0.67167 0.0799 0.83949 0.0
H2839 H 0.65826 0.08209 0.81886 0.0
C2840 C 0.81825 0.89756 0.32615 0.0
C2841 C 0.82042 0.89941 0.33369 0.0
C2842 C 0.8118 0.88953 0.33867 0.0
C2843 C 0.81718 0.89543 0.33992 0.0
C2844 C 0.80946 0.88798 0.33112 0.0
C2845 C 0.81265 0.89194 0.32495 0.0
U2846 U 0.83176 0.91172 0.31541 0.0
O2847 O 0.83974 0.90912 0.30598 0.0
O2848 O 0.83011 0.917 0.30402 0.0
C2849 C 0.83608 0.91348 0.30105 0.0
C2850 C 0.82199 0.90093 0.31934 0.0
C2851 C 0.83554 0.91067 0.29306 0.0
C2852 C 0.83092 0.90201 0.28307 0.0
C2853 C 0.83082 0.90455 0.29076 0.0
C2854 C 0.84042 0.91165 0.28005 0.0
C2855 C 0.83577 0.90552 0.27759 0.0
C2856 C 0.84025 0.9142 0.28762 0.0
C2857 C 0.8426 0.92661 0.32886 0.0
C2858 C 0.85293 0.93585 0.32704 0.0
C2859 C 0.84754 0.93383 0.33967 0.0
C2860 C 0.84246 0.92847 0.33665 0.0
C2861 C 0.85287 0.93764 0.33495 0.0
C2862 C 0.84785 0.93034 0.32402 0.0
C2863 C 0.83742 0.92042 0.32633 0.0
O2864 O 0.81986 0.90787 0.31733 0.0
O2865 O 0.82941 0.8998 0.31871 0.0
O2866 O 0.84054 0.91392 0.32419 0.0
O2867 O 0.83125 0.92225 0.32242 0.0
H2868 H 0.82474 0.90374 0.33474 0.0
H2869 H 0.81912 0.89676 0.34567 0.0
H2870 H 0.80522 0.88359 0.32995 0.0
H2871 H 0.81087 0.89046 0.31918 0.0
H2872 H 0.82719 0.89732 0.28145 0.0
H2873 H 0.82713 0.90172 0.29488 0.0
H2874 H 0.84442 0.9144 0.27619 0.0
H2875 H 0.84397 0.91889 0.28928 0.0
H2876 H 0.85689 0.93869 0.32319 0.0
H2877 H 0.84739 0.93479 0.3458 0.0
H2878 H 0.8385 0.9256 0.34049 0.0
H2879 H 0.84807 0.92895 0.31797 0.0
C2880 C 0.42206 0.37749 0.0911 0.0
C2881 C 0.41473 0.37434 0.09209 0.0
C2882 C 0.40969 0.38216 0.08147 0.0
C2883 C 0.40862 0.37668 0.0874 0.0
C2884 C 0.41715 0.38524 0.08063 0.0
C2885 C 0.42318 0.38298 0.0854 0.0
U2886 U 0.4319 0.36586 0.10726 0.0
O2887 O 0.4432 0.36025 0.10719 0.0
O2888 O 0.4409 0.36955 0.11538 0.0
C2889 C 0.44589 0.36456 0.11276 0.0
C2890 C 0.42869 0.37513 0.0958 0.0
C2891 C 0.45404 0.36688 0.11233 0.0
C2892 C 0.46534 0.37158 0.10553 0.0
C2893 C 0.45735 0.37039 0.10587 0.0
C2894 C 0.46668 0.36595 0.11814 0.0
C2895 C 0.4701 0.36916 0.1116 0.0
C2896 C 0.45876 0.36486 0.1185 0.0
C2897 C 0.41847 0.35192 0.1189 0.0
C2898 C 0.42115 0.34084 0.12693 0.0
C2899 C 0.40809 0.34532 0.12543 0.0
C2900 C 0.41066 0.35118 0.12065 0.0
C2901 C 0.41328 0.34002 0.12851 0.0
C2902 C 0.42375 0.3468 0.12218 0.0
C2903 C 0.42066 0.35771 0.11314 0.0
O2904 O 0.42863 0.3773 0.10302 0.0
O2905 O 0.4311 0.36806 0.09485 0.0
O2906 O 0.4249 0.35538 0.10736 0.0
O2907 O 0.42249 0.36457 0.11563 0.0
H2908 H 0.41373 0.37008 0.0965 0.0
H2909 H 0.40312 0.37413 0.08856 0.0
H2910 H 0.41857 0.38931 0.07621 0.0
H2911 H 0.4288 0.38548 0.08453 0.0
H2912 H 0.46783 0.37407 0.10041 0.0
H2913 H 0.45381 0.372 0.10102 0.0
H2914 H 0.47016 0.36412 0.12294 0.0
H2915 H 0.45634 0.36215 0.12354 0.0
H2916 H 0.42524 0.33679 0.12925 0.0
H2917 H 0.40199 0.34473 0.12648 0.0
H2918 H 0.4065 0.35503 0.11812 0.0
H2919 H 0.42981 0.34727 0.12089 0.0
C2920 C 0.40108 0.68006 0.81609 0.0
C2921 C 0.4039 0.67256 0.81681 0.0
C2922 C 0.39272 0.66768 0.80982 0.0
C2923 C 0.39976 0.6664 0.81364 0.0
C2924 C 0.39009 0.67527 0.8091 0.0
C2925 C 0.39426 0.68134 0.81212 0.0
U2926 U 0.41453 0.69335 0.82888 0.0
O2927 O 0.4177 0.70519 0.82561 0.0
O2928 O 0.40989 0.70307 0.83547 0.0
C2929 C 0.41364 0.70807 0.83129 0.0
C2930 C 0.40464 0.68681 0.81965 0.0
C2931 C 0.41176 0.71626 0.8317 0.0
C2932 C 0.40475 0.72769 0.82785 0.0
C2933 C 0.40685 0.72001 0.82653 0.0
C2934 C 0.41263 0.72787 0.83928 0.0
C2935 C 0.40751 0.73166 0.83435 0.0
C2936 C 0.41465 0.72027 0.838 0.0
C2937 C 0.43023 0.68187 0.84165 0.0
C2938 C 0.43916 0.68272 0.85233 0.0
C2939 C 0.43654 0.67044 0.84639 0.0
C2940 C 0.43156 0.67399 0.84126 0.0
C2941 C 0.44037 0.67473 0.85205 0.0
C2942 C 0.4341 0.68628 0.84717 0.0
C2943 C 0.42433 0.68502 0.83652 0.0
O2944 O 0.4033 0.68798 0.82696 0.0
O2945 O 0.4115 0.68899 0.81739 0.0
O2946 O 0.42609 0.68819 0.82991 0.0
O2947 O 0.41746 0.68663 0.83916 0.0
H2948 H 0.40919 0.67146 0.81987 0.0
H2949 H 0.40205 0.66067 0.81422 0.0
H2950 H 0.38465 0.67658 0.80644 0.0
H2951 H 0.39199 0.68709 0.81156 0.0
H2952 H 0.40075 0.73039 0.82396 0.0
H2953 H 0.4045 0.71698 0.82165 0.0
H2954 H 0.41506 0.73073 0.84422 0.0
H2955 H 0.41842 0.71745 0.84205 0.0
H2956 H 0.44209 0.6862 0.85655 0.0
H2957 H 0.43717 0.66428 0.84607 0.0
H2958 H 0.42857 0.6705 0.83708 0.0
H2959 H 0.43312 0.69239 0.84756 0.0
C2960 C 0.08935 0.6307 0.59196 0.0
C2961 C 0.09611 0.63506 0.59197 0.0
C2962 C 0.10135 0.627 0.58176 0.0
C2963 C 0.10208 0.6332 0.58691 0.0
C2964 C 0.09463 0.62257 0.58198 0.0
C2965 C 0.08872 0.6244 0.58703 0.0
U2966 U 0.07628 0.64142 0.60705 0.0
O2967 O 0.06453 0.64509 0.60427 0.0
O2968 O 0.06646 0.6361 0.61313 0.0
C2969 C 0.06155 0.64034 0.6093 0.0
C2970 C 0.0825 0.63287 0.59634 0.0
C2971 C 0.05322 0.63926 0.60985 0.0
C2972 C 0.04102 0.63512 0.60456 0.0
C2973 C 0.04902 0.63566 0.60402 0.0
C2974 C 0.04143 0.64162 0.61683 0.0
C2975 C 0.03709 0.63819 0.61094 0.0
C2976 C 0.04939 0.64215 0.61627 0.0
C2977 C 0.08829 0.65675 0.61994 0.0
C2978 C 0.0877 0.66747 0.62887 0.0
C2979 C 0.09993 0.66339 0.62371 0.0
C2980 C 0.09626 0.65759 0.61959 0.0
C2981 C 0.0957 0.66848 0.6283 0.0
C2982 C 0.084 0.66167 0.62467 0.0
C2983 C 0.08469 0.65097 0.61495 0.0
O2984 O 0.08202 0.6307 0.60354 0.0
O2985 O 0.0797 0.63974 0.59507 0.0
O2986 O 0.08122 0.65297 0.60857 0.0
O2987 O 0.0834 0.64393 0.61728 0.0
H2988 H 0.09668 0.63998 0.59572 0.0
H2989 H 0.10723 0.63667 0.58696 0.0
H2990 H 0.09379 0.61785 0.57803 0.0
H2991 H 0.0835 0.62103 0.5869 0.0
H2992 H 0.03791 0.63252 0.59987 0.0
H2993 H 0.0519 0.63337 0.59901 0.0
H2994 H 0.03869 0.64392 0.6219 0.0
H2995 H 0.05258 0.64492 0.62083 0.0
H2996 H 0.08428 0.67133 0.63233 0.0
H2997 H 0.1061 0.66394 0.62323 0.0
H2998 H 0.09966 0.65385 0.61598 0.0
H2999 H 0.07783 0.66111 0.62499 0.0
C3000 C 0.10703 0.32844 0.31581 0.0
C3001 C 0.10569 0.33586 0.31861 0.0
C3002 C 0.11562 0.34083 0.3101 0.0
C3003 C 0.10998 0.34204 0.31575 0.0
C3004 C 0.11669 0.33344 0.30713 0.0
C3005 C 0.11243 0.32731 0.30998 0.0
U3006 U 0.09451 0.3147 0.32897 0.0
O3007 O 0.09146 0.30277 0.32584 0.0
O3008 O 0.09999 0.30511 0.33503 0.0
C3009 C 0.09613 0.30001 0.33107 0.0
C3010 C 0.10386 0.32155 0.31941 0.0
C3011 C 0.09793 0.29181 0.33166 0.0
C3012 C 0.10645 0.28095 0.32982 0.0
C3013 C 0.10458 0.28865 0.32844 0.0
C3014 C 0.09492 0.27953 0.33743 0.0
C3015 C 0.10171 0.27631 0.33446 0.0
C3016 C 0.09309 0.28719 0.33606 0.0
C3017 C 0.07872 0.32615 0.34186 0.0
C3018 C 0.06969 0.32587 0.35249 0.0
C3019 C 0.0731 0.33796 0.34658 0.0
C3020 C 0.07786 0.33411 0.34143 0.0
C3021 C 0.06908 0.33392 0.35228 0.0
C3022 C 0.07452 0.32201 0.34734 0.0
C3023 C 0.08451 0.32244 0.33698 0.0
O3024 O 0.1054 0.32052 0.3267 0.0
O3025 O 0.09704 0.3191 0.31733 0.0
O3026 O 0.08277 0.31936 0.33032 0.0
O3027 O 0.09153 0.32123 0.33941 0.0
H3028 H 0.10157 0.33683 0.32316 0.0
H3029 H 0.10903 0.34772 0.31807 0.0
H3030 H 0.12105 0.33233 0.30285 0.0
H3031 H 0.11362 0.3216 0.30784 0.0
H3032 H 0.11177 0.27877 0.3275 0.0
H3033 H 0.10841 0.29216 0.32503 0.0
H3034 H 0.091 0.27617 0.34086 0.0
H3035 H 0.08794 0.28957 0.3386 0.0
H3036 H 0.06668 0.3226 0.35682 0.0
H3037 H 0.07265 0.34414 0.34619 0.0
H3038 H 0.08106 0.33739 0.33722 0.0
H3039 H 0.07514 0.31585 0.34777 0.0
C3040 C 0.42199 0.631 0.41765 0.0
C3041 C 0.41454 0.63367 0.41613 0.0
C3042 C 0.40961 0.62665 0.42725 0.0
C3043 C 0.40841 0.6315 0.42088 0.0
C3044 C 0.41709 0.62396 0.42864 0.0
C3045 C 0.42318 0.6261 0.42389 0.0
U3046 U 0.43198 0.64265 0.40161 0.0
O3047 O 0.44322 0.64839 0.40191 0.0
O3048 O 0.44116 0.63911 0.39362 0.0
C3049 C 0.44606 0.64415 0.39636 0.0
C3050 C 0.42868 0.63334 0.41302 0.0
C3051 C 0.4542 0.64187 0.39692 0.0
C3052 C 0.4654 0.63703 0.40376 0.0
C3053 C 0.45745 0.63845 0.40345 0.0
C3054 C 0.46683 0.64236 0.39104 0.0
C3055 C 0.4702 0.63901 0.39755 0.0
C3056 C 0.45896 0.64373 0.39073 0.0
C3057 C 0.41858 0.65641 0.38975 0.0
C3058 C 0.42119 0.66757 0.38179 0.0
C3059 C 0.4082 0.66278 0.38299 0.0
C3060 C 0.4108 0.65697 0.38782 0.0
C3061 C 0.41333 0.66822 0.38003 0.0
C3062 C 0.42381 0.66167 0.3866 0.0
C3063 C 0.42076 0.65067 0.39555 0.0
O3064 O 0.42873 0.63118 0.4058 0.0
O3065 O 0.43106 0.64042 0.414 0.0
O3066 O 0.42487 0.65305 0.40139 0.0
O3067 O 0.4227 0.64382 0.39309 0.0
H3068 H 0.4135 0.63745 0.41133 0.0
H3069 H 0.40272 0.63362 0.41957 0.0
H3070 H 0.41831 0.62035 0.43353 0.0
H3071 H 0.42889 0.62401 0.42517 0.0
H3072 H 0.46779 0.63439 0.40885 0.0
H3073 H 0.45388 0.63698 0.40832 0.0
H3074 H 0.4703 0.64414 0.38621 0.0
H3075 H 0.4566 0.64645 0.38567 0.0
H3076 H 0.42525 0.6717 0.37955 0.0
H3077 H 0.40212 0.66321 0.38183 0.0
H3078 H 0.40667 0.65301 0.39025 0.0
H3079 H 0.42985 0.66134 0.38802 0.0
C3080 C 0.10855 0.68218 0.19238 0.0
C3081 C 0.10662 0.67479 0.18982 0.0
C3082 C 0.11625 0.6692 0.19834 0.0
C3083 C 0.11045 0.66835 0.19277 0.0
C3084 C 0.11792 0.6766 0.20106 0.0
C3085 C 0.11412 0.683 0.1981 0.0
U3086 U 0.0946 0.69325 0.17907 0.0
O3087 O 0.08936 0.70469 0.18064 0.0
O3088 O 0.09727 0.70259 0.17105 0.0
C3089 C 0.09291 0.70758 0.17464 0.0
C3090 C 0.10535 0.68918 0.18884 0.0
C3091 C 0.09572 0.71558 0.17507 0.0
C3092 C 0.10556 0.72525 0.17754 0.0
C3093 C 0.10285 0.71766 0.17824 0.0
C3094 C 0.09395 0.72872 0.17079 0.0
C3095 C 0.10122 0.73082 0.17359 0.0
C3096 C 0.09127 0.72122 0.17151 0.0
C3097 C 0.07976 0.67972 0.16823 0.0
C3098 C 0.07105 0.68124 0.15743 0.0
C3099 C 0.07261 0.66882 0.1634 0.0
C3100 C 0.07777 0.67197 0.1686 0.0
C3101 C 0.0692 0.67336 0.15769 0.0
C3102 C 0.07632 0.6844 0.16266 0.0
C3103 C 0.08589 0.68232 0.17343 0.0
O3104 O 0.10651 0.68994 0.18144 0.0
O3105 O 0.09842 0.69126 0.19098 0.0
O3106 O 0.08401 0.68629 0.17956 0.0
O3107 O 0.09242 0.68443 0.17033 0.0
H3108 H 0.10231 0.67402 0.18542 0.0
H3109 H 0.10896 0.66272 0.19062 0.0
H3110 H 0.12239 0.67749 0.20528 0.0
H3111 H 0.11572 0.68865 0.20013 0.0
H3112 H 0.11118 0.72665 0.17977 0.0
H3113 H 0.10639 0.71339 0.18101 0.0
H3114 H 0.09035 0.73286 0.16789 0.0
H3115 H 0.08576 0.71976 0.16904 0.0
H3116 H 0.06848 0.68494 0.15316 0.0
H3117 H 0.07154 0.66272 0.16371 0.0
H3118 H 0.08043 0.66825 0.17281 0.0
H3119 H 0.07781 0.69042 0.16227 0.0
C3120 C 0.08677 0.3781 0.9166 0.0
C3121 C 0.09377 0.37412 0.91686 0.0
C3122 C 0.09864 0.38307 0.92651 0.0
C3123 C 0.09968 0.37661 0.92176 0.0
C3124 C 0.09172 0.38716 0.92598 0.0
C3125 C 0.08587 0.38471 0.92108 0.0
U3126 U 0.07663 0.36563 0.90112 0.0
O3127 O 0.06539 0.35992 0.90182 0.0
O3128 O 0.06732 0.36888 0.89318 0.0
C3129 C 0.06246 0.36397 0.89619 0.0
C3130 C 0.08011 0.37535 0.91212 0.0
C3131 C 0.05432 0.36629 0.8968 0.0
C3132 C 0.04317 0.37112 0.90377 0.0
C3133 C 0.05112 0.36968 0.90339 0.0
C3134 C 0.04165 0.3659 0.891 0.0
C3135 C 0.03832 0.36919 0.89758 0.0
C3136 C 0.04952 0.36451 0.89063 0.0
C3137 C 0.08996 0.35165 0.8893 0.0
C3138 C 0.08748 0.34033 0.88152 0.0
C3139 C 0.10037 0.34541 0.88247 0.0
C3140 C 0.09771 0.35124 0.88725 0.0
C3141 C 0.09532 0.33982 0.87962 0.0
C3142 C 0.0848 0.34623 0.88632 0.0
C3143 C 0.08777 0.35749 0.89501 0.0
O3144 O 0.07988 0.37727 0.90484 0.0
O3145 O 0.07789 0.36826 0.91339 0.0
O3146 O 0.08375 0.35522 0.90097 0.0
O3147 O 0.08575 0.36428 0.89245 0.0
H3148 H 0.0946 0.369 0.91344 0.0
H3149 H 0.10492 0.3733 0.92207 0.0
H3150 H 0.09076 0.39221 0.92946 0.0
H3151 H 0.08053 0.38788 0.92094 0.0
H3152 H 0.04084 0.37372 0.9089 0.0
H3153 H 0.05472 0.37109 0.90825 0.0
H3154 H 0.03815 0.36416 0.88618 0.0
H3155 H 0.05184 0.36183 0.88552 0.0
H3156 H 0.08345 0.33612 0.87937 0.0
H3157 H 0.10645 0.34512 0.88124 0.0
H3158 H 0.10179 0.35532 0.88954 0.0
H3159 H 0.07878 0.34645 0.88784 0.0
C3160 C 0.3999 0.32571 0.6925 0.0
C3161 C 0.4026 0.33323 0.69146 0.0
C3162 C 0.39152 0.33826 0.69845 0.0
C3163 C 0.39846 0.33947 0.69447 0.0
C3164 C 0.38907 0.33069 0.6997 0.0
C3165 C 0.39321 0.32451 0.69677 0.0
U3166 U 0.41435 0.31511 0.67909 0.0
O3167 O 0.41927 0.30352 0.68052 0.0
O3168 O 0.41171 0.30601 0.67076 0.0
C3169 C 0.41583 0.30085 0.67436 0.0
C3170 C 0.40346 0.31897 0.68879 0.0
C3171 C 0.4128 0.29291 0.67448 0.0
C3172 C 0.40454 0.28263 0.67923 0.0
C3173 C 0.40725 0.29025 0.6797 0.0
C3174 C 0.41283 0.2804 0.66834 0.0
C3175 C 0.40731 0.27758 0.67351 0.0
C3176 C 0.41555 0.2879 0.66887 0.0
C3177 C 0.42929 0.32854 0.66832 0.0
C3178 C 0.43757 0.32685 0.65718 0.0
C3179 C 0.43626 0.33937 0.66304 0.0
C3180 C 0.43135 0.33629 0.66854 0.0
C3181 C 0.43929 0.33475 0.65719 0.0
C3182 C 0.43253 0.32377 0.66268 0.0
C3183 C 0.42318 0.32605 0.67362 0.0
O3184 O 0.4024 0.31837 0.68136 0.0
O3185 O 0.4104 0.31702 0.69097 0.0
O3186 O 0.42505 0.32193 0.67965 0.0
O3187 O 0.41658 0.32412 0.67057 0.0
H3188 H 0.40776 0.33428 0.68816 0.0
H3189 H 0.4005 0.34524 0.6934 0.0
H3190 H 0.38385 0.32953 0.70287 0.0
H3191 H 0.39105 0.31876 0.69765 0.0
H3192 H 0.40032 0.28071 0.68335 0.0
H3193 H 0.40501 0.29403 0.68409 0.0
H3194 H 0.41498 0.2769 0.66369 0.0
H3195 H 0.41978 0.28984 0.66474 0.0
H3196 H 0.43985 0.32316 0.65274 0.0
H3197 H 0.43758 0.34543 0.66327 0.0
H3198 H 0.42892 0.34007 0.67283 0.0
H3199 H 0.43098 0.31776 0.6624 0.0
C3200 C 0.09144 0.4217 0.37741 0.0
C3201 C 0.0907 0.41532 0.37256 0.0
C3202 C 0.08155 0.40941 0.38144 0.0
C3203 C 0.08577 0.40927 0.37452 0.0
C3204 C 0.08263 0.41571 0.3864 0.0
C3205 C 0.08745 0.42179 0.38437 0.0
U3206 U 0.10743 0.43187 0.36598 0.0
O3207 O 0.10727 0.4431 0.36023 0.0
O3208 O 0.11541 0.44102 0.36962 0.0
C3209 C 0.11278 0.44591 0.36453 0.0
C3210 C 0.096 0.4285 0.37522 0.0
C3211 C 0.11227 0.45409 0.36669 0.0
C3212 C 0.10577 0.46522 0.37218 0.0
C3213 C 0.10622 0.45722 0.37102 0.0
C3214 C 0.11743 0.4669 0.36484 0.0
C3215 C 0.11129 0.47014 0.36891 0.0
C3216 C 0.11792 0.459 0.36377 0.0
C3217 C 0.11908 0.41833 0.35208 0.0
C3218 C 0.12698 0.42076 0.34083 0.0
C3219 C 0.12552 0.40782 0.34561 0.0
C3220 C 0.12085 0.41053 0.35151 0.0
C3221 C 0.12857 0.41287 0.34012 0.0
C3222 C 0.12226 0.42348 0.34677 0.0
C3223 C 0.11337 0.42062 0.35788 0.0
O3224 O 0.10321 0.42857 0.37744 0.0
O3225 O 0.09505 0.43102 0.36818 0.0
O3226 O 0.10756 0.4248 0.35554 0.0
O3227 O 0.1159 0.42255 0.36471 0.0
H3228 H 0.09376 0.41511 0.36715 0.0
H3229 H 0.08511 0.40463 0.37046 0.0
H3230 H 0.07975 0.41602 0.39188 0.0
H3231 H 0.08798 0.42663 0.38822 0.0
H3232 H 0.10097 0.46756 0.37534 0.0
H3233 H 0.10179 0.45354 0.37333 0.0
H3234 H 0.12182 0.47052 0.36234 0.0
H3235 H 0.12264 0.45671 0.36044 0.0
H3236 H 0.12929 0.42482 0.33674 0.0
H3237 H 0.12649 0.4017 0.34519 0.0
H3238 H 0.1184 0.40646 0.35551 0.0
H3239 H 0.12095 0.42954 0.34711 0.0
C3240 C 0.32814 0.31557 0.10725 0.0
C3241 C 0.33575 0.31738 0.10535 0.0
C3242 C 0.34027 0.3095 0.11601 0.0
C3243 C 0.3418 0.31431 0.10969 0.0
C3244 C 0.33264 0.30747 0.1176 0.0
C3245 C 0.32666 0.31048 0.11327 0.0
U3246 U 0.31479 0.32851 0.09396 0.0
O3247 O 0.30292 0.32497 0.09116 0.0
O3248 O 0.30505 0.33484 0.09898 0.0
C3249 C 0.30006 0.33023 0.09576 0.0
C3250 C 0.32147 0.31929 0.10375 0.0
C3251 C 0.29175 0.33129 0.09674 0.0
C3252 C 0.27985 0.32729 0.10283 0.0
C3253 C 0.28745 0.32578 0.10073 0.0
C3254 C 0.2807 0.33973 0.09672 0.0
C3255 C 0.27646 0.33435 0.10097 0.0
C3256 C 0.2883 0.33823 0.09464 0.0
C3257 C 0.32602 0.34107 0.07786 0.0
C3258 C 0.32619 0.35319 0.07098 0.0
C3259 C 0.33682 0.34437 0.06972 0.0
C3260 C 0.33313 0.33925 0.07463 0.0
C3261 C 0.33352 0.35152 0.06796 0.0
C3262 C 0.32248 0.34802 0.0759 0.0
C3263 C 0.32292 0.33596 0.08382 0.0
O3264 O 0.32051 0.32664 0.10501 0.0
O3265 O 0.31911 0.317 0.09697 0.0
O3266 O 0.31976 0.3293 0.08223 0.0
O3267 O 0.32136 0.33872 0.09066 0.0
H3268 H 0.33698 0.32132 0.10071 0.0
H3269 H 0.34762 0.31598 0.10833 0.0
H3270 H 0.33126 0.30366 0.1223 0.0
H3271 H 0.32082 0.30903 0.11481 0.0
H3272 H 0.27674 0.3231 0.1062 0.0
H3273 H 0.29009 0.32047 0.10254 0.0
H3274 H 0.27819 0.34521 0.09522 0.0
H3275 H 0.29155 0.34257 0.09161 0.0
H3276 H 0.32344 0.35863 0.06983 0.0
H3277 H 0.34232 0.3427 0.06737 0.0
H3278 H 0.33597 0.33392 0.0761 0.0
H3279 H 0.31699 0.34954 0.07836 0.0
C3280 C 0.41696 0.58852 0.87796 0.0
C3281 C 0.41602 0.5958 0.87468 0.0
C3282 C 0.42683 0.60062 0.88221 0.0
C3283 C 0.42092 0.60183 0.87681 0.0
C3284 C 0.4276 0.59333 0.88552 0.0
C3285 C 0.42271 0.58738 0.88342 0.0
U3286 U 0.40156 0.57616 0.86693 0.0
O3287 O 0.40381 0.5644 0.86285 0.0
O3288 O 0.39515 0.56644 0.87199 0.0
C3289 C 0.39864 0.56149 0.8675 0.0
C3290 C 0.41244 0.58179 0.87568 0.0
C3291 C 0.39799 0.55315 0.86867 0.0
C3292 C 0.40232 0.54101 0.87397 0.0
C3293 C 0.40298 0.54901 0.87344 0.0
C3294 C 0.39168 0.54125 0.86506 0.0
C3295 C 0.39672 0.53702 0.86971 0.0
C3296 C 0.39231 0.54922 0.86458 0.0
C3297 C 0.38894 0.5884 0.85175 0.0
C3298 C 0.37845 0.58727 0.84261 0.0
C3299 C 0.38516 0.59934 0.844 0.0
C3300 C 0.38983 0.59608 0.8496 0.0
C3301 C 0.3794 0.595 0.84039 0.0
C3302 C 0.38319 0.58398 0.84825 0.0
C3303 C 0.39424 0.58541 0.85763 0.0
O3304 O 0.40522 0.5815 0.8778 0.0
O3305 O 0.41369 0.57904 0.86878 0.0
O3306 O 0.40044 0.58165 0.85557 0.0
O3307 O 0.39172 0.58377 0.86454 0.0
H3308 H 0.4116 0.59678 0.87043 0.0
H3309 H 0.42011 0.6074 0.8742 0.0
H3310 H 0.43215 0.59212 0.88956 0.0
H3311 H 0.42355 0.58177 0.88597 0.0
H3312 H 0.40635 0.53791 0.87754 0.0
H3313 H 0.40743 0.55194 0.87663 0.0
H3314 H 0.38725 0.53841 0.86177 0.0
H3315 H 0.3884 0.55233 0.86089 0.0
H3316 H 0.37404 0.58376 0.84001 0.0
H3317 H 0.38621 0.60523 0.84237 0.0
H3318 H 0.39426 0.59957 0.85222 0.0
H3319 H 0.38239 0.57804 0.84985 0.0
C3320 C 0.18201 0.69192 0.60877 0.0
C3321 C 0.17461 0.68926 0.60701 0.0
C3322 C 0.16912 0.69777 0.61672 0.0
C3323 C 0.16821 0.69216 0.61097 0.0
C3324 C 0.17652 0.70058 0.61822 0.0
C3325 C 0.18288 0.69768 0.6143 0.0
U3326 U 0.19313 0.67872 0.5947 0.0
O3327 O 0.2046 0.6804 0.58951 0.0
O3328 O 0.20255 0.67079 0.59739 0.0
C3329 C 0.20753 0.67444 0.59307 0.0
C3330 C 0.18899 0.68842 0.60549 0.0
C3331 C 0.21553 0.67493 0.5959 0.0
C3332 C 0.22512 0.67685 0.60595 0.0
C3333 C 0.21752 0.67762 0.60325 0.0
C3334 C 0.22878 0.67109 0.59388 0.0
C3335 C 0.23079 0.67332 0.60137 0.0
C3336 C 0.22127 0.67185 0.59122 0.0
C3337 C 0.18004 0.66766 0.57971 0.0
C3338 C 0.18189 0.65629 0.5718 0.0
C3339 C 0.16966 0.66286 0.57174 0.0
C3340 C 0.17251 0.66821 0.57695 0.0
C3341 C 0.17426 0.65678 0.56922 0.0
C3342 C 0.18479 0.66172 0.57701 0.0
C3343 C 0.18229 0.67296 0.5859 0.0
O3344 O 0.18978 0.68102 0.60662 0.0
O3345 O 0.19102 0.69059 0.59857 0.0
O3346 O 0.18618 0.67916 0.58409 0.0
O3347 O 0.18438 0.66992 0.59246 0.0
H3348 H 0.1738 0.68482 0.60275 0.0
H3349 H 0.16257 0.68994 0.6096 0.0
H3350 H 0.17745 0.70483 0.62265 0.0
H3351 H 0.18854 0.69978 0.61577 0.0
H3352 H 0.22644 0.67867 0.61173 0.0
H3353 H 0.21318 0.68003 0.60698 0.0
H3354 H 0.23299 0.66856 0.59008 0.0
H3355 H 0.21989 0.66976 0.58553 0.0
H3356 H 0.18554 0.65165 0.56987 0.0
H3357 H 0.16376 0.66332 0.56985 0.0
H3358 H 0.16874 0.6727 0.57901 0.0
H3359 H 0.19062 0.66118 0.57909 0.0
C3360 C 0.09178 0.5887 0.13089 0.0
C3361 C 0.0922 0.59588 0.13451 0.0
C3362 C 0.08182 0.60055 0.12637 0.0
C3363 C 0.08724 0.60181 0.13222 0.0
C3364 C 0.08167 0.59342 0.12264 0.0
C3365 C 0.08659 0.58758 0.12489 0.0
U3366 U 0.10711 0.57635 0.14204 0.0
O3367 O 0.1049 0.56461 0.14627 0.0
O3368 O 0.11333 0.5666 0.1369 0.0
C3369 C 0.10994 0.56168 0.1415 0.0
C3370 C 0.09625 0.582 0.13333 0.0
C3371 C 0.11052 0.55337 0.14022 0.0
C3372 C 0.10727 0.54155 0.13356 0.0
C3373 C 0.10682 0.54957 0.13416 0.0
C3374 C 0.11519 0.54116 0.14495 0.0
C3375 C 0.11141 0.53724 0.13901 0.0
C3376 C 0.11474 0.54911 0.14553 0.0
C3377 C 0.11999 0.58841 0.15709 0.0
C3378 C 0.12922 0.58684 0.16745 0.0
C3379 C 0.12478 0.59952 0.16398 0.0
C3380 C 0.12019 0.59634 0.15827 0.0
C3381 C 0.12933 0.59484 0.16868 0.0
C3382 C 0.12457 0.58363 0.16168 0.0
C3383 C 0.11461 0.58555 0.15125 0.0
O3384 O 0.10345 0.58159 0.13115 0.0
O3385 O 0.09501 0.57937 0.14027 0.0
O3386 O 0.10841 0.58182 0.15336 0.0
O3387 O 0.11702 0.58394 0.14428 0.0
H3388 H 0.09618 0.59684 0.13918 0.0
H3389 H 0.08744 0.60724 0.13522 0.0
H3390 H 0.07764 0.59231 0.11805 0.0
H3391 H 0.08622 0.58208 0.12203 0.0
H3392 H 0.10438 0.53873 0.12884 0.0
H3393 H 0.10353 0.55277 0.12997 0.0
H3394 H 0.11835 0.53807 0.14931 0.0
H3395 H 0.11761 0.55196 0.15025 0.0
H3396 H 0.13269 0.58309 0.17096 0.0
H3397 H 0.12458 0.60566 0.16484 0.0
H3398 H 0.11664 0.6001 0.15483 0.0
H3399 H 0.12448 0.57748 0.16087 0.0
C3400 C 0.18203 0.31602 0.90003 0.0
C3401 C 0.1746 0.31726 0.90291 0.0
C3402 C 0.16916 0.31006 0.89221 0.0
C3403 C 0.16819 0.31429 0.89901 0.0
C3404 C 0.17659 0.30867 0.88948 0.0
C3405 C 0.18296 0.31161 0.89336 0.0
U3406 U 0.19312 0.32908 0.91441 0.0
O3407 O 0.20485 0.32754 0.91897 0.0
O3408 O 0.20215 0.33748 0.91173 0.0
C3409 C 0.20742 0.3338 0.91565 0.0
C3410 C 0.18892 0.31963 0.9034 0.0
C3411 C 0.21534 0.33392 0.91257 0.0
C3412 C 0.22598 0.32907 0.90481 0.0
C3413 C 0.21834 0.32844 0.90745 0.0
C3414 C 0.22757 0.34061 0.91233 0.0
C3415 C 0.23073 0.33517 0.90727 0.0
C3416 C 0.22005 0.33996 0.91495 0.0
C3417 C 0.1798 0.33948 0.92986 0.0
C3418 C 0.18131 0.35031 0.93859 0.0
C3419 C 0.16876 0.34472 0.93655 0.0
C3420 C 0.17197 0.33933 0.9316 0.0
C3421 C 0.17334 0.35039 0.93994 0.0
C3422 C 0.18453 0.34491 0.9335 0.0
C3423 C 0.18241 0.33436 0.92363 0.0
O3424 O 0.1895 0.32708 0.90251 0.0
O3425 O 0.1911 0.3173 0.91023 0.0
O3426 O 0.1866 0.32833 0.9253 0.0
O3427 O 0.18418 0.33755 0.91705 0.0
H3428 H 0.17375 0.32067 0.90803 0.0
H3429 H 0.16248 0.31543 0.90118 0.0
H3430 H 0.17746 0.30545 0.88424 0.0
H3431 H 0.18863 0.31061 0.89103 0.0
H3432 H 0.22818 0.32474 0.90095 0.0
H3433 H 0.2148 0.32372 0.9055 0.0
H3434 H 0.23085 0.34553 0.91421 0.0
H3435 H 0.21786 0.34427 0.91885 0.0
H3436 H 0.18495 0.35465 0.94115 0.0
H3437 H 0.16263 0.34461 0.93754 0.0
H3438 H 0.16822 0.3352 0.92886 0.0
H3439 H 0.1906 0.34515 0.93221 0.0
C3440 C 0.417 0.41938 0.63112 0.0
C3441 C 0.41678 0.4125 0.63527 0.0
C3442 C 0.42707 0.40734 0.62727 0.0
C3443 C 0.42178 0.4065 0.63333 0.0
C3444 C 0.42709 0.41421 0.62306 0.0
C3445 C 0.42209 0.42013 0.62497 0.0
U3446 U 0.40153 0.43203 0.64169 0.0
O3447 O 0.40387 0.44375 0.64583 0.0
O3448 O 0.39545 0.44184 0.63643 0.0
C3449 C 0.39892 0.44672 0.641 0.0
C3450 C 0.41258 0.4262 0.63331 0.0
C3451 C 0.39835 0.45506 0.63992 0.0
C3452 C 0.40303 0.46721 0.63498 0.0
C3453 C 0.40363 0.45921 0.63549 0.0
C3454 C 0.39189 0.46692 0.64327 0.0
C3455 C 0.39721 0.47116 0.63895 0.0
C3456 C 0.39245 0.45895 0.64373 0.0
C3457 C 0.38823 0.41982 0.65638 0.0
C3458 C 0.38005 0.42073 0.66767 0.0
C3459 C 0.38302 0.40831 0.66222 0.0
C3460 C 0.38734 0.41185 0.65651 0.0
C3461 C 0.37943 0.41268 0.66795 0.0
C3462 C 0.38448 0.42429 0.66194 0.0
C3463 C 0.3936 0.42303 0.6507 0.0
O3464 O 0.40546 0.4267 0.63091 0.0
O3465 O 0.41362 0.42886 0.64028 0.0
O3466 O 0.39977 0.4267 0.653 0.0
O3467 O 0.39143 0.42454 0.64365 0.0
H3468 H 0.41288 0.41183 0.64006 0.0
H3469 H 0.42155 0.40124 0.63662 0.0
H3470 H 0.43115 0.41514 0.61847 0.0
H3471 H 0.42238 0.42544 0.62176 0.0
H3472 H 0.40726 0.47033 0.63166 0.0
H3473 H 0.40824 0.45629 0.63253 0.0
H3474 H 0.38729 0.46976 0.64633 0.0
H3475 H 0.38833 0.45582 0.64716 0.0
H3476 H 0.37737 0.42424 0.67204 0.0
H3477 H 0.38258 0.40212 0.66222 0.0
H3478 H 0.3902 0.4083 0.65228 0.0
H3479 H 0.38512 0.43046 0.66196 0.0
C3480 C 0.32612 0.69238 0.40027 0.0
C3481 C 0.33362 0.69045 0.40249 0.0
C3482 C 0.33884 0.69836 0.39214 0.0
C3483 C 0.33994 0.69344 0.39847 0.0
C3484 C 0.33131 0.70052 0.39024 0.0
C3485 C 0.32504 0.69755 0.39424 0.0
U3486 U 0.31521 0.67893 0.41436 0.0
O3487 O 0.30375 0.68054 0.41956 0.0
O3488 O 0.30582 0.67098 0.41162 0.0
C3489 C 0.30084 0.67458 0.41597 0.0
C3490 C 0.31925 0.68874 0.40363 0.0
C3491 C 0.29284 0.67505 0.41315 0.0
C3492 C 0.28323 0.67723 0.40319 0.0
C3493 C 0.29082 0.67799 0.40591 0.0
C3494 C 0.27965 0.67095 0.41502 0.0
C3495 C 0.27761 0.67346 0.40763 0.0
C3496 C 0.28715 0.67171 0.41771 0.0
C3497 C 0.32826 0.66785 0.42929 0.0
C3498 C 0.32663 0.65626 0.43692 0.0
C3499 C 0.33857 0.66334 0.43747 0.0
C3500 C 0.33563 0.66869 0.43233 0.0
C3501 C 0.33417 0.65699 0.43979 0.0
C3502 C 0.3237 0.66166 0.43169 0.0
C3503 C 0.32603 0.67316 0.42311 0.0
O3504 O 0.31854 0.68134 0.40245 0.0
O3505 O 0.31726 0.69084 0.4106 0.0
O3506 O 0.32216 0.67936 0.42494 0.0
O3507 O 0.32396 0.67014 0.41653 0.0
H3508 H 0.33458 0.68646 0.40715 0.0
H3509 H 0.34566 0.69164 0.40009 0.0
H3510 H 0.33022 0.70443 0.38555 0.0
H3511 H 0.31931 0.69914 0.39247 0.0
H3512 H 0.28188 0.67926 0.39748 0.0
H3513 H 0.29513 0.6806 0.40229 0.0
H3514 H 0.27548 0.66821 0.41871 0.0
H3515 H 0.28856 0.66942 0.4233 0.0
H3516 H 0.32306 0.65149 0.43865 0.0
H3517 H 0.34443 0.66405 0.43939 0.0
H3518 H 0.33927 0.67338 0.43049 0.0
H3519 H 0.31798 0.66089 0.42939 0.0
C3520 C 0.37762 0.09136 0.4215 0.0
C3521 C 0.37372 0.09159 0.41445 0.0
C3522 C 0.38194 0.08139 0.40943 0.0
C3523 C 0.37588 0.08665 0.40844 0.0
C3524 C 0.38598 0.08146 0.41641 0.0
C3525 C 0.38383 0.08637 0.42236 0.0
U3526 U 0.36578 0.10718 0.43166 0.0
O3527 O 0.35984 0.10666 0.4428 0.0
O3528 O 0.36921 0.11492 0.44108 0.0
C3529 C 0.36403 0.11215 0.4458 0.0
C3530 C 0.37515 0.09589 0.42822 0.0
C3531 C 0.36596 0.11162 0.45404 0.0
C3532 C 0.37246 0.10606 0.46513 0.0
C3533 C 0.37111 0.10624 0.45715 0.0
C3534 C 0.36354 0.11654 0.46685 0.0
C3535 C 0.3687 0.11125 0.47008 0.0
C3536 C 0.36224 0.11673 0.45897 0.0
C3537 C 0.35202 0.11909 0.41824 0.0
C3538 C 0.34132 0.12762 0.42102 0.0
C3539 C 0.34496 0.1251 0.40785 0.0
C3540 C 0.35085 0.12033 0.41039 0.0
C3541 C 0.34009 0.12869 0.41312 0.0
C3542 C 0.3473 0.12286 0.42358 0.0
C3543 C 0.35784 0.11338 0.42044 0.0
O3544 O 0.37731 0.10311 0.42842 0.0
O3545 O 0.36805 0.09485 0.43052 0.0
O3546 O 0.35547 0.10744 0.42441 0.0
O3547 O 0.3646 0.11591 0.42258 0.0
H3548 H 0.3689 0.09542 0.41366 0.0
H3549 H 0.37262 0.08673 0.40316 0.0
H3550 H 0.39076 0.0776 0.41734 0.0
H3551 H 0.38694 0.08613 0.42773 0.0
H3552 H 0.37649 0.10192 0.4674 0.0
H3553 H 0.37404 0.10222 0.45344 0.0
H3554 H 0.36037 0.1205 0.47042 0.0
H3555 H 0.3582 0.12087 0.45671 0.0
H3556 H 0.33757 0.13032 0.42517 0.0
H3557 H 0.34403 0.12575 0.40174 0.0
H3558 H 0.35438 0.11742 0.40618 0.0
H3559 H 0.3481 0.12196 0.42967 0.0
C3560 C 0.87771 0.41729 0.58716 0.0
C3561 C 0.87376 0.41687 0.59418 0.0
C3562 C 0.8816 0.42725 0.59934 0.0
C3563 C 0.87568 0.42185 0.60022 0.0
C3564 C 0.88567 0.4275 0.59241 0.0
C3565 C 0.88374 0.42257 0.58638 0.0
U3566 U 0.86599 0.40142 0.57694 0.0
O3567 O 0.86017 0.40187 0.56574 0.0
O3568 O 0.86948 0.39358 0.56762 0.0
C3569 C 0.86435 0.39632 0.56282 0.0
C3570 C 0.87541 0.4127 0.5804 0.0
C3571 C 0.86633 0.39674 0.55457 0.0
C3572 C 0.87296 0.40209 0.54345 0.0
C3573 C 0.87162 0.40196 0.55143 0.0
C3574 C 0.86374 0.39187 0.54177 0.0
C3575 C 0.86903 0.39701 0.53849 0.0
C3576 C 0.86246 0.39172 0.54966 0.0
C3577 C 0.85199 0.39 0.59078 0.0
C3578 C 0.84284 0.37962 0.58887 0.0
C3579 C 0.84414 0.38552 0.60137 0.0
C3580 C 0.84976 0.3904 0.59847 0.0
C3581 C 0.84058 0.38005 0.59664 0.0
C3582 C 0.84852 0.38456 0.58595 0.0
C3583 C 0.85787 0.39549 0.58818 0.0
O3584 O 0.8775 0.40547 0.58034 0.0
O3585 O 0.86838 0.41376 0.57794 0.0
O3586 O 0.85557 0.40137 0.58409 0.0
O3587 O 0.86458 0.3928 0.58608 0.0
H3588 H 0.86908 0.41286 0.59491 0.0
H3589 H 0.87244 0.42161 0.60552 0.0
H3590 H 0.89019 0.43168 0.59158 0.0
H3591 H 0.88683 0.42301 0.58101 0.0
H3592 H 0.87711 0.40611 0.54117 0.0
H3593 H 0.87467 0.40592 0.55512 0.0
H3594 H 0.86042 0.38801 0.53822 0.0
H3595 H 0.85831 0.38769 0.55193 0.0
H3596 H 0.84024 0.37545 0.58507 0.0
H3597 H 0.84246 0.38618 0.60731 0.0
H3598 H 0.85234 0.39458 0.60227 0.0
H3599 H 0.85016 0.38416 0.57998 0.0
C3600 C 0.31633 0.10887 0.32544 0.0
C3601 C 0.31652 0.10564 0.33282 0.0
C3602 C 0.31013 0.117 0.33815 0.0
C3603 C 0.31341 0.10965 0.33911 0.0
C3604 C 0.30995 0.12009 0.33069 0.0
C3605 C 0.31294 0.11606 0.32445 0.0
U3606 U 0.32949 0.09431 0.31464 0.0
O3607 O 0.32786 0.08914 0.30317 0.0
O3608 O 0.33755 0.09688 0.30529 0.0
C3609 C 0.33388 0.09263 0.30027 0.0
C3610 C 0.31988 0.10524 0.31864 0.0
C3611 C 0.33337 0.09562 0.29233 0.0
C3612 C 0.33045 0.10555 0.28292 0.0
C3613 C 0.33004 0.10271 0.29047 0.0
C3614 C 0.33732 0.09416 0.279 0.0
C3615 C 0.33418 0.10133 0.27709 0.0
C3616 C 0.33692 0.09136 0.2865 0.0
C3617 C 0.34025 0.07955 0.32837 0.0
C3618 C 0.35023 0.06989 0.32684 0.0
C3619 C 0.34574 0.07333 0.33952 0.0
C3620 C 0.34059 0.07848 0.3363 0.0
C3621 C 0.35068 0.06894 0.33488 0.0
C3622 C 0.34506 0.07518 0.3236 0.0
C3623 C 0.33509 0.08563 0.3256 0.0
O3624 O 0.32729 0.1063 0.31785 0.0
O3625 O 0.31765 0.09829 0.31679 0.0
O3626 O 0.32899 0.08373 0.32159 0.0
O3627 O 0.33821 0.09215 0.32349 0.0
H3628 H 0.31913 0.10008 0.33372 0.0
H3629 H 0.31358 0.10697 0.3447 0.0
H3630 H 0.30773 0.12577 0.32961 0.0
H3631 H 0.31278 0.11869 0.31883 0.0
H3632 H 0.3279 0.11106 0.28164 0.0
H3633 H 0.32728 0.10611 0.29488 0.0
H3634 H 0.34035 0.0908 0.27475 0.0
H3635 H 0.33959 0.08592 0.2878 0.0
H3636 H 0.35387 0.06657 0.32306 0.0
H3637 H 0.346 0.07301 0.34571 0.0
H3638 H 0.33697 0.08184 0.34008 0.0
H3639 H 0.3449 0.07594 0.31744 0.0
C3640 C 0.63127 0.59146 0.0889 0.0
C3641 C 0.63478 0.59236 0.09608 0.0
C3642 C 0.62741 0.58151 0.10101 0.0
C3643 C 0.63283 0.58741 0.10212 0.0
C3644 C 0.62388 0.58078 0.09381 0.0
C3645 C 0.62578 0.58572 0.08785 0.0
U3646 U 0.64181 0.60692 0.07622 0.0
O3647 O 0.64588 0.60446 0.0645 0.0
O3648 O 0.63651 0.61293 0.06639 0.0
C3649 C 0.64107 0.60943 0.06151 0.0
C3650 C 0.63341 0.59595 0.08212 0.0
C3651 C 0.63986 0.60985 0.0532 0.0
C3652 C 0.6346 0.60507 0.04123 0.0
C3653 C 0.63514 0.60468 0.04924 0.0
C3654 C 0.64339 0.61583 0.04115 0.0
C3655 C 0.63881 0.6106 0.03708 0.0
C3656 C 0.6439 0.61545 0.04912 0.0
C3657 C 0.6568 0.62 0.08831 0.0
C3658 C 0.66681 0.62969 0.08736 0.0
C3659 C 0.66411 0.62364 0.09957 0.0
C3660 C 0.65831 0.61933 0.09616 0.0
C3661 C 0.66851 0.62876 0.0952 0.0
C3662 C 0.66101 0.62528 0.0839 0.0
C3663 C 0.65106 0.61475 0.08504 0.0
O3664 O 0.63109 0.6031 0.08174 0.0
O3665 O 0.64033 0.59484 0.07937 0.0
O3666 O 0.65321 0.60847 0.08147 0.0
O3667 O 0.64405 0.61705 0.08353 0.0
H3668 H 0.63906 0.59677 0.09697 0.0
H3669 H 0.6356 0.58817 0.10762 0.0
H3670 H 0.61981 0.57623 0.09267 0.0
H3671 H 0.62308 0.58492 0.08231 0.0
H3672 H 0.63091 0.60105 0.03828 0.0
H3673 H 0.63196 0.60032 0.05231 0.0
H3674 H 0.64677 0.6201 0.03817 0.0
H3675 H 0.64759 0.61945 0.05211 0.0
H3676 H 0.67017 0.63358 0.08387 0.0
H3677 H 0.66526 0.62285 0.10562 0.0
H3678 H 0.65512 0.6153 0.09964 0.0
H3679 H 0.65992 0.62586 0.07782 0.0
C3680 C 0.69208 0.39969 0.32592 0.0
C3681 C 0.69218 0.40324 0.33316 0.0
C3682 C 0.69836 0.39192 0.33878 0.0
C3683 C 0.69534 0.3994 0.33953 0.0
C3684 C 0.69821 0.3885 0.33146 0.0
C3685 C 0.69519 0.39235 0.32515 0.0
U3686 U 0.67907 0.41417 0.31496 0.0
O3687 O 0.68078 0.41924 0.30345 0.0
O3688 O 0.67099 0.41164 0.30562 0.0
C3689 C 0.67473 0.41579 0.30057 0.0
C3690 C 0.68856 0.4032 0.31906 0.0
C3691 C 0.67529 0.41265 0.29269 0.0
C3692 C 0.67764 0.40227 0.2836 0.0
C3693 C 0.6781 0.40527 0.29109 0.0
C3694 C 0.67184 0.41408 0.27923 0.0
C3695 C 0.67442 0.40663 0.2776 0.0
C3696 C 0.67226 0.41703 0.28668 0.0
C3697 C 0.66846 0.42941 0.3281 0.0
C3698 C 0.65657 0.43666 0.32711 0.0
C3699 C 0.66446 0.43775 0.33848 0.0
C3700 C 0.66975 0.4327 0.3353 0.0
C3701 C 0.65765 0.4396 0.33458 0.0
C3702 C 0.66194 0.43157 0.3239 0.0
C3703 C 0.67359 0.42311 0.32577 0.0
O3704 O 0.68114 0.40221 0.3183 0.0
O3705 O 0.69086 0.41009 0.31707 0.0
O3706 O 0.67981 0.42479 0.32186 0.0
O3707 O 0.67038 0.41661 0.32374 0.0
H3708 H 0.68979 0.40892 0.3339 0.0
H3709 H 0.6954 0.40232 0.34501 0.0
H3710 H 0.70023 0.38271 0.33056 0.0
H3711 H 0.69512 0.38949 0.31963 0.0
H3712 H 0.67972 0.39653 0.28251 0.0
H3713 H 0.68045 0.40176 0.29564 0.0
H3714 H 0.66923 0.41755 0.2748 0.0
H3715 H 0.66998 0.4227 0.28779 0.0
H3716 H 0.65142 0.43796 0.32392 0.0
H3717 H 0.66565 0.44007 0.34411 0.0
H3718 H 0.67475 0.43111 0.33862 0.0
H3719 H 0.66084 0.42909 0.31831 0.0
C3720 C 0.13065 0.91726 0.92205 0.0
C3721 C 0.13362 0.91606 0.91465 0.0
C3722 C 0.12662 0.9272 0.90996 0.0
C3723 C 0.13157 0.92099 0.90862 0.0
C3724 C 0.12354 0.92825 0.91731 0.0
C3725 C 0.1255 0.9233 0.92328 0.0
U3726 U 0.14248 0.90133 0.93193 0.0
O3727 O 0.14849 0.90169 0.94304 0.0
O3728 O 0.13911 0.89345 0.94124 0.0
C3729 C 0.1443 0.89617 0.94598 0.0
C3730 C 0.13305 0.91263 0.92871 0.0
C3731 C 0.14235 0.89669 0.95421 0.0
C3732 C 0.13557 0.90205 0.96523 0.0
C3733 C 0.13696 0.90186 0.95726 0.0
C3734 C 0.14497 0.89202 0.96705 0.0
C3735 C 0.13956 0.89709 0.97023 0.0
C3736 C 0.1463 0.89181 0.95918 0.0
C3737 C 0.15625 0.88963 0.91836 0.0
C3738 C 0.16722 0.88141 0.9209 0.0
C3739 C 0.16282 0.88329 0.90787 0.0
C3740 C 0.15698 0.88803 0.91054 0.0
C3741 C 0.16808 0.87997 0.91299 0.0
C3742 C 0.16134 0.88622 0.92358 0.0
C3743 C 0.15044 0.89533 0.92062 0.0
O3744 O 0.13095 0.9054 0.92876 0.0
O3745 O 0.14014 0.91367 0.93105 0.0
O3746 O 0.1528 0.90122 0.92468 0.0
O3747 O 0.14366 0.89277 0.92269 0.0
H3748 H 0.13763 0.91144 0.91358 0.0
H3749 H 0.13407 0.92013 0.90299 0.0
H3750 H 0.11972 0.93301 0.91847 0.0
H3751 H 0.12314 0.92431 0.92894 0.0
H3752 H 0.13134 0.90601 0.96745 0.0
H3753 H 0.13385 0.90571 0.95351 0.0
H3754 H 0.14834 0.88826 0.97066 0.0
H3755 H 0.15052 0.88783 0.95696 0.0
H3756 H 0.17112 0.87888 0.92501 0.0
H3757 H 0.16338 0.88248 0.90174 0.0
H3758 H 0.15315 0.89067 0.90642 0.0
H3759 H 0.16086 0.8874 0.92966 0.0
C3760 C 0.31598 0.89959 0.18264 0.0
C3761 C 0.31769 0.90187 0.17509 0.0
C3762 C 0.30987 0.89135 0.17004 0.0
C3763 C 0.31462 0.89779 0.16883 0.0
C3764 C 0.30795 0.88937 0.17761 0.0
C3765 C 0.31098 0.89343 0.18381 0.0
U3766 U 0.32934 0.91389 0.19357 0.0
O3767 O 0.32779 0.9187 0.2052 0.0
O3768 O 0.33755 0.91113 0.20274 0.0
C3769 C 0.33392 0.91524 0.2079 0.0
C3770 C 0.31971 0.90301 0.18944 0.0
C3771 C 0.33373 0.91223 0.21585 0.0
C3772 C 0.32951 0.9034 0.22587 0.0
C3773 C 0.32904 0.90613 0.21826 0.0
C3774 C 0.33932 0.9128 0.22861 0.0
C3775 C 0.3347 0.9067 0.23117 0.0
C3776 C 0.3388 0.91554 0.22111 0.0
C3777 C 0.33998 0.92923 0.18044 0.0
C3778 C 0.35187 0.93655 0.18138 0.0
C3779 C 0.34419 0.93722 0.16985 0.0
C3780 C 0.33883 0.93228 0.17311 0.0
C3781 C 0.35094 0.93921 0.1738 0.0
C3782 C 0.34644 0.93155 0.18468 0.0
C3783 C 0.3348 0.92297 0.18284 0.0
O3784 O 0.32715 0.90201 0.19 0.0
O3785 O 0.31748 0.90989 0.19157 0.0
O3786 O 0.32867 0.92466 0.18689 0.0
O3787 O 0.33795 0.9164 0.18472 0.0
H3788 H 0.32155 0.90662 0.17405 0.0
H3789 H 0.31622 0.89948 0.16308 0.0
H3790 H 0.30419 0.88457 0.17877 0.0
H3791 H 0.30956 0.8916 0.18958 0.0
H3792 H 0.3258 0.89873 0.22759 0.0
H3793 H 0.32509 0.90346 0.21428 0.0
H3794 H 0.34355 0.9154 0.23232 0.0
H3795 H 0.34251 0.9202 0.21937 0.0
H3796 H 0.35696 0.93799 0.18462 0.0
H3797 H 0.34313 0.93931 0.1641 0.0
H3798 H 0.33389 0.93057 0.16975 0.0
H3799 H 0.34744 0.92926 0.19036 0.0
C3800 C 0.19248 0.10821 0.68286 0.0
C3801 C 0.1908 0.10593 0.67531 0.0
C3802 C 0.19853 0.11651 0.67027 0.0
C3803 C 0.19384 0.11003 0.66905 0.0
C3804 C 0.20043 0.1185 0.67785 0.0
C3805 C 0.19743 0.11441 0.68404 0.0
U3806 U 0.1789 0.09406 0.69368 0.0
O3807 O 0.18041 0.08887 0.70516 0.0
O3808 O 0.1709 0.09683 0.70304 0.0
C3809 C 0.17449 0.09253 0.70807 0.0
C3810 C 0.18878 0.10475 0.68967 0.0
C3811 C 0.17513 0.09558 0.71598 0.0
C3812 C 0.17749 0.1059 0.72513 0.0
C3813 C 0.17795 0.10295 0.71762 0.0
C3814 C 0.17168 0.09408 0.72944 0.0
C3815 C 0.17423 0.10154 0.73111 0.0
C3816 C 0.17211 0.09116 0.72198 0.0
C3817 C 0.16782 0.07939 0.68013 0.0
C3818 C 0.15747 0.07014 0.68182 0.0
C3819 C 0.16248 0.07275 0.66913 0.0
C3820 C 0.16767 0.07795 0.67224 0.0
C3821 C 0.15728 0.06877 0.67384 0.0
C3822 C 0.16272 0.07542 0.68495 0.0
C3823 C 0.17311 0.08542 0.68277 0.0
O3824 O 0.18138 0.10596 0.69039 0.0
O3825 O 0.19084 0.09777 0.6916 0.0
O3826 O 0.1792 0.08345 0.68675 0.0
O3827 O 0.17013 0.09201 0.68486 0.0
H3828 H 0.18698 0.10114 0.67426 0.0
H3829 H 0.19225 0.10833 0.66329 0.0
H3830 H 0.20416 0.12332 0.67903 0.0
H3831 H 0.19882 0.11625 0.68981 0.0
H3832 H 0.17958 0.11164 0.72623 0.0
H3833 H 0.1803 0.10648 0.71309 0.0
H3834 H 0.16904 0.09059 0.73384 0.0
H3835 H 0.16983 0.0855 0.72084 0.0
H3836 H 0.15358 0.06713 0.68561 0.0
H3837 H 0.16241 0.07202 0.66297 0.0
H3838 H 0.1715 0.081 0.66841 0.0
H3839 H 0.16274 0.07648 0.69107 0.0
C3840 C 0.11626 0.21819 0.35163 0.0
N3841 N 0.1202 0.21289 0.35569 0.0
N3842 N 0.12059 0.2245 0.35039 0.0
C3843 C 0.10819 0.21723 0.34873 0.0
C3844 C 0.12735 0.22284 0.35382 0.0
N3845 N 0.12714 0.21578 0.35703 0.0
C3846 C 0.13395 0.22834 0.35446 0.0
H3847 H 0.10686 0.21109 0.34773 0.0
H3848 H 0.10738 0.22049 0.34333 0.0
H3849 H 0.10413 0.21952 0.35306 0.0
H3850 H 0.13262 0.23266 0.35893 0.0
H3851 H 0.13479 0.23141 0.34895 0.0
H3852 H 0.13934 0.22534 0.35601 0.0
C3853 C 0.03318 0.8739 0.61229 0.0
N3854 N 0.03994 0.87193 0.61565 0.0
N3855 N 0.02794 0.86821 0.61297 0.0
C3856 C 0.03164 0.88135 0.60824 0.0
C3857 C 0.03179 0.86262 0.61674 0.0
N3858 N 0.03908 0.86482 0.61828 0.0
C3859 C 0.02837 0.85504 0.61904 0.0
H3860 H 0.0287 0.88534 0.61223 0.0
H3861 H 0.0278 0.88041 0.60326 0.0
H3862 H 0.03704 0.88402 0.60618 0.0
H3863 H 0.02971 0.85077 0.61452 0.0
H3864 H 0.02205 0.85535 0.61961 0.0
H3865 H 0.03087 0.85296 0.62451 0.0
C3866 C 0.38205 0.78536 0.85327 0.0
N3867 N 0.38248 0.79241 0.85644 0.0
N3868 N 0.38863 0.78362 0.84958 0.0
C3869 C 0.37534 0.78002 0.85411 0.0
C3870 C 0.39312 0.78985 0.85067 0.0
N3871 N 0.38941 0.79521 0.8549 0.0
C3872 C 0.40124 0.79053 0.84784 0.0
H3873 H 0.37589 0.77686 0.8596 0.0
H3874 H 0.3752 0.77581 0.84934 0.0
H3875 H 0.36989 0.7833 0.85425 0.0
H3876 H 0.40187 0.78765 0.8422 0.0
H3877 H 0.40512 0.78764 0.85196 0.0
H3878 H 0.40297 0.79662 0.84727 0.0
C3879 C 0.47466 0.13466 0.11232 0.0
N3880 N 0.46781 0.13658 0.11542 0.0
N3881 N 0.48005 0.14013 0.11374 0.0
C3882 C 0.47578 0.12784 0.10715 0.0
C3883 C 0.47604 0.14559 0.11764 0.0
N3884 N 0.46864 0.14344 0.11858 0.0
C3885 C 0.47944 0.1527 0.1212 0.0
H3886 H 0.47723 0.12273 0.11063 0.0
H3887 H 0.48044 0.1289 0.10296 0.0
H3888 H 0.47039 0.12656 0.104 0.0
H3889 H 0.47991 0.15722 0.11674 0.0
H3890 H 0.48522 0.15153 0.12356 0.0
H3891 H 0.47583 0.15499 0.12589 0.0
C3892 C 0.11591 0.78919 0.15666 0.0
N3893 N 0.12013 0.7944 0.15273 0.0
N3894 N 0.12025 0.78312 0.15874 0.0
C3895 C 0.10744 0.7899 0.15818 0.0
C3896 C 0.12728 0.7848 0.15589 0.0
N3897 N 0.12721 0.7916 0.15208 0.0
C3898 C 0.13423 0.77986 0.15712 0.0
H3899 H 0.10654 0.7939 0.16304 0.0
H3900 H 0.1048 0.78433 0.15971 0.0
H3901 H 0.10448 0.79232 0.15309 0.0
H3902 H 0.13424 0.77514 0.15287 0.0
H3903 H 0.13406 0.77724 0.16291 0.0
H3904 H 0.1396 0.78322 0.15656 0.0
C3905 C 0.4753 0.87369 0.39571 0.0
N3906 N 0.46845 0.87135 0.39293 0.0
N3907 N 0.48053 0.86798 0.39526 0.0
C3908 C 0.47708 0.88168 0.39842 0.0
C3909 C 0.47655 0.86204 0.39219 0.0
N3910 N 0.46921 0.86409 0.39074 0.0
C3911 C 0.47996 0.85438 0.39017 0.0
H3912 H 0.48142 0.8843 0.39456 0.0
H3913 H 0.4796 0.88144 0.40425 0.0
H3914 H 0.47191 0.88537 0.39861 0.0
H3915 H 0.4767 0.84977 0.39308 0.0
H3916 H 0.48604 0.8539 0.39197 0.0
H3917 H 0.4795 0.85342 0.3839 0.0
C3918 C 0.38153 0.22373 0.6553 0.0
N3919 N 0.38166 0.21674 0.65185 0.0
N3920 N 0.38838 0.22531 0.65863 0.0
C3921 C 0.37473 0.22904 0.65548 0.0
C3922 C 0.39263 0.21895 0.65723 0.0
N3923 N 0.38855 0.21372 0.65317 0.0
C3924 C 0.40099 0.21816 0.65928 0.0
H3925 H 0.37605 0.23426 0.6521 0.0
H3926 H 0.37356 0.23085 0.66145 0.0
H3927 H 0.36945 0.22631 0.65326 0.0
H3928 H 0.40252 0.22202 0.6641 0.0
H3929 H 0.40452 0.21969 0.65422 0.0
H3930 H 0.40244 0.21222 0.66093 0.0
C3931 C 0.03268 0.13458 0.89581 0.0
N3932 N 0.03958 0.1368 0.89299 0.0
N3933 N 0.02757 0.14043 0.89551 0.0
C3934 C 0.03081 0.12666 0.89867 0.0
C3935 C 0.03171 0.14632 0.89255 0.0
N3936 N 0.03899 0.14413 0.89102 0.0
C3937 C 0.02855 0.15413 0.89076 0.0
H3938 H 0.02626 0.1241 0.89503 0.0
H3939 H 0.02856 0.12703 0.9046 0.0
H3940 H 0.03588 0.12284 0.89877 0.0
H3941 H 0.02317 0.15524 0.89398 0.0
H3942 H 0.0274 0.15454 0.88452 0.0
H3943 H 0.03281 0.15861 0.89225 0.0
C3944 C 0.35234 0.12726 0.22291 0.0
N3945 N 0.35634 0.12696 0.21623 0.0
N3946 N 0.35002 0.12017 0.22515 0.0
C3947 C 0.34972 0.1346 0.22662 0.0
C3948 C 0.35254 0.11555 0.2194 0.0
N3949 N 0.3563 0.11967 0.21399 0.0
C3950 C 0.35166 0.10698 0.21918 0.0
H3951 H 0.35385 0.13638 0.23111 0.0
H3952 H 0.34403 0.13379 0.22936 0.0
H3953 H 0.34932 0.13926 0.22232 0.0
H3954 H 0.34583 0.10555 0.21707 0.0
H3955 H 0.35238 0.1045 0.22498 0.0
H3956 H 0.35588 0.10427 0.21525 0.0
C3957 C 0.13491 0.11239 0.47579 0.0
N3958 N 0.13707 0.1154 0.46894 0.0
N3959 N 0.14072 0.11281 0.48094 0.0
C3960 C 0.12708 0.10921 0.47756 0.0
C3961 C 0.14654 0.116 0.47688 0.0
N3962 N 0.14434 0.11756 0.46961 0.0
C3963 C 0.15425 0.11806 0.48015 0.0
H3964 H 0.12391 0.11335 0.4812 0.0
H3965 H 0.12758 0.10378 0.48079 0.0
H3966 H 0.12374 0.10804 0.47228 0.0
H3967 H 0.15538 0.11491 0.48555 0.0
H3968 H 0.15443 0.12431 0.48129 0.0
H3969 H 0.15885 0.11672 0.47597 0.0
C3970 C 0.15491 0.8813 0.72357 0.0
N3971 N 0.15157 0.88151 0.71656 0.0
N3972 N 0.15794 0.88823 0.72546 0.0
C3973 C 0.15582 0.8741 0.72823 0.0
C3974 C 0.15641 0.89262 0.71919 0.0
N3975 N 0.15263 0.88851 0.71379 0.0
C3976 C 0.15807 0.90106 0.71854 0.0
H3977 H 0.15074 0.87334 0.73197 0.0
H3978 H 0.16103 0.8744 0.73186 0.0
H3979 H 0.15622 0.86903 0.7244 0.0
H3980 H 0.16409 0.90183 0.71664 0.0
H3981 H 0.15734 0.90394 0.72417 0.0
H3982 H 0.15429 0.90387 0.71428 0.0
C3983 C 0.3635 0.89125 0.97736 0.0
N3984 N 0.36543 0.88948 0.97005 0.0
N3985 N 0.36928 0.89498 0.98095 0.0
C3986 C 0.35583 0.88964 0.98098 0.0
C3987 C 0.37477 0.89558 0.97547 0.0
N3988 N 0.37241 0.89229 0.96881 0.0
C3989 C 0.3827 0.89863 0.97696 0.0
H3990 H 0.35445 0.89411 0.9853 0.0
H3991 H 0.35602 0.88403 0.98394 0.0
H3992 H 0.35124 0.88947 0.97657 0.0
H3993 H 0.38544 0.89518 0.98154 0.0
H3994 H 0.38227 0.90461 0.97908 0.0
H3995 H 0.38637 0.8985 0.97177 0.0
C3996 C 0.35347 0.88117 0.28493 0.0
N3997 N 0.35686 0.8813 0.29196 0.0
N3998 N 0.34984 0.88791 0.28346 0.0
C3999 C 0.35345 0.8744 0.27957 0.0
C4000 C 0.35102 0.89205 0.28995 0.0
N4001 N 0.35523 0.88806 0.29508 0.0
C4002 C 0.34795 0.89997 0.29139 0.0
H4003 H 0.35525 0.87623 0.27375 0.0
H4004 H 0.34753 0.87211 0.27917 0.0
H4005 H 0.35713 0.86964 0.28155 0.0
H4006 H 0.34288 0.90117 0.28774 0.0
H4007 H 0.3525 0.90423 0.29012 0.0
H4008 H 0.34634 0.90063 0.29751 0.0
C4009 C 0.36223 0.11653 0.53114 0.0
N4010 N 0.36414 0.11812 0.53849 0.0
N4011 N 0.36803 0.11294 0.52744 0.0
C4012 C 0.35468 0.11858 0.52752 0.0
C4013 C 0.37356 0.11233 0.53285 0.0
N4014 N 0.37122 0.11549 0.53957 0.0
C4015 C 0.38142 0.10909 0.5314 0.0
H4016 H 0.35324 0.11446 0.5229 0.0
H4017 H 0.35509 0.12439 0.52497 0.0
H4018 H 0.35004 0.11862 0.53188 0.0
H4019 H 0.3849 0.11339 0.52826 0.0
H4020 H 0.38103 0.10389 0.52778 0.0
H4021 H 0.38436 0.1076 0.53684 0.0
C4022 C 0.15562 0.12694 0.78536 0.0
N4023 N 0.15161 0.12654 0.79205 0.0
N4024 N 0.15826 0.11993 0.7832 0.0
C4025 C 0.15808 0.1343 0.7816 0.0
C4026 C 0.15594 0.11527 0.78897 0.0
N4027 N 0.15199 0.11926 0.79434 0.0
C4028 C 0.15736 0.10676 0.7893 0.0
H4029 H 0.15408 0.13577 0.77689 0.0
H4030 H 0.1639 0.13366 0.7791 0.0
H4031 H 0.15814 0.13908 0.7858 0.0
H4032 H 0.16328 0.10574 0.79137 0.0
H4033 H 0.15677 0.10417 0.78353 0.0
H4034 H 0.15336 0.10383 0.79328 0.0
C4035 C 0.13466 0.89566 0.03297 0.0
N4036 N 0.13711 0.89275 0.03975 0.0
N4037 N 0.14022 0.89509 0.02756 0.0
C4038 C 0.12666 0.89845 0.0314 0.0
C4039 C 0.14612 0.89175 0.03134 0.0
N4040 N 0.14423 0.89026 0.03871 0.0
C4041 C 0.15375 0.88991 0.02779 0.0
H4042 H 0.1238 0.89447 0.02735 0.0
H4043 H 0.12691 0.90416 0.02863 0.0
H4044 H 0.1232 0.8989 0.03672 0.0
H4045 H 0.15504 0.89393 0.02303 0.0
H4046 H 0.15362 0.884 0.02544 0.0
H4047 H 0.15837 0.89022 0.03215 0.0
C4048 C 0.22305 0.35353 0.12713 0.0
N4049 N 0.21608 0.35691 0.12694 0.0
N4050 N 0.22493 0.35067 0.12016 0.0
C4051 C 0.22795 0.35297 0.1342 0.0
C4052 C 0.21879 0.35239 0.11571 0.0
N4053 N 0.21335 0.35615 0.11984 0.0
C4054 C 0.21852 0.35126 0.10715 0.0
H4055 H 0.23116 0.3584 0.13495 0.0
H4056 H 0.23208 0.34816 0.13374 0.0
H4057 H 0.2243 0.35212 0.13935 0.0
H4058 H 0.21613 0.34551 0.1059 0.0
H4059 H 0.22435 0.35159 0.10462 0.0
H4060 H 0.21486 0.35564 0.10436 0.0
C4061 C 0.72332 0.15591 0.88109 0.0
N4062 N 0.71642 0.15229 0.88135 0.0
N4063 N 0.72498 0.15924 0.88791 0.0
C4064 C 0.72855 0.15614 0.87424 0.0
C4065 C 0.71884 0.15755 0.89233 0.0
N4066 N 0.7136 0.15342 0.88836 0.0
C4067 C 0.71813 0.15969 0.90065 0.0
H4068 H 0.73295 0.15159 0.87482 0.0
H4069 H 0.73155 0.16174 0.87397 0.0
H4070 H 0.7253 0.15523 0.86885 0.0
H4071 H 0.72145 0.16497 0.9019 0.0
H4072 H 0.72046 0.15496 0.9042 0.0
H4073 H 0.71203 0.16056 0.90224 0.0
C4074 C 0.11693 0.4759 0.14579 0.0
N4075 N 0.11834 0.46858 0.14368 0.0
N4076 N 0.11385 0.47993 0.13992 0.0
C4077 C 0.11898 0.4792 0.1535 0.0
C4078 C 0.11334 0.47473 0.13416 0.0
N4079 N 0.11611 0.46784 0.13643 0.0
C4080 C 0.11066 0.47657 0.12618 0.0
H4081 H 0.11699 0.4753 0.15811 0.0
H4082 H 0.11634 0.48491 0.15439 0.0
H4083 H 0.1253 0.47968 0.15397 0.0
H4084 H 0.11364 0.48177 0.12405 0.0
H4085 H 0.10443 0.47786 0.12636 0.0
H4086 H 0.11164 0.47176 0.12215 0.0
C4087 C 0.7855 0.85299 0.38093 0.0
N4088 N 0.7925 0.8563 0.38127 0.0
N4089 N 0.78337 0.85034 0.38785 0.0
C4090 C 0.7805 0.85284 0.3739 0.0
C4091 C 0.78926 0.85226 0.39253 0.0
N4092 N 0.79503 0.85575 0.38851 0.0
C4093 C 0.78858 0.85198 0.40115 0.0
H4094 H 0.77779 0.85854 0.37317 0.0
H4095 H 0.77593 0.84844 0.3744 0.0
H4096 H 0.784 0.85165 0.36872 0.0
H4097 H 0.79055 0.84631 0.40323 0.0
H4098 H 0.78252 0.85263 0.40297 0.0
H4099 H 0.79195 0.85661 0.40391 0.0
C4100 C 0.8954 0.03349 0.13422 0.0
N4101 N 0.89205 0.04011 0.1366 0.0
N4102 N 0.89493 0.02803 0.13973 0.0
C4103 C 0.89902 0.03233 0.12646 0.0
C4104 C 0.8912 0.03155 0.14555 0.0
N4105 N 0.88933 0.03883 0.14362 0.0
C4106 C 0.88931 0.02778 0.15309 0.0
H4107 H 0.89543 0.03499 0.12194 0.0
H4108 H 0.89995 0.0262 0.12512 0.0
H4109 H 0.90471 0.03517 0.1264 0.0
H4110 H 0.89464 0.02561 0.15578 0.0
H4111 H 0.88549 0.0228 0.15208 0.0
H4112 H 0.8866 0.03176 0.15723 0.0
C4113 C 0.28491 0.65495 0.62724 0.0
N4114 N 0.29194 0.65165 0.62686 0.0
N4115 N 0.28309 0.65832 0.62048 0.0
C4116 C 0.27959 0.6543 0.63398 0.0
C4117 C 0.28928 0.65692 0.61599 0.0
N4118 N 0.29466 0.65283 0.61983 0.0
C4119 C 0.29012 0.65985 0.60792 0.0
H4120 H 0.27608 0.64904 0.63333 0.0
H4121 H 0.27567 0.65929 0.63428 0.0
H4122 H 0.28287 0.65386 0.63941 0.0
H4123 H 0.28686 0.66525 0.60718 0.0
H4124 H 0.28777 0.65555 0.60387 0.0
H4125 H 0.29624 0.66086 0.6065 0.0
C4126 C 0.11855 0.53079 0.36378 0.0
N4127 N 0.11973 0.53825 0.36563 0.0
N4128 N 0.11406 0.5273 0.36908 0.0
C4129 C 0.12252 0.52671 0.35727 0.0
C4130 C 0.11257 0.53294 0.37423 0.0
N4131 N 0.11613 0.53958 0.37223 0.0
C4132 C 0.10699 0.53216 0.38077 0.0
H4133 H 0.11868 0.52668 0.3522 0.0
H4134 H 0.12385 0.5207 0.35882 0.0
H4135 H 0.12794 0.52962 0.35566 0.0
H4136 H 0.11006 0.53012 0.38595 0.0
H4137 H 0.10247 0.52792 0.37934 0.0
H4138 H 0.10428 0.53776 0.38211 0.0
C4139 C 0.39566 0.47436 0.87398 0.0
N4140 N 0.39223 0.46771 0.87189 0.0
N4141 N 0.39526 0.47963 0.86827 0.0
C4142 C 0.39978 0.4755 0.88146 0.0
C4143 C 0.39161 0.47581 0.86254 0.0
N4144 N 0.38958 0.46864 0.8648 0.0
C4145 C 0.39045 0.4789 0.85455 0.0
H4146 H 0.39554 0.47676 0.88603 0.0
H4147 H 0.40395 0.48029 0.88108 0.0
H4148 H 0.40285 0.47017 0.88309 0.0
H4149 H 0.39613 0.47968 0.8518 0.0
H4150 H 0.38752 0.48454 0.85478 0.0
H4151 H 0.38722 0.47496 0.85078 0.0
C4152 C 0.88052 0.78457 0.6542 0.0
N4153 N 0.88089 0.79152 0.65079 0.0
N4154 N 0.887 0.78313 0.65822 0.0
C4155 C 0.8739 0.77909 0.65355 0.0
C4156 C 0.89136 0.78945 0.65706 0.0
N4157 N 0.88763 0.79459 0.65259 0.0
C4158 C 0.8996 0.79008 0.65952 0.0
H4159 H 0.87077 0.77901 0.65909 0.0
H4160 H 0.87601 0.77319 0.65247 0.0
H4161 H 0.86985 0.78076 0.64894 0.0
H4162 H 0.90321 0.78674 0.65548 0.0
H4163 H 0.90032 0.78757 0.66531 0.0
H4164 H 0.90163 0.79609 0.65956 0.0
C4165 C 0.9753 0.13408 0.39481 0.0
N4166 N 0.96867 0.13652 0.39163 0.0
N4167 N 0.98079 0.13954 0.39428 0.0
C4168 C 0.97644 0.12628 0.39827 0.0
C4169 C 0.97726 0.14539 0.3906 0.0
N4170 N 0.96988 0.14357 0.38899 0.0
C4171 C 0.98127 0.15253 0.38784 0.0
H4172 H 0.9724 0.12558 0.40314 0.0
H4173 H 0.98239 0.12546 0.40036 0.0
H4174 H 0.97503 0.12181 0.39398 0.0
H4175 H 0.9794 0.15398 0.38194 0.0
H4176 H 0.98759 0.1519 0.38792 0.0
H4177 H 0.9797 0.15737 0.39165 0.0
C4178 C 0.61649 0.21899 0.15768 0.0
N4179 N 0.62058 0.21386 0.15349 0.0
N4180 N 0.6208 0.22522 0.15939 0.0
C4181 C 0.60809 0.21825 0.15953 0.0
C4182 C 0.62761 0.22377 0.15599 0.0
N4183 N 0.62749 0.21691 0.15236 0.0
C4184 C 0.63429 0.22922 0.15606 0.0
H4185 H 0.60496 0.21559 0.15467 0.0
H4186 H 0.60547 0.22387 0.1609 0.0
H4187 H 0.60743 0.21449 0.16461 0.0
H4188 H 0.63447 0.23242 0.16155 0.0
H4189 H 0.63359 0.23343 0.15135 0.0
H4190 H 0.63979 0.22612 0.15524 0.0
C4191 C 0.53288 0.8741 0.89453 0.0
N4192 N 0.53957 0.87154 0.89142 0.0
N4193 N 0.52737 0.86863 0.89415 0.0
C4194 C 0.53165 0.88201 0.89778 0.0
C4195 C 0.53092 0.86265 0.89071 0.0
N4196 N 0.53828 0.86444 0.88893 0.0
C4197 C 0.52709 0.85513 0.8889 0.0
H4198 H 0.53393 0.88219 0.90371 0.0
H4199 H 0.52551 0.88355 0.8981 0.0
H4200 H 0.53473 0.88635 0.8943 0.0
H4201 H 0.52255 0.85607 0.88454 0.0
H4202 H 0.52429 0.85282 0.89411 0.0
H4203 H 0.5312 0.85077 0.88679 0.0
C4204 C 0.88046 0.22319 0.85403 0.0
N4205 N 0.88103 0.21628 0.85751 0.0
N4206 N 0.88712 0.22507 0.85047 0.0
C4207 C 0.87348 0.22826 0.85436 0.0
C4208 C 0.89178 0.21905 0.85199 0.0
N4209 N 0.8881 0.21374 0.8563 0.0
C4210 C 0.90001 0.21855 0.8495 0.0
H4211 H 0.86926 0.22617 0.85008 0.0
H4212 H 0.87487 0.2343 0.85298 0.0
H4213 H 0.87076 0.22795 0.8601 0.0
H4214 H 0.90365 0.22157 0.85375 0.0
H4215 H 0.90081 0.22136 0.84385 0.0
H4216 H 0.90191 0.21249 0.84911 0.0
C4217 C 0.5332 0.13591 0.61214 0.0
N4218 N 0.5398 0.13787 0.61573 0.0
N4219 N 0.52768 0.14125 0.61334 0.0
C4220 C 0.53233 0.12907 0.60696 0.0
C4221 C 0.53125 0.14664 0.61766 0.0
N4222 N 0.5386 0.14461 0.61907 0.0
C4223 C 0.52744 0.15368 0.62091 0.0
H4224 H 0.52792 0.13017 0.60251 0.0
H4225 H 0.53052 0.12401 0.61036 0.0
H4226 H 0.53787 0.12769 0.60415 0.0
H4227 H 0.52171 0.15221 0.62325 0.0
H4228 H 0.52666 0.15793 0.61625 0.0
H4229 H 0.5309 0.15642 0.62548 0.0
C4230 C 0.61626 0.78941 0.35077 0.0
N4231 N 0.62019 0.79464 0.35492 0.0
N4232 N 0.62064 0.78318 0.34929 0.0
C4233 C 0.60796 0.79015 0.3486 0.0
C4234 C 0.62737 0.78478 0.3528 0.0
N4235 N 0.6271 0.79174 0.35622 0.0
C4236 C 0.63391 0.77922 0.35348 0.0
H4237 H 0.60436 0.78801 0.3534 0.0
H4238 H 0.60668 0.78669 0.34341 0.0
H4239 H 0.60647 0.79624 0.34756 0.0
H4240 H 0.63496 0.77645 0.34785 0.0
H4241 H 0.63233 0.77466 0.35762 0.0
H4242 H 0.63923 0.78209 0.35546 0.0
C4243 C 0.97545 0.87288 0.11293 0.0
N4244 N 0.96885 0.87044 0.1162 0.0
N4245 N 0.98093 0.86743 0.11342 0.0
C4246 C 0.97671 0.8807 0.10953 0.0
C4247 C 0.97747 0.86163 0.11722 0.0
N4248 N 0.97013 0.86346 0.11893 0.0
C4249 C 0.98149 0.85449 0.11984 0.0
H4250 H 0.97767 0.88007 0.10327 0.0
H4251 H 0.98194 0.88334 0.11199 0.0
H4252 H 0.97174 0.88456 0.11046 0.0
H4253 H 0.98456 0.85572 0.12527 0.0
H4254 H 0.98577 0.85265 0.11551 0.0
H4255 H 0.97733 0.84978 0.12086 0.0
C4256 C 0.65459 0.88015 0.78495 0.0
N4257 N 0.65129 0.88067 0.79195 0.0
N4258 N 0.65829 0.88673 0.78312 0.0
C4259 C 0.6542 0.87324 0.77981 0.0
C4260 C 0.65709 0.89129 0.7893 0.0
N4261 N 0.65281 0.88762 0.79466 0.0
C4262 C 0.65977 0.89946 0.78989 0.0
H4263 H 0.65989 0.87223 0.77716 0.0
H4264 H 0.65003 0.87432 0.77513 0.0
H4265 H 0.65238 0.86806 0.78301 0.0
H4266 H 0.65573 0.9032 0.78672 0.0
H4267 H 0.66552 0.90012 0.78727 0.0
H4268 H 0.66002 0.90137 0.79596 0.0
C4269 C 0.87407 0.89433 0.53327 0.0
N4270 N 0.87151 0.89108 0.53986 0.0
N4271 N 0.8685 0.89435 0.52788 0.0
C4272 C 0.88216 0.897 0.53189 0.0
C4273 C 0.86249 0.89095 0.53138 0.0
N4274 N 0.86432 0.88881 0.53861 0.0
C4275 C 0.85481 0.88977 0.52762 0.0
H4276 H 0.8828 0.90288 0.5342 0.0
H4277 H 0.88356 0.89716 0.52569 0.0
H4278 H 0.88631 0.89323 0.53489 0.0
H4279 H 0.85503 0.88455 0.52399 0.0
H4280 H 0.85345 0.89469 0.52384 0.0
H4281 H 0.85019 0.88913 0.53195 0.0
C4282 C 0.85315 0.12696 0.28471 0.0
N4283 N 0.85674 0.12652 0.29157 0.0
N4284 N 0.85017 0.1201 0.28268 0.0
C4285 C 0.85222 0.13423 0.28016 0.0
C4286 C 0.85196 0.11546 0.28866 0.0
N4287 N 0.85592 0.11938 0.29412 0.0
C4288 C 0.85066 0.10693 0.28873 0.0
H4289 H 0.8469 0.13404 0.27668 0.0
H4290 H 0.85717 0.13494 0.27623 0.0
H4291 H 0.85203 0.13928 0.28403 0.0
H4292 H 0.85512 0.10395 0.29214 0.0
H4293 H 0.8507 0.10455 0.28283 0.0
H4294 H 0.84497 0.10573 0.29132 0.0
C4295 C 0.63561 0.11229 0.03282 0.0
N4296 N 0.638 0.11576 0.03933 0.0
N4297 N 0.64118 0.11238 0.02744 0.0
C4298 C 0.62766 0.10924 0.03148 0.0
C4299 C 0.64706 0.11603 0.03092 0.0
N4300 N 0.64512 0.11824 0.03812 0.0
C4301 C 0.65461 0.11764 0.02709 0.0
H4302 H 0.62781 0.10443 0.02732 0.0
H4303 H 0.62404 0.11386 0.02904 0.0
H4304 H 0.62503 0.10728 0.03694 0.0
H4305 H 0.65402 0.12271 0.0233 0.0
H4306 H 0.6563 0.1127 0.02345 0.0
H4307 H 0.65918 0.11874 0.03138 0.0
C4308 C 0.65417 0.12743 0.72427 0.0
N4309 N 0.65094 0.1274 0.71718 0.0
N4310 N 0.65814 0.12086 0.72554 0.0
C4311 C 0.65276 0.1335 0.73026 0.0
C4312 C 0.65724 0.11687 0.71893 0.0
N4313 N 0.65288 0.1208 0.71388 0.0
C4314 C 0.6606 0.10909 0.71735 0.0
H4315 H 0.65744 0.13779 0.72997 0.0
H4316 H 0.65271 0.13099 0.7361 0.0
H4317 H 0.64722 0.13646 0.72928 0.0
H4318 H 0.65618 0.10465 0.71845 0.0
H4319 H 0.66565 0.10798 0.72105 0.0
H4320 H 0.66233 0.10863 0.71124 0.0
C4321 C 0.635 0.8952 0.47655 0.0
N4322 N 0.63744 0.89187 0.46999 0.0
N4323 N 0.64038 0.89462 0.48209 0.0
C4324 C 0.62741 0.8992 0.47747 0.0
C4325 C 0.64618 0.89073 0.47868 0.0
N4326 N 0.64442 0.88904 0.47129 0.0
C4327 C 0.65322 0.88796 0.48283 0.0
H4328 H 0.62778 0.9049 0.47467 0.0
H4329 H 0.6259 0.90007 0.48358 0.0
H4330 H 0.62276 0.89596 0.4746 0.0
H4331 H 0.65489 0.88217 0.48082 0.0
H4332 H 0.65233 0.88779 0.48912 0.0
H4333 H 0.65802 0.89196 0.48163 0.0
C4334 C 0.85385 0.88045 0.22391 0.0
N4335 N 0.8575 0.88058 0.21702 0.0
N4336 N 0.84993 0.88708 0.2251 0.0
C4337 C 0.85396 0.87385 0.22946 0.0
C4338 C 0.85121 0.89113 0.21859 0.0
N4339 N 0.85575 0.8872 0.2137 0.0
C4340 C 0.84807 0.89899 0.21697 0.0
H4341 H 0.84806 0.87162 0.23019 0.0
H4342 H 0.85601 0.87585 0.23514 0.0
H4343 H 0.85753 0.869 0.22748 0.0
H4344 H 0.85256 0.90333 0.2182 0.0
H4345 H 0.84295 0.90021 0.22053 0.0
H4346 H 0.84653 0.8995 0.21082 0.0
C4347 C 0.87386 0.11332 0.97587 0.0
N4348 N 0.87141 0.11653 0.96921 0.0
N4349 N 0.86839 0.11384 0.98138 0.0
C4350 C 0.88186 0.11039 0.97724 0.0
C4351 C 0.86256 0.1175 0.97783 0.0
N4352 N 0.86435 0.11915 0.97048 0.0
C4353 C 0.85526 0.11992 0.98174 0.0
H4354 H 0.88226 0.10443 0.97506 0.0
H4355 H 0.88331 0.11035 0.98343 0.0
H4356 H 0.88612 0.11392 0.9741 0.0
H4357 H 0.85602 0.12576 0.98412 0.0
H4358 H 0.85386 0.11595 0.98651 0.0
H4359 H 0.85044 0.12005 0.97759 0.0
C4360 C 0.78483 0.65432 0.88066 0.0
N4361 N 0.79182 0.65086 0.88097 0.0
N4362 N 0.78331 0.65808 0.88729 0.0
C4363 C 0.77915 0.65341 0.87423 0.0
C4364 C 0.78956 0.65673 0.89167 0.0
N4365 N 0.79471 0.65233 0.88788 0.0
C4366 C 0.79059 0.65981 0.89966 0.0
H4367 H 0.7804 0.65774 0.86975 0.0
H4368 H 0.77319 0.65433 0.87624 0.0
H4369 H 0.7796 0.64763 0.87162 0.0
H4370 H 0.78817 0.65567 0.90383 0.0
H4371 H 0.78748 0.66532 0.90033 0.0
H4372 H 0.79675 0.66068 0.90097 0.0
C4373 C 0.28445 0.85436 0.12734 0.0
N4374 N 0.29148 0.85765 0.12724 0.0
N4375 N 0.28326 0.8502 0.12086 0.0
C4376 C 0.2786 0.85555 0.13357 0.0
C4377 C 0.28994 0.85102 0.11691 0.0
N4378 N 0.29492 0.85555 0.12078 0.0
C4379 C 0.29153 0.84758 0.10916 0.0
H4380 H 0.27838 0.85034 0.1372 0.0
H4381 H 0.27283 0.85645 0.13106 0.0
H4382 H 0.28007 0.8605 0.13728 0.0
H4383 H 0.29097 0.85209 0.10471 0.0
H4384 H 0.28753 0.84282 0.10785 0.0
H4385 H 0.29747 0.84535 0.10889 0.0
C4386 C 0.8914 0.53115 0.86189 0.0
N4387 N 0.88924 0.53833 0.86386 0.0
N4388 N 0.89462 0.52744 0.86787 0.0
C4389 C 0.89079 0.52783 0.85394 0.0
C4390 C 0.89465 0.53275 0.87354 0.0
N4391 N 0.89144 0.53941 0.8711 0.0
C4392 C 0.89719 0.5312 0.88164 0.0
H4393 H 0.88536 0.52457 0.85336 0.0
H4394 H 0.89561 0.52381 0.85287 0.0
H4395 H 0.89088 0.53244 0.84955 0.0
H4396 H 0.90347 0.53215 0.88201 0.0
H4397 H 0.89602 0.52518 0.88327 0.0
H4398 H 0.89431 0.53507 0.88578 0.0
C4399 C 0.22383 0.154 0.62786 0.0
N4400 N 0.21686 0.15055 0.62769 0.0
N4401 N 0.22519 0.15781 0.62121 0.0
C4402 C 0.22952 0.15323 0.63429 0.0
C4403 C 0.21871 0.15661 0.61706 0.0
N4404 N 0.21367 0.15221 0.62098 0.0
C4405 C 0.21737 0.15953 0.60906 0.0
H4406 H 0.22965 0.15868 0.63757 0.0
H4407 H 0.23535 0.15222 0.63196 0.0
H4408 H 0.22798 0.14851 0.63826 0.0
H4409 H 0.21844 0.15483 0.60492 0.0
H4410 H 0.2212 0.16442 0.60772 0.0
H4411 H 0.21131 0.16136 0.60839 0.0
C4412 C 0.11464 0.97558 0.87418 0.0
N4413 N 0.11765 0.96883 0.87178 0.0
N4414 N 0.11385 0.98051 0.86823 0.0
C4415 C 0.11258 0.97743 0.88237 0.0
C4416 C 0.1163 0.97638 0.86212 0.0
N4417 N 0.11891 0.96938 0.86427 0.0
C4418 C 0.11509 0.9788 0.85392 0.0
H4419 H 0.10625 0.97783 0.88285 0.0
H4420 H 0.11504 0.98305 0.88402 0.0
H4421 H 0.11458 0.973 0.88644 0.0
H4422 H 0.12 0.98228 0.85188 0.0
H4423 H 0.10984 0.98237 0.85346 0.0
H4424 H 0.11452 0.97372 0.85014 0.0
C4425 C 0.72403 0.35427 0.38061 0.0
N4426 N 0.71698 0.35756 0.38094 0.0
N4427 N 0.72546 0.35016 0.38703 0.0
C4428 C 0.7298 0.35559 0.37433 0.0
C4429 C 0.71908 0.35114 0.39133 0.0
N4430 N 0.71393 0.35569 0.38769 0.0
C4431 C 0.71789 0.34741 0.39901 0.0
H4432 H 0.72868 0.35147 0.36961 0.0
H4433 H 0.73575 0.35464 0.37638 0.0
H4434 H 0.7293 0.36148 0.37201 0.0
H4435 H 0.72038 0.35111 0.40355 0.0
H4436 H 0.72089 0.34181 0.39921 0.0
H4437 H 0.71171 0.34653 0.4002 0.0
C4438 C 0.8917 0.47765 0.64617 0.0
N4439 N 0.88932 0.47049 0.64423 0.0
N4440 N 0.89509 0.48119 0.64013 0.0
C4441 C 0.89084 0.48123 0.65398 0.0
C4442 C 0.8949 0.47583 0.63452 0.0
N4443 N 0.8915 0.46932 0.63701 0.0
C4444 C 0.89786 0.47706 0.62653 0.0
H4445 H 0.88617 0.48553 0.65382 0.0
H4446 H 0.89619 0.48424 0.6556 0.0
H4447 H 0.88959 0.47687 0.65843 0.0
H4448 H 0.90269 0.4812 0.62657 0.0
H4449 H 0.89319 0.47944 0.62293 0.0
H4450 H 0.89977 0.47157 0.62394 0.0
C4451 C 0.61423 0.53241 0.13534 0.0
N4452 N 0.61725 0.53909 0.1379 0.0
N4453 N 0.61355 0.52732 0.14116 0.0
C4454 C 0.61258 0.53061 0.12706 0.0
C4455 C 0.61612 0.53124 0.14734 0.0
N4456 N 0.61862 0.53831 0.14536 0.0
C4457 C 0.61543 0.52839 0.15546 0.0
H4458 H 0.60629 0.5309 0.12612 0.0
H4459 H 0.61449 0.52472 0.12562 0.0
H4460 H 0.61543 0.53471 0.12313 0.0
H4461 H 0.62056 0.52501 0.15704 0.0
H4462 H 0.61034 0.5246 0.15602 0.0
H4463 H 0.61489 0.53327 0.15952 0.0
C4464 C 0.61562 0.71892 0.85192 0.0
N4465 N 0.61951 0.71367 0.85611 0.0
N4466 N 0.62017 0.72489 0.85003 0.0
C4467 C 0.6073 0.71837 0.8497 0.0
C4468 C 0.627 0.7231 0.85327 0.0
N4469 N 0.62663 0.71631 0.85711 0.0
C4470 C 0.63414 0.72777 0.85203 0.0
H4471 H 0.60675 0.71929 0.84343 0.0
H4472 H 0.60405 0.723 0.8526 0.0
H4473 H 0.60475 0.71275 0.85122 0.0
H4474 H 0.63429 0.73255 0.85621 0.0
H4475 H 0.63407 0.73032 0.8462 0.0
H4476 H 0.63937 0.72421 0.85267 0.0
C4477 C 0.53286 0.37303 0.11223 0.0
N4478 N 0.53955 0.37092 0.11553 0.0
N4479 N 0.5274 0.36757 0.11322 0.0
C4480 C 0.53184 0.38029 0.10769 0.0
C4481 C 0.53113 0.36199 0.11718 0.0
N4482 N 0.53848 0.36406 0.11863 0.0
C4483 C 0.52759 0.35453 0.11971 0.0
H4484 H 0.53044 0.38507 0.11165 0.0
H4485 H 0.52716 0.37967 0.10343 0.0
H4486 H 0.53725 0.38178 0.10468 0.0
H4487 H 0.527 0.35072 0.11466 0.0
H4488 H 0.52182 0.35552 0.12219 0.0
H4489 H 0.53116 0.35143 0.12394 0.0
C4490 C 0.88177 0.28517 0.35392 0.0
N4491 N 0.88206 0.29215 0.35727 0.0
N4492 N 0.88852 0.28351 0.35045 0.0
C4493 C 0.87505 0.27979 0.35445 0.0
C4494 C 0.89293 0.28973 0.35185 0.0
N4495 N 0.889 0.29501 0.35595 0.0
C4496 C 0.90121 0.2904 0.34952 0.0
H4497 H 0.87339 0.27904 0.36054 0.0
H4498 H 0.87633 0.27413 0.35186 0.0
H4499 H 0.87009 0.28237 0.35142 0.0
H4500 H 0.90155 0.29058 0.34317 0.0
H4501 H 0.90442 0.28525 0.35143 0.0
H4502 H 0.90398 0.2956 0.35191 0.0
C4503 C 0.97466 0.63362 0.61364 0.0
N4504 N 0.96774 0.63592 0.61637 0.0
N4505 N 0.97973 0.63954 0.61363 0.0
C4506 C 0.97667 0.62545 0.61174 0.0
C4507 C 0.97553 0.64552 0.61627 0.0
N4508 N 0.96834 0.64332 0.61809 0.0
C4509 C 0.97833 0.65366 0.61689 0.0
H4510 H 0.98251 0.62404 0.61382 0.0
H4511 H 0.97659 0.62473 0.60542 0.0
H4512 H 0.97253 0.62136 0.61431 0.0
H4513 H 0.98325 0.6547 0.613 0.0
H4514 H 0.9801 0.65486 0.62288 0.0
H4515 H 0.97361 0.65768 0.61545 0.0
C4516 C 0.61581 0.28955 0.65706 0.0
N4517 N 0.61983 0.2948 0.65296 0.0
N4518 N 0.62009 0.28318 0.65835 0.0
C4519 C 0.60757 0.29048 0.65946 0.0
C4520 C 0.62682 0.28471 0.6548 0.0
N4521 N 0.62666 0.29173 0.65149 0.0
C4522 C 0.63337 0.27916 0.6542 0.0
H4523 H 0.60732 0.29438 0.66448 0.0
H4524 H 0.60493 0.28496 0.66113 0.0
H4525 H 0.6042 0.29311 0.65476 0.0
H4526 H 0.63205 0.27487 0.6497 0.0
H4527 H 0.63412 0.27606 0.6597 0.0
H4528 H 0.6388 0.28212 0.6527 0.0
C4529 C 0.97566 0.37385 0.89595 0.0
N4530 N 0.96896 0.37147 0.89285 0.0
N4531 N 0.98106 0.36832 0.8954 0.0
C4532 C 0.97709 0.38176 0.89903 0.0
C4533 C 0.9774 0.36249 0.89179 0.0
N4534 N 0.97002 0.36438 0.89028 0.0
C4535 C 0.98121 0.35522 0.88914 0.0
H4536 H 0.97894 0.38553 0.89425 0.0
H4537 H 0.9817 0.38166 0.90342 0.0
H4538 H 0.97177 0.38418 0.90156 0.0
H4539 H 0.97911 0.3504 0.89271 0.0
H4540 H 0.98754 0.35552 0.88965 0.0
H4541 H 0.97962 0.35399 0.8831 0.0
C4542 C 0.88137 0.72353 0.15592 0.0
N4543 N 0.88153 0.71672 0.15214 0.0
N4544 N 0.88828 0.72514 0.15906 0.0
C4545 C 0.87444 0.72858 0.15681 0.0
C4546 C 0.89267 0.71905 0.15714 0.0
N4547 N 0.88855 0.71386 0.15306 0.0
C4548 C 0.90109 0.71841 0.15891 0.0
H4549 H 0.87458 0.73313 0.15238 0.0
H4550 H 0.87452 0.73142 0.16251 0.0
H4551 H 0.86906 0.72524 0.15624 0.0
H4552 H 0.90176 0.71632 0.16488 0.0
H4553 H 0.90392 0.72408 0.15853 0.0
H4554 H 0.90403 0.71436 0.15498 0.0
C4555 C 0.53304 0.63469 0.39643 0.0
N4556 N 0.5396 0.63709 0.393 0.0
N4557 N 0.52742 0.63996 0.39559 0.0
C4558 C 0.53179 0.62681 0.39969 0.0
C4559 C 0.53077 0.64563 0.3915 0.0
N4560 N 0.53815 0.64387 0.38983 0.0
C4561 C 0.52676 0.65291 0.38924 0.0
H4562 H 0.53056 0.62278 0.39492 0.0
H4563 H 0.52686 0.62678 0.4037 0.0
H4564 H 0.53697 0.62475 0.40273 0.0
H4565 H 0.52243 0.65449 0.39362 0.0
H4566 H 0.52373 0.65199 0.38372 0.0
H4567 H 0.53091 0.65768 0.38855 0.0
C4568 C 0.8534 0.6268 0.72367 0.0
N4569 N 0.85688 0.62653 0.71667 0.0
N4570 N 0.85032 0.61989 0.72554 0.0
C4571 C 0.85278 0.63387 0.72861 0.0
C4572 C 0.85195 0.61542 0.7194 0.0
N4573 N 0.85595 0.61941 0.71405 0.0
C4574 C 0.8495 0.60717 0.71865 0.0
H4575 H 0.85834 0.63695 0.72879 0.0
H4576 H 0.85088 0.63261 0.73452 0.0
H4577 H 0.8484 0.63774 0.72611 0.0
H4578 H 0.84318 0.60695 0.71802 0.0
H4579 H 0.85103 0.60398 0.72393 0.0
H4580 H 0.85202 0.60426 0.71361 0.0
C4581 C 0.6343 0.61274 0.97449 0.0
N4582 N 0.63681 0.61596 0.96789 0.0
N4583 N 0.63984 0.61292 0.9799 0.0
C4584 C 0.62623 0.61006 0.97588 0.0
C4585 C 0.64581 0.61635 0.97635 0.0
N4586 N 0.64396 0.61837 0.96908 0.0
C4587 C 0.65354 0.61743 0.98004 0.0
H4588 H 0.6227 0.61502 0.97772 0.0
H4589 H 0.62609 0.60566 0.98046 0.0
H4590 H 0.62371 0.60768 0.97054 0.0
H4591 H 0.65479 0.61253 0.9839 0.0
H4592 H 0.65347 0.6227 0.9836 0.0
H4593 H 0.65813 0.61789 0.97566 0.0
C4594 C 0.65545 0.38103 0.2235 0.0
N4595 N 0.65193 0.38163 0.21662 0.0
N4596 N 0.65842 0.38789 0.22573 0.0
C4597 C 0.65602 0.37371 0.22801 0.0
C4598 C 0.65664 0.39264 0.21981 0.0
N4599 N 0.65262 0.38885 0.21433 0.0
C4600 C 0.65906 0.40092 0.21933 0.0
H4601 H 0.65056 0.37275 0.23114 0.0
H4602 H 0.66081 0.37394 0.23218 0.0
H4603 H 0.65692 0.36876 0.22413 0.0
H4604 H 0.66531 0.40118 0.21821 0.0
H4605 H 0.65792 0.40386 0.22486 0.0
H4606 H 0.65622 0.40409 0.21465 0.0
C4607 C 0.8627 0.39166 0.47705 0.0
N4608 N 0.86483 0.39013 0.46974 0.0
N4609 N 0.86847 0.39507 0.48098 0.0
C4610 C 0.85511 0.38939 0.48047 0.0
C4611 C 0.87418 0.39562 0.47573 0.0
N4612 N 0.87204 0.39248 0.46892 0.0
C4613 C 0.88184 0.39926 0.47733 0.0
H4614 H 0.85039 0.39193 0.47705 0.0
H4615 H 0.85451 0.39136 0.48648 0.0
H4616 H 0.85447 0.38307 0.48021 0.0
H4617 H 0.88558 0.39506 0.48029 0.0
H4618 H 0.88116 0.40428 0.48117 0.0
H4619 H 0.88466 0.40119 0.47197 0.0
C4620 C 0.85344 0.38086 0.78555 0.0
N4621 N 0.85682 0.38107 0.79255 0.0
N4622 N 0.8499 0.38758 0.78399 0.0
C4623 C 0.85331 0.374 0.78033 0.0
C4624 C 0.85118 0.39189 0.79031 0.0
N4625 N 0.85533 0.38792 0.79554 0.0
C4626 C 0.84891 0.40017 0.79106 0.0
H4627 H 0.85829 0.37426 0.77638 0.0
H4628 H 0.848 0.37398 0.77682 0.0
H4629 H 0.85365 0.36861 0.78368 0.0
H4630 H 0.8426 0.40068 0.79048 0.0
H4631 H 0.85155 0.40352 0.78635 0.0
H4632 H 0.85064 0.40266 0.79665 0.0
C4633 C 0.86281 0.61696 0.03087 0.0
N4634 N 0.86466 0.61851 0.03823 0.0
N4635 N 0.8687 0.6135 0.02719 0.0
C4636 C 0.8553 0.61909 0.02722 0.0
C4637 C 0.87425 0.61301 0.03261 0.0
N4638 N 0.8718 0.61604 0.03935 0.0
C4639 C 0.88231 0.61036 0.03104 0.0
H4640 H 0.85052 0.61711 0.03093 0.0
H4641 H 0.85467 0.61653 0.02143 0.0
H4642 H 0.85489 0.62542 0.02679 0.0
H4643 H 0.88382 0.61104 0.0249 0.0
H4644 H 0.88275 0.60419 0.0325 0.0
H4645 H 0.88649 0.61357 0.03459 0.0
C4646 C 0.65549 0.62704 0.28531 0.0
N4647 N 0.65179 0.6266 0.29215 0.0
N4648 N 0.65836 0.62012 0.28318 0.0
C4649 C 0.6571 0.63443 0.28116 0.0
C4650 C 0.65643 0.61547 0.28913 0.0
N4651 N 0.65251 0.61941 0.29457 0.0
C4652 C 0.65812 0.60702 0.28953 0.0
H4653 H 0.65246 0.63561 0.27698 0.0
H4654 H 0.66261 0.63408 0.278 0.0
H4655 H 0.65734 0.63929 0.28527 0.0
H4656 H 0.66417 0.60622 0.29131 0.0
H4657 H 0.65733 0.60431 0.28383 0.0
H4658 H 0.65444 0.60404 0.29376 0.0
C4659 C 0.63412 0.39568 0.53343 0.0
N4660 N 0.63649 0.39264 0.54019 0.0
N4661 N 0.63971 0.39513 0.52805 0.0
C4662 C 0.62613 0.39846 0.53183 0.0
C4663 C 0.64557 0.39171 0.53183 0.0
N4664 N 0.64362 0.39018 0.53917 0.0
C4665 C 0.65309 0.38951 0.52823 0.0
H4666 H 0.6235 0.39483 0.52731 0.0
H4667 H 0.62639 0.4044 0.52959 0.0
H4668 H 0.62246 0.39836 0.53702 0.0
H4669 H 0.65445 0.39333 0.52333 0.0
H4670 H 0.65272 0.38352 0.52612 0.0
H4671 H 0.65778 0.3898 0.53252 0.0
C4672 C 0.72362 0.85334 0.62709 0.0
N4673 N 0.71663 0.85667 0.62674 0.0
N4674 N 0.72568 0.85043 0.62014 0.0
C4675 C 0.72826 0.85271 0.63432 0.0
C4676 C 0.71957 0.85211 0.6156 0.0
N4677 N 0.7141 0.85589 0.61962 0.0
C4678 C 0.71905 0.85035 0.60716 0.0
H4679 H 0.73168 0.85802 0.63507 0.0
H4680 H 0.73218 0.84771 0.63409 0.0
H4681 H 0.72442 0.85215 0.63936 0.0
H4682 H 0.71727 0.84429 0.60643 0.0
H4683 H 0.7247 0.85114 0.60435 0.0
H4684 H 0.71475 0.85398 0.60423 0.0
C4685 C 0.22391 0.65473 0.38165 0.0
N4686 N 0.21687 0.65139 0.38191 0.0
N4687 N 0.22548 0.65839 0.38832 0.0
C4688 C 0.22955 0.65389 0.37517 0.0
C4689 C 0.21919 0.65713 0.39267 0.0
N4690 N 0.21395 0.65284 0.38883 0.0
C4691 C 0.21809 0.66042 0.40057 0.0
H4692 H 0.22899 0.64818 0.37242 0.0
H4693 H 0.23553 0.65466 0.37717 0.0
H4694 H 0.22834 0.65835 0.3708 0.0
H4695 H 0.2213 0.66588 0.40116 0.0
H4696 H 0.22037 0.65633 0.40487 0.0
H4697 H 0.21193 0.66145 0.40178 0.0
C4698 C 0.61823 0.97586 0.646 0.0
N4699 N 0.61997 0.96886 0.64319 0.0
N4700 N 0.61408 0.97996 0.64087 0.0
C4701 C 0.61901 0.97777 0.65442 0.0
C4702 C 0.61262 0.97474 0.63523 0.0
N4703 N 0.61661 0.96802 0.63634 0.0
C4704 C 0.60537 0.97542 0.63058 0.0
H4705 H 0.61336 0.97959 0.65673 0.0
H4706 H 0.62337 0.98232 0.65523 0.0
H4707 H 0.62072 0.97278 0.65795 0.0
H4708 H 0.60675 0.97636 0.62444 0.0
H4709 H 0.60177 0.98027 0.63257 0.0
H4710 H 0.60178 0.97023 0.63136 0.0
C4711 C 0.28466 0.35362 0.88174 0.0
N4712 N 0.29178 0.3568 0.88195 0.0
N4713 N 0.28302 0.35005 0.88847 0.0
C4714 C 0.27903 0.35463 0.87529 0.0
C4715 C 0.28942 0.35116 0.89274 0.0
N4716 N 0.29472 0.35523 0.88882 0.0
C4717 C 0.2905 0.34828 0.90079 0.0
H4718 H 0.27997 0.36015 0.87228 0.0
H4719 H 0.27303 0.35444 0.8774 0.0
H4720 H 0.27982 0.3499 0.87111 0.0
H4721 H 0.28703 0.34304 0.90179 0.0
H4722 H 0.28864 0.35277 0.90488 0.0
H4723 H 0.29663 0.34701 0.90192 0.0
C4724 C 0.39594 0.53395 0.63408 0.0
N4725 N 0.39254 0.5406 0.63626 0.0
N4726 N 0.39463 0.52833 0.63932 0.0
C4727 C 0.40028 0.53288 0.6267 0.0
C4728 C 0.39038 0.53184 0.64479 0.0
N4729 N 0.38912 0.53925 0.64294 0.0
C4730 C 0.38689 0.5279 0.65165 0.0
H4731 H 0.39613 0.53232 0.62191 0.0
H4732 H 0.40395 0.5277 0.6269 0.0
H4733 H 0.40396 0.53791 0.62549 0.0
H4734 H 0.39131 0.52737 0.65619 0.0
H4735 H 0.3849 0.52206 0.65011 0.0
H4736 H 0.382 0.53116 0.65406 0.0
C4737 C 0.78561 0.15493 0.12717 0.0
N4738 N 0.79246 0.15133 0.12677 0.0
N4739 N 0.78358 0.15781 0.12022 0.0
C4740 C 0.78104 0.15578 0.13443 0.0
C4741 C 0.78957 0.15588 0.11562 0.0
N4742 N 0.79491 0.15188 0.11959 0.0
C4743 C 0.79025 0.15808 0.10728 0.0
H4744 H 0.7777 0.15046 0.13544 0.0
H4745 H 0.77705 0.16072 0.13408 0.0
H4746 H 0.78492 0.15659 0.13941 0.0
H4747 H 0.79155 0.16429 0.10691 0.0
H4748 H 0.78477 0.15699 0.10426 0.0
H4749 H 0.79493 0.15506 0.10426 0.0
C4750 C 0.61725 0.03062 0.86269 0.0
N4751 N 0.61884 0.03803 0.86434 0.0
N4752 N 0.61388 0.02712 0.86872 0.0
C4753 C 0.61921 0.02666 0.85529 0.0
C4754 C 0.61349 0.03266 0.87415 0.0
N4755 N 0.61645 0.03934 0.87147 0.0
C4756 C 0.61057 0.03143 0.88218 0.0
H4757 H 0.61386 0.02448 0.85263 0.0
H4758 H 0.62292 0.02163 0.85649 0.0
H4759 H 0.62212 0.03051 0.85116 0.0
H4760 H 0.61081 0.02531 0.88386 0.0
H4761 H 0.60449 0.03328 0.88245 0.0
H4762 H 0.6139 0.03489 0.88635 0.0
C4763 C 0.89535 0.97527 0.37428 0.0
N4764 N 0.89228 0.96863 0.37161 0.0
N4765 N 0.89499 0.98083 0.36888 0.0
C4766 C 0.89832 0.97646 0.3823 0.0
C4767 C 0.89152 0.97739 0.36287 0.0
N4768 N 0.88986 0.96999 0.36449 0.0
C4769 C 0.88951 0.98136 0.35547 0.0
H4770 H 0.89499 0.973 0.38648 0.0
H4771 H 0.89809 0.98257 0.38401 0.0
H4772 H 0.90439 0.97462 0.38254 0.0
H4773 H 0.89443 0.98079 0.35148 0.0
H4774 H 0.88845 0.98755 0.35641 0.0
H4775 H 0.88442 0.97874 0.3527 0.0
C4776 C 0.381 0.28502 0.15525 0.0
N4777 N 0.38152 0.29184 0.15161 0.0
N4778 N 0.3879 0.28293 0.15823 0.0
C4779 C 0.37377 0.28034 0.15574 0.0
C4780 C 0.39258 0.28886 0.15633 0.0
N4781 N 0.38871 0.29423 0.15231 0.0
C4782 C 0.40103 0.28922 0.15805 0.0
H4783 H 0.37407 0.27611 0.16048 0.0
H4784 H 0.37287 0.27729 0.15023 0.0
H4785 H 0.36874 0.2841 0.15671 0.0
H4786 H 0.40373 0.28354 0.15716 0.0
H4787 H 0.40182 0.29088 0.16414 0.0
H4788 H 0.40402 0.29352 0.15445 0.0
C4789 C 0.47634 0.63476 0.89553 0.0
N4790 N 0.46971 0.63719 0.89227 0.0
N4791 N 0.48186 0.64023 0.89497 0.0
C4792 C 0.47767 0.62679 0.89852 0.0
C4793 C 0.47829 0.64605 0.89129 0.0
N4794 N 0.47096 0.64422 0.88962 0.0
C4795 C 0.48205 0.65347 0.88904 0.0
H4796 H 0.47587 0.62657 0.90462 0.0
H4797 H 0.4838 0.62516 0.89819 0.0
H4798 H 0.4742 0.62254 0.89529 0.0
H4799 H 0.48397 0.65309 0.88299 0.0
H4800 H 0.48709 0.65468 0.89273 0.0
H4801 H 0.47789 0.65826 0.88948 0.0
C4802 C 0.11682 0.71883 0.65743 0.0
N4803 N 0.12078 0.71372 0.65308 0.0
N4804 N 0.12121 0.72501 0.65909 0.0
C4805 C 0.10835 0.71844 0.65902 0.0
C4806 C 0.12795 0.7235 0.65557 0.0
N4807 N 0.1277 0.71669 0.65181 0.0
C4808 C 0.13482 0.7287 0.65604 0.0
H4809 H 0.10522 0.72093 0.65408 0.0
H4810 H 0.10689 0.72181 0.66422 0.0
H4811 H 0.10635 0.71248 0.65981 0.0
H4812 H 0.13492 0.73167 0.66166 0.0
H4813 H 0.13441 0.73314 0.65151 0.0
H4814 H 0.14023 0.72544 0.65528 0.0
C4815 C 0.03236 0.37457 0.39398 0.0
N4816 N 0.03916 0.37207 0.39111 0.0
N4817 N 0.0273 0.3687 0.39464 0.0
C4818 C 0.03043 0.38284 0.39549 0.0
C4819 C 0.03135 0.36254 0.39219 0.0
N4820 N 0.03846 0.36458 0.38981 0.0
C4821 C 0.02864 0.35438 0.39298 0.0
H4822 H 0.03104 0.384 0.40172 0.0
H4823 H 0.02443 0.38411 0.39381 0.0
H4824 H 0.03431 0.38675 0.39231 0.0
H4825 H 0.0255 0.35259 0.38776 0.0
H4826 H 0.0247 0.35383 0.39795 0.0
H4827 H 0.03359 0.35046 0.39377 0.0
C4828 C 0.38048 0.72312 0.35386 0.0
N4829 N 0.38099 0.71624 0.3574 0.0
N4830 N 0.38718 0.72494 0.35035 0.0
C4831 C 0.37352 0.72821 0.3541 0.0
C4832 C 0.39178 0.71888 0.35192 0.0
N4833 N 0.38803 0.71361 0.35621 0.0
C4834 C 0.40009 0.71839 0.34967 0.0
H4835 H 0.36893 0.72558 0.35057 0.0
H4836 H 0.3747 0.73401 0.35181 0.0
H4837 H 0.37134 0.72864 0.36006 0.0
H4838 H 0.40347 0.72234 0.35334 0.0
H4839 H 0.40082 0.72024 0.34363 0.0
H4840 H 0.40235 0.71249 0.35033 0.0
C4841 C 0.03299 0.63586 0.11214 0.0
N4842 N 0.03969 0.63773 0.11562 0.0
N4843 N 0.0278 0.64155 0.11293 0.0
C4844 C 0.03137 0.62842 0.10808 0.0
C4845 C 0.03161 0.64702 0.11689 0.0
N4846 N 0.03885 0.64475 0.11845 0.0
C4847 C 0.02795 0.65419 0.11997 0.0
H4848 H 0.02759 0.62943 0.10307 0.0
H4849 H 0.02832 0.6245 0.11204 0.0
H4850 H 0.03675 0.62566 0.1061 0.0
H4851 H 0.02607 0.65315 0.12596 0.0
H4852 H 0.02287 0.65579 0.1165 0.0
H4853 H 0.03208 0.65901 0.12 0.0
C4854 C 0.11709 0.28954 0.851 0.0
N4855 N 0.12091 0.29472 0.85535 0.0
N4856 N 0.12139 0.28318 0.84984 0.0
C4857 C 0.10886 0.29034 0.84858 0.0
C4858 C 0.12795 0.28469 0.85371 0.0
N4859 N 0.12767 0.29167 0.85711 0.0
C4860 C 0.13462 0.27925 0.85415 0.0
H4861 H 0.10512 0.28787 0.85309 0.0
H4862 H 0.1078 0.2872 0.84315 0.0
H4863 H 0.10733 0.29647 0.84782 0.0
H4864 H 0.13494 0.27572 0.84886 0.0
H4865 H 0.13381 0.27534 0.85909 0.0
H4866 H 0.14009 0.28242 0.85491 0.0
C4867 C 0.47639 0.37329 0.61357 0.0
N4868 N 0.46983 0.37075 0.61689 0.0
N4869 N 0.48173 0.36767 0.61341 0.0
C4870 C 0.47778 0.38141 0.61104 0.0
C4871 C 0.47814 0.36162 0.61669 0.0
N4872 N 0.47096 0.36351 0.61901 0.0
C4873 C 0.48153 0.35371 0.61699 0.0
H4874 H 0.47628 0.3819 0.60488 0.0
H4875 H 0.48389 0.38303 0.61171 0.0
H4876 H 0.47417 0.3855 0.6143 0.0
H4877 H 0.48517 0.35313 0.62217 0.0
H4878 H 0.48525 0.35274 0.61191 0.0
H4879 H 0.47697 0.34927 0.61713 0.0
C4880 C 0.15563 0.38074 0.28503 0.0
N4881 N 0.15199 0.38106 0.29188 0.0
N4882 N 0.15882 0.3876 0.28324 0.0
C4883 C 0.15652 0.37357 0.28031 0.0
C4884 C 0.15711 0.39208 0.28937 0.0
N4885 N 0.153 0.38809 0.29462 0.0
C4886 C 0.15915 0.40043 0.29002 0.0
H4887 H 0.16193 0.37375 0.27696 0.0
H4888 H 0.15166 0.37306 0.27624 0.0
H4889 H 0.15651 0.36843 0.28405 0.0
H4890 H 0.15777 0.40344 0.2846 0.0
H4891 H 0.16542 0.40095 0.291 0.0
H4892 H 0.15616 0.40328 0.29485 0.0
C4893 C 0.37445 0.39421 0.03237 0.0
N4894 N 0.37189 0.3914 0.03921 0.0
N4895 N 0.36884 0.39408 0.02702 0.0
C4896 C 0.38265 0.39634 0.0306 0.0
C4897 C 0.3628 0.39094 0.0307 0.0
N4898 N 0.36461 0.38925 0.03806 0.0
C4899 C 0.35543 0.38872 0.02681 0.0
H4900 H 0.38346 0.40255 0.03166 0.0
H4901 H 0.38406 0.39527 0.0245 0.0
H4902 H 0.38671 0.39305 0.03423 0.0
H4903 H 0.35626 0.38315 0.02385 0.0
H4904 H 0.35385 0.39305 0.02244 0.0
H4905 H 0.35067 0.38812 0.03099 0.0
C4906 C 0.35434 0.6266 0.78443 0.0
N4907 N 0.3574 0.62641 0.79159 0.0
N4908 N 0.34995 0.62031 0.78314 0.0
C4909 C 0.35636 0.63245 0.7784 0.0
C4910 C 0.35047 0.61631 0.78978 0.0
N4911 N 0.35508 0.61993 0.79487 0.0
C4912 C 0.34604 0.60911 0.79149 0.0
H4913 H 0.35196 0.63704 0.77843 0.0
H4914 H 0.35646 0.62982 0.77261 0.0
H4915 H 0.36204 0.63507 0.77951 0.0
H4916 H 0.34956 0.60404 0.78997 0.0
H4917 H 0.34066 0.60892 0.7881 0.0
H4918 H 0.34464 0.60877 0.79769 0.0
C4919 C 0.13535 0.61294 0.53239 0.0
N4920 N 0.13783 0.61646 0.53887 0.0
N4921 N 0.14057 0.61369 0.52668 0.0
C4922 C 0.12772 0.60898 0.53161 0.0
C4923 C 0.14633 0.61775 0.52994 0.0
N4924 N 0.14462 0.61956 0.53731 0.0
C4925 C 0.15358 0.62006 0.52585 0.0
H4926 H 0.12767 0.60381 0.53529 0.0
H4927 H 0.12656 0.60715 0.52564 0.0
H4928 H 0.12307 0.61283 0.53363 0.0
H4929 H 0.1522 0.62438 0.5214 0.0
H4930 H 0.15612 0.61503 0.52292 0.0
H4931 H 0.15795 0.6224 0.52982 0.0
C4932 C 0.15531 0.6281 0.22364 0.0
N4933 N 0.15159 0.62789 0.21678 0.0
N4934 N 0.15908 0.62142 0.22498 0.0
C4935 C 0.15523 0.63478 0.22911 0.0
C4936 C 0.15768 0.61724 0.21858 0.0
N4937 N 0.15318 0.62113 0.21362 0.0
C4938 C 0.16064 0.60927 0.21718 0.0
H4939 H 0.16117 0.63624 0.23082 0.0
H4940 H 0.15202 0.63318 0.23436 0.0
H4941 H 0.15268 0.63998 0.22652 0.0
H4942 H 0.15614 0.60505 0.21872 0.0
H4943 H 0.16584 0.60812 0.22066 0.0
H4944 H 0.16202 0.60848 0.21101 0.0
C4945 C 0.13357 0.39262 0.97657 0.0
N4946 N 0.13573 0.38994 0.96957 0.0
N4947 N 0.1398 0.39423 0.98095 0.0
C4948 C 0.12538 0.39293 0.97931 0.0
C4949 C 0.14577 0.39245 0.97631 0.0
N4950 N 0.14338 0.38959 0.96948 0.0
C4951 C 0.15403 0.39405 0.97823 0.0
H4952 H 0.12168 0.39554 0.97485 0.0
H4953 H 0.12464 0.39615 0.9847 0.0
H4954 H 0.12332 0.38701 0.98034 0.0
H4955 H 0.15647 0.38924 0.98158 0.0
H4956 H 0.15448 0.39934 0.98174 0.0
H4957 H 0.15747 0.39473 0.97291 0.0
C4958 C 0.35408 0.38052 0.72381 0.0
N4959 N 0.35744 0.38062 0.71681 0.0
N4960 N 0.35049 0.38725 0.72526 0.0
C4961 C 0.35453 0.37395 0.72938 0.0
C4962 C 0.35172 0.39143 0.71881 0.0
N4963 N 0.35593 0.38739 0.71365 0.0
C4964 C 0.34936 0.39968 0.71782 0.0
H4965 H 0.34881 0.3712 0.72978 0.0
H4966 H 0.35606 0.3761 0.73517 0.0
H4967 H 0.35873 0.36954 0.72757 0.0
H4968 H 0.3545 0.40339 0.71831 0.0
H4969 H 0.34507 0.40143 0.72218 0.0
H4970 H 0.34682 0.40064 0.7121 0.0
C4971 C 0.37403 0.61347 0.47571 0.0
N4972 N 0.37156 0.61664 0.46902 0.0
N4973 N 0.36849 0.61384 0.48116 0.0
C4974 C 0.3821 0.61082 0.47718 0.0
C4975 C 0.36259 0.61733 0.47755 0.0
N4976 N 0.36442 0.61907 0.47023 0.0
C4977 C 0.35511 0.61939 0.48132 0.0
H4978 H 0.38267 0.6048 0.47521 0.0
H4979 H 0.38354 0.61102 0.48337 0.0
H4980 H 0.38628 0.61438 0.47396 0.0
H4981 H 0.3555 0.62529 0.48364 0.0
H4982 H 0.35383 0.6154 0.48611 0.0
H4983 H 0.35036 0.61922 0.47708 0.0
C4984 C 0.28483 0.15432 0.38064 0.0
N4985 N 0.29186 0.15096 0.38093 0.0
N4986 N 0.28332 0.15817 0.38722 0.0
C4987 C 0.27911 0.15325 0.37426 0.0
C4988 C 0.28962 0.15695 0.39157 0.0
N4989 N 0.29481 0.15261 0.38777 0.0
C4990 C 0.29047 0.15961 0.39972 0.0
H4991 H 0.28031 0.1575 0.36969 0.0
H4992 H 0.27316 0.15418 0.37629 0.0
H4993 H 0.27959 0.14743 0.37176 0.0
H4994 H 0.28803 0.15521 0.4036 0.0
H4995 H 0.28729 0.16505 0.40062 0.0
H4996 H 0.2966 0.16045 0.4012 0.0
C4997 C 0.78468 0.35334 0.62715 0.0
N4998 N 0.79173 0.35663 0.62673 0.0
N4999 N 0.78317 0.34926 0.62072 0.0
C5000 C 0.77893 0.35477 0.63343 0.0
C5001 C 0.7895 0.35023 0.61636 0.0
N5002 N 0.7947 0.35476 0.61994 0.0
C5003 C 0.79062 0.34653 0.60865 0.0
H5004 H 0.77997 0.35064 0.63815 0.0
H5005 H 0.77297 0.35395 0.63138 0.0
H5006 H 0.77952 0.36066 0.63576 0.0
H5007 H 0.78814 0.35026 0.60414 0.0
H5008 H 0.78759 0.34094 0.60844 0.0
H5009 H 0.7968 0.34563 0.60742 0.0
C5010 C 0.3917 0.03171 0.36183 0.0
N5011 N 0.38981 0.03888 0.36414 0.0
N5012 N 0.39486 0.02762 0.36764 0.0
C5013 C 0.39038 0.02868 0.35384 0.0
C5014 C 0.39511 0.03273 0.37352 0.0
N5015 N 0.39188 0.0395 0.37145 0.0
C5016 C 0.39891 0.03117 0.38112 0.0
H5017 H 0.38413 0.02821 0.35276 0.0
H5018 H 0.39316 0.02304 0.35295 0.0
H5019 H 0.39279 0.03272 0.34958 0.0
H5020 H 0.40502 0.02972 0.38014 0.0
H5021 H 0.39612 0.02621 0.38395 0.0
H5022 H 0.39887 0.03618 0.38501 0.0
C5023 C 0.7241 0.65364 0.12764 0.0
N5024 N 0.71703 0.65038 0.12751 0.0
N5025 N 0.72547 0.65758 0.12107 0.0
C5026 C 0.72995 0.65236 0.13386 0.0
C5027 C 0.71891 0.65666 0.11699 0.0
N5028 N 0.71382 0.65228 0.12086 0.0
C5029 C 0.71745 0.65997 0.10916 0.0
H5030 H 0.72953 0.6571 0.13808 0.0
H5031 H 0.73585 0.65231 0.13149 0.0
H5032 H 0.72892 0.64687 0.1369 0.0
H5033 H 0.71853 0.6555 0.10477 0.0
H5034 H 0.72121 0.66497 0.10804 0.0
H5035 H 0.71136 0.66176 0.10864 0.0
C5036 C 0.61468 0.47554 0.37411 0.0
N5037 N 0.61691 0.46841 0.37169 0.0
N5038 N 0.61458 0.48059 0.36821 0.0
C5039 C 0.61405 0.47808 0.38236 0.0
C5040 C 0.617 0.47644 0.36215 0.0
N5041 N 0.61858 0.46914 0.36422 0.0
C5042 C 0.61844 0.4797 0.35428 0.0
H5043 H 0.60794 0.47797 0.38413 0.0
H5044 H 0.6161 0.48405 0.38308 0.0
H5045 H 0.61749 0.47438 0.38622 0.0
H5046 H 0.62471 0.47995 0.35321 0.0
H5047 H 0.61596 0.48551 0.35363 0.0
H5048 H 0.61587 0.4759 0.34988 0.0
C5049 C 0.22312 0.85406 0.8802 0.0
N5050 N 0.21614 0.8574 0.88066 0.0
N5051 N 0.22487 0.85043 0.88684 0.0
C5052 C 0.22828 0.85429 0.87329 0.0
C5053 C 0.21871 0.85173 0.89137 0.0
N5054 N 0.21341 0.85598 0.88763 0.0
C5055 C 0.21811 0.84923 0.8996 0.0
H5056 H 0.22995 0.84836 0.87174 0.0
H5057 H 0.2336 0.85747 0.87468 0.0
H5058 H 0.22546 0.85705 0.86831 0.0
H5059 H 0.2216 0.85313 0.90322 0.0
H5060 H 0.22042 0.84335 0.90029 0.0
H5061 H 0.21209 0.84933 0.90164 0.0
C5062 C 0.39149 0.97718 0.14647 0.0
N5063 N 0.38963 0.9699 0.1444 0.0
N5064 N 0.39455 0.98111 0.14048 0.0
C5065 C 0.39017 0.98055 0.15432 0.0
C5066 C 0.39464 0.97589 0.13473 0.0
N5067 N 0.39163 0.96911 0.13707 0.0
C5068 C 0.39743 0.97758 0.12674 0.0
H5069 H 0.38419 0.97949 0.1562 0.0
H5070 H 0.39141 0.98677 0.15454 0.0
H5071 H 0.39408 0.97774 0.15846 0.0
H5072 H 0.40344 0.97965 0.127 0.0
H5073 H 0.39391 0.98222 0.1242 0.0
H5074 H 0.39726 0.97247 0.12296 0.0
C5075 C 0.11443 0.03221 0.63418 0.0
N5076 N 0.11733 0.03899 0.63667 0.0
N5077 N 0.11437 0.02694 0.63993 0.0
C5078 C 0.11236 0.03053 0.62598 0.0
C5079 C 0.11718 0.0309 0.64602 0.0
N5080 N 0.11908 0.03814 0.64404 0.0
C5081 C 0.11803 0.02777 0.65401 0.0
H5082 H 0.10603 0.03084 0.62536 0.0
H5083 H 0.11422 0.02468 0.62434 0.0
H5084 H 0.11498 0.03471 0.62198 0.0
H5085 H 0.1241 0.02613 0.65499 0.0
H5086 H 0.11428 0.02272 0.65492 0.0
H5087 H 0.11655 0.03226 0.65827 0.0
H5088 H 0.02839 0.14197 0.40768 0.0
H5089 H 0.98987 0.13108 0.38523 0.0
H5090 H 0.02818 0.13343 0.38449 0.0
H5091 H 0.99003 0.14591 0.40492 0.0
H5092 H 1.00392 0.1303 0.3858 0.0
H5093 H 0.01431 0.14209 0.40763 0.0
C5094 C 0.02535 0.14009 0.40259 0.0
C5095 C 0.0294 0.13766 0.39609 0.0
C5096 C 1.0009 0.13369 0.39003 0.0
C5097 C 0.01337 0.13772 0.39601 0.0
C5098 C 0.99292 0.13407 0.38973 0.0
C5099 C 0.98891 0.13851 0.39507 0.0
C5100 C 0.00487 0.13774 0.39575 0.0
C5101 C 0.99301 0.1424 0.40076 0.0
C5102 C 0.01734 0.14018 0.40256 0.0
C5103 C 0.02524 0.13536 0.38961 0.0
N5104 N 1.0008 0.14192 0.40097 0.0
N5105 N 0.01744 0.13539 0.38975 0.0
H5106 H 0.10791 0.7669 0.68292 0.0
H5107 H 0.11806 0.73667 0.64968 0.0
H5108 H 0.10376 0.77039 0.6588 0.0
H5109 H 0.11834 0.73026 0.67347 0.0
H5110 H 0.11361 0.74946 0.65326 0.0
H5111 H 0.11254 0.75384 0.68 0.0
C5112 C 0.108 0.76494 0.67702 0.0
C5113 C 0.1054 0.76974 0.67109 0.0
C5114 C 0.11461 0.7453 0.65774 0.0
C5115 C 0.11069 0.75489 0.66773 0.0
C5116 C 0.11716 0.73802 0.65567 0.0
C5117 C 0.11853 0.73249 0.6613 0.0
C5118 C 0.11346 0.74711 0.66552 0.0
C5119 C 0.11731 0.73443 0.669 0.0
C5120 C 0.1106 0.75749 0.67537 0.0
C5121 C 0.1056 0.76689 0.66357 0.0
N5122 N 0.11485 0.74161 0.67092 0.0
N5123 N 0.1082 0.7597 0.66212 0.0
H5124 H 0.47941 0.88186 0.89296 0.0
H5125 H 0.51859 0.8604 0.90395 0.0
H5126 H 0.48014 0.85884 0.90185 0.0
H5127 H 0.51764 0.87848 0.88722 0.0
H5128 H 0.50456 0.86102 0.90523 0.0
H5129 H 0.49354 0.88209 0.89289 0.0
C5130 C 0.48255 0.87691 0.89501 0.0
C5131 C 0.47862 0.87032 0.89742 0.0
C5132 C 0.50742 0.8649 0.90133 0.0
C5133 C 0.49472 0.87055 0.89737 0.0
C5134 C 0.51541 0.86453 0.90059 0.0
C5135 C 0.51923 0.8694 0.89549 0.0
C5136 C 0.50325 0.87027 0.897 0.0
C5137 C 0.51488 0.87471 0.89129 0.0
C5138 C 0.4906 0.87702 0.89491 0.0
C5139 C 0.48296 0.86402 0.89993 0.0
N5140 N 0.50712 0.87502 0.89215 0.0
N5141 N 0.49075 0.8643 0.89986 0.0
H5142 H 0.3914 0.23469 0.16773 0.0
H5143 H 0.39664 0.2799 0.17079 0.0
H5144 H 0.41258 0.24445 0.17602 0.0
H5145 H 0.38438 0.26903 0.1523 0.0
H5146 H 0.40092 0.26719 0.17517 0.0
H5147 H 0.3868 0.24759 0.16479 0.0
C5148 C 0.39505 0.23953 0.16905 0.0
C5149 C 0.40241 0.23844 0.17211 0.0
C5150 C 0.39723 0.26762 0.1702 0.0
C5151 C 0.39716 0.25325 0.1687 0.0
C5152 C 0.39482 0.27485 0.16768 0.0
C5153 C 0.39011 0.27552 0.1612 0.0
C5154 C 0.39472 0.26103 0.16632 0.0
C5155 C 0.38783 0.26878 0.15744 0.0
C5156 C 0.39244 0.24689 0.1673 0.0
C5157 C 0.4069 0.24499 0.17358 0.0
N5158 N 0.3901 0.26183 0.16009 0.0
N5159 N 0.40421 0.25212 0.17186 0.0
H5160 H 0.02836 0.87477 0.12407 0.0
H5161 H 0.99007 0.86213 0.10217 0.0
H5162 H 0.02835 0.86644 0.1008 0.0
H5163 H 0.99006 0.87498 0.1232 0.0
H5164 H 1.00414 0.86328 0.1016 0.0
H5165 H 0.01431 0.87451 0.12403 0.0
C5166 C 0.02538 0.87288 0.11897 0.0
C5167 C 0.02948 0.87066 0.11242 0.0
C5168 C 1.00106 0.86592 0.10631 0.0
C5169 C 0.01346 0.87025 0.11234 0.0
C5170 C 0.99308 0.86526 0.1066 0.0
C5171 C 0.98904 0.86853 0.11269 0.0
C5172 C 0.00496 0.86979 0.11222 0.0
C5173 C 0.99308 0.87246 0.1184 0.0
C5174 C 0.01737 0.87276 0.11893 0.0
C5175 C 0.02537 0.86826 0.10594 0.0
N5176 N 1.00084 0.87296 0.11805 0.0
N5177 N 0.01758 0.86808 0.10607 0.0
H5178 H 0.40259 0.77144 0.35006 0.0
H5179 H 0.39152 0.72913 0.336 0.0
H5180 H 0.40187 0.76565 0.32605 0.0
H5181 H 0.38847 0.73759 0.35895 0.0
H5182 H 0.39588 0.74201 0.33197 0.0
H5183 H 0.39796 0.75869 0.35321 0.0
C5184 C 0.40144 0.76745 0.34544 0.0
C5185 C 0.40262 0.76961 0.33779 0.0
C5186 C 0.39422 0.74105 0.33788 0.0
C5187 C 0.3973 0.75486 0.34136 0.0
C5188 C 0.39176 0.73373 0.34016 0.0
C5189 C 0.38961 0.73239 0.34779 0.0
C5190 C 0.39457 0.747 0.34332 0.0
C5191 C 0.39003 0.73846 0.35301 0.0
C5192 C 0.39877 0.76016 0.34723 0.0
C5193 C 0.40098 0.76422 0.33202 0.0
N5194 N 0.39245 0.74547 0.35069 0.0
N5195 N 0.39844 0.75705 0.33392 0.0
H5196 H 0.47962 0.15099 0.61271 0.0
H5197 H 0.51901 0.12867 0.61606 0.0
H5198 H 0.48087 0.12629 0.61169 0.0
H5199 H 0.51772 0.15195 0.60796 0.0
H5200 H 0.50509 0.12765 0.61508 0.0
H5201 H 0.4936 0.15158 0.61217 0.0
C5202 C 0.48282 0.14568 0.61242 0.0
C5203 C 0.47902 0.13857 0.61226 0.0
C5204 C 0.50785 0.13297 0.61347 0.0
C5205 C 0.49506 0.13924 0.61152 0.0
C5206 C 0.51581 0.13353 0.61394 0.0
C5207 C 0.51954 0.14041 0.61209 0.0
C5208 C 0.50355 0.13942 0.61135 0.0
C5209 C 0.51506 0.1466 0.6096 0.0
C5210 C 0.4908 0.14604 0.61201 0.0
C5211 C 0.48351 0.1319 0.61174 0.0
N5212 N 0.50729 0.146 0.60941 0.0
N5213 N 0.49129 0.1324 0.61143 0.0
H5214 H 0.10748 0.24157 0.8258 0.0
H5215 H 0.11863 0.27132 0.85914 0.0
H5216 H 0.10397 0.23777 0.84997 0.0
H5217 H 0.118 0.27818 0.83548 0.0
H5218 H 0.11411 0.25857 0.85549 0.0
H5219 H 0.11217 0.25461 0.82875 0.0
C5220 C 0.10773 0.24346 0.83171 0.0
C5221 C 0.10529 0.23858 0.83765 0.0
C5222 C 0.11493 0.26283 0.85105 0.0
C5223 C 0.11065 0.2534 0.84105 0.0
C5224 C 0.11753 0.27008 0.85315 0.0
C5225 C 0.11867 0.27572 0.84759 0.0
C5226 C 0.11348 0.26116 0.84329 0.0
C5227 C 0.11715 0.27392 0.8399 0.0
C5228 C 0.11036 0.2509 0.83338 0.0
C5229 C 0.10569 0.24134 0.8452 0.0
N5230 N 0.11464 0.26676 0.83795 0.0
N5231 N 0.10832 0.24851 0.84666 0.0
H5232 H 0.4078 0.02897 0.13399 0.0
H5233 H 0.38314 0.99112 0.143 0.0
H5234 H 0.38398 0.02861 0.1407 0.0
H5235 H 0.40673 0.98983 0.13587 0.0
H5236 H 0.38362 0.00502 0.14185 0.0
H5237 H 0.40774 0.01484 0.13386 0.0
C5238 C 0.40255 0.02596 0.13537 0.0
C5239 C 0.39593 0.03005 0.13751 0.0
C5240 C 0.38872 1.00175 0.14049 0.0
C5241 C 0.39586 0.01389 0.13748 0.0
C5242 C 0.38844 0.99381 0.1412 0.0
C5243 C 0.39493 0.98935 0.13964 0.0
C5244 C 0.39552 0.00535 0.13806 0.0
C5245 C 0.40161 0.99309 0.13714 0.0
C5246 C 0.40254 0.01789 0.13536 0.0
C5247 C 0.38931 0.02579 0.13924 0.0
N5248 N 0.40175 1.0009 0.13644 0.0
N5249 N 0.38947 0.01801 0.13924 0.0
H5250 H 0.23903 0.15901 0.40821 0.0
H5251 H 0.27678 0.17213 0.38538 0.0
H5252 H 0.24073 0.18129 0.39763 0.0
H5253 H 0.27322 0.14982 0.39518 0.0
H5254 H 0.26397 0.17607 0.39004 0.0
H5255 H 0.25184 0.15602 0.40378 0.0
C5256 C 0.24213 0.16333 0.405 0.0
C5257 C 0.23877 0.17046 0.40338 0.0
C5258 C 0.26599 0.17032 0.39117 0.0
C5259 C 0.2536 0.16696 0.3981 0.0
C5260 C 0.27326 0.16809 0.38852 0.0
C5261 C 0.27595 0.16066 0.38993 0.0
C5262 C 0.26143 0.16503 0.39522 0.0
C5263 C 0.27128 0.15559 0.39401 0.0
C5264 C 0.24947 0.16158 0.40241 0.0
C5265 C 0.24306 0.17571 0.399 0.0
N5266 N 0.26426 0.15786 0.3965 0.0
N5267 N 0.25027 0.17387 0.39652 0.0
H5268 H 0.11794 0.97917 0.6494 0.0
H5269 H 0.10285 0.01882 0.63301 0.0
H5270 H 0.10595 0.97938 0.62775 0.0
H5271 H 0.1242 0.01619 0.64514 0.0
H5272 H 0.10183 0.0047 0.63215 0.0
H5273 H 0.1179 0.99308 0.64945 0.0
C5274 C 0.11534 0.98212 0.6446 0.0
C5275 C 0.11212 0.97801 0.63845 0.0
C5276 C 0.1067 0.00726 0.63503 0.0
C5277 C 0.11188 0.99413 0.63863 0.0
C5278 C 0.10729 0.01529 0.63551 0.0
C5279 C 0.11355 0.0187 0.63929 0.0
C5280 C 0.11231 1.00266 0.63852 0.0
C5281 C 0.11915 0.01385 0.64242 0.0
C5282 C 0.11528 0.9901 0.64467 0.0
C5283 C 0.10854 0.98227 0.63259 0.0
N5284 N 0.11834 0.00612 0.64205 0.0
N5285 N 0.10853 0.99011 0.6328 0.0
H5286 H 0.26448 0.82573 0.90371 0.0
H5287 H 0.23726 0.85937 0.88838 0.0
H5288 H 0.27077 0.84966 0.90296 0.0
H5289 H 0.22928 0.83622 0.89122 0.0
H5290 H 0.24985 0.85557 0.8932 0.0
H5291 H 0.25175 0.8291 0.89879 0.0
C5292 C 0.26319 0.83169 0.90253 0.0
C5293 C 0.26873 0.83742 0.90377 0.0
C5294 C 0.24538 0.85128 0.89277 0.0
C5295 C 0.25418 0.8413 0.89817 0.0
C5296 C 0.23824 0.85345 0.88996 0.0
C5297 C 0.23234 0.84806 0.88934 0.0
C5298 C 0.24662 0.84365 0.89504 0.0
C5299 C 0.23376 0.84049 0.89161 0.0
C5300 C 0.25592 0.8336 0.89975 0.0
C5301 C 0.26669 0.84504 0.90222 0.0
N5302 N 0.24079 0.83849 0.89437 0.0
N5303 N 0.25961 0.84674 0.89949 0.0
H5304 H 0.39027 0.97955 0.35869 0.0
H5305 H 0.40647 0.0188 0.37355 0.0
H5306 H 0.40033 0.98062 0.38133 0.0
H5307 H 0.38411 0.01742 0.3631 0.0
H5308 H 0.40652 0.00478 0.37481 0.0
H5309 H 0.39019 0.99349 0.35828 0.0
C5310 C 0.3924 0.98264 0.36362 0.0
C5311 C 0.39528 0.97876 0.37009 0.0
C5312 C 0.40164 0.0076 0.37221 0.0
C5313 C 0.39549 0.99484 0.36943 0.0
C5314 C 0.40156 0.0156 0.37156 0.0
C5315 C 0.39527 0.01934 0.3682 0.0
C5316 C 0.39552 1.00331 0.36921 0.0
C5317 C 0.38917 0.0148 0.36552 0.0
C5318 C 0.39242 0.99063 0.36332 0.0
C5319 C 0.39819 0.98326 0.37615 0.0
N5320 N 0.3895 0.00704 0.36597 0.0
N5321 N 0.39828 0.99104 0.37565 0.0
H5322 H 0.26962 0.17966 0.61431 0.0
H5323 H 0.23251 0.15306 0.60848 0.0
H5324 H 0.26765 0.16132 0.59776 0.0
H5325 H 0.23459 0.16853 0.6276 0.0
H5326 H 0.24501 0.15724 0.60383 0.0
H5327 H 0.25662 0.17666 0.61883 0.0
C5328 C 0.26651 0.17503 0.6116 0.0
C5329 C 0.26984 0.1708 0.60556 0.0
C5330 C 0.24277 0.15977 0.60904 0.0
C5331 C 0.25485 0.16743 0.61067 0.0
C5332 C 0.23559 0.15742 0.61165 0.0
C5333 C 0.2325 0.16051 0.61838 0.0
C5334 C 0.24699 0.16522 0.61322 0.0
C5335 C 0.23681 0.16601 0.62238 0.0
C5336 C 0.25905 0.17335 0.61417 0.0
C5337 C 0.26539 0.16492 0.60227 0.0
N5338 N 0.24386 0.16819 0.61975 0.0
N5339 N 0.25819 0.16345 0.60485 0.0
H5340 H 0.11803 0.02859 0.85891 0.0
H5341 H 0.10307 0.98905 0.87581 0.0
H5342 H 0.10757 0.02753 0.88138 0.0
H5343 H 0.12321 0.99086 0.86159 0.0
H5344 H 0.10266 1.00314 0.87667 0.0
H5345 H 0.11799 0.01467 0.85842 0.0
C5346 C 0.11578 0.02549 0.86379 0.0
C5347 C 0.11284 0.02937 0.87023 0.0
C5348 C 0.10712 1.00041 0.87332 0.0
C5349 C 0.11254 0.01329 0.86952 0.0
C5350 C 0.10737 0.99239 0.87286 0.0
C5351 C 0.11314 0.98876 0.86856 0.0
C5352 C 0.11256 0.00479 0.8693 0.0
C5353 C 0.11851 0.99339 0.86475 0.0
C5354 C 0.11571 0.01751 0.86345 0.0
C5355 C 0.1098 0.02488 0.87623 0.0
N5356 N 0.11806 1.00114 0.86516 0.0
N5357 N 0.10969 0.01709 0.87571 0.0
H5358 H 0.23637 0.83445 0.1175 0.0
H5359 H 0.27657 0.85301 0.10717 0.0
H5360 H 0.2439 0.83847 0.09423 0.0
H5361 H 0.27335 0.84067 0.1283 0.0
H5362 H 0.26423 0.84826 0.10263 0.0
H5363 H 0.24947 0.83695 0.12192 0.0
C5364 C 0.24074 0.83577 0.11329 0.0
C5365 C 0.23887 0.8364 0.10545 0.0
C5366 C 0.26622 0.84653 0.10824 0.0
C5367 C 0.25388 0.83948 0.11057 0.0
C5368 C 0.27331 0.8492 0.11081 0.0
C5369 C 0.27605 0.84716 0.11809 0.0
C5370 C 0.26168 0.84194 0.11306 0.0
C5371 C 0.27142 0.84242 0.12268 0.0
C5372 C 0.24823 0.83724 0.11585 0.0
C5373 C 0.24487 0.83818 0.10035 0.0
N5374 N 0.26443 0.84002 0.12012 0.0
N5375 N 0.25203 0.83976 0.103 0.0
H5376 H 0.1506 0.39124 0.02889 0.0
H5377 H 0.13286 0.40553 0.98926 0.0
H5378 H 0.1285 0.40234 0.02821 0.0
H5379 H 0.14755 0.38582 0.99135 0.0
H5380 H 0.13256 0.40661 1.00337 0.0
H5381 H 0.15108 0.39155 0.01496 0.0
C5382 C 0.14581 0.39371 0.02582 0.0
C5383 C 0.13941 0.39661 0.02979 0.0
C5384 C 0.13588 0.40209 1.00071 0.0
C5385 C 0.14006 0.39716 0.0137 0.0
C5386 C 0.13602 0.40145 0.99269 0.0
C5387 C 0.14011 0.39548 0.98915 0.0
C5388 C 0.14012 0.3969 0.00517 0.0
C5389 C 0.14436 0.39052 0.99383 0.0
C5390 C 0.14612 0.39392 0.01785 0.0
C5391 C 0.13354 0.40001 0.02543 0.0
N5392 N 0.14427 0.39135 1.00157 0.0
N5393 N 0.13398 0.40017 0.01761 0.0
H5394 H 0.64115 0.09981 0.97965 0.0
H5395 H 0.63378 0.12259 0.01872 0.0
H5396 H 0.63561 0.12388 0.98042 0.0
H5397 H 0.64618 0.10132 0.01786 0.0
H5398 H 0.63269 0.12243 0.00469 0.0
H5399 H 0.64148 0.09957 0.99368 0.0
C5400 C 0.63996 0.10503 0.98279 0.0
C5401 C 0.6383 0.11186 0.97889 0.0
C5402 C 0.63562 0.11778 0.00755 0.0
C5403 C 0.63867 0.11164 0.99491 0.0
C5404 C 0.63619 0.11786 0.01552 0.0
C5405 C 0.64004 0.11194 0.01932 0.0
C5406 C 0.6389 0.11171 1.0034 0.0
C5407 C 0.64315 0.10594 0.01504 0.0
C5408 C 0.64019 0.1049 0.99078 0.0
C5409 C 0.63693 0.1185 0.98321 0.0
N5410 N 0.64252 0.10596 0.00726 0.0
N5411 N 0.63709 0.11821 0.991 0.0
H5412 H 0.16526 0.39254 0.2347 0.0
H5413 H 0.17175 0.39572 0.27994 0.0
H5414 H 0.17846 0.41098 0.24454 0.0
H5415 H 0.15201 0.38508 0.2696 0.0
H5416 H 0.17594 0.39999 0.26714 0.0
H5417 H 0.16219 0.38802 0.24761 0.0
C5418 C 0.16762 0.39556 0.23959 0.0
C5419 C 0.17214 0.40212 0.23855 0.0
C5420 C 0.17071 0.39668 0.2677 0.0
C5421 C 0.16863 0.397 0.25336 0.0
C5422 C 0.16831 0.39429 0.27498 0.0
C5423 C 0.16156 0.38999 0.27581 0.0
C5424 C 0.16638 0.39463 0.26122 0.0
C5425 C 0.15735 0.38819 0.2692 0.0
C5426 C 0.16581 0.39302 0.24695 0.0
C5427 C 0.17494 0.4059 0.2451 0.0
N5428 N 0.15985 0.39047 0.26219 0.0
N5429 N 0.17315 0.40328 0.25224 0.0
H5430 H 0.86794 0.90805 0.48035 0.0
H5431 H 0.87463 0.88374 0.51866 0.0
H5432 H 0.87255 0.88377 0.48043 0.0
H5433 H 0.8643 0.9061 0.51874 0.0
H5434 H 0.87533 0.88418 0.50461 0.0
H5435 H 0.86782 0.90795 0.49439 0.0
C5436 C 0.86897 0.9027 0.48334 0.0
C5437 C 0.87032 0.89592 0.47923 0.0
C5438 C 0.87294 0.88902 0.50767 0.0
C5439 C 0.87017 0.89576 0.49527 0.0
C5440 C 0.8726 0.88878 0.51565 0.0
C5441 C 0.86948 0.89493 0.51974 0.0
C5442 C 0.87013 0.89547 0.50378 0.0
C5443 C 0.86681 0.90131 0.5157 0.0
C5444 C 0.86886 0.90264 0.49134 0.0
C5445 C 0.87147 0.88913 0.48337 0.0
N5446 N 0.86719 0.90143 0.50791 0.0
N5447 N 0.87142 0.88923 0.49117 0.0
H5448 H 0.84363 0.11533 0.23403 0.0
H5449 H 0.83723 0.11206 0.27942 0.0
H5450 H 0.82963 0.09759 0.24401 0.0
H5451 H 0.85671 0.12307 0.26898 0.0
H5452 H 0.83278 0.10815 0.26658 0.0
H5453 H 0.84679 0.11991 0.24692 0.0
C5454 C 0.84112 0.11249 0.23895 0.0
C5455 C 0.83635 0.1061 0.23797 0.0
C5456 C 0.838 0.11147 0.26712 0.0
C5457 C 0.83994 0.11128 0.25274 0.0
C5458 C 0.84053 0.11368 0.27442 0.0
C5459 C 0.8473 0.11794 0.27523 0.0
C5460 C 0.84224 0.11363 0.26061 0.0
C5461 C 0.85137 0.11994 0.26859 0.0
C5462 C 0.84297 0.11506 0.2463 0.0
C5463 C 0.83335 0.10253 0.24454 0.0
N5464 N 0.84877 0.1178 0.26157 0.0
N5465 N 0.83518 0.10518 0.25166 0.0
H5466 H 0.371 0.59965 0.52893 0.0
H5467 H 0.36865 0.62559 0.49103 0.0
H5468 H 0.37149 0.62437 0.52861 0.0
H5469 H 0.3706 0.60106 0.48983 0.0
H5470 H 0.36976 0.62495 0.50497 0.0
H5471 H 0.37124 0.59967 0.51481 0.0
C5472 C 0.37123 0.60507 0.52593 0.0
C5473 C 0.37109 0.61203 0.53003 0.0
C5474 C 0.36998 0.61967 0.50171 0.0
C5475 C 0.37124 0.61208 0.51387 0.0
C5476 C 0.36932 0.62006 0.49377 0.0
C5477 C 0.36949 0.61337 0.48935 0.0
C5478 C 0.3708 0.61252 0.50534 0.0
C5479 C 0.37044 0.60632 0.4931 0.0
C5480 C 0.37131 0.60507 0.51786 0.0
C5481 C 0.37137 0.61886 0.52577 0.0
N5482 N 0.37103 0.60606 0.50091 0.0
N5483 N 0.37137 0.6187 0.51799 0.0
H5484 H 0.17589 0.61708 0.27146 0.0
H5485 H 0.15422 0.60879 0.2324 0.0
H5486 H 0.16826 0.5945 0.2647 0.0
H5487 H 0.17025 0.62748 0.23416 0.0
H5488 H 0.15863 0.60399 0.24478 0.0
H5489 H 0.17353 0.62154 0.25835 0.0
C5490 C 0.17379 0.61302 0.26727 0.0
C5491 C 0.17211 0.6054 0.26937 0.0
C5492 C 0.16121 0.60914 0.24247 0.0
C5493 C 0.16918 0.61059 0.25436 0.0
C5494 C 0.15871 0.61186 0.23539 0.0
C5495 C 0.16184 0.61857 0.23226 0.0
C5496 C 0.16678 0.61324 0.2466 0.0
C5497 C 0.16754 0.62241 0.23645 0.0
C5498 C 0.1724 0.6156 0.25978 0.0
C5499 C 0.16937 0.60049 0.26357 0.0
N5500 N 0.16978 0.61974 0.24346 0.0
N5501 N 0.16789 0.60319 0.25642 0.0
H5502 H 0.34009 0.41447 0.76484 0.0
H5503 H 0.33938 0.38074 0.73404 0.0
H5504 H 0.33391 0.39141 0.77146 0.0
H5505 H 0.35518 0.39968 0.73318 0.0
H5506 H 0.33496 0.3852 0.74673 0.0
H5507 H 0.34309 0.40985 0.75206 0.0
C5508 C 0.33938 0.40842 0.76368 0.0
C5509 C 0.33695 0.40331 0.76944 0.0
C5510 C 0.33936 0.38838 0.74372 0.0
C5511 C 0.34012 0.39804 0.75452 0.0
C5512 C 0.34189 0.38584 0.73652 0.0
C5513 C 0.3476 0.38989 0.73256 0.0
C5514 C 0.34251 0.39509 0.74689 0.0
C5515 C 0.35065 0.39649 0.73598 0.0
C5516 C 0.34105 0.40581 0.75631 0.0
C5517 C 0.33579 0.3956 0.7673 0.0
N5518 N 0.34804 0.39891 0.74291 0.0
N5519 N 0.33741 0.39319 0.76003 0.0
H5520 H 0.98007 0.87051 0.62371 0.0
H5521 H 0.01945 0.86874 0.59994 0.0
H5522 H 0.98051 0.86964 0.59898 0.0
H5523 H 0.01788 0.8695 0.62453 0.0
H5524 H 0.00534 0.86979 0.59915 0.0
H5525 H 0.99398 0.87087 0.62384 0.0
C5526 C 0.98308 0.8704 0.61828 0.0
C5527 C 0.97905 0.8699 0.61132 0.0
C5528 C 0.00808 0.86974 0.60471 0.0
C5529 C 0.99517 0.87042 0.61144 0.0
C5530 C 0.0161 0.86915 0.60515 0.0
C5531 C 0.01974 0.86898 0.61231 0.0
C5532 C 1.00373 0.87015 0.6115 0.0
C5533 C 0.01523 0.86955 0.61892 0.0
C5534 C 0.99107 0.87064 0.61836 0.0
C5535 C 0.98335 0.87001 0.60449 0.0
N5536 N 0.00748 0.87007 0.61836 0.0
N5537 N 0.99117 0.8702 0.60471 0.0
H5538 H 0.90135 0.24312 0.32481 0.0
H5539 H 0.89543 0.27303 0.35922 0.0
H5540 H 0.90705 0.2385 0.34848 0.0
H5541 H 0.88762 0.27737 0.33626 0.0
H5542 H 0.90019 0.26046 0.35514 0.0
H5543 H 0.89667 0.25576 0.32862 0.0
C5544 C 0.90163 0.24472 0.3308 0.0
C5545 C 0.90461 0.23965 0.33631 0.0
C5546 C 0.89743 0.26412 0.35097 0.0
C5547 C 0.89938 0.25423 0.34068 0.0
C5548 C 0.89473 0.27126 0.35331 0.0
C5549 C 0.89117 0.27612 0.34804 0.0
C5550 C 0.89656 0.26184 0.34328 0.0
C5551 C 0.89036 0.27369 0.34044 0.0
C5552 C 0.89898 0.25198 0.33296 0.0
C5553 C 0.90494 0.24219 0.34396 0.0
N5554 N 0.89304 0.26669 0.33826 0.0
N5555 N 0.90237 0.24927 0.3459 0.0
H5556 H 0.52742 0.12609 0.1071 0.0
H5557 H 0.4901 0.15165 0.11016 0.0
H5558 H 0.52795 0.14888 0.11671 0.0
H5559 H 0.4891 0.12738 0.11481 0.0
H5560 H 0.50407 0.1509 0.1102 0.0
H5561 H 0.51333 0.12655 0.10726 0.0
C5562 C 0.52459 0.13118 0.10925 0.0
C5563 C 0.52889 0.13746 0.11192 0.0
C5564 C 0.50075 0.14573 0.11111 0.0
C5565 C 0.51283 0.13802 0.11202 0.0
C5566 C 0.49276 0.14616 0.1112 0.0
C5567 C 0.4883 0.13961 0.11266 0.0
C5568 C 0.50436 0.13861 0.11202 0.0
C5569 C 0.49219 0.13258 0.11351 0.0
C5570 C 0.51657 0.13141 0.10937 0.0
C5571 C 0.52489 0.14388 0.11469 0.0
N5572 N 0.49997 0.13225 0.1131 0.0
N5573 N 0.5171 0.14402 0.11461 0.0
H5574 H 0.60766 0.76656 0.82523 0.0
H5575 H 0.61504 0.73611 0.85913 0.0
H5576 H 0.60248 0.77027 0.84913 0.0
H5577 H 0.61965 0.73064 0.83555 0.0
H5578 H 0.61069 0.74886 0.85526 0.0
H5579 H 0.61244 0.75365 0.82849 0.0
C5580 C 0.60755 0.7647 0.83115 0.0
C5581 C 0.60457 0.76953 0.8369 0.0
C5582 C 0.61264 0.74492 0.85088 0.0
C5583 C 0.61002 0.75477 0.84066 0.0
C5584 C 0.61512 0.73766 0.85311 0.0
C5585 C 0.61769 0.7324 0.84764 0.0
C5586 C 0.61273 0.74699 0.84308 0.0
C5587 C 0.61771 0.7346 0.8399 0.0
C5588 C 0.61024 0.75731 0.833 0.0
C5589 C 0.60456 0.76675 0.84446 0.0
N5590 N 0.61526 0.74175 0.83783 0.0
N5591 N 0.60721 0.75962 0.84609 0.0
H5592 H 0.97983 0.13024 0.90631 0.0
H5593 H 0.01751 0.14385 0.88433 0.0
H5594 H 0.98008 0.14774 0.88881 0.0
H5595 H 0.01883 0.13561 0.90756 0.0
H5596 H 1.00355 0.14334 0.88505 0.0
H5597 H 0.99395 0.13027 0.9062 0.0
C5598 C 0.9828 0.13409 0.90246 0.0
C5599 C 0.97867 0.13892 0.89748 0.0
C5600 C 0.00687 0.14162 0.89 0.0
C5601 C 0.9948 0.13887 0.89726 0.0
C5602 C 0.01484 0.14196 0.8896 0.0
C5603 C 0.01932 0.13987 0.89592 0.0
C5604 C 1.00331 0.139 0.89672 0.0
C5605 C 0.01557 0.13721 0.90254 0.0
C5606 C 0.99086 0.13408 0.90239 0.0
C5607 C 0.98291 0.14374 0.89259 0.0
N5608 N 0.00776 0.13683 0.90278 0.0
N5609 N 0.99069 0.14355 0.89258 0.0
H5610 H 0.59846 0.23918 0.66029 0.0
H5611 H 0.62399 0.2758 0.67145 0.0
H5612 H 0.61075 0.24046 0.68172 0.0
H5613 H 0.61034 0.2738 0.65104 0.0
H5614 H 0.61952 0.26298 0.67554 0.0
H5615 H 0.60298 0.25189 0.65704 0.0
C5616 C 0.60205 0.24216 0.66438 0.0
C5617 C 0.6041 0.23871 0.67137 0.0
C5618 C 0.61748 0.26535 0.67018 0.0
C5619 C 0.60952 0.25343 0.66753 0.0
C5620 C 0.62003 0.27263 0.66787 0.0
C5621 C 0.61746 0.2758 0.66094 0.0
C5622 C 0.61237 0.26124 0.66547 0.0
C5623 C 0.61238 0.27154 0.65644 0.0
C5624 C 0.6047 0.24944 0.66248 0.0
C5625 C 0.60902 0.24285 0.67627 0.0
N5626 N 0.61001 0.2645 0.65877 0.0
N5627 N 0.61155 0.24999 0.67427 0.0
H5628 H 0.52852 0.86634 0.38463 0.0
H5629 H 0.4891 0.87169 0.40767 0.0
H5630 H 0.52759 0.87301 0.40847 0.0
H5631 H 0.4905 0.8662 0.38366 0.0
H5632 H 0.50317 0.87265 0.40813 0.0
H5633 H 0.51457 0.8664 0.38423 0.0
C5634 C 0.52541 0.8678 0.3898 0.0
C5635 C 0.5293 0.86966 0.39661 0.0
C5636 C 0.5004 0.87124 0.40276 0.0
C5637 C 0.51322 0.86985 0.39614 0.0
C5638 C 0.4924 0.87072 0.40251 0.0
C5639 C 0.48872 0.86877 0.39564 0.0
C5640 C 0.50471 0.86976 0.39609 0.0
C5641 C 0.49319 0.86758 0.38908 0.0
C5642 C 0.51741 0.86789 0.38955 0.0
C5643 C 0.52488 0.87164 0.40306 0.0
N5644 N 0.50094 0.86803 0.38947 0.0
N5645 N 0.51709 0.87167 0.40267 0.0
H5646 H 0.90783 0.7701 0.15964 0.0
H5647 H 0.88701 0.73139 0.17326 0.0
H5648 H 0.89991 0.7671 0.18289 0.0
H5649 H 0.89542 0.73568 0.1505 0.0
H5650 H 0.89153 0.74424 0.17723 0.0
H5651 H 0.90322 0.7574 0.1565 0.0
C5652 C 0.90517 0.76675 0.16413 0.0
C5653 C 0.90438 0.7697 0.17159 0.0
C5654 C 0.8924 0.74236 0.17137 0.0
C5655 C 0.89888 0.75497 0.16794 0.0
C5656 C 0.88983 0.73506 0.16913 0.0
C5657 C 0.89091 0.73255 0.16158 0.0
C5658 C 0.89604 0.74714 0.16597 0.0
C5659 C 0.89454 0.73745 0.15638 0.0
C5660 C 0.90248 0.75946 0.16231 0.0
C5661 C 0.90065 0.76509 0.17707 0.0
N5662 N 0.89697 0.74449 0.15867 0.0
N5663 N 0.89806 0.75794 0.17514 0.0
H5664 H 0.59959 0.9798 0.86462 0.0
H5665 H 0.62258 0.01766 0.87718 0.0
H5666 H 0.62166 0.9795 0.87578 0.0
H5667 H 0.60308 0.0182 0.86213 0.0
H5668 H 0.62141 1.00366 0.87804 0.0
H5669 H 0.59977 0.99385 0.86503 0.0
C5670 C 0.60443 0.98267 0.86725 0.0
C5671 C 0.61064 0.97844 0.87013 0.0
C5672 C 0.61734 0.00682 0.87459 0.0
C5673 C 0.61091 0.99453 0.87056 0.0
C5674 C 0.61799 0.01478 0.87415 0.0
C5675 C 0.61286 0.019 0.86967 0.0
C5676 C 0.6115 1.00305 0.8705 0.0
C5677 C 0.60708 0.01508 0.86569 0.0
C5678 C 0.60456 0.9907 0.86742 0.0
C5679 C 0.61679 0.98251 0.87339 0.0
N5680 N 0.60654 0.00731 0.8662 0.0
N5681 N 0.61677 0.9903 0.8735 0.0
H5682 H 0.7739 0.83982 0.61586 0.0
H5683 H 0.72845 0.8379 0.61117 0.0
H5684 H 0.76353 0.83179 0.5949 0.0
H5685 H 0.7398 0.85586 0.6238 0.0
H5686 H 0.74102 0.83334 0.60672 0.0
H5687 H 0.76113 0.84318 0.62071 0.0
C5688 C 0.76894 0.83865 0.61232 0.0
C5689 C 0.76981 0.83553 0.60495 0.0
C5690 C 0.74073 0.83824 0.61052 0.0
C5691 C 0.75517 0.83938 0.61047 0.0
C5692 C 0.73357 0.84088 0.61302 0.0
C5693 C 0.73304 0.8473 0.61786 0.0
C5694 C 0.74744 0.84189 0.61307 0.0
C5695 C 0.7399 0.8508 0.62022 0.0
C5696 C 0.76166 0.84063 0.61507 0.0
C5697 C 0.76314 0.83424 0.60059 0.0
N5698 N 0.7468 0.84803 0.61786 0.0
N5699 N 0.75611 0.83615 0.60342 0.0
H5700 H 0.88705 0.02864 0.37681 0.0
H5701 H 0.90593 0.98949 0.36219 0.0
H5702 H 0.90886 0.02795 0.36515 0.0
H5703 H 0.8866 0.9905 0.37746 0.0
H5704 H 0.90727 1.00352 0.36314 0.0
H5705 H 0.88691 0.01466 0.37712 0.0
C5706 C 0.89184 0.02554 0.37435 0.0
C5707 C 0.89796 0.0295 0.37091 0.0
C5708 C 0.90279 1.00068 0.36636 0.0
C5709 C 0.89782 0.0134 0.37123 0.0
C5710 C 0.90205 0.9927 0.36582 0.0
C5711 C 0.89623 0.98892 0.36985 0.0
C5712 C 0.89758 0.00487 0.37088 0.0
C5713 C 0.89122 0.99326 0.37437 0.0
C5714 C 0.89177 0.01755 0.37455 0.0
C5715 C 0.90405 0.02515 0.3679 0.0
N5716 N 0.89199 1.00101 0.37474 0.0
N5717 N 0.90379 0.01734 0.36806 0.0
H5718 H 0.73595 0.17032 0.11656 0.0
H5719 H 0.78067 0.17023 0.11115 0.0
H5720 H 0.74522 0.17305 0.09379 0.0
H5721 H 0.76956 0.15227 0.124 0.0
H5722 H 0.7681 0.17426 0.10628 0.0
H5723 H 0.74874 0.16678 0.12119 0.0
C5724 C 0.7407 0.17022 0.11255 0.0
C5725 C 0.73955 0.17199 0.1048 0.0
C5726 C 0.76846 0.16947 0.1102 0.0
C5727 C 0.75415 0.16804 0.11007 0.0
C5728 C 0.77562 0.16712 0.11293 0.0
C5729 C 0.77621 0.16082 0.11792 0.0
C5730 C 0.76183 0.16571 0.11274 0.0
C5731 C 0.7694 0.15723 0.12029 0.0
C5732 C 0.74796 0.16817 0.11519 0.0
C5733 C 0.74588 0.17169 0.09982 0.0
N5734 N 0.76249 0.15977 0.11774 0.0
N5735 N 0.75295 0.16982 0.10255 0.0
H5736 H 0.6169 0.02819 0.65048 0.0
H5737 H 0.61178 0.98881 0.628 0.0
H5738 H 0.60805 0.02743 0.62738 0.0
H5739 H 0.61423 0.99104 0.65262 0.0
H5740 H 0.61065 1.00266 0.62722 0.0
H5741 H 0.6171 0.01428 0.65073 0.0
C5742 C 0.61506 0.02511 0.64542 0.0
C5743 C 0.61243 0.02903 0.6389 0.0
C5744 C 0.61146 1.00001 0.63277 0.0
C5745 C 0.61254 0.01297 0.63919 0.0
C5746 C 0.61196 0.99201 0.63329 0.0
C5747 C 0.61301 0.9883 0.64044 0.0
C5748 C 0.61243 0.00446 0.63938 0.0
C5749 C 0.61364 0.99312 0.64691 0.0
C5750 C 0.6151 0.01713 0.64559 0.0
C5751 C 0.61002 0.02466 0.63257 0.0
N5752 N 0.61343 1.00085 0.64619 0.0
N5753 N 0.61013 0.01685 0.63286 0.0
H5754 H 0.73677 0.84865 0.40299 0.0
H5755 H 0.77981 0.83625 0.39316 0.0
H5756 H 0.74435 0.82513 0.40444 0.0
H5757 H 0.77017 0.85828 0.38777 0.0
H5758 H 0.76711 0.83193 0.39766 0.0
H5759 H 0.74927 0.85225 0.39806 0.0
C5760 C 0.74107 0.84423 0.40235 0.0
C5761 C 0.73947 0.83657 0.40424 0.0
C5762 C 0.76776 0.83769 0.39545 0.0
C5763 C 0.75387 0.84068 0.39834 0.0
C5764 C 0.77497 0.84013 0.3929 0.0
C5765 C 0.77593 0.84758 0.39009 0.0
C5766 C 0.76154 0.84282 0.3953 0.0
C5767 C 0.76958 0.85247 0.38986 0.0
C5768 C 0.74822 0.84629 0.39943 0.0
C5769 C 0.74528 0.8311 0.40303 0.0
N5770 N 0.76267 0.85002 0.39247 0.0
N5771 N 0.75223 0.83326 0.40018 0.0
H5772 H 0.89389 0.98014 0.12707 0.0
H5773 H 0.90393 0.01914 0.14869 0.0
H5774 H 0.89908 0.98094 0.15125 0.0
H5775 H 0.88861 0.01842 0.12936 0.0
H5776 H 0.90443 0.00507 0.14864 0.0
H5777 H 0.89409 0.99418 0.12674 0.0
C5778 C 0.89509 0.98327 0.1323 0.0
C5779 C 0.89649 0.97935 0.13919 0.0
C5780 C 0.90101 0.008 0.14437 0.0
C5781 C 0.89676 0.9954 0.13883 0.0
C5782 C 0.90073 0.016 0.1444 0.0
C5783 C 0.89621 0.0199 0.13904 0.0
C5784 C 0.89686 1.00389 0.13883 0.0
C5785 C 0.89225 0.0156 0.13352 0.0
C5786 C 0.89516 0.99127 0.13211 0.0
C5787 C 0.89792 0.98371 0.14582 0.0
N5788 N 0.89268 0.00782 0.13353 0.0
N5789 N 0.89807 0.9915 0.14547 0.0
H5790 H 0.76968 0.15988 0.90813 0.0
H5791 H 0.73189 0.17294 0.88537 0.0
H5792 H 0.76728 0.18276 0.89908 0.0
H5793 H 0.73489 0.15112 0.89638 0.0
H5794 H 0.74473 0.17688 0.88995 0.0
H5795 H 0.75697 0.15678 0.90349 0.0
C5796 C 0.76645 0.1643 0.90522 0.0
C5797 C 0.76958 0.17164 0.90412 0.0
C5798 C 0.74258 0.17124 0.89136 0.0
C5799 C 0.75484 0.16803 0.89858 0.0
C5800 C 0.73529 0.16901 0.88875 0.0
C5801 C 0.73242 0.16172 0.89052 0.0
C5802 C 0.747 0.16609 0.89572 0.0
C5803 C 0.73695 0.15679 0.89492 0.0
C5804 C 0.75916 0.1625 0.90251 0.0
C5805 C 0.76514 0.17702 0.90006 0.0
N5806 N 0.74399 0.15905 0.89735 0.0
N5807 N 0.75798 0.17512 0.89746 0.0
H5808 H 0.87258 0.62338 0.9793 0.0
H5809 H 0.86981 0.60037 0.019 0.0
H5810 H 0.86878 0.59895 0.98007 0.0
H5811 H 0.86959 0.62491 0.01697 0.0
H5812 H 0.87077 0.59933 0.0049 0.0
H5813 H 0.87295 0.62367 0.9932 0.0
C5814 C 0.87182 0.61805 0.98238 0.0
C5815 C 0.87049 0.61115 0.97844 0.0
C5816 C 0.87054 0.60494 0.00754 0.0
C5817 C 0.87105 0.61143 0.99454 0.0
C5818 C 0.87001 0.60551 0.01554 0.0
C5819 C 0.86959 0.61273 0.01904 0.0
C5820 C 0.87074 0.61166 1.00307 0.0
C5821 C 0.86987 0.61927 0.01442 0.0
C5822 C 0.87206 0.61822 0.99036 0.0
C5823 C 0.86981 0.60441 0.98282 0.0
N5824 N 0.87042 0.61858 0.00668 0.0
N5825 N 0.87005 0.60472 0.99064 0.0
H5826 H 0.37109 0.90993 0.0285 0.0
H5827 H 0.36884 0.88341 0.99102 0.0
H5828 H 0.37074 0.8852 0.02861 0.0
H5829 H 0.37188 0.90782 0.98945 0.0
H5830 H 0.36963 0.88426 0.00495 0.0
H5831 H 0.37183 0.90963 0.01441 0.0
C5832 C 0.37123 0.90444 0.0256 0.0
C5833 C 0.3707 0.89758 0.02981 0.0
C5834 C 0.37017 0.88946 1.00161 0.0
C5835 C 0.37142 0.89722 0.01368 0.0
C5836 C 0.36969 0.88896 0.99366 0.0
C5837 C 0.37025 0.89555 0.98914 0.0
C5838 C 0.37122 0.89663 0.00514 0.0
C5839 C 0.37145 0.90262 0.99279 0.0
C5840 C 0.3716 0.90429 0.01755 0.0
C5841 C 0.3709 0.89066 0.02568 0.0
N5842 N 0.37185 0.90299 1.00061 0.0
N5843 N 0.37117 0.89067 0.01791 0.0
H5844 H 0.84506 0.61181 0.77393 0.0
H5845 H 0.83678 0.61269 0.72864 0.0
H5846 H 0.82721 0.59821 0.76367 0.0
H5847 H 0.8574 0.6212 0.73922 0.0
H5848 H 0.83232 0.60822 0.74128 0.0
H5849 H 0.84861 0.61658 0.76122 0.0
C5850 C 0.84182 0.60993 0.76898 0.0
C5851 C 0.83579 0.6047 0.76983 0.0
C5852 C 0.83779 0.61112 0.74083 0.0
C5853 C 0.83988 0.61001 0.7552 0.0
C5854 C 0.84035 0.61363 0.73363 0.0
C5855 C 0.84743 0.61741 0.73291 0.0
C5856 C 0.84231 0.6125 0.74738 0.0
C5857 C 0.85183 0.61848 0.73955 0.0
C5858 C 0.84387 0.6126 0.76172 0.0
C5859 C 0.83184 0.60232 0.76323 0.0
N5860 N 0.84917 0.61612 0.74648 0.0
N5861 N 0.83395 0.60499 0.75618 0.0
H5862 H 0.13083 0.10188 0.5287 0.0
H5863 H 0.14319 0.12429 0.49091 0.0
H5864 H 0.14765 0.12008 0.52836 0.0
H5865 H 0.1368 0.10048 0.48973 0.0
H5866 H 0.14263 0.12365 0.5049 0.0
H5867 H 0.13088 0.10191 0.51459 0.0
C5868 C 0.13454 0.10587 0.52572 0.0
C5869 C 0.13917 0.11106 0.52983 0.0
C5870 C 0.14131 0.11856 0.50159 0.0
C5871 C 0.1391 0.1112 0.5137 0.0
C5872 C 0.14167 0.11892 0.49363 0.0
C5873 C 0.1401 0.11242 0.48918 0.0
C5874 C 0.1392 0.11168 0.50519 0.0
C5875 C 0.13796 0.10564 0.49296 0.0
C5876 C 0.13453 0.10589 0.51766 0.0
C5877 C 0.14378 0.11612 0.52556 0.0
N5878 N 0.13755 0.10544 0.50078 0.0
N5879 N 0.14358 0.1161 0.51779 0.0
H5880 H 0.16912 0.89236 0.77357 0.0
H5881 H 0.17037 0.89739 0.72817 0.0
H5882 H 0.17624 0.91371 0.76334 0.0
H5883 H 0.15257 0.88462 0.73963 0.0
H5884 H 0.17498 0.90186 0.74072 0.0
H5885 H 0.16576 0.88756 0.76079 0.0
C5886 C 0.17009 0.896 0.76864 0.0
C5887 C 0.17294 0.90348 0.76957 0.0
C5888 C 0.17011 0.89802 0.74046 0.0
C5889 C 0.16909 0.89799 0.75491 0.0
C5890 C 0.16743 0.89552 0.7333 0.0
C5891 C 0.16105 0.89062 0.7328 0.0
C5892 C 0.16654 0.89541 0.74719 0.0
C5893 C 0.15761 0.88823 0.73969 0.0
C5894 C 0.16811 0.89327 0.76136 0.0
C5895 C 0.17399 0.90795 0.76293 0.0
N5896 N 0.16043 0.89059 0.74657 0.0
N5897 N 0.17208 0.90514 0.75589 0.0
H5898 H 0.63922 0.38452 0.48011 0.0
H5899 H 0.63667 0.40791 0.51968 0.0
H5900 H 0.63741 0.40918 0.48064 0.0
H5901 H 0.64077 0.38368 0.5178 0.0
H5902 H 0.63581 0.40869 0.50555 0.0
H5903 H 0.6387 0.38428 0.49399 0.0
C5904 C 0.63872 0.38992 0.48313 0.0
C5905 C 0.63853 0.3969 0.47912 0.0
C5906 C 0.63688 0.40321 0.50824 0.0
C5907 C 0.63776 0.39664 0.49524 0.0
C5908 C 0.63734 0.40277 0.51627 0.0
C5909 C 0.63886 0.39574 0.51984 0.0
C5910 C 0.6379 0.39654 0.50381 0.0
C5911 C 0.63971 0.38922 0.51523 0.0
C5912 C 0.63838 0.38977 0.49111 0.0
C5913 C 0.6376 0.40366 0.48344 0.0
N5914 N 0.63924 0.38979 0.50748 0.0
N5915 N 0.6373 0.40337 0.49127 0.0
H5916 H 0.84861 0.40255 0.73729 0.0
H5917 H 0.83589 0.39334 0.78044 0.0
H5918 H 0.82522 0.40513 0.745 0.0
H5919 H 0.85795 0.38783 0.77086 0.0
H5920 H 0.83178 0.39818 0.76781 0.0
H5921 H 0.8521 0.3978 0.74987 0.0
C5922 C 0.8442 0.4022 0.74164 0.0
C5923 C 0.83661 0.40435 0.74004 0.0
C5924 C 0.83751 0.39588 0.76847 0.0
C5925 C 0.84058 0.39867 0.75456 0.0
C5926 C 0.83985 0.39316 0.77565 0.0
C5927 C 0.84725 0.39019 0.77662 0.0
C5928 C 0.84266 0.39566 0.76226 0.0
C5929 C 0.85217 0.39 0.77029 0.0
C5930 C 0.84619 0.39939 0.74884 0.0
C5931 C 0.83113 0.40352 0.74592 0.0
N5932 N 0.8498 0.39272 0.76339 0.0
N5933 N 0.83323 0.40076 0.75293 0.0
H5934 H 0.67701 0.59439 0.24523 0.0
H5935 H 0.65321 0.62451 0.2692 0.0
H5936 H 0.66906 0.61557 0.23531 0.0
H5937 H 0.67055 0.61071 0.2801 0.0
H5938 H 0.65815 0.62063 0.25669 0.0
H5939 H 0.67384 0.59936 0.25802 0.0
C5940 C 0.67465 0.60011 0.24574 0.0
C5941 C 0.6733 0.60456 0.23915 0.0
C5942 C 0.6609 0.61847 0.26182 0.0
C5943 C 0.66957 0.61024 0.25379 0.0
C5944 C 0.65813 0.62075 0.26898 0.0
C5945 C 0.66147 0.61798 0.27576 0.0
C5946 C 0.66693 0.61317 0.26137 0.0
C5947 C 0.66767 0.61287 0.27506 0.0
C5948 C 0.67288 0.60295 0.25304 0.0
C5949 C 0.67027 0.61195 0.2402 0.0
N5950 N 0.67013 0.61055 0.268 0.0
N5951 N 0.66842 0.61451 0.24734 0.0
H5952 H 0.52943 0.63732 0.88374 0.0
H5953 H 0.49018 0.63712 0.90777 0.0
H5954 H 0.52937 0.63655 0.90847 0.0
H5955 H 0.49203 0.64081 0.88345 0.0
H5956 H 0.50429 0.63573 0.90846 0.0
H5957 H 0.51554 0.63734 0.8838 0.0
C5958 C 0.52649 0.63715 0.88922 0.0
C5959 C 0.53063 0.6371 0.89612 0.0
C5960 C 0.50159 0.63685 0.90298 0.0
C5961 C 0.51452 0.63701 0.89622 0.0
C5962 C 0.49358 0.63763 0.9026 0.0
C5963 C 0.49002 0.63917 0.89556 0.0
C5964 C 0.50599 0.63757 0.89625 0.0
C5965 C 0.4946 0.63974 0.889 0.0
C5966 C 0.51852 0.63714 0.88924 0.0
C5967 C 0.52644 0.63663 0.90301 0.0
N5968 N 0.50231 0.63896 0.8895 0.0
N5969 N 0.5186 0.63666 0.90289 0.0
H5970 H 0.60076 0.2699 0.15925 0.0
H5971 H 0.62196 0.23168 0.17346 0.0
H5972 H 0.61046 0.26807 0.18192 0.0
H5973 H 0.6137 0.23555 0.15057 0.0
H5974 H 0.61752 0.24463 0.17713 0.0
H5975 H 0.60512 0.25702 0.15641 0.0
C5976 C 0.60377 0.26676 0.16368 0.0
C5977 C 0.60516 0.27009 0.17087 0.0
C5978 C 0.61667 0.24264 0.17131 0.0
C5979 C 0.61034 0.2552 0.16758 0.0
C5980 C 0.61917 0.23528 0.16925 0.0
C5981 C 0.6181 0.23263 0.16175 0.0
C5982 C 0.61311 0.24732 0.16579 0.0
C5983 C 0.61455 0.23744 0.15642 0.0
C5984 C 0.60631 0.25939 0.16203 0.0
C5985 C 0.60928 0.26576 0.17629 0.0
N5986 N 0.61218 0.24453 0.15855 0.0
N5987 N 0.6117 0.25851 0.17455 0.0
H5988 H 0.97948 0.35953 0.38981 0.0
H5989 H 0.01906 0.37602 0.40582 0.0
H5990 H 0.97977 0.38 0.40373 0.0
H5991 H 0.01672 0.36255 0.38524 0.0
H5992 H 0.00492 0.37665 0.40677 0.0
H5993 H 0.99336 0.35938 0.38992 0.0
C5994 C 0.98244 0.36406 0.39285 0.0
C5995 C 0.97836 0.3699 0.39661 0.0
C5996 C 0.00754 0.37352 0.40209 0.0
C5997 C 0.99448 0.36961 0.39692 0.0
C5998 C 0.01558 0.37317 0.40154 0.0
C5999 C 0.01906 0.36911 0.39551 0.0
C6000 C 1.00301 0.36967 0.39664 0.0
C6001 C 0.0143 0.36552 0.39012 0.0
C6002 C 0.99042 0.36393 0.39295 0.0
C6003 C 0.98263 0.3754 0.40072 0.0
N6004 N 0.00657 0.36584 0.39084 0.0
N6005 N 0.99047 0.37514 0.40075 0.0
H6006 H 0.90708 0.73844 0.65859 0.0
H6007 H 0.88723 0.77745 0.67268 0.0
H6008 H 0.89843 0.74097 0.68163 0.0
H6009 H 0.89286 0.77212 0.64929 0.0
H6010 H 0.89185 0.76462 0.67658 0.0
H6011 H 0.90257 0.75122 0.65558 0.0
C6012 C 0.90427 0.74171 0.66306 0.0
C6013 C 0.9032 0.7386 0.6704 0.0
C6014 C 0.89206 0.76625 0.6706 0.0
C6015 C 0.89786 0.7534 0.66692 0.0
C6016 C 0.88944 0.77354 0.6684 0.0
C6017 C 0.88967 0.77573 0.66067 0.0
C6018 C 0.89496 0.76121 0.665 0.0
C6019 C 0.89259 0.77057 0.65529 0.0
C6020 C 0.90164 0.74903 0.66131 0.0
C6021 C 0.89935 0.74311 0.67588 0.0
N6022 N 0.89512 0.76357 0.65755 0.0
N6023 N 0.89684 0.7503 0.67404 0.0
H6024 H 0.52948 0.37247 0.59958 0.0
H6025 H 0.49173 0.36601 0.62489 0.0
H6026 H 0.52896 0.37072 0.62426 0.0
H6027 H 0.49025 0.37173 0.60095 0.0
H6028 H 0.50559 0.36751 0.62435 0.0
H6029 H 0.51534 0.37246 0.59952 0.0
C6030 C 0.52643 0.37216 0.60498 0.0
C6031 C 0.53047 0.37143 0.61193 0.0
C6032 C 0.5023 0.36846 0.61918 0.0
C6033 C 0.51434 0.37129 0.61187 0.0
C6034 C 0.49439 0.36755 0.61949 0.0
C6035 C 0.48992 0.36865 0.61294 0.0
C6036 C 0.50583 0.37051 0.61223 0.0
C6037 C 0.49358 0.37079 0.6061 0.0
C6038 C 0.51836 0.37211 0.60493 0.0
C6039 C 0.52617 0.37106 0.61874 0.0
N6040 N 0.50136 0.37162 0.60589 0.0
N6041 N 0.5184 0.37091 0.61852 0.0
H6042 H 0.90113 0.26626 0.82584 0.0
H6043 H 0.88953 0.23713 0.85959 0.0
H6044 H 0.90369 0.27074 0.85002 0.0
H6045 H 0.8903 0.22994 0.83603 0.0
H6046 H 0.89389 0.24988 0.85578 0.0
H6047 H 0.89637 0.25328 0.82896 0.0
C6048 C 0.90065 0.26453 0.83179 0.0
C6049 C 0.90284 0.26957 0.83769 0.0
C6050 C 0.89311 0.24556 0.85139 0.0
C6051 C 0.8974 0.25484 0.84128 0.0
C6052 C 0.8906 0.23831 0.85359 0.0
C6053 C 0.88953 0.23258 0.8481 0.0
C6054 C 0.89459 0.24712 0.84362 0.0
C6055 C 0.89105 0.23429 0.84039 0.0
C6056 C 0.89798 0.25713 0.83356 0.0
C6057 C 0.90215 0.26703 0.84529 0.0
N6058 N 0.8935 0.24143 0.83834 0.0
N6059 N 0.89949 0.2599 0.84684 0.0
H6060 H 0.98026 0.63716 0.12471 0.0
H6061 H 0.01895 0.64161 0.10024 0.0
H6062 H 0.98055 0.63871 0.10001 0.0
H6063 H 0.01827 0.63942 0.12478 0.0
H6064 H 0.00489 0.64026 0.09986 0.0
H6065 H 0.99423 0.63776 0.12477 0.0
C6066 C 0.98326 0.63764 0.1193 0.0
C6067 C 0.97922 0.63787 0.11234 0.0
C6068 C 0.00781 0.64006 0.10533 0.0
C6069 C 0.99525 0.63855 0.11236 0.0
C6070 C 0.01579 0.64083 0.10552 0.0
C6071 C 0.01964 0.64068 0.11255 0.0
C6072 C 1.00373 0.63913 0.11224 0.0
C6073 C 0.01541 0.63963 0.11928 0.0
C6074 C 0.99125 0.63795 0.11933 0.0
C6075 C 0.98343 0.63841 0.1055 0.0
N6076 N 0.00768 0.63892 0.11897 0.0
N6077 N 0.99122 0.63875 0.10568 0.0
H6078 H 0.61063 0.73994 0.32649 0.0
H6079 H 0.61169 0.77393 0.3576 0.0
H6080 H 0.60082 0.73878 0.34918 0.0
H6081 H 0.62358 0.77555 0.33607 0.0
H6082 H 0.60723 0.76111 0.3541 0.0
H6083 H 0.61515 0.75302 0.32935 0.0
C6084 C 0.60944 0.74241 0.33206 0.0
C6085 C 0.60526 0.73825 0.33757 0.0
C6086 C 0.6108 0.76423 0.35009 0.0
C6087 C 0.61038 0.75318 0.34086 0.0
C6088 C 0.6133 0.77153 0.3521 0.0
C6089 C 0.61795 0.77571 0.34709 0.0
C6090 C 0.61294 0.76105 0.34299 0.0
C6091 C 0.61999 0.77242 0.34005 0.0
C6092 C 0.61199 0.74988 0.33367 0.0
C6093 C 0.60386 0.74178 0.34467 0.0
N6094 N 0.61746 0.76526 0.33817 0.0
N6095 N 0.6064 0.74899 0.34609 0.0
H6096 H 0.88849 0.52882 0.62873 0.0
H6097 H 0.90544 0.49025 0.64741 0.0
H6098 H 0.90591 0.52884 0.64621 0.0
H6099 H 0.88721 0.49063 0.63082 0.0
H6100 H 0.90647 0.50428 0.64643 0.0
H6101 H 0.88877 0.51476 0.62862 0.0
C6102 C 0.89247 0.52584 0.63245 0.0
C6103 C 0.89726 0.52996 0.6374 0.0
C6104 C 0.90227 0.5013 0.64296 0.0
C6105 C 0.8975 0.51387 0.63747 0.0
C6106 C 0.90168 0.49332 0.64355 0.0
C6107 C 0.89622 0.48933 0.63922 0.0
C6108 C 0.89736 0.50532 0.63798 0.0
C6109 C 0.89153 0.49351 0.63421 0.0
C6110 C 0.8926 0.51782 0.63243 0.0
C6111 C 0.90221 0.52584 0.64223 0.0
N6112 N 0.89218 0.50127 0.63375 0.0
N6113 N 0.90218 0.51803 0.64217 0.0
H6114 H 0.73955 0.65969 0.90926 0.0
H6115 H 0.77593 0.67124 0.88357 0.0
H6116 H 0.74046 0.68107 0.89686 0.0
H6117 H 0.77409 0.65074 0.89711 0.0
H6118 H 0.76319 0.67533 0.88829 0.0
H6119 H 0.75236 0.65668 0.90484 0.0
C6120 C 0.74247 0.66382 0.90567 0.0
C6121 C 0.73889 0.6707 0.90352 0.0
C6122 C 0.76558 0.66994 0.89023 0.0
C6123 C 0.75371 0.66716 0.89824 0.0
C6124 C 0.7728 0.66763 0.88754 0.0
C6125 C 0.77596 0.66067 0.88999 0.0
C6126 C 0.76152 0.66519 0.89534 0.0
C6127 C 0.7718 0.65616 0.89513 0.0
C6128 C 0.74981 0.66206 0.90308 0.0
C6129 C 0.74296 0.67568 0.89864 0.0
N6130 N 0.7648 0.65847 0.89761 0.0
N6131 N 0.75016 0.67382 0.89617 0.0
H6132 H 0.60241 0.48007 0.13077 0.0
H6133 H 0.62399 0.5173 0.14633 0.0
H6134 H 0.62277 0.47987 0.14501 0.0
H6135 H 0.60249 0.51865 0.13429 0.0
H6136 H 0.62354 0.50343 0.1455 0.0
H6137 H 0.60256 0.49398 0.13121 0.0
C6138 C 0.60694 0.48281 0.13398 0.0
C6139 C 0.61256 0.4785 0.13788 0.0
C6140 C 0.61888 0.5067 0.14305 0.0
C6141 C 0.6125 0.49465 0.13863 0.0
C6142 C 0.6191 0.51463 0.1436 0.0
C6143 C 0.61317 0.51909 0.14055 0.0
C6144 C 0.61274 0.50313 0.13926 0.0
C6145 C 0.60713 0.51537 0.13677 0.0
C6146 C 0.60692 0.49083 0.13429 0.0
C6147 C 0.61811 0.48266 0.14206 0.0
N6148 N 0.60706 0.50757 0.13621 0.0
N6149 N 0.61789 0.49042 0.14234 0.0
H6150 H 0.76821 0.32647 0.39739 0.0
H6151 H 0.73477 0.35818 0.39616 0.0
H6152 H 0.76945 0.34892 0.40769 0.0
H6153 H 0.7328 0.33674 0.38417 0.0
H6154 H 0.74743 0.35436 0.4008 0.0
H6155 H 0.75521 0.32956 0.39274 0.0
C6156 C 0.76578 0.33204 0.39866 0.0
C6157 C 0.76994 0.33742 0.403 0.0
C6158 C 0.74427 0.35044 0.39717 0.0
C6159 C 0.75511 0.34097 0.39773 0.0
C6160 C 0.73706 0.35263 0.39455 0.0
C6161 C 0.73284 0.34776 0.38982 0.0
C6162 C 0.74731 0.34327 0.39506 0.0
C6163 C 0.73597 0.34063 0.38782 0.0
C6164 C 0.75835 0.33378 0.39604 0.0
C6165 C 0.76646 0.34452 0.40451 0.0
N6166 N 0.74305 0.33857 0.39046 0.0
N6167 N 0.7593 0.34606 0.40189 0.0
H6168 H 0.90792 0.47999 0.87438 0.0
H6169 H 0.88314 0.51755 0.86541 0.0
H6170 H 0.88437 0.47984 0.86678 0.0
H6171 H 0.90678 0.51875 0.87238 0.0
H6172 H 0.88364 0.50364 0.86621 0.0
H6173 H 0.90775 0.49404 0.87412 0.0
C6174 C 0.9027 0.4829 0.87271 0.0
C6175 C 0.89614 0.4787 0.87061 0.0
C6176 C 0.88875 0.50689 0.86757 0.0
C6177 C 0.89596 0.49477 0.87021 0.0
C6178 C 0.88846 0.51483 0.86707 0.0
C6179 C 0.89497 0.51924 0.8687 0.0
C6180 C 0.89558 0.50328 0.8698 0.0
C6181 C 0.90167 0.51549 0.87104 0.0
C6182 C 0.90263 0.49092 0.87252 0.0
C6183 C 0.8896 0.48279 0.86836 0.0
N6184 N 0.90183 0.50769 0.8715 0.0
N6185 N 0.88968 0.49057 0.86823 0.0
H6186 H 0.7719 0.67475 0.11737 0.0
H6187 H 0.73248 0.65409 0.10773 0.0
H6188 H 0.765 0.6683 0.09446 0.0
H6189 H 0.73507 0.66759 0.12824 0.0
H6190 H 0.74479 0.65886 0.10313 0.0
H6191 H 0.75881 0.67217 0.1218 0.0
C6192 C 0.76768 0.67287 0.11323 0.0
C6193 C 0.76973 0.67157 0.10552 0.0
C6194 C 0.74267 0.66085 0.10862 0.0
C6195 C 0.75474 0.6684 0.11066 0.0
C6196 C 0.73561 0.65816 0.11122 0.0
C6197 C 0.73271 0.66054 0.11832 0.0
C6198 C 0.747 0.66585 0.11322 0.0
C6199 C 0.73713 0.66562 0.12273 0.0
C6200 C 0.76019 0.67135 0.1158 0.0
C6201 C 0.76389 0.66911 0.10051 0.0
N6202 N 0.7441 0.66807 0.12014 0.0
N6203 N 0.75675 0.66751 0.10318 0.0
H6204 H 0.62524 0.52865 0.3672 0.0
H6205 H 0.60233 0.48908 0.37251 0.0
H6206 H 0.60127 0.52774 0.37329 0.0
H6207 H 0.62584 0.49069 0.36522 0.0
H6208 H 0.60175 0.50318 0.37329 0.0
H6209 H 0.62553 0.5147 0.36682 0.0
C6210 C 0.62002 0.52553 0.36843 0.0
C6211 C 0.61321 0.52942 0.37027 0.0
C6212 C 0.60703 0.50045 0.3715 0.0
C6213 C 0.61352 0.51334 0.3699 0.0
C6214 C 0.60735 0.49244 0.37107 0.0
C6215 C 0.61411 0.48881 0.3687 0.0
C6216 C 0.61356 0.50481 0.36961 0.0
C6217 C 0.6205 0.49334 0.36695 0.0
C6218 C 0.6202 0.51753 0.36825 0.0
C6219 C 0.60667 0.52501 0.37194 0.0
N6220 N 0.62007 0.50109 0.36742 0.0
N6221 N 0.60698 0.51721 0.3717 0.0
H6222 H 0.73953 0.34785 0.59859 0.0
H6223 H 0.77501 0.33701 0.6257 0.0
H6224 H 0.73956 0.3273 0.61235 0.0
H6225 H 0.7746 0.35588 0.60986 0.0
H6226 H 0.76214 0.33311 0.62118 0.0
H6227 H 0.75241 0.35067 0.60291 0.0
C6228 C 0.74227 0.34385 0.60247 0.0
C6229 C 0.73843 0.33725 0.60501 0.0
C6230 C 0.76487 0.33808 0.61868 0.0
C6231 C 0.75332 0.3406 0.61019 0.0
C6232 C 0.77218 0.34028 0.62125 0.0
C6233 C 0.77578 0.34672 0.61808 0.0
C6234 C 0.76118 0.34244 0.61299 0.0
C6235 C 0.77197 0.35084 0.61237 0.0
C6236 C 0.74966 0.34551 0.60499 0.0
C6237 C 0.74227 0.33246 0.61025 0.0
N6238 N 0.76489 0.34866 0.61003 0.0
N6239 N 0.74951 0.33422 0.61266 0.0
H6240 H 0.62897 0.88766 0.52945 0.0
H6241 H 0.64739 0.9051 0.49106 0.0
H6242 H 0.64496 0.90645 0.52956 0.0
H6243 H 0.63103 0.88667 0.49137 0.0
H6244 H 0.64594 0.90645 0.50506 0.0
H6245 H 0.62884 0.88799 0.51541 0.0
C6246 C 0.63235 0.89194 0.52649 0.0
C6247 C 0.63691 0.89709 0.53062 0.0
C6248 C 0.64262 0.90214 0.50207 0.0
C6249 C 0.63699 0.89739 0.51457 0.0
C6250 C 0.64346 0.9014 0.49412 0.0
C6251 C 0.63929 0.8958 0.49017 0.0
C6252 C 0.63764 0.89719 0.50605 0.0
C6253 C 0.63428 0.89108 0.49428 0.0
C6254 C 0.63231 0.89211 0.51848 0.0
C6255 C 0.64129 0.90246 0.52655 0.0
N6256 N 0.63362 0.89185 0.50201 0.0
N6257 N 0.64128 0.90244 0.51873 0.0
H6258 H 0.12617 0.61479 0.47905 0.0
H6259 H 0.14928 0.60468 0.51756 0.0
H6260 H 0.14962 0.60703 0.47934 0.0
H6261 H 0.12956 0.61947 0.51745 0.0
H6262 H 0.14831 0.60346 0.50357 0.0
H6263 H 0.12607 0.61449 0.49318 0.0
C6264 C 0.13124 0.61291 0.48208 0.0
C6265 C 0.13791 0.61094 0.47803 0.0
C6266 C 0.14415 0.60693 0.5066 0.0
C6267 C 0.13786 0.61057 0.49413 0.0
C6268 C 0.14473 0.60764 0.51456 0.0
C6269 C 0.13954 0.61223 0.5186 0.0
C6270 C 0.13827 0.61077 0.50265 0.0
C6271 C 0.13364 0.61585 0.5145 0.0
C6272 C 0.13121 0.61279 0.49013 0.0
C6273 C 0.14437 0.60862 0.48224 0.0
N6274 N 0.13316 0.61505 0.50675 0.0
N6275 N 0.14418 0.6085 0.49003 0.0
H6276 H 0.68296 0.90241 0.74251 0.0
H6277 H 0.64941 0.88801 0.77067 0.0
H6278 H 0.65896 0.90146 0.73674 0.0
H6279 H 0.67258 0.891 0.77855 0.0
H6280 H 0.65328 0.89224 0.75791 0.0
H6281 H 0.67982 0.89766 0.75549 0.0
C6282 C 0.67706 0.90113 0.74396 0.0
C6283 C 0.6712 0.90232 0.73856 0.0
C6284 C 0.65756 0.89199 0.76239 0.0
C6285 C 0.66758 0.89691 0.75329 0.0
C6286 C 0.65534 0.88952 0.76965 0.0
C6287 C 0.6607 0.88912 0.77559 0.0
C6288 C 0.66523 0.89411 0.76102 0.0
C6289 C 0.66831 0.89126 0.77406 0.0
C6290 C 0.67526 0.89847 0.75136 0.0
C6291 C 0.66364 0.90066 0.74073 0.0
N6292 N 0.67037 0.89367 0.76691 0.0
N6293 N 0.66207 0.89804 0.74788 0.0
H6294 H 0.37578 0.38459 0.97926 0.0
H6295 H 0.36417 0.40599 0.01829 0.0
H6296 H 0.36687 0.40762 0.97954 0.0
H6297 H 0.37514 0.38396 0.01728 0.0
H6298 H 0.3652 0.40701 1.0042 0.0
H6299 H 0.37584 0.38455 0.99323 0.0
C6300 C 0.37387 0.38967 0.98227 0.0
C6301 C 0.37127 0.3961 0.9782 0.0
C6302 C 0.36744 0.40198 0.00706 0.0
C6303 C 0.37128 0.3961 0.99432 0.0
C6304 C 0.36685 0.40142 0.01506 0.0
C6305 C 0.36965 0.39493 0.01885 0.0
C6306 C 0.3708 0.39596 1.00286 0.0
C6307 C 0.37299 0.38907 0.0145 0.0
C6308 C 0.37392 0.38965 0.99027 0.0
C6309 C 0.36896 0.40256 0.98244 0.0
N6310 N 0.37346 0.38972 0.00675 0.0
N6311 N 0.36894 0.40237 0.99027 0.0
H6312 H 0.33401 0.61737 0.73633 0.0
H6313 H 0.35217 0.60648 0.77662 0.0
H6314 H 0.33835 0.59411 0.74361 0.0
H6315 H 0.341 0.62819 0.77308 0.0
H6316 H 0.3474 0.60208 0.76426 0.0
H6317 H 0.3365 0.62172 0.74946 0.0
C6318 C 0.3354 0.61315 0.74066 0.0
C6319 C 0.33612 0.60535 0.73873 0.0
C6320 C 0.34591 0.60779 0.76618 0.0
C6321 C 0.33917 0.61036 0.75375 0.0
C6322 C 0.34859 0.61027 0.77328 0.0
C6323 C 0.34688 0.61766 0.77592 0.0
C6324 C 0.34162 0.61279 0.76155 0.0
C6325 C 0.34245 0.62245 0.77122 0.0
C6326 C 0.33687 0.61566 0.74816 0.0
C6327 C 0.33798 0.60021 0.74466 0.0
N6328 N 0.34002 0.61996 0.76422 0.0
N6329 N 0.33953 0.60281 0.75183 0.0
H6330 H 0.86993 0.0996 0.02909 0.0
H6331 H 0.87062 0.12552 0.99106 0.0
H6332 H 0.87272 0.12418 0.02877 0.0
H6333 H 0.86856 0.10099 0.99014 0.0
H6334 H 0.87189 0.12484 0.005 0.0
H6335 H 0.87011 0.0996 0.01499 0.0
C6336 C 0.87066 0.10498 0.02609 0.0
C6337 C 0.8712 0.11192 0.03018 0.0
C6338 C 0.87119 0.11957 1.0018 0.0
C6339 C 0.8713 0.11195 0.01404 0.0
C6340 C 0.87047 0.11998 0.99386 0.0
C6341 C 0.86948 0.11331 0.98954 0.0
C6342 C 0.87088 0.11241 0.0055 0.0
C6343 C 0.86932 0.10624 0.99335 0.0
C6344 C 0.8707 0.10498 0.01803 0.0
C6345 C 0.87209 0.1187 0.02593 0.0
N6346 N 0.86998 0.10596 1.00114 0.0
N6347 N 0.87205 0.11854 0.01815 0.0
H6348 H 0.67525 0.11689 0.77189 0.0
H6349 H 0.65465 0.10744 0.73238 0.0
H6350 H 0.66839 0.09408 0.76505 0.0
H6351 H 0.66812 0.12793 0.73523 0.0
H6352 H 0.65933 0.10275 0.74468 0.0
H6353 H 0.67276 0.1213 0.75881 0.0
C6354 C 0.6733 0.11277 0.76769 0.0
C6355 C 0.67187 0.10509 0.76976 0.0
C6356 C 0.66134 0.10825 0.74261 0.0
C6357 C 0.66878 0.11023 0.75476 0.0
C6358 C 0.6587 0.1109 0.73556 0.0
C6359 C 0.66108 0.11803 0.73274 0.0
C6360 C 0.6663 0.11282 0.74702 0.0
C6361 C 0.66614 0.1224 0.73723 0.0
C6362 C 0.67183 0.11533 0.76021 0.0
C6363 C 0.6693 0.10011 0.76394 0.0
N6364 N 0.66855 0.11976 0.74419 0.0
N6365 N 0.66775 0.10278 0.7568 0.0
H6366 H 0.83384 0.89078 0.2718 0.0
H6367 H 0.85362 0.90037 0.23212 0.0
H6368 H 0.83889 0.91391 0.26453 0.0
H6369 H 0.83939 0.88034 0.23455 0.0
H6370 H 0.84893 0.90505 0.24445 0.0
H6371 H 0.83624 0.88637 0.25867 0.0
C6372 C 0.83536 0.89496 0.26749 0.0
C6373 C 0.83632 0.90274 0.26944 0.0
C6374 C 0.84681 0.89963 0.24229 0.0
C6375 C 0.8393 0.89764 0.2544 0.0
C6376 C 0.84944 0.89699 0.23522 0.0
C6377 C 0.84691 0.88994 0.23229 0.0
C6378 C 0.84174 0.89512 0.24662 0.0
C6379 C 0.84165 0.88569 0.23668 0.0
C6380 C 0.83678 0.89241 0.25999 0.0
C6381 C 0.83836 0.90782 0.2635 0.0
N6382 N 0.8393 0.8883 0.24367 0.0
N6383 N 0.83989 0.90517 0.25633 0.0
H6384 H 0.47954 0.38123 0.10748 0.0
H6385 H 0.51786 0.35665 0.10741 0.0
H6386 H 0.48007 0.35752 0.11443 0.0
H6387 H 0.51815 0.37992 0.11572 0.0
H6388 H 0.50387 0.35721 0.10679 0.0
H6389 H 0.49371 0.38125 0.10721 0.0
C6390 C 0.48263 0.37603 0.10889 0.0
C6391 C 0.47863 0.36937 0.11102 0.0
C6392 C 0.50703 0.36222 0.10866 0.0
C6393 C 0.49471 0.36933 0.11059 0.0
C6394 C 0.51501 0.36187 0.10911 0.0
C6395 C 0.51923 0.36817 0.11179 0.0
C6396 C 0.50321 0.36902 0.11059 0.0
C6397 C 0.51518 0.37494 0.11354 0.0
C6398 C 0.49068 0.37606 0.10877 0.0
C6399 C 0.48291 0.3628 0.11283 0.0
N6400 N 0.5074 0.3752 0.11287 0.0
N6401 N 0.49069 0.36293 0.11253 0.0
H6402 H 0.40392 0.74364 0.82461 0.0
H6403 H 0.39105 0.77159 0.85878 0.0
H6404 H 0.40486 0.73774 0.84865 0.0
H6405 H 0.39186 0.77877 0.83522 0.0
H6406 H 0.39564 0.75888 0.85498 0.0
H6407 H 0.39904 0.75632 0.82815 0.0
C6408 C 0.40311 0.74498 0.83062 0.0
C6409 C 0.40482 0.73955 0.83631 0.0
C6410 C 0.39482 0.7632 0.85061 0.0
C6411 C 0.39935 0.75411 0.8404 0.0
C6412 C 0.39218 0.77041 0.85279 0.0
C6413 C 0.39112 0.77613 0.84728 0.0
C6414 C 0.39639 0.76171 0.84284 0.0
C6415 C 0.39267 0.77445 0.83959 0.0
C6416 C 0.40037 0.75224 0.83263 0.0
C6417 C 0.40377 0.74171 0.84402 0.0
N6418 N 0.39523 0.76737 0.83757 0.0
N6419 N 0.40111 0.74879 0.84582 0.0
H6420 H 0.0271 0.62716 0.60553 0.0
H6421 H 0.98992 0.64541 0.62369 0.0
H6422 H 0.02742 0.64902 0.61718 0.0
H6423 H 0.98844 0.63263 0.6026 0.0
H6424 H 1.00383 0.64529 0.6227 0.0
H6425 H 0.01306 0.62749 0.60569 0.0
C6426 C 0.02426 0.63205 0.60808 0.0
C6427 C 0.02853 0.63809 0.61131 0.0
C6428 C 1.00047 0.64253 0.61827 0.0
C6429 C 0.01246 0.63835 0.61169 0.0
C6430 C 0.99252 0.64267 0.61878 0.0
C6431 C 0.98799 0.6392 0.61311 0.0
C6432 C 1.00399 0.63863 0.6122 0.0
C6433 C 0.99172 0.63537 0.60709 0.0
C6434 C 0.01625 0.6322 0.60819 0.0
C6435 C 0.02446 0.64415 0.61473 0.0
N6436 N 0.99953 0.63513 0.60681 0.0
N6437 N 0.01667 0.6441 0.61486 0.0
H6438 H 0.09874 0.2684 0.34785 0.0
H6439 H 0.12517 0.23233 0.33781 0.0
H6440 H 0.11006 0.26581 0.32594 0.0
H6441 H 0.10988 0.23323 0.35715 0.0
H6442 H 0.12028 0.24487 0.33353 0.0
H6443 H 0.10305 0.25568 0.35141 0.0
C6444 C 0.10204 0.26517 0.34372 0.0
C6445 C 0.10402 0.26831 0.33655 0.0
C6446 C 0.11799 0.24232 0.3387 0.0
C6447 C 0.10924 0.25368 0.34078 0.0
C6448 C 0.12081 0.23522 0.34115 0.0
C6449 C 0.11792 0.23185 0.34783 0.0
C6450 C 0.11229 0.24605 0.34304 0.0
C6451 C 0.11222 0.2357 0.35196 0.0
C6452 C 0.10458 0.25789 0.34581 0.0
C6453 C 0.10851 0.26378 0.33159 0.0
N6454 N 0.1096 0.24261 0.34951 0.0
N6455 N 0.11101 0.25673 0.33382 0.0
H6456 H 0.47965 0.63444 0.38584 0.0
H6457 H 0.51902 0.6416 0.40852 0.0
H6458 H 0.48023 0.64095 0.40971 0.0
H6459 H 0.51751 0.63592 0.38458 0.0
H6460 H 0.50494 0.64053 0.40955 0.0
H6461 H 0.49357 0.63405 0.38571 0.0
C6462 C 0.4827 0.63578 0.39108 0.0
C6463 C 0.4787 0.63785 0.39777 0.0
C6464 C 0.50769 0.63945 0.40408 0.0
C6465 C 0.49481 0.63731 0.39768 0.0
C6466 C 0.51568 0.64005 0.40352 0.0
C6467 C 0.51931 0.63882 0.39647 0.0
C6468 C 0.50335 0.63761 0.39752 0.0
C6469 C 0.51484 0.63688 0.39011 0.0
C6470 C 0.49068 0.63552 0.39101 0.0
C6471 C 0.48303 0.63931 0.40442 0.0
N6472 N 0.5071 0.63635 0.39078 0.0
N6473 N 0.49085 0.63907 0.40419 0.0
H6474 H 0.10985 0.74058 0.18282 0.0
H6475 H 0.11189 0.77331 0.15041 0.0
H6476 H 0.09981 0.73892 0.16026 0.0
H6477 H 0.12259 0.77607 0.17244 0.0
H6478 H 0.10731 0.76064 0.15428 0.0
H6479 H 0.1146 0.75347 0.17952 0.0
C6480 C 0.10865 0.74289 0.17718 0.0
C6481 C 0.10434 0.73864 0.17185 0.0
C6482 C 0.11066 0.76397 0.15832 0.0
C6483 C 0.10974 0.75338 0.16805 0.0
C6484 C 0.11325 0.7712 0.15609 0.0
C6485 C 0.11757 0.77568 0.16113 0.0
C6486 C 0.11244 0.76115 0.16566 0.0
C6487 C 0.11926 0.77273 0.16842 0.0
C6488 C 0.11134 0.75027 0.17532 0.0
C6489 C 0.10295 0.74199 0.16465 0.0
N6490 N 0.11668 0.76563 0.17049 0.0
N6491 N 0.10562 0.7491 0.16299 0.0
H6492 H 0.02851 0.36731 0.90992 0.0
H6493 H 0.9906 0.37345 0.88452 0.0
H6494 H 0.0286 0.37357 0.88598 0.0
H6495 H 0.98989 0.36545 0.90781 0.0
H6496 H 0.00459 0.37462 0.88541 0.0
H6497 H 0.01445 0.36788 0.90982 0.0
C6498 C 0.02561 0.36889 0.90467 0.0
C6499 C 0.02981 0.37029 0.89792 0.0
C6500 C 1.00141 0.37264 0.89036 0.0
C6501 C 0.01368 0.37082 0.89775 0.0
C6502 C 0.99346 0.372 0.88983 0.0
C6503 C 0.98921 0.36935 0.89609 0.0
C6504 C 0.00515 0.37062 0.89722 0.0
C6505 C 0.99306 0.3675 0.90288 0.0
C6506 C 0.01757 0.36914 0.9046 0.0
C6507 C 0.02567 0.37225 0.89128 0.0
N6508 N 1.00084 0.36815 0.90327 0.0
N6509 N 0.01788 0.3724 0.89136 0.0
H6510 H 0.39285 0.27152 0.67672 0.0
H6511 H 0.40028 0.23344 0.65306 0.0
H6512 H 0.41524 0.26488 0.66844 0.0
H6513 H 0.3827 0.23398 0.67038 0.0
H6514 H 0.40501 0.24582 0.65763 0.0
H6515 H 0.38819 0.25854 0.67383 0.0
C6516 C 0.39682 0.26738 0.67437 0.0
C6517 C 0.40444 0.26947 0.67266 0.0
C6518 C 0.40011 0.24325 0.66045 0.0
C6519 C 0.39903 0.25465 0.66915 0.0
C6520 C 0.39743 0.23617 0.65785 0.0
C6521 C 0.39109 0.23268 0.66134 0.0
C6522 C 0.39631 0.247 0.66648 0.0
C6523 C 0.3875 0.23655 0.66743 0.0
C6524 C 0.39412 0.25997 0.67268 0.0
C6525 C 0.40925 0.26375 0.66959 0.0
N6526 N 0.39012 0.24354 0.66978 0.0
N6527 N 0.40644 0.2567 0.66783 0.0
H6528 H 0.11193 0.48008 0.35695 0.0
H6529 H 0.11554 0.51806 0.38153 0.0
H6530 H 0.10904 0.47957 0.38149 0.0
H6531 H 0.10857 0.51807 0.35785 0.0
H6532 H 0.11372 0.50411 0.38192 0.0
H6533 H 0.1116 0.49405 0.3573 0.0
C6534 C 0.11119 0.48293 0.36242 0.0
C6535 C 0.11053 0.47865 0.3692 0.0
C6536 C 0.11252 0.50718 0.37667 0.0
C6537 C 0.11019 0.49473 0.36965 0.0
C6538 C 0.11349 0.51515 0.37646 0.0
C6539 C 0.11224 0.51923 0.36963 0.0
C6540 C 0.11043 0.50325 0.36995 0.0
C6541 C 0.10974 0.51513 0.36318 0.0
C6542 C 0.11097 0.49091 0.36261 0.0
C6543 C 0.10953 0.48265 0.37613 0.0
N6544 N 0.10904 0.50738 0.36346 0.0
N6545 N 0.10948 0.49048 0.37619 0.0
H6546 H 0.2729 0.34655 0.10989 0.0
H6547 H 0.22778 0.33772 0.11201 0.0
H6548 H 0.26274 0.32678 0.09912 0.0
H6549 H 0.23877 0.35713 0.12258 0.0
H6550 H 0.24038 0.33327 0.10743 0.0
H6551 H 0.26036 0.35012 0.11495 0.0
C6552 C 0.26798 0.34299 0.10856 0.0
C6553 C 0.26881 0.33641 0.10404 0.0
C6554 C 0.24004 0.33847 0.11081 0.0
C6555 C 0.25438 0.34047 0.10978 0.0
C6556 C 0.23287 0.341 0.1134 0.0
C6557 C 0.23228 0.34776 0.11771 0.0
C6558 C 0.24665 0.34274 0.11258 0.0
C6559 C 0.239 0.35182 0.11939 0.0
C6560 C 0.26082 0.34501 0.11147 0.0
C6561 C 0.2623 0.33191 0.10259 0.0
N6562 N 0.24589 0.34925 0.11682 0.0
N6563 N 0.25533 0.33405 0.1054 0.0
H6564 H 0.39814 0.52738 0.8821 0.0
H6565 H 0.40198 0.48924 0.85782 0.0
H6566 H 0.39454 0.52715 0.85762 0.0
H6567 H 0.39131 0.48896 0.88012 0.0
H6568 H 0.40189 0.50323 0.85812 0.0
H6569 H 0.3983 0.51331 0.88201 0.0
C6570 C 0.39738 0.52438 0.87671 0.0
C6571 C 0.39636 0.52848 0.86985 0.0
C6572 C 0.39962 0.50008 0.86296 0.0
C6573 C 0.39659 0.5124 0.86973 0.0
C6574 C 0.39958 0.49207 0.86276 0.0
C6575 C 0.39644 0.48785 0.86885 0.0
C6576 C 0.39682 0.50391 0.86946 0.0
C6577 C 0.39385 0.49193 0.87532 0.0
C6578 C 0.39744 0.51637 0.87668 0.0
C6579 C 0.3953 0.52426 0.86305 0.0
N6580 N 0.39413 0.49973 0.87547 0.0
N6581 N 0.39552 0.51647 0.86316 0.0
H6582 H 0.23922 0.6604 0.59864 0.0
H6583 H 0.27528 0.67097 0.62515 0.0
H6584 H 0.24025 0.68168 0.61122 0.0
H6585 H 0.27408 0.65155 0.61001 0.0
H6586 H 0.2625 0.67511 0.62063 0.0
H6587 H 0.25192 0.6572 0.60317 0.0
C6588 C 0.24214 0.66447 0.60229 0.0
C6589 C 0.23862 0.6714 0.60442 0.0
C6590 C 0.26503 0.66995 0.6183 0.0
C6591 C 0.25334 0.6676 0.60988 0.0
C6592 C 0.27228 0.66759 0.6209 0.0
C6593 C 0.27565 0.6609 0.61796 0.0
C6594 C 0.26115 0.66554 0.61276 0.0
C6595 C 0.27164 0.65674 0.6124 0.0
C6596 C 0.24943 0.66259 0.60495 0.0
C6597 C 0.24269 0.67627 0.60943 0.0
N6598 N 0.26462 0.6591 0.61001 0.0
N6599 N 0.24984 0.67428 0.61198 0.0
H6600 H 0.09986 0.52722 0.1351 0.0
H6601 H 0.12549 0.48978 0.1421 0.0
H6602 H 0.12357 0.52773 0.14218 0.0
H6603 H 0.10159 0.48869 0.1361 0.0
H6604 H 0.12493 0.50376 0.14159 0.0
H6605 H 0.10041 0.51322 0.13479 0.0
C6606 C 0.1052 0.52441 0.13653 0.0
C6607 C 0.11168 0.52871 0.13864 0.0
C6608 C 0.11979 0.5005 0.14037 0.0
C6609 C 0.11231 0.51263 0.13842 0.0
C6610 C 0.12011 0.49254 0.14069 0.0
C6611 C 0.11355 0.48814 0.13925 0.0
C6612 C 0.11284 0.50413 0.13854 0.0
C6613 C 0.10675 0.49192 0.13727 0.0
C6614 C 0.10549 0.5164 0.1364 0.0
C6615 C 0.1184 0.5247 0.14059 0.0
N6616 N 0.10655 0.49973 0.137 0.0
N6617 N 0.11852 0.51692 0.14044 0.0
H6618 H 0.24299 0.34082 0.91542 0.0
H6619 H 0.27422 0.33902 0.88182 0.0
H6620 H 0.23734 0.33153 0.89316 0.0
H6621 H 0.27507 0.35464 0.9009 0.0
H6622 H 0.26159 0.33443 0.88635 0.0
H6623 H 0.25571 0.34395 0.91076 0.0
C6624 C 0.24437 0.33945 0.90952 0.0
C6625 C 0.2389 0.33609 0.90464 0.0
C6626 C 0.26457 0.33884 0.88955 0.0
C6627 C 0.25376 0.33951 0.8993 0.0
C6628 C 0.27175 0.34145 0.88697 0.0
C6629 C 0.2757 0.34716 0.89105 0.0
C6630 C 0.26139 0.34194 0.89628 0.0
C6631 C 0.27229 0.35013 0.89769 0.0
C6632 C 0.25171 0.34121 0.90688 0.0
C6633 C 0.2413 0.33416 0.89716 0.0
N6634 N 0.26537 0.34748 0.9001 0.0
N6635 N 0.24853 0.33593 0.8947 0.0
H6636 H 0.39456 0.48091 0.65101 0.0
H6637 H 0.39184 0.51914 0.62706 0.0
H6638 H 0.39908 0.48085 0.62667 0.0
H6639 H 0.40052 0.51895 0.65018 0.0
H6640 H 0.39298 0.50514 0.62665 0.0
H6641 H 0.3946 0.49493 0.65083 0.0
C6642 C 0.39551 0.48384 0.64561 0.0
C6643 C 0.39686 0.47968 0.63884 0.0
C6644 C 0.39468 0.50818 0.63179 0.0
C6645 C 0.39694 0.49573 0.63863 0.0
C6646 C 0.39411 0.51616 0.632 0.0
C6647 C 0.39609 0.52021 0.63867 0.0
C6648 C 0.39699 0.50421 0.63839 0.0
C6649 C 0.39881 0.51603 0.64498 0.0
C6650 C 0.39561 0.49183 0.64554 0.0
C6651 C 0.39811 0.48381 0.63204 0.0
N6652 N 0.39905 0.50825 0.64474 0.0
N6653 N 0.39808 0.49161 0.63209 0.0
H6654 H 0.26952 0.66022 0.40966 0.0
H6655 H 0.2331 0.67123 0.38391 0.0
H6656 H 0.26793 0.68216 0.39835 0.0
H6657 H 0.23449 0.6516 0.39872 0.0
H6658 H 0.24584 0.67545 0.38853 0.0
H6659 H 0.25681 0.65703 0.4051 0.0
C6660 C 0.26647 0.66444 0.40628 0.0
C6661 C 0.26982 0.67155 0.40453 0.0
C6662 C 0.24335 0.67023 0.39078 0.0
C6663 C 0.25511 0.66778 0.39905 0.0
C6664 C 0.23612 0.66784 0.38814 0.0
C6665 C 0.23283 0.66108 0.39098 0.0
C6666 C 0.24729 0.66574 0.3962 0.0
C6667 C 0.23687 0.65685 0.39644 0.0
C6668 C 0.25918 0.66257 0.40362 0.0
C6669 C 0.26561 0.67661 0.39985 0.0
N6670 N 0.24388 0.65923 0.39884 0.0
N6671 N 0.25846 0.67464 0.39729 0.0
H6672 H 0.36961 0.12369 0.47961 0.0
H6673 H 0.37064 0.10006 0.51904 0.0
H6674 H 0.3707 0.09898 0.48003 0.0
H6675 H 0.3675 0.12444 0.51725 0.0
H6676 H 0.37182 0.09932 0.50495 0.0
H6677 H 0.36997 0.12386 0.4935 0.0
C6678 C 0.36992 0.11827 0.48261 0.0
C6679 C 0.36995 0.1113 0.47858 0.0
C6680 C 0.37088 0.10482 0.50765 0.0
C6681 C 0.37051 0.11147 0.49469 0.0
C6682 C 0.37025 0.10524 0.51566 0.0
C6683 C 0.36895 0.11232 0.51925 0.0
C6684 C 0.37021 0.11155 0.50324 0.0
C6685 C 0.36842 0.11888 0.51467 0.0
C6686 C 0.37017 0.11838 0.49059 0.0
C6687 C 0.37064 0.1045 0.48287 0.0
N6688 N 0.36902 0.11833 0.50693 0.0
N6689 N 0.37083 0.10475 0.4907 0.0
H6690 H 0.87194 0.40926 0.5287 0.0
H6691 H 0.86792 0.3833 0.49085 0.0
H6692 H 0.86887 0.38471 0.52864 0.0
H6693 H 0.87074 0.40777 0.4898 0.0
H6694 H 0.86884 0.38388 0.50482 0.0
H6695 H 0.87249 0.409 0.51462 0.0
C6696 C 0.87144 0.40381 0.52578 0.0
C6697 C 0.8702 0.39701 0.52995 0.0
C6698 C 0.86932 0.38915 0.50158 0.0
C6699 C 0.8707 0.39671 0.51379 0.0
C6700 C 0.86877 0.3888 0.49361 0.0
C6701 C 0.86925 0.39549 0.48921 0.0
C6702 C 0.8704 0.39625 0.50524 0.0
C6703 C 0.8704 0.40248 0.49302 0.0
C6704 C 0.8717 0.40368 0.51772 0.0
C6705 C 0.86959 0.39015 0.52576 0.0
N6706 N 0.87092 0.4027 0.50083 0.0
N6707 N 0.86978 0.3902 0.51797 0.0
H6708 H 0.33311 0.0937 0.26328 0.0
H6709 H 0.35401 0.12565 0.23915 0.0
H6710 H 0.33778 0.11607 0.27274 0.0
H6711 H 0.3388 0.10958 0.22815 0.0
H6712 H 0.34898 0.12171 0.2516 0.0
H6713 H 0.33618 0.09863 0.25048 0.0
C6714 C 0.33473 0.09966 0.26268 0.0
C6715 C 0.33521 0.10446 0.26915 0.0
C6716 C 0.34672 0.11907 0.24645 0.0
C6717 C 0.33877 0.11012 0.25447 0.0
C6718 C 0.34953 0.12138 0.23932 0.0
C6719 C 0.34682 0.11799 0.23253 0.0
C6720 C 0.34134 0.11311 0.24689 0.0
C6721 C 0.3412 0.11224 0.2332 0.0
C6722 C 0.33644 0.10248 0.25535 0.0
C6723 C 0.33727 0.11216 0.26795 0.0
N6724 N 0.33873 0.1099 0.24025 0.0
N6725 N 0.33906 0.11471 0.26079 0.0
H6726 H 0.6387 0.59844 0.02711 0.0
H6727 H 0.63786 0.62471 0.98948 0.0
H6728 H 0.63848 0.62317 0.02758 0.0
H6729 H 0.63976 0.60016 0.98868 0.0
H6730 H 0.63722 0.62416 1.0035 0.0
H6731 H 0.6383 0.59883 0.01312 0.0
C6732 C 0.6385 0.60396 0.02428 0.0
C6733 C 0.63857 0.61078 0.02856 0.0
C6734 C 0.63773 0.61887 1.0003 0.0
C6735 C 0.63823 0.61127 0.0125 0.0
C6736 C 0.63806 0.6192 0.99233 0.0
C6737 C 0.63882 0.61247 0.98804 0.0
C6738 C 0.6382 0.61174 1.004 0.0
C6739 C 0.63912 0.60544 0.99187 0.0
C6740 C 0.63833 0.60417 0.01628 0.0
C6741 C 0.63849 0.61776 0.02454 0.0
N6742 N 0.63884 0.60525 0.99967 0.0
N6743 N 0.63832 0.61782 0.01676 0.0
H6744 H 0.67741 0.41331 0.26363 0.0
H6745 H 0.65254 0.38419 0.23962 0.0
H6746 H 0.66856 0.39256 0.27371 0.0
H6747 H 0.6712 0.39639 0.22897 0.0
H6748 H 0.65737 0.38805 0.2522 0.0
H6749 H 0.6742 0.4083 0.25086 0.0
C6750 C 0.67485 0.40768 0.26315 0.0
C6751 C 0.67326 0.40335 0.26977 0.0
C6752 C 0.66042 0.38987 0.24711 0.0
C6753 C 0.66946 0.39764 0.25518 0.0
C6754 C 0.6577 0.38761 0.23992 0.0
C6755 C 0.66146 0.38995 0.23319 0.0
C6756 C 0.66681 0.39473 0.24761 0.0
C6757 C 0.668 0.3946 0.23396 0.0
C6758 C 0.67305 0.40482 0.25587 0.0
C6759 C 0.66995 0.39607 0.26879 0.0
N6760 N 0.67041 0.39693 0.24103 0.0
N6761 N 0.66807 0.3935 0.26166 0.0
H6762 H 0.1365 0.90933 0.97998 0.0
H6763 H 0.14158 0.88346 0.0176 0.0
H6764 H 0.13962 0.88479 0.98001 0.0
H6765 H 0.13667 0.90759 0.01893 0.0
H6766 H 0.14061 0.88408 1.00367 0.0
H6767 H 0.13585 0.90905 0.99406 0.0
C6768 C 0.13698 0.90388 0.9829 0.0
C6769 C 0.13828 0.89709 0.97873 0.0
C6770 C 0.13969 0.88927 0.00696 0.0
C6771 C 0.13768 0.89677 0.99486 0.0
C6772 C 0.1403 0.8889 0.01491 0.0
C6773 C 0.13928 0.89549 0.01936 0.0
C6774 C 0.13801 0.89629 1.00338 0.0
C6775 C 0.13747 0.90239 0.01565 0.0
C6776 C 0.13667 0.90374 0.99095 0.0
C6777 C 0.13887 0.89022 0.9829 0.0
N6778 N 0.13693 0.90263 0.00785 0.0
N6779 N 0.13864 0.89026 0.99067 0.0
H6780 H 0.33294 0.89186 0.23681 0.0
H6781 H 0.35353 0.90115 0.27633 0.0
H6782 H 0.33842 0.91484 0.24422 0.0
H6783 H 0.33948 0.88099 0.27387 0.0
H6784 H 0.34879 0.90581 0.26403 0.0
H6785 H 0.3358 0.88725 0.24979 0.0
C6786 C 0.33466 0.89597 0.24112 0.0
C6787 C 0.33558 0.90377 0.23925 0.0
C6788 C 0.34672 0.90036 0.26617 0.0
C6789 C 0.33906 0.89844 0.25412 0.0
C6790 C 0.3494 0.89772 0.27323 0.0
C6791 C 0.34691 0.89066 0.27618 0.0
C6792 C 0.34166 0.89583 0.26184 0.0
C6793 C 0.3417 0.88637 0.27176 0.0
C6794 C 0.33634 0.8933 0.24854 0.0
C6795 C 0.33788 0.90875 0.24519 0.0
N6796 N 0.3393 0.88898 0.26478 0.0
N6797 N 0.33963 0.90599 0.25227 0.0
H6798 H 0.16891 0.11585 0.73492 0.0
H6799 H 0.1703 0.11027 0.78042 0.0
H6800 H 0.17654 0.09471 0.7452 0.0
H6801 H 0.15366 0.1246 0.76912 0.0
H6802 H 0.17484 0.1059 0.7678 0.0
H6803 H 0.16574 0.12073 0.74771 0.0
C6804 C 0.17003 0.11227 0.73986 0.0
C6805 C 0.17299 0.10484 0.73895 0.0
C6806 C 0.17023 0.11005 0.76811 0.0
C6807 C 0.16934 0.11041 0.75364 0.0
C6808 C 0.16761 0.11251 0.7753 0.0
C6809 C 0.16154 0.11778 0.77585 0.0
C6810 C 0.16692 0.11304 0.76141 0.0
C6811 C 0.15843 0.12065 0.769 0.0
C6812 C 0.16816 0.11504 0.74716 0.0
C6813 C 0.17421 0.10044 0.7456 0.0
N6814 N 0.16117 0.11827 0.76209 0.0
N6815 N 0.17239 0.10329 0.75266 0.0
H6816 H 0.11622 0.11903 0.42382 0.0
H6817 H 0.12345 0.12269 0.46904 0.0
H6818 H 0.09911 0.12572 0.44039 0.0
H6819 H 0.13977 0.11182 0.45405 0.0
H6820 H 0.11484 0.12454 0.45819 0.0
H6821 H 0.12536 0.11696 0.43439 0.0
C6822 C 0.11441 0.12008 0.42966 0.0
C6823 C 0.1069 0.12253 0.43123 0.0
C6824 C 0.12029 0.12174 0.45723 0.0
C6825 C 0.11725 0.12022 0.44328 0.0
C6826 C 0.12518 0.12066 0.46343 0.0
C6827 C 0.13221 0.11693 0.46244 0.0
C6828 C 0.1225 0.11921 0.4499 0.0
C6829 C 0.13433 0.11465 0.45502 0.0
C6830 C 0.11959 0.11887 0.43568 0.0
C6831 C 0.10481 0.12375 0.43891 0.0
N6832 N 0.12948 0.1158 0.44901 0.0
N6833 N 0.10994 0.1226 0.44461 0.0
H6834 H 0.11766 0.84609 0.71002 0.0
H6835 H 0.15279 0.87499 0.70248 0.0
H6836 H 0.12983 0.84722 0.68856 0.0
H6837 H 0.13934 0.87479 0.72316 0.0
H6838 H 0.14457 0.86479 0.69721 0.0
H6839 H 0.12562 0.8566 0.71494 0.0
C6840 C 0.122 0.8486 0.70635 0.0
C6841 C 0.12307 0.84588 0.69886 0.0
C6842 C 0.1434 0.86699 0.7029 0.0
C6843 C 0.1323 0.85777 0.70447 0.0
C6844 C 0.14807 0.87282 0.70587 0.0
C6845 C 0.14672 0.87568 0.71325 0.0
C6846 C 0.13735 0.86404 0.70735 0.0
C6847 C 0.14059 0.87264 0.71748 0.0
C6848 C 0.12655 0.85457 0.70915 0.0
C6849 C 0.12879 0.84925 0.69433 0.0
N6850 N 0.13615 0.86699 0.71449 0.0
N6851 N 0.13322 0.855 0.69721 0.0
H6852 H 0.40329 0.89726 0.93036 0.0
H6853 H 0.37773 0.87869 0.9638 0.0
H6854 H 0.40093 0.87292 0.93394 0.0
H6855 H 0.37764 0.90279 0.95872 0.0
H6856 H 0.38622 0.8765 0.95278 0.0
H6857 H 0.3939 0.89952 0.94059 0.0
C6858 C 0.40078 0.89239 0.93328 0.0
C6859 C 0.4029 0.88488 0.93127 0.0
C6860 C 0.38431 0.88227 0.95401 0.0
C6861 C 0.39218 0.88743 0.94303 0.0
C6862 C 0.37947 0.8835 0.96028 0.0
C6863 C 0.37703 0.89091 0.9621 0.0
C6864 C 0.38674 0.88853 0.94954 0.0
C6865 C 0.37945 0.897 0.95745 0.0
C6866 C 0.3954 0.89368 0.93911 0.0
C6867 C 0.39941 0.8788 0.93522 0.0
N6868 N 0.3842 0.89569 0.95139 0.0
N6869 N 0.39428 0.8802 0.94092 0.0
H6870 H 0.38569 0.15598 0.18847 0.0
H6871 H 0.36555 0.1364 0.22438 0.0
H6872 H 0.3835 0.1673 0.21037 0.0
H6873 H 0.35857 0.13128 0.20122 0.0
H6874 H 0.37367 0.14669 0.21952 0.0
H6875 H 0.37768 0.14548 0.1933 0.0
C6876 C 0.3836 0.15624 0.19431 0.0
C6877 C 0.38526 0.16259 0.19899 0.0
C6878 C 0.37038 0.14328 0.2155 0.0
C6879 C 0.37602 0.15062 0.20451 0.0
C6880 C 0.36567 0.13746 0.21827 0.0
C6881 C 0.36127 0.13296 0.21323 0.0
C6882 C 0.37097 0.14449 0.20758 0.0
C6883 C 0.36195 0.13443 0.20533 0.0
C6884 C 0.37895 0.15029 0.19702 0.0
C6885 C 0.38229 0.16261 0.20649 0.0
N6886 N 0.36675 0.14003 0.20275 0.0
N6887 N 0.37784 0.15673 0.20901 0.0
H6888 H 0.11375 0.89347 0.08362 0.0
H6889 H 0.12599 0.88217 0.04067 0.0
H6890 H 0.10163 0.87731 0.06941 0.0
H6891 H 0.1374 0.89987 0.05349 0.0
H6892 H 0.11733 0.88001 0.05152 0.0
H6893 H 0.12281 0.89576 0.073 0.0
C6894 C 0.11308 0.89036 0.07829 0.0
C6895 C 0.10704 0.88514 0.07735 0.0
C6896 C 0.12175 0.88435 0.05202 0.0
C6897 C 0.11726 0.88769 0.06528 0.0
C6898 C 0.12668 0.88553 0.04585 0.0
C6899 C 0.13239 0.89113 0.0463 0.0
C6900 C 0.12255 0.88879 0.0587 0.0
C6901 C 0.13309 0.89543 0.05305 0.0
C6902 C 0.11819 0.89168 0.07224 0.0
C6903 C 0.10626 0.88135 0.07033 0.0
N6904 N 0.12821 0.89418 0.05901 0.0
N6905 N 0.11133 0.88267 0.06458 0.0
H6906 H 0.38782 0.84332 0.29738 0.0
H6907 H 0.3558 0.87446 0.30588 0.0
H6908 H 0.38239 0.8503 0.32049 0.0
H6909 H 0.36954 0.8752 0.28538 0.0
H6910 H 0.36442 0.86466 0.31114 0.0
H6911 H 0.37992 0.85385 0.29251 0.0
C6912 C 0.38499 0.84708 0.30144 0.0
C6913 C 0.3858 0.84592 0.30937 0.0
C6914 C 0.36556 0.86699 0.3055 0.0
C6915 C 0.37669 0.85795 0.30381 0.0
C6916 C 0.36068 0.87262 0.30253 0.0
C6917 C 0.36197 0.87563 0.2952 0.0
C6918 C 0.37165 0.86422 0.30101 0.0
C6919 C 0.36829 0.87292 0.29102 0.0
C6920 C 0.38051 0.8531 0.29865 0.0
C6921 C 0.38201 0.85101 0.31434 0.0
N6922 N 0.37283 0.86729 0.29393 0.0
N6923 N 0.37757 0.85676 0.31148 0.0
H6924 H 0.41039 0.12407 0.56766 0.0
H6925 H 0.36929 0.1102 0.55404 0.0
H6926 H 0.39197 0.1214 0.58398 0.0
H6927 H 0.38421 0.12384 0.5399 0.0
H6928 H 0.37785 0.11245 0.56504 0.0
H6929 H 0.40136 0.12178 0.55725 0.0
C6930 C 0.40444 0.12295 0.56906 0.0
C6931 C 0.40193 0.12293 0.57671 0.0
C6932 C 0.37919 0.11501 0.55954 0.0
C6933 C 0.39154 0.12036 0.56478 0.0
C6934 C 0.37427 0.11382 0.55332 0.0
C6935 C 0.37597 0.11702 0.54615 0.0
C6936 C 0.38596 0.11924 0.55848 0.0
C6937 C 0.3827 0.12133 0.54537 0.0
C6938 C 0.39928 0.12171 0.56311 0.0
C6939 C 0.39413 0.12153 0.57816 0.0
N6940 N 0.38749 0.12226 0.55144 0.0
N6941 N 0.3892 0.12027 0.57224 0.0
H6942 H 0.12497 0.16779 0.7979 0.0
H6943 H 0.14889 0.13035 0.80719 0.0
H6944 H 0.12184 0.15538 0.81907 0.0
H6945 H 0.1427 0.13651 0.78405 0.0
H6946 H 0.14005 0.14005 0.81197 0.0
H6947 H 0.13288 0.15728 0.79306 0.0
C6948 C 0.12592 0.16286 0.80154 0.0
C6949 C 0.12273 0.16253 0.80895 0.0
C6950 C 0.14066 0.13927 0.80584 0.0
C6951 C 0.1318 0.15042 0.80338 0.0
C6952 C 0.14564 0.13361 0.80307 0.0
C6953 C 0.14659 0.13246 0.79515 0.0
C6954 C 0.13681 0.14406 0.80067 0.0
C6955 C 0.1424 0.13727 0.79019 0.0
C6956 C 0.13041 0.15683 0.79874 0.0
C6957 C 0.12411 0.15589 0.81332 0.0
N6958 N 0.13781 0.1429 0.79301 0.0
N6959 N 0.12859 0.15014 0.81051 0.0
H6960 H 0.44051 0.09732 0.12611 0.0
H6961 H 0.45282 0.13928 0.112 0.0
H6962 H 0.42372 0.11417 0.11938 0.0
H6963 H 0.46812 0.12249 0.12157 0.0
H6964 H 0.442 0.13035 0.11401 0.0
H6965 H 0.45062 0.10653 0.1237 0.0
C6966 C 0.43894 0.10296 0.12407 0.0
C6967 C 0.43123 0.10492 0.12289 0.0
C6968 C 0.44773 0.12863 0.11565 0.0
C6969 C 0.4429 0.11567 0.1202 0.0
C6970 C 0.45387 0.13371 0.11451 0.0
C6971 C 0.46135 0.13153 0.11652 0.0
C6972 C 0.44913 0.12137 0.11886 0.0
C6973 C 0.46246 0.12429 0.11978 0.0
C6974 C 0.44474 0.10826 0.12274 0.0
C6975 C 0.42958 0.11241 0.1204 0.0
N6976 N 0.45644 0.11949 0.12083 0.0
N6977 N 0.43538 0.11752 0.11911 0.0
H6978 H 0.16305 0.2107 0.39055 0.0
H6979 H 0.13717 0.20448 0.35381 0.0
H6980 H 0.16036 0.18833 0.38041 0.0
H6981 H 0.13043 0.22037 0.37141 0.0
H6982 H 0.14719 0.19944 0.36235 0.0
H6983 H 0.15252 0.21545 0.38245 0.0
C6984 C 0.16021 0.20679 0.38664 0.0
C6985 C 0.1625 0.1991 0.38618 0.0
C6986 C 0.14345 0.20396 0.36438 0.0
C6987 C 0.15065 0.20451 0.37682 0.0
C6988 C 0.13771 0.20675 0.35956 0.0
C6989 C 0.13282 0.21259 0.36208 0.0
C6990 C 0.14448 0.20724 0.37167 0.0
C6991 C 0.13401 0.21573 0.36938 0.0
C6992 C 0.15422 0.2095 0.38205 0.0
C6993 C 0.15869 0.19428 0.38099 0.0
N6994 N 0.13976 0.21304 0.37393 0.0
N6995 N 0.153 0.19708 0.37646 0.0
H6996 H 0.08497 0.89276 0.62231 0.0
H6997 H 0.03957 0.88641 0.62108 0.0
H6998 H 0.06817 0.9109 0.62298 0.0
H6999 H 0.05514 0.86871 0.61376 0.0
H7000 H 0.05034 0.8951 0.62274 0.0
H7001 H 0.07453 0.88348 0.6201 0.0
C7002 C 0.07911 0.8948 0.62199 0.0
C7003 C 0.07747 0.90266 0.62281 0.0
C7004 C 0.05145 0.88933 0.62075 0.0
C7005 C 0.06555 0.89208 0.62032 0.0
C7006 C 0.04527 0.88438 0.61975 0.0
C7007 C 0.04643 0.8769 0.61707 0.0
C7008 C 0.05894 0.88676 0.61929 0.0
C7009 C 0.05401 0.87446 0.61579 0.0
C7010 C 0.07318 0.88951 0.62069 0.0
C7011 C 0.06977 0.90495 0.62228 0.0
N7012 N 0.06 0.87938 0.61691 0.0
N7013 N 0.06414 0.89971 0.62111 0.0
H7014 H 0.34296 0.81457 0.87549 0.0
H7015 H 0.38062 0.78868 0.87126 0.0
H7016 H 0.35338 0.80288 0.89458 0.0
H7017 H 0.37166 0.80285 0.85323 0.0
H7018 H 0.37044 0.79334 0.87986 0.0
H7019 H 0.35322 0.80993 0.86715 0.0
C7020 C 0.34744 0.81102 0.87791 0.0
C7021 C 0.3474 0.80912 0.88571 0.0
C7022 C 0.37076 0.79553 0.87406 0.0
C7023 C 0.3591 0.80374 0.87623 0.0
C7024 C 0.37656 0.7929 0.86921 0.0
C7025 C 0.37702 0.79561 0.86168 0.0
C7026 C 0.36539 0.80085 0.8713 0.0
C7027 C 0.37155 0.80085 0.8591 0.0
C7028 C 0.35329 0.80838 0.87316 0.0
C7029 C 0.3533 0.80452 0.8886 0.0
N7030 N 0.36596 0.80333 0.86391 0.0
N7031 N 0.35892 0.80194 0.88384 0.0
H7032 H 0.42631 0.89725 0.39677 0.0
H7033 H 0.46744 0.88275 0.3827 0.0
H7034 H 0.43648 0.90361 0.37519 0.0
H7035 H 0.45474 0.87082 0.40013 0.0
H7036 H 0.45647 0.89127 0.38065 0.0
H7037 H 0.43699 0.88825 0.39898 0.0
C7038 C 0.43077 0.89667 0.39249 0.0
C7039 C 0.43052 0.90101 0.38574 0.0
C7040 C 0.45604 0.88678 0.38491 0.0
C7041 C 0.44272 0.89098 0.38825 0.0
C7042 C 0.46228 0.88195 0.38606 0.0
C7043 C 0.46189 0.87612 0.39153 0.0
C7044 C 0.44939 0.88583 0.38936 0.0
C7045 C 0.45515 0.87526 0.39581 0.0
C7046 C 0.43684 0.89157 0.39373 0.0
C7047 C 0.43645 0.90023 0.3804 0.0
N7048 N 0.44915 0.88011 0.39468 0.0
N7049 N 0.44233 0.89533 0.38178 0.0
H7050 H 0.34342 0.21092 0.62124 0.0
H7051 H 0.37573 0.20235 0.65235 0.0
H7052 H 0.35097 0.1879 0.62614 0.0
H7053 H 0.37451 0.22364 0.63995 0.0
H7054 H 0.3658 0.19701 0.64386 0.0
H7055 H 0.35378 0.21588 0.62929 0.0
C7056 C 0.34726 0.2069 0.62399 0.0
C7057 C 0.34631 0.19897 0.62299 0.0
C7058 C 0.3677 0.20286 0.64302 0.0
C7059 C 0.35819 0.20463 0.63226 0.0
C7060 C 0.37335 0.20589 0.64785 0.0
C7061 C 0.37583 0.21348 0.64692 0.0
C7062 C 0.36443 0.20751 0.63731 0.0
C7063 C 0.3726 0.21783 0.64098 0.0
C7064 C 0.3532 0.20974 0.62856 0.0
C7065 C 0.35153 0.19405 0.62667 0.0
N7066 N 0.36701 0.21482 0.63646 0.0
N7067 N 0.3572 0.19695 0.63119 0.0
H7068 H 0.08439 0.11513 0.89143 0.0
H7069 H 0.03981 0.12404 0.88435 0.0
H7070 H 0.06848 0.09981 0.88032 0.0
H7071 H 0.05414 0.13879 0.89796 0.0
H7072 H 0.05068 0.11544 0.88235 0.0
H7073 H 0.0738 0.12424 0.89358 0.0
C7074 C 0.07869 0.11372 0.88941 0.0
C7075 C 0.07729 0.10673 0.88569 0.0
C7076 C 0.0515 0.12055 0.88579 0.0
C7077 C 0.06524 0.11704 0.88808 0.0
C7078 C 0.04529 0.12543 0.88692 0.0
C7079 C 0.04611 0.13199 0.89143 0.0
C7080 C 0.05863 0.1223 0.88912 0.0
C7081 C 0.05334 0.13371 0.8945 0.0
C7082 C 0.07266 0.11888 0.89067 0.0
C7083 C 0.0698 0.10511 0.88326 0.0
N7084 N 0.05935 0.12886 0.89332 0.0
N7085 N 0.06408 0.11022 0.88448 0.0
H7086 H 0.15591 0.81977 0.12289 0.0
H7087 H 0.13597 0.78373 0.14195 0.0
H7088 H 0.16752 0.79803 0.12496 0.0
H7089 H 0.13215 0.80644 0.1509 0.0
H7090 H 0.14628 0.78874 0.13391 0.0
H7091 H 0.14554 0.8148 0.13103 0.0
C7092 C 0.15626 0.81394 0.12498 0.0
C7093 C 0.16264 0.80933 0.12324 0.0
C7094 C 0.14317 0.79263 0.13763 0.0
C7095 C 0.15083 0.80367 0.13259 0.0
C7096 C 0.13735 0.78976 0.14229 0.0
C7097 C 0.13326 0.79463 0.14723 0.0
C7098 C 0.14474 0.8005 0.13762 0.0
C7099 C 0.1351 0.80248 0.14715 0.0
C7100 C 0.15039 0.81115 0.12969 0.0
C7101 C 0.16279 0.80184 0.12621 0.0
N7102 N 0.14065 0.80519 0.14236 0.0
N7103 N 0.15697 0.79924 0.13071 0.0
H7104 H 0.1352 0.43222 0.10832 0.0
H7105 H 0.10576 0.45678 0.13337 0.0
H7106 H 0.11078 0.4307 0.10463 0.0
H7107 H 0.12872 0.46418 0.12828 0.0
H7108 H 0.10751 0.4458 0.12458 0.0
H7109 H 0.133 0.4424 0.11768 0.0
C7110 C 0.12936 0.43395 0.10954 0.0
C7111 C 0.12317 0.43057 0.10567 0.0
C7112 C 0.11219 0.44978 0.12548 0.0
C7113 C 0.12063 0.44231 0.11637 0.0
C7114 C 0.11121 0.45598 0.13049 0.0
C7115 C 0.1172 0.46118 0.13169 0.0
C7116 C 0.11926 0.44879 0.12173 0.0
C7117 C 0.12409 0.4601 0.12772 0.0
C7118 C 0.12812 0.43982 0.11484 0.0
C7119 C 0.11573 0.43318 0.10743 0.0
N7120 N 0.12496 0.45399 0.12297 0.0
N7121 N 0.11466 0.43889 0.11266 0.0
H7122 H 0.61149 0.07435 0.90572 0.0
H7123 H 0.62957 0.04742 0.87381 0.0
H7124 H 0.63303 0.07932 0.89454 0.0
H7125 H 0.60545 0.04712 0.87914 0.0
H7126 H 0.63105 0.05891 0.88165 0.0
H7127 H 0.6093 0.06399 0.89655 0.0
C7128 C 0.61575 0.0733 0.90132 0.0
C7129 C 0.62249 0.07772 0.90095 0.0
C7130 C 0.62541 0.05638 0.88105 0.0
C7131 C 0.61996 0.06588 0.89038 0.0
C7132 C 0.62455 0.04987 0.87649 0.0
C7133 C 0.61735 0.04638 0.87573 0.0
C7134 C 0.61907 0.05932 0.88505 0.0
C7135 C 0.6111 0.04963 0.87963 0.0
C7136 C 0.61446 0.06741 0.89605 0.0
C7137 C 0.62772 0.07615 0.89503 0.0
N7138 N 0.61211 0.05587 0.88419 0.0
N7139 N 0.62637 0.07032 0.89003 0.0
H7140 H 0.20124 0.39423 0.1557 0.0
H7141 H 0.20651 0.35236 0.13822 0.0
H7142 H 0.19879 0.37391 0.16956 0.0
H7143 H 0.21909 0.37174 0.12967 0.0
H7144 H 0.20192 0.36028 0.14903 0.0
H7145 H 0.20602 0.38623 0.14514 0.0
C7146 C 0.20169 0.3881 0.15651 0.0
C7147 C 0.19962 0.38475 0.16353 0.0
C7148 C 0.20562 0.36282 0.14473 0.0
C7149 C 0.20502 0.37558 0.15148 0.0
C7150 C 0.20815 0.35833 0.13858 0.0
C7151 C 0.21291 0.36154 0.13298 0.0
C7152 C 0.20778 0.37058 0.14517 0.0
C7153 C 0.21522 0.36919 0.13379 0.0
C7154 C 0.20446 0.38355 0.15051 0.0
C7155 C 0.20038 0.37676 0.16428 0.0
N7156 N 0.21252 0.37351 0.1397 0.0
N7157 N 0.20297 0.37244 0.15832 0.0
H7158 H 0.89788 0.93363 0.40586 0.0
H7159 H 0.8794 0.96004 0.37396 0.0
H7160 H 0.87629 0.92861 0.39481 0.0
H7161 H 0.9035 0.96108 0.37927 0.0
H7162 H 0.87829 0.94847 0.38153 0.0
H7163 H 0.90008 0.94387 0.39656 0.0
C7164 C 0.89361 0.93463 0.40147 0.0
C7165 C 0.88684 0.93024 0.40118 0.0
C7166 C 0.88385 0.95117 0.38099 0.0
C7167 C 0.88941 0.94192 0.39045 0.0
C7168 C 0.88452 0.95774 0.37651 0.0
C7169 C 0.89159 0.96149 0.37579 0.0
C7170 C 0.89023 0.94846 0.38507 0.0
C7171 C 0.89792 0.95841 0.37972 0.0
C7172 C 0.89492 0.94045 0.39612 0.0
C7173 C 0.88162 0.93175 0.39525 0.0
N7174 N 0.89707 0.95214 0.38428 0.0
N7175 N 0.88299 0.93749 0.39018 0.0
H7176 H 0.80454 0.11356 0.15651 0.0
H7177 H 0.80129 0.15587 0.13858 0.0
H7178 H 0.81295 0.13397 0.16765 0.0
H7179 H 0.79086 0.13607 0.12828 0.0
H7180 H 0.80614 0.14776 0.14903 0.0
H7181 H 0.79988 0.1215 0.14586 0.0
C7182 C 0.80544 0.1197 0.15669 0.0
C7183 C 0.80913 0.12311 0.16298 0.0
C7184 C 0.80282 0.14516 0.14448 0.0
C7185 C 0.80385 0.13222 0.15083 0.0
C7186 C 0.8001 0.14978 0.13854 0.0
C7187 C 0.79576 0.14656 0.13262 0.0
C7188 C 0.80115 0.13726 0.1445 0.0
C7189 C 0.79426 0.13868 0.13276 0.0
C7190 C 0.80275 0.12423 0.15063 0.0
C7191 C 0.81007 0.1311 0.16295 0.0
N7192 N 0.79694 0.13428 0.13862 0.0
N7193 N 0.80747 0.13537 0.15698 0.0
H7194 H 0.37448 0.57869 0.61081 0.0
H7195 H 0.40372 0.55037 0.63164 0.0
H7196 H 0.39768 0.57593 0.60261 0.0
H7197 H 0.37948 0.54611 0.63006 0.0
H7198 H 0.40216 0.56146 0.623 0.0
H7199 H 0.37682 0.56872 0.62034 0.0
C7200 C 0.3801 0.57608 0.61106 0.0
C7201 C 0.38587 0.57817 0.60584 0.0
C7202 C 0.39718 0.55815 0.62466 0.0
C7203 C 0.38855 0.56665 0.61674 0.0
C7204 C 0.39807 0.55185 0.62956 0.0
C7205 C 0.39169 0.54743 0.63168 0.0
C7206 C 0.38982 0.56012 0.62204 0.0
C7207 C 0.38448 0.54954 0.62885 0.0
C7208 C 0.38141 0.57033 0.61647 0.0
C7209 C 0.39302 0.57445 0.60643 0.0
N7210 N 0.38373 0.55576 0.62423 0.0
N7211 N 0.39416 0.56887 0.61177 0.0
H7212 H 0.19184 0.61803 0.35473 0.0
H7213 H 0.21525 0.65485 0.36692 0.0
H7214 H 0.20846 0.62869 0.33971 0.0
H7215 H 0.21083 0.63705 0.38344 0.0
H7216 H 0.21057 0.64639 0.35673 0.0
H7217 H 0.19684 0.62573 0.36534 0.0
C7218 C 0.19655 0.6219 0.35361 0.0
C7219 C 0.19959 0.62272 0.34616 0.0
C7220 C 0.21059 0.64435 0.36259 0.0
C7221 C 0.20512 0.63178 0.35832 0.0
C7222 C 0.21327 0.64916 0.36839 0.0
C7223 C 0.21348 0.64663 0.37602 0.0
C7224 C 0.20789 0.637 0.36444 0.0
C7225 C 0.21068 0.63926 0.37765 0.0
C7226 C 0.19936 0.62634 0.35969 0.0
C7227 C 0.20566 0.62798 0.34519 0.0
N7228 N 0.20796 0.6347 0.37191 0.0
N7229 N 0.20812 0.63236 0.35115 0.0
H7230 H 0.29967 0.3788 0.83887 0.0
H7231 H 0.29769 0.37123 0.88322 0.0
H7232 H 0.31655 0.38901 0.85392 0.0
H7233 H 0.2935 0.35311 0.86699 0.0
H7234 H 0.30301 0.3791 0.8729 0.0
H7235 H 0.29543 0.37072 0.84939 0.0
C7236 C 0.30257 0.37935 0.84432 0.0
C7237 C 0.30866 0.38458 0.84534 0.0
C7238 C 0.30099 0.37337 0.87163 0.0
C7239 C 0.30346 0.37547 0.85759 0.0
C7240 C 0.29808 0.36881 0.87755 0.0
C7241 C 0.29533 0.3614 0.87602 0.0
C7242 C 0.30089 0.37061 0.86408 0.0
C7243 C 0.29556 0.35878 0.86841 0.0
C7244 C 0.30007 0.37474 0.85035 0.0
C7245 C 0.31182 0.38517 0.85276 0.0
N7246 N 0.29819 0.36341 0.86271 0.0
N7247 N 0.30916 0.3807 0.85859 0.0
H7248 H 0.89722 0.87171 0.57744 0.0
H7249 H 0.87917 0.90182 0.5479 0.0
H7250 H 0.90685 0.89415 0.57334 0.0
H7251 H 0.87421 0.87766 0.54731 0.0
H7252 H 0.88797 0.89965 0.55865 0.0
H7253 H 0.88723 0.87445 0.56802 0.0
C7254 C 0.89721 0.87725 0.57464 0.0
C7255 C 0.90297 0.88267 0.57619 0.0
C7256 C 0.8849 0.89483 0.55623 0.0
C7257 C 0.89156 0.88578 0.56526 0.0
C7258 C 0.87989 0.89607 0.55011 0.0
C7259 C 0.87598 0.88991 0.54673 0.0
C7260 C 0.88592 0.88738 0.55908 0.0
C7261 C 0.87703 0.88257 0.54982 0.0
C7262 C 0.89153 0.87877 0.5692 0.0
C7263 C 0.90265 0.88971 0.57226 0.0
N7264 N 0.88191 0.88151 0.55582 0.0
N7265 N 0.89707 0.89104 0.56697 0.0
H7266 H 0.88923 0.16317 0.29536 0.0
H7267 H 0.85642 0.133 0.30574 0.0
H7268 H 0.88405 0.15714 0.31877 0.0
H7269 H 0.86865 0.13298 0.28429 0.0
H7270 H 0.86524 0.14299 0.31054 0.0
H7271 H 0.88032 0.15327 0.29097 0.0
C7272 C 0.88624 0.15972 0.29957 0.0
C7273 C 0.88743 0.16088 0.30743 0.0
C7274 C 0.86597 0.14079 0.30479 0.0
C7275 C 0.87716 0.14965 0.30248 0.0
C7276 C 0.86096 0.13513 0.30207 0.0
C7277 C 0.86181 0.13228 0.29461 0.0
C7278 C 0.87177 0.14361 0.29994 0.0
C7279 C 0.86775 0.13516 0.29003 0.0
C7280 C 0.88117 0.15408 0.29707 0.0
C7281 C 0.88338 0.1563 0.31266 0.0
N7282 N 0.87247 0.1407 0.29274 0.0
N7283 N 0.87837 0.1509 0.31009 0.0
H7284 H 0.6158 0.1217 0.08328 0.0
H7285 H 0.62618 0.12559 0.03917 0.0
H7286 H 0.59885 0.12648 0.06593 0.0
H7287 H 0.63839 0.10977 0.05358 0.0
H7288 H 0.61695 0.12777 0.04958 0.0
H7289 H 0.62517 0.11892 0.07309 0.0
C7290 C 0.61407 0.12217 0.07734 0.0
C7291 C 0.60657 0.12436 0.07542 0.0
C7292 C 0.62172 0.12391 0.05051 0.0
C7293 C 0.61719 0.12129 0.06384 0.0
C7294 C 0.62699 0.12273 0.04462 0.0
C7295 C 0.63315 0.11773 0.04569 0.0
C7296 C 0.62272 0.12012 0.05754 0.0
C7297 C 0.63389 0.11394 0.05273 0.0
C7298 C 0.61938 0.12055 0.07155 0.0
C7299 C 0.60457 0.1248 0.06765 0.0
N7300 N 0.62877 0.11527 0.05846 0.0
N7301 N 0.60986 0.12335 0.06214 0.0
H7302 H 0.61277 0.85058 0.80088 0.0
H7303 H 0.65434 0.87047 0.80309 0.0
H7304 H 0.63171 0.84178 0.81411 0.0
H7305 H 0.63658 0.87824 0.7879 0.0
H7306 H 0.64572 0.8604 0.80785 0.0
H7307 H 0.62098 0.86121 0.79658 0.0
C7308 C 0.61863 0.85092 0.80292 0.0
C7309 C 0.62157 0.84527 0.80784 0.0
C7310 C 0.64365 0.86433 0.80352 0.0
C7311 C 0.63097 0.8574 0.80297 0.0
C7312 C 0.64855 0.8701 0.80088 0.0
C7313 C 0.64605 0.87521 0.79525 0.0
C7314 C 0.63621 0.86366 0.80045 0.0
C7315 C 0.6386 0.87442 0.79235 0.0
C7316 C 0.62332 0.85696 0.80044 0.0
C7317 C 0.62923 0.84595 0.81025 0.0
N7318 N 0.63393 0.86875 0.79498 0.0
N7319 N 0.63364 0.85189 0.8078 0.0
H7320 H 0.89764 0.13609 0.93225 0.0
H7321 H 0.87875 0.10564 0.961 0.0
H7322 H 0.90616 0.113 0.93478 0.0
H7323 H 0.87485 0.12996 0.96208 0.0
H7324 H 0.88757 0.10769 0.95019 0.0
H7325 H 0.88774 0.13332 0.94172 0.0
C7326 C 0.8974 0.1304 0.93471 0.0
C7327 C 0.90281 0.1248 0.93268 0.0
C7328 C 0.88467 0.11256 0.95271 0.0
C7329 C 0.89151 0.12163 0.94373 0.0
C7330 C 0.87965 0.11139 0.95886 0.0
C7331 C 0.87593 0.11762 0.96235 0.0
C7332 C 0.88592 0.12003 0.94997 0.0
C7333 C 0.87731 0.12497 0.95941 0.0
C7334 C 0.89177 0.12885 0.94019 0.0
C7335 C 0.90222 0.11757 0.93623 0.0
N7336 N 0.88218 0.12597 0.9534 0.0
N7337 N 0.8967 0.1162 0.94158 0.0
H7338 H 0.61667 0.1547 0.69371 0.0
H7339 H 0.65432 0.14244 0.7161 0.0
H7340 H 0.62789 0.16966 0.71 0.0
H7341 H 0.63656 0.12603 0.71111 0.0
H7342 H 0.6458 0.15273 0.71171 0.0
H7343 H 0.62481 0.14418 0.69812 0.0
C7344 C 0.62076 0.15582 0.69824 0.0
C7345 C 0.62158 0.16321 0.70138 0.0
C7346 C 0.64382 0.14685 0.7115 0.0
C7347 C 0.63114 0.15117 0.70622 0.0
C7348 C 0.64867 0.141 0.71398 0.0
C7349 C 0.64619 0.13335 0.71389 0.0
C7350 C 0.63648 0.14504 0.70873 0.0
C7351 C 0.63882 0.13178 0.71105 0.0
C7352 C 0.62546 0.14979 0.7007 0.0
C7353 C 0.62715 0.1642 0.70716 0.0
N7354 N 0.63423 0.13757 0.70854 0.0
N7355 N 0.63175 0.1583 0.70931 0.0
H7356 H 0.60407 0.87302 0.43944 0.0
H7357 H 0.63768 0.89932 0.45638 0.0
H7358 H 0.61082 0.89412 0.42855 0.0
H7359 H 0.62627 0.88147 0.46896 0.0
H7360 H 0.62874 0.89723 0.44558 0.0
H7361 H 0.61302 0.87565 0.44986 0.0
C7362 C 0.60753 0.87817 0.43924 0.0
C7363 C 0.60684 0.88331 0.43313 0.0
C7364 C 0.62823 0.89374 0.45069 0.0
C7365 C 0.61709 0.88639 0.445 0.0
C7366 C 0.63334 0.8949 0.45677 0.0
C7367 C 0.63272 0.89043 0.46341 0.0
C7368 C 0.62257 0.88802 0.45129 0.0
C7369 C 0.62693 0.88491 0.46384 0.0
C7370 C 0.6126 0.87971 0.44519 0.0
C7371 C 0.61129 0.89 0.43317 0.0
N7372 N 0.62212 0.88382 0.45785 0.0
N7373 N 0.6163 0.89134 0.43901 0.0
H7374 H 0.88366 0.84871 0.18935 0.0
H7375 H 0.87004 0.8751 0.22429 0.0
H7376 H 0.89017 0.84431 0.21276 0.0
H7377 H 0.85743 0.87357 0.20314 0.0
H7378 H 0.87874 0.86504 0.21969 0.0
H7379 H 0.87528 0.85912 0.19378 0.0
C7380 C 0.88339 0.85002 0.19541 0.0
C7381 C 0.88764 0.84571 0.2007 0.0
C7382 C 0.87409 0.86692 0.21604 0.0
C7383 C 0.87811 0.85759 0.20581 0.0
C7384 C 0.86914 0.87264 0.21866 0.0
C7385 C 0.86296 0.87506 0.21413 0.0
C7386 C 0.87301 0.86377 0.20871 0.0
C7387 C 0.86213 0.87186 0.2068 0.0
C7388 C 0.87858 0.85591 0.19794 0.0
C7389 C 0.887 0.84753 0.20851 0.0
N7390 N 0.8671 0.86638 0.2043 0.0
N7391 N 0.88236 0.85336 0.21083 0.0
H7392 H 0.56843 0.91055 0.89094 0.0
H7393 H 0.5481 0.87339 0.87839 0.0
H7394 H 0.58158 0.89399 0.87796 0.0
H7395 H 0.54704 0.8799 0.90222 0.0
H7396 H 0.55925 0.88177 0.87677 0.0
H7397 H 0.55917 0.90056 0.89395 0.0
C7398 C 0.5695 0.90484 0.88878 0.0
C7399 C 0.57593 0.90323 0.88414 0.0
C7400 C 0.55658 0.88131 0.88235 0.0
C7401 C 0.565 0.89182 0.88735 0.0
C7402 C 0.55026 0.87646 0.88332 0.0
C7403 C 0.54657 0.87594 0.89046 0.0
C7404 C 0.55901 0.88591 0.88848 0.0
C7405 C 0.54954 0.88029 0.89656 0.0
C7406 C 0.56413 0.89915 0.89049 0.0
C7407 C 0.57669 0.89567 0.88138 0.0
N7408 N 0.55546 0.88523 0.8954 0.0
N7409 N 0.57124 0.89029 0.88292 0.0
H7410 H 0.83913 0.80993 0.63243 0.0
H7411 H 0.87978 0.78907 0.63557 0.0
H7412 H 0.85251 0.80402 0.61247 0.0
H7413 H 0.86905 0.80071 0.65445 0.0
H7414 H 0.86962 0.79379 0.62699 0.0
H7415 H 0.84964 0.80568 0.6406 0.0
C7416 C 0.84427 0.80769 0.62975 0.0
C7417 C 0.84489 0.8073 0.62172 0.0
C7418 C 0.86952 0.79539 0.63299 0.0
C7419 C 0.85706 0.80249 0.63112 0.0
C7420 C 0.87533 0.79276 0.63784 0.0
C7421 C 0.8753 0.79472 0.64563 0.0
C7422 C 0.86353 0.79985 0.63602 0.0
C7423 C 0.8693 0.79924 0.64843 0.0
C7424 C 0.8503 0.80533 0.63443 0.0
C7425 C 0.85178 0.80448 0.61861 0.0
N7426 N 0.86363 0.80163 0.64364 0.0
N7427 N 0.85757 0.80214 0.62331 0.0
H7428 H 0.93315 0.10249 0.3962 0.0
H7429 H 0.96671 0.12704 0.37972 0.0
H7430 H 0.93356 0.10879 0.37227 0.0
H7431 H 0.95625 0.13456 0.40073 0.0
H7432 H 0.95588 0.11832 0.37754 0.0
H7433 H 0.94291 0.11235 0.39877 0.0
C7434 C 0.93524 0.10597 0.3915 0.0
C7435 C 0.93251 0.1048 0.384 0.0
C7436 C 0.9559 0.12195 0.38258 0.0
C7437 C 0.94367 0.11599 0.38692 0.0
C7438 C 0.96201 0.12694 0.38377 0.0
C7439 C 0.9621 0.13176 0.39018 0.0
C7440 C 0.95004 0.12147 0.38806 0.0
C7441 C 0.95617 0.13111 0.39557 0.0
C7442 C 0.94076 0.11161 0.393 0.0
C7443 C 0.93541 0.10952 0.37815 0.0
N7444 N 0.95036 0.126 0.39443 0.0
N7445 N 0.9409 0.11482 0.37972 0.0
H7446 H 0.66094 0.21257 0.11632 0.0
H7447 H 0.6345 0.20308 0.1528 0.0
H7448 H 0.66027 0.19038 0.12707 0.0
H7449 H 0.6334 0.2242 0.14012 0.0
H7450 H 0.64427 0.19835 0.14377 0.0
H7451 H 0.65112 0.21709 0.12533 0.0
C7452 C 0.65862 0.20865 0.12054 0.0
C7453 C 0.66123 0.20108 0.12091 0.0
C7454 C 0.64191 0.20403 0.14298 0.0
C7455 C 0.6502 0.20618 0.13131 0.0
C7456 C 0.63637 0.2067 0.14812 0.0
C7457 C 0.63327 0.21405 0.14721 0.0
C7458 C 0.64434 0.20877 0.13691 0.0
C7459 C 0.63579 0.21856 0.14107 0.0
C7460 C 0.65307 0.21121 0.1257 0.0
C7461 C 0.65824 0.19622 0.12655 0.0
N7462 N 0.64119 0.21586 0.13616 0.0
N7463 N 0.65288 0.19886 0.13156 0.0
H7464 H 0.56691 0.09776 0.62275 0.0
H7465 H 0.55497 0.1409 0.61374 0.0
H7466 H 0.5831 0.11632 0.62521 0.0
H7467 H 0.53913 0.12343 0.62107 0.0
H7468 H 0.56565 0.13194 0.61603 0.0
H7469 H 0.55692 0.10701 0.61975 0.0
C7470 C 0.56838 0.10379 0.6226 0.0
C7471 C 0.57586 0.10627 0.62425 0.0
C7472 C 0.55983 0.1301 0.61712 0.0
C7473 C 0.56438 0.11692 0.62091 0.0
C7474 C 0.55376 0.1352 0.61587 0.0
C7475 C 0.54619 0.13285 0.61717 0.0
C7476 C 0.55823 0.1226 0.61959 0.0
C7477 C 0.54488 0.12539 0.61982 0.0
C7478 C 0.56265 0.10907 0.62095 0.0
C7479 C 0.57739 0.11418 0.62407 0.0
N7480 N 0.55083 0.12051 0.62088 0.0
N7481 N 0.57168 0.11924 0.62242 0.0
H7482 H 0.65558 0.80029 0.39581 0.0
H7483 H 0.63763 0.80262 0.35348 0.0
H7484 H 0.66588 0.81274 0.37709 0.0
H7485 H 0.62905 0.78745 0.37089 0.0
H7486 H 0.64761 0.80705 0.3624 0.0
H7487 H 0.64534 0.79606 0.38712 0.0
C7488 C 0.65565 0.80217 0.38989 0.0
C7489 C 0.66158 0.80686 0.38716 0.0
C7490 C 0.64353 0.80278 0.36431 0.0
C7491 C 0.64993 0.80208 0.37721 0.0
C7492 C 0.63785 0.80031 0.35924 0.0
C7493 C 0.63259 0.79474 0.36155 0.0
C7494 C 0.64388 0.79966 0.37174 0.0
C7495 C 0.63305 0.7918 0.369 0.0
C7496 C 0.64985 0.79972 0.38492 0.0
C7497 C 0.66146 0.80906 0.37941 0.0
N7498 N 0.63861 0.79429 0.37386 0.0
N7499 N 0.65573 0.80667 0.37473 0.0
H7500 H 0.92784 0.89807 0.11448 0.0
H7501 H 0.96794 0.88017 0.12801 0.0
H7502 H 0.93922 0.90398 0.13559 0.0
H7503 H 0.95549 0.87163 0.10854 0.0
H7504 H 0.95753 0.88923 0.13062 0.0
H7505 H 0.93796 0.8886 0.11183 0.0
C7506 C 0.93247 0.89733 0.11855 0.0
C7507 C 0.93269 0.90166 0.12531 0.0
C7508 C 0.957 0.88534 0.12581 0.0
C7509 C 0.94429 0.89106 0.12229 0.0
C7510 C 0.96291 0.88018 0.12437 0.0
C7511 C 0.96243 0.87518 0.11814 0.0
C7512 C 0.95058 0.8855 0.12094 0.0
C7513 C 0.95594 0.8754 0.11345 0.0
C7514 C 0.93823 0.89195 0.11705 0.0
C7515 C 0.93881 0.90062 0.13038 0.0
N7516 N 0.95023 0.88051 0.11492 0.0
N7517 N 0.94438 0.89544 0.12876 0.0
H7518 H 0.83887 0.19923 0.87631 0.0
H7519 H 0.88232 0.21387 0.87277 0.0
H7520 H 0.85331 0.20296 0.89605 0.0
H7521 H 0.86691 0.21139 0.85369 0.0
H7522 H 0.87212 0.20935 0.88144 0.0
H7523 H 0.84929 0.20332 0.86803 0.0
C7524 C 0.84421 0.20098 0.87893 0.0
C7525 C 0.84514 0.20081 0.88694 0.0
C7526 C 0.87098 0.20973 0.87535 0.0
C7527 C 0.85728 0.20538 0.87736 0.0
C7528 C 0.87681 0.21223 0.87042 0.0
C7529 C 0.87541 0.2129 0.86254 0.0
C7530 C 0.86373 0.20787 0.87234 0.0
C7531 C 0.86817 0.2109 0.85974 0.0
C7532 C 0.85021 0.20326 0.87417 0.0
C7533 C 0.85232 0.20295 0.88993 0.0
N7534 N 0.8626 0.20848 0.86463 0.0
N7535 N 0.85811 0.20516 0.88514 0.0
H7536 H 0.87077 0.57418 0.89933 0.0
H7537 H 0.90209 0.54796 0.87826 0.0
H7538 H 0.89498 0.57522 0.9044 0.0
H7539 H 0.87779 0.54594 0.87459 0.0
H7540 H 0.89978 0.55867 0.8871 0.0
H7541 H 0.87339 0.56465 0.88945 0.0
C7542 C 0.87665 0.57249 0.89832 0.0
C7543 C 0.88265 0.57555 0.90275 0.0
C7544 C 0.89494 0.55595 0.88432 0.0
C7545 C 0.88568 0.56446 0.89146 0.0
C7546 C 0.89628 0.54987 0.87927 0.0
C7547 C 0.89012 0.54614 0.8757 0.0
C7548 C 0.88738 0.55831 0.88579 0.0
C7549 C 0.88267 0.54875 0.87718 0.0
C7550 C 0.87814 0.56698 0.8927 0.0
C7551 C 0.89014 0.57297 0.90123 0.0
N7552 N 0.88151 0.55466 0.88213 0.0
N7553 N 0.89144 0.56757 0.89574 0.0
H7554 H 0.3934 0.92717 0.11023 0.0
H7555 H 0.38163 0.96889 0.1254 0.0
H7556 H 0.37364 0.9397 0.1024 0.0
H7557 H 0.39781 0.95484 0.13755 0.0
H7558 H 0.37924 0.95834 0.11648 0.0
H7559 H 0.39579 0.93725 0.11988 0.0
C7560 C 0.38956 0.93204 0.11058 0.0
C7561 C 0.38327 0.93261 0.1056 0.0
C7562 C 0.38329 0.9575 0.1211 0.0
C7563 C 0.38602 0.94416 0.11644 0.0
C7564 C 0.38464 0.96352 0.12617 0.0
C7565 C 0.38989 0.96267 0.13218 0.0
C7566 C 0.38729 0.95056 0.12196 0.0
C7567 C 0.39368 0.95564 0.13299 0.0
C7568 C 0.39092 0.93777 0.11607 0.0
C7569 C 0.3785 0.93903 0.1062 0.0
N7570 N 0.39236 0.94984 0.12789 0.0
N7571 N 0.37999 0.94456 0.11148 0.0
H7572 H 0.81456 0.61571 0.85389 0.0
H7573 H 0.79344 0.65411 0.86594 0.0
H7574 H 0.79883 0.62762 0.8389 0.0
H7575 H 0.79763 0.63643 0.88264 0.0
H7576 H 0.79763 0.64536 0.85579 0.0
H7577 H 0.81028 0.62388 0.86448 0.0
C7578 C 0.81019 0.61996 0.85278 0.0
C7579 C 0.80719 0.62097 0.84534 0.0
C7580 C 0.79768 0.64341 0.86168 0.0
C7581 C 0.8025 0.63055 0.85747 0.0
C7582 C 0.79529 0.64839 0.86746 0.0
C7583 C 0.79513 0.64599 0.87513 0.0
C7584 C 0.80015 0.636 0.86358 0.0
C7585 C 0.79776 0.63856 0.87682 0.0
C7586 C 0.8078 0.62466 0.85885 0.0
C7587 C 0.80158 0.62671 0.84437 0.0
N7588 N 0.80019 0.63383 0.87109 0.0
N7589 N 0.79952 0.63132 0.85031 0.0
H7590 H 0.11274 0.07476 0.60286 0.0
H7591 H 0.13093 0.04555 0.63295 0.0
H7592 H 0.13645 0.07529 0.60995 0.0
H7593 H 0.10659 0.04757 0.62959 0.0
H7594 H 0.13295 0.05661 0.62466 0.0
H7595 H 0.11023 0.0649 0.61251 0.0
C7596 C 0.11743 0.07284 0.60645 0.0
C7597 C 0.12485 0.07588 0.60552 0.0
C7598 C 0.12714 0.05473 0.6258 0.0
C7599 C 0.12197 0.06459 0.61666 0.0
C7600 C 0.126 0.04847 0.63064 0.0
C7601 C 0.11858 0.04579 0.63213 0.0
C7602 C 0.12083 0.05826 0.62227 0.0
C7603 C 0.11239 0.04954 0.62862 0.0
C7604 C 0.11597 0.06723 0.612 0.0
C7605 C 0.13063 0.07322 0.61046 0.0
N7606 N 0.11364 0.05556 0.6238 0.0
N7607 N 0.12908 0.06771 0.61575 0.0
H7608 H 0.20699 0.89599 0.85089 0.0
H7609 H 0.20579 0.85399 0.8698 0.0
H7610 H 0.1954 0.87656 0.8409 0.0
H7611 H 0.21945 0.87236 0.87889 0.0
H7612 H 0.20125 0.86253 0.85957 0.0
H7613 H 0.21108 0.8878 0.86161 0.0
C7614 C 0.20527 0.89002 0.85098 0.0
C7615 C 0.20087 0.88695 0.84497 0.0
C7616 C 0.20519 0.86474 0.86383 0.0
C7617 C 0.2055 0.87757 0.85719 0.0
C7618 C 0.20771 0.85988 0.86966 0.0
C7619 C 0.21287 0.86257 0.87516 0.0
C7620 C 0.20789 0.87235 0.8635 0.0
C7621 C 0.21538 0.87018 0.87474 0.0
C7622 C 0.20763 0.88534 0.85707 0.0
C7623 C 0.19887 0.87916 0.84534 0.0
N7624 N 0.21287 0.87483 0.869 0.0
N7625 N 0.20118 0.87476 0.85133 0.0
H7626 H 0.62869 0.42553 0.39405 0.0
H7627 H 0.60757 0.46478 0.38385 0.0
H7628 H 0.6185 0.44031 0.41114 0.0
H7629 H 0.62487 0.45433 0.36957 0.0
H7630 H 0.6093 0.45448 0.39302 0.0
H7631 H 0.62535 0.43493 0.38422 0.0
C7632 C 0.62577 0.43072 0.39577 0.0
C7633 C 0.62393 0.43208 0.40351 0.0
C7634 C 0.61283 0.45461 0.38791 0.0
C7635 C 0.6199 0.44279 0.39218 0.0
C7636 C 0.61201 0.46064 0.38271 0.0
C7637 C 0.61687 0.46134 0.37628 0.0
C7638 C 0.61822 0.44885 0.38645 0.0
C7639 C 0.62156 0.45491 0.37467 0.0
C7640 C 0.62381 0.43606 0.39012 0.0
C7641 C 0.61995 0.43888 0.40528 0.0
N7642 N 0.62219 0.44906 0.37976 0.0
N7643 N 0.61808 0.44396 0.39968 0.0
H7644 H 0.79784 0.38166 0.66821 0.0
H7645 H 0.7975 0.37095 0.62437 0.0
H7646 H 0.81475 0.39148 0.65294 0.0
H7647 H 0.79324 0.35408 0.6419 0.0
H7648 H 0.80222 0.37981 0.63426 0.0
H7649 H 0.79409 0.37283 0.65811 0.0
C7650 C 0.80082 0.38198 0.66278 0.0
C7651 C 0.80678 0.3873 0.66156 0.0
C7652 C 0.80028 0.37414 0.63591 0.0
C7653 C 0.80219 0.37733 0.64982 0.0
C7654 C 0.79767 0.36907 0.63028 0.0
C7655 C 0.79503 0.36176 0.63233 0.0
C7656 C 0.8 0.37196 0.64364 0.0
C7657 C 0.79515 0.3597 0.6401 0.0
C7658 C 0.79862 0.37694 0.65699 0.0
C7659 C 0.81011 0.38757 0.65421 0.0
N7660 N 0.79749 0.36481 0.6455 0.0
N7661 N 0.80775 0.38267 0.64861 0.0
H7662 H 0.70936 0.6286 0.17076 0.0
H7663 H 0.7118 0.63569 0.12617 0.0
H7664 H 0.69466 0.61615 0.15514 0.0
H7665 H 0.71518 0.65392 0.14246 0.0
H7666 H 0.70688 0.62754 0.13644 0.0
H7667 H 0.71321 0.6369 0.16028 0.0
C7668 C 0.70686 0.62759 0.16518 0.0
C7669 C 0.70148 0.62167 0.16399 0.0
C7670 C 0.70861 0.63336 0.13774 0.0
C7671 C 0.70624 0.63109 0.15179 0.0
C7672 C 0.71129 0.63808 0.13184 0.0
C7673 C 0.71368 0.64559 0.1334 0.0
C7674 C 0.70857 0.63609 0.14531 0.0
C7675 C 0.71335 0.64817 0.14102 0.0
C7676 C 0.70913 0.63235 0.15917 0.0
C7677 C 0.69883 0.62055 0.15644 0.0
N7678 N 0.71093 0.64341 0.1467 0.0
N7679 N 0.70125 0.62519 0.15064 0.0
H7680 H 0.60068 0.63208 0.93884 0.0
H7681 H 0.63492 0.60675 0.95566 0.0
H7682 H 0.61169 0.61451 0.92544 0.0
H7683 H 0.62793 0.62829 0.96536 0.0
H7684 H 0.62607 0.60884 0.94484 0.0
H7685 H 0.61013 0.63013 0.94901 0.0
C7686 C 0.60514 0.62783 0.93805 0.0
C7687 C 0.60549 0.6235 0.9313 0.0
C7688 C 0.62653 0.61315 0.94928 0.0
C7689 C 0.61627 0.62114 0.94294 0.0
C7690 C 0.63157 0.61197 0.9554 0.0
C7691 C 0.63219 0.61745 0.96124 0.0
C7692 C 0.62197 0.6198 0.94913 0.0
C7693 C 0.62766 0.62403 0.96085 0.0
C7694 C 0.61053 0.62672 0.94384 0.0
C7695 C 0.61131 0.61801 0.93055 0.0
N7696 N 0.6227 0.62501 0.95491 0.0
N7697 N 0.61647 0.61695 0.93633 0.0
H7698 H 0.61398 0.3528 0.20279 0.0
H7699 H 0.65667 0.36905 0.20904 0.0
H7700 H 0.63454 0.34054 0.19658 0.0
H7701 H 0.63649 0.38115 0.21635 0.0
H7702 H 0.64853 0.35874 0.20397 0.0
H7703 H 0.62195 0.36343 0.20744 0.0
C7704 C 0.62016 0.35236 0.20237 0.0
C7705 C 0.62359 0.34575 0.1993 0.0
C7706 C 0.64584 0.36365 0.20665 0.0
C7707 C 0.63274 0.35789 0.20461 0.0
C7708 C 0.65049 0.36951 0.2095 0.0
C7709 C 0.64719 0.37588 0.21307 0.0
C7710 C 0.63782 0.36417 0.20739 0.0
C7711 C 0.63919 0.3763 0.21358 0.0
C7712 C 0.6247 0.35841 0.20505 0.0
C7713 C 0.63163 0.34547 0.19899 0.0
N7714 N 0.63476 0.3705 0.2108 0.0
N7715 N 0.63592 0.35143 0.20159 0.0
H7716 H 0.91161 0.38601 0.44078 0.0
H7717 H 0.8687 0.39499 0.45386 0.0
H7718 H 0.89304 0.38521 0.42445 0.0
H7719 H 0.88635 0.3865 0.46888 0.0
H7720 H 0.87736 0.39295 0.44284 0.0
H7721 H 0.90241 0.38824 0.45099 0.0
C7722 C 0.90559 0.38637 0.43931 0.0
C7723 C 0.90314 0.38545 0.43169 0.0
C7724 C 0.87932 0.39157 0.44856 0.0
C7725 C 0.89246 0.38788 0.44351 0.0
C7726 C 0.87439 0.39271 0.45483 0.0
C7727 C 0.87689 0.39108 0.46232 0.0
C7728 C 0.88681 0.38888 0.44983 0.0
C7729 C 0.88428 0.38809 0.46326 0.0
C7730 C 0.90032 0.38757 0.44518 0.0
C7731 C 0.8952 0.38583 0.43023 0.0
N7732 N 0.88899 0.38718 0.45713 0.0
N7733 N 0.89014 0.38705 0.43608 0.0
H7734 H 0.88917 0.65407 0.69061 0.0
H7735 H 0.85344 0.64167 0.71486 0.0
H7736 H 0.88112 0.66815 0.70937 0.0
H7737 H 0.87119 0.62503 0.71049 0.0
H7738 H 0.86211 0.6518 0.71054 0.0
H7739 H 0.88139 0.64348 0.69554 0.0
C7740 C 0.88586 0.65497 0.69578 0.0
C7741 C 0.8858 0.66216 0.69947 0.0
C7742 C 0.86406 0.64591 0.71049 0.0
C7743 C 0.87663 0.65007 0.70493 0.0
C7744 C 0.85915 0.64012 0.71303 0.0
C7745 C 0.8616 0.63246 0.71321 0.0
C7746 C 0.87136 0.644 0.7077 0.0
C7747 C 0.86897 0.63081 0.71035 0.0
C7748 C 0.88138 0.64891 0.69854 0.0
C7749 C 0.88122 0.66288 0.7061 0.0
N7750 N 0.87356 0.63652 0.70764 0.0
N7751 N 0.87676 0.65698 0.70853 0.0
H7752 H 0.60644 0.3975 0.57933 0.0
H7753 H 0.62917 0.37954 0.5437 0.0
H7754 H 0.60696 0.37335 0.57419 0.0
H7755 H 0.63298 0.40259 0.5515 0.0
H7756 H 0.62063 0.37733 0.55466 0.0
H7757 H 0.61582 0.39974 0.56905 0.0
C7758 C 0.60856 0.39268 0.57605 0.0
C7759 C 0.60596 0.38522 0.57764 0.0
C7760 C 0.62338 0.38286 0.55405 0.0
C7761 C 0.61657 0.38774 0.56581 0.0
C7762 C 0.62827 0.38408 0.54782 0.0
C7763 C 0.63182 0.39119 0.54684 0.0
C7764 C 0.62197 0.38884 0.55927 0.0
C7765 C 0.63036 0.39701 0.55217 0.0
C7766 C 0.61391 0.39395 0.5702 0.0
C7767 C 0.60889 0.37917 0.57323 0.0
N7768 N 0.62551 0.39572 0.55817 0.0
N7769 N 0.61398 0.38057 0.56749 0.0
H7770 H 0.88098 0.34855 0.82111 0.0
H7771 H 0.86909 0.37481 0.78547 0.0
H7772 H 0.88885 0.34439 0.79804 0.0
H7773 H 0.85629 0.37433 0.80657 0.0
H7774 H 0.87733 0.36456 0.79035 0.0
H7775 H 0.8729 0.359 0.81633 0.0
C7776 C 0.88107 0.3499 0.81505 0.0
C7777 C 0.88562 0.34563 0.80997 0.0
C7778 C 0.87275 0.36672 0.79394 0.0
C7779 C 0.8764 0.35757 0.80446 0.0
C7780 C 0.86804 0.37255 0.79115 0.0
C7781 C 0.86201 0.37542 0.79564 0.0
C7782 C 0.87152 0.36382 0.80135 0.0
C7783 C 0.86097 0.3724 0.80301 0.0
C7784 C 0.87642 0.35582 0.81232 0.0
C7785 C 0.88542 0.34754 0.80215 0.0
N7786 N 0.86569 0.36677 0.80565 0.0
N7787 N 0.88092 0.35339 0.79964 0.0
H7788 H 0.89483 0.63289 0.07956 0.0
H7789 H 0.87956 0.60481 0.04666 0.0
H7790 H 0.90565 0.61121 0.07449 0.0
H7791 H 0.87456 0.62895 0.04773 0.0
H7792 H 0.88787 0.60623 0.05795 0.0
H7793 H 0.88566 0.63052 0.0693 0.0
C7794 C 0.89523 0.62758 0.07638 0.0
C7795 C 0.90107 0.62227 0.07792 0.0
C7796 C 0.88483 0.61118 0.05577 0.0
C7797 C 0.89064 0.6196 0.06599 0.0
C7798 C 0.88011 0.61038 0.04934 0.0
C7799 C 0.87621 0.61674 0.04633 0.0
C7800 C 0.88553 0.61838 0.0593 0.0
C7801 C 0.87713 0.62383 0.05 0.0
C7802 C 0.89003 0.62627 0.07045 0.0
C7803 C 0.90134 0.61554 0.07345 0.0
N7804 N 0.88166 0.62445 0.0563 0.0
N7805 N 0.89622 0.61442 0.06767 0.0
H7806 H 0.62304 0.66631 0.29742 0.0
H7807 H 0.65105 0.63185 0.30692 0.0
H7808 H 0.62376 0.65621 0.31999 0.0
H7809 H 0.64099 0.63472 0.28456 0.0
H7810 H 0.6423 0.64162 0.31196 0.0
H7811 H 0.63108 0.65586 0.29264 0.0
C7812 C 0.62487 0.66189 0.30138 0.0
C7813 C 0.62271 0.66217 0.30914 0.0
C7814 C 0.642 0.64007 0.30595 0.0
C7815 C 0.63193 0.65017 0.30367 0.0
C7816 C 0.64693 0.63441 0.3031 0.0
C7817 C 0.6467 0.63236 0.29532 0.0
C7818 C 0.63699 0.64388 0.30094 0.0
C7819 C 0.64146 0.6362 0.29056 0.0
C7820 C 0.62942 0.65591 0.29862 0.0
C7821 C 0.6252 0.65621 0.31396 0.0
N7822 N 0.63688 0.64182 0.29341 0.0
N7823 N 0.62973 0.6505 0.31116 0.0
H7824 H 0.92995 0.6101 0.63499 0.0
H7825 H 0.96025 0.62805 0.60541 0.0
H7826 H 0.9323 0.60235 0.61159 0.0
H7827 H 0.96002 0.63303 0.62958 0.0
H7828 H 0.94917 0.61952 0.60719 0.0
H7829 H 0.93993 0.61961 0.63268 0.0
C7830 C 0.93248 0.61044 0.62933 0.0
C7831 C 0.93025 0.60535 0.62349 0.0
C7832 C 0.9515 0.62252 0.6121 0.0
C7833 C 0.94187 0.6162 0.62085 0.0
C7834 C 0.9578 0.62737 0.61108 0.0
C7835 C 0.96098 0.63126 0.61735 0.0
C7836 C 0.94835 0.62157 0.61946 0.0
C7837 C 0.95764 0.63024 0.62458 0.0
C7838 C 0.93825 0.61584 0.62804 0.0
C7839 C 0.93389 0.60604 0.61632 0.0
N7840 N 0.95152 0.62548 0.62544 0.0
N7841 N 0.93953 0.61132 0.61521 0.0
H7842 H 0.66723 0.71133 0.88482 0.0
H7843 H 0.63127 0.70136 0.85924 0.0
H7844 H 0.65582 0.68944 0.88659 0.0
H7845 H 0.63538 0.72439 0.86722 0.0
H7846 H 0.64077 0.69669 0.86829 0.0
H7847 H 0.65657 0.71607 0.87704 0.0
C7848 C 0.66249 0.70751 0.8836 0.0
C7849 C 0.66248 0.69993 0.88637 0.0
C7850 C 0.63958 0.70277 0.86804 0.0
C7851 C 0.65021 0.70538 0.87745 0.0
C7852 C 0.634 0.70546 0.86295 0.0
C7853 C 0.63234 0.71332 0.86243 0.0
C7854 C 0.64384 0.708 0.87243 0.0
C7855 C 0.63655 0.71831 0.86719 0.0
C7856 C 0.65637 0.71025 0.8792 0.0
C7857 C 0.65608 0.69533 0.88466 0.0
N7858 N 0.64218 0.7156 0.87187 0.0
N7859 N 0.65025 0.69809 0.88026 0.0
H7860 H 0.58406 0.39312 0.11676 0.0
H7861 H 0.53957 0.38379 0.12391 0.0
H7862 H 0.56818 0.4082 0.12824 0.0
H7863 H 0.55402 0.3694 0.11005 0.0
H7864 H 0.55031 0.3926 0.12582 0.0
H7865 H 0.57347 0.38406 0.11445 0.0
C7866 C 0.57836 0.39449 0.11882 0.0
C7867 C 0.57697 0.40139 0.1227 0.0
C7868 C 0.55119 0.3875 0.12239 0.0
C7869 C 0.56491 0.39113 0.12012 0.0
C7870 C 0.54506 0.38249 0.12133 0.0
C7871 C 0.546 0.37587 0.11693 0.0
C7872 C 0.55833 0.38585 0.11903 0.0
C7873 C 0.55318 0.37439 0.11363 0.0
C7874 C 0.57233 0.38935 0.11747 0.0
C7875 C 0.56948 0.40296 0.12518 0.0
N7876 N 0.5591 0.37935 0.11475 0.0
N7877 N 0.56376 0.39787 0.12387 0.0
H7878 H 0.83847 0.30702 0.3748 0.0
H7879 H 0.88212 0.29361 0.37269 0.0
H7880 H 0.8542 0.30995 0.39369 0.0
H7881 H 0.86835 0.29755 0.35265 0.0
H7882 H 0.87177 0.29866 0.38073 0.0
H7883 H 0.849 0.30227 0.36693 0.0
C7884 C 0.84412 0.30662 0.37733 0.0
C7885 C 0.84541 0.30889 0.38496 0.0
C7886 C 0.87104 0.29854 0.37457 0.0
C7887 C 0.85757 0.30355 0.37586 0.0
C7888 C 0.877 0.29578 0.36998 0.0
C7889 C 0.87619 0.29552 0.362 0.0
C7890 C 0.86412 0.30082 0.37114 0.0
C7891 C 0.86922 0.29785 0.35878 0.0
C7892 C 0.85015 0.30397 0.37279 0.0
C7893 C 0.85292 0.30836 0.38783 0.0
N7894 N 0.86343 0.30039 0.36336 0.0
N7895 N 0.85871 0.30573 0.38329 0.0
H7896 H 0.92764 0.3985 0.89733 0.0
H7897 H 0.96768 0.3825 0.88226 0.0
H7898 H 0.93589 0.40212 0.87433 0.0
H7899 H 0.95549 0.37126 0.90049 0.0
H7900 H 0.95662 0.39093 0.88018 0.0
H7901 H 0.93832 0.38952 0.89957 0.0
C7902 C 0.93167 0.39733 0.89275 0.0
C7903 C 0.93087 0.4009 0.8856 0.0
C7904 C 0.95633 0.3866 0.88462 0.0
C7905 C 0.94311 0.39092 0.88816 0.0
C7906 C 0.96261 0.38182 0.88578 0.0
C7907 C 0.96236 0.37618 0.89145 0.0
C7908 C 0.94981 0.38583 0.8893 0.0
C7909 C 0.95577 0.37552 0.89599 0.0
C7910 C 0.93774 0.39224 0.89403 0.0
C7911 C 0.93627 0.39935 0.87987 0.0
N7912 N 0.94973 0.38034 0.89486 0.0
N7913 N 0.94219 0.39452 0.88129 0.0
H7914 H 0.85212 0.68782 0.12433 0.0
H7915 H 0.87323 0.72442 0.14153 0.0
H7916 H 0.84231 0.7105 0.12344 0.0
H7917 H 0.87644 0.70194 0.15121 0.0
H7918 H 0.86304 0.71934 0.13338 0.0
H7919 H 0.8625 0.69282 0.13241 0.0
C7920 C 0.85217 0.69386 0.12576 0.0
C7921 C 0.84629 0.69873 0.1232 0.0
C7922 C 0.86598 0.71552 0.13728 0.0
C7923 C 0.85813 0.70446 0.1325 0.0
C7924 C 0.87174 0.71843 0.142 0.0
C7925 C 0.8756 0.71364 0.14718 0.0
C7926 C 0.86422 0.70768 0.13752 0.0
C7927 C 0.87364 0.70583 0.14728 0.0
C7928 C 0.85806 0.69668 0.13044 0.0
C7929 C 0.84665 0.7065 0.12534 0.0
N7930 N 0.86812 0.70307 0.14248 0.0
N7931 N 0.85245 0.70911 0.12984 0.0
H7932 H 0.57472 0.6089 0.37301 0.0
H7933 H 0.5495 0.63203 0.40372 0.0
H7934 H 0.57823 0.60713 0.39743 0.0
H7935 H 0.54497 0.63184 0.37949 0.0
H7936 H 0.56056 0.62353 0.40161 0.0
H7937 H 0.5643 0.61793 0.37531 0.0
C7938 C 0.57337 0.6105 0.37886 0.0
C7939 C 0.57741 0.60732 0.38503 0.0
C7940 C 0.55717 0.62537 0.39674 0.0
C7941 C 0.56539 0.61761 0.38772 0.0
C7942 C 0.5509 0.6302 0.39796 0.0
C7943 C 0.54638 0.63256 0.39176 0.0
C7944 C 0.55892 0.62293 0.38926 0.0
C7945 C 0.54837 0.63013 0.38438 0.0
C7946 C 0.56737 0.61562 0.38017 0.0
C7947 C 0.57526 0.60945 0.3925 0.0
N7948 N 0.55449 0.62543 0.38333 0.0
N7949 N 0.56941 0.61448 0.39364 0.0
H7950 H 0.66837 0.31173 0.63455 0.0
H7951 H 0.62965 0.28774 0.6369 0.0
H7952 H 0.65572 0.30552 0.61423 0.0
H7953 H 0.637 0.30264 0.6551 0.0
H7954 H 0.63998 0.29282 0.62869 0.0
H7955 H 0.65782 0.30694 0.64244 0.0
C7956 C 0.66338 0.30933 0.63174 0.0
C7957 C 0.66294 0.30902 0.6237 0.0
C7958 C 0.63931 0.29502 0.63446 0.0
C7959 C 0.65082 0.30353 0.63274 0.0
C7960 C 0.63345 0.29213 0.63911 0.0
C7961 C 0.63248 0.29491 0.64658 0.0
C7962 C 0.64436 0.30054 0.63742 0.0
C7963 C 0.63755 0.30048 0.64931 0.0
C7964 C 0.65734 0.30665 0.63626 0.0
C7965 C 0.65628 0.30592 0.6204 0.0
N7966 N 0.64333 0.30309 0.64475 0.0
N7967 N 0.6505 0.30324 0.62493 0.0
H7968 H 0.63279 0.92715 0.61246 0.0
H7969 H 0.60815 0.9639 0.62305 0.0
H7970 H 0.61346 0.93541 0.59937 0.0
H7971 H 0.62854 0.95723 0.63556 0.0
H7972 H 0.60992 0.95341 0.61484 0.0
H7973 H 0.63055 0.93731 0.62184 0.0
C7974 C 0.62803 0.93102 0.61156 0.0
C7975 C 0.6234 0.93042 0.60498 0.0
C7976 C 0.61382 0.95409 0.61963 0.0
C7977 C 0.62093 0.94225 0.61567 0.0
C7978 C 0.61283 0.9603 0.62456 0.0
C7979 C 0.61768 0.96154 0.63096 0.0
C7980 C 0.61976 0.94889 0.6209 0.0
C7981 C 0.62394 0.95637 0.63158 0.0
C7982 C 0.62681 0.93689 0.6169 0.0
C7983 C 0.61736 0.93572 0.60418 0.0
N7984 N 0.62469 0.95027 0.62676 0.0
N7985 N 0.61635 0.94141 0.6094 0.0
H7986 H 0.12052 0.56829 0.41167 0.0
H7987 H 0.11463 0.55471 0.36828 0.0
H7988 H 0.12409 0.58405 0.39292 0.0
H7989 H 0.11987 0.53975 0.38719 0.0
H7990 H 0.11637 0.56585 0.37688 0.0
H7991 H 0.11801 0.55815 0.40252 0.0
C7992 C 0.1207 0.56967 0.40562 0.0
C7993 C 0.1225 0.57711 0.40312 0.0
C7994 C 0.11708 0.56011 0.37912 0.0
C7995 C 0.11979 0.5653 0.39248 0.0
C7996 C 0.11611 0.55377 0.37423 0.0
C7997 C 0.11701 0.54628 0.37706 0.0
C7998 C 0.11881 0.5589 0.38691 0.0
C7999 C 0.11891 0.54539 0.38482 0.0
C8000 C 0.11934 0.56382 0.40038 0.0
C8001 C 0.1228 0.5784 0.39514 0.0
N8002 N 0.11968 0.55158 0.38945 0.0
N8003 N 0.12146 0.57255 0.3901 0.0
H8004 H 0.69528 0.87363 0.66782 0.0
H8005 H 0.7198 0.87154 0.62914 0.0
H8006 H 0.70349 0.89386 0.65624 0.0
H8007 H 0.7061 0.8528 0.63741 0.0
H8008 H 0.71467 0.87972 0.63944 0.0
H8009 H 0.7 0.86578 0.65722 0.0
C8010 C 0.69809 0.87642 0.66304 0.0
C8011 C 0.699 0.88442 0.66293 0.0
C8012 C 0.71273 0.87384 0.63898 0.0
C8013 C 0.70444 0.87543 0.65074 0.0
C8014 C 0.71564 0.86921 0.63313 0.0
C8015 C 0.71329 0.86157 0.63248 0.0
C8016 C 0.70748 0.87076 0.64427 0.0
C8017 C 0.70798 0.8587 0.63776 0.0
C8018 C 0.70075 0.87194 0.65697 0.0
C8019 C 0.70262 0.88772 0.65654 0.0
N8020 N 0.70527 0.86329 0.64347 0.0
N8021 N 0.70526 0.88321 0.65072 0.0
H8022 H 0.38332 0.44073 0.91189 0.0
H8023 H 0.39937 0.45395 0.87153 0.0
H8024 H 0.38788 0.42392 0.89433 0.0
H8025 H 0.38266 0.46711 0.88398 0.0
H8026 H 0.39739 0.44319 0.88049 0.0
H8027 H 0.38551 0.45091 0.90254 0.0
C8028 C 0.38484 0.43917 0.90608 0.0
C8029 C 0.38541 0.43143 0.90391 0.0
C8030 C 0.39408 0.4484 0.88119 0.0
C8031 C 0.3879 0.44312 0.89315 0.0
C8032 C 0.39514 0.45447 0.87605 0.0
C8033 C 0.39088 0.46123 0.87685 0.0
C8034 C 0.38899 0.44927 0.88736 0.0
C8035 C 0.38586 0.46188 0.88308 0.0
C8036 C 0.38602 0.44499 0.90073 0.0
C8037 C 0.38731 0.42979 0.89624 0.0
N8038 N 0.38508 0.45599 0.88813 0.0
N8039 N 0.38854 0.43559 0.89114 0.0
H8040 H 0.30338 0.61382 0.65688 0.0
H8041 H 0.30118 0.65597 0.63839 0.0
H8042 H 0.3139 0.63386 0.66679 0.0
H8043 H 0.28994 0.63641 0.62849 0.0
H8044 H 0.3062 0.64778 0.64867 0.0
H8045 H 0.29855 0.62178 0.64629 0.0
C8046 C 0.30472 0.61988 0.65678 0.0
C8047 C 0.30905 0.62319 0.6627 0.0
C8048 C 0.30267 0.64524 0.64425 0.0
C8049 C 0.3036 0.63232 0.65063 0.0
C8050 C 0.29986 0.64991 0.63839 0.0
C8051 C 0.29529 0.64678 0.6326 0.0
C8052 C 0.30081 0.63739 0.64436 0.0
C8053 C 0.29357 0.63895 0.63284 0.0
C8054 C 0.30195 0.62442 0.65077 0.0
C8055 C 0.31054 0.63109 0.66236 0.0
N8056 N 0.29632 0.6345 0.63864 0.0
N8057 N 0.30785 0.63536 0.65644 0.0
H8058 H 0.8967 0.07413 0.10136 0.0
H8059 H 0.87868 0.04754 0.13366 0.0
H8060 H 0.87478 0.07893 0.11181 0.0
H8061 H 0.90296 0.04832 0.1292 0.0
H8062 H 0.87695 0.05875 0.12538 0.0
H8063 H 0.89891 0.06417 0.11095 0.0
C8064 C 0.89235 0.07313 0.10568 0.0
C8065 C 0.8855 0.07738 0.1057 0.0
C8066 C 0.88267 0.05649 0.12624 0.0
C8067 C 0.88805 0.06597 0.11678 0.0
C8068 C 0.88366 0.05013 0.13101 0.0
C8069 C 0.89098 0.04699 0.13211 0.0
C8070 C 0.88901 0.05962 0.12238 0.0
C8071 C 0.89721 0.05047 0.12838 0.0
C8072 C 0.89366 0.06747 0.11119 0.0
C8073 C 0.88016 0.07587 0.11156 0.0
N8074 N 0.89608 0.05653 0.12361 0.0
N8075 N 0.88152 0.07025 0.1168 0.0
H8076 H 0.68819 0.12432 0.85167 0.0
H8077 H 0.72395 0.14034 0.87492 0.0
H8078 H 0.71125 0.12228 0.84291 0.0
H8079 H 0.70232 0.15221 0.87461 0.0
H8080 H 0.71921 0.13178 0.8648 0.0
H8081 H 0.69305 0.13242 0.86209 0.0
C8082 C 0.69428 0.12549 0.85198 0.0
C8083 C 0.69931 0.12261 0.84638 0.0
C8084 C 0.71547 0.1362 0.86704 0.0
C8085 C 0.70487 0.13189 0.85828 0.0
C8086 C 0.71817 0.1411 0.87278 0.0
C8087 C 0.71347 0.14694 0.87571 0.0
C8088 C 0.70793 0.13699 0.86437 0.0
C8089 C 0.70601 0.14761 0.87279 0.0
C8090 C 0.69702 0.13017 0.85788 0.0
C8091 C 0.70714 0.12442 0.84704 0.0
N8092 N 0.70344 0.14266 0.86733 0.0
N8093 N 0.70969 0.12892 0.85289 0.0
H8094 H 0.80993 0.87399 0.33877 0.0
H8095 H 0.7904 0.8715 0.38008 0.0
H8096 H 0.80713 0.89389 0.35319 0.0
H8097 H 0.80054 0.8521 0.36875 0.0
H8098 H 0.79519 0.87989 0.36978 0.0
H8099 H 0.80507 0.86595 0.34911 0.0
C8100 C 0.80825 0.87669 0.3441 0.0
C8101 C 0.80892 0.88465 0.34508 0.0
C8102 C 0.79639 0.87381 0.36955 0.0
C8103 C 0.80339 0.87542 0.35702 0.0
C8104 C 0.79366 0.86906 0.37539 0.0
C8105 C 0.79538 0.86121 0.37533 0.0
C8106 C 0.8005 0.8706 0.36341 0.0
C8107 C 0.79938 0.85818 0.36908 0.0
C8108 C 0.80553 0.87208 0.35003 0.0
C8109 C 0.80677 0.88778 0.35219 0.0
N8110 N 0.8018 0.86288 0.36334 0.0
N8111 N 0.80406 0.88316 0.35788 0.0
H8112 H 0.39492 0.37584 0.07982 0.0
H8113 H 0.38154 0.40225 0.045 0.0
H8114 H 0.4091 0.39407 0.07052 0.0
H8115 H 0.37237 0.3799 0.05027 0.0
H8116 H 0.39046 0.40081 0.05573 0.0
H8117 H 0.38512 0.37918 0.07076 0.0
C8118 C 0.39614 0.38054 0.076 0.0
C8119 C 0.40323 0.38448 0.07609 0.0
C8120 C 0.38636 0.39629 0.05456 0.0
C8121 C 0.39169 0.38822 0.06534 0.0
C8122 C 0.38132 0.39705 0.04835 0.0
C8123 C 0.37622 0.39109 0.04637 0.0
C8124 C 0.38607 0.38968 0.05911 0.0
C8125 C 0.37596 0.38473 0.05133 0.0
C8126 C 0.39043 0.3824 0.07072 0.0
C8127 C 0.40404 0.39054 0.07074 0.0
N8128 N 0.38078 0.38422 0.05741 0.0
N8129 N 0.39842 0.39215 0.06558 0.0
H8130 H 0.38287 0.66764 0.79741 0.0
H8131 H 0.37137 0.62408 0.79815 0.0
H8132 H 0.39141 0.65289 0.81541 0.0
H8133 H 0.35505 0.64164 0.79227 0.0
H8134 H 0.38011 0.63402 0.80298 0.0
H8135 H 0.374 0.6576 0.7936 0.0
C8136 C 0.3829 0.66234 0.80062 0.0
C8137 C 0.38788 0.66124 0.80688 0.0
C8138 C 0.37459 0.63566 0.80067 0.0
C8139 C 0.37788 0.64956 0.80224 0.0
C8140 C 0.36959 0.63001 0.79799 0.0
C8141 C 0.36246 0.63206 0.79488 0.0
C8142 C 0.37254 0.6434 0.79998 0.0
C8143 C 0.36052 0.63986 0.79458 0.0
C8144 C 0.37784 0.65659 0.79838 0.0
C8145 C 0.38778 0.65404 0.81052 0.0
N8146 N 0.36557 0.64526 0.797 0.0
N8147 N 0.38288 0.64847 0.80813 0.0
H8148 H 0.1097 0.63734 0.57342 0.0
H8149 H 0.13177 0.6058 0.54836 0.0
H8150 H 0.10651 0.61301 0.57654 0.0
H8151 H 0.13356 0.63012 0.5447 0.0
H8152 H 0.12305 0.60818 0.55918 0.0
H8153 H 0.11909 0.6347 0.56343 0.0
C8154 C 0.11104 0.63144 0.57208 0.0
C8155 C 0.10733 0.6254 0.57589 0.0
C8156 C 0.1254 0.61301 0.55605 0.0
C8157 C 0.11802 0.62232 0.56429 0.0
C8158 C 0.13034 0.61164 0.54989 0.0
C8159 C 0.13334 0.61779 0.54568 0.0
C8160 C 0.12349 0.62058 0.55801 0.0
C8161 C 0.13143 0.62525 0.54789 0.0
C8162 C 0.11636 0.62992 0.56632 0.0
C8163 C 0.10918 0.61785 0.57373 0.0
N8164 N 0.12661 0.62644 0.55389 0.0
N8165 N 0.11438 0.61652 0.56807 0.0
H8166 H 0.12383 0.35069 0.31904 0.0
H8167 H 0.14026 0.37487 0.284 0.0
H8168 H 0.11923 0.34498 0.29543 0.0
H8169 H 0.15139 0.37452 0.30603 0.0
H8170 H 0.13146 0.36489 0.28839 0.0
H8171 H 0.13286 0.36059 0.31474 0.0
C8172 C 0.12466 0.3516 0.31295 0.0
C8173 C 0.12074 0.3471 0.30757 0.0
C8174 C 0.1358 0.36702 0.29228 0.0
C8175 C 0.13103 0.35832 0.30264 0.0
C8176 C 0.14083 0.37268 0.28977 0.0
C8177 C 0.14654 0.37551 0.29467 0.0
C8178 C 0.13636 0.36428 0.29982 0.0
C8179 C 0.14696 0.37262 0.30215 0.0
C8180 C 0.12985 0.35717 0.31051 0.0
C8181 C 0.12213 0.34836 0.29975 0.0
N8182 N 0.1419 0.36717 0.30452 0.0
N8183 N 0.12713 0.35389 0.29752 0.0
H8184 H 0.40706 0.61303 0.43489 0.0
H8185 H 0.37413 0.63011 0.46154 0.0
H8186 H 0.39758 0.6357 0.43202 0.0
H8187 H 0.37973 0.60609 0.46113 0.0
H8188 H 0.38251 0.63216 0.45056 0.0
H8189 H 0.39724 0.61032 0.44451 0.0
C8190 C 0.40292 0.61745 0.43625 0.0
C8191 C 0.40323 0.62465 0.43263 0.0
C8192 C 0.38186 0.62641 0.4528 0.0
C8193 C 0.39187 0.62151 0.44363 0.0
C8194 C 0.37697 0.62522 0.45903 0.0
C8195 C 0.37611 0.61789 0.46219 0.0
C8196 C 0.38612 0.62026 0.44982 0.0
C8197 C 0.38026 0.61184 0.45888 0.0
C8198 C 0.39727 0.61586 0.44172 0.0
C8199 C 0.39757 0.63005 0.43457 0.0
N8200 N 0.38515 0.61316 0.45293 0.0
N8201 N 0.39218 0.62839 0.43996 0.0
H8202 H 0.1223 0.65747 0.18976 0.0
H8203 H 0.13946 0.63367 0.22456 0.0
H8204 H 0.12086 0.66576 0.21303 0.0
H8205 H 0.15104 0.63475 0.20279 0.0
H8206 H 0.13059 0.64367 0.22018 0.0
H8207 H 0.13067 0.64707 0.19416 0.0
C8208 C 0.12366 0.65706 0.19581 0.0
C8209 C 0.12086 0.66251 0.20103 0.0
C8210 C 0.13502 0.64164 0.21634 0.0
C8211 C 0.13044 0.65062 0.20607 0.0
C8212 C 0.14008 0.63596 0.21883 0.0
C8213 C 0.14599 0.63335 0.21402 0.0
C8214 C 0.13568 0.64454 0.20887 0.0
C8215 C 0.14646 0.63642 0.2066 0.0
C8216 C 0.12849 0.65117 0.19829 0.0
C8217 C 0.12292 0.66173 0.20879 0.0
N8218 N 0.14135 0.64182 0.20422 0.0
N8219 N 0.12755 0.65588 0.21108 0.0
H8220 H 0.11442 0.38386 0.92521 0.0
H8221 H 0.12324 0.38072 0.96845 0.0
H8222 H 0.09601 0.38703 0.94144 0.0
H8223 H 0.13635 0.39758 0.9561 0.0
H8224 H 0.11394 0.38044 0.95789 0.0
H8225 H 0.12371 0.38638 0.93558 0.0
C8226 C 0.11233 0.38512 0.93092 0.0
C8227 C 0.10442 0.38518 0.93246 0.0
C8228 C 0.11895 0.38409 0.95745 0.0
C8229 C 0.11496 0.38794 0.94427 0.0
C8230 C 0.12424 0.38425 0.96345 0.0
C8231 C 0.13072 0.38898 0.96303 0.0
C8232 C 0.12032 0.38842 0.95082 0.0
C8233 C 0.13167 0.39353 0.95645 0.0
C8234 C 0.11762 0.38661 0.93679 0.0
C8235 C 0.10204 0.38694 0.93996 0.0
N8236 N 0.12663 0.39301 0.9505 0.0
N8237 N 0.10728 0.38811 0.94561 0.0
H8238 H 0.37599 0.33956 0.69694 0.0
H8239 H 0.37199 0.3781 0.72117 0.0
H8240 H 0.39569 0.35177 0.70559 0.0
H8241 H 0.35442 0.37013 0.70584 0.0
H8242 H 0.38057 0.36793 0.71649 0.0
H8243 H 0.36775 0.35004 0.70122 0.0
C8244 C 0.37859 0.34444 0.69977 0.0
C8245 C 0.38656 0.34476 0.70093 0.0
C8246 C 0.37486 0.36842 0.7141 0.0
C8247 C 0.37712 0.35683 0.70581 0.0
C8248 C 0.37 0.3742 0.71676 0.0
C8249 C 0.36258 0.37493 0.71379 0.0
C8250 C 0.3722 0.36324 0.70855 0.0
C8251 C 0.36015 0.36975 0.70817 0.0
C8252 C 0.37388 0.35045 0.70216 0.0
C8253 C 0.38959 0.35129 0.70453 0.0
N8254 N 0.36493 0.36406 0.70576 0.0
N8255 N 0.38486 0.35705 0.70689 0.0
H8256 H 0.08152 0.39409 0.37702 0.0
H8257 H 0.04623 0.38058 0.40183 0.0
H8258 H 0.06835 0.41044 0.39026 0.0
H8259 H 0.04743 0.37417 0.37801 0.0
H8260 H 0.05709 0.38937 0.39988 0.0
H8261 H 0.07158 0.3845 0.37947 0.0
C8262 C 0.07659 0.39573 0.38042 0.0
C8263 C 0.07585 0.40323 0.38334 0.0
C8264 C 0.05502 0.38595 0.39512 0.0
C8265 C 0.06464 0.39206 0.38643 0.0
C8266 C 0.04886 0.38097 0.39622 0.0
C8267 C 0.04597 0.37666 0.39007 0.0
C8268 C 0.05844 0.38647 0.38787 0.0
C8269 C 0.04957 0.37732 0.38291 0.0
C8270 C 0.07097 0.3902 0.38185 0.0
C8271 C 0.06938 0.40478 0.38795 0.0
N8272 N 0.05567 0.38211 0.382 0.0
N8273 N 0.06407 0.39925 0.38938 0.0
H8274 H 0.33987 0.30883 0.13167 0.0
H8275 H 0.38224 0.29187 0.13622 0.0
H8276 H 0.3548 0.30442 0.11242 0.0
H8277 H 0.36807 0.29856 0.15526 0.0
H8278 H 0.37225 0.29626 0.12734 0.0
H8279 H 0.34997 0.30465 0.14033 0.0
C8280 C 0.34526 0.30693 0.12925 0.0
C8281 C 0.34647 0.30695 0.12128 0.0
C8282 C 0.37133 0.29683 0.13346 0.0
C8283 C 0.35815 0.30227 0.13124 0.0
C8284 C 0.37704 0.29439 0.13849 0.0
C8285 C 0.37595 0.29496 0.14642 0.0
C8286 C 0.36445 0.29981 0.13641 0.0
C8287 C 0.36908 0.29808 0.14916 0.0
C8288 C 0.35106 0.3046 0.13422 0.0
C8289 C 0.35364 0.30457 0.11852 0.0
N8290 N 0.36356 0.30036 0.14416 0.0
N8291 N 0.35921 0.30231 0.12349 0.0
H8292 H 0.43344 0.60387 0.8962 0.0
H8293 H 0.46354 0.63331 0.87857 0.0
H8294 H 0.4332 0.6113 0.87259 0.0
H8295 H 0.46084 0.63023 0.9029 0.0
H8296 H 0.45241 0.62518 0.87636 0.0
H8297 H 0.44355 0.6132 0.89888 0.0
C8298 C 0.43547 0.60747 0.89158 0.0
C8299 C 0.43245 0.60676 0.88413 0.0
C8300 C 0.45416 0.62635 0.8822 0.0
C8301 C 0.44399 0.61751 0.88721 0.0
C8302 C 0.46046 0.63109 0.88346 0.0
C8303 C 0.46294 0.63264 0.89093 0.0
C8304 C 0.45042 0.62294 0.88846 0.0
C8305 C 0.45902 0.62921 0.89706 0.0
C8306 C 0.44122 0.61283 0.89314 0.0
C8307 C 0.43526 0.61169 0.87843 0.0
N8308 N 0.45296 0.62448 0.8957 0.0
N8309 N 0.44089 0.6168 0.88008 0.0
H8310 H 0.15748 0.68918 0.62297 0.0
H8311 H 0.13485 0.72465 0.64058 0.0
H8312 H 0.16573 0.71243 0.62135 0.0
H8313 H 0.13331 0.70215 0.65062 0.0
H8314 H 0.14491 0.72005 0.632 0.0
H8315 H 0.14714 0.6936 0.63145 0.0
C8316 C 0.15707 0.69522 0.62432 0.0
C8317 C 0.16249 0.70044 0.62143 0.0
C8318 C 0.14238 0.71611 0.63608 0.0
C8319 C 0.15071 0.70551 0.63115 0.0
C8320 C 0.13669 0.71875 0.64103 0.0
C8321 C 0.13338 0.71383 0.64646 0.0
C8322 C 0.14462 0.7084 0.63635 0.0
C8323 C 0.13573 0.70613 0.64654 0.0
C8324 C 0.15123 0.69772 0.62922 0.0
C8325 C 0.16174 0.70819 0.62348 0.0
N8326 N 0.1412 0.70364 0.64153 0.0
N8327 N 0.15595 0.71049 0.62819 0.0
H8328 H 0.08365 0.6161 0.1242 0.0
H8329 H 0.03868 0.62347 0.12144 0.0
H8330 H 0.06655 0.59821 0.12418 0.0
H8331 H 0.05493 0.64042 0.11382 0.0
H8332 H 0.04913 0.61447 0.12347 0.0
H8333 H 0.07353 0.62549 0.1213 0.0
C8334 C 0.07778 0.61416 0.12359 0.0
C8335 C 0.07594 0.60637 0.12444 0.0
C8336 C 0.05045 0.62014 0.12132 0.0
C8337 C 0.06441 0.61701 0.12118 0.0
C8338 C 0.04447 0.62525 0.12012 0.0
C8339 C 0.04595 0.6326 0.11726 0.0
C8340 C 0.05802 0.62244 0.11986 0.0
C8341 C 0.05359 0.63477 0.11598 0.0
C8342 C 0.07204 0.6195 0.12189 0.0
C8343 C 0.06826 0.60414 0.12351 0.0
N8344 N 0.05938 0.62969 0.1173 0.0
N8345 N 0.0628 0.60943 0.12198 0.0
H8346 H 0.16156 0.29637 0.89294 0.0
H8347 H 0.13481 0.30543 0.85655 0.0
H8348 H 0.16194 0.31786 0.88084 0.0
H8349 H 0.13303 0.2848 0.86992 0.0
H8350 H 0.14465 0.31019 0.86543 0.0
H8351 H 0.1511 0.29198 0.88457 0.0
C8352 C 0.15936 0.30018 0.88856 0.0
C8353 C 0.1625 0.30751 0.88761 0.0
C8354 C 0.14209 0.30463 0.86645 0.0
C8355 C 0.15065 0.30254 0.87795 0.0
C8356 C 0.13644 0.30196 0.86142 0.0
C8357 C 0.13312 0.29474 0.86253 0.0
C8358 C 0.14447 0.30001 0.87262 0.0
C8359 C 0.13553 0.29037 0.86884 0.0
C8360 C 0.15342 0.29768 0.88377 0.0
C8361 C 0.15958 0.3122 0.88179 0.0
N8362 N 0.14107 0.29305 0.87362 0.0
N8363 N 0.15383 0.30964 0.87717 0.0
H8364 H 0.43248 0.4027 0.61317 0.0
H8365 H 0.46442 0.37486 0.63079 0.0
H8366 H 0.43501 0.39834 0.63741 0.0
H8367 H 0.46042 0.37725 0.60658 0.0
H8368 H 0.45356 0.38345 0.63333 0.0
H8369 H 0.44268 0.39348 0.61059 0.0
C8370 C 0.43516 0.39979 0.61796 0.0
C8371 C 0.43286 0.40131 0.62554 0.0
C8372 C 0.45499 0.38205 0.62746 0.0
C8373 C 0.44452 0.39068 0.62259 0.0
C8374 C 0.46115 0.37715 0.62603 0.0
C8375 C 0.46319 0.37535 0.61849 0.0
C8376 C 0.4509 0.38521 0.62127 0.0
C8377 C 0.45894 0.37852 0.61247 0.0
C8378 C 0.44096 0.39449 0.61647 0.0
C8379 C 0.43649 0.39729 0.63148 0.0
N8380 N 0.45299 0.38332 0.61398 0.0
N8381 N 0.44215 0.39218 0.62988 0.0
H8382 H 0.35349 0.7027 0.39645 0.0
H8383 H 0.36686 0.71165 0.35331 0.0
H8384 H 0.33916 0.69969 0.3765 0.0
H8385 H 0.38202 0.71352 0.37266 0.0
H8386 H 0.35662 0.70725 0.36186 0.0
H8387 H 0.36404 0.70669 0.38802 0.0
C8388 C 0.35256 0.70285 0.39032 0.0
C8389 C 0.34538 0.70088 0.38721 0.0
C8390 C 0.3622 0.70854 0.36426 0.0
C8391 C 0.35743 0.70547 0.37754 0.0
C8392 C 0.36802 0.71103 0.35937 0.0
C8393 C 0.37526 0.71285 0.3623 0.0
C8394 C 0.36362 0.70789 0.37218 0.0
C8395 C 0.37653 0.71202 0.37019 0.0
C8396 C 0.35858 0.70516 0.38551 0.0
C8397 C 0.34451 0.70128 0.37921 0.0
N8398 N 0.37076 0.70962 0.37488 0.0
N8399 N 0.35043 0.70353 0.37468 0.0
H8400 H 0.38534 0.0663 0.41174 0.0
H8401 H 0.39455 0.0546 0.36869 0.0
H8402 H 0.38258 0.08291 0.39362 0.0
H8403 H 0.38507 0.03907 0.38536 0.0
H8404 H 0.39225 0.06534 0.37765 0.0
H8405 H 0.38793 0.05648 0.40218 0.0
C8406 C 0.38535 0.06792 0.40575 0.0
C8407 C 0.38373 0.07548 0.40351 0.0
C8408 C 0.3907 0.05957 0.37932 0.0
C8409 C 0.3866 0.06414 0.39247 0.0
C8410 C 0.392 0.05347 0.37423 0.0
C8411 C 0.39019 0.04594 0.3764 0.0
C8412 C 0.38769 0.05804 0.38664 0.0
C8413 C 0.38678 0.04476 0.38358 0.0
C8414 C 0.38676 0.06228 0.40028 0.0
C8415 C 0.38372 0.07715 0.39561 0.0
N8416 N 0.38576 0.05071 0.38848 0.0
N8417 N 0.38515 0.07152 0.39036 0.0
H8418 H 0.89249 0.42712 0.61069 0.0
H8419 H 0.87953 0.4681 0.62741 0.0
H8420 H 0.87414 0.4407 0.60136 0.0
H8421 H 0.8995 0.45617 0.63548 0.0
H8422 H 0.87708 0.45765 0.6183 0.0
H8423 H 0.89487 0.4372 0.62031 0.0
C8424 C 0.88896 0.43222 0.61071 0.0
C8425 C 0.88307 0.4331 0.60531 0.0
C8426 C 0.88196 0.45724 0.62211 0.0
C8427 C 0.88575 0.44462 0.61618 0.0
C8428 C 0.8833 0.46317 0.62732 0.0
C8429 C 0.88959 0.46283 0.63227 0.0
C8430 C 0.88697 0.45092 0.62183 0.0
C8431 C 0.89449 0.45648 0.63184 0.0
C8432 C 0.89032 0.43797 0.61617 0.0
C8433 C 0.87868 0.43981 0.60549 0.0
N8434 N 0.89307 0.45075 0.62673 0.0
N8435 N 0.88011 0.4453 0.61083 0.0
H8436 H 0.29853 0.12784 0.33827 0.0
H8437 H 0.29773 0.13654 0.38266 0.0
H8438 H 0.31473 0.11679 0.35342 0.0
H8439 H 0.29338 0.15405 0.36583 0.0
H8440 H 0.30252 0.12813 0.37248 0.0
H8441 H 0.29474 0.13624 0.34871 0.0
C8442 C 0.30137 0.12716 0.34374 0.0
C8443 C 0.30715 0.12162 0.3448 0.0
C8444 C 0.30057 0.13384 0.37104 0.0
C8445 C 0.30249 0.13114 0.35697 0.0
C8446 C 0.29793 0.1387 0.37687 0.0
C8447 C 0.29523 0.14607 0.37512 0.0
C8448 C 0.30026 0.13629 0.36338 0.0
C8449 C 0.29533 0.14839 0.36741 0.0
C8450 C 0.29913 0.13197 0.34973 0.0
C8451 C 0.31025 0.1209 0.35224 0.0
N8452 N 0.29769 0.14349 0.36183 0.0
N8453 N 0.30787 0.12558 0.35803 0.0
H8454 H 0.61349 0.57502 0.10457 0.0
H8455 H 0.63105 0.54543 0.13481 0.0
H8456 H 0.63729 0.57501 0.11137 0.0
H8457 H 0.60689 0.54762 0.13042 0.0
H8458 H 0.63349 0.55635 0.12627 0.0
H8459 H 0.61095 0.56495 0.11392 0.0
C8460 C 0.61818 0.57293 0.10804 0.0
C8461 C 0.62564 0.57588 0.10715 0.0
C8462 C 0.62764 0.5545 0.12721 0.0
C8463 C 0.62273 0.56438 0.11795 0.0
C8464 C 0.62628 0.54831 0.1321 0.0
C8465 C 0.61877 0.54575 0.13331 0.0
C8466 C 0.62145 0.55806 0.12347 0.0
C8467 C 0.61274 0.54951 0.1296 0.0
C8468 C 0.61671 0.5672 0.11342 0.0
C8469 C 0.63145 0.573 0.11191 0.0
N8470 N 0.6142 0.55547 0.12481 0.0
N8471 N 0.62988 0.56739 0.11707 0.0
H8472 H 0.69419 0.39287 0.35417 0.0
H8473 H 0.71535 0.35443 0.36593 0.0
H8474 H 0.70965 0.38079 0.339 0.0
H8475 H 0.71117 0.37197 0.38278 0.0
H8476 H 0.7111 0.36322 0.35586 0.0
H8477 H 0.69859 0.38476 0.36474 0.0
C8478 C 0.69853 0.3886 0.35301 0.0
C8479 C 0.7014 0.3875 0.34553 0.0
C8480 C 0.71107 0.36514 0.36177 0.0
C8481 C 0.70623 0.378 0.35764 0.0
C8482 C 0.71349 0.36013 0.3675 0.0
C8483 C 0.71365 0.3625 0.37517 0.0
C8484 C 0.70862 0.37255 0.36372 0.0
C8485 C 0.71105 0.36991 0.37694 0.0
C8486 C 0.70099 0.38392 0.35907 0.0
C8487 C 0.70698 0.38175 0.34451 0.0
N8488 N 0.7086 0.37468 0.37125 0.0
N8489 N 0.70911 0.37718 0.35044 0.0
H8490 H 0.11892 0.92556 0.89629 0.0
H8491 H 0.12952 0.96753 0.88152 0.0
H8492 H 0.13098 0.94208 0.91012 0.0
H8493 H 0.10937 0.95589 0.87341 0.0
H8494 H 0.13159 0.95719 0.89086 0.0
H8495 H 0.1166 0.9356 0.88661 0.0
C8496 C 0.1211 0.93129 0.89725 0.0
C8497 C 0.12518 0.93303 0.90396 0.0
C8498 C 0.12677 0.95683 0.88697 0.0
C8499 C 0.12268 0.94442 0.89296 0.0
C8500 C 0.12565 0.96268 0.88162 0.0
C8501 C 0.11941 0.96239 0.87661 0.0
C8502 C 0.12165 0.95061 0.88722 0.0
C8503 C 0.11435 0.95616 0.8771 0.0
C8504 C 0.11975 0.937 0.89177 0.0
C8505 C 0.12783 0.94054 0.905 0.0
N8506 N 0.11562 0.95044 0.88226 0.0
N8507 N 0.1266 0.94593 0.89954 0.0
H8508 H 0.30919 0.87568 0.16952 0.0
H8509 H 0.28968 0.87297 0.12814 0.0
H8510 H 0.30464 0.89567 0.1557 0.0
H8511 H 0.29988 0.85369 0.13955 0.0
H8512 H 0.29438 0.88142 0.13841 0.0
H8513 H 0.30485 0.86756 0.15901 0.0
C8514 C 0.30723 0.87838 0.16429 0.0
C8515 C 0.30725 0.88641 0.16354 0.0
C8516 C 0.29567 0.87536 0.13865 0.0
C8517 C 0.30235 0.87706 0.15136 0.0
C8518 C 0.29305 0.87058 0.13277 0.0
C8519 C 0.29461 0.86271 0.13296 0.0
C8520 C 0.29971 0.8722 0.14485 0.0
C8521 C 0.29872 0.85977 0.13918 0.0
C8522 C 0.30481 0.87372 0.15825 0.0
C8523 C 0.30478 0.88953 0.15653 0.0
N8524 N 0.3011 0.8645 0.14491 0.0
N8525 N 0.30239 0.88485 0.15074 0.0
H8526 H 0.19929 0.13218 0.6699 0.0
H8527 H 0.21685 0.13508 0.62753 0.0
H8528 H 0.20358 0.11232 0.65579 0.0
H8529 H 0.21024 0.15461 0.64101 0.0
H8530 H 0.21217 0.12656 0.63774 0.0
H8531 H 0.20362 0.14038 0.65948 0.0
C8532 C 0.2012 0.12952 0.66463 0.0
C8533 C 0.20111 0.1215 0.66378 0.0
C8534 C 0.21166 0.13271 0.63845 0.0
C8535 C 0.20598 0.13096 0.65167 0.0
C8536 C 0.21426 0.13754 0.6326 0.0
C8537 C 0.21372 0.1455 0.63341 0.0
C8538 C 0.20861 0.13589 0.6452 0.0
C8539 C 0.21062 0.14848 0.64018 0.0
C8540 C 0.20362 0.13423 0.65863 0.0
C8541 C 0.20349 0.11845 0.65671 0.0
N8542 N 0.20819 0.14368 0.64583 0.0
N8543 N 0.20585 0.12317 0.65094 0.0
H8544 H 0.08874 0.17983 0.37405 0.0
H8545 H 0.1254 0.19834 0.35389 0.0
H8546 H 0.11012 0.16758 0.37173 0.0
H8547 H 0.10758 0.21168 0.36453 0.0
H8548 H 0.11943 0.18663 0.35888 0.0
H8549 H 0.09482 0.19112 0.3684 0.0
C8550 C 0.09467 0.17946 0.37227 0.0
C8551 C 0.09892 0.17274 0.37345 0.0
C8552 C 0.11686 0.19213 0.36015 0.0
C8553 C 0.10596 0.18571 0.36711 0.0
C8554 C 0.12034 0.19881 0.35742 0.0
C8555 C 0.11706 0.20597 0.35895 0.0
C8556 C 0.10993 0.19264 0.36425 0.0
C8557 C 0.11026 0.20625 0.36322 0.0
C8558 C 0.09817 0.18594 0.36913 0.0
C8559 C 0.10664 0.17267 0.37108 0.0
N8560 N 0.10688 0.19968 0.36567 0.0
N8561 N 0.10992 0.17906 0.36805 0.0
H8562 H 0.06844 0.83133 0.64012 0.0
H8563 H 0.04304 0.86886 0.6326 0.0
H8564 H 0.06109 0.847 0.65783 0.0
H8565 H 0.04638 0.8515 0.61543 0.0
H8566 H 0.05041 0.86112 0.64173 0.0
H8567 H 0.06064 0.83846 0.63086 0.0
C8568 C 0.06515 0.8362 0.6421 0.0
C8569 C 0.06559 0.83863 0.64978 0.0
C8570 C 0.0496 0.859 0.63595 0.0
C8571 C 0.05682 0.84694 0.63914 0.0
C8572 C 0.04549 0.86347 0.63075 0.0
C8573 C 0.04425 0.86082 0.62329 0.0
C8574 C 0.05253 0.85184 0.63365 0.0
C8575 C 0.04734 0.85372 0.62114 0.0
C8576 C 0.06075 0.84031 0.63678 0.0
C8577 C 0.06118 0.84502 0.65195 0.0
N8578 N 0.05135 0.84946 0.6263 0.0
N8579 N 0.05707 0.84898 0.64667 0.0
H8580 H 0.39832 0.84107 0.8711 0.0
H8581 H 0.40234 0.79617 0.86334 0.0
H8582 H 0.41893 0.82824 0.87588 0.0
H8583 H 0.38401 0.80975 0.85396 0.0
H8584 H 0.40829 0.80784 0.86837 0.0
H8585 H 0.39275 0.82968 0.86519 0.0
C8586 C 0.4017 0.83587 0.87089 0.0
C8587 C 0.4091 0.83563 0.87409 0.0
C8588 C 0.40296 0.80828 0.86523 0.0
C8589 C 0.40274 0.82254 0.86724 0.0
C8590 C 0.39958 0.80163 0.86235 0.0
C8591 C 0.3927 0.80203 0.85823 0.0
C8592 C 0.39935 0.81538 0.86409 0.0
C8593 C 0.38925 0.80921 0.85722 0.0
C8594 C 0.39852 0.82938 0.86747 0.0
C8595 C 0.41324 0.82875 0.87347 0.0
N8596 N 0.3926 0.81561 0.86016 0.0
N8597 N 0.40998 0.82247 0.87018 0.0
H8598 H 0.43862 0.15763 0.15481 0.0
H8599 H 0.46212 0.15709 0.11567 0.0
H8600 H 0.44581 0.1785 0.1436 0.0
H8601 H 0.46294 0.13877 0.13213 0.0
H8602 H 0.45411 0.16459 0.12458 0.0
H8603 H 0.44575 0.15026 0.1454 0.0
C8604 C 0.44177 0.1607 0.15043 0.0
C8605 C 0.44169 0.16875 0.15011 0.0
C8606 C 0.45599 0.15891 0.12621 0.0
C8607 C 0.44969 0.16023 0.1391 0.0
C8608 C 0.46047 0.15464 0.12112 0.0
C8609 C 0.46307 0.14734 0.12321 0.0
C8610 C 0.45411 0.1558 0.13338 0.0
C8611 C 0.46091 0.14435 0.13032 0.0
C8612 C 0.4458 0.15646 0.14501 0.0
C8613 C 0.44567 0.17233 0.14408 0.0
N8614 N 0.45656 0.1486 0.13518 0.0
N8615 N 0.44951 0.16804 0.1388 0.0
H8616 H 0.0939 0.83562 0.1451 0.0
H8617 H 0.12018 0.79876 0.13782 0.0
H8618 H 0.10659 0.83184 0.12419 0.0
H8619 H 0.11342 0.806 0.16043 0.0
H8620 H 0.11455 0.81052 0.13253 0.0
H8621 H 0.10012 0.8243 0.15069 0.0
C8622 C 0.09797 0.83241 0.14168 0.0
C8623 C 0.09974 0.8347 0.13417 0.0
C8624 C 0.11432 0.80956 0.13865 0.0
C8625 C 0.10686 0.82177 0.14051 0.0
C8626 C 0.11756 0.80288 0.14165 0.0
C8627 C 0.11727 0.80147 0.14955 0.0
C8628 C 0.11063 0.81478 0.14358 0.0
C8629 C 0.1137 0.80689 0.1543 0.0
C8630 C 0.10156 0.82598 0.14489 0.0
C8631 C 0.10512 0.83035 0.13004 0.0
N8632 N 0.11047 0.81329 0.15124 0.0
N8633 N 0.10845 0.8241 0.13324 0.0
H8634 H 0.43994 0.85037 0.35381 0.0
H8635 H 0.46312 0.85001 0.39313 0.0
H8636 H 0.44587 0.82917 0.3652 0.0
H8637 H 0.46383 0.86864 0.37699 0.0
H8638 H 0.45557 0.84247 0.38388 0.0
H8639 H 0.44755 0.85733 0.36306 0.0
C8640 C 0.44291 0.8471 0.35816 0.0
C8641 C 0.44229 0.83907 0.35855 0.0
C8642 C 0.45733 0.84824 0.3824 0.0
C8643 C 0.45082 0.84722 0.36952 0.0
C8644 C 0.4616 0.85252 0.38767 0.0
C8645 C 0.464 0.85997 0.38583 0.0
C8646 C 0.45535 0.8515 0.37531 0.0
C8647 C 0.46189 0.86301 0.37871 0.0
C8648 C 0.44721 0.85115 0.36353 0.0
C8649 C 0.44607 0.83534 0.36464 0.0
N8650 N 0.45767 0.85878 0.37373 0.0
N8651 N 0.45015 0.83945 0.3699 0.0
H8652 H 0.41452 0.17231 0.64529 0.0
H8653 H 0.38942 0.20985 0.63819 0.0
H8654 H 0.40196 0.17641 0.62439 0.0
H8655 H 0.39415 0.20151 0.66091 0.0
H8656 H 0.39493 0.19807 0.63284 0.0
H8657 H 0.4083 0.18361 0.65102 0.0
C8658 C 0.41048 0.17559 0.64191 0.0
C8659 C 0.40874 0.1734 0.63435 0.0
C8660 C 0.39477 0.19881 0.639 0.0
C8661 C 0.40165 0.18629 0.64084 0.0
C8662 C 0.39161 0.20551 0.64203 0.0
C8663 C 0.39144 0.20666 0.64998 0.0
C8664 C 0.39792 0.19328 0.64395 0.0
C8665 C 0.39436 0.20088 0.65475 0.0
C8666 C 0.4069 0.18199 0.64519 0.0
C8667 C 0.40341 0.17783 0.63025 0.0
N8668 N 0.39757 0.19447 0.65167 0.0
N8669 N 0.4001 0.18406 0.63352 0.0
H8670 H 0.05952 0.16285 0.85064 0.0
H8671 H 0.04783 0.15633 0.89455 0.0
H8672 H 0.06984 0.17569 0.86912 0.0
H8673 H 0.04148 0.14125 0.87612 0.0
H8674 H 0.05539 0.16408 0.88546 0.0
H8675 H 0.05207 0.15566 0.85995 0.0
C8676 C 0.06024 0.16418 0.85666 0.0
C8677 C 0.06547 0.16981 0.85907 0.0
C8678 C 0.0524 0.15904 0.88341 0.0
C8679 C 0.05678 0.1616 0.86984 0.0
C8680 C 0.04815 0.15463 0.88859 0.0
C8681 C 0.04415 0.14816 0.88602 0.0
C8682 C 0.05255 0.15698 0.87561 0.0
C8683 C 0.0446 0.14617 0.87827 0.0
C8684 C 0.05595 0.16006 0.86199 0.0
C8685 C 0.0659 0.17142 0.86697 0.0
N8686 N 0.04868 0.15058 0.87333 0.0
N8687 N 0.06165 0.1673 0.87207 0.0
H8688 H 0.38177 0.09291 0.18139 0.0
H8689 H 0.34907 0.11874 0.20042 0.0
H8690 H 0.36548 0.10547 0.16775 0.0
H8691 H 0.37027 0.11343 0.21179 0.0
H8692 H 0.35397 0.11265 0.18864 0.0
H8693 H 0.37649 0.09888 0.19298 0.0
C8694 C 0.37699 0.09682 0.18087 0.0
C8695 C 0.37402 0.09867 0.17364 0.0
C8696 C 0.35757 0.11287 0.19369 0.0
C8697 C 0.36798 0.10556 0.18682 0.0
C8698 C 0.3548 0.11634 0.20036 0.0
C8699 C 0.35938 0.11669 0.20694 0.0
C8700 C 0.36489 0.10951 0.19372 0.0
C8701 C 0.36667 0.11338 0.20674 0.0
C8702 C 0.37403 0.10029 0.18745 0.0
C8703 C 0.36791 0.10389 0.17324 0.0
N8704 N 0.3692 0.10988 0.20023 0.0
N8705 N 0.36506 0.10714 0.17974 0.0
H8706 H 0.16235 0.15798 0.4485 0.0
H8707 H 0.15692 0.11425 0.46123 0.0
H8708 H 0.17613 0.13966 0.43915 0.0
H8709 H 0.14102 0.13228 0.46663 0.0
H8710 H 0.16459 0.12339 0.45366 0.0
H8711 H 0.15521 0.14865 0.45598 0.0
C8712 C 0.16389 0.15199 0.448 0.0
C8713 C 0.16978 0.14962 0.44303 0.0
C8714 C 0.15939 0.12534 0.45645 0.0
C8715 C 0.16163 0.13885 0.45177 0.0
C8716 C 0.15503 0.12013 0.46071 0.0
C8717 C 0.14836 0.12257 0.46445 0.0
C8718 C 0.15707 0.13304 0.45602 0.0
C8719 C 0.14611 0.13023 0.46373 0.0
C8720 C 0.1598 0.14666 0.45231 0.0
C8721 C 0.17165 0.14178 0.44288 0.0
N8722 N 0.15048 0.13521 0.45963 0.0
N8723 N 0.16756 0.13667 0.44716 0.0
H8724 H 0.12503 0.9128 0.68108 0.0
H8725 H 0.15991 0.88974 0.70022 0.0
H8726 H 0.14441 0.90489 0.668 0.0
H8727 H 0.13846 0.89412 0.71153 0.0
H8728 H 0.15486 0.89579 0.68849 0.0
H8729 H 0.13044 0.90679 0.69255 0.0
C8730 C 0.13051 0.9099 0.68069 0.0
C8731 C 0.13435 0.90942 0.67366 0.0
C8732 C 0.15123 0.89539 0.69351 0.0
C8733 C 0.14055 0.90242 0.6867 0.0
C8734 C 0.15411 0.89193 0.70016 0.0
C8735 C 0.14953 0.89142 0.70673 0.0
C8736 C 0.14378 0.89846 0.69354 0.0
C8737 C 0.14209 0.89438 0.7065 0.0
C8738 C 0.13357 0.90642 0.6872 0.0
C8739 C 0.14135 0.90546 0.67336 0.0
N8740 N 0.13945 0.89781 0.70002 0.0
N8741 N 0.14424 0.90212 0.67981 0.0
H8742 H 0.33574 0.85385 0.95336 0.0
H8743 H 0.36166 0.89181 0.95513 0.0
H8744 H 0.34231 0.86639 0.93314 0.0
H8745 H 0.35981 0.87554 0.97358 0.0
H8746 H 0.35377 0.88329 0.94706 0.0
H8747 H 0.34345 0.86266 0.96118 0.0
C8748 C 0.33875 0.85853 0.95061 0.0
C8749 C 0.33839 0.85948 0.94266 0.0
C8750 C 0.35509 0.8816 0.95289 0.0
C8751 C 0.34724 0.86951 0.95146 0.0
C8752 C 0.3596 0.88643 0.95745 0.0
C8753 C 0.36125 0.8844 0.96504 0.0
C8754 C 0.35219 0.87475 0.95599 0.0
C8755 C 0.35848 0.87739 0.96782 0.0
C8756 C 0.34318 0.86352 0.95503 0.0
C8757 C 0.34245 0.86555 0.93929 0.0
N8758 N 0.35404 0.87285 0.96333 0.0
N8759 N 0.34671 0.87036 0.94371 0.0
H8760 H 0.36642 0.90137 0.34154 0.0
H8761 H 0.3676 0.89715 0.2959 0.0
H8762 H 0.37884 0.91685 0.32678 0.0
H8763 H 0.35008 0.88659 0.30963 0.0
H8764 H 0.37259 0.9036 0.3074 0.0
H8765 H 0.36098 0.89513 0.33018 0.0
C8766 C 0.36796 0.90349 0.33591 0.0
C8767 C 0.3731 0.90966 0.33512 0.0
C8768 C 0.36769 0.89982 0.30793 0.0
C8769 C 0.36696 0.90248 0.32209 0.0
C8770 C 0.36492 0.89611 0.3014 0.0
C8771 C 0.35859 0.89121 0.30193 0.0
C8772 C 0.36412 0.89859 0.31505 0.0
C8773 C 0.35512 0.89016 0.30909 0.0
C8774 C 0.36484 0.89993 0.32943 0.0
C8775 C 0.37485 0.91218 0.32768 0.0
N8776 N 0.35796 0.89378 0.31541 0.0
N8777 N 0.37185 0.90854 0.32147 0.0
H8778 H 0.33899 0.14046 0.57494 0.0
H8779 H 0.36141 0.13299 0.53561 0.0
H8780 H 0.33838 0.15602 0.5558 0.0
H8781 H 0.3573 0.11519 0.55215 0.0
H8782 H 0.35358 0.14178 0.54329 0.0
H8783 H 0.34629 0.13132 0.56711 0.0
C8784 C 0.34026 0.14186 0.56903 0.0
C8785 C 0.33802 0.14892 0.56595 0.0
C8786 C 0.35446 0.13598 0.54531 0.0
C8787 C 0.34644 0.13861 0.55701 0.0
C8788 C 0.35894 0.131 0.54095 0.0
C8789 C 0.36014 0.12344 0.54338 0.0
C8790 C 0.3512 0.13341 0.55221 0.0
C8791 C 0.35676 0.12105 0.55026 0.0
C8792 C 0.34446 0.13668 0.56458 0.0
C8793 C 0.33997 0.15059 0.55834 0.0
N8794 N 0.35247 0.12604 0.55447 0.0
N8795 N 0.34408 0.14547 0.55412 0.0
H8796 H 0.14199 0.10654 0.84111 0.0
H8797 H 0.13864 0.11172 0.79604 0.0
H8798 H 0.12981 0.09037 0.82688 0.0
H8799 H 0.15878 0.11908 0.80819 0.0
H8800 H 0.13412 0.10519 0.80772 0.0
H8801 H 0.14719 0.11258 0.82951 0.0
C8802 C 0.14046 0.10422 0.83555 0.0
C8803 C 0.13546 0.09792 0.83497 0.0
C8804 C 0.13949 0.1083 0.80786 0.0
C8805 C 0.1413 0.10488 0.82171 0.0
C8806 C 0.142 0.11207 0.80125 0.0
C8807 C 0.14893 0.11609 0.80131 0.0
C8808 C 0.14391 0.10869 0.81458 0.0
C8809 C 0.1533 0.11617 0.80805 0.0
C8810 C 0.14345 0.10766 0.82895 0.0
C8811 C 0.1337 0.09515 0.82761 0.0
N8812 N 0.15067 0.11262 0.81448 0.0
N8813 N 0.13655 0.0987 0.82128 0.0
H8814 H 0.16779 0.85095 0.0566 0.0
H8815 H 0.15014 0.89323 0.05278 0.0
H8816 H 0.17214 0.86877 0.07317 0.0
H8817 H 0.14767 0.87555 0.03577 0.0
H8818 H 0.15796 0.88444 0.06059 0.0
H8819 H 0.1605 0.86005 0.04889 0.0
C8820 C 0.16725 0.85681 0.05858 0.0
C8821 C 0.17056 0.8591 0.06554 0.0
C8822 C 0.1557 0.88248 0.05515 0.0
C8823 C 0.16211 0.86957 0.05678 0.0
C8824 C 0.15119 0.88747 0.05077 0.0
C8825 C 0.14828 0.88506 0.04368 0.0
C8826 C 0.1573 0.87507 0.05239 0.0
C8827 C 0.14987 0.87759 0.04121 0.0
C8828 C 0.16307 0.86201 0.05418 0.0
C8829 C 0.16973 0.86678 0.06781 0.0
N8830 N 0.15428 0.87288 0.04553 0.0
N8831 N 0.16553 0.87173 0.06347 0.0
H8832 H 0.1725 0.36396 0.09253 0.0
H8833 H 0.20755 0.37057 0.12105 0.0
H8834 H 0.17435 0.38303 0.10817 0.0
H8835 H 0.20273 0.34825 0.11168 0.0
H8836 H 0.19556 0.37526 0.11585 0.0
H8837 H 0.18392 0.3582 0.09855 0.0
C8838 C 0.1753 0.36693 0.09721 0.0
C8839 C 0.17243 0.37397 0.09988 0.0
C8840 C 0.19707 0.36931 0.11497 0.0
C8841 C 0.18543 0.36746 0.10675 0.0
C8842 C 0.20388 0.36658 0.1181 0.0
C8843 C 0.20607 0.35894 0.11703 0.0
C8844 C 0.19249 0.36445 0.11046 0.0
C8845 C 0.20124 0.35419 0.11265 0.0
C8846 C 0.18177 0.36362 0.10067 0.0
C8847 C 0.17627 0.37755 0.10599 0.0
N8848 N 0.1947 0.35703 0.10945 0.0
N8849 N 0.18255 0.37428 0.10917 0.0
H8850 H 0.66781 0.13802 0.89891 0.0
H8851 H 0.713 0.14205 0.89874 0.0
H8852 H 0.68129 0.1333 0.91911 0.0
H8853 H 0.6989 0.15767 0.88595 0.0
H8854 H 0.70144 0.13713 0.9052 0.0
H8855 H 0.67915 0.14368 0.89285 0.0
C8856 C 0.67314 0.13822 0.9021 0.0
C8857 C 0.6736 0.13514 0.90954 0.0
C8858 C 0.70087 0.14155 0.90088 0.0
C8859 C 0.68659 0.14156 0.90259 0.0
C8860 C 0.70743 0.14428 0.89717 0.0
C8861 C 0.70681 0.14999 0.89157 0.0
C8862 C 0.69365 0.14449 0.89889 0.0
C8863 C 0.69953 0.15296 0.88991 0.0
C8864 C 0.67959 0.14148 0.89864 0.0
C8865 C 0.68064 0.13564 0.9134 0.0
N8866 N 0.6932 0.15009 0.89347 0.0
N8867 N 0.68688 0.1387 0.90985 0.0
H8868 H 0.14042 0.44028 0.17793 0.0
H8869 H 0.13316 0.46606 0.14062 0.0
H8870 H 0.15779 0.44649 0.1614 0.0
H8871 H 0.11513 0.46037 0.15643 0.0
H8872 H 0.14221 0.45877 0.14837 0.0
H8873 H 0.13113 0.44809 0.1708 0.0
C8874 C 0.14232 0.44333 0.17286 0.0
C8875 C 0.14988 0.44256 0.17018 0.0
C8876 C 0.13626 0.459 0.15014 0.0
C8877 C 0.13925 0.45133 0.16191 0.0
C8878 C 0.13108 0.46302 0.14561 0.0
C8879 C 0.12337 0.46348 0.14773 0.0
C8880 C 0.13375 0.45554 0.15697 0.0
C8881 C 0.12102 0.45992 0.15454 0.0
C8882 C 0.13699 0.44772 0.16875 0.0
C8883 C 0.15198 0.44668 0.16358 0.0
N8884 N 0.1262 0.45609 0.15895 0.0
N8885 N 0.14669 0.45079 0.15965 0.0
H8886 H 0.83024 0.86964 0.41992 0.0
H8887 H 0.80549 0.86696 0.38326 0.0
H8888 H 0.8399 0.87412 0.39753 0.0
H8889 H 0.80312 0.84911 0.40031 0.0
H8890 H 0.81736 0.87053 0.3888 0.0
H8891 H 0.81941 0.86319 0.4137 0.0
C8892 C 0.83018 0.86921 0.41373 0.0
C8893 C 0.83601 0.87259 0.40928 0.0
C8894 C 0.81413 0.86591 0.3914 0.0
C8895 C 0.82349 0.8654 0.40217 0.0
C8896 C 0.80717 0.86372 0.38815 0.0
C8897 C 0.80263 0.85788 0.39145 0.0
C8898 C 0.81659 0.86249 0.3982 0.0
C8899 C 0.80583 0.85409 0.39787 0.0
C8900 C 0.82397 0.86555 0.4102 0.0
C8901 C 0.83548 0.87188 0.40125 0.0
N8902 N 0.81244 0.85661 0.40118 0.0
N8903 N 0.82929 0.86849 0.39797 0.0
H8904 H 0.86741 0.07564 0.16862 0.0
H8905 H 0.875 0.03547 0.14803 0.0
H8906 H 0.85303 0.05579 0.17149 0.0
H8907 H 0.89206 0.05327 0.14873 0.0
H8908 H 0.86666 0.04319 0.15621 0.0
H8909 H 0.87648 0.06787 0.16114 0.0
C8910 C 0.86628 0.06959 0.16781 0.0
C8911 C 0.85957 0.06628 0.17073 0.0
C8912 C 0.87222 0.04545 0.1546 0.0
C8913 C 0.86974 0.05743 0.16209 0.0
C8914 C 0.87694 0.04105 0.14992 0.0
C8915 C 0.88422 0.04373 0.14785 0.0
C8916 C 0.87472 0.05267 0.15711 0.0
C8917 C 0.88648 0.05103 0.15029 0.0
C8918 C 0.87141 0.06518 0.16351 0.0
C8919 C 0.85821 0.05849 0.16939 0.0
N8920 N 0.88174 0.05528 0.15481 0.0
N8921 N 0.86324 0.05433 0.16514 0.0
H8922 H 0.32818 0.63299 0.58951 0.0
H8923 H 0.30905 0.65396 0.62569 0.0
H8924 H 0.34042 0.63717 0.61062 0.0
H8925 H 0.29622 0.64462 0.60679 0.0
H8926 H 0.3209 0.64898 0.61992 0.0
H8927 H 0.31682 0.63894 0.59513 0.0
C8928 C 0.32854 0.63523 0.59529 0.0
C8929 C 0.3353 0.63447 0.5996 0.0
C8930 C 0.31549 0.64803 0.61703 0.0
C8931 C 0.32218 0.64116 0.60615 0.0
C8932 C 0.30873 0.6508 0.62037 0.0
C8933 C 0.30166 0.64969 0.61671 0.0
C8934 C 0.31516 0.64421 0.60993 0.0
C8935 C 0.30157 0.6457 0.60972 0.0
C8936 C 0.322 0.63856 0.59853 0.0
C8937 C 0.33531 0.63745 0.60711 0.0
N8938 N 0.30821 0.64315 0.60654 0.0
N8939 N 0.32886 0.64061 0.61016 0.0
H8940 H 0.15354 0.57082 0.35082 0.0
H8941 H 0.1181 0.54193 0.35073 0.0
H8942 H 0.14505 0.56054 0.32996 0.0
H8943 H 0.13196 0.54644 0.37064 0.0
H8944 H 0.12673 0.54998 0.34302 0.0
H8945 H 0.14448 0.5632 0.35816 0.0
C8946 C 0.14982 0.5669 0.34777 0.0
C8947 C 0.15018 0.56624 0.33974 0.0
C8948 C 0.12784 0.54926 0.34909 0.0
C8949 C 0.13959 0.55758 0.34818 0.0
C8950 C 0.12292 0.54471 0.35347 0.0
C8951 C 0.12432 0.5436 0.36131 0.0
C8952 C 0.13413 0.55281 0.35262 0.0
C8953 C 0.13063 0.54727 0.36464 0.0
C8954 C 0.14461 0.56258 0.35198 0.0
C8955 C 0.14499 0.56125 0.33613 0.0
N8956 N 0.13529 0.55173 0.36028 0.0
N8957 N 0.13991 0.55709 0.34038 0.0
H8958 H 0.35629 0.4522 0.83231 0.0
H8959 H 0.39118 0.45355 0.86111 0.0
H8960 H 0.36145 0.43278 0.84665 0.0
H8961 H 0.37568 0.47267 0.85933 0.0
H8962 H 0.38209 0.44569 0.85383 0.0
H8963 H 0.36555 0.4599 0.83975 0.0
C8964 C 0.35945 0.44955 0.83695 0.0
C8965 C 0.35815 0.44187 0.8389 0.0
C8966 C 0.3807 0.45161 0.85506 0.0
C8967 C 0.36866 0.45053 0.84731 0.0
C8968 C 0.38582 0.45605 0.85935 0.0
C8969 C 0.38414 0.46373 0.86094 0.0
C8970 C 0.37404 0.455 0.85208 0.0
C8971 C 0.3772 0.46677 0.85817 0.0
C8972 C 0.36466 0.45394 0.84121 0.0
C8973 C 0.36232 0.43869 0.845 0.0
N8974 N 0.37247 0.46245 0.85374 0.0
N8975 N 0.36742 0.44302 0.84897 0.0
H8976 H 0.91243 0.83681 0.64367 0.0
H8977 H 0.89123 0.79652 0.63774 0.0
H8978 H 0.90555 0.82776 0.62173 0.0
H8979 H 0.89189 0.80771 0.6597 0.0
H8980 H 0.89747 0.80763 0.63196 0.0
H8981 H 0.90613 0.8258 0.64997 0.0
C8982 C 0.90967 0.83246 0.6402 0.0
C8983 C 0.9095 0.83315 0.63218 0.0
C8984 C 0.89621 0.80773 0.63804 0.0
C8985 C 0.90233 0.82066 0.63927 0.0
C8986 C 0.89256 0.80142 0.6413 0.0
C8987 C 0.89091 0.80133 0.64913 0.0
C8988 C 0.89835 0.81396 0.64268 0.0
C8989 C 0.89303 0.80767 0.6536 0.0
C8990 C 0.90604 0.82624 0.64378 0.0
C8991 C 0.90579 0.82744 0.62792 0.0
N8992 N 0.89669 0.81374 0.65032 0.0
N8993 N 0.90238 0.82145 0.63151 0.0
H8994 H 0.93861 0.15962 0.35471 0.0
H8995 H 0.96541 0.1582 0.39139 0.0
H8996 H 0.95089 0.17984 0.36207 0.0
H8997 H 0.96334 0.13944 0.37551 0.0
H8998 H 0.95812 0.16633 0.38243 0.0
H8999 H 0.94554 0.15213 0.36418 0.0
C9000 C 0.94283 0.1625 0.35825 0.0
C9001 C 0.94425 0.17039 0.35745 0.0
C9002 C 0.95915 0.16038 0.38102 0.0
C9003 C 0.95203 0.1618 0.36854 0.0
C9004 C 0.96325 0.15575 0.38611 0.0
C9005 C 0.96474 0.14805 0.38431 0.0
C9006 C 0.95639 0.1572 0.37416 0.0
C9007 C 0.96195 0.14516 0.37736 0.0
C9008 C 0.94673 0.15821 0.3637 0.0
C9009 C 0.94958 0.17379 0.36247 0.0
N9010 N 0.95786 0.14971 0.37258 0.0
N9011 N 0.95329 0.16947 0.36782 0.0
H9012 H 0.59229 0.17477 0.14303 0.0
H9013 H 0.62119 0.20962 0.1385 0.0
H9014 H 0.60812 0.17659 0.12409 0.0
H9015 H 0.61314 0.2023 0.16068 0.0
H9016 H 0.61571 0.19803 0.13283 0.0
H9017 H 0.59887 0.18551 0.14933 0.0
C9018 C 0.59714 0.17742 0.1402 0.0
C9019 C 0.59965 0.17477 0.13302 0.0
C9020 C 0.61518 0.19894 0.13895 0.0
C9021 C 0.60717 0.18705 0.14016 0.0
C9022 C 0.61837 0.20551 0.1422 0.0
C9023 C 0.61768 0.20688 0.15009 0.0
C9024 C 0.61105 0.1938 0.14358 0.0
C9025 C 0.61372 0.20149 0.15456 0.0
C9026 C 0.60093 0.1835 0.14382 0.0
C9027 C 0.60602 0.17838 0.12965 0.0
N9028 N 0.61048 0.19522 0.15124 0.0
N9029 N 0.60951 0.18436 0.13322 0.0
H9030 H 0.55424 0.83735 0.85102 0.0
H9031 H 0.5524 0.85855 0.89195 0.0
H9032 H 0.57357 0.83829 0.86634 0.0
H9033 H 0.53509 0.86034 0.87447 0.0
H9034 H 0.56003 0.8503 0.8833 0.0
H9035 H 0.54664 0.8446 0.86036 0.0
C9036 C 0.55682 0.83899 0.85643 0.0
C9037 C 0.56447 0.83716 0.858 0.0
C9038 C 0.55456 0.8525 0.88137 0.0
C9039 C 0.55595 0.84565 0.86861 0.0
C9040 C 0.55026 0.85722 0.88627 0.0
C9041 C 0.54313 0.86004 0.88388 0.0
C9042 C 0.55166 0.85063 0.87406 0.0
C9043 C 0.54055 0.85819 0.87651 0.0
C9044 C 0.55253 0.84318 0.86173 0.0
C9045 C 0.56763 0.83951 0.86501 0.0
N9046 N 0.54477 0.85358 0.87188 0.0
N9047 N 0.56337 0.84368 0.87006 0.0
H9048 H 0.91804 0.1831 0.88047 0.0
H9049 H 0.88392 0.199 0.85403 0.0
H9050 H 0.90101 0.1684 0.87012 0.0
H9051 H 0.89997 0.2133 0.8661 0.0
H9052 H 0.89041 0.18757 0.8592 0.0
H9053 H 0.9121 0.19409 0.87424 0.0
C9054 C 0.91312 0.18215 0.87681 0.0
C9055 C 0.91001 0.17478 0.87589 0.0
C9056 C 0.89251 0.19321 0.86074 0.0
C9057 C 0.90303 0.18744 0.86886 0.0
C9058 C 0.88878 0.19969 0.85783 0.0
C9059 C 0.89147 0.20702 0.85967 0.0
C9060 C 0.89893 0.19413 0.86554 0.0
C9061 C 0.8978 0.2077 0.86454 0.0
C9062 C 0.90967 0.18846 0.87331 0.0
C9063 C 0.90354 0.17398 0.87114 0.0
N9064 N 0.90132 0.20134 0.86731 0.0
N9065 N 0.90024 0.18022 0.86784 0.0
H9066 H 0.55639 0.16486 0.66007 0.0
H9067 H 0.5497 0.15479 0.61575 0.0
H9068 H 0.56991 0.17482 0.64188 0.0
H9069 H 0.53847 0.14324 0.63439 0.0
H9070 H 0.55701 0.16249 0.62505 0.0
H9071 H 0.5493 0.15747 0.65058 0.0
C9072 C 0.55787 0.16552 0.65407 0.0
C9073 C 0.56385 0.17041 0.6518 0.0
C9074 C 0.55301 0.15823 0.62712 0.0
C9075 C 0.55567 0.16196 0.64085 0.0
C9076 C 0.54892 0.15381 0.62183 0.0
C9077 C 0.54365 0.14834 0.62439 0.0
C9078 C 0.55167 0.15721 0.63501 0.0
C9079 C 0.54262 0.14734 0.63227 0.0
C9080 C 0.5538 0.16129 0.64865 0.0
C9081 C 0.56534 0.17116 0.64391 0.0
N9082 N 0.54656 0.15177 0.63732 0.0
N9083 N 0.56131 0.16694 0.63872 0.0
H9084 H 0.60535 0.84015 0.36772 0.0
H9085 H 0.61082 0.79454 0.3671 0.0
H9086 H 0.59185 0.82448 0.38126 0.0
H9087 H 0.62211 0.8095 0.35111 0.0
H9088 H 0.60432 0.80563 0.37281 0.0
H9089 H 0.61182 0.82921 0.36173 0.0
C9090 C 0.60372 0.8344 0.3694 0.0
C9091 C 0.59804 0.83322 0.375 0.0
C9092 C 0.60822 0.80653 0.36806 0.0
C9093 C 0.60549 0.82068 0.36824 0.0
C9094 C 0.61194 0.80022 0.36487 0.0
C9095 C 0.61697 0.8012 0.3587 0.0
C9096 C 0.60953 0.81389 0.36504 0.0
C9097 C 0.61828 0.8086 0.35591 0.0
C9098 C 0.60741 0.82816 0.36598 0.0
C9099 C 0.59612 0.82565 0.37692 0.0
N9100 N 0.61456 0.81469 0.35909 0.0
N9101 N 0.59988 0.81969 0.37359 0.0
H9102 H 0.9527 0.84253 0.15982 0.0
H9103 H 0.95714 0.8556 0.11599 0.0
H9104 H 0.93826 0.83378 0.14174 0.0
H9105 H 0.97255 0.86221 0.13405 0.0
H9106 H 0.94986 0.84775 0.12523 0.0
H9107 H 0.95996 0.84977 0.15036 0.0
C9108 C 0.95108 0.8421 0.15384 0.0
C9109 C 0.94481 0.83758 0.15159 0.0
C9110 C 0.95481 0.85094 0.12718 0.0
C9111 C 0.95314 0.8459 0.14066 0.0
C9112 C 0.9589 0.85543 0.12194 0.0
C9113 C 0.96537 0.8595 0.12435 0.0
C9114 C 0.95725 0.85059 0.13487 0.0
C9115 C 0.96755 0.85912 0.13205 0.0
C9116 C 0.95524 0.84623 0.14843 0.0
C9117 C 0.94307 0.83715 0.14373 0.0
N9118 N 0.9635 0.85474 0.13704 0.0
N9119 N 0.94718 0.84131 0.13855 0.0
H9120 H 0.62974 0.91829 0.82554 0.0
H9121 H 0.65469 0.88321 0.80941 0.0
H9122 H 0.63786 0.89982 0.83986 0.0
H9123 H 0.64348 0.89989 0.79515 0.0
H9124 H 0.64942 0.8896 0.82083 0.0
H9125 H 0.63605 0.91235 0.81457 0.0
C9126 C 0.63293 0.91305 0.82642 0.0
C9127 C 0.63317 0.90953 0.83366 0.0
C9128 C 0.64809 0.89186 0.8152 0.0
C9129 C 0.64028 0.90257 0.82102 0.0
C9130 C 0.65103 0.88816 0.80871 0.0
C9131 C 0.64944 0.89102 0.80139 0.0
C9132 C 0.64358 0.89848 0.81431 0.0
C9133 C 0.64483 0.89756 0.80073 0.0
C9134 C 0.63646 0.9096 0.82012 0.0
C9135 C 0.63735 0.90267 0.83437 0.0
N9136 N 0.64208 0.90108 0.8071 0.0
N9137 N 0.64069 0.89939 0.82813 0.0
H9138 H 0.83287 0.85406 0.55416 0.0
H9139 H 0.86072 0.89053 0.55368 0.0
H9140 H 0.84405 0.86242 0.57455 0.0
H9141 H 0.85796 0.87541 0.53435 0.0
H9142 H 0.85276 0.88177 0.56142 0.0
H9143 H 0.83991 0.86367 0.54659 0.0
C9144 C 0.83671 0.85801 0.55704 0.0
C9145 C 0.83791 0.85748 0.56496 0.0
C9146 C 0.85387 0.88043 0.55545 0.0
C9147 C 0.84593 0.86841 0.55643 0.0
C9148 C 0.85842 0.88539 0.55109 0.0
C9149 C 0.85988 0.88372 0.54337 0.0
C9150 C 0.85069 0.87386 0.55201 0.0
C9151 C 0.85679 0.87698 0.54023 0.0
C9152 C 0.84076 0.86343 0.55274 0.0
C9153 C 0.843 0.86266 0.56844 0.0
N9154 N 0.85228 0.87234 0.54453 0.0
N9155 N 0.84682 0.86791 0.56416 0.0
H9156 H 0.88316 0.11063 0.33397 0.0
H9157 H 0.84852 0.11074 0.3047 0.0
H9158 H 0.8686 0.09064 0.33201 0.0
H9159 H 0.87053 0.1207 0.29948 0.0
H9160 H 0.85409 0.10493 0.3163 0.0
H9161 H 0.87647 0.11637 0.32326 0.0
C9162 C 0.8785 0.10743 0.33141 0.0
C9163 C 0.87648 0.10007 0.33405 0.0
C9164 C 0.85765 0.10845 0.31262 0.0
C9165 C 0.86894 0.10667 0.32144 0.0
C9166 C 0.8545 0.11175 0.30602 0.0
C9167 C 0.85905 0.11628 0.30115 0.0
C9168 C 0.86533 0.10991 0.31448 0.0
C9169 C 0.86674 0.11747 0.30316 0.0
C9170 C 0.87475 0.11072 0.32519 0.0
C9171 C 0.87049 0.09625 0.33019 0.0
N9172 N 0.86961 0.11438 0.30971 0.0
N9173 N 0.86693 0.09959 0.32407 0.0
H9174 H 0.66342 0.14688 0.07392 0.0
H9175 H 0.6502 0.13204 0.03331 0.0
H9176 H 0.67559 0.15344 0.05341 0.0
H9177 H 0.6493 0.11734 0.05312 0.0
H9178 H 0.65784 0.14126 0.04066 0.0
H9179 H 0.6563 0.13732 0.06649 0.0
C9180 C 0.66457 0.14632 0.06784 0.0
C9181 C 0.67006 0.15098 0.06425 0.0
C9182 C 0.65591 0.13603 0.0434 0.0
C9183 C 0.66193 0.14011 0.05576 0.0
C9184 C 0.65158 0.13078 0.03923 0.0
C9185 C 0.6491 0.12392 0.04263 0.0
C9186 C 0.65753 0.13456 0.05112 0.0
C9187 C 0.65089 0.12263 0.05035 0.0
C9188 C 0.66055 0.14084 0.06363 0.0
C9189 C 0.67141 0.14995 0.05639 0.0
N9190 N 0.65495 0.12794 0.05437 0.0
N9191 N 0.66731 0.14467 0.05237 0.0
H9192 H 0.62335 0.0972 0.68259 0.0
H9193 H 0.6581 0.12195 0.6993 0.0
H9194 H 0.6444 0.09993 0.66997 0.0
H9195 H 0.64055 0.11177 0.71329 0.0
H9196 H 0.65286 0.11514 0.68801 0.0
H9197 H 0.62915 0.10377 0.69352 0.0
C9198 C 0.62926 0.09909 0.6822 0.0
C9199 C 0.63347 0.09792 0.67548 0.0
C9200 C 0.65012 0.11446 0.69354 0.0
C9201 C 0.64012 0.10559 0.68787 0.0
C9202 C 0.65305 0.11839 0.69991 0.0
C9203 C 0.64955 0.11755 0.70709 0.0
C9204 C 0.64363 0.10975 0.69442 0.0
C9205 C 0.64323 0.11267 0.70776 0.0
C9206 C 0.63256 0.10286 0.68841 0.0
C9207 C 0.64104 0.10064 0.67514 0.0
N9208 N 0.64042 0.10902 0.7015 0.0
N9209 N 0.64414 0.10439 0.68126 0.0
H9210 H 0.65966 0.85603 0.43798 0.0
H9211 H 0.65949 0.89038 0.46771 0.0
H9212 H 0.67945 0.86043 0.45221 0.0
H9213 H 0.63957 0.87639 0.46351 0.0
H9214 H 0.66722 0.8813 0.46017 0.0
H9215 H 0.65246 0.86546 0.44531 0.0
C9216 C 0.6625 0.8589 0.44269 0.0
C9217 C 0.67019 0.85729 0.44453 0.0
C9218 C 0.66113 0.88032 0.46083 0.0
C9219 C 0.66195 0.86836 0.45279 0.0
C9220 C 0.65672 0.88547 0.46511 0.0
C9221 C 0.64883 0.88422 0.46616 0.0
C9222 C 0.65756 0.874 0.45737 0.0
C9223 C 0.64552 0.8778 0.46262 0.0
C9224 C 0.65838 0.86434 0.44683 0.0
C9225 C 0.67357 0.86148 0.45054 0.0
N9226 N 0.64988 0.87297 0.45834 0.0
N9227 N 0.66944 0.86684 0.45445 0.0
H9228 H 0.86784 0.90278 0.16826 0.0
H9229 H 0.8684 0.8959 0.21362 0.0
H9230 H 0.88124 0.91638 0.18398 0.0
H9231 H 0.85111 0.88624 0.19897 0.0
H9232 H 0.87383 0.90274 0.20257 0.0
H9233 H 0.86205 0.89611 0.17918 0.0
C9234 C 0.86952 0.9044 0.17401 0.0
C9235 C 0.87504 0.91016 0.17521 0.0
C9236 C 0.86889 0.89908 0.20173 0.0
C9237 C 0.8685 0.90247 0.18772 0.0
C9238 C 0.86587 0.89514 0.208 0.0
C9239 C 0.85945 0.89043 0.20708 0.0
C9240 C 0.86545 0.89828 0.19448 0.0
C9241 C 0.85618 0.88972 0.19979 0.0
C9242 C 0.86621 0.90059 0.18024 0.0
C9243 C 0.87696 0.91205 0.18278 0.0
N9244 N 0.85923 0.89359 0.19374 0.0
N9245 N 0.87375 0.90817 0.18874 0.0
H9246 H 0.84621 0.15976 0.94993 0.0
H9247 H 0.85418 0.11563 0.9593 0.0
H9248 H 0.83135 0.1418 0.94161 0.0
H9249 H 0.86448 0.13444 0.97143 0.0
H9250 H 0.84606 0.12483 0.95221 0.0
H9251 H 0.8533 0.15034 0.95732 0.0
C9252 C 0.8444 0.15383 0.94968 0.0
C9253 C 0.83822 0.15158 0.94503 0.0
C9254 C 0.85015 0.12694 0.95637 0.0
C9255 C 0.84634 0.14068 0.95362 0.0
C9256 C 0.85481 0.12172 0.96032 0.0
C9257 C 0.86013 0.12438 0.96571 0.0
C9258 C 0.85091 0.13484 0.95782 0.0
C9259 C 0.86058 0.13225 0.96713 0.0
C9260 C 0.84845 0.14844 0.95394 0.0
C9261 C 0.83607 0.14381 0.94511 0.0
N9262 N 0.8561 0.13721 0.96316 0.0
N9263 N 0.84017 0.13862 0.94928 0.0
H9264 H 0.82605 0.63019 0.9186 0.0
H9265 H 0.80932 0.65345 0.88261 0.0
H9266 H 0.84001 0.63688 0.89927 0.0
H9267 H 0.79554 0.64376 0.90064 0.0
H9268 H 0.8209 0.64836 0.88893 0.0
H9269 H 0.81512 0.63658 0.91271 0.0
C9270 C 0.82687 0.63308 0.91317 0.0
C9271 C 0.83398 0.63289 0.90941 0.0
C9272 C 0.81534 0.64736 0.89151 0.0
C9273 C 0.82136 0.64007 0.9025 0.0
C9274 C 0.80877 0.65022 0.88788 0.0
C9275 C 0.80154 0.64904 0.89117 0.0
C9276 C 0.81461 0.64332 0.89846 0.0
C9277 C 0.80105 0.64487 0.89801 0.0
C9278 C 0.82058 0.63666 0.90976 0.0
C9279 C 0.83461 0.6367 0.90232 0.0
N9280 N 0.80749 0.64218 0.90144 0.0
N9281 N 0.82838 0.64008 0.89907 0.0
H9282 H 0.33731 0.86458 0.09622 0.0
H9283 H 0.29666 0.87024 0.11666 0.0
H9284 H 0.3283 0.88645 0.10332 0.0
H9285 H 0.30841 0.84859 0.11729 0.0
H9286 H 0.30783 0.87604 0.11052 0.0
H9287 H 0.32629 0.85823 0.10247 0.0
C9288 C 0.33297 0.86803 0.09902 0.0
C9289 C 0.33368 0.87604 0.09926 0.0
C9290 C 0.30803 0.87003 0.11205 0.0
C9291 C 0.32117 0.8689 0.10637 0.0
C9292 C 0.30169 0.86677 0.11564 0.0
C9293 C 0.30172 0.85901 0.11763 0.0
C9294 C 0.31442 0.86546 0.11027 0.0
C9295 C 0.30823 0.85462 0.11587 0.0
C9296 C 0.32674 0.86442 0.10263 0.0
C9297 C 0.32797 0.88026 0.10302 0.0
N9298 N 0.31434 0.8579 0.11224 0.0
N9299 N 0.32197 0.87665 0.10639 0.0
H9300 H 0.86243 0.57492 0.84425 0.0
H9301 H 0.87605 0.53377 0.85728 0.0
H9302 H 0.85482 0.55434 0.83289 0.0
H9303 H 0.89028 0.55363 0.86084 0.0
H9304 H 0.86754 0.54135 0.84921 0.0
H9305 H 0.87207 0.56743 0.85118 0.0
C9306 C 0.86287 0.56882 0.84317 0.0
C9307 C 0.85786 0.56522 0.838 0.0
C9308 C 0.87254 0.54406 0.8517 0.0
C9309 C 0.86875 0.55663 0.84599 0.0
C9310 C 0.87742 0.53973 0.85628 0.0
C9311 C 0.88398 0.54304 0.85956 0.0
C9312 C 0.87406 0.55186 0.85059 0.0
C9313 C 0.8853 0.55088 0.85838 0.0
C9314 C 0.86836 0.56457 0.84711 0.0
C9315 C 0.85862 0.55732 0.83679 0.0
N9316 N 0.88034 0.55505 0.85401 0.0
N9317 N 0.86391 0.55326 0.84084 0.0
H9318 H 0.16954 0.14322 0.59997 0.0
H9319 H 0.21281 0.1382 0.61482 0.0
H9320 H 0.18242 0.12224 0.59845 0.0
H9321 H 0.19958 0.15846 0.61937 0.0
H9322 H 0.20177 0.13252 0.6083 0.0
H9323 H 0.18057 0.14936 0.60634 0.0
C9324 C 0.17475 0.13997 0.60087 0.0
C9325 C 0.17518 0.13227 0.59861 0.0
C9326 C 0.2012 0.13818 0.61079 0.0
C9327 C 0.18767 0.13913 0.60598 0.0
C9328 C 0.20748 0.14135 0.61458 0.0
C9329 C 0.20696 0.14865 0.61781 0.0
C9330 C 0.19438 0.14241 0.6101 0.0
C9331 C 0.20007 0.15272 0.61707 0.0
C9332 C 0.181 0.14344 0.60455 0.0
C9333 C 0.18195 0.12822 0.60003 0.0
N9334 N 0.19402 0.14955 0.61327 0.0
N9335 N 0.18791 0.13169 0.60362 0.0
H9336 H 0.15125 0.9529 0.83034 0.0
H9337 H 0.11968 0.95367 0.86325 0.0
H9338 H 0.15015 0.93546 0.84782 0.0
H9339 H 0.13032 0.9744 0.85499 0.0
H9340 H 0.12906 0.94621 0.85598 0.0
H9341 H 0.14141 0.96023 0.83736 0.0
C9342 C 0.1489 0.9506 0.83561 0.0
C9343 C 0.15155 0.9436 0.83854 0.0
C9344 C 0.12926 0.95241 0.85573 0.0
C9345 C 0.14031 0.95185 0.84649 0.0
C9346 C 0.12397 0.95669 0.85999 0.0
C9347 C 0.12417 0.96472 0.85981 0.0
C9348 C 0.13459 0.95619 0.85102 0.0
C9349 C 0.12975 0.96824 0.85515 0.0
C9350 C 0.14334 0.95479 0.83962 0.0
C9351 C 0.14833 0.94088 0.84541 0.0
N9352 N 0.13467 0.96397 0.85088 0.0
N9353 N 0.14287 0.94499 0.84913 0.0
H9354 H 0.6811 0.37452 0.41922 0.0
H9355 H 0.69965 0.35605 0.38138 0.0
H9356 H 0.66955 0.37459 0.39731 0.0
H9357 H 0.71244 0.36245 0.4015 0.0
H9358 H 0.68794 0.36118 0.38743 0.0
H9359 H 0.69186 0.36782 0.4133 0.0
C9360 C 0.68076 0.37306 0.41319 0.0
C9361 C 0.67441 0.37526 0.40876 0.0
C9362 C 0.69331 0.3614 0.39053 0.0
C9363 C 0.68685 0.36771 0.40189 0.0
C9364 C 0.69997 0.35852 0.38707 0.0
C9365 C 0.70698 0.35876 0.391 0.0
C9366 C 0.69369 0.36443 0.398 0.0
C9367 C 0.70712 0.36199 0.39836 0.0
C9368 C 0.68696 0.3693 0.40979 0.0
C9369 C 0.67439 0.37322 0.40094 0.0
N9370 N 0.70058 0.36464 0.40164 0.0
N9371 N 0.68053 0.36962 0.39775 0.0
H9372 H 0.85631 0.45438 0.67731 0.0
H9373 H 0.88995 0.45507 0.64674 0.0
H9374 H 0.85991 0.43536 0.6619 0.0
H9375 H 0.87642 0.47518 0.6515 0.0
H9376 H 0.8807 0.44736 0.65405 0.0
H9377 H 0.86575 0.46184 0.66998 0.0
C9378 C 0.85911 0.45177 0.67242 0.0
C9379 C 0.85728 0.44426 0.67018 0.0
C9380 C 0.87981 0.45348 0.65351 0.0
C9381 C 0.86809 0.45271 0.66186 0.0
C9382 C 0.88503 0.45785 0.64926 0.0
C9383 C 0.88398 0.46579 0.64851 0.0
C9384 C 0.87365 0.45711 0.65721 0.0
C9385 C 0.87757 0.46912 0.6521 0.0
C9386 C 0.86445 0.45603 0.66822 0.0
C9387 C 0.86107 0.44116 0.66377 0.0
N9388 N 0.87272 0.46479 0.65638 0.0
N9389 N 0.86632 0.44538 0.65985 0.0
H9390 H 0.64871 0.57378 0.16158 0.0
H9391 H 0.63057 0.53342 0.15387 0.0
H9392 H 0.65121 0.55543 0.17794 0.0
H9393 H 0.6186 0.55391 0.14702 0.0
H9394 H 0.63917 0.54114 0.1617 0.0
H9395 H 0.63878 0.56638 0.15496 0.0
C9396 C 0.64714 0.56819 0.16379 0.0
C9397 C 0.6508 0.56519 0.17031 0.0
C9398 C 0.63463 0.54394 0.15854 0.0
C9399 C 0.63949 0.55672 0.16274 0.0
C9400 C 0.62966 0.53954 0.15412 0.0
C9401 C 0.62373 0.543 0.14991 0.0
C9402 C 0.6339 0.55192 0.15852 0.0
C9403 C 0.6231 0.55101 0.15015 0.0
C9404 C 0.64145 0.56402 0.16004 0.0
C9405 C 0.64851 0.55796 0.17296 0.0
N9406 N 0.6282 0.55523 0.15431 0.0
N9407 N 0.64306 0.55391 0.1691 0.0
H9408 H 0.58925 0.68025 0.87622 0.0
H9409 H 0.62084 0.69963 0.84986 0.0
H9410 H 0.6096 0.66778 0.86967 0.0
H9411 H 0.6103 0.71197 0.86841 0.0
H9412 H 0.6148 0.68772 0.85449 0.0
H9413 H 0.59473 0.69183 0.87041 0.0
C9414 C 0.5948 0.6799 0.87347 0.0
C9415 C 0.59899 0.67303 0.87353 0.0
C9416 C 0.61385 0.69303 0.85756 0.0
C9417 C 0.60527 0.68626 0.86692 0.0
C9418 C 0.61732 0.69976 0.85497 0.0
C9419 C 0.61635 0.70663 0.85903 0.0
C9420 C 0.609 0.69329 0.86398 0.0
C9421 C 0.61141 0.70668 0.86536 0.0
C9422 C 0.59795 0.68653 0.87023 0.0
C9423 C 0.60621 0.67297 0.86989 0.0
N9424 N 0.60788 0.7001 0.86764 0.0
N9425 N 0.60912 0.67948 0.86675 0.0
H9426 H 0.57322 0.33562 0.13963 0.0
H9427 H 0.53636 0.36247 0.13377 0.0
H9428 H 0.55734 0.34162 0.15762 0.0
H9429 H 0.5519 0.3569 0.11545 0.0
H9430 H 0.54406 0.35471 0.14256 0.0
H9431 H 0.56543 0.34297 0.13052 0.0
C9432 C 0.56804 0.33838 0.14164 0.0
C9433 C 0.56595 0.33804 0.14942 0.0
C9434 C 0.54588 0.35524 0.13664 0.0
C9435 C 0.5571 0.34655 0.13907 0.0
C9436 C 0.54151 0.35971 0.13167 0.0
C9437 C 0.54357 0.36034 0.12395 0.0
C9438 C 0.55243 0.35145 0.13389 0.0
C9439 C 0.55022 0.35662 0.12141 0.0
C9440 C 0.56363 0.34263 0.13646 0.0
C9441 C 0.55922 0.34181 0.15171 0.0
N9442 N 0.55443 0.35232 0.12637 0.0
N9443 N 0.55507 0.34592 0.14658 0.0
H9444 H 0.9042 0.33096 0.38537 0.0
H9445 H 0.8914 0.30816 0.34821 0.0
H9446 H 0.91314 0.33745 0.36325 0.0
H9447 H 0.89429 0.29745 0.37019 0.0
H9448 H 0.8976 0.31987 0.35326 0.0
H9449 H 0.89853 0.31956 0.37963 0.0
C9450 C 0.90498 0.32995 0.37929 0.0
C9451 C 0.90914 0.33514 0.37477 0.0
C9452 C 0.89677 0.31498 0.35699 0.0
C9453 C 0.9026 0.3221 0.36815 0.0
C9454 C 0.89319 0.30838 0.35414 0.0
C9455 C 0.89203 0.30205 0.35894 0.0
C9456 C 0.89911 0.31519 0.36469 0.0
C9457 C 0.89468 0.30239 0.36649 0.0
C9458 C 0.90176 0.32344 0.37603 0.0
C9459 C 0.91001 0.33355 0.36692 0.0
N9460 N 0.89802 0.30889 0.36917 0.0
N9461 N 0.90669 0.32718 0.36382 0.0
H9462 H 0.93533 0.67358 0.6393 0.0
H9463 H 0.97148 0.64609 0.63277 0.0
H9464 H 0.95064 0.66615 0.65725 0.0
H9465 H 0.95461 0.65006 0.61526 0.0
H9466 H 0.96425 0.65424 0.64156 0.0
H9467 H 0.94285 0.66613 0.63003 0.0
C9468 C 0.94032 0.67048 0.64128 0.0
C9469 C 0.94231 0.67044 0.64909 0.0
C9470 C 0.96205 0.65332 0.63583 0.0
C9471 C 0.95083 0.66181 0.63855 0.0
C9472 C 0.96616 0.64865 0.63085 0.0
C9473 C 0.96355 0.64742 0.62337 0.0
C9474 C 0.95526 0.65682 0.63329 0.0
C9475 C 0.9567 0.65086 0.62104 0.0
C9476 C 0.94455 0.66616 0.636 0.0
C9477 C 0.9488 0.66625 0.65132 0.0
N9478 N 0.95277 0.65546 0.626 0.0
N9479 N 0.95279 0.66209 0.6461 0.0
H9480 H 0.59474 0.33712 0.64512 0.0
H9481 H 0.61935 0.29901 0.63805 0.0
H9482 H 0.60596 0.33139 0.62384 0.0
H9483 H 0.61329 0.30657 0.66076 0.0
H9484 H 0.61385 0.3107 0.63279 0.0
H9485 H 0.60055 0.32567 0.65103 0.0
C9486 C 0.59838 0.33344 0.6417 0.0
C9487 C 0.59991 0.33524 0.63399 0.0
C9488 C 0.61375 0.30986 0.63894 0.0
C9489 C 0.60654 0.3222 0.64066 0.0
C9490 C 0.617 0.30322 0.64194 0.0
C9491 C 0.61691 0.30189 0.64985 0.0
C9492 C 0.61021 0.31519 0.64385 0.0
C9493 C 0.61344 0.30739 0.65461 0.0
C9494 C 0.60173 0.32695 0.64507 0.0
C9495 C 0.6047 0.3303 0.62982 0.0
N9496 N 0.61019 0.3138 0.65154 0.0
N9497 N 0.60782 0.32404 0.63319 0.0
H9498 H 0.94143 0.3303 0.86802 0.0
H9499 H 0.9649 0.36888 0.87643 0.0
H9500 H 0.94617 0.34784 0.8512 0.0
H9501 H 0.96404 0.35026 0.89255 0.0
H9502 H 0.95721 0.36137 0.86746 0.0
H9503 H 0.94945 0.33729 0.87724 0.0
C9504 C 0.94418 0.33556 0.86622 0.0
C9505 C 0.94295 0.33853 0.85883 0.0
C9506 C 0.95864 0.35891 0.87297 0.0
C9507 C 0.95197 0.34665 0.86943 0.0
C9508 C 0.96292 0.36326 0.87813 0.0
C9509 C 0.96492 0.36023 0.88527 0.0
C9510 C 0.95639 0.35143 0.87494 0.0
C9511 C 0.96251 0.35279 0.8871 0.0
C9512 C 0.94871 0.33958 0.87152 0.0
C9513 C 0.94669 0.34541 0.85688 0.0
N9514 N 0.95836 0.34861 0.88197 0.0
N9515 N 0.95093 0.34924 0.86215 0.0
H9516 H 0.91267 0.67116 0.14555 0.0
H9517 H 0.88921 0.71002 0.13807 0.0
H9518 H 0.9044 0.6784 0.1234 0.0
H9519 H 0.89472 0.70193 0.1607 0.0
H9520 H 0.89492 0.69839 0.13263 0.0
H9521 H 0.9065 0.68244 0.15133 0.0
C9522 C 0.90959 0.67512 0.1419 0.0
C9523 C 0.90902 0.6738 0.13398 0.0
C9524 C 0.89486 0.69911 0.1388 0.0
C9525 C 0.90194 0.68667 0.14053 0.0
C9526 C 0.89156 0.70573 0.14187 0.0
C9527 C 0.89148 0.70685 0.14981 0.0
C9528 C 0.89816 0.69363 0.1437 0.0
C9529 C 0.8947 0.70121 0.15454 0.0
C9530 C 0.90603 0.68153 0.14521 0.0
C9531 C 0.9049 0.6791 0.12954 0.0
N9532 N 0.89794 0.69484 0.15142 0.0
N9533 N 0.90154 0.68528 0.13287 0.0
H9534 H 0.55599 0.67015 0.35216 0.0
H9535 H 0.55281 0.64829 0.39255 0.0
H9536 H 0.5746 0.66925 0.36835 0.0
H9537 H 0.53492 0.64886 0.37557 0.0
H9538 H 0.56092 0.65613 0.38405 0.0
H9539 H 0.54796 0.66295 0.36113 0.0
C9540 C 0.55833 0.66851 0.35767 0.0
C9541 C 0.5659 0.67034 0.35959 0.0
C9542 C 0.55521 0.65457 0.3822 0.0
C9543 C 0.55687 0.6619 0.3698 0.0
C9544 C 0.55062 0.65007 0.38703 0.0
C9545 C 0.54317 0.64807 0.38478 0.0
C9546 C 0.55229 0.65705 0.37511 0.0
C9547 C 0.54057 0.65046 0.37757 0.0
C9548 C 0.55378 0.66436 0.36277 0.0
C9549 C 0.56873 0.66802 0.36674 0.0
N9550 N 0.54509 0.65485 0.37302 0.0
N9551 N 0.56423 0.66386 0.37158 0.0
H9552 H 0.87745 0.59015 0.68093 0.0
H9553 H 0.85233 0.62383 0.69961 0.0
H9554 H 0.86817 0.60872 0.66747 0.0
H9555 H 0.86635 0.60817 0.71247 0.0
H9556 H 0.85695 0.61789 0.6876 0.0
H9557 H 0.87187 0.59587 0.69239 0.0
C9558 C 0.87415 0.59537 0.68034 0.0
C9559 C 0.87334 0.59895 0.67318 0.0
C9560 C 0.85902 0.61576 0.69305 0.0
C9561 C 0.86707 0.60567 0.6864 0.0
C9562 C 0.85641 0.61916 0.69986 0.0
C9563 C 0.85894 0.61639 0.70696 0.0
C9564 C 0.86417 0.60956 0.69342 0.0
C9565 C 0.86423 0.61037 0.70707 0.0
C9566 C 0.87104 0.59869 0.68693 0.0
C9567 C 0.86907 0.6058 0.67287 0.0
N9568 N 0.86664 0.60712 0.70041 0.0
N9569 N 0.86613 0.60895 0.67938 0.0
H9570 H 0.67699 0.6509 0.95184 0.0
H9571 H 0.64659 0.61705 0.95375 0.0
H9572 H 0.66159 0.64637 0.93305 0.0
H9573 H 0.65109 0.6315 0.9733 0.0
H9574 H 0.6541 0.62587 0.94575 0.0
H9575 H 0.66987 0.64152 0.95967 0.0
C9576 C 0.67218 0.64786 0.94935 0.0
C9577 C 0.66984 0.64939 0.94182 0.0
C9578 C 0.65347 0.62704 0.95181 0.0
C9579 C 0.66179 0.63871 0.95062 0.0
C9580 C 0.64912 0.62207 0.95635 0.0
C9581 C 0.64825 0.62351 0.96421 0.0
C9582 C 0.65715 0.63334 0.95522 0.0
C9583 C 0.65181 0.63004 0.96732 0.0
C9584 C 0.66811 0.64257 0.95381 0.0
C9585 C 0.66354 0.64535 0.93885 0.0
N9586 N 0.65619 0.63466 0.96284 0.0
N9587 N 0.65974 0.64017 0.94325 0.0
H9588 H 0.63972 0.39913 0.16751 0.0
H9589 H 0.64259 0.40053 0.21325 0.0
H9590 H 0.63185 0.41815 0.18126 0.0
H9591 H 0.65515 0.38417 0.19973 0.0
H9592 H 0.63792 0.40654 0.20146 0.0
H9593 H 0.64489 0.39313 0.17908 0.0
C9594 C 0.6391 0.40208 0.17294 0.0
C9595 C 0.63528 0.40917 0.17338 0.0
C9596 C 0.6417 0.40165 0.20103 0.0
C9597 C 0.64123 0.4023 0.18666 0.0
C9598 C 0.64435 0.39823 0.20775 0.0
C9599 C 0.64938 0.392 0.20741 0.0
C9600 C 0.64395 0.39868 0.19389 0.0
C9601 C 0.65134 0.38904 0.20019 0.0
C9602 C 0.64209 0.39864 0.17954 0.0
C9603 C 0.63479 0.41274 0.18058 0.0
N9604 N 0.64863 0.39242 0.19369 0.0
N9605 N 0.63768 0.40924 0.18692 0.0
H9606 H 0.84732 0.35015 0.44744 0.0
H9607 H 0.8513 0.39313 0.46286 0.0
H9608 H 0.83202 0.36818 0.44016 0.0
H9609 H 0.86882 0.37595 0.46514 0.0
H9610 H 0.84351 0.38405 0.45535 0.0
H9611 H 0.85446 0.3594 0.45501 0.0
C9612 C 0.84544 0.35606 0.44741 0.0
C9613 C 0.83913 0.35838 0.44297 0.0
C9614 C 0.84908 0.38228 0.45743 0.0
C9615 C 0.84728 0.36906 0.45183 0.0
C9616 C 0.85351 0.38745 0.46168 0.0
C9617 C 0.86068 0.38524 0.46454 0.0
C9618 C 0.85186 0.37484 0.45611 0.0
C9619 C 0.86335 0.37786 0.46293 0.0
C9620 C 0.84953 0.36135 0.45177 0.0
C9621 C 0.83684 0.3661 0.44346 0.0
N9622 N 0.85892 0.37291 0.45885 0.0
N9623 N 0.84094 0.37117 0.44777 0.0
H9624 H 0.86637 0.40171 0.84181 0.0
H9625 H 0.86777 0.39695 0.79623 0.0
H9626 H 0.87913 0.41682 0.82696 0.0
H9627 H 0.85026 0.38651 0.81008 0.0
H9628 H 0.87276 0.40352 0.80766 0.0
H9629 H 0.86095 0.39539 0.83049 0.0
C9630 C 0.86799 0.40373 0.83616 0.0
C9631 C 0.87321 0.40982 0.83533 0.0
C9632 C 0.86787 0.39973 0.80823 0.0
C9633 C 0.86711 0.40253 0.82236 0.0
C9634 C 0.8651 0.39596 0.80174 0.0
C9635 C 0.85876 0.39109 0.80233 0.0
C9636 C 0.86429 0.39858 0.81536 0.0
C9637 C 0.8553 0.39009 0.80951 0.0
C9638 C 0.86489 0.40013 0.82971 0.0
C9639 C 0.87507 0.41222 0.82788 0.0
N9640 N 0.85814 0.39377 0.81578 0.0
N9641 N 0.87208 0.40853 0.82169 0.0
H9642 H 0.83117 0.63976 0.06822 0.0
H9643 H 0.86493 0.63378 0.03763 0.0
H9644 H 0.84654 0.65762 0.06066 0.0
H9645 H 0.85429 0.61482 0.04921 0.0
H9646 H 0.85703 0.64268 0.04505 0.0
H9647 H 0.8381 0.63062 0.06002 0.0
C9648 C 0.83593 0.64179 0.06479 0.0
C9649 C 0.83834 0.64947 0.06525 0.0
C9650 C 0.85642 0.63658 0.04604 0.0
C9651 C 0.84634 0.63903 0.05597 0.0
C9652 C 0.86096 0.63154 0.04185 0.0
C9653 C 0.86041 0.62365 0.04307 0.0
C9654 C 0.85109 0.63369 0.05135 0.0
C9655 C 0.85501 0.62092 0.04835 0.0
C9656 C 0.83993 0.63655 0.06018 0.0
C9657 C 0.84457 0.65174 0.06067 0.0
N9658 N 0.85052 0.62595 0.05232 0.0
N9659 N 0.84836 0.64656 0.05629 0.0
H9660 H 0.64086 0.60745 0.34119 0.0
H9661 H 0.63959 0.61108 0.29585 0.0
H9662 H 0.63047 0.59014 0.32689 0.0
H9663 H 0.65854 0.62009 0.30879 0.0
H9664 H 0.63484 0.60467 0.3075 0.0
H9665 H 0.64622 0.6135 0.32969 0.0
C9666 C 0.63974 0.60489 0.33565 0.0
C9667 C 0.63518 0.59826 0.33502 0.0
C9668 C 0.64 0.60811 0.30781 0.0
C9669 C 0.64125 0.60521 0.32185 0.0
C9670 C 0.64264 0.6118 0.30121 0.0
C9671 C 0.64931 0.61624 0.30149 0.0
C9672 C 0.644 0.60899 0.31474 0.0
C9673 C 0.65325 0.61686 0.30846 0.0
C9674 C 0.64284 0.60833 0.3291 0.0
C9675 C 0.634 0.59518 0.32768 0.0
N9676 N 0.65049 0.61335 0.31486 0.0
N9677 N 0.63694 0.59872 0.32138 0.0
H9678 H 0.67613 0.36873 0.5699 0.0
H9679 H 0.64209 0.37494 0.53961 0.0
H9680 H 0.66319 0.35046 0.55933 0.0
H9681 H 0.65472 0.39369 0.5494 0.0
H9682 H 0.64998 0.36591 0.54687 0.0
H9683 H 0.669 0.378 0.56211 0.0
C9684 C 0.67187 0.36664 0.5659 0.0
C9685 C 0.67018 0.35877 0.56541 0.0
C9686 C 0.65102 0.37199 0.54752 0.0
C9687 C 0.66188 0.36939 0.55661 0.0
C9688 C 0.64645 0.37711 0.54344 0.0
C9689 C 0.64767 0.385 0.54412 0.0
C9690 C 0.65693 0.37478 0.55225 0.0
C9691 C 0.65355 0.38762 0.54891 0.0
C9692 C 0.66775 0.37196 0.56151 0.0
C9693 C 0.66456 0.35646 0.56011 0.0
N9694 N 0.65799 0.38251 0.55282 0.0
N9695 N 0.66059 0.36172 0.556 0.0
H9696 H 0.68147 0.88069 0.59247 0.0
H9697 H 0.69988 0.85014 0.62145 0.0
H9698 H 0.66768 0.86566 0.60642 0.0
H9699 H 0.7125 0.86855 0.61103 0.0
H9700 H 0.68804 0.85497 0.61542 0.0
H9701 H 0.69302 0.8754 0.59839 0.0
C9702 C 0.6809 0.87617 0.59669 0.0
C9703 C 0.67363 0.87357 0.59893 0.0
C9704 C 0.69338 0.85799 0.61448 0.0
C9705 C 0.68681 0.86753 0.60581 0.0
C9706 C 0.70009 0.85525 0.61794 0.0
C9707 C 0.70707 0.859 0.61668 0.0
C9708 C 0.69374 0.86449 0.60974 0.0
C9709 C 0.70717 0.86555 0.61208 0.0
C9710 C 0.68748 0.8732 0.60013 0.0
C9711 C 0.67319 0.86781 0.60454 0.0
N9712 N 0.70061 0.86808 0.60874 0.0
N9713 N 0.6797 0.86496 0.60778 0.0
H9714 H 0.17966 0.63444 0.41908 0.0
H9715 H 0.19977 0.65354 0.3824 0.0
H9716 H 0.16827 0.63657 0.39721 0.0
H9717 H 0.21198 0.6454 0.40223 0.0
H9718 H 0.18773 0.64878 0.38807 0.0
H9719 H 0.19102 0.64047 0.41355 0.0
C9720 C 0.17949 0.63625 0.41315 0.0
C9721 C 0.17299 0.63488 0.40861 0.0
C9722 C 0.19305 0.64808 0.39119 0.0
C9723 C 0.1861 0.64166 0.40217 0.0
C9724 C 0.1999 0.65076 0.38794 0.0
C9725 C 0.20684 0.64992 0.39191 0.0
C9726 C 0.19317 0.64465 0.39849 0.0
C9727 C 0.20672 0.6463 0.39908 0.0
C9728 C 0.18603 0.63962 0.40997 0.0
C9729 C 0.17319 0.63732 0.40091 0.0
N9730 N 0.20001 0.64385 0.40216 0.0
N9731 N 0.17964 0.64054 0.39793 0.0
H9732 H 0.6533 0.95215 0.67512 0.0
H9733 H 0.61627 0.95466 0.64844 0.0
H9734 H 0.64353 0.93184 0.66503 0.0
H9735 H 0.63437 0.97142 0.64773 0.0
H9736 H 0.62433 0.94662 0.65689 0.0
H9737 H 0.64418 0.95999 0.66772 0.0
C9738 C 0.64912 0.94936 0.67147 0.0
C9739 C 0.64909 0.94138 0.67068 0.0
C9740 C 0.62652 0.95204 0.65483 0.0
C9741 C 0.63876 0.95021 0.66225 0.0
C9742 C 0.62197 0.95655 0.64999 0.0
C9743 C 0.62478 0.96357 0.6473 0.0
C9744 C 0.63375 0.95475 0.65716 0.0
C9745 C 0.63212 0.96595 0.64961 0.0
C9746 C 0.64399 0.95381 0.66722 0.0
C9747 C 0.64366 0.938 0.6658 0.0
N9748 N 0.63632 0.96159 0.65446 0.0
N9749 N 0.63869 0.94243 0.66176 0.0
H9750 H 0.32921 0.38486 0.90663 0.0
H9751 H 0.30887 0.34891 0.8881 0.0
H9752 H 0.33849 0.36237 0.91085 0.0
H9753 H 0.29621 0.36796 0.89725 0.0
H9754 H 0.32059 0.35385 0.89444 0.0
H9755 H 0.3178 0.37901 0.90103 0.0
C9756 C 0.32881 0.37867 0.90642 0.0
C9757 C 0.33476 0.37409 0.90924 0.0
C9758 C 0.31525 0.35695 0.895 0.0
C9759 C 0.32177 0.36734 0.90271 0.0
C9760 C 0.30863 0.3542 0.89134 0.0
C9761 C 0.30171 0.35823 0.89199 0.0
C9762 C 0.31488 0.36383 0.89919 0.0
C9763 C 0.30153 0.36487 0.89647 0.0
C9764 C 0.3223 0.37534 0.90323 0.0
C9765 C 0.33397 0.36609 0.90879 0.0
N9766 N 0.30803 0.36754 0.89979 0.0
N9767 N 0.3276 0.36294 0.9055 0.0
H9768 H 0.36471 0.56197 0.67955 0.0
H9769 H 0.37402 0.54111 0.64089 0.0
H9770 H 0.35429 0.56915 0.65826 0.0
H9771 H 0.39296 0.54809 0.65502 0.0
H9772 H 0.36539 0.549 0.64869 0.0
H9773 H 0.37412 0.5545 0.67211 0.0
C9774 C 0.36439 0.56201 0.67336 0.0
C9775 C 0.35859 0.56613 0.66956 0.0
C9776 C 0.37145 0.54889 0.65002 0.0
C9777 C 0.3692 0.55754 0.66112 0.0
C9778 C 0.37636 0.54454 0.64549 0.0
C9779 C 0.38422 0.54441 0.64707 0.0
C9780 C 0.37438 0.55284 0.65638 0.0
C9781 C 0.38695 0.54838 0.6535 0.0
C9782 C 0.36975 0.55775 0.66914 0.0
C9783 C 0.35845 0.5659 0.6615 0.0
N9784 N 0.38202 0.55245 0.65799 0.0
N9785 N 0.36361 0.56162 0.65757 0.0
H9786 H 0.84176 0.1395 0.10931 0.0
H9787 H 0.796 0.14138 0.10834 0.0
H9788 H 0.82798 0.13043 0.09085 0.0
H9789 H 0.80945 0.1547 0.12415 0.0
H9790 H 0.8078 0.13672 0.10233 0.0
H9791 H 0.83017 0.14476 0.11518 0.0
C9792 C 0.83631 0.13865 0.10646 0.0
C9793 C 0.83586 0.13444 0.09958 0.0
C9794 C 0.80821 0.14065 0.10712 0.0
C9795 C 0.82257 0.14048 0.1063 0.0
C9796 C 0.80149 0.14327 0.11055 0.0
C9797 C 0.80182 0.1485 0.11661 0.0
C9798 C 0.81534 0.14315 0.10992 0.0
C9799 C 0.80902 0.1507 0.11943 0.0
C9800 C 0.8297 0.14168 0.10981 0.0
C9801 C 0.82865 0.13367 0.0961 0.0
N9802 N 0.81552 0.14802 0.11604 0.0
N9803 N 0.82229 0.1366 0.09953 0.0
H9804 H 0.65819 0.05777 0.84279 0.0
H9805 H 0.61481 0.0506 0.85616 0.0
H9806 H 0.63934 0.07128 0.83422 0.0
H9807 H 0.63394 0.03638 0.8624 0.0
H9808 H 0.62343 0.05837 0.84803 0.0
H9809 H 0.64917 0.04987 0.84986 0.0
C9810 C 0.65214 0.05906 0.84236 0.0
C9811 C 0.64955 0.06528 0.83797 0.0
C9812 C 0.62574 0.05356 0.85119 0.0
C9813 C 0.63909 0.05616 0.84607 0.0
C9814 C 0.62085 0.04919 0.85583 0.0
C9815 C 0.62375 0.04294 0.85992 0.0
C9816 C 0.63357 0.05165 0.85074 0.0
C9817 C 0.63156 0.04121 0.85931 0.0
C9818 C 0.64696 0.05452 0.84639 0.0
C9819 C 0.6416 0.06654 0.83751 0.0
N9820 N 0.6362 0.04555 0.85484 0.0
N9821 N 0.63664 0.06206 0.84158 0.0
H9822 H 0.86787 0.94093 0.33067 0.0
H9823 H 0.87459 0.97066 0.36496 0.0
H9824 H 0.85058 0.94724 0.34728 0.0
H9825 H 0.89336 0.9593 0.35374 0.0
H9826 H 0.86553 0.9633 0.35715 0.0
H9827 H 0.87705 0.94916 0.33745 0.0
C9828 C 0.86595 0.94404 0.33569 0.0
C9829 C 0.85841 0.9432 0.33846 0.0
C9830 C 0.87162 0.96236 0.35639 0.0
C9831 C 0.86898 0.95249 0.34631 0.0
C9832 C 0.87675 0.96653 0.36086 0.0
C9833 C 0.88464 0.96532 0.36014 0.0
C9834 C 0.87441 0.95713 0.35095 0.0
C9835 C 0.88727 0.96014 0.35459 0.0
C9836 C 0.87124 0.94867 0.3396 0.0
C9837 C 0.85635 0.94743 0.34502 0.0
N9838 N 0.88215 0.95621 0.35017 0.0
N9839 N 0.86159 0.95181 0.34873 0.0
H9840 H 0.40481 0.33992 0.14174 0.0
H9841 H 0.3964 0.29481 0.13902 0.0
H9842 H 0.41467 0.325 0.1247 0.0
H9843 H 0.38843 0.30869 0.15776 0.0
H9844 H 0.40273 0.30606 0.13346 0.0
H9845 H 0.39869 0.32876 0.14779 0.0
C9846 C 0.40574 0.33426 0.13934 0.0
C9847 C 0.41029 0.33333 0.13277 0.0
C9848 C 0.3996 0.30669 0.13878 0.0
C9849 C 0.40317 0.32062 0.13947 0.0
C9850 C 0.39595 0.3003 0.14189 0.0
C9851 C 0.39189 0.30094 0.14876 0.0
C9852 C 0.3992 0.31377 0.14262 0.0
C9853 C 0.39149 0.30808 0.15239 0.0
C9854 C 0.40223 0.32792 0.14276 0.0
C9855 C 0.41129 0.32593 0.12982 0.0
N9856 N 0.39513 0.31425 0.14929 0.0
N9857 N 0.40771 0.31987 0.13315 0.0
H9858 H 0.44191 0.67762 0.86752 0.0
H9859 H 0.47246 0.64423 0.87437 0.0
H9860 H 0.45008 0.6626 0.84961 0.0
H9861 H 0.45921 0.65382 0.89281 0.0
H9862 H 0.46516 0.65193 0.86518 0.0
H9863 H 0.44933 0.6702 0.87687 0.0
C9864 C 0.44531 0.67282 0.86553 0.0
C9865 C 0.44531 0.67072 0.85775 0.0
C9866 C 0.46378 0.65233 0.87122 0.0
C9867 C 0.4537 0.66215 0.86844 0.0
C9868 C 0.46791 0.64793 0.87642 0.0
C9869 C 0.46624 0.6483 0.88425 0.0
C9870 C 0.45808 0.65734 0.87391 0.0
C9871 C 0.46048 0.6533 0.88676 0.0
C9872 C 0.44947 0.66854 0.87089 0.0
C9873 C 0.44977 0.66438 0.85554 0.0
N9874 N 0.45661 0.65768 0.88159 0.0
N9875 N 0.45376 0.66033 0.86085 0.0
H9876 H 0.10648 0.67801 0.62215 0.0
H9877 H 0.115 0.70144 0.66049 0.0
H9878 H 0.09391 0.6739 0.64306 0.0
H9879 H 0.11963 0.71037 0.63797 0.0
H9880 H 0.10886 0.69017 0.65464 0.0
H9881 H 0.11303 0.68872 0.62832 0.0
C9882 C 0.10513 0.67933 0.62806 0.0
C9883 C 0.09964 0.67503 0.6321 0.0
C9884 C 0.11124 0.69458 0.65099 0.0
C9885 C 0.10714 0.68734 0.63919 0.0
C9886 C 0.11473 0.70098 0.65431 0.0
C9887 C 0.11772 0.70683 0.64968 0.0
C9888 C 0.11092 0.69396 0.64297 0.0
C9889 C 0.11739 0.70596 0.64171 0.0
C9890 C 0.10884 0.68548 0.63156 0.0
C9891 C 0.09806 0.6771 0.63972 0.0
N9892 N 0.11405 0.69963 0.6386 0.0
N9893 N 0.10182 0.68309 0.64305 0.0
H9894 H 0.05469 0.33066 0.35781 0.0
H9895 H 0.05402 0.36257 0.39043 0.0
H9896 H 0.07333 0.34676 0.36022 0.0
H9897 H 0.03382 0.35621 0.3777 0.0
H9898 H 0.06181 0.35492 0.38142 0.0
H9899 H 0.04744 0.3379 0.36747 0.0
C9900 C 0.05727 0.33569 0.3604 0.0
C9901 C 0.0646 0.33814 0.35817 0.0
C9902 C 0.05565 0.35516 0.3807 0.0
C9903 C 0.0564 0.34636 0.36925 0.0
C9904 C 0.05123 0.35954 0.38579 0.0
C9905 C 0.04326 0.35998 0.38484 0.0
C9906 C 0.05201 0.35102 0.37481 0.0
C9907 C 0.03991 0.35586 0.37878 0.0
C9908 C 0.05313 0.33982 0.36587 0.0
C9909 C 0.06765 0.34472 0.3617 0.0
N9910 N 0.04428 0.3515 0.37405 0.0
N9911 N 0.06355 0.34859 0.36708 0.0
H9912 H 0.40383 0.66804 0.36751 0.0
H9913 H 0.39738 0.71353 0.36838 0.0
H9914 H 0.41567 0.6834 0.38283 0.0
H9915 H 0.38653 0.69884 0.35184 0.0
H9916 H 0.40402 0.70241 0.37381 0.0
H9917 H 0.39762 0.6791 0.36143 0.0
C9918 C 0.40517 0.67376 0.36953 0.0
C9919 C 0.41029 0.67484 0.37565 0.0
C9920 C 0.40019 0.70157 0.369 0.0
C9921 C 0.40308 0.68747 0.36887 0.0
C9922 C 0.39638 0.7079 0.36596 0.0
C9923 C 0.39139 0.707 0.35977 0.0
C9924 C 0.39904 0.69429 0.36575 0.0
C9925 C 0.39028 0.69967 0.35671 0.0
C9926 C 0.40161 0.68006 0.36609 0.0
C9927 C 0.41183 0.68234 0.37807 0.0
N9928 N 0.3941 0.69356 0.35972 0.0
N9929 N 0.40819 0.68836 0.37472 0.0
H9930 H 0.05891 0.66163 0.15988 0.0
H9931 H 0.04695 0.65758 0.11581 0.0
H9932 H 0.06773 0.67659 0.14224 0.0
H9933 H 0.04192 0.64068 0.13301 0.0
H9934 H 0.05416 0.66504 0.12536 0.0
H9935 H 0.05196 0.65446 0.15016 0.0
C9936 C 0.05941 0.66343 0.15396 0.0
C9937 C 0.06407 0.66967 0.1519 0.0
C9938 C 0.05156 0.65966 0.12704 0.0
C9939 C 0.05594 0.66149 0.14069 0.0
C9940 C 0.04751 0.65541 0.12159 0.0
C9941 C 0.04396 0.64853 0.12368 0.0
C9942 C 0.05197 0.65701 0.13464 0.0
C9943 C 0.04468 0.64594 0.13122 0.0
C9944 C 0.0554 0.65932 0.14841 0.0
C9945 C 0.06422 0.67185 0.14414 0.0
N9946 N 0.04858 0.6502 0.13646 0.0
N9947 N 0.06024 0.66774 0.13881 0.0
H9948 H 0.10587 0.34015 0.86793 0.0
H9949 H 0.11158 0.29465 0.86756 0.0
H9950 H 0.09206 0.32455 0.88125 0.0
H9951 H 0.12219 0.30952 0.85103 0.0
H9952 H 0.10477 0.3057 0.87303 0.0
H9953 H 0.11215 0.32919 0.86182 0.0
C9954 C 0.10412 0.33441 0.86952 0.0
C9955 C 0.09845 0.33327 0.87514 0.0
C9956 C 0.10862 0.30658 0.86824 0.0
C9957 C 0.10567 0.32069 0.86822 0.0
C9958 C 0.11253 0.3003 0.86519 0.0
C9959 C 0.11751 0.30128 0.85898 0.0
C9960 C 0.10973 0.3139 0.86505 0.0
C9961 C 0.11849 0.30864 0.85594 0.0
C9962 C 0.1077 0.32816 0.86603 0.0
C9963 C 0.09635 0.32571 0.87692 0.0
N9964 N 0.11466 0.31469 0.85902 0.0
N9965 N 0.10002 0.31972 0.87353 0.0
H9966 H 0.4533 0.33035 0.65136 0.0
H9967 H 0.45538 0.36181 0.61844 0.0
H9968 H 0.43562 0.34744 0.64888 0.0
H9969 H 0.47538 0.35518 0.63135 0.0
H9970 H 0.44738 0.35454 0.6275 0.0
H9971 H 0.46094 0.33711 0.64158 0.0
C9972 C 0.451 0.33546 0.64871 0.0
C9973 C 0.44385 0.33837 0.65096 0.0
C9974 C 0.45355 0.35462 0.62825 0.0
C9975 C 0.45246 0.34602 0.63978 0.0
C9976 C 0.4581 0.35881 0.62313 0.0
C9977 C 0.46609 0.35906 0.62407 0.0
C9978 C 0.45705 0.35045 0.63418 0.0
C9979 C 0.4693 0.35495 0.63022 0.0
C9980 C 0.45536 0.33933 0.64318 0.0
C9981 C 0.44115 0.34505 0.64736 0.0
N9982 N 0.46479 0.35075 0.63497 0.0
N9983 N 0.44543 0.34864 0.64193 0.0
H9984 H 0.12771 0.41729 0.32505 0.0
H9985 H 0.1578 0.38658 0.30922 0.0
H9986 H 0.13922 0.40122 0.33992 0.0
H9987 H 0.14048 0.39705 0.29518 0.0
H9988 H 0.15222 0.39283 0.32059 0.0
H9989 H 0.13386 0.41124 0.31401 0.0
C9990 C 0.13161 0.41256 0.32602 0.0
C9991 C 0.13291 0.40975 0.33345 0.0
C9992 C 0.1496 0.39372 0.31504 0.0
C9993 C 0.13986 0.4027 0.32079 0.0
C9994 C 0.15274 0.39011 0.3086 0.0
C9995 C 0.14944 0.39121 0.30137 0.0
C9996 C 0.14326 0.39861 0.31415 0.0
C9997 C 0.14306 0.39601 0.30072 0.0
C9998 C 0.13505 0.40905 0.3197 0.0
C9999 C 0.13795 0.40352 0.3343 0.0
N10000 N 0.14019 0.39958 0.30703 0.0
N10001 N 0.14123 0.40019 0.32806 0.0
H10002 H 0.32794 0.36269 0.05809 0.0
H10003 H 0.36622 0.374 0.03835 0.0
H10004 H 0.34918 0.3537 0.06721 0.0
H10005 H 0.35251 0.39244 0.04726 0.0
H10006 H 0.35849 0.3648 0.04576 0.0
H10007 H 0.33536 0.37227 0.05096 0.0
C10008 C 0.33412 0.3627 0.05865 0.0
C10009 C 0.33788 0.35729 0.06331 0.0
C10010 C 0.35719 0.37087 0.0461 0.0
C10011 C 0.34634 0.36809 0.05494 0.0
C10012 C 0.36159 0.37607 0.04193 0.0
C10013 C 0.36025 0.38396 0.04264 0.0
C10014 C 0.35102 0.37354 0.05049 0.0
C10015 C 0.35394 0.38641 0.04696 0.0
C10016 C 0.33833 0.36816 0.05455 0.0
C10017 C 0.34596 0.35756 0.06359 0.0
N10018 N 0.34949 0.3812 0.05072 0.0
N10019 N 0.3499 0.36281 0.0594 0.0
H10020 H 0.37427 0.58825 0.82711 0.0
H10021 H 0.35534 0.62613 0.80923 0.0
H10022 H 0.3739 0.60981 0.83927 0.0
H10023 H 0.36186 0.60621 0.79621 0.0
H10024 H 0.3606 0.62002 0.82087 0.0
H10025 H 0.36769 0.59435 0.81641 0.0
C10026 C 0.37273 0.59424 0.82759 0.0
C10027 C 0.37473 0.5985 0.83412 0.0
C10028 C 0.36082 0.61698 0.81547 0.0
C10029 C 0.36731 0.60561 0.82174 0.0
C10030 C 0.35784 0.62047 0.80886 0.0
C10031 C 0.3581 0.6166 0.80181 0.0
C10032 C 0.36397 0.60957 0.81498 0.0
C10033 C 0.3614 0.60928 0.80157 0.0
C10034 C 0.36904 0.59775 0.82143 0.0
C10035 C 0.37264 0.60631 0.83431 0.0
N10036 N 0.36417 0.60601 0.80805 0.0
N10037 N 0.36908 0.60962 0.8282 0.0
H10038 H 0.16977 0.65839 0.55438 0.0
H10039 H 0.14981 0.61694 0.55174 0.0
H10040 H 0.17066 0.64198 0.57278 0.0
H10041 H 0.14883 0.63402 0.53399 0.0
H10042 H 0.15761 0.62575 0.55959 0.0
H10043 H 0.16264 0.64913 0.5466 0.0
C10044 C 0.16853 0.65278 0.55672 0.0
C10045 C 0.17086 0.65088 0.56416 0.0
C10046 C 0.15571 0.62756 0.55396 0.0
C10047 C 0.16249 0.64032 0.55543 0.0
C10048 C 0.15124 0.62256 0.54953 0.0
C10049 C 0.14882 0.62475 0.54219 0.0
C10050 C 0.15771 0.6348 0.55101 0.0
C10051 C 0.15074 0.63209 0.53957 0.0
C10052 C 0.16442 0.64751 0.55232 0.0
C10053 C 0.16904 0.64359 0.56701 0.0
N10054 N 0.1551 0.63683 0.54394 0.0
N10055 N 0.16491 0.63858 0.56266 0.0
H10056 H 0.13774 0.60816 0.16843 0.0
H10057 H 0.14194 0.61065 0.21375 0.0
H10058 H 0.13103 0.58971 0.18347 0.0
H10059 H 0.15669 0.62341 0.19868 0.0
H10060 H 0.13673 0.60373 0.20263 0.0
H10061 H 0.14372 0.61468 0.17933 0.0
C10062 C 0.13756 0.60545 0.17401 0.0
C10063 C 0.13382 0.59838 0.17503 0.0
C10064 C 0.14103 0.60812 0.20173 0.0
C10065 C 0.14063 0.60585 0.18753 0.0
C10066 C 0.14391 0.6121 0.20805 0.0
C10067 C 0.14948 0.61779 0.20704 0.0
C10068 C 0.14369 0.60991 0.19435 0.0
C10069 C 0.15212 0.61931 0.19961 0.0
C10070 C 0.14101 0.60917 0.18021 0.0
C10071 C 0.13388 0.59511 0.18239 0.0
N10072 N 0.14914 0.61545 0.19351 0.0
N10073 N 0.13714 0.59891 0.18836 0.0
H10074 H 0.16206 0.35971 0.93478 0.0
H10075 H 0.15168 0.37784 0.97518 0.0
H10076 H 0.17579 0.35529 0.95482 0.0
H10077 H 0.14552 0.38861 0.95382 0.0
H10078 H 0.15974 0.36882 0.96812 0.0
H10079 H 0.15496 0.36946 0.9419 0.0
C10080 C 0.1636 0.36084 0.94069 0.0
C10081 C 0.16952 0.3567 0.94422 0.0
C10082 C 0.15657 0.37313 0.96499 0.0
C10083 C 0.16134 0.3678 0.95246 0.0
C10084 C 0.15198 0.37832 0.969 0.0
C10085 C 0.14781 0.38404 0.96513 0.0
C10086 C 0.15681 0.37345 0.95697 0.0
C10087 C 0.14833 0.38423 0.9571 0.0
C10088 C 0.15956 0.36641 0.94474 0.0
C10089 C 0.1713 0.35839 0.95188 0.0
N10090 N 0.15268 0.37898 0.9533 0.0
N10091 N 0.16716 0.36377 0.95579 0.0
H10092 H 0.36538 0.41591 0.67448 0.0
H10093 H 0.37095 0.38845 0.70998 0.0
H10094 H 0.3846 0.40046 0.67618 0.0
H10095 H 0.34829 0.39307 0.70135 0.0
H10096 H 0.37641 0.3941 0.69836 0.0
H10097 H 0.35926 0.40918 0.68529 0.0
C10098 C 0.3683 0.41112 0.67712 0.0
C10099 C 0.3755 0.40873 0.67442 0.0
C10100 C 0.37024 0.39385 0.699 0.0
C10101 C 0.3686 0.40109 0.68674 0.0
C10102 C 0.36713 0.39055 0.70558 0.0
C10103 C 0.35917 0.39028 0.70661 0.0
C10104 C 0.36536 0.39714 0.69351 0.0
C10105 C 0.35447 0.39333 0.70083 0.0
C10106 C 0.36479 0.40725 0.68323 0.0
C10107 C 0.37902 0.40245 0.67802 0.0
N10108 N 0.35763 0.39675 0.69457 0.0
N10109 N 0.37557 0.3989 0.68402 0.0
H10110 H 0.33262 0.64124 0.43919 0.0
H10111 H 0.3632 0.63411 0.47272 0.0
H10112 H 0.34388 0.65921 0.45195 0.0
H10113 H 0.35585 0.6161 0.45758 0.0
H10114 H 0.35519 0.64321 0.4657 0.0
H10115 H 0.3398 0.63171 0.44665 0.0
C10116 C 0.33652 0.6432 0.4436 0.0
C10117 C 0.3377 0.65107 0.44485 0.0
C10118 C 0.35533 0.63729 0.46385 0.0
C10119 C 0.34603 0.6402 0.45329 0.0
C10120 C 0.35991 0.63214 0.46783 0.0
C10121 C 0.36024 0.62445 0.46559 0.0
C10122 C 0.35091 0.63472 0.45762 0.0
C10123 C 0.35582 0.62205 0.45933 0.0
C10124 C 0.34067 0.63775 0.4478 0.0
C10125 C 0.34288 0.65323 0.45063 0.0
N10126 N 0.35129 0.62718 0.45555 0.0
N10127 N 0.34686 0.64785 0.45458 0.0
H10128 H 0.3253 0.12406 0.41367 0.0
H10129 H 0.30953 0.15713 0.38595 0.0
H10130 H 0.33963 0.14248 0.40563 0.0
H10131 H 0.29516 0.14086 0.3976 0.0
H10132 H 0.3208 0.15184 0.3927 0.0
H10133 H 0.31426 0.13005 0.40745 0.0
C10134 C 0.32606 0.12947 0.41073 0.0
C10135 C 0.33331 0.13286 0.41024 0.0
C10136 C 0.31519 0.14939 0.39374 0.0
C10137 C 0.32076 0.13972 0.40301 0.0
C10138 C 0.30882 0.15236 0.38985 0.0
C10139 C 0.30153 0.14927 0.39115 0.0
C10140 C 0.31419 0.14325 0.39888 0.0
C10141 C 0.30075 0.14327 0.3964 0.0
C10142 C 0.31978 0.13287 0.40713 0.0
C10143 C 0.33407 0.13976 0.40618 0.0
N10144 N 0.30701 0.14041 0.40003 0.0
N10145 N 0.32787 0.14298 0.4027 0.0
H10146 H 0.83975 0.37336 0.61091 0.0
H10147 H 0.79579 0.36178 0.60626 0.0
H10148 H 0.82711 0.37557 0.58976 0.0
H10149 H 0.80913 0.35515 0.62593 0.0
H10150 H 0.80732 0.36688 0.60023 0.0
H10151 H 0.8288 0.36672 0.61661 0.0
C10152 C 0.83469 0.37242 0.60744 0.0
C10153 C 0.83435 0.37514 0.59985 0.0
C10154 C 0.80778 0.36428 0.60584 0.0
C10155 C 0.82178 0.36747 0.60636 0.0
C10156 C 0.8012 0.36133 0.60926 0.0
C10157 C 0.80155 0.35792 0.61653 0.0
C10158 C 0.81478 0.36401 0.60978 0.0
C10159 C 0.80864 0.35772 0.62031 0.0
C10160 C 0.82845 0.36859 0.6107 0.0
C10161 C 0.82769 0.37358 0.5956 0.0
N10162 N 0.815 0.36076 0.6169 0.0
N10163 N 0.82166 0.36992 0.59894 0.0
H10164 H 0.36537 0.06522 0.33002 0.0
H10165 H 0.37556 0.04253 0.36869 0.0
H10166 H 0.34922 0.06069 0.34827 0.0
H10167 H 0.3919 0.04618 0.35058 0.0
H10168 H 0.36592 0.04952 0.36127 0.0
H10169 H 0.37506 0.05793 0.33706 0.0
C10170 C 0.36381 0.06267 0.33546 0.0
C10171 C 0.35645 0.06377 0.33859 0.0
C10172 C 0.37161 0.04882 0.35889 0.0
C10173 C 0.36763 0.05558 0.34679 0.0
C10174 C 0.37711 0.04492 0.36317 0.0
C10175 C 0.38448 0.04381 0.36021 0.0
C10176 C 0.37348 0.0516 0.35155 0.0
C10177 C 0.38623 0.04687 0.35299 0.0
C10178 C 0.36939 0.05857 0.33952 0.0
C10179 C 0.35485 0.06029 0.3457 0.0
N10180 N 0.38075 0.0506 0.34887 0.0
N10181 N 0.3604 0.05645 0.34956 0.0
H10182 H 0.68003 0.62191 0.10299 0.0
H10183 H 0.6996 0.65845 0.12085 0.0
H10184 H 0.67213 0.64416 0.09572 0.0
H10185 H 0.71282 0.63929 0.11281 0.0
H10186 H 0.68821 0.65321 0.11414 0.0
H10187 H 0.69091 0.62799 0.10939 0.0
C10188 C 0.6806 0.62809 0.10275 0.0
C10189 C 0.67521 0.63255 0.09881 0.0
C10190 C 0.6936 0.65014 0.11394 0.0
C10191 C 0.68757 0.63952 0.10621 0.0
C10192 C 0.70001 0.65306 0.11781 0.0
C10193 C 0.70698 0.64907 0.11761 0.0
C10194 C 0.69423 0.64315 0.10999 0.0
C10195 C 0.70743 0.64231 0.11332 0.0
C10196 C 0.6868 0.63154 0.10638 0.0
C10197 C 0.67622 0.64054 0.09866 0.0
N10198 N 0.70111 0.63948 0.1098 0.0
N10199 N 0.68227 0.64381 0.10239 0.0
H10200 H 0.64746 0.45023 0.32854 0.0
H10201 H 0.63347 0.46725 0.36753 0.0
H10202 H 0.65377 0.4392 0.34981 0.0
H10203 H 0.61618 0.46156 0.35088 0.0
H10204 H 0.64294 0.45998 0.35999 0.0
H10205 H 0.63756 0.45746 0.33555 0.0
C10206 C 0.64679 0.4493 0.33464 0.0
C10207 C 0.65157 0.44413 0.33858 0.0
C10208 C 0.63707 0.46035 0.35799 0.0
C10209 C 0.64043 0.4525 0.34656 0.0
C10210 C 0.63171 0.46444 0.36227 0.0
C10211 C 0.62402 0.46463 0.35996 0.0
C10212 C 0.63484 0.45694 0.35107 0.0
C10213 C 0.62201 0.46122 0.35296 0.0
C10214 C 0.64116 0.45344 0.33861 0.0
C10215 C 0.65044 0.44326 0.34653 0.0
N10216 N 0.62742 0.45753 0.3487 0.0
N10217 N 0.64506 0.44746 0.35025 0.0
H10218 H 0.18301 0.87987 0.91803 0.0
H10219 H 0.19865 0.85362 0.88365 0.0
H10220 H 0.16825 0.86988 0.90084 0.0
H10221 H 0.21312 0.86599 0.89932 0.0
H10222 H 0.18729 0.85878 0.89027 0.0
H10223 H 0.19398 0.87367 0.91197 0.0
C10224 C 0.18204 0.87629 0.91305 0.0
C10225 C 0.17467 0.87548 0.90991 0.0
C10226 C 0.19295 0.8604 0.89224 0.0
C10227 C 0.18728 0.8685 0.90281 0.0
C10228 C 0.19938 0.8575 0.88844 0.0
C10229 C 0.20674 0.85944 0.89098 0.0
C10230 C 0.19393 0.86525 0.89862 0.0
C10231 C 0.20749 0.86439 0.89725 0.0
C10232 C 0.18833 0.87282 0.90953 0.0
C10233 C 0.17383 0.87082 0.90338 0.0
N10234 N 0.20117 0.86711 0.90087 0.0
N10235 N 0.18006 0.86756 0.90001 0.0
H10236 H 0.35536 0.93765 0.15884 0.0
H10237 H 0.39153 0.96491 0.1591 0.0
H10238 H 0.36085 0.95042 0.17934 0.0
H10239 H 0.3763 0.96336 0.13971 0.0
H10240 H 0.38217 0.95771 0.16681 0.0
H10241 H 0.36502 0.94489 0.15187 0.0
C10242 C 0.35853 0.94203 0.16188 0.0
C10243 C 0.35712 0.94351 0.16969 0.0
C10244 C 0.38095 0.9589 0.16083 0.0
C10245 C 0.36846 0.95167 0.1617 0.0
C10246 C 0.38626 0.96303 0.15644 0.0
C10247 C 0.38473 0.96475 0.14872 0.0
C10248 C 0.37421 0.95621 0.15738 0.0
C10249 C 0.37789 0.96197 0.14553 0.0
C10250 C 0.36409 0.94613 0.15789 0.0
C10251 C 0.3617 0.94907 0.17334 0.0
N10252 N 0.37293 0.95779 0.14985 0.0
N10253 N 0.36718 0.95296 0.16931 0.0
H10254 H 0.15973 0.05877 0.66201 0.0
H10255 H 0.11555 0.04896 0.65464 0.0
H10256 H 0.14193 0.06665 0.67731 0.0
H10257 H 0.13436 0.03739 0.64372 0.0
H10258 H 0.12479 0.05601 0.66277 0.0
H10259 H 0.15026 0.05143 0.65494 0.0
C10260 C 0.15382 0.05894 0.66392 0.0
C10261 C 0.15164 0.06345 0.67022 0.0
C10262 C 0.12689 0.052 0.65853 0.0
C10263 C 0.14068 0.0549 0.66212 0.0
C10264 C 0.12164 0.04806 0.65387 0.0
C10265 C 0.12429 0.04287 0.64835 0.0
C10266 C 0.1348 0.0507 0.65758 0.0
C10267 C 0.13217 0.04159 0.64774 0.0
C10268 C 0.1484 0.0547 0.65988 0.0
C10269 C 0.14389 0.06326 0.67249 0.0
N10270 N 0.13715 0.04553 0.65223 0.0
N10271 N 0.13867 0.05911 0.6684 0.0
loop_
_geom_bond_atom_site_label_1
_geom_bond_atom_site_label_2
_geom_bond_distance
_geom_bond_site_symmetry_2
_ccdc_geom_bond_type
C0 C1 1.264 . S
C0 C5 1.479 . S
C0 C10 1.465 . S
C1 C0 1.264 . S
C1 C3 1.339 . S
C1 H28 0.931 . S
C2 C3 1.395 . S
C2 C4 1.320 . S
C3 C1 1.339 . S
C3 C2 1.395 . S
C3 H29 0.929 . S
C4 C2 1.320 . S
C4 C5 1.405 . S
C4 H30 0.930 . S
C5 C0 1.479 . S
C5 C4 1.405 . S
C5 H31 0.931 . S
U6 O7 2.454 . S
U6 O8 2.458 . S
U6 C9 2.984 . S
U6 C10 2.847 . S
U6 C23 2.882 . S
U6 O24 2.441 . S
U6 O25 2.420 . S
U6 O26 2.455 . S
U6 O27 2.449 . S
O7 U6 2.454 . S
O7 C9 1.353 . S
O8 U6 2.458 . S
O8 C9 1.286 . S
C9 U6 2.984 . S
C9 O7 1.353 . S
C9 O8 1.286 . S
C9 C11 1.363 . S
C10 C0 1.465 . S
C10 U6 2.847 . S
C10 O24 1.249 . S
C10 O25 1.202 . S
C11 C9 1.363 . S
C11 C13 1.408 . S
C11 C16 1.342 . S
C12 C13 1.310 . S
C12 C15 1.461 . S
C12 H32 0.932 . S
C13 C11 1.408 . S
C13 C12 1.310 . S
C13 H33 0.930 . S
C14 C15 1.474 . S
C14 C16 1.285 . S
C14 H34 0.929 . S
C15 C12 1.461 . S
C15 C14 1.474 . S
C16 C11 1.342 . S
C16 C14 1.285 . S
C16 H35 0.930 . S
C17 C20 1.424 . S
C17 C22 1.245 . S
C17 C23 1.428 . S
C18 C21 1.260 . S
C18 C22 1.477 . S
C18 H36 0.932 . S
C19 C20 1.384 . S
C19 C21 1.479 . S
C19 H37 0.929 . S
C20 C17 1.424 . S
C20 C19 1.384 . S
C20 H38 0.928 . S
C21 C18 1.260 . S
C21 C19 1.479 . S
C22 C17 1.245 . S
C22 C18 1.477 . S
C22 H39 0.932 . S
C23 U6 2.882 . S
C23 C17 1.428 . S
C23 O26 1.301 . S
C23 O27 1.282 . S
O24 U6 2.441 . S
O24 C10 1.249 . S
O25 U6 2.420 . S
O25 C10 1.202 . S
O26 U6 2.455 . S
O26 C23 1.301 . S
O27 U6 2.449 . S
O27 C23 1.282 . S
H28 C1 0.931 . S
H29 C3 0.929 . S
H30 C4 0.930 . S
H31 C5 0.931 . S
H32 C12 0.932 . S
H33 C13 0.930 . S
H34 C14 0.929 . S
H35 C16 0.930 . S
H36 C18 0.932 . S
H37 C19 0.929 . S
H38 C20 0.928 . S
H39 C22 0.932 . S
C40 C41 1.264 . S
C40 C45 1.479 . S
C40 C50 1.465 . S
C41 C40 1.264 . S
C41 C43 1.339 . S
C41 H68 0.931 . S
C42 C43 1.395 . S
C42 C44 1.320 . S
C43 C41 1.339 . S
C43 C42 1.395 . S
C43 H69 0.929 . S
C44 C42 1.320 . S
C44 C45 1.405 . S
C44 H70 0.930 . S
C45 C40 1.479 . S
C45 C44 1.405 . S
C45 H71 0.931 . S
U46 O47 2.454 . S
U46 O48 2.458 . S
U46 C49 2.984 . S
U46 C50 2.847 . S
U46 C63 2.882 . S
U46 O64 2.441 . S
U46 O65 2.420 . S
U46 O66 2.455 . S
U46 O67 2.449 . S
O47 U46 2.454 . S
O47 C49 1.353 . S
O48 U46 2.458 . S
O48 C49 1.286 . S
C49 U46 2.984 . S
C49 O47 1.353 . S
C49 O48 1.286 . S
C49 C51 1.363 . S
C50 C40 1.465 . S
C50 U46 2.847 . S
C50 O64 1.249 . S
C50 O65 1.202 . S
C51 C49 1.363 . S
C51 C53 1.408 . S
C51 C56 1.342 . S
C52 C53 1.310 . S
C52 C55 1.461 . S
C52 H72 0.932 . S
C53 C51 1.408 . S
C53 C52 1.310 . S
C53 H73 0.930 . S
C54 C55 1.474 . S
C54 C56 1.285 . S
C54 H74 0.929 . S
C55 C52 1.461 . S
C55 C54 1.474 . S
C56 C51 1.342 . S
C56 C54 1.285 . S
C56 H75 0.930 . S
C57 C60 1.424 . S
C57 C62 1.245 . S
C57 C63 1.428 . S
C58 C61 1.260 . S
C58 C62 1.477 . S
C58 H76 0.932 . S
C59 C60 1.384 . S
C59 C61 1.479 . S
C59 H77 0.929 . S
C60 C57 1.424 . S
C60 C59 1.384 . S
C60 H78 0.928 . S
C61 C58 1.260 . S
C61 C59 1.479 . S
C62 C57 1.245 . S
C62 C58 1.477 . S
C62 H79 0.932 . S
C63 U46 2.882 . S
C63 C57 1.428 . S
C63 O66 1.301 . S
C63 O67 1.282 . S
O64 U46 2.441 . S
O64 C50 1.249 . S
O65 U46 2.420 . S
O65 C50 1.202 . S
O66 U46 2.455 . S
O66 C63 1.301 . S
O67 U46 2.449 . S
O67 C63 1.282 . S
H68 C41 0.931 . S
H69 C43 0.929 . S
H70 C44 0.930 . S
H71 C45 0.931 . S
H72 C52 0.932 . S
H73 C53 0.930 . S
H74 C54 0.929 . S
H75 C56 0.930 . S
H76 C58 0.932 . S
H77 C59 0.929 . S
H78 C60 0.928 . S
H79 C62 0.932 . S
C80 C81 1.264 . S
C80 C85 1.479 . S
C80 C90 1.465 . S
C81 C80 1.264 . S
C81 C83 1.339 . S
C81 H108 0.931 . S
C82 C83 1.395 . S
C82 C84 1.320 . S
C83 C81 1.339 . S
C83 C82 1.395 . S
C83 H109 0.929 . S
C84 C82 1.320 . S
C84 C85 1.405 . S
C84 H110 0.930 . S
C85 C80 1.479 . S
C85 C84 1.405 . S
C85 H111 0.931 . S
U86 O87 2.454 . S
U86 O88 2.458 . S
U86 C89 2.984 . S
U86 C90 2.847 . S
U86 C103 2.882 . S
U86 O104 2.441 . S
U86 O105 2.420 . S
U86 O106 2.455 . S
U86 O107 2.449 . S
O87 U86 2.454 . S
O87 C89 1.353 . S
O88 U86 2.458 . S
O88 C89 1.286 . S
C89 U86 2.984 . S
C89 O87 1.353 . S
C89 O88 1.286 . S
C89 C91 1.363 . S
C90 C80 1.465 . S
C90 U86 2.847 . S
C90 O104 1.249 . S
C90 O105 1.202 . S
C91 C89 1.363 . S
C91 C93 1.408 . S
C91 C96 1.342 . S
C92 C93 1.310 . S
C92 C95 1.461 . S
C92 H112 0.932 . S
C93 C91 1.408 . S
C93 C92 1.310 . S
C93 H113 0.930 . S
C94 C95 1.474 . S
C94 C96 1.285 . S
C94 H114 0.929 . S
C95 C92 1.461 . S
C95 C94 1.474 . S
C96 C91 1.342 . S
C96 C94 1.285 . S
C96 H115 0.930 . S
C97 C100 1.424 . S
C97 C102 1.245 . S
C97 C103 1.428 . S
C98 C101 1.260 . S
C98 C102 1.477 . S
C98 H116 0.932 . S
C99 C100 1.384 . S
C99 C101 1.479 . S
C99 H117 0.929 . S
C100 C97 1.424 . S
C100 C99 1.384 . S
C100 H118 0.928 . S
C101 C98 1.260 . S
C101 C99 1.479 . S
C102 C97 1.245 . S
C102 C98 1.477 . S
C102 H119 0.932 . S
C103 U86 2.882 . S
C103 C97 1.428 . S
C103 O106 1.301 . S
C103 O107 1.282 . S
O104 U86 2.441 . S
O104 C90 1.249 . S
O105 U86 2.420 . S
O105 C90 1.202 . S
O106 U86 2.455 . S
O106 C103 1.301 . S
O107 U86 2.449 . S
O107 C103 1.282 . S
H108 C81 0.931 . S
H109 C83 0.929 . S
H110 C84 0.930 . S
H111 C85 0.931 . S
H112 C92 0.932 . S
H113 C93 0.930 . S
H114 C94 0.929 . S
H115 C96 0.930 . S
H116 C98 0.932 . S
H117 C99 0.929 . S
H118 C100 0.928 . S
H119 C102 0.932 . S
C120 C121 1.264 . S
C120 C125 1.479 . S
C120 C130 1.465 . S
C121 C120 1.264 . S
C121 C123 1.339 . S
C121 H148 0.931 . S
C122 C123 1.395 . S
C122 C124 1.320 . S
C123 C121 1.339 . S
C123 C122 1.395 . S
C123 H149 0.929 . S
C124 C122 1.320 . S
C124 C125 1.405 . S
C124 H150 0.930 . S
C125 C120 1.479 . S
C125 C124 1.405 . S
C125 H151 0.931 . S
U126 O127 2.454 . S
U126 O128 2.458 . S
U126 C129 2.984 . S
U126 C130 2.847 . S
U126 C143 2.882 . S
U126 O144 2.441 . S
U126 O145 2.420 . S
U126 O146 2.455 . S
U126 O147 2.449 . S
O127 U126 2.454 . S
O127 C129 1.353 . S
O128 U126 2.458 . S
O128 C129 1.286 . S
C129 U126 2.984 . S
C129 O127 1.353 . S
C129 O128 1.286 . S
C129 C131 1.363 . S
C130 C120 1.465 . S
C130 U126 2.847 . S
C130 O144 1.249 . S
C130 O145 1.202 . S
C131 C129 1.363 . S
C131 C133 1.408 . S
C131 C136 1.342 . S
C132 C133 1.310 . S
C132 C135 1.461 . S
C132 H152 0.932 . S
C133 C131 1.408 . S
C133 C132 1.310 . S
C133 H153 0.930 . S
C134 C135 1.474 . S
C134 C136 1.285 . S
C134 H154 0.929 . S
C135 C132 1.461 . S
C135 C134 1.474 . S
C136 C131 1.342 . S
C136 C134 1.285 . S
C136 H155 0.930 . S
C137 C140 1.424 . S
C137 C142 1.245 . S
C137 C143 1.428 . S
C138 C141 1.260 . S
C138 C142 1.477 . S
C138 H156 0.932 . S
C139 C140 1.384 . S
C139 C141 1.479 . S
C139 H157 0.929 . S
C140 C137 1.424 . S
C140 C139 1.384 . S
C140 H158 0.928 . S
C141 C138 1.260 . S
C141 C139 1.479 . S
C142 C137 1.245 . S
C142 C138 1.477 . S
C142 H159 0.932 . S
C143 U126 2.882 . S
C143 C137 1.428 . S
C143 O146 1.301 . S
C143 O147 1.282 . S
O144 U126 2.441 . S
O144 C130 1.249 . S
O145 U126 2.420 . S
O145 C130 1.202 . S
O146 U126 2.455 . S
O146 C143 1.301 . S
O147 U126 2.449 . S
O147 C143 1.282 . S
H148 C121 0.931 . S
H149 C123 0.929 . S
H150 C124 0.930 . S
H151 C125 0.931 . S
H152 C132 0.932 . S
H153 C133 0.930 . S
H154 C134 0.929 . S
H155 C136 0.930 . S
H156 C138 0.932 . S
H157 C139 0.929 . S
H158 C140 0.928 . S
H159 C142 0.932 . S
C160 C161 1.264 . S
C160 C165 1.479 . S
C160 C170 1.465 . S
C161 C160 1.264 . S
C161 C163 1.339 . S
C161 H188 0.931 . S
C162 C163 1.395 . S
C162 C164 1.320 . S
C163 C161 1.339 . S
C163 C162 1.395 . S
C163 H189 0.929 . S
C164 C162 1.320 . S
C164 C165 1.405 . S
C164 H190 0.930 . S
C165 C160 1.479 . S
C165 C164 1.405 . S
C165 H191 0.931 . S
U166 O167 2.454 . S
U166 O168 2.458 . S
U166 C169 2.984 . S
U166 C170 2.847 . S
U166 C183 2.882 . S
U166 O184 2.441 . S
U166 O185 2.420 . S
U166 O186 2.455 . S
U166 O187 2.449 . S
O167 U166 2.454 . S
O167 C169 1.353 . S
O168 U166 2.458 . S
O168 C169 1.286 . S
C169 U166 2.984 . S
C169 O167 1.353 . S
C169 O168 1.286 . S
C169 C171 1.363 . S
C170 C160 1.465 . S
C170 U166 2.847 . S
C170 O184 1.249 . S
C170 O185 1.202 . S
C171 C169 1.363 . S
C171 C173 1.408 . S
C171 C176 1.342 . S
C172 C173 1.310 . S
C172 C175 1.461 . S
C172 H192 0.932 . S
C173 C171 1.408 . S
C173 C172 1.310 . S
C173 H193 0.930 . S
C174 C175 1.474 . S
C174 C176 1.285 . S
C174 H194 0.929 . S
C175 C172 1.461 . S
C175 C174 1.474 . S
C176 C171 1.342 . S
C176 C174 1.285 . S
C176 H195 0.930 . S
C177 C180 1.424 . S
C177 C182 1.245 . S
C177 C183 1.428 . S
C178 C181 1.260 . S
C178 C182 1.477 . S
C178 H196 0.932 . S
C179 C180 1.384 . S
C179 C181 1.479 . S
C179 H197 0.929 . S
C180 C177 1.424 . S
C180 C179 1.384 . S
C180 H198 0.928 . S
C181 C178 1.260 . S
C181 C179 1.479 . S
C182 C177 1.245 . S
C182 C178 1.477 . S
C182 H199 0.932 . S
C183 U166 2.882 . S
C183 C177 1.428 . S
C183 O186 1.301 . S
C183 O187 1.282 . S
O184 U166 2.441 . S
O184 C170 1.249 . S
O185 U166 2.420 . S
O185 C170 1.202 . S
O186 U166 2.455 . S
O186 C183 1.301 . S
O187 U166 2.449 . S
O187 C183 1.282 . S
H188 C161 0.931 . S
H189 C163 0.929 . S
H190 C164 0.930 . S
H191 C165 0.931 . S
H192 C172 0.932 . S
H193 C173 0.930 . S
H194 C174 0.929 . S
H195 C176 0.930 . S
H196 C178 0.932 . S
H197 C179 0.929 . S
H198 C180 0.928 . S
H199 C182 0.932 . S
C200 C201 1.264 . S
C200 C205 1.479 . S
C200 C210 1.465 . S
C201 C200 1.264 . S
C201 C203 1.339 . S
C201 H228 0.931 . S
C202 C203 1.395 . S
C202 C204 1.320 . S
C203 C201 1.339 . S
C203 C202 1.395 . S
C203 H229 0.929 . S
C204 C202 1.320 . S
C204 C205 1.405 . S
C204 H230 0.930 . S
C205 C200 1.479 . S
C205 C204 1.405 . S
C205 H231 0.931 . S
U206 O207 2.454 . S
U206 O208 2.458 . S
U206 C209 2.984 . S
U206 C210 2.847 . S
U206 C223 2.882 . S
U206 O224 2.441 . S
U206 O225 2.420 . S
U206 O226 2.455 . S
U206 O227 2.449 . S
O207 U206 2.454 . S
O207 C209 1.353 . S
O208 U206 2.458 . S
O208 C209 1.286 . S
C209 U206 2.984 . S
C209 O207 1.353 . S
C209 O208 1.286 . S
C209 C211 1.363 . S
C210 C200 1.465 . S
C210 U206 2.847 . S
C210 O224 1.249 . S
C210 O225 1.202 . S
C211 C209 1.363 . S
C211 C213 1.408 . S
C211 C216 1.342 . S
C212 C213 1.310 . S
C212 C215 1.461 . S
C212 H232 0.932 . S
C213 C211 1.408 . S
C213 C212 1.310 . S
C213 H233 0.930 . S
C214 C215 1.474 . S
C214 C216 1.285 . S
C214 H234 0.929 . S
C215 C212 1.461 . S
C215 C214 1.474 . S
C216 C211 1.342 . S
C216 C214 1.285 . S
C216 H235 0.930 . S
C217 C220 1.424 . S
C217 C222 1.245 . S
C217 C223 1.428 . S
C218 C221 1.260 . S
C218 C222 1.477 . S
C218 H236 0.932 . S
C219 C220 1.384 . S
C219 C221 1.479 . S
C219 H237 0.929 . S
C220 C217 1.424 . S
C220 C219 1.384 . S
C220 H238 0.928 . S
C221 C218 1.260 . S
C221 C219 1.479 . S
C222 C217 1.245 . S
C222 C218 1.477 . S
C222 H239 0.932 . S
C223 U206 2.882 . S
C223 C217 1.428 . S
C223 O226 1.301 . S
C223 O227 1.282 . S
O224 U206 2.441 . S
O224 C210 1.249 . S
O225 U206 2.420 . S
O225 C210 1.202 . S
O226 U206 2.455 . S
O226 C223 1.301 . S
O227 U206 2.449 . S
O227 C223 1.282 . S
H228 C201 0.931 . S
H229 C203 0.929 . S
H230 C204 0.930 . S
H231 C205 0.931 . S
H232 C212 0.932 . S
H233 C213 0.930 . S
H234 C214 0.929 . S
H235 C216 0.930 . S
H236 C218 0.932 . S
H237 C219 0.929 . S
H238 C220 0.928 . S
H239 C222 0.932 . S
C240 C241 1.264 . S
C240 C245 1.479 . S
C240 C250 1.465 . S
C241 C240 1.264 . S
C241 C243 1.339 . S
C241 H268 0.931 . S
C242 C243 1.395 . S
C242 C244 1.320 . S
C243 C241 1.339 . S
C243 C242 1.395 . S
C243 H269 0.929 . S
C244 C242 1.320 . S
C244 C245 1.405 . S
C244 H270 0.930 . S
C245 C240 1.479 . S
C245 C244 1.405 . S
C245 H271 0.931 . S
U246 O247 2.454 . S
U246 O248 2.458 . S
U246 C249 2.984 . S
U246 C250 2.847 . S
U246 C263 2.882 . S
U246 O264 2.441 . S
U246 O265 2.420 . S
U246 O266 2.455 . S
U246 O267 2.449 . S
O247 U246 2.454 . S
O247 C249 1.353 . S
O248 U246 2.458 . S
O248 C249 1.286 . S
C249 U246 2.984 . S
C249 O247 1.353 . S
C249 O248 1.286 . S
C249 C251 1.363 . S
C250 C240 1.465 . S
C250 U246 2.847 . S
C250 O264 1.249 . S
C250 O265 1.202 . S
C251 C249 1.363 . S
C251 C253 1.408 . S
C251 C256 1.342 . S
C252 C253 1.310 . S
C252 C255 1.461 . S
C252 H272 0.932 . S
C253 C251 1.408 . S
C253 C252 1.310 . S
C253 H273 0.930 . S
C254 C255 1.474 . S
C254 C256 1.285 . S
C254 H274 0.929 . S
C255 C252 1.461 . S
C255 C254 1.474 . S
C256 C251 1.342 . S
C256 C254 1.285 . S
C256 H275 0.930 . S
C257 C260 1.424 . S
C257 C262 1.245 . S
C257 C263 1.428 . S
C258 C261 1.260 . S
C258 C262 1.477 . S
C258 H276 0.932 . S
C259 C260 1.384 . S
C259 C261 1.479 . S
C259 H277 0.929 . S
C260 C257 1.424 . S
C260 C259 1.384 . S
C260 H278 0.928 . S
C261 C258 1.260 . S
C261 C259 1.479 . S
C262 C257 1.245 . S
C262 C258 1.477 . S
C262 H279 0.932 . S
C263 U246 2.882 . S
C263 C257 1.428 . S
C263 O266 1.301 . S
C263 O267 1.282 . S
O264 U246 2.441 . S
O264 C250 1.249 . S
O265 U246 2.420 . S
O265 C250 1.202 . S
O266 U246 2.455 . S
O266 C263 1.301 . S
O267 U246 2.449 . S
O267 C263 1.282 . S
H268 C241 0.931 . S
H269 C243 0.929 . S
H270 C244 0.930 . S
H271 C245 0.931 . S
H272 C252 0.932 . S
H273 C253 0.930 . S
H274 C254 0.929 . S
H275 C256 0.930 . S
H276 C258 0.932 . S
H277 C259 0.929 . S
H278 C260 0.928 . S
H279 C262 0.932 . S
C280 C281 1.264 . S
C280 C285 1.479 . S
C280 C290 1.465 . S
C281 C280 1.264 . S
C281 C283 1.339 . S
C281 H308 0.931 . S
C282 C283 1.395 . S
C282 C284 1.320 . S
C283 C281 1.339 . S
C283 C282 1.395 . S
C283 H309 0.929 . S
C284 C282 1.320 . S
C284 C285 1.405 . S
C284 H310 0.930 . S
C285 C280 1.479 . S
C285 C284 1.405 . S
C285 H311 0.931 . S
U286 O287 2.454 . S
U286 O288 2.458 . S
U286 C289 2.984 . S
U286 C290 2.847 . S
U286 C303 2.882 . S
U286 O304 2.441 . S
U286 O305 2.420 . S
U286 O306 2.455 . S
U286 O307 2.449 . S
O287 U286 2.454 . S
O287 C289 1.353 . S
O288 U286 2.458 . S
O288 C289 1.286 . S
C289 U286 2.984 . S
C289 O287 1.353 . S
C289 O288 1.286 . S
C289 C291 1.363 . S
C290 C280 1.465 . S
C290 U286 2.847 . S
C290 O304 1.249 . S
C290 O305 1.202 . S
C291 C289 1.363 . S
C291 C293 1.408 . S
C291 C296 1.342 . S
C292 C293 1.310 . S
C292 C295 1.461 . S
C292 H312 0.932 . S
C293 C291 1.408 . S
C293 C292 1.310 . S
C293 H313 0.930 . S
C294 C295 1.474 . S
C294 C296 1.285 . S
C294 H314 0.929 . S
C295 C292 1.461 . S
C295 C294 1.474 . S
C296 C291 1.342 . S
C296 C294 1.285 . S
C296 H315 0.930 . S
C297 C300 1.424 . S
C297 C302 1.245 . S
C297 C303 1.428 . S
C298 C301 1.260 . S
C298 C302 1.477 . S
C298 H316 0.932 . S
C299 C300 1.384 . S
C299 C301 1.479 . S
C299 H317 0.929 . S
C300 C297 1.424 . S
C300 C299 1.384 . S
C300 H318 0.928 . S
C301 C298 1.260 . S
C301 C299 1.479 . S
C302 C297 1.245 . S
C302 C298 1.477 . S
C302 H319 0.932 . S
C303 U286 2.882 . S
C303 C297 1.428 . S
C303 O306 1.301 . S
C303 O307 1.282 . S
O304 U286 2.441 . S
O304 C290 1.249 . S
O305 U286 2.420 . S
O305 C290 1.202 . S
O306 U286 2.455 . S
O306 C303 1.301 . S
O307 U286 2.449 . S
O307 C303 1.282 . S
H308 C281 0.931 . S
H309 C283 0.929 . S
H310 C284 0.930 . S
H311 C285 0.931 . S
H312 C292 0.932 . S
H313 C293 0.930 . S
H314 C294 0.929 . S
H315 C296 0.930 . S
H316 C298 0.932 . S
H317 C299 0.929 . S
H318 C300 0.928 . S
H319 C302 0.932 . S
C320 C321 1.264 . S
C320 C325 1.479 . S
C320 C330 1.465 . S
C321 C320 1.264 . S
C321 C323 1.339 . S
C321 H348 0.931 . S
C322 C323 1.395 . S
C322 C324 1.320 . S
C323 C321 1.339 . S
C323 C322 1.395 . S
C323 H349 0.929 . S
C324 C322 1.320 . S
C324 C325 1.405 . S
C324 H350 0.930 . S
C325 C320 1.479 . S
C325 C324 1.405 . S
C325 H351 0.931 . S
U326 O327 2.454 . S
U326 O328 2.458 . S
U326 C329 2.984 . S
U326 C330 2.847 . S
U326 C343 2.882 . S
U326 O344 2.441 . S
U326 O345 2.420 . S
U326 O346 2.455 . S
U326 O347 2.449 . S
O327 U326 2.454 . S
O327 C329 1.353 . S
O328 U326 2.458 . S
O328 C329 1.286 . S
C329 U326 2.984 . S
C329 O327 1.353 . S
C329 O328 1.286 . S
C329 C331 1.363 . S
C330 C320 1.465 . S
C330 U326 2.847 . S
C330 O344 1.249 . S
C330 O345 1.202 . S
C331 C329 1.363 . S
C331 C333 1.408 . S
C331 C336 1.342 . S
C332 C333 1.310 . S
C332 C335 1.461 . S
C332 H352 0.932 . S
C333 C331 1.408 . S
C333 C332 1.310 . S
C333 H353 0.930 . S
C334 C335 1.474 . S
C334 C336 1.285 . S
C334 H354 0.929 . S
C335 C332 1.461 . S
C335 C334 1.474 . S
C336 C331 1.342 . S
C336 C334 1.285 . S
C336 H355 0.930 . S
C337 C340 1.424 . S
C337 C342 1.245 . S
C337 C343 1.428 . S
C338 C341 1.260 . S
C338 C342 1.477 . S
C338 H356 0.932 . S
C339 C340 1.384 . S
C339 C341 1.479 . S
C339 H357 0.929 . S
C340 C337 1.424 . S
C340 C339 1.384 . S
C340 H358 0.928 . S
C341 C338 1.260 . S
C341 C339 1.479 . S
C342 C337 1.245 . S
C342 C338 1.477 . S
C342 H359 0.932 . S
C343 U326 2.882 . S
C343 C337 1.428 . S
C343 O346 1.301 . S
C343 O347 1.282 . S
O344 U326 2.441 . S
O344 C330 1.249 . S
O345 U326 2.420 . S
O345 C330 1.202 . S
O346 U326 2.455 . S
O346 C343 1.301 . S
O347 U326 2.449 . S
O347 C343 1.282 . S
H348 C321 0.931 . S
H349 C323 0.929 . S
H350 C324 0.930 . S
H351 C325 0.931 . S
H352 C332 0.932 . S
H353 C333 0.930 . S
H354 C334 0.929 . S
H355 C336 0.930 . S
H356 C338 0.932 . S
H357 C339 0.929 . S
H358 C340 0.928 . S
H359 C342 0.932 . S
C360 C361 1.264 . S
C360 C365 1.479 . S
C360 C370 1.465 . S
C361 C360 1.264 . S
C361 C363 1.339 . S
C361 H388 0.931 . S
C362 C363 1.395 . S
C362 C364 1.320 . S
C363 C361 1.339 . S
C363 C362 1.395 . S
C363 H389 0.929 . S
C364 C362 1.320 . S
C364 C365 1.405 . S
C364 H390 0.930 . S
C365 C360 1.479 . S
C365 C364 1.405 . S
C365 H391 0.931 . S
U366 O367 2.454 . S
U366 O368 2.458 . S
U366 C369 2.984 . S
U366 C370 2.847 . S
U366 C383 2.882 . S
U366 O384 2.441 . S
U366 O385 2.420 . S
U366 O386 2.455 . S
U366 O387 2.449 . S
O367 U366 2.454 . S
O367 C369 1.353 . S
O368 U366 2.458 . S
O368 C369 1.286 . S
C369 U366 2.984 . S
C369 O367 1.353 . S
C369 O368 1.286 . S
C369 C371 1.363 . S
C370 C360 1.465 . S
C370 U366 2.847 . S
C370 O384 1.249 . S
C370 O385 1.202 . S
C371 C369 1.363 . S
C371 C373 1.408 . S
C371 C376 1.342 . S
C372 C373 1.310 . S
C372 C375 1.461 . S
C372 H392 0.932 . S
C373 C371 1.408 . S
C373 C372 1.310 . S
C373 H393 0.930 . S
C374 C375 1.474 . S
C374 C376 1.285 . S
C374 H394 0.929 . S
C375 C372 1.461 . S
C375 C374 1.474 . S
C376 C371 1.342 . S
C376 C374 1.285 . S
C376 H395 0.930 . S
C377 C380 1.424 . S
C377 C382 1.245 . S
C377 C383 1.428 . S
C378 C381 1.260 . S
C378 C382 1.477 . S
C378 H396 0.932 . S
C379 C380 1.384 . S
C379 C381 1.479 . S
C379 H397 0.929 . S
C380 C377 1.424 . S
C380 C379 1.384 . S
C380 H398 0.928 . S
C381 C378 1.260 . S
C381 C379 1.479 . S
C382 C377 1.245 . S
C382 C378 1.477 . S
C382 H399 0.932 . S
C383 U366 2.882 . S
C383 C377 1.428 . S
C383 O386 1.301 . S
C383 O387 1.282 . S
O384 U366 2.441 . S
O384 C370 1.249 . S
O385 U366 2.420 . S
O385 C370 1.202 . S
O386 U366 2.455 . S
O386 C383 1.301 . S
O387 U366 2.449 . S
O387 C383 1.282 . S
H388 C361 0.931 . S
H389 C363 0.929 . S
H390 C364 0.930 . S
H391 C365 0.931 . S
H392 C372 0.932 . S
H393 C373 0.930 . S
H394 C374 0.929 . S
H395 C376 0.930 . S
H396 C378 0.932 . S
H397 C379 0.929 . S
H398 C380 0.928 . S
H399 C382 0.932 . S
C400 C401 1.264 . S
C400 C405 1.479 . S
C400 C410 1.465 . S
C401 C400 1.264 . S
C401 C403 1.339 . S
C401 H428 0.931 . S
C402 C403 1.395 . S
C402 C404 1.320 . S
C403 C401 1.339 . S
C403 C402 1.395 . S
C403 H429 0.929 . S
C404 C402 1.320 . S
C404 C405 1.405 . S
C404 H430 0.930 . S
C405 C400 1.479 . S
C405 C404 1.405 . S
C405 H431 0.931 . S
U406 O407 2.454 . S
U406 O408 2.458 . S
U406 C409 2.984 . S
U406 C410 2.847 . S
U406 C423 2.882 . S
U406 O424 2.441 . S
U406 O425 2.420 . S
U406 O426 2.455 . S
U406 O427 2.449 . S
O407 U406 2.454 . S
O407 C409 1.353 . S
O408 U406 2.458 . S
O408 C409 1.286 . S
C409 U406 2.984 . S
C409 O407 1.353 . S
C409 O408 1.286 . S
C409 C411 1.363 . S
C410 C400 1.465 . S
C410 U406 2.847 . S
C410 O424 1.249 . S
C410 O425 1.202 . S
C411 C409 1.363 . S
C411 C413 1.408 . S
C411 C416 1.342 . S
C412 C413 1.310 . S
C412 C415 1.461 . S
C412 H432 0.932 . S
C413 C411 1.408 . S
C413 C412 1.310 . S
C413 H433 0.930 . S
C414 C415 1.474 . S
C414 C416 1.285 . S
C414 H434 0.929 . S
C415 C412 1.461 . S
C415 C414 1.474 . S
C416 C411 1.342 . S
C416 C414 1.285 . S
C416 H435 0.930 . S
C417 C420 1.424 . S
C417 C422 1.245 . S
C417 C423 1.428 . S
C418 C421 1.260 . S
C418 C422 1.477 . S
C418 H436 0.932 . S
C419 C420 1.384 . S
C419 C421 1.479 . S
C419 H437 0.929 . S
C420 C417 1.424 . S
C420 C419 1.384 . S
C420 H438 0.928 . S
C421 C418 1.260 . S
C421 C419 1.479 . S
C422 C417 1.245 . S
C422 C418 1.477 . S
C422 H439 0.932 . S
C423 U406 2.882 . S
C423 C417 1.428 . S
C423 O426 1.301 . S
C423 O427 1.282 . S
O424 U406 2.441 . S
O424 C410 1.249 . S
O425 U406 2.420 . S
O425 C410 1.202 . S
O426 U406 2.455 . S
O426 C423 1.301 . S
O427 U406 2.449 . S
O427 C423 1.282 . S
H428 C401 0.931 . S
H429 C403 0.929 . S
H430 C404 0.930 . S
H431 C405 0.931 . S
H432 C412 0.932 . S
H433 C413 0.930 . S
H434 C414 0.929 . S
H435 C416 0.930 . S
H436 C418 0.932 . S
H437 C419 0.929 . S
H438 C420 0.928 . S
H439 C422 0.932 . S
C440 C441 1.264 . S
C440 C445 1.479 . S
C440 C450 1.465 . S
C441 C440 1.264 . S
C441 C443 1.339 . S
C441 H468 0.931 . S
C442 C443 1.395 . S
C442 C444 1.320 . S
C443 C441 1.339 . S
C443 C442 1.395 . S
C443 H469 0.929 . S
C444 C442 1.320 . S
C444 C445 1.405 . S
C444 H470 0.930 . S
C445 C440 1.479 . S
C445 C444 1.405 . S
C445 H471 0.931 . S
U446 O447 2.454 . S
U446 O448 2.458 . S
U446 C449 2.984 . S
U446 C450 2.847 . S
U446 C463 2.882 . S
U446 O464 2.441 . S
U446 O465 2.420 . S
U446 O466 2.455 . S
U446 O467 2.449 . S
O447 U446 2.454 . S
O447 C449 1.353 . S
O448 U446 2.458 . S
O448 C449 1.286 . S
C449 U446 2.984 . S
C449 O447 1.353 . S
C449 O448 1.286 . S
C449 C451 1.363 . S
C450 C440 1.465 . S
C450 U446 2.847 . S
C450 O464 1.249 . S
C450 O465 1.202 . S
C451 C449 1.363 . S
C451 C453 1.408 . S
C451 C456 1.342 . S
C452 C453 1.310 . S
C452 C455 1.461 . S
C452 H472 0.932 . S
C453 C451 1.408 . S
C453 C452 1.310 . S
C453 H473 0.930 . S
C454 C455 1.474 . S
C454 C456 1.285 . S
C454 H474 0.929 . S
C455 C452 1.461 . S
C455 C454 1.474 . S
C456 C451 1.342 . S
C456 C454 1.285 . S
C456 H475 0.930 . S
C457 C460 1.424 . S
C457 C462 1.245 . S
C457 C463 1.428 . S
C458 C461 1.260 . S
C458 C462 1.477 . S
C458 H476 0.932 . S
C459 C460 1.384 . S
C459 C461 1.479 . S
C459 H477 0.929 . S
C460 C457 1.424 . S
C460 C459 1.384 . S
C460 H478 0.928 . S
C461 C458 1.260 . S
C461 C459 1.479 . S
C462 C457 1.245 . S
C462 C458 1.477 . S
C462 H479 0.932 . S
C463 U446 2.882 . S
C463 C457 1.428 . S
C463 O466 1.301 . S
C463 O467 1.282 . S
O464 U446 2.441 . S
O464 C450 1.249 . S
O465 U446 2.420 . S
O465 C450 1.202 . S
O466 U446 2.455 . S
O466 C463 1.301 . S
O467 U446 2.449 . S
O467 C463 1.282 . S
H468 C441 0.931 . S
H469 C443 0.929 . S
H470 C444 0.930 . S
H471 C445 0.931 . S
H472 C452 0.932 . S
H473 C453 0.930 . S
H474 C454 0.929 . S
H475 C456 0.930 . S
H476 C458 0.932 . S
H477 C459 0.929 . S
H478 C460 0.928 . S
H479 C462 0.932 . S
C480 C481 1.264 . S
C480 C485 1.479 . S
C480 C490 1.465 . S
C481 C480 1.264 . S
C481 C483 1.339 . S
C481 H508 0.931 . S
C482 C483 1.395 . S
C482 C484 1.320 . S
C483 C481 1.339 . S
C483 C482 1.395 . S
C483 H509 0.929 . S
C484 C482 1.320 . S
C484 C485 1.405 . S
C484 H510 0.930 . S
C485 C480 1.479 . S
C485 C484 1.405 . S
C485 H511 0.931 . S
U486 O487 2.454 . S
U486 O488 2.458 . S
U486 C489 2.984 . S
U486 C490 2.847 . S
U486 C503 2.882 . S
U486 O504 2.441 . S
U486 O505 2.420 . S
U486 O506 2.455 . S
U486 O507 2.449 . S
O487 U486 2.454 . S
O487 C489 1.353 . S
O488 U486 2.458 . S
O488 C489 1.286 . S
C489 U486 2.984 . S
C489 O487 1.353 . S
C489 O488 1.286 . S
C489 C491 1.363 . S
C490 C480 1.465 . S
C490 U486 2.847 . S
C490 O504 1.249 . S
C490 O505 1.202 . S
C491 C489 1.363 . S
C491 C493 1.408 . S
C491 C496 1.342 . S
C492 C493 1.310 . S
C492 C495 1.461 . S
C492 H512 0.932 . S
C493 C491 1.408 . S
C493 C492 1.310 . S
C493 H513 0.930 . S
C494 C495 1.474 . S
C494 C496 1.285 . S
C494 H514 0.929 . S
C495 C492 1.461 . S
C495 C494 1.474 . S
C496 C491 1.342 . S
C496 C494 1.285 . S
C496 H515 0.930 . S
C497 C500 1.424 . S
C497 C502 1.245 . S
C497 C503 1.428 . S
C498 C501 1.260 . S
C498 C502 1.477 . S
C498 H516 0.932 . S
C499 C500 1.384 . S
C499 C501 1.479 . S
C499 H517 0.929 . S
C500 C497 1.424 . S
C500 C499 1.384 . S
C500 H518 0.928 . S
C501 C498 1.260 . S
C501 C499 1.479 . S
C502 C497 1.245 . S
C502 C498 1.477 . S
C502 H519 0.932 . S
C503 U486 2.882 . S
C503 C497 1.428 . S
C503 O506 1.301 . S
C503 O507 1.282 . S
O504 U486 2.441 . S
O504 C490 1.249 . S
O505 U486 2.420 . S
O505 C490 1.202 . S
O506 U486 2.455 . S
O506 C503 1.301 . S
O507 U486 2.449 . S
O507 C503 1.282 . S
H508 C481 0.931 . S
H509 C483 0.929 . S
H510 C484 0.930 . S
H511 C485 0.931 . S
H512 C492 0.932 . S
H513 C493 0.930 . S
H514 C494 0.929 . S
H515 C496 0.930 . S
H516 C498 0.932 . S
H517 C499 0.929 . S
H518 C500 0.928 . S
H519 C502 0.932 . S
C520 C521 1.264 . S
C520 C525 1.479 . S
C520 C530 1.465 . S
C521 C520 1.264 . S
C521 C523 1.339 . S
C521 H548 0.931 . S
C522 C523 1.395 . S
C522 C524 1.320 . S
C523 C521 1.339 . S
C523 C522 1.395 . S
C523 H549 0.929 . S
C524 C522 1.320 . S
C524 C525 1.405 . S
C524 H550 0.930 . S
C525 C520 1.479 . S
C525 C524 1.405 . S
C525 H551 0.931 . S
U526 O527 2.454 . S
U526 O528 2.458 . S
U526 C529 2.984 . S
U526 C530 2.847 . S
U526 C543 2.882 . S
U526 O544 2.441 . S
U526 O545 2.420 . S
U526 O546 2.455 . S
U526 O547 2.449 . S
O527 U526 2.454 . S
O527 C529 1.353 . S
O528 U526 2.458 . S
O528 C529 1.286 . S
C529 U526 2.984 . S
C529 O527 1.353 . S
C529 O528 1.286 . S
C529 C531 1.363 . S
C530 C520 1.465 . S
C530 U526 2.847 . S
C530 O544 1.249 . S
C530 O545 1.202 . S
C531 C529 1.363 . S
C531 C533 1.408 . S
C531 C536 1.342 . S
C532 C533 1.310 . S
C532 C535 1.461 . S
C532 H552 0.932 . S
C533 C531 1.408 . S
C533 C532 1.310 . S
C533 H553 0.930 . S
C534 C535 1.474 . S
C534 C536 1.285 . S
C534 H554 0.929 . S
C535 C532 1.461 . S
C535 C534 1.474 . S
C536 C531 1.342 . S
C536 C534 1.285 . S
C536 H555 0.930 . S
C537 C540 1.424 . S
C537 C542 1.245 . S
C537 C543 1.428 . S
C538 C541 1.260 . S
C538 C542 1.477 . S
C538 H556 0.932 . S
C539 C540 1.384 . S
C539 C541 1.479 . S
C539 H557 0.929 . S
C540 C537 1.424 . S
C540 C539 1.384 . S
C540 H558 0.928 . S
C541 C538 1.260 . S
C541 C539 1.479 . S
C542 C537 1.245 . S
C542 C538 1.477 . S
C542 H559 0.932 . S
C543 U526 2.882 . S
C543 C537 1.428 . S
C543 O546 1.301 . S
C543 O547 1.282 . S
O544 U526 2.441 . S
O544 C530 1.249 . S
O545 U526 2.420 . S
O545 C530 1.202 . S
O546 U526 2.455 . S
O546 C543 1.301 . S
O547 U526 2.449 . S
O547 C543 1.282 . S
H548 C521 0.931 . S
H549 C523 0.929 . S
H550 C524 0.930 . S
H551 C525 0.931 . S
H552 C532 0.932 . S
H553 C533 0.930 . S
H554 C534 0.929 . S
H555 C536 0.930 . S
H556 C538 0.932 . S
H557 C539 0.929 . S
H558 C540 0.928 . S
H559 C542 0.932 . S
C560 C561 1.264 . S
C560 C565 1.479 . S
C560 C570 1.465 . S
C561 C560 1.264 . S
C561 C563 1.339 . S
C561 H588 0.931 . S
C562 C563 1.395 . S
C562 C564 1.320 . S
C563 C561 1.339 . S
C563 C562 1.395 . S
C563 H589 0.929 . S
C564 C562 1.320 . S
C564 C565 1.405 . S
C564 H590 0.930 . S
C565 C560 1.479 . S
C565 C564 1.405 . S
C565 H591 0.931 . S
U566 O567 2.454 . S
U566 O568 2.458 . S
U566 C569 2.984 . S
U566 C570 2.847 . S
U566 C583 2.882 . S
U566 O584 2.441 . S
U566 O585 2.420 . S
U566 O586 2.455 . S
U566 O587 2.449 . S
O567 U566 2.454 . S
O567 C569 1.353 . S
O568 U566 2.458 . S
O568 C569 1.286 . S
C569 U566 2.984 . S
C569 O567 1.353 . S
C569 O568 1.286 . S
C569 C571 1.363 . S
C570 C560 1.465 . S
C570 U566 2.847 . S
C570 O584 1.249 . S
C570 O585 1.202 . S
C571 C569 1.363 . S
C571 C573 1.408 . S
C571 C576 1.342 . S
C572 C573 1.310 . S
C572 C575 1.461 . S
C572 H592 0.932 . S
C573 C571 1.408 . S
C573 C572 1.310 . S
C573 H593 0.930 . S
C574 C575 1.474 . S
C574 C576 1.285 . S
C574 H594 0.929 . S
C575 C572 1.461 . S
C575 C574 1.474 . S
C576 C571 1.342 . S
C576 C574 1.285 . S
C576 H595 0.930 . S
C577 C580 1.424 . S
C577 C582 1.245 . S
C577 C583 1.428 . S
C578 C581 1.260 . S
C578 C582 1.477 . S
C578 H596 0.932 . S
C579 C580 1.384 . S
C579 C581 1.479 . S
C579 H597 0.929 . S
C580 C577 1.424 . S
C580 C579 1.384 . S
C580 H598 0.928 . S
C581 C578 1.260 . S
C581 C579 1.479 . S
C582 C577 1.245 . S
C582 C578 1.477 . S
C582 H599 0.932 . S
C583 U566 2.882 . S
C583 C577 1.428 . S
C583 O586 1.301 . S
C583 O587 1.282 . S
O584 U566 2.441 . S
O584 C570 1.249 . S
O585 U566 2.420 . S
O585 C570 1.202 . S
O586 U566 2.455 . S
O586 C583 1.301 . S
O587 U566 2.449 . S
O587 C583 1.282 . S
H588 C561 0.931 . S
H589 C563 0.929 . S
H590 C564 0.930 . S
H591 C565 0.931 . S
H592 C572 0.932 . S
H593 C573 0.930 . S
H594 C574 0.929 . S
H595 C576 0.930 . S
H596 C578 0.932 . S
H597 C579 0.929 . S
H598 C580 0.928 . S
H599 C582 0.932 . S
C600 C601 1.264 . S
C600 C605 1.479 . S
C600 C610 1.465 . S
C601 C600 1.264 . S
C601 C603 1.339 . S
C601 H628 0.931 . S
C602 C603 1.395 . S
C602 C604 1.320 . S
C603 C601 1.339 . S
C603 C602 1.395 . S
C603 H629 0.929 . S
C604 C602 1.320 . S
C604 C605 1.405 . S
C604 H630 0.930 . S
C605 C600 1.479 . S
C605 C604 1.405 . S
C605 H631 0.931 . S
U606 O607 2.454 . S
U606 O608 2.458 . S
U606 C609 2.984 . S
U606 C610 2.847 . S
U606 C623 2.882 . S
U606 O624 2.441 . S
U606 O625 2.420 . S
U606 O626 2.455 . S
U606 O627 2.449 . S
O607 U606 2.454 . S
O607 C609 1.353 . S
O608 U606 2.458 . S
O608 C609 1.286 . S
C609 U606 2.984 . S
C609 O607 1.353 . S
C609 O608 1.286 . S
C609 C611 1.363 . S
C610 C600 1.465 . S
C610 U606 2.847 . S
C610 O624 1.249 . S
C610 O625 1.202 . S
C611 C609 1.363 . S
C611 C613 1.408 . S
C611 C616 1.342 . S
C612 C613 1.310 . S
C612 C615 1.461 . S
C612 H632 0.932 . S
C613 C611 1.408 . S
C613 C612 1.310 . S
C613 H633 0.930 . S
C614 C615 1.474 . S
C614 C616 1.285 . S
C614 H634 0.929 . S
C615 C612 1.461 . S
C615 C614 1.474 . S
C616 C611 1.342 . S
C616 C614 1.285 . S
C616 H635 0.930 . S
C617 C620 1.424 . S
C617 C622 1.245 . S
C617 C623 1.428 . S
C618 C621 1.260 . S
C618 C622 1.477 . S
C618 H636 0.932 . S
C619 C620 1.384 . S
C619 C621 1.479 . S
C619 H637 0.929 . S
C620 C617 1.424 . S
C620 C619 1.384 . S
C620 H638 0.928 . S
C621 C618 1.260 . S
C621 C619 1.479 . S
C622 C617 1.245 . S
C622 C618 1.477 . S
C622 H639 0.932 . S
C623 U606 2.882 . S
C623 C617 1.428 . S
C623 O626 1.301 . S
C623 O627 1.282 . S
O624 U606 2.441 . S
O624 C610 1.249 . S
O625 U606 2.420 . S
O625 C610 1.202 . S
O626 U606 2.455 . S
O626 C623 1.301 . S
O627 U606 2.449 . S
O627 C623 1.282 . S
H628 C601 0.931 . S
H629 C603 0.929 . S
H630 C604 0.930 . S
H631 C605 0.931 . S
H632 C612 0.932 . S
H633 C613 0.930 . S
H634 C614 0.929 . S
H635 C616 0.930 . S
H636 C618 0.932 . S
H637 C619 0.929 . S
H638 C620 0.928 . S
H639 C622 0.932 . S
C640 C641 1.264 . S
C640 C645 1.479 . S
C640 C650 1.465 . S
C641 C640 1.264 . S
C641 C643 1.339 . S
C641 H668 0.931 . S
C642 C643 1.395 . S
C642 C644 1.320 . S
C643 C641 1.339 . S
C643 C642 1.395 . S
C643 H669 0.929 . S
C644 C642 1.320 . S
C644 C645 1.405 . S
C644 H670 0.930 . S
C645 C640 1.479 . S
C645 C644 1.405 . S
C645 H671 0.931 . S
U646 O647 2.454 . S
U646 O648 2.458 . S
U646 C649 2.984 . S
U646 C650 2.847 . S
U646 C663 2.882 . S
U646 O664 2.441 . S
U646 O665 2.420 . S
U646 O666 2.455 . S
U646 O667 2.449 . S
O647 U646 2.454 . S
O647 C649 1.353 . S
O648 U646 2.458 . S
O648 C649 1.286 . S
C649 U646 2.984 . S
C649 O647 1.353 . S
C649 O648 1.286 . S
C649 C651 1.363 . S
C650 C640 1.465 . S
C650 U646 2.847 . S
C650 O664 1.249 . S
C650 O665 1.202 . S
C651 C649 1.363 . S
C651 C653 1.408 . S
C651 C656 1.342 . S
C652 C653 1.310 . S
C652 C655 1.461 . S
C652 H672 0.932 . S
C653 C651 1.408 . S
C653 C652 1.310 . S
C653 H673 0.930 . S
C654 C655 1.474 . S
C654 C656 1.285 . S
C654 H674 0.929 . S
C655 C652 1.461 . S
C655 C654 1.474 . S
C656 C651 1.342 . S
C656 C654 1.285 . S
C656 H675 0.930 . S
C657 C660 1.424 . S
C657 C662 1.245 . S
C657 C663 1.428 . S
C658 C661 1.260 . S
C658 C662 1.477 . S
C658 H676 0.932 . S
C659 C660 1.384 . S
C659 C661 1.479 . S
C659 H677 0.929 . S
C660 C657 1.424 . S
C660 C659 1.384 . S
C660 H678 0.928 . S
C661 C658 1.260 . S
C661 C659 1.479 . S
C662 C657 1.245 . S
C662 C658 1.477 . S
C662 H679 0.932 . S
C663 U646 2.882 . S
C663 C657 1.428 . S
C663 O666 1.301 . S
C663 O667 1.282 . S
O664 U646 2.441 . S
O664 C650 1.249 . S
O665 U646 2.420 . S
O665 C650 1.202 . S
O666 U646 2.455 . S
O666 C663 1.301 . S
O667 U646 2.449 . S
O667 C663 1.282 . S
H668 C641 0.931 . S
H669 C643 0.929 . S
H670 C644 0.930 . S
H671 C645 0.931 . S
H672 C652 0.932 . S
H673 C653 0.930 . S
H674 C654 0.929 . S
H675 C656 0.930 . S
H676 C658 0.932 . S
H677 C659 0.929 . S
H678 C660 0.928 . S
H679 C662 0.932 . S
C680 C681 1.264 . S
C680 C685 1.479 . S
C680 C690 1.465 . S
C681 C680 1.264 . S
C681 C683 1.339 . S
C681 H708 0.931 . S
C682 C683 1.395 . S
C682 C684 1.320 . S
C683 C681 1.339 . S
C683 C682 1.395 . S
C683 H709 0.929 . S
C684 C682 1.320 . S
C684 C685 1.405 . S
C684 H710 0.930 . S
C685 C680 1.479 . S
C685 C684 1.405 . S
C685 H711 0.931 . S
U686 O687 2.454 . S
U686 O688 2.458 . S
U686 C689 2.984 . S
U686 C690 2.847 . S
U686 C703 2.882 . S
U686 O704 2.441 . S
U686 O705 2.420 . S
U686 O706 2.455 . S
U686 O707 2.449 . S
O687 U686 2.454 . S
O687 C689 1.353 . S
O688 U686 2.458 . S
O688 C689 1.286 . S
C689 U686 2.984 . S
C689 O687 1.353 . S
C689 O688 1.286 . S
C689 C691 1.363 . S
C690 C680 1.465 . S
C690 U686 2.847 . S
C690 O704 1.249 . S
C690 O705 1.202 . S
C691 C689 1.363 . S
C691 C693 1.408 . S
C691 C696 1.342 . S
C692 C693 1.310 . S
C692 C695 1.461 . S
C692 H712 0.932 . S
C693 C691 1.408 . S
C693 C692 1.310 . S
C693 H713 0.930 . S
C694 C695 1.474 . S
C694 C696 1.285 . S
C694 H714 0.929 . S
C695 C692 1.461 . S
C695 C694 1.474 . S
C696 C691 1.342 . S
C696 C694 1.285 . S
C696 H715 0.930 . S
C697 C700 1.424 . S
C697 C702 1.245 . S
C697 C703 1.428 . S
C698 C701 1.260 . S
C698 C702 1.477 . S
C698 H716 0.932 . S
C699 C700 1.384 . S
C699 C701 1.479 . S
C699 H717 0.929 . S
C700 C697 1.424 . S
C700 C699 1.384 . S
C700 H718 0.928 . S
C701 C698 1.260 . S
C701 C699 1.479 . S
C702 C697 1.245 . S
C702 C698 1.477 . S
C702 H719 0.932 . S
C703 U686 2.882 . S
C703 C697 1.428 . S
C703 O706 1.301 . S
C703 O707 1.282 . S
O704 U686 2.441 . S
O704 C690 1.249 . S
O705 U686 2.420 . S
O705 C690 1.202 . S
O706 U686 2.455 . S
O706 C703 1.301 . S
O707 U686 2.449 . S
O707 C703 1.282 . S
H708 C681 0.931 . S
H709 C683 0.929 . S
H710 C684 0.930 . S
H711 C685 0.931 . S
H712 C692 0.932 . S
H713 C693 0.930 . S
H714 C694 0.929 . S
H715 C696 0.930 . S
H716 C698 0.932 . S
H717 C699 0.929 . S
H718 C700 0.928 . S
H719 C702 0.932 . S
C720 C721 1.264 . S
C720 C725 1.479 . S
C720 C730 1.465 . S
C721 C720 1.264 . S
C721 C723 1.339 . S
C721 H748 0.931 . S
C722 C723 1.395 . S
C722 C724 1.320 . S
C723 C721 1.339 . S
C723 C722 1.395 . S
C723 H749 0.929 . S
C724 C722 1.320 . S
C724 C725 1.405 . S
C724 H750 0.930 . S
C725 C720 1.479 . S
C725 C724 1.405 . S
C725 H751 0.931 . S
U726 O727 2.454 . S
U726 O728 2.458 . S
U726 C729 2.984 . S
U726 C730 2.847 . S
U726 C743 2.882 . S
U726 O744 2.441 . S
U726 O745 2.420 . S
U726 O746 2.455 . S
U726 O747 2.449 . S
O727 U726 2.454 . S
O727 C729 1.353 . S
O728 U726 2.458 . S
O728 C729 1.286 . S
C729 U726 2.984 . S
C729 O727 1.353 . S
C729 O728 1.286 . S
C729 C731 1.363 . S
C730 C720 1.465 . S
C730 U726 2.847 . S
C730 O744 1.249 . S
C730 O745 1.202 . S
C731 C729 1.363 . S
C731 C733 1.408 . S
C731 C736 1.342 . S
C732 C733 1.310 . S
C732 C735 1.461 . S
C732 H752 0.932 . S
C733 C731 1.408 . S
C733 C732 1.310 . S
C733 H753 0.930 . S
C734 C735 1.474 . S
C734 C736 1.285 . S
C734 H754 0.929 . S
C735 C732 1.461 . S
C735 C734 1.474 . S
C736 C731 1.342 . S
C736 C734 1.285 . S
C736 H755 0.930 . S
C737 C740 1.424 . S
C737 C742 1.245 . S
C737 C743 1.428 . S
C738 C741 1.260 . S
C738 C742 1.477 . S
C738 H756 0.932 . S
C739 C740 1.384 . S
C739 C741 1.479 . S
C739 H757 0.929 . S
C740 C737 1.424 . S
C740 C739 1.384 . S
C740 H758 0.928 . S
C741 C738 1.260 . S
C741 C739 1.479 . S
C742 C737 1.245 . S
C742 C738 1.477 . S
C742 H759 0.932 . S
C743 U726 2.882 . S
C743 C737 1.428 . S
C743 O746 1.301 . S
C743 O747 1.282 . S
O744 U726 2.441 . S
O744 C730 1.249 . S
O745 U726 2.420 . S
O745 C730 1.202 . S
O746 U726 2.455 . S
O746 C743 1.301 . S
O747 U726 2.449 . S
O747 C743 1.282 . S
H748 C721 0.931 . S
H749 C723 0.929 . S
H750 C724 0.930 . S
H751 C725 0.931 . S
H752 C732 0.932 . S
H753 C733 0.930 . S
H754 C734 0.929 . S
H755 C736 0.930 . S
H756 C738 0.932 . S
H757 C739 0.929 . S
H758 C740 0.928 . S
H759 C742 0.932 . S
C760 C761 1.264 . S
C760 C765 1.479 . S
C760 C770 1.465 . S
C761 C760 1.264 . S
C761 C763 1.339 . S
C761 H788 0.931 . S
C762 C763 1.395 . S
C762 C764 1.320 . S
C763 C761 1.339 . S
C763 C762 1.395 . S
C763 H789 0.929 . S
C764 C762 1.320 . S
C764 C765 1.405 . S
C764 H790 0.930 . S
C765 C760 1.479 . S
C765 C764 1.405 . S
C765 H791 0.931 . S
U766 O767 2.454 . S
U766 O768 2.458 . S
U766 C769 2.984 . S
U766 C770 2.847 . S
U766 C783 2.882 . S
U766 O784 2.441 . S
U766 O785 2.420 . S
U766 O786 2.455 . S
U766 O787 2.449 . S
O767 U766 2.454 . S
O767 C769 1.353 . S
O768 U766 2.458 . S
O768 C769 1.286 . S
C769 U766 2.984 . S
C769 O767 1.353 . S
C769 O768 1.286 . S
C769 C771 1.363 . S
C770 C760 1.465 . S
C770 U766 2.847 . S
C770 O784 1.249 . S
C770 O785 1.202 . S
C771 C769 1.363 . S
C771 C773 1.408 . S
C771 C776 1.342 . S
C772 C773 1.310 . S
C772 C775 1.461 . S
C772 H792 0.932 . S
C773 C771 1.408 . S
C773 C772 1.310 . S
C773 H793 0.930 . S
C774 C775 1.474 . S
C774 C776 1.285 . S
C774 H794 0.929 . S
C775 C772 1.461 . S
C775 C774 1.474 . S
C776 C771 1.342 . S
C776 C774 1.285 . S
C776 H795 0.930 . S
C777 C780 1.424 . S
C777 C782 1.245 . S
C777 C783 1.428 . S
C778 C781 1.260 . S
C778 C782 1.477 . S
C778 H796 0.932 . S
C779 C780 1.384 . S
C779 C781 1.479 . S
C779 H797 0.929 . S
C780 C777 1.424 . S
C780 C779 1.384 . S
C780 H798 0.928 . S
C781 C778 1.260 . S
C781 C779 1.479 . S
C782 C777 1.245 . S
C782 C778 1.477 . S
C782 H799 0.932 . S
C783 U766 2.882 . S
C783 C777 1.428 . S
C783 O786 1.301 . S
C783 O787 1.282 . S
O784 U766 2.441 . S
O784 C770 1.249 . S
O785 U766 2.420 . S
O785 C770 1.202 . S
O786 U766 2.455 . S
O786 C783 1.301 . S
O787 U766 2.449 . S
O787 C783 1.282 . S
H788 C761 0.931 . S
H789 C763 0.929 . S
H790 C764 0.930 . S
H791 C765 0.931 . S
H792 C772 0.932 . S
H793 C773 0.930 . S
H794 C774 0.929 . S
H795 C776 0.930 . S
H796 C778 0.932 . S
H797 C779 0.929 . S
H798 C780 0.928 . S
H799 C782 0.932 . S
C800 C801 1.264 . S
C800 C805 1.479 . S
C800 C810 1.465 . S
C801 C800 1.264 . S
C801 C803 1.339 . S
C801 H828 0.931 . S
C802 C803 1.395 . S
C802 C804 1.320 . S
C803 C801 1.339 . S
C803 C802 1.395 . S
C803 H829 0.929 . S
C804 C802 1.320 . S
C804 C805 1.405 . S
C804 H830 0.930 . S
C805 C800 1.479 . S
C805 C804 1.405 . S
C805 H831 0.931 . S
U806 O807 2.454 . S
U806 O808 2.458 . S
U806 C809 2.984 . S
U806 C810 2.847 . S
U806 C823 2.882 . S
U806 O824 2.441 . S
U806 O825 2.420 . S
U806 O826 2.455 . S
U806 O827 2.449 . S
O807 U806 2.454 . S
O807 C809 1.353 . S
O808 U806 2.458 . S
O808 C809 1.286 . S
C809 U806 2.984 . S
C809 O807 1.353 . S
C809 O808 1.286 . S
C809 C811 1.363 . S
C810 C800 1.465 . S
C810 U806 2.847 . S
C810 O824 1.249 . S
C810 O825 1.202 . S
C811 C809 1.363 . S
C811 C813 1.408 . S
C811 C816 1.342 . S
C812 C813 1.310 . S
C812 C815 1.461 . S
C812 H832 0.932 . S
C813 C811 1.408 . S
C813 C812 1.310 . S
C813 H833 0.930 . S
C814 C815 1.474 . S
C814 C816 1.285 . S
C814 H834 0.929 . S
C815 C812 1.461 . S
C815 C814 1.474 . S
C816 C811 1.342 . S
C816 C814 1.285 . S
C816 H835 0.930 . S
C817 C820 1.424 . S
C817 C822 1.245 . S
C817 C823 1.428 . S
C818 C821 1.260 . S
C818 C822 1.477 . S
C818 H836 0.932 . S
C819 C820 1.384 . S
C819 C821 1.479 . S
C819 H837 0.929 . S
C820 C817 1.424 . S
C820 C819 1.384 . S
C820 H838 0.928 . S
C821 C818 1.260 . S
C821 C819 1.479 . S
C822 C817 1.245 . S
C822 C818 1.477 . S
C822 H839 0.932 . S
C823 U806 2.882 . S
C823 C817 1.428 . S
C823 O826 1.301 . S
C823 O827 1.282 . S
O824 U806 2.441 . S
O824 C810 1.249 . S
O825 U806 2.420 . S
O825 C810 1.202 . S
O826 U806 2.455 . S
O826 C823 1.301 . S
O827 U806 2.449 . S
O827 C823 1.282 . S
H828 C801 0.931 . S
H829 C803 0.929 . S
H830 C804 0.930 . S
H831 C805 0.931 . S
H832 C812 0.932 . S
H833 C813 0.930 . S
H834 C814 0.929 . S
H835 C816 0.930 . S
H836 C818 0.932 . S
H837 C819 0.929 . S
H838 C820 0.928 . S
H839 C822 0.932 . S
C840 C841 1.264 . S
C840 C845 1.479 . S
C840 C850 1.465 . S
C841 C840 1.264 . S
C841 C843 1.339 . S
C841 H868 0.931 . S
C842 C843 1.395 . S
C842 C844 1.320 . S
C843 C841 1.339 . S
C843 C842 1.395 . S
C843 H869 0.929 . S
C844 C842 1.320 . S
C844 C845 1.405 . S
C844 H870 0.930 . S
C845 C840 1.479 . S
C845 C844 1.405 . S
C845 H871 0.931 . S
U846 O847 2.454 . S
U846 O848 2.458 . S
U846 C849 2.984 . S
U846 C850 2.847 . S
U846 C863 2.882 . S
U846 O864 2.441 . S
U846 O865 2.420 . S
U846 O866 2.455 . S
U846 O867 2.449 . S
O847 U846 2.454 . S
O847 C849 1.353 . S
O848 U846 2.458 . S
O848 C849 1.286 . S
C849 U846 2.984 . S
C849 O847 1.353 . S
C849 O848 1.286 . S
C849 C851 1.363 . S
C850 C840 1.465 . S
C850 U846 2.847 . S
C850 O864 1.249 . S
C850 O865 1.202 . S
C851 C849 1.363 . S
C851 C853 1.408 . S
C851 C856 1.342 . S
C852 C853 1.310 . S
C852 C855 1.461 . S
C852 H872 0.932 . S
C853 C851 1.408 . S
C853 C852 1.310 . S
C853 H873 0.930 . S
C854 C855 1.474 . S
C854 C856 1.285 . S
C854 H874 0.929 . S
C855 C852 1.461 . S
C855 C854 1.474 . S
C856 C851 1.342 . S
C856 C854 1.285 . S
C856 H875 0.930 . S
C857 C860 1.424 . S
C857 C862 1.245 . S
C857 C863 1.428 . S
C858 C861 1.260 . S
C858 C862 1.477 . S
C858 H876 0.932 . S
C859 C860 1.384 . S
C859 C861 1.479 . S
C859 H877 0.929 . S
C860 C857 1.424 . S
C860 C859 1.384 . S
C860 H878 0.928 . S
C861 C858 1.260 . S
C861 C859 1.479 . S
C862 C857 1.245 . S
C862 C858 1.477 . S
C862 H879 0.932 . S
C863 U846 2.882 . S
C863 C857 1.428 . S
C863 O866 1.301 . S
C863 O867 1.282 . S
O864 U846 2.441 . S
O864 C850 1.249 . S
O865 U846 2.420 . S
O865 C850 1.202 . S
O866 U846 2.455 . S
O866 C863 1.301 . S
O867 U846 2.449 . S
O867 C863 1.282 . S
H868 C841 0.931 . S
H869 C843 0.929 . S
H870 C844 0.930 . S
H871 C845 0.931 . S
H872 C852 0.932 . S
H873 C853 0.930 . S
H874 C854 0.929 . S
H875 C856 0.930 . S
H876 C858 0.932 . S
H877 C859 0.929 . S
H878 C860 0.928 . S
H879 C862 0.932 . S
C880 C881 1.264 . S
C880 C885 1.479 . S
C880 C890 1.465 . S
C881 C880 1.264 . S
C881 C883 1.339 . S
C881 H908 0.931 . S
C882 C883 1.395 . S
C882 C884 1.320 . S
C883 C881 1.339 . S
C883 C882 1.395 . S
C883 H909 0.929 . S
C884 C882 1.320 . S
C884 C885 1.405 . S
C884 H910 0.930 . S
C885 C880 1.479 . S
C885 C884 1.405 . S
C885 H911 0.931 . S
U886 O887 2.454 . S
U886 O888 2.458 . S
U886 C889 2.984 . S
U886 C890 2.847 . S
U886 C903 2.882 . S
U886 O904 2.441 . S
U886 O905 2.420 . S
U886 O906 2.455 . S
U886 O907 2.449 . S
O887 U886 2.454 . S
O887 C889 1.353 . S
O888 U886 2.458 . S
O888 C889 1.286 . S
C889 U886 2.984 . S
C889 O887 1.353 . S
C889 O888 1.286 . S
C889 C891 1.363 . S
C890 C880 1.465 . S
C890 U886 2.847 . S
C890 O904 1.249 . S
C890 O905 1.202 . S
C891 C889 1.363 . S
C891 C893 1.408 . S
C891 C896 1.342 . S
C892 C893 1.310 . S
C892 C895 1.461 . S
C892 H912 0.932 . S
C893 C891 1.408 . S
C893 C892 1.310 . S
C893 H913 0.930 . S
C894 C895 1.474 . S
C894 C896 1.285 . S
C894 H914 0.929 . S
C895 C892 1.461 . S
C895 C894 1.474 . S
C896 C891 1.342 . S
C896 C894 1.285 . S
C896 H915 0.930 . S
C897 C900 1.424 . S
C897 C902 1.245 . S
C897 C903 1.428 . S
C898 C901 1.260 . S
C898 C902 1.477 . S
C898 H916 0.932 . S
C899 C900 1.384 . S
C899 C901 1.479 . S
C899 H917 0.929 . S
C900 C897 1.424 . S
C900 C899 1.384 . S
C900 H918 0.928 . S
C901 C898 1.260 . S
C901 C899 1.479 . S
C902 C897 1.245 . S
C902 C898 1.477 . S
C902 H919 0.932 . S
C903 U886 2.882 . S
C903 C897 1.428 . S
C903 O906 1.301 . S
C903 O907 1.282 . S
O904 U886 2.441 . S
O904 C890 1.249 . S
O905 U886 2.420 . S
O905 C890 1.202 . S
O906 U886 2.455 . S
O906 C903 1.301 . S
O907 U886 2.449 . S
O907 C903 1.282 . S
H908 C881 0.931 . S
H909 C883 0.929 . S
H910 C884 0.930 . S
H911 C885 0.931 . S
H912 C892 0.932 . S
H913 C893 0.930 . S
H914 C894 0.929 . S
H915 C896 0.930 . S
H916 C898 0.932 . S
H917 C899 0.929 . S
H918 C900 0.928 . S
H919 C902 0.932 . S
C920 C921 1.264 . S
C920 C925 1.479 . S
C920 C930 1.465 . S
C921 C920 1.264 . S
C921 C923 1.339 . S
C921 H948 0.931 . S
C922 C923 1.395 . S
C922 C924 1.320 . S
C923 C921 1.339 . S
C923 C922 1.395 . S
C923 H949 0.929 . S
C924 C922 1.320 . S
C924 C925 1.405 . S
C924 H950 0.930 . S
C925 C920 1.479 . S
C925 C924 1.405 . S
C925 H951 0.931 . S
U926 O927 2.454 . S
U926 O928 2.458 . S
U926 C929 2.984 . S
U926 C930 2.847 . S
U926 C943 2.882 . S
U926 O944 2.441 . S
U926 O945 2.420 . S
U926 O946 2.455 . S
U926 O947 2.449 . S
O927 U926 2.454 . S
O927 C929 1.353 . S
O928 U926 2.458 . S
O928 C929 1.286 . S
C929 U926 2.984 . S
C929 O927 1.353 . S
C929 O928 1.286 . S
C929 C931 1.363 . S
C930 C920 1.465 . S
C930 U926 2.847 . S
C930 O944 1.249 . S
C930 O945 1.202 . S
C931 C929 1.363 . S
C931 C933 1.408 . S
C931 C936 1.342 . S
C932 C933 1.310 . S
C932 C935 1.461 . S
C932 H952 0.932 . S
C933 C931 1.408 . S
C933 C932 1.310 . S
C933 H953 0.930 . S
C934 C935 1.474 . S
C934 C936 1.285 . S
C934 H954 0.929 . S
C935 C932 1.461 . S
C935 C934 1.474 . S
C936 C931 1.342 . S
C936 C934 1.285 . S
C936 H955 0.930 . S
C937 C940 1.424 . S
C937 C942 1.245 . S
C937 C943 1.428 . S
C938 C941 1.260 . S
C938 C942 1.477 . S
C938 H956 0.932 . S
C939 C940 1.384 . S
C939 C941 1.479 . S
C939 H957 0.929 . S
C940 C937 1.424 . S
C940 C939 1.384 . S
C940 H958 0.928 . S
C941 C938 1.260 . S
C941 C939 1.479 . S
C942 C937 1.245 . S
C942 C938 1.477 . S
C942 H959 0.932 . S
C943 U926 2.882 . S
C943 C937 1.428 . S
C943 O946 1.301 . S
C943 O947 1.282 . S
O944 U926 2.441 . S
O944 C930 1.249 . S
O945 U926 2.420 . S
O945 C930 1.202 . S
O946 U926 2.455 . S
O946 C943 1.301 . S
O947 U926 2.449 . S
O947 C943 1.282 . S
H948 C921 0.931 . S
H949 C923 0.929 . S
H950 C924 0.930 . S
H951 C925 0.931 . S
H952 C932 0.932 . S
H953 C933 0.930 . S
H954 C934 0.929 . S
H955 C936 0.930 . S
H956 C938 0.932 . S
H957 C939 0.929 . S
H958 C940 0.928 . S
H959 C942 0.932 . S
C960 C961 1.264 . S
C960 C965 1.479 . S
C960 C970 1.465 . S
C961 C960 1.264 . S
C961 C963 1.339 . S
C961 H988 0.931 . S
C962 C963 1.395 . S
C962 C964 1.320 . S
C963 C961 1.339 . S
C963 C962 1.395 . S
C963 H989 0.929 . S
C964 C962 1.320 . S
C964 C965 1.405 . S
C964 H990 0.930 . S
C965 C960 1.479 . S
C965 C964 1.405 . S
C965 H991 0.931 . S
U966 O967 2.454 . S
U966 O968 2.458 . S
U966 C969 2.984 . S
U966 C970 2.847 . S
U966 C983 2.882 . S
U966 O984 2.441 . S
U966 O985 2.420 . S
U966 O986 2.455 . S
U966 O987 2.449 . S
O967 U966 2.454 . S
O967 C969 1.353 . S
O968 U966 2.458 . S
O968 C969 1.286 . S
C969 U966 2.984 . S
C969 O967 1.353 . S
C969 O968 1.286 . S
C969 C971 1.363 . S
C970 C960 1.465 . S
C970 U966 2.847 . S
C970 O984 1.249 . S
C970 O985 1.202 . S
C971 C969 1.363 . S
C971 C973 1.408 . S
C971 C976 1.342 . S
C972 C973 1.310 . S
C972 C975 1.461 . S
C972 H992 0.932 . S
C973 C971 1.408 . S
C973 C972 1.310 . S
C973 H993 0.930 . S
C974 C975 1.474 . S
C974 C976 1.285 . S
C974 H994 0.929 . S
C975 C972 1.461 . S
C975 C974 1.474 . S
C976 C971 1.342 . S
C976 C974 1.285 . S
C976 H995 0.930 . S
C977 C980 1.424 . S
C977 C982 1.245 . S
C977 C983 1.428 . S
C978 C981 1.260 . S
C978 C982 1.477 . S
C978 H996 0.932 . S
C979 C980 1.384 . S
C979 C981 1.479 . S
C979 H997 0.929 . S
C980 C977 1.424 . S
C980 C979 1.384 . S
C980 H998 0.928 . S
C981 C978 1.260 . S
C981 C979 1.479 . S
C982 C977 1.245 . S
C982 C978 1.477 . S
C982 H999 0.932 . S
C983 U966 2.882 . S
C983 C977 1.428 . S
C983 O986 1.301 . S
C983 O987 1.282 . S
O984 U966 2.441 . S
O984 C970 1.249 . S
O985 U966 2.420 . S
O985 C970 1.202 . S
O986 U966 2.455 . S
O986 C983 1.301 . S
O987 U966 2.449 . S
O987 C983 1.282 . S
H988 C961 0.931 . S
H989 C963 0.929 . S
H990 C964 0.930 . S
H991 C965 0.931 . S
H992 C972 0.932 . S
H993 C973 0.930 . S
H994 C974 0.929 . S
H995 C976 0.930 . S
H996 C978 0.932 . S
H997 C979 0.929 . S
H998 C980 0.928 . S
H999 C982 0.932 . S
C1000 C1001 1.264 . S
C1000 C1005 1.479 . S
C1000 C1010 1.465 . S
C1001 C1000 1.264 . S
C1001 C1003 1.339 . S
C1001 H1028 0.931 . S
C1002 C1003 1.395 . S
C1002 C1004 1.320 . S
C1003 C1001 1.339 . S
C1003 C1002 1.395 . S
C1003 H1029 0.929 . S
C1004 C1002 1.320 . S
C1004 C1005 1.405 . S
C1004 H1030 0.930 . S
C1005 C1000 1.479 . S
C1005 C1004 1.405 . S
C1005 H1031 0.931 . S
U1006 O1007 2.454 . S
U1006 O1008 2.458 . S
U1006 C1009 2.984 . S
U1006 C1010 2.847 . S
U1006 C1023 2.882 . S
U1006 O1024 2.441 . S
U1006 O1025 2.420 . S
U1006 O1026 2.455 . S
U1006 O1027 2.449 . S
O1007 U1006 2.454 . S
O1007 C1009 1.353 . S
O1008 U1006 2.458 . S
O1008 C1009 1.286 . S
C1009 U1006 2.984 . S
C1009 O1007 1.353 . S
C1009 O1008 1.286 . S
C1009 C1011 1.363 . S
C1010 C1000 1.465 . S
C1010 U1006 2.847 . S
C1010 O1024 1.249 . S
C1010 O1025 1.202 . S
C1011 C1009 1.363 . S
C1011 C1013 1.408 . S
C1011 C1016 1.342 . S
C1012 C1013 1.310 . S
C1012 C1015 1.461 . S
C1012 H1032 0.932 . S
C1013 C1011 1.408 . S
C1013 C1012 1.310 . S
C1013 H1033 0.930 . S
C1014 C1015 1.474 . S
C1014 C1016 1.285 . S
C1014 H1034 0.929 . S
C1015 C1012 1.461 . S
C1015 C1014 1.474 . S
C1016 C1011 1.342 . S
C1016 C1014 1.285 . S
C1016 H1035 0.930 . S
C1017 C1020 1.424 . S
C1017 C1022 1.245 . S
C1017 C1023 1.428 . S
C1018 C1021 1.260 . S
C1018 C1022 1.477 . S
C1018 H1036 0.932 . S
C1019 C1020 1.384 . S
C1019 C1021 1.479 . S
C1019 H1037 0.929 . S
C1020 C1017 1.424 . S
C1020 C1019 1.384 . S
C1020 H1038 0.928 . S
C1021 C1018 1.260 . S
C1021 C1019 1.479 . S
C1022 C1017 1.245 . S
C1022 C1018 1.477 . S
C1022 H1039 0.932 . S
C1023 U1006 2.882 . S
C1023 C1017 1.428 . S
C1023 O1026 1.301 . S
C1023 O1027 1.282 . S
O1024 U1006 2.441 . S
O1024 C1010 1.249 . S
O1025 U1006 2.420 . S
O1025 C1010 1.202 . S
O1026 U1006 2.455 . S
O1026 C1023 1.301 . S
O1027 U1006 2.449 . S
O1027 C1023 1.282 . S
H1028 C1001 0.931 . S
H1029 C1003 0.929 . S
H1030 C1004 0.930 . S
H1031 C1005 0.931 . S
H1032 C1012 0.932 . S
H1033 C1013 0.930 . S
H1034 C1014 0.929 . S
H1035 C1016 0.930 . S
H1036 C1018 0.932 . S
H1037 C1019 0.929 . S
H1038 C1020 0.928 . S
H1039 C1022 0.932 . S
C1040 C1041 1.264 . S
C1040 C1045 1.479 . S
C1040 C1050 1.465 . S
C1041 C1040 1.264 . S
C1041 C1043 1.339 . S
C1041 H1068 0.931 . S
C1042 C1043 1.395 . S
C1042 C1044 1.320 . S
C1043 C1041 1.339 . S
C1043 C1042 1.395 . S
C1043 H1069 0.929 . S
C1044 C1042 1.320 . S
C1044 C1045 1.405 . S
C1044 H1070 0.930 . S
C1045 C1040 1.479 . S
C1045 C1044 1.405 . S
C1045 H1071 0.931 . S
U1046 O1047 2.454 . S
U1046 O1048 2.458 . S
U1046 C1049 2.984 . S
U1046 C1050 2.847 . S
U1046 C1063 2.882 . S
U1046 O1064 2.441 . S
U1046 O1065 2.420 . S
U1046 O1066 2.455 . S
U1046 O1067 2.449 . S
O1047 U1046 2.454 . S
O1047 C1049 1.353 . S
O1048 U1046 2.458 . S
O1048 C1049 1.286 . S
C1049 U1046 2.984 . S
C1049 O1047 1.353 . S
C1049 O1048 1.286 . S
C1049 C1051 1.363 . S
C1050 C1040 1.465 . S
C1050 U1046 2.847 . S
C1050 O1064 1.249 . S
C1050 O1065 1.202 . S
C1051 C1049 1.363 . S
C1051 C1053 1.408 . S
C1051 C1056 1.342 . S
C1052 C1053 1.310 . S
C1052 C1055 1.461 . S
C1052 H1072 0.932 . S
C1053 C1051 1.408 . S
C1053 C1052 1.310 . S
C1053 H1073 0.930 . S
C1054 C1055 1.474 . S
C1054 C1056 1.285 . S
C1054 H1074 0.929 . S
C1055 C1052 1.461 . S
C1055 C1054 1.474 . S
C1056 C1051 1.342 . S
C1056 C1054 1.285 . S
C1056 H1075 0.930 . S
C1057 C1060 1.424 . S
C1057 C1062 1.245 . S
C1057 C1063 1.428 . S
C1058 C1061 1.260 . S
C1058 C1062 1.477 . S
C1058 H1076 0.932 . S
C1059 C1060 1.384 . S
C1059 C1061 1.479 . S
C1059 H1077 0.929 . S
C1060 C1057 1.424 . S
C1060 C1059 1.384 . S
C1060 H1078 0.928 . S
C1061 C1058 1.260 . S
C1061 C1059 1.479 . S
C1062 C1057 1.245 . S
C1062 C1058 1.477 . S
C1062 H1079 0.932 . S
C1063 U1046 2.882 . S
C1063 C1057 1.428 . S
C1063 O1066 1.301 . S
C1063 O1067 1.282 . S
O1064 U1046 2.441 . S
O1064 C1050 1.249 . S
O1065 U1046 2.420 . S
O1065 C1050 1.202 . S
O1066 U1046 2.455 . S
O1066 C1063 1.301 . S
O1067 U1046 2.449 . S
O1067 C1063 1.282 . S
H1068 C1041 0.931 . S
H1069 C1043 0.929 . S
H1070 C1044 0.930 . S
H1071 C1045 0.931 . S
H1072 C1052 0.932 . S
H1073 C1053 0.930 . S
H1074 C1054 0.929 . S
H1075 C1056 0.930 . S
H1076 C1058 0.932 . S
H1077 C1059 0.929 . S
H1078 C1060 0.928 . S
H1079 C1062 0.932 . S
C1080 C1081 1.264 . S
C1080 C1085 1.479 . S
C1080 C1090 1.465 . S
C1081 C1080 1.264 . S
C1081 C1083 1.339 . S
C1081 H1108 0.931 . S
C1082 C1083 1.395 . S
C1082 C1084 1.320 . S
C1083 C1081 1.339 . S
C1083 C1082 1.395 . S
C1083 H1109 0.929 . S
C1084 C1082 1.320 . S
C1084 C1085 1.405 . S
C1084 H1110 0.930 . S
C1085 C1080 1.479 . S
C1085 C1084 1.405 . S
C1085 H1111 0.931 . S
U1086 O1087 2.454 . S
U1086 O1088 2.458 . S
U1086 C1089 2.984 . S
U1086 C1090 2.847 . S
U1086 C1103 2.882 . S
U1086 O1104 2.441 . S
U1086 O1105 2.420 . S
U1086 O1106 2.455 . S
U1086 O1107 2.449 . S
O1087 U1086 2.454 . S
O1087 C1089 1.353 . S
O1088 U1086 2.458 . S
O1088 C1089 1.286 . S
C1089 U1086 2.984 . S
C1089 O1087 1.353 . S
C1089 O1088 1.286 . S
C1089 C1091 1.363 . S
C1090 C1080 1.465 . S
C1090 U1086 2.847 . S
C1090 O1104 1.249 . S
C1090 O1105 1.202 . S
C1091 C1089 1.363 . S
C1091 C1093 1.408 . S
C1091 C1096 1.342 . S
C1092 C1093 1.310 . S
C1092 C1095 1.461 . S
C1092 H1112 0.932 . S
C1093 C1091 1.408 . S
C1093 C1092 1.310 . S
C1093 H1113 0.930 . S
C1094 C1095 1.474 . S
C1094 C1096 1.285 . S
C1094 H1114 0.929 . S
C1095 C1092 1.461 . S
C1095 C1094 1.474 . S
C1096 C1091 1.342 . S
C1096 C1094 1.285 . S
C1096 H1115 0.930 . S
C1097 C1100 1.424 . S
C1097 C1102 1.245 . S
C1097 C1103 1.428 . S
C1098 C1101 1.260 . S
C1098 C1102 1.477 . S
C1098 H1116 0.932 . S
C1099 C1100 1.384 . S
C1099 C1101 1.479 . S
C1099 H1117 0.929 . S
C1100 C1097 1.424 . S
C1100 C1099 1.384 . S
C1100 H1118 0.928 . S
C1101 C1098 1.260 . S
C1101 C1099 1.479 . S
C1102 C1097 1.245 . S
C1102 C1098 1.477 . S
C1102 H1119 0.932 . S
C1103 U1086 2.882 . S
C1103 C1097 1.428 . S
C1103 O1106 1.301 . S
C1103 O1107 1.282 . S
O1104 U1086 2.441 . S
O1104 C1090 1.249 . S
O1105 U1086 2.420 . S
O1105 C1090 1.202 . S
O1106 U1086 2.455 . S
O1106 C1103 1.301 . S
O1107 U1086 2.449 . S
O1107 C1103 1.282 . S
H1108 C1081 0.931 . S
H1109 C1083 0.929 . S
H1110 C1084 0.930 . S
H1111 C1085 0.931 . S
H1112 C1092 0.932 . S
H1113 C1093 0.930 . S
H1114 C1094 0.929 . S
H1115 C1096 0.930 . S
H1116 C1098 0.932 . S
H1117 C1099 0.929 . S
H1118 C1100 0.928 . S
H1119 C1102 0.932 . S
C1120 C1121 1.264 . S
C1120 C1125 1.479 . S
C1120 C1130 1.465 . S
C1121 C1120 1.264 . S
C1121 C1123 1.339 . S
C1121 H1148 0.931 . S
C1122 C1123 1.395 . S
C1122 C1124 1.320 . S
C1123 C1121 1.339 . S
C1123 C1122 1.395 . S
C1123 H1149 0.929 . S
C1124 C1122 1.320 . S
C1124 C1125 1.405 . S
C1124 H1150 0.930 . S
C1125 C1120 1.479 . S
C1125 C1124 1.405 . S
C1125 H1151 0.931 . S
U1126 O1127 2.454 . S
U1126 O1128 2.458 . S
U1126 C1129 2.984 . S
U1126 C1130 2.847 . S
U1126 C1143 2.882 . S
U1126 O1144 2.441 . S
U1126 O1145 2.420 . S
U1126 O1146 2.455 . S
U1126 O1147 2.449 . S
O1127 U1126 2.454 . S
O1127 C1129 1.353 . S
O1128 U1126 2.458 . S
O1128 C1129 1.286 . S
C1129 U1126 2.984 . S
C1129 O1127 1.353 . S
C1129 O1128 1.286 . S
C1129 C1131 1.363 . S
C1130 C1120 1.465 . S
C1130 U1126 2.847 . S
C1130 O1144 1.249 . S
C1130 O1145 1.202 . S
C1131 C1129 1.363 . S
C1131 C1133 1.408 . S
C1131 C1136 1.342 . S
C1132 C1133 1.310 . S
C1132 C1135 1.461 . S
C1132 H1152 0.932 . S
C1133 C1131 1.408 . S
C1133 C1132 1.310 . S
C1133 H1153 0.930 . S
C1134 C1135 1.474 . S
C1134 C1136 1.285 . S
C1134 H1154 0.929 . S
C1135 C1132 1.461 . S
C1135 C1134 1.474 . S
C1136 C1131 1.342 . S
C1136 C1134 1.285 . S
C1136 H1155 0.930 . S
C1137 C1140 1.424 . S
C1137 C1142 1.245 . S
C1137 C1143 1.428 . S
C1138 C1141 1.260 . S
C1138 C1142 1.477 . S
C1138 H1156 0.932 . S
C1139 C1140 1.384 . S
C1139 C1141 1.479 . S
C1139 H1157 0.929 . S
C1140 C1137 1.424 . S
C1140 C1139 1.384 . S
C1140 H1158 0.928 . S
C1141 C1138 1.260 . S
C1141 C1139 1.479 . S
C1142 C1137 1.245 . S
C1142 C1138 1.477 . S
C1142 H1159 0.932 . S
C1143 U1126 2.882 . S
C1143 C1137 1.428 . S
C1143 O1146 1.301 . S
C1143 O1147 1.282 . S
O1144 U1126 2.441 . S
O1144 C1130 1.249 . S
O1145 U1126 2.420 . S
O1145 C1130 1.202 . S
O1146 U1126 2.455 . S
O1146 C1143 1.301 . S
O1147 U1126 2.449 . S
O1147 C1143 1.282 . S
H1148 C1121 0.931 . S
H1149 C1123 0.929 . S
H1150 C1124 0.930 . S
H1151 C1125 0.931 . S
H1152 C1132 0.932 . S
H1153 C1133 0.930 . S
H1154 C1134 0.929 . S
H1155 C1136 0.930 . S
H1156 C1138 0.932 . S
H1157 C1139 0.929 . S
H1158 C1140 0.928 . S
H1159 C1142 0.932 . S
C1160 C1161 1.264 . S
C1160 C1165 1.479 . S
C1160 C1170 1.465 . S
C1161 C1160 1.264 . S
C1161 C1163 1.339 . S
C1161 H1188 0.931 . S
C1162 C1163 1.395 . S
C1162 C1164 1.320 . S
C1163 C1161 1.339 . S
C1163 C1162 1.395 . S
C1163 H1189 0.929 . S
C1164 C1162 1.320 . S
C1164 C1165 1.405 . S
C1164 H1190 0.930 . S
C1165 C1160 1.479 . S
C1165 C1164 1.405 . S
C1165 H1191 0.931 . S
U1166 O1167 2.454 . S
U1166 O1168 2.458 . S
U1166 C1169 2.984 . S
U1166 C1170 2.847 . S
U1166 C1183 2.882 . S
U1166 O1184 2.441 . S
U1166 O1185 2.420 . S
U1166 O1186 2.455 . S
U1166 O1187 2.449 . S
O1167 U1166 2.454 . S
O1167 C1169 1.353 . S
O1168 U1166 2.458 . S
O1168 C1169 1.286 . S
C1169 U1166 2.984 . S
C1169 O1167 1.353 . S
C1169 O1168 1.286 . S
C1169 C1171 1.363 . S
C1170 C1160 1.465 . S
C1170 U1166 2.847 . S
C1170 O1184 1.249 . S
C1170 O1185 1.202 . S
C1171 C1169 1.363 . S
C1171 C1173 1.408 . S
C1171 C1176 1.342 . S
C1172 C1173 1.310 . S
C1172 C1175 1.461 . S
C1172 H1192 0.932 . S
C1173 C1171 1.408 . S
C1173 C1172 1.310 . S
C1173 H1193 0.930 . S
C1174 C1175 1.474 . S
C1174 C1176 1.285 . S
C1174 H1194 0.929 . S
C1175 C1172 1.461 . S
C1175 C1174 1.474 . S
C1176 C1171 1.342 . S
C1176 C1174 1.285 . S
C1176 H1195 0.930 . S
C1177 C1180 1.424 . S
C1177 C1182 1.245 . S
C1177 C1183 1.428 . S
C1178 C1181 1.260 . S
C1178 C1182 1.477 . S
C1178 H1196 0.932 . S
C1179 C1180 1.384 . S
C1179 C1181 1.479 . S
C1179 H1197 0.929 . S
C1180 C1177 1.424 . S
C1180 C1179 1.384 . S
C1180 H1198 0.928 . S
C1181 C1178 1.260 . S
C1181 C1179 1.479 . S
C1182 C1177 1.245 . S
C1182 C1178 1.477 . S
C1182 H1199 0.932 . S
C1183 U1166 2.882 . S
C1183 C1177 1.428 . S
C1183 O1186 1.301 . S
C1183 O1187 1.282 . S
O1184 U1166 2.441 . S
O1184 C1170 1.249 . S
O1185 U1166 2.420 . S
O1185 C1170 1.202 . S
O1186 U1166 2.455 . S
O1186 C1183 1.301 . S
O1187 U1166 2.449 . S
O1187 C1183 1.282 . S
H1188 C1161 0.931 . S
H1189 C1163 0.929 . S
H1190 C1164 0.930 . S
H1191 C1165 0.931 . S
H1192 C1172 0.932 . S
H1193 C1173 0.930 . S
H1194 C1174 0.929 . S
H1195 C1176 0.930 . S
H1196 C1178 0.932 . S
H1197 C1179 0.929 . S
H1198 C1180 0.928 . S
H1199 C1182 0.932 . S
C1200 C1201 1.264 . S
C1200 C1205 1.479 . S
C1200 C1210 1.465 . S
C1201 C1200 1.264 . S
C1201 C1203 1.339 . S
C1201 H1228 0.931 . S
C1202 C1203 1.395 . S
C1202 C1204 1.320 . S
C1203 C1201 1.339 . S
C1203 C1202 1.395 . S
C1203 H1229 0.929 . S
C1204 C1202 1.320 . S
C1204 C1205 1.405 . S
C1204 H1230 0.930 . S
C1205 C1200 1.479 . S
C1205 C1204 1.405 . S
C1205 H1231 0.931 . S
U1206 O1207 2.454 . S
U1206 O1208 2.458 . S
U1206 C1209 2.984 . S
U1206 C1210 2.847 . S
U1206 C1223 2.882 . S
U1206 O1224 2.441 . S
U1206 O1225 2.420 . S
U1206 O1226 2.455 . S
U1206 O1227 2.449 . S
O1207 U1206 2.454 . S
O1207 C1209 1.353 . S
O1208 U1206 2.458 . S
O1208 C1209 1.286 . S
C1209 U1206 2.984 . S
C1209 O1207 1.353 . S
C1209 O1208 1.286 . S
C1209 C1211 1.363 . S
C1210 C1200 1.465 . S
C1210 U1206 2.847 . S
C1210 O1224 1.249 . S
C1210 O1225 1.202 . S
C1211 C1209 1.363 . S
C1211 C1213 1.408 . S
C1211 C1216 1.342 . S
C1212 C1213 1.310 . S
C1212 C1215 1.461 . S
C1212 H1232 0.932 . S
C1213 C1211 1.408 . S
C1213 C1212 1.310 . S
C1213 H1233 0.930 . S
C1214 C1215 1.474 . S
C1214 C1216 1.285 . S
C1214 H1234 0.929 . S
C1215 C1212 1.461 . S
C1215 C1214 1.474 . S
C1216 C1211 1.342 . S
C1216 C1214 1.285 . S
C1216 H1235 0.930 . S
C1217 C1220 1.424 . S
C1217 C1222 1.245 . S
C1217 C1223 1.428 . S
C1218 C1221 1.260 . S
C1218 C1222 1.477 . S
C1218 H1236 0.932 . S
C1219 C1220 1.384 . S
C1219 C1221 1.479 . S
C1219 H1237 0.929 . S
C1220 C1217 1.424 . S
C1220 C1219 1.384 . S
C1220 H1238 0.928 . S
C1221 C1218 1.260 . S
C1221 C1219 1.479 . S
C1222 C1217 1.245 . S
C1222 C1218 1.477 . S
C1222 H1239 0.932 . S
C1223 U1206 2.882 . S
C1223 C1217 1.428 . S
C1223 O1226 1.301 . S
C1223 O1227 1.282 . S
O1224 U1206 2.441 . S
O1224 C1210 1.249 . S
O1225 U1206 2.420 . S
O1225 C1210 1.202 . S
O1226 U1206 2.455 . S
O1226 C1223 1.301 . S
O1227 U1206 2.449 . S
O1227 C1223 1.282 . S
H1228 C1201 0.931 . S
H1229 C1203 0.929 . S
H1230 C1204 0.930 . S
H1231 C1205 0.931 . S
H1232 C1212 0.932 . S
H1233 C1213 0.930 . S
H1234 C1214 0.929 . S
H1235 C1216 0.930 . S
H1236 C1218 0.932 . S
H1237 C1219 0.929 . S
H1238 C1220 0.928 . S
H1239 C1222 0.932 . S
C1240 C1241 1.264 . S
C1240 C1245 1.479 . S
C1240 C1250 1.465 . S
C1241 C1240 1.264 . S
C1241 C1243 1.339 . S
C1241 H1268 0.931 . S
C1242 C1243 1.395 . S
C1242 C1244 1.320 . S
C1243 C1241 1.339 . S
C1243 C1242 1.395 . S
C1243 H1269 0.929 . S
C1244 C1242 1.320 . S
C1244 C1245 1.405 . S
C1244 H1270 0.930 . S
C1245 C1240 1.479 . S
C1245 C1244 1.405 . S
C1245 H1271 0.931 . S
U1246 O1247 2.454 . S
U1246 O1248 2.458 . S
U1246 C1249 2.984 . S
U1246 C1250 2.847 . S
U1246 C1263 2.882 . S
U1246 O1264 2.441 . S
U1246 O1265 2.420 . S
U1246 O1266 2.455 . S
U1246 O1267 2.449 . S
O1247 U1246 2.454 . S
O1247 C1249 1.353 . S
O1248 U1246 2.458 . S
O1248 C1249 1.286 . S
C1249 U1246 2.984 . S
C1249 O1247 1.353 . S
C1249 O1248 1.286 . S
C1249 C1251 1.363 . S
C1250 C1240 1.465 . S
C1250 U1246 2.847 . S
C1250 O1264 1.249 . S
C1250 O1265 1.202 . S
C1251 C1249 1.363 . S
C1251 C1253 1.408 . S
C1251 C1256 1.342 . S
C1252 C1253 1.310 . S
C1252 C1255 1.461 . S
C1252 H1272 0.932 . S
C1253 C1251 1.408 . S
C1253 C1252 1.310 . S
C1253 H1273 0.930 . S
C1254 C1255 1.474 . S
C1254 C1256 1.285 . S
C1254 H1274 0.929 . S
C1255 C1252 1.461 . S
C1255 C1254 1.474 . S
C1256 C1251 1.342 . S
C1256 C1254 1.285 . S
C1256 H1275 0.930 . S
C1257 C1260 1.424 . S
C1257 C1262 1.245 . S
C1257 C1263 1.428 . S
C1258 C1261 1.260 . S
C1258 C1262 1.477 . S
C1258 H1276 0.932 . S
C1259 C1260 1.384 . S
C1259 C1261 1.479 . S
C1259 H1277 0.929 . S
C1260 C1257 1.424 . S
C1260 C1259 1.384 . S
C1260 H1278 0.928 . S
C1261 C1258 1.260 . S
C1261 C1259 1.479 . S
C1262 C1257 1.245 . S
C1262 C1258 1.477 . S
C1262 H1279 0.932 . S
C1263 U1246 2.882 . S
C1263 C1257 1.428 . S
C1263 O1266 1.301 . S
C1263 O1267 1.282 . S
O1264 U1246 2.441 . S
O1264 C1250 1.249 . S
O1265 U1246 2.420 . S
O1265 C1250 1.202 . S
O1266 U1246 2.455 . S
O1266 C1263 1.301 . S
O1267 U1246 2.449 . S
O1267 C1263 1.282 . S
H1268 C1241 0.931 . S
H1269 C1243 0.929 . S
H1270 C1244 0.930 . S
H1271 C1245 0.931 . S
H1272 C1252 0.932 . S
H1273 C1253 0.930 . S
H1274 C1254 0.929 . S
H1275 C1256 0.930 . S
H1276 C1258 0.932 . S
H1277 C1259 0.929 . S
H1278 C1260 0.928 . S
H1279 C1262 0.932 . S
C1280 C1281 1.264 . S
C1280 C1285 1.479 . S
C1280 C1290 1.465 . S
C1281 C1280 1.264 . S
C1281 C1283 1.339 . S
C1281 H1308 0.931 . S
C1282 C1283 1.395 . S
C1282 C1284 1.320 . S
C1283 C1281 1.339 . S
C1283 C1282 1.395 . S
C1283 H1309 0.929 . S
C1284 C1282 1.320 . S
C1284 C1285 1.405 . S
C1284 H1310 0.930 . S
C1285 C1280 1.479 . S
C1285 C1284 1.405 . S
C1285 H1311 0.931 . S
U1286 O1287 2.454 . S
U1286 O1288 2.458 . S
U1286 C1289 2.984 . S
U1286 C1290 2.847 . S
U1286 C1303 2.882 . S
U1286 O1304 2.441 . S
U1286 O1305 2.420 . S
U1286 O1306 2.455 . S
U1286 O1307 2.449 . S
O1287 U1286 2.454 . S
O1287 C1289 1.353 . S
O1288 U1286 2.458 . S
O1288 C1289 1.286 . S
C1289 U1286 2.984 . S
C1289 O1287 1.353 . S
C1289 O1288 1.286 . S
C1289 C1291 1.363 . S
C1290 C1280 1.465 . S
C1290 U1286 2.847 . S
C1290 O1304 1.249 . S
C1290 O1305 1.202 . S
C1291 C1289 1.363 . S
C1291 C1293 1.408 . S
C1291 C1296 1.342 . S
C1292 C1293 1.310 . S
C1292 C1295 1.461 . S
C1292 H1312 0.932 . S
C1293 C1291 1.408 . S
C1293 C1292 1.310 . S
C1293 H1313 0.930 . S
C1294 C1295 1.474 . S
C1294 C1296 1.285 . S
C1294 H1314 0.929 . S
C1295 C1292 1.461 . S
C1295 C1294 1.474 . S
C1296 C1291 1.342 . S
C1296 C1294 1.285 . S
C1296 H1315 0.930 . S
C1297 C1300 1.424 . S
C1297 C1302 1.245 . S
C1297 C1303 1.428 . S
C1298 C1301 1.260 . S
C1298 C1302 1.477 . S
C1298 H1316 0.932 . S
C1299 C1300 1.384 . S
C1299 C1301 1.479 . S
C1299 H1317 0.929 . S
C1300 C1297 1.424 . S
C1300 C1299 1.384 . S
C1300 H1318 0.928 . S
C1301 C1298 1.260 . S
C1301 C1299 1.479 . S
C1302 C1297 1.245 . S
C1302 C1298 1.477 . S
C1302 H1319 0.932 . S
C1303 U1286 2.882 . S
C1303 C1297 1.428 . S
C1303 O1306 1.301 . S
C1303 O1307 1.282 . S
O1304 U1286 2.441 . S
O1304 C1290 1.249 . S
O1305 U1286 2.420 . S
O1305 C1290 1.202 . S
O1306 U1286 2.455 . S
O1306 C1303 1.301 . S
O1307 U1286 2.449 . S
O1307 C1303 1.282 . S
H1308 C1281 0.931 . S
H1309 C1283 0.929 . S
H1310 C1284 0.930 . S
H1311 C1285 0.931 . S
H1312 C1292 0.932 . S
H1313 C1293 0.930 . S
H1314 C1294 0.929 . S
H1315 C1296 0.930 . S
H1316 C1298 0.932 . S
H1317 C1299 0.929 . S
H1318 C1300 0.928 . S
H1319 C1302 0.932 . S
C1320 C1321 1.264 . S
C1320 C1325 1.479 . S
C1320 C1330 1.465 . S
C1321 C1320 1.264 . S
C1321 C1323 1.339 . S
C1321 H1348 0.931 . S
C1322 C1323 1.395 . S
C1322 C1324 1.320 . S
C1323 C1321 1.339 . S
C1323 C1322 1.395 . S
C1323 H1349 0.929 . S
C1324 C1322 1.320 . S
C1324 C1325 1.405 . S
C1324 H1350 0.930 . S
C1325 C1320 1.479 . S
C1325 C1324 1.405 . S
C1325 H1351 0.931 . S
U1326 O1327 2.454 . S
U1326 O1328 2.458 . S
U1326 C1329 2.984 . S
U1326 C1330 2.847 . S
U1326 C1343 2.882 . S
U1326 O1344 2.441 . S
U1326 O1345 2.420 . S
U1326 O1346 2.455 . S
U1326 O1347 2.449 . S
O1327 U1326 2.454 . S
O1327 C1329 1.353 . S
O1328 U1326 2.458 . S
O1328 C1329 1.286 . S
C1329 U1326 2.984 . S
C1329 O1327 1.353 . S
C1329 O1328 1.286 . S
C1329 C1331 1.363 . S
C1330 C1320 1.465 . S
C1330 U1326 2.847 . S
C1330 O1344 1.249 . S
C1330 O1345 1.202 . S
C1331 C1329 1.363 . S
C1331 C1333 1.408 . S
C1331 C1336 1.342 . S
C1332 C1333 1.310 . S
C1332 C1335 1.461 . S
C1332 H1352 0.932 . S
C1333 C1331 1.408 . S
C1333 C1332 1.310 . S
C1333 H1353 0.930 . S
C1334 C1335 1.474 . S
C1334 C1336 1.285 . S
C1334 H1354 0.929 . S
C1335 C1332 1.461 . S
C1335 C1334 1.474 . S
C1336 C1331 1.342 . S
C1336 C1334 1.285 . S
C1336 H1355 0.930 . S
C1337 C1340 1.424 . S
C1337 C1342 1.245 . S
C1337 C1343 1.428 . S
C1338 C1341 1.260 . S
C1338 C1342 1.477 . S
C1338 H1356 0.932 . S
C1339 C1340 1.384 . S
C1339 C1341 1.479 . S
C1339 H1357 0.929 . S
C1340 C1337 1.424 . S
C1340 C1339 1.384 . S
C1340 H1358 0.928 . S
C1341 C1338 1.260 . S
C1341 C1339 1.479 . S
C1342 C1337 1.245 . S
C1342 C1338 1.477 . S
C1342 H1359 0.932 . S
C1343 U1326 2.882 . S
C1343 C1337 1.428 . S
C1343 O1346 1.301 . S
C1343 O1347 1.282 . S
O1344 U1326 2.441 . S
O1344 C1330 1.249 . S
O1345 U1326 2.420 . S
O1345 C1330 1.202 . S
O1346 U1326 2.455 . S
O1346 C1343 1.301 . S
O1347 U1326 2.449 . S
O1347 C1343 1.282 . S
H1348 C1321 0.931 . S
H1349 C1323 0.929 . S
H1350 C1324 0.930 . S
H1351 C1325 0.931 . S
H1352 C1332 0.932 . S
H1353 C1333 0.930 . S
H1354 C1334 0.929 . S
H1355 C1336 0.930 . S
H1356 C1338 0.932 . S
H1357 C1339 0.929 . S
H1358 C1340 0.928 . S
H1359 C1342 0.932 . S
C1360 C1361 1.264 . S
C1360 C1365 1.479 . S
C1360 C1370 1.465 . S
C1361 C1360 1.264 . S
C1361 C1363 1.339 . S
C1361 H1388 0.931 . S
C1362 C1363 1.395 . S
C1362 C1364 1.320 . S
C1363 C1361 1.339 . S
C1363 C1362 1.395 . S
C1363 H1389 0.929 . S
C1364 C1362 1.320 . S
C1364 C1365 1.405 . S
C1364 H1390 0.930 . S
C1365 C1360 1.479 . S
C1365 C1364 1.405 . S
C1365 H1391 0.931 . S
U1366 O1367 2.454 . S
U1366 O1368 2.458 . S
U1366 C1369 2.984 . S
U1366 C1370 2.847 . S
U1366 C1383 2.882 . S
U1366 O1384 2.441 . S
U1366 O1385 2.420 . S
U1366 O1386 2.455 . S
U1366 O1387 2.449 . S
O1367 U1366 2.454 . S
O1367 C1369 1.353 . S
O1368 U1366 2.458 . S
O1368 C1369 1.286 . S
C1369 U1366 2.984 . S
C1369 O1367 1.353 . S
C1369 O1368 1.286 . S
C1369 C1371 1.363 . S
C1370 C1360 1.465 . S
C1370 U1366 2.847 . S
C1370 O1384 1.249 . S
C1370 O1385 1.202 . S
C1371 C1369 1.363 . S
C1371 C1373 1.408 . S
C1371 C1376 1.342 . S
C1372 C1373 1.310 . S
C1372 C1375 1.461 . S
C1372 H1392 0.932 . S
C1373 C1371 1.408 . S
C1373 C1372 1.310 . S
C1373 H1393 0.930 . S
C1374 C1375 1.474 . S
C1374 C1376 1.285 . S
C1374 H1394 0.929 . S
C1375 C1372 1.461 . S
C1375 C1374 1.474 . S
C1376 C1371 1.342 . S
C1376 C1374 1.285 . S
C1376 H1395 0.930 . S
C1377 C1380 1.424 . S
C1377 C1382 1.245 . S
C1377 C1383 1.428 . S
C1378 C1381 1.260 . S
C1378 C1382 1.477 . S
C1378 H1396 0.932 . S
C1379 C1380 1.384 . S
C1379 C1381 1.479 . S
C1379 H1397 0.929 . S
C1380 C1377 1.424 . S
C1380 C1379 1.384 . S
C1380 H1398 0.928 . S
C1381 C1378 1.260 . S
C1381 C1379 1.479 . S
C1382 C1377 1.245 . S
C1382 C1378 1.477 . S
C1382 H1399 0.932 . S
C1383 U1366 2.882 . S
C1383 C1377 1.428 . S
C1383 O1386 1.301 . S
C1383 O1387 1.282 . S
O1384 U1366 2.441 . S
O1384 C1370 1.249 . S
O1385 U1366 2.420 . S
O1385 C1370 1.202 . S
O1386 U1366 2.455 . S
O1386 C1383 1.301 . S
O1387 U1366 2.449 . S
O1387 C1383 1.282 . S
H1388 C1361 0.931 . S
H1389 C1363 0.929 . S
H1390 C1364 0.930 . S
H1391 C1365 0.931 . S
H1392 C1372 0.932 . S
H1393 C1373 0.930 . S
H1394 C1374 0.929 . S
H1395 C1376 0.930 . S
H1396 C1378 0.932 . S
H1397 C1379 0.929 . S
H1398 C1380 0.928 . S
H1399 C1382 0.932 . S
C1400 C1401 1.264 . S
C1400 C1405 1.479 . S
C1400 C1410 1.465 . S
C1401 C1400 1.264 . S
C1401 C1403 1.339 . S
C1401 H1428 0.931 . S
C1402 C1403 1.395 . S
C1402 C1404 1.320 . S
C1403 C1401 1.339 . S
C1403 C1402 1.395 . S
C1403 H1429 0.929 . S
C1404 C1402 1.320 . S
C1404 C1405 1.405 . S
C1404 H1430 0.930 . S
C1405 C1400 1.479 . S
C1405 C1404 1.405 . S
C1405 H1431 0.931 . S
U1406 O1407 2.454 . S
U1406 O1408 2.458 . S
U1406 C1409 2.984 . S
U1406 C1410 2.847 . S
U1406 C1423 2.882 . S
U1406 O1424 2.441 . S
U1406 O1425 2.420 . S
U1406 O1426 2.455 . S
U1406 O1427 2.449 . S
O1407 U1406 2.454 . S
O1407 C1409 1.353 . S
O1408 U1406 2.458 . S
O1408 C1409 1.286 . S
C1409 U1406 2.984 . S
C1409 O1407 1.353 . S
C1409 O1408 1.286 . S
C1409 C1411 1.363 . S
C1410 C1400 1.465 . S
C1410 U1406 2.847 . S
C1410 O1424 1.249 . S
C1410 O1425 1.202 . S
C1411 C1409 1.363 . S
C1411 C1413 1.408 . S
C1411 C1416 1.342 . S
C1412 C1413 1.310 . S
C1412 C1415 1.461 . S
C1412 H1432 0.932 . S
C1413 C1411 1.408 . S
C1413 C1412 1.310 . S
C1413 H1433 0.930 . S
C1414 C1415 1.474 . S
C1414 C1416 1.285 . S
C1414 H1434 0.929 . S
C1415 C1412 1.461 . S
C1415 C1414 1.474 . S
C1416 C1411 1.342 . S
C1416 C1414 1.285 . S
C1416 H1435 0.930 . S
C1417 C1420 1.424 . S
C1417 C1422 1.245 . S
C1417 C1423 1.428 . S
C1418 C1421 1.260 . S
C1418 C1422 1.477 . S
C1418 H1436 0.932 . S
C1419 C1420 1.384 . S
C1419 C1421 1.479 . S
C1419 H1437 0.929 . S
C1420 C1417 1.424 . S
C1420 C1419 1.384 . S
C1420 H1438 0.928 . S
C1421 C1418 1.260 . S
C1421 C1419 1.479 . S
C1422 C1417 1.245 . S
C1422 C1418 1.477 . S
C1422 H1439 0.932 . S
C1423 U1406 2.882 . S
C1423 C1417 1.428 . S
C1423 O1426 1.301 . S
C1423 O1427 1.282 . S
O1424 U1406 2.441 . S
O1424 C1410 1.249 . S
O1425 U1406 2.420 . S
O1425 C1410 1.202 . S
O1426 U1406 2.455 . S
O1426 C1423 1.301 . S
O1427 U1406 2.449 . S
O1427 C1423 1.282 . S
H1428 C1401 0.931 . S
H1429 C1403 0.929 . S
H1430 C1404 0.930 . S
H1431 C1405 0.931 . S
H1432 C1412 0.932 . S
H1433 C1413 0.930 . S
H1434 C1414 0.929 . S
H1435 C1416 0.930 . S
H1436 C1418 0.932 . S
H1437 C1419 0.929 . S
H1438 C1420 0.928 . S
H1439 C1422 0.932 . S
C1440 C1441 1.264 . S
C1440 C1445 1.479 . S
C1440 C1450 1.465 . S
C1441 C1440 1.264 . S
C1441 C1443 1.339 . S
C1441 H1468 0.931 . S
C1442 C1443 1.395 . S
C1442 C1444 1.320 . S
C1443 C1441 1.339 . S
C1443 C1442 1.395 . S
C1443 H1469 0.929 . S
C1444 C1442 1.320 . S
C1444 C1445 1.405 . S
C1444 H1470 0.930 . S
C1445 C1440 1.479 . S
C1445 C1444 1.405 . S
C1445 H1471 0.931 . S
U1446 O1447 2.454 . S
U1446 O1448 2.458 . S
U1446 C1449 2.984 . S
U1446 C1450 2.847 . S
U1446 C1463 2.882 . S
U1446 O1464 2.441 . S
U1446 O1465 2.420 . S
U1446 O1466 2.455 . S
U1446 O1467 2.449 . S
O1447 U1446 2.454 . S
O1447 C1449 1.353 . S
O1448 U1446 2.458 . S
O1448 C1449 1.286 . S
C1449 U1446 2.984 . S
C1449 O1447 1.353 . S
C1449 O1448 1.286 . S
C1449 C1451 1.363 . S
C1450 C1440 1.465 . S
C1450 U1446 2.847 . S
C1450 O1464 1.249 . S
C1450 O1465 1.202 . S
C1451 C1449 1.363 . S
C1451 C1453 1.408 . S
C1451 C1456 1.342 . S
C1452 C1453 1.310 . S
C1452 C1455 1.461 . S
C1452 H1472 0.932 . S
C1453 C1451 1.408 . S
C1453 C1452 1.310 . S
C1453 H1473 0.930 . S
C1454 C1455 1.474 . S
C1454 C1456 1.285 . S
C1454 H1474 0.929 . S
C1455 C1452 1.461 . S
C1455 C1454 1.474 . S
C1456 C1451 1.342 . S
C1456 C1454 1.285 . S
C1456 H1475 0.930 . S
C1457 C1460 1.424 . S
C1457 C1462 1.245 . S
C1457 C1463 1.428 . S
C1458 C1461 1.260 . S
C1458 C1462 1.477 . S
C1458 H1476 0.932 . S
C1459 C1460 1.384 . S
C1459 C1461 1.479 . S
C1459 H1477 0.929 . S
C1460 C1457 1.424 . S
C1460 C1459 1.384 . S
C1460 H1478 0.928 . S
C1461 C1458 1.260 . S
C1461 C1459 1.479 . S
C1462 C1457 1.245 . S
C1462 C1458 1.477 . S
C1462 H1479 0.932 . S
C1463 U1446 2.882 . S
C1463 C1457 1.428 . S
C1463 O1466 1.301 . S
C1463 O1467 1.282 . S
O1464 U1446 2.441 . S
O1464 C1450 1.249 . S
O1465 U1446 2.420 . S
O1465 C1450 1.202 . S
O1466 U1446 2.455 . S
O1466 C1463 1.301 . S
O1467 U1446 2.449 . S
O1467 C1463 1.282 . S
H1468 C1441 0.931 . S
H1469 C1443 0.929 . S
H1470 C1444 0.930 . S
H1471 C1445 0.931 . S
H1472 C1452 0.932 . S
H1473 C1453 0.930 . S
H1474 C1454 0.929 . S
H1475 C1456 0.930 . S
H1476 C1458 0.932 . S
H1477 C1459 0.929 . S
H1478 C1460 0.928 . S
H1479 C1462 0.932 . S
C1480 C1481 1.264 . S
C1480 C1485 1.479 . S
C1480 C1490 1.465 . S
C1481 C1480 1.264 . S
C1481 C1483 1.339 . S
C1481 H1508 0.931 . S
C1482 C1483 1.395 . S
C1482 C1484 1.320 . S
C1483 C1481 1.339 . S
C1483 C1482 1.395 . S
C1483 H1509 0.929 . S
C1484 C1482 1.320 . S
C1484 C1485 1.405 . S
C1484 H1510 0.930 . S
C1485 C1480 1.479 . S
C1485 C1484 1.405 . S
C1485 H1511 0.931 . S
U1486 O1487 2.454 . S
U1486 O1488 2.458 . S
U1486 C1489 2.984 . S
U1486 C1490 2.847 . S
U1486 C1503 2.882 . S
U1486 O1504 2.441 . S
U1486 O1505 2.420 . S
U1486 O1506 2.455 . S
U1486 O1507 2.449 . S
O1487 U1486 2.454 . S
O1487 C1489 1.353 . S
O1488 U1486 2.458 . S
O1488 C1489 1.286 . S
C1489 U1486 2.984 . S
C1489 O1487 1.353 . S
C1489 O1488 1.286 . S
C1489 C1491 1.363 . S
C1490 C1480 1.465 . S
C1490 U1486 2.847 . S
C1490 O1504 1.249 . S
C1490 O1505 1.202 . S
C1491 C1489 1.363 . S
C1491 C1493 1.408 . S
C1491 C1496 1.342 . S
C1492 C1493 1.310 . S
C1492 C1495 1.461 . S
C1492 H1512 0.932 . S
C1493 C1491 1.408 . S
C1493 C1492 1.310 . S
C1493 H1513 0.930 . S
C1494 C1495 1.474 . S
C1494 C1496 1.285 . S
C1494 H1514 0.929 . S
C1495 C1492 1.461 . S
C1495 C1494 1.474 . S
C1496 C1491 1.342 . S
C1496 C1494 1.285 . S
C1496 H1515 0.930 . S
C1497 C1500 1.424 . S
C1497 C1502 1.245 . S
C1497 C1503 1.428 . S
C1498 C1501 1.260 . S
C1498 C1502 1.477 . S
C1498 H1516 0.932 . S
C1499 C1500 1.384 . S
C1499 C1501 1.479 . S
C1499 H1517 0.929 . S
C1500 C1497 1.424 . S
C1500 C1499 1.384 . S
C1500 H1518 0.928 . S
C1501 C1498 1.260 . S
C1501 C1499 1.479 . S
C1502 C1497 1.245 . S
C1502 C1498 1.477 . S
C1502 H1519 0.932 . S
C1503 U1486 2.882 . S
C1503 C1497 1.428 . S
C1503 O1506 1.301 . S
C1503 O1507 1.282 . S
O1504 U1486 2.441 . S
O1504 C1490 1.249 . S
O1505 U1486 2.420 . S
O1505 C1490 1.202 . S
O1506 U1486 2.455 . S
O1506 C1503 1.301 . S
O1507 U1486 2.449 . S
O1507 C1503 1.282 . S
H1508 C1481 0.931 . S
H1509 C1483 0.929 . S
H1510 C1484 0.930 . S
H1511 C1485 0.931 . S
H1512 C1492 0.932 . S
H1513 C1493 0.930 . S
H1514 C1494 0.929 . S
H1515 C1496 0.930 . S
H1516 C1498 0.932 . S
H1517 C1499 0.929 . S
H1518 C1500 0.928 . S
H1519 C1502 0.932 . S
C1520 C1521 1.264 . S
C1520 C1525 1.479 . S
C1520 C1530 1.465 . S
C1521 C1520 1.264 . S
C1521 C1523 1.339 . S
C1521 H1548 0.931 . S
C1522 C1523 1.395 . S
C1522 C1524 1.320 . S
C1523 C1521 1.339 . S
C1523 C1522 1.395 . S
C1523 H1549 0.929 . S
C1524 C1522 1.320 . S
C1524 C1525 1.405 . S
C1524 H1550 0.930 . S
C1525 C1520 1.479 . S
C1525 C1524 1.405 . S
C1525 H1551 0.931 . S
U1526 O1527 2.454 . S
U1526 O1528 2.458 . S
U1526 C1529 2.984 . S
U1526 C1530 2.847 . S
U1526 C1543 2.882 . S
U1526 O1544 2.441 . S
U1526 O1545 2.420 . S
U1526 O1546 2.455 . S
U1526 O1547 2.449 . S
O1527 U1526 2.454 . S
O1527 C1529 1.353 . S
O1528 U1526 2.458 . S
O1528 C1529 1.286 . S
C1529 U1526 2.984 . S
C1529 O1527 1.353 . S
C1529 O1528 1.286 . S
C1529 C1531 1.363 . S
C1530 C1520 1.465 . S
C1530 U1526 2.847 . S
C1530 O1544 1.249 . S
C1530 O1545 1.202 . S
C1531 C1529 1.363 . S
C1531 C1533 1.408 . S
C1531 C1536 1.342 . S
C1532 C1533 1.310 . S
C1532 C1535 1.461 . S
C1532 H1552 0.932 . S
C1533 C1531 1.408 . S
C1533 C1532 1.310 . S
C1533 H1553 0.930 . S
C1534 C1535 1.474 . S
C1534 C1536 1.285 . S
C1534 H1554 0.929 . S
C1535 C1532 1.461 . S
C1535 C1534 1.474 . S
C1536 C1531 1.342 . S
C1536 C1534 1.285 . S
C1536 H1555 0.930 . S
C1537 C1540 1.424 . S
C1537 C1542 1.245 . S
C1537 C1543 1.428 . S
C1538 C1541 1.260 . S
C1538 C1542 1.477 . S
C1538 H1556 0.932 . S
C1539 C1540 1.384 . S
C1539 C1541 1.479 . S
C1539 H1557 0.929 . S
C1540 C1537 1.424 . S
C1540 C1539 1.384 . S
C1540 H1558 0.928 . S
C1541 C1538 1.260 . S
C1541 C1539 1.479 . S
C1542 C1537 1.245 . S
C1542 C1538 1.477 . S
C1542 H1559 0.932 . S
C1543 U1526 2.882 . S
C1543 C1537 1.428 . S
C1543 O1546 1.301 . S
C1543 O1547 1.282 . S
O1544 U1526 2.441 . S
O1544 C1530 1.249 . S
O1545 U1526 2.420 . S
O1545 C1530 1.202 . S
O1546 U1526 2.455 . S
O1546 C1543 1.301 . S
O1547 U1526 2.449 . S
O1547 C1543 1.282 . S
H1548 C1521 0.931 . S
H1549 C1523 0.929 . S
H1550 C1524 0.930 . S
H1551 C1525 0.931 . S
H1552 C1532 0.932 . S
H1553 C1533 0.930 . S
H1554 C1534 0.929 . S
H1555 C1536 0.930 . S
H1556 C1538 0.932 . S
H1557 C1539 0.929 . S
H1558 C1540 0.928 . S
H1559 C1542 0.932 . S
C1560 C1561 1.264 . S
C1560 C1565 1.479 . S
C1560 C1570 1.465 . S
C1561 C1560 1.264 . S
C1561 C1563 1.339 . S
C1561 H1588 0.931 . S
C1562 C1563 1.395 . S
C1562 C1564 1.320 . S
C1563 C1561 1.339 . S
C1563 C1562 1.395 . S
C1563 H1589 0.929 . S
C1564 C1562 1.320 . S
C1564 C1565 1.405 . S
C1564 H1590 0.930 . S
C1565 C1560 1.479 . S
C1565 C1564 1.405 . S
C1565 H1591 0.931 . S
U1566 O1567 2.454 . S
U1566 O1568 2.458 . S
U1566 C1569 2.984 . S
U1566 C1570 2.847 . S
U1566 C1583 2.882 . S
U1566 O1584 2.441 . S
U1566 O1585 2.420 . S
U1566 O1586 2.455 . S
U1566 O1587 2.449 . S
O1567 U1566 2.454 . S
O1567 C1569 1.353 . S
O1568 U1566 2.458 . S
O1568 C1569 1.286 . S
C1569 U1566 2.984 . S
C1569 O1567 1.353 . S
C1569 O1568 1.286 . S
C1569 C1571 1.363 . S
C1570 C1560 1.465 . S
C1570 U1566 2.847 . S
C1570 O1584 1.249 . S
C1570 O1585 1.202 . S
C1571 C1569 1.363 . S
C1571 C1573 1.408 . S
C1571 C1576 1.342 . S
C1572 C1573 1.310 . S
C1572 C1575 1.461 . S
C1572 H1592 0.932 . S
C1573 C1571 1.408 . S
C1573 C1572 1.310 . S
C1573 H1593 0.930 . S
C1574 C1575 1.474 . S
C1574 C1576 1.285 . S
C1574 H1594 0.929 . S
C1575 C1572 1.461 . S
C1575 C1574 1.474 . S
C1576 C1571 1.342 . S
C1576 C1574 1.285 . S
C1576 H1595 0.930 . S
C1577 C1580 1.424 . S
C1577 C1582 1.245 . S
C1577 C1583 1.428 . S
C1578 C1581 1.260 . S
C1578 C1582 1.477 . S
C1578 H1596 0.932 . S
C1579 C1580 1.384 . S
C1579 C1581 1.479 . S
C1579 H1597 0.929 . S
C1580 C1577 1.424 . S
C1580 C1579 1.384 . S
C1580 H1598 0.928 . S
C1581 C1578 1.260 . S
C1581 C1579 1.479 . S
C1582 C1577 1.245 . S
C1582 C1578 1.477 . S
C1582 H1599 0.932 . S
C1583 U1566 2.882 . S
C1583 C1577 1.428 . S
C1583 O1586 1.301 . S
C1583 O1587 1.282 . S
O1584 U1566 2.441 . S
O1584 C1570 1.249 . S
O1585 U1566 2.420 . S
O1585 C1570 1.202 . S
O1586 U1566 2.455 . S
O1586 C1583 1.301 . S
O1587 U1566 2.449 . S
O1587 C1583 1.282 . S
H1588 C1561 0.931 . S
H1589 C1563 0.929 . S
H1590 C1564 0.930 . S
H1591 C1565 0.931 . S
H1592 C1572 0.932 . S
H1593 C1573 0.930 . S
H1594 C1574 0.929 . S
H1595 C1576 0.930 . S
H1596 C1578 0.932 . S
H1597 C1579 0.929 . S
H1598 C1580 0.928 . S
H1599 C1582 0.932 . S
C1600 C1601 1.264 . S
C1600 C1605 1.479 . S
C1600 C1610 1.465 . S
C1601 C1600 1.264 . S
C1601 C1603 1.339 . S
C1601 H1628 0.931 . S
C1602 C1603 1.395 . S
C1602 C1604 1.320 . S
C1603 C1601 1.339 . S
C1603 C1602 1.395 . S
C1603 H1629 0.929 . S
C1604 C1602 1.320 . S
C1604 C1605 1.405 . S
C1604 H1630 0.930 . S
C1605 C1600 1.479 . S
C1605 C1604 1.405 . S
C1605 H1631 0.931 . S
U1606 O1607 2.454 . S
U1606 O1608 2.458 . S
U1606 C1609 2.984 . S
U1606 C1610 2.847 . S
U1606 C1623 2.882 . S
U1606 O1624 2.441 . S
U1606 O1625 2.420 . S
U1606 O1626 2.455 . S
U1606 O1627 2.449 . S
O1607 U1606 2.454 . S
O1607 C1609 1.353 . S
O1608 U1606 2.458 . S
O1608 C1609 1.286 . S
C1609 U1606 2.984 . S
C1609 O1607 1.353 . S
C1609 O1608 1.286 . S
C1609 C1611 1.363 . S
C1610 C1600 1.465 . S
C1610 U1606 2.847 . S
C1610 O1624 1.249 . S
C1610 O1625 1.202 . S
C1611 C1609 1.363 . S
C1611 C1613 1.408 . S
C1611 C1616 1.342 . S
C1612 C1613 1.310 . S
C1612 C1615 1.461 . S
C1612 H1632 0.932 . S
C1613 C1611 1.408 . S
C1613 C1612 1.310 . S
C1613 H1633 0.930 . S
C1614 C1615 1.474 . S
C1614 C1616 1.285 . S
C1614 H1634 0.929 . S
C1615 C1612 1.461 . S
C1615 C1614 1.474 . S
C1616 C1611 1.342 . S
C1616 C1614 1.285 . S
C1616 H1635 0.930 . S
C1617 C1620 1.424 . S
C1617 C1622 1.245 . S
C1617 C1623 1.428 . S
C1618 C1621 1.260 . S
C1618 C1622 1.477 . S
C1618 H1636 0.932 . S
C1619 C1620 1.384 . S
C1619 C1621 1.479 . S
C1619 H1637 0.929 . S
C1620 C1617 1.424 . S
C1620 C1619 1.384 . S
C1620 H1638 0.928 . S
C1621 C1618 1.260 . S
C1621 C1619 1.479 . S
C1622 C1617 1.245 . S
C1622 C1618 1.477 . S
C1622 H1639 0.932 . S
C1623 U1606 2.882 . S
C1623 C1617 1.428 . S
C1623 O1626 1.301 . S
C1623 O1627 1.282 . S
O1624 U1606 2.441 . S
O1624 C1610 1.249 . S
O1625 U1606 2.420 . S
O1625 C1610 1.202 . S
O1626 U1606 2.455 . S
O1626 C1623 1.301 . S
O1627 U1606 2.449 . S
O1627 C1623 1.282 . S
H1628 C1601 0.931 . S
H1629 C1603 0.929 . S
H1630 C1604 0.930 . S
H1631 C1605 0.931 . S
H1632 C1612 0.932 . S
H1633 C1613 0.930 . S
H1634 C1614 0.929 . S
H1635 C1616 0.930 . S
H1636 C1618 0.932 . S
H1637 C1619 0.929 . S
H1638 C1620 0.928 . S
H1639 C1622 0.932 . S
C1640 C1641 1.264 . S
C1640 C1645 1.479 . S
C1640 C1650 1.465 . S
C1641 C1640 1.264 . S
C1641 C1643 1.339 . S
C1641 H1668 0.931 . S
C1642 C1643 1.395 . S
C1642 C1644 1.320 . S
C1643 C1641 1.339 . S
C1643 C1642 1.395 . S
C1643 H1669 0.929 . S
C1644 C1642 1.320 . S
C1644 C1645 1.405 . S
C1644 H1670 0.930 . S
C1645 C1640 1.479 . S
C1645 C1644 1.405 . S
C1645 H1671 0.931 . S
U1646 O1647 2.454 . S
U1646 O1648 2.458 . S
U1646 C1649 2.984 . S
U1646 C1650 2.847 . S
U1646 C1663 2.882 . S
U1646 O1664 2.441 . S
U1646 O1665 2.420 . S
U1646 O1666 2.455 . S
U1646 O1667 2.449 . S
O1647 U1646 2.454 . S
O1647 C1649 1.353 . S
O1648 U1646 2.458 . S
O1648 C1649 1.286 . S
C1649 U1646 2.984 . S
C1649 O1647 1.353 . S
C1649 O1648 1.286 . S
C1649 C1651 1.363 . S
C1650 C1640 1.465 . S
C1650 U1646 2.847 . S
C1650 O1664 1.249 . S
C1650 O1665 1.202 . S
C1651 C1649 1.363 . S
C1651 C1653 1.408 . S
C1651 C1656 1.342 . S
C1652 C1653 1.310 . S
C1652 C1655 1.461 . S
C1652 H1672 0.932 . S
C1653 C1651 1.408 . S
C1653 C1652 1.310 . S
C1653 H1673 0.930 . S
C1654 C1655 1.474 . S
C1654 C1656 1.285 . S
C1654 H1674 0.929 . S
C1655 C1652 1.461 . S
C1655 C1654 1.474 . S
C1656 C1651 1.342 . S
C1656 C1654 1.285 . S
C1656 H1675 0.930 . S
C1657 C1660 1.424 . S
C1657 C1662 1.245 . S
C1657 C1663 1.428 . S
C1658 C1661 1.260 . S
C1658 C1662 1.477 . S
C1658 H1676 0.932 . S
C1659 C1660 1.384 . S
C1659 C1661 1.479 . S
C1659 H1677 0.929 . S
C1660 C1657 1.424 . S
C1660 C1659 1.384 . S
C1660 H1678 0.928 . S
C1661 C1658 1.260 . S
C1661 C1659 1.479 . S
C1662 C1657 1.245 . S
C1662 C1658 1.477 . S
C1662 H1679 0.932 . S
C1663 U1646 2.882 . S
C1663 C1657 1.428 . S
C1663 O1666 1.301 . S
C1663 O1667 1.282 . S
O1664 U1646 2.441 . S
O1664 C1650 1.249 . S
O1665 U1646 2.420 . S
O1665 C1650 1.202 . S
O1666 U1646 2.455 . S
O1666 C1663 1.301 . S
O1667 U1646 2.449 . S
O1667 C1663 1.282 . S
H1668 C1641 0.931 . S
H1669 C1643 0.929 . S
H1670 C1644 0.930 . S
H1671 C1645 0.931 . S
H1672 C1652 0.932 . S
H1673 C1653 0.930 . S
H1674 C1654 0.929 . S
H1675 C1656 0.930 . S
H1676 C1658 0.932 . S
H1677 C1659 0.929 . S
H1678 C1660 0.928 . S
H1679 C1662 0.932 . S
C1680 C1681 1.264 . S
C1680 C1685 1.479 . S
C1680 C1690 1.465 . S
C1681 C1680 1.264 . S
C1681 C1683 1.339 . S
C1681 H1708 0.931 . S
C1682 C1683 1.395 . S
C1682 C1684 1.320 . S
C1683 C1681 1.339 . S
C1683 C1682 1.395 . S
C1683 H1709 0.929 . S
C1684 C1682 1.320 . S
C1684 C1685 1.405 . S
C1684 H1710 0.930 . S
C1685 C1680 1.479 . S
C1685 C1684 1.405 . S
C1685 H1711 0.931 . S
U1686 O1687 2.454 . S
U1686 O1688 2.458 . S
U1686 C1689 2.984 . S
U1686 C1690 2.847 . S
U1686 C1703 2.882 . S
U1686 O1704 2.441 . S
U1686 O1705 2.420 . S
U1686 O1706 2.455 . S
U1686 O1707 2.449 . S
O1687 U1686 2.454 . S
O1687 C1689 1.353 . S
O1688 U1686 2.458 . S
O1688 C1689 1.286 . S
C1689 U1686 2.984 . S
C1689 O1687 1.353 . S
C1689 O1688 1.286 . S
C1689 C1691 1.363 . S
C1690 C1680 1.465 . S
C1690 U1686 2.847 . S
C1690 O1704 1.249 . S
C1690 O1705 1.202 . S
C1691 C1689 1.363 . S
C1691 C1693 1.408 . S
C1691 C1696 1.342 . S
C1692 C1693 1.310 . S
C1692 C1695 1.461 . S
C1692 H1712 0.932 . S
C1693 C1691 1.408 . S
C1693 C1692 1.310 . S
C1693 H1713 0.930 . S
C1694 C1695 1.474 . S
C1694 C1696 1.285 . S
C1694 H1714 0.929 . S
C1695 C1692 1.461 . S
C1695 C1694 1.474 . S
C1696 C1691 1.342 . S
C1696 C1694 1.285 . S
C1696 H1715 0.930 . S
C1697 C1700 1.424 . S
C1697 C1702 1.245 . S
C1697 C1703 1.428 . S
C1698 C1701 1.260 . S
C1698 C1702 1.477 . S
C1698 H1716 0.932 . S
C1699 C1700 1.384 . S
C1699 C1701 1.479 . S
C1699 H1717 0.929 . S
C1700 C1697 1.424 . S
C1700 C1699 1.384 . S
C1700 H1718 0.928 . S
C1701 C1698 1.260 . S
C1701 C1699 1.479 . S
C1702 C1697 1.245 . S
C1702 C1698 1.477 . S
C1702 H1719 0.932 . S
C1703 U1686 2.882 . S
C1703 C1697 1.428 . S
C1703 O1706 1.301 . S
C1703 O1707 1.282 . S
O1704 U1686 2.441 . S
O1704 C1690 1.249 . S
O1705 U1686 2.420 . S
O1705 C1690 1.202 . S
O1706 U1686 2.455 . S
O1706 C1703 1.301 . S
O1707 U1686 2.449 . S
O1707 C1703 1.282 . S
H1708 C1681 0.931 . S
H1709 C1683 0.929 . S
H1710 C1684 0.930 . S
H1711 C1685 0.931 . S
H1712 C1692 0.932 . S
H1713 C1693 0.930 . S
H1714 C1694 0.929 . S
H1715 C1696 0.930 . S
H1716 C1698 0.932 . S
H1717 C1699 0.929 . S
H1718 C1700 0.928 . S
H1719 C1702 0.932 . S
C1720 C1721 1.264 . S
C1720 C1725 1.479 . S
C1720 C1730 1.465 . S
C1721 C1720 1.264 . S
C1721 C1723 1.339 . S
C1721 H1748 0.931 . S
C1722 C1723 1.395 . S
C1722 C1724 1.320 . S
C1723 C1721 1.339 . S
C1723 C1722 1.395 . S
C1723 H1749 0.929 . S
C1724 C1722 1.320 . S
C1724 C1725 1.405 . S
C1724 H1750 0.930 . S
C1725 C1720 1.479 . S
C1725 C1724 1.405 . S
C1725 H1751 0.931 . S
U1726 O1727 2.454 . S
U1726 O1728 2.458 . S
U1726 C1729 2.984 . S
U1726 C1730 2.847 . S
U1726 C1743 2.882 . S
U1726 O1744 2.441 . S
U1726 O1745 2.420 . S
U1726 O1746 2.455 . S
U1726 O1747 2.449 . S
O1727 U1726 2.454 . S
O1727 C1729 1.353 . S
O1728 U1726 2.458 . S
O1728 C1729 1.286 . S
C1729 U1726 2.984 . S
C1729 O1727 1.353 . S
C1729 O1728 1.286 . S
C1729 C1731 1.363 . S
C1730 C1720 1.465 . S
C1730 U1726 2.847 . S
C1730 O1744 1.249 . S
C1730 O1745 1.202 . S
C1731 C1729 1.363 . S
C1731 C1733 1.408 . S
C1731 C1736 1.342 . S
C1732 C1733 1.310 . S
C1732 C1735 1.461 . S
C1732 H1752 0.932 . S
C1733 C1731 1.408 . S
C1733 C1732 1.310 . S
C1733 H1753 0.930 . S
C1734 C1735 1.474 . S
C1734 C1736 1.285 . S
C1734 H1754 0.929 . S
C1735 C1732 1.461 . S
C1735 C1734 1.474 . S
C1736 C1731 1.342 . S
C1736 C1734 1.285 . S
C1736 H1755 0.930 . S
C1737 C1740 1.424 . S
C1737 C1742 1.245 . S
C1737 C1743 1.428 . S
C1738 C1741 1.260 . S
C1738 C1742 1.477 . S
C1738 H1756 0.932 . S
C1739 C1740 1.384 . S
C1739 C1741 1.479 . S
C1739 H1757 0.929 . S
C1740 C1737 1.424 . S
C1740 C1739 1.384 . S
C1740 H1758 0.928 . S
C1741 C1738 1.260 . S
C1741 C1739 1.479 . S
C1742 C1737 1.245 . S
C1742 C1738 1.477 . S
C1742 H1759 0.932 . S
C1743 U1726 2.882 . S
C1743 C1737 1.428 . S
C1743 O1746 1.301 . S
C1743 O1747 1.282 . S
O1744 U1726 2.441 . S
O1744 C1730 1.249 . S
O1745 U1726 2.420 . S
O1745 C1730 1.202 . S
O1746 U1726 2.455 . S
O1746 C1743 1.301 . S
O1747 U1726 2.449 . S
O1747 C1743 1.282 . S
H1748 C1721 0.931 . S
H1749 C1723 0.929 . S
H1750 C1724 0.930 . S
H1751 C1725 0.931 . S
H1752 C1732 0.932 . S
H1753 C1733 0.930 . S
H1754 C1734 0.929 . S
H1755 C1736 0.930 . S
H1756 C1738 0.932 . S
H1757 C1739 0.929 . S
H1758 C1740 0.928 . S
H1759 C1742 0.932 . S
C1760 C1761 1.264 . S
C1760 C1765 1.479 . S
C1760 C1770 1.465 . S
C1761 C1760 1.264 . S
C1761 C1763 1.339 . S
C1761 H1788 0.931 . S
C1762 C1763 1.395 . S
C1762 C1764 1.320 . S
C1763 C1761 1.339 . S
C1763 C1762 1.395 . S
C1763 H1789 0.929 . S
C1764 C1762 1.320 . S
C1764 C1765 1.405 . S
C1764 H1790 0.930 . S
C1765 C1760 1.479 . S
C1765 C1764 1.405 . S
C1765 H1791 0.931 . S
U1766 O1767 2.454 . S
U1766 O1768 2.458 . S
U1766 C1769 2.984 . S
U1766 C1770 2.847 . S
U1766 C1783 2.882 . S
U1766 O1784 2.441 . S
U1766 O1785 2.420 . S
U1766 O1786 2.455 . S
U1766 O1787 2.449 . S
O1767 U1766 2.454 . S
O1767 C1769 1.353 . S
O1768 U1766 2.458 . S
O1768 C1769 1.286 . S
C1769 U1766 2.984 . S
C1769 O1767 1.353 . S
C1769 O1768 1.286 . S
C1769 C1771 1.363 . S
C1770 C1760 1.465 . S
C1770 U1766 2.847 . S
C1770 O1784 1.249 . S
C1770 O1785 1.202 . S
C1771 C1769 1.363 . S
C1771 C1773 1.408 . S
C1771 C1776 1.342 . S
C1772 C1773 1.310 . S
C1772 C1775 1.461 . S
C1772 H1792 0.932 . S
C1773 C1771 1.408 . S
C1773 C1772 1.310 . S
C1773 H1793 0.930 . S
C1774 C1775 1.474 . S
C1774 C1776 1.285 . S
C1774 H1794 0.929 . S
C1775 C1772 1.461 . S
C1775 C1774 1.474 . S
C1776 C1771 1.342 . S
C1776 C1774 1.285 . S
C1776 H1795 0.930 . S
C1777 C1780 1.424 . S
C1777 C1782 1.245 . S
C1777 C1783 1.428 . S
C1778 C1781 1.260 . S
C1778 C1782 1.477 . S
C1778 H1796 0.932 . S
C1779 C1780 1.384 . S
C1779 C1781 1.479 . S
C1779 H1797 0.929 . S
C1780 C1777 1.424 . S
C1780 C1779 1.384 . S
C1780 H1798 0.928 . S
C1781 C1778 1.260 . S
C1781 C1779 1.479 . S
C1782 C1777 1.245 . S
C1782 C1778 1.477 . S
C1782 H1799 0.932 . S
C1783 U1766 2.882 . S
C1783 C1777 1.428 . S
C1783 O1786 1.301 . S
C1783 O1787 1.282 . S
O1784 U1766 2.441 . S
O1784 C1770 1.249 . S
O1785 U1766 2.420 . S
O1785 C1770 1.202 . S
O1786 U1766 2.455 . S
O1786 C1783 1.301 . S
O1787 U1766 2.449 . S
O1787 C1783 1.282 . S
H1788 C1761 0.931 . S
H1789 C1763 0.929 . S
H1790 C1764 0.930 . S
H1791 C1765 0.931 . S
H1792 C1772 0.932 . S
H1793 C1773 0.930 . S
H1794 C1774 0.929 . S
H1795 C1776 0.930 . S
H1796 C1778 0.932 . S
H1797 C1779 0.929 . S
H1798 C1780 0.928 . S
H1799 C1782 0.932 . S
C1800 C1801 1.264 . S
C1800 C1805 1.479 . S
C1800 C1810 1.465 . S
C1801 C1800 1.264 . S
C1801 C1803 1.339 . S
C1801 H1828 0.931 . S
C1802 C1803 1.395 . S
C1802 C1804 1.320 . S
C1803 C1801 1.339 . S
C1803 C1802 1.395 . S
C1803 H1829 0.929 . S
C1804 C1802 1.320 . S
C1804 C1805 1.405 . S
C1804 H1830 0.930 . S
C1805 C1800 1.479 . S
C1805 C1804 1.405 . S
C1805 H1831 0.931 . S
U1806 O1807 2.454 . S
U1806 O1808 2.458 . S
U1806 C1809 2.984 . S
U1806 C1810 2.847 . S
U1806 C1823 2.882 . S
U1806 O1824 2.441 . S
U1806 O1825 2.420 . S
U1806 O1826 2.455 . S
U1806 O1827 2.449 . S
O1807 U1806 2.454 . S
O1807 C1809 1.353 . S
O1808 U1806 2.458 . S
O1808 C1809 1.286 . S
C1809 U1806 2.984 . S
C1809 O1807 1.353 . S
C1809 O1808 1.286 . S
C1809 C1811 1.363 . S
C1810 C1800 1.465 . S
C1810 U1806 2.847 . S
C1810 O1824 1.249 . S
C1810 O1825 1.202 . S
C1811 C1809 1.363 . S
C1811 C1813 1.408 . S
C1811 C1816 1.342 . S
C1812 C1813 1.310 . S
C1812 C1815 1.461 . S
C1812 H1832 0.932 . S
C1813 C1811 1.408 . S
C1813 C1812 1.310 . S
C1813 H1833 0.930 . S
C1814 C1815 1.474 . S
C1814 C1816 1.285 . S
C1814 H1834 0.929 . S
C1815 C1812 1.461 . S
C1815 C1814 1.474 . S
C1816 C1811 1.342 . S
C1816 C1814 1.285 . S
C1816 H1835 0.930 . S
C1817 C1820 1.424 . S
C1817 C1822 1.245 . S
C1817 C1823 1.428 . S
C1818 C1821 1.260 . S
C1818 C1822 1.477 . S
C1818 H1836 0.932 . S
C1819 C1820 1.384 . S
C1819 C1821 1.479 . S
C1819 H1837 0.929 . S
C1820 C1817 1.424 . S
C1820 C1819 1.384 . S
C1820 H1838 0.928 . S
C1821 C1818 1.260 . S
C1821 C1819 1.479 . S
C1822 C1817 1.245 . S
C1822 C1818 1.477 . S
C1822 H1839 0.932 . S
C1823 U1806 2.882 . S
C1823 C1817 1.428 . S
C1823 O1826 1.301 . S
C1823 O1827 1.282 . S
O1824 U1806 2.441 . S
O1824 C1810 1.249 . S
O1825 U1806 2.420 . S
O1825 C1810 1.202 . S
O1826 U1806 2.455 . S
O1826 C1823 1.301 . S
O1827 U1806 2.449 . S
O1827 C1823 1.282 . S
H1828 C1801 0.931 . S
H1829 C1803 0.929 . S
H1830 C1804 0.930 . S
H1831 C1805 0.931 . S
H1832 C1812 0.932 . S
H1833 C1813 0.930 . S
H1834 C1814 0.929 . S
H1835 C1816 0.930 . S
H1836 C1818 0.932 . S
H1837 C1819 0.929 . S
H1838 C1820 0.928 . S
H1839 C1822 0.932 . S
C1840 C1841 1.264 . S
C1840 C1845 1.479 . S
C1840 C1850 1.465 . S
C1841 C1840 1.264 . S
C1841 C1843 1.339 . S
C1841 H1868 0.931 . S
C1842 C1843 1.395 . S
C1842 C1844 1.320 . S
C1843 C1841 1.339 . S
C1843 C1842 1.395 . S
C1843 H1869 0.929 . S
C1844 C1842 1.320 . S
C1844 C1845 1.405 . S
C1844 H1870 0.930 . S
C1845 C1840 1.479 . S
C1845 C1844 1.405 . S
C1845 H1871 0.931 . S
U1846 O1847 2.454 . S
U1846 O1848 2.458 . S
U1846 C1849 2.984 . S
U1846 C1850 2.847 . S
U1846 C1863 2.882 . S
U1846 O1864 2.441 . S
U1846 O1865 2.420 . S
U1846 O1866 2.455 . S
U1846 O1867 2.449 . S
O1847 U1846 2.454 . S
O1847 C1849 1.353 . S
O1848 U1846 2.458 . S
O1848 C1849 1.286 . S
C1849 U1846 2.984 . S
C1849 O1847 1.353 . S
C1849 O1848 1.286 . S
C1849 C1851 1.363 . S
C1850 C1840 1.465 . S
C1850 U1846 2.847 . S
C1850 O1864 1.249 . S
C1850 O1865 1.202 . S
C1851 C1849 1.363 . S
C1851 C1853 1.408 . S
C1851 C1856 1.342 . S
C1852 C1853 1.310 . S
C1852 C1855 1.461 . S
C1852 H1872 0.932 . S
C1853 C1851 1.408 . S
C1853 C1852 1.310 . S
C1853 H1873 0.930 . S
C1854 C1855 1.474 . S
C1854 C1856 1.285 . S
C1854 H1874 0.929 . S
C1855 C1852 1.461 . S
C1855 C1854 1.474 . S
C1856 C1851 1.342 . S
C1856 C1854 1.285 . S
C1856 H1875 0.930 . S
C1857 C1860 1.424 . S
C1857 C1862 1.245 . S
C1857 C1863 1.428 . S
C1858 C1861 1.260 . S
C1858 C1862 1.477 . S
C1858 H1876 0.932 . S
C1859 C1860 1.384 . S
C1859 C1861 1.479 . S
C1859 H1877 0.929 . S
C1860 C1857 1.424 . S
C1860 C1859 1.384 . S
C1860 H1878 0.928 . S
C1861 C1858 1.260 . S
C1861 C1859 1.479 . S
C1862 C1857 1.245 . S
C1862 C1858 1.477 . S
C1862 H1879 0.932 . S
C1863 U1846 2.882 . S
C1863 C1857 1.428 . S
C1863 O1866 1.301 . S
C1863 O1867 1.282 . S
O1864 U1846 2.441 . S
O1864 C1850 1.249 . S
O1865 U1846 2.420 . S
O1865 C1850 1.202 . S
O1866 U1846 2.455 . S
O1866 C1863 1.301 . S
O1867 U1846 2.449 . S
O1867 C1863 1.282 . S
H1868 C1841 0.931 . S
H1869 C1843 0.929 . S
H1870 C1844 0.930 . S
H1871 C1845 0.931 . S
H1872 C1852 0.932 . S
H1873 C1853 0.930 . S
H1874 C1854 0.929 . S
H1875 C1856 0.930 . S
H1876 C1858 0.932 . S
H1877 C1859 0.929 . S
H1878 C1860 0.928 . S
H1879 C1862 0.932 . S
C1880 C1881 1.264 . S
C1880 C1885 1.479 . S
C1880 C1890 1.465 . S
C1881 C1880 1.264 . S
C1881 C1883 1.339 . S
C1881 H1908 0.931 . S
C1882 C1883 1.395 . S
C1882 C1884 1.320 . S
C1883 C1881 1.339 . S
C1883 C1882 1.395 . S
C1883 H1909 0.929 . S
C1884 C1882 1.320 . S
C1884 C1885 1.405 . S
C1884 H1910 0.930 . S
C1885 C1880 1.479 . S
C1885 C1884 1.405 . S
C1885 H1911 0.931 . S
U1886 O1887 2.454 . S
U1886 O1888 2.458 . S
U1886 C1889 2.984 . S
U1886 C1890 2.847 . S
U1886 C1903 2.882 . S
U1886 O1904 2.441 . S
U1886 O1905 2.420 . S
U1886 O1906 2.455 . S
U1886 O1907 2.449 . S
O1887 U1886 2.454 . S
O1887 C1889 1.353 . S
O1888 U1886 2.458 . S
O1888 C1889 1.286 . S
C1889 U1886 2.984 . S
C1889 O1887 1.353 . S
C1889 O1888 1.286 . S
C1889 C1891 1.363 . S
C1890 C1880 1.465 . S
C1890 U1886 2.847 . S
C1890 O1904 1.249 . S
C1890 O1905 1.202 . S
C1891 C1889 1.363 . S
C1891 C1893 1.408 . S
C1891 C1896 1.342 . S
C1892 C1893 1.310 . S
C1892 C1895 1.461 . S
C1892 H1912 0.932 . S
C1893 C1891 1.408 . S
C1893 C1892 1.310 . S
C1893 H1913 0.930 . S
C1894 C1895 1.474 . S
C1894 C1896 1.285 . S
C1894 H1914 0.929 . S
C1895 C1892 1.461 . S
C1895 C1894 1.474 . S
C1896 C1891 1.342 . S
C1896 C1894 1.285 . S
C1896 H1915 0.930 . S
C1897 C1900 1.424 . S
C1897 C1902 1.245 . S
C1897 C1903 1.428 . S
C1898 C1901 1.260 . S
C1898 C1902 1.477 . S
C1898 H1916 0.932 . S
C1899 C1900 1.384 . S
C1899 C1901 1.479 . S
C1899 H1917 0.929 . S
C1900 C1897 1.424 . S
C1900 C1899 1.384 . S
C1900 H1918 0.928 . S
C1901 C1898 1.260 . S
C1901 C1899 1.479 . S
C1902 C1897 1.245 . S
C1902 C1898 1.477 . S
C1902 H1919 0.932 . S
C1903 U1886 2.882 . S
C1903 C1897 1.428 . S
C1903 O1906 1.301 . S
C1903 O1907 1.282 . S
O1904 U1886 2.441 . S
O1904 C1890 1.249 . S
O1905 U1886 2.420 . S
O1905 C1890 1.202 . S
O1906 U1886 2.455 . S
O1906 C1903 1.301 . S
O1907 U1886 2.449 . S
O1907 C1903 1.282 . S
H1908 C1881 0.931 . S
H1909 C1883 0.929 . S
H1910 C1884 0.930 . S
H1911 C1885 0.931 . S
H1912 C1892 0.932 . S
H1913 C1893 0.930 . S
H1914 C1894 0.929 . S
H1915 C1896 0.930 . S
H1916 C1898 0.932 . S
H1917 C1899 0.929 . S
H1918 C1900 0.928 . S
H1919 C1902 0.932 . S
C1920 C1921 1.264 . S
C1920 C1925 1.479 . S
C1920 C1930 1.465 . S
C1921 C1920 1.264 . S
C1921 C1923 1.339 . S
C1921 H1948 0.931 . S
C1922 C1923 1.395 . S
C1922 C1924 1.320 . S
C1923 C1921 1.339 . S
C1923 C1922 1.395 . S
C1923 H1949 0.929 . S
C1924 C1922 1.320 . S
C1924 C1925 1.405 . S
C1924 H1950 0.930 . S
C1925 C1920 1.479 . S
C1925 C1924 1.405 . S
C1925 H1951 0.931 . S
U1926 O1927 2.454 . S
U1926 O1928 2.458 . S
U1926 C1929 2.984 . S
U1926 C1930 2.847 . S
U1926 C1943 2.882 . S
U1926 O1944 2.441 . S
U1926 O1945 2.420 . S
U1926 O1946 2.455 . S
U1926 O1947 2.449 . S
O1927 U1926 2.454 . S
O1927 C1929 1.353 . S
O1928 U1926 2.458 . S
O1928 C1929 1.286 . S
C1929 U1926 2.984 . S
C1929 O1927 1.353 . S
C1929 O1928 1.286 . S
C1929 C1931 1.363 . S
C1930 C1920 1.465 . S
C1930 U1926 2.847 . S
C1930 O1944 1.249 . S
C1930 O1945 1.202 . S
C1931 C1929 1.363 . S
C1931 C1933 1.408 . S
C1931 C1936 1.342 . S
C1932 C1933 1.310 . S
C1932 C1935 1.461 . S
C1932 H1952 0.932 . S
C1933 C1931 1.408 . S
C1933 C1932 1.310 . S
C1933 H1953 0.930 . S
C1934 C1935 1.474 . S
C1934 C1936 1.285 . S
C1934 H1954 0.929 . S
C1935 C1932 1.461 . S
C1935 C1934 1.474 . S
C1936 C1931 1.342 . S
C1936 C1934 1.285 . S
C1936 H1955 0.930 . S
C1937 C1940 1.424 . S
C1937 C1942 1.245 . S
C1937 C1943 1.428 . S
C1938 C1941 1.260 . S
C1938 C1942 1.477 . S
C1938 H1956 0.932 . S
C1939 C1940 1.384 . S
C1939 C1941 1.479 . S
C1939 H1957 0.929 . S
C1940 C1937 1.424 . S
C1940 C1939 1.384 . S
C1940 H1958 0.928 . S
C1941 C1938 1.260 . S
C1941 C1939 1.479 . S
C1942 C1937 1.245 . S
C1942 C1938 1.477 . S
C1942 H1959 0.932 . S
C1943 U1926 2.882 . S
C1943 C1937 1.428 . S
C1943 O1946 1.301 . S
C1943 O1947 1.282 . S
O1944 U1926 2.441 . S
O1944 C1930 1.249 . S
O1945 U1926 2.420 . S
O1945 C1930 1.202 . S
O1946 U1926 2.455 . S
O1946 C1943 1.301 . S
O1947 U1926 2.449 . S
O1947 C1943 1.282 . S
H1948 C1921 0.931 . S
H1949 C1923 0.929 . S
H1950 C1924 0.930 . S
H1951 C1925 0.931 . S
H1952 C1932 0.932 . S
H1953 C1933 0.930 . S
H1954 C1934 0.929 . S
H1955 C1936 0.930 . S
H1956 C1938 0.932 . S
H1957 C1939 0.929 . S
H1958 C1940 0.928 . S
H1959 C1942 0.932 . S
C1960 C1961 1.264 . S
C1960 C1965 1.479 . S
C1960 C1970 1.465 . S
C1961 C1960 1.264 . S
C1961 C1963 1.339 . S
C1961 H1988 0.931 . S
C1962 C1963 1.395 . S
C1962 C1964 1.320 . S
C1963 C1961 1.339 . S
C1963 C1962 1.395 . S
C1963 H1989 0.929 . S
C1964 C1962 1.320 . S
C1964 C1965 1.405 . S
C1964 H1990 0.930 . S
C1965 C1960 1.479 . S
C1965 C1964 1.405 . S
C1965 H1991 0.931 . S
U1966 O1967 2.454 . S
U1966 O1968 2.458 . S
U1966 C1969 2.984 . S
U1966 C1970 2.847 . S
U1966 C1983 2.882 . S
U1966 O1984 2.441 . S
U1966 O1985 2.420 . S
U1966 O1986 2.455 . S
U1966 O1987 2.449 . S
O1967 U1966 2.454 . S
O1967 C1969 1.353 . S
O1968 U1966 2.458 . S
O1968 C1969 1.286 . S
C1969 U1966 2.984 . S
C1969 O1967 1.353 . S
C1969 O1968 1.286 . S
C1969 C1971 1.363 . S
C1970 C1960 1.465 . S
C1970 U1966 2.847 . S
C1970 O1984 1.249 . S
C1970 O1985 1.202 . S
C1971 C1969 1.363 . S
C1971 C1973 1.408 . S
C1971 C1976 1.342 . S
C1972 C1973 1.310 . S
C1972 C1975 1.461 . S
C1972 H1992 0.932 . S
C1973 C1971 1.408 . S
C1973 C1972 1.310 . S
C1973 H1993 0.930 . S
C1974 C1975 1.474 . S
C1974 C1976 1.285 . S
C1974 H1994 0.929 . S
C1975 C1972 1.461 . S
C1975 C1974 1.474 . S
C1976 C1971 1.342 . S
C1976 C1974 1.285 . S
C1976 H1995 0.930 . S
C1977 C1980 1.424 . S
C1977 C1982 1.245 . S
C1977 C1983 1.428 . S
C1978 C1981 1.260 . S
C1978 C1982 1.477 . S
C1978 H1996 0.932 . S
C1979 C1980 1.384 . S
C1979 C1981 1.479 . S
C1979 H1997 0.929 . S
C1980 C1977 1.424 . S
C1980 C1979 1.384 . S
C1980 H1998 0.928 . S
C1981 C1978 1.260 . S
C1981 C1979 1.479 . S
C1982 C1977 1.245 . S
C1982 C1978 1.477 . S
C1982 H1999 0.932 . S
C1983 U1966 2.882 . S
C1983 C1977 1.428 . S
C1983 O1986 1.301 . S
C1983 O1987 1.282 . S
O1984 U1966 2.441 . S
O1984 C1970 1.249 . S
O1985 U1966 2.420 . S
O1985 C1970 1.202 . S
O1986 U1966 2.455 . S
O1986 C1983 1.301 . S
O1987 U1966 2.449 . S
O1987 C1983 1.282 . S
H1988 C1961 0.931 . S
H1989 C1963 0.929 . S
H1990 C1964 0.930 . S
H1991 C1965 0.931 . S
H1992 C1972 0.932 . S
H1993 C1973 0.930 . S
H1994 C1974 0.929 . S
H1995 C1976 0.930 . S
H1996 C1978 0.932 . S
H1997 C1979 0.929 . S
H1998 C1980 0.928 . S
H1999 C1982 0.932 . S
C2000 C2001 1.264 . S
C2000 C2005 1.479 . S
C2000 C2010 1.465 . S
C2001 C2000 1.264 . S
C2001 C2003 1.339 . S
C2001 H2028 0.931 . S
C2002 C2003 1.395 . S
C2002 C2004 1.320 . S
C2003 C2001 1.339 . S
C2003 C2002 1.395 . S
C2003 H2029 0.929 . S
C2004 C2002 1.320 . S
C2004 C2005 1.405 . S
C2004 H2030 0.930 . S
C2005 C2000 1.479 . S
C2005 C2004 1.405 . S
C2005 H2031 0.931 . S
U2006 O2007 2.454 . S
U2006 O2008 2.458 . S
U2006 C2009 2.984 . S
U2006 C2010 2.847 . S
U2006 C2023 2.882 . S
U2006 O2024 2.441 . S
U2006 O2025 2.420 . S
U2006 O2026 2.455 . S
U2006 O2027 2.449 . S
O2007 U2006 2.454 . S
O2007 C2009 1.353 . S
O2008 U2006 2.458 . S
O2008 C2009 1.286 . S
C2009 U2006 2.984 . S
C2009 O2007 1.353 . S
C2009 O2008 1.286 . S
C2009 C2011 1.363 . S
C2010 C2000 1.465 . S
C2010 U2006 2.847 . S
C2010 O2024 1.249 . S
C2010 O2025 1.202 . S
C2011 C2009 1.363 . S
C2011 C2013 1.408 . S
C2011 C2016 1.342 . S
C2012 C2013 1.310 . S
C2012 C2015 1.461 . S
C2012 H2032 0.932 . S
C2013 C2011 1.408 . S
C2013 C2012 1.310 . S
C2013 H2033 0.930 . S
C2014 C2015 1.474 . S
C2014 C2016 1.285 . S
C2014 H2034 0.929 . S
C2015 C2012 1.461 . S
C2015 C2014 1.474 . S
C2016 C2011 1.342 . S
C2016 C2014 1.285 . S
C2016 H2035 0.930 . S
C2017 C2020 1.424 . S
C2017 C2022 1.245 . S
C2017 C2023 1.428 . S
C2018 C2021 1.260 . S
C2018 C2022 1.477 . S
C2018 H2036 0.932 . S
C2019 C2020 1.384 . S
C2019 C2021 1.479 . S
C2019 H2037 0.929 . S
C2020 C2017 1.424 . S
C2020 C2019 1.384 . S
C2020 H2038 0.928 . S
C2021 C2018 1.260 . S
C2021 C2019 1.479 . S
C2022 C2017 1.245 . S
C2022 C2018 1.477 . S
C2022 H2039 0.932 . S
C2023 U2006 2.882 . S
C2023 C2017 1.428 . S
C2023 O2026 1.301 . S
C2023 O2027 1.282 . S
O2024 U2006 2.441 . S
O2024 C2010 1.249 . S
O2025 U2006 2.420 . S
O2025 C2010 1.202 . S
O2026 U2006 2.455 . S
O2026 C2023 1.301 . S
O2027 U2006 2.449 . S
O2027 C2023 1.282 . S
H2028 C2001 0.931 . S
H2029 C2003 0.929 . S
H2030 C2004 0.930 . S
H2031 C2005 0.931 . S
H2032 C2012 0.932 . S
H2033 C2013 0.930 . S
H2034 C2014 0.929 . S
H2035 C2016 0.930 . S
H2036 C2018 0.932 . S
H2037 C2019 0.929 . S
H2038 C2020 0.928 . S
H2039 C2022 0.932 . S
C2040 C2041 1.264 . S
C2040 C2045 1.479 . S
C2040 C2050 1.465 . S
C2041 C2040 1.264 . S
C2041 C2043 1.339 . S
C2041 H2068 0.931 . S
C2042 C2043 1.395 . S
C2042 C2044 1.320 . S
C2043 C2041 1.339 . S
C2043 C2042 1.395 . S
C2043 H2069 0.929 . S
C2044 C2042 1.320 . S
C2044 C2045 1.405 . S
C2044 H2070 0.930 . S
C2045 C2040 1.479 . S
C2045 C2044 1.405 . S
C2045 H2071 0.931 . S
U2046 O2047 2.454 . S
U2046 O2048 2.458 . S
U2046 C2049 2.984 . S
U2046 C2050 2.847 . S
U2046 C2063 2.882 . S
U2046 O2064 2.441 . S
U2046 O2065 2.420 . S
U2046 O2066 2.455 . S
U2046 O2067 2.449 . S
O2047 U2046 2.454 . S
O2047 C2049 1.353 . S
O2048 U2046 2.458 . S
O2048 C2049 1.286 . S
C2049 U2046 2.984 . S
C2049 O2047 1.353 . S
C2049 O2048 1.286 . S
C2049 C2051 1.363 . S
C2050 C2040 1.465 . S
C2050 U2046 2.847 . S
C2050 O2064 1.249 . S
C2050 O2065 1.202 . S
C2051 C2049 1.363 . S
C2051 C2053 1.408 . S
C2051 C2056 1.342 . S
C2052 C2053 1.310 . S
C2052 C2055 1.461 . S
C2052 H2072 0.932 . S
C2053 C2051 1.408 . S
C2053 C2052 1.310 . S
C2053 H2073 0.930 . S
C2054 C2055 1.474 . S
C2054 C2056 1.285 . S
C2054 H2074 0.929 . S
C2055 C2052 1.461 . S
C2055 C2054 1.474 . S
C2056 C2051 1.342 . S
C2056 C2054 1.285 . S
C2056 H2075 0.930 . S
C2057 C2060 1.424 . S
C2057 C2062 1.245 . S
C2057 C2063 1.428 . S
C2058 C2061 1.260 . S
C2058 C2062 1.477 . S
C2058 H2076 0.932 . S
C2059 C2060 1.384 . S
C2059 C2061 1.479 . S
C2059 H2077 0.929 . S
C2060 C2057 1.424 . S
C2060 C2059 1.384 . S
C2060 H2078 0.928 . S
C2061 C2058 1.260 . S
C2061 C2059 1.479 . S
C2062 C2057 1.245 . S
C2062 C2058 1.477 . S
C2062 H2079 0.932 . S
C2063 U2046 2.882 . S
C2063 C2057 1.428 . S
C2063 O2066 1.301 . S
C2063 O2067 1.282 . S
O2064 U2046 2.441 . S
O2064 C2050 1.249 . S
O2065 U2046 2.420 . S
O2065 C2050 1.202 . S
O2066 U2046 2.455 . S
O2066 C2063 1.301 . S
O2067 U2046 2.449 . S
O2067 C2063 1.282 . S
H2068 C2041 0.931 . S
H2069 C2043 0.929 . S
H2070 C2044 0.930 . S
H2071 C2045 0.931 . S
H2072 C2052 0.932 . S
H2073 C2053 0.930 . S
H2074 C2054 0.929 . S
H2075 C2056 0.930 . S
H2076 C2058 0.932 . S
H2077 C2059 0.929 . S
H2078 C2060 0.928 . S
H2079 C2062 0.932 . S
C2080 C2081 1.264 . S
C2080 C2085 1.479 . S
C2080 C2090 1.465 . S
C2081 C2080 1.264 . S
C2081 C2083 1.339 . S
C2081 H2108 0.931 . S
C2082 C2083 1.395 . S
C2082 C2084 1.320 . S
C2083 C2081 1.339 . S
C2083 C2082 1.395 . S
C2083 H2109 0.929 . S
C2084 C2082 1.320 . S
C2084 C2085 1.405 . S
C2084 H2110 0.930 . S
C2085 C2080 1.479 . S
C2085 C2084 1.405 . S
C2085 H2111 0.931 . S
U2086 O2087 2.454 . S
U2086 O2088 2.458 . S
U2086 C2089 2.984 . S
U2086 C2090 2.847 . S
U2086 C2103 2.882 . S
U2086 O2104 2.441 . S
U2086 O2105 2.420 . S
U2086 O2106 2.455 . S
U2086 O2107 2.449 . S
O2087 U2086 2.454 . S
O2087 C2089 1.353 . S
O2088 U2086 2.458 . S
O2088 C2089 1.286 . S
C2089 U2086 2.984 . S
C2089 O2087 1.353 . S
C2089 O2088 1.286 . S
C2089 C2091 1.363 . S
C2090 C2080 1.465 . S
C2090 U2086 2.847 . S
C2090 O2104 1.249 . S
C2090 O2105 1.202 . S
C2091 C2089 1.363 . S
C2091 C2093 1.408 . S
C2091 C2096 1.342 . S
C2092 C2093 1.310 . S
C2092 C2095 1.461 . S
C2092 H2112 0.932 . S
C2093 C2091 1.408 . S
C2093 C2092 1.310 . S
C2093 H2113 0.930 . S
C2094 C2095 1.474 . S
C2094 C2096 1.285 . S
C2094 H2114 0.929 . S
C2095 C2092 1.461 . S
C2095 C2094 1.474 . S
C2096 C2091 1.342 . S
C2096 C2094 1.285 . S
C2096 H2115 0.930 . S
C2097 C2100 1.424 . S
C2097 C2102 1.245 . S
C2097 C2103 1.428 . S
C2098 C2101 1.260 . S
C2098 C2102 1.477 . S
C2098 H2116 0.932 . S
C2099 C2100 1.384 . S
C2099 C2101 1.479 . S
C2099 H2117 0.929 . S
C2100 C2097 1.424 . S
C2100 C2099 1.384 . S
C2100 H2118 0.928 . S
C2101 C2098 1.260 . S
C2101 C2099 1.479 . S
C2102 C2097 1.245 . S
C2102 C2098 1.477 . S
C2102 H2119 0.932 . S
C2103 U2086 2.882 . S
C2103 C2097 1.428 . S
C2103 O2106 1.301 . S
C2103 O2107 1.282 . S
O2104 U2086 2.441 . S
O2104 C2090 1.249 . S
O2105 U2086 2.420 . S
O2105 C2090 1.202 . S
O2106 U2086 2.455 . S
O2106 C2103 1.301 . S
O2107 U2086 2.449 . S
O2107 C2103 1.282 . S
H2108 C2081 0.931 . S
H2109 C2083 0.929 . S
H2110 C2084 0.930 . S
H2111 C2085 0.931 . S
H2112 C2092 0.932 . S
H2113 C2093 0.930 . S
H2114 C2094 0.929 . S
H2115 C2096 0.930 . S
H2116 C2098 0.932 . S
H2117 C2099 0.929 . S
H2118 C2100 0.928 . S
H2119 C2102 0.932 . S
C2120 C2121 1.264 . S
C2120 C2125 1.479 . S
C2120 C2130 1.465 . S
C2121 C2120 1.264 . S
C2121 C2123 1.339 . S
C2121 H2148 0.931 . S
C2122 C2123 1.395 . S
C2122 C2124 1.320 . S
C2123 C2121 1.339 . S
C2123 C2122 1.395 . S
C2123 H2149 0.929 . S
C2124 C2122 1.320 . S
C2124 C2125 1.405 . S
C2124 H2150 0.930 . S
C2125 C2120 1.479 . S
C2125 C2124 1.405 . S
C2125 H2151 0.931 . S
U2126 O2127 2.454 . S
U2126 O2128 2.458 . S
U2126 C2129 2.984 . S
U2126 C2130 2.847 . S
U2126 C2143 2.882 . S
U2126 O2144 2.441 . S
U2126 O2145 2.420 . S
U2126 O2146 2.455 . S
U2126 O2147 2.449 . S
O2127 U2126 2.454 . S
O2127 C2129 1.353 . S
O2128 U2126 2.458 . S
O2128 C2129 1.286 . S
C2129 U2126 2.984 . S
C2129 O2127 1.353 . S
C2129 O2128 1.286 . S
C2129 C2131 1.363 . S
C2130 C2120 1.465 . S
C2130 U2126 2.847 . S
C2130 O2144 1.249 . S
C2130 O2145 1.202 . S
C2131 C2129 1.363 . S
C2131 C2133 1.408 . S
C2131 C2136 1.342 . S
C2132 C2133 1.310 . S
C2132 C2135 1.461 . S
C2132 H2152 0.932 . S
C2133 C2131 1.408 . S
C2133 C2132 1.310 . S
C2133 H2153 0.930 . S
C2134 C2135 1.474 . S
C2134 C2136 1.285 . S
C2134 H2154 0.929 . S
C2135 C2132 1.461 . S
C2135 C2134 1.474 . S
C2136 C2131 1.342 . S
C2136 C2134 1.285 . S
C2136 H2155 0.930 . S
C2137 C2140 1.424 . S
C2137 C2142 1.245 . S
C2137 C2143 1.428 . S
C2138 C2141 1.260 . S
C2138 C2142 1.477 . S
C2138 H2156 0.932 . S
C2139 C2140 1.384 . S
C2139 C2141 1.479 . S
C2139 H2157 0.929 . S
C2140 C2137 1.424 . S
C2140 C2139 1.384 . S
C2140 H2158 0.928 . S
C2141 C2138 1.260 . S
C2141 C2139 1.479 . S
C2142 C2137 1.245 . S
C2142 C2138 1.477 . S
C2142 H2159 0.932 . S
C2143 U2126 2.882 . S
C2143 C2137 1.428 . S
C2143 O2146 1.301 . S
C2143 O2147 1.282 . S
O2144 U2126 2.441 . S
O2144 C2130 1.249 . S
O2145 U2126 2.420 . S
O2145 C2130 1.202 . S
O2146 U2126 2.455 . S
O2146 C2143 1.301 . S
O2147 U2126 2.449 . S
O2147 C2143 1.282 . S
H2148 C2121 0.931 . S
H2149 C2123 0.929 . S
H2150 C2124 0.930 . S
H2151 C2125 0.931 . S
H2152 C2132 0.932 . S
H2153 C2133 0.930 . S
H2154 C2134 0.929 . S
H2155 C2136 0.930 . S
H2156 C2138 0.932 . S
H2157 C2139 0.929 . S
H2158 C2140 0.928 . S
H2159 C2142 0.932 . S
C2160 C2161 1.264 . S
C2160 C2165 1.479 . S
C2160 C2170 1.465 . S
C2161 C2160 1.264 . S
C2161 C2163 1.339 . S
C2161 H2188 0.931 . S
C2162 C2163 1.395 . S
C2162 C2164 1.320 . S
C2163 C2161 1.339 . S
C2163 C2162 1.395 . S
C2163 H2189 0.929 . S
C2164 C2162 1.320 . S
C2164 C2165 1.405 . S
C2164 H2190 0.930 . S
C2165 C2160 1.479 . S
C2165 C2164 1.405 . S
C2165 H2191 0.931 . S
U2166 O2167 2.454 . S
U2166 O2168 2.458 . S
U2166 C2169 2.984 . S
U2166 C2170 2.847 . S
U2166 C2183 2.882 . S
U2166 O2184 2.441 . S
U2166 O2185 2.420 . S
U2166 O2186 2.455 . S
U2166 O2187 2.449 . S
O2167 U2166 2.454 . S
O2167 C2169 1.353 . S
O2168 U2166 2.458 . S
O2168 C2169 1.286 . S
C2169 U2166 2.984 . S
C2169 O2167 1.353 . S
C2169 O2168 1.286 . S
C2169 C2171 1.363 . S
C2170 C2160 1.465 . S
C2170 U2166 2.847 . S
C2170 O2184 1.249 . S
C2170 O2185 1.202 . S
C2171 C2169 1.363 . S
C2171 C2173 1.408 . S
C2171 C2176 1.342 . S
C2172 C2173 1.310 . S
C2172 C2175 1.461 . S
C2172 H2192 0.932 . S
C2173 C2171 1.408 . S
C2173 C2172 1.310 . S
C2173 H2193 0.930 . S
C2174 C2175 1.474 . S
C2174 C2176 1.285 . S
C2174 H2194 0.929 . S
C2175 C2172 1.461 . S
C2175 C2174 1.474 . S
C2176 C2171 1.342 . S
C2176 C2174 1.285 . S
C2176 H2195 0.930 . S
C2177 C2180 1.424 . S
C2177 C2182 1.245 . S
C2177 C2183 1.428 . S
C2178 C2181 1.260 . S
C2178 C2182 1.477 . S
C2178 H2196 0.932 . S
C2179 C2180 1.384 . S
C2179 C2181 1.479 . S
C2179 H2197 0.929 . S
C2180 C2177 1.424 . S
C2180 C2179 1.384 . S
C2180 H2198 0.928 . S
C2181 C2178 1.260 . S
C2181 C2179 1.479 . S
C2182 C2177 1.245 . S
C2182 C2178 1.477 . S
C2182 H2199 0.932 . S
C2183 U2166 2.882 . S
C2183 C2177 1.428 . S
C2183 O2186 1.301 . S
C2183 O2187 1.282 . S
O2184 U2166 2.441 . S
O2184 C2170 1.249 . S
O2185 U2166 2.420 . S
O2185 C2170 1.202 . S
O2186 U2166 2.455 . S
O2186 C2183 1.301 . S
O2187 U2166 2.449 . S
O2187 C2183 1.282 . S
H2188 C2161 0.931 . S
H2189 C2163 0.929 . S
H2190 C2164 0.930 . S
H2191 C2165 0.931 . S
H2192 C2172 0.932 . S
H2193 C2173 0.930 . S
H2194 C2174 0.929 . S
H2195 C2176 0.930 . S
H2196 C2178 0.932 . S
H2197 C2179 0.929 . S
H2198 C2180 0.928 . S
H2199 C2182 0.932 . S
C2200 C2201 1.264 . S
C2200 C2205 1.479 . S
C2200 C2210 1.465 . S
C2201 C2200 1.264 . S
C2201 C2203 1.339 . S
C2201 H2228 0.931 . S
C2202 C2203 1.395 . S
C2202 C2204 1.320 . S
C2203 C2201 1.339 . S
C2203 C2202 1.395 . S
C2203 H2229 0.929 . S
C2204 C2202 1.320 . S
C2204 C2205 1.405 . S
C2204 H2230 0.930 . S
C2205 C2200 1.479 . S
C2205 C2204 1.405 . S
C2205 H2231 0.931 . S
U2206 O2207 2.454 . S
U2206 O2208 2.458 . S
U2206 C2209 2.984 . S
U2206 C2210 2.847 . S
U2206 C2223 2.882 . S
U2206 O2224 2.441 . S
U2206 O2225 2.420 . S
U2206 O2226 2.455 . S
U2206 O2227 2.449 . S
O2207 U2206 2.454 . S
O2207 C2209 1.353 . S
O2208 U2206 2.458 . S
O2208 C2209 1.286 . S
C2209 U2206 2.984 . S
C2209 O2207 1.353 . S
C2209 O2208 1.286 . S
C2209 C2211 1.363 . S
C2210 C2200 1.465 . S
C2210 U2206 2.847 . S
C2210 O2224 1.249 . S
C2210 O2225 1.202 . S
C2211 C2209 1.363 . S
C2211 C2213 1.408 . S
C2211 C2216 1.342 . S
C2212 C2213 1.310 . S
C2212 C2215 1.461 . S
C2212 H2232 0.932 . S
C2213 C2211 1.408 . S
C2213 C2212 1.310 . S
C2213 H2233 0.930 . S
C2214 C2215 1.474 . S
C2214 C2216 1.285 . S
C2214 H2234 0.929 . S
C2215 C2212 1.461 . S
C2215 C2214 1.474 . S
C2216 C2211 1.342 . S
C2216 C2214 1.285 . S
C2216 H2235 0.930 . S
C2217 C2220 1.424 . S
C2217 C2222 1.245 . S
C2217 C2223 1.428 . S
C2218 C2221 1.260 . S
C2218 C2222 1.477 . S
C2218 H2236 0.932 . S
C2219 C2220 1.384 . S
C2219 C2221 1.479 . S
C2219 H2237 0.929 . S
C2220 C2217 1.424 . S
C2220 C2219 1.384 . S
C2220 H2238 0.928 . S
C2221 C2218 1.260 . S
C2221 C2219 1.479 . S
C2222 C2217 1.245 . S
C2222 C2218 1.477 . S
C2222 H2239 0.932 . S
C2223 U2206 2.882 . S
C2223 C2217 1.428 . S
C2223 O2226 1.301 . S
C2223 O2227 1.282 . S
O2224 U2206 2.441 . S
O2224 C2210 1.249 . S
O2225 U2206 2.420 . S
O2225 C2210 1.202 . S
O2226 U2206 2.455 . S
O2226 C2223 1.301 . S
O2227 U2206 2.449 . S
O2227 C2223 1.282 . S
H2228 C2201 0.931 . S
H2229 C2203 0.929 . S
H2230 C2204 0.930 . S
H2231 C2205 0.931 . S
H2232 C2212 0.932 . S
H2233 C2213 0.930 . S
H2234 C2214 0.929 . S
H2235 C2216 0.930 . S
H2236 C2218 0.932 . S
H2237 C2219 0.929 . S
H2238 C2220 0.928 . S
H2239 C2222 0.932 . S
C2240 C2241 1.264 . S
C2240 C2245 1.479 . S
C2240 C2250 1.465 . S
C2241 C2240 1.264 . S
C2241 C2243 1.339 . S
C2241 H2268 0.931 . S
C2242 C2243 1.395 . S
C2242 C2244 1.320 . S
C2243 C2241 1.339 . S
C2243 C2242 1.395 . S
C2243 H2269 0.929 . S
C2244 C2242 1.320 . S
C2244 C2245 1.405 . S
C2244 H2270 0.930 . S
C2245 C2240 1.479 . S
C2245 C2244 1.405 . S
C2245 H2271 0.931 . S
U2246 O2247 2.454 . S
U2246 O2248 2.458 . S
U2246 C2249 2.984 . S
U2246 C2250 2.847 . S
U2246 C2263 2.882 . S
U2246 O2264 2.441 . S
U2246 O2265 2.420 . S
U2246 O2266 2.455 . S
U2246 O2267 2.449 . S
O2247 U2246 2.454 . S
O2247 C2249 1.353 . S
O2248 U2246 2.458 . S
O2248 C2249 1.286 . S
C2249 U2246 2.984 . S
C2249 O2247 1.353 . S
C2249 O2248 1.286 . S
C2249 C2251 1.363 . S
C2250 C2240 1.465 . S
C2250 U2246 2.847 . S
C2250 O2264 1.249 . S
C2250 O2265 1.202 . S
C2251 C2249 1.363 . S
C2251 C2253 1.408 . S
C2251 C2256 1.342 . S
C2252 C2253 1.310 . S
C2252 C2255 1.461 . S
C2252 H2272 0.932 . S
C2253 C2251 1.408 . S
C2253 C2252 1.310 . S
C2253 H2273 0.930 . S
C2254 C2255 1.474 . S
C2254 C2256 1.285 . S
C2254 H2274 0.929 . S
C2255 C2252 1.461 . S
C2255 C2254 1.474 . S
C2256 C2251 1.342 . S
C2256 C2254 1.285 . S
C2256 H2275 0.930 . S
C2257 C2260 1.424 . S
C2257 C2262 1.245 . S
C2257 C2263 1.428 . S
C2258 C2261 1.260 . S
C2258 C2262 1.477 . S
C2258 H2276 0.932 . S
C2259 C2260 1.384 . S
C2259 C2261 1.479 . S
C2259 H2277 0.929 . S
C2260 C2257 1.424 . S
C2260 C2259 1.384 . S
C2260 H2278 0.928 . S
C2261 C2258 1.260 . S
C2261 C2259 1.479 . S
C2262 C2257 1.245 . S
C2262 C2258 1.477 . S
C2262 H2279 0.932 . S
C2263 U2246 2.882 . S
C2263 C2257 1.428 . S
C2263 O2266 1.301 . S
C2263 O2267 1.282 . S
O2264 U2246 2.441 . S
O2264 C2250 1.249 . S
O2265 U2246 2.420 . S
O2265 C2250 1.202 . S
O2266 U2246 2.455 . S
O2266 C2263 1.301 . S
O2267 U2246 2.449 . S
O2267 C2263 1.282 . S
H2268 C2241 0.931 . S
H2269 C2243 0.929 . S
H2270 C2244 0.930 . S
H2271 C2245 0.931 . S
H2272 C2252 0.932 . S
H2273 C2253 0.930 . S
H2274 C2254 0.929 . S
H2275 C2256 0.930 . S
H2276 C2258 0.932 . S
H2277 C2259 0.929 . S
H2278 C2260 0.928 . S
H2279 C2262 0.932 . S
C2280 C2281 1.264 . S
C2280 C2285 1.479 . S
C2280 C2290 1.465 . S
C2281 C2280 1.264 . S
C2281 C2283 1.339 . S
C2281 H2308 0.931 . S
C2282 C2283 1.395 . S
C2282 C2284 1.320 . S
C2283 C2281 1.339 . S
C2283 C2282 1.395 . S
C2283 H2309 0.929 . S
C2284 C2282 1.320 . S
C2284 C2285 1.405 . S
C2284 H2310 0.930 . S
C2285 C2280 1.479 . S
C2285 C2284 1.405 . S
C2285 H2311 0.931 . S
U2286 O2287 2.454 . S
U2286 O2288 2.458 . S
U2286 C2289 2.984 . S
U2286 C2290 2.847 . S
U2286 C2303 2.882 . S
U2286 O2304 2.441 . S
U2286 O2305 2.420 . S
U2286 O2306 2.455 . S
U2286 O2307 2.449 . S
O2287 U2286 2.454 . S
O2287 C2289 1.353 . S
O2288 U2286 2.458 . S
O2288 C2289 1.286 . S
C2289 U2286 2.984 . S
C2289 O2287 1.353 . S
C2289 O2288 1.286 . S
C2289 C2291 1.363 . S
C2290 C2280 1.465 . S
C2290 U2286 2.847 . S
C2290 O2304 1.249 . S
C2290 O2305 1.202 . S
C2291 C2289 1.363 . S
C2291 C2293 1.408 . S
C2291 C2296 1.342 . S
C2292 C2293 1.310 . S
C2292 C2295 1.461 . S
C2292 H2312 0.932 . S
C2293 C2291 1.408 . S
C2293 C2292 1.310 . S
C2293 H2313 0.930 . S
C2294 C2295 1.474 . S
C2294 C2296 1.285 . S
C2294 H2314 0.929 . S
C2295 C2292 1.461 . S
C2295 C2294 1.474 . S
C2296 C2291 1.342 . S
C2296 C2294 1.285 . S
C2296 H2315 0.930 . S
C2297 C2300 1.424 . S
C2297 C2302 1.245 . S
C2297 C2303 1.428 . S
C2298 C2301 1.260 . S
C2298 C2302 1.477 . S
C2298 H2316 0.932 . S
C2299 C2300 1.384 . S
C2299 C2301 1.479 . S
C2299 H2317 0.929 . S
C2300 C2297 1.424 . S
C2300 C2299 1.384 . S
C2300 H2318 0.928 . S
C2301 C2298 1.260 . S
C2301 C2299 1.479 . S
C2302 C2297 1.245 . S
C2302 C2298 1.477 . S
C2302 H2319 0.932 . S
C2303 U2286 2.882 . S
C2303 C2297 1.428 . S
C2303 O2306 1.301 . S
C2303 O2307 1.282 . S
O2304 U2286 2.441 . S
O2304 C2290 1.249 . S
O2305 U2286 2.420 . S
O2305 C2290 1.202 . S
O2306 U2286 2.455 . S
O2306 C2303 1.301 . S
O2307 U2286 2.449 . S
O2307 C2303 1.282 . S
H2308 C2281 0.931 . S
H2309 C2283 0.929 . S
H2310 C2284 0.930 . S
H2311 C2285 0.931 . S
H2312 C2292 0.932 . S
H2313 C2293 0.930 . S
H2314 C2294 0.929 . S
H2315 C2296 0.930 . S
H2316 C2298 0.932 . S
H2317 C2299 0.929 . S
H2318 C2300 0.928 . S
H2319 C2302 0.932 . S
C2320 C2321 1.264 . S
C2320 C2325 1.479 . S
C2320 C2330 1.465 . S
C2321 C2320 1.264 . S
C2321 C2323 1.339 . S
C2321 H2348 0.931 . S
C2322 C2323 1.395 . S
C2322 C2324 1.320 . S
C2323 C2321 1.339 . S
C2323 C2322 1.395 . S
C2323 H2349 0.929 . S
C2324 C2322 1.320 . S
C2324 C2325 1.405 . S
C2324 H2350 0.930 . S
C2325 C2320 1.479 . S
C2325 C2324 1.405 . S
C2325 H2351 0.931 . S
U2326 O2327 2.454 . S
U2326 O2328 2.458 . S
U2326 C2329 2.984 . S
U2326 C2330 2.847 . S
U2326 C2343 2.882 . S
U2326 O2344 2.441 . S
U2326 O2345 2.420 . S
U2326 O2346 2.455 . S
U2326 O2347 2.449 . S
O2327 U2326 2.454 . S
O2327 C2329 1.353 . S
O2328 U2326 2.458 . S
O2328 C2329 1.286 . S
C2329 U2326 2.984 . S
C2329 O2327 1.353 . S
C2329 O2328 1.286 . S
C2329 C2331 1.363 . S
C2330 C2320 1.465 . S
C2330 U2326 2.847 . S
C2330 O2344 1.249 . S
C2330 O2345 1.202 . S
C2331 C2329 1.363 . S
C2331 C2333 1.408 . S
C2331 C2336 1.342 . S
C2332 C2333 1.310 . S
C2332 C2335 1.461 . S
C2332 H2352 0.932 . S
C2333 C2331 1.408 . S
C2333 C2332 1.310 . S
C2333 H2353 0.930 . S
C2334 C2335 1.474 . S
C2334 C2336 1.285 . S
C2334 H2354 0.929 . S
C2335 C2332 1.461 . S
C2335 C2334 1.474 . S
C2336 C2331 1.342 . S
C2336 C2334 1.285 . S
C2336 H2355 0.930 . S
C2337 C2340 1.424 . S
C2337 C2342 1.245 . S
C2337 C2343 1.428 . S
C2338 C2341 1.260 . S
C2338 C2342 1.477 . S
C2338 H2356 0.932 . S
C2339 C2340 1.384 . S
C2339 C2341 1.479 . S
C2339 H2357 0.929 . S
C2340 C2337 1.424 . S
C2340 C2339 1.384 . S
C2340 H2358 0.928 . S
C2341 C2338 1.260 . S
C2341 C2339 1.479 . S
C2342 C2337 1.245 . S
C2342 C2338 1.477 . S
C2342 H2359 0.932 . S
C2343 U2326 2.882 . S
C2343 C2337 1.428 . S
C2343 O2346 1.301 . S
C2343 O2347 1.282 . S
O2344 U2326 2.441 . S
O2344 C2330 1.249 . S
O2345 U2326 2.420 . S
O2345 C2330 1.202 . S
O2346 U2326 2.455 . S
O2346 C2343 1.301 . S
O2347 U2326 2.449 . S
O2347 C2343 1.282 . S
H2348 C2321 0.931 . S
H2349 C2323 0.929 . S
H2350 C2324 0.930 . S
H2351 C2325 0.931 . S
H2352 C2332 0.932 . S
H2353 C2333 0.930 . S
H2354 C2334 0.929 . S
H2355 C2336 0.930 . S
H2356 C2338 0.932 . S
H2357 C2339 0.929 . S
H2358 C2340 0.928 . S
H2359 C2342 0.932 . S
C2360 C2361 1.264 . S
C2360 C2365 1.479 . S
C2360 C2370 1.465 . S
C2361 C2360 1.264 . S
C2361 C2363 1.339 . S
C2361 H2388 0.931 . S
C2362 C2363 1.395 . S
C2362 C2364 1.320 . S
C2363 C2361 1.339 . S
C2363 C2362 1.395 . S
C2363 H2389 0.929 . S
C2364 C2362 1.320 . S
C2364 C2365 1.405 . S
C2364 H2390 0.930 . S
C2365 C2360 1.479 . S
C2365 C2364 1.405 . S
C2365 H2391 0.931 . S
U2366 O2367 2.454 . S
U2366 O2368 2.458 . S
U2366 C2369 2.984 . S
U2366 C2370 2.847 . S
U2366 C2383 2.882 . S
U2366 O2384 2.441 . S
U2366 O2385 2.420 . S
U2366 O2386 2.455 . S
U2366 O2387 2.449 . S
O2367 U2366 2.454 . S
O2367 C2369 1.353 . S
O2368 U2366 2.458 . S
O2368 C2369 1.286 . S
C2369 U2366 2.984 . S
C2369 O2367 1.353 . S
C2369 O2368 1.286 . S
C2369 C2371 1.363 . S
C2370 C2360 1.465 . S
C2370 U2366 2.847 . S
C2370 O2384 1.249 . S
C2370 O2385 1.202 . S
C2371 C2369 1.363 . S
C2371 C2373 1.408 . S
C2371 C2376 1.342 . S
C2372 C2373 1.310 . S
C2372 C2375 1.461 . S
C2372 H2392 0.932 . S
C2373 C2371 1.408 . S
C2373 C2372 1.310 . S
C2373 H2393 0.930 . S
C2374 C2375 1.474 . S
C2374 C2376 1.285 . S
C2374 H2394 0.929 . S
C2375 C2372 1.461 . S
C2375 C2374 1.474 . S
C2376 C2371 1.342 . S
C2376 C2374 1.285 . S
C2376 H2395 0.930 . S
C2377 C2380 1.424 . S
C2377 C2382 1.245 . S
C2377 C2383 1.428 . S
C2378 C2381 1.260 . S
C2378 C2382 1.477 . S
C2378 H2396 0.932 . S
C2379 C2380 1.384 . S
C2379 C2381 1.479 . S
C2379 H2397 0.929 . S
C2380 C2377 1.424 . S
C2380 C2379 1.384 . S
C2380 H2398 0.928 . S
C2381 C2378 1.260 . S
C2381 C2379 1.479 . S
C2382 C2377 1.245 . S
C2382 C2378 1.477 . S
C2382 H2399 0.932 . S
C2383 U2366 2.882 . S
C2383 C2377 1.428 . S
C2383 O2386 1.301 . S
C2383 O2387 1.282 . S
O2384 U2366 2.441 . S
O2384 C2370 1.249 . S
O2385 U2366 2.420 . S
O2385 C2370 1.202 . S
O2386 U2366 2.455 . S
O2386 C2383 1.301 . S
O2387 U2366 2.449 . S
O2387 C2383 1.282 . S
H2388 C2361 0.931 . S
H2389 C2363 0.929 . S
H2390 C2364 0.930 . S
H2391 C2365 0.931 . S
H2392 C2372 0.932 . S
H2393 C2373 0.930 . S
H2394 C2374 0.929 . S
H2395 C2376 0.930 . S
H2396 C2378 0.932 . S
H2397 C2379 0.929 . S
H2398 C2380 0.928 . S
H2399 C2382 0.932 . S
C2400 C2401 1.264 . S
C2400 C2405 1.479 . S
C2400 C2410 1.465 . S
C2401 C2400 1.264 . S
C2401 C2403 1.339 . S
C2401 H2428 0.931 . S
C2402 C2403 1.395 . S
C2402 C2404 1.320 . S
C2403 C2401 1.339 . S
C2403 C2402 1.395 . S
C2403 H2429 0.929 . S
C2404 C2402 1.320 . S
C2404 C2405 1.405 . S
C2404 H2430 0.930 . S
C2405 C2400 1.479 . S
C2405 C2404 1.405 . S
C2405 H2431 0.931 . S
U2406 O2407 2.454 . S
U2406 O2408 2.458 . S
U2406 C2409 2.984 . S
U2406 C2410 2.847 . S
U2406 C2423 2.882 . S
U2406 O2424 2.441 . S
U2406 O2425 2.420 . S
U2406 O2426 2.455 . S
U2406 O2427 2.449 . S
O2407 U2406 2.454 . S
O2407 C2409 1.353 . S
O2408 U2406 2.458 . S
O2408 C2409 1.286 . S
C2409 U2406 2.984 . S
C2409 O2407 1.353 . S
C2409 O2408 1.286 . S
C2409 C2411 1.363 . S
C2410 C2400 1.465 . S
C2410 U2406 2.847 . S
C2410 O2424 1.249 . S
C2410 O2425 1.202 . S
C2411 C2409 1.363 . S
C2411 C2413 1.408 . S
C2411 C2416 1.342 . S
C2412 C2413 1.310 . S
C2412 C2415 1.461 . S
C2412 H2432 0.932 . S
C2413 C2411 1.408 . S
C2413 C2412 1.310 . S
C2413 H2433 0.930 . S
C2414 C2415 1.474 . S
C2414 C2416 1.285 . S
C2414 H2434 0.929 . S
C2415 C2412 1.461 . S
C2415 C2414 1.474 . S
C2416 C2411 1.342 . S
C2416 C2414 1.285 . S
C2416 H2435 0.930 . S
C2417 C2420 1.424 . S
C2417 C2422 1.245 . S
C2417 C2423 1.428 . S
C2418 C2421 1.260 . S
C2418 C2422 1.477 . S
C2418 H2436 0.932 . S
C2419 C2420 1.384 . S
C2419 C2421 1.479 . S
C2419 H2437 0.929 . S
C2420 C2417 1.424 . S
C2420 C2419 1.384 . S
C2420 H2438 0.928 . S
C2421 C2418 1.260 . S
C2421 C2419 1.479 . S
C2422 C2417 1.245 . S
C2422 C2418 1.477 . S
C2422 H2439 0.932 . S
C2423 U2406 2.882 . S
C2423 C2417 1.428 . S
C2423 O2426 1.301 . S
C2423 O2427 1.282 . S
O2424 U2406 2.441 . S
O2424 C2410 1.249 . S
O2425 U2406 2.420 . S
O2425 C2410 1.202 . S
O2426 U2406 2.455 . S
O2426 C2423 1.301 . S
O2427 U2406 2.449 . S
O2427 C2423 1.282 . S
H2428 C2401 0.931 . S
H2429 C2403 0.929 . S
H2430 C2404 0.930 . S
H2431 C2405 0.931 . S
H2432 C2412 0.932 . S
H2433 C2413 0.930 . S
H2434 C2414 0.929 . S
H2435 C2416 0.930 . S
H2436 C2418 0.932 . S
H2437 C2419 0.929 . S
H2438 C2420 0.928 . S
H2439 C2422 0.932 . S
C2440 C2441 1.264 . S
C2440 C2445 1.479 . S
C2440 C2450 1.465 . S
C2441 C2440 1.264 . S
C2441 C2443 1.339 . S
C2441 H2468 0.931 . S
C2442 C2443 1.395 . S
C2442 C2444 1.320 . S
C2443 C2441 1.339 . S
C2443 C2442 1.395 . S
C2443 H2469 0.929 . S
C2444 C2442 1.320 . S
C2444 C2445 1.405 . S
C2444 H2470 0.930 . S
C2445 C2440 1.479 . S
C2445 C2444 1.405 . S
C2445 H2471 0.931 . S
U2446 O2447 2.454 . S
U2446 O2448 2.458 . S
U2446 C2449 2.984 . S
U2446 C2450 2.847 . S
U2446 C2463 2.882 . S
U2446 O2464 2.441 . S
U2446 O2465 2.420 . S
U2446 O2466 2.455 . S
U2446 O2467 2.449 . S
O2447 U2446 2.454 . S
O2447 C2449 1.353 . S
O2448 U2446 2.458 . S
O2448 C2449 1.286 . S
C2449 U2446 2.984 . S
C2449 O2447 1.353 . S
C2449 O2448 1.286 . S
C2449 C2451 1.363 . S
C2450 C2440 1.465 . S
C2450 U2446 2.847 . S
C2450 O2464 1.249 . S
C2450 O2465 1.202 . S
C2451 C2449 1.363 . S
C2451 C2453 1.408 . S
C2451 C2456 1.342 . S
C2452 C2453 1.310 . S
C2452 C2455 1.461 . S
C2452 H2472 0.932 . S
C2453 C2451 1.408 . S
C2453 C2452 1.310 . S
C2453 H2473 0.930 . S
C2454 C2455 1.474 . S
C2454 C2456 1.285 . S
C2454 H2474 0.929 . S
C2455 C2452 1.461 . S
C2455 C2454 1.474 . S
C2456 C2451 1.342 . S
C2456 C2454 1.285 . S
C2456 H2475 0.930 . S
C2457 C2460 1.424 . S
C2457 C2462 1.245 . S
C2457 C2463 1.428 . S
C2458 C2461 1.260 . S
C2458 C2462 1.477 . S
C2458 H2476 0.932 . S
C2459 C2460 1.384 . S
C2459 C2461 1.479 . S
C2459 H2477 0.929 . S
C2460 C2457 1.424 . S
C2460 C2459 1.384 . S
C2460 H2478 0.928 . S
C2461 C2458 1.260 . S
C2461 C2459 1.479 . S
C2462 C2457 1.245 . S
C2462 C2458 1.477 . S
C2462 H2479 0.932 . S
C2463 U2446 2.882 . S
C2463 C2457 1.428 . S
C2463 O2466 1.301 . S
C2463 O2467 1.282 . S
O2464 U2446 2.441 . S
O2464 C2450 1.249 . S
O2465 U2446 2.420 . S
O2465 C2450 1.202 . S
O2466 U2446 2.455 . S
O2466 C2463 1.301 . S
O2467 U2446 2.449 . S
O2467 C2463 1.282 . S
H2468 C2441 0.931 . S
H2469 C2443 0.929 . S
H2470 C2444 0.930 . S
H2471 C2445 0.931 . S
H2472 C2452 0.932 . S
H2473 C2453 0.930 . S
H2474 C2454 0.929 . S
H2475 C2456 0.930 . S
H2476 C2458 0.932 . S
H2477 C2459 0.929 . S
H2478 C2460 0.928 . S
H2479 C2462 0.932 . S
C2480 C2481 1.264 . S
C2480 C2485 1.479 . S
C2480 C2490 1.465 . S
C2481 C2480 1.264 . S
C2481 C2483 1.339 . S
C2481 H2508 0.931 . S
C2482 C2483 1.395 . S
C2482 C2484 1.320 . S
C2483 C2481 1.339 . S
C2483 C2482 1.395 . S
C2483 H2509 0.929 . S
C2484 C2482 1.320 . S
C2484 C2485 1.405 . S
C2484 H2510 0.930 . S
C2485 C2480 1.479 . S
C2485 C2484 1.405 . S
C2485 H2511 0.931 . S
U2486 O2487 2.454 . S
U2486 O2488 2.458 . S
U2486 C2489 2.984 . S
U2486 C2490 2.847 . S
U2486 C2503 2.882 . S
U2486 O2504 2.441 . S
U2486 O2505 2.420 . S
U2486 O2506 2.455 . S
U2486 O2507 2.449 . S
O2487 U2486 2.454 . S
O2487 C2489 1.353 . S
O2488 U2486 2.458 . S
O2488 C2489 1.286 . S
C2489 U2486 2.984 . S
C2489 O2487 1.353 . S
C2489 O2488 1.286 . S
C2489 C2491 1.363 . S
C2490 C2480 1.465 . S
C2490 U2486 2.847 . S
C2490 O2504 1.249 . S
C2490 O2505 1.202 . S
C2491 C2489 1.363 . S
C2491 C2493 1.408 . S
C2491 C2496 1.342 . S
C2492 C2493 1.310 . S
C2492 C2495 1.461 . S
C2492 H2512 0.932 . S
C2493 C2491 1.408 . S
C2493 C2492 1.310 . S
C2493 H2513 0.930 . S
C2494 C2495 1.474 . S
C2494 C2496 1.285 . S
C2494 H2514 0.929 . S
C2495 C2492 1.461 . S
C2495 C2494 1.474 . S
C2496 C2491 1.342 . S
C2496 C2494 1.285 . S
C2496 H2515 0.930 . S
C2497 C2500 1.424 . S
C2497 C2502 1.245 . S
C2497 C2503 1.428 . S
C2498 C2501 1.260 . S
C2498 C2502 1.477 . S
C2498 H2516 0.932 . S
C2499 C2500 1.384 . S
C2499 C2501 1.479 . S
C2499 H2517 0.929 . S
C2500 C2497 1.424 . S
C2500 C2499 1.384 . S
C2500 H2518 0.928 . S
C2501 C2498 1.260 . S
C2501 C2499 1.479 . S
C2502 C2497 1.245 . S
C2502 C2498 1.477 . S
C2502 H2519 0.932 . S
C2503 U2486 2.882 . S
C2503 C2497 1.428 . S
C2503 O2506 1.301 . S
C2503 O2507 1.282 . S
O2504 U2486 2.441 . S
O2504 C2490 1.249 . S
O2505 U2486 2.420 . S
O2505 C2490 1.202 . S
O2506 U2486 2.455 . S
O2506 C2503 1.301 . S
O2507 U2486 2.449 . S
O2507 C2503 1.282 . S
H2508 C2481 0.931 . S
H2509 C2483 0.929 . S
H2510 C2484 0.930 . S
H2511 C2485 0.931 . S
H2512 C2492 0.932 . S
H2513 C2493 0.930 . S
H2514 C2494 0.929 . S
H2515 C2496 0.930 . S
H2516 C2498 0.932 . S
H2517 C2499 0.929 . S
H2518 C2500 0.928 . S
H2519 C2502 0.932 . S
C2520 C2521 1.264 . S
C2520 C2525 1.479 . S
C2520 C2530 1.465 . S
C2521 C2520 1.264 . S
C2521 C2523 1.339 . S
C2521 H2548 0.931 . S
C2522 C2523 1.395 . S
C2522 C2524 1.320 . S
C2523 C2521 1.339 . S
C2523 C2522 1.395 . S
C2523 H2549 0.929 . S
C2524 C2522 1.320 . S
C2524 C2525 1.405 . S
C2524 H2550 0.930 . S
C2525 C2520 1.479 . S
C2525 C2524 1.405 . S
C2525 H2551 0.931 . S
U2526 O2527 2.454 . S
U2526 O2528 2.458 . S
U2526 C2529 2.984 . S
U2526 C2530 2.847 . S
U2526 C2543 2.882 . S
U2526 O2544 2.441 . S
U2526 O2545 2.420 . S
U2526 O2546 2.455 . S
U2526 O2547 2.449 . S
O2527 U2526 2.454 . S
O2527 C2529 1.353 . S
O2528 U2526 2.458 . S
O2528 C2529 1.286 . S
C2529 U2526 2.984 . S
C2529 O2527 1.353 . S
C2529 O2528 1.286 . S
C2529 C2531 1.363 . S
C2530 C2520 1.465 . S
C2530 U2526 2.847 . S
C2530 O2544 1.249 . S
C2530 O2545 1.202 . S
C2531 C2529 1.363 . S
C2531 C2533 1.408 . S
C2531 C2536 1.342 . S
C2532 C2533 1.310 . S
C2532 C2535 1.461 . S
C2532 H2552 0.932 . S
C2533 C2531 1.408 . S
C2533 C2532 1.310 . S
C2533 H2553 0.930 . S
C2534 C2535 1.474 . S
C2534 C2536 1.285 . S
C2534 H2554 0.929 . S
C2535 C2532 1.461 . S
C2535 C2534 1.474 . S
C2536 C2531 1.342 . S
C2536 C2534 1.285 . S
C2536 H2555 0.930 . S
C2537 C2540 1.424 . S
C2537 C2542 1.245 . S
C2537 C2543 1.428 . S
C2538 C2541 1.260 . S
C2538 C2542 1.477 . S
C2538 H2556 0.932 . S
C2539 C2540 1.384 . S
C2539 C2541 1.479 . S
C2539 H2557 0.929 . S
C2540 C2537 1.424 . S
C2540 C2539 1.384 . S
C2540 H2558 0.928 . S
C2541 C2538 1.260 . S
C2541 C2539 1.479 . S
C2542 C2537 1.245 . S
C2542 C2538 1.477 . S
C2542 H2559 0.932 . S
C2543 U2526 2.882 . S
C2543 C2537 1.428 . S
C2543 O2546 1.301 . S
C2543 O2547 1.282 . S
O2544 U2526 2.441 . S
O2544 C2530 1.249 . S
O2545 U2526 2.420 . S
O2545 C2530 1.202 . S
O2546 U2526 2.455 . S
O2546 C2543 1.301 . S
O2547 U2526 2.449 . S
O2547 C2543 1.282 . S
H2548 C2521 0.931 . S
H2549 C2523 0.929 . S
H2550 C2524 0.930 . S
H2551 C2525 0.931 . S
H2552 C2532 0.932 . S
H2553 C2533 0.930 . S
H2554 C2534 0.929 . S
H2555 C2536 0.930 . S
H2556 C2538 0.932 . S
H2557 C2539 0.929 . S
H2558 C2540 0.928 . S
H2559 C2542 0.932 . S
C2560 C2561 1.264 . S
C2560 C2565 1.479 . S
C2560 C2570 1.465 . S
C2561 C2560 1.264 . S
C2561 C2563 1.339 . S
C2561 H2588 0.931 . S
C2562 C2563 1.395 . S
C2562 C2564 1.320 . S
C2563 C2561 1.339 . S
C2563 C2562 1.395 . S
C2563 H2589 0.929 . S
C2564 C2562 1.320 . S
C2564 C2565 1.405 . S
C2564 H2590 0.930 . S
C2565 C2560 1.479 . S
C2565 C2564 1.405 . S
C2565 H2591 0.931 . S
U2566 O2567 2.454 . S
U2566 O2568 2.458 . S
U2566 C2569 2.984 . S
U2566 C2570 2.847 . S
U2566 C2583 2.882 . S
U2566 O2584 2.441 . S
U2566 O2585 2.420 . S
U2566 O2586 2.455 . S
U2566 O2587 2.449 . S
O2567 U2566 2.454 . S
O2567 C2569 1.353 . S
O2568 U2566 2.458 . S
O2568 C2569 1.286 . S
C2569 U2566 2.984 . S
C2569 O2567 1.353 . S
C2569 O2568 1.286 . S
C2569 C2571 1.363 . S
C2570 C2560 1.465 . S
C2570 U2566 2.847 . S
C2570 O2584 1.249 . S
C2570 O2585 1.202 . S
C2571 C2569 1.363 . S
C2571 C2573 1.408 . S
C2571 C2576 1.342 . S
C2572 C2573 1.310 . S
C2572 C2575 1.461 . S
C2572 H2592 0.932 . S
C2573 C2571 1.408 . S
C2573 C2572 1.310 . S
C2573 H2593 0.930 . S
C2574 C2575 1.474 . S
C2574 C2576 1.285 . S
C2574 H2594 0.929 . S
C2575 C2572 1.461 . S
C2575 C2574 1.474 . S
C2576 C2571 1.342 . S
C2576 C2574 1.285 . S
C2576 H2595 0.930 . S
C2577 C2580 1.424 . S
C2577 C2582 1.245 . S
C2577 C2583 1.428 . S
C2578 C2581 1.260 . S
C2578 C2582 1.477 . S
C2578 H2596 0.932 . S
C2579 C2580 1.384 . S
C2579 C2581 1.479 . S
C2579 H2597 0.929 . S
C2580 C2577 1.424 . S
C2580 C2579 1.384 . S
C2580 H2598 0.928 . S
C2581 C2578 1.260 . S
C2581 C2579 1.479 . S
C2582 C2577 1.245 . S
C2582 C2578 1.477 . S
C2582 H2599 0.932 . S
C2583 U2566 2.882 . S
C2583 C2577 1.428 . S
C2583 O2586 1.301 . S
C2583 O2587 1.282 . S
O2584 U2566 2.441 . S
O2584 C2570 1.249 . S
O2585 U2566 2.420 . S
O2585 C2570 1.202 . S
O2586 U2566 2.455 . S
O2586 C2583 1.301 . S
O2587 U2566 2.449 . S
O2587 C2583 1.282 . S
H2588 C2561 0.931 . S
H2589 C2563 0.929 . S
H2590 C2564 0.930 . S
H2591 C2565 0.931 . S
H2592 C2572 0.932 . S
H2593 C2573 0.930 . S
H2594 C2574 0.929 . S
H2595 C2576 0.930 . S
H2596 C2578 0.932 . S
H2597 C2579 0.929 . S
H2598 C2580 0.928 . S
H2599 C2582 0.932 . S
C2600 C2601 1.264 . S
C2600 C2605 1.479 . S
C2600 C2610 1.465 . S
C2601 C2600 1.264 . S
C2601 C2603 1.339 . S
C2601 H2628 0.931 . S
C2602 C2603 1.395 . S
C2602 C2604 1.320 . S
C2603 C2601 1.339 . S
C2603 C2602 1.395 . S
C2603 H2629 0.929 . S
C2604 C2602 1.320 . S
C2604 C2605 1.405 . S
C2604 H2630 0.930 . S
C2605 C2600 1.479 . S
C2605 C2604 1.405 . S
C2605 H2631 0.931 . S
U2606 O2607 2.454 . S
U2606 O2608 2.458 . S
U2606 C2609 2.984 . S
U2606 C2610 2.847 . S
U2606 C2623 2.882 . S
U2606 O2624 2.441 . S
U2606 O2625 2.420 . S
U2606 O2626 2.455 . S
U2606 O2627 2.449 . S
O2607 U2606 2.454 . S
O2607 C2609 1.353 . S
O2608 U2606 2.458 . S
O2608 C2609 1.286 . S
C2609 U2606 2.984 . S
C2609 O2607 1.353 . S
C2609 O2608 1.286 . S
C2609 C2611 1.363 . S
C2610 C2600 1.465 . S
C2610 U2606 2.847 . S
C2610 O2624 1.249 . S
C2610 O2625 1.202 . S
C2611 C2609 1.363 . S
C2611 C2613 1.408 . S
C2611 C2616 1.342 . S
C2612 C2613 1.310 . S
C2612 C2615 1.461 . S
C2612 H2632 0.932 . S
C2613 C2611 1.408 . S
C2613 C2612 1.310 . S
C2613 H2633 0.930 . S
C2614 C2615 1.474 . S
C2614 C2616 1.285 . S
C2614 H2634 0.929 . S
C2615 C2612 1.461 . S
C2615 C2614 1.474 . S
C2616 C2611 1.342 . S
C2616 C2614 1.285 . S
C2616 H2635 0.930 . S
C2617 C2620 1.424 . S
C2617 C2622 1.245 . S
C2617 C2623 1.428 . S
C2618 C2621 1.260 . S
C2618 C2622 1.477 . S
C2618 H2636 0.932 . S
C2619 C2620 1.384 . S
C2619 C2621 1.479 . S
C2619 H2637 0.929 . S
C2620 C2617 1.424 . S
C2620 C2619 1.384 . S
C2620 H2638 0.928 . S
C2621 C2618 1.260 . S
C2621 C2619 1.479 . S
C2622 C2617 1.245 . S
C2622 C2618 1.477 . S
C2622 H2639 0.932 . S
C2623 U2606 2.882 . S
C2623 C2617 1.428 . S
C2623 O2626 1.301 . S
C2623 O2627 1.282 . S
O2624 U2606 2.441 . S
O2624 C2610 1.249 . S
O2625 U2606 2.420 . S
O2625 C2610 1.202 . S
O2626 U2606 2.455 . S
O2626 C2623 1.301 . S
O2627 U2606 2.449 . S
O2627 C2623 1.282 . S
H2628 C2601 0.931 . S
H2629 C2603 0.929 . S
H2630 C2604 0.930 . S
H2631 C2605 0.931 . S
H2632 C2612 0.932 . S
H2633 C2613 0.930 . S
H2634 C2614 0.929 . S
H2635 C2616 0.930 . S
H2636 C2618 0.932 . S
H2637 C2619 0.929 . S
H2638 C2620 0.928 . S
H2639 C2622 0.932 . S
C2640 C2641 1.264 . S
C2640 C2645 1.479 . S
C2640 C2650 1.465 . S
C2641 C2640 1.264 . S
C2641 C2643 1.339 . S
C2641 H2668 0.931 . S
C2642 C2643 1.395 . S
C2642 C2644 1.320 . S
C2643 C2641 1.339 . S
C2643 C2642 1.395 . S
C2643 H2669 0.929 . S
C2644 C2642 1.320 . S
C2644 C2645 1.405 . S
C2644 H2670 0.930 . S
C2645 C2640 1.479 . S
C2645 C2644 1.405 . S
C2645 H2671 0.931 . S
U2646 O2647 2.454 . S
U2646 O2648 2.458 . S
U2646 C2649 2.984 . S
U2646 C2650 2.847 . S
U2646 C2663 2.882 . S
U2646 O2664 2.441 . S
U2646 O2665 2.420 . S
U2646 O2666 2.455 . S
U2646 O2667 2.449 . S
O2647 U2646 2.454 . S
O2647 C2649 1.353 . S
O2648 U2646 2.458 . S
O2648 C2649 1.286 . S
C2649 U2646 2.984 . S
C2649 O2647 1.353 . S
C2649 O2648 1.286 . S
C2649 C2651 1.363 . S
C2650 C2640 1.465 . S
C2650 U2646 2.847 . S
C2650 O2664 1.249 . S
C2650 O2665 1.202 . S
C2651 C2649 1.363 . S
C2651 C2653 1.408 . S
C2651 C2656 1.342 . S
C2652 C2653 1.310 . S
C2652 C2655 1.461 . S
C2652 H2672 0.932 . S
C2653 C2651 1.408 . S
C2653 C2652 1.310 . S
C2653 H2673 0.930 . S
C2654 C2655 1.474 . S
C2654 C2656 1.285 . S
C2654 H2674 0.929 . S
C2655 C2652 1.461 . S
C2655 C2654 1.474 . S
C2656 C2651 1.342 . S
C2656 C2654 1.285 . S
C2656 H2675 0.930 . S
C2657 C2660 1.424 . S
C2657 C2662 1.245 . S
C2657 C2663 1.428 . S
C2658 C2661 1.260 . S
C2658 C2662 1.477 . S
C2658 H2676 0.932 . S
C2659 C2660 1.384 . S
C2659 C2661 1.479 . S
C2659 H2677 0.929 . S
C2660 C2657 1.424 . S
C2660 C2659 1.384 . S
C2660 H2678 0.928 . S
C2661 C2658 1.260 . S
C2661 C2659 1.479 . S
C2662 C2657 1.245 . S
C2662 C2658 1.477 . S
C2662 H2679 0.932 . S
C2663 U2646 2.882 . S
C2663 C2657 1.428 . S
C2663 O2666 1.301 . S
C2663 O2667 1.282 . S
O2664 U2646 2.441 . S
O2664 C2650 1.249 . S
O2665 U2646 2.420 . S
O2665 C2650 1.202 . S
O2666 U2646 2.455 . S
O2666 C2663 1.301 . S
O2667 U2646 2.449 . S
O2667 C2663 1.282 . S
H2668 C2641 0.931 . S
H2669 C2643 0.929 . S
H2670 C2644 0.930 . S
H2671 C2645 0.931 . S
H2672 C2652 0.932 . S
H2673 C2653 0.930 . S
H2674 C2654 0.929 . S
H2675 C2656 0.930 . S
H2676 C2658 0.932 . S
H2677 C2659 0.929 . S
H2678 C2660 0.928 . S
H2679 C2662 0.932 . S
C2680 C2681 1.264 . S
C2680 C2685 1.479 . S
C2680 C2690 1.465 . S
C2681 C2680 1.264 . S
C2681 C2683 1.339 . S
C2681 H2708 0.931 . S
C2682 C2683 1.395 . S
C2682 C2684 1.320 . S
C2683 C2681 1.339 . S
C2683 C2682 1.395 . S
C2683 H2709 0.929 . S
C2684 C2682 1.320 . S
C2684 C2685 1.405 . S
C2684 H2710 0.930 . S
C2685 C2680 1.479 . S
C2685 C2684 1.405 . S
C2685 H2711 0.931 . S
U2686 O2687 2.454 . S
U2686 O2688 2.458 . S
U2686 C2689 2.984 . S
U2686 C2690 2.847 . S
U2686 C2703 2.882 . S
U2686 O2704 2.441 . S
U2686 O2705 2.420 . S
U2686 O2706 2.455 . S
U2686 O2707 2.449 . S
O2687 U2686 2.454 . S
O2687 C2689 1.353 . S
O2688 U2686 2.458 . S
O2688 C2689 1.286 . S
C2689 U2686 2.984 . S
C2689 O2687 1.353 . S
C2689 O2688 1.286 . S
C2689 C2691 1.363 . S
C2690 C2680 1.465 . S
C2690 U2686 2.847 . S
C2690 O2704 1.249 . S
C2690 O2705 1.202 . S
C2691 C2689 1.363 . S
C2691 C2693 1.408 . S
C2691 C2696 1.342 . S
C2692 C2693 1.310 . S
C2692 C2695 1.461 . S
C2692 H2712 0.932 . S
C2693 C2691 1.408 . S
C2693 C2692 1.310 . S
C2693 H2713 0.930 . S
C2694 C2695 1.474 . S
C2694 C2696 1.285 . S
C2694 H2714 0.929 . S
C2695 C2692 1.461 . S
C2695 C2694 1.474 . S
C2696 C2691 1.342 . S
C2696 C2694 1.285 . S
C2696 H2715 0.930 . S
C2697 C2700 1.424 . S
C2697 C2702 1.245 . S
C2697 C2703 1.428 . S
C2698 C2701 1.260 . S
C2698 C2702 1.477 . S
C2698 H2716 0.932 . S
C2699 C2700 1.384 . S
C2699 C2701 1.479 . S
C2699 H2717 0.929 . S
C2700 C2697 1.424 . S
C2700 C2699 1.384 . S
C2700 H2718 0.928 . S
C2701 C2698 1.260 . S
C2701 C2699 1.479 . S
C2702 C2697 1.245 . S
C2702 C2698 1.477 . S
C2702 H2719 0.932 . S
C2703 U2686 2.882 . S
C2703 C2697 1.428 . S
C2703 O2706 1.301 . S
C2703 O2707 1.282 . S
O2704 U2686 2.441 . S
O2704 C2690 1.249 . S
O2705 U2686 2.420 . S
O2705 C2690 1.202 . S
O2706 U2686 2.455 . S
O2706 C2703 1.301 . S
O2707 U2686 2.449 . S
O2707 C2703 1.282 . S
H2708 C2681 0.931 . S
H2709 C2683 0.929 . S
H2710 C2684 0.930 . S
H2711 C2685 0.931 . S
H2712 C2692 0.932 . S
H2713 C2693 0.930 . S
H2714 C2694 0.929 . S
H2715 C2696 0.930 . S
H2716 C2698 0.932 . S
H2717 C2699 0.929 . S
H2718 C2700 0.928 . S
H2719 C2702 0.932 . S
C2720 C2721 1.264 . S
C2720 C2725 1.479 . S
C2720 C2730 1.465 . S
C2721 C2720 1.264 . S
C2721 C2723 1.339 . S
C2721 H2748 0.931 . S
C2722 C2723 1.395 . S
C2722 C2724 1.320 . S
C2723 C2721 1.339 . S
C2723 C2722 1.395 . S
C2723 H2749 0.929 . S
C2724 C2722 1.320 . S
C2724 C2725 1.405 . S
C2724 H2750 0.930 . S
C2725 C2720 1.479 . S
C2725 C2724 1.405 . S
C2725 H2751 0.931 . S
U2726 O2727 2.454 . S
U2726 O2728 2.458 . S
U2726 C2729 2.984 . S
U2726 C2730 2.847 . S
U2726 C2743 2.882 . S
U2726 O2744 2.441 . S
U2726 O2745 2.420 . S
U2726 O2746 2.455 . S
U2726 O2747 2.449 . S
O2727 U2726 2.454 . S
O2727 C2729 1.353 . S
O2728 U2726 2.458 . S
O2728 C2729 1.286 . S
C2729 U2726 2.984 . S
C2729 O2727 1.353 . S
C2729 O2728 1.286 . S
C2729 C2731 1.363 . S
C2730 C2720 1.465 . S
C2730 U2726 2.847 . S
C2730 O2744 1.249 . S
C2730 O2745 1.202 . S
C2731 C2729 1.363 . S
C2731 C2733 1.408 . S
C2731 C2736 1.342 . S
C2732 C2733 1.310 . S
C2732 C2735 1.461 . S
C2732 H2752 0.932 . S
C2733 C2731 1.408 . S
C2733 C2732 1.310 . S
C2733 H2753 0.930 . S
C2734 C2735 1.474 . S
C2734 C2736 1.285 . S
C2734 H2754 0.929 . S
C2735 C2732 1.461 . S
C2735 C2734 1.474 . S
C2736 C2731 1.342 . S
C2736 C2734 1.285 . S
C2736 H2755 0.930 . S
C2737 C2740 1.424 . S
C2737 C2742 1.245 . S
C2737 C2743 1.428 . S
C2738 C2741 1.260 . S
C2738 C2742 1.477 . S
C2738 H2756 0.932 . S
C2739 C2740 1.384 . S
C2739 C2741 1.479 . S
C2739 H2757 0.929 . S
C2740 C2737 1.424 . S
C2740 C2739 1.384 . S
C2740 H2758 0.928 . S
C2741 C2738 1.260 . S
C2741 C2739 1.479 . S
C2742 C2737 1.245 . S
C2742 C2738 1.477 . S
C2742 H2759 0.932 . S
C2743 U2726 2.882 . S
C2743 C2737 1.428 . S
C2743 O2746 1.301 . S
C2743 O2747 1.282 . S
O2744 U2726 2.441 . S
O2744 C2730 1.249 . S
O2745 U2726 2.420 . S
O2745 C2730 1.202 . S
O2746 U2726 2.455 . S
O2746 C2743 1.301 . S
O2747 U2726 2.449 . S
O2747 C2743 1.282 . S
H2748 C2721 0.931 . S
H2749 C2723 0.929 . S
H2750 C2724 0.930 . S
H2751 C2725 0.931 . S
H2752 C2732 0.932 . S
H2753 C2733 0.930 . S
H2754 C2734 0.929 . S
H2755 C2736 0.930 . S
H2756 C2738 0.932 . S
H2757 C2739 0.929 . S
H2758 C2740 0.928 . S
H2759 C2742 0.932 . S
C2760 C2761 1.264 . S
C2760 C2765 1.479 . S
C2760 C2770 1.465 . S
C2761 C2760 1.264 . S
C2761 C2763 1.339 . S
C2761 H2788 0.931 . S
C2762 C2763 1.395 . S
C2762 C2764 1.320 . S
C2763 C2761 1.339 . S
C2763 C2762 1.395 . S
C2763 H2789 0.929 . S
C2764 C2762 1.320 . S
C2764 C2765 1.405 . S
C2764 H2790 0.930 . S
C2765 C2760 1.479 . S
C2765 C2764 1.405 . S
C2765 H2791 0.931 . S
U2766 O2767 2.454 . S
U2766 O2768 2.458 . S
U2766 C2769 2.984 . S
U2766 C2770 2.847 . S
U2766 C2783 2.882 . S
U2766 O2784 2.441 . S
U2766 O2785 2.420 . S
U2766 O2786 2.455 . S
U2766 O2787 2.449 . S
O2767 U2766 2.454 . S
O2767 C2769 1.353 . S
O2768 U2766 2.458 . S
O2768 C2769 1.286 . S
C2769 U2766 2.984 . S
C2769 O2767 1.353 . S
C2769 O2768 1.286 . S
C2769 C2771 1.363 . S
C2770 C2760 1.465 . S
C2770 U2766 2.847 . S
C2770 O2784 1.249 . S
C2770 O2785 1.202 . S
C2771 C2769 1.363 . S
C2771 C2773 1.408 . S
C2771 C2776 1.342 . S
C2772 C2773 1.310 . S
C2772 C2775 1.461 . S
C2772 H2792 0.932 . S
C2773 C2771 1.408 . S
C2773 C2772 1.310 . S
C2773 H2793 0.930 . S
C2774 C2775 1.474 . S
C2774 C2776 1.285 . S
C2774 H2794 0.929 . S
C2775 C2772 1.461 . S
C2775 C2774 1.474 . S
C2776 C2771 1.342 . S
C2776 C2774 1.285 . S
C2776 H2795 0.930 . S
C2777 C2780 1.424 . S
C2777 C2782 1.245 . S
C2777 C2783 1.428 . S
C2778 C2781 1.260 . S
C2778 C2782 1.477 . S
C2778 H2796 0.932 . S
C2779 C2780 1.384 . S
C2779 C2781 1.479 . S
C2779 H2797 0.929 . S
C2780 C2777 1.424 . S
C2780 C2779 1.384 . S
C2780 H2798 0.928 . S
C2781 C2778 1.260 . S
C2781 C2779 1.479 . S
C2782 C2777 1.245 . S
C2782 C2778 1.477 . S
C2782 H2799 0.932 . S
C2783 U2766 2.882 . S
C2783 C2777 1.428 . S
C2783 O2786 1.301 . S
C2783 O2787 1.282 . S
O2784 U2766 2.441 . S
O2784 C2770 1.249 . S
O2785 U2766 2.420 . S
O2785 C2770 1.202 . S
O2786 U2766 2.455 . S
O2786 C2783 1.301 . S
O2787 U2766 2.449 . S
O2787 C2783 1.282 . S
H2788 C2761 0.931 . S
H2789 C2763 0.929 . S
H2790 C2764 0.930 . S
H2791 C2765 0.931 . S
H2792 C2772 0.932 . S
H2793 C2773 0.930 . S
H2794 C2774 0.929 . S
H2795 C2776 0.930 . S
H2796 C2778 0.932 . S
H2797 C2779 0.929 . S
H2798 C2780 0.928 . S
H2799 C2782 0.932 . S
C2800 C2801 1.264 . S
C2800 C2805 1.479 . S
C2800 C2810 1.465 . S
C2801 C2800 1.264 . S
C2801 C2803 1.339 . S
C2801 H2828 0.931 . S
C2802 C2803 1.395 . S
C2802 C2804 1.320 . S
C2803 C2801 1.339 . S
C2803 C2802 1.395 . S
C2803 H2829 0.929 . S
C2804 C2802 1.320 . S
C2804 C2805 1.405 . S
C2804 H2830 0.930 . S
C2805 C2800 1.479 . S
C2805 C2804 1.405 . S
C2805 H2831 0.931 . S
U2806 O2807 2.454 . S
U2806 O2808 2.458 . S
U2806 C2809 2.984 . S
U2806 C2810 2.847 . S
U2806 C2823 2.882 . S
U2806 O2824 2.441 . S
U2806 O2825 2.420 . S
U2806 O2826 2.455 . S
U2806 O2827 2.449 . S
O2807 U2806 2.454 . S
O2807 C2809 1.353 . S
O2808 U2806 2.458 . S
O2808 C2809 1.286 . S
C2809 U2806 2.984 . S
C2809 O2807 1.353 . S
C2809 O2808 1.286 . S
C2809 C2811 1.363 . S
C2810 C2800 1.465 . S
C2810 U2806 2.847 . S
C2810 O2824 1.249 . S
C2810 O2825 1.202 . S
C2811 C2809 1.363 . S
C2811 C2813 1.408 . S
C2811 C2816 1.342 . S
C2812 C2813 1.310 . S
C2812 C2815 1.461 . S
C2812 H2832 0.932 . S
C2813 C2811 1.408 . S
C2813 C2812 1.310 . S
C2813 H2833 0.930 . S
C2814 C2815 1.474 . S
C2814 C2816 1.285 . S
C2814 H2834 0.929 . S
C2815 C2812 1.461 . S
C2815 C2814 1.474 . S
C2816 C2811 1.342 . S
C2816 C2814 1.285 . S
C2816 H2835 0.930 . S
C2817 C2820 1.424 . S
C2817 C2822 1.245 . S
C2817 C2823 1.428 . S
C2818 C2821 1.260 . S
C2818 C2822 1.477 . S
C2818 H2836 0.932 . S
C2819 C2820 1.384 . S
C2819 C2821 1.479 . S
C2819 H2837 0.929 . S
C2820 C2817 1.424 . S
C2820 C2819 1.384 . S
C2820 H2838 0.928 . S
C2821 C2818 1.260 . S
C2821 C2819 1.479 . S
C2822 C2817 1.245 . S
C2822 C2818 1.477 . S
C2822 H2839 0.932 . S
C2823 U2806 2.882 . S
C2823 C2817 1.428 . S
C2823 O2826 1.301 . S
C2823 O2827 1.282 . S
O2824 U2806 2.441 . S
O2824 C2810 1.249 . S
O2825 U2806 2.420 . S
O2825 C2810 1.202 . S
O2826 U2806 2.455 . S
O2826 C2823 1.301 . S
O2827 U2806 2.449 . S
O2827 C2823 1.282 . S
H2828 C2801 0.931 . S
H2829 C2803 0.929 . S
H2830 C2804 0.930 . S
H2831 C2805 0.931 . S
H2832 C2812 0.932 . S
H2833 C2813 0.930 . S
H2834 C2814 0.929 . S
H2835 C2816 0.930 . S
H2836 C2818 0.932 . S
H2837 C2819 0.929 . S
H2838 C2820 0.928 . S
H2839 C2822 0.932 . S
C2840 C2841 1.264 . S
C2840 C2845 1.479 . S
C2840 C2850 1.465 . S
C2841 C2840 1.264 . S
C2841 C2843 1.339 . S
C2841 H2868 0.931 . S
C2842 C2843 1.395 . S
C2842 C2844 1.320 . S
C2843 C2841 1.339 . S
C2843 C2842 1.395 . S
C2843 H2869 0.929 . S
C2844 C2842 1.320 . S
C2844 C2845 1.405 . S
C2844 H2870 0.930 . S
C2845 C2840 1.479 . S
C2845 C2844 1.405 . S
C2845 H2871 0.931 . S
U2846 O2847 2.454 . S
U2846 O2848 2.458 . S
U2846 C2849 2.984 . S
U2846 C2850 2.847 . S
U2846 C2863 2.882 . S
U2846 O2864 2.441 . S
U2846 O2865 2.420 . S
U2846 O2866 2.455 . S
U2846 O2867 2.449 . S
O2847 U2846 2.454 . S
O2847 C2849 1.353 . S
O2848 U2846 2.458 . S
O2848 C2849 1.286 . S
C2849 U2846 2.984 . S
C2849 O2847 1.353 . S
C2849 O2848 1.286 . S
C2849 C2851 1.363 . S
C2850 C2840 1.465 . S
C2850 U2846 2.847 . S
C2850 O2864 1.249 . S
C2850 O2865 1.202 . S
C2851 C2849 1.363 . S
C2851 C2853 1.408 . S
C2851 C2856 1.342 . S
C2852 C2853 1.310 . S
C2852 C2855 1.461 . S
C2852 H2872 0.932 . S
C2853 C2851 1.408 . S
C2853 C2852 1.310 . S
C2853 H2873 0.930 . S
C2854 C2855 1.474 . S
C2854 C2856 1.285 . S
C2854 H2874 0.929 . S
C2855 C2852 1.461 . S
C2855 C2854 1.474 . S
C2856 C2851 1.342 . S
C2856 C2854 1.285 . S
C2856 H2875 0.930 . S
C2857 C2860 1.424 . S
C2857 C2862 1.245 . S
C2857 C2863 1.428 . S
C2858 C2861 1.260 . S
C2858 C2862 1.477 . S
C2858 H2876 0.932 . S
C2859 C2860 1.384 . S
C2859 C2861 1.479 . S
C2859 H2877 0.929 . S
C2860 C2857 1.424 . S
C2860 C2859 1.384 . S
C2860 H2878 0.928 . S
C2861 C2858 1.260 . S
C2861 C2859 1.479 . S
C2862 C2857 1.245 . S
C2862 C2858 1.477 . S
C2862 H2879 0.932 . S
C2863 U2846 2.882 . S
C2863 C2857 1.428 . S
C2863 O2866 1.301 . S
C2863 O2867 1.282 . S
O2864 U2846 2.441 . S
O2864 C2850 1.249 . S
O2865 U2846 2.420 . S
O2865 C2850 1.202 . S
O2866 U2846 2.455 . S
O2866 C2863 1.301 . S
O2867 U2846 2.449 . S
O2867 C2863 1.282 . S
H2868 C2841 0.931 . S
H2869 C2843 0.929 . S
H2870 C2844 0.930 . S
H2871 C2845 0.931 . S
H2872 C2852 0.932 . S
H2873 C2853 0.930 . S
H2874 C2854 0.929 . S
H2875 C2856 0.930 . S
H2876 C2858 0.932 . S
H2877 C2859 0.929 . S
H2878 C2860 0.928 . S
H2879 C2862 0.932 . S
C2880 C2881 1.264 . S
C2880 C2885 1.479 . S
C2880 C2890 1.465 . S
C2881 C2880 1.264 . S
C2881 C2883 1.339 . S
C2881 H2908 0.931 . S
C2882 C2883 1.395 . S
C2882 C2884 1.320 . S
C2883 C2881 1.339 . S
C2883 C2882 1.395 . S
C2883 H2909 0.929 . S
C2884 C2882 1.320 . S
C2884 C2885 1.405 . S
C2884 H2910 0.930 . S
C2885 C2880 1.479 . S
C2885 C2884 1.405 . S
C2885 H2911 0.931 . S
U2886 O2887 2.454 . S
U2886 O2888 2.458 . S
U2886 C2889 2.984 . S
U2886 C2890 2.847 . S
U2886 C2903 2.882 . S
U2886 O2904 2.441 . S
U2886 O2905 2.420 . S
U2886 O2906 2.455 . S
U2886 O2907 2.449 . S
O2887 U2886 2.454 . S
O2887 C2889 1.353 . S
O2888 U2886 2.458 . S
O2888 C2889 1.286 . S
C2889 U2886 2.984 . S
C2889 O2887 1.353 . S
C2889 O2888 1.286 . S
C2889 C2891 1.363 . S
C2890 C2880 1.465 . S
C2890 U2886 2.847 . S
C2890 O2904 1.249 . S
C2890 O2905 1.202 . S
C2891 C2889 1.363 . S
C2891 C2893 1.408 . S
C2891 C2896 1.342 . S
C2892 C2893 1.310 . S
C2892 C2895 1.461 . S
C2892 H2912 0.932 . S
C2893 C2891 1.408 . S
C2893 C2892 1.310 . S
C2893 H2913 0.930 . S
C2894 C2895 1.474 . S
C2894 C2896 1.285 . S
C2894 H2914 0.929 . S
C2895 C2892 1.461 . S
C2895 C2894 1.474 . S
C2896 C2891 1.342 . S
C2896 C2894 1.285 . S
C2896 H2915 0.930 . S
C2897 C2900 1.424 . S
C2897 C2902 1.245 . S
C2897 C2903 1.428 . S
C2898 C2901 1.260 . S
C2898 C2902 1.477 . S
C2898 H2916 0.932 . S
C2899 C2900 1.384 . S
C2899 C2901 1.479 . S
C2899 H2917 0.929 . S
C2900 C2897 1.424 . S
C2900 C2899 1.384 . S
C2900 H2918 0.928 . S
C2901 C2898 1.260 . S
C2901 C2899 1.479 . S
C2902 C2897 1.245 . S
C2902 C2898 1.477 . S
C2902 H2919 0.932 . S
C2903 U2886 2.882 . S
C2903 C2897 1.428 . S
C2903 O2906 1.301 . S
C2903 O2907 1.282 . S
O2904 U2886 2.441 . S
O2904 C2890 1.249 . S
O2905 U2886 2.420 . S
O2905 C2890 1.202 . S
O2906 U2886 2.455 . S
O2906 C2903 1.301 . S
O2907 U2886 2.449 . S
O2907 C2903 1.282 . S
H2908 C2881 0.931 . S
H2909 C2883 0.929 . S
H2910 C2884 0.930 . S
H2911 C2885 0.931 . S
H2912 C2892 0.932 . S
H2913 C2893 0.930 . S
H2914 C2894 0.929 . S
H2915 C2896 0.930 . S
H2916 C2898 0.932 . S
H2917 C2899 0.929 . S
H2918 C2900 0.928 . S
H2919 C2902 0.932 . S
C2920 C2921 1.264 . S
C2920 C2925 1.479 . S
C2920 C2930 1.465 . S
C2921 C2920 1.264 . S
C2921 C2923 1.339 . S
C2921 H2948 0.931 . S
C2922 C2923 1.395 . S
C2922 C2924 1.320 . S
C2923 C2921 1.339 . S
C2923 C2922 1.395 . S
C2923 H2949 0.929 . S
C2924 C2922 1.320 . S
C2924 C2925 1.405 . S
C2924 H2950 0.930 . S
C2925 C2920 1.479 . S
C2925 C2924 1.405 . S
C2925 H2951 0.931 . S
U2926 O2927 2.454 . S
U2926 O2928 2.458 . S
U2926 C2929 2.984 . S
U2926 C2930 2.847 . S
U2926 C2943 2.882 . S
U2926 O2944 2.441 . S
U2926 O2945 2.420 . S
U2926 O2946 2.455 . S
U2926 O2947 2.449 . S
O2927 U2926 2.454 . S
O2927 C2929 1.353 . S
O2928 U2926 2.458 . S
O2928 C2929 1.286 . S
C2929 U2926 2.984 . S
C2929 O2927 1.353 . S
C2929 O2928 1.286 . S
C2929 C2931 1.363 . S
C2930 C2920 1.465 . S
C2930 U2926 2.847 . S
C2930 O2944 1.249 . S
C2930 O2945 1.202 . S
C2931 C2929 1.363 . S
C2931 C2933 1.408 . S
C2931 C2936 1.342 . S
C2932 C2933 1.310 . S
C2932 C2935 1.461 . S
C2932 H2952 0.932 . S
C2933 C2931 1.408 . S
C2933 C2932 1.310 . S
C2933 H2953 0.930 . S
C2934 C2935 1.474 . S
C2934 C2936 1.285 . S
C2934 H2954 0.929 . S
C2935 C2932 1.461 . S
C2935 C2934 1.474 . S
C2936 C2931 1.342 . S
C2936 C2934 1.285 . S
C2936 H2955 0.930 . S
C2937 C2940 1.424 . S
C2937 C2942 1.245 . S
C2937 C2943 1.428 . S
C2938 C2941 1.260 . S
C2938 C2942 1.477 . S
C2938 H2956 0.932 . S
C2939 C2940 1.384 . S
C2939 C2941 1.479 . S
C2939 H2957 0.929 . S
C2940 C2937 1.424 . S
C2940 C2939 1.384 . S
C2940 H2958 0.928 . S
C2941 C2938 1.260 . S
C2941 C2939 1.479 . S
C2942 C2937 1.245 . S
C2942 C2938 1.477 . S
C2942 H2959 0.932 . S
C2943 U2926 2.882 . S
C2943 C2937 1.428 . S
C2943 O2946 1.301 . S
C2943 O2947 1.282 . S
O2944 U2926 2.441 . S
O2944 C2930 1.249 . S
O2945 U2926 2.420 . S
O2945 C2930 1.202 . S
O2946 U2926 2.455 . S
O2946 C2943 1.301 . S
O2947 U2926 2.449 . S
O2947 C2943 1.282 . S
H2948 C2921 0.931 . S
H2949 C2923 0.929 . S
H2950 C2924 0.930 . S
H2951 C2925 0.931 . S
H2952 C2932 0.932 . S
H2953 C2933 0.930 . S
H2954 C2934 0.929 . S
H2955 C2936 0.930 . S
H2956 C2938 0.932 . S
H2957 C2939 0.929 . S
H2958 C2940 0.928 . S
H2959 C2942 0.932 . S
C2960 C2961 1.264 . S
C2960 C2965 1.479 . S
C2960 C2970 1.465 . S
C2961 C2960 1.264 . S
C2961 C2963 1.339 . S
C2961 H2988 0.931 . S
C2962 C2963 1.395 . S
C2962 C2964 1.320 . S
C2963 C2961 1.339 . S
C2963 C2962 1.395 . S
C2963 H2989 0.929 . S
C2964 C2962 1.320 . S
C2964 C2965 1.405 . S
C2964 H2990 0.930 . S
C2965 C2960 1.479 . S
C2965 C2964 1.405 . S
C2965 H2991 0.931 . S
U2966 O2967 2.454 . S
U2966 O2968 2.458 . S
U2966 C2969 2.984 . S
U2966 C2970 2.847 . S
U2966 C2983 2.882 . S
U2966 O2984 2.441 . S
U2966 O2985 2.420 . S
U2966 O2986 2.455 . S
U2966 O2987 2.449 . S
O2967 U2966 2.454 . S
O2967 C2969 1.353 . S
O2968 U2966 2.458 . S
O2968 C2969 1.286 . S
C2969 U2966 2.984 . S
C2969 O2967 1.353 . S
C2969 O2968 1.286 . S
C2969 C2971 1.363 . S
C2970 C2960 1.465 . S
C2970 U2966 2.847 . S
C2970 O2984 1.249 . S
C2970 O2985 1.202 . S
C2971 C2969 1.363 . S
C2971 C2973 1.408 . S
C2971 C2976 1.342 . S
C2972 C2973 1.310 . S
C2972 C2975 1.461 . S
C2972 H2992 0.932 . S
C2973 C2971 1.408 . S
C2973 C2972 1.310 . S
C2973 H2993 0.930 . S
C2974 C2975 1.474 . S
C2974 C2976 1.285 . S
C2974 H2994 0.929 . S
C2975 C2972 1.461 . S
C2975 C2974 1.474 . S
C2976 C2971 1.342 . S
C2976 C2974 1.285 . S
C2976 H2995 0.930 . S
C2977 C2980 1.424 . S
C2977 C2982 1.245 . S
C2977 C2983 1.428 . S
C2978 C2981 1.260 . S
C2978 C2982 1.477 . S
C2978 H2996 0.932 . S
C2979 C2980 1.384 . S
C2979 C2981 1.479 . S
C2979 H2997 0.929 . S
C2980 C2977 1.424 . S
C2980 C2979 1.384 . S
C2980 H2998 0.928 . S
C2981 C2978 1.260 . S
C2981 C2979 1.479 . S
C2982 C2977 1.245 . S
C2982 C2978 1.477 . S
C2982 H2999 0.932 . S
C2983 U2966 2.882 . S
C2983 C2977 1.428 . S
C2983 O2986 1.301 . S
C2983 O2987 1.282 . S
O2984 U2966 2.441 . S
O2984 C2970 1.249 . S
O2985 U2966 2.420 . S
O2985 C2970 1.202 . S
O2986 U2966 2.455 . S
O2986 C2983 1.301 . S
O2987 U2966 2.449 . S
O2987 C2983 1.282 . S
H2988 C2961 0.931 . S
H2989 C2963 0.929 . S
H2990 C2964 0.930 . S
H2991 C2965 0.931 . S
H2992 C2972 0.932 . S
H2993 C2973 0.930 . S
H2994 C2974 0.929 . S
H2995 C2976 0.930 . S
H2996 C2978 0.932 . S
H2997 C2979 0.929 . S
H2998 C2980 0.928 . S
H2999 C2982 0.932 . S
C3000 C3001 1.264 . S
C3000 C3005 1.479 . S
C3000 C3010 1.465 . S
C3001 C3000 1.264 . S
C3001 C3003 1.339 . S
C3001 H3028 0.931 . S
C3002 C3003 1.395 . S
C3002 C3004 1.320 . S
C3003 C3001 1.339 . S
C3003 C3002 1.395 . S
C3003 H3029 0.929 . S
C3004 C3002 1.320 . S
C3004 C3005 1.405 . S
C3004 H3030 0.930 . S
C3005 C3000 1.479 . S
C3005 C3004 1.405 . S
C3005 H3031 0.931 . S
U3006 O3007 2.454 . S
U3006 O3008 2.458 . S
U3006 C3009 2.984 . S
U3006 C3010 2.847 . S
U3006 C3023 2.882 . S
U3006 O3024 2.441 . S
U3006 O3025 2.420 . S
U3006 O3026 2.455 . S
U3006 O3027 2.449 . S
O3007 U3006 2.454 . S
O3007 C3009 1.353 . S
O3008 U3006 2.458 . S
O3008 C3009 1.286 . S
C3009 U3006 2.984 . S
C3009 O3007 1.353 . S
C3009 O3008 1.286 . S
C3009 C3011 1.363 . S
C3010 C3000 1.465 . S
C3010 U3006 2.847 . S
C3010 O3024 1.249 . S
C3010 O3025 1.202 . S
C3011 C3009 1.363 . S
C3011 C3013 1.408 . S
C3011 C3016 1.342 . S
C3012 C3013 1.310 . S
C3012 C3015 1.461 . S
C3012 H3032 0.932 . S
C3013 C3011 1.408 . S
C3013 C3012 1.310 . S
C3013 H3033 0.930 . S
C3014 C3015 1.474 . S
C3014 C3016 1.285 . S
C3014 H3034 0.929 . S
C3015 C3012 1.461 . S
C3015 C3014 1.474 . S
C3016 C3011 1.342 . S
C3016 C3014 1.285 . S
C3016 H3035 0.930 . S
C3017 C3020 1.424 . S
C3017 C3022 1.245 . S
C3017 C3023 1.428 . S
C3018 C3021 1.260 . S
C3018 C3022 1.477 . S
C3018 H3036 0.932 . S
C3019 C3020 1.384 . S
C3019 C3021 1.479 . S
C3019 H3037 0.929 . S
C3020 C3017 1.424 . S
C3020 C3019 1.384 . S
C3020 H3038 0.928 . S
C3021 C3018 1.260 . S
C3021 C3019 1.479 . S
C3022 C3017 1.245 . S
C3022 C3018 1.477 . S
C3022 H3039 0.932 . S
C3023 U3006 2.882 . S
C3023 C3017 1.428 . S
C3023 O3026 1.301 . S
C3023 O3027 1.282 . S
O3024 U3006 2.441 . S
O3024 C3010 1.249 . S
O3025 U3006 2.420 . S
O3025 C3010 1.202 . S
O3026 U3006 2.455 . S
O3026 C3023 1.301 . S
O3027 U3006 2.449 . S
O3027 C3023 1.282 . S
H3028 C3001 0.931 . S
H3029 C3003 0.929 . S
H3030 C3004 0.930 . S
H3031 C3005 0.931 . S
H3032 C3012 0.932 . S
H3033 C3013 0.930 . S
H3034 C3014 0.929 . S
H3035 C3016 0.930 . S
H3036 C3018 0.932 . S
H3037 C3019 0.929 . S
H3038 C3020 0.928 . S
H3039 C3022 0.932 . S
C3040 C3041 1.264 . S
C3040 C3045 1.479 . S
C3040 C3050 1.465 . S
C3041 C3040 1.264 . S
C3041 C3043 1.339 . S
C3041 H3068 0.931 . S
C3042 C3043 1.395 . S
C3042 C3044 1.320 . S
C3043 C3041 1.339 . S
C3043 C3042 1.395 . S
C3043 H3069 0.929 . S
C3044 C3042 1.320 . S
C3044 C3045 1.405 . S
C3044 H3070 0.930 . S
C3045 C3040 1.479 . S
C3045 C3044 1.405 . S
C3045 H3071 0.931 . S
U3046 O3047 2.454 . S
U3046 O3048 2.458 . S
U3046 C3049 2.984 . S
U3046 C3050 2.847 . S
U3046 C3063 2.882 . S
U3046 O3064 2.441 . S
U3046 O3065 2.420 . S
U3046 O3066 2.455 . S
U3046 O3067 2.449 . S
O3047 U3046 2.454 . S
O3047 C3049 1.353 . S
O3048 U3046 2.458 . S
O3048 C3049 1.286 . S
C3049 U3046 2.984 . S
C3049 O3047 1.353 . S
C3049 O3048 1.286 . S
C3049 C3051 1.363 . S
C3050 C3040 1.465 . S
C3050 U3046 2.847 . S
C3050 O3064 1.249 . S
C3050 O3065 1.202 . S
C3051 C3049 1.363 . S
C3051 C3053 1.408 . S
C3051 C3056 1.342 . S
C3052 C3053 1.310 . S
C3052 C3055 1.461 . S
C3052 H3072 0.932 . S
C3053 C3051 1.408 . S
C3053 C3052 1.310 . S
C3053 H3073 0.930 . S
C3054 C3055 1.474 . S
C3054 C3056 1.285 . S
C3054 H3074 0.929 . S
C3055 C3052 1.461 . S
C3055 C3054 1.474 . S
C3056 C3051 1.342 . S
C3056 C3054 1.285 . S
C3056 H3075 0.930 . S
C3057 C3060 1.424 . S
C3057 C3062 1.245 . S
C3057 C3063 1.428 . S
C3058 C3061 1.260 . S
C3058 C3062 1.477 . S
C3058 H3076 0.932 . S
C3059 C3060 1.384 . S
C3059 C3061 1.479 . S
C3059 H3077 0.929 . S
C3060 C3057 1.424 . S
C3060 C3059 1.384 . S
C3060 H3078 0.928 . S
C3061 C3058 1.260 . S
C3061 C3059 1.479 . S
C3062 C3057 1.245 . S
C3062 C3058 1.477 . S
C3062 H3079 0.932 . S
C3063 U3046 2.882 . S
C3063 C3057 1.428 . S
C3063 O3066 1.301 . S
C3063 O3067 1.282 . S
O3064 U3046 2.441 . S
O3064 C3050 1.249 . S
O3065 U3046 2.420 . S
O3065 C3050 1.202 . S
O3066 U3046 2.455 . S
O3066 C3063 1.301 . S
O3067 U3046 2.449 . S
O3067 C3063 1.282 . S
H3068 C3041 0.931 . S
H3069 C3043 0.929 . S
H3070 C3044 0.930 . S
H3071 C3045 0.931 . S
H3072 C3052 0.932 . S
H3073 C3053 0.930 . S
H3074 C3054 0.929 . S
H3075 C3056 0.930 . S
H3076 C3058 0.932 . S
H3077 C3059 0.929 . S
H3078 C3060 0.928 . S
H3079 C3062 0.932 . S
C3080 C3081 1.264 . S
C3080 C3085 1.479 . S
C3080 C3090 1.465 . S
C3081 C3080 1.264 . S
C3081 C3083 1.339 . S
C3081 H3108 0.931 . S
C3082 C3083 1.395 . S
C3082 C3084 1.320 . S
C3083 C3081 1.339 . S
C3083 C3082 1.395 . S
C3083 H3109 0.929 . S
C3084 C3082 1.320 . S
C3084 C3085 1.405 . S
C3084 H3110 0.930 . S
C3085 C3080 1.479 . S
C3085 C3084 1.405 . S
C3085 H3111 0.931 . S
U3086 O3087 2.454 . S
U3086 O3088 2.458 . S
U3086 C3089 2.984 . S
U3086 C3090 2.847 . S
U3086 C3103 2.882 . S
U3086 O3104 2.441 . S
U3086 O3105 2.420 . S
U3086 O3106 2.455 . S
U3086 O3107 2.449 . S
O3087 U3086 2.454 . S
O3087 C3089 1.353 . S
O3088 U3086 2.458 . S
O3088 C3089 1.286 . S
C3089 U3086 2.984 . S
C3089 O3087 1.353 . S
C3089 O3088 1.286 . S
C3089 C3091 1.363 . S
C3090 C3080 1.465 . S
C3090 U3086 2.847 . S
C3090 O3104 1.249 . S
C3090 O3105 1.202 . S
C3091 C3089 1.363 . S
C3091 C3093 1.408 . S
C3091 C3096 1.342 . S
C3092 C3093 1.310 . S
C3092 C3095 1.461 . S
C3092 H3112 0.932 . S
C3093 C3091 1.408 . S
C3093 C3092 1.310 . S
C3093 H3113 0.930 . S
C3094 C3095 1.474 . S
C3094 C3096 1.285 . S
C3094 H3114 0.929 . S
C3095 C3092 1.461 . S
C3095 C3094 1.474 . S
C3096 C3091 1.342 . S
C3096 C3094 1.285 . S
C3096 H3115 0.930 . S
C3097 C3100 1.424 . S
C3097 C3102 1.245 . S
C3097 C3103 1.428 . S
C3098 C3101 1.260 . S
C3098 C3102 1.477 . S
C3098 H3116 0.932 . S
C3099 C3100 1.384 . S
C3099 C3101 1.479 . S
C3099 H3117 0.929 . S
C3100 C3097 1.424 . S
C3100 C3099 1.384 . S
C3100 H3118 0.928 . S
C3101 C3098 1.260 . S
C3101 C3099 1.479 . S
C3102 C3097 1.245 . S
C3102 C3098 1.477 . S
C3102 H3119 0.932 . S
C3103 U3086 2.882 . S
C3103 C3097 1.428 . S
C3103 O3106 1.301 . S
C3103 O3107 1.282 . S
O3104 U3086 2.441 . S
O3104 C3090 1.249 . S
O3105 U3086 2.420 . S
O3105 C3090 1.202 . S
O3106 U3086 2.455 . S
O3106 C3103 1.301 . S
O3107 U3086 2.449 . S
O3107 C3103 1.282 . S
H3108 C3081 0.931 . S
H3109 C3083 0.929 . S
H3110 C3084 0.930 . S
H3111 C3085 0.931 . S
H3112 C3092 0.932 . S
H3113 C3093 0.930 . S
H3114 C3094 0.929 . S
H3115 C3096 0.930 . S
H3116 C3098 0.932 . S
H3117 C3099 0.929 . S
H3118 C3100 0.928 . S
H3119 C3102 0.932 . S
C3120 C3121 1.264 . S
C3120 C3125 1.479 . S
C3120 C3130 1.465 . S
C3121 C3120 1.264 . S
C3121 C3123 1.339 . S
C3121 H3148 0.931 . S
C3122 C3123 1.395 . S
C3122 C3124 1.320 . S
C3123 C3121 1.339 . S
C3123 C3122 1.395 . S
C3123 H3149 0.929 . S
C3124 C3122 1.320 . S
C3124 C3125 1.405 . S
C3124 H3150 0.930 . S
C3125 C3120 1.479 . S
C3125 C3124 1.405 . S
C3125 H3151 0.931 . S
U3126 O3127 2.454 . S
U3126 O3128 2.458 . S
U3126 C3129 2.984 . S
U3126 C3130 2.847 . S
U3126 C3143 2.882 . S
U3126 O3144 2.441 . S
U3126 O3145 2.420 . S
U3126 O3146 2.455 . S
U3126 O3147 2.449 . S
O3127 U3126 2.454 . S
O3127 C3129 1.353 . S
O3128 U3126 2.458 . S
O3128 C3129 1.286 . S
C3129 U3126 2.984 . S
C3129 O3127 1.353 . S
C3129 O3128 1.286 . S
C3129 C3131 1.363 . S
C3130 C3120 1.465 . S
C3130 U3126 2.847 . S
C3130 O3144 1.249 . S
C3130 O3145 1.202 . S
C3131 C3129 1.363 . S
C3131 C3133 1.408 . S
C3131 C3136 1.342 . S
C3132 C3133 1.310 . S
C3132 C3135 1.461 . S
C3132 H3152 0.932 . S
C3133 C3131 1.408 . S
C3133 C3132 1.310 . S
C3133 H3153 0.930 . S
C3134 C3135 1.474 . S
C3134 C3136 1.285 . S
C3134 H3154 0.929 . S
C3135 C3132 1.461 . S
C3135 C3134 1.474 . S
C3136 C3131 1.342 . S
C3136 C3134 1.285 . S
C3136 H3155 0.930 . S
C3137 C3140 1.424 . S
C3137 C3142 1.245 . S
C3137 C3143 1.428 . S
C3138 C3141 1.260 . S
C3138 C3142 1.477 . S
C3138 H3156 0.932 . S
C3139 C3140 1.384 . S
C3139 C3141 1.479 . S
C3139 H3157 0.929 . S
C3140 C3137 1.424 . S
C3140 C3139 1.384 . S
C3140 H3158 0.928 . S
C3141 C3138 1.260 . S
C3141 C3139 1.479 . S
C3142 C3137 1.245 . S
C3142 C3138 1.477 . S
C3142 H3159 0.932 . S
C3143 U3126 2.882 . S
C3143 C3137 1.428 . S
C3143 O3146 1.301 . S
C3143 O3147 1.282 . S
O3144 U3126 2.441 . S
O3144 C3130 1.249 . S
O3145 U3126 2.420 . S
O3145 C3130 1.202 . S
O3146 U3126 2.455 . S
O3146 C3143 1.301 . S
O3147 U3126 2.449 . S
O3147 C3143 1.282 . S
H3148 C3121 0.931 . S
H3149 C3123 0.929 . S
H3150 C3124 0.930 . S
H3151 C3125 0.931 . S
H3152 C3132 0.932 . S
H3153 C3133 0.930 . S
H3154 C3134 0.929 . S
H3155 C3136 0.930 . S
H3156 C3138 0.932 . S
H3157 C3139 0.929 . S
H3158 C3140 0.928 . S
H3159 C3142 0.932 . S
C3160 C3161 1.264 . S
C3160 C3165 1.479 . S
C3160 C3170 1.465 . S
C3161 C3160 1.264 . S
C3161 C3163 1.339 . S
C3161 H3188 0.931 . S
C3162 C3163 1.395 . S
C3162 C3164 1.320 . S
C3163 C3161 1.339 . S
C3163 C3162 1.395 . S
C3163 H3189 0.929 . S
C3164 C3162 1.320 . S
C3164 C3165 1.405 . S
C3164 H3190 0.930 . S
C3165 C3160 1.479 . S
C3165 C3164 1.405 . S
C3165 H3191 0.931 . S
U3166 O3167 2.454 . S
U3166 O3168 2.458 . S
U3166 C3169 2.984 . S
U3166 C3170 2.847 . S
U3166 C3183 2.882 . S
U3166 O3184 2.441 . S
U3166 O3185 2.420 . S
U3166 O3186 2.455 . S
U3166 O3187 2.449 . S
O3167 U3166 2.454 . S
O3167 C3169 1.353 . S
O3168 U3166 2.458 . S
O3168 C3169 1.286 . S
C3169 U3166 2.984 . S
C3169 O3167 1.353 . S
C3169 O3168 1.286 . S
C3169 C3171 1.363 . S
C3170 C3160 1.465 . S
C3170 U3166 2.847 . S
C3170 O3184 1.249 . S
C3170 O3185 1.202 . S
C3171 C3169 1.363 . S
C3171 C3173 1.408 . S
C3171 C3176 1.342 . S
C3172 C3173 1.310 . S
C3172 C3175 1.461 . S
C3172 H3192 0.932 . S
C3173 C3171 1.408 . S
C3173 C3172 1.310 . S
C3173 H3193 0.930 . S
C3174 C3175 1.474 . S
C3174 C3176 1.285 . S
C3174 H3194 0.929 . S
C3175 C3172 1.461 . S
C3175 C3174 1.474 . S
C3176 C3171 1.342 . S
C3176 C3174 1.285 . S
C3176 H3195 0.930 . S
C3177 C3180 1.424 . S
C3177 C3182 1.245 . S
C3177 C3183 1.428 . S
C3178 C3181 1.260 . S
C3178 C3182 1.477 . S
C3178 H3196 0.932 . S
C3179 C3180 1.384 . S
C3179 C3181 1.479 . S
C3179 H3197 0.929 . S
C3180 C3177 1.424 . S
C3180 C3179 1.384 . S
C3180 H3198 0.928 . S
C3181 C3178 1.260 . S
C3181 C3179 1.479 . S
C3182 C3177 1.245 . S
C3182 C3178 1.477 . S
C3182 H3199 0.932 . S
C3183 U3166 2.882 . S
C3183 C3177 1.428 . S
C3183 O3186 1.301 . S
C3183 O3187 1.282 . S
O3184 U3166 2.441 . S
O3184 C3170 1.249 . S
O3185 U3166 2.420 . S
O3185 C3170 1.202 . S
O3186 U3166 2.455 . S
O3186 C3183 1.301 . S
O3187 U3166 2.449 . S
O3187 C3183 1.282 . S
H3188 C3161 0.931 . S
H3189 C3163 0.929 . S
H3190 C3164 0.930 . S
H3191 C3165 0.931 . S
H3192 C3172 0.932 . S
H3193 C3173 0.930 . S
H3194 C3174 0.929 . S
H3195 C3176 0.930 . S
H3196 C3178 0.932 . S
H3197 C3179 0.929 . S
H3198 C3180 0.928 . S
H3199 C3182 0.932 . S
C3200 C3201 1.264 . S
C3200 C3205 1.479 . S
C3200 C3210 1.465 . S
C3201 C3200 1.264 . S
C3201 C3203 1.339 . S
C3201 H3228 0.931 . S
C3202 C3203 1.395 . S
C3202 C3204 1.320 . S
C3203 C3201 1.339 . S
C3203 C3202 1.395 . S
C3203 H3229 0.929 . S
C3204 C3202 1.320 . S
C3204 C3205 1.405 . S
C3204 H3230 0.930 . S
C3205 C3200 1.479 . S
C3205 C3204 1.405 . S
C3205 H3231 0.931 . S
U3206 O3207 2.454 . S
U3206 O3208 2.458 . S
U3206 C3209 2.984 . S
U3206 C3210 2.847 . S
U3206 C3223 2.882 . S
U3206 O3224 2.441 . S
U3206 O3225 2.420 . S
U3206 O3226 2.455 . S
U3206 O3227 2.449 . S
O3207 U3206 2.454 . S
O3207 C3209 1.353 . S
O3208 U3206 2.458 . S
O3208 C3209 1.286 . S
C3209 U3206 2.984 . S
C3209 O3207 1.353 . S
C3209 O3208 1.286 . S
C3209 C3211 1.363 . S
C3210 C3200 1.465 . S
C3210 U3206 2.847 . S
C3210 O3224 1.249 . S
C3210 O3225 1.202 . S
C3211 C3209 1.363 . S
C3211 C3213 1.408 . S
C3211 C3216 1.342 . S
C3212 C3213 1.310 . S
C3212 C3215 1.461 . S
C3212 H3232 0.932 . S
C3213 C3211 1.408 . S
C3213 C3212 1.310 . S
C3213 H3233 0.930 . S
C3214 C3215 1.474 . S
C3214 C3216 1.285 . S
C3214 H3234 0.929 . S
C3215 C3212 1.461 . S
C3215 C3214 1.474 . S
C3216 C3211 1.342 . S
C3216 C3214 1.285 . S
C3216 H3235 0.930 . S
C3217 C3220 1.424 . S
C3217 C3222 1.245 . S
C3217 C3223 1.428 . S
C3218 C3221 1.260 . S
C3218 C3222 1.477 . S
C3218 H3236 0.932 . S
C3219 C3220 1.384 . S
C3219 C3221 1.479 . S
C3219 H3237 0.929 . S
C3220 C3217 1.424 . S
C3220 C3219 1.384 . S
C3220 H3238 0.928 . S
C3221 C3218 1.260 . S
C3221 C3219 1.479 . S
C3222 C3217 1.245 . S
C3222 C3218 1.477 . S
C3222 H3239 0.932 . S
C3223 U3206 2.882 . S
C3223 C3217 1.428 . S
C3223 O3226 1.301 . S
C3223 O3227 1.282 . S
O3224 U3206 2.441 . S
O3224 C3210 1.249 . S
O3225 U3206 2.420 . S
O3225 C3210 1.202 . S
O3226 U3206 2.455 . S
O3226 C3223 1.301 . S
O3227 U3206 2.449 . S
O3227 C3223 1.282 . S
H3228 C3201 0.931 . S
H3229 C3203 0.929 . S
H3230 C3204 0.930 . S
H3231 C3205 0.931 . S
H3232 C3212 0.932 . S
H3233 C3213 0.930 . S
H3234 C3214 0.929 . S
H3235 C3216 0.930 . S
H3236 C3218 0.932 . S
H3237 C3219 0.929 . S
H3238 C3220 0.928 . S
H3239 C3222 0.932 . S
C3240 C3241 1.264 . S
C3240 C3245 1.479 . S
C3240 C3250 1.465 . S
C3241 C3240 1.264 . S
C3241 C3243 1.339 . S
C3241 H3268 0.931 . S
C3242 C3243 1.395 . S
C3242 C3244 1.320 . S
C3243 C3241 1.339 . S
C3243 C3242 1.395 . S
C3243 H3269 0.929 . S
C3244 C3242 1.320 . S
C3244 C3245 1.405 . S
C3244 H3270 0.930 . S
C3245 C3240 1.479 . S
C3245 C3244 1.405 . S
C3245 H3271 0.931 . S
U3246 O3247 2.454 . S
U3246 O3248 2.458 . S
U3246 C3249 2.984 . S
U3246 C3250 2.847 . S
U3246 C3263 2.882 . S
U3246 O3264 2.441 . S
U3246 O3265 2.420 . S
U3246 O3266 2.455 . S
U3246 O3267 2.449 . S
O3247 U3246 2.454 . S
O3247 C3249 1.353 . S
O3248 U3246 2.458 . S
O3248 C3249 1.286 . S
C3249 U3246 2.984 . S
C3249 O3247 1.353 . S
C3249 O3248 1.286 . S
C3249 C3251 1.363 . S
C3250 C3240 1.465 . S
C3250 U3246 2.847 . S
C3250 O3264 1.249 . S
C3250 O3265 1.202 . S
C3251 C3249 1.363 . S
C3251 C3253 1.408 . S
C3251 C3256 1.342 . S
C3252 C3253 1.310 . S
C3252 C3255 1.461 . S
C3252 H3272 0.932 . S
C3253 C3251 1.408 . S
C3253 C3252 1.310 . S
C3253 H3273 0.930 . S
C3254 C3255 1.474 . S
C3254 C3256 1.285 . S
C3254 H3274 0.929 . S
C3255 C3252 1.461 . S
C3255 C3254 1.474 . S
C3256 C3251 1.342 . S
C3256 C3254 1.285 . S
C3256 H3275 0.930 . S
C3257 C3260 1.424 . S
C3257 C3262 1.245 . S
C3257 C3263 1.428 . S
C3258 C3261 1.260 . S
C3258 C3262 1.477 . S
C3258 H3276 0.932 . S
C3259 C3260 1.384 . S
C3259 C3261 1.479 . S
C3259 H3277 0.929 . S
C3260 C3257 1.424 . S
C3260 C3259 1.384 . S
C3260 H3278 0.928 . S
C3261 C3258 1.260 . S
C3261 C3259 1.479 . S
C3262 C3257 1.245 . S
C3262 C3258 1.477 . S
C3262 H3279 0.932 . S
C3263 U3246 2.882 . S
C3263 C3257 1.428 . S
C3263 O3266 1.301 . S
C3263 O3267 1.282 . S
O3264 U3246 2.441 . S
O3264 C3250 1.249 . S
O3265 U3246 2.420 . S
O3265 C3250 1.202 . S
O3266 U3246 2.455 . S
O3266 C3263 1.301 . S
O3267 U3246 2.449 . S
O3267 C3263 1.282 . S
H3268 C3241 0.931 . S
H3269 C3243 0.929 . S
H3270 C3244 0.930 . S
H3271 C3245 0.931 . S
H3272 C3252 0.932 . S
H3273 C3253 0.930 . S
H3274 C3254 0.929 . S
H3275 C3256 0.930 . S
H3276 C3258 0.932 . S
H3277 C3259 0.929 . S
H3278 C3260 0.928 . S
H3279 C3262 0.932 . S
C3280 C3281 1.264 . S
C3280 C3285 1.479 . S
C3280 C3290 1.465 . S
C3281 C3280 1.264 . S
C3281 C3283 1.339 . S
C3281 H3308 0.931 . S
C3282 C3283 1.395 . S
C3282 C3284 1.320 . S
C3283 C3281 1.339 . S
C3283 C3282 1.395 . S
C3283 H3309 0.929 . S
C3284 C3282 1.320 . S
C3284 C3285 1.405 . S
C3284 H3310 0.930 . S
C3285 C3280 1.479 . S
C3285 C3284 1.405 . S
C3285 H3311 0.931 . S
U3286 O3287 2.454 . S
U3286 O3288 2.458 . S
U3286 C3289 2.984 . S
U3286 C3290 2.847 . S
U3286 C3303 2.882 . S
U3286 O3304 2.441 . S
U3286 O3305 2.420 . S
U3286 O3306 2.455 . S
U3286 O3307 2.449 . S
O3287 U3286 2.454 . S
O3287 C3289 1.353 . S
O3288 U3286 2.458 . S
O3288 C3289 1.286 . S
C3289 U3286 2.984 . S
C3289 O3287 1.353 . S
C3289 O3288 1.286 . S
C3289 C3291 1.363 . S
C3290 C3280 1.465 . S
C3290 U3286 2.847 . S
C3290 O3304 1.249 . S
C3290 O3305 1.202 . S
C3291 C3289 1.363 . S
C3291 C3293 1.408 . S
C3291 C3296 1.342 . S
C3292 C3293 1.310 . S
C3292 C3295 1.461 . S
C3292 H3312 0.932 . S
C3293 C3291 1.408 . S
C3293 C3292 1.310 . S
C3293 H3313 0.930 . S
C3294 C3295 1.474 . S
C3294 C3296 1.285 . S
C3294 H3314 0.929 . S
C3295 C3292 1.461 . S
C3295 C3294 1.474 . S
C3296 C3291 1.342 . S
C3296 C3294 1.285 . S
C3296 H3315 0.930 . S
C3297 C3300 1.424 . S
C3297 C3302 1.245 . S
C3297 C3303 1.428 . S
C3298 C3301 1.260 . S
C3298 C3302 1.477 . S
C3298 H3316 0.932 . S
C3299 C3300 1.384 . S
C3299 C3301 1.479 . S
C3299 H3317 0.929 . S
C3300 C3297 1.424 . S
C3300 C3299 1.384 . S
C3300 H3318 0.928 . S
C3301 C3298 1.260 . S
C3301 C3299 1.479 . S
C3302 C3297 1.245 . S
C3302 C3298 1.477 . S
C3302 H3319 0.932 . S
C3303 U3286 2.882 . S
C3303 C3297 1.428 . S
C3303 O3306 1.301 . S
C3303 O3307 1.282 . S
O3304 U3286 2.441 . S
O3304 C3290 1.249 . S
O3305 U3286 2.420 . S
O3305 C3290 1.202 . S
O3306 U3286 2.455 . S
O3306 C3303 1.301 . S
O3307 U3286 2.449 . S
O3307 C3303 1.282 . S
H3308 C3281 0.931 . S
H3309 C3283 0.929 . S
H3310 C3284 0.930 . S
H3311 C3285 0.931 . S
H3312 C3292 0.932 . S
H3313 C3293 0.930 . S
H3314 C3294 0.929 . S
H3315 C3296 0.930 . S
H3316 C3298 0.932 . S
H3317 C3299 0.929 . S
H3318 C3300 0.928 . S
H3319 C3302 0.932 . S
C3320 C3321 1.264 . S
C3320 C3325 1.479 . S
C3320 C3330 1.465 . S
C3321 C3320 1.264 . S
C3321 C3323 1.339 . S
C3321 H3348 0.931 . S
C3322 C3323 1.395 . S
C3322 C3324 1.320 . S
C3323 C3321 1.339 . S
C3323 C3322 1.395 . S
C3323 H3349 0.929 . S
C3324 C3322 1.320 . S
C3324 C3325 1.405 . S
C3324 H3350 0.930 . S
C3325 C3320 1.479 . S
C3325 C3324 1.405 . S
C3325 H3351 0.931 . S
U3326 O3327 2.454 . S
U3326 O3328 2.458 . S
U3326 C3329 2.984 . S
U3326 C3330 2.847 . S
U3326 C3343 2.882 . S
U3326 O3344 2.441 . S
U3326 O3345 2.420 . S
U3326 O3346 2.455 . S
U3326 O3347 2.449 . S
O3327 U3326 2.454 . S
O3327 C3329 1.353 . S
O3328 U3326 2.458 . S
O3328 C3329 1.286 . S
C3329 U3326 2.984 . S
C3329 O3327 1.353 . S
C3329 O3328 1.286 . S
C3329 C3331 1.363 . S
C3330 C3320 1.465 . S
C3330 U3326 2.847 . S
C3330 O3344 1.249 . S
C3330 O3345 1.202 . S
C3331 C3329 1.363 . S
C3331 C3333 1.408 . S
C3331 C3336 1.342 . S
C3332 C3333 1.310 . S
C3332 C3335 1.461 . S
C3332 H3352 0.932 . S
C3333 C3331 1.408 . S
C3333 C3332 1.310 . S
C3333 H3353 0.930 . S
C3334 C3335 1.474 . S
C3334 C3336 1.285 . S
C3334 H3354 0.929 . S
C3335 C3332 1.461 . S
C3335 C3334 1.474 . S
C3336 C3331 1.342 . S
C3336 C3334 1.285 . S
C3336 H3355 0.930 . S
C3337 C3340 1.424 . S
C3337 C3342 1.245 . S
C3337 C3343 1.428 . S
C3338 C3341 1.260 . S
C3338 C3342 1.477 . S
C3338 H3356 0.932 . S
C3339 C3340 1.384 . S
C3339 C3341 1.479 . S
C3339 H3357 0.929 . S
C3340 C3337 1.424 . S
C3340 C3339 1.384 . S
C3340 H3358 0.928 . S
C3341 C3338 1.260 . S
C3341 C3339 1.479 . S
C3342 C3337 1.245 . S
C3342 C3338 1.477 . S
C3342 H3359 0.932 . S
C3343 U3326 2.882 . S
C3343 C3337 1.428 . S
C3343 O3346 1.301 . S
C3343 O3347 1.282 . S
O3344 U3326 2.441 . S
O3344 C3330 1.249 . S
O3345 U3326 2.420 . S
O3345 C3330 1.202 . S
O3346 U3326 2.455 . S
O3346 C3343 1.301 . S
O3347 U3326 2.449 . S
O3347 C3343 1.282 . S
H3348 C3321 0.931 . S
H3349 C3323 0.929 . S
H3350 C3324 0.930 . S
H3351 C3325 0.931 . S
H3352 C3332 0.932 . S
H3353 C3333 0.930 . S
H3354 C3334 0.929 . S
H3355 C3336 0.930 . S
H3356 C3338 0.932 . S
H3357 C3339 0.929 . S
H3358 C3340 0.928 . S
H3359 C3342 0.932 . S
C3360 C3361 1.264 . S
C3360 C3365 1.479 . S
C3360 C3370 1.465 . S
C3361 C3360 1.264 . S
C3361 C3363 1.339 . S
C3361 H3388 0.931 . S
C3362 C3363 1.395 . S
C3362 C3364 1.320 . S
C3363 C3361 1.339 . S
C3363 C3362 1.395 . S
C3363 H3389 0.929 . S
C3364 C3362 1.320 . S
C3364 C3365 1.405 . S
C3364 H3390 0.930 . S
C3365 C3360 1.479 . S
C3365 C3364 1.405 . S
C3365 H3391 0.931 . S
U3366 O3367 2.454 . S
U3366 O3368 2.458 . S
U3366 C3369 2.984 . S
U3366 C3370 2.847 . S
U3366 C3383 2.882 . S
U3366 O3384 2.441 . S
U3366 O3385 2.420 . S
U3366 O3386 2.455 . S
U3366 O3387 2.449 . S
O3367 U3366 2.454 . S
O3367 C3369 1.353 . S
O3368 U3366 2.458 . S
O3368 C3369 1.286 . S
C3369 U3366 2.984 . S
C3369 O3367 1.353 . S
C3369 O3368 1.286 . S
C3369 C3371 1.363 . S
C3370 C3360 1.465 . S
C3370 U3366 2.847 . S
C3370 O3384 1.249 . S
C3370 O3385 1.202 . S
C3371 C3369 1.363 . S
C3371 C3373 1.408 . S
C3371 C3376 1.342 . S
C3372 C3373 1.310 . S
C3372 C3375 1.461 . S
C3372 H3392 0.932 . S
C3373 C3371 1.408 . S
C3373 C3372 1.310 . S
C3373 H3393 0.930 . S
C3374 C3375 1.474 . S
C3374 C3376 1.285 . S
C3374 H3394 0.929 . S
C3375 C3372 1.461 . S
C3375 C3374 1.474 . S
C3376 C3371 1.342 . S
C3376 C3374 1.285 . S
C3376 H3395 0.930 . S
C3377 C3380 1.424 . S
C3377 C3382 1.245 . S
C3377 C3383 1.428 . S
C3378 C3381 1.260 . S
C3378 C3382 1.477 . S
C3378 H3396 0.932 . S
C3379 C3380 1.384 . S
C3379 C3381 1.479 . S
C3379 H3397 0.929 . S
C3380 C3377 1.424 . S
C3380 C3379 1.384 . S
C3380 H3398 0.928 . S
C3381 C3378 1.260 . S
C3381 C3379 1.479 . S
C3382 C3377 1.245 . S
C3382 C3378 1.477 . S
C3382 H3399 0.932 . S
C3383 U3366 2.882 . S
C3383 C3377 1.428 . S
C3383 O3386 1.301 . S
C3383 O3387 1.282 . S
O3384 U3366 2.441 . S
O3384 C3370 1.249 . S
O3385 U3366 2.420 . S
O3385 C3370 1.202 . S
O3386 U3366 2.455 . S
O3386 C3383 1.301 . S
O3387 U3366 2.449 . S
O3387 C3383 1.282 . S
H3388 C3361 0.931 . S
H3389 C3363 0.929 . S
H3390 C3364 0.930 . S
H3391 C3365 0.931 . S
H3392 C3372 0.932 . S
H3393 C3373 0.930 . S
H3394 C3374 0.929 . S
H3395 C3376 0.930 . S
H3396 C3378 0.932 . S
H3397 C3379 0.929 . S
H3398 C3380 0.928 . S
H3399 C3382 0.932 . S
C3400 C3401 1.264 . S
C3400 C3405 1.479 . S
C3400 C3410 1.465 . S
C3401 C3400 1.264 . S
C3401 C3403 1.339 . S
C3401 H3428 0.931 . S
C3402 C3403 1.395 . S
C3402 C3404 1.320 . S
C3403 C3401 1.339 . S
C3403 C3402 1.395 . S
C3403 H3429 0.929 . S
C3404 C3402 1.320 . S
C3404 C3405 1.405 . S
C3404 H3430 0.930 . S
C3405 C3400 1.479 . S
C3405 C3404 1.405 . S
C3405 H3431 0.931 . S
U3406 O3407 2.454 . S
U3406 O3408 2.458 . S
U3406 C3409 2.984 . S
U3406 C3410 2.847 . S
U3406 C3423 2.882 . S
U3406 O3424 2.441 . S
U3406 O3425 2.420 . S
U3406 O3426 2.455 . S
U3406 O3427 2.449 . S
O3407 U3406 2.454 . S
O3407 C3409 1.353 . S
O3408 U3406 2.458 . S
O3408 C3409 1.286 . S
C3409 U3406 2.984 . S
C3409 O3407 1.353 . S
C3409 O3408 1.286 . S
C3409 C3411 1.363 . S
C3410 C3400 1.465 . S
C3410 U3406 2.847 . S
C3410 O3424 1.249 . S
C3410 O3425 1.202 . S
C3411 C3409 1.363 . S
C3411 C3413 1.408 . S
C3411 C3416 1.342 . S
C3412 C3413 1.310 . S
C3412 C3415 1.461 . S
C3412 H3432 0.932 . S
C3413 C3411 1.408 . S
C3413 C3412 1.310 . S
C3413 H3433 0.930 . S
C3414 C3415 1.474 . S
C3414 C3416 1.285 . S
C3414 H3434 0.929 . S
C3415 C3412 1.461 . S
C3415 C3414 1.474 . S
C3416 C3411 1.342 . S
C3416 C3414 1.285 . S
C3416 H3435 0.930 . S
C3417 C3420 1.424 . S
C3417 C3422 1.245 . S
C3417 C3423 1.428 . S
C3418 C3421 1.260 . S
C3418 C3422 1.477 . S
C3418 H3436 0.932 . S
C3419 C3420 1.384 . S
C3419 C3421 1.479 . S
C3419 H3437 0.929 . S
C3420 C3417 1.424 . S
C3420 C3419 1.384 . S
C3420 H3438 0.928 . S
C3421 C3418 1.260 . S
C3421 C3419 1.479 . S
C3422 C3417 1.245 . S
C3422 C3418 1.477 . S
C3422 H3439 0.932 . S
C3423 U3406 2.882 . S
C3423 C3417 1.428 . S
C3423 O3426 1.301 . S
C3423 O3427 1.282 . S
O3424 U3406 2.441 . S
O3424 C3410 1.249 . S
O3425 U3406 2.420 . S
O3425 C3410 1.202 . S
O3426 U3406 2.455 . S
O3426 C3423 1.301 . S
O3427 U3406 2.449 . S
O3427 C3423 1.282 . S
H3428 C3401 0.931 . S
H3429 C3403 0.929 . S
H3430 C3404 0.930 . S
H3431 C3405 0.931 . S
H3432 C3412 0.932 . S
H3433 C3413 0.930 . S
H3434 C3414 0.929 . S
H3435 C3416 0.930 . S
H3436 C3418 0.932 . S
H3437 C3419 0.929 . S
H3438 C3420 0.928 . S
H3439 C3422 0.932 . S
C3440 C3441 1.264 . S
C3440 C3445 1.479 . S
C3440 C3450 1.465 . S
C3441 C3440 1.264 . S
C3441 C3443 1.339 . S
C3441 H3468 0.931 . S
C3442 C3443 1.395 . S
C3442 C3444 1.320 . S
C3443 C3441 1.339 . S
C3443 C3442 1.395 . S
C3443 H3469 0.929 . S
C3444 C3442 1.320 . S
C3444 C3445 1.405 . S
C3444 H3470 0.930 . S
C3445 C3440 1.479 . S
C3445 C3444 1.405 . S
C3445 H3471 0.931 . S
U3446 O3447 2.454 . S
U3446 O3448 2.458 . S
U3446 C3449 2.984 . S
U3446 C3450 2.847 . S
U3446 C3463 2.882 . S
U3446 O3464 2.441 . S
U3446 O3465 2.420 . S
U3446 O3466 2.455 . S
U3446 O3467 2.449 . S
O3447 U3446 2.454 . S
O3447 C3449 1.353 . S
O3448 U3446 2.458 . S
O3448 C3449 1.286 . S
C3449 U3446 2.984 . S
C3449 O3447 1.353 . S
C3449 O3448 1.286 . S
C3449 C3451 1.363 . S
C3450 C3440 1.465 . S
C3450 U3446 2.847 . S
C3450 O3464 1.249 . S
C3450 O3465 1.202 . S
C3451 C3449 1.363 . S
C3451 C3453 1.408 . S
C3451 C3456 1.342 . S
C3452 C3453 1.310 . S
C3452 C3455 1.461 . S
C3452 H3472 0.932 . S
C3453 C3451 1.408 . S
C3453 C3452 1.310 . S
C3453 H3473 0.930 . S
C3454 C3455 1.474 . S
C3454 C3456 1.285 . S
C3454 H3474 0.929 . S
C3455 C3452 1.461 . S
C3455 C3454 1.474 . S
C3456 C3451 1.342 . S
C3456 C3454 1.285 . S
C3456 H3475 0.930 . S
C3457 C3460 1.424 . S
C3457 C3462 1.245 . S
C3457 C3463 1.428 . S
C3458 C3461 1.260 . S
C3458 C3462 1.477 . S
C3458 H3476 0.932 . S
C3459 C3460 1.384 . S
C3459 C3461 1.479 . S
C3459 H3477 0.929 . S
C3460 C3457 1.424 . S
C3460 C3459 1.384 . S
C3460 H3478 0.928 . S
C3461 C3458 1.260 . S
C3461 C3459 1.479 . S
C3462 C3457 1.245 . S
C3462 C3458 1.477 . S
C3462 H3479 0.932 . S
C3463 U3446 2.882 . S
C3463 C3457 1.428 . S
C3463 O3466 1.301 . S
C3463 O3467 1.282 . S
O3464 U3446 2.441 . S
O3464 C3450 1.249 . S
O3465 U3446 2.420 . S
O3465 C3450 1.202 . S
O3466 U3446 2.455 . S
O3466 C3463 1.301 . S
O3467 U3446 2.449 . S
O3467 C3463 1.282 . S
H3468 C3441 0.931 . S
H3469 C3443 0.929 . S
H3470 C3444 0.930 . S
H3471 C3445 0.931 . S
H3472 C3452 0.932 . S
H3473 C3453 0.930 . S
H3474 C3454 0.929 . S
H3475 C3456 0.930 . S
H3476 C3458 0.932 . S
H3477 C3459 0.929 . S
H3478 C3460 0.928 . S
H3479 C3462 0.932 . S
C3480 C3481 1.264 . S
C3480 C3485 1.479 . S
C3480 C3490 1.465 . S
C3481 C3480 1.264 . S
C3481 C3483 1.339 . S
C3481 H3508 0.931 . S
C3482 C3483 1.395 . S
C3482 C3484 1.320 . S
C3483 C3481 1.339 . S
C3483 C3482 1.395 . S
C3483 H3509 0.929 . S
C3484 C3482 1.320 . S
C3484 C3485 1.405 . S
C3484 H3510 0.930 . S
C3485 C3480 1.479 . S
C3485 C3484 1.405 . S
C3485 H3511 0.931 . S
U3486 O3487 2.454 . S
U3486 O3488 2.458 . S
U3486 C3489 2.984 . S
U3486 C3490 2.847 . S
U3486 C3503 2.882 . S
U3486 O3504 2.441 . S
U3486 O3505 2.420 . S
U3486 O3506 2.455 . S
U3486 O3507 2.449 . S
O3487 U3486 2.454 . S
O3487 C3489 1.353 . S
O3488 U3486 2.458 . S
O3488 C3489 1.286 . S
C3489 U3486 2.984 . S
C3489 O3487 1.353 . S
C3489 O3488 1.286 . S
C3489 C3491 1.363 . S
C3490 C3480 1.465 . S
C3490 U3486 2.847 . S
C3490 O3504 1.249 . S
C3490 O3505 1.202 . S
C3491 C3489 1.363 . S
C3491 C3493 1.408 . S
C3491 C3496 1.342 . S
C3492 C3493 1.310 . S
C3492 C3495 1.461 . S
C3492 H3512 0.932 . S
C3493 C3491 1.408 . S
C3493 C3492 1.310 . S
C3493 H3513 0.930 . S
C3494 C3495 1.474 . S
C3494 C3496 1.285 . S
C3494 H3514 0.929 . S
C3495 C3492 1.461 . S
C3495 C3494 1.474 . S
C3496 C3491 1.342 . S
C3496 C3494 1.285 . S
C3496 H3515 0.930 . S
C3497 C3500 1.424 . S
C3497 C3502 1.245 . S
C3497 C3503 1.428 . S
C3498 C3501 1.260 . S
C3498 C3502 1.477 . S
C3498 H3516 0.932 . S
C3499 C3500 1.384 . S
C3499 C3501 1.479 . S
C3499 H3517 0.929 . S
C3500 C3497 1.424 . S
C3500 C3499 1.384 . S
C3500 H3518 0.928 . S
C3501 C3498 1.260 . S
C3501 C3499 1.479 . S
C3502 C3497 1.245 . S
C3502 C3498 1.477 . S
C3502 H3519 0.932 . S
C3503 U3486 2.882 . S
C3503 C3497 1.428 . S
C3503 O3506 1.301 . S
C3503 O3507 1.282 . S
O3504 U3486 2.441 . S
O3504 C3490 1.249 . S
O3505 U3486 2.420 . S
O3505 C3490 1.202 . S
O3506 U3486 2.455 . S
O3506 C3503 1.301 . S
O3507 U3486 2.449 . S
O3507 C3503 1.282 . S
H3508 C3481 0.931 . S
H3509 C3483 0.929 . S
H3510 C3484 0.930 . S
H3511 C3485 0.931 . S
H3512 C3492 0.932 . S
H3513 C3493 0.930 . S
H3514 C3494 0.929 . S
H3515 C3496 0.930 . S
H3516 C3498 0.932 . S
H3517 C3499 0.929 . S
H3518 C3500 0.928 . S
H3519 C3502 0.932 . S
C3520 C3521 1.264 . S
C3520 C3525 1.479 . S
C3520 C3530 1.465 . S
C3521 C3520 1.264 . S
C3521 C3523 1.339 . S
C3521 H3548 0.931 . S
C3522 C3523 1.395 . S
C3522 C3524 1.320 . S
C3523 C3521 1.339 . S
C3523 C3522 1.395 . S
C3523 H3549 0.929 . S
C3524 C3522 1.320 . S
C3524 C3525 1.405 . S
C3524 H3550 0.930 . S
C3525 C3520 1.479 . S
C3525 C3524 1.405 . S
C3525 H3551 0.931 . S
U3526 O3527 2.454 . S
U3526 O3528 2.458 . S
U3526 C3529 2.984 . S
U3526 C3530 2.847 . S
U3526 C3543 2.882 . S
U3526 O3544 2.441 . S
U3526 O3545 2.420 . S
U3526 O3546 2.455 . S
U3526 O3547 2.449 . S
O3527 U3526 2.454 . S
O3527 C3529 1.353 . S
O3528 U3526 2.458 . S
O3528 C3529 1.286 . S
C3529 U3526 2.984 . S
C3529 O3527 1.353 . S
C3529 O3528 1.286 . S
C3529 C3531 1.363 . S
C3530 C3520 1.465 . S
C3530 U3526 2.847 . S
C3530 O3544 1.249 . S
C3530 O3545 1.202 . S
C3531 C3529 1.363 . S
C3531 C3533 1.408 . S
C3531 C3536 1.342 . S
C3532 C3533 1.310 . S
C3532 C3535 1.461 . S
C3532 H3552 0.932 . S
C3533 C3531 1.408 . S
C3533 C3532 1.310 . S
C3533 H3553 0.930 . S
C3534 C3535 1.474 . S
C3534 C3536 1.285 . S
C3534 H3554 0.929 . S
C3535 C3532 1.461 . S
C3535 C3534 1.474 . S
C3536 C3531 1.342 . S
C3536 C3534 1.285 . S
C3536 H3555 0.930 . S
C3537 C3540 1.424 . S
C3537 C3542 1.245 . S
C3537 C3543 1.428 . S
C3538 C3541 1.260 . S
C3538 C3542 1.477 . S
C3538 H3556 0.932 . S
C3539 C3540 1.384 . S
C3539 C3541 1.479 . S
C3539 H3557 0.929 . S
C3540 C3537 1.424 . S
C3540 C3539 1.384 . S
C3540 H3558 0.928 . S
C3541 C3538 1.260 . S
C3541 C3539 1.479 . S
C3542 C3537 1.245 . S
C3542 C3538 1.477 . S
C3542 H3559 0.932 . S
C3543 U3526 2.882 . S
C3543 C3537 1.428 . S
C3543 O3546 1.301 . S
C3543 O3547 1.282 . S
O3544 U3526 2.441 . S
O3544 C3530 1.249 . S
O3545 U3526 2.420 . S
O3545 C3530 1.202 . S
O3546 U3526 2.455 . S
O3546 C3543 1.301 . S
O3547 U3526 2.449 . S
O3547 C3543 1.282 . S
H3548 C3521 0.931 . S
H3549 C3523 0.929 . S
H3550 C3524 0.930 . S
H3551 C3525 0.931 . S
H3552 C3532 0.932 . S
H3553 C3533 0.930 . S
H3554 C3534 0.929 . S
H3555 C3536 0.930 . S
H3556 C3538 0.932 . S
H3557 C3539 0.929 . S
H3558 C3540 0.928 . S
H3559 C3542 0.932 . S
C3560 C3561 1.264 . S
C3560 C3565 1.479 . S
C3560 C3570 1.465 . S
C3561 C3560 1.264 . S
C3561 C3563 1.339 . S
C3561 H3588 0.931 . S
C3562 C3563 1.395 . S
C3562 C3564 1.320 . S
C3563 C3561 1.339 . S
C3563 C3562 1.395 . S
C3563 H3589 0.929 . S
C3564 C3562 1.320 . S
C3564 C3565 1.405 . S
C3564 H3590 0.930 . S
C3565 C3560 1.479 . S
C3565 C3564 1.405 . S
C3565 H3591 0.931 . S
U3566 O3567 2.454 . S
U3566 O3568 2.458 . S
U3566 C3569 2.984 . S
U3566 C3570 2.847 . S
U3566 C3583 2.882 . S
U3566 O3584 2.441 . S
U3566 O3585 2.420 . S
U3566 O3586 2.455 . S
U3566 O3587 2.449 . S
O3567 U3566 2.454 . S
O3567 C3569 1.353 . S
O3568 U3566 2.458 . S
O3568 C3569 1.286 . S
C3569 U3566 2.984 . S
C3569 O3567 1.353 . S
C3569 O3568 1.286 . S
C3569 C3571 1.363 . S
C3570 C3560 1.465 . S
C3570 U3566 2.847 . S
C3570 O3584 1.249 . S
C3570 O3585 1.202 . S
C3571 C3569 1.363 . S
C3571 C3573 1.408 . S
C3571 C3576 1.342 . S
C3572 C3573 1.310 . S
C3572 C3575 1.461 . S
C3572 H3592 0.932 . S
C3573 C3571 1.408 . S
C3573 C3572 1.310 . S
C3573 H3593 0.930 . S
C3574 C3575 1.474 . S
C3574 C3576 1.285 . S
C3574 H3594 0.929 . S
C3575 C3572 1.461 . S
C3575 C3574 1.474 . S
C3576 C3571 1.342 . S
C3576 C3574 1.285 . S
C3576 H3595 0.930 . S
C3577 C3580 1.424 . S
C3577 C3582 1.245 . S
C3577 C3583 1.428 . S
C3578 C3581 1.260 . S
C3578 C3582 1.477 . S
C3578 H3596 0.932 . S
C3579 C3580 1.384 . S
C3579 C3581 1.479 . S
C3579 H3597 0.929 . S
C3580 C3577 1.424 . S
C3580 C3579 1.384 . S
C3580 H3598 0.928 . S
C3581 C3578 1.260 . S
C3581 C3579 1.479 . S
C3582 C3577 1.245 . S
C3582 C3578 1.477 . S
C3582 H3599 0.932 . S
C3583 U3566 2.882 . S
C3583 C3577 1.428 . S
C3583 O3586 1.301 . S
C3583 O3587 1.282 . S
O3584 U3566 2.441 . S
O3584 C3570 1.249 . S
O3585 U3566 2.420 . S
O3585 C3570 1.202 . S
O3586 U3566 2.455 . S
O3586 C3583 1.301 . S
O3587 U3566 2.449 . S
O3587 C3583 1.282 . S
H3588 C3561 0.931 . S
H3589 C3563 0.929 . S
H3590 C3564 0.930 . S
H3591 C3565 0.931 . S
H3592 C3572 0.932 . S
H3593 C3573 0.930 . S
H3594 C3574 0.929 . S
H3595 C3576 0.930 . S
H3596 C3578 0.932 . S
H3597 C3579 0.929 . S
H3598 C3580 0.928 . S
H3599 C3582 0.932 . S
C3600 C3601 1.264 . S
C3600 C3605 1.479 . S
C3600 C3610 1.465 . S
C3601 C3600 1.264 . S
C3601 C3603 1.339 . S
C3601 H3628 0.931 . S
C3602 C3603 1.395 . S
C3602 C3604 1.320 . S
C3603 C3601 1.339 . S
C3603 C3602 1.395 . S
C3603 H3629 0.929 . S
C3604 C3602 1.320 . S
C3604 C3605 1.405 . S
C3604 H3630 0.930 . S
C3605 C3600 1.479 . S
C3605 C3604 1.405 . S
C3605 H3631 0.931 . S
U3606 O3607 2.454 . S
U3606 O3608 2.458 . S
U3606 C3609 2.984 . S
U3606 C3610 2.847 . S
U3606 C3623 2.882 . S
U3606 O3624 2.441 . S
U3606 O3625 2.420 . S
U3606 O3626 2.455 . S
U3606 O3627 2.449 . S
O3607 U3606 2.454 . S
O3607 C3609 1.353 . S
O3608 U3606 2.458 . S
O3608 C3609 1.286 . S
C3609 U3606 2.984 . S
C3609 O3607 1.353 . S
C3609 O3608 1.286 . S
C3609 C3611 1.363 . S
C3610 C3600 1.465 . S
C3610 U3606 2.847 . S
C3610 O3624 1.249 . S
C3610 O3625 1.202 . S
C3611 C3609 1.363 . S
C3611 C3613 1.408 . S
C3611 C3616 1.342 . S
C3612 C3613 1.310 . S
C3612 C3615 1.461 . S
C3612 H3632 0.932 . S
C3613 C3611 1.408 . S
C3613 C3612 1.310 . S
C3613 H3633 0.930 . S
C3614 C3615 1.474 . S
C3614 C3616 1.285 . S
C3614 H3634 0.929 . S
C3615 C3612 1.461 . S
C3615 C3614 1.474 . S
C3616 C3611 1.342 . S
C3616 C3614 1.285 . S
C3616 H3635 0.930 . S
C3617 C3620 1.424 . S
C3617 C3622 1.245 . S
C3617 C3623 1.428 . S
C3618 C3621 1.260 . S
C3618 C3622 1.477 . S
C3618 H3636 0.932 . S
C3619 C3620 1.384 . S
C3619 C3621 1.479 . S
C3619 H3637 0.929 . S
C3620 C3617 1.424 . S
C3620 C3619 1.384 . S
C3620 H3638 0.928 . S
C3621 C3618 1.260 . S
C3621 C3619 1.479 . S
C3622 C3617 1.245 . S
C3622 C3618 1.477 . S
C3622 H3639 0.932 . S
C3623 U3606 2.882 . S
C3623 C3617 1.428 . S
C3623 O3626 1.301 . S
C3623 O3627 1.282 . S
O3624 U3606 2.441 . S
O3624 C3610 1.249 . S
O3625 U3606 2.420 . S
O3625 C3610 1.202 . S
O3626 U3606 2.455 . S
O3626 C3623 1.301 . S
O3627 U3606 2.449 . S
O3627 C3623 1.282 . S
H3628 C3601 0.931 . S
H3629 C3603 0.929 . S
H3630 C3604 0.930 . S
H3631 C3605 0.931 . S
H3632 C3612 0.932 . S
H3633 C3613 0.930 . S
H3634 C3614 0.929 . S
H3635 C3616 0.930 . S
H3636 C3618 0.932 . S
H3637 C3619 0.929 . S
H3638 C3620 0.928 . S
H3639 C3622 0.932 . S
C3640 C3641 1.264 . S
C3640 C3645 1.479 . S
C3640 C3650 1.465 . S
C3641 C3640 1.264 . S
C3641 C3643 1.339 . S
C3641 H3668 0.931 . S
C3642 C3643 1.395 . S
C3642 C3644 1.320 . S
C3643 C3641 1.339 . S
C3643 C3642 1.395 . S
C3643 H3669 0.929 . S
C3644 C3642 1.320 . S
C3644 C3645 1.405 . S
C3644 H3670 0.930 . S
C3645 C3640 1.479 . S
C3645 C3644 1.405 . S
C3645 H3671 0.931 . S
U3646 O3647 2.454 . S
U3646 O3648 2.458 . S
U3646 C3649 2.984 . S
U3646 C3650 2.847 . S
U3646 C3663 2.882 . S
U3646 O3664 2.441 . S
U3646 O3665 2.420 . S
U3646 O3666 2.455 . S
U3646 O3667 2.449 . S
O3647 U3646 2.454 . S
O3647 C3649 1.353 . S
O3648 U3646 2.458 . S
O3648 C3649 1.286 . S
C3649 U3646 2.984 . S
C3649 O3647 1.353 . S
C3649 O3648 1.286 . S
C3649 C3651 1.363 . S
C3650 C3640 1.465 . S
C3650 U3646 2.847 . S
C3650 O3664 1.249 . S
C3650 O3665 1.202 . S
C3651 C3649 1.363 . S
C3651 C3653 1.408 . S
C3651 C3656 1.342 . S
C3652 C3653 1.310 . S
C3652 C3655 1.461 . S
C3652 H3672 0.932 . S
C3653 C3651 1.408 . S
C3653 C3652 1.310 . S
C3653 H3673 0.930 . S
C3654 C3655 1.474 . S
C3654 C3656 1.285 . S
C3654 H3674 0.929 . S
C3655 C3652 1.461 . S
C3655 C3654 1.474 . S
C3656 C3651 1.342 . S
C3656 C3654 1.285 . S
C3656 H3675 0.930 . S
C3657 C3660 1.424 . S
C3657 C3662 1.245 . S
C3657 C3663 1.428 . S
C3658 C3661 1.260 . S
C3658 C3662 1.477 . S
C3658 H3676 0.932 . S
C3659 C3660 1.384 . S
C3659 C3661 1.479 . S
C3659 H3677 0.929 . S
C3660 C3657 1.424 . S
C3660 C3659 1.384 . S
C3660 H3678 0.928 . S
C3661 C3658 1.260 . S
C3661 C3659 1.479 . S
C3662 C3657 1.245 . S
C3662 C3658 1.477 . S
C3662 H3679 0.932 . S
C3663 U3646 2.882 . S
C3663 C3657 1.428 . S
C3663 O3666 1.301 . S
C3663 O3667 1.282 . S
O3664 U3646 2.441 . S
O3664 C3650 1.249 . S
O3665 U3646 2.420 . S
O3665 C3650 1.202 . S
O3666 U3646 2.455 . S
O3666 C3663 1.301 . S
O3667 U3646 2.449 . S
O3667 C3663 1.282 . S
H3668 C3641 0.931 . S
H3669 C3643 0.929 . S
H3670 C3644 0.930 . S
H3671 C3645 0.931 . S
H3672 C3652 0.932 . S
H3673 C3653 0.930 . S
H3674 C3654 0.929 . S
H3675 C3656 0.930 . S
H3676 C3658 0.932 . S
H3677 C3659 0.929 . S
H3678 C3660 0.928 . S
H3679 C3662 0.932 . S
C3680 C3681 1.264 . S
C3680 C3685 1.479 . S
C3680 C3690 1.465 . S
C3681 C3680 1.264 . S
C3681 C3683 1.339 . S
C3681 H3708 0.931 . S
C3682 C3683 1.395 . S
C3682 C3684 1.320 . S
C3683 C3681 1.339 . S
C3683 C3682 1.395 . S
C3683 H3709 0.929 . S
C3684 C3682 1.320 . S
C3684 C3685 1.405 . S
C3684 H3710 0.930 . S
C3685 C3680 1.479 . S
C3685 C3684 1.405 . S
C3685 H3711 0.931 . S
U3686 O3687 2.454 . S
U3686 O3688 2.458 . S
U3686 C3689 2.984 . S
U3686 C3690 2.847 . S
U3686 C3703 2.882 . S
U3686 O3704 2.441 . S
U3686 O3705 2.420 . S
U3686 O3706 2.455 . S
U3686 O3707 2.449 . S
O3687 U3686 2.454 . S
O3687 C3689 1.353 . S
O3688 U3686 2.458 . S
O3688 C3689 1.286 . S
C3689 U3686 2.984 . S
C3689 O3687 1.353 . S
C3689 O3688 1.286 . S
C3689 C3691 1.363 . S
C3690 C3680 1.465 . S
C3690 U3686 2.847 . S
C3690 O3704 1.249 . S
C3690 O3705 1.202 . S
C3691 C3689 1.363 . S
C3691 C3693 1.408 . S
C3691 C3696 1.342 . S
C3692 C3693 1.310 . S
C3692 C3695 1.461 . S
C3692 H3712 0.932 . S
C3693 C3691 1.408 . S
C3693 C3692 1.310 . S
C3693 H3713 0.930 . S
C3694 C3695 1.474 . S
C3694 C3696 1.285 . S
C3694 H3714 0.929 . S
C3695 C3692 1.461 . S
C3695 C3694 1.474 . S
C3696 C3691 1.342 . S
C3696 C3694 1.285 . S
C3696 H3715 0.930 . S
C3697 C3700 1.424 . S
C3697 C3702 1.245 . S
C3697 C3703 1.428 . S
C3698 C3701 1.260 . S
C3698 C3702 1.477 . S
C3698 H3716 0.932 . S
C3699 C3700 1.384 . S
C3699 C3701 1.479 . S
C3699 H3717 0.929 . S
C3700 C3697 1.424 . S
C3700 C3699 1.384 . S
C3700 H3718 0.928 . S
C3701 C3698 1.260 . S
C3701 C3699 1.479 . S
C3702 C3697 1.245 . S
C3702 C3698 1.477 . S
C3702 H3719 0.932 . S
C3703 U3686 2.882 . S
C3703 C3697 1.428 . S
C3703 O3706 1.301 . S
C3703 O3707 1.282 . S
O3704 U3686 2.441 . S
O3704 C3690 1.249 . S
O3705 U3686 2.420 . S
O3705 C3690 1.202 . S
O3706 U3686 2.455 . S
O3706 C3703 1.301 . S
O3707 U3686 2.449 . S
O3707 C3703 1.282 . S
H3708 C3681 0.931 . S
H3709 C3683 0.929 . S
H3710 C3684 0.930 . S
H3711 C3685 0.931 . S
H3712 C3692 0.932 . S
H3713 C3693 0.930 . S
H3714 C3694 0.929 . S
H3715 C3696 0.930 . S
H3716 C3698 0.932 . S
H3717 C3699 0.929 . S
H3718 C3700 0.928 . S
H3719 C3702 0.932 . S
C3720 C3721 1.264 . S
C3720 C3725 1.479 . S
C3720 C3730 1.465 . S
C3721 C3720 1.264 . S
C3721 C3723 1.339 . S
C3721 H3748 0.931 . S
C3722 C3723 1.395 . S
C3722 C3724 1.320 . S
C3723 C3721 1.339 . S
C3723 C3722 1.395 . S
C3723 H3749 0.929 . S
C3724 C3722 1.320 . S
C3724 C3725 1.405 . S
C3724 H3750 0.930 . S
C3725 C3720 1.479 . S
C3725 C3724 1.405 . S
C3725 H3751 0.931 . S
U3726 O3727 2.454 . S
U3726 O3728 2.458 . S
U3726 C3729 2.984 . S
U3726 C3730 2.847 . S
U3726 C3743 2.882 . S
U3726 O3744 2.441 . S
U3726 O3745 2.420 . S
U3726 O3746 2.455 . S
U3726 O3747 2.449 . S
O3727 U3726 2.454 . S
O3727 C3729 1.353 . S
O3728 U3726 2.458 . S
O3728 C3729 1.286 . S
C3729 U3726 2.984 . S
C3729 O3727 1.353 . S
C3729 O3728 1.286 . S
C3729 C3731 1.363 . S
C3730 C3720 1.465 . S
C3730 U3726 2.847 . S
C3730 O3744 1.249 . S
C3730 O3745 1.202 . S
C3731 C3729 1.363 . S
C3731 C3733 1.408 . S
C3731 C3736 1.342 . S
C3732 C3733 1.310 . S
C3732 C3735 1.461 . S
C3732 H3752 0.932 . S
C3733 C3731 1.408 . S
C3733 C3732 1.310 . S
C3733 H3753 0.930 . S
C3734 C3735 1.474 . S
C3734 C3736 1.285 . S
C3734 H3754 0.929 . S
C3735 C3732 1.461 . S
C3735 C3734 1.474 . S
C3736 C3731 1.342 . S
C3736 C3734 1.285 . S
C3736 H3755 0.930 . S
C3737 C3740 1.424 . S
C3737 C3742 1.245 . S
C3737 C3743 1.428 . S
C3738 C3741 1.260 . S
C3738 C3742 1.477 . S
C3738 H3756 0.932 . S
C3739 C3740 1.384 . S
C3739 C3741 1.479 . S
C3739 H3757 0.929 . S
C3740 C3737 1.424 . S
C3740 C3739 1.384 . S
C3740 H3758 0.928 . S
C3741 C3738 1.260 . S
C3741 C3739 1.479 . S
C3742 C3737 1.245 . S
C3742 C3738 1.477 . S
C3742 H3759 0.932 . S
C3743 U3726 2.882 . S
C3743 C3737 1.428 . S
C3743 O3746 1.301 . S
C3743 O3747 1.282 . S
O3744 U3726 2.441 . S
O3744 C3730 1.249 . S
O3745 U3726 2.420 . S
O3745 C3730 1.202 . S
O3746 U3726 2.455 . S
O3746 C3743 1.301 . S
O3747 U3726 2.449 . S
O3747 C3743 1.282 . S
H3748 C3721 0.931 . S
H3749 C3723 0.929 . S
H3750 C3724 0.930 . S
H3751 C3725 0.931 . S
H3752 C3732 0.932 . S
H3753 C3733 0.930 . S
H3754 C3734 0.929 . S
H3755 C3736 0.930 . S
H3756 C3738 0.932 . S
H3757 C3739 0.929 . S
H3758 C3740 0.928 . S
H3759 C3742 0.932 . S
C3760 C3761 1.264 . S
C3760 C3765 1.479 . S
C3760 C3770 1.465 . S
C3761 C3760 1.264 . S
C3761 C3763 1.339 . S
C3761 H3788 0.931 . S
C3762 C3763 1.395 . S
C3762 C3764 1.320 . S
C3763 C3761 1.339 . S
C3763 C3762 1.395 . S
C3763 H3789 0.929 . S
C3764 C3762 1.320 . S
C3764 C3765 1.405 . S
C3764 H3790 0.930 . S
C3765 C3760 1.479 . S
C3765 C3764 1.405 . S
C3765 H3791 0.931 . S
U3766 O3767 2.454 . S
U3766 O3768 2.458 . S
U3766 C3769 2.984 . S
U3766 C3770 2.847 . S
U3766 C3783 2.882 . S
U3766 O3784 2.441 . S
U3766 O3785 2.420 . S
U3766 O3786 2.455 . S
U3766 O3787 2.449 . S
O3767 U3766 2.454 . S
O3767 C3769 1.353 . S
O3768 U3766 2.458 . S
O3768 C3769 1.286 . S
C3769 U3766 2.984 . S
C3769 O3767 1.353 . S
C3769 O3768 1.286 . S
C3769 C3771 1.363 . S
C3770 C3760 1.465 . S
C3770 U3766 2.847 . S
C3770 O3784 1.249 . S
C3770 O3785 1.202 . S
C3771 C3769 1.363 . S
C3771 C3773 1.408 . S
C3771 C3776 1.342 . S
C3772 C3773 1.310 . S
C3772 C3775 1.461 . S
C3772 H3792 0.932 . S
C3773 C3771 1.408 . S
C3773 C3772 1.310 . S
C3773 H3793 0.930 . S
C3774 C3775 1.474 . S
C3774 C3776 1.285 . S
C3774 H3794 0.929 . S
C3775 C3772 1.461 . S
C3775 C3774 1.474 . S
C3776 C3771 1.342 . S
C3776 C3774 1.285 . S
C3776 H3795 0.930 . S
C3777 C3780 1.424 . S
C3777 C3782 1.245 . S
C3777 C3783 1.428 . S
C3778 C3781 1.260 . S
C3778 C3782 1.477 . S
C3778 H3796 0.932 . S
C3779 C3780 1.384 . S
C3779 C3781 1.479 . S
C3779 H3797 0.929 . S
C3780 C3777 1.424 . S
C3780 C3779 1.384 . S
C3780 H3798 0.928 . S
C3781 C3778 1.260 . S
C3781 C3779 1.479 . S
C3782 C3777 1.245 . S
C3782 C3778 1.477 . S
C3782 H3799 0.932 . S
C3783 U3766 2.882 . S
C3783 C3777 1.428 . S
C3783 O3786 1.301 . S
C3783 O3787 1.282 . S
O3784 U3766 2.441 . S
O3784 C3770 1.249 . S
O3785 U3766 2.420 . S
O3785 C3770 1.202 . S
O3786 U3766 2.455 . S
O3786 C3783 1.301 . S
O3787 U3766 2.449 . S
O3787 C3783 1.282 . S
H3788 C3761 0.931 . S
H3789 C3763 0.929 . S
H3790 C3764 0.930 . S
H3791 C3765 0.931 . S
H3792 C3772 0.932 . S
H3793 C3773 0.930 . S
H3794 C3774 0.929 . S
H3795 C3776 0.930 . S
H3796 C3778 0.932 . S
H3797 C3779 0.929 . S
H3798 C3780 0.928 . S
H3799 C3782 0.932 . S
C3800 C3801 1.264 . S
C3800 C3805 1.479 . S
C3800 C3810 1.465 . S
C3801 C3800 1.264 . S
C3801 C3803 1.339 . S
C3801 H3828 0.931 . S
C3802 C3803 1.395 . S
C3802 C3804 1.320 . S
C3803 C3801 1.339 . S
C3803 C3802 1.395 . S
C3803 H3829 0.929 . S
C3804 C3802 1.320 . S
C3804 C3805 1.405 . S
C3804 H3830 0.930 . S
C3805 C3800 1.479 . S
C3805 C3804 1.405 . S
C3805 H3831 0.931 . S
U3806 O3807 2.454 . S
U3806 O3808 2.458 . S
U3806 C3809 2.984 . S
U3806 C3810 2.847 . S
U3806 C3823 2.882 . S
U3806 O3824 2.441 . S
U3806 O3825 2.420 . S
U3806 O3826 2.455 . S
U3806 O3827 2.449 . S
O3807 U3806 2.454 . S
O3807 C3809 1.353 . S
O3808 U3806 2.458 . S
O3808 C3809 1.286 . S
C3809 U3806 2.984 . S
C3809 O3807 1.353 . S
C3809 O3808 1.286 . S
C3809 C3811 1.363 . S
C3810 C3800 1.465 . S
C3810 U3806 2.847 . S
C3810 O3824 1.249 . S
C3810 O3825 1.202 . S
C3811 C3809 1.363 . S
C3811 C3813 1.408 . S
C3811 C3816 1.342 . S
C3812 C3813 1.310 . S
C3812 C3815 1.461 . S
C3812 H3832 0.932 . S
C3813 C3811 1.408 . S
C3813 C3812 1.310 . S
C3813 H3833 0.930 . S
C3814 C3815 1.474 . S
C3814 C3816 1.285 . S
C3814 H3834 0.929 . S
C3815 C3812 1.461 . S
C3815 C3814 1.474 . S
C3816 C3811 1.342 . S
C3816 C3814 1.285 . S
C3816 H3835 0.930 . S
C3817 C3820 1.424 . S
C3817 C3822 1.245 . S
C3817 C3823 1.428 . S
C3818 C3821 1.260 . S
C3818 C3822 1.477 . S
C3818 H3836 0.932 . S
C3819 C3820 1.384 . S
C3819 C3821 1.479 . S
C3819 H3837 0.929 . S
C3820 C3817 1.424 . S
C3820 C3819 1.384 . S
C3820 H3838 0.928 . S
C3821 C3818 1.260 . S
C3821 C3819 1.479 . S
C3822 C3817 1.245 . S
C3822 C3818 1.477 . S
C3822 H3839 0.932 . S
C3823 U3806 2.882 . S
C3823 C3817 1.428 . S
C3823 O3826 1.301 . S
C3823 O3827 1.282 . S
O3824 U3806 2.441 . S
O3824 C3810 1.249 . S
O3825 U3806 2.420 . S
O3825 C3810 1.202 . S
O3826 U3806 2.455 . S
O3826 C3823 1.301 . S
O3827 U3806 2.449 . S
O3827 C3823 1.282 . S
H3828 C3801 0.931 . S
H3829 C3803 0.929 . S
H3830 C3804 0.930 . S
H3831 C3805 0.931 . S
H3832 C3812 0.932 . S
H3833 C3813 0.930 . S
H3834 C3814 0.929 . S
H3835 C3816 0.930 . S
H3836 C3818 0.932 . S
H3837 C3819 0.929 . S
H3838 C3820 0.928 . S
H3839 C3822 0.932 . S
C3840 N3841 1.317 . S
C3840 N3842 1.348 . S
C3840 C3843 1.485 . S
N3841 C3840 1.317 . S
N3841 N3845 1.370 . S
N3842 C3840 1.348 . S
N3842 C3844 1.346 . S
C3843 C3840 1.485 . S
C3843 H3847 0.960 . S
C3843 H3848 0.961 . S
C3843 H3849 0.960 . S
C3844 N3842 1.346 . S
C3844 N3845 1.307 . S
C3844 C3846 1.486 . S
N3845 N3841 1.370 . S
N3845 C3844 1.307 . S
C3846 C3844 1.486 . S
C3846 H3850 0.960 . S
C3846 H3851 0.960 . S
C3846 H3852 0.959 . S
H3847 C3843 0.960 . S
H3848 C3843 0.961 . S
H3849 C3843 0.960 . S
H3850 C3846 0.960 . S
H3851 C3846 0.960 . S
H3852 C3846 0.959 . S
C3853 N3854 1.317 . S
C3853 N3855 1.348 . S
C3853 C3856 1.485 . S
N3854 C3853 1.317 . S
N3854 N3858 1.370 . S
N3855 C3853 1.348 . S
N3855 C3857 1.346 . S
C3856 C3853 1.485 . S
C3856 H3860 0.960 . S
C3856 H3861 0.961 . S
C3856 H3862 0.960 . S
C3857 N3855 1.346 . S
C3857 N3858 1.307 . S
C3857 C3859 1.486 . S
N3858 N3854 1.370 . S
N3858 C3857 1.307 . S
C3859 C3857 1.486 . S
C3859 H3863 0.960 . S
C3859 H3864 0.960 . S
C3859 H3865 0.959 . S
H3860 C3856 0.960 . S
H3861 C3856 0.961 . S
H3862 C3856 0.960 . S
H3863 C3859 0.960 . S
H3864 C3859 0.960 . S
H3865 C3859 0.959 . S
C3866 N3867 1.317 . S
C3866 N3868 1.348 . S
C3866 C3869 1.485 . S
N3867 C3866 1.317 . S
N3867 N3871 1.370 . S
N3868 C3866 1.348 . S
N3868 C3870 1.346 . S
C3869 C3866 1.485 . S
C3869 H3873 0.960 . S
C3869 H3874 0.961 . S
C3869 H3875 0.960 . S
C3870 N3868 1.346 . S
C3870 N3871 1.307 . S
C3870 C3872 1.486 . S
N3871 N3867 1.370 . S
N3871 C3870 1.307 . S
C3872 C3870 1.486 . S
C3872 H3876 0.960 . S
C3872 H3877 0.960 . S
C3872 H3878 0.959 . S
H3873 C3869 0.960 . S
H3874 C3869 0.961 . S
H3875 C3869 0.960 . S
H3876 C3872 0.960 . S
H3877 C3872 0.960 . S
H3878 C3872 0.959 . S
C3879 N3880 1.317 . S
C3879 N3881 1.348 . S
C3879 C3882 1.485 . S
N3880 C3879 1.317 . S
N3880 N3884 1.370 . S
N3881 C3879 1.348 . S
N3881 C3883 1.346 . S
C3882 C3879 1.485 . S
C3882 H3886 0.960 . S
C3882 H3887 0.961 . S
C3882 H3888 0.960 . S
C3883 N3881 1.346 . S
C3883 N3884 1.307 . S
C3883 C3885 1.486 . S
N3884 N3880 1.370 . S
N3884 C3883 1.307 . S
C3885 C3883 1.486 . S
C3885 H3889 0.960 . S
C3885 H3890 0.960 . S
C3885 H3891 0.959 . S
H3886 C3882 0.960 . S
H3887 C3882 0.961 . S
H3888 C3882 0.960 . S
H3889 C3885 0.960 . S
H3890 C3885 0.960 . S
H3891 C3885 0.959 . S
C3892 N3893 1.317 . S
C3892 N3894 1.348 . S
C3892 C3895 1.485 . S
N3893 C3892 1.317 . S
N3893 N3897 1.370 . S
N3894 C3892 1.348 . S
N3894 C3896 1.346 . S
C3895 C3892 1.485 . S
C3895 H3899 0.960 . S
C3895 H3900 0.961 . S
C3895 H3901 0.960 . S
C3896 N3894 1.346 . S
C3896 N3897 1.307 . S
C3896 C3898 1.486 . S
N3897 N3893 1.370 . S
N3897 C3896 1.307 . S
C3898 C3896 1.486 . S
C3898 H3902 0.960 . S
C3898 H3903 0.960 . S
C3898 H3904 0.959 . S
H3899 C3895 0.960 . S
H3900 C3895 0.961 . S
H3901 C3895 0.960 . S
H3902 C3898 0.960 . S
H3903 C3898 0.960 . S
H3904 C3898 0.959 . S
C3905 N3906 1.317 . S
C3905 N3907 1.348 . S
C3905 C3908 1.485 . S
N3906 C3905 1.317 . S
N3906 N3910 1.370 . S
N3907 C3905 1.348 . S
N3907 C3909 1.346 . S
C3908 C3905 1.485 . S
C3908 H3912 0.960 . S
C3908 H3913 0.961 . S
C3908 H3914 0.960 . S
C3909 N3907 1.346 . S
C3909 N3910 1.307 . S
C3909 C3911 1.486 . S
N3910 N3906 1.370 . S
N3910 C3909 1.307 . S
C3911 C3909 1.486 . S
C3911 H3915 0.960 . S
C3911 H3916 0.960 . S
C3911 H3917 0.959 . S
H3912 C3908 0.960 . S
H3913 C3908 0.961 . S
H3914 C3908 0.960 . S
H3915 C3911 0.960 . S
H3916 C3911 0.960 . S
H3917 C3911 0.959 . S
C3918 N3919 1.317 . S
C3918 N3920 1.348 . S
C3918 C3921 1.485 . S
N3919 C3918 1.317 . S
N3919 N3923 1.370 . S
N3920 C3918 1.348 . S
N3920 C3922 1.346 . S
C3921 C3918 1.485 . S
C3921 H3925 0.960 . S
C3921 H3926 0.961 . S
C3921 H3927 0.960 . S
C3922 N3920 1.346 . S
C3922 N3923 1.307 . S
C3922 C3924 1.486 . S
N3923 N3919 1.370 . S
N3923 C3922 1.307 . S
C3924 C3922 1.486 . S
C3924 H3928 0.960 . S
C3924 H3929 0.960 . S
C3924 H3930 0.959 . S
H3925 C3921 0.960 . S
H3926 C3921 0.961 . S
H3927 C3921 0.960 . S
H3928 C3924 0.960 . S
H3929 C3924 0.960 . S
H3930 C3924 0.959 . S
C3931 N3932 1.317 . S
C3931 N3933 1.348 . S
C3931 C3934 1.485 . S
N3932 C3931 1.317 . S
N3932 N3936 1.370 . S
N3933 C3931 1.348 . S
N3933 C3935 1.346 . S
C3934 C3931 1.485 . S
C3934 H3938 0.960 . S
C3934 H3939 0.961 . S
C3934 H3940 0.960 . S
C3935 N3933 1.346 . S
C3935 N3936 1.307 . S
C3935 C3937 1.486 . S
N3936 N3932 1.370 . S
N3936 C3935 1.307 . S
C3937 C3935 1.486 . S
C3937 H3941 0.960 . S
C3937 H3942 0.960 . S
C3937 H3943 0.959 . S
H3938 C3934 0.960 . S
H3939 C3934 0.961 . S
H3940 C3934 0.960 . S
H3941 C3937 0.960 . S
H3942 C3937 0.960 . S
H3943 C3937 0.959 . S
C3944 N3945 1.317 . S
C3944 N3946 1.348 . S
C3944 C3947 1.485 . S
N3945 C3944 1.317 . S
N3945 N3949 1.370 . S
N3946 C3944 1.348 . S
N3946 C3948 1.346 . S
C3947 C3944 1.485 . S
C3947 H3951 0.960 . S
C3947 H3952 0.961 . S
C3947 H3953 0.960 . S
C3948 N3946 1.346 . S
C3948 N3949 1.307 . S
C3948 C3950 1.486 . S
N3949 N3945 1.370 . S
N3949 C3948 1.307 . S
C3950 C3948 1.486 . S
C3950 H3954 0.960 . S
C3950 H3955 0.960 . S
C3950 H3956 0.959 . S
H3951 C3947 0.960 . S
H3952 C3947 0.961 . S
H3953 C3947 0.960 . S
H3954 C3950 0.960 . S
H3955 C3950 0.960 . S
H3956 C3950 0.959 . S
C3957 N3958 1.317 . S
C3957 N3959 1.348 . S
C3957 C3960 1.485 . S
N3958 C3957 1.317 . S
N3958 N3962 1.370 . S
N3959 C3957 1.348 . S
N3959 C3961 1.346 . S
C3960 C3957 1.485 . S
C3960 H3964 0.960 . S
C3960 H3965 0.961 . S
C3960 H3966 0.960 . S
C3961 N3959 1.346 . S
C3961 N3962 1.307 . S
C3961 C3963 1.486 . S
N3962 N3958 1.370 . S
N3962 C3961 1.307 . S
C3963 C3961 1.486 . S
C3963 H3967 0.960 . S
C3963 H3968 0.960 . S
C3963 H3969 0.959 . S
H3964 C3960 0.960 . S
H3965 C3960 0.961 . S
H3966 C3960 0.960 . S
H3967 C3963 0.960 . S
H3968 C3963 0.960 . S
H3969 C3963 0.959 . S
C3970 N3971 1.317 . S
C3970 N3972 1.348 . S
C3970 C3973 1.485 . S
N3971 C3970 1.317 . S
N3971 N3975 1.370 . S
N3972 C3970 1.348 . S
N3972 C3974 1.346 . S
C3973 C3970 1.485 . S
C3973 H3977 0.960 . S
C3973 H3978 0.961 . S
C3973 H3979 0.960 . S
C3974 N3972 1.346 . S
C3974 N3975 1.307 . S
C3974 C3976 1.486 . S
N3975 N3971 1.370 . S
N3975 C3974 1.307 . S
C3976 C3974 1.486 . S
C3976 H3980 0.960 . S
C3976 H3981 0.960 . S
C3976 H3982 0.959 . S
H3977 C3973 0.960 . S
H3978 C3973 0.961 . S
H3979 C3973 0.960 . S
H3980 C3976 0.960 . S
H3981 C3976 0.960 . S
H3982 C3976 0.959 . S
C3983 N3984 1.317 . S
C3983 N3985 1.348 . S
C3983 C3986 1.485 . S
N3984 C3983 1.317 . S
N3984 N3988 1.370 . S
N3985 C3983 1.348 . S
N3985 C3987 1.346 . S
C3986 C3983 1.485 . S
C3986 H3990 0.960 . S
C3986 H3991 0.961 . S
C3986 H3992 0.960 . S
C3987 N3985 1.346 . S
C3987 N3988 1.307 . S
C3987 C3989 1.486 . S
N3988 N3984 1.370 . S
N3988 C3987 1.307 . S
C3989 C3987 1.486 . S
C3989 H3993 0.960 . S
C3989 H3994 0.960 . S
C3989 H3995 0.959 . S
H3990 C3986 0.960 . S
H3991 C3986 0.961 . S
H3992 C3986 0.960 . S
H3993 C3989 0.960 . S
H3994 C3989 0.960 . S
H3995 C3989 0.959 . S
C3996 N3997 1.317 . S
C3996 N3998 1.348 . S
C3996 C3999 1.485 . S
N3997 C3996 1.317 . S
N3997 N4001 1.370 . S
N3998 C3996 1.348 . S
N3998 C4000 1.346 . S
C3999 C3996 1.485 . S
C3999 H4003 0.960 . S
C3999 H4004 0.961 . S
C3999 H4005 0.960 . S
C4000 N3998 1.346 . S
C4000 N4001 1.307 . S
C4000 C4002 1.486 . S
N4001 N3997 1.370 . S
N4001 C4000 1.307 . S
C4002 C4000 1.486 . S
C4002 H4006 0.960 . S
C4002 H4007 0.960 . S
C4002 H4008 0.959 . S
H4003 C3999 0.960 . S
H4004 C3999 0.961 . S
H4005 C3999 0.960 . S
H4006 C4002 0.960 . S
H4007 C4002 0.960 . S
H4008 C4002 0.959 . S
C4009 N4010 1.317 . S
C4009 N4011 1.348 . S
C4009 C4012 1.485 . S
N4010 C4009 1.317 . S
N4010 N4014 1.370 . S
N4011 C4009 1.348 . S
N4011 C4013 1.346 . S
C4012 C4009 1.485 . S
C4012 H4016 0.960 . S
C4012 H4017 0.961 . S
C4012 H4018 0.960 . S
C4013 N4011 1.346 . S
C4013 N4014 1.307 . S
C4013 C4015 1.486 . S
N4014 N4010 1.370 . S
N4014 C4013 1.307 . S
C4015 C4013 1.486 . S
C4015 H4019 0.960 . S
C4015 H4020 0.960 . S
C4015 H4021 0.959 . S
H4016 C4012 0.960 . S
H4017 C4012 0.961 . S
H4018 C4012 0.960 . S
H4019 C4015 0.960 . S
H4020 C4015 0.960 . S
H4021 C4015 0.959 . S
C4022 N4023 1.317 . S
C4022 N4024 1.348 . S
C4022 C4025 1.485 . S
N4023 C4022 1.317 . S
N4023 N4027 1.370 . S
N4024 C4022 1.348 . S
N4024 C4026 1.346 . S
C4025 C4022 1.485 . S
C4025 H4029 0.960 . S
C4025 H4030 0.961 . S
C4025 H4031 0.960 . S
C4026 N4024 1.346 . S
C4026 N4027 1.307 . S
C4026 C4028 1.486 . S
N4027 N4023 1.370 . S
N4027 C4026 1.307 . S
C4028 C4026 1.486 . S
C4028 H4032 0.960 . S
C4028 H4033 0.960 . S
C4028 H4034 0.959 . S
H4029 C4025 0.960 . S
H4030 C4025 0.961 . S
H4031 C4025 0.960 . S
H4032 C4028 0.960 . S
H4033 C4028 0.960 . S
H4034 C4028 0.959 . S
C4035 N4036 1.317 . S
C4035 N4037 1.348 . S
C4035 C4038 1.485 . S
N4036 C4035 1.317 . S
N4036 N4040 1.370 . S
N4037 C4035 1.348 . S
N4037 C4039 1.346 . S
C4038 C4035 1.485 . S
C4038 H4042 0.960 . S
C4038 H4043 0.961 . S
C4038 H4044 0.960 . S
C4039 N4037 1.346 . S
C4039 N4040 1.307 . S
C4039 C4041 1.486 . S
N4040 N4036 1.370 . S
N4040 C4039 1.307 . S
C4041 C4039 1.486 . S
C4041 H4045 0.960 . S
C4041 H4046 0.960 . S
C4041 H4047 0.959 . S
H4042 C4038 0.960 . S
H4043 C4038 0.961 . S
H4044 C4038 0.960 . S
H4045 C4041 0.960 . S
H4046 C4041 0.960 . S
H4047 C4041 0.959 . S
C4048 N4049 1.317 . S
C4048 N4050 1.348 . S
C4048 C4051 1.485 . S
N4049 C4048 1.317 . S
N4049 N4053 1.370 . S
N4050 C4048 1.348 . S
N4050 C4052 1.346 . S
C4051 C4048 1.485 . S
C4051 H4055 0.960 . S
C4051 H4056 0.961 . S
C4051 H4057 0.960 . S
C4052 N4050 1.346 . S
C4052 N4053 1.307 . S
C4052 C4054 1.486 . S
N4053 N4049 1.370 . S
N4053 C4052 1.307 . S
C4054 C4052 1.486 . S
C4054 H4058 0.960 . S
C4054 H4059 0.960 . S
C4054 H4060 0.959 . S
H4055 C4051 0.960 . S
H4056 C4051 0.961 . S
H4057 C4051 0.960 . S
H4058 C4054 0.960 . S
H4059 C4054 0.960 . S
H4060 C4054 0.959 . S
C4061 N4062 1.317 . S
C4061 N4063 1.348 . S
C4061 C4064 1.485 . S
N4062 C4061 1.317 . S
N4062 N4066 1.370 . S
N4063 C4061 1.348 . S
N4063 C4065 1.346 . S
C4064 C4061 1.485 . S
C4064 H4068 0.960 . S
C4064 H4069 0.961 . S
C4064 H4070 0.960 . S
C4065 N4063 1.346 . S
C4065 N4066 1.307 . S
C4065 C4067 1.486 . S
N4066 N4062 1.370 . S
N4066 C4065 1.307 . S
C4067 C4065 1.486 . S
C4067 H4071 0.960 . S
C4067 H4072 0.960 . S
C4067 H4073 0.959 . S
H4068 C4064 0.960 . S
H4069 C4064 0.961 . S
H4070 C4064 0.960 . S
H4071 C4067 0.960 . S
H4072 C4067 0.960 . S
H4073 C4067 0.959 . S
C4074 N4075 1.317 . S
C4074 N4076 1.348 . S
C4074 C4077 1.485 . S
N4075 C4074 1.317 . S
N4075 N4079 1.370 . S
N4076 C4074 1.348 . S
N4076 C4078 1.346 . S
C4077 C4074 1.485 . S
C4077 H4081 0.960 . S
C4077 H4082 0.961 . S
C4077 H4083 0.960 . S
C4078 N4076 1.346 . S
C4078 N4079 1.307 . S
C4078 C4080 1.486 . S
N4079 N4075 1.370 . S
N4079 C4078 1.307 . S
C4080 C4078 1.486 . S
C4080 H4084 0.960 . S
C4080 H4085 0.960 . S
C4080 H4086 0.959 . S
H4081 C4077 0.960 . S
H4082 C4077 0.961 . S
H4083 C4077 0.960 . S
H4084 C4080 0.960 . S
H4085 C4080 0.960 . S
H4086 C4080 0.959 . S
C4087 N4088 1.317 . S
C4087 N4089 1.348 . S
C4087 C4090 1.485 . S
N4088 C4087 1.317 . S
N4088 N4092 1.370 . S
N4089 C4087 1.348 . S
N4089 C4091 1.346 . S
C4090 C4087 1.485 . S
C4090 H4094 0.960 . S
C4090 H4095 0.961 . S
C4090 H4096 0.960 . S
C4091 N4089 1.346 . S
C4091 N4092 1.307 . S
C4091 C4093 1.486 . S
N4092 N4088 1.370 . S
N4092 C4091 1.307 . S
C4093 C4091 1.486 . S
C4093 H4097 0.960 . S
C4093 H4098 0.960 . S
C4093 H4099 0.959 . S
H4094 C4090 0.960 . S
H4095 C4090 0.961 . S
H4096 C4090 0.960 . S
H4097 C4093 0.960 . S
H4098 C4093 0.960 . S
H4099 C4093 0.959 . S
C4100 N4101 1.317 . S
C4100 N4102 1.348 . S
C4100 C4103 1.485 . S
N4101 C4100 1.317 . S
N4101 N4105 1.370 . S
N4102 C4100 1.348 . S
N4102 C4104 1.346 . S
C4103 C4100 1.485 . S
C4103 H4107 0.960 . S
C4103 H4108 0.961 . S
C4103 H4109 0.960 . S
C4104 N4102 1.346 . S
C4104 N4105 1.307 . S
C4104 C4106 1.486 . S
N4105 N4101 1.370 . S
N4105 C4104 1.307 . S
C4106 C4104 1.486 . S
C4106 H4110 0.960 . S
C4106 H4111 0.960 . S
C4106 H4112 0.959 . S
H4107 C4103 0.960 . S
H4108 C4103 0.961 . S
H4109 C4103 0.960 . S
H4110 C4106 0.960 . S
H4111 C4106 0.960 . S
H4112 C4106 0.959 . S
C4113 N4114 1.317 . S
C4113 N4115 1.348 . S
C4113 C4116 1.485 . S
N4114 C4113 1.317 . S
N4114 N4118 1.370 . S
N4115 C4113 1.348 . S
N4115 C4117 1.346 . S
C4116 C4113 1.485 . S
C4116 H4120 0.960 . S
C4116 H4121 0.961 . S
C4116 H4122 0.960 . S
C4117 N4115 1.346 . S
C4117 N4118 1.307 . S
C4117 C4119 1.486 . S
N4118 N4114 1.370 . S
N4118 C4117 1.307 . S
C4119 C4117 1.486 . S
C4119 H4123 0.960 . S
C4119 H4124 0.960 . S
C4119 H4125 0.959 . S
H4120 C4116 0.960 . S
H4121 C4116 0.961 . S
H4122 C4116 0.960 . S
H4123 C4119 0.960 . S
H4124 C4119 0.960 . S
H4125 C4119 0.959 . S
C4126 N4127 1.317 . S
C4126 N4128 1.348 . S
C4126 C4129 1.485 . S
N4127 C4126 1.317 . S
N4127 N4131 1.370 . S
N4128 C4126 1.348 . S
N4128 C4130 1.346 . S
C4129 C4126 1.485 . S
C4129 H4133 0.960 . S
C4129 H4134 0.961 . S
C4129 H4135 0.960 . S
C4130 N4128 1.346 . S
C4130 N4131 1.307 . S
C4130 C4132 1.486 . S
N4131 N4127 1.370 . S
N4131 C4130 1.307 . S
C4132 C4130 1.486 . S
C4132 H4136 0.960 . S
C4132 H4137 0.960 . S
C4132 H4138 0.959 . S
H4133 C4129 0.960 . S
H4134 C4129 0.961 . S
H4135 C4129 0.960 . S
H4136 C4132 0.960 . S
H4137 C4132 0.960 . S
H4138 C4132 0.959 . S
C4139 N4140 1.317 . S
C4139 N4141 1.348 . S
C4139 C4142 1.485 . S
N4140 C4139 1.317 . S
N4140 N4144 1.370 . S
N4141 C4139 1.348 . S
N4141 C4143 1.346 . S
C4142 C4139 1.485 . S
C4142 H4146 0.960 . S
C4142 H4147 0.961 . S
C4142 H4148 0.960 . S
C4143 N4141 1.346 . S
C4143 N4144 1.307 . S
C4143 C4145 1.486 . S
N4144 N4140 1.370 . S
N4144 C4143 1.307 . S
C4145 C4143 1.486 . S
C4145 H4149 0.960 . S
C4145 H4150 0.960 . S
C4145 H4151 0.959 . S
H4146 C4142 0.960 . S
H4147 C4142 0.961 . S
H4148 C4142 0.960 . S
H4149 C4145 0.960 . S
H4150 C4145 0.960 . S
H4151 C4145 0.959 . S
C4152 N4153 1.317 . S
C4152 N4154 1.348 . S
C4152 C4155 1.485 . S
N4153 C4152 1.317 . S
N4153 N4157 1.370 . S
N4154 C4152 1.348 . S
N4154 C4156 1.346 . S
C4155 C4152 1.485 . S
C4155 H4159 0.960 . S
C4155 H4160 0.961 . S
C4155 H4161 0.960 . S
C4156 N4154 1.346 . S
C4156 N4157 1.307 . S
C4156 C4158 1.486 . S
N4157 N4153 1.370 . S
N4157 C4156 1.307 . S
C4158 C4156 1.486 . S
C4158 H4162 0.960 . S
C4158 H4163 0.960 . S
C4158 H4164 0.959 . S
H4159 C4155 0.960 . S
H4160 C4155 0.961 . S
H4161 C4155 0.960 . S
H4162 C4158 0.960 . S
H4163 C4158 0.960 . S
H4164 C4158 0.959 . S
C4165 N4166 1.317 . S
C4165 N4167 1.348 . S
C4165 C4168 1.485 . S
N4166 C4165 1.317 . S
N4166 N4170 1.370 . S
N4167 C4165 1.348 . S
N4167 C4169 1.346 . S
C4168 C4165 1.485 . S
C4168 H4172 0.960 . S
C4168 H4173 0.961 . S
C4168 H4174 0.960 . S
C4169 N4167 1.346 . S
C4169 N4170 1.307 . S
C4169 C4171 1.486 . S
N4170 N4166 1.370 . S
N4170 C4169 1.307 . S
C4171 C4169 1.486 . S
C4171 H4175 0.960 . S
C4171 H4176 0.960 . S
C4171 H4177 0.959 . S
H4172 C4168 0.960 . S
H4173 C4168 0.961 . S
H4174 C4168 0.960 . S
H4175 C4171 0.960 . S
H4176 C4171 0.960 . S
H4177 C4171 0.959 . S
C4178 N4179 1.317 . S
C4178 N4180 1.348 . S
C4178 C4181 1.485 . S
N4179 C4178 1.317 . S
N4179 N4183 1.370 . S
N4180 C4178 1.348 . S
N4180 C4182 1.346 . S
C4181 C4178 1.485 . S
C4181 H4185 0.960 . S
C4181 H4186 0.961 . S
C4181 H4187 0.960 . S
C4182 N4180 1.346 . S
C4182 N4183 1.307 . S
C4182 C4184 1.486 . S
N4183 N4179 1.370 . S
N4183 C4182 1.307 . S
C4184 C4182 1.486 . S
C4184 H4188 0.960 . S
C4184 H4189 0.960 . S
C4184 H4190 0.959 . S
H4185 C4181 0.960 . S
H4186 C4181 0.961 . S
H4187 C4181 0.960 . S
H4188 C4184 0.960 . S
H4189 C4184 0.960 . S
H4190 C4184 0.959 . S
C4191 N4192 1.317 . S
C4191 N4193 1.348 . S
C4191 C4194 1.485 . S
N4192 C4191 1.317 . S
N4192 N4196 1.370 . S
N4193 C4191 1.348 . S
N4193 C4195 1.346 . S
C4194 C4191 1.485 . S
C4194 H4198 0.960 . S
C4194 H4199 0.961 . S
C4194 H4200 0.960 . S
C4195 N4193 1.346 . S
C4195 N4196 1.307 . S
C4195 C4197 1.486 . S
N4196 N4192 1.370 . S
N4196 C4195 1.307 . S
C4197 C4195 1.486 . S
C4197 H4201 0.960 . S
C4197 H4202 0.960 . S
C4197 H4203 0.959 . S
H4198 C4194 0.960 . S
H4199 C4194 0.961 . S
H4200 C4194 0.960 . S
H4201 C4197 0.960 . S
H4202 C4197 0.960 . S
H4203 C4197 0.959 . S
C4204 N4205 1.317 . S
C4204 N4206 1.348 . S
C4204 C4207 1.485 . S
N4205 C4204 1.317 . S
N4205 N4209 1.370 . S
N4206 C4204 1.348 . S
N4206 C4208 1.346 . S
C4207 C4204 1.485 . S
C4207 H4211 0.960 . S
C4207 H4212 0.961 . S
C4207 H4213 0.960 . S
C4208 N4206 1.346 . S
C4208 N4209 1.307 . S
C4208 C4210 1.486 . S
N4209 N4205 1.370 . S
N4209 C4208 1.307 . S
C4210 C4208 1.486 . S
C4210 H4214 0.960 . S
C4210 H4215 0.960 . S
C4210 H4216 0.959 . S
H4211 C4207 0.960 . S
H4212 C4207 0.961 . S
H4213 C4207 0.960 . S
H4214 C4210 0.960 . S
H4215 C4210 0.960 . S
H4216 C4210 0.959 . S
C4217 N4218 1.317 . S
C4217 N4219 1.348 . S
C4217 C4220 1.485 . S
N4218 C4217 1.317 . S
N4218 N4222 1.370 . S
N4219 C4217 1.348 . S
N4219 C4221 1.346 . S
C4220 C4217 1.485 . S
C4220 H4224 0.960 . S
C4220 H4225 0.961 . S
C4220 H4226 0.960 . S
C4221 N4219 1.346 . S
C4221 N4222 1.307 . S
C4221 C4223 1.486 . S
N4222 N4218 1.370 . S
N4222 C4221 1.307 . S
C4223 C4221 1.486 . S
C4223 H4227 0.960 . S
C4223 H4228 0.960 . S
C4223 H4229 0.959 . S
H4224 C4220 0.960 . S
H4225 C4220 0.961 . S
H4226 C4220 0.960 . S
H4227 C4223 0.960 . S
H4228 C4223 0.960 . S
H4229 C4223 0.959 . S
C4230 N4231 1.317 . S
C4230 N4232 1.348 . S
C4230 C4233 1.485 . S
N4231 C4230 1.317 . S
N4231 N4235 1.370 . S
N4232 C4230 1.348 . S
N4232 C4234 1.346 . S
C4233 C4230 1.485 . S
C4233 H4237 0.960 . S
C4233 H4238 0.961 . S
C4233 H4239 0.960 . S
C4234 N4232 1.346 . S
C4234 N4235 1.307 . S
C4234 C4236 1.486 . S
N4235 N4231 1.370 . S
N4235 C4234 1.307 . S
C4236 C4234 1.486 . S
C4236 H4240 0.960 . S
C4236 H4241 0.960 . S
C4236 H4242 0.959 . S
H4237 C4233 0.960 . S
H4238 C4233 0.961 . S
H4239 C4233 0.960 . S
H4240 C4236 0.960 . S
H4241 C4236 0.960 . S
H4242 C4236 0.959 . S
C4243 N4244 1.317 . S
C4243 N4245 1.348 . S
C4243 C4246 1.485 . S
N4244 C4243 1.317 . S
N4244 N4248 1.370 . S
N4245 C4243 1.348 . S
N4245 C4247 1.346 . S
C4246 C4243 1.485 . S
C4246 H4250 0.960 . S
C4246 H4251 0.961 . S
C4246 H4252 0.960 . S
C4247 N4245 1.346 . S
C4247 N4248 1.307 . S
C4247 C4249 1.486 . S
N4248 N4244 1.370 . S
N4248 C4247 1.307 . S
C4249 C4247 1.486 . S
C4249 H4253 0.960 . S
C4249 H4254 0.960 . S
C4249 H4255 0.959 . S
H4250 C4246 0.960 . S
H4251 C4246 0.961 . S
H4252 C4246 0.960 . S
H4253 C4249 0.960 . S
H4254 C4249 0.960 . S
H4255 C4249 0.959 . S
C4256 N4257 1.317 . S
C4256 N4258 1.348 . S
C4256 C4259 1.485 . S
N4257 C4256 1.317 . S
N4257 N4261 1.370 . S
N4258 C4256 1.348 . S
N4258 C4260 1.346 . S
C4259 C4256 1.485 . S
C4259 H4263 0.960 . S
C4259 H4264 0.961 . S
C4259 H4265 0.960 . S
C4260 N4258 1.346 . S
C4260 N4261 1.307 . S
C4260 C4262 1.486 . S
N4261 N4257 1.370 . S
N4261 C4260 1.307 . S
C4262 C4260 1.486 . S
C4262 H4266 0.960 . S
C4262 H4267 0.960 . S
C4262 H4268 0.959 . S
H4263 C4259 0.960 . S
H4264 C4259 0.961 . S
H4265 C4259 0.960 . S
H4266 C4262 0.960 . S
H4267 C4262 0.960 . S
H4268 C4262 0.959 . S
C4269 N4270 1.317 . S
C4269 N4271 1.348 . S
C4269 C4272 1.485 . S
N4270 C4269 1.317 . S
N4270 N4274 1.370 . S
N4271 C4269 1.348 . S
N4271 C4273 1.346 . S
C4272 C4269 1.485 . S
C4272 H4276 0.960 . S
C4272 H4277 0.961 . S
C4272 H4278 0.960 . S
C4273 N4271 1.346 . S
C4273 N4274 1.307 . S
C4273 C4275 1.486 . S
N4274 N4270 1.370 . S
N4274 C4273 1.307 . S
C4275 C4273 1.486 . S
C4275 H4279 0.960 . S
C4275 H4280 0.960 . S
C4275 H4281 0.959 . S
H4276 C4272 0.960 . S
H4277 C4272 0.961 . S
H4278 C4272 0.960 . S
H4279 C4275 0.960 . S
H4280 C4275 0.960 . S
H4281 C4275 0.959 . S
C4282 N4283 1.317 . S
C4282 N4284 1.348 . S
C4282 C4285 1.485 . S
N4283 C4282 1.317 . S
N4283 N4287 1.370 . S
N4284 C4282 1.348 . S
N4284 C4286 1.346 . S
C4285 C4282 1.485 . S
C4285 H4289 0.960 . S
C4285 H4290 0.961 . S
C4285 H4291 0.960 . S
C4286 N4284 1.346 . S
C4286 N4287 1.307 . S
C4286 C4288 1.486 . S
N4287 N4283 1.370 . S
N4287 C4286 1.307 . S
C4288 C4286 1.486 . S
C4288 H4292 0.960 . S
C4288 H4293 0.960 . S
C4288 H4294 0.959 . S
H4289 C4285 0.960 . S
H4290 C4285 0.961 . S
H4291 C4285 0.960 . S
H4292 C4288 0.960 . S
H4293 C4288 0.960 . S
H4294 C4288 0.959 . S
C4295 N4296 1.317 . S
C4295 N4297 1.348 . S
C4295 C4298 1.485 . S
N4296 C4295 1.317 . S
N4296 N4300 1.370 . S
N4297 C4295 1.348 . S
N4297 C4299 1.346 . S
C4298 C4295 1.485 . S
C4298 H4302 0.960 . S
C4298 H4303 0.961 . S
C4298 H4304 0.960 . S
C4299 N4297 1.346 . S
C4299 N4300 1.307 . S
C4299 C4301 1.486 . S
N4300 N4296 1.370 . S
N4300 C4299 1.307 . S
C4301 C4299 1.486 . S
C4301 H4305 0.960 . S
C4301 H4306 0.960 . S
C4301 H4307 0.959 . S
H4302 C4298 0.960 . S
H4303 C4298 0.961 . S
H4304 C4298 0.960 . S
H4305 C4301 0.960 . S
H4306 C4301 0.960 . S
H4307 C4301 0.959 . S
C4308 N4309 1.317 . S
C4308 N4310 1.348 . S
C4308 C4311 1.485 . S
N4309 C4308 1.317 . S
N4309 N4313 1.370 . S
N4310 C4308 1.348 . S
N4310 C4312 1.346 . S
C4311 C4308 1.485 . S
C4311 H4315 0.960 . S
C4311 H4316 0.961 . S
C4311 H4317 0.960 . S
C4312 N4310 1.346 . S
C4312 N4313 1.307 . S
C4312 C4314 1.486 . S
N4313 N4309 1.370 . S
N4313 C4312 1.307 . S
C4314 C4312 1.486 . S
C4314 H4318 0.960 . S
C4314 H4319 0.960 . S
C4314 H4320 0.959 . S
H4315 C4311 0.960 . S
H4316 C4311 0.961 . S
H4317 C4311 0.960 . S
H4318 C4314 0.960 . S
H4319 C4314 0.960 . S
H4320 C4314 0.959 . S
C4321 N4322 1.317 . S
C4321 N4323 1.348 . S
C4321 C4324 1.485 . S
N4322 C4321 1.317 . S
N4322 N4326 1.370 . S
N4323 C4321 1.348 . S
N4323 C4325 1.346 . S
C4324 C4321 1.485 . S
C4324 H4328 0.960 . S
C4324 H4329 0.961 . S
C4324 H4330 0.960 . S
C4325 N4323 1.346 . S
C4325 N4326 1.307 . S
C4325 C4327 1.486 . S
N4326 N4322 1.370 . S
N4326 C4325 1.307 . S
C4327 C4325 1.486 . S
C4327 H4331 0.960 . S
C4327 H4332 0.960 . S
C4327 H4333 0.959 . S
H4328 C4324 0.960 . S
H4329 C4324 0.961 . S
H4330 C4324 0.960 . S
H4331 C4327 0.960 . S
H4332 C4327 0.960 . S
H4333 C4327 0.959 . S
C4334 N4335 1.317 . S
C4334 N4336 1.348 . S
C4334 C4337 1.485 . S
N4335 C4334 1.317 . S
N4335 N4339 1.370 . S
N4336 C4334 1.348 . S
N4336 C4338 1.346 . S
C4337 C4334 1.485 . S
C4337 H4341 0.960 . S
C4337 H4342 0.961 . S
C4337 H4343 0.960 . S
C4338 N4336 1.346 . S
C4338 N4339 1.307 . S
C4338 C4340 1.486 . S
N4339 N4335 1.370 . S
N4339 C4338 1.307 . S
C4340 C4338 1.486 . S
C4340 H4344 0.960 . S
C4340 H4345 0.960 . S
C4340 H4346 0.959 . S
H4341 C4337 0.960 . S
H4342 C4337 0.961 . S
H4343 C4337 0.960 . S
H4344 C4340 0.960 . S
H4345 C4340 0.960 . S
H4346 C4340 0.959 . S
C4347 N4348 1.317 . S
C4347 N4349 1.348 . S
C4347 C4350 1.485 . S
N4348 C4347 1.317 . S
N4348 N4352 1.370 . S
N4349 C4347 1.348 . S
N4349 C4351 1.346 . S
C4350 C4347 1.485 . S
C4350 H4354 0.960 . S
C4350 H4355 0.961 . S
C4350 H4356 0.960 . S
C4351 N4349 1.346 . S
C4351 N4352 1.307 . S
C4351 C4353 1.486 . S
N4352 N4348 1.370 . S
N4352 C4351 1.307 . S
C4353 C4351 1.486 . S
C4353 H4357 0.960 . S
C4353 H4358 0.960 . S
C4353 H4359 0.959 . S
H4354 C4350 0.960 . S
H4355 C4350 0.961 . S
H4356 C4350 0.960 . S
H4357 C4353 0.960 . S
H4358 C4353 0.960 . S
H4359 C4353 0.959 . S
C4360 N4361 1.317 . S
C4360 N4362 1.348 . S
C4360 C4363 1.485 . S
N4361 C4360 1.317 . S
N4361 N4365 1.370 . S
N4362 C4360 1.348 . S
N4362 C4364 1.346 . S
C4363 C4360 1.485 . S
C4363 H4367 0.960 . S
C4363 H4368 0.961 . S
C4363 H4369 0.960 . S
C4364 N4362 1.346 . S
C4364 N4365 1.307 . S
C4364 C4366 1.486 . S
N4365 N4361 1.370 . S
N4365 C4364 1.307 . S
C4366 C4364 1.486 . S
C4366 H4370 0.960 . S
C4366 H4371 0.960 . S
C4366 H4372 0.959 . S
H4367 C4363 0.960 . S
H4368 C4363 0.961 . S
H4369 C4363 0.960 . S
H4370 C4366 0.960 . S
H4371 C4366 0.960 . S
H4372 C4366 0.959 . S
C4373 N4374 1.317 . S
C4373 N4375 1.348 . S
C4373 C4376 1.485 . S
N4374 C4373 1.317 . S
N4374 N4378 1.370 . S
N4375 C4373 1.348 . S
N4375 C4377 1.346 . S
C4376 C4373 1.485 . S
C4376 H4380 0.960 . S
C4376 H4381 0.961 . S
C4376 H4382 0.960 . S
C4377 N4375 1.346 . S
C4377 N4378 1.307 . S
C4377 C4379 1.486 . S
N4378 N4374 1.370 . S
N4378 C4377 1.307 . S
C4379 C4377 1.486 . S
C4379 H4383 0.960 . S
C4379 H4384 0.960 . S
C4379 H4385 0.959 . S
H4380 C4376 0.960 . S
H4381 C4376 0.961 . S
H4382 C4376 0.960 . S
H4383 C4379 0.960 . S
H4384 C4379 0.960 . S
H4385 C4379 0.959 . S
C4386 N4387 1.317 . S
C4386 N4388 1.348 . S
C4386 C4389 1.485 . S
N4387 C4386 1.317 . S
N4387 N4391 1.370 . S
N4388 C4386 1.348 . S
N4388 C4390 1.346 . S
C4389 C4386 1.485 . S
C4389 H4393 0.960 . S
C4389 H4394 0.961 . S
C4389 H4395 0.960 . S
C4390 N4388 1.346 . S
C4390 N4391 1.307 . S
C4390 C4392 1.486 . S
N4391 N4387 1.370 . S
N4391 C4390 1.307 . S
C4392 C4390 1.486 . S
C4392 H4396 0.960 . S
C4392 H4397 0.960 . S
C4392 H4398 0.959 . S
H4393 C4389 0.960 . S
H4394 C4389 0.961 . S
H4395 C4389 0.960 . S
H4396 C4392 0.960 . S
H4397 C4392 0.960 . S
H4398 C4392 0.959 . S
C4399 N4400 1.317 . S
C4399 N4401 1.348 . S
C4399 C4402 1.485 . S
N4400 C4399 1.317 . S
N4400 N4404 1.370 . S
N4401 C4399 1.348 . S
N4401 C4403 1.346 . S
C4402 C4399 1.485 . S
C4402 H4406 0.960 . S
C4402 H4407 0.961 . S
C4402 H4408 0.960 . S
C4403 N4401 1.346 . S
C4403 N4404 1.307 . S
C4403 C4405 1.486 . S
N4404 N4400 1.370 . S
N4404 C4403 1.307 . S
C4405 C4403 1.486 . S
C4405 H4409 0.960 . S
C4405 H4410 0.960 . S
C4405 H4411 0.959 . S
H4406 C4402 0.960 . S
H4407 C4402 0.961 . S
H4408 C4402 0.960 . S
H4409 C4405 0.960 . S
H4410 C4405 0.960 . S
H4411 C4405 0.959 . S
C4412 N4413 1.317 . S
C4412 N4414 1.348 . S
C4412 C4415 1.485 . S
N4413 C4412 1.317 . S
N4413 N4417 1.370 . S
N4414 C4412 1.348 . S
N4414 C4416 1.346 . S
C4415 C4412 1.485 . S
C4415 H4419 0.960 . S
C4415 H4420 0.961 . S
C4415 H4421 0.960 . S
C4416 N4414 1.346 . S
C4416 N4417 1.307 . S
C4416 C4418 1.486 . S
N4417 N4413 1.370 . S
N4417 C4416 1.307 . S
C4418 C4416 1.486 . S
C4418 H4422 0.960 . S
C4418 H4423 0.960 . S
C4418 H4424 0.959 . S
H4419 C4415 0.960 . S
H4420 C4415 0.961 . S
H4421 C4415 0.960 . S
H4422 C4418 0.960 . S
H4423 C4418 0.960 . S
H4424 C4418 0.959 . S
C4425 N4426 1.317 . S
C4425 N4427 1.348 . S
C4425 C4428 1.485 . S
N4426 C4425 1.317 . S
N4426 N4430 1.370 . S
N4427 C4425 1.348 . S
N4427 C4429 1.346 . S
C4428 C4425 1.485 . S
C4428 H4432 0.960 . S
C4428 H4433 0.961 . S
C4428 H4434 0.960 . S
C4429 N4427 1.346 . S
C4429 N4430 1.307 . S
C4429 C4431 1.486 . S
N4430 N4426 1.370 . S
N4430 C4429 1.307 . S
C4431 C4429 1.486 . S
C4431 H4435 0.960 . S
C4431 H4436 0.960 . S
C4431 H4437 0.959 . S
H4432 C4428 0.960 . S
H4433 C4428 0.961 . S
H4434 C4428 0.960 . S
H4435 C4431 0.960 . S
H4436 C4431 0.960 . S
H4437 C4431 0.959 . S
C4438 N4439 1.317 . S
C4438 N4440 1.348 . S
C4438 C4441 1.485 . S
N4439 C4438 1.317 . S
N4439 N4443 1.370 . S
N4440 C4438 1.348 . S
N4440 C4442 1.346 . S
C4441 C4438 1.485 . S
C4441 H4445 0.960 . S
C4441 H4446 0.961 . S
C4441 H4447 0.960 . S
C4442 N4440 1.346 . S
C4442 N4443 1.307 . S
C4442 C4444 1.486 . S
N4443 N4439 1.370 . S
N4443 C4442 1.307 . S
C4444 C4442 1.486 . S
C4444 H4448 0.960 . S
C4444 H4449 0.960 . S
C4444 H4450 0.959 . S
H4445 C4441 0.960 . S
H4446 C4441 0.961 . S
H4447 C4441 0.960 . S
H4448 C4444 0.960 . S
H4449 C4444 0.960 . S
H4450 C4444 0.959 . S
C4451 N4452 1.317 . S
C4451 N4453 1.348 . S
C4451 C4454 1.485 . S
N4452 C4451 1.317 . S
N4452 N4456 1.370 . S
N4453 C4451 1.348 . S
N4453 C4455 1.346 . S
C4454 C4451 1.485 . S
C4454 H4458 0.960 . S
C4454 H4459 0.961 . S
C4454 H4460 0.960 . S
C4455 N4453 1.346 . S
C4455 N4456 1.307 . S
C4455 C4457 1.486 . S
N4456 N4452 1.370 . S
N4456 C4455 1.307 . S
C4457 C4455 1.486 . S
C4457 H4461 0.960 . S
C4457 H4462 0.960 . S
C4457 H4463 0.959 . S
H4458 C4454 0.960 . S
H4459 C4454 0.961 . S
H4460 C4454 0.960 . S
H4461 C4457 0.960 . S
H4462 C4457 0.960 . S
H4463 C4457 0.959 . S
C4464 N4465 1.317 . S
C4464 N4466 1.348 . S
C4464 C4467 1.485 . S
N4465 C4464 1.317 . S
N4465 N4469 1.370 . S
N4466 C4464 1.348 . S
N4466 C4468 1.346 . S
C4467 C4464 1.485 . S
C4467 H4471 0.960 . S
C4467 H4472 0.961 . S
C4467 H4473 0.960 . S
C4468 N4466 1.346 . S
C4468 N4469 1.307 . S
C4468 C4470 1.486 . S
N4469 N4465 1.370 . S
N4469 C4468 1.307 . S
C4470 C4468 1.486 . S
C4470 H4474 0.960 . S
C4470 H4475 0.960 . S
C4470 H4476 0.959 . S
H4471 C4467 0.960 . S
H4472 C4467 0.961 . S
H4473 C4467 0.960 . S
H4474 C4470 0.960 . S
H4475 C4470 0.960 . S
H4476 C4470 0.959 . S
C4477 N4478 1.317 . S
C4477 N4479 1.348 . S
C4477 C4480 1.485 . S
N4478 C4477 1.317 . S
N4478 N4482 1.370 . S
N4479 C4477 1.348 . S
N4479 C4481 1.346 . S
C4480 C4477 1.485 . S
C4480 H4484 0.960 . S
C4480 H4485 0.961 . S
C4480 H4486 0.960 . S
C4481 N4479 1.346 . S
C4481 N4482 1.307 . S
C4481 C4483 1.486 . S
N4482 N4478 1.370 . S
N4482 C4481 1.307 . S
C4483 C4481 1.486 . S
C4483 H4487 0.960 . S
C4483 H4488 0.960 . S
C4483 H4489 0.959 . S
H4484 C4480 0.960 . S
H4485 C4480 0.961 . S
H4486 C4480 0.960 . S
H4487 C4483 0.960 . S
H4488 C4483 0.960 . S
H4489 C4483 0.959 . S
C4490 N4491 1.317 . S
C4490 N4492 1.348 . S
C4490 C4493 1.485 . S
N4491 C4490 1.317 . S
N4491 N4495 1.370 . S
N4492 C4490 1.348 . S
N4492 C4494 1.346 . S
C4493 C4490 1.485 . S
C4493 H4497 0.960 . S
C4493 H4498 0.961 . S
C4493 H4499 0.960 . S
C4494 N4492 1.346 . S
C4494 N4495 1.307 . S
C4494 C4496 1.486 . S
N4495 N4491 1.370 . S
N4495 C4494 1.307 . S
C4496 C4494 1.486 . S
C4496 H4500 0.960 . S
C4496 H4501 0.960 . S
C4496 H4502 0.959 . S
H4497 C4493 0.960 . S
H4498 C4493 0.961 . S
H4499 C4493 0.960 . S
H4500 C4496 0.960 . S
H4501 C4496 0.960 . S
H4502 C4496 0.959 . S
C4503 N4504 1.317 . S
C4503 N4505 1.348 . S
C4503 C4506 1.485 . S
N4504 C4503 1.317 . S
N4504 N4508 1.370 . S
N4505 C4503 1.348 . S
N4505 C4507 1.346 . S
C4506 C4503 1.485 . S
C4506 H4510 0.960 . S
C4506 H4511 0.961 . S
C4506 H4512 0.960 . S
C4507 N4505 1.346 . S
C4507 N4508 1.307 . S
C4507 C4509 1.486 . S
N4508 N4504 1.370 . S
N4508 C4507 1.307 . S
C4509 C4507 1.486 . S
C4509 H4513 0.960 . S
C4509 H4514 0.960 . S
C4509 H4515 0.959 . S
H4510 C4506 0.960 . S
H4511 C4506 0.961 . S
H4512 C4506 0.960 . S
H4513 C4509 0.960 . S
H4514 C4509 0.960 . S
H4515 C4509 0.959 . S
C4516 N4517 1.317 . S
C4516 N4518 1.348 . S
C4516 C4519 1.485 . S
N4517 C4516 1.317 . S
N4517 N4521 1.370 . S
N4518 C4516 1.348 . S
N4518 C4520 1.346 . S
C4519 C4516 1.485 . S
C4519 H4523 0.960 . S
C4519 H4524 0.961 . S
C4519 H4525 0.960 . S
C4520 N4518 1.346 . S
C4520 N4521 1.307 . S
C4520 C4522 1.486 . S
N4521 N4517 1.370 . S
N4521 C4520 1.307 . S
C4522 C4520 1.486 . S
C4522 H4526 0.960 . S
C4522 H4527 0.960 . S
C4522 H4528 0.959 . S
H4523 C4519 0.960 . S
H4524 C4519 0.961 . S
H4525 C4519 0.960 . S
H4526 C4522 0.960 . S
H4527 C4522 0.960 . S
H4528 C4522 0.959 . S
C4529 N4530 1.317 . S
C4529 N4531 1.348 . S
C4529 C4532 1.485 . S
N4530 C4529 1.317 . S
N4530 N4534 1.370 . S
N4531 C4529 1.348 . S
N4531 C4533 1.346 . S
C4532 C4529 1.485 . S
C4532 H4536 0.960 . S
C4532 H4537 0.961 . S
C4532 H4538 0.960 . S
C4533 N4531 1.346 . S
C4533 N4534 1.307 . S
C4533 C4535 1.486 . S
N4534 N4530 1.370 . S
N4534 C4533 1.307 . S
C4535 C4533 1.486 . S
C4535 H4539 0.960 . S
C4535 H4540 0.960 . S
C4535 H4541 0.959 . S
H4536 C4532 0.960 . S
H4537 C4532 0.961 . S
H4538 C4532 0.960 . S
H4539 C4535 0.960 . S
H4540 C4535 0.960 . S
H4541 C4535 0.959 . S
C4542 N4543 1.317 . S
C4542 N4544 1.348 . S
C4542 C4545 1.485 . S
N4543 C4542 1.317 . S
N4543 N4547 1.370 . S
N4544 C4542 1.348 . S
N4544 C4546 1.346 . S
C4545 C4542 1.485 . S
C4545 H4549 0.960 . S
C4545 H4550 0.961 . S
C4545 H4551 0.960 . S
C4546 N4544 1.346 . S
C4546 N4547 1.307 . S
C4546 C4548 1.486 . S
N4547 N4543 1.370 . S
N4547 C4546 1.307 . S
C4548 C4546 1.486 . S
C4548 H4552 0.960 . S
C4548 H4553 0.960 . S
C4548 H4554 0.959 . S
H4549 C4545 0.960 . S
H4550 C4545 0.961 . S
H4551 C4545 0.960 . S
H4552 C4548 0.960 . S
H4553 C4548 0.960 . S
H4554 C4548 0.959 . S
C4555 N4556 1.317 . S
C4555 N4557 1.348 . S
C4555 C4558 1.485 . S
N4556 C4555 1.317 . S
N4556 N4560 1.370 . S
N4557 C4555 1.348 . S
N4557 C4559 1.346 . S
C4558 C4555 1.485 . S
C4558 H4562 0.960 . S
C4558 H4563 0.961 . S
C4558 H4564 0.960 . S
C4559 N4557 1.346 . S
C4559 N4560 1.307 . S
C4559 C4561 1.486 . S
N4560 N4556 1.370 . S
N4560 C4559 1.307 . S
C4561 C4559 1.486 . S
C4561 H4565 0.960 . S
C4561 H4566 0.960 . S
C4561 H4567 0.959 . S
H4562 C4558 0.960 . S
H4563 C4558 0.961 . S
H4564 C4558 0.960 . S
H4565 C4561 0.960 . S
H4566 C4561 0.960 . S
H4567 C4561 0.959 . S
C4568 N4569 1.317 . S
C4568 N4570 1.348 . S
C4568 C4571 1.485 . S
N4569 C4568 1.317 . S
N4569 N4573 1.370 . S
N4570 C4568 1.348 . S
N4570 C4572 1.346 . S
C4571 C4568 1.485 . S
C4571 H4575 0.960 . S
C4571 H4576 0.961 . S
C4571 H4577 0.960 . S
C4572 N4570 1.346 . S
C4572 N4573 1.307 . S
C4572 C4574 1.486 . S
N4573 N4569 1.370 . S
N4573 C4572 1.307 . S
C4574 C4572 1.486 . S
C4574 H4578 0.960 . S
C4574 H4579 0.960 . S
C4574 H4580 0.959 . S
H4575 C4571 0.960 . S
H4576 C4571 0.961 . S
H4577 C4571 0.960 . S
H4578 C4574 0.960 . S
H4579 C4574 0.960 . S
H4580 C4574 0.959 . S
C4581 N4582 1.317 . S
C4581 N4583 1.348 . S
C4581 C4584 1.485 . S
N4582 C4581 1.317 . S
N4582 N4586 1.370 . S
N4583 C4581 1.348 . S
N4583 C4585 1.346 . S
C4584 C4581 1.485 . S
C4584 H4588 0.960 . S
C4584 H4589 0.961 . S
C4584 H4590 0.960 . S
C4585 N4583 1.346 . S
C4585 N4586 1.307 . S
C4585 C4587 1.486 . S
N4586 N4582 1.370 . S
N4586 C4585 1.307 . S
C4587 C4585 1.486 . S
C4587 H4591 0.960 . S
C4587 H4592 0.960 . S
C4587 H4593 0.959 . S
H4588 C4584 0.960 . S
H4589 C4584 0.961 . S
H4590 C4584 0.960 . S
H4591 C4587 0.960 . S
H4592 C4587 0.960 . S
H4593 C4587 0.959 . S
C4594 N4595 1.317 . S
C4594 N4596 1.348 . S
C4594 C4597 1.485 . S
N4595 C4594 1.317 . S
N4595 N4599 1.370 . S
N4596 C4594 1.348 . S
N4596 C4598 1.346 . S
C4597 C4594 1.485 . S
C4597 H4601 0.960 . S
C4597 H4602 0.961 . S
C4597 H4603 0.960 . S
C4598 N4596 1.346 . S
C4598 N4599 1.307 . S
C4598 C4600 1.486 . S
N4599 N4595 1.370 . S
N4599 C4598 1.307 . S
C4600 C4598 1.486 . S
C4600 H4604 0.960 . S
C4600 H4605 0.960 . S
C4600 H4606 0.959 . S
H4601 C4597 0.960 . S
H4602 C4597 0.961 . S
H4603 C4597 0.960 . S
H4604 C4600 0.960 . S
H4605 C4600 0.960 . S
H4606 C4600 0.959 . S
C4607 N4608 1.317 . S
C4607 N4609 1.348 . S
C4607 C4610 1.485 . S
N4608 C4607 1.317 . S
N4608 N4612 1.370 . S
N4609 C4607 1.348 . S
N4609 C4611 1.346 . S
C4610 C4607 1.485 . S
C4610 H4614 0.960 . S
C4610 H4615 0.961 . S
C4610 H4616 0.960 . S
C4611 N4609 1.346 . S
C4611 N4612 1.307 . S
C4611 C4613 1.486 . S
N4612 N4608 1.370 . S
N4612 C4611 1.307 . S
C4613 C4611 1.486 . S
C4613 H4617 0.960 . S
C4613 H4618 0.960 . S
C4613 H4619 0.959 . S
H4614 C4610 0.960 . S
H4615 C4610 0.961 . S
H4616 C4610 0.960 . S
H4617 C4613 0.960 . S
H4618 C4613 0.960 . S
H4619 C4613 0.959 . S
C4620 N4621 1.317 . S
C4620 N4622 1.348 . S
C4620 C4623 1.485 . S
N4621 C4620 1.317 . S
N4621 N4625 1.370 . S
N4622 C4620 1.348 . S
N4622 C4624 1.346 . S
C4623 C4620 1.485 . S
C4623 H4627 0.960 . S
C4623 H4628 0.961 . S
C4623 H4629 0.960 . S
C4624 N4622 1.346 . S
C4624 N4625 1.307 . S
C4624 C4626 1.486 . S
N4625 N4621 1.370 . S
N4625 C4624 1.307 . S
C4626 C4624 1.486 . S
C4626 H4630 0.960 . S
C4626 H4631 0.960 . S
C4626 H4632 0.959 . S
H4627 C4623 0.960 . S
H4628 C4623 0.961 . S
H4629 C4623 0.960 . S
H4630 C4626 0.960 . S
H4631 C4626 0.960 . S
H4632 C4626 0.959 . S
C4633 N4634 1.317 . S
C4633 N4635 1.348 . S
C4633 C4636 1.485 . S
N4634 C4633 1.317 . S
N4634 N4638 1.370 . S
N4635 C4633 1.348 . S
N4635 C4637 1.346 . S
C4636 C4633 1.485 . S
C4636 H4640 0.960 . S
C4636 H4641 0.961 . S
C4636 H4642 0.960 . S
C4637 N4635 1.346 . S
C4637 N4638 1.307 . S
C4637 C4639 1.486 . S
N4638 N4634 1.370 . S
N4638 C4637 1.307 . S
C4639 C4637 1.486 . S
C4639 H4643 0.960 . S
C4639 H4644 0.960 . S
C4639 H4645 0.959 . S
H4640 C4636 0.960 . S
H4641 C4636 0.961 . S
H4642 C4636 0.960 . S
H4643 C4639 0.960 . S
H4644 C4639 0.960 . S
H4645 C4639 0.959 . S
C4646 N4647 1.317 . S
C4646 N4648 1.348 . S
C4646 C4649 1.485 . S
N4647 C4646 1.317 . S
N4647 N4651 1.370 . S
N4648 C4646 1.348 . S
N4648 C4650 1.346 . S
C4649 C4646 1.485 . S
C4649 H4653 0.960 . S
C4649 H4654 0.961 . S
C4649 H4655 0.960 . S
C4650 N4648 1.346 . S
C4650 N4651 1.307 . S
C4650 C4652 1.486 . S
N4651 N4647 1.370 . S
N4651 C4650 1.307 . S
C4652 C4650 1.486 . S
C4652 H4656 0.960 . S
C4652 H4657 0.960 . S
C4652 H4658 0.959 . S
H4653 C4649 0.960 . S
H4654 C4649 0.961 . S
H4655 C4649 0.960 . S
H4656 C4652 0.960 . S
H4657 C4652 0.960 . S
H4658 C4652 0.959 . S
C4659 N4660 1.317 . S
C4659 N4661 1.348 . S
C4659 C4662 1.485 . S
N4660 C4659 1.317 . S
N4660 N4664 1.370 . S
N4661 C4659 1.348 . S
N4661 C4663 1.346 . S
C4662 C4659 1.485 . S
C4662 H4666 0.960 . S
C4662 H4667 0.961 . S
C4662 H4668 0.960 . S
C4663 N4661 1.346 . S
C4663 N4664 1.307 . S
C4663 C4665 1.486 . S
N4664 N4660 1.370 . S
N4664 C4663 1.307 . S
C4665 C4663 1.486 . S
C4665 H4669 0.960 . S
C4665 H4670 0.960 . S
C4665 H4671 0.959 . S
H4666 C4662 0.960 . S
H4667 C4662 0.961 . S
H4668 C4662 0.960 . S
H4669 C4665 0.960 . S
H4670 C4665 0.960 . S
H4671 C4665 0.959 . S
C4672 N4673 1.317 . S
C4672 N4674 1.348 . S
C4672 C4675 1.485 . S
N4673 C4672 1.317 . S
N4673 N4677 1.370 . S
N4674 C4672 1.348 . S
N4674 C4676 1.346 . S
C4675 C4672 1.485 . S
C4675 H4679 0.960 . S
C4675 H4680 0.961 . S
C4675 H4681 0.960 . S
C4676 N4674 1.346 . S
C4676 N4677 1.307 . S
C4676 C4678 1.486 . S
N4677 N4673 1.370 . S
N4677 C4676 1.307 . S
C4678 C4676 1.486 . S
C4678 H4682 0.960 . S
C4678 H4683 0.960 . S
C4678 H4684 0.959 . S
H4679 C4675 0.960 . S
H4680 C4675 0.961 . S
H4681 C4675 0.960 . S
H4682 C4678 0.960 . S
H4683 C4678 0.960 . S
H4684 C4678 0.959 . S
C4685 N4686 1.317 . S
C4685 N4687 1.348 . S
C4685 C4688 1.485 . S
N4686 C4685 1.317 . S
N4686 N4690 1.370 . S
N4687 C4685 1.348 . S
N4687 C4689 1.346 . S
C4688 C4685 1.485 . S
C4688 H4692 0.960 . S
C4688 H4693 0.961 . S
C4688 H4694 0.960 . S
C4689 N4687 1.346 . S
C4689 N4690 1.307 . S
C4689 C4691 1.486 . S
N4690 N4686 1.370 . S
N4690 C4689 1.307 . S
C4691 C4689 1.486 . S
C4691 H4695 0.960 . S
C4691 H4696 0.960 . S
C4691 H4697 0.959 . S
H4692 C4688 0.960 . S
H4693 C4688 0.961 . S
H4694 C4688 0.960 . S
H4695 C4691 0.960 . S
H4696 C4691 0.960 . S
H4697 C4691 0.959 . S
C4698 N4699 1.317 . S
C4698 N4700 1.348 . S
C4698 C4701 1.485 . S
N4699 C4698 1.317 . S
N4699 N4703 1.370 . S
N4700 C4698 1.348 . S
N4700 C4702 1.346 . S
C4701 C4698 1.485 . S
C4701 H4705 0.960 . S
C4701 H4706 0.961 . S
C4701 H4707 0.960 . S
C4702 N4700 1.346 . S
C4702 N4703 1.307 . S
C4702 C4704 1.486 . S
N4703 N4699 1.370 . S
N4703 C4702 1.307 . S
C4704 C4702 1.486 . S
C4704 H4708 0.960 . S
C4704 H4709 0.960 . S
C4704 H4710 0.959 . S
H4705 C4701 0.960 . S
H4706 C4701 0.961 . S
H4707 C4701 0.960 . S
H4708 C4704 0.960 . S
H4709 C4704 0.960 . S
H4710 C4704 0.959 . S
C4711 N4712 1.317 . S
C4711 N4713 1.348 . S
C4711 C4714 1.485 . S
N4712 C4711 1.317 . S
N4712 N4716 1.370 . S
N4713 C4711 1.348 . S
N4713 C4715 1.346 . S
C4714 C4711 1.485 . S
C4714 H4718 0.960 . S
C4714 H4719 0.961 . S
C4714 H4720 0.960 . S
C4715 N4713 1.346 . S
C4715 N4716 1.307 . S
C4715 C4717 1.486 . S
N4716 N4712 1.370 . S
N4716 C4715 1.307 . S
C4717 C4715 1.486 . S
C4717 H4721 0.960 . S
C4717 H4722 0.960 . S
C4717 H4723 0.959 . S
H4718 C4714 0.960 . S
H4719 C4714 0.961 . S
H4720 C4714 0.960 . S
H4721 C4717 0.960 . S
H4722 C4717 0.960 . S
H4723 C4717 0.959 . S
C4724 N4725 1.317 . S
C4724 N4726 1.348 . S
C4724 C4727 1.485 . S
N4725 C4724 1.317 . S
N4725 N4729 1.370 . S
N4726 C4724 1.348 . S
N4726 C4728 1.346 . S
C4727 C4724 1.485 . S
C4727 H4731 0.960 . S
C4727 H4732 0.961 . S
C4727 H4733 0.960 . S
C4728 N4726 1.346 . S
C4728 N4729 1.307 . S
C4728 C4730 1.486 . S
N4729 N4725 1.370 . S
N4729 C4728 1.307 . S
C4730 C4728 1.486 . S
C4730 H4734 0.960 . S
C4730 H4735 0.960 . S
C4730 H4736 0.959 . S
H4731 C4727 0.960 . S
H4732 C4727 0.961 . S
H4733 C4727 0.960 . S
H4734 C4730 0.960 . S
H4735 C4730 0.960 . S
H4736 C4730 0.959 . S
C4737 N4738 1.317 . S
C4737 N4739 1.348 . S
C4737 C4740 1.485 . S
N4738 C4737 1.317 . S
N4738 N4742 1.370 . S
N4739 C4737 1.348 . S
N4739 C4741 1.346 . S
C4740 C4737 1.485 . S
C4740 H4744 0.960 . S
C4740 H4745 0.961 . S
C4740 H4746 0.960 . S
C4741 N4739 1.346 . S
C4741 N4742 1.307 . S
C4741 C4743 1.486 . S
N4742 N4738 1.370 . S
N4742 C4741 1.307 . S
C4743 C4741 1.486 . S
C4743 H4747 0.960 . S
C4743 H4748 0.960 . S
C4743 H4749 0.959 . S
H4744 C4740 0.960 . S
H4745 C4740 0.961 . S
H4746 C4740 0.960 . S
H4747 C4743 0.960 . S
H4748 C4743 0.960 . S
H4749 C4743 0.959 . S
C4750 N4751 1.317 . S
C4750 N4752 1.348 . S
C4750 C4753 1.485 . S
N4751 C4750 1.317 . S
N4751 N4755 1.370 . S
N4752 C4750 1.348 . S
N4752 C4754 1.346 . S
C4753 C4750 1.485 . S
C4753 H4757 0.960 . S
C4753 H4758 0.961 . S
C4753 H4759 0.960 . S
C4754 N4752 1.346 . S
C4754 N4755 1.307 . S
C4754 C4756 1.486 . S
N4755 N4751 1.370 . S
N4755 C4754 1.307 . S
C4756 C4754 1.486 . S
C4756 H4760 0.960 . S
C4756 H4761 0.960 . S
C4756 H4762 0.959 . S
H4757 C4753 0.960 . S
H4758 C4753 0.961 . S
H4759 C4753 0.960 . S
H4760 C4756 0.960 . S
H4761 C4756 0.960 . S
H4762 C4756 0.959 . S
C4763 N4764 1.317 . S
C4763 N4765 1.348 . S
C4763 C4766 1.485 . S
N4764 C4763 1.317 . S
N4764 N4768 1.370 . S
N4765 C4763 1.348 . S
N4765 C4767 1.346 . S
C4766 C4763 1.485 . S
C4766 H4770 0.960 . S
C4766 H4771 0.961 . S
C4766 H4772 0.960 . S
C4767 N4765 1.346 . S
C4767 N4768 1.307 . S
C4767 C4769 1.486 . S
N4768 N4764 1.370 . S
N4768 C4767 1.307 . S
C4769 C4767 1.486 . S
C4769 H4773 0.960 . S
C4769 H4774 0.960 . S
C4769 H4775 0.959 . S
H4770 C4766 0.960 . S
H4771 C4766 0.961 . S
H4772 C4766 0.960 . S
H4773 C4769 0.960 . S
H4774 C4769 0.960 . S
H4775 C4769 0.959 . S
C4776 N4777 1.317 . S
C4776 N4778 1.348 . S
C4776 C4779 1.485 . S
N4777 C4776 1.317 . S
N4777 N4781 1.370 . S
N4778 C4776 1.348 . S
N4778 C4780 1.346 . S
C4779 C4776 1.485 . S
C4779 H4783 0.960 . S
C4779 H4784 0.961 . S
C4779 H4785 0.960 . S
C4780 N4778 1.346 . S
C4780 N4781 1.307 . S
C4780 C4782 1.486 . S
N4781 N4777 1.370 . S
N4781 C4780 1.307 . S
C4782 C4780 1.486 . S
C4782 H4786 0.960 . S
C4782 H4787 0.960 . S
C4782 H4788 0.959 . S
H4783 C4779 0.960 . S
H4784 C4779 0.961 . S
H4785 C4779 0.960 . S
H4786 C4782 0.960 . S
H4787 C4782 0.960 . S
H4788 C4782 0.959 . S
C4789 N4790 1.317 . S
C4789 N4791 1.348 . S
C4789 C4792 1.485 . S
N4790 C4789 1.317 . S
N4790 N4794 1.370 . S
N4791 C4789 1.348 . S
N4791 C4793 1.346 . S
C4792 C4789 1.485 . S
C4792 H4796 0.960 . S
C4792 H4797 0.961 . S
C4792 H4798 0.960 . S
C4793 N4791 1.346 . S
C4793 N4794 1.307 . S
C4793 C4795 1.486 . S
N4794 N4790 1.370 . S
N4794 C4793 1.307 . S
C4795 C4793 1.486 . S
C4795 H4799 0.960 . S
C4795 H4800 0.960 . S
C4795 H4801 0.959 . S
H4796 C4792 0.960 . S
H4797 C4792 0.961 . S
H4798 C4792 0.960 . S
H4799 C4795 0.960 . S
H4800 C4795 0.960 . S
H4801 C4795 0.959 . S
C4802 N4803 1.317 . S
C4802 N4804 1.348 . S
C4802 C4805 1.485 . S
N4803 C4802 1.317 . S
N4803 N4807 1.370 . S
N4804 C4802 1.348 . S
N4804 C4806 1.346 . S
C4805 C4802 1.485 . S
C4805 H4809 0.960 . S
C4805 H4810 0.961 . S
C4805 H4811 0.960 . S
C4806 N4804 1.346 . S
C4806 N4807 1.307 . S
C4806 C4808 1.486 . S
N4807 N4803 1.370 . S
N4807 C4806 1.307 . S
C4808 C4806 1.486 . S
C4808 H4812 0.960 . S
C4808 H4813 0.960 . S
C4808 H4814 0.959 . S
H4809 C4805 0.960 . S
H4810 C4805 0.961 . S
H4811 C4805 0.960 . S
H4812 C4808 0.960 . S
H4813 C4808 0.960 . S
H4814 C4808 0.959 . S
C4815 N4816 1.317 . S
C4815 N4817 1.348 . S
C4815 C4818 1.485 . S
N4816 C4815 1.317 . S
N4816 N4820 1.370 . S
N4817 C4815 1.348 . S
N4817 C4819 1.346 . S
C4818 C4815 1.485 . S
C4818 H4822 0.960 . S
C4818 H4823 0.961 . S
C4818 H4824 0.960 . S
C4819 N4817 1.346 . S
C4819 N4820 1.307 . S
C4819 C4821 1.486 . S
N4820 N4816 1.370 . S
N4820 C4819 1.307 . S
C4821 C4819 1.486 . S
C4821 H4825 0.960 . S
C4821 H4826 0.960 . S
C4821 H4827 0.959 . S
H4822 C4818 0.960 . S
H4823 C4818 0.961 . S
H4824 C4818 0.960 . S
H4825 C4821 0.960 . S
H4826 C4821 0.960 . S
H4827 C4821 0.959 . S
C4828 N4829 1.317 . S
C4828 N4830 1.348 . S
C4828 C4831 1.485 . S
N4829 C4828 1.317 . S
N4829 N4833 1.370 . S
N4830 C4828 1.348 . S
N4830 C4832 1.346 . S
C4831 C4828 1.485 . S
C4831 H4835 0.960 . S
C4831 H4836 0.961 . S
C4831 H4837 0.960 . S
C4832 N4830 1.346 . S
C4832 N4833 1.307 . S
C4832 C4834 1.486 . S
N4833 N4829 1.370 . S
N4833 C4832 1.307 . S
C4834 C4832 1.486 . S
C4834 H4838 0.960 . S
C4834 H4839 0.960 . S
C4834 H4840 0.959 . S
H4835 C4831 0.960 . S
H4836 C4831 0.961 . S
H4837 C4831 0.960 . S
H4838 C4834 0.960 . S
H4839 C4834 0.960 . S
H4840 C4834 0.959 . S
C4841 N4842 1.317 . S
C4841 N4843 1.348 . S
C4841 C4844 1.485 . S
N4842 C4841 1.317 . S
N4842 N4846 1.370 . S
N4843 C4841 1.348 . S
N4843 C4845 1.346 . S
C4844 C4841 1.485 . S
C4844 H4848 0.960 . S
C4844 H4849 0.961 . S
C4844 H4850 0.960 . S
C4845 N4843 1.346 . S
C4845 N4846 1.307 . S
C4845 C4847 1.486 . S
N4846 N4842 1.370 . S
N4846 C4845 1.307 . S
C4847 C4845 1.486 . S
C4847 H4851 0.960 . S
C4847 H4852 0.960 . S
C4847 H4853 0.959 . S
H4848 C4844 0.960 . S
H4849 C4844 0.961 . S
H4850 C4844 0.960 . S
H4851 C4847 0.960 . S
H4852 C4847 0.960 . S
H4853 C4847 0.959 . S
C4854 N4855 1.317 . S
C4854 N4856 1.348 . S
C4854 C4857 1.485 . S
N4855 C4854 1.317 . S
N4855 N4859 1.370 . S
N4856 C4854 1.348 . S
N4856 C4858 1.346 . S
C4857 C4854 1.485 . S
C4857 H4861 0.960 . S
C4857 H4862 0.961 . S
C4857 H4863 0.960 . S
C4858 N4856 1.346 . S
C4858 N4859 1.307 . S
C4858 C4860 1.486 . S
N4859 N4855 1.370 . S
N4859 C4858 1.307 . S
C4860 C4858 1.486 . S
C4860 H4864 0.960 . S
C4860 H4865 0.960 . S
C4860 H4866 0.959 . S
H4861 C4857 0.960 . S
H4862 C4857 0.961 . S
H4863 C4857 0.960 . S
H4864 C4860 0.960 . S
H4865 C4860 0.960 . S
H4866 C4860 0.959 . S
C4867 N4868 1.317 . S
C4867 N4869 1.348 . S
C4867 C4870 1.485 . S
N4868 C4867 1.317 . S
N4868 N4872 1.370 . S
N4869 C4867 1.348 . S
N4869 C4871 1.346 . S
C4870 C4867 1.485 . S
C4870 H4874 0.960 . S
C4870 H4875 0.961 . S
C4870 H4876 0.960 . S
C4871 N4869 1.346 . S
C4871 N4872 1.307 . S
C4871 C4873 1.486 . S
N4872 N4868 1.370 . S
N4872 C4871 1.307 . S
C4873 C4871 1.486 . S
C4873 H4877 0.960 . S
C4873 H4878 0.960 . S
C4873 H4879 0.959 . S
H4874 C4870 0.960 . S
H4875 C4870 0.961 . S
H4876 C4870 0.960 . S
H4877 C4873 0.960 . S
H4878 C4873 0.960 . S
H4879 C4873 0.959 . S
C4880 N4881 1.317 . S
C4880 N4882 1.348 . S
C4880 C4883 1.485 . S
N4881 C4880 1.317 . S
N4881 N4885 1.370 . S
N4882 C4880 1.348 . S
N4882 C4884 1.346 . S
C4883 C4880 1.485 . S
C4883 H4887 0.960 . S
C4883 H4888 0.961 . S
C4883 H4889 0.960 . S
C4884 N4882 1.346 . S
C4884 N4885 1.307 . S
C4884 C4886 1.486 . S
N4885 N4881 1.370 . S
N4885 C4884 1.307 . S
C4886 C4884 1.486 . S
C4886 H4890 0.960 . S
C4886 H4891 0.960 . S
C4886 H4892 0.959 . S
H4887 C4883 0.960 . S
H4888 C4883 0.961 . S
H4889 C4883 0.960 . S
H4890 C4886 0.960 . S
H4891 C4886 0.960 . S
H4892 C4886 0.959 . S
C4893 N4894 1.317 . S
C4893 N4895 1.348 . S
C4893 C4896 1.485 . S
N4894 C4893 1.317 . S
N4894 N4898 1.370 . S
N4895 C4893 1.348 . S
N4895 C4897 1.346 . S
C4896 C4893 1.485 . S
C4896 H4900 0.960 . S
C4896 H4901 0.961 . S
C4896 H4902 0.960 . S
C4897 N4895 1.346 . S
C4897 N4898 1.307 . S
C4897 C4899 1.486 . S
N4898 N4894 1.370 . S
N4898 C4897 1.307 . S
C4899 C4897 1.486 . S
C4899 H4903 0.960 . S
C4899 H4904 0.960 . S
C4899 H4905 0.959 . S
H4900 C4896 0.960 . S
H4901 C4896 0.961 . S
H4902 C4896 0.960 . S
H4903 C4899 0.960 . S
H4904 C4899 0.960 . S
H4905 C4899 0.959 . S
C4906 N4907 1.317 . S
C4906 N4908 1.348 . S
C4906 C4909 1.485 . S
N4907 C4906 1.317 . S
N4907 N4911 1.370 . S
N4908 C4906 1.348 . S
N4908 C4910 1.346 . S
C4909 C4906 1.485 . S
C4909 H4913 0.960 . S
C4909 H4914 0.961 . S
C4909 H4915 0.960 . S
C4910 N4908 1.346 . S
C4910 N4911 1.307 . S
C4910 C4912 1.486 . S
N4911 N4907 1.370 . S
N4911 C4910 1.307 . S
C4912 C4910 1.486 . S
C4912 H4916 0.960 . S
C4912 H4917 0.960 . S
C4912 H4918 0.959 . S
H4913 C4909 0.960 . S
H4914 C4909 0.961 . S
H4915 C4909 0.960 . S
H4916 C4912 0.960 . S
H4917 C4912 0.960 . S
H4918 C4912 0.959 . S
C4919 N4920 1.317 . S
C4919 N4921 1.348 . S
C4919 C4922 1.485 . S
N4920 C4919 1.317 . S
N4920 N4924 1.370 . S
N4921 C4919 1.348 . S
N4921 C4923 1.346 . S
C4922 C4919 1.485 . S
C4922 H4926 0.960 . S
C4922 H4927 0.961 . S
C4922 H4928 0.960 . S
C4923 N4921 1.346 . S
C4923 N4924 1.307 . S
C4923 C4925 1.486 . S
N4924 N4920 1.370 . S
N4924 C4923 1.307 . S
C4925 C4923 1.486 . S
C4925 H4929 0.960 . S
C4925 H4930 0.960 . S
C4925 H4931 0.959 . S
H4926 C4922 0.960 . S
H4927 C4922 0.961 . S
H4928 C4922 0.960 . S
H4929 C4925 0.960 . S
H4930 C4925 0.960 . S
H4931 C4925 0.959 . S
C4932 N4933 1.317 . S
C4932 N4934 1.348 . S
C4932 C4935 1.485 . S
N4933 C4932 1.317 . S
N4933 N4937 1.370 . S
N4934 C4932 1.348 . S
N4934 C4936 1.346 . S
C4935 C4932 1.485 . S
C4935 H4939 0.960 . S
C4935 H4940 0.961 . S
C4935 H4941 0.960 . S
C4936 N4934 1.346 . S
C4936 N4937 1.307 . S
C4936 C4938 1.486 . S
N4937 N4933 1.370 . S
N4937 C4936 1.307 . S
C4938 C4936 1.486 . S
C4938 H4942 0.960 . S
C4938 H4943 0.960 . S
C4938 H4944 0.959 . S
H4939 C4935 0.960 . S
H4940 C4935 0.961 . S
H4941 C4935 0.960 . S
H4942 C4938 0.960 . S
H4943 C4938 0.960 . S
H4944 C4938 0.959 . S
C4945 N4946 1.317 . S
C4945 N4947 1.348 . S
C4945 C4948 1.485 . S
N4946 C4945 1.317 . S
N4946 N4950 1.370 . S
N4947 C4945 1.348 . S
N4947 C4949 1.346 . S
C4948 C4945 1.485 . S
C4948 H4952 0.960 . S
C4948 H4953 0.961 . S
C4948 H4954 0.960 . S
C4949 N4947 1.346 . S
C4949 N4950 1.307 . S
C4949 C4951 1.486 . S
N4950 N4946 1.370 . S
N4950 C4949 1.307 . S
C4951 C4949 1.486 . S
C4951 H4955 0.960 . S
C4951 H4956 0.960 . S
C4951 H4957 0.959 . S
H4952 C4948 0.960 . S
H4953 C4948 0.961 . S
H4954 C4948 0.960 . S
H4955 C4951 0.960 . S
H4956 C4951 0.960 . S
H4957 C4951 0.959 . S
C4958 N4959 1.317 . S
C4958 N4960 1.348 . S
C4958 C4961 1.485 . S
N4959 C4958 1.317 . S
N4959 N4963 1.370 . S
N4960 C4958 1.348 . S
N4960 C4962 1.346 . S
C4961 C4958 1.485 . S
C4961 H4965 0.960 . S
C4961 H4966 0.961 . S
C4961 H4967 0.960 . S
C4962 N4960 1.346 . S
C4962 N4963 1.307 . S
C4962 C4964 1.486 . S
N4963 N4959 1.370 . S
N4963 C4962 1.307 . S
C4964 C4962 1.486 . S
C4964 H4968 0.960 . S
C4964 H4969 0.960 . S
C4964 H4970 0.959 . S
H4965 C4961 0.960 . S
H4966 C4961 0.961 . S
H4967 C4961 0.960 . S
H4968 C4964 0.960 . S
H4969 C4964 0.960 . S
H4970 C4964 0.959 . S
C4971 N4972 1.317 . S
C4971 N4973 1.348 . S
C4971 C4974 1.485 . S
N4972 C4971 1.317 . S
N4972 N4976 1.370 . S
N4973 C4971 1.348 . S
N4973 C4975 1.346 . S
C4974 C4971 1.485 . S
C4974 H4978 0.960 . S
C4974 H4979 0.961 . S
C4974 H4980 0.960 . S
C4975 N4973 1.346 . S
C4975 N4976 1.307 . S
C4975 C4977 1.486 . S
N4976 N4972 1.370 . S
N4976 C4975 1.307 . S
C4977 C4975 1.486 . S
C4977 H4981 0.960 . S
C4977 H4982 0.960 . S
C4977 H4983 0.959 . S
H4978 C4974 0.960 . S
H4979 C4974 0.961 . S
H4980 C4974 0.960 . S
H4981 C4977 0.960 . S
H4982 C4977 0.960 . S
H4983 C4977 0.959 . S
C4984 N4985 1.317 . S
C4984 N4986 1.348 . S
C4984 C4987 1.485 . S
N4985 C4984 1.317 . S
N4985 N4989 1.370 . S
N4986 C4984 1.348 . S
N4986 C4988 1.346 . S
C4987 C4984 1.485 . S
C4987 H4991 0.960 . S
C4987 H4992 0.961 . S
C4987 H4993 0.960 . S
C4988 N4986 1.346 . S
C4988 N4989 1.307 . S
C4988 C4990 1.486 . S
N4989 N4985 1.370 . S
N4989 C4988 1.307 . S
C4990 C4988 1.486 . S
C4990 H4994 0.960 . S
C4990 H4995 0.960 . S
C4990 H4996 0.959 . S
H4991 C4987 0.960 . S
H4992 C4987 0.961 . S
H4993 C4987 0.960 . S
H4994 C4990 0.960 . S
H4995 C4990 0.960 . S
H4996 C4990 0.959 . S
C4997 N4998 1.317 . S
C4997 N4999 1.348 . S
C4997 C5000 1.485 . S
N4998 C4997 1.317 . S
N4998 N5002 1.370 . S
N4999 C4997 1.348 . S
N4999 C5001 1.346 . S
C5000 C4997 1.485 . S
C5000 H5004 0.960 . S
C5000 H5005 0.961 . S
C5000 H5006 0.960 . S
C5001 N4999 1.346 . S
C5001 N5002 1.307 . S
C5001 C5003 1.486 . S
N5002 N4998 1.370 . S
N5002 C5001 1.307 . S
C5003 C5001 1.486 . S
C5003 H5007 0.960 . S
C5003 H5008 0.960 . S
C5003 H5009 0.959 . S
H5004 C5000 0.960 . S
H5005 C5000 0.961 . S
H5006 C5000 0.960 . S
H5007 C5003 0.960 . S
H5008 C5003 0.960 . S
H5009 C5003 0.959 . S
C5010 N5011 1.317 . S
C5010 N5012 1.348 . S
C5010 C5013 1.485 . S
N5011 C5010 1.317 . S
N5011 N5015 1.370 . S
N5012 C5010 1.348 . S
N5012 C5014 1.346 . S
C5013 C5010 1.485 . S
C5013 H5017 0.960 . S
C5013 H5018 0.961 . S
C5013 H5019 0.960 . S
C5014 N5012 1.346 . S
C5014 N5015 1.307 . S
C5014 C5016 1.486 . S
N5015 N5011 1.370 . S
N5015 C5014 1.307 . S
C5016 C5014 1.486 . S
C5016 H5020 0.960 . S
C5016 H5021 0.960 . S
C5016 H5022 0.959 . S
H5017 C5013 0.960 . S
H5018 C5013 0.961 . S
H5019 C5013 0.960 . S
H5020 C5016 0.960 . S
H5021 C5016 0.960 . S
H5022 C5016 0.959 . S
C5023 N5024 1.317 . S
C5023 N5025 1.348 . S
C5023 C5026 1.485 . S
N5024 C5023 1.317 . S
N5024 N5028 1.370 . S
N5025 C5023 1.348 . S
N5025 C5027 1.346 . S
C5026 C5023 1.485 . S
C5026 H5030 0.960 . S
C5026 H5031 0.961 . S
C5026 H5032 0.960 . S
C5027 N5025 1.346 . S
C5027 N5028 1.307 . S
C5027 C5029 1.486 . S
N5028 N5024 1.370 . S
N5028 C5027 1.307 . S
C5029 C5027 1.486 . S
C5029 H5033 0.960 . S
C5029 H5034 0.960 . S
C5029 H5035 0.959 . S
H5030 C5026 0.960 . S
H5031 C5026 0.961 . S
H5032 C5026 0.960 . S
H5033 C5029 0.960 . S
H5034 C5029 0.960 . S
H5035 C5029 0.959 . S
C5036 N5037 1.317 . S
C5036 N5038 1.348 . S
C5036 C5039 1.485 . S
N5037 C5036 1.317 . S
N5037 N5041 1.370 . S
N5038 C5036 1.348 . S
N5038 C5040 1.346 . S
C5039 C5036 1.485 . S
C5039 H5043 0.960 . S
C5039 H5044 0.961 . S
C5039 H5045 0.960 . S
C5040 N5038 1.346 . S
C5040 N5041 1.307 . S
C5040 C5042 1.486 . S
N5041 N5037 1.370 . S
N5041 C5040 1.307 . S
C5042 C5040 1.486 . S
C5042 H5046 0.960 . S
C5042 H5047 0.960 . S
C5042 H5048 0.959 . S
H5043 C5039 0.960 . S
H5044 C5039 0.961 . S
H5045 C5039 0.960 . S
H5046 C5042 0.960 . S
H5047 C5042 0.960 . S
H5048 C5042 0.959 . S
C5049 N5050 1.317 . S
C5049 N5051 1.348 . S
C5049 C5052 1.485 . S
N5050 C5049 1.317 . S
N5050 N5054 1.370 . S
N5051 C5049 1.348 . S
N5051 C5053 1.346 . S
C5052 C5049 1.485 . S
C5052 H5056 0.960 . S
C5052 H5057 0.961 . S
C5052 H5058 0.960 . S
C5053 N5051 1.346 . S
C5053 N5054 1.307 . S
C5053 C5055 1.486 . S
N5054 N5050 1.370 . S
N5054 C5053 1.307 . S
C5055 C5053 1.486 . S
C5055 H5059 0.960 . S
C5055 H5060 0.960 . S
C5055 H5061 0.959 . S
H5056 C5052 0.960 . S
H5057 C5052 0.961 . S
H5058 C5052 0.960 . S
H5059 C5055 0.960 . S
H5060 C5055 0.960 . S
H5061 C5055 0.959 . S
C5062 N5063 1.317 . S
C5062 N5064 1.348 . S
C5062 C5065 1.485 . S
N5063 C5062 1.317 . S
N5063 N5067 1.370 . S
N5064 C5062 1.348 . S
N5064 C5066 1.346 . S
C5065 C5062 1.485 . S
C5065 H5069 0.960 . S
C5065 H5070 0.961 . S
C5065 H5071 0.960 . S
C5066 N5064 1.346 . S
C5066 N5067 1.307 . S
C5066 C5068 1.486 . S
N5067 N5063 1.370 . S
N5067 C5066 1.307 . S
C5068 C5066 1.486 . S
C5068 H5072 0.960 . S
C5068 H5073 0.960 . S
C5068 H5074 0.959 . S
H5069 C5065 0.960 . S
H5070 C5065 0.961 . S
H5071 C5065 0.960 . S
H5072 C5068 0.960 . S
H5073 C5068 0.960 . S
H5074 C5068 0.959 . S
C5075 N5076 1.317 . S
C5075 N5077 1.348 . S
C5075 C5078 1.485 . S
N5076 C5075 1.317 . S
N5076 N5080 1.370 . S
N5077 C5075 1.348 . S
N5077 C5079 1.346 . S
C5078 C5075 1.485 . S
C5078 H5082 0.960 . S
C5078 H5083 0.961 . S
C5078 H5084 0.960 . S
C5079 N5077 1.346 . S
C5079 N5080 1.307 . S
C5079 C5081 1.486 . S
N5080 N5076 1.370 . S
N5080 C5079 1.307 . S
C5081 C5079 1.486 . S
C5081 H5085 0.960 . S
C5081 H5086 0.960 . S
C5081 H5087 0.959 . S
H5082 C5078 0.960 . S
H5083 C5078 0.961 . S
H5084 C5078 0.960 . S
H5085 C5081 0.960 . S
H5086 C5081 0.960 . S
H5087 C5081 0.959 . S
H5088 C5094 0.930 . S
H5089 C5098 0.930 . S
H5090 C5103 0.929 . S
H5091 C5101 0.929 . S
H5092 C5096 0.929 . S
H5093 C5102 0.929 . S
C5094 H5088 0.930 . S
C5094 C5095 1.367 . S
C5094 C5102 1.378 . S
C5095 C5094 1.367 . S
C5095 C5103 1.433 . S
C5096 H5092 0.929 . S
C5096 C5098 1.378 . S
C5096 C5100 1.308 1_655 S
C5097 C5100 1.533 . S
C5097 C5102 1.350 . S
C5097 N5105 1.427 . S
C5098 H5089 0.930 . S
C5098 C5096 1.378 . S
C5098 C5099 1.367 . S
C5099 C5098 1.367 . S
C5099 C5101 1.433 . S
C5100 C5096 1.308 1_455 S
C5100 C5097 1.533 . S
C5100 N5104 1.405 1_455 S
C5101 H5091 0.929 . S
C5101 C5099 1.433 . S
C5101 N5104 1.384 . S
C5102 H5093 0.929 . S
C5102 C5094 1.378 . S
C5102 C5097 1.350 . S
C5103 H5090 0.929 . S
C5103 C5095 1.433 . S
C5103 N5105 1.384 . S
N5104 C5100 1.405 1_655 S
N5104 C5101 1.384 . S
N5105 C5097 1.427 . S
N5105 C5103 1.384 . S
H5106 C5112 0.930 . S
H5107 C5116 0.930 . S
H5108 C5121 0.929 . S
H5109 C5119 0.929 . S
H5110 C5114 0.929 . S
H5111 C5120 0.929 . S
C5112 H5106 0.930 . S
C5112 C5113 1.367 . S
C5112 C5120 1.378 . S
C5113 C5112 1.367 . S
C5113 C5121 1.433 . S
C5114 H5110 0.929 . S
C5114 C5116 1.378 . S
C5114 C5118 1.350 . S
C5115 C5118 1.463 . S
C5115 C5120 1.350 . S
C5115 N5123 1.427 . S
C5116 H5107 0.930 . S
C5116 C5114 1.378 . S
C5116 C5117 1.367 . S
C5117 C5116 1.367 . S
C5117 C5119 1.433 . S
C5118 C5114 1.350 . S
C5118 C5115 1.463 . S
C5118 N5122 1.427 . S
C5119 H5109 0.929 . S
C5119 C5117 1.433 . S
C5119 N5122 1.384 . S
C5120 H5111 0.929 . S
C5120 C5112 1.378 . S
C5120 C5115 1.350 . S
C5121 H5108 0.929 . S
C5121 C5113 1.433 . S
C5121 N5123 1.384 . S
N5122 C5118 1.427 . S
N5122 C5119 1.384 . S
N5123 C5115 1.427 . S
N5123 C5121 1.384 . S
H5124 C5130 0.930 . S
H5125 C5134 0.930 . S
H5126 C5139 0.929 . S
H5127 C5137 0.929 . S
H5128 C5132 0.929 . S
H5129 C5138 0.929 . S
C5130 H5124 0.930 . S
C5130 C5131 1.367 . S
C5130 C5138 1.378 . S
C5131 C5130 1.367 . S
C5131 C5139 1.433 . S
C5132 H5128 0.929 . S
C5132 C5134 1.378 . S
C5132 C5136 1.350 . S
C5133 C5136 1.463 . S
C5133 C5138 1.350 . S
C5133 N5141 1.427 . S
C5134 H5125 0.930 . S
C5134 C5132 1.378 . S
C5134 C5135 1.367 . S
C5135 C5134 1.367 . S
C5135 C5137 1.433 . S
C5136 C5132 1.350 . S
C5136 C5133 1.463 . S
C5136 N5140 1.427 . S
C5137 H5127 0.929 . S
C5137 C5135 1.433 . S
C5137 N5140 1.384 . S
C5138 H5129 0.929 . S
C5138 C5130 1.378 . S
C5138 C5133 1.350 . S
C5139 H5126 0.929 . S
C5139 C5131 1.433 . S
C5139 N5141 1.384 . S
N5140 C5136 1.427 . S
N5140 C5137 1.384 . S
N5141 C5133 1.427 . S
N5141 C5139 1.384 . S
H5142 C5148 0.930 . S
H5143 C5152 0.930 . S
H5144 C5157 0.929 . S
H5145 C5155 0.929 . S
H5146 C5150 0.929 . S
H5147 C5156 0.929 . S
C5148 H5142 0.930 . S
C5148 C5149 1.367 . S
C5148 C5156 1.378 . S
C5149 C5148 1.367 . S
C5149 C5157 1.433 . S
C5150 H5146 0.929 . S
C5150 C5152 1.378 . S
C5150 C5154 1.350 . S
C5151 C5154 1.463 . S
C5151 C5156 1.350 . S
C5151 N5159 1.427 . S
C5152 H5143 0.930 . S
C5152 C5150 1.378 . S
C5152 C5153 1.367 . S
C5153 C5152 1.367 . S
C5153 C5155 1.433 . S
C5154 C5150 1.350 . S
C5154 C5151 1.463 . S
C5154 N5158 1.427 . S
C5155 H5145 0.929 . S
C5155 C5153 1.433 . S
C5155 N5158 1.384 . S
C5156 H5147 0.929 . S
C5156 C5148 1.378 . S
C5156 C5151 1.350 . S
C5157 H5144 0.929 . S
C5157 C5149 1.433 . S
C5157 N5159 1.384 . S
N5158 C5154 1.427 . S
N5158 C5155 1.384 . S
N5159 C5151 1.427 . S
N5159 C5157 1.384 . S
H5160 C5166 0.930 . S
H5161 C5170 0.930 . S
H5162 C5175 0.929 . S
H5163 C5173 0.929 . S
H5164 C5168 0.929 1_455 S
H5165 C5174 0.929 . S
C5166 H5160 0.930 . S
C5166 C5167 1.367 . S
C5166 C5174 1.378 . S
C5167 C5166 1.367 . S
C5167 C5175 1.433 . S
C5168 H5164 0.929 1_655 S
C5168 C5170 1.378 . S
C5168 C5172 1.322 1_655 S
C5169 C5172 1.543 . S
C5169 C5174 1.350 . S
C5169 N5177 1.427 . S
C5170 H5161 0.930 . S
C5170 C5168 1.378 . S
C5170 C5171 1.367 . S
C5171 C5170 1.367 . S
C5171 C5173 1.433 . S
C5172 C5168 1.322 1_455 S
C5172 C5169 1.543 . S
C5172 N5176 1.381 1_455 S
C5173 H5163 0.929 . S
C5173 C5171 1.433 . S
C5173 N5176 1.384 . S
C5174 H5165 0.929 . S
C5174 C5166 1.378 . S
C5174 C5169 1.350 . S
C5175 H5162 0.929 . S
C5175 C5167 1.433 . S
C5175 N5177 1.384 . S
N5176 C5172 1.381 1_655 S
N5176 C5173 1.384 . S
N5177 C5169 1.427 . S
N5177 C5175 1.384 . S
H5178 C5184 0.930 . S
H5179 C5188 0.930 . S
H5180 C5193 0.929 . S
H5181 C5191 0.929 . S
H5182 C5186 0.929 . S
H5183 C5192 0.929 . S
C5184 H5178 0.930 . S
C5184 C5185 1.367 . S
C5184 C5192 1.378 . S
C5185 C5184 1.367 . S
C5185 C5193 1.433 . S
C5186 H5182 0.929 . S
C5186 C5188 1.378 . S
C5186 C5190 1.350 . S
C5187 C5190 1.463 . S
C5187 C5192 1.350 . S
C5187 N5195 1.427 . S
C5188 H5179 0.930 . S
C5188 C5186 1.378 . S
C5188 C5189 1.367 . S
C5189 C5188 1.367 . S
C5189 C5191 1.433 . S
C5190 C5186 1.350 . S
C5190 C5187 1.463 . S
C5190 N5194 1.427 . S
C5191 H5181 0.929 . S
C5191 C5189 1.433 . S
C5191 N5194 1.384 . S
C5192 H5183 0.929 . S
C5192 C5184 1.378 . S
C5192 C5187 1.350 . S
C5193 H5180 0.929 . S
C5193 C5185 1.433 . S
C5193 N5195 1.384 . S
N5194 C5190 1.427 . S
N5194 C5191 1.384 . S
N5195 C5187 1.427 . S
N5195 C5193 1.384 . S
H5196 C5202 0.930 . S
H5197 C5206 0.930 . S
H5198 C5211 0.929 . S
H5199 C5209 0.929 . S
H5200 C5204 0.929 . S
H5201 C5210 0.929 . S
C5202 H5196 0.930 . S
C5202 C5203 1.367 . S
C5202 C5210 1.378 . S
C5203 C5202 1.367 . S
C5203 C5211 1.433 . S
C5204 H5200 0.929 . S
C5204 C5206 1.378 . S
C5204 C5208 1.350 . S
C5205 C5208 1.463 . S
C5205 C5210 1.350 . S
C5205 N5213 1.427 . S
C5206 H5197 0.930 . S
C5206 C5204 1.378 . S
C5206 C5207 1.367 . S
C5207 C5206 1.367 . S
C5207 C5209 1.433 . S
C5208 C5204 1.350 . S
C5208 C5205 1.463 . S
C5208 N5212 1.427 . S
C5209 H5199 0.929 . S
C5209 C5207 1.433 . S
C5209 N5212 1.384 . S
C5210 H5201 0.929 . S
C5210 C5202 1.378 . S
C5210 C5205 1.350 . S
C5211 H5198 0.929 . S
C5211 C5203 1.433 . S
C5211 N5213 1.384 . S
N5212 C5208 1.427 . S
N5212 C5209 1.384 . S
N5213 C5205 1.427 . S
N5213 C5211 1.384 . S
H5214 C5220 0.930 . S
H5215 C5224 0.930 . S
H5216 C5229 0.929 . S
H5217 C5227 0.929 . S
H5218 C5222 0.929 . S
H5219 C5228 0.929 . S
C5220 H5214 0.930 . S
C5220 C5221 1.367 . S
C5220 C5228 1.378 . S
C5221 C5220 1.367 . S
C5221 C5229 1.433 . S
C5222 H5218 0.929 . S
C5222 C5224 1.378 . S
C5222 C5226 1.350 . S
C5223 C5226 1.463 . S
C5223 C5228 1.350 . S
C5223 N5231 1.427 . S
C5224 H5215 0.930 . S
C5224 C5222 1.378 . S
C5224 C5225 1.367 . S
C5225 C5224 1.367 . S
C5225 C5227 1.433 . S
C5226 C5222 1.350 . S
C5226 C5223 1.463 . S
C5226 N5230 1.427 . S
C5227 H5217 0.929 . S
C5227 C5225 1.433 . S
C5227 N5230 1.384 . S
C5228 H5219 0.929 . S
C5228 C5220 1.378 . S
C5228 C5223 1.350 . S
C5229 H5216 0.929 . S
C5229 C5221 1.433 . S
C5229 N5231 1.384 . S
N5230 C5226 1.427 . S
N5230 C5227 1.384 . S
N5231 C5223 1.427 . S
N5231 C5229 1.384 . S
H5232 C5238 0.930 . S
H5233 C5242 0.930 . S
H5234 C5247 0.929 . S
H5235 C5245 0.929 . S
H5236 C5240 0.960 . S
H5237 C5246 0.929 . S
C5238 H5232 0.930 . S
C5238 C5239 1.367 . S
C5238 C5246 1.378 . S
C5239 C5238 1.367 . S
C5239 C5247 1.433 . S
C5240 H5236 0.960 . S
C5240 C5242 1.378 . S
C5240 C5244 1.321 1_565 S
C5241 C5244 1.527 . S
C5241 C5246 1.350 . S
C5241 N5249 1.427 . S
C5242 H5233 0.930 . S
C5242 C5240 1.378 . S
C5242 C5243 1.367 . S
C5243 C5242 1.367 . S
C5243 C5245 1.433 . S
C5244 C5240 1.321 1_545 S
C5244 C5241 1.527 . S
C5244 N5248 1.398 1_545 S
C5245 H5235 0.929 . S
C5245 C5243 1.433 . S
C5245 N5248 1.384 . S
C5246 H5237 0.929 . S
C5246 C5238 1.378 . S
C5246 C5241 1.350 . S
C5247 H5234 0.929 . S
C5247 C5239 1.433 . S
C5247 N5249 1.384 . S
N5248 C5244 1.398 1_565 S
N5248 C5245 1.384 . S
N5249 C5241 1.427 . S
N5249 C5247 1.384 . S
H5250 C5256 0.930 . S
H5251 C5260 0.930 . S
H5252 C5265 0.929 . S
H5253 C5263 0.929 . S
H5254 C5258 0.929 . S
H5255 C5264 0.929 . S
C5256 H5250 0.930 . S
C5256 C5257 1.367 . S
C5256 C5264 1.378 . S
C5257 C5256 1.367 . S
C5257 C5265 1.433 . S
C5258 H5254 0.929 . S
C5258 C5260 1.378 . S
C5258 C5262 1.350 . S
C5259 C5262 1.463 . S
C5259 C5264 1.350 . S
C5259 N5267 1.427 . S
C5260 H5251 0.930 . S
C5260 C5258 1.378 . S
C5260 C5261 1.367 . S
C5261 C5260 1.367 . S
C5261 C5263 1.433 . S
C5262 C5258 1.350 . S
C5262 C5259 1.463 . S
C5262 N5266 1.427 . S
C5263 H5253 0.929 . S
C5263 C5261 1.433 . S
C5263 N5266 1.384 . S
C5264 H5255 0.929 . S
C5264 C5256 1.378 . S
C5264 C5259 1.350 . S
C5265 H5252 0.929 . S
C5265 C5257 1.433 . S
C5265 N5267 1.384 . S
N5266 C5262 1.427 . S
N5266 C5263 1.384 . S
N5267 C5259 1.427 . S
N5267 C5265 1.384 . S
H5268 C5274 0.930 . S
H5269 C5278 0.930 . S
H5270 C5283 0.929 . S
H5271 C5281 0.929 . S
H5272 C5276 0.929 . S
H5273 C5282 0.929 . S
C5274 H5268 0.930 . S
C5274 C5275 1.367 . S
C5274 C5282 1.378 . S
C5275 C5274 1.367 . S
C5275 C5283 1.433 . S
C5276 H5272 0.929 . S
C5276 C5278 1.378 . S
C5276 C5280 1.314 1_545 S
C5277 C5280 1.528 . S
C5277 C5282 1.350 . S
C5277 N5285 1.427 . S
C5278 H5269 0.930 . S
C5278 C5276 1.378 . S
C5278 C5279 1.367 . S
C5279 C5278 1.367 . S
C5279 C5281 1.433 . S
C5280 C5276 1.314 1_565 S
C5280 C5277 1.528 . S
C5280 N5284 1.403 1_565 S
C5281 H5271 0.929 . S
C5281 C5279 1.433 . S
C5281 N5284 1.384 . S
C5282 H5273 0.929 . S
C5282 C5274 1.378 . S
C5282 C5277 1.350 . S
C5283 H5270 0.929 . S
C5283 C5275 1.433 . S
C5283 N5285 1.384 . S
N5284 C5280 1.403 1_545 S
N5284 C5281 1.384 . S
N5285 C5277 1.427 . S
N5285 C5283 1.384 . S
H5286 C5292 0.930 . S
H5287 C5296 0.930 . S
H5288 C5301 0.929 . S
H5289 C5299 0.929 . S
H5290 C5294 0.929 . S
H5291 C5300 0.929 . S
C5292 H5286 0.930 . S
C5292 C5293 1.367 . S
C5292 C5300 1.378 . S
C5293 C5292 1.367 . S
C5293 C5301 1.433 . S
C5294 H5290 0.929 . S
C5294 C5296 1.378 . S
C5294 C5298 1.350 . S
C5295 C5298 1.463 . S
C5295 C5300 1.350 . S
C5295 N5303 1.427 . S
C5296 H5287 0.930 . S
C5296 C5294 1.378 . S
C5296 C5297 1.367 . S
C5297 C5296 1.367 . S
C5297 C5299 1.433 . S
C5298 C5294 1.350 . S
C5298 C5295 1.463 . S
C5298 N5302 1.427 . S
C5299 H5289 0.929 . S
C5299 C5297 1.433 . S
C5299 N5302 1.384 . S
C5300 H5291 0.929 . S
C5300 C5292 1.378 . S
C5300 C5295 1.350 . S
C5301 H5288 0.929 . S
C5301 C5293 1.433 . S
C5301 N5303 1.384 . S
N5302 C5298 1.427 . S
N5302 C5299 1.384 . S
N5303 C5295 1.427 . S
N5303 C5301 1.384 . S
H5304 C5310 0.930 . S
H5305 C5314 0.930 . S
H5306 C5319 0.929 . S
H5307 C5317 0.929 . S
H5308 C5312 0.929 . S
H5309 C5318 0.929 . S
C5310 H5304 0.930 . S
C5310 C5311 1.367 . S
C5310 C5318 1.378 . S
C5311 C5310 1.367 . S
C5311 C5319 1.433 . S
C5312 H5308 0.929 . S
C5312 C5314 1.378 . S
C5312 C5316 1.316 1_545 S
C5313 C5316 1.522 . S
C5313 C5318 1.350 . S
C5313 N5321 1.427 . S
C5314 H5305 0.930 . S
C5314 C5312 1.378 . S
C5314 C5315 1.367 . S
C5315 C5314 1.367 . S
C5315 C5317 1.433 . S
C5316 C5312 1.316 1_565 S
C5316 C5313 1.522 . S
C5316 N5320 1.406 1_565 S
C5317 H5307 0.929 . S
C5317 C5315 1.433 . S
C5317 N5320 1.384 . S
C5318 H5309 0.929 . S
C5318 C5310 1.378 . S
C5318 C5313 1.350 . S
C5319 H5306 0.929 . S
C5319 C5311 1.433 . S
C5319 N5321 1.384 . S
N5320 C5316 1.406 1_545 S
N5320 C5317 1.384 . S
N5321 C5313 1.427 . S
N5321 C5319 1.384 . S
H5322 C5328 0.930 . S
H5323 C5332 0.930 . S
H5324 C5337 0.929 . S
H5325 C5335 0.929 . S
H5326 C5330 0.929 . S
H5327 C5336 0.929 . S
C5328 H5322 0.930 . S
C5328 C5329 1.367 . S
C5328 C5336 1.378 . S
C5329 C5328 1.367 . S
C5329 C5337 1.433 . S
C5330 H5326 0.929 . S
C5330 C5332 1.378 . S
C5330 C5334 1.350 . S
C5331 C5334 1.463 . S
C5331 C5336 1.350 . S
C5331 N5339 1.427 . S
C5332 H5323 0.930 . S
C5332 C5330 1.378 . S
C5332 C5333 1.367 . S
C5333 C5332 1.367 . S
C5333 C5335 1.433 . S
C5334 C5330 1.350 . S
C5334 C5331 1.463 . S
C5334 N5338 1.427 . S
C5335 H5325 0.929 . S
C5335 C5333 1.433 . S
C5335 N5338 1.384 . S
C5336 H5327 0.929 . S
C5336 C5328 1.378 . S
C5336 C5331 1.350 . S
C5337 H5324 0.929 . S
C5337 C5329 1.433 . S
C5337 N5339 1.384 . S
N5338 C5334 1.427 . S
N5338 C5335 1.384 . S
N5339 C5331 1.427 . S
N5339 C5337 1.384 . S
H5340 C5346 0.930 . S
H5341 C5350 0.930 . S
H5342 C5355 0.929 . S
H5343 C5353 0.929 . S
H5344 C5348 0.929 . S
H5345 C5354 0.929 . S
C5346 H5340 0.930 . S
C5346 C5347 1.367 . S
C5346 C5354 1.378 . S
C5347 C5346 1.367 . S
C5347 C5355 1.433 . S
C5348 H5344 0.929 . S
C5348 C5350 1.378 . S
C5348 C5352 1.314 1_565 S
C5349 C5352 1.528 . S
C5349 C5354 1.350 . S
C5349 N5357 1.427 . S
C5350 H5341 0.930 . S
C5350 C5348 1.378 . S
C5350 C5351 1.367 . S
C5351 C5350 1.367 . S
C5351 C5353 1.433 . S
C5352 C5348 1.314 1_545 S
C5352 C5349 1.528 . S
C5352 N5356 1.403 1_545 S
C5353 H5343 0.929 . S
C5353 C5351 1.433 . S
C5353 N5356 1.384 . S
C5354 H5345 0.929 . S
C5354 C5346 1.378 . S
C5354 C5349 1.350 . S
C5355 H5342 0.929 . S
C5355 C5347 1.433 . S
C5355 N5357 1.384 . S
N5356 C5352 1.403 1_565 S
N5356 C5353 1.384 . S
N5357 C5349 1.427 . S
N5357 C5355 1.384 . S
H5358 C5364 0.930 . S
H5359 C5368 0.930 . S
H5360 C5373 0.929 . S
H5361 C5371 0.929 . S
H5362 C5366 0.929 . S
H5363 C5372 0.929 . S
C5364 H5358 0.930 . S
C5364 C5365 1.367 . S
C5364 C5372 1.378 . S
C5365 C5364 1.367 . S
C5365 C5373 1.433 . S
C5366 H5362 0.929 . S
C5366 C5368 1.378 . S
C5366 C5370 1.350 . S
C5367 C5370 1.463 . S
C5367 C5372 1.350 . S
C5367 N5375 1.427 . S
C5368 H5359 0.930 . S
C5368 C5366 1.378 . S
C5368 C5369 1.367 . S
C5369 C5368 1.367 . S
C5369 C5371 1.433 . S
C5370 C5366 1.350 . S
C5370 C5367 1.463 . S
C5370 N5374 1.427 . S
C5371 H5361 0.929 . S
C5371 C5369 1.433 . S
C5371 N5374 1.384 . S
C5372 H5363 0.929 . S
C5372 C5364 1.378 . S
C5372 C5367 1.350 . S
C5373 H5360 0.929 . S
C5373 C5365 1.433 . S
C5373 N5375 1.384 . S
N5374 C5370 1.427 . S
N5374 C5371 1.384 . S
N5375 C5367 1.427 . S
N5375 C5373 1.384 . S
H5376 C5382 0.930 . S
H5377 C5386 0.930 . S
H5378 C5391 0.929 . S
H5379 C5389 0.929 . S
H5380 C5384 0.929 . S
H5381 C5390 0.929 . S
C5382 H5376 0.930 . S
C5382 C5383 1.367 . S
C5382 C5390 1.378 . S
C5383 C5382 1.367 . S
C5383 C5391 1.433 . S
C5384 H5380 0.929 . S
C5384 C5386 1.378 . S
C5384 C5388 1.312 1_556 S
C5385 C5388 1.530 . S
C5385 C5390 1.350 . S
C5385 N5393 1.427 . S
C5386 H5377 0.930 . S
C5386 C5384 1.378 . S
C5386 C5387 1.367 . S
C5387 C5386 1.367 . S
C5387 C5389 1.433 . S
C5388 C5384 1.312 1_554 S
C5388 C5385 1.530 . S
C5388 N5392 1.403 1_554 S
C5389 H5379 0.929 . S
C5389 C5387 1.433 . S
C5389 N5392 1.384 . S
C5390 H5381 0.929 . S
C5390 C5382 1.378 . S
C5390 C5385 1.350 . S
C5391 H5378 0.929 . S
C5391 C5383 1.433 . S
C5391 N5393 1.384 . S
N5392 C5388 1.403 1_556 S
N5392 C5389 1.384 . S
N5393 C5385 1.427 . S
N5393 C5391 1.384 . S
H5394 C5400 0.930 . S
H5395 C5404 0.930 . S
H5396 C5409 0.929 . S
H5397 C5407 0.929 . S
H5398 C5402 0.929 . S
H5399 C5408 0.929 . S
C5400 H5394 0.930 . S
C5400 C5401 1.367 . S
C5400 C5408 1.378 . S
C5401 C5400 1.367 . S
C5401 C5409 1.433 . S
C5402 H5398 0.929 . S
C5402 C5404 1.378 . S
C5402 C5406 1.311 1_554 S
C5403 C5406 1.529 . S
C5403 C5408 1.350 . S
C5403 N5411 1.427 . S
C5404 H5395 0.930 . S
C5404 C5402 1.378 . S
C5404 C5405 1.367 . S
C5405 C5404 1.367 . S
C5405 C5407 1.433 . S
C5406 C5402 1.311 1_556 S
C5406 C5403 1.529 . S
C5406 N5410 1.406 1_556 S
C5407 H5397 0.929 . S
C5407 C5405 1.433 . S
C5407 N5410 1.384 . S
C5408 H5399 0.929 . S
C5408 C5400 1.378 . S
C5408 C5403 1.350 . S
C5409 H5396 0.929 . S
C5409 C5401 1.433 . S
C5409 N5411 1.384 . S
N5410 C5406 1.406 1_554 S
N5410 C5407 1.384 . S
N5411 C5403 1.427 . S
N5411 C5409 1.384 . S
H5412 C5418 0.930 . S
H5413 C5422 0.930 . S
H5414 C5427 0.929 . S
H5415 C5425 0.929 . S
H5416 C5420 0.929 . S
H5417 C5426 0.929 . S
C5418 H5412 0.930 . S
C5418 C5419 1.367 . S
C5418 C5426 1.378 . S
C5419 C5418 1.367 . S
C5419 C5427 1.433 . S
C5420 H5416 0.929 . S
C5420 C5422 1.378 . S
C5420 C5424 1.350 . S
C5421 C5424 1.463 . S
C5421 C5426 1.350 . S
C5421 N5429 1.427 . S
C5422 H5413 0.930 . S
C5422 C5420 1.378 . S
C5422 C5423 1.367 . S
C5423 C5422 1.367 . S
C5423 C5425 1.433 . S
C5424 C5420 1.350 . S
C5424 C5421 1.463 . S
C5424 N5428 1.427 . S
C5425 H5415 0.929 . S
C5425 C5423 1.433 . S
C5425 N5428 1.384 . S
C5426 H5417 0.929 . S
C5426 C5418 1.378 . S
C5426 C5421 1.350 . S
C5427 H5414 0.929 . S
C5427 C5419 1.433 . S
C5427 N5429 1.384 . S
N5428 C5424 1.427 . S
N5428 C5425 1.384 . S
N5429 C5421 1.427 . S
N5429 C5427 1.384 . S
H5430 C5436 0.930 . S
H5431 C5440 0.930 . S
H5432 C5445 0.929 . S
H5433 C5443 0.929 . S
H5434 C5438 0.929 . S
H5435 C5444 0.929 . S
C5436 H5430 0.930 . S
C5436 C5437 1.367 . S
C5436 C5444 1.378 . S
C5437 C5436 1.367 . S
C5437 C5445 1.433 . S
C5438 H5434 0.929 . S
C5438 C5440 1.378 . S
C5438 C5442 1.350 . S
C5439 C5442 1.463 . S
C5439 C5444 1.350 . S
C5439 N5447 1.427 . S
C5440 H5431 0.930 . S
C5440 C5438 1.378 . S
C5440 C5441 1.367 . S
C5441 C5440 1.367 . S
C5441 C5443 1.433 . S
C5442 C5438 1.350 . S
C5442 C5439 1.463 . S
C5442 N5446 1.427 . S
C5443 H5433 0.929 . S
C5443 C5441 1.433 . S
C5443 N5446 1.384 . S
C5444 H5435 0.929 . S
C5444 C5436 1.378 . S
C5444 C5439 1.350 . S
C5445 H5432 0.929 . S
C5445 C5437 1.433 . S
C5445 N5447 1.384 . S
N5446 C5442 1.427 . S
N5446 C5443 1.384 . S
N5447 C5439 1.427 . S
N5447 C5445 1.384 . S
H5448 C5454 0.930 . S
H5449 C5458 0.930 . S
H5450 C5463 0.929 . S
H5451 C5461 0.929 . S
H5452 C5456 0.929 . S
H5453 C5462 0.929 . S
C5454 H5448 0.930 . S
C5454 C5455 1.367 . S
C5454 C5462 1.378 . S
C5455 C5454 1.367 . S
C5455 C5463 1.433 . S
C5456 H5452 0.929 . S
C5456 C5458 1.378 . S
C5456 C5460 1.350 . S
C5457 C5460 1.463 . S
C5457 C5462 1.350 . S
C5457 N5465 1.427 . S
C5458 H5449 0.930 . S
C5458 C5456 1.378 . S
C5458 C5459 1.367 . S
C5459 C5458 1.367 . S
C5459 C5461 1.433 . S
C5460 C5456 1.350 . S
C5460 C5457 1.463 . S
C5460 N5464 1.427 . S
C5461 H5451 0.929 . S
C5461 C5459 1.433 . S
C5461 N5464 1.384 . S
C5462 H5453 0.929 . S
C5462 C5454 1.378 . S
C5462 C5457 1.350 . S
C5463 H5450 0.929 . S
C5463 C5455 1.433 . S
C5463 N5465 1.384 . S
N5464 C5460 1.427 . S
N5464 C5461 1.384 . S
N5465 C5457 1.427 . S
N5465 C5463 1.384 . S
H5466 C5472 0.930 . S
H5467 C5476 0.930 . S
H5468 C5481 0.929 . S
H5469 C5479 0.929 . S
H5470 C5474 0.929 . S
H5471 C5480 0.929 . S
C5472 H5466 0.930 . S
C5472 C5473 1.367 . S
C5472 C5480 1.378 . S
C5473 C5472 1.367 . S
C5473 C5481 1.433 . S
C5474 H5470 0.929 . S
C5474 C5476 1.378 . S
C5474 C5478 1.350 . S
C5475 C5478 1.463 . S
C5475 C5480 1.350 . S
C5475 N5483 1.427 . S
C5476 H5467 0.930 . S
C5476 C5474 1.378 . S
C5476 C5477 1.367 . S
C5477 C5476 1.367 . S
C5477 C5479 1.433 . S
C5478 C5474 1.350 . S
C5478 C5475 1.463 . S
C5478 N5482 1.427 . S
C5479 H5469 0.929 . S
C5479 C5477 1.433 . S
C5479 N5482 1.384 . S
C5480 H5471 0.929 . S
C5480 C5472 1.378 . S
C5480 C5475 1.350 . S
C5481 H5468 0.929 . S
C5481 C5473 1.433 . S
C5481 N5483 1.384 . S
N5482 C5478 1.427 . S
N5482 C5479 1.384 . S
N5483 C5475 1.427 . S
N5483 C5481 1.384 . S
H5484 C5490 0.930 . S
H5485 C5494 0.930 . S
H5486 C5499 0.929 . S
H5487 C5497 0.929 . S
H5488 C5492 0.929 . S
H5489 C5498 0.929 . S
C5490 H5484 0.930 . S
C5490 C5491 1.367 . S
C5490 C5498 1.378 . S
C5491 C5490 1.367 . S
C5491 C5499 1.433 . S
C5492 H5488 0.929 . S
C5492 C5494 1.378 . S
C5492 C5496 1.350 . S
C5493 C5496 1.463 . S
C5493 C5498 1.350 . S
C5493 N5501 1.427 . S
C5494 H5485 0.930 . S
C5494 C5492 1.378 . S
C5494 C5495 1.367 . S
C5495 C5494 1.367 . S
C5495 C5497 1.433 . S
C5496 C5492 1.350 . S
C5496 C5493 1.463 . S
C5496 N5500 1.427 . S
C5497 H5487 0.929 . S
C5497 C5495 1.433 . S
C5497 N5500 1.384 . S
C5498 H5489 0.929 . S
C5498 C5490 1.378 . S
C5498 C5493 1.350 . S
C5499 H5486 0.929 . S
C5499 C5491 1.433 . S
C5499 N5501 1.384 . S
N5500 C5496 1.427 . S
N5500 C5497 1.384 . S
N5501 C5493 1.427 . S
N5501 C5499 1.384 . S
H5502 C5508 0.930 . S
H5503 C5512 0.930 . S
H5504 C5517 0.929 . S
H5505 C5515 0.929 . S
H5506 C5510 0.929 . S
H5507 C5516 0.929 . S
C5508 H5502 0.930 . S
C5508 C5509 1.367 . S
C5508 C5516 1.378 . S
C5509 C5508 1.367 . S
C5509 C5517 1.433 . S
C5510 H5506 0.929 . S
C5510 C5512 1.378 . S
C5510 C5514 1.350 . S
C5511 C5514 1.463 . S
C5511 C5516 1.350 . S
C5511 N5519 1.427 . S
C5512 H5503 0.930 . S
C5512 C5510 1.378 . S
C5512 C5513 1.367 . S
C5513 C5512 1.367 . S
C5513 C5515 1.433 . S
C5514 C5510 1.350 . S
C5514 C5511 1.463 . S
C5514 N5518 1.427 . S
C5515 H5505 0.929 . S
C5515 C5513 1.433 . S
C5515 N5518 1.384 . S
C5516 H5507 0.929 . S
C5516 C5508 1.378 . S
C5516 C5511 1.350 . S
C5517 H5504 0.929 . S
C5517 C5509 1.433 . S
C5517 N5519 1.384 . S
N5518 C5514 1.427 . S
N5518 C5515 1.384 . S
N5519 C5511 1.427 . S
N5519 C5517 1.384 . S
H5520 C5526 0.930 . S
H5521 C5530 0.930 . S
H5522 C5535 0.929 . S
H5523 C5533 0.929 . S
H5524 C5528 0.941 . S
H5525 C5534 0.929 . S
C5526 H5520 0.930 . S
C5526 C5527 1.367 . S
C5526 C5534 1.378 . S
C5527 C5526 1.367 . S
C5527 C5535 1.433 . S
C5528 H5524 0.941 . S
C5528 C5530 1.378 . S
C5528 C5532 1.321 1_455 S
C5529 C5532 1.529 . S
C5529 C5534 1.350 . S
C5529 N5537 1.427 . S
C5530 H5521 0.930 . S
C5530 C5528 1.378 . S
C5530 C5531 1.367 . S
C5531 C5530 1.367 . S
C5531 C5533 1.433 . S
C5532 C5528 1.321 1_655 S
C5532 C5529 1.529 . S
C5532 N5536 1.396 1_655 S
C5533 H5523 0.929 . S
C5533 C5531 1.433 . S
C5533 N5536 1.384 . S
C5534 H5525 0.929 . S
C5534 C5526 1.378 . S
C5534 C5529 1.350 . S
C5535 H5522 0.929 . S
C5535 C5527 1.433 . S
C5535 N5537 1.384 . S
N5536 C5532 1.396 1_455 S
N5536 C5533 1.384 . S
N5537 C5529 1.427 . S
N5537 C5535 1.384 . S
H5538 C5544 0.930 . S
H5539 C5548 0.930 . S
H5540 C5553 0.929 . S
H5541 C5551 0.929 . S
H5542 C5546 0.929 . S
H5543 C5552 0.929 . S
C5544 H5538 0.930 . S
C5544 C5545 1.367 . S
C5544 C5552 1.378 . S
C5545 C5544 1.367 . S
C5545 C5553 1.433 . S
C5546 H5542 0.929 . S
C5546 C5548 1.378 . S
C5546 C5550 1.350 . S
C5547 C5550 1.463 . S
C5547 C5552 1.350 . S
C5547 N5555 1.427 . S
C5548 H5539 0.930 . S
C5548 C5546 1.378 . S
C5548 C5549 1.367 . S
C5549 C5548 1.367 . S
C5549 C5551 1.433 . S
C5550 C5546 1.350 . S
C5550 C5547 1.463 . S
C5550 N5554 1.427 . S
C5551 H5541 0.929 . S
C5551 C5549 1.433 . S
C5551 N5554 1.384 . S
C5552 H5543 0.929 . S
C5552 C5544 1.378 . S
C5552 C5547 1.350 . S
C5553 H5540 0.929 . S
C5553 C5545 1.433 . S
C5553 N5555 1.384 . S
N5554 C5550 1.427 . S
N5554 C5551 1.384 . S
N5555 C5547 1.427 . S
N5555 C5553 1.384 . S
H5556 C5562 0.930 . S
H5557 C5566 0.930 . S
H5558 C5571 0.929 . S
H5559 C5569 0.929 . S
H5560 C5564 0.929 . S
H5561 C5570 0.929 . S
C5562 H5556 0.930 . S
C5562 C5563 1.367 . S
C5562 C5570 1.378 . S
C5563 C5562 1.367 . S
C5563 C5571 1.433 . S
C5564 H5560 0.929 . S
C5564 C5566 1.378 . S
C5564 C5568 1.350 . S
C5565 C5568 1.463 . S
C5565 C5570 1.350 . S
C5565 N5573 1.427 . S
C5566 H5557 0.930 . S
C5566 C5564 1.378 . S
C5566 C5567 1.367 . S
C5567 C5566 1.367 . S
C5567 C5569 1.433 . S
C5568 C5564 1.350 . S
C5568 C5565 1.463 . S
C5568 N5572 1.427 . S
C5569 H5559 0.929 . S
C5569 C5567 1.433 . S
C5569 N5572 1.384 . S
C5570 H5561 0.929 . S
C5570 C5562 1.378 . S
C5570 C5565 1.350 . S
C5571 H5558 0.929 . S
C5571 C5563 1.433 . S
C5571 N5573 1.384 . S
N5572 C5568 1.427 . S
N5572 C5569 1.384 . S
N5573 C5565 1.427 . S
N5573 C5571 1.384 . S
H5574 C5580 0.930 . S
H5575 C5584 0.930 . S
H5576 C5589 0.929 . S
H5577 C5587 0.929 . S
H5578 C5582 0.929 . S
H5579 C5588 0.929 . S
C5580 H5574 0.930 . S
C5580 C5581 1.367 . S
C5580 C5588 1.378 . S
C5581 C5580 1.367 . S
C5581 C5589 1.433 . S
C5582 H5578 0.929 . S
C5582 C5584 1.378 . S
C5582 C5586 1.350 . S
C5583 C5586 1.463 . S
C5583 C5588 1.350 . S
C5583 N5591 1.427 . S
C5584 H5575 0.930 . S
C5584 C5582 1.378 . S
C5584 C5585 1.367 . S
C5585 C5584 1.367 . S
C5585 C5587 1.433 . S
C5586 C5582 1.350 . S
C5586 C5583 1.463 . S
C5586 N5590 1.427 . S
C5587 H5577 0.929 . S
C5587 C5585 1.433 . S
C5587 N5590 1.384 . S
C5588 H5579 0.929 . S
C5588 C5580 1.378 . S
C5588 C5583 1.350 . S
C5589 H5576 0.929 . S
C5589 C5581 1.433 . S
C5589 N5591 1.384 . S
N5590 C5586 1.427 . S
N5590 C5587 1.384 . S
N5591 C5583 1.427 . S
N5591 C5589 1.384 . S
H5592 C5598 0.930 . S
H5593 C5602 0.930 . S
H5594 C5607 0.929 . S
H5595 C5605 0.929 . S
H5596 C5600 0.944 . S
H5597 C5606 0.929 . S
C5598 H5592 0.930 . S
C5598 C5599 1.367 . S
C5598 C5606 1.378 . S
C5599 C5598 1.367 . S
C5599 C5607 1.433 . S
C5600 H5596 0.944 . S
C5600 C5602 1.378 . S
C5600 C5604 1.320 1_455 S
C5601 C5604 1.529 . S
C5601 C5606 1.350 . S
C5601 N5609 1.427 . S
C5602 H5593 0.930 . S
C5602 C5600 1.378 . S
C5602 C5603 1.367 . S
C5603 C5602 1.367 . S
C5603 C5605 1.433 . S
C5604 C5600 1.320 1_655 S
C5604 C5601 1.529 . S
C5604 N5608 1.396 1_655 S
C5605 H5595 0.929 . S
C5605 C5603 1.433 . S
C5605 N5608 1.384 . S
C5606 H5597 0.929 . S
C5606 C5598 1.378 . S
C5606 C5601 1.350 . S
C5607 H5594 0.929 . S
C5607 C5599 1.433 . S
C5607 N5609 1.384 . S
N5608 C5604 1.396 1_455 S
N5608 C5605 1.384 . S
N5609 C5601 1.427 . S
N5609 C5607 1.384 . S
H5610 C5616 0.930 . S
H5611 C5620 0.930 . S
H5612 C5625 0.929 . S
H5613 C5623 0.929 . S
H5614 C5618 0.929 . S
H5615 C5624 0.929 . S
C5616 H5610 0.930 . S
C5616 C5617 1.367 . S
C5616 C5624 1.378 . S
C5617 C5616 1.367 . S
C5617 C5625 1.433 . S
C5618 H5614 0.929 . S
C5618 C5620 1.378 . S
C5618 C5622 1.350 . S
C5619 C5622 1.463 . S
C5619 C5624 1.350 . S
C5619 N5627 1.427 . S
C5620 H5611 0.930 . S
C5620 C5618 1.378 . S
C5620 C5621 1.367 . S
C5621 C5620 1.367 . S
C5621 C5623 1.433 . S
C5622 C5618 1.350 . S
C5622 C5619 1.463 . S
C5622 N5626 1.427 . S
C5623 H5613 0.929 . S
C5623 C5621 1.433 . S
C5623 N5626 1.384 . S
C5624 H5615 0.929 . S
C5624 C5616 1.378 . S
C5624 C5619 1.350 . S
C5625 H5612 0.929 . S
C5625 C5617 1.433 . S
C5625 N5627 1.384 . S
N5626 C5622 1.427 . S
N5626 C5623 1.384 . S
N5627 C5619 1.427 . S
N5627 C5625 1.384 . S
H5628 C5634 0.930 . S
H5629 C5638 0.930 . S
H5630 C5643 0.929 . S
H5631 C5641 0.929 . S
H5632 C5636 0.929 . S
H5633 C5642 0.929 . S
C5634 H5628 0.930 . S
C5634 C5635 1.367 . S
C5634 C5642 1.378 . S
C5635 C5634 1.367 . S
C5635 C5643 1.433 . S
C5636 H5632 0.929 . S
C5636 C5638 1.378 . S
C5636 C5640 1.350 . S
C5637 C5640 1.463 . S
C5637 C5642 1.350 . S
C5637 N5645 1.427 . S
C5638 H5629 0.930 . S
C5638 C5636 1.378 . S
C5638 C5639 1.367 . S
C5639 C5638 1.367 . S
C5639 C5641 1.433 . S
C5640 C5636 1.350 . S
C5640 C5637 1.463 . S
C5640 N5644 1.427 . S
C5641 H5631 0.929 . S
C5641 C5639 1.433 . S
C5641 N5644 1.384 . S
C5642 H5633 0.929 . S
C5642 C5634 1.378 . S
C5642 C5637 1.350 . S
C5643 H5630 0.929 . S
C5643 C5635 1.433 . S
C5643 N5645 1.384 . S
N5644 C5640 1.427 . S
N5644 C5641 1.384 . S
N5645 C5637 1.427 . S
N5645 C5643 1.384 . S
H5646 C5652 0.930 . S
H5647 C5656 0.930 . S
H5648 C5661 0.929 . S
H5649 C5659 0.929 . S
H5650 C5654 0.929 . S
H5651 C5660 0.929 . S
C5652 H5646 0.930 . S
C5652 C5653 1.367 . S
C5652 C5660 1.378 . S
C5653 C5652 1.367 . S
C5653 C5661 1.433 . S
C5654 H5650 0.929 . S
C5654 C5656 1.378 . S
C5654 C5658 1.350 . S
C5655 C5658 1.463 . S
C5655 C5660 1.350 . S
C5655 N5663 1.427 . S
C5656 H5647 0.930 . S
C5656 C5654 1.378 . S
C5656 C5657 1.367 . S
C5657 C5656 1.367 . S
C5657 C5659 1.433 . S
C5658 C5654 1.350 . S
C5658 C5655 1.463 . S
C5658 N5662 1.427 . S
C5659 H5649 0.929 . S
C5659 C5657 1.433 . S
C5659 N5662 1.384 . S
C5660 H5651 0.929 . S
C5660 C5652 1.378 . S
C5660 C5655 1.350 . S
C5661 H5648 0.929 . S
C5661 C5653 1.433 . S
C5661 N5663 1.384 . S
N5662 C5658 1.427 . S
N5662 C5659 1.384 . S
N5663 C5655 1.427 . S
N5663 C5661 1.384 . S
H5664 C5670 0.930 . S
H5665 C5674 0.930 . S
H5666 C5679 0.929 . S
H5667 C5677 0.929 . S
H5668 C5672 0.929 . S
H5669 C5678 0.929 . S
C5670 H5664 0.930 . S
C5670 C5671 1.367 . S
C5670 C5678 1.378 . S
C5671 C5670 1.367 . S
C5671 C5679 1.433 . S
C5672 H5668 0.929 . S
C5672 C5674 1.378 . S
C5672 C5676 1.316 1_545 S
C5673 C5676 1.520 . S
C5673 C5678 1.350 . S
C5673 N5681 1.427 . S
C5674 H5665 0.930 . S
C5674 C5672 1.378 . S
C5674 C5675 1.367 . S
C5675 C5674 1.367 . S
C5675 C5677 1.433 . S
C5676 C5672 1.316 1_565 S
C5676 C5673 1.520 . S
C5676 N5680 1.409 1_565 S
C5677 H5667 0.929 . S
C5677 C5675 1.433 . S
C5677 N5680 1.384 . S
C5678 H5669 0.929 . S
C5678 C5670 1.378 . S
C5678 C5673 1.350 . S
C5679 H5666 0.929 . S
C5679 C5671 1.433 . S
C5679 N5681 1.384 . S
N5680 C5676 1.409 1_545 S
N5680 C5677 1.384 . S
N5681 C5673 1.427 . S
N5681 C5679 1.384 . S
H5682 C5688 0.930 . S
H5683 C5692 0.930 . S
H5684 C5697 0.929 . S
H5685 C5695 0.929 . S
H5686 C5690 0.929 . S
H5687 C5696 0.929 . S
C5688 H5682 0.930 . S
C5688 C5689 1.367 . S
C5688 C5696 1.378 . S
C5689 C5688 1.367 . S
C5689 C5697 1.433 . S
C5690 H5686 0.929 . S
C5690 C5692 1.378 . S
C5690 C5694 1.350 . S
C5691 C5694 1.463 . S
C5691 C5696 1.350 . S
C5691 N5699 1.427 . S
C5692 H5683 0.930 . S
C5692 C5690 1.378 . S
C5692 C5693 1.367 . S
C5693 C5692 1.367 . S
C5693 C5695 1.433 . S
C5694 C5690 1.350 . S
C5694 C5691 1.463 . S
C5694 N5698 1.427 . S
C5695 H5685 0.929 . S
C5695 C5693 1.433 . S
C5695 N5698 1.384 . S
C5696 H5687 0.929 . S
C5696 C5688 1.378 . S
C5696 C5691 1.350 . S
C5697 H5684 0.929 . S
C5697 C5689 1.433 . S
C5697 N5699 1.384 . S
N5698 C5694 1.427 . S
N5698 C5695 1.384 . S
N5699 C5691 1.427 . S
N5699 C5697 1.384 . S
H5700 C5706 0.930 . S
H5701 C5710 0.930 . S
H5702 C5715 0.929 . S
H5703 C5713 0.929 . S
H5704 C5708 0.929 1_545 S
H5705 C5714 0.929 . S
C5706 H5700 0.930 . S
C5706 C5707 1.367 . S
C5706 C5714 1.378 . S
C5707 C5706 1.367 . S
C5707 C5715 1.433 . S
C5708 H5704 0.929 1_565 S
C5708 C5710 1.378 . S
C5708 C5712 1.326 1_565 S
C5709 C5712 1.532 . S
C5709 C5714 1.350 . S
C5709 N5717 1.427 . S
C5710 H5701 0.930 . S
C5710 C5708 1.378 . S
C5710 C5711 1.367 . S
C5711 C5710 1.367 . S
C5711 C5713 1.433 . S
C5712 C5708 1.326 1_545 S
C5712 C5709 1.532 . S
C5712 N5716 1.387 1_545 S
C5713 H5703 0.929 . S
C5713 C5711 1.433 . S
C5713 N5716 1.384 . S
C5714 H5705 0.929 . S
C5714 C5706 1.378 . S
C5714 C5709 1.350 . S
C5715 H5702 0.929 . S
C5715 C5707 1.433 . S
C5715 N5717 1.384 . S
N5716 C5712 1.387 1_565 S
N5716 C5713 1.384 . S
N5717 C5709 1.427 . S
N5717 C5715 1.384 . S
H5718 C5724 0.930 . S
H5719 C5728 0.930 . S
H5720 C5733 0.929 . S
H5721 C5731 0.929 . S
H5722 C5726 0.929 . S
H5723 C5732 0.929 . S
C5724 H5718 0.930 . S
C5724 C5725 1.367 . S
C5724 C5732 1.378 . S
C5725 C5724 1.367 . S
C5725 C5733 1.433 . S
C5726 H5722 0.929 . S
C5726 C5728 1.378 . S
C5726 C5730 1.350 . S
C5727 C5730 1.463 . S
C5727 C5732 1.350 . S
C5727 N5735 1.427 . S
C5728 H5719 0.930 . S
C5728 C5726 1.378 . S
C5728 C5729 1.367 . S
C5729 C5728 1.367 . S
C5729 C5731 1.433 . S
C5730 C5726 1.350 . S
C5730 C5727 1.463 . S
C5730 N5734 1.427 . S
C5731 H5721 0.929 . S
C5731 C5729 1.433 . S
C5731 N5734 1.384 . S
C5732 H5723 0.929 . S
C5732 C5724 1.378 . S
C5732 C5727 1.350 . S
C5733 H5720 0.929 . S
C5733 C5725 1.433 . S
C5733 N5735 1.384 . S
N5734 C5730 1.427 . S
N5734 C5731 1.384 . S
N5735 C5727 1.427 . S
N5735 C5733 1.384 . S
H5736 C5742 0.930 . S
H5737 C5746 0.930 . S
H5738 C5751 0.929 . S
H5739 C5749 0.929 . S
H5740 C5744 0.929 . S
H5741 C5750 0.929 . S
C5742 H5736 0.930 . S
C5742 C5743 1.367 . S
C5742 C5750 1.378 . S
C5743 C5742 1.367 . S
C5743 C5751 1.433 . S
C5744 H5740 0.929 . S
C5744 C5746 1.378 . S
C5744 C5748 1.317 1_565 S
C5745 C5748 1.522 . S
C5745 C5750 1.350 . S
C5745 N5753 1.427 . S
C5746 H5737 0.930 . S
C5746 C5744 1.378 . S
C5746 C5747 1.367 . S
C5747 C5746 1.367 . S
C5747 C5749 1.433 . S
C5748 C5744 1.317 1_545 S
C5748 C5745 1.522 . S
C5748 N5752 1.405 1_545 S
C5749 H5739 0.929 . S
C5749 C5747 1.433 . S
C5749 N5752 1.384 . S
C5750 H5741 0.929 . S
C5750 C5742 1.378 . S
C5750 C5745 1.350 . S
C5751 H5738 0.929 . S
C5751 C5743 1.433 . S
C5751 N5753 1.384 . S
N5752 C5748 1.405 1_565 S
N5752 C5749 1.384 . S
N5753 C5745 1.427 . S
N5753 C5751 1.384 . S
H5754 C5760 0.930 . S
H5755 C5764 0.930 . S
H5756 C5769 0.929 . S
H5757 C5767 0.929 . S
H5758 C5762 0.929 . S
H5759 C5768 0.929 . S
C5760 H5754 0.930 . S
C5760 C5761 1.367 . S
C5760 C5768 1.378 . S
C5761 C5760 1.367 . S
C5761 C5769 1.433 . S
C5762 H5758 0.929 . S
C5762 C5764 1.378 . S
C5762 C5766 1.350 . S
C5763 C5766 1.463 . S
C5763 C5768 1.350 . S
C5763 N5771 1.427 . S
C5764 H5755 0.930 . S
C5764 C5762 1.378 . S
C5764 C5765 1.367 . S
C5765 C5764 1.367 . S
C5765 C5767 1.433 . S
C5766 C5762 1.350 . S
C5766 C5763 1.463 . S
C5766 N5770 1.427 . S
C5767 H5757 0.929 . S
C5767 C5765 1.433 . S
C5767 N5770 1.384 . S
C5768 H5759 0.929 . S
C5768 C5760 1.378 . S
C5768 C5763 1.350 . S
C5769 H5756 0.929 . S
C5769 C5761 1.433 . S
C5769 N5771 1.384 . S
N5770 C5766 1.427 . S
N5770 C5767 1.384 . S
N5771 C5763 1.427 . S
N5771 C5769 1.384 . S
H5772 C5778 0.930 . S
H5773 C5782 0.930 . S
H5774 C5787 0.929 . S
H5775 C5785 0.929 . S
H5776 C5780 0.929 1_565 S
H5777 C5786 0.929 . S
C5778 H5772 0.930 . S
C5778 C5779 1.367 . S
C5778 C5786 1.378 . S
C5779 C5778 1.367 . S
C5779 C5787 1.433 . S
C5780 H5776 0.929 1_545 S
C5780 C5782 1.378 . S
C5780 C5784 1.327 1_545 S
C5781 C5784 1.532 . S
C5781 C5786 1.350 . S
C5781 N5789 1.427 . S
C5782 H5773 0.930 . S
C5782 C5780 1.378 . S
C5782 C5783 1.367 . S
C5783 C5782 1.367 . S
C5783 C5785 1.433 . S
C5784 C5780 1.327 1_565 S
C5784 C5781 1.532 . S
C5784 N5788 1.387 1_565 S
C5785 H5775 0.929 . S
C5785 C5783 1.433 . S
C5785 N5788 1.384 . S
C5786 H5777 0.929 . S
C5786 C5778 1.378 . S
C5786 C5781 1.350 . S
C5787 H5774 0.929 . S
C5787 C5779 1.433 . S
C5787 N5789 1.384 . S
N5788 C5784 1.387 1_545 S
N5788 C5785 1.384 . S
N5789 C5781 1.427 . S
N5789 C5787 1.384 . S
H5790 C5796 0.930 . S
H5791 C5800 0.930 . S
H5792 C5805 0.929 . S
H5793 C5803 0.929 . S
H5794 C5798 0.929 . S
H5795 C5804 0.929 . S
C5796 H5790 0.930 . S
C5796 C5797 1.367 . S
C5796 C5804 1.378 . S
C5797 C5796 1.367 . S
C5797 C5805 1.433 . S
C5798 H5794 0.929 . S
C5798 C5800 1.378 . S
C5798 C5802 1.350 . S
C5799 C5802 1.463 . S
C5799 C5804 1.350 . S
C5799 N5807 1.427 . S
C5800 H5791 0.930 . S
C5800 C5798 1.378 . S
C5800 C5801 1.367 . S
C5801 C5800 1.367 . S
C5801 C5803 1.433 . S
C5802 C5798 1.350 . S
C5802 C5799 1.463 . S
C5802 N5806 1.427 . S
C5803 H5793 0.929 . S
C5803 C5801 1.433 . S
C5803 N5806 1.384 . S
C5804 H5795 0.929 . S
C5804 C5796 1.378 . S
C5804 C5799 1.350 . S
C5805 H5792 0.929 . S
C5805 C5797 1.433 . S
C5805 N5807 1.384 . S
N5806 C5802 1.427 . S
N5806 C5803 1.384 . S
N5807 C5799 1.427 . S
N5807 C5805 1.384 . S
H5808 C5814 0.930 . S
H5809 C5818 0.930 . S
H5810 C5823 0.929 . S
H5811 C5821 0.929 . S
H5812 C5816 0.890 1_556 S
H5813 C5822 0.929 . S
C5814 H5808 0.930 . S
C5814 C5815 1.367 . S
C5814 C5822 1.378 . S
C5815 C5814 1.367 . S
C5815 C5823 1.433 . S
C5816 H5812 0.890 1_554 S
C5816 C5818 1.378 . S
C5816 C5820 1.314 1_554 S
C5817 C5820 1.554 . S
C5817 C5822 1.350 . S
C5817 N5825 1.427 . S
C5818 H5809 0.930 . S
C5818 C5816 1.378 . S
C5818 C5819 1.367 . S
C5819 C5818 1.367 . S
C5819 C5821 1.433 . S
C5820 C5816 1.314 1_556 S
C5820 C5817 1.554 . S
C5820 N5824 1.380 1_556 S
C5821 H5811 0.929 . S
C5821 C5819 1.433 . S
C5821 N5824 1.384 . S
C5822 H5813 0.929 . S
C5822 C5814 1.378 . S
C5822 C5817 1.350 . S
C5823 H5810 0.929 . S
C5823 C5815 1.433 . S
C5823 N5825 1.384 . S
N5824 C5820 1.380 1_554 S
N5824 C5821 1.384 . S
N5825 C5817 1.427 . S
N5825 C5823 1.384 . S
H5826 C5832 0.930 . S
H5827 C5836 0.930 . S
H5828 C5841 0.929 . S
H5829 C5839 0.929 . S
H5830 C5834 0.929 . S
H5831 C5840 0.929 . S
C5832 H5826 0.930 . S
C5832 C5833 1.367 . S
C5832 C5840 1.378 . S
C5833 C5832 1.367 . S
C5833 C5841 1.433 . S
C5834 H5830 0.929 . S
C5834 C5836 1.378 . S
C5834 C5838 1.306 1_556 S
C5835 C5838 1.549 . S
C5835 C5840 1.350 . S
C5835 N5843 1.427 . S
C5836 H5827 0.930 . S
C5836 C5834 1.378 . S
C5836 C5837 1.367 . S
C5837 C5836 1.367 . S
C5837 C5839 1.433 . S
C5838 C5834 1.306 1_554 S
C5838 C5835 1.549 . S
C5838 N5842 1.393 1_554 S
C5839 H5829 0.929 . S
C5839 C5837 1.433 . S
C5839 N5842 1.384 . S
C5840 H5831 0.929 . S
C5840 C5832 1.378 . S
C5840 C5835 1.350 . S
C5841 H5828 0.929 . S
C5841 C5833 1.433 . S
C5841 N5843 1.384 . S
N5842 C5838 1.393 1_556 S
N5842 C5839 1.384 . S
N5843 C5835 1.427 . S
N5843 C5841 1.384 . S
H5844 C5850 0.930 . S
H5845 C5854 0.930 . S
H5846 C5859 0.929 . S
H5847 C5857 0.929 . S
H5848 C5852 0.929 . S
H5849 C5858 0.929 . S
C5850 H5844 0.930 . S
C5850 C5851 1.367 . S
C5850 C5858 1.378 . S
C5851 C5850 1.367 . S
C5851 C5859 1.433 . S
C5852 H5848 0.929 . S
C5852 C5854 1.378 . S
C5852 C5856 1.350 . S
C5853 C5856 1.463 . S
C5853 C5858 1.350 . S
C5853 N5861 1.427 . S
C5854 H5845 0.930 . S
C5854 C5852 1.378 . S
C5854 C5855 1.367 . S
C5855 C5854 1.367 . S
C5855 C5857 1.433 . S
C5856 C5852 1.350 . S
C5856 C5853 1.463 . S
C5856 N5860 1.427 . S
C5857 H5847 0.929 . S
C5857 C5855 1.433 . S
C5857 N5860 1.384 . S
C5858 H5849 0.929 . S
C5858 C5850 1.378 . S
C5858 C5853 1.350 . S
C5859 H5846 0.929 . S
C5859 C5851 1.433 . S
C5859 N5861 1.384 . S
N5860 C5856 1.427 . S
N5860 C5857 1.384 . S
N5861 C5853 1.427 . S
N5861 C5859 1.384 . S
H5862 C5868 0.930 . S
H5863 C5872 0.930 . S
H5864 C5877 0.929 . S
H5865 C5875 0.929 . S
H5866 C5870 0.929 . S
H5867 C5876 0.929 . S
C5868 H5862 0.930 . S
C5868 C5869 1.367 . S
C5868 C5876 1.378 . S
C5869 C5868 1.367 . S
C5869 C5877 1.433 . S
C5870 H5866 0.929 . S
C5870 C5872 1.378 . S
C5870 C5874 1.350 . S
C5871 C5874 1.463 . S
C5871 C5876 1.350 . S
C5871 N5879 1.427 . S
C5872 H5863 0.930 . S
C5872 C5870 1.378 . S
C5872 C5873 1.367 . S
C5873 C5872 1.367 . S
C5873 C5875 1.433 . S
C5874 C5870 1.350 . S
C5874 C5871 1.463 . S
C5874 N5878 1.427 . S
C5875 H5865 0.929 . S
C5875 C5873 1.433 . S
C5875 N5878 1.384 . S
C5876 H5867 0.929 . S
C5876 C5868 1.378 . S
C5876 C5871 1.350 . S
C5877 H5864 0.929 . S
C5877 C5869 1.433 . S
C5877 N5879 1.384 . S
N5878 C5874 1.427 . S
N5878 C5875 1.384 . S
N5879 C5871 1.427 . S
N5879 C5877 1.384 . S
H5880 C5886 0.930 . S
H5881 C5890 0.930 . S
H5882 C5895 0.929 . S
H5883 C5893 0.929 . S
H5884 C5888 0.929 . S
H5885 C5894 0.929 . S
C5886 H5880 0.930 . S
C5886 C5887 1.367 . S
C5886 C5894 1.378 . S
C5887 C5886 1.367 . S
C5887 C5895 1.433 . S
C5888 H5884 0.929 . S
C5888 C5890 1.378 . S
C5888 C5892 1.350 . S
C5889 C5892 1.463 . S
C5889 C5894 1.350 . S
C5889 N5897 1.427 . S
C5890 H5881 0.930 . S
C5890 C5888 1.378 . S
C5890 C5891 1.367 . S
C5891 C5890 1.367 . S
C5891 C5893 1.433 . S
C5892 C5888 1.350 . S
C5892 C5889 1.463 . S
C5892 N5896 1.427 . S
C5893 H5883 0.929 . S
C5893 C5891 1.433 . S
C5893 N5896 1.384 . S
C5894 H5885 0.929 . S
C5894 C5886 1.378 . S
C5894 C5889 1.350 . S
C5895 H5882 0.929 . S
C5895 C5887 1.433 . S
C5895 N5897 1.384 . S
N5896 C5892 1.427 . S
N5896 C5893 1.384 . S
N5897 C5889 1.427 . S
N5897 C5895 1.384 . S
H5898 C5904 0.930 . S
H5899 C5908 0.930 . S
H5900 C5913 0.929 . S
H5901 C5911 0.929 . S
H5902 C5906 0.929 . S
H5903 C5912 0.929 . S
C5904 H5898 0.930 . S
C5904 C5905 1.367 . S
C5904 C5912 1.378 . S
C5905 C5904 1.367 . S
C5905 C5913 1.433 . S
C5906 H5902 0.929 . S
C5906 C5908 1.378 . S
C5906 C5910 1.350 . S
C5907 C5910 1.463 . S
C5907 C5912 1.350 . S
C5907 N5915 1.427 . S
C5908 H5899 0.930 . S
C5908 C5906 1.378 . S
C5908 C5909 1.367 . S
C5909 C5908 1.367 . S
C5909 C5911 1.433 . S
C5910 C5906 1.350 . S
C5910 C5907 1.463 . S
C5910 N5914 1.427 . S
C5911 H5901 0.929 . S
C5911 C5909 1.433 . S
C5911 N5914 1.384 . S
C5912 H5903 0.929 . S
C5912 C5904 1.378 . S
C5912 C5907 1.350 . S
C5913 H5900 0.929 . S
C5913 C5905 1.433 . S
C5913 N5915 1.384 . S
N5914 C5910 1.427 . S
N5914 C5911 1.384 . S
N5915 C5907 1.427 . S
N5915 C5913 1.384 . S
H5916 C5922 0.930 . S
H5917 C5926 0.930 . S
H5918 C5931 0.929 . S
H5919 C5929 0.929 . S
H5920 C5924 0.929 . S
H5921 C5930 0.929 . S
C5922 H5916 0.930 . S
C5922 C5923 1.367 . S
C5922 C5930 1.378 . S
C5923 C5922 1.367 . S
C5923 C5931 1.433 . S
C5924 H5920 0.929 . S
C5924 C5926 1.378 . S
C5924 C5928 1.350 . S
C5925 C5928 1.463 . S
C5925 C5930 1.350 . S
C5925 N5933 1.427 . S
C5926 H5917 0.930 . S
C5926 C5924 1.378 . S
C5926 C5927 1.367 . S
C5927 C5926 1.367 . S
C5927 C5929 1.433 . S
C5928 C5924 1.350 . S
C5928 C5925 1.463 . S
C5928 N5932 1.427 . S
C5929 H5919 0.929 . S
C5929 C5927 1.433 . S
C5929 N5932 1.384 . S
C5930 H5921 0.929 . S
C5930 C5922 1.378 . S
C5930 C5925 1.350 . S
C5931 H5918 0.929 . S
C5931 C5923 1.433 . S
C5931 N5933 1.384 . S
N5932 C5928 1.427 . S
N5932 C5929 1.384 . S
N5933 C5925 1.427 . S
N5933 C5931 1.384 . S
H5934 C5940 0.930 . S
H5935 C5944 0.930 . S
H5936 C5949 0.929 . S
H5937 C5947 0.929 . S
H5938 C5942 0.929 . S
H5939 C5948 0.929 . S
C5940 H5934 0.930 . S
C5940 C5941 1.367 . S
C5940 C5948 1.378 . S
C5941 C5940 1.367 . S
C5941 C5949 1.433 . S
C5942 H5938 0.929 . S
C5942 C5944 1.378 . S
C5942 C5946 1.350 . S
C5943 C5946 1.463 . S
C5943 C5948 1.350 . S
C5943 N5951 1.427 . S
C5944 H5935 0.930 . S
C5944 C5942 1.378 . S
C5944 C5945 1.367 . S
C5945 C5944 1.367 . S
C5945 C5947 1.433 . S
C5946 C5942 1.350 . S
C5946 C5943 1.463 . S
C5946 N5950 1.427 . S
C5947 H5937 0.929 . S
C5947 C5945 1.433 . S
C5947 N5950 1.384 . S
C5948 H5939 0.929 . S
C5948 C5940 1.378 . S
C5948 C5943 1.350 . S
C5949 H5936 0.929 . S
C5949 C5941 1.433 . S
C5949 N5951 1.384 . S
N5950 C5946 1.427 . S
N5950 C5947 1.384 . S
N5951 C5943 1.427 . S
N5951 C5949 1.384 . S
H5952 C5958 0.930 . S
H5953 C5962 0.930 . S
H5954 C5967 0.929 . S
H5955 C5965 0.929 . S
H5956 C5960 0.929 . S
H5957 C5966 0.929 . S
C5958 H5952 0.930 . S
C5958 C5959 1.367 . S
C5958 C5966 1.378 . S
C5959 C5958 1.367 . S
C5959 C5967 1.433 . S
C5960 H5956 0.929 . S
C5960 C5962 1.378 . S
C5960 C5964 1.350 . S
C5961 C5964 1.463 . S
C5961 C5966 1.350 . S
C5961 N5969 1.427 . S
C5962 H5953 0.930 . S
C5962 C5960 1.378 . S
C5962 C5963 1.367 . S
C5963 C5962 1.367 . S
C5963 C5965 1.433 . S
C5964 C5960 1.350 . S
C5964 C5961 1.463 . S
C5964 N5968 1.427 . S
C5965 H5955 0.929 . S
C5965 C5963 1.433 . S
C5965 N5968 1.384 . S
C5966 H5957 0.929 . S
C5966 C5958 1.378 . S
C5966 C5961 1.350 . S
C5967 H5954 0.929 . S
C5967 C5959 1.433 . S
C5967 N5969 1.384 . S
N5968 C5964 1.427 . S
N5968 C5965 1.384 . S
N5969 C5961 1.427 . S
N5969 C5967 1.384 . S
H5970 C5976 0.930 . S
H5971 C5980 0.930 . S
H5972 C5985 0.929 . S
H5973 C5983 0.929 . S
H5974 C5978 0.929 . S
H5975 C5984 0.929 . S
C5976 H5970 0.930 . S
C5976 C5977 1.367 . S
C5976 C5984 1.378 . S
C5977 C5976 1.367 . S
C5977 C5985 1.433 . S
C5978 H5974 0.929 . S
C5978 C5980 1.378 . S
C5978 C5982 1.350 . S
C5979 C5982 1.463 . S
C5979 C5984 1.350 . S
C5979 N5987 1.427 . S
C5980 H5971 0.930 . S
C5980 C5978 1.378 . S
C5980 C5981 1.367 . S
C5981 C5980 1.367 . S
C5981 C5983 1.433 . S
C5982 C5978 1.350 . S
C5982 C5979 1.463 . S
C5982 N5986 1.427 . S
C5983 H5973 0.929 . S
C5983 C5981 1.433 . S
C5983 N5986 1.384 . S
C5984 H5975 0.929 . S
C5984 C5976 1.378 . S
C5984 C5979 1.350 . S
C5985 H5972 0.929 . S
C5985 C5977 1.433 . S
C5985 N5987 1.384 . S
N5986 C5982 1.427 . S
N5986 C5983 1.384 . S
N5987 C5979 1.427 . S
N5987 C5985 1.384 . S
H5988 C5994 0.930 . S
H5989 C5998 0.930 . S
H5990 C6003 0.929 . S
H5991 C6001 0.929 . S
H5992 C5996 0.929 . S
H5993 C6002 0.929 . S
C5994 H5988 0.930 . S
C5994 C5995 1.367 . S
C5994 C6002 1.378 . S
C5995 C5994 1.367 . S
C5995 C6003 1.433 . S
C5996 H5992 0.929 . S
C5996 C5998 1.378 . S
C5996 C6000 1.332 1_455 S
C5997 C6000 1.498 . S
C5997 C6002 1.350 . S
C5997 N6005 1.427 . S
C5998 H5989 0.930 . S
C5998 C5996 1.378 . S
C5998 C5999 1.367 . S
C5999 C5998 1.367 . S
C5999 C6001 1.433 . S
C6000 C5996 1.332 1_655 S
C6000 C5997 1.498 . S
C6000 N6004 1.413 1_655 S
C6001 H5991 0.929 . S
C6001 C5999 1.433 . S
C6001 N6004 1.384 . S
C6002 H5993 0.929 . S
C6002 C5994 1.378 . S
C6002 C5997 1.350 . S
C6003 H5990 0.929 . S
C6003 C5995 1.433 . S
C6003 N6005 1.384 . S
N6004 C6000 1.413 1_455 S
N6004 C6001 1.384 . S
N6005 C5997 1.427 . S
N6005 C6003 1.384 . S
H6006 C6012 0.930 . S
H6007 C6016 0.930 . S
H6008 C6021 0.929 . S
H6009 C6019 0.929 . S
H6010 C6014 0.929 . S
H6011 C6020 0.929 . S
C6012 H6006 0.930 . S
C6012 C6013 1.367 . S
C6012 C6020 1.378 . S
C6013 C6012 1.367 . S
C6013 C6021 1.433 . S
C6014 H6010 0.929 . S
C6014 C6016 1.378 . S
C6014 C6018 1.350 . S
C6015 C6018 1.463 . S
C6015 C6020 1.350 . S
C6015 N6023 1.427 . S
C6016 H6007 0.930 . S
C6016 C6014 1.378 . S
C6016 C6017 1.367 . S
C6017 C6016 1.367 . S
C6017 C6019 1.433 . S
C6018 C6014 1.350 . S
C6018 C6015 1.463 . S
C6018 N6022 1.427 . S
C6019 H6009 0.929 . S
C6019 C6017 1.433 . S
C6019 N6022 1.384 . S
C6020 H6011 0.929 . S
C6020 C6012 1.378 . S
C6020 C6015 1.350 . S
C6021 H6008 0.929 . S
C6021 C6013 1.433 . S
C6021 N6023 1.384 . S
N6022 C6018 1.427 . S
N6022 C6019 1.384 . S
N6023 C6015 1.427 . S
N6023 C6021 1.384 . S
H6024 C6030 0.930 . S
H6025 C6034 0.930 . S
H6026 C6039 0.929 . S
H6027 C6037 0.929 . S
H6028 C6032 0.929 . S
H6029 C6038 0.929 . S
C6030 H6024 0.930 . S
C6030 C6031 1.367 . S
C6030 C6038 1.378 . S
C6031 C6030 1.367 . S
C6031 C6039 1.433 . S
C6032 H6028 0.929 . S
C6032 C6034 1.378 . S
C6032 C6036 1.350 . S
C6033 C6036 1.463 . S
C6033 C6038 1.350 . S
C6033 N6041 1.427 . S
C6034 H6025 0.930 . S
C6034 C6032 1.378 . S
C6034 C6035 1.367 . S
C6035 C6034 1.367 . S
C6035 C6037 1.433 . S
C6036 C6032 1.350 . S
C6036 C6033 1.463 . S
C6036 N6040 1.427 . S
C6037 H6027 0.929 . S
C6037 C6035 1.433 . S
C6037 N6040 1.384 . S
C6038 H6029 0.929 . S
C6038 C6030 1.378 . S
C6038 C6033 1.350 . S
C6039 H6026 0.929 . S
C6039 C6031 1.433 . S
C6039 N6041 1.384 . S
N6040 C6036 1.427 . S
N6040 C6037 1.384 . S
N6041 C6033 1.427 . S
N6041 C6039 1.384 . S
H6042 C6048 0.930 . S
H6043 C6052 0.930 . S
H6044 C6057 0.929 . S
H6045 C6055 0.929 . S
H6046 C6050 0.929 . S
H6047 C6056 0.929 . S
C6048 H6042 0.930 . S
C6048 C6049 1.367 . S
C6048 C6056 1.378 . S
C6049 C6048 1.367 . S
C6049 C6057 1.433 . S
C6050 H6046 0.929 . S
C6050 C6052 1.378 . S
C6050 C6054 1.350 . S
C6051 C6054 1.463 . S
C6051 C6056 1.350 . S
C6051 N6059 1.427 . S
C6052 H6043 0.930 . S
C6052 C6050 1.378 . S
C6052 C6053 1.367 . S
C6053 C6052 1.367 . S
C6053 C6055 1.433 . S
C6054 C6050 1.350 . S
C6054 C6051 1.463 . S
C6054 N6058 1.427 . S
C6055 H6045 0.929 . S
C6055 C6053 1.433 . S
C6055 N6058 1.384 . S
C6056 H6047 0.929 . S
C6056 C6048 1.378 . S
C6056 C6051 1.350 . S
C6057 H6044 0.929 . S
C6057 C6049 1.433 . S
C6057 N6059 1.384 . S
N6058 C6054 1.427 . S
N6058 C6055 1.384 . S
N6059 C6051 1.427 . S
N6059 C6057 1.384 . S
H6060 C6066 0.930 . S
H6061 C6070 0.930 . S
H6062 C6075 0.929 . S
H6063 C6073 0.929 . S
H6064 C6068 0.902 1_655 S
H6065 C6074 0.929 . S
C6066 H6060 0.930 . S
C6066 C6067 1.367 . S
C6066 C6074 1.378 . S
C6067 C6066 1.367 . S
C6067 C6075 1.433 . S
C6068 H6064 0.902 1_455 S
C6068 C6070 1.378 . S
C6068 C6072 1.334 1_455 S
C6069 C6072 1.503 . S
C6069 C6074 1.350 . S
C6069 N6077 1.427 . S
C6070 H6061 0.930 . S
C6070 C6068 1.378 . S
C6070 C6071 1.367 . S
C6071 C6070 1.367 . S
C6071 C6073 1.433 . S
C6072 C6068 1.334 1_655 S
C6072 C6069 1.503 . S
C6072 N6076 1.405 1_655 S
C6073 H6063 0.929 . S
C6073 C6071 1.433 . S
C6073 N6076 1.384 . S
C6074 H6065 0.929 . S
C6074 C6066 1.378 . S
C6074 C6069 1.350 . S
C6075 H6062 0.929 . S
C6075 C6067 1.433 . S
C6075 N6077 1.384 . S
N6076 C6072 1.405 1_455 S
N6076 C6073 1.384 . S
N6077 C6069 1.427 . S
N6077 C6075 1.384 . S
H6078 C6084 0.930 . S
H6079 C6088 0.930 . S
H6080 C6093 0.929 . S
H6081 C6091 0.929 . S
H6082 C6086 0.929 . S
H6083 C6092 0.929 . S
C6084 H6078 0.930 . S
C6084 C6085 1.367 . S
C6084 C6092 1.378 . S
C6085 C6084 1.367 . S
C6085 C6093 1.433 . S
C6086 H6082 0.929 . S
C6086 C6088 1.378 . S
C6086 C6090 1.350 . S
C6087 C6090 1.463 . S
C6087 C6092 1.350 . S
C6087 N6095 1.427 . S
C6088 H6079 0.930 . S
C6088 C6086 1.378 . S
C6088 C6089 1.367 . S
C6089 C6088 1.367 . S
C6089 C6091 1.433 . S
C6090 C6086 1.350 . S
C6090 C6087 1.463 . S
C6090 N6094 1.427 . S
C6091 H6081 0.929 . S
C6091 C6089 1.433 . S
C6091 N6094 1.384 . S
C6092 H6083 0.929 . S
C6092 C6084 1.378 . S
C6092 C6087 1.350 . S
C6093 H6080 0.929 . S
C6093 C6085 1.433 . S
C6093 N6095 1.384 . S
N6094 C6090 1.427 . S
N6094 C6091 1.384 . S
N6095 C6087 1.427 . S
N6095 C6093 1.384 . S
H6096 C6102 0.930 . S
H6097 C6106 0.930 . S
H6098 C6111 0.929 . S
H6099 C6109 0.929 . S
H6100 C6104 0.929 . S
H6101 C6110 0.929 . S
C6102 H6096 0.930 . S
C6102 C6103 1.367 . S
C6102 C6110 1.378 . S
C6103 C6102 1.367 . S
C6103 C6111 1.433 . S
C6104 H6100 0.929 . S
C6104 C6106 1.378 . S
C6104 C6108 1.350 . S
C6105 C6108 1.463 . S
C6105 C6110 1.350 . S
C6105 N6113 1.427 . S
C6106 H6097 0.930 . S
C6106 C6104 1.378 . S
C6106 C6107 1.367 . S
C6107 C6106 1.367 . S
C6107 C6109 1.433 . S
C6108 C6104 1.350 . S
C6108 C6105 1.463 . S
C6108 N6112 1.427 . S
C6109 H6099 0.929 . S
C6109 C6107 1.433 . S
C6109 N6112 1.384 . S
C6110 H6101 0.929 . S
C6110 C6102 1.378 . S
C6110 C6105 1.350 . S
C6111 H6098 0.929 . S
C6111 C6103 1.433 . S
C6111 N6113 1.384 . S
N6112 C6108 1.427 . S
N6112 C6109 1.384 . S
N6113 C6105 1.427 . S
N6113 C6111 1.384 . S
H6114 C6120 0.930 . S
H6115 C6124 0.930 . S
H6116 C6129 0.929 . S
H6117 C6127 0.929 . S
H6118 C6122 0.929 . S
H6119 C6128 0.929 . S
C6120 H6114 0.930 . S
C6120 C6121 1.367 . S
C6120 C6128 1.378 . S
C6121 C6120 1.367 . S
C6121 C6129 1.433 . S
C6122 H6118 0.929 . S
C6122 C6124 1.378 . S
C6122 C6126 1.350 . S
C6123 C6126 1.463 . S
C6123 C6128 1.350 . S
C6123 N6131 1.427 . S
C6124 H6115 0.930 . S
C6124 C6122 1.378 . S
C6124 C6125 1.367 . S
C6125 C6124 1.367 . S
C6125 C6127 1.433 . S
C6126 C6122 1.350 . S
C6126 C6123 1.463 . S
C6126 N6130 1.427 . S
C6127 H6117 0.929 . S
C6127 C6125 1.433 . S
C6127 N6130 1.384 . S
C6128 H6119 0.929 . S
C6128 C6120 1.378 . S
C6128 C6123 1.350 . S
C6129 H6116 0.929 . S
C6129 C6121 1.433 . S
C6129 N6131 1.384 . S
N6130 C6126 1.427 . S
N6130 C6127 1.384 . S
N6131 C6123 1.427 . S
N6131 C6129 1.384 . S
H6132 C6138 0.930 . S
H6133 C6142 0.930 . S
H6134 C6147 0.929 . S
H6135 C6145 0.929 . S
H6136 C6140 0.929 . S
H6137 C6146 0.929 . S
C6138 H6132 0.930 . S
C6138 C6139 1.367 . S
C6138 C6146 1.378 . S
C6139 C6138 1.367 . S
C6139 C6147 1.433 . S
C6140 H6136 0.929 . S
C6140 C6142 1.378 . S
C6140 C6144 1.350 . S
C6141 C6144 1.463 . S
C6141 C6146 1.350 . S
C6141 N6149 1.427 . S
C6142 H6133 0.930 . S
C6142 C6140 1.378 . S
C6142 C6143 1.367 . S
C6143 C6142 1.367 . S
C6143 C6145 1.433 . S
C6144 C6140 1.350 . S
C6144 C6141 1.463 . S
C6144 N6148 1.427 . S
C6145 H6135 0.929 . S
C6145 C6143 1.433 . S
C6145 N6148 1.384 . S
C6146 H6137 0.929 . S
C6146 C6138 1.378 . S
C6146 C6141 1.350 . S
C6147 H6134 0.929 . S
C6147 C6139 1.433 . S
C6147 N6149 1.384 . S
N6148 C6144 1.427 . S
N6148 C6145 1.384 . S
N6149 C6141 1.427 . S
N6149 C6147 1.384 . S
H6150 C6156 0.930 . S
H6151 C6160 0.930 . S
H6152 C6165 0.929 . S
H6153 C6163 0.929 . S
H6154 C6158 0.929 . S
H6155 C6164 0.929 . S
C6156 H6150 0.930 . S
C6156 C6157 1.367 . S
C6156 C6164 1.378 . S
C6157 C6156 1.367 . S
C6157 C6165 1.433 . S
C6158 H6154 0.929 . S
C6158 C6160 1.378 . S
C6158 C6162 1.350 . S
C6159 C6162 1.463 . S
C6159 C6164 1.350 . S
C6159 N6167 1.427 . S
C6160 H6151 0.930 . S
C6160 C6158 1.378 . S
C6160 C6161 1.367 . S
C6161 C6160 1.367 . S
C6161 C6163 1.433 . S
C6162 C6158 1.350 . S
C6162 C6159 1.463 . S
C6162 N6166 1.427 . S
C6163 H6153 0.929 . S
C6163 C6161 1.433 . S
C6163 N6166 1.384 . S
C6164 H6155 0.929 . S
C6164 C6156 1.378 . S
C6164 C6159 1.350 . S
C6165 H6152 0.929 . S
C6165 C6157 1.433 . S
C6165 N6167 1.384 . S
N6166 C6162 1.427 . S
N6166 C6163 1.384 . S
N6167 C6159 1.427 . S
N6167 C6165 1.384 . S
H6168 C6174 0.930 . S
H6169 C6178 0.930 . S
H6170 C6183 0.929 . S
H6171 C6181 0.929 . S
H6172 C6176 0.929 . S
H6173 C6182 0.929 . S
C6174 H6168 0.930 . S
C6174 C6175 1.367 . S
C6174 C6182 1.378 . S
C6175 C6174 1.367 . S
C6175 C6183 1.433 . S
C6176 H6172 0.929 . S
C6176 C6178 1.378 . S
C6176 C6180 1.350 . S
C6177 C6180 1.463 . S
C6177 C6182 1.350 . S
C6177 N6185 1.427 . S
C6178 H6169 0.930 . S
C6178 C6176 1.378 . S
C6178 C6179 1.367 . S
C6179 C6178 1.367 . S
C6179 C6181 1.433 . S
C6180 C6176 1.350 . S
C6180 C6177 1.463 . S
C6180 N6184 1.427 . S
C6181 H6171 0.929 . S
C6181 C6179 1.433 . S
C6181 N6184 1.384 . S
C6182 H6173 0.929 . S
C6182 C6174 1.378 . S
C6182 C6177 1.350 . S
C6183 H6170 0.929 . S
C6183 C6175 1.433 . S
C6183 N6185 1.384 . S
N6184 C6180 1.427 . S
N6184 C6181 1.384 . S
N6185 C6177 1.427 . S
N6185 C6183 1.384 . S
H6186 C6192 0.930 . S
H6187 C6196 0.930 . S
H6188 C6201 0.929 . S
H6189 C6199 0.929 . S
H6190 C6194 0.929 . S
H6191 C6200 0.929 . S
C6192 H6186 0.930 . S
C6192 C6193 1.367 . S
C6192 C6200 1.378 . S
C6193 C6192 1.367 . S
C6193 C6201 1.433 . S
C6194 H6190 0.929 . S
C6194 C6196 1.378 . S
C6194 C6198 1.350 . S
C6195 C6198 1.463 . S
C6195 C6200 1.350 . S
C6195 N6203 1.427 . S
C6196 H6187 0.930 . S
C6196 C6194 1.378 . S
C6196 C6197 1.367 . S
C6197 C6196 1.367 . S
C6197 C6199 1.433 . S
C6198 C6194 1.350 . S
C6198 C6195 1.463 . S
C6198 N6202 1.427 . S
C6199 H6189 0.929 . S
C6199 C6197 1.433 . S
C6199 N6202 1.384 . S
C6200 H6191 0.929 . S
C6200 C6192 1.378 . S
C6200 C6195 1.350 . S
C6201 H6188 0.929 . S
C6201 C6193 1.433 . S
C6201 N6203 1.384 . S
N6202 C6198 1.427 . S
N6202 C6199 1.384 . S
N6203 C6195 1.427 . S
N6203 C6201 1.384 . S
H6204 C6210 0.930 . S
H6205 C6214 0.930 . S
H6206 C6219 0.929 . S
H6207 C6217 0.929 . S
H6208 C6212 0.929 . S
H6209 C6218 0.929 . S
C6210 H6204 0.930 . S
C6210 C6211 1.367 . S
C6210 C6218 1.378 . S
C6211 C6210 1.367 . S
C6211 C6219 1.433 . S
C6212 H6208 0.929 . S
C6212 C6214 1.378 . S
C6212 C6216 1.350 . S
C6213 C6216 1.463 . S
C6213 C6218 1.350 . S
C6213 N6221 1.427 . S
C6214 H6205 0.930 . S
C6214 C6212 1.378 . S
C6214 C6215 1.367 . S
C6215 C6214 1.367 . S
C6215 C6217 1.433 . S
C6216 C6212 1.350 . S
C6216 C6213 1.463 . S
C6216 N6220 1.427 . S
C6217 H6207 0.929 . S
C6217 C6215 1.433 . S
C6217 N6220 1.384 . S
C6218 H6209 0.929 . S
C6218 C6210 1.378 . S
C6218 C6213 1.350 . S
C6219 H6206 0.929 . S
C6219 C6211 1.433 . S
C6219 N6221 1.384 . S
N6220 C6216 1.427 . S
N6220 C6217 1.384 . S
N6221 C6213 1.427 . S
N6221 C6219 1.384 . S
H6222 C6228 0.930 . S
H6223 C6232 0.930 . S
H6224 C6237 0.929 . S
H6225 C6235 0.929 . S
H6226 C6230 0.929 . S
H6227 C6236 0.929 . S
C6228 H6222 0.930 . S
C6228 C6229 1.367 . S
C6228 C6236 1.378 . S
C6229 C6228 1.367 . S
C6229 C6237 1.433 . S
C6230 H6226 0.929 . S
C6230 C6232 1.378 . S
C6230 C6234 1.350 . S
C6231 C6234 1.463 . S
C6231 C6236 1.350 . S
C6231 N6239 1.427 . S
C6232 H6223 0.930 . S
C6232 C6230 1.378 . S
C6232 C6233 1.367 . S
C6233 C6232 1.367 . S
C6233 C6235 1.433 . S
C6234 C6230 1.350 . S
C6234 C6231 1.463 . S
C6234 N6238 1.427 . S
C6235 H6225 0.929 . S
C6235 C6233 1.433 . S
C6235 N6238 1.384 . S
C6236 H6227 0.929 . S
C6236 C6228 1.378 . S
C6236 C6231 1.350 . S
C6237 H6224 0.929 . S
C6237 C6229 1.433 . S
C6237 N6239 1.384 . S
N6238 C6234 1.427 . S
N6238 C6235 1.384 . S
N6239 C6231 1.427 . S
N6239 C6237 1.384 . S
H6240 C6246 0.930 . S
H6241 C6250 0.930 . S
H6242 C6255 0.929 . S
H6243 C6253 0.929 . S
H6244 C6248 0.929 . S
H6245 C6254 0.929 . S
C6246 H6240 0.930 . S
C6246 C6247 1.367 . S
C6246 C6254 1.378 . S
C6247 C6246 1.367 . S
C6247 C6255 1.433 . S
C6248 H6244 0.929 . S
C6248 C6250 1.378 . S
C6248 C6252 1.350 . S
C6249 C6252 1.463 . S
C6249 C6254 1.350 . S
C6249 N6257 1.427 . S
C6250 H6241 0.930 . S
C6250 C6248 1.378 . S
C6250 C6251 1.367 . S
C6251 C6250 1.367 . S
C6251 C6253 1.433 . S
C6252 C6248 1.350 . S
C6252 C6249 1.463 . S
C6252 N6256 1.427 . S
C6253 H6243 0.929 . S
C6253 C6251 1.433 . S
C6253 N6256 1.384 . S
C6254 H6245 0.929 . S
C6254 C6246 1.378 . S
C6254 C6249 1.350 . S
C6255 H6242 0.929 . S
C6255 C6247 1.433 . S
C6255 N6257 1.384 . S
N6256 C6252 1.427 . S
N6256 C6253 1.384 . S
N6257 C6249 1.427 . S
N6257 C6255 1.384 . S
H6258 C6264 0.930 . S
H6259 C6268 0.930 . S
H6260 C6273 0.929 . S
H6261 C6271 0.929 . S
H6262 C6266 0.929 . S
H6263 C6272 0.929 . S
C6264 H6258 0.930 . S
C6264 C6265 1.367 . S
C6264 C6272 1.378 . S
C6265 C6264 1.367 . S
C6265 C6273 1.433 . S
C6266 H6262 0.929 . S
C6266 C6268 1.378 . S
C6266 C6270 1.350 . S
C6267 C6270 1.463 . S
C6267 C6272 1.350 . S
C6267 N6275 1.427 . S
C6268 H6259 0.930 . S
C6268 C6266 1.378 . S
C6268 C6269 1.367 . S
C6269 C6268 1.367 . S
C6269 C6271 1.433 . S
C6270 C6266 1.350 . S
C6270 C6267 1.463 . S
C6270 N6274 1.427 . S
C6271 H6261 0.929 . S
C6271 C6269 1.433 . S
C6271 N6274 1.384 . S
C6272 H6263 0.929 . S
C6272 C6264 1.378 . S
C6272 C6267 1.350 . S
C6273 H6260 0.929 . S
C6273 C6265 1.433 . S
C6273 N6275 1.384 . S
N6274 C6270 1.427 . S
N6274 C6271 1.384 . S
N6275 C6267 1.427 . S
N6275 C6273 1.384 . S
H6276 C6282 0.930 . S
H6277 C6286 0.930 . S
H6278 C6291 0.929 . S
H6279 C6289 0.929 . S
H6280 C6284 0.929 . S
H6281 C6290 0.929 . S
C6282 H6276 0.930 . S
C6282 C6283 1.367 . S
C6282 C6290 1.378 . S
C6283 C6282 1.367 . S
C6283 C6291 1.433 . S
C6284 H6280 0.929 . S
C6284 C6286 1.378 . S
C6284 C6288 1.350 . S
C6285 C6288 1.463 . S
C6285 C6290 1.350 . S
C6285 N6293 1.427 . S
C6286 H6277 0.930 . S
C6286 C6284 1.378 . S
C6286 C6287 1.367 . S
C6287 C6286 1.367 . S
C6287 C6289 1.433 . S
C6288 C6284 1.350 . S
C6288 C6285 1.463 . S
C6288 N6292 1.427 . S
C6289 H6279 0.929 . S
C6289 C6287 1.433 . S
C6289 N6292 1.384 . S
C6290 H6281 0.929 . S
C6290 C6282 1.378 . S
C6290 C6285 1.350 . S
C6291 H6278 0.929 . S
C6291 C6283 1.433 . S
C6291 N6293 1.384 . S
N6292 C6288 1.427 . S
N6292 C6289 1.384 . S
N6293 C6285 1.427 . S
N6293 C6291 1.384 . S
H6294 C6300 0.930 . S
H6295 C6304 0.930 . S
H6296 C6309 0.929 . S
H6297 C6307 0.929 . S
H6298 C6302 0.929 1_556 S
H6299 C6308 0.929 . S
C6300 H6294 0.930 . S
C6300 C6301 1.367 . S
C6300 C6308 1.378 . S
C6301 C6300 1.367 . S
C6301 C6309 1.433 . S
C6302 H6298 0.929 1_554 S
C6302 C6304 1.378 . S
C6302 C6306 1.320 1_554 S
C6303 C6306 1.549 . S
C6303 C6308 1.350 . S
C6303 N6311 1.427 . S
C6304 H6295 0.930 . S
C6304 C6302 1.378 . S
C6304 C6305 1.367 . S
C6305 C6304 1.367 . S
C6305 C6307 1.433 . S
C6306 C6302 1.320 1_556 S
C6306 C6303 1.549 . S
C6306 N6310 1.378 1_556 S
C6307 H6297 0.929 . S
C6307 C6305 1.433 . S
C6307 N6310 1.384 . S
C6308 H6299 0.929 . S
C6308 C6300 1.378 . S
C6308 C6303 1.350 . S
C6309 H6296 0.929 . S
C6309 C6301 1.433 . S
C6309 N6311 1.384 . S
N6310 C6306 1.378 1_554 S
N6310 C6307 1.384 . S
N6311 C6303 1.427 . S
N6311 C6309 1.384 . S
H6312 C6318 0.930 . S
H6313 C6322 0.930 . S
H6314 C6327 0.929 . S
H6315 C6325 0.929 . S
H6316 C6320 0.929 . S
H6317 C6326 0.929 . S
C6318 H6312 0.930 . S
C6318 C6319 1.367 . S
C6318 C6326 1.378 . S
C6319 C6318 1.367 . S
C6319 C6327 1.433 . S
C6320 H6316 0.929 . S
C6320 C6322 1.378 . S
C6320 C6324 1.350 . S
C6321 C6324 1.463 . S
C6321 C6326 1.350 . S
C6321 N6329 1.427 . S
C6322 H6313 0.930 . S
C6322 C6320 1.378 . S
C6322 C6323 1.367 . S
C6323 C6322 1.367 . S
C6323 C6325 1.433 . S
C6324 C6320 1.350 . S
C6324 C6321 1.463 . S
C6324 N6328 1.427 . S
C6325 H6315 0.929 . S
C6325 C6323 1.433 . S
C6325 N6328 1.384 . S
C6326 H6317 0.929 . S
C6326 C6318 1.378 . S
C6326 C6321 1.350 . S
C6327 H6314 0.929 . S
C6327 C6319 1.433 . S
C6327 N6329 1.384 . S
N6328 C6324 1.427 . S
N6328 C6325 1.384 . S
N6329 C6321 1.427 . S
N6329 C6327 1.384 . S
H6330 C6336 0.930 . S
H6331 C6340 0.930 . S
H6332 C6345 0.929 . S
H6333 C6343 0.929 . S
H6334 C6338 0.929 . S
H6335 C6344 0.929 . S
C6336 H6330 0.930 . S
C6336 C6337 1.367 . S
C6336 C6344 1.378 . S
C6337 C6336 1.367 . S
C6337 C6345 1.433 . S
C6338 H6334 0.929 . S
C6338 C6340 1.378 . S
C6338 C6342 1.306 1_556 S
C6339 C6342 1.541 . S
C6339 C6344 1.350 . S
C6339 N6347 1.427 . S
C6340 H6331 0.930 . S
C6340 C6338 1.378 . S
C6340 C6341 1.367 . S
C6341 C6340 1.367 . S
C6341 C6343 1.433 . S
C6342 C6338 1.306 1_554 S
C6342 C6339 1.541 . S
C6342 N6346 1.400 1_554 S
C6343 H6333 0.929 . S
C6343 C6341 1.433 . S
C6343 N6346 1.384 . S
C6344 H6335 0.929 . S
C6344 C6336 1.378 . S
C6344 C6339 1.350 . S
C6345 H6332 0.929 . S
C6345 C6337 1.433 . S
C6345 N6347 1.384 . S
N6346 C6342 1.400 1_556 S
N6346 C6343 1.384 . S
N6347 C6339 1.427 . S
N6347 C6345 1.384 . S
H6348 C6354 0.930 . S
H6349 C6358 0.930 . S
H6350 C6363 0.929 . S
H6351 C6361 0.929 . S
H6352 C6356 0.929 . S
H6353 C6362 0.929 . S
C6354 H6348 0.930 . S
C6354 C6355 1.367 . S
C6354 C6362 1.378 . S
C6355 C6354 1.367 . S
C6355 C6363 1.433 . S
C6356 H6352 0.929 . S
C6356 C6358 1.378 . S
C6356 C6360 1.350 . S
C6357 C6360 1.463 . S
C6357 C6362 1.350 . S
C6357 N6365 1.427 . S
C6358 H6349 0.930 . S
C6358 C6356 1.378 . S
C6358 C6359 1.367 . S
C6359 C6358 1.367 . S
C6359 C6361 1.433 . S
C6360 C6356 1.350 . S
C6360 C6357 1.463 . S
C6360 N6364 1.427 . S
C6361 H6351 0.929 . S
C6361 C6359 1.433 . S
C6361 N6364 1.384 . S
C6362 H6353 0.929 . S
C6362 C6354 1.378 . S
C6362 C6357 1.350 . S
C6363 H6350 0.929 . S
C6363 C6355 1.433 . S
C6363 N6365 1.384 . S
N6364 C6360 1.427 . S
N6364 C6361 1.384 . S
N6365 C6357 1.427 . S
N6365 C6363 1.384 . S
H6366 C6372 0.930 . S
H6367 C6376 0.930 . S
H6368 C6381 0.929 . S
H6369 C6379 0.929 . S
H6370 C6374 0.929 . S
H6371 C6380 0.929 . S
C6372 H6366 0.930 . S
C6372 C6373 1.367 . S
C6372 C6380 1.378 . S
C6373 C6372 1.367 . S
C6373 C6381 1.433 . S
C6374 H6370 0.929 . S
C6374 C6376 1.378 . S
C6374 C6378 1.350 . S
C6375 C6378 1.463 . S
C6375 C6380 1.350 . S
C6375 N6383 1.427 . S
C6376 H6367 0.930 . S
C6376 C6374 1.378 . S
C6376 C6377 1.367 . S
C6377 C6376 1.367 . S
C6377 C6379 1.433 . S
C6378 C6374 1.350 . S
C6378 C6375 1.463 . S
C6378 N6382 1.427 . S
C6379 H6369 0.929 . S
C6379 C6377 1.433 . S
C6379 N6382 1.384 . S
C6380 H6371 0.929 . S
C6380 C6372 1.378 . S
C6380 C6375 1.350 . S
C6381 H6368 0.929 . S
C6381 C6373 1.433 . S
C6381 N6383 1.384 . S
N6382 C6378 1.427 . S
N6382 C6379 1.384 . S
N6383 C6375 1.427 . S
N6383 C6381 1.384 . S
H6384 C6390 0.930 . S
H6385 C6394 0.930 . S
H6386 C6399 0.929 . S
H6387 C6397 0.929 . S
H6388 C6392 0.929 . S
H6389 C6398 0.929 . S
C6390 H6384 0.930 . S
C6390 C6391 1.367 . S
C6390 C6398 1.378 . S
C6391 C6390 1.367 . S
C6391 C6399 1.433 . S
C6392 H6388 0.929 . S
C6392 C6394 1.378 . S
C6392 C6396 1.350 . S
C6393 C6396 1.463 . S
C6393 C6398 1.350 . S
C6393 N6401 1.427 . S
C6394 H6385 0.930 . S
C6394 C6392 1.378 . S
C6394 C6395 1.367 . S
C6395 C6394 1.367 . S
C6395 C6397 1.433 . S
C6396 C6392 1.350 . S
C6396 C6393 1.463 . S
C6396 N6400 1.427 . S
C6397 H6387 0.929 . S
C6397 C6395 1.433 . S
C6397 N6400 1.384 . S
C6398 H6389 0.929 . S
C6398 C6390 1.378 . S
C6398 C6393 1.350 . S
C6399 H6386 0.929 . S
C6399 C6391 1.433 . S
C6399 N6401 1.384 . S
N6400 C6396 1.427 . S
N6400 C6397 1.384 . S
N6401 C6393 1.427 . S
N6401 C6399 1.384 . S
H6402 C6408 0.930 . S
H6403 C6412 0.930 . S
H6404 C6417 0.929 . S
H6405 C6415 0.929 . S
H6406 C6410 0.929 . S
H6407 C6416 0.929 . S
C6408 H6402 0.930 . S
C6408 C6409 1.367 . S
C6408 C6416 1.378 . S
C6409 C6408 1.367 . S
C6409 C6417 1.433 . S
C6410 H6406 0.929 . S
C6410 C6412 1.378 . S
C6410 C6414 1.350 . S
C6411 C6414 1.463 . S
C6411 C6416 1.350 . S
C6411 N6419 1.427 . S
C6412 H6403 0.930 . S
C6412 C6410 1.378 . S
C6412 C6413 1.367 . S
C6413 C6412 1.367 . S
C6413 C6415 1.433 . S
C6414 C6410 1.350 . S
C6414 C6411 1.463 . S
C6414 N6418 1.427 . S
C6415 H6405 0.929 . S
C6415 C6413 1.433 . S
C6415 N6418 1.384 . S
C6416 H6407 0.929 . S
C6416 C6408 1.378 . S
C6416 C6411 1.350 . S
C6417 H6404 0.929 . S
C6417 C6409 1.433 . S
C6417 N6419 1.384 . S
N6418 C6414 1.427 . S
N6418 C6415 1.384 . S
N6419 C6411 1.427 . S
N6419 C6417 1.384 . S
H6420 C6426 0.930 . S
H6421 C6430 0.930 . S
H6422 C6435 0.929 . S
H6423 C6433 0.929 . S
H6424 C6428 0.908 1_455 S
H6425 C6434 0.929 . S
C6426 H6420 0.930 . S
C6426 C6427 1.367 . S
C6426 C6434 1.378 . S
C6427 C6426 1.367 . S
C6427 C6435 1.433 . S
C6428 H6424 0.908 1_655 S
C6428 C6430 1.378 . S
C6428 C6432 1.327 1_655 S
C6429 C6432 1.519 . S
C6429 C6434 1.350 . S
C6429 N6437 1.427 . S
C6430 H6421 0.930 . S
C6430 C6428 1.378 . S
C6430 C6431 1.367 . S
C6431 C6430 1.367 . S
C6431 C6433 1.433 . S
C6432 C6428 1.327 1_455 S
C6432 C6429 1.519 . S
C6432 N6436 1.397 1_455 S
C6433 H6423 0.929 . S
C6433 C6431 1.433 . S
C6433 N6436 1.384 . S
C6434 H6425 0.929 . S
C6434 C6426 1.378 . S
C6434 C6429 1.350 . S
C6435 H6422 0.929 . S
C6435 C6427 1.433 . S
C6435 N6437 1.384 . S
N6436 C6432 1.397 1_655 S
N6436 C6433 1.384 . S
N6437 C6429 1.427 . S
N6437 C6435 1.384 . S
H6438 C6444 0.930 . S
H6439 C6448 0.930 . S
H6440 C6453 0.929 . S
H6441 C6451 0.929 . S
H6442 C6446 0.929 . S
H6443 C6452 0.929 . S
C6444 H6438 0.930 . S
C6444 C6445 1.367 . S
C6444 C6452 1.378 . S
C6445 C6444 1.367 . S
C6445 C6453 1.433 . S
C6446 H6442 0.929 . S
C6446 C6448 1.378 . S
C6446 C6450 1.350 . S
C6447 C6450 1.463 . S
C6447 C6452 1.350 . S
C6447 N6455 1.427 . S
C6448 H6439 0.930 . S
C6448 C6446 1.378 . S
C6448 C6449 1.367 . S
C6449 C6448 1.367 . S
C6449 C6451 1.433 . S
C6450 C6446 1.350 . S
C6450 C6447 1.463 . S
C6450 N6454 1.427 . S
C6451 H6441 0.929 . S
C6451 C6449 1.433 . S
C6451 N6454 1.384 . S
C6452 H6443 0.929 . S
C6452 C6444 1.378 . S
C6452 C6447 1.350 . S
C6453 H6440 0.929 . S
C6453 C6445 1.433 . S
C6453 N6455 1.384 . S
N6454 C6450 1.427 . S
N6454 C6451 1.384 . S
N6455 C6447 1.427 . S
N6455 C6453 1.384 . S
H6456 C6462 0.930 . S
H6457 C6466 0.930 . S
H6458 C6471 0.929 . S
H6459 C6469 0.929 . S
H6460 C6464 0.929 . S
H6461 C6470 0.929 . S
C6462 H6456 0.930 . S
C6462 C6463 1.367 . S
C6462 C6470 1.378 . S
C6463 C6462 1.367 . S
C6463 C6471 1.433 . S
C6464 H6460 0.929 . S
C6464 C6466 1.378 . S
C6464 C6468 1.350 . S
C6465 C6468 1.463 . S
C6465 C6470 1.350 . S
C6465 N6473 1.427 . S
C6466 H6457 0.930 . S
C6466 C6464 1.378 . S
C6466 C6467 1.367 . S
C6467 C6466 1.367 . S
C6467 C6469 1.433 . S
C6468 C6464 1.350 . S
C6468 C6465 1.463 . S
C6468 N6472 1.427 . S
C6469 H6459 0.929 . S
C6469 C6467 1.433 . S
C6469 N6472 1.384 . S
C6470 H6461 0.929 . S
C6470 C6462 1.378 . S
C6470 C6465 1.350 . S
C6471 H6458 0.929 . S
C6471 C6463 1.433 . S
C6471 N6473 1.384 . S
N6472 C6468 1.427 . S
N6472 C6469 1.384 . S
N6473 C6465 1.427 . S
N6473 C6471 1.384 . S
H6474 C6480 0.930 . S
H6475 C6484 0.930 . S
H6476 C6489 0.929 . S
H6477 C6487 0.929 . S
H6478 C6482 0.929 . S
H6479 C6488 0.929 . S
C6480 H6474 0.930 . S
C6480 C6481 1.367 . S
C6480 C6488 1.378 . S
C6481 C6480 1.367 . S
C6481 C6489 1.433 . S
C6482 H6478 0.929 . S
C6482 C6484 1.378 . S
C6482 C6486 1.350 . S
C6483 C6486 1.463 . S
C6483 C6488 1.350 . S
C6483 N6491 1.427 . S
C6484 H6475 0.930 . S
C6484 C6482 1.378 . S
C6484 C6485 1.367 . S
C6485 C6484 1.367 . S
C6485 C6487 1.433 . S
C6486 C6482 1.350 . S
C6486 C6483 1.463 . S
C6486 N6490 1.427 . S
C6487 H6477 0.929 . S
C6487 C6485 1.433 . S
C6487 N6490 1.384 . S
C6488 H6479 0.929 . S
C6488 C6480 1.378 . S
C6488 C6483 1.350 . S
C6489 H6476 0.929 . S
C6489 C6481 1.433 . S
C6489 N6491 1.384 . S
N6490 C6486 1.427 . S
N6490 C6487 1.384 . S
N6491 C6483 1.427 . S
N6491 C6489 1.384 . S
H6492 C6498 0.930 . S
H6493 C6502 0.930 . S
H6494 C6507 0.929 . S
H6495 C6505 0.929 . S
H6496 C6500 0.929 . S
H6497 C6506 0.929 . S
C6498 H6492 0.930 . S
C6498 C6499 1.367 . S
C6498 C6506 1.378 . S
C6499 C6498 1.367 . S
C6499 C6507 1.433 . S
C6500 H6496 0.929 . S
C6500 C6502 1.378 . S
C6500 C6504 1.321 1_655 S
C6501 C6504 1.512 . S
C6501 C6506 1.350 . S
C6501 N6509 1.427 . S
C6502 H6493 0.930 . S
C6502 C6500 1.378 . S
C6502 C6503 1.367 . S
C6503 C6502 1.367 . S
C6503 C6505 1.433 . S
C6504 C6500 1.321 1_455 S
C6504 C6501 1.512 . S
C6504 N6508 1.410 1_455 S
C6505 H6495 0.929 . S
C6505 C6503 1.433 . S
C6505 N6508 1.384 . S
C6506 H6497 0.929 . S
C6506 C6498 1.378 . S
C6506 C6501 1.350 . S
C6507 H6494 0.929 . S
C6507 C6499 1.433 . S
C6507 N6509 1.384 . S
N6508 C6504 1.410 1_655 S
N6508 C6505 1.384 . S
N6509 C6501 1.427 . S
N6509 C6507 1.384 . S
H6510 C6516 0.930 . S
H6511 C6520 0.930 . S
H6512 C6525 0.929 . S
H6513 C6523 0.929 . S
H6514 C6518 0.929 . S
H6515 C6524 0.929 . S
C6516 H6510 0.930 . S
C6516 C6517 1.367 . S
C6516 C6524 1.378 . S
C6517 C6516 1.367 . S
C6517 C6525 1.433 . S
C6518 H6514 0.929 . S
C6518 C6520 1.378 . S
C6518 C6522 1.350 . S
C6519 C6522 1.463 . S
C6519 C6524 1.350 . S
C6519 N6527 1.427 . S
C6520 H6511 0.930 . S
C6520 C6518 1.378 . S
C6520 C6521 1.367 . S
C6521 C6520 1.367 . S
C6521 C6523 1.433 . S
C6522 C6518 1.350 . S
C6522 C6519 1.463 . S
C6522 N6526 1.427 . S
C6523 H6513 0.929 . S
C6523 C6521 1.433 . S
C6523 N6526 1.384 . S
C6524 H6515 0.929 . S
C6524 C6516 1.378 . S
C6524 C6519 1.350 . S
C6525 H6512 0.929 . S
C6525 C6517 1.433 . S
C6525 N6527 1.384 . S
N6526 C6522 1.427 . S
N6526 C6523 1.384 . S
N6527 C6519 1.427 . S
N6527 C6525 1.384 . S
H6528 C6534 0.930 . S
H6529 C6538 0.930 . S
H6530 C6543 0.929 . S
H6531 C6541 0.929 . S
H6532 C6536 0.929 . S
H6533 C6542 0.929 . S
C6534 H6528 0.930 . S
C6534 C6535 1.367 . S
C6534 C6542 1.378 . S
C6535 C6534 1.367 . S
C6535 C6543 1.433 . S
C6536 H6532 0.929 . S
C6536 C6538 1.378 . S
C6536 C6540 1.350 . S
C6537 C6540 1.463 . S
C6537 C6542 1.350 . S
C6537 N6545 1.427 . S
C6538 H6529 0.930 . S
C6538 C6536 1.378 . S
C6538 C6539 1.367 . S
C6539 C6538 1.367 . S
C6539 C6541 1.433 . S
C6540 C6536 1.350 . S
C6540 C6537 1.463 . S
C6540 N6544 1.427 . S
C6541 H6531 0.929 . S
C6541 C6539 1.433 . S
C6541 N6544 1.384 . S
C6542 H6533 0.929 . S
C6542 C6534 1.378 . S
C6542 C6537 1.350 . S
C6543 H6530 0.929 . S
C6543 C6535 1.433 . S
C6543 N6545 1.384 . S
N6544 C6540 1.427 . S
N6544 C6541 1.384 . S
N6545 C6537 1.427 . S
N6545 C6543 1.384 . S
H6546 C6552 0.930 . S
H6547 C6556 0.930 . S
H6548 C6561 0.929 . S
H6549 C6559 0.929 . S
H6550 C6554 0.929 . S
H6551 C6560 0.929 . S
C6552 H6546 0.930 . S
C6552 C6553 1.367 . S
C6552 C6560 1.378 . S
C6553 C6552 1.367 . S
C6553 C6561 1.433 . S
C6554 H6550 0.929 . S
C6554 C6556 1.378 . S
C6554 C6558 1.350 . S
C6555 C6558 1.463 . S
C6555 C6560 1.350 . S
C6555 N6563 1.427 . S
C6556 H6547 0.930 . S
C6556 C6554 1.378 . S
C6556 C6557 1.367 . S
C6557 C6556 1.367 . S
C6557 C6559 1.433 . S
C6558 C6554 1.350 . S
C6558 C6555 1.463 . S
C6558 N6562 1.427 . S
C6559 H6549 0.929 . S
C6559 C6557 1.433 . S
C6559 N6562 1.384 . S
C6560 H6551 0.929 . S
C6560 C6552 1.378 . S
C6560 C6555 1.350 . S
C6561 H6548 0.929 . S
C6561 C6553 1.433 . S
C6561 N6563 1.384 . S
N6562 C6558 1.427 . S
N6562 C6559 1.384 . S
N6563 C6555 1.427 . S
N6563 C6561 1.384 . S
H6564 C6570 0.930 . S
H6565 C6574 0.930 . S
H6566 C6579 0.929 . S
H6567 C6577 0.929 . S
H6568 C6572 0.929 . S
H6569 C6578 0.929 . S
C6570 H6564 0.930 . S
C6570 C6571 1.367 . S
C6570 C6578 1.378 . S
C6571 C6570 1.367 . S
C6571 C6579 1.433 . S
C6572 H6568 0.929 . S
C6572 C6574 1.378 . S
C6572 C6576 1.350 . S
C6573 C6576 1.463 . S
C6573 C6578 1.350 . S
C6573 N6581 1.427 . S
C6574 H6565 0.930 . S
C6574 C6572 1.378 . S
C6574 C6575 1.367 . S
C6575 C6574 1.367 . S
C6575 C6577 1.433 . S
C6576 C6572 1.350 . S
C6576 C6573 1.463 . S
C6576 N6580 1.427 . S
C6577 H6567 0.929 . S
C6577 C6575 1.433 . S
C6577 N6580 1.384 . S
C6578 H6569 0.929 . S
C6578 C6570 1.378 . S
C6578 C6573 1.350 . S
C6579 H6566 0.929 . S
C6579 C6571 1.433 . S
C6579 N6581 1.384 . S
N6580 C6576 1.427 . S
N6580 C6577 1.384 . S
N6581 C6573 1.427 . S
N6581 C6579 1.384 . S
H6582 C6588 0.930 . S
H6583 C6592 0.930 . S
H6584 C6597 0.929 . S
H6585 C6595 0.929 . S
H6586 C6590 0.929 . S
H6587 C6596 0.929 . S
C6588 H6582 0.930 . S
C6588 C6589 1.367 . S
C6588 C6596 1.378 . S
C6589 C6588 1.367 . S
C6589 C6597 1.433 . S
C6590 H6586 0.929 . S
C6590 C6592 1.378 . S
C6590 C6594 1.350 . S
C6591 C6594 1.463 . S
C6591 C6596 1.350 . S
C6591 N6599 1.427 . S
C6592 H6583 0.930 . S
C6592 C6590 1.378 . S
C6592 C6593 1.367 . S
C6593 C6592 1.367 . S
C6593 C6595 1.433 . S
C6594 C6590 1.350 . S
C6594 C6591 1.463 . S
C6594 N6598 1.427 . S
C6595 H6585 0.929 . S
C6595 C6593 1.433 . S
C6595 N6598 1.384 . S
C6596 H6587 0.929 . S
C6596 C6588 1.378 . S
C6596 C6591 1.350 . S
C6597 H6584 0.929 . S
C6597 C6589 1.433 . S
C6597 N6599 1.384 . S
N6598 C6594 1.427 . S
N6598 C6595 1.384 . S
N6599 C6591 1.427 . S
N6599 C6597 1.384 . S
H6600 C6606 0.930 . S
H6601 C6610 0.930 . S
H6602 C6615 0.929 . S
H6603 C6613 0.929 . S
H6604 C6608 0.929 . S
H6605 C6614 0.929 . S
C6606 H6600 0.930 . S
C6606 C6607 1.367 . S
C6606 C6614 1.378 . S
C6607 C6606 1.367 . S
C6607 C6615 1.433 . S
C6608 H6604 0.929 . S
C6608 C6610 1.378 . S
C6608 C6612 1.350 . S
C6609 C6612 1.463 . S
C6609 C6614 1.350 . S
C6609 N6617 1.427 . S
C6610 H6601 0.930 . S
C6610 C6608 1.378 . S
C6610 C6611 1.367 . S
C6611 C6610 1.367 . S
C6611 C6613 1.433 . S
C6612 C6608 1.350 . S
C6612 C6609 1.463 . S
C6612 N6616 1.427 . S
C6613 H6603 0.929 . S
C6613 C6611 1.433 . S
C6613 N6616 1.384 . S
C6614 H6605 0.929 . S
C6614 C6606 1.378 . S
C6614 C6609 1.350 . S
C6615 H6602 0.929 . S
C6615 C6607 1.433 . S
C6615 N6617 1.384 . S
N6616 C6612 1.427 . S
N6616 C6613 1.384 . S
N6617 C6609 1.427 . S
N6617 C6615 1.384 . S
H6618 C6624 0.930 . S
H6619 C6628 0.930 . S
H6620 C6633 0.929 . S
H6621 C6631 0.929 . S
H6622 C6626 0.929 . S
H6623 C6632 0.929 . S
C6624 H6618 0.930 . S
C6624 C6625 1.367 . S
C6624 C6632 1.378 . S
C6625 C6624 1.367 . S
C6625 C6633 1.433 . S
C6626 H6622 0.929 . S
C6626 C6628 1.378 . S
C6626 C6630 1.350 . S
C6627 C6630 1.463 . S
C6627 C6632 1.350 . S
C6627 N6635 1.427 . S
C6628 H6619 0.930 . S
C6628 C6626 1.378 . S
C6628 C6629 1.367 . S
C6629 C6628 1.367 . S
C6629 C6631 1.433 . S
C6630 C6626 1.350 . S
C6630 C6627 1.463 . S
C6630 N6634 1.427 . S
C6631 H6621 0.929 . S
C6631 C6629 1.433 . S
C6631 N6634 1.384 . S
C6632 H6623 0.929 . S
C6632 C6624 1.378 . S
C6632 C6627 1.350 . S
C6633 H6620 0.929 . S
C6633 C6625 1.433 . S
C6633 N6635 1.384 . S
N6634 C6630 1.427 . S
N6634 C6631 1.384 . S
N6635 C6627 1.427 . S
N6635 C6633 1.384 . S
H6636 C6642 0.930 . S
H6637 C6646 0.930 . S
H6638 C6651 0.929 . S
H6639 C6649 0.929 . S
H6640 C6644 0.929 . S
H6641 C6650 0.929 . S
C6642 H6636 0.930 . S
C6642 C6643 1.367 . S
C6642 C6650 1.378 . S
C6643 C6642 1.367 . S
C6643 C6651 1.433 . S
C6644 H6640 0.929 . S
C6644 C6646 1.378 . S
C6644 C6648 1.350 . S
C6645 C6648 1.463 . S
C6645 C6650 1.350 . S
C6645 N6653 1.427 . S
C6646 H6637 0.930 . S
C6646 C6644 1.378 . S
C6646 C6647 1.367 . S
C6647 C6646 1.367 . S
C6647 C6649 1.433 . S
C6648 C6644 1.350 . S
C6648 C6645 1.463 . S
C6648 N6652 1.427 . S
C6649 H6639 0.929 . S
C6649 C6647 1.433 . S
C6649 N6652 1.384 . S
C6650 H6641 0.929 . S
C6650 C6642 1.378 . S
C6650 C6645 1.350 . S
C6651 H6638 0.929 . S
C6651 C6643 1.433 . S
C6651 N6653 1.384 . S
N6652 C6648 1.427 . S
N6652 C6649 1.384 . S
N6653 C6645 1.427 . S
N6653 C6651 1.384 . S
H6654 C6660 0.930 . S
H6655 C6664 0.930 . S
H6656 C6669 0.929 . S
H6657 C6667 0.929 . S
H6658 C6662 0.929 . S
H6659 C6668 0.929 . S
C6660 H6654 0.930 . S
C6660 C6661 1.367 . S
C6660 C6668 1.378 . S
C6661 C6660 1.367 . S
C6661 C6669 1.433 . S
C6662 H6658 0.929 . S
C6662 C6664 1.378 . S
C6662 C6666 1.350 . S
C6663 C6666 1.463 . S
C6663 C6668 1.350 . S
C6663 N6671 1.427 . S
C6664 H6655 0.930 . S
C6664 C6662 1.378 . S
C6664 C6665 1.367 . S
C6665 C6664 1.367 . S
C6665 C6667 1.433 . S
C6666 C6662 1.350 . S
C6666 C6663 1.463 . S
C6666 N6670 1.427 . S
C6667 H6657 0.929 . S
C6667 C6665 1.433 . S
C6667 N6670 1.384 . S
C6668 H6659 0.929 . S
C6668 C6660 1.378 . S
C6668 C6663 1.350 . S
C6669 H6656 0.929 . S
C6669 C6661 1.433 . S
C6669 N6671 1.384 . S
N6670 C6666 1.427 . S
N6670 C6667 1.384 . S
N6671 C6663 1.427 . S
N6671 C6669 1.384 . S
H6672 C6678 0.930 . S
H6673 C6682 0.930 . S
H6674 C6687 0.929 . S
H6675 C6685 0.929 . S
H6676 C6680 0.929 . S
H6677 C6686 0.929 . S
C6678 H6672 0.930 . S
C6678 C6679 1.367 . S
C6678 C6686 1.378 . S
C6679 C6678 1.367 . S
C6679 C6687 1.433 . S
C6680 H6676 0.929 . S
C6680 C6682 1.378 . S
C6680 C6684 1.350 . S
C6681 C6684 1.463 . S
C6681 C6686 1.350 . S
C6681 N6689 1.427 . S
C6682 H6673 0.930 . S
C6682 C6680 1.378 . S
C6682 C6683 1.367 . S
C6683 C6682 1.367 . S
C6683 C6685 1.433 . S
C6684 C6680 1.350 . S
C6684 C6681 1.463 . S
C6684 N6688 1.427 . S
C6685 H6675 0.929 . S
C6685 C6683 1.433 . S
C6685 N6688 1.384 . S
C6686 H6677 0.929 . S
C6686 C6678 1.378 . S
C6686 C6681 1.350 . S
C6687 H6674 0.929 . S
C6687 C6679 1.433 . S
C6687 N6689 1.384 . S
N6688 C6684 1.427 . S
N6688 C6685 1.384 . S
N6689 C6681 1.427 . S
N6689 C6687 1.384 . S
H6690 C6696 0.930 . S
H6691 C6700 0.930 . S
H6692 C6705 0.929 . S
H6693 C6703 0.929 . S
H6694 C6698 0.929 . S
H6695 C6704 0.929 . S
C6696 H6690 0.930 . S
C6696 C6697 1.367 . S
C6696 C6704 1.378 . S
C6697 C6696 1.367 . S
C6697 C6705 1.433 . S
C6698 H6694 0.929 . S
C6698 C6700 1.378 . S
C6698 C6702 1.350 . S
C6699 C6702 1.463 . S
C6699 C6704 1.350 . S
C6699 N6707 1.427 . S
C6700 H6691 0.930 . S
C6700 C6698 1.378 . S
C6700 C6701 1.367 . S
C6701 C6700 1.367 . S
C6701 C6703 1.433 . S
C6702 C6698 1.350 . S
C6702 C6699 1.463 . S
C6702 N6706 1.427 . S
C6703 H6693 0.929 . S
C6703 C6701 1.433 . S
C6703 N6706 1.384 . S
C6704 H6695 0.929 . S
C6704 C6696 1.378 . S
C6704 C6699 1.350 . S
C6705 H6692 0.929 . S
C6705 C6697 1.433 . S
C6705 N6707 1.384 . S
N6706 C6702 1.427 . S
N6706 C6703 1.384 . S
N6707 C6699 1.427 . S
N6707 C6705 1.384 . S
H6708 C6714 0.930 . S
H6709 C6718 0.930 . S
H6710 C6723 0.929 . S
H6711 C6721 0.929 . S
H6712 C6716 0.929 . S
H6713 C6722 0.929 . S
C6714 H6708 0.930 . S
C6714 C6715 1.367 . S
C6714 C6722 1.378 . S
C6715 C6714 1.367 . S
C6715 C6723 1.433 . S
C6716 H6712 0.929 . S
C6716 C6718 1.378 . S
C6716 C6720 1.350 . S
C6717 C6720 1.463 . S
C6717 C6722 1.350 . S
C6717 N6725 1.427 . S
C6718 H6709 0.930 . S
C6718 C6716 1.378 . S
C6718 C6719 1.367 . S
C6719 C6718 1.367 . S
C6719 C6721 1.433 . S
C6720 C6716 1.350 . S
C6720 C6717 1.463 . S
C6720 N6724 1.427 . S
C6721 H6711 0.929 . S
C6721 C6719 1.433 . S
C6721 N6724 1.384 . S
C6722 H6713 0.929 . S
C6722 C6714 1.378 . S
C6722 C6717 1.350 . S
C6723 H6710 0.929 . S
C6723 C6715 1.433 . S
C6723 N6725 1.384 . S
N6724 C6720 1.427 . S
N6724 C6721 1.384 . S
N6725 C6717 1.427 . S
N6725 C6723 1.384 . S
H6726 C6732 0.930 . S
H6727 C6736 0.930 . S
H6728 C6741 0.929 . S
H6729 C6739 0.929 . S
H6730 C6734 0.929 . S
H6731 C6740 0.929 . S
C6732 H6726 0.930 . S
C6732 C6733 1.367 . S
C6732 C6740 1.378 . S
C6733 C6732 1.367 . S
C6733 C6741 1.433 . S
C6734 H6730 0.929 . S
C6734 C6736 1.378 . S
C6734 C6738 1.310 1_556 S
C6735 C6738 1.535 . S
C6735 C6740 1.350 . S
C6735 N6743 1.427 . S
C6736 H6727 0.930 . S
C6736 C6734 1.378 . S
C6736 C6737 1.367 . S
C6737 C6736 1.367 . S
C6737 C6739 1.433 . S
C6738 C6734 1.310 1_554 S
C6738 C6735 1.535 . S
C6738 N6742 1.401 1_554 S
C6739 H6729 0.929 . S
C6739 C6737 1.433 . S
C6739 N6742 1.384 . S
C6740 H6731 0.929 . S
C6740 C6732 1.378 . S
C6740 C6735 1.350 . S
C6741 H6728 0.929 . S
C6741 C6733 1.433 . S
C6741 N6743 1.384 . S
N6742 C6738 1.401 1_556 S
N6742 C6739 1.384 . S
N6743 C6735 1.427 . S
N6743 C6741 1.384 . S
H6744 C6750 0.930 . S
H6745 C6754 0.930 . S
H6746 C6759 0.929 . S
H6747 C6757 0.929 . S
H6748 C6752 0.929 . S
H6749 C6758 0.929 . S
C6750 H6744 0.930 . S
C6750 C6751 1.367 . S
C6750 C6758 1.378 . S
C6751 C6750 1.367 . S
C6751 C6759 1.433 . S
C6752 H6748 0.929 . S
C6752 C6754 1.378 . S
C6752 C6756 1.350 . S
C6753 C6756 1.463 . S
C6753 C6758 1.350 . S
C6753 N6761 1.427 . S
C6754 H6745 0.930 . S
C6754 C6752 1.378 . S
C6754 C6755 1.367 . S
C6755 C6754 1.367 . S
C6755 C6757 1.433 . S
C6756 C6752 1.350 . S
C6756 C6753 1.463 . S
C6756 N6760 1.427 . S
C6757 H6747 0.929 . S
C6757 C6755 1.433 . S
C6757 N6760 1.384 . S
C6758 H6749 0.929 . S
C6758 C6750 1.378 . S
C6758 C6753 1.350 . S
C6759 H6746 0.929 . S
C6759 C6751 1.433 . S
C6759 N6761 1.384 . S
N6760 C6756 1.427 . S
N6760 C6757 1.384 . S
N6761 C6753 1.427 . S
N6761 C6759 1.384 . S
H6762 C6768 0.930 . S
H6763 C6772 0.930 . S
H6764 C6777 0.929 . S
H6765 C6775 0.929 . S
H6766 C6770 0.966 . S
H6767 C6776 0.929 . S
C6768 H6762 0.930 . S
C6768 C6769 1.367 . S
C6768 C6776 1.378 . S
C6769 C6768 1.367 . S
C6769 C6777 1.433 . S
C6770 H6766 0.966 . S
C6770 C6772 1.378 . S
C6770 C6774 1.314 1_554 S
C6771 C6774 1.539 . S
C6771 C6776 1.350 . S
C6771 N6779 1.427 . S
C6772 H6763 0.930 . S
C6772 C6770 1.378 . S
C6772 C6773 1.367 . S
C6773 C6772 1.367 . S
C6773 C6775 1.433 . S
C6774 C6770 1.314 1_556 S
C6774 C6771 1.539 . S
C6774 N6778 1.393 1_556 S
C6775 H6765 0.929 . S
C6775 C6773 1.433 . S
C6775 N6778 1.384 . S
C6776 H6767 0.929 . S
C6776 C6768 1.378 . S
C6776 C6771 1.350 . S
C6777 H6764 0.929 . S
C6777 C6769 1.433 . S
C6777 N6779 1.384 . S
N6778 C6774 1.393 1_554 S
N6778 C6775 1.384 . S
N6779 C6771 1.427 . S
N6779 C6777 1.384 . S
H6780 C6786 0.930 . S
H6781 C6790 0.930 . S
H6782 C6795 0.929 . S
H6783 C6793 0.929 . S
H6784 C6788 0.929 . S
H6785 C6794 0.929 . S
C6786 H6780 0.930 . S
C6786 C6787 1.367 . S
C6786 C6794 1.378 . S
C6787 C6786 1.367 . S
C6787 C6795 1.433 . S
C6788 H6784 0.929 . S
C6788 C6790 1.378 . S
C6788 C6792 1.350 . S
C6789 C6792 1.463 . S
C6789 C6794 1.350 . S
C6789 N6797 1.427 . S
C6790 H6781 0.930 . S
C6790 C6788 1.378 . S
C6790 C6791 1.367 . S
C6791 C6790 1.367 . S
C6791 C6793 1.433 . S
C6792 C6788 1.350 . S
C6792 C6789 1.463 . S
C6792 N6796 1.427 . S
C6793 H6783 0.929 . S
C6793 C6791 1.433 . S
C6793 N6796 1.384 . S
C6794 H6785 0.929 . S
C6794 C6786 1.378 . S
C6794 C6789 1.350 . S
C6795 H6782 0.929 . S
C6795 C6787 1.433 . S
C6795 N6797 1.384 . S
N6796 C6792 1.427 . S
N6796 C6793 1.384 . S
N6797 C6789 1.427 . S
N6797 C6795 1.384 . S
H6798 C6804 0.930 . S
H6799 C6808 0.930 . S
H6800 C6813 0.929 . S
H6801 C6811 0.929 . S
H6802 C6806 0.929 . S
H6803 C6812 0.929 . S
C6804 H6798 0.930 . S
C6804 C6805 1.367 . S
C6804 C6812 1.378 . S
C6805 C6804 1.367 . S
C6805 C6813 1.433 . S
C6806 H6802 0.929 . S
C6806 C6808 1.378 . S
C6806 C6810 1.350 . S
C6807 C6810 1.463 . S
C6807 C6812 1.350 . S
C6807 N6815 1.427 . S
C6808 H6799 0.930 . S
C6808 C6806 1.378 . S
C6808 C6809 1.367 . S
C6809 C6808 1.367 . S
C6809 C6811 1.433 . S
C6810 C6806 1.350 . S
C6810 C6807 1.463 . S
C6810 N6814 1.427 . S
C6811 H6801 0.929 . S
C6811 C6809 1.433 . S
C6811 N6814 1.384 . S
C6812 H6803 0.929 . S
C6812 C6804 1.378 . S
C6812 C6807 1.350 . S
C6813 H6800 0.929 . S
C6813 C6805 1.433 . S
C6813 N6815 1.384 . S
N6814 C6810 1.427 . S
N6814 C6811 1.384 . S
N6815 C6807 1.427 . S
N6815 C6813 1.384 . S
H6816 C6822 0.930 . S
H6817 C6826 0.930 . S
H6818 C6831 0.929 . S
H6819 C6829 0.929 . S
H6820 C6824 0.929 . S
H6821 C6830 0.929 . S
C6822 H6816 0.930 . S
C6822 C6823 1.367 . S
C6822 C6830 1.378 . S
C6823 C6822 1.367 . S
C6823 C6831 1.433 . S
C6824 H6820 0.929 . S
C6824 C6826 1.378 . S
C6824 C6828 1.350 . S
C6825 C6828 1.463 . S
C6825 C6830 1.350 . S
C6825 N6833 1.427 . S
C6826 H6817 0.930 . S
C6826 C6824 1.378 . S
C6826 C6827 1.367 . S
C6827 C6826 1.367 . S
C6827 C6829 1.433 . S
C6828 C6824 1.350 . S
C6828 C6825 1.463 . S
C6828 N6832 1.427 . S
C6829 H6819 0.929 . S
C6829 C6827 1.433 . S
C6829 N6832 1.384 . S
C6830 H6821 0.929 . S
C6830 C6822 1.378 . S
C6830 C6825 1.350 . S
C6831 H6818 0.929 . S
C6831 C6823 1.433 . S
C6831 N6833 1.384 . S
N6832 C6828 1.427 . S
N6832 C6829 1.384 . S
N6833 C6825 1.427 . S
N6833 C6831 1.384 . S
H6834 C6840 0.930 . S
H6835 C6844 0.930 . S
H6836 C6849 0.929 . S
H6837 C6847 0.929 . S
H6838 C6842 0.929 . S
H6839 C6848 0.929 . S
C6840 H6834 0.930 . S
C6840 C6841 1.367 . S
C6840 C6848 1.378 . S
C6841 C6840 1.367 . S
C6841 C6849 1.433 . S
C6842 H6838 0.929 . S
C6842 C6844 1.378 . S
C6842 C6846 1.350 . S
C6843 C6846 1.463 . S
C6843 C6848 1.350 . S
C6843 N6851 1.427 . S
C6844 H6835 0.930 . S
C6844 C6842 1.378 . S
C6844 C6845 1.367 . S
C6845 C6844 1.367 . S
C6845 C6847 1.433 . S
C6846 C6842 1.350 . S
C6846 C6843 1.463 . S
C6846 N6850 1.427 . S
C6847 H6837 0.929 . S
C6847 C6845 1.433 . S
C6847 N6850 1.384 . S
C6848 H6839 0.929 . S
C6848 C6840 1.378 . S
C6848 C6843 1.350 . S
C6849 H6836 0.929 . S
C6849 C6841 1.433 . S
C6849 N6851 1.384 . S
N6850 C6846 1.427 . S
N6850 C6847 1.384 . S
N6851 C6843 1.427 . S
N6851 C6849 1.384 . S
H6852 C6858 0.930 . S
H6853 C6862 0.930 . S
H6854 C6867 0.929 . S
H6855 C6865 0.929 . S
H6856 C6860 0.929 . S
H6857 C6866 0.929 . S
C6858 H6852 0.930 . S
C6858 C6859 1.367 . S
C6858 C6866 1.378 . S
C6859 C6858 1.367 . S
C6859 C6867 1.433 . S
C6860 H6856 0.929 . S
C6860 C6862 1.378 . S
C6860 C6864 1.350 . S
C6861 C6864 1.463 . S
C6861 C6866 1.350 . S
C6861 N6869 1.427 . S
C6862 H6853 0.930 . S
C6862 C6860 1.378 . S
C6862 C6863 1.367 . S
C6863 C6862 1.367 . S
C6863 C6865 1.433 . S
C6864 C6860 1.350 . S
C6864 C6861 1.463 . S
C6864 N6868 1.427 . S
C6865 H6855 0.929 . S
C6865 C6863 1.433 . S
C6865 N6868 1.384 . S
C6866 H6857 0.929 . S
C6866 C6858 1.378 . S
C6866 C6861 1.350 . S
C6867 H6854 0.929 . S
C6867 C6859 1.433 . S
C6867 N6869 1.384 . S
N6868 C6864 1.427 . S
N6868 C6865 1.384 . S
N6869 C6861 1.427 . S
N6869 C6867 1.384 . S
H6870 C6876 0.930 . S
H6871 C6880 0.930 . S
H6872 C6885 0.929 . S
H6873 C6883 0.929 . S
H6874 C6878 0.929 . S
H6875 C6884 0.929 . S
C6876 H6870 0.930 . S
C6876 C6877 1.367 . S
C6876 C6884 1.378 . S
C6877 C6876 1.367 . S
C6877 C6885 1.433 . S
C6878 H6874 0.929 . S
C6878 C6880 1.378 . S
C6878 C6882 1.350 . S
C6879 C6882 1.463 . S
C6879 C6884 1.350 . S
C6879 N6887 1.427 . S
C6880 H6871 0.930 . S
C6880 C6878 1.378 . S
C6880 C6881 1.367 . S
C6881 C6880 1.367 . S
C6881 C6883 1.433 . S
C6882 C6878 1.350 . S
C6882 C6879 1.463 . S
C6882 N6886 1.427 . S
C6883 H6873 0.929 . S
C6883 C6881 1.433 . S
C6883 N6886 1.384 . S
C6884 H6875 0.929 . S
C6884 C6876 1.378 . S
C6884 C6879 1.350 . S
C6885 H6872 0.929 . S
C6885 C6877 1.433 . S
C6885 N6887 1.384 . S
N6886 C6882 1.427 . S
N6886 C6883 1.384 . S
N6887 C6879 1.427 . S
N6887 C6885 1.384 . S
H6888 C6894 0.930 . S
H6889 C6898 0.930 . S
H6890 C6903 0.929 . S
H6891 C6901 0.929 . S
H6892 C6896 0.929 . S
H6893 C6902 0.929 . S
C6894 H6888 0.930 . S
C6894 C6895 1.367 . S
C6894 C6902 1.378 . S
C6895 C6894 1.367 . S
C6895 C6903 1.433 . S
C6896 H6892 0.929 . S
C6896 C6898 1.378 . S
C6896 C6900 1.350 . S
C6897 C6900 1.463 . S
C6897 C6902 1.350 . S
C6897 N6905 1.427 . S
C6898 H6889 0.930 . S
C6898 C6896 1.378 . S
C6898 C6899 1.367 . S
C6899 C6898 1.367 . S
C6899 C6901 1.433 . S
C6900 C6896 1.350 . S
C6900 C6897 1.463 . S
C6900 N6904 1.427 . S
C6901 H6891 0.929 . S
C6901 C6899 1.433 . S
C6901 N6904 1.384 . S
C6902 H6893 0.929 . S
C6902 C6894 1.378 . S
C6902 C6897 1.350 . S
C6903 H6890 0.929 . S
C6903 C6895 1.433 . S
C6903 N6905 1.384 . S
N6904 C6900 1.427 . S
N6904 C6901 1.384 . S
N6905 C6897 1.427 . S
N6905 C6903 1.384 . S
H6906 C6912 0.930 . S
H6907 C6916 0.930 . S
H6908 C6921 0.929 . S
H6909 C6919 0.929 . S
H6910 C6914 0.929 . S
H6911 C6920 0.929 . S
C6912 H6906 0.930 . S
C6912 C6913 1.367 . S
C6912 C6920 1.378 . S
C6913 C6912 1.367 . S
C6913 C6921 1.433 . S
C6914 H6910 0.929 . S
C6914 C6916 1.378 . S
C6914 C6918 1.350 . S
C6915 C6918 1.463 . S
C6915 C6920 1.350 . S
C6915 N6923 1.427 . S
C6916 H6907 0.930 . S
C6916 C6914 1.378 . S
C6916 C6917 1.367 . S
C6917 C6916 1.367 . S
C6917 C6919 1.433 . S
C6918 C6914 1.350 . S
C6918 C6915 1.463 . S
C6918 N6922 1.427 . S
C6919 H6909 0.929 . S
C6919 C6917 1.433 . S
C6919 N6922 1.384 . S
C6920 H6911 0.929 . S
C6920 C6912 1.378 . S
C6920 C6915 1.350 . S
C6921 H6908 0.929 . S
C6921 C6913 1.433 . S
C6921 N6923 1.384 . S
N6922 C6918 1.427 . S
N6922 C6919 1.384 . S
N6923 C6915 1.427 . S
N6923 C6921 1.384 . S
H6924 C6930 0.930 . S
H6925 C6934 0.930 . S
H6926 C6939 0.929 . S
H6927 C6937 0.929 . S
H6928 C6932 0.929 . S
H6929 C6938 0.929 . S
C6930 H6924 0.930 . S
C6930 C6931 1.367 . S
C6930 C6938 1.378 . S
C6931 C6930 1.367 . S
C6931 C6939 1.433 . S
C6932 H6928 0.929 . S
C6932 C6934 1.378 . S
C6932 C6936 1.350 . S
C6933 C6936 1.463 . S
C6933 C6938 1.350 . S
C6933 N6941 1.427 . S
C6934 H6925 0.930 . S
C6934 C6932 1.378 . S
C6934 C6935 1.367 . S
C6935 C6934 1.367 . S
C6935 C6937 1.433 . S
C6936 C6932 1.350 . S
C6936 C6933 1.463 . S
C6936 N6940 1.427 . S
C6937 H6927 0.929 . S
C6937 C6935 1.433 . S
C6937 N6940 1.384 . S
C6938 H6929 0.929 . S
C6938 C6930 1.378 . S
C6938 C6933 1.350 . S
C6939 H6926 0.929 . S
C6939 C6931 1.433 . S
C6939 N6941 1.384 . S
N6940 C6936 1.427 . S
N6940 C6937 1.384 . S
N6941 C6933 1.427 . S
N6941 C6939 1.384 . S
H6942 C6948 0.930 . S
H6943 C6952 0.930 . S
H6944 C6957 0.929 . S
H6945 C6955 0.929 . S
H6946 C6950 0.929 . S
H6947 C6956 0.929 . S
C6948 H6942 0.930 . S
C6948 C6949 1.367 . S
C6948 C6956 1.378 . S
C6949 C6948 1.367 . S
C6949 C6957 1.433 . S
C6950 H6946 0.929 . S
C6950 C6952 1.378 . S
C6950 C6954 1.350 . S
C6951 C6954 1.463 . S
C6951 C6956 1.350 . S
C6951 N6959 1.427 . S
C6952 H6943 0.930 . S
C6952 C6950 1.378 . S
C6952 C6953 1.367 . S
C6953 C6952 1.367 . S
C6953 C6955 1.433 . S
C6954 C6950 1.350 . S
C6954 C6951 1.463 . S
C6954 N6958 1.427 . S
C6955 H6945 0.929 . S
C6955 C6953 1.433 . S
C6955 N6958 1.384 . S
C6956 H6947 0.929 . S
C6956 C6948 1.378 . S
C6956 C6951 1.350 . S
C6957 H6944 0.929 . S
C6957 C6949 1.433 . S
C6957 N6959 1.384 . S
N6958 C6954 1.427 . S
N6958 C6955 1.384 . S
N6959 C6951 1.427 . S
N6959 C6957 1.384 . S
H6960 C6966 0.930 . S
H6961 C6970 0.930 . S
H6962 C6975 0.929 . S
H6963 C6973 0.929 . S
H6964 C6968 0.929 . S
H6965 C6974 0.929 . S
C6966 H6960 0.930 . S
C6966 C6967 1.367 . S
C6966 C6974 1.378 . S
C6967 C6966 1.367 . S
C6967 C6975 1.433 . S
C6968 H6964 0.929 . S
C6968 C6970 1.378 . S
C6968 C6972 1.350 . S
C6969 C6972 1.463 . S
C6969 C6974 1.350 . S
C6969 N6977 1.427 . S
C6970 H6961 0.930 . S
C6970 C6968 1.378 . S
C6970 C6971 1.367 . S
C6971 C6970 1.367 . S
C6971 C6973 1.433 . S
C6972 C6968 1.350 . S
C6972 C6969 1.463 . S
C6972 N6976 1.427 . S
C6973 H6963 0.929 . S
C6973 C6971 1.433 . S
C6973 N6976 1.384 . S
C6974 H6965 0.929 . S
C6974 C6966 1.378 . S
C6974 C6969 1.350 . S
C6975 H6962 0.929 . S
C6975 C6967 1.433 . S
C6975 N6977 1.384 . S
N6976 C6972 1.427 . S
N6976 C6973 1.384 . S
N6977 C6969 1.427 . S
N6977 C6975 1.384 . S
H6978 C6984 0.930 . S
H6979 C6988 0.930 . S
H6980 C6993 0.929 . S
H6981 C6991 0.929 . S
H6982 C6986 0.929 . S
H6983 C6992 0.929 . S
C6984 H6978 0.930 . S
C6984 C6985 1.367 . S
C6984 C6992 1.378 . S
C6985 C6984 1.367 . S
C6985 C6993 1.433 . S
C6986 H6982 0.929 . S
C6986 C6988 1.378 . S
C6986 C6990 1.350 . S
C6987 C6990 1.463 . S
C6987 C6992 1.350 . S
C6987 N6995 1.427 . S
C6988 H6979 0.930 . S
C6988 C6986 1.378 . S
C6988 C6989 1.367 . S
C6989 C6988 1.367 . S
C6989 C6991 1.433 . S
C6990 C6986 1.350 . S
C6990 C6987 1.463 . S
C6990 N6994 1.427 . S
C6991 H6981 0.929 . S
C6991 C6989 1.433 . S
C6991 N6994 1.384 . S
C6992 H6983 0.929 . S
C6992 C6984 1.378 . S
C6992 C6987 1.350 . S
C6993 H6980 0.929 . S
C6993 C6985 1.433 . S
C6993 N6995 1.384 . S
N6994 C6990 1.427 . S
N6994 C6991 1.384 . S
N6995 C6987 1.427 . S
N6995 C6993 1.384 . S
H6996 C7002 0.930 . S
H6997 C7006 0.930 . S
H6998 C7011 0.929 . S
H6999 C7009 0.929 . S
H7000 C7004 0.929 . S
H7001 C7010 0.929 . S
C7002 H6996 0.930 . S
C7002 C7003 1.367 . S
C7002 C7010 1.378 . S
C7003 C7002 1.367 . S
C7003 C7011 1.433 . S
C7004 H7000 0.929 . S
C7004 C7006 1.378 . S
C7004 C7008 1.350 . S
C7005 C7008 1.463 . S
C7005 C7010 1.350 . S
C7005 N7013 1.427 . S
C7006 H6997 0.930 . S
C7006 C7004 1.378 . S
C7006 C7007 1.367 . S
C7007 C7006 1.367 . S
C7007 C7009 1.433 . S
C7008 C7004 1.350 . S
C7008 C7005 1.463 . S
C7008 N7012 1.427 . S
C7009 H6999 0.929 . S
C7009 C7007 1.433 . S
C7009 N7012 1.384 . S
C7010 H7001 0.929 . S
C7010 C7002 1.378 . S
C7010 C7005 1.350 . S
C7011 H6998 0.929 . S
C7011 C7003 1.433 . S
C7011 N7013 1.384 . S
N7012 C7008 1.427 . S
N7012 C7009 1.384 . S
N7013 C7005 1.427 . S
N7013 C7011 1.384 . S
H7014 C7020 0.930 . S
H7015 C7024 0.930 . S
H7016 C7029 0.929 . S
H7017 C7027 0.929 . S
H7018 C7022 0.929 . S
H7019 C7028 0.929 . S
C7020 H7014 0.930 . S
C7020 C7021 1.367 . S
C7020 C7028 1.378 . S
C7021 C7020 1.367 . S
C7021 C7029 1.433 . S
C7022 H7018 0.929 . S
C7022 C7024 1.378 . S
C7022 C7026 1.350 . S
C7023 C7026 1.463 . S
C7023 C7028 1.350 . S
C7023 N7031 1.427 . S
C7024 H7015 0.930 . S
C7024 C7022 1.378 . S
C7024 C7025 1.367 . S
C7025 C7024 1.367 . S
C7025 C7027 1.433 . S
C7026 C7022 1.350 . S
C7026 C7023 1.463 . S
C7026 N7030 1.427 . S
C7027 H7017 0.929 . S
C7027 C7025 1.433 . S
C7027 N7030 1.384 . S
C7028 H7019 0.929 . S
C7028 C7020 1.378 . S
C7028 C7023 1.350 . S
C7029 H7016 0.929 . S
C7029 C7021 1.433 . S
C7029 N7031 1.384 . S
N7030 C7026 1.427 . S
N7030 C7027 1.384 . S
N7031 C7023 1.427 . S
N7031 C7029 1.384 . S
H7032 C7038 0.930 . S
H7033 C7042 0.930 . S
H7034 C7047 0.929 . S
H7035 C7045 0.929 . S
H7036 C7040 0.929 . S
H7037 C7046 0.929 . S
C7038 H7032 0.930 . S
C7038 C7039 1.367 . S
C7038 C7046 1.378 . S
C7039 C7038 1.367 . S
C7039 C7047 1.433 . S
C7040 H7036 0.929 . S
C7040 C7042 1.378 . S
C7040 C7044 1.350 . S
C7041 C7044 1.463 . S
C7041 C7046 1.350 . S
C7041 N7049 1.427 . S
C7042 H7033 0.930 . S
C7042 C7040 1.378 . S
C7042 C7043 1.367 . S
C7043 C7042 1.367 . S
C7043 C7045 1.433 . S
C7044 C7040 1.350 . S
C7044 C7041 1.463 . S
C7044 N7048 1.427 . S
C7045 H7035 0.929 . S
C7045 C7043 1.433 . S
C7045 N7048 1.384 . S
C7046 H7037 0.929 . S
C7046 C7038 1.378 . S
C7046 C7041 1.350 . S
C7047 H7034 0.929 . S
C7047 C7039 1.433 . S
C7047 N7049 1.384 . S
N7048 C7044 1.427 . S
N7048 C7045 1.384 . S
N7049 C7041 1.427 . S
N7049 C7047 1.384 . S
H7050 C7056 0.930 . S
H7051 C7060 0.930 . S
H7052 C7065 0.929 . S
H7053 C7063 0.929 . S
H7054 C7058 0.929 . S
H7055 C7064 0.929 . S
C7056 H7050 0.930 . S
C7056 C7057 1.367 . S
C7056 C7064 1.378 . S
C7057 C7056 1.367 . S
C7057 C7065 1.433 . S
C7058 H7054 0.929 . S
C7058 C7060 1.378 . S
C7058 C7062 1.350 . S
C7059 C7062 1.463 . S
C7059 C7064 1.350 . S
C7059 N7067 1.427 . S
C7060 H7051 0.930 . S
C7060 C7058 1.378 . S
C7060 C7061 1.367 . S
C7061 C7060 1.367 . S
C7061 C7063 1.433 . S
C7062 C7058 1.350 . S
C7062 C7059 1.463 . S
C7062 N7066 1.427 . S
C7063 H7053 0.929 . S
C7063 C7061 1.433 . S
C7063 N7066 1.384 . S
C7064 H7055 0.929 . S
C7064 C7056 1.378 . S
C7064 C7059 1.350 . S
C7065 H7052 0.929 . S
C7065 C7057 1.433 . S
C7065 N7067 1.384 . S
N7066 C7062 1.427 . S
N7066 C7063 1.384 . S
N7067 C7059 1.427 . S
N7067 C7065 1.384 . S
H7068 C7074 0.930 . S
H7069 C7078 0.930 . S
H7070 C7083 0.929 . S
H7071 C7081 0.929 . S
H7072 C7076 0.929 . S
H7073 C7082 0.929 . S
C7074 H7068 0.930 . S
C7074 C7075 1.367 . S
C7074 C7082 1.378 . S
C7075 C7074 1.367 . S
C7075 C7083 1.433 . S
C7076 H7072 0.929 . S
C7076 C7078 1.378 . S
C7076 C7080 1.350 . S
C7077 C7080 1.463 . S
C7077 C7082 1.350 . S
C7077 N7085 1.427 . S
C7078 H7069 0.930 . S
C7078 C7076 1.378 . S
C7078 C7079 1.367 . S
C7079 C7078 1.367 . S
C7079 C7081 1.433 . S
C7080 C7076 1.350 . S
C7080 C7077 1.463 . S
C7080 N7084 1.427 . S
C7081 H7071 0.929 . S
C7081 C7079 1.433 . S
C7081 N7084 1.384 . S
C7082 H7073 0.929 . S
C7082 C7074 1.378 . S
C7082 C7077 1.350 . S
C7083 H7070 0.929 . S
C7083 C7075 1.433 . S
C7083 N7085 1.384 . S
N7084 C7080 1.427 . S
N7084 C7081 1.384 . S
N7085 C7077 1.427 . S
N7085 C7083 1.384 . S
H7086 C7092 0.930 . S
H7087 C7096 0.930 . S
H7088 C7101 0.929 . S
H7089 C7099 0.929 . S
H7090 C7094 0.929 . S
H7091 C7100 0.929 . S
C7092 H7086 0.930 . S
C7092 C7093 1.367 . S
C7092 C7100 1.378 . S
C7093 C7092 1.367 . S
C7093 C7101 1.433 . S
C7094 H7090 0.929 . S
C7094 C7096 1.378 . S
C7094 C7098 1.350 . S
C7095 C7098 1.463 . S
C7095 C7100 1.350 . S
C7095 N7103 1.427 . S
C7096 H7087 0.930 . S
C7096 C7094 1.378 . S
C7096 C7097 1.367 . S
C7097 C7096 1.367 . S
C7097 C7099 1.433 . S
C7098 C7094 1.350 . S
C7098 C7095 1.463 . S
C7098 N7102 1.427 . S
C7099 H7089 0.929 . S
C7099 C7097 1.433 . S
C7099 N7102 1.384 . S
C7100 H7091 0.929 . S
C7100 C7092 1.378 . S
C7100 C7095 1.350 . S
C7101 H7088 0.929 . S
C7101 C7093 1.433 . S
C7101 N7103 1.384 . S
N7102 C7098 1.427 . S
N7102 C7099 1.384 . S
N7103 C7095 1.427 . S
N7103 C7101 1.384 . S
H7104 C7110 0.930 . S
H7105 C7114 0.930 . S
H7106 C7119 0.929 . S
H7107 C7117 0.929 . S
H7108 C7112 0.929 . S
H7109 C7118 0.929 . S
C7110 H7104 0.930 . S
C7110 C7111 1.367 . S
C7110 C7118 1.378 . S
C7111 C7110 1.367 . S
C7111 C7119 1.433 . S
C7112 H7108 0.929 . S
C7112 C7114 1.378 . S
C7112 C7116 1.350 . S
C7113 C7116 1.463 . S
C7113 C7118 1.350 . S
C7113 N7121 1.427 . S
C7114 H7105 0.930 . S
C7114 C7112 1.378 . S
C7114 C7115 1.367 . S
C7115 C7114 1.367 . S
C7115 C7117 1.433 . S
C7116 C7112 1.350 . S
C7116 C7113 1.463 . S
C7116 N7120 1.427 . S
C7117 H7107 0.929 . S
C7117 C7115 1.433 . S
C7117 N7120 1.384 . S
C7118 H7109 0.929 . S
C7118 C7110 1.378 . S
C7118 C7113 1.350 . S
C7119 H7106 0.929 . S
C7119 C7111 1.433 . S
C7119 N7121 1.384 . S
N7120 C7116 1.427 . S
N7120 C7117 1.384 . S
N7121 C7113 1.427 . S
N7121 C7119 1.384 . S
H7122 C7128 0.930 . S
H7123 C7132 0.930 . S
H7124 C7137 0.929 . S
H7125 C7135 0.929 . S
H7126 C7130 0.929 . S
H7127 C7136 0.929 . S
C7128 H7122 0.930 . S
C7128 C7129 1.367 . S
C7128 C7136 1.378 . S
C7129 C7128 1.367 . S
C7129 C7137 1.433 . S
C7130 H7126 0.929 . S
C7130 C7132 1.378 . S
C7130 C7134 1.350 . S
C7131 C7134 1.463 . S
C7131 C7136 1.350 . S
C7131 N7139 1.427 . S
C7132 H7123 0.930 . S
C7132 C7130 1.378 . S
C7132 C7133 1.367 . S
C7133 C7132 1.367 . S
C7133 C7135 1.433 . S
C7134 C7130 1.350 . S
C7134 C7131 1.463 . S
C7134 N7138 1.427 . S
C7135 H7125 0.929 . S
C7135 C7133 1.433 . S
C7135 N7138 1.384 . S
C7136 H7127 0.929 . S
C7136 C7128 1.378 . S
C7136 C7131 1.350 . S
C7137 H7124 0.929 . S
C7137 C7129 1.433 . S
C7137 N7139 1.384 . S
N7138 C7134 1.427 . S
N7138 C7135 1.384 . S
N7139 C7131 1.427 . S
N7139 C7137 1.384 . S
H7140 C7146 0.930 . S
H7141 C7150 0.930 . S
H7142 C7155 0.929 . S
H7143 C7153 0.929 . S
H7144 C7148 0.929 . S
H7145 C7154 0.929 . S
C7146 H7140 0.930 . S
C7146 C7147 1.367 . S
C7146 C7154 1.378 . S
C7147 C7146 1.367 . S
C7147 C7155 1.433 . S
C7148 H7144 0.929 . S
C7148 C7150 1.378 . S
C7148 C7152 1.350 . S
C7149 C7152 1.463 . S
C7149 C7154 1.350 . S
C7149 N7157 1.427 . S
C7150 H7141 0.930 . S
C7150 C7148 1.378 . S
C7150 C7151 1.367 . S
C7151 C7150 1.367 . S
C7151 C7153 1.433 . S
C7152 C7148 1.350 . S
C7152 C7149 1.463 . S
C7152 N7156 1.427 . S
C7153 H7143 0.929 . S
C7153 C7151 1.433 . S
C7153 N7156 1.384 . S
C7154 H7145 0.929 . S
C7154 C7146 1.378 . S
C7154 C7149 1.350 . S
C7155 H7142 0.929 . S
C7155 C7147 1.433 . S
C7155 N7157 1.384 . S
N7156 C7152 1.427 . S
N7156 C7153 1.384 . S
N7157 C7149 1.427 . S
N7157 C7155 1.384 . S
H7158 C7164 0.930 . S
H7159 C7168 0.930 . S
H7160 C7173 0.929 . S
H7161 C7171 0.929 . S
H7162 C7166 0.929 . S
H7163 C7172 0.929 . S
C7164 H7158 0.930 . S
C7164 C7165 1.367 . S
C7164 C7172 1.378 . S
C7165 C7164 1.367 . S
C7165 C7173 1.433 . S
C7166 H7162 0.929 . S
C7166 C7168 1.378 . S
C7166 C7170 1.350 . S
C7167 C7170 1.463 . S
C7167 C7172 1.350 . S
C7167 N7175 1.427 . S
C7168 H7159 0.930 . S
C7168 C7166 1.378 . S
C7168 C7169 1.367 . S
C7169 C7168 1.367 . S
C7169 C7171 1.433 . S
C7170 C7166 1.350 . S
C7170 C7167 1.463 . S
C7170 N7174 1.427 . S
C7171 H7161 0.929 . S
C7171 C7169 1.433 . S
C7171 N7174 1.384 . S
C7172 H7163 0.929 . S
C7172 C7164 1.378 . S
C7172 C7167 1.350 . S
C7173 H7160 0.929 . S
C7173 C7165 1.433 . S
C7173 N7175 1.384 . S
N7174 C7170 1.427 . S
N7174 C7171 1.384 . S
N7175 C7167 1.427 . S
N7175 C7173 1.384 . S
H7176 C7182 0.930 . S
H7177 C7186 0.930 . S
H7178 C7191 0.929 . S
H7179 C7189 0.929 . S
H7180 C7184 0.929 . S
H7181 C7190 0.929 . S
C7182 H7176 0.930 . S
C7182 C7183 1.367 . S
C7182 C7190 1.378 . S
C7183 C7182 1.367 . S
C7183 C7191 1.433 . S
C7184 H7180 0.929 . S
C7184 C7186 1.378 . S
C7184 C7188 1.350 . S
C7185 C7188 1.463 . S
C7185 C7190 1.350 . S
C7185 N7193 1.427 . S
C7186 H7177 0.930 . S
C7186 C7184 1.378 . S
C7186 C7187 1.367 . S
C7187 C7186 1.367 . S
C7187 C7189 1.433 . S
C7188 C7184 1.350 . S
C7188 C7185 1.463 . S
C7188 N7192 1.427 . S
C7189 H7179 0.929 . S
C7189 C7187 1.433 . S
C7189 N7192 1.384 . S
C7190 H7181 0.929 . S
C7190 C7182 1.378 . S
C7190 C7185 1.350 . S
C7191 H7178 0.929 . S
C7191 C7183 1.433 . S
C7191 N7193 1.384 . S
N7192 C7188 1.427 . S
N7192 C7189 1.384 . S
N7193 C7185 1.427 . S
N7193 C7191 1.384 . S
H7194 C7200 0.930 . S
H7195 C7204 0.930 . S
H7196 C7209 0.929 . S
H7197 C7207 0.929 . S
H7198 C7202 0.929 . S
H7199 C7208 0.929 . S
C7200 H7194 0.930 . S
C7200 C7201 1.367 . S
C7200 C7208 1.378 . S
C7201 C7200 1.367 . S
C7201 C7209 1.433 . S
C7202 H7198 0.929 . S
C7202 C7204 1.378 . S
C7202 C7206 1.350 . S
C7203 C7206 1.463 . S
C7203 C7208 1.350 . S
C7203 N7211 1.427 . S
C7204 H7195 0.930 . S
C7204 C7202 1.378 . S
C7204 C7205 1.367 . S
C7205 C7204 1.367 . S
C7205 C7207 1.433 . S
C7206 C7202 1.350 . S
C7206 C7203 1.463 . S
C7206 N7210 1.427 . S
C7207 H7197 0.929 . S
C7207 C7205 1.433 . S
C7207 N7210 1.384 . S
C7208 H7199 0.929 . S
C7208 C7200 1.378 . S
C7208 C7203 1.350 . S
C7209 H7196 0.929 . S
C7209 C7201 1.433 . S
C7209 N7211 1.384 . S
N7210 C7206 1.427 . S
N7210 C7207 1.384 . S
N7211 C7203 1.427 . S
N7211 C7209 1.384 . S
H7212 C7218 0.930 . S
H7213 C7222 0.930 . S
H7214 C7227 0.929 . S
H7215 C7225 0.929 . S
H7216 C7220 0.929 . S
H7217 C7226 0.929 . S
C7218 H7212 0.930 . S
C7218 C7219 1.367 . S
C7218 C7226 1.378 . S
C7219 C7218 1.367 . S
C7219 C7227 1.433 . S
C7220 H7216 0.929 . S
C7220 C7222 1.378 . S
C7220 C7224 1.350 . S
C7221 C7224 1.463 . S
C7221 C7226 1.350 . S
C7221 N7229 1.427 . S
C7222 H7213 0.930 . S
C7222 C7220 1.378 . S
C7222 C7223 1.367 . S
C7223 C7222 1.367 . S
C7223 C7225 1.433 . S
C7224 C7220 1.350 . S
C7224 C7221 1.463 . S
C7224 N7228 1.427 . S
C7225 H7215 0.929 . S
C7225 C7223 1.433 . S
C7225 N7228 1.384 . S
C7226 H7217 0.929 . S
C7226 C7218 1.378 . S
C7226 C7221 1.350 . S
C7227 H7214 0.929 . S
C7227 C7219 1.433 . S
C7227 N7229 1.384 . S
N7228 C7224 1.427 . S
N7228 C7225 1.384 . S
N7229 C7221 1.427 . S
N7229 C7227 1.384 . S
H7230 C7236 0.930 . S
H7231 C7240 0.930 . S
H7232 C7245 0.929 . S
H7233 C7243 0.929 . S
H7234 C7238 0.929 . S
H7235 C7244 0.929 . S
C7236 H7230 0.930 . S
C7236 C7237 1.367 . S
C7236 C7244 1.378 . S
C7237 C7236 1.367 . S
C7237 C7245 1.433 . S
C7238 H7234 0.929 . S
C7238 C7240 1.378 . S
C7238 C7242 1.350 . S
C7239 C7242 1.463 . S
C7239 C7244 1.350 . S
C7239 N7247 1.427 . S
C7240 H7231 0.930 . S
C7240 C7238 1.378 . S
C7240 C7241 1.367 . S
C7241 C7240 1.367 . S
C7241 C7243 1.433 . S
C7242 C7238 1.350 . S
C7242 C7239 1.463 . S
C7242 N7246 1.427 . S
C7243 H7233 0.929 . S
C7243 C7241 1.433 . S
C7243 N7246 1.384 . S
C7244 H7235 0.929 . S
C7244 C7236 1.378 . S
C7244 C7239 1.350 . S
C7245 H7232 0.929 . S
C7245 C7237 1.433 . S
C7245 N7247 1.384 . S
N7246 C7242 1.427 . S
N7246 C7243 1.384 . S
N7247 C7239 1.427 . S
N7247 C7245 1.384 . S
H7248 C7254 0.930 . S
H7249 C7258 0.930 . S
H7250 C7263 0.929 . S
H7251 C7261 0.929 . S
H7252 C7256 0.929 . S
H7253 C7262 0.929 . S
C7254 H7248 0.930 . S
C7254 C7255 1.367 . S
C7254 C7262 1.378 . S
C7255 C7254 1.367 . S
C7255 C7263 1.433 . S
C7256 H7252 0.929 . S
C7256 C7258 1.378 . S
C7256 C7260 1.350 . S
C7257 C7260 1.463 . S
C7257 C7262 1.350 . S
C7257 N7265 1.427 . S
C7258 H7249 0.930 . S
C7258 C7256 1.378 . S
C7258 C7259 1.367 . S
C7259 C7258 1.367 . S
C7259 C7261 1.433 . S
C7260 C7256 1.350 . S
C7260 C7257 1.463 . S
C7260 N7264 1.427 . S
C7261 H7251 0.929 . S
C7261 C7259 1.433 . S
C7261 N7264 1.384 . S
C7262 H7253 0.929 . S
C7262 C7254 1.378 . S
C7262 C7257 1.350 . S
C7263 H7250 0.929 . S
C7263 C7255 1.433 . S
C7263 N7265 1.384 . S
N7264 C7260 1.427 . S
N7264 C7261 1.384 . S
N7265 C7257 1.427 . S
N7265 C7263 1.384 . S
H7266 C7272 0.930 . S
H7267 C7276 0.930 . S
H7268 C7281 0.929 . S
H7269 C7279 0.929 . S
H7270 C7274 0.929 . S
H7271 C7280 0.929 . S
C7272 H7266 0.930 . S
C7272 C7273 1.367 . S
C7272 C7280 1.378 . S
C7273 C7272 1.367 . S
C7273 C7281 1.433 . S
C7274 H7270 0.929 . S
C7274 C7276 1.378 . S
C7274 C7278 1.350 . S
C7275 C7278 1.463 . S
C7275 C7280 1.350 . S
C7275 N7283 1.427 . S
C7276 H7267 0.930 . S
C7276 C7274 1.378 . S
C7276 C7277 1.367 . S
C7277 C7276 1.367 . S
C7277 C7279 1.433 . S
C7278 C7274 1.350 . S
C7278 C7275 1.463 . S
C7278 N7282 1.427 . S
C7279 H7269 0.929 . S
C7279 C7277 1.433 . S
C7279 N7282 1.384 . S
C7280 H7271 0.929 . S
C7280 C7272 1.378 . S
C7280 C7275 1.350 . S
C7281 H7268 0.929 . S
C7281 C7273 1.433 . S
C7281 N7283 1.384 . S
N7282 C7278 1.427 . S
N7282 C7279 1.384 . S
N7283 C7275 1.427 . S
N7283 C7281 1.384 . S
H7284 C7290 0.930 . S
H7285 C7294 0.930 . S
H7286 C7299 0.929 . S
H7287 C7297 0.929 . S
H7288 C7292 0.929 . S
H7289 C7298 0.929 . S
C7290 H7284 0.930 . S
C7290 C7291 1.367 . S
C7290 C7298 1.378 . S
C7291 C7290 1.367 . S
C7291 C7299 1.433 . S
C7292 H7288 0.929 . S
C7292 C7294 1.378 . S
C7292 C7296 1.350 . S
C7293 C7296 1.463 . S
C7293 C7298 1.350 . S
C7293 N7301 1.427 . S
C7294 H7285 0.930 . S
C7294 C7292 1.378 . S
C7294 C7295 1.367 . S
C7295 C7294 1.367 . S
C7295 C7297 1.433 . S
C7296 C7292 1.350 . S
C7296 C7293 1.463 . S
C7296 N7300 1.427 . S
C7297 H7287 0.929 . S
C7297 C7295 1.433 . S
C7297 N7300 1.384 . S
C7298 H7289 0.929 . S
C7298 C7290 1.378 . S
C7298 C7293 1.350 . S
C7299 H7286 0.929 . S
C7299 C7291 1.433 . S
C7299 N7301 1.384 . S
N7300 C7296 1.427 . S
N7300 C7297 1.384 . S
N7301 C7293 1.427 . S
N7301 C7299 1.384 . S
H7302 C7308 0.930 . S
H7303 C7312 0.930 . S
H7304 C7317 0.929 . S
H7305 C7315 0.929 . S
H7306 C7310 0.929 . S
H7307 C7316 0.929 . S
C7308 H7302 0.930 . S
C7308 C7309 1.367 . S
C7308 C7316 1.378 . S
C7309 C7308 1.367 . S
C7309 C7317 1.433 . S
C7310 H7306 0.929 . S
C7310 C7312 1.378 . S
C7310 C7314 1.350 . S
C7311 C7314 1.463 . S
C7311 C7316 1.350 . S
C7311 N7319 1.427 . S
C7312 H7303 0.930 . S
C7312 C7310 1.378 . S
C7312 C7313 1.367 . S
C7313 C7312 1.367 . S
C7313 C7315 1.433 . S
C7314 C7310 1.350 . S
C7314 C7311 1.463 . S
C7314 N7318 1.427 . S
C7315 H7305 0.929 . S
C7315 C7313 1.433 . S
C7315 N7318 1.384 . S
C7316 H7307 0.929 . S
C7316 C7308 1.378 . S
C7316 C7311 1.350 . S
C7317 H7304 0.929 . S
C7317 C7309 1.433 . S
C7317 N7319 1.384 . S
N7318 C7314 1.427 . S
N7318 C7315 1.384 . S
N7319 C7311 1.427 . S
N7319 C7317 1.384 . S
H7320 C7326 0.930 . S
H7321 C7330 0.930 . S
H7322 C7335 0.929 . S
H7323 C7333 0.929 . S
H7324 C7328 0.929 . S
H7325 C7334 0.929 . S
C7326 H7320 0.930 . S
C7326 C7327 1.367 . S
C7326 C7334 1.378 . S
C7327 C7326 1.367 . S
C7327 C7335 1.433 . S
C7328 H7324 0.929 . S
C7328 C7330 1.378 . S
C7328 C7332 1.350 . S
C7329 C7332 1.463 . S
C7329 C7334 1.350 . S
C7329 N7337 1.427 . S
C7330 H7321 0.930 . S
C7330 C7328 1.378 . S
C7330 C7331 1.367 . S
C7331 C7330 1.367 . S
C7331 C7333 1.433 . S
C7332 C7328 1.350 . S
C7332 C7329 1.463 . S
C7332 N7336 1.427 . S
C7333 H7323 0.929 . S
C7333 C7331 1.433 . S
C7333 N7336 1.384 . S
C7334 H7325 0.929 . S
C7334 C7326 1.378 . S
C7334 C7329 1.350 . S
C7335 H7322 0.929 . S
C7335 C7327 1.433 . S
C7335 N7337 1.384 . S
N7336 C7332 1.427 . S
N7336 C7333 1.384 . S
N7337 C7329 1.427 . S
N7337 C7335 1.384 . S
H7338 C7344 0.930 . S
H7339 C7348 0.930 . S
H7340 C7353 0.929 . S
H7341 C7351 0.929 . S
H7342 C7346 0.929 . S
H7343 C7352 0.929 . S
C7344 H7338 0.930 . S
C7344 C7345 1.367 . S
C7344 C7352 1.378 . S
C7345 C7344 1.367 . S
C7345 C7353 1.433 . S
C7346 H7342 0.929 . S
C7346 C7348 1.378 . S
C7346 C7350 1.350 . S
C7347 C7350 1.463 . S
C7347 C7352 1.350 . S
C7347 N7355 1.427 . S
C7348 H7339 0.930 . S
C7348 C7346 1.378 . S
C7348 C7349 1.367 . S
C7349 C7348 1.367 . S
C7349 C7351 1.433 . S
C7350 C7346 1.350 . S
C7350 C7347 1.463 . S
C7350 N7354 1.427 . S
C7351 H7341 0.929 . S
C7351 C7349 1.433 . S
C7351 N7354 1.384 . S
C7352 H7343 0.929 . S
C7352 C7344 1.378 . S
C7352 C7347 1.350 . S
C7353 H7340 0.929 . S
C7353 C7345 1.433 . S
C7353 N7355 1.384 . S
N7354 C7350 1.427 . S
N7354 C7351 1.384 . S
N7355 C7347 1.427 . S
N7355 C7353 1.384 . S
H7356 C7362 0.930 . S
H7357 C7366 0.930 . S
H7358 C7371 0.929 . S
H7359 C7369 0.929 . S
H7360 C7364 0.929 . S
H7361 C7370 0.929 . S
C7362 H7356 0.930 . S
C7362 C7363 1.367 . S
C7362 C7370 1.378 . S
C7363 C7362 1.367 . S
C7363 C7371 1.433 . S
C7364 H7360 0.929 . S
C7364 C7366 1.378 . S
C7364 C7368 1.350 . S
C7365 C7368 1.463 . S
C7365 C7370 1.350 . S
C7365 N7373 1.427 . S
C7366 H7357 0.930 . S
C7366 C7364 1.378 . S
C7366 C7367 1.367 . S
C7367 C7366 1.367 . S
C7367 C7369 1.433 . S
C7368 C7364 1.350 . S
C7368 C7365 1.463 . S
C7368 N7372 1.427 . S
C7369 H7359 0.929 . S
C7369 C7367 1.433 . S
C7369 N7372 1.384 . S
C7370 H7361 0.929 . S
C7370 C7362 1.378 . S
C7370 C7365 1.350 . S
C7371 H7358 0.929 . S
C7371 C7363 1.433 . S
C7371 N7373 1.384 . S
N7372 C7368 1.427 . S
N7372 C7369 1.384 . S
N7373 C7365 1.427 . S
N7373 C7371 1.384 . S
H7374 C7380 0.930 . S
H7375 C7384 0.930 . S
H7376 C7389 0.929 . S
H7377 C7387 0.929 . S
H7378 C7382 0.929 . S
H7379 C7388 0.929 . S
C7380 H7374 0.930 . S
C7380 C7381 1.367 . S
C7380 C7388 1.378 . S
C7381 C7380 1.367 . S
C7381 C7389 1.433 . S
C7382 H7378 0.929 . S
C7382 C7384 1.378 . S
C7382 C7386 1.350 . S
C7383 C7386 1.463 . S
C7383 C7388 1.350 . S
C7383 N7391 1.427 . S
C7384 H7375 0.930 . S
C7384 C7382 1.378 . S
C7384 C7385 1.367 . S
C7385 C7384 1.367 . S
C7385 C7387 1.433 . S
C7386 C7382 1.350 . S
C7386 C7383 1.463 . S
C7386 N7390 1.427 . S
C7387 H7377 0.929 . S
C7387 C7385 1.433 . S
C7387 N7390 1.384 . S
C7388 H7379 0.929 . S
C7388 C7380 1.378 . S
C7388 C7383 1.350 . S
C7389 H7376 0.929 . S
C7389 C7381 1.433 . S
C7389 N7391 1.384 . S
N7390 C7386 1.427 . S
N7390 C7387 1.384 . S
N7391 C7383 1.427 . S
N7391 C7389 1.384 . S
H7392 C7398 0.930 . S
H7393 C7402 0.930 . S
H7394 C7407 0.929 . S
H7395 C7405 0.929 . S
H7396 C7400 0.929 . S
H7397 C7406 0.929 . S
C7398 H7392 0.930 . S
C7398 C7399 1.367 . S
C7398 C7406 1.378 . S
C7399 C7398 1.367 . S
C7399 C7407 1.433 . S
C7400 H7396 0.929 . S
C7400 C7402 1.378 . S
C7400 C7404 1.350 . S
C7401 C7404 1.463 . S
C7401 C7406 1.350 . S
C7401 N7409 1.427 . S
C7402 H7393 0.930 . S
C7402 C7400 1.378 . S
C7402 C7403 1.367 . S
C7403 C7402 1.367 . S
C7403 C7405 1.433 . S
C7404 C7400 1.350 . S
C7404 C7401 1.463 . S
C7404 N7408 1.427 . S
C7405 H7395 0.929 . S
C7405 C7403 1.433 . S
C7405 N7408 1.384 . S
C7406 H7397 0.929 . S
C7406 C7398 1.378 . S
C7406 C7401 1.350 . S
C7407 H7394 0.929 . S
C7407 C7399 1.433 . S
C7407 N7409 1.384 . S
N7408 C7404 1.427 . S
N7408 C7405 1.384 . S
N7409 C7401 1.427 . S
N7409 C7407 1.384 . S
H7410 C7416 0.930 . S
H7411 C7420 0.930 . S
H7412 C7425 0.929 . S
H7413 C7423 0.929 . S
H7414 C7418 0.929 . S
H7415 C7424 0.929 . S
C7416 H7410 0.930 . S
C7416 C7417 1.367 . S
C7416 C7424 1.378 . S
C7417 C7416 1.367 . S
C7417 C7425 1.433 . S
C7418 H7414 0.929 . S
C7418 C7420 1.378 . S
C7418 C7422 1.350 . S
C7419 C7422 1.463 . S
C7419 C7424 1.350 . S
C7419 N7427 1.427 . S
C7420 H7411 0.930 . S
C7420 C7418 1.378 . S
C7420 C7421 1.367 . S
C7421 C7420 1.367 . S
C7421 C7423 1.433 . S
C7422 C7418 1.350 . S
C7422 C7419 1.463 . S
C7422 N7426 1.427 . S
C7423 H7413 0.929 . S
C7423 C7421 1.433 . S
C7423 N7426 1.384 . S
C7424 H7415 0.929 . S
C7424 C7416 1.378 . S
C7424 C7419 1.350 . S
C7425 H7412 0.929 . S
C7425 C7417 1.433 . S
C7425 N7427 1.384 . S
N7426 C7422 1.427 . S
N7426 C7423 1.384 . S
N7427 C7419 1.427 . S
N7427 C7425 1.384 . S
H7428 C7434 0.930 . S
H7429 C7438 0.930 . S
H7430 C7443 0.929 . S
H7431 C7441 0.929 . S
H7432 C7436 0.929 . S
H7433 C7442 0.929 . S
C7434 H7428 0.930 . S
C7434 C7435 1.367 . S
C7434 C7442 1.378 . S
C7435 C7434 1.367 . S
C7435 C7443 1.433 . S
C7436 H7432 0.929 . S
C7436 C7438 1.378 . S
C7436 C7440 1.350 . S
C7437 C7440 1.463 . S
C7437 C7442 1.350 . S
C7437 N7445 1.427 . S
C7438 H7429 0.930 . S
C7438 C7436 1.378 . S
C7438 C7439 1.367 . S
C7439 C7438 1.367 . S
C7439 C7441 1.433 . S
C7440 C7436 1.350 . S
C7440 C7437 1.463 . S
C7440 N7444 1.427 . S
C7441 H7431 0.929 . S
C7441 C7439 1.433 . S
C7441 N7444 1.384 . S
C7442 H7433 0.929 . S
C7442 C7434 1.378 . S
C7442 C7437 1.350 . S
C7443 H7430 0.929 . S
C7443 C7435 1.433 . S
C7443 N7445 1.384 . S
N7444 C7440 1.427 . S
N7444 C7441 1.384 . S
N7445 C7437 1.427 . S
N7445 C7443 1.384 . S
H7446 C7452 0.930 . S
H7447 C7456 0.930 . S
H7448 C7461 0.929 . S
H7449 C7459 0.929 . S
H7450 C7454 0.929 . S
H7451 C7460 0.929 . S
C7452 H7446 0.930 . S
C7452 C7453 1.367 . S
C7452 C7460 1.378 . S
C7453 C7452 1.367 . S
C7453 C7461 1.433 . S
C7454 H7450 0.929 . S
C7454 C7456 1.378 . S
C7454 C7458 1.350 . S
C7455 C7458 1.463 . S
C7455 C7460 1.350 . S
C7455 N7463 1.427 . S
C7456 H7447 0.930 . S
C7456 C7454 1.378 . S
C7456 C7457 1.367 . S
C7457 C7456 1.367 . S
C7457 C7459 1.433 . S
C7458 C7454 1.350 . S
C7458 C7455 1.463 . S
C7458 N7462 1.427 . S
C7459 H7449 0.929 . S
C7459 C7457 1.433 . S
C7459 N7462 1.384 . S
C7460 H7451 0.929 . S
C7460 C7452 1.378 . S
C7460 C7455 1.350 . S
C7461 H7448 0.929 . S
C7461 C7453 1.433 . S
C7461 N7463 1.384 . S
N7462 C7458 1.427 . S
N7462 C7459 1.384 . S
N7463 C7455 1.427 . S
N7463 C7461 1.384 . S
H7464 C7470 0.930 . S
H7465 C7474 0.930 . S
H7466 C7479 0.929 . S
H7467 C7477 0.929 . S
H7468 C7472 0.929 . S
H7469 C7478 0.929 . S
C7470 H7464 0.930 . S
C7470 C7471 1.367 . S
C7470 C7478 1.378 . S
C7471 C7470 1.367 . S
C7471 C7479 1.433 . S
C7472 H7468 0.929 . S
C7472 C7474 1.378 . S
C7472 C7476 1.350 . S
C7473 C7476 1.463 . S
C7473 C7478 1.350 . S
C7473 N7481 1.427 . S
C7474 H7465 0.930 . S
C7474 C7472 1.378 . S
C7474 C7475 1.367 . S
C7475 C7474 1.367 . S
C7475 C7477 1.433 . S
C7476 C7472 1.350 . S
C7476 C7473 1.463 . S
C7476 N7480 1.427 . S
C7477 H7467 0.929 . S
C7477 C7475 1.433 . S
C7477 N7480 1.384 . S
C7478 H7469 0.929 . S
C7478 C7470 1.378 . S
C7478 C7473 1.350 . S
C7479 H7466 0.929 . S
C7479 C7471 1.433 . S
C7479 N7481 1.384 . S
N7480 C7476 1.427 . S
N7480 C7477 1.384 . S
N7481 C7473 1.427 . S
N7481 C7479 1.384 . S
H7482 C7488 0.930 . S
H7483 C7492 0.930 . S
H7484 C7497 0.929 . S
H7485 C7495 0.929 . S
H7486 C7490 0.929 . S
H7487 C7496 0.929 . S
C7488 H7482 0.930 . S
C7488 C7489 1.367 . S
C7488 C7496 1.378 . S
C7489 C7488 1.367 . S
C7489 C7497 1.433 . S
C7490 H7486 0.929 . S
C7490 C7492 1.378 . S
C7490 C7494 1.350 . S
C7491 C7494 1.463 . S
C7491 C7496 1.350 . S
C7491 N7499 1.427 . S
C7492 H7483 0.930 . S
C7492 C7490 1.378 . S
C7492 C7493 1.367 . S
C7493 C7492 1.367 . S
C7493 C7495 1.433 . S
C7494 C7490 1.350 . S
C7494 C7491 1.463 . S
C7494 N7498 1.427 . S
C7495 H7485 0.929 . S
C7495 C7493 1.433 . S
C7495 N7498 1.384 . S
C7496 H7487 0.929 . S
C7496 C7488 1.378 . S
C7496 C7491 1.350 . S
C7497 H7484 0.929 . S
C7497 C7489 1.433 . S
C7497 N7499 1.384 . S
N7498 C7494 1.427 . S
N7498 C7495 1.384 . S
N7499 C7491 1.427 . S
N7499 C7497 1.384 . S
H7500 C7506 0.930 . S
H7501 C7510 0.930 . S
H7502 C7515 0.929 . S
H7503 C7513 0.929 . S
H7504 C7508 0.929 . S
H7505 C7514 0.929 . S
C7506 H7500 0.930 . S
C7506 C7507 1.367 . S
C7506 C7514 1.378 . S
C7507 C7506 1.367 . S
C7507 C7515 1.433 . S
C7508 H7504 0.929 . S
C7508 C7510 1.378 . S
C7508 C7512 1.350 . S
C7509 C7512 1.463 . S
C7509 C7514 1.350 . S
C7509 N7517 1.427 . S
C7510 H7501 0.930 . S
C7510 C7508 1.378 . S
C7510 C7511 1.367 . S
C7511 C7510 1.367 . S
C7511 C7513 1.433 . S
C7512 C7508 1.350 . S
C7512 C7509 1.463 . S
C7512 N7516 1.427 . S
C7513 H7503 0.929 . S
C7513 C7511 1.433 . S
C7513 N7516 1.384 . S
C7514 H7505 0.929 . S
C7514 C7506 1.378 . S
C7514 C7509 1.350 . S
C7515 H7502 0.929 . S
C7515 C7507 1.433 . S
C7515 N7517 1.384 . S
N7516 C7512 1.427 . S
N7516 C7513 1.384 . S
N7517 C7509 1.427 . S
N7517 C7515 1.384 . S
H7518 C7524 0.930 . S
H7519 C7528 0.930 . S
H7520 C7533 0.929 . S
H7521 C7531 0.929 . S
H7522 C7526 0.929 . S
H7523 C7532 0.929 . S
C7524 H7518 0.930 . S
C7524 C7525 1.367 . S
C7524 C7532 1.378 . S
C7525 C7524 1.367 . S
C7525 C7533 1.433 . S
C7526 H7522 0.929 . S
C7526 C7528 1.378 . S
C7526 C7530 1.350 . S
C7527 C7530 1.463 . S
C7527 C7532 1.350 . S
C7527 N7535 1.427 . S
C7528 H7519 0.930 . S
C7528 C7526 1.378 . S
C7528 C7529 1.367 . S
C7529 C7528 1.367 . S
C7529 C7531 1.433 . S
C7530 C7526 1.350 . S
C7530 C7527 1.463 . S
C7530 N7534 1.427 . S
C7531 H7521 0.929 . S
C7531 C7529 1.433 . S
C7531 N7534 1.384 . S
C7532 H7523 0.929 . S
C7532 C7524 1.378 . S
C7532 C7527 1.350 . S
C7533 H7520 0.929 . S
C7533 C7525 1.433 . S
C7533 N7535 1.384 . S
N7534 C7530 1.427 . S
N7534 C7531 1.384 . S
N7535 C7527 1.427 . S
N7535 C7533 1.384 . S
H7536 C7542 0.930 . S
H7537 C7546 0.930 . S
H7538 C7551 0.929 . S
H7539 C7549 0.929 . S
H7540 C7544 0.929 . S
H7541 C7550 0.929 . S
C7542 H7536 0.930 . S
C7542 C7543 1.367 . S
C7542 C7550 1.378 . S
C7543 C7542 1.367 . S
C7543 C7551 1.433 . S
C7544 H7540 0.929 . S
C7544 C7546 1.378 . S
C7544 C7548 1.350 . S
C7545 C7548 1.463 . S
C7545 C7550 1.350 . S
C7545 N7553 1.427 . S
C7546 H7537 0.930 . S
C7546 C7544 1.378 . S
C7546 C7547 1.367 . S
C7547 C7546 1.367 . S
C7547 C7549 1.433 . S
C7548 C7544 1.350 . S
C7548 C7545 1.463 . S
C7548 N7552 1.427 . S
C7549 H7539 0.929 . S
C7549 C7547 1.433 . S
C7549 N7552 1.384 . S
C7550 H7541 0.929 . S
C7550 C7542 1.378 . S
C7550 C7545 1.350 . S
C7551 H7538 0.929 . S
C7551 C7543 1.433 . S
C7551 N7553 1.384 . S
N7552 C7548 1.427 . S
N7552 C7549 1.384 . S
N7553 C7545 1.427 . S
N7553 C7551 1.384 . S
H7554 C7560 0.930 . S
H7555 C7564 0.930 . S
H7556 C7569 0.929 . S
H7557 C7567 0.929 . S
H7558 C7562 0.929 . S
H7559 C7568 0.929 . S
C7560 H7554 0.930 . S
C7560 C7561 1.367 . S
C7560 C7568 1.378 . S
C7561 C7560 1.367 . S
C7561 C7569 1.433 . S
C7562 H7558 0.929 . S
C7562 C7564 1.378 . S
C7562 C7566 1.350 . S
C7563 C7566 1.463 . S
C7563 C7568 1.350 . S
C7563 N7571 1.427 . S
C7564 H7555 0.930 . S
C7564 C7562 1.378 . S
C7564 C7565 1.367 . S
C7565 C7564 1.367 . S
C7565 C7567 1.433 . S
C7566 C7562 1.350 . S
C7566 C7563 1.463 . S
C7566 N7570 1.427 . S
C7567 H7557 0.929 . S
C7567 C7565 1.433 . S
C7567 N7570 1.384 . S
C7568 H7559 0.929 . S
C7568 C7560 1.378 . S
C7568 C7563 1.350 . S
C7569 H7556 0.929 . S
C7569 C7561 1.433 . S
C7569 N7571 1.384 . S
N7570 C7566 1.427 . S
N7570 C7567 1.384 . S
N7571 C7563 1.427 . S
N7571 C7569 1.384 . S
H7572 C7578 0.930 . S
H7573 C7582 0.930 . S
H7574 C7587 0.929 . S
H7575 C7585 0.929 . S
H7576 C7580 0.929 . S
H7577 C7586 0.929 . S
C7578 H7572 0.930 . S
C7578 C7579 1.367 . S
C7578 C7586 1.378 . S
C7579 C7578 1.367 . S
C7579 C7587 1.433 . S
C7580 H7576 0.929 . S
C7580 C7582 1.378 . S
C7580 C7584 1.350 . S
C7581 C7584 1.463 . S
C7581 C7586 1.350 . S
C7581 N7589 1.427 . S
C7582 H7573 0.930 . S
C7582 C7580 1.378 . S
C7582 C7583 1.367 . S
C7583 C7582 1.367 . S
C7583 C7585 1.433 . S
C7584 C7580 1.350 . S
C7584 C7581 1.463 . S
C7584 N7588 1.427 . S
C7585 H7575 0.929 . S
C7585 C7583 1.433 . S
C7585 N7588 1.384 . S
C7586 H7577 0.929 . S
C7586 C7578 1.378 . S
C7586 C7581 1.350 . S
C7587 H7574 0.929 . S
C7587 C7579 1.433 . S
C7587 N7589 1.384 . S
N7588 C7584 1.427 . S
N7588 C7585 1.384 . S
N7589 C7581 1.427 . S
N7589 C7587 1.384 . S
H7590 C7596 0.930 . S
H7591 C7600 0.930 . S
H7592 C7605 0.929 . S
H7593 C7603 0.929 . S
H7594 C7598 0.929 . S
H7595 C7604 0.929 . S
C7596 H7590 0.930 . S
C7596 C7597 1.367 . S
C7596 C7604 1.378 . S
C7597 C7596 1.367 . S
C7597 C7605 1.433 . S
C7598 H7594 0.929 . S
C7598 C7600 1.378 . S
C7598 C7602 1.350 . S
C7599 C7602 1.463 . S
C7599 C7604 1.350 . S
C7599 N7607 1.427 . S
C7600 H7591 0.930 . S
C7600 C7598 1.378 . S
C7600 C7601 1.367 . S
C7601 C7600 1.367 . S
C7601 C7603 1.433 . S
C7602 C7598 1.350 . S
C7602 C7599 1.463 . S
C7602 N7606 1.427 . S
C7603 H7593 0.929 . S
C7603 C7601 1.433 . S
C7603 N7606 1.384 . S
C7604 H7595 0.929 . S
C7604 C7596 1.378 . S
C7604 C7599 1.350 . S
C7605 H7592 0.929 . S
C7605 C7597 1.433 . S
C7605 N7607 1.384 . S
N7606 C7602 1.427 . S
N7606 C7603 1.384 . S
N7607 C7599 1.427 . S
N7607 C7605 1.384 . S
H7608 C7614 0.930 . S
H7609 C7618 0.930 . S
H7610 C7623 0.929 . S
H7611 C7621 0.929 . S
H7612 C7616 0.929 . S
H7613 C7622 0.929 . S
C7614 H7608 0.930 . S
C7614 C7615 1.367 . S
C7614 C7622 1.378 . S
C7615 C7614 1.367 . S
C7615 C7623 1.433 . S
C7616 H7612 0.929 . S
C7616 C7618 1.378 . S
C7616 C7620 1.350 . S
C7617 C7620 1.463 . S
C7617 C7622 1.350 . S
C7617 N7625 1.427 . S
C7618 H7609 0.930 . S
C7618 C7616 1.378 . S
C7618 C7619 1.367 . S
C7619 C7618 1.367 . S
C7619 C7621 1.433 . S
C7620 C7616 1.350 . S
C7620 C7617 1.463 . S
C7620 N7624 1.427 . S
C7621 H7611 0.929 . S
C7621 C7619 1.433 . S
C7621 N7624 1.384 . S
C7622 H7613 0.929 . S
C7622 C7614 1.378 . S
C7622 C7617 1.350 . S
C7623 H7610 0.929 . S
C7623 C7615 1.433 . S
C7623 N7625 1.384 . S
N7624 C7620 1.427 . S
N7624 C7621 1.384 . S
N7625 C7617 1.427 . S
N7625 C7623 1.384 . S
H7626 C7632 0.930 . S
H7627 C7636 0.930 . S
H7628 C7641 0.929 . S
H7629 C7639 0.929 . S
H7630 C7634 0.929 . S
H7631 C7640 0.929 . S
C7632 H7626 0.930 . S
C7632 C7633 1.367 . S
C7632 C7640 1.378 . S
C7633 C7632 1.367 . S
C7633 C7641 1.433 . S
C7634 H7630 0.929 . S
C7634 C7636 1.378 . S
C7634 C7638 1.350 . S
C7635 C7638 1.463 . S
C7635 C7640 1.350 . S
C7635 N7643 1.427 . S
C7636 H7627 0.930 . S
C7636 C7634 1.378 . S
C7636 C7637 1.367 . S
C7637 C7636 1.367 . S
C7637 C7639 1.433 . S
C7638 C7634 1.350 . S
C7638 C7635 1.463 . S
C7638 N7642 1.427 . S
C7639 H7629 0.929 . S
C7639 C7637 1.433 . S
C7639 N7642 1.384 . S
C7640 H7631 0.929 . S
C7640 C7632 1.378 . S
C7640 C7635 1.350 . S
C7641 H7628 0.929 . S
C7641 C7633 1.433 . S
C7641 N7643 1.384 . S
N7642 C7638 1.427 . S
N7642 C7639 1.384 . S
N7643 C7635 1.427 . S
N7643 C7641 1.384 . S
H7644 C7650 0.930 . S
H7645 C7654 0.930 . S
H7646 C7659 0.929 . S
H7647 C7657 0.929 . S
H7648 C7652 0.929 . S
H7649 C7658 0.929 . S
C7650 H7644 0.930 . S
C7650 C7651 1.367 . S
C7650 C7658 1.378 . S
C7651 C7650 1.367 . S
C7651 C7659 1.433 . S
C7652 H7648 0.929 . S
C7652 C7654 1.378 . S
C7652 C7656 1.350 . S
C7653 C7656 1.463 . S
C7653 C7658 1.350 . S
C7653 N7661 1.427 . S
C7654 H7645 0.930 . S
C7654 C7652 1.378 . S
C7654 C7655 1.367 . S
C7655 C7654 1.367 . S
C7655 C7657 1.433 . S
C7656 C7652 1.350 . S
C7656 C7653 1.463 . S
C7656 N7660 1.427 . S
C7657 H7647 0.929 . S
C7657 C7655 1.433 . S
C7657 N7660 1.384 . S
C7658 H7649 0.929 . S
C7658 C7650 1.378 . S
C7658 C7653 1.350 . S
C7659 H7646 0.929 . S
C7659 C7651 1.433 . S
C7659 N7661 1.384 . S
N7660 C7656 1.427 . S
N7660 C7657 1.384 . S
N7661 C7653 1.427 . S
N7661 C7659 1.384 . S
H7662 C7668 0.930 . S
H7663 C7672 0.930 . S
H7664 C7677 0.929 . S
H7665 C7675 0.929 . S
H7666 C7670 0.929 . S
H7667 C7676 0.929 . S
C7668 H7662 0.930 . S
C7668 C7669 1.367 . S
C7668 C7676 1.378 . S
C7669 C7668 1.367 . S
C7669 C7677 1.433 . S
C7670 H7666 0.929 . S
C7670 C7672 1.378 . S
C7670 C7674 1.350 . S
C7671 C7674 1.463 . S
C7671 C7676 1.350 . S
C7671 N7679 1.427 . S
C7672 H7663 0.930 . S
C7672 C7670 1.378 . S
C7672 C7673 1.367 . S
C7673 C7672 1.367 . S
C7673 C7675 1.433 . S
C7674 C7670 1.350 . S
C7674 C7671 1.463 . S
C7674 N7678 1.427 . S
C7675 H7665 0.929 . S
C7675 C7673 1.433 . S
C7675 N7678 1.384 . S
C7676 H7667 0.929 . S
C7676 C7668 1.378 . S
C7676 C7671 1.350 . S
C7677 H7664 0.929 . S
C7677 C7669 1.433 . S
C7677 N7679 1.384 . S
N7678 C7674 1.427 . S
N7678 C7675 1.384 . S
N7679 C7671 1.427 . S
N7679 C7677 1.384 . S
H7680 C7686 0.930 . S
H7681 C7690 0.930 . S
H7682 C7695 0.929 . S
H7683 C7693 0.929 . S
H7684 C7688 0.929 . S
H7685 C7694 0.929 . S
C7686 H7680 0.930 . S
C7686 C7687 1.367 . S
C7686 C7694 1.378 . S
C7687 C7686 1.367 . S
C7687 C7695 1.433 . S
C7688 H7684 0.929 . S
C7688 C7690 1.378 . S
C7688 C7692 1.350 . S
C7689 C7692 1.463 . S
C7689 C7694 1.350 . S
C7689 N7697 1.427 . S
C7690 H7681 0.930 . S
C7690 C7688 1.378 . S
C7690 C7691 1.367 . S
C7691 C7690 1.367 . S
C7691 C7693 1.433 . S
C7692 C7688 1.350 . S
C7692 C7689 1.463 . S
C7692 N7696 1.427 . S
C7693 H7683 0.929 . S
C7693 C7691 1.433 . S
C7693 N7696 1.384 . S
C7694 H7685 0.929 . S
C7694 C7686 1.378 . S
C7694 C7689 1.350 . S
C7695 H7682 0.929 . S
C7695 C7687 1.433 . S
C7695 N7697 1.384 . S
N7696 C7692 1.427 . S
N7696 C7693 1.384 . S
N7697 C7689 1.427 . S
N7697 C7695 1.384 . S
H7698 C7704 0.930 . S
H7699 C7708 0.930 . S
H7700 C7713 0.929 . S
H7701 C7711 0.929 . S
H7702 C7706 0.929 . S
H7703 C7712 0.929 . S
C7704 H7698 0.930 . S
C7704 C7705 1.367 . S
C7704 C7712 1.378 . S
C7705 C7704 1.367 . S
C7705 C7713 1.433 . S
C7706 H7702 0.929 . S
C7706 C7708 1.378 . S
C7706 C7710 1.350 . S
C7707 C7710 1.463 . S
C7707 C7712 1.350 . S
C7707 N7715 1.427 . S
C7708 H7699 0.930 . S
C7708 C7706 1.378 . S
C7708 C7709 1.367 . S
C7709 C7708 1.367 . S
C7709 C7711 1.433 . S
C7710 C7706 1.350 . S
C7710 C7707 1.463 . S
C7710 N7714 1.427 . S
C7711 H7701 0.929 . S
C7711 C7709 1.433 . S
C7711 N7714 1.384 . S
C7712 H7703 0.929 . S
C7712 C7704 1.378 . S
C7712 C7707 1.350 . S
C7713 H7700 0.929 . S
C7713 C7705 1.433 . S
C7713 N7715 1.384 . S
N7714 C7710 1.427 . S
N7714 C7711 1.384 . S
N7715 C7707 1.427 . S
N7715 C7713 1.384 . S
H7716 C7722 0.930 . S
H7717 C7726 0.930 . S
H7718 C7731 0.929 . S
H7719 C7729 0.929 . S
H7720 C7724 0.929 . S
H7721 C7730 0.929 . S
C7722 H7716 0.930 . S
C7722 C7723 1.367 . S
C7722 C7730 1.378 . S
C7723 C7722 1.367 . S
C7723 C7731 1.433 . S
C7724 H7720 0.929 . S
C7724 C7726 1.378 . S
C7724 C7728 1.350 . S
C7725 C7728 1.463 . S
C7725 C7730 1.350 . S
C7725 N7733 1.427 . S
C7726 H7717 0.930 . S
C7726 C7724 1.378 . S
C7726 C7727 1.367 . S
C7727 C7726 1.367 . S
C7727 C7729 1.433 . S
C7728 C7724 1.350 . S
C7728 C7725 1.463 . S
C7728 N7732 1.427 . S
C7729 H7719 0.929 . S
C7729 C7727 1.433 . S
C7729 N7732 1.384 . S
C7730 H7721 0.929 . S
C7730 C7722 1.378 . S
C7730 C7725 1.350 . S
C7731 H7718 0.929 . S
C7731 C7723 1.433 . S
C7731 N7733 1.384 . S
N7732 C7728 1.427 . S
N7732 C7729 1.384 . S
N7733 C7725 1.427 . S
N7733 C7731 1.384 . S
H7734 C7740 0.930 . S
H7735 C7744 0.930 . S
H7736 C7749 0.929 . S
H7737 C7747 0.929 . S
H7738 C7742 0.929 . S
H7739 C7748 0.929 . S
C7740 H7734 0.930 . S
C7740 C7741 1.367 . S
C7740 C7748 1.378 . S
C7741 C7740 1.367 . S
C7741 C7749 1.433 . S
C7742 H7738 0.929 . S
C7742 C7744 1.378 . S
C7742 C7746 1.350 . S
C7743 C7746 1.463 . S
C7743 C7748 1.350 . S
C7743 N7751 1.427 . S
C7744 H7735 0.930 . S
C7744 C7742 1.378 . S
C7744 C7745 1.367 . S
C7745 C7744 1.367 . S
C7745 C7747 1.433 . S
C7746 C7742 1.350 . S
C7746 C7743 1.463 . S
C7746 N7750 1.427 . S
C7747 H7737 0.929 . S
C7747 C7745 1.433 . S
C7747 N7750 1.384 . S
C7748 H7739 0.929 . S
C7748 C7740 1.378 . S
C7748 C7743 1.350 . S
C7749 H7736 0.929 . S
C7749 C7741 1.433 . S
C7749 N7751 1.384 . S
N7750 C7746 1.427 . S
N7750 C7747 1.384 . S
N7751 C7743 1.427 . S
N7751 C7749 1.384 . S
H7752 C7758 0.930 . S
H7753 C7762 0.930 . S
H7754 C7767 0.929 . S
H7755 C7765 0.929 . S
H7756 C7760 0.929 . S
H7757 C7766 0.929 . S
C7758 H7752 0.930 . S
C7758 C7759 1.367 . S
C7758 C7766 1.378 . S
C7759 C7758 1.367 . S
C7759 C7767 1.433 . S
C7760 H7756 0.929 . S
C7760 C7762 1.378 . S
C7760 C7764 1.350 . S
C7761 C7764 1.463 . S
C7761 C7766 1.350 . S
C7761 N7769 1.427 . S
C7762 H7753 0.930 . S
C7762 C7760 1.378 . S
C7762 C7763 1.367 . S
C7763 C7762 1.367 . S
C7763 C7765 1.433 . S
C7764 C7760 1.350 . S
C7764 C7761 1.463 . S
C7764 N7768 1.427 . S
C7765 H7755 0.929 . S
C7765 C7763 1.433 . S
C7765 N7768 1.384 . S
C7766 H7757 0.929 . S
C7766 C7758 1.378 . S
C7766 C7761 1.350 . S
C7767 H7754 0.929 . S
C7767 C7759 1.433 . S
C7767 N7769 1.384 . S
N7768 C7764 1.427 . S
N7768 C7765 1.384 . S
N7769 C7761 1.427 . S
N7769 C7767 1.384 . S
H7770 C7776 0.930 . S
H7771 C7780 0.930 . S
H7772 C7785 0.929 . S
H7773 C7783 0.929 . S
H7774 C7778 0.929 . S
H7775 C7784 0.929 . S
C7776 H7770 0.930 . S
C7776 C7777 1.367 . S
C7776 C7784 1.378 . S
C7777 C7776 1.367 . S
C7777 C7785 1.433 . S
C7778 H7774 0.929 . S
C7778 C7780 1.378 . S
C7778 C7782 1.350 . S
C7779 C7782 1.463 . S
C7779 C7784 1.350 . S
C7779 N7787 1.427 . S
C7780 H7771 0.930 . S
C7780 C7778 1.378 . S
C7780 C7781 1.367 . S
C7781 C7780 1.367 . S
C7781 C7783 1.433 . S
C7782 C7778 1.350 . S
C7782 C7779 1.463 . S
C7782 N7786 1.427 . S
C7783 H7773 0.929 . S
C7783 C7781 1.433 . S
C7783 N7786 1.384 . S
C7784 H7775 0.929 . S
C7784 C7776 1.378 . S
C7784 C7779 1.350 . S
C7785 H7772 0.929 . S
C7785 C7777 1.433 . S
C7785 N7787 1.384 . S
N7786 C7782 1.427 . S
N7786 C7783 1.384 . S
N7787 C7779 1.427 . S
N7787 C7785 1.384 . S
H7788 C7794 0.930 . S
H7789 C7798 0.930 . S
H7790 C7803 0.929 . S
H7791 C7801 0.929 . S
H7792 C7796 0.929 . S
H7793 C7802 0.929 . S
C7794 H7788 0.930 . S
C7794 C7795 1.367 . S
C7794 C7802 1.378 . S
C7795 C7794 1.367 . S
C7795 C7803 1.433 . S
C7796 H7792 0.929 . S
C7796 C7798 1.378 . S
C7796 C7800 1.350 . S
C7797 C7800 1.463 . S
C7797 C7802 1.350 . S
C7797 N7805 1.427 . S
C7798 H7789 0.930 . S
C7798 C7796 1.378 . S
C7798 C7799 1.367 . S
C7799 C7798 1.367 . S
C7799 C7801 1.433 . S
C7800 C7796 1.350 . S
C7800 C7797 1.463 . S
C7800 N7804 1.427 . S
C7801 H7791 0.929 . S
C7801 C7799 1.433 . S
C7801 N7804 1.384 . S
C7802 H7793 0.929 . S
C7802 C7794 1.378 . S
C7802 C7797 1.350 . S
C7803 H7790 0.929 . S
C7803 C7795 1.433 . S
C7803 N7805 1.384 . S
N7804 C7800 1.427 . S
N7804 C7801 1.384 . S
N7805 C7797 1.427 . S
N7805 C7803 1.384 . S
H7806 C7812 0.930 . S
H7807 C7816 0.930 . S
H7808 C7821 0.929 . S
H7809 C7819 0.929 . S
H7810 C7814 0.929 . S
H7811 C7820 0.929 . S
C7812 H7806 0.930 . S
C7812 C7813 1.367 . S
C7812 C7820 1.378 . S
C7813 C7812 1.367 . S
C7813 C7821 1.433 . S
C7814 H7810 0.929 . S
C7814 C7816 1.378 . S
C7814 C7818 1.350 . S
C7815 C7818 1.463 . S
C7815 C7820 1.350 . S
C7815 N7823 1.427 . S
C7816 H7807 0.930 . S
C7816 C7814 1.378 . S
C7816 C7817 1.367 . S
C7817 C7816 1.367 . S
C7817 C7819 1.433 . S
C7818 C7814 1.350 . S
C7818 C7815 1.463 . S
C7818 N7822 1.427 . S
C7819 H7809 0.929 . S
C7819 C7817 1.433 . S
C7819 N7822 1.384 . S
C7820 H7811 0.929 . S
C7820 C7812 1.378 . S
C7820 C7815 1.350 . S
C7821 H7808 0.929 . S
C7821 C7813 1.433 . S
C7821 N7823 1.384 . S
N7822 C7818 1.427 . S
N7822 C7819 1.384 . S
N7823 C7815 1.427 . S
N7823 C7821 1.384 . S
H7824 C7830 0.930 . S
H7825 C7834 0.930 . S
H7826 C7839 0.929 . S
H7827 C7837 0.929 . S
H7828 C7832 0.929 . S
H7829 C7838 0.929 . S
C7830 H7824 0.930 . S
C7830 C7831 1.367 . S
C7830 C7838 1.378 . S
C7831 C7830 1.367 . S
C7831 C7839 1.433 . S
C7832 H7828 0.929 . S
C7832 C7834 1.378 . S
C7832 C7836 1.350 . S
C7833 C7836 1.463 . S
C7833 C7838 1.350 . S
C7833 N7841 1.427 . S
C7834 H7825 0.930 . S
C7834 C7832 1.378 . S
C7834 C7835 1.367 . S
C7835 C7834 1.367 . S
C7835 C7837 1.433 . S
C7836 C7832 1.350 . S
C7836 C7833 1.463 . S
C7836 N7840 1.427 . S
C7837 H7827 0.929 . S
C7837 C7835 1.433 . S
C7837 N7840 1.384 . S
C7838 H7829 0.929 . S
C7838 C7830 1.378 . S
C7838 C7833 1.350 . S
C7839 H7826 0.929 . S
C7839 C7831 1.433 . S
C7839 N7841 1.384 . S
N7840 C7836 1.427 . S
N7840 C7837 1.384 . S
N7841 C7833 1.427 . S
N7841 C7839 1.384 . S
H7842 C7848 0.930 . S
H7843 C7852 0.930 . S
H7844 C7857 0.929 . S
H7845 C7855 0.929 . S
H7846 C7850 0.929 . S
H7847 C7856 0.929 . S
C7848 H7842 0.930 . S
C7848 C7849 1.367 . S
C7848 C7856 1.378 . S
C7849 C7848 1.367 . S
C7849 C7857 1.433 . S
C7850 H7846 0.929 . S
C7850 C7852 1.378 . S
C7850 C7854 1.350 . S
C7851 C7854 1.463 . S
C7851 C7856 1.350 . S
C7851 N7859 1.427 . S
C7852 H7843 0.930 . S
C7852 C7850 1.378 . S
C7852 C7853 1.367 . S
C7853 C7852 1.367 . S
C7853 C7855 1.433 . S
C7854 C7850 1.350 . S
C7854 C7851 1.463 . S
C7854 N7858 1.427 . S
C7855 H7845 0.929 . S
C7855 C7853 1.433 . S
C7855 N7858 1.384 . S
C7856 H7847 0.929 . S
C7856 C7848 1.378 . S
C7856 C7851 1.350 . S
C7857 H7844 0.929 . S
C7857 C7849 1.433 . S
C7857 N7859 1.384 . S
N7858 C7854 1.427 . S
N7858 C7855 1.384 . S
N7859 C7851 1.427 . S
N7859 C7857 1.384 . S
H7860 C7866 0.930 . S
H7861 C7870 0.930 . S
H7862 C7875 0.929 . S
H7863 C7873 0.929 . S
H7864 C7868 0.929 . S
H7865 C7874 0.929 . S
C7866 H7860 0.930 . S
C7866 C7867 1.367 . S
C7866 C7874 1.378 . S
C7867 C7866 1.367 . S
C7867 C7875 1.433 . S
C7868 H7864 0.929 . S
C7868 C7870 1.378 . S
C7868 C7872 1.350 . S
C7869 C7872 1.463 . S
C7869 C7874 1.350 . S
C7869 N7877 1.427 . S
C7870 H7861 0.930 . S
C7870 C7868 1.378 . S
C7870 C7871 1.367 . S
C7871 C7870 1.367 . S
C7871 C7873 1.433 . S
C7872 C7868 1.350 . S
C7872 C7869 1.463 . S
C7872 N7876 1.427 . S
C7873 H7863 0.929 . S
C7873 C7871 1.433 . S
C7873 N7876 1.384 . S
C7874 H7865 0.929 . S
C7874 C7866 1.378 . S
C7874 C7869 1.350 . S
C7875 H7862 0.929 . S
C7875 C7867 1.433 . S
C7875 N7877 1.384 . S
N7876 C7872 1.427 . S
N7876 C7873 1.384 . S
N7877 C7869 1.427 . S
N7877 C7875 1.384 . S
H7878 C7884 0.930 . S
H7879 C7888 0.930 . S
H7880 C7893 0.929 . S
H7881 C7891 0.929 . S
H7882 C7886 0.929 . S
H7883 C7892 0.929 . S
C7884 H7878 0.930 . S
C7884 C7885 1.367 . S
C7884 C7892 1.378 . S
C7885 C7884 1.367 . S
C7885 C7893 1.433 . S
C7886 H7882 0.929 . S
C7886 C7888 1.378 . S
C7886 C7890 1.350 . S
C7887 C7890 1.463 . S
C7887 C7892 1.350 . S
C7887 N7895 1.427 . S
C7888 H7879 0.930 . S
C7888 C7886 1.378 . S
C7888 C7889 1.367 . S
C7889 C7888 1.367 . S
C7889 C7891 1.433 . S
C7890 C7886 1.350 . S
C7890 C7887 1.463 . S
C7890 N7894 1.427 . S
C7891 H7881 0.929 . S
C7891 C7889 1.433 . S
C7891 N7894 1.384 . S
C7892 H7883 0.929 . S
C7892 C7884 1.378 . S
C7892 C7887 1.350 . S
C7893 H7880 0.929 . S
C7893 C7885 1.433 . S
C7893 N7895 1.384 . S
N7894 C7890 1.427 . S
N7894 C7891 1.384 . S
N7895 C7887 1.427 . S
N7895 C7893 1.384 . S
H7896 C7902 0.930 . S
H7897 C7906 0.930 . S
H7898 C7911 0.929 . S
H7899 C7909 0.929 . S
H7900 C7904 0.929 . S
H7901 C7910 0.929 . S
C7902 H7896 0.930 . S
C7902 C7903 1.367 . S
C7902 C7910 1.378 . S
C7903 C7902 1.367 . S
C7903 C7911 1.433 . S
C7904 H7900 0.929 . S
C7904 C7906 1.378 . S
C7904 C7908 1.350 . S
C7905 C7908 1.463 . S
C7905 C7910 1.350 . S
C7905 N7913 1.427 . S
C7906 H7897 0.930 . S
C7906 C7904 1.378 . S
C7906 C7907 1.367 . S
C7907 C7906 1.367 . S
C7907 C7909 1.433 . S
C7908 C7904 1.350 . S
C7908 C7905 1.463 . S
C7908 N7912 1.427 . S
C7909 H7899 0.929 . S
C7909 C7907 1.433 . S
C7909 N7912 1.384 . S
C7910 H7901 0.929 . S
C7910 C7902 1.378 . S
C7910 C7905 1.350 . S
C7911 H7898 0.929 . S
C7911 C7903 1.433 . S
C7911 N7913 1.384 . S
N7912 C7908 1.427 . S
N7912 C7909 1.384 . S
N7913 C7905 1.427 . S
N7913 C7911 1.384 . S
H7914 C7920 0.930 . S
H7915 C7924 0.930 . S
H7916 C7929 0.929 . S
H7917 C7927 0.929 . S
H7918 C7922 0.929 . S
H7919 C7928 0.929 . S
C7920 H7914 0.930 . S
C7920 C7921 1.367 . S
C7920 C7928 1.378 . S
C7921 C7920 1.367 . S
C7921 C7929 1.433 . S
C7922 H7918 0.929 . S
C7922 C7924 1.378 . S
C7922 C7926 1.350 . S
C7923 C7926 1.463 . S
C7923 C7928 1.350 . S
C7923 N7931 1.427 . S
C7924 H7915 0.930 . S
C7924 C7922 1.378 . S
C7924 C7925 1.367 . S
C7925 C7924 1.367 . S
C7925 C7927 1.433 . S
C7926 C7922 1.350 . S
C7926 C7923 1.463 . S
C7926 N7930 1.427 . S
C7927 H7917 0.929 . S
C7927 C7925 1.433 . S
C7927 N7930 1.384 . S
C7928 H7919 0.929 . S
C7928 C7920 1.378 . S
C7928 C7923 1.350 . S
C7929 H7916 0.929 . S
C7929 C7921 1.433 . S
C7929 N7931 1.384 . S
N7930 C7926 1.427 . S
N7930 C7927 1.384 . S
N7931 C7923 1.427 . S
N7931 C7929 1.384 . S
H7932 C7938 0.930 . S
H7933 C7942 0.930 . S
H7934 C7947 0.929 . S
H7935 C7945 0.929 . S
H7936 C7940 0.929 . S
H7937 C7946 0.929 . S
C7938 H7932 0.930 . S
C7938 C7939 1.367 . S
C7938 C7946 1.378 . S
C7939 C7938 1.367 . S
C7939 C7947 1.433 . S
C7940 H7936 0.929 . S
C7940 C7942 1.378 . S
C7940 C7944 1.350 . S
C7941 C7944 1.463 . S
C7941 C7946 1.350 . S
C7941 N7949 1.427 . S
C7942 H7933 0.930 . S
C7942 C7940 1.378 . S
C7942 C7943 1.367 . S
C7943 C7942 1.367 . S
C7943 C7945 1.433 . S
C7944 C7940 1.350 . S
C7944 C7941 1.463 . S
C7944 N7948 1.427 . S
C7945 H7935 0.929 . S
C7945 C7943 1.433 . S
C7945 N7948 1.384 . S
C7946 H7937 0.929 . S
C7946 C7938 1.378 . S
C7946 C7941 1.350 . S
C7947 H7934 0.929 . S
C7947 C7939 1.433 . S
C7947 N7949 1.384 . S
N7948 C7944 1.427 . S
N7948 C7945 1.384 . S
N7949 C7941 1.427 . S
N7949 C7947 1.384 . S
H7950 C7956 0.930 . S
H7951 C7960 0.930 . S
H7952 C7965 0.929 . S
H7953 C7963 0.929 . S
H7954 C7958 0.929 . S
H7955 C7964 0.929 . S
C7956 H7950 0.930 . S
C7956 C7957 1.367 . S
C7956 C7964 1.378 . S
C7957 C7956 1.367 . S
C7957 C7965 1.433 . S
C7958 H7954 0.929 . S
C7958 C7960 1.378 . S
C7958 C7962 1.350 . S
C7959 C7962 1.463 . S
C7959 C7964 1.350 . S
C7959 N7967 1.427 . S
C7960 H7951 0.930 . S
C7960 C7958 1.378 . S
C7960 C7961 1.367 . S
C7961 C7960 1.367 . S
C7961 C7963 1.433 . S
C7962 C7958 1.350 . S
C7962 C7959 1.463 . S
C7962 N7966 1.427 . S
C7963 H7953 0.929 . S
C7963 C7961 1.433 . S
C7963 N7966 1.384 . S
C7964 H7955 0.929 . S
C7964 C7956 1.378 . S
C7964 C7959 1.350 . S
C7965 H7952 0.929 . S
C7965 C7957 1.433 . S
C7965 N7967 1.384 . S
N7966 C7962 1.427 . S
N7966 C7963 1.384 . S
N7967 C7959 1.427 . S
N7967 C7965 1.384 . S
H7968 C7974 0.930 . S
H7969 C7978 0.930 . S
H7970 C7983 0.929 . S
H7971 C7981 0.929 . S
H7972 C7976 0.929 . S
H7973 C7982 0.929 . S
C7974 H7968 0.930 . S
C7974 C7975 1.367 . S
C7974 C7982 1.378 . S
C7975 C7974 1.367 . S
C7975 C7983 1.433 . S
C7976 H7972 0.929 . S
C7976 C7978 1.378 . S
C7976 C7980 1.350 . S
C7977 C7980 1.463 . S
C7977 C7982 1.350 . S
C7977 N7985 1.427 . S
C7978 H7969 0.930 . S
C7978 C7976 1.378 . S
C7978 C7979 1.367 . S
C7979 C7978 1.367 . S
C7979 C7981 1.433 . S
C7980 C7976 1.350 . S
C7980 C7977 1.463 . S
C7980 N7984 1.427 . S
C7981 H7971 0.929 . S
C7981 C7979 1.433 . S
C7981 N7984 1.384 . S
C7982 H7973 0.929 . S
C7982 C7974 1.378 . S
C7982 C7977 1.350 . S
C7983 H7970 0.929 . S
C7983 C7975 1.433 . S
C7983 N7985 1.384 . S
N7984 C7980 1.427 . S
N7984 C7981 1.384 . S
N7985 C7977 1.427 . S
N7985 C7983 1.384 . S
H7986 C7992 0.930 . S
H7987 C7996 0.930 . S
H7988 C8001 0.929 . S
H7989 C7999 0.929 . S
H7990 C7994 0.929 . S
H7991 C8000 0.929 . S
C7992 H7986 0.930 . S
C7992 C7993 1.367 . S
C7992 C8000 1.378 . S
C7993 C7992 1.367 . S
C7993 C8001 1.433 . S
C7994 H7990 0.929 . S
C7994 C7996 1.378 . S
C7994 C7998 1.350 . S
C7995 C7998 1.463 . S
C7995 C8000 1.350 . S
C7995 N8003 1.427 . S
C7996 H7987 0.930 . S
C7996 C7994 1.378 . S
C7996 C7997 1.367 . S
C7997 C7996 1.367 . S
C7997 C7999 1.433 . S
C7998 C7994 1.350 . S
C7998 C7995 1.463 . S
C7998 N8002 1.427 . S
C7999 H7989 0.929 . S
C7999 C7997 1.433 . S
C7999 N8002 1.384 . S
C8000 H7991 0.929 . S
C8000 C7992 1.378 . S
C8000 C7995 1.350 . S
C8001 H7988 0.929 . S
C8001 C7993 1.433 . S
C8001 N8003 1.384 . S
N8002 C7998 1.427 . S
N8002 C7999 1.384 . S
N8003 C7995 1.427 . S
N8003 C8001 1.384 . S
H8004 C8010 0.930 . S
H8005 C8014 0.930 . S
H8006 C8019 0.929 . S
H8007 C8017 0.929 . S
H8008 C8012 0.929 . S
H8009 C8018 0.929 . S
C8010 H8004 0.930 . S
C8010 C8011 1.367 . S
C8010 C8018 1.378 . S
C8011 C8010 1.367 . S
C8011 C8019 1.433 . S
C8012 H8008 0.929 . S
C8012 C8014 1.378 . S
C8012 C8016 1.350 . S
C8013 C8016 1.463 . S
C8013 C8018 1.350 . S
C8013 N8021 1.427 . S
C8014 H8005 0.930 . S
C8014 C8012 1.378 . S
C8014 C8015 1.367 . S
C8015 C8014 1.367 . S
C8015 C8017 1.433 . S
C8016 C8012 1.350 . S
C8016 C8013 1.463 . S
C8016 N8020 1.427 . S
C8017 H8007 0.929 . S
C8017 C8015 1.433 . S
C8017 N8020 1.384 . S
C8018 H8009 0.929 . S
C8018 C8010 1.378 . S
C8018 C8013 1.350 . S
C8019 H8006 0.929 . S
C8019 C8011 1.433 . S
C8019 N8021 1.384 . S
N8020 C8016 1.427 . S
N8020 C8017 1.384 . S
N8021 C8013 1.427 . S
N8021 C8019 1.384 . S
H8022 C8028 0.930 . S
H8023 C8032 0.930 . S
H8024 C8037 0.929 . S
H8025 C8035 0.929 . S
H8026 C8030 0.929 . S
H8027 C8036 0.929 . S
C8028 H8022 0.930 . S
C8028 C8029 1.367 . S
C8028 C8036 1.378 . S
C8029 C8028 1.367 . S
C8029 C8037 1.433 . S
C8030 H8026 0.929 . S
C8030 C8032 1.378 . S
C8030 C8034 1.350 . S
C8031 C8034 1.463 . S
C8031 C8036 1.350 . S
C8031 N8039 1.427 . S
C8032 H8023 0.930 . S
C8032 C8030 1.378 . S
C8032 C8033 1.367 . S
C8033 C8032 1.367 . S
C8033 C8035 1.433 . S
C8034 C8030 1.350 . S
C8034 C8031 1.463 . S
C8034 N8038 1.427 . S
C8035 H8025 0.929 . S
C8035 C8033 1.433 . S
C8035 N8038 1.384 . S
C8036 H8027 0.929 . S
C8036 C8028 1.378 . S
C8036 C8031 1.350 . S
C8037 H8024 0.929 . S
C8037 C8029 1.433 . S
C8037 N8039 1.384 . S
N8038 C8034 1.427 . S
N8038 C8035 1.384 . S
N8039 C8031 1.427 . S
N8039 C8037 1.384 . S
H8040 C8046 0.930 . S
H8041 C8050 0.930 . S
H8042 C8055 0.929 . S
H8043 C8053 0.929 . S
H8044 C8048 0.929 . S
H8045 C8054 0.929 . S
C8046 H8040 0.930 . S
C8046 C8047 1.367 . S
C8046 C8054 1.378 . S
C8047 C8046 1.367 . S
C8047 C8055 1.433 . S
C8048 H8044 0.929 . S
C8048 C8050 1.378 . S
C8048 C8052 1.350 . S
C8049 C8052 1.463 . S
C8049 C8054 1.350 . S
C8049 N8057 1.427 . S
C8050 H8041 0.930 . S
C8050 C8048 1.378 . S
C8050 C8051 1.367 . S
C8051 C8050 1.367 . S
C8051 C8053 1.433 . S
C8052 C8048 1.350 . S
C8052 C8049 1.463 . S
C8052 N8056 1.427 . S
C8053 H8043 0.929 . S
C8053 C8051 1.433 . S
C8053 N8056 1.384 . S
C8054 H8045 0.929 . S
C8054 C8046 1.378 . S
C8054 C8049 1.350 . S
C8055 H8042 0.929 . S
C8055 C8047 1.433 . S
C8055 N8057 1.384 . S
N8056 C8052 1.427 . S
N8056 C8053 1.384 . S
N8057 C8049 1.427 . S
N8057 C8055 1.384 . S
H8058 C8064 0.930 . S
H8059 C8068 0.930 . S
H8060 C8073 0.929 . S
H8061 C8071 0.929 . S
H8062 C8066 0.929 . S
H8063 C8072 0.929 . S
C8064 H8058 0.930 . S
C8064 C8065 1.367 . S
C8064 C8072 1.378 . S
C8065 C8064 1.367 . S
C8065 C8073 1.433 . S
C8066 H8062 0.929 . S
C8066 C8068 1.378 . S
C8066 C8070 1.350 . S
C8067 C8070 1.463 . S
C8067 C8072 1.350 . S
C8067 N8075 1.427 . S
C8068 H8059 0.930 . S
C8068 C8066 1.378 . S
C8068 C8069 1.367 . S
C8069 C8068 1.367 . S
C8069 C8071 1.433 . S
C8070 C8066 1.350 . S
C8070 C8067 1.463 . S
C8070 N8074 1.427 . S
C8071 H8061 0.929 . S
C8071 C8069 1.433 . S
C8071 N8074 1.384 . S
C8072 H8063 0.929 . S
C8072 C8064 1.378 . S
C8072 C8067 1.350 . S
C8073 H8060 0.929 . S
C8073 C8065 1.433 . S
C8073 N8075 1.384 . S
N8074 C8070 1.427 . S
N8074 C8071 1.384 . S
N8075 C8067 1.427 . S
N8075 C8073 1.384 . S
H8076 C8082 0.930 . S
H8077 C8086 0.930 . S
H8078 C8091 0.929 . S
H8079 C8089 0.929 . S
H8080 C8084 0.929 . S
H8081 C8090 0.929 . S
C8082 H8076 0.930 . S
C8082 C8083 1.367 . S
C8082 C8090 1.378 . S
C8083 C8082 1.367 . S
C8083 C8091 1.433 . S
C8084 H8080 0.929 . S
C8084 C8086 1.378 . S
C8084 C8088 1.350 . S
C8085 C8088 1.463 . S
C8085 C8090 1.350 . S
C8085 N8093 1.427 . S
C8086 H8077 0.930 . S
C8086 C8084 1.378 . S
C8086 C8087 1.367 . S
C8087 C8086 1.367 . S
C8087 C8089 1.433 . S
C8088 C8084 1.350 . S
C8088 C8085 1.463 . S
C8088 N8092 1.427 . S
C8089 H8079 0.929 . S
C8089 C8087 1.433 . S
C8089 N8092 1.384 . S
C8090 H8081 0.929 . S
C8090 C8082 1.378 . S
C8090 C8085 1.350 . S
C8091 H8078 0.929 . S
C8091 C8083 1.433 . S
C8091 N8093 1.384 . S
N8092 C8088 1.427 . S
N8092 C8089 1.384 . S
N8093 C8085 1.427 . S
N8093 C8091 1.384 . S
H8094 C8100 0.930 . S
H8095 C8104 0.930 . S
H8096 C8109 0.929 . S
H8097 C8107 0.929 . S
H8098 C8102 0.929 . S
H8099 C8108 0.929 . S
C8100 H8094 0.930 . S
C8100 C8101 1.367 . S
C8100 C8108 1.378 . S
C8101 C8100 1.367 . S
C8101 C8109 1.433 . S
C8102 H8098 0.929 . S
C8102 C8104 1.378 . S
C8102 C8106 1.350 . S
C8103 C8106 1.463 . S
C8103 C8108 1.350 . S
C8103 N8111 1.427 . S
C8104 H8095 0.930 . S
C8104 C8102 1.378 . S
C8104 C8105 1.367 . S
C8105 C8104 1.367 . S
C8105 C8107 1.433 . S
C8106 C8102 1.350 . S
C8106 C8103 1.463 . S
C8106 N8110 1.427 . S
C8107 H8097 0.929 . S
C8107 C8105 1.433 . S
C8107 N8110 1.384 . S
C8108 H8099 0.929 . S
C8108 C8100 1.378 . S
C8108 C8103 1.350 . S
C8109 H8096 0.929 . S
C8109 C8101 1.433 . S
C8109 N8111 1.384 . S
N8110 C8106 1.427 . S
N8110 C8107 1.384 . S
N8111 C8103 1.427 . S
N8111 C8109 1.384 . S
H8112 C8118 0.930 . S
H8113 C8122 0.930 . S
H8114 C8127 0.929 . S
H8115 C8125 0.929 . S
H8116 C8120 0.929 . S
H8117 C8126 0.929 . S
C8118 H8112 0.930 . S
C8118 C8119 1.367 . S
C8118 C8126 1.378 . S
C8119 C8118 1.367 . S
C8119 C8127 1.433 . S
C8120 H8116 0.929 . S
C8120 C8122 1.378 . S
C8120 C8124 1.350 . S
C8121 C8124 1.463 . S
C8121 C8126 1.350 . S
C8121 N8129 1.427 . S
C8122 H8113 0.930 . S
C8122 C8120 1.378 . S
C8122 C8123 1.367 . S
C8123 C8122 1.367 . S
C8123 C8125 1.433 . S
C8124 C8120 1.350 . S
C8124 C8121 1.463 . S
C8124 N8128 1.427 . S
C8125 H8115 0.929 . S
C8125 C8123 1.433 . S
C8125 N8128 1.384 . S
C8126 H8117 0.929 . S
C8126 C8118 1.378 . S
C8126 C8121 1.350 . S
C8127 H8114 0.929 . S
C8127 C8119 1.433 . S
C8127 N8129 1.384 . S
N8128 C8124 1.427 . S
N8128 C8125 1.384 . S
N8129 C8121 1.427 . S
N8129 C8127 1.384 . S
H8130 C8136 0.930 . S
H8131 C8140 0.930 . S
H8132 C8145 0.929 . S
H8133 C8143 0.929 . S
H8134 C8138 0.929 . S
H8135 C8144 0.929 . S
C8136 H8130 0.930 . S
C8136 C8137 1.367 . S
C8136 C8144 1.378 . S
C8137 C8136 1.367 . S
C8137 C8145 1.433 . S
C8138 H8134 0.929 . S
C8138 C8140 1.378 . S
C8138 C8142 1.350 . S
C8139 C8142 1.463 . S
C8139 C8144 1.350 . S
C8139 N8147 1.427 . S
C8140 H8131 0.930 . S
C8140 C8138 1.378 . S
C8140 C8141 1.367 . S
C8141 C8140 1.367 . S
C8141 C8143 1.433 . S
C8142 C8138 1.350 . S
C8142 C8139 1.463 . S
C8142 N8146 1.427 . S
C8143 H8133 0.929 . S
C8143 C8141 1.433 . S
C8143 N8146 1.384 . S
C8144 H8135 0.929 . S
C8144 C8136 1.378 . S
C8144 C8139 1.350 . S
C8145 H8132 0.929 . S
C8145 C8137 1.433 . S
C8145 N8147 1.384 . S
N8146 C8142 1.427 . S
N8146 C8143 1.384 . S
N8147 C8139 1.427 . S
N8147 C8145 1.384 . S
H8148 C8154 0.930 . S
H8149 C8158 0.930 . S
H8150 C8163 0.929 . S
H8151 C8161 0.929 . S
H8152 C8156 0.929 . S
H8153 C8162 0.929 . S
C8154 H8148 0.930 . S
C8154 C8155 1.367 . S
C8154 C8162 1.378 . S
C8155 C8154 1.367 . S
C8155 C8163 1.433 . S
C8156 H8152 0.929 . S
C8156 C8158 1.378 . S
C8156 C8160 1.350 . S
C8157 C8160 1.463 . S
C8157 C8162 1.350 . S
C8157 N8165 1.427 . S
C8158 H8149 0.930 . S
C8158 C8156 1.378 . S
C8158 C8159 1.367 . S
C8159 C8158 1.367 . S
C8159 C8161 1.433 . S
C8160 C8156 1.350 . S
C8160 C8157 1.463 . S
C8160 N8164 1.427 . S
C8161 H8151 0.929 . S
C8161 C8159 1.433 . S
C8161 N8164 1.384 . S
C8162 H8153 0.929 . S
C8162 C8154 1.378 . S
C8162 C8157 1.350 . S
C8163 H8150 0.929 . S
C8163 C8155 1.433 . S
C8163 N8165 1.384 . S
N8164 C8160 1.427 . S
N8164 C8161 1.384 . S
N8165 C8157 1.427 . S
N8165 C8163 1.384 . S
H8166 C8172 0.930 . S
H8167 C8176 0.930 . S
H8168 C8181 0.929 . S
H8169 C8179 0.929 . S
H8170 C8174 0.929 . S
H8171 C8180 0.929 . S
C8172 H8166 0.930 . S
C8172 C8173 1.367 . S
C8172 C8180 1.378 . S
C8173 C8172 1.367 . S
C8173 C8181 1.433 . S
C8174 H8170 0.929 . S
C8174 C8176 1.378 . S
C8174 C8178 1.350 . S
C8175 C8178 1.463 . S
C8175 C8180 1.350 . S
C8175 N8183 1.427 . S
C8176 H8167 0.930 . S
C8176 C8174 1.378 . S
C8176 C8177 1.367 . S
C8177 C8176 1.367 . S
C8177 C8179 1.433 . S
C8178 C8174 1.350 . S
C8178 C8175 1.463 . S
C8178 N8182 1.427 . S
C8179 H8169 0.929 . S
C8179 C8177 1.433 . S
C8179 N8182 1.384 . S
C8180 H8171 0.929 . S
C8180 C8172 1.378 . S
C8180 C8175 1.350 . S
C8181 H8168 0.929 . S
C8181 C8173 1.433 . S
C8181 N8183 1.384 . S
N8182 C8178 1.427 . S
N8182 C8179 1.384 . S
N8183 C8175 1.427 . S
N8183 C8181 1.384 . S
H8184 C8190 0.930 . S
H8185 C8194 0.930 . S
H8186 C8199 0.929 . S
H8187 C8197 0.929 . S
H8188 C8192 0.929 . S
H8189 C8198 0.929 . S
C8190 H8184 0.930 . S
C8190 C8191 1.367 . S
C8190 C8198 1.378 . S
C8191 C8190 1.367 . S
C8191 C8199 1.433 . S
C8192 H8188 0.929 . S
C8192 C8194 1.378 . S
C8192 C8196 1.350 . S
C8193 C8196 1.463 . S
C8193 C8198 1.350 . S
C8193 N8201 1.427 . S
C8194 H8185 0.930 . S
C8194 C8192 1.378 . S
C8194 C8195 1.367 . S
C8195 C8194 1.367 . S
C8195 C8197 1.433 . S
C8196 C8192 1.350 . S
C8196 C8193 1.463 . S
C8196 N8200 1.427 . S
C8197 H8187 0.929 . S
C8197 C8195 1.433 . S
C8197 N8200 1.384 . S
C8198 H8189 0.929 . S
C8198 C8190 1.378 . S
C8198 C8193 1.350 . S
C8199 H8186 0.929 . S
C8199 C8191 1.433 . S
C8199 N8201 1.384 . S
N8200 C8196 1.427 . S
N8200 C8197 1.384 . S
N8201 C8193 1.427 . S
N8201 C8199 1.384 . S
H8202 C8208 0.930 . S
H8203 C8212 0.930 . S
H8204 C8217 0.929 . S
H8205 C8215 0.929 . S
H8206 C8210 0.929 . S
H8207 C8216 0.929 . S
C8208 H8202 0.930 . S
C8208 C8209 1.367 . S
C8208 C8216 1.378 . S
C8209 C8208 1.367 . S
C8209 C8217 1.433 . S
C8210 H8206 0.929 . S
C8210 C8212 1.378 . S
C8210 C8214 1.350 . S
C8211 C8214 1.463 . S
C8211 C8216 1.350 . S
C8211 N8219 1.427 . S
C8212 H8203 0.930 . S
C8212 C8210 1.378 . S
C8212 C8213 1.367 . S
C8213 C8212 1.367 . S
C8213 C8215 1.433 . S
C8214 C8210 1.350 . S
C8214 C8211 1.463 . S
C8214 N8218 1.427 . S
C8215 H8205 0.929 . S
C8215 C8213 1.433 . S
C8215 N8218 1.384 . S
C8216 H8207 0.929 . S
C8216 C8208 1.378 . S
C8216 C8211 1.350 . S
C8217 H8204 0.929 . S
C8217 C8209 1.433 . S
C8217 N8219 1.384 . S
N8218 C8214 1.427 . S
N8218 C8215 1.384 . S
N8219 C8211 1.427 . S
N8219 C8217 1.384 . S
H8220 C8226 0.930 . S
H8221 C8230 0.930 . S
H8222 C8235 0.929 . S
H8223 C8233 0.929 . S
H8224 C8228 0.929 . S
H8225 C8234 0.929 . S
C8226 H8220 0.930 . S
C8226 C8227 1.367 . S
C8226 C8234 1.378 . S
C8227 C8226 1.367 . S
C8227 C8235 1.433 . S
C8228 H8224 0.929 . S
C8228 C8230 1.378 . S
C8228 C8232 1.350 . S
C8229 C8232 1.463 . S
C8229 C8234 1.350 . S
C8229 N8237 1.427 . S
C8230 H8221 0.930 . S
C8230 C8228 1.378 . S
C8230 C8231 1.367 . S
C8231 C8230 1.367 . S
C8231 C8233 1.433 . S
C8232 C8228 1.350 . S
C8232 C8229 1.463 . S
C8232 N8236 1.427 . S
C8233 H8223 0.929 . S
C8233 C8231 1.433 . S
C8233 N8236 1.384 . S
C8234 H8225 0.929 . S
C8234 C8226 1.378 . S
C8234 C8229 1.350 . S
C8235 H8222 0.929 . S
C8235 C8227 1.433 . S
C8235 N8237 1.384 . S
N8236 C8232 1.427 . S
N8236 C8233 1.384 . S
N8237 C8229 1.427 . S
N8237 C8235 1.384 . S
H8238 C8244 0.930 . S
H8239 C8248 0.930 . S
H8240 C8253 0.929 . S
H8241 C8251 0.929 . S
H8242 C8246 0.929 . S
H8243 C8252 0.929 . S
C8244 H8238 0.930 . S
C8244 C8245 1.367 . S
C8244 C8252 1.378 . S
C8245 C8244 1.367 . S
C8245 C8253 1.433 . S
C8246 H8242 0.929 . S
C8246 C8248 1.378 . S
C8246 C8250 1.350 . S
C8247 C8250 1.463 . S
C8247 C8252 1.350 . S
C8247 N8255 1.427 . S
C8248 H8239 0.930 . S
C8248 C8246 1.378 . S
C8248 C8249 1.367 . S
C8249 C8248 1.367 . S
C8249 C8251 1.433 . S
C8250 C8246 1.350 . S
C8250 C8247 1.463 . S
C8250 N8254 1.427 . S
C8251 H8241 0.929 . S
C8251 C8249 1.433 . S
C8251 N8254 1.384 . S
C8252 H8243 0.929 . S
C8252 C8244 1.378 . S
C8252 C8247 1.350 . S
C8253 H8240 0.929 . S
C8253 C8245 1.433 . S
C8253 N8255 1.384 . S
N8254 C8250 1.427 . S
N8254 C8251 1.384 . S
N8255 C8247 1.427 . S
N8255 C8253 1.384 . S
H8256 C8262 0.930 . S
H8257 C8266 0.930 . S
H8258 C8271 0.929 . S
H8259 C8269 0.929 . S
H8260 C8264 0.929 . S
H8261 C8270 0.929 . S
C8262 H8256 0.930 . S
C8262 C8263 1.367 . S
C8262 C8270 1.378 . S
C8263 C8262 1.367 . S
C8263 C8271 1.433 . S
C8264 H8260 0.929 . S
C8264 C8266 1.378 . S
C8264 C8268 1.350 . S
C8265 C8268 1.463 . S
C8265 C8270 1.350 . S
C8265 N8273 1.427 . S
C8266 H8257 0.930 . S
C8266 C8264 1.378 . S
C8266 C8267 1.367 . S
C8267 C8266 1.367 . S
C8267 C8269 1.433 . S
C8268 C8264 1.350 . S
C8268 C8265 1.463 . S
C8268 N8272 1.427 . S
C8269 H8259 0.929 . S
C8269 C8267 1.433 . S
C8269 N8272 1.384 . S
C8270 H8261 0.929 . S
C8270 C8262 1.378 . S
C8270 C8265 1.350 . S
C8271 H8258 0.929 . S
C8271 C8263 1.433 . S
C8271 N8273 1.384 . S
N8272 C8268 1.427 . S
N8272 C8269 1.384 . S
N8273 C8265 1.427 . S
N8273 C8271 1.384 . S
H8274 C8280 0.930 . S
H8275 C8284 0.930 . S
H8276 C8289 0.929 . S
H8277 C8287 0.929 . S
H8278 C8282 0.929 . S
H8279 C8288 0.929 . S
C8280 H8274 0.930 . S
C8280 C8281 1.367 . S
C8280 C8288 1.378 . S
C8281 C8280 1.367 . S
C8281 C8289 1.433 . S
C8282 H8278 0.929 . S
C8282 C8284 1.378 . S
C8282 C8286 1.350 . S
C8283 C8286 1.463 . S
C8283 C8288 1.350 . S
C8283 N8291 1.427 . S
C8284 H8275 0.930 . S
C8284 C8282 1.378 . S
C8284 C8285 1.367 . S
C8285 C8284 1.367 . S
C8285 C8287 1.433 . S
C8286 C8282 1.350 . S
C8286 C8283 1.463 . S
C8286 N8290 1.427 . S
C8287 H8277 0.929 . S
C8287 C8285 1.433 . S
C8287 N8290 1.384 . S
C8288 H8279 0.929 . S
C8288 C8280 1.378 . S
C8288 C8283 1.350 . S
C8289 H8276 0.929 . S
C8289 C8281 1.433 . S
C8289 N8291 1.384 . S
N8290 C8286 1.427 . S
N8290 C8287 1.384 . S
N8291 C8283 1.427 . S
N8291 C8289 1.384 . S
H8292 C8298 0.930 . S
H8293 C8302 0.930 . S
H8294 C8307 0.929 . S
H8295 C8305 0.929 . S
H8296 C8300 0.929 . S
H8297 C8306 0.929 . S
C8298 H8292 0.930 . S
C8298 C8299 1.367 . S
C8298 C8306 1.378 . S
C8299 C8298 1.367 . S
C8299 C8307 1.433 . S
C8300 H8296 0.929 . S
C8300 C8302 1.378 . S
C8300 C8304 1.350 . S
C8301 C8304 1.463 . S
C8301 C8306 1.350 . S
C8301 N8309 1.427 . S
C8302 H8293 0.930 . S
C8302 C8300 1.378 . S
C8302 C8303 1.367 . S
C8303 C8302 1.367 . S
C8303 C8305 1.433 . S
C8304 C8300 1.350 . S
C8304 C8301 1.463 . S
C8304 N8308 1.427 . S
C8305 H8295 0.929 . S
C8305 C8303 1.433 . S
C8305 N8308 1.384 . S
C8306 H8297 0.929 . S
C8306 C8298 1.378 . S
C8306 C8301 1.350 . S
C8307 H8294 0.929 . S
C8307 C8299 1.433 . S
C8307 N8309 1.384 . S
N8308 C8304 1.427 . S
N8308 C8305 1.384 . S
N8309 C8301 1.427 . S
N8309 C8307 1.384 . S
H8310 C8316 0.930 . S
H8311 C8320 0.930 . S
H8312 C8325 0.929 . S
H8313 C8323 0.929 . S
H8314 C8318 0.929 . S
H8315 C8324 0.929 . S
C8316 H8310 0.930 . S
C8316 C8317 1.367 . S
C8316 C8324 1.378 . S
C8317 C8316 1.367 . S
C8317 C8325 1.433 . S
C8318 H8314 0.929 . S
C8318 C8320 1.378 . S
C8318 C8322 1.350 . S
C8319 C8322 1.463 . S
C8319 C8324 1.350 . S
C8319 N8327 1.427 . S
C8320 H8311 0.930 . S
C8320 C8318 1.378 . S
C8320 C8321 1.367 . S
C8321 C8320 1.367 . S
C8321 C8323 1.433 . S
C8322 C8318 1.350 . S
C8322 C8319 1.463 . S
C8322 N8326 1.427 . S
C8323 H8313 0.929 . S
C8323 C8321 1.433 . S
C8323 N8326 1.384 . S
C8324 H8315 0.929 . S
C8324 C8316 1.378 . S
C8324 C8319 1.350 . S
C8325 H8312 0.929 . S
C8325 C8317 1.433 . S
C8325 N8327 1.384 . S
N8326 C8322 1.427 . S
N8326 C8323 1.384 . S
N8327 C8319 1.427 . S
N8327 C8325 1.384 . S
H8328 C8334 0.930 . S
H8329 C8338 0.930 . S
H8330 C8343 0.929 . S
H8331 C8341 0.929 . S
H8332 C8336 0.929 . S
H8333 C8342 0.929 . S
C8334 H8328 0.930 . S
C8334 C8335 1.367 . S
C8334 C8342 1.378 . S
C8335 C8334 1.367 . S
C8335 C8343 1.433 . S
C8336 H8332 0.929 . S
C8336 C8338 1.378 . S
C8336 C8340 1.350 . S
C8337 C8340 1.463 . S
C8337 C8342 1.350 . S
C8337 N8345 1.427 . S
C8338 H8329 0.930 . S
C8338 C8336 1.378 . S
C8338 C8339 1.367 . S
C8339 C8338 1.367 . S
C8339 C8341 1.433 . S
C8340 C8336 1.350 . S
C8340 C8337 1.463 . S
C8340 N8344 1.427 . S
C8341 H8331 0.929 . S
C8341 C8339 1.433 . S
C8341 N8344 1.384 . S
C8342 H8333 0.929 . S
C8342 C8334 1.378 . S
C8342 C8337 1.350 . S
C8343 H8330 0.929 . S
C8343 C8335 1.433 . S
C8343 N8345 1.384 . S
N8344 C8340 1.427 . S
N8344 C8341 1.384 . S
N8345 C8337 1.427 . S
N8345 C8343 1.384 . S
H8346 C8352 0.930 . S
H8347 C8356 0.930 . S
H8348 C8361 0.929 . S
H8349 C8359 0.929 . S
H8350 C8354 0.929 . S
H8351 C8360 0.929 . S
C8352 H8346 0.930 . S
C8352 C8353 1.367 . S
C8352 C8360 1.378 . S
C8353 C8352 1.367 . S
C8353 C8361 1.433 . S
C8354 H8350 0.929 . S
C8354 C8356 1.378 . S
C8354 C8358 1.350 . S
C8355 C8358 1.463 . S
C8355 C8360 1.350 . S
C8355 N8363 1.427 . S
C8356 H8347 0.930 . S
C8356 C8354 1.378 . S
C8356 C8357 1.367 . S
C8357 C8356 1.367 . S
C8357 C8359 1.433 . S
C8358 C8354 1.350 . S
C8358 C8355 1.463 . S
C8358 N8362 1.427 . S
C8359 H8349 0.929 . S
C8359 C8357 1.433 . S
C8359 N8362 1.384 . S
C8360 H8351 0.929 . S
C8360 C8352 1.378 . S
C8360 C8355 1.350 . S
C8361 H8348 0.929 . S
C8361 C8353 1.433 . S
C8361 N8363 1.384 . S
N8362 C8358 1.427 . S
N8362 C8359 1.384 . S
N8363 C8355 1.427 . S
N8363 C8361 1.384 . S
H8364 C8370 0.930 . S
H8365 C8374 0.930 . S
H8366 C8379 0.929 . S
H8367 C8377 0.929 . S
H8368 C8372 0.929 . S
H8369 C8378 0.929 . S
C8370 H8364 0.930 . S
C8370 C8371 1.367 . S
C8370 C8378 1.378 . S
C8371 C8370 1.367 . S
C8371 C8379 1.433 . S
C8372 H8368 0.929 . S
C8372 C8374 1.378 . S
C8372 C8376 1.350 . S
C8373 C8376 1.463 . S
C8373 C8378 1.350 . S
C8373 N8381 1.427 . S
C8374 H8365 0.930 . S
C8374 C8372 1.378 . S
C8374 C8375 1.367 . S
C8375 C8374 1.367 . S
C8375 C8377 1.433 . S
C8376 C8372 1.350 . S
C8376 C8373 1.463 . S
C8376 N8380 1.427 . S
C8377 H8367 0.929 . S
C8377 C8375 1.433 . S
C8377 N8380 1.384 . S
C8378 H8369 0.929 . S
C8378 C8370 1.378 . S
C8378 C8373 1.350 . S
C8379 H8366 0.929 . S
C8379 C8371 1.433 . S
C8379 N8381 1.384 . S
N8380 C8376 1.427 . S
N8380 C8377 1.384 . S
N8381 C8373 1.427 . S
N8381 C8379 1.384 . S
H8382 C8388 0.930 . S
H8383 C8392 0.930 . S
H8384 C8397 0.929 . S
H8385 C8395 0.929 . S
H8386 C8390 0.929 . S
H8387 C8396 0.929 . S
C8388 H8382 0.930 . S
C8388 C8389 1.367 . S
C8388 C8396 1.378 . S
C8389 C8388 1.367 . S
C8389 C8397 1.433 . S
C8390 H8386 0.929 . S
C8390 C8392 1.378 . S
C8390 C8394 1.350 . S
C8391 C8394 1.463 . S
C8391 C8396 1.350 . S
C8391 N8399 1.427 . S
C8392 H8383 0.930 . S
C8392 C8390 1.378 . S
C8392 C8393 1.367 . S
C8393 C8392 1.367 . S
C8393 C8395 1.433 . S
C8394 C8390 1.350 . S
C8394 C8391 1.463 . S
C8394 N8398 1.427 . S
C8395 H8385 0.929 . S
C8395 C8393 1.433 . S
C8395 N8398 1.384 . S
C8396 H8387 0.929 . S
C8396 C8388 1.378 . S
C8396 C8391 1.350 . S
C8397 H8384 0.929 . S
C8397 C8389 1.433 . S
C8397 N8399 1.384 . S
N8398 C8394 1.427 . S
N8398 C8395 1.384 . S
N8399 C8391 1.427 . S
N8399 C8397 1.384 . S
H8400 C8406 0.930 . S
H8401 C8410 0.930 . S
H8402 C8415 0.929 . S
H8403 C8413 0.929 . S
H8404 C8408 0.929 . S
H8405 C8414 0.929 . S
C8406 H8400 0.930 . S
C8406 C8407 1.367 . S
C8406 C8414 1.378 . S
C8407 C8406 1.367 . S
C8407 C8415 1.433 . S
C8408 H8404 0.929 . S
C8408 C8410 1.378 . S
C8408 C8412 1.350 . S
C8409 C8412 1.463 . S
C8409 C8414 1.350 . S
C8409 N8417 1.427 . S
C8410 H8401 0.930 . S
C8410 C8408 1.378 . S
C8410 C8411 1.367 . S
C8411 C8410 1.367 . S
C8411 C8413 1.433 . S
C8412 C8408 1.350 . S
C8412 C8409 1.463 . S
C8412 N8416 1.427 . S
C8413 H8403 0.929 . S
C8413 C8411 1.433 . S
C8413 N8416 1.384 . S
C8414 H8405 0.929 . S
C8414 C8406 1.378 . S
C8414 C8409 1.350 . S
C8415 H8402 0.929 . S
C8415 C8407 1.433 . S
C8415 N8417 1.384 . S
N8416 C8412 1.427 . S
N8416 C8413 1.384 . S
N8417 C8409 1.427 . S
N8417 C8415 1.384 . S
H8418 C8424 0.930 . S
H8419 C8428 0.930 . S
H8420 C8433 0.929 . S
H8421 C8431 0.929 . S
H8422 C8426 0.929 . S
H8423 C8432 0.929 . S
C8424 H8418 0.930 . S
C8424 C8425 1.367 . S
C8424 C8432 1.378 . S
C8425 C8424 1.367 . S
C8425 C8433 1.433 . S
C8426 H8422 0.929 . S
C8426 C8428 1.378 . S
C8426 C8430 1.350 . S
C8427 C8430 1.463 . S
C8427 C8432 1.350 . S
C8427 N8435 1.427 . S
C8428 H8419 0.930 . S
C8428 C8426 1.378 . S
C8428 C8429 1.367 . S
C8429 C8428 1.367 . S
C8429 C8431 1.433 . S
C8430 C8426 1.350 . S
C8430 C8427 1.463 . S
C8430 N8434 1.427 . S
C8431 H8421 0.929 . S
C8431 C8429 1.433 . S
C8431 N8434 1.384 . S
C8432 H8423 0.929 . S
C8432 C8424 1.378 . S
C8432 C8427 1.350 . S
C8433 H8420 0.929 . S
C8433 C8425 1.433 . S
C8433 N8435 1.384 . S
N8434 C8430 1.427 . S
N8434 C8431 1.384 . S
N8435 C8427 1.427 . S
N8435 C8433 1.384 . S
H8436 C8442 0.930 . S
H8437 C8446 0.930 . S
H8438 C8451 0.929 . S
H8439 C8449 0.929 . S
H8440 C8444 0.929 . S
H8441 C8450 0.929 . S
C8442 H8436 0.930 . S
C8442 C8443 1.367 . S
C8442 C8450 1.378 . S
C8443 C8442 1.367 . S
C8443 C8451 1.433 . S
C8444 H8440 0.929 . S
C8444 C8446 1.378 . S
C8444 C8448 1.350 . S
C8445 C8448 1.463 . S
C8445 C8450 1.350 . S
C8445 N8453 1.427 . S
C8446 H8437 0.930 . S
C8446 C8444 1.378 . S
C8446 C8447 1.367 . S
C8447 C8446 1.367 . S
C8447 C8449 1.433 . S
C8448 C8444 1.350 . S
C8448 C8445 1.463 . S
C8448 N8452 1.427 . S
C8449 H8439 0.929 . S
C8449 C8447 1.433 . S
C8449 N8452 1.384 . S
C8450 H8441 0.929 . S
C8450 C8442 1.378 . S
C8450 C8445 1.350 . S
C8451 H8438 0.929 . S
C8451 C8443 1.433 . S
C8451 N8453 1.384 . S
N8452 C8448 1.427 . S
N8452 C8449 1.384 . S
N8453 C8445 1.427 . S
N8453 C8451 1.384 . S
H8454 C8460 0.930 . S
H8455 C8464 0.930 . S
H8456 C8469 0.929 . S
H8457 C8467 0.929 . S
H8458 C8462 0.929 . S
H8459 C8468 0.929 . S
C8460 H8454 0.930 . S
C8460 C8461 1.367 . S
C8460 C8468 1.378 . S
C8461 C8460 1.367 . S
C8461 C8469 1.433 . S
C8462 H8458 0.929 . S
C8462 C8464 1.378 . S
C8462 C8466 1.350 . S
C8463 C8466 1.463 . S
C8463 C8468 1.350 . S
C8463 N8471 1.427 . S
C8464 H8455 0.930 . S
C8464 C8462 1.378 . S
C8464 C8465 1.367 . S
C8465 C8464 1.367 . S
C8465 C8467 1.433 . S
C8466 C8462 1.350 . S
C8466 C8463 1.463 . S
C8466 N8470 1.427 . S
C8467 H8457 0.929 . S
C8467 C8465 1.433 . S
C8467 N8470 1.384 . S
C8468 H8459 0.929 . S
C8468 C8460 1.378 . S
C8468 C8463 1.350 . S
C8469 H8456 0.929 . S
C8469 C8461 1.433 . S
C8469 N8471 1.384 . S
N8470 C8466 1.427 . S
N8470 C8467 1.384 . S
N8471 C8463 1.427 . S
N8471 C8469 1.384 . S
H8472 C8478 0.930 . S
H8473 C8482 0.930 . S
H8474 C8487 0.929 . S
H8475 C8485 0.929 . S
H8476 C8480 0.929 . S
H8477 C8486 0.929 . S
C8478 H8472 0.930 . S
C8478 C8479 1.367 . S
C8478 C8486 1.378 . S
C8479 C8478 1.367 . S
C8479 C8487 1.433 . S
C8480 H8476 0.929 . S
C8480 C8482 1.378 . S
C8480 C8484 1.350 . S
C8481 C8484 1.463 . S
C8481 C8486 1.350 . S
C8481 N8489 1.427 . S
C8482 H8473 0.930 . S
C8482 C8480 1.378 . S
C8482 C8483 1.367 . S
C8483 C8482 1.367 . S
C8483 C8485 1.433 . S
C8484 C8480 1.350 . S
C8484 C8481 1.463 . S
C8484 N8488 1.427 . S
C8485 H8475 0.929 . S
C8485 C8483 1.433 . S
C8485 N8488 1.384 . S
C8486 H8477 0.929 . S
C8486 C8478 1.378 . S
C8486 C8481 1.350 . S
C8487 H8474 0.929 . S
C8487 C8479 1.433 . S
C8487 N8489 1.384 . S
N8488 C8484 1.427 . S
N8488 C8485 1.384 . S
N8489 C8481 1.427 . S
N8489 C8487 1.384 . S
H8490 C8496 0.930 . S
H8491 C8500 0.930 . S
H8492 C8505 0.929 . S
H8493 C8503 0.929 . S
H8494 C8498 0.929 . S
H8495 C8504 0.929 . S
C8496 H8490 0.930 . S
C8496 C8497 1.367 . S
C8496 C8504 1.378 . S
C8497 C8496 1.367 . S
C8497 C8505 1.433 . S
C8498 H8494 0.929 . S
C8498 C8500 1.378 . S
C8498 C8502 1.350 . S
C8499 C8502 1.463 . S
C8499 C8504 1.350 . S
C8499 N8507 1.427 . S
C8500 H8491 0.930 . S
C8500 C8498 1.378 . S
C8500 C8501 1.367 . S
C8501 C8500 1.367 . S
C8501 C8503 1.433 . S
C8502 C8498 1.350 . S
C8502 C8499 1.463 . S
C8502 N8506 1.427 . S
C8503 H8493 0.929 . S
C8503 C8501 1.433 . S
C8503 N8506 1.384 . S
C8504 H8495 0.929 . S
C8504 C8496 1.378 . S
C8504 C8499 1.350 . S
C8505 H8492 0.929 . S
C8505 C8497 1.433 . S
C8505 N8507 1.384 . S
N8506 C8502 1.427 . S
N8506 C8503 1.384 . S
N8507 C8499 1.427 . S
N8507 C8505 1.384 . S
H8508 C8514 0.930 . S
H8509 C8518 0.930 . S
H8510 C8523 0.929 . S
H8511 C8521 0.929 . S
H8512 C8516 0.929 . S
H8513 C8522 0.929 . S
C8514 H8508 0.930 . S
C8514 C8515 1.367 . S
C8514 C8522 1.378 . S
C8515 C8514 1.367 . S
C8515 C8523 1.433 . S
C8516 H8512 0.929 . S
C8516 C8518 1.378 . S
C8516 C8520 1.350 . S
C8517 C8520 1.463 . S
C8517 C8522 1.350 . S
C8517 N8525 1.427 . S
C8518 H8509 0.930 . S
C8518 C8516 1.378 . S
C8518 C8519 1.367 . S
C8519 C8518 1.367 . S
C8519 C8521 1.433 . S
C8520 C8516 1.350 . S
C8520 C8517 1.463 . S
C8520 N8524 1.427 . S
C8521 H8511 0.929 . S
C8521 C8519 1.433 . S
C8521 N8524 1.384 . S
C8522 H8513 0.929 . S
C8522 C8514 1.378 . S
C8522 C8517 1.350 . S
C8523 H8510 0.929 . S
C8523 C8515 1.433 . S
C8523 N8525 1.384 . S
N8524 C8520 1.427 . S
N8524 C8521 1.384 . S
N8525 C8517 1.427 . S
N8525 C8523 1.384 . S
H8526 C8532 0.930 . S
H8527 C8536 0.930 . S
H8528 C8541 0.929 . S
H8529 C8539 0.929 . S
H8530 C8534 0.929 . S
H8531 C8540 0.929 . S
C8532 H8526 0.930 . S
C8532 C8533 1.367 . S
C8532 C8540 1.378 . S
C8533 C8532 1.367 . S
C8533 C8541 1.433 . S
C8534 H8530 0.929 . S
C8534 C8536 1.378 . S
C8534 C8538 1.350 . S
C8535 C8538 1.463 . S
C8535 C8540 1.350 . S
C8535 N8543 1.427 . S
C8536 H8527 0.930 . S
C8536 C8534 1.378 . S
C8536 C8537 1.367 . S
C8537 C8536 1.367 . S
C8537 C8539 1.433 . S
C8538 C8534 1.350 . S
C8538 C8535 1.463 . S
C8538 N8542 1.427 . S
C8539 H8529 0.929 . S
C8539 C8537 1.433 . S
C8539 N8542 1.384 . S
C8540 H8531 0.929 . S
C8540 C8532 1.378 . S
C8540 C8535 1.350 . S
C8541 H8528 0.929 . S
C8541 C8533 1.433 . S
C8541 N8543 1.384 . S
N8542 C8538 1.427 . S
N8542 C8539 1.384 . S
N8543 C8535 1.427 . S
N8543 C8541 1.384 . S
H8544 C8550 0.930 . S
H8545 C8554 0.930 . S
H8546 C8559 0.929 . S
H8547 C8557 0.929 . S
H8548 C8552 0.929 . S
H8549 C8558 0.929 . S
C8550 H8544 0.930 . S
C8550 C8551 1.367 . S
C8550 C8558 1.378 . S
C8551 C8550 1.367 . S
C8551 C8559 1.433 . S
C8552 H8548 0.929 . S
C8552 C8554 1.378 . S
C8552 C8556 1.350 . S
C8553 C8556 1.463 . S
C8553 C8558 1.350 . S
C8553 N8561 1.427 . S
C8554 H8545 0.930 . S
C8554 C8552 1.378 . S
C8554 C8555 1.367 . S
C8555 C8554 1.367 . S
C8555 C8557 1.433 . S
C8556 C8552 1.350 . S
C8556 C8553 1.463 . S
C8556 N8560 1.427 . S
C8557 H8547 0.929 . S
C8557 C8555 1.433 . S
C8557 N8560 1.384 . S
C8558 H8549 0.929 . S
C8558 C8550 1.378 . S
C8558 C8553 1.350 . S
C8559 H8546 0.929 . S
C8559 C8551 1.433 . S
C8559 N8561 1.384 . S
N8560 C8556 1.427 . S
N8560 C8557 1.384 . S
N8561 C8553 1.427 . S
N8561 C8559 1.384 . S
H8562 C8568 0.930 . S
H8563 C8572 0.930 . S
H8564 C8577 0.929 . S
H8565 C8575 0.929 . S
H8566 C8570 0.929 . S
H8567 C8576 0.929 . S
C8568 H8562 0.930 . S
C8568 C8569 1.367 . S
C8568 C8576 1.378 . S
C8569 C8568 1.367 . S
C8569 C8577 1.433 . S
C8570 H8566 0.929 . S
C8570 C8572 1.378 . S
C8570 C8574 1.350 . S
C8571 C8574 1.463 . S
C8571 C8576 1.350 . S
C8571 N8579 1.427 . S
C8572 H8563 0.930 . S
C8572 C8570 1.378 . S
C8572 C8573 1.367 . S
C8573 C8572 1.367 . S
C8573 C8575 1.433 . S
C8574 C8570 1.350 . S
C8574 C8571 1.463 . S
C8574 N8578 1.427 . S
C8575 H8565 0.929 . S
C8575 C8573 1.433 . S
C8575 N8578 1.384 . S
C8576 H8567 0.929 . S
C8576 C8568 1.378 . S
C8576 C8571 1.350 . S
C8577 H8564 0.929 . S
C8577 C8569 1.433 . S
C8577 N8579 1.384 . S
N8578 C8574 1.427 . S
N8578 C8575 1.384 . S
N8579 C8571 1.427 . S
N8579 C8577 1.384 . S
H8580 C8586 0.930 . S
H8581 C8590 0.930 . S
H8582 C8595 0.929 . S
H8583 C8593 0.929 . S
H8584 C8588 0.929 . S
H8585 C8594 0.929 . S
C8586 H8580 0.930 . S
C8586 C8587 1.367 . S
C8586 C8594 1.378 . S
C8587 C8586 1.367 . S
C8587 C8595 1.433 . S
C8588 H8584 0.929 . S
C8588 C8590 1.378 . S
C8588 C8592 1.350 . S
C8589 C8592 1.463 . S
C8589 C8594 1.350 . S
C8589 N8597 1.427 . S
C8590 H8581 0.930 . S
C8590 C8588 1.378 . S
C8590 C8591 1.367 . S
C8591 C8590 1.367 . S
C8591 C8593 1.433 . S
C8592 C8588 1.350 . S
C8592 C8589 1.463 . S
C8592 N8596 1.427 . S
C8593 H8583 0.929 . S
C8593 C8591 1.433 . S
C8593 N8596 1.384 . S
C8594 H8585 0.929 . S
C8594 C8586 1.378 . S
C8594 C8589 1.350 . S
C8595 H8582 0.929 . S
C8595 C8587 1.433 . S
C8595 N8597 1.384 . S
N8596 C8592 1.427 . S
N8596 C8593 1.384 . S
N8597 C8589 1.427 . S
N8597 C8595 1.384 . S
H8598 C8604 0.930 . S
H8599 C8608 0.930 . S
H8600 C8613 0.929 . S
H8601 C8611 0.929 . S
H8602 C8606 0.929 . S
H8603 C8612 0.929 . S
C8604 H8598 0.930 . S
C8604 C8605 1.367 . S
C8604 C8612 1.378 . S
C8605 C8604 1.367 . S
C8605 C8613 1.433 . S
C8606 H8602 0.929 . S
C8606 C8608 1.378 . S
C8606 C8610 1.350 . S
C8607 C8610 1.463 . S
C8607 C8612 1.350 . S
C8607 N8615 1.427 . S
C8608 H8599 0.930 . S
C8608 C8606 1.378 . S
C8608 C8609 1.367 . S
C8609 C8608 1.367 . S
C8609 C8611 1.433 . S
C8610 C8606 1.350 . S
C8610 C8607 1.463 . S
C8610 N8614 1.427 . S
C8611 H8601 0.929 . S
C8611 C8609 1.433 . S
C8611 N8614 1.384 . S
C8612 H8603 0.929 . S
C8612 C8604 1.378 . S
C8612 C8607 1.350 . S
C8613 H8600 0.929 . S
C8613 C8605 1.433 . S
C8613 N8615 1.384 . S
N8614 C8610 1.427 . S
N8614 C8611 1.384 . S
N8615 C8607 1.427 . S
N8615 C8613 1.384 . S
H8616 C8622 0.930 . S
H8617 C8626 0.930 . S
H8618 C8631 0.929 . S
H8619 C8629 0.929 . S
H8620 C8624 0.929 . S
H8621 C8630 0.929 . S
C8622 H8616 0.930 . S
C8622 C8623 1.367 . S
C8622 C8630 1.378 . S
C8623 C8622 1.367 . S
C8623 C8631 1.433 . S
C8624 H8620 0.929 . S
C8624 C8626 1.378 . S
C8624 C8628 1.350 . S
C8625 C8628 1.463 . S
C8625 C8630 1.350 . S
C8625 N8633 1.427 . S
C8626 H8617 0.930 . S
C8626 C8624 1.378 . S
C8626 C8627 1.367 . S
C8627 C8626 1.367 . S
C8627 C8629 1.433 . S
C8628 C8624 1.350 . S
C8628 C8625 1.463 . S
C8628 N8632 1.427 . S
C8629 H8619 0.929 . S
C8629 C8627 1.433 . S
C8629 N8632 1.384 . S
C8630 H8621 0.929 . S
C8630 C8622 1.378 . S
C8630 C8625 1.350 . S
C8631 H8618 0.929 . S
C8631 C8623 1.433 . S
C8631 N8633 1.384 . S
N8632 C8628 1.427 . S
N8632 C8629 1.384 . S
N8633 C8625 1.427 . S
N8633 C8631 1.384 . S
H8634 C8640 0.930 . S
H8635 C8644 0.930 . S
H8636 C8649 0.929 . S
H8637 C8647 0.929 . S
H8638 C8642 0.929 . S
H8639 C8648 0.929 . S
C8640 H8634 0.930 . S
C8640 C8641 1.367 . S
C8640 C8648 1.378 . S
C8641 C8640 1.367 . S
C8641 C8649 1.433 . S
C8642 H8638 0.929 . S
C8642 C8644 1.378 . S
C8642 C8646 1.350 . S
C8643 C8646 1.463 . S
C8643 C8648 1.350 . S
C8643 N8651 1.427 . S
C8644 H8635 0.930 . S
C8644 C8642 1.378 . S
C8644 C8645 1.367 . S
C8645 C8644 1.367 . S
C8645 C8647 1.433 . S
C8646 C8642 1.350 . S
C8646 C8643 1.463 . S
C8646 N8650 1.427 . S
C8647 H8637 0.929 . S
C8647 C8645 1.433 . S
C8647 N8650 1.384 . S
C8648 H8639 0.929 . S
C8648 C8640 1.378 . S
C8648 C8643 1.350 . S
C8649 H8636 0.929 . S
C8649 C8641 1.433 . S
C8649 N8651 1.384 . S
N8650 C8646 1.427 . S
N8650 C8647 1.384 . S
N8651 C8643 1.427 . S
N8651 C8649 1.384 . S
H8652 C8658 0.930 . S
H8653 C8662 0.930 . S
H8654 C8667 0.929 . S
H8655 C8665 0.929 . S
H8656 C8660 0.929 . S
H8657 C8666 0.929 . S
C8658 H8652 0.930 . S
C8658 C8659 1.367 . S
C8658 C8666 1.378 . S
C8659 C8658 1.367 . S
C8659 C8667 1.433 . S
C8660 H8656 0.929 . S
C8660 C8662 1.378 . S
C8660 C8664 1.350 . S
C8661 C8664 1.463 . S
C8661 C8666 1.350 . S
C8661 N8669 1.427 . S
C8662 H8653 0.930 . S
C8662 C8660 1.378 . S
C8662 C8663 1.367 . S
C8663 C8662 1.367 . S
C8663 C8665 1.433 . S
C8664 C8660 1.350 . S
C8664 C8661 1.463 . S
C8664 N8668 1.427 . S
C8665 H8655 0.929 . S
C8665 C8663 1.433 . S
C8665 N8668 1.384 . S
C8666 H8657 0.929 . S
C8666 C8658 1.378 . S
C8666 C8661 1.350 . S
C8667 H8654 0.929 . S
C8667 C8659 1.433 . S
C8667 N8669 1.384 . S
N8668 C8664 1.427 . S
N8668 C8665 1.384 . S
N8669 C8661 1.427 . S
N8669 C8667 1.384 . S
H8670 C8676 0.930 . S
H8671 C8680 0.930 . S
H8672 C8685 0.929 . S
H8673 C8683 0.929 . S
H8674 C8678 0.929 . S
H8675 C8684 0.929 . S
C8676 H8670 0.930 . S
C8676 C8677 1.367 . S
C8676 C8684 1.378 . S
C8677 C8676 1.367 . S
C8677 C8685 1.433 . S
C8678 H8674 0.929 . S
C8678 C8680 1.378 . S
C8678 C8682 1.350 . S
C8679 C8682 1.463 . S
C8679 C8684 1.350 . S
C8679 N8687 1.427 . S
C8680 H8671 0.930 . S
C8680 C8678 1.378 . S
C8680 C8681 1.367 . S
C8681 C8680 1.367 . S
C8681 C8683 1.433 . S
C8682 C8678 1.350 . S
C8682 C8679 1.463 . S
C8682 N8686 1.427 . S
C8683 H8673 0.929 . S
C8683 C8681 1.433 . S
C8683 N8686 1.384 . S
C8684 H8675 0.929 . S
C8684 C8676 1.378 . S
C8684 C8679 1.350 . S
C8685 H8672 0.929 . S
C8685 C8677 1.433 . S
C8685 N8687 1.384 . S
N8686 C8682 1.427 . S
N8686 C8683 1.384 . S
N8687 C8679 1.427 . S
N8687 C8685 1.384 . S
H8688 C8694 0.930 . S
H8689 C8698 0.930 . S
H8690 C8703 0.929 . S
H8691 C8701 0.929 . S
H8692 C8696 0.929 . S
H8693 C8702 0.929 . S
C8694 H8688 0.930 . S
C8694 C8695 1.367 . S
C8694 C8702 1.378 . S
C8695 C8694 1.367 . S
C8695 C8703 1.433 . S
C8696 H8692 0.929 . S
C8696 C8698 1.378 . S
C8696 C8700 1.350 . S
C8697 C8700 1.463 . S
C8697 C8702 1.350 . S
C8697 N8705 1.427 . S
C8698 H8689 0.930 . S
C8698 C8696 1.378 . S
C8698 C8699 1.367 . S
C8699 C8698 1.367 . S
C8699 C8701 1.433 . S
C8700 C8696 1.350 . S
C8700 C8697 1.463 . S
C8700 N8704 1.427 . S
C8701 H8691 0.929 . S
C8701 C8699 1.433 . S
C8701 N8704 1.384 . S
C8702 H8693 0.929 . S
C8702 C8694 1.378 . S
C8702 C8697 1.350 . S
C8703 H8690 0.929 . S
C8703 C8695 1.433 . S
C8703 N8705 1.384 . S
N8704 C8700 1.427 . S
N8704 C8701 1.384 . S
N8705 C8697 1.427 . S
N8705 C8703 1.384 . S
H8706 C8712 0.930 . S
H8707 C8716 0.930 . S
H8708 C8721 0.929 . S
H8709 C8719 0.929 . S
H8710 C8714 0.929 . S
H8711 C8720 0.929 . S
C8712 H8706 0.930 . S
C8712 C8713 1.367 . S
C8712 C8720 1.378 . S
C8713 C8712 1.367 . S
C8713 C8721 1.433 . S
C8714 H8710 0.929 . S
C8714 C8716 1.378 . S
C8714 C8718 1.350 . S
C8715 C8718 1.463 . S
C8715 C8720 1.350 . S
C8715 N8723 1.427 . S
C8716 H8707 0.930 . S
C8716 C8714 1.378 . S
C8716 C8717 1.367 . S
C8717 C8716 1.367 . S
C8717 C8719 1.433 . S
C8718 C8714 1.350 . S
C8718 C8715 1.463 . S
C8718 N8722 1.427 . S
C8719 H8709 0.929 . S
C8719 C8717 1.433 . S
C8719 N8722 1.384 . S
C8720 H8711 0.929 . S
C8720 C8712 1.378 . S
C8720 C8715 1.350 . S
C8721 H8708 0.929 . S
C8721 C8713 1.433 . S
C8721 N8723 1.384 . S
N8722 C8718 1.427 . S
N8722 C8719 1.384 . S
N8723 C8715 1.427 . S
N8723 C8721 1.384 . S
H8724 C8730 0.930 . S
H8725 C8734 0.930 . S
H8726 C8739 0.929 . S
H8727 C8737 0.929 . S
H8728 C8732 0.929 . S
H8729 C8738 0.929 . S
C8730 H8724 0.930 . S
C8730 C8731 1.367 . S
C8730 C8738 1.378 . S
C8731 C8730 1.367 . S
C8731 C8739 1.433 . S
C8732 H8728 0.929 . S
C8732 C8734 1.378 . S
C8732 C8736 1.350 . S
C8733 C8736 1.463 . S
C8733 C8738 1.350 . S
C8733 N8741 1.427 . S
C8734 H8725 0.930 . S
C8734 C8732 1.378 . S
C8734 C8735 1.367 . S
C8735 C8734 1.367 . S
C8735 C8737 1.433 . S
C8736 C8732 1.350 . S
C8736 C8733 1.463 . S
C8736 N8740 1.427 . S
C8737 H8727 0.929 . S
C8737 C8735 1.433 . S
C8737 N8740 1.384 . S
C8738 H8729 0.929 . S
C8738 C8730 1.378 . S
C8738 C8733 1.350 . S
C8739 H8726 0.929 . S
C8739 C8731 1.433 . S
C8739 N8741 1.384 . S
N8740 C8736 1.427 . S
N8740 C8737 1.384 . S
N8741 C8733 1.427 . S
N8741 C8739 1.384 . S
H8742 C8748 0.930 . S
H8743 C8752 0.930 . S
H8744 C8757 0.929 . S
H8745 C8755 0.929 . S
H8746 C8750 0.929 . S
H8747 C8756 0.929 . S
C8748 H8742 0.930 . S
C8748 C8749 1.367 . S
C8748 C8756 1.378 . S
C8749 C8748 1.367 . S
C8749 C8757 1.433 . S
C8750 H8746 0.929 . S
C8750 C8752 1.378 . S
C8750 C8754 1.350 . S
C8751 C8754 1.463 . S
C8751 C8756 1.350 . S
C8751 N8759 1.427 . S
C8752 H8743 0.930 . S
C8752 C8750 1.378 . S
C8752 C8753 1.367 . S
C8753 C8752 1.367 . S
C8753 C8755 1.433 . S
C8754 C8750 1.350 . S
C8754 C8751 1.463 . S
C8754 N8758 1.427 . S
C8755 H8745 0.929 . S
C8755 C8753 1.433 . S
C8755 N8758 1.384 . S
C8756 H8747 0.929 . S
C8756 C8748 1.378 . S
C8756 C8751 1.350 . S
C8757 H8744 0.929 . S
C8757 C8749 1.433 . S
C8757 N8759 1.384 . S
N8758 C8754 1.427 . S
N8758 C8755 1.384 . S
N8759 C8751 1.427 . S
N8759 C8757 1.384 . S
H8760 C8766 0.930 . S
H8761 C8770 0.930 . S
H8762 C8775 0.929 . S
H8763 C8773 0.929 . S
H8764 C8768 0.929 . S
H8765 C8774 0.929 . S
C8766 H8760 0.930 . S
C8766 C8767 1.367 . S
C8766 C8774 1.378 . S
C8767 C8766 1.367 . S
C8767 C8775 1.433 . S
C8768 H8764 0.929 . S
C8768 C8770 1.378 . S
C8768 C8772 1.350 . S
C8769 C8772 1.463 . S
C8769 C8774 1.350 . S
C8769 N8777 1.427 . S
C8770 H8761 0.930 . S
C8770 C8768 1.378 . S
C8770 C8771 1.367 . S
C8771 C8770 1.367 . S
C8771 C8773 1.433 . S
C8772 C8768 1.350 . S
C8772 C8769 1.463 . S
C8772 N8776 1.427 . S
C8773 H8763 0.929 . S
C8773 C8771 1.433 . S
C8773 N8776 1.384 . S
C8774 H8765 0.929 . S
C8774 C8766 1.378 . S
C8774 C8769 1.350 . S
C8775 H8762 0.929 . S
C8775 C8767 1.433 . S
C8775 N8777 1.384 . S
N8776 C8772 1.427 . S
N8776 C8773 1.384 . S
N8777 C8769 1.427 . S
N8777 C8775 1.384 . S
H8778 C8784 0.930 . S
H8779 C8788 0.930 . S
H8780 C8793 0.929 . S
H8781 C8791 0.929 . S
H8782 C8786 0.929 . S
H8783 C8792 0.929 . S
C8784 H8778 0.930 . S
C8784 C8785 1.367 . S
C8784 C8792 1.378 . S
C8785 C8784 1.367 . S
C8785 C8793 1.433 . S
C8786 H8782 0.929 . S
C8786 C8788 1.378 . S
C8786 C8790 1.350 . S
C8787 C8790 1.463 . S
C8787 C8792 1.350 . S
C8787 N8795 1.427 . S
C8788 H8779 0.930 . S
C8788 C8786 1.378 . S
C8788 C8789 1.367 . S
C8789 C8788 1.367 . S
C8789 C8791 1.433 . S
C8790 C8786 1.350 . S
C8790 C8787 1.463 . S
C8790 N8794 1.427 . S
C8791 H8781 0.929 . S
C8791 C8789 1.433 . S
C8791 N8794 1.384 . S
C8792 H8783 0.929 . S
C8792 C8784 1.378 . S
C8792 C8787 1.350 . S
C8793 H8780 0.929 . S
C8793 C8785 1.433 . S
C8793 N8795 1.384 . S
N8794 C8790 1.427 . S
N8794 C8791 1.384 . S
N8795 C8787 1.427 . S
N8795 C8793 1.384 . S
H8796 C8802 0.930 . S
H8797 C8806 0.930 . S
H8798 C8811 0.929 . S
H8799 C8809 0.929 . S
H8800 C8804 0.929 . S
H8801 C8810 0.929 . S
C8802 H8796 0.930 . S
C8802 C8803 1.367 . S
C8802 C8810 1.378 . S
C8803 C8802 1.367 . S
C8803 C8811 1.433 . S
C8804 H8800 0.929 . S
C8804 C8806 1.378 . S
C8804 C8808 1.350 . S
C8805 C8808 1.463 . S
C8805 C8810 1.350 . S
C8805 N8813 1.427 . S
C8806 H8797 0.930 . S
C8806 C8804 1.378 . S
C8806 C8807 1.367 . S
C8807 C8806 1.367 . S
C8807 C8809 1.433 . S
C8808 C8804 1.350 . S
C8808 C8805 1.463 . S
C8808 N8812 1.427 . S
C8809 H8799 0.929 . S
C8809 C8807 1.433 . S
C8809 N8812 1.384 . S
C8810 H8801 0.929 . S
C8810 C8802 1.378 . S
C8810 C8805 1.350 . S
C8811 H8798 0.929 . S
C8811 C8803 1.433 . S
C8811 N8813 1.384 . S
N8812 C8808 1.427 . S
N8812 C8809 1.384 . S
N8813 C8805 1.427 . S
N8813 C8811 1.384 . S
H8814 C8820 0.930 . S
H8815 C8824 0.930 . S
H8816 C8829 0.929 . S
H8817 C8827 0.929 . S
H8818 C8822 0.929 . S
H8819 C8828 0.929 . S
C8820 H8814 0.930 . S
C8820 C8821 1.367 . S
C8820 C8828 1.378 . S
C8821 C8820 1.367 . S
C8821 C8829 1.433 . S
C8822 H8818 0.929 . S
C8822 C8824 1.378 . S
C8822 C8826 1.350 . S
C8823 C8826 1.463 . S
C8823 C8828 1.350 . S
C8823 N8831 1.427 . S
C8824 H8815 0.930 . S
C8824 C8822 1.378 . S
C8824 C8825 1.367 . S
C8825 C8824 1.367 . S
C8825 C8827 1.433 . S
C8826 C8822 1.350 . S
C8826 C8823 1.463 . S
C8826 N8830 1.427 . S
C8827 H8817 0.929 . S
C8827 C8825 1.433 . S
C8827 N8830 1.384 . S
C8828 H8819 0.929 . S
C8828 C8820 1.378 . S
C8828 C8823 1.350 . S
C8829 H8816 0.929 . S
C8829 C8821 1.433 . S
C8829 N8831 1.384 . S
N8830 C8826 1.427 . S
N8830 C8827 1.384 . S
N8831 C8823 1.427 . S
N8831 C8829 1.384 . S
H8832 C8838 0.930 . S
H8833 C8842 0.930 . S
H8834 C8847 0.929 . S
H8835 C8845 0.929 . S
H8836 C8840 0.929 . S
H8837 C8846 0.929 . S
C8838 H8832 0.930 . S
C8838 C8839 1.367 . S
C8838 C8846 1.378 . S
C8839 C8838 1.367 . S
C8839 C8847 1.433 . S
C8840 H8836 0.929 . S
C8840 C8842 1.378 . S
C8840 C8844 1.350 . S
C8841 C8844 1.463 . S
C8841 C8846 1.350 . S
C8841 N8849 1.427 . S
C8842 H8833 0.930 . S
C8842 C8840 1.378 . S
C8842 C8843 1.367 . S
C8843 C8842 1.367 . S
C8843 C8845 1.433 . S
C8844 C8840 1.350 . S
C8844 C8841 1.463 . S
C8844 N8848 1.427 . S
C8845 H8835 0.929 . S
C8845 C8843 1.433 . S
C8845 N8848 1.384 . S
C8846 H8837 0.929 . S
C8846 C8838 1.378 . S
C8846 C8841 1.350 . S
C8847 H8834 0.929 . S
C8847 C8839 1.433 . S
C8847 N8849 1.384 . S
N8848 C8844 1.427 . S
N8848 C8845 1.384 . S
N8849 C8841 1.427 . S
N8849 C8847 1.384 . S
H8850 C8856 0.930 . S
H8851 C8860 0.930 . S
H8852 C8865 0.929 . S
H8853 C8863 0.929 . S
H8854 C8858 0.929 . S
H8855 C8864 0.929 . S
C8856 H8850 0.930 . S
C8856 C8857 1.367 . S
C8856 C8864 1.378 . S
C8857 C8856 1.367 . S
C8857 C8865 1.433 . S
C8858 H8854 0.929 . S
C8858 C8860 1.378 . S
C8858 C8862 1.350 . S
C8859 C8862 1.463 . S
C8859 C8864 1.350 . S
C8859 N8867 1.427 . S
C8860 H8851 0.930 . S
C8860 C8858 1.378 . S
C8860 C8861 1.367 . S
C8861 C8860 1.367 . S
C8861 C8863 1.433 . S
C8862 C8858 1.350 . S
C8862 C8859 1.463 . S
C8862 N8866 1.427 . S
C8863 H8853 0.929 . S
C8863 C8861 1.433 . S
C8863 N8866 1.384 . S
C8864 H8855 0.929 . S
C8864 C8856 1.378 . S
C8864 C8859 1.350 . S
C8865 H8852 0.929 . S
C8865 C8857 1.433 . S
C8865 N8867 1.384 . S
N8866 C8862 1.427 . S
N8866 C8863 1.384 . S
N8867 C8859 1.427 . S
N8867 C8865 1.384 . S
H8868 C8874 0.930 . S
H8869 C8878 0.930 . S
H8870 C8883 0.929 . S
H8871 C8881 0.929 . S
H8872 C8876 0.929 . S
H8873 C8882 0.929 . S
C8874 H8868 0.930 . S
C8874 C8875 1.367 . S
C8874 C8882 1.378 . S
C8875 C8874 1.367 . S
C8875 C8883 1.433 . S
C8876 H8872 0.929 . S
C8876 C8878 1.378 . S
C8876 C8880 1.350 . S
C8877 C8880 1.463 . S
C8877 C8882 1.350 . S
C8877 N8885 1.427 . S
C8878 H8869 0.930 . S
C8878 C8876 1.378 . S
C8878 C8879 1.367 . S
C8879 C8878 1.367 . S
C8879 C8881 1.433 . S
C8880 C8876 1.350 . S
C8880 C8877 1.463 . S
C8880 N8884 1.427 . S
C8881 H8871 0.929 . S
C8881 C8879 1.433 . S
C8881 N8884 1.384 . S
C8882 H8873 0.929 . S
C8882 C8874 1.378 . S
C8882 C8877 1.350 . S
C8883 H8870 0.929 . S
C8883 C8875 1.433 . S
C8883 N8885 1.384 . S
N8884 C8880 1.427 . S
N8884 C8881 1.384 . S
N8885 C8877 1.427 . S
N8885 C8883 1.384 . S
H8886 C8892 0.930 . S
H8887 C8896 0.930 . S
H8888 C8901 0.929 . S
H8889 C8899 0.929 . S
H8890 C8894 0.929 . S
H8891 C8900 0.929 . S
C8892 H8886 0.930 . S
C8892 C8893 1.367 . S
C8892 C8900 1.378 . S
C8893 C8892 1.367 . S
C8893 C8901 1.433 . S
C8894 H8890 0.929 . S
C8894 C8896 1.378 . S
C8894 C8898 1.350 . S
C8895 C8898 1.463 . S
C8895 C8900 1.350 . S
C8895 N8903 1.427 . S
C8896 H8887 0.930 . S
C8896 C8894 1.378 . S
C8896 C8897 1.367 . S
C8897 C8896 1.367 . S
C8897 C8899 1.433 . S
C8898 C8894 1.350 . S
C8898 C8895 1.463 . S
C8898 N8902 1.427 . S
C8899 H8889 0.929 . S
C8899 C8897 1.433 . S
C8899 N8902 1.384 . S
C8900 H8891 0.929 . S
C8900 C8892 1.378 . S
C8900 C8895 1.350 . S
C8901 H8888 0.929 . S
C8901 C8893 1.433 . S
C8901 N8903 1.384 . S
N8902 C8898 1.427 . S
N8902 C8899 1.384 . S
N8903 C8895 1.427 . S
N8903 C8901 1.384 . S
H8904 C8910 0.930 . S
H8905 C8914 0.930 . S
H8906 C8919 0.929 . S
H8907 C8917 0.929 . S
H8908 C8912 0.929 . S
H8909 C8918 0.929 . S
C8910 H8904 0.930 . S
C8910 C8911 1.367 . S
C8910 C8918 1.378 . S
C8911 C8910 1.367 . S
C8911 C8919 1.433 . S
C8912 H8908 0.929 . S
C8912 C8914 1.378 . S
C8912 C8916 1.350 . S
C8913 C8916 1.463 . S
C8913 C8918 1.350 . S
C8913 N8921 1.427 . S
C8914 H8905 0.930 . S
C8914 C8912 1.378 . S
C8914 C8915 1.367 . S
C8915 C8914 1.367 . S
C8915 C8917 1.433 . S
C8916 C8912 1.350 . S
C8916 C8913 1.463 . S
C8916 N8920 1.427 . S
C8917 H8907 0.929 . S
C8917 C8915 1.433 . S
C8917 N8920 1.384 . S
C8918 H8909 0.929 . S
C8918 C8910 1.378 . S
C8918 C8913 1.350 . S
C8919 H8906 0.929 . S
C8919 C8911 1.433 . S
C8919 N8921 1.384 . S
N8920 C8916 1.427 . S
N8920 C8917 1.384 . S
N8921 C8913 1.427 . S
N8921 C8919 1.384 . S
H8922 C8928 0.930 . S
H8923 C8932 0.930 . S
H8924 C8937 0.929 . S
H8925 C8935 0.929 . S
H8926 C8930 0.929 . S
H8927 C8936 0.929 . S
C8928 H8922 0.930 . S
C8928 C8929 1.367 . S
C8928 C8936 1.378 . S
C8929 C8928 1.367 . S
C8929 C8937 1.433 . S
C8930 H8926 0.929 . S
C8930 C8932 1.378 . S
C8930 C8934 1.350 . S
C8931 C8934 1.463 . S
C8931 C8936 1.350 . S
C8931 N8939 1.427 . S
C8932 H8923 0.930 . S
C8932 C8930 1.378 . S
C8932 C8933 1.367 . S
C8933 C8932 1.367 . S
C8933 C8935 1.433 . S
C8934 C8930 1.350 . S
C8934 C8931 1.463 . S
C8934 N8938 1.427 . S
C8935 H8925 0.929 . S
C8935 C8933 1.433 . S
C8935 N8938 1.384 . S
C8936 H8927 0.929 . S
C8936 C8928 1.378 . S
C8936 C8931 1.350 . S
C8937 H8924 0.929 . S
C8937 C8929 1.433 . S
C8937 N8939 1.384 . S
N8938 C8934 1.427 . S
N8938 C8935 1.384 . S
N8939 C8931 1.427 . S
N8939 C8937 1.384 . S
H8940 C8946 0.930 . S
H8941 C8950 0.930 . S
H8942 C8955 0.929 . S
H8943 C8953 0.929 . S
H8944 C8948 0.929 . S
H8945 C8954 0.929 . S
C8946 H8940 0.930 . S
C8946 C8947 1.367 . S
C8946 C8954 1.378 . S
C8947 C8946 1.367 . S
C8947 C8955 1.433 . S
C8948 H8944 0.929 . S
C8948 C8950 1.378 . S
C8948 C8952 1.350 . S
C8949 C8952 1.463 . S
C8949 C8954 1.350 . S
C8949 N8957 1.427 . S
C8950 H8941 0.930 . S
C8950 C8948 1.378 . S
C8950 C8951 1.367 . S
C8951 C8950 1.367 . S
C8951 C8953 1.433 . S
C8952 C8948 1.350 . S
C8952 C8949 1.463 . S
C8952 N8956 1.427 . S
C8953 H8943 0.929 . S
C8953 C8951 1.433 . S
C8953 N8956 1.384 . S
C8954 H8945 0.929 . S
C8954 C8946 1.378 . S
C8954 C8949 1.350 . S
C8955 H8942 0.929 . S
C8955 C8947 1.433 . S
C8955 N8957 1.384 . S
N8956 C8952 1.427 . S
N8956 C8953 1.384 . S
N8957 C8949 1.427 . S
N8957 C8955 1.384 . S
H8958 C8964 0.930 . S
H8959 C8968 0.930 . S
H8960 C8973 0.929 . S
H8961 C8971 0.929 . S
H8962 C8966 0.929 . S
H8963 C8972 0.929 . S
C8964 H8958 0.930 . S
C8964 C8965 1.367 . S
C8964 C8972 1.378 . S
C8965 C8964 1.367 . S
C8965 C8973 1.433 . S
C8966 H8962 0.929 . S
C8966 C8968 1.378 . S
C8966 C8970 1.350 . S
C8967 C8970 1.463 . S
C8967 C8972 1.350 . S
C8967 N8975 1.427 . S
C8968 H8959 0.930 . S
C8968 C8966 1.378 . S
C8968 C8969 1.367 . S
C8969 C8968 1.367 . S
C8969 C8971 1.433 . S
C8970 C8966 1.350 . S
C8970 C8967 1.463 . S
C8970 N8974 1.427 . S
C8971 H8961 0.929 . S
C8971 C8969 1.433 . S
C8971 N8974 1.384 . S
C8972 H8963 0.929 . S
C8972 C8964 1.378 . S
C8972 C8967 1.350 . S
C8973 H8960 0.929 . S
C8973 C8965 1.433 . S
C8973 N8975 1.384 . S
N8974 C8970 1.427 . S
N8974 C8971 1.384 . S
N8975 C8967 1.427 . S
N8975 C8973 1.384 . S
H8976 C8982 0.930 . S
H8977 C8986 0.930 . S
H8978 C8991 0.929 . S
H8979 C8989 0.929 . S
H8980 C8984 0.929 . S
H8981 C8990 0.929 . S
C8982 H8976 0.930 . S
C8982 C8983 1.367 . S
C8982 C8990 1.378 . S
C8983 C8982 1.367 . S
C8983 C8991 1.433 . S
C8984 H8980 0.929 . S
C8984 C8986 1.378 . S
C8984 C8988 1.350 . S
C8985 C8988 1.463 . S
C8985 C8990 1.350 . S
C8985 N8993 1.427 . S
C8986 H8977 0.930 . S
C8986 C8984 1.378 . S
C8986 C8987 1.367 . S
C8987 C8986 1.367 . S
C8987 C8989 1.433 . S
C8988 C8984 1.350 . S
C8988 C8985 1.463 . S
C8988 N8992 1.427 . S
C8989 H8979 0.929 . S
C8989 C8987 1.433 . S
C8989 N8992 1.384 . S
C8990 H8981 0.929 . S
C8990 C8982 1.378 . S
C8990 C8985 1.350 . S
C8991 H8978 0.929 . S
C8991 C8983 1.433 . S
C8991 N8993 1.384 . S
N8992 C8988 1.427 . S
N8992 C8989 1.384 . S
N8993 C8985 1.427 . S
N8993 C8991 1.384 . S
H8994 C9000 0.930 . S
H8995 C9004 0.930 . S
H8996 C9009 0.929 . S
H8997 C9007 0.929 . S
H8998 C9002 0.929 . S
H8999 C9008 0.929 . S
C9000 H8994 0.930 . S
C9000 C9001 1.367 . S
C9000 C9008 1.378 . S
C9001 C9000 1.367 . S
C9001 C9009 1.433 . S
C9002 H8998 0.929 . S
C9002 C9004 1.378 . S
C9002 C9006 1.350 . S
C9003 C9006 1.463 . S
C9003 C9008 1.350 . S
C9003 N9011 1.427 . S
C9004 H8995 0.930 . S
C9004 C9002 1.378 . S
C9004 C9005 1.367 . S
C9005 C9004 1.367 . S
C9005 C9007 1.433 . S
C9006 C9002 1.350 . S
C9006 C9003 1.463 . S
C9006 N9010 1.427 . S
C9007 H8997 0.929 . S
C9007 C9005 1.433 . S
C9007 N9010 1.384 . S
C9008 H8999 0.929 . S
C9008 C9000 1.378 . S
C9008 C9003 1.350 . S
C9009 H8996 0.929 . S
C9009 C9001 1.433 . S
C9009 N9011 1.384 . S
N9010 C9006 1.427 . S
N9010 C9007 1.384 . S
N9011 C9003 1.427 . S
N9011 C9009 1.384 . S
H9012 C9018 0.930 . S
H9013 C9022 0.930 . S
H9014 C9027 0.929 . S
H9015 C9025 0.929 . S
H9016 C9020 0.929 . S
H9017 C9026 0.929 . S
C9018 H9012 0.930 . S
C9018 C9019 1.367 . S
C9018 C9026 1.378 . S
C9019 C9018 1.367 . S
C9019 C9027 1.433 . S
C9020 H9016 0.929 . S
C9020 C9022 1.378 . S
C9020 C9024 1.350 . S
C9021 C9024 1.463 . S
C9021 C9026 1.350 . S
C9021 N9029 1.427 . S
C9022 H9013 0.930 . S
C9022 C9020 1.378 . S
C9022 C9023 1.367 . S
C9023 C9022 1.367 . S
C9023 C9025 1.433 . S
C9024 C9020 1.350 . S
C9024 C9021 1.463 . S
C9024 N9028 1.427 . S
C9025 H9015 0.929 . S
C9025 C9023 1.433 . S
C9025 N9028 1.384 . S
C9026 H9017 0.929 . S
C9026 C9018 1.378 . S
C9026 C9021 1.350 . S
C9027 H9014 0.929 . S
C9027 C9019 1.433 . S
C9027 N9029 1.384 . S
N9028 C9024 1.427 . S
N9028 C9025 1.384 . S
N9029 C9021 1.427 . S
N9029 C9027 1.384 . S
H9030 C9036 0.930 . S
H9031 C9040 0.930 . S
H9032 C9045 0.929 . S
H9033 C9043 0.929 . S
H9034 C9038 0.929 . S
H9035 C9044 0.929 . S
C9036 H9030 0.930 . S
C9036 C9037 1.367 . S
C9036 C9044 1.378 . S
C9037 C9036 1.367 . S
C9037 C9045 1.433 . S
C9038 H9034 0.929 . S
C9038 C9040 1.378 . S
C9038 C9042 1.350 . S
C9039 C9042 1.463 . S
C9039 C9044 1.350 . S
C9039 N9047 1.427 . S
C9040 H9031 0.930 . S
C9040 C9038 1.378 . S
C9040 C9041 1.367 . S
C9041 C9040 1.367 . S
C9041 C9043 1.433 . S
C9042 C9038 1.350 . S
C9042 C9039 1.463 . S
C9042 N9046 1.427 . S
C9043 H9033 0.929 . S
C9043 C9041 1.433 . S
C9043 N9046 1.384 . S
C9044 H9035 0.929 . S
C9044 C9036 1.378 . S
C9044 C9039 1.350 . S
C9045 H9032 0.929 . S
C9045 C9037 1.433 . S
C9045 N9047 1.384 . S
N9046 C9042 1.427 . S
N9046 C9043 1.384 . S
N9047 C9039 1.427 . S
N9047 C9045 1.384 . S
H9048 C9054 0.930 . S
H9049 C9058 0.930 . S
H9050 C9063 0.929 . S
H9051 C9061 0.929 . S
H9052 C9056 0.929 . S
H9053 C9062 0.929 . S
C9054 H9048 0.930 . S
C9054 C9055 1.367 . S
C9054 C9062 1.378 . S
C9055 C9054 1.367 . S
C9055 C9063 1.433 . S
C9056 H9052 0.929 . S
C9056 C9058 1.378 . S
C9056 C9060 1.350 . S
C9057 C9060 1.463 . S
C9057 C9062 1.350 . S
C9057 N9065 1.427 . S
C9058 H9049 0.930 . S
C9058 C9056 1.378 . S
C9058 C9059 1.367 . S
C9059 C9058 1.367 . S
C9059 C9061 1.433 . S
C9060 C9056 1.350 . S
C9060 C9057 1.463 . S
C9060 N9064 1.427 . S
C9061 H9051 0.929 . S
C9061 C9059 1.433 . S
C9061 N9064 1.384 . S
C9062 H9053 0.929 . S
C9062 C9054 1.378 . S
C9062 C9057 1.350 . S
C9063 H9050 0.929 . S
C9063 C9055 1.433 . S
C9063 N9065 1.384 . S
N9064 C9060 1.427 . S
N9064 C9061 1.384 . S
N9065 C9057 1.427 . S
N9065 C9063 1.384 . S
H9066 C9072 0.930 . S
H9067 C9076 0.930 . S
H9068 C9081 0.929 . S
H9069 C9079 0.929 . S
H9070 C9074 0.929 . S
H9071 C9080 0.929 . S
C9072 H9066 0.930 . S
C9072 C9073 1.367 . S
C9072 C9080 1.378 . S
C9073 C9072 1.367 . S
C9073 C9081 1.433 . S
C9074 H9070 0.929 . S
C9074 C9076 1.378 . S
C9074 C9078 1.350 . S
C9075 C9078 1.463 . S
C9075 C9080 1.350 . S
C9075 N9083 1.427 . S
C9076 H9067 0.930 . S
C9076 C9074 1.378 . S
C9076 C9077 1.367 . S
C9077 C9076 1.367 . S
C9077 C9079 1.433 . S
C9078 C9074 1.350 . S
C9078 C9075 1.463 . S
C9078 N9082 1.427 . S
C9079 H9069 0.929 . S
C9079 C9077 1.433 . S
C9079 N9082 1.384 . S
C9080 H9071 0.929 . S
C9080 C9072 1.378 . S
C9080 C9075 1.350 . S
C9081 H9068 0.929 . S
C9081 C9073 1.433 . S
C9081 N9083 1.384 . S
N9082 C9078 1.427 . S
N9082 C9079 1.384 . S
N9083 C9075 1.427 . S
N9083 C9081 1.384 . S
H9084 C9090 0.930 . S
H9085 C9094 0.930 . S
H9086 C9099 0.929 . S
H9087 C9097 0.929 . S
H9088 C9092 0.929 . S
H9089 C9098 0.929 . S
C9090 H9084 0.930 . S
C9090 C9091 1.367 . S
C9090 C9098 1.378 . S
C9091 C9090 1.367 . S
C9091 C9099 1.433 . S
C9092 H9088 0.929 . S
C9092 C9094 1.378 . S
C9092 C9096 1.350 . S
C9093 C9096 1.463 . S
C9093 C9098 1.350 . S
C9093 N9101 1.427 . S
C9094 H9085 0.930 . S
C9094 C9092 1.378 . S
C9094 C9095 1.367 . S
C9095 C9094 1.367 . S
C9095 C9097 1.433 . S
C9096 C9092 1.350 . S
C9096 C9093 1.463 . S
C9096 N9100 1.427 . S
C9097 H9087 0.929 . S
C9097 C9095 1.433 . S
C9097 N9100 1.384 . S
C9098 H9089 0.929 . S
C9098 C9090 1.378 . S
C9098 C9093 1.350 . S
C9099 H9086 0.929 . S
C9099 C9091 1.433 . S
C9099 N9101 1.384 . S
N9100 C9096 1.427 . S
N9100 C9097 1.384 . S
N9101 C9093 1.427 . S
N9101 C9099 1.384 . S
H9102 C9108 0.930 . S
H9103 C9112 0.930 . S
H9104 C9117 0.929 . S
H9105 C9115 0.929 . S
H9106 C9110 0.929 . S
H9107 C9116 0.929 . S
C9108 H9102 0.930 . S
C9108 C9109 1.367 . S
C9108 C9116 1.378 . S
C9109 C9108 1.367 . S
C9109 C9117 1.433 . S
C9110 H9106 0.929 . S
C9110 C9112 1.378 . S
C9110 C9114 1.350 . S
C9111 C9114 1.463 . S
C9111 C9116 1.350 . S
C9111 N9119 1.427 . S
C9112 H9103 0.930 . S
C9112 C9110 1.378 . S
C9112 C9113 1.367 . S
C9113 C9112 1.367 . S
C9113 C9115 1.433 . S
C9114 C9110 1.350 . S
C9114 C9111 1.463 . S
C9114 N9118 1.427 . S
C9115 H9105 0.929 . S
C9115 C9113 1.433 . S
C9115 N9118 1.384 . S
C9116 H9107 0.929 . S
C9116 C9108 1.378 . S
C9116 C9111 1.350 . S
C9117 H9104 0.929 . S
C9117 C9109 1.433 . S
C9117 N9119 1.384 . S
N9118 C9114 1.427 . S
N9118 C9115 1.384 . S
N9119 C9111 1.427 . S
N9119 C9117 1.384 . S
H9120 C9126 0.930 . S
H9121 C9130 0.930 . S
H9122 C9135 0.929 . S
H9123 C9133 0.929 . S
H9124 C9128 0.929 . S
H9125 C9134 0.929 . S
C9126 H9120 0.930 . S
C9126 C9127 1.367 . S
C9126 C9134 1.378 . S
C9127 C9126 1.367 . S
C9127 C9135 1.433 . S
C9128 H9124 0.929 . S
C9128 C9130 1.378 . S
C9128 C9132 1.350 . S
C9129 C9132 1.463 . S
C9129 C9134 1.350 . S
C9129 N9137 1.427 . S
C9130 H9121 0.930 . S
C9130 C9128 1.378 . S
C9130 C9131 1.367 . S
C9131 C9130 1.367 . S
C9131 C9133 1.433 . S
C9132 C9128 1.350 . S
C9132 C9129 1.463 . S
C9132 N9136 1.427 . S
C9133 H9123 0.929 . S
C9133 C9131 1.433 . S
C9133 N9136 1.384 . S
C9134 H9125 0.929 . S
C9134 C9126 1.378 . S
C9134 C9129 1.350 . S
C9135 H9122 0.929 . S
C9135 C9127 1.433 . S
C9135 N9137 1.384 . S
N9136 C9132 1.427 . S
N9136 C9133 1.384 . S
N9137 C9129 1.427 . S
N9137 C9135 1.384 . S
H9138 C9144 0.930 . S
H9139 C9148 0.930 . S
H9140 C9153 0.929 . S
H9141 C9151 0.929 . S
H9142 C9146 0.929 . S
H9143 C9152 0.929 . S
C9144 H9138 0.930 . S
C9144 C9145 1.367 . S
C9144 C9152 1.378 . S
C9145 C9144 1.367 . S
C9145 C9153 1.433 . S
C9146 H9142 0.929 . S
C9146 C9148 1.378 . S
C9146 C9150 1.350 . S
C9147 C9150 1.463 . S
C9147 C9152 1.350 . S
C9147 N9155 1.427 . S
C9148 H9139 0.930 . S
C9148 C9146 1.378 . S
C9148 C9149 1.367 . S
C9149 C9148 1.367 . S
C9149 C9151 1.433 . S
C9150 C9146 1.350 . S
C9150 C9147 1.463 . S
C9150 N9154 1.427 . S
C9151 H9141 0.929 . S
C9151 C9149 1.433 . S
C9151 N9154 1.384 . S
C9152 H9143 0.929 . S
C9152 C9144 1.378 . S
C9152 C9147 1.350 . S
C9153 H9140 0.929 . S
C9153 C9145 1.433 . S
C9153 N9155 1.384 . S
N9154 C9150 1.427 . S
N9154 C9151 1.384 . S
N9155 C9147 1.427 . S
N9155 C9153 1.384 . S
H9156 C9162 0.930 . S
H9157 C9166 0.930 . S
H9158 C9171 0.929 . S
H9159 C9169 0.929 . S
H9160 C9164 0.929 . S
H9161 C9170 0.929 . S
C9162 H9156 0.930 . S
C9162 C9163 1.367 . S
C9162 C9170 1.378 . S
C9163 C9162 1.367 . S
C9163 C9171 1.433 . S
C9164 H9160 0.929 . S
C9164 C9166 1.378 . S
C9164 C9168 1.350 . S
C9165 C9168 1.463 . S
C9165 C9170 1.350 . S
C9165 N9173 1.427 . S
C9166 H9157 0.930 . S
C9166 C9164 1.378 . S
C9166 C9167 1.367 . S
C9167 C9166 1.367 . S
C9167 C9169 1.433 . S
C9168 C9164 1.350 . S
C9168 C9165 1.463 . S
C9168 N9172 1.427 . S
C9169 H9159 0.929 . S
C9169 C9167 1.433 . S
C9169 N9172 1.384 . S
C9170 H9161 0.929 . S
C9170 C9162 1.378 . S
C9170 C9165 1.350 . S
C9171 H9158 0.929 . S
C9171 C9163 1.433 . S
C9171 N9173 1.384 . S
N9172 C9168 1.427 . S
N9172 C9169 1.384 . S
N9173 C9165 1.427 . S
N9173 C9171 1.384 . S
H9174 C9180 0.930 . S
H9175 C9184 0.930 . S
H9176 C9189 0.929 . S
H9177 C9187 0.929 . S
H9178 C9182 0.929 . S
H9179 C9188 0.929 . S
C9180 H9174 0.930 . S
C9180 C9181 1.367 . S
C9180 C9188 1.378 . S
C9181 C9180 1.367 . S
C9181 C9189 1.433 . S
C9182 H9178 0.929 . S
C9182 C9184 1.378 . S
C9182 C9186 1.350 . S
C9183 C9186 1.463 . S
C9183 C9188 1.350 . S
C9183 N9191 1.427 . S
C9184 H9175 0.930 . S
C9184 C9182 1.378 . S
C9184 C9185 1.367 . S
C9185 C9184 1.367 . S
C9185 C9187 1.433 . S
C9186 C9182 1.350 . S
C9186 C9183 1.463 . S
C9186 N9190 1.427 . S
C9187 H9177 0.929 . S
C9187 C9185 1.433 . S
C9187 N9190 1.384 . S
C9188 H9179 0.929 . S
C9188 C9180 1.378 . S
C9188 C9183 1.350 . S
C9189 H9176 0.929 . S
C9189 C9181 1.433 . S
C9189 N9191 1.384 . S
N9190 C9186 1.427 . S
N9190 C9187 1.384 . S
N9191 C9183 1.427 . S
N9191 C9189 1.384 . S
H9192 C9198 0.930 . S
H9193 C9202 0.930 . S
H9194 C9207 0.929 . S
H9195 C9205 0.929 . S
H9196 C9200 0.929 . S
H9197 C9206 0.929 . S
C9198 H9192 0.930 . S
C9198 C9199 1.367 . S
C9198 C9206 1.378 . S
C9199 C9198 1.367 . S
C9199 C9207 1.433 . S
C9200 H9196 0.929 . S
C9200 C9202 1.378 . S
C9200 C9204 1.350 . S
C9201 C9204 1.463 . S
C9201 C9206 1.350 . S
C9201 N9209 1.427 . S
C9202 H9193 0.930 . S
C9202 C9200 1.378 . S
C9202 C9203 1.367 . S
C9203 C9202 1.367 . S
C9203 C9205 1.433 . S
C9204 C9200 1.350 . S
C9204 C9201 1.463 . S
C9204 N9208 1.427 . S
C9205 H9195 0.929 . S
C9205 C9203 1.433 . S
C9205 N9208 1.384 . S
C9206 H9197 0.929 . S
C9206 C9198 1.378 . S
C9206 C9201 1.350 . S
C9207 H9194 0.929 . S
C9207 C9199 1.433 . S
C9207 N9209 1.384 . S
N9208 C9204 1.427 . S
N9208 C9205 1.384 . S
N9209 C9201 1.427 . S
N9209 C9207 1.384 . S
H9210 C9216 0.930 . S
H9211 C9220 0.930 . S
H9212 C9225 0.929 . S
H9213 C9223 0.929 . S
H9214 C9218 0.929 . S
H9215 C9224 0.929 . S
C9216 H9210 0.930 . S
C9216 C9217 1.367 . S
C9216 C9224 1.378 . S
C9217 C9216 1.367 . S
C9217 C9225 1.433 . S
C9218 H9214 0.929 . S
C9218 C9220 1.378 . S
C9218 C9222 1.350 . S
C9219 C9222 1.463 . S
C9219 C9224 1.350 . S
C9219 N9227 1.427 . S
C9220 H9211 0.930 . S
C9220 C9218 1.378 . S
C9220 C9221 1.367 . S
C9221 C9220 1.367 . S
C9221 C9223 1.433 . S
C9222 C9218 1.350 . S
C9222 C9219 1.463 . S
C9222 N9226 1.427 . S
C9223 H9213 0.929 . S
C9223 C9221 1.433 . S
C9223 N9226 1.384 . S
C9224 H9215 0.929 . S
C9224 C9216 1.378 . S
C9224 C9219 1.350 . S
C9225 H9212 0.929 . S
C9225 C9217 1.433 . S
C9225 N9227 1.384 . S
N9226 C9222 1.427 . S
N9226 C9223 1.384 . S
N9227 C9219 1.427 . S
N9227 C9225 1.384 . S
H9228 C9234 0.930 . S
H9229 C9238 0.930 . S
H9230 C9243 0.929 . S
H9231 C9241 0.929 . S
H9232 C9236 0.929 . S
H9233 C9242 0.929 . S
C9234 H9228 0.930 . S
C9234 C9235 1.367 . S
C9234 C9242 1.378 . S
C9235 C9234 1.367 . S
C9235 C9243 1.433 . S
C9236 H9232 0.929 . S
C9236 C9238 1.378 . S
C9236 C9240 1.350 . S
C9237 C9240 1.463 . S
C9237 C9242 1.350 . S
C9237 N9245 1.427 . S
C9238 H9229 0.930 . S
C9238 C9236 1.378 . S
C9238 C9239 1.367 . S
C9239 C9238 1.367 . S
C9239 C9241 1.433 . S
C9240 C9236 1.350 . S
C9240 C9237 1.463 . S
C9240 N9244 1.427 . S
C9241 H9231 0.929 . S
C9241 C9239 1.433 . S
C9241 N9244 1.384 . S
C9242 H9233 0.929 . S
C9242 C9234 1.378 . S
C9242 C9237 1.350 . S
C9243 H9230 0.929 . S
C9243 C9235 1.433 . S
C9243 N9245 1.384 . S
N9244 C9240 1.427 . S
N9244 C9241 1.384 . S
N9245 C9237 1.427 . S
N9245 C9243 1.384 . S
H9246 C9252 0.930 . S
H9247 C9256 0.930 . S
H9248 C9261 0.929 . S
H9249 C9259 0.929 . S
H9250 C9254 0.929 . S
H9251 C9260 0.929 . S
C9252 H9246 0.930 . S
C9252 C9253 1.367 . S
C9252 C9260 1.378 . S
C9253 C9252 1.367 . S
C9253 C9261 1.433 . S
C9254 H9250 0.929 . S
C9254 C9256 1.378 . S
C9254 C9258 1.350 . S
C9255 C9258 1.463 . S
C9255 C9260 1.350 . S
C9255 N9263 1.427 . S
C9256 H9247 0.930 . S
C9256 C9254 1.378 . S
C9256 C9257 1.367 . S
C9257 C9256 1.367 . S
C9257 C9259 1.433 . S
C9258 C9254 1.350 . S
C9258 C9255 1.463 . S
C9258 N9262 1.427 . S
C9259 H9249 0.929 . S
C9259 C9257 1.433 . S
C9259 N9262 1.384 . S
C9260 H9251 0.929 . S
C9260 C9252 1.378 . S
C9260 C9255 1.350 . S
C9261 H9248 0.929 . S
C9261 C9253 1.433 . S
C9261 N9263 1.384 . S
N9262 C9258 1.427 . S
N9262 C9259 1.384 . S
N9263 C9255 1.427 . S
N9263 C9261 1.384 . S
H9264 C9270 0.930 . S
H9265 C9274 0.930 . S
H9266 C9279 0.929 . S
H9267 C9277 0.929 . S
H9268 C9272 0.929 . S
H9269 C9278 0.929 . S
C9270 H9264 0.930 . S
C9270 C9271 1.367 . S
C9270 C9278 1.378 . S
C9271 C9270 1.367 . S
C9271 C9279 1.433 . S
C9272 H9268 0.929 . S
C9272 C9274 1.378 . S
C9272 C9276 1.350 . S
C9273 C9276 1.463 . S
C9273 C9278 1.350 . S
C9273 N9281 1.427 . S
C9274 H9265 0.930 . S
C9274 C9272 1.378 . S
C9274 C9275 1.367 . S
C9275 C9274 1.367 . S
C9275 C9277 1.433 . S
C9276 C9272 1.350 . S
C9276 C9273 1.463 . S
C9276 N9280 1.427 . S
C9277 H9267 0.929 . S
C9277 C9275 1.433 . S
C9277 N9280 1.384 . S
C9278 H9269 0.929 . S
C9278 C9270 1.378 . S
C9278 C9273 1.350 . S
C9279 H9266 0.929 . S
C9279 C9271 1.433 . S
C9279 N9281 1.384 . S
N9280 C9276 1.427 . S
N9280 C9277 1.384 . S
N9281 C9273 1.427 . S
N9281 C9279 1.384 . S
H9282 C9288 0.930 . S
H9283 C9292 0.930 . S
H9284 C9297 0.929 . S
H9285 C9295 0.929 . S
H9286 C9290 0.929 . S
H9287 C9296 0.929 . S
C9288 H9282 0.930 . S
C9288 C9289 1.367 . S
C9288 C9296 1.378 . S
C9289 C9288 1.367 . S
C9289 C9297 1.433 . S
C9290 H9286 0.929 . S
C9290 C9292 1.378 . S
C9290 C9294 1.350 . S
C9291 C9294 1.463 . S
C9291 C9296 1.350 . S
C9291 N9299 1.427 . S
C9292 H9283 0.930 . S
C9292 C9290 1.378 . S
C9292 C9293 1.367 . S
C9293 C9292 1.367 . S
C9293 C9295 1.433 . S
C9294 C9290 1.350 . S
C9294 C9291 1.463 . S
C9294 N9298 1.427 . S
C9295 H9285 0.929 . S
C9295 C9293 1.433 . S
C9295 N9298 1.384 . S
C9296 H9287 0.929 . S
C9296 C9288 1.378 . S
C9296 C9291 1.350 . S
C9297 H9284 0.929 . S
C9297 C9289 1.433 . S
C9297 N9299 1.384 . S
N9298 C9294 1.427 . S
N9298 C9295 1.384 . S
N9299 C9291 1.427 . S
N9299 C9297 1.384 . S
H9300 C9306 0.930 . S
H9301 C9310 0.930 . S
H9302 C9315 0.929 . S
H9303 C9313 0.929 . S
H9304 C9308 0.929 . S
H9305 C9314 0.929 . S
C9306 H9300 0.930 . S
C9306 C9307 1.367 . S
C9306 C9314 1.378 . S
C9307 C9306 1.367 . S
C9307 C9315 1.433 . S
C9308 H9304 0.929 . S
C9308 C9310 1.378 . S
C9308 C9312 1.350 . S
C9309 C9312 1.463 . S
C9309 C9314 1.350 . S
C9309 N9317 1.427 . S
C9310 H9301 0.930 . S
C9310 C9308 1.378 . S
C9310 C9311 1.367 . S
C9311 C9310 1.367 . S
C9311 C9313 1.433 . S
C9312 C9308 1.350 . S
C9312 C9309 1.463 . S
C9312 N9316 1.427 . S
C9313 H9303 0.929 . S
C9313 C9311 1.433 . S
C9313 N9316 1.384 . S
C9314 H9305 0.929 . S
C9314 C9306 1.378 . S
C9314 C9309 1.350 . S
C9315 H9302 0.929 . S
C9315 C9307 1.433 . S
C9315 N9317 1.384 . S
N9316 C9312 1.427 . S
N9316 C9313 1.384 . S
N9317 C9309 1.427 . S
N9317 C9315 1.384 . S
H9318 C9324 0.930 . S
H9319 C9328 0.930 . S
H9320 C9333 0.929 . S
H9321 C9331 0.929 . S
H9322 C9326 0.929 . S
H9323 C9332 0.929 . S
C9324 H9318 0.930 . S
C9324 C9325 1.367 . S
C9324 C9332 1.378 . S
C9325 C9324 1.367 . S
C9325 C9333 1.433 . S
C9326 H9322 0.929 . S
C9326 C9328 1.378 . S
C9326 C9330 1.350 . S
C9327 C9330 1.463 . S
C9327 C9332 1.350 . S
C9327 N9335 1.427 . S
C9328 H9319 0.930 . S
C9328 C9326 1.378 . S
C9328 C9329 1.367 . S
C9329 C9328 1.367 . S
C9329 C9331 1.433 . S
C9330 C9326 1.350 . S
C9330 C9327 1.463 . S
C9330 N9334 1.427 . S
C9331 H9321 0.929 . S
C9331 C9329 1.433 . S
C9331 N9334 1.384 . S
C9332 H9323 0.929 . S
C9332 C9324 1.378 . S
C9332 C9327 1.350 . S
C9333 H9320 0.929 . S
C9333 C9325 1.433 . S
C9333 N9335 1.384 . S
N9334 C9330 1.427 . S
N9334 C9331 1.384 . S
N9335 C9327 1.427 . S
N9335 C9333 1.384 . S
H9336 C9342 0.930 . S
H9337 C9346 0.930 . S
H9338 C9351 0.929 . S
H9339 C9349 0.929 . S
H9340 C9344 0.929 . S
H9341 C9350 0.929 . S
C9342 H9336 0.930 . S
C9342 C9343 1.367 . S
C9342 C9350 1.378 . S
C9343 C9342 1.367 . S
C9343 C9351 1.433 . S
C9344 H9340 0.929 . S
C9344 C9346 1.378 . S
C9344 C9348 1.350 . S
C9345 C9348 1.463 . S
C9345 C9350 1.350 . S
C9345 N9353 1.427 . S
C9346 H9337 0.930 . S
C9346 C9344 1.378 . S
C9346 C9347 1.367 . S
C9347 C9346 1.367 . S
C9347 C9349 1.433 . S
C9348 C9344 1.350 . S
C9348 C9345 1.463 . S
C9348 N9352 1.427 . S
C9349 H9339 0.929 . S
C9349 C9347 1.433 . S
C9349 N9352 1.384 . S
C9350 H9341 0.929 . S
C9350 C9342 1.378 . S
C9350 C9345 1.350 . S
C9351 H9338 0.929 . S
C9351 C9343 1.433 . S
C9351 N9353 1.384 . S
N9352 C9348 1.427 . S
N9352 C9349 1.384 . S
N9353 C9345 1.427 . S
N9353 C9351 1.384 . S
H9354 C9360 0.930 . S
H9355 C9364 0.930 . S
H9356 C9369 0.929 . S
H9357 C9367 0.929 . S
H9358 C9362 0.929 . S
H9359 C9368 0.929 . S
C9360 H9354 0.930 . S
C9360 C9361 1.367 . S
C9360 C9368 1.378 . S
C9361 C9360 1.367 . S
C9361 C9369 1.433 . S
C9362 H9358 0.929 . S
C9362 C9364 1.378 . S
C9362 C9366 1.350 . S
C9363 C9366 1.463 . S
C9363 C9368 1.350 . S
C9363 N9371 1.427 . S
C9364 H9355 0.930 . S
C9364 C9362 1.378 . S
C9364 C9365 1.367 . S
C9365 C9364 1.367 . S
C9365 C9367 1.433 . S
C9366 C9362 1.350 . S
C9366 C9363 1.463 . S
C9366 N9370 1.427 . S
C9367 H9357 0.929 . S
C9367 C9365 1.433 . S
C9367 N9370 1.384 . S
C9368 H9359 0.929 . S
C9368 C9360 1.378 . S
C9368 C9363 1.350 . S
C9369 H9356 0.929 . S
C9369 C9361 1.433 . S
C9369 N9371 1.384 . S
N9370 C9366 1.427 . S
N9370 C9367 1.384 . S
N9371 C9363 1.427 . S
N9371 C9369 1.384 . S
H9372 C9378 0.930 . S
H9373 C9382 0.930 . S
H9374 C9387 0.929 . S
H9375 C9385 0.929 . S
H9376 C9380 0.929 . S
H9377 C9386 0.929 . S
C9378 H9372 0.930 . S
C9378 C9379 1.367 . S
C9378 C9386 1.378 . S
C9379 C9378 1.367 . S
C9379 C9387 1.433 . S
C9380 H9376 0.929 . S
C9380 C9382 1.378 . S
C9380 C9384 1.350 . S
C9381 C9384 1.463 . S
C9381 C9386 1.350 . S
C9381 N9389 1.427 . S
C9382 H9373 0.930 . S
C9382 C9380 1.378 . S
C9382 C9383 1.367 . S
C9383 C9382 1.367 . S
C9383 C9385 1.433 . S
C9384 C9380 1.350 . S
C9384 C9381 1.463 . S
C9384 N9388 1.427 . S
C9385 H9375 0.929 . S
C9385 C9383 1.433 . S
C9385 N9388 1.384 . S
C9386 H9377 0.929 . S
C9386 C9378 1.378 . S
C9386 C9381 1.350 . S
C9387 H9374 0.929 . S
C9387 C9379 1.433 . S
C9387 N9389 1.384 . S
N9388 C9384 1.427 . S
N9388 C9385 1.384 . S
N9389 C9381 1.427 . S
N9389 C9387 1.384 . S
H9390 C9396 0.930 . S
H9391 C9400 0.930 . S
H9392 C9405 0.929 . S
H9393 C9403 0.929 . S
H9394 C9398 0.929 . S
H9395 C9404 0.929 . S
C9396 H9390 0.930 . S
C9396 C9397 1.367 . S
C9396 C9404 1.378 . S
C9397 C9396 1.367 . S
C9397 C9405 1.433 . S
C9398 H9394 0.929 . S
C9398 C9400 1.378 . S
C9398 C9402 1.350 . S
C9399 C9402 1.463 . S
C9399 C9404 1.350 . S
C9399 N9407 1.427 . S
C9400 H9391 0.930 . S
C9400 C9398 1.378 . S
C9400 C9401 1.367 . S
C9401 C9400 1.367 . S
C9401 C9403 1.433 . S
C9402 C9398 1.350 . S
C9402 C9399 1.463 . S
C9402 N9406 1.427 . S
C9403 H9393 0.929 . S
C9403 C9401 1.433 . S
C9403 N9406 1.384 . S
C9404 H9395 0.929 . S
C9404 C9396 1.378 . S
C9404 C9399 1.350 . S
C9405 H9392 0.929 . S
C9405 C9397 1.433 . S
C9405 N9407 1.384 . S
N9406 C9402 1.427 . S
N9406 C9403 1.384 . S
N9407 C9399 1.427 . S
N9407 C9405 1.384 . S
H9408 C9414 0.930 . S
H9409 C9418 0.930 . S
H9410 C9423 0.929 . S
H9411 C9421 0.929 . S
H9412 C9416 0.929 . S
H9413 C9422 0.929 . S
C9414 H9408 0.930 . S
C9414 C9415 1.367 . S
C9414 C9422 1.378 . S
C9415 C9414 1.367 . S
C9415 C9423 1.433 . S
C9416 H9412 0.929 . S
C9416 C9418 1.378 . S
C9416 C9420 1.350 . S
C9417 C9420 1.463 . S
C9417 C9422 1.350 . S
C9417 N9425 1.427 . S
C9418 H9409 0.930 . S
C9418 C9416 1.378 . S
C9418 C9419 1.367 . S
C9419 C9418 1.367 . S
C9419 C9421 1.433 . S
C9420 C9416 1.350 . S
C9420 C9417 1.463 . S
C9420 N9424 1.427 . S
C9421 H9411 0.929 . S
C9421 C9419 1.433 . S
C9421 N9424 1.384 . S
C9422 H9413 0.929 . S
C9422 C9414 1.378 . S
C9422 C9417 1.350 . S
C9423 H9410 0.929 . S
C9423 C9415 1.433 . S
C9423 N9425 1.384 . S
N9424 C9420 1.427 . S
N9424 C9421 1.384 . S
N9425 C9417 1.427 . S
N9425 C9423 1.384 . S
H9426 C9432 0.930 . S
H9427 C9436 0.930 . S
H9428 C9441 0.929 . S
H9429 C9439 0.929 . S
H9430 C9434 0.929 . S
H9431 C9440 0.929 . S
C9432 H9426 0.930 . S
C9432 C9433 1.367 . S
C9432 C9440 1.378 . S
C9433 C9432 1.367 . S
C9433 C9441 1.433 . S
C9434 H9430 0.929 . S
C9434 C9436 1.378 . S
C9434 C9438 1.350 . S
C9435 C9438 1.463 . S
C9435 C9440 1.350 . S
C9435 N9443 1.427 . S
C9436 H9427 0.930 . S
C9436 C9434 1.378 . S
C9436 C9437 1.367 . S
C9437 C9436 1.367 . S
C9437 C9439 1.433 . S
C9438 C9434 1.350 . S
C9438 C9435 1.463 . S
C9438 N9442 1.427 . S
C9439 H9429 0.929 . S
C9439 C9437 1.433 . S
C9439 N9442 1.384 . S
C9440 H9431 0.929 . S
C9440 C9432 1.378 . S
C9440 C9435 1.350 . S
C9441 H9428 0.929 . S
C9441 C9433 1.433 . S
C9441 N9443 1.384 . S
N9442 C9438 1.427 . S
N9442 C9439 1.384 . S
N9443 C9435 1.427 . S
N9443 C9441 1.384 . S
H9444 C9450 0.930 . S
H9445 C9454 0.930 . S
H9446 C9459 0.929 . S
H9447 C9457 0.929 . S
H9448 C9452 0.929 . S
H9449 C9458 0.929 . S
C9450 H9444 0.930 . S
C9450 C9451 1.367 . S
C9450 C9458 1.378 . S
C9451 C9450 1.367 . S
C9451 C9459 1.433 . S
C9452 H9448 0.929 . S
C9452 C9454 1.378 . S
C9452 C9456 1.350 . S
C9453 C9456 1.463 . S
C9453 C9458 1.350 . S
C9453 N9461 1.427 . S
C9454 H9445 0.930 . S
C9454 C9452 1.378 . S
C9454 C9455 1.367 . S
C9455 C9454 1.367 . S
C9455 C9457 1.433 . S
C9456 C9452 1.350 . S
C9456 C9453 1.463 . S
C9456 N9460 1.427 . S
C9457 H9447 0.929 . S
C9457 C9455 1.433 . S
C9457 N9460 1.384 . S
C9458 H9449 0.929 . S
C9458 C9450 1.378 . S
C9458 C9453 1.350 . S
C9459 H9446 0.929 . S
C9459 C9451 1.433 . S
C9459 N9461 1.384 . S
N9460 C9456 1.427 . S
N9460 C9457 1.384 . S
N9461 C9453 1.427 . S
N9461 C9459 1.384 . S
H9462 C9468 0.930 . S
H9463 C9472 0.930 . S
H9464 C9477 0.929 . S
H9465 C9475 0.929 . S
H9466 C9470 0.929 . S
H9467 C9476 0.929 . S
C9468 H9462 0.930 . S
C9468 C9469 1.367 . S
C9468 C9476 1.378 . S
C9469 C9468 1.367 . S
C9469 C9477 1.433 . S
C9470 H9466 0.929 . S
C9470 C9472 1.378 . S
C9470 C9474 1.350 . S
C9471 C9474 1.463 . S
C9471 C9476 1.350 . S
C9471 N9479 1.427 . S
C9472 H9463 0.930 . S
C9472 C9470 1.378 . S
C9472 C9473 1.367 . S
C9473 C9472 1.367 . S
C9473 C9475 1.433 . S
C9474 C9470 1.350 . S
C9474 C9471 1.463 . S
C9474 N9478 1.427 . S
C9475 H9465 0.929 . S
C9475 C9473 1.433 . S
C9475 N9478 1.384 . S
C9476 H9467 0.929 . S
C9476 C9468 1.378 . S
C9476 C9471 1.350 . S
C9477 H9464 0.929 . S
C9477 C9469 1.433 . S
C9477 N9479 1.384 . S
N9478 C9474 1.427 . S
N9478 C9475 1.384 . S
N9479 C9471 1.427 . S
N9479 C9477 1.384 . S
H9480 C9486 0.930 . S
H9481 C9490 0.930 . S
H9482 C9495 0.929 . S
H9483 C9493 0.929 . S
H9484 C9488 0.929 . S
H9485 C9494 0.929 . S
C9486 H9480 0.930 . S
C9486 C9487 1.367 . S
C9486 C9494 1.378 . S
C9487 C9486 1.367 . S
C9487 C9495 1.433 . S
C9488 H9484 0.929 . S
C9488 C9490 1.378 . S
C9488 C9492 1.350 . S
C9489 C9492 1.463 . S
C9489 C9494 1.350 . S
C9489 N9497 1.427 . S
C9490 H9481 0.930 . S
C9490 C9488 1.378 . S
C9490 C9491 1.367 . S
C9491 C9490 1.367 . S
C9491 C9493 1.433 . S
C9492 C9488 1.350 . S
C9492 C9489 1.463 . S
C9492 N9496 1.427 . S
C9493 H9483 0.929 . S
C9493 C9491 1.433 . S
C9493 N9496 1.384 . S
C9494 H9485 0.929 . S
C9494 C9486 1.378 . S
C9494 C9489 1.350 . S
C9495 H9482 0.929 . S
C9495 C9487 1.433 . S
C9495 N9497 1.384 . S
N9496 C9492 1.427 . S
N9496 C9493 1.384 . S
N9497 C9489 1.427 . S
N9497 C9495 1.384 . S
H9498 C9504 0.930 . S
H9499 C9508 0.930 . S
H9500 C9513 0.929 . S
H9501 C9511 0.929 . S
H9502 C9506 0.929 . S
H9503 C9512 0.929 . S
C9504 H9498 0.930 . S
C9504 C9505 1.367 . S
C9504 C9512 1.378 . S
C9505 C9504 1.367 . S
C9505 C9513 1.433 . S
C9506 H9502 0.929 . S
C9506 C9508 1.378 . S
C9506 C9510 1.350 . S
C9507 C9510 1.463 . S
C9507 C9512 1.350 . S
C9507 N9515 1.427 . S
C9508 H9499 0.930 . S
C9508 C9506 1.378 . S
C9508 C9509 1.367 . S
C9509 C9508 1.367 . S
C9509 C9511 1.433 . S
C9510 C9506 1.350 . S
C9510 C9507 1.463 . S
C9510 N9514 1.427 . S
C9511 H9501 0.929 . S
C9511 C9509 1.433 . S
C9511 N9514 1.384 . S
C9512 H9503 0.929 . S
C9512 C9504 1.378 . S
C9512 C9507 1.350 . S
C9513 H9500 0.929 . S
C9513 C9505 1.433 . S
C9513 N9515 1.384 . S
N9514 C9510 1.427 . S
N9514 C9511 1.384 . S
N9515 C9507 1.427 . S
N9515 C9513 1.384 . S
H9516 C9522 0.930 . S
H9517 C9526 0.930 . S
H9518 C9531 0.929 . S
H9519 C9529 0.929 . S
H9520 C9524 0.929 . S
H9521 C9530 0.929 . S
C9522 H9516 0.930 . S
C9522 C9523 1.367 . S
C9522 C9530 1.378 . S
C9523 C9522 1.367 . S
C9523 C9531 1.433 . S
C9524 H9520 0.929 . S
C9524 C9526 1.378 . S
C9524 C9528 1.350 . S
C9525 C9528 1.463 . S
C9525 C9530 1.350 . S
C9525 N9533 1.427 . S
C9526 H9517 0.930 . S
C9526 C9524 1.378 . S
C9526 C9527 1.367 . S
C9527 C9526 1.367 . S
C9527 C9529 1.433 . S
C9528 C9524 1.350 . S
C9528 C9525 1.463 . S
C9528 N9532 1.427 . S
C9529 H9519 0.929 . S
C9529 C9527 1.433 . S
C9529 N9532 1.384 . S
C9530 H9521 0.929 . S
C9530 C9522 1.378 . S
C9530 C9525 1.350 . S
C9531 H9518 0.929 . S
C9531 C9523 1.433 . S
C9531 N9533 1.384 . S
N9532 C9528 1.427 . S
N9532 C9529 1.384 . S
N9533 C9525 1.427 . S
N9533 C9531 1.384 . S
H9534 C9540 0.930 . S
H9535 C9544 0.930 . S
H9536 C9549 0.929 . S
H9537 C9547 0.929 . S
H9538 C9542 0.929 . S
H9539 C9548 0.929 . S
C9540 H9534 0.930 . S
C9540 C9541 1.367 . S
C9540 C9548 1.378 . S
C9541 C9540 1.367 . S
C9541 C9549 1.433 . S
C9542 H9538 0.929 . S
C9542 C9544 1.378 . S
C9542 C9546 1.350 . S
C9543 C9546 1.463 . S
C9543 C9548 1.350 . S
C9543 N9551 1.427 . S
C9544 H9535 0.930 . S
C9544 C9542 1.378 . S
C9544 C9545 1.367 . S
C9545 C9544 1.367 . S
C9545 C9547 1.433 . S
C9546 C9542 1.350 . S
C9546 C9543 1.463 . S
C9546 N9550 1.427 . S
C9547 H9537 0.929 . S
C9547 C9545 1.433 . S
C9547 N9550 1.384 . S
C9548 H9539 0.929 . S
C9548 C9540 1.378 . S
C9548 C9543 1.350 . S
C9549 H9536 0.929 . S
C9549 C9541 1.433 . S
C9549 N9551 1.384 . S
N9550 C9546 1.427 . S
N9550 C9547 1.384 . S
N9551 C9543 1.427 . S
N9551 C9549 1.384 . S
H9552 C9558 0.930 . S
H9553 C9562 0.930 . S
H9554 C9567 0.929 . S
H9555 C9565 0.929 . S
H9556 C9560 0.929 . S
H9557 C9566 0.929 . S
C9558 H9552 0.930 . S
C9558 C9559 1.367 . S
C9558 C9566 1.378 . S
C9559 C9558 1.367 . S
C9559 C9567 1.433 . S
C9560 H9556 0.929 . S
C9560 C9562 1.378 . S
C9560 C9564 1.350 . S
C9561 C9564 1.463 . S
C9561 C9566 1.350 . S
C9561 N9569 1.427 . S
C9562 H9553 0.930 . S
C9562 C9560 1.378 . S
C9562 C9563 1.367 . S
C9563 C9562 1.367 . S
C9563 C9565 1.433 . S
C9564 C9560 1.350 . S
C9564 C9561 1.463 . S
C9564 N9568 1.427 . S
C9565 H9555 0.929 . S
C9565 C9563 1.433 . S
C9565 N9568 1.384 . S
C9566 H9557 0.929 . S
C9566 C9558 1.378 . S
C9566 C9561 1.350 . S
C9567 H9554 0.929 . S
C9567 C9559 1.433 . S
C9567 N9569 1.384 . S
N9568 C9564 1.427 . S
N9568 C9565 1.384 . S
N9569 C9561 1.427 . S
N9569 C9567 1.384 . S
H9570 C9576 0.930 . S
H9571 C9580 0.930 . S
H9572 C9585 0.929 . S
H9573 C9583 0.929 . S
H9574 C9578 0.929 . S
H9575 C9584 0.929 . S
C9576 H9570 0.930 . S
C9576 C9577 1.367 . S
C9576 C9584 1.378 . S
C9577 C9576 1.367 . S
C9577 C9585 1.433 . S
C9578 H9574 0.929 . S
C9578 C9580 1.378 . S
C9578 C9582 1.350 . S
C9579 C9582 1.463 . S
C9579 C9584 1.350 . S
C9579 N9587 1.427 . S
C9580 H9571 0.930 . S
C9580 C9578 1.378 . S
C9580 C9581 1.367 . S
C9581 C9580 1.367 . S
C9581 C9583 1.433 . S
C9582 C9578 1.350 . S
C9582 C9579 1.463 . S
C9582 N9586 1.427 . S
C9583 H9573 0.929 . S
C9583 C9581 1.433 . S
C9583 N9586 1.384 . S
C9584 H9575 0.929 . S
C9584 C9576 1.378 . S
C9584 C9579 1.350 . S
C9585 H9572 0.929 . S
C9585 C9577 1.433 . S
C9585 N9587 1.384 . S
N9586 C9582 1.427 . S
N9586 C9583 1.384 . S
N9587 C9579 1.427 . S
N9587 C9585 1.384 . S
H9588 C9594 0.930 . S
H9589 C9598 0.930 . S
H9590 C9603 0.929 . S
H9591 C9601 0.929 . S
H9592 C9596 0.929 . S
H9593 C9602 0.929 . S
C9594 H9588 0.930 . S
C9594 C9595 1.367 . S
C9594 C9602 1.378 . S
C9595 C9594 1.367 . S
C9595 C9603 1.433 . S
C9596 H9592 0.929 . S
C9596 C9598 1.378 . S
C9596 C9600 1.350 . S
C9597 C9600 1.463 . S
C9597 C9602 1.350 . S
C9597 N9605 1.427 . S
C9598 H9589 0.930 . S
C9598 C9596 1.378 . S
C9598 C9599 1.367 . S
C9599 C9598 1.367 . S
C9599 C9601 1.433 . S
C9600 C9596 1.350 . S
C9600 C9597 1.463 . S
C9600 N9604 1.427 . S
C9601 H9591 0.929 . S
C9601 C9599 1.433 . S
C9601 N9604 1.384 . S
C9602 H9593 0.929 . S
C9602 C9594 1.378 . S
C9602 C9597 1.350 . S
C9603 H9590 0.929 . S
C9603 C9595 1.433 . S
C9603 N9605 1.384 . S
N9604 C9600 1.427 . S
N9604 C9601 1.384 . S
N9605 C9597 1.427 . S
N9605 C9603 1.384 . S
H9606 C9612 0.930 . S
H9607 C9616 0.930 . S
H9608 C9621 0.929 . S
H9609 C9619 0.929 . S
H9610 C9614 0.929 . S
H9611 C9620 0.929 . S
C9612 H9606 0.930 . S
C9612 C9613 1.367 . S
C9612 C9620 1.378 . S
C9613 C9612 1.367 . S
C9613 C9621 1.433 . S
C9614 H9610 0.929 . S
C9614 C9616 1.378 . S
C9614 C9618 1.350 . S
C9615 C9618 1.463 . S
C9615 C9620 1.350 . S
C9615 N9623 1.427 . S
C9616 H9607 0.930 . S
C9616 C9614 1.378 . S
C9616 C9617 1.367 . S
C9617 C9616 1.367 . S
C9617 C9619 1.433 . S
C9618 C9614 1.350 . S
C9618 C9615 1.463 . S
C9618 N9622 1.427 . S
C9619 H9609 0.929 . S
C9619 C9617 1.433 . S
C9619 N9622 1.384 . S
C9620 H9611 0.929 . S
C9620 C9612 1.378 . S
C9620 C9615 1.350 . S
C9621 H9608 0.929 . S
C9621 C9613 1.433 . S
C9621 N9623 1.384 . S
N9622 C9618 1.427 . S
N9622 C9619 1.384 . S
N9623 C9615 1.427 . S
N9623 C9621 1.384 . S
H9624 C9630 0.930 . S
H9625 C9634 0.930 . S
H9626 C9639 0.929 . S
H9627 C9637 0.929 . S
H9628 C9632 0.929 . S
H9629 C9638 0.929 . S
C9630 H9624 0.930 . S
C9630 C9631 1.367 . S
C9630 C9638 1.378 . S
C9631 C9630 1.367 . S
C9631 C9639 1.433 . S
C9632 H9628 0.929 . S
C9632 C9634 1.378 . S
C9632 C9636 1.350 . S
C9633 C9636 1.463 . S
C9633 C9638 1.350 . S
C9633 N9641 1.427 . S
C9634 H9625 0.930 . S
C9634 C9632 1.378 . S
C9634 C9635 1.367 . S
C9635 C9634 1.367 . S
C9635 C9637 1.433 . S
C9636 C9632 1.350 . S
C9636 C9633 1.463 . S
C9636 N9640 1.427 . S
C9637 H9627 0.929 . S
C9637 C9635 1.433 . S
C9637 N9640 1.384 . S
C9638 H9629 0.929 . S
C9638 C9630 1.378 . S
C9638 C9633 1.350 . S
C9639 H9626 0.929 . S
C9639 C9631 1.433 . S
C9639 N9641 1.384 . S
N9640 C9636 1.427 . S
N9640 C9637 1.384 . S
N9641 C9633 1.427 . S
N9641 C9639 1.384 . S
H9642 C9648 0.930 . S
H9643 C9652 0.930 . S
H9644 C9657 0.929 . S
H9645 C9655 0.929 . S
H9646 C9650 0.929 . S
H9647 C9656 0.929 . S
C9648 H9642 0.930 . S
C9648 C9649 1.367 . S
C9648 C9656 1.378 . S
C9649 C9648 1.367 . S
C9649 C9657 1.433 . S
C9650 H9646 0.929 . S
C9650 C9652 1.378 . S
C9650 C9654 1.350 . S
C9651 C9654 1.463 . S
C9651 C9656 1.350 . S
C9651 N9659 1.427 . S
C9652 H9643 0.930 . S
C9652 C9650 1.378 . S
C9652 C9653 1.367 . S
C9653 C9652 1.367 . S
C9653 C9655 1.433 . S
C9654 C9650 1.350 . S
C9654 C9651 1.463 . S
C9654 N9658 1.427 . S
C9655 H9645 0.929 . S
C9655 C9653 1.433 . S
C9655 N9658 1.384 . S
C9656 H9647 0.929 . S
C9656 C9648 1.378 . S
C9656 C9651 1.350 . S
C9657 H9644 0.929 . S
C9657 C9649 1.433 . S
C9657 N9659 1.384 . S
N9658 C9654 1.427 . S
N9658 C9655 1.384 . S
N9659 C9651 1.427 . S
N9659 C9657 1.384 . S
H9660 C9666 0.930 . S
H9661 C9670 0.930 . S
H9662 C9675 0.929 . S
H9663 C9673 0.929 . S
H9664 C9668 0.929 . S
H9665 C9674 0.929 . S
C9666 H9660 0.930 . S
C9666 C9667 1.367 . S
C9666 C9674 1.378 . S
C9667 C9666 1.367 . S
C9667 C9675 1.433 . S
C9668 H9664 0.929 . S
C9668 C9670 1.378 . S
C9668 C9672 1.350 . S
C9669 C9672 1.463 . S
C9669 C9674 1.350 . S
C9669 N9677 1.427 . S
C9670 H9661 0.930 . S
C9670 C9668 1.378 . S
C9670 C9671 1.367 . S
C9671 C9670 1.367 . S
C9671 C9673 1.433 . S
C9672 C9668 1.350 . S
C9672 C9669 1.463 . S
C9672 N9676 1.427 . S
C9673 H9663 0.929 . S
C9673 C9671 1.433 . S
C9673 N9676 1.384 . S
C9674 H9665 0.929 . S
C9674 C9666 1.378 . S
C9674 C9669 1.350 . S
C9675 H9662 0.929 . S
C9675 C9667 1.433 . S
C9675 N9677 1.384 . S
N9676 C9672 1.427 . S
N9676 C9673 1.384 . S
N9677 C9669 1.427 . S
N9677 C9675 1.384 . S
H9678 C9684 0.930 . S
H9679 C9688 0.930 . S
H9680 C9693 0.929 . S
H9681 C9691 0.929 . S
H9682 C9686 0.929 . S
H9683 C9692 0.929 . S
C9684 H9678 0.930 . S
C9684 C9685 1.367 . S
C9684 C9692 1.378 . S
C9685 C9684 1.367 . S
C9685 C9693 1.433 . S
C9686 H9682 0.929 . S
C9686 C9688 1.378 . S
C9686 C9690 1.350 . S
C9687 C9690 1.463 . S
C9687 C9692 1.350 . S
C9687 N9695 1.427 . S
C9688 H9679 0.930 . S
C9688 C9686 1.378 . S
C9688 C9689 1.367 . S
C9689 C9688 1.367 . S
C9689 C9691 1.433 . S
C9690 C9686 1.350 . S
C9690 C9687 1.463 . S
C9690 N9694 1.427 . S
C9691 H9681 0.929 . S
C9691 C9689 1.433 . S
C9691 N9694 1.384 . S
C9692 H9683 0.929 . S
C9692 C9684 1.378 . S
C9692 C9687 1.350 . S
C9693 H9680 0.929 . S
C9693 C9685 1.433 . S
C9693 N9695 1.384 . S
N9694 C9690 1.427 . S
N9694 C9691 1.384 . S
N9695 C9687 1.427 . S
N9695 C9693 1.384 . S
H9696 C9702 0.930 . S
H9697 C9706 0.930 . S
H9698 C9711 0.929 . S
H9699 C9709 0.929 . S
H9700 C9704 0.929 . S
H9701 C9710 0.929 . S
C9702 H9696 0.930 . S
C9702 C9703 1.367 . S
C9702 C9710 1.378 . S
C9703 C9702 1.367 . S
C9703 C9711 1.433 . S
C9704 H9700 0.929 . S
C9704 C9706 1.378 . S
C9704 C9708 1.350 . S
C9705 C9708 1.463 . S
C9705 C9710 1.350 . S
C9705 N9713 1.427 . S
C9706 H9697 0.930 . S
C9706 C9704 1.378 . S
C9706 C9707 1.367 . S
C9707 C9706 1.367 . S
C9707 C9709 1.433 . S
C9708 C9704 1.350 . S
C9708 C9705 1.463 . S
C9708 N9712 1.427 . S
C9709 H9699 0.929 . S
C9709 C9707 1.433 . S
C9709 N9712 1.384 . S
C9710 H9701 0.929 . S
C9710 C9702 1.378 . S
C9710 C9705 1.350 . S
C9711 H9698 0.929 . S
C9711 C9703 1.433 . S
C9711 N9713 1.384 . S
N9712 C9708 1.427 . S
N9712 C9709 1.384 . S
N9713 C9705 1.427 . S
N9713 C9711 1.384 . S
H9714 C9720 0.930 . S
H9715 C9724 0.930 . S
H9716 C9729 0.929 . S
H9717 C9727 0.929 . S
H9718 C9722 0.929 . S
H9719 C9728 0.929 . S
C9720 H9714 0.930 . S
C9720 C9721 1.367 . S
C9720 C9728 1.378 . S
C9721 C9720 1.367 . S
C9721 C9729 1.433 . S
C9722 H9718 0.929 . S
C9722 C9724 1.378 . S
C9722 C9726 1.350 . S
C9723 C9726 1.463 . S
C9723 C9728 1.350 . S
C9723 N9731 1.427 . S
C9724 H9715 0.930 . S
C9724 C9722 1.378 . S
C9724 C9725 1.367 . S
C9725 C9724 1.367 . S
C9725 C9727 1.433 . S
C9726 C9722 1.350 . S
C9726 C9723 1.463 . S
C9726 N9730 1.427 . S
C9727 H9717 0.929 . S
C9727 C9725 1.433 . S
C9727 N9730 1.384 . S
C9728 H9719 0.929 . S
C9728 C9720 1.378 . S
C9728 C9723 1.350 . S
C9729 H9716 0.929 . S
C9729 C9721 1.433 . S
C9729 N9731 1.384 . S
N9730 C9726 1.427 . S
N9730 C9727 1.384 . S
N9731 C9723 1.427 . S
N9731 C9729 1.384 . S
H9732 C9738 0.930 . S
H9733 C9742 0.930 . S
H9734 C9747 0.929 . S
H9735 C9745 0.929 . S
H9736 C9740 0.929 . S
H9737 C9746 0.929 . S
C9738 H9732 0.930 . S
C9738 C9739 1.367 . S
C9738 C9746 1.378 . S
C9739 C9738 1.367 . S
C9739 C9747 1.433 . S
C9740 H9736 0.929 . S
C9740 C9742 1.378 . S
C9740 C9744 1.350 . S
C9741 C9744 1.463 . S
C9741 C9746 1.350 . S
C9741 N9749 1.427 . S
C9742 H9733 0.930 . S
C9742 C9740 1.378 . S
C9742 C9743 1.367 . S
C9743 C9742 1.367 . S
C9743 C9745 1.433 . S
C9744 C9740 1.350 . S
C9744 C9741 1.463 . S
C9744 N9748 1.427 . S
C9745 H9735 0.929 . S
C9745 C9743 1.433 . S
C9745 N9748 1.384 . S
C9746 H9737 0.929 . S
C9746 C9738 1.378 . S
C9746 C9741 1.350 . S
C9747 H9734 0.929 . S
C9747 C9739 1.433 . S
C9747 N9749 1.384 . S
N9748 C9744 1.427 . S
N9748 C9745 1.384 . S
N9749 C9741 1.427 . S
N9749 C9747 1.384 . S
H9750 C9756 0.930 . S
H9751 C9760 0.930 . S
H9752 C9765 0.929 . S
H9753 C9763 0.929 . S
H9754 C9758 0.929 . S
H9755 C9764 0.929 . S
C9756 H9750 0.930 . S
C9756 C9757 1.367 . S
C9756 C9764 1.378 . S
C9757 C9756 1.367 . S
C9757 C9765 1.433 . S
C9758 H9754 0.929 . S
C9758 C9760 1.378 . S
C9758 C9762 1.350 . S
C9759 C9762 1.463 . S
C9759 C9764 1.350 . S
C9759 N9767 1.427 . S
C9760 H9751 0.930 . S
C9760 C9758 1.378 . S
C9760 C9761 1.367 . S
C9761 C9760 1.367 . S
C9761 C9763 1.433 . S
C9762 C9758 1.350 . S
C9762 C9759 1.463 . S
C9762 N9766 1.427 . S
C9763 H9753 0.929 . S
C9763 C9761 1.433 . S
C9763 N9766 1.384 . S
C9764 H9755 0.929 . S
C9764 C9756 1.378 . S
C9764 C9759 1.350 . S
C9765 H9752 0.929 . S
C9765 C9757 1.433 . S
C9765 N9767 1.384 . S
N9766 C9762 1.427 . S
N9766 C9763 1.384 . S
N9767 C9759 1.427 . S
N9767 C9765 1.384 . S
H9768 C9774 0.930 . S
H9769 C9778 0.930 . S
H9770 C9783 0.929 . S
H9771 C9781 0.929 . S
H9772 C9776 0.929 . S
H9773 C9782 0.929 . S
C9774 H9768 0.930 . S
C9774 C9775 1.367 . S
C9774 C9782 1.378 . S
C9775 C9774 1.367 . S
C9775 C9783 1.433 . S
C9776 H9772 0.929 . S
C9776 C9778 1.378 . S
C9776 C9780 1.350 . S
C9777 C9780 1.463 . S
C9777 C9782 1.350 . S
C9777 N9785 1.427 . S
C9778 H9769 0.930 . S
C9778 C9776 1.378 . S
C9778 C9779 1.367 . S
C9779 C9778 1.367 . S
C9779 C9781 1.433 . S
C9780 C9776 1.350 . S
C9780 C9777 1.463 . S
C9780 N9784 1.427 . S
C9781 H9771 0.929 . S
C9781 C9779 1.433 . S
C9781 N9784 1.384 . S
C9782 H9773 0.929 . S
C9782 C9774 1.378 . S
C9782 C9777 1.350 . S
C9783 H9770 0.929 . S
C9783 C9775 1.433 . S
C9783 N9785 1.384 . S
N9784 C9780 1.427 . S
N9784 C9781 1.384 . S
N9785 C9777 1.427 . S
N9785 C9783 1.384 . S
H9786 C9792 0.930 . S
H9787 C9796 0.930 . S
H9788 C9801 0.929 . S
H9789 C9799 0.929 . S
H9790 C9794 0.929 . S
H9791 C9800 0.929 . S
C9792 H9786 0.930 . S
C9792 C9793 1.367 . S
C9792 C9800 1.378 . S
C9793 C9792 1.367 . S
C9793 C9801 1.433 . S
C9794 H9790 0.929 . S
C9794 C9796 1.378 . S
C9794 C9798 1.350 . S
C9795 C9798 1.463 . S
C9795 C9800 1.350 . S
C9795 N9803 1.427 . S
C9796 H9787 0.930 . S
C9796 C9794 1.378 . S
C9796 C9797 1.367 . S
C9797 C9796 1.367 . S
C9797 C9799 1.433 . S
C9798 C9794 1.350 . S
C9798 C9795 1.463 . S
C9798 N9802 1.427 . S
C9799 H9789 0.929 . S
C9799 C9797 1.433 . S
C9799 N9802 1.384 . S
C9800 H9791 0.929 . S
C9800 C9792 1.378 . S
C9800 C9795 1.350 . S
C9801 H9788 0.929 . S
C9801 C9793 1.433 . S
C9801 N9803 1.384 . S
N9802 C9798 1.427 . S
N9802 C9799 1.384 . S
N9803 C9795 1.427 . S
N9803 C9801 1.384 . S
H9804 C9810 0.930 . S
H9805 C9814 0.930 . S
H9806 C9819 0.929 . S
H9807 C9817 0.929 . S
H9808 C9812 0.929 . S
H9809 C9818 0.929 . S
C9810 H9804 0.930 . S
C9810 C9811 1.367 . S
C9810 C9818 1.378 . S
C9811 C9810 1.367 . S
C9811 C9819 1.433 . S
C9812 H9808 0.929 . S
C9812 C9814 1.378 . S
C9812 C9816 1.350 . S
C9813 C9816 1.463 . S
C9813 C9818 1.350 . S
C9813 N9821 1.427 . S
C9814 H9805 0.930 . S
C9814 C9812 1.378 . S
C9814 C9815 1.367 . S
C9815 C9814 1.367 . S
C9815 C9817 1.433 . S
C9816 C9812 1.350 . S
C9816 C9813 1.463 . S
C9816 N9820 1.427 . S
C9817 H9807 0.929 . S
C9817 C9815 1.433 . S
C9817 N9820 1.384 . S
C9818 H9809 0.929 . S
C9818 C9810 1.378 . S
C9818 C9813 1.350 . S
C9819 H9806 0.929 . S
C9819 C9811 1.433 . S
C9819 N9821 1.384 . S
N9820 C9816 1.427 . S
N9820 C9817 1.384 . S
N9821 C9813 1.427 . S
N9821 C9819 1.384 . S
H9822 C9828 0.930 . S
H9823 C9832 0.930 . S
H9824 C9837 0.929 . S
H9825 C9835 0.929 . S
H9826 C9830 0.929 . S
H9827 C9836 0.929 . S
C9828 H9822 0.930 . S
C9828 C9829 1.367 . S
C9828 C9836 1.378 . S
C9829 C9828 1.367 . S
C9829 C9837 1.433 . S
C9830 H9826 0.929 . S
C9830 C9832 1.378 . S
C9830 C9834 1.350 . S
C9831 C9834 1.463 . S
C9831 C9836 1.350 . S
C9831 N9839 1.427 . S
C9832 H9823 0.930 . S
C9832 C9830 1.378 . S
C9832 C9833 1.367 . S
C9833 C9832 1.367 . S
C9833 C9835 1.433 . S
C9834 C9830 1.350 . S
C9834 C9831 1.463 . S
C9834 N9838 1.427 . S
C9835 H9825 0.929 . S
C9835 C9833 1.433 . S
C9835 N9838 1.384 . S
C9836 H9827 0.929 . S
C9836 C9828 1.378 . S
C9836 C9831 1.350 . S
C9837 H9824 0.929 . S
C9837 C9829 1.433 . S
C9837 N9839 1.384 . S
N9838 C9834 1.427 . S
N9838 C9835 1.384 . S
N9839 C9831 1.427 . S
N9839 C9837 1.384 . S
H9840 C9846 0.930 . S
H9841 C9850 0.930 . S
H9842 C9855 0.929 . S
H9843 C9853 0.929 . S
H9844 C9848 0.929 . S
H9845 C9854 0.929 . S
C9846 H9840 0.930 . S
C9846 C9847 1.367 . S
C9846 C9854 1.378 . S
C9847 C9846 1.367 . S
C9847 C9855 1.433 . S
C9848 H9844 0.929 . S
C9848 C9850 1.378 . S
C9848 C9852 1.350 . S
C9849 C9852 1.463 . S
C9849 C9854 1.350 . S
C9849 N9857 1.427 . S
C9850 H9841 0.930 . S
C9850 C9848 1.378 . S
C9850 C9851 1.367 . S
C9851 C9850 1.367 . S
C9851 C9853 1.433 . S
C9852 C9848 1.350 . S
C9852 C9849 1.463 . S
C9852 N9856 1.427 . S
C9853 H9843 0.929 . S
C9853 C9851 1.433 . S
C9853 N9856 1.384 . S
C9854 H9845 0.929 . S
C9854 C9846 1.378 . S
C9854 C9849 1.350 . S
C9855 H9842 0.929 . S
C9855 C9847 1.433 . S
C9855 N9857 1.384 . S
N9856 C9852 1.427 . S
N9856 C9853 1.384 . S
N9857 C9849 1.427 . S
N9857 C9855 1.384 . S
H9858 C9864 0.930 . S
H9859 C9868 0.930 . S
H9860 C9873 0.929 . S
H9861 C9871 0.929 . S
H9862 C9866 0.929 . S
H9863 C9872 0.929 . S
C9864 H9858 0.930 . S
C9864 C9865 1.367 . S
C9864 C9872 1.378 . S
C9865 C9864 1.367 . S
C9865 C9873 1.433 . S
C9866 H9862 0.929 . S
C9866 C9868 1.378 . S
C9866 C9870 1.350 . S
C9867 C9870 1.463 . S
C9867 C9872 1.350 . S
C9867 N9875 1.427 . S
C9868 H9859 0.930 . S
C9868 C9866 1.378 . S
C9868 C9869 1.367 . S
C9869 C9868 1.367 . S
C9869 C9871 1.433 . S
C9870 C9866 1.350 . S
C9870 C9867 1.463 . S
C9870 N9874 1.427 . S
C9871 H9861 0.929 . S
C9871 C9869 1.433 . S
C9871 N9874 1.384 . S
C9872 H9863 0.929 . S
C9872 C9864 1.378 . S
C9872 C9867 1.350 . S
C9873 H9860 0.929 . S
C9873 C9865 1.433 . S
C9873 N9875 1.384 . S
N9874 C9870 1.427 . S
N9874 C9871 1.384 . S
N9875 C9867 1.427 . S
N9875 C9873 1.384 . S
H9876 C9882 0.930 . S
H9877 C9886 0.930 . S
H9878 C9891 0.929 . S
H9879 C9889 0.929 . S
H9880 C9884 0.929 . S
H9881 C9890 0.929 . S
C9882 H9876 0.930 . S
C9882 C9883 1.367 . S
C9882 C9890 1.378 . S
C9883 C9882 1.367 . S
C9883 C9891 1.433 . S
C9884 H9880 0.929 . S
C9884 C9886 1.378 . S
C9884 C9888 1.350 . S
C9885 C9888 1.463 . S
C9885 C9890 1.350 . S
C9885 N9893 1.427 . S
C9886 H9877 0.930 . S
C9886 C9884 1.378 . S
C9886 C9887 1.367 . S
C9887 C9886 1.367 . S
C9887 C9889 1.433 . S
C9888 C9884 1.350 . S
C9888 C9885 1.463 . S
C9888 N9892 1.427 . S
C9889 H9879 0.929 . S
C9889 C9887 1.433 . S
C9889 N9892 1.384 . S
C9890 H9881 0.929 . S
C9890 C9882 1.378 . S
C9890 C9885 1.350 . S
C9891 H9878 0.929 . S
C9891 C9883 1.433 . S
C9891 N9893 1.384 . S
N9892 C9888 1.427 . S
N9892 C9889 1.384 . S
N9893 C9885 1.427 . S
N9893 C9891 1.384 . S
H9894 C9900 0.930 . S
H9895 C9904 0.930 . S
H9896 C9909 0.929 . S
H9897 C9907 0.929 . S
H9898 C9902 0.929 . S
H9899 C9908 0.929 . S
C9900 H9894 0.930 . S
C9900 C9901 1.367 . S
C9900 C9908 1.378 . S
C9901 C9900 1.367 . S
C9901 C9909 1.433 . S
C9902 H9898 0.929 . S
C9902 C9904 1.378 . S
C9902 C9906 1.350 . S
C9903 C9906 1.463 . S
C9903 C9908 1.350 . S
C9903 N9911 1.427 . S
C9904 H9895 0.930 . S
C9904 C9902 1.378 . S
C9904 C9905 1.367 . S
C9905 C9904 1.367 . S
C9905 C9907 1.433 . S
C9906 C9902 1.350 . S
C9906 C9903 1.463 . S
C9906 N9910 1.427 . S
C9907 H9897 0.929 . S
C9907 C9905 1.433 . S
C9907 N9910 1.384 . S
C9908 H9899 0.929 . S
C9908 C9900 1.378 . S
C9908 C9903 1.350 . S
C9909 H9896 0.929 . S
C9909 C9901 1.433 . S
C9909 N9911 1.384 . S
N9910 C9906 1.427 . S
N9910 C9907 1.384 . S
N9911 C9903 1.427 . S
N9911 C9909 1.384 . S
H9912 C9918 0.930 . S
H9913 C9922 0.930 . S
H9914 C9927 0.929 . S
H9915 C9925 0.929 . S
H9916 C9920 0.929 . S
H9917 C9926 0.929 . S
C9918 H9912 0.930 . S
C9918 C9919 1.367 . S
C9918 C9926 1.378 . S
C9919 C9918 1.367 . S
C9919 C9927 1.433 . S
C9920 H9916 0.929 . S
C9920 C9922 1.378 . S
C9920 C9924 1.350 . S
C9921 C9924 1.463 . S
C9921 C9926 1.350 . S
C9921 N9929 1.427 . S
C9922 H9913 0.930 . S
C9922 C9920 1.378 . S
C9922 C9923 1.367 . S
C9923 C9922 1.367 . S
C9923 C9925 1.433 . S
C9924 C9920 1.350 . S
C9924 C9921 1.463 . S
C9924 N9928 1.427 . S
C9925 H9915 0.929 . S
C9925 C9923 1.433 . S
C9925 N9928 1.384 . S
C9926 H9917 0.929 . S
C9926 C9918 1.378 . S
C9926 C9921 1.350 . S
C9927 H9914 0.929 . S
C9927 C9919 1.433 . S
C9927 N9929 1.384 . S
N9928 C9924 1.427 . S
N9928 C9925 1.384 . S
N9929 C9921 1.427 . S
N9929 C9927 1.384 . S
H9930 C9936 0.930 . S
H9931 C9940 0.930 . S
H9932 C9945 0.929 . S
H9933 C9943 0.929 . S
H9934 C9938 0.929 . S
H9935 C9944 0.929 . S
C9936 H9930 0.930 . S
C9936 C9937 1.367 . S
C9936 C9944 1.378 . S
C9937 C9936 1.367 . S
C9937 C9945 1.433 . S
C9938 H9934 0.929 . S
C9938 C9940 1.378 . S
C9938 C9942 1.350 . S
C9939 C9942 1.463 . S
C9939 C9944 1.350 . S
C9939 N9947 1.427 . S
C9940 H9931 0.930 . S
C9940 C9938 1.378 . S
C9940 C9941 1.367 . S
C9941 C9940 1.367 . S
C9941 C9943 1.433 . S
C9942 C9938 1.350 . S
C9942 C9939 1.463 . S
C9942 N9946 1.427 . S
C9943 H9933 0.929 . S
C9943 C9941 1.433 . S
C9943 N9946 1.384 . S
C9944 H9935 0.929 . S
C9944 C9936 1.378 . S
C9944 C9939 1.350 . S
C9945 H9932 0.929 . S
C9945 C9937 1.433 . S
C9945 N9947 1.384 . S
N9946 C9942 1.427 . S
N9946 C9943 1.384 . S
N9947 C9939 1.427 . S
N9947 C9945 1.384 . S
H9948 C9954 0.930 . S
H9949 C9958 0.930 . S
H9950 C9963 0.929 . S
H9951 C9961 0.929 . S
H9952 C9956 0.929 . S
H9953 C9962 0.929 . S
C9954 H9948 0.930 . S
C9954 C9955 1.367 . S
C9954 C9962 1.378 . S
C9955 C9954 1.367 . S
C9955 C9963 1.433 . S
C9956 H9952 0.929 . S
C9956 C9958 1.378 . S
C9956 C9960 1.350 . S
C9957 C9960 1.463 . S
C9957 C9962 1.350 . S
C9957 N9965 1.427 . S
C9958 H9949 0.930 . S
C9958 C9956 1.378 . S
C9958 C9959 1.367 . S
C9959 C9958 1.367 . S
C9959 C9961 1.433 . S
C9960 C9956 1.350 . S
C9960 C9957 1.463 . S
C9960 N9964 1.427 . S
C9961 H9951 0.929 . S
C9961 C9959 1.433 . S
C9961 N9964 1.384 . S
C9962 H9953 0.929 . S
C9962 C9954 1.378 . S
C9962 C9957 1.350 . S
C9963 H9950 0.929 . S
C9963 C9955 1.433 . S
C9963 N9965 1.384 . S
N9964 C9960 1.427 . S
N9964 C9961 1.384 . S
N9965 C9957 1.427 . S
N9965 C9963 1.384 . S
H9966 C9972 0.930 . S
H9967 C9976 0.930 . S
H9968 C9981 0.929 . S
H9969 C9979 0.929 . S
H9970 C9974 0.929 . S
H9971 C9980 0.929 . S
C9972 H9966 0.930 . S
C9972 C9973 1.367 . S
C9972 C9980 1.378 . S
C9973 C9972 1.367 . S
C9973 C9981 1.433 . S
C9974 H9970 0.929 . S
C9974 C9976 1.378 . S
C9974 C9978 1.350 . S
C9975 C9978 1.463 . S
C9975 C9980 1.350 . S
C9975 N9983 1.427 . S
C9976 H9967 0.930 . S
C9976 C9974 1.378 . S
C9976 C9977 1.367 . S
C9977 C9976 1.367 . S
C9977 C9979 1.433 . S
C9978 C9974 1.350 . S
C9978 C9975 1.463 . S
C9978 N9982 1.427 . S
C9979 H9969 0.929 . S
C9979 C9977 1.433 . S
C9979 N9982 1.384 . S
C9980 H9971 0.929 . S
C9980 C9972 1.378 . S
C9980 C9975 1.350 . S
C9981 H9968 0.929 . S
C9981 C9973 1.433 . S
C9981 N9983 1.384 . S
N9982 C9978 1.427 . S
N9982 C9979 1.384 . S
N9983 C9975 1.427 . S
N9983 C9981 1.384 . S
H9984 C9990 0.930 . S
H9985 C9994 0.930 . S
H9986 C9999 0.929 . S
H9987 C9997 0.929 . S
H9988 C9992 0.929 . S
H9989 C9998 0.929 . S
C9990 H9984 0.930 . S
C9990 C9991 1.367 . S
C9990 C9998 1.378 . S
C9991 C9990 1.367 . S
C9991 C9999 1.433 . S
C9992 H9988 0.929 . S
C9992 C9994 1.378 . S
C9992 C9996 1.350 . S
C9993 C9996 1.463 . S
C9993 C9998 1.350 . S
C9993 N10001 1.427 . S
C9994 H9985 0.930 . S
C9994 C9992 1.378 . S
C9994 C9995 1.367 . S
C9995 C9994 1.367 . S
C9995 C9997 1.433 . S
C9996 C9992 1.350 . S
C9996 C9993 1.463 . S
C9996 N10000 1.427 . S
C9997 H9987 0.929 . S
C9997 C9995 1.433 . S
C9997 N10000 1.384 . S
C9998 H9989 0.929 . S
C9998 C9990 1.378 . S
C9998 C9993 1.350 . S
C9999 H9986 0.929 . S
C9999 C9991 1.433 . S
C9999 N10001 1.384 . S
N10000 C9996 1.427 . S
N10000 C9997 1.384 . S
N10001 C9993 1.427 . S
N10001 C9999 1.384 . S
H10002 C10008 0.930 . S
H10003 C10012 0.930 . S
H10004 C10017 0.929 . S
H10005 C10015 0.929 . S
H10006 C10010 0.929 . S
H10007 C10016 0.929 . S
C10008 H10002 0.930 . S
C10008 C10009 1.367 . S
C10008 C10016 1.378 . S
C10009 C10008 1.367 . S
C10009 C10017 1.433 . S
C10010 H10006 0.929 . S
C10010 C10012 1.378 . S
C10010 C10014 1.350 . S
C10011 C10014 1.463 . S
C10011 C10016 1.350 . S
C10011 N10019 1.427 . S
C10012 H10003 0.930 . S
C10012 C10010 1.378 . S
C10012 C10013 1.367 . S
C10013 C10012 1.367 . S
C10013 C10015 1.433 . S
C10014 C10010 1.350 . S
C10014 C10011 1.463 . S
C10014 N10018 1.427 . S
C10015 H10005 0.929 . S
C10015 C10013 1.433 . S
C10015 N10018 1.384 . S
C10016 H10007 0.929 . S
C10016 C10008 1.378 . S
C10016 C10011 1.350 . S
C10017 H10004 0.929 . S
C10017 C10009 1.433 . S
C10017 N10019 1.384 . S
N10018 C10014 1.427 . S
N10018 C10015 1.384 . S
N10019 C10011 1.427 . S
N10019 C10017 1.384 . S
H10020 C10026 0.930 . S
H10021 C10030 0.930 . S
H10022 C10035 0.929 . S
H10023 C10033 0.929 . S
H10024 C10028 0.929 . S
H10025 C10034 0.929 . S
C10026 H10020 0.930 . S
C10026 C10027 1.367 . S
C10026 C10034 1.378 . S
C10027 C10026 1.367 . S
C10027 C10035 1.433 . S
C10028 H10024 0.929 . S
C10028 C10030 1.378 . S
C10028 C10032 1.350 . S
C10029 C10032 1.463 . S
C10029 C10034 1.350 . S
C10029 N10037 1.427 . S
C10030 H10021 0.930 . S
C10030 C10028 1.378 . S
C10030 C10031 1.367 . S
C10031 C10030 1.367 . S
C10031 C10033 1.433 . S
C10032 C10028 1.350 . S
C10032 C10029 1.463 . S
C10032 N10036 1.427 . S
C10033 H10023 0.929 . S
C10033 C10031 1.433 . S
C10033 N10036 1.384 . S
C10034 H10025 0.929 . S
C10034 C10026 1.378 . S
C10034 C10029 1.350 . S
C10035 H10022 0.929 . S
C10035 C10027 1.433 . S
C10035 N10037 1.384 . S
N10036 C10032 1.427 . S
N10036 C10033 1.384 . S
N10037 C10029 1.427 . S
N10037 C10035 1.384 . S
H10038 C10044 0.930 . S
H10039 C10048 0.930 . S
H10040 C10053 0.929 . S
H10041 C10051 0.929 . S
H10042 C10046 0.929 . S
H10043 C10052 0.929 . S
C10044 H10038 0.930 . S
C10044 C10045 1.367 . S
C10044 C10052 1.378 . S
C10045 C10044 1.367 . S
C10045 C10053 1.433 . S
C10046 H10042 0.929 . S
C10046 C10048 1.378 . S
C10046 C10050 1.350 . S
C10047 C10050 1.463 . S
C10047 C10052 1.350 . S
C10047 N10055 1.427 . S
C10048 H10039 0.930 . S
C10048 C10046 1.378 . S
C10048 C10049 1.367 . S
C10049 C10048 1.367 . S
C10049 C10051 1.433 . S
C10050 C10046 1.350 . S
C10050 C10047 1.463 . S
C10050 N10054 1.427 . S
C10051 H10041 0.929 . S
C10051 C10049 1.433 . S
C10051 N10054 1.384 . S
C10052 H10043 0.929 . S
C10052 C10044 1.378 . S
C10052 C10047 1.350 . S
C10053 H10040 0.929 . S
C10053 C10045 1.433 . S
C10053 N10055 1.384 . S
N10054 C10050 1.427 . S
N10054 C10051 1.384 . S
N10055 C10047 1.427 . S
N10055 C10053 1.384 . S
H10056 C10062 0.930 . S
H10057 C10066 0.930 . S
H10058 C10071 0.929 . S
H10059 C10069 0.929 . S
H10060 C10064 0.929 . S
H10061 C10070 0.929 . S
C10062 H10056 0.930 . S
C10062 C10063 1.367 . S
C10062 C10070 1.378 . S
C10063 C10062 1.367 . S
C10063 C10071 1.433 . S
C10064 H10060 0.929 . S
C10064 C10066 1.378 . S
C10064 C10068 1.350 . S
C10065 C10068 1.463 . S
C10065 C10070 1.350 . S
C10065 N10073 1.427 . S
C10066 H10057 0.930 . S
C10066 C10064 1.378 . S
C10066 C10067 1.367 . S
C10067 C10066 1.367 . S
C10067 C10069 1.433 . S
C10068 C10064 1.350 . S
C10068 C10065 1.463 . S
C10068 N10072 1.427 . S
C10069 H10059 0.929 . S
C10069 C10067 1.433 . S
C10069 N10072 1.384 . S
C10070 H10061 0.929 . S
C10070 C10062 1.378 . S
C10070 C10065 1.350 . S
C10071 H10058 0.929 . S
C10071 C10063 1.433 . S
C10071 N10073 1.384 . S
N10072 C10068 1.427 . S
N10072 C10069 1.384 . S
N10073 C10065 1.427 . S
N10073 C10071 1.384 . S
H10074 C10080 0.930 . S
H10075 C10084 0.930 . S
H10076 C10089 0.929 . S
H10077 C10087 0.929 . S
H10078 C10082 0.929 . S
H10079 C10088 0.929 . S
C10080 H10074 0.930 . S
C10080 C10081 1.367 . S
C10080 C10088 1.378 . S
C10081 C10080 1.367 . S
C10081 C10089 1.433 . S
C10082 H10078 0.929 . S
C10082 C10084 1.378 . S
C10082 C10086 1.350 . S
C10083 C10086 1.463 . S
C10083 C10088 1.350 . S
C10083 N10091 1.427 . S
C10084 H10075 0.930 . S
C10084 C10082 1.378 . S
C10084 C10085 1.367 . S
C10085 C10084 1.367 . S
C10085 C10087 1.433 . S
C10086 C10082 1.350 . S
C10086 C10083 1.463 . S
C10086 N10090 1.427 . S
C10087 H10077 0.929 . S
C10087 C10085 1.433 . S
C10087 N10090 1.384 . S
C10088 H10079 0.929 . S
C10088 C10080 1.378 . S
C10088 C10083 1.350 . S
C10089 H10076 0.929 . S
C10089 C10081 1.433 . S
C10089 N10091 1.384 . S
N10090 C10086 1.427 . S
N10090 C10087 1.384 . S
N10091 C10083 1.427 . S
N10091 C10089 1.384 . S
H10092 C10098 0.930 . S
H10093 C10102 0.930 . S
H10094 C10107 0.929 . S
H10095 C10105 0.929 . S
H10096 C10100 0.929 . S
H10097 C10106 0.929 . S
C10098 H10092 0.930 . S
C10098 C10099 1.367 . S
C10098 C10106 1.378 . S
C10099 C10098 1.367 . S
C10099 C10107 1.433 . S
C10100 H10096 0.929 . S
C10100 C10102 1.378 . S
C10100 C10104 1.350 . S
C10101 C10104 1.463 . S
C10101 C10106 1.350 . S
C10101 N10109 1.427 . S
C10102 H10093 0.930 . S
C10102 C10100 1.378 . S
C10102 C10103 1.367 . S
C10103 C10102 1.367 . S
C10103 C10105 1.433 . S
C10104 C10100 1.350 . S
C10104 C10101 1.463 . S
C10104 N10108 1.427 . S
C10105 H10095 0.929 . S
C10105 C10103 1.433 . S
C10105 N10108 1.384 . S
C10106 H10097 0.929 . S
C10106 C10098 1.378 . S
C10106 C10101 1.350 . S
C10107 H10094 0.929 . S
C10107 C10099 1.433 . S
C10107 N10109 1.384 . S
N10108 C10104 1.427 . S
N10108 C10105 1.384 . S
N10109 C10101 1.427 . S
N10109 C10107 1.384 . S
H10110 C10116 0.930 . S
H10111 C10120 0.930 . S
H10112 C10125 0.929 . S
H10113 C10123 0.929 . S
H10114 C10118 0.929 . S
H10115 C10124 0.929 . S
C10116 H10110 0.930 . S
C10116 C10117 1.367 . S
C10116 C10124 1.378 . S
C10117 C10116 1.367 . S
C10117 C10125 1.433 . S
C10118 H10114 0.929 . S
C10118 C10120 1.378 . S
C10118 C10122 1.350 . S
C10119 C10122 1.463 . S
C10119 C10124 1.350 . S
C10119 N10127 1.427 . S
C10120 H10111 0.930 . S
C10120 C10118 1.378 . S
C10120 C10121 1.367 . S
C10121 C10120 1.367 . S
C10121 C10123 1.433 . S
C10122 C10118 1.350 . S
C10122 C10119 1.463 . S
C10122 N10126 1.427 . S
C10123 H10113 0.929 . S
C10123 C10121 1.433 . S
C10123 N10126 1.384 . S
C10124 H10115 0.929 . S
C10124 C10116 1.378 . S
C10124 C10119 1.350 . S
C10125 H10112 0.929 . S
C10125 C10117 1.433 . S
C10125 N10127 1.384 . S
N10126 C10122 1.427 . S
N10126 C10123 1.384 . S
N10127 C10119 1.427 . S
N10127 C10125 1.384 . S
H10128 C10134 0.930 . S
H10129 C10138 0.930 . S
H10130 C10143 0.929 . S
H10131 C10141 0.929 . S
H10132 C10136 0.929 . S
H10133 C10142 0.929 . S
C10134 H10128 0.930 . S
C10134 C10135 1.367 . S
C10134 C10142 1.378 . S
C10135 C10134 1.367 . S
C10135 C10143 1.433 . S
C10136 H10132 0.929 . S
C10136 C10138 1.378 . S
C10136 C10140 1.350 . S
C10137 C10140 1.463 . S
C10137 C10142 1.350 . S
C10137 N10145 1.427 . S
C10138 H10129 0.930 . S
C10138 C10136 1.378 . S
C10138 C10139 1.367 . S
C10139 C10138 1.367 . S
C10139 C10141 1.433 . S
C10140 C10136 1.350 . S
C10140 C10137 1.463 . S
C10140 N10144 1.427 . S
C10141 H10131 0.929 . S
C10141 C10139 1.433 . S
C10141 N10144 1.384 . S
C10142 H10133 0.929 . S
C10142 C10134 1.378 . S
C10142 C10137 1.350 . S
C10143 H10130 0.929 . S
C10143 C10135 1.433 . S
C10143 N10145 1.384 . S
N10144 C10140 1.427 . S
N10144 C10141 1.384 . S
N10145 C10137 1.427 . S
N10145 C10143 1.384 . S
H10146 C10152 0.930 . S
H10147 C10156 0.930 . S
H10148 C10161 0.929 . S
H10149 C10159 0.929 . S
H10150 C10154 0.929 . S
H10151 C10160 0.929 . S
C10152 H10146 0.930 . S
C10152 C10153 1.367 . S
C10152 C10160 1.378 . S
C10153 C10152 1.367 . S
C10153 C10161 1.433 . S
C10154 H10150 0.929 . S
C10154 C10156 1.378 . S
C10154 C10158 1.350 . S
C10155 C10158 1.463 . S
C10155 C10160 1.350 . S
C10155 N10163 1.427 . S
C10156 H10147 0.930 . S
C10156 C10154 1.378 . S
C10156 C10157 1.367 . S
C10157 C10156 1.367 . S
C10157 C10159 1.433 . S
C10158 C10154 1.350 . S
C10158 C10155 1.463 . S
C10158 N10162 1.427 . S
C10159 H10149 0.929 . S
C10159 C10157 1.433 . S
C10159 N10162 1.384 . S
C10160 H10151 0.929 . S
C10160 C10152 1.378 . S
C10160 C10155 1.350 . S
C10161 H10148 0.929 . S
C10161 C10153 1.433 . S
C10161 N10163 1.384 . S
N10162 C10158 1.427 . S
N10162 C10159 1.384 . S
N10163 C10155 1.427 . S
N10163 C10161 1.384 . S
H10164 C10170 0.930 . S
H10165 C10174 0.930 . S
H10166 C10179 0.929 . S
H10167 C10177 0.929 . S
H10168 C10172 0.929 . S
H10169 C10178 0.929 . S
C10170 H10164 0.930 . S
C10170 C10171 1.367 . S
C10170 C10178 1.378 . S
C10171 C10170 1.367 . S
C10171 C10179 1.433 . S
C10172 H10168 0.929 . S
C10172 C10174 1.378 . S
C10172 C10176 1.350 . S
C10173 C10176 1.463 . S
C10173 C10178 1.350 . S
C10173 N10181 1.427 . S
C10174 H10165 0.930 . S
C10174 C10172 1.378 . S
C10174 C10175 1.367 . S
C10175 C10174 1.367 . S
C10175 C10177 1.433 . S
C10176 C10172 1.350 . S
C10176 C10173 1.463 . S
C10176 N10180 1.427 . S
C10177 H10167 0.929 . S
C10177 C10175 1.433 . S
C10177 N10180 1.384 . S
C10178 H10169 0.929 . S
C10178 C10170 1.378 . S
C10178 C10173 1.350 . S
C10179 H10166 0.929 . S
C10179 C10171 1.433 . S
C10179 N10181 1.384 . S
N10180 C10176 1.427 . S
N10180 C10177 1.384 . S
N10181 C10173 1.427 . S
N10181 C10179 1.384 . S
H10182 C10188 0.930 . S
H10183 C10192 0.930 . S
H10184 C10197 0.929 . S
H10185 C10195 0.929 . S
H10186 C10190 0.929 . S
H10187 C10196 0.929 . S
C10188 H10182 0.930 . S
C10188 C10189 1.367 . S
C10188 C10196 1.378 . S
C10189 C10188 1.367 . S
C10189 C10197 1.433 . S
C10190 H10186 0.929 . S
C10190 C10192 1.378 . S
C10190 C10194 1.350 . S
C10191 C10194 1.463 . S
C10191 C10196 1.350 . S
C10191 N10199 1.427 . S
C10192 H10183 0.930 . S
C10192 C10190 1.378 . S
C10192 C10193 1.367 . S
C10193 C10192 1.367 . S
C10193 C10195 1.433 . S
C10194 C10190 1.350 . S
C10194 C10191 1.463 . S
C10194 N10198 1.427 . S
C10195 H10185 0.929 . S
C10195 C10193 1.433 . S
C10195 N10198 1.384 . S
C10196 H10187 0.929 . S
C10196 C10188 1.378 . S
C10196 C10191 1.350 . S
C10197 H10184 0.929 . S
C10197 C10189 1.433 . S
C10197 N10199 1.384 . S
N10198 C10194 1.427 . S
N10198 C10195 1.384 . S
N10199 C10191 1.427 . S
N10199 C10197 1.384 . S
H10200 C10206 0.930 . S
H10201 C10210 0.930 . S
H10202 C10215 0.929 . S
H10203 C10213 0.929 . S
H10204 C10208 0.929 . S
H10205 C10214 0.929 . S
C10206 H10200 0.930 . S
C10206 C10207 1.367 . S
C10206 C10214 1.378 . S
C10207 C10206 1.367 . S
C10207 C10215 1.433 . S
C10208 H10204 0.929 . S
C10208 C10210 1.378 . S
C10208 C10212 1.350 . S
C10209 C10212 1.463 . S
C10209 C10214 1.350 . S
C10209 N10217 1.427 . S
C10210 H10201 0.930 . S
C10210 C10208 1.378 . S
C10210 C10211 1.367 . S
C10211 C10210 1.367 . S
C10211 C10213 1.433 . S
C10212 C10208 1.350 . S
C10212 C10209 1.463 . S
C10212 N10216 1.427 . S
C10213 H10203 0.929 . S
C10213 C10211 1.433 . S
C10213 N10216 1.384 . S
C10214 H10205 0.929 . S
C10214 C10206 1.378 . S
C10214 C10209 1.350 . S
C10215 H10202 0.929 . S
C10215 C10207 1.433 . S
C10215 N10217 1.384 . S
N10216 C10212 1.427 . S
N10216 C10213 1.384 . S
N10217 C10209 1.427 . S
N10217 C10215 1.384 . S
H10218 C10224 0.930 . S
H10219 C10228 0.930 . S
H10220 C10233 0.929 . S
H10221 C10231 0.929 . S
H10222 C10226 0.929 . S
H10223 C10232 0.929 . S
C10224 H10218 0.930 . S
C10224 C10225 1.367 . S
C10224 C10232 1.378 . S
C10225 C10224 1.367 . S
C10225 C10233 1.433 . S
C10226 H10222 0.929 . S
C10226 C10228 1.378 . S
C10226 C10230 1.350 . S
C10227 C10230 1.463 . S
C10227 C10232 1.350 . S
C10227 N10235 1.427 . S
C10228 H10219 0.930 . S
C10228 C10226 1.378 . S
C10228 C10229 1.367 . S
C10229 C10228 1.367 . S
C10229 C10231 1.433 . S
C10230 C10226 1.350 . S
C10230 C10227 1.463 . S
C10230 N10234 1.427 . S
C10231 H10221 0.929 . S
C10231 C10229 1.433 . S
C10231 N10234 1.384 . S
C10232 H10223 0.929 . S
C10232 C10224 1.378 . S
C10232 C10227 1.350 . S
C10233 H10220 0.929 . S
C10233 C10225 1.433 . S
C10233 N10235 1.384 . S
N10234 C10230 1.427 . S
N10234 C10231 1.384 . S
N10235 C10227 1.427 . S
N10235 C10233 1.384 . S
H10236 C10242 0.930 . S
H10237 C10246 0.930 . S
H10238 C10251 0.929 . S
H10239 C10249 0.929 . S
H10240 C10244 0.929 . S
H10241 C10250 0.929 . S
C10242 H10236 0.930 . S
C10242 C10243 1.367 . S
C10242 C10250 1.378 . S
C10243 C10242 1.367 . S
C10243 C10251 1.433 . S
C10244 H10240 0.929 . S
C10244 C10246 1.378 . S
C10244 C10248 1.350 . S
C10245 C10248 1.463 . S
C10245 C10250 1.350 . S
C10245 N10253 1.427 . S
C10246 H10237 0.930 . S
C10246 C10244 1.378 . S
C10246 C10247 1.367 . S
C10247 C10246 1.367 . S
C10247 C10249 1.433 . S
C10248 C10244 1.350 . S
C10248 C10245 1.463 . S
C10248 N10252 1.427 . S
C10249 H10239 0.929 . S
C10249 C10247 1.433 . S
C10249 N10252 1.384 . S
C10250 H10241 0.929 . S
C10250 C10242 1.378 . S
C10250 C10245 1.350 . S
C10251 H10238 0.929 . S
C10251 C10243 1.433 . S
C10251 N10253 1.384 . S
N10252 C10248 1.427 . S
N10252 C10249 1.384 . S
N10253 C10245 1.427 . S
N10253 C10251 1.384 . S
H10254 C10260 0.930 . S
H10255 C10264 0.930 . S
H10256 C10269 0.929 . S
H10257 C10267 0.929 . S
H10258 C10262 0.929 . S
H10259 C10268 0.929 . S
C10260 H10254 0.930 . S
C10260 C10261 1.367 . S
C10260 C10268 1.378 . S
C10261 C10260 1.367 . S
C10261 C10269 1.433 . S
C10262 H10258 0.929 . S
C10262 C10264 1.378 . S
C10262 C10266 1.350 . S
C10263 C10266 1.463 . S
C10263 C10268 1.350 . S
C10263 N10271 1.427 . S
C10264 H10255 0.930 . S
C10264 C10262 1.378 . S
C10264 C10265 1.367 . S
C10265 C10264 1.367 . S
C10265 C10267 1.433 . S
C10266 C10262 1.350 . S
C10266 C10263 1.463 . S
C10266 N10270 1.427 . S
C10267 H10257 0.929 . S
C10267 C10265 1.433 . S
C10267 N10270 1.384 . S
C10268 H10259 0.929 . S
C10268 C10260 1.378 . S
C10268 C10263 1.350 . S
C10269 H10256 0.929 . S
C10269 C10261 1.433 . S
C10269 N10271 1.384 . S
N10270 C10266 1.427 . S
N10270 C10267 1.384 . S
N10271 C10263 1.427 . S
N10271 C10269 1.384 . S
C5099 N4167 1.619 . S
C5095 C15 1.643 . S
C5117 N4804 1.682 . S
C5113 C55 1.668 . S
C5135 N4193 1.623 . S
C5131 C95 1.645 . S
C5153 N4778 1.678 . S
C5149 C135 1.661 . S
C5171 N4245 1.630 . S
C5167 C175 1.650 . S
C5185 C215 1.662 . S
C5189 N4830 1.681 . S
C5207 N4219 1.618 . S
C5203 C255 1.638 . S
C5225 N4856 1.682 . S
C5221 C295 1.669 . S
C5243 N5064 1.640 . S
C5239 C335 1.648 . S
C5257 C375 1.667 . S
C5261 N4986 1.685 . S
C5279 N5077 1.623 . S
C5275 C415 1.643 . S
C5293 C455 1.668 . S
C5297 N5051 1.675 . S
C5315 N5012 1.643 . S
C5311 C495 1.645 . S
C5333 N4401 1.674 . S
C5329 C535 1.663 . S
C5351 N4414 1.623 . S
C5347 C575 1.643 . S
C5365 C615 1.666 . S
C5369 N4375 1.680 . S
C5383 C655 1.641 . S
C5387 N4947 1.621 . S
C5405 N4297 1.615 . S
C5401 C695 1.640 . S
C5423 N4882 1.679 . S
C5419 C735 1.661 . S
C5441 N4271 1.617 . S
C5437 C775 1.641 . S
C5455 C815 1.663 . S
C5459 N4284 1.681 . S
C5477 N4973 1.617 . S
C5473 C855 1.643 . S
C5495 N4934 1.675 . S
C5491 C895 1.664 . S
C5509 C935 1.668 . S
C5513 N4960 1.684 . S
C5527 C975 1.639 . S
C5531 N3855 1.642 . S
C5545 C1015 1.673 . S
C5549 N4492 1.685 . S
C5567 N3881 1.641 . S
C5563 C1055 1.642 . S
C5581 C1095 1.673 . S
C5585 N4466 1.672 . S
C5603 N3933 1.637 . S
C5599 C1135 1.639 . S
C5617 C1175 1.671 . S
C5621 N4518 1.678 . S
C5639 N3907 1.643 . S
C5635 C1215 1.640 . S
C5657 N4544 1.689 . S
C5653 C1255 1.670 . S
C5671 C1295 1.636 . S
C5675 N4752 1.618 . S
C5693 N4674 1.687 . S
C5689 C1335 1.669 . S
C5707 C1375 1.643 . S
C5711 N4765 1.644 . S
C5729 N4739 1.687 . S
C5725 C1415 1.670 . S
C5747 N4700 1.625 . S
C5743 C1455 1.637 . S
C5761 C1495 1.670 . S
C5765 N4089 1.690 . S
C5779 C1535 1.643 . S
C5783 N4102 1.643 . S
C5801 N4063 1.690 . S
C5797 C1575 1.671 . S
C5815 C1615 1.642 . S
C5819 N4635 1.629 . S
C5837 N3985 1.618 . S
C5833 C1655 1.638 . S
C5851 C1695 1.668 . S
C5855 N4570 1.687 . S
C5873 N3959 1.638 . S
C5869 C1735 1.640 . S
C5887 C1775 1.669 . S
C5891 N3972 1.687 . S
C5909 N4661 1.643 . S
C5905 C1815 1.639 . S
C5927 N4622 1.688 . S
C5923 C1855 1.669 . S
C5945 N4648 1.689 . S
C5941 C1895 1.676 . S
C5959 C1935 1.648 . S
C5963 N4791 1.629 . S
C5981 N4180 1.685 . S
C5977 C1975 1.663 . S
C5999 N4817 1.621 . S
C5995 C2015 1.640 . S
C6017 N4154 1.682 . S
C6013 C2055 1.663 . S
C6031 C2095 1.645 . S
C6035 N4869 1.620 . S
C6053 N4206 1.677 . S
C6049 C2135 1.669 . S
C6071 N4843 1.625 . S
C6067 C2175 1.644 . S
C6089 N4232 1.681 . S
C6085 C2215 1.667 . S
C6103 C2255 1.651 . S
C6107 N4440 1.647 . S
C6125 N4362 1.686 . S
C6121 C2295 1.667 . S
C6143 N4453 1.621 . S
C6139 C2335 1.646 . S
C6157 C2375 1.665 . S
C6161 N4427 1.674 . S
C6175 C2415 1.647 . S
C6179 N4388 1.640 . S
C6193 C2455 1.662 . S
C6197 N5025 1.674 . S
C6211 C2495 1.646 . S
C6215 N5038 1.627 . S
C6233 N4999 1.686 . S
C6229 C2535 1.668 . S
C6247 C2575 1.647 . S
C6251 N4323 1.626 . S
C6269 N4921 1.625 . S
C6265 C2615 1.647 . S
C6287 N4258 1.676 . S
C6283 C2655 1.669 . S
C6305 N4895 1.628 . S
C6301 C2695 1.648 . S
C6319 C2735 1.665 . S
C6323 N4908 1.678 . S
C6337 C2775 1.642 . S
C6341 N4349 1.617 . S
C6359 N4310 1.675 . S
C6355 C2815 1.664 . S
C6373 C2855 1.665 . S
C6377 N4336 1.678 . S
C6391 C2895 1.641 . S
C6395 N4479 1.639 . S
C6413 N3868 1.686 . S
C6409 C2935 1.675 . S
C6431 N4505 1.641 . S
C6427 C2975 1.643 . S
C6445 C3015 1.671 . S
C6449 N3842 1.678 . S
C6467 N4557 1.643 . S
C6463 C3055 1.641 . S
C6485 N3894 1.671 . S
C6481 C3095 1.672 . S
C6499 C3135 1.637 . S
C6503 N4531 1.637 . S
C6517 C3175 1.670 . S
C6521 N3920 1.685 . S
C6539 N4128 1.623 . S
C6535 C3215 1.636 . S
C6553 C3255 1.669 . S
C6557 N4050 1.688 . S
C6575 N4141 1.641 . S
C6571 C3295 1.642 . S
C6593 N4115 1.691 . S
C6589 C3335 1.673 . S
C6607 C3375 1.640 . S
C6611 N4076 1.620 . S
C6625 C3415 1.674 . S
C6629 N4713 1.691 . S
C6647 N4726 1.640 . S
C6643 C3455 1.636 . S
C6661 C3495 1.672 . S
C6665 N4687 1.690 . S
C6683 N4011 1.627 . S
C6679 C3535 1.639 . S
C6701 N4609 1.619 . S
C6697 C3575 1.640 . S
C6715 C3615 1.675 . S
C6719 N3946 1.689 . S
C6733 C3655 1.637 . S
C6737 N4583 1.636 . S
C6751 C3695 1.676 . S
C6755 N4596 1.689 . S
C6769 C3735 1.639 . S
C6773 N4037 1.638 . S
C6787 C3775 1.669 . S
C6791 N3998 1.685 . S
C6809 N4024 1.687 . S
C6805 C3815 1.669 . S
C6827 N3958 1.593 . S
C6823 C2 1.593 . S
C6845 N3971 1.648 . S
C6841 C42 1.592 . S
C6859 C82 1.590 . S
C6863 N3988 1.582 . S
C6877 C122 1.581 . S
C6881 N3945 1.643 . S
C6895 C162 1.594 . S
C6899 N4036 1.593 . S
C6917 N3997 1.649 . S
C6913 C202 1.592 . S
C6935 N4014 1.586 . S
C6931 C242 1.591 . S
C6949 C282 1.588 . S
C6953 N4023 1.645 . S
C6967 C322 1.595 . S
C6971 N3880 1.596 . S
C6985 C362 1.595 . S
C6989 N3845 1.636 . S
C7003 C402 1.591 . S
C7007 N3854 1.592 . S
C7025 N3867 1.637 . S
C7021 C442 1.574 . S
C7039 C482 1.595 . S
C7043 N3906 1.594 . S
C7057 C522 1.590 . S
C7061 N3919 1.646 . S
C7075 C562 1.592 . S
C7079 N3932 1.591 . S
C7093 C602 1.583 . S
C7097 N3897 1.629 . S
C7115 N4079 1.589 . S
C7111 C642 1.591 . S
C7129 C682 1.593 . S
C7133 N4755 1.587 . S
C7151 N4049 1.644 . S
C7147 C722 1.585 . S
C7169 N4764 1.593 . S
C7165 C762 1.593 . S
C7183 C802 1.593 . S
C7187 N4738 1.650 . S
C7201 C842 1.591 . S
C7205 N4725 1.592 . S
C7223 N4686 1.642 . S
C7219 C882 1.580 . S
C7241 N4712 1.647 . S
C7237 C922 1.588 . S
C7259 N4270 1.581 . S
C7255 C962 1.544 . S
C7277 N4283 1.619 . S
C7273 C1002 1.666 . S
C7295 N4296 1.579 . S
C7291 C1042 1.551 . S
C7309 C1082 1.664 . S
C7313 N4257 1.617 . S
C7327 C1122 1.543 . S
C7331 N4348 1.582 . S
C7349 N4309 1.611 . S
C7345 C1162 1.661 . S
C7363 C1202 1.541 . S
C7367 N4322 1.585 . S
C7385 N4335 1.607 . S
C7381 C1242 1.662 . S
C7399 C1282 1.547 . S
C7403 N4192 1.582 . S
C7421 N4153 1.608 . S
C7417 C1322 1.662 . S
C7435 C1362 1.551 . S
C7439 N4166 1.580 . S
C7457 N4183 1.640 . S
C7453 C1402 1.667 . S
C7475 N4218 1.583 . S
C7471 C1442 1.545 . S
C7489 C1482 1.667 . S
C7493 N4235 1.639 . S
C7511 N4244 1.577 . S
C7507 C1522 1.553 . S
C7529 N4205 1.608 . S
C7525 C1562 1.662 . S
C7547 N4391 1.591 . S
C7543 C1602 1.542 . S
C7565 N5067 1.588 . S
C7561 C1642 1.553 . S
C7583 N4361 1.612 . S
C7579 C1682 1.662 . S
C7597 C1722 1.552 . S
C7601 N5076 1.579 . S
C7615 C1762 1.666 . S
C7619 N5050 1.620 . S
C7637 N5037 1.581 . S
C7633 C1802 1.546 . S
C7655 N4998 1.613 . S
C7651 C1842 1.664 . S
C7673 N5024 1.612 . S
C7669 C1882 1.664 . S
C7687 C1922 1.593 . S
C7691 N4582 1.594 . S
C7709 N4595 1.647 . S
C7705 C1962 1.590 . S
C7723 C2002 1.591 . S
C7727 N4612 1.586 . S
C7745 N4569 1.643 . S
C7741 C2042 1.581 . S
C7759 C2082 1.594 . S
C7763 N4660 1.593 . S
C7777 C2122 1.577 . S
C7781 N4621 1.641 . S
C7795 C2162 1.589 . S
C7799 N4638 1.585 . S
C7813 C2202 1.589 . S
C7817 N4647 1.646 . S
C7831 C2242 1.593 . S
C7835 N4504 1.595 . S
C7853 N4469 1.633 . S
C7849 C2282 1.592 . S
C7871 N4478 1.591 . S
C7867 C2322 1.592 . S
C7885 C2362 1.582 . S
C7889 N4491 1.642 . S
C7903 C2402 1.595 . S
C7907 N4530 1.594 . S
C7921 C2442 1.576 . S
C7925 N4543 1.639 . S
C7939 C2482 1.592 . S
C7943 N4556 1.593 . S
C7957 C2522 1.581 . S
C7961 N4521 1.625 . S
C7979 N4703 1.587 . S
C7975 C2562 1.591 . S
C7997 N4131 1.588 . S
C7993 C2602 1.593 . S
C8015 N4673 1.639 . S
C8011 C2642 1.576 . S
C8033 N4140 1.593 . S
C8029 C2682 1.593 . S
C8051 N4114 1.651 . S
C8047 C2722 1.594 . S
C8069 N4101 1.593 . S
C8065 C2762 1.593 . S
C8083 C2802 1.577 . S
C8087 N4062 1.639 . S
C8105 N4088 1.643 . S
C8101 C2842 1.581 . S
C8119 C2882 1.545 . S
C8123 N4894 1.581 . S
C8137 C2922 1.665 . S
C8141 N4907 1.616 . S
C8159 N4920 1.584 . S
C8155 C2962 1.541 . S
C8173 C3002 1.659 . S
C8177 N4881 1.605 . S
C8195 N4972 1.579 . S
C8191 C3042 1.550 . S
C8209 C3082 1.659 . S
C8213 N4933 1.607 . S
C8227 C3122 1.548 . S
C8231 N4946 1.580 . S
C8249 N4959 1.607 . S
C8245 C3162 1.662 . S
C8267 N4816 1.581 . S
C8263 C3202 1.546 . S
C8285 N4777 1.608 . S
C8281 C3242 1.662 . S
C8303 N4790 1.579 . S
C8299 C3282 1.552 . S
C8321 N4807 1.630 . S
C8317 C3322 1.663 . S
C8335 C3362 1.550 . S
C8339 N4842 1.579 . S
C8357 N4859 1.640 . S
C8353 C3402 1.667 . S
C8371 C3442 1.553 . S
C8375 N4868 1.578 . S
C8389 C3482 1.665 . S
C8393 N4829 1.617 . S
C8407 C3522 1.545 . S
C8411 N5015 1.591 . S
C8425 C3562 1.553 . S
C8429 N4443 1.588 . S
C8443 C3602 1.663 . S
C8447 N4985 1.612 . S
C8465 N4452 1.579 . S
C8461 C3642 1.552 . S
C8479 C3682 1.663 . S
C8483 N4426 1.613 . S
C8497 C3722 1.553 . S
C8501 N4413 1.578 . S
C8515 C3762 1.661 . S
C8519 N4374 1.607 . S
C8537 N4400 1.608 . S
C8533 C3802 1.662 . S
C8551 C21 1.625 . S
C8555 N3841 1.614 . S
C8569 C61 1.711 . S
C8573 N3858 1.764 . S
C8587 C101 1.619 . S
C8591 N3871 1.617 . S
C8609 N3884 1.768 . S
C8605 C141 1.711 . S
C8627 N3893 1.612 . S
C8623 C181 1.625 . S
C8641 C221 1.712 . S
C8645 N3910 1.769 . S
C8659 C261 1.622 . S
C8663 N3923 1.618 . S
C8677 C301 1.717 . S
C8681 N3936 1.771 . S
C8699 N3949 1.625 . S
C8695 C341 1.625 . S
C8717 N3962 1.775 . S
C8713 C381 1.720 . S
C8731 C421 1.622 . S
C8735 N3975 1.622 . S
C8753 N3984 1.751 . S
C8749 C461 1.720 . S
C8767 C501 1.624 . S
C8771 N4001 1.621 . S
C8785 C541 1.705 . S
C8789 N4010 1.739 . S
C8803 C581 1.622 . S
C8807 N4027 1.619 . S
C8821 C621 1.724 . S
C8825 N4040 1.777 . S
C8839 C661 1.624 . S
C8843 N4053 1.620 . S
C8857 C701 1.621 . S
C8861 N4066 1.619 . S
C8879 N4075 1.744 . S
C8875 C741 1.714 . S
C8897 N4092 1.621 . S
C8893 C781 1.624 . S
C8915 N4105 1.765 . S
C8911 C821 1.707 . S
C8933 N4118 1.622 . S
C8929 C861 1.624 . S
C8947 C901 1.709 . S
C8951 N4127 1.745 . S
C8969 N4144 1.773 . S
C8965 C941 1.721 . S
C8983 C981 1.578 . S
C8987 N4157 1.616 . S
C9001 C1021 1.801 . S
C9005 N4170 1.762 . S
C9019 C1061 1.577 . S
C9023 N4179 1.626 . S
C9041 N4196 1.767 . S
C9037 C1101 1.804 . S
C9055 C1141 1.566 . S
C9059 N4209 1.620 . S
C9077 N4222 1.767 . S
C9073 C1181 1.803 . S
C9091 C1221 1.580 . S
C9095 N4231 1.624 . S
C9109 C1261 1.805 . S
C9113 N4248 1.769 . S
C9131 N4261 1.622 . S
C9127 C1301 1.569 . S
C9145 C1341 1.807 . S
C9149 N4274 1.768 . S
C9167 N4287 1.619 . S
C9163 C1381 1.572 . S
C9181 C1421 1.803 . S
C9185 N4300 1.760 . S
C9203 N4313 1.622 . S
C9199 C1461 1.567 . S
C9221 N4326 1.762 . S
C9217 C1501 1.803 . S
C9239 N4339 1.617 . S
C9235 C1541 1.580 . S
C9253 C1581 1.803 . S
C9257 N4352 1.766 . S
C9271 C1621 1.570 . S
C9275 N4365 1.622 . S
C9289 C1661 1.581 . S
C9293 N4378 1.618 . S
C9307 C1701 1.801 . S
C9311 N4387 1.777 . S
C9325 C1741 1.580 . S
C9329 N4404 1.617 . S
C9343 C1781 1.807 . S
C9347 N4417 1.766 . S
C9365 N4430 1.619 . S
C9361 C1821 1.574 . S
C9379 C1861 1.806 . S
C9383 N4439 1.784 . S
C9401 N4456 1.761 . S
C9397 C1901 1.801 . S
C9415 C1941 1.625 . S
C9419 N4465 1.615 . S
C9437 N4482 1.762 . S
C9433 C1981 1.706 . S
C9455 N4495 1.619 . S
C9451 C2021 1.619 . S
C9473 N4508 1.764 . S
C9469 C2061 1.707 . S
C9487 C2101 1.625 . S
C9491 N4517 1.611 . S
C9505 C2141 1.715 . S
C9509 N4534 1.768 . S
C9527 N4547 1.617 . S
C9523 C2181 1.621 . S
C9545 N4560 1.773 . S
C9541 C2221 1.721 . S
C9559 C2261 1.625 . S
C9563 N4573 1.625 . S
C9577 C2301 1.723 . S
C9581 N4586 1.775 . S
C9595 C2341 1.622 . S
C9599 N4599 1.619 . S
C9613 C2381 1.714 . S
C9617 N4608 1.748 . S
C9631 C2421 1.624 . S
C9635 N4625 1.621 . S
C9653 N4634 1.742 . S
C9649 C2461 1.712 . S
C9671 N4651 1.619 . S
C9667 C2501 1.622 . S
C9689 N4664 1.768 . S
C9685 C2541 1.712 . S
C9707 N4677 1.622 . S
C9703 C2581 1.622 . S
C9721 C2621 1.624 . S
C9725 N4690 1.621 . S
C9739 C2661 1.721 . S
C9743 N4699 1.750 . S
C9761 N4716 1.622 . S
C9757 C2701 1.621 . S
C9775 C2741 1.717 . S
C9779 N4729 1.770 . S
C9797 N4742 1.619 . S
C9793 C2781 1.621 . S
C9815 N4751 1.752 . S
C9811 C2821 1.719 . S
C9833 N4768 1.769 . S
C9829 C2861 1.716 . S
C9847 C2901 1.579 . S
C9851 N4781 1.615 . S
C9865 C2941 1.804 . S
C9869 N4794 1.760 . S
C9883 C2981 1.569 . S
C9887 N4803 1.625 . S
C9901 C3021 1.805 . S
C9905 N4820 1.764 . S
C9923 N4833 1.615 . S
C9919 C3061 1.579 . S
C9941 N4846 1.765 . S
C9937 C3101 1.802 . S
C9959 N4855 1.624 . S
C9955 C3141 1.580 . S
C9973 C3181 1.806 . S
C9977 N4872 1.765 . S
C9991 C3221 1.568 . S
C9995 N4885 1.622 . S
C10013 N4898 1.764 . S
C10009 C3261 1.806 . S
C10031 N4911 1.620 . S
C10027 C3301 1.573 . S
C10049 N4924 1.770 . S
C10045 C3341 1.807 . S
C10067 N4937 1.618 . S
C10063 C3381 1.576 . S
C10085 N4950 1.761 . S
C10081 C3421 1.803 . S
C10103 N4963 1.619 . S
C10099 C3461 1.576 . S
C10121 N4976 1.758 . S
C10117 C3501 1.803 . S
C10139 N4989 1.622 . S
C10135 C3541 1.568 . S
C10157 N5002 1.619 . S
C10153 C3581 1.574 . S
C10175 N5011 1.781 . S
C10171 C3621 1.805 . S
C10189 C3661 1.567 . S
C10193 N5028 1.620 . S
C10211 N5041 1.765 . S
C10207 C3701 1.807 . S
C10225 C3741 1.568 . S
C10229 N5054 1.621 . S
C10247 N5063 1.779 . S
C10243 C3781 1.801 . S
C10265 N5080 1.765 . S
C10261 C3821 1.803 . S
