# Generated by pormake.
# Topology zzz, (3,6)-cn, num edge types: 1
# Building blocks:
#     Node 0, Type 0, BuildingBlock: BELTOD_clean_linker_0, # of connection points: 3
#     Node 1, Type 0, BuildingBlock: BELTOD_clean_linker_0, # of connection points: 3
#     Node 2, Type 0, BuildingBlock: BELTOD_clean_linker_0, # of connection points: 3
#     Node 3, Type 0, BuildingBlock: BELTOD_clean_linker_0, # of connection points: 3
#     Node 4, Type 0, BuildingBlock: BELTOD_clean_linker_0, # of connection points: 3
#     Node 5, Type 0, BuildingBlock: BELTOD_clean_linker_0, # of connection points: 3
#     Node 6, Type 0, BuildingBlock: BELTOD_clean_linker_0, # of connection points: 3
#     Node 7, Type 0, BuildingBlock: BELTOD_clean_linker_0, # of connection points: 3
#     Node 8, Type 1, BuildingBlock: KUMJIN_clean_sbu_1, # of connection points: 6
#     Node 9, Type 1, BuildingBlock: KUMJIN_clean_sbu_1, # of connection points: 6
#     Node 10, Type 1, BuildingBlock: KUMJIN_clean_sbu_1, # of connection points: 6
#     Node 11, Type 1, BuildingBlock: KUMJIN_clean_sbu_1, # of connection points: 6
#     Edge 12, Type (0, 1), BuildingBlock: TEMPAE_clean_linker_10, # of connection points: 2
#     Edge 13, Type (0, 1), BuildingBlock: TEMPAE_clean_linker_10, # of connection points: 2
#     Edge 14, Type (0, 1), BuildingBlock: TEMPAE_clean_linker_10, # of connection points: 2
#     Edge 15, Type (0, 1), BuildingBlock: TEMPAE_clean_linker_10, # of connection points: 2
#     Edge 16, Type (0, 1), BuildingBlock: TEMPAE_clean_linker_10, # of connection points: 2
#     Edge 17, Type (0, 1), BuildingBlock: TEMPAE_clean_linker_10, # of connection points: 2
#     Edge 18, Type (0, 1), BuildingBlock: TEMPAE_clean_linker_10, # of connection points: 2
#     Edge 19, Type (0, 1), BuildingBlock: TEMPAE_clean_linker_10, # of connection points: 2
#     Edge 20, Type (0, 1), BuildingBlock: TEMPAE_clean_linker_10, # of connection points: 2
#     Edge 21, Type (0, 1), BuildingBlock: TEMPAE_clean_linker_10, # of connection points: 2
#     Edge 22, Type (0, 1), BuildingBlock: TEMPAE_clean_linker_10, # of connection points: 2
#     Edge 23, Type (0, 1), BuildingBlock: TEMPAE_clean_linker_10, # of connection points: 2
#     Edge 24, Type (0, 1), BuildingBlock: TEMPAE_clean_linker_10, # of connection points: 2
#     Edge 25, Type (0, 1), BuildingBlock: TEMPAE_clean_linker_10, # of connection points: 2
#     Edge 26, Type (0, 1), BuildingBlock: TEMPAE_clean_linker_10, # of connection points: 2
#     Edge 27, Type (0, 1), BuildingBlock: TEMPAE_clean_linker_10, # of connection points: 2
#     Edge 28, Type (0, 1), BuildingBlock: TEMPAE_clean_linker_10, # of connection points: 2
#     Edge 29, Type (0, 1), BuildingBlock: TEMPAE_clean_linker_10, # of connection points: 2
#     Edge 30, Type (0, 1), BuildingBlock: TEMPAE_clean_linker_10, # of connection points: 2
#     Edge 31, Type (0, 1), BuildingBlock: TEMPAE_clean_linker_10, # of connection points: 2
#     Edge 32, Type (0, 1), BuildingBlock: TEMPAE_clean_linker_10, # of connection points: 2
#     Edge 33, Type (0, 1), BuildingBlock: TEMPAE_clean_linker_10, # of connection points: 2
#     Edge 34, Type (0, 1), BuildingBlock: TEMPAE_clean_linker_10, # of connection points: 2
#     Edge 35, Type (0, 1), BuildingBlock: TEMPAE_clean_linker_10, # of connection points: 2
# Relax obj value: 0.299
# Max RMSD: 0.192
# Mean RMSD: 0.171
data_MOF--net-zzz--node1-KUMJIN_clean_sbu_1--node2-BELTOD_clean_linker_0--edge1-TEMPAE_clean_linker_10
_symmetry_space_group_name_H-M    P1
_symmetry_Int_Tables_number       1
_symmetry_cell_setting            triclinic
loop_
_symmetry_equiv_pos_as_xyz
'x, y, z'
_cell_length_a     53.312544
_cell_length_b     53.340691
_cell_length_c     19.814847
_cell_angle_alpha  89.952775
_cell_angle_beta   90.039315
_cell_angle_gamma 90.321087
loop_
_atom_site_label
_atom_site_type_symbol
_atom_site_fract_x
_atom_site_fract_y
_atom_site_fract_z
_atom_type_partial_charge
P0 P 0.728 0.51912 0.25779 0.0
H1 H 0.7481 0.49257 0.37467 0.0
H2 H 0.7867 0.49817 0.43664 0.0
H3 H 0.79533 0.5723 0.35123 0.0
H4 H 0.75662 0.56591 0.28616 0.0
H5 H 0.67619 0.50132 0.27018 0.0
H6 H 0.64031 0.51164 0.20065 0.0
H7 H 0.67718 0.58003 0.13752 0.0
H8 H 0.71358 0.5692 0.20711 0.0
H9 H 0.78179 0.51847 0.2259 0.0
H10 H 0.71196 0.52187 0.11546 0.0
O11 O 0.72223 0.48856 0.26829 0.0
H12 H 0.80477 0.52097 0.12119 0.0
H13 H 0.73509 0.52554 0.01019 0.0
C14 C 0.74915 0.52879 0.32535 0.0
C15 C 0.75766 0.51045 0.37065 0.0
C16 C 0.78009 0.51371 0.40646 0.0
C17 C 0.79473 0.53559 0.39873 0.0
C18 C 0.78502 0.55493 0.35766 0.0
C19 C 0.76247 0.55157 0.32146 0.0
C20 C 0.69797 0.5342 0.24326 0.0
C21 C 0.67628 0.51914 0.24402 0.0
C22 C 0.65559 0.52506 0.20354 0.0
C23 C 0.65602 0.54632 0.16147 0.0
C24 C 0.67642 0.56314 0.16783 0.0
C25 C 0.6971 0.55726 0.20895 0.0
C26 C 0.74505 0.52147 0.17954 0.0
C27 C 0.7713 0.52077 0.17962 0.0
C28 C 0.78452 0.52237 0.11931 0.0
C29 C 0.77177 0.52431 0.05736 0.0
C30 C 0.74545 0.5245 0.05714 0.0
C31 C 0.73222 0.52265 0.11764 0.0
P32 P 0.02095 0.73865 0.25793 0.0
H33 H 0.02736 0.74387 0.40412 0.0
H34 H 0.0196 0.77962 0.47772 0.0
H35 H 0.97349 0.81306 0.32309 0.0
H36 H 0.98062 0.77692 0.25078 0.0
H37 H 0.04733 0.69266 0.22799 0.0
H38 H 0.03717 0.65698 0.15827 0.0
H39 H 0.9603 0.68168 0.14535 0.0
H40 H 0.9708 0.71799 0.21691 0.0
H41 H 0.06186 0.77059 0.20906 0.0
H42 H 0.98717 0.75004 0.14476 0.0
O43 O 0.04975 0.734 0.28863 0.0
H44 H 0.06621 0.7976 0.11047 0.0
H45 H 0.99111 0.77749 0.04738 0.0
C46 C 1.00512 0.75772 0.32083 0.0
C47 C 0.01478 0.75838 0.38678 0.0
C48 C 0.01065 0.77915 0.42866 0.0
C49 C 0.99663 0.7998 0.40571 0.0
C50 C 0.98457 0.79772 0.34262 0.0
C51 C 0.98867 0.77686 0.30085 0.0
C52 C 0.00986 0.70822 0.22854 0.0
C53 C 0.02798 0.69013 0.21274 0.0
C54 C 0.02212 0.66951 0.17219 0.0
C55 C 0.99791 0.66631 0.14532 0.0
C56 C 0.97925 0.68364 0.16435 0.0
C57 C 0.98516 0.70432 0.20592 0.0
C58 C 0.02441 0.7578 0.18368 0.0
C59 C 0.04644 0.77172 0.17363 0.0
C60 C 0.04879 0.78739 0.11756 0.0
C61 C 0.02898 0.7897 0.07107 0.0
C62 C 1.00688 0.7758 0.08155 0.0
C63 C 1.00464 0.76 0.13735 0.0
P64 P 0.79713 0.02788 0.25155 0.0
H65 H 0.76859 0.0628 0.33213 0.0
H66 H 0.7338 0.05795 0.40782 0.0
H67 H 0.74565 0.97785 0.41234 0.0
H68 H 0.78063 0.983 0.33252 0.0
H69 H 0.84871 0.047 0.25886 0.0
H70 H 0.8849 0.03677 0.18987 0.0
H71 H 0.84938 0.96726 0.13107 0.0
H72 H 0.81328 0.97742 0.20078 0.0
H73 H 0.77595 0.05774 0.14152 0.0
H74 H 0.77168 0.98124 0.21168 0.0
O75 O 0.80259 0.05872 0.24707 0.0
H76 H 0.74357 0.04903 0.05941 0.0
H77 H 0.74173 0.97138 0.12371 0.0
C78 C 0.77791 0.02335 0.32683 0.0
C79 C 0.76452 0.04414 0.35075 0.0
C80 C 0.74425 0.04131 0.39481 0.0
C81 C 0.73647 0.01747 0.41732 0.0
C82 C 0.75065 0.99657 0.39585 0.0
C83 C 0.77104 0.99948 0.35083 0.0
C84 C 0.82743 0.01358 0.2335 0.0
C85 C 0.84888 0.02908 0.23326 0.0
C86 C 0.86974 0.02323 0.19326 0.0
C87 C 0.86978 1.00158 0.1527 0.0
C88 C 0.84967 0.98454 0.15975 0.0
C89 C 0.82887 0.99036 0.20024 0.0
C90 C 0.77641 0.02017 0.18289 0.0
C91 C 0.76872 0.0388 0.1378 0.0
C92 C 0.75035 0.03359 0.08965 0.0
C93 C 0.73971 1.0094 0.08443 0.0
C94 C 0.74888 0.99037 0.12685 0.0
C95 C 0.7665 0.99589 0.17674 0.0
P96 P 0.49889 0.80063 0.26106 0.0
H97 H 0.49279 0.79589 0.40736 0.0
H98 H 0.50079 0.76069 0.48291 0.0
H99 H 0.54532 0.72546 0.32812 0.0
H100 H 0.53784 0.76098 0.25362 0.0
H101 H 0.47647 0.84975 0.24132 0.0
H102 H 0.48807 0.88472 0.16933 0.0
H103 H 0.56076 0.8518 0.13658 0.0
H104 H 0.54952 0.81708 0.21293 0.0
H105 H 0.45534 0.77262 0.21025 0.0
H106 H 0.53192 0.786 0.14872 0.0
O107 O 0.47058 0.80694 0.29265 0.0
H108 H 0.44877 0.74672 0.11019 0.0
H109 H 0.52553 0.76009 0.04972 0.0
C110 C 0.51419 0.78105 0.32382 0.0
C111 C 0.505 0.78105 0.39024 0.0
C112 C 0.50931 0.76064 0.43331 0.0
C113 C 0.52305 0.73974 0.4111 0.0
C114 C 0.5345 0.74106 0.34709 0.0
C115 C 0.53019 0.76153 0.30406 0.0
C116 C 0.51194 0.83034 0.23223 0.0
C117 C 0.49535 0.85034 0.22137 0.0
C118 C 0.50195 0.87044 0.17956 0.0
C119 C 0.52515 0.87085 0.14616 0.0
C120 C 0.54257 0.85182 0.16089 0.0
C121 C 0.53616 0.83197 0.20462 0.0
C122 C 0.49396 0.78183 0.18659 0.0
C123 C 0.4707 0.77022 0.17522 0.0
C124 C 0.46701 0.75526 0.11821 0.0
C125 C 0.48662 0.75152 0.0719 0.0
C126 C 0.50992 0.76305 0.0837 0.0
C127 C 0.51355 0.77799 0.14055 0.0
P128 P 0.27488 0.45766 0.0931 0.0
H129 H 0.27107 0.45415 0.94539 0.0
H130 H 0.23922 0.46962 0.86668 0.0
H131 H 0.20866 0.51612 0.02418 0.0
H132 H 0.24082 0.50103 0.10223 0.0
H133 H 0.31917 0.42777 0.12039 0.0
H134 H 0.35747 0.43662 0.18272 0.0
H135 H 0.33874 0.51522 0.18708 0.0
H136 H 0.30016 0.50617 0.12306 0.0
H137 H 0.223 0.44291 0.11845 0.0
H138 H 0.2853 0.47098 0.23609 0.0
O139 O 0.27542 0.42826 0.06432 0.0
H140 H 0.1956 0.44714 0.2169 0.0
H141 H 0.25815 0.47591 0.33267 0.0
C142 C 0.25823 0.47608 0.03025 0.0
C143 C 0.25812 0.46836 0.96245 0.0
C144 C 0.23978 0.47716 0.9174 0.0
C145 C 0.22103 0.49371 0.93948 0.0
C146 C 0.22255 0.50304 1.00585 0.0
C147 C 0.24111 0.49453 0.05048 0.0
C148 C 0.30679 0.46633 0.1159 0.0
C149 C 0.32362 0.4471 0.13225 0.0
C150 C 0.34546 0.45213 0.16904 0.0
C151 C 0.35104 0.47655 0.1912 0.0
C152 C 0.3351 0.49618 0.17068 0.0
C153 C 0.31311 0.49109 0.13352 0.0
C154 C 0.2561 0.45712 0.16898 0.0
C155 C 0.23087 0.4497 0.16547 0.0
C156 C 0.21523 0.45219 0.22168 0.0
C157 C 0.22463 0.46208 0.28252 0.0
C158 C 0.2503 0.46801 0.28691 0.0
C159 C 0.26587 0.46551 0.23082 0.0
P160 P 0.07673 0.28558 0.08565 0.0
H161 H 0.08331 0.27741 0.93995 0.0
H162 H 0.06832 0.24406 0.86501 0.0
H163 H 0.01864 0.21754 0.02168 0.0
H164 H 0.03329 0.25131 0.09604 0.0
H165 H 0.09477 0.33755 0.07517 0.0
H166 H 0.08293 0.37535 0.1365 0.0
H167 H 0.01757 0.3371 0.21436 0.0
H168 H 0.02917 0.2993 0.15116 0.0
H169 H 0.08767 0.23246 0.10802 0.0
H170 H 0.07599 0.2979 0.23171 0.0
O171 O 0.10551 0.29082 0.05551 0.0
H172 H 0.08503 0.20593 0.20823 0.0
H173 H 0.07173 0.27155 0.33077 0.0
C174 C 0.05972 0.26673 0.02416 0.0
C175 C 0.06861 0.26495 0.95761 0.0
C176 C 0.06006 0.24579 0.91471 0.0
C177 C 0.04262 0.22784 0.93777 0.0
C178 C 0.03237 0.23083 1.00273 0.0
C179 C 0.04059 0.25029 0.04513 0.0
C180 C 0.06291 0.31543 0.10853 0.0
C181 C 0.07734 0.33747 0.10316 0.0
C182 C 0.07062 0.35914 0.1386 0.0
C183 C 0.04955 0.3591 0.18116 0.0
C184 C 0.03406 0.33762 0.18247 0.0
C185 C 0.0405 0.3161 0.14566 0.0
C186 C 0.08033 0.26702 0.16145 0.0
C187 C 0.08449 0.24116 0.15661 0.0
C188 C 0.08293 0.22599 0.21401 0.0
C189 C 0.07726 0.23648 0.27735 0.0
C190 C 0.07585 0.26272 0.2829 0.0
C191 C 0.07775 0.27786 0.22559 0.0
P192 P 0.23375 0.0819 0.02298 0.0
H193 H 0.24009 0.07996 0.87574 0.0
H194 H 0.27435 0.06344 0.80801 0.0
H195 H 0.30175 0.02302 0.98191 0.0
H196 H 0.26663 0.03854 0.04809 0.0
H197 H 0.19174 0.11028 0.07307 0.0
H198 H 0.15762 0.10065 0.15038 0.0
H199 H 0.17971 0.02292 0.15246 0.0
H200 H 0.21414 0.03279 0.07351 0.0
H201 H 0.27799 0.11397 0.01745 0.0
H202 H 0.24156 0.06611 0.16353 0.0
O203 O 0.22711 0.1078 0.97928 0.0
H204 H 0.3163 0.11347 0.08518 0.0
H205 H 0.27959 0.06482 0.22964 0.0
C206 C 0.25075 0.06081 0.96755 0.0
C207 C 0.25281 0.0667 0.89872 0.0
C208 C 0.27284 0.05757 0.86017 0.0
C209 C 0.29155 0.0425 0.88968 0.0
C210 C 0.28793 0.03457 0.95693 0.0
C211 C 0.26764 0.04344 0.99513 0.0
C212 C 0.20531 0.07221 0.06624 0.0
C213 C 0.18893 0.09098 0.0884 0.0
C214 C 0.16953 0.08551 0.13352 0.0
C215 C 0.16603 0.06107 0.15841 0.0
C216 C 0.18178 0.04193 0.13397 0.0
C217 C 0.20139 0.04749 0.08857 0.0
C218 C 0.25688 0.09011 0.08531 0.0
C219 C 0.27786 0.10424 0.06546 0.0
C220 C 0.29984 0.10369 0.10383 0.0
C221 C 0.30119 0.08872 0.16216 0.0
C222 C 0.27926 0.07674 0.18537 0.0
C223 C 0.25732 0.0774 0.14719 0.0
P224 P 0.45739 0.24899 0.07955 0.0
H225 H 0.45266 0.26017 0.9349 0.0
H226 H 0.46824 0.29528 0.86711 0.0
H227 H 0.51604 0.31827 0.03177 0.0
H228 H 0.50096 0.28261 0.09895 0.0
H229 H 0.43938 0.19727 0.0884 0.0
H230 H 0.45311 0.16205 0.15638 0.0
H231 H 0.52129 0.20223 0.20599 0.0
H232 H 0.5068 0.23797 0.13923 0.0
H233 H 0.44967 0.30282 0.10306 0.0
H234 H 0.44766 0.23487 0.22125 0.0
O235 O 0.4301 0.2419 0.0427 0.0
H236 H 0.45171 0.32749 0.20545 0.0
H237 H 0.44767 0.25952 0.32445 0.0
C238 C 0.47539 0.2688 0.02249 0.0
C239 C 0.46714 0.27217 0.9558 0.0
C240 C 0.47599 0.29237 0.91703 0.0
C241 C 0.49302 0.30981 0.94457 0.0
C242 C 0.50269 0.30531 0.00952 0.0
C243 C 0.49427 0.28474 0.04767 0.0
C244 C 0.47218 0.22028 0.10765 0.0
C245 C 0.45771 0.19826 0.11181 0.0
C246 C 0.46562 0.17799 0.15119 0.0
C247 C 0.48826 0.17919 0.18771 0.0
C248 C 0.50353 0.2007 0.17975 0.0
C249 C 0.4955 0.22106 0.14044 0.0
C250 C 0.45048 0.26696 0.15435 0.0
C251 C 0.44929 0.29317 0.15111 0.0
C252 C 0.44995 0.30735 0.21021 0.0
C253 C 0.4508 0.29552 0.27376 0.0
C254 C 0.44821 0.26926 0.2765 0.0
C255 C 0.44815 0.2551 0.21726 0.0
Eu256 Eu 0.9845 0.0289 0.59452 0.0
C257 C 0.07193 0.05025 0.79292 0.0
N258 N 0.07279 0.04175 0.72855 0.0
C259 C 0.10633 0.07037 0.70327 0.0
C260 C 0.08738 0.07027 0.81419 0.0
C261 C 0.09038 0.05066 0.6844 0.0
C262 C 0.10453 0.08052 0.76813 0.0
C263 C 0.0562 0.04524 0.90668 0.0
C264 C 0.05676 0.03774 0.83844 0.0
C265 C 0.07015 0.06633 0.92725 0.0
C266 C 0.08585 0.07873 0.88114 0.0
Eu267 Eu 0.04539 1.00853 0.69946 0.0
N268 N 0.0443 0.01693 0.81723 0.0
C269 C 0.0426 0.03062 0.95269 0.0
C270 C 0.03312 1.00135 0.8631 0.0
C271 C 0.03142 1.00829 0.93101 0.0
H272 H 0.09156 0.04289 0.63413 0.0
H273 H 0.02182 0.99624 0.96671 0.0
H274 H 0.93704 0.01991 0.70673 0.0
H275 H 0.99255 0.9904 0.34108 0.0
H276 H 0.02552 0.98347 0.84755 0.0
H277 H 0.04161 0.03577 1.00551 0.0
H278 H 1.00117 0.02016 0.4345 0.0
H279 H 0.11986 0.07783 0.66772 0.0
H280 H 0.06971 0.07258 0.97925 0.0
H281 H 0.09724 0.09437 0.89823 0.0
H282 H 0.90466 0.98814 0.7313 0.0
H283 H 0.11682 0.09584 0.78258 0.0
H284 H 0.96201 0.95577 0.35756 0.0
N285 N 0.9503 1.00152 0.61848 0.0
C286 C 0.94535 0.98354 0.57171 0.0
C287 C 0.91625 0.98636 0.68673 0.0
C288 C 0.92636 0.96544 0.58228 0.0
C289 C 0.93506 1.00406 0.6734 0.0
C290 C 0.91219 0.96666 0.6416 0.0
N291 N 0.97597 1.00224 0.50222 0.0
C292 C 0.98767 1.00519 0.44146 0.0
C293 C 0.95287 0.96671 0.45985 0.0
C294 C 0.9583 0.98416 0.51125 0.0
C295 C 0.96561 0.96885 0.39828 0.0
C296 C 0.98286 0.98838 0.38877 0.0
H297 H 0.89744 0.95311 0.65168 0.0
H298 H 0.90721 0.93311 0.5399 0.0
H299 H 0.93036 0.93433 0.43251 0.0
O300 O 0.98264 0.06039 0.52501 0.0
O301 O 1.00567 0.99307 0.56892 0.0
O302 O 0.0169 0.97823 0.67221 0.0
O303 O 0.94937 0.04928 0.57917 0.0
O304 O 0.02164 0.04159 0.54757 0.0
O305 O 0.05011 0.01233 0.58616 0.0
O306 O 0.07045 0.98215 0.75046 0.0
O307 O 0.03926 0.05024 0.67614 0.0
O308 O 0.99678 0.05311 0.68243 0.0
O309 O 0.07608 0.99099 0.64545 0.0
O310 O 1.00723 0.99564 0.74065 0.0
O311 O 0.98157 0.02804 0.70943 0.0
C312 C 0.00933 0.97418 0.61013 0.0
C313 C 0.95864 0.09281 0.57277 0.0
C314 C 0.97796 0.13407 0.58876 0.0
C315 C 0.95891 0.14036 0.63443 0.0
C316 C 0.93971 0.0994 0.61877 0.0
C317 C 0.9399 0.12305 0.64927 0.0
C318 C 0.97747 0.11045 0.55765 0.0
C319 C 0.04323 0.02971 0.54286 0.0
C320 C 0.96041 0.06707 0.54514 0.0
C321 C 0.92155 0.94731 0.53241 0.0
C322 C 0.93473 0.948 0.47122 0.0
C323 C 0.01902 0.06336 0.68873 0.0
C324 C 0.08471 0.94978 0.67701 0.0
C325 C 0.07456 0.90571 0.69578 0.0
C326 C 0.08837 0.89936 0.63794 0.0
C327 C 0.09846 0.94309 0.61937 0.0
C328 C 0.07271 0.931 0.7148 0.0
C329 C 0.10015 0.91802 0.59985 0.0
C330 C 0.98769 0.01005 0.75179 0.0
C331 C 0.08231 0.97644 0.69509 0.0
H332 H 0.9588 0.15854 0.65871 0.0
H333 H 0.92502 0.08618 0.63197 0.0
H334 H 0.92535 0.12792 0.68491 0.0
H335 H 0.9919 0.10583 0.52126 0.0
H336 H 0.0901 0.88 0.62232 0.0
H337 H 0.10777 0.9573 0.58917 0.0
H338 H 0.06237 0.93597 0.75986 0.0
H339 H 0.11071 0.91302 0.55525 0.0
Eu340 Eu 0.52349 0.04926 0.71288 0.0
C341 C 0.53565 0.94061 0.63669 0.0
N342 N 0.53944 0.9608 0.59604 0.0
C343 C 0.57975 0.9448 0.56431 0.0
C344 C 0.55438 0.92231 0.64538 0.0
C345 C 0.5604 0.96217 0.5565 0.0
C346 C 0.57695 0.92507 0.61007 0.0
C347 C 0.50677 0.91548 0.7033 0.0
C348 C 0.5122 0.93717 0.66523 0.0
C349 C 0.52578 0.8979 0.71522 0.0
C350 C 0.54957 0.90135 0.68651 0.0
Eu351 Eu 0.50671 0.99092 0.59389 0.0
N352 N 0.49427 0.95449 0.65285 0.0
C353 C 0.48222 0.91181 0.72656 0.0
C354 C 0.47 0.95044 0.67207 0.0
C355 C 0.46365 0.92917 0.70989 0.0
H356 H 0.56235 0.97664 0.51868 0.0
H357 H 0.44453 0.92627 0.72655 0.0
H358 H 0.47307 0.08568 0.70186 0.0
H359 H 0.62182 0.07605 0.67307 0.0
H360 H 0.45572 0.96399 0.65963 0.0
H361 H 0.47729 0.8954 0.75609 0.0
H362 H 0.58703 0.05198 0.7238 0.0
H363 H 0.59666 0.94648 0.53441 0.0
H364 H 0.52205 0.8812 0.74476 0.0
H365 H 0.56382 0.88725 0.6944 0.0
H366 H 0.46075 0.12619 0.65025 0.0
H367 H 0.59183 0.91146 0.61542 0.0
H368 H 0.61284 0.11311 0.60211 0.0
N369 N 0.51065 0.08797 0.66682 0.0
C370 C 0.52855 0.10223 0.63665 0.0
C371 C 0.47984 0.1196 0.64572 0.0
C372 C 0.52252 0.12551 0.6073 0.0
C373 C 0.48681 0.09678 0.67481 0.0
C374 C 0.4977 0.13387 0.6109 0.0
N375 N 0.5585 0.07311 0.67476 0.0
C376 C 0.58279 0.06738 0.69029 0.0
C377 C 0.57255 0.10944 0.61267 0.0
C378 C 0.55321 0.09434 0.6398 0.0
C379 C 0.59746 0.10212 0.62247 0.0
C380 C 0.6026 0.08125 0.66259 0.0
H381 H 0.4923 0.15163 0.5888 0.0
H382 H 0.53742 0.15821 0.55592 0.0
H383 H 0.5811 0.14379 0.55867 0.0
O384 O 0.53721 0.07388 0.79292 0.0
O385 O 0.50045 0.05341 0.61626 0.0
O386 O 0.52004 0.02699 0.54461 0.0
O387 O 0.50483 0.05045 0.81074 0.0
O388 O 0.55566 0.02297 0.68333 0.0
O389 O 0.54381 0.01155 0.57657 0.0
O390 O 0.47603 0.99547 0.52339 0.0
O391 O 0.50332 0.9884 0.7086 0.0
O392 O 0.53704 0.01084 0.74554 0.0
O393 O 0.50321 0.96549 0.50628 0.0
O394 O 0.47141 1.00974 0.63581 0.0
O395 O 0.48344 0.03553 0.7253 0.0
C396 C 0.50938 0.04859 0.55617 0.0
C397 C 0.53124 0.05773 0.90263 0.0
C398 C 0.56505 0.04021 0.96971 0.0
C399 C 0.54984 0.04176 0.02751 0.0
C400 C 0.51621 0.05919 0.96051 0.0
C401 C 0.52549 0.05112 0.02272 0.0
C402 C 0.55549 0.04795 0.90728 0.0
C403 C 0.56143 0.01655 0.62111 0.0
C404 C 0.52117 0.06563 0.8373 0.0
C405 C 0.5416 0.14014 0.57804 0.0
C406 C 0.56652 0.13198 0.57995 0.0
C407 C 0.52181 0.99156 0.75158 0.0
C408 C 0.46958 0.9707 0.42293 0.0
C409 C 0.44014 0.98316 0.33492 0.0
C410 C 0.44501 0.96063 0.3006 0.0
C411 C 0.47437 0.94837 0.38801 0.0
C412 C 0.45237 0.98786 0.39634 0.0
C413 C 0.46201 0.94335 0.3272 0.0
C414 C 0.46631 0.02329 0.69005 0.0
C415 C 0.4834 0.97722 0.48479 0.0
H416 H 0.55679 0.0357 0.07623 0.0
H417 H 0.4973 0.06646 0.95747 0.0
H418 H 0.51384 0.05223 0.06733 0.0
H419 H 0.56713 0.04688 0.86251 0.0
H420 H 0.43595 0.95654 0.25289 0.0
H421 H 0.48773 0.93493 0.40737 0.0
H422 H 0.4485 1.00505 0.42347 0.0
H423 H 0.46579 0.92614 0.30027 0.0
Eu424 Eu 0.54078 0.51257 0.60144 0.0
C425 C 0.45754 0.48719 0.80904 0.0
N426 N 0.4555 0.49543 0.74458 0.0
C427 C 0.42344 0.4648 0.72243 0.0
C428 C 0.4435 0.46641 0.83193 0.0
C429 C 0.438 0.48535 0.70195 0.0
C430 C 0.42652 0.455 0.78738 0.0
C431 C 0.47432 0.49338 0.92133 0.0
C432 C 0.47252 0.50065 0.85305 0.0
C433 C 0.46176 0.47164 0.94349 0.0
C434 C 0.44622 0.45828 0.89895 0.0
Eu435 Eu 0.48064 0.53006 0.71268 0.0
N436 N 0.48361 0.52201 0.83037 0.0
C437 C 0.48775 0.50878 0.96583 0.0
C438 C 0.49466 0.5382 0.87485 0.0
C439 C 0.49756 0.53155 0.9427 0.0
H440 H 0.43585 0.49286 0.65157 0.0
H441 H 0.50705 0.54413 0.97726 0.0
H442 H 0.58969 0.52236 0.70878 0.0
H443 H 0.52785 0.5517 0.35004 0.0
H444 H 0.50124 0.55636 0.85819 0.0
H445 H 0.48968 0.50382 0.01861 0.0
H446 H 0.52113 0.52167 0.44406 0.0
H447 H 0.41002 0.45644 0.68806 0.0
H448 H 0.46315 0.46558 0.99555 0.0
H449 H 0.43589 0.44211 0.91729 0.0
H450 H 0.62186 0.55464 0.73007 0.0
H451 H 0.41531 0.43903 0.80309 0.0
H452 H 0.5581 0.58675 0.36349 0.0
N453 N 0.57463 0.54073 0.6224 0.0
C454 C 0.57846 0.55895 0.57547 0.0
C455 C 0.60951 0.55632 0.68691 0.0
C456 C 0.59736 0.57729 0.58401 0.0
C457 C 0.59081 0.53833 0.67548 0.0
C458 C 0.61251 0.57617 0.64161 0.0
N459 N 0.54696 0.53997 0.50932 0.0
C460 C 0.53444 0.53689 0.44976 0.0
C461 C 0.56891 0.57585 0.46471 0.0
C462 C 0.56449 0.55829 0.5166 0.0
C463 C 0.55528 0.57359 0.40452 0.0
C464 C 0.53819 0.55383 0.39672 0.0
H465 H 0.62722 0.58991 0.65011 0.0
H466 H 0.61546 0.60986 0.53965 0.0
H467 H 0.59073 0.60839 0.43481 0.0
O468 O 0.5423 0.48192 0.5295 0.0
O469 O 0.51803 0.54767 0.57874 0.0
O470 O 0.50726 0.56174 0.68312 0.0
O471 O 0.57621 0.49351 0.58019 0.0
O472 O 0.50337 0.49827 0.55921 0.0
O473 O 0.47483 0.52691 0.59972 0.0
O474 O 0.45574 0.5563 0.76478 0.0
O475 O 0.4888 0.48873 0.68918 0.0
O476 O 0.53151 0.48741 0.69037 0.0
O477 O 0.44756 0.54482 0.66296 0.0
O478 O 0.51873 0.54466 0.74966 0.0
O479 O 0.5456 0.5136 0.71604 0.0
C480 C 0.51406 0.56624 0.62062 0.0
C481 C 0.56831 0.44985 0.5681 0.0
C482 C 0.55253 0.407 0.56395 0.0
C483 C 0.56573 0.40133 0.62316 0.0
C484 C 0.5817 0.44396 0.62725 0.0
C485 C 0.58057 0.41971 0.65409 0.0
C486 C 0.5544 0.43099 0.53582 0.0
C487 C 0.48143 0.50957 0.5562 0.0
C488 C 0.56522 0.47597 0.54513 0.0
C489 C 0.60115 0.59552 0.53374 0.0
C490 C 0.58705 0.59471 0.47405 0.0
C491 C 0.50974 0.47666 0.70155 0.0
C492 C 0.43856 0.5865 0.68877 0.0
C493 C 0.44638 0.63136 0.70143 0.0
C494 C 0.43316 0.63581 0.64128 0.0
C495 C 0.42529 0.59135 0.62886 0.0
C496 C 0.44903 0.60662 0.72476 0.0
C497 C 0.42275 0.61586 0.60519 0.0
C498 C 0.53909 0.53124 0.75899 0.0
C499 C 0.44222 0.56037 0.71104 0.0
H500 H 0.5646 0.38278 0.64517 0.0
H501 H 0.59236 0.45817 0.65392 0.0
H502 H 0.59069 0.41534 0.69994 0.0
H503 H 0.54368 0.43538 0.49079 0.0
H504 H 0.43081 0.65469 0.62229 0.0
H505 H 0.41708 0.57613 0.59998 0.0
H506 H 0.45889 0.6031 0.77164 0.0
H507 H 0.41261 0.6194 0.55884 0.0
Eu508 Eu 0.026 0.55073 0.58902 0.0
C509 C 0.04752 0.45026 0.72268 0.0
N510 N 0.03135 0.45566 0.67158 0.0
C511 C 0.04688 0.42074 0.60809 0.0
C512 C 0.06483 0.43045 0.71689 0.0
C513 C 0.02989 0.44035 0.61646 0.0
C514 C 0.06473 0.41603 0.65796 0.0
C515 C 0.06218 0.4584 0.83677 0.0
C516 C 0.04611 0.46389 0.78223 0.0
C517 C 0.08003 0.43931 0.83016 0.0
C518 C 0.08132 0.42534 0.77044 0.0
Eu519 Eu 1.00395 0.48983 0.69069 0.0
N520 N 0.02881 0.4824 0.78711 0.0
C521 C 0.05955 0.47203 0.89671 0.0
C522 C 0.02523 0.49485 0.84649 0.0
C523 C 0.04081 0.49014 0.90182 0.0
H524 H 0.01524 0.4427 0.57949 0.0
H525 H 0.0383 0.5004 0.9484 0.0
H526 H 0.9926 0.59645 0.65863 0.0
H527 H 0.03269 0.52558 0.32115 0.0
H528 H 0.01061 0.50868 0.8507 0.0
H529 H 0.07156 0.46838 0.93972 0.0
H530 H 0.04782 0.52944 0.43812 0.0
H531 H 0.04588 0.40897 0.56378 0.0
H532 H 0.09268 0.43495 0.8713 0.0
H533 H 0.09491 0.41039 0.76653 0.0
H534 H 0.95643 0.62355 0.62983 0.0
H535 H 0.07774 0.40069 0.65153 0.0
H536 H 0.99285 0.54557 0.28717 0.0
N537 N 0.99265 0.57809 0.5636 0.0
C538 C 0.98303 0.57701 0.50032 0.0
C539 C 0.96364 0.61045 0.59307 0.0
C540 C 0.96233 0.59183 0.48178 0.0
C541 C 0.98408 0.59521 0.60919 0.0
C542 C 0.95245 0.60846 0.52943 0.0
N543 N 0.01556 0.54912 0.47237 0.0
C544 C 0.02989 0.5374 0.4249 0.0
C545 C 0.98564 0.56072 0.38659 0.0
C546 C 0.99458 0.5617 0.45355 0.0
C547 C 0.99911 0.54683 0.33911 0.0
C548 C 0.02159 0.53552 0.35809 0.0
H549 H 0.93652 0.62015 0.51719 0.0
H550 H 0.93646 0.60093 0.40111 0.0
H551 H 0.9568 0.57358 0.3177 0.0
O552 O 0.05139 0.57597 0.53447 0.0
O553 O 0.98448 0.54411 0.61357 0.0
O554 O 0.98052 0.50201 0.60076 0.0
O555 O 0.04573 0.58088 0.64129 0.0
O556 O 0.03915 0.51275 0.54812 0.0
O557 O 1.00615 0.48693 0.57629 0.0
O558 O 0.96868 0.48743 0.74591 0.0
O559 O 0.0403 0.51014 0.71873 0.0
O560 O 0.05605 0.5226 0.61714 0.0
O561 O 0.98672 0.45309 0.71005 0.0
O562 O 0.99208 0.52671 0.74003 0.0
O563 O 0.02186 0.55533 0.7025 0.0
C564 C 0.97138 0.5246 0.59356 0.0
C565 C 0.08642 0.587 0.6021 0.0
C566 C 0.12688 0.566 0.59615 0.0
C567 C 0.13736 0.58482 0.63718 0.0
C568 C 0.09712 0.60561 0.6431 0.0
C569 C 0.12249 0.60447 0.66057 0.0
C570 C 0.10134 0.56717 0.57918 0.0
C571 C 0.0249 0.49297 0.53634 0.0
C572 C 0.05926 0.58696 0.58932 0.0
C573 C 0.95256 0.58994 0.41614 0.0
C574 C 0.96414 0.57435 0.36868 0.0
C575 C 0.05943 0.51431 0.6787 0.0
C576 C 0.9469 0.44826 0.7684 0.0
C577 C 0.90353 0.44632 0.80602 0.0
C578 C 0.90549 0.42016 0.81275 0.0
C579 C 0.94865 0.42211 0.77488 0.0
C580 C 0.92439 0.46019 0.78429 0.0
C581 C 0.92799 0.40817 0.79724 0.0
C582 C 1.00471 0.548 0.74632 0.0
C583 C 0.96763 0.4631 0.74029 0.0
H584 H 0.15699 0.58426 0.65127 0.0
H585 H 0.08576 0.62077 0.66244 0.0
H586 H 0.13064 0.61881 0.69253 0.0
H587 H 0.0931 0.55273 0.54755 0.0
H588 H 0.88963 0.40904 0.82964 0.0
H589 H 0.96584 0.41247 0.76223 0.0
H590 H 0.92307 0.48041 0.77977 0.0
H591 H 0.92939 0.38801 0.8022 0.0
C592 C 0.13078 0.03552 0.2101 0.0
C593 C 0.14704 0.05629 0.21267 0.0
C594 C 0.1127 0.03134 0.26098 0.0
C595 C 0.11105 0.04808 0.31643 0.0
C596 C 0.12749 0.06901 0.31928 0.0
C597 C 0.14513 0.07287 0.26749 0.0
C598 C 0.09541 1.00893 0.25557 0.0
C599 C 0.12679 0.08711 0.37782 0.0
C600 C 0.05276 0.04964 0.42958 0.0
C601 C 0.06025 0.03471 0.48436 0.0
C602 C 0.06885 0.05381 0.37404 0.0
C603 C 0.09316 0.04307 0.37342 0.0
C604 C 0.10081 0.02813 0.42873 0.0
C605 C 0.08432 0.02407 0.483 0.0
C606 C 0.05986 0.06975 0.31603 0.0
C607 C 0.12662 0.01661 0.43107 0.0
H608 H 0.13197 0.02272 0.16779 0.0
H609 H 0.15784 0.08876 0.27059 0.0
H610 H 0.09863 0.99607 0.2987 0.0
H611 H 0.07558 0.01507 0.25819 0.0
H612 H 0.09822 0.99836 0.20791 0.0
H613 H 0.14041 0.10279 0.37179 0.0
H614 H 0.10772 0.09506 0.38315 0.0
H615 H 0.13111 0.07705 0.42545 0.0
H616 H 0.03426 0.05795 0.42977 0.0
H617 H 0.09053 0.01259 0.52485 0.0
H618 H 0.0613 0.05913 0.26807 0.0
H619 H 0.07198 0.08662 0.31106 0.0
H620 H 0.04014 0.0759 0.3227 0.0
H621 H 0.12947 1.00442 0.38644 0.0
H622 H 0.12964 1.00526 0.47738 0.0
H623 H 0.14113 0.03158 0.42912 0.0
C624 C 0.50527 0.1656 0.30077 0.0
C625 C 0.49455 0.1592 0.23827 0.0
C626 C 0.50921 0.14748 0.35128 0.0
C627 C 0.50187 0.12226 0.34014 0.0
C628 C 0.49164 0.11547 0.27659 0.0
C629 C 0.48833 0.13391 0.22643 0.0
C630 C 0.52085 0.15547 0.41722 0.0
C631 C 0.48421 0.08874 0.26094 0.0
C632 C 0.52681 0.06997 0.45366 0.0
C633 C 0.5075 0.06742 0.50122 0.0
C634 C 0.52547 0.08796 0.4017 0.0
C635 C 0.50396 0.10332 0.3959 0.0
C636 C 0.48426 0.10053 0.44352 0.0
C637 C 0.48642 0.08285 0.49599 0.0
C638 C 0.54714 0.09058 0.35324 0.0
C639 C 0.46077 0.11608 0.43879 0.0
H640 H 0.5099 0.18501 0.31133 0.0
H641 H 0.48062 0.12849 0.17795 0.0
H642 H 0.5069 0.15339 0.45834 0.0
H643 H 0.53698 0.14322 0.42945 0.0
H644 H 0.52747 0.17526 0.41619 0.0
H645 H 0.47067 0.08772 0.21837 0.0
H646 H 0.50116 0.0781 0.2463 0.0
H647 H 0.47583 0.07928 0.30547 0.0
H648 H 0.54323 0.05818 0.45784 0.0
H649 H 0.47135 0.08075 0.53227 0.0
H650 H 0.55361 0.11038 0.35132 0.0
H651 H 0.54095 0.08536 0.30167 0.0
H652 H 0.56325 0.07855 0.3675 0.0
H653 H 0.4654 0.13605 0.44849 0.0
H654 H 0.44625 0.11002 0.47563 0.0
H655 H 0.45276 0.11488 0.38716 0.0
C656 C 0.38843 0.50142 0.23418 0.0
C657 C 0.37203 0.48086 0.24035 0.0
C658 C 0.40776 0.50564 0.28167 0.0
C659 C 0.41059 0.48916 0.33744 0.0
C660 C 0.39421 0.46829 0.3435 0.0
C661 C 0.37529 0.46437 0.29503 0.0
C662 C 0.42495 0.52796 0.27275 0.0
C663 C 0.39615 0.45044 0.40247 0.0
C664 C 0.47056 0.48887 0.44467 0.0
C665 C 0.46371 0.50407 0.49944 0.0
C666 C 0.45372 0.48418 0.39097 0.0
C667 C 0.42932 0.4947 0.39219 0.0
C668 C 0.42234 0.50997 0.44741 0.0
C669 C 0.43954 0.51451 0.49983 0.0
C670 C 0.46199 0.46786 0.33304 0.0
C671 C 0.3965 0.52134 0.45171 0.0
H672 H 0.38622 0.51416 0.19198 0.0
H673 H 0.3625 0.44867 0.30111 0.0
H674 H 0.42224 0.54132 0.31497 0.0
H675 H 0.44482 0.52189 0.27419 0.0
H676 H 0.42151 0.53797 0.22446 0.0
H677 H 0.38265 0.43456 0.39857 0.0
H678 H 0.4154 0.44275 0.40583 0.0
H679 H 0.39248 0.46064 0.45021 0.0
H680 H 0.48913 0.48073 0.44348 0.0
H681 H 0.43381 0.52621 0.54162 0.0
H682 H 0.45943 0.47795 0.28454 0.0
H683 H 0.45019 0.45069 0.33094 0.0
H684 H 0.48195 0.46221 0.3376 0.0
H685 H 0.3929 0.53316 0.40671 0.0
H686 H 0.39407 0.53303 0.49761 0.0
H687 H 0.38208 0.50625 0.45216 0.0
C688 C 0.0457 0.40528 0.2069 0.0
C689 C 0.0454 0.38027 0.22907 0.0
C690 C 0.04297 0.4253 0.25278 0.0
C691 C 0.04049 0.42027 0.32277 0.0
C692 C 0.04052 0.39503 0.34532 0.0
C693 C 0.04272 0.37541 0.29829 0.0
C694 C 0.04265 0.45184 0.2264 0.0
C695 C 0.03875 0.38873 0.41943 0.0
C696 C 0.05368 0.47092 0.45537 0.0
C697 C 0.02935 0.47689 0.47642 0.0
C698 C 0.05769 0.45304 0.40405 0.0
C699 C 0.03686 0.44117 0.37244 0.0
C700 C 0.01227 0.44821 0.39145 0.0
C701 C 0.00885 0.46574 0.44348 0.0
C702 C 0.08425 0.44599 0.38642 0.0
C703 C 0.98949 0.43657 0.35846 0.0
H704 H 0.04787 0.40916 0.1535 0.0
H705 H 0.04304 0.35617 0.31593 0.0
H706 H 0.02481 0.46103 0.24079 0.0
H707 H 0.05812 0.46285 0.24963 0.0
H708 H 0.04465 0.45267 0.17064 0.0
H709 H 0.03801 0.36819 0.42867 0.0
H710 H 0.05533 0.39659 0.44605 0.0
H711 H 0.02182 0.39738 0.44191 0.0
H712 H 0.06958 0.47933 0.48113 0.0
H713 H 0.98999 0.47047 0.45925 0.0
H714 H 0.08657 0.44378 0.33113 0.0
H715 H 0.08873 0.42773 0.4103 0.0
H716 H 0.09799 0.46017 0.40467 0.0
H717 H 0.99102 0.43787 0.30272 0.0
H718 H 0.97179 0.44571 0.3745 0.0
H719 H 0.98838 0.41638 0.37174 0.0
C720 C 0.8816 0.99106 0.03295 0.0
C721 C 0.88903 0.99845 0.09811 0.0
C722 C 0.89863 0.99102 0.9786 0.0
C723 C 0.9239 0.9984 0.9892 0.0
C724 C 0.93182 1.00485 0.05533 0.0
C725 C 0.91432 1.00493 0.10876 0.0
C726 C 0.88922 0.98423 0.90903 0.0
C727 C 0.95862 0.01256 0.06922 0.0
C728 C 0.9712 0.98398 0.84895 0.0
C729 C 0.97238 1.00692 0.81431 0.0
C730 C 0.956 0.98101 0.90675 0.0
C731 C 0.94136 1.00137 0.93019 0.0
C732 C 0.94271 0.02461 0.89562 0.0
C733 C 0.9582 0.0271 0.83857 0.0
C734 C 0.9553 0.95597 0.94215 0.0
C735 C 0.92744 0.04684 0.91821 0.0
H736 H 0.8621 0.98641 0.02357 0.0
H737 H 0.92038 0.01045 0.15883 0.0
H738 H 0.89011 1.00097 0.87579 0.0
H739 H 0.90134 0.9697 0.88613 0.0
H740 H 0.86958 0.97716 0.90983 0.0
H741 H 0.96243 0.01464 0.12406 0.0
H742 H 0.97175 0.99856 0.04802 0.0
H743 H 0.96267 0.03072 0.04404 0.0
H744 H 0.98186 0.9682 0.83023 0.0
H745 H 0.95906 0.04497 0.81252 0.0
H746 H 0.93615 0.94782 0.93882 0.0
H747 H 0.9597 0.9584 0.9965 0.0
H748 H 0.96878 0.94245 0.92007 0.0
H749 H 0.90716 0.04213 0.91574 0.0
H750 H 0.93095 0.06373 0.88669 0.0
H751 H 0.93187 0.05147 0.97147 0.0
C752 C 0.52429 0.915 0.10089 0.0
C753 C 0.52961 0.88951 0.09111 0.0
C754 C 0.52506 0.93217 0.04681 0.0
C755 C 0.53069 0.9236 0.98087 0.0
C756 C 0.53691 0.89804 0.97117 0.0
C757 C 0.53647 0.88138 0.02638 0.0
C758 C 0.51917 0.95938 0.05986 0.0
C759 C 0.54297 0.88808 0.90186 0.0
C760 C 0.50339 0.96075 0.83367 0.0
C761 C 0.52424 0.97431 0.81028 0.0
C762 C 0.50535 0.94401 0.8883 0.0
C763 C 0.52869 0.94101 0.9216 0.0
C764 C 0.54986 0.95468 0.89819 0.0
C765 C 0.54736 0.97113 0.84286 0.0
C766 C 0.48238 0.92949 0.91025 0.0
C767 C 0.57513 0.95237 0.93189 0.0
H768 H 0.51908 0.92144 0.15081 0.0
H769 H 0.54028 0.86167 0.01819 0.0
H770 H 0.53447 0.97148 0.03998 0.0
H771 H 0.50171 0.9646 0.03287 0.0
H772 H 0.51667 0.96339 0.11445 0.0
H773 H 0.54934 0.86829 0.90331 0.0
H774 H 0.52601 0.88918 0.86957 0.0
H775 H 0.55776 0.89973 0.87772 0.0
H776 H 0.48536 0.96339 0.80957 0.0
H777 H 0.56362 0.98124 0.82434 0.0
H778 H 0.47788 0.93392 0.96357 0.0
H779 H 0.48613 0.90907 0.90739 0.0
H780 H 0.46572 0.93371 0.87859 0.0
H781 H 0.57856 0.93307 0.95043 0.0
H782 H 0.57585 0.96521 0.97592 0.0
H783 H 0.59051 0.95762 0.8969 0.0
C784 C 0.61188 0.54177 0.11523 0.0
C785 C 0.63708 0.54888 0.10568 0.0
C786 C 0.59487 0.54062 0.06074 0.0
C787 C 0.60311 0.5467 0.99467 0.0
C788 C 0.6282 0.55488 0.98509 0.0
C789 C 0.64481 0.55585 0.04042 0.0
C790 C 0.56829 0.53193 0.07349 0.0
C791 C 0.63787 0.56153 0.91569 0.0
C792 C 0.57019 0.51597 0.8445 0.0
C793 C 0.55498 0.53537 0.82005 0.0
C794 C 0.58569 0.51939 0.90128 0.0
C795 C 0.58611 0.54282 0.93502 0.0
C796 C 0.57065 0.56246 0.91086 0.0
C797 C 0.55536 0.55853 0.85363 0.0
C798 C 0.60177 0.49788 0.92493 0.0
C799 C 0.57044 0.5877 0.94511 0.0
H800 H 0.60554 0.53659 0.1653 0.0
H801 H 0.66425 0.56095 0.03178 0.0
H802 H 0.55478 0.54541 0.05154 0.0
H803 H 0.56506 0.51362 0.04829 0.0
H804 H 0.56421 0.52974 0.12816 0.0
H805 H 0.6572 0.5694 0.91723 0.0
H806 H 0.63792 0.54453 0.88344 0.0
H807 H 0.62535 0.57537 0.89123 0.0
H808 H 0.56995 0.49796 0.81919 0.0
H809 H 0.54392 0.57372 0.83467 0.0
H810 H 0.59732 0.49326 0.97821 0.0
H811 H 0.62186 0.50338 0.92295 0.0
H812 H 0.59905 0.48076 0.89382 0.0
H813 H 0.56551 0.58546 0.99917 0.0
H814 H 0.5569 0.6008 0.9214 0.0
H815 H 0.58944 0.59626 0.94298 0.0
C816 C 1.00516 0.62293 0.09808 0.0
C817 C 0.9933 0.64636 0.09313 0.0
C818 C 1.00465 0.60562 0.04441 0.0
C819 C 0.99173 0.61159 0.98403 0.0
C820 C 0.97837 0.63448 0.98026 0.0
C821 C 0.97937 0.65157 0.03456 0.0
C822 C 0.01918 0.58153 0.05104 0.0
C823 C 0.96412 0.64158 0.9173 0.0
C824 C 0.01724 0.58427 0.82006 0.0
C825 C 1.00082 0.56411 0.80722 0.0
C826 C 0.01438 0.59972 0.87698 0.0
C827 C 0.99445 0.59523 0.92273 0.0
C828 C 0.97765 0.57502 0.91009 0.0
C829 C 0.98109 0.55966 0.85277 0.0
C830 C 0.03294 0.6208 0.88836 0.0
C831 C 0.95605 0.56965 0.95715 0.0
H832 H 0.01558 0.61839 0.1434 0.0
H833 H 0.97028 0.66959 0.02953 0.0
H834 H 1.00731 0.56527 0.0364 0.0
H835 H 0.03548 0.58199 0.01626 0.0
H836 H 0.0262 0.57851 0.10321 0.0
H837 H 0.95225 0.65838 0.92511 0.0
H838 H 0.97757 0.64564 0.87596 0.0
H839 H 0.95201 0.62579 0.90048 0.0
H840 H 0.03266 0.58797 0.78581 0.0
H841 H 0.96824 0.54422 0.84355 0.0
H842 H 0.0425 0.61827 0.93764 0.0
H843 H 0.02298 0.63899 0.89029 0.0
H844 H 0.04742 0.62184 0.84814 0.0
H845 H 0.96325 0.56537 0.0084 0.0
H846 H 0.94433 0.55362 0.93973 0.0
H847 H 0.94401 0.58646 0.96157 0.0
C848 C 0.05412 0.19932 0.32282 0.0
C849 C 0.06955 0.22022 0.33494 0.0
C850 C 0.04317 0.18593 0.37603 0.0
C851 C 0.04753 0.1937 0.44335 0.0
C852 C 0.06425 0.2138 0.45643 0.0
C853 C 0.07508 0.22687 0.40199 0.0
C854 C 0.0257 0.16433 0.35979 0.0
C855 C 0.0697 0.22231 0.52759 0.0
C856 C 0.99088 0.17623 0.54672 0.0
C857 C 0.99764 0.15231 0.56899 0.0
C858 C 1.00805 0.19128 0.51136 0.0
C859 C 0.03246 0.1821 0.49831 0.0
C860 C 0.04022 0.15925 0.52785 0.0
C861 C 0.02262 0.14455 0.56273 0.0
C862 C 0.99915 0.21576 0.48175 0.0
C863 C 0.06624 0.14904 0.51704 0.0
H864 H 0.04936 0.19418 0.27147 0.0
H865 H 0.08732 0.24273 0.41194 0.0
H866 H 0.03125 0.14737 0.38847 0.0
H867 H 1.00629 0.16914 0.37512 0.0
H868 H 0.0256 0.15966 0.30516 0.0
H869 H 0.08638 0.23485 0.52994 0.0
H870 H 0.05332 0.23269 0.54744 0.0
H871 H 0.07281 0.206 0.56134 0.0
H872 H 0.97161 0.18233 0.55189 0.0
H873 H 0.02801 0.12624 0.58144 0.0
H874 H 0.99608 0.21341 0.42669 0.0
H875 H 0.01348 0.23067 0.48864 0.0
H876 H 0.98128 0.22203 0.50493 0.0
H877 H 0.06693 0.13931 0.4676 0.0
H878 H 0.07132 0.13531 0.55693 0.0
H879 H 0.08047 0.16429 0.5163 0.0
C880 C 0.32823 0.07696 0.26069 0.0
C881 C 0.3258 0.08156 0.19128 0.0
C882 C 0.34899 0.06398 0.28615 0.0
C883 C 0.3678 0.05571 0.24115 0.0
C884 C 0.36673 0.06254 0.17229 0.0
C885 C 0.34564 0.07525 0.14802 0.0
C886 C 0.34991 0.05757 0.36033 0.0
C887 C 0.38688 0.05472 0.12324 0.0
C888 C 0.42761 0.02756 0.31143 0.0
C889 C 0.42217 1.00178 0.30787 0.0
C890 C 0.41005 0.04545 0.29061 0.0
C891 C 0.38675 0.03733 0.26422 0.0
C892 C 0.38131 0.01135 0.25947 0.0
C893 C 0.39908 0.9939 0.28146 0.0
C894 C 0.41668 0.07293 0.29638 0.0
C895 C 0.35653 1.00198 0.23204 0.0
H896 H 0.31323 0.08229 0.29459 0.0
H897 H 0.34395 0.07852 0.09424 0.0
H898 H 0.34699 0.03709 0.36695 0.0
H899 H 0.3686 0.06229 0.38162 0.0
H900 H 0.33531 0.06759 0.38964 0.0
H901 H 0.38483 0.06405 0.0734 0.0
H902 H 0.40572 0.05919 0.1439 0.0
H903 H 0.38592 0.03413 0.11552 0.0
H904 H 0.44564 0.03379 0.33069 0.0
H905 H 0.39465 0.97405 0.27948 0.0
H906 H 0.40016 0.08438 0.31012 0.0
H907 H 0.42369 0.07973 0.24692 0.0
H908 H 0.43155 0.07614 0.33471 0.0
H909 H 0.3409 1.00948 0.26287 0.0
H910 H 0.35523 0.98119 0.23189 0.0
H911 H 0.35385 1.00883 0.17965 0.0
C912 C 0.45189 0.33545 0.34132 0.0
C913 C 0.45833 0.31007 0.33471 0.0
C914 C 0.46423 0.35094 0.3881 0.0
C915 C 0.48297 0.34063 0.43025 0.0
C916 C 0.48736 0.31454 0.42948 0.0
C917 C 0.47524 0.29961 0.38121 0.0
C918 C 0.45875 0.37869 0.3883 0.0
C919 C 0.50657 0.30274 0.47545 0.0
C920 C 0.5401 0.38079 0.46626 0.0
C921 C 0.53557 0.38862 0.53234 0.0
C922 C 0.52298 0.36523 0.43264 0.0
C923 C 0.50079 0.3574 0.46615 0.0
C924 C 0.49607 0.36543 0.53301 0.0
C925 C 0.51359 0.38106 0.56537 0.0
C926 C 0.52853 0.35743 0.36091 0.0
C927 C 0.47272 0.35748 0.57056 0.0
H928 H 0.43824 0.34358 0.30732 0.0
H929 H 0.48057 0.28011 0.37697 0.0
H930 H 0.45672 0.38569 0.4407 0.0
H931 H 0.47469 0.38897 0.36497 0.0
H932 H 0.44143 0.3832 0.35964 0.0
H933 H 0.50487 0.28197 0.47644 0.0
H934 H 0.52569 0.30775 0.45768 0.0
H935 H 0.50458 0.30994 0.52767 0.0
H936 H 0.55696 0.38714 0.44068 0.0
H937 H 0.50981 0.38805 0.61566 0.0
H938 H 0.51302 0.36333 0.32715 0.0
H939 H 0.52983 0.33671 0.35782 0.0
H940 H 0.54633 0.36567 0.34175 0.0
H941 H 0.45607 0.35717 0.53698 0.0
H942 H 0.4688 0.37006 0.6139 0.0
H943 H 0.47534 0.33819 0.59029 0.0
C944 C 0.21484 0.46657 0.40605 0.0
C945 C 0.2075 0.46925 0.33832 0.0
C946 C 0.20115 0.47792 0.45819 0.0
C947 C 0.17984 0.49238 0.44194 0.0
C948 C 0.17112 0.49326 0.37447 0.0
C949 C 0.18508 0.48172 0.32347 0.0
C950 C 0.21039 0.47581 0.52997 0.0
C951 C 0.14806 0.50799 0.35535 0.0
C952 C 0.13399 0.52113 0.56506 0.0
C953 C 0.14266 0.54598 0.56712 0.0
C954 C 0.1469 0.50275 0.5286 0.0
C955 C 0.16876 0.50962 0.49244 0.0
C956 C 0.17838 0.53438 0.49766 0.0
C957 C 0.16529 0.55221 0.53542 0.0
C958 C 0.13674 0.47628 0.52738 0.0
C959 C 0.2015 0.54257 0.45931 0.0
H960 H 0.23185 0.45645 0.41803 0.0
H961 H 0.17929 0.48399 0.2714 0.0
H962 H 0.21882 0.49392 0.54592 0.0
H963 H 0.19455 0.47173 0.56463 0.0
H964 H 0.22474 0.46093 0.53564 0.0
H965 H 0.14264 0.50512 0.30175 0.0
H966 H 0.13199 0.50249 0.38782 0.0
H967 H 0.15164 0.52829 0.36352 0.0
H968 H 0.11661 0.51627 0.59006 0.0
H969 H 0.17195 0.57145 0.53653 0.0
H970 H 0.14929 0.46404 0.55738 0.0
H971 H 0.13629 0.4688 0.4752 0.0
H972 H 0.11756 0.47498 0.54914 0.0
H973 H 0.21728 0.52965 0.46954 0.0
H974 H 0.20751 0.56192 0.47264 0.0
H975 H 0.19763 0.54191 0.40428 0.0
C976 C 0.04306 0.83009 0.01932 0.0
C977 C 0.0314 0.80663 0.01209 0.0
C978 C 0.0471 0.84564 0.96344 0.0
C979 C 0.03901 0.83764 0.89886 0.0
C980 C 0.02613 0.81456 0.89157 0.0
C981 C 0.02262 0.79921 0.94831 0.0
C982 C 0.06083 0.87023 0.97321 0.0
C983 C 0.01696 0.80565 0.82355 0.0
C984 C 0.03973 0.88933 0.76816 0.0
C985 C 0.06352 0.88605 0.73945 0.0
C986 C 0.03072 0.8728 0.81762 0.0
C987 C 0.04598 0.85266 0.83878 0.0
C988 C 0.06938 0.84844 0.80716 0.0
C989 C 0.07785 0.86519 0.75767 0.0
C990 C 1.00545 0.87753 0.84935 0.0
C991 C 0.08627 0.82725 0.82881 0.0
H992 H 0.04929 0.83621 0.06875 0.0
H993 H 0.01369 0.78104 0.9423 0.0
H994 H 0.07886 0.86988 0.94528 0.0
H995 H 0.04961 0.8859 0.95242 0.0
H996 H 0.06486 0.87418 0.0272 0.0
H997 H 1.00449 0.78897 0.8278 0.0
H998 H 1.00665 0.8208 0.79722 0.0
H999 H 0.03324 0.80066 0.79153 0.0
H1000 H 0.02848 0.90527 0.75333 0.0
H1001 H 0.09635 0.86274 0.73608 0.0
H1002 H 1.00767 0.88102 0.90422 0.0
H1003 H 0.9933 0.86071 0.84368 0.0
H1004 H 0.99578 0.89387 0.82649 0.0
H1005 H 0.09298 0.83068 0.88105 0.0
H1006 H 0.10285 0.8253 0.79533 0.0
H1007 H 0.07576 0.80925 0.8291 0.0
C1008 C 0.71208 0.02024 0.98588 0.0
C1009 C 0.71673 1.00532 0.04294 0.0
C1010 C 0.68775 0.02257 0.95991 0.0
C1011 C 0.66799 1.00877 0.98998 0.0
C1012 C 0.67334 0.99055 0.03959 0.0
C1013 C 0.69755 0.98938 0.06658 0.0
C1014 C 0.68285 0.04208 0.90632 0.0
C1015 C 0.6529 0.97448 0.07022 0.0
C1016 C 0.60689 0.04161 0.02487 0.0
C1017 C 0.59131 0.03179 0.97457 0.0
C1018 C 0.6321 0.03476 0.02876 0.0
C1019 C 0.64181 0.01725 0.9819 0.0
C1020 C 0.62625 1.00739 0.93051 0.0
C1021 C 0.60115 0.01498 0.92718 0.0
C1022 C 0.64833 0.04623 0.08335 0.0
C1023 C 0.63581 0.98841 0.88036 0.0
H1024 H 0.72699 0.03167 0.96473 0.0
H1025 H 0.70057 0.97751 0.11011 0.0
H1026 H 0.66824 0.03572 0.87027 0.0
H1027 H 0.67596 0.05942 0.93087 0.0
H1028 H 0.70017 0.04683 0.87777 0.0
H1029 H 0.6607 0.95779 0.09624 0.0
H1030 H 0.64236 0.98566 0.10783 0.0
H1031 H 0.63942 0.96811 0.03105 0.0
H1032 H 0.59945 0.05509 0.06046 0.0
H1033 H 0.58912 1.00757 0.88798 0.0
H1034 H 0.6655 0.05462 0.06092 0.0
H1035 H 0.65434 0.03148 0.11928 0.0
H1036 H 0.63836 0.06099 0.11217 0.0
H1037 H 0.65461 0.99376 0.86112 0.0
H1038 H 0.62286 0.98613 0.83679 0.0
H1039 H 0.63774 0.96999 0.90585 0.0
C1040 C 0.47031 0.71226 0.01883 0.0
C1041 C 0.48299 0.7352 0.01222 0.0
C1042 C 0.46653 0.69665 0.96298 0.0
C1043 C 0.47572 0.70415 0.899 0.0
C1044 C 0.48891 0.72707 0.89207 0.0
C1045 C 0.49235 0.7424 0.94886 0.0
C1046 C 0.45249 0.6722 0.97236 0.0
C1047 C 0.49896 0.7356 0.82457 0.0
C1048 C 0.4794 0.6506 0.77482 0.0
C1049 C 0.45602 0.65239 0.74277 0.0
C1050 C 0.48687 0.66829 0.82311 0.0
C1051 C 0.47054 0.68821 0.83937 0.0
C1052 C 0.44775 0.69111 0.80366 0.0
C1053 C 0.44074 0.67312 0.7557 0.0
C1054 C 0.5115 0.66482 0.85953 0.0
C1055 C 0.42989 0.71217 0.81954 0.0
H1056 H 0.46349 0.70641 0.06794 0.0
H1057 H 0.502 0.76022 0.94347 0.0
H1058 H 0.43527 0.67215 0.94087 0.0
H1059 H 0.46425 0.65631 0.9554 0.0
H1060 H 0.44701 0.66893 0.02574 0.0
H1061 H 0.51028 0.75308 0.82863 0.0
H1062 H 0.51076 0.72075 0.80188 0.0
H1063 H 0.48315 0.73898 0.78935 0.0
H1064 H 0.49147 0.63483 0.76385 0.0
H1065 H 0.42259 0.6745 0.73135 0.0
H1066 H 0.50794 0.66073 0.9136 0.0
H1067 H 0.5228 0.68232 0.85716 0.0
H1068 H 0.52269 0.64924 0.83802 0.0
H1069 H 0.42151 0.70904 0.87013 0.0
H1070 H 0.41446 0.71348 0.78201 0.0
H1071 H 0.44002 0.73038 0.82112 0.0
C1072 C 0.77829 0.5059 0.94311 0.0
C1073 C 0.78618 0.52251 0.99384 0.0
C1074 C 0.79525 0.49746 0.89443 0.0
C1075 C 0.82054 0.50532 0.89841 0.0
C1076 C 0.82746 0.52505 0.9423 0.0
C1077 C 0.81 0.53365 0.98936 0.0
C1078 C 0.78692 0.47785 0.8443 0.0
C1079 C 0.85407 0.5348 0.94541 0.0
C1080 C 0.86879 0.45413 0.8865 0.0
C1081 C 0.88039 0.45963 0.825 0.0
C1082 C 0.84886 0.46864 0.90984 0.0
C1083 C 0.84031 0.48909 0.87042 0.0
C1084 C 0.85146 0.49434 0.80732 0.0
C1085 C 0.8713 0.47935 0.78498 0.0
C1086 C 0.83767 0.46267 0.97813 0.0
C1087 C 0.84279 0.51571 0.76332 0.0
H1088 H 0.75973 0.49755 0.94515 0.0
H1089 H 0.81576 0.54738 0.02669 0.0
H1090 H 0.79585 0.48119 0.79446 0.0
H1091 H 0.79282 0.45907 0.86228 0.0
H1092 H 0.76622 0.47768 0.83795 0.0
H1093 H 0.85546 0.55261 0.97427 0.0
H1094 H 0.86612 0.52065 0.97043 0.0
H1095 H 0.86158 0.53795 0.89386 0.0
H1096 H 0.87602 0.43915 0.91784 0.0
H1097 H 0.88004 0.4834 0.73675 0.0
H1098 H 0.8173 0.45876 0.97297 0.0
H1099 H 0.83984 0.47904 0.01223 0.0
H1100 H 0.84662 0.44619 1.00236 0.0
H1101 H 0.82878 0.50845 0.72671 0.0
H1102 H 0.85875 0.52382 0.73456 0.0
H1103 H 0.83386 0.53099 0.79245 0.0
C1104 C 0.03113 0.20645 0.82797 0.0
C1105 C 0.03705 0.20487 0.89694 0.0
C1106 C 0.02703 0.18467 0.78895 0.0
C1107 C 0.02948 0.16067 0.81912 0.0
C1108 C 0.03555 0.15904 0.88866 0.0
C1109 C 0.03899 0.18107 0.92669 0.0
C1110 C 0.02017 0.18732 0.71539 0.0
C1111 C 0.03899 0.13395 0.92268 0.0
C1112 C 1.00039 0.10091 0.74649 0.0
C1113 C 0.02116 0.08933 0.71629 0.0
C1114 C 1.00253 0.12464 0.77717 0.0
C1115 C 0.02606 0.13714 0.77849 0.0
C1116 C 0.04675 0.1261 0.74508 0.0
C1117 C 0.04394 0.10254 0.71387 0.0
C1118 C 0.97974 0.13599 0.81002 0.0
C1119 C 0.07222 0.13858 0.74477 0.0
H1120 H 0.02957 0.22476 0.80463 0.0
H1121 H 0.04398 0.17966 0.9796 0.0
H1122 H 0.03476 0.17857 0.68343 0.0
H1123 H 1.00227 0.17731 0.70519 0.0
H1124 H 0.01811 0.20723 0.6999 0.0
H1125 H 0.04391 0.13581 0.97693 0.0
H1126 H 0.02155 0.12261 0.9184 0.0
H1127 H 0.05409 0.12343 0.89694 0.0
H1128 H 0.98249 0.09119 0.74762 0.0
H1129 H 0.05973 0.09436 0.68803 0.0
H1130 H 0.97706 0.15548 0.79191 0.0
H1131 H 0.98252 0.13685 0.86546 0.0
H1132 H 0.96238 0.12504 0.79954 0.0
H1133 H 0.07067 0.15881 0.73264 0.0
H1134 H 0.08515 0.12978 0.70788 0.0
H1135 H 0.08066 0.13705 0.79582 0.0
C1136 C 0.32882 0.01474 0.86265 0.0
C1137 C 0.3157 0.03727 0.85299 0.0
C1138 C 0.35258 0.01081 0.83309 0.0
C1139 C 0.36361 0.02977 0.79236 0.0
C1140 C 0.35016 0.05219 0.7807 0.0
C1141 C 0.3266 0.0557 0.81124 0.0
C1142 C 0.36623 0.98666 0.84723 0.0
C1143 C 0.36109 0.07296 0.73784 0.0
C1144 C 0.43491 0.03469 0.77944 0.0
C1145 C 0.43989 0.02439 0.7155 0.0
C1146 C 0.41038 0.03605 0.80522 0.0
C1147 C 0.38994 0.0271 0.76621 0.0
C1148 C 0.39474 0.01651 0.70182 0.0
C1149 C 0.4196 0.01516 0.67741 0.0
C1150 C 0.40634 0.0473 0.87431 0.0
C1151 C 0.37354 1.00689 0.65832 0.0
H1152 H 0.32066 1.00018 0.89394 0.0
H1153 H 0.31714 0.07343 0.80419 0.0
H1154 H 0.37211 0.97776 0.79926 0.0
H1155 H 0.3835 0.99068 0.87666 0.0
H1156 H 0.35452 0.9731 0.87609 0.0
H1157 H 0.34751 0.08834 0.729 0.0
H1158 H 0.37793 0.08093 0.76306 0.0
H1159 H 0.36719 0.06549 0.6883 0.0
H1160 H 0.45027 0.04171 0.81002 0.0
H1161 H 0.42309 1.00712 0.62811 0.0
H1162 H 0.39626 0.03375 0.90719 0.0
H1163 H 0.39447 0.06424 0.87011 0.0
H1164 H 0.42425 0.05264 0.89928 0.0
H1165 H 0.36257 0.9925 0.68615 0.0
H1166 H 0.38034 0.99859 0.61034 0.0
H1167 H 0.36056 0.02246 0.64622 0.0
C1168 C 0.50624 0.33336 0.84018 0.0
C1169 C 0.49876 0.33363 0.90798 0.0
C1170 C 0.50999 0.35581 0.80397 0.0
C1171 C 0.50527 0.37922 0.83541 0.0
C1172 C 0.498 0.37954 0.90425 0.0
C1173 C 0.4951 0.35682 0.93978 0.0
C1174 C 0.51813 0.35415 0.73138 0.0
C1175 C 0.49245 0.4039 0.93983 0.0
C1176 C 0.53026 0.44125 0.76449 0.0
C1177 C 0.50905 0.45102 0.73185 0.0
C1178 C 0.52957 0.41762 0.79637 0.0
C1179 C 0.50705 0.40335 0.79637 0.0
C1180 C 0.4859 0.41269 0.7612 0.0
C1181 C 0.48724 0.43623 0.729 0.0
C1182 C 0.5529 0.40799 0.83058 0.0
C1183 C 0.46156 0.39815 0.75909 0.0
H1184 H 0.50911 0.31551 0.8153 0.0
H1185 H 0.48899 0.35716 0.99195 0.0
H1186 H 0.50123 0.35427 0.69888 0.0
H1187 H 0.53023 0.37023 0.71705 0.0
H1188 H 0.52843 0.3365 0.72127 0.0
H1189 H 0.48783 0.4011 0.99398 0.0
H1190 H 0.50876 0.41682 0.93605 0.0
H1191 H 0.47637 0.41318 0.91483 0.0
H1192 H 0.5474 0.45226 0.76617 0.0
H1193 H 0.47114 0.44308 0.7016 0.0
H1194 H 0.55811 0.38959 0.80869 0.0
H1195 H 0.54923 0.40499 0.88511 0.0
H1196 H 0.56905 0.42108 0.82515 0.0
H1197 H 0.46496 0.37845 0.74394 0.0
H1198 H 0.44782 0.40651 0.72354 0.0
H1199 H 0.45313 0.3978 0.81029 0.0
C1200 C 0.20099 0.50581 0.82802 0.0
C1201 C 0.19859 0.49904 0.89631 0.0
C1202 C 0.17966 0.50976 0.78704 0.0
C1203 C 0.15531 0.50626 0.8145 0.0
C1204 C 0.15285 0.4993 0.88325 0.0
C1205 C 0.17441 0.49603 0.92325 0.0
C1206 C 0.18313 0.51762 0.71438 0.0
C1207 C 0.12737 0.49466 0.91429 0.0
C1208 C 0.0955 0.53394 0.7396 0.0
C1209 C 0.08508 0.51314 0.70673 0.0
C1210 C 0.11908 0.53241 0.7715 0.0
C1211 C 0.13224 0.50935 0.77184 0.0
C1212 C 0.12206 0.48859 0.73616 0.0
C1213 C 0.09871 0.49085 0.70356 0.0
C1214 C 0.12953 0.55527 0.80663 0.0
C1215 C 0.13528 0.46367 0.73472 0.0
H1216 H 0.21958 0.50818 0.80678 0.0
H1217 H 0.17233 0.49034 0.97549 0.0
H1218 H 0.17507 0.50323 0.68018 0.0
H1219 H 0.17292 0.53533 0.70461 0.0
H1220 H 0.2032 0.52042 0.70117 0.0
H1221 H 0.12858 0.4895 0.96852 0.0
H1222 H 0.11556 0.51162 0.90941 0.0
H1223 H 0.1177 0.47927 0.88685 0.0
H1224 H 0.08502 0.55129 0.74122 0.0
H1225 H 0.09093 0.47505 0.67629 0.0
H1226 H 0.14903 0.55894 0.78961 0.0
H1227 H 0.13017 0.55192 0.86187 0.0
H1228 H 0.11809 0.57225 0.79691 0.0
H1229 H 0.15513 0.46613 0.71934 0.0
H1230 H 0.12615 0.45019 0.6996 0.0
H1231 H 0.13526 0.45541 0.78615 0.0
C1232 C 0.97552 0.83956 0.4464 0.0
C1233 C 0.99682 0.82417 0.44383 0.0
C1234 C 0.97637 0.86341 0.47724 0.0
C1235 C 0.99913 0.87237 0.50571 0.0
C1236 C 0.02048 0.8567 0.50481 0.0
C1237 C 0.01908 0.83292 0.47412 0.0
C1238 C 0.95305 0.87931 0.47733 0.0
C1239 C 0.04511 0.86536 0.53461 0.0
C1240 C 0.01044 0.94306 0.51558 0.0
C1241 C 1.00679 0.94807 0.58432 0.0
C1242 C 1.00778 0.91867 0.48947 0.0
C1243 C 1.00113 0.8986 0.53297 0.0
C1244 C 0.99718 0.90358 0.6025 0.0
C1245 C 1.00034 0.92818 0.62746 0.0
C1246 C 0.01236 0.91438 0.41521 0.0
C1247 C 0.98949 0.88295 0.65044 0.0
H1248 H 0.95815 0.83305 0.42387 0.0
H1249 H 0.03583 0.82155 0.47168 0.0
H1250 H 0.95025 0.88825 0.52731 0.0
H1251 H 0.9552 0.89452 0.43957 0.0
H1252 H 0.936 0.86825 0.46438 0.0
H1253 H 0.06 0.85097 0.53034 0.0
H1254 H 0.05159 0.88269 0.50874 0.0
H1255 H 0.04257 0.87002 0.5887 0.0
H1256 H 0.01577 0.95824 0.48208 0.0
H1257 H 0.99731 0.93194 0.68058 0.0
H1258 H 0.99525 0.90646 0.39132 0.0
H1259 H 0.02762 0.90054 0.40843 0.0
H1260 H 0.01757 0.93192 0.38825 0.0
H1261 H 0.98428 0.8903 0.70089 0.0
H1262 H 1.00518 0.86956 0.65669 0.0
H1263 H 0.97331 0.87229 0.62964 0.0
C1264 C 0.69652 0.99412 0.45073 0.0
C1265 C 0.71272 0.01486 0.45865 0.0
C1266 C 0.67288 0.99308 0.48299 0.0
C1267 C 0.66473 0.01348 0.52318 0.0
C1268 C 0.68126 0.034 0.53343 0.0
C1269 C 0.70504 0.03422 0.50229 0.0
C1270 C 0.65621 0.97049 0.47194 0.0
C1271 C 0.67336 0.05638 0.5748 0.0
C1272 C 0.59402 0.02454 0.53283 0.0
C1273 C 0.58806 0.01643 0.59826 0.0
C1274 C 0.6188 0.024 0.5085 0.0
C1275 C 0.63826 0.01436 0.54972 0.0
C1276 C 0.63232 1.006 0.61596 0.0
C1277 C 0.60737 1.00747 0.63976 0.0
C1278 C 0.62413 0.03388 0.4385 0.0
C1279 C 0.65221 0.99504 0.66122 0.0
H1280 H 0.70179 0.97903 0.41717 0.0
H1281 H 0.71742 0.05004 0.51117 0.0
H1282 H 0.6487 0.96359 0.52082 0.0
H1283 H 0.63993 0.97581 0.4402 0.0
H1284 H 0.66628 0.95495 0.44661 0.0
H1285 H 0.68863 0.0705 0.58004 0.0
H1286 H 0.65699 0.06551 0.55062 0.0
H1287 H 0.66738 0.05035 0.6259 0.0
H1288 H 0.57921 0.03162 0.50065 0.0
H1289 H 0.60283 1.00096 0.69017 0.0
H1290 H 0.63151 0.01862 0.40626 0.0
H1291 H 0.63875 0.04875 0.44084 0.0
H1292 H 0.60715 0.04173 0.41397 0.0
H1293 H 0.66087 0.97861 0.63624 0.0
H1294 H 0.64455 0.98903 0.71082 0.0
H1295 H 0.66735 1.009 0.67002 0.0
C1296 C 0.54468 0.7007 0.45436 0.0
C1297 C 0.52323 0.71584 0.4512 0.0
C1298 C 0.54417 0.67716 0.48684 0.0
C1299 C 0.52157 0.66823 0.51626 0.0
C1300 C 0.50009 0.68372 0.51501 0.0
C1301 C 0.50118 0.70724 0.48277 0.0
C1302 C 0.56761 0.66145 0.48703 0.0
C1303 C 0.4756 0.67504 0.54558 0.0
C1304 C 0.51126 0.59748 0.52669 0.0
C1305 C 0.51551 0.59247 0.5952 0.0
C1306 C 0.51328 0.62191 0.50057 0.0
C1307 C 0.51979 0.64206 0.54389 0.0
C1308 C 0.52408 0.63713 0.61334 0.0
C1309 C 0.52163 0.61244 0.6383 0.0
C1310 C 0.50836 0.62615 0.4264 0.0
C1311 C 0.53155 0.6579 0.66108 0.0
H1312 H 0.56189 0.70714 0.43081 0.0
H1313 H 0.48433 0.71847 0.47995 0.0
H1314 H 0.57017 0.65185 0.53624 0.0
H1315 H 0.56588 0.64683 0.44755 0.0
H1316 H 0.58463 0.67285 0.47605 0.0
H1317 H 0.46073 0.68948 0.54203 0.0
H1318 H 0.46896 0.65782 0.51954 0.0
H1319 H 0.47837 0.67018 0.59949 0.0
H1320 H 0.50608 0.58223 0.49332 0.0
H1321 H 0.52504 0.6087 0.69128 0.0
H1322 H 0.52544 0.63385 0.40189 0.0
H1323 H 0.4932 0.64012 0.41983 0.0
H1324 H 0.50285 0.60861 0.39987 0.0
H1325 H 0.54796 0.66832 0.64073 0.0
H1326 H 0.53635 0.65072 0.71207 0.0
H1327 H 0.51595 0.67144 0.666 0.0
C1328 C 0.84062 0.54881 0.39484 0.0
C1329 C 0.82065 0.53708 0.42933 0.0
C1330 C 0.86541 0.5482 0.42007 0.0
C1331 C 0.87066 0.53539 0.48114 0.0
C1332 C 0.85063 0.52387 0.51666 0.0
C1333 C 0.82601 0.52508 0.49094 0.0
C1334 C 0.88611 0.5609 0.38067 0.0
C1335 C 0.8553 0.50962 0.5812 0.0
C1336 C 0.93638 0.51012 0.51778 0.0
C1337 C 0.94595 0.52786 0.56343 0.0
C1338 C 0.91228 0.5127 0.48934 0.0
C1339 C 0.8971 0.53341 0.50738 0.0
C1340 C 0.90681 0.55148 0.55311 0.0
C1341 C 0.93103 0.54847 0.58052 0.0
C1342 C 0.90296 0.49307 0.44041 0.0
C1343 C 0.89138 0.57375 0.57431 0.0
H1344 H 0.83709 0.55783 0.34681 0.0
H1345 H 0.81094 0.51632 0.51917 0.0
H1346 H 0.89497 0.57571 0.41208 0.0
H1347 H 0.90095 0.54719 0.36795 0.0
H1348 H 0.87919 0.56958 0.33325 0.0
H1349 H 0.8376 0.50349 0.60582 0.0
H1350 H 0.86668 0.49276 0.57032 0.0
H1351 H 0.86621 0.52137 0.61692 0.0
H1352 H 0.94782 0.4942 0.50394 0.0
H1353 H 0.93809 0.56202 0.6166 0.0
H1354 H 0.89716 0.50206 0.3924 0.0
H1355 H 0.88621 0.48347 0.46155 0.0
H1356 H 0.91743 0.47876 0.42915 0.0
H1357 H 0.8852 0.5844 0.52922 0.0
H1358 H 0.90194 0.58663 0.60815 0.0
H1359 H 0.87425 0.56721 0.60096 0.0
loop_
_geom_bond_atom_site_label_1
_geom_bond_atom_site_label_2
_geom_bond_distance
_geom_bond_site_symmetry_2
_ccdc_geom_bond_type
P0 O11 1.490 . S
P0 C14 1.812 . S
P0 C20 1.803 . S
P0 C26 1.819 . S
H1 C15 0.941 . S
H2 C16 0.939 . S
H3 C18 0.940 . S
H4 C19 0.940 . S
H5 C21 0.939 . S
H6 C22 0.942 . S
H7 C24 0.940 . S
H8 C25 0.939 . S
H9 C27 0.941 . S
H10 C31 0.939 . S
O11 P0 1.490 . S
H12 C28 0.939 . S
H13 C30 0.940 . S
C14 P0 1.812 . S
C14 C15 1.389 . S
C14 C19 1.391 . S
C15 H1 0.941 . S
C15 C14 1.389 . S
C15 C16 1.397 . S
C16 H2 0.939 . S
C16 C15 1.397 . S
C16 C17 1.378 . S
C17 C16 1.378 . S
C17 C18 1.378 . S
C18 H3 0.940 . S
C18 C17 1.378 . S
C18 C19 1.396 . S
C19 H4 0.940 . S
C19 C14 1.391 . S
C19 C18 1.396 . S
C20 P0 1.803 . S
C20 C21 1.378 . S
C20 C25 1.400 . S
C21 H5 0.939 . S
C21 C20 1.378 . S
C21 C22 1.361 . S
C22 H6 0.942 . S
C22 C21 1.361 . S
C22 C23 1.369 . S
C23 C22 1.369 . S
C23 C24 1.404 . S
C24 H7 0.940 . S
C24 C23 1.404 . S
C24 C25 1.389 . S
C25 H8 0.939 . S
C25 C20 1.400 . S
C25 C24 1.389 . S
C26 P0 1.819 . S
C26 C27 1.391 . S
C26 C31 1.391 . S
C27 H9 0.941 . S
C27 C26 1.391 . S
C27 C28 1.396 . S
C28 H12 0.939 . S
C28 C27 1.396 . S
C28 C29 1.397 . S
C29 C28 1.397 . S
C29 C30 1.385 . S
C30 H13 0.940 . S
C30 C29 1.385 . S
C30 C31 1.388 . S
C31 H10 0.939 . S
C31 C26 1.391 . S
C31 C30 1.388 . S
P32 O43 1.490 . S
P32 C46 1.812 1_455 S
P32 C52 1.803 1_455 S
P32 C58 1.819 1_455 S
H33 C47 0.941 . S
H34 C48 0.939 1_455 S
H35 C50 0.940 . S
H36 C51 0.940 . S
H37 C53 0.939 . S
H38 C54 0.942 1_455 S
H39 C56 0.940 . S
H40 C57 0.939 . S
H41 C59 0.941 . S
H42 C63 0.939 . S
O43 P32 1.490 . S
H44 C60 0.955 . S
H45 C62 0.940 . S
C46 P32 1.812 1_655 S
C46 C47 1.389 1_655 S
C46 C51 1.391 . S
C47 H33 0.941 . S
C47 C46 1.389 1_455 S
C47 C48 1.397 1_455 S
C48 H34 0.939 1_655 S
C48 C47 1.397 1_655 S
C48 C49 1.378 . S
C49 C48 1.378 . S
C49 C50 1.378 . S
C50 H35 0.940 . S
C50 C49 1.378 . S
C50 C51 1.396 . S
C51 H36 0.940 . S
C51 C46 1.391 . S
C51 C50 1.396 . S
C52 P32 1.803 1_655 S
C52 C53 1.378 1_655 S
C52 C57 1.400 . S
C53 H37 0.939 . S
C53 C52 1.378 1_455 S
C53 C54 1.361 1_455 S
C54 H38 0.942 1_655 S
C54 C53 1.361 1_655 S
C54 C55 1.369 . S
C55 C54 1.369 . S
C55 C56 1.404 . S
C56 H39 0.940 . S
C56 C55 1.404 . S
C56 C57 1.389 . S
C57 H40 0.939 . S
C57 C52 1.400 . S
C57 C56 1.389 . S
C58 P32 1.819 1_655 S
C58 C59 1.391 1_655 S
C58 C63 1.391 . S
C59 H41 0.941 . S
C59 C58 1.391 1_455 S
C59 C60 1.396 1_455 S
C60 H44 0.955 . S
C60 C59 1.396 1_655 S
C60 C61 1.397 . S
C61 C60 1.397 . S
C61 C62 1.385 . S
C62 H45 0.940 . S
C62 C61 1.385 . S
C62 C63 1.388 . S
C63 H42 0.939 . S
C63 C58 1.391 . S
C63 C62 1.388 . S
P64 O75 1.490 . S
P64 C78 1.812 1_545 S
P64 C84 1.803 1_545 S
P64 C90 1.819 1_545 S
H65 C79 0.941 . S
H66 C80 0.939 1_545 S
H67 C82 0.940 . S
H68 C83 0.940 . S
H69 C85 0.939 . S
H70 C86 0.934 1_545 S
H71 C88 0.940 . S
H72 C89 0.939 . S
H73 C91 0.941 . S
H74 C95 0.939 . S
O75 P64 1.490 . S
H76 C92 0.939 1_545 S
H77 C94 0.940 . S
C78 P64 1.812 1_565 S
C78 C79 1.389 1_565 S
C78 C83 1.391 . S
C79 H65 0.941 . S
C79 C78 1.389 1_545 S
C79 C80 1.397 1_545 S
C80 H66 0.939 1_565 S
C80 C79 1.397 1_565 S
C80 C81 1.378 . S
C81 C80 1.378 . S
C81 C82 1.378 . S
C82 H67 0.940 . S
C82 C81 1.378 . S
C82 C83 1.396 . S
C83 H68 0.940 . S
C83 C78 1.391 . S
C83 C82 1.396 . S
C84 P64 1.803 1_565 S
C84 C85 1.378 1_565 S
C84 C89 1.400 . S
C85 H69 0.939 . S
C85 C84 1.378 1_545 S
C85 C86 1.356 1_545 S
C86 H70 0.934 1_565 S
C86 C85 1.356 1_565 S
C86 C87 1.381 . S
C87 C86 1.381 . S
C87 C88 1.404 . S
C88 H71 0.940 . S
C88 C87 1.404 . S
C88 C89 1.389 . S
C89 H72 0.939 . S
C89 C84 1.400 . S
C89 C88 1.389 . S
C90 P64 1.819 1_565 S
C90 C91 1.391 1_565 S
C90 C95 1.391 . S
C91 H73 0.941 . S
C91 C90 1.391 1_545 S
C91 C92 1.396 1_545 S
C92 H76 0.939 1_565 S
C92 C91 1.396 1_565 S
C92 C93 1.397 . S
C93 C92 1.397 . S
C93 C94 1.385 . S
C94 H77 0.940 . S
C94 C93 1.385 . S
C94 C95 1.388 . S
C95 H74 0.939 . S
C95 C90 1.391 . S
C95 C94 1.388 . S
P96 O107 1.490 . S
P96 C110 1.812 . S
P96 C116 1.803 . S
P96 C122 1.819 . S
H97 C111 0.941 . S
H98 C112 0.939 . S
H99 C114 0.940 . S
H100 C115 0.940 . S
H101 C117 0.939 . S
H102 C118 0.942 . S
H103 C120 0.940 . S
H104 C121 0.939 . S
H105 C123 0.941 . S
H106 C127 0.939 . S
O107 P96 1.490 . S
H108 C124 0.939 . S
H109 C126 0.940 . S
C110 P96 1.812 . S
C110 C111 1.389 . S
C110 C115 1.391 . S
C111 H97 0.941 . S
C111 C110 1.389 . S
C111 C112 1.397 . S
C112 H98 0.939 . S
C112 C111 1.397 . S
C112 C113 1.378 . S
C113 C112 1.378 . S
C113 C114 1.378 . S
C114 H99 0.940 . S
C114 C113 1.378 . S
C114 C115 1.396 . S
C115 H100 0.940 . S
C115 C110 1.391 . S
C115 C114 1.396 . S
C116 P96 1.803 . S
C116 C117 1.378 . S
C116 C121 1.400 . S
C117 H101 0.939 . S
C117 C116 1.378 . S
C117 C118 1.361 . S
C118 H102 0.942 . S
C118 C117 1.361 . S
C118 C119 1.369 . S
C119 C118 1.369 . S
C119 C120 1.404 . S
C120 H103 0.940 . S
C120 C119 1.404 . S
C120 C121 1.389 . S
C121 H104 0.939 . S
C121 C116 1.400 . S
C121 C120 1.389 . S
C122 P96 1.819 . S
C122 C123 1.391 . S
C122 C127 1.391 . S
C123 H105 0.941 . S
C123 C122 1.391 . S
C123 C124 1.396 . S
C124 H108 0.939 . S
C124 C123 1.396 . S
C124 C125 1.397 . S
C125 C124 1.397 . S
C125 C126 1.385 . S
C126 H109 0.940 . S
C126 C125 1.385 . S
C126 C127 1.388 . S
C127 H106 0.939 . S
C127 C122 1.391 . S
C127 C126 1.388 . S
P128 O139 1.490 . S
P128 C142 1.812 1_554 S
P128 C148 1.803 . S
P128 C154 1.819 . S
H129 C143 0.941 . S
H130 C144 0.939 . S
H131 C146 0.940 . S
H132 C147 0.940 . S
H133 C149 0.939 . S
H134 C150 0.942 . S
H135 C152 0.940 . S
H136 C153 0.939 . S
H137 C155 0.941 . S
H138 C159 0.939 . S
O139 P128 1.490 . S
H140 C156 0.939 . S
H141 C158 0.940 . S
C142 P128 1.812 1_556 S
C142 C143 1.389 . S
C142 C147 1.391 . S
C143 H129 0.941 . S
C143 C142 1.389 . S
C143 C144 1.397 . S
C144 H130 0.939 . S
C144 C143 1.397 . S
C144 C145 1.378 . S
C145 C144 1.378 . S
C145 C146 1.378 . S
C146 H131 0.940 . S
C146 C145 1.378 . S
C146 C147 1.396 . S
C147 H132 0.940 . S
C147 C142 1.391 . S
C147 C146 1.396 . S
C148 P128 1.803 . S
C148 C149 1.378 . S
C148 C153 1.400 . S
C149 H133 0.939 . S
C149 C148 1.378 . S
C149 C150 1.361 . S
C150 H134 0.942 . S
C150 C149 1.361 . S
C150 C151 1.369 . S
C151 C150 1.369 . S
C151 C152 1.404 . S
C152 H135 0.940 . S
C152 C151 1.404 . S
C152 C153 1.389 . S
C153 H136 0.939 . S
C153 C148 1.400 . S
C153 C152 1.389 . S
C154 P128 1.819 . S
C154 C155 1.391 . S
C154 C159 1.391 . S
C155 H137 0.941 . S
C155 C154 1.391 . S
C155 C156 1.396 . S
C156 H140 0.939 . S
C156 C155 1.396 . S
C156 C157 1.397 . S
C157 C156 1.397 . S
C157 C158 1.385 . S
C158 H141 0.940 . S
C158 C157 1.385 . S
C158 C159 1.388 . S
C159 H138 0.939 . S
C159 C154 1.391 . S
C159 C158 1.388 . S
P160 O171 1.490 . S
P160 C174 1.812 1_554 S
P160 C180 1.803 . S
P160 C186 1.819 . S
H161 C175 0.941 . S
H162 C176 0.939 . S
H163 C178 0.940 . S
H164 C179 0.943 . S
H165 C181 0.939 . S
H166 C182 0.942 . S
H167 C184 0.940 . S
H168 C185 0.939 . S
H169 C187 0.941 . S
H170 C191 0.939 . S
O171 P160 1.490 . S
H172 C188 0.939 . S
H173 C190 0.940 . S
C174 P160 1.812 1_556 S
C174 C175 1.389 . S
C174 C179 1.391 . S
C175 H161 0.941 . S
C175 C174 1.389 . S
C175 C176 1.397 . S
C176 H162 0.939 . S
C176 C175 1.397 . S
C176 C177 1.378 . S
C177 C176 1.378 . S
C177 C178 1.378 . S
C178 H163 0.940 . S
C178 C177 1.378 . S
C178 C179 1.396 . S
C179 H164 0.943 . S
C179 C174 1.391 . S
C179 C178 1.396 . S
C180 P160 1.803 . S
C180 C181 1.378 . S
C180 C185 1.400 . S
C181 H165 0.939 . S
C181 C180 1.378 . S
C181 C182 1.361 . S
C182 H166 0.942 . S
C182 C181 1.361 . S
C182 C183 1.369 . S
C183 C182 1.369 . S
C183 C184 1.404 . S
C184 H167 0.940 . S
C184 C183 1.404 . S
C184 C185 1.389 . S
C185 H168 0.939 . S
C185 C180 1.400 . S
C185 C184 1.389 . S
C186 P160 1.819 . S
C186 C187 1.391 . S
C186 C191 1.391 . S
C187 H169 0.941 . S
C187 C186 1.391 . S
C187 C188 1.396 . S
C188 H172 0.939 . S
C188 C187 1.396 . S
C188 C189 1.397 . S
C189 C188 1.397 . S
C189 C190 1.385 . S
C190 H173 0.940 . S
C190 C189 1.385 . S
C190 C191 1.388 . S
C191 H170 0.939 . S
C191 C186 1.391 . S
C191 C190 1.388 . S
P192 O203 1.490 . S
P192 C206 1.812 1_554 S
P192 C212 1.803 . S
P192 C218 1.819 . S
H193 C207 0.941 . S
H194 C208 0.939 . S
H195 C210 0.940 . S
H196 C211 0.940 . S
H197 C213 0.939 . S
H198 C214 0.942 . S
H199 C216 0.940 . S
H200 C217 0.939 . S
H201 C219 0.941 . S
H202 C223 0.939 . S
O203 P192 1.490 . S
H204 C220 0.939 . S
H205 C222 0.940 . S
C206 P192 1.812 1_556 S
C206 C207 1.389 . S
C206 C211 1.391 . S
C207 H193 0.941 . S
C207 C206 1.389 . S
C207 C208 1.397 . S
C208 H194 0.939 . S
C208 C207 1.397 . S
C208 C209 1.378 . S
C209 C208 1.378 . S
C209 C210 1.378 . S
C210 H195 0.940 . S
C210 C209 1.378 . S
C210 C211 1.396 . S
C211 H196 0.940 . S
C211 C206 1.391 . S
C211 C210 1.396 . S
C212 P192 1.803 . S
C212 C213 1.378 . S
C212 C217 1.400 . S
C213 H197 0.939 . S
C213 C212 1.378 . S
C213 C214 1.361 . S
C214 H198 0.942 . S
C214 C213 1.361 . S
C214 C215 1.369 . S
C215 C214 1.369 . S
C215 C216 1.404 . S
C216 H199 0.940 . S
C216 C215 1.404 . S
C216 C217 1.389 . S
C217 H200 0.939 . S
C217 C212 1.400 . S
C217 C216 1.389 . S
C218 P192 1.819 . S
C218 C219 1.391 . S
C218 C223 1.391 . S
C219 H201 0.941 . S
C219 C218 1.391 . S
C219 C220 1.396 . S
C220 H204 0.939 . S
C220 C219 1.396 . S
C220 C221 1.397 . S
C221 C220 1.397 . S
C221 C222 1.385 . S
C222 H205 0.940 . S
C222 C221 1.385 . S
C222 C223 1.388 . S
C223 H202 0.939 . S
C223 C218 1.391 . S
C223 C222 1.388 . S
P224 O235 1.490 . S
P224 C238 1.812 1_554 S
P224 C244 1.803 . S
P224 C250 1.819 . S
H225 C239 0.941 . S
H226 C240 0.939 . S
H227 C242 0.940 . S
H228 C243 0.940 . S
H229 C245 0.939 . S
H230 C246 0.942 . S
H231 C248 0.940 . S
H232 C249 0.939 . S
H233 C251 0.941 . S
H234 C255 0.939 . S
O235 P224 1.490 . S
H236 C252 0.939 . S
H237 C254 0.940 . S
C238 P224 1.812 1_556 S
C238 C239 1.389 . S
C238 C243 1.391 . S
C239 H225 0.941 . S
C239 C238 1.389 . S
C239 C240 1.397 . S
C240 H226 0.939 . S
C240 C239 1.397 . S
C240 C241 1.378 . S
C241 C240 1.378 . S
C241 C242 1.378 . S
C242 H227 0.940 . S
C242 C241 1.378 . S
C242 C243 1.396 . S
C243 H228 0.940 . S
C243 C238 1.391 . S
C243 C242 1.396 . S
C244 P224 1.803 . S
C244 C245 1.378 . S
C244 C249 1.400 . S
C245 H229 0.939 . S
C245 C244 1.378 . S
C245 C246 1.361 . S
C246 H230 0.942 . S
C246 C245 1.361 . S
C246 C247 1.369 . S
C247 C246 1.369 . S
C247 C248 1.404 . S
C248 H231 0.940 . S
C248 C247 1.404 . S
C248 C249 1.389 . S
C249 H232 0.939 . S
C249 C244 1.400 . S
C249 C248 1.389 . S
C250 P224 1.819 . S
C250 C251 1.391 . S
C250 C255 1.391 . S
C251 H233 0.941 . S
C251 C250 1.391 . S
C251 C252 1.396 . S
C252 H236 0.939 . S
C252 C251 1.396 . S
C252 C253 1.397 . S
C253 C252 1.397 . S
C253 C254 1.385 . S
C254 H237 0.940 . S
C254 C253 1.385 . S
C254 C255 1.388 . S
C255 H234 0.939 . S
C255 C250 1.391 . S
C255 C254 1.388 . S
Eu256 N285 2.600 . S
Eu256 N291 2.562 . S
Eu256 O300 2.462 . S
Eu256 O301 2.373 1_545 S
Eu256 O303 2.432 . S
Eu256 O304 2.291 1_655 S
Eu256 O308 2.335 1_655 S
Eu256 O311 2.372 . S
Eu256 C320 2.787 . S
C257 N258 1.365 . S
C257 C260 1.405 . S
C257 C264 1.448 . S
N258 C257 1.365 . S
N258 C261 1.315 1_545 S
N258 Eu267 2.600 1_545 S
C259 C261 1.386 1_545 S
C259 C262 1.367 . S
C259 H279 0.931 . S
C260 C257 1.405 . S
C260 C262 1.403 . S
C260 C266 1.439 . S
C261 N258 1.315 1_565 S
C261 C259 1.386 1_565 S
C261 H272 0.947 . S
C262 C259 1.367 . S
C262 C260 1.403 . S
C262 H283 0.929 . S
C263 C264 1.430 . S
C263 C265 1.387 . S
C263 C269 1.404 . S
C264 C257 1.448 . S
C264 C263 1.430 . S
C264 N268 1.351 . S
C265 C263 1.387 . S
C265 C266 1.374 . S
C265 H280 0.931 . S
C266 C260 1.439 . S
C266 C265 1.374 . S
C266 H281 0.931 . S
Eu267 N258 2.600 1_565 S
Eu267 N268 2.562 1_565 S
Eu267 O302 2.335 . S
Eu267 O305 2.372 . S
Eu267 O306 2.462 . S
Eu267 O307 2.373 1_565 S
Eu267 O309 2.432 . S
Eu267 O310 2.291 1_465 S
Eu267 C331 2.787 . S
N268 C264 1.351 . S
N268 Eu267 2.562 1_545 S
N268 C270 1.325 . S
C269 C263 1.404 . S
C269 C271 1.366 . S
C269 H277 0.930 1_556 S
C270 N268 1.325 . S
C270 C271 1.416 . S
C270 H276 0.903 1_455 S
C271 C269 1.366 . S
C271 C270 1.416 . S
C271 H273 0.930 . S
H272 C261 0.947 . S
H273 C271 0.930 . S
H274 C289 0.930 . S
H275 C296 0.930 1_455 S
H276 C270 0.903 1_655 S
H277 C269 0.930 1_554 S
H278 C292 0.929 1_455 S
H279 C259 0.931 . S
H280 C265 0.931 . S
H281 C266 0.931 . S
H282 C287 0.931 . S
H283 C262 0.929 . S
H284 C295 0.930 . S
N285 Eu256 2.600 . S
N285 C286 1.365 . S
N285 C289 1.319 . S
C286 N285 1.365 . S
C286 C288 1.405 1_545 S
C286 C294 1.448 . S
C287 H282 0.931 . S
C287 C289 1.397 . S
C287 C290 1.347 1_545 S
C288 C286 1.405 1_565 S
C288 C290 1.410 . S
C288 C321 1.439 . S
C289 H274 0.930 . S
C289 N285 1.319 . S
C289 C287 1.397 . S
C290 C287 1.347 1_565 S
C290 C288 1.410 . S
C290 H297 0.945 . S
N291 Eu256 2.562 . S
N291 C292 1.325 . S
N291 C294 1.351 . S
C292 H278 0.929 1_655 S
C292 N291 1.325 . S
C292 C296 1.416 1_545 S
C293 C294 1.430 1_565 S
C293 C295 1.404 . S
C293 C322 1.387 . S
C294 C286 1.448 . S
C294 N291 1.351 . S
C294 C293 1.430 1_545 S
C295 H284 0.930 . S
C295 C293 1.404 . S
C295 C296 1.366 . S
C296 H275 0.930 1_655 S
C296 C292 1.416 1_565 S
C296 C295 1.366 . S
H297 C290 0.945 . S
H298 C321 0.931 . S
H299 C322 0.931 . S
O300 Eu256 2.462 . S
O300 C320 1.252 . S
O301 Eu256 2.373 1_565 S
O301 C312 1.249 . S
O302 Eu267 2.335 . S
O302 C312 1.264 1_455 S
O303 Eu256 2.432 . S
O303 C320 1.268 . S
O304 Eu256 2.291 1_455 S
O304 C319 1.255 . S
O305 Eu267 2.372 . S
O305 C319 1.257 1_565 S
O306 Eu267 2.462 . S
O306 C331 1.252 . S
O307 Eu267 2.373 1_545 S
O307 C323 1.249 . S
O308 Eu256 2.335 1_455 S
O308 C323 1.264 . S
O309 Eu267 2.432 . S
O309 C331 1.268 . S
O310 Eu267 2.291 1_645 S
O310 C330 1.255 . S
O311 Eu256 2.372 . S
O311 C330 1.257 . S
C312 O301 1.249 . S
C312 O302 1.264 1_655 S
C313 C316 1.382 . S
C313 C318 1.390 . S
C313 C320 1.506 . S
C314 C315 1.398 . S
C314 C318 1.392 . S
C315 C314 1.398 . S
C315 C317 1.372 . S
C315 H332 0.931 . S
C316 C313 1.382 . S
C316 C317 1.390 . S
C316 H333 0.931 . S
C317 C315 1.372 . S
C317 C316 1.390 . S
C317 H334 0.929 . S
C318 C313 1.390 . S
C318 C314 1.392 . S
C318 H335 0.930 1_655 S
C319 O304 1.255 . S
C319 O305 1.257 1_545 S
C320 Eu256 2.787 . S
C320 O300 1.252 . S
C320 O303 1.268 . S
C320 C313 1.506 . S
C321 C288 1.439 . S
C321 H298 0.931 . S
C321 C322 1.374 . S
C322 C293 1.387 . S
C322 H299 0.931 . S
C322 C321 1.374 . S
C323 O307 1.249 . S
C323 O308 1.264 . S
C324 C327 1.382 . S
C324 C328 1.390 . S
C324 C331 1.506 . S
C325 C326 1.398 . S
C325 C328 1.392 . S
C326 C325 1.398 . S
C326 C329 1.372 . S
C326 H336 0.931 . S
C327 C324 1.382 . S
C327 C329 1.390 . S
C327 H337 0.931 . S
C328 C324 1.390 . S
C328 C325 1.392 . S
C328 H338 0.930 . S
C329 C326 1.372 . S
C329 C327 1.390 . S
C329 H339 0.929 . S
C330 O310 1.255 . S
C330 O311 1.257 . S
C331 Eu267 2.787 . S
C331 O306 1.252 . S
C331 O309 1.268 . S
C331 C324 1.506 . S
H332 C315 0.931 . S
H333 C316 0.931 . S
H334 C317 0.929 . S
H335 C318 0.930 1_455 S
H336 C326 0.931 . S
H337 C327 0.931 . S
H338 C328 0.930 . S
H339 C329 0.929 . S
Eu340 N369 2.600 . S
Eu340 N375 2.562 . S
Eu340 O384 2.462 . S
Eu340 O385 2.373 . S
Eu340 O387 2.432 . S
Eu340 O388 2.291 . S
Eu340 O392 2.335 1_545 S
Eu340 O395 2.372 . S
Eu340 C404 2.787 . S
C341 N342 1.365 . S
C341 C344 1.405 . S
C341 C348 1.448 . S
N342 C341 1.365 . S
N342 C345 1.319 . S
N342 Eu351 2.600 . S
C343 C345 1.397 . S
C343 C346 1.367 . S
C343 H363 0.931 . S
C344 C341 1.405 . S
C344 C346 1.403 . S
C344 C350 1.439 . S
C345 N342 1.319 . S
C345 C343 1.397 . S
C345 H356 0.930 . S
C346 C343 1.367 . S
C346 C344 1.403 . S
C346 H367 0.929 . S
C347 C348 1.430 . S
C347 C349 1.387 . S
C347 C353 1.404 . S
C348 C341 1.448 . S
C348 C347 1.430 . S
C348 N352 1.351 . S
C349 C347 1.387 . S
C349 C350 1.374 . S
C349 H364 0.931 . S
C350 C344 1.439 . S
C350 C349 1.374 . S
C350 H365 0.931 . S
Eu351 N342 2.600 . S
Eu351 N352 2.562 . S
Eu351 O386 2.335 1_565 S
Eu351 O389 2.372 . S
Eu351 O390 2.462 . S
Eu351 O391 2.373 . S
Eu351 O393 2.432 . S
Eu351 O394 2.291 1_565 S
Eu351 C415 2.787 . S
N352 C348 1.351 . S
N352 Eu351 2.562 . S
N352 C354 1.325 . S
C353 C347 1.404 . S
C353 C355 1.366 . S
C353 H361 0.930 . S
C354 N352 1.325 . S
C354 C355 1.416 . S
C354 H360 0.929 . S
C355 C353 1.366 . S
C355 C354 1.416 . S
C355 H357 0.930 . S
H356 C345 0.930 . S
H357 C355 0.930 . S
H358 C373 0.930 . S
H359 C380 0.930 . S
H360 C354 0.929 . S
H361 C353 0.930 . S
H362 C376 0.929 . S
H363 C343 0.931 . S
H364 C349 0.931 . S
H365 C350 0.931 . S
H366 C371 0.931 . S
H367 C346 0.929 . S
H368 C379 0.930 . S
N369 Eu340 2.600 . S
N369 C370 1.365 . S
N369 C373 1.319 . S
C370 N369 1.365 . S
C370 C372 1.405 . S
C370 C378 1.448 . S
C371 H366 0.931 . S
C371 C373 1.397 . S
C371 C374 1.367 . S
C372 C370 1.405 . S
C372 C374 1.403 . S
C372 C405 1.439 . S
C373 H358 0.930 . S
C373 N369 1.319 . S
C373 C371 1.397 . S
C374 C371 1.367 . S
C374 C372 1.403 . S
C374 H381 0.929 . S
N375 Eu340 2.562 . S
N375 C376 1.325 . S
N375 C378 1.351 . S
C376 H362 0.929 . S
C376 N375 1.325 . S
C376 C380 1.416 . S
C377 C378 1.430 . S
C377 C379 1.404 . S
C377 C406 1.387 . S
C378 C370 1.448 . S
C378 N375 1.351 . S
C378 C377 1.430 . S
C379 H368 0.930 . S
C379 C377 1.404 . S
C379 C380 1.366 . S
C380 H359 0.930 . S
C380 C376 1.416 . S
C380 C379 1.366 . S
H381 C374 0.929 . S
H382 C405 0.931 . S
H383 C406 0.931 . S
O384 Eu340 2.462 . S
O384 C404 1.252 . S
O385 Eu340 2.373 . S
O385 C396 1.249 . S
O386 Eu351 2.335 1_545 S
O386 C396 1.264 . S
O387 Eu340 2.432 . S
O387 C404 1.268 . S
O388 Eu340 2.291 . S
O388 C403 1.232 1_545 S
O389 Eu351 2.372 . S
O389 C403 1.273 . S
O390 Eu351 2.462 . S
O390 C415 1.252 . S
O391 Eu351 2.373 . S
O391 C407 1.249 . S
O392 Eu340 2.335 1_565 S
O392 C407 1.264 . S
O393 Eu351 2.432 . S
O393 C415 1.268 . S
O394 Eu351 2.291 1_545 S
O394 C414 1.255 . S
O395 Eu340 2.372 . S
O395 C414 1.257 . S
C396 O385 1.249 . S
C396 O386 1.264 . S
C397 C400 1.382 . S
C397 C402 1.390 . S
C397 C404 1.506 . S
C398 C399 1.398 . S
C398 C402 1.392 . S
C399 C398 1.398 . S
C399 C401 1.372 . S
C399 H416 0.931 1_556 S
C400 C397 1.382 . S
C400 C401 1.390 . S
C400 H417 0.931 . S
C401 C399 1.372 . S
C401 C400 1.390 . S
C401 H418 0.929 1_556 S
C402 C397 1.390 . S
C402 C398 1.392 . S
C402 H419 0.930 . S
C403 O388 1.232 1_565 S
C403 O389 1.273 . S
C404 Eu340 2.787 . S
C404 O384 1.252 . S
C404 O387 1.268 . S
C404 C397 1.506 . S
C405 C372 1.439 . S
C405 H382 0.931 . S
C405 C406 1.374 . S
C406 C377 1.387 . S
C406 H383 0.931 . S
C406 C405 1.374 . S
C407 O391 1.249 . S
C407 O392 1.264 . S
C408 C411 1.382 . S
C408 C412 1.388 1_565 S
C408 C415 1.506 . S
C409 C410 1.394 1_545 S
C409 C412 1.392 . S
C410 C409 1.394 1_565 S
C410 C413 1.372 . S
C410 H420 0.931 . S
C411 C408 1.382 . S
C411 C413 1.390 . S
C411 H421 0.931 . S
C412 C408 1.388 1_545 S
C412 C409 1.392 . S
C412 H422 0.932 . S
C413 C410 1.372 . S
C413 C411 1.390 . S
C413 H423 0.929 . S
C414 O394 1.255 . S
C414 O395 1.257 . S
C415 Eu351 2.787 . S
C415 O390 1.252 . S
C415 O393 1.268 . S
C415 C408 1.506 . S
H416 C399 0.931 1_554 S
H417 C400 0.931 . S
H418 C401 0.929 1_554 S
H419 C402 0.930 . S
H420 C410 0.931 . S
H421 C411 0.931 . S
H422 C412 0.932 . S
H423 C413 0.929 . S
Eu424 N453 2.600 . S
Eu424 N459 2.562 . S
Eu424 O468 2.462 . S
Eu424 O469 2.373 . S
Eu424 O471 2.432 . S
Eu424 O472 2.291 . S
Eu424 O476 2.335 . S
Eu424 O479 2.372 . S
Eu424 C488 2.787 . S
C425 N426 1.365 . S
C425 C428 1.405 . S
C425 C432 1.448 . S
N426 C425 1.365 . S
N426 C429 1.319 . S
N426 Eu435 2.600 . S
C427 C429 1.397 . S
C427 C430 1.367 . S
C427 H447 0.931 . S
C428 C425 1.405 . S
C428 C430 1.403 . S
C428 C434 1.439 . S
C429 N426 1.319 . S
C429 C427 1.397 . S
C429 H440 0.930 . S
C430 C427 1.367 . S
C430 C428 1.403 . S
C430 H451 0.929 . S
C431 C432 1.430 . S
C431 C433 1.387 . S
C431 C437 1.404 . S
C432 C425 1.448 . S
C432 C431 1.430 . S
C432 N436 1.351 . S
C433 C431 1.387 . S
C433 C434 1.374 . S
C433 H448 0.931 . S
C434 C428 1.439 . S
C434 C433 1.374 . S
C434 H449 0.931 . S
Eu435 N426 2.600 . S
Eu435 N436 2.562 . S
Eu435 O470 2.335 . S
Eu435 O473 2.372 . S
Eu435 O474 2.462 . S
Eu435 O475 2.373 . S
Eu435 O477 2.432 . S
Eu435 O478 2.291 . S
Eu435 C499 2.787 . S
N436 C432 1.351 . S
N436 Eu435 2.562 . S
N436 C438 1.325 . S
C437 C431 1.404 . S
C437 C439 1.366 . S
C437 H445 0.930 1_556 S
C438 N436 1.325 . S
C438 C439 1.416 . S
C438 H444 0.929 . S
C439 C437 1.366 . S
C439 C438 1.416 . S
C439 H441 0.930 . S
H440 C429 0.930 . S
H441 C439 0.930 . S
H442 C457 0.930 . S
H443 C464 0.930 . S
H444 C438 0.929 . S
H445 C437 0.930 1_554 S
H446 C460 0.929 . S
H447 C427 0.931 . S
H448 C433 0.931 . S
H449 C434 0.931 . S
H450 C455 0.931 . S
H451 C430 0.929 . S
H452 C463 0.930 . S
N453 Eu424 2.600 . S
N453 C454 1.365 . S
N453 C457 1.319 . S
C454 N453 1.365 . S
C454 C456 1.405 . S
C454 C462 1.448 . S
C455 H450 0.931 . S
C455 C457 1.397 . S
C455 C458 1.367 . S
C456 C454 1.405 . S
C456 C458 1.403 . S
C456 C489 1.439 . S
C457 H442 0.930 . S
C457 N453 1.319 . S
C457 C455 1.397 . S
C458 C455 1.367 . S
C458 C456 1.403 . S
C458 H465 0.929 . S
N459 Eu424 2.562 . S
N459 C460 1.325 . S
N459 C462 1.351 . S
C460 H446 0.929 . S
C460 N459 1.325 . S
C460 C464 1.416 . S
C461 C462 1.430 . S
C461 C463 1.404 . S
C461 C490 1.387 . S
C462 C454 1.448 . S
C462 N459 1.351 . S
C462 C461 1.430 . S
C463 H452 0.930 . S
C463 C461 1.404 . S
C463 C464 1.366 . S
C464 H443 0.930 . S
C464 C460 1.416 . S
C464 C463 1.366 . S
H465 C458 0.929 . S
H466 C489 0.931 . S
H467 C490 0.931 . S
O468 Eu424 2.462 . S
O468 C488 1.252 . S
O469 Eu424 2.373 . S
O469 C480 1.249 . S
O470 Eu435 2.335 . S
O470 C480 1.264 . S
O471 Eu424 2.432 . S
O471 C488 1.268 . S
O472 Eu424 2.291 . S
O472 C487 1.255 . S
O473 Eu435 2.372 . S
O473 C487 1.257 . S
O474 Eu435 2.462 . S
O474 C499 1.252 . S
O475 Eu435 2.373 . S
O475 C491 1.249 . S
O476 Eu424 2.335 . S
O476 C491 1.264 . S
O477 Eu435 2.432 . S
O477 C499 1.268 . S
O478 Eu435 2.291 . S
O478 C498 1.255 . S
O479 Eu424 2.372 . S
O479 C498 1.257 . S
C480 O469 1.249 . S
C480 O470 1.264 . S
C481 C484 1.382 . S
C481 C486 1.390 . S
C481 C488 1.506 . S
C482 C483 1.398 . S
C482 C486 1.392 . S
C483 C482 1.398 . S
C483 C485 1.372 . S
C483 H500 0.931 . S
C484 C481 1.382 . S
C484 C485 1.390 . S
C484 H501 0.931 . S
C485 C483 1.372 . S
C485 C484 1.390 . S
C485 H502 0.929 . S
C486 C481 1.390 . S
C486 C482 1.392 . S
C486 H503 0.930 . S
C487 O472 1.255 . S
C487 O473 1.257 . S
C488 Eu424 2.787 . S
C488 O468 1.252 . S
C488 O471 1.268 . S
C488 C481 1.506 . S
C489 C456 1.439 . S
C489 H466 0.931 . S
C489 C490 1.374 . S
C490 C461 1.387 . S
C490 H467 0.931 . S
C490 C489 1.374 . S
C491 O475 1.249 . S
C491 O476 1.264 . S
C492 C495 1.382 . S
C492 C496 1.390 . S
C492 C499 1.506 . S
C493 C494 1.398 . S
C493 C496 1.392 . S
C494 C493 1.398 . S
C494 C497 1.372 . S
C494 H504 0.931 . S
C495 C492 1.382 . S
C495 C497 1.390 . S
C495 H505 0.931 . S
C496 C492 1.390 . S
C496 C493 1.392 . S
C496 H506 0.930 . S
C497 C494 1.372 . S
C497 C495 1.390 . S
C497 H507 0.929 . S
C498 O478 1.255 . S
C498 O479 1.257 . S
C499 Eu435 2.787 . S
C499 O474 1.252 . S
C499 O477 1.268 . S
C499 C492 1.506 . S
H500 C483 0.931 . S
H501 C484 0.931 . S
H502 C485 0.929 . S
H503 C486 0.930 . S
H504 C494 0.931 . S
H505 C495 0.931 . S
H506 C496 0.930 . S
H507 C497 0.929 . S
Eu508 N537 2.600 . S
Eu508 N543 2.562 . S
Eu508 O552 2.462 . S
Eu508 O553 2.373 1_455 S
Eu508 O555 2.432 . S
Eu508 O556 2.291 . S
Eu508 O560 2.335 . S
Eu508 O563 2.372 . S
Eu508 C572 2.787 . S
C509 N510 1.365 1_455 S
C509 C512 1.405 . S
C509 C516 1.448 . S
N510 C509 1.365 1_655 S
N510 C513 1.319 . S
N510 Eu519 2.600 . S
C511 C513 1.397 1_455 S
C511 C514 1.367 . S
C511 H531 0.935 . S
C512 C509 1.405 . S
C512 C514 1.403 . S
C512 C518 1.439 . S
C513 N510 1.319 . S
C513 C511 1.397 1_655 S
C513 H524 0.930 . S
C514 C511 1.367 . S
C514 C512 1.403 . S
C514 H535 0.929 . S
C515 C516 1.430 . S
C515 C517 1.387 . S
C515 C521 1.404 . S
C516 C509 1.448 . S
C516 C515 1.430 . S
C516 N520 1.351 . S
C517 C515 1.387 . S
C517 C518 1.374 . S
C517 H532 0.931 . S
C518 C512 1.439 . S
C518 C517 1.374 . S
C518 H533 0.931 . S
Eu519 N510 2.600 . S
Eu519 N520 2.562 1_655 S
Eu519 O554 2.335 . S
Eu519 O557 2.372 . S
Eu519 O558 2.462 . S
Eu519 O559 2.373 1_655 S
Eu519 O561 2.432 . S
Eu519 O562 2.291 . S
Eu519 C583 2.787 . S
N520 C516 1.351 . S
N520 Eu519 2.562 1_455 S
N520 C522 1.325 . S
C521 C515 1.404 . S
C521 C523 1.366 . S
C521 H529 0.930 1_556 S
C522 N520 1.325 . S
C522 C523 1.416 . S
C522 H528 0.929 1_455 S
C523 C521 1.366 . S
C523 C522 1.416 . S
C523 H525 0.930 . S
H524 C513 0.930 . S
H525 C523 0.930 . S
H526 C541 0.930 . S
H527 C548 0.930 . S
H528 C522 0.929 1_655 S
H529 C521 0.930 1_554 S
H530 C544 0.929 . S
H531 C511 0.935 . S
H532 C517 0.931 . S
H533 C518 0.931 . S
H534 C539 0.931 . S
H535 C514 0.929 . S
H536 C547 0.930 . S
N537 Eu508 2.600 . S
N537 C538 1.365 . S
N537 C541 1.319 . S
C538 N537 1.365 . S
C538 C540 1.405 1_455 S
C538 C546 1.446 1_455 S
C539 H534 0.931 . S
C539 C541 1.397 . S
C539 C542 1.367 1_455 S
C540 C538 1.405 1_655 S
C540 C542 1.403 . S
C540 C573 1.439 . S
C541 H526 0.930 . S
C541 N537 1.319 . S
C541 C539 1.397 . S
C542 C539 1.367 1_655 S
C542 C540 1.403 . S
C542 H549 0.929 . S
N543 Eu508 2.562 . S
N543 C544 1.325 . S
N543 C546 1.346 1_455 S
C544 H530 0.929 . S
C544 N543 1.325 . S
C544 C548 1.416 1_455 S
C545 C546 1.437 . S
C545 C547 1.404 . S
C545 C574 1.387 . S
C546 C538 1.446 1_655 S
C546 N543 1.346 1_655 S
C546 C545 1.437 . S
C547 H536 0.930 . S
C547 C545 1.404 . S
C547 C548 1.366 . S
C548 H527 0.930 . S
C548 C544 1.416 1_655 S
C548 C547 1.366 . S
H549 C542 0.929 . S
H550 C573 0.931 . S
H551 C574 0.931 . S
O552 Eu508 2.462 . S
O552 C572 1.252 . S
O553 Eu508 2.373 1_655 S
O553 C564 1.249 . S
O554 Eu519 2.335 . S
O554 C564 1.264 . S
O555 Eu508 2.432 . S
O555 C572 1.268 . S
O556 Eu508 2.291 . S
O556 C571 1.255 . S
O557 Eu519 2.372 . S
O557 C571 1.257 1_655 S
O558 Eu519 2.462 . S
O558 C583 1.252 . S
O559 Eu519 2.373 1_455 S
O559 C575 1.249 . S
O560 Eu508 2.335 . S
O560 C575 1.264 . S
O561 Eu519 2.432 . S
O561 C583 1.268 . S
O562 Eu519 2.291 . S
O562 C582 1.255 1_655 S
O563 Eu508 2.372 . S
O563 C582 1.257 . S
C564 O553 1.249 . S
C564 O554 1.264 . S
C565 C568 1.382 . S
C565 C570 1.390 . S
C565 C572 1.506 . S
C566 C567 1.398 . S
C566 C570 1.392 . S
C567 C566 1.398 . S
C567 C569 1.372 . S
C567 H584 0.931 . S
C568 C565 1.382 . S
C568 C569 1.390 . S
C568 H585 0.931 . S
C569 C567 1.372 . S
C569 C568 1.390 . S
C569 H586 0.929 . S
C570 C565 1.390 . S
C570 C566 1.392 . S
C570 H587 0.930 . S
C571 O556 1.255 . S
C571 O557 1.257 1_455 S
C572 Eu508 2.787 . S
C572 O552 1.252 . S
C572 O555 1.268 . S
C572 C565 1.506 . S
C573 C540 1.439 . S
C573 H550 0.931 . S
C573 C574 1.374 . S
C574 C545 1.387 . S
C574 H551 0.931 . S
C574 C573 1.374 . S
C575 O559 1.249 . S
C575 O560 1.264 . S
C576 C579 1.382 . S
C576 C580 1.390 . S
C576 C583 1.506 . S
C577 C578 1.398 . S
C577 C580 1.392 . S
C578 C577 1.398 . S
C578 C581 1.372 . S
C578 H588 0.931 . S
C579 C576 1.382 . S
C579 C581 1.390 . S
C579 H589 0.931 . S
C580 C576 1.390 . S
C580 C577 1.392 . S
C580 H590 0.930 . S
C581 C578 1.372 . S
C581 C579 1.390 . S
C581 H591 0.929 . S
C582 O562 1.255 1_455 S
C582 O563 1.257 . S
C583 Eu519 2.787 . S
C583 O558 1.252 . S
C583 O561 1.268 . S
C583 C576 1.506 . S
H584 C567 0.931 . S
H585 C568 0.931 . S
H586 C569 0.929 . S
H587 C570 0.930 . S
H588 C578 0.931 . S
H589 C579 0.931 . S
H590 C580 0.930 . S
H591 C581 0.929 . S
C592 C593 1.391 . S
C592 C594 1.394 . S
C592 H608 0.931 . S
C593 C592 1.391 . S
C593 C597 1.376 . S
C594 C592 1.394 . S
C594 C595 1.369 . S
C594 C598 1.531 1_545 S
C595 C594 1.369 . S
C595 C596 1.410 . S
C595 C603 1.503 . S
C596 C595 1.410 . S
C596 C597 1.392 . S
C596 C599 1.511 . S
C597 C593 1.376 . S
C597 C596 1.392 . S
C597 H609 0.929 . S
C598 C594 1.531 1_565 S
C598 H610 0.960 . S
C598 H611 0.962 . S
C598 H612 0.960 . S
C599 C596 1.511 . S
C599 H613 0.961 . S
C599 H614 0.961 . S
C599 H615 0.961 . S
C600 C601 1.370 . S
C600 C602 1.363 . S
C600 H616 0.931 . S
C601 C600 1.370 . S
C601 C605 1.408 . S
C602 C600 1.363 . S
C602 C603 1.370 . S
C602 C606 1.524 . S
C603 C595 1.503 . S
C603 C602 1.370 . S
C603 C604 1.403 . S
C604 C603 1.403 . S
C604 C605 1.404 . S
C604 C607 1.539 . S
C605 C601 1.408 . S
C605 C604 1.404 . S
C605 H617 0.930 . S
C606 C602 1.524 . S
C606 H618 0.956 . S
C606 H619 0.961 . S
C606 H620 0.961 . S
C607 C604 1.539 . S
C607 H621 0.958 1_545 S
C607 H622 0.961 . S
C607 H623 0.960 . S
H608 C592 0.931 . S
H609 C597 0.929 . S
H610 C598 0.960 . S
H611 C598 0.962 . S
H612 C598 0.960 . S
H613 C599 0.961 . S
H614 C599 0.961 . S
H615 C599 0.961 . S
H616 C600 0.931 . S
H617 C605 0.930 . S
H618 C606 0.956 . S
H619 C606 0.961 . S
H620 C606 0.961 . S
H621 C607 0.958 1_565 S
H622 C607 0.961 . S
H623 C607 0.960 . S
C624 C625 1.391 . S
C624 C626 1.394 . S
C624 H640 0.931 . S
C625 C624 1.391 . S
C625 C629 1.376 . S
C626 C624 1.394 . S
C626 C627 1.369 . S
C626 C630 1.531 . S
C627 C626 1.369 . S
C627 C628 1.410 . S
C627 C635 1.503 . S
C628 C627 1.410 . S
C628 C629 1.392 . S
C628 C631 1.511 . S
C629 C625 1.376 . S
C629 C628 1.392 . S
C629 H641 0.929 . S
C630 C626 1.531 . S
C630 H642 0.960 . S
C630 H643 0.962 . S
C630 H644 0.960 . S
C631 C628 1.511 . S
C631 H645 0.961 . S
C631 H646 0.961 . S
C631 H647 0.961 . S
C632 C633 1.370 . S
C632 C634 1.363 . S
C632 H648 0.931 . S
C633 C632 1.370 . S
C633 C637 1.408 . S
C634 C632 1.363 . S
C634 C635 1.370 . S
C634 C638 1.524 . S
C635 C627 1.503 . S
C635 C634 1.370 . S
C635 C636 1.403 . S
C636 C635 1.403 . S
C636 C637 1.404 . S
C636 C639 1.539 . S
C637 C633 1.408 . S
C637 C636 1.404 . S
C637 H649 0.930 . S
C638 C634 1.524 . S
C638 H650 0.956 . S
C638 H651 0.961 . S
C638 H652 0.961 . S
C639 C636 1.539 . S
C639 H653 0.958 . S
C639 H654 0.961 . S
C639 H655 0.960 . S
H640 C624 0.931 . S
H641 C629 0.929 . S
H642 C630 0.960 . S
H643 C630 0.962 . S
H644 C630 0.960 . S
H645 C631 0.961 . S
H646 C631 0.961 . S
H647 C631 0.961 . S
H648 C632 0.931 . S
H649 C637 0.930 . S
H650 C638 0.956 . S
H651 C638 0.961 . S
H652 C638 0.961 . S
H653 C639 0.958 . S
H654 C639 0.961 . S
H655 C639 0.960 . S
C656 C657 1.391 . S
C656 C658 1.394 . S
C656 H672 0.931 . S
C657 C656 1.391 . S
C657 C661 1.376 . S
C658 C656 1.394 . S
C658 C659 1.369 . S
C658 C662 1.531 . S
C659 C658 1.369 . S
C659 C660 1.410 . S
C659 C667 1.503 . S
C660 C659 1.410 . S
C660 C661 1.392 . S
C660 C663 1.511 . S
C661 C657 1.376 . S
C661 C660 1.392 . S
C661 H673 0.929 . S
C662 C658 1.531 . S
C662 H674 0.960 . S
C662 H675 0.962 . S
C662 H676 0.960 . S
C663 C660 1.511 . S
C663 H677 0.961 . S
C663 H678 0.961 . S
C663 H679 0.961 . S
C664 C665 1.370 . S
C664 C666 1.363 . S
C664 H680 0.931 . S
C665 C664 1.370 . S
C665 C669 1.408 . S
C666 C664 1.363 . S
C666 C667 1.370 . S
C666 C670 1.524 . S
C667 C659 1.503 . S
C667 C666 1.370 . S
C667 C668 1.403 . S
C668 C667 1.403 . S
C668 C669 1.404 . S
C668 C671 1.539 . S
C669 C665 1.408 . S
C669 C668 1.404 . S
C669 H681 0.930 . S
C670 C666 1.524 . S
C670 H682 0.956 . S
C670 H683 0.961 . S
C670 H684 0.961 . S
C671 C668 1.539 . S
C671 H685 0.958 . S
C671 H686 0.961 . S
C671 H687 0.960 . S
H672 C656 0.931 . S
H673 C661 0.929 . S
H674 C662 0.960 . S
H675 C662 0.962 . S
H676 C662 0.960 . S
H677 C663 0.961 . S
H678 C663 0.961 . S
H679 C663 0.961 . S
H680 C664 0.931 . S
H681 C669 0.930 . S
H682 C670 0.956 . S
H683 C670 0.961 . S
H684 C670 0.961 . S
H685 C671 0.958 . S
H686 C671 0.961 . S
H687 C671 0.960 . S
C688 C689 1.391 . S
C688 C690 1.394 . S
C688 H704 0.931 . S
C689 C688 1.391 . S
C689 C693 1.376 . S
C690 C688 1.394 . S
C690 C691 1.369 . S
C690 C694 1.531 . S
C691 C690 1.369 . S
C691 C692 1.410 . S
C691 C699 1.503 . S
C692 C691 1.410 . S
C692 C693 1.392 . S
C692 C695 1.511 . S
C693 C689 1.376 . S
C693 C692 1.392 . S
C693 H705 0.929 . S
C694 C690 1.531 . S
C694 H706 0.960 . S
C694 H707 0.962 . S
C694 H708 0.960 . S
C695 C692 1.511 . S
C695 H709 0.961 . S
C695 H710 0.961 . S
C695 H711 0.961 1_455 S
C696 C697 1.370 . S
C696 C698 1.363 . S
C696 H712 0.931 . S
C697 C696 1.370 . S
C697 C701 1.408 1_455 S
C698 C696 1.363 . S
C698 C699 1.370 . S
C698 C702 1.524 . S
C699 C691 1.503 . S
C699 C698 1.370 . S
C699 C700 1.403 1_455 S
C700 C699 1.403 1_655 S
C700 C701 1.404 . S
C700 C703 1.539 . S
C701 C697 1.408 1_655 S
C701 C700 1.404 . S
C701 H713 0.930 . S
C702 C698 1.524 . S
C702 H714 0.956 . S
C702 H715 0.961 . S
C702 H716 0.961 . S
C703 C700 1.539 . S
C703 H717 0.958 . S
C703 H718 0.961 . S
C703 H719 0.960 . S
H704 C688 0.931 . S
H705 C693 0.929 . S
H706 C694 0.960 . S
H707 C694 0.962 . S
H708 C694 0.960 . S
H709 C695 0.961 . S
H710 C695 0.961 . S
H711 C695 0.961 1_655 S
H712 C696 0.931 . S
H713 C701 0.930 . S
H714 C702 0.956 . S
H715 C702 0.961 . S
H716 C702 0.961 . S
H717 C703 0.958 . S
H718 C703 0.961 . S
H719 C703 0.960 . S
C720 C721 1.391 . S
C720 C722 1.394 . S
C720 H736 0.931 . S
C721 C720 1.391 . S
C721 C725 1.376 . S
C722 C720 1.394 . S
C722 C723 1.369 . S
C722 C726 1.531 1_554 S
C723 C722 1.369 . S
C723 C724 1.418 . S
C723 C731 1.494 1_554 S
C724 C723 1.418 . S
C724 C725 1.392 . S
C724 C727 1.511 1_565 S
C725 C721 1.376 . S
C725 C724 1.392 . S
C725 H737 0.929 . S
C726 C722 1.531 1_556 S
C726 H738 0.960 . S
C726 H739 0.962 . S
C726 H740 0.960 . S
C727 C724 1.511 1_545 S
C727 H741 0.961 . S
C727 H742 0.961 . S
C727 H743 0.961 . S
C728 C729 1.370 . S
C728 C730 1.363 . S
C728 H744 0.931 . S
C729 C728 1.370 . S
C729 C733 1.408 1_565 S
C730 C728 1.363 . S
C730 C731 1.370 . S
C730 C734 1.524 . S
C731 C723 1.494 1_556 S
C731 C730 1.370 . S
C731 C732 1.403 1_565 S
C732 C731 1.403 1_545 S
C732 C733 1.404 . S
C732 C735 1.539 . S
C733 C729 1.408 1_545 S
C733 C732 1.404 . S
C733 H745 0.930 . S
C734 C730 1.524 . S
C734 H746 0.956 . S
C734 H747 0.961 . S
C734 H748 0.961 . S
C735 C732 1.539 . S
C735 H749 0.958 . S
C735 H750 0.961 . S
C735 H751 0.960 . S
H736 C720 0.931 . S
H737 C725 0.929 . S
H738 C726 0.960 . S
H739 C726 0.962 . S
H740 C726 0.960 . S
H741 C727 0.961 . S
H742 C727 0.961 . S
H743 C727 0.961 . S
H744 C728 0.931 . S
H745 C733 0.930 . S
H746 C734 0.956 . S
H747 C734 0.961 . S
H748 C734 0.961 . S
H749 C735 0.958 . S
H750 C735 0.961 . S
H751 C735 0.960 . S
C752 C753 1.391 . S
C752 C754 1.394 . S
C752 H768 0.931 . S
C753 C752 1.391 . S
C753 C757 1.376 . S
C754 C752 1.394 . S
C754 C755 1.369 . S
C754 C758 1.531 . S
C755 C754 1.369 . S
C755 C756 1.410 . S
C755 C763 1.503 1_554 S
C756 C755 1.410 . S
C756 C757 1.392 . S
C756 C759 1.511 1_554 S
C757 C753 1.376 . S
C757 C756 1.392 . S
C757 H769 0.929 . S
C758 C754 1.531 . S
C758 H770 0.960 . S
C758 H771 0.962 . S
C758 H772 0.960 . S
C759 C756 1.511 1_556 S
C759 H773 0.961 . S
C759 H774 0.961 . S
C759 H775 0.961 . S
C760 C761 1.370 . S
C760 C762 1.363 . S
C760 H776 0.931 . S
C761 C760 1.370 . S
C761 C765 1.408 . S
C762 C760 1.363 . S
C762 C763 1.370 . S
C762 C766 1.524 . S
C763 C755 1.503 1_556 S
C763 C762 1.370 . S
C763 C764 1.403 . S
C764 C763 1.403 . S
C764 C765 1.404 . S
C764 C767 1.539 . S
C765 C761 1.408 . S
C765 C764 1.404 . S
C765 H777 0.930 . S
C766 C762 1.524 . S
C766 H778 0.956 . S
C766 H779 0.961 . S
C766 H780 0.961 . S
C767 C764 1.539 . S
C767 H781 0.958 1_556 S
C767 H782 0.961 . S
C767 H783 0.960 1_556 S
H768 C752 0.931 . S
H769 C757 0.929 . S
H770 C758 0.960 . S
H771 C758 0.962 . S
H772 C758 0.960 . S
H773 C759 0.961 . S
H774 C759 0.961 . S
H775 C759 0.961 . S
H776 C760 0.931 . S
H777 C765 0.930 . S
H778 C766 0.956 . S
H779 C766 0.961 . S
H780 C766 0.961 . S
H781 C767 0.958 1_554 S
H782 C767 0.961 . S
H783 C767 0.960 1_554 S
C784 C785 1.391 . S
C784 C786 1.394 . S
C784 H800 0.931 . S
C785 C784 1.391 . S
C785 C789 1.376 . S
C786 C784 1.394 . S
C786 C787 1.369 1_554 S
C786 C790 1.531 . S
C787 C786 1.369 1_556 S
C787 C788 1.410 1_556 S
C787 C795 1.503 . S
C788 C787 1.410 1_554 S
C788 C789 1.392 . S
C788 C791 1.511 1_554 S
C789 C785 1.376 . S
C789 C788 1.392 . S
C789 H801 0.929 . S
C790 C786 1.531 . S
C790 H802 0.960 1_554 S
C790 H803 0.962 . S
C790 H804 0.960 . S
C791 C788 1.511 1_556 S
C791 H805 0.961 . S
C791 H806 0.961 . S
C791 H807 0.961 . S
C792 C793 1.370 . S
C792 C794 1.363 . S
C792 H808 0.931 . S
C793 C792 1.370 . S
C793 C797 1.408 . S
C794 C792 1.363 . S
C794 C795 1.370 . S
C794 C798 1.524 . S
C795 C787 1.503 . S
C795 C794 1.370 . S
C795 C796 1.403 . S
C796 C795 1.403 . S
C796 C797 1.404 . S
C796 C799 1.539 . S
C797 C793 1.408 . S
C797 C796 1.404 . S
C797 H809 0.930 . S
C798 C794 1.524 . S
C798 H810 0.956 1_556 S
C798 H811 0.961 1_556 S
C798 H812 0.961 . S
C799 C796 1.539 . S
C799 H813 0.958 . S
C799 H814 0.961 . S
C799 H815 0.960 . S
H800 C784 0.931 . S
H801 C789 0.929 . S
H802 C790 0.960 1_556 S
H803 C790 0.962 . S
H804 C790 0.960 . S
H805 C791 0.961 . S
H806 C791 0.961 . S
H807 C791 0.961 . S
H808 C792 0.931 . S
H809 C797 0.930 . S
H810 C798 0.956 1_554 S
H811 C798 0.961 1_554 S
H812 C798 0.961 . S
H813 C799 0.958 . S
H814 C799 0.961 . S
H815 C799 0.960 . S
C816 C817 1.391 . S
C816 C818 1.394 . S
C816 H832 0.931 1_655 S
C817 C816 1.391 . S
C817 C821 1.376 . S
C818 C816 1.394 . S
C818 C819 1.369 . S
C818 C822 1.531 1_655 S
C819 C818 1.369 . S
C819 C820 1.410 . S
C819 C827 1.503 1_554 S
C820 C819 1.410 . S
C820 C821 1.392 . S
C820 C823 1.511 1_554 S
C821 C817 1.376 . S
C821 C820 1.392 . S
C821 H833 0.929 . S
C822 C818 1.531 1_455 S
C822 H834 0.960 . S
C822 H835 0.962 . S
C822 H836 0.960 . S
C823 C820 1.511 1_556 S
C823 H837 0.961 . S
C823 H838 0.961 . S
C823 H839 0.961 . S
C824 C825 1.370 1_455 S
C824 C826 1.363 1_455 S
C824 H840 0.932 . S
C825 C824 1.370 1_655 S
C825 C829 1.408 . S
C826 C824 1.363 1_655 S
C826 C827 1.370 . S
C826 C830 1.524 1_655 S
C827 C819 1.503 1_556 S
C827 C826 1.370 . S
C827 C828 1.403 . S
C828 C827 1.403 . S
C828 C829 1.404 . S
C828 C831 1.539 . S
C829 C825 1.408 . S
C829 C828 1.404 . S
C829 H841 0.930 . S
C830 C826 1.524 1_455 S
C830 H842 0.956 . S
C830 H843 0.961 1_455 S
C830 H844 0.961 . S
C831 C828 1.539 . S
C831 H845 0.958 1_556 S
C831 H846 0.961 . S
C831 H847 0.960 1_556 S
H832 C816 0.931 1_455 S
H833 C821 0.929 . S
H834 C822 0.960 . S
H835 C822 0.962 . S
H836 C822 0.960 . S
H837 C823 0.961 . S
H838 C823 0.961 . S
H839 C823 0.961 . S
H840 C824 0.932 . S
H841 C829 0.930 . S
H842 C830 0.956 . S
H843 C830 0.961 1_655 S
H844 C830 0.961 . S
H845 C831 0.958 1_554 S
H846 C831 0.961 . S
H847 C831 0.960 1_554 S
C848 C849 1.391 . S
C848 C850 1.394 . S
C848 H864 0.931 . S
C849 C848 1.391 . S
C849 C853 1.376 . S
C850 C848 1.394 . S
C850 C851 1.369 . S
C850 C854 1.531 . S
C851 C850 1.369 . S
C851 C852 1.410 . S
C851 C859 1.503 . S
C852 C851 1.410 . S
C852 C853 1.392 . S
C852 C855 1.511 . S
C853 C849 1.376 . S
C853 C852 1.392 . S
C853 H865 0.929 . S
C854 C850 1.531 . S
C854 H866 0.960 . S
C854 H867 0.962 . S
C854 H868 0.960 . S
C855 C852 1.511 . S
C855 H869 0.961 . S
C855 H870 0.961 . S
C855 H871 0.961 . S
C856 C857 1.370 . S
C856 C858 1.363 . S
C856 H872 0.931 . S
C857 C856 1.370 . S
C857 C861 1.408 1_655 S
C858 C856 1.363 . S
C858 C859 1.370 1_655 S
C858 C862 1.524 . S
C859 C851 1.503 . S
C859 C858 1.370 1_455 S
C859 C860 1.403 . S
C860 C859 1.403 . S
C860 C861 1.404 . S
C860 C863 1.539 . S
C861 C857 1.408 1_455 S
C861 C860 1.404 . S
C861 H873 0.930 . S
C862 C858 1.524 . S
C862 H874 0.956 . S
C862 H875 0.961 . S
C862 H876 0.961 . S
C863 C860 1.539 . S
C863 H877 0.958 . S
C863 H878 0.961 . S
C863 H879 0.960 . S
H864 C848 0.931 . S
H865 C853 0.929 . S
H866 C854 0.960 . S
H867 C854 0.962 . S
H868 C854 0.960 . S
H869 C855 0.961 . S
H870 C855 0.961 . S
H871 C855 0.961 . S
H872 C856 0.931 . S
H873 C861 0.930 . S
H874 C862 0.956 . S
H875 C862 0.961 . S
H876 C862 0.961 . S
H877 C863 0.958 . S
H878 C863 0.961 . S
H879 C863 0.960 . S
C880 C881 1.391 . S
C880 C882 1.394 . S
C880 H896 0.931 . S
C881 C880 1.391 . S
C881 C885 1.376 . S
C882 C880 1.394 . S
C882 C883 1.369 . S
C882 C886 1.531 . S
C883 C882 1.369 . S
C883 C884 1.410 . S
C883 C891 1.503 . S
C884 C883 1.410 . S
C884 C885 1.392 . S
C884 C887 1.511 . S
C885 C881 1.376 . S
C885 C884 1.392 . S
C885 H897 0.929 . S
C886 C882 1.531 . S
C886 H898 0.960 . S
C886 H899 0.962 . S
C886 H900 0.960 . S
C887 C884 1.511 . S
C887 H901 0.961 . S
C887 H902 0.961 . S
C887 H903 0.961 1_545 S
C888 C889 1.370 . S
C888 C890 1.363 . S
C888 H904 0.931 . S
C889 C888 1.370 . S
C889 C893 1.408 1_545 S
C890 C888 1.363 . S
C890 C891 1.370 . S
C890 C894 1.524 . S
C891 C883 1.503 . S
C891 C890 1.370 . S
C891 C892 1.403 1_545 S
C892 C891 1.403 1_565 S
C892 C893 1.404 . S
C892 C895 1.539 . S
C893 C889 1.408 1_565 S
C893 C892 1.404 . S
C893 H905 0.930 . S
C894 C890 1.524 . S
C894 H906 0.956 . S
C894 H907 0.961 . S
C894 H908 0.961 . S
C895 C892 1.539 . S
C895 H909 0.958 . S
C895 H910 0.961 . S
C895 H911 0.960 . S
H896 C880 0.931 . S
H897 C885 0.929 . S
H898 C886 0.960 . S
H899 C886 0.962 . S
H900 C886 0.960 . S
H901 C887 0.961 . S
H902 C887 0.961 . S
H903 C887 0.961 1_565 S
H904 C888 0.931 . S
H905 C893 0.930 . S
H906 C894 0.956 . S
H907 C894 0.961 . S
H908 C894 0.961 . S
H909 C895 0.958 . S
H910 C895 0.961 . S
H911 C895 0.960 . S
C912 C913 1.391 . S
C912 C914 1.394 . S
C912 H928 0.931 . S
C913 C912 1.391 . S
C913 C917 1.376 . S
C914 C912 1.394 . S
C914 C915 1.369 . S
C914 C918 1.531 . S
C915 C914 1.369 . S
C915 C916 1.410 . S
C915 C923 1.503 . S
C916 C915 1.410 . S
C916 C917 1.392 . S
C916 C919 1.511 . S
C917 C913 1.376 . S
C917 C916 1.392 . S
C917 H929 0.929 . S
C918 C914 1.531 . S
C918 H930 0.960 . S
C918 H931 0.962 . S
C918 H932 0.960 . S
C919 C916 1.511 . S
C919 H933 0.961 . S
C919 H934 0.961 . S
C919 H935 0.961 . S
C920 C921 1.370 . S
C920 C922 1.363 . S
C920 H936 0.931 . S
C921 C920 1.370 . S
C921 C925 1.408 . S
C922 C920 1.363 . S
C922 C923 1.370 . S
C922 C926 1.524 . S
C923 C915 1.503 . S
C923 C922 1.370 . S
C923 C924 1.403 . S
C924 C923 1.403 . S
C924 C925 1.404 . S
C924 C927 1.539 . S
C925 C921 1.408 . S
C925 C924 1.404 . S
C925 H937 0.930 . S
C926 C922 1.524 . S
C926 H938 0.956 . S
C926 H939 0.961 . S
C926 H940 0.961 . S
C927 C924 1.539 . S
C927 H941 0.958 . S
C927 H942 0.961 . S
C927 H943 0.960 . S
H928 C912 0.931 . S
H929 C917 0.929 . S
H930 C918 0.960 . S
H931 C918 0.962 . S
H932 C918 0.960 . S
H933 C919 0.961 . S
H934 C919 0.961 . S
H935 C919 0.961 . S
H936 C920 0.931 . S
H937 C925 0.930 . S
H938 C926 0.956 . S
H939 C926 0.961 . S
H940 C926 0.961 . S
H941 C927 0.958 . S
H942 C927 0.961 . S
H943 C927 0.960 . S
C944 C945 1.391 . S
C944 C946 1.394 . S
C944 H960 0.931 . S
C945 C944 1.391 . S
C945 C949 1.376 . S
C946 C944 1.394 . S
C946 C947 1.369 . S
C946 C950 1.531 . S
C947 C946 1.369 . S
C947 C948 1.410 . S
C947 C955 1.503 . S
C948 C947 1.410 . S
C948 C949 1.392 . S
C948 C951 1.511 . S
C949 C945 1.376 . S
C949 C948 1.392 . S
C949 H961 0.929 . S
C950 C946 1.531 . S
C950 H962 0.960 . S
C950 H963 0.962 . S
C950 H964 0.960 . S
C951 C948 1.511 . S
C951 H965 0.961 . S
C951 H966 0.961 . S
C951 H967 0.961 . S
C952 C953 1.370 . S
C952 C954 1.363 . S
C952 H968 0.931 . S
C953 C952 1.370 . S
C953 C957 1.408 . S
C954 C952 1.363 . S
C954 C955 1.370 . S
C954 C958 1.524 . S
C955 C947 1.503 . S
C955 C954 1.370 . S
C955 C956 1.403 . S
C956 C955 1.403 . S
C956 C957 1.404 . S
C956 C959 1.539 . S
C957 C953 1.408 . S
C957 C956 1.404 . S
C957 H969 0.930 . S
C958 C954 1.524 . S
C958 H970 0.956 . S
C958 H971 0.961 . S
C958 H972 0.961 . S
C959 C956 1.539 . S
C959 H973 0.958 . S
C959 H974 0.961 . S
C959 H975 0.960 . S
H960 C944 0.931 . S
H961 C949 0.929 . S
H962 C950 0.960 . S
H963 C950 0.962 . S
H964 C950 0.960 . S
H965 C951 0.961 . S
H966 C951 0.961 . S
H967 C951 0.961 . S
H968 C952 0.931 . S
H969 C957 0.930 . S
H970 C958 0.956 . S
H971 C958 0.961 . S
H972 C958 0.961 . S
H973 C959 0.958 . S
H974 C959 0.961 . S
H975 C959 0.960 . S
C976 C977 1.391 . S
C976 C978 1.394 . S
C976 H992 0.931 . S
C977 C976 1.391 . S
C977 C981 1.376 . S
C978 C976 1.394 . S
C978 C979 1.369 . S
C978 C982 1.531 . S
C979 C978 1.369 . S
C979 C980 1.391 1_655 S
C979 C987 1.503 1_554 S
C980 C979 1.391 1_455 S
C980 C981 1.378 1_455 S
C980 C983 1.544 1_554 S
C981 C977 1.376 . S
C981 C980 1.378 1_655 S
C981 H993 0.951 . S
C982 C978 1.531 . S
C982 H994 0.960 . S
C982 H995 0.962 . S
C982 H996 0.960 . S
C983 C980 1.544 1_556 S
C983 H997 0.961 . S
C983 H998 0.961 . S
C983 H999 0.961 1_556 S
C984 C985 1.370 1_655 S
C984 C986 1.363 . S
C984 H1000 0.931 . S
C985 C984 1.370 1_455 S
C985 C989 1.408 . S
C986 C984 1.363 . S
C986 C987 1.370 . S
C986 C990 1.524 . S
C987 C979 1.503 1_556 S
C987 C986 1.370 . S
C987 C988 1.403 1_656 S
C988 C987 1.403 1_454 S
C988 C989 1.404 1_554 S
C988 C991 1.539 . S
C989 C985 1.408 . S
C989 C988 1.404 1_556 S
C989 H1001 0.930 . S
C990 C986 1.524 . S
C990 H1002 0.956 . S
C990 H1003 0.961 . S
C990 H1004 0.961 . S
C991 C988 1.539 . S
C991 H1005 0.958 . S
C991 H1006 0.961 . S
C991 H1007 0.960 . S
H992 C976 0.931 . S
H993 C981 0.951 . S
H994 C982 0.960 . S
H995 C982 0.962 . S
H996 C982 0.960 . S
H997 C983 0.961 . S
H998 C983 0.961 . S
H999 C983 0.961 1_554 S
H1000 C984 0.931 . S
H1001 C989 0.930 . S
H1002 C990 0.956 . S
H1003 C990 0.961 . S
H1004 C990 0.961 . S
H1005 C991 0.958 . S
H1006 C991 0.961 . S
H1007 C991 0.960 . S
C1008 C1009 1.391 . S
C1008 C1010 1.394 1_554 S
C1008 H1024 0.931 1_554 S
C1009 C1008 1.391 . S
C1009 C1013 1.376 . S
C1010 C1008 1.394 1_556 S
C1010 C1011 1.369 1_556 S
C1010 C1014 1.531 . S
C1011 C1010 1.369 1_554 S
C1011 C1012 1.410 . S
C1011 C1019 1.503 1_554 S
C1012 C1011 1.410 . S
C1012 C1013 1.392 . S
C1012 C1015 1.511 . S
C1013 C1009 1.376 . S
C1013 C1012 1.392 . S
C1013 H1025 0.929 . S
C1014 C1010 1.531 . S
C1014 H1026 0.960 . S
C1014 H1027 0.962 . S
C1014 H1028 0.960 . S
C1015 C1012 1.511 . S
C1015 H1029 0.961 . S
C1015 H1030 0.929 1_565 S
C1015 H1031 0.961 . S
C1016 C1017 1.370 . S
C1016 C1018 1.363 . S
C1016 H1032 0.931 . S
C1017 C1016 1.370 . S
C1017 C1021 1.408 1_545 S
C1018 C1016 1.363 . S
C1018 C1019 1.370 1_545 S
C1018 C1022 1.524 . S
C1019 C1011 1.503 1_556 S
C1019 C1018 1.370 1_565 S
C1019 C1020 1.403 . S
C1020 C1019 1.403 . S
C1020 C1021 1.404 . S
C1020 C1023 1.539 . S
C1021 C1017 1.408 1_565 S
C1021 C1020 1.404 . S
C1021 H1033 0.930 . S
C1022 C1018 1.524 . S
C1022 H1034 0.956 . S
C1022 H1035 0.961 1_556 S
C1022 H1036 0.961 . S
C1023 C1020 1.539 . S
C1023 H1037 0.958 . S
C1023 H1038 0.961 . S
C1023 H1039 0.960 1_556 S
H1024 C1008 0.931 1_556 S
H1025 C1013 0.929 . S
H1026 C1014 0.960 . S
H1027 C1014 0.962 . S
H1028 C1014 0.960 . S
H1029 C1015 0.961 . S
H1030 C1015 0.929 1_545 S
H1031 C1015 0.961 . S
H1032 C1016 0.931 . S
H1033 C1021 0.930 . S
H1034 C1022 0.956 . S
H1035 C1022 0.961 1_554 S
H1036 C1022 0.961 . S
H1037 C1023 0.958 . S
H1038 C1023 0.961 . S
H1039 C1023 0.960 1_554 S
C1040 C1041 1.391 . S
C1040 C1042 1.394 . S
C1040 H1056 0.931 . S
C1041 C1040 1.391 . S
C1041 C1045 1.376 . S
C1042 C1040 1.394 . S
C1042 C1043 1.369 . S
C1042 C1046 1.531 . S
C1043 C1042 1.369 . S
C1043 C1044 1.410 . S
C1043 C1051 1.503 1_554 S
C1044 C1043 1.410 . S
C1044 C1045 1.392 . S
C1044 C1047 1.511 . S
C1045 C1041 1.376 . S
C1045 C1044 1.392 . S
C1045 H1057 0.929 . S
C1046 C1042 1.531 . S
C1046 H1058 0.960 . S
C1046 H1059 0.963 . S
C1046 H1060 0.960 . S
C1047 C1044 1.511 . S
C1047 H1061 0.961 . S
C1047 H1062 0.961 1_554 S
C1047 H1063 0.961 . S
C1048 C1049 1.370 . S
C1048 C1050 1.363 . S
C1048 H1064 0.931 . S
C1049 C1048 1.370 . S
C1049 C1053 1.408 . S
C1050 C1048 1.363 . S
C1050 C1051 1.370 . S
C1050 C1054 1.524 . S
C1051 C1043 1.503 1_556 S
C1051 C1050 1.370 . S
C1051 C1052 1.403 1_556 S
C1052 C1051 1.403 1_554 S
C1052 C1053 1.404 1_554 S
C1052 C1055 1.539 . S
C1053 C1049 1.408 . S
C1053 C1052 1.404 1_556 S
C1053 H1065 0.930 . S
C1054 C1050 1.524 . S
C1054 H1066 0.956 . S
C1054 H1067 0.961 . S
C1054 H1068 0.961 . S
C1055 C1052 1.539 . S
C1055 H1069 0.958 . S
C1055 H1070 0.961 . S
C1055 H1071 0.960 . S
H1056 C1040 0.931 . S
H1057 C1045 0.929 . S
H1058 C1046 0.960 . S
H1059 C1046 0.963 . S
H1060 C1046 0.960 . S
H1061 C1047 0.961 . S
H1062 C1047 0.961 1_556 S
H1063 C1047 0.961 . S
H1064 C1048 0.931 . S
H1065 C1053 0.930 . S
H1066 C1054 0.956 . S
H1067 C1054 0.961 . S
H1068 C1054 0.961 . S
H1069 C1055 0.958 . S
H1070 C1055 0.961 . S
H1071 C1055 0.960 . S
C1072 C1073 1.391 . S
C1072 C1074 1.394 . S
C1072 H1088 0.931 . S
C1073 C1072 1.391 . S
C1073 C1077 1.376 . S
C1074 C1072 1.394 . S
C1074 C1075 1.371 . S
C1074 C1078 1.531 1_554 S
C1075 C1074 1.371 . S
C1075 C1076 1.414 . S
C1075 C1083 1.498 1_554 S
C1076 C1075 1.414 . S
C1076 C1077 1.392 . S
C1076 C1079 1.511 . S
C1077 C1073 1.376 . S
C1077 C1076 1.392 . S
C1077 H1089 0.929 . S
C1078 C1074 1.531 1_556 S
C1078 H1090 0.960 . S
C1078 H1091 0.962 1_556 S
C1078 H1092 0.960 . S
C1079 C1076 1.511 . S
C1079 H1093 0.961 . S
C1079 H1094 0.961 . S
C1079 H1095 0.961 1_554 S
C1080 C1081 1.370 . S
C1080 C1082 1.363 . S
C1080 H1096 0.931 . S
C1081 C1080 1.370 . S
C1081 C1085 1.408 . S
C1082 C1080 1.363 . S
C1082 C1083 1.370 . S
C1082 C1086 1.524 1_556 S
C1083 C1075 1.498 1_556 S
C1083 C1082 1.370 . S
C1083 C1084 1.403 . S
C1084 C1083 1.403 . S
C1084 C1085 1.404 . S
C1084 C1087 1.539 . S
C1085 C1081 1.408 . S
C1085 C1084 1.404 . S
C1085 H1097 0.930 . S
C1086 C1082 1.524 1_554 S
C1086 H1098 0.956 . S
C1086 H1099 0.961 . S
C1086 H1100 0.961 . S
C1087 C1084 1.539 . S
C1087 H1101 0.958 . S
C1087 H1102 0.961 . S
C1087 H1103 0.960 . S
H1088 C1072 0.931 . S
H1089 C1077 0.929 . S
H1090 C1078 0.960 . S
H1091 C1078 0.962 1_554 S
H1092 C1078 0.960 . S
H1093 C1079 0.961 . S
H1094 C1079 0.961 . S
H1095 C1079 0.961 1_556 S
H1096 C1080 0.931 . S
H1097 C1085 0.930 . S
H1098 C1086 0.956 . S
H1099 C1086 0.961 . S
H1100 C1086 0.961 . S
H1101 C1087 0.958 . S
H1102 C1087 0.961 . S
H1103 C1087 0.960 . S
C1104 C1105 1.391 . S
C1104 C1106 1.394 . S
C1104 H1120 0.931 . S
C1105 C1104 1.391 . S
C1105 C1109 1.376 . S
C1106 C1104 1.394 . S
C1106 C1107 1.369 . S
C1106 C1110 1.531 . S
C1107 C1106 1.369 . S
C1107 C1108 1.410 . S
C1107 C1115 1.503 . S
C1108 C1107 1.410 . S
C1108 C1109 1.392 . S
C1108 C1111 1.511 . S
C1109 C1105 1.376 . S
C1109 C1108 1.392 . S
C1109 H1121 0.929 . S
C1110 C1106 1.531 . S
C1110 H1122 0.960 . S
C1110 H1123 0.962 1_455 S
C1110 H1124 0.967 . S
C1111 C1108 1.511 . S
C1111 H1125 0.961 . S
C1111 H1126 0.961 . S
C1111 H1127 0.961 . S
C1112 C1113 1.370 . S
C1112 C1114 1.363 . S
C1112 H1128 0.931 1_455 S
C1113 C1112 1.370 . S
C1113 C1117 1.408 . S
C1114 C1112 1.363 . S
C1114 C1115 1.370 . S
C1114 C1118 1.524 1_455 S
C1115 C1107 1.503 . S
C1115 C1114 1.370 . S
C1115 C1116 1.403 . S
C1116 C1115 1.403 . S
C1116 C1117 1.404 . S
C1116 C1119 1.539 . S
C1117 C1113 1.408 . S
C1117 C1116 1.404 . S
C1117 H1129 0.930 . S
C1118 C1114 1.524 1_655 S
C1118 H1130 0.957 . S
C1118 H1131 0.960 1_655 S
C1118 H1132 0.961 . S
C1119 C1116 1.539 . S
C1119 H1133 0.958 . S
C1119 H1134 0.961 . S
C1119 H1135 0.960 . S
H1120 C1104 0.931 . S
H1121 C1109 0.929 . S
H1122 C1110 0.960 . S
H1123 C1110 0.962 1_655 S
H1124 C1110 0.967 . S
H1125 C1111 0.961 . S
H1126 C1111 0.961 . S
H1127 C1111 0.961 . S
H1128 C1112 0.931 1_655 S
H1129 C1117 0.930 . S
H1130 C1118 0.957 . S
H1131 C1118 0.960 1_455 S
H1132 C1118 0.961 . S
H1133 C1119 0.958 . S
H1134 C1119 0.961 . S
H1135 C1119 0.960 . S
C1136 C1137 1.391 . S
C1136 C1138 1.394 . S
C1136 H1152 0.931 . S
C1137 C1136 1.391 . S
C1137 C1141 1.376 . S
C1138 C1136 1.394 . S
C1138 C1139 1.369 . S
C1138 C1142 1.531 1_545 S
C1139 C1138 1.369 . S
C1139 C1140 1.410 . S
C1139 C1147 1.503 . S
C1140 C1139 1.410 . S
C1140 C1141 1.392 . S
C1140 C1143 1.511 . S
C1141 C1137 1.376 . S
C1141 C1140 1.392 . S
C1141 H1153 0.929 . S
C1142 C1138 1.531 1_565 S
C1142 H1154 0.960 1_565 S
C1142 H1155 0.962 . S
C1142 H1156 0.960 . S
C1143 C1140 1.511 . S
C1143 H1157 0.961 . S
C1143 H1158 0.961 . S
C1143 H1159 0.961 . S
C1144 C1145 1.370 . S
C1144 C1146 1.363 . S
C1144 H1160 0.931 . S
C1145 C1144 1.370 . S
C1145 C1149 1.408 . S
C1146 C1144 1.363 . S
C1146 C1147 1.370 . S
C1146 C1150 1.524 . S
C1147 C1139 1.503 . S
C1147 C1146 1.370 . S
C1147 C1148 1.403 . S
C1148 C1147 1.403 . S
C1148 C1149 1.404 . S
C1148 C1151 1.539 . S
C1149 C1145 1.408 . S
C1149 C1148 1.404 . S
C1149 H1161 0.930 . S
C1150 C1146 1.524 . S
C1150 H1162 0.956 . S
C1150 H1163 0.961 . S
C1150 H1164 0.961 . S
C1151 C1148 1.539 . S
C1151 H1165 0.958 . S
C1151 H1166 0.961 . S
C1151 H1167 0.960 . S
H1152 C1136 0.931 . S
H1153 C1141 0.929 . S
H1154 C1142 0.960 1_545 S
H1155 C1142 0.962 . S
H1156 C1142 0.960 . S
H1157 C1143 0.961 . S
H1158 C1143 0.961 . S
H1159 C1143 0.961 . S
H1160 C1144 0.931 . S
H1161 C1149 0.930 . S
H1162 C1150 0.956 . S
H1163 C1150 0.961 . S
H1164 C1150 0.961 . S
H1165 C1151 0.958 . S
H1166 C1151 0.961 . S
H1167 C1151 0.960 . S
C1168 C1169 1.391 . S
C1168 C1170 1.394 . S
C1168 H1184 0.931 . S
C1169 C1168 1.391 . S
C1169 C1173 1.376 . S
C1170 C1168 1.394 . S
C1170 C1171 1.369 . S
C1170 C1174 1.531 . S
C1171 C1170 1.369 . S
C1171 C1172 1.410 . S
C1171 C1179 1.503 . S
C1172 C1171 1.410 . S
C1172 C1173 1.392 . S
C1172 C1175 1.511 . S
C1173 C1169 1.376 . S
C1173 C1172 1.392 . S
C1173 H1185 0.929 . S
C1174 C1170 1.531 . S
C1174 H1186 0.960 . S
C1174 H1187 0.962 . S
C1174 H1188 0.960 . S
C1175 C1172 1.511 . S
C1175 H1189 0.961 . S
C1175 H1190 0.961 . S
C1175 H1191 0.961 . S
C1176 C1177 1.370 . S
C1176 C1178 1.363 . S
C1176 H1192 0.931 . S
C1177 C1176 1.370 . S
C1177 C1181 1.408 . S
C1178 C1176 1.363 . S
C1178 C1179 1.370 . S
C1178 C1182 1.524 . S
C1179 C1171 1.503 . S
C1179 C1178 1.370 . S
C1179 C1180 1.403 . S
C1180 C1179 1.403 . S
C1180 C1181 1.404 . S
C1180 C1183 1.539 . S
C1181 C1177 1.408 . S
C1181 C1180 1.404 . S
C1181 H1193 0.930 . S
C1182 C1178 1.524 . S
C1182 H1194 0.956 . S
C1182 H1195 0.961 . S
C1182 H1196 0.961 . S
C1183 C1180 1.539 . S
C1183 H1197 0.958 . S
C1183 H1198 0.961 . S
C1183 H1199 0.960 . S
H1184 C1168 0.931 . S
H1185 C1173 0.929 . S
H1186 C1174 0.960 . S
H1187 C1174 0.962 . S
H1188 C1174 0.960 . S
H1189 C1175 0.961 . S
H1190 C1175 0.961 . S
H1191 C1175 0.961 . S
H1192 C1176 0.931 . S
H1193 C1181 0.930 . S
H1194 C1182 0.956 . S
H1195 C1182 0.961 . S
H1196 C1182 0.961 . S
H1197 C1183 0.958 . S
H1198 C1183 0.961 . S
H1199 C1183 0.960 . S
C1200 C1201 1.391 . S
C1200 C1202 1.394 . S
C1200 H1216 0.931 . S
C1201 C1200 1.391 . S
C1201 C1205 1.376 . S
C1202 C1200 1.394 . S
C1202 C1203 1.369 . S
C1202 C1206 1.531 . S
C1203 C1202 1.369 . S
C1203 C1204 1.410 . S
C1203 C1211 1.503 . S
C1204 C1203 1.410 . S
C1204 C1205 1.392 . S
C1204 C1207 1.511 . S
C1205 C1201 1.376 . S
C1205 C1204 1.392 . S
C1205 H1217 0.929 . S
C1206 C1202 1.531 . S
C1206 H1218 0.960 . S
C1206 H1219 0.962 . S
C1206 H1220 0.960 . S
C1207 C1204 1.511 . S
C1207 H1221 0.961 . S
C1207 H1222 0.961 . S
C1207 H1223 0.961 . S
C1208 C1209 1.370 . S
C1208 C1210 1.363 . S
C1208 H1224 0.931 . S
C1209 C1208 1.370 . S
C1209 C1213 1.408 . S
C1210 C1208 1.363 . S
C1210 C1211 1.370 . S
C1210 C1214 1.524 . S
C1211 C1203 1.503 . S
C1211 C1210 1.370 . S
C1211 C1212 1.403 . S
C1212 C1211 1.403 . S
C1212 C1213 1.404 . S
C1212 C1215 1.539 . S
C1213 C1209 1.408 . S
C1213 C1212 1.404 . S
C1213 H1225 0.930 . S
C1214 C1210 1.524 . S
C1214 H1226 0.956 . S
C1214 H1227 0.961 . S
C1214 H1228 0.961 . S
C1215 C1212 1.539 . S
C1215 H1229 0.958 . S
C1215 H1230 0.961 . S
C1215 H1231 0.960 . S
H1216 C1200 0.931 . S
H1217 C1205 0.929 . S
H1218 C1206 0.960 . S
H1219 C1206 0.962 . S
H1220 C1206 0.960 . S
H1221 C1207 0.961 . S
H1222 C1207 0.961 . S
H1223 C1207 0.961 . S
H1224 C1208 0.931 . S
H1225 C1213 0.930 . S
H1226 C1214 0.956 . S
H1227 C1214 0.961 . S
H1228 C1214 0.961 . S
H1229 C1215 0.958 . S
H1230 C1215 0.961 . S
H1231 C1215 0.960 . S
C1232 C1233 1.391 . S
C1232 C1234 1.394 . S
C1232 H1248 0.931 . S
C1233 C1232 1.391 . S
C1233 C1237 1.376 . S
C1234 C1232 1.394 . S
C1234 C1235 1.369 . S
C1234 C1238 1.531 . S
C1235 C1234 1.369 . S
C1235 C1236 1.416 . S
C1235 C1243 1.503 . S
C1236 C1235 1.416 . S
C1236 C1237 1.393 . S
C1236 C1239 1.503 1_655 S
C1237 C1233 1.376 . S
C1237 C1236 1.393 . S
C1237 H1249 0.929 1_655 S
C1238 C1234 1.531 . S
C1238 H1250 0.960 . S
C1238 H1251 0.962 . S
C1238 H1252 0.960 . S
C1239 C1236 1.503 1_455 S
C1239 H1253 0.961 . S
C1239 H1254 0.961 . S
C1239 H1255 0.961 . S
C1240 C1241 1.370 . S
C1240 C1242 1.363 . S
C1240 H1256 0.931 . S
C1241 C1240 1.370 . S
C1241 C1245 1.408 . S
C1242 C1240 1.363 . S
C1242 C1243 1.370 . S
C1242 C1246 1.524 . S
C1243 C1235 1.503 . S
C1243 C1242 1.370 . S
C1243 C1244 1.403 . S
C1244 C1243 1.403 . S
C1244 C1245 1.404 . S
C1244 C1247 1.539 . S
C1245 C1241 1.408 . S
C1245 C1244 1.404 . S
C1245 H1257 0.930 . S
C1246 C1242 1.524 . S
C1246 H1258 0.956 . S
C1246 H1259 0.961 . S
C1246 H1260 0.961 . S
C1247 C1244 1.539 . S
C1247 H1261 0.958 . S
C1247 H1262 0.961 1_655 S
C1247 H1263 0.960 . S
H1248 C1232 0.931 . S
H1249 C1237 0.929 1_455 S
H1250 C1238 0.960 . S
H1251 C1238 0.962 . S
H1252 C1238 0.960 . S
H1253 C1239 0.961 . S
H1254 C1239 0.961 . S
H1255 C1239 0.961 . S
H1256 C1240 0.931 . S
H1257 C1245 0.930 . S
H1258 C1246 0.956 . S
H1259 C1246 0.961 . S
H1260 C1246 0.961 . S
H1261 C1247 0.958 . S
H1262 C1247 0.961 1_455 S
H1263 C1247 0.960 . S
C1264 C1265 1.391 . S
C1264 C1266 1.394 . S
C1264 H1280 0.931 . S
C1265 C1264 1.391 . S
C1265 C1269 1.376 . S
C1266 C1264 1.394 . S
C1266 C1267 1.369 . S
C1266 C1270 1.531 . S
C1267 C1266 1.369 . S
C1267 C1268 1.410 . S
C1267 C1275 1.503 . S
C1268 C1267 1.410 . S
C1268 C1269 1.392 . S
C1268 C1271 1.511 1_565 S
C1269 C1265 1.376 . S
C1269 C1268 1.392 . S
C1269 H1281 0.929 1_565 S
C1270 C1266 1.531 . S
C1270 H1282 0.960 . S
C1270 H1283 0.962 . S
C1270 H1284 0.960 . S
C1271 C1268 1.511 1_545 S
C1271 H1285 0.961 . S
C1271 H1286 0.961 . S
C1271 H1287 0.961 . S
C1272 C1273 1.370 1_545 S
C1272 C1274 1.363 1_545 S
C1272 H1288 0.931 . S
C1273 C1272 1.370 1_565 S
C1273 C1277 1.408 . S
C1274 C1272 1.363 1_565 S
C1274 C1275 1.370 . S
C1274 C1278 1.524 1_565 S
C1275 C1267 1.503 . S
C1275 C1274 1.370 . S
C1275 C1276 1.403 . S
C1276 C1275 1.403 . S
C1276 C1277 1.404 . S
C1276 C1279 1.539 . S
C1277 C1273 1.408 . S
C1277 C1276 1.404 . S
C1277 H1289 0.930 . S
C1278 C1274 1.524 1_545 S
C1278 H1290 0.956 1_545 S
C1278 H1291 0.961 . S
C1278 H1292 0.961 . S
C1279 C1276 1.539 . S
C1279 H1293 0.958 . S
C1279 H1294 0.961 . S
C1279 H1295 0.960 . S
H1280 C1264 0.931 . S
H1281 C1269 0.929 1_545 S
H1282 C1270 0.960 . S
H1283 C1270 0.962 . S
H1284 C1270 0.960 . S
H1285 C1271 0.961 . S
H1286 C1271 0.961 . S
H1287 C1271 0.961 . S
H1288 C1272 0.931 . S
H1289 C1277 0.930 . S
H1290 C1278 0.956 1_565 S
H1291 C1278 0.961 . S
H1292 C1278 0.961 . S
H1293 C1279 0.958 . S
H1294 C1279 0.961 . S
H1295 C1279 0.960 . S
C1296 C1297 1.391 . S
C1296 C1298 1.394 . S
C1296 H1312 0.931 . S
C1297 C1296 1.391 . S
C1297 C1301 1.376 . S
C1298 C1296 1.394 . S
C1298 C1299 1.369 . S
C1298 C1302 1.531 . S
C1299 C1298 1.369 . S
C1299 C1300 1.410 . S
C1299 C1307 1.503 . S
C1300 C1299 1.410 . S
C1300 C1301 1.392 . S
C1300 C1303 1.511 . S
C1301 C1297 1.376 . S
C1301 C1300 1.392 . S
C1301 H1313 0.929 . S
C1302 C1298 1.531 . S
C1302 H1314 0.960 . S
C1302 H1315 0.962 . S
C1302 H1316 0.960 . S
C1303 C1300 1.511 . S
C1303 H1317 0.961 . S
C1303 H1318 0.961 . S
C1303 H1319 0.961 . S
C1304 C1305 1.370 . S
C1304 C1306 1.363 . S
C1304 H1320 0.931 . S
C1305 C1304 1.370 . S
C1305 C1309 1.408 . S
C1306 C1304 1.363 . S
C1306 C1307 1.370 . S
C1306 C1310 1.524 . S
C1307 C1299 1.503 . S
C1307 C1306 1.370 . S
C1307 C1308 1.403 . S
C1308 C1307 1.403 . S
C1308 C1309 1.404 . S
C1308 C1311 1.539 . S
C1309 C1305 1.408 . S
C1309 C1308 1.404 . S
C1309 H1321 0.930 . S
C1310 C1306 1.524 . S
C1310 H1322 0.956 . S
C1310 H1323 0.961 . S
C1310 H1324 0.961 . S
C1311 C1308 1.539 . S
C1311 H1325 0.958 . S
C1311 H1326 0.961 . S
C1311 H1327 0.960 . S
H1312 C1296 0.931 . S
H1313 C1301 0.929 . S
H1314 C1302 0.960 . S
H1315 C1302 0.962 . S
H1316 C1302 0.960 . S
H1317 C1303 0.961 . S
H1318 C1303 0.961 . S
H1319 C1303 0.961 . S
H1320 C1304 0.931 . S
H1321 C1309 0.930 . S
H1322 C1310 0.956 . S
H1323 C1310 0.961 . S
H1324 C1310 0.961 . S
H1325 C1311 0.958 . S
H1326 C1311 0.961 . S
H1327 C1311 0.960 . S
C1328 C1329 1.391 . S
C1328 C1330 1.394 . S
C1328 H1344 0.931 . S
C1329 C1328 1.391 . S
C1329 C1333 1.376 . S
C1330 C1328 1.394 . S
C1330 C1331 1.369 . S
C1330 C1334 1.531 . S
C1331 C1330 1.369 . S
C1331 C1332 1.410 . S
C1331 C1339 1.503 . S
C1332 C1331 1.410 . S
C1332 C1333 1.392 . S
C1332 C1335 1.511 . S
C1333 C1329 1.376 . S
C1333 C1332 1.392 . S
C1333 H1345 0.929 . S
C1334 C1330 1.531 . S
C1334 H1346 0.960 . S
C1334 H1347 0.962 . S
C1334 H1348 0.960 . S
C1335 C1332 1.511 . S
C1335 H1349 0.961 . S
C1335 H1350 0.961 . S
C1335 H1351 0.961 . S
C1336 C1337 1.370 . S
C1336 C1338 1.363 . S
C1336 H1352 0.931 . S
C1337 C1336 1.370 . S
C1337 C1341 1.408 . S
C1338 C1336 1.363 . S
C1338 C1339 1.370 . S
C1338 C1342 1.524 . S
C1339 C1331 1.503 . S
C1339 C1338 1.370 . S
C1339 C1340 1.403 . S
C1340 C1339 1.403 . S
C1340 C1341 1.404 . S
C1340 C1343 1.539 . S
C1341 C1337 1.408 . S
C1341 C1340 1.404 . S
C1341 H1353 0.930 . S
C1342 C1338 1.524 . S
C1342 H1354 0.956 . S
C1342 H1355 0.961 . S
C1342 H1356 0.961 . S
C1343 C1340 1.539 . S
C1343 H1357 0.958 . S
C1343 H1358 0.961 . S
C1343 H1359 0.960 . S
H1344 C1328 0.931 . S
H1345 C1333 0.929 . S
H1346 C1334 0.960 . S
H1347 C1334 0.962 . S
H1348 C1334 0.960 . S
H1349 C1335 0.961 . S
H1350 C1335 0.961 . S
H1351 C1335 0.961 . S
H1352 C1336 0.931 . S
H1353 C1341 0.930 . S
H1354 C1342 0.956 . S
H1355 C1342 0.961 . S
H1356 C1342 0.961 . S
H1357 C1343 0.958 . S
H1358 C1343 0.961 . S
H1359 C1343 0.960 . S
C593 C215 2.107 . S
C601 C319 2.245 . S
C633 C396 2.250 . S
C625 C247 2.109 . S
C665 C487 2.237 . S
C657 C151 2.125 . S
C697 C571 2.219 . S
C689 C183 2.128 . S
C729 C330 2.237 1_565 S
C721 C87 2.036 . S
C753 C119 2.102 . S
C761 C407 2.243 . S
C785 C23 2.054 . S
C793 C498 2.245 . S
C817 C55 2.084 . S
C825 C582 2.222 1_655 S
C857 C314 0.543 . S
C849 C189 0.460 . S
C889 C409 0.562 . S
C881 C221 0.454 . S
C921 C482 0.510 . S
C913 C253 0.483 . S
C945 C157 0.458 . S
C953 C566 0.482 . S
C977 C61 0.515 . S
C985 C325 0.512 . S
C1017 C398 0.546 . S
C1009 C93 0.673 . S
C1049 C493 0.520 . S
C1041 C125 0.537 . S
C1073 C29 0.631 . S
C1081 C577 0.509 . S
C1105 C177 2.360 . S
C1113 C323 2.562 . S
C1137 C209 2.372 . S
C1145 C414 2.600 . S
C1177 C491 2.580 . S
C1169 C241 2.377 . S
C1209 C575 2.591 . S
C1201 C145 2.341 . S
C1233 C49 2.328 . S
C1241 C312 2.561 . S
C1273 C403 2.607 . S
C1265 C81 2.335 . S
C1305 C480 2.578 . S
C1297 C113 2.347 . S
C1329 C17 2.353 . S
C1337 C564 2.583 . S
