# Generated by pormake.
# Topology zzz, (3,6)-cn, num edge types: 1
# Building blocks:
#     Node 0, Type 0, BuildingBlock: MIDCAF_clean_linker_0, # of connection points: 3
#     Node 1, Type 0, BuildingBlock: MIDCAF_clean_linker_0, # of connection points: 3
#     Node 2, Type 0, BuildingBlock: MIDCAF_clean_linker_0, # of connection points: 3
#     Node 3, Type 0, BuildingBlock: MIDCAF_clean_linker_0, # of connection points: 3
#     Node 4, Type 0, BuildingBlock: MIDCAF_clean_linker_0, # of connection points: 3
#     Node 5, Type 0, BuildingBlock: MIDCAF_clean_linker_0, # of connection points: 3
#     Node 6, Type 0, BuildingBlock: MIDCAF_clean_linker_0, # of connection points: 3
#     Node 7, Type 0, BuildingBlock: MIDCAF_clean_linker_0, # of connection points: 3
#     Node 8, Type 1, BuildingBlock: PAMTUU_clean_sbu_0, # of connection points: 6
#     Node 9, Type 1, BuildingBlock: PAMTUU_clean_sbu_0, # of connection points: 6
#     Node 10, Type 1, BuildingBlock: PAMTUU_clean_sbu_0, # of connection points: 6
#     Node 11, Type 1, BuildingBlock: PAMTUU_clean_sbu_0, # of connection points: 6
#     Edge 12, Type (0, 1), BuildingBlock: XUDNAN_clean_linker_2, # of connection points: 2
#     Edge 13, Type (0, 1), BuildingBlock: XUDNAN_clean_linker_2, # of connection points: 2
#     Edge 14, Type (0, 1), BuildingBlock: XUDNAN_clean_linker_2, # of connection points: 2
#     Edge 15, Type (0, 1), BuildingBlock: XUDNAN_clean_linker_2, # of connection points: 2
#     Edge 16, Type (0, 1), BuildingBlock: XUDNAN_clean_linker_2, # of connection points: 2
#     Edge 17, Type (0, 1), BuildingBlock: XUDNAN_clean_linker_2, # of connection points: 2
#     Edge 18, Type (0, 1), BuildingBlock: XUDNAN_clean_linker_2, # of connection points: 2
#     Edge 19, Type (0, 1), BuildingBlock: XUDNAN_clean_linker_2, # of connection points: 2
#     Edge 20, Type (0, 1), BuildingBlock: XUDNAN_clean_linker_2, # of connection points: 2
#     Edge 21, Type (0, 1), BuildingBlock: XUDNAN_clean_linker_2, # of connection points: 2
#     Edge 22, Type (0, 1), BuildingBlock: XUDNAN_clean_linker_2, # of connection points: 2
#     Edge 23, Type (0, 1), BuildingBlock: XUDNAN_clean_linker_2, # of connection points: 2
#     Edge 24, Type (0, 1), BuildingBlock: XUDNAN_clean_linker_2, # of connection points: 2
#     Edge 25, Type (0, 1), BuildingBlock: XUDNAN_clean_linker_2, # of connection points: 2
#     Edge 26, Type (0, 1), BuildingBlock: XUDNAN_clean_linker_2, # of connection points: 2
#     Edge 27, Type (0, 1), BuildingBlock: XUDNAN_clean_linker_2, # of connection points: 2
#     Edge 28, Type (0, 1), BuildingBlock: XUDNAN_clean_linker_2, # of connection points: 2
#     Edge 29, Type (0, 1), BuildingBlock: XUDNAN_clean_linker_2, # of connection points: 2
#     Edge 30, Type (0, 1), BuildingBlock: XUDNAN_clean_linker_2, # of connection points: 2
#     Edge 31, Type (0, 1), BuildingBlock: XUDNAN_clean_linker_2, # of connection points: 2
#     Edge 32, Type (0, 1), BuildingBlock: XUDNAN_clean_linker_2, # of connection points: 2
#     Edge 33, Type (0, 1), BuildingBlock: XUDNAN_clean_linker_2, # of connection points: 2
#     Edge 34, Type (0, 1), BuildingBlock: XUDNAN_clean_linker_2, # of connection points: 2
#     Edge 35, Type (0, 1), BuildingBlock: XUDNAN_clean_linker_2, # of connection points: 2
# Relax obj value: 0.385
# Max RMSD: 0.265
# Mean RMSD: 0.222
data_MOF--net-zzz--node1-PAMTUU_clean_sbu_0--node2-MIDCAF_clean_linker_0--edge1-XUDNAN_clean_linker_2
_symmetry_space_group_name_H-M    P1
_symmetry_Int_Tables_number       1
_symmetry_cell_setting            triclinic
loop_
_symmetry_equiv_pos_as_xyz
'x, y, z'
_cell_length_a     57.703782
_cell_length_b     61.155721
_cell_length_c     20.63973
_cell_angle_alpha  98.659659
_cell_angle_beta   90.080721
_cell_angle_gamma 89.607158
loop_
_atom_site_label
_atom_site_type_symbol
_atom_site_fract_x
_atom_site_fract_y
_atom_site_fract_z
_atom_type_partial_charge
C0 C 0.82994 0.50301 0.43113 0.0
C1 C 0.82608 0.49703 0.49362 0.0
C2 C 0.80387 0.48896 0.5063 0.0
C3 C 0.78655 0.48629 0.4577 0.0
H4 H 0.70054 0.46022 0.30175 0.0
H5 H 0.66262 0.46501 0.2537 0.0
H6 H 0.68578 0.52557 0.19126 0.0
H7 H 0.72403 0.5203 0.23892 0.0
H8 H 0.74783 0.44232 0.12496 0.0
H9 H 0.76414 0.41788 0.03179 0.0
H10 H 0.82973 0.41794 0.13304 0.0
H11 H 0.81348 0.44197 0.22635 0.0
H12 H 0.81687 0.50356 0.33391 0.0
H13 H 0.84633 0.50987 0.41909 0.0
H14 H 0.8 0.48371 0.55283 0.0
H15 H 0.77013 0.47909 0.46819 0.0
N16 N 0.75279 0.49093 0.33667 0.0
N17 N 0.74802 0.46792 0.23534 0.0
N18 N 0.78367 0.46864 0.28927 0.0
C19 C 0.73922 0.48304 0.28389 0.0
C20 C 0.77012 0.46057 0.23752 0.0
C21 C 0.77525 0.48364 0.33909 0.0
C22 C 0.715 0.49024 0.27597 0.0
C23 C 0.69716 0.47506 0.28036 0.0
C24 C 0.67542 0.47777 0.25218 0.0
C25 C 0.67097 0.49565 0.21797 0.0
C26 C 0.68856 0.51147 0.21646 0.0
C27 C 0.71034 0.50875 0.245 0.0
C28 C 0.77942 0.44435 0.18305 0.0
C29 C 0.76565 0.4369 0.1278 0.0
C30 C 0.77495 0.42286 0.07433 0.0
C31 C 0.79815 0.41588 0.07508 0.0
C32 C 0.81163 0.42263 0.13132 0.0
C33 C 0.80238 0.43667 0.18466 0.0
C34 C 0.79105 0.49123 0.39476 0.0
C35 C 0.81284 0.49982 0.3823 0.0
C36 C 0.96035 0.79778 0.52354 0.0
C37 C 0.98116 0.80385 0.55694 0.0
C38 C 1.0008 0.79014 0.54217 0.0
C39 C 1.0001 0.77204 0.49135 0.0
H40 H 0.97968 0.68805 0.36468 0.0
H41 H 0.98482 0.64919 0.31518 0.0
H42 H 0.02298 0.67012 0.1556 0.0
H43 H 0.01735 0.70851 0.20381 0.0
H44 H 0.99592 0.75229 0.15036 0.0
H45 H 0.99519 0.77917 0.07379 0.0
H46 H 0.9512 0.82214 0.20691 0.0
H47 H 0.95178 0.79543 0.28296 0.0
H48 H 0.94394 0.77686 0.4446 0.0
H49 H 0.9449 0.80792 0.53237 0.0
H50 H 0.01704 0.79406 0.56745 0.0
H51 H 0.01595 0.763 0.47713 0.0
N52 N 0.98855 0.73394 0.37221 0.0
N53 N 0.98575 0.73692 0.25981 0.0
N54 N 0.97569 0.76699 0.33822 0.0
C55 C 0.99071 0.72464 0.30786 0.0
C56 C 0.97806 0.75802 0.27466 0.0
C57 C 0.98096 0.75533 0.38711 0.0
C58 C 0.99788 0.7013 0.28773 0.0
C59 C 0.98962 0.68422 0.31988 0.0
C60 C 0.99251 0.66199 0.29136 0.0
C61 C 1.00382 0.65654 0.23049 0.0
C62 C 0.01356 0.67368 0.20136 0.0
C63 C 1.01051 0.69572 0.22935 0.0
C64 C 0.97421 0.77194 0.22309 0.0
C65 C 0.98562 0.76722 0.16244 0.0
C66 C 0.98529 0.78261 0.11876 0.0
C67 C 0.97329 0.80277 0.1347 0.0
C68 C 0.96044 0.80667 0.19304 0.0
C69 C 0.96097 0.79145 0.23691 0.0
C70 C 0.97978 0.7674 0.45453 0.0
C71 C 0.95971 0.77983 0.47307 0.0
C72 C 0.70798 0.01522 0.41574 0.0
C73 C 0.71506 0.00702 0.47273 0.0
C74 C 0.73892 0.00265 0.48036 0.0
C75 C 0.75526 0.00725 0.43352 0.0
H76 H 0.8428 0.04273 0.27681 0.0
H77 H 0.87383 0.03167 0.19781 0.0
H78 H 0.83449 0.97427 0.11672 0.0
H79 H 0.80361 0.9852 0.19697 0.0
H80 H 0.79456 0.0766 0.18389 0.0
H81 H 0.77687 0.10221 0.11822 0.0
H82 H 0.713 0.10022 0.22651 0.0
H83 H 0.73078 0.07566 0.29314 0.0
H84 H 0.71803 0.02714 0.32787 0.0
H85 H 0.68993 0.01905 0.40806 0.0
H86 H 0.74502 0.99611 0.52327 0.0
H87 H 0.77351 0.00459 0.4421 0.0
N88 N 0.7854 0.01582 0.31454 0.0
N89 N 0.79297 0.04465 0.25349 0.0
N90 N 0.75868 0.045 0.31322 0.0
C91 C 0.79962 0.02546 0.27387 0.0
C92 C 0.77255 0.05453 0.27277 0.0
C93 C 0.76483 0.02591 0.335 0.0
C94 C 0.82092 0.01466 0.24375 0.0
C95 C 0.84132 0.02716 0.24424 0.0
C96 C 0.85907 0.02087 0.19873 0.0
C97 C 0.85658 0.0022 0.15051 0.0
C98 C 0.83691 0.98879 0.15312 0.0
C99 C 0.81934 0.99488 0.19961 0.0
C100 C 0.76391 0.07359 0.24278 0.0
C101 C 0.77694 0.08214 0.19482 0.0
C102 C 0.76678 0.0968 0.15698 0.0
C103 C 0.74337 0.10308 0.16605 0.0
C104 C 0.73112 0.09607 0.2181 0.0
C105 C 0.7413 0.08164 0.25615 0.0
C106 C 0.74811 0.01661 0.37857 0.0
C107 C 0.72421 0.01999 0.3697 0.0
C108 C 0.47154 0.70771 0.01542 0.0
C109 C 0.48769 0.69191 0.98588 0.0
C110 C 0.51148 0.69614 0.99542 0.0
C111 C 0.51889 0.71485 0.03712 0.0
H112 H 0.49825 0.80709 0.10097 0.0
H113 H 0.50814 0.84251 0.06803 0.0
H114 H 0.57319 0.8422 0.17143 0.0
H115 H 0.56301 0.80667 0.20567 0.0
H116 H 0.56524 0.76022 0.30902 0.0
H117 H 0.57861 0.73793 0.39159 0.0
H118 H 0.51527 0.70028 0.36675 0.0
H119 H 0.50202 0.72256 0.28625 0.0
H120 H 0.46633 0.73777 0.08278 0.0
H121 H 0.45311 0.70501 0.00863 0.0
H122 H 0.52442 0.68423 0.97459 0.0
H123 H 0.53725 0.71699 0.04705 0.0
N124 N 0.5149 0.76714 0.11726 0.0
N125 N 0.53129 0.77364 0.22322 0.0
N126 N 0.51642 0.73872 0.18122 0.0
C127 C 0.52506 0.78117 0.16646 0.0
C128 C 0.52647 0.75237 0.23101 0.0
C129 C 0.51067 0.74592 0.12459 0.0
C130 C 0.52991 0.80409 0.15567 0.0
C131 C 0.51447 0.81478 0.11778 0.0
C132 C 0.52007 0.83513 0.09922 0.0
C133 C 0.54145 0.8451 0.11703 0.0
C134 C 0.5566 0.83483 0.15693 0.0
C135 C 0.55074 0.81461 0.1768 0.0
C136 C 0.5327 0.74299 0.29085 0.0
C137 C 0.55396 0.74763 0.32298 0.0
C138 C 0.56167 0.7347 0.36969 0.0
C139 C 0.54813 0.71711 0.38544 0.0
C140 C 0.52613 0.71373 0.35662 0.0
C141 C 0.51857 0.72645 0.30994 0.0
C142 C 0.50272 0.72976 0.06966 0.0
C143 C 0.47903 0.72651 0.05727 0.0
C144 C 0.20141 0.49308 0.14775 0.0
C145 C 0.2067 0.48573 0.08158 0.0
C146 C 0.22961 0.47844 0.06589 0.0
C147 C 0.24636 0.47759 0.11541 0.0
H148 H 0.33179 0.47364 0.22243 0.0
H149 H 0.37121 0.47902 0.26644 0.0
H150 H 0.34229 0.50728 0.45444 0.0
H151 H 0.30426 0.50392 0.40862 0.0
H152 H 0.27692 0.45717 0.45318 0.0
H153 H 0.25827 0.46179 0.56037 0.0
H154 H 0.19208 0.46972 0.46962 0.0
H155 H 0.21045 0.46545 0.36208 0.0
H156 H 0.21277 0.49689 0.24742 0.0
H157 H 0.18405 0.49858 0.1623 0.0
H158 H 0.23445 0.47285 0.01542 0.0
H159 H 0.26345 0.47098 0.10211 0.0
N160 N 0.27883 0.48386 0.2409 0.0
N161 N 0.27994 0.47153 0.3435 0.0
N162 N 0.24515 0.47046 0.28633 0.0
C163 C 0.29099 0.4802 0.29558 0.0
C164 C 0.25723 0.46655 0.3397 0.0
C165 C 0.25564 0.47874 0.2363 0.0
C166 C 0.31487 0.48832 0.31193 0.0
C167 C 0.33418 0.4819 0.27218 0.0
C168 C 0.35683 0.48454 0.29838 0.0
C169 C 0.3606 0.49323 0.36531 0.0
C170 C 0.341 0.50087 0.40289 0.0
C171 C 0.31876 0.49876 0.37645 0.0
C172 C 0.24525 0.46163 0.39915 0.0
C173 C 0.25825 0.4591 0.45551 0.0
C174 C 0.24765 0.46155 0.51693 0.0
C175 C 0.22392 0.46616 0.52254 0.0
C176 C 0.21046 0.466 0.46582 0.0
C177 C 0.22103 0.46364 0.40436 0.0
C178 C 0.24045 0.48374 0.1817 0.0
C179 C 0.21794 0.492 0.19684 0.0
C180 C 0.0258 0.20874 0.03149 0.0
C181 C 0.04144 0.20184 0.98017 0.0
C182 C 0.06207 0.21374 0.97702 0.0
C183 C 0.06796 0.23073 0.02763 0.0
H184 H 0.03567 0.30599 0.19605 0.0
H185 H 0.02481 0.34206 0.25677 0.0
H186 H 0.07099 0.33108 0.41369 0.0
H187 H 0.08214 0.2955 0.35314 0.0
H188 H 0.08435 0.24145 0.37304 0.0
H189 H 0.09009 0.20971 0.4304 0.0
H190 H 0.10837 0.16942 0.24682 0.0
H191 H 0.10363 0.20106 0.19076 0.0
H192 H 0.02009 0.22966 0.12332 0.0
H193 H 1.00974 0.19993 0.03499 0.0
H194 H 0.07455 0.20868 0.9384 0.0
H195 H 0.08499 0.23809 0.02755 0.0
N196 N 0.0575 0.26752 0.17369 0.0
N197 N 0.07776 0.261 0.26827 0.0
N198 N 0.07552 0.23323 0.1776 0.0
C199 C 0.06541 0.27499 0.23559 0.0
C200 C 0.08295 0.24013 0.23938 0.0
C201 C 0.06294 0.24662 0.14445 0.0
C202 C 0.05965 0.29763 0.26967 0.0
C203 C 0.04369 0.31136 0.24317 0.0
C204 C 0.03738 0.33202 0.27818 0.0
C205 C 0.04697 0.3395 0.34032 0.0
C206 C 0.06345 0.32606 0.36573 0.0
C207 C 0.06968 0.30545 0.33101 0.0
C208 C 0.09292 0.22359 0.27709 0.0
C209 C 0.09047 0.22601 0.34552 0.0
C210 C 0.09354 0.20775 0.37827 0.0
C211 C 0.09908 0.18681 0.34308 0.0
C212 C 0.10413 0.18518 0.2759 0.0
C213 C 0.10117 0.20337 0.2434 0.0
C214 C 0.05308 0.23649 0.08133 0.0
C215 C 0.03153 0.22599 0.08145 0.0
C216 C 0.32255 0.00155 0.10376 0.0
C217 C 0.33658 0.01751 0.08012 0.0
C218 C 0.33125 0.03997 0.10072 0.0
C219 C 0.31371 0.04628 0.14672 0.0
H220 H 0.23126 0.99856 0.26964 0.0
H221 H 0.19486 0.98783 0.31742 0.0
H222 H 0.18582 0.05473 0.41681 0.0
H223 H 0.2221 0.06508 0.37064 0.0
H224 H 0.27328 0.07021 0.46854 0.0
H225 H 0.29701 0.07039 0.56614 0.0
H226 H 0.35838 0.06178 0.44463 0.0
H227 H 0.33498 0.06256 0.34847 0.0
H228 H 0.2953 0.99531 0.1699 0.0
H229 H 0.32609 0.98408 0.08977 0.0
H230 H 0.34104 0.05284 0.08266 0.0
H231 H 0.31108 0.06373 0.16423 0.0
N232 N 0.26471 0.03123 0.24286 0.0
N233 N 0.26574 0.05095 0.35009 0.0
N234 N 0.2985 0.0499 0.28389 0.0
C235 C 0.25379 0.03858 0.30122 0.0
C236 C 0.28808 0.05653 0.3423 0.0
C237 C 0.28714 0.0375 0.23386 0.0
C238 C 0.2296 0.03265 0.31629 0.0
C239 C 0.22115 0.01102 0.30035 0.0
C240 C 0.20032 0.00489 0.32822 0.0
C241 C 0.18749 0.0203 0.37238 0.0
C242 C 0.19543 0.0422 0.38486 0.0
C243 C 0.21615 0.04822 0.35754 0.0
C244 C 0.30216 0.06524 0.40041 0.0
C245 C 0.29193 0.06924 0.46297 0.0
C246 C 0.30555 0.06929 0.51904 0.0
C247 C 0.3295 0.06509 0.51326 0.0
C248 C 0.33998 0.06482 0.45155 0.0
C249 C 0.32643 0.06504 0.39572 0.0
C250 C 0.30058 0.03039 0.17282 0.0
C251 C 0.30471 0.00793 0.14947 0.0
C252 C 0.54161 0.30951 0.4925 0.0
C253 C 0.55181 0.30639 0.5523 0.0
C254 C 0.55324 0.28476 0.56784 0.0
C255 C 0.54359 0.26692 0.52609 0.0
H256 H 0.53922 0.19495 0.46721 0.0
H257 H 0.53694 0.15976 0.50758 0.0
H258 H 0.46714 0.1511 0.43186 0.0
H259 H 0.47006 0.18595 0.38824 0.0
H260 H 0.49882 0.22863 0.20739 0.0
H261 H 0.48686 0.25028 0.12188 0.0
H262 H 0.44806 0.29445 0.26578 0.0
H263 H 0.46033 0.27307 0.35056 0.0
H264 H 0.52388 0.29519 0.4063 0.0
H265 H 0.53969 0.32588 0.47907 0.0
H266 H 0.56125 0.28169 0.61312 0.0
H267 H 0.54426 0.25062 0.54051 0.0
N268 N 0.51896 0.23154 0.44137 0.0
N269 N 0.49313 0.22096 0.35361 0.0
N270 N 0.50674 0.25739 0.37592 0.0
C271 C 0.50585 0.21569 0.40515 0.0
C272 C 0.49372 0.24195 0.33905 0.0
C273 C 0.5195 0.25246 0.42683 0.0
C274 C 0.50479 0.19332 0.42468 0.0
C275 C 0.52344 0.18545 0.45867 0.0
C276 C 0.52201 0.16528 0.48249 0.0
C277 C 0.50168 0.15255 0.47432 0.0
C278 C 0.48319 0.16021 0.43877 0.0
C279 C 0.48481 0.18027 0.4138 0.0
C280 C 0.4803 0.24912 0.28521 0.0
C281 C 0.48688 0.24236 0.21979 0.0
C282 C 0.48017 0.25488 0.17108 0.0
C283 C 0.46692 0.27436 0.18743 0.0
C284 C 0.45866 0.2798 0.25188 0.0
C285 C 0.46538 0.26739 0.30025 0.0
C286 C 0.53238 0.27038 0.46792 0.0
C287 C 0.53217 0.29179 0.45085 0.0
Tb288 Tb 1.00098 0.00845 0.68023 0.0
Tb289 Tb 0.03452 0.99884 0.79862 0.0
C290 C 0.98 0.00386 0.81912 0.0
C291 C 0.99399 0.03012 0.53193 0.0
C292 C 0.02226 0.05856 0.47096 0.0
C293 C 0.99842 0.06313 0.48093 0.0
C294 C 0.98446 0.04912 0.51178 0.0
C295 C 0.01728 0.02464 0.51704 0.0
C296 C 0.03127 0.03873 0.48749 0.0
C297 C 0.98183 0.01889 0.58026 0.0
O298 O 0.02107 0.03832 0.71097 0.0
O299 O 0.0275 0.03416 0.81729 0.0
O300 O 0.05744 0.00826 0.72275 0.0
O301 O 0.03347 0.9941 0.64009 0.0
O302 O 0.04478 0.00481 0.89732 0.0
O303 O 0.06281 0.98084 0.82798 0.0
O304 O 0.02522 0.96686 0.74186 0.0
O305 O 0.99055 0.97584 0.69784 0.0
O306 O 0.97805 0.01288 0.76518 0.0
O307 O 0.99949 0.99469 0.83531 0.0
C308 C 0.02545 0.04685 0.77186 0.0
O309 O 0.98882 0.99878 0.58416 0.0
O310 O 0.97986 0.03072 0.63814 0.0
C311 C 0.05408 0.00085 0.66037 0.0
C312 C 0.05291 0.97007 0.92932 0.0
C313 C 0.03245 0.93437 0.97923 0.0
C314 C 0.02591 0.95622 1.00362 0.0
C315 C 0.03608 0.97391 0.9791 0.0
C316 C 0.06099 0.94836 0.90956 0.0
C317 C 0.05079 0.93066 0.93409 0.0
C318 C 0.05854 0.98762 0.88983 0.0
C319 C 1.00504 0.96113 0.7151 0.0
H320 H 0.99069 0.07796 0.4673 0.0
H321 H 0.96662 0.05379 0.5232 0.0
H322 H 0.02522 0.01016 0.53216 0.0
H323 H 0.04951 0.03463 0.48162 0.0
H324 H 0.01225 0.95961 0.03977 0.0
H325 H 0.02964 0.99045 0.99621 0.0
H326 H 0.07405 0.94487 0.87169 0.0
H327 H 0.05627 0.914 0.91448 0.0
Tb328 Tb 0.52547 0.97886 0.74088 0.0
Tb329 Tb 0.5382 0.01895 0.85735 0.0
C330 C 0.54512 0.96983 0.87231 0.0
C331 C 0.48681 0.94668 0.63232 0.0
C332 C 0.44203 0.96336 0.61777 0.0
C333 C 0.44697 0.95182 0.66998 0.0
C334 C 0.46922 0.94344 0.67712 0.0
C335 C 0.48064 0.95471 0.57435 0.0
C336 C 0.45841 0.96313 0.56732 0.0
C337 C 0.51114 0.9487 0.65475 0.0
O338 O 0.49571 0.9815 0.80739 0.0
O339 O 0.50071 0.01608 0.8667 0.0
O340 O 0.53443 0.03319 0.76757 0.0
O341 O 0.50818 0.0085 0.71785 0.0
O342 O 0.55772 0.02994 0.94166 0.0
O343 O 0.53309 0.0516 0.90362 0.0
O344 O 0.57123 0.00967 0.80773 0.0
O345 O 0.55858 0.99054 0.70955 0.0
O346 O 0.54874 0.96599 0.80902 0.0
O347 O 0.53529 0.98837 0.89915 0.0
C348 C 0.48786 0.99858 0.84819 0.0
O349 O 0.52168 0.96628 0.6411 0.0
O350 O 0.51493 0.94583 0.71531 0.0
C351 C 0.51794 0.02801 0.7243 0.0
C352 C 0.56766 0.06729 0.94988 0.0
C353 C 0.60623 0.09562 0.95901 0.0
C354 C 0.59655 0.08899 0.01558 0.0
C355 C 0.57743 0.07502 0.01097 0.0
C356 C 0.5765 0.07453 0.89347 0.0
C357 C 0.59555 0.08871 0.89806 0.0
C358 C 0.54984 0.05013 0.94527 0.0
C359 C 0.57503 1.00071 0.74638 0.0
H360 H 0.43451 0.95132 0.70891 0.0
H361 H 0.4732 0.93681 0.72169 0.0
H362 H 0.4937 0.95699 0.53833 0.0
H363 H 0.4547 0.97124 0.52523 0.0
H364 H 0.60453 0.09346 0.0632 0.0
H365 H 0.57092 0.06943 0.05488 0.0
H366 H 0.56922 0.06862 0.84567 0.0
H367 H 0.60241 0.09361 0.85363 0.0
Tb368 Tb 0.49593 0.48497 0.82538 0.0
Tb369 Tb 0.53815 0.50646 0.74567 0.0
C370 C 0.48967 0.49407 0.68147 0.0
C371 C 0.46364 0.44446 0.907 0.0
C372 C 0.46182 0.403 0.95187 0.0
C373 C 0.44402 0.40966 0.91237 0.0
C374 C 0.44489 0.43021 0.89041 0.0
C375 C 0.48151 0.43784 0.94636 0.0
C376 C 0.48052 0.41739 0.96892 0.0
C377 C 0.4647 0.46558 0.88035 0.0
O378 O 0.51476 0.45762 0.76991 0.0
O379 O 0.54994 0.47278 0.74784 0.0
O380 O 0.55042 0.50786 0.84662 0.0
O381 O 0.52655 0.48277 0.88581 0.0
O382 O 0.55618 0.50947 0.65877 0.0
O383 O 0.56487 0.52974 0.75004 0.0
O384 O 0.5123 0.53229 0.77084 0.0
O385 O 0.49433 0.52032 0.85842 0.0
O386 O 0.48035 0.49657 0.74015 0.0
O387 O 0.51226 0.49251 0.67365 0.0
C388 C 0.53673 0.45575 0.75342 0.0
O389 O 0.47778 0.48112 0.91117 0.0
O390 O 0.46721 0.46376 0.81702 0.0
C391 C 0.54509 0.4953 0.89089 0.0
C392 C 0.56913 0.54614 0.65521 0.0
C393 C 0.57146 0.58574 0.60003 0.0
C394 C 0.59101 0.57758 0.62985 0.0
C395 C 0.58985 0.558 0.65687 0.0
C396 C 0.5494 0.55426 0.62652 0.0
C397 C 0.55058 0.57383 0.59891 0.0
C398 C 0.56832 0.52614 0.6871 0.0
C399 C 0.49939 0.53598 0.82375 0.0
H400 H 0.4293 0.39905 0.89887 0.0
H401 H 0.43098 0.43491 0.85988 0.0
H402 H 0.49637 0.44835 0.95919 0.0
H403 H 0.49463 0.41262 0.99866 0.0
H404 H 0.60724 0.58647 0.63315 0.0
H405 H 0.60516 0.55221 0.67981 0.0
H406 H 0.53311 0.54551 0.62555 0.0
H407 H 0.53521 0.57943 0.57595 0.0
Tb408 Tb 0.02322 0.51208 0.76227 0.0
Tb409 Tb 1.00655 0.47217 0.83715 0.0
C410 C 1.00819 0.52037 0.90789 0.0
C411 C 0.0638 0.5528 0.73163 0.0
C412 C 0.11157 0.55021 0.75449 0.0
C413 C 0.09601 0.55187 0.80712 0.0
C414 C 0.07226 0.55325 0.79584 0.0
C415 C 0.07946 0.55445 0.68087 0.0
C416 C 0.10326 0.55324 0.69225 0.0
C417 C 0.0406 0.54382 0.71518 0.0
O418 O 0.05169 0.50639 0.82803 0.0
O419 O 0.04443 0.47003 0.83248 0.0
O420 O 1.00298 0.46042 0.73346 0.0
O421 O 0.03228 0.48088 0.69994 0.0
O422 O 0.98707 0.4609 0.91111 0.0
O423 O 1.00934 0.43864 0.8473 0.0
O424 O 0.9746 0.48739 0.8056 0.0
O425 O 0.98857 0.50499 0.7225 0.0
O426 O 1.00433 0.52603 0.85008 0.0
O427 O 0.01421 0.49999 0.91286 0.0
C428 C 0.05857 0.48697 0.84048 0.0
O429 O 0.0408 0.52353 0.68496 0.0
O430 O 0.02543 0.54645 0.76235 0.0
C431 C 0.01833 0.46381 0.68961 0.0
C432 C 0.97397 0.42471 0.88002 0.0
C433 C 0.93273 0.40018 0.86218 0.0
C434 C 0.94442 0.40629 0.80794 0.0
C435 C 0.9648 0.41862 0.81685 0.0
C436 C 0.96323 0.4175 0.93354 0.0
C437 C 0.94278 0.40543 0.92486 0.0
C438 C 0.99318 0.44037 0.89193 0.0
C439 C 0.97126 0.497 0.75303 0.0
H440 H 0.102 0.54979 0.85557 0.0
H441 H 0.06057 0.55207 0.83619 0.0
H442 H 0.07333 0.55402 0.63105 0.0
H443 H 0.11485 0.55194 0.65057 0.0
H444 H 0.93731 0.40239 0.75901 0.0
H445 H 0.97285 0.42414 0.7748 0.0
H446 H 0.97001 0.42219 0.98263 0.0
H447 H 0.93413 0.40156 0.9682 0.0
H448 H 0.1732 0.03463 0.50002 0.0
H449 H 0.15339 0.99103 0.32301 0.0
H450 H 0.11826 0.98057 0.37895 0.0
H451 H 0.15294 1.00052 0.61596 0.0
H452 H 0.14248 0.02347 0.67391 0.0
H453 H 0.16638 0.02724 0.62071 0.0
H454 H 0.14416 0.05918 0.57809 0.0
H455 H 0.12024 0.05556 0.63138 0.0
H456 H 0.11545 0.05432 0.54459 0.0
H457 H 0.08459 0.9757 0.45277 0.0
H458 H 0.05501 0.97634 0.53877 0.0
H459 H 0.09608 0.02327 0.66913 0.0
C460 C 0.16144 0.02299 0.47261 0.0
C461 C 0.16625 0.01369 0.40661 0.0
C462 C 0.15043 0.99822 0.37354 0.0
C463 C 0.1303 0.99226 0.4049 0.0
C464 C 0.12611 0.00184 0.46961 0.0
C465 C 0.14123 0.01686 0.50317 0.0
C466 C 0.13249 0.02491 0.57226 0.0
C467 C 0.1496 0.01866 0.62375 0.0
C468 C 0.12781 0.04998 0.58214 0.0
C469 C 0.11007 0.01203 0.57241 0.0
C470 C 0.10675 0.99888 0.51252 0.0
C471 C 0.0871 0.98587 0.49986 0.0
C472 C 0.07034 0.98638 0.54926 0.0
C473 C 0.07316 0.99977 0.61115 0.0
C474 C 0.09349 0.01264 0.62282 0.0
H475 H 0.52071 0.14354 0.59031 0.0
H476 H 0.47842 0.11404 0.42622 0.0
H477 H 0.4758 0.07979 0.47554 0.0
H478 H 0.55426 0.09515 0.6012 0.0
H479 H 0.55635 0.10046 0.68931 0.0
H480 H 0.55321 0.12316 0.64361 0.0
H481 H 0.51685 0.13678 0.71206 0.0
H482 H 0.51985 0.11404 0.7578 0.0
H483 H 0.49303 0.11811 0.71622 0.0
H484 H 0.47871 0.04804 0.5427 0.0
H485 H 0.48874 0.02141 0.61762 0.0
H486 H 0.53108 0.07134 0.73288 0.0
C487 C 0.51104 0.1299 0.56403 0.0
C488 C 0.49977 0.13173 0.50402 0.0
C489 C 0.48692 0.1134 0.47266 0.0
C490 C 0.48543 0.09375 0.50017 0.0
C491 C 0.49697 0.09255 0.55896 0.0
C492 C 0.50963 0.11014 0.59023 0.0
C493 C 0.52133 0.10442 0.6513 0.0
C494 C 0.54785 0.10588 0.646 0.0
C495 C 0.51221 0.11922 0.71299 0.0
C496 C 0.51355 0.08074 0.64918 0.0
C497 C 0.49925 0.07423 0.5961 0.0
C498 C 0.48997 0.05298 0.58423 0.0
C499 C 0.49575 0.03797 0.62715 0.0
C500 C 0.51085 0.04419 0.68097 0.0
C501 C 0.51961 0.06597 0.69209 0.0
H502 H 0.37681 0.51914 0.47994 0.0
H503 H 0.39861 0.46588 0.32753 0.0
H504 H 0.4351 0.46269 0.38686 0.0
H505 H 0.43277 0.5427 0.52607 0.0
H506 H 0.42606 0.54706 0.61234 0.0
H507 H 0.40323 0.5477 0.55297 0.0
H508 H 0.38122 0.51741 0.6028 0.0
H509 H 0.40395 0.51667 0.66225 0.0
H510 H 0.3957 0.49165 0.60982 0.0
H511 H 0.46936 0.4643 0.46654 0.0
H512 H 0.49593 0.46849 0.56203 0.0
H513 H 0.44871 0.51624 0.66884 0.0
C514 C 0.38888 0.50656 0.45837 0.0
C515 C 0.38414 0.49279 0.39787 0.0
C516 C 0.40145 0.47716 0.37237 0.0
C517 C 0.42237 0.47502 0.40629 0.0
C518 C 0.42585 0.4883 0.46658 0.0
C519 C 0.40942 0.50362 0.49262 0.0
C520 C 0.41623 0.51447 0.56103 0.0
C521 C 0.41978 0.53946 0.56319 0.0
C522 C 0.39821 0.50976 0.61196 0.0
C523 C 0.439 0.50274 0.56979 0.0
C524 C 0.44455 0.48806 0.51418 0.0
C525 C 0.46506 0.47567 0.51032 0.0
C526 C 0.48008 0.47819 0.56474 0.0
C527 C 0.4743 0.49253 0.62302 0.0
C528 C 0.45348 0.50497 0.62521 0.0
H529 H 0.07289 0.37087 0.41912 0.0
H530 H 1.00245 0.35525 0.35489 0.0
H531 H 0.98816 0.38778 0.42963 0.0
H532 H 0.05997 0.38648 0.58541 0.0
H533 H 0.08059 0.4087 0.59952 0.0
H534 H 0.08572 0.38571 0.53569 0.0
H535 H 0.08925 0.41264 0.45065 0.0
H536 H 0.08415 0.43575 0.51436 0.0
H537 H 0.06602 0.43189 0.44241 0.0
H538 H 0.98087 0.41883 0.52051 0.0
H539 H 0.9813 0.44761 0.61825 0.0
H540 H 0.05635 0.4445 0.62271 0.0
C541 C 0.05448 0.37444 0.42016 0.0
C542 C 0.03882 0.36048 0.38063 0.0
C543 C 0.01487 0.36583 0.38358 0.0
C544 C 1.00655 0.38424 0.42621 0.0
C545 C 0.02239 0.39737 0.4653 0.0
C546 C 0.04588 0.39288 0.46226 0.0
C547 C 0.05904 0.40899 0.51211 0.0
C548 C 0.07209 0.39674 0.56107 0.0
C549 C 0.0756 0.42316 0.47782 0.0
C550 C 0.03919 0.42282 0.54498 0.0
C551 C 0.0182 0.41582 0.51693 0.0
C552 C 0.99721 0.42473 0.54201 0.0
C553 C 0.99761 0.44101 0.59759 0.0
C554 C 0.01885 0.44843 0.62717 0.0
C555 C 0.03993 0.43949 0.59986 0.0
H556 H 0.9048 0.00201 0.14716 0.0
H557 H 0.84398 0.99585 0.02213 0.0
H558 H 0.86894 0.99474 0.92479 0.0
H559 H 0.93739 0.03659 0.05987 0.0
H560 H 0.96503 0.0235 0.06905 0.0
H561 H 0.94271 0.02263 0.12947 0.0
H562 H 0.94527 0.97984 0.11255 0.0
H563 H 0.96776 0.98061 0.0524 0.0
H564 H 0.94203 0.96456 0.0313 0.0
H565 H 0.89982 0.99821 0.84206 0.0
H566 H 0.93518 0.00153 0.77727 0.0
H567 H 0.97703 0.00263 0.95256 0.0
C568 C 0.89682 1.00008 0.09915 0.0
C569 C 0.87236 0.99886 0.09236 0.0
C570 C 0.86261 0.99645 0.02865 0.0
C571 C 0.87666 0.99596 0.973 0.0
C572 C 0.90059 0.99751 0.98133 0.0
C573 C 0.91071 0.99905 0.04258 0.0
C574 C 0.93697 1.0004 0.03729 0.0
C575 C 0.94605 0.02207 0.07624 0.0
C576 C 0.94869 0.98015 0.05972 0.0
C577 C 0.9399 1.00005 0.96389 0.0
C578 C 0.91863 0.99851 0.93277 0.0
C579 C 0.9166 0.9991 0.86575 0.0
C580 C 0.9368 0.00114 0.82938 0.0
C581 C 0.9589 0.00228 0.85961 0.0
C582 C 0.96041 0.00158 0.92787 0.0
H583 H 0.51653 0.88334 0.11265 0.0
H584 H 0.58194 0.85104 0.05417 0.0
H585 H 0.59157 0.88127 0.99188 0.0
H586 H 0.50346 0.90111 0.96474 0.0
H587 H 0.4912 0.92746 0.99944 0.0
H588 H 0.4905 0.90463 0.04511 0.0
H589 H 0.51158 0.9282 0.1421 0.0
H590 H 0.51219 0.95121 0.09685 0.0
H591 H 0.53875 0.94107 0.12795 0.0
H592 H 0.59124 0.91176 0.92263 0.0
H593 H 0.58297 0.94273 0.8612 0.0
H594 H 0.51925 0.957 0.97074 0.0
C595 C 0.53309 0.88292 0.08786 0.0
C596 C 0.54857 0.86492 0.08845 0.0
C597 C 0.57001 0.86484 0.05515 0.0
C598 C 0.57556 0.88187 0.01937 0.0
C599 C 0.55967 0.8991 0.01839 0.0
C600 C 0.53907 0.90001 0.05284 0.0
C601 C 0.52465 0.91995 0.04179 0.0
C602 C 0.50107 0.91285 0.01093 0.0
C603 C 0.52162 0.93606 0.106 0.0
C604 C 0.53999 0.9297 0.994 0.0
C605 C 0.56008 0.91737 0.98097 0.0
C606 C 0.57588 0.92187 0.9337 0.0
C607 C 0.57102 0.9394 0.89889 0.0
C608 C 0.55075 0.95242 0.91229 0.0
C609 C 0.53521 0.94766 0.961 0.0
H610 H 0.66405 0.50879 0.09629 0.0
H611 H 0.62719 0.48466 0.25436 0.0
H612 H 0.59127 0.48263 0.18899 0.0
H613 H 0.61599 0.54292 0.04808 0.0
H614 H 0.62281 0.53671 0.96205 0.0
H615 H 0.64551 0.53707 0.02225 0.0
H616 H 0.65726 0.49714 0.97244 0.0
H617 H 0.6345 0.49658 0.91245 0.0
H618 H 0.63584 0.47558 0.96498 0.0
H619 H 0.55982 0.48068 0.1035 0.0
H620 H 0.53454 0.48139 0.00731 0.0
H621 H 0.59086 0.50858 0.90589 0.0
C622 C 0.64835 0.50353 0.11792 0.0
C623 C 0.64868 0.49676 0.1808 0.0
C624 C 0.62767 0.4896 0.20618 0.0
C625 C 0.60707 0.4885 0.16945 0.0
C626 C 0.60751 0.49481 0.10732 0.0
C627 C 0.62752 0.50245 0.08199 0.0
C628 C 0.6233 0.50788 0.01338 0.0
C629 C 0.62713 0.53262 0.01134 0.0
C630 C 0.63864 0.49343 0.96284 0.0
C631 C 0.59787 0.50185 1.00387 0.0
C632 C 0.58915 0.49427 0.05865 0.0
C633 C 0.56641 0.48683 0.06066 0.0
C634 C 0.55218 0.48722 1.00553 0.0
C635 C 0.56056 0.49518 0.94892 0.0
C636 C 0.58377 0.50266 0.94855 0.0
H637 H 0.99703 0.64317 0.09926 0.0
H638 H 1.01136 0.61757 0.28026 0.0
H639 H 0.01274 0.57952 0.21856 0.0
H640 H 0.9609 0.59865 0.02523 0.0
H641 H 0.97195 0.59929 0.9439 0.0
H642 H 0.97146 0.62418 1.00295 0.0
H643 H 0.01557 0.62903 0.98666 0.0
H644 H 0.01618 0.6042 0.92747 0.0
H645 H 0.03514 0.60678 0.99763 0.0
H646 H 0.01394 0.5441 0.13433 0.0
H647 H 0.0144 0.515 0.03693 0.0
H648 H 0.99944 0.56467 0.91278 0.0
C649 C 1.00066 0.62963 0.12613 0.0
C650 C 1.00429 0.63344 0.19471 0.0
C651 C 1.00841 0.6151 0.22786 0.0
C652 C 1.00931 0.59344 0.19314 0.0
C653 C 1.0059 0.59038 0.12537 0.0
C654 C 1.0016 0.60804 0.09241 0.0
C655 C 0.99878 0.60058 0.01953 0.0
C656 C 0.97432 0.606 0.99658 0.0
C657 C 0.01754 0.61075 0.98055 0.0
C658 C 1.00233 0.57591 0.01622 0.0
C659 C 1.00639 0.57026 0.07763 0.0
C660 C 1.01064 0.54838 0.08614 0.0
C661 C 1.01086 0.53195 0.03049 0.0
C662 C 1.00683 0.53747 0.9671 0.0
C663 C 1.0024 0.55978 0.96042 0.0
H664 H 0.06525 0.1788 0.4292 0.0
H665 H 0.1243 0.14789 0.32063 0.0
H666 H 0.11199 0.11157 0.34601 0.0
H667 H 0.06582 0.14105 0.55868 0.0
H668 H 0.03463 0.14179 0.56315 0.0
H669 H 0.0502 0.16553 0.54457 0.0
H670 H 0.02572 0.16468 0.43892 0.0
H671 H 1.01059 0.14057 0.4558 0.0
H672 H 0.02559 0.13996 0.379 0.0
H673 H 0.0893 0.07827 0.36589 0.0
H674 H 0.06145 0.05085 0.39395 0.0
H675 H 0.01931 0.10398 0.49822 0.0
C676 C 0.07628 0.16464 0.41318 0.0
C677 C 0.09568 0.16627 0.37239 0.0
C678 C 0.10916 0.14706 0.3511 0.0
C679 C 0.10236 0.12635 0.36545 0.0
C680 C 0.08237 0.12521 0.4025 0.0
C681 C 0.06993 0.14393 0.42782 0.0
C682 C 0.0484 0.13811 0.46323 0.0
C683 C 0.04986 0.14715 0.53678 0.0
C684 C 0.02629 0.14632 0.43235 0.0
C685 C 0.0501 0.11315 0.45117 0.0
C686 C 0.06982 0.10601 0.41622 0.0
C687 C 0.07415 0.08366 0.39499 0.0
C688 C 0.05817 0.06819 0.41125 0.0
C689 C 0.03815 0.0751 0.44899 0.0
C690 C 0.0342 0.09797 0.46884 0.0
H691 H 0.37561 0.0698 0.54684 0.0
H692 H 0.31257 0.03699 0.59284 0.0
H693 H 0.33547 0.01073 0.64499 0.0
H694 H 0.40343 0.02514 0.4875 0.0
H695 H 0.4322 0.03223 0.51742 0.0
H696 H 0.41191 0.05373 0.50668 0.0
H697 H 0.41657 0.07135 0.62799 0.0
H698 H 0.43756 0.05023 0.63887 0.0
H699 H 0.41266 0.05463 0.69197 0.0
H700 H 0.3642 0.98192 0.66145 0.0
H701 H 0.39722 0.95562 0.65341 0.0
H702 H 0.44171 0.00576 0.59283 0.0
C703 C 0.36659 0.05771 0.57051 0.0
C704 C 0.34228 0.05549 0.56512 0.0
C705 C 0.33111 0.03943 0.59687 0.0
C706 C 0.34404 0.0242 0.62642 0.0
C707 C 0.36809 0.02538 0.62463 0.0
C708 C 0.37932 0.04212 0.59913 0.0
C709 C 0.40513 0.03759 0.59293 0.0
C710 C 0.41363 0.03713 0.52193 0.0
C711 C 0.41878 0.05445 0.64082 0.0
C712 C 0.40621 0.01486 0.61323 0.0
C713 C 0.38484 0.00834 0.63314 0.0
C714 C 0.38119 0.98709 0.64782 0.0
C715 C 0.39993 0.9722 0.64254 0.0
C716 C 0.42188 0.97857 0.62166 0.0
C717 C 0.42501 1.00029 0.60786 0.0
H718 H 0.57096 0.34555 0.52824 0.0
H719 H 0.54573 0.31223 0.68549 0.0
H720 H 0.54766 0.34718 0.76135 0.0
H721 H 0.60704 0.38953 0.63361 0.0
H722 H 0.59813 0.41013 0.5846 0.0
H723 H 0.60143 0.38166 0.54733 0.0
H724 H 0.55928 0.38193 0.50407 0.0
H725 H 0.55577 0.41021 0.54151 0.0
H726 H 0.53594 0.38953 0.5612 0.0
H727 H 0.54272 0.38589 0.81206 0.0
H728 H 0.53297 0.42562 0.83526 0.0
H729 H 0.56066 0.43511 0.64665 0.0
C730 C 0.56649 0.34545 0.57911 0.0
C731 C 0.55823 0.32602 0.60068 0.0
C732 C 0.55257 0.32666 0.66772 0.0
C733 C 0.55352 0.34654 0.71132 0.0
C734 C 0.56034 0.36564 0.68743 0.0
C735 C 0.56704 0.36524 0.62303 0.0
C736 C 0.5702 0.38848 0.60716 0.0
C737 C 0.59572 0.3927 0.59231 0.0
C738 C 0.55435 0.39277 0.55016 0.0
C739 C 0.56271 0.40201 0.67138 0.0
C740 C 0.55759 0.38846 0.71745 0.0
C741 C 0.54739 0.39672 0.77733 0.0
C742 C 0.54181 0.41925 0.78996 0.0
C743 C 0.54653 0.43328 0.74312 0.0
C744 C 0.55768 0.42473 0.68393 0.0
H745 H 0.21973 0.5095 0.56144 0.0
H746 H 0.20536 0.44618 0.62095 0.0
H747 H 0.18275 0.46498 0.71569 0.0
H748 H 0.21738 0.54492 0.73432 0.0
H749 H 0.20318 0.56689 0.69999 0.0
H750 H 0.22453 0.54969 0.65264 0.0
H751 H 0.1947 0.54024 0.55869 0.0
H752 H 0.1735 0.55732 0.60537 0.0
H753 H 0.16713 0.52869 0.57624 0.0
H754 H 0.15453 0.48866 0.78293 0.0
H755 H 0.12099 0.51329 0.80785 0.0
H756 H 0.15282 0.56207 0.70559 0.0
C757 C 0.21264 0.49984 0.59654 0.0
C758 C 0.21436 0.47664 0.58547 0.0
C759 C 0.2044 0.46407 0.62999 0.0
C760 C 0.19173 0.47466 0.68393 0.0
C761 C 0.18944 0.49771 0.69225 0.0
C762 C 0.1998 0.51017 0.64975 0.0
C763 C 0.19099 0.53379 0.66022 0.0
C764 C 0.21017 0.54977 0.68851 0.0
C765 C 0.18097 0.54035 0.5964 0.0
C766 C 0.17236 0.53221 0.71062 0.0
C767 C 0.17249 0.51159 0.73086 0.0
C768 C 0.15474 0.50506 0.76926 0.0
C769 C 0.13575 0.51928 0.78369 0.0
C770 C 0.13455 0.53973 0.75946 0.0
C771 C 0.15366 0.54673 0.72575 0.0
H772 H 0.01411 0.81669 0.09005 0.0
H773 H 0.9403 0.83068 0.09623 0.0
H774 H 0.94728 0.86512 0.05009 0.0
H775 H 0.03186 0.86966 0.14345 0.0
H776 H 0.0572 0.86888 0.09217 0.0
H777 H 0.04632 0.84372 0.11562 0.0
H778 H 0.04296 0.82618 0.99362 0.0
H779 H 0.05428 0.85116 0.96965 0.0
H780 H 0.02688 0.84044 0.93757 0.0
H781 H 0.96276 0.89979 0.01563 0.0
H782 H 0.98535 0.93137 0.98906 0.0
H783 H 0.04915 0.8948 0.00793 0.0
C784 C 0.99933 0.82655 0.0793 0.0
C785 C 0.97664 0.82097 0.09595 0.0
C786 C 0.9578 0.8347 0.0835 0.0
C787 C 0.9616 0.85422 0.05728 0.0
C788 C 0.98432 0.85966 0.04368 0.0
C789 C 1.00284 0.84609 0.05351 0.0
C790 C 0.02569 0.85652 0.03999 0.0
C791 C 0.04116 0.85989 0.10148 0.0
C792 C 0.03819 0.84276 0.98173 0.0
C793 C 0.01718 0.87835 0.02278 0.0
C794 C 0.99327 0.87977 0.02466 0.0
C795 C 0.98148 0.89878 0.01336 0.0
C796 C 0.99448 0.91671 0.9991 0.0
C797 C 0.01902 0.91556 0.99672 0.0
C798 C 0.03042 0.89607 0.00867 0.0
H799 H 0.70728 0.13289 0.18446 0.0
H800 H 0.74919 0.0949 0.03288 0.0
H801 H 0.72021 0.10092 0.95078 0.0
H802 H 0.66047 0.1075 0.14611 0.0
H803 H 0.63976 0.12991 0.16118 0.0
H804 H 0.66711 0.13221 0.20231 0.0
H805 H 0.67567 0.16847 0.15648 0.0
H806 H 0.64796 0.16643 0.11545 0.0
H807 H 0.6741 0.16894 0.06947 0.0
H808 H 0.68304 0.09831 0.89526 0.0
H809 H 0.64252 0.08816 0.87285 0.0
H810 H 0.62212 0.12741 0.05686 0.0
C811 C 0.71077 0.12669 0.13348 0.0
C812 C 0.73045 0.11328 0.11552 0.0
C813 C 0.7345 0.10552 0.04829 0.0
C814 C 0.71798 0.10883 1.00094 0.0
C815 C 0.69754 0.12008 0.02125 0.0
C816 C 0.69407 0.12939 0.08597 0.0
C817 C 0.66895 0.1362 0.0982 0.0
C818 C 0.65849 0.12581 0.15521 0.0
C819 C 0.66653 0.16152 0.1106 0.0
C820 C 0.65839 0.12671 0.03285 0.0
C821 C 0.6753 0.11844 0.98813 0.0
C822 C 0.66967 0.10547 0.92878 0.0
C823 C 0.64645 0.09979 0.91633 0.0
C824 C 0.62906 0.10693 0.96328 0.0
C825 C 0.63505 0.12168 0.02017 0.0
H826 H 0.50632 0.66656 0.87665 0.0
H827 H 0.45302 0.66657 0.02483 0.0
H828 H 0.44621 0.62704 0.98725 0.0
H829 H 0.47966 0.62272 0.74906 0.0
H830 H 0.50779 0.6111 0.72607 0.0
H831 H 0.50471 0.64036 0.75393 0.0
H832 H 0.53577 0.6376 0.84311 0.0
H833 H 0.53869 0.60838 0.81617 0.0
H834 H 0.53165 0.61846 0.90051 0.0
H835 H 0.45063 0.58665 0.9502 0.0
H836 H 0.46401 0.54862 0.90993 0.0
H837 H 0.51459 0.57442 0.78602 0.0
C838 C 0.49272 0.65839 0.89984 0.0
C839 C 0.48012 0.66975 0.95347 0.0
C840 C 0.46257 0.65843 0.98279 0.0
C841 C 0.45865 0.63588 0.962 0.0
C842 C 0.47223 0.62492 0.91136 0.0
C843 C 0.48865 0.63586 0.87978 0.0
C844 C 0.50273 0.61982 0.83195 0.0
C845 C 0.49845 0.62373 0.76105 0.0
C846 C 0.52874 0.62115 0.84902 0.0
C847 C 0.49247 0.59809 0.84421 0.0
C848 C 0.4747 0.60141 0.8895 0.0
C849 C 0.46412 0.58383 0.91347 0.0
C850 C 0.47196 0.56229 0.89071 0.0
C851 C 0.49022 0.55855 0.84454 0.0
C852 C 0.5003 0.57672 0.8204 0.0
H853 H 0.82929 0.38176 0.06663 0.0
H854 H 0.79327 0.42434 0.94959 0.0
H855 H 0.81994 0.41271 0.85825 0.0
H856 H 0.88 0.39712 0.04071 0.0
H857 H 0.89567 0.37128 0.0349 0.0
H858 H 0.86882 0.37458 0.07837 0.0
H859 H 0.85229 0.3402 1.00469 0.0
H860 H 0.8794 0.33667 0.96079 0.0
H861 H 0.85266 0.33878 0.91683 0.0
H862 H 0.85654 0.40855 0.80033 0.0
H863 H 0.89816 0.41217 0.78302 0.0
H864 H 0.9123 0.37046 0.93084 0.0
C865 C 0.82646 0.38776 0.02051 0.0
C866 C 0.80932 0.40395 0.0152 0.0
C867 C 0.80606 0.41166 0.95455 0.0
C868 C 0.82119 0.40509 0.90218 0.0
C869 C 0.83929 0.39055 0.91081 0.0
C870 C 0.84165 0.38149 0.96811 0.0
C871 C 0.86499 0.37018 0.97103 0.0
C872 C 0.87812 0.37885 0.03494 0.0
C873 C 0.86216 0.34495 0.96281 0.0
C874 C 0.87652 0.377 0.91138 0.0
C875 C 0.86106 0.38779 0.8755 0.0
C876 C 0.86861 0.39938 0.82628 0.0
C877 C 0.89247 0.40131 0.81658 0.0
C878 C 0.90858 0.39174 0.85612 0.0
C879 C 0.90036 0.37805 0.90026 0.0
H880 H 0.03073 0.16168 0.01415 0.0
H881 H 0.04509 0.19404 0.84576 0.0
H882 H 0.04181 0.158 0.77302 0.0
H883 H 0.06413 0.11343 0.96094 0.0
H884 H 0.04465 0.09491 0.99361 0.0
H885 H 0.04643 0.12338 0.03126 0.0
H886 H 1.00218 0.12815 0.01633 0.0
H887 H 1.00023 0.09963 0.97906 0.0
H888 H 0.98957 0.12119 0.93595 0.0
H889 H 0.03715 0.11789 0.71909 0.0
H890 H 0.03303 0.07737 0.68925 0.0
H891 H 0.02378 0.07141 0.8945 0.0
C892 C 0.03271 0.16125 0.96179 0.0
C893 C 0.03778 0.1807 0.93535 0.0
C894 C 0.04102 0.17935 0.86685 0.0
C895 C 0.03917 0.15897 0.82528 0.0
C896 C 0.03437 0.14005 0.8531 0.0
C897 C 0.03128 0.14104 0.91989 0.0
C898 C 0.02747 0.11825 0.93813 0.0
C899 C 0.04682 0.11214 0.98367 0.0
C900 C 1.00343 0.11672 0.96919 0.0
C901 C 0.02887 0.1042 0.87123 0.0
C902 C 0.03265 0.11706 0.82266 0.0
C903 C 0.03425 0.1077 0.75684 0.0
C904 C 0.03189 0.08465 0.74035 0.0
C905 C 0.02825 0.07115 0.78953 0.0
C906 C 0.02679 0.08119 0.85576 0.0
H907 H 0.37884 0.03881 0.07866 0.0
H908 H 0.34175 0.98123 0.98321 0.0
H909 H 0.37609 0.9702 0.91439 0.0
H910 H 0.40798 0.05087 0.93247 0.0
H911 H 0.43426 0.05976 0.97562 0.0
H912 H 0.40682 0.06297 0.01764 0.0
H913 H 0.42271 0.04082 0.10585 0.0
H914 H 0.45016 0.03748 0.06399 0.0
H915 H 0.43462 0.01352 0.08102 0.0
H916 H 0.41521 0.96505 0.85662 0.0
H917 H 0.455 0.96665 0.81415 0.0
H918 H 0.46597 0.02855 0.94327 0.0
C919 C 0.37765 0.02404 0.0427 0.0
C920 C 0.35727 0.01096 0.03683 0.0
C921 C 0.35705 0.99147 0.98979 0.0
C922 C 0.3765 0.98511 0.95 0.0
C923 C 0.39618 0.99841 0.95725 0.0
C924 C 0.39684 0.01753 1.00228 0.0
C925 C 0.42011 0.02894 1.00049 0.0
C926 C 0.41711 0.052 0.98035 0.0
C927 C 0.43264 0.03026 0.06678 0.0
C928 C 0.43253 0.01322 0.94759 0.0
C929 C 0.41844 0.99568 0.92336 0.0
C930 C 0.42627 0.97881 0.8751 0.0
C931 C 0.44898 0.9799 0.85108 0.0
C932 C 0.46376 0.9978 0.8746 0.0
C933 C 0.45522 0.01468 0.92364 0.0
H934 H 0.47285 0.3191 0.21163 0.0
H935 H 0.45514 0.26583 0.05644 0.0
H936 H 0.4515 0.29293 0.97875 0.0
H937 H 0.4342 0.3604 0.16314 0.0
H938 H 0.4544 0.38264 0.18507 0.0
H939 H 0.45494 0.35905 0.22783 0.0
H940 H 0.4984 0.35272 0.19881 0.0
H941 H 0.49797 0.37622 0.1557 0.0
H942 H 0.50734 0.34958 0.11423 0.0
H943 H 0.44959 0.32643 0.91859 0.0
H944 H 0.45096 0.36286 0.88029 0.0
H945 H 0.47062 0.39367 0.07556 0.0
C946 C 0.46785 0.31312 0.16153 0.0
C947 C 0.46396 0.29035 0.14026 0.0
C948 C 0.45814 0.28318 0.0738 0.0
C949 C 0.45598 0.29847 0.02948 0.0
C950 C 0.4599 0.32081 0.0523 0.0
C951 C 0.46581 0.32806 0.1168 0.0
C952 C 0.46975 0.3528 0.12898 0.0
C953 C 0.45228 0.3644 0.17922 0.0
C954 C 0.49486 0.35813 0.1507 0.0
C955 C 0.46515 0.35845 0.06123 0.0
C956 C 0.45935 0.33983 0.01767 0.0
C957 C 0.45412 0.34108 0.95235 0.0
C958 C 0.45485 0.36185 0.93111 0.0
C959 C 0.46094 0.3811 0.97489 0.0
C960 C 0.46616 0.37924 0.04074 0.0
H961 H 0.1702 0.51483 0.0703 0.0
H962 H 0.19955 0.45219 0.97906 0.0
H963 H 0.16609 0.4468 0.90388 0.0
H964 H 0.11188 0.49743 0.06761 0.0
H965 H 0.09978 0.52313 0.04986 0.0
H966 H 0.12691 0.52304 0.09302 0.0
H967 H 0.14642 0.54295 0.00619 0.0
H968 H 0.11952 0.54305 0.96188 0.0
H969 H 0.14523 0.53103 0.92106 0.0
H970 H 0.12709 0.44601 0.84717 0.0
H971 H 0.08744 0.45164 0.80648 0.0
H972 H 0.08376 0.51552 0.92983 0.0
C973 C 0.16976 0.50006 0.03409 0.0
C974 C 0.18776 0.48396 0.03088 0.0
C975 C 0.18635 0.46498 0.98223 0.0
C976 C 0.16725 0.46167 0.93948 0.0
C977 C 0.14961 0.47757 0.94516 0.0
C978 C 0.15084 0.49656 0.99065 0.0
C979 C 0.12924 0.5108 0.98775 0.0
C980 C 0.11619 0.51376 0.05346 0.0
C981 C 0.13547 0.53328 0.96797 0.0
C982 C 0.11548 0.49668 0.9343 0.0
C983 C 0.12751 0.4775 0.91073 0.0
C984 C 0.11771 0.46113 0.86455 0.0
C985 C 0.09513 0.46441 0.84189 0.0
C986 C 0.08261 0.48407 0.86436 0.0
C987 C 0.09307 0.50048 0.91089 0.0
H988 H 0.0176 0.83331 0.57022 0.0
H989 H 0.94792 0.82456 0.64096 0.0
H990 H 0.94734 0.86341 0.69415 0.0
H991 H 0.03681 0.87146 0.72069 0.0
H992 H 0.05438 0.88734 0.67287 0.0
H993 H 0.05015 0.85821 0.6459 0.0
H994 H 0.03503 0.86694 0.53433 0.0
H995 H 0.03881 0.89607 0.56122 0.0
H996 H 1.01085 0.8857 0.53272 0.0
H997 H 0.95184 0.90458 0.72391 0.0
H998 H 0.96347 0.94395 0.74228 0.0
H999 H 0.03152 0.92544 0.66301 0.0
C1000 C 1.00251 0.83923 0.59884 0.0
C1001 C 0.98269 0.82573 0.60044 0.0
C1002 C 0.96317 0.83454 0.63757 0.0
C1003 C 0.9627 0.85661 0.66839 0.0
C1004 C 0.98211 0.86967 0.66327 0.0
C1005 C 1.0019 0.86116 0.63097 0.0
C1006 C 0.02012 0.87896 0.63098 0.0
C1007 C 0.04164 0.87367 0.66994 0.0
C1008 C 0.02657 0.88209 0.56064 0.0
C1009 C 1.00715 0.89894 0.66608 0.0
C1010 C 0.98519 0.89323 0.68406 0.0
C1011 C 0.96919 0.90916 0.71157 0.0
C1012 C 0.97585 0.93146 0.72138 0.0
C1013 C 0.99842 0.93758 0.70475 0.0
C1014 C 0.01431 0.92108 0.67737 0.0
H1015 H 0.66988 0.99187 0.45897 0.0
H1016 H 0.7204 0.01778 0.60622 0.0
H1017 H 0.69069 0.01789 0.69235 0.0
H1018 H 0.62214 0.02391 0.5282 0.0
H1019 H 0.60105 0.00236 0.50776 0.0
H1020 H 0.62665 0.00284 0.45823 0.0
H1021 H 0.63696 0.96292 0.4764 0.0
H1022 H 0.6113 0.96228 0.52571 0.0
H1023 H 0.63927 0.95663 0.55875 0.0
H1024 H 0.65428 0.01785 0.76218 0.0
H1025 H 0.61528 0.01543 0.80981 0.0
H1026 H 0.58852 0.98929 0.6172 0.0
C1027 C 0.6748 0.99744 0.50936 0.0
C1028 C 0.69768 0.00476 0.52544 0.0
C1029 C 0.70323 0.01174 0.59232 0.0
C1030 C 0.68636 0.01203 0.64171 0.0
C1031 C 0.66392 0.00516 0.62388 0.0
C1032 C 0.65819 0.99777 0.55931 0.0
C1033 C 0.63273 0.99165 0.5529 0.0
C1034 C 0.61989 0.00605 0.50919 0.0
C1035 C 0.62991 0.9669 0.52691 0.0
C1036 C 0.62492 0.99704 0.62377 0.0
C1037 C 0.64316 0.00484 0.664 0.0
C1038 C 0.63996 0.01155 0.7311 0.0
C1039 C 0.61766 0.01016 0.75776 0.0
C1040 C 0.59869 0.00203 0.71763 0.0
C1041 C 0.60257 0.99539 0.64964 0.0
H1042 H 0.52539 0.69628 0.47667 0.0
H1043 H 0.59205 0.69969 0.38154 0.0
H1044 H 0.60604 0.66813 0.43251 0.0
H1045 H 0.54781 0.67832 0.62964 0.0
H1046 H 0.52361 0.66019 0.63494 0.0
H1047 H 0.51987 0.68495 0.59832 0.0
H1048 H 0.50399 0.66142 0.49294 0.0
H1049 H 0.50795 0.6366 0.52885 0.0
H1050 H 0.52133 0.63896 0.45136 0.0
H1051 H 0.61117 0.63337 0.48161 0.0
H1052 H 0.60812 0.59951 0.53198 0.0
H1053 H 0.53835 0.61864 0.59743 0.0
C1054 C 0.54308 0.69066 0.46747 0.0
C1055 C 0.55764 0.70064 0.4252 0.0
C1056 C 0.58067 0.69271 0.41461 0.0
C1057 C 0.58874 0.67463 0.44298 0.0
C1058 C 0.57366 0.6647 0.48234 0.0
C1059 C 0.55142 0.67262 0.49544 0.0
C1060 C 0.53831 0.65817 0.53645 0.0
C1061 C 0.53203 0.67119 0.60384 0.0
C1062 C 0.51662 0.6482 0.50021 0.0
C1063 C 0.55642 0.64052 0.54258 0.0
C1064 C 0.57673 0.6447 0.51135 0.0
C1065 C 0.59553 0.63018 0.50741 0.0
C1066 C 0.59364 0.61098 0.53654 0.0
C1067 C 0.57309 0.60636 0.56958 0.0
C1068 C 0.55428 0.62149 0.57248 0.0
H1069 H 0.87395 0.49357 0.47394 0.0
H1070 H 0.82243 0.50393 0.62935 0.0
H1071 H 0.8535 0.50442 0.71122 0.0
H1072 H 0.91301 0.45955 0.54817 0.0
H1073 H 0.9388 0.47192 0.52094 0.0
H1074 H 0.9125 0.47167 0.47375 0.0
H1075 H 0.91424 0.51426 0.48066 0.0
H1076 H 0.94064 0.51464 0.52753 0.0
H1077 H 0.91618 0.53128 0.55976 0.0
H1078 H 0.89053 0.50203 0.77727 0.0
H1079 H 0.93036 0.50038 0.82119 0.0
H1080 H 0.95795 0.49564 0.62425 0.0
C1081 C 0.86897 0.49635 0.52502 0.0
C1082 C 0.84527 0.49847 0.5441 0.0
C1083 C 0.84011 0.50163 0.61224 0.0
C1084 C 0.85777 0.50214 0.65959 0.0
C1085 C 0.88075 0.49985 0.63878 0.0
C1086 C 0.88641 0.49734 0.5731 0.0
C1087 C 0.91254 0.49583 0.5637 0.0
C1088 C 0.91962 0.47341 0.52431 0.0
C1089 C 0.92142 0.51516 0.53098 0.0
C1090 C 0.9207 0.49777 0.63434 0.0
C1091 C 0.90207 0.4998 0.6769 0.0
C1092 C 0.90522 0.50075 0.74435 0.0
C1093 C 0.92792 0.49975 0.7689 0.0
C1094 C 0.94732 0.49822 0.72641 0.0
C1095 C 0.94353 0.49727 0.6582 0.0
loop_
_geom_bond_atom_site_label_1
_geom_bond_atom_site_label_2
_geom_bond_distance
_geom_bond_site_symmetry_2
_ccdc_geom_bond_type
C0 C1 1.384 . S
C0 H13 0.947 . S
C0 C35 1.382 . S
C1 C0 1.384 . S
C1 C2 1.378 . S
C2 C1 1.378 . S
C2 C3 1.378 . S
C2 H14 0.952 . S
C3 C2 1.378 . S
C3 H15 0.950 . S
C3 C34 1.383 . S
H4 C23 0.947 . S
H5 C24 0.946 . S
H6 C26 0.953 . S
H7 C27 0.945 . S
H8 C29 0.952 . S
H9 C30 0.949 . S
H10 C32 0.950 . S
H11 C33 0.948 . S
H12 C35 0.951 . S
H13 C0 0.947 . S
H14 C2 0.952 . S
H15 C3 0.950 . S
N16 C19 1.382 . S
N16 C21 1.363 . S
N17 C19 1.371 . S
N17 C20 1.372 . S
N18 C20 1.361 . S
N18 C21 1.377 . S
C19 N16 1.382 . S
C19 N17 1.371 . S
C19 C22 1.480 . S
C20 N17 1.372 . S
C20 N18 1.361 . S
C20 C28 1.457 . S
C21 N16 1.363 . S
C21 N18 1.377 . S
C21 C34 1.479 . S
C22 C19 1.480 . S
C22 C23 1.383 . S
C22 C27 1.385 . S
C23 H4 0.947 . S
C23 C22 1.383 . S
C23 C24 1.388 . S
C24 H5 0.946 . S
C24 C23 1.388 . S
C24 C25 1.384 . S
C25 C24 1.384 . S
C25 C26 1.377 . S
C26 H6 0.953 . S
C26 C25 1.377 . S
C26 C27 1.369 . S
C27 H7 0.945 . S
C27 C22 1.385 . S
C27 C26 1.369 . S
C28 C20 1.457 . S
C28 C29 1.372 . S
C28 C33 1.364 . S
C29 H8 0.952 . S
C29 C28 1.372 . S
C29 C30 1.389 . S
C30 H9 0.949 . S
C30 C29 1.389 . S
C30 C31 1.387 . S
C31 C30 1.387 . S
C31 C32 1.372 . S
C32 H10 0.950 . S
C32 C31 1.372 . S
C32 C33 1.379 . S
C33 H11 0.948 . S
C33 C28 1.364 . S
C33 C32 1.379 . S
C34 C3 1.383 . S
C34 C21 1.479 . S
C34 C35 1.398 . S
C35 C0 1.382 . S
C35 H12 0.951 . S
C35 C34 1.398 . S
C36 C37 1.384 . S
C36 H49 0.947 . S
C36 C71 1.382 . S
C37 C36 1.384 . S
C37 C38 1.378 . S
C38 C37 1.378 . S
C38 C39 1.378 . S
C38 H50 0.952 . S
C39 C38 1.378 . S
C39 H51 0.950 . S
C39 C70 1.383 . S
H40 C59 0.947 . S
H41 C60 0.946 . S
H42 C62 0.953 . S
H43 C63 0.945 . S
H44 C65 0.952 . S
H45 C66 0.949 . S
H46 C68 0.950 . S
H47 C69 0.948 . S
H48 C71 0.951 . S
H49 C36 0.947 . S
H50 C38 0.952 . S
H51 C39 0.950 . S
N52 C55 1.382 . S
N52 C57 1.363 . S
N53 C55 1.371 . S
N53 C56 1.372 . S
N54 C56 1.361 . S
N54 C57 1.377 . S
C55 N52 1.382 . S
C55 N53 1.371 . S
C55 C58 1.480 . S
C56 N53 1.372 . S
C56 N54 1.361 . S
C56 C64 1.457 . S
C57 N52 1.363 . S
C57 N54 1.377 . S
C57 C70 1.479 . S
C58 C55 1.480 . S
C58 C59 1.383 . S
C58 C63 1.385 . S
C59 H40 0.947 . S
C59 C58 1.383 . S
C59 C60 1.388 . S
C60 H41 0.946 . S
C60 C59 1.388 . S
C60 C61 1.384 . S
C61 C60 1.384 . S
C61 C62 1.377 . S
C62 H42 0.953 . S
C62 C61 1.377 . S
C62 C63 1.369 . S
C63 H43 0.945 . S
C63 C58 1.385 . S
C63 C62 1.369 . S
C64 C56 1.457 . S
C64 C65 1.372 . S
C64 C69 1.364 . S
C65 H44 0.952 . S
C65 C64 1.372 . S
C65 C66 1.389 . S
C66 H45 0.949 . S
C66 C65 1.389 . S
C66 C67 1.387 . S
C67 C66 1.387 . S
C67 C68 1.372 . S
C68 H46 0.950 . S
C68 C67 1.372 . S
C68 C69 1.379 . S
C69 H47 0.948 . S
C69 C64 1.364 . S
C69 C68 1.379 . S
C70 C39 1.383 . S
C70 C57 1.479 . S
C70 C71 1.398 . S
C71 C36 1.382 . S
C71 H48 0.951 . S
C71 C70 1.398 . S
C72 C73 1.384 1_565 S
C72 H85 0.948 . S
C72 C107 1.381 1_565 S
C73 C72 1.384 1_545 S
C73 C74 1.378 . S
C74 C73 1.378 . S
C74 C75 1.378 . S
C74 H86 0.952 . S
C75 C74 1.378 . S
C75 H87 0.950 . S
C75 C106 1.383 . S
H76 C95 0.947 . S
H77 C96 0.955 . S
H78 C98 0.953 . S
H79 C99 0.945 . S
H80 C101 0.950 1_565 S
H81 C102 0.950 . S
H82 C104 0.950 . S
H83 C105 0.948 . S
H84 C107 0.951 1_565 S
H85 C72 0.948 . S
H86 C74 0.952 . S
H87 C75 0.950 . S
N88 C91 1.382 . S
N88 C93 1.363 . S
N89 C91 1.371 . S
N89 C92 1.372 . S
N90 C92 1.361 . S
N90 C93 1.377 . S
C91 N88 1.382 . S
C91 N89 1.371 . S
C91 C94 1.480 . S
C92 N89 1.372 . S
C92 N90 1.361 . S
C92 C100 1.457 . S
C93 N88 1.363 . S
C93 N90 1.377 . S
C93 C106 1.479 . S
C94 C91 1.480 . S
C94 C95 1.383 . S
C94 C99 1.385 . S
C95 H76 0.947 . S
C95 C94 1.383 . S
C95 C96 1.387 1_545 S
C96 H77 0.955 . S
C96 C95 1.387 1_565 S
C96 C97 1.377 1_565 S
C97 C96 1.377 1_545 S
C97 C98 1.377 . S
C98 H78 0.953 . S
C98 C97 1.377 . S
C98 C99 1.369 . S
C99 H79 0.945 . S
C99 C94 1.385 . S
C99 C98 1.369 . S
C100 C92 1.457 . S
C100 C101 1.373 . S
C100 C105 1.364 . S
C101 H80 0.950 1_545 S
C101 C100 1.373 . S
C101 C102 1.393 1_545 S
C102 H81 0.950 . S
C102 C101 1.393 1_565 S
C102 C103 1.385 1_565 S
C103 C102 1.385 1_545 S
C103 C104 1.372 . S
C104 H82 0.950 . S
C104 C103 1.372 . S
C104 C105 1.379 . S
C105 H83 0.948 . S
C105 C100 1.364 . S
C105 C104 1.379 . S
C106 C75 1.383 . S
C106 C93 1.479 . S
C106 C107 1.398 . S
C107 C72 1.381 1_545 S
C107 H84 0.951 1_545 S
C107 C106 1.398 . S
C108 C109 1.384 . S
C108 H121 0.947 . S
C108 C143 1.382 . S
C109 C108 1.384 . S
C109 C110 1.378 . S
C110 C109 1.378 . S
C110 C111 1.378 . S
C110 H122 0.952 . S
C111 C110 1.378 . S
C111 H123 0.950 . S
C111 C142 1.383 . S
H112 C131 0.947 . S
H113 C132 0.946 . S
H114 C134 0.953 . S
H115 C135 0.945 . S
H116 C137 0.952 . S
H117 C138 0.949 . S
H118 C140 0.950 . S
H119 C141 0.948 . S
H120 C143 0.951 . S
H121 C108 0.947 . S
H122 C110 0.952 . S
H123 C111 0.950 . S
N124 C127 1.382 . S
N124 C129 1.363 . S
N125 C127 1.371 1_554 S
N125 C128 1.372 . S
N126 C128 1.361 . S
N126 C129 1.377 1_554 S
C127 N124 1.382 . S
C127 N125 1.371 1_556 S
C127 C130 1.480 . S
C128 N125 1.372 . S
C128 N126 1.361 . S
C128 C136 1.457 . S
C129 N124 1.363 . S
C129 N126 1.377 1_556 S
C129 C142 1.479 . S
C130 C127 1.480 . S
C130 C131 1.383 . S
C130 C135 1.385 1_556 S
C131 H112 0.947 . S
C131 C130 1.383 . S
C131 C132 1.388 . S
C132 H113 0.946 . S
C132 C131 1.388 . S
C132 C133 1.384 . S
C133 C132 1.384 . S
C133 C134 1.377 1_556 S
C134 H114 0.953 . S
C134 C133 1.377 1_554 S
C134 C135 1.369 . S
C135 H115 0.945 . S
C135 C130 1.385 1_554 S
C135 C134 1.369 . S
C136 C128 1.457 . S
C136 C137 1.372 . S
C136 C141 1.364 . S
C137 H116 0.952 . S
C137 C136 1.372 . S
C137 C138 1.389 . S
C138 H117 0.949 . S
C138 C137 1.389 . S
C138 C139 1.387 . S
C139 C138 1.387 . S
C139 C140 1.372 . S
C140 H118 0.950 . S
C140 C139 1.372 . S
C140 C141 1.379 . S
C141 H119 0.948 . S
C141 C136 1.364 . S
C141 C140 1.379 . S
C142 C111 1.383 . S
C142 C129 1.479 . S
C142 C143 1.398 . S
C143 C108 1.382 . S
C143 H120 0.951 . S
C143 C142 1.398 . S
C144 C145 1.384 . S
C144 H157 0.947 . S
C144 C179 1.382 1_556 S
C145 C144 1.384 . S
C145 C146 1.378 . S
C146 C145 1.378 . S
C146 C147 1.378 . S
C146 H158 0.952 . S
C147 C146 1.378 . S
C147 H159 0.950 . S
C147 C178 1.383 1_556 S
H148 C167 0.947 . S
H149 C168 0.946 . S
H150 C170 0.953 . S
H151 C171 0.945 . S
H152 C173 0.952 . S
H153 C174 0.949 . S
H154 C176 0.950 . S
H155 C177 0.948 . S
H156 C179 0.951 . S
H157 C144 0.947 . S
H158 C146 0.952 . S
H159 C147 0.950 . S
N160 C163 1.382 . S
N160 C165 1.363 . S
N161 C163 1.371 . S
N161 C164 1.372 . S
N162 C164 1.361 . S
N162 C165 1.377 . S
C163 N160 1.382 . S
C163 N161 1.371 . S
C163 C166 1.480 . S
C164 N161 1.372 . S
C164 N162 1.361 . S
C164 C172 1.457 . S
C165 N160 1.363 . S
C165 N162 1.377 . S
C165 C178 1.479 . S
C166 C163 1.480 . S
C166 C167 1.383 . S
C166 C171 1.385 . S
C167 H148 0.947 . S
C167 C166 1.383 . S
C167 C168 1.388 . S
C168 H149 0.946 . S
C168 C167 1.388 . S
C168 C169 1.384 . S
C169 C168 1.384 . S
C169 C170 1.377 . S
C170 H150 0.953 . S
C170 C169 1.377 . S
C170 C171 1.369 . S
C171 H151 0.945 . S
C171 C166 1.385 . S
C171 C170 1.369 . S
C172 C164 1.457 . S
C172 C173 1.372 . S
C172 C177 1.364 . S
C173 H152 0.952 . S
C173 C172 1.372 . S
C173 C174 1.389 . S
C174 H153 0.949 . S
C174 C173 1.389 . S
C174 C175 1.387 . S
C175 C174 1.387 . S
C175 C176 1.372 . S
C176 H154 0.950 . S
C176 C175 1.372 . S
C176 C177 1.379 . S
C177 H155 0.948 . S
C177 C172 1.364 . S
C177 C176 1.379 . S
C178 C147 1.383 1_554 S
C178 C165 1.479 . S
C178 C179 1.398 . S
C179 C144 1.382 1_554 S
C179 H156 0.951 . S
C179 C178 1.398 . S
C180 C181 1.384 1_554 S
C180 H193 0.947 1_554 S
C180 C215 1.382 . S
C181 C180 1.384 1_556 S
C181 C182 1.378 . S
C182 C181 1.378 . S
C182 C183 1.378 1_556 S
C182 H194 0.952 . S
C183 C182 1.378 1_554 S
C183 H195 0.950 . S
C183 C214 1.383 . S
H184 C203 0.947 . S
H185 C204 0.946 . S
H186 C206 0.953 . S
H187 C207 0.945 . S
H188 C209 0.952 . S
H189 C210 0.949 . S
H190 C212 0.950 . S
H191 C213 0.948 . S
H192 C215 0.951 . S
H193 C180 0.947 1_556 S
H194 C182 0.952 . S
H195 C183 0.950 . S
N196 C199 1.382 . S
N196 C201 1.363 . S
N197 C199 1.371 . S
N197 C200 1.372 . S
N198 C200 1.361 . S
N198 C201 1.377 . S
C199 N196 1.382 . S
C199 N197 1.371 . S
C199 C202 1.480 . S
C200 N197 1.372 . S
C200 N198 1.361 . S
C200 C208 1.457 . S
C201 N196 1.363 . S
C201 N198 1.377 . S
C201 C214 1.479 . S
C202 C199 1.480 . S
C202 C203 1.383 . S
C202 C207 1.385 . S
C203 H184 0.947 . S
C203 C202 1.383 . S
C203 C204 1.388 . S
C204 H185 0.946 . S
C204 C203 1.388 . S
C204 C205 1.384 . S
C205 C204 1.384 . S
C205 C206 1.377 . S
C206 H186 0.953 . S
C206 C205 1.377 . S
C206 C207 1.369 . S
C207 H187 0.945 . S
C207 C202 1.385 . S
C207 C206 1.369 . S
C208 C200 1.457 . S
C208 C209 1.372 . S
C208 C213 1.364 . S
C209 H188 0.952 . S
C209 C208 1.372 . S
C209 C210 1.389 . S
C210 H189 0.949 . S
C210 C209 1.389 . S
C210 C211 1.387 . S
C211 C210 1.387 . S
C211 C212 1.372 . S
C212 H190 0.950 . S
C212 C211 1.372 . S
C212 C213 1.379 . S
C213 H191 0.948 . S
C213 C208 1.364 . S
C213 C212 1.379 . S
C214 C183 1.383 . S
C214 C201 1.479 . S
C214 C215 1.398 . S
C215 C180 1.382 . S
C215 H192 0.951 . S
C215 C214 1.398 . S
C216 C217 1.383 . S
C216 H229 0.947 1_545 S
C216 C251 1.384 1_556 S
C217 C216 1.383 . S
C217 C218 1.378 . S
C218 C217 1.378 . S
C218 C219 1.378 1_556 S
C218 H230 0.952 . S
C219 C218 1.378 1_554 S
C219 H231 0.950 . S
C219 C250 1.383 . S
H220 C239 0.947 . S
H221 C240 0.947 . S
H222 C242 0.953 . S
H223 C243 0.945 . S
H224 C245 0.946 1_565 S
H225 C246 0.958 . S
H226 C248 0.950 . S
H227 C249 0.948 . S
H228 C251 0.949 1_565 S
H229 C216 0.947 1_565 S
H230 C218 0.952 . S
H231 C219 0.950 . S
N232 C235 1.382 . S
N232 C237 1.363 . S
N233 C235 1.371 . S
N233 C236 1.372 . S
N234 C236 1.361 . S
N234 C237 1.377 . S
C235 N232 1.382 . S
C235 N233 1.371 . S
C235 C238 1.480 . S
C236 N233 1.372 . S
C236 N234 1.361 . S
C236 C244 1.457 . S
C237 N232 1.363 . S
C237 N234 1.377 . S
C237 C250 1.479 . S
C238 C235 1.480 . S
C238 C239 1.383 . S
C238 C243 1.385 . S
C239 H220 0.947 . S
C239 C238 1.383 . S
C239 C240 1.386 1_545 S
C240 H221 0.947 . S
C240 C239 1.386 1_565 S
C240 C241 1.385 1_565 S
C241 C240 1.385 1_545 S
C241 C242 1.377 . S
C242 H222 0.953 . S
C242 C241 1.377 . S
C242 C243 1.369 . S
C243 H223 0.945 . S
C243 C238 1.385 . S
C243 C242 1.369 . S
C244 C236 1.457 . S
C244 C245 1.383 . S
C244 C249 1.364 . S
C245 H224 0.946 1_545 S
C245 C244 1.383 . S
C245 C246 1.380 1_545 S
C246 H225 0.958 . S
C246 C245 1.380 1_565 S
C246 C247 1.382 1_565 S
C247 C246 1.382 1_545 S
C247 C248 1.372 . S
C248 H226 0.950 . S
C248 C247 1.372 . S
C248 C249 1.379 . S
C249 H227 0.948 . S
C249 C244 1.364 . S
C249 C248 1.379 . S
C250 C219 1.383 . S
C250 C237 1.479 . S
C250 C251 1.399 . S
C251 C216 1.384 1_554 S
C251 H228 0.949 1_545 S
C251 C250 1.399 . S
C252 C253 1.384 . S
C252 H265 0.947 . S
C252 C287 1.382 . S
C253 C252 1.384 . S
C253 C254 1.378 . S
C254 C253 1.378 . S
C254 C255 1.378 . S
C254 H266 0.952 . S
C255 C254 1.378 . S
C255 H267 0.950 . S
C255 C286 1.383 . S
H256 C275 0.947 . S
H257 C276 0.946 . S
H258 C278 0.953 . S
H259 C279 0.945 . S
H260 C281 0.952 . S
H261 C282 0.949 . S
H262 C284 0.950 . S
H263 C285 0.948 . S
H264 C287 0.951 . S
H265 C252 0.947 . S
H266 C254 0.952 . S
H267 C255 0.950 . S
N268 C271 1.382 . S
N268 C273 1.363 . S
N269 C271 1.371 . S
N269 C272 1.372 . S
N270 C272 1.361 . S
N270 C273 1.377 . S
C271 N268 1.382 . S
C271 N269 1.371 . S
C271 C274 1.480 . S
C272 N269 1.372 . S
C272 N270 1.361 . S
C272 C280 1.457 . S
C273 N268 1.363 . S
C273 N270 1.377 . S
C273 C286 1.479 . S
C274 C271 1.480 . S
C274 C275 1.383 . S
C274 C279 1.385 . S
C275 H256 0.947 . S
C275 C274 1.383 . S
C275 C276 1.388 . S
C276 H257 0.946 . S
C276 C275 1.388 . S
C276 C277 1.384 . S
C277 C276 1.384 . S
C277 C278 1.377 . S
C278 H258 0.953 . S
C278 C277 1.377 . S
C278 C279 1.369 . S
C279 H259 0.945 . S
C279 C274 1.385 . S
C279 C278 1.369 . S
C280 C272 1.457 . S
C280 C281 1.372 . S
C280 C285 1.364 . S
C281 H260 0.952 . S
C281 C280 1.372 . S
C281 C282 1.389 . S
C282 H261 0.949 . S
C282 C281 1.389 . S
C282 C283 1.387 . S
C283 C282 1.387 . S
C283 C284 1.372 . S
C284 H262 0.950 . S
C284 C283 1.372 . S
C284 C285 1.379 . S
C285 H263 0.948 . S
C285 C280 1.364 . S
C285 C284 1.379 . S
C286 C255 1.383 . S
C286 C273 1.479 . S
C286 C287 1.398 . S
C287 C252 1.382 . S
C287 H264 0.951 . S
C287 C286 1.398 . S
Tb288 C297 2.764 . S
Tb288 O298 2.325 1_655 S
Tb288 O301 2.303 1_655 S
Tb288 O305 2.322 1_545 S
Tb288 O306 2.349 . S
Tb288 O309 2.415 1_655 S
Tb288 O310 2.399 . S
Tb289 O299 2.322 1_565 S
Tb289 O300 2.349 . S
Tb289 O302 2.415 . S
Tb289 O303 2.399 . S
Tb289 O304 2.325 . S
Tb289 O307 2.303 1_455 S
Tb289 C318 2.764 . S
C290 O306 1.261 . S
C290 O307 1.257 1_545 S
C291 C294 1.358 . S
C291 C295 1.332 1_655 S
C291 C297 1.504 . S
C292 C293 1.373 . S
C292 C296 1.308 1_655 S
C293 C292 1.373 . S
C293 C294 1.429 . S
C293 H320 0.932 . S
C294 C291 1.358 . S
C294 C293 1.429 . S
C294 H321 0.930 . S
C295 C291 1.332 1_455 S
C295 C296 1.394 . S
C295 H322 0.932 . S
C296 C292 1.308 1_455 S
C296 C295 1.394 . S
C296 H323 0.929 . S
C297 Tb288 2.764 . S
C297 C291 1.504 . S
C297 O309 1.239 1_655 S
C297 O310 1.263 . S
O298 Tb288 2.325 1_455 S
O298 C308 1.236 . S
O299 Tb289 2.322 1_545 S
O299 C308 1.257 . S
O300 Tb289 2.349 . S
O300 C311 1.261 . S
O301 Tb288 2.303 1_455 S
O301 C311 1.257 1_545 S
O302 Tb289 2.415 . S
O302 C318 1.239 . S
O303 Tb289 2.399 . S
O303 C318 1.263 . S
O304 Tb289 2.325 . S
O304 C319 1.236 1_455 S
O305 Tb288 2.322 1_565 S
O305 C319 1.257 . S
O306 Tb288 2.349 . S
O306 C290 1.261 . S
O307 Tb289 2.303 1_655 S
O307 C290 1.257 1_565 S
C308 O298 1.236 . S
C308 O299 1.257 . S
O309 Tb288 2.415 1_455 S
O309 C297 1.239 1_455 S
O310 Tb288 2.399 . S
O310 C297 1.263 . S
C311 O300 1.261 . S
C311 O301 1.257 1_565 S
C312 C315 1.358 . S
C312 C316 1.332 . S
C312 C318 1.504 . S
C313 C314 1.373 . S
C313 C317 1.308 . S
C314 C313 1.373 . S
C314 C315 1.429 . S
C314 H324 0.932 . S
C315 C312 1.358 . S
C315 C314 1.429 . S
C315 H325 0.930 . S
C316 C312 1.332 . S
C316 C317 1.394 . S
C316 H326 0.932 1_455 S
C317 C313 1.308 . S
C317 C316 1.394 . S
C317 H327 0.929 . S
C318 Tb289 2.764 . S
C318 O302 1.239 . S
C318 O303 1.263 . S
C318 C312 1.504 . S
C319 O304 1.236 1_655 S
C319 O305 1.257 . S
H320 C293 0.932 . S
H321 C294 0.930 . S
H322 C295 0.932 . S
H323 C296 0.929 . S
H324 C314 0.932 . S
H325 C315 0.930 . S
H326 C316 0.932 1_655 S
H327 C317 0.929 . S
Tb328 C337 2.764 . S
Tb328 O338 2.325 . S
Tb328 O341 2.303 1_565 S
Tb328 O345 2.322 . S
Tb328 O346 2.349 . S
Tb328 O349 2.415 1_565 S
Tb328 O350 2.399 . S
Tb329 O339 2.322 . S
Tb329 O340 2.349 . S
Tb329 O342 2.415 1_545 S
Tb329 O343 2.399 . S
Tb329 O344 2.325 . S
Tb329 O347 2.303 1_545 S
Tb329 C358 2.764 . S
C330 O346 1.261 . S
C330 O347 1.257 . S
C331 C334 1.358 . S
C331 C335 1.336 1_565 S
C331 C337 1.504 . S
C332 C333 1.373 . S
C332 C336 1.308 . S
C333 C332 1.373 . S
C333 C334 1.429 . S
C333 H360 0.932 . S
C334 C331 1.358 . S
C334 C333 1.429 . S
C334 H361 0.930 . S
C335 C331 1.336 1_545 S
C335 C336 1.394 1_545 S
C335 H362 0.928 . S
C336 C332 1.308 . S
C336 C335 1.394 1_565 S
C336 H363 0.929 1_565 S
C337 Tb328 2.764 . S
C337 C331 1.504 . S
C337 O349 1.239 1_565 S
C337 O350 1.263 . S
O338 Tb328 2.325 . S
O338 C348 1.236 1_565 S
O339 Tb329 2.322 . S
O339 C348 1.257 . S
O340 Tb329 2.349 . S
O340 C351 1.261 . S
O341 Tb328 2.303 1_545 S
O341 C351 1.257 . S
O342 Tb329 2.415 1_565 S
O342 C358 1.239 1_565 S
O343 Tb329 2.399 . S
O343 C358 1.263 . S
O344 Tb329 2.325 . S
O344 C359 1.236 1_545 S
O345 Tb328 2.322 . S
O345 C359 1.257 . S
O346 Tb328 2.349 . S
O346 C330 1.261 . S
O347 Tb329 2.303 1_565 S
O347 C330 1.257 . S
C348 O338 1.236 1_545 S
C348 O339 1.257 . S
O349 Tb328 2.415 1_545 S
O349 C337 1.239 1_545 S
O350 Tb328 2.399 . S
O350 C337 1.263 . S
C351 O340 1.261 . S
C351 O341 1.257 . S
C352 C355 1.358 . S
C352 C356 1.336 . S
C352 C358 1.504 . S
C353 C354 1.373 . S
C353 C357 1.308 1_554 S
C354 C353 1.373 . S
C354 C355 1.429 1_554 S
C354 H364 0.932 . S
C355 C352 1.358 . S
C355 C354 1.429 1_556 S
C355 H365 0.930 . S
C356 C352 1.336 . S
C356 C357 1.394 . S
C356 H366 0.928 1_545 S
C357 C353 1.308 1_556 S
C357 C356 1.394 . S
C357 H367 0.929 1_545 S
C358 Tb329 2.764 . S
C358 O342 1.239 1_545 S
C358 O343 1.263 . S
C358 C352 1.504 . S
C359 O344 1.236 1_565 S
C359 O345 1.257 . S
H360 C333 0.932 . S
H361 C334 0.930 . S
H362 C335 0.928 . S
H363 C336 0.929 1_545 S
H364 C354 0.932 . S
H365 C355 0.930 . S
H366 C356 0.928 1_565 S
H367 C357 0.929 1_565 S
Tb368 C377 2.764 . S
Tb368 O378 2.325 . S
Tb368 O381 2.303 . S
Tb368 O385 2.322 . S
Tb368 O386 2.349 . S
Tb368 O389 2.415 . S
Tb368 O390 2.399 . S
Tb369 O379 2.322 . S
Tb369 O380 2.349 . S
Tb369 O382 2.415 . S
Tb369 O383 2.399 . S
Tb369 O384 2.325 . S
Tb369 O387 2.303 . S
Tb369 C398 2.764 . S
C370 O386 1.261 . S
C370 O387 1.257 . S
C371 C374 1.358 . S
C371 C375 1.332 . S
C371 C377 1.504 . S
C372 C373 1.373 . S
C372 C376 1.308 . S
C373 C372 1.373 . S
C373 C374 1.429 1_554 S
C373 H400 0.932 . S
C374 C371 1.358 . S
C374 C373 1.429 1_556 S
C374 H401 0.930 . S
C375 C371 1.332 . S
C375 C376 1.394 1_556 S
C375 H402 0.932 . S
C376 C372 1.308 . S
C376 C375 1.394 1_554 S
C376 H403 0.929 . S
C377 Tb368 2.764 . S
C377 C371 1.504 . S
C377 O389 1.239 . S
C377 O390 1.263 . S
O378 Tb368 2.325 . S
O378 C388 1.236 . S
O379 Tb369 2.322 . S
O379 C388 1.257 . S
O380 Tb369 2.349 . S
O380 C391 1.261 . S
O381 Tb368 2.303 . S
O381 C391 1.257 . S
O382 Tb369 2.415 . S
O382 C398 1.239 . S
O383 Tb369 2.399 . S
O383 C398 1.263 . S
O384 Tb369 2.325 . S
O384 C399 1.236 . S
O385 Tb368 2.322 . S
O385 C399 1.257 . S
O386 Tb368 2.349 . S
O386 C370 1.261 . S
O387 Tb369 2.303 . S
O387 C370 1.257 . S
C388 O378 1.236 . S
C388 O379 1.257 . S
O389 Tb368 2.415 . S
O389 C377 1.239 . S
O390 Tb368 2.399 . S
O390 C377 1.263 . S
C391 O380 1.261 . S
C391 O381 1.257 . S
C392 C395 1.358 . S
C392 C396 1.332 . S
C392 C398 1.504 . S
C393 C394 1.373 . S
C393 C397 1.308 . S
C394 C393 1.373 . S
C394 C395 1.429 . S
C394 H404 0.932 . S
C395 C392 1.358 . S
C395 C394 1.429 . S
C395 H405 0.930 . S
C396 C392 1.332 . S
C396 C397 1.394 . S
C396 H406 0.932 . S
C397 C393 1.308 . S
C397 C396 1.394 . S
C397 H407 0.929 . S
C398 Tb369 2.764 . S
C398 O382 1.239 . S
C398 O383 1.263 . S
C398 C392 1.504 . S
C399 O384 1.236 . S
C399 O385 1.257 . S
H400 C373 0.932 . S
H401 C374 0.930 . S
H402 C375 0.932 . S
H403 C376 0.929 . S
H404 C394 0.932 . S
H405 C395 0.930 . S
H406 C396 0.932 . S
H407 C397 0.929 . S
Tb408 C417 2.764 . S
Tb408 O418 2.325 . S
Tb408 O421 2.303 . S
Tb408 O425 2.322 1_455 S
Tb408 O426 2.349 . S
Tb408 O429 2.415 . S
Tb408 O430 2.399 . S
Tb409 O419 2.322 1_655 S
Tb409 O420 2.349 1_655 S
Tb409 O422 2.415 . S
Tb409 O423 2.399 . S
Tb409 O424 2.325 . S
Tb409 O427 2.303 1_655 S
Tb409 C438 2.764 . S
C410 O426 1.261 . S
C410 O427 1.257 . S
C411 C414 1.358 . S
C411 C415 1.332 . S
C411 C417 1.504 . S
C412 C413 1.373 . S
C412 C416 1.308 . S
C413 C412 1.373 . S
C413 C414 1.429 . S
C413 H440 0.932 . S
C414 C411 1.358 . S
C414 C413 1.429 . S
C414 H441 0.930 . S
C415 C411 1.332 . S
C415 C416 1.394 . S
C415 H442 0.932 . S
C416 C412 1.308 . S
C416 C415 1.394 . S
C416 H443 0.929 . S
C417 Tb408 2.764 . S
C417 C411 1.504 . S
C417 O429 1.239 . S
C417 O430 1.263 . S
O418 Tb408 2.325 . S
O418 C428 1.236 . S
O419 Tb409 2.322 1_455 S
O419 C428 1.257 . S
O420 Tb409 2.349 1_455 S
O420 C431 1.261 . S
O421 Tb408 2.303 . S
O421 C431 1.257 . S
O422 Tb409 2.415 . S
O422 C438 1.239 . S
O423 Tb409 2.399 . S
O423 C438 1.263 . S
O424 Tb409 2.325 . S
O424 C439 1.236 . S
O425 Tb408 2.322 1_655 S
O425 C439 1.257 . S
O426 Tb408 2.349 . S
O426 C410 1.261 . S
O427 Tb409 2.303 1_455 S
O427 C410 1.257 . S
C428 O418 1.236 . S
C428 O419 1.257 . S
O429 Tb408 2.415 . S
O429 C417 1.239 . S
O430 Tb408 2.399 . S
O430 C417 1.263 . S
C431 O420 1.261 . S
C431 O421 1.257 . S
C432 C435 1.358 . S
C432 C436 1.332 . S
C432 C438 1.504 . S
C433 C434 1.373 1_554 S
C433 C437 1.308 1_554 S
C434 C433 1.373 1_556 S
C434 C435 1.429 . S
C434 H444 0.932 . S
C435 C432 1.358 . S
C435 C434 1.429 . S
C435 H445 0.930 . S
C436 C432 1.332 . S
C436 C437 1.394 . S
C436 H446 0.932 . S
C437 C433 1.308 1_556 S
C437 C436 1.394 . S
C437 H447 0.929 1_556 S
C438 Tb409 2.764 . S
C438 O422 1.239 . S
C438 O423 1.263 . S
C438 C432 1.504 . S
C439 O424 1.236 . S
C439 O425 1.257 . S
H440 C413 0.932 . S
H441 C414 0.930 . S
H442 C415 0.932 . S
H443 C416 0.929 . S
H444 C434 0.932 . S
H445 C435 0.930 . S
H446 C436 0.932 . S
H447 C437 0.929 1_554 S
H448 C460 0.930 . S
H449 C462 0.930 . S
H450 C463 0.930 . S
H451 C467 0.959 . S
H452 C467 0.959 . S
H453 C467 0.961 . S
H454 C468 0.960 . S
H455 C468 0.961 . S
H456 C468 0.959 . S
H457 C471 0.929 . S
H458 C472 0.931 . S
H459 C474 0.930 . S
C460 H448 0.930 . S
C460 C461 1.399 1_545 S
C460 C465 1.399 . S
C461 C460 1.399 1_565 S
C461 C462 1.376 . S
C462 H449 0.930 . S
C462 C461 1.376 . S
C462 C463 1.388 . S
C463 H450 0.930 . S
C463 C462 1.388 . S
C463 C464 1.390 . S
C464 C463 1.390 . S
C464 C465 1.394 1_565 S
C464 C470 1.465 . S
C465 C460 1.399 . S
C465 C464 1.394 1_545 S
C465 C466 1.516 . S
C466 C465 1.516 . S
C466 C467 1.502 . S
C466 C468 1.561 . S
C466 C469 1.526 . S
C467 H451 0.959 . S
C467 H452 0.959 . S
C467 H453 0.961 . S
C467 C466 1.502 . S
C468 H454 0.960 . S
C468 H455 0.961 . S
C468 H456 0.959 . S
C468 C466 1.561 . S
C469 C466 1.526 . S
C469 C470 1.396 1_545 S
C469 C474 1.390 . S
C470 C464 1.465 . S
C470 C469 1.396 1_565 S
C470 C471 1.399 . S
C471 H457 0.929 . S
C471 C470 1.399 . S
C471 C472 1.385 . S
C472 H458 0.931 . S
C472 C471 1.385 . S
C472 C473 1.389 . S
C473 C472 1.389 . S
C473 C474 1.387 1_565 S
C474 H459 0.930 . S
C474 C469 1.390 . S
C474 C473 1.387 1_545 S
H475 C487 0.930 . S
H476 C489 0.930 . S
H477 C490 0.930 . S
H478 C494 0.959 . S
H479 C494 0.959 . S
H480 C494 0.961 . S
H481 C495 0.960 . S
H482 C495 0.961 . S
H483 C495 0.959 . S
H484 C498 0.929 . S
H485 C499 0.931 . S
H486 C501 0.930 . S
C487 H475 0.930 . S
C487 C488 1.399 . S
C487 C492 1.399 . S
C488 C487 1.399 . S
C488 C489 1.376 . S
C489 H476 0.930 . S
C489 C488 1.376 . S
C489 C490 1.388 . S
C490 H477 0.930 . S
C490 C489 1.388 . S
C490 C491 1.390 . S
C491 C490 1.390 . S
C491 C492 1.394 . S
C491 C497 1.465 . S
C492 C487 1.399 . S
C492 C491 1.394 . S
C492 C493 1.516 . S
C493 C492 1.516 . S
C493 C494 1.502 . S
C493 C495 1.561 . S
C493 C496 1.526 . S
C494 H478 0.959 . S
C494 H479 0.959 . S
C494 H480 0.961 . S
C494 C493 1.502 . S
C495 H481 0.960 . S
C495 H482 0.961 . S
C495 H483 0.959 . S
C495 C493 1.561 . S
C496 C493 1.526 . S
C496 C497 1.396 . S
C496 C501 1.390 . S
C497 C491 1.465 . S
C497 C496 1.396 . S
C497 C498 1.399 . S
C498 H484 0.929 . S
C498 C497 1.399 . S
C498 C499 1.385 . S
C499 H485 0.931 . S
C499 C498 1.385 . S
C499 C500 1.389 . S
C500 C499 1.389 . S
C500 C501 1.387 . S
C501 H486 0.930 . S
C501 C496 1.390 . S
C501 C500 1.387 . S
H502 C514 0.930 . S
H503 C516 0.930 . S
H504 C517 0.930 . S
H505 C521 0.959 . S
H506 C521 0.959 . S
H507 C521 0.961 . S
H508 C522 0.960 . S
H509 C522 0.961 . S
H510 C522 0.959 . S
H511 C525 0.929 . S
H512 C526 0.931 . S
H513 C528 0.930 . S
C514 H502 0.930 . S
C514 C515 1.399 . S
C514 C519 1.399 . S
C515 C514 1.399 . S
C515 C516 1.376 . S
C516 H503 0.930 . S
C516 C515 1.376 . S
C516 C517 1.388 . S
C517 H504 0.930 . S
C517 C516 1.388 . S
C517 C518 1.390 . S
C518 C517 1.390 . S
C518 C519 1.394 . S
C518 C524 1.465 . S
C519 C514 1.399 . S
C519 C518 1.394 . S
C519 C520 1.516 . S
C520 C519 1.516 . S
C520 C521 1.502 . S
C520 C522 1.561 . S
C520 C523 1.526 . S
C521 H505 0.959 . S
C521 H506 0.959 . S
C521 H507 0.961 . S
C521 C520 1.502 . S
C522 H508 0.960 . S
C522 H509 0.961 . S
C522 H510 0.959 . S
C522 C520 1.561 . S
C523 C520 1.526 . S
C523 C524 1.396 . S
C523 C528 1.390 . S
C524 C518 1.465 . S
C524 C523 1.396 . S
C524 C525 1.399 . S
C525 H511 0.929 . S
C525 C524 1.399 . S
C525 C526 1.385 . S
C526 H512 0.931 . S
C526 C525 1.385 . S
C526 C527 1.389 . S
C527 C526 1.389 . S
C527 C528 1.387 . S
C528 H513 0.930 . S
C528 C523 1.390 . S
C528 C527 1.387 . S
H529 C541 0.930 . S
H530 C543 0.930 . S
H531 C544 0.930 1_655 S
H532 C548 0.959 . S
H533 C548 0.959 . S
H534 C548 0.961 . S
H535 C549 0.960 . S
H536 C549 0.961 . S
H537 C549 0.959 . S
H538 C552 0.929 . S
H539 C553 0.931 . S
H540 C555 0.930 . S
C541 H529 0.930 . S
C541 C542 1.399 . S
C541 C546 1.399 . S
C542 C541 1.399 . S
C542 C543 1.376 . S
C543 H530 0.930 . S
C543 C542 1.376 . S
C543 C544 1.388 . S
C544 H531 0.930 1_455 S
C544 C543 1.388 . S
C544 C545 1.390 . S
C545 C544 1.390 . S
C545 C546 1.394 . S
C545 C551 1.465 . S
C546 C541 1.399 . S
C546 C545 1.394 . S
C546 C547 1.516 . S
C547 C546 1.516 . S
C547 C548 1.502 . S
C547 C549 1.561 . S
C547 C550 1.526 . S
C548 H532 0.959 . S
C548 H533 0.959 . S
C548 H534 0.961 . S
C548 C547 1.502 . S
C549 H535 0.960 . S
C549 H536 0.961 . S
C549 H537 0.959 . S
C549 C547 1.561 . S
C550 C547 1.526 . S
C550 C551 1.396 . S
C550 C555 1.390 . S
C551 C545 1.465 . S
C551 C550 1.396 . S
C551 C552 1.399 1_455 S
C552 H538 0.929 . S
C552 C551 1.399 1_655 S
C552 C553 1.385 . S
C553 H539 0.931 . S
C553 C552 1.385 . S
C553 C554 1.389 1_655 S
C554 C553 1.389 1_455 S
C554 C555 1.387 . S
C555 H540 0.930 . S
C555 C550 1.390 . S
C555 C554 1.387 . S
H556 C568 0.930 . S
H557 C570 0.930 . S
H558 C571 0.930 . S
H559 C575 0.959 . S
H560 C575 0.959 . S
H561 C575 0.961 . S
H562 C576 0.960 . S
H563 C576 0.961 . S
H564 C576 0.959 . S
H565 C579 0.929 . S
H566 C580 0.931 . S
H567 C582 0.930 . S
C568 H556 0.930 . S
C568 C569 1.399 1_565 S
C568 C573 1.399 . S
C569 C568 1.399 1_545 S
C569 C570 1.376 . S
C570 H557 0.930 . S
C570 C569 1.376 . S
C570 C571 1.388 . S
C571 H558 0.930 . S
C571 C570 1.388 . S
C571 C572 1.390 . S
C572 C571 1.390 . S
C572 C573 1.394 1_545 S
C572 C578 1.465 . S
C573 C568 1.399 . S
C573 C572 1.394 1_565 S
C573 C574 1.516 . S
C574 C573 1.516 . S
C574 C575 1.502 . S
C574 C576 1.561 . S
C574 C577 1.526 . S
C575 H559 0.959 . S
C575 H560 0.959 . S
C575 H561 0.961 . S
C575 C574 1.502 . S
C576 H562 0.960 . S
C576 H563 0.961 . S
C576 H564 0.959 . S
C576 C574 1.561 . S
C577 C574 1.526 . S
C577 C578 1.396 1_565 S
C577 C582 1.390 1_554 S
C578 C572 1.465 . S
C578 C577 1.396 1_545 S
C578 C579 1.399 . S
C579 H565 0.929 . S
C579 C578 1.399 . S
C579 C580 1.385 1_554 S
C580 H566 0.931 . S
C580 C579 1.385 1_556 S
C580 C581 1.389 . S
C581 C580 1.389 . S
C581 C582 1.387 1_545 S
C582 H567 0.930 . S
C582 C577 1.390 1_556 S
C582 C581 1.387 1_565 S
H583 C595 0.930 . S
H584 C597 0.930 . S
H585 C598 0.930 . S
H586 C602 0.959 . S
H587 C602 0.959 . S
H588 C602 0.961 . S
H589 C603 0.961 . S
H590 C603 0.961 . S
H591 C603 0.959 1_556 S
H592 C606 0.929 . S
H593 C607 0.931 . S
H594 C609 0.930 . S
C595 H583 0.930 . S
C595 C596 1.399 . S
C595 C600 1.399 . S
C596 C595 1.399 . S
C596 C597 1.376 . S
C597 H584 0.930 . S
C597 C596 1.376 . S
C597 C598 1.388 . S
C598 H585 0.930 . S
C598 C597 1.388 . S
C598 C599 1.390 . S
C599 C598 1.390 . S
C599 C600 1.394 . S
C599 C605 1.465 . S
C600 C595 1.399 . S
C600 C599 1.394 . S
C600 C601 1.516 . S
C601 C600 1.516 . S
C601 C602 1.502 . S
C601 C603 1.561 1_556 S
C601 C604 1.526 . S
C602 H586 0.959 . S
C602 H587 0.959 . S
C602 H588 0.961 . S
C602 C601 1.502 . S
C603 H589 0.961 . S
C603 H590 0.961 . S
C603 H591 0.959 1_554 S
C603 C601 1.561 1_554 S
C604 C601 1.526 . S
C604 C605 1.396 . S
C604 C609 1.390 . S
C605 C599 1.465 . S
C605 C604 1.396 . S
C605 C606 1.399 . S
C606 H592 0.929 . S
C606 C605 1.399 . S
C606 C607 1.385 . S
C607 H593 0.931 . S
C607 C606 1.385 . S
C607 C608 1.389 . S
C608 C607 1.389 . S
C608 C609 1.387 . S
C609 H594 0.930 . S
C609 C604 1.390 . S
C609 C608 1.387 . S
H610 C622 0.930 . S
H611 C624 0.930 . S
H612 C625 0.930 . S
H613 C629 0.959 . S
H614 C629 0.959 . S
H615 C629 0.961 . S
H616 C630 0.960 . S
H617 C630 0.961 . S
H618 C630 0.959 . S
H619 C633 0.929 . S
H620 C634 0.931 . S
H621 C636 0.930 . S
C622 H610 0.930 . S
C622 C623 1.399 . S
C622 C627 1.399 . S
C623 C622 1.399 . S
C623 C624 1.376 . S
C624 H611 0.930 . S
C624 C623 1.376 . S
C624 C625 1.388 . S
C625 H612 0.930 . S
C625 C624 1.388 . S
C625 C626 1.390 . S
C626 C625 1.390 . S
C626 C627 1.394 . S
C626 C632 1.465 . S
C627 C622 1.399 . S
C627 C626 1.394 . S
C627 C628 1.516 . S
C628 C627 1.516 . S
C628 C629 1.502 . S
C628 C630 1.561 . S
C628 C631 1.526 . S
C629 H613 0.959 . S
C629 H614 0.959 . S
C629 H615 0.961 . S
C629 C628 1.502 . S
C630 H616 0.960 . S
C630 H617 0.961 . S
C630 H618 0.959 . S
C630 C628 1.561 . S
C631 C628 1.526 . S
C631 C632 1.396 . S
C631 C636 1.390 1_554 S
C632 C626 1.465 . S
C632 C631 1.396 . S
C632 C633 1.399 . S
C633 H619 0.929 . S
C633 C632 1.399 . S
C633 C634 1.385 1_554 S
C634 H620 0.931 . S
C634 C633 1.385 1_556 S
C634 C635 1.389 . S
C635 C634 1.389 . S
C635 C636 1.387 . S
C636 H621 0.930 . S
C636 C631 1.390 1_556 S
C636 C635 1.387 . S
H637 C649 0.930 . S
H638 C651 0.933 . S
H639 C652 0.930 . S
H640 C656 0.965 . S
H641 C656 0.941 1_556 S
H642 C656 0.968 . S
H643 C657 0.953 1_655 S
H644 C657 0.956 1_656 S
H645 C657 0.995 . S
H646 C660 0.929 . S
H647 C661 0.931 . S
H648 C663 0.930 . S
C649 H637 0.930 . S
C649 C650 1.399 . S
C649 C654 1.399 . S
C650 C649 1.399 . S
C650 C651 1.376 . S
C651 H638 0.933 . S
C651 C650 1.376 . S
C651 C652 1.388 1_655 S
C652 H639 0.930 . S
C652 C651 1.388 1_455 S
C652 C653 1.390 1_455 S
C653 C652 1.390 1_655 S
C653 C654 1.394 . S
C653 C659 1.463 1_655 S
C654 C649 1.399 . S
C654 C653 1.394 . S
C654 C655 1.516 . S
C655 C654 1.516 . S
C655 C656 1.508 . S
C655 C657 1.537 1_655 S
C655 C658 1.526 1_554 S
C656 H640 0.965 . S
C656 H641 0.941 1_554 S
C656 H642 0.968 . S
C656 C655 1.508 . S
C657 H643 0.953 1_455 S
C657 H644 0.956 1_454 S
C657 H645 0.995 . S
C657 C655 1.537 1_455 S
C658 C655 1.526 1_556 S
C658 C659 1.392 1_656 S
C658 C663 1.390 . S
C659 C653 1.463 1_455 S
C659 C658 1.392 1_454 S
C659 C660 1.404 . S
C660 H646 0.929 . S
C660 C659 1.404 . S
C660 C661 1.385 1_554 S
C661 H647 0.931 . S
C661 C660 1.385 1_556 S
C661 C662 1.389 . S
C662 C661 1.389 . S
C662 C663 1.387 1_455 S
C663 H648 0.930 . S
C663 C658 1.390 . S
C663 C662 1.387 1_655 S
H664 C676 0.930 . S
H665 C678 0.930 . S
H666 C679 0.930 . S
H667 C683 0.959 1_455 S
H668 C683 0.959 . S
H669 C683 0.961 . S
H670 C684 0.960 . S
H671 C684 0.961 . S
H672 C684 0.959 . S
H673 C687 0.929 . S
H674 C688 0.931 1_455 S
H675 C690 0.930 . S
C676 H664 0.930 . S
C676 C677 1.399 . S
C676 C681 1.399 . S
C677 C676 1.399 . S
C677 C678 1.376 . S
C678 H665 0.930 . S
C678 C677 1.376 . S
C678 C679 1.388 . S
C679 H666 0.930 . S
C679 C678 1.388 . S
C679 C680 1.390 . S
C680 C679 1.390 . S
C680 C681 1.394 . S
C680 C686 1.465 . S
C681 C676 1.399 . S
C681 C680 1.394 . S
C681 C682 1.516 1_455 S
C682 C681 1.516 1_655 S
C682 C683 1.502 . S
C682 C684 1.561 . S
C682 C685 1.526 . S
C683 H667 0.959 1_655 S
C683 H668 0.959 . S
C683 H669 0.961 . S
C683 C682 1.502 . S
C684 H670 0.960 . S
C684 H671 0.961 . S
C684 H672 0.959 . S
C684 C682 1.561 . S
C685 C682 1.526 . S
C685 C686 1.396 1_655 S
C685 C690 1.390 . S
C686 C680 1.465 . S
C686 C685 1.396 1_455 S
C686 C687 1.399 . S
C687 H673 0.929 . S
C687 C686 1.399 . S
C687 C688 1.385 1_455 S
C688 H674 0.931 1_655 S
C688 C687 1.385 1_655 S
C688 C689 1.389 . S
C689 C688 1.389 . S
C689 C690 1.387 . S
C690 H675 0.930 . S
C690 C685 1.390 . S
C690 C689 1.387 . S
H691 C703 0.930 . S
H692 C705 0.930 . S
H693 C706 0.930 . S
H694 C710 0.959 . S
H695 C710 0.959 . S
H696 C710 0.961 . S
H697 C711 0.960 . S
H698 C711 0.961 . S
H699 C711 0.959 . S
H700 C714 0.929 . S
H701 C715 0.931 . S
H702 C717 0.930 . S
C703 H691 0.930 . S
C703 C704 1.399 . S
C703 C708 1.399 1_545 S
C704 C703 1.399 . S
C704 C705 1.376 1_545 S
C705 H692 0.930 . S
C705 C704 1.376 1_565 S
C705 C706 1.388 . S
C706 H693 0.930 . S
C706 C705 1.388 . S
C706 C707 1.390 . S
C707 C706 1.390 . S
C707 C708 1.394 . S
C707 C713 1.465 . S
C708 C703 1.399 1_565 S
C708 C707 1.394 . S
C708 C709 1.516 1_565 S
C709 C708 1.516 1_545 S
C709 C710 1.501 1_545 S
C709 C711 1.565 . S
C709 C712 1.524 1_545 S
C710 H694 0.959 . S
C710 H695 0.959 . S
C710 H696 0.961 . S
C710 C709 1.501 1_565 S
C711 H697 0.960 . S
C711 H698 0.961 . S
C711 H699 0.959 . S
C711 C709 1.565 . S
C712 C709 1.524 1_565 S
C712 C713 1.396 . S
C712 C717 1.390 . S
C713 C707 1.465 . S
C713 C712 1.396 . S
C713 C714 1.399 . S
C714 H700 0.929 . S
C714 C713 1.399 . S
C714 C715 1.385 . S
C715 H701 0.931 . S
C715 C714 1.385 . S
C715 C716 1.389 . S
C716 C715 1.389 . S
C716 C717 1.387 . S
C717 H702 0.930 . S
C717 C712 1.390 . S
C717 C716 1.387 . S
H718 C730 0.930 . S
H719 C732 0.930 . S
H720 C733 0.930 . S
H721 C737 0.959 . S
H722 C737 0.959 . S
H723 C737 0.961 . S
H724 C738 0.960 . S
H725 C738 0.961 . S
H726 C738 0.959 . S
H727 C741 0.929 . S
H728 C742 0.931 . S
H729 C744 0.930 . S
C730 H718 0.930 . S
C730 C731 1.399 . S
C730 C735 1.399 . S
C731 C730 1.399 . S
C731 C732 1.376 . S
C732 H719 0.930 . S
C732 C731 1.376 . S
C732 C733 1.388 . S
C733 H720 0.930 . S
C733 C732 1.388 . S
C733 C734 1.390 . S
C734 C733 1.390 . S
C734 C735 1.394 . S
C734 C740 1.465 . S
C735 C730 1.399 . S
C735 C734 1.394 . S
C735 C736 1.516 . S
C736 C735 1.516 . S
C736 C737 1.502 . S
C736 C738 1.561 . S
C736 C739 1.526 . S
C737 H721 0.959 . S
C737 H722 0.959 . S
C737 H723 0.961 . S
C737 C736 1.502 . S
C738 H724 0.960 . S
C738 H725 0.961 . S
C738 H726 0.959 . S
C738 C736 1.561 . S
C739 C736 1.526 . S
C739 C740 1.396 . S
C739 C744 1.390 . S
C740 C734 1.465 . S
C740 C739 1.396 . S
C740 C741 1.399 . S
C741 H727 0.929 . S
C741 C740 1.399 . S
C741 C742 1.385 . S
C742 H728 0.931 . S
C742 C741 1.385 . S
C742 C743 1.389 . S
C743 C742 1.389 . S
C743 C744 1.387 . S
C744 H729 0.930 . S
C744 C739 1.390 . S
C744 C743 1.387 . S
H745 C757 0.930 . S
H746 C759 0.930 . S
H747 C760 0.930 . S
H748 C764 0.959 . S
H749 C764 0.959 . S
H750 C764 0.961 . S
H751 C765 0.960 . S
H752 C765 0.961 . S
H753 C765 0.959 . S
H754 C768 0.929 . S
H755 C769 0.931 . S
H756 C771 0.930 . S
C757 H745 0.930 . S
C757 C758 1.399 . S
C757 C762 1.399 . S
C758 C757 1.399 . S
C758 C759 1.376 . S
C759 H746 0.930 . S
C759 C758 1.376 . S
C759 C760 1.388 . S
C760 H747 0.930 . S
C760 C759 1.388 . S
C760 C761 1.390 . S
C761 C760 1.390 . S
C761 C762 1.394 . S
C761 C767 1.465 . S
C762 C757 1.399 . S
C762 C761 1.394 . S
C762 C763 1.516 . S
C763 C762 1.516 . S
C763 C764 1.502 . S
C763 C765 1.561 . S
C763 C766 1.526 . S
C764 H748 0.959 . S
C764 H749 0.959 . S
C764 H750 0.961 . S
C764 C763 1.502 . S
C765 H751 0.960 . S
C765 H752 0.961 . S
C765 H753 0.959 . S
C765 C763 1.561 . S
C766 C763 1.526 . S
C766 C767 1.396 . S
C766 C771 1.390 . S
C767 C761 1.465 . S
C767 C766 1.396 . S
C767 C768 1.399 . S
C768 H754 0.929 . S
C768 C767 1.399 . S
C768 C769 1.385 . S
C769 H755 0.931 . S
C769 C768 1.385 . S
C769 C770 1.389 . S
C770 C769 1.389 . S
C770 C771 1.387 . S
C771 H756 0.930 . S
C771 C766 1.390 . S
C771 C770 1.387 . S
H772 C784 0.930 1_455 S
H773 C786 0.930 . S
H774 C787 0.930 . S
H775 C791 0.959 . S
H776 C791 0.959 1_556 S
H777 C791 0.961 . S
H778 C792 0.960 . S
H779 C792 0.961 . S
H780 C792 0.949 1_655 S
H781 C795 0.929 1_655 S
H782 C796 0.931 . S
H783 C798 0.930 . S
C784 H772 0.930 1_655 S
C784 C785 1.399 . S
C784 C789 1.399 1_655 S
C785 C784 1.399 . S
C785 C786 1.376 . S
C786 H773 0.930 . S
C786 C785 1.376 . S
C786 C787 1.388 . S
C787 H774 0.930 . S
C787 C786 1.388 . S
C787 C788 1.390 . S
C788 C787 1.390 . S
C788 C789 1.394 1_655 S
C788 C794 1.465 1_655 S
C789 C784 1.399 1_455 S
C789 C788 1.394 1_455 S
C789 C790 1.516 . S
C790 C789 1.516 . S
C790 C791 1.502 . S
C790 C792 1.561 1_554 S
C790 C793 1.526 . S
C791 H775 0.959 . S
C791 H776 0.959 1_554 S
C791 H777 0.961 . S
C791 C790 1.502 . S
C792 H778 0.960 . S
C792 H779 0.961 . S
C792 H780 0.949 1_455 S
C792 C790 1.561 1_556 S
C793 C790 1.526 . S
C793 C794 1.396 . S
C793 C798 1.390 1_554 S
C794 C788 1.465 1_455 S
C794 C793 1.396 . S
C794 C795 1.399 . S
C795 H781 0.929 1_455 S
C795 C794 1.399 . S
C795 C796 1.385 . S
C796 H782 0.931 . S
C796 C795 1.385 . S
C796 C797 1.389 1_554 S
C797 C796 1.389 1_556 S
C797 C798 1.387 . S
C798 H783 0.930 . S
C798 C793 1.390 1_556 S
C798 C797 1.387 . S
H799 C811 0.930 . S
H800 C813 0.930 . S
H801 C814 0.930 . S
H802 C818 0.959 . S
H803 C818 0.959 1_556 S
H804 C818 0.961 . S
H805 C819 0.960 . S
H806 C819 0.975 . S
H807 C819 0.959 . S
H808 C822 0.929 . S
H809 C823 0.931 . S
H810 C825 0.930 1_556 S
C811 H799 0.930 . S
C811 C812 1.399 1_545 S
C811 C816 1.399 . S
C812 C811 1.399 1_565 S
C812 C813 1.376 . S
C813 H800 0.930 . S
C813 C812 1.376 . S
C813 C814 1.388 . S
C814 H801 0.930 . S
C814 C813 1.388 . S
C814 C815 1.390 1_565 S
C815 C814 1.390 1_545 S
C815 C816 1.394 . S
C815 C821 1.465 . S
C816 C811 1.399 . S
C816 C815 1.394 . S
C816 C817 1.516 . S
C817 C816 1.516 . S
C817 C818 1.502 . S
C817 C819 1.561 1_544 S
C817 C820 1.526 . S
C818 H802 0.959 . S
C818 H803 0.959 1_554 S
C818 H804 0.961 . S
C818 C817 1.502 . S
C819 H805 0.960 . S
C819 H806 0.975 . S
C819 H807 0.959 . S
C819 C817 1.561 1_566 S
C820 C817 1.526 . S
C820 C821 1.396 . S
C820 C825 1.390 . S
C821 C815 1.465 . S
C821 C820 1.396 . S
C821 C822 1.399 . S
C822 H808 0.929 . S
C822 C821 1.399 . S
C822 C823 1.385 . S
C823 H809 0.931 . S
C823 C822 1.385 . S
C823 C824 1.389 . S
C824 C823 1.389 . S
C824 C825 1.387 . S
C825 H810 0.930 1_554 S
C825 C820 1.390 . S
C825 C824 1.387 . S
H826 C838 0.930 . S
H827 C840 0.930 . S
H828 C841 0.930 . S
H829 C845 0.959 . S
H830 C845 0.959 . S
H831 C845 0.961 . S
H832 C846 0.960 . S
H833 C846 0.961 . S
H834 C846 0.959 . S
H835 C849 0.929 . S
H836 C850 0.931 . S
H837 C852 0.930 . S
C838 H826 0.930 . S
C838 C839 1.399 . S
C838 C843 1.399 . S
C839 C838 1.399 . S
C839 C840 1.376 . S
C840 H827 0.930 . S
C840 C839 1.376 . S
C840 C841 1.388 . S
C841 H828 0.930 . S
C841 C840 1.388 . S
C841 C842 1.390 . S
C842 C841 1.390 . S
C842 C843 1.394 . S
C842 C848 1.465 . S
C843 C838 1.399 . S
C843 C842 1.394 . S
C843 C844 1.516 . S
C844 C843 1.516 . S
C844 C845 1.502 . S
C844 C846 1.561 . S
C844 C847 1.526 . S
C845 H829 0.959 . S
C845 H830 0.959 . S
C845 H831 0.961 . S
C845 C844 1.502 . S
C846 H832 0.960 . S
C846 H833 0.961 . S
C846 H834 0.959 . S
C846 C844 1.561 . S
C847 C844 1.526 . S
C847 C848 1.396 . S
C847 C852 1.390 . S
C848 C842 1.465 . S
C848 C847 1.396 . S
C848 C849 1.399 . S
C849 H835 0.929 . S
C849 C848 1.399 . S
C849 C850 1.385 . S
C850 H836 0.931 . S
C850 C849 1.385 . S
C850 C851 1.389 . S
C851 C850 1.389 . S
C851 C852 1.387 . S
C852 H837 0.930 . S
C852 C847 1.390 . S
C852 C851 1.387 . S
H853 C865 0.930 . S
H854 C867 0.930 . S
H855 C868 0.930 . S
H856 C872 0.959 . S
H857 C872 0.959 . S
H858 C872 0.961 . S
H859 C873 0.960 . S
H860 C873 0.961 . S
H861 C873 0.959 . S
H862 C876 0.929 1_556 S
H863 C877 0.931 . S
H864 C879 0.930 . S
C865 H853 0.930 . S
C865 C866 1.399 . S
C865 C870 1.399 . S
C866 C865 1.399 . S
C866 C867 1.376 . S
C867 H854 0.930 . S
C867 C866 1.376 . S
C867 C868 1.388 . S
C868 H855 0.930 . S
C868 C867 1.388 . S
C868 C869 1.390 . S
C869 C868 1.390 . S
C869 C870 1.394 . S
C869 C875 1.465 . S
C870 C865 1.399 . S
C870 C869 1.394 . S
C870 C871 1.516 . S
C871 C870 1.516 . S
C871 C872 1.502 . S
C871 C873 1.561 . S
C871 C874 1.526 . S
C872 H856 0.959 . S
C872 H857 0.959 . S
C872 H858 0.961 . S
C872 C871 1.502 . S
C873 H859 0.960 . S
C873 H860 0.961 . S
C873 H861 0.959 . S
C873 C871 1.561 . S
C874 C871 1.526 . S
C874 C875 1.396 . S
C874 C879 1.390 . S
C875 C869 1.465 . S
C875 C874 1.396 . S
C875 C876 1.399 . S
C876 H862 0.929 1_554 S
C876 C875 1.399 . S
C876 C877 1.385 1_554 S
C877 H863 0.931 . S
C877 C876 1.385 1_556 S
C877 C878 1.389 1_556 S
C878 C877 1.389 1_554 S
C878 C879 1.387 . S
C879 H864 0.930 . S
C879 C874 1.390 . S
C879 C878 1.387 . S
H880 C892 0.930 . S
H881 C894 0.930 . S
H882 C895 0.930 . S
H883 C899 0.959 . S
H884 C899 0.959 1_554 S
H885 C899 0.961 1_554 S
H886 C900 0.960 . S
H887 C900 0.961 . S
H888 C900 0.965 . S
H889 C903 0.929 . S
H890 C904 0.931 . S
H891 C906 0.930 . S
C892 H880 0.930 . S
C892 C893 1.399 . S
C892 C897 1.399 . S
C893 C892 1.399 . S
C893 C894 1.376 . S
C894 H881 0.930 . S
C894 C893 1.376 . S
C894 C895 1.388 . S
C895 H882 0.930 . S
C895 C894 1.388 . S
C895 C896 1.390 . S
C896 C895 1.390 . S
C896 C897 1.394 . S
C896 C902 1.465 . S
C897 C892 1.399 . S
C897 C896 1.394 . S
C897 C898 1.516 . S
C898 C897 1.516 . S
C898 C899 1.502 . S
C898 C900 1.561 1_556 S
C898 C901 1.526 . S
C899 H883 0.959 . S
C899 H884 0.959 1_556 S
C899 H885 0.961 1_556 S
C899 C898 1.502 . S
C900 H886 0.960 . S
C900 H887 0.961 . S
C900 H888 0.965 . S
C900 C898 1.561 1_554 S
C901 C898 1.526 . S
C901 C902 1.396 . S
C901 C906 1.390 . S
C902 C896 1.465 . S
C902 C901 1.396 . S
C902 C903 1.399 . S
C903 H889 0.929 . S
C903 C902 1.399 . S
C903 C904 1.385 . S
C904 H890 0.931 . S
C904 C903 1.385 . S
C904 C905 1.389 . S
C905 C904 1.389 . S
C905 C906 1.387 . S
C906 H891 0.930 . S
C906 C901 1.390 . S
C906 C905 1.387 . S
H907 C919 0.930 . S
H908 C921 0.930 . S
H909 C922 0.930 . S
H910 C926 0.959 . S
H911 C926 0.959 . S
H912 C926 0.961 . S
H913 C927 0.960 . S
H914 C927 0.961 . S
H915 C927 0.959 . S
H916 C930 0.929 . S
H917 C931 0.931 . S
H918 C933 0.930 . S
C919 H907 0.930 . S
C919 C920 1.381 1_545 S
C919 C924 1.399 . S
C920 C919 1.381 1_565 S
C920 C921 1.397 . S
C921 H908 0.930 . S
C921 C920 1.397 . S
C921 C922 1.388 . S
C922 H909 0.930 . S
C922 C921 1.388 . S
C922 C923 1.390 . S
C923 C922 1.390 . S
C923 C924 1.394 1_565 S
C923 C929 1.465 . S
C924 C919 1.399 . S
C924 C923 1.394 1_545 S
C924 C925 1.516 . S
C925 C924 1.516 . S
C925 C926 1.502 . S
C925 C927 1.561 . S
C925 C928 1.526 . S
C926 H910 0.959 . S
C926 H911 0.959 . S
C926 H912 0.961 . S
C926 C925 1.502 . S
C927 H913 0.960 . S
C927 H914 0.961 . S
C927 H915 0.959 . S
C927 C925 1.561 . S
C928 C925 1.526 . S
C928 C929 1.396 1_545 S
C928 C933 1.390 . S
C929 C923 1.465 . S
C929 C928 1.396 1_565 S
C929 C930 1.399 . S
C930 H916 0.929 . S
C930 C929 1.399 . S
C930 C931 1.385 . S
C931 H917 0.931 . S
C931 C930 1.385 . S
C931 C932 1.389 1_565 S
C932 C931 1.389 1_545 S
C932 C933 1.387 . S
C933 H918 0.930 . S
C933 C928 1.390 . S
C933 C932 1.387 . S
H934 C946 0.930 . S
H935 C948 0.930 . S
H936 C949 0.930 . S
H937 C953 0.959 . S
H938 C953 0.959 . S
H939 C953 0.961 . S
H940 C954 0.960 . S
H941 C954 0.961 . S
H942 C954 0.959 . S
H943 C957 0.929 . S
H944 C958 0.931 . S
H945 C960 0.930 . S
C946 H934 0.930 . S
C946 C947 1.399 . S
C946 C951 1.399 . S
C947 C946 1.399 . S
C947 C948 1.376 . S
C948 H935 0.930 . S
C948 C947 1.376 . S
C948 C949 1.388 . S
C949 H936 0.930 . S
C949 C948 1.388 . S
C949 C950 1.390 . S
C950 C949 1.390 . S
C950 C951 1.394 . S
C950 C956 1.465 . S
C951 C946 1.399 . S
C951 C950 1.394 . S
C951 C952 1.516 . S
C952 C951 1.516 . S
C952 C953 1.502 . S
C952 C954 1.561 . S
C952 C955 1.526 . S
C953 H937 0.959 . S
C953 H938 0.959 . S
C953 H939 0.961 . S
C953 C952 1.502 . S
C954 H940 0.960 . S
C954 H941 0.961 . S
C954 H942 0.959 . S
C954 C952 1.561 . S
C955 C952 1.526 . S
C955 C956 1.396 . S
C955 C960 1.390 . S
C956 C950 1.465 . S
C956 C955 1.396 . S
C956 C957 1.399 . S
C957 H943 0.929 . S
C957 C956 1.399 . S
C957 C958 1.385 . S
C958 H944 0.931 . S
C958 C957 1.385 . S
C958 C959 1.389 . S
C959 C958 1.389 . S
C959 C960 1.387 . S
C960 H945 0.930 . S
C960 C955 1.390 . S
C960 C959 1.387 . S
H961 C973 0.930 . S
H962 C975 0.930 . S
H963 C976 0.930 . S
H964 C980 0.959 . S
H965 C980 0.959 . S
H966 C980 0.961 . S
H967 C981 0.960 . S
H968 C981 0.961 . S
H969 C981 0.959 . S
H970 C984 0.929 . S
H971 C985 0.931 . S
H972 C987 0.930 . S
C973 H961 0.930 . S
C973 C974 1.399 . S
C973 C978 1.399 . S
C974 C973 1.399 . S
C974 C975 1.376 . S
C975 H962 0.930 . S
C975 C974 1.376 . S
C975 C976 1.388 . S
C976 H963 0.930 . S
C976 C975 1.388 . S
C976 C977 1.390 . S
C977 C976 1.390 . S
C977 C978 1.394 . S
C977 C983 1.465 . S
C978 C973 1.399 . S
C978 C977 1.394 . S
C978 C979 1.516 . S
C979 C978 1.516 . S
C979 C980 1.502 . S
C979 C981 1.561 . S
C979 C982 1.526 . S
C980 H964 0.959 . S
C980 H965 0.959 . S
C980 H966 0.961 . S
C980 C979 1.502 . S
C981 H967 0.960 . S
C981 H968 0.961 . S
C981 H969 0.959 . S
C981 C979 1.561 . S
C982 C979 1.526 . S
C982 C983 1.396 . S
C982 C987 1.390 . S
C983 C977 1.465 . S
C983 C982 1.396 . S
C983 C984 1.399 . S
C984 H970 0.929 . S
C984 C983 1.399 . S
C984 C985 1.385 . S
C985 H971 0.931 . S
C985 C984 1.385 . S
C985 C986 1.389 . S
C986 C985 1.389 . S
C986 C987 1.387 . S
C987 H972 0.930 . S
C987 C982 1.390 . S
C987 C986 1.387 . S
H988 C1000 0.930 . S
H989 C1002 0.930 . S
H990 C1003 0.930 . S
H991 C1007 0.959 . S
H992 C1007 0.959 . S
H993 C1007 0.961 . S
H994 C1008 0.960 . S
H995 C1008 0.961 . S
H996 C1008 0.959 . S
H997 C1011 0.929 . S
H998 C1012 0.931 . S
H999 C1014 0.919 1_455 S
C1000 H988 0.930 . S
C1000 C1001 1.399 . S
C1000 C1005 1.399 . S
C1001 C1000 1.399 . S
C1001 C1002 1.376 . S
C1002 H989 0.930 . S
C1002 C1001 1.376 . S
C1002 C1003 1.388 . S
C1003 H990 0.930 . S
C1003 C1002 1.388 . S
C1003 C1004 1.390 . S
C1004 C1003 1.390 . S
C1004 C1005 1.394 . S
C1004 C1010 1.465 . S
C1005 C1000 1.399 . S
C1005 C1004 1.394 . S
C1005 C1006 1.516 . S
C1006 C1005 1.516 . S
C1006 C1007 1.502 1_655 S
C1006 C1008 1.561 . S
C1006 C1009 1.526 . S
C1007 H991 0.959 . S
C1007 H992 0.959 . S
C1007 H993 0.961 . S
C1007 C1006 1.502 1_455 S
C1008 H994 0.960 . S
C1008 H995 0.961 . S
C1008 H996 0.959 . S
C1008 C1006 1.561 . S
C1009 C1006 1.526 . S
C1009 C1010 1.396 . S
C1009 C1014 1.390 . S
C1010 C1004 1.465 . S
C1010 C1009 1.396 . S
C1010 C1011 1.399 . S
C1011 H997 0.929 . S
C1011 C1010 1.399 . S
C1011 C1012 1.385 . S
C1012 H998 0.931 . S
C1012 C1011 1.385 . S
C1012 C1013 1.389 . S
C1013 C1012 1.389 . S
C1013 C1014 1.387 . S
C1014 H999 0.919 1_655 S
C1014 C1009 1.390 . S
C1014 C1013 1.387 . S
H1015 C1027 0.930 . S
H1016 C1029 0.930 . S
H1017 C1030 0.930 . S
H1018 C1034 0.959 . S
H1019 C1034 0.959 . S
H1020 C1034 0.961 . S
H1021 C1035 0.960 . S
H1022 C1035 0.961 . S
H1023 C1035 0.959 . S
H1024 C1038 0.929 . S
H1025 C1039 0.931 . S
H1026 C1041 0.930 . S
C1027 H1015 0.930 . S
C1027 C1028 1.399 1_565 S
C1027 C1032 1.399 . S
C1028 C1027 1.399 1_545 S
C1028 C1029 1.376 . S
C1029 H1016 0.930 . S
C1029 C1028 1.376 . S
C1029 C1030 1.388 . S
C1030 H1017 0.930 . S
C1030 C1029 1.388 . S
C1030 C1031 1.390 . S
C1031 C1030 1.390 . S
C1031 C1032 1.394 1_545 S
C1031 C1037 1.465 . S
C1032 C1027 1.399 . S
C1032 C1031 1.394 1_565 S
C1032 C1033 1.516 . S
C1033 C1032 1.516 . S
C1033 C1034 1.502 . S
C1033 C1035 1.561 . S
C1033 C1036 1.526 . S
C1034 H1018 0.959 . S
C1034 H1019 0.959 . S
C1034 H1020 0.961 . S
C1034 C1033 1.502 . S
C1035 H1021 0.960 . S
C1035 H1022 0.961 . S
C1035 H1023 0.959 . S
C1035 C1033 1.561 . S
C1036 C1033 1.526 . S
C1036 C1037 1.396 1_565 S
C1036 C1041 1.390 . S
C1037 C1031 1.465 . S
C1037 C1036 1.396 1_545 S
C1037 C1038 1.399 . S
C1038 H1024 0.929 . S
C1038 C1037 1.399 . S
C1038 C1039 1.385 . S
C1039 H1025 0.931 . S
C1039 C1038 1.385 . S
C1039 C1040 1.389 1_545 S
C1040 C1039 1.389 1_565 S
C1040 C1041 1.387 . S
C1041 H1026 0.930 . S
C1041 C1036 1.390 . S
C1041 C1040 1.387 . S
H1042 C1054 0.930 . S
H1043 C1056 0.930 . S
H1044 C1057 0.930 . S
H1045 C1061 0.959 . S
H1046 C1061 0.959 . S
H1047 C1061 0.961 . S
H1048 C1062 0.960 . S
H1049 C1062 0.961 . S
H1050 C1062 0.959 . S
H1051 C1065 0.929 . S
H1052 C1066 0.931 . S
H1053 C1068 0.930 . S
C1054 H1042 0.930 . S
C1054 C1055 1.399 . S
C1054 C1059 1.399 . S
C1055 C1054 1.399 . S
C1055 C1056 1.376 . S
C1056 H1043 0.930 . S
C1056 C1055 1.376 . S
C1056 C1057 1.388 . S
C1057 H1044 0.930 . S
C1057 C1056 1.388 . S
C1057 C1058 1.390 . S
C1058 C1057 1.390 . S
C1058 C1059 1.394 . S
C1058 C1064 1.465 . S
C1059 C1054 1.399 . S
C1059 C1058 1.394 . S
C1059 C1060 1.516 . S
C1060 C1059 1.516 . S
C1060 C1061 1.502 . S
C1060 C1062 1.561 . S
C1060 C1063 1.526 . S
C1061 H1045 0.959 . S
C1061 H1046 0.959 . S
C1061 H1047 0.961 . S
C1061 C1060 1.502 . S
C1062 H1048 0.960 . S
C1062 H1049 0.961 . S
C1062 H1050 0.959 . S
C1062 C1060 1.561 . S
C1063 C1060 1.526 . S
C1063 C1064 1.396 . S
C1063 C1068 1.390 . S
C1064 C1058 1.465 . S
C1064 C1063 1.396 . S
C1064 C1065 1.399 . S
C1065 H1051 0.929 . S
C1065 C1064 1.399 . S
C1065 C1066 1.385 . S
C1066 H1052 0.931 . S
C1066 C1065 1.385 . S
C1066 C1067 1.389 . S
C1067 C1066 1.389 . S
C1067 C1068 1.387 . S
C1068 H1053 0.930 . S
C1068 C1063 1.390 . S
C1068 C1067 1.387 . S
H1069 C1081 0.930 . S
H1070 C1083 0.930 . S
H1071 C1084 0.930 . S
H1072 C1088 0.959 . S
H1073 C1088 0.959 . S
H1074 C1088 0.961 . S
H1075 C1089 0.960 . S
H1076 C1089 0.961 . S
H1077 C1089 0.959 . S
H1078 C1092 0.929 . S
H1079 C1093 0.931 . S
H1080 C1095 0.930 . S
C1081 H1069 0.930 . S
C1081 C1082 1.399 . S
C1081 C1086 1.399 . S
C1082 C1081 1.399 . S
C1082 C1083 1.376 . S
C1083 H1070 0.930 . S
C1083 C1082 1.376 . S
C1083 C1084 1.388 . S
C1084 H1071 0.930 . S
C1084 C1083 1.388 . S
C1084 C1085 1.390 . S
C1085 C1084 1.390 . S
C1085 C1086 1.394 . S
C1085 C1091 1.465 . S
C1086 C1081 1.399 . S
C1086 C1085 1.394 . S
C1086 C1087 1.516 . S
C1087 C1086 1.516 . S
C1087 C1088 1.502 . S
C1087 C1089 1.561 . S
C1087 C1090 1.526 . S
C1088 H1072 0.959 . S
C1088 H1073 0.959 . S
C1088 H1074 0.961 . S
C1088 C1087 1.502 . S
C1089 H1075 0.960 . S
C1089 H1076 0.961 . S
C1089 H1077 0.959 . S
C1089 C1087 1.561 . S
C1090 C1087 1.526 . S
C1090 C1091 1.396 . S
C1090 C1095 1.390 . S
C1091 C1085 1.465 . S
C1091 C1090 1.396 . S
C1091 C1092 1.399 . S
C1092 H1078 0.929 . S
C1092 C1091 1.399 . S
C1092 C1093 1.385 . S
C1093 H1079 0.931 . S
C1093 C1092 1.385 . S
C1093 C1094 1.389 . S
C1094 C1093 1.389 . S
C1094 C1095 1.387 . S
C1095 H1080 0.930 . S
C1095 C1090 1.390 . S
C1095 C1094 1.387 . S
C461 C241 2.172 1_565 S
C473 C311 2.332 . S
C500 C351 1.621 . S
C488 C277 1.565 . S
C527 C370 2.402 . S
C515 C169 2.156 . S
C554 C431 1.782 . S
C542 C205 1.647 . S
C581 C290 2.346 . S
C569 C97 2.095 . S
C596 C133 1.615 . S
C608 C330 1.623 . S
C623 C25 2.163 . S
C635 C391 2.425 . S
C650 C61 1.638 . S
C662 C410 1.775 . S
C689 C292 0.699 . S
C677 C211 0.706 . S
C716 C332 0.344 . S
C704 C247 0.423 . S
C743 C388 0.926 . S
C731 C253 1.006 . S
C758 C175 0.407 . S
C770 C412 0.269 . S
C785 C67 0.802 . S
C797 C313 0.682 . S
C824 C353 0.360 . S
C812 C103 0.381 1_565 S
C851 C399 0.977 . S
C839 C109 0.861 . S
C866 C31 0.542 . S
C878 C433 0.300 . S
C893 C181 2.296 . S
C905 C308 2.508 . S
C920 C217 2.816 1_565 S
C932 C348 3.142 . S
C959 C372 1.922 . S
C947 C283 1.893 . S
C986 C428 3.139 . S
C974 C145 2.851 . S
C1001 C37 2.290 . S
C1013 C319 2.533 . S
C1040 C359 3.138 . S
C1028 C73 2.842 . S
C1067 C393 1.963 . S
C1055 C139 1.828 . S
C1082 C1 2.870 . S
C1094 C439 3.120 . S
