# Generated by pormake.
# Topology anh, (6,3)-cn, num edge types: 1
# Building blocks:
#     Node 0, Type 0, BuildingBlock: PAMTUU_clean_sbu_0, # of connection points: 6
#     Node 1, Type 0, BuildingBlock: PAMTUU_clean_sbu_0, # of connection points: 6
#     Node 2, Type 0, BuildingBlock: PAMTUU_clean_sbu_0, # of connection points: 6
#     Node 3, Type 1, BuildingBlock: QEWDON_clean_linker_0, # of connection points: 3
#     Node 4, Type 1, BuildingBlock: QEWDON_clean_linker_0, # of connection points: 3
#     Node 5, Type 1, BuildingBlock: QEWDON_clean_linker_0, # of connection points: 3
#     Node 6, Type 1, BuildingBlock: QEWDON_clean_linker_0, # of connection points: 3
#     Node 7, Type 1, BuildingBlock: QEWDON_clean_linker_0, # of connection points: 3
#     Node 8, Type 1, BuildingBlock: QEWDON_clean_linker_0, # of connection points: 3
#     Edge 9, Type (0, 1), BuildingBlock: XUDNAN_clean_linker_2, # of connection points: 2
#     Edge 10, Type (0, 1), BuildingBlock: XUDNAN_clean_linker_2, # of connection points: 2
#     Edge 11, Type (0, 1), BuildingBlock: XUDNAN_clean_linker_2, # of connection points: 2
#     Edge 12, Type (0, 1), BuildingBlock: XUDNAN_clean_linker_2, # of connection points: 2
#     Edge 13, Type (0, 1), BuildingBlock: XUDNAN_clean_linker_2, # of connection points: 2
#     Edge 14, Type (0, 1), BuildingBlock: XUDNAN_clean_linker_2, # of connection points: 2
#     Edge 15, Type (0, 1), BuildingBlock: XUDNAN_clean_linker_2, # of connection points: 2
#     Edge 16, Type (0, 1), BuildingBlock: XUDNAN_clean_linker_2, # of connection points: 2
#     Edge 17, Type (0, 1), BuildingBlock: XUDNAN_clean_linker_2, # of connection points: 2
#     Edge 18, Type (0, 1), BuildingBlock: XUDNAN_clean_linker_2, # of connection points: 2
#     Edge 19, Type (0, 1), BuildingBlock: XUDNAN_clean_linker_2, # of connection points: 2
#     Edge 20, Type (0, 1), BuildingBlock: XUDNAN_clean_linker_2, # of connection points: 2
#     Edge 21, Type (0, 1), BuildingBlock: XUDNAN_clean_linker_2, # of connection points: 2
#     Edge 22, Type (0, 1), BuildingBlock: XUDNAN_clean_linker_2, # of connection points: 2
#     Edge 23, Type (0, 1), BuildingBlock: XUDNAN_clean_linker_2, # of connection points: 2
#     Edge 24, Type (0, 1), BuildingBlock: XUDNAN_clean_linker_2, # of connection points: 2
#     Edge 25, Type (0, 1), BuildingBlock: XUDNAN_clean_linker_2, # of connection points: 2
#     Edge 26, Type (0, 1), BuildingBlock: XUDNAN_clean_linker_2, # of connection points: 2
# Relax obj value: 0.216
# Max RMSD: 0.137
# Mean RMSD: 0.113
data_MOF--net-anh--node1-PAMTUU_clean_sbu_0--node2-QEWDON_clean_linker_0--edge1-XUDNAN_clean_linker_2
_symmetry_space_group_name_H-M    P1
_symmetry_Int_Tables_number       1
_symmetry_cell_setting            triclinic
loop_
_symmetry_equiv_pos_as_xyz
'x, y, z'
_cell_length_a     32.278932
_cell_length_b     32.288229
_cell_length_c     49.028196
_cell_angle_alpha  96.027205
_cell_angle_beta   94.678736
_cell_angle_gamma 120.13321
loop_
_atom_site_label
_atom_site_type_symbol
_atom_site_fract_x
_atom_site_fract_y
_atom_site_fract_z
_atom_type_partial_charge
Tb0 Tb 0.14407 0.72805 0.14147 0.0
Tb1 Tb 0.20205 0.68092 0.1669 0.0
C2 C 0.17975 0.67456 0.10348 0.0
C3 C 1.0448 0.71738 0.09781 0.0
C4 C 0.96061 0.62849 0.07404 0.0
C5 C 1.00278 0.64533 0.06184 0.0
C6 C 1.04442 0.68954 0.07356 0.0
C7 C 1.00095 0.70328 0.10787 0.0
C8 C 0.95923 0.65923 0.09609 0.0
C9 C 1.09113 0.75222 0.11618 0.0
O10 O 1.08672 0.66184 0.15506 0.0
O11 O 0.1251 0.61883 0.15767 0.0
O12 O 0.16912 0.69922 0.19965 0.0
O13 O 0.16882 0.76315 0.18423 0.0
O14 O 0.21429 0.62286 0.16437 0.0
O15 O 0.24832 0.68125 0.19974 0.0
O16 O 0.26156 0.75819 0.16939 0.0
O17 O 0.22111 0.78594 0.1431 0.0
O18 O 0.14122 0.67499 0.1093 0.0
O19 O 0.21402 0.68387 0.12365 0.0
C20 C 1.08487 0.62046 0.1574 0.0
O21 O 1.09117 0.74768 0.14233 0.0
O22 O 0.13035 0.75687 0.1077 0.0
C23 C 0.16671 0.73871 0.20421 0.0
C24 C 0.2867 0.63674 0.18946 0.0
C25 C 0.36686 0.62396 0.19191 0.0
C26 C 0.328 0.59688 0.20594 0.0
C27 C 0.28845 0.60334 0.20476 0.0
C28 C 0.32517 0.66415 0.17537 0.0
C29 C 0.36512 0.65776 0.17658 0.0
C30 C 0.24328 0.64045 0.18807 0.0
C31 C 0.26194 0.79296 0.1569 0.0
H32 H 1.00474 0.62288 0.04456 0.0
H33 H 1.07726 0.69983 0.06491 0.0
H34 H 0.99988 0.72419 0.1263 0.0
H35 H 0.92655 0.64799 0.10526 0.0
H36 H 0.32755 0.56977 0.21738 0.0
H37 H 0.25876 0.58164 0.21554 0.0
H38 H 0.32412 0.69004 0.16339 0.0
H39 H 0.39459 0.67927 0.16565 0.0
Tb40 Tb 0.62212 0.12265 0.48241 0.0
Tb41 Tb 0.73694 0.18993 0.50101 0.0
C42 C 0.68859 0.16305 0.43681 0.0
C43 C 0.49488 1.03209 0.48578 0.0
C44 C 0.42223 0.95504 0.50727 0.0
C45 C 0.41244 0.98722 0.49482 0.0
C46 C 0.44846 1.02533 0.48417 0.0
C47 C 0.50581 1.00175 0.49943 0.0
C48 C 0.46952 0.96315 0.50993 0.0
C49 C 0.5311 1.07073 0.47291 0.0
O50 O 0.64417 1.06834 0.48944 0.0
O51 O 0.72745 0.11597 0.49456 0.0
O52 O 0.71136 0.15179 0.5354 0.0
O53 O 0.63507 0.13882 0.5274 0.0
O54 O 0.80861 0.22129 0.49269 0.0
O55 O 0.79336 0.24145 0.53231 0.0
O56 O 0.70814 0.23956 0.50866 0.0
O57 O 0.63865 0.19716 0.47754 0.0
O58 O 0.64638 0.13072 0.4424 0.0
O59 O 0.72587 0.19127 0.45645 0.0
C60 C 0.68748 0.07246 0.49244 0.0
O61 O 0.55458 0.1137 0.48817 0.0
O62 O 0.55966 1.06066 0.46015 0.0
C63 C 0.66966 0.13925 0.54349 0.0
C64 C 0.84458 0.30426 0.51062 0.0
C65 C 0.86844 0.40049 0.50825 0.0
C66 C 0.89787 0.39111 0.52635 0.0
C67 C 0.88573 0.34316 0.52769 0.0
C68 C 0.81632 0.31378 0.492 0.0
C69 C 0.82771 0.36108 0.49102 0.0
C70 C 0.82477 0.25396 0.51516 0.0
C71 C 0.6719 0.23864 0.49344 0.0
H72 H 0.37616 0.98141 0.49184 0.0
H73 H 0.43963 1.0487 0.47392 0.0
H74 H 0.54191 1.00708 0.50126 0.0
H75 H 0.47798 0.93888 0.51938 0.0
H76 H 0.92967 0.42064 0.53978 0.0
H77 H 0.90737 0.33644 0.54262 0.0
H78 H 0.78369 0.28438 0.47911 0.0
H79 H 0.80313 0.36636 0.47749 0.0
Tb80 Tb 0.66774 0.58429 0.81352 0.0
Tb81 Tb 0.73503 0.69921 0.83531 0.0
C82 C 0.70635 0.65459 0.77145 0.0
C83 C 0.61792 0.45166 0.80658 0.0
C84 C 0.61791 0.37011 0.8217 0.0
C85 C 0.5831 0.36467 0.80011 0.0
C86 C 0.5831 0.40513 0.79268 0.0
C87 C 0.65267 0.4576 0.82825 0.0
C88 C 0.65275 0.41701 0.83573 0.0
C89 C 0.61661 0.49344 0.79871 0.0
O90 O 0.74381 0.5999 0.81404 0.0
O91 O 0.7885 0.67529 0.84145 0.0
O92 O 0.69844 0.66705 0.86938 0.0
O93 O 0.69137 0.59372 0.85742 0.0
O94 O 0.76298 0.76925 0.82584 0.0
O95 O 0.78066 0.75885 0.86701 0.0
O96 O 0.66068 0.68807 0.82846 0.0
O97 O 0.61254 0.6049 0.82063 0.0
O98 O 0.66777 0.61713 0.7772 0.0
O99 O 0.74136 0.68604 0.79146 0.0
C100 C 0.78588 0.63576 0.8284 0.0
O101 O 0.60815 0.51786 0.81801 0.0
O102 O 0.65156 0.52186 0.78598 0.0
C103 C 0.69058 0.62565 0.87573 0.0
C104 C 0.7574 0.81721 0.86248 0.0
C105 C 0.68485 0.8406 0.86477 0.0
C106 C 0.68941 0.81229 0.88324 0.0
C107 C 0.72522 0.80017 0.8819 0.0
C108 C 0.7574 0.85172 0.84732 0.0
C109 C 0.72103 0.86298 0.84825 0.0
C110 C 0.77918 0.78924 0.8519 0.0
C111 C 0.61709 0.64823 0.82528 0.0
H112 H 0.55651 0.32916 0.78842 0.0
H113 H 0.55604 0.40009 0.77594 0.0
H114 H 0.67965 0.49354 0.83929 0.0
H115 H 0.67996 0.42225 0.85241 0.0
H116 H 0.66191 0.79478 0.89619 0.0
H117 H 0.72421 0.77344 0.8939 0.0
H118 H 0.78179 0.86538 0.83225 0.0
H119 H 0.71838 0.88541 0.83405 0.0
H120 H 0.71708 0.22434 0.22648 0.0
C121 C 0.6826 0.19299 0.21687 0.0
C122 C 0.65288 0.1602 0.23367 0.0
C123 C 0.6692 0.18533 0.18785 0.0
H124 H 0.58612 0.09346 0.23404 0.0
C125 C 0.60821 0.11855 0.22112 0.0
C126 C 0.59118 0.10849 0.19244 0.0
C127 C 0.62213 0.14294 0.17606 0.0
C128 C 0.70632 0.21858 0.16999 0.0
H129 H 0.60958 0.13612 0.15404 0.0
C130 C 0.7464 0.26864 0.1794 0.0
C131 C 0.78184 0.29514 0.16176 0.0
C132 C 0.70352 0.19764 0.14275 0.0
H133 H 0.67615 0.1603 0.13446 0.0
C134 C 0.73678 0.22318 0.12563 0.0
H135 H 0.75038 0.28665 0.20016 0.0
C136 C 0.77498 0.27062 0.13486 0.0
H137 H 0.79922 0.28855 0.12037 0.0
H138 H 0.73314 0.2056 0.10478 0.0
H139 H 0.68979 0.68342 0.55998 0.0
C140 C 0.68884 0.65122 0.55023 0.0
C141 C 0.69543 0.62183 0.5674 0.0
C142 C 0.67788 0.63816 0.52112 0.0
H143 H 0.69658 0.55618 0.56913 0.0
C144 C 0.69215 0.57833 0.55542 0.0
C145 C 0.68238 0.56253 0.52644 0.0
C146 C 0.67513 0.59318 0.50949 0.0
C147 C 0.66475 0.66897 0.50374 0.0
H148 H 0.66781 0.58197 0.48723 0.0
C149 C 0.67946 0.72003 0.51212 0.0
C150 C 0.66171 0.74455 0.49557 0.0
C151 C 0.63302 0.64499 0.4785 0.0
H152 H 0.61908 0.60693 0.47118 0.0
C153 C 0.61672 0.66852 0.46233 0.0
H154 H 0.70395 0.7404 0.5313 0.0
C155 C 0.63056 0.71691 0.47061 0.0
H156 H 0.617 0.733 0.45683 0.0
H157 H 0.59238 0.64862 0.443 0.0
H158 H 0.22376 0.64361 0.89071 0.0
C159 C 0.19177 0.64297 0.88165 0.0
C160 C 0.15988 0.64467 0.8993 0.0
C161 C 0.18243 0.63886 0.85263 0.0
H162 H 1.09253 0.64308 0.90121 0.0
C163 C 0.11778 0.64386 0.88774 0.0
C164 C 1.10591 0.64106 0.85904 0.0
C165 C 0.13881 0.63837 0.84165 0.0
C166 C 0.21595 0.63092 0.83424 0.0
H167 H 0.13031 0.63646 0.81963 0.0
C168 C 0.26552 0.64261 0.84355 0.0
C169 C 0.29259 0.63 0.82551 0.0
C170 C 0.19616 0.60745 0.80657 0.0
H171 H 0.1593 0.59589 0.79817 0.0
C172 C 0.2224 0.5965 0.789 0.0
H173 H 0.2829 0.6608 0.86455 0.0
C174 C 0.26932 0.60742 0.79816 0.0
H175 H 0.28776 0.59838 0.78328 0.0
H176 H 0.20577 0.57865 0.76781 0.0
H177 H 1.01272 0.76098 0.38434 0.0
C178 C 1.04091 0.76357 0.3993 0.0
C179 C 1.08235 0.76616 0.39038 0.0
C180 C 1.03461 0.76143 0.42727 0.0
H181 H 0.15038 0.77098 0.40312 0.0
C182 C 0.11769 0.76749 0.40975 0.0
C183 C 0.11232 0.76654 0.43779 0.0
C184 C 1.07095 0.76387 0.44642 0.0
C185 C 0.98842 0.7517 0.43638 0.0
H186 H 1.06666 0.76293 0.4681 0.0
C187 C 0.96597 0.71462 0.45201 0.0
C188 C 0.92225 0.70372 0.46111 0.0
C189 C 0.96625 0.77801 0.42966 0.0
H190 H 0.98288 0.80684 0.41756 0.0
C191 C 0.92256 0.76748 0.43898 0.0
H192 H 0.98202 0.69308 0.45665 0.0
C193 C 0.90044 0.73031 0.45468 0.0
H194 H 0.86631 0.7219 0.46138 0.0
H195 H 0.90568 0.78796 0.43387 0.0
H196 H 0.49338 0.95141 0.69825 0.0
C197 C 0.50842 0.98145 0.71543 0.0
C198 C 0.54951 1.02591 0.71341 0.0
C199 C 0.48889 0.97496 0.74036 0.0
H200 H 0.60106 0.09876 0.73406 0.0
C201 C 0.57006 1.06409 0.736 0.0
C202 C 0.55004 1.05862 0.7606 0.0
C203 C 0.50942 1.01399 0.76267 0.0
C204 C 0.45125 0.92617 0.74453 0.0
H205 H 0.49428 1.00933 0.78185 0.0
C206 C 0.46021 0.90738 0.76729 0.0
C207 C 0.4283 0.8594 0.77042 0.0
C208 C 0.40865 0.89688 0.72528 0.0
H209 H 0.40105 0.91063 0.70749 0.0
C210 C 0.37581 0.84933 0.72883 0.0
H211 H 0.494 0.92906 0.78163 0.0
C212 C 0.38593 0.83025 0.75109 0.0
H213 H 0.36152 0.79267 0.75285 0.0
H214 H 0.34316 0.82676 0.71385 0.0
H215 H 0.59787 0.51402 0.07352 0.0
C216 C 0.60912 0.48805 0.06843 0.0
C217 C 0.6179 0.47965 0.04138 0.0
C218 C 0.61919 0.46646 0.08949 0.0
H219 H 0.65051 0.44963 0.01623 0.0
C220 C 0.63803 0.45042 0.03596 0.0
C221 C 0.64917 0.42912 0.05679 0.0
C222 C 0.63458 0.43344 0.08266 0.0
C223 C 0.62458 0.48635 0.11922 0.0
H224 H 0.64085 0.41588 0.09879 0.0
C225 C 0.59191 0.49906 0.12894 0.0
C226 C 0.60063 0.5225 0.15656 0.0
C227 C 0.66589 0.497 0.1376 0.0
H228 H 0.69271 0.48929 0.13069 0.0
C229 C 0.67446 0.51976 0.16487 0.0
H230 H 0.5598 0.49052 0.11504 0.0
C231 C 0.64241 0.5328 0.17428 0.0
H232 H 0.65107 0.55194 0.19534 0.0
H233 H 0.70669 0.5283 0.17863 0.0
H234 H 0.41464 0.61778 0.14903 0.0
H235 H 0.41137 0.60965 0.23676 0.0
H236 H 0.47133 0.58378 0.23712 0.0
H237 H 0.42361 0.51578 0.12973 0.0
H238 H 0.46553 0.54147 0.10567 0.0
H239 H 0.42476 0.56274 0.11231 0.0
H240 H 0.49729 0.65109 0.12642 0.0
H241 H 0.53829 0.63022 0.11935 0.0
H242 H 0.54639 0.66432 0.15291 0.0
H243 H 0.52411 0.55059 0.22705 0.0
H244 H 0.57487 0.52109 0.20856 0.0
H245 H 0.54991 0.55707 0.1282 0.0
C246 C 0.42743 0.61175 0.16847 0.0
C247 C 0.40785 0.61519 0.1928 0.0
C248 C 0.42511 0.60632 0.21774 0.0
C249 C 0.45933 0.59184 0.2182 0.0
C250 C 0.47656 0.58713 0.19367 0.0
C251 C 0.46202 0.5977 0.16939 0.0
C252 C 0.48579 0.58883 0.14584 0.0
C253 C 0.44763 0.54989 0.12199 0.0
C254 C 0.51892 0.63646 0.13553 0.0
C255 C 0.51496 0.57054 0.1606 0.0
C256 C 0.50893 0.56976 0.18813 0.0
C257 C 0.53009 0.55206 0.20568 0.0
C258 C 0.55907 0.53555 0.19496 0.0
C259 C 0.56723 0.5374 0.167 0.0
C260 C 0.54442 0.55489 0.14962 0.0
H261 H 0.85476 0.43786 0.4631 0.0
H262 H 0.90343 0.47652 0.55215 0.0
H263 H 0.91151 0.55665 0.55108 0.0
H264 H 0.92951 0.55131 0.44499 0.0
H265 H 0.88377 0.54537 0.41854 0.0
H266 H 0.88216 0.492 0.42731 0.0
H267 H 0.79398 0.4587 0.43723 0.0
H268 H 0.79597 0.51281 0.42918 0.0
H269 H 0.7816 0.49448 0.46229 0.0
H270 H 0.91816 0.63439 0.53926 0.0
H271 H 0.93057 0.70438 0.51689 0.0
H272 H 0.86962 0.61022 0.437 0.0
C273 C 0.86648 0.4627 0.48255 0.0
C274 C 0.87802 0.4505 0.50774 0.0
C275 C 0.89489 0.48508 0.53248 0.0
C276 C 0.89884 0.53041 0.53216 0.0
C277 C 0.88514 0.54023 0.50705 0.0
C278 C 0.86956 0.50729 0.48271 0.0
C279 C 0.85852 0.52669 0.45819 0.0
C280 C 0.89041 0.52901 0.43597 0.0
C281 C 0.80429 0.49636 0.44601 0.0
C282 C 0.8722 0.5767 0.47225 0.0
C283 C 0.88678 0.58376 0.50053 0.0
C284 C 0.90573 0.62894 0.51729 0.0
C285 C 0.91216 0.66832 0.50455 0.0
C286 C 0.89942 0.66185 0.4755 0.0
C287 C 0.87756 0.61527 0.45941 0.0
H288 H 0.62854 0.80615 0.81474 0.0
H289 H 0.63498 0.86596 0.89933 0.0
H290 H 0.55647 0.86107 0.8858 0.0
H291 H 0.58727 0.86942 0.78215 0.0
H292 H 0.54854 0.82102 0.75368 0.0
H293 H 0.60027 0.82253 0.7714 0.0
H294 H 0.5444 0.73504 0.78283 0.0
H295 H 0.49426 0.73456 0.7633 0.0
H296 H 0.49156 0.72313 0.79835 0.0
H297 H 0.48638 0.86364 0.86071 0.0
H298 H 0.43253 0.87406 0.82672 0.0
H299 H 0.46838 0.80566 0.7597 0.0
C300 C 0.61314 0.81788 0.83044 0.0
C301 C 0.63782 0.83731 0.85789 0.0
C302 C 0.61651 0.85144 0.87811 0.0
C303 C 0.57188 0.84832 0.87064 0.0
C304 C 0.54871 0.8296 0.84312 0.0
C305 C 0.56849 0.81403 0.82346 0.0
C306 C 0.53929 0.79946 0.79482 0.0
C307 C 0.5707 0.82995 0.77434 0.0
C308 C 0.51607 0.74481 0.78422 0.0
C309 C 0.5013 0.8118 0.80101 0.0
C310 C 0.50672 0.82846 0.82904 0.0
C311 C 0.48054 0.84896 0.83893 0.0
C312 C 0.44983 0.85447 0.81959 0.0
C313 C 0.44526 0.8389 0.79089 0.0
C314 C 0.46965 0.81553 0.7817 0.0
H315 H 0.90933 0.5663 0.10787 0.0
H316 H 0.91904 0.57691 0.02108 0.0
H317 H 0.84351 0.49699 0.00782 0.0
H318 H 0.83437 0.42287 0.09755 0.0
H319 H 0.80144 0.42721 0.12461 0.0
H320 H 0.86474 0.47233 0.12638 0.0
H321 H 0.84359 0.54012 0.13159 0.0
H322 H 0.78129 0.49516 0.12977 0.0
H323 H 0.79897 0.53725 0.10551 0.0
H324 H 0.75911 0.42836 0.00399 0.0
H325 H 0.67392 0.39619 0.00923 0.0
H326 H 0.71618 0.43602 0.09864 0.0
C327 C 0.89601 0.55111 0.08605 0.0
C328 C 0.91946 0.57787 0.0655 0.0
C329 C 0.90168 0.55683 0.03718 0.0
C330 C 0.85904 0.51115 0.0295 0.0
C331 C 0.83501 0.48673 0.05037 0.0
C332 C 0.85317 0.50619 0.07818 0.0
C333 C 0.81602 0.4797 0.0965 0.0
C334 C 0.82991 0.4486 0.11218 0.0
C335 C 0.80955 0.51517 0.11694 0.0
C336 C 0.77184 0.44785 0.07457 0.0
C337 C 0.78438 0.44907 0.0482 0.0
C338 C 0.74913 0.42745 0.02455 0.0
C339 C 0.70061 0.40977 0.02778 0.0
C340 C 0.68853 0.41756 0.05428 0.0
C341 C 0.72365 0.43085 0.07793 0.0
H342 H 0.34696 0.94503 0.53288 0.0
H343 H 0.40354 0.86291 0.49218 0.0
H344 H 0.32238 0.78986 0.48337 0.0
H345 H 0.23129 0.8309 0.55381 0.0
H346 H 0.19659 0.85897 0.54592 0.0
H347 H 0.25936 0.89599 0.5618 0.0
H348 H 0.27647 0.94639 0.52208 0.0
H349 H 0.21472 0.90942 0.50585 0.0
H350 H 0.2624 0.91598 0.48661 0.0
H351 H 0.23824 0.74018 0.46199 0.0
H352 H 0.16062 0.71719 0.43399 0.0
H353 H 0.15435 0.82992 0.48622 0.0
C354 C 0.34233 0.91074 0.52361 0.0
C355 C 0.38105 0.90952 0.51298 0.0
C356 C 0.37442 0.86457 0.50076 0.0
C357 C 0.32816 0.82275 0.4956 0.0
C358 C 0.28919 0.82645 0.50309 0.0
C359 C 0.29601 0.86912 0.51773 0.0
C360 C 0.24836 0.86778 0.51761 0.0
C361 C 0.23299 0.86311 0.5465 0.0
C362 C 0.25069 0.91246 0.50738 0.0
C363 C 0.21527 0.82137 0.49724 0.0
C364 C 0.2388 0.79674 0.49023 0.0
C365 C 0.21879 0.75798 0.46811 0.0
C366 C 0.17494 0.74545 0.45209 0.0
C367 C 0.15174 0.77182 0.45817 0.0
C368 C 0.17092 0.80849 0.48177 0.0
H369 H 0.54133 0.2812 0.82515 0.0
H370 H 0.69761 0.36103 0.83008 0.0
H371 H 0.69761 0.2845 0.82792 0.0
H372 H 0.53085 0.17348 0.85945 0.0
H373 H 0.47639 0.13193 0.83532 0.0
H374 H 0.48984 0.1927 0.84761 0.0
H375 H 0.48236 0.20636 0.79674 0.0
H376 H 0.46934 0.14626 0.78437 0.0
H377 H 0.5194 0.19765 0.77388 0.0
H378 H 0.67957 0.20175 0.8116 0.0
H379 H 0.64524 0.12081 0.78309 0.0
H380 H 0.50019 0.0931 0.78713 0.0
C381 C 0.57566 0.28258 0.82688 0.0
C382 C 0.6194 0.32685 0.82774 0.0
C383 C 0.66372 0.32756 0.82984 0.0
C384 C 0.66403 0.28416 0.82864 0.0
C385 C 0.6198 0.24055 0.82572 0.0
C386 C 0.57637 0.23951 0.82536 0.0
C387 C 0.53339 0.18829 0.81676 0.0
C388 C 0.50601 0.17056 0.84125 0.0
C389 C 0.49921 0.18447 0.79144 0.0
C390 C 0.55927 0.16142 0.80954 0.0
C391 C 0.60913 0.19179 0.81591 0.0
C392 C 0.64068 0.17722 0.80736 0.0
C393 C 0.62092 0.13136 0.79101 0.0
C394 C 0.57013 0.1009 0.78316 0.0
C395 C 0.53906 0.11527 0.79358 0.0
H396 H 0.61565 0.97109 0.4834 0.0
H397 H 0.77027 1.06974 0.50851 0.0
H398 H 0.78032 1.0002 0.51481 0.0
H399 H 0.6009 0.88531 0.53031 0.0
H400 H 0.5577 0.83215 0.50553 0.0
H401 H 0.56216 0.88966 0.50357 0.0
H402 H 0.57687 0.88333 0.45269 0.0
H403 H 0.57217 0.82569 0.45446 0.0
H404 H 0.62548 0.87424 0.44448 0.0
H405 H 0.77352 0.91563 0.51911 0.0
H406 H 0.75125 0.82943 0.51656 0.0
H407 H 0.6018 0.78419 0.48779 0.0
C408 C 0.65177 0.97834 0.49023 0.0
C409 C 0.69216 1.02746 0.49537 0.0
C410 C 0.73839 1.03361 0.5042 0.0
C411 C 0.74453 0.99378 0.508 0.0
C412 C 0.70429 0.94629 0.50283 0.0
C413 C 0.65872 0.93847 0.49386 0.0
C414 C 0.62156 0.88363 0.48892 0.0
C415 C 0.5833 0.87201 0.50823 0.0
C416 C 0.59759 0.86566 0.45832 0.0
C417 C 0.65301 0.86184 0.49641 0.0
C418 C 0.70069 0.8986 0.50467 0.0
C419 C 0.7361 0.88696 0.51256 0.0
C420 C 0.723 0.83734 0.51134 0.0
C421 C 0.67462 0.79834 0.502 0.0
C422 C 0.63938 0.81199 0.49493 0.0
H423 H 0.87597 0.68566 0.86567 0.0
H424 H 0.80169 0.57593 0.79179 0.0
H425 H 0.87378 0.56807 0.79021 0.0
H426 H 0.99798 0.74244 0.84717 0.0
H427 H 1.02805 0.75145 0.88177 0.0
H428 H 0.97136 0.75 0.87681 0.0
H429 H 0.93436 0.68124 0.90592 0.0
H430 H 0.991 0.68262 0.91103 0.0
H431 H 0.9358 0.62658 0.89633 0.0
H432 H 0.95829 0.57342 0.79595 0.0
H433 H 1.03934 0.58549 0.81096 0.0
H434 H 1.05958 0.68825 0.88267 0.0
C435 C 0.87472 0.66001 0.84905 0.0
C436 C 0.83177 0.63165 0.82866 0.0
C437 C 0.83296 0.59832 0.80773 0.0
C438 C 0.87436 0.59365 0.8066 0.0
C439 C 0.91571 0.62195 0.82679 0.0
C440 C 0.91592 0.65412 0.84791 0.0
C441 C 0.96445 0.67872 0.86773 0.0
C442 C 0.99209 0.73394 0.86841 0.0
C443 C 0.95588 0.66657 0.89699 0.0
C444 C 0.99151 0.6558 0.8545 0.0
C445 C 0.9629 0.62348 0.83068 0.0
C446 C 0.98049 0.59861 0.81471 0.0
C447 C 1.02734 0.60605 0.82335 0.0
C448 C 1.05748 0.63783 0.84819 0.0
C449 C 1.03844 0.6632 0.86368 0.0
H450 H 0.35522 0.83512 0.19031 0.0
H451 H 0.27834 0.86471 0.12582 0.0
H452 H 0.35197 0.94409 0.12632 0.0
H453 H 0.42418 0.95913 0.22863 0.0
H454 H 0.47866 0.95784 0.23791 0.0
H455 H 0.42045 0.90234 0.23204 0.0
H456 H 0.44981 0.86409 0.19517 0.0
H457 H 0.50811 0.91952 0.20094 0.0
H458 H 0.47367 0.89461 0.16647 0.0
H459 H 0.43736 1.02405 0.13382 0.0
H460 H 0.52065 0.09437 0.14932 0.0
H461 H 0.54428 1.01583 0.20937 0.0
C462 C 0.35373 0.85805 0.17614 0.0
C463 C 0.30949 0.84204 0.15786 0.0
C464 C 0.31055 0.87467 0.14009 0.0
C465 C 0.35279 0.92044 0.14017 0.0
C466 C 0.39532 0.93501 0.15832 0.0
C467 C 0.39601 0.90472 0.17614 0.0
C468 C 0.4463 0.92992 0.19412 0.0
C469 C 0.44214 0.93776 0.22501 0.0
C470 C 0.47093 0.90026 0.18887 0.0
C471 C 0.47357 0.97879 0.18376 0.0
C472 C 0.44356 0.98087 0.16293 0.0
C473 C 0.4608 1.02233 0.15017 0.0
C474 C 0.50891 1.0625 0.15905 0.0
C475 C 0.54074 1.06248 0.18089 0.0
C476 C 0.52192 1.01886 0.19297 0.0
H477 H 0.72507 0.33099 0.52925 0.0
H478 H 0.61045 0.2534 0.45847 0.0
H479 H 0.60289 0.32576 0.45768 0.0
H480 H 0.67125 0.39475 0.56315 0.0
H481 H 0.72833 0.45021 0.57563 0.0
H482 H 0.72598 0.39294 0.57016 0.0
H483 H 0.79015 0.42617 0.53765 0.0
H484 H 0.79273 0.48361 0.5429 0.0
H485 H 0.77946 0.45061 0.50824 0.0
H486 H 0.60809 0.41078 0.46454 0.0
H487 H 0.62163 0.49276 0.48003 0.0
H488 H 0.73141 0.51663 0.54718 0.0
C489 C 0.69828 0.32897 0.51351 0.0
C490 C 0.66835 0.28493 0.49382 0.0
C491 C 0.634 0.28544 0.47389 0.0
C492 C 0.62945 0.32699 0.47324 0.0
C493 C 0.65914 0.36934 0.49283 0.0
C494 C 0.69272 0.3704 0.51279 0.0
C495 C 0.71934 0.42016 0.53194 0.0
C496 C 0.71071 0.41415 0.56201 0.0
C497 C 0.77369 0.44674 0.53009 0.0
C498 C 0.69564 0.44681 0.51986 0.0
C499 C 0.66124 0.41699 0.49709 0.0
C500 C 0.63503 0.43395 0.48245 0.0
C501 C 0.64333 0.4814 0.49136 0.0
C502 C 0.67753 0.51297 0.51514 0.0
C503 C 0.70427 0.4945 0.52918 0.0
H504 H 0.51583 0.5808 0.80738 0.0
H505 H 0.61498 0.72688 0.85132 0.0
H506 H 0.54557 0.73666 0.85959 0.0
H507 H 0.43155 0.61015 0.77269 0.0
H508 H 0.37817 0.55293 0.77442 0.0
H509 H 0.43551 0.5565 0.77331 0.0
H510 H 0.42767 0.52048 0.8186 0.0
H511 H 0.37039 0.51703 0.81991 0.0
H512 H 0.41861 0.54961 0.84905 0.0
H513 H 0.46131 0.73162 0.86188 0.0
H514 H 0.37586 0.71234 0.85648 0.0
H515 H 0.33049 0.57066 0.81013 0.0
C516 C 0.5232 0.61501 0.81872 0.0
C517 C 0.57235 0.65311 0.82875 0.0
C518 C 0.57878 0.697 0.84326 0.0
C519 C 0.53906 0.70293 0.84811 0.0
C520 C 0.4915 0.66508 0.83792 0.0
C521 C 0.48353 0.62202 0.82322 0.0
C522 C 0.42891 0.58766 0.81347 0.0
C523 C 0.41788 0.57611 0.78158 0.0
C524 C 0.4103 0.54091 0.826 0.0
C525 C 0.40742 0.6177 0.82495 0.0
C526 C 0.44405 0.66234 0.83913 0.0
C527 C 0.43266 0.69638 0.85097 0.0
C528 C 0.38344 0.68494 0.848 0.0
C529 C 0.34481 0.63975 0.833 0.0
C530 C 0.35807 0.60578 0.82176 0.0
H531 H 1.05105 0.51891 0.14639 0.0
H532 H 1.00639 0.61893 0.17697 0.0
H533 H 0.92891 0.54985 0.18481 0.0
H534 H 0.93012 0.42638 0.10931 0.0
H535 H 0.93655 0.37589 0.11601 0.0
H536 H 0.98941 0.43335 0.11409 0.0
H537 H 1.0276 0.43493 0.16295 0.0
H538 H 0.97461 0.37767 0.16508 0.0
H539 H 0.99475 0.42967 0.19168 0.0
H540 H 0.85289 0.46575 0.1906 0.0
H541 H 0.78685 0.37978 0.18732 0.0
H542 H 0.87738 0.33296 0.15075 0.0
C543 C 1.02523 0.52652 0.15493 0.0
C544 C 1.03648 0.57581 0.16131 0.0
C545 C 1.00007 0.58256 0.17189 0.0
C546 C 0.95546 0.54306 0.17661 0.0
C547 C 0.94581 0.49535 0.1704 0.0
C548 C 0.97952 0.48697 0.15922 0.0
C549 C 0.95878 0.43196 0.15249 0.0
C550 C 0.95341 0.41595 0.12111 0.0
C551 C 0.99086 0.41773 0.16904 0.0
C552 C 0.90884 0.41075 0.16197 0.0
C553 C 0.9021 0.44788 0.17257 0.0
C554 C 0.85843 0.43677 0.18237 0.0
C555 C 0.82078 0.3873 0.18069 0.0
C556 C 0.82567 0.34807 0.169 0.0
C557 C 0.87137 0.36109 0.15996 0.0
H558 H 0.1493 0.70471 0.06069 0.0
H559 H 0.22258 0.62737 0.07939 0.0
H560 H 0.22644 0.61153 0.02918 0.0
H561 H 1.07616 0.62796 -0.00306 0.0
H562 H 1.08178 0.67686 0.97978 0.0
H563 H 1.0852 0.68279 0.01689 0.0
H564 H 0.16886 0.76179 0.02357 0.0
H565 H 0.16568 0.7572 0.98644 0.0
H566 H 0.21698 0.76185 0.00727 0.0
H567 H 0.21683 0.6001 0.9759 0.0
H568 H 0.20115 0.59928 0.92579 0.0
H569 H 0.13947 0.69009 0.943 0.0
C570 C 0.16549 0.68381 0.05417 0.0
C571 C 0.18466 0.6663 0.07383 0.0
C572 C 0.20746 0.64087 0.06465 0.0
C573 C 0.20961 0.63161 0.03618 0.0
C574 C 0.18949 0.64877 0.01727 0.0
C575 C 0.16838 0.67487 0.02603 0.0
C576 C 0.15038 0.69042 0.00184 0.0
C577 C 1.09511 0.66816 -0.00131 0.0
C578 C 0.17709 0.74612 0.00497 0.0
C579 C 0.16415 0.66864 0.97791 0.0
C580 C 0.18631 0.64442 0.98714 0.0
C581 C 0.20028 0.61972 0.96859 0.0
C582 C 0.19154 0.61989 0.94002 0.0
C583 C 0.16956 0.64522 0.92998 0.0
C584 C 0.15598 0.66999 0.94954 0.0
H585 H 0.6164 0.13443 0.39254 0.0
H586 H 0.77261 0.20487 0.41401 0.0
H587 H 0.78105 0.21322 0.36483 0.0
H588 H 0.60358 1.06758 0.32622 0.0
H589 H 0.55717 0.0765 0.30996 0.0
H590 H 0.56357 0.07584 0.34672 0.0
H591 H 0.5726 0.16065 0.35647 0.0
H592 H 0.56614 0.16152 0.31972 0.0
H593 H 0.61867 0.21034 0.34255 0.0
H594 H 0.7716 0.21011 0.31227 0.0
H595 H 0.74592 0.19966 0.26206 0.0
H596 H 0.59637 0.13799 0.27587 0.0
C597 C 0.65243 0.1515 0.38694 0.0
C598 C 0.69386 0.16863 0.40723 0.0
C599 C 0.74032 0.19138 0.39894 0.0
C600 C 0.74546 0.19623 0.371 0.0
C601 C 0.70386 0.17882 0.35155 0.0
C602 C 0.65827 0.15736 0.35925 0.0
C603 C 0.61942 0.14262 0.33448 0.0
C604 C 0.58384 0.08736 0.32903 0.0
C605 C 0.59264 0.17045 0.33856 0.0
C606 C 0.65012 0.15846 0.31153 0.0
C607 C 0.6987 0.17903 0.32173 0.0
C608 C 0.73367 0.19466 0.30419 0.0
C609 C 0.71864 0.18894 0.27557 0.0
C610 C 0.66894 0.1682 0.2645 0.0
C611 C 0.63458 0.15337 0.28314 0.0
H612 H 0.6546 0.58528 0.72467 0.0
H613 H 0.77016 0.73545 0.75099 0.0
H614 H 0.77967 0.74365 0.70193 0.0
H615 H 0.70951 0.55799 0.6701 0.0
H616 H 0.65293 0.51882 0.64714 0.0
H617 H 0.65409 0.52524 0.68418 0.0
H618 H 0.59014 0.55111 0.67934 0.0
H619 H 0.58866 0.54462 0.64228 0.0
H620 H 0.6017 0.60141 0.66183 0.0
H621 H 0.77571 0.73558 0.64946 0.0
H622 H 0.76091 0.71105 0.59842 0.0
H623 H 0.65013 0.5653 0.60639 0.0
C624 C 0.68171 0.62006 0.72016 0.0
C625 C 0.71144 0.65988 0.74183 0.0
C626 C 0.7469 0.70444 0.73488 0.0
C627 C 0.75253 0.70945 0.70702 0.0
C628 C 0.72277 0.66944 0.68622 0.0
C629 C 0.68822 0.6255 0.69248 0.0
C630 C 0.66174 0.58772 0.66633 0.0
C631 C 0.67008 0.54492 0.66698 0.0
C632 C 0.60734 0.5702 0.66221 0.0
C633 C 0.6866 0.61725 0.64433 0.0
C634 C 0.72149 0.66441 0.65621 0.0
C635 C 0.74858 0.69869 0.64 0.0
C636 C 0.73982 0.68448 0.611 0.0
C637 C 0.70456 0.63622 0.59833 0.0
C638 C 0.67778 0.60228 0.6154 0.0
H639 H 0.58307 0.09789 0.5635 0.0
H640 H 0.73418 0.14027 0.58384 0.0
H641 H 0.71725 0.1078 0.62759 0.0
H642 H 0.56666 0.12895 0.6317 0.0
H643 H 0.50548 0.07828 0.62829 0.0
H644 H 0.52924 0.10288 0.59806 0.0
H645 H 0.50842 1.01763 0.57455 0.0
H646 H 0.48512 0.99276 0.60488 0.0
H647 H 0.5322 0.98564 0.59185 0.0
H648 H 0.68545 0.07528 0.67 0.0
H649 H 0.64131 1.04791 0.70952 0.0
H650 H 0.51042 1.02448 0.66142 0.0
C651 C 0.6127 0.10049 0.57716 0.0
C652 C 0.66007 0.1219 0.57031 0.0
C653 C 0.69765 0.1242 0.58868 0.0
C654 C 0.68834 0.1056 0.6135 0.0
C655 C 0.6412 0.08445 0.61951 0.0
C656 C 0.604 0.08187 0.60194 0.0
C657 C 0.55696 1.05887 0.61379 0.0
C658 C 0.53853 0.09437 0.61823 0.0
C659 C 0.51841 1.01087 0.59516 0.0
C660 C 0.57384 1.05004 0.64116 0.0
C661 C 0.62249 1.06465 0.64387 0.0
C662 C 0.64723 1.0631 0.668 0.0
C663 C 0.62196 1.04746 0.69026 0.0
C664 C 0.57253 1.03351 0.68817 0.0
C665 C 0.54789 1.03379 0.66314 0.0
H666 H 0.64335 0.53513 0.88955 0.0
H667 H 0.70655 0.68771 0.92341 0.0
H668 H 0.68367 0.66584 0.96907 0.0
H669 H 0.54088 0.48959 0.92878 0.0
H670 H 0.54303 0.43589 0.93307 0.0
H671 H 0.56143 0.46352 0.90275 0.0
H672 H 0.64497 0.4707 0.91359 0.0
H673 H 0.62666 0.44264 0.94368 0.0
H674 H 0.68129 0.50121 0.94726 0.0
H675 H 0.66229 0.62742 0.01214 0.0
H676 H 0.6461 0.57655 0.04863 0.0
H677 H 0.58932 0.44859 0.98534 0.0
C678 C 0.65223 0.56399 0.90653 0.0
C679 C 0.6771 0.61314 0.90306 0.0
C680 C 0.68761 0.64979 0.92569 0.0
C681 C 0.67452 0.63769 0.95162 0.0
C682 C 0.65002 0.58876 0.95434 0.0
C683 C 0.63867 0.55252 0.93229 0.0
C684 C 0.61408 0.50292 0.94077 0.0
C685 C 0.56174 0.47111 0.92543 0.0
C686 C 0.64352 0.47794 0.93606 0.0
C687 C 0.61513 0.51698 0.97135 0.0
C688 C 0.63561 0.56658 0.9788 0.0
C689 C 0.64512 0.58842 0.00647 0.0
C690 C 0.63531 0.55906 0.0271 0.0
C691 C 0.61608 0.50837 0.01991 0.0
C692 C 0.60382 0.48714 -0.00846 0.0
H693 H 0.16287 0.69892 0.25134 0.0
H694 H 0.14322 0.80818 0.21771 0.0
H695 H 0.11721 0.82573 0.26122 0.0
H696 H 1.06068 0.65304 0.28683 0.0
H697 H 1.09062 0.64406 0.31632 0.0
H698 H 1.10867 0.64072 0.28275 0.0
H699 H 0.19741 0.70704 0.30328 0.0
H700 H 0.17974 0.71025 0.33697 0.0
H701 H 0.20997 0.76443 0.32174 0.0
H702 H 1.09032 0.82919 0.30802 0.0
H703 H 1.07156 0.82291 0.35598 0.0
H704 H 0.10967 0.71214 0.35858 0.0
C705 C 0.15345 0.7268 0.25315 0.0
C706 C 0.15507 0.75212 0.23108 0.0
C707 C 0.14245 0.78837 0.23436 0.0
C708 C 0.1274 0.79847 0.25895 0.0
C709 C 0.12541 0.77222 0.28011 0.0
C710 C 0.13861 0.73751 0.27756 0.0
C711 C 0.13369 0.71469 0.30342 0.0
C712 C 1.09618 0.65988 0.29693 0.0
C713 C 0.18315 0.72472 0.31716 0.0
C714 C 0.11558 0.7419 0.3209 0.0
C715 C 0.11068 0.77471 0.30707 0.0
C716 C 1.09416 0.80372 0.31909 0.0
C717 C 1.08328 0.79971 0.3462 0.0
C718 C 1.08937 0.76723 0.36093 0.0
C719 C 1.10514 0.73763 0.34788 0.0
loop_
_geom_bond_atom_site_label_1
_geom_bond_atom_site_label_2
_geom_bond_distance
_geom_bond_site_symmetry_2
_ccdc_geom_bond_type
Tb0 C9 2.764 1_455 S
Tb0 O10 2.325 1_455 S
Tb0 O13 2.303 . S
Tb0 O17 2.322 . S
Tb0 O18 2.349 . S
Tb0 O21 2.415 1_455 S
Tb0 O22 2.399 1_455 S
Tb1 O11 2.322 . S
Tb1 O12 2.349 . S
Tb1 O14 2.415 . S
Tb1 O15 2.399 . S
Tb1 O16 2.325 . S
Tb1 O19 2.303 . S
Tb1 C30 2.764 . S
C2 O18 1.261 . S
C2 O19 1.257 . S
C3 C6 1.358 . S
C3 C7 1.332 . S
C3 C9 1.504 . S
C4 C5 1.373 . S
C4 C8 1.308 . S
C5 C4 1.373 . S
C5 C6 1.429 . S
C5 H32 0.932 . S
C6 C3 1.358 . S
C6 C5 1.429 . S
C6 H33 0.930 . S
C7 C3 1.332 . S
C7 C8 1.394 . S
C7 H34 0.932 . S
C8 C4 1.308 . S
C8 C7 1.394 . S
C8 H35 0.929 . S
C9 Tb0 2.764 1_655 S
C9 C3 1.504 . S
C9 O21 1.239 . S
C9 O22 1.263 . S
O10 Tb0 2.325 1_655 S
O10 C20 1.236 . S
O11 Tb1 2.322 . S
O11 C20 1.257 1_455 S
O12 Tb1 2.349 . S
O12 C23 1.261 . S
O13 Tb0 2.303 . S
O13 C23 1.257 . S
O14 Tb1 2.415 . S
O14 C30 1.239 . S
O15 Tb1 2.399 . S
O15 C30 1.263 . S
O16 Tb1 2.325 . S
O16 C31 1.236 . S
O17 Tb0 2.322 . S
O17 C31 1.257 . S
O18 Tb0 2.349 . S
O18 C2 1.261 . S
O19 Tb1 2.303 . S
O19 C2 1.257 . S
C20 O10 1.236 . S
C20 O11 1.257 1_655 S
O21 Tb0 2.415 1_655 S
O21 C9 1.239 . S
O22 Tb0 2.399 1_655 S
O22 C9 1.263 . S
C23 O12 1.261 . S
C23 O13 1.257 . S
C24 C27 1.358 . S
C24 C28 1.332 . S
C24 C30 1.504 . S
C25 C26 1.373 . S
C25 C29 1.308 . S
C26 C25 1.373 . S
C26 C27 1.429 . S
C26 H36 0.932 . S
C27 C24 1.358 . S
C27 C26 1.429 . S
C27 H37 0.930 . S
C28 C24 1.332 . S
C28 C29 1.394 . S
C28 H38 0.932 . S
C29 C25 1.308 . S
C29 C28 1.394 . S
C29 H39 0.929 . S
C30 Tb1 2.764 . S
C30 O14 1.239 . S
C30 O15 1.263 . S
C30 C24 1.504 . S
C31 O16 1.236 . S
C31 O17 1.257 . S
H32 C5 0.932 . S
H33 C6 0.930 . S
H34 C7 0.932 . S
H35 C8 0.929 . S
H36 C26 0.932 . S
H37 C27 0.930 . S
H38 C28 0.932 . S
H39 C29 0.929 . S
Tb40 C49 2.764 1_545 S
Tb40 O50 2.325 1_545 S
Tb40 O53 2.303 . S
Tb40 O57 2.322 . S
Tb40 O58 2.349 . S
Tb40 O61 2.415 1_545 S
Tb40 O62 2.399 1_545 S
Tb41 O51 2.322 . S
Tb41 O52 2.349 . S
Tb41 O54 2.415 . S
Tb41 O55 2.399 . S
Tb41 O56 2.325 . S
Tb41 O59 2.303 . S
Tb41 C70 2.764 . S
C42 O58 1.261 . S
C42 O59 1.257 . S
C43 C46 1.358 . S
C43 C47 1.332 . S
C43 C49 1.504 . S
C44 C45 1.373 . S
C44 C48 1.308 . S
C45 C44 1.373 . S
C45 C46 1.429 . S
C45 H72 0.932 . S
C46 C43 1.358 . S
C46 C45 1.429 . S
C46 H73 0.930 . S
C47 C43 1.332 . S
C47 C48 1.394 . S
C47 H74 0.932 . S
C48 C44 1.308 . S
C48 C47 1.394 . S
C48 H75 0.929 . S
C49 Tb40 2.764 1_565 S
C49 C43 1.504 . S
C49 O61 1.239 . S
C49 O62 1.263 . S
O50 Tb40 2.325 1_565 S
O50 C60 1.236 . S
O51 Tb41 2.322 . S
O51 C60 1.257 1_545 S
O52 Tb41 2.349 . S
O52 C63 1.261 . S
O53 Tb40 2.303 . S
O53 C63 1.257 . S
O54 Tb41 2.415 . S
O54 C70 1.239 . S
O55 Tb41 2.399 . S
O55 C70 1.263 . S
O56 Tb41 2.325 . S
O56 C71 1.236 . S
O57 Tb40 2.322 . S
O57 C71 1.257 . S
O58 Tb40 2.349 . S
O58 C42 1.261 . S
O59 Tb41 2.303 . S
O59 C42 1.257 . S
C60 O50 1.236 . S
C60 O51 1.257 1_565 S
O61 Tb40 2.415 1_565 S
O61 C49 1.239 . S
O62 Tb40 2.399 1_565 S
O62 C49 1.263 . S
C63 O52 1.261 . S
C63 O53 1.257 . S
C64 C67 1.358 . S
C64 C68 1.332 . S
C64 C70 1.504 . S
C65 C66 1.373 . S
C65 C69 1.308 . S
C66 C65 1.373 . S
C66 C67 1.429 . S
C66 H76 0.932 . S
C67 C64 1.358 . S
C67 C66 1.429 . S
C67 H77 0.930 . S
C68 C64 1.332 . S
C68 C69 1.394 . S
C68 H78 0.932 . S
C69 C65 1.308 . S
C69 C68 1.394 . S
C69 H79 0.929 . S
C70 Tb41 2.764 . S
C70 O54 1.239 . S
C70 O55 1.263 . S
C70 C64 1.504 . S
C71 O56 1.236 . S
C71 O57 1.257 . S
H72 C45 0.932 . S
H73 C46 0.930 . S
H74 C47 0.932 . S
H75 C48 0.929 . S
H76 C66 0.932 . S
H77 C67 0.930 . S
H78 C68 0.932 . S
H79 C69 0.929 . S
Tb80 C89 2.764 . S
Tb80 O90 2.325 . S
Tb80 O93 2.303 . S
Tb80 O97 2.322 . S
Tb80 O98 2.349 . S
Tb80 O101 2.415 . S
Tb80 O102 2.399 . S
Tb81 O91 2.322 . S
Tb81 O92 2.349 . S
Tb81 O94 2.415 . S
Tb81 O95 2.399 . S
Tb81 O96 2.325 . S
Tb81 O99 2.303 . S
Tb81 C110 2.764 . S
C82 O98 1.261 . S
C82 O99 1.257 . S
C83 C86 1.358 . S
C83 C87 1.332 . S
C83 C89 1.504 . S
C84 C85 1.373 . S
C84 C88 1.308 . S
C85 C84 1.373 . S
C85 C86 1.429 . S
C85 H112 0.932 . S
C86 C83 1.358 . S
C86 C85 1.429 . S
C86 H113 0.930 . S
C87 C83 1.332 . S
C87 C88 1.394 . S
C87 H114 0.932 . S
C88 C84 1.308 . S
C88 C87 1.394 . S
C88 H115 0.929 . S
C89 Tb80 2.764 . S
C89 C83 1.504 . S
C89 O101 1.239 . S
C89 O102 1.263 . S
O90 Tb80 2.325 . S
O90 C100 1.236 . S
O91 Tb81 2.322 . S
O91 C100 1.257 . S
O92 Tb81 2.349 . S
O92 C103 1.261 . S
O93 Tb80 2.303 . S
O93 C103 1.257 . S
O94 Tb81 2.415 . S
O94 C110 1.239 . S
O95 Tb81 2.399 . S
O95 C110 1.263 . S
O96 Tb81 2.325 . S
O96 C111 1.236 . S
O97 Tb80 2.322 . S
O97 C111 1.257 . S
O98 Tb80 2.349 . S
O98 C82 1.261 . S
O99 Tb81 2.303 . S
O99 C82 1.257 . S
C100 O90 1.236 . S
C100 O91 1.257 . S
O101 Tb80 2.415 . S
O101 C89 1.239 . S
O102 Tb80 2.399 . S
O102 C89 1.263 . S
C103 O92 1.261 . S
C103 O93 1.257 . S
C104 C107 1.358 . S
C104 C108 1.332 . S
C104 C110 1.504 . S
C105 C106 1.373 . S
C105 C109 1.308 . S
C106 C105 1.373 . S
C106 C107 1.429 . S
C106 H116 0.932 . S
C107 C104 1.358 . S
C107 C106 1.429 . S
C107 H117 0.930 . S
C108 C104 1.332 . S
C108 C109 1.394 . S
C108 H118 0.932 . S
C109 C105 1.308 . S
C109 C108 1.394 . S
C109 H119 0.929 . S
C110 Tb81 2.764 . S
C110 O94 1.239 . S
C110 O95 1.263 . S
C110 C104 1.504 . S
C111 O96 1.236 . S
C111 O97 1.257 . S
H112 C85 0.932 . S
H113 C86 0.930 . S
H114 C87 0.932 . S
H115 C88 0.929 . S
H116 C106 0.932 . S
H117 C107 0.930 . S
H118 C108 0.932 . S
H119 C109 0.929 . S
H120 C121 0.949 . S
C121 H120 0.949 . S
C121 C122 1.395 . S
C121 C123 1.391 . S
C122 C121 1.395 . S
C122 C125 1.390 . S
C123 C121 1.391 . S
C123 C127 1.387 . S
C123 C128 1.491 . S
H124 C125 0.950 . S
C125 C122 1.390 . S
C125 H124 0.950 . S
C125 C126 1.378 . S
C126 C125 1.378 . S
C126 C127 1.409 . S
C127 C123 1.387 . S
C127 C126 1.409 . S
C127 H129 0.951 . S
C128 C123 1.491 . S
C128 C130 1.382 . S
C128 C132 1.404 . S
H129 C127 0.951 . S
C130 C128 1.382 . S
C130 C131 1.390 . S
C130 H135 0.949 . S
C131 C130 1.390 . S
C131 C136 1.399 . S
C132 C128 1.404 . S
C132 H133 0.950 . S
C132 C134 1.375 . S
H133 C132 0.950 . S
C134 C132 1.375 . S
C134 C136 1.382 . S
C134 H138 0.950 . S
H135 C130 0.949 . S
C136 C131 1.399 . S
C136 C134 1.382 . S
C136 H137 0.952 . S
H137 C136 0.952 . S
H138 C134 0.950 . S
H139 C140 0.949 . S
C140 H139 0.949 . S
C140 C141 1.395 . S
C140 C142 1.391 . S
C141 C140 1.395 . S
C141 C144 1.390 . S
C142 C140 1.391 . S
C142 C146 1.387 . S
C142 C147 1.491 . S
H143 C144 0.950 . S
C144 C141 1.390 . S
C144 H143 0.950 . S
C144 C145 1.378 . S
C145 C144 1.378 . S
C145 C146 1.409 . S
C146 C142 1.387 . S
C146 C145 1.409 . S
C146 H148 0.951 . S
C147 C142 1.491 . S
C147 C149 1.382 . S
C147 C151 1.404 . S
H148 C146 0.951 . S
C149 C147 1.382 . S
C149 C150 1.390 . S
C149 H154 0.949 . S
C150 C149 1.390 . S
C150 C155 1.399 . S
C151 C147 1.404 . S
C151 H152 0.950 . S
C151 C153 1.375 . S
H152 C151 0.950 . S
C153 C151 1.375 . S
C153 C155 1.382 . S
C153 H157 0.950 . S
H154 C149 0.949 . S
C155 C150 1.399 . S
C155 C153 1.382 . S
C155 H156 0.952 . S
H156 C155 0.952 . S
H157 C153 0.950 . S
H158 C159 0.949 . S
C159 H158 0.949 . S
C159 C160 1.395 . S
C159 C161 1.391 . S
C160 C159 1.395 . S
C160 C163 1.390 . S
C161 C159 1.391 . S
C161 C165 1.387 . S
C161 C166 1.491 . S
H162 C163 0.950 1_655 S
C163 C160 1.390 . S
C163 H162 0.950 1_455 S
C163 C164 1.378 . S
C164 C163 1.378 . S
C164 C165 1.409 . S
C165 C161 1.387 . S
C165 C164 1.409 . S
C165 H167 0.951 . S
C166 C161 1.491 . S
C166 C168 1.382 . S
C166 C170 1.404 . S
H167 C165 0.951 . S
C168 C166 1.382 . S
C168 C169 1.390 . S
C168 H173 0.949 . S
C169 C168 1.390 . S
C169 C174 1.399 . S
C170 C166 1.404 . S
C170 H171 0.950 . S
C170 C172 1.375 . S
H171 C170 0.950 . S
C172 C170 1.375 . S
C172 C174 1.382 . S
C172 H176 0.950 . S
H173 C168 0.949 . S
C174 C169 1.399 . S
C174 C172 1.382 . S
C174 H175 0.952 . S
H175 C174 0.952 . S
H176 C172 0.950 . S
H177 C178 0.949 . S
C178 H177 0.949 . S
C178 C179 1.395 1_655 S
C178 C180 1.391 1_655 S
C179 C178 1.395 1_455 S
C179 C182 1.390 . S
C180 C178 1.391 1_455 S
C180 C184 1.387 . S
C180 C185 1.491 1_455 S
H181 C182 0.950 . S
C182 C179 1.390 . S
C182 H181 0.950 . S
C182 C183 1.378 . S
C183 C182 1.378 . S
C183 C184 1.409 . S
C184 C180 1.387 . S
C184 C183 1.409 . S
C184 H186 0.951 . S
C185 C180 1.491 1_655 S
C185 C187 1.382 . S
C185 C189 1.404 . S
H186 C184 0.951 . S
C187 C185 1.382 . S
C187 C188 1.390 . S
C187 H192 0.949 . S
C188 C187 1.390 . S
C188 C193 1.399 . S
C189 C185 1.404 . S
C189 H190 0.950 . S
C189 C191 1.375 . S
H190 C189 0.950 . S
C191 C189 1.375 . S
C191 C193 1.382 . S
C191 H195 0.950 . S
H192 C187 0.949 . S
C193 C188 1.399 . S
C193 C191 1.382 . S
C193 H194 0.952 . S
H194 C193 0.952 . S
H195 C191 0.950 . S
H196 C197 0.949 1_565 S
C197 H196 0.949 1_545 S
C197 C198 1.395 . S
C197 C199 1.391 . S
C198 C197 1.395 . S
C198 C201 1.390 . S
C199 C197 1.391 . S
C199 C203 1.387 . S
C199 C204 1.491 1_545 S
H200 C201 0.950 . S
C201 C198 1.390 . S
C201 H200 0.950 . S
C201 C202 1.378 . S
C202 C201 1.378 . S
C202 C203 1.409 . S
C203 C199 1.387 . S
C203 C202 1.409 . S
C203 H205 0.951 . S
C204 C199 1.491 1_565 S
C204 C206 1.382 . S
C204 C208 1.404 . S
H205 C203 0.951 . S
C206 C204 1.382 . S
C206 C207 1.390 . S
C206 H211 0.949 . S
C207 C206 1.390 . S
C207 C212 1.399 . S
C208 C204 1.404 . S
C208 H209 0.950 1_565 S
C208 C210 1.375 . S
H209 C208 0.950 1_545 S
C210 C208 1.375 . S
C210 C212 1.382 . S
C210 H214 0.950 . S
H211 C206 0.949 . S
C212 C207 1.399 . S
C212 C210 1.382 . S
C212 H213 0.952 . S
H213 C212 0.952 . S
H214 C210 0.950 . S
H215 C216 0.949 . S
C216 H215 0.949 . S
C216 C217 1.395 . S
C216 C218 1.391 . S
C217 C216 1.395 . S
C217 C220 1.390 . S
C218 C216 1.391 . S
C218 C222 1.387 . S
C218 C223 1.491 . S
H219 C220 0.950 . S
C220 C217 1.390 . S
C220 H219 0.950 . S
C220 C221 1.378 . S
C221 C220 1.378 . S
C221 C222 1.409 . S
C222 C218 1.387 . S
C222 C221 1.409 . S
C222 H224 0.951 . S
C223 C218 1.491 . S
C223 C225 1.382 . S
C223 C227 1.404 . S
H224 C222 0.951 . S
C225 C223 1.382 . S
C225 C226 1.390 . S
C225 H230 0.949 . S
C226 C225 1.390 . S
C226 C231 1.399 . S
C227 C223 1.404 . S
C227 H228 0.950 . S
C227 C229 1.375 . S
H228 C227 0.950 . S
C229 C227 1.375 . S
C229 C231 1.382 . S
C229 H233 0.950 . S
H230 C225 0.949 . S
C231 C226 1.399 . S
C231 C229 1.382 . S
C231 H232 0.952 . S
H232 C231 0.952 . S
H233 C229 0.950 . S
H234 C246 0.930 . S
H235 C248 0.930 . S
H236 C249 0.930 . S
H237 C253 0.959 . S
H238 C253 0.959 . S
H239 C253 0.961 . S
H240 C254 0.960 . S
H241 C254 0.961 . S
H242 C254 0.959 . S
H243 C257 0.929 . S
H244 C258 0.931 . S
H245 C260 0.930 . S
C246 H234 0.930 . S
C246 C247 1.399 . S
C246 C251 1.399 . S
C247 C246 1.399 . S
C247 C248 1.376 . S
C248 H235 0.930 . S
C248 C247 1.376 . S
C248 C249 1.388 . S
C249 H236 0.930 . S
C249 C248 1.388 . S
C249 C250 1.390 . S
C250 C249 1.390 . S
C250 C251 1.394 . S
C250 C256 1.465 . S
C251 C246 1.399 . S
C251 C250 1.394 . S
C251 C252 1.516 . S
C252 C251 1.516 . S
C252 C253 1.502 . S
C252 C254 1.561 . S
C252 C255 1.526 . S
C253 H237 0.959 . S
C253 H238 0.959 . S
C253 H239 0.961 . S
C253 C252 1.502 . S
C254 H240 0.960 . S
C254 H241 0.961 . S
C254 H242 0.959 . S
C254 C252 1.561 . S
C255 C252 1.526 . S
C255 C256 1.396 . S
C255 C260 1.390 . S
C256 C250 1.465 . S
C256 C255 1.396 . S
C256 C257 1.399 . S
C257 H243 0.929 . S
C257 C256 1.399 . S
C257 C258 1.385 . S
C258 H244 0.931 . S
C258 C257 1.385 . S
C258 C259 1.389 . S
C259 C258 1.389 . S
C259 C260 1.387 . S
C260 H245 0.930 . S
C260 C255 1.390 . S
C260 C259 1.387 . S
H261 C273 0.930 . S
H262 C275 0.930 . S
H263 C276 0.930 . S
H264 C280 0.959 . S
H265 C280 0.959 . S
H266 C280 0.961 . S
H267 C281 0.960 . S
H268 C281 0.961 . S
H269 C281 0.959 . S
H270 C284 0.929 . S
H271 C285 0.931 . S
H272 C287 0.930 . S
C273 H261 0.930 . S
C273 C274 1.399 . S
C273 C278 1.399 . S
C274 C273 1.399 . S
C274 C275 1.376 . S
C275 H262 0.930 . S
C275 C274 1.376 . S
C275 C276 1.388 . S
C276 H263 0.930 . S
C276 C275 1.388 . S
C276 C277 1.390 . S
C277 C276 1.390 . S
C277 C278 1.394 . S
C277 C283 1.465 . S
C278 C273 1.399 . S
C278 C277 1.394 . S
C278 C279 1.516 . S
C279 C278 1.516 . S
C279 C280 1.502 . S
C279 C281 1.561 . S
C279 C282 1.526 . S
C280 H264 0.959 . S
C280 H265 0.959 . S
C280 H266 0.961 . S
C280 C279 1.502 . S
C281 H267 0.960 . S
C281 H268 0.961 . S
C281 H269 0.959 . S
C281 C279 1.561 . S
C282 C279 1.526 . S
C282 C283 1.396 . S
C282 C287 1.390 . S
C283 C277 1.465 . S
C283 C282 1.396 . S
C283 C284 1.399 . S
C284 H270 0.929 . S
C284 C283 1.399 . S
C284 C285 1.385 . S
C285 H271 0.931 . S
C285 C284 1.385 . S
C285 C286 1.389 . S
C286 C285 1.389 . S
C286 C287 1.387 . S
C287 H272 0.930 . S
C287 C282 1.390 . S
C287 C286 1.387 . S
H288 C300 0.930 . S
H289 C302 0.930 . S
H290 C303 0.930 . S
H291 C307 0.959 . S
H292 C307 0.959 . S
H293 C307 0.961 . S
H294 C308 0.960 . S
H295 C308 0.961 . S
H296 C308 0.959 . S
H297 C311 0.929 . S
H298 C312 0.931 . S
H299 C314 0.930 . S
C300 H288 0.930 . S
C300 C301 1.399 . S
C300 C305 1.399 . S
C301 C300 1.399 . S
C301 C302 1.376 . S
C302 H289 0.930 . S
C302 C301 1.376 . S
C302 C303 1.388 . S
C303 H290 0.930 . S
C303 C302 1.388 . S
C303 C304 1.390 . S
C304 C303 1.390 . S
C304 C305 1.394 . S
C304 C310 1.465 . S
C305 C300 1.399 . S
C305 C304 1.394 . S
C305 C306 1.516 . S
C306 C305 1.516 . S
C306 C307 1.502 . S
C306 C308 1.561 . S
C306 C309 1.526 . S
C307 H291 0.959 . S
C307 H292 0.959 . S
C307 H293 0.961 . S
C307 C306 1.502 . S
C308 H294 0.960 . S
C308 H295 0.961 . S
C308 H296 0.959 . S
C308 C306 1.561 . S
C309 C306 1.526 . S
C309 C310 1.396 . S
C309 C314 1.390 . S
C310 C304 1.465 . S
C310 C309 1.396 . S
C310 C311 1.399 . S
C311 H297 0.929 . S
C311 C310 1.399 . S
C311 C312 1.385 . S
C312 H298 0.931 . S
C312 C311 1.385 . S
C312 C313 1.389 . S
C313 C312 1.389 . S
C313 C314 1.387 . S
C314 H299 0.930 . S
C314 C309 1.390 . S
C314 C313 1.387 . S
H315 C327 0.930 . S
H316 C329 0.930 . S
H317 C330 0.930 . S
H318 C334 0.959 . S
H319 C334 0.959 . S
H320 C334 0.961 . S
H321 C335 0.960 . S
H322 C335 0.961 . S
H323 C335 0.959 . S
H324 C338 0.929 . S
H325 C339 0.931 . S
H326 C341 0.930 . S
C327 H315 0.930 . S
C327 C328 1.399 . S
C327 C332 1.399 . S
C328 C327 1.399 . S
C328 C329 1.376 . S
C329 H316 0.930 . S
C329 C328 1.376 . S
C329 C330 1.388 . S
C330 H317 0.930 . S
C330 C329 1.388 . S
C330 C331 1.390 . S
C331 C330 1.390 . S
C331 C332 1.394 . S
C331 C337 1.465 . S
C332 C327 1.399 . S
C332 C331 1.394 . S
C332 C333 1.516 . S
C333 C332 1.516 . S
C333 C334 1.502 . S
C333 C335 1.561 . S
C333 C336 1.526 . S
C334 H318 0.959 . S
C334 H319 0.959 . S
C334 H320 0.961 . S
C334 C333 1.502 . S
C335 H321 0.960 . S
C335 H322 0.961 . S
C335 H323 0.959 . S
C335 C333 1.561 . S
C336 C333 1.526 . S
C336 C337 1.396 . S
C336 C341 1.390 . S
C337 C331 1.465 . S
C337 C336 1.396 . S
C337 C338 1.399 . S
C338 H324 0.929 . S
C338 C337 1.399 . S
C338 C339 1.385 . S
C339 H325 0.931 . S
C339 C338 1.385 . S
C339 C340 1.389 . S
C340 C339 1.389 . S
C340 C341 1.387 . S
C341 H326 0.930 . S
C341 C336 1.390 . S
C341 C340 1.387 . S
H342 C354 0.930 . S
H343 C356 0.930 . S
H344 C357 0.930 . S
H345 C361 0.959 . S
H346 C361 0.959 . S
H347 C361 0.961 . S
H348 C362 0.960 . S
H349 C362 0.961 . S
H350 C362 0.959 . S
H351 C365 0.929 . S
H352 C366 0.931 . S
H353 C368 0.930 . S
C354 H342 0.930 . S
C354 C355 1.399 . S
C354 C359 1.399 . S
C355 C354 1.399 . S
C355 C356 1.376 . S
C356 H343 0.930 . S
C356 C355 1.376 . S
C356 C357 1.388 . S
C357 H344 0.930 . S
C357 C356 1.388 . S
C357 C358 1.390 . S
C358 C357 1.390 . S
C358 C359 1.394 . S
C358 C364 1.465 . S
C359 C354 1.399 . S
C359 C358 1.394 . S
C359 C360 1.516 . S
C360 C359 1.516 . S
C360 C361 1.502 . S
C360 C362 1.561 . S
C360 C363 1.526 . S
C361 H345 0.959 . S
C361 H346 0.959 . S
C361 H347 0.961 . S
C361 C360 1.502 . S
C362 H348 0.960 . S
C362 H349 0.961 . S
C362 H350 0.959 . S
C362 C360 1.561 . S
C363 C360 1.526 . S
C363 C364 1.396 . S
C363 C368 1.390 . S
C364 C358 1.465 . S
C364 C363 1.396 . S
C364 C365 1.399 . S
C365 H351 0.929 . S
C365 C364 1.399 . S
C365 C366 1.385 . S
C366 H352 0.931 . S
C366 C365 1.385 . S
C366 C367 1.389 . S
C367 C366 1.389 . S
C367 C368 1.387 . S
C368 H353 0.930 . S
C368 C363 1.390 . S
C368 C367 1.387 . S
H369 C381 0.930 . S
H370 C383 0.930 . S
H371 C384 0.930 . S
H372 C388 0.959 . S
H373 C388 0.959 . S
H374 C388 0.961 . S
H375 C389 0.960 . S
H376 C389 0.961 . S
H377 C389 0.959 . S
H378 C392 0.929 . S
H379 C393 0.931 . S
H380 C395 0.930 . S
C381 H369 0.930 . S
C381 C382 1.399 . S
C381 C386 1.399 . S
C382 C381 1.399 . S
C382 C383 1.376 . S
C383 H370 0.930 . S
C383 C382 1.376 . S
C383 C384 1.388 . S
C384 H371 0.930 . S
C384 C383 1.388 . S
C384 C385 1.390 . S
C385 C384 1.390 . S
C385 C386 1.394 . S
C385 C391 1.465 . S
C386 C381 1.399 . S
C386 C385 1.394 . S
C386 C387 1.516 . S
C387 C386 1.516 . S
C387 C388 1.502 . S
C387 C389 1.561 . S
C387 C390 1.526 . S
C388 H372 0.959 . S
C388 H373 0.959 . S
C388 H374 0.961 . S
C388 C387 1.502 . S
C389 H375 0.960 . S
C389 H376 0.961 . S
C389 H377 0.959 . S
C389 C387 1.561 . S
C390 C387 1.526 . S
C390 C391 1.396 . S
C390 C395 1.390 . S
C391 C385 1.465 . S
C391 C390 1.396 . S
C391 C392 1.399 . S
C392 H378 0.929 . S
C392 C391 1.399 . S
C392 C393 1.385 . S
C393 H379 0.931 . S
C393 C392 1.385 . S
C393 C394 1.389 . S
C394 C393 1.389 . S
C394 C395 1.387 . S
C395 H380 0.930 . S
C395 C390 1.390 . S
C395 C394 1.387 . S
H396 C408 0.930 . S
H397 C410 0.930 . S
H398 C411 0.930 . S
H399 C415 0.959 . S
H400 C415 0.959 . S
H401 C415 0.961 . S
H402 C416 0.960 . S
H403 C416 0.961 . S
H404 C416 0.959 . S
H405 C419 0.929 . S
H406 C420 0.931 . S
H407 C422 0.930 . S
C408 H396 0.930 . S
C408 C409 1.399 . S
C408 C413 1.399 . S
C409 C408 1.399 . S
C409 C410 1.376 . S
C410 H397 0.930 . S
C410 C409 1.376 . S
C410 C411 1.388 . S
C411 H398 0.930 . S
C411 C410 1.388 . S
C411 C412 1.390 . S
C412 C411 1.390 . S
C412 C413 1.394 . S
C412 C418 1.465 . S
C413 C408 1.399 . S
C413 C412 1.394 . S
C413 C414 1.516 . S
C414 C413 1.516 . S
C414 C415 1.502 . S
C414 C416 1.561 . S
C414 C417 1.526 . S
C415 H399 0.959 . S
C415 H400 0.959 . S
C415 H401 0.961 . S
C415 C414 1.502 . S
C416 H402 0.960 . S
C416 H403 0.961 . S
C416 H404 0.959 . S
C416 C414 1.561 . S
C417 C414 1.526 . S
C417 C418 1.396 . S
C417 C422 1.390 . S
C418 C412 1.465 . S
C418 C417 1.396 . S
C418 C419 1.399 . S
C419 H405 0.929 . S
C419 C418 1.399 . S
C419 C420 1.385 . S
C420 H406 0.931 . S
C420 C419 1.385 . S
C420 C421 1.389 . S
C421 C420 1.389 . S
C421 C422 1.387 . S
C422 H407 0.930 . S
C422 C417 1.390 . S
C422 C421 1.387 . S
H423 C435 0.930 . S
H424 C437 0.930 . S
H425 C438 0.930 . S
H426 C442 0.959 . S
H427 C442 0.959 . S
H428 C442 0.961 . S
H429 C443 0.960 . S
H430 C443 0.961 . S
H431 C443 0.959 . S
H432 C446 0.929 . S
H433 C447 0.931 . S
H434 C449 0.930 . S
C435 H423 0.930 . S
C435 C436 1.399 . S
C435 C440 1.399 . S
C436 C435 1.399 . S
C436 C437 1.376 . S
C437 H424 0.930 . S
C437 C436 1.376 . S
C437 C438 1.388 . S
C438 H425 0.930 . S
C438 C437 1.388 . S
C438 C439 1.390 . S
C439 C438 1.390 . S
C439 C440 1.394 . S
C439 C445 1.465 . S
C440 C435 1.399 . S
C440 C439 1.394 . S
C440 C441 1.516 . S
C441 C440 1.516 . S
C441 C442 1.502 . S
C441 C443 1.561 . S
C441 C444 1.526 . S
C442 H426 0.959 . S
C442 H427 0.959 . S
C442 H428 0.961 . S
C442 C441 1.502 . S
C443 H429 0.960 . S
C443 H430 0.961 . S
C443 H431 0.959 . S
C443 C441 1.561 . S
C444 C441 1.526 . S
C444 C445 1.396 . S
C444 C449 1.390 . S
C445 C439 1.465 . S
C445 C444 1.396 . S
C445 C446 1.399 . S
C446 H432 0.929 . S
C446 C445 1.399 . S
C446 C447 1.385 . S
C447 H433 0.931 . S
C447 C446 1.385 . S
C447 C448 1.389 . S
C448 C447 1.389 . S
C448 C449 1.387 . S
C449 H434 0.930 . S
C449 C444 1.390 . S
C449 C448 1.387 . S
H450 C462 0.930 . S
H451 C464 0.930 . S
H452 C465 0.930 . S
H453 C469 0.959 . S
H454 C469 0.959 . S
H455 C469 0.961 . S
H456 C470 0.960 . S
H457 C470 0.961 . S
H458 C470 0.959 . S
H459 C473 0.929 . S
H460 C474 0.931 . S
H461 C476 0.930 . S
C462 H450 0.930 . S
C462 C463 1.399 . S
C462 C467 1.399 . S
C463 C462 1.399 . S
C463 C464 1.376 . S
C464 H451 0.930 . S
C464 C463 1.376 . S
C464 C465 1.388 . S
C465 H452 0.930 . S
C465 C464 1.388 . S
C465 C466 1.390 . S
C466 C465 1.390 . S
C466 C467 1.394 . S
C466 C472 1.465 . S
C467 C462 1.399 . S
C467 C466 1.394 . S
C467 C468 1.516 . S
C468 C467 1.516 . S
C468 C469 1.502 . S
C468 C470 1.561 . S
C468 C471 1.526 . S
C469 H453 0.959 . S
C469 H454 0.959 . S
C469 H455 0.961 . S
C469 C468 1.502 . S
C470 H456 0.960 . S
C470 H457 0.961 . S
C470 H458 0.959 . S
C470 C468 1.561 . S
C471 C468 1.526 . S
C471 C472 1.396 . S
C471 C476 1.390 . S
C472 C466 1.465 . S
C472 C471 1.396 . S
C472 C473 1.399 . S
C473 H459 0.929 . S
C473 C472 1.399 . S
C473 C474 1.385 . S
C474 H460 0.931 . S
C474 C473 1.385 . S
C474 C475 1.389 . S
C475 C474 1.389 . S
C475 C476 1.387 . S
C476 H461 0.930 . S
C476 C471 1.390 . S
C476 C475 1.387 . S
H477 C489 0.930 . S
H478 C491 0.930 . S
H479 C492 0.930 . S
H480 C496 0.959 . S
H481 C496 0.959 . S
H482 C496 0.961 . S
H483 C497 0.960 . S
H484 C497 0.961 . S
H485 C497 0.959 . S
H486 C500 0.929 . S
H487 C501 0.931 . S
H488 C503 0.930 . S
C489 H477 0.930 . S
C489 C490 1.399 . S
C489 C494 1.399 . S
C490 C489 1.399 . S
C490 C491 1.376 . S
C491 H478 0.930 . S
C491 C490 1.376 . S
C491 C492 1.388 . S
C492 H479 0.930 . S
C492 C491 1.388 . S
C492 C493 1.390 . S
C493 C492 1.390 . S
C493 C494 1.394 . S
C493 C499 1.465 . S
C494 C489 1.399 . S
C494 C493 1.394 . S
C494 C495 1.516 . S
C495 C494 1.516 . S
C495 C496 1.502 . S
C495 C497 1.561 . S
C495 C498 1.526 . S
C496 H480 0.959 . S
C496 H481 0.959 . S
C496 H482 0.961 . S
C496 C495 1.502 . S
C497 H483 0.960 . S
C497 H484 0.961 . S
C497 H485 0.959 . S
C497 C495 1.561 . S
C498 C495 1.526 . S
C498 C499 1.396 . S
C498 C503 1.390 . S
C499 C493 1.465 . S
C499 C498 1.396 . S
C499 C500 1.399 . S
C500 H486 0.929 . S
C500 C499 1.399 . S
C500 C501 1.385 . S
C501 H487 0.931 . S
C501 C500 1.385 . S
C501 C502 1.389 . S
C502 C501 1.389 . S
C502 C503 1.387 . S
C503 H488 0.930 . S
C503 C498 1.390 . S
C503 C502 1.387 . S
H504 C516 0.930 . S
H505 C518 0.930 . S
H506 C519 0.930 . S
H507 C523 0.959 . S
H508 C523 0.959 . S
H509 C523 0.961 . S
H510 C524 0.960 . S
H511 C524 0.961 . S
H512 C524 0.959 . S
H513 C527 0.929 . S
H514 C528 0.931 . S
H515 C530 0.930 . S
C516 H504 0.930 . S
C516 C517 1.399 . S
C516 C521 1.399 . S
C517 C516 1.399 . S
C517 C518 1.376 . S
C518 H505 0.930 . S
C518 C517 1.376 . S
C518 C519 1.388 . S
C519 H506 0.930 . S
C519 C518 1.388 . S
C519 C520 1.390 . S
C520 C519 1.390 . S
C520 C521 1.394 . S
C520 C526 1.465 . S
C521 C516 1.399 . S
C521 C520 1.394 . S
C521 C522 1.516 . S
C522 C521 1.516 . S
C522 C523 1.502 . S
C522 C524 1.561 . S
C522 C525 1.526 . S
C523 H507 0.959 . S
C523 H508 0.959 . S
C523 H509 0.961 . S
C523 C522 1.502 . S
C524 H510 0.960 . S
C524 H511 0.961 . S
C524 H512 0.959 . S
C524 C522 1.561 . S
C525 C522 1.526 . S
C525 C526 1.396 . S
C525 C530 1.390 . S
C526 C520 1.465 . S
C526 C525 1.396 . S
C526 C527 1.399 . S
C527 H513 0.929 . S
C527 C526 1.399 . S
C527 C528 1.385 . S
C528 H514 0.931 . S
C528 C527 1.385 . S
C528 C529 1.389 . S
C529 C528 1.389 . S
C529 C530 1.387 . S
C530 H515 0.930 . S
C530 C525 1.390 . S
C530 C529 1.387 . S
H531 C543 0.930 . S
H532 C545 0.930 . S
H533 C546 0.930 . S
H534 C550 0.959 . S
H535 C550 0.959 . S
H536 C550 0.961 . S
H537 C551 0.960 . S
H538 C551 0.961 . S
H539 C551 0.959 . S
H540 C554 0.929 . S
H541 C555 0.931 . S
H542 C557 0.930 . S
C543 H531 0.930 . S
C543 C544 1.399 . S
C543 C548 1.399 . S
C544 C543 1.399 . S
C544 C545 1.376 . S
C545 H532 0.930 . S
C545 C544 1.376 . S
C545 C546 1.388 . S
C546 H533 0.930 . S
C546 C545 1.388 . S
C546 C547 1.390 . S
C547 C546 1.390 . S
C547 C548 1.394 . S
C547 C553 1.465 . S
C548 C543 1.399 . S
C548 C547 1.394 . S
C548 C549 1.516 . S
C549 C548 1.516 . S
C549 C550 1.502 . S
C549 C551 1.561 . S
C549 C552 1.526 . S
C550 H534 0.959 . S
C550 H535 0.959 . S
C550 H536 0.961 . S
C550 C549 1.502 . S
C551 H537 0.960 . S
C551 H538 0.961 . S
C551 H539 0.959 . S
C551 C549 1.561 . S
C552 C549 1.526 . S
C552 C553 1.396 . S
C552 C557 1.390 . S
C553 C547 1.465 . S
C553 C552 1.396 . S
C553 C554 1.399 . S
C554 H540 0.929 . S
C554 C553 1.399 . S
C554 C555 1.385 . S
C555 H541 0.931 . S
C555 C554 1.385 . S
C555 C556 1.389 . S
C556 C555 1.389 . S
C556 C557 1.387 . S
C557 H542 0.930 . S
C557 C552 1.390 . S
C557 C556 1.387 . S
H558 C570 0.930 . S
H559 C572 0.930 . S
H560 C573 0.930 . S
H561 C577 0.959 . S
H562 C577 0.959 1_556 S
H563 C577 0.961 . S
H564 C578 0.960 . S
H565 C578 0.961 . S
H566 C578 0.959 . S
H567 C581 0.929 . S
H568 C582 0.931 . S
H569 C584 0.930 . S
C570 H558 0.930 . S
C570 C571 1.399 . S
C570 C575 1.399 . S
C571 C570 1.399 . S
C571 C572 1.376 . S
C572 H559 0.930 . S
C572 C571 1.376 . S
C572 C573 1.388 . S
C573 H560 0.930 . S
C573 C572 1.388 . S
C573 C574 1.390 . S
C574 C573 1.390 . S
C574 C575 1.394 . S
C574 C580 1.465 1_554 S
C575 C570 1.399 . S
C575 C574 1.394 . S
C575 C576 1.516 . S
C576 C575 1.516 . S
C576 C577 1.502 . S
C576 C578 1.561 . S
C576 C579 1.526 1_554 S
C577 H561 0.959 . S
C577 H562 0.959 1_554 S
C577 H563 0.961 . S
C577 C576 1.502 . S
C578 H564 0.960 . S
C578 H565 0.961 . S
C578 H566 0.959 . S
C578 C576 1.561 . S
C579 C576 1.526 1_556 S
C579 C580 1.396 . S
C579 C584 1.390 . S
C580 C574 1.465 1_556 S
C580 C579 1.396 . S
C580 C581 1.399 . S
C581 H567 0.929 . S
C581 C580 1.399 . S
C581 C582 1.385 . S
C582 H568 0.931 . S
C582 C581 1.385 . S
C582 C583 1.389 . S
C583 C582 1.389 . S
C583 C584 1.387 . S
C584 H569 0.930 . S
C584 C579 1.390 . S
C584 C583 1.387 . S
H585 C597 0.930 . S
H586 C599 0.930 . S
H587 C600 0.930 1_565 S
H588 C604 0.959 . S
H589 C604 0.959 . S
H590 C604 0.961 . S
H591 C605 0.960 . S
H592 C605 0.961 . S
H593 C605 0.959 . S
H594 C608 0.929 1_565 S
H595 C609 0.931 . S
H596 C611 0.930 . S
C597 H585 0.930 . S
C597 C598 1.399 . S
C597 C602 1.399 . S
C598 C597 1.399 . S
C598 C599 1.376 . S
C599 H586 0.930 . S
C599 C598 1.376 . S
C599 C600 1.388 . S
C600 H587 0.930 1_545 S
C600 C599 1.388 . S
C600 C601 1.390 . S
C601 C600 1.390 . S
C601 C602 1.394 . S
C601 C607 1.465 . S
C602 C597 1.399 . S
C602 C601 1.394 . S
C602 C603 1.516 . S
C603 C602 1.516 . S
C603 C604 1.502 . S
C603 C605 1.561 . S
C603 C606 1.526 . S
C604 H588 0.959 . S
C604 H589 0.959 . S
C604 H590 0.961 . S
C604 C603 1.502 . S
C605 H591 0.960 . S
C605 H592 0.961 . S
C605 H593 0.959 . S
C605 C603 1.561 . S
C606 C603 1.526 . S
C606 C607 1.396 . S
C606 C611 1.390 . S
C607 C601 1.465 . S
C607 C606 1.396 . S
C607 C608 1.399 . S
C608 H594 0.929 1_545 S
C608 C607 1.399 . S
C608 C609 1.385 . S
C609 H595 0.931 . S
C609 C608 1.385 . S
C609 C610 1.389 . S
C610 C609 1.389 . S
C610 C611 1.387 . S
C611 H596 0.930 . S
C611 C606 1.390 . S
C611 C610 1.387 . S
H612 C624 0.930 . S
H613 C626 0.930 . S
H614 C627 0.930 . S
H615 C631 0.959 . S
H616 C631 0.959 . S
H617 C631 0.961 . S
H618 C632 0.960 . S
H619 C632 0.961 . S
H620 C632 0.959 . S
H621 C635 0.929 . S
H622 C636 0.931 . S
H623 C638 0.930 . S
C624 H612 0.930 . S
C624 C625 1.399 . S
C624 C629 1.399 . S
C625 C624 1.399 . S
C625 C626 1.376 . S
C626 H613 0.930 . S
C626 C625 1.376 . S
C626 C627 1.388 . S
C627 H614 0.930 . S
C627 C626 1.388 . S
C627 C628 1.390 . S
C628 C627 1.390 . S
C628 C629 1.394 . S
C628 C634 1.465 . S
C629 C624 1.399 . S
C629 C628 1.394 . S
C629 C630 1.516 . S
C630 C629 1.516 . S
C630 C631 1.502 . S
C630 C632 1.561 . S
C630 C633 1.526 . S
C631 H615 0.959 . S
C631 H616 0.959 . S
C631 H617 0.961 . S
C631 C630 1.502 . S
C632 H618 0.960 . S
C632 H619 0.961 . S
C632 H620 0.959 . S
C632 C630 1.561 . S
C633 C630 1.526 . S
C633 C634 1.396 . S
C633 C638 1.390 . S
C634 C628 1.465 . S
C634 C633 1.396 . S
C634 C635 1.399 . S
C635 H621 0.929 . S
C635 C634 1.399 . S
C635 C636 1.385 . S
C636 H622 0.931 . S
C636 C635 1.385 . S
C636 C637 1.389 . S
C637 C636 1.389 . S
C637 C638 1.387 . S
C638 H623 0.930 . S
C638 C633 1.390 . S
C638 C637 1.387 . S
H639 C651 0.930 . S
H640 C653 0.930 . S
H641 C654 0.930 . S
H642 C658 0.959 1_545 S
H643 C658 0.959 . S
H644 C658 0.961 . S
H645 C659 0.960 . S
H646 C659 0.961 . S
H647 C659 0.959 . S
H648 C662 0.929 . S
H649 C663 0.931 . S
H650 C665 0.930 1_565 S
C651 H639 0.930 . S
C651 C652 1.399 . S
C651 C656 1.399 . S
C652 C651 1.399 . S
C652 C653 1.376 . S
C653 H640 0.930 . S
C653 C652 1.376 . S
C653 C654 1.388 . S
C654 H641 0.930 . S
C654 C653 1.388 . S
C654 C655 1.390 . S
C655 C654 1.390 . S
C655 C656 1.394 . S
C655 C661 1.465 . S
C656 C651 1.399 . S
C656 C655 1.394 . S
C656 C657 1.516 . S
C657 C656 1.516 . S
C657 C658 1.502 1_545 S
C657 C659 1.561 1_545 S
C657 C660 1.526 . S
C658 H642 0.959 1_565 S
C658 H643 0.959 . S
C658 H644 0.961 . S
C658 C657 1.502 1_565 S
C659 H645 0.960 . S
C659 H646 0.961 . S
C659 H647 0.959 . S
C659 C657 1.561 1_565 S
C660 C657 1.526 . S
C660 C661 1.396 . S
C660 C665 1.390 . S
C661 C655 1.465 . S
C661 C660 1.396 . S
C661 C662 1.399 . S
C662 H648 0.929 . S
C662 C661 1.399 . S
C662 C663 1.385 . S
C663 H649 0.931 . S
C663 C662 1.385 . S
C663 C664 1.389 . S
C664 C663 1.389 . S
C664 C665 1.387 . S
C665 H650 0.930 1_545 S
C665 C660 1.390 . S
C665 C664 1.387 . S
H666 C678 0.930 . S
H667 C680 0.930 . S
H668 C681 0.930 . S
H669 C685 0.959 . S
H670 C685 0.959 . S
H671 C685 0.961 . S
H672 C686 0.960 . S
H673 C686 0.961 . S
H674 C686 0.959 . S
H675 C689 0.929 . S
H676 C690 0.931 . S
H677 C692 0.930 . S
C678 H666 0.930 . S
C678 C679 1.399 . S
C678 C683 1.399 . S
C679 C678 1.399 . S
C679 C680 1.376 . S
C680 H667 0.930 . S
C680 C679 1.376 . S
C680 C681 1.388 . S
C681 H668 0.930 . S
C681 C680 1.388 . S
C681 C682 1.390 . S
C682 C681 1.390 . S
C682 C683 1.394 . S
C682 C688 1.465 1_556 S
C683 C678 1.399 . S
C683 C682 1.394 . S
C683 C684 1.516 . S
C684 C683 1.516 . S
C684 C685 1.502 . S
C684 C686 1.561 . S
C684 C687 1.526 1_556 S
C685 H669 0.959 . S
C685 H670 0.959 . S
C685 H671 0.961 . S
C685 C684 1.502 . S
C686 H672 0.960 . S
C686 H673 0.961 . S
C686 H674 0.959 . S
C686 C684 1.561 . S
C687 C684 1.526 1_554 S
C687 C688 1.396 . S
C687 C692 1.390 . S
C688 C682 1.465 1_554 S
C688 C687 1.396 . S
C688 C689 1.399 . S
C689 H675 0.929 . S
C689 C688 1.399 . S
C689 C690 1.385 . S
C690 H676 0.931 . S
C690 C689 1.385 . S
C690 C691 1.389 . S
C691 C690 1.389 . S
C691 C692 1.387 . S
C692 H677 0.930 . S
C692 C687 1.390 . S
C692 C691 1.387 . S
H693 C705 0.930 1_655 S
H694 C707 0.930 . S
H695 C708 0.930 . S
H696 C712 0.959 . S
H697 C712 0.959 . S
H698 C712 0.961 . S
H699 C713 0.960 1_655 S
H700 C713 0.961 1_655 S
H701 C713 0.959 . S
H702 C716 0.929 . S
H703 C717 0.931 . S
H704 C719 0.930 1_655 S
C705 H693 0.930 1_455 S
C705 C706 1.399 . S
C705 C710 1.399 . S
C706 C705 1.399 . S
C706 C707 1.376 . S
C707 H694 0.930 . S
C707 C706 1.376 . S
C707 C708 1.388 . S
C708 H695 0.930 . S
C708 C707 1.388 . S
C708 C709 1.390 . S
C709 C708 1.390 . S
C709 C710 1.394 . S
C709 C715 1.465 . S
C710 C705 1.399 . S
C710 C709 1.394 . S
C710 C711 1.516 1_455 S
C711 C710 1.516 1_655 S
C711 C712 1.502 . S
C711 C713 1.561 1_655 S
C711 C714 1.526 1_655 S
C712 H696 0.959 . S
C712 H697 0.959 . S
C712 H698 0.961 . S
C712 C711 1.502 . S
C713 H699 0.960 1_455 S
C713 H700 0.961 1_455 S
C713 H701 0.959 . S
C713 C711 1.561 1_455 S
C714 C711 1.526 1_455 S
C714 C715 1.396 . S
C714 C719 1.390 . S
C715 C709 1.465 . S
C715 C714 1.396 . S
C715 C716 1.399 . S
C716 H702 0.929 . S
C716 C715 1.399 . S
C716 C717 1.385 . S
C717 H703 0.931 . S
C717 C716 1.385 . S
C717 C718 1.389 . S
C718 C717 1.389 . S
C718 C719 1.387 . S
C719 H704 0.930 1_455 S
C719 C714 1.390 . S
C719 C718 1.387 . S
C247 C25 0.608 . S
C259 C226 0.575 . S
C274 C65 0.386 . S
C286 C188 0.368 . S
C301 C105 0.450 . S
C313 C207 0.468 . S
C328 C4 0.453 . S
C340 C221 0.217 . S
C367 C183 0.335 . S
C355 C44 0.224 . S
C394 C202 0.291 . S
C382 C84 0.222 . S
C409 C60 3.077 . S
C421 C150 2.971 . S
C436 C100 3.036 . S
C448 C164 2.983 1_655 S
C463 C31 3.003 . S
C475 C126 2.939 1_565 S
C502 C145 2.970 . S
C490 C71 3.005 . S
C529 C169 2.951 . S
C517 C111 3.037 . S
C544 C20 3.080 . S
C556 C131 2.972 . S
C583 C160 1.737 . S
C571 C2 1.732 . S
C598 C42 1.741 . S
C610 C122 1.736 . S
C625 C82 1.746 . S
C637 C141 1.756 . S
C664 C198 1.268 . S
C652 C63 1.221 . S
C691 C217 1.319 . S
C679 C103 1.329 . S
C706 C23 1.224 . S
C718 C179 1.223 . S
