# Generated by pormake.
# Topology eea, (3,6)-cn, num edge types: 1
# Building blocks:
#     Node 0, Type 0, BuildingBlock: QEWDON_clean_linker_0, # of connection points: 3
#     Node 1, Type 0, BuildingBlock: QEWDON_clean_linker_0, # of connection points: 3
#     Node 2, Type 0, BuildingBlock: QEWDON_clean_linker_0, # of connection points: 3
#     Node 3, Type 0, BuildingBlock: QEWDON_clean_linker_0, # of connection points: 3
#     Node 4, Type 0, BuildingBlock: QEWDON_clean_linker_0, # of connection points: 3
#     Node 5, Type 0, BuildingBlock: QEWDON_clean_linker_0, # of connection points: 3
#     Node 6, Type 0, BuildingBlock: QEWDON_clean_linker_0, # of connection points: 3
#     Node 7, Type 0, BuildingBlock: QEWDON_clean_linker_0, # of connection points: 3
#     Node 8, Type 0, BuildingBlock: QEWDON_clean_linker_0, # of connection points: 3
#     Node 9, Type 0, BuildingBlock: QEWDON_clean_linker_0, # of connection points: 3
#     Node 10, Type 0, BuildingBlock: QEWDON_clean_linker_0, # of connection points: 3
#     Node 11, Type 0, BuildingBlock: QEWDON_clean_linker_0, # of connection points: 3
#     Node 12, Type 0, BuildingBlock: QEWDON_clean_linker_0, # of connection points: 3
#     Node 13, Type 0, BuildingBlock: QEWDON_clean_linker_0, # of connection points: 3
#     Node 14, Type 0, BuildingBlock: QEWDON_clean_linker_0, # of connection points: 3
#     Node 15, Type 0, BuildingBlock: QEWDON_clean_linker_0, # of connection points: 3
#     Node 16, Type 0, BuildingBlock: QEWDON_clean_linker_0, # of connection points: 3
#     Node 17, Type 0, BuildingBlock: QEWDON_clean_linker_0, # of connection points: 3
#     Node 18, Type 1, BuildingBlock: LEVNOQ01_clean_sbu_1, # of connection points: 6
#     Node 19, Type 1, BuildingBlock: LEVNOQ01_clean_sbu_1, # of connection points: 6
#     Node 20, Type 1, BuildingBlock: LEVNOQ01_clean_sbu_1, # of connection points: 6
#     Node 21, Type 1, BuildingBlock: LEVNOQ01_clean_sbu_1, # of connection points: 6
#     Node 22, Type 1, BuildingBlock: LEVNOQ01_clean_sbu_1, # of connection points: 6
#     Node 23, Type 1, BuildingBlock: LEVNOQ01_clean_sbu_1, # of connection points: 6
#     Node 24, Type 1, BuildingBlock: LEVNOQ01_clean_sbu_1, # of connection points: 6
#     Node 25, Type 1, BuildingBlock: LEVNOQ01_clean_sbu_1, # of connection points: 6
#     Node 26, Type 1, BuildingBlock: LEVNOQ01_clean_sbu_1, # of connection points: 6
#     Edge 27, Type (0, 1), BuildingBlock: AJUNOK_clean_linker_0, # of connection points: 2
#     Edge 28, Type (0, 1), BuildingBlock: AJUNOK_clean_linker_0, # of connection points: 2
#     Edge 29, Type (0, 1), BuildingBlock: AJUNOK_clean_linker_0, # of connection points: 2
#     Edge 30, Type (0, 1), BuildingBlock: AJUNOK_clean_linker_0, # of connection points: 2
#     Edge 31, Type (0, 1), BuildingBlock: AJUNOK_clean_linker_0, # of connection points: 2
#     Edge 32, Type (0, 1), BuildingBlock: AJUNOK_clean_linker_0, # of connection points: 2
#     Edge 33, Type (0, 1), BuildingBlock: AJUNOK_clean_linker_0, # of connection points: 2
#     Edge 34, Type (0, 1), BuildingBlock: AJUNOK_clean_linker_0, # of connection points: 2
#     Edge 35, Type (0, 1), BuildingBlock: AJUNOK_clean_linker_0, # of connection points: 2
#     Edge 36, Type (0, 1), BuildingBlock: AJUNOK_clean_linker_0, # of connection points: 2
#     Edge 37, Type (0, 1), BuildingBlock: AJUNOK_clean_linker_0, # of connection points: 2
#     Edge 38, Type (0, 1), BuildingBlock: AJUNOK_clean_linker_0, # of connection points: 2
#     Edge 39, Type (0, 1), BuildingBlock: AJUNOK_clean_linker_0, # of connection points: 2
#     Edge 40, Type (0, 1), BuildingBlock: AJUNOK_clean_linker_0, # of connection points: 2
#     Edge 41, Type (0, 1), BuildingBlock: AJUNOK_clean_linker_0, # of connection points: 2
#     Edge 42, Type (0, 1), BuildingBlock: AJUNOK_clean_linker_0, # of connection points: 2
#     Edge 43, Type (0, 1), BuildingBlock: AJUNOK_clean_linker_0, # of connection points: 2
#     Edge 44, Type (0, 1), BuildingBlock: AJUNOK_clean_linker_0, # of connection points: 2
#     Edge 45, Type (0, 1), BuildingBlock: AJUNOK_clean_linker_0, # of connection points: 2
#     Edge 46, Type (0, 1), BuildingBlock: AJUNOK_clean_linker_0, # of connection points: 2
#     Edge 47, Type (0, 1), BuildingBlock: AJUNOK_clean_linker_0, # of connection points: 2
#     Edge 48, Type (0, 1), BuildingBlock: AJUNOK_clean_linker_0, # of connection points: 2
#     Edge 49, Type (0, 1), BuildingBlock: AJUNOK_clean_linker_0, # of connection points: 2
#     Edge 50, Type (0, 1), BuildingBlock: AJUNOK_clean_linker_0, # of connection points: 2
#     Edge 51, Type (0, 1), BuildingBlock: AJUNOK_clean_linker_0, # of connection points: 2
#     Edge 52, Type (0, 1), BuildingBlock: AJUNOK_clean_linker_0, # of connection points: 2
#     Edge 53, Type (0, 1), BuildingBlock: AJUNOK_clean_linker_0, # of connection points: 2
#     Edge 54, Type (0, 1), BuildingBlock: AJUNOK_clean_linker_0, # of connection points: 2
#     Edge 55, Type (0, 1), BuildingBlock: AJUNOK_clean_linker_0, # of connection points: 2
#     Edge 56, Type (0, 1), BuildingBlock: AJUNOK_clean_linker_0, # of connection points: 2
#     Edge 57, Type (0, 1), BuildingBlock: AJUNOK_clean_linker_0, # of connection points: 2
#     Edge 58, Type (0, 1), BuildingBlock: AJUNOK_clean_linker_0, # of connection points: 2
#     Edge 59, Type (0, 1), BuildingBlock: AJUNOK_clean_linker_0, # of connection points: 2
#     Edge 60, Type (0, 1), BuildingBlock: AJUNOK_clean_linker_0, # of connection points: 2
#     Edge 61, Type (0, 1), BuildingBlock: AJUNOK_clean_linker_0, # of connection points: 2
#     Edge 62, Type (0, 1), BuildingBlock: AJUNOK_clean_linker_0, # of connection points: 2
#     Edge 63, Type (0, 1), BuildingBlock: AJUNOK_clean_linker_0, # of connection points: 2
#     Edge 64, Type (0, 1), BuildingBlock: AJUNOK_clean_linker_0, # of connection points: 2
#     Edge 65, Type (0, 1), BuildingBlock: AJUNOK_clean_linker_0, # of connection points: 2
#     Edge 66, Type (0, 1), BuildingBlock: AJUNOK_clean_linker_0, # of connection points: 2
#     Edge 67, Type (0, 1), BuildingBlock: AJUNOK_clean_linker_0, # of connection points: 2
#     Edge 68, Type (0, 1), BuildingBlock: AJUNOK_clean_linker_0, # of connection points: 2
#     Edge 69, Type (0, 1), BuildingBlock: AJUNOK_clean_linker_0, # of connection points: 2
#     Edge 70, Type (0, 1), BuildingBlock: AJUNOK_clean_linker_0, # of connection points: 2
#     Edge 71, Type (0, 1), BuildingBlock: AJUNOK_clean_linker_0, # of connection points: 2
#     Edge 72, Type (0, 1), BuildingBlock: AJUNOK_clean_linker_0, # of connection points: 2
#     Edge 73, Type (0, 1), BuildingBlock: AJUNOK_clean_linker_0, # of connection points: 2
#     Edge 74, Type (0, 1), BuildingBlock: AJUNOK_clean_linker_0, # of connection points: 2
#     Edge 75, Type (0, 1), BuildingBlock: AJUNOK_clean_linker_0, # of connection points: 2
#     Edge 76, Type (0, 1), BuildingBlock: AJUNOK_clean_linker_0, # of connection points: 2
#     Edge 77, Type (0, 1), BuildingBlock: AJUNOK_clean_linker_0, # of connection points: 2
#     Edge 78, Type (0, 1), BuildingBlock: AJUNOK_clean_linker_0, # of connection points: 2
#     Edge 79, Type (0, 1), BuildingBlock: AJUNOK_clean_linker_0, # of connection points: 2
#     Edge 80, Type (0, 1), BuildingBlock: AJUNOK_clean_linker_0, # of connection points: 2
# Relax obj value: 0.096
# Max RMSD: 0.140
# Mean RMSD: 0.116
data_MOF--net-eea--node1-LEVNOQ01_clean_sbu_1--node2-QEWDON_clean_linker_0--edge1-AJUNOK_clean_linker_0
_symmetry_space_group_name_H-M    P1
_symmetry_Int_Tables_number       1
_symmetry_cell_setting            triclinic
loop_
_symmetry_equiv_pos_as_xyz
'x, y, z'
_cell_length_a     46.161501
_cell_length_b     45.910742
_cell_length_c     29.603465
_cell_angle_alpha  90.359155
_cell_angle_beta   90.159417
_cell_angle_gamma 120.01407
loop_
_atom_site_label
_atom_site_type_symbol
_atom_site_fract_x
_atom_site_fract_y
_atom_site_fract_z
_atom_type_partial_charge
H0 H 0.20922 0.12278 0.4146 0.0
C1 C 0.2117 0.10513 0.39278 0.0
C2 C 0.23515 0.0951 0.40352 0.0
C3 C 0.1894 0.08988 0.35609 0.0
H4 H 0.25483 0.06303 0.38484 0.0
C5 C 0.23722 0.07132 0.37632 0.0
C6 C 0.21438 0.05522 0.34139 0.0
C7 C 0.19116 0.065 0.3303 0.0
C8 C 0.16157 0.09649 0.34782 0.0
H9 H 0.17323 0.05182 0.30338 0.0
C10 C 0.16732 0.12951 0.34526 0.0
C11 C 0.14078 0.13527 0.3353 0.0
C12 C 0.12888 0.06934 0.34143 0.0
H13 H 0.12364 0.04362 0.34381 0.0
C14 C 0.1025 0.07503 0.33228 0.0
H15 H 0.19252 0.15061 0.34931 0.0
C16 C 0.10835 0.1078 0.32919 0.0
H17 H 0.08752 0.11171 0.322 0.0
H18 H 0.07745 0.05397 0.32744 0.0
H19 H 0.86613 0.07355 0.38199 0.0
C20 C 0.8858 0.09609 0.36652 0.0
C21 C 0.89401 0.12751 0.38491 0.0
C22 C 0.90346 0.09391 0.32897 0.0
H23 H 0.92883 0.18052 0.38402 0.0
C24 C 0.92108 0.15663 0.36729 0.0
C25 C 0.9395 0.15497 0.33066 0.0
C26 C 0.92935 0.12366 0.31031 0.0
C27 C 0.89616 0.06072 0.31041 0.0
H28 H 0.94223 0.12238 0.28051 0.0
C29 C 0.86321 0.03368 0.30854 0.0
C30 C 0.85619 0.00213 0.29171 0.0
C31 C 0.9222 0.05565 0.29502 0.0
H32 H 0.94803 0.07569 0.29671 0.0
C33 C 0.91527 0.02432 0.27817 0.0
H34 H 0.84285 0.03707 0.3202 0.0
C35 C 0.88242 -0.00245 0.2767 0.0
H36 H 0.87745 0.97338 0.26357 0.0
H37 H 0.93548 0.02072 0.26651 0.0
H38 H 0.91613 0.77951 0.39367 0.0
C39 C 0.89508 0.77753 0.37478 0.0
C40 C 0.86231 0.75764 0.39152 0.0
C41 C 0.90042 0.79615 0.33467 0.0
H42 H 0.81047 0.74254 0.38258 0.0
C43 C 0.83537 0.7565 0.36834 0.0
C44 C 0.84041 0.77512 0.32909 0.0
C45 C 0.87257 0.79378 0.31156 0.0
C46 C 0.93453 0.82143 0.3189 0.0
H47 H 0.87601 0.80804 0.28101 0.0
C48 C 0.96112 0.8146 0.31616 0.0
C49 C 0.99236 0.83895 0.29833 0.0
C50 C 0.94007 0.8531 0.30489 0.0
H51 H 0.92064 0.85967 0.30774 0.0
C52 C 0.97058 0.87678 0.28684 0.0
H53 H 0.95754 0.79067 0.32766 0.0
C54 C -0.00357 0.86973 0.28323 0.0
H55 H 0.01987 0.88858 0.26875 0.0
H56 H 0.9742 0.90077 0.27562 0.0
H57 H 0.14557 0.22245 0.62465 0.0
C58 C 0.12445 0.22368 0.63811 0.0
C59 C 0.11322 0.2427 0.61462 0.0
C60 C 0.1076 0.20552 0.67725 0.0
H61 H 0.0743 0.25541 0.609 0.0
C62 C 0.08425 0.24257 0.62884 0.0
C63 C 0.06675 0.22416 0.66662 0.0
C64 C 0.07923 0.20712 0.69177 0.0
C65 C 0.11747 0.18273 0.70066 0.0
H66 H 0.06556 0.19404 0.72158 0.0
C67 C 0.15007 0.18733 0.6969 0.0
C68 C 0.1579 0.16399 0.7158 0.0
C69 C 0.09352 0.15465 0.72518 0.0
H70 H 0.06777 0.1486 0.72768 0.0
C71 C 0.10187 0.13264 0.74583 0.0
H72 H 0.16922 0.20826 0.67824 0.0
C73 C 0.13374 0.13707 0.74095 0.0
H74 H 0.13935 0.11898 0.756 0.0
H75 H 0.08316 0.11137 0.76454 0.0
H76 H 0.78717 0.91791 0.61228 0.0
C77 C 0.78572 0.89595 0.62792 0.0
C78 C 0.76058 0.86391 0.61372 0.0
C79 C 0.80992 0.89956 0.66014 0.0
H80 H 0.74238 0.81053 0.61837 0.0
C81 C 0.76027 0.83538 0.63115 0.0
C82 C 0.78412 0.8387 0.66314 0.0
C83 C 0.8081 0.87061 0.6786 0.0
C84 C 0.8387 0.93327 0.67154 0.0
H85 H 0.82633 0.87276 0.70352 0.0
C86 C 0.8346 0.96152 0.67311 0.0
C87 C 0.86217 0.99382 0.68008 0.0
C88 C 0.87088 0.93774 0.67875 0.0
H89 H 0.8753 0.91673 0.67676 0.0
C90 C 0.89816 0.96972 0.68715 0.0
H91 H 0.80992 0.95852 0.66887 0.0
C92 C 0.89396 -0.00226 0.68747 0.0
H93 H 0.91561 0.02248 0.69256 0.0
H94 H 0.92278 0.97286 0.69241 0.0
H95 H 0.08272 0.85976 0.60732 0.0
C96 C 0.10546 0.87878 0.62358 0.0
C97 C 0.13618 0.88999 0.6013 0.0
C98 C 0.10441 0.89307 0.66579 0.0
H99 H 0.18875 0.92638 0.60136 0.0
C100 C 0.16542 0.91641 0.61977 0.0
C101 C 0.16459 0.93169 0.6601 0.0
C102 C 0.13479 0.91885 0.68424 0.0
C103 C 0.07206 0.88318 0.68954 0.0
H104 H 0.13546 0.93035 0.71652 0.0
C105 C 0.04357 0.851 0.68363 0.0
C106 C 0.01334 0.84245 0.7057 0.0
C107 C 0.06918 0.90643 0.71806 0.0
H108 H 0.08938 0.93205 0.72214 0.0
C109 C 0.03967 0.89741 0.7413 0.0
H110 H 0.04453 0.83246 0.66188 0.0
C111 C 0.01188 0.86555 0.73533 0.0
H112 H 0.98881 0.85942 0.75242 0.0
H113 H 0.0381 0.91554 0.76318 0.0
H114 H 0.87598 0.45933 0.73747 0.0
C115 C 0.8777 0.44002 0.71841 0.0
C116 C 0.90248 0.43208 0.72978 0.0
C117 C 0.85409 0.42169 0.68415 0.0
H118 H 0.92339 0.40064 0.71473 0.0
C119 C 0.90439 0.40696 0.70575 0.0
C120 C 0.87918 0.38642 0.67534 0.0
C121 C 0.85494 0.39462 0.66291 0.0
C122 C 0.82727 0.42923 0.67263 0.0
H123 H 0.83605 0.37907 0.63817 0.0
C124 C 0.83447 0.46271 0.66958 0.0
C125 C 0.8095 0.4699 0.65669 0.0
C126 C 0.79443 0.40305 0.66361 0.0
H127 H 0.78784 0.37696 0.66663 0.0
C128 C 0.76959 0.41027 0.65085 0.0
H129 H 0.85971 0.48324 0.6756 0.0
C130 C 0.77708 0.44357 0.6471 0.0
H131 H 0.75764 0.44884 0.63676 0.0
H132 H 0.74448 0.38998 0.6437 0.0
H133 H 0.54575 0.42522 0.7257 0.0
C134 C 0.56156 0.44458 0.70203 0.0
C135 C 0.57296 0.47841 0.71282 0.0
C136 C 0.57336 0.43596 0.66325 0.0
H137 H 0.60386 0.52965 0.69157 0.0
C138 C 0.5944 0.50344 0.68276 0.0
C139 C 0.60755 0.4954 0.64514 0.0
C140 C 0.59655 0.4616 0.63514 0.0
C141 C 0.5641 0.4005 0.65469 0.0
H142 H 0.60711 0.45546 0.60645 0.0
C143 C 0.53077 0.37461 0.65914 0.0
C144 C 0.52175 0.34099 0.65038 0.0
C145 C 0.5886 0.3923 0.64245 0.0
H146 H 0.61461 0.41166 0.63956 0.0
C147 C 0.57985 0.35888 0.63459 0.0
H148 H 0.51174 0.38068 0.66876 0.0
C149 C 0.54661 0.33331 0.63844 0.0
H150 H 0.54022 0.30761 0.63116 0.0
H151 H 0.59887 0.3528 0.62519 0.0
H152 H 0.58005 0.11079 0.7246 0.0
C153 C 0.558 0.10736 0.7069 0.0
C154 C 0.52635 0.08693 0.72638 0.0
C155 C 0.56086 0.12384 0.66543 0.0
H156 H 0.47395 0.06984 0.72236 0.0
C157 C 0.49784 0.08377 0.70543 0.0
C158 C 0.50007 0.10028 0.66499 0.0
C159 C 0.53125 0.11914 0.64441 0.0
C160 C 0.59418 0.14712 0.64451 0.0
H161 H 0.53214 0.13081 0.6124 0.0
C162 C 0.62211 0.14253 0.64982 0.0
C163 C 0.65267 0.16375 0.62762 0.0
C164 C 0.59812 0.17442 0.61827 0.0
H165 H 0.5783 0.18036 0.61505 0.0
C166 C 0.62789 0.19497 0.59583 0.0
H167 H 0.62014 0.12265 0.67123 0.0
C168 C 0.65478 0.18949 0.59995 0.0
H169 H 0.67742 0.20569 0.58153 0.0
H170 H 0.63016 0.21538 0.57519 0.0
H171 H 0.79887 0.5477 0.95361 0.0
C172 C 0.78066 0.55215 0.97054 0.0
C173 C 0.76694 0.56907 0.94707 0.0
C174 C 0.76893 0.53892 0.01416 0.0
H175 H 0.72989 0.58454 0.94864 0.0
C176 C 0.7415 0.57275 0.96732 0.0
C177 C 0.72922 0.55947 0.00995 0.0
C178 C 0.74375 0.54379 0.03378 0.0
C179 C 0.78028 0.51746 0.03778 0.0
H180 H 0.73453 0.53472 0.06733 0.0
C181 C 0.81232 0.52139 0.03059 0.0
C182 C 0.82147 0.49956 0.05128 0.0
C183 C 0.75815 0.49153 0.0668 0.0
H184 H 0.7328 0.48621 0.07204 0.0
C185 C 0.76789 0.47104 0.08879 0.0
H186 H 0.82992 0.54074 0.00831 0.0
C187 C 0.79929 0.47492 0.08107 0.0
H188 H 0.80608 0.45819 0.09767 0.0
H189 H 0.75064 0.45148 0.11112 0.0
H190 H 0.46226 0.25321 0.94158 0.0
C191 C 0.46069 0.23138 0.95787 0.0
C192 C 0.43738 0.1994 0.94166 0.0
C193 C 0.4835 0.23523 0.99228 0.0
H194 H 0.41949 0.14631 0.9456 0.0
C195 C 0.43672 0.17097 0.95957 0.0
C196 C 0.45956 0.17436 0.99333 0.0
C197 C 0.48231 0.20642 0.01034 0.0
C198 C 0.51062 0.26934 0.0056 0.0
H199 H 0.50009 0.20896 0.0362 0.0
C200 C 0.50463 0.29643 0.00629 0.0
C201 C 0.53101 0.32952 0.01236 0.0
C202 C 0.54324 0.27557 0.01438 0.0
H203 H 0.54904 0.25547 0.01337 0.0
C204 C 0.56924 0.30825 0.02288 0.0
H205 H 0.47935 0.29178 0.00176 0.0
C206 C 0.56332 0.33518 0.02142 0.0
H207 H 0.58409 0.36046 0.0266 0.0
H208 H 0.59426 0.31281 0.02941 0.0
H209 H 0.75177 0.20009 0.94121 0.0
C210 C 0.77455 0.21873 0.95789 0.0
C211 C 0.80555 0.23116 0.93566 0.0
C212 C 0.77311 0.23158 1.00086 0.0
H213 H 0.85809 0.26743 0.9382 0.0
C214 C 0.83452 0.25694 0.95599 0.0
C215 C 0.83352 0.26978 0.99845 0.0
C216 C 0.8032 0.25558 0.0217 0.0
C217 C 0.74078 0.22291 0.02317 0.0
H218 H 0.80287 0.26427 0.05569 0.0
C219 C 0.71277 0.19014 0.02178 0.0
C220 C 0.68292 0.18287 0.04428 0.0
C221 C 0.73805 0.24826 0.04667 0.0
H222 H 0.75847 0.27403 0.04728 0.0
C223 C 0.70896 0.24095 0.06968 0.0
H224 H 0.71414 0.17039 0.00339 0.0
C225 C 0.68168 0.20845 0.06892 0.0
H226 H 0.65952 0.20332 0.08765 0.0
H227 H 0.70756 0.26062 0.08815 0.0
H228 H 0.54524 0.79497 0.07525 0.0
C229 C 0.54919 0.77788 0.05421 0.0
C230 C 0.57435 0.77049 0.06602 0.0
C231 C 0.52711 0.76062 0.018 0.0
H232 H 0.59641 0.74001 0.05142 0.0
C233 C 0.57799 0.74673 0.04088 0.0
C234 C 0.55496 0.72808 0.00672 0.0
C235 C 0.53084 0.7363 0.99377 0.0
C236 C 0.49735 0.76423 0.00919 0.0
H237 H 0.51313 0.72167 0.96727 0.0
C238 C 0.49999 0.79606 0.00837 0.0
C239 C 0.47178 0.79916 0.99859 0.0
C240 C 0.46587 0.73547 0.0012 0.0
H241 H 0.46275 0.71049 0.00261 0.0
C242 C 0.43789 0.73852 0.99176 0.0
H243 H 0.52413 0.81845 0.01383 0.0
C244 C 0.44078 0.7702 0.99028 0.0
H245 H 0.41881 0.77211 0.98281 0.0
H246 H 0.41388 0.71622 0.98555 0.0
H247 H 0.20288 0.74305 0.05543 0.0
C248 C 0.2226 0.76451 0.03811 0.0
C249 C 0.23113 0.79687 0.05279 0.0
C250 C 0.2404 0.75985 0.00296 0.0
H251 H 0.26571 0.84989 0.04547 0.0
C252 C 0.25785 0.82489 0.03234 0.0
C253 C 0.27649 0.82069 0.99812 0.0
C254 C 0.26692 0.78822 0.98257 0.0
C255 C 0.2327 0.72542 0.9898 0.0
H256 H 0.28097 0.78521 0.95549 0.0
C257 C 0.19959 0.69852 0.99068 0.0
C258 C 0.19229 0.66588 0.97948 0.0
C259 C 0.2584 0.71895 0.97728 0.0
H260 H 0.28432 0.7388 0.97735 0.0
C261 C 0.25097 0.68646 0.96526 0.0
H262 H 0.17922 0.70292 0.99898 0.0
C263 C 0.21801 0.65998 0.96613 0.0
H264 H 0.21255 0.63491 0.95656 0.0
H265 H 0.27087 0.6818 0.95542 0.0
H266 H 0.24067 0.43997 0.05991 0.0
C267 C 0.22016 0.43901 0.04076 0.0
C268 C 0.1871 0.41905 0.05624 0.0
C269 C 0.22667 0.45883 0.00165 0.0
H270 H 0.13591 0.40568 0.04672 0.0
C271 C 0.16092 0.41919 0.03278 0.0
C272 C 0.1668 0.4387 0.99417 0.0
C273 C 0.19958 0.45808 0.97837 0.0
C274 C 0.26161 0.48323 0.98765 0.0
H275 H 0.20403 0.47358 0.94885 0.0
C276 C 0.28697 0.47457 0.98669 0.0
C277 C 0.32022 0.49869 0.97494 0.0
C278 C 0.26979 0.5161 0.97582 0.0
H279 H 0.25118 0.52388 0.97699 0.0
C280 C 0.30222 0.53968 0.96328 0.0
H281 H 0.28067 0.44909 0.99467 0.0
C282 C 0.32726 0.5312 0.96302 0.0
H283 H 0.35245 0.55053 0.95468 0.0
H284 H 0.30814 0.56492 0.95454 0.0
H285 H 0.47703 0.8839 0.29266 0.0
C286 C 0.45723 0.88716 0.30685 0.0
C287 C 0.44832 0.90888 0.28548 0.0
C288 C 0.43971 0.86895 0.34548 0.0
H289 H 0.41247 0.92574 0.28288 0.0
C290 C 0.42087 0.91104 0.30154 0.0
C291 C 0.40266 0.89252 0.33907 0.0
C292 C 0.41347 0.87317 0.36223 0.0
C293 C 0.44639 0.84339 0.36659 0.0
H294 H 0.40036 0.8603 0.39255 0.0
C295 C 0.47891 0.84793 0.36911 0.0
C296 C 0.48446 0.82334 0.38926 0.0
C297 C 0.41958 0.81356 0.38404 0.0
H298 H 0.39402 0.80833 0.38138 0.0
C299 C 0.42512 0.78954 0.40454 0.0
H300 H 0.49981 0.87032 0.35516 0.0
C301 C 0.4573 0.79435 0.40723 0.0
H302 H 0.46098 0.77525 0.42317 0.0
H303 H 0.40427 0.76691 0.41801 0.0
H304 H 0.1329 0.59189 0.27446 0.0
C305 C 0.12846 0.56864 0.28965 0.0
C306 C 0.1058 0.53827 0.26835 0.0
C307 C 0.14584 0.56877 0.32917 0.0
H308 H 0.08457 0.4845 0.26765 0.0
C309 C 0.10109 0.50788 0.28528 0.0
C310 C 0.11895 0.5076 0.32323 0.0
C311 C 0.14031 0.53776 0.3459 0.0
C312 C 0.16943 0.60086 0.35316 0.0
H313 H 0.15264 0.53668 0.37648 0.0
C314 C 0.16436 0.62856 0.35159 0.0
C315 C 0.18455 0.65802 0.37677 0.0
C316 C 0.19656 0.6039 0.37899 0.0
H317 H 0.20232 0.5838 0.38014 0.0
C318 C 0.21706 0.63331 0.40354 0.0
H319 H 0.14419 0.62717 0.33135 0.0
C320 C 0.21107 0.66023 0.40268 0.0
H321 H 0.22686 0.68255 0.42263 0.0
H322 H 0.2376 0.63516 0.42353 0.0
H323 H 0.41323 0.52812 0.27187 0.0
C324 C 0.4358 0.54887 0.28616 0.0
C325 C 0.46574 0.56238 0.26129 0.0
C326 C 0.43529 0.56318 0.32856 0.0
H327 H 0.51749 0.60089 0.25866 0.0
C328 C 0.49463 0.59011 0.27825 0.0
C329 C 0.49468 0.60393 0.32018 0.0
C330 C 0.46555 0.58977 0.34586 0.0
C331 C 0.40363 0.5525 0.35419 0.0
H332 H 0.46671 0.59994 0.37934 0.0
C333 C 0.37618 0.51941 0.35151 0.0
C334 C 0.34639 0.51076 0.37476 0.0
C335 C 0.40042 0.57629 0.38108 0.0
H336 H 0.42004 0.60236 0.38289 0.0
C337 C 0.37137 0.56723 0.40535 0.0
H338 H 0.37749 0.50055 0.33085 0.0
C339 C 0.34438 0.5347 0.40205 0.0
H340 H 0.32159 0.52833 0.42008 0.0
H341 H 0.36949 0.58579 0.42591 0.0
O342 O 0.5311 0.01153 0.8982 0.0
Mg343 Mg 0.54408 0.99351 0.95499 0.0
O344 O 0.49002 0.01633 0.93035 0.0
Mg345 Mg 0.48501 -0.00421 0.00527 0.0
O346 O 0.50191 0.95789 0.98512 0.0
O347 O 0.53897 0.94689 0.95194 0.0
O348 O 0.48415 0.97529 0.07951 0.0
O349 O 0.43032 0.95048 0.987 0.0
Mg350 Mg 0.43387 -0.00463 0.05957 0.0
O351 O 0.4688 0.03619 0.02526 0.0
O352 O 0.44664 0.98059 0.11882 0.0
O353 O 0.39384 0.96049 0.02131 0.0
O354 O 0.43001 0.03565 0.07232 0.0
C355 C 0.56966 0.04853 0.02031 0.0
C356 C 0.50872 0.01976 0.89642 0.0
C357 C 0.51143 0.93663 0.97377 0.0
C358 C 0.469 0.97258 0.11664 0.0
C359 C 0.40004 0.94305 0.99426 0.0
C360 C 0.45426 0.05129 0.04436 0.0
O361 O 0.57831 0.02964 1.00038 0.0
O362 O 0.53889 0.04056 0.02203 0.0
O363 O 0.00676 0.49835 0.88773 0.0
Mg364 Mg 0.0023 0.52409 0.94229 0.0
O365 O 0.97142 0.45935 0.93244 0.0
Mg366 Mg 0.00034 0.47927 0.00297 0.0
O367 O 0.03995 0.53571 0.98544 0.0
O368 O 0.03677 0.57266 0.93848 0.0
O369 O 0.03106 0.50315 0.07088 0.0
O370 O 0.04008 0.46686 0.97655 0.0
Mg371 Mg 0.00175 0.44152 0.06549 0.0
O372 O 0.96165 0.4215 0.02298 0.0
O373 O -0.00018 0.46811 0.12237 0.0
O374 O 0.04728 0.44721 0.04063 0.0
O375 O 0.97252 0.39251 0.07564 0.0
C376 C 0.94493 0.50358 0.0046 0.0
C377 C 0.98178 0.46964 0.89251 0.0
C378 C 0.05309 0.56546 0.96753 0.0
C379 C 0.02321 0.49685 0.11226 0.0
C380 C 0.05555 0.45589 1.00011 0.0
C381 C 0.95361 0.39368 0.04451 0.0
O382 O 0.95577 0.51623 0.96623 0.0
O383 O 0.95937 0.49097 0.02747 0.0
O384 O 0.51309 0.49506 0.10684 0.0
Mg385 Mg 0.48698 0.47338 0.04757 0.0
O386 O 0.51127 0.53304 0.06549 0.0
Mg387 Mg 0.52192 0.51956 0.99052 0.0
O388 O 0.51195 0.46353 1.00051 0.0
O389 O 0.47425 0.42525 0.04857 0.0
O390 O 0.5299 0.50734 0.91489 0.0
O391 O 0.57759 0.5322 0.01404 0.0
Mg392 Mg 0.57396 0.57241 0.96193 0.0
O393 O 0.53268 0.57552 0.97617 0.0
O394 O 0.58138 0.54809 0.90752 0.0
O395 O 0.60817 0.58686 0.01466 0.0
O396 O 0.57619 0.613 0.93443 0.0
C397 C 0.44073 0.48868 0.99726 0.0
C398 C 0.51059 0.52099 0.10459 0.0
C399 C 0.49674 0.43353 0.01794 0.0
C400 C 0.557 0.52139 0.89238 0.0
C401 C 0.6052 0.55884 0.02423 0.0
C402 C 0.54898 0.60455 0.95597 0.0
O403 O 0.44393 0.47599 0.03327 0.0
O404 O 0.46595 0.50395 0.97114 0.0
O405 O 0.16875 0.32581 0.21776 0.0
Mg406 Mg 0.19336 0.3247 0.27559 0.0
O407 O 0.15104 0.35238 0.26186 0.0
Mg408 Mg 0.14608 0.32975 0.33625 0.0
O409 O 0.16232 0.28976 0.31961 0.0
O410 O 0.20058 0.2853 0.27728 0.0
O411 O 0.14374 0.30635 0.41004 0.0
O412 O 0.09263 0.28696 0.31624 0.0
Mg413 Mg 0.10571 0.33269 0.39767 0.0
O414 O 0.12888 0.37046 0.35247 0.0
O415 O 0.13145 0.33548 0.45667 0.0
O416 O 0.06419 0.28772 0.37535 0.0
O417 O 0.09007 0.3657 0.40293 0.0
C418 C 0.2282 0.3839 0.33671 0.0
C419 C 0.1568 0.34498 0.22234 0.0
C420 C 0.17616 0.27263 0.30556 0.0
C421 C 0.14188 0.31522 0.45047 0.0
C422 C 0.0653 0.27508 0.33785 0.0
C423 C 0.11104 0.38207 0.37141 0.0
O424 O 0.23238 0.36941 0.30303 0.0
O425 O 0.1995 0.37299 0.35444 0.0
O426 O 0.6343 0.83414 0.2586 0.0
Mg427 Mg 0.66236 0.85821 0.31714 0.0
O428 O 0.64877 0.79541 0.26569 0.0
Mg429 Mg 0.66793 0.80973 0.34022 0.0
O430 O 0.70964 0.86679 0.32098 0.0
O431 O 0.69519 0.90398 0.29626 0.0
O432 O 0.68788 0.82919 0.41507 0.0
O433 O 0.71334 0.80244 0.31954 0.0
Mg434 Mg 0.66968 0.76304 0.39535 0.0
O435 O 0.62942 0.75138 0.35525 0.0
O436 O 0.67293 0.78494 0.45727 0.0
O437 O 0.71074 0.76399 0.36602 0.0
O438 O 0.63559 0.71524 0.40071 0.0
C439 C 0.61599 0.83695 0.37654 0.0
C440 C 0.63547 0.80915 0.24274 0.0
C441 C 0.7179 0.89644 0.30528 0.0
C442 C 0.68461 0.8161 0.454 0.0
C443 C 0.72421 0.78334 0.33313 0.0
C444 C 0.61819 0.72141 0.37233 0.0
O445 O 0.64052 0.86621 0.37381 0.0
O446 O 0.61919 0.81284 0.36047 0.0
O447 O 0.13215 0.83146 0.40423 0.0
Mg448 Mg 0.13842 0.80563 0.34948 0.0
O449 O 0.18614 0.86727 0.40167 0.0
Mg450 Mg 0.19115 0.85298 0.32649 0.0
O451 O 0.17704 0.79616 0.34656 0.0
O452 O 0.1263 0.76142 0.37531 0.0
O453 O 0.19237 0.83286 0.25222 0.0
O454 O 0.24613 0.86375 0.34504 0.0
Mg455 Mg 0.23595 0.89971 0.26766 0.0
O456 O 0.20723 0.91012 0.30877 0.0
O457 O 0.21624 0.87598 0.20695 0.0
O458 O 0.27817 0.90166 0.29525 0.0
O459 O 0.24569 0.94628 0.25976 0.0
C460 C 0.11026 0.82395 0.29299 0.0
C461 C 0.15809 0.8554 0.42186 0.0
C462 C 0.15549 0.76717 0.36373 0.0
C463 C 0.20016 0.84472 0.21237 0.0
C464 C 0.27512 0.88364 0.32886 0.0
C465 C 0.22286 0.93958 0.28939 0.0
O466 O 0.10618 0.79476 0.29404 0.0
O467 O 0.13812 0.84823 0.30728 0.0
O468 O 0.82 0.65031 0.55096 0.0
Mg469 Mg 0.8496 0.6571 0.60733 0.0
O470 O 0.82034 0.68871 0.5945 0.0
Mg471 Mg 0.81268 0.66226 0.66828 0.0
O472 O 0.82781 0.62045 0.6531 0.0
O473 O 0.86639 0.62476 0.6026 0.0
O474 O 0.80745 0.63886 0.74194 0.0
O475 O 0.75875 0.61849 0.64255 0.0
Mg476 Mg 0.75843 0.6587 0.70929 0.0
O477 O 0.79769 0.70343 0.68868 0.0
O478 O 0.75841 0.63004 0.76382 0.0
O479 O 0.72268 0.63453 0.65959 0.0
O480 O 0.75584 0.69784 0.73378 0.0
C481 C 0.8908 0.71863 0.66239 0.0
C482 C 0.81951 0.67732 0.55459 0.0
C483 C 0.84473 0.60825 0.63342 0.0
C484 C 0.78369 0.62696 0.77055 0.0
C485 C 0.72943 0.61474 0.63867 0.0
C486 C 0.78185 0.71636 0.70978 0.0
O487 O 0.88909 0.70571 0.62395 0.0
O488 O 0.86636 0.70419 0.68962 0.0
O489 O 0.34718 0.15732 0.5608 0.0
Mg490 Mg 0.33883 0.18086 0.61574 0.0
O491 O 0.3059 0.12248 0.60233 0.0
Mg492 Mg 0.33498 0.14277 0.67335 0.0
O493 O 0.37704 0.2011 0.65989 0.0
O494 O 0.36772 0.22988 0.60612 0.0
O495 O 0.36447 0.16452 0.74258 0.0
O496 O 0.37403 0.12903 0.64853 0.0
Mg497 Mg 0.3317 0.1031 0.73468 0.0
O498 O 0.29357 0.08485 0.68951 0.0
O499 O 0.32961 0.12968 0.79136 0.0
O500 O 0.37609 0.10501 0.71171 0.0
O501 O 0.29899 0.05501 0.74577 0.0
C502 C 0.2804 0.16547 0.67109 0.0
C503 C 0.31869 0.13173 0.56328 0.0
C504 C 0.38618 0.22901 0.63815 0.0
C505 C 0.35497 0.15759 0.78337 0.0
C506 C 0.38658 0.11502 0.67216 0.0
C507 C 0.28241 0.05678 0.71186 0.0
O508 O 0.29059 0.17361 0.6311 0.0
O509 O 0.29561 0.15603 0.69785 0.0
O510 O 0.83197 0.1512 0.77502 0.0
Mg511 Mg 0.80745 0.12863 0.71617 0.0
O512 O 0.84603 0.19683 0.73637 0.0
Mg513 Mg 0.85415 0.18216 0.66009 0.0
O514 O 0.83943 0.1261 0.67359 0.0
O515 O 0.79867 0.08176 0.71113 0.0
O516 O 0.85717 0.16295 0.58547 0.0
O517 O 0.90898 0.19356 0.67875 0.0
Mg518 Mg 0.89957 0.23072 0.60041 0.0
O519 O 0.87023 0.23915 0.64353 0.0
O520 O 0.8791 0.20614 0.54012 0.0
O521 O 0.94109 0.23026 0.62755 0.0
O522 O 0.90767 0.27701 0.59463 0.0
C523 C 0.77141 0.15343 0.66037 0.0
C524 C 0.83883 0.18129 0.7743 0.0
C525 C 0.82487 0.09474 0.68588 0.0
C526 C 0.86424 0.17486 0.54555 0.0
C527 C 0.93779 0.21233 0.66144 0.0
C528 C 0.88511 0.26898 0.62514 0.0
O529 O 0.76786 0.13426 0.69283 0.0
O530 O 0.79998 0.17152 0.64222 0.0
C531 C 0.31024 0.87998 0.9713 0.0
C532 C 0.30876 0.84986 0.98412 0.0
C533 C 0.34098 0.90999 0.96883 0.0
C534 C 0.37123 0.9109 0.97914 0.0
H535 H 0.28739 0.88075 0.96608 0.0
H536 H 0.34086 0.93316 0.96246 0.0
S537 S 0.38102 0.83833 0.01058 0.0
N538 N 0.34028 0.82224 0.00385 0.0
N539 N 0.39802 0.8787 0.9988 0.0
C540 C 0.37031 0.88046 0.98797 0.0
C541 C 0.339 0.84989 0.99072 0.0
C542 C 0.14314 0.47574 0.97809 0.0
C543 C 0.1392 0.44328 0.97697 0.0
C544 C 0.11521 0.48012 0.98025 0.0
C545 C 0.08279 0.45219 0.98115 0.0
H546 H 0.16777 0.49765 0.98236 0.0
H547 H 0.11911 0.5052 0.98572 0.0
S548 S 0.05904 0.36265 0.96896 0.0
N549 N 0.10037 0.38328 0.96855 0.0
N550 N 0.04792 0.39159 0.97384 0.0
C551 C 0.07846 0.41998 0.97472 0.0
C552 C 0.10675 0.41551 0.97203 0.0
C553 C 0.54962 0.68648 0.94718 0.0
C554 C 0.55077 0.69528 0.99295 0.0
C555 C 0.54618 0.65536 0.93477 0.0
C556 C 0.5428 0.63193 0.96777 0.0
H557 H 0.55259 0.70418 0.92106 0.0
H558 H 0.54751 0.6501 0.89933 0.0
S559 S 0.54401 0.64325 0.0919 0.0
N560 N 0.54728 0.67794 0.07109 0.0
N561 N 0.54123 0.61983 0.04773 0.0
C562 C 0.5427 0.64006 0.01343 0.0
C563 C 0.54661 0.6717 0.02602 0.0
C564 C 0.89548 0.30364 0.01042 0.0
C565 C 0.86366 0.30036 0.01558 0.0
C566 C 0.92459 0.33421 0.0195 0.0
C567 C 0.92281 0.3625 0.0336 0.0
H568 H 0.89791 0.28258 0.99858 0.0
H569 H 0.94866 0.33588 0.01489 0.0
S570 S 0.84641 0.36584 0.06042 0.0
N571 N 0.83249 0.32739 0.04064 0.0
N572 N 0.88762 0.38465 0.05837 0.0
C573 C 0.89151 0.35929 0.04131 0.0
C574 C 0.86179 0.32817 0.03231 0.0
C575 C 0.69765 0.58861 0.03041 0.0
C576 C 0.69844 0.55858 0.02631 0.0
C577 C 0.66726 0.58822 0.03491 0.0
C578 C 0.63632 0.55774 0.03421 0.0
H579 H 0.72054 0.6126 0.02756 0.0
H580 H 0.66806 0.6122 0.03542 0.0
S581 S 0.62561 0.47206 0.03119 0.0
N582 N 0.66645 0.49753 0.02771 0.0
N583 N 0.60909 0.49664 0.03518 0.0
C584 C 0.6371 0.52747 0.03422 0.0
C585 C 0.66822 0.52794 0.03033 0.0
C586 C 0.4642 0.12374 0.97467 0.0
C587 C 0.46181 0.14476 0.00754 0.0
C588 C 0.46489 0.09468 0.98699 0.0
C589 C 0.46287 0.08567 0.03252 0.0
H590 H 0.4649 0.12948 0.93911 0.0
H591 H 0.46494 0.07819 0.96068 0.0
S592 S 0.45897 0.13343 0.13159 0.0
N593 N 0.45946 0.15557 0.08754 0.0
N594 N 0.46082 0.10096 0.11075 0.0
C595 C 0.46212 0.10729 0.06577 0.0
C596 C 0.46155 0.13686 0.05328 0.0
C597 C 0.65595 0.12019 0.0497 0.0
C598 C 0.6529 0.14872 0.04207 0.0
C599 C 0.62825 0.08771 0.04561 0.0
C600 C 0.59638 0.08251 0.03406 0.0
H601 H 0.68005 0.12297 0.05824 0.0
H602 H 0.63202 0.06643 0.05016 0.0
S603 S 0.57493 0.14887 0.01096 0.0
N604 N 0.61538 0.16971 0.02262 0.0
N605 N 0.56322 0.10868 0.01596 0.0
C606 C 0.59268 0.11084 0.02809 0.0
C607 C 0.62097 0.14393 0.03174 0.0
C608 C 0.8842 0.5297 0.04751 0.0
C609 C 0.85311 0.50052 0.03985 0.0
C610 C 0.9142 0.53016 0.03773 0.0
C611 C 0.91386 0.50143 0.0204 0.0
H612 H 0.88528 0.55217 0.06118 0.0
H613 H 0.93776 0.55322 0.04313 0.0
S614 S 0.83906 0.42044 0.98925 0.0
N615 N 0.82383 0.44326 0.01063 0.0
N616 N 0.88019 0.44411 0.99277 0.0
C617 C 0.88302 0.47238 0.01198 0.0
C618 C 0.85261 0.47193 0.02163 0.0
C619 C 0.53817 0.38344 0.04298 0.0
C620 C 0.52468 0.35804 0.00968 0.0
C621 C 0.53054 0.40927 0.04333 0.0
C622 C 0.50938 0.4106 0.01035 0.0
H623 H 0.5536 0.38264 0.07003 0.0
H624 H 0.54014 0.42758 0.07069 0.0
S625 S 0.4691 0.35181 0.91456 0.0
N626 N 0.49066 0.33719 0.94113 0.0
N627 N 0.47564 0.3856 0.9432 0.0
C628 C 0.49645 0.3862 0.9762 0.0
C629 C 0.5043 0.3599 0.97552 0.0
C630 C 0.14254 0.62378 0.937 0.0
C631 C 0.15733 0.63849 0.97861 0.0
C632 C 0.10862 0.59977 0.93428 0.0
C633 C 0.08871 0.5893 0.97316 0.0
H634 H 0.15706 0.63161 0.90624 0.0
H635 H 0.09781 0.58941 0.90142 0.0
S636 S 0.11585 0.61932 0.09023 0.0
N637 N 0.14992 0.64087 0.05962 0.0
N638 N 0.08593 0.59441 0.05446 0.0
C639 C 0.10327 0.60298 0.01517 0.0
C640 C 0.13775 0.62807 0.01787 0.0
C641 C 0.37426 0.50479 0.94523 0.0
C642 C 0.34842 0.49147 0.97761 0.0
C643 C 0.40355 0.50287 0.95068 0.0
C644 C 0.40812 0.48722 0.98854 0.0
H645 H 0.37224 0.51764 0.91587 0.0
H646 H 0.42308 0.51455 0.92568 0.0
S647 S 0.34703 0.4461 0.08167 0.0
N648 N 0.32909 0.46105 0.0481 0.0
N649 N 0.38287 0.45591 0.0575 0.0
C650 C 0.38162 0.47218 0.01993 0.0
C651 C 0.35212 0.4746 0.01464 0.0
C652 C 0.49022 0.85629 0.03066 0.0
C653 C 0.47528 0.83286 0.99512 0.0
C654 C 0.49841 0.88986 0.02545 0.0
C655 C 0.49201 0.9009 0.98452 0.0
H656 H 0.49699 0.84893 0.06188 0.0
H657 H 0.51208 0.90777 0.05227 0.0
S658 S 0.45174 0.84933 0.88229 0.0
N659 N 0.45274 0.82268 0.91864 0.0
N660 N 0.46856 0.886 0.90888 0.0
C661 C 0.47542 0.87743 0.94975 0.0
C662 C 0.46689 0.84326 0.95506 0.0
C663 C 0.97362 0.21718 0.31987 0.0
C664 C 0.97145 0.18548 0.31811 0.0
C665 C 0.00465 0.24676 0.32214 0.0
C666 C 0.03454 0.24576 0.32113 0.0
H667 H 0.95123 0.21906 0.32297 0.0
H668 H 0.00526 0.27043 0.32761 0.0
S669 S 0.0432 0.17036 0.30781 0.0
N670 N 0.00243 0.15552 0.30974 0.0
N671 N 0.06065 0.21167 0.31145 0.0
C672 C 0.03298 0.21488 0.31375 0.0
C673 C 0.00137 0.18452 0.31267 0.0
C674 C 0.78153 0.75139 0.30329 0.0
C675 C 0.81284 0.77976 0.31249 0.0
C676 C 0.75246 0.7537 0.30398 0.0
C677 C 0.75392 0.78443 0.31374 0.0
H678 H 0.77921 0.72679 0.29984 0.0
H679 H 0.72847 0.73074 0.30117 0.0
S680 S 0.83018 0.86666 0.33405 0.0
N681 N 0.84406 0.8401 0.32648 0.0
N682 N 0.78916 0.84429 0.32752 0.0
C683 C 0.78528 0.81357 0.31789 0.0
C684 C 0.81493 0.81125 0.31732 0.0
C685 C 0.22409 0.02224 0.28288 0.0
C686 C 0.21056 0.02355 0.32445 0.0
C687 C 0.22639 0.99398 0.27103 0.0
C688 C 0.21545 0.96642 0.30059 0.0
H689 H 0.23432 0.04368 0.26054 0.0
H690 H 0.23794 -0.00567 0.23907 0.0
S691 S 0.17674 0.95822 0.41265 0.0
N692 N 0.18465 -0.00467 0.39428 0.0
N693 N 0.18918 0.94203 0.37231 0.0
C694 C 0.20041 0.96704 0.34137 0.0
C695 C 0.19801 -0.00423 0.35326 0.0
C696 C 0.55579 0.63385 0.33497 0.0
C697 C 0.52542 0.6339 0.336 0.0
C698 C 0.58579 0.6628 0.34587 0.0
C699 C 0.58644 0.69282 0.35758 0.0
H700 H 0.55633 0.61128 0.32556 0.0
H701 H 0.60872 0.66174 0.34505 0.0
S702 S 0.51367 0.70549 0.36789 0.0
N703 N 0.49751 0.66594 0.35123 0.0
N704 N 0.55448 0.72071 0.37196 0.0
C705 C 0.55637 0.69323 0.35935 0.0
C706 C 0.52563 0.66356 0.34867 0.0
C707 C 0.36712 0.91917 0.34848 0.0
C708 C 0.37001 0.89012 0.3497 0.0
C709 C 0.33572 0.91682 0.34655 0.0
C710 C 0.30599 0.8854 0.3462 0.0
H711 H 0.38929 0.94379 0.34603 0.0
H712 H 0.33473 0.93973 0.34217 0.0
S713 S 0.29957 0.80202 0.35509 0.0
N714 N 0.34019 0.82899 0.35505 0.0
N715 N 0.28123 0.82497 0.35234 0.0
C716 C 0.30837 0.8564 0.35196 0.0
C717 C 0.34041 0.85868 0.35348 0.0
C718 C 0.08672 0.44763 0.34696 0.0
C719 C 0.11748 0.47604 0.33653 0.0
C720 C 0.08497 0.41717 0.35767 0.0
C721 C 0.11377 0.41396 0.35724 0.0
H722 H 0.064 0.44908 0.3471 0.0
H723 H 0.06082 0.39588 0.36611 0.0
S724 S 0.20007 0.48116 0.33196 0.0
N725 N 0.17722 0.4994 0.32646 0.0
N726 N 0.17381 0.44177 0.34592 0.0
C727 C 0.14456 0.4421 0.34645 0.0
C728 C 0.14643 0.47328 0.33636 0.0
C729 C 0.288 0.47663 0.34683 0.0
C730 C 0.31604 0.47786 0.36756 0.0
C731 C 0.2588 0.44589 0.33888 0.0
C732 C 0.25668 0.41562 0.35202 0.0
H733 H 0.28899 0.49956 0.3357 0.0
H734 H 0.23826 0.44561 0.32078 0.0
S735 S 0.32217 0.40528 0.40945 0.0
N736 N 0.33944 0.44634 0.40248 0.0
N737 N 0.28415 0.38833 0.38745 0.0
C738 C 0.28417 0.41645 0.37341 0.0
C739 C 0.31401 0.44771 0.38131 0.0
C740 C 0.52208 0.79975 0.37521 0.0
C741 C 0.51816 0.82678 0.38994 0.0
C742 C 0.55368 0.80257 0.37353 0.0
C743 C 0.5826 0.83246 0.38671 0.0
H744 H 0.50066 0.77657 0.36336 0.0
H745 H 0.55557 0.78172 0.35975 0.0
S746 S 0.58541 0.90952 0.43205 0.0
N747 N 0.54543 0.88354 0.42096 0.0
N748 N 0.60494 0.88897 0.418 0.0
C749 C 0.57884 0.85923 0.40334 0.0
C750 C 0.54663 0.8564 0.40477 0.0
C751 C 0.20312 0.71949 0.3702 0.0
C752 C 0.17726 0.68604 0.37622 0.0
C753 C 0.19612 0.74583 0.36631 0.0
C754 C 0.16307 0.73958 0.36842 0.0
H755 H 0.22884 0.72524 0.36741 0.0
H756 H 0.21664 0.77114 0.36145 0.0
S757 S 0.08649 0.65637 0.38519 0.0
N758 N 0.11758 0.64845 0.38659 0.0
N759 N 0.10417 0.69718 0.37679 0.0
C760 C 0.13707 0.70621 0.3749 0.0
C761 C 0.14423 0.67966 0.37949 0.0
C762 C 0.81278 0.94351 0.31205 0.0
C763 C 0.82133 0.97403 0.2907 0.0
C764 C 0.77926 0.91803 0.31576 0.0
C765 C 0.7533 0.92225 0.29803 0.0
H766 H 0.83202 0.93985 0.32747 0.0
H767 H 0.77363 0.89541 0.33386 0.0
S768 S 0.76343 -0.00367 0.23417 0.0
N769 N 0.80186 0.00609 0.2483 0.0
N770 N 0.73898 0.95851 0.25486 0.0
C771 C 0.76186 0.9522 0.27472 0.0
C772 C 0.79586 0.97801 0.27115 0.0
C773 C 0.05305 0.85968 0.3115 0.0
C774 C 0.02168 0.83378 0.2962 0.0
C775 C 0.08185 0.85705 0.30778 0.0
C776 C 0.08055 0.82821 0.28897 0.0
H777 H 0.05535 0.88219 0.327 0.0
H778 H 0.10509 0.87741 0.32129 0.0
S779 S 0.00485 0.75376 0.24185 0.0
N780 N 0.99121 0.77889 0.25975 0.0
N781 N 0.04532 0.77349 0.2535 0.0
C782 C 0.0494 0.8022 0.27297 0.0
C783 C 0.01998 0.805 0.2766 0.0
C784 C 0.16454 0.19467 0.36274 0.0
C785 C 0.14708 0.1699 0.32937 0.0
C786 C 0.17199 0.22798 0.35654 0.0
C787 C 0.16218 0.23726 0.31681 0.0
H788 H 0.17291 0.18834 0.39345 0.0
H789 H 0.18664 0.24679 0.38196 0.0
S790 S 0.11716 0.18259 0.21881 0.0
N791 N 0.12081 0.15735 0.25498 0.0
N792 N 0.13485 0.21993 0.24364 0.0
C793 C 0.14444 0.21281 0.2836 0.0
C794 C 0.13682 0.17905 0.2898 0.0
C795 C 0.66854 0.52254 0.63056 0.0
C796 C 0.63831 0.52261 0.62441 0.0
C797 C 0.69944 0.55252 0.62867 0.0
C798 C 0.70085 0.58335 0.62066 0.0
H799 H 0.66821 0.49999 0.64195 0.0
H800 H 0.72175 0.55199 0.63877 0.0
S801 S 0.62948 0.59507 0.58948 0.0
N802 N 0.61214 0.55454 0.60053 0.0
N803 N 0.67017 0.61089 0.59641 0.0
C804 C 0.67118 0.58277 0.60777 0.0
C805 C 0.63982 0.55235 0.60992 0.0
C806 C 0.47385 0.1347 0.64655 0.0
C807 C 0.47075 0.10265 0.64983 0.0
C808 C 0.44561 0.13854 0.64896 0.0
C809 C 0.41372 0.11045 0.65479 0.0
H810 H 0.49834 0.15713 0.64676 0.0
H811 H 0.4491 0.16369 0.65058 0.0
S812 S 0.39159 0.02101 0.65411 0.0
N813 N 0.43279 0.0422 0.65013 0.0
N814 N 0.37979 0.04956 0.65604 0.0
C815 C 0.40994 0.07822 0.65288 0.0
C816 C 0.43852 0.07426 0.64982 0.0
C817 C 0.8735 0.34411 0.6174 0.0
C818 C 0.87573 0.35378 0.66282 0.0
C819 C 0.87453 0.3151 0.6056 0.0
C820 C 0.87738 0.2949 0.63893 0.0
H821 H 0.87259 0.35983 0.59092 0.0
H822 H 0.87434 0.30908 0.57011 0.0
S823 S 0.88358 0.30966 0.76235 0.0
N824 N 0.8792 0.34034 0.74128 0.0
N825 N 0.88245 0.2865 0.71871 0.0
C826 C 0.87827 0.30359 0.6844 0.0
C827 C 0.87709 0.33294 0.69643 0.0
C828 C 0.20973 0.9673 0.71515 0.0
C829 C 0.19384 0.9639 0.67357 0.0
C830 C 0.23801 -0.00225 0.72739 0.0
C831 C 0.25115 0.02593 0.69862 0.0
H832 H 0.20059 0.94617 0.73794 0.0
H833 H 0.24976 -0.00101 0.75962 0.0
S834 S 0.21565 0.02996 0.58785 0.0
N835 N 0.19114 0.99104 0.60491 0.0
N836 N 0.24437 0.04855 0.62775 0.0
C837 C 0.23458 0.02295 0.65752 0.0
C838 C 0.20592 0.99184 0.64503 0.0
C839 C 0.02544 0.23877 0.6997 0.0
C840 C 0.03218 0.21715 0.67369 0.0
C841 C 0.99324 0.23504 0.6997 0.0
C842 C 0.967 0.20937 0.67417 0.0
H843 H 0.04549 0.25964 0.71805 0.0
H844 H 0.98937 0.25354 0.71738 0.0
S845 S 0.97224 0.14646 0.60106 0.0
N846 N 0.01023 0.16913 0.62269 0.0
N847 N 0.94991 0.16202 0.62298 0.0
C848 C 0.97327 0.1868 0.64989 0.0
C849 C 0.00587 0.19073 0.64959 0.0
C850 C 0.79311 0.79097 0.64415 0.0
C851 C 0.78638 0.80913 0.6768 0.0
C852 C 0.79478 0.76236 0.65596 0.0
C853 C 0.78923 0.75081 0.70066 0.0
H854 H 0.79657 0.79867 0.60912 0.0
H855 H 0.79835 0.74808 0.62949 0.0
S856 S 0.77269 0.7908 0.79893 0.0
N857 N 0.7761 0.81495 0.75579 0.0
N858 N 0.77846 0.76063 0.77807 0.0
C859 C 0.78369 0.76952 0.73386 0.0
C860 C 0.78244 0.79885 0.7219 0.0
C861 C 0.9636 0.78779 0.72885 0.0
C862 C 0.98232 0.81071 0.69473 0.0
C863 C 0.93343 0.75818 0.71865 0.0
C864 C 0.92115 0.75078 0.67404 0.0
H865 H 0.97252 0.79267 0.76349 0.0
H866 H 0.92005 0.74074 0.74556 0.0
S867 S 0.95839 0.8054 0.57416 0.0
N868 N 0.98487 0.82576 0.61584 0.0
N869 N 0.92831 0.77051 0.59651 0.0
C870 C 0.93909 0.77425 0.64009 0.0
C871 C 0.96968 0.80413 0.65047 0.0
C872 C 0.18924 0.13677 0.68667 0.0
C873 C 0.18993 0.1653 0.70574 0.0
C874 C 0.21883 0.13684 0.6764 0.0
C875 C 0.25002 0.16532 0.68523 0.0
H876 H 0.16557 0.11437 0.67899 0.0
H877 H 0.21732 0.11463 0.66099 0.0
S878 S 0.26588 0.24608 0.73526 0.0
N879 N 0.22464 0.22265 0.73341 0.0
N880 N 0.28044 0.2226 0.71393 0.0
C881 C 0.25129 0.19393 0.70436 0.0
C882 C 0.22115 0.19399 0.71464 0.0
C883 C 0.83868 0.02612 0.64292 0.0
C884 C 0.85738 0.02323 0.67855 0.0
C885 C 0.83035 0.05151 0.6432 0.0
C886 C 0.84097 0.0749 0.67871 0.0
H887 H 0.82943 0.00791 0.61548 0.0
H888 H 0.81418 0.05183 0.61683 0.0
S889 S 0.89024 0.07862 0.77963 0.0
N890 N 0.88622 0.04613 0.7501 0.0
N891 N 0.87107 0.09438 0.74987 0.0
C892 C 0.86069 0.07321 0.71353 0.0
C893 C 0.86889 0.04724 0.71359 0.0
C894 C 0.47671 0.28387 0.67427 0.0
C895 C 0.48624 0.31405 0.65127 0.0
C896 C 0.44372 0.25695 0.67207 0.0
C897 C 0.41921 0.25926 0.64652 0.0
H898 H 0.49506 0.28083 0.69338 0.0
H899 H 0.4378 0.2338 0.68903 0.0
S900 S 0.43127 0.33378 0.58199 0.0
N901 N 0.46851 0.34513 0.60337 0.0
N902 N 0.40645 0.29522 0.6001 0.0
C903 C 0.42821 0.28996 0.62501 0.0
C904 C 0.46174 0.31718 0.62712 0.0
C905 C 0.71491 0.18928 0.63764 0.0
C906 C 0.68293 0.1602 0.63367 0.0
C907 C 0.74392 0.18705 0.64337 0.0
C908 C 0.74198 0.15567 0.64631 0.0
H909 H 0.71758 0.21409 0.63745 0.0
H910 H 0.76776 0.20999 0.64767 0.0
S911 S 0.66556 0.07199 0.63557 0.0
N912 N 0.65202 0.09896 0.63003 0.0
N913 N 0.70636 0.09502 0.64364 0.0
C914 C 0.71053 0.12647 0.64199 0.0
C915 C 0.68106 0.12865 0.6351 0.0
C916 C 0.82801 0.52718 0.68823 0.0
C917 C 0.81784 0.50501 0.65093 0.0
C918 C 0.8362 0.5608 0.68293 0.0
C919 C 0.83529 0.57308 0.64001 0.0
H920 H 0.82941 0.51837 0.72159 0.0
H921 H 0.84385 0.57735 0.71219 0.0
S922 S 0.81044 0.52515 0.53204 0.0
N923 N 0.80701 0.4975 0.57017 0.0
N924 N 0.82327 0.56084 0.55992 0.0
C925 C 0.82533 0.55118 0.60259 0.0
C926 C 0.81638 0.51702 0.60811 0.0
C927 C 0.46051 0.90911 0.20292 0.0
C928 C 0.46465 0.92712 0.24341 0.0
C929 C 0.46604 0.92501 0.16071 0.0
C930 C 0.47586 0.9593 0.15801 0.0
H931 H 0.45008 0.88209 0.20371 0.0
H932 H 0.45955 0.90977 0.13023 0.0
S933 S 0.49538 0.01847 0.25405 0.0
N934 N 0.48341 0.98181 0.27805 0.0
N935 N 0.49353 0.01147 0.19904 0.0
C936 C 0.48314 0.97805 0.19825 0.0
C937 C 0.47762 0.96201 0.24093 0.0
C938 C 0.09973 0.5311 0.1853 0.0
C939 C 0.08846 0.53746 0.22618 0.0
C940 C 0.07947 0.52133 0.14655 0.0
C941 C 0.04712 0.51699 0.14795 0.0
H942 H 0.12338 0.5315 0.18413 0.0
H943 H 0.08803 0.51431 0.11654 0.0
S944 S 0.0079 0.53471 0.24515 0.0
N945 N 0.04472 0.54247 0.2646 0.0
N946 N 0.00608 0.52305 0.1918 0.0
C947 C 0.03653 0.52551 0.18769 0.0
C948 C 0.0574 0.53604 0.22693 0.0
C949 C 0.48049 0.56789 0.17976 0.0
C950 C 0.46914 0.54769 0.21852 0.0
C951 C 0.49363 0.55899 0.14298 0.0
C952 C 0.49706 0.53028 0.14419 0.0
H953 H 0.48047 0.59147 0.17873 0.0
H954 H 0.50159 0.57489 0.11368 0.0
S955 S 0.46717 0.46704 0.23627 0.0
N956 N 0.45905 0.49625 0.25446 0.0
N957 N 0.48439 0.47964 0.18616 0.0
C958 C 0.48417 0.50901 0.18208 0.0
C959 C 0.47006 0.51771 0.21898 0.0
C960 C 0.95696 0.4556 0.77023 0.0
C961 C 0.92253 0.44433 0.77163 0.0
C962 C 0.97544 0.46111 0.80993 0.0
C963 C 0.96018 0.45547 0.85251 0.0
H964 H 0.96956 0.45972 0.73809 0.0
H965 H 0.00211 0.47069 0.80734 0.0
S966 S 0.87062 0.42554 0.8743 0.0
N967 N 0.87366 0.427 0.81873 0.0
N968 N 0.90868 0.43811 0.89378 0.0
C969 C 0.92572 0.44389 0.85444 0.0
C970 C 0.90689 0.4384 0.81389 0.0
C971 C 0.53657 0.47489 0.77876 0.0
C972 C 0.56842 0.48821 0.75909 0.0
C973 C 0.53276 0.48485 0.82249 0.0
C974 C 0.56073 0.5083 0.84794 0.0
H975 H 0.51448 0.45719 0.75992 0.0
H976 H 0.50779 0.47472 0.83597 0.0
S977 S 0.64992 0.54697 0.81347 0.0
N978 N 0.62846 0.52336 0.76997 0.0
N979 N 0.62166 0.54218 0.85115 0.0
C980 C 0.59278 0.5206 0.82903 0.0
C981 C 0.59653 0.51054 0.78491 0.0
C982 C 0.52864 0.08753 0.81092 0.0
C983 C 0.52193 0.06961 0.76989 0.0
C984 C 0.52133 0.07075 0.85254 0.0
C985 C 0.50702 0.03559 0.85423 0.0
H986 H 0.53958 0.11462 0.81075 0.0
H987 H 0.52829 0.08546 0.88353 0.0
S988 S 0.48315 0.97728 0.75628 0.0
N989 N 0.49862 0.01488 0.73346 0.0
N990 N 0.48575 0.9835 0.81154 0.0
C991 C 0.49953 0.01747 0.81341 0.0
C992 C 0.50669 0.03444 0.77124 0.0
C993 C 0.12095 0.2441 0.53096 0.0
C994 C 0.12962 0.26106 0.57289 0.0
C995 C 0.12845 0.26203 0.49022 0.0
C996 C 0.14445 0.29739 0.49042 0.0
H997 H 0.10611 0.2169 0.52981 0.0
H998 H 0.11899 0.24807 0.45885 0.0
S999 S 0.17681 0.35326 0.59118 0.0
N1000 N 0.15851 0.31484 0.61197 0.0
N1001 N 0.17251 0.34857 0.53575 0.0
C1002 C 0.15575 0.31447 0.53202 0.0
C1003 C 0.14826 0.29628 0.57324 0.0
C1004 C 0.75102 0.87538 0.53425 0.0
C1005 C 0.73768 0.85968 0.57583 0.0
C1006 C 0.73195 0.86401 0.49433 0.0
C1007 C 0.69914 0.8366 0.49508 0.0
H1008 H 0.77724 0.89429 0.53178 0.0
H1009 H 0.74411 0.87431 0.46242 0.0
S1010 S 0.65011 0.79311 0.59661 0.0
N1011 N 0.68772 0.8202 0.61643 0.0
N1012 N 0.65203 0.79863 0.5414 0.0
C1013 C 0.68428 0.82379 0.53709 0.0
C1014 C 0.70356 0.83535 0.57756 0.0
C1015 C 0.12811 0.8879 0.51788 0.0
C1016 C 0.13861 0.87761 0.55612 0.0
C1017 C 0.1357 0.88173 0.47422 0.0
C1018 C 0.155 0.8662 0.46753 0.0
H1019 H 0.11456 0.90136 0.5218 0.0
H1020 H 0.12628 0.889 0.44544 0.0
S1021 S 0.18535 0.83142 0.55647 0.0
N1022 N 0.16699 0.84892 0.58458 0.0
N1023 N 0.1817 0.83786 0.5024 0.0
C1024 C 0.16496 0.85513 0.50544 0.0
C1025 C 0.15676 0.86085 0.5498 0.0
C1026 C 0.57927 0.75775 0.14615 0.0
C1027 C 0.59135 0.78081 0.1103 0.0
C1028 C 0.59483 0.76621 0.18876 0.0
C1029 C 0.62288 0.79801 0.1966 0.0
H1030 H 0.55733 0.73316 0.14128 0.0
H1031 H 0.58415 0.74835 0.21605 0.0
S1032 S 0.66647 0.86565 0.11265 0.0
N1033 N 0.6346 0.83538 0.08429 0.0
N1034 N 0.66368 0.85164 0.16466 0.0
C1035 C 0.63591 0.82076 0.16061 0.0
C1036 C 0.62019 0.81207 0.11726 0.0
C1037 C 0.20145 0.82302 0.09075 0.0
C1038 C 0.21509 0.80176 0.09309 0.0
C1039 C 0.19263 0.83374 0.13007 0.0
C1040 C 0.1973 0.82367 0.17301 0.0
H1041 H 0.19943 0.83298 0.05854 0.0
H1042 H 0.1845 0.85208 0.12707 0.0
S1043 S 0.22968 0.76601 0.19691 0.0
N1044 N 0.23058 0.76898 0.1413 0.0
N1045 N 0.214 0.78926 0.21534 0.0
C1046 C 0.20832 0.80024 0.17557 0.0
C1047 C 0.21735 0.78933 0.13548 0.0
C1048 C 0.1921 0.41655 0.14037 0.0
C1049 C 0.17889 0.39988 0.09894 0.0
C1050 C 0.18198 0.39913 0.18144 0.0
C1051 C 0.15851 0.3645 0.18226 0.0
H1052 H 0.21029 0.44319 0.141 0.0
H1053 H 0.19395 0.41241 0.21249 0.0
S1054 S 0.11547 0.30973 0.08337 0.0
N1055 N 0.14007 0.34718 0.06153 0.0
N1056 N 0.12169 0.31447 0.13855 0.0
C1057 C 0.14456 0.34784 0.14122 0.0
C1058 C 0.1546 0.36551 0.09961 0.0
C1059 C 0.749 0.56633 0.86725 0.0
C1060 C 0.7752 0.57946 0.89914 0.0
C1061 C 0.75313 0.58053 0.82447 0.0
C1062 C 0.78371 0.60837 0.81142 0.0
H1063 H 0.72444 0.54606 0.87642 0.0
H1064 H 0.73157 0.57062 0.80213 0.0
S1065 S 0.86144 0.64967 0.88041 0.0
N1066 N 0.83379 0.61993 0.91353 0.0
N1067 N 0.84173 0.64658 0.83232 0.0
C1068 C 0.81102 0.62011 0.84151 0.0
C1069 C 0.80671 0.60565 0.8856 0.0
C1070 C 0.38417 0.18645 0.90277 0.0
C1071 C 0.41804 0.19565 0.9004 0.0
C1072 C 0.36419 0.17672 0.86365 0.0
C1073 C 0.37763 0.17607 0.82124 0.0
H1074 H 0.37277 0.18516 0.93519 0.0
H1075 H 0.33772 0.16798 0.86688 0.0
S1076 S 0.46529 0.19854 0.79818 0.0
N1077 N 0.46444 0.20441 0.85313 0.0
N1078 N 0.42714 0.18636 0.77944 0.0
C1079 C 0.41194 0.18697 0.81842 0.0
C1080 C 0.4321 0.19662 0.85819 0.0
C1081 C 0.82911 0.23954 0.85732 0.0
C1082 C 0.80922 0.21749 0.89177 0.0
C1083 C 0.8388 0.22781 0.81961 0.0
C1084 C 0.82922 0.19382 0.81484 0.0
H1085 H 0.83809 0.26626 0.86027 0.0
H1086 H 0.85446 0.24538 0.79443 0.0
S1087 S 0.77437 0.12528 0.89374 0.0
N1088 N 0.77859 0.15982 0.91739 0.0
N1089 N 0.79606 0.13753 0.84663 0.0
C1090 C 0.80804 0.17128 0.84828 0.0
C1091 C 0.79812 0.18319 0.88651 0.0
C1092 C 0.25427 0.0803 0.47413 0.0
C1093 C 0.25475 0.10529 0.44599 0.0
C1094 C 0.27518 0.08883 0.51207 0.0
C1095 C 0.29703 0.12254 0.52319 0.0
H1096 H 0.23794 0.05388 0.46626 0.0
H1097 H 0.27488 0.06905 0.53214 0.0
S1098 S 0.30663 0.1974 0.46238 0.0
N1099 N 0.27825 0.165 0.43272 0.0
N1100 N 0.31698 0.18122 0.50488 0.0
C1101 C 0.29718 0.14778 0.49612 0.0
C1102 C 0.27601 0.1391 0.45742 0.0
C1103 C 0.88044 0.11959 0.46741 0.0
C1104 C 0.87663 0.13088 0.42489 0.0
C1105 C 0.87256 0.13089 0.50735 0.0
C1106 C 0.86079 0.15384 0.50566 0.0
H1107 H 0.89216 0.10428 0.46999 0.0
H1108 H 0.87867 0.12414 0.53955 0.0
S1109 S 0.84082 0.1858 0.40239 0.0
N1110 N 0.85599 0.16227 0.38331 0.0
N1111 N 0.8412 0.18344 0.45802 0.0
C1112 C 0.85381 0.16249 0.46319 0.0
C1113 C 0.86178 0.15106 0.42282 0.0
C1114 C 0.84125 0.70393 0.43258 0.0
C1115 C 0.85479 0.73886 0.43436 0.0
C1116 C 0.82828 0.68427 0.47126 0.0
C1117 C 0.82817 0.69868 0.51355 0.0
H1118 H 0.84015 0.6916 0.40075 0.0
H1119 H 0.81863 0.65746 0.46794 0.0
S1120 S 0.85856 0.78925 0.53485 0.0
N1121 N 0.86554 0.78716 0.48052 0.0
N1122 N 0.84176 0.75039 0.55387 0.0
C1123 C 0.841 0.73369 0.51546 0.0
C1124 C 0.85421 0.75372 0.47577 0.0
loop_
_geom_bond_atom_site_label_1
_geom_bond_atom_site_label_2
_geom_bond_distance
_geom_bond_site_symmetry_2
_ccdc_geom_bond_type
H0 C1 0.949 . S
C1 H0 0.949 . S
C1 C2 1.395 . S
C1 C3 1.391 . S
C2 C1 1.395 . S
C2 C5 1.390 . S
C3 C1 1.391 . S
C3 C7 1.387 . S
C3 C8 1.491 . S
H4 C5 0.950 . S
C5 C2 1.390 . S
C5 H4 0.950 . S
C5 C6 1.378 . S
C6 C5 1.378 . S
C6 C7 1.409 . S
C7 C3 1.387 . S
C7 C6 1.409 . S
C7 H9 0.951 . S
C8 C3 1.491 . S
C8 C10 1.382 . S
C8 C12 1.404 . S
H9 C7 0.951 . S
C10 C8 1.382 . S
C10 C11 1.390 . S
C10 H15 0.949 . S
C11 C10 1.390 . S
C11 C16 1.399 . S
C12 C8 1.404 . S
C12 H13 0.950 . S
C12 C14 1.375 . S
H13 C12 0.950 . S
C14 C12 1.375 . S
C14 C16 1.382 . S
C14 H18 0.950 . S
H15 C10 0.949 . S
C16 C11 1.399 . S
C16 C14 1.382 . S
C16 H17 0.952 . S
H17 C16 0.952 . S
H18 C14 0.950 . S
H19 C20 0.949 . S
C20 H19 0.949 . S
C20 C21 1.395 . S
C20 C22 1.391 . S
C21 C20 1.395 . S
C21 C24 1.390 . S
C22 C20 1.391 . S
C22 C26 1.387 . S
C22 C27 1.491 . S
H23 C24 0.950 . S
C24 C21 1.390 . S
C24 H23 0.950 . S
C24 C25 1.378 . S
C25 C24 1.378 . S
C25 C26 1.409 . S
C26 C22 1.387 . S
C26 C25 1.409 . S
C26 H28 0.951 . S
C27 C22 1.491 . S
C27 C29 1.382 . S
C27 C31 1.404 . S
H28 C26 0.951 . S
C29 C27 1.382 . S
C29 C30 1.390 . S
C29 H34 0.949 . S
C30 C29 1.390 . S
C30 C35 1.399 1_545 S
C31 C27 1.404 . S
C31 H32 0.950 . S
C31 C33 1.375 . S
H32 C31 0.950 . S
C33 C31 1.375 . S
C33 C35 1.382 1_545 S
C33 H37 0.950 . S
H34 C29 0.949 . S
C35 C30 1.399 1_565 S
C35 C33 1.382 1_565 S
C35 H36 0.952 . S
H36 C35 0.952 . S
H37 C33 0.950 . S
H38 C39 0.949 . S
C39 H38 0.949 . S
C39 C40 1.395 . S
C39 C41 1.391 . S
C40 C39 1.395 . S
C40 C43 1.390 . S
C41 C39 1.391 . S
C41 C45 1.387 . S
C41 C46 1.491 . S
H42 C43 0.950 . S
C43 C40 1.390 . S
C43 H42 0.950 . S
C43 C44 1.378 . S
C44 C43 1.378 . S
C44 C45 1.409 . S
C45 C41 1.387 . S
C45 C44 1.409 . S
C45 H47 0.951 . S
C46 C41 1.491 . S
C46 C48 1.382 . S
C46 C50 1.404 . S
H47 C45 0.951 . S
C48 C46 1.382 . S
C48 C49 1.390 . S
C48 H53 0.949 . S
C49 C48 1.390 . S
C49 C54 1.399 1_655 S
C50 C46 1.404 . S
C50 H51 0.950 . S
C50 C52 1.375 . S
H51 C50 0.950 . S
C52 C50 1.375 . S
C52 C54 1.385 1_655 S
C52 H56 0.950 . S
H53 C48 0.949 . S
C54 C49 1.399 1_455 S
C54 C52 1.385 1_455 S
C54 H55 0.949 . S
H55 C54 0.949 . S
H56 C52 0.950 . S
H57 C58 0.949 . S
C58 H57 0.949 . S
C58 C59 1.395 . S
C58 C60 1.391 . S
C59 C58 1.395 . S
C59 C62 1.390 . S
C60 C58 1.391 . S
C60 C64 1.387 . S
C60 C65 1.491 . S
H61 C62 0.950 . S
C62 C59 1.390 . S
C62 H61 0.950 . S
C62 C63 1.378 . S
C63 C62 1.378 . S
C63 C64 1.409 . S
C64 C60 1.387 . S
C64 C63 1.409 . S
C64 H66 0.951 . S
C65 C60 1.491 . S
C65 C67 1.382 . S
C65 C69 1.404 . S
H66 C64 0.951 . S
C67 C65 1.382 . S
C67 C68 1.390 . S
C67 H72 0.949 . S
C68 C67 1.390 . S
C68 C73 1.399 . S
C69 C65 1.404 . S
C69 H70 0.950 . S
C69 C71 1.375 . S
H70 C69 0.950 . S
C71 C69 1.375 . S
C71 C73 1.382 . S
C71 H75 0.950 . S
H72 C67 0.949 . S
C73 C68 1.399 . S
C73 C71 1.382 . S
C73 H74 0.952 . S
H74 C73 0.952 . S
H75 C71 0.950 . S
H76 C77 0.949 . S
C77 H76 0.949 . S
C77 C78 1.395 . S
C77 C79 1.391 . S
C78 C77 1.395 . S
C78 C81 1.390 . S
C79 C77 1.391 . S
C79 C83 1.387 . S
C79 C84 1.491 . S
H80 C81 0.950 . S
C81 C78 1.390 . S
C81 H80 0.950 . S
C81 C82 1.378 . S
C82 C81 1.378 . S
C82 C83 1.409 . S
C83 C79 1.387 . S
C83 C82 1.409 . S
C83 H85 0.951 . S
C84 C79 1.491 . S
C84 C86 1.382 . S
C84 C88 1.404 . S
H85 C83 0.951 . S
C86 C84 1.382 . S
C86 C87 1.390 . S
C86 H91 0.949 . S
C87 C86 1.390 . S
C87 C92 1.399 1_565 S
C88 C84 1.404 . S
C88 H89 0.950 . S
C88 C90 1.375 . S
H89 C88 0.950 . S
C90 C88 1.375 . S
C90 C92 1.382 1_565 S
C90 H94 0.950 . S
H91 C86 0.949 . S
C92 C87 1.399 1_545 S
C92 C90 1.382 1_545 S
C92 H93 0.952 . S
H93 C92 0.952 . S
H94 C90 0.950 . S
H95 C96 0.949 . S
C96 H95 0.949 . S
C96 C97 1.395 . S
C96 C98 1.391 . S
C97 C96 1.395 . S
C97 C100 1.390 . S
C98 C96 1.391 . S
C98 C102 1.387 . S
C98 C103 1.491 . S
H99 C100 0.950 . S
C100 C97 1.390 . S
C100 H99 0.950 . S
C100 C101 1.378 . S
C101 C100 1.378 . S
C101 C102 1.409 . S
C102 C98 1.387 . S
C102 C101 1.409 . S
C102 H104 0.951 . S
C103 C98 1.491 . S
C103 C105 1.382 . S
C103 C107 1.404 . S
H104 C102 0.951 . S
C105 C103 1.382 . S
C105 C106 1.390 . S
C105 H110 0.949 . S
C106 C105 1.390 . S
C106 C111 1.399 . S
C107 C103 1.404 . S
C107 H108 0.950 . S
C107 C109 1.375 . S
H108 C107 0.950 . S
C109 C107 1.375 . S
C109 C111 1.382 . S
C109 H113 0.950 . S
H110 C105 0.949 . S
C111 C106 1.399 . S
C111 C109 1.382 . S
C111 H112 0.952 1_455 S
H112 C111 0.952 1_655 S
H113 C109 0.950 . S
H114 C115 0.949 . S
C115 H114 0.949 . S
C115 C116 1.395 . S
C115 C117 1.391 . S
C116 C115 1.395 . S
C116 C119 1.390 . S
C117 C115 1.391 . S
C117 C121 1.387 . S
C117 C122 1.491 . S
H118 C119 0.950 . S
C119 C116 1.390 . S
C119 H118 0.950 . S
C119 C120 1.378 . S
C120 C119 1.378 . S
C120 C121 1.409 . S
C121 C117 1.387 . S
C121 C120 1.409 . S
C121 H123 0.951 . S
C122 C117 1.491 . S
C122 C124 1.382 . S
C122 C126 1.404 . S
H123 C121 0.951 . S
C124 C122 1.382 . S
C124 C125 1.390 . S
C124 H129 0.949 . S
C125 C124 1.390 . S
C125 C130 1.399 . S
C126 C122 1.404 . S
C126 H127 0.950 . S
C126 C128 1.375 . S
H127 C126 0.950 . S
C128 C126 1.375 . S
C128 C130 1.382 . S
C128 H132 0.950 . S
H129 C124 0.949 . S
C130 C125 1.399 . S
C130 C128 1.382 . S
C130 H131 0.952 . S
H131 C130 0.952 . S
H132 C128 0.950 . S
H133 C134 0.949 . S
C134 H133 0.949 . S
C134 C135 1.395 . S
C134 C136 1.391 . S
C135 C134 1.395 . S
C135 C138 1.390 . S
C136 C134 1.391 . S
C136 C140 1.387 . S
C136 C141 1.491 . S
H137 C138 0.950 . S
C138 C135 1.390 . S
C138 H137 0.950 . S
C138 C139 1.378 . S
C139 C138 1.378 . S
C139 C140 1.409 . S
C140 C136 1.387 . S
C140 C139 1.409 . S
C140 H142 0.951 . S
C141 C136 1.491 . S
C141 C143 1.382 . S
C141 C145 1.404 . S
H142 C140 0.951 . S
C143 C141 1.382 . S
C143 C144 1.390 . S
C143 H148 0.949 . S
C144 C143 1.390 . S
C144 C149 1.399 . S
C145 C141 1.404 . S
C145 H146 0.950 . S
C145 C147 1.375 . S
H146 C145 0.950 . S
C147 C145 1.375 . S
C147 C149 1.382 . S
C147 H151 0.950 . S
H148 C143 0.949 . S
C149 C144 1.399 . S
C149 C147 1.382 . S
C149 H150 0.952 . S
H150 C149 0.952 . S
H151 C147 0.950 . S
H152 C153 0.949 . S
C153 H152 0.949 . S
C153 C154 1.395 . S
C153 C155 1.391 . S
C154 C153 1.395 . S
C154 C157 1.390 . S
C155 C153 1.391 . S
C155 C159 1.387 . S
C155 C160 1.491 . S
H156 C157 0.950 . S
C157 C154 1.390 . S
C157 H156 0.950 . S
C157 C158 1.378 . S
C158 C157 1.378 . S
C158 C159 1.409 . S
C159 C155 1.387 . S
C159 C158 1.409 . S
C159 H161 0.951 . S
C160 C155 1.491 . S
C160 C162 1.382 . S
C160 C164 1.404 . S
H161 C159 0.951 . S
C162 C160 1.382 . S
C162 C163 1.390 . S
C162 H167 0.949 . S
C163 C162 1.390 . S
C163 C168 1.399 . S
C164 C160 1.404 . S
C164 H165 0.950 . S
C164 C166 1.375 . S
H165 C164 0.950 . S
C166 C164 1.375 . S
C166 C168 1.382 . S
C166 H170 0.950 . S
H167 C162 0.949 . S
C168 C163 1.399 . S
C168 C166 1.382 . S
C168 H169 0.952 . S
H169 C168 0.952 . S
H170 C166 0.950 . S
H171 C172 0.949 . S
C172 H171 0.949 . S
C172 C173 1.395 . S
C172 C174 1.391 1_556 S
C173 C172 1.395 . S
C173 C176 1.390 . S
C174 C172 1.391 1_554 S
C174 C178 1.387 . S
C174 C179 1.491 . S
H175 C176 0.950 . S
C176 C173 1.390 . S
C176 H175 0.950 . S
C176 C177 1.378 1_556 S
C177 C176 1.378 1_554 S
C177 C178 1.409 . S
C178 C174 1.387 . S
C178 C177 1.409 . S
C178 H180 0.951 . S
C179 C174 1.491 . S
C179 C181 1.382 . S
C179 C183 1.404 . S
H180 C178 0.951 . S
C181 C179 1.382 . S
C181 C182 1.390 . S
C181 H186 0.949 . S
C182 C181 1.390 . S
C182 C187 1.399 . S
C183 C179 1.404 . S
C183 H184 0.950 . S
C183 C185 1.375 . S
H184 C183 0.950 . S
C185 C183 1.375 . S
C185 C187 1.382 . S
C185 H189 0.950 . S
H186 C181 0.949 . S
C187 C182 1.399 . S
C187 C185 1.382 . S
C187 H188 0.952 . S
H188 C187 0.952 . S
H189 C185 0.950 . S
H190 C191 0.949 . S
C191 H190 0.949 . S
C191 C192 1.395 . S
C191 C193 1.391 1_556 S
C192 C191 1.395 . S
C192 C195 1.390 . S
C193 C191 1.391 1_554 S
C193 C197 1.387 . S
C193 C198 1.491 . S
H194 C195 0.950 . S
C195 C192 1.390 . S
C195 H194 0.950 . S
C195 C196 1.378 1_556 S
C196 C195 1.378 1_554 S
C196 C197 1.409 . S
C197 C193 1.387 . S
C197 C196 1.409 . S
C197 H199 0.951 . S
C198 C193 1.491 . S
C198 C200 1.382 . S
C198 C202 1.404 . S
H199 C197 0.951 . S
C200 C198 1.382 . S
C200 C201 1.390 . S
C200 H205 0.949 . S
C201 C200 1.390 . S
C201 C206 1.399 . S
C202 C198 1.404 . S
C202 H203 0.950 . S
C202 C204 1.375 . S
H203 C202 0.950 . S
C204 C202 1.375 . S
C204 C206 1.382 . S
C204 H208 0.950 . S
H205 C200 0.949 . S
C206 C201 1.399 . S
C206 C204 1.382 . S
C206 H207 0.952 . S
H207 C206 0.952 . S
H208 C204 0.950 . S
H209 C210 0.949 . S
C210 H209 0.949 . S
C210 C211 1.395 . S
C210 C212 1.391 1_556 S
C211 C210 1.395 . S
C211 C214 1.390 . S
C212 C210 1.391 1_554 S
C212 C216 1.387 . S
C212 C217 1.491 . S
H213 C214 0.950 . S
C214 C211 1.390 . S
C214 H213 0.950 . S
C214 C215 1.378 1_556 S
C215 C214 1.378 1_554 S
C215 C216 1.409 . S
C216 C212 1.387 . S
C216 C215 1.409 . S
C216 H218 0.951 . S
C217 C212 1.491 . S
C217 C219 1.382 . S
C217 C221 1.404 . S
H218 C216 0.951 . S
C219 C217 1.382 . S
C219 C220 1.390 . S
C219 H224 0.949 . S
C220 C219 1.390 . S
C220 C225 1.399 . S
C221 C217 1.404 . S
C221 H222 0.950 . S
C221 C223 1.375 . S
H222 C221 0.950 . S
C223 C221 1.375 . S
C223 C225 1.382 . S
C223 H227 0.950 . S
H224 C219 0.949 . S
C225 C220 1.399 . S
C225 C223 1.382 . S
C225 H226 0.952 . S
H226 C225 0.952 . S
H227 C223 0.950 . S
H228 C229 0.949 . S
C229 H228 0.949 . S
C229 C230 1.395 . S
C229 C231 1.391 1_554 S
C230 C229 1.395 . S
C230 C233 1.390 . S
C231 C229 1.391 1_556 S
C231 C235 1.387 . S
C231 C236 1.491 . S
H232 C233 0.950 . S
C233 C230 1.390 . S
C233 H232 0.950 . S
C233 C234 1.378 1_554 S
C234 C233 1.378 1_556 S
C234 C235 1.409 . S
C235 C231 1.387 . S
C235 C234 1.409 . S
C235 H237 0.951 . S
C236 C231 1.491 . S
C236 C238 1.382 . S
C236 C240 1.404 . S
H237 C235 0.951 . S
C238 C236 1.382 . S
C238 C239 1.390 . S
C238 H243 0.949 . S
C239 C238 1.390 . S
C239 C244 1.399 . S
C240 C236 1.404 . S
C240 H241 0.950 . S
C240 C242 1.375 . S
H241 C240 0.950 . S
C242 C240 1.375 . S
C242 C244 1.382 . S
C242 H246 0.950 . S
H243 C238 0.949 . S
C244 C239 1.399 . S
C244 C242 1.382 . S
C244 H245 0.952 . S
H245 C244 0.952 . S
H246 C242 0.950 . S
H247 C248 0.949 . S
C248 H247 0.949 . S
C248 C249 1.395 . S
C248 C250 1.391 1_554 S
C249 C248 1.395 . S
C249 C252 1.390 . S
C250 C248 1.391 1_556 S
C250 C254 1.387 . S
C250 C255 1.491 . S
H251 C252 0.950 . S
C252 C249 1.390 . S
C252 H251 0.950 . S
C252 C253 1.378 1_554 S
C253 C252 1.378 1_556 S
C253 C254 1.409 . S
C254 C250 1.387 . S
C254 C253 1.409 . S
C254 H256 0.951 . S
C255 C250 1.491 . S
C255 C257 1.382 . S
C255 C259 1.404 . S
H256 C254 0.951 . S
C257 C255 1.382 . S
C257 C258 1.390 . S
C257 H262 0.949 . S
C258 C257 1.390 . S
C258 C263 1.399 . S
C259 C255 1.404 . S
C259 H260 0.950 . S
C259 C261 1.375 . S
H260 C259 0.950 . S
C261 C259 1.375 . S
C261 C263 1.382 . S
C261 H265 0.950 . S
H262 C257 0.949 . S
C263 C258 1.399 . S
C263 C261 1.382 . S
C263 H264 0.952 . S
H264 C263 0.952 . S
H265 C261 0.950 . S
H266 C267 0.949 . S
C267 H266 0.949 . S
C267 C268 1.395 . S
C267 C269 1.380 1_554 S
C268 C267 1.395 . S
C268 C271 1.390 . S
C269 C267 1.380 1_556 S
C269 C273 1.393 . S
C269 C274 1.496 . S
H270 C271 0.950 . S
C271 C268 1.390 . S
C271 H270 0.950 . S
C271 C272 1.378 1_554 S
C272 C271 1.378 1_556 S
C272 C273 1.409 . S
C273 C269 1.393 . S
C273 C272 1.409 . S
C273 H275 0.951 . S
C274 C269 1.496 . S
C274 C276 1.382 . S
C274 C278 1.404 . S
H275 C273 0.951 . S
C276 C274 1.382 . S
C276 C277 1.390 . S
C276 H281 0.949 . S
C277 C276 1.390 . S
C277 C282 1.399 . S
C278 C274 1.404 . S
C278 H279 0.950 . S
C278 C280 1.375 . S
H279 C278 0.950 . S
C280 C278 1.375 . S
C280 C282 1.382 . S
C280 H284 0.950 . S
H281 C276 0.949 . S
C282 C277 1.399 . S
C282 C280 1.382 . S
C282 H283 0.952 . S
H283 C282 0.952 . S
H284 C280 0.950 . S
H285 C286 0.949 . S
C286 H285 0.949 . S
C286 C287 1.395 . S
C286 C288 1.391 . S
C287 C286 1.395 . S
C287 C290 1.390 . S
C288 C286 1.391 . S
C288 C292 1.387 . S
C288 C293 1.491 . S
H289 C290 0.950 . S
C290 C287 1.390 . S
C290 H289 0.950 . S
C290 C291 1.378 . S
C291 C290 1.378 . S
C291 C292 1.409 . S
C292 C288 1.387 . S
C292 C291 1.409 . S
C292 H294 0.951 . S
C293 C288 1.491 . S
C293 C295 1.382 . S
C293 C297 1.404 . S
H294 C292 0.951 . S
C295 C293 1.382 . S
C295 C296 1.390 . S
C295 H300 0.949 . S
C296 C295 1.390 . S
C296 C301 1.399 . S
C297 C293 1.404 . S
C297 H298 0.950 . S
C297 C299 1.375 . S
H298 C297 0.950 . S
C299 C297 1.375 . S
C299 C301 1.382 . S
C299 H303 0.950 . S
H300 C295 0.949 . S
C301 C296 1.399 . S
C301 C299 1.382 . S
C301 H302 0.952 . S
H302 C301 0.952 . S
H303 C299 0.950 . S
H304 C305 0.949 . S
C305 H304 0.949 . S
C305 C306 1.395 . S
C305 C307 1.391 . S
C306 C305 1.395 . S
C306 C309 1.390 . S
C307 C305 1.391 . S
C307 C311 1.387 . S
C307 C312 1.491 . S
H308 C309 0.950 . S
C309 C306 1.390 . S
C309 H308 0.950 . S
C309 C310 1.378 . S
C310 C309 1.378 . S
C310 C311 1.409 . S
C311 C307 1.387 . S
C311 C310 1.409 . S
C311 H313 0.951 . S
C312 C307 1.491 . S
C312 C314 1.382 . S
C312 C316 1.404 . S
H313 C311 0.951 . S
C314 C312 1.382 . S
C314 C315 1.390 . S
C314 H319 0.949 . S
C315 C314 1.390 . S
C315 C320 1.399 . S
C316 C312 1.404 . S
C316 H317 0.950 . S
C316 C318 1.375 . S
H317 C316 0.950 . S
C318 C316 1.375 . S
C318 C320 1.382 . S
C318 H322 0.950 . S
H319 C314 0.949 . S
C320 C315 1.399 . S
C320 C318 1.382 . S
C320 H321 0.952 . S
H321 C320 0.952 . S
H322 C318 0.950 . S
H323 C324 0.949 . S
C324 H323 0.949 . S
C324 C325 1.395 . S
C324 C326 1.391 . S
C325 C324 1.395 . S
C325 C328 1.390 . S
C326 C324 1.391 . S
C326 C330 1.387 . S
C326 C331 1.491 . S
H327 C328 0.950 . S
C328 C325 1.390 . S
C328 H327 0.950 . S
C328 C329 1.378 . S
C329 C328 1.378 . S
C329 C330 1.409 . S
C330 C326 1.387 . S
C330 C329 1.409 . S
C330 H332 0.951 . S
C331 C326 1.491 . S
C331 C333 1.382 . S
C331 C335 1.404 . S
H332 C330 0.951 . S
C333 C331 1.382 . S
C333 C334 1.390 . S
C333 H338 0.949 . S
C334 C333 1.390 . S
C334 C339 1.399 . S
C335 C331 1.404 . S
C335 H336 0.950 . S
C335 C337 1.375 . S
H336 C335 0.950 . S
C337 C335 1.375 . S
C337 C339 1.382 . S
C337 H341 0.950 . S
H338 C333 0.949 . S
C339 C334 1.399 . S
C339 C337 1.382 . S
C339 H340 0.952 . S
H340 C339 0.952 . S
H341 C337 0.950 . S
O342 Mg343 1.990 . S
O342 C356 1.253 . S
Mg343 O342 1.990 . S
Mg343 O346 2.180 1_545 S
Mg343 O347 2.117 1_545 S
Mg343 O361 2.030 . S
O344 Mg345 2.072 1_556 S
O344 C356 1.260 . S
Mg345 O344 2.072 1_554 S
Mg345 O346 2.099 1_544 S
Mg345 O348 2.079 1_545 S
Mg345 O349 2.072 1_544 S
Mg345 O351 2.099 . S
Mg345 O362 2.079 . S
O346 Mg343 2.180 1_565 S
O346 Mg345 2.099 1_566 S
O346 C357 1.279 . S
O347 Mg343 2.117 1_565 S
O347 C357 1.250 . S
O348 Mg345 2.079 1_565 S
O348 C358 1.264 . S
O349 Mg345 2.072 1_566 S
O349 C359 1.260 1_556 S
Mg350 O351 2.180 . S
Mg350 O352 2.030 1_545 S
Mg350 O353 1.990 1_545 S
Mg350 O354 2.117 . S
O351 Mg345 2.099 . S
O351 Mg350 2.180 . S
O351 C360 1.279 . S
O352 Mg350 2.030 1_565 S
O352 C358 1.248 . S
O353 Mg350 1.990 1_565 S
O353 C359 1.253 . S
O354 Mg350 2.117 . S
O354 C360 1.250 . S
C355 O361 1.248 . S
C355 O362 1.264 1_556 S
C356 O342 1.253 . S
C356 O344 1.260 . S
C357 O346 1.279 . S
C357 O347 1.250 . S
C358 O348 1.264 . S
C358 O352 1.248 . S
C359 O349 1.260 1_554 S
C359 O353 1.253 . S
C360 O351 1.279 . S
C360 O354 1.250 . S
O361 Mg343 2.030 . S
O361 C355 1.248 . S
O362 Mg345 2.079 . S
O362 C355 1.264 1_554 S
O363 Mg364 1.990 1_655 S
O363 C377 1.253 . S
Mg364 O363 1.990 1_455 S
Mg364 O367 2.180 . S
Mg364 O368 2.117 . S
Mg364 O382 2.030 1_455 S
O365 Mg366 2.072 1_656 S
O365 C377 1.260 . S
Mg366 O365 2.072 1_454 S
Mg366 O367 2.099 1_554 S
Mg366 O369 2.079 . S
Mg366 O370 2.072 1_554 S
Mg366 O372 2.099 1_455 S
Mg366 O383 2.079 1_455 S
O367 Mg364 2.180 . S
O367 Mg366 2.099 1_556 S
O367 C378 1.279 . S
O368 Mg364 2.117 . S
O368 C378 1.250 . S
O369 Mg366 2.079 . S
O369 C379 1.264 . S
O370 Mg366 2.072 1_556 S
O370 C380 1.260 1_556 S
Mg371 O372 2.180 1_455 S
Mg371 O373 2.030 . S
Mg371 O374 1.990 . S
Mg371 O375 2.117 1_455 S
O372 Mg366 2.099 1_655 S
O372 Mg371 2.180 1_655 S
O372 C381 1.279 . S
O373 Mg371 2.030 . S
O373 C379 1.248 . S
O374 Mg371 1.990 . S
O374 C380 1.253 . S
O375 Mg371 2.117 1_655 S
O375 C381 1.250 . S
C376 O382 1.261 . S
C376 O383 1.256 1_556 S
C377 O363 1.253 . S
C377 O365 1.260 . S
C378 O367 1.279 . S
C378 O368 1.250 . S
C379 O369 1.264 . S
C379 O373 1.248 . S
C380 O370 1.260 1_554 S
C380 O374 1.253 . S
C381 O372 1.279 . S
C381 O375 1.250 . S
O382 Mg364 2.030 1_655 S
O382 C376 1.261 . S
O383 Mg366 2.079 1_655 S
O383 C376 1.256 1_554 S
O384 Mg385 1.990 . S
O384 C398 1.253 . S
Mg385 O384 1.990 . S
Mg385 O388 2.180 . S
Mg385 O389 2.117 . S
Mg385 O403 2.030 . S
O386 Mg387 2.072 1_554 S
O386 C398 1.260 . S
Mg387 O386 2.072 1_556 S
Mg387 O388 2.099 1_556 S
Mg387 O390 2.079 . S
Mg387 O391 2.072 1_556 S
Mg387 O393 2.099 . S
Mg387 O404 2.079 . S
O388 Mg385 2.180 . S
O388 Mg387 2.099 1_554 S
O388 C399 1.279 . S
O389 Mg385 2.117 . S
O389 C399 1.250 . S
O390 Mg387 2.079 . S
O390 C400 1.264 . S
O391 Mg387 2.072 1_554 S
O391 C401 1.260 1_554 S
Mg392 O393 2.180 . S
Mg392 O394 2.030 . S
Mg392 O395 1.990 . S
Mg392 O396 2.117 . S
O393 Mg387 2.099 . S
O393 Mg392 2.180 . S
O393 C402 1.279 . S
O394 Mg392 2.030 . S
O394 C400 1.248 . S
O395 Mg392 1.990 . S
O395 C401 1.253 . S
O396 Mg392 2.117 . S
O396 C402 1.250 . S
C397 O403 1.248 . S
C397 O404 1.264 1_554 S
C398 O384 1.253 . S
C398 O386 1.260 . S
C399 O388 1.279 . S
C399 O389 1.250 . S
C400 O390 1.264 . S
C400 O394 1.248 . S
C401 O391 1.260 1_556 S
C401 O395 1.253 . S
C402 O393 1.279 . S
C402 O396 1.250 . S
O403 Mg385 2.030 . S
O403 C397 1.248 . S
O404 Mg387 2.079 . S
O404 C397 1.264 1_556 S
O405 Mg406 1.990 . S
O405 C419 1.253 . S
Mg406 O405 1.990 . S
Mg406 O409 2.180 . S
Mg406 O410 2.117 . S
Mg406 O424 2.030 . S
O407 Mg408 2.072 . S
O407 C419 1.260 . S
Mg408 O407 2.072 . S
Mg408 O409 2.099 . S
Mg408 O411 2.079 . S
Mg408 O412 2.072 . S
Mg408 O414 2.099 . S
Mg408 O425 2.079 . S
O409 Mg406 2.180 . S
O409 Mg408 2.099 . S
O409 C420 1.279 . S
O410 Mg406 2.117 . S
O410 C420 1.250 . S
O411 Mg408 2.079 . S
O411 C421 1.264 . S
O412 Mg408 2.072 . S
O412 C422 1.260 . S
Mg413 O414 2.180 . S
Mg413 O415 2.030 . S
Mg413 O416 1.990 . S
Mg413 O417 2.117 . S
O414 Mg408 2.099 . S
O414 Mg413 2.180 . S
O414 C423 1.279 . S
O415 Mg413 2.030 . S
O415 C421 1.248 . S
O416 Mg413 1.990 . S
O416 C422 1.253 . S
O417 Mg413 2.117 . S
O417 C423 1.250 . S
C418 O424 1.248 . S
C418 O425 1.264 . S
C419 O405 1.253 . S
C419 O407 1.260 . S
C420 O409 1.279 . S
C420 O410 1.250 . S
C421 O411 1.264 . S
C421 O415 1.248 . S
C422 O412 1.260 . S
C422 O416 1.253 . S
C423 O414 1.279 . S
C423 O417 1.250 . S
O424 Mg406 2.030 . S
O424 C418 1.248 . S
O425 Mg408 2.079 . S
O425 C418 1.264 . S
O426 Mg427 1.990 . S
O426 C440 1.253 . S
Mg427 O426 1.990 . S
Mg427 O430 2.180 . S
Mg427 O431 2.117 . S
Mg427 O445 2.030 . S
O428 Mg429 2.072 . S
O428 C440 1.260 . S
Mg429 O428 2.072 . S
Mg429 O430 2.099 . S
Mg429 O432 2.079 . S
Mg429 O433 2.072 . S
Mg429 O435 2.099 . S
Mg429 O446 2.079 . S
O430 Mg427 2.180 . S
O430 Mg429 2.099 . S
O430 C441 1.279 . S
O431 Mg427 2.117 . S
O431 C441 1.250 . S
O432 Mg429 2.079 . S
O432 C442 1.264 . S
O433 Mg429 2.072 . S
O433 C443 1.260 . S
Mg434 O435 2.180 . S
Mg434 O436 2.030 . S
Mg434 O437 1.990 . S
Mg434 O438 2.117 . S
O435 Mg429 2.099 . S
O435 Mg434 2.180 . S
O435 C444 1.279 . S
O436 Mg434 2.030 . S
O436 C442 1.248 . S
O437 Mg434 1.990 . S
O437 C443 1.253 . S
O438 Mg434 2.117 . S
O438 C444 1.250 . S
C439 O445 1.248 . S
C439 O446 1.264 . S
C440 O426 1.253 . S
C440 O428 1.260 . S
C441 O430 1.279 . S
C441 O431 1.250 . S
C442 O432 1.264 . S
C442 O436 1.248 . S
C443 O433 1.260 . S
C443 O437 1.253 . S
C444 O435 1.279 . S
C444 O438 1.250 . S
O445 Mg427 2.030 . S
O445 C439 1.248 . S
O446 Mg429 2.079 . S
O446 C439 1.264 . S
O447 Mg448 1.990 . S
O447 C461 1.253 . S
Mg448 O447 1.990 . S
Mg448 O451 2.180 . S
Mg448 O452 2.117 . S
Mg448 O466 2.030 . S
O449 Mg450 2.072 . S
O449 C461 1.260 . S
Mg450 O449 2.072 . S
Mg450 O451 2.099 . S
Mg450 O453 2.079 . S
Mg450 O454 2.072 . S
Mg450 O456 2.099 . S
Mg450 O467 2.079 . S
O451 Mg448 2.180 . S
O451 Mg450 2.099 . S
O451 C462 1.279 . S
O452 Mg448 2.117 . S
O452 C462 1.250 . S
O453 Mg450 2.079 . S
O453 C463 1.264 . S
O454 Mg450 2.072 . S
O454 C464 1.260 . S
Mg455 O456 2.180 . S
Mg455 O457 2.030 . S
Mg455 O458 1.990 . S
Mg455 O459 2.117 . S
O456 Mg450 2.099 . S
O456 Mg455 2.180 . S
O456 C465 1.279 . S
O457 Mg455 2.030 . S
O457 C463 1.248 . S
O458 Mg455 1.990 . S
O458 C464 1.253 . S
O459 Mg455 2.117 . S
O459 C465 1.250 . S
C460 O466 1.248 . S
C460 O467 1.264 . S
C461 O447 1.253 . S
C461 O449 1.260 . S
C462 O451 1.279 . S
C462 O452 1.250 . S
C463 O453 1.264 . S
C463 O457 1.248 . S
C464 O454 1.260 . S
C464 O458 1.253 . S
C465 O456 1.279 . S
C465 O459 1.250 . S
O466 Mg448 2.030 . S
O466 C460 1.248 . S
O467 Mg450 2.079 . S
O467 C460 1.264 . S
O468 Mg469 1.990 . S
O468 C482 1.253 . S
Mg469 O468 1.990 . S
Mg469 O472 2.180 . S
Mg469 O473 2.117 . S
Mg469 O487 2.030 . S
O470 Mg471 2.072 . S
O470 C482 1.260 . S
Mg471 O470 2.072 . S
Mg471 O472 2.099 . S
Mg471 O474 2.079 . S
Mg471 O475 2.072 . S
Mg471 O477 2.099 . S
Mg471 O488 2.079 . S
O472 Mg469 2.180 . S
O472 Mg471 2.099 . S
O472 C483 1.279 . S
O473 Mg469 2.117 . S
O473 C483 1.250 . S
O474 Mg471 2.079 . S
O474 C484 1.264 . S
O475 Mg471 2.072 . S
O475 C485 1.260 . S
Mg476 O477 2.180 . S
Mg476 O478 2.030 . S
Mg476 O479 1.990 . S
Mg476 O480 2.117 . S
O477 Mg471 2.099 . S
O477 Mg476 2.180 . S
O477 C486 1.279 . S
O478 Mg476 2.030 . S
O478 C484 1.248 . S
O479 Mg476 1.990 . S
O479 C485 1.253 . S
O480 Mg476 2.117 . S
O480 C486 1.250 . S
C481 O487 1.248 . S
C481 O488 1.264 . S
C482 O468 1.253 . S
C482 O470 1.260 . S
C483 O472 1.279 . S
C483 O473 1.250 . S
C484 O474 1.264 . S
C484 O478 1.248 . S
C485 O475 1.260 . S
C485 O479 1.253 . S
C486 O477 1.279 . S
C486 O480 1.250 . S
O487 Mg469 2.030 . S
O487 C481 1.248 . S
O488 Mg471 2.079 . S
O488 C481 1.264 . S
O489 Mg490 1.990 . S
O489 C503 1.253 . S
Mg490 O489 1.990 . S
Mg490 O493 2.180 . S
Mg490 O494 2.117 . S
Mg490 O508 2.030 . S
O491 Mg492 2.072 . S
O491 C503 1.260 . S
Mg492 O491 2.072 . S
Mg492 O493 2.099 . S
Mg492 O495 2.079 . S
Mg492 O496 2.072 . S
Mg492 O498 2.099 . S
Mg492 O509 2.079 . S
O493 Mg490 2.180 . S
O493 Mg492 2.099 . S
O493 C504 1.279 . S
O494 Mg490 2.117 . S
O494 C504 1.250 . S
O495 Mg492 2.079 . S
O495 C505 1.264 . S
O496 Mg492 2.072 . S
O496 C506 1.260 . S
Mg497 O498 2.180 . S
Mg497 O499 2.030 . S
Mg497 O500 1.990 . S
Mg497 O501 2.117 . S
O498 Mg492 2.099 . S
O498 Mg497 2.180 . S
O498 C507 1.279 . S
O499 Mg497 2.030 . S
O499 C505 1.248 . S
O500 Mg497 1.990 . S
O500 C506 1.253 . S
O501 Mg497 2.117 . S
O501 C507 1.250 . S
C502 O508 1.248 . S
C502 O509 1.264 . S
C503 O489 1.253 . S
C503 O491 1.260 . S
C504 O493 1.279 . S
C504 O494 1.250 . S
C505 O495 1.264 . S
C505 O499 1.248 . S
C506 O496 1.260 . S
C506 O500 1.253 . S
C507 O498 1.279 . S
C507 O501 1.250 . S
O508 Mg490 2.030 . S
O508 C502 1.248 . S
O509 Mg492 2.079 . S
O509 C502 1.264 . S
O510 Mg511 1.990 . S
O510 C524 1.253 . S
Mg511 O510 1.990 . S
Mg511 O514 2.180 . S
Mg511 O515 2.117 . S
Mg511 O529 2.030 . S
O512 Mg513 2.072 . S
O512 C524 1.260 . S
Mg513 O512 2.072 . S
Mg513 O514 2.099 . S
Mg513 O516 2.079 . S
Mg513 O517 2.072 . S
Mg513 O519 2.099 . S
Mg513 O530 2.079 . S
O514 Mg511 2.180 . S
O514 Mg513 2.099 . S
O514 C525 1.279 . S
O515 Mg511 2.117 . S
O515 C525 1.250 . S
O516 Mg513 2.079 . S
O516 C526 1.264 . S
O517 Mg513 2.072 . S
O517 C527 1.260 . S
Mg518 O519 2.180 . S
Mg518 O520 2.030 . S
Mg518 O521 1.990 . S
Mg518 O522 2.117 . S
O519 Mg513 2.099 . S
O519 Mg518 2.180 . S
O519 C528 1.279 . S
O520 Mg518 2.030 . S
O520 C526 1.248 . S
O521 Mg518 1.990 . S
O521 C527 1.253 . S
O522 Mg518 2.117 . S
O522 C528 1.250 . S
C523 O529 1.248 . S
C523 O530 1.264 . S
C524 O510 1.253 . S
C524 O512 1.260 . S
C525 O514 1.279 . S
C525 O515 1.250 . S
C526 O516 1.264 . S
C526 O520 1.248 . S
C527 O517 1.260 . S
C527 O521 1.253 . S
C528 O519 1.279 . S
C528 O522 1.250 . S
O529 Mg511 2.030 . S
O529 C523 1.248 . S
O530 Mg513 2.079 . S
O530 C523 1.264 . S
C531 C532 1.369 . S
C531 C533 1.419 . S
C531 H535 0.930 . S
C532 C531 1.369 . S
C532 C541 1.429 1_556 S
C533 C531 1.419 . S
C533 C534 1.363 . S
C533 H536 0.929 . S
C534 C533 1.363 . S
C534 C540 1.428 1_556 S
H535 C531 0.930 . S
H536 C533 0.929 . S
S537 N538 1.613 . S
S537 N539 1.610 . S
N538 S537 1.613 . S
N538 C541 1.350 . S
N539 S537 1.610 . S
N539 C540 1.351 . S
C540 C534 1.428 1_554 S
C540 N539 1.351 . S
C540 C541 1.434 . S
C541 C532 1.429 1_554 S
C541 N538 1.350 . S
C541 C540 1.434 . S
C542 C543 1.369 . S
C542 C544 1.419 . S
C542 H546 0.930 . S
C543 C542 1.369 . S
C543 C552 1.428 . S
C544 C542 1.419 . S
C544 C545 1.363 . S
C544 H547 0.929 . S
C545 C544 1.363 . S
C545 C551 1.428 1_556 S
H546 C542 0.930 . S
H547 C544 0.929 . S
S548 N549 1.613 . S
S548 N550 1.610 . S
N549 S548 1.613 . S
N549 C552 1.350 1_554 S
N550 S548 1.610 . S
N550 C551 1.351 . S
C551 C545 1.428 1_554 S
C551 N550 1.351 . S
C551 C552 1.434 1_554 S
C552 C543 1.428 . S
C552 N549 1.350 1_556 S
C552 C551 1.434 1_556 S
C553 C554 1.369 . S
C553 C555 1.419 . S
C553 H557 0.930 . S
C554 C553 1.369 . S
C554 C563 1.429 1_556 S
C555 C553 1.419 . S
C555 C556 1.363 . S
C555 H558 0.929 . S
C556 C555 1.363 . S
C556 C562 1.428 1_556 S
H557 C553 0.930 . S
H558 C555 0.929 . S
S559 N560 1.613 . S
S559 N561 1.610 . S
N560 S559 1.613 . S
N560 C563 1.350 . S
N561 S559 1.610 . S
N561 C562 1.351 . S
C562 C556 1.428 1_554 S
C562 N561 1.351 . S
C562 C563 1.434 . S
C563 C554 1.429 1_554 S
C563 N560 1.350 . S
C563 C562 1.434 . S
C564 C565 1.369 1_556 S
C564 C566 1.419 . S
C564 H568 0.930 . S
C565 C564 1.369 1_554 S
C565 C574 1.429 . S
C566 C564 1.419 . S
C566 C567 1.363 1_556 S
C566 H569 0.929 . S
C567 C566 1.363 1_554 S
C567 C573 1.428 . S
H568 C564 0.930 . S
H569 C566 0.929 . S
S570 N571 1.613 . S
S570 N572 1.610 . S
N571 S570 1.613 . S
N571 C574 1.350 . S
N572 S570 1.610 . S
N572 C573 1.351 . S
C573 C567 1.428 . S
C573 N572 1.351 . S
C573 C574 1.434 . S
C574 C565 1.429 . S
C574 N571 1.350 . S
C574 C573 1.434 . S
C575 C576 1.369 1_556 S
C575 C577 1.419 . S
C575 H579 0.930 . S
C576 C575 1.369 1_554 S
C576 C585 1.429 . S
C577 C575 1.419 . S
C577 C578 1.363 1_556 S
C577 H580 0.929 . S
C578 C577 1.363 1_554 S
C578 C584 1.428 . S
H579 C575 0.930 . S
H580 C577 0.929 . S
S581 N582 1.613 . S
S581 N583 1.610 . S
N582 S581 1.613 . S
N582 C585 1.350 . S
N583 S581 1.610 . S
N583 C584 1.351 . S
C584 C578 1.428 . S
C584 N583 1.351 . S
C584 C585 1.434 . S
C585 C576 1.429 . S
C585 N582 1.350 . S
C585 C584 1.434 . S
C586 C587 1.369 1_556 S
C586 C588 1.419 . S
C586 H590 0.930 . S
C587 C586 1.369 1_554 S
C587 C596 1.429 . S
C588 C586 1.419 . S
C588 C589 1.363 1_556 S
C588 H591 0.929 . S
C589 C588 1.363 1_554 S
C589 C595 1.428 . S
H590 C586 0.930 . S
H591 C588 0.929 . S
S592 N593 1.613 . S
S592 N594 1.610 . S
N593 S592 1.613 . S
N593 C596 1.350 . S
N594 S592 1.610 . S
N594 C595 1.351 . S
C595 C589 1.428 . S
C595 N594 1.351 . S
C595 C596 1.434 . S
C596 C587 1.429 . S
C596 N593 1.350 . S
C596 C595 1.434 . S
C597 C598 1.369 . S
C597 C599 1.419 . S
C597 H601 0.930 . S
C598 C597 1.369 . S
C598 C607 1.429 . S
C599 C597 1.419 . S
C599 C600 1.363 . S
C599 H602 0.929 . S
C600 C599 1.363 . S
C600 C606 1.428 . S
H601 C597 0.930 . S
H602 C599 0.929 . S
S603 N604 1.613 . S
S603 N605 1.610 . S
N604 S603 1.613 . S
N604 C607 1.350 . S
N605 S603 1.610 . S
N605 C606 1.351 . S
C606 C600 1.428 . S
C606 N605 1.351 . S
C606 C607 1.434 . S
C607 C598 1.429 . S
C607 N604 1.350 . S
C607 C606 1.434 . S
C608 C609 1.369 . S
C608 C610 1.419 . S
C608 H612 0.930 . S
C609 C608 1.369 . S
C609 C618 1.429 . S
C610 C608 1.419 . S
C610 C611 1.363 . S
C610 H613 0.929 . S
C611 C610 1.363 . S
C611 C617 1.428 . S
H612 C608 0.930 . S
H613 C610 0.929 . S
S614 N615 1.613 . S
S614 N616 1.610 . S
N615 S614 1.613 . S
N615 C618 1.350 . S
N616 S614 1.610 . S
N616 C617 1.351 . S
C617 C611 1.428 . S
C617 N616 1.351 . S
C617 C618 1.434 . S
C618 C609 1.429 . S
C618 N615 1.350 . S
C618 C617 1.434 . S
C619 C620 1.369 . S
C619 C621 1.419 . S
C619 H623 0.930 . S
C620 C619 1.369 . S
C620 C629 1.429 . S
C621 C619 1.419 . S
C621 C622 1.363 . S
C621 H624 0.929 . S
C622 C621 1.363 . S
C622 C628 1.428 1_554 S
H623 C619 0.930 . S
H624 C621 0.929 . S
S625 N626 1.613 . S
S625 N627 1.610 . S
N626 S625 1.613 . S
N626 C629 1.350 1_556 S
N627 S625 1.610 . S
N627 C628 1.351 . S
C628 C622 1.428 1_556 S
C628 N627 1.351 . S
C628 C629 1.434 1_556 S
C629 C620 1.429 . S
C629 N626 1.350 1_554 S
C629 C628 1.434 1_554 S
C630 C631 1.369 . S
C630 C632 1.419 . S
C630 H634 0.930 . S
C631 C630 1.369 . S
C631 C640 1.429 1_556 S
C632 C630 1.419 . S
C632 C633 1.363 . S
C632 H635 0.929 . S
C633 C632 1.363 . S
C633 C639 1.428 1_556 S
H634 C630 0.930 . S
H635 C632 0.929 . S
S636 N637 1.613 . S
S636 N638 1.610 . S
N637 S636 1.613 . S
N637 C640 1.350 . S
N638 S636 1.610 . S
N638 C639 1.351 . S
C639 C633 1.428 1_554 S
C639 N638 1.351 . S
C639 C640 1.434 . S
C640 C631 1.429 1_554 S
C640 N637 1.350 . S
C640 C639 1.434 . S
C641 C642 1.369 . S
C641 C643 1.419 . S
C641 H645 0.930 . S
C642 C641 1.369 . S
C642 C651 1.429 . S
C643 C641 1.419 . S
C643 C644 1.363 . S
C643 H646 0.929 . S
C644 C643 1.363 . S
C644 C650 1.428 1_556 S
H645 C641 0.930 . S
H646 C643 0.929 . S
S647 N648 1.613 . S
S647 N649 1.610 . S
N648 S647 1.613 . S
N648 C651 1.350 1_554 S
N649 S647 1.610 . S
N649 C650 1.351 . S
C650 C644 1.428 1_554 S
C650 N649 1.351 . S
C650 C651 1.434 1_554 S
C651 C642 1.429 . S
C651 N648 1.350 1_556 S
C651 C650 1.434 1_556 S
C652 C653 1.369 . S
C652 C654 1.419 1_556 S
C652 H656 0.930 1_556 S
C653 C652 1.369 . S
C653 C662 1.429 . S
C654 C652 1.419 1_554 S
C654 C655 1.363 1_554 S
C654 H657 0.929 . S
C655 C654 1.363 1_556 S
C655 C661 1.428 . S
H656 C652 0.930 1_554 S
H657 C654 0.929 . S
S658 N659 1.613 . S
S658 N660 1.610 . S
N659 S658 1.613 . S
N659 C662 1.350 . S
N660 S658 1.610 . S
N660 C661 1.351 . S
C661 C655 1.428 . S
C661 N660 1.351 . S
C661 C662 1.434 . S
C662 C653 1.429 . S
C662 N659 1.350 . S
C662 C661 1.434 . S
C663 C664 1.369 . S
C663 C665 1.419 1_655 S
C663 H667 0.930 . S
C664 C663 1.369 . S
C664 C673 1.466 . S
C665 C663 1.419 1_455 S
C665 C666 1.363 . S
C665 H668 0.929 . S
C666 C665 1.363 . S
C666 C672 1.428 . S
H667 C663 0.930 . S
H668 C665 0.929 . S
S669 N670 1.600 1_455 S
S669 N671 1.610 . S
N670 S669 1.600 1_655 S
N670 C673 1.338 . S
N671 S669 1.610 . S
N671 C672 1.351 . S
C672 C666 1.428 . S
C672 N671 1.351 . S
C672 C673 1.412 1_455 S
C673 C664 1.466 . S
C673 N670 1.338 . S
C673 C672 1.412 1_655 S
C674 C675 1.369 . S
C674 C676 1.419 . S
C674 H678 0.930 . S
C675 C674 1.369 . S
C675 C684 1.429 . S
C676 C674 1.419 . S
C676 C677 1.363 . S
C676 H679 0.929 . S
C677 C676 1.363 . S
C677 C683 1.428 . S
H678 C674 0.930 . S
H679 C676 0.929 . S
S680 N681 1.613 . S
S680 N682 1.610 . S
N681 S680 1.613 . S
N681 C684 1.350 . S
N682 S680 1.610 . S
N682 C683 1.351 . S
C683 C677 1.428 . S
C683 N682 1.351 . S
C683 C684 1.434 . S
C684 C675 1.429 . S
C684 N681 1.350 . S
C684 C683 1.434 . S
C685 C686 1.369 . S
C685 C687 1.419 1_545 S
C685 H689 0.930 . S
C686 C685 1.369 . S
C686 C695 1.429 . S
C687 C685 1.419 1_565 S
C687 C688 1.363 . S
C687 H690 0.929 . S
C688 C687 1.363 . S
C688 C694 1.428 . S
H689 C685 0.930 . S
H690 C687 0.929 . S
S691 N692 1.613 1_565 S
S691 N693 1.610 . S
N692 S691 1.613 1_545 S
N692 C695 1.350 . S
N693 S691 1.610 . S
N693 C694 1.351 . S
C694 C688 1.428 . S
C694 N693 1.351 . S
C694 C695 1.434 1_565 S
C695 C686 1.429 . S
C695 N692 1.350 . S
C695 C694 1.434 1_545 S
C696 C697 1.369 . S
C696 C698 1.419 . S
C696 H700 0.930 . S
C697 C696 1.369 . S
C697 C706 1.429 . S
C698 C696 1.419 . S
C698 C699 1.363 . S
C698 H701 0.929 . S
C699 C698 1.363 . S
C699 C705 1.428 . S
H700 C696 0.930 . S
H701 C698 0.929 . S
S702 N703 1.613 . S
S702 N704 1.610 . S
N703 S702 1.613 . S
N703 C706 1.350 . S
N704 S702 1.610 . S
N704 C705 1.351 . S
C705 C699 1.428 . S
C705 N704 1.351 . S
C705 C706 1.434 . S
C706 C697 1.429 . S
C706 N703 1.350 . S
C706 C705 1.434 . S
C707 C708 1.369 . S
C707 C709 1.419 . S
C707 H711 0.930 . S
C708 C707 1.369 . S
C708 C717 1.429 . S
C709 C707 1.419 . S
C709 C710 1.363 . S
C709 H712 0.929 . S
C710 C709 1.363 . S
C710 C716 1.428 . S
H711 C707 0.930 . S
H712 C709 0.929 . S
S713 N714 1.613 . S
S713 N715 1.610 . S
N714 S713 1.613 . S
N714 C717 1.350 . S
N715 S713 1.610 . S
N715 C716 1.351 . S
C716 C710 1.428 . S
C716 N715 1.351 . S
C716 C717 1.434 . S
C717 C708 1.429 . S
C717 N714 1.350 . S
C717 C716 1.434 . S
C718 C719 1.369 . S
C718 C720 1.419 . S
C718 H722 0.930 . S
C719 C718 1.369 . S
C719 C728 1.429 . S
C720 C718 1.419 . S
C720 C721 1.363 . S
C720 H723 0.929 . S
C721 C720 1.363 . S
C721 C727 1.428 . S
H722 C718 0.930 . S
H723 C720 0.929 . S
S724 N725 1.613 . S
S724 N726 1.610 . S
N725 S724 1.613 . S
N725 C728 1.350 . S
N726 S724 1.610 . S
N726 C727 1.351 . S
C727 C721 1.428 . S
C727 N726 1.351 . S
C727 C728 1.434 . S
C728 C719 1.429 . S
C728 N725 1.350 . S
C728 C727 1.434 . S
C729 C730 1.369 . S
C729 C731 1.419 . S
C729 H733 0.930 . S
C730 C729 1.369 . S
C730 C739 1.429 . S
C731 C729 1.419 . S
C731 C732 1.363 . S
C731 H734 0.929 . S
C732 C731 1.363 . S
C732 C738 1.428 . S
H733 C729 0.930 . S
H734 C731 0.929 . S
S735 N736 1.613 . S
S735 N737 1.610 . S
N736 S735 1.613 . S
N736 C739 1.350 . S
N737 S735 1.610 . S
N737 C738 1.351 . S
C738 C732 1.428 . S
C738 N737 1.351 . S
C738 C739 1.434 . S
C739 C730 1.429 . S
C739 N736 1.350 . S
C739 C738 1.434 . S
C740 C741 1.369 . S
C740 C742 1.419 . S
C740 H744 0.930 . S
C741 C740 1.369 . S
C741 C750 1.429 . S
C742 C740 1.419 . S
C742 C743 1.363 . S
C742 H745 0.929 . S
C743 C742 1.363 . S
C743 C749 1.428 . S
H744 C740 0.930 . S
H745 C742 0.929 . S
S746 N747 1.613 . S
S746 N748 1.610 . S
N747 S746 1.613 . S
N747 C750 1.350 . S
N748 S746 1.610 . S
N748 C749 1.351 . S
C749 C743 1.428 . S
C749 N748 1.351 . S
C749 C750 1.434 . S
C750 C741 1.429 . S
C750 N747 1.350 . S
C750 C749 1.434 . S
C751 C752 1.369 . S
C751 C753 1.419 . S
C751 H755 0.930 . S
C752 C751 1.369 . S
C752 C761 1.429 . S
C753 C751 1.419 . S
C753 C754 1.363 . S
C753 H756 0.929 . S
C754 C753 1.363 . S
C754 C760 1.428 . S
H755 C751 0.930 . S
H756 C753 0.929 . S
S757 N758 1.613 . S
S757 N759 1.610 . S
N758 S757 1.613 . S
N758 C761 1.350 . S
N759 S757 1.610 . S
N759 C760 1.351 . S
C760 C754 1.428 . S
C760 N759 1.351 . S
C760 C761 1.434 . S
C761 C752 1.429 . S
C761 N758 1.350 . S
C761 C760 1.434 . S
C762 C763 1.369 . S
C762 C764 1.419 . S
C762 H766 0.930 . S
C763 C762 1.369 . S
C763 C772 1.429 . S
C764 C762 1.419 . S
C764 C765 1.363 . S
C764 H767 0.929 . S
C765 C764 1.363 . S
C765 C771 1.428 . S
H766 C762 0.930 . S
H767 C764 0.929 . S
S768 N769 1.613 . S
S768 N770 1.610 . S
N769 S768 1.613 . S
N769 C772 1.350 . S
N770 S768 1.610 . S
N770 C771 1.351 . S
C771 C765 1.428 . S
C771 N770 1.351 . S
C771 C772 1.434 . S
C772 C763 1.429 . S
C772 N769 1.350 . S
C772 C771 1.434 . S
C773 C774 1.369 . S
C773 C775 1.419 . S
C773 H777 0.930 . S
C774 C773 1.369 . S
C774 C783 1.429 . S
C775 C773 1.419 . S
C775 C776 1.363 . S
C775 H778 0.929 . S
C776 C775 1.363 . S
C776 C782 1.428 . S
H777 C773 0.930 . S
H778 C775 0.929 . S
S779 N780 1.613 . S
S779 N781 1.610 . S
N780 S779 1.613 . S
N780 C783 1.350 . S
N781 S779 1.610 . S
N781 C782 1.351 . S
C782 C776 1.428 . S
C782 N781 1.351 . S
C782 C783 1.434 . S
C783 C774 1.429 . S
C783 N780 1.350 . S
C783 C782 1.434 . S
C784 C785 1.369 . S
C784 C786 1.419 . S
C784 H788 0.930 . S
C785 C784 1.369 . S
C785 C794 1.429 . S
C786 C784 1.419 . S
C786 C787 1.363 . S
C786 H789 0.929 . S
C787 C786 1.363 . S
C787 C793 1.428 . S
H788 C784 0.930 . S
H789 C786 0.929 . S
S790 N791 1.613 . S
S790 N792 1.610 . S
N791 S790 1.613 . S
N791 C794 1.350 . S
N792 S790 1.610 . S
N792 C793 1.351 . S
C793 C787 1.428 . S
C793 N792 1.351 . S
C793 C794 1.434 . S
C794 C785 1.429 . S
C794 N791 1.350 . S
C794 C793 1.434 . S
C795 C796 1.369 . S
C795 C797 1.419 . S
C795 H799 0.930 . S
C796 C795 1.369 . S
C796 C805 1.429 . S
C797 C795 1.419 . S
C797 C798 1.363 . S
C797 H800 0.929 . S
C798 C797 1.363 . S
C798 C804 1.428 . S
H799 C795 0.930 . S
H800 C797 0.929 . S
S801 N802 1.613 . S
S801 N803 1.610 . S
N802 S801 1.613 . S
N802 C805 1.350 . S
N803 S801 1.610 . S
N803 C804 1.351 . S
C804 C798 1.428 . S
C804 N803 1.351 . S
C804 C805 1.434 . S
C805 C796 1.429 . S
C805 N802 1.350 . S
C805 C804 1.434 . S
C806 C807 1.369 . S
C806 C808 1.419 . S
C806 H810 0.930 . S
C807 C806 1.369 . S
C807 C816 1.429 . S
C808 C806 1.419 . S
C808 C809 1.363 . S
C808 H811 0.929 . S
C809 C808 1.363 . S
C809 C815 1.428 . S
H810 C806 0.930 . S
H811 C808 0.929 . S
S812 N813 1.613 . S
S812 N814 1.610 . S
N813 S812 1.613 . S
N813 C816 1.350 . S
N814 S812 1.610 . S
N814 C815 1.351 . S
C815 C809 1.428 . S
C815 N814 1.351 . S
C815 C816 1.434 . S
C816 C807 1.429 . S
C816 N813 1.350 . S
C816 C815 1.434 . S
C817 C818 1.369 . S
C817 C819 1.419 . S
C817 H821 0.930 . S
C818 C817 1.369 . S
C818 C827 1.429 . S
C819 C817 1.419 . S
C819 C820 1.363 . S
C819 H822 0.929 . S
C820 C819 1.363 . S
C820 C826 1.428 . S
H821 C817 0.930 . S
H822 C819 0.929 . S
S823 N824 1.613 . S
S823 N825 1.610 . S
N824 S823 1.613 . S
N824 C827 1.350 . S
N825 S823 1.610 . S
N825 C826 1.351 . S
C826 C820 1.428 . S
C826 N825 1.351 . S
C826 C827 1.434 . S
C827 C818 1.429 . S
C827 N824 1.350 . S
C827 C826 1.434 . S
C828 C829 1.369 . S
C828 C830 1.419 1_565 S
C828 H832 0.930 . S
C829 C828 1.369 . S
C829 C838 1.429 . S
C830 C828 1.419 1_545 S
C830 C831 1.363 . S
C830 H833 0.929 . S
C831 C830 1.363 . S
C831 C837 1.428 . S
H832 C828 0.930 . S
H833 C830 0.929 . S
S834 N835 1.613 . S
S834 N836 1.610 1_565 S
N835 S834 1.613 . S
N835 C838 1.350 . S
N836 S834 1.610 1_545 S
N836 C837 1.351 . S
C837 C831 1.428 . S
C837 N836 1.351 . S
C837 C838 1.434 1_545 S
C838 C829 1.429 . S
C838 N835 1.350 . S
C838 C837 1.434 1_565 S
C839 C840 1.369 . S
C839 C841 1.419 1_455 S
C839 H843 0.930 . S
C840 C839 1.369 . S
C840 C849 1.429 . S
C841 C839 1.419 1_655 S
C841 C842 1.363 . S
C841 H844 0.929 . S
C842 C841 1.363 . S
C842 C848 1.428 . S
H843 C839 0.930 . S
H844 C841 0.929 . S
S845 N846 1.613 . S
S845 N847 1.610 1_455 S
N846 S845 1.613 . S
N846 C849 1.350 . S
N847 S845 1.610 1_655 S
N847 C848 1.351 . S
C848 C842 1.428 . S
C848 N847 1.351 . S
C848 C849 1.434 1_655 S
C849 C840 1.429 . S
C849 N846 1.350 . S
C849 C848 1.434 1_455 S
C850 C851 1.369 . S
C850 C852 1.419 . S
C850 H854 0.930 . S
C851 C850 1.369 . S
C851 C860 1.429 . S
C852 C850 1.419 . S
C852 C853 1.363 . S
C852 H855 0.929 . S
C853 C852 1.363 . S
C853 C859 1.428 . S
H854 C850 0.930 . S
H855 C852 0.929 . S
S856 N857 1.613 . S
S856 N858 1.610 . S
N857 S856 1.613 . S
N857 C860 1.350 . S
N858 S856 1.610 . S
N858 C859 1.351 . S
C859 C853 1.428 . S
C859 N858 1.351 . S
C859 C860 1.434 . S
C860 C851 1.429 . S
C860 N857 1.350 . S
C860 C859 1.434 . S
C861 C862 1.369 . S
C861 C863 1.419 . S
C861 H865 0.930 . S
C862 C861 1.369 . S
C862 C871 1.429 . S
C863 C861 1.419 . S
C863 C864 1.363 . S
C863 H866 0.929 . S
C864 C863 1.363 . S
C864 C870 1.428 . S
H865 C861 0.930 . S
H866 C863 0.929 . S
S867 N868 1.613 . S
S867 N869 1.610 . S
N868 S867 1.613 . S
N868 C871 1.350 . S
N869 S867 1.610 . S
N869 C870 1.351 . S
C870 C864 1.428 . S
C870 N869 1.351 . S
C870 C871 1.434 . S
C871 C862 1.429 . S
C871 N868 1.350 . S
C871 C870 1.434 . S
C872 C873 1.369 . S
C872 C874 1.419 . S
C872 H876 0.930 . S
C873 C872 1.369 . S
C873 C882 1.429 . S
C874 C872 1.419 . S
C874 C875 1.363 . S
C874 H877 0.929 . S
C875 C874 1.363 . S
C875 C881 1.428 . S
H876 C872 0.930 . S
H877 C874 0.929 . S
S878 N879 1.613 . S
S878 N880 1.610 . S
N879 S878 1.613 . S
N879 C882 1.350 . S
N880 S878 1.610 . S
N880 C881 1.351 . S
C881 C875 1.428 . S
C881 N880 1.351 . S
C881 C882 1.434 . S
C882 C873 1.429 . S
C882 N879 1.350 . S
C882 C881 1.434 . S
C883 C884 1.369 . S
C883 C885 1.419 . S
C883 H887 0.930 . S
C884 C883 1.369 . S
C884 C893 1.429 . S
C885 C883 1.419 . S
C885 C886 1.363 . S
C885 H888 0.929 . S
C886 C885 1.363 . S
C886 C892 1.428 . S
H887 C883 0.930 . S
H888 C885 0.929 . S
S889 N890 1.613 . S
S889 N891 1.610 . S
N890 S889 1.613 . S
N890 C893 1.350 . S
N891 S889 1.610 . S
N891 C892 1.351 . S
C892 C886 1.428 . S
C892 N891 1.351 . S
C892 C893 1.434 . S
C893 C884 1.429 . S
C893 N890 1.350 . S
C893 C892 1.434 . S
C894 C895 1.369 . S
C894 C896 1.419 . S
C894 H898 0.930 . S
C895 C894 1.369 . S
C895 C904 1.429 . S
C896 C894 1.419 . S
C896 C897 1.363 . S
C896 H899 0.929 . S
C897 C896 1.363 . S
C897 C903 1.428 . S
H898 C894 0.930 . S
H899 C896 0.929 . S
S900 N901 1.613 . S
S900 N902 1.610 . S
N901 S900 1.613 . S
N901 C904 1.350 . S
N902 S900 1.610 . S
N902 C903 1.351 . S
C903 C897 1.428 . S
C903 N902 1.351 . S
C903 C904 1.434 . S
C904 C895 1.429 . S
C904 N901 1.350 . S
C904 C903 1.434 . S
C905 C906 1.369 . S
C905 C907 1.419 . S
C905 H909 0.930 . S
C906 C905 1.369 . S
C906 C915 1.429 . S
C907 C905 1.419 . S
C907 C908 1.363 . S
C907 H910 0.929 . S
C908 C907 1.363 . S
C908 C914 1.428 . S
H909 C905 0.930 . S
H910 C907 0.929 . S
S911 N912 1.613 . S
S911 N913 1.610 . S
N912 S911 1.613 . S
N912 C915 1.350 . S
N913 S911 1.610 . S
N913 C914 1.351 . S
C914 C908 1.428 . S
C914 N913 1.351 . S
C914 C915 1.434 . S
C915 C906 1.429 . S
C915 N912 1.350 . S
C915 C914 1.434 . S
C916 C917 1.369 . S
C916 C918 1.419 . S
C916 H920 0.930 . S
C917 C916 1.369 . S
C917 C926 1.429 . S
C918 C916 1.419 . S
C918 C919 1.363 . S
C918 H921 0.929 . S
C919 C918 1.363 . S
C919 C925 1.428 . S
H920 C916 0.930 . S
H921 C918 0.929 . S
S922 N923 1.613 . S
S922 N924 1.610 . S
N923 S922 1.613 . S
N923 C926 1.350 . S
N924 S922 1.610 . S
N924 C925 1.351 . S
C925 C919 1.428 . S
C925 N924 1.351 . S
C925 C926 1.434 . S
C926 C917 1.429 . S
C926 N923 1.350 . S
C926 C925 1.434 . S
C927 C928 1.369 . S
C927 C929 1.419 . S
C927 H931 0.930 . S
C928 C927 1.369 . S
C928 C937 1.429 . S
C929 C927 1.419 . S
C929 C930 1.363 . S
C929 H932 0.929 . S
C930 C929 1.363 . S
C930 C936 1.428 . S
H931 C927 0.930 . S
H932 C929 0.929 . S
S933 N934 1.613 . S
S933 N935 1.610 . S
N934 S933 1.613 . S
N934 C937 1.350 1_545 S
N935 S933 1.610 . S
N935 C936 1.351 1_545 S
C936 C930 1.428 . S
C936 N935 1.351 1_565 S
C936 C937 1.434 . S
C937 C928 1.429 . S
C937 N934 1.350 1_565 S
C937 C936 1.434 . S
C938 C939 1.369 . S
C938 C940 1.419 . S
C938 H942 0.930 . S
C939 C938 1.369 . S
C939 C948 1.429 . S
C940 C938 1.419 . S
C940 C941 1.363 . S
C940 H943 0.929 . S
C941 C940 1.363 . S
C941 C947 1.428 . S
H942 C938 0.930 . S
H943 C940 0.929 . S
S944 N945 1.613 . S
S944 N946 1.610 . S
N945 S944 1.613 . S
N945 C948 1.350 . S
N946 S944 1.610 . S
N946 C947 1.351 . S
C947 C941 1.428 . S
C947 N946 1.351 . S
C947 C948 1.434 . S
C948 C939 1.429 . S
C948 N945 1.350 . S
C948 C947 1.434 . S
C949 C950 1.369 . S
C949 C951 1.419 . S
C949 H953 0.930 . S
C950 C949 1.369 . S
C950 C959 1.429 . S
C951 C949 1.419 . S
C951 C952 1.363 . S
C951 H954 0.929 . S
C952 C951 1.363 . S
C952 C958 1.428 . S
H953 C949 0.930 . S
H954 C951 0.929 . S
S955 N956 1.613 . S
S955 N957 1.610 . S
N956 S955 1.613 . S
N956 C959 1.350 . S
N957 S955 1.610 . S
N957 C958 1.351 . S
C958 C952 1.428 . S
C958 N957 1.351 . S
C958 C959 1.434 . S
C959 C950 1.429 . S
C959 N956 1.350 . S
C959 C958 1.434 . S
C960 C961 1.369 . S
C960 C962 1.419 . S
C960 H964 0.930 . S
C961 C960 1.369 . S
C961 C970 1.429 . S
C962 C960 1.419 . S
C962 C963 1.363 . S
C962 H965 0.929 1_655 S
C963 C962 1.363 . S
C963 C969 1.428 . S
H964 C960 0.930 . S
H965 C962 0.929 1_455 S
S966 N967 1.613 . S
S966 N968 1.610 . S
N967 S966 1.613 . S
N967 C970 1.350 . S
N968 S966 1.610 . S
N968 C969 1.351 . S
C969 C963 1.428 . S
C969 N968 1.351 . S
C969 C970 1.434 . S
C970 C961 1.429 . S
C970 N967 1.350 . S
C970 C969 1.434 . S
C971 C972 1.369 . S
C971 C973 1.419 . S
C971 H975 0.930 . S
C972 C971 1.369 . S
C972 C981 1.429 . S
C973 C971 1.419 . S
C973 C974 1.363 . S
C973 H976 0.929 . S
C974 C973 1.363 . S
C974 C980 1.428 . S
H975 C971 0.930 . S
H976 C973 0.929 . S
S977 N978 1.613 . S
S977 N979 1.610 . S
N978 S977 1.613 . S
N978 C981 1.350 . S
N979 S977 1.610 . S
N979 C980 1.351 . S
C980 C974 1.428 . S
C980 N979 1.351 . S
C980 C981 1.434 . S
C981 C972 1.429 . S
C981 N978 1.350 . S
C981 C980 1.434 . S
C982 C983 1.369 . S
C982 C984 1.419 . S
C982 H986 0.930 . S
C983 C982 1.369 . S
C983 C992 1.429 . S
C984 C982 1.419 . S
C984 C985 1.363 . S
C984 H987 0.929 . S
C985 C984 1.363 . S
C985 C991 1.428 . S
H986 C982 0.930 . S
H987 C984 0.929 . S
S988 N989 1.613 1_565 S
S988 N990 1.610 . S
N989 S988 1.613 1_545 S
N989 C992 1.350 . S
N990 S988 1.610 . S
N990 C991 1.351 1_565 S
C991 C985 1.428 . S
C991 N990 1.351 1_545 S
C991 C992 1.434 . S
C992 C983 1.429 . S
C992 N989 1.350 . S
C992 C991 1.434 . S
C993 C994 1.369 . S
C993 C995 1.419 . S
C993 H997 0.930 . S
C994 C993 1.369 . S
C994 C1003 1.429 . S
C995 C993 1.419 . S
C995 C996 1.363 . S
C995 H998 0.929 . S
C996 C995 1.363 . S
C996 C1002 1.428 . S
H997 C993 0.930 . S
H998 C995 0.929 . S
S999 N1000 1.613 . S
S999 N1001 1.610 . S
N1000 S999 1.613 . S
N1000 C1003 1.350 . S
N1001 S999 1.610 . S
N1001 C1002 1.351 . S
C1002 C996 1.428 . S
C1002 N1001 1.351 . S
C1002 C1003 1.434 . S
C1003 C994 1.429 . S
C1003 N1000 1.350 . S
C1003 C1002 1.434 . S
C1004 C1005 1.369 . S
C1004 C1006 1.419 . S
C1004 H1008 0.930 . S
C1005 C1004 1.369 . S
C1005 C1014 1.429 . S
C1006 C1004 1.419 . S
C1006 C1007 1.363 . S
C1006 H1009 0.929 . S
C1007 C1006 1.363 . S
C1007 C1013 1.428 . S
H1008 C1004 0.930 . S
H1009 C1006 0.929 . S
S1010 N1011 1.613 . S
S1010 N1012 1.610 . S
N1011 S1010 1.613 . S
N1011 C1014 1.350 . S
N1012 S1010 1.610 . S
N1012 C1013 1.351 . S
C1013 C1007 1.428 . S
C1013 N1012 1.351 . S
C1013 C1014 1.434 . S
C1014 C1005 1.429 . S
C1014 N1011 1.350 . S
C1014 C1013 1.434 . S
C1015 C1016 1.369 . S
C1015 C1017 1.419 . S
C1015 H1019 0.930 . S
C1016 C1015 1.369 . S
C1016 C1025 1.429 . S
C1017 C1015 1.419 . S
C1017 C1018 1.363 . S
C1017 H1020 0.929 . S
C1018 C1017 1.363 . S
C1018 C1024 1.428 . S
H1019 C1015 0.930 . S
H1020 C1017 0.929 . S
S1021 N1022 1.613 . S
S1021 N1023 1.610 . S
N1022 S1021 1.613 . S
N1022 C1025 1.350 . S
N1023 S1021 1.610 . S
N1023 C1024 1.351 . S
C1024 C1018 1.428 . S
C1024 N1023 1.351 . S
C1024 C1025 1.434 . S
C1025 C1016 1.429 . S
C1025 N1022 1.350 . S
C1025 C1024 1.434 . S
C1026 C1027 1.369 . S
C1026 C1028 1.419 . S
C1026 H1030 0.930 . S
C1027 C1026 1.369 . S
C1027 C1036 1.429 . S
C1028 C1026 1.419 . S
C1028 C1029 1.363 . S
C1028 H1031 0.929 . S
C1029 C1028 1.363 . S
C1029 C1035 1.428 . S
H1030 C1026 0.930 . S
H1031 C1028 0.929 . S
S1032 N1033 1.613 . S
S1032 N1034 1.610 . S
N1033 S1032 1.613 . S
N1033 C1036 1.350 . S
N1034 S1032 1.610 . S
N1034 C1035 1.351 . S
C1035 C1029 1.428 . S
C1035 N1034 1.351 . S
C1035 C1036 1.434 . S
C1036 C1027 1.429 . S
C1036 N1033 1.350 . S
C1036 C1035 1.434 . S
C1037 C1038 1.369 . S
C1037 C1039 1.419 . S
C1037 H1041 0.930 . S
C1038 C1037 1.369 . S
C1038 C1047 1.429 . S
C1039 C1037 1.419 . S
C1039 C1040 1.363 . S
C1039 H1042 0.929 . S
C1040 C1039 1.363 . S
C1040 C1046 1.428 . S
H1041 C1037 0.930 . S
H1042 C1039 0.929 . S
S1043 N1044 1.613 . S
S1043 N1045 1.610 . S
N1044 S1043 1.613 . S
N1044 C1047 1.350 . S
N1045 S1043 1.610 . S
N1045 C1046 1.351 . S
C1046 C1040 1.428 . S
C1046 N1045 1.351 . S
C1046 C1047 1.434 . S
C1047 C1038 1.429 . S
C1047 N1044 1.350 . S
C1047 C1046 1.434 . S
C1048 C1049 1.369 . S
C1048 C1050 1.419 . S
C1048 H1052 0.930 . S
C1049 C1048 1.369 . S
C1049 C1058 1.429 . S
C1050 C1048 1.419 . S
C1050 C1051 1.363 . S
C1050 H1053 0.929 . S
C1051 C1050 1.363 . S
C1051 C1057 1.428 . S
H1052 C1048 0.930 . S
H1053 C1050 0.929 . S
S1054 N1055 1.613 . S
S1054 N1056 1.610 . S
N1055 S1054 1.613 . S
N1055 C1058 1.350 . S
N1056 S1054 1.610 . S
N1056 C1057 1.351 . S
C1057 C1051 1.428 . S
C1057 N1056 1.351 . S
C1057 C1058 1.434 . S
C1058 C1049 1.429 . S
C1058 N1055 1.350 . S
C1058 C1057 1.434 . S
C1059 C1060 1.369 . S
C1059 C1061 1.419 . S
C1059 H1063 0.930 . S
C1060 C1059 1.369 . S
C1060 C1069 1.429 . S
C1061 C1059 1.419 . S
C1061 C1062 1.363 . S
C1061 H1064 0.929 . S
C1062 C1061 1.363 . S
C1062 C1068 1.428 . S
H1063 C1059 0.930 . S
H1064 C1061 0.929 . S
S1065 N1066 1.613 . S
S1065 N1067 1.610 . S
N1066 S1065 1.613 . S
N1066 C1069 1.350 . S
N1067 S1065 1.610 . S
N1067 C1068 1.351 . S
C1068 C1062 1.428 . S
C1068 N1067 1.351 . S
C1068 C1069 1.434 . S
C1069 C1060 1.429 . S
C1069 N1066 1.350 . S
C1069 C1068 1.434 . S
C1070 C1071 1.369 . S
C1070 C1072 1.419 . S
C1070 H1074 0.930 . S
C1071 C1070 1.369 . S
C1071 C1080 1.429 . S
C1072 C1070 1.419 . S
C1072 C1073 1.363 . S
C1072 H1075 0.929 . S
C1073 C1072 1.363 . S
C1073 C1079 1.428 . S
H1074 C1070 0.930 . S
H1075 C1072 0.929 . S
S1076 N1077 1.613 . S
S1076 N1078 1.610 . S
N1077 S1076 1.613 . S
N1077 C1080 1.350 . S
N1078 S1076 1.610 . S
N1078 C1079 1.351 . S
C1079 C1073 1.428 . S
C1079 N1078 1.351 . S
C1079 C1080 1.434 . S
C1080 C1071 1.429 . S
C1080 N1077 1.350 . S
C1080 C1079 1.434 . S
C1081 C1082 1.369 . S
C1081 C1083 1.419 . S
C1081 H1085 0.930 . S
C1082 C1081 1.369 . S
C1082 C1091 1.429 . S
C1083 C1081 1.419 . S
C1083 C1084 1.363 . S
C1083 H1086 0.929 . S
C1084 C1083 1.363 . S
C1084 C1090 1.428 . S
H1085 C1081 0.930 . S
H1086 C1083 0.929 . S
S1087 N1088 1.613 . S
S1087 N1089 1.610 . S
N1088 S1087 1.613 . S
N1088 C1091 1.350 . S
N1089 S1087 1.610 . S
N1089 C1090 1.351 . S
C1090 C1084 1.428 . S
C1090 N1089 1.351 . S
C1090 C1091 1.434 . S
C1091 C1082 1.429 . S
C1091 N1088 1.350 . S
C1091 C1090 1.434 . S
C1092 C1093 1.369 . S
C1092 C1094 1.419 . S
C1092 H1096 0.930 . S
C1093 C1092 1.369 . S
C1093 C1102 1.429 . S
C1094 C1092 1.419 . S
C1094 C1095 1.363 . S
C1094 H1097 0.929 . S
C1095 C1094 1.363 . S
C1095 C1101 1.428 . S
H1096 C1092 0.930 . S
H1097 C1094 0.929 . S
S1098 N1099 1.613 . S
S1098 N1100 1.610 . S
N1099 S1098 1.613 . S
N1099 C1102 1.350 . S
N1100 S1098 1.610 . S
N1100 C1101 1.351 . S
C1101 C1095 1.428 . S
C1101 N1100 1.351 . S
C1101 C1102 1.434 . S
C1102 C1093 1.429 . S
C1102 N1099 1.350 . S
C1102 C1101 1.434 . S
C1103 C1104 1.369 . S
C1103 C1105 1.419 . S
C1103 H1107 0.930 . S
C1104 C1103 1.369 . S
C1104 C1113 1.429 . S
C1105 C1103 1.419 . S
C1105 C1106 1.363 . S
C1105 H1108 0.929 . S
C1106 C1105 1.363 . S
C1106 C1112 1.428 . S
H1107 C1103 0.930 . S
H1108 C1105 0.929 . S
S1109 N1110 1.613 . S
S1109 N1111 1.610 . S
N1110 S1109 1.613 . S
N1110 C1113 1.350 . S
N1111 S1109 1.610 . S
N1111 C1112 1.351 . S
C1112 C1106 1.428 . S
C1112 N1111 1.351 . S
C1112 C1113 1.434 . S
C1113 C1104 1.429 . S
C1113 N1110 1.350 . S
C1113 C1112 1.434 . S
C1114 C1115 1.369 . S
C1114 C1116 1.419 . S
C1114 H1118 0.930 . S
C1115 C1114 1.369 . S
C1115 C1124 1.429 . S
C1116 C1114 1.419 . S
C1116 C1117 1.363 . S
C1116 H1119 0.929 . S
C1117 C1116 1.363 . S
C1117 C1123 1.428 . S
H1118 C1114 0.930 . S
H1119 C1116 0.929 . S
S1120 N1121 1.613 . S
S1120 N1122 1.610 . S
N1121 S1120 1.613 . S
N1121 C1124 1.350 . S
N1122 S1120 1.610 . S
N1122 C1123 1.351 . S
C1123 C1117 1.428 . S
C1123 N1122 1.351 . S
C1123 C1124 1.434 . S
C1124 C1115 1.429 . S
C1124 N1121 1.350 . S
C1124 C1123 1.434 . S
C532 C253 1.474 . S
C534 C359 1.492 1_556 S
C543 C272 1.451 . S
C545 C380 1.450 1_556 S
C554 C234 1.432 . S
C556 C402 1.312 . S
C565 C215 1.415 . S
C567 C381 1.289 . S
C578 C401 1.469 1_554 S
C576 C177 1.461 . S
C587 C196 1.446 . S
C589 C360 1.316 . S
C600 C355 1.529 1_554 S
C598 C220 1.445 . S
C611 C376 1.544 1_554 S
C609 C182 1.459 . S
C620 C201 1.513 . S
C622 C399 1.328 . S
C631 C258 1.506 . S
C633 C378 1.331 . S
C642 C277 1.447 . S
C644 C397 1.514 1_556 S
C655 C357 1.327 . S
C653 C239 1.506 . S
C666 C422 1.498 . S
C664 C25 1.478 . S
C675 C44 1.448 . S
C677 C443 1.456 . S
C686 C6 1.429 . S
C688 C465 1.319 . S
C697 C329 1.419 . S
C699 C444 1.290 . S
C708 C291 1.461 . S
C710 C464 1.470 . S
C719 C310 1.445 . S
C721 C423 1.322 . S
C730 C334 1.458 . S
C732 C418 1.521 . S
C741 C296 1.472 . S
C743 C439 1.545 . S
C754 C462 1.331 . S
C752 C315 1.529 . S
C763 C30 1.521 1_565 S
C765 C441 1.323 . S
C776 C460 1.513 . S
C774 C49 1.450 1_455 S
C785 C11 1.504 . S
C787 C420 1.328 . S
C798 C485 1.493 . S
C796 C139 1.482 . S
C807 C158 1.453 . S
C809 C506 1.450 . S
C820 C528 1.317 . S
C818 C120 1.432 . S
C831 C507 1.288 . S
C829 C101 1.408 . S
C842 C527 1.467 . S
C840 C63 1.456 . S
C851 C82 1.451 . S
C853 C486 1.312 . S
C862 C106 1.445 1_655 S
C864 C481 1.526 . S
C873 C68 1.471 . S
C875 C502 1.545 . S
C886 C525 1.331 . S
C884 C87 1.519 1_545 S
C895 C144 1.522 . S
C897 C504 1.326 . S
C906 C163 1.450 . S
C908 C523 1.513 . S
C917 C125 1.508 . S
C919 C483 1.326 . S
C928 C287 1.542 . S
C930 C358 1.549 . S
C941 C379 1.590 . S
C939 C306 1.580 . S
C950 C325 1.590 . S
C952 C398 1.514 . S
C961 C116 1.655 . S
C963 C377 1.583 . S
C972 C135 1.604 . S
C974 C400 1.614 . S
C985 C356 1.548 . S
C983 C154 1.614 . S
C994 C59 1.537 . S
C996 C421 1.544 . S
C1005 C78 1.576 . S
C1007 C442 1.587 . S
C1016 C97 1.586 . S
C1018 C461 1.514 . S
C1027 C230 1.653 . S
C1029 C440 1.578 . S
C1040 C463 1.594 . S
C1038 C249 1.584 . S
C1049 C268 1.606 . S
C1051 C419 1.544 . S
C1060 C173 1.541 . S
C1062 C484 1.546 . S
C1071 C192 1.548 . S
C1073 C505 1.559 . S
C1084 C524 1.518 . S
C1082 C211 1.592 . S
C1093 C2 1.649 . S
C1095 C503 1.574 . S
C1104 C21 1.601 . S
C1106 C526 1.607 . S
C1115 C40 1.607 . S
C1117 C482 1.548 . S
