# Generated by pormake.
# Topology ctn, (3,4)-cn, num edge types: 1
# Building blocks:
#     Node 0, Type 0, BuildingBlock: MIDCAF_clean_linker_0, # of connection points: 3
#     Node 1, Type 0, BuildingBlock: MIDCAF_clean_linker_0, # of connection points: 3
#     Node 2, Type 0, BuildingBlock: MIDCAF_clean_linker_0, # of connection points: 3
#     Node 3, Type 0, BuildingBlock: MIDCAF_clean_linker_0, # of connection points: 3
#     Node 4, Type 0, BuildingBlock: MIDCAF_clean_linker_0, # of connection points: 3
#     Node 5, Type 0, BuildingBlock: MIDCAF_clean_linker_0, # of connection points: 3
#     Node 6, Type 0, BuildingBlock: MIDCAF_clean_linker_0, # of connection points: 3
#     Node 7, Type 0, BuildingBlock: MIDCAF_clean_linker_0, # of connection points: 3
#     Node 8, Type 0, BuildingBlock: MIDCAF_clean_linker_0, # of connection points: 3
#     Node 9, Type 0, BuildingBlock: MIDCAF_clean_linker_0, # of connection points: 3
#     Node 10, Type 0, BuildingBlock: MIDCAF_clean_linker_0, # of connection points: 3
#     Node 11, Type 0, BuildingBlock: MIDCAF_clean_linker_0, # of connection points: 3
#     Node 12, Type 0, BuildingBlock: MIDCAF_clean_linker_0, # of connection points: 3
#     Node 13, Type 0, BuildingBlock: MIDCAF_clean_linker_0, # of connection points: 3
#     Node 14, Type 0, BuildingBlock: MIDCAF_clean_linker_0, # of connection points: 3
#     Node 15, Type 0, BuildingBlock: MIDCAF_clean_linker_0, # of connection points: 3
#     Node 16, Type 1, BuildingBlock: AZAVOO_clean_sbu_0, # of connection points: 4
#     Node 17, Type 1, BuildingBlock: AZAVOO_clean_sbu_0, # of connection points: 4
#     Node 18, Type 1, BuildingBlock: AZAVOO_clean_sbu_0, # of connection points: 4
#     Node 19, Type 1, BuildingBlock: AZAVOO_clean_sbu_0, # of connection points: 4
#     Node 20, Type 1, BuildingBlock: AZAVOO_clean_sbu_0, # of connection points: 4
#     Node 21, Type 1, BuildingBlock: AZAVOO_clean_sbu_0, # of connection points: 4
#     Node 22, Type 1, BuildingBlock: AZAVOO_clean_sbu_0, # of connection points: 4
#     Node 23, Type 1, BuildingBlock: AZAVOO_clean_sbu_0, # of connection points: 4
#     Node 24, Type 1, BuildingBlock: AZAVOO_clean_sbu_0, # of connection points: 4
#     Node 25, Type 1, BuildingBlock: AZAVOO_clean_sbu_0, # of connection points: 4
#     Node 26, Type 1, BuildingBlock: AZAVOO_clean_sbu_0, # of connection points: 4
#     Node 27, Type 1, BuildingBlock: AZAVOO_clean_sbu_0, # of connection points: 4
#     Edge 28, Type (0, 1), BuildingBlock: OJICUG_clean_linker_0, # of connection points: 2
#     Edge 29, Type (0, 1), BuildingBlock: OJICUG_clean_linker_0, # of connection points: 2
#     Edge 30, Type (0, 1), BuildingBlock: OJICUG_clean_linker_0, # of connection points: 2
#     Edge 31, Type (0, 1), BuildingBlock: OJICUG_clean_linker_0, # of connection points: 2
#     Edge 32, Type (0, 1), BuildingBlock: OJICUG_clean_linker_0, # of connection points: 2
#     Edge 33, Type (0, 1), BuildingBlock: OJICUG_clean_linker_0, # of connection points: 2
#     Edge 34, Type (0, 1), BuildingBlock: OJICUG_clean_linker_0, # of connection points: 2
#     Edge 35, Type (0, 1), BuildingBlock: OJICUG_clean_linker_0, # of connection points: 2
#     Edge 36, Type (0, 1), BuildingBlock: OJICUG_clean_linker_0, # of connection points: 2
#     Edge 37, Type (0, 1), BuildingBlock: OJICUG_clean_linker_0, # of connection points: 2
#     Edge 38, Type (0, 1), BuildingBlock: OJICUG_clean_linker_0, # of connection points: 2
#     Edge 39, Type (0, 1), BuildingBlock: OJICUG_clean_linker_0, # of connection points: 2
#     Edge 40, Type (0, 1), BuildingBlock: OJICUG_clean_linker_0, # of connection points: 2
#     Edge 41, Type (0, 1), BuildingBlock: OJICUG_clean_linker_0, # of connection points: 2
#     Edge 42, Type (0, 1), BuildingBlock: OJICUG_clean_linker_0, # of connection points: 2
#     Edge 43, Type (0, 1), BuildingBlock: OJICUG_clean_linker_0, # of connection points: 2
#     Edge 44, Type (0, 1), BuildingBlock: OJICUG_clean_linker_0, # of connection points: 2
#     Edge 45, Type (0, 1), BuildingBlock: OJICUG_clean_linker_0, # of connection points: 2
#     Edge 46, Type (0, 1), BuildingBlock: OJICUG_clean_linker_0, # of connection points: 2
#     Edge 47, Type (0, 1), BuildingBlock: OJICUG_clean_linker_0, # of connection points: 2
#     Edge 48, Type (0, 1), BuildingBlock: OJICUG_clean_linker_0, # of connection points: 2
#     Edge 49, Type (0, 1), BuildingBlock: OJICUG_clean_linker_0, # of connection points: 2
#     Edge 50, Type (0, 1), BuildingBlock: OJICUG_clean_linker_0, # of connection points: 2
#     Edge 51, Type (0, 1), BuildingBlock: OJICUG_clean_linker_0, # of connection points: 2
#     Edge 52, Type (0, 1), BuildingBlock: OJICUG_clean_linker_0, # of connection points: 2
#     Edge 53, Type (0, 1), BuildingBlock: OJICUG_clean_linker_0, # of connection points: 2
#     Edge 54, Type (0, 1), BuildingBlock: OJICUG_clean_linker_0, # of connection points: 2
#     Edge 55, Type (0, 1), BuildingBlock: OJICUG_clean_linker_0, # of connection points: 2
#     Edge 56, Type (0, 1), BuildingBlock: OJICUG_clean_linker_0, # of connection points: 2
#     Edge 57, Type (0, 1), BuildingBlock: OJICUG_clean_linker_0, # of connection points: 2
#     Edge 58, Type (0, 1), BuildingBlock: OJICUG_clean_linker_0, # of connection points: 2
#     Edge 59, Type (0, 1), BuildingBlock: OJICUG_clean_linker_0, # of connection points: 2
#     Edge 60, Type (0, 1), BuildingBlock: OJICUG_clean_linker_0, # of connection points: 2
#     Edge 61, Type (0, 1), BuildingBlock: OJICUG_clean_linker_0, # of connection points: 2
#     Edge 62, Type (0, 1), BuildingBlock: OJICUG_clean_linker_0, # of connection points: 2
#     Edge 63, Type (0, 1), BuildingBlock: OJICUG_clean_linker_0, # of connection points: 2
#     Edge 64, Type (0, 1), BuildingBlock: OJICUG_clean_linker_0, # of connection points: 2
#     Edge 65, Type (0, 1), BuildingBlock: OJICUG_clean_linker_0, # of connection points: 2
#     Edge 66, Type (0, 1), BuildingBlock: OJICUG_clean_linker_0, # of connection points: 2
#     Edge 67, Type (0, 1), BuildingBlock: OJICUG_clean_linker_0, # of connection points: 2
#     Edge 68, Type (0, 1), BuildingBlock: OJICUG_clean_linker_0, # of connection points: 2
#     Edge 69, Type (0, 1), BuildingBlock: OJICUG_clean_linker_0, # of connection points: 2
#     Edge 70, Type (0, 1), BuildingBlock: OJICUG_clean_linker_0, # of connection points: 2
#     Edge 71, Type (0, 1), BuildingBlock: OJICUG_clean_linker_0, # of connection points: 2
#     Edge 72, Type (0, 1), BuildingBlock: OJICUG_clean_linker_0, # of connection points: 2
#     Edge 73, Type (0, 1), BuildingBlock: OJICUG_clean_linker_0, # of connection points: 2
#     Edge 74, Type (0, 1), BuildingBlock: OJICUG_clean_linker_0, # of connection points: 2
#     Edge 75, Type (0, 1), BuildingBlock: OJICUG_clean_linker_0, # of connection points: 2
# Relax obj value: 0.002
# Max RMSD: 0.041
# Mean RMSD: 0.024
data_MOF--net-ctn--node1-AZAVOO_clean_sbu_0--node2-MIDCAF_clean_linker_0--edge1-OJICUG_clean_linker_0
_symmetry_space_group_name_H-M    P1
_symmetry_Int_Tables_number       1
_symmetry_cell_setting            triclinic
loop_
_symmetry_equiv_pos_as_xyz
'x, y, z'
_cell_length_a     51.302916
_cell_length_b     52.227271
_cell_length_c     52.227052
_cell_angle_alpha  90.087967
_cell_angle_beta   93.040625
_cell_angle_gamma 93.308531
loop_
_atom_site_label
_atom_site_type_symbol
_atom_site_fract_x
_atom_site_fract_y
_atom_site_fract_z
_atom_type_partial_charge
C0 C 0.96236 0.02088 0.07056 0.0
C1 C 0.97297 0.01222 0.09418 0.0
C2 C 0.99788 0.00215 0.09493 0.0
C3 C 0.01221 0.00174 0.07293 0.0
H4 H 0.07667 0.97357 0.04278 0.0
H5 H 0.11589 0.94974 0.04145 0.0
H6 H 0.1279 0.977 0.96476 0.0
H7 H 0.08846 0.00121 0.96598 0.0
H8 H 0.0547 0.05219 0.94705 0.0
H9 H 0.05356 0.09293 0.92431 0.0
H10 H 0.00305 0.12109 0.98049 0.0
H11 H 0.00303 0.08033 0.00206 0.0
H12 H 0.96853 0.02855 0.03102 0.0
H13 H 0.943 0.02813 0.06901 0.0
H14 H 0.00696 0.99564 0.11274 0.0
H15 H 0.03171 0.99476 0.07443 0.0
N16 N 0.03951 0.00036 0.0252 0.0
N17 N 0.05208 0.02442 0.98948 0.0
N18 N 0.01511 0.0346 0.01111 0.0
C19 C 0.05608 0.00471 0.00599 0.0
C20 C 0.03161 0.0395 0.99201 0.0
C21 C 0.01882 0.01505 0.02767 0.0
C22 C 0.07939 0.98938 0.00449 0.0
C23 C 0.08751 0.97449 0.02553 0.0
C24 C 0.11012 0.96096 0.02488 0.0
C25 C 0.12503 0.96173 0.0031 0.0
C26 C 0.11672 0.97611 0.98179 0.0
C27 C 0.09421 0.98999 0.98255 0.0
C28 C 0.02906 0.06298 0.97643 0.0
C29 C 0.04303 0.06699 0.95423 0.0
C30 C 0.04252 0.09045 0.94131 0.0
C31 C 0.02836 0.11054 0.95057 0.0
C32 C 0.01378 0.10608 0.97234 0.0
C33 C 0.01393 0.0826 0.98493 0.0
C34 C 0.00217 0.01184 0.0498 0.0
C35 C 0.97691 0.02093 0.0487 0.0
C36 C 0.25377 0.65662 0.25903 0.0
C37 C 0.24048 0.64538 0.23726 0.0
C38 C 0.24557 0.65522 0.21293 0.0
C39 C 0.26376 0.67586 0.21039 0.0
H40 H 0.29555 0.72474 0.158 0.0
H41 H 0.28938 0.74935 0.11915 0.0
H42 H 0.32783 0.81611 0.15669 0.0
H43 H 0.33399 0.79118 0.1962 0.0
H44 H 0.37578 0.76937 0.24723 0.0
H45 H 0.41032 0.77588 0.28111 0.0
H46 H 0.37553 0.71297 0.32356 0.0
H47 H 0.34099 0.70684 0.29044 0.0
H48 H 0.28245 0.6851 0.27359 0.0
H49 H 0.25035 0.64918 0.27799 0.0
H50 H 0.2355 0.64688 0.19587 0.0
H51 H 0.26739 0.6829 0.19133 0.0
N52 N 0.29768 0.72188 0.20738 0.0
N53 N 0.33442 0.7469 0.22349 0.0
N54 N 0.31604 0.71362 0.2482 0.0
C55 C 0.3159 0.74136 0.20435 0.0
C56 C 0.33468 0.73288 0.24548 0.0
C57 C 0.29748 0.70804 0.22926 0.0
C58 C 0.31508 0.75608 0.18023 0.0
C59 C 0.30297 0.74459 0.15801 0.0
C60 C 0.29964 0.75866 0.13561 0.0
C61 C 0.30821 0.78465 0.13483 0.0
C62 C 0.32099 0.7961 0.15681 0.0
C63 C 0.32463 0.78183 0.17932 0.0
C64 C 0.35547 0.73764 0.26607 0.0
C65 C 0.37543 0.75704 0.26388 0.0
C66 C 0.39532 0.76068 0.2832 0.0
C67 C 0.39561 0.74504 0.3051 0.0
C68 C 0.37566 0.7257 0.30721 0.0
C69 C 0.35586 0.72209 0.28803 0.0
C70 C 0.27754 0.68679 0.23211 0.0
C71 C 0.27227 0.67702 0.25648 0.0
C72 C 0.00624 0.40636 0.0025 0.0
C73 C 0.98565 0.39501 0.98684 0.0
C74 C 0.96105 0.40559 0.98642 0.0
C75 C 0.95702 0.42686 0.00174 0.0
H76 H 0.91404 0.49444 0.00576 0.0
H77 H 0.8753 0.51938 -0.0001 0.0
H78 H 0.88973 0.55073 0.0762 0.0
H79 H 0.9283 0.52595 0.08219 0.0
H80 H 0.99994 0.52966 0.09592 0.0
H81 H 0.03349 0.53828 0.13063 0.0
H82 H 0.04763 0.45771 0.13409 0.0
H83 H 0.01479 0.44911 0.09901 0.0
H84 H 0.01836 0.43533 0.03022 0.0
H85 H 0.02533 0.39846 0.00341 0.0
H86 H 0.94488 0.39727 0.9744 0.0
H87 H 0.93775 0.43436 0.00128 0.0
N88 N 0.9518 0.4734 0.03194 0.0
N89 N 0.96505 0.49791 0.06859 0.0
N90 N 0.9899 0.4642 0.05612 0.0
C91 C 0.94771 0.49287 0.04832 0.0
C92 C 0.98612 0.48355 0.07261 0.0
C93 C 0.97295 0.45906 0.03568 0.0
C94 C 0.92433 0.50815 0.04447 0.0
C95 C 0.90895 0.50662 0.02132 0.0
C96 C 0.88682 0.52097 0.01788 0.0
C97 C 0.87942 0.53686 0.03764 0.0
C98 C 0.89475 0.53837 0.06075 0.0
C99 C 0.91699 0.52429 0.06409 0.0
C100 C 0.00489 0.48875 0.0947 0.0
C101 C 0.01007 0.5138 0.10426 0.0
C102 C 0.02923 0.51874 0.12401 0.0
C103 C 0.04294 0.49861 0.13497 0.0
C104 C 0.03714 0.47348 0.12603 0.0
C105 C 0.0185 0.46863 0.10589 0.0
C106 C 0.97743 0.43769 0.01806 0.0
C107 C 0.00215 0.42737 0.01803 0.0
C108 C 0.75503 0.75881 0.15396 0.0
C109 C 0.73328 0.74536 0.1419 0.0
C110 C 0.70806 0.75098 0.14855 0.0
C111 C 0.70467 0.76987 0.1669 0.0
H112 H 0.65837 0.78663 0.22699 0.0
H113 H 0.62669 0.77823 0.25934 0.0
H114 H 0.65553 0.84672 0.30032 0.0
H115 H 0.68774 0.85531 0.268 0.0
H116 H 0.73515 0.89387 0.22805 0.0
H117 H 0.77047 0.92747 0.22985 0.0
H118 H 0.82648 0.86997 0.21948 0.0
H119 H 0.79117 0.83706 0.2161 0.0
H120 H 0.76883 0.78827 0.18061 0.0
H121 H 0.77467 0.75498 0.14895 0.0
H122 H 0.691 0.74082 0.13948 0.0
H123 H 0.68501 0.77397 0.17156 0.0
N124 N 0.70132 0.80473 0.21067 0.0
N125 N 0.7174 0.84276 0.23151 0.0
N126 N 0.742 0.8236 0.20085 0.0
C127 C 0.69837 0.82358 0.22811 0.0
C128 C 0.73925 0.84281 0.21783 0.0
C129 C 0.72304 0.80464 0.19698 0.0
C130 C 0.67606 0.8214 0.24511 0.0
C131 C 0.65783 0.80024 0.24259 0.0
C132 C 0.6396 0.79538 0.26109 0.0
C133 C 0.63895 0.81167 0.28239 0.0
C134 C 0.65567 0.83392 0.284 0.0
C135 C 0.67416 0.83872 0.26553 0.0
C136 C 0.76045 0.86298 0.22162 0.0
C137 C 0.75509 0.88857 0.22628 0.0
C138 C 0.77537 0.90777 0.22739 0.0
C139 C 0.80143 0.90161 0.22438 0.0
C140 C 0.80668 0.87571 0.22097 0.0
C141 C 0.78643 0.85673 0.21927 0.0
C142 C 0.72644 0.78382 0.17847 0.0
C143 C 0.75165 0.77799 0.1719 0.0
C144 C 0.04309 0.90573 0.54131 0.0
C145 C 0.02893 0.88546 0.52824 0.0
C146 C 0.01706 0.88985 0.50398 0.0
C147 C 0.0197 0.91392 0.49264 0.0
H148 H 0.98997 0.95353 0.4336 0.0
H149 H 0.96547 0.95978 0.39314 0.0
H150 H 0.00461 0.0346 0.3857 0.0
H151 H 0.0292 0.02855 0.42633 0.0
H152 H 0.09401 0.02528 0.45253 0.0
H153 H 0.13158 0.05494 0.46332 0.0
H154 H 0.12413 0.03887 0.54367 0.0
H155 H 0.08684 0.00838 0.53289 0.0
H156 H 0.05769 0.94504 0.5399 0.0
H157 H 0.05243 0.90268 0.56006 0.0
H158 H 0.00593 0.87449 0.49363 0.0
H159 H 0.01059 0.91639 0.47368 0.0
N160 N 0.0236 0.96411 0.47064 0.0
N161 N 0.04883 0.00202 0.46401 0.0
N162 N 0.05933 0.97562 0.49905 0.0
C163 C 0.0282 0.98568 0.45678 0.0
C164 C 0.06439 0.99718 0.48513 0.0
C165 C 0.03895 0.9589 0.49176 0.0
C166 C 0.01183 0.99043 0.43317 0.0
C167 C 0.99325 0.97146 0.42356 0.0
C168 C 0.97921 0.97498 0.40032 0.0
C169 C 0.98324 0.9976 0.38622 0.0
C170 C 0.00097 0.01703 0.39626 0.0
C171 C 0.0152 0.01345 0.41946 0.0
C172 C 0.08744 0.01463 0.4919 0.0
C173 C 0.10046 0.02793 0.4725 0.0
C174 C 0.12205 0.04472 0.47861 0.0
C175 C 0.1307 0.04898 0.50426 0.0
C176 C 0.1178 0.03572 0.52373 0.0
C177 C 0.09655 0.01836 0.51757 0.0
C178 C 0.03465 0.93412 0.50514 0.0
C179 C 0.04615 0.92986 0.52973 0.0
C180 C 0.21368 0.72895 0.86323 0.0
C181 C 0.20631 0.75442 0.86367 0.0
C182 C 0.19117 0.76361 0.8428 0.0
C183 C 0.1852 0.74809 0.82109 0.0
H184 H 0.12424 0.71266 0.75877 0.0
H185 H 0.09069 0.71736 0.72457 0.0
H186 H 0.14714 0.70277 0.66837 0.0
H187 H 0.17995 0.69648 0.70266 0.0
H188 H 0.22564 0.65779 0.72414 0.0
H189 H 0.26284 0.63191 0.71744 0.0
H190 H 0.28365 0.63478 0.79864 0.0
H191 H 0.24646 0.66036 0.80548 0.0
H192 H 0.2148 0.69439 0.84165 0.0
H193 H 0.22474 0.72111 0.87933 0.0
H194 H 0.18515 0.78315 0.84272 0.0
H195 H 0.17474 0.75603 0.80467 0.0
N196 N 0.17441 0.71252 0.77684 0.0
N197 N 0.19355 0.68313 0.75039 0.0
N198 N 0.21126 0.69141 0.79195 0.0
C199 C 0.17463 0.69977 0.7541 0.0
C200 C 0.21186 0.67873 0.76937 0.0
C201 C 0.19278 0.70835 0.79586 0.0
C202 C 0.15463 0.70404 0.73338 0.0
C203 C 0.12939 0.7105 0.73907 0.0
C204 C 0.1102 0.71334 0.71939 0.0
C205 C 0.11599 0.71032 0.69352 0.0
C206 C 0.14158 0.70454 0.68797 0.0
C207 C 0.16054 0.70113 0.70764 0.0
C208 C 0.23313 0.66135 0.76531 0.0
C209 C 0.23796 0.6527 0.74061 0.0
C210 C 0.25936 0.638 0.73674 0.0
C211 C 0.27625 0.63147 0.7575 0.0
C212 C 0.2709 0.63935 0.78229 0.0
C213 C 0.24965 0.65418 0.78615 0.0
C214 C 0.19439 0.72326 0.82002 0.0
C215 C 0.20788 0.7136 0.84166 0.0
C216 C 0.98544 0.59527 0.49258 0.0
C217 C 0.97381 0.59604 0.51637 0.0
C218 C 0.95985 0.57384 0.52473 0.0
C219 C 0.95723 0.5517 0.50951 0.0
H220 H 0.89276 0.50211 0.4622 0.0
H221 H 0.85455 0.4728 0.46604 0.0
H222 H 0.90291 0.40848 0.45678 0.0
H223 H 0.94043 0.43804 0.45101 0.0
H224 H 0.97983 0.48025 0.39086 0.0
H225 H 0.01436 0.47946 0.36032 0.0
H226 H 0.07037 0.51038 0.41878 0.0
H227 H 0.03573 0.51236 0.44854 0.0
H228 H 0.99243 0.57308 0.45945 0.0
H229 H 0.99578 0.61203 0.48508 0.0
H230 H 0.95106 0.57341 0.54312 0.0
H231 H 0.94633 0.53496 0.51643 0.0
N232 N 0.94506 0.51139 0.4703 0.0
N233 N 0.9623 0.48506 0.43955 0.0
N234 N 0.9859 0.52255 0.4542 0.0
C235 C 0.9428 0.49006 0.45521 0.0
C236 C 0.98394 0.50132 0.43907 0.0
C237 C 0.9666 0.5277 0.46984 0.0
C238 C 0.9195 0.47229 0.45633 0.0
C239 C 0.89503 0.48167 0.46072 0.0
C240 C 0.87316 0.46479 0.46313 0.0
C241 C 0.87541 0.43807 0.46195 0.0
C242 C 0.90002 0.42883 0.45726 0.0
C243 C 0.9217 0.44577 0.45414 0.0
C244 C 0.00509 0.49676 0.42186 0.0
C245 C 0.99963 0.48653 0.39715 0.0
C246 C 0.01944 0.48602 0.37972 0.0
C247 C 0.04509 0.49538 0.38689 0.0
C248 C 0.05071 0.50383 0.41228 0.0
C249 C 0.03091 0.5048 0.42943 0.0
C250 C 0.96902 0.55106 0.48591 0.0
C251 C 0.98333 0.57296 0.4777 0.0
C252 C 0.86624 0.74592 0.73162 0.0
C253 C 0.87536 0.76488 0.71465 0.0
C254 C 0.86588 0.78949 0.7159 0.0
C255 C 0.84672 0.79471 0.73287 0.0
H256 H 0.79352 0.84772 0.74582 0.0
H257 H 0.7692 0.8856 0.73767 0.0
H258 H 0.70569 0.8525 0.78034 0.0
H259 H 0.73059 0.81492 0.78939 0.0
H260 H 0.75146 0.77643 0.8344 0.0
H261 H 0.74201 0.75077 0.87157 0.0
H262 H 0.79757 0.69655 0.84992 0.0
H263 H 0.80782 0.72294 0.81279 0.0
H264 H 0.84009 0.73597 0.76112 0.0
H265 H 0.87341 0.72683 0.7312 0.0
H266 H 0.87239 0.80442 0.70293 0.0
H267 H 0.83931 0.81371 0.73279 0.0
N268 N 0.80035 0.80111 0.76024 0.0
N269 N 0.77307 0.78945 0.7933 0.0
N270 N 0.80798 0.76425 0.78449 0.0
C271 C 0.77947 0.80569 0.77408 0.0
C272 C 0.78724 0.76875 0.79873 0.0
C273 C 0.81466 0.78046 0.76522 0.0
C274 C 0.76408 0.82832 0.76838 0.0
C275 C 0.77432 0.84843 0.75339 0.0
C276 C 0.76023 0.87012 0.74853 0.0
C277 C 0.73537 0.87216 0.75825 0.0
C278 C 0.72492 0.8518 0.77285 0.0
C279 C 0.73917 0.83019 0.77798 0.0
C280 C 0.78051 0.75187 0.82055 0.0
C281 C 0.7616 0.75896 0.83732 0.0
C282 C 0.75597 0.74403 0.85864 0.0
C283 C 0.76886 0.7214 0.86374 0.0
C284 C 0.78744 0.71398 0.84672 0.0
C285 C 0.79324 0.72908 0.82538 0.0
C286 C 0.83677 0.77547 0.74914 0.0
C287 C 0.84723 0.7512 0.74879 0.0
C288 C 0.36481 0.24159 0.23389 0.0
C289 C 0.37327 0.2605 0.21656 0.0
C290 C 0.36182 0.28427 0.21636 0.0
C291 C 0.34151 0.28862 0.23229 0.0
H292 H 0.28445 0.33793 0.24077 0.0
H293 H 0.25903 0.37489 0.23183 0.0
H294 H 0.19745 0.34224 0.27721 0.0
H295 H 0.22342 0.30551 0.28698 0.0
H296 H 0.24506 0.26855 0.3322 0.0
H297 H 0.23625 0.24364 0.37002 0.0
H298 H 0.29339 0.19039 0.34986 0.0
H299 H 0.30301 0.21611 0.31213 0.0
H300 H 0.33809 0.23081 0.26266 0.0
H301 H 0.37347 0.22315 0.23459 0.0
H302 H 0.36776 0.29912 0.20307 0.0
H303 H 0.33267 0.30695 0.2311 0.0
N304 N 0.29392 0.29312 0.25813 0.0
N305 N 0.26622 0.28087 0.29066 0.0
N306 N 0.30277 0.2573 0.28349 0.0
C307 C 0.27234 0.29695 0.27123 0.0
C308 C 0.28131 0.26103 0.29698 0.0
C309 C 0.3092 0.27337 0.26403 0.0
C310 C 0.25608 0.31879 0.26474 0.0
C311 C 0.26542 0.33848 0.24874 0.0
C312 C 0.25069 0.35965 0.24342 0.0
C313 C 0.22609 0.36158 0.25371 0.0
C314 C 0.21645 0.34157 0.26924 0.0
C315 C 0.23133 0.32047 0.27478 0.0
C316 C 0.27487 0.24447 0.31909 0.0
C317 C 0.25567 0.25143 0.33559 0.0
C318 C 0.25042 0.23693 0.35729 0.0
C319 C 0.26397 0.21482 0.36303 0.0
C320 C 0.28277 0.20745 0.34621 0.0
C321 C 0.28821 0.22215 0.32451 0.0
C322 C 0.33228 0.26936 0.24892 0.0
C323 C 0.3446 0.24601 0.25 0.0
C324 C 0.51311 0.91059 0.5044 0.0
C325 C 0.49257 0.89995 0.48821 0.0
C326 C 0.46843 0.91143 0.48712 0.0
C327 C 0.46471 0.93278 0.50241 0.0
H328 H 0.42116 0.99876 0.50738 0.0
H329 H 0.38188 0.02288 0.50167 0.0
H330 H 0.39636 0.05494 0.57768 0.0
H331 H 0.43549 0.03092 0.58353 0.0
H332 H 0.50593 0.03425 0.59859 0.0
H333 H 0.53885 0.04286 0.63382 0.0
H334 H 0.55512 0.96275 0.63563 0.0
H335 H 0.52286 0.95416 0.60004 0.0
H336 H 0.52542 0.93909 0.53258 0.0
H337 H 0.53184 0.90198 0.50581 0.0
H338 H 0.45232 0.90368 0.47467 0.0
H339 H 0.44573 0.94089 0.50145 0.0
N340 N 0.45936 0.97849 0.53329 0.0
N341 N 0.47226 0.00274 0.57017 0.0
N342 N 0.49737 0.96924 0.55759 0.0
C343 C 0.45507 0.9978 0.54978 0.0
C344 C 0.4934 0.98846 0.5742 0.0
C345 C 0.48055 0.96421 0.53702 0.0
C346 C 0.43152 0.01284 0.54595 0.0
C347 C 0.416 0.01095 0.5229 0.0
C348 C 0.39355 0.02483 0.51955 0.0
C349 C 0.38598 0.04065 0.53928 0.0
C350 C 0.40151 0.04261 0.56226 0.0
C351 C 0.42407 0.02897 0.56552 0.0
C352 C 0.51196 0.99357 0.59649 0.0
C353 C 0.5164 0.01847 0.60665 0.0
C354 C 0.5352 0.02341 0.62672 0.0
C355 C 0.54933 0.00341 0.63737 0.0
C356 C 0.54429 0.97841 0.6278 0.0
C357 C 0.52599 0.97357 0.60736 0.0
C358 C 0.48497 0.94285 0.51935 0.0
C359 C 0.50932 0.93172 0.5199 0.0
C360 C 0.25339 0.25805 0.65286 0.0
C361 C 0.23166 0.24406 0.64139 0.0
C362 C 0.20646 0.24951 0.64823 0.0
C363 C 0.20306 0.26873 0.66625 0.0
H364 H 0.15979 0.284 0.72951 0.0
H365 H 0.12947 0.27612 0.76319 0.0
H366 H 0.15447 0.34878 0.79835 0.0
H367 H 0.18541 0.35688 0.76473 0.0
H368 H 0.23329 0.39366 0.72676 0.0
H369 H 0.2684 0.42746 0.72883 0.0
H370 H 0.32451 0.37071 0.71566 0.0
H371 H 0.28937 0.33766 0.71202 0.0
H372 H 0.26715 0.2882 0.67872 0.0
H373 H 0.27301 0.25437 0.64769 0.0
H374 H 0.18942 0.23895 0.63959 0.0
H375 H 0.18341 0.27267 0.67109 0.0
N376 N 0.20003 0.30418 0.70965 0.0
N377 N 0.21602 0.34265 0.72971 0.0
N378 N 0.24017 0.32348 0.69871 0.0
C379 C 0.19721 0.3232 0.72694 0.0
C380 C 0.23752 0.34284 0.71555 0.0
C381 C 0.22141 0.30424 0.69545 0.0
C382 C 0.17549 0.32089 0.74461 0.0
C383 C 0.15865 0.29863 0.74407 0.0
C384 C 0.14122 0.29404 0.76333 0.0
C385 C 0.13991 0.31175 0.78336 0.0
C386 C 0.15516 0.33491 0.783 0.0
C387 C 0.17292 0.33943 0.76381 0.0
C388 C 0.25862 0.36316 0.71892 0.0
C389 C 0.25319 0.38858 0.72436 0.0
C390 C 0.27336 0.40788 0.72564 0.0
C391 C 0.29939 0.402 0.72203 0.0
C392 C 0.30471 0.37627 0.71766 0.0
C393 C 0.28457 0.3572 0.71579 0.0
C394 C 0.22481 0.28317 0.67724 0.0
C395 C 0.25 0.27755 0.67045 0.0
C396 C 0.74872 0.16872 0.76517 0.0
C397 C 0.73424 0.15873 0.74348 0.0
C398 C 0.73729 0.17051 0.71962 0.0
C399 C 0.75492 0.19169 0.71739 0.0
H400 H 0.76451 0.27735 0.69446 0.0
H401 H 0.75813 0.30278 0.65582 0.0
H402 H 0.83997 0.29953 0.64144 0.0
H403 H 0.84657 0.27439 0.68086 0.0
H404 H 0.88196 0.259 0.74153 0.0
H405 H 0.91957 0.25909 0.77236 0.0
H406 H 0.86871 0.23074 0.83077 0.0
H407 H 0.83182 0.22945 0.7998 0.0
H408 H 0.77811 0.19649 0.7798 0.0
H409 H 0.74683 0.15979 0.78374 0.0
H410 H 0.72628 0.16311 0.70266 0.0
H411 H 0.75723 0.20009 0.69864 0.0
N412 N 0.78918 0.23808 0.71587 0.0
N413 N 0.83 0.25799 0.7289 0.0
N414 N 0.81165 0.22414 0.75291 0.0
C415 C 0.80864 0.25623 0.71227 0.0
C416 C 0.8314 0.24207 0.74947 0.0
C417 C 0.79062 0.22187 0.73604 0.0
C418 C 0.80599 0.27387 0.69047 0.0
C419 C 0.78124 0.28242 0.68329 0.0
C420 C 0.77763 0.29712 0.66132 0.0
C421 C 0.7986 0.30314 0.64579 0.0
C422 C 0.82357 0.29516 0.65323 0.0
C423 C 0.82733 0.2809 0.6757 0.0
C424 C 0.85404 0.24395 0.7682 0.0
C425 C 0.87895 0.25285 0.76101 0.0
C426 C 0.90046 0.25296 0.77871 0.0
C427 C 0.89734 0.24455 0.80404 0.0
C428 C 0.87214 0.23655 0.81128 0.0
C429 C 0.85086 0.236 0.79355 0.0
C430 C 0.7702 0.2011 0.7389 0.0
C431 C 0.76671 0.18959 0.76286 0.0
C432 C 0.45651 0.52286 0.57196 0.0
C433 C 0.46744 0.51276 0.59483 0.0
C434 C 0.49122 0.50064 0.59396 0.0
C435 C 0.50421 0.49967 0.57116 0.0
H436 H 0.54168 0.44999 0.51464 0.0
H437 H 0.57633 0.42036 0.51319 0.0
H438 H 0.62555 0.47848 0.47763 0.0
H439 H 0.59032 0.50811 0.4784 0.0
H440 H 0.54437 0.55191 0.4454 0.0
H441 H 0.54449 0.59344 0.42387 0.0
H442 H 0.50583 0.62504 0.48736 0.0
H443 H 0.50455 0.58371 0.50793 0.0
H444 H 0.4614 0.53125 0.53232 0.0
H445 H 0.43789 0.53164 0.57157 0.0
H446 H 0.50053 0.49293 0.61112 0.0
H447 H 0.52297 0.49112 0.57139 0.0
N448 N 0.52733 0.49655 0.52088 0.0
N449 N 0.54228 0.52207 0.48701 0.0
N450 N 0.50858 0.53546 0.51167 0.0
C451 C 0.54346 0.50028 0.50122 0.0
C452 C 0.52471 0.53972 0.49215 0.0
C453 C 0.50975 0.51399 0.52608 0.0
C454 C 0.56339 0.48153 0.497 0.0
C455 C 0.55977 0.45642 0.50625 0.0
C456 C 0.5797 0.43945 0.50552 0.0
C457 C 0.60394 0.44723 0.49583 0.0
C458 C 0.60711 0.47188 0.4852 0.0
C459 C 0.58695 0.48887 0.4857 0.0
C460 C 0.52438 0.56444 0.47832 0.0
C461 C 0.53571 0.56774 0.45456 0.0
C462 C 0.53588 0.5916 0.4423 0.0
C463 C 0.52508 0.61273 0.45376 0.0
C464 C 0.51373 0.60921 0.47751 0.0
C465 C 0.51318 0.5854 0.48948 0.0
C466 C 0.49403 0.51127 0.54887 0.0
C467 C 0.46983 0.52243 0.54935 0.0
C468 C 0.55373 0.40478 0.03676 0.0
C469 C 0.52971 0.39033 0.03503 0.0
C470 C 0.50851 0.4001 0.02086 0.0
C471 C 0.51147 0.4234 0.00796 0.0
H472 H 0.48944 0.45199 0.93574 0.0
H473 H 0.46418 0.45681 0.89531 0.0
H474 H 0.49613 0.53474 0.88934 0.0
H475 H 0.52129 0.53012 0.92976 0.0
H476 H 0.57069 0.54719 0.96284 0.0
H477 H 0.60631 0.57897 0.97168 0.0
H478 H 0.64015 0.52969 0.02918 0.0
H479 H 0.60432 0.49732 0.02016 0.0
H480 H 0.57548 0.4388 0.02544 0.0
H481 H 0.57036 0.39773 0.04766 0.0
H482 H 0.48985 0.38928 0.01896 0.0
H483 H 0.49484 0.43007 0.99676 0.0
N484 N 0.52211 0.46556 0.97362 0.0
N485 N 0.54529 0.50417 0.96496 0.0
N486 N 0.55932 0.47883 -0.00051 0.0
C487 C 0.52512 0.48689 0.95902 0.0
C488 C 0.56247 0.50039 0.9851 0.0
C489 C 0.53901 0.46142 0.99393 0.0
C490 C 0.50765 0.49057 0.93592 0.0
C491 C 0.49084 0.47029 0.92603 0.0
C492 C 0.47643 0.47299 0.90281 0.0
C493 C 0.47829 0.4961 0.8891 0.0
C494 C 0.49412 0.51676 0.89956 0.0
C495 C 0.50871 0.51401 0.92266 0.0
C496 C 0.58447 0.51963 0.99086 0.0
C497 C 0.58563 0.54294 0.97739 0.0
C498 C 0.60603 0.56131 0.98255 0.0
C499 C 0.62592 0.55694 0.00128 0.0
C500 C 0.62512 0.53354 0.01457 0.0
C501 C 0.60451 0.51509 0.00949 0.0
C502 C 0.53563 0.43764 0.00916 0.0
C503 C 0.55661 0.42832 0.02412 0.0
C504 C 0.71277 0.22322 0.36773 0.0
C505 C 0.70598 0.24885 0.36913 0.0
C506 C 0.6923 0.25945 0.34802 0.0
C507 C 0.68707 0.24516 0.3254 0.0
H508 H 0.62651 0.21211 0.26135 0.0
H509 H 0.59316 0.218 0.22723 0.0
H510 H 0.65017 0.20637 0.17077 0.0
H511 H 0.6828 0.19888 0.20491 0.0
H512 H 0.72771 0.15854 0.22514 0.0
H513 H 0.76483 0.13294 0.21742 0.0
H514 H 0.78705 0.13481 0.29835 0.0
H515 H 0.74989 0.16005 0.30623 0.0
H516 H 0.7143 0.18976 0.34445 0.0
H517 H 0.72262 0.21421 0.3839 0.0
H518 H 0.6868 0.27914 0.3485 0.0
H519 H 0.67766 0.25417 0.30898 0.0
N520 N 0.67645 0.21142 0.27972 0.0
N521 N 0.69621 0.18363 0.2521 0.0
N522 N 0.71338 0.19004 0.29415 0.0
C523 C 0.67706 0.19984 0.25641 0.0
C524 C 0.71438 0.17852 0.27099 0.0
C525 C 0.69465 0.20653 0.29868 0.0
C526 C 0.65718 0.20485 0.23578 0.0
C527 C 0.63183 0.21085 0.24161 0.0
C528 C 0.61275 0.21438 0.22198 0.0
C529 C 0.61875 0.21253 0.19605 0.0
C530 C 0.64444 0.20724 0.19039 0.0
C531 C 0.6633 0.20314 0.20999 0.0
C532 C 0.73585 0.16154 0.26628 0.0
C533 C 0.74034 0.15332 0.24134 0.0
C534 C 0.76171 0.13877 0.23688 0.0
C535 C 0.77895 0.13199 0.25726 0.0
C536 C 0.77402 0.13955 0.28227 0.0
C537 C 0.75277 0.1542 0.28673 0.0
C538 C 0.69566 0.22018 0.32353 0.0
C539 C 0.70786 0.20913 0.34516 0.0
C540 C 0.50146 0.09075 0.00632 0.0
C541 C 0.48061 0.09812 0.0205 0.0
C542 C 0.45756 0.08216 0.02022 0.0
C543 C 0.45527 0.05951 0.00579 0.0
H544 H 0.39918 0.00379 0.96895 0.0
H545 H 0.36075 0.97448 0.97188 0.0
H546 H 0.40807 0.91055 0.95727 0.0
H547 H 0.44573 0.94008 0.95261 0.0
H548 H 0.48654 0.98241 0.89617 0.0
H549 H 0.52111 0.98193 0.86575 0.0
H550 H 0.57763 0.00901 0.92553 0.0
H551 H 0.54288 0.01084 0.95524 0.0
H552 H 0.51567 0.06318 0.98112 0.0
H553 H 0.5196 0.10245 0.00641 0.0
H554 H 0.44101 0.08747 0.03069 0.0
H555 H 0.43711 0.04787 0.00576 0.0
N556 N 0.4513 0.01313 0.9748 0.0
N557 N 0.46874 0.98628 0.94468 0.0
N558 N 0.49307 0.02295 0.96025 0.0
C559 C 0.44894 0.99176 0.95975 0.0
C560 C 0.49086 0.00188 0.94491 0.0
C561 C 0.4734 0.0288 0.97519 0.0
C562 C 0.4254 0.97419 0.96051 0.0
C563 C 0.40117 0.98345 0.96611 0.0
C564 C 0.37919 0.96657 0.96798 0.0
C565 C 0.38108 0.93996 0.96491 0.0
C566 C 0.40545 0.93086 0.95914 0.0
C567 C 0.42722 0.9478 0.95665 0.0
C568 C 0.51205 0.99705 0.92787 0.0
C569 C 0.50646 0.98786 0.90279 0.0
C570 C 0.52631 0.98751 0.88541 0.0
C571 C 0.55213 0.99597 0.893 0.0
C572 C 0.55786 0.0032 0.91874 0.0
C573 C 0.538 0.00407 0.93586 0.0
C574 C 0.476 0.05232 0.99128 0.0
C575 C 0.4992 0.06813 0.9919 0.0
Mg576 Mg 0.23937 0.846 0.0047 0.0
O577 O 0.27614 0.86926 0.99243 0.0
O578 O 0.30736 0.84128 0.98927 0.0
Mg579 Mg 0.29206 0.80169 0.00172 0.0
C580 C 0.2993 0.86389 0.98726 0.0
C581 C 0.21316 0.89787 0.00862 0.0
O582 O 0.22969 0.89936 0.02873 0.0
O583 O 0.23285 0.82785 0.96474 0.0
O584 O 0.26444 0.80006 0.9659 0.0
O585 O 0.25157 0.85281 0.04614 0.0
O586 O 0.26277 0.81992 0.02352 0.0
C587 C 0.24483 0.80998 0.95453 0.0
C588 C 0.26455 0.83237 0.04486 0.0
O589 O 0.21322 0.8786 0.99374 0.0
Mg590 Mg 0.15756 0.50964 0.26709 0.0
O591 O 0.12946 0.50917 0.23123 0.0
O592 O 0.15391 0.51441 0.19719 0.0
Mg593 Mg 0.19699 0.5167 0.21088 0.0
C594 C 0.13171 0.51146 0.20708 0.0
C595 C 0.1248 0.50921 0.31279 0.0
O596 O 0.14349 0.52723 0.31702 0.0
O597 O 0.16801 0.469 0.25858 0.0
O598 O 0.1934 0.47497 0.22533 0.0
O599 O 0.15817 0.55228 0.2697 0.0
O600 O 0.18595 0.53117 0.24806 0.0
C601 C 0.18264 0.46041 0.24191 0.0
C602 C 0.17777 0.55282 0.25507 0.0
O603 O 0.12448 0.49622 0.29217 0.0
Mg604 Mg 0.77096 0.6571 0.01909 0.0
O605 O 0.73167 0.63287 0.01688 0.0
O606 O 0.70029 0.66088 0.01413 0.0
Mg607 Mg 0.71833 0.70172 0.01453 0.0
C608 C 0.70752 0.63789 0.01513 0.0
C609 C 0.79448 0.6048 0.02978 0.0
O610 O 0.77962 0.607 0.0493 0.0
O611 O 0.76668 0.66597 0.97627 0.0
O612 O 0.73546 0.6942 0.97564 0.0
O613 O 0.77054 0.65997 0.06176 0.0
O614 O 0.75297 0.6877 0.03517 0.0
C615 C 0.75191 0.68134 0.96427 0.0
C616 C 0.75739 0.68021 0.05839 0.0
O617 O 0.79408 0.62183 0.01241 0.0
Mg618 Mg 0.91188 0.03796 0.23533 0.0
O619 O 0.88563 0.0008 0.23149 0.0
O620 O 0.91098 0.96892 0.22227 0.0
Mg621 Mg 0.95331 0.98492 0.2226 0.0
C622 C 0.88865 0.97729 0.22627 0.0
C623 C 0.87176 0.07856 0.23778 0.0
O624 O 0.88602 0.08598 0.21869 0.0
O625 O 0.92649 0.02587 0.27535 0.0
O626 O 0.95188 0.99427 0.2655 0.0
O627 O 0.90782 0.04433 0.19313 0.0
O628 O 0.93893 0.02239 0.21193 0.0
C629 C 0.94208 0.00853 0.28195 0.0
C630 C 0.92761 0.03037 0.19108 0.0
O631 O 0.87787 0.05878 0.2504 0.0
Mg632 Mg 0.27118 0.15539 0.51986 0.0
O633 O 0.23357 0.12876 0.51846 0.0
O634 O 0.19973 0.15403 0.51707 0.0
Mg635 Mg 0.21501 0.19579 0.51539 0.0
C636 C 0.20901 0.13188 0.51788 0.0
C637 C 0.29807 0.10504 0.53134 0.0
O638 O 0.28319 0.10676 0.55091 0.0
O639 O 0.26556 0.16304 0.47705 0.0
O640 O 0.23193 0.18853 0.47617 0.0
O641 O 0.27112 0.15895 0.56245 0.0
O642 O 0.2513 0.18496 0.53557 0.0
C643 C 0.24931 0.17681 0.46487 0.0
C644 C 0.2566 0.17821 0.55887 0.0
O645 O 0.29655 0.12165 0.51363 0.0
Mg646 Mg 0.4098 0.53799 0.73784 0.0
O647 O 0.38353 0.501 0.73263 0.0
O648 O 0.40899 0.46932 0.72304 0.0
Mg649 Mg 0.45138 0.48525 0.72452 0.0
C650 C 0.3866 0.47763 0.72687 0.0
C651 C 0.36996 0.57861 0.74048 0.0
O652 O 0.38493 0.58645 0.72206 0.0
O653 O 0.42351 0.52474 0.77767 0.0
O654 O 0.44917 0.4934 0.76771 0.0
O655 O 0.40632 0.5455 0.69593 0.0
O656 O 0.43716 0.52293 0.71438 0.0
C657 C 0.43894 0.50726 0.78424 0.0
C658 C 0.42602 0.53146 0.69366 0.0
O659 O 0.37556 0.55849 0.75279 0.0
Mg660 Mg 0.73396 0.34664 0.50683 0.0
O661 O 0.77037 0.36923 0.49278 0.0
O662 O 0.80225 0.34156 0.4934 0.0
Mg663 Mg 0.78761 0.30328 0.50983 0.0
C664 C 0.79377 0.36367 0.48874 0.0
C665 C 0.68872 0.37899 0.50891 0.0
O666 O 0.68932 0.36424 0.52928 0.0
O667 O 0.7286 0.32447 0.46904 0.0
O668 O 0.76055 0.29724 0.4737 0.0
O669 O 0.74497 0.35863 0.54703 0.0
O670 O 0.75791 0.32358 0.52911 0.0
C671 C 0.74093 0.30575 0.46098 0.0
C672 C 0.75871 0.33863 0.54874 0.0
O673 O 0.70634 0.377 0.49291 0.0
Mg674 Mg 0.66136 0.01771 0.77162 0.0
O675 O 0.63376 0.01569 0.73531 0.0
O676 O 0.65876 0.02282 0.7019 0.0
Mg677 Mg 0.70153 0.0278 0.71636 0.0
C678 C 0.63646 0.01837 0.71125 0.0
C679 C 0.63039 0.01331 0.81798 0.0
O680 O 0.6493 0.03102 0.8227 0.0
O681 O 0.67476 0.97816 0.76314 0.0
O682 O 0.70056 0.98584 0.7305 0.0
O683 O 0.65864 0.05994 0.77458 0.0
O684 O 0.68839 0.04137 0.7531 0.0
C685 C 0.69034 0.97061 0.74683 0.0
C686 C 0.67833 0.06215 0.7601 0.0
O687 O 0.62914 0.00186 0.79643 0.0
Mg688 Mg 0.04093 0.26258 0.90589 0.0
O689 O 0.00313 0.25562 0.88038 0.0
O690 O 0.97308 0.23724 0.9052 0.0
Mg691 Mg 0.99037 0.23447 0.94611 0.0
C692 C 0.98016 0.2457 0.88356 0.0
C693 C 0.08284 0.27913 0.87095 0.0
O694 O 0.09237 0.26133 0.88589 0.0
O695 O 0.02377 0.2973 0.92357 0.0
O696 O 0.99397 0.27864 0.94833 0.0
O697 O 0.05286 0.22307 0.89784 0.0
O698 O 0.02868 0.23286 0.92983 0.0
C699 C 0.00596 0.29866 0.93962 0.0
C700 C 0.03912 0.21558 0.91676 0.0
O701 O 0.06007 0.28626 0.87463 0.0
Mg702 Mg 0.53947 0.76394 0.40595 0.0
O703 O 0.50047 0.75871 0.38193 0.0
O704 O 0.47045 0.74394 0.40866 0.0
Mg705 Mg 0.48954 0.73904 0.44859 0.0
C706 C 0.47696 0.7513 0.38645 0.0
C707 C 0.58017 0.77754 0.36848 0.0
O708 O 0.58873 0.75833 0.38211 0.0
O709 O 0.52518 0.7999 0.42435 0.0
O710 O 0.49609 0.78287 0.45084 0.0
O711 O 0.54885 0.72362 0.3977 0.0
O712 O 0.52672 0.73498 0.43059 0.0
C713 C 0.50855 0.80224 0.44144 0.0
C714 C 0.5358 0.71699 0.41735 0.0
O715 O 0.55862 0.78657 0.37388 0.0
Mg716 Mg 0.97816 0.73697 0.59072 0.0
O717 O 0.01558 0.72881 0.61471 0.0
O718 O 0.04531 0.71784 0.58743 0.0
Mg719 Mg 0.02759 0.71993 0.54644 0.0
C720 C 0.03836 0.72184 0.61014 0.0
C721 C 0.93765 0.74195 0.62948 0.0
O722 O 0.928 0.72453 0.61288 0.0
O723 O 0.99676 0.77582 0.57937 0.0
O724 O 0.02447 0.76356 0.5507 0.0
O725 O 0.96439 0.6957 0.5913 0.0
O726 O 0.98886 0.71274 0.56154 0.0
C727 C 0.01368 0.78109 0.56278 0.0
C728 C 0.9772 0.69269 0.57098 0.0
O729 O 0.95982 0.7531 0.62576 0.0
Mg730 Mg 0.4799 0.23885 0.09428 0.0
O731 O 0.51807 0.2321 0.11784 0.0
O732 O 0.54791 0.22228 0.09023 0.0
Mg733 Mg 0.52999 0.22544 0.04948 0.0
C734 C 0.541 0.22573 0.11305 0.0
C735 C 0.43973 0.24029 0.13389 0.0
O736 O 0.43136 0.2222 0.11746 0.0
O737 O 0.49614 0.27869 0.08339 0.0
O738 O 0.52583 0.26882 0.05565 0.0
O739 O 0.46912 0.19702 0.09449 0.0
O740 O 0.4913 0.21616 0.06415 0.0
C741 C 0.5137 0.28532 0.06783 0.0
C742 C 0.48141 0.19525 0.07365 0.0
O743 O 0.46096 0.25313 0.12989 0.0
C744 C 0.24262 0.7708 0.89382 0.0
C745 C 0.21629 0.77143 0.88517 0.0
H746 H 0.27225 0.78275 0.92215 0.0
C747 C 0.19988 0.78733 0.89786 0.0
H748 H 0.25592 0.75929 0.88399 0.0
C749 C 0.20936 0.80109 0.91986 0.0
C750 C 0.23534 0.79905 0.92937 0.0
H751 H 0.17953 0.78825 0.89146 0.0
H752 H 0.19608 0.81231 0.93002 0.0
C753 C 0.252 0.78436 0.91564 0.0
C754 C 0.06743 0.48007 0.34811 0.0
C755 C 0.06554 0.49827 0.36775 0.0
H756 H 0.08769 0.46918 0.31519 0.0
C757 C 0.08314 0.51995 0.36878 0.0
H758 H 0.05429 0.46308 0.34682 0.0
C759 C 0.10236 0.5232 0.35103 0.0
C760 C 0.10432 0.50508 0.33147 0.0
H761 H 0.08188 0.53478 0.3831 0.0
H762 H 0.11548 0.54021 0.35251 0.0
C763 C 0.08661 0.4835 0.33006 0.0
C764 C 0.78431 0.69626 0.90228 0.0
C765 C 0.76373 0.70668 0.88755 0.0
H766 H 0.7966 0.6796 0.93813 0.0
C767 C 0.73853 0.70505 0.89702 0.0
H768 H 0.80401 0.69726 0.8957 0.0
C769 C 0.73445 0.69541 0.92147 0.0
C770 C 0.75534 0.68664 0.93684 0.0
H771 H 0.72204 0.71214 0.88592 0.0
H772 H 0.71505 0.69565 0.92871 0.0
C773 C 0.7801 0.68616 0.92664 0.0
C774 C 0.97091 0.97968 0.34263 0.0
C775 C 0.97057 1e-05 0.36021 0.0
H776 H 0.96213 0.96644 0.30427 0.0
C777 C 0.95926 0.02278 0.35231 0.0
H778 H 0.97971 0.96199 0.34808 0.0
C779 C 0.94895 0.02531 0.32711 0.0
C780 C 0.9502 0.00525 0.30931 0.0
H781 H 0.95862 0.03869 0.36554 0.0
H782 H 0.94084 0.04324 0.32137 0.0
C783 C 0.96097 0.98231 0.31747 0.0
C784 C 0.22247 0.2267 0.59708 0.0
C785 C 0.23549 0.22493 0.62126 0.0
H786 H 0.21903 0.21346 0.5583 0.0
C787 C 0.25378 0.20618 0.62537 0.0
H788 H 0.20841 0.24114 0.59342 0.0
C789 C 0.25962 0.19004 0.60535 0.0
C790 C 0.24762 0.19271 0.58075 0.0
H791 H 0.26399 0.2044 0.64392 0.0
H792 H 0.27436 0.17625 0.6089 0.0
C793 C 0.22864 0.21089 0.57694 0.0
C794 C 0.44215 0.5389 0.62435 0.0
C795 C 0.45512 0.51644 0.61971 0.0
H796 H 0.4226 0.56096 0.65121 0.0
C797 C 0.45735 0.49833 0.63955 0.0
H798 H 0.44046 0.55363 0.6099 0.0
C799 C 0.44776 0.50302 0.66358 0.0
C800 C 0.43523 0.52563 0.66814 0.0
H801 H 0.46662 0.48053 0.63663 0.0
H802 H 0.45001 0.48883 0.67844 0.0
C803 C 0.43207 0.54327 0.64816 0.0
C804 C 0.77885 0.33744 0.61922 0.0
C805 C 0.79333 0.31545 0.62076 0.0
H806 H 0.75698 0.36235 0.59505 0.0
C807 C 0.79924 0.30308 0.59809 0.0
H808 H 0.77411 0.3473 0.63649 0.0
C809 C 0.78911 0.31141 0.57437 0.0
C810 C 0.77321 0.33245 0.57294 0.0
H811 H 0.81018 0.28594 0.59884 0.0
H812 H 0.79275 0.3006 0.55737 0.0
C813 C 0.76906 0.346 0.5955 0.0
C814 C 0.59156 0.02595 0.6523 0.0
C815 C 0.57047 0.00873 0.65732 0.0
H816 H 0.62917 0.04224 0.66539 0.0
C817 C 0.57054 0.99556 0.68075 0.0
H818 H 0.59197 0.03617 0.63427 0.0
C819 C 0.59158 -0.00062 0.6988 0.0
C820 C 0.61316 0.01589 0.69335 0.0
H821 H 0.55443 0.98216 0.68496 0.0
H822 H 0.59137 0.98875 0.71659 0.0
C823 C 0.61285 0.02928 0.67002 0.0
C824 C 0.94057 0.26301 0.82343 0.0
C825 C 0.92003 0.24389 0.82301 0.0
H826 H 0.97598 0.27842 0.84284 0.0
C827 C 0.92079 0.22441 0.84158 0.0
H828 H 0.94059 0.27842 0.80959 0.0
C829 C 0.94064 0.22481 0.86087 0.0
C830 C 0.96063 0.24433 0.86176 0.0
H831 H 0.90586 0.20888 0.84143 0.0
H832 H 0.94026 0.20986 0.87522 0.0
C833 C 0.96081 0.2631 0.84252 0.0
C834 C 0.4769 0.85539 0.47541 0.0
C835 C 0.49579 0.87581 0.47407 0.0
H836 H 0.46617 0.8162 0.46621 0.0
C837 C 0.51834 0.87237 0.46059 0.0
H838 H 0.45945 0.85741 0.48587 0.0
C839 C 0.52217 0.84872 0.44913 0.0
C840 C 0.5037 0.828 0.45134 0.0
H841 H 0.53314 0.88788 0.45917 0.0
H842 H 0.53995 0.84645 0.43927 0.0
C843 C 0.48087 0.83172 0.4643 0.0
C844 C 0.13137 0.28191 0.81919 0.0
C845 C 0.12527 0.30434 0.80603 0.0
H846 H 0.12302 0.25667 0.8501 0.0
C847 C 0.10545 0.31914 0.81468 0.0
H848 H 0.14677 0.27035 0.81299 0.0
C849 C 0.09145 0.3111 0.83587 0.0
C850 C 0.09759 0.28852 0.84897 0.0
H851 H 0.10052 0.33655 0.80477 0.0
H852 H 0.07595 0.32252 0.84203 0.0
C853 C 0.11785 0.2742 0.84052 0.0
C854 C 0.50659 0.65567 0.44503 0.0
C855 C 0.52654 0.63867 0.44187 0.0
H856 H 0.49388 0.69369 0.43985 0.0
C857 C 0.54858 0.64732 0.42869 0.0
H858 H 0.48893 0.64956 0.45432 0.0
C859 C 0.55103 0.67255 0.41983 0.0
C860 C 0.53177 0.68978 0.42439 0.0
H861 H 0.56449 0.63498 0.42609 0.0
H862 H 0.56855 0.67887 0.41039 0.0
C863 C 0.50934 0.68102 0.43667 0.0
C864 C 0.88696 0.73622 0.6793 0.0
C865 C 0.89279 0.75843 0.69414 0.0
H866 H 0.89641 0.7138 0.64728 0.0
C867 C 0.91416 0.77501 0.68809 0.0
H868 H 0.8704 0.72328 0.68326 0.0
C869 C 0.92923 0.76955 0.66737 0.0
C870 C 0.92288 0.74763 0.65216 0.0
H871 H 0.91911 0.79225 0.69929 0.0
H872 H 0.94545 0.78271 0.66295 0.0
C873 C 0.90174 0.73095 0.6585 0.0
C874 C 0.01569 0.85403 0.56217 0.0
C875 C 0.02738 0.85927 0.53891 0.0
H876 H 0.00189 0.82499 0.58803 0.0
C877 C 0.03611 0.83899 0.52465 0.0
H878 H 0.00876 0.86945 0.5734 0.0
C879 C 0.03254 0.81377 0.53303 0.0
C880 C 0.01976 0.80819 0.55571 0.0
H881 H 0.0453 0.84264 0.5067 0.0
H882 H 0.03904 0.79859 0.52119 0.0
C883 C 0.0117 0.82863 0.57042 0.0
C884 C 0.09578 0.69814 0.64987 0.0
C885 C 0.09553 0.71293 0.67242 0.0
H886 H 0.07813 0.68954 0.61257 0.0
C887 C 0.07567 0.73026 0.67445 0.0
H888 H 0.1102 0.68407 0.64773 0.0
C889 C 0.05673 0.73277 0.65448 0.0
C890 C 0.05754 0.71843 0.6318 0.0
H891 H 0.07498 0.74232 0.69125 0.0
H892 H 0.04186 0.74643 0.65651 0.0
C893 C 0.07722 0.70109 0.62971 0.0
C894 C 0.95475 0.62663 0.54666 0.0
C895 C 0.9756 0.62013 0.53191 0.0
H896 H 0.93923 0.65449 0.57085 0.0
C897 C 0.99777 0.63733 0.53143 0.0
H898 H 0.93714 0.61425 0.54723 0.0
C899 C 0.99855 0.66081 0.5444 0.0
C900 C 0.9775 0.66733 0.55866 0.0
H901 H 0.01456 0.63279 0.52094 0.0
H902 H 0.01568 0.67376 0.54331 0.0
C903 C 0.95584 0.64982 0.56011 0.0
C904 C 0.82317 0.944 0.23967 0.0
C905 C 0.82313 0.92189 0.22419 0.0
H906 H 0.84384 0.97905 0.25228 0.0
C907 C 0.84434 0.91902 0.20858 0.0
H908 H 0.80737 0.94682 0.25213 0.0
C909 C 0.86545 0.9371 0.20923 0.0
C910 C 0.86565 0.95889 0.22498 0.0
H911 H 0.84474 0.90278 0.19574 0.0
H912 H 0.8816 0.93408 0.19723 0.0
C913 C 0.84412 0.96243 0.23987 0.0
C914 C 0.81802 0.12521 0.23186 0.0
C915 C 0.80259 0.11801 0.25236 0.0
H916 H 0.85197 0.11865 0.21139 0.0
C917 C 0.81028 0.09786 0.26839 0.0
H918 H 0.81285 0.14092 0.21942 0.0
C919 C 0.83284 0.08507 0.26385 0.0
C920 C 0.84823 0.09231 0.24329 0.0
H921 H 0.79869 0.09179 0.28427 0.0
H922 H 0.83815 0.06949 0.27638 0.0
C923 C 0.84058 0.11256 0.22741 0.0
C924 C 0.33962 0.9267 0.98674 0.0
C925 C 0.35821 0.92159 0.96872 0.0
H926 H 0.30601 0.91256 0.00633 0.0
C927 C 0.35551 0.89807 0.95534 0.0
H928 H 0.3411 0.94434 0.99774 0.0
C929 C 0.33592 0.87961 0.96098 0.0
C930 C 0.31801 0.8845 0.97949 0.0
H931 H 0.36877 0.89363 0.94073 0.0
H932 H 0.3349 0.86135 0.95099 0.0
C933 C 0.31952 0.90845 0.99182 0.0
C934 C 0.21223 0.39813 0.22586 0.0
C935 C 0.21143 0.3851 0.24938 0.0
H936 H 0.20358 0.43208 0.20497 0.0
C937 C 0.19821 0.3958 0.26937 0.0
H938 H 0.22164 0.39016 0.20983 0.0
C939 C 0.18738 0.41962 0.26639 0.0
C940 C 0.18981 0.43341 0.24347 0.0
H941 H 0.19737 0.38645 0.28783 0.0
H942 H 0.17839 0.42783 0.28257 0.0
C943 C 0.2017 0.42209 0.223 0.0
C944 C 0.14703 0.09032 0.52481 0.0
C945 C 0.15202 0.06857 0.51049 0.0
H946 H 0.16123 0.12759 0.53816 0.0
C947 C 0.17664 0.06684 0.50028 0.0
H948 H 0.12809 0.0921 0.53268 0.0
C949 C 0.19582 0.08689 0.50384 0.0
C950 C 0.19034 0.10925 0.51703 0.0
H951 H 0.18082 0.05021 0.48911 0.0
H952 H 0.21444 0.08541 0.49525 0.0
C953 C 0.16591 0.11061 0.52781 0.0
C954 C 0.72112 0.11382 0.72984 0.0
C955 C 0.71744 0.13497 0.74559 0.0
H956 H 0.71168 0.07408 0.7221 0.0
C957 C 0.69911 0.1326 0.76457 0.0
H958 H 0.73529 0.11517 0.71516 0.0
C959 C 0.68529 0.10919 0.7683 0.0
C960 C 0.68998 0.08761 0.75346 0.0
H961 H 0.6959 0.14872 0.77687 0.0
H962 H 0.67183 0.10771 0.78359 0.0
C963 C 0.70768 0.09028 0.73388 0.0
C964 C 0.34472 0.05606 0.5559 0.0
C965 C 0.36208 0.05529 0.53604 0.0
H966 H 0.31067 0.07194 0.56978 0.0
C967 C 0.357 0.06942 0.51362 0.0
H968 H 0.34792 0.04505 0.57323 0.0
C969 C 0.33562 0.08493 0.51161 0.0
C970 C 0.31881 0.08642 0.53191 0.0
H971 H 0.3701 0.06924 0.49804 0.0
H972 H 0.33271 0.09626 0.49446 0.0
C973 C 0.32327 0.07135 0.55382 0.0
C974 C 0.64376 0.42764 0.47922 0.0
C975 C 0.62617 0.43022 0.49872 0.0
H976 H 0.67745 0.40928 0.46699 0.0
C977 C 0.62997 0.41647 0.52159 0.0
H978 H 0.64134 0.43796 0.46136 0.0
C979 C 0.65036 0.4001 0.52472 0.0
C980 C 0.66771 0.3971 0.50516 0.0
H981 H 0.61727 0.4185 0.53729 0.0
H982 H 0.65247 0.38979 0.54262 0.0
C983 C 0.66437 0.41118 0.48241 0.0
C984 C 0.6987 0.28221 0.40268 0.0
C985 C 0.71489 0.26467 0.39195 0.0
H986 H 0.69421 0.30911 0.43303 0.0
C987 C 0.74007 0.26209 0.40323 0.0
H988 H 0.6792 0.28464 0.39441 0.0
C989 C 0.74854 0.27584 0.42526 0.0
C990 C 0.73217 0.29279 0.43653 0.0
H991 H 0.75336 0.24934 0.39504 0.0
H992 H 0.76797 0.27302 0.43353 0.0
C993 C 0.70729 0.29619 0.42479 0.0
C994 C 0.59066 0.02073 0.87598 0.0
C995 C 0.57258 -0.00056 0.8739 0.0
H996 H 0.62293 0.04157 0.86021 0.0
C997 C 0.57375 0.98245 0.85309 0.0
H998 H 0.58998 0.03468 0.89124 0.0
C999 C 0.59253 0.98677 0.83479 0.0
C1000 C 0.61058 0.00804 0.83712 0.0
H1001 H 0.56026 0.96576 0.85098 0.0
H1002 H 0.59296 0.97344 0.81893 0.0
C1003 C 0.60949 0.02484 0.85797 0.0
C1004 C 0.23441 0.19888 0.39719 0.0
C1005 C 0.25945 0.20074 0.38735 0.0
H1006 H 0.21156 0.18977 0.42941 0.0
C1007 C 0.28047 0.19117 0.40211 0.0
H1008 H 0.2176 0.20531 0.3861 0.0
C1009 C 0.27683 0.18163 0.42677 0.0
C1010 C 0.25219 0.18181 0.43728 0.0
H1011 H 0.30007 0.1924 0.39529 0.0
H1012 H 0.29365 0.17567 0.43817 0.0
C1013 C 0.23087 0.18978 0.42195 0.0
C1014 C 0.46784 0.47839 0.84501 0.0
C1015 C 0.4656 0.49803 0.86302 0.0
H1016 H 0.46118 0.46589 0.80613 0.0
C1017 C 0.45282 0.52008 0.85535 0.0
H1018 H 0.47782 0.46128 0.85026 0.0
C1019 C 0.44314 0.52272 0.82997 0.0
C1020 C 0.44641 0.50351 0.81171 0.0
H1021 H 0.45065 0.53544 0.86889 0.0
H1022 H 0.43394 0.54018 0.82448 0.0
C1023 C 0.45847 0.48114 0.81965 0.0
C1024 C 0.75501 0.70747 0.12525 0.0
C1025 C 0.73709 0.72661 0.12139 0.0
H1026 H 0.77503 0.67737 0.10838 0.0
C1027 C 0.72429 0.72902 0.09718 0.0
H1028 H 0.76503 0.7052 0.14382 0.0
C1029 C 0.73026 0.7134 0.07682 0.0
C1030 C 0.7488 0.69477 0.08041 0.0
H1031 H 0.71052 0.74376 0.0937 0.0
H1032 H 0.72075 0.71639 0.05821 0.0
C1033 C 0.76062 0.69152 0.105 0.0
C1034 C 0.9616 0.99775 0.13845 0.0
C1035 C 0.95906 0.01537 0.11823 0.0
H1036 H 0.95367 0.98857 0.17721 0.0
C1037 C 0.94444 0.03698 0.12183 0.0
H1038 H 0.9721 0.98056 0.13625 0.0
C1039 C 0.93336 0.04121 0.14521 0.0
C1040 C 0.93707 0.02425 0.16571 0.0
H1041 H 0.94236 0.05126 0.10697 0.0
H1042 H 0.92282 0.05838 0.14757 0.0
C1043 C 0.95094 0.00229 0.16199 0.0
C1044 C 0.3042 0.78892 0.08718 0.0
C1045 C 0.30183 0.79971 0.11153 0.0
H1046 H 0.29424 0.79065 0.04714 0.0
C1047 C 0.2901 0.82325 0.11339 0.0
H1048 H 0.3135 0.77098 0.08513 0.0
C1049 C 0.27919 0.83476 0.09145 0.0
C1050 C 0.27984 0.82287 0.06733 0.0
H1051 H 0.28787 0.83194 0.13194 0.0
H1052 H 0.2691 0.85222 0.0936 0.0
C1053 C 0.29324 0.80031 0.06535 0.0
C1054 C 0.06434 0.49129 0.17833 0.0
C1055 C 0.06445 0.50379 0.15455 0.0
H1056 H 0.08544 0.48441 0.21398 0.0
C1057 C 0.08614 0.51992 0.14876 0.0
H1058 H 0.04777 0.47872 0.18312 0.0
C1059 C 0.10784 0.52272 0.16606 0.0
C1060 C 0.10798 0.5099 0.18971 0.0
H1061 H 0.08669 0.52959 0.13044 0.0
H1062 H 0.12463 0.53474 0.16083 0.0
C1063 C 0.0858 0.4946 0.19594 0.0
C1064 C 0.41031 0.74605 0.35159 0.0
C1065 C 0.41654 0.74849 0.3258 0.0
H1066 H 0.42428 0.74499 0.39073 0.0
C1067 C 0.44289 0.7531 0.32009 0.0
H1068 H 0.39018 0.74305 0.35671 0.0
C1069 C 0.4626 0.75445 0.33974 0.0
C1070 C 0.45633 0.75113 0.36547 0.0
H1071 H 0.44836 0.75489 0.3004 0.0
H1072 H 0.48275 0.75753 0.33472 0.0
C1073 C 0.42992 0.74725 0.37113 0.0
C1074 C 0.9717 0.34997 0.97391 0.0
C1075 C 0.98958 0.37123 0.97236 0.0
H1076 H 0.96289 0.31039 0.96483 0.0
C1077 C 0.01206 0.36897 0.95846 0.0
H1078 H 0.95433 0.3511 0.98467 0.0
C1079 C 0.01695 0.34565 0.94696 0.0
C1080 C 0.99962 0.32405 0.94945 0.0
H1081 H 0.02606 0.38514 0.95683 0.0
H1082 H 0.03473 0.34435 0.93686 0.0
C1083 C 0.97673 0.3266 0.96269 0.0
C1084 C 0.62662 0.77921 0.3149 0.0
C1085 C 0.62332 0.80352 0.30424 0.0
H1086 H 0.6158 0.75221 0.34358 0.0
C1087 C 0.60568 0.81962 0.31488 0.0
H1088 H 0.64034 0.76657 0.30723 0.0
C1089 C 0.59122 0.81123 0.33566 0.0
C1090 C 0.59477 0.78691 0.3464 0.0
H1091 H 0.6029 0.83848 0.30695 0.0
H1092 H 0.57758 0.82382 0.3435 0.0
C1093 C 0.61268 0.77109 0.33583 0.0
C1094 C 0.05362 0.14657 0.92915 0.0
C1095 C 0.03008 0.1366 0.93892 0.0
H1096 H 0.0747 0.17939 0.9142 0.0
C1097 C 0.00885 0.15253 0.93931 0.0
H1098 H 0.07053 0.13514 0.9288 0.0
C1099 C 0.01161 0.17812 0.93171 0.0
C1100 C 0.03541 0.18817 0.92293 0.0
H1101 H 0.99015 0.1454 0.94589 0.0
H1102 H 0.9951 0.18999 0.9327 0.0
C1103 C 0.05613 0.17202 0.92096 0.0
C1104 C 0.38872 0.23166 0.18313 0.0
C1105 C 0.39212 0.25471 0.19707 0.0
H1106 H 0.40099 0.2092 0.15233 0.0
C1107 C 0.41229 0.2727 0.19089 0.0
H1108 H 0.37315 0.21759 0.18719 0.0
C1109 C 0.42841 0.26786 0.1708 0.0
C1110 C 0.42433 0.24514 0.15634 0.0
H1111 H 0.4154 0.29059 0.20142 0.0
H1112 H 0.44354 0.28217 0.16616 0.0
C1113 C 0.40455 0.22699 0.16297 0.0
C1114 C 0.50493 0.35651 0.05969 0.0
C1115 C 0.52709 0.3643 0.04632 0.0
H1116 H 0.48349 0.32553 0.0774 0.0
C1117 C 0.5458 0.34641 0.042 0.0
H1118 H 0.49029 0.36998 0.06345 0.0
C1119 C 0.54184 0.32096 0.04977 0.0
C1120 C 0.51921 0.31288 0.0623 0.0
H1121 H 0.56297 0.3518 0.03158 0.0
H1122 H 0.55625 0.30746 0.04539 0.0
C1123 C 0.50112 0.3311 0.06778 0.0
C1124 C 0.57822 0.23264 0.1776 0.0
C1125 C 0.59836 0.21572 0.17498 0.0
H1126 H 0.54413 0.24885 0.16023 0.0
C1127 C 0.5989 0.20182 0.1519 0.0
H1128 H 0.57728 0.24402 0.19483 0.0
C1129 C 0.58033 0.20519 0.13186 0.0
C1130 C 0.56032 0.22207 0.13455 0.0
H1131 H 0.61353 0.18807 0.14928 0.0
H1132 H 0.58144 0.19428 0.11434 0.0
C1133 C 0.55926 0.23556 0.15771 0.0
C1134 C 0.4725 0.1242 0.05935 0.0
C1135 C 0.48258 0.12271 0.03494 0.0
H1136 H 0.46451 0.14823 0.09084 0.0
C1137 C 0.49379 0.14509 0.02405 0.0
H1138 H 0.46412 0.10724 0.06843 0.0
C1139 C 0.49419 0.16857 0.03697 0.0
C1140 C 0.48339 0.17015 0.06103 0.0
H1141 H 0.50149 0.14463 0.00516 0.0
H1142 H 0.50226 0.18557 0.02774 0.0
C1143 C 0.4729 0.14767 0.07226 0.0
C1144 C 0.32107 0.44382 0.73886 0.0
C1145 C 0.32102 0.42237 0.72247 0.0
H1146 H 0.34177 0.47833 0.75289 0.0
C1147 C 0.34222 0.42019 0.7067 0.0
H1148 H 0.30529 0.4461 0.75148 0.0
C1149 C 0.36336 0.43824 0.70809 0.0
C1150 C 0.36357 0.45934 0.72475 0.0
H1151 H 0.34261 0.40449 0.6932 0.0
H1152 H 0.37954 0.43574 0.69597 0.0
C1153 C 0.34203 0.46226 0.73979 0.0
C1154 C 0.316 0.62487 0.73312 0.0
C1155 C 0.30007 0.61757 0.75321 0.0
H1156 H 0.3506 0.61856 0.71359 0.0
C1157 C 0.30747 0.59749 0.76946 0.0
H1158 H 0.31104 0.64054 0.72054 0.0
C1159 C 0.33026 0.58484 0.76552 0.0
C1160 C 0.34618 0.5922 0.74539 0.0
H1161 H 0.29549 0.59137 0.78503 0.0
H1162 H 0.33537 0.5693 0.77819 0.0
C1163 C 0.33881 0.6124 0.7293 0.0
C1164 C 0.8336 0.42632 0.48381 0.0
C1165 C 0.85262 0.41988 0.46673 0.0
H1166 H 0.79967 0.41369 0.50369 0.0
C1167 C 0.85037 0.39535 0.4553 0.0
H1168 H 0.83473 0.44475 0.49342 0.0
C1169 C 0.83076 0.37733 0.46196 0.0
C1170 C 0.81238 0.38365 0.47954 0.0
H1171 H 0.86399 0.3898 0.44146 0.0
H1172 H 0.8301 0.35831 0.45356 0.0
C1173 C 0.8135 0.40849 0.48987 0.0
C1174 C 0.72281 0.9097 0.73105 0.0
C1175 C 0.72112 0.89597 0.75412 0.0
H1176 H 0.71432 0.94395 0.71057 0.0
C1177 C 0.70698 0.90602 0.77381 0.0
H1178 H 0.73296 0.90227 0.71522 0.0
C1179 C 0.69582 0.92968 0.77091 0.0
C1180 C 0.69881 0.94402 0.74839 0.0
H1181 H 0.70548 0.89619 0.79195 0.0
H1182 H 0.68591 0.93726 0.78683 0.0
C1183 C 0.71195 0.93352 0.72828 0.0
C1184 C 0.67348 0.57122 0.00923 0.0
C1185 C 0.64706 0.57713 0.00689 0.0
H1186 H 0.71347 0.58576 0.01356 0.0
C1187 C 0.6408 0.60285 0.00878 0.0
H1188 H 0.67888 0.55155 0.00777 0.0
C1189 C 0.66043 0.62234 0.01201 0.0
C1190 C 0.68695 0.61667 0.01344 0.0
H1191 H 0.62061 0.60799 0.00753 0.0
H1192 H 0.65471 0.64194 0.01299 0.0
C1193 C 0.69326 0.59082 0.01242 0.0
C1194 C 0.20312 0.62219 0.25799 0.0
C1195 C 0.22242 0.62255 0.2399 0.0
H1196 H 0.17335 0.59989 0.27652 0.0
C1197 C 0.2254 0.60045 0.22528 0.0
H1198 H 0.20034 0.63909 0.26936 0.0
C1199 C 0.2102 0.57798 0.22952 0.0
C1200 C 0.19144 0.5773 0.24818 0.0
H1201 H 0.24027 0.60022 0.21132 0.0
H1202 H 0.2137 0.56101 0.21864 0.0
C1203 C 0.18759 0.59981 0.26194 0.0
C1204 C 0.85176 0.56679 0.01198 0.0
C1205 C 0.85603 0.55221 0.03425 0.0
H1206 H 0.82888 0.59489 0.993 0.0
C1207 C 0.83849 0.55338 0.05392 0.0
H1208 H 0.86502 0.56632 0.99654 0.0
C1209 C 0.81776 0.56957 0.05186 0.0
C1210 C 0.81421 0.58514 0.03016 0.0
H1211 H 0.84107 0.54205 0.07113 0.0
H1212 H 0.80506 0.57048 0.06771 0.0
C1213 C 0.83111 0.58319 0.00999 0.0
C1214 C 0.15339 0.93084 0.98257 0.0
C1215 C 0.14913 0.94743 0.00293 0.0
H1216 H 0.17706 0.90202 0.96837 0.0
C1217 C 0.16732 0.9492 0.02401 0.0
H1218 H 0.13961 0.92909 0.96613 0.0
C1219 C 0.1888 0.93394 0.02522 0.0
C1220 C 0.19241 0.91635 0.00551 0.0
H1221 H 0.16467 0.9621 0.0398 0.0
H1222 H 0.20204 0.93532 0.04209 0.0
C1223 C 0.17477 0.91532 0.98391 0.0
loop_
_geom_bond_atom_site_label_1
_geom_bond_atom_site_label_2
_geom_bond_distance
_geom_bond_site_symmetry_2
_ccdc_geom_bond_type
C0 C1 1.384 . S
C0 H13 0.947 . S
C0 C35 1.382 . S
C1 C0 1.384 . S
C1 C2 1.378 . S
C2 C1 1.378 . S
C2 C3 1.378 1_655 S
C2 H14 0.952 1_545 S
C3 C2 1.378 1_455 S
C3 H15 0.950 . S
C3 C34 1.383 . S
H4 C23 0.947 . S
H5 C24 0.946 . S
H6 C26 0.953 . S
H7 C27 0.945 1_556 S
H8 C29 0.952 . S
H9 C30 0.949 . S
H10 C32 0.950 1_655 S
H11 C33 0.948 . S
H12 C35 0.951 . S
H13 C0 0.947 . S
H14 C2 0.952 1_565 S
H15 C3 0.950 . S
N16 C19 1.382 . S
N16 C21 1.363 . S
N17 C19 1.371 . S
N17 C20 1.372 . S
N18 C20 1.361 . S
N18 C21 1.377 . S
C19 N16 1.382 . S
C19 N17 1.371 . S
C19 C22 1.480 . S
C20 N17 1.372 . S
C20 N18 1.361 . S
C20 C28 1.457 1_554 S
C21 N16 1.363 . S
C21 N18 1.377 . S
C21 C34 1.479 . S
C22 C19 1.480 . S
C22 C23 1.383 1_545 S
C22 C27 1.385 . S
C23 H4 0.947 . S
C23 C22 1.383 1_565 S
C23 C24 1.388 . S
C24 H5 0.946 . S
C24 C23 1.388 . S
C24 C25 1.384 . S
C25 C24 1.384 . S
C25 C26 1.377 1_554 S
C26 H6 0.953 . S
C26 C25 1.377 1_556 S
C26 C27 1.369 1_566 S
C27 H7 0.945 1_554 S
C27 C22 1.385 . S
C27 C26 1.369 1_544 S
C28 C20 1.457 1_556 S
C28 C29 1.372 . S
C28 C33 1.364 1_556 S
C29 H8 0.952 . S
C29 C28 1.372 . S
C29 C30 1.389 . S
C30 H9 0.949 . S
C30 C29 1.389 . S
C30 C31 1.387 . S
C31 C30 1.387 . S
C31 C32 1.372 . S
C32 H10 0.950 1_455 S
C32 C31 1.372 . S
C32 C33 1.379 1_556 S
C33 H11 0.948 . S
C33 C28 1.364 1_554 S
C33 C32 1.379 1_554 S
C34 C3 1.383 . S
C34 C21 1.479 . S
C34 C35 1.398 1_455 S
C35 C0 1.382 . S
C35 H12 0.951 . S
C35 C34 1.398 1_655 S
C36 C37 1.384 . S
C36 H49 0.947 . S
C36 C71 1.382 . S
C37 C36 1.384 . S
C37 C38 1.378 . S
C38 C37 1.378 . S
C38 C39 1.378 . S
C38 H50 0.952 . S
C39 C38 1.378 . S
C39 H51 0.950 . S
C39 C70 1.383 . S
H40 C59 0.947 . S
H41 C60 0.946 . S
H42 C62 0.953 . S
H43 C63 0.945 . S
H44 C65 0.952 . S
H45 C66 0.949 . S
H46 C68 0.950 . S
H47 C69 0.948 . S
H48 C71 0.951 . S
H49 C36 0.947 . S
H50 C38 0.952 . S
H51 C39 0.950 . S
N52 C55 1.382 . S
N52 C57 1.363 . S
N53 C55 1.371 . S
N53 C56 1.372 . S
N54 C56 1.361 . S
N54 C57 1.377 . S
C55 N52 1.382 . S
C55 N53 1.371 . S
C55 C58 1.480 . S
C56 N53 1.372 . S
C56 N54 1.361 . S
C56 C64 1.457 . S
C57 N52 1.363 . S
C57 N54 1.377 . S
C57 C70 1.479 . S
C58 C55 1.480 . S
C58 C59 1.383 . S
C58 C63 1.385 . S
C59 H40 0.947 . S
C59 C58 1.383 . S
C59 C60 1.388 . S
C60 H41 0.946 . S
C60 C59 1.388 . S
C60 C61 1.384 . S
C61 C60 1.384 . S
C61 C62 1.377 . S
C62 H42 0.953 . S
C62 C61 1.377 . S
C62 C63 1.369 . S
C63 H43 0.945 . S
C63 C58 1.385 . S
C63 C62 1.369 . S
C64 C56 1.457 . S
C64 C65 1.372 . S
C64 C69 1.364 . S
C65 H44 0.952 . S
C65 C64 1.372 . S
C65 C66 1.389 . S
C66 H45 0.949 . S
C66 C65 1.389 . S
C66 C67 1.387 . S
C67 C66 1.387 . S
C67 C68 1.372 . S
C68 H46 0.950 . S
C68 C67 1.372 . S
C68 C69 1.379 . S
C69 H47 0.948 . S
C69 C64 1.364 . S
C69 C68 1.379 . S
C70 C39 1.383 . S
C70 C57 1.479 . S
C70 C71 1.398 . S
C71 C36 1.382 . S
C71 H48 0.951 . S
C71 C70 1.398 . S
C72 C73 1.384 1_454 S
C72 H85 0.947 . S
C72 C107 1.382 . S
C73 C72 1.384 1_656 S
C73 C74 1.378 . S
C74 C73 1.378 . S
C74 C75 1.378 . S
C74 H86 0.952 . S
C75 C74 1.378 . S
C75 H87 0.950 . S
C75 C106 1.383 1_556 S
H76 C95 0.947 . S
H77 C96 0.974 . S
H78 C98 0.953 . S
H79 C99 0.945 . S
H80 C101 0.952 1_655 S
H81 C102 0.949 . S
H82 C104 0.950 . S
H83 C105 0.948 . S
H84 C107 0.951 . S
H85 C72 0.947 . S
H86 C74 0.952 . S
H87 C75 0.950 . S
N88 C91 1.382 . S
N88 C93 1.363 . S
N89 C91 1.371 . S
N89 C92 1.372 . S
N90 C92 1.361 1_455 S
N90 C93 1.377 1_455 S
C91 N88 1.382 . S
C91 N89 1.371 . S
C91 C94 1.480 . S
C92 N89 1.372 . S
C92 N90 1.361 1_655 S
C92 C100 1.457 1_655 S
C93 N88 1.363 . S
C93 N90 1.377 1_655 S
C93 C106 1.479 . S
C94 C91 1.480 . S
C94 C95 1.383 . S
C94 C99 1.385 . S
C95 H76 0.947 . S
C95 C94 1.383 . S
C95 C96 1.388 . S
C96 H77 0.974 . S
C96 C95 1.388 . S
C96 C97 1.384 . S
C97 C96 1.384 . S
C97 C98 1.377 . S
C98 H78 0.953 . S
C98 C97 1.377 . S
C98 C99 1.369 . S
C99 H79 0.945 . S
C99 C94 1.385 . S
C99 C98 1.369 . S
C100 C92 1.457 1_455 S
C100 C101 1.372 . S
C100 C105 1.364 . S
C101 H80 0.952 1_455 S
C101 C100 1.372 . S
C101 C102 1.389 . S
C102 H81 0.949 . S
C102 C101 1.389 . S
C102 C103 1.387 . S
C103 C102 1.387 . S
C103 C104 1.372 . S
C104 H82 0.950 . S
C104 C103 1.372 . S
C104 C105 1.379 . S
C105 H83 0.948 . S
C105 C100 1.364 . S
C105 C104 1.379 . S
C106 C75 1.383 1_554 S
C106 C93 1.479 . S
C106 C107 1.398 1_655 S
C107 C72 1.382 . S
C107 H84 0.951 . S
C107 C106 1.398 1_455 S
C108 C109 1.384 . S
C108 H121 0.947 . S
C108 C143 1.382 . S
C109 C108 1.384 . S
C109 C110 1.378 . S
C110 C109 1.378 . S
C110 C111 1.378 . S
C110 H122 0.952 . S
C111 C110 1.378 . S
C111 H123 0.950 . S
C111 C142 1.383 . S
H112 C131 0.947 . S
H113 C132 0.946 . S
H114 C134 0.953 . S
H115 C135 0.945 . S
H116 C137 0.952 . S
H117 C138 0.949 . S
H118 C140 0.950 . S
H119 C141 0.948 . S
H120 C143 0.951 . S
H121 C108 0.947 . S
H122 C110 0.952 . S
H123 C111 0.950 . S
N124 C127 1.382 . S
N124 C129 1.363 . S
N125 C127 1.371 . S
N125 C128 1.372 . S
N126 C128 1.361 . S
N126 C129 1.377 . S
C127 N124 1.382 . S
C127 N125 1.371 . S
C127 C130 1.480 . S
C128 N125 1.372 . S
C128 N126 1.361 . S
C128 C136 1.457 . S
C129 N124 1.363 . S
C129 N126 1.377 . S
C129 C142 1.479 . S
C130 C127 1.480 . S
C130 C131 1.383 . S
C130 C135 1.385 . S
C131 H112 0.947 . S
C131 C130 1.383 . S
C131 C132 1.388 . S
C132 H113 0.946 . S
C132 C131 1.388 . S
C132 C133 1.384 . S
C133 C132 1.384 . S
C133 C134 1.377 . S
C134 H114 0.953 . S
C134 C133 1.377 . S
C134 C135 1.369 . S
C135 H115 0.945 . S
C135 C130 1.385 . S
C135 C134 1.369 . S
C136 C128 1.457 . S
C136 C137 1.372 . S
C136 C141 1.364 . S
C137 H116 0.952 . S
C137 C136 1.372 . S
C137 C138 1.389 . S
C138 H117 0.949 . S
C138 C137 1.389 . S
C138 C139 1.387 . S
C139 C138 1.387 . S
C139 C140 1.372 . S
C140 H118 0.950 . S
C140 C139 1.372 . S
C140 C141 1.379 . S
C141 H119 0.948 . S
C141 C136 1.364 . S
C141 C140 1.379 . S
C142 C111 1.383 . S
C142 C129 1.479 . S
C142 C143 1.398 . S
C143 C108 1.382 . S
C143 H120 0.951 . S
C143 C142 1.398 . S
C144 C145 1.384 . S
C144 H157 0.947 . S
C144 C179 1.382 . S
C145 C144 1.384 . S
C145 C146 1.378 . S
C146 C145 1.378 . S
C146 C147 1.378 . S
C146 H158 0.952 . S
C147 C146 1.378 . S
C147 H159 0.950 . S
C147 C178 1.383 . S
H148 C167 0.947 . S
H149 C168 0.946 . S
H150 C170 0.953 . S
H151 C171 0.945 1_545 S
H152 C173 0.952 . S
H153 C174 0.949 . S
H154 C176 0.950 . S
H155 C177 0.948 . S
H156 C179 0.951 . S
H157 C144 0.947 . S
H158 C146 0.952 . S
H159 C147 0.950 . S
N160 C163 1.382 . S
N160 C165 1.363 . S
N161 C163 1.371 . S
N161 C164 1.372 . S
N162 C164 1.361 . S
N162 C165 1.377 . S
C163 N160 1.382 . S
C163 N161 1.371 . S
C163 C166 1.480 . S
C164 N161 1.372 . S
C164 N162 1.361 . S
C164 C172 1.457 1_565 S
C165 N160 1.363 . S
C165 N162 1.377 . S
C165 C178 1.479 . S
C166 C163 1.480 . S
C166 C167 1.383 1_455 S
C166 C171 1.385 . S
C167 H148 0.947 . S
C167 C166 1.383 1_655 S
C167 C168 1.388 . S
C168 H149 0.946 . S
C168 C167 1.388 . S
C168 C169 1.384 . S
C169 C168 1.384 . S
C169 C170 1.377 1_665 S
C170 H150 0.953 . S
C170 C169 1.377 1_445 S
C170 C171 1.369 1_545 S
C171 H151 0.945 1_565 S
C171 C166 1.385 . S
C171 C170 1.369 1_565 S
C172 C164 1.457 1_545 S
C172 C173 1.372 . S
C172 C177 1.364 1_545 S
C173 H152 0.952 . S
C173 C172 1.372 . S
C173 C174 1.389 . S
C174 H153 0.949 . S
C174 C173 1.389 . S
C174 C175 1.387 . S
C175 C174 1.387 . S
C175 C176 1.372 . S
C176 H154 0.950 . S
C176 C175 1.372 . S
C176 C177 1.379 1_545 S
C177 H155 0.948 . S
C177 C172 1.364 1_565 S
C177 C176 1.379 1_565 S
C178 C147 1.383 . S
C178 C165 1.479 . S
C178 C179 1.398 . S
C179 C144 1.382 . S
C179 H156 0.951 . S
C179 C178 1.398 . S
C180 C181 1.384 . S
C180 H193 0.947 . S
C180 C215 1.382 . S
C181 C180 1.384 . S
C181 C182 1.378 . S
C182 C181 1.378 . S
C182 C183 1.378 . S
C182 H194 0.952 . S
C183 C182 1.378 . S
C183 H195 0.950 . S
C183 C214 1.383 . S
H184 C203 0.947 . S
H185 C204 0.946 . S
H186 C206 0.953 . S
H187 C207 0.945 . S
H188 C209 0.952 . S
H189 C210 0.949 . S
H190 C212 0.950 . S
H191 C213 0.948 . S
H192 C215 0.951 . S
H193 C180 0.947 . S
H194 C182 0.952 . S
H195 C183 0.950 . S
N196 C199 1.382 . S
N196 C201 1.363 . S
N197 C199 1.371 . S
N197 C200 1.372 . S
N198 C200 1.361 . S
N198 C201 1.377 . S
C199 N196 1.382 . S
C199 N197 1.371 . S
C199 C202 1.480 . S
C200 N197 1.372 . S
C200 N198 1.361 . S
C200 C208 1.457 . S
C201 N196 1.363 . S
C201 N198 1.377 . S
C201 C214 1.479 . S
C202 C199 1.480 . S
C202 C203 1.383 . S
C202 C207 1.385 . S
C203 H184 0.947 . S
C203 C202 1.383 . S
C203 C204 1.388 . S
C204 H185 0.946 . S
C204 C203 1.388 . S
C204 C205 1.384 . S
C205 C204 1.384 . S
C205 C206 1.377 . S
C206 H186 0.953 . S
C206 C205 1.377 . S
C206 C207 1.369 . S
C207 H187 0.945 . S
C207 C202 1.385 . S
C207 C206 1.369 . S
C208 C200 1.457 . S
C208 C209 1.372 . S
C208 C213 1.364 . S
C209 H188 0.952 . S
C209 C208 1.372 . S
C209 C210 1.389 . S
C210 H189 0.949 . S
C210 C209 1.389 . S
C210 C211 1.387 . S
C211 C210 1.387 . S
C211 C212 1.372 . S
C212 H190 0.950 . S
C212 C211 1.372 . S
C212 C213 1.379 . S
C213 H191 0.948 . S
C213 C208 1.364 . S
C213 C212 1.379 . S
C214 C183 1.383 . S
C214 C201 1.479 . S
C214 C215 1.398 . S
C215 C180 1.382 . S
C215 H192 0.951 . S
C215 C214 1.398 . S
C216 C217 1.384 . S
C216 H229 0.947 1_655 S
C216 C251 1.382 . S
C217 C216 1.384 . S
C217 C218 1.378 . S
C218 C217 1.378 . S
C218 C219 1.378 . S
C218 H230 0.952 . S
C219 C218 1.378 . S
C219 H231 0.950 . S
C219 C250 1.383 . S
H220 C239 0.947 . S
H221 C240 0.946 . S
H222 C242 0.953 . S
H223 C243 0.945 . S
H224 C245 0.952 . S
H225 C246 0.949 . S
H226 C248 0.950 . S
H227 C249 0.948 . S
H228 C251 0.951 1_455 S
H229 C216 0.947 1_455 S
H230 C218 0.952 . S
H231 C219 0.950 . S
N232 C235 1.382 . S
N232 C237 1.363 . S
N233 C235 1.371 . S
N233 C236 1.372 . S
N234 C236 1.361 . S
N234 C237 1.377 . S
C235 N232 1.382 . S
C235 N233 1.371 . S
C235 C238 1.480 . S
C236 N233 1.372 . S
C236 N234 1.361 . S
C236 C244 1.457 1_655 S
C237 N232 1.363 . S
C237 N234 1.377 . S
C237 C250 1.479 . S
C238 C235 1.480 . S
C238 C239 1.383 . S
C238 C243 1.385 . S
C239 H220 0.947 . S
C239 C238 1.383 . S
C239 C240 1.388 . S
C240 H221 0.946 . S
C240 C239 1.388 . S
C240 C241 1.384 . S
C241 C240 1.384 . S
C241 C242 1.377 . S
C242 H222 0.953 . S
C242 C241 1.377 . S
C242 C243 1.369 . S
C243 H223 0.945 . S
C243 C238 1.385 . S
C243 C242 1.369 . S
C244 C236 1.457 1_455 S
C244 C245 1.372 1_455 S
C244 C249 1.364 . S
C245 H224 0.952 . S
C245 C244 1.372 1_655 S
C245 C246 1.389 1_655 S
C246 H225 0.949 . S
C246 C245 1.389 1_455 S
C246 C247 1.387 . S
C247 C246 1.387 . S
C247 C248 1.372 . S
C248 H226 0.950 . S
C248 C247 1.372 . S
C248 C249 1.379 . S
C249 H227 0.948 . S
C249 C244 1.364 . S
C249 C248 1.379 . S
C250 C219 1.383 . S
C250 C237 1.479 . S
C250 C251 1.398 . S
C251 C216 1.382 . S
C251 H228 0.951 1_655 S
C251 C250 1.398 . S
C252 C253 1.384 . S
C252 H265 0.947 . S
C252 C287 1.382 . S
C253 C252 1.384 . S
C253 C254 1.378 . S
C254 C253 1.378 . S
C254 C255 1.378 . S
C254 H266 0.952 . S
C255 C254 1.378 . S
C255 H267 0.950 . S
C255 C286 1.383 . S
H256 C275 0.947 . S
H257 C276 0.946 . S
H258 C278 0.953 . S
H259 C279 0.945 . S
H260 C281 0.952 . S
H261 C282 0.949 . S
H262 C284 0.950 . S
H263 C285 0.948 . S
H264 C287 0.951 . S
H265 C252 0.947 . S
H266 C254 0.952 . S
H267 C255 0.950 . S
N268 C271 1.382 . S
N268 C273 1.363 . S
N269 C271 1.371 . S
N269 C272 1.372 . S
N270 C272 1.361 . S
N270 C273 1.377 . S
C271 N268 1.382 . S
C271 N269 1.371 . S
C271 C274 1.480 . S
C272 N269 1.372 . S
C272 N270 1.361 . S
C272 C280 1.457 . S
C273 N268 1.363 . S
C273 N270 1.377 . S
C273 C286 1.479 . S
C274 C271 1.480 . S
C274 C275 1.383 . S
C274 C279 1.385 . S
C275 H256 0.947 . S
C275 C274 1.383 . S
C275 C276 1.388 . S
C276 H257 0.946 . S
C276 C275 1.388 . S
C276 C277 1.384 . S
C277 C276 1.384 . S
C277 C278 1.377 . S
C278 H258 0.953 . S
C278 C277 1.377 . S
C278 C279 1.369 . S
C279 H259 0.945 . S
C279 C274 1.385 . S
C279 C278 1.369 . S
C280 C272 1.457 . S
C280 C281 1.372 . S
C280 C285 1.364 . S
C281 H260 0.952 . S
C281 C280 1.372 . S
C281 C282 1.389 . S
C282 H261 0.949 . S
C282 C281 1.389 . S
C282 C283 1.387 . S
C283 C282 1.387 . S
C283 C284 1.372 . S
C284 H262 0.950 . S
C284 C283 1.372 . S
C284 C285 1.379 . S
C285 H263 0.948 . S
C285 C280 1.364 . S
C285 C284 1.379 . S
C286 C255 1.383 . S
C286 C273 1.479 . S
C286 C287 1.398 . S
C287 C252 1.382 . S
C287 H264 0.951 . S
C287 C286 1.398 . S
C288 C289 1.384 . S
C288 H301 0.947 . S
C288 C323 1.382 . S
C289 C288 1.384 . S
C289 C290 1.378 . S
C290 C289 1.378 . S
C290 C291 1.378 . S
C290 H302 0.952 . S
C291 C290 1.378 . S
C291 H303 0.950 . S
C291 C322 1.383 . S
H292 C311 0.947 . S
H293 C312 0.946 . S
H294 C314 0.953 . S
H295 C315 0.945 . S
H296 C317 0.952 . S
H297 C318 0.949 . S
H298 C320 0.950 . S
H299 C321 0.948 . S
H300 C323 0.951 . S
H301 C288 0.947 . S
H302 C290 0.952 . S
H303 C291 0.950 . S
N304 C307 1.382 . S
N304 C309 1.363 . S
N305 C307 1.371 . S
N305 C308 1.372 . S
N306 C308 1.361 . S
N306 C309 1.377 . S
C307 N304 1.382 . S
C307 N305 1.371 . S
C307 C310 1.480 . S
C308 N305 1.372 . S
C308 N306 1.361 . S
C308 C316 1.457 . S
C309 N304 1.363 . S
C309 N306 1.377 . S
C309 C322 1.479 . S
C310 C307 1.480 . S
C310 C311 1.383 . S
C310 C315 1.385 . S
C311 H292 0.947 . S
C311 C310 1.383 . S
C311 C312 1.388 . S
C312 H293 0.946 . S
C312 C311 1.388 . S
C312 C313 1.384 . S
C313 C312 1.384 . S
C313 C314 1.377 . S
C314 H294 0.953 . S
C314 C313 1.377 . S
C314 C315 1.369 . S
C315 H295 0.945 . S
C315 C310 1.385 . S
C315 C314 1.369 . S
C316 C308 1.457 . S
C316 C317 1.372 . S
C316 C321 1.364 . S
C317 H296 0.952 . S
C317 C316 1.372 . S
C317 C318 1.389 . S
C318 H297 0.949 . S
C318 C317 1.389 . S
C318 C319 1.387 . S
C319 C318 1.387 . S
C319 C320 1.372 . S
C320 H298 0.950 . S
C320 C319 1.372 . S
C320 C321 1.379 . S
C321 H299 0.948 . S
C321 C316 1.364 . S
C321 C320 1.379 . S
C322 C291 1.383 . S
C322 C309 1.479 . S
C322 C323 1.398 . S
C323 C288 1.382 . S
C323 H300 0.951 . S
C323 C322 1.398 . S
C324 C325 1.384 . S
C324 H337 0.947 . S
C324 C359 1.382 . S
C325 C324 1.384 . S
C325 C326 1.378 . S
C326 C325 1.378 . S
C326 C327 1.378 . S
C326 H338 0.952 . S
C327 C326 1.378 . S
C327 H339 0.950 . S
C327 C358 1.383 . S
H328 C347 0.947 . S
H329 C348 0.946 . S
H330 C350 0.953 . S
H331 C351 0.945 . S
H332 C353 0.952 1_545 S
H333 C354 0.949 1_545 S
H334 C356 0.950 . S
H335 C357 0.948 . S
H336 C359 0.951 . S
H337 C324 0.947 . S
H338 C326 0.952 . S
H339 C327 0.950 . S
N340 C343 1.382 . S
N340 C345 1.363 . S
N341 C343 1.371 . S
N341 C344 1.372 . S
N342 C344 1.361 . S
N342 C345 1.377 . S
C343 N340 1.382 . S
C343 N341 1.371 . S
C343 C346 1.480 1_565 S
C344 N341 1.372 . S
C344 N342 1.361 . S
C344 C352 1.457 . S
C345 N340 1.363 . S
C345 N342 1.377 . S
C345 C358 1.479 . S
C346 C343 1.480 1_545 S
C346 C347 1.383 1_545 S
C346 C351 1.385 . S
C347 H328 0.947 . S
C347 C346 1.383 1_565 S
C347 C348 1.388 1_565 S
C348 H329 0.946 . S
C348 C347 1.388 1_545 S
C348 C349 1.384 . S
C349 C348 1.384 . S
C349 C350 1.377 . S
C350 H330 0.953 . S
C350 C349 1.377 . S
C350 C351 1.369 . S
C351 H331 0.945 . S
C351 C346 1.385 . S
C351 C350 1.369 . S
C352 C344 1.457 . S
C352 C353 1.372 . S
C352 C357 1.364 . S
C353 H332 0.952 1_565 S
C353 C352 1.372 . S
C353 C354 1.389 . S
C354 H333 0.949 1_565 S
C354 C353 1.389 . S
C354 C355 1.387 . S
C355 C354 1.387 . S
C355 C356 1.372 . S
C356 H334 0.950 . S
C356 C355 1.372 . S
C356 C357 1.379 . S
C357 H335 0.948 . S
C357 C352 1.364 . S
C357 C356 1.379 . S
C358 C327 1.383 . S
C358 C345 1.479 . S
C358 C359 1.398 . S
C359 C324 1.382 . S
C359 H336 0.951 . S
C359 C358 1.398 . S
C360 C361 1.384 . S
C360 H373 0.947 . S
C360 C395 1.382 . S
C361 C360 1.384 . S
C361 C362 1.378 . S
C362 C361 1.378 . S
C362 C363 1.378 . S
C362 H374 0.952 . S
C363 C362 1.378 . S
C363 H375 0.950 . S
C363 C394 1.383 . S
H364 C383 0.947 . S
H365 C384 0.946 . S
H366 C386 0.953 . S
H367 C387 0.945 . S
H368 C389 0.952 . S
H369 C390 0.949 . S
H370 C392 0.950 . S
H371 C393 0.948 . S
H372 C395 0.951 . S
H373 C360 0.947 . S
H374 C362 0.952 . S
H375 C363 0.950 . S
N376 C379 1.382 . S
N376 C381 1.363 . S
N377 C379 1.371 . S
N377 C380 1.372 . S
N378 C380 1.361 . S
N378 C381 1.377 . S
C379 N376 1.382 . S
C379 N377 1.371 . S
C379 C382 1.480 . S
C380 N377 1.372 . S
C380 N378 1.361 . S
C380 C388 1.457 . S
C381 N376 1.363 . S
C381 N378 1.377 . S
C381 C394 1.479 . S
C382 C379 1.480 . S
C382 C383 1.383 . S
C382 C387 1.385 . S
C383 H364 0.947 . S
C383 C382 1.383 . S
C383 C384 1.388 . S
C384 H365 0.946 . S
C384 C383 1.388 . S
C384 C385 1.384 . S
C385 C384 1.384 . S
C385 C386 1.377 . S
C386 H366 0.953 . S
C386 C385 1.377 . S
C386 C387 1.369 . S
C387 H367 0.945 . S
C387 C382 1.385 . S
C387 C386 1.369 . S
C388 C380 1.457 . S
C388 C389 1.372 . S
C388 C393 1.364 . S
C389 H368 0.952 . S
C389 C388 1.372 . S
C389 C390 1.389 . S
C390 H369 0.949 . S
C390 C389 1.389 . S
C390 C391 1.387 . S
C391 C390 1.387 . S
C391 C392 1.372 . S
C392 H370 0.950 . S
C392 C391 1.372 . S
C392 C393 1.379 . S
C393 H371 0.948 . S
C393 C388 1.364 . S
C393 C392 1.379 . S
C394 C363 1.383 . S
C394 C381 1.479 . S
C394 C395 1.398 . S
C395 C360 1.382 . S
C395 H372 0.951 . S
C395 C394 1.398 . S
C396 C397 1.384 . S
C396 H409 0.947 . S
C396 C431 1.382 . S
C397 C396 1.384 . S
C397 C398 1.378 . S
C398 C397 1.378 . S
C398 C399 1.378 . S
C398 H410 0.952 . S
C399 C398 1.378 . S
C399 H411 0.950 . S
C399 C430 1.383 . S
H400 C419 0.947 . S
H401 C420 0.946 . S
H402 C422 0.953 . S
H403 C423 0.945 . S
H404 C425 0.952 . S
H405 C426 0.949 . S
H406 C428 0.950 . S
H407 C429 0.948 . S
H408 C431 0.951 . S
H409 C396 0.947 . S
H410 C398 0.952 . S
H411 C399 0.950 . S
N412 C415 1.382 . S
N412 C417 1.363 . S
N413 C415 1.371 . S
N413 C416 1.372 . S
N414 C416 1.361 . S
N414 C417 1.377 . S
C415 N412 1.382 . S
C415 N413 1.371 . S
C415 C418 1.480 . S
C416 N413 1.372 . S
C416 N414 1.361 . S
C416 C424 1.457 . S
C417 N412 1.363 . S
C417 N414 1.377 . S
C417 C430 1.479 . S
C418 C415 1.480 . S
C418 C419 1.383 . S
C418 C423 1.385 . S
C419 H400 0.947 . S
C419 C418 1.383 . S
C419 C420 1.388 . S
C420 H401 0.946 . S
C420 C419 1.388 . S
C420 C421 1.384 . S
C421 C420 1.384 . S
C421 C422 1.377 . S
C422 H402 0.953 . S
C422 C421 1.377 . S
C422 C423 1.369 . S
C423 H403 0.945 . S
C423 C418 1.385 . S
C423 C422 1.369 . S
C424 C416 1.457 . S
C424 C425 1.372 . S
C424 C429 1.364 . S
C425 H404 0.952 . S
C425 C424 1.372 . S
C425 C426 1.389 . S
C426 H405 0.949 . S
C426 C425 1.389 . S
C426 C427 1.387 . S
C427 C426 1.387 . S
C427 C428 1.372 . S
C428 H406 0.950 . S
C428 C427 1.372 . S
C428 C429 1.379 . S
C429 H407 0.948 . S
C429 C424 1.364 . S
C429 C428 1.379 . S
C430 C399 1.383 . S
C430 C417 1.479 . S
C430 C431 1.398 . S
C431 C396 1.382 . S
C431 H408 0.951 . S
C431 C430 1.398 . S
C432 C433 1.384 . S
C432 H445 0.947 . S
C432 C467 1.382 . S
C433 C432 1.384 . S
C433 C434 1.378 . S
C434 C433 1.378 . S
C434 C435 1.378 . S
C434 H446 0.952 . S
C435 C434 1.378 . S
C435 H447 0.950 . S
C435 C466 1.383 . S
H436 C455 0.947 . S
H437 C456 0.946 . S
H438 C458 0.953 . S
H439 C459 0.945 . S
H440 C461 0.952 . S
H441 C462 0.949 . S
H442 C464 0.950 . S
H443 C465 0.948 . S
H444 C467 0.951 . S
H445 C432 0.947 . S
H446 C434 0.952 . S
H447 C435 0.950 . S
N448 C451 1.382 . S
N448 C453 1.363 . S
N449 C451 1.371 . S
N449 C452 1.372 . S
N450 C452 1.361 . S
N450 C453 1.377 . S
C451 N448 1.382 . S
C451 N449 1.371 . S
C451 C454 1.480 . S
C452 N449 1.372 . S
C452 N450 1.361 . S
C452 C460 1.457 . S
C453 N448 1.363 . S
C453 N450 1.377 . S
C453 C466 1.479 . S
C454 C451 1.480 . S
C454 C455 1.383 . S
C454 C459 1.385 . S
C455 H436 0.947 . S
C455 C454 1.383 . S
C455 C456 1.388 . S
C456 H437 0.946 . S
C456 C455 1.388 . S
C456 C457 1.384 . S
C457 C456 1.384 . S
C457 C458 1.377 . S
C458 H438 0.953 . S
C458 C457 1.377 . S
C458 C459 1.369 . S
C459 H439 0.945 . S
C459 C454 1.385 . S
C459 C458 1.369 . S
C460 C452 1.457 . S
C460 C461 1.372 . S
C460 C465 1.364 . S
C461 H440 0.952 . S
C461 C460 1.372 . S
C461 C462 1.389 . S
C462 H441 0.949 . S
C462 C461 1.389 . S
C462 C463 1.387 . S
C463 C462 1.387 . S
C463 C464 1.372 . S
C464 H442 0.950 . S
C464 C463 1.372 . S
C464 C465 1.379 . S
C465 H443 0.948 . S
C465 C460 1.364 . S
C465 C464 1.379 . S
C466 C435 1.383 . S
C466 C453 1.479 . S
C466 C467 1.398 . S
C467 C432 1.382 . S
C467 H444 0.951 . S
C467 C466 1.398 . S
C468 C469 1.384 . S
C468 H481 0.947 . S
C468 C503 1.382 . S
C469 C468 1.384 . S
C469 C470 1.378 . S
C470 C469 1.378 . S
C470 C471 1.378 1_554 S
C470 H482 0.958 . S
C471 C470 1.378 1_556 S
C471 H483 0.950 . S
C471 C502 1.383 . S
H472 C491 0.947 . S
H473 C492 0.946 . S
H474 C494 0.953 . S
H475 C495 0.945 . S
H476 C497 0.952 . S
H477 C498 0.949 . S
H478 C500 0.950 1_554 S
H479 C501 0.946 . S
H480 C503 0.951 . S
H481 C468 0.947 . S
H482 C470 0.958 . S
H483 C471 0.950 . S
N484 C487 1.382 . S
N484 C489 1.363 . S
N485 C487 1.371 . S
N485 C488 1.372 . S
N486 C488 1.361 . S
N486 C489 1.377 . S
C487 N484 1.382 . S
C487 N485 1.371 . S
C487 C490 1.480 . S
C488 N485 1.372 . S
C488 N486 1.361 . S
C488 C496 1.457 . S
C489 N484 1.363 . S
C489 N486 1.377 . S
C489 C502 1.479 . S
C490 C487 1.480 . S
C490 C491 1.383 . S
C490 C495 1.385 . S
C491 H472 0.947 . S
C491 C490 1.383 . S
C491 C492 1.388 . S
C492 H473 0.946 . S
C492 C491 1.388 . S
C492 C493 1.384 . S
C493 C492 1.384 . S
C493 C494 1.377 . S
C494 H474 0.953 . S
C494 C493 1.377 . S
C494 C495 1.369 . S
C495 H475 0.945 . S
C495 C490 1.385 . S
C495 C494 1.369 . S
C496 C488 1.457 . S
C496 C497 1.372 . S
C496 C501 1.364 . S
C497 H476 0.952 . S
C497 C496 1.372 . S
C497 C498 1.389 . S
C498 H477 0.949 . S
C498 C497 1.389 . S
C498 C499 1.387 . S
C499 C498 1.387 . S
C499 C500 1.372 . S
C500 H478 0.950 1_556 S
C500 C499 1.372 . S
C500 C501 1.379 . S
C501 H479 0.946 . S
C501 C496 1.364 . S
C501 C500 1.379 . S
C502 C471 1.383 . S
C502 C489 1.479 . S
C502 C503 1.398 1_556 S
C503 C468 1.382 . S
C503 H480 0.951 . S
C503 C502 1.398 1_554 S
C504 C505 1.384 . S
C504 H517 0.947 . S
C504 C539 1.382 . S
C505 C504 1.384 . S
C505 C506 1.378 . S
C506 C505 1.378 . S
C506 C507 1.378 . S
C506 H518 0.952 . S
C507 C506 1.378 . S
C507 H519 0.950 . S
C507 C538 1.383 . S
H508 C527 0.947 . S
H509 C528 0.946 . S
H510 C530 0.953 . S
H511 C531 0.945 . S
H512 C533 0.952 . S
H513 C534 0.949 . S
H514 C536 0.950 . S
H515 C537 0.948 . S
H516 C539 0.951 . S
H517 C504 0.947 . S
H518 C506 0.952 . S
H519 C507 0.950 . S
N520 C523 1.382 . S
N520 C525 1.363 . S
N521 C523 1.371 . S
N521 C524 1.372 . S
N522 C524 1.361 . S
N522 C525 1.377 . S
C523 N520 1.382 . S
C523 N521 1.371 . S
C523 C526 1.480 . S
C524 N521 1.372 . S
C524 N522 1.361 . S
C524 C532 1.457 . S
C525 N520 1.363 . S
C525 N522 1.377 . S
C525 C538 1.479 . S
C526 C523 1.480 . S
C526 C527 1.383 . S
C526 C531 1.385 . S
C527 H508 0.947 . S
C527 C526 1.383 . S
C527 C528 1.388 . S
C528 H509 0.946 . S
C528 C527 1.388 . S
C528 C529 1.384 . S
C529 C528 1.384 . S
C529 C530 1.377 . S
C530 H510 0.953 . S
C530 C529 1.377 . S
C530 C531 1.369 . S
C531 H511 0.945 . S
C531 C526 1.385 . S
C531 C530 1.369 . S
C532 C524 1.457 . S
C532 C533 1.372 . S
C532 C537 1.364 . S
C533 H512 0.952 . S
C533 C532 1.372 . S
C533 C534 1.389 . S
C534 H513 0.949 . S
C534 C533 1.389 . S
C534 C535 1.387 . S
C535 C534 1.387 . S
C535 C536 1.372 . S
C536 H514 0.950 . S
C536 C535 1.372 . S
C536 C537 1.379 . S
C537 H515 0.948 . S
C537 C532 1.364 . S
C537 C536 1.379 . S
C538 C507 1.383 . S
C538 C525 1.479 . S
C538 C539 1.398 . S
C539 C504 1.382 . S
C539 H516 0.951 . S
C539 C538 1.398 . S
C540 C541 1.384 . S
C540 H553 0.947 . S
C540 C575 1.393 . S
C541 C540 1.384 . S
C541 C542 1.378 . S
C542 C541 1.378 . S
C542 C543 1.378 . S
C542 H554 0.952 . S
C543 C542 1.378 . S
C543 H555 0.950 . S
C543 C574 1.383 . S
H544 C563 0.942 1_544 S
H545 C564 0.947 . S
H546 C566 0.953 . S
H547 C567 0.945 . S
H548 C569 0.952 1_565 S
H549 C570 0.949 . S
H550 C572 0.950 . S
H551 C573 0.948 . S
H552 C575 0.935 1_556 S
H553 C540 0.947 . S
H554 C542 0.952 . S
H555 C543 0.950 . S
N556 C559 1.382 . S
N556 C561 1.363 . S
N557 C559 1.371 . S
N557 C560 1.372 . S
N558 C560 1.361 . S
N558 C561 1.377 . S
C559 N556 1.382 . S
C559 N557 1.371 . S
C559 C562 1.480 1_545 S
C560 N557 1.372 . S
C560 N558 1.361 . S
C560 C568 1.457 . S
C561 N556 1.363 . S
C561 N558 1.377 . S
C561 C574 1.479 1_556 S
C562 C559 1.480 1_565 S
C562 C563 1.385 . S
C562 C567 1.385 . S
C563 H544 0.942 1_566 S
C563 C562 1.385 . S
C563 C564 1.392 1_556 S
C564 H545 0.947 . S
C564 C563 1.392 1_554 S
C564 C565 1.382 1_554 S
C565 C564 1.382 1_556 S
C565 C566 1.377 . S
C566 H546 0.953 . S
C566 C565 1.377 . S
C566 C567 1.369 . S
C567 H547 0.945 . S
C567 C562 1.385 . S
C567 C566 1.369 . S
C568 C560 1.457 . S
C568 C569 1.372 . S
C568 C573 1.364 . S
C569 H548 0.952 1_545 S
C569 C568 1.372 . S
C569 C570 1.389 1_545 S
C570 H549 0.949 . S
C570 C569 1.389 1_565 S
C570 C571 1.387 1_565 S
C571 C570 1.387 1_545 S
C571 C572 1.372 . S
C572 H550 0.950 . S
C572 C571 1.372 . S
C572 C573 1.379 . S
C573 H551 0.948 . S
C573 C568 1.364 . S
C573 C572 1.379 . S
C574 C543 1.383 . S
C574 C561 1.479 1_554 S
C574 C575 1.403 . S
C575 C540 1.393 . S
C575 H552 0.935 1_554 S
C575 C574 1.403 . S
Mg576 O577 2.032 . S
Mg576 O583 1.986 1_554 S
Mg576 O585 2.114 . S
Mg576 O586 2.251 . S
Mg576 O589 2.010 . S
O577 Mg576 2.032 . S
O577 C580 1.247 1_554 S
O578 Mg579 2.028 . S
O578 C580 1.248 . S
Mg579 O578 2.028 . S
Mg579 O584 2.032 . S
Mg579 O586 2.079 1_556 S
C580 O577 1.247 1_556 S
C580 O578 1.248 . S
C581 O582 1.264 . S
C581 O589 1.249 . S
O582 C581 1.264 . S
O583 Mg576 1.986 1_556 S
O583 C587 1.246 . S
O584 Mg579 2.032 . S
O584 C587 1.259 . S
O585 Mg576 2.114 . S
O585 C588 1.252 . S
O586 Mg576 2.251 . S
O586 Mg579 2.079 1_554 S
O586 C588 1.273 . S
C587 O583 1.246 . S
C587 O584 1.259 . S
C588 O585 1.252 . S
C588 O586 1.273 . S
O589 Mg576 2.010 . S
O589 C581 1.249 . S
Mg590 O591 2.028 . S
Mg590 O597 1.986 . S
Mg590 O599 2.114 . S
Mg590 O600 2.251 . S
Mg590 O603 2.010 . S
O591 Mg590 2.028 . S
O591 C594 1.250 . S
O592 Mg593 2.028 . S
O592 C594 1.248 . S
Mg593 O592 2.028 . S
Mg593 O598 2.032 . S
Mg593 O600 2.079 . S
C594 O591 1.250 . S
C594 O592 1.248 . S
C595 O596 1.264 . S
C595 O603 1.249 . S
O596 C595 1.264 . S
O597 Mg590 1.986 . S
O597 C601 1.246 . S
O598 Mg593 2.032 . S
O598 C601 1.259 . S
O599 Mg590 2.114 . S
O599 C602 1.252 . S
O600 Mg590 2.251 . S
O600 Mg593 2.079 . S
O600 C602 1.273 . S
C601 O597 1.246 . S
C601 O598 1.259 . S
C602 O599 1.252 . S
C602 O600 1.273 . S
O603 Mg590 2.010 . S
O603 C595 1.249 . S
Mg604 O605 2.028 . S
Mg604 O611 1.986 1_554 S
Mg604 O613 2.114 . S
Mg604 O614 2.251 . S
Mg604 O617 2.010 . S
O605 Mg604 2.028 . S
O605 C608 1.247 1_554 S
O606 Mg607 2.028 . S
O606 C608 1.251 . S
Mg607 O606 2.028 . S
Mg607 O612 2.032 . S
Mg607 O614 2.079 1_556 S
C608 O605 1.247 1_556 S
C608 O606 1.251 . S
C609 O610 1.264 . S
C609 O617 1.249 . S
O610 C609 1.264 . S
O611 Mg604 1.986 1_556 S
O611 C615 1.246 . S
O612 Mg607 2.032 . S
O612 C615 1.259 . S
O613 Mg604 2.114 . S
O613 C616 1.252 . S
O614 Mg604 2.251 . S
O614 Mg607 2.079 1_554 S
O614 C616 1.273 . S
C615 O611 1.246 . S
C615 O612 1.259 . S
C616 O613 1.252 . S
C616 O614 1.273 . S
O617 Mg604 2.010 . S
O617 C609 1.249 . S
Mg618 O619 2.030 1_545 S
Mg618 O625 1.986 . S
Mg618 O627 2.114 . S
Mg618 O628 2.251 . S
Mg618 O631 2.010 . S
O619 Mg618 2.030 1_565 S
O619 C622 1.248 . S
O620 Mg621 2.028 . S
O620 C622 1.248 . S
Mg621 O620 2.028 . S
Mg621 O626 2.032 . S
Mg621 O628 2.079 1_565 S
C622 O619 1.248 . S
C622 O620 1.248 . S
C623 O624 1.264 . S
C623 O631 1.249 . S
O624 C623 1.264 . S
O625 Mg618 1.986 . S
O625 C629 1.246 . S
O626 Mg621 2.032 . S
O626 C629 1.259 1_565 S
O627 Mg618 2.114 . S
O627 C630 1.252 . S
O628 Mg618 2.251 . S
O628 Mg621 2.079 1_545 S
O628 C630 1.273 . S
C629 O625 1.246 . S
C629 O626 1.259 1_545 S
C630 O627 1.252 . S
C630 O628 1.273 . S
O631 Mg618 2.010 . S
O631 C623 1.249 . S
Mg632 O633 2.028 . S
Mg632 O639 1.986 . S
Mg632 O641 2.114 . S
Mg632 O642 2.251 . S
Mg632 O645 2.010 . S
O633 Mg632 2.028 . S
O633 C636 1.250 . S
O634 Mg635 2.028 . S
O634 C636 1.248 . S
Mg635 O634 2.028 . S
Mg635 O640 2.032 . S
Mg635 O642 2.079 . S
C636 O633 1.250 . S
C636 O634 1.248 . S
C637 O638 1.264 . S
C637 O645 1.249 . S
O638 C637 1.264 . S
O639 Mg632 1.986 . S
O639 C643 1.246 . S
O640 Mg635 2.032 . S
O640 C643 1.259 . S
O641 Mg632 2.114 . S
O641 C644 1.252 . S
O642 Mg632 2.251 . S
O642 Mg635 2.079 . S
O642 C644 1.273 . S
C643 O639 1.246 . S
C643 O640 1.259 . S
C644 O641 1.252 . S
C644 O642 1.273 . S
O645 Mg632 2.010 . S
O645 C637 1.249 . S
Mg646 O647 2.028 . S
Mg646 O653 1.986 . S
Mg646 O655 2.114 . S
Mg646 O656 2.251 . S
Mg646 O659 2.010 . S
O647 Mg646 2.028 . S
O647 C650 1.250 . S
O648 Mg649 2.028 . S
O648 C650 1.248 . S
Mg649 O648 2.028 . S
Mg649 O654 2.032 . S
Mg649 O656 2.079 . S
C650 O647 1.250 . S
C650 O648 1.248 . S
C651 O652 1.264 . S
C651 O659 1.249 . S
O652 C651 1.264 . S
O653 Mg646 1.986 . S
O653 C657 1.246 . S
O654 Mg649 2.032 . S
O654 C657 1.259 . S
O655 Mg646 2.114 . S
O655 C658 1.252 . S
O656 Mg646 2.251 . S
O656 Mg649 2.079 . S
O656 C658 1.273 . S
C657 O653 1.246 . S
C657 O654 1.259 . S
C658 O655 1.252 . S
C658 O656 1.273 . S
O659 Mg646 2.010 . S
O659 C651 1.249 . S
Mg660 O661 2.028 . S
Mg660 O667 1.986 . S
Mg660 O669 2.114 . S
Mg660 O670 2.251 . S
Mg660 O673 2.010 . S
O661 Mg660 2.028 . S
O661 C664 1.250 . S
O662 Mg663 2.028 . S
O662 C664 1.248 . S
Mg663 O662 2.028 . S
Mg663 O668 2.032 . S
Mg663 O670 2.079 . S
C664 O661 1.250 . S
C664 O662 1.248 . S
C665 O666 1.264 . S
C665 O673 1.249 . S
O666 C665 1.264 . S
O667 Mg660 1.986 . S
O667 C671 1.246 . S
O668 Mg663 2.032 . S
O668 C671 1.259 . S
O669 Mg660 2.114 . S
O669 C672 1.252 . S
O670 Mg660 2.251 . S
O670 Mg663 2.079 . S
O670 C672 1.273 . S
C671 O667 1.246 . S
C671 O668 1.259 . S
C672 O669 1.252 . S
C672 O670 1.273 . S
O673 Mg660 2.010 . S
O673 C665 1.249 . S
Mg674 O675 2.028 1_545 S
Mg674 O681 1.986 1_545 S
Mg674 O683 2.114 . S
Mg674 O684 2.251 . S
Mg674 O687 2.010 . S
O675 Mg674 2.028 1_565 S
O675 C678 1.250 . S
O676 Mg677 2.028 . S
O676 C678 1.248 . S
Mg677 O676 2.028 . S
Mg677 O682 2.032 . S
Mg677 O684 2.079 1_565 S
C678 O675 1.250 . S
C678 O676 1.248 . S
C679 O680 1.264 . S
C679 O687 1.249 . S
O680 C679 1.264 . S
O681 Mg674 1.986 1_565 S
O681 C685 1.246 . S
O682 Mg677 2.032 . S
O682 C685 1.259 . S
O683 Mg674 2.114 . S
O683 C686 1.252 . S
O684 Mg674 2.251 . S
O684 Mg677 2.079 1_545 S
O684 C686 1.273 . S
C685 O681 1.246 . S
C685 O682 1.259 . S
C686 O683 1.252 . S
C686 O684 1.273 . S
O687 Mg674 2.010 . S
O687 C679 1.249 . S
Mg688 O689 2.023 1_455 S
Mg688 O695 1.986 . S
Mg688 O697 2.114 . S
Mg688 O698 2.251 . S
Mg688 O701 2.010 . S
O689 Mg688 2.023 1_655 S
O689 C692 1.258 . S
O690 Mg691 2.028 . S
O690 C692 1.248 . S
Mg691 O690 2.028 . S
Mg691 O696 2.032 . S
Mg691 O698 2.079 1_655 S
C692 O689 1.258 . S
C692 O690 1.248 . S
C693 O694 1.264 . S
C693 O701 1.249 . S
O694 C693 1.264 . S
O695 Mg688 1.986 . S
O695 C699 1.246 . S
O696 Mg691 2.032 . S
O696 C699 1.259 1_655 S
O697 Mg688 2.114 . S
O697 C700 1.252 . S
O698 Mg688 2.251 . S
O698 Mg691 2.079 1_455 S
O698 C700 1.273 . S
C699 O695 1.246 . S
C699 O696 1.259 1_455 S
C700 O697 1.252 . S
C700 O698 1.273 . S
O701 Mg688 2.010 . S
O701 C693 1.249 . S
Mg702 O703 2.028 . S
Mg702 O709 1.986 . S
Mg702 O711 2.114 . S
Mg702 O712 2.251 . S
Mg702 O715 2.010 . S
O703 Mg702 2.028 . S
O703 C706 1.250 . S
O704 Mg705 2.028 . S
O704 C706 1.248 . S
Mg705 O704 2.028 . S
Mg705 O710 2.032 . S
Mg705 O712 2.079 . S
C706 O703 1.250 . S
C706 O704 1.248 . S
C707 O708 1.264 . S
C707 O715 1.249 . S
O708 C707 1.264 . S
O709 Mg702 1.986 . S
O709 C713 1.246 . S
O710 Mg705 2.032 . S
O710 C713 1.259 . S
O711 Mg702 2.114 . S
O711 C714 1.252 . S
O712 Mg702 2.251 . S
O712 Mg705 2.079 . S
O712 C714 1.273 . S
C713 O709 1.246 . S
C713 O710 1.259 . S
C714 O711 1.252 . S
C714 O712 1.273 . S
O715 Mg702 2.010 . S
O715 C707 1.249 . S
Mg716 O717 2.028 1_655 S
Mg716 O723 1.986 . S
Mg716 O725 2.114 . S
Mg716 O726 2.251 1_655 S
Mg716 O729 2.010 . S
O717 Mg716 2.028 1_455 S
O717 C720 1.250 . S
O718 Mg719 2.028 . S
O718 C720 1.248 . S
Mg719 O718 2.028 . S
Mg719 O724 2.032 . S
Mg719 O726 2.079 . S
C720 O717 1.250 . S
C720 O718 1.248 . S
C721 O722 1.264 . S
C721 O729 1.249 . S
O722 C721 1.264 . S
O723 Mg716 1.986 . S
O723 C727 1.246 1_655 S
O724 Mg719 2.032 . S
O724 C727 1.259 . S
O725 Mg716 2.114 . S
O725 C728 1.252 . S
O726 Mg716 2.251 1_455 S
O726 Mg719 2.079 . S
O726 C728 1.273 1_455 S
C727 O723 1.246 1_455 S
C727 O724 1.259 . S
C728 O725 1.252 . S
C728 O726 1.273 1_655 S
O729 Mg716 2.010 . S
O729 C721 1.249 . S
Mg730 O731 2.028 . S
Mg730 O737 1.986 . S
Mg730 O739 2.114 . S
Mg730 O740 2.251 . S
Mg730 O743 2.010 . S
O731 Mg730 2.028 . S
O731 C734 1.250 . S
O732 Mg733 2.028 . S
O732 C734 1.248 . S
Mg733 O732 2.028 . S
Mg733 O738 2.032 . S
Mg733 O740 2.079 . S
C734 O731 1.250 . S
C734 O732 1.248 . S
C735 O736 1.264 . S
C735 O743 1.249 . S
O736 C735 1.264 . S
O737 Mg730 1.986 . S
O737 C741 1.246 . S
O738 Mg733 2.032 . S
O738 C741 1.259 . S
O739 Mg730 2.114 . S
O739 C742 1.252 . S
O740 Mg730 2.251 . S
O740 Mg733 2.079 . S
O740 C742 1.273 . S
C741 O737 1.246 . S
C741 O738 1.259 . S
C742 O739 1.252 . S
C742 O740 1.273 . S
O743 Mg730 2.010 . S
O743 C735 1.249 . S
C744 C745 1.387 . S
C744 H748 0.950 . S
C744 C753 1.390 . S
C745 C744 1.387 . S
C745 C747 1.387 . S
H746 C753 0.950 . S
C747 C745 1.387 . S
C747 C749 1.390 . S
C747 H751 0.950 . S
H748 C744 0.950 . S
C749 C747 1.390 . S
C749 C750 1.387 . S
C749 H752 0.950 . S
C750 C749 1.387 . S
C750 C753 1.387 . S
H751 C747 0.950 . S
H752 C749 0.950 . S
C753 C744 1.390 . S
C753 H746 0.950 . S
C753 C750 1.387 . S
C754 C755 1.387 . S
C754 H758 0.950 . S
C754 C763 1.390 . S
C755 C754 1.387 . S
C755 C757 1.387 . S
H756 C763 0.950 . S
C757 C755 1.387 . S
C757 C759 1.390 . S
C757 H761 0.950 . S
H758 C754 0.950 . S
C759 C757 1.390 . S
C759 C760 1.387 . S
C759 H762 0.950 . S
C760 C759 1.387 . S
C760 C763 1.387 . S
H761 C757 0.950 . S
H762 C759 0.950 . S
C763 C754 1.390 . S
C763 H756 0.950 . S
C763 C760 1.387 . S
C764 C765 1.387 . S
C764 H768 0.950 . S
C764 C773 1.390 . S
C765 C764 1.387 . S
C765 C767 1.387 . S
H766 C773 0.950 . S
C767 C765 1.387 . S
C767 C769 1.390 . S
C767 H771 0.950 . S
H768 C764 0.950 . S
C769 C767 1.390 . S
C769 C770 1.387 . S
C769 H772 0.950 . S
C770 C769 1.387 . S
C770 C773 1.387 . S
H771 C767 0.950 . S
H772 C769 0.950 . S
C773 C764 1.390 . S
C773 H766 0.950 . S
C773 C770 1.387 . S
C774 C775 1.387 . S
C774 H778 0.950 . S
C774 C783 1.390 . S
C775 C774 1.387 . S
C775 C777 1.387 1_565 S
H776 C783 0.950 . S
C777 C775 1.387 1_545 S
C777 C779 1.390 . S
C777 H781 0.950 . S
H778 C774 0.950 . S
C779 C777 1.390 . S
C779 C780 1.387 . S
C779 H782 0.950 . S
C780 C779 1.387 . S
C780 C783 1.387 1_545 S
H781 C777 0.950 . S
H782 C779 0.950 . S
C783 C774 1.390 . S
C783 H776 0.950 . S
C783 C780 1.387 1_565 S
C784 C785 1.387 . S
C784 H788 0.950 . S
C784 C793 1.390 . S
C785 C784 1.387 . S
C785 C787 1.387 . S
H786 C793 0.950 . S
C787 C785 1.387 . S
C787 C789 1.390 . S
C787 H791 0.950 . S
H788 C784 0.950 . S
C789 C787 1.390 . S
C789 C790 1.387 . S
C789 H792 0.950 . S
C790 C789 1.387 . S
C790 C793 1.387 . S
H791 C787 0.950 . S
H792 C789 0.950 . S
C793 C784 1.390 . S
C793 H786 0.950 . S
C793 C790 1.387 . S
C794 C795 1.387 . S
C794 H798 0.950 . S
C794 C803 1.390 . S
C795 C794 1.387 . S
C795 C797 1.387 . S
H796 C803 0.950 . S
C797 C795 1.387 . S
C797 C799 1.390 . S
C797 H801 0.950 . S
H798 C794 0.950 . S
C799 C797 1.390 . S
C799 C800 1.387 . S
C799 H802 0.950 . S
C800 C799 1.387 . S
C800 C803 1.387 . S
H801 C797 0.950 . S
H802 C799 0.950 . S
C803 C794 1.390 . S
C803 H796 0.950 . S
C803 C800 1.387 . S
C804 C805 1.387 . S
C804 H808 0.950 . S
C804 C813 1.390 . S
C805 C804 1.387 . S
C805 C807 1.387 . S
H806 C813 0.950 . S
C807 C805 1.387 . S
C807 C809 1.390 . S
C807 H811 0.950 . S
H808 C804 0.950 . S
C809 C807 1.390 . S
C809 C810 1.387 . S
C809 H812 0.950 . S
C810 C809 1.387 . S
C810 C813 1.387 . S
H811 C807 0.950 . S
H812 C809 0.950 . S
C813 C804 1.390 . S
C813 H806 0.950 . S
C813 C810 1.387 . S
C814 C815 1.387 1_545 S
C814 H818 0.950 . S
C814 C823 1.390 . S
C815 C814 1.387 1_565 S
C815 C817 1.387 . S
H816 C823 0.950 . S
C817 C815 1.387 . S
C817 C819 1.390 . S
C817 H821 0.950 . S
H818 C814 0.950 . S
C819 C817 1.390 . S
C819 C820 1.387 . S
C819 H822 0.950 . S
C820 C819 1.387 . S
C820 C823 1.387 1_565 S
H821 C817 0.950 . S
H822 C819 0.950 . S
C823 C814 1.390 . S
C823 H816 0.950 . S
C823 C820 1.387 1_545 S
C824 C825 1.387 . S
C824 H828 0.950 . S
C824 C833 1.390 . S
C825 C824 1.387 . S
C825 C827 1.387 . S
H826 C833 0.950 . S
C827 C825 1.387 . S
C827 C829 1.390 . S
C827 H831 0.950 . S
H828 C824 0.950 . S
C829 C827 1.390 . S
C829 C830 1.387 . S
C829 H832 0.950 . S
C830 C829 1.387 . S
C830 C833 1.387 . S
H831 C827 0.950 . S
H832 C829 0.950 . S
C833 C824 1.390 . S
C833 H826 0.950 . S
C833 C830 1.387 . S
C834 C835 1.387 . S
C834 H838 0.950 . S
C834 C843 1.390 . S
C835 C834 1.387 . S
C835 C837 1.387 . S
H836 C843 0.950 . S
C837 C835 1.387 . S
C837 C839 1.390 . S
C837 H841 0.950 . S
H838 C834 0.950 . S
C839 C837 1.390 . S
C839 C840 1.387 . S
C839 H842 0.950 . S
C840 C839 1.387 . S
C840 C843 1.387 . S
H841 C837 0.950 . S
H842 C839 0.950 . S
C843 C834 1.390 . S
C843 H836 0.950 . S
C843 C840 1.387 . S
C844 C845 1.387 . S
C844 H848 0.950 . S
C844 C853 1.390 . S
C845 C844 1.387 . S
C845 C847 1.387 . S
H846 C853 0.950 . S
C847 C845 1.387 . S
C847 C849 1.390 . S
C847 H851 0.950 . S
H848 C844 0.950 . S
C849 C847 1.390 . S
C849 C850 1.387 . S
C849 H852 0.950 . S
C850 C849 1.387 . S
C850 C853 1.387 . S
H851 C847 0.950 . S
H852 C849 0.950 . S
C853 C844 1.390 . S
C853 H846 0.950 . S
C853 C850 1.387 . S
C854 C855 1.387 . S
C854 H858 0.950 . S
C854 C863 1.390 . S
C855 C854 1.387 . S
C855 C857 1.387 . S
H856 C863 0.950 . S
C857 C855 1.387 . S
C857 C859 1.390 . S
C857 H861 0.950 . S
H858 C854 0.950 . S
C859 C857 1.390 . S
C859 C860 1.387 . S
C859 H862 0.950 . S
C860 C859 1.387 . S
C860 C863 1.387 . S
H861 C857 0.950 . S
H862 C859 0.950 . S
C863 C854 1.390 . S
C863 H856 0.950 . S
C863 C860 1.387 . S
C864 C865 1.387 . S
C864 H868 0.950 . S
C864 C873 1.390 . S
C865 C864 1.387 . S
C865 C867 1.387 . S
H866 C873 0.950 . S
C867 C865 1.387 . S
C867 C869 1.390 . S
C867 H871 0.950 . S
H868 C864 0.950 . S
C869 C867 1.390 . S
C869 C870 1.387 . S
C869 H872 0.950 . S
C870 C869 1.387 . S
C870 C873 1.387 . S
H871 C867 0.950 . S
H872 C869 0.950 . S
C873 C864 1.390 . S
C873 H866 0.950 . S
C873 C870 1.387 . S
C874 C875 1.387 . S
C874 H878 0.950 . S
C874 C883 1.390 . S
C875 C874 1.387 . S
C875 C877 1.387 . S
H876 C883 0.950 . S
C877 C875 1.387 . S
C877 C879 1.390 . S
C877 H881 0.950 . S
H878 C874 0.950 . S
C879 C877 1.390 . S
C879 C880 1.387 . S
C879 H882 0.950 1_455 S
C880 C879 1.387 . S
C880 C883 1.387 . S
H881 C877 0.950 . S
H882 C879 0.950 1_655 S
C883 C874 1.390 . S
C883 H876 0.950 . S
C883 C880 1.387 . S
C884 C885 1.387 . S
C884 H888 0.950 . S
C884 C893 1.390 . S
C885 C884 1.387 . S
C885 C887 1.387 . S
H886 C893 0.950 . S
C887 C885 1.387 . S
C887 C889 1.390 . S
C887 H891 0.950 . S
H888 C884 0.950 . S
C889 C887 1.390 . S
C889 C890 1.387 . S
C889 H892 0.950 . S
C890 C889 1.387 . S
C890 C893 1.387 . S
H891 C887 0.950 . S
H892 C889 0.950 . S
C893 C884 1.390 . S
C893 H886 0.950 . S
C893 C890 1.387 . S
C894 C895 1.387 . S
C894 H898 0.950 . S
C894 C903 1.390 . S
C895 C894 1.387 . S
C895 C897 1.387 1_655 S
H896 C903 0.950 . S
C897 C895 1.387 1_455 S
C897 C899 1.390 . S
C897 H901 0.950 . S
H898 C894 0.950 . S
C899 C897 1.390 . S
C899 C900 1.387 1_455 S
C899 H902 0.950 . S
C900 C899 1.387 1_655 S
C900 C903 1.387 . S
H901 C897 0.950 . S
H902 C899 0.950 . S
C903 C894 1.390 . S
C903 H896 0.950 . S
C903 C900 1.387 . S
C904 C905 1.387 . S
C904 H908 0.950 . S
C904 C913 1.390 . S
C905 C904 1.387 . S
C905 C907 1.387 . S
H906 C913 0.950 . S
C907 C905 1.387 . S
C907 C909 1.390 . S
C907 H911 0.950 . S
H908 C904 0.950 . S
C909 C907 1.390 . S
C909 C910 1.387 . S
C909 H912 0.950 . S
C910 C909 1.387 . S
C910 C913 1.387 . S
H911 C907 0.950 . S
H912 C909 0.950 . S
C913 C904 1.390 . S
C913 H906 0.950 . S
C913 C910 1.387 . S
C914 C915 1.387 . S
C914 H918 0.950 . S
C914 C923 1.390 . S
C915 C914 1.387 . S
C915 C917 1.387 . S
H916 C923 0.950 . S
C917 C915 1.387 . S
C917 C919 1.390 . S
C917 H921 0.950 . S
H918 C914 0.950 . S
C919 C917 1.390 . S
C919 C920 1.387 . S
C919 H922 0.950 . S
C920 C919 1.387 . S
C920 C923 1.387 . S
H921 C917 0.950 . S
H922 C919 0.950 . S
C923 C914 1.390 . S
C923 H916 0.950 . S
C923 C920 1.387 . S
C924 C925 1.387 1_554 S
C924 H928 0.950 . S
C924 C933 1.390 . S
C925 C924 1.387 1_556 S
C925 C927 1.387 . S
H926 C933 0.950 . S
C927 C925 1.387 . S
C927 C929 1.390 . S
C927 H931 0.950 . S
H928 C924 0.950 . S
C929 C927 1.390 . S
C929 C930 1.387 . S
C929 H932 0.950 . S
C930 C929 1.387 . S
C930 C933 1.387 1_556 S
H931 C927 0.950 . S
H932 C929 0.950 . S
C933 C924 1.390 . S
C933 H926 0.950 . S
C933 C930 1.387 1_554 S
C934 C935 1.387 . S
C934 H938 0.950 . S
C934 C943 1.390 . S
C935 C934 1.387 . S
C935 C937 1.387 . S
H936 C943 0.950 . S
C937 C935 1.387 . S
C937 C939 1.390 . S
C937 H941 0.950 . S
H938 C934 0.950 . S
C939 C937 1.390 . S
C939 C940 1.387 . S
C939 H942 0.950 . S
C940 C939 1.387 . S
C940 C943 1.387 . S
H941 C937 0.950 . S
H942 C939 0.950 . S
C943 C934 1.390 . S
C943 H936 0.950 . S
C943 C940 1.387 . S
C944 C945 1.387 . S
C944 H948 0.950 . S
C944 C953 1.390 . S
C945 C944 1.387 . S
C945 C947 1.387 . S
H946 C953 0.950 . S
C947 C945 1.387 . S
C947 C949 1.390 . S
C947 H951 0.950 . S
H948 C944 0.950 . S
C949 C947 1.390 . S
C949 C950 1.387 . S
C949 H952 0.950 . S
C950 C949 1.387 . S
C950 C953 1.387 . S
H951 C947 0.950 . S
H952 C949 0.950 . S
C953 C944 1.390 . S
C953 H946 0.950 . S
C953 C950 1.387 . S
C954 C955 1.387 . S
C954 H958 0.950 . S
C954 C963 1.390 . S
C955 C954 1.387 . S
C955 C957 1.387 . S
H956 C963 0.950 . S
C957 C955 1.387 . S
C957 C959 1.390 . S
C957 H961 0.950 . S
H958 C954 0.950 . S
C959 C957 1.390 . S
C959 C960 1.387 . S
C959 H962 0.950 . S
C960 C959 1.387 . S
C960 C963 1.387 . S
H961 C957 0.950 . S
H962 C959 0.950 . S
C963 C954 1.390 . S
C963 H956 0.950 . S
C963 C960 1.387 . S
C964 C965 1.387 . S
C964 H968 0.950 . S
C964 C973 1.390 . S
C965 C964 1.387 . S
C965 C967 1.387 . S
H966 C973 0.950 . S
C967 C965 1.387 . S
C967 C969 1.390 . S
C967 H971 0.950 . S
H968 C964 0.950 . S
C969 C967 1.390 . S
C969 C970 1.387 . S
C969 H972 0.950 . S
C970 C969 1.387 . S
C970 C973 1.387 . S
H971 C967 0.950 . S
H972 C969 0.950 . S
C973 C964 1.390 . S
C973 H966 0.950 . S
C973 C970 1.387 . S
C974 C975 1.387 . S
C974 H978 0.950 . S
C974 C983 1.390 . S
C975 C974 1.387 . S
C975 C977 1.387 . S
H976 C983 0.950 . S
C977 C975 1.387 . S
C977 C979 1.390 . S
C977 H981 0.950 . S
H978 C974 0.950 . S
C979 C977 1.390 . S
C979 C980 1.387 . S
C979 H982 0.950 . S
C980 C979 1.387 . S
C980 C983 1.387 . S
H981 C977 0.950 . S
H982 C979 0.950 . S
C983 C974 1.390 . S
C983 H976 0.950 . S
C983 C980 1.387 . S
C984 C985 1.387 . S
C984 H988 0.950 . S
C984 C993 1.390 . S
C985 C984 1.387 . S
C985 C987 1.387 . S
H986 C993 0.950 . S
C987 C985 1.387 . S
C987 C989 1.390 . S
C987 H991 0.950 . S
H988 C984 0.950 . S
C989 C987 1.390 . S
C989 C990 1.387 . S
C989 H992 0.950 . S
C990 C989 1.387 . S
C990 C993 1.387 . S
H991 C987 0.950 . S
H992 C989 0.950 . S
C993 C984 1.390 . S
C993 H986 0.950 . S
C993 C990 1.387 . S
C994 C995 1.387 . S
C994 H998 0.950 . S
C994 C1003 1.390 . S
C995 C994 1.387 . S
C995 C997 1.387 1_545 S
H996 C1003 0.950 . S
C997 C995 1.387 1_565 S
C997 C999 1.390 . S
C997 H1001 0.950 . S
H998 C994 0.950 . S
C999 C997 1.390 . S
C999 C1000 1.387 1_565 S
C999 H1002 0.950 . S
C1000 C999 1.387 1_545 S
C1000 C1003 1.387 . S
H1001 C997 0.950 . S
H1002 C999 0.950 . S
C1003 C994 1.390 . S
C1003 H996 0.950 . S
C1003 C1000 1.387 . S
C1004 C1005 1.387 . S
C1004 H1008 0.950 . S
C1004 C1013 1.390 . S
C1005 C1004 1.387 . S
C1005 C1007 1.387 . S
H1006 C1013 0.950 . S
C1007 C1005 1.387 . S
C1007 C1009 1.390 . S
C1007 H1011 0.950 . S
H1008 C1004 0.950 . S
C1009 C1007 1.390 . S
C1009 C1010 1.387 . S
C1009 H1012 0.950 . S
C1010 C1009 1.387 . S
C1010 C1013 1.387 . S
H1011 C1007 0.950 . S
H1012 C1009 0.950 . S
C1013 C1004 1.390 . S
C1013 H1006 0.950 . S
C1013 C1010 1.387 . S
C1014 C1015 1.387 . S
C1014 H1018 0.950 . S
C1014 C1023 1.390 . S
C1015 C1014 1.387 . S
C1015 C1017 1.387 . S
H1016 C1023 0.950 . S
C1017 C1015 1.387 . S
C1017 C1019 1.390 . S
C1017 H1021 0.950 . S
H1018 C1014 0.950 . S
C1019 C1017 1.390 . S
C1019 C1020 1.387 . S
C1019 H1022 0.950 . S
C1020 C1019 1.387 . S
C1020 C1023 1.387 . S
H1021 C1017 0.950 . S
H1022 C1019 0.950 . S
C1023 C1014 1.390 . S
C1023 H1016 0.950 . S
C1023 C1020 1.387 . S
C1024 C1025 1.387 . S
C1024 H1028 0.950 . S
C1024 C1033 1.390 . S
C1025 C1024 1.387 . S
C1025 C1027 1.387 . S
H1026 C1033 0.950 . S
C1027 C1025 1.387 . S
C1027 C1029 1.390 . S
C1027 H1031 0.950 . S
H1028 C1024 0.950 . S
C1029 C1027 1.390 . S
C1029 C1030 1.387 . S
C1029 H1032 0.950 . S
C1030 C1029 1.387 . S
C1030 C1033 1.387 . S
H1031 C1027 0.950 . S
H1032 C1029 0.950 . S
C1033 C1024 1.390 . S
C1033 H1026 0.950 . S
C1033 C1030 1.387 . S
C1034 C1035 1.387 1_565 S
C1034 H1038 0.950 . S
C1034 C1043 1.390 . S
C1035 C1034 1.387 1_545 S
C1035 C1037 1.387 . S
H1036 C1043 0.950 . S
C1037 C1035 1.387 . S
C1037 C1039 1.390 . S
C1037 H1041 0.950 . S
H1038 C1034 0.950 . S
C1039 C1037 1.390 . S
C1039 C1040 1.387 . S
C1039 H1042 0.950 . S
C1040 C1039 1.387 . S
C1040 C1043 1.387 1_545 S
H1041 C1037 0.950 . S
H1042 C1039 0.950 . S
C1043 C1034 1.390 . S
C1043 H1036 0.950 . S
C1043 C1040 1.387 1_565 S
C1044 C1045 1.387 . S
C1044 H1048 0.950 . S
C1044 C1053 1.390 . S
C1045 C1044 1.387 . S
C1045 C1047 1.387 . S
H1046 C1053 0.950 . S
C1047 C1045 1.387 . S
C1047 C1049 1.390 . S
C1047 H1051 0.950 . S
H1048 C1044 0.950 . S
C1049 C1047 1.390 . S
C1049 C1050 1.387 . S
C1049 H1052 0.950 . S
C1050 C1049 1.387 . S
C1050 C1053 1.387 . S
H1051 C1047 0.950 . S
H1052 C1049 0.950 . S
C1053 C1044 1.390 . S
C1053 H1046 0.950 . S
C1053 C1050 1.387 . S
C1054 C1055 1.387 . S
C1054 H1058 0.950 . S
C1054 C1063 1.390 . S
C1055 C1054 1.387 . S
C1055 C1057 1.387 . S
H1056 C1063 0.950 . S
C1057 C1055 1.387 . S
C1057 C1059 1.390 . S
C1057 H1061 0.950 . S
H1058 C1054 0.950 . S
C1059 C1057 1.390 . S
C1059 C1060 1.387 . S
C1059 H1062 0.950 . S
C1060 C1059 1.387 . S
C1060 C1063 1.387 . S
H1061 C1057 0.950 . S
H1062 C1059 0.950 . S
C1063 C1054 1.390 . S
C1063 H1056 0.950 . S
C1063 C1060 1.387 . S
C1064 C1065 1.387 . S
C1064 H1068 0.950 . S
C1064 C1073 1.390 . S
C1065 C1064 1.387 . S
C1065 C1067 1.387 . S
H1066 C1073 0.950 . S
C1067 C1065 1.387 . S
C1067 C1069 1.390 . S
C1067 H1071 0.950 . S
H1068 C1064 0.950 . S
C1069 C1067 1.390 . S
C1069 C1070 1.387 . S
C1069 H1072 0.950 . S
C1070 C1069 1.387 . S
C1070 C1073 1.387 . S
H1071 C1067 0.950 . S
H1072 C1069 0.950 . S
C1073 C1064 1.390 . S
C1073 H1066 0.950 . S
C1073 C1070 1.387 . S
C1074 C1075 1.387 . S
C1074 H1078 0.950 . S
C1074 C1083 1.390 . S
C1075 C1074 1.387 . S
C1075 C1077 1.387 1_655 S
H1076 C1083 0.950 . S
C1077 C1075 1.387 1_455 S
C1077 C1079 1.390 . S
C1077 H1081 0.950 . S
H1078 C1074 0.950 . S
C1079 C1077 1.390 . S
C1079 C1080 1.387 . S
C1079 H1082 0.950 . S
C1080 C1079 1.387 . S
C1080 C1083 1.387 1_455 S
H1081 C1077 0.950 . S
H1082 C1079 0.950 . S
C1083 C1074 1.390 . S
C1083 H1076 0.950 . S
C1083 C1080 1.387 1_655 S
C1084 C1085 1.387 . S
C1084 H1088 0.950 . S
C1084 C1093 1.390 . S
C1085 C1084 1.387 . S
C1085 C1087 1.387 . S
H1086 C1093 0.950 . S
C1087 C1085 1.387 . S
C1087 C1089 1.390 . S
C1087 H1091 0.950 . S
H1088 C1084 0.950 . S
C1089 C1087 1.390 . S
C1089 C1090 1.387 . S
C1089 H1092 0.950 . S
C1090 C1089 1.387 . S
C1090 C1093 1.387 . S
H1091 C1087 0.950 . S
H1092 C1089 0.950 . S
C1093 C1084 1.390 . S
C1093 H1086 0.950 . S
C1093 C1090 1.387 . S
C1094 C1095 1.387 . S
C1094 H1098 0.950 . S
C1094 C1103 1.390 . S
C1095 C1094 1.387 . S
C1095 C1097 1.387 1_455 S
H1096 C1103 0.950 . S
C1097 C1095 1.387 1_655 S
C1097 C1099 1.390 . S
C1097 H1101 0.950 . S
H1098 C1094 0.950 . S
C1099 C1097 1.390 . S
C1099 C1100 1.387 1_655 S
C1099 H1102 0.950 . S
C1100 C1099 1.387 1_455 S
C1100 C1103 1.387 . S
H1101 C1097 0.950 . S
H1102 C1099 0.950 . S
C1103 C1094 1.390 . S
C1103 H1096 0.950 . S
C1103 C1100 1.387 . S
C1104 C1105 1.387 . S
C1104 H1108 0.950 . S
C1104 C1113 1.390 . S
C1105 C1104 1.387 . S
C1105 C1107 1.387 . S
H1106 C1113 0.950 . S
C1107 C1105 1.387 . S
C1107 C1109 1.390 . S
C1107 H1111 0.950 . S
H1108 C1104 0.950 . S
C1109 C1107 1.390 . S
C1109 C1110 1.387 . S
C1109 H1112 0.950 . S
C1110 C1109 1.387 . S
C1110 C1113 1.387 . S
H1111 C1107 0.950 . S
H1112 C1109 0.950 . S
C1113 C1104 1.390 . S
C1113 H1106 0.950 . S
C1113 C1110 1.387 . S
C1114 C1115 1.387 . S
C1114 H1118 0.950 . S
C1114 C1123 1.390 . S
C1115 C1114 1.387 . S
C1115 C1117 1.387 . S
H1116 C1123 0.950 . S
C1117 C1115 1.387 . S
C1117 C1119 1.390 . S
C1117 H1121 0.950 . S
H1118 C1114 0.950 . S
C1119 C1117 1.390 . S
C1119 C1120 1.387 . S
C1119 H1122 0.950 . S
C1120 C1119 1.387 . S
C1120 C1123 1.387 . S
H1121 C1117 0.950 . S
H1122 C1119 0.950 . S
C1123 C1114 1.390 . S
C1123 H1116 0.950 . S
C1123 C1120 1.387 . S
C1124 C1125 1.387 . S
C1124 H1128 0.950 . S
C1124 C1133 1.390 . S
C1125 C1124 1.387 . S
C1125 C1127 1.387 . S
H1126 C1133 0.950 . S
C1127 C1125 1.387 . S
C1127 C1129 1.390 . S
C1127 H1131 0.950 . S
H1128 C1124 0.950 . S
C1129 C1127 1.390 . S
C1129 C1130 1.387 . S
C1129 H1132 0.950 . S
C1130 C1129 1.387 . S
C1130 C1133 1.387 . S
H1131 C1127 0.950 . S
H1132 C1129 0.950 . S
C1133 C1124 1.390 . S
C1133 H1126 0.950 . S
C1133 C1130 1.387 . S
C1134 C1135 1.387 . S
C1134 H1138 0.950 . S
C1134 C1143 1.390 . S
C1135 C1134 1.387 . S
C1135 C1137 1.387 . S
H1136 C1143 0.950 . S
C1137 C1135 1.387 . S
C1137 C1139 1.390 . S
C1137 H1141 0.950 . S
H1138 C1134 0.950 . S
C1139 C1137 1.390 . S
C1139 C1140 1.387 . S
C1139 H1142 0.950 . S
C1140 C1139 1.387 . S
C1140 C1143 1.387 . S
H1141 C1137 0.950 . S
H1142 C1139 0.950 . S
C1143 C1134 1.390 . S
C1143 H1136 0.950 . S
C1143 C1140 1.387 . S
C1144 C1145 1.387 . S
C1144 H1148 0.950 . S
C1144 C1153 1.390 . S
C1145 C1144 1.387 . S
C1145 C1147 1.387 . S
H1146 C1153 0.950 . S
C1147 C1145 1.387 . S
C1147 C1149 1.390 . S
C1147 H1151 0.950 . S
H1148 C1144 0.950 . S
C1149 C1147 1.390 . S
C1149 C1150 1.387 . S
C1149 H1152 0.950 . S
C1150 C1149 1.387 . S
C1150 C1153 1.387 . S
H1151 C1147 0.950 . S
H1152 C1149 0.950 . S
C1153 C1144 1.390 . S
C1153 H1146 0.950 . S
C1153 C1150 1.387 . S
C1154 C1155 1.387 . S
C1154 H1158 0.950 . S
C1154 C1163 1.390 . S
C1155 C1154 1.387 . S
C1155 C1157 1.387 . S
H1156 C1163 0.950 . S
C1157 C1155 1.387 . S
C1157 C1159 1.390 . S
C1157 H1161 0.950 . S
H1158 C1154 0.950 . S
C1159 C1157 1.390 . S
C1159 C1160 1.387 . S
C1159 H1162 0.950 . S
C1160 C1159 1.387 . S
C1160 C1163 1.387 . S
H1161 C1157 0.950 . S
H1162 C1159 0.950 . S
C1163 C1154 1.390 . S
C1163 H1156 0.950 . S
C1163 C1160 1.387 . S
C1164 C1165 1.387 . S
C1164 H1168 0.950 . S
C1164 C1173 1.390 . S
C1165 C1164 1.387 . S
C1165 C1167 1.387 . S
H1166 C1173 0.950 . S
C1167 C1165 1.387 . S
C1167 C1169 1.390 . S
C1167 H1171 0.950 . S
H1168 C1164 0.950 . S
C1169 C1167 1.390 . S
C1169 C1170 1.387 . S
C1169 H1172 0.950 . S
C1170 C1169 1.387 . S
C1170 C1173 1.387 . S
H1171 C1167 0.950 . S
H1172 C1169 0.950 . S
C1173 C1164 1.390 . S
C1173 H1166 0.950 . S
C1173 C1170 1.387 . S
C1174 C1175 1.387 . S
C1174 H1178 0.950 . S
C1174 C1183 1.390 . S
C1175 C1174 1.387 . S
C1175 C1177 1.387 . S
H1176 C1183 0.950 . S
C1177 C1175 1.387 . S
C1177 C1179 1.390 . S
C1177 H1181 0.950 . S
H1178 C1174 0.950 . S
C1179 C1177 1.390 . S
C1179 C1180 1.387 . S
C1179 H1182 0.950 . S
C1180 C1179 1.387 . S
C1180 C1183 1.387 . S
H1181 C1177 0.950 . S
H1182 C1179 0.950 . S
C1183 C1174 1.390 . S
C1183 H1176 0.950 . S
C1183 C1180 1.387 . S
C1184 C1185 1.387 1_554 S
C1184 H1188 0.950 . S
C1184 C1193 1.390 . S
C1185 C1184 1.387 1_556 S
C1185 C1187 1.387 . S
H1186 C1193 0.950 . S
C1187 C1185 1.387 . S
C1187 C1189 1.390 . S
C1187 H1191 0.950 . S
H1188 C1184 0.950 . S
C1189 C1187 1.390 . S
C1189 C1190 1.387 . S
C1189 H1192 0.950 . S
C1190 C1189 1.387 . S
C1190 C1193 1.387 1_556 S
H1191 C1187 0.950 . S
H1192 C1189 0.950 . S
C1193 C1184 1.390 . S
C1193 H1186 0.950 . S
C1193 C1190 1.387 1_554 S
C1194 C1195 1.387 . S
C1194 H1198 0.950 . S
C1194 C1203 1.390 . S
C1195 C1194 1.387 . S
C1195 C1197 1.387 . S
H1196 C1203 0.950 . S
C1197 C1195 1.387 . S
C1197 C1199 1.390 . S
C1197 H1201 0.950 . S
H1198 C1194 0.950 . S
C1199 C1197 1.390 . S
C1199 C1200 1.387 . S
C1199 H1202 0.950 . S
C1200 C1199 1.387 . S
C1200 C1203 1.387 . S
H1201 C1197 0.950 . S
H1202 C1199 0.950 . S
C1203 C1194 1.390 . S
C1203 H1196 0.950 . S
C1203 C1200 1.387 . S
C1204 C1205 1.387 . S
C1204 H1208 0.950 1_554 S
C1204 C1213 1.390 1_554 S
C1205 C1204 1.387 . S
C1205 C1207 1.387 . S
H1206 C1213 0.950 . S
C1207 C1205 1.387 . S
C1207 C1209 1.390 . S
C1207 H1211 0.950 . S
H1208 C1204 0.950 1_556 S
C1209 C1207 1.390 . S
C1209 C1210 1.387 . S
C1209 H1212 0.950 . S
C1210 C1209 1.387 . S
C1210 C1213 1.387 1_554 S
H1211 C1207 0.950 . S
H1212 C1209 0.950 . S
C1213 C1204 1.390 1_556 S
C1213 H1206 0.950 . S
C1213 C1210 1.387 1_556 S
C1214 C1215 1.387 1_556 S
C1214 H1218 0.950 . S
C1214 C1223 1.390 . S
C1215 C1214 1.387 1_554 S
C1215 C1217 1.387 . S
H1216 C1223 0.950 . S
C1217 C1215 1.387 . S
C1217 C1219 1.390 . S
C1217 H1221 0.950 . S
H1218 C1214 0.950 . S
C1219 C1217 1.390 . S
C1219 C1220 1.387 . S
C1219 H1222 0.950 . S
C1220 C1219 1.387 . S
C1220 C1223 1.387 1_554 S
H1221 C1217 0.950 . S
H1222 C1219 0.950 . S
C1223 C1214 1.390 . S
C1223 H1216 0.950 . S
C1223 C1220 1.387 1_556 S
C750 C587 1.446 . S
C745 C181 1.460 . S
C760 C595 1.270 . S
C755 C247 1.542 . S
C765 C283 1.447 . S
C770 C615 1.435 . S
C780 C629 1.498 . S
C775 C169 1.509 . S
C790 C644 1.523 . S
C785 C361 1.521 . S
C800 C658 1.522 . S
C795 C433 1.505 . S
C805 C421 1.548 . S
C810 C672 1.555 . S
C820 C678 1.449 . S
C815 C355 1.494 . S
C825 C427 1.526 . S
C830 C692 1.497 . S
C840 C713 1.523 . S
C835 C325 1.542 . S
C845 C385 1.466 . S
C850 C693 1.238 . S
C860 C714 1.544 . S
C855 C463 1.525 . S
C865 C253 1.488 . S
C870 C721 1.218 . S
C875 C145 1.506 . S
C880 C727 1.499 . S
C885 C205 1.490 . S
C890 C720 1.449 . S
C895 C217 1.483 . S
C900 C728 1.482 . S
C905 C139 1.503 . S
C910 C622 1.463 . S
C915 C535 1.489 . S
C920 C623 1.245 . S
C930 C580 1.486 . S
C925 C565 1.542 . S
C940 C601 1.449 . S
C935 C313 1.461 . S
C945 C175 1.498 . S
C950 C636 1.466 . S
C960 C686 1.522 . S
C955 C397 1.517 . S
C970 C637 1.216 . S
C965 C349 1.459 . S
C980 C665 1.269 . S
C975 C457 1.545 . S
C990 C671 1.445 . S
C985 C505 1.460 . S
C995 C571 1.542 . S
C1000 C679 1.264 . S
C1005 C319 1.446 . S
C1010 C643 1.435 . S
C1020 C657 1.499 . S
C1015 C493 1.508 . S
C1025 C109 1.521 . S
C1030 C616 1.524 . S
C1040 C630 1.523 . S
C1035 C1 1.507 . S
C1050 C588 1.556 . S
C1045 C61 1.548 . S
C1060 C594 1.446 . S
C1055 C103 1.495 . S
C1065 C67 1.526 . S
C1070 C706 1.499 . S
C1075 C73 1.543 . S
C1080 C699 1.523 . S
C1085 C133 1.466 . S
C1090 C707 1.239 . S
C1095 C31 1.523 . S
C1100 C700 1.543 . S
C1110 C735 1.218 . S
C1105 C289 1.488 . S
C1120 C741 1.498 . S
C1115 C469 1.507 . S
C1130 C734 1.446 . S
C1125 C529 1.488 . S
C1135 C541 1.483 . S
C1140 C742 1.482 . S
C1145 C391 1.504 . S
C1150 C650 1.463 . S
C1160 C651 1.245 . S
C1155 C211 1.489 . S
C1170 C664 1.486 . S
C1165 C241 1.541 . S
C1180 C685 1.449 . S
C1175 C277 1.461 . S
C1185 C499 1.498 . S
C1190 C608 1.468 . S
C1200 C602 1.523 . S
C1195 C37 1.518 . S
C1205 C97 1.458 . S
C1210 C609 1.222 . S
C1220 C581 1.268 . S
C1215 C25 1.545 . S
