# Generated by pormake.
# Topology pyr, (3,6)-cn, num edge types: 1
# Building blocks:
#     Node 0, Type 0, BuildingBlock: QEWDON_clean_linker_0, # of connection points: 3
#     Node 1, Type 0, BuildingBlock: QEWDON_clean_linker_0, # of connection points: 3
#     Node 2, Type 0, BuildingBlock: QEWDON_clean_linker_0, # of connection points: 3
#     Node 3, Type 0, BuildingBlock: QEWDON_clean_linker_0, # of connection points: 3
#     Node 4, Type 0, BuildingBlock: QEWDON_clean_linker_0, # of connection points: 3
#     Node 5, Type 0, BuildingBlock: QEWDON_clean_linker_0, # of connection points: 3
#     Node 6, Type 0, BuildingBlock: QEWDON_clean_linker_0, # of connection points: 3
#     Node 7, Type 0, BuildingBlock: QEWDON_clean_linker_0, # of connection points: 3
#     Node 8, Type 1, BuildingBlock: PAMTUU_clean_sbu_0, # of connection points: 6
#     Node 9, Type 1, BuildingBlock: PAMTUU_clean_sbu_0, # of connection points: 6
#     Node 10, Type 1, BuildingBlock: PAMTUU_clean_sbu_0, # of connection points: 6
#     Node 11, Type 1, BuildingBlock: PAMTUU_clean_sbu_0, # of connection points: 6
#     Edge 12, Type (0, 1), None
#     Edge 13, Type (0, 1), None
#     Edge 14, Type (0, 1), None
#     Edge 15, Type (0, 1), None
#     Edge 16, Type (0, 1), None
#     Edge 17, Type (0, 1), None
#     Edge 18, Type (0, 1), None
#     Edge 19, Type (0, 1), None
#     Edge 20, Type (0, 1), None
#     Edge 21, Type (0, 1), None
#     Edge 22, Type (0, 1), None
#     Edge 23, Type (0, 1), None
#     Edge 24, Type (0, 1), None
#     Edge 25, Type (0, 1), None
#     Edge 26, Type (0, 1), None
#     Edge 27, Type (0, 1), None
#     Edge 28, Type (0, 1), None
#     Edge 29, Type (0, 1), None
#     Edge 30, Type (0, 1), None
#     Edge 31, Type (0, 1), None
#     Edge 32, Type (0, 1), None
#     Edge 33, Type (0, 1), None
#     Edge 34, Type (0, 1), None
#     Edge 35, Type (0, 1), None
# Relax obj value: 0.393
# Max RMSD: 0.257
# Mean RMSD: 0.194
data_MOF--net-pyr--node1-PAMTUU_clean_sbu_0--node2-QEWDON_clean_linker_0--edge1-none
_symmetry_space_group_name_H-M    P1
_symmetry_Int_Tables_number       1
_symmetry_cell_setting            triclinic
loop_
_symmetry_equiv_pos_as_xyz
'x, y, z'
_cell_length_a     18.444516
_cell_length_b     18.877222
_cell_length_c     19.087074
_cell_angle_alpha  89.944998
_cell_angle_beta   90.799733
_cell_angle_gamma 117.9385
loop_
_atom_site_label
_atom_site_type_symbol
_atom_site_fract_x
_atom_site_fract_y
_atom_site_fract_z
_atom_type_partial_charge
H0 H 0.5751 0.4264 0.23758 0.0
C1 C 0.5636 0.41232 0.29275 0.0
C2 C 0.57353 0.34837 0.32007 0.0
C3 C 0.52645 0.44881 0.33178 0.0
H4 H 0.56679 0.27958 0.41009 0.0
C5 C 0.5563 0.32767 0.39031 0.0
C6 C 0.51447 0.35989 0.43016 0.0
C7 C 0.50285 0.42281 0.4006 0.0
C8 C 0.49805 0.50154 0.29526 0.0
H9 H 0.46983 0.44822 0.42822 0.0
C10 C 0.41817 0.4915 0.30585 0.0
C11 C 0.38681 0.53243 0.26407 0.0
C12 C 0.54666 0.5553 0.2434 0.0
H13 H 0.60851 0.56511 0.23429 0.0
C14 C 0.51544 0.59592 0.2018 0.0
H15 H 0.37841 0.44879 0.34386 0.0
C16 C 0.4359 0.58449 0.21188 0.0
H17 H 0.41314 0.6174 0.17987 0.0
H18 H 0.55334 0.63699 0.16207 0.0
H19 H 0.06421 0.89366 0.90118 0.0
C20 C 0.11251 0.88477 0.87767 0.0
C21 C 0.18695 0.91207 0.91321 0.0
C22 C 0.10542 0.86319 0.80711 0.0
H23 H 0.30879 0.92593 0.91066 0.0
C24 C 0.25116 0.90531 0.88201 0.0
C25 C 0.24512 0.88196 0.81148 0.0
C26 C 0.17177 0.86128 0.77343 0.0
C27 C 1.04201 0.87384 0.76886 0.0
H28 H 0.16861 0.85007 0.71751 0.0
C29 C 0.05839 0.95373 0.75975 0.0
C30 C 0.99458 0.97398 0.75717 0.0
C31 C 0.96062 0.81262 0.76857 0.0
H32 H 0.94692 0.75113 0.77859 0.0
C33 C 0.89632 0.8318 0.76175 0.0
H34 H 0.12158 1.00081 0.76179 0.0
C35 C 0.91309 0.91205 0.75787 0.0
H36 H 0.86235 0.92553 0.75543 0.0
H37 H 0.83334 0.78474 0.7627 0.0
H38 H 0.82019 0.62711 1.00817 0.0
C39 C 0.78595 0.56474 1.02302 0.0
C40 C 0.81995 0.53364 1.07425 0.0
C41 C 0.70503 0.51908 0.99572 0.0
H42 H 0.79957 0.43026 0.13433 0.0
C43 C 0.77309 0.45377 0.09566 0.0
C44 C 0.69277 0.4044 1.06941 0.0
C45 C 0.65896 0.43838 1.01996 0.0
C46 C 0.66214 0.56415 0.96383 0.0
H47 H 0.59538 0.40384 1.00342 0.0
C48 C 0.66126 0.58581 0.89096 0.0
C49 C 0.62402 0.63536 0.86967 0.0
C50 C 0.62552 0.59233 1.01273 0.0
H51 H 0.62539 0.57816 1.06782 0.0
C52 C 0.59099 0.64084 0.99276 0.0
H53 H 0.6889 0.56476 0.85201 0.0
C54 C 0.59069 0.66235 0.92313 0.0
H55 H 0.56213 0.6998 0.91143 0.0
H56 H 0.56416 0.66249 1.03195 0.0
H57 H 0.98544 0.96674 0.46738 0.0
C58 C 0.93369 0.92811 0.4991 0.0
C59 C 0.91274 0.96135 0.55819 0.0
C60 C 0.8841 0.84635 0.47832 0.0
H61 H 0.82286 0.93645 0.63856 0.0
C62 C 0.84073 0.91168 0.59515 0.0
C63 C 0.79205 0.83029 0.57772 0.0
C64 C 0.81594 0.79853 0.52052 0.0
C65 C 0.88187 0.81596 0.40374 0.0
H66 H 0.77684 0.73695 0.50435 0.0
C67 C 0.9347 0.78665 0.37385 0.0
C68 C 0.91752 0.75071 0.30452 0.0
C69 C 0.81438 0.80845 0.36323 0.0
H70 H 0.77298 0.82926 0.3835 0.0
C71 C 0.7965 0.77178 0.29784 0.0
H72 H 0.98779 0.79241 0.40327 0.0
C73 C 0.84654 0.74312 0.26929 0.0
H74 H 0.82963 0.71554 0.21776 0.0
H75 H 0.74294 0.7655 0.26875 0.0
H76 H 0.68822 0.84234 1.07136 0.0
C77 C 0.68499 0.85873 1.01742 0.0
C78 C 0.75121 0.87677 0.97212 0.0
C79 C 0.61815 0.86968 0.99433 0.0
H80 H 0.80247 0.92662 0.87172 0.0
C81 C 0.74963 0.90713 0.90514 0.0
C82 C 0.68446 0.92105 0.88414 0.0
C83 C 0.61632 0.8959 0.92631 0.0
C84 C 0.56249 0.87934 1.04279 0.0
H85 H 0.5668 0.9085 0.91016 0.0
C86 C 0.57697 0.95831 1.05554 0.0
C87 C 0.51339 0.97378 1.07638 0.0
C88 C 0.48545 0.81488 1.05669 0.0
H89 H 0.47266 0.75394 1.0449 0.0
C90 C 0.42263 0.82966 1.08096 0.0
H91 H 0.63634 1.00802 1.0433 0.0
C92 C 0.43574 0.90846 1.0891 0.0
H93 H 0.38522 0.91804 0.10588 0.0
H94 H 0.3627 0.78017 0.09099 0.0
H95 H 0.12419 0.44134 0.60929 0.0
C96 C 0.10651 0.43066 0.55428 0.0
C97 C 0.10041 0.36101 0.52201 0.0
C98 C 0.07206 0.47491 0.5222 0.0
H99 H 0.05764 0.28395 0.4324 0.0
C100 C 0.06925 0.34158 0.45378 0.0
C101 C 1.03606 0.38636 0.42023 0.0
C102 C 1.04155 0.45515 0.4536 0.0
C103 C 1.04734 0.5248 0.56619 0.0
H104 H 1.01442 0.48904 0.42903 0.0
C105 C 0.96566 0.51239 0.56238 0.0
C106 C 0.93667 0.55005 0.60981 0.0
C107 C 0.10086 0.57718 0.61742 0.0
H108 H 0.16361 0.58729 0.62195 0.0
C109 C 0.07318 0.6157 0.66422 0.0
H110 H 0.92399 0.47169 0.52323 0.0
C111 C 0.99184 0.6019 0.66101 0.0
H112 H 0.97212 0.63089 0.69969 0.0
H113 H 0.11454 0.65533 0.70411 0.0
H114 H 0.51286 0.9488 0.33472 0.0
C115 C 0.44968 0.91632 0.31657 0.0
C116 C 0.41642 0.95654 0.27383 0.0
C117 C 0.40351 0.83332 0.33309 0.0
H118 H 0.30946 0.94037 0.21404 0.0
C119 C 0.3354 0.91148 0.2473 0.0
C120 C 0.29008 0.828 0.25729 0.0
C121 C 0.32456 0.79012 0.30128 0.0
C122 C 0.4454 0.7874 0.36505 0.0
H123 H 0.29127 0.72579 0.30861 0.0
C124 C 0.44272 0.76397 0.43748 0.0
C125 C 0.4812 0.71626 0.46041 0.0
C126 C 0.48961 0.76531 0.3186 0.0
H127 H 0.49459 0.78282 0.26404 0.0
C128 C 0.52823 0.72098 0.34106 0.0
H129 H 0.41153 0.78252 0.47516 0.0
C130 C 0.52216 0.69483 0.41 0.0
H131 H 0.55413 0.66123 0.42481 0.0
H132 H 0.56463 0.70769 0.30476 0.0
H133 H 0.33885 0.63136 0.82439 0.0
C134 C 0.29751 0.571 0.80647 0.0
C135 C 0.32025 0.53988 0.74795 0.0
C136 C 0.22731 0.52306 0.84722 0.0
H137 H 0.28693 0.437 0.68301 0.0
C138 C 0.26927 0.45998 0.72803 0.0
C139 C 0.19689 0.40952 0.76455 0.0
C140 C 0.17672 0.44181 0.82477 0.0
C141 C 0.22582 0.5515 0.92217 0.0
H142 H 0.12478 0.40283 0.85616 0.0
C143 C 0.1716 0.58027 0.95009 0.0
C144 C 0.18278 0.61137 1.02112 0.0
C145 C 0.28867 0.55468 0.96657 0.0
H146 H 0.33114 0.53435 0.94802 0.0
C147 C 0.29927 0.58457 1.03459 0.0
H148 H 0.12225 0.57851 0.91756 0.0
C149 C 0.24728 0.61211 1.06147 0.0
H150 H 0.25721 0.6336 0.11521 0.0
H151 H 0.34856 0.58614 1.06697 0.0
Tb152 Tb 0.13908 0.17836 0.64633 0.0
Tb153 Tb 0.97119 0.18695 0.68916 0.0
C154 C 0.96598 1.04574 0.58573 0.0
C155 C 0.34725 0.22419 0.59201 0.0
C156 C 0.46753 0.31682 0.49398 0.0
C157 C 0.44469 0.23479 0.50417 0.0
C158 C 0.38565 0.1894 0.55285 0.0
C159 C 0.37358 0.30653 0.58707 0.0
C160 C 0.4335 0.35244 0.53909 0.0
C161 C 0.2703 0.17168 0.62604 0.0
O162 O 0.12809 0.25426 0.5646 0.0
O163 O 1.02914 0.2801 0.61459 0.0
O164 O 0.0705 0.27735 0.75679 0.0
O165 O 0.18014 0.29909 0.68883 0.0
O166 O 0.86304 0.19074 0.65851 0.0
O167 O 0.90155 0.20142 0.76765 0.0
O168 O 0.95402 1.07408 0.73042 0.0
O169 O 0.08958 0.11463 0.74316 0.0
O170 O 1.0446 1.06926 0.5959 0.0
O171 O 0.93027 1.0871 0.61122 0.0
C172 C 0.08637 0.29475 0.56884 0.0
O173 O 0.25446 0.1976 0.68423 0.0
O174 O 0.20713 0.14159 0.58338 0.0
C175 C 0.1469 0.32386 0.73742 0.0
C176 C 0.76676 0.11437 0.74312 0.0
C177 C 0.69752 0.98063 0.82959 0.0
C178 C 0.69147 1.05016 0.84684 0.0
C179 C 0.7264 0.11713 0.80371 0.0
C180 C 0.75983 1.04072 0.72028 0.0
C181 C 0.72812 0.97501 0.76458 0.0
C182 C 0.84085 0.1863 0.72384 0.0
C183 C 1.01336 1.05876 0.7486 0.0
H184 H 0.46608 0.20226 0.47123 0.0
H185 H 0.36517 0.12546 0.55573 0.0
H186 H 0.34408 0.33443 0.61688 0.0
H187 H 0.44864 0.4148 0.53542 0.0
H188 H 0.66801 1.0559 0.89708 0.0
H189 H 0.73166 0.17355 0.82244 0.0
H190 H 0.78953 1.03716 0.67302 0.0
H191 H 0.73216 0.92168 0.75039 0.0
Tb192 Tb 0.64093 0.18276 0.19938 0.0
Tb193 Tb 0.47286 0.17912 0.1418 0.0
C194 C 0.52909 1.05712 1.08952 0.0
C195 C 0.84879 0.25154 0.27004 0.0
C196 C 0.97706 0.34926 0.36127 0.0
C197 C 0.98889 0.30107 0.3112 0.0
C198 C 0.92458 0.25173 0.26621 0.0
C199 C 0.8393 0.30497 0.31497 0.0
C200 C 0.90236 0.35261 0.36084 0.0
C201 C 0.77746 0.19151 0.23204 0.0
O202 O 0.67671 0.30181 0.15488 0.0
O203 O 0.57109 0.26969 1.07693 0.0
O204 O 0.52344 0.27645 0.21531 0.0
O205 O 0.61178 0.24718 0.2806 0.0
O206 O 0.40801 0.19225 1.05686 0.0
O207 O 0.35701 0.17057 0.16116 0.0
O208 O 0.4321 1.08217 0.22136 0.0
O209 O 0.54806 1.06781 0.24083 0.0
O210 O 0.60404 0.11329 0.10257 0.0
O211 O 0.46684 1.06961 0.10208 0.0
C212 C 0.64473 0.321 0.10052 0.0
O213 O 0.7116 0.15496 0.26957 0.0
O214 O 0.76196 0.21388 0.17154 0.0
C215 C 0.57178 0.28861 0.26967 0.0
C216 C 0.27438 0.09671 1.0659 0.0
C217 C 0.20579 0.96928 0.97099 0.0
C218 C 0.19746 1.0388 0.95963 0.0
C219 C 0.23161 0.10237 1.00707 0.0
C220 C 0.27451 1.02392 1.08104 0.0
C221 C 0.24198 0.96095 1.03307 0.0
C222 C 0.34197 0.16965 0.09393 0.0
C223 C 0.46856 1.04136 0.24736 0.0
H224 H 1.04631 0.29857 0.30924 0.0
H225 H 0.93284 0.21141 0.23071 0.0
H226 H 0.78122 0.30614 0.31773 0.0
H227 H 0.88982 0.38768 0.39897 0.0
H228 H 0.17048 1.04657 0.91131 0.0
H229 H 0.23261 0.15865 0.99382 0.0
H230 H 0.30853 1.01935 0.12566 0.0
H231 H 0.24887 0.90778 1.04251 0.0
Tb232 Tb 0.56264 0.60444 0.63545 0.0
Tb233 Tb 0.55655 0.76163 0.69236 0.0
C234 C 0.49243 0.69723 0.53616 0.0
C235 C 0.68515 0.50949 0.59894 0.0
C236 C 0.84938 0.53517 0.60612 0.0
C237 C 0.78457 0.46036 0.58419 0.0
C238 C 0.70326 0.44791 0.58011 0.0
C239 C 0.74914 0.58327 0.62188 0.0
C240 C 0.83004 0.59639 0.62455 0.0
C241 C 0.60087 0.49947 0.5951 0.0
O242 O 0.66588 0.70702 0.58937 0.0
O243 O 0.68663 0.80637 0.66655 0.0
O244 O 0.58109 0.70819 0.78645 0.0
O245 O 0.6265 0.6259 0.73889 0.0
O246 O 0.55815 0.87107 0.66815 0.0
O247 O 0.54614 0.82976 0.77425 0.0
O248 O 0.43202 0.66697 0.71148 0.0
O249 O 0.44062 0.55214 0.68416 0.0
O250 O 0.49214 0.62827 0.55148 0.0
O251 O 0.52026 0.75637 0.58172 0.0
C252 C 0.71236 0.77893 0.61436 0.0
O253 O 0.56689 0.49643 0.65508 0.0
O254 O 0.59081 0.54823 0.5527 0.0
C255 C 0.61254 0.65852 0.7945 0.0
C256 C 0.46497 0.8878 0.73919 0.0
C257 C 0.31938 0.88837 0.77766 0.0
C258 C 0.39609 0.95526 0.79205 0.0
C259 C 0.46849 0.95453 0.77358 0.0
C260 C 0.38863 0.82427 0.71879 0.0
C261 C 0.31602 0.82438 0.73817 0.0
C262 C 0.53965 0.88027 0.73167 0.0
C263 C 0.40113 0.5885 0.7117 0.0
H264 H 0.79616 0.4109 0.57088 0.0
H265 H 0.65475 0.39032 0.56269 0.0
H266 H 0.73678 0.63142 0.6377 0.0
H267 H 0.87741 0.65521 0.6404 0.0
H268 H 0.4002 1.00649 0.82082 0.0
H269 H 0.52692 1.00433 0.78886 0.0
H270 H 0.38512 0.77291 0.69089 0.0
H271 H 0.25779 0.77255 0.72609 0.0
Tb272 Tb 0.06271 0.75507 0.11515 0.0
Tb273 Tb 1.04801 0.61566 0.21419 0.0
C274 C 0.12721 0.63665 1.06062 0.0
C275 C 0.97229 0.86734 1.03208 0.0
C276 C 0.82701 0.87466 0.99654 0.0
C277 C 0.90462 0.93903 0.98163 0.0
C278 C 0.97645 0.93539 0.99938 0.0
C279 C 0.89521 0.80436 1.04983 0.0
C280 C 0.82307 0.80797 1.03228 0.0
C281 C 1.04771 0.86128 1.04706 0.0
O282 O 0.95562 0.6489 1.07393 0.0
O283 O 0.92251 0.56752 0.17002 0.0
O284 O 1.00831 0.68624 0.28386 0.0
O285 O 0.97033 0.73835 0.19263 0.0
O286 O 1.02212 0.49582 0.23087 0.0
O287 O 0.07875 0.58519 0.31209 0.0
O288 O 0.17806 0.70179 0.21575 0.0
O289 O 0.16878 0.81406 0.1886 0.0
O290 O 0.14074 0.71208 1.06077 0.0
O291 O 0.0827 0.58815 0.11078 0.0
C292 C 0.90306 0.58536 0.10777 0.0
O293 O 0.07148 0.87026 0.11246 0.0
O294 O 1.05182 0.80085 1.01787 0.0
C295 C 0.97199 0.72759 0.26045 0.0
C296 C 0.14407 0.50722 0.28588 0.0
C297 C 0.30198 0.51935 0.2733 0.0
C298 C 0.27897 0.54122 0.33609 0.0
C299 C 0.20111 0.53612 0.34202 0.0
C300 C 0.1664 0.48183 0.22422 0.0
C301 C 0.24476 0.48851 0.21786 0.0
C302 C 0.06857 0.51683 0.28724 0.0
C303 C 0.20858 0.77963 0.21939 0.0
H304 H 0.90992 0.99235 0.95583 0.0
H305 H 1.03499 0.98537 0.98669 0.0
H306 H 0.89075 0.75191 1.07645 0.0
H307 H 0.76439 0.75785 1.04492 0.0
H308 H 0.32257 0.56583 0.37928 0.0
H309 H 0.18711 0.55852 0.38936 0.0
H310 H 0.12487 0.46031 0.17945 0.0
H311 H 0.26136 0.4711 0.169 0.0
loop_
_geom_bond_atom_site_label_1
_geom_bond_atom_site_label_2
_geom_bond_distance
_geom_bond_site_symmetry_2
_ccdc_geom_bond_type
H0 C1 0.949 . S
C1 H0 0.949 . S
C1 C2 1.395 . S
C1 C3 1.391 . S
C2 C1 1.395 . S
C2 C5 1.390 . S
C3 C1 1.391 . S
C3 C7 1.387 . S
C3 C8 1.491 . S
H4 C5 0.950 . S
C5 C2 1.390 . S
C5 H4 0.950 . S
C5 C6 1.378 . S
C6 C5 1.378 . S
C6 C7 1.409 . S
C7 C3 1.387 . S
C7 C6 1.409 . S
C7 H9 0.951 . S
C8 C3 1.491 . S
C8 C10 1.382 . S
C8 C12 1.404 . S
H9 C7 0.951 . S
C10 C8 1.382 . S
C10 C11 1.390 . S
C10 H15 0.949 . S
C11 C10 1.390 . S
C11 C16 1.399 . S
C12 C8 1.404 . S
C12 H13 0.950 . S
C12 C14 1.375 . S
H13 C12 0.950 . S
C14 C12 1.375 . S
C14 C16 1.382 . S
C14 H18 0.950 . S
H15 C10 0.949 . S
C16 C11 1.399 . S
C16 C14 1.382 . S
C16 H17 0.952 . S
H17 C16 0.952 . S
H18 C14 0.950 . S
H19 C20 0.949 1_655 S
C20 H19 0.949 1_455 S
C20 C21 1.395 . S
C20 C22 1.391 1_455 S
C21 C20 1.395 . S
C21 C24 1.390 . S
C22 C20 1.391 1_655 S
C22 C26 1.387 1_655 S
C22 C27 1.492 . S
H23 C24 0.950 . S
C24 C21 1.390 . S
C24 H23 0.950 . S
C24 C25 1.378 . S
C25 C24 1.378 . S
C25 C26 1.409 . S
C26 C22 1.387 1_455 S
C26 C25 1.409 . S
C26 H28 0.951 . S
C27 C22 1.492 . S
C27 C29 1.382 . S
C27 C31 1.404 . S
H28 C26 0.951 . S
C29 C27 1.382 . S
C29 C30 1.390 . S
C29 H34 0.949 . S
C30 C29 1.390 . S
C30 C35 1.399 . S
C31 C27 1.404 . S
C31 H32 0.950 . S
C31 C33 1.375 . S
H32 C31 0.950 . S
C33 C31 1.375 . S
C33 C35 1.382 . S
C33 H37 0.950 . S
H34 C29 0.949 . S
C35 C30 1.399 . S
C35 C33 1.382 . S
C35 H36 0.952 . S
H36 C35 0.952 . S
H37 C33 0.950 . S
H38 C39 0.949 . S
C39 H38 0.949 . S
C39 C40 1.395 . S
C39 C41 1.391 . S
C40 C39 1.395 . S
C40 C43 1.390 1_556 S
C41 C39 1.391 . S
C41 C45 1.387 . S
C41 C46 1.491 . S
H42 C43 0.950 . S
C43 C40 1.390 1_554 S
C43 H42 0.950 . S
C43 C44 1.378 . S
C44 C43 1.378 . S
C44 C45 1.409 1_554 S
C45 C41 1.387 . S
C45 C44 1.409 1_556 S
C45 H47 0.951 . S
C46 C41 1.491 . S
C46 C48 1.382 . S
C46 C50 1.404 . S
H47 C45 0.951 . S
C48 C46 1.382 . S
C48 C49 1.390 . S
C48 H53 0.949 . S
C49 C48 1.390 . S
C49 C54 1.399 . S
C50 C46 1.404 . S
C50 H51 0.950 . S
C50 C52 1.375 . S
H51 C50 0.950 . S
C52 C50 1.375 . S
C52 C54 1.382 . S
C52 H56 0.950 . S
H53 C48 0.949 . S
C54 C49 1.399 . S
C54 C52 1.382 . S
C54 H55 0.952 . S
H55 C54 0.952 . S
H56 C52 0.950 . S
H57 C58 0.949 . S
C58 H57 0.949 . S
C58 C59 1.395 . S
C58 C60 1.391 . S
C59 C58 1.395 . S
C59 C62 1.390 . S
C60 C58 1.391 . S
C60 C64 1.387 . S
C60 C65 1.491 . S
H61 C62 0.950 . S
C62 C59 1.390 . S
C62 H61 0.950 . S
C62 C63 1.378 . S
C63 C62 1.378 . S
C63 C64 1.409 . S
C64 C60 1.387 . S
C64 C63 1.409 . S
C64 H66 0.951 . S
C65 C60 1.491 . S
C65 C67 1.382 . S
C65 C69 1.404 . S
H66 C64 0.951 . S
C67 C65 1.382 . S
C67 C68 1.390 . S
C67 H72 0.949 . S
C68 C67 1.390 . S
C68 C73 1.399 . S
C69 C65 1.404 . S
C69 H70 0.950 . S
C69 C71 1.375 . S
H70 C69 0.950 . S
C71 C69 1.375 . S
C71 C73 1.382 . S
C71 H75 0.950 . S
H72 C67 0.949 . S
C73 C68 1.399 . S
C73 C71 1.382 . S
C73 H74 0.952 . S
H74 C73 0.952 . S
H75 C71 0.950 . S
H76 C77 0.949 1_554 S
C77 H76 0.949 1_556 S
C77 C78 1.395 . S
C77 C79 1.391 . S
C78 C77 1.395 . S
C78 C81 1.390 . S
C79 C77 1.391 . S
C79 C83 1.387 . S
C79 C84 1.491 . S
H80 C81 0.950 . S
C81 C78 1.390 . S
C81 H80 0.950 . S
C81 C82 1.378 . S
C82 C81 1.378 . S
C82 C83 1.409 . S
C83 C79 1.387 . S
C83 C82 1.409 . S
C83 H85 0.951 . S
C84 C79 1.491 . S
C84 C86 1.382 1_556 S
C84 C88 1.404 . S
H85 C83 0.951 . S
C86 C84 1.382 1_554 S
C86 C87 1.390 . S
C86 H91 0.949 . S
C87 C86 1.390 . S
C87 C92 1.399 1_554 S
C88 C84 1.404 . S
C88 H89 0.950 . S
C88 C90 1.375 . S
H89 C88 0.950 . S
C90 C88 1.375 . S
C90 C92 1.382 . S
C90 H94 0.950 . S
H91 C86 0.949 . S
C92 C87 1.399 1_556 S
C92 C90 1.382 . S
C92 H93 0.952 . S
H93 C92 0.952 . S
H94 C90 0.950 . S
H95 C96 0.949 . S
C96 H95 0.949 . S
C96 C97 1.395 . S
C96 C98 1.391 1_455 S
C97 C96 1.395 . S
C97 C100 1.390 . S
C98 C96 1.391 1_655 S
C98 C102 1.387 . S
C98 C103 1.491 . S
H99 C100 0.950 . S
C100 C97 1.390 . S
C100 H99 0.950 . S
C100 C101 1.378 1_455 S
C101 C100 1.378 1_655 S
C101 C102 1.409 . S
C102 C98 1.387 . S
C102 C101 1.409 . S
C102 H104 0.951 . S
C103 C98 1.491 . S
C103 C105 1.382 . S
C103 C107 1.404 . S
H104 C102 0.951 . S
C105 C103 1.382 . S
C105 C106 1.390 . S
C105 H110 0.949 1_655 S
C106 C105 1.390 . S
C106 C111 1.399 . S
C107 C103 1.404 . S
C107 H108 0.950 . S
C107 C109 1.375 . S
H108 C107 0.950 . S
C109 C107 1.375 . S
C109 C111 1.382 . S
C109 H113 0.950 . S
H110 C105 0.949 1_455 S
C111 C106 1.399 . S
C111 C109 1.382 . S
C111 H112 0.952 . S
H112 C111 0.952 . S
H113 C109 0.950 . S
H114 C115 0.949 . S
C115 H114 0.949 . S
C115 C116 1.395 . S
C115 C117 1.391 . S
C116 C115 1.395 . S
C116 C119 1.390 . S
C117 C115 1.391 . S
C117 C121 1.387 . S
C117 C122 1.491 . S
H118 C119 0.950 . S
C119 C116 1.390 . S
C119 H118 0.950 . S
C119 C120 1.378 . S
C120 C119 1.378 . S
C120 C121 1.409 . S
C121 C117 1.387 . S
C121 C120 1.409 . S
C121 H123 0.951 . S
C122 C117 1.491 . S
C122 C124 1.382 . S
C122 C126 1.404 . S
H123 C121 0.951 . S
C124 C122 1.382 . S
C124 C125 1.390 . S
C124 H129 0.949 . S
C125 C124 1.390 . S
C125 C130 1.399 . S
C126 C122 1.404 . S
C126 H127 0.950 . S
C126 C128 1.375 . S
H127 C126 0.950 . S
C128 C126 1.375 . S
C128 C130 1.382 . S
C128 H132 0.950 . S
H129 C124 0.949 . S
C130 C125 1.399 . S
C130 C128 1.382 . S
C130 H131 0.952 . S
H131 C130 0.952 . S
H132 C128 0.950 . S
H133 C134 0.949 . S
C134 H133 0.949 . S
C134 C135 1.395 . S
C134 C136 1.391 . S
C135 C134 1.395 . S
C135 C138 1.390 . S
C136 C134 1.391 . S
C136 C140 1.387 . S
C136 C141 1.491 . S
H137 C138 0.950 . S
C138 C135 1.390 . S
C138 H137 0.950 . S
C138 C139 1.378 . S
C139 C138 1.378 . S
C139 C140 1.409 . S
C140 C136 1.387 . S
C140 C139 1.409 . S
C140 H142 0.951 . S
C141 C136 1.491 . S
C141 C143 1.382 . S
C141 C145 1.404 . S
H142 C140 0.951 . S
C143 C141 1.382 . S
C143 C144 1.390 . S
C143 H148 0.949 . S
C144 C143 1.390 . S
C144 C149 1.399 . S
C145 C141 1.404 . S
C145 H146 0.950 . S
C145 C147 1.375 . S
H146 C145 0.950 . S
C147 C145 1.375 . S
C147 C149 1.382 . S
C147 H151 0.950 . S
H148 C143 0.949 . S
C149 C144 1.399 . S
C149 C147 1.382 . S
C149 H150 0.952 . S
H150 C149 0.952 . S
H151 C147 0.950 . S
Tb152 C161 2.764 . S
Tb152 O162 2.325 . S
Tb152 O165 2.303 . S
Tb152 O169 2.322 1_545 S
Tb152 O170 2.349 1_545 S
Tb152 O173 2.415 . S
Tb152 O174 2.399 . S
Tb153 O163 2.322 . S
Tb153 O164 2.349 1_655 S
Tb153 O166 2.415 1_545 S
Tb153 O167 2.399 . S
Tb153 O168 2.336 1_545 S
Tb153 O171 2.303 1_545 S
Tb153 C182 2.764 1_545 S
C154 O170 1.261 1_655 S
C154 O171 1.257 . S
C155 C158 1.358 . S
C155 C159 1.332 . S
C155 C161 1.504 . S
C156 C157 1.373 . S
C156 C160 1.308 . S
C157 C156 1.373 . S
C157 C158 1.429 . S
C157 H184 0.932 . S
C158 C155 1.358 . S
C158 C157 1.429 . S
C158 H185 0.930 . S
C159 C155 1.332 . S
C159 C160 1.394 . S
C159 H186 0.932 . S
C160 C156 1.308 . S
C160 C159 1.394 . S
C160 H187 0.929 . S
C161 Tb152 2.764 . S
C161 C155 1.504 . S
C161 O173 1.239 . S
C161 O174 1.263 . S
O162 Tb152 2.325 . S
O162 C172 1.236 1_455 S
O163 Tb153 2.322 . S
O163 C172 1.257 . S
O164 Tb153 2.349 1_455 S
O164 C175 1.261 . S
O165 Tb152 2.303 . S
O165 C175 1.257 . S
O166 Tb153 2.415 1_565 S
O166 C182 1.239 . S
O167 Tb153 2.399 . S
O167 C182 1.263 1_545 S
O168 Tb153 2.336 1_565 S
O168 C183 1.225 1_655 S
O169 Tb152 2.322 1_565 S
O169 C183 1.257 . S
O170 Tb152 2.349 1_565 S
O170 C154 1.261 1_455 S
O171 Tb153 2.303 1_565 S
O171 C154 1.257 . S
C172 O162 1.236 1_655 S
C172 O163 1.257 . S
O173 Tb152 2.415 . S
O173 C161 1.239 . S
O174 Tb152 2.399 . S
O174 C161 1.263 . S
C175 O164 1.261 . S
C175 O165 1.257 . S
C176 C179 1.358 . S
C176 C180 1.332 . S
C176 C182 1.504 . S
C177 C178 1.373 . S
C177 C181 1.308 . S
C178 C177 1.373 . S
C178 C179 1.429 . S
C178 H188 0.932 . S
C179 C176 1.358 . S
C179 C178 1.429 . S
C179 H189 0.930 . S
C180 C176 1.332 . S
C180 C181 1.394 . S
C180 H190 0.932 . S
C181 C177 1.308 . S
C181 C180 1.394 . S
C181 H191 0.929 . S
C182 Tb153 2.764 1_565 S
C182 O166 1.239 . S
C182 O167 1.263 1_565 S
C182 C176 1.504 . S
C183 O168 1.225 1_455 S
C183 O169 1.257 . S
H184 C157 0.932 . S
H185 C158 0.930 . S
H186 C159 0.932 . S
H187 C160 0.929 . S
H188 C178 0.932 . S
H189 C179 0.930 . S
H190 C180 0.932 . S
H191 C181 0.929 . S
Tb192 C201 2.764 . S
Tb192 O202 2.325 . S
Tb192 O205 2.303 . S
Tb192 O209 2.322 1_545 S
Tb192 O210 2.349 1_545 S
Tb192 O213 2.415 . S
Tb192 O214 2.399 . S
Tb193 O203 2.322 . S
Tb193 O204 2.349 . S
Tb193 O206 2.415 1_544 S
Tb193 O207 2.399 1_545 S
Tb193 O208 2.325 1_545 S
Tb193 O211 2.303 1_545 S
Tb193 C222 2.764 1_544 S
C194 O210 1.261 . S
C194 O211 1.257 . S
C195 C198 1.358 . S
C195 C199 1.332 . S
C195 C201 1.504 . S
C196 C197 1.373 . S
C196 C200 1.308 . S
C197 C196 1.373 . S
C197 C198 1.429 . S
C197 H224 0.932 . S
C198 C195 1.358 . S
C198 C197 1.429 . S
C198 H225 0.930 . S
C199 C195 1.332 . S
C199 C200 1.394 . S
C199 H226 0.932 . S
C200 C196 1.308 . S
C200 C199 1.394 . S
C200 H227 0.929 . S
C201 Tb192 2.764 . S
C201 C195 1.504 . S
C201 O213 1.239 . S
C201 O214 1.263 . S
O202 Tb192 2.325 . S
O202 C212 1.236 . S
O203 Tb193 2.322 . S
O203 C212 1.257 . S
O204 Tb193 2.349 . S
O204 C215 1.261 . S
O205 Tb192 2.303 . S
O205 C215 1.257 . S
O206 Tb193 2.415 1_566 S
O206 C222 1.239 . S
O207 Tb193 2.399 1_565 S
O207 C222 1.263 1_554 S
O208 Tb193 2.325 1_565 S
O208 C223 1.236 . S
O209 Tb192 2.322 1_565 S
O209 C223 1.257 . S
O210 Tb192 2.349 1_565 S
O210 C194 1.261 . S
O211 Tb193 2.303 1_565 S
O211 C194 1.257 . S
C212 O202 1.236 . S
C212 O203 1.257 . S
O213 Tb192 2.415 . S
O213 C201 1.239 . S
O214 Tb192 2.399 . S
O214 C201 1.263 . S
C215 O204 1.261 . S
C215 O205 1.257 . S
C216 C219 1.358 . S
C216 C220 1.332 . S
C216 C222 1.504 . S
C217 C218 1.373 . S
C217 C221 1.308 . S
C218 C217 1.373 . S
C218 C219 1.429 . S
C218 H228 0.932 . S
C219 C216 1.358 . S
C219 C218 1.429 . S
C219 H229 0.930 . S
C220 C216 1.332 . S
C220 C221 1.394 . S
C220 H230 0.932 . S
C221 C217 1.308 . S
C221 C220 1.394 . S
C221 H231 0.929 . S
C222 Tb193 2.764 1_566 S
C222 O206 1.239 . S
C222 O207 1.263 1_556 S
C222 C216 1.504 . S
C223 O208 1.236 . S
C223 O209 1.257 . S
H224 C197 0.932 . S
H225 C198 0.930 . S
H226 C199 0.932 . S
H227 C200 0.929 . S
H228 C218 0.932 . S
H229 C219 0.930 . S
H230 C220 0.932 . S
H231 C221 0.929 . S
Tb232 C241 2.764 . S
Tb232 O242 2.325 . S
Tb232 O245 2.303 . S
Tb232 O249 2.322 . S
Tb232 O250 2.349 . S
Tb232 O253 2.415 . S
Tb232 O254 2.399 . S
Tb233 O243 2.322 . S
Tb233 O244 2.349 . S
Tb233 O246 2.415 . S
Tb233 O247 2.399 . S
Tb233 O248 2.325 . S
Tb233 O251 2.303 . S
Tb233 C262 2.764 . S
C234 O250 1.261 . S
C234 O251 1.257 . S
C235 C238 1.358 . S
C235 C239 1.332 . S
C235 C241 1.504 . S
C236 C237 1.373 . S
C236 C240 1.308 . S
C237 C236 1.373 . S
C237 C238 1.429 . S
C237 H264 0.932 . S
C238 C235 1.358 . S
C238 C237 1.429 . S
C238 H265 0.930 . S
C239 C235 1.332 . S
C239 C240 1.394 . S
C239 H266 0.932 . S
C240 C236 1.308 . S
C240 C239 1.394 . S
C240 H267 0.929 . S
C241 Tb232 2.764 . S
C241 C235 1.504 . S
C241 O253 1.239 . S
C241 O254 1.263 . S
O242 Tb232 2.325 . S
O242 C252 1.236 . S
O243 Tb233 2.322 . S
O243 C252 1.257 . S
O244 Tb233 2.349 . S
O244 C255 1.261 . S
O245 Tb232 2.303 . S
O245 C255 1.257 . S
O246 Tb233 2.415 . S
O246 C262 1.239 . S
O247 Tb233 2.399 . S
O247 C262 1.263 . S
O248 Tb233 2.325 . S
O248 C263 1.236 . S
O249 Tb232 2.322 . S
O249 C263 1.257 . S
O250 Tb232 2.349 . S
O250 C234 1.261 . S
O251 Tb233 2.303 . S
O251 C234 1.257 . S
C252 O242 1.236 . S
C252 O243 1.257 . S
O253 Tb232 2.415 . S
O253 C241 1.239 . S
O254 Tb232 2.399 . S
O254 C241 1.263 . S
C255 O244 1.261 . S
C255 O245 1.257 . S
C256 C259 1.358 . S
C256 C260 1.332 . S
C256 C262 1.504 . S
C257 C258 1.373 . S
C257 C261 1.308 . S
C258 C257 1.373 . S
C258 C259 1.429 . S
C258 H268 0.932 . S
C259 C256 1.358 . S
C259 C258 1.429 . S
C259 H269 0.930 . S
C260 C256 1.332 . S
C260 C261 1.394 . S
C260 H270 0.932 . S
C261 C257 1.308 . S
C261 C260 1.394 . S
C261 H271 0.929 . S
C262 Tb233 2.764 . S
C262 O246 1.239 . S
C262 O247 1.263 . S
C262 C256 1.504 . S
C263 O248 1.236 . S
C263 O249 1.257 . S
H264 C237 0.932 . S
H265 C238 0.930 . S
H266 C239 0.932 . S
H267 C240 0.929 . S
H268 C258 0.932 . S
H269 C259 0.930 . S
H270 C260 0.932 . S
H271 C261 0.929 . S
Tb272 C281 2.764 1_455 S
Tb272 O282 2.325 1_455 S
Tb272 O285 2.303 1_556 S
Tb272 O289 2.322 1_556 S
Tb272 O290 2.349 . S
Tb272 O293 2.415 1_456 S
Tb272 O294 2.399 . S
Tb273 O283 2.322 1_455 S
Tb273 O284 2.349 . S
Tb273 O286 2.415 . S
Tb273 O287 2.399 . S
Tb273 O288 2.325 . S
Tb273 O291 2.303 1_554 S
Tb273 C302 2.764 . S
C274 O290 1.261 . S
C274 O291 1.257 . S
C275 C278 1.358 . S
C275 C279 1.332 . S
C275 C281 1.504 . S
C276 C277 1.373 . S
C276 C280 1.308 . S
C277 C276 1.373 . S
C277 C278 1.429 . S
C277 H304 0.932 . S
C278 C275 1.358 . S
C278 C277 1.429 . S
C278 H305 0.930 . S
C279 C275 1.332 . S
C279 C280 1.394 . S
C279 H306 0.932 . S
C280 C276 1.308 . S
C280 C279 1.394 . S
C280 H307 0.929 . S
C281 Tb272 2.764 1_655 S
C281 C275 1.504 . S
C281 O293 1.239 1_556 S
C281 O294 1.263 1_655 S
O282 Tb272 2.325 1_655 S
O282 C292 1.236 . S
O283 Tb273 2.322 1_655 S
O283 C292 1.257 1_554 S
O284 Tb273 2.349 . S
O284 C295 1.267 . S
O285 Tb272 2.303 1_554 S
O285 C295 1.259 . S
O286 Tb273 2.415 . S
O286 C302 1.239 . S
O287 Tb273 2.399 . S
O287 C302 1.263 . S
O288 Tb273 2.325 . S
O288 C303 1.236 . S
O289 Tb272 2.322 1_554 S
O289 C303 1.257 . S
O290 Tb272 2.349 . S
O290 C274 1.261 . S
O291 Tb273 2.303 1_556 S
O291 C274 1.257 . S
C292 O282 1.236 . S
C292 O283 1.257 1_556 S
O293 Tb272 2.415 1_654 S
O293 C281 1.239 1_554 S
O294 Tb272 2.399 . S
O294 C281 1.263 1_455 S
C295 O284 1.267 . S
C295 O285 1.259 . S
C296 C299 1.358 . S
C296 C300 1.332 . S
C296 C302 1.504 . S
C297 C298 1.373 . S
C297 C301 1.308 . S
C298 C297 1.373 . S
C298 C299 1.429 . S
C298 H308 0.932 . S
C299 C296 1.358 . S
C299 C298 1.429 . S
C299 H309 0.930 . S
C300 C296 1.332 . S
C300 C301 1.394 . S
C300 H310 0.932 . S
C301 C297 1.308 . S
C301 C300 1.394 . S
C301 H311 0.929 . S
C302 Tb273 2.764 . S
C302 O286 1.239 . S
C302 O287 1.263 . S
C302 C296 1.504 . S
C303 O288 1.236 . S
C303 O289 1.257 . S
H304 C277 0.932 . S
H305 C278 0.930 . S
H306 C279 0.932 . S
H307 C280 0.929 . S
H308 C298 0.932 . S
H309 C299 0.930 . S
H310 C300 0.932 . S
H311 C301 0.929 . S
C6 C156 1.658 . S
C21 C217 1.745 . S
C255 C49 3.270 . S
C68 C295 3.090 1_655 S
C215 C2 2.797 . S
C183 C30 3.617 1_455 S
C292 C40 2.910 . S
C252 C63 2.614 . S
C11 C297 2.017 . S
C212 C44 4.053 . S
C59 C154 2.687 . S
C25 C257 3.613 . S
C177 C82 0.960 . S
C101 C196 1.878 . S
C125 C234 3.363 . S
C144 C274 3.341 . S
C87 C194 3.395 . S
C172 C97 3.256 1_655 S
C303 C120 2.627 . S
C263 C135 3.015 . S
C78 C276 3.650 . S
C223 C116 2.902 . S
C175 C139 3.815 . S
C106 C236 1.679 . S
