# Generated by pormake.
# Topology pyr, (3,6)-cn, num edge types: 1
# Building blocks:
#     Node 0, Type 0, BuildingBlock: ESEHIV_clean_linker_0, # of connection points: 3
#     Node 1, Type 0, BuildingBlock: ESEHIV_clean_linker_0, # of connection points: 3
#     Node 2, Type 0, BuildingBlock: ESEHIV_clean_linker_0, # of connection points: 3
#     Node 3, Type 0, BuildingBlock: ESEHIV_clean_linker_0, # of connection points: 3
#     Node 4, Type 0, BuildingBlock: ESEHIV_clean_linker_0, # of connection points: 3
#     Node 5, Type 0, BuildingBlock: ESEHIV_clean_linker_0, # of connection points: 3
#     Node 6, Type 0, BuildingBlock: ESEHIV_clean_linker_0, # of connection points: 3
#     Node 7, Type 0, BuildingBlock: ESEHIV_clean_linker_0, # of connection points: 3
#     Node 8, Type 1, BuildingBlock: INOVEN_clean_sbu_0, # of connection points: 6
#     Node 9, Type 1, BuildingBlock: INOVEN_clean_sbu_0, # of connection points: 6
#     Node 10, Type 1, BuildingBlock: INOVEN_clean_sbu_0, # of connection points: 6
#     Node 11, Type 1, BuildingBlock: INOVEN_clean_sbu_0, # of connection points: 6
#     Edge 12, Type (0, 1), BuildingBlock: UVAHIK_clean_linker_0, # of connection points: 2
#     Edge 13, Type (0, 1), BuildingBlock: UVAHIK_clean_linker_0, # of connection points: 2
#     Edge 14, Type (0, 1), BuildingBlock: UVAHIK_clean_linker_0, # of connection points: 2
#     Edge 15, Type (0, 1), BuildingBlock: UVAHIK_clean_linker_0, # of connection points: 2
#     Edge 16, Type (0, 1), BuildingBlock: UVAHIK_clean_linker_0, # of connection points: 2
#     Edge 17, Type (0, 1), BuildingBlock: UVAHIK_clean_linker_0, # of connection points: 2
#     Edge 18, Type (0, 1), BuildingBlock: UVAHIK_clean_linker_0, # of connection points: 2
#     Edge 19, Type (0, 1), BuildingBlock: UVAHIK_clean_linker_0, # of connection points: 2
#     Edge 20, Type (0, 1), BuildingBlock: UVAHIK_clean_linker_0, # of connection points: 2
#     Edge 21, Type (0, 1), BuildingBlock: UVAHIK_clean_linker_0, # of connection points: 2
#     Edge 22, Type (0, 1), BuildingBlock: UVAHIK_clean_linker_0, # of connection points: 2
#     Edge 23, Type (0, 1), BuildingBlock: UVAHIK_clean_linker_0, # of connection points: 2
#     Edge 24, Type (0, 1), BuildingBlock: UVAHIK_clean_linker_0, # of connection points: 2
#     Edge 25, Type (0, 1), BuildingBlock: UVAHIK_clean_linker_0, # of connection points: 2
#     Edge 26, Type (0, 1), BuildingBlock: UVAHIK_clean_linker_0, # of connection points: 2
#     Edge 27, Type (0, 1), BuildingBlock: UVAHIK_clean_linker_0, # of connection points: 2
#     Edge 28, Type (0, 1), BuildingBlock: UVAHIK_clean_linker_0, # of connection points: 2
#     Edge 29, Type (0, 1), BuildingBlock: UVAHIK_clean_linker_0, # of connection points: 2
#     Edge 30, Type (0, 1), BuildingBlock: UVAHIK_clean_linker_0, # of connection points: 2
#     Edge 31, Type (0, 1), BuildingBlock: UVAHIK_clean_linker_0, # of connection points: 2
#     Edge 32, Type (0, 1), BuildingBlock: UVAHIK_clean_linker_0, # of connection points: 2
#     Edge 33, Type (0, 1), BuildingBlock: UVAHIK_clean_linker_0, # of connection points: 2
#     Edge 34, Type (0, 1), BuildingBlock: UVAHIK_clean_linker_0, # of connection points: 2
#     Edge 35, Type (0, 1), BuildingBlock: UVAHIK_clean_linker_0, # of connection points: 2
# Relax obj value: 0.092
# Max RMSD: 0.126
# Mean RMSD: 0.058
data_MOF--net-pyr--node1-INOVEN_clean_sbu_0--node2-ESEHIV_clean_linker_0--edge1-UVAHIK_clean_linker_0
_symmetry_space_group_name_H-M    P1
_symmetry_Int_Tables_number       1
_symmetry_cell_setting            triclinic
loop_
_symmetry_equiv_pos_as_xyz
'x, y, z'
_cell_length_a     47.166842
_cell_length_b     49.500689
_cell_length_c     43.992555
_cell_angle_alpha  90.580355
_cell_angle_beta   88.436803
_cell_angle_gamma 101.58434
loop_
_atom_site_label
_atom_site_type_symbol
_atom_site_fract_x
_atom_site_fract_y
_atom_site_fract_z
_atom_type_partial_charge
H0 H 0.2956 0.30158 0.26878 0.0
H1 H 0.36109 0.25311 0.27495 0.0
H2 H 0.33477 0.27598 0.18725 0.0
C3 C 0.31161 0.2915 0.25793 0.0
C4 C 0.31406 0.29132 0.2261 0.0
C5 C 0.32799 0.27731 0.27575 0.0
C6 C 0.34813 0.2638 0.26125 0.0
C7 C 0.35077 0.26298 0.22929 0.0
C8 C 0.33388 0.27722 0.21185 0.0
H9 H 0.21763 0.83618 0.69588 0.0
H10 H 0.28476 0.79601 0.6609 0.0
H11 H 0.22475 0.81917 0.59996 0.0
C12 C 0.22795 0.82729 0.67705 0.0
C13 C 0.21747 0.82831 0.64751 0.0
C14 C 0.2525 0.81601 0.68215 0.0
C15 C 0.2659 0.80493 0.65745 0.0
C16 C 0.25572 0.80598 0.62804 0.0
C17 C 0.23165 0.81759 0.62307 0.0
H18 H 0.6866 0.34255 0.89875 0.0
H19 H 0.69398 0.40723 0.83332 0.0
H20 H 0.62287 0.33752 0.82963 0.0
C21 C 0.67863 0.35075 0.87869 0.0
C22 C 0.65344 0.33603 0.86498 0.0
C23 C 0.69346 0.37634 0.86744 0.0
C24 C 0.68215 0.3879 0.84253 0.0
C25 C 0.65631 0.37442 0.82889 0.0
C26 C 0.6424 0.34829 0.84017 0.0
H27 H 0.83484 0.71579 0.39589 0.0
H28 H 0.90497 0.718 0.33072 0.0
H29 H 0.8346 0.6473 0.33553 0.0
C30 C 0.84488 0.70641 0.37722 0.0
C31 C 0.83173 0.67992 0.3673 0.0
C32 C 0.87113 0.72058 0.36403 0.0
C33 C 0.88461 0.70739 0.34076 0.0
C34 C 0.87189 0.68067 0.33037 0.0
C35 C 0.84531 0.66732 0.34383 0.0
H36 H 0.67909 0.80815 0.81537 0.0
H37 H 0.72005 0.73858 0.82479 0.0
H38 H 0.67059 0.7635 0.89953 0.0
C39 C 0.68271 0.79068 0.82829 0.0
C40 C 0.67139 0.78688 0.85818 0.0
C41 C 0.70091 0.77374 0.81624 0.0
C42 C 0.70605 0.75177 0.83383 0.0
C43 C 0.6956 0.74816 0.86396 0.0
C44 C 0.67828 0.76583 0.87607 0.0
H45 H 0.70632 0.24916 0.44121 0.0
H46 H 0.76445 0.20017 0.40294 0.0
H47 H 0.77397 0.22964 0.49512 0.0
C48 C 0.72466 0.2392 0.44322 0.0
C49 C 0.73912 0.24088 0.4708 0.0
C50 C 0.73378 0.22478 0.41838 0.0
C51 C 0.75756 0.212 0.42162 0.0
C52 C 0.77228 0.21391 0.44906 0.0
C53 C 0.76306 0.22853 0.47362 0.0
H54 H 0.3415 0.72613 0.16913 0.0
H55 H 0.33751 0.65985 0.23234 0.0
H56 H 0.40826 0.73 0.2347 0.0
C57 C 0.3507 0.71707 0.18784 0.0
C58 C 0.37677 0.73125 0.20026 0.0
C59 C 0.3363 0.69133 0.1992 0.0
C60 C 0.3484 0.67971 0.22358 0.0
C61 C 0.37433 0.69345 0.23678 0.0
C62 C 0.38832 0.71925 0.22484 0.0
H63 H 0.12334 0.34924 0.73856 0.0
H64 H 0.19134 0.35258 0.67064 0.0
H65 H 0.19455 0.41898 0.73507 0.0
C66 C 0.14361 0.35977 0.7282 0.0
C67 C 0.15769 0.3854 0.74007 0.0
C68 C 0.15556 0.34777 0.703 0.0
C69 C 0.1817 0.36194 0.68961 0.0
C70 C 0.19601 0.38763 0.70087 0.0
C71 C 0.18399 0.39902 0.72641 0.0
Gd72 Gd 0.02304 0.04612 0.50494 0.0
Gd73 Gd 1.00516 1.01997 0.56646 0.0
C74 C 0.04094 0.08118 0.56776 0.0
C75 C 0.03636 0.08049 0.46083 0.0
C76 C 0.06162 0.10312 0.45779 0.0
C77 C 0.08523 0.10373 0.47671 0.0
C78 C 0.06245 0.12414 0.43651 0.0
C79 C 0.11122 0.1452 0.45175 0.0
C80 C 0.08712 0.14516 0.43356 0.0
C81 C 0.10988 0.12449 0.4736 0.0
C82 C 0.06002 1.01715 0.52797 0.0
C83 C 0.98725 0.98504 0.50325 0.0
C84 C 0.99355 0.98646 0.61159 0.0
C85 C 0.96824 0.9646 0.61932 0.0
C86 C 0.94023 0.97031 0.62105 0.0
C87 C 0.97184 0.93752 0.62398 0.0
C88 C 0.91982 0.92226 0.63252 0.0
C89 C 0.94787 0.91651 0.63045 0.0
C90 C 0.91635 0.94943 0.62773 0.0
C91 C 0.96755 0.04834 0.54369 0.0
O92 O 0.03528 0.0815 0.53847 0.0
O93 O 0.03548 0.05787 0.58325 0.0
O94 O 0.04232 0.05578 0.46022 0.0
O95 O 0.01783 0.08362 0.4826 0.0
O96 O 0.05516 1.0182 0.49924 0.0
O97 O 0.04682 0.03287 0.54266 0.0
O98 O 0.99252 0.98462 0.5327 0.0
O99 O 0.99296 1.00836 0.48773 0.0
O100 O 0.98941 1.01182 0.61266 0.0
O101 O 0.00926 0.98166 0.5879 0.0
O102 O 0.9716 0.04635 0.57249 0.0
O103 O 0.98127 0.03322 0.52875 0.0
H104 H 0.08475 0.08786 0.49363 0.0
H105 H 0.04428 0.12407 0.42196 0.0
H106 H 0.08775 0.16084 0.41642 0.0
H107 H 0.12805 0.12423 0.48807 0.0
H108 H 0.93666 0.99095 0.61731 0.0
H109 H 0.99321 0.93258 0.62246 0.0
H110 H 0.9513 0.89576 0.63364 0.0
H111 H 0.8952 0.95475 0.62969 0.0
Gd112 Gd 0.54249 0.04224 0.04331 0.0
Gd113 Gd 0.48413 1.02301 1.01836 0.0
C114 C 0.48749 0.06547 0.07255 0.0
C115 C 0.58983 0.07203 0.063 0.0
C116 C 0.59715 0.09039 0.08924 0.0
C117 C 0.58159 0.08528 0.11692 0.0
C118 C 0.61955 0.11359 0.08646 0.0
C119 C 0.6119 0.12575 0.13941 0.0
C120 C 0.62683 0.13119 0.11128 0.0
C121 C 0.58901 0.10269 0.14184 0.0
C122 C 0.51392 0.99385 0.06716 0.0
C123 C 0.53868 0.99883 0.99066 0.0
C124 C 0.43589 0.99558 0.99782 0.0
C125 C 0.42537 0.97169 0.9779 0.0
C126 C 0.43061 0.97314 0.9463 0.0
C127 C 0.40832 0.94764 0.99038 0.0
C128 C 0.40047 0.92749 0.93988 0.0
C129 C 0.39607 0.9257 0.97159 0.0
C130 C 0.41826 0.95129 0.92752 0.0
C131 C 0.51332 0.07176 0.99597 0.0
O132 O 0.5159 0.06863 0.0693 0.0
O133 O 0.46983 0.04626 0.05753 0.0
O134 O 0.5815 0.04576 0.06899 0.0
O135 O 0.57411 0.08064 0.04259 0.0
O136 O 0.54158 0.99974 0.06152 0.0
O137 O 0.50278 1.01445 0.06167 0.0
O138 O 0.5104 0.9943 0.99594 0.0
O139 O 0.55611 1.01999 1.003 0.0
O140 O 0.45071 1.0179 0.98496 0.0
O141 O 0.44618 0.99037 1.02395 0.0
O142 O 0.48602 0.06685 1.00347 0.0
O143 O 0.52383 0.05058 1.00001 0.0
H144 H 0.56391 0.06764 0.11939 0.0
H145 H 0.63148 0.11806 0.06509 0.0
H146 H 0.64418 0.14904 0.10843 0.0
H147 H 0.57726 0.09765 0.16318 0.0
H148 H 0.44359 0.99142 0.93592 0.0
H149 H 0.40392 0.94602 1.01468 0.0
H150 H 0.38278 0.90753 0.98186 0.0
H151 H 0.42175 0.95357 0.90316 0.0
Gd152 Gd 0.51597 0.51088 0.51284 0.0
Gd153 Gd 0.51181 0.5571 0.55379 0.0
C154 C 0.53784 0.51006 0.58311 0.0
C155 C 0.53369 0.47106 0.48524 0.0
C156 C 0.54658 0.44922 0.49805 0.0
C157 C 0.53864 0.43945 0.5276 0.0
C158 C 0.56947 0.44063 0.48245 0.0
C159 C 0.57744 0.41386 0.5264 0.0
C160 C 0.58475 0.42302 0.49647 0.0
C161 C 0.55389 0.42183 0.54163 0.0
C162 C 0.46362 0.50606 0.5412 0.0
C163 C 0.49008 0.55774 0.48342 0.0
C164 C 0.49424 0.59654 0.58258 0.0
C165 C 0.47657 0.61595 0.5727 0.0
C166 C 0.48363 0.64371 0.58149 0.0
C167 C 0.45366 0.60724 0.55286 0.0
C168 C 0.44479 0.65382 0.55095 0.0
C169 C 0.43799 0.626 0.54203 0.0
C170 C 0.46783 0.66252 0.57075 0.0
C171 C 0.56412 0.56148 0.5255 0.0
O172 O 0.53979 0.50144 0.5547 0.0
O173 O 0.52464 0.53053 0.58975 0.0
O174 O 0.50643 0.4702 0.49239 0.0
O175 O 0.54962 0.49584 0.48741 0.0
O176 O 0.46727 0.49953 0.51294 0.0
O177 O 0.48782 0.51419 0.55331 0.0
O178 O 0.48743 0.56587 0.51197 0.0
O179 O 0.50403 0.53779 0.47677 0.0
O180 O 0.51989 0.59956 0.56954 0.0
O181 O 0.48098 0.57071 0.5846 0.0
O182 O 0.56062 0.56771 0.55391 0.0
O183 O 0.53987 0.55377 0.51339 0.0
H184 H 0.52126 0.44616 0.54027 0.0
H185 H 0.57606 0.44817 0.45978 0.0
H186 H 0.60251 0.41678 0.484 0.0
H187 H 0.54791 0.41523 0.56474 0.0
H188 H 0.50139 0.65082 0.5966 0.0
H189 H 0.44795 0.58594 0.54548 0.0
H190 H 0.42061 0.61872 0.52653 0.0
H191 H 0.47329 0.68375 0.57841 0.0
Gd192 Gd 0.01774 0.50479 0.04655 0.0
Gd193 Gd 0.01137 0.5599 1.02254 0.0
C194 C 0.06994 0.55886 0.05633 0.0
C195 C 0.03573 0.45981 0.0573 0.0
C196 C 0.06063 0.45051 0.07045 0.0
C197 C 0.0658 0.45243 0.10179 0.0
C198 C 0.0789 0.43834 0.05131 0.0
C199 C 0.10669 0.42954 0.09458 0.0
C200 C 0.10176 0.42809 0.06321 0.0
C201 C 0.08859 0.442 0.11373 0.0
C202 C 0.98973 0.53403 0.08525 0.0
C203 C 0.95916 0.50622 1.01331 0.0
C204 C 0.99265 0.60417 1.01052 0.0
C205 C 0.96494 0.61107 1.00159 0.0
C206 C 0.9538 0.6047 0.97249 0.0
C207 C 0.94935 0.62437 1.02258 0.0
C208 C 0.91197 0.6249 0.98561 0.0
C209 C 0.92311 0.63107 1.01476 0.0
C210 C 0.92763 0.61158 0.96458 0.0
C211 C 0.03958 0.53058 0.98417 0.0
O212 O 0.06194 0.5316 0.05568 0.0
O213 O 0.05268 0.5749 0.04698 0.0
O214 O 0.01809 0.4698 0.07573 0.0
O215 O 0.04085 0.47328 1.03167 0.0
O216 O 0.98305 0.50737 0.08235 0.0
O217 O 0.01169 0.54359 0.06875 0.0
O218 O 0.96659 0.53339 1.01589 0.0
O219 O 0.97716 0.49022 1.02068 0.0
O220 O 1.00643 0.59151 0.99048 0.0
O221 O 0.99314 0.59453 0.03802 0.0
O222 O 0.04652 0.55721 0.98732 0.0
O223 O 0.01739 0.52112 1.00038 0.0
H224 H 0.0521 0.46168 0.11716 0.0
H225 H 0.07523 0.43637 1.02711 0.0
H226 H 0.11506 0.41829 0.04793 0.0
H227 H 0.09204 0.44363 0.13798 0.0
H228 H 0.96532 0.59453 0.95572 0.0
H229 H 0.95743 0.62953 0.04516 0.0
H230 H 0.91147 0.64093 1.03169 0.0
H231 H 0.91995 0.6069 0.94178 0.0
C232 C 0.31691 0.24629 0.32095 0.0
C233 C 0.32012 0.27286 0.30858 0.0
C234 C 0.30169 0.23977 0.34842 0.0
C235 C 0.23839 0.2567 0.38247 0.0
H236 H 0.24748 0.20287 0.44288 0.0
C237 C 0.1385 0.19379 0.4443 0.0
C238 C 0.13848 0.16553 0.44653 0.0
C239 C 0.1642 0.21254 0.43737 0.0
C240 C 0.24453 0.21788 0.42613 0.0
H241 H 0.31342 0.31435 0.31754 0.0
H242 H 0.28585 0.30256 0.36504 0.0
H243 H 0.28969 0.22655 0.41343 0.0
H244 H 0.16514 0.13467 0.4438 0.0
H245 H 0.20951 0.16688 0.43047 0.0
H246 H 0.19313 0.24649 0.39277 0.0
C247 C 0.29501 0.28684 0.35329 0.0
C248 C 0.26878 0.2316 0.40954 0.0
C249 C 0.31063 0.2935 0.32603 0.0
C250 C 0.16464 0.15642 0.44252 0.0
C251 C 0.19017 0.17501 0.43512 0.0
C252 C 0.21411 0.24267 0.39863 0.0
C253 C 0.28915 0.25958 0.36388 0.0
C254 C 0.26572 0.25039 0.38678 0.0
C255 C 0.19027 0.2033 0.43195 0.0
C256 C 0.21667 0.22223 0.41979 0.0
H257 H 0.32373 0.22979 0.30818 0.0
H258 H 0.29737 0.21853 0.35595 0.0
H259 H 0.2353 0.27083 0.36477 0.0
H260 H 0.1186 0.20133 0.44769 0.0
H261 H 0.16348 0.23419 0.43567 0.0
C262 C 0.24844 0.81386 0.73931 0.0
C263 C 0.26571 0.81799 0.71255 0.0
C264 C 0.26112 0.81791 0.7678 0.0
C265 C 0.33126 0.82626 0.80663 0.0
H266 H 0.29877 0.87546 0.86022 0.0
C267 C 0.39833 0.8984 0.89259 0.0
C268 C 0.38489 0.90572 0.91948 0.0
C269 C 0.38246 0.88087 0.87134 0.0
C270 C 0.30783 0.86118 0.84597 0.0
H271 H 0.3099 0.82942 0.69485 0.0
H272 H 0.33185 0.83618 0.74428 0.0
H273 H 0.27271 0.85665 0.81539 0.0
H274 H 0.34454 0.89908 0.94585 0.0
H275 H 0.3171 0.86788 0.90918 0.0
H276 H 0.36687 0.83155 0.83674 0.0
C277 C 0.30859 0.82936 0.74333 0.0
C278 C 0.29286 0.85041 0.82022 0.0
C279 C 0.29595 0.82548 0.71495 0.0
C280 C 0.35564 0.89377 0.92547 0.0
C281 C 0.3398 0.87613 0.90427 0.0
C282 C 0.3462 0.83696 0.83247 0.0
C283 C 0.29131 0.82605 0.77006 0.0
C284 C 0.30482 0.83352 0.7998 0.0
C285 C 0.3528 0.87014 0.87657 0.0
C286 C 0.33506 0.8552 0.85195 0.0
H287 H 0.22512 0.80775 0.73824 0.0
H288 H 0.2473 0.81503 0.78807 0.0
H289 H 0.34078 0.81293 0.79151 0.0
H290 H 0.42095 0.90688 0.88752 0.0
H291 H 0.39314 0.87687 0.85015 0.0
C292 C 0.62879 0.37209 0.77958 0.0
C293 C 0.64399 0.38782 0.80307 0.0
C294 C 0.61715 0.3848 0.7558 0.0
C295 C 0.59902 0.45268 0.73382 0.0
H296 H 0.59172 0.41885 0.65392 0.0
C297 C 0.54114 0.4986 0.63837 0.0
C298 C 0.55006 0.49592 0.60792 0.0
C299 C 0.55211 0.48488 0.6617 0.0
C300 C 0.5939 0.42893 0.67591 0.0
H301 H 0.6583 0.42977 0.81944 0.0
H302 H 0.63994 0.45173 0.77749 0.0
H303 H 0.61258 0.39688 0.6944 0.0
H304 H 0.57781 0.47673 0.57827 0.0
H305 H 0.59787 0.45385 0.61886 0.0
H306 H 0.58197 0.4855 0.71504 0.0
C307 C 0.63611 0.42943 0.77772 0.0
C308 C 0.60548 0.41594 0.69951 0.0
C309 C 0.64728 0.41673 0.80173 0.0
C310 C 0.57034 0.47921 0.60147 0.0
C311 C 0.58172 0.46584 0.62487 0.0
C312 C 0.58794 0.46588 0.71015 0.0
C313 C 0.62064 0.41374 0.75439 0.0
C314 C 0.60821 0.42754 0.72895 0.0
C315 C 0.57279 0.4684 0.65548 0.0
C316 C 0.58501 0.45422 0.68075 0.0
H317 H 0.62602 0.34985 0.77927 0.0
H318 H 0.60512 0.37175 0.73872 0.0
H319 H 0.60009 0.46225 0.75608 0.0
H320 H 0.52527 0.51097 0.64417 0.0
H321 H 0.54393 0.48699 0.68465 0.0
C322 C 0.88323 0.63773 0.30511 0.0
C323 C 0.88584 0.66662 0.30528 0.0
C324 C 0.89468 0.62428 0.28097 0.0
C325 C 0.94952 0.63352 0.219 0.0
H326 H 0.89999 0.56993 0.18299 0.0
C327 C 0.98718 0.57859 0.11229 0.0
C328 C 0.97746 0.54996 0.10935 0.0
C329 C 0.97587 0.59346 0.13538 0.0
C330 C 0.91442 0.58733 0.19298 0.0
H331 H 0.9034 0.70382 0.27974 0.0
H332 H 0.92428 0.68032 0.23824 0.0
H333 H 0.88154 0.59428 0.22507 0.0
H334 H 0.94855 0.5144 0.12871 0.0
H335 H 0.92974 0.53984 0.16959 0.0
H336 H 0.98277 0.62617 0.18778 0.0
C337 C 0.91305 0.66817 0.25688 0.0
C338 C 0.90368 0.60141 0.21709 0.0
C339 C 0.90116 0.68165 0.28084 0.0
C340 C 0.95634 0.53649 0.13017 0.0
C341 C 0.94535 0.55124 0.15355 0.0
C342 C 0.96045 0.61916 0.19518 0.0
C343 C 0.9096 0.63928 0.25646 0.0
C344 C 0.92109 0.62465 0.23045 0.0
C345 C 0.95486 0.58002 0.15656 0.0
C346 C 0.9431 0.59575 0.18177 0.0
H347 H 0.87236 0.62533 0.32374 0.0
H348 H 0.89207 0.60204 0.28161 0.0
H349 H 0.96357 0.6512 0.22898 0.0
H350 H 1.00363 0.58958 0.09679 0.0
H351 H 0.98355 0.61556 0.13639 0.0
C352 C 0.38412 0.25263 0.18679 0.0
C353 C 0.36888 0.24496 0.21432 0.0
C354 C 0.39971 0.23478 0.17212 0.0
C355 C 0.43338 0.17482 0.18454 0.0
H356 H 0.41927 0.15935 0.09908 0.0
C357 C 0.49299 0.1044 0.11037 0.0
C358 C 0.47519 0.08527 0.0917 0.0
C359 C 0.48168 0.12466 0.12627 0.0
C360 C 0.4234 0.16348 0.12295 0.0
H361 H 0.35796 0.21215 0.24768 0.0
H362 H 0.3857 0.18165 0.22258 0.0
H363 H 0.39746 0.19438 0.12493 0.0
H364 H 0.43143 0.07209 0.07562 0.0
H365 H 0.41189 0.10744 0.10321 0.0
H366 H 0.45905 0.14363 0.18258 0.0
C367 C 0.38584 0.20157 0.21254 0.0
C368 C 0.41118 0.18371 0.13764 0.0
C369 C 0.37002 0.21919 0.22698 0.0
C370 C 0.44576 0.08646 0.08981 0.0
C371 C 0.43458 0.10686 0.1054 0.0
C372 C 0.4459 0.1548 0.16973 0.0
C373 C 0.40062 0.20904 0.18483 0.0
C374 C 0.41569 0.18931 0.16869 0.0
C375 C 0.45248 0.12636 0.12349 0.0
C376 C 0.44065 0.14864 0.13891 0.0
H377 H 0.38399 0.27239 0.17653 0.0
H378 H 0.41109 0.24112 0.15084 0.0
H379 H 0.43735 0.17886 0.20845 0.0
H380 H 0.51575 0.10404 0.11233 0.0
H381 H 0.49597 0.13948 0.14004 0.0
C382 C 0.1924 0.86802 0.65591 0.0
C383 C 0.19358 0.84279 0.64141 0.0
C384 C 0.17281 0.88382 0.64665 0.0
C385 C 0.14145 0.89956 0.57779 0.0
H386 H 0.09217 0.9365 0.62832 0.0
C387 C 0.07607 0.97238 0.5253 0.0
C388 C 0.07318 0.99602 0.5419 0.0
C389 C 0.08744 0.95167 0.53881 0.0
C390 C 0.10611 0.92661 0.61394 0.0
H391 H 0.17347 0.81331 0.60766 0.0
H392 H 0.13994 0.84147 0.59083 0.0
H393 H 0.11695 0.90304 0.65105 0.0
H394 H 0.0797 1.01686 0.5854 0.0
H395 H 0.10112 0.9814 0.60867 0.0
H396 H 0.13232 0.92391 0.54106 0.0
C397 C 0.15426 0.84891 0.60928 0.0
C398 C 0.12003 0.90732 0.62695 0.0
C399 C 0.17354 0.83293 0.6188 0.0
C400 C 0.08186 0.99876 0.57218 0.0
C401 C 0.09379 0.97829 0.58556 0.0
C402 C 0.12803 0.91914 0.56491 0.0
C403 C 0.15434 0.8748 0.62254 0.0
C404 C 0.13781 0.89371 0.60893 0.0
C405 C 0.09674 0.95447 0.56902 0.0
C406 C 0.11023 0.933 0.5828 0.0
H407 H 0.20772 0.8764 0.67315 0.0
H408 H 0.17336 0.90386 0.65702 0.0
H409 H 0.15554 0.88967 0.56357 0.0
H410 H 0.06903 0.96963 0.50204 0.0
H411 H 0.08871 0.93338 0.52557 0.0
C412 C 0.74132 0.37568 0.89141 0.0
C413 C 0.72091 0.39075 0.88175 0.0
C414 C 0.76677 0.38888 0.90534 0.0
C415 C 0.79992 0.45343 0.94584 0.0
H416 H 0.87121 0.42787 0.92868 0.0
C417 C 0.91172 0.51006 0.99021 0.0
C418 C 0.93082 0.49358 0.99993 0.0
C419 C 0.88584 0.49816 0.97605 0.0
C420 C 0.85145 0.43511 0.93404 0.0
H421 H 0.7116 0.43182 0.87934 0.0
H422 H 0.75628 0.45495 0.90306 0.0
H423 H 0.82723 0.40638 0.90303 0.0
H424 H 0.93715 0.45147 1.00278 0.0
H425 H 0.89213 0.43083 0.97848 0.0
H426 H 0.8243 0.48224 0.97682 0.0
C427 C 0.75238 0.43277 0.9002 0.0
C428 C 0.82614 0.42274 0.91928 0.0
C429 C 0.72687 0.41953 0.88623 0.0
C430 C 0.9231 0.46488 0.99555 0.0
C431 C 0.89731 0.45301 0.98136 0.0
C432 C 0.8253 0.46586 0.96057 0.0
C433 C 0.77271 0.41762 0.91 0.0
C434 C 0.79992 0.43155 0.92511 0.0
C435 C 0.87842 0.46948 0.97114 0.0
C436 C 0.85138 0.45673 0.95505 0.0
H437 H 0.73774 0.35356 0.88805 0.0
H438 H 0.78163 0.37641 0.91286 0.0
H439 H 0.78013 0.46058 0.95125 0.0
H440 H 0.91693 0.53225 0.99309 0.0
H441 H 0.872 0.51155 0.96829 0.0
C442 C 0.79941 0.6375 0.38961 0.0
C443 C 0.80375 0.6655 0.38157 0.0
C444 C 0.77347 0.62432 0.40396 0.0
C445 C 0.69677 0.62961 0.41683 0.0
H446 H 0.69971 0.58259 0.48617 0.0
C447 C 0.59273 0.56841 0.47625 0.0
C448 C 0.5919 0.56956 0.50819 0.0
C449 C 0.61864 0.57806 0.45988 0.0
C450 C 0.69851 0.59569 0.46687 0.0
H451 H 0.78385 0.70136 0.38171 0.0
H452 H 0.73875 0.67845 0.40676 0.0
H453 H 0.74452 0.60378 0.4592 0.0
H454 H 0.61772 0.58086 0.54803 0.0
H455 H 0.66294 0.59758 0.51954 0.0
H456 H 0.65085 0.62193 0.42478 0.0
C457 C 0.75536 0.66663 0.40194 0.0
C458 C 0.72418 0.60763 0.45123 0.0
C459 C 0.78134 0.67985 0.38783 0.0
C460 C 0.61768 0.57975 0.52343 0.0
C461 C 0.64362 0.5892 0.50708 0.0
C462 C 0.6711 0.6175 0.43231 0.0
C463 C 0.75113 0.63874 0.41036 0.0
C464 C 0.72368 0.62497 0.42618 0.0
C465 C 0.64437 0.58885 0.47508 0.0
C466 C 0.67164 0.60058 0.45771 0.0
H467 H 0.81629 0.6259 0.38531 0.0
H468 H 0.77085 0.60277 0.4099 0.0
H469 H 0.69554 0.64262 0.39746 0.0
H470 H 0.57322 0.56057 0.46387 0.0
H471 H 0.6185 0.57714 0.43528 0.0
C472 C 0.26446 0.29958 0.21702 0.0
C473 C 0.29391 0.30402 0.20826 0.0
C474 C 0.24574 0.31365 0.20286 0.0
C475 C 0.23409 0.35162 0.13493 0.0
H476 H 0.18553 0.38521 0.19013 0.0
C477 C 0.15734 0.42063 0.09287 0.0
C478 C 0.1299 0.4171 0.10734 0.0
C479 C 0.1788 0.40804 0.10439 0.0
C480 C 0.19867 0.37573 0.17435 0.0
H481 H 0.32646 0.32544 0.17649 0.0
H482 H 0.29334 0.35005 0.15125 0.0
H483 H 0.22007 0.36011 0.21048 0.0
H484 H 0.10333 0.39728 0.14495 0.0
H485 H 0.1405 0.37513 0.16486 0.0
H486 H 0.21218 0.36676 0.09874 0.0
C487 C 0.28498 0.33576 0.16937 0.0
C488 C 0.21853 0.36141 0.18604 0.0
C489 C 0.30388 0.32169 0.18374 0.0
C490 C 0.12442 0.4008 0.1336 0.0
C491 C 0.14577 0.38812 0.14502 0.0
C492 C 0.214 0.36582 0.12318 0.0
C493 C 0.2559 0.33237 0.17938 0.0
C494 C 0.23617 0.34888 0.16649 0.0
C495 C 0.17325 0.39156 0.13058 0.0
C496 C 0.19578 0.37775 0.14279 0.0
H497 H 0.25594 0.28549 0.23527 0.0
H498 H 0.22328 0.31009 0.21054 0.0
H499 H 0.24735 0.34205 0.11936 0.0
H500 H 0.16229 0.4333 0.07274 0.0
H501 H 0.19983 0.41145 0.09295 0.0
C502 C 0.60883 0.29838 0.87532 0.0
C503 C 0.63898 0.30801 0.87684 0.0
C504 C 0.5956 0.27244 0.88695 0.0
C505 C 0.61295 0.20641 0.9176 0.0
H506 H 0.53306 0.19507 0.94581 0.0
C507 C 0.55277 0.0995 0.96286 0.0
C508 C 0.52918 0.09834 0.98326 0.0
C509 C 0.56624 0.12461 0.94943 0.0
C510 C 0.55558 0.19779 0.93869 0.0
H511 H 0.67865 0.29657 0.89137 0.0
H512 H 0.65567 0.25324 0.91373 0.0
H513 H 0.55603 0.23903 0.92478 0.0
H514 H 0.50207 0.12262 1.00684 0.0
H515 H 0.52658 0.16644 0.98556 0.0
H516 H 0.61317 0.16592 0.93369 0.0
C517 C 0.64205 0.26509 0.90264 0.0
C518 C 0.56872 0.22315 0.92576 0.0
C519 C 0.65533 0.29061 0.89029 0.0
C520 C 0.51999 0.12286 0.99083 0.0
C521 C 0.53397 0.14806 0.97821 0.0
C522 C 0.60005 0.18132 0.93132 0.0
C523 C 0.6119 0.25541 0.90122 0.0
C524 C 0.59767 0.22799 0.91486 0.0
C525 C 0.55703 0.14942 0.95677 0.0
C526 C 0.57106 0.17644 0.94211 0.0
H527 H 0.59516 0.31097 0.86555 0.0
H528 H 0.57248 0.26587 0.88455 0.0
H529 H 0.635 0.20863 0.90903 0.0
H530 H 0.5602 0.08084 0.95649 0.0
H531 H 0.58345 0.12425 0.93277 0.0
C532 C 0.91415 0.75759 0.37874 0.0
C533 C 0.8841 0.74906 0.37501 0.0
C534 C 0.92571 0.78368 0.39102 0.0
C535 C 0.905 0.83783 0.44036 0.0
H536 H 0.97527 0.88448 0.40842 0.0
C537 C 0.96436 0.93457 0.50474 0.0
C538 C 0.97472 0.95861 0.48769 0.0
C539 C 0.95341 0.90943 0.4903 0.0
C540 C 0.95553 0.87175 0.41752 0.0
H541 H 0.843 0.76226 0.37988 0.0
H542 H 0.86304 0.8072 0.4016 0.0
H543 H 0.95635 0.84008 0.38395 0.0
H544 H 0.98172 0.97483 0.4419 0.0
H545 H 0.96271 0.93086 0.4167 0.0
H546 H 0.90411 0.86935 0.47391 0.0
C547 C 0.87764 0.79357 0.39553 0.0
C548 C 0.94484 0.84619 0.40366 0.0
C549 C 0.86614 0.76769 0.38308 0.0
C550 C 0.97383 0.95679 0.45577 0.0
C551 C 0.96314 0.93153 0.4413 0.0
C552 C 0.91583 0.86319 0.45438 0.0
C553 C 0.90752 0.80182 0.40004 0.0
C554 C 0.91935 0.82894 0.41483 0.0
C555 C 0.95276 0.90751 0.45839 0.0
C556 C 0.94121 0.88055 0.44315 0.0
H557 H 0.92868 0.74381 0.37307 0.0
H558 H 0.94883 0.7893 0.39433 0.0
H559 H 0.88548 0.82498 0.44979 0.0
H560 H 0.96474 0.93509 0.52935 0.0
H561 H 0.94589 0.89134 0.50419 0.0
C562 C 0.26579 0.76876 0.59379 0.0
C563 C 0.27176 0.79656 0.60239 0.0
C564 C 0.28423 0.75879 0.57313 0.0
C565 C 0.36066 0.77253 0.55493 0.0
H566 H 0.33872 0.70813 0.50341 0.0
C567 C 0.43943 0.70062 0.53332 0.0
C568 C 0.4268 0.67329 0.54108 0.0
C569 C 0.42202 0.71963 0.52742 0.0
C570 C 0.34526 0.72629 0.51747 0.0
H571 H 0.30002 0.83628 0.5954 0.0
H572 H 0.3325 0.8189 0.55906 0.0
H573 H 0.30298 0.73595 0.51731 0.0
H574 H 0.3861 0.64417 0.54737 0.0
H575 H 0.35592 0.67714 0.53748 0.0
H576 H 0.40216 0.76188 0.55713 0.0
C577 C 0.31371 0.80477 0.5682 0.0
C578 C 0.32483 0.7422 0.52537 0.0
C579 C 0.29522 0.81471 0.58885 0.0
C580 C 0.39653 0.66498 0.54114 0.0
C581 C 0.37919 0.68392 0.53527 0.0
C582 C 0.38102 0.7566 0.54714 0.0
C583 C 0.30899 0.77651 0.56099 0.0
C584 C 0.33195 0.76461 0.54549 0.0
C585 C 0.39169 0.71164 0.52924 0.0
C586 C 0.37306 0.73246 0.52971 0.0
H587 H 0.24779 0.75453 0.60426 0.0
H588 H 0.28021 0.73685 0.56843 0.0
H589 H 0.36682 0.78956 0.57064 0.0
H590 H 0.46274 0.70746 0.53253 0.0
H591 H 0.43228 0.74079 0.52251 0.0
C592 C 0.74749 0.77963 0.78619 0.0
C593 C 0.71809 0.78139 0.78762 0.0
C594 C 0.76485 0.78921 0.76093 0.0
C595 C 0.77226 0.84122 0.7022 0.0
H596 H 0.83649 0.8077 0.67595 0.0
C597 C 0.8672 0.89992 0.62817 0.0
C598 C 0.89435 0.90041 0.64094 0.0
C599 C 0.84267 0.88118 0.63847 0.0
C600 C 0.81856 0.81722 0.68289 0.0
H601 H 0.68376 0.79401 0.76296 0.0
H602 H 0.71452 0.81134 0.7187 0.0
H603 H 0.79728 0.78144 0.70743 0.0
H604 H 0.91702 0.88085 0.67389 0.0
H605 H 0.87442 0.84798 0.69142 0.0
H606 H 0.79417 0.8774 0.6787 0.0
C607 C 0.72391 0.80235 0.73733 0.0
C608 C 0.79612 0.80222 0.70088 0.0
C609 C 0.70635 0.7925 0.76268 0.0
C610 C 0.8966 0.88085 0.66321 0.0
C611 C 0.87214 0.86198 0.67329 0.0
C612 C 0.79466 0.85619 0.68407 0.0
C613 C 0.75345 0.80109 0.73642 0.0
C614 C 0.77337 0.81447 0.71181 0.0
C615 C 0.84483 0.86232 0.66149 0.0
C616 C 0.81859 0.84471 0.67528 0.0
H617 H 0.75763 0.77203 0.80523 0.0
H618 H 0.78766 0.78856 0.76136 0.0
H619 H 0.75516 0.85132 0.71042 0.0
H620 H 0.86479 0.91432 0.61051 0.0
H621 H 0.82192 0.88171 0.62877 0.0
C622 C 0.73345 0.22394 0.36144 0.0
C623 C 0.71808 0.22222 0.38939 0.0
C624 C 0.71877 0.21936 0.33419 0.0
C625 C 0.64939 0.18292 0.30463 0.0
H626 H 0.68037 0.21901 0.22955 0.0
C627 C 0.60048 0.14884 0.18822 0.0
C628 C 0.62101 0.14323 0.16649 0.0
C629 C 0.60938 0.16332 0.21487 0.0
C630 C 0.67143 0.20885 0.25038 0.0
H631 H 0.67518 0.21525 0.41058 0.0
H632 H 0.6495 0.20792 0.36289 0.0
H633 H 0.70112 0.23634 0.27791 0.0
H634 H 0.66703 0.14899 0.15564 0.0
H635 H 0.68238 0.17464 0.20171 0.0
H636 H 0.62009 0.15511 0.27697 0.0
C637 C 0.67295 0.21239 0.36211 0.0
C638 C 0.68334 0.21868 0.27804 0.0
C639 C 0.68766 0.21688 0.38942 0.0
C640 C 0.65057 0.15332 0.17155 0.0
C641 C 0.65941 0.168 0.198 0.0
C642 C 0.63734 0.17323 0.27698 0.0
C643 C 0.68835 0.21309 0.33421 0.0
C644 C 0.67302 0.20533 0.3054 0.0
C645 C 0.63895 0.17275 0.22015 0.0
C646 C 0.64878 0.18562 0.24954 0.0
H647 H 0.7569 0.22844 0.36064 0.0
H648 H 0.73136 0.21974 0.31319 0.0
H649 H 0.64112 0.17192 0.3252 0.0
H650 H 0.57752 0.14183 0.1848 0.0
H651 H 0.59316 0.16691 0.2315 0.0
C652 C 0.36834 0.66621 0.28576 0.0
C653 C 0.38664 0.68071 0.26295 0.0
C654 C 0.37965 0.65359 0.30976 0.0
C655 C 0.44562 0.6285 0.33234 0.0
H656 H 0.40933 0.62583 0.41266 0.0
C657 C 0.47731 0.56158 0.42851 0.0
C658 C 0.47778 0.57176 0.45851 0.0
C659 C 0.46624 0.57505 0.405 0.0
C660 C 0.41998 0.62655 0.39049 0.0
H661 H 0.43153 0.69319 0.24801 0.0
H662 H 0.45127 0.67193 0.29019 0.0
H663 H 0.3909 0.64977 0.37186 0.0
H664 H 0.46711 0.60446 0.487 0.0
H665 H 0.44821 0.62807 0.4462 0.0
H666 H 0.47519 0.60593 0.35116 0.0
C667 C 0.42802 0.66989 0.28926 0.0
C668 C 0.4091 0.64003 0.36685 0.0
C669 C 0.41669 0.68247 0.26518 0.0
C670 C 0.46683 0.59579 0.46432 0.0
C671 C 0.45586 0.60933 0.4408 0.0
C672 C 0.45655 0.61509 0.356 0.0
C673 C 0.40967 0.65512 0.31188 0.0
C674 C 0.42167 0.64116 0.33734 0.0
C675 C 0.45542 0.59922 0.41071 0.0
C676 C 0.44386 0.6138 0.38546 0.0
H677 H 0.34514 0.66466 0.28521 0.0
H678 H 0.36469 0.64222 0.32641 0.0
H679 H 0.45577 0.62856 0.30997 0.0
H680 H 0.48543 0.54308 0.42312 0.0
H681 H 0.46588 0.56626 0.38235 0.0
C682 C 0.16114 0.40784 0.79182 0.0
C683 C 0.14467 0.39843 0.76624 0.0
C684 C 0.14919 0.42085 0.81604 0.0
C685 C 0.0958 0.46292 0.83384 0.0
H686 H 0.0994 0.43969 0.91737 0.0
C687 C 0.07229 0.52839 0.93861 0.0
C688 C 0.0519 0.51472 0.96008 0.0
C689 C 0.08322 0.51368 0.91517 0.0
C690 C 0.09823 0.44637 0.89415 0.0
H691 H 0.10285 0.39547 0.74593 0.0
H692 H 0.08222 0.41896 0.78791 0.0
H693 H 0.1192 0.41474 0.87602 0.0
H694 H 0.02697 0.4748 0.97366 0.0
H695 H 0.04708 0.44895 0.93348 0.0
H696 H 0.07555 0.49499 0.85198 0.0
C697 C 0.10425 0.41591 0.78934 0.0
C698 C 0.10966 0.43219 0.87053 0.0
C699 C 0.11599 0.40234 0.76542 0.0
C700 C 0.04296 0.48591 0.95777 0.0
C701 C 0.0544 0.47111 0.93473 0.0
C702 C 0.08498 0.47747 0.85749 0.0
C703 C 0.12072 0.42532 0.81493 0.0
C704 C 0.10847 0.44024 0.84009 0.0
C705 C 0.07446 0.48487 0.913 0.0
C706 C 0.08599 0.46932 0.88791 0.0
H707 H 0.18328 0.40506 0.79309 0.0
H708 H 0.16244 0.42799 0.83538 0.0
H709 H 0.09472 0.46969 0.81063 0.0
H710 H 0.07956 0.55057 0.93967 0.0
H711 H 0.09875 0.52482 0.89885 0.0
C712 C 0.63119 0.81313 0.85674 0.0
C713 C 0.65498 0.80681 0.87161 0.0
C714 C 0.61657 0.8329 0.86887 0.0
C715 C 0.60914 0.87341 0.93996 0.0
H716 H 0.57864 0.92094 0.8853 0.0
C717 C 0.58033 0.97648 0.97724 0.0
C718 C 0.55134 0.97834 0.97309 0.0
C719 C 0.59162 0.95524 0.96353 0.0
C720 C 0.58693 0.90766 0.90074 0.0
H721 H 0.68258 0.81644 0.91036 0.0
H722 H 0.65804 0.85162 0.93094 0.0
H723 H 0.60098 0.88406 0.86444 0.0
H724 H 0.5118 0.96008 0.95032 0.0
H725 H 0.53208 0.92332 0.9254 0.0
H726 H 0.59624 0.89805 0.9761 0.0
C727 C 0.64973 0.84071 0.91058 0.0
C728 C 0.59957 0.88639 0.88889 0.0
C729 C 0.66396 0.82061 0.89875 0.0
C730 C 0.53421 0.95915 0.95393 0.0
C731 C 0.54576 0.93819 0.93967 0.0
C732 C 0.59707 0.89498 0.9517 0.0
C733 C 0.62581 0.84717 0.89585 0.0
C734 C 0.61108 0.86907 0.90835 0.0
C735 C 0.57437 0.93577 0.94492 0.0
C736 C 0.58604 0.91237 0.9322 0.0
H737 H 0.62384 0.80266 0.83578 0.0
H738 H 0.59798 0.83687 0.8571 0.0
H739 H 0.61698 0.86016 0.95578 0.0
H740 H 0.59404 0.99082 0.99201 0.0
H741 H 0.61381 0.95382 0.96773 0.0
C742 C 0.82307 0.21344 0.46306 0.0
C743 C 0.79628 0.19934 0.45266 0.0
C744 C 0.84519 0.19918 0.46814 0.0
C745 C 0.86635 0.13096 0.45587 0.0
H746 H 0.9099 0.15202 0.52875 0.0
C747 C 0.94894 0.06923 0.4989 0.0
C748 C 0.94984 0.06623 0.53051 0.0
C749 C 0.93309 0.08729 0.48663 0.0
C750 C 0.89776 0.14571 0.50845 0.0
H751 H 0.77136 0.15968 0.43904 0.0
H752 H 0.80934 0.13446 0.44915 0.0
H753 H 0.87685 0.18003 0.51173 0.0
H754 H 0.93439 0.0789 0.57414 0.0
H755 H 0.90563 0.10934 0.5529 0.0
H756 H 0.88577 0.09552 0.45391 0.0
C757 C 0.8139 0.1566 0.45242 0.0
C758 C 0.87916 0.1621 0.49833 0.0
C759 C 0.79202 0.17095 0.44683 0.0
C760 C 0.9342 0.08103 0.54966 0.0
C761 C 0.918 0.09872 0.53745 0.0
C762 C 0.88461 0.11429 0.4663 0.0
C763 C 0.84065 0.17046 0.46351 0.0
C764 C 0.8628 0.15466 0.47222 0.0
C765 C 0.91746 0.1023 0.5058 0.0
C766 C 0.90009 0.12119 0.49307 0.0
H767 H 0.82682 0.23544 0.46738 0.0
H768 H 0.86569 0.21063 0.47607 0.0
H769 H 0.85455 0.1249 0.43531 0.0
H770 H 0.96077 0.05788 0.48366 0.0
H771 H 0.93337 0.08971 0.46219 0.0
C772 C 0.28771 0.69154 0.17659 0.0
C773 C 0.30863 0.67673 0.18549 0.0
C774 C 0.26213 0.67812 0.16306 0.0
C775 C 0.22927 0.61337 0.12256 0.0
H776 H 0.15769 0.63817 0.1405 0.0
C777 C 0.1173 0.55549 0.0799 0.0
C778 C 0.09817 0.57176 0.06976 0.0
C779 C 0.14319 0.56768 0.09388 0.0
C780 C 0.17753 0.63114 0.13497 0.0
H781 H 0.31866 0.63589 0.187 0.0
H782 H 0.27374 0.61239 0.16414 0.0
H783 H 0.20179 0.66012 0.16569 0.0
H784 H 0.09172 0.61379 0.06612 0.0
H785 H 0.1367 0.6349 0.09025 0.0
H786 H 0.20479 0.58423 0.09195 0.0
C787 C 0.27734 0.63454 0.16722 0.0
C788 C 0.20292 0.64377 0.14943 0.0
C789 C 0.30301 0.64799 0.18073 0.0
C790 C 0.10581 0.60054 0.07364 0.0
C791 C 0.13157 0.61268 0.08773 0.0
C792 C 0.20381 0.60063 0.10818 0.0
C793 C 0.25654 0.64942 0.15809 0.0
C794 C 0.22924 0.63524 0.1433 0.0
C795 C 0.15054 0.59643 0.09825 0.0
C796 C 0.17763 0.60949 0.11401 0.0
H797 H 0.29101 0.71361 0.18022 0.0
H798 H 0.2469 0.69042 0.15606 0.0
H799 H 0.24912 0.60642 0.11688 0.0
H800 H 0.11217 0.53327 0.07738 0.0
H801 H 0.15713 0.55449 0.10189 0.0
C802 C 0.24701 0.41592 0.70228 0.0
C803 C 0.22325 0.40251 0.68546 0.0
C804 C 0.27293 0.42872 0.68752 0.0
C805 C 0.31328 0.42781 0.61392 0.0
H806 H 0.3589 0.49716 0.64197 0.0
C807 C 0.41057 0.48583 0.54297 0.0
C808 C 0.43581 0.49754 0.55838 0.0
C809 C 0.38466 0.47576 0.55906 0.0
C810 C 0.34657 0.47765 0.63401 0.0
H811 H 0.20782 0.39329 0.63979 0.0
H812 H 0.25267 0.41554 0.61419 0.0
H813 H 0.31383 0.47676 0.66904 0.0
H814 H 0.45349 0.50868 0.60275 0.0
H815 H 0.40824 0.49089 0.63099 0.0
H816 H 0.34588 0.42854 0.57902 0.0
C817 C 0.25165 0.41563 0.63881 0.0
C818 C 0.32071 0.46593 0.64956 0.0
C819 C 0.22585 0.40285 0.65352 0.0
C820 C 0.43438 0.49974 0.59025 0.0
C821 C 0.4084 0.48963 0.6064 0.0
C822 C 0.33904 0.4395 0.59843 0.0
C823 C 0.2757 0.42845 0.65556 0.0
C824 C 0.3036 0.44092 0.63958 0.0
C825 C 0.38329 0.47709 0.59103 0.0
C826 C 0.35599 0.46467 0.60808 0.0
H827 H 0.24586 0.41589 0.7269 0.0
H828 H 0.29104 0.43818 0.70119 0.0
H829 H 0.3011 0.40824 0.60594 0.0
H830 H 0.41091 0.48405 0.5184 0.0
H831 H 0.36568 0.46679 0.54637 0.0
C832 C 0.72111 0.7383 0.91027 0.0
C833 C 0.70678 0.72869 0.88352 0.0
C834 C 0.73761 0.72221 0.9251 0.0
C835 C 0.77815 0.66767 0.90631 0.0
H836 H 0.79456 0.67271 0.99229 0.0
C837 C 0.8647 0.61563 0.95831 0.0
C838 C 0.88447 0.63287 0.97699 0.0
C839 C 0.8394 0.62367 0.94939 0.0
C840 C 0.79016 0.67112 0.96823 0.0
H841 H 0.69633 0.69393 0.85274 0.0
H842 H 0.72431 0.66535 0.8792 0.0
H843 H 0.75476 0.69207 0.97327 0.0
H844 H 0.8929 0.67213 1.00093 0.0
H845 H 0.84863 0.68586 0.98575 0.0
H846 H 0.81377 0.64704 0.90126 0.0
C847 C 0.72362 0.68564 0.88823 0.0
C848 C 0.76741 0.68224 0.9573 0.0
C849 C 0.70738 0.70187 0.87322 0.0
C850 C 0.87799 0.65809 0.98699 0.0
C851 C 0.8526 0.666 0.97828 0.0
C852 C 0.8007 0.65636 0.91728 0.0
C853 C 0.73992 0.69606 0.91363 0.0
C854 C 0.76149 0.68117 0.92609 0.0
C855 C 0.83317 0.64901 0.95917 0.0
C856 C 0.80733 0.65847 0.94824 0.0
H857 H 0.72132 0.75905 0.91848 0.0
H858 H 0.75004 0.73109 0.94438 0.0
H859 H 0.77469 0.66689 0.88206 0.0
H860 H 0.86871 0.59585 0.95062 0.0
H861 H 0.82468 0.61004 0.93487 0.0
C862 C 0.40477 0.78034 0.20642 0.0
C863 C 0.39156 0.75862 0.18741 0.0
C864 C 0.41753 0.80621 0.19429 0.0
C865 C 0.41688 0.85038 0.12655 0.0
H866 H 0.49065 0.88989 0.15557 0.0
C867 C 0.46886 0.96251 0.08838 0.0
C868 C 0.49874 0.96766 0.08154 0.0
C869 C 0.45505 0.93751 0.10187 0.0
C870 C 0.47006 0.87912 0.14712 0.0
H871 H 0.38255 0.74724 0.14034 0.0
H872 H 0.40434 0.7922 0.11944 0.0
H873 H 0.46848 0.84538 0.17773 0.0
H874 H 0.5375 0.95054 0.08345 0.0
H875 H 0.51363 0.90731 0.10703 0.0
H876 H 0.41865 0.88402 0.09567 0.0
C877 C 0.40442 0.78938 0.14382 0.0
C878 C 0.4572 0.85367 0.16006 0.0
C879 C 0.39187 0.76351 0.15588 0.0
C880 C 0.51447 0.94732 0.08855 0.0
C881 C 0.50079 0.92254 0.10224 0.0
C882 C 0.42962 0.87597 0.11379 0.0
C883 C 0.41731 0.81116 0.16283 0.0
C884 C 0.43055 0.8388 0.14977 0.0
C885 C 0.4709 0.91724 0.10914 0.0
C886 C 0.45654 0.89058 0.12369 0.0
H887 H 0.4047 0.77759 0.23081 0.0
H888 H 0.42704 0.82254 0.20968 0.0
H889 H 0.39619 0.8397 0.11826 0.0
H890 H 0.45616 0.97781 0.08341 0.0
H891 H 0.43204 0.93423 0.10705 0.0
C892 C 0.13965 0.31618 0.6588 0.0
C893 C 0.14121 0.3204 0.69043 0.0
C894 C 0.12834 0.29012 0.64668 0.0
C895 C 0.08415 0.22076 0.66579 0.0
H896 H 0.12235 0.19885 0.59315 0.0
C897 C 0.05584 0.10965 0.6148 0.0
C898 C 0.05373 0.10769 0.58298 0.0
C899 C 0.06671 0.13508 0.62889 0.0
C900 C 0.11123 0.20468 0.61329 0.0
H901 H 0.13143 0.30041 0.73412 0.0
H902 H 0.11185 0.25478 0.71301 0.0
H903 H 0.14001 0.24393 0.61578 0.0
H904 H 0.06188 0.13107 0.54106 0.0
H905 H 0.08073 0.17505 0.56548 0.0
H906 H 0.05546 0.18127 0.66323 0.0
C907 C 0.11911 0.27176 0.69751 0.0
C908 C 0.12133 0.23065 0.62628 0.0
C909 C 0.13034 0.29796 0.70966 0.0
C910 C 0.06315 0.1317 0.56562 0.0
C911 C 0.07416 0.15699 0.57964 0.0
C912 C 0.0741 0.19467 0.65282 0.0
C913 C 0.11834 0.26737 0.66581 0.0
C914 C 0.1078 0.23924 0.65256 0.0
C915 C 0.07599 0.15911 0.61148 0.0
C916 C 0.08735 0.18638 0.62622 0.0
H917 H 0.1473 0.3331 0.6433 0.0
H918 H 0.12745 0.28783 0.6222 0.0
H919 H 0.07295 0.22666 0.68582 0.0
H920 H 0.04875 0.09162 0.6289 0.0
H921 H 0.06807 0.13587 0.65342 0.0
C922 C 0.73698 0.28364 0.49975 0.0
C923 C 0.72841 0.25504 0.49678 0.0
C924 C 0.72294 0.29785 0.52097 0.0
C925 C 0.65031 0.29157 0.55083 0.0
H926 H 0.68261 0.36359 0.5842 0.0
C927 C 0.58101 0.37264 0.5577 0.0
C928 C 0.59465 0.39627 0.54157 0.0
C929 C 0.59729 0.35423 0.56848 0.0
C930 C 0.6732 0.34336 0.57539 0.0
H931 H 0.70028 0.21828 0.5144 0.0
H932 H 0.67546 0.24313 0.55175 0.0
H933 H 0.71415 0.33089 0.57353 0.0
H934 H 0.63606 0.42067 0.52681 0.0
H935 H 0.6643 0.38836 0.54459 0.0
H936 H 0.60998 0.30464 0.55012 0.0
C937 C 0.69295 0.25464 0.53778 0.0
C938 C 0.69123 0.32466 0.56933 0.0
C939 C 0.70706 0.24045 0.51654 0.0
C940 C 0.62494 0.40227 0.53853 0.0
C941 C 0.64117 0.38395 0.54927 0.0
C942 C 0.63234 0.31026 0.55677 0.0
C943 C 0.69996 0.2836 0.53935 0.0
C944 C 0.68026 0.29927 0.5552 0.0
C945 C 0.62745 0.3592 0.56333 0.0
C946 C 0.64397 0.337 0.56724 0.0
H947 H 0.75338 0.29512 0.48449 0.0
H948 H 0.72859 0.32016 0.52123 0.0
H949 H 0.64113 0.27222 0.53985 0.0
H950 H 0.55767 0.36762 0.56054 0.0
H951 H 0.58614 0.33547 0.57949 0.0
loop_
_geom_bond_atom_site_label_1
_geom_bond_atom_site_label_2
_geom_bond_distance
_geom_bond_site_symmetry_2
_ccdc_geom_bond_type
H0 C3 0.931 . S
H1 C6 0.928 . S
H2 C8 0.930 . S
C3 H0 0.931 . S
C3 C4 1.413 . S
C3 C5 1.360 . S
C4 C3 1.413 . S
C4 C8 1.429 . S
C5 C3 1.360 . S
C5 C6 1.372 . S
C6 H1 0.928 . S
C6 C5 1.372 . S
C6 C7 1.404 . S
C7 C6 1.404 . S
C7 C8 1.391 . S
C8 H2 0.930 . S
C8 C4 1.429 . S
C8 C7 1.391 . S
H9 C12 0.931 . S
H10 C15 0.928 . S
H11 C17 0.930 . S
C12 H9 0.931 . S
C12 C13 1.413 . S
C12 C14 1.360 . S
C13 C12 1.413 . S
C13 C17 1.429 . S
C14 C12 1.360 . S
C14 C15 1.372 . S
C15 H10 0.928 . S
C15 C14 1.372 . S
C15 C16 1.404 . S
C16 C15 1.404 . S
C16 C17 1.391 . S
C17 H11 0.930 . S
C17 C13 1.429 . S
C17 C16 1.391 . S
H18 C21 0.931 . S
H19 C24 0.928 . S
H20 C26 0.930 . S
C21 H18 0.931 . S
C21 C22 1.413 . S
C21 C23 1.360 . S
C22 C21 1.413 . S
C22 C26 1.429 . S
C23 C21 1.360 . S
C23 C24 1.372 . S
C24 H19 0.928 . S
C24 C23 1.372 . S
C24 C25 1.404 . S
C25 C24 1.404 . S
C25 C26 1.391 . S
C26 H20 0.930 . S
C26 C22 1.429 . S
C26 C25 1.391 . S
H27 C30 0.931 . S
H28 C33 0.928 . S
H29 C35 0.930 . S
C30 H27 0.931 . S
C30 C31 1.413 . S
C30 C32 1.360 . S
C31 C30 1.413 . S
C31 C35 1.429 . S
C32 C30 1.360 . S
C32 C33 1.372 . S
C33 H28 0.928 . S
C33 C32 1.372 . S
C33 C34 1.404 . S
C34 C33 1.404 . S
C34 C35 1.391 . S
C35 H29 0.930 . S
C35 C31 1.429 . S
C35 C34 1.391 . S
H36 C39 0.931 . S
H37 C42 0.928 . S
H38 C44 0.930 . S
C39 H36 0.931 . S
C39 C40 1.413 . S
C39 C41 1.360 . S
C40 C39 1.413 . S
C40 C44 1.429 . S
C41 C39 1.360 . S
C41 C42 1.372 . S
C42 H37 0.928 . S
C42 C41 1.372 . S
C42 C43 1.404 . S
C43 C42 1.404 . S
C43 C44 1.391 . S
C44 H38 0.930 . S
C44 C40 1.429 . S
C44 C43 1.391 . S
H45 C48 0.931 . S
H46 C51 0.928 . S
H47 C53 0.930 . S
C48 H45 0.931 . S
C48 C49 1.413 . S
C48 C50 1.360 . S
C49 C48 1.413 . S
C49 C53 1.429 . S
C50 C48 1.360 . S
C50 C51 1.372 . S
C51 H46 0.928 . S
C51 C50 1.372 . S
C51 C52 1.404 . S
C52 C51 1.404 . S
C52 C53 1.391 . S
C53 H47 0.930 . S
C53 C49 1.429 . S
C53 C52 1.391 . S
H54 C57 0.931 . S
H55 C60 0.928 . S
H56 C62 0.930 . S
C57 H54 0.931 . S
C57 C58 1.413 . S
C57 C59 1.360 . S
C58 C57 1.413 . S
C58 C62 1.429 . S
C59 C57 1.360 . S
C59 C60 1.372 . S
C60 H55 0.928 . S
C60 C59 1.372 . S
C60 C61 1.404 . S
C61 C60 1.404 . S
C61 C62 1.391 . S
C62 H56 0.930 . S
C62 C58 1.429 . S
C62 C61 1.391 . S
H63 C66 0.931 . S
H64 C69 0.928 . S
H65 C71 0.930 . S
C66 H63 0.931 . S
C66 C67 1.413 . S
C66 C68 1.360 . S
C67 C66 1.413 . S
C67 C71 1.429 . S
C68 C66 1.360 . S
C68 C69 1.372 . S
C69 H64 0.928 . S
C69 C68 1.372 . S
C69 C70 1.404 . S
C70 C69 1.404 . S
C70 C71 1.391 . S
C71 H65 0.930 . S
C71 C67 1.429 . S
C71 C70 1.391 . S
Gd72 C75 2.818 . S
Gd72 O92 2.377 . S
Gd72 O94 2.448 . S
Gd72 O95 2.506 . S
Gd72 O96 2.435 1_545 S
Gd72 O97 2.717 1_545 S
Gd72 O99 2.395 1_445 S
Gd72 O103 2.327 1_455 S
Gd73 C84 2.818 . S
Gd73 O93 2.395 1_665 S
Gd73 O97 2.327 1_655 S
Gd73 O98 2.377 . S
Gd73 O100 2.448 . S
Gd73 O101 2.506 . S
Gd73 O102 2.435 1_565 S
Gd73 O103 2.717 1_565 S
C74 O92 1.240 . S
C74 O93 1.240 . S
C75 Gd72 2.818 . S
C75 C76 1.510 . S
C75 O94 1.249 . S
C75 O95 1.252 . S
C76 C75 1.510 . S
C76 C77 1.404 . S
C76 C78 1.352 . S
C77 C76 1.404 . S
C77 C81 1.389 . S
C77 H104 0.930 . S
C78 C76 1.352 . S
C78 C80 1.374 . S
C78 H105 0.931 . S
C79 C80 1.359 . S
C79 C81 1.364 . S
C80 C78 1.374 . S
C80 C79 1.359 . S
C80 H106 0.931 . S
C81 C77 1.389 . S
C81 C79 1.364 . S
C81 H107 0.931 . S
C82 O96 1.256 . S
C82 O97 1.257 . S
C83 O98 1.240 . S
C83 O99 1.240 . S
C84 Gd73 2.818 . S
C84 C85 1.510 . S
C84 O100 1.249 . S
C84 O101 1.252 . S
C85 C84 1.510 . S
C85 C86 1.404 . S
C85 C87 1.352 . S
C86 C85 1.404 . S
C86 C90 1.389 . S
C86 H108 0.930 . S
C87 C85 1.352 . S
C87 C89 1.374 . S
C87 H109 0.931 . S
C88 C89 1.359 . S
C88 C90 1.364 . S
C89 C87 1.374 . S
C89 C88 1.359 . S
C89 H110 0.931 . S
C90 C86 1.389 . S
C90 C88 1.364 . S
C90 H111 0.931 . S
C91 O102 1.256 . S
C91 O103 1.257 . S
O92 Gd72 2.377 . S
O92 C74 1.240 . S
O93 Gd73 2.395 1_445 S
O93 C74 1.240 . S
O94 Gd72 2.448 . S
O94 C75 1.249 . S
O95 Gd72 2.506 . S
O95 C75 1.252 . S
O96 Gd72 2.435 1_565 S
O96 C82 1.256 . S
O97 Gd72 2.717 1_565 S
O97 Gd73 2.327 1_455 S
O97 C82 1.257 . S
O98 Gd73 2.377 . S
O98 C83 1.240 . S
O99 Gd72 2.395 1_665 S
O99 C83 1.240 . S
O100 Gd73 2.448 . S
O100 C84 1.249 . S
O101 Gd73 2.506 . S
O101 C84 1.252 . S
O102 Gd73 2.435 1_545 S
O102 C91 1.256 . S
O103 Gd72 2.327 1_655 S
O103 Gd73 2.717 1_545 S
O103 C91 1.257 . S
H104 C77 0.930 . S
H105 C78 0.931 . S
H106 C80 0.931 . S
H107 C81 0.931 . S
H108 C86 0.930 . S
H109 C87 0.931 . S
H110 C89 0.931 . S
H111 C90 0.931 . S
Gd112 C115 2.817 1_565 S
Gd112 O132 2.376 1_565 S
Gd112 O134 2.448 1_565 S
Gd112 O135 2.504 1_565 S
Gd112 O136 2.437 . S
Gd112 O137 2.718 . S
Gd112 O139 2.397 1_554 S
Gd112 O143 2.326 1_564 S
Gd113 C124 2.818 1_545 S
Gd113 O133 2.395 1_556 S
Gd113 O137 2.327 1_546 S
Gd113 O138 2.377 1_545 S
Gd113 O140 2.448 1_545 S
Gd113 O141 2.506 1_545 S
Gd113 O142 2.435 . S
Gd113 O143 2.717 . S
C114 O132 1.240 . S
C114 O133 1.240 . S
C115 Gd112 2.817 1_545 S
C115 C116 1.510 . S
C115 O134 1.249 . S
C115 O135 1.252 . S
C116 C115 1.510 . S
C116 C117 1.404 . S
C116 C118 1.352 . S
C117 C116 1.404 . S
C117 C121 1.389 . S
C117 H144 0.930 . S
C118 C116 1.352 . S
C118 C120 1.374 . S
C118 H145 0.931 . S
C119 C120 1.359 . S
C119 C121 1.364 . S
C120 C118 1.374 . S
C120 C119 1.359 . S
C120 H146 0.931 . S
C121 C117 1.389 . S
C121 C119 1.364 . S
C121 H147 0.931 . S
C122 O136 1.256 . S
C122 O137 1.257 . S
C123 O138 1.240 . S
C123 O139 1.240 . S
C124 Gd113 2.818 1_565 S
C124 C125 1.510 . S
C124 O140 1.249 . S
C124 O141 1.252 . S
C125 C124 1.510 . S
C125 C126 1.404 . S
C125 C127 1.352 . S
C126 C125 1.404 . S
C126 C130 1.389 . S
C126 H148 0.930 . S
C127 C125 1.352 . S
C127 C129 1.374 . S
C127 H149 0.931 . S
C128 C129 1.359 . S
C128 C130 1.364 . S
C129 C127 1.374 . S
C129 C128 1.359 . S
C129 H150 0.931 . S
C130 C126 1.389 . S
C130 C128 1.364 . S
C130 H151 0.931 . S
C131 O142 1.256 . S
C131 O143 1.257 . S
O132 Gd112 2.376 1_545 S
O132 C114 1.240 . S
O133 Gd113 2.395 1_554 S
O133 C114 1.240 . S
O134 Gd112 2.448 1_545 S
O134 C115 1.249 . S
O135 Gd112 2.504 1_545 S
O135 C115 1.252 . S
O136 Gd112 2.437 . S
O136 C122 1.256 . S
O137 Gd112 2.718 . S
O137 Gd113 2.327 1_564 S
O137 C122 1.257 . S
O138 Gd113 2.377 1_565 S
O138 C123 1.240 . S
O139 Gd112 2.397 1_556 S
O139 C123 1.240 . S
O140 Gd113 2.448 1_565 S
O140 C124 1.249 . S
O141 Gd113 2.506 1_565 S
O141 C124 1.252 . S
O142 Gd113 2.435 . S
O142 C131 1.256 . S
O143 Gd112 2.326 1_546 S
O143 Gd113 2.717 . S
O143 C131 1.257 . S
H144 C117 0.930 . S
H145 C118 0.931 . S
H146 C120 0.931 . S
H147 C121 0.931 . S
H148 C126 0.930 . S
H149 C127 0.931 . S
H150 C129 0.931 . S
H151 C130 0.931 . S
Gd152 C155 2.818 . S
Gd152 O172 2.377 . S
Gd152 O174 2.448 . S
Gd152 O175 2.506 . S
Gd152 O176 2.435 . S
Gd152 O177 2.717 . S
Gd152 O179 2.395 . S
Gd152 O183 2.327 . S
Gd153 C164 2.818 . S
Gd153 O173 2.395 . S
Gd153 O177 2.327 . S
Gd153 O178 2.377 . S
Gd153 O180 2.448 . S
Gd153 O181 2.506 . S
Gd153 O182 2.435 . S
Gd153 O183 2.717 . S
C154 O172 1.240 . S
C154 O173 1.240 . S
C155 Gd152 2.818 . S
C155 C156 1.510 . S
C155 O174 1.249 . S
C155 O175 1.252 . S
C156 C155 1.510 . S
C156 C157 1.404 . S
C156 C158 1.352 . S
C157 C156 1.404 . S
C157 C161 1.389 . S
C157 H184 0.930 . S
C158 C156 1.352 . S
C158 C160 1.374 . S
C158 H185 0.931 . S
C159 C160 1.359 . S
C159 C161 1.364 . S
C160 C158 1.374 . S
C160 C159 1.359 . S
C160 H186 0.931 . S
C161 C157 1.389 . S
C161 C159 1.364 . S
C161 H187 0.931 . S
C162 O176 1.256 . S
C162 O177 1.257 . S
C163 O178 1.240 . S
C163 O179 1.240 . S
C164 Gd153 2.818 . S
C164 C165 1.510 . S
C164 O180 1.249 . S
C164 O181 1.252 . S
C165 C164 1.510 . S
C165 C166 1.404 . S
C165 C167 1.352 . S
C166 C165 1.404 . S
C166 C170 1.389 . S
C166 H188 0.930 . S
C167 C165 1.352 . S
C167 C169 1.374 . S
C167 H189 0.931 . S
C168 C169 1.359 . S
C168 C170 1.364 . S
C169 C167 1.374 . S
C169 C168 1.359 . S
C169 H190 0.931 . S
C170 C166 1.389 . S
C170 C168 1.364 . S
C170 H191 0.931 . S
C171 O182 1.256 . S
C171 O183 1.257 . S
O172 Gd152 2.377 . S
O172 C154 1.240 . S
O173 Gd153 2.395 . S
O173 C154 1.240 . S
O174 Gd152 2.448 . S
O174 C155 1.249 . S
O175 Gd152 2.506 . S
O175 C155 1.252 . S
O176 Gd152 2.435 . S
O176 C162 1.256 . S
O177 Gd152 2.717 . S
O177 Gd153 2.327 . S
O177 C162 1.257 . S
O178 Gd153 2.377 . S
O178 C163 1.240 . S
O179 Gd152 2.395 . S
O179 C163 1.240 . S
O180 Gd153 2.448 . S
O180 C164 1.249 . S
O181 Gd153 2.506 . S
O181 C164 1.252 . S
O182 Gd153 2.435 . S
O182 C171 1.256 . S
O183 Gd152 2.327 . S
O183 Gd153 2.717 . S
O183 C171 1.257 . S
H184 C157 0.930 . S
H185 C158 0.931 . S
H186 C160 0.931 . S
H187 C161 0.931 . S
H188 C166 0.930 . S
H189 C167 0.931 . S
H190 C169 0.931 . S
H191 C170 0.931 . S
Gd192 C195 2.818 . S
Gd192 O212 2.377 . S
Gd192 O214 2.448 . S
Gd192 O215 2.506 . S
Gd192 O216 2.435 1_455 S
Gd192 O217 2.717 1_455 S
Gd192 O219 2.395 1_454 S
Gd192 O223 2.327 1_554 S
Gd193 C204 2.818 . S
Gd193 O213 2.395 1_656 S
Gd193 O217 2.327 1_556 S
Gd193 O218 2.377 . S
Gd193 O220 2.448 . S
Gd193 O221 2.506 . S
Gd193 O222 2.435 1_655 S
Gd193 O223 2.717 1_655 S
C194 O212 1.240 . S
C194 O213 1.240 . S
C195 Gd192 2.818 . S
C195 C196 1.510 . S
C195 O214 1.249 . S
C195 O215 1.252 . S
C196 C195 1.510 . S
C196 C197 1.404 . S
C196 C198 1.352 . S
C197 C196 1.404 . S
C197 C201 1.389 . S
C197 H224 0.930 . S
C198 C196 1.352 . S
C198 C200 1.374 . S
C198 H225 0.931 . S
C199 C200 1.359 . S
C199 C201 1.364 . S
C200 C198 1.374 . S
C200 C199 1.359 . S
C200 H226 0.931 . S
C201 C197 1.389 . S
C201 C199 1.364 . S
C201 H227 0.931 . S
C202 O216 1.256 . S
C202 O217 1.257 . S
C203 O218 1.240 . S
C203 O219 1.240 . S
C204 Gd193 2.818 . S
C204 C205 1.510 . S
C204 O220 1.249 . S
C204 O221 1.252 . S
C205 C204 1.510 . S
C205 C206 1.404 . S
C205 C207 1.352 . S
C206 C205 1.404 . S
C206 C210 1.389 . S
C206 H228 0.930 . S
C207 C205 1.352 . S
C207 C209 1.374 . S
C207 H229 0.931 . S
C208 C209 1.359 . S
C208 C210 1.364 . S
C209 C207 1.374 . S
C209 C208 1.359 . S
C209 H230 0.931 . S
C210 C206 1.389 . S
C210 C208 1.364 . S
C210 H231 0.931 . S
C211 O222 1.256 . S
C211 O223 1.257 . S
O212 Gd192 2.377 . S
O212 C194 1.240 . S
O213 Gd193 2.395 1_454 S
O213 C194 1.240 . S
O214 Gd192 2.448 . S
O214 C195 1.249 . S
O215 Gd192 2.506 . S
O215 C195 1.252 . S
O216 Gd192 2.435 1_655 S
O216 C202 1.256 . S
O217 Gd192 2.717 1_655 S
O217 Gd193 2.327 1_554 S
O217 C202 1.257 . S
O218 Gd193 2.377 . S
O218 C203 1.240 . S
O219 Gd192 2.395 1_656 S
O219 C203 1.240 . S
O220 Gd193 2.448 . S
O220 C204 1.249 . S
O221 Gd193 2.506 . S
O221 C204 1.252 . S
O222 Gd193 2.435 1_455 S
O222 C211 1.256 . S
O223 Gd192 2.327 1_556 S
O223 Gd193 2.717 1_455 S
O223 C211 1.257 . S
H224 C197 0.930 . S
H225 C198 0.931 . S
H226 C200 0.931 . S
H227 C201 0.931 . S
H228 C206 0.930 . S
H229 C207 0.931 . S
H230 C209 0.931 . S
H231 C210 0.931 . S
C232 C233 1.349 . S
C232 C234 1.327 . S
C232 H257 0.950 . S
C233 C232 1.349 . S
C233 C249 1.349 . S
C234 C232 1.327 . S
C234 C253 1.429 . S
C234 H258 0.950 . S
C235 C252 1.574 . S
C235 C254 1.368 . S
C235 H259 0.949 . S
H236 C240 0.949 . S
C237 C238 1.349 . S
C237 C239 1.327 . S
C237 H260 0.950 . S
C238 C237 1.349 . S
C238 C250 1.349 . S
C239 C237 1.327 . S
C239 C255 1.429 . S
C239 H261 0.950 . S
C240 H236 0.949 . S
C240 C248 1.574 . S
C240 C256 1.368 . S
H241 C249 0.950 . S
H242 C247 0.950 . S
H243 C248 0.949 . S
H244 C250 0.950 . S
H245 C251 0.950 . S
H246 C252 0.949 . S
C247 H242 0.950 . S
C247 C249 1.327 . S
C247 C253 1.429 . S
C248 C240 1.574 . S
C248 H243 0.949 . S
C248 C254 1.368 . S
C249 C233 1.349 . S
C249 H241 0.950 . S
C249 C247 1.327 . S
C250 C238 1.349 . S
C250 H244 0.950 . S
C250 C251 1.327 . S
C251 H245 0.950 . S
C251 C250 1.327 . S
C251 C255 1.429 . S
C252 C235 1.574 . S
C252 H246 0.949 . S
C252 C256 1.368 . S
C253 C234 1.429 . S
C253 C247 1.429 . S
C253 C254 1.523 . S
C254 C235 1.368 . S
C254 C248 1.368 . S
C254 C253 1.523 . S
C255 C239 1.429 . S
C255 C251 1.429 . S
C255 C256 1.523 . S
C256 C240 1.368 . S
C256 C252 1.368 . S
C256 C255 1.523 . S
H257 C232 0.950 . S
H258 C234 0.950 . S
H259 C235 0.949 . S
H260 C237 0.950 . S
H261 C239 0.950 . S
C262 C263 1.349 . S
C262 C264 1.327 . S
C262 H287 0.950 . S
C263 C262 1.349 . S
C263 C279 1.349 . S
C264 C262 1.327 . S
C264 C283 1.429 . S
C264 H288 0.950 . S
C265 C282 1.574 . S
C265 C284 1.368 . S
C265 H289 0.949 . S
H266 C270 0.949 . S
C267 C268 1.349 . S
C267 C269 1.327 . S
C267 H290 0.950 . S
C268 C267 1.349 . S
C268 C280 1.349 . S
C269 C267 1.327 . S
C269 C285 1.429 . S
C269 H291 0.950 . S
C270 H266 0.949 . S
C270 C278 1.574 . S
C270 C286 1.368 . S
H271 C279 0.950 . S
H272 C277 0.950 . S
H273 C278 0.949 . S
H274 C280 0.950 . S
H275 C281 0.950 . S
H276 C282 0.949 . S
C277 H272 0.950 . S
C277 C279 1.327 . S
C277 C283 1.429 . S
C278 C270 1.574 . S
C278 H273 0.949 . S
C278 C284 1.368 . S
C279 C263 1.349 . S
C279 H271 0.950 . S
C279 C277 1.327 . S
C280 C268 1.349 . S
C280 H274 0.950 . S
C280 C281 1.327 . S
C281 H275 0.950 . S
C281 C280 1.327 . S
C281 C285 1.429 . S
C282 C265 1.574 . S
C282 H276 0.949 . S
C282 C286 1.368 . S
C283 C264 1.429 . S
C283 C277 1.429 . S
C283 C284 1.523 . S
C284 C265 1.368 . S
C284 C278 1.368 . S
C284 C283 1.523 . S
C285 C269 1.429 . S
C285 C281 1.429 . S
C285 C286 1.523 . S
C286 C270 1.368 . S
C286 C282 1.368 . S
C286 C285 1.523 . S
H287 C262 0.950 . S
H288 C264 0.950 . S
H289 C265 0.949 . S
H290 C267 0.950 . S
H291 C269 0.950 . S
C292 C293 1.349 . S
C292 C294 1.327 . S
C292 H317 0.950 . S
C293 C292 1.349 . S
C293 C309 1.349 . S
C294 C292 1.327 . S
C294 C313 1.429 . S
C294 H318 0.950 . S
C295 C312 1.574 . S
C295 C314 1.368 . S
C295 H319 0.949 . S
H296 C300 0.949 . S
C297 C298 1.349 . S
C297 C299 1.327 . S
C297 H320 0.950 . S
C298 C297 1.349 . S
C298 C310 1.349 . S
C299 C297 1.327 . S
C299 C315 1.429 . S
C299 H321 0.950 . S
C300 H296 0.949 . S
C300 C308 1.574 . S
C300 C316 1.368 . S
H301 C309 0.950 . S
H302 C307 0.950 . S
H303 C308 0.949 . S
H304 C310 0.950 . S
H305 C311 0.950 . S
H306 C312 0.949 . S
C307 H302 0.950 . S
C307 C309 1.327 . S
C307 C313 1.429 . S
C308 C300 1.574 . S
C308 H303 0.949 . S
C308 C314 1.368 . S
C309 C293 1.349 . S
C309 H301 0.950 . S
C309 C307 1.327 . S
C310 C298 1.349 . S
C310 H304 0.950 . S
C310 C311 1.327 . S
C311 H305 0.950 . S
C311 C310 1.327 . S
C311 C315 1.429 . S
C312 C295 1.574 . S
C312 H306 0.949 . S
C312 C316 1.368 . S
C313 C294 1.429 . S
C313 C307 1.429 . S
C313 C314 1.523 . S
C314 C295 1.368 . S
C314 C308 1.368 . S
C314 C313 1.523 . S
C315 C299 1.429 . S
C315 C311 1.429 . S
C315 C316 1.523 . S
C316 C300 1.368 . S
C316 C312 1.368 . S
C316 C315 1.523 . S
H317 C292 0.950 . S
H318 C294 0.950 . S
H319 C295 0.949 . S
H320 C297 0.950 . S
H321 C299 0.950 . S
C322 C323 1.349 . S
C322 C324 1.327 . S
C322 H347 0.950 . S
C323 C322 1.349 . S
C323 C339 1.349 . S
C324 C322 1.327 . S
C324 C343 1.429 . S
C324 H348 0.950 . S
C325 C342 1.574 . S
C325 C344 1.368 . S
C325 H349 0.949 . S
H326 C330 0.949 . S
C327 C328 1.349 . S
C327 C329 1.327 . S
C327 H350 0.950 . S
C328 C327 1.349 . S
C328 C340 1.349 . S
C329 C327 1.327 . S
C329 C345 1.429 . S
C329 H351 0.950 . S
C330 H326 0.949 . S
C330 C338 1.574 . S
C330 C346 1.368 . S
H331 C339 0.950 . S
H332 C337 0.950 . S
H333 C338 0.949 . S
H334 C340 0.950 . S
H335 C341 0.950 . S
H336 C342 0.949 . S
C337 H332 0.950 . S
C337 C339 1.327 . S
C337 C343 1.429 . S
C338 C330 1.574 . S
C338 H333 0.949 . S
C338 C344 1.368 . S
C339 C323 1.349 . S
C339 H331 0.950 . S
C339 C337 1.327 . S
C340 C328 1.349 . S
C340 H334 0.950 . S
C340 C341 1.327 . S
C341 H335 0.950 . S
C341 C340 1.327 . S
C341 C345 1.429 . S
C342 C325 1.574 . S
C342 H336 0.949 . S
C342 C346 1.368 . S
C343 C324 1.429 . S
C343 C337 1.429 . S
C343 C344 1.523 . S
C344 C325 1.368 . S
C344 C338 1.368 . S
C344 C343 1.523 . S
C345 C329 1.429 . S
C345 C341 1.429 . S
C345 C346 1.523 . S
C346 C330 1.368 . S
C346 C342 1.368 . S
C346 C345 1.523 . S
H347 C322 0.950 . S
H348 C324 0.950 . S
H349 C325 0.949 . S
H350 C327 0.950 . S
H351 C329 0.950 . S
C352 C353 1.349 . S
C352 C354 1.327 . S
C352 H377 0.950 . S
C353 C352 1.349 . S
C353 C369 1.349 . S
C354 C352 1.327 . S
C354 C373 1.429 . S
C354 H378 0.950 . S
C355 C372 1.574 . S
C355 C374 1.368 . S
C355 H379 0.949 . S
H356 C360 0.949 . S
C357 C358 1.349 . S
C357 C359 1.327 . S
C357 H380 0.950 . S
C358 C357 1.349 . S
C358 C370 1.349 . S
C359 C357 1.327 . S
C359 C375 1.429 . S
C359 H381 0.950 . S
C360 H356 0.949 . S
C360 C368 1.574 . S
C360 C376 1.368 . S
H361 C369 0.950 . S
H362 C367 0.950 . S
H363 C368 0.949 . S
H364 C370 0.950 . S
H365 C371 0.950 . S
H366 C372 0.949 . S
C367 H362 0.950 . S
C367 C369 1.327 . S
C367 C373 1.429 . S
C368 C360 1.574 . S
C368 H363 0.949 . S
C368 C374 1.368 . S
C369 C353 1.349 . S
C369 H361 0.950 . S
C369 C367 1.327 . S
C370 C358 1.349 . S
C370 H364 0.950 . S
C370 C371 1.327 . S
C371 H365 0.950 . S
C371 C370 1.327 . S
C371 C375 1.429 . S
C372 C355 1.574 . S
C372 H366 0.949 . S
C372 C376 1.368 . S
C373 C354 1.429 . S
C373 C367 1.429 . S
C373 C374 1.523 . S
C374 C355 1.368 . S
C374 C368 1.368 . S
C374 C373 1.523 . S
C375 C359 1.429 . S
C375 C371 1.429 . S
C375 C376 1.523 . S
C376 C360 1.368 . S
C376 C372 1.368 . S
C376 C375 1.523 . S
H377 C352 0.950 . S
H378 C354 0.950 . S
H379 C355 0.949 . S
H380 C357 0.950 . S
H381 C359 0.950 . S
C382 C383 1.349 . S
C382 C384 1.327 . S
C382 H407 0.950 . S
C383 C382 1.349 . S
C383 C399 1.349 . S
C384 C382 1.327 . S
C384 C403 1.429 . S
C384 H408 0.950 . S
C385 C402 1.574 . S
C385 C404 1.368 . S
C385 H409 0.949 . S
H386 C390 0.949 . S
C387 C388 1.349 . S
C387 C389 1.327 . S
C387 H410 0.950 . S
C388 C387 1.349 . S
C388 C400 1.349 . S
C389 C387 1.327 . S
C389 C405 1.429 . S
C389 H411 0.950 . S
C390 H386 0.949 . S
C390 C398 1.574 . S
C390 C406 1.368 . S
H391 C399 0.950 . S
H392 C397 0.950 . S
H393 C398 0.949 . S
H394 C400 0.950 . S
H395 C401 0.950 . S
H396 C402 0.949 . S
C397 H392 0.950 . S
C397 C399 1.327 . S
C397 C403 1.429 . S
C398 C390 1.574 . S
C398 H393 0.949 . S
C398 C404 1.368 . S
C399 C383 1.349 . S
C399 H391 0.950 . S
C399 C397 1.327 . S
C400 C388 1.349 . S
C400 H394 0.950 . S
C400 C401 1.327 . S
C401 H395 0.950 . S
C401 C400 1.327 . S
C401 C405 1.429 . S
C402 C385 1.574 . S
C402 H396 0.949 . S
C402 C406 1.368 . S
C403 C384 1.429 . S
C403 C397 1.429 . S
C403 C404 1.523 . S
C404 C385 1.368 . S
C404 C398 1.368 . S
C404 C403 1.523 . S
C405 C389 1.429 . S
C405 C401 1.429 . S
C405 C406 1.523 . S
C406 C390 1.368 . S
C406 C402 1.368 . S
C406 C405 1.523 . S
H407 C382 0.950 . S
H408 C384 0.950 . S
H409 C385 0.949 . S
H410 C387 0.950 . S
H411 C389 0.950 . S
C412 C413 1.349 . S
C412 C414 1.327 . S
C412 H437 0.950 . S
C413 C412 1.349 . S
C413 C429 1.349 . S
C414 C412 1.327 . S
C414 C433 1.429 . S
C414 H438 0.950 . S
C415 C432 1.574 . S
C415 C434 1.368 . S
C415 H439 0.949 . S
H416 C420 0.949 . S
C417 C418 1.349 . S
C417 C419 1.327 . S
C417 H440 0.950 . S
C418 C417 1.349 . S
C418 C430 1.349 . S
C419 C417 1.327 . S
C419 C435 1.429 . S
C419 H441 0.950 . S
C420 H416 0.949 . S
C420 C428 1.574 . S
C420 C436 1.368 . S
H421 C429 0.950 . S
H422 C427 0.950 . S
H423 C428 0.949 . S
H424 C430 0.950 . S
H425 C431 0.950 . S
H426 C432 0.949 . S
C427 H422 0.950 . S
C427 C429 1.327 . S
C427 C433 1.429 . S
C428 C420 1.574 . S
C428 H423 0.949 . S
C428 C434 1.368 . S
C429 C413 1.349 . S
C429 H421 0.950 . S
C429 C427 1.327 . S
C430 C418 1.349 . S
C430 H424 0.950 . S
C430 C431 1.327 . S
C431 H425 0.950 . S
C431 C430 1.327 . S
C431 C435 1.429 . S
C432 C415 1.574 . S
C432 H426 0.949 . S
C432 C436 1.368 . S
C433 C414 1.429 . S
C433 C427 1.429 . S
C433 C434 1.523 . S
C434 C415 1.368 . S
C434 C428 1.368 . S
C434 C433 1.523 . S
C435 C419 1.429 . S
C435 C431 1.429 . S
C435 C436 1.523 . S
C436 C420 1.368 . S
C436 C432 1.368 . S
C436 C435 1.523 . S
H437 C412 0.950 . S
H438 C414 0.950 . S
H439 C415 0.949 . S
H440 C417 0.950 . S
H441 C419 0.950 . S
C442 C443 1.349 . S
C442 C444 1.327 . S
C442 H467 0.950 . S
C443 C442 1.349 . S
C443 C459 1.349 . S
C444 C442 1.327 . S
C444 C463 1.429 . S
C444 H468 0.950 . S
C445 C462 1.574 . S
C445 C464 1.368 . S
C445 H469 0.949 . S
H446 C450 0.949 . S
C447 C448 1.349 . S
C447 C449 1.327 . S
C447 H470 0.950 . S
C448 C447 1.349 . S
C448 C460 1.349 . S
C449 C447 1.327 . S
C449 C465 1.429 . S
C449 H471 0.950 . S
C450 H446 0.949 . S
C450 C458 1.574 . S
C450 C466 1.368 . S
H451 C459 0.950 . S
H452 C457 0.950 . S
H453 C458 0.949 . S
H454 C460 0.950 . S
H455 C461 0.950 . S
H456 C462 0.949 . S
C457 H452 0.950 . S
C457 C459 1.327 . S
C457 C463 1.429 . S
C458 C450 1.574 . S
C458 H453 0.949 . S
C458 C464 1.368 . S
C459 C443 1.349 . S
C459 H451 0.950 . S
C459 C457 1.327 . S
C460 C448 1.349 . S
C460 H454 0.950 . S
C460 C461 1.327 . S
C461 H455 0.950 . S
C461 C460 1.327 . S
C461 C465 1.429 . S
C462 C445 1.574 . S
C462 H456 0.949 . S
C462 C466 1.368 . S
C463 C444 1.429 . S
C463 C457 1.429 . S
C463 C464 1.523 . S
C464 C445 1.368 . S
C464 C458 1.368 . S
C464 C463 1.523 . S
C465 C449 1.429 . S
C465 C461 1.429 . S
C465 C466 1.523 . S
C466 C450 1.368 . S
C466 C462 1.368 . S
C466 C465 1.523 . S
H467 C442 0.950 . S
H468 C444 0.950 . S
H469 C445 0.949 . S
H470 C447 0.950 . S
H471 C449 0.950 . S
C472 C473 1.349 . S
C472 C474 1.327 . S
C472 H497 0.950 . S
C473 C472 1.349 . S
C473 C489 1.349 . S
C474 C472 1.327 . S
C474 C493 1.429 . S
C474 H498 0.950 . S
C475 C492 1.574 . S
C475 C494 1.368 . S
C475 H499 0.949 . S
H476 C480 0.949 . S
C477 C478 1.349 . S
C477 C479 1.327 . S
C477 H500 0.950 . S
C478 C477 1.349 . S
C478 C490 1.349 . S
C479 C477 1.327 . S
C479 C495 1.429 . S
C479 H501 0.950 . S
C480 H476 0.949 . S
C480 C488 1.574 . S
C480 C496 1.368 . S
H481 C489 0.950 . S
H482 C487 0.950 . S
H483 C488 0.949 . S
H484 C490 0.950 . S
H485 C491 0.950 . S
H486 C492 0.949 . S
C487 H482 0.950 . S
C487 C489 1.327 . S
C487 C493 1.429 . S
C488 C480 1.574 . S
C488 H483 0.949 . S
C488 C494 1.368 . S
C489 C473 1.349 . S
C489 H481 0.950 . S
C489 C487 1.327 . S
C490 C478 1.349 . S
C490 H484 0.950 . S
C490 C491 1.327 . S
C491 H485 0.950 . S
C491 C490 1.327 . S
C491 C495 1.429 . S
C492 C475 1.574 . S
C492 H486 0.949 . S
C492 C496 1.368 . S
C493 C474 1.429 . S
C493 C487 1.429 . S
C493 C494 1.523 . S
C494 C475 1.368 . S
C494 C488 1.368 . S
C494 C493 1.523 . S
C495 C479 1.429 . S
C495 C491 1.429 . S
C495 C496 1.523 . S
C496 C480 1.368 . S
C496 C492 1.368 . S
C496 C495 1.523 . S
H497 C472 0.950 . S
H498 C474 0.950 . S
H499 C475 0.949 . S
H500 C477 0.950 . S
H501 C479 0.950 . S
C502 C503 1.349 . S
C502 C504 1.327 . S
C502 H527 0.950 . S
C503 C502 1.349 . S
C503 C519 1.349 . S
C504 C502 1.327 . S
C504 C523 1.429 . S
C504 H528 0.950 . S
C505 C522 1.574 . S
C505 C524 1.368 . S
C505 H529 0.949 . S
H506 C510 0.949 . S
C507 C508 1.349 . S
C507 C509 1.327 . S
C507 H530 0.950 . S
C508 C507 1.349 . S
C508 C520 1.349 . S
C509 C507 1.327 . S
C509 C525 1.429 . S
C509 H531 0.950 . S
C510 H506 0.949 . S
C510 C518 1.574 . S
C510 C526 1.368 . S
H511 C519 0.950 . S
H512 C517 0.950 . S
H513 C518 0.949 . S
H514 C520 0.950 . S
H515 C521 0.950 . S
H516 C522 0.949 . S
C517 H512 0.950 . S
C517 C519 1.327 . S
C517 C523 1.429 . S
C518 C510 1.574 . S
C518 H513 0.949 . S
C518 C524 1.368 . S
C519 C503 1.349 . S
C519 H511 0.950 . S
C519 C517 1.327 . S
C520 C508 1.349 . S
C520 H514 0.950 . S
C520 C521 1.327 . S
C521 H515 0.950 . S
C521 C520 1.327 . S
C521 C525 1.429 . S
C522 C505 1.574 . S
C522 H516 0.949 . S
C522 C526 1.368 . S
C523 C504 1.429 . S
C523 C517 1.429 . S
C523 C524 1.523 . S
C524 C505 1.368 . S
C524 C518 1.368 . S
C524 C523 1.523 . S
C525 C509 1.429 . S
C525 C521 1.429 . S
C525 C526 1.523 . S
C526 C510 1.368 . S
C526 C522 1.368 . S
C526 C525 1.523 . S
H527 C502 0.950 . S
H528 C504 0.950 . S
H529 C505 0.949 . S
H530 C507 0.950 . S
H531 C509 0.950 . S
C532 C533 1.349 . S
C532 C534 1.327 . S
C532 H557 0.950 . S
C533 C532 1.349 . S
C533 C549 1.349 . S
C534 C532 1.327 . S
C534 C553 1.429 . S
C534 H558 0.950 . S
C535 C552 1.574 . S
C535 C554 1.368 . S
C535 H559 0.949 . S
H536 C540 0.949 . S
C537 C538 1.349 . S
C537 C539 1.327 . S
C537 H560 0.950 . S
C538 C537 1.349 . S
C538 C550 1.349 . S
C539 C537 1.327 . S
C539 C555 1.429 . S
C539 H561 0.950 . S
C540 H536 0.949 . S
C540 C548 1.574 . S
C540 C556 1.368 . S
H541 C549 0.950 . S
H542 C547 0.950 . S
H543 C548 0.949 . S
H544 C550 0.950 . S
H545 C551 0.950 . S
H546 C552 0.949 . S
C547 H542 0.950 . S
C547 C549 1.327 . S
C547 C553 1.429 . S
C548 C540 1.574 . S
C548 H543 0.949 . S
C548 C554 1.368 . S
C549 C533 1.349 . S
C549 H541 0.950 . S
C549 C547 1.327 . S
C550 C538 1.349 . S
C550 H544 0.950 . S
C550 C551 1.327 . S
C551 H545 0.950 . S
C551 C550 1.327 . S
C551 C555 1.429 . S
C552 C535 1.574 . S
C552 H546 0.949 . S
C552 C556 1.368 . S
C553 C534 1.429 . S
C553 C547 1.429 . S
C553 C554 1.523 . S
C554 C535 1.368 . S
C554 C548 1.368 . S
C554 C553 1.523 . S
C555 C539 1.429 . S
C555 C551 1.429 . S
C555 C556 1.523 . S
C556 C540 1.368 . S
C556 C552 1.368 . S
C556 C555 1.523 . S
H557 C532 0.950 . S
H558 C534 0.950 . S
H559 C535 0.949 . S
H560 C537 0.950 . S
H561 C539 0.950 . S
C562 C563 1.349 . S
C562 C564 1.327 . S
C562 H587 0.950 . S
C563 C562 1.349 . S
C563 C579 1.349 . S
C564 C562 1.327 . S
C564 C583 1.429 . S
C564 H588 0.950 . S
C565 C582 1.574 . S
C565 C584 1.368 . S
C565 H589 0.949 . S
H566 C570 0.949 . S
C567 C568 1.349 . S
C567 C569 1.327 . S
C567 H590 0.950 . S
C568 C567 1.349 . S
C568 C580 1.349 . S
C569 C567 1.327 . S
C569 C585 1.429 . S
C569 H591 0.950 . S
C570 H566 0.949 . S
C570 C578 1.574 . S
C570 C586 1.368 . S
H571 C579 0.950 . S
H572 C577 0.950 . S
H573 C578 0.949 . S
H574 C580 0.950 . S
H575 C581 0.950 . S
H576 C582 0.949 . S
C577 H572 0.950 . S
C577 C579 1.327 . S
C577 C583 1.429 . S
C578 C570 1.574 . S
C578 H573 0.949 . S
C578 C584 1.368 . S
C579 C563 1.349 . S
C579 H571 0.950 . S
C579 C577 1.327 . S
C580 C568 1.349 . S
C580 H574 0.950 . S
C580 C581 1.327 . S
C581 H575 0.950 . S
C581 C580 1.327 . S
C581 C585 1.429 . S
C582 C565 1.574 . S
C582 H576 0.949 . S
C582 C586 1.368 . S
C583 C564 1.429 . S
C583 C577 1.429 . S
C583 C584 1.523 . S
C584 C565 1.368 . S
C584 C578 1.368 . S
C584 C583 1.523 . S
C585 C569 1.429 . S
C585 C581 1.429 . S
C585 C586 1.523 . S
C586 C570 1.368 . S
C586 C582 1.368 . S
C586 C585 1.523 . S
H587 C562 0.950 . S
H588 C564 0.950 . S
H589 C565 0.949 . S
H590 C567 0.950 . S
H591 C569 0.950 . S
C592 C593 1.349 . S
C592 C594 1.327 . S
C592 H617 0.950 . S
C593 C592 1.349 . S
C593 C609 1.349 . S
C594 C592 1.327 . S
C594 C613 1.429 . S
C594 H618 0.950 . S
C595 C612 1.574 . S
C595 C614 1.368 . S
C595 H619 0.949 . S
H596 C600 0.949 . S
C597 C598 1.349 . S
C597 C599 1.327 . S
C597 H620 0.950 . S
C598 C597 1.349 . S
C598 C610 1.349 . S
C599 C597 1.327 . S
C599 C615 1.429 . S
C599 H621 0.950 . S
C600 H596 0.949 . S
C600 C608 1.574 . S
C600 C616 1.368 . S
H601 C609 0.950 . S
H602 C607 0.950 . S
H603 C608 0.949 . S
H604 C610 0.950 . S
H605 C611 0.950 . S
H606 C612 0.949 . S
C607 H602 0.950 . S
C607 C609 1.327 . S
C607 C613 1.429 . S
C608 C600 1.574 . S
C608 H603 0.949 . S
C608 C614 1.368 . S
C609 C593 1.349 . S
C609 H601 0.950 . S
C609 C607 1.327 . S
C610 C598 1.349 . S
C610 H604 0.950 . S
C610 C611 1.327 . S
C611 H605 0.950 . S
C611 C610 1.327 . S
C611 C615 1.429 . S
C612 C595 1.574 . S
C612 H606 0.949 . S
C612 C616 1.368 . S
C613 C594 1.429 . S
C613 C607 1.429 . S
C613 C614 1.523 . S
C614 C595 1.368 . S
C614 C608 1.368 . S
C614 C613 1.523 . S
C615 C599 1.429 . S
C615 C611 1.429 . S
C615 C616 1.523 . S
C616 C600 1.368 . S
C616 C612 1.368 . S
C616 C615 1.523 . S
H617 C592 0.950 . S
H618 C594 0.950 . S
H619 C595 0.949 . S
H620 C597 0.950 . S
H621 C599 0.950 . S
C622 C623 1.349 . S
C622 C624 1.327 . S
C622 H647 0.950 . S
C623 C622 1.349 . S
C623 C639 1.349 . S
C624 C622 1.327 . S
C624 C643 1.429 . S
C624 H648 0.950 . S
C625 C642 1.574 . S
C625 C644 1.368 . S
C625 H649 0.949 . S
H626 C630 0.949 . S
C627 C628 1.349 . S
C627 C629 1.327 . S
C627 H650 0.950 . S
C628 C627 1.349 . S
C628 C640 1.349 . S
C629 C627 1.327 . S
C629 C645 1.429 . S
C629 H651 0.950 . S
C630 H626 0.949 . S
C630 C638 1.574 . S
C630 C646 1.368 . S
H631 C639 0.950 . S
H632 C637 0.950 . S
H633 C638 0.949 . S
H634 C640 0.950 . S
H635 C641 0.950 . S
H636 C642 0.949 . S
C637 H632 0.950 . S
C637 C639 1.327 . S
C637 C643 1.429 . S
C638 C630 1.574 . S
C638 H633 0.949 . S
C638 C644 1.368 . S
C639 C623 1.349 . S
C639 H631 0.950 . S
C639 C637 1.327 . S
C640 C628 1.349 . S
C640 H634 0.950 . S
C640 C641 1.327 . S
C641 H635 0.950 . S
C641 C640 1.327 . S
C641 C645 1.429 . S
C642 C625 1.574 . S
C642 H636 0.949 . S
C642 C646 1.368 . S
C643 C624 1.429 . S
C643 C637 1.429 . S
C643 C644 1.523 . S
C644 C625 1.368 . S
C644 C638 1.368 . S
C644 C643 1.523 . S
C645 C629 1.429 . S
C645 C641 1.429 . S
C645 C646 1.523 . S
C646 C630 1.368 . S
C646 C642 1.368 . S
C646 C645 1.523 . S
H647 C622 0.950 . S
H648 C624 0.950 . S
H649 C625 0.949 . S
H650 C627 0.950 . S
H651 C629 0.950 . S
C652 C653 1.349 . S
C652 C654 1.327 . S
C652 H677 0.950 . S
C653 C652 1.349 . S
C653 C669 1.349 . S
C654 C652 1.327 . S
C654 C673 1.429 . S
C654 H678 0.950 . S
C655 C672 1.574 . S
C655 C674 1.368 . S
C655 H679 0.949 . S
H656 C660 0.949 . S
C657 C658 1.349 . S
C657 C659 1.327 . S
C657 H680 0.950 . S
C658 C657 1.349 . S
C658 C670 1.349 . S
C659 C657 1.327 . S
C659 C675 1.429 . S
C659 H681 0.950 . S
C660 H656 0.949 . S
C660 C668 1.574 . S
C660 C676 1.368 . S
H661 C669 0.950 . S
H662 C667 0.950 . S
H663 C668 0.949 . S
H664 C670 0.950 . S
H665 C671 0.950 . S
H666 C672 0.949 . S
C667 H662 0.950 . S
C667 C669 1.327 . S
C667 C673 1.429 . S
C668 C660 1.574 . S
C668 H663 0.949 . S
C668 C674 1.368 . S
C669 C653 1.349 . S
C669 H661 0.950 . S
C669 C667 1.327 . S
C670 C658 1.349 . S
C670 H664 0.950 . S
C670 C671 1.327 . S
C671 H665 0.950 . S
C671 C670 1.327 . S
C671 C675 1.429 . S
C672 C655 1.574 . S
C672 H666 0.949 . S
C672 C676 1.368 . S
C673 C654 1.429 . S
C673 C667 1.429 . S
C673 C674 1.523 . S
C674 C655 1.368 . S
C674 C668 1.368 . S
C674 C673 1.523 . S
C675 C659 1.429 . S
C675 C671 1.429 . S
C675 C676 1.523 . S
C676 C660 1.368 . S
C676 C672 1.368 . S
C676 C675 1.523 . S
H677 C652 0.950 . S
H678 C654 0.950 . S
H679 C655 0.949 . S
H680 C657 0.950 . S
H681 C659 0.950 . S
C682 C683 1.349 . S
C682 C684 1.327 . S
C682 H707 0.950 . S
C683 C682 1.349 . S
C683 C699 1.349 . S
C684 C682 1.327 . S
C684 C703 1.429 . S
C684 H708 0.950 . S
C685 C702 1.574 . S
C685 C704 1.368 . S
C685 H709 0.949 . S
H686 C690 0.949 . S
C687 C688 1.349 . S
C687 C689 1.327 . S
C687 H710 0.950 . S
C688 C687 1.349 . S
C688 C700 1.349 . S
C689 C687 1.327 . S
C689 C705 1.429 . S
C689 H711 0.950 . S
C690 H686 0.949 . S
C690 C698 1.574 . S
C690 C706 1.368 . S
H691 C699 0.950 . S
H692 C697 0.950 . S
H693 C698 0.949 . S
H694 C700 0.950 . S
H695 C701 0.950 . S
H696 C702 0.949 . S
C697 H692 0.950 . S
C697 C699 1.327 . S
C697 C703 1.429 . S
C698 C690 1.574 . S
C698 H693 0.949 . S
C698 C704 1.368 . S
C699 C683 1.349 . S
C699 H691 0.950 . S
C699 C697 1.327 . S
C700 C688 1.349 . S
C700 H694 0.950 . S
C700 C701 1.327 . S
C701 H695 0.950 . S
C701 C700 1.327 . S
C701 C705 1.429 . S
C702 C685 1.574 . S
C702 H696 0.949 . S
C702 C706 1.368 . S
C703 C684 1.429 . S
C703 C697 1.429 . S
C703 C704 1.523 . S
C704 C685 1.368 . S
C704 C698 1.368 . S
C704 C703 1.523 . S
C705 C689 1.429 . S
C705 C701 1.429 . S
C705 C706 1.523 . S
C706 C690 1.368 . S
C706 C702 1.368 . S
C706 C705 1.523 . S
H707 C682 0.950 . S
H708 C684 0.950 . S
H709 C685 0.949 . S
H710 C687 0.950 . S
H711 C689 0.950 . S
C712 C713 1.349 . S
C712 C714 1.327 . S
C712 H737 0.950 . S
C713 C712 1.349 . S
C713 C729 1.349 . S
C714 C712 1.327 . S
C714 C733 1.429 . S
C714 H738 0.950 . S
C715 C732 1.574 . S
C715 C734 1.368 . S
C715 H739 0.949 . S
H716 C720 0.949 . S
C717 C718 1.349 . S
C717 C719 1.327 . S
C717 H740 0.950 . S
C718 C717 1.349 . S
C718 C730 1.349 . S
C719 C717 1.327 . S
C719 C735 1.429 . S
C719 H741 0.950 . S
C720 H716 0.949 . S
C720 C728 1.574 . S
C720 C736 1.368 . S
H721 C729 0.950 . S
H722 C727 0.950 . S
H723 C728 0.949 . S
H724 C730 0.950 . S
H725 C731 0.950 . S
H726 C732 0.949 . S
C727 H722 0.950 . S
C727 C729 1.327 . S
C727 C733 1.429 . S
C728 C720 1.574 . S
C728 H723 0.949 . S
C728 C734 1.368 . S
C729 C713 1.349 . S
C729 H721 0.950 . S
C729 C727 1.327 . S
C730 C718 1.349 . S
C730 H724 0.950 . S
C730 C731 1.327 . S
C731 H725 0.950 . S
C731 C730 1.327 . S
C731 C735 1.429 . S
C732 C715 1.574 . S
C732 H726 0.949 . S
C732 C736 1.368 . S
C733 C714 1.429 . S
C733 C727 1.429 . S
C733 C734 1.523 . S
C734 C715 1.368 . S
C734 C728 1.368 . S
C734 C733 1.523 . S
C735 C719 1.429 . S
C735 C731 1.429 . S
C735 C736 1.523 . S
C736 C720 1.368 . S
C736 C732 1.368 . S
C736 C735 1.523 . S
H737 C712 0.950 . S
H738 C714 0.950 . S
H739 C715 0.949 . S
H740 C717 0.950 . S
H741 C719 0.950 . S
C742 C743 1.349 . S
C742 C744 1.327 . S
C742 H767 0.950 . S
C743 C742 1.349 . S
C743 C759 1.349 . S
C744 C742 1.327 . S
C744 C763 1.429 . S
C744 H768 0.950 . S
C745 C762 1.574 . S
C745 C764 1.368 . S
C745 H769 0.949 . S
H746 C750 0.949 . S
C747 C748 1.349 . S
C747 C749 1.327 . S
C747 H770 0.950 . S
C748 C747 1.349 . S
C748 C760 1.349 . S
C749 C747 1.327 . S
C749 C765 1.429 . S
C749 H771 0.950 . S
C750 H746 0.949 . S
C750 C758 1.574 . S
C750 C766 1.368 . S
H751 C759 0.950 . S
H752 C757 0.950 . S
H753 C758 0.949 . S
H754 C760 0.950 . S
H755 C761 0.950 . S
H756 C762 0.949 . S
C757 H752 0.950 . S
C757 C759 1.327 . S
C757 C763 1.429 . S
C758 C750 1.574 . S
C758 H753 0.949 . S
C758 C764 1.368 . S
C759 C743 1.349 . S
C759 H751 0.950 . S
C759 C757 1.327 . S
C760 C748 1.349 . S
C760 H754 0.950 . S
C760 C761 1.327 . S
C761 H755 0.950 . S
C761 C760 1.327 . S
C761 C765 1.429 . S
C762 C745 1.574 . S
C762 H756 0.949 . S
C762 C766 1.368 . S
C763 C744 1.429 . S
C763 C757 1.429 . S
C763 C764 1.523 . S
C764 C745 1.368 . S
C764 C758 1.368 . S
C764 C763 1.523 . S
C765 C749 1.429 . S
C765 C761 1.429 . S
C765 C766 1.523 . S
C766 C750 1.368 . S
C766 C762 1.368 . S
C766 C765 1.523 . S
H767 C742 0.950 . S
H768 C744 0.950 . S
H769 C745 0.949 . S
H770 C747 0.950 . S
H771 C749 0.950 . S
C772 C773 1.349 . S
C772 C774 1.327 . S
C772 H797 0.950 . S
C773 C772 1.349 . S
C773 C789 1.349 . S
C774 C772 1.327 . S
C774 C793 1.429 . S
C774 H798 0.950 . S
C775 C792 1.574 . S
C775 C794 1.368 . S
C775 H799 0.949 . S
H776 C780 0.949 . S
C777 C778 1.349 . S
C777 C779 1.327 . S
C777 H800 0.950 . S
C778 C777 1.349 . S
C778 C790 1.349 . S
C779 C777 1.327 . S
C779 C795 1.429 . S
C779 H801 0.950 . S
C780 H776 0.949 . S
C780 C788 1.574 . S
C780 C796 1.368 . S
H781 C789 0.950 . S
H782 C787 0.950 . S
H783 C788 0.949 . S
H784 C790 0.950 . S
H785 C791 0.950 . S
H786 C792 0.949 . S
C787 H782 0.950 . S
C787 C789 1.327 . S
C787 C793 1.429 . S
C788 C780 1.574 . S
C788 H783 0.949 . S
C788 C794 1.368 . S
C789 C773 1.349 . S
C789 H781 0.950 . S
C789 C787 1.327 . S
C790 C778 1.349 . S
C790 H784 0.950 . S
C790 C791 1.327 . S
C791 H785 0.950 . S
C791 C790 1.327 . S
C791 C795 1.429 . S
C792 C775 1.574 . S
C792 H786 0.949 . S
C792 C796 1.368 . S
C793 C774 1.429 . S
C793 C787 1.429 . S
C793 C794 1.523 . S
C794 C775 1.368 . S
C794 C788 1.368 . S
C794 C793 1.523 . S
C795 C779 1.429 . S
C795 C791 1.429 . S
C795 C796 1.523 . S
C796 C780 1.368 . S
C796 C792 1.368 . S
C796 C795 1.523 . S
H797 C772 0.950 . S
H798 C774 0.950 . S
H799 C775 0.949 . S
H800 C777 0.950 . S
H801 C779 0.950 . S
C802 C803 1.349 . S
C802 C804 1.327 . S
C802 H827 0.950 . S
C803 C802 1.349 . S
C803 C819 1.349 . S
C804 C802 1.327 . S
C804 C823 1.429 . S
C804 H828 0.950 . S
C805 C822 1.574 . S
C805 C824 1.368 . S
C805 H829 0.949 . S
H806 C810 0.949 . S
C807 C808 1.349 . S
C807 C809 1.327 . S
C807 H830 0.950 . S
C808 C807 1.349 . S
C808 C820 1.349 . S
C809 C807 1.327 . S
C809 C825 1.429 . S
C809 H831 0.950 . S
C810 H806 0.949 . S
C810 C818 1.574 . S
C810 C826 1.368 . S
H811 C819 0.950 . S
H812 C817 0.950 . S
H813 C818 0.949 . S
H814 C820 0.950 . S
H815 C821 0.950 . S
H816 C822 0.949 . S
C817 H812 0.950 . S
C817 C819 1.327 . S
C817 C823 1.429 . S
C818 C810 1.574 . S
C818 H813 0.949 . S
C818 C824 1.368 . S
C819 C803 1.349 . S
C819 H811 0.950 . S
C819 C817 1.327 . S
C820 C808 1.349 . S
C820 H814 0.950 . S
C820 C821 1.327 . S
C821 H815 0.950 . S
C821 C820 1.327 . S
C821 C825 1.429 . S
C822 C805 1.574 . S
C822 H816 0.949 . S
C822 C826 1.368 . S
C823 C804 1.429 . S
C823 C817 1.429 . S
C823 C824 1.523 . S
C824 C805 1.368 . S
C824 C818 1.368 . S
C824 C823 1.523 . S
C825 C809 1.429 . S
C825 C821 1.429 . S
C825 C826 1.523 . S
C826 C810 1.368 . S
C826 C822 1.368 . S
C826 C825 1.523 . S
H827 C802 0.950 . S
H828 C804 0.950 . S
H829 C805 0.949 . S
H830 C807 0.950 . S
H831 C809 0.950 . S
C832 C833 1.349 . S
C832 C834 1.327 . S
C832 H857 0.950 . S
C833 C832 1.349 . S
C833 C849 1.349 . S
C834 C832 1.327 . S
C834 C853 1.429 . S
C834 H858 0.950 . S
C835 C852 1.574 . S
C835 C854 1.368 . S
C835 H859 0.949 . S
H836 C840 0.949 . S
C837 C838 1.349 . S
C837 C839 1.327 . S
C837 H860 0.950 . S
C838 C837 1.349 . S
C838 C850 1.349 . S
C839 C837 1.327 . S
C839 C855 1.429 . S
C839 H861 0.950 . S
C840 H836 0.949 . S
C840 C848 1.574 . S
C840 C856 1.368 . S
H841 C849 0.950 . S
H842 C847 0.950 . S
H843 C848 0.949 . S
H844 C850 0.950 . S
H845 C851 0.950 . S
H846 C852 0.949 . S
C847 H842 0.950 . S
C847 C849 1.327 . S
C847 C853 1.429 . S
C848 C840 1.574 . S
C848 H843 0.949 . S
C848 C854 1.368 . S
C849 C833 1.349 . S
C849 H841 0.950 . S
C849 C847 1.327 . S
C850 C838 1.349 . S
C850 H844 0.950 . S
C850 C851 1.327 . S
C851 H845 0.950 . S
C851 C850 1.327 . S
C851 C855 1.429 . S
C852 C835 1.574 . S
C852 H846 0.949 . S
C852 C856 1.368 . S
C853 C834 1.429 . S
C853 C847 1.429 . S
C853 C854 1.523 . S
C854 C835 1.368 . S
C854 C848 1.368 . S
C854 C853 1.523 . S
C855 C839 1.429 . S
C855 C851 1.429 . S
C855 C856 1.523 . S
C856 C840 1.368 . S
C856 C852 1.368 . S
C856 C855 1.523 . S
H857 C832 0.950 . S
H858 C834 0.950 . S
H859 C835 0.949 . S
H860 C837 0.950 . S
H861 C839 0.950 . S
C862 C863 1.349 . S
C862 C864 1.327 . S
C862 H887 0.950 . S
C863 C862 1.349 . S
C863 C879 1.349 . S
C864 C862 1.327 . S
C864 C883 1.429 . S
C864 H888 0.950 . S
C865 C882 1.574 . S
C865 C884 1.368 . S
C865 H889 0.949 . S
H866 C870 0.949 . S
C867 C868 1.349 . S
C867 C869 1.327 . S
C867 H890 0.950 . S
C868 C867 1.349 . S
C868 C880 1.349 . S
C869 C867 1.327 . S
C869 C885 1.429 . S
C869 H891 0.950 . S
C870 H866 0.949 . S
C870 C878 1.574 . S
C870 C886 1.368 . S
H871 C879 0.950 . S
H872 C877 0.950 . S
H873 C878 0.949 . S
H874 C880 0.950 . S
H875 C881 0.950 . S
H876 C882 0.949 . S
C877 H872 0.950 . S
C877 C879 1.327 . S
C877 C883 1.429 . S
C878 C870 1.574 . S
C878 H873 0.949 . S
C878 C884 1.368 . S
C879 C863 1.349 . S
C879 H871 0.950 . S
C879 C877 1.327 . S
C880 C868 1.349 . S
C880 H874 0.950 . S
C880 C881 1.327 . S
C881 H875 0.950 . S
C881 C880 1.327 . S
C881 C885 1.429 . S
C882 C865 1.574 . S
C882 H876 0.949 . S
C882 C886 1.368 . S
C883 C864 1.429 . S
C883 C877 1.429 . S
C883 C884 1.523 . S
C884 C865 1.368 . S
C884 C878 1.368 . S
C884 C883 1.523 . S
C885 C869 1.429 . S
C885 C881 1.429 . S
C885 C886 1.523 . S
C886 C870 1.368 . S
C886 C882 1.368 . S
C886 C885 1.523 . S
H887 C862 0.950 . S
H888 C864 0.950 . S
H889 C865 0.949 . S
H890 C867 0.950 . S
H891 C869 0.950 . S
C892 C893 1.349 . S
C892 C894 1.327 . S
C892 H917 0.950 . S
C893 C892 1.349 . S
C893 C909 1.349 . S
C894 C892 1.327 . S
C894 C913 1.429 . S
C894 H918 0.950 . S
C895 C912 1.574 . S
C895 C914 1.368 . S
C895 H919 0.949 . S
H896 C900 0.949 . S
C897 C898 1.349 . S
C897 C899 1.327 . S
C897 H920 0.950 . S
C898 C897 1.349 . S
C898 C910 1.349 . S
C899 C897 1.327 . S
C899 C915 1.429 . S
C899 H921 0.950 . S
C900 H896 0.949 . S
C900 C908 1.574 . S
C900 C916 1.368 . S
H901 C909 0.950 . S
H902 C907 0.950 . S
H903 C908 0.949 . S
H904 C910 0.950 . S
H905 C911 0.950 . S
H906 C912 0.949 . S
C907 H902 0.950 . S
C907 C909 1.327 . S
C907 C913 1.429 . S
C908 C900 1.574 . S
C908 H903 0.949 . S
C908 C914 1.368 . S
C909 C893 1.349 . S
C909 H901 0.950 . S
C909 C907 1.327 . S
C910 C898 1.349 . S
C910 H904 0.950 . S
C910 C911 1.327 . S
C911 H905 0.950 . S
C911 C910 1.327 . S
C911 C915 1.429 . S
C912 C895 1.574 . S
C912 H906 0.949 . S
C912 C916 1.368 . S
C913 C894 1.429 . S
C913 C907 1.429 . S
C913 C914 1.523 . S
C914 C895 1.368 . S
C914 C908 1.368 . S
C914 C913 1.523 . S
C915 C899 1.429 . S
C915 C911 1.429 . S
C915 C916 1.523 . S
C916 C900 1.368 . S
C916 C912 1.368 . S
C916 C915 1.523 . S
H917 C892 0.950 . S
H918 C894 0.950 . S
H919 C895 0.949 . S
H920 C897 0.950 . S
H921 C899 0.950 . S
C922 C923 1.349 . S
C922 C924 1.327 . S
C922 H947 0.950 . S
C923 C922 1.349 . S
C923 C939 1.349 . S
C924 C922 1.327 . S
C924 C943 1.429 . S
C924 H948 0.950 . S
C925 C942 1.574 . S
C925 C944 1.368 . S
C925 H949 0.949 . S
H926 C930 0.949 . S
C927 C928 1.349 . S
C927 C929 1.327 . S
C927 H950 0.950 . S
C928 C927 1.349 . S
C928 C940 1.349 . S
C929 C927 1.327 . S
C929 C945 1.429 . S
C929 H951 0.950 . S
C930 H926 0.949 . S
C930 C938 1.574 . S
C930 C946 1.368 . S
H931 C939 0.950 . S
H932 C937 0.950 . S
H933 C938 0.949 . S
H934 C940 0.950 . S
H935 C941 0.950 . S
H936 C942 0.949 . S
C937 H932 0.950 . S
C937 C939 1.327 . S
C937 C943 1.429 . S
C938 C930 1.574 . S
C938 H933 0.949 . S
C938 C944 1.368 . S
C939 C923 1.349 . S
C939 H931 0.950 . S
C939 C937 1.327 . S
C940 C928 1.349 . S
C940 H934 0.950 . S
C940 C941 1.327 . S
C941 H935 0.950 . S
C941 C940 1.327 . S
C941 C945 1.429 . S
C942 C925 1.574 . S
C942 H936 0.949 . S
C942 C946 1.368 . S
C943 C924 1.429 . S
C943 C937 1.429 . S
C943 C944 1.523 . S
C944 C925 1.368 . S
C944 C938 1.368 . S
C944 C943 1.523 . S
C945 C929 1.429 . S
C945 C941 1.429 . S
C945 C946 1.523 . S
C946 C930 1.368 . S
C946 C942 1.368 . S
C946 C945 1.523 . S
H947 C922 0.950 . S
H948 C924 0.950 . S
H949 C925 0.949 . S
H950 C927 0.950 . S
H951 C929 0.950 . S
C233 C5 1.038 . S
C238 C79 1.051 . S
C263 C14 0.918 . S
C268 C128 0.917 . S
C298 C154 2.437 . S
C293 C25 2.465 . S
C323 C34 2.367 . S
C328 C202 2.313 . S
C358 C114 2.123 . S
C353 C7 2.067 . S
C388 C82 0.842 . S
C383 C13 0.854 . S
C418 C203 1.880 . S
C413 C23 1.907 . S
C448 C171 1.557 . S
C443 C31 1.587 . S
C473 C4 1.493 . S
C478 C199 1.520 . S
C508 C131 2.309 . S
C503 C22 2.375 . S
C533 C32 2.339 . S
C538 C83 2.332 . S
C563 C16 0.748 . S
C568 C168 0.748 . S
C598 C88 1.036 . S
C593 C41 1.023 . S
C623 C50 0.928 . S
C628 C119 0.926 . S
C653 C61 2.458 . S
C658 C163 2.430 . S
C683 C67 2.379 . S
C688 C211 2.325 . S
C713 C40 2.090 . S
C718 C123 2.145 . S
C748 C91 0.814 . S
C743 C52 0.822 . S
C778 C194 1.890 . S
C773 C59 1.919 . S
C808 C162 1.554 . S
C803 C70 1.582 . S
C833 C43 1.488 . S
C838 C208 1.516 . S
C868 C122 2.322 . S
C863 C58 2.388 . S
C898 C74 2.309 . S
C893 C68 2.315 . S
C923 C49 0.754 . S
C928 C159 0.754 . S
