# Generated by pormake.
# Topology zzz, (3,6)-cn, num edge types: 1
# Building blocks:
#     Node 0, Type 0, BuildingBlock: QEWDON_clean_linker_0, # of connection points: 3
#     Node 1, Type 0, BuildingBlock: QEWDON_clean_linker_0, # of connection points: 3
#     Node 2, Type 0, BuildingBlock: QEWDON_clean_linker_0, # of connection points: 3
#     Node 3, Type 0, BuildingBlock: QEWDON_clean_linker_0, # of connection points: 3
#     Node 4, Type 0, BuildingBlock: QEWDON_clean_linker_0, # of connection points: 3
#     Node 5, Type 0, BuildingBlock: QEWDON_clean_linker_0, # of connection points: 3
#     Node 6, Type 0, BuildingBlock: QEWDON_clean_linker_0, # of connection points: 3
#     Node 7, Type 0, BuildingBlock: QEWDON_clean_linker_0, # of connection points: 3
#     Node 8, Type 1, BuildingBlock: KUMJIN_clean_sbu_0, # of connection points: 6
#     Node 9, Type 1, BuildingBlock: KUMJIN_clean_sbu_0, # of connection points: 6
#     Node 10, Type 1, BuildingBlock: KUMJIN_clean_sbu_0, # of connection points: 6
#     Node 11, Type 1, BuildingBlock: KUMJIN_clean_sbu_0, # of connection points: 6
#     Edge 12, Type (0, 1), BuildingBlock: KIFKEQ_clean_linker_1, # of connection points: 2
#     Edge 13, Type (0, 1), BuildingBlock: KIFKEQ_clean_linker_1, # of connection points: 2
#     Edge 14, Type (0, 1), BuildingBlock: KIFKEQ_clean_linker_1, # of connection points: 2
#     Edge 15, Type (0, 1), BuildingBlock: KIFKEQ_clean_linker_1, # of connection points: 2
#     Edge 16, Type (0, 1), BuildingBlock: KIFKEQ_clean_linker_1, # of connection points: 2
#     Edge 17, Type (0, 1), BuildingBlock: KIFKEQ_clean_linker_1, # of connection points: 2
#     Edge 18, Type (0, 1), BuildingBlock: KIFKEQ_clean_linker_1, # of connection points: 2
#     Edge 19, Type (0, 1), BuildingBlock: KIFKEQ_clean_linker_1, # of connection points: 2
#     Edge 20, Type (0, 1), BuildingBlock: KIFKEQ_clean_linker_1, # of connection points: 2
#     Edge 21, Type (0, 1), BuildingBlock: KIFKEQ_clean_linker_1, # of connection points: 2
#     Edge 22, Type (0, 1), BuildingBlock: KIFKEQ_clean_linker_1, # of connection points: 2
#     Edge 23, Type (0, 1), BuildingBlock: KIFKEQ_clean_linker_1, # of connection points: 2
#     Edge 24, Type (0, 1), BuildingBlock: KIFKEQ_clean_linker_1, # of connection points: 2
#     Edge 25, Type (0, 1), BuildingBlock: KIFKEQ_clean_linker_1, # of connection points: 2
#     Edge 26, Type (0, 1), BuildingBlock: KIFKEQ_clean_linker_1, # of connection points: 2
#     Edge 27, Type (0, 1), BuildingBlock: KIFKEQ_clean_linker_1, # of connection points: 2
#     Edge 28, Type (0, 1), BuildingBlock: KIFKEQ_clean_linker_1, # of connection points: 2
#     Edge 29, Type (0, 1), BuildingBlock: KIFKEQ_clean_linker_1, # of connection points: 2
#     Edge 30, Type (0, 1), BuildingBlock: KIFKEQ_clean_linker_1, # of connection points: 2
#     Edge 31, Type (0, 1), BuildingBlock: KIFKEQ_clean_linker_1, # of connection points: 2
#     Edge 32, Type (0, 1), BuildingBlock: KIFKEQ_clean_linker_1, # of connection points: 2
#     Edge 33, Type (0, 1), BuildingBlock: KIFKEQ_clean_linker_1, # of connection points: 2
#     Edge 34, Type (0, 1), BuildingBlock: KIFKEQ_clean_linker_1, # of connection points: 2
#     Edge 35, Type (0, 1), BuildingBlock: KIFKEQ_clean_linker_1, # of connection points: 2
# Relax obj value: 0.113
# Max RMSD: 0.151
# Mean RMSD: 0.075
data_MOF--net-zzz--node1-KUMJIN_clean_sbu_0--node2-QEWDON_clean_linker_0--edge1-KIFKEQ_clean_linker_1
_symmetry_space_group_name_H-M    P1
_symmetry_Int_Tables_number       1
_symmetry_cell_setting            triclinic
loop_
_symmetry_equiv_pos_as_xyz
'x, y, z'
_cell_length_a     55.473172
_cell_length_b     55.490731
_cell_length_c     14.591052
_cell_angle_alpha  91.096352
_cell_angle_beta   89.946706
_cell_angle_gamma 89.898103
loop_
_atom_site_label
_atom_site_type_symbol
_atom_site_fract_x
_atom_site_fract_y
_atom_site_fract_z
_atom_type_partial_charge
H0 H 0.76127 0.55845 0.09002 0.0
C1 C 0.77327 0.55392 0.14547 0.0
C2 C 0.79737 0.561 0.13858 0.0
C3 C 0.76482 0.54161 0.2228 0.0
H4 H 0.8323 0.5617 0.20225 0.0
C5 C 0.81359 0.55635 0.20949 0.0
C6 C 0.80651 0.54383 0.28715 0.0
C7 C 0.78206 0.53619 0.29337 0.0
C8 C 0.73807 0.53556 0.22995 0.0
H9 H 0.77674 0.52611 0.35272 0.0
C10 C 0.72238 0.53365 0.15165 0.0
C11 C 0.6972 0.52956 0.16176 0.0
C12 C 0.72752 0.53303 0.3171 0.0
H13 H 0.73806 0.53506 0.37902 0.0
C14 C 0.70289 0.52859 0.32682 0.0
H15 H 0.72946 0.53502 0.08292 0.0
C16 C 0.68791 0.52688 0.2503 0.0
H17 H 0.66883 0.52367 0.26041 0.0
H18 H 0.69525 0.52678 0.39465 0.0
H19 H 0.99668 0.77388 0.06712 0.0
C20 C 0.99885 0.78604 0.12528 0.0
C21 C 0.99747 0.81077 0.10929 0.0
C22 C 1.00226 0.77713 0.214 0.0
H23 H 0.99817 0.84652 0.16889 0.0
C24 C 0.99889 0.82738 0.18261 0.0
C25 C 1.00231 0.82002 0.27276 0.0
C26 C 1.00435 0.79467 0.28838 0.0
C27 C 1.00176 0.74975 0.22666 0.0
H28 H 1.00731 0.78888 0.35778 0.0
C29 C 1.00635 0.73242 0.15331 0.0
C30 C 1.00236 0.70719 0.16455 0.0
C31 C 0.99444 0.74057 0.31149 0.0
H32 H 0.99023 0.75246 0.36887 0.0
C33 C 0.99132 0.71586 0.32343 0.0
H34 H 1.01255 0.73827 0.08713 0.0
C35 C 0.9949 0.69947 0.251 0.0
H36 H 0.99183 0.68049 0.26274 0.0
H37 H 0.9855 0.70936 0.38934 0.0
H38 H 0.77541 0.98945 0.10989 0.0
C39 C 0.76242 0.99298 0.16379 0.0
C40 C 0.73818 0.98834 0.14436 0.0
C41 C 0.76977 1.0019 0.25025 0.0
H42 H 0.70191 0.98821 0.19628 0.0
C43 C 0.7207 0.99141 0.21303 0.0
C44 C 0.72666 1.00032 0.3006 0.0
C45 C 0.75131 1.00606 0.31843 0.0
C46 C 0.79663 1.00579 0.26811 0.0
H47 H 0.75587 1.0136 0.38505 0.0
C48 C 0.81407 1.00893 0.19604 0.0
C49 C 0.83925 1.01076 0.21469 0.0
C50 C 0.8054 1.00486 0.35844 0.0
H51 H 0.79345 1.00178 0.41556 0.0
C52 C 0.82997 1.00698 0.37716 0.0
H53 H 0.80834 1.01039 0.12562 0.0
C54 C 0.84665 1.00976 0.30667 0.0
H55 H 0.86558 1.01065 0.3245 0.0
H56 H 0.83622 1.00599 0.44726 0.0
H57 H 0.56475 0.78399 0.13371 0.0
C58 C 0.55953 0.77142 0.18588 0.0
C59 C 0.56452 0.74697 0.17026 0.0
C60 C 0.54884 0.77962 0.26841 0.0
H61 H 0.56257 0.71118 0.22459 0.0
C62 C 0.55904 0.73018 0.23773 0.0
C63 C 0.54826 0.73721 0.32054 0.0
C64 C 0.54294 0.76204 0.33575 0.0
C65 C 0.54575 0.80653 0.2849 0.0
H66 H 0.53435 0.76746 0.39948 0.0
C67 C 0.54318 0.82317 0.21156 0.0
C68 C 0.54391 0.84848 0.22796 0.0
C69 C 0.54765 0.81611 0.37461 0.0
H70 H 0.55014 0.8045 0.43257 0.0
C71 C 0.54754 0.84097 0.39113 0.0
H72 H 0.54124 0.81667 0.14159 0.0
C73 C 0.546 0.85697 0.3188 0.0
H74 H 0.54643 0.87616 0.33398 0.0
H75 H 0.54924 0.84793 0.46065 0.0
H76 H 0.27596 0.49043 0.21108 0.0
C77 C 0.26387 0.49484 0.1558 0.0
C78 C 0.23969 0.48822 0.16438 0.0
C79 C 0.27227 0.50659 0.07711 0.0
H80 H 0.20454 0.48772 0.10245 0.0
C81 C 0.22331 0.49273 0.09387 0.0
C82 C 0.23032 0.50464 0.01476 0.0
C83 C 0.25489 0.51184 0.00677 0.0
C84 C 0.2991 0.51223 0.0685 0.0
H85 H 0.26017 0.52148 0.9463 0.0
C86 C 0.31504 0.51428 0.14605 0.0
C87 C 0.34024 0.51809 0.13466 0.0
C88 C 0.30943 0.51427 0.98075 0.0
H89 H 0.29869 0.5121 0.91939 0.0
C90 C 0.33408 0.51841 0.96974 0.0
H91 H 0.30815 0.5133 0.21518 0.0
C92 C 0.34929 0.5203 0.04552 0.0
H93 H 0.36836 0.52327 0.03436 0.0
H94 H 0.34154 0.51985 0.90147 0.0
H95 H 0.05851 0.28159 0.19346 0.0
C96 C 0.05257 0.26766 0.14594 0.0
C97 C 0.06262 0.24467 0.15469 0.0
C98 C 0.03493 0.27251 0.07963 0.0
H99 H 0.06413 0.2084 0.09981 0.0
C100 C 0.05663 0.22629 0.09134 0.0
C101 C 0.03961 0.22976 0.02199 0.0
C102 C 0.02824 0.25292 0.01781 0.0
C103 C 0.02433 0.29805 0.0761 0.0
H104 H 0.01441 0.25542 0.96675 0.0
C105 C 0.02526 0.31524 0.15193 0.0
C106 C 0.01612 0.33923 0.14418 0.0
C107 C 1.014 0.30597 0.99393 0.0
H108 H 1.01338 0.29441 0.93353 0.0
C109 C 1.00482 0.32929 0.98658 0.0
H110 H 0.03245 0.31017 0.21759 0.0
C111 C 1.00581 0.34563 0.06029 0.0
H112 H 0.99868 0.36362 0.05116 0.0
H113 H 0.99703 0.33487 0.92236 0.0
H114 H 0.27127 0.06016 0.19546 0.0
C115 C 0.28419 0.0563 0.14179 0.0
C116 C 0.30837 0.06151 0.16051 0.0
C117 C 0.27694 0.04627 0.05679 0.0
H118 H 0.34461 0.06179 0.10824 0.0
C119 C 0.32587 0.05812 0.09212 0.0
C120 C 0.32005 0.04822 0.00596 0.0
C121 C 0.29554 0.04171 0.98935 0.0
C122 C 0.25011 0.04146 0.03957 0.0
H123 H 0.29131 0.03325 0.92407 0.0
C124 C 0.23232 0.04051 0.1117 0.0
C125 C 0.20718 0.03834 0.09233 0.0
C126 C 0.2417 0.03917 0.94879 0.0
H127 H 0.25373 0.04041 0.89089 0.0
C128 C 0.21729 0.0359 0.92977 0.0
H129 H 0.23756 0.0418 0.18281 0.0
C130 C 0.2003 0.03556 1.00006 0.0
H131 H 0.18155 0.03309 0.98163 0.0
H132 H 0.2114 0.03403 0.85928 0.0
H133 H 0.47924 0.26482 0.17819 0.0
C134 C 0.48421 0.27792 0.12778 0.0
C135 C 0.47796 0.3019 0.14597 0.0
C136 C 0.49643 0.27114 0.04633 0.0
H137 H 0.47806 0.33812 0.09856 0.0
C138 C 0.48321 0.31965 0.08243 0.0
C139 C 0.49593 0.31437 1.00157 0.0
C140 C 0.50244 0.28991 0.98341 0.0
C141 C 0.5024 0.24465 0.02799 0.0
H142 H 0.51276 0.28592 0.92212 0.0
C143 C 0.50309 0.22706 0.09898 0.0
C144 C 0.50685 0.2021 0.07901 0.0
C145 C 0.50632 0.23636 0.93738 0.0
H146 H 0.50528 0.24838 0.88012 0.0
C147 C 0.51109 0.21214 0.91783 0.0
H148 H 0.50045 0.23244 0.16972 0.0
C149 C 0.51138 0.19525 0.98727 0.0
H150 H 0.51529 0.17669 0.96848 0.0
H151 H 0.51427 0.2063 0.84762 0.0
Eu152 Eu 0.04276 0.01457 0.7346 0.0
C153 C 0.95526 1.00589 0.4841 0.0
C154 C 0.96779 0.97436 0.37741 0.0
C155 C 0.92525 0.97997 0.41101 0.0
C156 C 0.9735 0.99358 0.43858 0.0
C157 C 0.93089 0.99958 0.46914 0.0
C158 C 0.94367 0.96734 0.36543 0.0
C159 C 0.91922 0.03376 0.56405 0.0
N160 N 0.9612 0.02486 0.53927 0.0
C161 C 0.94356 0.0393 0.57681 0.0
C162 C 0.91284 1.01361 0.51092 0.0
Eu163 Eu 1.00286 0.03318 0.56062 0.0
N164 N 0.99665 1.00102 0.4508 0.0
C165 C 0.01473 0.99046 0.39984 0.0
C166 C 0.98638 0.9631 0.32814 0.0
C167 C 1.00988 0.97141 0.33855 0.0
H168 H 0.94839 0.05492 0.61819 0.0
H169 H 0.02439 0.96298 0.3 0.0
H170 H 0.93904 0.95252 0.31931 0.0
H171 H 0.90541 0.045 0.59535 0.0
H172 H 0.03324 0.99575 0.40696 0.0
H173 H 0.01484 0.97123 0.05121 0.0
H174 H 0.98273 0.94828 0.28077 0.0
H175 H 0.07799 0.06505 0.71439 0.0
H176 H 0.02337 0.97371 0.88575 0.0
H177 H 0.09169 0.09881 0.81003 0.0
H178 H 0.90667 0.97476 0.39925 0.0
H179 H 0.02314 1.00617 0.154 0.0
H180 H 0.03991 0.04784 0.17445 0.0
H181 H 0.89395 1.00938 0.50084 0.0
H182 H 0.06061 0.08259 0.10851 0.0
N183 N 0.03566 1.01005 0.89388 0.0
C184 C 0.02702 0.98913 0.92978 0.0
C185 C 0.02681 1.00741 0.08126 0.0
C186 C 0.0369 0.02828 0.04496 0.0
C187 C 0.02215 0.98764 0.02353 0.0
C188 C 0.04134 0.02901 0.94969 0.0
H189 H 0.08026 0.10154 0.97346 0.0
N190 N 0.05825 0.04803 0.82119 0.0
C191 C 0.0807 0.08486 0.83966 0.0
C192 C 0.05296 0.04858 0.91229 0.0
C193 C 0.07278 0.06541 0.78535 0.0
C194 C 0.07413 0.0864 0.93174 0.0
C195 C 0.06053 0.06792 0.96971 0.0
O196 O 0.0736 0.99803 0.66473 0.0
O197 O 0.02389 1.00115 0.60596 0.0
O198 O 0.979 0.01951 0.67785 0.0
O199 O 1.00512 0.01664 0.80153 0.0
O200 O 0.02072 0.98 0.71832 0.0
O201 O 0.06967 0.99331 0.80871 0.0
O202 O 0.98247 0.05816 0.47506 0.0
O203 O 0.02714 0.04792 0.6736 0.0
O204 O 0.06497 0.03323 0.62405 0.0
O205 O 0.04049 0.02875 0.49711 0.0
O206 O 0.99236 0.06063 0.67215 0.0
O207 O 0.02091 0.06024 0.47868 0.0
C208 C 0.01521 0.98131 0.63307 0.0
C209 C 0.08563 0.96099 0.71931 0.0
C210 C 0.07029 0.91981 0.71773 0.0
C211 C 0.06749 0.94443 0.73913 0.0
C212 C 0.09164 0.91202 0.67411 0.0
C213 C 0.10677 0.953 0.67581 0.0
C214 C 0.10972 0.92858 0.65328 0.0
C215 C 0.98303 0.01662 0.76657 0.0
C216 C 0.08146 0.98684 0.73536 0.0
C217 C 0.05511 0.06779 0.06376 0.0
C218 C 0.04334 0.048 0.10132 0.0
C219 C 1.01278 0.06282 0.71308 0.0
C220 C 1.00022 0.09695 0.4887 0.0
C221 C 0.021 0.1111 0.48066 0.0
C222 C 0.0216 0.13498 0.5146 0.0
C223 C 1.00102 0.14436 0.55932 0.0
C224 C 0.97985 0.10672 0.53319 0.0
C225 C 0.98038 0.13025 0.56871 0.0
C226 C 0.06204 0.0324 0.53391 0.0
C227 C 1.00115 0.07139 0.45885 0.0
H228 H 0.05106 0.95085 0.77088 0.0
H229 H 0.09467 0.89313 0.65804 0.0
H230 H 0.1208 0.96567 0.65823 0.0
H231 H 0.12611 0.92245 0.61983 0.0
H232 H 0.0369 0.10323 0.44893 0.0
H233 H 1.00052 0.16279 0.58482 0.0
H234 H 0.96367 0.09613 0.54202 0.0
H235 H 0.96465 0.13765 0.60305 0.0
Eu236 Eu 0.52968 0.04596 0.74247 0.0
C237 C 0.56343 0.97633 0.4735 0.0
C238 C 0.58045 1.0014 0.35603 0.0
C239 C 0.60014 0.96382 0.39347 0.0
C240 C 0.56266 0.99715 0.42343 0.0
C241 C 0.58181 0.95907 0.45688 0.0
C242 C 0.5995 0.985 0.34329 0.0
C243 C 0.56104 0.93221 0.55738 0.0
N244 N 0.54541 0.97218 0.53406 0.0
C245 C 0.54316 0.94971 0.57051 0.0
C246 C 0.58079 0.93712 0.502 0.0
Eu247 Eu 0.51647 1.00379 0.55997 0.0
N248 N 0.54398 1.01268 0.43733 0.0
C249 C 0.54061 0.03101 0.37692 0.0
C250 C 0.57824 0.02166 0.30143 0.0
C251 C 0.55791 0.0362 0.31055 0.0
H252 H 0.5273 0.94477 0.60827 0.0
H253 H 0.55523 0.05113 0.26493 0.0
H254 H 0.61346 0.98821 0.29298 0.0
H255 H 0.55929 0.91476 0.58862 0.0
H256 H 0.52429 0.04136 0.3757 0.0
H257 H 0.48471 1.00267 0.03388 0.0
H258 H 0.59152 0.02557 0.24928 0.0
H259 H 0.52219 0.10498 0.68286 0.0
H260 H 0.51683 1.00915 0.92475 0.0
H261 H 0.49153 0.13653 0.69409 0.0
H262 H 0.61453 0.95094 0.38098 0.0
H263 H 0.45045 0.031 0.04436 0.0
H264 H 0.43125 0.06915 0.99379 0.0
H265 H 0.59451 0.92344 0.49106 0.0
H266 H 0.43284 0.10538 0.90001 0.0
N267 N 0.50037 0.0395 0.86125 0.0
C268 C 0.50168 0.02108 0.92235 0.0
C269 C 0.4644 0.03369 0.99355 0.0
C270 C 0.464 0.05363 0.93675 0.0
C271 C 0.48359 0.0176 0.98741 0.0
C272 C 0.48261 0.05627 0.87121 0.0
H273 H 0.45512 0.13059 0.78837 0.0
N274 N 0.50216 0.07923 0.75938 0.0
C275 C 0.48869 0.11957 0.72785 0.0
C276 C 0.4834 0.07658 0.81807 0.0
C277 C 0.50582 0.10117 0.7198 0.0
C278 C 0.46825 0.11619 0.78134 0.0
C279 C 0.46576 0.09485 0.82961 0.0
O280 O 0.54813 0.07748 0.80049 0.0
O281 O 0.54732 0.01968 0.64121 0.0
O282 O 0.52075 0.98125 0.68748 0.0
O283 O 0.53853 1.00771 0.79216 0.0
O284 O 0.56085 0.05453 0.64813 0.0
O285 O 0.55417 0.04253 0.85845 0.0
O286 O 0.49756 0.9718 0.50826 0.0
O287 O 0.49887 0.02958 0.66256 0.0
O288 O 0.52772 0.06752 0.61229 0.0
O289 O 0.50578 0.04223 0.51631 0.0
O290 O 0.48599 0.99449 0.65649 0.0
O291 O 0.49189 1.00597 0.44373 0.0
C292 C 0.56396 0.03341 0.6117 0.0
C293 C 0.5881 0.06751 0.83519 0.0
C294 C 0.62737 0.0501 0.79592 0.0
C295 C 0.60265 0.04742 0.81382 0.0
C296 C 0.63708 0.07351 0.79363 0.0
C297 C 0.5982 0.09065 0.8337 0.0
C298 C 0.62251 0.0936 0.81182 0.0
C299 C 0.5312 0.98576 0.76719 0.0
C300 C 0.56205 0.06454 0.85152 0.0
C301 C 0.44667 0.0917 0.89137 0.0
C302 C 0.44581 0.07113 0.94491 0.0
C303 C 0.48266 0.01554 0.6932 0.0
C304 C 0.45768 0.98181 0.47237 0.0
C305 C 0.44348 1.00231 0.49141 0.0
C306 C 0.41877 1.0002 0.51059 0.0
C307 C 0.4087 0.97701 0.51644 0.0
C308 C 0.44722 0.95889 0.47744 0.0
C309 C 0.42292 0.95654 0.50052 0.0
C310 C 0.51515 0.06367 0.53701 0.0
C311 C 0.48374 0.98421 0.45498 0.0
H312 H 0.59483 0.02954 0.81227 0.0
H313 H 0.65614 0.07632 0.78186 0.0
H314 H 0.58722 0.10643 0.84829 0.0
H315 H 0.63021 0.1115 0.81081 0.0
H316 H 0.45158 0.02006 0.49025 0.0
H317 H 0.38964 0.97462 0.52934 0.0
H318 H 0.45793 0.94282 0.46474 0.0
H319 H 0.41495 0.9388 0.50431 0.0
Eu320 Eu 0.54112 0.51544 0.55548 0.0
C321 C 0.44529 0.51459 0.79252 0.0
C322 C 0.41576 0.53475 0.6992 0.0
C323 C 0.40261 0.50596 0.81206 0.0
C324 C 0.43998 0.53047 0.72398 0.0
C325 C 0.42665 0.50255 0.839 0.0
C326 C 0.39717 0.52199 0.74204 0.0
C327 C 0.45668 0.4864 0.94066 0.0
N328 N 0.46862 0.51201 0.81765 0.0
C329 C 0.47448 0.49869 0.89239 0.0
C330 C 0.43266 0.48809 0.91312 0.0
Eu331 Eu 0.49833 0.53299 0.73344 0.0
N332 N 0.45837 0.54284 0.6855 0.0
C333 C 0.4534 0.56113 0.62675 0.0
C334 C 0.41085 0.55233 0.63448 0.0
C335 C 0.42975 0.56582 0.59917 0.0
H336 H 0.49304 0.49711 0.9138 0.0
H337 H 0.42613 0.57983 0.55041 0.0
H338 H 0.3785 0.52492 0.72344 0.0
H339 H 0.46151 0.47559 0.99882 0.0
H340 H 0.46753 0.57179 0.59773 0.0
H341 H 0.60973 0.46365 0.73837 0.0
H342 H 0.39253 0.55608 0.61328 0.0
H343 H 0.54951 0.55607 0.39145 0.0
H344 H 0.56923 0.47302 0.68367 0.0
H345 H 0.58258 0.57998 0.32525 0.0
H346 H 0.38805 0.49677 0.84651 0.0
H347 H 0.6443 0.48892 0.69408 0.0
H348 H 0.66018 0.52301 0.60155 0.0
H349 H 0.41887 0.47862 0.95074 0.0
H350 H 0.65287 0.55456 0.48876 0.0
N351 N 0.57994 0.50414 0.61008 0.0
C352 C 0.58384 0.48439 0.66284 0.0
C353 C 0.6264 0.49324 0.66955 0.0
C354 C 0.62264 0.51252 0.61092 0.0
C355 C 0.60696 0.47891 0.69447 0.0
C356 C 0.59893 0.51749 0.58141 0.0
H357 H 0.62411 0.57565 0.38444 0.0
N358 N 0.57204 0.53884 0.4884 0.0
C359 C 0.58628 0.56759 0.37991 0.0
C360 C 0.59484 0.53536 0.51863 0.0
C361 C 0.56764 0.55399 0.41731 0.0
C362 C 0.60967 0.56516 0.41372 0.0
C363 C 0.61428 0.54863 0.48285 0.0
O364 O 0.54191 0.50831 0.40837 0.0
O365 O 0.50159 0.51848 0.58989 0.0
O366 O 0.49469 0.4921 0.71839 0.0
O367 O 0.52998 0.48222 0.63901 0.0
O368 O 0.5122 0.53169 0.46505 0.0
O369 O 0.54496 0.47861 0.50186 0.0
O370 O 0.50152 0.5441 0.87712 0.0
O371 O 0.53772 0.52896 0.69913 0.0
O372 O 0.54507 0.55611 0.58049 0.0
O373 O 0.50731 0.56495 0.64045 0.0
O374 O 0.52682 0.5155 0.82271 0.0
O375 O 0.49721 0.57111 0.77395 0.0
C376 C 0.49383 0.52762 0.5164 0.0
C377 C 0.52257 0.4724 0.36416 0.0
C378 C 0.49038 0.44244 0.35109 0.0
C379 C 0.50786 0.45477 0.40389 0.0
C380 C 0.48727 0.44893 0.2587 0.0
C381 C 0.51907 0.47839 0.27216 0.0
C382 C 0.50132 0.4669 0.22021 0.0
C383 C 0.51091 0.47609 0.68894 0.0
C384 C 0.54144 0.48504 0.41726 0.0
C385 C 0.63774 0.54443 0.51488 0.0
C386 C 0.6419 0.52645 0.57901 0.0
C387 C 0.54529 0.5192 0.77153 0.0
C388 C 0.52704 0.5781 0.88702 0.0
C389 C 0.53392 0.60043 0.85163 0.0
C390 C 0.55623 0.61087 0.87513 0.0
C391 C 0.57204 0.5981 0.93214 0.0
C392 C 0.54297 0.56599 0.9455 0.0
C393 C 0.56541 0.57583 0.96675 0.0
C394 C 0.52768 0.57175 0.60069 0.0
C395 C 0.5042 0.5667 0.85726 0.0
H396 H 0.51024 0.45048 0.47538 0.0
H397 H 0.47466 0.43954 0.21428 0.0
H398 H 0.53011 0.49199 0.24036 0.0
H399 H 0.49883 0.47153 0.14909 0.0
H400 H 0.5218 0.60975 0.80605 0.0
H401 H 0.58914 0.6057 0.95352 0.0
H402 H 0.53834 0.54869 0.97369 0.0
H403 H 0.57762 0.56628 0.01118 0.0
Eu404 Eu 0.02505 0.54541 0.56506 0.0
C405 C 0.03544 0.45165 0.78711 0.0
C406 C 0.01512 0.42073 0.69725 0.0
C407 C 0.04836 0.40984 0.7965 0.0
C408 C 0.01803 0.44518 0.72372 0.0
C409 C 0.05041 0.43398 0.826 0.0
C410 C 0.03076 0.40323 0.73214 0.0
C411 C 0.06675 0.46488 0.92674 0.0
N412 N 0.0368 0.47505 0.81486 0.0
C413 C 0.05154 0.48172 0.88622 0.0
C414 C 0.06646 0.44095 0.89555 0.0
Eu415 Eu 1.011 0.50294 0.7414 0.0
N416 N 1.00304 0.46252 0.69202 0.0
C417 C 0.98355 0.45616 0.63957 0.0
C418 C 0.99609 0.41447 0.6388 0.0
C419 C 0.98002 0.43222 0.61105 0.0
H420 H 0.05204 0.50027 0.91003 0.0
H421 H 0.96493 0.42751 0.56732 0.0
H422 H 0.02893 0.38444 0.71181 0.0
H423 H 0.07875 0.47039 0.98168 0.0
H424 H 0.97087 0.46939 0.61676 0.0
H425 H 0.07006 0.62065 0.74425 0.0
H426 H 0.9933 0.39594 0.61665 0.0
H427 H 0.98442 0.54837 0.39495 0.0
H428 H 0.06477 0.57891 0.69151 0.0
H429 H 0.95756 0.57828 0.32425 0.0
H430 H 0.05985 0.39605 0.8249 0.0
H431 H 0.04121 0.65205 0.69728 0.0
H432 H 1.0056 0.66356 0.60192 0.0
H433 H 0.07822 0.42791 0.92715 0.0
H434 H 0.97514 0.65212 0.48679 0.0
N435 N 0.03254 0.58574 0.61663 0.0
C436 C 0.05192 0.5921 0.66963 0.0
C437 C 0.03872 0.63359 0.67365 0.0
C438 C 0.01986 0.62737 0.61433 0.0
C439 C 0.05506 0.61594 0.70004 0.0
C440 C 0.01734 0.60302 0.58597 0.0
H441 H 0.95745 0.62052 0.38158 0.0
N442 N 0.99917 0.57336 0.49216 0.0
C443 C 0.96936 0.58368 0.37996 0.0
C444 C 1.00016 0.59664 0.52157 0.0
C445 C 0.98466 0.56683 0.41993 0.0
C446 C 0.96929 0.60747 0.41274 0.0
C447 C 0.98506 0.61431 0.48338 0.0
O448 O 0.03294 0.54731 0.4193 0.0
O449 O 0.02401 0.50567 0.59704 0.0
O450 O 0.05171 0.50084 0.71765 0.0
O451 O 0.05875 0.53824 0.65494 0.0
O452 O 1.00997 0.51537 0.47286 0.0
O453 O 0.06215 0.54931 0.51719 0.0
O454 O 1.00332 0.50136 0.88742 0.0
O455 O 1.01187 0.54251 0.7088 0.0
O456 O 0.98433 0.54738 0.58821 0.0
O457 O 0.97733 0.50999 0.65116 0.0
O458 O 0.02616 0.53328 0.83278 0.0
O459 O 0.97392 0.49959 0.79026 0.0
C460 C 0.01475 0.49726 0.52346 0.0
C461 C 0.06866 0.52741 0.37735 0.0
C462 C 0.09817 0.49469 0.36418 0.0
C463 C 0.08586 0.51222 0.41751 0.0
C464 C 0.09188 0.49188 0.27076 0.0
C465 C 0.06291 0.52424 0.28431 0.0
C466 C 0.07424 0.50635 0.2318 0.0
C467 C 0.06651 0.51871 0.69764 0.0
C468 C 0.05613 0.54634 0.43126 0.0
C469 C 0.98672 0.63834 0.51467 0.0
C470 C 1.00406 0.64485 0.5802 0.0
C471 C 0.0211 0.55123 0.78176 0.0
C472 C 0.96803 0.52204 0.92928 0.0
C473 C 0.95116 0.53751 0.88868 0.0
C474 C 0.9392 0.5554 0.94149 0.0
C475 C 0.94565 0.55834 0.03472 0.0
C476 C 0.97393 0.52536 0.02211 0.0
C477 C 0.96304 0.54363 0.07401 0.0
C478 C 0.96957 0.52949 0.60823 0.0
C479 C 0.98013 0.50271 0.87594 0.0
H480 H 0.08988 0.51432 0.48978 0.0
H481 H 0.10123 0.47925 0.22588 0.0
H482 H 0.0496 0.53562 0.25218 0.0
H483 H 0.06979 0.5041 0.15991 0.0
H484 H 0.9471 0.53532 0.81648 0.0
H485 H 0.93659 0.57125 0.07932 0.0
H486 H 0.98702 0.51378 0.05454 0.0
H487 H 0.9676 0.54599 0.14576 0.0
H488 H 0.20552 0.0177 0.26567 0.0
H489 H 0.16356 0.06179 0.08495 0.0
H490 H 0.1714 0.01672 0.37307 0.0
H491 H 0.12983 0.06082 0.19079 0.0
H492 H 0.06377 0.03362 0.3448 0.0
H493 H 0.09891 0.0355 0.24479 0.0
H494 H 0.14554 0.03777 0.48146 0.0
H495 H 0.11026 0.03555 0.58165 0.0
C496 C 0.18922 0.02743 0.24903 0.0
C497 C 0.1875 0.0395 0.16504 0.0
C498 C 0.16948 0.02685 0.31083 0.0
C499 C 0.14732 0.03833 0.2909 0.0
C500 C 0.14607 0.0511 0.20848 0.0
C501 C 0.16567 0.05172 0.14729 0.0
C502 C 0.08146 0.03462 0.37597 0.0
C503 C 0.08385 0.03453 0.47216 0.0
C504 C 0.10182 0.03583 0.31816 0.0
C505 C 0.12549 0.0369 0.35397 0.0
C506 C 0.12786 0.03673 0.45031 0.0
C507 C 0.10745 0.03566 0.50822 0.0
H508 H 0.52142 0.20427 0.26186 0.0
H509 H 0.48969 0.15555 0.06199 0.0
H510 H 0.5214 0.17215 0.37372 0.0
H511 H 0.49135 0.1232 0.17049 0.0
H512 H 0.48097 0.07034 0.40142 0.0
H513 H 0.47701 0.1042 0.29771 0.0
H514 H 0.54003 0.13726 0.42005 0.0
H515 H 0.54321 0.10404 0.52516 0.0
C516 C 0.5144 0.1868 0.24133 0.0
C517 C 0.50587 0.1828 0.15136 0.0
C518 C 0.51473 0.16806 0.30554 0.0
C519 C 0.50664 0.14455 0.28223 0.0
C520 C 0.49758 0.14082 0.19287 0.0
C521 C 0.49704 0.15953 0.12929 0.0
C522 C 0.49389 0.08491 0.40636 0.0
C523 C 0.5123 0.08435 0.47258 0.0
C524 C 0.49176 0.10443 0.34617 0.0
C525 C 0.50818 0.12395 0.3492 0.0
C526 C 0.5266 0.12318 0.4157 0.0
C527 C 0.52853 0.10386 0.47628 0.0
H528 H 0.35929 0.48183 0.23946 0.0
H529 H 0.36278 0.55843 0.20116 0.0
H530 H 0.39455 0.48411 0.34107 0.0
H531 H 0.39725 0.56111 0.30468 0.0
H532 H 0.47656 0.55471 0.37964 0.0
H533 H 0.43817 0.55245 0.30066 0.0
H534 H 0.41541 0.49582 0.48017 0.0
H535 H 0.4548 0.49776 0.5581 0.0
C536 C 0.36709 0.4993 0.2553 0.0
C537 C 0.35791 0.52 0.21293 0.0
C538 C 0.38746 0.50065 0.31359 0.0
C539 C 0.39938 0.52277 0.3311 0.0
C540 C 0.38925 0.54358 0.29197 0.0
C541 C 0.36911 0.54217 0.23339 0.0
C542 C 0.46333 0.54188 0.40313 0.0
C543 C 0.46881 0.52673 0.47651 0.0
C544 C 0.44101 0.54069 0.35796 0.0
C545 C 0.42307 0.52414 0.38369 0.0
C546 C 0.42855 0.50879 0.45738 0.0
C547 C 0.45111 0.51004 0.50303 0.0
H548 H 0.97794 0.36366 0.22011 0.0
H549 H 0.05524 0.35936 0.23802 0.0
H550 H 0.97795 0.39915 0.32064 0.0
H551 H 0.05556 0.39579 0.33711 0.0
H552 H 0.04673 0.45882 0.55466 0.0
H553 H 0.04758 0.41904 0.47605 0.0
H554 H 0.9859 0.43982 0.3153 0.0
H555 H 0.98481 0.47856 0.39495 0.0
C556 C 0.99503 0.37013 0.24659 0.0
C557 C 0.01655 0.35828 0.22062 0.0
C558 C 0.99512 0.39092 0.30375 0.0
C559 C 0.01681 0.40125 0.3367 0.0
C560 C 0.03837 0.38872 0.31424 0.0
C561 C 0.03823 0.36762 0.2573 0.0
C562 C 0.0331 0.45461 0.50376 0.0
C563 C 0.01528 0.47189 0.48326 0.0
C564 C 0.03373 0.43179 0.45746 0.0
C565 C 0.0166 0.4255 0.3889 0.0
C566 C 0.99908 0.44312 0.36868 0.0
C567 C 0.99852 0.46569 0.41436 0.0
H568 H 0.87926 0.04002 0.216 0.0
H569 H 0.84345 0.98677 0.04607 0.0
H570 H 0.91281 0.04086 0.10901 0.0
H571 H 0.87743 0.98726 0.93848 0.0
H572 H 0.93539 1.00686 0.72386 0.0
H573 H 0.90038 1.00658 0.82518 0.0
H574 H 0.94693 0.02018 0.05747 0.0
H575 H 0.98163 0.02169 0.95527 0.0
C576 C 0.87849 0.02839 0.15562 0.0
C577 C 0.85842 1.01319 0.14093 0.0
C578 C 0.89802 0.02873 0.09395 0.0
C579 C 0.89851 1.01382 0.01455 0.0
C580 C 0.87801 0.99918 0.99798 0.0
C581 C 0.85832 0.99892 0.05991 0.0
C582 C 0.93819 1.01008 0.79639 0.0
C583 C 0.9616 0.01462 0.83029 0.0
C584 C 0.91797 1.0096 0.85527 0.0
C585 C 0.92031 1.01357 0.95077 0.0
C586 C 0.94389 0.01755 0.98471 0.0
C587 C 0.96407 0.0181 0.92576 0.0
H588 H 0.50946 0.85486 0.09419 0.0
H589 H 0.5768 0.8837 0.19285 0.0
H590 H 0.50641 0.8876 0.98523 0.0
H591 H 0.57484 0.91557 0.0809 0.0
H592 H 0.55625 0.98438 0.93135 0.0
H593 H 0.5592 0.9514 0.03848 0.0
H594 H 0.51669 0.90651 0.85517 0.0
H595 H 0.51202 0.94007 0.75339 0.0
C596 C 0.52393 0.86791 0.09099 0.0
C597 C 0.54338 0.86655 0.15233 0.0
C598 C 0.52229 0.88684 0.028 0.0
C599 C 0.5403 0.90486 0.02295 0.0
C600 C 0.56015 0.90281 0.08287 0.0
C601 C 0.5615 0.8842 0.14682 0.0
C602 C 0.54746 0.96749 0.91399 0.0
C603 C 0.53417 0.9651 0.83214 0.0
C604 C 0.54936 0.94825 0.97545 0.0
C605 C 0.53835 0.92567 0.95683 0.0
C606 C 0.52524 0.92337 0.8743 0.0
C607 C 0.52296 0.94272 0.81402 0.0
H608 H 0.67683 0.56632 0.06373 0.0
H609 H 0.67653 0.48915 0.087 0.0
H610 H 0.64192 0.56394 0.96045 0.0
H611 H 0.64238 0.48643 0.9818 0.0
H612 H 0.58336 0.55075 0.73741 0.0
H613 H 0.62235 0.55311 0.81773 0.0
H614 H 0.60097 0.49359 0.98591 0.0
H615 H 0.5629 0.49098 0.90439 0.0
C616 C 0.66982 0.54876 0.0442 0.0
C617 C 0.6798 0.5279 0.08269 0.0
C618 C 0.64966 0.54735 0.98494 0.0
C619 C 0.63875 0.52499 0.96264 0.0
C620 C 0.64963 0.50409 0.99815 0.0
C621 C 0.66959 0.50555 0.05765 0.0
C622 C 0.58732 0.53787 0.79015 0.0
C623 C 0.57014 0.52024 0.81262 0.0
C624 C 0.60961 0.53938 0.83732 0.0
C625 C 0.61535 0.52337 0.90859 0.0
C626 C 0.59791 0.50591 0.93047 0.0
C627 C 0.57582 0.50447 0.88382 0.0
H628 H 0.96738 0.67776 0.09154 0.0
H629 H 0.04337 0.69212 0.07019 0.0
H630 H 0.9719 0.64233 0.99019 0.0
H631 H 0.0481 0.65639 0.96914 0.0
H632 H 0.05066 0.57301 0.90633 0.0
H633 H 0.0465 0.61207 0.98502 0.0
H634 H 0.98125 0.6256 0.83382 0.0
H635 H 0.98575 0.58631 0.75377 0.0
C636 C 0.98503 0.67368 0.06343 0.0
C637 C 1.00492 0.68823 0.08859 0.0
C638 C 0.98765 0.65322 1.00502 0.0
C639 C 1.01041 0.64605 0.97077 0.0
C640 C 0.03026 0.66098 0.99414 0.0
C641 C 0.02754 0.68176 0.05146 0.0
C642 C 0.03557 0.58444 0.88871 0.0
C643 C 0.01882 0.57647 0.82211 0.0
C644 C 0.03322 0.60704 0.93385 0.0
C645 C 1.01358 0.62247 0.9164 0.0
C646 C 0.99664 0.61443 0.8499 0.0
C647 C 0.99929 0.5919 0.80315 0.0
H648 H 0.10371 0.2173 0.17476 0.0
H649 H 0.04985 0.25706 0.32903 0.0
H650 H 0.11066 0.1918 0.30646 0.0
H651 H 0.05619 0.23156 0.45809 0.0
H652 H 0.05086 0.13355 0.36381 0.0
H653 H 0.07841 0.16363 0.31505 0.0
H654 H 0.06823 0.20324 0.57033 0.0
H655 H 0.04051 0.17216 0.62139 0.0
C656 C 0.09418 0.22131 0.23811 0.0
C657 C 0.0753 0.23821 0.24018 0.0
C658 C 0.0982 0.20677 0.31373 0.0
C659 C 0.08277 0.20856 0.39025 0.0
C660 C 0.06794 0.22905 0.39937 0.0
C661 C 0.06416 0.24377 0.32445 0.0
C662 C 0.05517 0.14792 0.41219 0.0
C663 C 0.04275 0.15062 0.49575 0.0
C664 C 0.07133 0.16538 0.38404 0.0
C665 C 0.07519 0.18634 0.43773 0.0
C666 C 0.06524 0.18757 0.52642 0.0
C667 C 0.04909 0.16989 0.55512 0.0
H668 H 0.33764 0.09794 0.2242 0.0
H669 H 0.29747 0.03591 0.3108 0.0
H670 H 0.36203 0.09621 0.3631 0.0
H671 H 0.32234 0.03318 0.44573 0.0
H672 H 0.42336 0.03957 0.40325 0.0
H673 H 0.39242 0.0675 0.36495 0.0
H674 H 0.34653 0.0388 0.57636 0.0
H675 H 0.37831 1.01026 0.61566 0.0
C676 C 0.33349 0.08449 0.27467 0.0
C677 C 0.31632 0.06655 0.25568 0.0
C678 C 0.34747 0.0834 0.35411 0.0
C679 C 0.3451 0.06376 0.41329 0.0
C680 C 0.32511 0.04839 0.40162 0.0
C681 C 0.31081 0.04983 0.32341 0.0
C682 C 0.40721 0.03973 0.44495 0.0
C683 C 0.40298 0.02187 0.50998 0.0
C684 C 0.38921 0.05608 0.42299 0.0
C685 C 0.3664 0.05485 0.46486 0.0
C686 C 0.36356 0.03961 0.54021 0.0
C687 C 0.38169 0.02313 0.56233 0.0
H688 H 0.43261 0.31609 0.19758 0.0
H689 H 0.505 0.30717 0.29708 0.0
H690 H 0.42479 0.34617 0.31746 0.0
H691 H 0.49863 0.33845 0.41009 0.0
H692 H 0.44495 0.42587 0.3076 0.0
H693 H 0.43244 0.38469 0.31364 0.0
H694 H 0.49122 0.36961 0.49935 0.0
H695 H 0.50571 0.41013 0.48183 0.0
C696 C 0.44655 0.32002 0.24761 0.0
C697 C 0.46959 0.30998 0.23721 0.0
C698 C 0.44237 0.33773 0.3153 0.0
C699 C 0.46166 0.34672 0.369 0.0
C700 C 0.48327 0.33318 0.36898 0.0
C701 C 0.48712 0.31492 0.30367 0.0
C702 C 0.45539 0.41372 0.3492 0.0
C703 C 0.47756 0.42092 0.38706 0.0
C704 C 0.44788 0.38982 0.35456 0.0
C705 C 0.46208 0.37269 0.40036 0.0
C706 C 0.48095 0.3815 0.45632 0.0
C707 C 0.48908 0.40519 0.44771 0.0
H708 H 0.22591 0.44244 0.2056 0.0
H709 H 0.23109 0.51463 0.31676 0.0
H710 H 0.19624 0.43254 0.32199 0.0
H711 H 0.20025 0.50612 0.42684 0.0
H712 H 0.12978 0.50933 0.50195 0.0
H713 H 0.17077 0.49588 0.51806 0.0
H714 H 0.15721 0.43834 0.32031 0.0
H715 H 0.11555 0.44959 0.31548 0.0
C716 C 0.22114 0.45593 0.25714 0.0
C717 C 0.23011 0.47942 0.25154 0.0
C718 C 0.20376 0.45051 0.32308 0.0
C719 C 0.19403 0.46895 0.38012 0.0
C720 C 0.20626 0.49129 0.38354 0.0
C721 C 0.22416 0.49641 0.31978 0.0
C722 C 0.13512 0.49314 0.46479 0.0
C723 C 0.11968 0.48179 0.40074 0.0
C724 C 0.15907 0.48562 0.47273 0.0
C725 C 0.16837 0.46771 0.41266 0.0
C726 C 0.15162 0.45324 0.36409 0.0
C727 C 0.12745 0.46004 0.3595 0.0
H728 H 0.96736 0.84458 0.0382 0.0
H729 H 0.0271 0.79775 0.96849 0.0
H730 H 0.97632 0.86913 0.90533 0.0
H731 H 0.03621 0.82235 0.83663 0.0
H732 H 0.04257 0.92219 0.87224 0.0
H733 H 0.01485 0.89282 0.92837 0.0
H734 H 0.02832 0.84713 0.69084 0.0
H735 H 0.05561 0.8777 0.63026 0.0
C736 C 0.98177 0.83901 0.99226 0.0
C737 C 0.99704 0.81982 0.01476 0.0
C738 C 0.9868 0.85293 0.91608 0.0
C739 C 1.00734 0.84797 0.86246 0.0
C740 C 0.02029 0.82661 0.87688 0.0
C741 C 0.01516 0.81259 0.95282 0.0
C742 C 0.03902 0.90651 0.82914 0.0
C743 C 0.05151 0.90242 0.7464 0.0
C744 C 0.02295 0.88957 0.86163 0.0
C745 C 0.01924 0.86775 0.81359 0.0
C746 C 0.03082 0.86389 0.7289 0.0
C747 C 0.04666 0.88123 0.69507 0.0
H748 H 0.7487 0.01536 0.99757 0.0
H749 H 0.7094 0.95208 0.07657 0.0
H750 H 0.72409 0.0186 0.86204 0.0
H751 H 0.68537 0.95425 0.93682 0.0
H752 H 0.66832 0.04158 0.69172 0.0
H753 H 0.70052 1.01339 0.7298 0.0
H754 H 0.65439 0.98216 0.93511 0.0
H755 H 0.62306 1.00974 0.89801 0.0
C756 C 0.7356 1.00133 0.98309 0.0
C757 C 0.73026 0.98402 0.0488 0.0
C758 C 0.72147 1.00304 0.90452 0.0
C759 C 0.70183 0.98734 0.89043 0.0
C760 C 0.69964 0.96729 0.94771 0.0
C761 C 0.71341 0.96595 0.0276 0.0
C762 C 0.66499 0.02822 0.74337 0.0
C763 C 0.6435 0.02868 0.79461 0.0
C764 C 0.68337 1.01196 0.76481 0.0
C765 C 0.68056 0.99612 0.83838 0.0
C766 C 0.6576 0.99408 0.87856 0.0
C767 C 0.63937 1.01022 0.85727 0.0
H768 H 0.54643 0.7563 1.00096 0.0
H769 H 0.60276 0.71727 0.13792 0.0
H770 H 0.55111 0.73001 0.866 0.0
H771 H 0.60709 0.6907 1.00541 0.0
H772 H 0.60013 0.6312 0.83226 0.0
H773 H 0.61006 0.67382 0.85166 0.0
H774 H 0.53429 0.69041 0.88204 0.0
H775 H 0.52455 0.6485 0.86515 0.0
C776 C 0.56057 0.74281 1.00053 0.0
C777 C 0.57363 0.73809 0.08059 0.0
C778 C 0.56324 0.72772 0.92334 0.0
C779 C 0.57873 0.70763 0.92625 0.0
C780 C 0.59473 0.70575 1.00062 0.0
C781 C 0.5921 0.72083 0.07742 0.0
C782 C 0.58558 0.64409 0.84062 0.0
C783 C 0.56165 0.63627 0.85175 0.0
C784 C 0.59127 0.66854 0.8507 0.0
C785 C 0.57309 0.68543 0.87195 0.0
C786 C 0.54889 0.67801 0.86659 0.0
C787 C 0.54324 0.65366 0.85721 0.0
H788 H 0.80576 0.5357 0.98335 0.0
H789 H 0.81167 0.60696 0.1026 0.0
H790 H 0.83674 0.54471 0.87462 0.0
H791 H 0.84149 0.61745 0.98768 0.0
H792 H 0.90758 0.54114 0.80287 0.0
H793 H 0.86672 0.55478 0.78674 0.0
H794 H 0.88039 0.61197 0.98584 0.0
H795 H 0.92201 0.60064 0.99031 0.0
C796 C 0.81291 0.55386 0.98249 0.0
C797 C 0.8071 0.57037 0.05255 0.0
C798 C 0.83092 0.55928 0.91953 0.0
C799 C 0.84341 0.58146 0.92557 0.0
C800 C 0.83383 0.59956 0.98456 0.0
C801 C 0.81634 0.59381 0.04966 0.0
C802 C 0.90232 0.55729 0.84047 0.0
C803 C 0.91778 0.56848 0.90483 0.0
C804 C 0.8784 0.56489 0.8326 0.0
C805 C 0.86911 0.58271 0.89317 0.0
C806 C 0.88591 0.59708 0.94193 0.0
C807 C 0.91008 0.59022 0.9463 0.0
H808 H 0.07125 0.20303 0.91734 0.0
H809 H 0.99617 0.20559 0.99119 0.0
H810 H 0.06557 0.16355 0.84427 0.0
H811 H 0.99016 0.16593 0.91664 0.0
H812 H 0.99217 0.08314 0.86643 0.0
H813 H 0.99732 0.12382 0.9316 0.0
H814 H 0.05067 0.13856 0.7248 0.0
H815 H 0.04518 0.09789 0.65998 0.0
C816 C 0.05327 0.19545 0.91588 0.0
C817 C 0.03415 0.20804 0.95963 0.0
C818 C 0.04997 0.17253 0.87375 0.0
C819 C 0.02738 0.16082 0.87411 0.0
C820 C 1.008 0.17379 0.91538 0.0
C821 C 1.0113 0.19693 0.95705 0.0
C822 C 1.00531 0.09495 0.83579 0.0
C823 C 0.01892 0.08664 0.75985 0.0
C824 C 1.00806 0.11861 0.8725 0.0
C825 C 0.0244 0.13519 0.83421 0.0
C826 C 0.03802 0.12673 0.75785 0.0
C827 C 0.03506 0.10312 0.72069 0.0
H828 H 0.33439 1.00621 0.91432 0.0
H829 H 0.35353 0.081 0.94891 0.0
H830 H 0.37232 0.99883 0.83108 0.0
H831 H 0.39131 0.07376 0.86681 0.0
H832 H 0.45365 0.05587 0.66445 0.0
H833 H 0.41286 0.06374 0.72484 0.0
H834 H 0.41492 0.99613 0.86583 0.0
H835 H 0.45534 0.98849 0.80561 0.0
C836 C 0.34635 0.02122 0.9023 0.0
C837 C 0.3406 0.04425 0.93842 0.0
C838 C 0.3684 0.01695 0.85553 0.0
C839 C 0.38541 0.0356 0.84241 0.0
C840 C 0.37895 0.05886 0.87441 0.0
C841 C 0.35712 0.06304 0.92185 0.0
C842 C 0.4455 0.04292 0.70955 0.0
C843 C 0.45828 0.02194 0.73282 0.0
C844 C 0.42195 0.04732 0.74392 0.0
C845 C 0.41021 0.03066 0.80118 0.0
C846 C 0.4229 1.00939 0.82168 0.0
C847 C 0.44635 1.0051 0.7878 0.0
H848 H 0.51488 0.35784 0.05568 0.0
H849 H 0.49167 0.31925 0.81195 0.0
H850 H 0.5179 0.39488 0.96925 0.0
H851 H 0.49573 0.35671 0.72395 0.0
H852 H 0.54064 0.43694 0.64897 0.0
H853 H 0.53876 0.39615 0.7114 0.0
H854 H 0.47448 0.41558 0.86103 0.0
H855 H 0.47551 0.45576 0.79573 0.0
C856 C 0.51074 0.35709 0.98313 0.0
C857 C 0.50264 0.33536 0.94162 0.0
C858 C 0.51254 0.37844 0.93358 0.0
C859 C 0.50686 0.37888 0.83995 0.0
C860 C 0.50022 0.35697 0.79618 0.0
C861 C 0.49807 0.33545 0.84649 0.0
C862 C 0.52588 0.43254 0.69425 0.0
C863 C 0.50857 0.45025 0.7189 0.0
C864 C 0.52481 0.40903 0.72976 0.0
C865 C 0.50654 0.4026 0.79164 0.0
C866 C 0.48884 0.41994 0.81381 0.0
C867 C 0.48963 0.44319 0.777 0.0
H868 H 0.20355 0.54583 0.98983 0.0
H869 H 0.2111 0.47285 0.88935 0.0
H870 H 0.16545 0.54963 0.90642 0.0
H871 H 0.17351 0.47658 0.80345 0.0
H872 H 0.09168 0.479 0.75692 0.0
H873 H 0.13192 0.47692 0.82227 0.0
H874 H 0.1419 0.55269 0.77238 0.0
H875 H 0.10104 0.55485 0.71035 0.0
C876 C 0.19756 0.53089 0.94682 0.0
C877 C 0.2109 0.50925 0.9446 0.0
C878 C 0.17547 0.53295 0.89905 0.0
C879 C 0.16573 0.51336 0.84777 0.0
C880 C 0.17974 0.49205 0.84293 0.0
C881 C 0.20172 0.49 0.89094 0.0
C882 C 0.10229 0.49533 0.76035 0.0
C883 C 0.0925 0.51721 0.72953 0.0
C884 C 0.12579 0.49409 0.79704 0.0
C885 C 0.14075 0.51465 0.80392 0.0
C886 C 0.13117 0.53643 0.77048 0.0
C887 C 0.10758 0.53766 0.73382 0.0
H888 H 0.96629 0.85094 0.32543 0.0
H889 H 0.04123 0.83659 0.37636 0.0
H890 H 0.96928 0.88917 0.40957 0.0
H891 H 0.04443 0.87489 0.46284 0.0
H892 H 0.04948 0.95705 0.52924 0.0
H893 H 0.04652 0.91727 0.45382 0.0
H894 H 0.97263 0.91192 0.54424 0.0
H895 H 0.97577 0.95179 0.61775 0.0
C896 C 0.98329 0.85553 0.35769 0.0
C897 C 1.0033 0.84001 0.34565 0.0
C898 C 0.98511 0.87777 0.40612 0.0
C899 C 1.00715 0.88581 0.44438 0.0
C900 C 0.02709 0.86991 0.43451 0.0
C901 C 0.0252 0.8475 0.38611 0.0
C902 C 0.03244 0.94756 0.53122 0.0
C903 C 1.01258 0.95821 0.57701 0.0
C904 C 0.03079 0.92438 0.489 0.0
C905 C 1.00923 0.91075 0.49131 0.0
C906 C 0.98948 0.92154 0.53819 0.0
C907 C 0.99121 0.94462 0.58075 0.0
H908 H 0.71268 0.04191 0.39559 0.0
H909 H 0.69279 0.96753 0.35431 0.0
H910 H 0.67465 0.04925 0.47825 0.0
H911 H 0.65492 0.97472 0.43609 0.0
H912 H 0.59243 0.99256 0.63912 0.0
H913 H 0.63325 0.98443 0.57923 0.0
H914 H 0.63206 0.05241 0.44068 0.0
H915 H 0.59162 0.06029 0.50017 0.0
C916 C 0.70054 0.02696 0.40613 0.0
C917 C 0.70612 1.00407 0.36834 0.0
C918 C 0.67844 0.03121 0.45255 0.0
C919 C 0.6612 1.01268 0.46365 0.0
C920 C 0.66747 0.98953 0.43003 0.0
C921 C 0.68936 0.98537 0.38286 0.0
C922 C 0.60078 1.00555 0.59466 0.0
C923 C 0.58824 0.02671 0.57192 0.0
C924 C 0.62434 1.001 0.56062 0.0
C925 C 0.63634 0.0177 0.50432 0.0
C926 C 0.62388 0.03911 0.48416 0.0
C927 C 0.60042 0.04354 0.51762 0.0
H928 H 0.50628 0.71197 0.34223 0.0
H929 H 0.57926 0.71614 0.44049 0.0
H930 H 0.50117 0.67325 0.4174 0.0
H931 H 0.57423 0.67778 0.51822 0.0
H932 H 0.56854 0.59523 0.54102 0.0
H933 H 0.57236 0.63622 0.48597 0.0
H934 H 0.49736 0.64933 0.54892 0.0
H935 H 0.4934 0.60797 0.60049 0.0
C936 C 0.52093 0.70508 0.38325 0.0
C937 C 0.54295 0.71759 0.38732 0.0
C938 C 0.51811 0.68266 0.42616 0.0
C939 C 0.53732 0.67182 0.47403 0.0
C940 C 0.55905 0.68499 0.48108 0.0
C941 C 0.56184 0.70735 0.43796 0.0
C942 C 0.55275 0.6067 0.54232 0.0
C943 C 0.5305 0.59774 0.5734 0.0
C944 C 0.55502 0.63056 0.5118 0.0
C945 C 0.53515 0.64655 0.51177 0.0
C946 C 0.51306 0.63774 0.54563 0.0
C947 C 0.51081 0.61386 0.57602 0.0
H948 H 0.83321 0.50258 0.31184 0.0
H949 H 0.82538 0.57538 0.41403 0.0
H950 H 0.87112 0.49866 0.39644 0.0
H951 H 0.86274 0.57152 0.50115 0.0
H952 H 0.94444 0.56921 0.54938 0.0
H953 H 0.90432 0.57129 0.48304 0.0
H954 H 0.89438 0.49543 0.53125 0.0
H955 H 0.93513 0.49327 0.59425 0.0
C956 C 0.83909 0.51745 0.35545 0.0
C957 C 0.82576 0.53908 0.35775 0.0
C958 C 0.86107 0.51531 0.40391 0.0
C959 C 0.87066 0.53483 0.45601 0.0
C960 C 0.85663 0.55612 0.46101 0.0
C961 C 0.83477 0.55824 0.41228 0.0
C962 C 0.93386 0.55286 0.54538 0.0
C963 C 0.94363 0.53096 0.57599 0.0
C964 C 0.91044 0.55411 0.50813 0.0
C965 C 0.89554 0.53352 0.50049 0.0
C966 C 0.90508 0.51171 0.53376 0.0
C967 C 0.92861 0.51048 0.57098 0.0
loop_
_geom_bond_atom_site_label_1
_geom_bond_atom_site_label_2
_geom_bond_distance
_geom_bond_site_symmetry_2
_ccdc_geom_bond_type
H0 C1 0.949 . S
C1 H0 0.949 . S
C1 C2 1.395 . S
C1 C3 1.391 . S
C2 C1 1.395 . S
C2 C5 1.390 . S
C3 C1 1.391 . S
C3 C7 1.387 . S
C3 C8 1.491 . S
H4 C5 0.950 . S
C5 C2 1.390 . S
C5 H4 0.950 . S
C5 C6 1.378 . S
C6 C5 1.378 . S
C6 C7 1.409 . S
C7 C3 1.387 . S
C7 C6 1.409 . S
C7 H9 0.951 . S
C8 C3 1.491 . S
C8 C10 1.382 . S
C8 C12 1.404 . S
H9 C7 0.951 . S
C10 C8 1.382 . S
C10 C11 1.390 . S
C10 H15 0.949 . S
C11 C10 1.390 . S
C11 C16 1.399 . S
C12 C8 1.404 . S
C12 H13 0.950 . S
C12 C14 1.375 . S
H13 C12 0.950 . S
C14 C12 1.375 . S
C14 C16 1.382 . S
C14 H18 0.950 . S
H15 C10 0.949 . S
C16 C11 1.399 . S
C16 C14 1.382 . S
C16 H17 0.952 . S
H17 C16 0.952 . S
H18 C14 0.950 . S
H19 C20 0.949 . S
C20 H19 0.949 . S
C20 C21 1.395 . S
C20 C22 1.391 . S
C21 C20 1.395 . S
C21 C24 1.390 . S
C22 C20 1.391 . S
C22 C26 1.387 . S
C22 C27 1.491 . S
H23 C24 0.950 . S
C24 C21 1.390 . S
C24 H23 0.950 . S
C24 C25 1.378 . S
C25 C24 1.378 . S
C25 C26 1.409 . S
C26 C22 1.387 . S
C26 C25 1.409 . S
C26 H28 0.951 . S
C27 C22 1.491 . S
C27 C29 1.382 . S
C27 C31 1.404 . S
H28 C26 0.951 . S
C29 C27 1.382 . S
C29 C30 1.390 . S
C29 H34 0.949 . S
C30 C29 1.390 . S
C30 C35 1.399 . S
C31 C27 1.404 . S
C31 H32 0.950 . S
C31 C33 1.375 . S
H32 C31 0.950 . S
C33 C31 1.375 . S
C33 C35 1.382 . S
C33 H37 0.950 . S
H34 C29 0.949 . S
C35 C30 1.399 . S
C35 C33 1.382 . S
C35 H36 0.952 . S
H36 C35 0.952 . S
H37 C33 0.950 . S
H38 C39 0.949 . S
C39 H38 0.949 . S
C39 C40 1.395 . S
C39 C41 1.391 . S
C40 C39 1.395 . S
C40 C43 1.390 . S
C41 C39 1.391 . S
C41 C45 1.387 . S
C41 C46 1.491 . S
H42 C43 0.950 . S
C43 C40 1.390 . S
C43 H42 0.950 . S
C43 C44 1.378 . S
C44 C43 1.378 . S
C44 C45 1.409 . S
C45 C41 1.387 . S
C45 C44 1.409 . S
C45 H47 0.951 . S
C46 C41 1.491 . S
C46 C48 1.382 . S
C46 C50 1.404 . S
H47 C45 0.951 . S
C48 C46 1.382 . S
C48 C49 1.390 . S
C48 H53 0.949 . S
C49 C48 1.390 . S
C49 C54 1.399 . S
C50 C46 1.404 . S
C50 H51 0.950 . S
C50 C52 1.375 . S
H51 C50 0.950 . S
C52 C50 1.375 . S
C52 C54 1.382 . S
C52 H56 0.950 . S
H53 C48 0.949 . S
C54 C49 1.399 . S
C54 C52 1.382 . S
C54 H55 0.952 . S
H55 C54 0.952 . S
H56 C52 0.950 . S
H57 C58 0.949 . S
C58 H57 0.949 . S
C58 C59 1.395 . S
C58 C60 1.391 . S
C59 C58 1.395 . S
C59 C62 1.390 . S
C60 C58 1.391 . S
C60 C64 1.387 . S
C60 C65 1.491 . S
H61 C62 0.950 . S
C62 C59 1.390 . S
C62 H61 0.950 . S
C62 C63 1.378 . S
C63 C62 1.378 . S
C63 C64 1.409 . S
C64 C60 1.387 . S
C64 C63 1.409 . S
C64 H66 0.951 . S
C65 C60 1.491 . S
C65 C67 1.382 . S
C65 C69 1.404 . S
H66 C64 0.951 . S
C67 C65 1.382 . S
C67 C68 1.390 . S
C67 H72 0.949 . S
C68 C67 1.390 . S
C68 C73 1.399 . S
C69 C65 1.404 . S
C69 H70 0.950 . S
C69 C71 1.375 . S
H70 C69 0.950 . S
C71 C69 1.375 . S
C71 C73 1.382 . S
C71 H75 0.950 . S
H72 C67 0.949 . S
C73 C68 1.399 . S
C73 C71 1.382 . S
C73 H74 0.952 . S
H74 C73 0.952 . S
H75 C71 0.950 . S
H76 C77 0.949 . S
C77 H76 0.949 . S
C77 C78 1.395 . S
C77 C79 1.391 1_554 S
C78 C77 1.395 . S
C78 C81 1.390 1_554 S
C79 C77 1.391 1_556 S
C79 C83 1.387 . S
C79 C84 1.491 . S
H80 C81 0.950 . S
C81 C78 1.390 1_556 S
C81 H80 0.950 . S
C81 C82 1.378 . S
C82 C81 1.378 . S
C82 C83 1.409 . S
C83 C79 1.387 . S
C83 C82 1.409 . S
C83 H85 0.951 . S
C84 C79 1.491 . S
C84 C86 1.382 1_556 S
C84 C88 1.404 . S
H85 C83 0.951 . S
C86 C84 1.382 1_554 S
C86 C87 1.390 . S
C86 H91 0.949 . S
C87 C86 1.390 . S
C87 C92 1.399 1_554 S
C88 C84 1.404 . S
C88 H89 0.950 . S
C88 C90 1.375 . S
H89 C88 0.950 . S
C90 C88 1.375 . S
C90 C92 1.382 . S
C90 H94 0.950 . S
H91 C86 0.949 . S
C92 C87 1.399 1_556 S
C92 C90 1.382 . S
C92 H93 0.952 . S
H93 C92 0.952 . S
H94 C90 0.950 . S
H95 C96 0.949 . S
C96 H95 0.949 . S
C96 C97 1.395 . S
C96 C98 1.391 1_554 S
C97 C96 1.395 . S
C97 C100 1.390 1_554 S
C98 C96 1.391 1_556 S
C98 C102 1.387 . S
C98 C103 1.491 . S
H99 C100 0.950 . S
C100 C97 1.390 1_556 S
C100 H99 0.950 . S
C100 C101 1.378 . S
C101 C100 1.378 . S
C101 C102 1.409 . S
C102 C98 1.387 . S
C102 C101 1.409 . S
C102 H104 0.951 . S
C103 C98 1.491 . S
C103 C105 1.382 1_556 S
C103 C107 1.404 . S
H104 C102 0.951 . S
C105 C103 1.382 1_554 S
C105 C106 1.390 . S
C105 H110 0.949 . S
C106 C105 1.390 . S
C106 C111 1.399 1_554 S
C107 C103 1.404 . S
C107 H108 0.950 . S
C107 C109 1.375 . S
H108 C107 0.950 . S
C109 C107 1.375 . S
C109 C111 1.382 . S
C109 H113 0.950 . S
H110 C105 0.949 . S
C111 C106 1.399 1_556 S
C111 C109 1.382 . S
C111 H112 0.952 . S
H112 C111 0.952 . S
H113 C109 0.950 . S
H114 C115 0.949 . S
C115 H114 0.949 . S
C115 C116 1.395 . S
C115 C117 1.391 1_554 S
C116 C115 1.395 . S
C116 C119 1.390 1_554 S
C117 C115 1.391 1_556 S
C117 C121 1.387 . S
C117 C122 1.491 . S
H118 C119 0.950 . S
C119 C116 1.390 1_556 S
C119 H118 0.950 . S
C119 C120 1.378 . S
C120 C119 1.378 . S
C120 C121 1.409 . S
C121 C117 1.387 . S
C121 C120 1.409 . S
C121 H123 0.951 . S
C122 C117 1.491 . S
C122 C124 1.382 1_556 S
C122 C126 1.404 . S
H123 C121 0.951 . S
C124 C122 1.382 1_554 S
C124 C125 1.390 . S
C124 H129 0.949 . S
C125 C124 1.390 . S
C125 C130 1.399 1_554 S
C126 C122 1.404 . S
C126 H127 0.950 . S
C126 C128 1.375 . S
H127 C126 0.950 . S
C128 C126 1.375 . S
C128 C130 1.382 . S
C128 H132 0.950 . S
H129 C124 0.949 . S
C130 C125 1.399 1_556 S
C130 C128 1.382 . S
C130 H131 0.952 . S
H131 C130 0.952 . S
H132 C128 0.950 . S
H133 C134 0.949 . S
C134 H133 0.949 . S
C134 C135 1.395 . S
C134 C136 1.391 1_554 S
C135 C134 1.395 . S
C135 C138 1.390 1_554 S
C136 C134 1.391 1_556 S
C136 C140 1.387 . S
C136 C141 1.491 . S
H137 C138 0.950 . S
C138 C135 1.390 1_556 S
C138 H137 0.950 . S
C138 C139 1.378 . S
C139 C138 1.378 . S
C139 C140 1.409 . S
C140 C136 1.387 . S
C140 C139 1.409 . S
C140 H142 0.951 . S
C141 C136 1.491 . S
C141 C143 1.382 1_556 S
C141 C145 1.404 . S
H142 C140 0.951 . S
C143 C141 1.382 1_554 S
C143 C144 1.390 . S
C143 H148 0.949 . S
C144 C143 1.390 . S
C144 C149 1.399 1_554 S
C145 C141 1.404 . S
C145 H146 0.950 . S
C145 C147 1.375 . S
H146 C145 0.950 . S
C147 C145 1.375 . S
C147 C149 1.382 . S
C147 H151 0.950 . S
H148 C143 0.949 . S
C149 C144 1.399 1_556 S
C149 C147 1.382 . S
C149 H150 0.952 . S
H150 C149 0.952 . S
H151 C147 0.950 . S
Eu152 N183 2.657 1_565 S
Eu152 N190 2.609 1_565 S
Eu152 O196 2.558 . S
Eu152 O197 2.612 1_455 S
Eu152 O199 2.339 1_465 S
Eu152 O200 2.563 . S
Eu152 O201 2.419 . S
Eu152 O203 2.380 1_565 S
Eu152 O204 2.439 . S
Eu152 C216 2.848 . S
C153 C156 1.429 1_545 S
C153 C157 1.411 . S
C153 N160 1.377 . S
C154 C156 1.420 . S
C154 C158 1.423 . S
C154 C166 1.392 . S
C155 C157 1.420 1_565 S
C155 C158 1.351 . S
C155 H178 0.931 . S
C156 C153 1.429 1_565 S
C156 C154 1.420 . S
C156 N164 1.362 1_565 S
C157 C153 1.411 . S
C157 C155 1.420 1_545 S
C157 C162 1.395 . S
C158 C154 1.423 . S
C158 C155 1.351 . S
C158 H170 0.930 . S
C159 C161 1.400 . S
C159 C162 1.386 . S
C159 H171 0.930 . S
N160 C153 1.377 . S
N160 C161 1.321 . S
N160 Eu163 2.609 . S
C161 C159 1.400 . S
C161 N160 1.321 . S
C161 H168 0.930 . S
C162 C157 1.395 . S
C162 C159 1.386 . S
C162 H181 0.930 . S
Eu163 N160 2.609 . S
Eu163 N164 2.657 . S
Eu163 O197 2.380 1_545 S
Eu163 O198 2.432 . S
Eu163 O202 2.558 . S
Eu163 O203 2.612 1_655 S
Eu163 O205 2.339 1_655 S
Eu163 O206 2.563 1_655 S
Eu163 O207 2.420 . S
Eu163 C227 2.848 . S
N164 C156 1.362 1_545 S
N164 Eu163 2.657 . S
N164 C165 1.334 1_645 S
C165 N164 1.334 1_465 S
C165 C167 1.413 . S
C165 H172 0.929 . S
C166 C154 1.392 . S
C166 C167 1.367 1_655 S
C166 H174 0.930 . S
C167 C165 1.413 . S
C167 C166 1.367 1_455 S
C167 H169 0.930 . S
H168 C161 0.930 . S
H169 C167 0.930 . S
H170 C158 0.930 . S
H171 C159 0.930 . S
H172 C165 0.929 . S
H173 C187 0.930 1_654 S
H174 C166 0.930 . S
H175 C193 0.930 . S
H176 C184 0.929 1_655 S
H177 C191 0.930 . S
H178 C155 0.931 . S
H179 C185 0.930 . S
H180 C218 0.930 . S
H181 C162 0.930 . S
H182 C217 0.931 . S
N183 Eu152 2.657 1_545 S
N183 C184 1.334 . S
N183 C188 1.362 . S
C184 H176 0.929 1_455 S
C184 N183 1.334 . S
C184 C187 1.414 . S
C185 H179 0.930 . S
C185 C186 1.392 . S
C185 C187 1.367 1_554 S
C186 C185 1.392 . S
C186 C188 1.420 1_554 S
C186 C218 1.423 . S
C187 H173 0.930 1_456 S
C187 C184 1.414 . S
C187 C185 1.367 1_556 S
C188 N183 1.362 . S
C188 C186 1.420 1_556 S
C188 C192 1.429 . S
H189 C194 0.930 . S
N190 Eu152 2.609 1_545 S
N190 C192 1.377 . S
N190 C193 1.321 1_545 S
C191 H177 0.930 . S
C191 C193 1.400 . S
C191 C194 1.386 1_565 S
C192 C188 1.429 . S
C192 N190 1.377 . S
C192 C195 1.411 . S
C193 H175 0.930 . S
C193 N190 1.321 1_565 S
C193 C191 1.400 . S
C194 H189 0.930 . S
C194 C191 1.386 1_545 S
C194 C195 1.395 . S
C195 C192 1.411 . S
C195 C194 1.395 . S
C195 C217 1.420 1_556 S
O196 Eu152 2.558 . S
O196 C216 1.257 . S
O197 Eu152 2.612 1_655 S
O197 Eu163 2.380 1_565 S
O197 C208 1.276 . S
O198 Eu163 2.432 . S
O198 C215 1.264 . S
O199 Eu152 2.339 1_645 S
O199 C215 1.252 . S
O200 Eu152 2.563 . S
O200 C208 1.235 1_455 S
O201 Eu152 2.419 . S
O201 C216 1.249 . S
O202 Eu163 2.558 . S
O202 C227 1.257 . S
O203 Eu152 2.380 1_545 S
O203 Eu163 2.612 1_455 S
O203 C219 1.276 . S
O204 Eu152 2.439 . S
O204 C226 1.236 1_565 S
O205 Eu163 2.339 1_455 S
O205 C226 1.254 . S
O206 Eu163 2.563 1_455 S
O206 C219 1.235 . S
O207 Eu163 2.420 . S
O207 C227 1.254 . S
C208 O197 1.276 . S
C208 O200 1.235 1_655 S
C209 C211 1.393 . S
C209 C213 1.395 . S
C209 C216 1.492 . S
C210 C211 1.392 . S
C210 C212 1.386 1_556 S
C211 C209 1.393 . S
C211 C210 1.392 . S
C211 H228 0.888 1_455 S
C212 C210 1.386 1_554 S
C212 C214 1.395 1_554 S
C212 H229 0.930 . S
C213 C209 1.395 . S
C213 C214 1.379 . S
C213 H230 0.930 . S
C214 C212 1.395 1_556 S
C214 C213 1.379 . S
C214 H231 0.930 . S
C215 O198 1.264 . S
C215 O199 1.252 . S
C216 Eu152 2.848 . S
C216 O196 1.257 . S
C216 O201 1.249 . S
C216 C209 1.492 . S
C217 H182 0.931 . S
C217 C195 1.420 1_554 S
C217 C218 1.351 . S
C218 H180 0.930 . S
C218 C186 1.423 . S
C218 C217 1.351 . S
C219 O203 1.276 . S
C219 O206 1.235 . S
C220 C221 1.396 1_655 S
C220 C224 1.395 . S
C220 C227 1.492 . S
C221 C220 1.396 1_455 S
C221 C222 1.393 1_455 S
C221 H232 0.926 . S
C222 C221 1.393 1_655 S
C222 C223 1.386 . S
C223 C222 1.386 . S
C223 C225 1.395 . S
C223 H233 0.930 . S
C224 C220 1.395 . S
C224 C225 1.379 . S
C224 H234 0.930 . S
C225 C223 1.395 . S
C225 C224 1.379 . S
C225 H235 0.930 . S
C226 O204 1.236 1_545 S
C226 O205 1.254 . S
C227 Eu163 2.848 . S
C227 O202 1.257 . S
C227 O207 1.254 . S
C227 C220 1.492 . S
H228 C211 0.888 1_655 S
H229 C212 0.930 . S
H230 C213 0.930 . S
H231 C214 0.930 . S
H232 C221 0.926 . S
H233 C223 0.930 . S
H234 C224 0.930 . S
H235 C225 0.930 . S
Eu236 N267 2.657 . S
Eu236 N274 2.609 . S
Eu236 O280 2.558 . S
Eu236 O281 2.627 . S
Eu236 O283 2.339 1_545 S
Eu236 O284 2.563 . S
Eu236 O285 2.419 . S
Eu236 O287 2.380 . S
Eu236 O288 2.432 . S
Eu236 C300 2.848 . S
C237 C240 1.429 . S
C237 C241 1.411 . S
C237 N244 1.377 . S
C238 C240 1.420 . S
C238 C242 1.423 . S
C238 C250 1.392 . S
C239 C241 1.420 . S
C239 C242 1.351 . S
C239 H262 0.931 . S
C240 C237 1.429 . S
C240 C238 1.420 . S
C240 N248 1.362 . S
C241 C237 1.411 . S
C241 C239 1.420 . S
C241 C246 1.395 . S
C242 C238 1.423 . S
C242 C239 1.351 . S
C242 H254 0.930 . S
C243 C245 1.400 . S
C243 C246 1.386 . S
C243 H255 0.930 . S
N244 C237 1.377 . S
N244 C245 1.321 . S
N244 Eu247 2.609 . S
C245 C243 1.400 . S
C245 N244 1.321 . S
C245 H252 0.930 . S
C246 C241 1.395 . S
C246 C243 1.386 . S
C246 H265 0.930 . S
Eu247 N244 2.609 . S
Eu247 N248 2.657 . S
Eu247 O281 2.376 1_565 S
Eu247 O282 2.432 . S
Eu247 O286 2.558 . S
Eu247 O287 2.612 1_565 S
Eu247 O289 2.339 1_565 S
Eu247 O290 2.563 1_565 S
Eu247 O291 2.419 1_565 S
Eu247 C311 2.848 . S
N248 C240 1.362 . S
N248 Eu247 2.657 . S
N248 C249 1.334 1_565 S
C249 N248 1.334 1_545 S
C249 C251 1.413 . S
C249 H256 0.929 . S
C250 C238 1.392 . S
C250 C251 1.367 1_565 S
C250 H258 0.930 . S
C251 C249 1.413 . S
C251 C250 1.367 1_545 S
C251 H253 0.930 . S
H252 C245 0.930 . S
H253 C251 0.930 . S
H254 C242 0.930 . S
H255 C243 0.930 . S
H256 C249 0.929 . S
H257 C271 0.928 1_564 S
H258 C250 0.930 . S
H259 C277 0.930 . S
H260 C268 0.929 1_565 S
H261 C275 0.930 . S
H262 C239 0.931 . S
H263 C269 0.930 . S
H264 C302 0.930 . S
H265 C246 0.930 . S
H266 C301 0.931 . S
N267 Eu236 2.657 . S
N267 C268 1.334 . S
N267 C272 1.362 . S
C268 H260 0.929 1_545 S
C268 N267 1.334 . S
C268 C271 1.419 . S
C269 H263 0.930 . S
C269 C270 1.392 . S
C269 C271 1.364 1_554 S
C270 C269 1.392 . S
C270 C272 1.420 1_554 S
C270 C302 1.423 . S
C271 H257 0.928 1_546 S
C271 C268 1.419 . S
C271 C269 1.364 1_556 S
C272 N267 1.362 . S
C272 C270 1.420 1_556 S
C272 C276 1.429 . S
H273 C278 0.930 . S
N274 Eu236 2.609 . S
N274 C276 1.377 . S
N274 C277 1.321 . S
C275 H261 0.930 . S
C275 C277 1.400 . S
C275 C278 1.386 . S
C276 C272 1.429 . S
C276 N274 1.377 . S
C276 C279 1.411 . S
C277 H259 0.930 . S
C277 N274 1.321 . S
C277 C275 1.400 . S
C278 H273 0.930 . S
C278 C275 1.386 . S
C278 C279 1.395 . S
C279 C276 1.411 . S
C279 C278 1.395 . S
C279 C301 1.420 1_556 S
O280 Eu236 2.558 . S
O280 C300 1.257 . S
O281 Eu236 2.627 . S
O281 Eu247 2.376 1_545 S
O281 C292 1.277 . S
O282 Eu247 2.432 . S
O282 C299 1.264 . S
O283 Eu236 2.339 1_565 S
O283 C299 1.254 . S
O284 Eu236 2.563 . S
O284 C292 1.235 . S
O285 Eu236 2.419 . S
O285 C300 1.249 . S
O286 Eu247 2.558 . S
O286 C311 1.257 . S
O287 Eu236 2.380 . S
O287 Eu247 2.612 1_545 S
O287 C303 1.276 . S
O288 Eu236 2.432 . S
O288 C310 1.264 . S
O289 Eu247 2.339 1_545 S
O289 C310 1.254 . S
O290 Eu247 2.563 1_545 S
O290 C303 1.235 . S
O291 Eu247 2.419 1_545 S
O291 C311 1.249 1_545 S
C292 O281 1.277 . S
C292 O284 1.235 . S
C293 C295 1.393 . S
C293 C297 1.395 . S
C293 C300 1.492 . S
C294 C295 1.392 . S
C294 C296 1.386 1_556 S
C295 C293 1.393 . S
C295 C294 1.392 . S
C295 H312 0.930 . S
C296 C294 1.386 1_554 S
C296 C298 1.395 1_554 S
C296 H313 0.930 . S
C297 C293 1.395 . S
C297 C298 1.379 . S
C297 H314 0.930 . S
C298 C296 1.395 1_556 S
C298 C297 1.379 . S
C298 H315 0.930 . S
C299 O282 1.264 . S
C299 O283 1.254 . S
C300 Eu236 2.848 . S
C300 O280 1.257 . S
C300 O285 1.249 . S
C300 C293 1.492 . S
C301 H266 0.931 . S
C301 C279 1.420 1_554 S
C301 C302 1.351 . S
C302 H264 0.930 . S
C302 C270 1.423 . S
C302 C301 1.351 . S
C303 O287 1.276 . S
C303 O290 1.235 . S
C304 C305 1.393 1_565 S
C304 C308 1.395 . S
C304 C311 1.492 . S
C305 C304 1.393 1_545 S
C305 C306 1.396 . S
C305 H316 0.930 . S
C306 C305 1.396 . S
C306 C307 1.348 1_545 S
C307 C306 1.348 1_565 S
C307 C309 1.395 . S
C307 H317 0.930 . S
C308 C304 1.395 . S
C308 C309 1.379 . S
C308 H318 0.930 . S
C309 C307 1.395 . S
C309 C308 1.379 . S
C309 H319 0.930 . S
C310 O288 1.264 . S
C310 O289 1.254 . S
C311 Eu247 2.848 . S
C311 O286 1.257 . S
C311 O291 1.249 1_565 S
C311 C304 1.492 . S
H312 C295 0.930 . S
H313 C296 0.930 . S
H314 C297 0.930 . S
H315 C298 0.930 . S
H316 C305 0.930 . S
H317 C307 0.930 . S
H318 C308 0.930 . S
H319 C309 0.930 . S
Eu320 N351 2.657 . S
Eu320 N358 2.609 . S
Eu320 O364 2.558 . S
Eu320 O365 2.612 . S
Eu320 O367 2.339 . S
Eu320 O368 2.563 . S
Eu320 O369 2.419 . S
Eu320 O371 2.380 . S
Eu320 O372 2.432 . S
Eu320 C384 2.848 . S
C321 C324 1.429 . S
C321 C325 1.411 . S
C321 N328 1.377 . S
C322 C324 1.420 . S
C322 C326 1.423 . S
C322 C334 1.392 . S
C323 C325 1.420 . S
C323 C326 1.351 . S
C323 H346 0.931 . S
C324 C321 1.429 . S
C324 C322 1.420 . S
C324 N332 1.362 . S
C325 C321 1.411 . S
C325 C323 1.420 . S
C325 C330 1.395 . S
C326 C322 1.423 . S
C326 C323 1.351 . S
C326 H338 0.930 . S
C327 C329 1.400 . S
C327 C330 1.386 . S
C327 H339 0.930 . S
N328 C321 1.377 . S
N328 C329 1.321 . S
N328 Eu331 2.609 . S
C329 C327 1.400 . S
C329 N328 1.321 . S
C329 H336 0.930 . S
C330 C325 1.395 . S
C330 C327 1.386 . S
C330 H349 0.930 . S
Eu331 N328 2.609 . S
Eu331 N332 2.657 . S
Eu331 O365 2.380 . S
Eu331 O366 2.432 . S
Eu331 O370 2.558 . S
Eu331 O371 2.612 . S
Eu331 O373 2.339 . S
Eu331 O374 2.563 . S
Eu331 O375 2.419 . S
Eu331 C395 2.848 . S
N332 C324 1.362 . S
N332 Eu331 2.657 . S
N332 C333 1.334 . S
C333 N332 1.334 . S
C333 C335 1.413 . S
C333 H340 0.929 . S
C334 C322 1.392 . S
C334 C335 1.367 . S
C334 H342 0.930 . S
C335 C333 1.413 . S
C335 C334 1.367 . S
C335 H337 0.930 . S
H336 C329 0.930 . S
H337 C335 0.930 . S
H338 C326 0.930 . S
H339 C327 0.930 . S
H340 C333 0.929 . S
H341 C355 0.930 . S
H342 C334 0.930 . S
H343 C361 0.930 . S
H344 C352 0.929 . S
H345 C359 0.930 . S
H346 C323 0.931 . S
H347 C353 0.930 . S
H348 C386 0.930 . S
H349 C330 0.930 . S
H350 C385 0.931 . S
N351 Eu320 2.657 . S
N351 C352 1.334 . S
N351 C356 1.362 . S
C352 H344 0.929 . S
C352 N351 1.334 . S
C352 C355 1.413 . S
C353 H347 0.930 . S
C353 C354 1.392 . S
C353 C355 1.367 . S
C354 C353 1.392 . S
C354 C356 1.420 . S
C354 C386 1.423 . S
C355 H341 0.930 . S
C355 C352 1.413 . S
C355 C353 1.367 . S
C356 N351 1.362 . S
C356 C354 1.420 . S
C356 C360 1.429 . S
H357 C362 0.930 . S
N358 Eu320 2.609 . S
N358 C360 1.377 . S
N358 C361 1.321 . S
C359 H345 0.930 . S
C359 C361 1.400 . S
C359 C362 1.386 . S
C360 C356 1.429 . S
C360 N358 1.377 . S
C360 C363 1.411 . S
C361 H343 0.930 . S
C361 N358 1.321 . S
C361 C359 1.400 . S
C362 H357 0.930 . S
C362 C359 1.386 . S
C362 C363 1.395 . S
C363 C360 1.411 . S
C363 C362 1.395 . S
C363 C385 1.420 . S
O364 Eu320 2.558 . S
O364 C384 1.257 . S
O365 Eu320 2.612 . S
O365 Eu331 2.380 . S
O365 C376 1.276 . S
O366 Eu331 2.432 . S
O366 C383 1.264 . S
O367 Eu320 2.339 . S
O367 C383 1.254 . S
O368 Eu320 2.563 . S
O368 C376 1.235 . S
O369 Eu320 2.419 . S
O369 C384 1.249 . S
O370 Eu331 2.558 . S
O370 C395 1.257 . S
O371 Eu320 2.380 . S
O371 Eu331 2.612 . S
O371 C387 1.276 . S
O372 Eu320 2.432 . S
O372 C394 1.264 . S
O373 Eu331 2.339 . S
O373 C394 1.254 . S
O374 Eu331 2.563 . S
O374 C387 1.235 . S
O375 Eu331 2.419 . S
O375 C395 1.249 . S
C376 O365 1.276 . S
C376 O368 1.235 . S
C377 C379 1.393 . S
C377 C381 1.395 . S
C377 C384 1.492 . S
C378 C379 1.392 . S
C378 C380 1.386 . S
C379 C377 1.393 . S
C379 C378 1.392 . S
C379 H396 0.930 . S
C380 C378 1.386 . S
C380 C382 1.395 . S
C380 H397 0.930 . S
C381 C377 1.395 . S
C381 C382 1.379 . S
C381 H398 0.930 . S
C382 C380 1.395 . S
C382 C381 1.379 . S
C382 H399 0.930 . S
C383 O366 1.264 . S
C383 O367 1.254 . S
C384 Eu320 2.848 . S
C384 O364 1.257 . S
C384 O369 1.249 . S
C384 C377 1.492 . S
C385 H350 0.931 . S
C385 C363 1.420 . S
C385 C386 1.351 . S
C386 H348 0.930 . S
C386 C354 1.423 . S
C386 C385 1.351 . S
C387 O371 1.276 . S
C387 O374 1.235 . S
C388 C389 1.393 . S
C388 C392 1.395 1_556 S
C388 C395 1.492 . S
C389 C388 1.393 . S
C389 C390 1.392 1_556 S
C389 H400 0.930 . S
C390 C389 1.392 1_554 S
C390 C391 1.386 . S
C391 C390 1.386 . S
C391 C393 1.395 . S
C391 H401 0.930 . S
C392 C388 1.395 1_554 S
C392 C393 1.379 . S
C392 H402 0.930 . S
C393 C391 1.395 . S
C393 C392 1.379 . S
C393 H403 0.930 . S
C394 O372 1.264 . S
C394 O373 1.254 . S
C395 Eu331 2.848 . S
C395 O370 1.257 . S
C395 O375 1.249 . S
C395 C388 1.492 . S
H396 C379 0.930 . S
H397 C380 0.930 . S
H398 C381 0.930 . S
H399 C382 0.930 . S
H400 C389 0.930 . S
H401 C391 0.930 . S
H402 C392 0.930 . S
H403 C393 0.930 . S
Eu404 N435 2.657 . S
Eu404 N442 2.609 . S
Eu404 O448 2.558 . S
Eu404 O449 2.612 . S
Eu404 O451 2.339 . S
Eu404 O452 2.563 . S
Eu404 O453 2.419 . S
Eu404 O455 2.380 . S
Eu404 O456 2.432 1_455 S
Eu404 C468 2.848 . S
C405 C408 1.429 . S
C405 C409 1.411 . S
C405 N412 1.377 . S
C406 C408 1.420 . S
C406 C410 1.423 . S
C406 C418 1.392 . S
C407 C409 1.420 . S
C407 C410 1.351 . S
C407 H430 0.931 . S
C408 C405 1.429 . S
C408 C406 1.420 . S
C408 N416 1.362 . S
C409 C405 1.411 . S
C409 C407 1.420 . S
C409 C414 1.395 1_655 S
C410 C406 1.423 . S
C410 C407 1.351 . S
C410 H422 0.930 . S
C411 C413 1.400 . S
C411 C414 1.386 . S
C411 H423 0.930 . S
N412 C405 1.377 . S
N412 C413 1.321 1_655 S
N412 Eu415 2.609 . S
C413 C411 1.400 . S
C413 N412 1.321 1_455 S
C413 H420 0.930 . S
C414 C409 1.395 1_455 S
C414 C411 1.386 . S
C414 H433 0.930 . S
Eu415 N412 2.609 . S
Eu415 N416 2.657 . S
Eu415 O449 2.380 1_655 S
Eu415 O450 2.432 1_655 S
Eu415 O454 2.558 . S
Eu415 O455 2.612 1_655 S
Eu415 O457 2.339 . S
Eu415 O458 2.563 . S
Eu415 O459 2.419 . S
Eu415 C479 2.848 . S
N416 C408 1.362 . S
N416 Eu415 2.657 . S
N416 C417 1.334 . S
C417 N416 1.334 . S
C417 C419 1.413 . S
C417 H424 0.929 . S
C418 C406 1.392 . S
C418 C419 1.367 . S
C418 H426 0.930 . S
C419 C417 1.413 . S
C419 C418 1.367 . S
C419 H421 0.930 . S
H420 C413 0.930 . S
H421 C419 0.930 . S
H422 C410 0.930 . S
H423 C411 0.930 . S
H424 C417 0.929 . S
H425 C439 0.930 . S
H426 C418 0.930 . S
H427 C445 0.930 1_655 S
H428 C436 0.929 . S
H429 C443 0.930 . S
H430 C407 0.931 . S
H431 C437 0.930 . S
H432 C470 0.930 . S
H433 C414 0.930 . S
H434 C469 0.931 . S
N435 Eu404 2.657 . S
N435 C436 1.334 . S
N435 C440 1.362 . S
C436 H428 0.929 . S
C436 N435 1.334 . S
C436 C439 1.413 . S
C437 H431 0.930 . S
C437 C438 1.392 . S
C437 C439 1.367 . S
C438 C437 1.392 . S
C438 C440 1.420 . S
C438 C470 1.423 . S
C439 H425 0.930 . S
C439 C436 1.413 . S
C439 C437 1.367 . S
C440 N435 1.362 . S
C440 C438 1.420 . S
C440 C444 1.429 . S
H441 C446 0.930 . S
N442 Eu404 2.609 . S
N442 C444 1.377 . S
N442 C445 1.321 . S
C443 H429 0.930 . S
C443 C445 1.400 1_655 S
C443 C446 1.386 1_655 S
C444 C440 1.429 . S
C444 N442 1.377 . S
C444 C447 1.411 . S
C445 H427 0.930 1_455 S
C445 N442 1.321 . S
C445 C443 1.400 1_455 S
C446 H441 0.930 . S
C446 C443 1.386 1_455 S
C446 C447 1.395 . S
C447 C444 1.411 . S
C447 C446 1.395 . S
C447 C469 1.420 . S
O448 Eu404 2.558 . S
O448 C468 1.257 . S
O449 Eu404 2.612 . S
O449 Eu415 2.380 1_455 S
O449 C460 1.276 . S
O450 Eu415 2.432 1_455 S
O450 C467 1.264 . S
O451 Eu404 2.339 . S
O451 C467 1.254 . S
O452 Eu404 2.563 . S
O452 C460 1.235 . S
O453 Eu404 2.419 . S
O453 C468 1.249 . S
O454 Eu415 2.558 . S
O454 C479 1.257 . S
O455 Eu404 2.380 . S
O455 Eu415 2.612 1_455 S
O455 C471 1.276 1_455 S
O456 Eu404 2.432 1_655 S
O456 C478 1.264 . S
O457 Eu415 2.339 . S
O457 C478 1.254 . S
O458 Eu415 2.563 . S
O458 C471 1.235 . S
O459 Eu415 2.419 . S
O459 C479 1.249 . S
C460 O449 1.276 . S
C460 O452 1.235 . S
C461 C463 1.393 . S
C461 C465 1.395 . S
C461 C468 1.492 . S
C462 C463 1.392 . S
C462 C464 1.386 . S
C463 C461 1.393 . S
C463 C462 1.392 . S
C463 H480 0.930 . S
C464 C462 1.386 . S
C464 C466 1.395 . S
C464 H481 0.930 . S
C465 C461 1.395 . S
C465 C466 1.379 . S
C465 H482 0.930 . S
C466 C464 1.395 . S
C466 C465 1.379 . S
C466 H483 0.930 . S
C467 O450 1.264 . S
C467 O451 1.254 . S
C468 Eu404 2.848 . S
C468 O448 1.257 . S
C468 O453 1.249 . S
C468 C461 1.492 . S
C469 H434 0.931 . S
C469 C447 1.420 . S
C469 C470 1.351 . S
C470 H432 0.930 . S
C470 C438 1.423 . S
C470 C469 1.351 . S
C471 O455 1.276 1_655 S
C471 O458 1.235 . S
C472 C473 1.393 . S
C472 C476 1.395 1_556 S
C472 C479 1.492 . S
C473 C472 1.393 . S
C473 C474 1.392 1_556 S
C473 H484 0.930 . S
C474 C473 1.392 1_554 S
C474 C475 1.386 . S
C475 C474 1.386 . S
C475 C477 1.395 . S
C475 H485 0.930 . S
C476 C472 1.395 1_554 S
C476 C477 1.379 . S
C476 H486 0.930 . S
C477 C475 1.395 . S
C477 C476 1.379 . S
C477 H487 0.930 . S
C478 O456 1.264 . S
C478 O457 1.254 . S
C479 Eu415 2.848 . S
C479 O454 1.257 . S
C479 O459 1.249 . S
C479 C472 1.492 . S
H480 C463 0.930 . S
H481 C464 0.930 . S
H482 C465 0.930 . S
H483 C466 0.930 . S
H484 C473 0.930 . S
H485 C475 0.930 . S
H486 C476 0.930 . S
H487 C477 0.930 . S
H488 C496 0.950 . S
H489 C501 0.950 . S
H490 C498 0.950 . S
H491 C500 0.950 . S
H492 C502 0.950 . S
H493 C504 0.950 . S
H494 C506 0.950 . S
H495 C507 0.950 1_565 S
C496 H488 0.950 . S
C496 C497 1.386 . S
C496 C498 1.391 . S
C497 C496 1.386 . S
C497 C501 1.393 . S
C498 H490 0.950 . S
C498 C496 1.391 . S
C498 C499 1.400 . S
C499 C498 1.400 . S
C499 C500 1.398 . S
C499 C505 1.491 . S
C500 H491 0.950 . S
C500 C499 1.398 . S
C500 C501 1.391 . S
C501 H489 0.950 . S
C501 C497 1.393 . S
C501 C500 1.391 . S
C502 H492 0.950 . S
C502 C503 1.386 . S
C502 C504 1.391 . S
C503 C502 1.386 . S
C503 C507 1.393 . S
C504 H493 0.950 . S
C504 C502 1.391 . S
C504 C505 1.400 . S
C505 C499 1.491 . S
C505 C504 1.400 . S
C505 C506 1.398 . S
C506 H494 0.950 . S
C506 C505 1.398 . S
C506 C507 1.391 . S
C507 H495 0.950 1_545 S
C507 C503 1.393 . S
C507 C506 1.391 . S
H508 C516 0.950 . S
H509 C521 0.950 . S
H510 C518 0.950 . S
H511 C520 0.950 . S
H512 C522 0.950 . S
H513 C524 0.950 . S
H514 C526 0.950 . S
H515 C527 0.950 . S
C516 H508 0.950 . S
C516 C517 1.386 . S
C516 C518 1.391 . S
C517 C516 1.386 . S
C517 C521 1.393 . S
C518 H510 0.950 . S
C518 C516 1.391 . S
C518 C519 1.400 . S
C519 C518 1.400 . S
C519 C520 1.398 . S
C519 C525 1.491 . S
C520 H511 0.950 . S
C520 C519 1.398 . S
C520 C521 1.391 . S
C521 H509 0.950 . S
C521 C517 1.393 . S
C521 C520 1.391 . S
C522 H512 0.950 . S
C522 C523 1.386 . S
C522 C524 1.391 . S
C523 C522 1.386 . S
C523 C527 1.393 . S
C524 H513 0.950 . S
C524 C522 1.391 . S
C524 C525 1.400 . S
C525 C519 1.491 . S
C525 C524 1.400 . S
C525 C526 1.398 . S
C526 H514 0.950 . S
C526 C525 1.398 . S
C526 C527 1.391 . S
C527 H515 0.950 . S
C527 C523 1.393 . S
C527 C526 1.391 . S
H528 C536 0.950 . S
H529 C541 0.950 . S
H530 C538 0.950 . S
H531 C540 0.950 . S
H532 C542 0.950 . S
H533 C544 0.950 . S
H534 C546 0.950 . S
H535 C547 0.950 . S
C536 H528 0.950 . S
C536 C537 1.386 . S
C536 C538 1.391 . S
C537 C536 1.386 . S
C537 C541 1.393 . S
C538 H530 0.950 . S
C538 C536 1.391 . S
C538 C539 1.400 . S
C539 C538 1.400 . S
C539 C540 1.398 . S
C539 C545 1.491 . S
C540 H531 0.950 . S
C540 C539 1.398 . S
C540 C541 1.391 . S
C541 H529 0.950 . S
C541 C537 1.393 . S
C541 C540 1.391 . S
C542 H532 0.950 . S
C542 C543 1.386 . S
C542 C544 1.391 . S
C543 C542 1.386 . S
C543 C547 1.393 . S
C544 H533 0.950 . S
C544 C542 1.391 . S
C544 C545 1.400 . S
C545 C539 1.491 . S
C545 C544 1.400 . S
C545 C546 1.398 . S
C546 H534 0.950 . S
C546 C545 1.398 . S
C546 C547 1.391 . S
C547 H535 0.950 . S
C547 C543 1.393 . S
C547 C546 1.391 . S
H548 C556 0.950 . S
H549 C561 0.950 . S
H550 C558 0.950 . S
H551 C560 0.950 . S
H552 C562 0.950 . S
H553 C564 0.950 . S
H554 C566 0.953 1_655 S
H555 C567 0.950 1_655 S
C556 H548 0.950 . S
C556 C557 1.386 . S
C556 C558 1.391 . S
C557 C556 1.386 . S
C557 C561 1.393 . S
C558 H550 0.950 . S
C558 C556 1.391 . S
C558 C559 1.400 . S
C559 C558 1.400 . S
C559 C560 1.398 . S
C559 C565 1.491 . S
C560 H551 0.950 . S
C560 C559 1.398 . S
C560 C561 1.391 . S
C561 H549 0.950 . S
C561 C557 1.393 . S
C561 C560 1.391 . S
C562 H552 0.950 . S
C562 C563 1.386 . S
C562 C564 1.391 . S
C563 C562 1.386 . S
C563 C567 1.393 . S
C564 H553 0.950 . S
C564 C562 1.391 . S
C564 C565 1.400 . S
C565 C559 1.491 . S
C565 C564 1.400 . S
C565 C566 1.398 . S
C566 H554 0.953 1_455 S
C566 C565 1.398 . S
C566 C567 1.391 . S
C567 H555 0.950 1_455 S
C567 C563 1.393 . S
C567 C566 1.391 . S
H568 C576 0.950 . S
H569 C581 0.950 . S
H570 C578 0.950 . S
H571 C580 0.950 . S
H572 C582 0.950 . S
H573 C584 0.950 . S
H574 C586 0.950 1_554 S
H575 C587 0.950 1_545 S
C576 H568 0.950 . S
C576 C577 1.386 . S
C576 C578 1.391 . S
C577 C576 1.386 . S
C577 C581 1.393 . S
C578 H570 0.950 . S
C578 C576 1.391 . S
C578 C579 1.400 . S
C579 C578 1.400 . S
C579 C580 1.398 1_554 S
C579 C585 1.491 1_554 S
C580 H571 0.950 . S
C580 C579 1.398 1_556 S
C580 C581 1.391 1_556 S
C581 H569 0.950 . S
C581 C577 1.393 . S
C581 C580 1.391 1_554 S
C582 H572 0.950 . S
C582 C583 1.386 . S
C582 C584 1.391 . S
C583 C582 1.386 . S
C583 C587 1.393 . S
C584 H573 0.950 . S
C584 C582 1.391 . S
C584 C585 1.400 . S
C585 C579 1.491 1_556 S
C585 C584 1.400 . S
C585 C586 1.398 . S
C586 H574 0.950 1_556 S
C586 C585 1.398 . S
C586 C587 1.391 . S
C587 H575 0.950 1_565 S
C587 C583 1.393 . S
C587 C586 1.391 . S
H588 C596 0.950 . S
H589 C601 0.950 . S
H590 C598 0.950 . S
H591 C600 0.950 . S
H592 C602 0.950 . S
H593 C604 0.950 . S
H594 C606 0.950 . S
H595 C607 0.950 . S
C596 H588 0.950 . S
C596 C597 1.386 . S
C596 C598 1.391 . S
C597 C596 1.386 . S
C597 C601 1.393 . S
C598 H590 0.950 . S
C598 C596 1.391 . S
C598 C599 1.400 . S
C599 C598 1.400 . S
C599 C600 1.398 . S
C599 C605 1.491 1_554 S
C600 H591 0.950 . S
C600 C599 1.398 . S
C600 C601 1.391 . S
C601 H589 0.950 . S
C601 C597 1.393 . S
C601 C600 1.391 . S
C602 H592 0.950 . S
C602 C603 1.386 . S
C602 C604 1.391 . S
C603 C602 1.386 . S
C603 C607 1.393 . S
C604 H593 0.950 . S
C604 C602 1.391 . S
C604 C605 1.400 . S
C605 C599 1.491 1_556 S
C605 C604 1.400 . S
C605 C606 1.398 . S
C606 H594 0.950 . S
C606 C605 1.398 . S
C606 C607 1.391 . S
C607 H595 0.950 . S
C607 C603 1.393 . S
C607 C606 1.391 . S
H608 C616 0.950 . S
H609 C621 0.950 . S
H610 C618 0.950 . S
H611 C620 0.950 1_556 S
H612 C622 0.950 . S
H613 C624 0.950 . S
H614 C626 0.950 . S
H615 C627 0.950 . S
C616 H608 0.950 . S
C616 C617 1.386 . S
C616 C618 1.391 . S
C617 C616 1.386 . S
C617 C621 1.393 . S
C618 H610 0.950 . S
C618 C616 1.391 . S
C618 C619 1.400 . S
C619 C618 1.400 . S
C619 C620 1.398 . S
C619 C625 1.491 1_554 S
C620 H611 0.950 1_554 S
C620 C619 1.398 . S
C620 C621 1.391 . S
C621 H609 0.950 . S
C621 C617 1.393 . S
C621 C620 1.391 . S
C622 H612 0.950 . S
C622 C623 1.386 . S
C622 C624 1.391 . S
C623 C622 1.386 . S
C623 C627 1.393 . S
C624 H613 0.950 . S
C624 C622 1.391 . S
C624 C625 1.400 . S
C625 C619 1.491 1_556 S
C625 C624 1.400 . S
C625 C626 1.398 . S
C626 H614 0.950 . S
C626 C625 1.398 . S
C626 C627 1.391 . S
C627 H615 0.950 . S
C627 C623 1.393 . S
C627 C626 1.391 . S
H628 C636 0.950 . S
H629 C641 0.950 . S
H630 C638 0.950 . S
H631 C640 0.950 . S
H632 C642 0.950 1_455 S
H633 C644 0.950 1_554 S
H634 C646 0.950 . S
H635 C647 0.950 . S
C636 H628 0.950 . S
C636 C637 1.386 . S
C636 C638 1.391 1_554 S
C637 C636 1.386 . S
C637 C641 1.393 . S
C638 H630 0.950 . S
C638 C636 1.391 1_556 S
C638 C639 1.400 1_556 S
C639 C638 1.400 1_554 S
C639 C640 1.398 . S
C639 C645 1.491 1_554 S
C640 H631 0.950 . S
C640 C639 1.398 . S
C640 C641 1.391 . S
C641 H629 0.950 . S
C641 C637 1.393 . S
C641 C640 1.391 . S
C642 H632 0.950 1_655 S
C642 C643 1.386 . S
C642 C644 1.391 . S
C643 C642 1.386 . S
C643 C647 1.393 . S
C644 H633 0.950 1_556 S
C644 C642 1.391 . S
C644 C645 1.400 . S
C645 C639 1.491 1_556 S
C645 C644 1.400 . S
C645 C646 1.398 . S
C646 H634 0.950 . S
C646 C645 1.398 . S
C646 C647 1.391 . S
C647 H635 0.950 . S
C647 C643 1.393 . S
C647 C646 1.391 . S
H648 C656 0.950 . S
H649 C661 0.950 1_556 S
H650 C658 0.950 . S
H651 C660 0.950 . S
H652 C662 0.950 1_655 S
H653 C664 0.950 . S
H654 C666 0.950 . S
H655 C667 0.950 . S
C656 H648 0.950 . S
C656 C657 1.386 . S
C656 C658 1.391 . S
C657 C656 1.386 . S
C657 C661 1.393 . S
C658 H650 0.950 . S
C658 C656 1.391 . S
C658 C659 1.400 . S
C659 C658 1.400 . S
C659 C660 1.398 . S
C659 C665 1.491 . S
C660 H651 0.950 . S
C660 C659 1.398 . S
C660 C661 1.391 . S
C661 H649 0.950 1_554 S
C661 C657 1.393 . S
C661 C660 1.391 . S
C662 H652 0.950 1_455 S
C662 C663 1.386 . S
C662 C664 1.391 . S
C663 C662 1.386 . S
C663 C667 1.393 . S
C664 H653 0.950 . S
C664 C662 1.391 . S
C664 C665 1.400 . S
C665 C659 1.491 . S
C665 C664 1.400 . S
C665 C666 1.398 . S
C666 H654 0.950 . S
C666 C665 1.398 . S
C666 C667 1.391 . S
C667 H655 0.950 . S
C667 C663 1.393 . S
C667 C666 1.391 . S
H668 C676 0.950 . S
H669 C681 0.950 . S
H670 C678 0.950 . S
H671 C680 0.950 . S
H672 C682 0.986 . S
H673 C684 0.937 1_565 S
H674 C686 0.950 . S
H675 C687 0.950 . S
C676 H668 0.950 . S
C676 C677 1.386 . S
C676 C678 1.391 . S
C677 C676 1.386 . S
C677 C681 1.393 . S
C678 H670 0.950 . S
C678 C676 1.391 . S
C678 C679 1.400 . S
C679 C678 1.400 . S
C679 C680 1.398 . S
C679 C685 1.491 . S
C680 H671 0.950 . S
C680 C679 1.398 . S
C680 C681 1.391 . S
C681 H669 0.950 . S
C681 C677 1.393 . S
C681 C680 1.391 . S
C682 H672 0.986 . S
C682 C683 1.365 1_565 S
C682 C684 1.377 1_565 S
C683 C682 1.365 1_545 S
C683 C687 1.393 . S
C684 H673 0.937 1_545 S
C684 C682 1.377 1_545 S
C684 C685 1.400 . S
C685 C679 1.491 . S
C685 C684 1.400 . S
C685 C686 1.398 . S
C686 H674 0.950 . S
C686 C685 1.398 . S
C686 C687 1.391 . S
C687 H675 0.950 . S
C687 C683 1.393 . S
C687 C686 1.391 . S
H688 C696 0.950 . S
H689 C701 0.950 1_556 S
H690 C698 0.950 . S
H691 C700 0.950 . S
H692 C702 0.950 . S
H693 C704 0.950 . S
H694 C706 0.950 . S
H695 C707 0.950 . S
C696 H688 0.950 . S
C696 C697 1.386 . S
C696 C698 1.391 . S
C697 C696 1.386 . S
C697 C701 1.393 . S
C698 H690 0.950 . S
C698 C696 1.391 . S
C698 C699 1.400 . S
C699 C698 1.400 . S
C699 C700 1.398 . S
C699 C705 1.491 . S
C700 H691 0.950 . S
C700 C699 1.398 . S
C700 C701 1.391 . S
C701 H689 0.950 1_554 S
C701 C697 1.393 . S
C701 C700 1.391 . S
C702 H692 0.950 . S
C702 C703 1.386 . S
C702 C704 1.391 . S
C703 C702 1.386 . S
C703 C707 1.393 . S
C704 H693 0.950 . S
C704 C702 1.391 . S
C704 C705 1.400 . S
C705 C699 1.491 . S
C705 C704 1.400 . S
C705 C706 1.398 . S
C706 H694 0.950 . S
C706 C705 1.398 . S
C706 C707 1.391 . S
C707 H695 0.950 . S
C707 C703 1.393 . S
C707 C706 1.391 . S
H708 C716 0.950 . S
H709 C721 0.950 . S
H710 C718 0.950 . S
H711 C720 0.950 . S
H712 C722 0.950 . S
H713 C724 0.950 . S
H714 C726 0.950 . S
H715 C727 0.950 . S
C716 H708 0.950 . S
C716 C717 1.386 . S
C716 C718 1.391 . S
C717 C716 1.386 . S
C717 C721 1.393 . S
C718 H710 0.950 . S
C718 C716 1.391 . S
C718 C719 1.400 . S
C719 C718 1.400 . S
C719 C720 1.398 . S
C719 C725 1.491 . S
C720 H711 0.950 . S
C720 C719 1.398 . S
C720 C721 1.391 . S
C721 H709 0.950 . S
C721 C717 1.393 . S
C721 C720 1.391 . S
C722 H712 0.950 . S
C722 C723 1.386 . S
C722 C724 1.391 . S
C723 C722 1.386 . S
C723 C727 1.393 . S
C724 H713 0.950 . S
C724 C722 1.391 . S
C724 C725 1.400 . S
C725 C719 1.491 . S
C725 C724 1.400 . S
C725 C726 1.398 . S
C726 H714 0.950 . S
C726 C725 1.398 . S
C726 C727 1.391 . S
C727 H715 0.950 . S
C727 C723 1.393 . S
C727 C726 1.391 . S
H728 C736 0.950 . S
H729 C741 0.950 . S
H730 C738 0.950 . S
H731 C740 0.950 . S
H732 C742 0.950 . S
H733 C744 0.950 . S
H734 C746 0.950 . S
H735 C747 0.950 . S
C736 H728 0.950 . S
C736 C737 1.386 . S
C736 C738 1.391 . S
C737 C736 1.386 . S
C737 C741 1.393 . S
C738 H730 0.950 . S
C738 C736 1.391 . S
C738 C739 1.400 . S
C739 C738 1.400 . S
C739 C740 1.398 . S
C739 C745 1.491 . S
C740 H731 0.950 . S
C740 C739 1.398 . S
C740 C741 1.391 . S
C741 H729 0.950 . S
C741 C737 1.393 . S
C741 C740 1.391 . S
C742 H732 0.950 . S
C742 C743 1.386 1_554 S
C742 C744 1.391 . S
C743 C742 1.386 1_556 S
C743 C747 1.393 1_455 S
C744 H733 0.950 . S
C744 C742 1.391 . S
C744 C745 1.400 1_455 S
C745 C739 1.491 . S
C745 C744 1.400 1_655 S
C745 C746 1.398 1_554 S
C746 H734 0.950 . S
C746 C745 1.398 1_556 S
C746 C747 1.391 . S
C747 H735 0.950 . S
C747 C743 1.393 1_655 S
C747 C746 1.391 . S
H748 C756 0.950 . S
H749 C761 0.950 . S
H750 C758 0.950 1_545 S
H751 C760 0.950 . S
H752 C762 0.950 . S
H753 C764 0.950 . S
H754 C766 0.950 . S
H755 C767 0.950 . S
C756 H748 0.950 . S
C756 C757 1.386 . S
C756 C758 1.391 . S
C757 C756 1.386 . S
C757 C761 1.393 . S
C758 H750 0.950 1_565 S
C758 C756 1.391 . S
C758 C759 1.400 . S
C759 C758 1.400 . S
C759 C760 1.398 . S
C759 C765 1.491 . S
C760 H751 0.950 . S
C760 C759 1.398 . S
C760 C761 1.391 . S
C761 H749 0.950 . S
C761 C757 1.393 . S
C761 C760 1.391 . S
C762 H752 0.950 . S
C762 C763 1.386 1_565 S
C762 C764 1.391 1_556 S
C763 C762 1.386 1_545 S
C763 C767 1.393 1_556 S
C764 H753 0.950 . S
C764 C762 1.391 1_554 S
C764 C765 1.400 . S
C765 C759 1.491 . S
C765 C764 1.400 . S
C765 C766 1.398 1_565 S
C766 H754 0.950 . S
C766 C765 1.398 1_545 S
C766 C767 1.391 . S
C767 H755 0.950 . S
C767 C763 1.393 1_554 S
C767 C766 1.391 . S
H768 C776 0.950 . S
H769 C781 0.950 . S
H770 C778 0.950 . S
H771 C780 0.950 . S
H772 C782 0.950 . S
H773 C784 0.950 . S
H774 C786 0.950 . S
H775 C787 0.950 1_556 S
C776 H768 0.950 . S
C776 C777 1.386 . S
C776 C778 1.391 . S
C777 C776 1.386 . S
C777 C781 1.393 . S
C778 H770 0.950 . S
C778 C776 1.391 . S
C778 C779 1.400 . S
C779 C778 1.400 . S
C779 C780 1.398 . S
C779 C785 1.491 . S
C780 H771 0.950 . S
C780 C779 1.398 . S
C780 C781 1.391 . S
C781 H769 0.950 . S
C781 C777 1.393 . S
C781 C780 1.391 . S
C782 H772 0.950 . S
C782 C783 1.386 . S
C782 C784 1.391 . S
C783 C782 1.386 . S
C783 C787 1.393 . S
C784 H773 0.950 . S
C784 C782 1.391 . S
C784 C785 1.400 . S
C785 C779 1.491 . S
C785 C784 1.400 . S
C785 C786 1.398 . S
C786 H774 0.950 . S
C786 C785 1.398 . S
C786 C787 1.391 . S
C787 H775 0.950 1_554 S
C787 C783 1.393 . S
C787 C786 1.391 . S
H788 C796 0.950 . S
H789 C801 0.950 . S
H790 C798 0.950 . S
H791 C800 0.943 1_556 S
H792 C802 0.950 . S
H793 C804 0.950 . S
H794 C806 0.950 . S
H795 C807 0.950 . S
C796 H788 0.950 . S
C796 C797 1.386 . S
C796 C798 1.391 . S
C797 C796 1.386 . S
C797 C801 1.393 . S
C798 H790 0.950 . S
C798 C796 1.391 . S
C798 C799 1.400 . S
C799 C798 1.400 . S
C799 C800 1.398 . S
C799 C805 1.491 . S
C800 H791 0.943 1_554 S
C800 C799 1.398 . S
C800 C801 1.391 . S
C801 H789 0.950 . S
C801 C797 1.393 . S
C801 C800 1.391 . S
C802 H792 0.950 . S
C802 C803 1.386 1_556 S
C802 C804 1.391 . S
C803 C802 1.386 1_554 S
C803 C807 1.393 . S
C804 H793 0.950 . S
C804 C802 1.391 . S
C804 C805 1.400 1_556 S
C805 C799 1.491 . S
C805 C804 1.400 1_554 S
C805 C806 1.398 . S
C806 H794 0.950 . S
C806 C805 1.398 . S
C806 C807 1.391 . S
C807 H795 0.950 . S
C807 C803 1.393 . S
C807 C806 1.391 . S
H808 C816 0.950 . S
H809 C821 0.950 . S
H810 C818 0.950 . S
H811 C820 0.950 . S
H812 C822 0.950 . S
H813 C824 0.950 . S
H814 C826 0.950 . S
H815 C827 0.950 . S
C816 H808 0.950 . S
C816 C817 1.386 . S
C816 C818 1.391 . S
C817 C816 1.386 . S
C817 C821 1.393 . S
C818 H810 0.950 . S
C818 C816 1.391 . S
C818 C819 1.400 . S
C819 C818 1.400 . S
C819 C820 1.398 . S
C819 C825 1.491 . S
C820 H811 0.950 . S
C820 C819 1.398 . S
C820 C821 1.391 . S
C821 H809 0.950 . S
C821 C817 1.393 . S
C821 C820 1.391 . S
C822 H812 0.950 . S
C822 C823 1.386 . S
C822 C824 1.391 . S
C823 C822 1.386 . S
C823 C827 1.393 . S
C824 H813 0.950 . S
C824 C822 1.391 . S
C824 C825 1.400 . S
C825 C819 1.491 . S
C825 C824 1.400 . S
C825 C826 1.398 . S
C826 H814 0.950 . S
C826 C825 1.398 . S
C826 C827 1.391 . S
C827 H815 0.950 . S
C827 C823 1.393 . S
C827 C826 1.391 . S
H828 C836 0.950 . S
H829 C841 0.950 . S
H830 C838 0.950 . S
H831 C840 0.950 . S
H832 C842 0.950 . S
H833 C844 0.950 . S
H834 C846 0.950 . S
H835 C847 0.950 . S
C836 H828 0.950 . S
C836 C837 1.386 . S
C836 C838 1.391 . S
C837 C836 1.386 . S
C837 C841 1.393 . S
C838 H830 0.950 . S
C838 C836 1.391 . S
C838 C839 1.400 . S
C839 C838 1.400 . S
C839 C840 1.398 . S
C839 C845 1.491 . S
C840 H831 0.950 . S
C840 C839 1.398 . S
C840 C841 1.391 . S
C841 H829 0.950 . S
C841 C837 1.393 . S
C841 C840 1.391 . S
C842 H832 0.950 . S
C842 C843 1.386 . S
C842 C844 1.391 . S
C843 C842 1.386 . S
C843 C847 1.393 . S
C844 H833 0.950 . S
C844 C842 1.391 . S
C844 C845 1.400 . S
C845 C839 1.491 . S
C845 C844 1.400 . S
C845 C846 1.398 . S
C846 H834 0.950 . S
C846 C845 1.398 . S
C846 C847 1.391 . S
C847 H835 0.950 . S
C847 C843 1.393 . S
C847 C846 1.391 . S
H848 C856 0.950 . S
H849 C861 0.950 . S
H850 C858 0.950 . S
H851 C860 0.950 . S
H852 C862 0.950 . S
H853 C864 0.950 . S
H854 C866 0.950 . S
H855 C867 0.950 . S
C856 H848 0.950 . S
C856 C857 1.386 . S
C856 C858 1.391 . S
C857 C856 1.386 . S
C857 C861 1.393 . S
C858 H850 0.950 . S
C858 C856 1.391 . S
C858 C859 1.400 . S
C859 C858 1.400 . S
C859 C860 1.398 . S
C859 C865 1.491 . S
C860 H851 0.950 . S
C860 C859 1.398 . S
C860 C861 1.391 . S
C861 H849 0.950 . S
C861 C857 1.393 . S
C861 C860 1.391 . S
C862 H852 0.950 . S
C862 C863 1.386 . S
C862 C864 1.391 . S
C863 C862 1.386 . S
C863 C867 1.393 . S
C864 H853 0.950 . S
C864 C862 1.391 . S
C864 C865 1.400 . S
C865 C859 1.491 . S
C865 C864 1.400 . S
C865 C866 1.398 . S
C866 H854 0.950 . S
C866 C865 1.398 . S
C866 C867 1.391 . S
C867 H855 0.950 . S
C867 C863 1.393 . S
C867 C866 1.391 . S
H868 C876 0.950 . S
H869 C881 0.950 . S
H870 C878 0.950 . S
H871 C880 0.950 . S
H872 C882 0.950 . S
H873 C884 0.950 . S
H874 C886 0.950 . S
H875 C887 0.950 . S
C876 H868 0.950 . S
C876 C877 1.386 . S
C876 C878 1.391 . S
C877 C876 1.386 . S
C877 C881 1.393 . S
C878 H870 0.950 . S
C878 C876 1.391 . S
C878 C879 1.400 . S
C879 C878 1.400 . S
C879 C880 1.398 . S
C879 C885 1.491 . S
C880 H871 0.950 . S
C880 C879 1.398 . S
C880 C881 1.391 . S
C881 H869 0.950 . S
C881 C877 1.393 . S
C881 C880 1.391 . S
C882 H872 0.950 . S
C882 C883 1.386 . S
C882 C884 1.391 . S
C883 C882 1.386 . S
C883 C887 1.393 . S
C884 H873 0.950 . S
C884 C882 1.391 . S
C884 C885 1.400 . S
C885 C879 1.491 . S
C885 C884 1.400 . S
C885 C886 1.398 . S
C886 H874 0.950 . S
C886 C885 1.398 . S
C886 C887 1.391 . S
C887 H875 0.950 . S
C887 C883 1.393 . S
C887 C886 1.391 . S
H888 C896 0.950 . S
H889 C901 0.950 . S
H890 C898 0.950 . S
H891 C900 0.950 . S
H892 C902 0.950 . S
H893 C904 0.950 . S
H894 C906 0.950 . S
H895 C907 0.950 . S
C896 H888 0.950 . S
C896 C897 1.386 . S
C896 C898 1.391 . S
C897 C896 1.386 . S
C897 C901 1.393 . S
C898 H890 0.950 . S
C898 C896 1.391 . S
C898 C899 1.400 . S
C899 C898 1.400 . S
C899 C900 1.398 . S
C899 C905 1.491 . S
C900 H891 0.950 . S
C900 C899 1.398 . S
C900 C901 1.391 . S
C901 H889 0.950 . S
C901 C897 1.393 . S
C901 C900 1.391 . S
C902 H892 0.950 . S
C902 C903 1.386 . S
C902 C904 1.391 . S
C903 C902 1.386 . S
C903 C907 1.393 . S
C904 H893 0.950 . S
C904 C902 1.391 . S
C904 C905 1.400 . S
C905 C899 1.491 . S
C905 C904 1.400 . S
C905 C906 1.398 . S
C906 H894 0.950 . S
C906 C905 1.398 . S
C906 C907 1.391 . S
C907 H895 0.950 . S
C907 C903 1.393 . S
C907 C906 1.391 . S
H908 C916 0.950 . S
H909 C921 0.950 . S
H910 C918 0.950 . S
H911 C920 0.950 . S
H912 C922 0.950 . S
H913 C924 0.950 . S
H914 C926 0.950 . S
H915 C927 0.950 1_545 S
C916 H908 0.950 . S
C916 C917 1.386 . S
C916 C918 1.391 . S
C917 C916 1.386 . S
C917 C921 1.393 . S
C918 H910 0.950 . S
C918 C916 1.391 . S
C918 C919 1.400 . S
C919 C918 1.400 . S
C919 C920 1.398 . S
C919 C925 1.491 . S
C920 H911 0.950 . S
C920 C919 1.398 . S
C920 C921 1.391 . S
C921 H909 0.950 . S
C921 C917 1.393 . S
C921 C920 1.391 . S
C922 H912 0.950 . S
C922 C923 1.386 . S
C922 C924 1.391 . S
C923 C922 1.386 . S
C923 C927 1.393 . S
C924 H913 0.950 . S
C924 C922 1.391 . S
C924 C925 1.400 . S
C925 C919 1.491 . S
C925 C924 1.400 . S
C925 C926 1.398 . S
C926 H914 0.950 . S
C926 C925 1.398 . S
C926 C927 1.391 . S
C927 H915 0.950 1_565 S
C927 C923 1.393 . S
C927 C926 1.391 . S
H928 C936 0.950 . S
H929 C941 0.950 . S
H930 C938 0.950 . S
H931 C940 0.950 . S
H932 C942 0.950 . S
H933 C944 0.950 . S
H934 C946 0.950 . S
H935 C947 0.950 . S
C936 H928 0.950 . S
C936 C937 1.386 . S
C936 C938 1.391 . S
C937 C936 1.386 . S
C937 C941 1.393 . S
C938 H930 0.950 . S
C938 C936 1.391 . S
C938 C939 1.400 . S
C939 C938 1.400 . S
C939 C940 1.398 . S
C939 C945 1.491 . S
C940 H931 0.950 . S
C940 C939 1.398 . S
C940 C941 1.391 . S
C941 H929 0.950 . S
C941 C937 1.393 . S
C941 C940 1.391 . S
C942 H932 0.950 . S
C942 C943 1.386 . S
C942 C944 1.391 . S
C943 C942 1.386 . S
C943 C947 1.393 . S
C944 H933 0.950 . S
C944 C942 1.391 . S
C944 C945 1.400 . S
C945 C939 1.491 . S
C945 C944 1.400 . S
C945 C946 1.398 . S
C946 H934 0.950 . S
C946 C945 1.398 . S
C946 C947 1.391 . S
C947 H935 0.950 . S
C947 C943 1.393 . S
C947 C946 1.391 . S
H948 C956 0.950 . S
H949 C961 0.950 . S
H950 C958 0.950 . S
H951 C960 0.950 . S
H952 C962 0.950 . S
H953 C964 0.950 . S
H954 C966 0.950 . S
H955 C967 0.950 . S
C956 H948 0.950 . S
C956 C957 1.386 . S
C956 C958 1.391 . S
C957 C956 1.386 . S
C957 C961 1.393 . S
C958 H950 0.950 . S
C958 C956 1.391 . S
C958 C959 1.400 . S
C959 C958 1.400 . S
C959 C960 1.398 . S
C959 C965 1.491 . S
C960 H951 0.950 . S
C960 C959 1.398 . S
C960 C961 1.391 . S
C961 H949 0.950 . S
C961 C957 1.393 . S
C961 C960 1.391 . S
C962 H952 0.950 . S
C962 C963 1.386 . S
C962 C964 1.391 . S
C963 C962 1.386 . S
C963 C967 1.393 . S
C964 H953 0.950 . S
C964 C962 1.391 . S
C964 C965 1.400 . S
C965 C959 1.491 . S
C965 C964 1.400 . S
C965 C966 1.398 . S
C966 H954 0.950 . S
C966 C965 1.398 . S
C966 C967 1.391 . S
C967 H955 0.950 . S
C967 C963 1.393 . S
C967 C966 1.391 . S
C497 C125 1.906 . S
C503 C226 1.925 . S
C523 C310 1.948 . S
C517 C144 1.916 . S
C543 C376 1.961 . S
C537 C87 2.002 . S
C563 C460 1.913 . S
C557 C106 1.994 . S
C583 C215 1.929 1_565 S
C577 C49 1.987 . S
C597 C68 2.011 . S
C603 C299 1.964 . S
C617 C11 2.112 . S
C623 C387 1.937 . S
C637 C30 2.098 . S
C643 C471 1.918 . S
C663 C222 0.711 1_455 S
C657 C97 0.686 . S
C683 C306 0.711 . S
C677 C116 0.672 . S
C703 C378 0.654 . S
C697 C135 0.625 . S
C717 C78 0.684 . S
C723 C462 0.656 . S
C737 C21 0.682 . S
C743 C210 0.668 . S
C763 C294 0.658 . S
C757 C40 0.685 . S
C783 C390 0.603 . S
C777 C59 0.681 . S
C797 C2 0.669 . S
C803 C474 0.669 . S
C817 C101 2.020 . S
C823 C219 2.079 . S
C837 C120 2.002 . S
C843 C303 2.055 . S
C863 C383 2.082 . S
C857 C139 1.920 . S
C883 C467 2.109 . S
C877 C82 1.955 . S
C897 C25 2.037 . S
C903 C208 2.087 . S
C923 C292 2.044 1_565 S
C917 C44 1.992 . S
C943 C394 2.084 . S
C937 C63 1.903 . S
C957 C6 1.932 . S
C963 C478 2.108 . S
