# Generated by pormake.
# Topology tsx, (6,3)-cn, num edge types: 1
# Building blocks:
#     Node 0, Type 0, BuildingBlock: VOLQOD_clean_sbu_1, # of connection points: 6
#     Node 1, Type 0, BuildingBlock: VOLQOD_clean_sbu_1, # of connection points: 6
#     Node 2, Type 1, BuildingBlock: BETDAH_clean_linker_0, # of connection points: 3
#     Node 3, Type 1, BuildingBlock: BETDAH_clean_linker_0, # of connection points: 3
#     Node 4, Type 1, BuildingBlock: BETDAH_clean_linker_0, # of connection points: 3
#     Node 5, Type 1, BuildingBlock: BETDAH_clean_linker_0, # of connection points: 3
#     Edge 6, Type (0, 1), BuildingBlock: CIFDUS_clean_linker_0, # of connection points: 2
#     Edge 7, Type (0, 1), BuildingBlock: CIFDUS_clean_linker_0, # of connection points: 2
#     Edge 8, Type (0, 1), BuildingBlock: CIFDUS_clean_linker_0, # of connection points: 2
#     Edge 9, Type (0, 1), BuildingBlock: CIFDUS_clean_linker_0, # of connection points: 2
#     Edge 10, Type (0, 1), BuildingBlock: CIFDUS_clean_linker_0, # of connection points: 2
#     Edge 11, Type (0, 1), BuildingBlock: CIFDUS_clean_linker_0, # of connection points: 2
#     Edge 12, Type (0, 1), BuildingBlock: CIFDUS_clean_linker_0, # of connection points: 2
#     Edge 13, Type (0, 1), BuildingBlock: CIFDUS_clean_linker_0, # of connection points: 2
#     Edge 14, Type (0, 1), BuildingBlock: CIFDUS_clean_linker_0, # of connection points: 2
#     Edge 15, Type (0, 1), BuildingBlock: CIFDUS_clean_linker_0, # of connection points: 2
#     Edge 16, Type (0, 1), BuildingBlock: CIFDUS_clean_linker_0, # of connection points: 2
#     Edge 17, Type (0, 1), BuildingBlock: CIFDUS_clean_linker_0, # of connection points: 2
# Relax obj value: 0.054
# Max RMSD: 0.110
# Mean RMSD: 0.100
data_MOF--net-tsx--node1-VOLQOD_clean_sbu_1--node2-BETDAH_clean_linker_0--edge1-CIFDUS_clean_linker_0
_symmetry_space_group_name_H-M    P1
_symmetry_Int_Tables_number       1
_symmetry_cell_setting            triclinic
loop_
_symmetry_equiv_pos_as_xyz
'x, y, z'
_cell_length_a     18.774026
_cell_length_b     19.526421
_cell_length_c     32.702123
_cell_angle_alpha  90.497121
_cell_angle_beta   97.979861
_cell_angle_gamma 89.928773
loop_
_atom_site_label
_atom_site_type_symbol
_atom_site_fract_x
_atom_site_fract_y
_atom_site_fract_z
_atom_type_partial_charge
O0 O 0.08142 0.00475 0.10499 0.0
Zn1 Zn 0.10082 -0.00472 0.04604 0.0
O2 O 0.01292 0.00598 0.00753 0.0
Zn3 Zn 0.98785 0.92055 0.97805 0.0
Zn4 Zn 0.93539 0.03364 0.03843 0.0
Zn5 Zn 0.02805 0.0744 0.96655 0.0
O6 O 0.97685 0.93239 0.91607 0.0
O7 O 0.02817 0.03341 0.91008 0.0
O8 O 0.15018 0.90513 0.03637 0.0
O9 O 0.06928 0.85474 0.98972 0.0
O10 O 0.8987 0.87803 0.99548 0.0
O11 O 0.8615 0.9584 0.03611 0.0
O12 O 0.88497 0.11794 0.01326 0.0
O13 O 0.16844 0.07222 0.03891 0.0
O14 O 0.94521 0.13955 0.96073 0.0
O15 O 0.12006 0.12745 0.98263 0.0
C16 C 0.0294 0.03038 0.12128 0.0
C17 C 0.00109 0.97808 0.89403 0.0
C18 C 0.85408 0.89975 0.01867 0.0
C19 C 0.1301 0.8548 0.01239 0.0
C20 C 0.89393 0.15218 0.98136 0.0
C21 C 0.16998 0.11997 0.01282 0.0
O22 O 0.97101 0.04825 0.09928 0.0
O23 O 0.57318 0.4731 0.60394 0.0
Zn24 Zn 0.58988 0.47539 0.5438 0.0
O25 O 0.50288 0.50057 0.50743 0.0
Zn26 Zn 0.47483 0.42813 0.46798 0.0
Zn27 Zn 0.42635 0.51689 0.54115 0.0
Zn28 Zn 0.51927 0.58133 0.47531 0.0
O29 O 0.46256 0.46173 0.40966 0.0
O30 O 0.52114 0.56074 0.41446 0.0
O31 O 0.63203 0.38642 0.52518 0.0
O32 O 0.55095 0.35559 0.47212 0.0
O33 O 0.38381 0.38373 0.47876 0.0
O34 O 0.35327 0.44078 0.5328 0.0
O35 O 0.37604 0.60603 0.52565 0.0
O36 O 0.66295 0.54904 0.54277 0.0
O37 O 0.43725 0.64694 0.47746 0.0
O38 O 0.61177 0.62696 0.49901 0.0
C39 C 0.52193 0.49583 0.62213 0.0
C40 C 0.48901 0.51255 0.39285 0.0
C41 C 0.34256 0.39279 0.50606 0.0
C42 C 0.60978 0.34519 0.49569 0.0
C43 C 0.3859 0.65107 0.49906 0.0
C44 C 0.66418 0.6067 0.52508 0.0
O45 O 0.46384 0.51788 0.60176 0.0
H46 H 0.10955 0.93741 0.35063 0.0
H47 H 0.92929 0.05239 0.38268 0.0
H48 H 0.03799 0.909 0.46849 0.0
C49 C 0.07366 0.95058 0.37265 0.0
C50 C 0.08198 0.91796 0.41111 0.0
C51 C 0.0181 -0.00187 0.36152 0.0
C52 C 0.9722 0.01573 0.39063 0.0
C53 C 0.98085 0.98419 0.42964 0.0
C54 C 0.03435 0.93475 0.43909 0.0
N55 N 0.93525 -0.00163 0.45977 0.0
C56 C 0.89545 0.05787 0.46175 0.0
H57 H 0.90579 0.90454 0.64872 0.0
H58 H 0.08402 0.03932 0.63741 0.0
H59 H 0.98095 0.92787 0.53185 0.0
C60 C 0.94317 0.92764 0.63045 0.0
C61 C 0.93726 0.9116 0.58832 0.0
C62 C 0.99639 0.97318 0.64893 0.0
C63 C 0.04202 0.00476 0.62385 0.0
C64 C 0.03571 0.98847 0.58143 0.0
C65 C 0.98414 0.94153 0.56422 0.0
N66 N 0.08237 0.01557 0.55532 0.0
C67 C 0.11311 0.07994 0.56035 0.0
H68 H 0.60751 0.42868 0.86423 0.0
H69 H 0.40348 0.52179 0.87698 0.0
H70 H 0.51672 0.40851 0.97707 0.0
C71 C 0.56536 0.44034 0.88254 0.0
C72 C 0.57142 0.41588 0.92323 0.0
C73 C 0.50425 0.47696 0.86469 0.0
C74 C 0.45053 0.49277 0.88952 0.0
C75 C 0.456 0.46829 0.93019 0.0
C76 C 0.51532 0.42917 0.94632 0.0
N77 N 0.4008 0.47811 0.95507 0.0
C78 C 0.35649 0.53509 0.95328 0.0
H79 H 0.46246 0.39751 0.16259 0.0
H80 H 0.54243 0.5918 0.12899 0.0
H81 H 0.42763 0.46203 0.03601 0.0
C82 C 0.46834 0.43474 0.13895 0.0
C83 C 0.43827 0.42178 0.09791 0.0
C84 C 0.50127 0.49761 0.15096 0.0
C85 C 0.51629 0.54338 0.1203 0.0
C86 C 0.49211 0.52833 0.0784 0.0
C87 C 0.45082 0.46945 0.06782 0.0
N88 N 0.50314 0.57364 0.04625 0.0
C89 C 0.56238 0.61633 0.04722 0.0
H90 H 0.21227 0.1804 0.08544 0.0
H91 H 0.25064 0.17857 0.95864 0.0
H92 H 0.34187 0.26893 0.97425 0.0
H93 H 0.40889 0.34891 0.02444 0.0
H94 H 0.35094 0.36139 0.14803 0.0
H95 H 0.27133 0.26502 0.13342 0.0
C96 C 0.24117 0.19946 0.06133 0.0
C97 C 0.22603 0.17267 0.02122 0.0
C98 C 0.2906 0.25287 0.0701 0.0
C99 C 0.26211 0.19859 0.98985 0.0
C100 C 0.31406 0.25007 0.9988 0.0
C101 C 0.37849 0.3314 0.04818 0.0
C102 C 0.38863 0.3622 0.08781 0.0
C103 C 0.32839 0.278 0.03888 0.0
C104 C 0.34808 0.33759 0.11786 0.0
C105 C 0.30107 0.28277 0.10941 0.0
H106 H 0.11906 0.75962 0.95116 0.0
H107 H 0.25362 0.82117 0.06338 0.0
H108 H 0.33709 0.72766 0.05416 0.0
H109 H 0.37121 0.62805 0.01411 0.0
H110 H 0.2377 0.56867 0.90156 0.0
H111 H 0.15401 0.66239 0.91075 0.0
C112 C 0.16636 0.75248 0.97384 0.0
C113 C 0.17979 0.79708 0.00812 0.0
C114 C 0.21436 0.69947 0.96802 0.0
C115 C 0.24193 0.78749 0.03681 0.0
C116 C 0.28969 0.73415 0.03151 0.0
C117 C 0.32404 0.63635 0.99153 0.0
C118 C 0.31014 0.59266 0.95711 0.0
C119 C 0.2765 0.69001 0.99719 0.0
C120 C 0.24903 0.60258 0.92807 0.0
C121 C 0.20131 0.65576 0.93345 0.0
H122 H 0.83665 0.76333 1.00212 0.0
H123 H 0.73582 0.93629 0.054 0.0
H124 H 0.63746 0.86318 0.0689 0.0
H125 H 0.57882 0.7498 0.06652 0.0
H126 H 0.67995 0.57712 0.01535 0.0
H127 H 0.77972 0.65002 1.00109 0.0
C128 C 0.79305 0.78515 0.01653 0.0
C129 C 0.79361 0.85533 0.02672 0.0
C130 C 0.73694 0.74266 0.02543 0.0
C131 C 0.73689 0.88248 0.04578 0.0
C132 C 0.68055 0.8407 0.05438 0.0
C133 C 0.62328 0.72842 0.05265 0.0
C134 C 0.62318 0.65869 0.04222 0.0
C135 C 0.68001 0.77073 0.04439 0.0
C136 C 0.67998 0.6309 0.02389 0.0
C137 C 0.73662 0.67254 0.01558 0.0
H138 H 0.82179 0.243 0.02417 0.0
H139 H 0.84286 0.1719 0.90116 0.0
H140 H 0.74441 0.24628 0.87239 0.0
H141 H 0.64867 0.3255 0.88251 0.0
H142 H 0.63655 0.40983 0.00407 0.0
H143 H 0.73386 0.33457 0.0332 0.0
C144 C 0.80494 0.24444 0.99108 0.0
C145 C 0.83892 0.20204 0.96477 0.0
C146 C 0.74943 0.28871 0.97458 0.0
C147 C 0.81752 0.20451 0.92193 0.0
C148 C 0.76106 0.24668 0.90549 0.0
C149 C 0.66817 0.32943 0.91521 0.0
C150 C 0.63426 0.37343 0.94085 0.0
C151 C 0.72625 0.28847 0.93156 0.0
C152 C 0.65991 0.37538 0.98346 0.0
C153 C 0.71621 0.33279 1.00022 0.0
H154 H 0.68912 0.73156 0.49346 0.0
H155 H 0.77572 0.58672 0.58662 0.0
H156 H 0.8682 0.66847 0.61395 0.0
H157 H 0.92057 0.78314 0.61402 0.0
H158 H 0.83684 0.92768 0.52062 0.0
H159 H 0.74682 0.84392 0.49067 0.0
C160 C 0.72857 0.71763 0.5195 0.0
C161 C 0.72496 0.65338 0.53816 0.0
C162 C 0.7816 0.76498 0.53526 0.0
C163 C 0.77697 0.63592 0.57168 0.0
C164 C 0.82979 0.68271 0.58752 0.0
C165 C 0.88232 0.79607 0.58718 0.0
C166 C 0.88402 0.8612 0.56977 0.0
C167 C 0.83172 0.74771 0.57005 0.0
C168 C 0.83572 0.87756 0.5345 0.0
C169 C 0.7845 0.82985 0.51746 0.0
H170 H 0.75322 0.32535 0.51993 0.0
H171 H 0.56528 0.23072 0.45133 0.0
H172 H 0.63781 0.1341 0.43361 0.0
H173 H 0.75495 0.07604 0.43733 0.0
H174 H 0.94325 0.17037 0.50476 0.0
H175 H 0.87079 0.26785 0.52296 0.0
C176 C 0.7281 0.28334 0.50137 0.0
C177 C 0.6539 0.28522 0.48712 0.0
C178 C 0.77038 0.22826 0.49071 0.0
C179 C 0.62231 0.23069 0.46267 0.0
C180 C 0.66373 0.17539 0.45244 0.0
C181 C 0.77983 0.11849 0.45563 0.0
C182 C 0.85378 0.11725 0.46943 0.0
C183 C 0.73781 0.17378 0.46606 0.0
C184 C 0.88614 0.17137 0.49355 0.0
C185 C 0.84475 0.22668 0.5041 0.0
H186 H 0.29093 0.35111 0.57515 0.0
H187 H 0.26887 0.31942 0.44322 0.0
H188 H 0.18902 0.22232 0.44859 0.0
H189 H 0.13617 0.13946 0.4914 0.0
H190 H 0.16421 0.16486 0.62356 0.0
H191 H 0.23112 0.2718 0.61784 0.0
C192 C 0.26733 0.32376 0.54756 0.0
C193 C 0.28567 0.34201 0.50886 0.0
C194 C 0.22352 0.26655 0.55107 0.0
C195 C 0.25565 0.30585 0.47333 0.0
C196 C 0.21024 0.25032 0.47639 0.0
C197 C 0.15636 0.16919 0.51879 0.0
C198 C 0.14626 0.14543 0.55775 0.0
C199 C 0.1956 0.22911 0.51516 0.0
C200 C 0.17207 0.18312 0.5933 0.0
C201 C 0.21016 0.24387 0.58998 0.0
H202 H 0.31899 0.68574 0.42451 0.0
H203 H 0.33236 0.73644 0.55379 0.0
H204 H 0.24123 0.82625 0.53787 0.0
H205 H 0.15851 0.88964 0.48682 0.0
H206 H 0.13352 0.82522 0.35869 0.0
H207 H 0.22967 0.74255 0.37444 0.0
C208 C 0.30212 0.71693 0.44907 0.0
C209 C 0.33254 0.70578 0.49007 0.0
C210 C 0.24804 0.76607 0.43984 0.0
C211 C 0.30954 0.74489 0.52195 0.0
C212 C 0.2576 0.79598 0.51284 0.0
C213 C 0.17301 0.85695 0.46232 0.0
C214 C 0.13908 0.86519 0.42139 0.0
C215 C 0.22624 0.80678 0.47184 0.0
C216 C 0.15988 0.82237 0.39022 0.0
C217 C 0.2145 0.77422 0.39923 0.0
H218 H 0.92318 0.03395 0.17058 0.0
H219 H 0.15358 0.04485 0.17417 0.0
H220 H 0.16905 0.04856 0.24943 0.0
H221 H 0.11858 0.03763 0.31391 0.0
H222 H 0.88954 0.01351 0.31105 0.0
H223 H 0.87183 0.02942 0.23622 0.0
C224 C 0.97666 0.03799 0.18788 0.0
C225 C 0.0372 0.03842 0.16679 0.0
C226 C 0.98538 0.03818 0.23137 0.0
C227 C 0.10617 0.04349 0.18963 0.0
C228 C 0.11508 0.04588 0.23269 0.0
C229 C 0.06465 0.03611 0.297 0.0
C230 C 0.00567 0.02316 0.31813 0.0
C231 C 0.05525 0.04146 0.25384 0.0
C232 C 0.93602 0.02361 0.29577 0.0
C233 C 0.92591 0.03178 0.25283 0.0
H234 H 0.02562 0.07088 0.83566 0.0
H235 H 0.97209 0.85844 0.85117 0.0
H236 H 0.96984 0.83809 0.77734 0.0
H237 H 0.98279 0.88004 0.70873 0.0
H238 H 0.02904 0.09365 0.6917 0.0
H239 H 0.03677 0.11347 0.76614 0.0
C240 C 0.01352 0.02008 0.82293 0.0
C241 C -0.00106 0.96629 0.84903 0.0
C242 C 0.01167 0.00876 0.78028 0.0
C243 C 0.98313 0.90088 0.83189 0.0
C244 C 0.98206 0.8891 0.78965 0.0
C245 C 0.99357 0.93129 0.72106 0.0
C246 C 0.00451 0.98541 0.69439 0.0
C247 C 0.99598 0.94268 0.7636 0.0
C248 C 0.02085 0.05088 0.71138 0.0
C249 C 0.02469 0.06238 0.75394 0.0
H250 H 0.41605 0.4923 0.67098 0.0
H251 H 0.64649 0.505 0.67586 0.0
H252 H 0.66038 0.50998 0.75128 0.0
H253 H 0.60754 0.50744 0.81551 0.0
H254 H 0.3781 0.47901 0.81055 0.0
H255 H 0.36329 0.48748 0.73571 0.0
C256 C 0.46931 0.49636 0.68858 0.0
C257 C 0.53019 0.49804 0.66784 0.0
C258 C 0.47703 0.49751 0.73197 0.0
C259 C 0.59883 0.5029 0.69107 0.0
C260 C 0.60676 0.50615 0.73419 0.0
C261 C 0.55417 0.5021 0.79832 0.0
C262 C 0.49428 0.49179 0.81933 0.0
C263 C 0.54627 0.50276 0.75496 0.0
C264 C 0.42546 0.48797 0.7959 0.0
C265 C 0.41688 0.49176 0.7528 0.0
H266 H 0.58357 0.5594 0.34252 0.0
H267 H 0.37216 0.47211 0.34139 0.0
H268 H 0.3553 0.46794 0.26628 0.0
H269 H 0.40231 0.48157 0.20172 0.0
H270 H 0.61723 0.55783 0.20002 0.0
H271 H 0.63059 0.57593 0.27535 0.0
C272 C 0.53371 0.54021 0.32562 0.0
C273 C 0.47922 0.51574 0.34735 0.0
C274 C 0.52514 0.53594 0.28211 0.0
C275 C 0.415 0.49055 0.32531 0.0
C276 C 0.40525 0.4883 0.2824 0.0
C277 C 0.45247 0.50181 0.21777 0.0
C278 C 0.5094 0.51673 0.19551 0.0
C279 C 0.46039 0.50948 0.26064 0.0
C280 C 0.57286 0.54539 0.21655 0.0
C281 C 0.58054 0.55528 0.25958 0.0
loop_
_geom_bond_atom_site_label_1
_geom_bond_atom_site_label_2
_geom_bond_distance
_geom_bond_site_symmetry_2
_ccdc_geom_bond_type
O0 Zn1 1.953 . S
O0 C16 1.225 1_565 S
Zn1 O0 1.953 . S
Zn1 O2 1.949 1_565 S
Zn1 O8 1.919 . S
Zn1 O13 1.924 1_565 S
O2 Zn1 1.949 1_545 S
O2 Zn3 1.923 1_444 S
O2 Zn4 1.950 1_455 S
O2 Zn5 1.945 1_554 S
Zn3 O2 1.923 1_666 S
Zn3 O6 1.933 . S
Zn3 O9 1.941 1_655 S
Zn3 O10 1.965 . S
Zn4 O2 1.950 1_655 S
Zn4 O11 1.938 1_545 S
Zn4 O12 1.906 . S
Zn4 O22 1.953 . S
Zn5 O2 1.945 1_556 S
Zn5 O7 1.932 . S
Zn5 O14 1.977 1_455 S
Zn5 O15 1.910 . S
O6 Zn3 1.933 . S
O6 C17 1.226 1_565 S
O7 Zn5 1.932 . S
O7 C17 1.307 1_455 S
O8 Zn1 1.919 . S
O8 C19 1.253 1_554 S
O9 Zn3 1.941 1_455 S
O9 C19 1.283 . S
O10 Zn3 1.965 . S
O10 C18 1.303 1_556 S
O11 Zn4 1.938 1_565 S
O11 C18 1.247 . S
O12 Zn4 1.906 . S
O12 C20 1.304 1_554 S
O13 Zn1 1.924 1_545 S
O13 C21 1.311 . S
O14 Zn5 1.977 1_655 S
O14 C20 1.272 . S
O15 Zn5 1.910 . S
O15 C21 1.231 1_556 S
C16 O0 1.225 1_545 S
C16 O22 1.298 1_455 S
C17 O6 1.226 1_545 S
C17 O7 1.307 1_655 S
C18 O10 1.303 1_554 S
C18 O11 1.247 . S
C19 O8 1.253 1_556 S
C19 O9 1.283 . S
C20 O12 1.304 1_556 S
C20 O14 1.272 . S
C21 O13 1.311 . S
C21 O15 1.231 1_554 S
O22 Zn4 1.953 . S
O22 C16 1.298 1_655 S
O23 Zn24 1.953 . S
O23 C39 1.225 . S
Zn24 O23 1.953 . S
Zn24 O25 1.949 . S
Zn24 O31 1.919 . S
Zn24 O36 1.924 . S
O25 Zn24 1.949 . S
O25 Zn26 1.923 . S
O25 Zn27 1.950 . S
O25 Zn28 1.945 . S
Zn26 O25 1.923 . S
Zn26 O29 1.933 . S
Zn26 O32 1.941 . S
Zn26 O33 1.965 . S
Zn27 O25 1.950 . S
Zn27 O34 1.938 . S
Zn27 O35 1.906 . S
Zn27 O45 1.953 . S
Zn28 O25 1.945 . S
Zn28 O30 1.932 . S
Zn28 O37 1.977 . S
Zn28 O38 1.910 . S
O29 Zn26 1.933 . S
O29 C40 1.226 . S
O30 Zn28 1.932 . S
O30 C40 1.307 . S
O31 Zn24 1.919 . S
O31 C42 1.253 . S
O32 Zn26 1.941 . S
O32 C42 1.283 . S
O33 Zn26 1.965 . S
O33 C41 1.303 . S
O34 Zn27 1.938 . S
O34 C41 1.247 . S
O35 Zn27 1.906 . S
O35 C43 1.304 . S
O36 Zn24 1.924 . S
O36 C44 1.311 . S
O37 Zn28 1.977 . S
O37 C43 1.272 . S
O38 Zn28 1.910 . S
O38 C44 1.231 . S
C39 O23 1.225 . S
C39 O45 1.298 . S
C40 O29 1.226 . S
C40 O30 1.307 . S
C41 O33 1.303 . S
C41 O34 1.247 . S
C42 O31 1.253 . S
C42 O32 1.283 . S
C43 O35 1.304 . S
C43 O37 1.272 . S
C44 O36 1.311 . S
C44 O38 1.231 . S
O45 Zn27 1.953 . S
O45 C39 1.298 . S
H46 C49 0.929 . S
H47 C52 0.929 . S
H48 C54 0.930 . S
C49 H46 0.929 . S
C49 C50 1.398 . S
C49 C51 1.396 . S
C50 C49 1.398 . S
C50 C54 1.407 . S
C51 C49 1.396 . S
C51 C52 1.394 1_465 S
C52 H47 0.929 . S
C52 C51 1.394 1_645 S
C52 C53 1.382 . S
C53 C52 1.382 . S
C53 C54 1.392 1_645 S
C53 N55 1.420 . S
C54 H48 0.930 . S
C54 C50 1.407 . S
C54 C53 1.392 1_465 S
N55 C53 1.420 . S
N55 C56 1.244 . S
C56 N55 1.244 . S
H57 C60 0.929 . S
H58 C63 0.929 . S
H59 C65 0.930 . S
C60 H57 0.929 . S
C60 C61 1.398 . S
C60 C62 1.396 . S
C61 C60 1.398 . S
C61 C65 1.407 . S
C62 C60 1.396 . S
C62 C63 1.394 1_665 S
C63 H58 0.929 . S
C63 C62 1.394 1_445 S
C63 C64 1.382 . S
C64 C63 1.382 . S
C64 C65 1.392 1_445 S
C64 N66 1.420 . S
C65 H59 0.930 . S
C65 C61 1.407 . S
C65 C64 1.392 1_665 S
N66 C64 1.420 . S
N66 C67 1.244 . S
C67 N66 1.244 . S
H68 C71 0.929 . S
H69 C74 0.929 . S
H70 C76 0.930 . S
C71 H68 0.929 . S
C71 C72 1.398 . S
C71 C73 1.396 . S
C72 C71 1.398 . S
C72 C76 1.407 . S
C73 C71 1.396 . S
C73 C74 1.394 . S
C74 H69 0.929 . S
C74 C73 1.394 . S
C74 C75 1.382 . S
C75 C74 1.382 . S
C75 C76 1.392 . S
C75 N77 1.420 . S
C76 H70 0.930 . S
C76 C72 1.407 . S
C76 C75 1.392 . S
N77 C75 1.420 . S
N77 C78 1.244 . S
C78 N77 1.244 . S
H79 C82 0.929 . S
H80 C85 0.929 . S
H81 C87 0.930 . S
C82 H79 0.929 . S
C82 C83 1.398 . S
C82 C84 1.396 . S
C83 C82 1.398 . S
C83 C87 1.407 . S
C84 C82 1.396 . S
C84 C85 1.394 . S
C85 H80 0.929 . S
C85 C84 1.394 . S
C85 C86 1.382 . S
C86 C85 1.382 . S
C86 C87 1.392 . S
C86 N88 1.420 . S
C87 H81 0.930 . S
C87 C83 1.407 . S
C87 C86 1.392 . S
N88 C86 1.420 . S
N88 C89 1.244 . S
C89 N88 1.244 . S
H90 C96 0.930 . S
H91 C99 0.930 1_556 S
H92 C100 0.930 1_556 S
H93 C101 0.930 . S
H94 C104 0.930 . S
H95 C105 0.930 . S
C96 H90 0.930 . S
C96 C97 1.355 . S
C96 C98 1.415 . S
C97 C96 1.355 . S
C97 C99 1.419 . S
C98 C96 1.415 . S
C98 C103 1.425 . S
C98 C105 1.409 . S
C99 H91 0.930 1_554 S
C99 C97 1.419 . S
C99 C100 1.362 . S
C100 H92 0.930 1_554 S
C100 C99 1.362 . S
C100 C103 1.409 . S
C101 H93 0.930 . S
C101 C102 1.355 . S
C101 C103 1.415 . S
C102 C101 1.355 . S
C102 C104 1.419 . S
C103 C98 1.425 . S
C103 C100 1.409 . S
C103 C101 1.415 . S
C104 H94 0.930 . S
C104 C102 1.419 . S
C104 C105 1.362 . S
C105 H95 0.930 . S
C105 C98 1.409 . S
C105 C104 1.362 . S
H106 C112 0.930 . S
H107 C115 0.930 . S
H108 C116 0.930 . S
H109 C117 0.930 . S
H110 C120 0.930 . S
H111 C121 0.930 . S
C112 H106 0.930 . S
C112 C113 1.355 . S
C112 C114 1.415 . S
C113 C112 1.355 . S
C113 C115 1.419 1_556 S
C114 C112 1.415 . S
C114 C119 1.425 . S
C114 C121 1.409 . S
C115 H107 0.930 . S
C115 C113 1.419 1_554 S
C115 C116 1.362 . S
C116 H108 0.930 . S
C116 C115 1.362 . S
C116 C119 1.409 1_554 S
C117 H109 0.930 . S
C117 C118 1.355 . S
C117 C119 1.415 . S
C118 C117 1.355 . S
C118 C120 1.419 . S
C119 C114 1.425 . S
C119 C116 1.409 1_556 S
C119 C117 1.415 . S
C120 H110 0.930 . S
C120 C118 1.419 . S
C120 C121 1.362 . S
C121 H111 0.930 . S
C121 C114 1.409 . S
C121 C120 1.362 . S
H122 C128 0.930 . S
H123 C131 0.930 . S
H124 C132 0.930 . S
H125 C133 0.930 . S
H126 C136 0.930 . S
H127 C137 0.930 . S
C128 H122 0.930 . S
C128 C129 1.355 . S
C128 C130 1.415 . S
C129 C128 1.355 . S
C129 C131 1.419 . S
C130 C128 1.415 . S
C130 C135 1.425 . S
C130 C137 1.409 . S
C131 H123 0.930 . S
C131 C129 1.419 . S
C131 C132 1.362 . S
C132 H124 0.930 . S
C132 C131 1.362 . S
C132 C135 1.409 . S
C133 H125 0.930 . S
C133 C134 1.355 . S
C133 C135 1.415 . S
C134 C133 1.355 . S
C134 C136 1.419 . S
C135 C130 1.425 . S
C135 C132 1.409 . S
C135 C133 1.415 . S
C136 H126 0.930 . S
C136 C134 1.419 . S
C136 C137 1.362 . S
C137 H127 0.930 . S
C137 C130 1.409 . S
C137 C136 1.362 . S
H138 C144 0.929 1_554 S
H139 C147 0.930 . S
H140 C148 0.930 . S
H141 C149 0.930 . S
H142 C152 0.930 . S
H143 C153 0.930 . S
C144 H138 0.929 1_556 S
C144 C145 1.355 . S
C144 C146 1.415 . S
C145 C144 1.355 . S
C145 C147 1.419 . S
C146 C144 1.415 . S
C146 C151 1.425 . S
C146 C153 1.409 . S
C147 H139 0.930 . S
C147 C145 1.419 . S
C147 C148 1.362 . S
C148 H140 0.930 . S
C148 C147 1.362 . S
C148 C151 1.409 . S
C149 H141 0.930 . S
C149 C150 1.355 . S
C149 C151 1.415 . S
C150 C149 1.355 . S
C150 C152 1.419 . S
C151 C146 1.425 . S
C151 C148 1.409 . S
C151 C149 1.415 . S
C152 H142 0.930 . S
C152 C150 1.419 . S
C152 C153 1.362 . S
C153 H143 0.930 . S
C153 C146 1.409 . S
C153 C152 1.362 . S
H154 C160 0.930 . S
H155 C163 0.930 . S
H156 C164 0.930 . S
H157 C165 0.930 . S
H158 C168 0.930 . S
H159 C169 0.930 . S
C160 H154 0.930 . S
C160 C161 1.355 . S
C160 C162 1.415 . S
C161 C160 1.355 . S
C161 C163 1.419 . S
C162 C160 1.415 . S
C162 C167 1.425 . S
C162 C169 1.409 . S
C163 H155 0.930 . S
C163 C161 1.419 . S
C163 C164 1.362 . S
C164 H156 0.930 . S
C164 C163 1.362 . S
C164 C167 1.409 . S
C165 H157 0.930 . S
C165 C166 1.355 . S
C165 C167 1.415 . S
C166 C165 1.355 . S
C166 C168 1.419 . S
C167 C162 1.425 . S
C167 C164 1.409 . S
C167 C165 1.415 . S
C168 H158 0.930 . S
C168 C166 1.419 . S
C168 C169 1.362 . S
C169 H159 0.930 . S
C169 C162 1.409 . S
C169 C168 1.362 . S
H170 C176 0.930 . S
H171 C179 0.930 . S
H172 C180 0.930 . S
H173 C181 0.930 . S
H174 C184 0.930 . S
H175 C185 0.930 . S
C176 H170 0.930 . S
C176 C177 1.355 . S
C176 C178 1.415 . S
C177 C176 1.355 . S
C177 C179 1.419 . S
C178 C176 1.415 . S
C178 C183 1.425 . S
C178 C185 1.409 . S
C179 H171 0.930 . S
C179 C177 1.419 . S
C179 C180 1.362 . S
C180 H172 0.930 . S
C180 C179 1.362 . S
C180 C183 1.409 . S
C181 H173 0.930 . S
C181 C182 1.355 . S
C181 C183 1.415 . S
C182 C181 1.355 . S
C182 C184 1.419 . S
C183 C178 1.425 . S
C183 C180 1.409 . S
C183 C181 1.415 . S
C184 H174 0.930 . S
C184 C182 1.419 . S
C184 C185 1.362 . S
C185 H175 0.930 . S
C185 C178 1.409 . S
C185 C184 1.362 . S
H186 C192 0.930 . S
H187 C195 0.930 . S
H188 C196 0.930 . S
H189 C197 0.930 . S
H190 C200 0.930 . S
H191 C201 0.930 . S
C192 H186 0.930 . S
C192 C193 1.355 . S
C192 C194 1.415 . S
C193 C192 1.355 . S
C193 C195 1.419 . S
C194 C192 1.415 . S
C194 C199 1.425 . S
C194 C201 1.409 . S
C195 H187 0.930 . S
C195 C193 1.419 . S
C195 C196 1.362 . S
C196 H188 0.930 . S
C196 C195 1.362 . S
C196 C199 1.409 . S
C197 H189 0.930 . S
C197 C198 1.355 . S
C197 C199 1.415 . S
C198 C197 1.355 . S
C198 C200 1.419 . S
C199 C194 1.425 . S
C199 C196 1.409 . S
C199 C197 1.415 . S
C200 H190 0.930 . S
C200 C198 1.419 . S
C200 C201 1.362 . S
C201 H191 0.930 . S
C201 C194 1.409 . S
C201 C200 1.362 . S
H202 C208 0.930 . S
H203 C211 0.930 . S
H204 C212 0.930 . S
H205 C213 0.930 . S
H206 C216 0.930 . S
H207 C217 0.930 . S
C208 H202 0.930 . S
C208 C209 1.355 . S
C208 C210 1.415 . S
C209 C208 1.355 . S
C209 C211 1.419 . S
C210 C208 1.415 . S
C210 C215 1.425 . S
C210 C217 1.409 . S
C211 H203 0.930 . S
C211 C209 1.419 . S
C211 C212 1.362 . S
C212 H204 0.930 . S
C212 C211 1.362 . S
C212 C215 1.409 . S
C213 H205 0.930 . S
C213 C214 1.355 . S
C213 C215 1.415 . S
C214 C213 1.355 . S
C214 C216 1.419 . S
C215 C210 1.425 . S
C215 C212 1.409 . S
C215 C213 1.415 . S
C216 H206 0.930 . S
C216 C214 1.419 . S
C216 C217 1.362 . S
C217 H207 0.930 . S
C217 C210 1.409 . S
C217 C216 1.362 . S
H218 C224 0.930 . S
H219 C227 0.930 . S
H220 C228 0.930 . S
H221 C229 0.930 . S
H222 C232 0.930 . S
H223 C233 0.930 . S
C224 H218 0.930 . S
C224 C225 1.355 1_565 S
C224 C226 1.415 . S
C225 C224 1.355 1_545 S
C225 C227 1.419 . S
C226 C224 1.415 . S
C226 C231 1.425 1_565 S
C226 C233 1.409 . S
C227 H219 0.930 . S
C227 C225 1.419 . S
C227 C228 1.362 . S
C228 H220 0.930 . S
C228 C227 1.362 . S
C228 C231 1.409 . S
C229 H221 0.930 . S
C229 C230 1.355 1_545 S
C229 C231 1.415 . S
C230 C229 1.355 1_565 S
C230 C232 1.419 . S
C231 C226 1.425 1_545 S
C231 C228 1.409 . S
C231 C229 1.415 . S
C232 H222 0.930 . S
C232 C230 1.419 . S
C232 C233 1.362 . S
C233 H223 0.930 . S
C233 C226 1.409 . S
C233 C232 1.362 . S
H234 C240 0.930 . S
H235 C243 0.930 . S
H236 C244 0.930 . S
H237 C245 0.930 . S
H238 C248 0.930 . S
H239 C249 0.930 . S
C240 H234 0.930 . S
C240 C241 1.355 1_655 S
C240 C242 1.415 . S
C241 C240 1.355 1_455 S
C241 C243 1.419 1_545 S
C242 C240 1.415 . S
C242 C247 1.425 1_655 S
C242 C249 1.409 . S
C243 H235 0.930 . S
C243 C241 1.419 1_565 S
C243 C244 1.362 . S
C244 H236 0.930 . S
C244 C243 1.362 . S
C244 C247 1.409 1_565 S
C245 H237 0.930 . S
C245 C246 1.355 1_455 S
C245 C247 1.415 . S
C246 C245 1.355 1_655 S
C246 C248 1.419 . S
C247 C242 1.425 1_455 S
C247 C244 1.409 1_545 S
C247 C245 1.415 . S
C248 H238 0.930 . S
C248 C246 1.419 . S
C248 C249 1.362 . S
C249 H239 0.930 . S
C249 C242 1.409 . S
C249 C248 1.362 . S
H250 C256 0.930 . S
H251 C259 0.930 . S
H252 C260 0.930 . S
H253 C261 0.930 . S
H254 C264 0.930 . S
H255 C265 0.930 . S
C256 H250 0.930 . S
C256 C257 1.355 . S
C256 C258 1.415 . S
C257 C256 1.355 . S
C257 C259 1.419 . S
C258 C256 1.415 . S
C258 C263 1.425 . S
C258 C265 1.409 . S
C259 H251 0.930 . S
C259 C257 1.419 . S
C259 C260 1.362 . S
C260 H252 0.930 . S
C260 C259 1.362 . S
C260 C263 1.409 . S
C261 H253 0.930 . S
C261 C262 1.355 . S
C261 C263 1.415 . S
C262 C261 1.355 . S
C262 C264 1.419 . S
C263 C258 1.425 . S
C263 C260 1.409 . S
C263 C261 1.415 . S
C264 H254 0.930 . S
C264 C262 1.419 . S
C264 C265 1.362 . S
C265 H255 0.930 . S
C265 C258 1.409 . S
C265 C264 1.362 . S
H266 C272 0.930 . S
H267 C275 0.930 . S
H268 C276 0.930 . S
H269 C277 0.930 . S
H270 C280 0.930 . S
H271 C281 0.930 . S
C272 H266 0.930 . S
C272 C273 1.355 . S
C272 C274 1.415 . S
C273 C272 1.355 . S
C273 C275 1.419 . S
C274 C272 1.415 . S
C274 C279 1.425 . S
C274 C281 1.409 . S
C275 H267 0.930 . S
C275 C273 1.419 . S
C275 C276 1.362 . S
C276 H268 0.930 . S
C276 C275 1.362 . S
C276 C279 1.409 . S
C277 H269 0.930 . S
C277 C278 1.355 . S
C277 C279 1.415 . S
C278 C277 1.355 . S
C278 C280 1.419 . S
C279 C274 1.425 . S
C279 C276 1.409 . S
C279 C277 1.415 . S
C280 H270 0.930 . S
C280 C278 1.419 . S
C280 C281 1.362 . S
C281 H271 0.930 . S
C281 C274 1.409 . S
C281 C280 1.362 . S
C102 C83 1.491 . S
C97 C21 1.490 . S
C113 C19 1.412 . S
C118 C78 1.382 . S
C129 C18 1.365 . S
C134 C89 1.380 . S
C145 C20 1.513 . S
C150 C72 1.508 . S
C161 C44 1.495 . S
C166 C61 1.504 . S
C177 C42 1.409 . S
C182 C56 1.397 . S
C198 C67 1.361 . S
C193 C41 1.380 . S
C214 C50 1.480 . S
C209 C43 1.475 . S
C225 C16 1.524 . S
C230 C51 1.508 . S
C241 C17 1.488 1_455 S
C246 C62 1.481 1_545 S
C262 C73 1.518 . S
C257 C39 1.526 . S
C273 C40 1.487 . S
C278 C84 1.493 . S
