# Generated by pormake.
# Topology tsx, (6,3)-cn, num edge types: 1
# Building blocks:
#     Node 0, Type 0, BuildingBlock: VOLQOD_clean_sbu_1, # of connection points: 6
#     Node 1, Type 0, BuildingBlock: VOLQOD_clean_sbu_1, # of connection points: 6
#     Node 2, Type 1, BuildingBlock: VETTIZ_charged_linker_0, # of connection points: 3
#     Node 3, Type 1, BuildingBlock: VETTIZ_charged_linker_0, # of connection points: 3
#     Node 4, Type 1, BuildingBlock: VETTIZ_charged_linker_0, # of connection points: 3
#     Node 5, Type 1, BuildingBlock: VETTIZ_charged_linker_0, # of connection points: 3
#     Edge 6, Type (0, 1), BuildingBlock: XUDNAN_clean_linker_2, # of connection points: 2
#     Edge 7, Type (0, 1), BuildingBlock: XUDNAN_clean_linker_2, # of connection points: 2
#     Edge 8, Type (0, 1), BuildingBlock: XUDNAN_clean_linker_2, # of connection points: 2
#     Edge 9, Type (0, 1), BuildingBlock: XUDNAN_clean_linker_2, # of connection points: 2
#     Edge 10, Type (0, 1), BuildingBlock: XUDNAN_clean_linker_2, # of connection points: 2
#     Edge 11, Type (0, 1), BuildingBlock: XUDNAN_clean_linker_2, # of connection points: 2
#     Edge 12, Type (0, 1), BuildingBlock: XUDNAN_clean_linker_2, # of connection points: 2
#     Edge 13, Type (0, 1), BuildingBlock: XUDNAN_clean_linker_2, # of connection points: 2
#     Edge 14, Type (0, 1), BuildingBlock: XUDNAN_clean_linker_2, # of connection points: 2
#     Edge 15, Type (0, 1), BuildingBlock: XUDNAN_clean_linker_2, # of connection points: 2
#     Edge 16, Type (0, 1), BuildingBlock: XUDNAN_clean_linker_2, # of connection points: 2
#     Edge 17, Type (0, 1), BuildingBlock: XUDNAN_clean_linker_2, # of connection points: 2
# Relax obj value: 0.078
# Max RMSD: 0.110
# Mean RMSD: 0.085
data_MOF--net-tsx--node1-VOLQOD_clean_sbu_1--node2-VETTIZ_charged_linker_0--edge1-XUDNAN_clean_linker_2
_symmetry_space_group_name_H-M    P1
_symmetry_Int_Tables_number       1
_symmetry_cell_setting            triclinic
loop_
_symmetry_equiv_pos_as_xyz
'x, y, z'
_cell_length_a     24.789689
_cell_length_b     25.686548
_cell_length_c     49.038631
_cell_angle_alpha  90.306548
_cell_angle_beta   89.965806
_cell_angle_gamma 90.002056
loop_
_atom_site_label
_atom_site_type_symbol
_atom_site_fract_x
_atom_site_fract_y
_atom_site_fract_z
_atom_type_partial_charge
O0 O 0.06633 0.00996 0.07426 0.0
Zn1 Zn 0.07581 0.00723 0.03354 0.0
O2 O 0.00673 0.00839 0.01464 0.0
Zn3 Zn -9e-05 0.94784 0.99002 0.0
Zn4 Zn 0.9492 0.00822 0.04211 0.0
Zn5 Zn 0.00212 0.07154 0.99312 0.0
O6 O 0.9922 0.96888 0.95021 0.0
O7 O 0.99328 0.05498 0.95355 0.0
O8 O 0.11663 0.94216 0.02419 0.0
O9 O 0.06549 0.90121 0.99363 0.0
O10 O 0.93419 0.90539 1.00021 0.0
O11 O 0.9066 0.94221 0.03905 0.0
O12 O 0.89715 0.06772 0.03629 0.0
O13 O 0.12099 0.06956 0.024 0.0
O14 O 0.93726 0.11315 0.0037 0.0
O15 O 0.06807 0.11638 0.99694 0.0
C16 C 0.02572 0.01315 0.09007 0.0
C17 C 0.9898 0.01369 0.93923 0.0
C18 C 0.90314 0.90672 0.02092 0.0
C19 C 0.10809 0.90387 0.00816 0.0
C20 C 0.89862 0.10684 0.02045 0.0
C21 C 0.11229 0.10964 0.00954 0.0
O22 O 0.97789 0.0135 0.08061 0.0
O23 O 0.58509 0.49738 0.57594 0.0
Zn24 Zn 0.60079 0.49216 0.53575 0.0
O25 O 0.53455 0.48819 0.51427 0.0
Zn26 Zn 0.53136 0.42168 0.49538 0.0
Zn27 Zn 0.47307 0.49489 0.53926 0.0
Zn28 Zn 0.53287 0.54296 0.48654 0.0
O29 O 0.53076 0.42962 0.45473 0.0
O30 O 0.53304 0.51473 0.44787 0.0
O31 O 0.64786 0.42855 0.53013 0.0
O32 O 0.59566 0.3785 0.50421 0.0
O33 O 0.46521 0.38188 0.50559 0.0
O34 O 0.42421 0.43241 0.53605 0.0
O35 O 0.42882 0.55777 0.52999 0.0
O36 O 0.64174 0.55668 0.52582 0.0
O37 O 0.46523 0.58533 0.4911 0.0
O38 O 0.59683 0.59102 0.49089 0.0
C39 C 0.54212 0.50097 0.59005 0.0
C40 C 0.53181 0.4683 0.43867 0.0
C41 C 0.42626 0.39079 0.52184 0.0
C42 C 0.63907 0.38591 0.51749 0.0
C43 C 0.4293 0.58824 0.50962 0.0
C44 C 0.63601 0.59149 0.50767 0.0
O45 O 0.49593 0.50093 0.57871 0.0
C46 C 0.11087 0.85941 0.45999 0.0
C47 C 0.15312 0.83167 0.44729 0.0
C48 C 0.16244 0.83936 0.41917 0.0
C49 C 0.08851 0.90047 0.417 0.0
C50 C 0.07981 0.89404 0.4446 0.0
C51 C 0.03698 0.93023 0.45536 0.0
H52 H 0.86493 0.12901 0.43228 0.0
C53 C 0.05051 0.94011 0.40704 0.0
C54 C 0.02068 0.95828 0.42942 0.0
H55 H 0.90569 0.05815 0.50931 0.0
H56 H 0.96269 0.99579 0.48604 0.0
H57 H 0.98418 0.12836 0.40711 0.0
H58 H 0.85244 0.01976 0.39855 0.0
H59 H 0.88468 0.02424 0.36674 0.0
H60 H 0.85278 0.08119 0.38129 0.0
H61 H 0.92241 0.14411 0.38988 0.0
H62 H 0.9768 0.11187 0.37239 0.0
C63 C 0.06331 0.9674 0.47662 0.0
C64 C 0.99014 0.89699 0.46683 0.0
C65 C 0.04797 0.9842 0.30641 0.0
C66 C 0.01705 0.01848 0.29059 0.0
C67 C 0.97624 0.04809 0.30337 0.0
C68 C 0.9674 0.04446 0.33162 0.0
C69 C -0.00045 0.01068 0.34723 0.0
C70 C 0.03848 0.98079 0.33443 0.0
C71 C 0.06824 0.94621 0.35389 0.0
C72 C 0.04075 0.96009 0.38058 0.0
C73 C 0.00096 -0.00179 0.37669 0.0
C74 C 0.12866 0.96221 0.35376 0.0
C75 C 0.05745 0.88894 0.34541 0.0
C76 C 0.88572 0.09964 0.44406 0.0
C77 C 0.88128 0.0985 0.47264 0.0
C78 C 0.90931 0.06014 0.48733 0.0
C79 C 0.94225 0.02403 0.47377 0.0
C80 C 0.94765 0.02676 0.44525 0.0
C81 C 0.91914 0.06371 0.43084 0.0
C82 C 0.93037 0.06123 0.40068 0.0
C83 C 0.97177 0.01783 0.39948 0.0
C84 C 0.9815 -0.00223 0.42564 0.0
C85 C 0.95445 0.11413 0.3918 0.0
C86 C 0.87745 0.04619 0.38583 0.0
H87 H 0.13957 0.87697 0.38278 0.0
H88 H 0.10223 0.85488 0.48148 0.0
H89 H 0.98107 0.86376 0.45292 0.0
H90 H 0.95203 0.91896 0.46873 0.0
H91 H 0.00067 0.88073 0.48709 0.0
H92 H 0.10755 0.9712 0.47331 0.0
H93 H 0.05727 0.95303 0.49772 0.0
H94 H 0.04795 0.00773 0.47523 0.0
H95 H 0.07898 0.96021 0.29714 0.0
H96 H 0.95192 0.07483 0.2916 0.0
H97 H 0.93628 0.06845 0.34027 0.0
H98 H 0.13389 0.00372 0.34792 0.0
H99 H 0.15219 0.93828 0.33904 0.0
H100 H 0.14749 0.95951 0.37415 0.0
H101 H 0.01458 0.8836 0.33929 0.0
H102 H 0.06397 0.86103 0.36211 0.0
H103 H 0.08306 0.87744 0.32779 0.0
H104 H 0.19563 0.82037 0.40879 0.0
C105 C 0.13015 0.87302 0.404 0.0
C106 C 0.10586 0.11957 0.56781 0.0
C107 C 0.14119 0.15413 0.58116 0.0
C108 C 0.14082 0.15654 0.6099 0.0
C109 C 0.07259 0.0893 0.61147 0.0
C110 C 0.07231 0.08741 0.58331 0.0
C111 C 0.0343 0.0467 0.57242 0.0
H112 H 0.86961 0.84338 0.59712 0.0
C113 C 0.0353 0.04901 0.6215 0.0
C114 C 0.01293 0.02369 0.59879 0.0
H115 H 0.90566 0.91516 0.51939 0.0
H116 H 0.96199 0.97803 0.54202 0.0
H117 H 0.98678 0.85431 0.62566 0.0
H118 H 0.84635 0.95357 0.62631 0.0
H119 H 0.87328 0.95317 0.6594 0.0
H120 H 0.84836 0.89335 0.64468 0.0
H121 H 0.92485 0.83636 0.64217 0.0
H122 H 0.97477 0.87552 0.65936 0.0
C123 C 0.06776 0.00669 0.55578 0.0
C124 C 0.98945 0.07431 0.55584 0.0
C125 C 0.0066 0.02921 0.72316 0.0
C126 C 0.97504 0.99555 0.73902 0.0
C127 C 0.94722 0.95442 0.7261 0.0
C128 C 0.94896 0.94852 0.69757 0.0
C129 C 0.97896 0.98406 0.68188 0.0
C130 C 0.00796 0.02286 0.69487 0.0
C131 C 0.03871 0.05643 0.67531 0.0
C132 C 0.02157 0.03297 0.64826 0.0
C133 C 0.98661 0.99064 0.65212 0.0
C134 C 0.09988 0.04881 0.68079 0.0
C135 C 0.01856 0.11325 0.67863 0.0
C136 C 0.889 0.8728 0.58481 0.0
C137 C 0.8831 0.87354 0.55621 0.0
C138 C 0.91018 0.91249 0.54129 0.0
C139 C 0.94261 0.94946 0.55453 0.0
C140 C 0.94781 0.94799 0.58305 0.0
C141 C 0.92048 0.91069 0.59775 0.0
C142 C 0.92717 0.91769 0.62807 0.0
C143 C 0.96436 0.96453 0.62911 0.0
C144 C 0.97681 0.98158 0.60264 0.0
C145 C 0.95452 0.86839 0.63966 0.0
C146 C 0.87103 0.92975 0.6405 0.0
H147 H 0.10875 0.1279 0.64685 0.0
H148 H 0.1047 0.11716 0.54576 0.0
H149 H 0.98328 0.11512 0.5629 0.0
H150 H 0.94955 0.05563 0.55836 0.0
H151 H -0.00027 0.07568 0.5338 0.0
H152 H 0.10555 -0.0034 0.56679 0.0
H153 H 0.07926 0.02281 0.53562 0.0
H154 H 0.04667 0.96943 0.55247 0.0
H155 H 0.02935 0.06049 0.7326 0.0
H156 H 0.92279 0.92791 0.73797 0.0
H157 H 0.92631 0.91702 0.68878 0.0
H158 H 0.10835 0.00995 0.68975 0.0
H159 H 0.11545 0.07864 0.69525 0.0
H160 H 0.12428 0.04963 0.6619 0.0
H161 H 0.97405 0.1142 0.68156 0.0
H162 H 0.02616 0.13743 0.66049 0.0
H163 H 0.03735 0.13233 0.69665 0.0
H164 H 0.16817 0.18215 0.62077 0.0
C165 C 0.10667 0.12449 0.62508 0.0
C166 C 0.57556 0.36788 0.96619 0.0
C167 C 0.61514 0.33499 0.95492 0.0
C168 C 0.62153 0.33291 0.92637 0.0
C169 C 0.55245 0.39842 0.92087 0.0
C170 C 0.54486 0.3993 0.9488 0.0
C171 C 0.50265 0.43824 0.95729 0.0
H172 H 0.33668 0.63619 0.92295 0.0
C173 C 0.5164 0.43758 0.90868 0.0
C174 C 0.48713 0.46119 0.92986 0.0
H175 H 0.36877 0.57461 0.00328 0.0
H176 H 0.42646 0.50879 0.9837 0.0
H177 H 0.45769 0.62951 0.90132 0.0
H178 H 0.32432 0.52289 0.89265 0.0
H179 H 0.35899 0.52433 0.8614 0.0
H180 H 0.32745 0.58295 0.87418 0.0
H181 H 0.39938 0.64389 0.88099 0.0
H182 H 0.45546 0.60781 0.86727 0.0
C183 C 0.52932 0.47893 0.97653 0.0
C184 C 0.45525 0.40793 0.97024 0.0
C185 C 0.52648 0.47116 0.807 0.0
C186 C 0.50002 0.50607 0.78957 0.0
C187 C 0.45923 0.53846 0.80035 0.0
C188 C 0.44636 0.53723 0.82826 0.0
C189 C 0.4745 0.50317 0.84557 0.0
C190 C 0.51312 0.47029 0.83469 0.0
C191 C 0.53853 0.43608 0.85583 0.0
C192 C 0.50937 0.45422 0.88136 0.0
C193 C 0.47221 0.49376 0.87534 0.0
C194 C 0.59969 0.44882 0.85685 0.0
C195 C 0.5251 0.37865 0.84864 0.0
C196 C 0.35539 0.60797 0.93628 0.0
C197 C 0.34828 0.61077 0.96472 0.0
C198 C 0.37411 0.57374 0.98135 0.0
C199 C 0.40747 0.5354 0.96992 0.0
C200 C 0.41542 0.53412 0.94154 0.0
C201 C 0.38904 0.56958 0.92519 0.0
C202 C 0.40294 0.56279 0.89549 0.0
C203 C 0.44257 0.51785 0.89677 0.0
C204 C 0.44979 0.50139 0.92383 0.0
C205 C 0.43003 0.61358 0.88548 0.0
C206 C 0.35087 0.5478 0.87989 0.0
H207 H 0.59778 0.36125 0.88783 0.0
H208 H 0.56984 0.37038 0.98806 0.0
H209 H 0.44673 0.37164 0.95851 0.0
H210 H 0.41699 0.42991 0.97012 0.0
H211 H 0.46495 0.39655 0.99149 0.0
H212 H 0.57294 0.48377 0.97182 0.0
H213 H 0.52603 0.46698 0.99821 0.0
H214 H 0.51218 0.51837 0.97428 0.0
H215 H 0.55726 0.44503 0.79925 0.0
H216 H 0.43828 0.5657 0.78731 0.0
H217 H 0.41558 0.56337 0.83535 0.0
H218 H 0.60684 0.49108 0.8535 0.0
H219 H 0.62209 0.42711 0.8408 0.0
H220 H 0.61822 0.44075 0.87684 0.0
H221 H 0.48507 0.37546 0.8385 0.0
H222 H 0.52168 0.35366 0.86685 0.0
H223 H 0.55561 0.36181 0.83454 0.0
H224 H 0.651 0.30706 0.91718 0.0
C225 C 0.59041 0.3643 0.90933 0.0
C226 C 0.59174 0.62998 0.07161 0.0
C227 C 0.62321 0.6675 0.0854 0.0
C228 C 0.61925 0.67067 0.11414 0.0
C229 C 0.55824 0.59717 0.11472 0.0
C230 C 0.55903 0.5961 0.08657 0.0
C231 C 0.52118 0.5559 0.07498 0.0
H232 H 0.35723 0.35053 0.09632 0.0
C233 C 0.52267 0.55492 0.12416 0.0
C234 C 0.50004 0.53122 0.10096 0.0
H235 H 0.38674 0.43043 0.02029 0.0
H236 H 0.44612 0.49064 0.04347 0.0
H237 H 0.47752 0.35693 0.12009 0.0
H238 H 0.33649 0.45253 0.13004 0.0
H239 H 0.3683 0.45105 0.16197 0.0
H240 H 0.34376 0.39121 0.14699 0.0
H241 H 0.42006 0.33703 0.13971 0.0
H242 H 0.47412 0.37437 0.15471 0.0
C243 C 0.5544 0.51687 0.05765 0.0
C244 C 0.47606 0.5842 0.05885 0.0
C245 C 0.51865 0.50603 0.22477 0.0
C246 C 0.49377 0.46494 0.2389 0.0
C247 C 0.45954 0.43068 0.2245 0.0
C248 C 0.45128 0.43625 0.19645 0.0
C249 C 0.47759 0.47646 0.18244 0.0
C250 C 0.51022 0.51086 0.19658 0.0
C251 C 0.53516 0.55088 0.17808 0.0
C252 C 0.51252 0.53428 0.15053 0.0
C253 C 0.47895 0.49066 0.1533 0.0
C254 C 0.59719 0.54441 0.17945 0.0
C255 C 0.51467 0.60547 0.18686 0.0
C256 C 0.37581 0.38131 0.08459 0.0
C257 C 0.36733 0.38538 0.05631 0.0
C258 C 0.39338 0.42564 0.04194 0.0
C259 C 0.42729 0.46101 0.05552 0.0
C260 C 0.43476 0.4565 0.08384 0.0
C261 C 0.40869 0.41747 0.09788 0.0
C262 C 0.41896 0.41995 0.12805 0.0
C263 C 0.45513 0.46739 0.12991 0.0
C264 C 0.46504 0.488 0.10394 0.0
C265 C 0.44889 0.36946 0.13634 0.0
C266 C 0.36424 0.42877 0.14274 0.0
H267 H 0.58675 0.63962 0.15057 0.0
H268 H 0.59295 0.62608 0.04965 0.0
H269 H 0.47195 0.62565 0.06524 0.0
H270 H 0.43572 0.56705 0.06255 0.0
H271 H 0.48437 0.58377 0.03658 0.0
H272 H 0.5913 0.50466 0.06882 0.0
H273 H 0.56728 0.53473 0.03811 0.0
H274 H 0.53214 0.48077 0.0529 0.0
H275 H 0.5453 0.53289 0.23524 0.0
H276 H 0.43911 0.39932 0.23497 0.0
H277 H 0.42509 0.40859 0.18674 0.0
H278 H 0.60843 0.50256 0.17791 0.0
H279 H 0.61324 0.55971 0.19906 0.0
H280 H 0.61865 0.56385 0.16267 0.0
H281 H 0.4743 0.60316 0.19671 0.0
H282 H 0.50873 0.63174 0.1693 0.0
H283 H 0.54263 0.6241 0.20167 0.0
H284 H 0.6407 0.70035 0.1255 0.0
C285 C 0.58737 0.63558 0.1288 0.0
H286 H 0.12878 0.17932 0.04984 0.0
H287 H 0.18483 0.13336 0.96963 0.0
H288 H 0.25445 0.20304 0.97125 0.0
H289 H 0.14703 0.31933 0.04034 0.0
H290 H 0.16761 0.32971 0.07519 0.0
H291 H 0.12169 0.27764 0.06689 0.0
H292 H 0.18608 0.21139 0.0898 0.0
H293 H 0.23217 0.26319 0.09812 0.0
H294 H 0.25538 0.20769 0.07877 0.0
H295 H 0.32186 0.27412 0.98376 0.0
H296 H 0.3795 0.34127 0.00528 0.0
H297 H 0.27322 0.34378 0.07569 0.0
C298 C 0.1556 0.18439 0.0326 0.0
C299 C 0.1522 0.15151 0.00966 0.0
C300 C 0.18738 0.15866 0.98732 0.0
C301 C 0.22675 0.198 0.9881 0.0
C302 C 0.2294 0.22992 0.01119 0.0
C303 C 0.19433 0.22377 0.0329 0.0
C304 C 0.2057 0.26243 0.05547 0.0
C305 C 0.15765 0.29947 0.05971 0.0
C306 C 0.22074 0.23449 0.0821 0.0
C307 C 0.25356 0.29054 0.04345 0.0
C308 C 0.26673 0.27148 0.0179 0.0
C309 C 0.3114 0.28986 0.00359 0.0
C310 C 0.34374 0.32824 0.01591 0.0
C311 C 0.33109 0.34784 0.04223 0.0
C312 C 0.28466 0.32923 0.05575 0.0
H313 H 0.11256 0.82224 0.97162 0.0
H314 H 0.19538 0.88966 0.04143 0.0
H315 H 0.26321 0.81967 0.03914 0.0
H316 H 0.1359 0.68684 0.98883 0.0
H317 H 0.14639 0.66704 0.95391 0.0
H318 H 0.10285 0.72132 0.96161 0.0
H319 H 0.15937 0.78009 0.92966 0.0
H320 H 0.20301 0.72601 0.92184 0.0
H321 H 0.23107 0.78576 0.93505 0.0
H322 H 0.32318 0.74376 0.02884 0.0
H323 H 0.37327 0.66879 0.00994 0.0
H324 H 0.25168 0.65059 0.9469 0.0
C325 C 0.14474 0.82215 0.98654 0.0
C326 C 0.14849 0.86147 0.00674 0.0
C327 C 0.19159 0.86008 0.02572 0.0
C328 C 0.23028 0.82037 0.02468 0.0
C329 C 0.22543 0.78235 0.0045 0.0
C330 C 0.18391 0.78294 0.98572 0.0
C331 C 0.1891 0.73839 0.96553 0.0
C332 C 0.14068 0.7012 0.96761 0.0
C333 C 0.19606 0.7588 0.93629 0.0
C334 C 0.2403 0.71301 0.97577 0.0
C335 C 0.26035 0.73873 0.99841 0.0
C336 C 0.30772 0.72306 0.01123 0.0
C337 C 0.33569 0.68023 1.00045 0.0
C338 C 0.31631 0.65371 0.97701 0.0
C339 C 0.2677 0.67025 0.96473 0.0
H340 H 0.87936 0.85214 0.06656 0.0
H341 H 0.83198 0.87313 0.98229 0.0
H342 H 0.75466 0.81323 0.98917 0.0
H343 H 0.84581 0.71273 0.06861 0.0
H344 H 0.82395 0.71624 0.10364 0.0
H345 H 0.87555 0.75975 0.09152 0.0
H346 H 0.81874 0.83859 0.10803 0.0
H347 H 0.76663 0.79541 0.11983 0.0
H348 H 0.75055 0.8461 0.0959 0.0
H349 H 0.67719 0.75909 0.00729 0.0
H350 H 0.61286 0.70496 0.03271 0.0
H351 H 0.7192 0.71031 0.10325 0.0
C352 C 0.85294 0.84355 0.04953 0.0
C353 C 0.86098 0.86708 0.02397 0.0
C354 C 0.82623 0.855 0.00198 0.0
C355 C 0.78225 0.82136 0.00575 0.0
C356 C 0.77478 0.79936 0.03143 0.0
C357 C 0.80998 0.80898 0.05272 0.0
C358 C 0.79387 0.7796 0.07808 0.0
C359 C 0.83737 0.7397 0.08591 0.0
C360 C 0.78172 0.81718 0.10185 0.0
C361 C 0.74317 0.75309 0.068 0.0
C362 C 0.73247 0.76534 0.04116 0.0
C363 C 0.6859 0.74809 0.0281 0.0
C364 C 0.6497 0.71691 0.04276 0.0
C365 C 0.66071 0.7023 0.0701 0.0
C366 C 0.70849 0.72083 0.08262 0.0
H367 H 0.88921 0.19333 0.98881 0.0
H368 H 0.80333 0.10255 0.04936 0.0
H369 H 0.72281 0.15801 0.04289 0.0
H370 H 0.82626 0.32086 0.0047 0.0
H371 H 0.82487 0.33862 0.96919 0.0
H372 H 0.8776 0.29688 0.9818 0.0
H373 H 0.85274 0.22756 0.94528 0.0
H374 H 0.79974 0.2687 0.93275 0.0
H375 H 0.78453 0.2034 0.9436 0.0
H376 H 0.64842 0.21749 0.02562 0.0
H377 H 0.5878 0.27491 0.99908 0.0
H378 H 0.7239 0.3249 0.95019 0.0
C379 C 0.854 0.18569 1.00125 0.0
C380 C 0.85269 0.14362 0.01964 0.0
C381 C 0.80543 0.13475 0.03523 0.0
C382 C 0.75951 0.16608 0.03172 0.0
C383 C 0.76177 0.20627 0.01274 0.0
C384 C 0.80807 0.21629 0.99795 0.0
C385 C 0.79919 0.25857 0.97714 0.0
C386 C 0.83404 0.30658 0.98361 0.0
C387 C 0.80965 0.23832 0.94798 0.0
C388 C 0.74012 0.26966 0.98183 0.0
C389 C 0.71921 0.2398 0.00268 0.0
C390 C 0.66458 0.24158 0.00953 0.0
C391 C 0.6305 0.27427 0.99441 0.0
C392 C 0.65124 0.30401 0.97255 0.0
C393 C 0.70689 0.30224 0.96666 0.0
H394 H 0.65181 0.65947 0.54889 0.0
H395 H 0.70384 0.62196 0.4668 0.0
H396 H 0.77156 0.6933 0.46903 0.0
H397 H 0.66492 0.80127 0.54127 0.0
H398 H 0.68625 0.81006 0.57612 0.0
H399 H 0.64154 0.75732 0.56726 0.0
H400 H 0.70848 0.69162 0.58867 0.0
H401 H 0.75354 0.74402 0.59738 0.0
H402 H 0.77745 0.69018 0.57699 0.0
H403 H 0.83956 0.76301 0.48285 0.0
H404 H 0.89636 0.82979 0.50496 0.0
H405 H 0.79067 0.8275 0.57574 0.0
C406 C 0.67726 0.66675 0.53134 0.0
C407 C 0.67344 0.63556 0.50776 0.0
C408 C 0.70664 0.6459 0.48499 0.0
C409 C 0.74503 0.68612 0.48613 0.0
C410 C 0.74833 0.71604 0.50993 0.0
C411 C 0.7145 0.70742 0.53188 0.0
C412 C 0.72559 0.74501 0.55499 0.0
C413 C 0.67667 0.78052 0.5602 0.0
C414 C 0.74227 0.71596 0.58104 0.0
C415 C 0.77225 0.77505 0.54306 0.0
C416 C 0.78503 0.75782 0.51712 0.0
C417 C 0.82915 0.77759 0.50292 0.0
C418 C 0.86103 0.81584 0.51564 0.0
C419 C 0.84828 0.83437 0.54221 0.0
C420 C 0.80256 0.81397 0.55569 0.0
H421 H 0.64055 0.29907 0.48539 0.0
H422 H 0.73076 0.3786 0.54903 0.0
H423 H 0.79965 0.30879 0.54746 0.0
H424 H 0.66932 0.16639 0.50659 0.0
H425 H 0.67492 0.14315 0.47196 0.0
H426 H 0.63098 0.19702 0.47988 0.0
H427 H 0.68029 0.25371 0.44405 0.0
H428 H 0.72423 0.20008 0.43598 0.0
H429 H 0.7524 0.2618 0.44631 0.0
H430 H 0.86052 0.23139 0.53719 0.0
H431 H 0.91067 0.15716 0.51701 0.0
H432 H 0.77989 0.13105 0.45986 0.0
C433 C 0.67435 0.30167 0.49932 0.0
C434 C 0.6801 0.34415 0.51747 0.0
C435 C 0.72549 0.34633 0.53499 0.0
C436 C 0.76464 0.30677 0.53433 0.0
C437 C 0.75768 0.26553 0.51604 0.0
C438 C 0.7137 0.26298 0.49879 0.0
C439 C 0.71697 0.21669 0.47974 0.0
C440 C 0.67027 0.17856 0.48486 0.0
C441 C 0.71859 0.23414 0.44976 0.0
C442 C 0.77023 0.19391 0.48856 0.0
C443 C 0.79288 0.22202 0.50979 0.0
C444 C 0.84296 0.20892 0.52071 0.0
C445 C 0.871 0.16665 0.50924 0.0
C446 C 0.84902 0.13864 0.4869 0.0
C447 C 0.79764 0.152 0.47686 0.0
H448 H 0.34057 0.39187 0.55732 0.0
H449 H 0.41444 0.30051 0.49249 0.0
H450 H 0.34455 0.23319 0.49811 0.0
H451 H 0.3094 0.28678 0.59985 0.0
H452 H 0.24603 0.31299 0.61162 0.0
H453 H 0.29898 0.35623 0.60092 0.0
H454 H 0.23418 0.39879 0.56606 0.0
H455 H 0.18092 0.35565 0.57669 0.0
H456 H 0.20013 0.35847 0.54127 0.0
H457 H 0.27106 0.17306 0.5129 0.0
H458 H 0.19988 0.1236 0.5365 0.0
H459 H 0.17256 0.25505 0.59085 0.0
C460 C 0.34172 0.35807 0.54404 0.0
C461 C 0.38298 0.35156 0.52444 0.0
C462 C 0.38325 0.30643 0.50766 0.0
C463 C 0.34362 0.26802 0.51061 0.0
C464 C 0.30388 0.27544 0.53031 0.0
C465 C 0.30253 0.31935 0.5467 0.0
C466 C 0.25721 0.31652 0.56732 0.0
C467 C 0.27925 0.31821 0.59665 0.0
C468 C 0.21565 0.35994 0.56253 0.0
C469 C 0.23412 0.2636 0.56035 0.0
C470 C 0.26126 0.24076 0.53878 0.0
C471 C 0.24893 0.19081 0.52955 0.0
C472 C 0.20821 0.16315 0.543 0.0
C473 C 0.18044 0.18552 0.56545 0.0
C474 C 0.19319 0.23675 0.57385 0.0
H475 H 0.37161 0.60775 0.46397 0.0
H476 H 0.38853 0.65307 0.54878 0.0
H477 H 0.31601 0.71874 0.54304 0.0
H478 H 0.34561 0.73129 0.43619 0.0
H479 H 0.29557 0.70864 0.41226 0.0
H480 H 0.34818 0.66542 0.42336 0.0
H481 H 0.27639 0.59875 0.43932 0.0
H482 H 0.22349 0.64177 0.4282 0.0
H483 H 0.22463 0.61909 0.46291 0.0
H484 H 0.24787 0.78472 0.52624 0.0
H485 H 0.18458 0.84078 0.50122 0.0
H486 H 0.20405 0.74258 0.42936 0.0
C487 C 0.35993 0.6316 0.48129 0.0
C488 C 0.38569 0.6263 0.50669 0.0
C489 C 0.36904 0.65711 0.52914 0.0
C490 C 0.32806 0.69431 0.52606 0.0
C491 C 0.30347 0.69882 0.50061 0.0
C492 C 0.31815 0.66759 0.47878 0.0
C493 C 0.2848 0.67919 0.45378 0.0
C494 C 0.32069 0.69722 0.43001 0.0
C495 C 0.25027 0.63189 0.44558 0.0
C496 C 0.25027 0.7231 0.46464 0.0
C497 C 0.26171 0.73411 0.49161 0.0
C498 C 0.23764 0.77571 0.50528 0.0
C499 C 0.2013 0.80714 0.49089 0.0
C500 C 0.18875 0.79634 0.46318 0.0
C501 C 0.21299 0.75286 0.45029 0.0
H502 H 0.94946 0.01486 0.13108 0.0
H503 H 0.12238 0.02022 0.11674 0.0
H504 H 0.13809 0.02631 0.16622 0.0
H505 H 0.94763 0.10525 0.18835 0.0
H506 H 0.89641 0.06982 0.20662 0.0
H507 H 0.89816 0.0676 0.16989 0.0
H508 H 0.90264 0.96685 0.17116 0.0
H509 H 0.90071 0.96876 0.20785 0.0
H510 H 0.95508 0.93563 0.19059 0.0
H511 H 0.13578 0.02937 0.21697 0.0
H512 H 0.11545 0.02748 0.26621 0.0
H513 H 0.94425 0.0198 0.24818 0.0
C514 C 0.99064 0.01757 0.13831 0.0
C515 C 0.03467 0.01708 0.11991 0.0
C516 C 0.08792 0.02045 0.13032 0.0
C517 C 0.09732 0.02408 0.15843 0.0
C518 C 0.05311 0.02437 0.17594 0.0
C519 C 0.00082 0.02116 0.16636 0.0
C520 C 0.96064 0.02084 0.1897 0.0
C521 C 0.92352 0.06874 0.18857 0.0
C522 C 0.92785 0.96999 0.18983 0.0
C523 C -0.00138 0.02385 0.21388 0.0
C524 C 0.05175 0.02609 0.20541 0.0
C525 C 0.09435 0.02773 0.22388 0.0
C526 C 0.08241 0.02641 0.25177 0.0
C527 C 0.02832 0.02336 0.26099 0.0
C528 C 0.98592 0.02275 0.24173 0.0
H529 H 0.99577 0.93723 0.89921 0.0
H530 H 0.96585 0.10242 0.91161 0.0
H531 H 0.9539 0.1135 0.8623 0.0
H532 H 0.07242 0.95103 0.83809 0.0
H533 H 0.04569 0.89356 0.82174 0.0
H534 H 0.04904 0.89722 0.85838 0.0
H535 H 0.94658 0.87829 0.86136 0.0
H536 H 0.94289 0.87468 0.82469 0.0
H537 H 0.89988 0.91915 0.84315 0.0
H538 H 0.94865 0.10873 0.81222 0.0
H539 H 0.95215 0.0882 0.76312 0.0
H540 H 0.98558 0.92636 0.78166 0.0
C541 C 0.98626 0.9756 0.89155 0.0
C542 C 0.98178 0.01892 0.9094 0.0
C543 C 0.96973 0.06859 0.89847 0.0
C544 C 0.96261 0.07535 0.87044 0.0
C545 C 0.9676 0.03212 0.85345 0.0
C546 C 0.97918 0.98319 0.86344 0.0
C547 C 0.98436 0.94388 0.84033 0.0
C548 C 0.04126 0.92004 0.8396 0.0
C549 C 0.94082 0.90149 0.84252 0.0
C550 C 0.97455 0.97868 0.81589 0.0
C551 C 0.96466 0.02934 0.82409 0.0
C552 C 0.95614 0.0692 0.80549 0.0
C553 C 0.95845 0.0572 0.77768 0.0
C554 C 0.96931 0.0058 0.76865 0.0
C555 C 0.97668 0.96586 0.78804 0.0
H556 H 0.45946 0.5058 0.62767 0.0
H557 H 0.63423 0.50467 0.62075 0.0
H558 H 0.64184 0.50923 0.67077 0.0
H559 H 0.45205 0.59537 0.68529 0.0
H560 H 0.39639 0.56179 0.70102 0.0
H561 H 0.40427 0.5602 0.66449 0.0
H562 H 0.40392 0.45935 0.66527 0.0
H563 H 0.39599 0.46062 0.70177 0.0
H564 H 0.4515 0.42555 0.68661 0.0
H565 H 0.63111 0.51084 0.72129 0.0
H566 H 0.60249 0.50953 0.76947 0.0
H567 H 0.43476 0.50977 0.74414 0.0
C568 C 0.49936 0.50682 0.63663 0.0
C569 C 0.54625 0.50488 0.62017 0.0
C570 C 0.59766 0.50609 0.63282 0.0
C571 C 0.60246 0.50877 0.66125 0.0
C572 C 0.55552 0.51036 0.67683 0.0
C573 C 0.50493 0.50953 0.66504 0.0
C574 C 0.46099 0.51047 0.68658 0.0
C575 C 0.42639 0.55991 0.6842 0.0
C576 C 0.42605 0.46105 0.68495 0.0
C577 C 0.49487 0.51141 0.71231 0.0
C578 C 0.54928 0.51147 0.70615 0.0
C579 C 0.58863 0.51093 0.72638 0.0
C580 C 0.57198 0.50991 0.75366 0.0
C581 C 0.51644 0.5094 0.76053 0.0
C582 C 0.47747 0.5107 0.7395 0.0
H583 H 0.51942 0.53968 0.39721 0.0
H584 H 0.54194 0.37463 0.41252 0.0
H585 H 0.53806 0.35699 0.36319 0.0
H586 H 0.42461 0.5244 0.3431 0.0
H587 H 0.44999 0.57808 0.32334 0.0
H588 H 0.4571 0.57857 0.35989 0.0
H589 H 0.56037 0.5907 0.35484 0.0
H590 H 0.55359 0.59023 0.31825 0.0
H591 H 0.5985 0.54489 0.33458 0.0
H592 H 0.52908 0.3562 0.31272 0.0
H593 H 0.51485 0.37242 0.26376 0.0
H594 H 0.49702 0.53767 0.28049 0.0
C595 C 0.52401 0.49989 0.39018 0.0
C596 C 0.53107 0.45857 0.40883 0.0
C597 C 0.53642 0.40699 0.39873 0.0
C598 C 0.5344 0.39652 0.37071 0.0
C599 C 0.52702 0.43798 0.35295 0.0
C600 C 0.52191 0.48864 0.36219 0.0
C601 C 0.51267 0.52573 0.33867 0.0
C602 C 0.45783 0.55331 0.34142 0.0
C603 C 0.55906 0.56522 0.33646 0.0
C604 C 0.51296 0.48786 0.31484 0.0
C605 C 0.52151 0.43749 0.3236 0.0
C606 C 0.52239 0.39546 0.30558 0.0
C607 C 0.51392 0.40504 0.27784 0.0
C608 C 0.50452 0.45624 0.26832 0.0
C609 C 0.50459 0.4982 0.28712 0.0
loop_
_geom_bond_atom_site_label_1
_geom_bond_atom_site_label_2
_geom_bond_distance
_geom_bond_site_symmetry_2
_ccdc_geom_bond_type
O0 Zn1 1.953 . S
O0 C16 1.225 1_565 S
Zn1 O0 1.953 . S
Zn1 O2 1.949 1_565 S
Zn1 O8 1.919 . S
Zn1 O13 1.924 1_565 S
O2 Zn1 1.949 1_545 S
O2 Zn3 1.923 1_444 S
O2 Zn4 1.950 1_455 S
O2 Zn5 1.945 1_554 S
Zn3 O2 1.923 1_666 S
Zn3 O6 1.933 . S
Zn3 O9 1.941 1_655 S
Zn3 O10 1.964 1_556 S
Zn4 O2 1.950 1_655 S
Zn4 O11 1.938 1_545 S
Zn4 O12 1.906 . S
Zn4 O22 1.953 . S
Zn5 O2 1.945 1_556 S
Zn5 O7 1.932 . S
Zn5 O14 1.977 1_455 S
Zn5 O15 1.910 1_556 S
O6 Zn3 1.933 . S
O6 C17 1.226 1_665 S
O7 Zn5 1.932 . S
O7 C17 1.307 . S
O8 Zn1 1.919 . S
O8 C19 1.253 . S
O9 Zn3 1.941 1_455 S
O9 C19 1.283 1_556 S
O10 Zn3 1.964 1_554 S
O10 C18 1.310 . S
O11 Zn4 1.938 1_565 S
O11 C18 1.247 . S
O12 Zn4 1.906 . S
O12 C20 1.304 . S
O13 Zn1 1.924 1_545 S
O13 C21 1.311 . S
O14 Zn5 1.977 1_655 S
O14 C20 1.272 1_556 S
O15 Zn5 1.910 1_554 S
O15 C21 1.231 . S
C16 O0 1.225 1_545 S
C16 O22 1.298 1_455 S
C17 O6 1.226 1_445 S
C17 O7 1.307 . S
C18 O10 1.310 . S
C18 O11 1.247 . S
C19 O8 1.253 . S
C19 O9 1.283 1_554 S
C20 O12 1.304 . S
C20 O14 1.272 1_554 S
C21 O13 1.311 . S
C21 O15 1.231 . S
O22 Zn4 1.953 . S
O22 C16 1.298 1_655 S
O23 Zn24 1.953 . S
O23 C39 1.225 . S
Zn24 O23 1.953 . S
Zn24 O25 1.949 . S
Zn24 O31 1.919 . S
Zn24 O36 1.924 . S
O25 Zn24 1.949 . S
O25 Zn26 1.923 . S
O25 Zn27 1.950 . S
O25 Zn28 1.945 . S
Zn26 O25 1.923 . S
Zn26 O29 1.933 . S
Zn26 O32 1.941 . S
Zn26 O33 1.965 . S
Zn27 O25 1.950 . S
Zn27 O34 1.938 . S
Zn27 O35 1.906 . S
Zn27 O45 1.953 . S
Zn28 O25 1.945 . S
Zn28 O30 1.932 . S
Zn28 O37 1.977 . S
Zn28 O38 1.910 . S
O29 Zn26 1.933 . S
O29 C40 1.226 . S
O30 Zn28 1.932 . S
O30 C40 1.307 . S
O31 Zn24 1.919 . S
O31 C42 1.253 . S
O32 Zn26 1.941 . S
O32 C42 1.283 . S
O33 Zn26 1.965 . S
O33 C41 1.303 . S
O34 Zn27 1.938 . S
O34 C41 1.247 . S
O35 Zn27 1.906 . S
O35 C43 1.304 . S
O36 Zn24 1.924 . S
O36 C44 1.311 . S
O37 Zn28 1.977 . S
O37 C43 1.272 . S
O38 Zn28 1.910 . S
O38 C44 1.231 . S
C39 O23 1.225 . S
C39 O45 1.298 . S
C40 O29 1.226 . S
C40 O30 1.307 . S
C41 O33 1.303 . S
C41 O34 1.247 . S
C42 O31 1.253 . S
C42 O32 1.283 . S
C43 O35 1.304 . S
C43 O37 1.272 . S
C44 O36 1.311 . S
C44 O38 1.231 . S
O45 Zn27 1.953 . S
O45 C39 1.298 . S
C46 C47 1.391 . S
C46 C50 1.391 . S
C46 H88 0.948 . S
C47 C46 1.391 . S
C47 C48 1.391 . S
C48 C47 1.391 . S
C48 H104 0.947 . S
C48 C105 1.392 . S
C49 C50 1.391 . S
C49 C53 1.397 . S
C49 C105 1.419 . S
C50 C46 1.391 . S
C50 C49 1.391 . S
C50 C51 1.399 . S
C51 C50 1.399 . S
C51 C54 1.396 . S
C51 C63 1.453 1_565 S
C51 C64 1.684 1_455 S
H52 C76 0.948 . S
C53 C49 1.397 . S
C53 C54 1.394 . S
C53 C72 1.723 . S
C54 C51 1.396 . S
C54 C53 1.394 . S
C54 C84 1.723 1_465 S
H55 C78 0.947 . S
H56 C79 0.948 . S
H57 C85 0.982 . S
H58 C86 0.979 . S
H59 C86 0.980 . S
H60 C86 0.983 . S
H61 C85 0.979 . S
H62 C85 0.977 . S
C63 C51 1.453 1_545 S
C63 H92 0.982 . S
C63 H93 0.979 1_545 S
C63 H94 0.977 . S
C64 C51 1.684 1_655 S
C64 H89 0.979 . S
C64 H90 0.980 . S
C64 H91 0.983 1_655 S
C65 C66 1.391 1_465 S
C65 C70 1.391 . S
C65 H95 0.948 . S
C66 C65 1.391 1_645 S
C66 C67 1.391 . S
C67 C66 1.391 . S
C67 C68 1.392 . S
C67 H96 0.947 . S
C68 C67 1.392 . S
C68 C69 1.419 . S
C68 H97 0.948 . S
C69 C68 1.419 . S
C69 C70 1.391 1_645 S
C69 C73 1.397 . S
C70 C65 1.391 . S
C70 C69 1.391 1_465 S
C70 C71 1.399 . S
C71 C70 1.399 . S
C71 C72 1.396 . S
C71 C74 1.453 . S
C71 C75 1.684 . S
C72 C53 1.723 . S
C72 C71 1.396 . S
C72 C73 1.394 1_465 S
C73 C69 1.397 . S
C73 C72 1.394 1_645 S
C73 C83 1.723 . S
C74 C71 1.453 . S
C74 H98 0.982 . S
C74 H99 0.979 . S
C74 H100 0.977 . S
C75 C71 1.684 . S
C75 H101 0.979 . S
C75 H102 0.980 . S
C75 H103 0.983 . S
C76 H52 0.948 . S
C76 C77 1.391 . S
C76 C81 1.391 . S
C77 C76 1.391 . S
C77 C78 1.391 . S
C78 H55 0.947 . S
C78 C77 1.391 . S
C78 C79 1.392 . S
C79 H56 0.948 . S
C79 C78 1.392 . S
C79 C80 1.419 . S
C80 C79 1.419 . S
C80 C81 1.391 . S
C80 C84 1.397 . S
C81 C76 1.391 . S
C81 C80 1.391 . S
C81 C82 1.399 . S
C82 C81 1.399 . S
C82 C83 1.396 . S
C82 C85 1.453 . S
C82 C86 1.684 . S
C83 C73 1.723 . S
C83 C82 1.396 . S
C83 C84 1.394 . S
C84 C54 1.723 1_645 S
C84 C80 1.397 . S
C84 C83 1.394 . S
C85 H57 0.982 . S
C85 H61 0.979 . S
C85 H62 0.977 . S
C85 C82 1.453 . S
C86 H58 0.979 . S
C86 H59 0.980 . S
C86 H60 0.983 . S
C86 C82 1.684 . S
H87 C105 0.948 . S
H88 C46 0.948 . S
H89 C64 0.979 . S
H90 C64 0.980 . S
H91 C64 0.983 1_455 S
H92 C63 0.982 . S
H93 C63 0.979 1_565 S
H94 C63 0.977 . S
H95 C65 0.948 . S
H96 C67 0.947 . S
H97 C68 0.948 . S
H98 C74 0.982 . S
H99 C74 0.979 . S
H100 C74 0.977 . S
H101 C75 0.979 . S
H102 C75 0.980 . S
H103 C75 0.983 . S
H104 C48 0.947 . S
C105 C48 1.392 . S
C105 C49 1.419 . S
C105 H87 0.948 . S
C106 C107 1.391 . S
C106 C110 1.391 . S
C106 H148 0.948 . S
C107 C106 1.391 . S
C107 C108 1.391 . S
C108 C107 1.391 . S
C108 H164 0.947 . S
C108 C165 1.392 . S
C109 C110 1.391 . S
C109 C113 1.397 . S
C109 C165 1.419 . S
C110 C106 1.391 . S
C110 C109 1.391 . S
C110 C111 1.399 . S
C111 C110 1.399 . S
C111 C114 1.396 . S
C111 C123 1.455 1_545 S
C111 C124 1.686 . S
H112 C136 0.948 . S
C113 C109 1.397 . S
C113 C114 1.394 . S
C113 C132 1.723 . S
C114 C111 1.396 . S
C114 C113 1.394 . S
C114 C144 1.723 1_445 S
H115 C138 0.947 . S
H116 C139 0.948 . S
H117 C145 0.982 . S
H118 C146 0.979 . S
H119 C146 0.980 . S
H120 C146 0.983 . S
H121 C145 0.979 . S
H122 C145 0.977 . S
C123 C111 1.455 1_565 S
C123 H152 0.981 . S
C123 H153 0.980 1_565 S
C123 H154 0.975 . S
C124 C111 1.686 . S
C124 H149 0.977 1_455 S
C124 H150 0.978 1_455 S
C124 H151 0.985 . S
C125 C126 1.391 . S
C125 C130 1.391 . S
C125 H155 0.948 . S
C126 C125 1.391 . S
C126 C127 1.391 1_445 S
C127 C126 1.391 1_665 S
C127 C128 1.392 . S
C127 H156 0.947 . S
C128 C127 1.392 . S
C128 C129 1.406 1_655 S
C128 H157 0.948 . S
C129 C128 1.406 1_455 S
C129 C130 1.402 1_565 S
C129 C133 1.399 . S
C130 C125 1.391 . S
C130 C129 1.402 1_545 S
C130 C131 1.399 . S
C131 C130 1.399 . S
C131 C132 1.396 . S
C131 C134 1.453 . S
C131 C135 1.684 . S
C132 C113 1.723 . S
C132 C131 1.396 . S
C132 C133 1.394 1_545 S
C133 C129 1.399 . S
C133 C132 1.394 1_565 S
C133 C143 1.723 1_455 S
C134 C131 1.453 . S
C134 H158 0.982 . S
C134 H159 0.979 . S
C134 H160 0.977 . S
C135 C131 1.684 . S
C135 H161 0.979 . S
C135 H162 0.980 . S
C135 H163 0.983 . S
C136 H112 0.948 . S
C136 C137 1.391 . S
C136 C141 1.391 . S
C137 C136 1.391 . S
C137 C138 1.391 . S
C138 H115 0.947 . S
C138 C137 1.391 . S
C138 C139 1.392 . S
C139 H116 0.948 . S
C139 C138 1.392 . S
C139 C140 1.419 . S
C140 C139 1.419 . S
C140 C141 1.391 . S
C140 C144 1.397 . S
C141 C136 1.391 . S
C141 C140 1.391 . S
C141 C142 1.399 . S
C142 C141 1.399 . S
C142 C143 1.396 . S
C142 C145 1.453 . S
C142 C146 1.684 . S
C143 C133 1.723 1_655 S
C143 C142 1.396 . S
C143 C144 1.394 . S
C144 C114 1.723 1_665 S
C144 C140 1.397 . S
C144 C143 1.394 . S
C145 H117 0.982 . S
C145 H121 0.979 . S
C145 H122 0.977 . S
C145 C142 1.453 . S
C146 H118 0.979 . S
C146 H119 0.980 . S
C146 H120 0.983 . S
C146 C142 1.684 . S
H147 C165 0.948 . S
H148 C106 0.948 . S
H149 C124 0.977 1_655 S
H150 C124 0.978 1_655 S
H151 C124 0.985 . S
H152 C123 0.981 . S
H153 C123 0.980 1_545 S
H154 C123 0.975 . S
H155 C125 0.948 . S
H156 C127 0.947 . S
H157 C128 0.948 . S
H158 C134 0.982 . S
H159 C134 0.979 . S
H160 C134 0.977 . S
H161 C135 0.979 . S
H162 C135 0.980 . S
H163 C135 0.983 . S
H164 C108 0.947 . S
C165 C108 1.392 . S
C165 C109 1.419 . S
C165 H147 0.948 . S
C166 C167 1.391 . S
C166 C170 1.391 . S
C166 H208 0.948 . S
C167 C166 1.391 . S
C167 C168 1.391 . S
C168 C167 1.391 . S
C168 H224 0.947 . S
C168 C225 1.392 . S
C169 C170 1.391 . S
C169 C173 1.397 . S
C169 C225 1.419 . S
C170 C166 1.391 . S
C170 C169 1.391 . S
C170 C171 1.399 . S
C171 C170 1.399 . S
C171 C174 1.396 . S
C171 C183 1.453 . S
C171 C184 1.684 . S
H172 C196 0.948 . S
C173 C169 1.397 . S
C173 C174 1.394 . S
C173 C192 1.723 . S
C174 C171 1.396 . S
C174 C173 1.394 . S
C174 C204 1.723 . S
H175 C198 0.947 . S
H176 C199 0.948 . S
H177 C205 0.982 . S
H178 C206 0.979 . S
H179 C206 0.980 . S
H180 C206 0.983 . S
H181 C205 0.979 . S
H182 C205 0.977 . S
C183 C171 1.453 . S
C183 H212 0.982 . S
C183 H213 0.979 . S
C183 H214 0.977 . S
C184 C171 1.684 . S
C184 H209 0.979 . S
C184 H210 0.980 . S
C184 H211 0.983 . S
C185 C186 1.391 . S
C185 C190 1.391 . S
C185 H215 0.948 . S
C186 C185 1.391 . S
C186 C187 1.391 . S
C187 C186 1.391 . S
C187 C188 1.392 . S
C187 H216 0.947 . S
C188 C187 1.392 . S
C188 C189 1.419 . S
C188 H217 0.948 . S
C189 C188 1.419 . S
C189 C190 1.391 . S
C189 C193 1.397 . S
C190 C185 1.391 . S
C190 C189 1.391 . S
C190 C191 1.399 . S
C191 C190 1.399 . S
C191 C192 1.396 . S
C191 C194 1.453 . S
C191 C195 1.684 . S
C192 C173 1.723 . S
C192 C191 1.396 . S
C192 C193 1.394 . S
C193 C189 1.397 . S
C193 C192 1.394 . S
C193 C203 1.723 . S
C194 C191 1.453 . S
C194 H218 0.982 . S
C194 H219 0.979 . S
C194 H220 0.977 . S
C195 C191 1.684 . S
C195 H221 0.979 . S
C195 H222 0.980 . S
C195 H223 0.983 . S
C196 H172 0.948 . S
C196 C197 1.391 . S
C196 C201 1.391 . S
C197 C196 1.391 . S
C197 C198 1.391 . S
C198 H175 0.947 . S
C198 C197 1.391 . S
C198 C199 1.392 . S
C199 H176 0.948 . S
C199 C198 1.392 . S
C199 C200 1.419 . S
C200 C199 1.419 . S
C200 C201 1.391 . S
C200 C204 1.397 . S
C201 C196 1.391 . S
C201 C200 1.391 . S
C201 C202 1.399 . S
C202 C201 1.399 . S
C202 C203 1.396 . S
C202 C205 1.453 . S
C202 C206 1.684 . S
C203 C193 1.723 . S
C203 C202 1.396 . S
C203 C204 1.394 . S
C204 C174 1.723 . S
C204 C200 1.397 . S
C204 C203 1.394 . S
C205 H177 0.982 . S
C205 H181 0.979 . S
C205 H182 0.977 . S
C205 C202 1.453 . S
C206 H178 0.979 . S
C206 H179 0.980 . S
C206 H180 0.983 . S
C206 C202 1.684 . S
H207 C225 0.948 . S
H208 C166 0.948 . S
H209 C184 0.979 . S
H210 C184 0.980 . S
H211 C184 0.983 . S
H212 C183 0.982 . S
H213 C183 0.979 . S
H214 C183 0.977 . S
H215 C185 0.948 . S
H216 C187 0.947 . S
H217 C188 0.948 . S
H218 C194 0.982 . S
H219 C194 0.979 . S
H220 C194 0.977 . S
H221 C195 0.979 . S
H222 C195 0.980 . S
H223 C195 0.983 . S
H224 C168 0.947 . S
C225 C168 1.392 . S
C225 C169 1.419 . S
C225 H207 0.948 . S
C226 C227 1.391 . S
C226 C230 1.391 . S
C226 H268 0.948 . S
C227 C226 1.391 . S
C227 C228 1.391 . S
C228 C227 1.391 . S
C228 H284 0.947 . S
C228 C285 1.392 . S
C229 C230 1.391 . S
C229 C233 1.397 . S
C229 C285 1.419 . S
C230 C226 1.391 . S
C230 C229 1.391 . S
C230 C231 1.399 . S
C231 C230 1.399 . S
C231 C234 1.396 . S
C231 C243 1.453 . S
C231 C244 1.684 . S
H232 C256 0.948 . S
C233 C229 1.397 . S
C233 C234 1.394 . S
C233 C252 1.723 . S
C234 C231 1.396 . S
C234 C233 1.394 . S
C234 C264 1.723 . S
H235 C258 0.947 . S
H236 C259 0.948 . S
H237 C265 0.982 . S
H238 C266 0.979 . S
H239 C266 0.980 . S
H240 C266 0.983 . S
H241 C265 0.979 . S
H242 C265 0.977 . S
C243 C231 1.453 . S
C243 H272 0.982 . S
C243 H273 0.979 . S
C243 H274 0.977 . S
C244 C231 1.684 . S
C244 H269 0.979 . S
C244 H270 0.980 . S
C244 H271 0.983 . S
C245 C246 1.391 . S
C245 C250 1.391 . S
C245 H275 0.948 . S
C246 C245 1.391 . S
C246 C247 1.391 . S
C247 C246 1.391 . S
C247 C248 1.392 . S
C247 H276 0.947 . S
C248 C247 1.392 . S
C248 C249 1.419 . S
C248 H277 0.948 . S
C249 C248 1.419 . S
C249 C250 1.391 . S
C249 C253 1.397 . S
C250 C245 1.391 . S
C250 C249 1.391 . S
C250 C251 1.399 . S
C251 C250 1.399 . S
C251 C252 1.396 . S
C251 C254 1.453 . S
C251 C255 1.684 . S
C252 C233 1.723 . S
C252 C251 1.396 . S
C252 C253 1.394 . S
C253 C249 1.397 . S
C253 C252 1.394 . S
C253 C263 1.723 . S
C254 C251 1.453 . S
C254 H278 0.982 . S
C254 H279 0.979 . S
C254 H280 0.977 . S
C255 C251 1.684 . S
C255 H281 0.979 . S
C255 H282 0.980 . S
C255 H283 0.983 . S
C256 H232 0.948 . S
C256 C257 1.391 . S
C256 C261 1.391 . S
C257 C256 1.391 . S
C257 C258 1.391 . S
C258 H235 0.947 . S
C258 C257 1.391 . S
C258 C259 1.392 . S
C259 H236 0.948 . S
C259 C258 1.392 . S
C259 C260 1.419 . S
C260 C259 1.419 . S
C260 C261 1.391 . S
C260 C264 1.397 . S
C261 C256 1.391 . S
C261 C260 1.391 . S
C261 C262 1.399 . S
C262 C261 1.399 . S
C262 C263 1.396 . S
C262 C265 1.453 . S
C262 C266 1.684 . S
C263 C253 1.723 . S
C263 C262 1.396 . S
C263 C264 1.394 . S
C264 C234 1.723 . S
C264 C260 1.397 . S
C264 C263 1.394 . S
C265 H237 0.982 . S
C265 H241 0.979 . S
C265 H242 0.977 . S
C265 C262 1.453 . S
C266 H238 0.979 . S
C266 H239 0.980 . S
C266 H240 0.983 . S
C266 C262 1.684 . S
H267 C285 0.948 . S
H268 C226 0.948 . S
H269 C244 0.979 . S
H270 C244 0.980 . S
H271 C244 0.983 . S
H272 C243 0.982 . S
H273 C243 0.979 . S
H274 C243 0.977 . S
H275 C245 0.948 . S
H276 C247 0.947 . S
H277 C248 0.948 . S
H278 C254 0.982 . S
H279 C254 0.979 . S
H280 C254 0.977 . S
H281 C255 0.979 . S
H282 C255 0.980 . S
H283 C255 0.983 . S
H284 C228 0.947 . S
C285 C228 1.392 . S
C285 C229 1.419 . S
C285 H267 0.948 . S
H286 C298 0.930 . S
H287 C300 0.930 1_556 S
H288 C301 0.930 1_556 S
H289 C305 0.959 . S
H290 C305 0.959 . S
H291 C305 0.961 . S
H292 C306 0.960 . S
H293 C306 0.961 . S
H294 C306 0.959 . S
H295 C309 0.929 . S
H296 C310 0.931 . S
H297 C312 0.930 . S
C298 H286 0.930 . S
C298 C299 1.399 . S
C298 C303 1.399 . S
C299 C298 1.399 . S
C299 C300 1.376 . S
C300 H287 0.930 1_554 S
C300 C299 1.376 . S
C300 C301 1.388 . S
C301 H288 0.930 1_554 S
C301 C300 1.388 . S
C301 C302 1.390 . S
C302 C301 1.390 . S
C302 C303 1.394 . S
C302 C308 1.465 . S
C303 C298 1.399 . S
C303 C302 1.394 . S
C303 C304 1.516 . S
C304 C303 1.516 . S
C304 C305 1.502 . S
C304 C306 1.561 . S
C304 C307 1.526 . S
C305 H289 0.959 . S
C305 H290 0.959 . S
C305 H291 0.961 . S
C305 C304 1.502 . S
C306 H292 0.960 . S
C306 H293 0.961 . S
C306 H294 0.959 . S
C306 C304 1.561 . S
C307 C304 1.526 . S
C307 C308 1.396 . S
C307 C312 1.390 . S
C308 C302 1.465 . S
C308 C307 1.396 . S
C308 C309 1.399 . S
C309 H295 0.929 . S
C309 C308 1.399 . S
C309 C310 1.385 . S
C310 H296 0.931 . S
C310 C309 1.385 . S
C310 C311 1.389 . S
C311 C310 1.389 . S
C311 C312 1.387 . S
C312 H297 0.930 . S
C312 C307 1.390 . S
C312 C311 1.387 . S
H313 C325 0.930 . S
H314 C327 0.930 . S
H315 C328 0.930 . S
H316 C332 0.959 . S
H317 C332 0.959 . S
H318 C332 0.961 . S
H319 C333 0.960 . S
H320 C333 0.961 . S
H321 C333 0.959 . S
H322 C336 0.929 . S
H323 C337 0.931 1_554 S
H324 C339 0.930 . S
C325 H313 0.930 . S
C325 C326 1.399 . S
C325 C330 1.399 . S
C326 C325 1.399 . S
C326 C327 1.376 1_556 S
C327 H314 0.930 . S
C327 C326 1.376 1_554 S
C327 C328 1.388 . S
C328 H315 0.930 . S
C328 C327 1.388 . S
C328 C329 1.390 1_554 S
C329 C328 1.390 1_556 S
C329 C330 1.394 . S
C329 C335 1.465 . S
C330 C325 1.399 . S
C330 C329 1.394 . S
C330 C331 1.516 . S
C331 C330 1.516 . S
C331 C332 1.502 . S
C331 C333 1.561 . S
C331 C334 1.526 . S
C332 H316 0.959 . S
C332 H317 0.959 . S
C332 H318 0.961 . S
C332 C331 1.502 . S
C333 H319 0.960 . S
C333 H320 0.961 . S
C333 H321 0.959 . S
C333 C331 1.561 . S
C334 C331 1.526 . S
C334 C335 1.396 . S
C334 C339 1.390 . S
C335 C329 1.465 . S
C335 C334 1.396 . S
C335 C336 1.399 1_556 S
C336 H322 0.929 . S
C336 C335 1.399 1_554 S
C336 C337 1.385 1_554 S
C337 H323 0.931 1_556 S
C337 C336 1.385 1_556 S
C337 C338 1.389 . S
C338 C337 1.389 . S
C338 C339 1.387 . S
C339 H324 0.930 . S
C339 C334 1.390 . S
C339 C338 1.387 . S
H340 C352 0.930 . S
H341 C354 0.930 . S
H342 C355 0.930 . S
H343 C359 0.959 . S
H344 C359 0.959 . S
H345 C359 0.961 . S
H346 C360 0.960 . S
H347 C360 0.961 . S
H348 C360 0.959 . S
H349 C363 0.929 . S
H350 C364 0.931 . S
H351 C366 0.930 . S
C352 H340 0.930 . S
C352 C353 1.399 . S
C352 C357 1.399 . S
C353 C352 1.399 . S
C353 C354 1.376 . S
C354 H341 0.930 . S
C354 C353 1.376 . S
C354 C355 1.388 . S
C355 H342 0.930 . S
C355 C354 1.388 . S
C355 C356 1.390 . S
C356 C355 1.390 . S
C356 C357 1.394 . S
C356 C362 1.465 . S
C357 C352 1.399 . S
C357 C356 1.394 . S
C357 C358 1.516 . S
C358 C357 1.516 . S
C358 C359 1.502 . S
C358 C360 1.561 . S
C358 C361 1.526 . S
C359 H343 0.959 . S
C359 H344 0.959 . S
C359 H345 0.961 . S
C359 C358 1.502 . S
C360 H346 0.960 . S
C360 H347 0.961 . S
C360 H348 0.959 . S
C360 C358 1.561 . S
C361 C358 1.526 . S
C361 C362 1.396 . S
C361 C366 1.390 . S
C362 C356 1.465 . S
C362 C361 1.396 . S
C362 C363 1.399 . S
C363 H349 0.929 . S
C363 C362 1.399 . S
C363 C364 1.385 . S
C364 H350 0.931 . S
C364 C363 1.385 . S
C364 C365 1.389 . S
C365 C364 1.389 . S
C365 C366 1.387 . S
C366 H351 0.930 . S
C366 C361 1.390 . S
C366 C365 1.387 . S
H367 C379 0.930 . S
H368 C381 0.930 . S
H369 C382 0.930 . S
H370 C386 0.959 . S
H371 C386 0.959 . S
H372 C386 0.961 . S
H373 C387 0.960 . S
H374 C387 0.961 . S
H375 C387 0.959 . S
H376 C390 0.929 . S
H377 C391 0.931 1_554 S
H378 C393 0.930 . S
C379 H367 0.930 . S
C379 C380 1.399 . S
C379 C384 1.399 . S
C380 C379 1.399 . S
C380 C381 1.376 1_556 S
C381 H368 0.930 . S
C381 C380 1.376 1_554 S
C381 C382 1.388 . S
C382 H369 0.930 . S
C382 C381 1.388 . S
C382 C383 1.390 1_554 S
C383 C382 1.390 1_556 S
C383 C384 1.394 . S
C383 C389 1.465 . S
C384 C379 1.399 . S
C384 C383 1.394 . S
C384 C385 1.516 . S
C385 C384 1.516 . S
C385 C386 1.502 . S
C385 C387 1.561 . S
C385 C388 1.526 . S
C386 H370 0.959 . S
C386 H371 0.959 . S
C386 H372 0.961 . S
C386 C385 1.502 . S
C387 H373 0.960 . S
C387 H374 0.961 . S
C387 H375 0.959 . S
C387 C385 1.561 . S
C388 C385 1.526 . S
C388 C389 1.396 . S
C388 C393 1.390 . S
C389 C383 1.465 . S
C389 C388 1.396 . S
C389 C390 1.399 1_556 S
C390 H376 0.929 . S
C390 C389 1.399 1_554 S
C390 C391 1.385 1_554 S
C391 H377 0.931 1_556 S
C391 C390 1.385 1_556 S
C391 C392 1.389 . S
C392 C391 1.389 . S
C392 C393 1.387 . S
C393 H378 0.930 . S
C393 C388 1.390 . S
C393 C392 1.387 . S
H394 C406 0.930 . S
H395 C408 0.930 . S
H396 C409 0.930 . S
H397 C413 0.959 . S
H398 C413 0.959 . S
H399 C413 0.961 . S
H400 C414 0.960 . S
H401 C414 0.961 . S
H402 C414 0.959 . S
H403 C417 0.929 . S
H404 C418 0.931 . S
H405 C420 0.930 . S
C406 H394 0.930 . S
C406 C407 1.399 . S
C406 C411 1.399 . S
C407 C406 1.399 . S
C407 C408 1.376 . S
C408 H395 0.930 . S
C408 C407 1.376 . S
C408 C409 1.388 . S
C409 H396 0.930 . S
C409 C408 1.388 . S
C409 C410 1.390 . S
C410 C409 1.390 . S
C410 C411 1.394 . S
C410 C416 1.465 . S
C411 C406 1.399 . S
C411 C410 1.394 . S
C411 C412 1.516 . S
C412 C411 1.516 . S
C412 C413 1.502 . S
C412 C414 1.561 . S
C412 C415 1.526 . S
C413 H397 0.959 . S
C413 H398 0.959 . S
C413 H399 0.961 . S
C413 C412 1.502 . S
C414 H400 0.960 . S
C414 H401 0.961 . S
C414 H402 0.959 . S
C414 C412 1.561 . S
C415 C412 1.526 . S
C415 C416 1.396 . S
C415 C420 1.390 . S
C416 C410 1.465 . S
C416 C415 1.396 . S
C416 C417 1.399 . S
C417 H403 0.929 . S
C417 C416 1.399 . S
C417 C418 1.385 . S
C418 H404 0.931 . S
C418 C417 1.385 . S
C418 C419 1.389 . S
C419 C418 1.389 . S
C419 C420 1.387 . S
C420 H405 0.930 . S
C420 C415 1.390 . S
C420 C419 1.387 . S
H421 C433 0.930 . S
H422 C435 0.930 . S
H423 C436 0.930 . S
H424 C440 0.959 . S
H425 C440 0.959 . S
H426 C440 0.961 . S
H427 C441 0.960 . S
H428 C441 0.961 . S
H429 C441 0.959 . S
H430 C444 0.929 . S
H431 C445 0.931 . S
H432 C447 0.930 . S
C433 H421 0.930 . S
C433 C434 1.399 . S
C433 C438 1.399 . S
C434 C433 1.399 . S
C434 C435 1.376 . S
C435 H422 0.930 . S
C435 C434 1.376 . S
C435 C436 1.388 . S
C436 H423 0.930 . S
C436 C435 1.388 . S
C436 C437 1.390 . S
C437 C436 1.390 . S
C437 C438 1.394 . S
C437 C443 1.465 . S
C438 C433 1.399 . S
C438 C437 1.394 . S
C438 C439 1.516 . S
C439 C438 1.516 . S
C439 C440 1.502 . S
C439 C441 1.561 . S
C439 C442 1.526 . S
C440 H424 0.959 . S
C440 H425 0.959 . S
C440 H426 0.961 . S
C440 C439 1.502 . S
C441 H427 0.960 . S
C441 H428 0.961 . S
C441 H429 0.959 . S
C441 C439 1.561 . S
C442 C439 1.526 . S
C442 C443 1.396 . S
C442 C447 1.390 . S
C443 C437 1.465 . S
C443 C442 1.396 . S
C443 C444 1.399 . S
C444 H430 0.929 . S
C444 C443 1.399 . S
C444 C445 1.385 . S
C445 H431 0.931 . S
C445 C444 1.385 . S
C445 C446 1.389 . S
C446 C445 1.389 . S
C446 C447 1.387 . S
C447 H432 0.930 . S
C447 C442 1.390 . S
C447 C446 1.387 . S
H448 C460 0.930 . S
H449 C462 0.930 . S
H450 C463 0.930 . S
H451 C467 0.959 . S
H452 C467 0.959 . S
H453 C467 0.961 . S
H454 C468 0.960 . S
H455 C468 0.961 . S
H456 C468 0.959 . S
H457 C471 0.929 . S
H458 C472 0.931 . S
H459 C474 0.930 . S
C460 H448 0.930 . S
C460 C461 1.399 . S
C460 C465 1.399 . S
C461 C460 1.399 . S
C461 C462 1.376 . S
C462 H449 0.930 . S
C462 C461 1.376 . S
C462 C463 1.388 . S
C463 H450 0.930 . S
C463 C462 1.388 . S
C463 C464 1.390 . S
C464 C463 1.390 . S
C464 C465 1.394 . S
C464 C470 1.465 . S
C465 C460 1.399 . S
C465 C464 1.394 . S
C465 C466 1.516 . S
C466 C465 1.516 . S
C466 C467 1.502 . S
C466 C468 1.561 . S
C466 C469 1.526 . S
C467 H451 0.959 . S
C467 H452 0.959 . S
C467 H453 0.961 . S
C467 C466 1.502 . S
C468 H454 0.960 . S
C468 H455 0.961 . S
C468 H456 0.959 . S
C468 C466 1.561 . S
C469 C466 1.526 . S
C469 C470 1.396 . S
C469 C474 1.390 . S
C470 C464 1.465 . S
C470 C469 1.396 . S
C470 C471 1.399 . S
C471 H457 0.929 . S
C471 C470 1.399 . S
C471 C472 1.385 . S
C472 H458 0.931 . S
C472 C471 1.385 . S
C472 C473 1.389 . S
C473 C472 1.389 . S
C473 C474 1.387 . S
C474 H459 0.930 . S
C474 C469 1.390 . S
C474 C473 1.387 . S
H475 C487 0.930 . S
H476 C489 0.930 . S
H477 C490 0.930 . S
H478 C494 0.959 . S
H479 C494 0.959 . S
H480 C494 0.961 . S
H481 C495 0.960 . S
H482 C495 0.961 . S
H483 C495 0.959 . S
H484 C498 0.929 . S
H485 C499 0.931 . S
H486 C501 0.930 . S
C487 H475 0.930 . S
C487 C488 1.399 . S
C487 C492 1.399 . S
C488 C487 1.399 . S
C488 C489 1.376 . S
C489 H476 0.930 . S
C489 C488 1.376 . S
C489 C490 1.388 . S
C490 H477 0.930 . S
C490 C489 1.388 . S
C490 C491 1.390 . S
C491 C490 1.390 . S
C491 C492 1.394 . S
C491 C497 1.465 . S
C492 C487 1.399 . S
C492 C491 1.394 . S
C492 C493 1.516 . S
C493 C492 1.516 . S
C493 C494 1.502 . S
C493 C495 1.561 . S
C493 C496 1.526 . S
C494 H478 0.959 . S
C494 H479 0.959 . S
C494 H480 0.961 . S
C494 C493 1.502 . S
C495 H481 0.960 . S
C495 H482 0.961 . S
C495 H483 0.959 . S
C495 C493 1.561 . S
C496 C493 1.526 . S
C496 C497 1.396 . S
C496 C501 1.390 . S
C497 C491 1.465 . S
C497 C496 1.396 . S
C497 C498 1.399 . S
C498 H484 0.929 . S
C498 C497 1.399 . S
C498 C499 1.385 . S
C499 H485 0.931 . S
C499 C498 1.385 . S
C499 C500 1.389 . S
C500 C499 1.389 . S
C500 C501 1.387 . S
C501 H486 0.930 . S
C501 C496 1.390 . S
C501 C500 1.387 . S
H502 C514 0.930 . S
H503 C516 0.930 . S
H504 C517 0.930 . S
H505 C521 0.959 . S
H506 C521 0.959 . S
H507 C521 0.961 . S
H508 C522 0.960 . S
H509 C522 0.961 . S
H510 C522 0.959 . S
H511 C525 0.929 . S
H512 C526 0.931 . S
H513 C528 0.930 . S
C514 H502 0.930 . S
C514 C515 1.399 1_665 S
C514 C519 1.398 1_655 S
C515 C514 1.399 1_445 S
C515 C516 1.376 . S
C516 H503 0.930 . S
C516 C515 1.376 . S
C516 C517 1.388 . S
C517 H504 0.930 . S
C517 C516 1.388 . S
C517 C518 1.390 . S
C518 C517 1.390 . S
C518 C519 1.396 1_545 S
C518 C524 1.465 . S
C519 C514 1.398 1_455 S
C519 C518 1.396 1_565 S
C519 C520 1.515 1_455 S
C520 C519 1.515 1_655 S
C520 C521 1.502 . S
C520 C522 1.561 1_655 S
C520 C523 1.526 . S
C521 H505 0.959 . S
C521 H506 0.959 . S
C521 H507 0.961 . S
C521 C520 1.502 . S
C522 H508 0.960 . S
C522 H509 0.961 . S
C522 H510 0.959 . S
C522 C520 1.561 1_455 S
C523 C520 1.526 . S
C523 C524 1.396 1_665 S
C523 C528 1.390 . S
C524 C518 1.465 . S
C524 C523 1.396 1_445 S
C524 C525 1.399 . S
C525 H511 0.929 . S
C525 C524 1.399 . S
C525 C526 1.385 . S
C526 H512 0.931 . S
C526 C525 1.385 . S
C526 C527 1.389 . S
C527 C526 1.389 . S
C527 C528 1.387 1_445 S
C528 H513 0.930 . S
C528 C523 1.390 . S
C528 C527 1.387 1_665 S
H529 C541 0.930 . S
H530 C543 0.930 . S
H531 C544 0.930 . S
H532 C548 0.959 . S
H533 C548 0.959 . S
H534 C548 0.961 . S
H535 C549 0.960 . S
H536 C549 0.961 1_455 S
H537 C549 0.959 . S
H538 C552 0.929 . S
H539 C553 0.931 . S
H540 C555 0.930 . S
C541 H529 0.930 . S
C541 C542 1.399 1_565 S
C541 C546 1.399 . S
C542 C541 1.399 1_545 S
C542 C543 1.376 1_455 S
C543 H530 0.930 . S
C543 C542 1.376 1_655 S
C543 C544 1.388 . S
C544 H531 0.930 . S
C544 C543 1.388 . S
C544 C545 1.390 . S
C545 C544 1.390 . S
C545 C546 1.394 1_645 S
C545 C551 1.465 . S
C546 C541 1.399 . S
C546 C545 1.394 1_465 S
C546 C547 1.516 . S
C547 C546 1.516 . S
C547 C548 1.502 . S
C547 C549 1.561 1_455 S
C547 C550 1.526 . S
C548 H532 0.959 . S
C548 H533 0.959 . S
C548 H534 0.961 . S
C548 C547 1.502 . S
C549 H535 0.960 . S
C549 H536 0.961 1_655 S
C549 H537 0.959 . S
C549 C547 1.561 1_655 S
C550 C547 1.526 . S
C550 C551 1.396 1_465 S
C550 C555 1.390 . S
C551 C545 1.465 . S
C551 C550 1.396 1_645 S
C551 C552 1.399 . S
C552 H538 0.929 . S
C552 C551 1.399 . S
C552 C553 1.385 . S
C553 H539 0.931 . S
C553 C552 1.385 . S
C553 C554 1.389 1_655 S
C554 C553 1.389 1_455 S
C554 C555 1.387 1_545 S
C555 H540 0.930 . S
C555 C550 1.390 . S
C555 C554 1.387 1_565 S
H556 C568 0.930 . S
H557 C570 0.930 . S
H558 C571 0.930 . S
H559 C575 0.959 . S
H560 C575 0.959 . S
H561 C575 0.961 . S
H562 C576 0.960 . S
H563 C576 0.961 . S
H564 C576 0.959 . S
H565 C579 0.929 . S
H566 C580 0.931 . S
H567 C582 0.930 . S
C568 H556 0.930 . S
C568 C569 1.399 . S
C568 C573 1.399 . S
C569 C568 1.399 . S
C569 C570 1.376 . S
C570 H557 0.930 . S
C570 C569 1.376 . S
C570 C571 1.388 . S
C571 H558 0.930 . S
C571 C570 1.388 . S
C571 C572 1.390 . S
C572 C571 1.390 . S
C572 C573 1.394 . S
C572 C578 1.465 . S
C573 C568 1.399 . S
C573 C572 1.394 . S
C573 C574 1.516 . S
C574 C573 1.516 . S
C574 C575 1.502 . S
C574 C576 1.561 . S
C574 C577 1.526 . S
C575 H559 0.959 . S
C575 H560 0.959 . S
C575 H561 0.961 . S
C575 C574 1.502 . S
C576 H562 0.960 . S
C576 H563 0.961 . S
C576 H564 0.959 . S
C576 C574 1.561 . S
C577 C574 1.526 . S
C577 C578 1.396 . S
C577 C582 1.390 . S
C578 C572 1.465 . S
C578 C577 1.396 . S
C578 C579 1.399 . S
C579 H565 0.929 . S
C579 C578 1.399 . S
C579 C580 1.385 . S
C580 H566 0.931 . S
C580 C579 1.385 . S
C580 C581 1.389 . S
C581 C580 1.389 . S
C581 C582 1.387 . S
C582 H567 0.930 . S
C582 C577 1.390 . S
C582 C581 1.387 . S
H583 C595 0.930 . S
H584 C597 0.930 . S
H585 C598 0.930 . S
H586 C602 0.959 . S
H587 C602 0.959 . S
H588 C602 0.961 . S
H589 C603 0.960 . S
H590 C603 0.961 . S
H591 C603 0.959 . S
H592 C606 0.929 . S
H593 C607 0.931 . S
H594 C609 0.930 . S
C595 H583 0.930 . S
C595 C596 1.399 . S
C595 C600 1.399 . S
C596 C595 1.399 . S
C596 C597 1.376 . S
C597 H584 0.930 . S
C597 C596 1.376 . S
C597 C598 1.388 . S
C598 H585 0.930 . S
C598 C597 1.388 . S
C598 C599 1.390 . S
C599 C598 1.390 . S
C599 C600 1.394 . S
C599 C605 1.465 . S
C600 C595 1.399 . S
C600 C599 1.394 . S
C600 C601 1.516 . S
C601 C600 1.516 . S
C601 C602 1.502 . S
C601 C603 1.561 . S
C601 C604 1.526 . S
C602 H586 0.959 . S
C602 H587 0.959 . S
C602 H588 0.961 . S
C602 C601 1.502 . S
C603 H589 0.960 . S
C603 H590 0.961 . S
C603 H591 0.959 . S
C603 C601 1.561 . S
C604 C601 1.526 . S
C604 C605 1.396 . S
C604 C609 1.390 . S
C605 C599 1.465 . S
C605 C604 1.396 . S
C605 C606 1.399 . S
C606 H592 0.929 . S
C606 C605 1.399 . S
C606 C607 1.385 . S
C607 H593 0.931 . S
C607 C606 1.385 . S
C607 C608 1.389 . S
C608 C607 1.389 . S
C608 C609 1.387 . S
C609 H594 0.930 . S
C609 C604 1.390 . S
C609 C608 1.387 . S
C311 C257 1.456 . S
C299 C21 1.424 . S
C326 C19 1.430 1_556 S
C338 C197 1.451 . S
C353 C18 1.382 . S
C365 C227 1.358 . S
C380 C20 1.426 1_556 S
C392 C167 1.407 . S
C407 C44 1.423 . S
C419 C137 1.454 . S
C434 C42 1.425 . S
C446 C77 1.448 . S
C473 C107 1.314 . S
C461 C41 1.429 . S
C500 C47 1.413 . S
C488 C43 1.419 . S
C515 C16 1.485 . S
C527 C66 1.468 1_455 S
C542 C17 1.446 . S
C554 C126 1.419 . S
C581 C186 1.471 . S
C569 C39 1.485 . S
C596 C40 1.449 . S
C608 C246 1.417 . S
