# Generated by pormake.
# Topology pyr, (3,6)-cn, num edge types: 1
# Building blocks:
#     Node 0, Type 0, BuildingBlock: PAMTOO_clean_linker_0, # of connection points: 3
#     Node 1, Type 0, BuildingBlock: PAMTOO_clean_linker_0, # of connection points: 3
#     Node 2, Type 0, BuildingBlock: PAMTOO_clean_linker_0, # of connection points: 3
#     Node 3, Type 0, BuildingBlock: PAMTOO_clean_linker_0, # of connection points: 3
#     Node 4, Type 0, BuildingBlock: PAMTOO_clean_linker_0, # of connection points: 3
#     Node 5, Type 0, BuildingBlock: PAMTOO_clean_linker_0, # of connection points: 3
#     Node 6, Type 0, BuildingBlock: PAMTOO_clean_linker_0, # of connection points: 3
#     Node 7, Type 0, BuildingBlock: PAMTOO_clean_linker_0, # of connection points: 3
#     Node 8, Type 1, BuildingBlock: PAMTOO_clean_sbu_0, # of connection points: 6
#     Node 9, Type 1, BuildingBlock: PAMTOO_clean_sbu_0, # of connection points: 6
#     Node 10, Type 1, BuildingBlock: PAMTOO_clean_sbu_0, # of connection points: 6
#     Node 11, Type 1, BuildingBlock: PAMTOO_clean_sbu_0, # of connection points: 6
#     Edge 12, Type (0, 1), BuildingBlock: EZIPEK_clean_linker_0, # of connection points: 2
#     Edge 13, Type (0, 1), BuildingBlock: EZIPEK_clean_linker_0, # of connection points: 2
#     Edge 14, Type (0, 1), BuildingBlock: EZIPEK_clean_linker_0, # of connection points: 2
#     Edge 15, Type (0, 1), BuildingBlock: EZIPEK_clean_linker_0, # of connection points: 2
#     Edge 16, Type (0, 1), BuildingBlock: EZIPEK_clean_linker_0, # of connection points: 2
#     Edge 17, Type (0, 1), BuildingBlock: EZIPEK_clean_linker_0, # of connection points: 2
#     Edge 18, Type (0, 1), BuildingBlock: EZIPEK_clean_linker_0, # of connection points: 2
#     Edge 19, Type (0, 1), BuildingBlock: EZIPEK_clean_linker_0, # of connection points: 2
#     Edge 20, Type (0, 1), BuildingBlock: EZIPEK_clean_linker_0, # of connection points: 2
#     Edge 21, Type (0, 1), BuildingBlock: EZIPEK_clean_linker_0, # of connection points: 2
#     Edge 22, Type (0, 1), BuildingBlock: EZIPEK_clean_linker_0, # of connection points: 2
#     Edge 23, Type (0, 1), BuildingBlock: EZIPEK_clean_linker_0, # of connection points: 2
#     Edge 24, Type (0, 1), BuildingBlock: EZIPEK_clean_linker_0, # of connection points: 2
#     Edge 25, Type (0, 1), BuildingBlock: EZIPEK_clean_linker_0, # of connection points: 2
#     Edge 26, Type (0, 1), BuildingBlock: EZIPEK_clean_linker_0, # of connection points: 2
#     Edge 27, Type (0, 1), BuildingBlock: EZIPEK_clean_linker_0, # of connection points: 2
#     Edge 28, Type (0, 1), BuildingBlock: EZIPEK_clean_linker_0, # of connection points: 2
#     Edge 29, Type (0, 1), BuildingBlock: EZIPEK_clean_linker_0, # of connection points: 2
#     Edge 30, Type (0, 1), BuildingBlock: EZIPEK_clean_linker_0, # of connection points: 2
#     Edge 31, Type (0, 1), BuildingBlock: EZIPEK_clean_linker_0, # of connection points: 2
#     Edge 32, Type (0, 1), BuildingBlock: EZIPEK_clean_linker_0, # of connection points: 2
#     Edge 33, Type (0, 1), BuildingBlock: EZIPEK_clean_linker_0, # of connection points: 2
#     Edge 34, Type (0, 1), BuildingBlock: EZIPEK_clean_linker_0, # of connection points: 2
#     Edge 35, Type (0, 1), BuildingBlock: EZIPEK_clean_linker_0, # of connection points: 2
# Relax obj value: 0.243
# Max RMSD: 0.284
# Mean RMSD: 0.148
data_MOF--net-pyr--node1-PAMTOO_clean_sbu_0--node2-PAMTOO_clean_linker_0--edge1-EZIPEK_clean_linker_0
_symmetry_space_group_name_H-M    P1
_symmetry_Int_Tables_number       1
_symmetry_cell_setting            triclinic
loop_
_symmetry_equiv_pos_as_xyz
'x, y, z'
_cell_length_a     26.249204
_cell_length_b     29.182817
_cell_length_c     28.784152
_cell_angle_alpha  91.22597
_cell_angle_beta   90.021375
_cell_angle_gamma 109.99929
loop_
_atom_site_label
_atom_site_type_symbol
_atom_site_fract_x
_atom_site_fract_y
_atom_site_fract_z
_atom_type_partial_charge
H0 H 0.34687 0.35878 0.33361 0.0
H1 H 0.47356 0.29724 0.33946 0.0
H2 H 0.42784 0.34012 0.2086 0.0
H3 H 0.41781 0.23221 0.23409 0.0
C4 C 0.46089 0.24287 0.24563 0.0
O5 O 0.48421 0.29308 0.25002 0.0
H6 H 0.45832 0.2262 0.28031 0.0
C7 C 0.37985 0.35061 0.31678 0.0
C8 C 0.38593 0.35492 0.26854 0.0
C9 C 0.41124 0.32966 0.34241 0.0
C10 C 0.45155 0.31616 0.32024 0.0
C11 C 0.45678 0.31882 0.27189 0.0
C12 C 0.42524 0.33974 0.24615 0.0
H13 H 0.17075 0.85965 0.78863 0.0
H14 H 0.13651 0.81576 0.64499 0.0
H15 H 0.22165 0.74575 0.72975 0.0
H16 H 0.22678 0.79933 0.59995 0.0
C17 C 0.22398 0.76363 0.61441 0.0
O18 O 0.18282 0.7491 0.64668 0.0
H19 H 0.21203 0.73857 0.58364 0.0
C20 C 0.17225 0.83611 0.75936 0.0
C21 C 0.20069 0.80351 0.76372 0.0
C22 C 0.1492 0.84125 0.71666 0.0
C23 C 0.15305 0.81169 0.67854 0.0
C24 C 0.17896 0.77724 0.68341 0.0
C25 C 0.20122 0.77211 0.72635 0.0
H26 H 0.7414 0.34782 0.97596 0.0
H27 H 0.62731 0.33805 0.86505 0.0
H28 H 0.77306 0.46413 0.87891 0.0
H29 H 0.67992 0.4881 0.85751 0.0
C30 C 0.65845 0.4594 0.83129 0.0
O31 O 0.68399 0.42453 0.82855 0.0
H32 H 0.61715 0.43944 0.84429 0.0
C33 C 0.72904 0.36327 0.94583 0.0
C34 C 0.76242 0.40924 0.93095 0.0
C35 C 0.68069 0.33642 0.92232 0.0
C36 C 0.66477 0.35773 0.88326 0.0
C37 C 0.69793 0.40425 0.86728 0.0
C38 C 0.74709 0.42907 0.8911 0.0
H39 H 0.90482 0.78591 0.49345 0.0
H40 H 0.89005 0.66622 0.39837 0.0
H41 H 0.02303 0.80225 0.38512 0.0
H42 H 0.9393 0.72272 0.29254 0.0
C43 C 0.95178 0.6935 0.30762 0.0
O44 O 0.97889 0.71047 0.35008 0.0
H45 H 0.91264 0.66424 0.31482 0.0
C46 C 0.9201 0.77106 0.46389 0.0
C47 C 0.96783 0.80027 0.4421 0.0
C48 C 0.89133 0.72323 0.44801 0.0
C49 C 0.91155 0.70343 0.4099 0.0
C50 C 0.95865 0.73154 0.38598 0.0
C51 C 0.98637 0.78041 0.40232 0.0
H52 H 0.65778 0.87281 0.85457 0.0
H53 H 0.63973 0.79785 0.98385 0.0
H54 H 0.7322 0.76444 0.87367 0.0
H55 H 0.6741 0.68571 0.92356 0.0
C56 C 0.69215 0.69972 0.95816 0.0
O57 O 0.70366 0.74959 0.96034 0.0
H58 H 0.66188 0.68199 0.98502 0.0
C59 C 0.66249 0.84364 0.87496 0.0
C60 C 0.69382 0.81684 0.8577 0.0
C61 C 0.64313 0.8373 0.92052 0.0
C62 C 0.65216 0.80134 0.94782 0.0
C63 C 0.68413 0.77494 0.93075 0.0
C64 C 0.70467 0.78258 0.88565 0.0
H65 H 1.01763 0.22551 0.36619 0.0
H66 H 0.90841 0.30377 0.36244 0.0
H67 H 0.99447 0.3055 0.48812 0.0
H68 H 0.93655 0.38925 0.40759 0.0
C69 C 0.92234 0.37784 0.44336 0.0
O70 O 0.91893 0.33022 0.45025 0.0
H71 H 0.95295 0.40055 0.46876 0.0
C72 C 1.00363 0.2521 0.38334 0.0
C73 C 1.01957 0.26919 0.4294 0.0
C74 C 0.96418 0.26487 0.35955 0.0
C75 C 0.93929 0.2946 0.38109 0.0
C76 C 0.9506 0.30906 0.42748 0.0
C77 C 0.99032 0.29656 0.45145 0.0
H78 H 0.38553 0.7685 0.16105 0.0
H79 H 0.3652 0.6607 0.26595 0.0
H80 H 0.49504 0.79931 0.27837 0.0
H81 H 0.52649 0.71705 0.31569 0.0
C82 C 0.48596 0.69106 0.32497 0.0
O83 O 0.4474 0.71368 0.31899 0.0
H84 H 0.47899 0.66069 0.2991 0.0
C85 C 0.39915 0.75699 0.19291 0.0
C86 C 0.44393 0.78956 0.21703 0.0
C87 C 0.37019 0.7106 0.21009 0.0
C88 C 0.3878 0.69595 0.25194 0.0
C89 C 0.4334 0.7273 0.2767 0.0
C90 C 0.46098 0.77443 0.2591 0.0
H91 H 0.1029 0.3267 0.84378 0.0
H92 H 0.22134 0.46965 0.82116 0.0
H93 H 0.20988 0.35174 0.72576 0.0
H94 H 0.32082 0.41881 0.76194 0.0
C95 C 0.31412 0.45188 0.74887 0.0
O96 O 0.2592 0.44377 0.74346 0.0
H97 H 0.33071 0.47977 0.77696 0.0
C98 C 0.13567 0.3509 0.82379 0.0
C99 C 0.15382 0.33246 0.78279 0.0
C100 C 0.16008 0.40098 0.83855 0.0
C101 C 0.20253 0.4315 0.81132 0.0
C102 C 0.22039 0.4136 0.77091 0.0
C103 C 0.19602 0.36469 0.75723 0.0
Dy104 Dy 0.13779 0.08437 0.59962 0.0
Dy105 Dy 1.00798 0.05719 0.61929 0.0
C106 C 0.09368 0.14752 0.67472 0.0
O107 O 0.12007 1.02924 0.65443 0.0
O108 O 0.02702 0.99867 0.65695 0.0
O109 O 0.21872 0.11523 0.62859 0.0
O110 O 0.20659 0.08661 0.55783 0.0
O111 O 1.00962 1.00072 0.56461 0.0
O112 O 0.10086 1.01349 0.55775 0.0
O113 O 0.0322 0.12392 0.57567 0.0
O114 O 0.11217 0.12317 0.54391 0.0
O115 O 0.9265 1.03657 0.59132 0.0
O116 O 0.94198 0.05463 0.66456 0.0
C117 C 0.07467 0.99615 0.66733 0.0
O118 O 0.12911 0.14808 0.64201 0.0
O119 O 0.04876 0.10972 0.67793 0.0
C120 C 0.28126 0.15664 0.57176 0.0
C121 C 0.33934 0.23284 0.51459 0.0
C122 C 0.29858 0.23827 0.54337 0.0
C123 C 0.26927 0.20004 0.57165 0.0
C124 C 0.32598 0.15367 0.54703 0.0
C125 C 0.35494 0.19166 0.5185 0.0
C126 C 0.24155 0.11177 0.58905 0.0
C127 C 0.04965 0.98786 0.54771 0.0
C128 C 0.07168 0.1396 0.54562 0.0
C129 C 0.86196 0.9922 0.64546 0.0
C130 C 0.79699 0.91323 0.69606 0.0
C131 C 0.83628 0.90708 0.66597 0.0
C132 C 0.86909 0.94671 0.64096 0.0
C133 C 0.81873 0.99653 0.67144 0.0
C134 C 0.78635 0.95716 0.6967 0.0
C135 C 0.90532 1.03667 0.63228 0.0
H136 H 0.28569 0.2696 0.54018 0.0
H137 H 0.23445 0.20274 0.59019 0.0
H138 H 0.33546 0.12032 0.54655 0.0
H139 H 0.38601 0.18688 0.49611 0.0
H140 H 0.84513 0.87344 0.66553 0.0
H141 H 0.90274 0.94298 0.62136 0.0
H142 H 0.81305 1.03147 0.67547 0.0
H143 H 0.75621 0.96231 0.71997 0.0
Dy144 Dy 0.49711 1.04177 1.04009 0.0
Dy145 Dy 0.62115 0.07157 0.07968 0.0
C146 C 0.52371 0.9745 0.11762 0.0
O147 O 0.49777 0.09443 0.09663 0.0
O148 O 0.58634 0.11804 0.12359 0.0
O149 O 0.40981 1.01907 1.04479 0.0
O150 O 0.44932 1.03266 0.97771 0.0
O151 O 0.62666 0.14035 1.04409 0.0
O152 O 0.54639 0.11152 1.00286 0.0
O153 O 0.61603 1.03561 1.00986 0.0
O154 O 0.52989 0.98427 1.01577 0.0
O155 O 0.7076 0.09617 0.06688 0.0
O156 O 0.67543 0.06628 0.13341 0.0
C157 C 0.53733 0.12113 0.12385 0.0
O158 O 0.48627 0.98841 0.0979 0.0
O159 O 0.57576 0.9982 0.11114 0.0
C160 C 0.36601 0.96978 0.98068 0.0
C161 C 0.30788 0.88766 0.9267 0.0
C162 C 0.34881 0.88542 0.95699 0.0
C163 C 0.37806 0.92657 0.98378 0.0
C164 C 0.32216 0.97048 0.95346 0.0
C165 C 0.29316 0.92956 0.92661 0.0
C166 C 0.40345 1.0158 0.99975 0.0
C167 C 0.59345 0.14621 1.01248 0.0
C168 C 0.57906 0.99337 1.00051 0.0
C169 C 0.76343 0.12371 0.1334 0.0
C170 C 0.84508 0.17968 0.19428 0.0
C171 C 0.85656 0.1492 0.16068 0.0
C172 C 0.81569 0.12115 0.1304 0.0
C173 C 0.7533 0.15733 0.16435 0.0
C174 C 0.79401 0.18509 0.19483 0.0
C175 C 0.71878 0.0867 0.10893 0.0
H176 H 0.36086 0.85344 0.95703 0.0
H177 H 0.41217 0.92572 1.00452 0.0
H178 H 0.31262 1.00363 0.95063 0.0
H179 H 0.2618 0.93179 0.90317 0.0
H180 H 0.89575 0.14449 0.16022 0.0
H181 H 0.82397 0.09528 0.10665 0.0
H182 H 0.71313 0.1598 0.16695 0.0
H183 H 0.78468 0.20837 0.22084 0.0
Dy184 Dy 0.57787 0.53232 0.54833 0.0
Dy185 Dy 0.58533 0.63266 0.60508 0.0
C186 C 0.6228 0.55125 0.65566 0.0
O187 O 0.49219 0.51806 0.57199 0.0
O188 O 0.51241 0.57428 0.63202 0.0
O189 O 0.56101 0.45438 0.54565 0.0
O190 O 0.58929 0.49694 0.48444 0.0
O191 O 0.53111 0.6299 0.54322 0.0
O192 O 0.55691 0.57891 0.49466 0.0
O193 O 0.65944 0.6538 0.55968 0.0
O194 O 0.66629 0.57835 0.54674 0.0
O195 O 0.60289 0.71079 0.60688 0.0
O196 O 0.56913 0.66879 0.66708 0.0
C197 C 0.47948 0.53463 0.61161 0.0
O198 O 0.59746 0.51977 0.62258 0.0
O199 O 0.63232 0.59857 0.65129 0.0
C200 C 0.62604 0.43635 0.49933 0.0
C201 C 0.7203 0.41325 0.48425 0.0
C202 C 0.71329 0.43511 0.52647 0.0
C203 C 0.66658 0.44684 0.53385 0.0
C204 C 0.63219 0.41293 0.4578 0.0
C205 C 0.6791 0.40144 0.45028 0.0
C206 C 0.5812 0.45537 0.50418 0.0
C207 C 0.53498 0.61293 0.50111 0.0
C208 C 0.68641 0.6261 0.54406 0.0
C209 C 0.53233 0.72853 0.64619 0.0
C210 C 0.43582 0.75083 0.64871 0.0
C211 C 0.45197 0.73356 0.60748 0.0
C212 C 0.49975 0.72261 0.60616 0.0
C213 C 0.51695 0.74718 0.68722 0.0
C214 C 0.46906 0.75844 0.68845 0.0
C215 C 0.57825 0.70998 0.64632 0.0
H216 H 0.74469 0.44445 0.553 0.0
H217 H 0.66292 0.46556 0.56588 0.0
H218 H 0.60163 0.40511 0.43061 0.0
H219 H 0.68399 0.38456 0.41748 0.0
H220 H 0.42668 0.72718 0.57658 0.0
H221 H 0.51018 0.70799 0.57411 0.0
H222 H 0.54091 0.75144 0.71867 0.0
H223 H 0.45691 0.77135 0.72071 0.0
Dy224 Dy 0.07209 0.59734 1.04381 0.0
Dy225 Dy 0.05869 0.5043 0.10874 0.0
C226 C 0.02678 0.59348 0.15095 0.0
O227 O 0.15795 0.61539 0.06795 0.0
O228 O 0.13916 0.56144 0.12792 0.0
O229 O 0.07816 0.67306 1.0397 0.0
O230 O 0.06414 0.62823 0.97751 0.0
O231 O 0.09214 0.48425 1.04112 0.0
O232 O 0.10267 0.55035 0.99512 0.0
O233 O 0.97856 0.47756 0.07169 0.0
O234 O 0.9869 0.54656 1.03094 0.0
O235 O 0.04648 0.42816 0.11929 0.0
O236 O 0.06819 0.47924 0.17734 0.0
C237 C 0.17213 0.59951 0.10662 0.0
O238 O 0.05755 0.61934 0.11792 0.0
O239 O 1.01152 0.54541 0.14787 0.0
C240 C 1.00867 0.67524 0.98958 0.0
C241 C 0.90588 0.68308 0.97563 0.0
C242 C 0.91323 0.65191 1.00914 0.0
C243 C 0.96401 0.64806 1.01599 0.0
C244 C 1.0016 0.70656 0.95578 0.0
C245 C 0.95028 0.71062 0.94892 0.0
C246 C 0.06086 0.66782 0.99684 0.0
C247 C 0.10439 0.50604 1.00073 0.0
C248 C 0.95988 0.50134 1.04172 0.0
C249 C 0.11128 0.42111 0.17289 0.0
C250 C 0.20553 0.4012 0.1961 0.0
C251 C 0.19713 0.41284 0.15041 0.0
C252 C 0.15051 0.42309 0.13894 0.0
C253 C 0.11961 0.4091 0.21849 0.0
C254 C 0.16646 0.39915 0.23004 0.0
C255 C 0.06451 0.43602 0.16193 0.0
H256 H 0.87955 0.63068 1.03019 0.0
H257 H 0.96831 0.62362 1.0421 0.0
H258 H 0.03543 0.72754 0.93478 0.0
H259 H 0.94513 0.73506 0.92298 0.0
H260 H 0.22694 0.41451 0.12387 0.0
H261 H 0.14554 0.43325 0.10369 0.0
H262 H 0.09037 0.40828 0.2453 0.0
H263 H 0.17241 0.39002 0.26545 0.0
C264 C 0.41775 0.33005 0.42975 0.0
C265 C 0.39116 0.30826 0.38782 0.0
C266 C 0.32478 0.24407 0.43113 0.0
C267 C 0.35503 0.26228 0.47244 0.0
N268 N 0.43125 0.32061 0.51215 0.0
N269 N 0.32533 0.23986 0.34742 0.0
C270 C 0.40174 0.30498 0.47218 0.0
C271 C 0.34606 0.26417 0.38817 0.0
N272 N 0.45766 0.37476 0.42886 0.0
N273 N 0.27545 0.20752 0.43289 0.0
H274 H 0.33986 0.25252 0.31475 0.0
H275 H 0.29697 0.20469 0.34596 0.0
H276 H 0.25872 0.19026 0.46341 0.0
H277 H 0.24876 0.19717 0.40469 0.0
H278 H 0.47531 0.39485 0.45858 0.0
H279 H 0.47053 0.39342 0.3981 0.0
H280 H 0.46878 0.34846 0.51352 0.0
H281 H 0.41924 0.30379 0.5439 0.0
C282 C 0.20589 0.79554 0.84978 0.0
C283 C 0.23319 0.80667 0.80673 0.0
C284 C 0.3162 0.85758 0.84646 0.0
C285 C 0.28705 0.85102 0.88872 0.0
N286 N 0.2108 0.80505 0.93417 0.0
N287 N 0.3183 0.83382 0.76571 0.0
C288 C 0.23404 0.81653 0.89156 0.0
C289 C 0.28987 0.83241 0.80572 0.0
N290 N 0.15246 0.76676 0.84993 0.0
N291 N 0.3676 0.8909 0.8445 0.0
H292 H 0.30052 0.81688 0.73483 0.0
H293 H 0.36043 0.84763 0.76404 0.0
H294 H 0.38924 0.90898 0.87376 0.0
H295 H 0.38809 0.90278 0.81367 0.0
H296 H 0.12795 0.76071 0.87915 0.0
H297 H 0.13232 0.74919 0.81978 0.0
H298 H 0.17328 0.77834 0.93954 0.0
H299 H 0.23139 0.82029 0.96489 0.0
C300 C 0.61273 0.50883 0.78315 0.0
C301 C 0.65311 0.48586 0.78544 0.0
C302 C 0.67661 0.50953 0.70351 0.0
C303 C 0.63582 0.53147 0.70109 0.0
N304 N 0.57069 0.55865 0.74145 0.0
N305 N 0.73742 0.48482 0.75269 0.0
C306 C 0.60568 0.53302 0.74183 0.0
C307 C 0.68899 0.49181 0.74695 0.0
N308 N 0.58076 0.50791 0.82092 0.0
N309 N 0.70433 0.50605 0.66423 0.0
H310 H 0.7515 0.47861 0.78492 0.0
H311 H 0.76708 0.49225 0.72717 0.0
H312 H 0.69948 0.52162 0.633 0.0
H313 H 0.72954 0.48521 0.66197 0.0
H314 H 0.54458 0.51504 0.81947 0.0
H315 H 0.58957 0.49932 0.85422 0.0
H316 H 0.55263 0.56724 0.77096 0.0
H317 H 0.56195 0.57445 0.7118 0.0
C318 C 0.98776 0.62498 0.27671 0.0
C319 C 0.98258 0.67173 0.27122 0.0
C320 C 1.00222 0.66535 0.18742 0.0
C321 C 1.0112 0.62005 0.19292 0.0
N322 N 0.02867 0.56644 0.2489 0.0
N323 N 1.00671 0.74262 0.22338 0.0
C324 C 1.00844 0.60254 0.23935 0.0
C325 C 0.99691 0.69383 0.22728 0.0
N326 N 0.97245 0.60136 0.31752 0.0
N327 N 0.99524 0.68045 0.1441 0.0
H328 H 1.00759 0.76529 0.25212 0.0
H329 H 0.0213 0.76135 0.19301 0.0
H330 H 0.99357 0.65933 0.11426 0.0
H331 H 0.98387 0.71081 0.1385 0.0
H332 H 0.96881 0.56499 0.32172 0.0
H333 H 0.96041 0.6173 0.34631 0.0
H334 H 0.03223 0.55527 0.28251 0.0
H335 H 0.04827 0.55201 0.22421 0.0
C336 C 0.47975 0.21865 0.16377 0.0
C337 C 0.492 0.22177 0.21195 0.0
C338 C 0.53961 0.16333 0.2019 0.0
C339 C 0.52606 0.15867 0.15384 0.0
N340 N 0.49629 0.1921 0.08685 0.0
N341 N 0.55207 0.21358 0.27197 0.0
C342 C 0.5001 0.18949 0.13407 0.0
C343 C 0.52823 0.19962 0.22937 0.0
N344 N 0.44759 0.24267 0.14655 0.0
N345 N 0.55968 0.13109 0.22226 0.0
H346 H 0.54644 0.24179 0.29182 0.0
H347 H 0.58224 0.20146 0.2848 0.0
H348 H 0.56603 0.1022 0.20424 0.0
H349 H 0.56483 0.13002 0.25807 0.0
H350 H 0.43009 0.23601 0.11351 0.0
H351 H 0.43679 0.26842 0.16599 0.0
H352 H 0.48351 0.21775 0.07043 0.0
H353 H 0.51108 0.17208 0.06349 0.0
C354 C 0.06983 0.86693 0.69439 0.0
C355 C 0.12387 0.87959 0.7113 0.0
C356 C 0.12736 0.96395 0.72077 0.0
C357 C 0.08051 0.9539 0.69245 0.0
N358 N 1.00593 0.89286 0.65138 0.0
N359 N 0.20776 0.94378 0.73312 0.0
C360 C 0.05056 0.90445 0.67965 0.0
C361 C 0.15356 0.92904 0.72312 0.0
N362 N 0.03658 0.81925 0.69315 0.0
N363 N 0.1476 1.00758 0.74433 0.0
H364 H 0.23028 0.92051 0.73114 0.0
H365 H 0.23154 0.98037 0.73801 0.0
H366 H 0.12804 1.03331 0.74393 0.0
H367 H 0.17973 1.01541 0.76797 0.0
H368 H 0.99535 0.80845 0.68522 0.0
H369 H 0.04887 0.79108 0.70495 0.0
H370 H 0.98815 0.85835 0.63602 0.0
H371 H 0.98801 0.91761 0.64086 0.0
C372 C 0.85724 0.41539 0.95573 0.0
C373 C 0.81445 0.43497 0.9573 0.0
C374 C 0.86431 0.49401 1.01854 0.0
C375 C 0.90805 0.47583 1.0155 0.0
N376 N 0.94941 0.42321 0.97716 0.0
N377 N 0.77946 0.49631 0.98647 0.0
C378 C 0.90516 0.43731 0.98325 0.0
C379 C 0.81882 0.47545 0.98751 0.0
N380 N 0.85191 0.37545 0.92781 0.0
N381 N 0.86523 0.52752 0.05278 0.0
H382 H 0.74416 0.48219 0.96653 0.0
H383 H 0.78312 0.52939 1.00294 0.0
H384 H 0.89729 0.54112 0.07644 0.0
H385 H 0.83272 0.539 0.06044 0.0
H386 H 0.8772 0.35478 0.92972 0.0
H387 H 0.82044 0.36138 0.90371 0.0
H388 H 0.95299 0.40003 0.95038 0.0
H389 H 0.9848 0.43731 0.99693 0.0
C390 C 0.83764 0.66653 0.51048 0.0
C391 C 0.83838 0.69504 0.47083 0.0
C392 C 0.73908 0.67347 0.4764 0.0
C393 C 0.73901 0.64918 0.5188 0.0
N394 N 0.78901 0.62618 0.57866 0.0
N395 N 0.79064 0.7302 0.41886 0.0
C396 C 0.78853 0.64636 0.53632 0.0
C397 C 0.78926 0.6997 0.45462 0.0
N398 N 0.8839 0.65829 0.52311 0.0
N399 N 0.69087 0.66955 0.45563 0.0
H400 H 0.82593 0.74841 0.40072 0.0
H401 H 0.7577 0.74014 0.40919 0.0
H402 H 0.65341 0.64988 0.46974 0.0
H403 H 0.68772 0.68176 0.42239 0.0
H404 H 0.88527 0.63386 0.54848 0.0
H405 H 0.92048 0.67329 0.50565 0.0
H406 H 0.82426 0.62737 0.59599 0.0
H407 H 0.75411 0.61124 0.59835 0.0
C408 C 0.29839 0.32966 0.22378 0.0
C409 C 0.34448 0.36773 0.24176 0.0
C410 C 0.3032 0.4285 0.2212 0.0
C411 C 0.25481 0.39 0.20849 0.0
N412 N 0.20444 0.30424 0.19824 0.0
N413 N 0.39169 0.45291 0.25878 0.0
C414 C 0.25209 0.34065 0.20945 0.0
C415 C 0.34737 0.41714 0.24032 0.0
N416 N 0.29888 0.28297 0.22053 0.0
N417 N 0.30677 0.47582 0.2148 0.0
H418 H 0.42588 0.44604 0.27069 0.0
H419 H 0.39397 0.48892 0.26425 0.0
H420 H 0.27456 0.48543 0.20238 0.0
H421 H 0.34246 0.50552 0.21878 0.0
H422 H 0.26932 0.25453 0.20317 0.0
H423 H 0.33097 0.27287 0.23227 0.0
H424 H 0.19713 0.26745 0.20384 0.0
H425 H 0.17051 0.3109 0.18541 0.0
C426 C 0.64386 0.24249 0.91645 0.0
C427 C 0.64819 0.28658 0.9411 0.0
C428 C 0.61814 0.239 1.01222 0.0
C429 C 0.61 0.1943 0.98717 0.0
N430 N 0.60823 0.1537 0.91295 0.0
N431 N 0.6245 0.32384 1.00915 0.0
C432 C 0.62004 0.19616 0.93838 0.0
C433 C 0.63041 0.28366 0.9879 0.0
N434 N 0.66567 0.24483 0.87312 0.0
N435 N 0.6162 0.23962 0.05963 0.0
H436 H 0.63204 0.3567 0.9921 0.0
H437 H 0.60661 0.32297 1.04158 0.0
H438 H 0.60711 0.20842 0.07931 0.0
H439 H 0.628 0.27171 0.07973 0.0
H440 H 0.66995 0.21485 0.85548 0.0
H441 H 0.68331 0.27753 0.856 0.0
H442 H 0.60853 0.15237 0.87677 0.0
H443 H 0.59472 0.1194 0.92781 0.0
C444 C 0.03784 0.85914 0.49725 0.0
C445 C 0.99673 0.85142 0.46267 0.0
C446 C 0.99973 0.93661 0.47737 0.0
C447 C 0.03539 0.94215 0.51616 0.0
N448 N 0.08506 0.90562 0.56507 0.0
N449 N 0.93568 0.88237 0.42207 0.0
C450 C 0.05415 0.90278 0.52619 0.0
C451 C 0.97716 0.89023 0.45332 0.0
N452 N 0.06138 0.82442 0.50256 0.0
N453 N 0.98906 0.97646 0.46211 0.0
H454 H 0.92031 0.8503 0.40206 0.0
H455 H 0.91443 0.90632 0.41791 0.0
H456 H 1.00605 1.01104 0.47757 0.0
H457 H 0.96801 0.97652 0.43147 0.0
H458 H 0.09546 0.82941 0.52328 0.0
H459 H 0.04962 0.79193 0.48301 0.0
H460 H 0.09437 0.8763 0.57786 0.0
H461 H 0.09801 0.93621 0.5871 0.0
C462 C 0.32312 0.80543 0.63965 0.0
C463 C 0.27755 0.76185 0.63366 0.0
C464 C 0.33499 0.71451 0.65531 0.0
C465 C 0.3816 0.75655 0.65044 0.0
N466 N 0.42108 0.84268 0.63736 0.0
N467 N 0.24022 0.67373 0.63656 0.0
C468 C 0.376 0.80236 0.6428 0.0
C469 C 0.28337 0.71604 0.64233 0.0
N470 N 0.3159 0.84949 0.64429 0.0
N471 N 0.34009 0.67332 0.67313 0.0
H472 H 0.20099 0.67268 0.62917 0.0
H473 H 0.24394 0.63932 0.63639 0.0
H474 H 0.37741 0.67162 0.68372 0.0
H475 H 0.30708 0.64298 0.68197 0.0
H476 H 0.34737 0.88184 0.65238 0.0
H477 H 0.27774 0.85292 0.64657 0.0
H478 H 0.41947 0.87592 0.62629 0.0
H479 H 0.46034 0.84197 0.64112 0.0
C480 C 0.69974 0.81701 0.77092 0.0
C481 C 0.72486 0.83297 0.81473 0.0
C482 C 0.80465 0.88891 0.77706 0.0
C483 C 0.77563 0.87919 0.7343 0.0
N484 N 0.69663 0.83421 0.68896 0.0
N485 N 0.80002 0.8854 0.86084 0.0
C486 C 0.72369 0.84271 0.73057 0.0
C487 C 0.77745 0.86865 0.81817 0.0
N488 N 0.65328 0.77731 0.76816 0.0
N489 N 0.85804 0.91805 0.77841 0.0
H490 H 0.78225 0.87088 0.89206 0.0
H491 H 0.83475 0.91594 0.86567 0.0
H492 H 0.87915 0.93506 0.7493 0.0
H493 H 0.8829 0.92205 0.80751 0.0
H494 H 0.63591 0.76073 0.73689 0.0
H495 H 0.63479 0.75829 0.79743 0.0
H496 H 0.65619 0.81218 0.68496 0.0
H497 H 0.71432 0.85118 0.65854 0.0
C498 C 0.90017 0.19311 0.31663 0.0
C499 C 0.94089 0.23991 0.31527 0.0
C500 C 0.92276 0.24579 0.23257 0.0
C501 C 0.88237 0.19891 0.23404 0.0
N502 N 0.84096 0.12308 0.27349 0.0
N503 N 0.99888 0.30688 0.27159 0.0
C504 C 0.87397 0.17094 0.27482 0.0
C505 C 0.95483 0.265 0.27296 0.0
N506 N 0.88436 0.17103 0.35827 0.0
N507 N 0.92901 0.27237 0.19312 0.0
H508 H 0.02282 0.32171 0.30085 0.0
H509 H 1.01428 0.32472 0.24107 0.0
H510 H 0.90721 0.2585 0.1626 0.0
H511 H 0.95353 0.30883 0.19119 0.0
H512 H 0.85015 0.14008 0.36212 0.0
H513 H 0.90302 0.18539 0.38988 0.0
H514 H 0.83813 0.09933 0.30062 0.0
H515 H 0.81971 0.10569 0.24378 0.0
C516 C 0.461 0.62317 0.38694 0.0
C517 C 0.48848 0.67286 0.37527 0.0
C518 C 0.54145 0.68442 0.44864 0.0
C519 C 0.51614 0.63423 0.45932 0.0
N520 N 0.44393 0.55847 0.44361 0.0
N521 N 0.54038 0.75358 0.40334 0.0
C522 C 0.47361 0.60438 0.42976 0.0
C523 C 0.52404 0.70429 0.4089 0.0
N524 N 0.42283 0.59386 0.35687 0.0
N525 N 0.58442 0.71285 0.475 0.0
H526 H 0.52713 0.76925 0.37568 0.0
H527 H 0.56192 0.77894 0.42855 0.0
H528 H 0.59857 0.7003 0.50422 0.0
H529 H 0.60901 0.74771 0.46581 0.0
H530 H 0.40641 0.5561 0.35904 0.0
H531 H 0.40749 0.60758 0.32903 0.0
H532 H 0.40942 0.53565 0.42646 0.0
H533 H 0.45163 0.54415 0.47467 0.0
C534 C 0.10442 0.44908 0.87634 0.0
C535 C 0.14159 0.42351 0.88129 0.0
C536 C 0.15799 0.4552 0.96317 0.0
C537 C 0.11812 0.47823 0.9592 0.0
N538 N 0.0459 0.48813 0.91297 0.0
N539 N 0.19786 0.3967 0.9321 0.0
C540 C 0.0895 0.4728 0.91593 0.0
C541 C 0.16634 0.42486 0.92565 0.0
N542 N 0.08386 0.45164 0.83323 0.0
N543 N 0.19035 0.46454 1.00192 0.0
H544 H 0.20565 0.37519 0.90551 0.0
H545 H 0.21247 0.39139 0.96443 0.0
H546 H 0.1871 0.48765 1.02898 0.0
H547 H 0.22374 0.45334 1.00546 0.0
H548 H 0.06257 0.47482 0.82556 0.0
H549 H 0.09116 0.43282 0.80421 0.0
H550 H 1.01936 0.48011 0.88466 0.0
H551 H 0.03274 0.5048 0.94053 0.0
C552 C 0.57468 0.88001 0.92916 0.0
C553 C 0.6249 0.87565 0.94219 0.0
C554 C 0.64174 0.94467 0.9967 0.0
C555 C 0.59497 0.9532 0.97961 0.0
N556 N 0.52136 0.93315 0.92378 0.0
N557 N 0.71249 0.9118 0.97969 0.0
C558 C 0.56241 0.92186 0.94431 0.0
C559 C 0.6603 0.91033 0.97336 0.0
N560 N 0.53853 0.84388 0.90286 0.0
N561 N 0.66682 0.96687 1.03693 0.0
H562 H 0.72865 0.88801 0.96278 0.0
H563 H 0.74138 0.93994 0.99816 0.0
H564 H 0.65281 0.98963 0.05761 0.0
H565 H 0.69759 0.95777 0.05293 0.0
H566 H 0.49903 0.84249 0.89614 0.0
H567 H 0.54659 0.81299 0.89109 0.0
H568 H 0.49952 0.91413 0.89502 0.0
H569 H 0.51251 0.96446 0.93251 0.0
C570 C 0.07691 0.21425 0.43779 0.0
C571 C 0.05783 0.25044 0.45668 0.0
C572 C 0.07267 0.22537 0.53445 0.0
C573 C 0.07278 0.1801 0.51489 0.0
N574 N 0.07843 0.1328 0.44594 0.0
N575 N 0.08278 0.30955 0.51915 0.0
C576 C 0.07704 0.17517 0.46598 0.0
C577 C 0.06881 0.26211 0.50437 0.0
N578 N 0.10147 0.22073 0.39557 0.0
N579 N 0.07632 0.23334 0.58139 0.0
H580 H 0.08687 0.33735 0.49563 0.0
H581 H 0.09617 0.32174 0.55274 0.0
H582 H 0.08497 0.20959 0.60398 0.0
H583 H 0.06952 0.26288 0.59778 0.0
H584 H 0.1206 0.19744 0.38203 0.0
H585 H 0.10812 0.25285 0.37738 0.0
H586 H 0.07672 0.12698 0.41 0.0
H587 H 0.07673 0.10229 0.46491 0.0
C588 C 0.27425 0.69711 0.18349 0.0
C589 C 0.31869 0.67985 0.18537 0.0
C590 C 0.26611 0.60815 0.13706 0.0
C591 C 0.22434 0.62839 0.131 0.0
N592 N 0.19195 0.69569 0.1444 0.0
N593 N 0.35971 0.62169 0.15918 0.0
C594 C 0.22962 0.67405 0.15282 0.0
C595 C 0.31526 0.63591 0.16103 0.0
N596 N 0.2735 0.73439 0.21281 0.0
N597 N 0.25872 0.56219 0.12012 0.0
H598 H 0.39608 0.64088 0.17621 0.0
H599 H 0.36202 0.59306 0.13807 0.0
H600 H 0.22491 0.54198 0.10031 0.0
H601 H 0.28434 0.54293 0.12802 0.0
H602 H 0.23988 0.74526 0.21702 0.0
H603 H 0.30453 0.75132 0.23666 0.0
H604 H 0.19701 0.73143 0.15463 0.0
H605 H 0.15745 0.67958 0.124 0.0
C606 C 0.35884 0.51867 0.69011 0.0
C607 C 0.34559 0.46945 0.70377 0.0
C608 C 0.41273 0.45902 0.6486 0.0
C609 C 0.42734 0.50876 0.63607 0.0
N610 N 0.40108 0.57992 0.63298 0.0
N611 N 0.34351 0.38887 0.68077 0.0
C612 C 0.39606 0.53663 0.65309 0.0
C613 C 0.3671 0.43828 0.67794 0.0
N614 N 0.33749 0.54898 0.71351 0.0
N615 N 0.44409 0.43219 0.63534 0.0
H616 H 0.30816 0.37262 0.69953 0.0
H617 H 0.35484 0.36442 0.65988 0.0
H618 H 0.47831 0.44567 0.61471 0.0
H619 H 0.4386 0.39768 0.64809 0.0
H620 H 0.3521 0.58665 0.70999 0.0
H621 H 0.30713 0.53682 0.73827 0.0
H622 H 0.37518 0.59928 0.64016 0.0
H623 H 0.42704 0.59346 0.60519 0.0
C624 C 0.75898 0.65553 0.9379 0.0
C625 C 0.74461 0.68938 0.96663 0.0
C626 C 0.83536 0.71729 1.00239 0.0
C627 C 0.85132 0.68715 0.97051 0.0
N628 N 0.83055 0.62895 0.90657 0.0
N629 N 0.76145 0.73619 1.03863 0.0
C630 C 0.81365 0.65648 0.93795 0.0
C631 C 0.78061 0.71548 1.00267 0.0
N632 N 0.71955 0.61999 0.9136 0.0
N633 N 0.87312 0.74892 1.03138 0.0
H634 H 0.72076 0.73291 1.04153 0.0
H635 H 0.78412 0.7517 0.06822 0.0
H636 H 0.91359 0.75102 1.03247 0.0
H637 H 0.86564 0.77593 1.05157 0.0
H638 H 0.72631 0.59183 0.89476 0.0
H639 H 0.67841 0.61472 0.91701 0.0
H640 H 0.80715 0.61 0.87853 0.0
H641 H 0.86981 0.62773 0.90656 0.0
C642 C 0.50923 0.84592 0.16097 0.0
C643 C 0.47091 0.83972 0.19719 0.0
C644 C 0.47347 0.92447 0.18589 0.0
C645 C 0.50668 0.9285 0.14599 0.0
N646 N 0.54925 0.88912 0.09163 0.0
N647 N 0.41242 0.87171 0.24159 0.0
C648 C 0.52318 0.8883 0.13281 0.0
C649 C 0.45211 0.87878 0.20906 0.0
N650 N 0.53248 0.81109 0.15347 0.0
N651 N 0.46379 0.96485 0.20269 0.0
H652 H 0.39751 0.83978 0.26046 0.0
H653 H 0.39199 0.89612 0.24787 0.0
H654 H 0.47913 0.99876 0.18714 0.0
H655 H 0.44476 0.96594 0.23422 0.0
H656 H 0.56482 0.81545 0.13104 0.0
H657 H 0.5227 0.77955 0.17299 0.0
H658 H 0.55718 0.8592 0.07734 0.0
H659 H 0.55834 0.91833 0.06934 0.0
C660 C 0.16221 0.24907 0.76741 0.0
C661 C 0.13059 0.28 0.76406 0.0
C662 C 0.06882 0.21927 0.70913 0.0
C663 C 0.10435 0.19146 0.70793 0.0
N664 N 0.18547 0.18034 0.73657 0.0
N665 N 0.05548 0.29601 0.72906 0.0
C666 C 0.15114 0.20656 0.73743 0.0
C667 C 0.08388 0.26501 0.73469 0.0
N668 N 0.20257 0.2602 0.80017 0.0
N669 N 1.02064 0.20239 0.68539 0.0
H670 H 0.06388 0.32851 0.74825 0.0
H671 H 0.02574 0.29113 0.70365 0.0
H672 H 1.00957 0.17163 0.66352 0.0
H673 H 0.99001 0.21723 0.68937 0.0
H674 H 0.22452 0.23766 0.80805 0.0
H675 H 0.21103 0.29051 0.82261 0.0
H676 H 0.22367 0.19218 0.75215 0.0
H677 H 0.1767 0.14718 0.71846 0.0
C678 C 0.86907 0.43547 0.45689 0.0
C679 C 0.86833 0.38654 0.45064 0.0
C680 C 0.77177 0.35625 0.47062 0.0
C681 C 0.77184 0.40457 0.47449 0.0
N682 N 0.81732 0.49027 0.4617 0.0
N683 N 0.81055 0.30364 0.43029 0.0
C684 C 0.81964 0.44432 0.46505 0.0
C685 C 0.81742 0.3476 0.4515 0.0
N686 N 0.91688 0.47375 0.45463 0.0
N687 N 0.72801 0.31832 0.48504 0.0
H688 H 0.83917 0.298 0.40831 0.0
H689 H 0.7731 0.27567 0.42773 0.0
H690 H 0.6936 0.32319 0.49927 0.0
H691 H 0.72836 0.2828 0.48706 0.0
H692 H 0.92117 0.50908 0.46575 0.0
H693 H 0.95306 0.4703 0.44315 0.0
H694 H 0.84912 0.51988 0.44961 0.0
H695 H 0.78195 0.49824 0.46724 0.0
loop_
_geom_bond_atom_site_label_1
_geom_bond_atom_site_label_2
_geom_bond_distance
_geom_bond_site_symmetry_2
_ccdc_geom_bond_type
H0 C7 0.929 . S
H1 C10 0.930 . S
H2 C12 0.929 . S
H3 C4 0.969 . S
C4 H3 0.969 . S
C4 O5 1.550 . S
C4 H6 0.973 . S
O5 C4 1.550 . S
O5 C11 1.412 . S
H6 C4 0.973 . S
C7 H0 0.929 . S
C7 C8 1.400 . S
C7 C9 1.364 . S
C8 C7 1.400 . S
C8 C12 1.377 . S
C9 C7 1.364 . S
C9 C10 1.374 . S
C10 H1 0.930 . S
C10 C9 1.374 . S
C10 C11 1.383 . S
C11 O5 1.412 . S
C11 C10 1.383 . S
C11 C12 1.394 . S
C12 H2 0.929 . S
C12 C8 1.377 . S
C12 C11 1.394 . S
H13 C20 0.929 . S
H14 C23 0.930 . S
H15 C25 0.929 . S
H16 C17 0.969 . S
C17 H16 0.969 . S
C17 O18 1.550 . S
C17 H19 0.973 . S
O18 C17 1.550 . S
O18 C24 1.412 . S
H19 C17 0.973 . S
C20 H13 0.929 . S
C20 C21 1.400 . S
C20 C22 1.364 . S
C21 C20 1.400 . S
C21 C25 1.377 . S
C22 C20 1.364 . S
C22 C23 1.374 . S
C23 H14 0.930 . S
C23 C22 1.374 . S
C23 C24 1.383 . S
C24 O18 1.412 . S
C24 C23 1.383 . S
C24 C25 1.394 . S
C25 H15 0.929 . S
C25 C21 1.377 . S
C25 C24 1.394 . S
H26 C33 0.929 . S
H27 C36 0.930 . S
H28 C38 0.929 . S
H29 C30 0.969 . S
C30 H29 0.969 . S
C30 O31 1.550 . S
C30 H32 0.973 . S
O31 C30 1.550 . S
O31 C37 1.412 . S
H32 C30 0.973 . S
C33 H26 0.929 . S
C33 C34 1.400 . S
C33 C35 1.364 . S
C34 C33 1.400 . S
C34 C38 1.377 . S
C35 C33 1.364 . S
C35 C36 1.374 . S
C36 H27 0.930 . S
C36 C35 1.374 . S
C36 C37 1.383 . S
C37 O31 1.412 . S
C37 C36 1.383 . S
C37 C38 1.394 . S
C38 H28 0.929 . S
C38 C34 1.377 . S
C38 C37 1.394 . S
H39 C46 0.929 . S
H40 C49 0.930 . S
H41 C51 0.929 . S
H42 C43 0.969 . S
C43 H42 0.969 . S
C43 O44 1.550 . S
C43 H45 0.973 . S
O44 C43 1.550 . S
O44 C50 1.412 . S
H45 C43 0.973 . S
C46 H39 0.929 . S
C46 C47 1.400 . S
C46 C48 1.364 . S
C47 C46 1.400 . S
C47 C51 1.377 . S
C48 C46 1.364 . S
C48 C49 1.374 . S
C49 H40 0.930 . S
C49 C48 1.374 . S
C49 C50 1.383 . S
C50 O44 1.412 . S
C50 C49 1.383 . S
C50 C51 1.394 . S
C51 H41 0.929 . S
C51 C47 1.377 . S
C51 C50 1.394 . S
H52 C59 0.929 . S
H53 C62 0.930 . S
H54 C64 0.929 . S
H55 C56 0.969 . S
C56 H55 0.969 . S
C56 O57 1.550 . S
C56 H58 0.973 . S
O57 C56 1.550 . S
O57 C63 1.412 . S
H58 C56 0.973 . S
C59 H52 0.929 . S
C59 C60 1.400 . S
C59 C61 1.364 . S
C60 C59 1.400 . S
C60 C64 1.377 . S
C61 C59 1.364 . S
C61 C62 1.374 . S
C62 H53 0.930 . S
C62 C61 1.374 . S
C62 C63 1.383 . S
C63 O57 1.412 . S
C63 C62 1.383 . S
C63 C64 1.394 . S
C64 H54 0.929 . S
C64 C60 1.377 . S
C64 C63 1.394 . S
H65 C72 0.929 . S
H66 C75 0.930 . S
H67 C77 0.931 . S
H68 C69 0.969 . S
C69 H68 0.969 . S
C69 O70 1.550 . S
C69 H71 0.973 . S
O70 C69 1.550 . S
O70 C76 1.412 . S
H71 C69 0.973 . S
C72 H65 0.929 . S
C72 C73 1.400 . S
C72 C74 1.364 . S
C73 C72 1.400 . S
C73 C77 1.377 . S
C74 C72 1.364 . S
C74 C75 1.374 . S
C75 H66 0.930 . S
C75 C74 1.374 . S
C75 C76 1.383 . S
C76 O70 1.412 . S
C76 C75 1.383 . S
C76 C77 1.394 . S
C77 H67 0.931 . S
C77 C73 1.377 . S
C77 C76 1.394 . S
H78 C85 0.929 . S
H79 C88 0.930 . S
H80 C90 0.929 . S
H81 C82 0.969 . S
C82 H81 0.969 . S
C82 O83 1.550 . S
C82 H84 0.973 . S
O83 C82 1.550 . S
O83 C89 1.412 . S
H84 C82 0.973 . S
C85 H78 0.929 . S
C85 C86 1.400 . S
C85 C87 1.364 . S
C86 C85 1.400 . S
C86 C90 1.377 . S
C87 C85 1.364 . S
C87 C88 1.374 . S
C88 H79 0.930 . S
C88 C87 1.374 . S
C88 C89 1.383 . S
C89 O83 1.412 . S
C89 C88 1.383 . S
C89 C90 1.394 . S
C90 H80 0.929 . S
C90 C86 1.377 . S
C90 C89 1.394 . S
H91 C98 0.929 . S
H92 C101 0.930 . S
H93 C103 0.929 . S
H94 C95 0.969 . S
C95 H94 0.969 . S
C95 O96 1.550 . S
C95 H97 0.973 . S
O96 C95 1.550 . S
O96 C102 1.412 . S
H97 C95 0.973 . S
C98 H91 0.929 . S
C98 C99 1.400 . S
C98 C100 1.364 . S
C99 C98 1.400 . S
C99 C103 1.377 . S
C100 C98 1.364 . S
C100 C101 1.374 . S
C101 H92 0.930 . S
C101 C100 1.374 . S
C101 C102 1.383 . S
C102 O96 1.412 . S
C102 C101 1.383 . S
C102 C103 1.394 . S
C103 H93 0.929 . S
C103 C99 1.377 . S
C103 C102 1.394 . S
Dy104 O107 2.307 1_545 S
Dy104 O109 2.395 . S
Dy104 O110 2.379 . S
Dy104 O112 2.339 1_545 S
Dy104 O114 2.298 . S
Dy104 O118 2.275 . S
Dy104 C126 2.738 . S
Dy105 O108 2.298 1_645 S
Dy105 O111 2.275 1_545 S
Dy105 O113 2.307 . S
Dy105 O115 2.395 1_545 S
Dy105 O116 2.379 1_545 S
Dy105 O119 2.339 1_655 S
Dy105 C135 2.738 1_545 S
C106 O118 1.254 . S
C106 O119 1.257 . S
O107 Dy104 2.307 1_565 S
O107 C117 1.266 . S
O108 Dy105 2.298 1_465 S
O108 C117 1.236 . S
O109 Dy104 2.395 . S
O109 C126 1.255 . S
O110 Dy104 2.379 . S
O110 C126 1.249 . S
O111 Dy105 2.275 1_565 S
O111 C127 1.254 . S
O112 Dy104 2.339 1_565 S
O112 C127 1.257 1_455 S
O113 Dy105 2.307 . S
O113 C128 1.266 . S
O114 Dy104 2.298 . S
O114 C128 1.236 1_455 S
O115 Dy105 2.395 1_565 S
O115 C135 1.255 . S
O116 Dy105 2.379 1_565 S
O116 C135 1.249 . S
C117 O107 1.266 . S
C117 O108 1.236 . S
O118 Dy104 2.275 . S
O118 C106 1.254 . S
O119 Dy105 2.339 1_455 S
O119 C106 1.257 . S
C120 C123 1.344 . S
C120 C124 1.328 . S
C120 C126 1.516 . S
C121 C122 1.304 . S
C121 C125 1.323 . S
C122 C121 1.304 . S
C122 C123 1.371 . S
C122 H136 0.930 . S
C123 C120 1.344 . S
C123 C122 1.371 . S
C123 H137 0.931 . S
C124 C120 1.328 . S
C124 C125 1.433 . S
C124 H138 0.931 . S
C125 C121 1.323 . S
C125 C124 1.433 . S
C125 H139 0.933 . S
C126 Dy104 2.738 . S
C126 O109 1.255 . S
C126 O110 1.249 . S
C126 C120 1.516 . S
C127 O111 1.254 . S
C127 O112 1.257 1_655 S
C128 O113 1.266 . S
C128 O114 1.236 1_655 S
C129 C132 1.344 . S
C129 C133 1.328 . S
C129 C135 1.516 . S
C130 C131 1.304 . S
C130 C134 1.323 . S
C131 C130 1.304 . S
C131 C132 1.371 . S
C131 H140 0.930 . S
C132 C129 1.344 . S
C132 C131 1.371 . S
C132 H141 0.931 . S
C133 C129 1.328 . S
C133 C134 1.433 . S
C133 H142 0.931 . S
C134 C130 1.323 . S
C134 C133 1.433 . S
C134 H143 0.933 . S
C135 Dy105 2.738 1_565 S
C135 O115 1.255 . S
C135 O116 1.249 . S
C135 C129 1.516 . S
H136 C122 0.930 . S
H137 C123 0.931 . S
H138 C124 0.931 . S
H139 C125 0.933 . S
H140 C131 0.930 . S
H141 C132 0.931 . S
H142 C133 0.931 . S
H143 C134 0.933 . S
Dy144 O147 2.307 1_556 S
Dy144 O149 2.395 1_545 S
Dy144 O150 2.379 1_545 S
Dy144 O152 2.339 . S
Dy144 O154 2.298 1_545 S
Dy144 O158 2.275 1_546 S
Dy144 C166 2.738 1_545 S
Dy145 O148 2.298 . S
Dy145 O151 2.275 1_554 S
Dy145 O153 2.307 1_544 S
Dy145 O155 2.395 . S
Dy145 O156 2.379 . S
Dy145 O159 2.339 1_545 S
Dy145 C175 2.738 . S
C146 O158 1.254 . S
C146 O159 1.257 . S
O147 Dy144 2.307 1_554 S
O147 C157 1.266 . S
O148 Dy145 2.298 . S
O148 C157 1.236 . S
O149 Dy144 2.395 1_565 S
O149 C166 1.255 . S
O150 Dy144 2.379 1_565 S
O150 C166 1.249 . S
O151 Dy145 2.275 1_556 S
O151 C167 1.254 . S
O152 Dy144 2.339 . S
O152 C167 1.257 . S
O153 Dy145 2.307 1_566 S
O153 C168 1.266 . S
O154 Dy144 2.298 1_565 S
O154 C168 1.236 . S
O155 Dy145 2.395 . S
O155 C175 1.255 . S
O156 Dy145 2.379 . S
O156 C175 1.249 . S
C157 O147 1.266 . S
C157 O148 1.236 . S
O158 Dy144 2.275 1_564 S
O158 C146 1.254 . S
O159 Dy145 2.339 1_565 S
O159 C146 1.257 . S
C160 C163 1.344 . S
C160 C164 1.328 . S
C160 C166 1.516 . S
C161 C162 1.304 . S
C161 C165 1.323 . S
C162 C161 1.304 . S
C162 C163 1.371 . S
C162 H176 0.930 . S
C163 C160 1.344 . S
C163 C162 1.371 . S
C163 H177 0.931 . S
C164 C160 1.328 . S
C164 C165 1.433 . S
C164 H178 0.931 . S
C165 C161 1.323 . S
C165 C164 1.433 . S
C165 H179 0.933 . S
C166 Dy144 2.738 1_565 S
C166 O149 1.255 . S
C166 O150 1.249 . S
C166 C160 1.516 . S
C167 O151 1.254 . S
C167 O152 1.257 . S
C168 O153 1.266 . S
C168 O154 1.236 . S
C169 C172 1.344 . S
C169 C173 1.328 . S
C169 C175 1.516 . S
C170 C171 1.304 . S
C170 C174 1.323 . S
C171 C170 1.304 . S
C171 C172 1.371 . S
C171 H180 0.930 . S
C172 C169 1.344 . S
C172 C171 1.371 . S
C172 H181 0.931 . S
C173 C169 1.328 . S
C173 C174 1.433 . S
C173 H182 0.931 . S
C174 C170 1.323 . S
C174 C173 1.433 . S
C174 H183 0.933 . S
C175 Dy145 2.738 . S
C175 O155 1.255 . S
C175 O156 1.249 . S
C175 C169 1.516 . S
H176 C162 0.930 . S
H177 C163 0.931 . S
H178 C164 0.931 . S
H179 C165 0.933 . S
H180 C171 0.930 . S
H181 C172 0.931 . S
H182 C173 0.931 . S
H183 C174 0.933 . S
Dy184 O187 2.307 . S
Dy184 O189 2.395 . S
Dy184 O190 2.379 . S
Dy184 O192 2.339 . S
Dy184 O194 2.298 . S
Dy184 O198 2.275 . S
Dy184 C206 2.738 . S
Dy185 O188 2.298 . S
Dy185 O191 2.275 . S
Dy185 O193 2.307 . S
Dy185 O195 2.395 . S
Dy185 O196 2.379 . S
Dy185 O199 2.339 . S
Dy185 C215 2.738 . S
C186 O198 1.254 . S
C186 O199 1.257 . S
O187 Dy184 2.307 . S
O187 C197 1.266 . S
O188 Dy185 2.298 . S
O188 C197 1.236 . S
O189 Dy184 2.395 . S
O189 C206 1.255 . S
O190 Dy184 2.379 . S
O190 C206 1.249 . S
O191 Dy185 2.275 . S
O191 C207 1.254 . S
O192 Dy184 2.339 . S
O192 C207 1.257 . S
O193 Dy185 2.307 . S
O193 C208 1.266 . S
O194 Dy184 2.298 . S
O194 C208 1.236 . S
O195 Dy185 2.395 . S
O195 C215 1.255 . S
O196 Dy185 2.379 . S
O196 C215 1.249 . S
C197 O187 1.266 . S
C197 O188 1.236 . S
O198 Dy184 2.275 . S
O198 C186 1.254 . S
O199 Dy185 2.339 . S
O199 C186 1.257 . S
C200 C203 1.344 . S
C200 C204 1.328 . S
C200 C206 1.516 . S
C201 C202 1.304 . S
C201 C205 1.323 . S
C202 C201 1.304 . S
C202 C203 1.371 . S
C202 H216 0.930 . S
C203 C200 1.344 . S
C203 C202 1.371 . S
C203 H217 0.931 . S
C204 C200 1.328 . S
C204 C205 1.433 . S
C204 H218 0.931 . S
C205 C201 1.323 . S
C205 C204 1.433 . S
C205 H219 0.933 . S
C206 Dy184 2.738 . S
C206 O189 1.255 . S
C206 O190 1.249 . S
C206 C200 1.516 . S
C207 O191 1.254 . S
C207 O192 1.257 . S
C208 O193 1.266 . S
C208 O194 1.236 . S
C209 C212 1.344 . S
C209 C213 1.328 . S
C209 C215 1.516 . S
C210 C211 1.304 . S
C210 C214 1.323 . S
C211 C210 1.304 . S
C211 C212 1.371 . S
C211 H220 0.930 . S
C212 C209 1.344 . S
C212 C211 1.371 . S
C212 H221 0.931 . S
C213 C209 1.328 . S
C213 C214 1.433 . S
C213 H222 0.931 . S
C214 C210 1.323 . S
C214 C213 1.433 . S
C214 H223 0.933 . S
C215 Dy185 2.738 . S
C215 O195 1.255 . S
C215 O196 1.249 . S
C215 C209 1.516 . S
H216 C202 0.930 . S
H217 C203 0.931 . S
H218 C204 0.931 . S
H219 C205 0.933 . S
H220 C211 0.930 . S
H221 C212 0.931 . S
H222 C213 0.931 . S
H223 C214 0.933 . S
Dy224 O227 2.307 . S
Dy224 O229 2.395 1_455 S
Dy224 O230 2.379 1_454 S
Dy224 O232 2.339 1_554 S
Dy224 O234 2.298 1_455 S
Dy224 O238 2.275 . S
Dy224 C246 2.738 1_454 S
Dy225 O228 2.298 . S
Dy225 O231 2.275 . S
Dy225 O233 2.307 1_455 S
Dy225 O235 2.395 . S
Dy225 O236 2.379 . S
Dy225 O239 2.339 1_455 S
Dy225 C255 2.738 . S
C226 O238 1.254 1_655 S
C226 O239 1.257 . S
O227 Dy224 2.307 . S
O227 C237 1.266 . S
O228 Dy225 2.298 . S
O228 C237 1.236 . S
O229 Dy224 2.395 1_655 S
O229 C246 1.255 1_554 S
O230 Dy224 2.379 1_656 S
O230 C246 1.249 . S
O231 Dy225 2.275 . S
O231 C247 1.254 1_554 S
O232 Dy224 2.339 1_556 S
O232 C247 1.257 . S
O233 Dy225 2.307 1_655 S
O233 C248 1.266 . S
O234 Dy224 2.298 1_655 S
O234 C248 1.236 . S
O235 Dy225 2.395 . S
O235 C255 1.255 . S
O236 Dy225 2.379 . S
O236 C255 1.249 . S
C237 O227 1.266 . S
C237 O228 1.236 . S
O238 Dy224 2.275 . S
O238 C226 1.254 1_455 S
O239 Dy225 2.339 1_655 S
O239 C226 1.257 . S
C240 C243 1.344 . S
C240 C244 1.328 . S
C240 C246 1.516 . S
C241 C242 1.304 . S
C241 C245 1.323 . S
C242 C241 1.304 . S
C242 C243 1.371 . S
C242 H256 0.930 . S
C243 C240 1.344 . S
C243 C242 1.371 . S
C243 H257 0.931 1_556 S
C244 C240 1.328 . S
C244 C245 1.433 . S
C244 H258 0.931 . S
C245 C241 1.323 . S
C245 C244 1.433 . S
C245 H259 0.933 . S
C246 Dy224 2.738 1_656 S
C246 O229 1.255 1_556 S
C246 O230 1.249 . S
C246 C240 1.516 . S
C247 O231 1.254 1_556 S
C247 O232 1.257 . S
C248 O233 1.266 . S
C248 O234 1.236 . S
C249 C252 1.344 . S
C249 C253 1.328 . S
C249 C255 1.516 . S
C250 C251 1.304 . S
C250 C254 1.323 . S
C251 C250 1.304 . S
C251 C252 1.371 . S
C251 H260 0.930 . S
C252 C249 1.344 . S
C252 C251 1.371 . S
C252 H261 0.931 . S
C253 C249 1.328 . S
C253 C254 1.433 . S
C253 H262 0.931 . S
C254 C250 1.323 . S
C254 C253 1.433 . S
C254 H263 0.933 . S
C255 Dy225 2.738 . S
C255 O235 1.255 . S
C255 O236 1.249 . S
C255 C249 1.516 . S
H256 C242 0.930 . S
H257 C243 0.931 1_554 S
H258 C244 0.931 . S
H259 C245 0.933 . S
H260 C251 0.930 . S
H261 C252 0.931 . S
H262 C253 0.931 . S
H263 C254 0.933 . S
C264 C265 1.363 . S
C264 C270 1.379 . S
C264 N272 1.356 . S
C265 C264 1.363 . S
C265 C271 1.363 . S
C266 C267 1.363 . S
C266 C271 1.379 . S
C266 N273 1.356 . S
C267 C266 1.363 . S
C267 C270 1.363 . S
N268 C270 1.356 . S
N268 H280 0.984 . S
N268 H281 0.985 . S
N269 C271 1.356 . S
N269 H274 0.984 . S
N269 H275 0.985 . S
C270 C264 1.379 . S
C270 C267 1.363 . S
C270 N268 1.356 . S
C271 C265 1.363 . S
C271 C266 1.379 . S
C271 N269 1.356 . S
N272 C264 1.356 . S
N272 H278 0.984 . S
N272 H279 0.984 . S
N273 C266 1.356 . S
N273 H276 0.984 . S
N273 H277 0.985 . S
H274 N269 0.984 . S
H275 N269 0.985 . S
H276 N273 0.984 . S
H277 N273 0.985 . S
H278 N272 0.984 . S
H279 N272 0.984 . S
H280 N268 0.984 . S
H281 N268 0.985 . S
C282 C283 1.363 . S
C282 C288 1.379 . S
C282 N290 1.356 . S
C283 C282 1.363 . S
C283 C289 1.363 . S
C284 C285 1.363 . S
C284 C289 1.379 . S
C284 N291 1.356 . S
C285 C284 1.363 . S
C285 C288 1.363 . S
N286 C288 1.356 . S
N286 H298 0.984 . S
N286 H299 0.985 . S
N287 C289 1.356 . S
N287 H292 0.984 . S
N287 H293 0.985 . S
C288 C282 1.379 . S
C288 C285 1.363 . S
C288 N286 1.356 . S
C289 C283 1.363 . S
C289 C284 1.379 . S
C289 N287 1.356 . S
N290 C282 1.356 . S
N290 H296 0.984 . S
N290 H297 0.984 . S
N291 C284 1.356 . S
N291 H294 0.984 . S
N291 H295 0.985 . S
H292 N287 0.984 . S
H293 N287 0.985 . S
H294 N291 0.984 . S
H295 N291 0.985 . S
H296 N290 0.984 . S
H297 N290 0.984 . S
H298 N286 0.984 . S
H299 N286 0.985 . S
C300 C301 1.363 . S
C300 C306 1.379 . S
C300 N308 1.356 . S
C301 C300 1.363 . S
C301 C307 1.363 . S
C302 C303 1.363 . S
C302 C307 1.379 . S
C302 N309 1.356 . S
C303 C302 1.363 . S
C303 C306 1.363 . S
N304 C306 1.356 . S
N304 H316 0.984 . S
N304 H317 0.985 . S
N305 C307 1.356 . S
N305 H310 0.984 . S
N305 H311 0.985 . S
C306 C300 1.379 . S
C306 C303 1.363 . S
C306 N304 1.356 . S
C307 C301 1.363 . S
C307 C302 1.379 . S
C307 N305 1.356 . S
N308 C300 1.356 . S
N308 H314 0.984 . S
N308 H315 0.984 . S
N309 C302 1.356 . S
N309 H312 0.984 . S
N309 H313 0.985 . S
H310 N305 0.984 . S
H311 N305 0.985 . S
H312 N309 0.984 . S
H313 N309 0.985 . S
H314 N308 0.984 . S
H315 N308 0.984 . S
H316 N304 0.984 . S
H317 N304 0.985 . S
C318 C319 1.363 . S
C318 C324 1.379 . S
C318 N326 1.356 . S
C319 C318 1.363 . S
C319 C325 1.363 . S
C320 C321 1.363 . S
C320 C325 1.379 . S
C320 N327 1.356 . S
C321 C320 1.363 . S
C321 C324 1.363 . S
N322 C324 1.356 . S
N322 H334 0.984 . S
N322 H335 0.985 . S
N323 C325 1.356 . S
N323 H328 0.984 . S
N323 H329 0.985 . S
C324 C318 1.379 . S
C324 C321 1.363 . S
C324 N322 1.356 . S
C325 C319 1.363 . S
C325 C320 1.379 . S
C325 N323 1.356 . S
N326 C318 1.356 . S
N326 H332 0.984 . S
N326 H333 0.984 . S
N327 C320 1.356 . S
N327 H330 0.984 . S
N327 H331 0.985 . S
H328 N323 0.984 . S
H329 N323 0.985 . S
H330 N327 0.984 . S
H331 N327 0.985 . S
H332 N326 0.984 . S
H333 N326 0.984 . S
H334 N322 0.984 . S
H335 N322 0.985 . S
C336 C337 1.363 . S
C336 C342 1.379 . S
C336 N344 1.356 . S
C337 C336 1.363 . S
C337 C343 1.363 . S
C338 C339 1.363 . S
C338 C343 1.379 . S
C338 N345 1.356 . S
C339 C338 1.363 . S
C339 C342 1.363 . S
N340 C342 1.356 . S
N340 H352 0.984 . S
N340 H353 0.985 . S
N341 C343 1.356 . S
N341 H346 0.984 . S
N341 H347 0.985 . S
C342 C336 1.379 . S
C342 C339 1.363 . S
C342 N340 1.356 . S
C343 C337 1.363 . S
C343 C338 1.379 . S
C343 N341 1.356 . S
N344 C336 1.356 . S
N344 H350 0.984 . S
N344 H351 0.984 . S
N345 C338 1.356 . S
N345 H348 0.984 . S
N345 H349 0.985 . S
H346 N341 0.984 . S
H347 N341 0.985 . S
H348 N345 0.984 . S
H349 N345 0.985 . S
H350 N344 0.984 . S
H351 N344 0.984 . S
H352 N340 0.984 . S
H353 N340 0.985 . S
C354 C355 1.363 . S
C354 C360 1.379 . S
C354 N362 1.356 . S
C355 C354 1.363 . S
C355 C361 1.363 . S
C356 C357 1.363 . S
C356 C361 1.379 . S
C356 N363 1.356 . S
C357 C356 1.363 . S
C357 C360 1.363 . S
N358 C360 1.356 1_655 S
N358 H370 0.984 . S
N358 H371 0.985 . S
N359 C361 1.356 . S
N359 H364 0.984 . S
N359 H365 0.985 . S
C360 C354 1.379 . S
C360 C357 1.363 . S
C360 N358 1.356 1_455 S
C361 C355 1.363 . S
C361 C356 1.379 . S
C361 N359 1.356 . S
N362 C354 1.356 . S
N362 H368 0.984 1_455 S
N362 H369 0.984 . S
N363 C356 1.356 . S
N363 H366 0.984 . S
N363 H367 0.985 . S
H364 N359 0.984 . S
H365 N359 0.985 . S
H366 N363 0.984 . S
H367 N363 0.985 . S
H368 N362 0.984 1_655 S
H369 N362 0.984 . S
H370 N358 0.984 . S
H371 N358 0.985 . S
C372 C373 1.363 . S
C372 C378 1.379 . S
C372 N380 1.356 . S
C373 C372 1.363 . S
C373 C379 1.363 . S
C374 C375 1.363 . S
C374 C379 1.379 . S
C374 N381 1.356 1_556 S
C375 C374 1.363 . S
C375 C378 1.363 . S
N376 C378 1.356 . S
N376 H388 0.984 . S
N376 H389 0.985 1_556 S
N377 C379 1.356 . S
N377 H382 0.984 . S
N377 H383 0.985 . S
C378 C372 1.379 . S
C378 C375 1.363 . S
C378 N376 1.356 . S
C379 C373 1.363 . S
C379 C374 1.379 . S
C379 N377 1.356 . S
N380 C372 1.356 . S
N380 H386 0.984 . S
N380 H387 0.984 . S
N381 C374 1.356 1_554 S
N381 H384 0.984 . S
N381 H385 0.985 . S
H382 N377 0.984 . S
H383 N377 0.985 . S
H384 N381 0.984 . S
H385 N381 0.985 . S
H386 N380 0.984 . S
H387 N380 0.984 . S
H388 N376 0.984 . S
H389 N376 0.985 1_554 S
C390 C391 1.363 . S
C390 C396 1.379 . S
C390 N398 1.356 . S
C391 C390 1.363 . S
C391 C397 1.363 . S
C392 C393 1.363 . S
C392 C397 1.379 . S
C392 N399 1.356 . S
C393 C392 1.363 . S
C393 C396 1.363 . S
N394 C396 1.356 . S
N394 H406 0.984 . S
N394 H407 0.985 . S
N395 C397 1.356 . S
N395 H400 0.984 . S
N395 H401 0.985 . S
C396 C390 1.379 . S
C396 C393 1.363 . S
C396 N394 1.356 . S
C397 C391 1.363 . S
C397 C392 1.379 . S
C397 N395 1.356 . S
N398 C390 1.356 . S
N398 H404 0.984 . S
N398 H405 0.984 . S
N399 C392 1.356 . S
N399 H402 0.984 . S
N399 H403 0.985 . S
H400 N395 0.984 . S
H401 N395 0.985 . S
H402 N399 0.984 . S
H403 N399 0.985 . S
H404 N398 0.984 . S
H405 N398 0.984 . S
H406 N394 0.984 . S
H407 N394 0.985 . S
C408 C409 1.363 . S
C408 C414 1.379 . S
C408 N416 1.356 . S
C409 C408 1.363 . S
C409 C415 1.363 . S
C410 C411 1.363 . S
C410 C415 1.379 . S
C410 N417 1.356 . S
C411 C410 1.363 . S
C411 C414 1.363 . S
N412 C414 1.356 . S
N412 H424 0.984 . S
N412 H425 0.985 . S
N413 C415 1.356 . S
N413 H418 0.984 . S
N413 H419 0.985 . S
C414 C408 1.379 . S
C414 C411 1.363 . S
C414 N412 1.356 . S
C415 C409 1.363 . S
C415 C410 1.379 . S
C415 N413 1.356 . S
N416 C408 1.356 . S
N416 H422 0.984 . S
N416 H423 0.984 . S
N417 C410 1.356 . S
N417 H420 0.984 . S
N417 H421 0.985 . S
H418 N413 0.984 . S
H419 N413 0.985 . S
H420 N417 0.984 . S
H421 N417 0.985 . S
H422 N416 0.984 . S
H423 N416 0.984 . S
H424 N412 0.984 . S
H425 N412 0.985 . S
C426 C427 1.363 . S
C426 C432 1.379 . S
C426 N434 1.356 . S
C427 C426 1.363 . S
C427 C433 1.363 . S
C428 C429 1.363 . S
C428 C433 1.379 . S
C428 N435 1.348 1_556 S
C429 C428 1.363 . S
C429 C432 1.363 . S
N430 C432 1.356 . S
N430 H442 0.984 . S
N430 H443 0.985 . S
N431 C433 1.356 . S
N431 H436 0.984 . S
N431 H437 0.985 . S
C432 C426 1.379 . S
C432 C429 1.363 . S
C432 N430 1.356 . S
C433 C427 1.363 . S
C433 C428 1.379 . S
C433 N431 1.356 . S
N434 C426 1.356 . S
N434 H440 0.984 . S
N434 H441 0.984 . S
N435 C428 1.348 1_554 S
N435 H438 0.986 . S
N435 H439 0.992 . S
H436 N431 0.984 . S
H437 N431 0.985 . S
H438 N435 0.986 . S
H439 N435 0.992 . S
H440 N434 0.984 . S
H441 N434 0.984 . S
H442 N430 0.984 . S
H443 N430 0.985 . S
C444 C445 1.363 . S
C444 C450 1.379 . S
C444 N452 1.356 . S
C445 C444 1.363 . S
C445 C451 1.363 . S
C446 C447 1.363 . S
C446 C451 1.379 . S
C446 N453 1.356 1_655 S
C447 C446 1.363 . S
C447 C450 1.363 . S
N448 C450 1.356 . S
N448 H460 0.984 . S
N448 H461 0.985 . S
N449 C451 1.358 . S
N449 H454 0.985 . S
N449 H455 0.982 1_655 S
C450 C444 1.379 . S
C450 C447 1.363 . S
C450 N448 1.356 . S
C451 C445 1.363 . S
C451 C446 1.379 . S
C451 N449 1.358 . S
N452 C444 1.356 . S
N452 H458 0.984 . S
N452 H459 0.984 . S
N453 C446 1.356 1_455 S
N453 H456 0.984 . S
N453 H457 0.985 . S
H454 N449 0.985 . S
H455 N449 0.982 1_455 S
H456 N453 0.984 . S
H457 N453 0.985 . S
H458 N452 0.984 . S
H459 N452 0.984 . S
H460 N448 0.984 . S
H461 N448 0.985 . S
C462 C463 1.363 . S
C462 C468 1.379 . S
C462 N470 1.356 . S
C463 C462 1.363 . S
C463 C469 1.363 . S
C464 C465 1.363 . S
C464 C469 1.379 . S
C464 N471 1.356 . S
C465 C464 1.363 . S
C465 C468 1.363 . S
N466 C468 1.356 . S
N466 H478 0.984 . S
N466 H479 0.985 . S
N467 C469 1.356 . S
N467 H472 0.984 . S
N467 H473 0.985 . S
C468 C462 1.379 . S
C468 C465 1.363 . S
C468 N466 1.356 . S
C469 C463 1.363 . S
C469 C464 1.379 . S
C469 N467 1.356 . S
N470 C462 1.356 . S
N470 H476 0.984 . S
N470 H477 0.984 . S
N471 C464 1.356 . S
N471 H474 0.984 . S
N471 H475 0.985 . S
H472 N467 0.984 . S
H473 N467 0.985 . S
H474 N471 0.984 . S
H475 N471 0.985 . S
H476 N470 0.984 . S
H477 N470 0.984 . S
H478 N466 0.984 . S
H479 N466 0.985 . S
C480 C481 1.363 . S
C480 C486 1.379 . S
C480 N488 1.356 . S
C481 C480 1.363 . S
C481 C487 1.363 . S
C482 C483 1.363 . S
C482 C487 1.379 . S
C482 N489 1.356 . S
C483 C482 1.363 . S
C483 C486 1.363 . S
N484 C486 1.356 . S
N484 H496 0.984 . S
N484 H497 0.985 . S
N485 C487 1.356 . S
N485 H490 0.984 . S
N485 H491 0.985 . S
C486 C480 1.379 . S
C486 C483 1.363 . S
C486 N484 1.356 . S
C487 C481 1.363 . S
C487 C482 1.379 . S
C487 N485 1.356 . S
N488 C480 1.356 . S
N488 H494 0.984 . S
N488 H495 0.984 . S
N489 C482 1.356 . S
N489 H492 0.984 . S
N489 H493 0.985 . S
H490 N485 0.984 . S
H491 N485 0.985 . S
H492 N489 0.984 . S
H493 N489 0.985 . S
H494 N488 0.984 . S
H495 N488 0.984 . S
H496 N484 0.984 . S
H497 N484 0.985 . S
C498 C499 1.363 . S
C498 C504 1.379 . S
C498 N506 1.356 . S
C499 C498 1.363 . S
C499 C505 1.363 . S
C500 C501 1.363 . S
C500 C505 1.379 . S
C500 N507 1.356 . S
C501 C500 1.363 . S
C501 C504 1.363 . S
N502 C504 1.356 . S
N502 H514 0.984 . S
N502 H515 0.985 . S
N503 C505 1.356 . S
N503 H508 0.984 . S
N503 H509 0.985 . S
C504 C498 1.379 . S
C504 C501 1.363 . S
C504 N502 1.356 . S
C505 C499 1.363 . S
C505 C500 1.379 . S
C505 N503 1.356 . S
N506 C498 1.356 . S
N506 H512 0.984 . S
N506 H513 0.984 . S
N507 C500 1.356 . S
N507 H510 0.984 . S
N507 H511 0.985 . S
H508 N503 0.984 . S
H509 N503 0.985 . S
H510 N507 0.984 . S
H511 N507 0.985 . S
H512 N506 0.984 . S
H513 N506 0.984 . S
H514 N502 0.984 . S
H515 N502 0.985 . S
C516 C517 1.363 . S
C516 C522 1.379 . S
C516 N524 1.356 . S
C517 C516 1.363 . S
C517 C523 1.363 . S
C518 C519 1.363 . S
C518 C523 1.379 . S
C518 N525 1.356 . S
C519 C518 1.363 . S
C519 C522 1.363 . S
N520 C522 1.356 . S
N520 H532 0.984 . S
N520 H533 0.985 . S
N521 C523 1.356 . S
N521 H526 0.984 . S
N521 H527 0.985 . S
C522 C516 1.379 . S
C522 C519 1.363 . S
C522 N520 1.356 . S
C523 C517 1.363 . S
C523 C518 1.379 . S
C523 N521 1.356 . S
N524 C516 1.356 . S
N524 H530 0.984 . S
N524 H531 0.984 . S
N525 C518 1.356 . S
N525 H528 0.984 . S
N525 H529 0.985 . S
H526 N521 0.984 . S
H527 N521 0.985 . S
H528 N525 0.984 . S
H529 N525 0.985 . S
H530 N524 0.984 . S
H531 N524 0.984 . S
H532 N520 0.984 . S
H533 N520 0.985 . S
C534 C535 1.363 . S
C534 C540 1.379 . S
C534 N542 1.356 . S
C535 C534 1.363 . S
C535 C541 1.363 . S
C536 C537 1.363 . S
C536 C541 1.379 . S
C536 N543 1.356 . S
C537 C536 1.363 . S
C537 C540 1.363 . S
N538 C540 1.356 . S
N538 H550 0.984 . S
N538 H551 0.985 . S
N539 C541 1.356 . S
N539 H544 0.984 . S
N539 H545 0.985 . S
C540 C534 1.379 . S
C540 C537 1.363 . S
C540 N538 1.356 . S
C541 C535 1.363 . S
C541 C536 1.379 . S
C541 N539 1.356 . S
N542 C534 1.356 . S
N542 H548 0.984 . S
N542 H549 0.984 . S
N543 C536 1.356 . S
N543 H546 0.984 . S
N543 H547 0.985 . S
H544 N539 0.984 . S
H545 N539 0.985 . S
H546 N543 0.984 . S
H547 N543 0.985 . S
H548 N542 0.984 . S
H549 N542 0.984 . S
H550 N538 0.984 . S
H551 N538 0.985 . S
C552 C553 1.363 . S
C552 C558 1.379 . S
C552 N560 1.356 . S
C553 C552 1.363 . S
C553 C559 1.363 . S
C554 C555 1.363 . S
C554 C559 1.379 . S
C554 N561 1.356 . S
C555 C554 1.363 . S
C555 C558 1.363 . S
N556 C558 1.356 . S
N556 H568 0.984 . S
N556 H569 0.985 . S
N557 C559 1.356 . S
N557 H562 0.984 . S
N557 H563 0.985 . S
C558 C552 1.379 . S
C558 C555 1.363 . S
C558 N556 1.356 . S
C559 C553 1.363 . S
C559 C554 1.379 . S
C559 N557 1.356 . S
N560 C552 1.356 . S
N560 H566 0.984 . S
N560 H567 0.984 . S
N561 C554 1.356 . S
N561 H564 0.984 . S
N561 H565 0.985 1_556 S
H562 N557 0.984 . S
H563 N557 0.985 . S
H564 N561 0.984 . S
H565 N561 0.985 1_554 S
H566 N560 0.984 . S
H567 N560 0.984 . S
H568 N556 0.984 . S
H569 N556 0.985 . S
C570 C571 1.363 1_655 S
C570 C576 1.379 . S
C570 N578 1.356 . S
C571 C570 1.363 1_455 S
C571 C577 1.363 . S
C572 C573 1.363 1_455 S
C572 C577 1.379 . S
C572 N579 1.356 . S
C573 C572 1.363 1_655 S
C573 C576 1.363 . S
N574 C576 1.356 . S
N574 H586 0.984 . S
N574 H587 0.985 . S
N575 C577 1.356 . S
N575 H580 0.984 . S
N575 H581 0.985 . S
C576 C570 1.379 . S
C576 C573 1.363 . S
C576 N574 1.356 . S
C577 C571 1.363 . S
C577 C572 1.379 . S
C577 N575 1.356 . S
N578 C570 1.356 . S
N578 H584 0.984 . S
N578 H585 0.984 . S
N579 C572 1.356 . S
N579 H582 0.984 . S
N579 H583 0.985 . S
H580 N575 0.984 . S
H581 N575 0.985 . S
H582 N579 0.984 . S
H583 N579 0.985 . S
H584 N578 0.984 . S
H585 N578 0.984 . S
H586 N574 0.984 . S
H587 N574 0.985 . S
C588 C589 1.363 . S
C588 C594 1.379 . S
C588 N596 1.356 . S
C589 C588 1.363 . S
C589 C595 1.363 . S
C590 C591 1.363 . S
C590 C595 1.379 . S
C590 N597 1.356 . S
C591 C590 1.363 . S
C591 C594 1.363 . S
N592 C594 1.356 . S
N592 H604 0.984 . S
N592 H605 0.985 . S
N593 C595 1.356 . S
N593 H598 0.984 . S
N593 H599 0.985 . S
C594 C588 1.379 . S
C594 C591 1.363 . S
C594 N592 1.356 . S
C595 C589 1.363 . S
C595 C590 1.379 . S
C595 N593 1.356 . S
N596 C588 1.356 . S
N596 H602 0.984 . S
N596 H603 0.984 . S
N597 C590 1.356 . S
N597 H600 0.984 . S
N597 H601 0.985 . S
H598 N593 0.984 . S
H599 N593 0.985 . S
H600 N597 0.984 . S
H601 N597 0.985 . S
H602 N596 0.984 . S
H603 N596 0.984 . S
H604 N592 0.984 . S
H605 N592 0.985 . S
C606 C607 1.363 . S
C606 C612 1.379 . S
C606 N614 1.356 . S
C607 C606 1.363 . S
C607 C613 1.363 . S
C608 C609 1.363 . S
C608 C613 1.379 . S
C608 N615 1.356 . S
C609 C608 1.363 . S
C609 C612 1.363 . S
N610 C612 1.356 . S
N610 H622 0.984 . S
N610 H623 0.985 . S
N611 C613 1.356 . S
N611 H616 0.984 . S
N611 H617 0.985 . S
C612 C606 1.379 . S
C612 C609 1.363 . S
C612 N610 1.356 . S
C613 C607 1.363 . S
C613 C608 1.379 . S
C613 N611 1.356 . S
N614 C606 1.356 . S
N614 H620 0.984 . S
N614 H621 0.984 . S
N615 C608 1.356 . S
N615 H618 0.984 . S
N615 H619 0.985 . S
H616 N611 0.984 . S
H617 N611 0.985 . S
H618 N615 0.984 . S
H619 N615 0.985 . S
H620 N614 0.984 . S
H621 N614 0.984 . S
H622 N610 0.984 . S
H623 N610 0.985 . S
C624 C625 1.363 . S
C624 C630 1.379 . S
C624 N632 1.356 . S
C625 C624 1.363 . S
C625 C631 1.363 . S
C626 C627 1.363 . S
C626 C631 1.379 . S
C626 N633 1.356 . S
C627 C626 1.363 . S
C627 C630 1.363 . S
N628 C630 1.356 . S
N628 H640 0.984 . S
N628 H641 0.985 . S
N629 C631 1.356 . S
N629 H634 0.984 . S
N629 H635 0.985 . S
C630 C624 1.379 . S
C630 C627 1.363 . S
C630 N628 1.356 . S
C631 C625 1.363 . S
C631 C626 1.379 . S
C631 N629 1.356 . S
N632 C624 1.356 . S
N632 H638 0.984 . S
N632 H639 0.984 . S
N633 C626 1.356 . S
N633 H636 0.984 . S
N633 H637 0.985 . S
H634 N629 0.984 . S
H635 N629 0.985 . S
H636 N633 0.984 . S
H637 N633 0.985 . S
H638 N632 0.984 . S
H639 N632 0.984 . S
H640 N628 0.984 . S
H641 N628 0.985 . S
C642 C643 1.363 . S
C642 C648 1.379 . S
C642 N650 1.356 . S
C643 C642 1.363 . S
C643 C649 1.363 . S
C644 C645 1.363 . S
C644 C649 1.379 . S
C644 N651 1.356 . S
C645 C644 1.363 . S
C645 C648 1.363 . S
N646 C648 1.356 . S
N646 H658 0.984 . S
N646 H659 0.985 . S
N647 C649 1.356 . S
N647 H652 0.984 . S
N647 H653 0.985 . S
C648 C642 1.379 . S
C648 C645 1.363 . S
C648 N646 1.356 . S
C649 C643 1.363 . S
C649 C644 1.379 . S
C649 N647 1.356 . S
N650 C642 1.356 . S
N650 H656 0.984 . S
N650 H657 0.984 . S
N651 C644 1.356 . S
N651 H654 0.984 . S
N651 H655 0.985 . S
H652 N647 0.984 . S
H653 N647 0.985 . S
H654 N651 0.984 . S
H655 N651 0.985 . S
H656 N650 0.984 . S
H657 N650 0.984 . S
H658 N646 0.984 . S
H659 N646 0.985 . S
C660 C661 1.363 . S
C660 C666 1.379 . S
C660 N668 1.356 . S
C661 C660 1.363 . S
C661 C667 1.363 . S
C662 C663 1.363 . S
C662 C667 1.379 . S
C662 N669 1.356 1_455 S
C663 C662 1.363 . S
C663 C666 1.363 . S
N664 C666 1.356 . S
N664 H676 0.984 . S
N664 H677 0.985 . S
N665 C667 1.356 . S
N665 H670 0.984 . S
N665 H671 0.985 1_455 S
C666 C660 1.379 . S
C666 C663 1.363 . S
C666 N664 1.356 . S
C667 C661 1.363 . S
C667 C662 1.379 . S
C667 N665 1.356 . S
N668 C660 1.356 . S
N668 H674 0.984 . S
N668 H675 0.984 . S
N669 C662 1.356 1_655 S
N669 H672 0.984 1_655 S
N669 H673 0.985 . S
H670 N665 0.984 . S
H671 N665 0.985 1_655 S
H672 N669 0.984 1_455 S
H673 N669 0.985 . S
H674 N668 0.984 . S
H675 N668 0.984 . S
H676 N664 0.984 . S
H677 N664 0.985 . S
C678 C679 1.363 . S
C678 C684 1.379 . S
C678 N686 1.356 . S
C679 C678 1.363 . S
C679 C685 1.363 . S
C680 C681 1.363 . S
C680 C685 1.379 . S
C680 N687 1.356 . S
C681 C680 1.363 . S
C681 C684 1.363 . S
N682 C684 1.356 . S
N682 H694 0.984 . S
N682 H695 0.985 . S
N683 C685 1.356 . S
N683 H688 0.984 . S
N683 H689 0.985 . S
C684 C678 1.379 . S
C684 C681 1.363 . S
C684 N682 1.356 . S
C685 C679 1.363 . S
C685 C680 1.379 . S
C685 N683 1.356 . S
N686 C678 1.356 . S
N686 H692 0.984 . S
N686 H693 0.984 . S
N687 C680 1.356 . S
N687 H690 0.984 . S
N687 H691 0.985 . S
H688 N683 0.984 . S
H689 N683 0.985 . S
H690 N687 0.984 . S
H691 N687 0.985 . S
H692 N686 0.984 . S
H693 N686 0.984 . S
H694 N682 0.984 . S
H695 N682 0.985 . S
C265 C9 1.322 . S
C267 C121 1.418 . S
C283 C21 1.126 . S
C285 C161 1.203 . S
C303 C186 2.261 . S
C301 C30 2.306 . S
C319 C43 2.297 . S
C321 C226 2.402 . S
C339 C157 1.707 . S
C337 C4 1.416 . S
C357 C117 2.127 . S
C355 C22 2.018 . S
C375 C248 1.551 1_556 S
C373 C34 1.621 . S
C393 C208 1.713 . S
C391 C48 1.736 . S
C409 C8 1.538 . S
C411 C250 1.581 . S
C429 C167 2.177 . S
C427 C35 2.205 . S
C445 C47 2.444 . S
C447 C127 2.381 . S
C463 C17 1.490 . S
C465 C210 1.510 . S
C483 C130 1.010 . S
C481 C60 0.989 . S
C499 C74 1.097 . S
C501 C170 1.118 . S
C517 C82 2.000 . S
C519 C207 2.030 . S
C535 C100 2.910 . S
C537 C247 2.828 . S
C553 C61 1.837 . S
C555 C168 1.963 . S
C573 C128 1.625 . S
C571 C73 1.497 1_455 S
C591 C237 1.949 . S
C589 C87 1.982 . S
C609 C197 1.643 . S
C607 C95 1.714 . S
C625 C56 1.412 . S
C627 C241 1.353 . S
C645 C146 2.361 . S
C643 C86 2.394 . S
C663 C106 2.377 . S
C661 C99 2.415 . S
C679 C69 1.096 . S
C681 C201 1.329 . S
