# Generated by pormake.
# Topology zzz, (3,6)-cn, num edge types: 1
# Building blocks:
#     Node 0, Type 0, BuildingBlock: KAKCAD_clean_linker_0, # of connection points: 3
#     Node 1, Type 0, BuildingBlock: KAKCAD_clean_linker_0, # of connection points: 3
#     Node 2, Type 0, BuildingBlock: KAKCAD_clean_linker_0, # of connection points: 3
#     Node 3, Type 0, BuildingBlock: KAKCAD_clean_linker_0, # of connection points: 3
#     Node 4, Type 0, BuildingBlock: KAKCAD_clean_linker_0, # of connection points: 3
#     Node 5, Type 0, BuildingBlock: KAKCAD_clean_linker_0, # of connection points: 3
#     Node 6, Type 0, BuildingBlock: KAKCAD_clean_linker_0, # of connection points: 3
#     Node 7, Type 0, BuildingBlock: KAKCAD_clean_linker_0, # of connection points: 3
#     Node 8, Type 1, BuildingBlock: HISSIN_clean_sbu_0, # of connection points: 6
#     Node 9, Type 1, BuildingBlock: HISSIN_clean_sbu_0, # of connection points: 6
#     Node 10, Type 1, BuildingBlock: HISSIN_clean_sbu_0, # of connection points: 6
#     Node 11, Type 1, BuildingBlock: HISSIN_clean_sbu_0, # of connection points: 6
#     Edge 12, Type (0, 1), BuildingBlock: AJUNOK_clean_linker_0, # of connection points: 2
#     Edge 13, Type (0, 1), BuildingBlock: AJUNOK_clean_linker_0, # of connection points: 2
#     Edge 14, Type (0, 1), BuildingBlock: AJUNOK_clean_linker_0, # of connection points: 2
#     Edge 15, Type (0, 1), BuildingBlock: AJUNOK_clean_linker_0, # of connection points: 2
#     Edge 16, Type (0, 1), BuildingBlock: AJUNOK_clean_linker_0, # of connection points: 2
#     Edge 17, Type (0, 1), BuildingBlock: AJUNOK_clean_linker_0, # of connection points: 2
#     Edge 18, Type (0, 1), BuildingBlock: AJUNOK_clean_linker_0, # of connection points: 2
#     Edge 19, Type (0, 1), BuildingBlock: AJUNOK_clean_linker_0, # of connection points: 2
#     Edge 20, Type (0, 1), BuildingBlock: AJUNOK_clean_linker_0, # of connection points: 2
#     Edge 21, Type (0, 1), BuildingBlock: AJUNOK_clean_linker_0, # of connection points: 2
#     Edge 22, Type (0, 1), BuildingBlock: AJUNOK_clean_linker_0, # of connection points: 2
#     Edge 23, Type (0, 1), BuildingBlock: AJUNOK_clean_linker_0, # of connection points: 2
#     Edge 24, Type (0, 1), BuildingBlock: AJUNOK_clean_linker_0, # of connection points: 2
#     Edge 25, Type (0, 1), BuildingBlock: AJUNOK_clean_linker_0, # of connection points: 2
#     Edge 26, Type (0, 1), BuildingBlock: AJUNOK_clean_linker_0, # of connection points: 2
#     Edge 27, Type (0, 1), BuildingBlock: AJUNOK_clean_linker_0, # of connection points: 2
#     Edge 28, Type (0, 1), BuildingBlock: AJUNOK_clean_linker_0, # of connection points: 2
#     Edge 29, Type (0, 1), BuildingBlock: AJUNOK_clean_linker_0, # of connection points: 2
#     Edge 30, Type (0, 1), BuildingBlock: AJUNOK_clean_linker_0, # of connection points: 2
#     Edge 31, Type (0, 1), BuildingBlock: AJUNOK_clean_linker_0, # of connection points: 2
#     Edge 32, Type (0, 1), BuildingBlock: AJUNOK_clean_linker_0, # of connection points: 2
#     Edge 33, Type (0, 1), BuildingBlock: AJUNOK_clean_linker_0, # of connection points: 2
#     Edge 34, Type (0, 1), BuildingBlock: AJUNOK_clean_linker_0, # of connection points: 2
#     Edge 35, Type (0, 1), BuildingBlock: AJUNOK_clean_linker_0, # of connection points: 2
# Relax obj value: 0.447
# Max RMSD: 0.238
# Mean RMSD: 0.194
data_MOF--net-zzz--node1-HISSIN_clean_sbu_0--node2-KAKCAD_clean_linker_0--edge1-AJUNOK_clean_linker_0
_symmetry_space_group_name_H-M    P1
_symmetry_Int_Tables_number       1
_symmetry_cell_setting            triclinic
loop_
_symmetry_equiv_pos_as_xyz
'x, y, z'
_cell_length_a     44.467441
_cell_length_b     44.509107
_cell_length_c     17.249126
_cell_angle_alpha  90.020193
_cell_angle_beta   91.943554
_cell_angle_gamma 91.280484
loop_
_atom_site_label
_atom_site_type_symbol
_atom_site_fract_x
_atom_site_fract_y
_atom_site_fract_z
_atom_type_partial_charge
C0 C 0.77391 0.42903 1.00439 0.0
C1 C 0.79889 0.41191 0.02654 0.0
C2 C 0.75894 0.44546 0.05939 0.0
C3 C 0.76773 0.44418 0.13866 0.0
C4 C 0.78976 0.42345 0.1616 0.0
C5 C 0.80558 0.40797 0.10614 0.0
C6 C 0.75705 0.46713 0.19425 0.0
C7 C 0.72935 0.48084 0.18096 0.0
C8 C 0.7219 0.50704 0.22037 0.0
C9 C 0.74171 0.51838 0.28038 0.0
C10 C 0.76853 0.50292 0.30042 0.0
C11 C 0.77614 0.47813 0.25488 0.0
C12 C 0.79019 0.51197 0.3658 0.0
C13 C 0.80185 0.54148 0.37418 0.0
C14 C 0.80273 0.48952 0.41383 0.0
C15 C 0.82751 0.49574 0.46415 0.0
C16 C 0.84065 0.52475 0.46902 0.0
C17 C 0.69461 0.52258 0.1894 0.0
C18 C 0.69808 0.54689 0.13819 0.0
C19 C 0.6666 0.50716 0.18896 0.0
C20 C 0.64371 0.514 0.13408 0.0
C21 C 0.64825 0.53637 0.07771 0.0
C22 C 0.67515 0.55378 0.08322 0.0
C23 C 0.82668 0.54781 0.42534 0.0
H24 H 0.76775 0.43205 0.94363 0.0
H25 H 0.74222 0.46096 0.03804 0.0
H26 H 0.79636 0.42066 0.22209 0.0
H27 H 0.82476 0.39514 0.12586 0.0
H28 H 0.71389 0.47213 0.13609 0.0
H29 H 0.79799 0.46835 0.26493 0.0
H30 H 0.73612 0.53852 0.31152 0.0
H31 H 0.79283 0.55935 0.3384 0.0
H32 H 0.79419 0.46656 0.40977 0.0
H33 H 0.8373 0.47731 0.49646 0.0
H34 H 0.71954 0.5588 0.13585 0.0
H35 H 0.66344 0.48789 0.22644 0.0
H36 H 0.83537 0.57069 0.42916 0.0
H37 H 0.67916 0.57173 0.04225 0.0
H38 H 0.62336 0.50015 0.13206 0.0
C39 C 0.90992 0.7958 1.01011 0.0
C40 C 0.90923 0.82627 0.03052 0.0
C41 C 0.91242 0.77423 0.06849 0.0
C42 C 0.91329 0.78326 0.14716 0.0
C43 C 0.90115 0.81154 0.16328 0.0
C44 C 0.90027 0.83349 0.10541 0.0
C45 C 0.93575 0.76953 0.20358 0.0
C46 C 0.9496 0.74244 0.1857 0.0
C47 C 0.9781 0.73531 0.21688 0.0
C48 C 0.99181 0.75448 0.27508 0.0
C49 C 0.97618 0.77992 0.30203 0.0
C50 C 0.94864 0.78695 0.26496 0.0
C51 C 0.98746 0.80157 0.36479 0.0
C52 C 0.96842 0.80807 0.42619 0.0
C53 C 0.01243 0.82108 0.35445 0.0
C54 C 0.01716 0.84703 0.40149 0.0
C55 C 0.99679 0.85449 0.45931 0.0
C56 C 0.993 0.70935 0.17877 0.0
C57 C 0.98174 0.67985 0.18967 0.0
C58 C 1.01085 0.71466 0.11401 0.0
C59 C 0.01618 0.69158 0.06026 0.0
C60 C 1.00391 0.66231 0.06943 0.0
C61 C 0.98726 0.65671 0.13635 0.0
C62 C 0.97294 0.83398 0.47233 0.0
H63 H 0.91467 0.78933 0.95126 0.0
H64 H 0.91839 0.75198 0.05057 0.0
H65 H 0.89709 0.81847 0.22201 0.0
H66 H 0.89756 0.85662 0.12272 0.0
H67 H 0.93948 0.7275 0.14229 0.0
H68 H 0.9386 0.80776 0.28158 0.0
H69 H 0.01391 0.74951 0.29936 0.0
H70 H 0.94873 0.79392 0.4355 0.0
H71 H 0.02717 0.81738 0.30683 0.0
H72 H 0.03586 0.86215 0.38972 0.0
H73 H 0.96686 0.67514 0.23682 0.0
H74 H 0.01891 0.73726 0.10184 0.0
H75 H 0.95709 0.83845 0.51701 0.0
H76 H 0.97684 0.63482 0.14521 0.0
H77 H 0.02914 0.69695 1.00985 0.0
C78 C 0.73267 0.90941 0.04192 0.0
C79 C 0.70348 0.91203 0.0694 0.0
C80 C 0.75723 0.9129 0.094 0.0
C81 C 0.75209 0.91886 0.17291 0.0
C82 C 0.72415 0.90843 0.20027 0.0
C83 C 0.69932 0.90646 0.14841 0.0
C84 C 0.76756 0.94592 0.21109 0.0
C85 C 0.79256 0.95993 0.17706 0.0
C86 C 0.79917 0.99078 0.18633 0.0
C87 C 0.7816 1.00757 0.23872 0.0
C88 C 0.75845 0.99284 0.28155 0.0
C89 C 0.75252 0.96223 0.26758 0.0
C90 C 0.73679 1.00775 0.33511 0.0
C91 C 0.73603 0.99883 0.41368 0.0
C92 C 0.71128 0.02245 0.30437 0.0
C93 C 0.68558 0.02678 0.34927 0.0
C94 C 0.68414 0.01625 0.42661 0.0
C95 C 0.822 1.00397 0.13142 0.0
C96 C 0.85169 0.01186 0.15613 0.0
C97 C 0.81622 1.00139 0.05065 0.0
C98 C 0.83914 1.00563 0.99683 0.0
C99 C 0.86908 0.01294 0.02095 0.0
C100 C 0.87476 0.01634 0.10194 0.0
C101 C 0.71042 1.00321 0.45862 0.0
H102 H 0.73653 0.91126 0.98039 0.0
H103 H 0.77903 0.91629 0.06934 0.0
H104 H 0.71998 0.90753 0.26163 0.0
H105 H 0.677 0.90603 0.17171 0.0
H106 H 0.80592 0.94747 0.1375 0.0
H107 H 0.73377 0.95214 0.29697 0.0
H108 H 0.7855 0.03155 0.24502 0.0
H109 H 0.75464 0.98649 0.43904 0.0
H110 H 0.71035 0.02881 0.24374 0.0
H111 H 0.66638 0.03764 0.32225 0.0
H112 H 0.85745 0.01309 0.21756 0.0
H113 H 0.79401 0.99431 0.02906 0.0
H114 H 0.71062 0.99468 0.5174 0.0
H115 H 0.8973 0.0219 0.12384 0.0
H116 H 0.83347 1.00162 0.93617 0.0
C117 C 0.48947 0.7142 0.44364 0.0
C118 C 0.51265 0.69409 0.42975 0.0
C119 C 0.48363 0.73825 0.39291 0.0
C120 C 0.50076 0.74317 0.3265 0.0
C121 C 0.52542 0.72455 0.31571 0.0
C122 C 0.53135 0.70042 0.36676 0.0
C123 C 0.48838 0.76248 0.26175 0.0
C124 C 0.50527 0.78497 0.22196 0.0
C125 C 0.49179 0.80079 0.15832 0.0
C126 C 0.46169 0.79393 0.13661 0.0
C127 C 0.4456 0.77056 0.17149 0.0
C128 C 0.45879 0.75565 0.23504 0.0
C129 C 0.41789 0.75773 0.13227 0.0
C130 C 0.39452 0.74467 0.17478 0.0
C131 C 0.41727 0.75392 0.05136 0.0
C132 C 0.39625 0.7345 0.01529 0.0
C133 C 0.37534 0.71828 0.05912 0.0
C134 C 0.50793 0.82314 0.10805 0.0
C135 C 0.52053 0.8502 0.13773 0.0
C136 C 0.50518 0.81995 0.02672 0.0
C137 C 0.51204 0.84383 0.97689 0.0
C138 C 0.52246 0.87183 1.00617 0.0
C139 C 0.52798 0.87411 0.08742 0.0
C140 C 0.37322 0.72525 0.13829 0.0
H141 H 0.4746 0.71034 0.49123 0.0
H142 H 0.46433 0.752 0.40296 0.0
H143 H 0.53892 0.72737 0.26502 0.0
H144 H 0.55 0.68606 0.35517 0.0
H145 H 0.52855 0.78965 0.23921 0.0
H146 H 0.44672 0.7369 0.26063 0.0
H147 H 0.45107 0.80594 0.0887 0.0
H148 H 0.39393 0.74782 0.23697 0.0
H149 H 0.43489 0.76342 0.01644 0.0
H150 H 0.39871 0.72978 0.95424 0.0
H151 H 0.523 0.85352 0.19983 0.0
H152 H 0.4957 0.79938 1.00153 0.0
H153 H 0.35673 0.71382 0.1732 0.0
H154 H 0.53724 0.8947 0.1127 0.0
H155 H 0.50746 0.84072 0.91534 0.0
C156 C 0.23665 0.47046 0.38326 0.0
C157 C 0.20709 0.46214 0.3608 0.0
C158 C 0.26017 0.46286 0.33641 0.0
C159 C 0.2541 0.44693 0.26673 0.0
C160 C 0.22588 0.43221 0.25661 0.0
C161 C 0.20217 0.44029 0.30284 0.0
C162 C 0.27171 0.45541 0.1978 0.0
C163 C 0.30201 0.46403 0.20724 0.0
C164 C 0.31523 0.48481 0.15696 0.0
C165 C 0.29844 0.49477 0.09047 0.0
C166 C 0.2689 0.48289 0.07461 0.0
C167 C 0.25608 0.46352 0.12917 0.0
C168 C 0.24861 0.49194 1.0076 0.0
C169 C 0.23958 0.52181 0.99761 0.0
C170 C 0.2325 0.46934 0.9654 0.0
C171 C 0.20676 0.47592 0.91991 0.0
C172 C 0.19624 0.50547 0.91396 0.0
C173 C 0.34428 0.49868 0.18617 0.0
C174 C 0.34321 0.52232 0.24001 0.0
C175 C 0.37082 0.48215 0.18387 0.0
C176 C 0.39498 0.48801 0.23698 0.0
C177 C 0.39304 0.51019 0.29501 0.0
C178 C 0.36706 0.52784 0.29398 0.0
C179 C 0.21389 0.52852 0.95087 0.0
H180 H 0.24103 0.48677 0.42917 0.0
H181 H 0.28175 0.4739 0.34852 0.0
H182 H 0.22088 0.41837 0.20592 0.0
H183 H 0.17948 0.43283 0.28637 0.0
H184 H 0.31444 0.45741 0.25947 0.0
H185 H 0.23246 0.45736 0.12132 0.0
H186 H 0.30804 0.5115 0.05244 0.0
H187 H 0.25119 0.53975 0.02973 0.0
H188 H 0.23863 0.44604 0.97214 0.0
H189 H 0.19415 0.45739 0.89298 0.0
H190 H 0.32263 0.53461 0.24553 0.0
H191 H 0.37196 0.46314 0.14494 0.0
H192 H 0.20743 0.55174 0.94566 0.0
H193 H 0.36396 0.54448 0.33855 0.0
H194 H 0.41459 0.47408 0.235 0.0
C195 C 0.12161 0.2498 0.37417 0.0
C196 C 0.1337 0.2243 0.33978 0.0
C197 C 0.11654 0.2754 0.33 0.0
C198 C 0.1232 0.27546 0.25089 0.0
C199 C 0.14308 0.25374 0.22469 0.0
C200 C 0.14827 0.228 0.26925 0.0
C201 C 0.10086 0.28905 0.19576 0.0
C202 C 0.08591 0.31504 0.21651 0.0
C203 C 0.05702 0.32113 0.18625 0.0
C204 C 0.04375 0.30147 0.12824 0.0
C205 C 0.06026 0.27668 0.10037 0.0
C206 C 0.08857 0.27116 0.1351 0.0
C207 C 0.04906 0.25371 0.04078 0.0
C208 C 0.02486 0.23374 0.05526 0.0
C209 C 0.0678 0.24648 0.97925 0.0
C210 C 0.06366 0.21961 0.93675 0.0
C211 C 0.04035 0.19894 0.95321 0.0
C212 C 0.04133 0.34623 0.22569 0.0
C213 C 0.02786 0.34066 0.29721 0.0
C214 C 0.0483 0.37634 0.20705 0.0
C215 C 0.04312 0.39992 0.25947 0.0
C216 C 0.03147 0.39416 0.33339 0.0
C217 C 0.0229 0.36416 0.34992 0.0
C218 C 0.02046 0.20685 1.01184 0.0
H219 H 0.11127 0.2485 0.43005 0.0
H220 H 0.10248 0.2923 0.35437 0.0
H221 H 0.1504 0.25418 0.16543 0.0
H222 H 0.15983 0.20948 0.24368 0.0
H223 H 0.09558 0.32921 0.26256 0.0
H224 H 0.09967 0.25071 0.11941 0.0
H225 H 0.02118 0.30534 0.10557 0.0
H226 H 1.01051 0.2379 0.10344 0.0
H227 H 0.08702 0.2609 0.96707 0.0
H228 H 0.07928 0.21465 0.89187 0.0
H229 H 0.02325 0.31772 0.31501 0.0
H230 H 0.05953 0.38148 0.15374 0.0
H231 H 1.00237 0.19149 0.02696 0.0
H232 H 0.01397 0.35848 0.4058 0.0
H233 H 0.0492 0.42263 0.24278 0.0
C234 C 0.34236 0.12713 0.34343 0.0
C235 C 0.36313 0.13427 0.28617 0.0
C236 C 0.31196 0.12326 0.32247 0.0
C237 C 0.30268 0.12634 0.24424 0.0
C238 C 0.32152 0.14322 0.19569 0.0
C239 C 0.35219 0.14625 0.21568 0.0
C240 C 0.28392 0.10124 0.20979 0.0
C241 C 0.25961 0.08878 0.24931 0.0
C242 C 0.24863 0.05932 0.23412 0.0
C243 C 0.26256 0.04235 0.17451 0.0
C244 C 0.28654 0.05554 0.13123 0.0
C245 C 0.29598 0.08491 0.14919 0.0
C246 C 0.30551 0.04034 0.07173 0.0
C247 C 0.33064 0.02347 0.09604 0.0
C248 C 0.30571 0.05206 0.99558 0.0
C249 C 0.33048 0.04844 0.94738 0.0
C250 C 0.35618 0.03271 0.97278 0.0
C251 C 0.22473 0.04733 0.288 0.0
C252 C 0.22967 0.05008 0.36907 0.0
C253 C 0.19533 0.03909 0.26151 0.0
C254 C 0.17169 0.03475 0.31423 0.0
C255 C 0.17656 0.03846 0.39543 0.0
C256 C 0.20622 0.04596 0.42133 0.0
C257 C 0.35537 0.01951 0.04734 0.0
H258 H 0.34991 0.11874 0.39956 0.0
H259 H 0.29767 0.11192 0.3634 0.0
H260 H 0.31432 0.14781 0.13631 0.0
H261 H 0.36766 0.15298 0.17136 0.0
H262 H 0.25034 0.1016 0.29597 0.0
H263 H 0.31538 0.09394 0.11984 0.0
H264 H 0.25542 0.01929 0.16346 0.0
H265 H 0.33229 0.01531 0.15515 0.0
H266 H 0.28756 0.06622 0.97539 0.0
H267 H 0.3299 0.05892 0.89071 0.0
H268 H 0.25172 0.05694 0.39224 0.0
H269 H 0.19024 0.03739 0.19981 0.0
H270 H 0.37471 1.00763 0.07017 0.0
H271 H 0.21131 0.0501 0.48223 0.0
H272 H 0.14939 0.02895 0.29105 0.0
C273 C 0.50268 0.34741 1.00609 0.0
C274 C 0.525 0.35926 0.95713 0.0
C275 C 0.5091 0.32403 0.05941 0.0
C276 C 0.53789 0.3115 0.06461 0.0
C277 C 0.55927 0.32176 1.01149 0.0
C278 C 0.5531 0.34525 0.95959 0.0
C279 C 0.54799 0.29183 0.13164 0.0
C280 C 0.53146 0.26641 0.15965 0.0
C281 C 0.54355 0.24898 0.22229 0.0
C282 C 0.57132 0.25775 0.25713 0.0
C283 C 0.5872 0.28315 0.23215 0.0
C284 C 0.57554 0.29978 0.16966 0.0
C285 C 0.61425 0.29449 0.27661 0.0
C286 C 0.61342 0.29704 0.3576 0.0
C287 C 0.63918 0.30659 0.23843 0.0
C288 C 0.66119 0.32366 0.27949 0.0
C289 C 0.6584 0.32919 0.35919 0.0
C290 C 0.52882 0.22147 0.25555 0.0
C291 C 0.50567 0.22397 0.30866 0.0
C292 C 0.54386 0.19402 0.25237 0.0
C293 C 0.5374 0.1705 0.30387 0.0
C294 C 0.51566 0.17356 0.36078 0.0
C295 C 0.499 0.20024 0.36015 0.0
C296 C 0.6352 0.31426 0.39843 0.0
H297 H 0.48031 0.3565 1.00441 0.0
H298 H 0.49199 0.31682 0.09898 0.0
H299 H 0.58161 0.31251 1.01262 0.0
H300 H 0.57107 0.35328 0.92366 0.0
H301 H 0.51003 0.25992 0.13222 0.0
H302 H 0.58751 0.32007 0.15255 0.0
H303 H 0.58045 0.24489 0.30555 0.0
H304 H 0.59444 0.28811 0.38867 0.0
H305 H 0.64065 0.30445 0.17612 0.0
H306 H 0.67893 0.33466 0.24777 0.0
H307 H 0.49409 0.24499 0.31398 0.0
H308 H 0.56233 0.19159 0.21361 0.0
H309 H 0.63182 0.31841 0.45934 0.0
H310 H 0.48143 0.20327 0.40116 0.0
H311 H 0.55085 0.15055 0.30202 0.0
Eu312 Eu 1.00147 0.0412 0.64073 0.0
Eu313 Eu 0.04295 0.0114 0.77099 0.0
C314 C 0.03268 0.08231 0.784 0.0
C315 C 1.0052 0.09671 0.49871 0.0
C316 C 0.03217 0.10076 0.54252 0.0
C317 C 0.02589 0.12842 0.39853 0.0
C318 C 0.05621 0.11704 0.5136 0.0
C319 C 1.00205 0.11069 0.42637 0.0
C320 C 0.05356 0.13121 0.4413 0.0
C321 C 0.98293 0.07514 0.52848 0.0
O322 O 0.99563 0.01183 0.82108 0.0
O323 O 0.96429 0.02838 0.72267 0.0
C324 C 0.96845 0.01886 0.7946 0.0
O325 O 0.98946 0.99217 0.6178 0.0
O326 O 0.05417 1.00467 0.89395 0.0
O327 O 0.0734 0.97602 0.8088 0.0
O328 O 0.03102 0.97415 0.68207 0.0
C329 C 1.00794 0.97007 0.63277 0.0
O330 O 0.04819 0.03629 0.58864 0.0
O331 O 0.08001 0.02637 0.69126 0.0
O332 O 0.0517 0.06081 0.80031 0.0
O333 O 0.98958 0.04713 0.51745 0.0
O334 O 0.97586 0.07994 0.60005 0.0
O335 O 1.01103 0.07793 0.73121 0.0
C336 C 0.04867 0.95252 0.9123 0.0
C337 C 0.04524 0.92594 0.86836 0.0
C338 C 1.00656 0.9361 0.98956 0.0
C339 C 0.02187 0.90549 0.88242 0.0
C340 C 0.02992 0.95666 0.97538 0.0
C341 C 1.00163 0.91097 0.94121 0.0
C342 C 0.06558 0.9785 0.8807 0.0
C343 C 0.0757 0.03248 0.61719 0.0
H344 H 0.03508 0.09057 0.59902 0.0
H345 H 0.02246 0.14008 0.34405 0.0
H346 H 0.077 0.11825 0.54813 0.0
H347 H 0.98142 0.10789 0.3917 0.0
H348 H 0.05926 0.92187 0.81944 0.0
H349 H 0.99196 0.94023 0.03724 0.0
H350 H 0.01886 0.88602 0.84503 0.0
H351 H 0.03202 0.97681 1.0106 0.0
Eu352 Eu 0.53392 0.04666 0.75496 0.0
Eu353 Eu 0.49982 1.00368 0.62857 0.0
C354 C 0.52607 0.97318 0.78427 0.0
C355 C 0.58994 0.05483 0.90874 0.0
C356 C 0.61631 0.0483 0.86977 0.0
C357 C 0.60226 0.01599 1.00321 0.0
C358 C 0.63449 0.02491 0.89487 0.0
C359 C 0.58389 0.03935 0.97781 0.0
C360 C 0.62701 1.00778 0.96004 0.0
C361 C 0.56559 0.07112 0.8675 0.0
O362 O 0.46907 1.00706 0.73245 0.0
O363 O 0.48399 0.05327 0.77677 0.0
C364 C 0.46423 0.03074 0.77571 0.0
O365 O 0.52249 0.08187 0.66556 0.0
O366 O 0.45572 0.99301 0.57634 0.0
O367 O 0.49489 0.97119 0.53319 0.0
O368 O 0.49978 0.05051 0.57431 0.0
C369 C 0.51001 0.07731 0.59642 0.0
O370 O 0.57233 0.03038 0.67966 0.0
O371 O 0.546 1.00884 0.57706 0.0
O372 O 0.51843 0.96827 0.71085 0.0
O373 O 0.57002 0.07763 0.79494 0.0
O374 O 0.53862 0.05991 0.87677 0.0
O375 O 0.53066 1.00061 0.81097 0.0
C376 C 0.45942 0.9917 0.44293 0.0
C377 C 0.42908 0.99271 0.41826 0.0
C378 C 0.47064 0.03413 0.35904 0.0
C379 C 0.41931 0.01564 0.36884 0.0
C380 C 0.48044 0.01132 0.40883 0.0
C381 C 0.43985 0.03763 0.34345 0.0
C382 C 0.46685 0.97828 0.51897 0.0
C383 C 0.57158 0.01892 0.60881 0.0
H384 H 0.62181 0.05969 0.81644 0.0
H385 H 0.59665 1.00387 0.05538 0.0
H386 H 0.65365 0.01932 0.86091 0.0
H387 H 0.5638 0.04389 1.00925 0.0
H388 H 0.41246 0.97806 0.44432 0.0
H389 H 0.48671 0.05062 0.33834 0.0
H390 H 0.39538 0.01804 0.3573 0.0
H391 H 0.504 0.01119 0.42706 0.0
Eu392 Eu 0.49135 0.53738 0.74409 0.0
Eu393 Eu 0.54509 0.51388 0.63589 0.0
C394 C 0.56055 0.53627 0.81315 0.0
C395 C 0.42124 0.57209 0.83744 0.0
C396 C 0.42338 0.60227 0.81478 0.0
C397 C 0.37529 0.58246 0.90374 0.0
C398 C 0.40254 0.62273 0.84035 0.0
C399 C 0.39626 0.56201 0.87848 0.0
C400 C 0.37935 0.61328 0.88895 0.0
C401 C 0.44669 0.55198 0.82981 0.0
O402 O 0.54018 0.47591 0.7227 0.0
O403 O 0.49346 0.48694 0.76577 0.0
C404 C 0.51651 0.46891 0.76334 0.0
O405 O 0.47125 0.53618 0.62161 0.0
O406 O 0.58973 0.52201 0.58898 0.0
O407 O 0.56254 0.48319 0.55163 0.0
O408 O 0.5014 0.50084 0.57052 0.0
C409 C 0.47715 0.51723 0.56614 0.0
O410 O 0.5075 0.58054 0.68451 0.0
O411 O 0.53206 0.55877 0.58476 0.0
O412 O 0.56976 0.5336 0.74191 0.0
O413 O 0.44448 0.53107 0.77678 0.0
O414 O 0.47372 0.56407 0.83679 0.0
O415 O 0.53172 0.5352 0.82779 0.0
C416 C 0.61531 0.47843 0.55113 0.0
C417 C 0.6147 0.45031 0.58766 0.0
C418 C 0.66215 0.46583 0.49202 0.0
C419 C 0.63649 0.42931 0.57189 0.0
C420 C 0.64004 0.48671 0.50696 0.0
C421 C 0.65943 0.43623 0.51995 0.0
C422 C 0.58856 0.49724 0.54857 0.0
C423 C 0.51986 0.58234 0.61597 0.0
H424 H 0.44237 0.61044 0.78246 0.0
H425 H 0.35737 0.57455 0.94011 0.0
H426 H 0.40632 0.64637 0.82818 0.0
H427 H 0.39415 0.53868 0.89587 0.0
H428 H 0.59599 0.44361 0.62294 0.0
H429 H 0.67971 0.47195 0.45256 0.0
H430 H 0.63326 0.40672 0.59378 0.0
H431 H 0.64106 0.50851 0.47908 0.0
Eu432 Eu 0.02929 0.55449 0.64792 0.0
Eu433 Eu 1.00708 0.5008 0.75698 0.0
C434 C 0.07699 0.52078 0.76062 0.0
C435 C 0.07746 0.58714 0.50067 0.0
C436 C 0.10727 0.59057 0.52975 0.0
C437 C 0.09474 0.55451 0.39944 0.0
C438 C 0.13017 0.57431 0.49731 0.0
C439 C 0.07191 0.57089 0.43151 0.0
C440 C 0.12363 0.55473 0.43491 0.0
C441 C 0.05226 0.59299 0.55186 0.0
O442 O 0.01531 0.5419 0.8359 0.0
O443 O 1.00848 0.57926 0.74719 0.0
C444 C 1.01066 0.57046 0.81997 0.0
O445 O 0.98026 0.54896 0.61097 0.0
O446 O 0.98397 0.48501 0.85886 0.0
O447 O 1.00856 0.45356 0.79053 0.0
O448 O 0.96261 0.51553 0.70085 0.0
C449 C 0.95806 0.53317 0.64027 0.0
O450 O 0.04133 0.51047 0.58764 0.0
O451 O 1.00363 0.48145 0.63523 0.0
O452 O 0.0581 0.4977 0.76029 0.0
O453 O 0.02754 0.57754 0.53637 0.0
O454 O 0.05896 0.59313 0.62604 0.0
O455 O 0.06865 0.54672 0.73229 0.0
C456 C 0.96443 0.43603 0.84898 0.0
C457 C 0.94318 0.43494 0.78702 0.0
C458 C 0.93082 0.40618 0.92688 0.0
C459 C 0.9153 0.42054 0.79622 0.0
C460 C 0.9587 0.42046 0.91749 0.0
C461 C 0.90831 0.4074 0.86773 0.0
C462 C 0.99026 0.4569 0.8472 0.0
C463 C 0.02365 0.48628 0.58218 0.0
H464 H 0.1124 0.6034 0.58211 0.0
H465 H 0.08898 0.53959 0.35135 0.0
H466 H 0.15249 0.57535 0.52451 0.0
H467 H 0.0493 0.56817 0.40675 0.0
H468 H 0.94732 0.44697 0.73368 0.0
H469 H 0.92597 0.39683 0.98317 0.0
H470 H 0.89833 0.42185 0.74982 0.0
H471 H 0.9749 0.42125 0.96587 0.0
C472 C 0.12216 0.04751 0.4341 0.0
C473 C 0.15092 0.03594 0.45255 0.0
C474 C 0.09843 0.04646 0.4872 0.0
C475 C 0.10197 0.03404 0.56247 0.0
H476 H 0.11795 0.05798 0.37825 0.0
H477 H 0.07703 0.05571 0.46882 0.0
S478 S 0.17163 0.99823 0.63898 0.0
N479 N 0.18043 0.00958 0.55134 0.0
N480 N 0.13663 1.00851 0.65054 0.0
C481 C 0.13045 0.0221 0.58149 0.0
C482 C 0.15454 0.02284 0.5271 0.0
C483 C 0.51321 0.11882 0.40223 0.0
C484 C 0.51193 0.14953 0.42211 0.0
C485 C 0.51232 0.09599 0.45883 0.0
C486 C 0.5096 0.10246 0.5382 0.0
H487 H 0.51522 0.11224 0.34222 0.0
H488 H 0.51457 0.07297 0.44041 0.0
S489 S 0.50625 0.17892 0.62292 0.0
N490 N 0.50881 0.18498 0.52889 0.0
N491 N 0.50614 0.14207 0.63403 0.0
C492 C 0.50828 0.13297 0.55929 0.0
C493 C 0.50943 0.15637 0.50169 0.0
C494 C 0.42888 0.4867 0.39435 0.0
C495 C 0.41637 0.51279 0.36064 0.0
C496 C 0.44893 0.48823 0.45955 0.0
C497 C 0.45687 0.51584 0.49522 0.0
H498 H 0.42253 0.46471 0.37158 0.0
H499 H 0.45756 0.46753 0.48358 0.0
S500 S 0.43411 0.59111 0.42534 0.0
N501 N 0.41667 0.56748 0.36418 0.0
N502 N 0.45274 0.57006 0.48849 0.0
C503 C 0.44528 0.54212 0.46132 0.0
C504 C 0.42548 0.54068 0.39387 0.0
C505 C 1.0047 0.42 0.44317 0.0
C506 C 0.02954 0.41874 0.39443 0.0
C507 C 1.00303 0.44183 0.50251 0.0
C508 C 0.02607 0.46377 0.51668 0.0
H509 H 0.98617 0.40397 0.43536 0.0
H510 H 0.9833 0.44144 0.53765 0.0
S511 S 0.09698 0.46952 0.40939 0.0
N512 N 0.07853 0.44093 0.36783 0.0
N513 N 0.0751 0.48204 0.47718 0.0
C514 C 0.05105 0.46285 0.46841 0.0
C515 C 0.05283 0.44045 0.40819 0.0
C516 C 0.92304 1.00367 0.97938 0.0
C517 C 0.89424 0.01537 0.96242 0.0
C518 C 0.94631 1.00445 0.92497 0.0
C519 C 0.94238 0.01709 0.85004 0.0
H520 H 0.92763 0.99317 0.03501 0.0
H521 H 0.9677 0.99491 0.94223 0.0
S522 S 0.8724 0.05343 0.77731 0.0
N523 N 0.86417 0.04196 0.86525 0.0
N524 N 0.90725 0.04302 0.76398 0.0
C525 C 0.91386 0.0293 0.8326 0.0
C526 C 0.89014 0.02856 0.88812 0.0
C527 C 0.53531 0.89483 0.87531 0.0
C528 C 0.52547 0.89851 0.95197 0.0
C529 C 0.53558 0.91877 0.82136 0.0
C530 C 0.52664 0.94778 0.84179 0.0
H531 H 0.54275 0.87313 0.85632 0.0
H532 H 0.543 0.91453 0.76329 0.0
S533 S 0.49759 0.96983 0.03273 0.0
N534 N 0.50515 0.9339 0.04301 0.0
N535 N 0.50706 0.9787 0.94385 0.0
C536 C 0.5172 0.95198 0.9183 0.0
C537 C 0.51633 0.92753 0.97266 0.0
C538 C 0.595 0.53888 0.0205 0.0
C539 C 0.6263 0.53926 1.00972 0.0
C540 C 0.57408 0.53885 0.95708 0.0
C541 C 0.58338 0.53894 0.87956 0.0
H542 H 0.58653 0.53828 0.07863 0.0
H543 H 0.55034 0.53808 0.96927 0.0
S544 S 0.66294 0.53955 0.81924 0.0
N545 N 0.6655 0.53948 0.9149 0.0
N546 N 0.6266 0.53974 0.79652 0.0
C547 C 0.6147 0.53979 0.86806 0.0
C548 C 0.63596 0.53989 0.93268 0.0
C549 C 1.0012 0.64558 0.92794 0.0
C550 C 1.0066 0.63852 1.00698 0.0
C551 C 1.0024 0.62364 0.8687 0.0
C552 C 1.00918 0.59336 0.88497 0.0
H553 H 0.99543 0.66827 0.91156 0.0
H554 H 0.99781 0.6306 0.80941 0.0
S555 S 0.02753 0.56328 0.08186 0.0
N556 N 0.02058 0.59902 0.09744 0.0
N557 N 0.02281 0.55809 0.9874 0.0
C558 C 0.01513 0.5861 0.96379 0.0
C559 C 0.01382 0.60846 0.02414 0.0
C560 C 0.11762 0.18916 0.44383 0.0
C561 C 0.12205 0.19433 0.36463 0.0
C562 C 0.09618 0.16807 0.46804 0.0
C563 C 0.0791 0.15028 0.41422 0.0
H564 H 0.12878 0.20348 0.48728 0.0
H565 H 0.09175 0.16723 0.52933 0.0
S566 S 0.08801 0.14907 0.20121 0.0
N567 N 0.11091 0.17643 0.23271 0.0
N568 N 0.07281 0.13478 0.27937 0.0
C569 C 0.08619 0.15239 0.3356 0.0
C570 C 0.10735 0.17463 0.31056 0.0
C571 C 0.39435 0.09448 0.23204 0.0
C572 C 0.39144 0.1173 0.28811 0.0
C573 C 0.4123 0.06953 0.24716 0.0
C574 C 0.42835 0.06696 0.31802 0.0
H575 H 0.3801 0.09408 0.1798 0.0
H576 H 0.4118 0.05116 0.20585 0.0
S577 S 0.43171 0.12227 0.479 0.0
N578 N 0.40901 0.13732 0.41274 0.0
N579 N 0.44255 0.09026 0.44165 0.0
C580 C 0.42803 0.09092 0.37112 0.0
C581 C 0.40974 0.11626 0.35581 0.0
C582 C 0.67142 0.38362 0.35672 0.0
C583 C 0.67331 0.35602 0.39618 0.0
C584 C 0.6717 0.41075 0.39746 0.0
C585 C 0.67385 0.4112 0.4791 0.0
H586 H 0.66569 0.38428 0.29521 0.0
H587 H 0.66617 0.43083 0.36506 0.0
S588 S 0.69155 0.34628 0.60578 0.0
N589 N 0.68649 0.33153 0.51825 0.0
N590 N 0.68704 0.38282 0.59528 0.0
C591 C 0.68142 0.38441 0.5175 0.0
C592 C 0.68113 0.35669 0.47586 0.0
C593 C 0.17757 0.49034 0.4562 0.0
C594 C 0.18313 0.48309 0.37895 0.0
C595 C 0.15876 0.51404 0.4737 0.0
C596 C 0.14524 0.53151 0.41448 0.0
H597 H 0.18817 0.47789 0.50324 0.0
H598 H 0.15443 0.51844 0.53404 0.0
S599 S 0.15496 0.52313 0.20306 0.0
N600 N 0.17502 0.49606 0.24283 0.0
N601 N 0.13992 0.54079 0.27595 0.0
C602 C 0.15094 0.52465 0.33705 0.0
C603 C 0.16982 0.50038 0.31923 0.0
C604 C 0.9587 0.83835 0.97456 0.0
C605 C 0.92946 0.84777 0.99061 0.0
C606 C 0.98148 0.8589 0.9564 0.0
C607 C 0.97609 0.88979 0.95344 0.0
H608 H 0.96485 0.81506 0.98135 0.0
H609 H 1.00389 0.85059 0.9485 0.0
S610 S 0.90254 0.92585 0.97805 0.0
N611 N 0.89559 0.88979 0.99381 0.0
N612 N 0.93862 0.92873 0.9585 0.0
C613 C 0.9466 0.89951 0.9643 0.0
C614 C 0.92325 0.87844 0.98303 0.0
C615 C 0.6953 0.96145 1.00718 0.0
C616 C 0.68305 0.93338 0.02955 0.0
C617 C 0.67696 0.98504 0.98441 0.0
C618 C 0.64551 0.98173 0.98276 0.0
H619 H 0.71935 0.96594 1.0113 0.0
H620 H 0.68757 1.00643 0.97049 0.0
S621 S 0.602 0.91222 0.02881 0.0
N622 N 0.63751 0.90314 0.04477 0.0
N623 N 0.60267 0.94758 0.99965 0.0
C624 C 0.63279 0.95355 1.00218 0.0
C625 C 0.65162 0.92939 0.02607 0.0
C626 C 0.35295 0.68922 0.94647 0.0
C627 C 0.36221 0.68994 0.02543 0.0
C628 C 0.35462 0.66278 0.9028 0.0
C629 C 0.36494 0.63612 0.93715 0.0
H630 H 0.34792 0.70994 0.91625 0.0
H631 H 0.35083 0.66397 0.8405 0.0
S632 S 0.38346 0.62412 0.14607 0.0
N633 N 0.37586 0.66015 0.13917 0.0
N634 N 0.37825 0.6105 0.05759 0.0
C635 C 0.36929 0.63541 0.0183 0.0
C636 C 0.36796 0.66237 0.06257 0.0
C637 C 0.82974 0.4273 0.91509 0.0
C638 C 0.82173 0.40484 0.96858 0.0
C639 C 0.85651 0.42605 0.8755 0.0
C640 C 0.8765 0.40241 0.8881 0.0
H641 H 0.81686 0.44757 0.90893 0.0
H642 H 0.86287 0.44534 0.84089 0.0
S643 S 0.8624 0.33412 1.0054 0.0
N644 N 0.83291 0.35517 0.01934 0.0
N645 N 0.88393 0.35322 0.94573 0.0
C646 C 0.86722 0.3781 0.93416 0.0
C647 C 0.83968 0.37923 0.97422 0.0
C648 C 0.06311 0.1506 0.90407 0.0
C649 C 0.03777 0.16899 0.91097 0.0
C650 C 0.06137 0.12267 0.86426 0.0
C651 C 0.03434 0.11195 0.82766 0.0
H652 H 0.08454 0.15773 0.93045 0.0
H653 H 0.08154 0.10959 0.86129 0.0
S654 S 0.96131 0.1513 0.82798 0.0
N655 N 0.9847 0.17398 0.87763 0.0
N656 N 0.98139 0.12237 0.8025 0.0
C657 C 1.00886 0.13021 0.83411 0.0
C658 C 1.01056 0.15834 0.87571 0.0
C659 C 0.39604 0.05808 0.88912 0.0
C660 C 0.38403 0.03166 0.92326 0.0
C661 C 0.42199 0.05782 0.84311 0.0
C662 C 0.43694 0.03099 0.82674 0.0
H663 H 0.38549 0.07939 0.89887 0.0
H664 H 0.43008 0.07885 0.81905 0.0
S665 S 0.41548 0.95552 0.90231 0.0
N666 N 0.39016 0.97787 0.93784 0.0
N667 N 0.4378 0.97722 0.85072 0.0
C668 C 0.42519 1.00443 0.86045 0.0
C669 C 0.39921 1.0048 0.90867 0.0
C670 C 0.53368 0.38882 0.83274 0.0
C671 C 0.52009 0.3866 0.90568 0.0
C672 C 0.53213 0.4151 0.78694 0.0
C673 C 0.51631 0.44042 0.81056 0.0
H674 H 0.54598 0.37011 0.8107 0.0
H675 H 0.5435 0.41556 0.73239 0.0
S676 S 0.47724 0.44747 0.9965 0.0
N677 N 0.49095 0.41331 0.99959 0.0
N678 N 0.48692 0.4617 0.91234 0.0
C679 C 0.50202 0.43844 0.88225 0.0
C680 C 0.50411 0.41189 0.92978 0.0
C681 C 0.15724 0.49493 0.80521 0.0
C682 C 0.16631 0.51136 0.87267 0.0
C683 C 0.12845 0.49799 0.76931 0.0
C684 C 0.10758 0.51809 0.79807 0.0
H685 H 0.17246 0.47935 0.77983 0.0
H686 H 0.12255 0.48463 0.7183 0.0
S687 S 0.11848 0.56554 0.97381 0.0
N688 N 0.15046 0.5476 0.96818 0.0
N689 N 0.09741 0.55432 0.89815 0.0
C690 C 0.11623 0.53498 0.86431 0.0
C691 C 0.14526 0.53145 0.90205 0.0
C692 C 0.02626 0.89326 0.54277 0.0
C693 C 0.99928 0.88403 0.50344 0.0
C694 C 0.02857 0.92052 0.5854 0.0
C695 C 1.00423 0.94038 0.58968 0.0
H696 H 0.04572 0.87909 0.54144 0.0
H697 H 0.04991 0.92626 0.61437 0.0
S698 S 0.92872 0.92734 0.49494 0.0
N699 N 0.94773 0.89746 0.47102 0.0
N700 N 0.95216 0.9484 0.5491 0.0
C701 C 0.97721 0.93148 0.54989 0.0
C702 C 0.97473 0.90352 0.50755 0.0
C703 C 0.65553 0.02528 0.55179 0.0
C704 C 0.65517 0.01726 0.47223 0.0
C705 C 0.62886 0.02576 0.59519 0.0
C706 C 0.60021 0.01782 0.56203 0.0
H707 H 0.67668 0.03161 0.58093 0.0
H708 H 0.63083 0.0324 0.65559 0.0
S709 S 0.5865 0.99355 0.35678 0.0
N710 N 0.62318 1.00009 0.36346 0.0
N711 N 0.5738 1.00107 0.44329 0.0
C712 C 0.59963 0.00944 0.48266 0.0
C713 C 0.62671 0.00917 0.43851 0.0
C714 C 0.51296 0.66586 0.55885 0.0
C715 C 0.51567 0.66565 0.47734 0.0
C716 C 0.51429 0.63914 0.60343 0.0
C717 C 0.51854 0.6109 0.56876 0.0
H718 H 0.50985 0.68691 0.58867 0.0
H719 H 0.51215 0.64071 0.66565 0.0
S720 S 0.5235 0.59729 0.35662 0.0
N721 N 0.52032 0.63403 0.36381 0.0
N722 N 0.52346 0.58449 0.44635 0.0
C723 C 0.52083 0.61039 0.48716 0.0
C724 C 0.51927 0.63746 0.44198 0.0
C725 C 0.8746 0.51573 0.58828 0.0
C726 C 0.86974 0.52992 0.51574 0.0
C727 C 0.90269 0.51759 0.6291 0.0
C728 C 0.92742 0.53383 0.5997 0.0
H729 H 0.85661 0.50264 0.61354 0.0
H730 H 0.90511 0.50566 0.68359 0.0
S731 S 0.92689 0.57526 0.41203 0.0
N732 N 0.89255 0.56072 0.41638 0.0
N733 N 0.9446 0.56492 0.49292 0.0
C734 C 0.92262 0.54878 0.52805 0.0
C735 C 0.89408 0.5467 0.48636 0.0
loop_
_geom_bond_atom_site_label_1
_geom_bond_atom_site_label_2
_geom_bond_distance
_geom_bond_site_symmetry_2
_ccdc_geom_bond_type
C0 C1 1.386 . S
C0 C2 1.397 . S
C0 H24 0.931 . S
C1 C0 1.386 . S
C1 C5 1.397 . S
C2 C0 1.397 . S
C2 C3 1.384 . S
C2 H25 0.930 . S
C3 C2 1.384 . S
C3 C4 1.377 . S
C3 C6 1.481 . S
C4 C3 1.377 . S
C4 C5 1.389 . S
C4 H26 0.929 . S
C5 C1 1.397 . S
C5 C4 1.389 . S
C5 H27 0.931 . S
C6 C3 1.481 . S
C6 C7 1.387 . S
C6 C11 1.390 . S
C7 C6 1.387 . S
C7 C8 1.401 . S
C7 H28 0.930 . S
C8 C7 1.401 . S
C8 C9 1.376 . S
C8 C17 1.511 . S
C9 C8 1.376 . S
C9 C10 1.392 . S
C9 H30 0.931 . S
C10 C9 1.392 . S
C10 C11 1.361 . S
C10 C12 1.500 . S
C11 C6 1.390 . S
C11 C10 1.361 . S
C11 H29 0.931 . S
C12 C10 1.500 . S
C12 C13 1.371 . S
C12 C14 1.365 . S
C13 C12 1.371 . S
C13 C23 1.386 . S
C13 H31 0.931 . S
C14 C12 1.365 . S
C14 C15 1.409 . S
C14 H32 0.929 . S
C15 C14 1.409 . S
C15 C16 1.380 . S
C15 H33 0.930 . S
C16 C15 1.380 . S
C16 C23 1.357 . S
C17 C8 1.511 . S
C17 C18 1.341 . S
C17 C19 1.371 . S
C18 C17 1.341 . S
C18 C22 1.394 . S
C18 H34 0.930 . S
C19 C17 1.371 . S
C19 C20 1.392 . S
C19 H35 0.931 . S
C20 C19 1.392 . S
C20 C21 1.331 . S
C20 H38 0.932 . S
C21 C20 1.331 . S
C21 C22 1.336 . S
C22 C18 1.394 . S
C22 C21 1.336 . S
C22 H37 0.929 . S
C23 C13 1.386 . S
C23 C16 1.357 . S
C23 H36 0.928 . S
H24 C0 0.931 . S
H25 C2 0.930 . S
H26 C4 0.929 . S
H27 C5 0.931 . S
H28 C7 0.930 . S
H29 C11 0.931 . S
H30 C9 0.931 . S
H31 C13 0.931 . S
H32 C14 0.929 . S
H33 C15 0.930 . S
H34 C18 0.930 . S
H35 C19 0.931 . S
H36 C23 0.928 . S
H37 C22 0.929 . S
H38 C20 0.932 . S
C39 C40 1.386 . S
C39 C41 1.397 . S
C39 H63 0.931 . S
C40 C39 1.386 . S
C40 C44 1.397 . S
C41 C39 1.397 . S
C41 C42 1.384 . S
C41 H64 0.930 . S
C42 C41 1.384 . S
C42 C43 1.377 . S
C42 C45 1.481 . S
C43 C42 1.377 . S
C43 C44 1.389 . S
C43 H65 0.929 . S
C44 C40 1.397 . S
C44 C43 1.389 . S
C44 H66 0.931 . S
C45 C42 1.481 . S
C45 C46 1.387 . S
C45 C50 1.390 . S
C46 C45 1.387 . S
C46 C47 1.401 . S
C46 H67 0.930 . S
C47 C46 1.401 . S
C47 C48 1.376 . S
C47 C56 1.511 . S
C48 C47 1.376 . S
C48 C49 1.392 . S
C48 H69 0.931 . S
C49 C48 1.392 . S
C49 C50 1.361 . S
C49 C51 1.500 . S
C50 C45 1.390 . S
C50 C49 1.361 . S
C50 H68 0.931 . S
C51 C49 1.500 . S
C51 C52 1.371 . S
C51 C53 1.365 . S
C52 C51 1.371 . S
C52 C62 1.386 . S
C52 H70 0.931 . S
C53 C51 1.365 . S
C53 C54 1.409 . S
C53 H71 0.929 . S
C54 C53 1.409 . S
C54 C55 1.380 . S
C54 H72 0.930 . S
C55 C54 1.380 . S
C55 C62 1.357 . S
C56 C47 1.511 . S
C56 C57 1.341 . S
C56 C58 1.371 . S
C57 C56 1.341 . S
C57 C61 1.394 . S
C57 H73 0.930 . S
C58 C56 1.371 . S
C58 C59 1.392 . S
C58 H74 0.931 . S
C59 C58 1.392 . S
C59 C60 1.331 . S
C59 H77 0.932 . S
C60 C59 1.331 . S
C60 C61 1.336 . S
C61 C57 1.394 . S
C61 C60 1.336 . S
C61 H76 0.929 . S
C62 C52 1.386 . S
C62 C55 1.357 . S
C62 H75 0.928 . S
H63 C39 0.931 . S
H64 C41 0.930 . S
H65 C43 0.929 . S
H66 C44 0.931 . S
H67 C46 0.930 . S
H68 C50 0.931 . S
H69 C48 0.931 . S
H70 C52 0.931 . S
H71 C53 0.929 . S
H72 C54 0.930 . S
H73 C57 0.930 . S
H74 C58 0.931 . S
H75 C62 0.928 . S
H76 C61 0.929 . S
H77 C59 0.932 . S
C78 C79 1.386 . S
C78 C80 1.397 . S
C78 H102 0.931 . S
C79 C78 1.386 . S
C79 C83 1.397 . S
C80 C78 1.397 . S
C80 C81 1.384 . S
C80 H103 0.930 . S
C81 C80 1.384 . S
C81 C82 1.377 . S
C81 C84 1.481 . S
C82 C81 1.377 . S
C82 C83 1.389 . S
C82 H104 0.943 . S
C83 C79 1.397 . S
C83 C82 1.389 . S
C83 H105 0.926 1_565 S
C84 C81 1.481 . S
C84 C85 1.387 . S
C84 C89 1.390 . S
C85 C84 1.387 . S
C85 C86 1.401 . S
C85 H106 0.930 . S
C86 C85 1.401 . S
C86 C87 1.376 . S
C86 C95 1.511 . S
C87 C86 1.376 . S
C87 C88 1.392 . S
C87 H108 0.931 . S
C88 C87 1.392 . S
C88 C89 1.361 . S
C88 C90 1.500 . S
C89 C84 1.390 . S
C89 C88 1.361 . S
C89 H107 0.931 . S
C90 C88 1.500 . S
C90 C91 1.371 . S
C90 C92 1.365 . S
C91 C90 1.371 . S
C91 C101 1.386 . S
C91 H109 0.931 . S
C92 C90 1.365 . S
C92 C93 1.409 . S
C92 H110 0.929 . S
C93 C92 1.409 . S
C93 C94 1.380 . S
C93 H111 0.930 . S
C94 C93 1.380 . S
C94 C101 1.357 . S
C95 C86 1.511 . S
C95 C96 1.341 . S
C95 C97 1.371 . S
C96 C95 1.341 . S
C96 C100 1.394 . S
C96 H112 0.930 . S
C97 C95 1.371 . S
C97 C98 1.392 . S
C97 H113 0.931 . S
C98 C97 1.392 . S
C98 C99 1.331 . S
C98 H116 0.932 . S
C99 C98 1.331 . S
C99 C100 1.336 . S
C100 C96 1.394 . S
C100 C99 1.336 . S
C100 H115 0.929 . S
C101 C91 1.386 . S
C101 C94 1.357 . S
C101 H114 0.928 . S
H102 C78 0.931 . S
H103 C80 0.930 . S
H104 C82 0.943 . S
H105 C83 0.926 1_545 S
H106 C85 0.930 . S
H107 C89 0.931 . S
H108 C87 0.931 . S
H109 C91 0.931 . S
H110 C92 0.929 . S
H111 C93 0.930 . S
H112 C96 0.930 . S
H113 C97 0.931 . S
H114 C101 0.928 . S
H115 C100 0.929 . S
H116 C98 0.932 . S
C117 C118 1.386 . S
C117 C119 1.397 . S
C117 H141 0.931 . S
C118 C117 1.386 . S
C118 C122 1.397 . S
C119 C117 1.397 . S
C119 C120 1.384 . S
C119 H142 0.930 . S
C120 C119 1.384 . S
C120 C121 1.377 . S
C120 C123 1.481 . S
C121 C120 1.377 . S
C121 C122 1.389 . S
C121 H143 0.929 . S
C122 C118 1.397 . S
C122 C121 1.389 . S
C122 H144 0.931 . S
C123 C120 1.481 . S
C123 C124 1.387 . S
C123 C128 1.390 . S
C124 C123 1.387 . S
C124 C125 1.401 . S
C124 H145 0.930 . S
C125 C124 1.401 . S
C125 C126 1.376 . S
C125 C134 1.511 . S
C126 C125 1.376 . S
C126 C127 1.392 . S
C126 H147 0.931 . S
C127 C126 1.392 . S
C127 C128 1.361 . S
C127 C129 1.500 . S
C128 C123 1.390 . S
C128 C127 1.361 . S
C128 H146 0.931 . S
C129 C127 1.500 . S
C129 C130 1.371 . S
C129 C131 1.365 . S
C130 C129 1.371 . S
C130 C140 1.386 . S
C130 H148 0.931 . S
C131 C129 1.365 . S
C131 C132 1.409 . S
C131 H149 0.929 . S
C132 C131 1.409 . S
C132 C133 1.380 . S
C132 H150 0.930 . S
C133 C132 1.380 . S
C133 C140 1.357 . S
C134 C125 1.511 . S
C134 C135 1.341 . S
C134 C136 1.371 . S
C135 C134 1.341 . S
C135 C139 1.394 . S
C135 H151 0.930 . S
C136 C134 1.371 . S
C136 C137 1.392 . S
C136 H152 0.931 . S
C137 C136 1.392 . S
C137 C138 1.331 . S
C137 H155 0.932 . S
C138 C137 1.331 . S
C138 C139 1.336 . S
C139 C135 1.394 . S
C139 C138 1.336 . S
C139 H154 0.929 . S
C140 C130 1.386 . S
C140 C133 1.357 . S
C140 H153 0.928 1_554 S
H141 C117 0.931 . S
H142 C119 0.930 . S
H143 C121 0.929 . S
H144 C122 0.931 . S
H145 C124 0.930 . S
H146 C128 0.931 . S
H147 C126 0.931 . S
H148 C130 0.931 . S
H149 C131 0.929 . S
H150 C132 0.930 . S
H151 C135 0.930 . S
H152 C136 0.931 . S
H153 C140 0.928 1_556 S
H154 C139 0.929 . S
H155 C137 0.932 . S
C156 C157 1.386 . S
C156 C158 1.397 . S
C156 H180 0.931 . S
C157 C156 1.386 . S
C157 C161 1.397 . S
C158 C156 1.397 . S
C158 C159 1.384 . S
C158 H181 0.930 . S
C159 C158 1.384 . S
C159 C160 1.377 . S
C159 C162 1.481 . S
C160 C159 1.377 . S
C160 C161 1.389 . S
C160 H182 0.929 . S
C161 C157 1.397 . S
C161 C160 1.389 . S
C161 H183 0.931 . S
C162 C159 1.481 . S
C162 C163 1.387 . S
C162 C167 1.390 . S
C163 C162 1.387 . S
C163 C164 1.401 . S
C163 H184 0.930 . S
C164 C163 1.401 . S
C164 C165 1.376 . S
C164 C173 1.511 . S
C165 C164 1.376 . S
C165 C166 1.394 . S
C165 H186 0.931 1_554 S
C166 C165 1.394 . S
C166 C167 1.368 . S
C166 C168 1.492 1_554 S
C167 C162 1.390 . S
C167 C166 1.368 . S
C167 H185 0.931 . S
C168 C166 1.492 1_556 S
C168 C169 1.371 . S
C168 C170 1.365 . S
C169 C168 1.371 . S
C169 C179 1.386 . S
C169 H187 0.931 . S
C170 C168 1.365 . S
C170 C171 1.409 . S
C170 H188 0.929 . S
C171 C170 1.409 . S
C171 C172 1.380 . S
C171 H189 0.930 . S
C172 C171 1.380 . S
C172 C179 1.357 . S
C173 C164 1.511 . S
C173 C174 1.341 . S
C173 C175 1.371 . S
C174 C173 1.341 . S
C174 C178 1.394 . S
C174 H190 0.930 . S
C175 C173 1.371 . S
C175 C176 1.392 . S
C175 H191 0.931 . S
C176 C175 1.392 . S
C176 C177 1.331 . S
C176 H194 0.932 . S
C177 C176 1.331 . S
C177 C178 1.336 . S
C178 C174 1.394 . S
C178 C177 1.336 . S
C178 H193 0.929 . S
C179 C169 1.386 . S
C179 C172 1.357 . S
C179 H192 0.928 . S
H180 C156 0.931 . S
H181 C158 0.930 . S
H182 C160 0.929 . S
H183 C161 0.931 . S
H184 C163 0.930 . S
H185 C167 0.931 . S
H186 C165 0.931 1_556 S
H187 C169 0.931 . S
H188 C170 0.929 . S
H189 C171 0.930 . S
H190 C174 0.930 . S
H191 C175 0.931 . S
H192 C179 0.928 . S
H193 C178 0.929 . S
H194 C176 0.932 . S
C195 C196 1.386 . S
C195 C197 1.397 . S
C195 H219 0.931 . S
C196 C195 1.386 . S
C196 C200 1.397 . S
C197 C195 1.397 . S
C197 C198 1.384 . S
C197 H220 0.930 . S
C198 C197 1.384 . S
C198 C199 1.377 . S
C198 C201 1.481 . S
C199 C198 1.377 . S
C199 C200 1.389 . S
C199 H221 0.929 . S
C200 C196 1.397 . S
C200 C199 1.389 . S
C200 H222 0.931 . S
C201 C198 1.481 . S
C201 C202 1.387 . S
C201 C206 1.390 . S
C202 C201 1.387 . S
C202 C203 1.401 . S
C202 H223 0.930 . S
C203 C202 1.401 . S
C203 C204 1.376 1_554 S
C203 C212 1.511 . S
C204 C203 1.376 1_556 S
C204 C205 1.392 . S
C204 H225 0.931 . S
C205 C204 1.392 . S
C205 C206 1.361 1_556 S
C205 C207 1.500 . S
C206 C201 1.390 . S
C206 C205 1.361 1_554 S
C206 H224 0.931 . S
C207 C205 1.500 . S
C207 C208 1.371 . S
C207 C209 1.365 . S
C208 C207 1.371 . S
C208 C218 1.386 . S
C208 H226 0.931 . S
C209 C207 1.365 . S
C209 C210 1.409 . S
C209 H227 0.929 . S
C210 C209 1.409 . S
C210 C211 1.380 . S
C210 H228 0.930 . S
C211 C210 1.380 . S
C211 C218 1.357 . S
C212 C203 1.511 . S
C212 C213 1.341 . S
C212 C214 1.371 . S
C213 C212 1.341 . S
C213 C217 1.394 . S
C213 H229 0.930 . S
C214 C212 1.371 . S
C214 C215 1.392 . S
C214 H230 0.931 1_554 S
C215 C214 1.392 . S
C215 C216 1.331 . S
C215 H233 0.932 . S
C216 C215 1.331 . S
C216 C217 1.336 . S
C217 C213 1.394 . S
C217 C216 1.336 . S
C217 H232 0.929 . S
C218 C208 1.386 . S
C218 C211 1.357 . S
C218 H231 0.928 . S
H219 C195 0.931 . S
H220 C197 0.930 . S
H221 C199 0.929 . S
H222 C200 0.931 . S
H223 C202 0.930 . S
H224 C206 0.931 . S
H225 C204 0.931 . S
H226 C208 0.931 . S
H227 C209 0.929 . S
H228 C210 0.930 . S
H229 C213 0.930 . S
H230 C214 0.931 1_556 S
H231 C218 0.928 . S
H232 C217 0.929 . S
H233 C215 0.932 . S
C234 C235 1.386 . S
C234 C236 1.397 . S
C234 H258 0.931 . S
C235 C234 1.386 . S
C235 C239 1.397 . S
C236 C234 1.397 . S
C236 C237 1.384 . S
C236 H259 0.930 . S
C237 C236 1.384 . S
C237 C238 1.377 . S
C237 C240 1.481 . S
C238 C237 1.377 . S
C238 C239 1.389 . S
C238 H260 0.929 . S
C239 C235 1.397 . S
C239 C238 1.389 . S
C239 H261 0.931 . S
C240 C237 1.481 . S
C240 C241 1.387 . S
C240 C245 1.390 1_554 S
C241 C240 1.387 . S
C241 C242 1.401 . S
C241 H262 0.930 . S
C242 C241 1.401 . S
C242 C243 1.376 1_554 S
C242 C251 1.511 . S
C243 C242 1.376 1_556 S
C243 C244 1.392 . S
C243 H264 0.931 . S
C244 C243 1.392 . S
C244 C245 1.361 . S
C244 C246 1.500 . S
C245 C240 1.390 1_556 S
C245 C244 1.361 . S
C245 H263 0.931 . S
C246 C244 1.500 . S
C246 C247 1.371 . S
C246 C248 1.365 . S
C247 C246 1.371 . S
C247 C257 1.386 . S
C247 H265 0.931 . S
C248 C246 1.365 . S
C248 C249 1.409 . S
C248 H266 0.929 . S
C249 C248 1.409 . S
C249 C250 1.380 . S
C249 H267 0.930 . S
C250 C249 1.380 . S
C250 C257 1.357 . S
C251 C242 1.511 . S
C251 C252 1.341 . S
C251 C253 1.371 1_554 S
C252 C251 1.341 . S
C252 C256 1.394 . S
C252 H268 0.930 . S
C253 C251 1.371 1_556 S
C253 C254 1.392 1_556 S
C253 H269 0.931 . S
C254 C253 1.392 1_554 S
C254 C255 1.331 . S
C254 H272 0.932 1_554 S
C255 C254 1.331 . S
C255 C256 1.336 . S
C256 C252 1.394 . S
C256 C255 1.336 . S
C256 H271 0.929 . S
C257 C247 1.386 . S
C257 C250 1.357 . S
C257 H270 0.928 . S
H258 C234 0.931 . S
H259 C236 0.930 . S
H260 C238 0.929 . S
H261 C239 0.931 . S
H262 C241 0.930 . S
H263 C245 0.931 . S
H264 C243 0.931 . S
H265 C247 0.931 . S
H266 C248 0.929 . S
H267 C249 0.930 . S
H268 C252 0.930 . S
H269 C253 0.931 . S
H270 C257 0.928 . S
H271 C256 0.929 . S
H272 C254 0.932 1_556 S
C273 C274 1.386 . S
C273 C275 1.397 . S
C273 H297 0.931 . S
C274 C273 1.386 . S
C274 C278 1.397 . S
C275 C273 1.397 . S
C275 C276 1.384 . S
C275 H298 0.930 . S
C276 C275 1.384 . S
C276 C277 1.377 . S
C276 C279 1.481 . S
C277 C276 1.377 . S
C277 C278 1.389 . S
C277 H299 0.929 . S
C278 C274 1.397 . S
C278 C277 1.389 . S
C278 H300 0.931 . S
C279 C276 1.481 . S
C279 C280 1.387 1_556 S
C279 C284 1.390 1_556 S
C280 C279 1.387 1_554 S
C280 C281 1.401 . S
C280 H301 0.930 1_554 S
C281 C280 1.401 . S
C281 C282 1.376 . S
C281 C290 1.511 . S
C282 C281 1.376 . S
C282 C283 1.392 . S
C282 H303 0.931 . S
C283 C282 1.392 . S
C283 C284 1.361 . S
C283 C285 1.500 . S
C284 C279 1.390 1_554 S
C284 C283 1.361 . S
C284 H302 0.931 . S
C285 C283 1.500 . S
C285 C286 1.371 . S
C285 C287 1.365 . S
C286 C285 1.371 . S
C286 C296 1.386 . S
C286 H304 0.931 . S
C287 C285 1.365 . S
C287 C288 1.409 . S
C287 H305 0.929 . S
C288 C287 1.409 . S
C288 C289 1.380 . S
C288 H306 0.930 . S
C289 C288 1.380 . S
C289 C296 1.357 . S
C290 C281 1.511 . S
C290 C291 1.341 . S
C290 C292 1.371 . S
C291 C290 1.341 . S
C291 C295 1.394 . S
C291 H307 0.930 . S
C292 C290 1.371 . S
C292 C293 1.392 . S
C292 H308 0.931 . S
C293 C292 1.392 . S
C293 C294 1.331 . S
C293 H311 0.932 . S
C294 C293 1.331 . S
C294 C295 1.336 . S
C295 C291 1.394 . S
C295 C294 1.336 . S
C295 H310 0.929 . S
C296 C286 1.386 . S
C296 C289 1.357 . S
C296 H309 0.928 . S
H297 C273 0.931 . S
H298 C275 0.930 . S
H299 C277 0.929 . S
H300 C278 0.931 . S
H301 C280 0.930 1_556 S
H302 C284 0.931 . S
H303 C282 0.931 . S
H304 C286 0.931 . S
H305 C287 0.929 . S
H306 C288 0.930 . S
H307 C291 0.930 . S
H308 C292 0.931 . S
H309 C296 0.928 . S
H310 C295 0.929 . S
H311 C293 0.932 . S
Eu312 C321 2.828 . S
Eu312 O323 2.392 . S
Eu312 O325 2.418 1_545 S
Eu312 O330 2.373 1_655 S
Eu312 O333 2.488 . S
Eu312 O334 2.471 . S
Eu312 O335 2.349 1_655 S
Eu313 O322 2.373 1_455 S
Eu313 O326 2.488 . S
Eu313 O327 2.471 . S
Eu313 O328 2.349 . S
Eu313 O331 2.392 1_565 S
Eu313 O332 2.418 1_565 S
Eu313 C342 2.828 . S
C314 O332 1.244 . S
C314 O335 1.265 . S
C315 C316 1.379 1_655 S
C315 C319 1.373 . S
C315 C321 1.505 . S
C316 C315 1.379 1_455 S
C316 C318 1.369 . S
C316 H344 0.930 . S
C317 C319 1.383 . S
C317 C320 1.382 . S
C317 H345 0.930 . S
C318 C316 1.369 . S
C318 C320 1.392 1_455 S
C318 H346 0.930 . S
C319 C315 1.373 . S
C319 C317 1.383 . S
C319 H347 0.931 . S
C320 C317 1.382 . S
C320 C318 1.392 1_655 S
C321 Eu312 2.828 . S
C321 C315 1.505 . S
C321 O333 1.249 . S
C321 O334 1.244 . S
O322 Eu313 2.373 1_655 S
O322 C324 1.261 . S
O323 Eu312 2.392 . S
O323 C324 1.236 1_545 S
C324 O322 1.261 . S
C324 O323 1.236 1_565 S
O325 Eu312 2.418 1_565 S
O325 C329 1.244 . S
O326 Eu313 2.488 . S
O326 C342 1.249 . S
O327 Eu313 2.471 . S
O327 C342 1.244 . S
O328 Eu313 2.349 . S
O328 C329 1.265 1_455 S
C329 O325 1.244 . S
C329 O328 1.265 1_655 S
O330 Eu312 2.373 1_455 S
O330 C343 1.258 . S
O331 Eu313 2.392 1_545 S
O331 C343 1.242 . S
O332 Eu313 2.418 1_545 S
O332 C314 1.244 . S
O333 Eu312 2.488 . S
O333 C321 1.249 . S
O334 Eu312 2.471 . S
O334 C321 1.244 . S
O335 Eu312 2.349 1_455 S
O335 C314 1.265 . S
C336 C337 1.379 . S
C336 C340 1.373 1_556 S
C336 C342 1.505 . S
C337 C336 1.379 . S
C337 C339 1.369 . S
C337 H348 0.930 1_455 S
C338 C340 1.383 . S
C338 C341 1.382 . S
C338 H349 0.930 . S
C339 C337 1.369 . S
C339 C341 1.392 1_556 S
C339 H350 0.930 1_455 S
C340 C336 1.373 1_554 S
C340 C338 1.383 . S
C340 H351 0.931 . S
C341 C338 1.382 . S
C341 C339 1.392 1_554 S
C342 Eu313 2.828 . S
C342 O326 1.249 . S
C342 O327 1.244 . S
C342 C336 1.505 . S
C343 O330 1.258 . S
C343 O331 1.242 . S
H344 C316 0.930 . S
H345 C317 0.930 . S
H346 C318 0.930 . S
H347 C319 0.931 . S
H348 C337 0.930 1_655 S
H349 C338 0.930 . S
H350 C339 0.930 1_655 S
H351 C340 0.931 . S
Eu352 C361 2.828 . S
Eu352 O363 2.392 . S
Eu352 O365 2.418 . S
Eu352 O370 2.373 . S
Eu352 O373 2.488 . S
Eu352 O374 2.471 . S
Eu352 O375 2.349 1_545 S
Eu353 O362 2.373 1_565 S
Eu353 O366 2.488 . S
Eu353 O367 2.471 1_565 S
Eu353 O368 2.349 1_565 S
Eu353 O371 2.392 . S
Eu353 O372 2.418 . S
Eu353 C382 2.828 . S
C354 O372 1.244 . S
C354 O375 1.265 . S
C355 C356 1.379 . S
C355 C359 1.373 . S
C355 C361 1.505 . S
C356 C355 1.379 . S
C356 C358 1.369 . S
C356 H384 0.930 1_545 S
C357 C359 1.383 . S
C357 C360 1.382 . S
C357 H385 0.930 . S
C358 C356 1.369 . S
C358 C360 1.392 . S
C358 H386 0.930 1_545 S
C359 C355 1.373 . S
C359 C357 1.383 . S
C359 H387 0.931 . S
C360 C357 1.382 . S
C360 C358 1.392 . S
C361 Eu352 2.828 . S
C361 C355 1.505 . S
C361 O373 1.249 . S
C361 O374 1.244 . S
O362 Eu353 2.373 1_545 S
O362 C364 1.258 . S
O363 Eu352 2.392 . S
O363 C364 1.242 . S
C364 O362 1.258 . S
C364 O363 1.242 . S
O365 Eu352 2.418 . S
O365 C369 1.244 . S
O366 Eu353 2.488 . S
O366 C382 1.249 . S
O367 Eu353 2.471 1_545 S
O367 C382 1.244 1_545 S
O368 Eu353 2.349 1_545 S
O368 C369 1.265 . S
C369 O365 1.244 . S
C369 O368 1.265 . S
O370 Eu352 2.373 . S
O370 C383 1.258 1_545 S
O371 Eu353 2.392 . S
O371 C383 1.242 . S
O372 Eu353 2.418 . S
O372 C354 1.244 . S
O373 Eu352 2.488 . S
O373 C361 1.249 . S
O374 Eu352 2.471 . S
O374 C361 1.244 . S
O375 Eu352 2.349 1_565 S
O375 C354 1.265 . S
C376 C377 1.379 1_565 S
C376 C380 1.373 . S
C376 C382 1.505 . S
C377 C376 1.379 1_545 S
C377 C379 1.369 . S
C377 H388 0.930 . S
C378 C380 1.383 . S
C378 C381 1.382 . S
C378 H389 0.930 . S
C379 C377 1.369 . S
C379 C381 1.392 1_545 S
C379 H390 0.930 . S
C380 C376 1.373 . S
C380 C378 1.383 . S
C380 H391 0.931 . S
C381 C378 1.382 . S
C381 C379 1.392 1_565 S
C382 Eu353 2.828 . S
C382 O366 1.249 . S
C382 O367 1.244 1_565 S
C382 C376 1.505 . S
C383 O370 1.258 1_565 S
C383 O371 1.242 . S
H384 C356 0.930 1_565 S
H385 C357 0.930 . S
H386 C358 0.930 1_565 S
H387 C359 0.931 . S
H388 C377 0.930 . S
H389 C378 0.930 . S
H390 C379 0.930 . S
H391 C380 0.931 . S
Eu392 C401 2.828 . S
Eu392 O403 2.392 . S
Eu392 O405 2.418 . S
Eu392 O410 2.373 . S
Eu392 O413 2.488 . S
Eu392 O414 2.471 . S
Eu392 O415 2.349 . S
Eu393 O402 2.373 . S
Eu393 O406 2.488 . S
Eu393 O407 2.471 . S
Eu393 O408 2.349 . S
Eu393 O411 2.392 . S
Eu393 O412 2.418 . S
Eu393 C422 2.828 . S
C394 O412 1.244 . S
C394 O415 1.265 . S
C395 C396 1.379 . S
C395 C399 1.373 . S
C395 C401 1.505 . S
C396 C395 1.379 . S
C396 C398 1.369 . S
C396 H424 0.930 . S
C397 C399 1.383 . S
C397 C400 1.382 . S
C397 H425 0.930 . S
C398 C396 1.369 . S
C398 C400 1.392 . S
C398 H426 0.930 . S
C399 C395 1.373 . S
C399 C397 1.383 . S
C399 H427 0.931 . S
C400 C397 1.382 . S
C400 C398 1.392 . S
C401 Eu392 2.828 . S
C401 C395 1.505 . S
C401 O413 1.249 . S
C401 O414 1.244 . S
O402 Eu393 2.373 . S
O402 C404 1.258 . S
O403 Eu392 2.392 . S
O403 C404 1.242 . S
C404 O402 1.258 . S
C404 O403 1.242 . S
O405 Eu392 2.418 . S
O405 C409 1.244 . S
O406 Eu393 2.488 . S
O406 C422 1.249 . S
O407 Eu393 2.471 . S
O407 C422 1.244 . S
O408 Eu393 2.349 . S
O408 C409 1.265 . S
C409 O405 1.244 . S
C409 O408 1.265 . S
O410 Eu392 2.373 . S
O410 C423 1.258 . S
O411 Eu393 2.392 . S
O411 C423 1.242 . S
O412 Eu393 2.418 . S
O412 C394 1.244 . S
O413 Eu392 2.488 . S
O413 C401 1.249 . S
O414 Eu392 2.471 . S
O414 C401 1.244 . S
O415 Eu392 2.349 . S
O415 C394 1.265 . S
C416 C417 1.379 . S
C416 C420 1.373 . S
C416 C422 1.505 . S
C417 C416 1.379 . S
C417 C419 1.369 . S
C417 H428 0.930 . S
C418 C420 1.383 . S
C418 C421 1.382 . S
C418 H429 0.930 . S
C419 C417 1.369 . S
C419 C421 1.392 . S
C419 H430 0.930 . S
C420 C416 1.373 . S
C420 C418 1.383 . S
C420 H431 0.931 . S
C421 C418 1.382 . S
C421 C419 1.392 . S
C422 Eu393 2.828 . S
C422 O406 1.249 . S
C422 O407 1.244 . S
C422 C416 1.505 . S
C423 O410 1.258 . S
C423 O411 1.242 . S
H424 C396 0.930 . S
H425 C397 0.930 . S
H426 C398 0.930 . S
H427 C399 0.931 . S
H428 C417 0.930 . S
H429 C418 0.930 . S
H430 C419 0.930 . S
H431 C420 0.931 . S
Eu432 C441 2.828 . S
Eu432 O443 2.392 . S
Eu432 O445 2.418 1_455 S
Eu432 O450 2.373 . S
Eu432 O453 2.488 . S
Eu432 O454 2.471 . S
Eu432 O455 2.349 . S
Eu433 O442 2.373 . S
Eu433 O446 2.488 . S
Eu433 O447 2.471 . S
Eu433 O448 2.349 . S
Eu433 O451 2.392 1_655 S
Eu433 O452 2.418 1_655 S
Eu433 C462 2.828 . S
C434 O452 1.244 . S
C434 O455 1.265 . S
C435 C436 1.379 . S
C435 C439 1.373 . S
C435 C441 1.505 . S
C436 C435 1.379 . S
C436 C438 1.369 . S
C436 H464 0.930 . S
C437 C439 1.383 . S
C437 C440 1.382 . S
C437 H465 0.930 . S
C438 C436 1.369 . S
C438 C440 1.392 . S
C438 H466 0.930 . S
C439 C435 1.373 . S
C439 C437 1.383 . S
C439 H467 0.931 . S
C440 C437 1.382 . S
C440 C438 1.392 . S
C441 Eu432 2.828 . S
C441 C435 1.505 . S
C441 O453 1.249 . S
C441 O454 1.244 . S
O442 Eu433 2.373 . S
O442 C444 1.258 . S
O443 Eu432 2.392 . S
O443 C444 1.242 1_455 S
C444 O442 1.258 . S
C444 O443 1.242 1_655 S
O445 Eu432 2.418 1_655 S
O445 C449 1.244 . S
O446 Eu433 2.488 . S
O446 C462 1.249 . S
O447 Eu433 2.471 . S
O447 C462 1.244 . S
O448 Eu433 2.349 . S
O448 C449 1.265 . S
C449 O445 1.244 . S
C449 O448 1.265 . S
O450 Eu432 2.373 . S
O450 C463 1.258 . S
O451 Eu433 2.392 1_455 S
O451 C463 1.242 . S
O452 Eu433 2.418 1_455 S
O452 C434 1.244 . S
O453 Eu432 2.488 . S
O453 C441 1.249 . S
O454 Eu432 2.471 . S
O454 C441 1.244 . S
O455 Eu432 2.349 . S
O455 C434 1.265 . S
C456 C457 1.379 . S
C456 C460 1.373 . S
C456 C462 1.505 . S
C457 C456 1.379 . S
C457 C459 1.369 . S
C457 H468 0.930 . S
C458 C460 1.383 1_554 S
C458 C461 1.382 . S
C458 H469 0.930 . S
C459 C457 1.369 . S
C459 C461 1.392 1_556 S
C459 H470 0.930 . S
C460 C456 1.373 . S
C460 C458 1.383 1_556 S
C460 H471 0.931 . S
C461 C458 1.382 . S
C461 C459 1.392 1_554 S
C462 Eu433 2.828 . S
C462 O446 1.249 . S
C462 O447 1.244 . S
C462 C456 1.505 . S
C463 O450 1.258 . S
C463 O451 1.242 . S
H464 C436 0.930 . S
H465 C437 0.930 . S
H466 C438 0.930 . S
H467 C439 0.931 . S
H468 C457 0.930 . S
H469 C458 0.930 . S
H470 C459 0.930 . S
H471 C460 0.931 . S
C472 C473 1.369 . S
C472 C474 1.419 . S
C472 H476 0.930 . S
C473 C472 1.369 . S
C473 C482 1.429 . S
C474 C472 1.419 . S
C474 C475 1.363 . S
C474 H477 0.929 . S
C475 C474 1.363 . S
C475 C481 1.428 . S
H476 C472 0.930 . S
H477 C474 0.929 . S
S478 N479 1.613 . S
S478 N480 1.610 . S
N479 S478 1.613 . S
N479 C482 1.350 1_565 S
N480 S478 1.610 . S
N480 C481 1.351 1_565 S
C481 C475 1.428 . S
C481 N480 1.351 1_545 S
C481 C482 1.434 . S
C482 C473 1.429 . S
C482 N479 1.350 1_545 S
C482 C481 1.434 . S
C483 C484 1.369 . S
C483 C485 1.419 . S
C483 H487 0.930 . S
C484 C483 1.369 . S
C484 C493 1.429 . S
C485 C483 1.419 . S
C485 C486 1.363 . S
C485 H488 0.929 . S
C486 C485 1.363 . S
C486 C492 1.428 . S
H487 C483 0.930 . S
H488 C485 0.929 . S
S489 N490 1.613 . S
S489 N491 1.610 . S
N490 S489 1.613 . S
N490 C493 1.350 . S
N491 S489 1.610 . S
N491 C492 1.351 . S
C492 C486 1.428 . S
C492 N491 1.351 . S
C492 C493 1.434 . S
C493 C484 1.429 . S
C493 N490 1.350 . S
C493 C492 1.434 . S
C494 C495 1.369 . S
C494 C496 1.419 . S
C494 H498 0.930 . S
C495 C494 1.369 . S
C495 C504 1.429 . S
C496 C494 1.419 . S
C496 C497 1.363 . S
C496 H499 0.929 . S
C497 C496 1.363 . S
C497 C503 1.428 . S
H498 C494 0.930 . S
H499 C496 0.929 . S
S500 N501 1.613 . S
S500 N502 1.610 . S
N501 S500 1.613 . S
N501 C504 1.350 . S
N502 S500 1.610 . S
N502 C503 1.351 . S
C503 C497 1.428 . S
C503 N502 1.351 . S
C503 C504 1.434 . S
C504 C495 1.429 . S
C504 N501 1.350 . S
C504 C503 1.434 . S
C505 C506 1.369 . S
C505 C507 1.419 . S
C505 H509 0.930 . S
C506 C505 1.369 . S
C506 C515 1.429 . S
C507 C505 1.419 . S
C507 C508 1.363 . S
C507 H510 0.929 1_455 S
C508 C507 1.363 . S
C508 C514 1.428 . S
H509 C505 0.930 . S
H510 C507 0.929 1_655 S
S511 N512 1.613 . S
S511 N513 1.610 . S
N512 S511 1.613 . S
N512 C515 1.350 . S
N513 S511 1.610 . S
N513 C514 1.351 . S
C514 C508 1.428 . S
C514 N513 1.351 . S
C514 C515 1.434 . S
C515 C506 1.429 . S
C515 N512 1.350 . S
C515 C514 1.434 . S
C516 C517 1.369 . S
C516 C518 1.419 1_554 S
C516 H520 0.930 . S
C517 C516 1.369 . S
C517 C526 1.429 1_565 S
C518 C516 1.419 1_556 S
C518 C519 1.363 . S
C518 H521 0.929 . S
C519 C518 1.363 . S
C519 C525 1.428 1_566 S
H520 C516 0.930 . S
H521 C518 0.929 . S
S522 N523 1.613 . S
S522 N524 1.610 1_554 S
N523 S522 1.613 . S
N523 C526 1.350 . S
N524 S522 1.610 1_556 S
N524 C525 1.351 1_556 S
C525 C519 1.428 1_544 S
C525 N524 1.351 1_554 S
C525 C526 1.434 . S
C526 C517 1.429 1_545 S
C526 N523 1.350 . S
C526 C525 1.434 . S
C527 C528 1.369 . S
C527 C529 1.419 1_554 S
C527 H531 0.930 . S
C528 C527 1.369 . S
C528 C537 1.429 . S
C529 C527 1.419 1_556 S
C529 C530 1.363 . S
C529 H532 0.929 . S
C530 C529 1.363 . S
C530 C536 1.428 . S
H531 C527 0.930 . S
H532 C529 0.929 . S
S533 N534 1.613 1_556 S
S533 N535 1.610 . S
N534 S533 1.613 1_554 S
N534 C537 1.350 . S
N535 S533 1.610 . S
N535 C536 1.351 . S
C536 C530 1.428 . S
C536 N535 1.351 . S
C536 C537 1.434 1_556 S
C537 C528 1.429 . S
C537 N534 1.350 . S
C537 C536 1.434 1_554 S
C538 C539 1.369 . S
C538 C540 1.419 1_554 S
C538 H542 0.930 . S
C539 C538 1.369 . S
C539 C548 1.429 . S
C540 C538 1.419 1_556 S
C540 C541 1.363 . S
C540 H543 0.929 . S
C541 C540 1.363 . S
C541 C547 1.428 . S
H542 C538 0.930 . S
H543 C540 0.929 . S
S544 N545 1.613 1_556 S
S544 N546 1.610 . S
N545 S544 1.613 1_554 S
N545 C548 1.350 . S
N546 S544 1.610 . S
N546 C547 1.351 . S
C547 C541 1.428 . S
C547 N546 1.351 . S
C547 C548 1.434 1_556 S
C548 C539 1.429 . S
C548 N545 1.350 . S
C548 C547 1.434 1_554 S
C549 C550 1.369 . S
C549 C551 1.419 1_554 S
C549 H553 0.930 . S
C550 C549 1.369 . S
C550 C559 1.429 1_655 S
C551 C549 1.419 1_556 S
C551 C552 1.363 . S
C551 H554 0.929 . S
C552 C551 1.363 . S
C552 C558 1.428 1_655 S
H553 C549 0.930 . S
H554 C551 0.929 . S
S555 N556 1.613 . S
S555 N557 1.610 1_554 S
N556 S555 1.613 . S
N556 C559 1.350 . S
N557 S555 1.610 1_556 S
N557 C558 1.351 . S
C558 C552 1.428 1_455 S
C558 N557 1.351 . S
C558 C559 1.434 1_556 S
C559 C550 1.429 1_455 S
C559 N556 1.350 . S
C559 C558 1.434 1_554 S
C560 C561 1.369 . S
C560 C562 1.419 . S
C560 H564 0.930 . S
C561 C560 1.369 . S
C561 C570 1.429 . S
C562 C560 1.419 . S
C562 C563 1.359 1_455 S
C562 H565 0.929 . S
C563 C562 1.359 1_655 S
C563 C569 1.424 1_655 S
H564 C560 0.930 . S
H565 C562 0.929 . S
S566 N567 1.613 . S
S566 N568 1.610 . S
N567 S566 1.613 . S
N567 C570 1.350 . S
N568 S566 1.610 . S
N568 C569 1.351 . S
C569 C563 1.424 1_455 S
C569 N568 1.351 . S
C569 C570 1.434 . S
C570 C561 1.429 . S
C570 N567 1.350 . S
C570 C569 1.434 . S
C571 C572 1.369 . S
C571 C573 1.419 1_545 S
C571 H575 0.930 . S
C572 C571 1.369 . S
C572 C581 1.429 . S
C573 C571 1.419 1_565 S
C573 C574 1.363 . S
C573 H576 0.929 . S
C574 C573 1.363 . S
C574 C580 1.428 1_565 S
H575 C571 0.930 . S
H576 C573 0.929 . S
S577 N578 1.613 . S
S577 N579 1.610 . S
N578 S577 1.613 . S
N578 C581 1.350 . S
N579 S577 1.610 . S
N579 C580 1.351 . S
C580 C574 1.428 1_545 S
C580 N579 1.351 . S
C580 C581 1.434 . S
C581 C572 1.429 . S
C581 N578 1.350 . S
C581 C580 1.434 . S
C582 C583 1.369 . S
C582 C584 1.419 . S
C582 H586 0.930 . S
C583 C582 1.369 . S
C583 C592 1.429 . S
C584 C582 1.419 . S
C584 C585 1.363 . S
C584 H587 0.929 . S
C585 C584 1.363 . S
C585 C591 1.428 . S
H586 C582 0.930 . S
H587 C584 0.929 . S
S588 N589 1.613 . S
S588 N590 1.610 . S
N589 S588 1.613 . S
N589 C592 1.350 . S
N590 S588 1.610 . S
N590 C591 1.351 . S
C591 C585 1.428 . S
C591 N590 1.351 . S
C591 C592 1.434 . S
C592 C583 1.429 . S
C592 N589 1.350 . S
C592 C591 1.434 . S
C593 C594 1.369 . S
C593 C595 1.419 . S
C593 H597 0.930 . S
C594 C593 1.369 . S
C594 C603 1.429 . S
C595 C593 1.419 . S
C595 C596 1.363 . S
C595 H598 0.929 . S
C596 C595 1.363 . S
C596 C602 1.428 . S
H597 C593 0.930 . S
H598 C595 0.929 . S
S599 N600 1.613 . S
S599 N601 1.610 . S
N600 S599 1.613 . S
N600 C603 1.350 . S
N601 S599 1.610 . S
N601 C602 1.351 . S
C602 C596 1.428 . S
C602 N601 1.351 . S
C602 C603 1.434 . S
C603 C594 1.429 . S
C603 N600 1.350 . S
C603 C602 1.434 . S
C604 C605 1.369 . S
C604 C606 1.419 1_655 S
C604 H608 0.930 . S
C605 C604 1.369 . S
C605 C614 1.429 . S
C606 C604 1.419 1_455 S
C606 C607 1.363 . S
C606 H609 0.929 . S
C607 C606 1.363 . S
C607 C613 1.428 1_455 S
H608 C604 0.930 . S
H609 C606 0.929 . S
S610 N611 1.613 . S
S610 N612 1.610 . S
N611 S610 1.613 . S
N611 C614 1.350 . S
N612 S610 1.610 . S
N612 C613 1.351 . S
C613 C607 1.428 1_655 S
C613 N612 1.351 . S
C613 C614 1.434 . S
C614 C605 1.429 . S
C614 N611 1.350 . S
C614 C613 1.434 . S
C615 C616 1.369 . S
C615 C617 1.419 1_564 S
C615 H619 0.930 . S
C616 C615 1.369 . S
C616 C625 1.429 . S
C617 C615 1.419 1_546 S
C617 C618 1.363 . S
C617 H620 0.929 . S
C618 C617 1.363 . S
C618 C624 1.428 1_556 S
H619 C615 0.930 . S
H620 C617 0.929 . S
S621 N622 1.613 . S
S621 N623 1.610 1_565 S
N622 S621 1.613 . S
N622 C625 1.350 . S
N623 S621 1.610 1_545 S
N623 C624 1.351 . S
C624 C618 1.428 1_554 S
C624 N623 1.351 . S
C624 C625 1.434 1_545 S
C625 C616 1.429 . S
C625 N622 1.350 . S
C625 C624 1.434 1_565 S
C626 C627 1.369 1_556 S
C626 C628 1.419 . S
C626 H630 0.930 . S
C627 C626 1.369 1_554 S
C627 C636 1.429 . S
C628 C626 1.419 . S
C628 C629 1.363 . S
C628 H631 0.929 . S
C629 C628 1.363 . S
C629 C635 1.428 1_556 S
H630 C626 0.930 . S
H631 C628 0.929 . S
S632 N633 1.613 . S
S632 N634 1.610 . S
N633 S632 1.613 . S
N633 C636 1.350 . S
N634 S632 1.610 . S
N634 C635 1.351 . S
C635 C629 1.428 1_554 S
C635 N634 1.351 . S
C635 C636 1.434 . S
C636 C627 1.429 . S
C636 N633 1.350 . S
C636 C635 1.434 . S
C637 C638 1.369 . S
C637 C639 1.419 . S
C637 H641 0.930 . S
C638 C637 1.369 . S
C638 C647 1.429 . S
C639 C637 1.419 . S
C639 C640 1.363 . S
C639 H642 0.929 . S
C640 C639 1.363 . S
C640 C646 1.428 . S
H641 C637 0.930 . S
H642 C639 0.929 . S
S643 N644 1.613 . S
S643 N645 1.610 . S
N644 S643 1.613 . S
N644 C647 1.350 . S
N645 S643 1.610 . S
N645 C646 1.351 . S
C646 C640 1.428 . S
C646 N645 1.351 . S
C646 C647 1.434 . S
C647 C638 1.429 . S
C647 N644 1.350 . S
C647 C646 1.434 . S
C648 C649 1.369 . S
C648 C650 1.419 . S
C648 H652 0.930 . S
C649 C648 1.369 . S
C649 C658 1.429 . S
C650 C648 1.419 . S
C650 C651 1.363 . S
C650 H653 0.929 . S
C651 C650 1.363 . S
C651 C657 1.428 . S
H652 C648 0.930 . S
H653 C650 0.929 . S
S654 N655 1.613 . S
S654 N656 1.610 . S
N655 S654 1.613 . S
N655 C658 1.350 . S
N656 S654 1.610 . S
N656 C657 1.351 . S
C657 C651 1.428 . S
C657 N656 1.351 . S
C657 C658 1.434 . S
C658 C649 1.429 . S
C658 N655 1.350 . S
C658 C657 1.434 . S
C659 C660 1.369 . S
C659 C661 1.419 . S
C659 H663 0.930 . S
C660 C659 1.369 . S
C660 C669 1.429 . S
C661 C659 1.419 . S
C661 C662 1.363 . S
C661 H664 0.929 . S
C662 C661 1.363 . S
C662 C668 1.428 . S
H663 C659 0.930 . S
H664 C661 0.929 . S
S665 N666 1.613 . S
S665 N667 1.610 . S
N666 S665 1.613 . S
N666 C669 1.350 . S
N667 S665 1.610 . S
N667 C668 1.351 . S
C668 C662 1.428 . S
C668 N667 1.351 . S
C668 C669 1.434 . S
C669 C660 1.429 . S
C669 N666 1.350 . S
C669 C668 1.434 . S
C670 C671 1.369 . S
C670 C672 1.419 . S
C670 H674 0.930 . S
C671 C670 1.369 . S
C671 C680 1.429 . S
C672 C670 1.419 . S
C672 C673 1.363 . S
C672 H675 0.929 . S
C673 C672 1.363 . S
C673 C679 1.428 . S
H674 C670 0.930 . S
H675 C672 0.929 . S
S676 N677 1.613 . S
S676 N678 1.610 . S
N677 S676 1.613 . S
N677 C680 1.350 . S
N678 S676 1.610 . S
N678 C679 1.351 . S
C679 C673 1.428 . S
C679 N678 1.351 . S
C679 C680 1.434 . S
C680 C671 1.429 . S
C680 N677 1.350 . S
C680 C679 1.434 . S
C681 C682 1.369 . S
C681 C683 1.419 . S
C681 H685 0.930 . S
C682 C681 1.369 . S
C682 C691 1.429 . S
C683 C681 1.419 . S
C683 C684 1.363 . S
C683 H686 0.929 . S
C684 C683 1.363 . S
C684 C690 1.428 . S
H685 C681 0.930 . S
H686 C683 0.929 . S
S687 N688 1.613 . S
S687 N689 1.610 . S
N688 S687 1.613 . S
N688 C691 1.350 . S
N689 S687 1.610 . S
N689 C690 1.351 . S
C690 C684 1.428 . S
C690 N689 1.351 . S
C690 C691 1.434 . S
C691 C682 1.429 . S
C691 N688 1.350 . S
C691 C690 1.434 . S
C692 C693 1.369 . S
C692 C694 1.419 . S
C692 H696 0.930 1_655 S
C693 C692 1.369 . S
C693 C702 1.429 . S
C694 C692 1.419 . S
C694 C695 1.363 . S
C694 H697 0.929 1_655 S
C695 C694 1.363 . S
C695 C701 1.428 . S
H696 C692 0.930 1_455 S
H697 C694 0.929 1_455 S
S698 N699 1.613 . S
S698 N700 1.610 . S
N699 S698 1.613 . S
N699 C702 1.350 . S
N700 S698 1.610 . S
N700 C701 1.351 . S
C701 C695 1.428 . S
C701 N700 1.351 . S
C701 C702 1.434 . S
C702 C693 1.429 . S
C702 N699 1.350 . S
C702 C701 1.434 . S
C703 C704 1.369 . S
C703 C705 1.419 . S
C703 H707 0.930 . S
C704 C703 1.369 . S
C704 C713 1.429 . S
C705 C703 1.419 . S
C705 C706 1.363 . S
C705 H708 0.929 . S
C706 C705 1.363 . S
C706 C712 1.428 . S
H707 C703 0.930 . S
H708 C705 0.929 . S
S709 N710 1.613 1_545 S
S709 N711 1.605 1_545 S
N710 S709 1.613 1_565 S
N710 C713 1.350 . S
N711 S709 1.605 1_565 S
N711 C712 1.364 . S
C712 C706 1.428 . S
C712 N711 1.364 . S
C712 C713 1.434 . S
C713 C704 1.429 . S
C713 N710 1.350 . S
C713 C712 1.434 . S
C714 C715 1.369 . S
C714 C716 1.419 . S
C714 H718 0.930 . S
C715 C714 1.369 . S
C715 C724 1.429 . S
C716 C714 1.419 . S
C716 C717 1.363 . S
C716 H719 0.929 . S
C717 C716 1.363 . S
C717 C723 1.428 . S
H718 C714 0.930 . S
H719 C716 0.929 . S
S720 N721 1.613 . S
S720 N722 1.610 . S
N721 S720 1.613 . S
N721 C724 1.350 . S
N722 S720 1.610 . S
N722 C723 1.351 . S
C723 C717 1.428 . S
C723 N722 1.351 . S
C723 C724 1.434 . S
C724 C715 1.429 . S
C724 N721 1.350 . S
C724 C723 1.434 . S
C725 C726 1.369 . S
C725 C727 1.419 . S
C725 H729 0.930 . S
C726 C725 1.369 . S
C726 C735 1.429 . S
C727 C725 1.419 . S
C727 C728 1.363 . S
C727 H730 0.929 . S
C728 C727 1.363 . S
C728 C734 1.428 . S
H729 C725 0.930 . S
H730 C727 0.929 . S
S731 N732 1.613 . S
S731 N733 1.610 . S
N732 S731 1.613 . S
N732 C735 1.350 . S
N733 S731 1.610 . S
N733 C734 1.351 . S
C734 C728 1.428 . S
C734 N733 1.351 . S
C734 C735 1.434 . S
C735 C726 1.429 . S
C735 N732 1.350 . S
C735 C734 1.434 . S
C473 C255 3.000 . S
C475 C343 3.272 . S
C486 C369 2.937 . S
C484 C294 2.543 . S
C497 C409 2.811 . S
C495 C177 2.491 . S
C508 C463 3.172 . S
C506 C216 2.924 . S
C519 C324 3.276 . S
C517 C99 3.006 . S
C528 C138 2.555 . S
C530 C354 2.934 . S
C539 C21 2.497 . S
C541 C394 2.813 . S
C550 C60 2.935 . S
C552 C444 3.171 . S
C563 C320 0.868 . S
C561 C196 0.826 . S
C574 C381 0.934 . S
C572 C235 0.956 . S
C585 C421 0.614 . S
C583 C289 0.575 . S
C594 C157 0.730 . S
C596 C440 0.751 . S
C605 C40 0.852 . S
C607 C341 0.851 . S
C618 C360 0.934 . S
C616 C79 0.964 . S
C629 C400 0.601 . S
C627 C133 0.573 . S
C638 C1 0.731 . S
C640 C461 0.749 . S
C649 C211 2.894 . S
C651 C314 3.401 . S
C660 C250 3.356 . S
C662 C364 3.804 . S
C673 C404 3.575 . S
C671 C274 3.148 . S
C684 C434 3.128 . S
C682 C172 2.641 . S
C693 C55 2.889 . S
C695 C329 3.401 . S
C706 C383 3.806 . S
C704 C94 3.349 . S
C717 C423 3.574 . S
C715 C118 3.150 . S
C726 C16 2.644 . S
C728 C449 3.126 . S
