# Generated by pormake.
# Topology dag, (6,3)-cn, num edge types: 1
# Building blocks:
#     Node 0, Type 0, BuildingBlock: OJICUG_clean_sbu_0, # of connection points: 6
#     Node 1, Type 0, BuildingBlock: OJICUG_clean_sbu_0, # of connection points: 6
#     Node 2, Type 0, BuildingBlock: OJICUG_clean_sbu_0, # of connection points: 6
#     Node 3, Type 0, BuildingBlock: OJICUG_clean_sbu_0, # of connection points: 6
#     Node 4, Type 1, BuildingBlock: MIDCAF_clean_linker_0, # of connection points: 3
#     Node 5, Type 1, BuildingBlock: MIDCAF_clean_linker_0, # of connection points: 3
#     Node 6, Type 1, BuildingBlock: MIDCAF_clean_linker_0, # of connection points: 3
#     Node 7, Type 1, BuildingBlock: MIDCAF_clean_linker_0, # of connection points: 3
#     Node 8, Type 1, BuildingBlock: MIDCAF_clean_linker_0, # of connection points: 3
#     Node 9, Type 1, BuildingBlock: MIDCAF_clean_linker_0, # of connection points: 3
#     Node 10, Type 1, BuildingBlock: MIDCAF_clean_linker_0, # of connection points: 3
#     Node 11, Type 1, BuildingBlock: MIDCAF_clean_linker_0, # of connection points: 3
#     Edge 12, Type (0, 1), BuildingBlock: OJICUG_clean_linker_0, # of connection points: 2
#     Edge 13, Type (0, 1), BuildingBlock: OJICUG_clean_linker_0, # of connection points: 2
#     Edge 14, Type (0, 1), BuildingBlock: OJICUG_clean_linker_0, # of connection points: 2
#     Edge 15, Type (0, 1), BuildingBlock: OJICUG_clean_linker_0, # of connection points: 2
#     Edge 16, Type (0, 1), BuildingBlock: OJICUG_clean_linker_0, # of connection points: 2
#     Edge 17, Type (0, 1), BuildingBlock: OJICUG_clean_linker_0, # of connection points: 2
#     Edge 18, Type (0, 1), BuildingBlock: OJICUG_clean_linker_0, # of connection points: 2
#     Edge 19, Type (0, 1), BuildingBlock: OJICUG_clean_linker_0, # of connection points: 2
#     Edge 20, Type (0, 1), BuildingBlock: OJICUG_clean_linker_0, # of connection points: 2
#     Edge 21, Type (0, 1), BuildingBlock: OJICUG_clean_linker_0, # of connection points: 2
#     Edge 22, Type (0, 1), BuildingBlock: OJICUG_clean_linker_0, # of connection points: 2
#     Edge 23, Type (0, 1), BuildingBlock: OJICUG_clean_linker_0, # of connection points: 2
#     Edge 24, Type (0, 1), BuildingBlock: OJICUG_clean_linker_0, # of connection points: 2
#     Edge 25, Type (0, 1), BuildingBlock: OJICUG_clean_linker_0, # of connection points: 2
#     Edge 26, Type (0, 1), BuildingBlock: OJICUG_clean_linker_0, # of connection points: 2
#     Edge 27, Type (0, 1), BuildingBlock: OJICUG_clean_linker_0, # of connection points: 2
#     Edge 28, Type (0, 1), BuildingBlock: OJICUG_clean_linker_0, # of connection points: 2
#     Edge 29, Type (0, 1), BuildingBlock: OJICUG_clean_linker_0, # of connection points: 2
#     Edge 30, Type (0, 1), BuildingBlock: OJICUG_clean_linker_0, # of connection points: 2
#     Edge 31, Type (0, 1), BuildingBlock: OJICUG_clean_linker_0, # of connection points: 2
#     Edge 32, Type (0, 1), BuildingBlock: OJICUG_clean_linker_0, # of connection points: 2
#     Edge 33, Type (0, 1), BuildingBlock: OJICUG_clean_linker_0, # of connection points: 2
#     Edge 34, Type (0, 1), BuildingBlock: OJICUG_clean_linker_0, # of connection points: 2
#     Edge 35, Type (0, 1), BuildingBlock: OJICUG_clean_linker_0, # of connection points: 2
# Relax obj value: 0.257
# Max RMSD: 0.201
# Mean RMSD: 0.166
data_MOF--net-dag--node1-OJICUG_clean_sbu_0--node2-MIDCAF_clean_linker_0--edge1-OJICUG_clean_linker_0
_symmetry_space_group_name_H-M    P1
_symmetry_Int_Tables_number       1
_symmetry_cell_setting            triclinic
loop_
_symmetry_equiv_pos_as_xyz
'x, y, z'
_cell_length_a     35.748207
_cell_length_b     34.089348
_cell_length_c     35.017576
_cell_angle_alpha  89.73344
_cell_angle_beta   95.258846
_cell_angle_gamma 89.980913
loop_
_atom_site_label
_atom_site_type_symbol
_atom_site_fract_x
_atom_site_fract_y
_atom_site_fract_z
_atom_type_partial_charge
Sc0 Sc 0.15407 0.87927 0.04027 0.0
Sc1 Sc 0.17407 0.80171 0.98023 0.0
Sc2 Sc 0.24743 0.8628 0.02067 0.0
O3 O 0.1919 0.84791 0.01357 0.0
C4 C 0.21034 0.9466 0.0162 0.0
C5 C 0.11245 0.86785 0.95671 0.0
C6 C 0.23783 0.83805 0.93269 0.0
C7 C 0.11918 0.79328 0.04601 0.0
C8 C 0.22109 0.87301 0.10501 0.0
C9 C 0.24874 0.76928 0.02744 0.0
O10 O 0.18087 0.93448 0.03022 0.0
O11 O 0.12931 0.83583 0.95066 0.0
O12 O 0.25633 0.85435 0.96098 0.0
O13 O 0.12226 0.82909 0.05534 0.0
O14 O 0.24646 0.87356 0.08177 0.0
O15 O 0.21754 0.7641 0.0074 0.0
O16 O 0.1862 0.87236 0.09437 0.0
O17 O 0.13682 0.77837 0.01979 0.0
O18 O 0.2628 0.80308 0.03458 0.0
O19 O 0.11884 0.88757 0.98746 0.0
O20 O 0.23635 0.92387 0.00738 0.0
O21 O 0.20783 0.81891 0.93568 0.0
Sc22 Sc 0.7404 0.63954 0.53169 0.0
Sc23 Sc 0.67133 0.70225 0.48422 0.0
Sc24 Sc 0.64501 0.61288 0.52372 0.0
O25 O 0.68566 0.65157 0.51316 0.0
C26 C 0.71099 0.55459 0.50622 0.0
C27 C 0.74785 0.67731 0.44961 0.0
C28 C 0.62016 0.63887 0.4375 0.0
C29 C 0.73391 0.7319 0.54778 0.0
C30 C 0.69686 0.61333 0.60308 0.0
C31 C 0.60297 0.69391 0.53582 0.0
O32 O 0.73748 0.57845 0.51558 0.0
O33 O 0.71798 0.69737 0.45042 0.0
O34 O 0.62026 0.61541 0.46578 0.0
O35 O 0.75039 0.69881 0.55085 0.0
O36 O 0.66637 0.60696 0.58246 0.0
O37 O 0.62293 0.71382 0.51469 0.0
O38 O 0.72671 0.62521 0.5894 0.0
O39 O 0.7039 0.73763 0.526 0.0
O40 O 0.60812 0.65752 0.5422 0.0
O41 O 0.7592 0.65284 0.47576 0.0
O42 O 0.67656 0.56339 0.50671 0.0
O43 O 0.63706 0.6718 0.43922 0.0
Sc44 Sc 0.82425 0.20579 0.09955 0.0
Sc45 Sc 0.75168 0.14081 0.0638 0.0
Sc46 Sc 0.84454 0.12727 0.04106 0.0
O47 O 0.80672 0.15797 0.06825 0.0
C48 C 0.87648 0.21395 0.03153 0.0
C49 C 0.74722 0.2344 0.05482 0.0
C50 C 0.77522 0.12959 0.97838 0.0
C51 C 0.76345 0.16905 0.15087 0.0
C52 C 0.88783 0.14208 0.12328 0.0
C53 C 0.79206 0.05819 0.06889 0.0
O54 O 0.8598 0.2287 0.05846 0.0
O55 O 0.73356 0.20004 0.0501 0.0
O56 O 0.81032 0.13075 0.98791 0.0
O57 O 0.7916 0.19014 0.14518 0.0
O58 O 0.88122 0.12185 0.09295 0.0
O59 O 0.76477 0.07986 0.07655 0.0
O60 O 0.8706 0.17389 0.12933 0.0
O61 O 0.7457 0.14918 0.1244 0.0
O62 O 0.82087 0.07172 0.05473 0.0
O63 O 0.77941 0.24104 0.07229 0.0
O64 O 0.87379 0.17798 0.02274 0.0
O65 O 0.75059 0.12982 0.00247 0.0
Sc66 Sc 0.35221 0.38158 0.55624 0.0
Sc67 Sc 0.25706 0.3542 0.55101 0.0
Sc68 Sc 0.32737 0.29335 0.59858 0.0
O69 O 0.31214 0.34303 0.56857 0.0
C70 C 0.39507 0.30101 0.54602 0.0
C71 C 0.29863 0.37881 0.47789 0.0
C72 C 0.26419 0.26144 0.53776 0.0
C73 C 0.28644 0.4399 0.5734 0.0
C74 C 0.37791 0.35827 0.64313 0.0
C75 C 0.25131 0.31866 0.63386 0.0
O76 O 0.38883 0.33683 0.53768 0.0
O77 O 0.26938 0.36629 0.49236 0.0
O78 O 0.29569 0.25693 0.55727 0.0
O79 O 0.32087 0.43107 0.57325 0.0
O80 O 0.36064 0.32558 0.64283 0.0
O81 O 0.24002 0.34346 0.60801 0.0
O82 O 0.37821 0.38035 0.61384 0.0
O83 O 0.25997 0.41594 0.5644 0.0
O84 O 0.28057 0.29782 0.63227 0.0
O85 O 0.32928 0.38636 0.49782 0.0
O86 O 0.37615 0.28195 0.56875 0.0
O87 O 0.24659 0.29392 0.53519 0.0
C88 C 0.0264 0.05223 0.22405 0.0
C89 C 0.00336 0.0827 0.23538 0.0
C90 C 0.01124 0.09901 0.27209 0.0
C91 C 0.04199 0.08583 0.29639 0.0
H92 H 0.12743 0.13358 0.36891 0.0
H93 H 0.15565 0.17956 0.41529 0.0
H94 H 0.2336 0.09014 0.46047 0.0
H95 H 0.20611 0.04417 0.41249 0.0
H96 H 0.22876 0.99655 0.31633 0.0
H97 H 0.26103 0.95238 0.27518 0.0
H98 H 0.15618 0.8917 0.24552 0.0
H99 H 0.12481 0.93485 0.28675 0.0
H100 H 0.0742 0.01581 0.23823 0.0
H101 H 0.02181 0.03943 0.19577 0.0
H102 H 0.99376 0.12205 0.28208 0.0
H103 H 0.04768 0.09944 0.32421 0.0
N104 N 0.11441 0.06694 0.3376 0.0
N105 N 0.16726 0.02577 0.34717 0.0
N106 N 0.11888 0.01146 0.29943 0.0
C107 C 0.148 0.05805 0.35715 0.0
C108 C 0.15246 0.00211 0.31853 0.0
C109 C 0.09967 0.04378 0.30867 0.0
C110 C 0.16448 0.08513 0.38697 0.0
C111 C 0.15042 0.12348 0.38883 0.0
C112 C 0.16651 0.14988 0.41573 0.0
C113 C 0.19675 0.13854 0.44196 0.0
C114 C 0.21062 0.1 0.44044 0.0
C115 C 0.19475 0.07359 0.41308 0.0
C116 C 0.17417 0.9695 0.30402 0.0
C117 C 0.21315 0.97268 0.30216 0.0
C118 C 0.23153 0.94758 0.27837 0.0
C119 C 0.21118 0.91886 0.2564 0.0
C120 C 0.17307 0.91314 0.262 0.0
C121 C 0.15481 0.93821 0.28545 0.0
C122 C 0.06527 0.05577 0.28467 0.0
C123 C 0.05672 0.03876 0.24845 0.0
C124 C 0.28336 0.62715 0.57392 0.0
C125 C 0.26877 0.60362 0.60198 0.0
C126 C 0.26109 0.62038 0.6369 0.0
C127 C 0.27033 0.6595 0.64474 0.0
H128 H 0.25188 0.75834 0.70954 0.0
H129 H 0.23462 0.78352 0.76965 0.0
H130 H 0.33864 0.84858 0.78475 0.0
H131 H 0.35682 0.82205 0.72424 0.0
H132 H 0.42638 0.7754 0.67323 0.0
H133 H 0.48956 0.76846 0.65214 0.0
H134 H 0.44146 0.75052 0.53595 0.0
H135 H 0.37849 0.75654 0.55705 0.0
H136 H 0.30697 0.68283 0.5609 0.0
H137 H 0.28976 0.6146 0.5469 0.0
H138 H 0.24998 0.60257 0.65894 0.0
H139 H 0.26612 0.67092 0.67284 0.0
N140 N 0.29654 0.73866 0.66125 0.0
N141 N 0.34991 0.77884 0.66194 0.0
N142 N 0.33891 0.73011 0.61503 0.0
C143 C 0.31737 0.76886 0.67693 0.0
C144 C 0.36043 0.75983 0.63054 0.0
C145 C 0.30701 0.71921 0.63032 0.0
C146 C 0.30593 0.78788 0.71202 0.0
C147 C 0.27116 0.77821 0.72531 0.0
C148 C 0.261 0.79307 0.7598 0.0
C149 C 0.28511 0.81835 0.78201 0.0
C150 C 0.31955 0.82897 0.76841 0.0
C151 C 0.32983 0.81395 0.73365 0.0
C152 C 0.39766 0.7663 0.61674 0.0
C153 C 0.42941 0.77131 0.643 0.0
C154 C 0.46547 0.76708 0.63104 0.0
C155 C 0.47023 0.75874 0.59252 0.0
C156 C 0.43854 0.75719 0.56575 0.0
C157 C 0.40256 0.76054 0.57783 0.0
C158 C 0.28832 0.68209 0.61811 0.0
C159 C 0.29336 0.66605 0.58203 0.0
C160 C 0.78239 0.71611 0.27718 0.0
C161 C 0.8082 0.69803 0.30438 0.0
C162 C 0.84369 0.68727 0.29363 0.0
C163 C 0.85389 0.69675 0.25694 0.0
H164 H 0.94737 0.71121 0.18786 0.0
H165 H 0.01047 0.71149 0.16592 0.0
H166 H 0.96275 0.73455 0.05022 0.0
H167 H 0.90006 0.73452 0.07206 0.0
H168 H 0.83419 0.80784 0.07075 0.0
H169 H 0.81674 0.87374 0.04877 0.0
H170 H 0.7727 0.8974 0.15719 0.0
H171 H 0.78897 0.83098 0.17871 0.0
H172 H 0.77208 0.74051 0.2211 0.0
H173 H 0.75448 0.72385 0.28436 0.0
H174 H 0.86404 0.67318 0.31406 0.0
H175 H 0.88196 0.68966 0.24987 0.0
N176 N 0.87188 0.71868 0.17917 0.0
N177 N 0.86226 0.76353 0.12811 0.0
N178 N 0.82057 0.76208 0.17569 0.0
C179 C 0.88262 0.73398 0.1459 0.0
C180 C 0.83134 0.77792 0.14287 0.0
C181 C 0.84027 0.73212 0.19373 0.0
C182 C 0.91892 0.72339 0.13172 0.0
C183 C 0.95034 0.71493 0.15755 0.0
C184 C 0.98643 0.71529 0.14504 0.0
C185 C 0.99153 0.72343 0.10644 0.0
C186 C 0.95976 0.72795 0.08007 0.0
C187 C 0.92384 0.72819 0.09263 0.0
C188 C 0.81361 0.81439 0.12673 0.0
C189 C 0.82002 0.82679 0.08959 0.0
C190 C 0.81019 0.86465 0.07708 0.0
C191 C 0.79421 0.8912 0.1016 0.0
C192 C 0.78494 0.87774 0.13755 0.0
C193 C 0.7944 0.83962 0.14993 0.0
C194 C 0.82868 0.71709 0.23061 0.0
C195 C 0.79249 0.72559 0.24085 0.0
C196 C 0.69716 0.38854 0.95131 0.0
C197 C 0.67379 0.36232 0.96916 0.0
C198 C 0.63472 0.3649 0.96042 0.0
C199 C 0.61948 0.39174 0.93309 0.0
H200 H 0.52959 0.39611 0.85109 0.0
H201 H 0.47487 0.37283 0.81074 0.0
H202 H 0.48869 0.46776 0.73098 0.0
H203 H 0.54197 0.49166 0.77153 0.0
H204 H 0.61908 0.56961 0.82421 0.0
H205 H 0.64484 0.61021 0.77543 0.0
H206 H 0.72211 0.51709 0.75364 0.0
H207 H 0.69773 0.47775 0.80431 0.0
H208 H 0.70079 0.43445 0.90998 0.0
H209 H 0.72741 0.38706 0.95708 0.0
H210 H 0.61591 0.34565 0.97421 0.0
H211 H 0.58929 0.39226 0.92644 0.0
N212 N 0.59149 0.43531 0.86602 0.0
N213 N 0.59796 0.4855 0.82143 0.0
N214 N 0.64818 0.47043 0.86704 0.0
C215 C 0.57684 0.45674 0.8355 0.0
C216 C 0.63338 0.49262 0.83709 0.0
C217 C 0.62692 0.44221 0.88223 0.0
C218 C 0.54051 0.44561 0.81446 0.0
C219 C 0.52047 0.41244 0.82531 0.0
C220 C 0.48924 0.39888 0.80203 0.0
C221 C 0.47741 0.4182 0.76744 0.0
C222 C 0.49648 0.45236 0.75764 0.0
C223 C 0.52742 0.46598 0.78089 0.0
C224 C 0.6564 0.5207 0.81765 0.0
C225 C 0.64275 0.55873 0.81014 0.0
C226 C 0.65729 0.58172 0.78195 0.0
C227 C 0.68472 0.56643 0.75971 0.0
C228 C 0.70106 0.52988 0.77015 0.0
C229 C 0.6871 0.50726 0.79914 0.0
C230 C 0.64294 0.41681 0.914 0.0
C231 C 0.68189 0.4156 0.92411 0.0
C232 C 0.56082 0.2407 0.51914 0.0
C233 C 0.52927 0.23672 0.49249 0.0
C234 C 0.53431 0.22617 0.45458 0.0
C235 C 0.57049 0.22189 0.44298 0.0
H236 H 0.6366 0.19654 0.34807 0.0
H237 H 0.65609 0.17557 0.28618 0.0
H238 H 0.77218 0.17862 0.3332 0.0
H239 H 0.7527 0.20159 0.39403 0.0
H240 H 0.72983 0.32231 0.40743 0.0
H241 H 0.74463 0.39147 0.41914 0.0
H242 H 0.71346 0.37981 0.53472 0.0
H243 H 0.69753 0.31086 0.52288 0.0
H244 H 0.62082 0.24293 0.52794 0.0
H245 H 0.55763 0.24912 0.54847 0.0
H246 H 0.51031 0.22292 0.43359 0.0
H247 H 0.5737 0.21583 0.41311 0.0
N248 N 0.64962 0.21368 0.42454 0.0
N249 N 0.70401 0.25234 0.42392 0.0
N250 N 0.66134 0.26425 0.46931 0.0
C251 C 0.68254 0.22193 0.40964 0.0
C252 C 0.69353 0.27366 0.45377 0.0
C253 C 0.63934 0.23434 0.45501 0.0
C254 C 0.69327 0.20135 0.37542 0.0
C255 C 0.6662 0.19189 0.34523 0.0
C256 C 0.67737 0.17974 0.30986 0.0
C257 C 0.71576 0.17632 0.30444 0.0
C258 C 0.74245 0.18218 0.33601 0.0
C259 C 0.73135 0.19512 0.37092 0.0
C260 C 0.7122 0.31128 0.46418 0.0
C261 C 0.72737 0.33406 0.43577 0.0
C262 C 0.73573 0.37364 0.44235 0.0
C263 C 0.73005 0.39071 0.47773 0.0
C264 C 0.71831 0.3671 0.50731 0.0
C265 C 0.7091 0.32775 0.50047 0.0
C266 C 0.60203 0.22908 0.46896 0.0
C267 C 0.59691 0.2373 0.50738 0.0
C268 C 0.21683 0.28181 0.8079 0.0
C269 C 0.19235 0.30125 0.78035 0.0
C270 C 0.1574 0.31432 0.79064 0.0
C271 C 0.14633 0.30598 0.82716 0.0
H272 H 0.04949 0.29335 0.89085 0.0
H273 H 0.9854 0.29453 0.91029 0.0
H274 H 0.02911 0.27762 0.02832 0.0
H275 H 0.09272 0.27606 0.00895 0.0
H276 H 0.13293 0.18043 0.99687 0.0
H277 H 0.15169 0.11532 0.01764 0.0
H278 H 0.2459 0.12069 0.9486 0.0
H279 H 0.22573 0.18586 0.92603 0.0
H280 H 0.22506 0.25737 0.8642 0.0
H281 H 0.24436 0.27229 0.80113 0.0
H282 H 0.13803 0.32943 0.76997 0.0
H283 H 0.11862 0.31501 0.83381 0.0
N284 N 0.12521 0.28587 0.9035 0.0
N285 N 0.13067 0.24137 0.95498 0.0
N286 N 0.17483 0.24035 0.9098 0.0
C287 C 0.1124 0.27164 0.93618 0.0
C288 C 0.16178 0.22536 0.94198 0.0
C289 C 0.15696 0.27081 0.89058 0.0
C290 C 0.07588 0.28406 0.9484 0.0
C291 C 0.0454 0.29143 0.92108 0.0
C292 C 0.00877 0.29192 0.93215 0.0
C293 C 0.0023 0.28577 0.97073 0.0
C294 C 0.03318 0.2827 0.99842 0.0
C295 C 0.06962 0.28155 0.98732 0.0
C296 C 0.17753 0.18842 0.95938 0.0
C297 C 0.158 0.16817 0.9864 0.0
C298 C 0.16903 0.13063 0.99864 0.0
C299 C 0.20037 0.11234 0.9848 0.0
C300 C 0.22121 0.13344 0.95935 0.0
C301 C 0.20982 0.171 0.94664 0.0
C302 C 0.17005 0.28441 0.85389 0.0
C303 C 0.20579 0.27338 0.84414 0.0
C304 C 0.35657 0.63491 0.12166 0.0
C305 C 0.31749 0.6392 0.11411 0.0
C306 C 0.29373 0.61479 0.13357 0.0
C307 C 0.30874 0.58805 0.16128 0.0
H308 H 0.29522 0.52387 0.2842 0.0
H309 H 0.27173 0.48169 0.33327 0.0
H310 H 0.34709 0.38961 0.30389 0.0
H311 H 0.372 0.43299 0.25675 0.0
H312 H 0.45067 0.51108 0.31193 0.0
H313 H 0.5055 0.53385 0.35098 0.0
H314 H 0.51656 0.63073 0.27276 0.0
H315 H 0.46042 0.60849 0.23388 0.0
H316 H 0.40178 0.60674 0.15525 0.0
H317 H 0.37567 0.65263 0.10658 0.0
H318 H 0.26349 0.61757 0.12872 0.0
H319 H 0.28966 0.57069 0.17674 0.0
N320 N 0.34287 0.53233 0.21795 0.0
N321 N 0.39328 0.5181 0.26367 0.0
N322 N 0.39923 0.56803 0.21869 0.0
C323 C 0.35791 0.51053 0.2481 0.0
C324 C 0.41411 0.54698 0.24938 0.0
C325 C 0.36385 0.56068 0.20257 0.0
C326 C 0.33549 0.48156 0.26714 0.0
C327 C 0.30564 0.49408 0.28742 0.0
C328 C 0.29217 0.46979 0.31547 0.0
C329 C 0.30818 0.43252 0.32327 0.0
C330 C 0.33489 0.41854 0.29945 0.0
C331 C 0.34893 0.44313 0.27218 0.0
C332 C 0.45076 0.55808 0.26984 0.0
C333 C 0.46489 0.53699 0.30261 0.0
C334 C 0.49671 0.54995 0.32497 0.0
C335 C 0.51558 0.58422 0.3151 0.0
C336 C 0.50244 0.60451 0.28145 0.0
C337 C 0.47039 0.59155 0.25902 0.0
C338 C 0.34779 0.58542 0.17028 0.0
C339 C 0.37153 0.60849 0.14952 0.0
C340 C 0.82289 0.08343 0.82327 0.0
C341 C 0.78497 0.07716 0.82932 0.0
C342 C 0.76496 0.04765 0.80817 0.0
C343 C 0.7834 0.02288 0.7841 0.0
H344 H 0.77388 0.93383 0.69758 0.0
H345 H 0.746 0.88517 0.65263 0.0
H346 H 0.85661 0.84022 0.63717 0.0
H347 H 0.88431 0.88787 0.68264 0.0
H348 H 0.93462 0.8858 0.77198 0.0
H349 H 0.98851 0.86577 0.81511 0.0
H350 H 0.0 0.98433 0.85788 0.0
H351 H 0.94522 0.00397 0.81578 0.0
H352 H 0.87104 0.0628 0.79759 0.0
H353 H 0.83951 0.10544 0.83926 0.0
H354 H 0.73565 0.04232 0.81188 0.0
H355 H 0.76798 0.99875 0.77015 0.0
N356 N 0.82835 0.97187 0.73657 0.0
N357 N 0.88339 0.93373 0.74087 0.0
N358 N 0.87929 0.98805 0.78074 0.0
C359 C 0.84826 0.94118 0.72406 0.0
C360 C 0.89909 0.95706 0.76924 0.0
C361 C 0.84405 0.99572 0.76463 0.0
C362 C 0.83129 0.9144 0.69413 0.0
C363 C 0.79225 0.91377 0.68432 0.0
C364 C 0.77627 0.88599 0.65842 0.0
C365 C 0.79904 0.85848 0.64169 0.0
C366 C 0.83818 0.86036 0.65025 0.0
C367 C 0.85409 0.88784 0.67625 0.0
C368 C 0.93531 0.94638 0.79074 0.0
C369 C 0.94897 0.90774 0.79015 0.0
C370 C 0.98002 0.89627 0.81488 0.0
C371 C -0.00162 0.92329 0.84045 0.0
C372 C 0.98598 0.96247 0.83935 0.0
C373 C 0.95471 0.97383 0.81496 0.0
C374 C 0.82216 0.02705 0.78122 0.0
C375 C 0.84123 0.05864 0.7996 0.0
C376 C 0.21567 0.85213 0.17203 0.0
C377 C 0.23139 0.87751 0.14627 0.0
H378 H 0.19936 0.84414 0.22874 0.0
C379 C 0.24901 0.91204 0.15995 0.0
H380 H 0.20208 0.82521 0.16195 0.0
C381 C 0.24641 0.92361 0.19788 0.0
C382 C 0.22648 0.90048 0.22262 0.0
H383 H 0.26104 0.93214 0.14037 0.0
H384 H 0.25644 0.95254 0.20632 0.0
C385 C 0.21388 0.86317 0.21014 0.0
C386 C 0.55348 0.74608 0.53431 0.0
C387 C 0.57148 0.71348 0.55263 0.0
H388 H 0.50692 0.78604 0.53262 0.0
C389 C 0.55792 0.69851 0.58617 0.0
H390 H 0.56328 0.7582 0.50837 0.0
C391 C 0.52625 0.71496 0.60039 0.0
C392 C 0.50715 0.74623 0.58097 0.0
H393 H 0.5714 0.67361 0.60106 0.0
H394 H 0.51561 0.70196 0.62553 0.0
C395 C 0.5213 0.76202 0.54811 0.0
C396 C 0.82108 0.99167 0.06704 0.0
C397 C 0.79108 0.01533 0.07654 0.0
H398 H 0.84564 0.93473 0.06778 0.0
C399 C 0.76103 0.99753 0.09333 0.0
H400 H 0.84482 0.00413 0.05415 0.0
C401 C 0.76138 0.95705 0.10087 0.0
C402 C 0.79168 0.93364 0.09157 0.0
H403 H 0.73744 0.01484 0.10093 0.0
H404 H 0.73801 0.94411 0.11399 0.0
C405 C 0.82139 0.95154 0.07449 0.0
C406 C 0.42041 0.34629 0.70308 0.0
C407 C 0.39877 0.37209 0.67878 0.0
H408 H 0.46297 0.34068 0.74995 0.0
C409 C 0.39958 0.41238 0.68688 0.0
H410 H 0.42023 0.31508 0.69734 0.0
C411 C 0.42319 0.42697 0.71739 0.0
C412 C 0.44725 0.40171 0.74 0.0
H413 H 0.38258 0.43281 0.66895 0.0
H414 H 0.42351 0.4583 0.72239 0.0
C415 C 0.44472 0.36101 0.7333 0.0
C416 C 0.6984 0.49559 0.46565 0.0
C417 C 0.7201 0.51417 0.49572 0.0
H418 H 0.68563 0.44187 0.43584 0.0
C419 C 0.74789 0.49265 0.51777 0.0
H420 H 0.6768 0.51163 0.44831 0.0
C421 C 0.75231 0.45248 0.51123 0.0
C422 C 0.72984 0.43377 0.48177 0.0
H423 H 0.76469 0.50637 0.54134 0.0
H424 H 0.77251 0.43582 0.52972 0.0
C425 C 0.70357 0.45585 0.45842 0.0
C426 C 0.92079 0.27077 0.03055 0.0
C427 C 0.90305 0.2384 0.01191 0.0
H428 H 0.96639 0.31176 0.03175 0.0
C429 C 0.91423 0.22675 0.97624 0.0
H430 H 0.91271 0.2805 0.05803 0.0
C431 C 0.94454 0.24496 0.96104 0.0
C432 C 0.96454 0.27487 0.98143 0.0
H433 H 0.9008 0.20219 0.961 0.0
H434 H 0.95412 0.23345 0.93484 0.0
C435 C 0.95151 0.28865 0.01557 0.0
C436 C 0.33181 0.38269 0.41888 0.0
C437 C 0.29804 0.38581 0.43615 0.0
H438 H 0.36145 0.39491 0.37035 0.0
C439 C 0.26579 0.39956 0.41418 0.0
H440 H 0.35709 0.37182 0.43495 0.0
C441 C 0.26818 0.41276 0.37641 0.0
C442 C 0.30275 0.41195 0.36001 0.0
H443 H 0.23937 0.40222 0.42682 0.0
H444 H 0.24336 0.42489 0.36059 0.0
C445 C 0.33416 0.39555 0.38144 0.0
C446 C 0.08194 0.86758 0.8892 0.0
C447 C 0.08405 0.88275 0.92662 0.0
H448 H 0.05416 0.86917 0.83242 0.0
C449 C 0.05857 0.91215 0.93509 0.0
H450 H 0.10141 0.8452 0.88156 0.0
C451 C 0.03118 0.92553 0.90704 0.0
C452 C 0.02881 0.91019 0.86965 0.0
H453 H 0.05924 0.92436 0.96365 0.0
H454 H 0.01126 0.94727 0.91504 0.0
C455 C 0.05475 0.88125 0.86101 0.0
C456 C 0.7787 0.1478 0.91039 0.0
C457 C 0.76396 0.12326 0.93752 0.0
H458 H 0.79471 0.15333 0.8533 0.0
C459 C 0.74746 0.08752 0.92568 0.0
H460 H 0.79154 0.17555 0.91904 0.0
C461 C 0.75031 0.07415 0.88834 0.0
C462 C 0.76941 0.09661 0.86239 0.0
H463 H 0.7363 0.068 0.94635 0.0
H464 H 0.74121 0.04453 0.88137 0.0
C465 C 0.78081 0.13486 0.8729 0.0
C466 C 0.4457 0.25007 0.54988 0.0
C467 C 0.42686 0.28128 0.52997 0.0
H468 H 0.4933 0.21142 0.55353 0.0
C469 C 0.43996 0.29485 0.49568 0.0
H470 H 0.43626 0.23904 0.57642 0.0
C471 C 0.47206 0.27851 0.48229 0.0
C472 C 0.492 0.24878 0.50328 0.0
H473 H 0.42583 0.31866 0.47961 0.0
H474 H 0.48238 0.29048 0.45653 0.0
C475 C 0.47827 0.23426 0.53686 0.0
C476 C 0.20308 0.01512 0.03801 0.0
C477 C 0.21371 0.98915 0.01002 0.0
H478 H 0.19284 0.07446 0.05306 0.0
C479 C 0.22434 0.0042 0.97528 0.0
H480 H 0.19533 0.00416 0.0653 0.0
C481 C 0.22168 0.04452 0.96759 0.0
C482 C 0.2091 0.07054 0.99489 0.0
H483 H 0.23252 0.9846 0.95323 0.0
H484 H 0.22758 0.05488 0.9395 0.0
C485 C 0.20139 0.05538 0.0308 0.0
C486 C 0.59713 0.58682 0.39188 0.0
C487 C 0.59849 0.62673 0.40163 0.0
H488 H 0.57123 0.54238 0.35577 0.0
C489 C 0.57598 0.6535 0.37931 0.0
H490 H 0.61469 0.56565 0.40829 0.0
C491 C 0.55028 0.64002 0.34962 0.0
C492 C 0.54713 0.59963 0.34153 0.0
H493 H 0.57649 0.68441 0.38637 0.0
H494 H 0.53142 0.66099 0.33463 0.0
C495 C 0.57206 0.57349 0.36194 0.0
C496 C 0.29776 0.49819 0.61489 0.0
C497 C 0.27736 0.48031 0.58358 0.0
H498 H 0.30989 0.5514 0.64572 0.0
C499 C 0.25115 0.50248 0.56017 0.0
H500 H 0.31815 0.48158 0.63324 0.0
C501 C 0.24711 0.54268 0.56674 0.0
C502 C 0.26833 0.56067 0.59752 0.0
H503 H 0.23542 0.48922 0.53564 0.0
H504 H 0.22824 0.5599 0.54733 0.0
C505 C 0.29292 0.53794 0.6221 0.0
C506 C 0.08146 0.77975 0.10109 0.0
C507 C 0.09152 0.7693 0.06465 0.0
H508 H 0.04229 0.77269 0.14317 0.0
C509 C 0.07185 0.73891 0.04464 0.0
H510 H 0.09633 0.80284 0.11732 0.0
C511 C 0.04061 0.72173 0.05941 0.0
C512 C 0.02903 0.73417 0.09471 0.0
H513 H 0.07899 0.73025 0.01648 0.0
H514 H 0.02444 0.70009 0.04242 0.0
C515 C 0.0507 0.76219 0.11608 0.0
C516 C 0.66191 0.60955 0.66096 0.0
C517 C 0.69631 0.60668 0.64478 0.0
H518 H 0.6314 0.59919 0.70924 0.0
C519 C 0.72843 0.59479 0.66814 0.0
H520 H 0.6367 0.6191 0.64388 0.0
C521 C 0.72546 0.5835 0.70638 0.0
C522 C 0.69044 0.58447 0.72187 0.0
H523 H 0.75533 0.59244 0.6564 0.0
H524 H 0.75025 0.57294 0.72343 0.0
C525 C 0.659 0.59862 0.69884 0.0
C526 C 0.92434 0.08686 0.15537 0.0
C527 C 0.91628 0.12717 0.15309 0.0
H528 H 0.95667 0.04107 0.18402 0.0
C529 C 0.93565 0.15269 0.17934 0.0
H530 H 0.90936 0.06634 0.136 0.0
C531 C 0.9635 0.13828 0.20649 0.0
C532 C 0.97209 0.09795 0.20833 0.0
H533 H 0.93001 0.18392 0.17822 0.0
H534 H 0.97896 0.15895 0.22526 0.0
C535 C 0.95161 0.07239 0.18287 0.0
C536 C 0.30215 0.73981 0.06917 0.0
C537 C 0.26832 0.73479 0.04589 0.0
H538 H 0.34368 0.71398 0.10917 0.0
C539 C 0.25216 0.69715 0.04299 0.0
H540 H 0.31547 0.7683 0.07218 0.0
C541 C 0.26867 0.6657 0.06413 0.0
C542 C 0.30169 0.67121 0.08855 0.0
H543 H 0.22618 0.69215 0.02525 0.0
H544 H 0.25526 0.63722 0.06179 0.0
C545 C 0.31854 0.70848 0.09027 0.0
C546 C 0.78133 0.75794 0.59826 0.0
C547 C 0.7504 0.76476 0.57126 0.0
H548 H 0.82022 0.78172 0.64191 0.0
C549 C 0.73547 0.80293 0.56743 0.0
H550 H 0.79344 0.72892 0.60232 0.0
C551 C 0.75123 0.83352 0.5901 0.0
C552 C 0.7822 0.82654 0.61704 0.0
H553 H 0.71169 0.80924 0.54689 0.0
H554 H 0.73942 0.86268 0.58626 0.0
C555 C 0.79691 0.78836 0.62089 0.0
C556 C 0.72065 0.14614 0.20021 0.0
C557 C 0.75116 0.16886 0.1902 0.0
H558 H 0.68568 0.13002 0.24451 0.0
C559 C 0.77019 0.19267 0.21834 0.0
H560 H 0.70542 0.12743 0.17925 0.0
C561 C 0.75886 0.1943 0.25518 0.0
C562 C 0.72834 0.17191 0.26539 0.0
H563 H 0.79369 0.21081 0.21191 0.0
H564 H 0.77358 0.21416 0.2754 0.0
C565 C 0.7093 0.14769 0.23751 0.0
C566 C 0.23346 0.27764 0.68788 0.0
C567 C 0.23089 0.31372 0.66833 0.0
H568 H 0.22258 0.24538 0.73796 0.0
C569 C 0.21206 0.3451 0.68412 0.0
H570 H 0.2472 0.25269 0.67611 0.0
C571 C 0.19819 0.34098 0.72015 0.0
C572 C 0.20295 0.30542 0.7406 0.0
H573 H 0.20974 0.37325 0.66961 0.0
H574 H 0.18529 0.366 0.73268 0.0
C575 C 0.21955 0.2735 0.72344 0.0
C576 C 0.78862 0.65231 0.39985 0.0
C577 C 0.76916 0.68314 0.41584 0.0
H578 H 0.81626 0.63268 0.35128 0.0
C579 C 0.76673 0.71962 0.39699 0.0
H580 H 0.79088 0.6239 0.41385 0.0
C581 C 0.78115 0.7246 0.36178 0.0
C582 C 0.79817 0.69317 0.34426 0.0
H583 H 0.75254 0.74417 0.40894 0.0
H584 H 0.77793 0.75289 0.34762 0.0
C585 C 0.80304 0.6573 0.36414 0.0
C586 C 0.69309 0.26144 0.01224 0.0
C587 C 0.72598 0.26793 0.03658 0.0
H588 H 0.65125 0.28591 0.97159 0.0
C589 C 0.73986 0.30643 0.0409 0.0
H590 H 0.68159 0.23221 0.00812 0.0
C591 C 0.72218 0.33739 0.02011 0.0
C592 C 0.69027 0.33054 0.99451 0.0
H593 H 0.76498 0.3126 0.05961 0.0
H594 H 0.73388 0.3666 0.0236 0.0
C595 C 0.67551 0.29235 0.9914 0.0
C596 C 0.20801 0.22578 0.50853 0.0
C597 C 0.24716 0.22779 0.51635 0.0
H598 H 0.16135 0.19512 0.48054 0.0
C599 C 0.26964 0.19845 0.50214 0.0
H600 H 0.18995 0.24764 0.51972 0.0
C601 C 0.25329 0.16872 0.4788 0.0
C602 C 0.21412 0.16751 0.4698 0.0
H603 H 0.29994 0.19938 0.50772 0.0
H604 H 0.2715 0.14767 0.46667 0.0
C605 C 0.19166 0.19577 0.48589 0.0
C606 C 0.22538 0.84323 0.86202 0.0
C607 C 0.25149 0.8404 0.89434 0.0
H608 H 0.21585 0.84059 0.80105 0.0
C609 C 0.28976 0.83597 0.88929 0.0
H610 H 0.19576 0.84737 0.8652 0.0
C611 C 0.30127 0.83108 0.85241 0.0
C612 C 0.27468 0.83116 0.82015 0.0
H613 H 0.31038 0.83371 0.91387 0.0
H614 H 0.33057 0.82487 0.84946 0.0
C615 C 0.2369 0.83916 0.82533 0.0
loop_
_geom_bond_atom_site_label_1
_geom_bond_atom_site_label_2
_geom_bond_distance
_geom_bond_site_symmetry_2
_ccdc_geom_bond_type
Sc0 O3 2.025 . S
Sc0 O10 2.105 . S
Sc0 O13 2.105 . S
Sc0 O16 2.105 . S
Sc0 O19 2.105 1_554 S
Sc1 O3 2.025 1_556 S
Sc1 O11 2.105 . S
Sc1 O15 2.105 1_556 S
Sc1 O17 2.105 1_556 S
Sc1 O21 2.105 . S
Sc2 O3 2.025 . S
Sc2 O12 2.105 1_554 S
Sc2 O14 2.105 . S
Sc2 O18 2.105 . S
Sc2 O20 2.105 . S
O3 Sc0 2.025 . S
O3 Sc1 2.025 1_554 S
O3 Sc2 2.025 . S
C4 O10 1.268 1_556 S
C4 O20 1.268 1_556 S
C5 O11 1.268 . S
C5 O19 1.268 . S
C6 O12 1.268 . S
C6 O21 1.268 . S
C7 O13 1.268 . S
C7 O17 1.268 . S
C8 O14 1.268 . S
C8 O16 1.268 . S
C9 O15 1.268 . S
C9 O18 1.268 . S
O10 Sc0 2.105 . S
O10 C4 1.268 1_554 S
O11 Sc1 2.105 . S
O11 C5 1.268 . S
O12 Sc2 2.105 1_556 S
O12 C6 1.268 . S
O13 Sc0 2.105 . S
O13 C7 1.268 . S
O14 Sc2 2.105 . S
O14 C8 1.268 . S
O15 Sc1 2.105 1_554 S
O15 C9 1.268 . S
O16 Sc0 2.105 . S
O16 C8 1.268 . S
O17 Sc1 2.105 1_554 S
O17 C7 1.268 . S
O18 Sc2 2.105 . S
O18 C9 1.268 . S
O19 Sc0 2.105 1_556 S
O19 C5 1.268 . S
O20 Sc2 2.105 . S
O20 C4 1.268 1_554 S
O21 Sc1 2.105 . S
O21 C6 1.268 . S
Sc22 O25 2.025 . S
Sc22 O32 2.105 . S
Sc22 O35 2.105 . S
Sc22 O38 2.105 . S
Sc22 O41 2.105 . S
Sc23 O25 2.025 . S
Sc23 O33 2.105 . S
Sc23 O37 2.105 . S
Sc23 O39 2.105 . S
Sc23 O43 2.105 . S
Sc24 O25 2.025 . S
Sc24 O34 2.105 . S
Sc24 O36 2.105 . S
Sc24 O40 2.105 . S
Sc24 O42 2.105 . S
O25 Sc22 2.025 . S
O25 Sc23 2.025 . S
O25 Sc24 2.025 . S
C26 O32 1.268 . S
C26 O42 1.268 . S
C27 O33 1.268 . S
C27 O41 1.268 . S
C28 O34 1.268 . S
C28 O43 1.268 . S
C29 O35 1.268 . S
C29 O39 1.268 . S
C30 O36 1.268 . S
C30 O38 1.268 . S
C31 O37 1.268 . S
C31 O40 1.268 . S
O32 Sc22 2.105 . S
O32 C26 1.268 . S
O33 Sc23 2.105 . S
O33 C27 1.268 . S
O34 Sc24 2.105 . S
O34 C28 1.268 . S
O35 Sc22 2.105 . S
O35 C29 1.268 . S
O36 Sc24 2.105 . S
O36 C30 1.268 . S
O37 Sc23 2.105 . S
O37 C31 1.268 . S
O38 Sc22 2.105 . S
O38 C30 1.268 . S
O39 Sc23 2.105 . S
O39 C29 1.268 . S
O40 Sc24 2.105 . S
O40 C31 1.268 . S
O41 Sc22 2.105 . S
O41 C27 1.268 . S
O42 Sc24 2.105 . S
O42 C26 1.268 . S
O43 Sc23 2.105 . S
O43 C28 1.268 . S
Sc44 O47 2.025 . S
Sc44 O54 2.105 . S
Sc44 O57 2.105 . S
Sc44 O60 2.105 . S
Sc44 O63 2.105 . S
Sc45 O47 2.025 . S
Sc45 O55 2.105 . S
Sc45 O59 2.105 . S
Sc45 O61 2.105 . S
Sc45 O65 2.108 . S
Sc46 O47 2.025 . S
Sc46 O56 2.105 . S
Sc46 O58 2.105 . S
Sc46 O62 2.105 . S
Sc46 O64 2.105 . S
O47 Sc44 2.025 . S
O47 Sc45 2.025 . S
O47 Sc46 2.025 . S
C48 O54 1.268 . S
C48 O64 1.268 . S
C49 O55 1.268 . S
C49 O63 1.268 . S
C50 O56 1.268 1_556 S
C50 O65 1.267 1_556 S
C51 O57 1.268 . S
C51 O61 1.268 . S
C52 O58 1.268 . S
C52 O60 1.268 . S
C53 O59 1.268 . S
C53 O62 1.268 . S
O54 Sc44 2.105 . S
O54 C48 1.268 . S
O55 Sc45 2.105 . S
O55 C49 1.268 . S
O56 Sc46 2.105 . S
O56 C50 1.268 1_554 S
O57 Sc44 2.105 . S
O57 C51 1.268 . S
O58 Sc46 2.105 . S
O58 C52 1.268 . S
O59 Sc45 2.105 . S
O59 C53 1.268 . S
O60 Sc44 2.105 . S
O60 C52 1.268 . S
O61 Sc45 2.105 . S
O61 C51 1.268 . S
O62 Sc46 2.105 . S
O62 C53 1.268 . S
O63 Sc44 2.105 . S
O63 C49 1.268 . S
O64 Sc46 2.105 . S
O64 C48 1.268 . S
O65 Sc45 2.108 . S
O65 C50 1.267 1_554 S
Sc66 O69 2.025 . S
Sc66 O76 2.105 . S
Sc66 O79 2.105 . S
Sc66 O82 2.105 . S
Sc66 O85 2.105 . S
Sc67 O69 2.025 . S
Sc67 O77 2.105 . S
Sc67 O81 2.105 . S
Sc67 O83 2.105 . S
Sc67 O87 2.105 . S
Sc68 O69 2.025 . S
Sc68 O78 2.105 . S
Sc68 O80 2.105 . S
Sc68 O84 2.105 . S
Sc68 O86 2.105 . S
O69 Sc66 2.025 . S
O69 Sc67 2.025 . S
O69 Sc68 2.025 . S
C70 O76 1.268 . S
C70 O86 1.268 . S
C71 O77 1.268 . S
C71 O85 1.268 . S
C72 O78 1.268 . S
C72 O87 1.268 . S
C73 O79 1.268 . S
C73 O83 1.268 . S
C74 O80 1.268 . S
C74 O82 1.268 . S
C75 O81 1.268 . S
C75 O84 1.268 . S
O76 Sc66 2.105 . S
O76 C70 1.268 . S
O77 Sc67 2.105 . S
O77 C71 1.268 . S
O78 Sc68 2.105 . S
O78 C72 1.268 . S
O79 Sc66 2.105 . S
O79 C73 1.268 . S
O80 Sc68 2.105 . S
O80 C74 1.268 . S
O81 Sc67 2.105 . S
O81 C75 1.268 . S
O82 Sc66 2.105 . S
O82 C74 1.268 . S
O83 Sc67 2.105 . S
O83 C73 1.268 . S
O84 Sc68 2.105 . S
O84 C75 1.268 . S
O85 Sc66 2.105 . S
O85 C71 1.268 . S
O86 Sc68 2.105 . S
O86 C70 1.268 . S
O87 Sc67 2.105 . S
O87 C72 1.268 . S
C88 C89 1.384 . S
C88 H101 0.947 . S
C88 C123 1.382 1_655 S
C89 C88 1.384 . S
C89 C90 1.372 1_655 S
C90 C89 1.372 1_455 S
C90 C91 1.391 . S
C90 H102 0.946 1_455 S
C91 C90 1.391 . S
C91 H103 0.950 . S
C91 C122 1.383 . S
H92 C111 0.947 . S
H93 C112 0.946 . S
H94 C114 0.953 . S
H95 C115 0.945 . S
H96 C117 0.952 . S
H97 C118 0.949 . S
H98 C120 0.950 . S
H99 C121 0.948 . S
H100 C123 0.951 . S
H101 C88 0.947 . S
H102 C90 0.946 1_655 S
H103 C91 0.950 . S
N104 C107 1.382 . S
N104 C109 1.363 . S
N105 C107 1.371 . S
N105 C108 1.372 . S
N106 C108 1.361 . S
N106 C109 1.377 . S
C107 N104 1.382 . S
C107 N105 1.371 . S
C107 C110 1.480 . S
C108 N105 1.372 . S
C108 N106 1.361 . S
C108 C116 1.448 1_545 S
C109 N104 1.363 . S
C109 N106 1.377 . S
C109 C122 1.479 . S
C110 C107 1.480 . S
C110 C111 1.383 . S
C110 C115 1.385 . S
C111 H92 0.947 . S
C111 C110 1.383 . S
C111 C112 1.388 . S
C112 H93 0.946 . S
C112 C111 1.388 . S
C112 C113 1.384 . S
C113 C112 1.384 . S
C113 C114 1.377 . S
C114 H94 0.953 . S
C114 C113 1.377 . S
C114 C115 1.369 . S
C115 H95 0.945 . S
C115 C110 1.385 . S
C115 C114 1.369 . S
C116 C108 1.448 1_565 S
C116 C117 1.376 . S
C116 C121 1.369 . S
C117 H96 0.952 . S
C117 C116 1.376 . S
C117 C118 1.389 . S
C118 H97 0.949 . S
C118 C117 1.389 . S
C118 C119 1.387 . S
C119 C118 1.387 . S
C119 C120 1.372 . S
C120 H98 0.950 . S
C120 C119 1.372 . S
C120 C121 1.379 . S
C121 H99 0.948 . S
C121 C116 1.369 . S
C121 C120 1.379 . S
C122 C91 1.383 . S
C122 C109 1.479 . S
C122 C123 1.398 . S
C123 C88 1.382 1_455 S
C123 H100 0.951 . S
C123 C122 1.398 . S
C124 C125 1.384 . S
C124 H137 0.947 . S
C124 C159 1.382 . S
C125 C124 1.384 . S
C125 C126 1.378 . S
C126 C125 1.378 . S
C126 C127 1.378 . S
C126 H138 0.952 . S
C127 C126 1.378 . S
C127 H139 0.950 . S
C127 C158 1.383 . S
H128 C147 0.947 . S
H129 C148 0.946 . S
H130 C150 0.953 . S
H131 C151 0.945 . S
H132 C153 0.952 . S
H133 C154 0.949 . S
H134 C156 0.950 . S
H135 C157 0.948 . S
H136 C159 0.951 . S
H137 C124 0.947 . S
H138 C126 0.952 . S
H139 C127 0.950 . S
N140 C143 1.382 . S
N140 C145 1.363 . S
N141 C143 1.371 . S
N141 C144 1.372 . S
N142 C144 1.361 . S
N142 C145 1.377 . S
C143 N140 1.382 . S
C143 N141 1.371 . S
C143 C146 1.480 . S
C144 N141 1.372 . S
C144 N142 1.361 . S
C144 C152 1.457 . S
C145 N140 1.363 . S
C145 N142 1.377 . S
C145 C158 1.479 . S
C146 C143 1.480 . S
C146 C147 1.383 . S
C146 C151 1.385 . S
C147 H128 0.947 . S
C147 C146 1.383 . S
C147 C148 1.388 . S
C148 H129 0.946 . S
C148 C147 1.388 . S
C148 C149 1.384 . S
C149 C148 1.384 . S
C149 C150 1.377 . S
C150 H130 0.953 . S
C150 C149 1.377 . S
C150 C151 1.369 . S
C151 H131 0.945 . S
C151 C146 1.385 . S
C151 C150 1.369 . S
C152 C144 1.457 . S
C152 C153 1.372 . S
C152 C157 1.364 . S
C153 H132 0.952 . S
C153 C152 1.372 . S
C153 C154 1.389 . S
C154 H133 0.949 . S
C154 C153 1.389 . S
C154 C155 1.387 . S
C155 C154 1.387 . S
C155 C156 1.372 . S
C156 H134 0.950 . S
C156 C155 1.372 . S
C156 C157 1.379 . S
C157 H135 0.948 . S
C157 C152 1.364 . S
C157 C156 1.379 . S
C158 C127 1.383 . S
C158 C145 1.479 . S
C158 C159 1.398 . S
C159 C124 1.382 . S
C159 H136 0.951 . S
C159 C158 1.398 . S
C160 C161 1.384 . S
C160 H173 0.947 . S
C160 C195 1.382 . S
C161 C160 1.384 . S
C161 C162 1.378 . S
C162 C161 1.378 . S
C162 C163 1.378 . S
C162 H174 0.952 . S
C163 C162 1.378 . S
C163 H175 0.950 . S
C163 C194 1.383 . S
H164 C183 0.947 . S
H165 C184 0.946 . S
H166 C186 0.953 . S
H167 C187 0.945 . S
H168 C189 0.952 . S
H169 C190 0.949 . S
H170 C192 0.950 . S
H171 C193 0.948 . S
H172 C195 0.951 . S
H173 C160 0.947 . S
H174 C162 0.952 . S
H175 C163 0.950 . S
N176 C179 1.382 . S
N176 C181 1.363 . S
N177 C179 1.371 . S
N177 C180 1.372 . S
N178 C180 1.361 . S
N178 C181 1.377 . S
C179 N176 1.382 . S
C179 N177 1.371 . S
C179 C182 1.480 . S
C180 N177 1.372 . S
C180 N178 1.361 . S
C180 C188 1.457 . S
C181 N176 1.363 . S
C181 N178 1.377 . S
C181 C194 1.479 . S
C182 C179 1.480 . S
C182 C183 1.383 . S
C182 C187 1.385 . S
C183 H164 0.947 . S
C183 C182 1.383 . S
C183 C184 1.388 . S
C184 H165 0.946 . S
C184 C183 1.388 . S
C184 C185 1.384 . S
C185 C184 1.384 . S
C185 C186 1.377 . S
C186 H166 0.953 . S
C186 C185 1.377 . S
C186 C187 1.369 . S
C187 H167 0.945 . S
C187 C182 1.385 . S
C187 C186 1.369 . S
C188 C180 1.457 . S
C188 C189 1.372 . S
C188 C193 1.364 . S
C189 H168 0.952 . S
C189 C188 1.372 . S
C189 C190 1.389 . S
C190 H169 0.949 . S
C190 C189 1.389 . S
C190 C191 1.387 . S
C191 C190 1.387 . S
C191 C192 1.372 . S
C192 H170 0.950 . S
C192 C191 1.372 . S
C192 C193 1.379 . S
C193 H171 0.948 . S
C193 C188 1.364 . S
C193 C192 1.379 . S
C194 C163 1.383 . S
C194 C181 1.479 . S
C194 C195 1.398 . S
C195 C160 1.382 . S
C195 H172 0.951 . S
C195 C194 1.398 . S
C196 C197 1.384 . S
C196 H209 0.947 . S
C196 C231 1.382 . S
C197 C196 1.384 . S
C197 C198 1.378 . S
C198 C197 1.378 . S
C198 C199 1.378 . S
C198 H210 0.952 . S
C199 C198 1.378 . S
C199 H211 0.950 . S
C199 C230 1.383 . S
H200 C219 0.947 . S
H201 C220 0.946 . S
H202 C222 0.953 . S
H203 C223 0.945 . S
H204 C225 0.952 . S
H205 C226 0.949 . S
H206 C228 0.950 . S
H207 C229 0.948 . S
H208 C231 0.951 . S
H209 C196 0.947 . S
H210 C198 0.952 . S
H211 C199 0.950 . S
N212 C215 1.382 . S
N212 C217 1.363 . S
N213 C215 1.371 . S
N213 C216 1.372 . S
N214 C216 1.361 . S
N214 C217 1.377 . S
C215 N212 1.382 . S
C215 N213 1.371 . S
C215 C218 1.480 . S
C216 N213 1.372 . S
C216 N214 1.361 . S
C216 C224 1.457 . S
C217 N212 1.363 . S
C217 N214 1.377 . S
C217 C230 1.479 . S
C218 C215 1.480 . S
C218 C219 1.383 . S
C218 C223 1.385 . S
C219 H200 0.947 . S
C219 C218 1.383 . S
C219 C220 1.388 . S
C220 H201 0.946 . S
C220 C219 1.388 . S
C220 C221 1.384 . S
C221 C220 1.384 . S
C221 C222 1.377 . S
C222 H202 0.953 . S
C222 C221 1.377 . S
C222 C223 1.369 . S
C223 H203 0.945 . S
C223 C218 1.385 . S
C223 C222 1.369 . S
C224 C216 1.457 . S
C224 C225 1.372 . S
C224 C229 1.364 . S
C225 H204 0.952 . S
C225 C224 1.372 . S
C225 C226 1.389 . S
C226 H205 0.949 . S
C226 C225 1.389 . S
C226 C227 1.387 . S
C227 C226 1.387 . S
C227 C228 1.372 . S
C228 H206 0.950 . S
C228 C227 1.372 . S
C228 C229 1.379 . S
C229 H207 0.948 . S
C229 C224 1.364 . S
C229 C228 1.379 . S
C230 C199 1.383 . S
C230 C217 1.479 . S
C230 C231 1.398 . S
C231 C196 1.382 . S
C231 H208 0.951 . S
C231 C230 1.398 . S
C232 C233 1.384 . S
C232 H245 0.947 . S
C232 C267 1.382 . S
C233 C232 1.384 . S
C233 C234 1.378 . S
C234 C233 1.378 . S
C234 C235 1.378 . S
C234 H246 0.952 . S
C235 C234 1.378 . S
C235 H247 0.950 . S
C235 C266 1.383 . S
H236 C255 0.947 . S
H237 C256 0.946 . S
H238 C258 0.953 . S
H239 C259 0.945 . S
H240 C261 0.952 . S
H241 C262 0.949 . S
H242 C264 0.950 . S
H243 C265 0.948 . S
H244 C267 0.951 . S
H245 C232 0.947 . S
H246 C234 0.952 . S
H247 C235 0.950 . S
N248 C251 1.382 . S
N248 C253 1.363 . S
N249 C251 1.371 . S
N249 C252 1.372 . S
N250 C252 1.361 . S
N250 C253 1.377 . S
C251 N248 1.382 . S
C251 N249 1.371 . S
C251 C254 1.480 . S
C252 N249 1.372 . S
C252 N250 1.361 . S
C252 C260 1.457 . S
C253 N248 1.363 . S
C253 N250 1.377 . S
C253 C266 1.479 . S
C254 C251 1.480 . S
C254 C255 1.383 . S
C254 C259 1.385 . S
C255 H236 0.947 . S
C255 C254 1.383 . S
C255 C256 1.388 . S
C256 H237 0.946 . S
C256 C255 1.388 . S
C256 C257 1.384 . S
C257 C256 1.384 . S
C257 C258 1.377 . S
C258 H238 0.953 . S
C258 C257 1.377 . S
C258 C259 1.369 . S
C259 H239 0.945 . S
C259 C254 1.385 . S
C259 C258 1.369 . S
C260 C252 1.457 . S
C260 C261 1.372 . S
C260 C265 1.364 . S
C261 H240 0.952 . S
C261 C260 1.372 . S
C261 C262 1.389 . S
C262 H241 0.949 . S
C262 C261 1.389 . S
C262 C263 1.387 . S
C263 C262 1.387 . S
C263 C264 1.372 . S
C264 H242 0.950 . S
C264 C263 1.372 . S
C264 C265 1.379 . S
C265 H243 0.948 . S
C265 C260 1.364 . S
C265 C264 1.379 . S
C266 C235 1.383 . S
C266 C253 1.479 . S
C266 C267 1.398 . S
C267 C232 1.382 . S
C267 H244 0.951 . S
C267 C266 1.398 . S
C268 C269 1.384 . S
C268 H281 0.947 . S
C268 C303 1.382 . S
C269 C268 1.384 . S
C269 C270 1.378 . S
C270 C269 1.378 . S
C270 C271 1.378 . S
C270 H282 0.952 . S
C271 C270 1.378 . S
C271 H283 0.950 . S
C271 C302 1.383 . S
H272 C291 0.947 . S
H273 C292 0.946 . S
H274 C294 0.953 1_554 S
H275 C295 0.945 . S
H276 C297 0.952 . S
H277 C298 0.949 . S
H278 C300 0.950 . S
H279 C301 0.948 . S
H280 C303 0.951 . S
H281 C268 0.947 . S
H282 C270 0.952 . S
H283 C271 0.950 . S
N284 C287 1.382 . S
N284 C289 1.363 . S
N285 C287 1.371 . S
N285 C288 1.372 . S
N286 C288 1.361 . S
N286 C289 1.377 . S
C287 N284 1.382 . S
C287 N285 1.371 . S
C287 C290 1.480 . S
C288 N285 1.372 . S
C288 N286 1.361 . S
C288 C296 1.457 . S
C289 N284 1.363 . S
C289 N286 1.377 . S
C289 C302 1.479 . S
C290 C287 1.480 . S
C290 C291 1.383 . S
C290 C295 1.385 . S
C291 H272 0.947 . S
C291 C290 1.383 . S
C291 C292 1.388 . S
C292 H273 0.946 . S
C292 C291 1.388 . S
C292 C293 1.384 . S
C293 C292 1.384 . S
C293 C294 1.377 . S
C294 H274 0.953 1_556 S
C294 C293 1.377 . S
C294 C295 1.369 . S
C295 H275 0.945 . S
C295 C290 1.385 . S
C295 C294 1.369 . S
C296 C288 1.457 . S
C296 C297 1.372 . S
C296 C301 1.364 . S
C297 H276 0.952 . S
C297 C296 1.372 . S
C297 C298 1.389 . S
C298 H277 0.949 . S
C298 C297 1.389 . S
C298 C299 1.387 . S
C299 C298 1.387 . S
C299 C300 1.372 . S
C300 H278 0.950 . S
C300 C299 1.372 . S
C300 C301 1.379 . S
C301 H279 0.948 . S
C301 C296 1.364 . S
C301 C300 1.379 . S
C302 C271 1.383 . S
C302 C289 1.479 . S
C302 C303 1.398 . S
C303 C268 1.382 . S
C303 H280 0.951 . S
C303 C302 1.398 . S
C304 C305 1.384 . S
C304 H317 0.947 . S
C304 C339 1.382 . S
C305 C304 1.384 . S
C305 C306 1.378 . S
C306 C305 1.378 . S
C306 C307 1.378 . S
C306 H318 0.952 . S
C307 C306 1.378 . S
C307 H319 0.950 . S
C307 C338 1.383 . S
H308 C327 0.947 . S
H309 C328 0.946 . S
H310 C330 0.953 . S
H311 C331 0.945 . S
H312 C333 0.952 . S
H313 C334 0.949 . S
H314 C336 0.950 . S
H315 C337 0.948 . S
H316 C339 0.951 . S
H317 C304 0.947 . S
H318 C306 0.952 . S
H319 C307 0.950 . S
N320 C323 1.382 . S
N320 C325 1.363 . S
N321 C323 1.371 . S
N321 C324 1.372 . S
N322 C324 1.361 . S
N322 C325 1.377 . S
C323 N320 1.382 . S
C323 N321 1.371 . S
C323 C326 1.480 . S
C324 N321 1.372 . S
C324 N322 1.361 . S
C324 C332 1.457 . S
C325 N320 1.363 . S
C325 N322 1.377 . S
C325 C338 1.479 . S
C326 C323 1.480 . S
C326 C327 1.383 . S
C326 C331 1.385 . S
C327 H308 0.947 . S
C327 C326 1.383 . S
C327 C328 1.388 . S
C328 H309 0.946 . S
C328 C327 1.388 . S
C328 C329 1.384 . S
C329 C328 1.384 . S
C329 C330 1.377 . S
C330 H310 0.953 . S
C330 C329 1.377 . S
C330 C331 1.369 . S
C331 H311 0.945 . S
C331 C326 1.385 . S
C331 C330 1.369 . S
C332 C324 1.457 . S
C332 C333 1.372 . S
C332 C337 1.364 . S
C333 H312 0.952 . S
C333 C332 1.372 . S
C333 C334 1.389 . S
C334 H313 0.949 . S
C334 C333 1.389 . S
C334 C335 1.387 . S
C335 C334 1.387 . S
C335 C336 1.372 . S
C336 H314 0.950 . S
C336 C335 1.372 . S
C336 C337 1.379 . S
C337 H315 0.948 . S
C337 C332 1.364 . S
C337 C336 1.379 . S
C338 C307 1.383 . S
C338 C325 1.479 . S
C338 C339 1.398 . S
C339 C304 1.382 . S
C339 H316 0.951 . S
C339 C338 1.398 . S
C340 C341 1.384 . S
C340 H353 0.947 . S
C340 C375 1.382 . S
C341 C340 1.384 . S
C341 C342 1.378 . S
C342 C341 1.378 . S
C342 C343 1.378 . S
C342 H354 0.952 . S
C343 C342 1.378 . S
C343 H355 0.950 1_545 S
C343 C374 1.388 . S
H344 C363 0.947 . S
H345 C364 0.946 . S
H346 C366 0.953 . S
H347 C367 0.945 . S
H348 C369 0.952 . S
H349 C370 0.949 . S
H350 C372 0.955 . S
H351 C373 0.948 . S
H352 C375 0.951 . S
H353 C340 0.947 . S
H354 C342 0.952 . S
H355 C343 0.950 1_565 S
N356 C359 1.382 . S
N356 C361 1.363 . S
N357 C359 1.371 . S
N357 C360 1.372 . S
N358 C360 1.361 . S
N358 C361 1.377 . S
C359 N356 1.382 . S
C359 N357 1.371 . S
C359 C362 1.480 . S
C360 N357 1.372 . S
C360 N358 1.361 . S
C360 C368 1.457 . S
C361 N356 1.363 . S
C361 N358 1.377 . S
C361 C374 1.460 1_565 S
C362 C359 1.480 . S
C362 C363 1.383 . S
C362 C367 1.385 . S
C363 H344 0.947 . S
C363 C362 1.383 . S
C363 C364 1.388 . S
C364 H345 0.946 . S
C364 C363 1.388 . S
C364 C365 1.384 . S
C365 C364 1.384 . S
C365 C366 1.377 . S
C366 H346 0.953 . S
C366 C365 1.377 . S
C366 C367 1.369 . S
C367 H347 0.945 . S
C367 C362 1.385 . S
C367 C366 1.369 . S
C368 C360 1.457 . S
C368 C369 1.372 . S
C368 C373 1.364 . S
C369 H348 0.952 . S
C369 C368 1.372 . S
C369 C370 1.389 1_655 S
C370 H349 0.949 . S
C370 C369 1.389 1_455 S
C370 C371 1.387 . S
C371 C370 1.387 . S
C371 C372 1.379 . S
C372 H350 0.955 . S
C372 C371 1.379 . S
C372 C373 1.367 1_455 S
C373 H351 0.948 . S
C373 C368 1.364 . S
C373 C372 1.367 1_655 S
C374 C343 1.388 . S
C374 C361 1.460 1_545 S
C374 C375 1.412 . S
C375 C340 1.382 . S
C375 H352 0.951 . S
C375 C374 1.412 . S
C376 C377 1.387 . S
C376 H380 0.950 . S
C376 C385 1.390 . S
C377 C376 1.387 . S
C377 C379 1.387 . S
H378 C385 0.950 . S
C379 C377 1.387 . S
C379 C381 1.390 . S
C379 H383 0.950 . S
H380 C376 0.950 . S
C381 C379 1.390 . S
C381 C382 1.387 . S
C381 H384 0.950 . S
C382 C381 1.387 . S
C382 C385 1.387 . S
H383 C379 0.950 . S
H384 C381 0.950 . S
C385 C376 1.390 . S
C385 H378 0.950 . S
C385 C382 1.387 . S
C386 C387 1.387 . S
C386 H390 0.950 . S
C386 C395 1.390 . S
C387 C386 1.387 . S
C387 C389 1.387 . S
H388 C395 0.950 . S
C389 C387 1.387 . S
C389 C391 1.390 . S
C389 H393 0.950 . S
H390 C386 0.950 . S
C391 C389 1.390 . S
C391 C392 1.387 . S
C391 H394 0.950 . S
C392 C391 1.387 . S
C392 C395 1.387 . S
H393 C389 0.950 . S
H394 C391 0.950 . S
C395 C386 1.390 . S
C395 H388 0.950 . S
C395 C392 1.387 . S
C396 C397 1.393 . S
C396 H400 0.956 . S
C396 C405 1.378 1_545 S
C397 C396 1.393 . S
C397 C399 1.381 1_545 S
H398 C405 0.950 . S
C399 C397 1.381 1_565 S
C399 C401 1.404 . S
C399 H403 0.943 1_565 S
H400 C396 0.956 . S
C401 C399 1.404 . S
C401 C402 1.387 . S
C401 H404 0.950 . S
C402 C401 1.387 . S
C402 C405 1.387 . S
H403 C399 0.943 1_545 S
H404 C401 0.950 . S
C405 C396 1.378 1_565 S
C405 H398 0.950 . S
C405 C402 1.387 . S
C406 C407 1.387 . S
C406 H410 0.950 . S
C406 C415 1.390 . S
C407 C406 1.387 . S
C407 C409 1.387 . S
H408 C415 0.950 . S
C409 C407 1.387 . S
C409 C411 1.390 . S
C409 H413 0.950 . S
H410 C406 0.950 . S
C411 C409 1.390 . S
C411 C412 1.387 . S
C411 H414 0.950 . S
C412 C411 1.387 . S
C412 C415 1.387 . S
H413 C409 0.950 . S
H414 C411 0.950 . S
C415 C406 1.390 . S
C415 H408 0.950 . S
C415 C412 1.387 . S
C416 C417 1.387 . S
C416 H420 0.950 . S
C416 C425 1.390 . S
C417 C416 1.387 . S
C417 C419 1.387 . S
H418 C425 0.950 . S
C419 C417 1.387 . S
C419 C421 1.390 . S
C419 H423 0.950 . S
H420 C416 0.950 . S
C421 C419 1.390 . S
C421 C422 1.387 . S
C421 H424 0.950 . S
C422 C421 1.387 . S
C422 C425 1.387 . S
H423 C419 0.950 . S
H424 C421 0.950 . S
C425 C416 1.390 . S
C425 H418 0.950 . S
C425 C422 1.387 . S
C426 C427 1.387 . S
C426 H430 0.950 . S
C426 C435 1.390 . S
C427 C426 1.387 . S
C427 C429 1.387 1_554 S
H428 C435 0.950 . S
C429 C427 1.387 1_556 S
C429 C431 1.390 . S
C429 H433 0.950 . S
H430 C426 0.950 . S
C431 C429 1.390 . S
C431 C432 1.387 . S
C431 H434 0.950 . S
C432 C431 1.387 . S
C432 C435 1.387 1_556 S
H433 C429 0.950 . S
H434 C431 0.950 . S
C435 C426 1.390 . S
C435 H428 0.950 . S
C435 C432 1.387 1_554 S
C436 C437 1.387 . S
C436 H440 0.950 . S
C436 C445 1.390 . S
C437 C436 1.387 . S
C437 C439 1.387 . S
H438 C445 0.950 . S
C439 C437 1.387 . S
C439 C441 1.390 . S
C439 H443 0.950 . S
H440 C436 0.950 . S
C441 C439 1.390 . S
C441 C442 1.387 . S
C441 H444 0.950 . S
C442 C441 1.387 . S
C442 C445 1.387 . S
H443 C439 0.950 . S
H444 C441 0.950 . S
C445 C436 1.390 . S
C445 H438 0.950 . S
C445 C442 1.387 . S
C446 C447 1.387 . S
C446 H450 0.950 . S
C446 C455 1.390 . S
C447 C446 1.387 . S
C447 C449 1.387 . S
H448 C455 0.950 . S
C449 C447 1.387 . S
C449 C451 1.390 . S
C449 H453 0.950 . S
H450 C446 0.950 . S
C451 C449 1.390 . S
C451 C452 1.387 . S
C451 H454 0.950 . S
C452 C451 1.387 . S
C452 C455 1.387 . S
H453 C449 0.950 . S
H454 C451 0.950 . S
C455 C446 1.390 . S
C455 H448 0.950 . S
C455 C452 1.387 . S
C456 C457 1.387 . S
C456 H460 0.950 . S
C456 C465 1.390 . S
C457 C456 1.387 . S
C457 C459 1.387 . S
H458 C465 0.950 . S
C459 C457 1.387 . S
C459 C461 1.390 . S
C459 H463 0.950 . S
H460 C456 0.950 . S
C461 C459 1.390 . S
C461 C462 1.387 . S
C461 H464 0.950 . S
C462 C461 1.387 . S
C462 C465 1.387 . S
H463 C459 0.950 . S
H464 C461 0.950 . S
C465 C456 1.390 . S
C465 H458 0.950 . S
C465 C462 1.387 . S
C466 C467 1.387 . S
C466 H470 0.950 . S
C466 C475 1.390 . S
C467 C466 1.387 . S
C467 C469 1.387 . S
H468 C475 0.950 . S
C469 C467 1.387 . S
C469 C471 1.390 . S
C469 H473 0.950 . S
H470 C466 0.950 . S
C471 C469 1.390 . S
C471 C472 1.387 . S
C471 H474 0.950 . S
C472 C471 1.387 . S
C472 C475 1.387 . S
H473 C469 0.950 . S
H474 C471 0.950 . S
C475 C466 1.390 . S
C475 H468 0.950 . S
C475 C472 1.387 . S
C476 C477 1.387 1_544 S
C476 H480 0.950 1_545 S
C476 C485 1.390 . S
C477 C476 1.387 1_566 S
C477 C479 1.387 . S
H478 C485 0.950 . S
C479 C477 1.387 . S
C479 C481 1.390 1_565 S
C479 H483 0.950 . S
H480 C476 0.950 1_565 S
C481 C479 1.390 1_545 S
C481 C482 1.387 . S
C481 H484 0.950 . S
C482 C481 1.387 . S
C482 C485 1.387 1_556 S
H483 C479 0.950 . S
H484 C481 0.950 . S
C485 C476 1.390 . S
C485 H478 0.950 . S
C485 C482 1.387 1_554 S
C486 C487 1.387 . S
C486 H490 0.950 . S
C486 C495 1.390 . S
C487 C486 1.387 . S
C487 C489 1.387 . S
H488 C495 0.950 . S
C489 C487 1.387 . S
C489 C491 1.390 . S
C489 H493 0.950 . S
H490 C486 0.950 . S
C491 C489 1.390 . S
C491 C492 1.387 . S
C491 H494 0.950 . S
C492 C491 1.387 . S
C492 C495 1.387 . S
H493 C489 0.950 . S
H494 C491 0.950 . S
C495 C486 1.390 . S
C495 H488 0.950 . S
C495 C492 1.387 . S
C496 C497 1.387 . S
C496 H500 0.950 . S
C496 C505 1.390 . S
C497 C496 1.387 . S
C497 C499 1.387 . S
H498 C505 0.950 . S
C499 C497 1.387 . S
C499 C501 1.390 . S
C499 H503 0.950 . S
H500 C496 0.950 . S
C501 C499 1.390 . S
C501 C502 1.387 . S
C501 H504 0.950 . S
C502 C501 1.387 . S
C502 C505 1.387 . S
H503 C499 0.950 . S
H504 C501 0.950 . S
C505 C496 1.390 . S
C505 H498 0.950 . S
C505 C502 1.387 . S
C506 C507 1.387 . S
C506 H510 0.950 . S
C506 C515 1.390 . S
C507 C506 1.387 . S
C507 C509 1.387 . S
H508 C515 0.950 . S
C509 C507 1.387 . S
C509 C511 1.390 . S
C509 H513 0.950 . S
H510 C506 0.950 . S
C511 C509 1.390 . S
C511 C512 1.387 . S
C511 H514 0.950 . S
C512 C511 1.387 . S
C512 C515 1.387 . S
H513 C509 0.950 . S
H514 C511 0.950 . S
C515 C506 1.390 . S
C515 H508 0.950 . S
C515 C512 1.387 . S
C516 C517 1.387 . S
C516 H520 0.950 . S
C516 C525 1.390 . S
C517 C516 1.387 . S
C517 C519 1.387 . S
H518 C525 0.950 . S
C519 C517 1.387 . S
C519 C521 1.390 . S
C519 H523 0.950 . S
H520 C516 0.950 . S
C521 C519 1.390 . S
C521 C522 1.387 . S
C521 H524 0.950 . S
C522 C521 1.387 . S
C522 C525 1.387 . S
H523 C519 0.950 . S
H524 C521 0.950 . S
C525 C516 1.390 . S
C525 H518 0.950 . S
C525 C522 1.387 . S
C526 C527 1.387 . S
C526 H530 0.950 . S
C526 C535 1.390 . S
C527 C526 1.387 . S
C527 C529 1.387 . S
H528 C535 0.950 . S
C529 C527 1.387 . S
C529 C531 1.390 . S
C529 H533 0.950 . S
H530 C526 0.950 . S
C531 C529 1.390 . S
C531 C532 1.387 . S
C531 H534 0.950 . S
C532 C531 1.387 . S
C532 C535 1.387 . S
H533 C529 0.950 . S
H534 C531 0.950 . S
C535 C526 1.390 . S
C535 H528 0.950 . S
C535 C532 1.387 . S
C536 C537 1.387 . S
C536 H540 0.950 . S
C536 C545 1.390 . S
C537 C536 1.387 . S
C537 C539 1.387 . S
H538 C545 0.950 . S
C539 C537 1.387 . S
C539 C541 1.390 . S
C539 H543 0.950 . S
H540 C536 0.950 . S
C541 C539 1.390 . S
C541 C542 1.387 . S
C541 H544 0.950 . S
C542 C541 1.387 . S
C542 C545 1.387 . S
H543 C539 0.950 . S
H544 C541 0.950 . S
C545 C536 1.390 . S
C545 H538 0.950 . S
C545 C542 1.387 . S
C546 C547 1.387 . S
C546 H550 0.950 . S
C546 C555 1.390 . S
C547 C546 1.387 . S
C547 C549 1.387 . S
H548 C555 0.950 . S
C549 C547 1.387 . S
C549 C551 1.390 . S
C549 H553 0.950 . S
H550 C546 0.950 . S
C551 C549 1.390 . S
C551 C552 1.387 . S
C551 H554 0.950 . S
C552 C551 1.387 . S
C552 C555 1.387 . S
H553 C549 0.950 . S
H554 C551 0.950 . S
C555 C546 1.390 . S
C555 H548 0.950 . S
C555 C552 1.387 . S
C556 C557 1.387 . S
C556 H560 0.950 . S
C556 C565 1.390 . S
C557 C556 1.387 . S
C557 C559 1.387 . S
H558 C565 0.950 . S
C559 C557 1.387 . S
C559 C561 1.390 . S
C559 H563 0.950 . S
H560 C556 0.950 . S
C561 C559 1.390 . S
C561 C562 1.387 . S
C561 H564 0.950 . S
C562 C561 1.387 . S
C562 C565 1.387 . S
H563 C559 0.950 . S
H564 C561 0.950 . S
C565 C556 1.390 . S
C565 H558 0.950 . S
C565 C562 1.387 . S
C566 C567 1.387 . S
C566 H570 0.950 . S
C566 C575 1.390 . S
C567 C566 1.387 . S
C567 C569 1.387 . S
H568 C575 0.950 . S
C569 C567 1.387 . S
C569 C571 1.390 . S
C569 H573 0.950 . S
H570 C566 0.950 . S
C571 C569 1.390 . S
C571 C572 1.387 . S
C571 H574 0.950 . S
C572 C571 1.387 . S
C572 C575 1.387 . S
H573 C569 0.950 . S
H574 C571 0.950 . S
C575 C566 1.390 . S
C575 H568 0.950 . S
C575 C572 1.387 . S
C576 C577 1.387 . S
C576 H580 0.950 . S
C576 C585 1.390 . S
C577 C576 1.387 . S
C577 C579 1.387 . S
H578 C585 0.950 . S
C579 C577 1.387 . S
C579 C581 1.390 . S
C579 H583 0.950 . S
H580 C576 0.950 . S
C581 C579 1.390 . S
C581 C582 1.387 . S
C581 H584 0.950 . S
C582 C581 1.387 . S
C582 C585 1.387 . S
H583 C579 0.950 . S
H584 C581 0.950 . S
C585 C576 1.390 . S
C585 H578 0.950 . S
C585 C582 1.387 . S
C586 C587 1.387 1_556 S
C586 H590 0.950 . S
C586 C595 1.390 . S
C587 C586 1.387 1_554 S
C587 C589 1.387 . S
H588 C595 0.950 . S
C589 C587 1.387 . S
C589 C591 1.390 . S
C589 H593 0.950 . S
H590 C586 0.950 . S
C591 C589 1.390 . S
C591 C592 1.387 1_554 S
C591 H594 0.950 . S
C592 C591 1.387 1_556 S
C592 C595 1.387 . S
H593 C589 0.950 . S
H594 C591 0.950 . S
C595 C586 1.390 . S
C595 H588 0.950 . S
C595 C592 1.387 . S
C596 C597 1.387 . S
C596 H600 0.950 . S
C596 C605 1.390 . S
C597 C596 1.387 . S
C597 C599 1.387 . S
H598 C605 0.950 . S
C599 C597 1.387 . S
C599 C601 1.390 . S
C599 H603 0.950 . S
H600 C596 0.950 . S
C601 C599 1.390 . S
C601 C602 1.387 . S
C601 H604 0.950 . S
C602 C601 1.387 . S
C602 C605 1.387 . S
H603 C599 0.950 . S
H604 C601 0.950 . S
C605 C596 1.390 . S
C605 H598 0.950 . S
C605 C602 1.387 . S
C606 C607 1.387 . S
C606 H610 0.950 . S
C606 C615 1.390 . S
C607 C606 1.387 . S
C607 C609 1.387 . S
H608 C615 0.950 . S
C609 C607 1.387 . S
C609 C611 1.390 . S
C609 H613 0.950 . S
H610 C606 0.950 . S
C611 C609 1.390 . S
C611 C612 1.387 . S
C611 H614 0.950 . S
C612 C611 1.387 . S
C612 C615 1.387 . S
H613 C609 0.950 . S
H614 C611 0.950 . S
C615 C606 1.390 . S
C615 H608 0.950 . S
C615 C612 1.387 . S
C377 C8 1.790 . S
C382 C119 1.536 . S
C387 C31 1.995 . S
C392 C155 1.820 . S
C397 C53 1.553 . S
C402 C191 1.503 . S
C412 C221 1.560 . S
C407 C74 1.760 . S
C422 C263 1.564 . S
C417 C26 1.573 . S
C427 C48 1.990 . S
C432 C293 1.800 1_655 S
C437 C71 1.782 . S
C442 C329 1.515 . S
C447 C5 1.773 . S
C452 C371 1.586 . S
C457 C50 1.777 . S
C462 C341 1.563 . S
C472 C233 1.845 . S
C467 C70 1.978 . S
C482 C299 1.556 . S
C477 C4 1.551 . S
C487 C28 1.786 . S
C492 C335 1.610 . S
C502 C125 1.559 . S
C497 C73 1.558 . S
C507 C7 1.994 . S
C512 C185 1.733 1_455 S
C522 C227 1.567 . S
C517 C30 1.801 . S
C532 C89 1.597 . S
C527 C52 1.752 . S
C542 C305 1.448 . S
C537 C9 1.494 . S
C552 C365 1.421 . S
C547 C29 1.491 . S
C557 C51 1.752 . S
C562 C257 1.661 . S
C572 C269 1.659 . S
C567 C75 1.740 . S
C582 C161 1.598 . S
C577 C27 1.741 . S
C587 C49 1.497 . S
C592 C197 1.434 . S
C602 C113 1.430 . S
C597 C72 1.487 . S
C612 C149 1.687 . S
C607 C6 1.760 . S
