# Generated by pormake.
# Topology zzz, (3,6)-cn, num edge types: 1
# Building blocks:
#     Node 0, Type 0, BuildingBlock: CUQRIR_clean_linker_1, # of connection points: 3
#     Node 1, Type 0, BuildingBlock: CUQRIR_clean_linker_1, # of connection points: 3
#     Node 2, Type 0, BuildingBlock: CUQRIR_clean_linker_1, # of connection points: 3
#     Node 3, Type 0, BuildingBlock: CUQRIR_clean_linker_1, # of connection points: 3
#     Node 4, Type 0, BuildingBlock: CUQRIR_clean_linker_1, # of connection points: 3
#     Node 5, Type 0, BuildingBlock: CUQRIR_clean_linker_1, # of connection points: 3
#     Node 6, Type 0, BuildingBlock: CUQRIR_clean_linker_1, # of connection points: 3
#     Node 7, Type 0, BuildingBlock: CUQRIR_clean_linker_1, # of connection points: 3
#     Node 8, Type 1, BuildingBlock: KUMBOL_clean_sbu_1, # of connection points: 6
#     Node 9, Type 1, BuildingBlock: KUMBOL_clean_sbu_1, # of connection points: 6
#     Node 10, Type 1, BuildingBlock: KUMBOL_clean_sbu_1, # of connection points: 6
#     Node 11, Type 1, BuildingBlock: KUMBOL_clean_sbu_1, # of connection points: 6
#     Edge 12, Type (0, 1), BuildingBlock: XUDNAN_clean_linker_2, # of connection points: 2
#     Edge 13, Type (0, 1), BuildingBlock: XUDNAN_clean_linker_2, # of connection points: 2
#     Edge 14, Type (0, 1), BuildingBlock: XUDNAN_clean_linker_2, # of connection points: 2
#     Edge 15, Type (0, 1), BuildingBlock: XUDNAN_clean_linker_2, # of connection points: 2
#     Edge 16, Type (0, 1), BuildingBlock: XUDNAN_clean_linker_2, # of connection points: 2
#     Edge 17, Type (0, 1), BuildingBlock: XUDNAN_clean_linker_2, # of connection points: 2
#     Edge 18, Type (0, 1), BuildingBlock: XUDNAN_clean_linker_2, # of connection points: 2
#     Edge 19, Type (0, 1), BuildingBlock: XUDNAN_clean_linker_2, # of connection points: 2
#     Edge 20, Type (0, 1), BuildingBlock: XUDNAN_clean_linker_2, # of connection points: 2
#     Edge 21, Type (0, 1), BuildingBlock: XUDNAN_clean_linker_2, # of connection points: 2
#     Edge 22, Type (0, 1), BuildingBlock: XUDNAN_clean_linker_2, # of connection points: 2
#     Edge 23, Type (0, 1), BuildingBlock: XUDNAN_clean_linker_2, # of connection points: 2
#     Edge 24, Type (0, 1), BuildingBlock: XUDNAN_clean_linker_2, # of connection points: 2
#     Edge 25, Type (0, 1), BuildingBlock: XUDNAN_clean_linker_2, # of connection points: 2
#     Edge 26, Type (0, 1), BuildingBlock: XUDNAN_clean_linker_2, # of connection points: 2
#     Edge 27, Type (0, 1), BuildingBlock: XUDNAN_clean_linker_2, # of connection points: 2
#     Edge 28, Type (0, 1), BuildingBlock: XUDNAN_clean_linker_2, # of connection points: 2
#     Edge 29, Type (0, 1), BuildingBlock: XUDNAN_clean_linker_2, # of connection points: 2
#     Edge 30, Type (0, 1), BuildingBlock: XUDNAN_clean_linker_2, # of connection points: 2
#     Edge 31, Type (0, 1), BuildingBlock: XUDNAN_clean_linker_2, # of connection points: 2
#     Edge 32, Type (0, 1), BuildingBlock: XUDNAN_clean_linker_2, # of connection points: 2
#     Edge 33, Type (0, 1), BuildingBlock: XUDNAN_clean_linker_2, # of connection points: 2
#     Edge 34, Type (0, 1), BuildingBlock: XUDNAN_clean_linker_2, # of connection points: 2
#     Edge 35, Type (0, 1), BuildingBlock: XUDNAN_clean_linker_2, # of connection points: 2
# Relax obj value: 0.217
# Max RMSD: 0.114
# Mean RMSD: 0.090
data_MOF--net-zzz--node1-KUMBOL_clean_sbu_1--node2-CUQRIR_clean_linker_1--edge1-XUDNAN_clean_linker_2
_symmetry_space_group_name_H-M    P1
_symmetry_Int_Tables_number       1
_symmetry_cell_setting            triclinic
loop_
_symmetry_equiv_pos_as_xyz
'x, y, z'
_cell_length_a     46.621375
_cell_length_b     46.84467
_cell_length_c     14.241912
_cell_angle_alpha  90.168845
_cell_angle_beta   89.829059
_cell_angle_gamma 90.191398
loop_
_atom_site_label
_atom_site_type_symbol
_atom_site_fract_x
_atom_site_fract_y
_atom_site_fract_z
_atom_type_partial_charge
C0 C 0.76318 0.55131 0.29349 0.0
N1 N 0.78852 0.53803 0.3152 0.0
N2 N 0.74872 0.53746 0.22198 0.0
C3 C 0.75211 0.57699 0.3449 0.0
C4 C 0.76687 0.51562 0.20075 0.0
N5 N 0.79023 0.51587 0.25724 0.0
C6 C 0.76398 0.49625 0.11652 0.0
H7 H 0.72832 0.57696 0.34631 0.0
H8 H 0.75962 0.59655 0.30847 0.0
H9 H 0.76046 0.57752 0.41779 0.0
H10 H 0.75308 0.50727 0.05783 0.0
H11 H 0.75124 0.47716 0.13652 0.0
H12 H 0.78521 0.48881 0.09131 0.0
C13 C 1.0145 0.76544 0.32188 0.0
N14 N 0.0254 0.79285 0.31919 0.0
N15 N 0.02591 0.74861 0.25183 0.0
C16 C 0.99239 0.75516 0.39052 0.0
C17 C 0.0445 0.76656 0.20917 0.0
N18 N 0.04368 0.79307 0.24737 0.0
C19 C 0.06218 0.75884 0.12386 0.0
H20 H 0.99468 0.76643 0.45873 0.0
H21 H 0.99424 0.7318 0.40126 0.0
H22 H 0.97074 0.75958 0.362 0.0
H23 H 0.05029 0.7649 0.05957 0.0
H24 H 0.0667 0.73561 0.12129 0.0
H25 H 0.08287 0.77057 0.12407 0.0
C26 C 0.7916 1.01373 0.31082 0.0
N27 N 0.76298 0.02086 0.31217 0.0
N28 N 0.80422 0.01935 0.22475 0.0
C29 C 0.80725 1.00193 0.39366 0.0
C30 C 0.78172 0.0293 0.17402 0.0
N31 N 0.75754 0.03051 0.22656 0.0
C32 C 0.7823 0.03469 0.06966 0.0
H33 H 0.83009 1.00868 0.39236 0.0
H34 H 0.80636 0.97827 0.39067 0.0
H35 H 0.79699 1.009 0.46013 0.0
H36 H 0.79793 0.02052 0.03386 0.0
H37 H 0.78855 0.05723 0.05693 0.0
H38 H 0.76089 0.03124 0.03775 0.0
C39 C 0.53503 0.80169 0.31138 0.0
N40 N 0.52537 0.77455 0.3317 0.0
N41 N 0.52108 0.81309 0.23489 0.0
C42 C 0.55702 0.81745 0.36787 0.0
C43 C 0.50297 0.7916 0.20996 0.0
N44 N 0.50551 0.76891 0.2677 0.0
C45 C 0.48357 0.79212 0.12562 0.0
H46 H 0.55808 0.8089 0.44037 0.0
H47 H 0.55208 0.84061 0.36965 0.0
H48 H 0.5783 0.81471 0.33401 0.0
H49 H 0.4919 0.80689 0.07111 0.0
H50 H 0.46195 0.79939 0.14783 0.0
H51 H 0.48131 0.77045 0.09482 0.0
C52 C 0.29546 0.52063 0.11876 0.0
N53 N 0.26998 0.50658 0.10431 0.0
N54 N 0.3143 0.5049 0.17179 0.0
C55 C 0.30191 0.54975 0.08052 0.0
C56 C 0.29942 0.48018 0.18421 0.0
N57 N 0.27232 0.48159 0.14834 0.0
C58 C 0.31129 0.4541 0.23236 0.0
H59 H 0.29387 0.55156 1.00755 0.0
H60 H 0.3253 0.55425 0.08178 0.0
H61 H 0.29056 0.56592 0.12373 0.0
H62 H 0.31916 0.45974 0.30353 0.0
H63 H 0.32948 0.44562 0.1907 0.0
H64 H 0.29526 0.43663 0.23735 0.0
C65 C 0.03954 0.30785 0.09323 0.0
N66 N 0.03497 0.2789 0.10504 0.0
N67 N 0.04392 0.3216 0.17754 0.0
C68 C 0.03659 0.3233 1.0018 0.0
C69 C 0.04301 0.29991 0.23946 0.0
N70 N 0.0363 0.27479 0.19755 0.0
C71 C 0.04676 0.30345 0.34424 0.0
H72 H 0.05821 0.3265 0.97072 0.0
H73 H 0.02698 0.34466 1.01346 0.0
H74 H 0.02314 0.31095 0.95192 0.0
H75 H 0.02539 0.30542 0.37814 0.0
H76 H 0.05975 0.32266 0.36125 0.0
H77 H 0.05757 0.28452 0.37426 0.0
C78 C 0.24852 0.04247 0.07612 0.0
N79 N 0.27541 0.05445 0.0672 0.0
N80 N 0.23342 0.05407 0.1501 0.0
C81 C 0.2375 0.01862 0.01579 0.0
C82 C 0.25181 0.07404 0.18353 0.0
N83 N 0.27691 0.07421 0.13482 0.0
C84 C 0.24438 0.09483 0.2608 0.0
H85 H 0.22765 0.02782 0.95188 0.0
H86 H 0.2209 1.00606 0.05362 0.0
H87 H 0.25532 1.00446 0.99362 0.0
H88 H 0.22128 0.10041 0.25844 0.0
H89 H 0.25729 0.1147 0.25513 0.0
H90 H 0.24873 0.08481 0.32977 0.0
C91 C 0.52482 0.25937 0.09009 0.0
N92 N 0.52505 0.28864 0.10031 0.0
N93 N 0.51808 0.24563 0.17276 0.0
C94 C 0.53351 0.24417 1.00191 0.0
C95 C 0.51333 0.26793 0.23127 0.0
N96 N 0.5196 0.29344 0.19073 0.0
C97 C 0.50753 0.26444 0.33504 0.0
H98 H 0.54357 0.22334 0.01839 0.0
H99 H 0.54849 0.25753 0.96006 0.0
H100 H 0.51408 0.23998 0.95919 0.0
H101 H 0.5281 0.2652 0.37405 0.0
H102 H 0.49678 0.24374 0.34968 0.0
H103 H 0.49375 0.28205 0.36106 0.0
C104 C 0.07842 0.08657 0.88041 0.0
C105 C 0.06314 0.08847 0.0439 0.0
C106 C 0.06299 0.07484 0.95538 0.0
C107 C 0.0789 0.11373 0.05662 0.0
C108 C 0.0942 0.11207 0.89355 0.0
C109 C 0.09426 0.12555 0.98169 0.0
N110 N 0.07754 0.07349 0.79457 0.0
C111 C 0.09319 0.08413 0.7213 0.0
C112 C 0.10951 0.12338 0.81768 0.0
C113 C 0.10916 0.10923 0.73149 0.0
Gd114 Gd 0.99052 0.05158 0.6169 0.0
Gd115 Gd 0.05059 0.0307 0.79048 0.0
N116 N 0.04756 0.05042 0.94163 0.0
C117 C 0.04753 0.07624 0.11758 0.0
C118 C 0.03345 0.03769 0.01466 0.0
C119 C 0.03302 0.05053 0.10328 0.0
H120 H 0.02293 1.01733 1.00606 0.0
H121 H 0.02176 0.04038 0.1608 0.0
H122 H 1.01251 0.1067 0.48707 0.0
H123 H 0.0941 0.07331 0.65525 0.0
H124 H 1.01282 0.12094 0.3192 0.0
H125 H 0.0471 0.08617 0.18636 0.0
H126 H 0.07934 0.12432 0.12436 0.0
H127 H 0.94099 1.00034 0.63598 0.0
H128 H 0.12184 0.1429 0.82508 0.0
H129 H 0.12133 0.11758 0.67278 0.0
H130 H 0.95974 0.04651 0.16436 0.0
H131 H 0.1062 0.14515 0.99271 0.0
H132 H 0.91402 0.97636 0.35898 0.0
H133 H 0.91154 0.96975 0.53133 0.0
N134 N 0.96076 0.02272 0.52349 0.0
C135 C 0.96085 0.02804 0.43007 0.0
C136 C 0.94221 1.00315 0.56073 0.0
C137 C 0.92706 0.98962 0.40456 0.0
C138 C 0.92554 0.98588 0.50178 0.0
C139 C 0.94439 1.01136 0.36769 0.0
H140 H 0.93302 1.0046 0.22236 0.0
N141 N 0.98936 0.06831 0.46183 0.0
C142 C 0.97571 0.05163 0.39806 0.0
C143 C 0.98859 0.0843 0.27401 0.0
C144 C 0.97496 0.05909 0.30229 0.0
C145 C 1.00205 0.09333 0.43534 0.0
C146 C 1.00217 0.1015 0.34083 0.0
O147 O 0.0225 0.07087 0.81174 0.0
O148 O 0.02117 0.0867 0.66348 0.0
O149 O 0.9544 0.07939 0.58785 0.0
O150 O 0.966 0.06925 0.73173 0.0
O151 O 1.00886 1.01124 0.84753 0.0
O152 O 0.97416 0.03115 0.75213 0.0
O153 O 0.99881 1.00356 0.60766 0.0
O154 O 0.03834 0.99159 0.69871 0.0
O155 O 0.06752 0.99813 0.88291 0.0
O156 O 0.09643 0.02581 0.80669 0.0
O157 O 0.03541 0.05808 0.55325 0.0
O158 O 0.06552 0.02882 0.63755 0.0
C159 C 0.02236 0.09267 0.75344 0.0
C160 C 0.9818 1.01761 0.82921 0.0
C161 C 0.94381 0.11311 0.70856 0.0
C162 C 0.94876 0.16417 0.68705 0.0
C163 C 0.92185 0.14592 0.81972 0.0
C164 C 0.92753 0.11803 0.79006 0.0
C165 C 0.93209 0.16905 0.76757 0.0
C166 C 0.95483 0.1362 0.65858 0.0
C167 C 0.94925 0.08384 0.67718 0.0
C168 C 0.96012 0.0415 0.23859 0.0
C169 C 0.9449 1.01765 0.27139 0.0
H170 H 0.98843 0.09086 0.20111 0.0
C171 C 1.01796 0.98487 0.63727 0.0
C172 C 0.05933 0.04308 0.56054 0.0
C173 C 0.11062 0.97813 0.82214 0.0
C174 C 0.11539 0.92675 0.80581 0.0
C175 C 0.15109 0.95783 0.73656 0.0
C176 C 0.13612 0.98169 0.77008 0.0
C177 C 0.14088 0.93028 0.75495 0.0
C178 C 0.10062 0.95059 0.83964 0.0
C179 C 0.09399 1.0028 0.85653 0.0
H180 H 0.90917 0.1496 0.88236 0.0
H181 H 0.91906 0.10032 0.83019 0.0
H182 H 0.927 0.19059 0.78965 0.0
H183 H 0.96735 0.13243 0.59542 0.0
H184 H 0.17071 0.96073 0.69682 0.0
H185 H 0.14445 1.00282 0.7552 0.0
H186 H 0.15278 0.91191 0.7302 0.0
H187 H 0.08137 0.94748 0.88145 0.0
C188 C 0.55251 0.94982 0.53943 0.0
C189 C 0.53699 0.90714 0.62047 0.0
C190 C 0.53343 0.93623 0.59826 0.0
C191 C 0.56144 0.89263 0.58807 0.0
C192 C 0.57589 0.93477 0.5006 0.0
C193 C 0.58089 0.90645 0.52812 0.0
N194 N 0.54638 0.97683 0.5123 0.0
C195 C 0.56087 0.98879 0.43843 0.0
C196 C 0.59273 0.94822 0.43225 0.0
C197 C 0.58492 0.97521 0.40021 0.0
Gd198 Gd 0.52874 0.04914 0.79893 0.0
Gd199 Gd 0.50838 1.00007 0.59253 0.0
N200 N 0.50967 0.95066 0.62518 0.0
C201 C 0.51512 0.89318 0.67001 0.0
C202 C 0.48705 0.93641 0.66492 0.0
C203 C 0.48974 0.90773 0.69046 0.0
H204 H 0.46739 0.94767 0.68079 0.0
H205 H 0.47224 0.89687 0.72561 0.0
H206 H 0.58434 0.0199 0.91216 0.0
H207 H 0.55469 1.00954 0.41225 0.0
H208 H 0.6316 0.03462 0.97247 0.0
H209 H 0.51706 0.87087 0.68881 0.0
H210 H 0.56479 0.87038 0.6054 0.0
H211 H 0.49185 0.10908 0.76499 0.0
H212 H 0.61111 0.93759 0.4015 0.0
H213 H 0.59747 0.98559 0.3465 0.0
H214 H 0.63301 0.13636 0.93265 0.0
H215 H 0.59899 0.89467 0.50022 0.0
H216 H 0.54743 0.18046 0.81686 0.0
H217 H 0.50004 0.16134 0.76963 0.0
N218 N 0.53449 0.099 0.805 0.0
C219 C 0.56017 0.10907 0.83499 0.0
C220 C 0.51264 0.11735 0.78498 0.0
C221 C 0.54401 0.15758 0.81403 0.0
C222 C 0.51721 0.14687 0.78757 0.0
C223 C 0.56576 0.13863 0.83981 0.0
H224 H 0.59723 0.17091 0.87683 0.0
N225 N 0.57291 0.06167 0.86749 0.0
C226 C 0.5801 0.08972 0.86704 0.0
C227 C 0.62541 0.07907 0.94083 0.0
C228 C 0.60649 0.09927 0.90397 0.0
C229 C 0.59059 0.04208 0.90804 0.0
C230 C 0.61732 0.05036 0.94318 0.0
O231 O 0.50444 0.98474 0.74432 0.0
O232 O 0.54329 1.00256 0.8161 0.0
O233 O 0.51913 0.06609 0.9367 0.0
O234 O 0.49791 0.02757 0.88945 0.0
O235 O 0.47301 1.00734 0.7018 0.0
O236 O 0.48295 0.05345 0.73847 0.0
O237 O 0.52733 0.075 0.66303 0.0
O238 O 0.51413 0.04625 0.53698 0.0
O239 O 0.49211 0.97847 0.46785 0.0
O240 O 0.46776 1.0122 0.5342 0.0
O241 O 0.56777 0.02616 0.73533 0.0
O242 O 0.5525 0.02258 0.58388 0.0
C243 C 0.52535 0.98115 0.80478 0.0
C244 C 0.46407 0.03238 0.73179 0.0
C245 C 0.51388 0.02859 0.04535 0.0
C246 C 0.55272 0.02016 0.15527 0.0
C247 C 0.51432 0.98546 0.1394 0.0
C248 C 0.50151 1.00246 0.07086 0.0
C249 C 0.54 0.99408 0.18095 0.0
C250 C 0.53884 0.0377 0.09058 0.0
C251 C 0.5041 0.04376 0.96106 0.0
C252 C 0.61279 0.12862 0.90509 0.0
C253 C 0.59243 0.14828 0.8732 0.0
H254 H 0.64595 0.08548 0.96959 0.0
C255 C 0.52122 0.07154 0.57303 0.0
C256 C 0.57362 0.02304 0.6453 0.0
C257 C 0.46366 1.00756 0.37087 0.0
C258 C 0.44837 0.04808 0.27674 0.0
C259 C 0.45044 1.00039 0.20892 0.0
C260 C 0.45942 0.98934 0.29426 0.0
C261 C 0.44588 0.02963 0.1992 0.0
C262 C 0.45843 0.03696 0.3616 0.0
C263 C 0.46996 0.99515 0.46252 0.0
H264 H 0.50486 0.96511 0.15796 0.0
H265 H 0.48236 0.99495 0.03581 0.0
H266 H 0.55039 0.97993 0.23007 0.0
H267 H 0.5492 0.05725 0.06812 0.0
H268 H 0.44658 0.98609 0.15053 0.0
H269 H 0.46249 0.96651 0.30095 0.0
H270 H 0.43847 0.0373 0.13274 0.0
H271 H 0.45985 0.05088 0.42227 0.0
C272 C 0.47389 0.48415 0.8755 0.0
C273 C 0.49806 0.46928 0.01836 0.0
C274 C 0.49499 0.48855 0.94333 0.0
C275 C 0.47887 0.4463 0.02731 0.0
C276 C 0.45446 0.46115 0.88511 0.0
C277 C 0.45712 0.44228 0.96102 0.0
N278 N 0.47223 0.50235 0.80095 0.0
C279 C 0.44922 0.50084 0.74199 0.0
C280 C 0.43256 0.45803 0.81899 0.0
C281 C 0.42961 0.47829 0.74822 0.0
Gd282 Gd 0.55608 0.51795 0.59753 0.0
Gd283 Gd 0.50635 0.53979 0.80116 0.0
N284 N 0.51383 0.5106 0.93206 0.0
C285 C 0.52083 0.47326 0.08084 0.0
C286 C 0.5351 0.5155 0.99584 0.0
C287 C 0.53938 0.49648 0.06973 0.0
H288 H 0.54906 0.53379 0.98875 0.0
H289 H 0.55672 0.49994 0.11886 0.0
H290 H 0.52562 0.46457 0.4725 0.0
H291 H 0.44477 0.5177 0.69345 0.0
H292 H 0.49866 0.46019 0.32362 0.0
H293 H 0.52396 0.45884 0.13916 0.0
H294 H 0.48069 0.43146 0.08515 0.0
H295 H 0.61068 0.5635 0.55509 0.0
H296 H 0.41719 0.4407 0.82405 0.0
H297 H 0.41177 0.47701 0.69993 0.0
H298 H 0.51579 0.54965 0.16793 0.0
H299 H 0.44241 0.4245 0.96917 0.0
H300 H 0.59354 0.60549 0.29343 0.0
H301 H 0.62412 0.5993 0.43403 0.0
N302 N 0.573 0.55033 0.48341 0.0
C303 C 0.55814 0.55111 0.40201 0.0
C304 C 0.59773 0.5658 0.49268 0.0
C305 C 0.58784 0.58966 0.34562 0.0
C306 C 0.60523 0.58612 0.42468 0.0
C307 C 0.56436 0.5714 0.33209 0.0
H308 H 0.55194 0.58732 0.1952 0.0
N309 N 0.53814 0.50754 0.44698 0.0
C310 C 0.53935 0.52913 0.38425 0.0
C311 C 0.50788 0.5034 0.28031 0.0
C312 C 0.52435 0.52776 0.29888 0.0
C313 C 0.52537 0.48221 0.42364 0.0
C314 C 0.5098 0.47985 0.34016 0.0
O315 O 0.53271 0.49753 0.80835 0.0
O316 O 0.53119 0.48056 0.66045 0.0
O317 O 0.58222 0.48591 0.52728 0.0
O318 O 0.59931 0.50966 0.64448 0.0
O319 O 0.55097 0.55773 0.82672 0.0
O320 O 0.57683 0.52437 0.74378 0.0
O321 O 0.55217 0.5668 0.60831 0.0
O322 O 0.51706 0.58017 0.7153 0.0
O323 O 0.50093 0.5681 0.92064 0.0
O324 O 0.4642 0.55551 0.8367 0.0
O325 O 0.50767 0.50845 0.58082 0.0
O326 O 0.48836 0.54647 0.65472 0.0
C327 C 0.53104 0.47545 0.75092 0.0
C328 C 0.57511 0.54404 0.81049 0.0
C329 C 0.61064 0.46122 0.63962 0.0
C330 C 0.60522 0.41003 0.66143 0.0
C331 C 0.63681 0.43691 0.76343 0.0
C332 C 0.62997 0.462 0.71536 0.0
C333 C 0.62467 0.41089 0.73616 0.0
C334 C 0.59829 0.43521 0.61394 0.0
C335 C 0.60241 0.48759 0.59034 0.0
C336 C 0.52762 0.54992 0.23331 0.0
C337 C 0.54809 0.57147 0.24906 0.0
H338 H 0.49476 0.50212 0.21797 0.0
C339 C 0.53601 0.58655 0.64896 0.0
C340 C 0.48772 0.52828 0.58466 0.0
C341 C 0.4565 0.56299 0.99835 0.0
C342 C 0.44375 0.58066 0.15326 0.0
C343 C 0.4188 0.53968 0.0878 0.0
C344 C 0.43581 0.54124 1.00684 0.0
C345 C 0.4225 0.55961 0.16023 0.0
C346 C 0.46038 0.58222 0.07139 0.0
C347 C 0.47309 0.56804 0.91262 0.0
H348 H 0.65193 0.43749 0.82084 0.0
H349 H 0.63973 0.48194 0.73732 0.0
H350 H 0.63081 0.39148 0.77191 0.0
H351 H 0.5839 0.43428 0.55431 0.0
H352 H 0.40239 0.52338 0.09361 0.0
H353 H 0.43224 0.52609 0.95054 0.0
H354 H 0.40861 0.55911 0.22044 0.0
H355 H 0.47562 0.59955 0.06174 0.0
C356 C 0.06218 0.48528 0.94129 0.0
C357 C 0.04541 0.50034 0.09543 0.0
C358 C 0.04234 0.49996 0.99699 0.0
C359 C 0.06896 0.48677 0.13673 0.0
C360 C 0.08543 0.47102 0.98318 0.0
C361 C 0.08873 0.4719 0.08108 0.0
N362 N 0.05894 0.48525 0.84618 0.0
C363 C 0.07714 0.47016 0.78967 0.0
C364 C 0.10479 0.45636 0.92536 0.0
C365 C 0.10051 0.45578 0.82833 0.0
Gd366 Gd 0.04329 0.56771 0.61513 0.0
Gd367 Gd 1.01863 0.50982 0.79154 0.0
N368 N 0.01988 0.51342 0.95543 0.0
C369 C 0.02455 0.51412 0.14984 0.0
C370 C 0.99884 0.52588 1.00836 0.0
C371 C 1.00101 0.52663 0.1061 0.0
H372 H 0.98028 0.53524 0.97529 0.0
H373 H 0.98443 0.53681 0.14736 0.0
H374 H 1.00916 0.52186 0.4582 0.0
H375 H 0.07402 0.46964 0.71469 0.0
H376 H 0.97893 0.52584 0.32054 0.0
H377 H 0.02621 0.51474 0.22568 0.0
H378 H 0.072 0.48773 0.2118 0.0
H379 H 0.04418 0.63312 0.70923 0.0
H380 H 0.12301 0.44529 0.95497 0.0
H381 H 0.11525 0.44431 0.78325 0.0
H382 H 0.96132 0.62581 0.29014 0.0
H383 H 0.10655 0.46121 0.11446 0.0
H384 H 0.99665 0.68835 0.52932 0.0
H385 H 0.02624 0.68112 0.67074 0.0
N386 N 0.02389 0.61306 0.59271 0.0
C387 C 1.00829 0.61661 0.51316 0.0
C388 C 0.03058 0.63579 0.64869 0.0
C389 C 1.0042 0.66713 0.54631 0.0
C390 C 0.02073 0.66311 0.62662 0.0
C391 C 0.99775 0.6438 0.48846 0.0
H392 H 0.97304 0.66767 0.38699 0.0
N393 N 1.0121 0.56673 0.4837 0.0
C394 C 1.00223 0.5929 0.45719 0.0
C395 C 0.97685 0.57166 0.32653 0.0
C396 C 0.98466 0.596 0.37718 0.0
C397 C 1.00347 0.54283 0.43587 0.0
C398 C 0.98579 0.54494 0.3572 0.0
O399 O 0.06217 0.53138 0.82333 0.0
O400 O 0.07764 0.5379 0.67466 0.0
O401 O 0.06611 0.58391 0.49394 0.0
O402 O 0.08001 0.5957 0.63402 0.0
O403 O 1.00536 0.55526 0.83544 0.0
O404 O 0.04069 0.58327 0.76781 0.0
O405 O 0.99524 0.56828 0.64928 0.0
O406 O 0.98459 0.52163 0.68144 0.0
O407 O 0.98017 0.49208 0.85522 0.0
O408 O 1.01126 0.4642 0.78853 0.0
O409 O 0.05145 0.52334 0.55211 0.0
O410 O 0.02868 0.49046 0.64869 0.0
C411 C 0.08359 0.53551 0.76461 0.0
C412 C 0.02132 0.57881 0.83428 0.0
C413 C 0.11538 0.58575 0.52305 0.0
C414 C 0.14765 0.54728 0.47964 0.0
C415 C 0.16668 0.59363 0.52653 0.0
C416 C 0.13885 0.60375 0.5399 0.0
C417 C 0.17113 0.56555 0.49672 0.0
C418 C 0.11987 0.55757 0.49269 0.0
C419 C 0.08633 0.59532 0.54484 0.0
C420 C 0.97459 0.6231 0.35182 0.0
C421 C 0.98114 0.64693 0.4072 0.0
H422 H 0.96328 0.57325 0.26522 0.0
C423 C 0.97689 0.54673 0.64826 0.0
C424 C 0.04241 0.49708 0.5708 0.0
C425 C 0.99009 0.448 0.92954 0.0
C426 C 0.97004 0.43741 0.08355 0.0
C427 C 1.01314 0.41332 0.03119 0.0
C428 C 1.0124 0.42852 0.94677 0.0
C429 C 0.99197 0.41763 0.09953 0.0
C430 C 0.96883 0.45167 0.99725 0.0
C431 C 0.98921 0.46588 0.84447 0.0
H432 H 0.18485 0.60753 0.53949 0.0
H433 H 0.13563 0.62542 0.5645 0.0
H434 H 0.19292 0.55828 0.48562 0.0
H435 H 0.10181 0.54341 0.48109 0.0
H436 H 0.03032 0.39838 0.04392 0.0
H437 H 0.02935 0.42519 0.89578 0.0
H438 H 0.99288 0.40585 0.16452 0.0
H439 H 0.95128 0.46618 0.98298 0.0
H440 H 0.2195 0.03778 0.32973 0.0
H441 H 0.18178 0.05861 0.0616 0.0
H442 H 0.13326 0.05724 0.13476 0.0
H443 H 0.16153 0.98893 0.41053 0.0
H444 H 0.16425 1.00053 0.53098 0.0
H445 H 0.19541 1.00144 0.45579 0.0
H446 H 0.20212 0.05512 0.49315 0.0
H447 H 0.17082 0.0544 0.56761 0.0
H448 H 0.17299 0.07946 0.47203 0.0
H449 H 0.08835 0.05777 0.24486 0.0
H450 H 0.05198 0.05622 0.37232 0.0
H451 H 0.11845 0.03235 0.5691 0.0
C452 C 0.20095 0.04138 0.28588 0.0
C453 C 0.20472 0.04793 0.18872 0.0
C454 C 0.17971 0.05297 0.13497 0.0
C455 C 0.15198 0.05249 0.17664 0.0
C456 C 0.14913 0.04663 0.27289 0.0
C457 C 0.17304 0.04065 0.32641 0.0
C458 C 0.1643 0.03534 0.42863 0.0
C459 C 0.17182 1.00474 0.45822 0.0
C460 C 0.1784 0.05739 0.49422 0.0
C461 C 0.13181 0.03952 0.42503 0.0
C462 C 0.12348 0.04626 0.33472 0.0
C463 C 0.09471 0.05232 0.31535 0.0
C464 C 0.0741 0.05146 0.38885 0.0
C465 C 0.08181 0.04413 0.48217 0.0
C466 C 0.11134 0.03788 0.49919 0.0
H467 H 0.48772 0.19417 0.17832 0.0
H468 H 0.5675 0.23422 0.26113 0.0
H469 H 0.57731 0.19411 0.36863 0.0
H470 H 0.46605 0.16483 0.38563 0.0
H471 H 0.45519 0.12979 0.34778 0.0
H472 H 0.45446 0.15913 0.26632 0.0
H473 H 0.48591 0.13197 0.15202 0.0
H474 H 0.4909 0.10161 0.22879 0.0
H475 H 0.52138 0.12085 0.18556 0.0
H476 H 0.5745 0.15315 0.48829 0.0
H477 H 0.56445 0.11071 0.58543 0.0
H478 H 0.48978 0.09184 0.41543 0.0
C479 C 0.50784 0.19388 0.21594 0.0
C480 C 0.52711 0.21762 0.20906 0.0
C481 C 0.55276 0.21631 0.26253 0.0
C482 C 0.5583 0.19365 0.32523 0.0
C483 C 0.53853 0.17128 0.33301 0.0
C484 C 0.51438 0.17054 0.27691 0.0
C485 C 0.49752 0.14299 0.29676 0.0
C486 C 0.46645 0.14957 0.3257 0.0
C487 C 0.49888 0.12324 0.21056 0.0
C488 C 0.51434 0.12982 0.37816 0.0
C489 C 0.53811 0.14651 0.39726 0.0
C490 C 0.55624 0.13972 0.47199 0.0
C491 C 0.55023 0.11541 0.52751 0.0
C492 C 0.52647 0.09717 0.50881 0.0
C493 C 0.50842 0.10467 0.43175 0.0
H494 H 0.3659 0.47609 0.20532 0.0
H495 H 0.32101 0.55477 0.26864 0.0
H496 H 0.36048 0.56898 0.37446 0.0
H497 H 0.38897 0.46513 0.45096 0.0
H498 H 0.42247 0.44882 0.41786 0.0
H499 H 0.39168 0.44547 0.34227 0.0
H500 H 0.42012 0.46828 0.20112 0.0
H501 H 0.4505 0.46797 0.27823 0.0
H502 H 0.44001 0.50071 0.22268 0.0
H503 H 0.40625 0.57566 0.47059 0.0
H504 H 0.45081 0.57263 0.56154 0.0
H505 H 0.4639 0.48623 0.46008 0.0
C506 C 0.36384 0.49609 0.24234 0.0
C507 C 0.33961 0.51424 0.22664 0.0
C508 C 0.33915 0.54063 0.27594 0.0
C509 C 0.36141 0.54868 0.33814 0.0
C510 C 0.38433 0.53 0.35343 0.0
C511 C 0.38559 0.50409 0.30749 0.0
C512 C 0.41224 0.48757 0.33929 0.0
C513 C 0.4033 0.46011 0.39063 0.0
C514 C 0.43185 0.48078 0.25529 0.0
C515 C 0.42652 0.50877 0.40712 0.0
C516 C 0.41002 0.53323 0.4129 0.0
C517 C 0.4189 0.55635 0.46762 0.0
C518 C 0.44457 0.55437 0.51942 0.0
C519 C 0.46173 0.52929 0.51893 0.0
C520 C 0.45222 0.50609 0.46111 0.0
H521 H 1.00703 0.34929 0.29573 0.0
H522 H 0.08349 0.36222 0.12853 0.0
H523 H 0.09089 0.40942 0.20591 0.0
H524 H 0.98329 0.42623 0.31716 0.0
H525 H 0.97145 0.41948 0.43515 0.0
H526 H 0.97102 0.39101 0.34972 0.0
H527 H 1.00178 0.36186 0.47006 0.0
H528 H 1.00375 0.39203 0.5485 0.0
H529 H 0.03622 0.37576 0.50538 0.0
H530 H 0.0923 0.45393 0.31806 0.0
H531 H 0.08486 0.49232 0.43631 0.0
H532 H 1.00955 0.4481 0.5395 0.0
C533 C 0.02493 0.36241 0.27347 0.0
C534 C 0.04449 0.35192 0.20436 0.0
C535 C 0.06788 0.36975 0.17919 0.0
C536 C 0.07239 0.39654 0.22401 0.0
C537 C 0.05347 0.40544 0.2952 0.0
C538 C 0.02996 0.3889 0.31887 0.0
C539 C 1.01384 0.40206 0.40187 0.0
C540 C 0.98307 0.41012 0.37422 0.0
C541 C 1.0139 0.38172 0.48645 0.0
C542 C 0.03175 0.42869 0.42164 0.0
C543 C 0.0545 0.43037 0.35929 0.0
C544 C 0.07411 0.45298 0.36527 0.0
C545 C 0.06982 0.47475 0.43321 0.0
C546 C 0.04666 0.47366 0.49795 0.0
C547 C 0.02758 0.44989 0.49177 0.0
H548 H 0.83662 0.05574 0.11604 0.0
H549 H 0.8393 0.97253 0.2469 0.0
H550 H 0.88592 0.96307 0.1677 0.0
H551 H 0.86144 0.03197 0.89211 0.0
H552 H 0.88131 0.06408 0.86659 0.0
H553 H 0.85044 0.06553 0.94271 0.0
H554 H 0.88102 0.0887 0.0728 0.0
H555 H 0.91246 0.08732 0.99913 0.0
H556 H 0.91289 0.07101 0.11343 0.0
H557 H 0.93428 0.96307 0.06519 0.0
H558 H 0.97415 0.97141 0.95149 0.0
H559 H 0.93567 0.05195 0.87481 0.0
C560 C 0.84688 0.03544 0.12841 0.0
C561 C 0.83369 1.01494 0.18884 0.0
C562 C 0.84866 0.98894 0.20306 0.0
C563 C 0.8752 0.98324 0.15695 0.0
C564 C 0.88686 1.00352 0.09496 0.0
C565 C 0.87291 0.02914 0.08095 0.0
C566 C 0.88867 0.04698 1.00752 0.0
C567 C 0.86932 0.05247 0.9222 0.0
C568 C 0.89939 0.07517 0.05076 0.0
C569 C 0.91369 0.02757 0.98154 0.0
C570 C 0.91277 1.00274 0.03363 0.0
C571 C 0.93464 0.98234 0.02349 0.0
C572 C 0.95742 0.98726 0.9585 0.0
C573 C 0.95819 1.01207 0.90148 0.0
C574 C 0.93578 0.03238 0.91471 0.0
H575 H 0.56436 0.84549 0.14717 0.0
H576 H 0.47477 0.84682 0.22849 0.0
H577 H 0.46715 0.88941 0.13074 0.0
H578 H 0.57082 0.92724 0.14756 0.0
H579 H 0.59569 0.92757 0.05053 0.0
H580 H 0.59517 0.89783 0.13072 0.0
H581 H 0.58745 0.86323 0.99076 0.0
H582 H 0.5877 0.89293 0.91059 0.0
H583 H 0.55754 0.86877 0.91296 0.0
H584 H 0.46667 0.92625 1.00277 0.0
H585 H 0.4754 0.96285 0.88247 0.0
H586 H 0.5667 0.94597 0.89516 0.0
C587 C 0.5434 0.85534 0.14678 0.0
C588 C 0.51998 0.84222 0.19601 0.0
C589 C 0.49295 0.85601 0.19185 0.0
C590 C 0.48837 0.88027 0.13573 0.0
C591 C 0.51126 0.89182 0.08504 0.0
C592 C 0.53857 0.88067 0.0927 0.0
C593 C 0.55928 0.89848 0.03186 0.0
C594 C 0.58157 0.91367 0.09387 0.0
C595 C 0.57386 0.87972 0.95713 0.0
C596 C 0.53909 0.92028 0.98613 0.0
C597 C 0.51141 0.91551 0.01741 0.0
C598 C 0.4884 0.93066 0.98003 0.0
C599 C 0.49362 0.9515 0.91083 0.0
C600 C 0.52179 0.95833 0.88005 0.0
C601 C 0.54493 0.94221 0.91879 0.0
H602 H 0.70636 0.50086 0.15665 0.0
H603 H 0.72946 0.59048 0.16899 0.0
H604 H 0.68658 0.60211 0.07478 0.0
H605 H 0.68677 0.50244 0.91284 0.0
H606 H 0.6582 0.47672 0.9247 0.0
H607 H 0.68832 0.47568 1.00347 0.0
H608 H 0.65365 0.47901 0.14537 0.0
H609 H 0.62351 0.47989 0.06643 0.0
H610 H 0.62834 0.50798 0.15174 0.0
H611 H 0.63956 0.60378 0.97482 0.0
H612 H 0.59781 0.59506 0.87081 0.0
H613 H 0.60959 0.50392 0.90097 0.0
C614 C 0.70265 0.523 0.13957 0.0
C615 C 0.72184 0.5447 0.17253 0.0
C616 C 0.71523 0.57334 0.14832 0.0
C617 C 0.69085 0.58015 0.09334 0.0
C618 C 0.67302 0.55817 0.06025 0.0
C619 C 0.67891 0.53008 0.08188 0.0
C620 C 0.65781 0.51017 0.03169 0.0
C621 C 0.67376 0.49006 0.96418 0.0
C622 C 0.63977 0.49326 0.10308 0.0
C623 C 0.63918 0.53128 0.97782 0.0
C624 C 0.64787 0.55895 0.99706 0.0
C625 C 0.63303 0.58212 0.95886 0.0
C626 C 0.60918 0.57698 0.89958 0.0
C627 C 0.60042 0.54885 0.87563 0.0
C628 C 0.61589 0.52573 0.9159 0.0
H629 H 1.00416 0.73445 0.08002 0.0
H630 H 0.03431 0.69743 0.33912 0.0
H631 H 0.03365 0.64938 0.26435 0.0
H632 H 0.95832 0.67371 0.99997 0.0
H633 H 0.96856 0.67848 0.87884 0.0
H634 H 0.96765 0.70874 0.95727 0.0
H635 H 0.02048 0.72018 0.9155 0.0
H636 H 0.02162 0.68979 0.83803 0.0
H637 H 0.04745 0.69313 0.93126 0.0
H638 H 0.03478 0.60516 0.15139 0.0
H639 H 0.03604 0.57084 0.01896 0.0
H640 H 1.00471 0.6362 0.83199 0.0
C641 C 1.00963 0.71606 0.12209 0.0
C642 C 1.01862 0.71993 0.21697 0.0
C643 C 0.02655 0.69523 0.26789 0.0
C644 C 0.02655 0.66779 0.22513 0.0
C645 C 1.01856 0.66497 0.13053 0.0
C646 C 1.00997 0.68858 0.08004 0.0
C647 C 1.00438 0.68043 0.97768 0.0
C648 C 0.97285 0.68565 0.95193 0.0
C649 C 0.02469 0.69687 0.91175 0.0
C650 C 1.01125 0.64859 0.97747 0.0
C651 C 0.01932 0.64 0.06649 0.0
C652 C 0.02784 0.61179 0.08237 0.0
C653 C 0.02805 0.59211 1.00655 0.0
C654 C 0.01941 0.60009 0.91485 0.0
C655 C 1.01111 0.62901 0.90086 0.0
H656 H 0.05296 0.23211 0.3111 0.0
H657 H 0.97939 0.27714 0.203 0.0
H658 H 0.94855 0.25548 0.32533 0.0
H659 H 1.01411 0.16658 0.38631 0.0
H660 H 0.03603 0.16286 0.4896 0.0
H661 H 0.05078 0.17886 0.38509 0.0
H662 H 0.06448 0.22377 0.48264 0.0
H663 H 0.04882 0.20844 0.58654 0.0
H664 H 0.03692 0.24277 0.54589 0.0
H665 H 0.9273 0.23321 0.46783 0.0
H666 H 0.91456 0.20378 0.6059 0.0
H667 H 1.00255 0.17493 0.62427 0.0
C668 C 0.03012 0.23619 0.31124 0.0
C669 C 1.01812 0.25557 0.24764 0.0
C670 C 0.98842 0.26164 0.2507 0.0
C671 C 0.97099 0.24983 0.32037 0.0
C672 C 0.98381 0.23217 0.38617 0.0
C673 C 1.0125 0.22479 0.38107 0.0
C674 C 0.02116 0.20643 0.46302 0.0
C675 C 0.03114 0.17691 0.42903 0.0
C676 C 0.04421 0.22126 0.52303 0.0
C677 C 0.99288 0.20467 0.5147 0.0
C678 C 0.97168 0.21993 0.46985 0.0
C679 C 0.94364 0.22107 0.50366 0.0
C680 C 0.93668 0.2047 0.5826 0.0
C681 C 0.95773 0.18749 0.62532 0.0
C682 C 0.98632 0.18833 0.5932 0.0
H683 H 0.30059 0.07469 0.30423 0.0
H684 H 0.31033 0.10811 0.02432 0.0
H685 H 0.35851 0.12645 0.06536 0.0
H686 H 0.35472 0.13336 0.42251 0.0
H687 H 0.36564 0.10602 0.50355 0.0
H688 H 0.3286 0.10853 0.46815 0.0
H689 H 0.32949 0.05567 0.41572 0.0
H690 H 0.36581 0.05313 0.45181 0.0
H691 H 0.35635 0.04408 0.33239 0.0
H692 H 0.40845 0.1222 0.11115 0.0
H693 H 0.44896 0.09044 0.14218 0.0
H694 H 0.4105 0.06583 0.40591 0.0
C695 C 0.31241 0.08739 0.25396 0.0
C696 C 0.30218 0.08997 0.16166 0.0
C697 C 0.31812 0.10581 0.09542 0.0
C698 C 0.34528 0.11665 0.11892 0.0
C699 C 0.35589 0.11194 0.20943 0.0
C700 C 0.33936 0.09838 0.27713 0.0
C701 C 0.3571 0.09029 0.36157 0.0
C702 C 0.35117 0.11079 0.44376 0.0
C703 C 0.35192 0.05895 0.39168 0.0
C704 C 0.38687 0.09538 0.32209 0.0
C705 C 0.38583 0.11028 0.23792 0.0
C706 C 0.40962 0.11137 0.17801 0.0
C707 C 0.43279 0.09322 0.19613 0.0
C708 C 0.43267 0.07559 0.27629 0.0
C709 C 0.4111 0.07936 0.34457 0.0
H710 H 0.50112 0.33564 0.30712 0.0
H711 H 0.57631 0.29187 0.20213 0.0
H712 H 0.60523 0.31181 0.33135 0.0
H713 H 0.53977 0.40079 0.38718 0.0
H714 H 0.51663 0.40482 0.48792 0.0
H715 H 0.50311 0.38852 0.38233 0.0
H716 H 0.48787 0.34442 0.48127 0.0
H717 H 0.50286 0.36014 0.58585 0.0
H718 H 0.51457 0.32539 0.54736 0.0
H719 H 0.62497 0.33303 0.47532 0.0
H720 H 0.63826 0.36607 0.60307 0.0
H721 H 0.55034 0.39545 0.61922 0.0
C722 C 0.52391 0.33139 0.30976 0.0
C723 C 0.53681 0.31274 0.24467 0.0
C724 C 0.56649 0.30674 0.25082 0.0
C725 C 0.58284 0.31743 0.32475 0.0
C726 C 0.56911 0.33417 0.39159 0.0
C727 C 0.54065 0.34204 0.38336 0.0
C728 C 0.53157 0.361 0.46417 0.0
C729 C 0.52224 0.39053 0.42827 0.0
C730 C 0.5078 0.34688 0.52312 0.0
C731 C 0.55946 0.36261 0.51818 0.0
C732 C 0.58061 0.34641 0.47609 0.0
C733 C 0.60866 0.3458 0.50943 0.0
C734 C 0.61593 0.36422 0.583 0.0
C735 C 0.59523 0.38304 0.6205 0.0
C736 C 0.56631 0.3808 0.59233 0.0
H737 H 0.26619 0.47076 0.33113 0.0
H738 H 0.2229 0.46158 0.06534 0.0
H739 H 0.17684 0.45695 0.14965 0.0
H740 H 0.20118 0.42422 0.471 0.0
H741 H 0.21006 0.44522 0.57309 0.0
H742 H 0.2382 0.43099 0.49955 0.0
H743 H 0.2594 0.48147 0.48324 0.0
H744 H 0.2316 0.49566 0.55457 0.0
H745 H 0.23728 0.50996 0.43827 0.0
H746 H 0.13954 0.47854 0.24723 0.0
H747 H 0.12104 0.52033 0.3323 0.0
H748 H 0.18512 0.50896 0.54657 0.0
C749 C 0.24747 0.46521 0.29073 0.0
C750 C 0.24808 0.46736 0.1919 0.0
C751 C 0.22286 0.4611 0.14128 0.0
C752 C 0.19663 0.4579 0.18896 0.0
C753 C 0.19634 0.4594 0.28722 0.0
C754 C 0.22164 0.4608 0.33793 0.0
C755 C 0.21603 0.46784 0.44018 0.0
C756 C 0.21636 0.44044 0.49938 0.0
C757 C 0.23727 0.49013 0.48098 0.0
C758 C 0.1858 0.47889 0.43192 0.0
C759 C 0.17368 0.47117 0.34631 0.0
C760 C 0.14871 0.48428 0.31432 0.0
C761 C 0.13828 0.5081 0.36314 0.0
C762 C 0.15235 0.51791 0.4448 0.0
C763 C 0.17448 0.5016 0.48364 0.0
H764 H 0.09426 0.82 0.21962 0.0
H765 H 1.00484 0.81838 0.14035 0.0
H766 H 1.0159 0.84702 0.99911 0.0
H767 H 0.10781 0.89424 0.138 0.0
H768 H 0.14382 0.88558 0.10156 0.0
H769 H 0.1275 0.86677 0.19802 0.0
H770 H 0.1383 0.81914 0.11142 0.0
H771 H 0.15308 0.83795 1.01216 0.0
H772 H 0.12384 0.81317 0.99573 0.0
H773 H 0.03717 0.87084 0.86069 0.0
H774 H 0.06461 0.90317 0.75758 0.0
H775 H 0.14037 0.89055 0.9276 0.0
C776 C 0.07703 0.82688 0.1743 0.0
C777 C 0.04876 0.81746 0.18976 0.0
C778 C 0.02651 0.82609 0.12914 0.0
C779 C 0.03271 0.84169 0.04821 0.0
C780 C 0.06121 0.84876 0.03064 0.0
C781 C 0.08284 0.84279 0.09373 0.0
C782 C 0.11145 0.85399 0.05958 0.0
C783 C 0.12334 0.87649 0.1283 0.0
C784 C 0.13293 0.8296 0.04381 0.0
C785 C 0.10246 0.86715 0.96735 0.0
C786 C 0.07351 0.86313 0.951 0.0
C787 C 0.05985 0.8742 0.87246 0.0
C788 C 0.07568 0.89203 0.81329 0.0
C789 C 0.10453 0.89879 0.83452 0.0
C790 C 0.11857 0.8849 0.90881 0.0
H791 H 0.71934 0.98997 0.18667 0.0
H792 H 0.73256 0.08123 0.19612 0.0
H793 H 0.68023 0.08889 0.17589 0.0
H794 H 0.65876 0.99031 1.01389 0.0
H795 H 0.64082 0.96135 0.07315 0.0
H796 H 0.6794 0.96356 0.07384 0.0
H797 H 0.67916 0.96223 0.25684 0.0
H798 H 0.64065 0.95975 0.25502 0.0
H799 H 0.65785 0.98795 0.32028 0.0
H800 H 0.6269 0.08559 0.1926 0.0
H801 H 0.5756 0.07264 0.1988 0.0
H802 H 0.59785 0.98335 0.16082 0.0
C803 C 0.71107 1.01145 0.18042 0.0
C804 C 0.72926 0.03512 0.19202 0.0
C805 C 0.71844 0.0631 0.18585 0.0
C806 C 0.68896 0.06751 0.17516 0.0
C807 C 0.67116 0.0436 0.16982 0.0
C808 C 0.68187 1.01611 0.16926 0.0
C809 C 0.65819 0.99406 0.16755 0.0
C810 C 0.65935 0.97629 0.07667 0.0
C811 C 0.65906 0.97488 0.25513 0.0
C812 C 0.63246 1.01342 0.16997 0.0
C813 C 0.64035 0.04186 0.17305 0.0
C814 C 0.62035 0.06348 0.18619 0.0
C815 C 0.59137 0.05588 0.19064 0.0
C816 C 0.58274 0.02704 0.17861 0.0
C817 C 0.60368 1.00557 0.17036 0.0
H818 H 0.52879 0.71789 0.23035 0.0
H819 H 0.44878 0.76062 0.29103 0.0
H820 H 0.42381 0.7137 0.29907 0.0
H821 H 0.49693 0.66319 0.0851 0.0
H822 H 0.52218 0.63641 0.1214 0.0
H823 H 0.53261 0.6734 0.12071 0.0
H824 H 0.54626 0.6703 0.29977 0.0
H825 H 0.53705 0.63303 0.29214 0.0
H826 H 0.52051 0.65488 0.37962 0.0
H827 H 0.40767 0.66241 0.28642 0.0
H828 H 0.40122 0.6122 0.23708 0.0
H829 H 0.49343 0.60271 0.21765 0.0
C830 C 0.50601 0.71712 0.24522 0.0
C831 C 0.49042 0.74235 0.26021 0.0
C832 C 0.46068 0.74117 0.27853 0.0
C833 C 0.44657 0.71476 0.28442 0.0
C834 C 0.46279 0.69005 0.27271 0.0
C835 C 0.49188 0.69105 0.25319 0.0
C836 C 0.50415 0.66167 0.23751 0.0
C837 C 0.51455 0.65849 0.13515 0.0
C838 C 0.52841 0.65467 0.30642 0.0
C839 C 0.47771 0.64383 0.25582 0.0
C840 C 0.45386 0.6605 0.27359 0.0
C841 C 0.42621 0.64901 0.27464 0.0
C842 C 0.42272 0.62034 0.24814 0.0
C843 C 0.4469 0.60384 0.22274 0.0
C844 C 0.47467 0.61493 0.23722 0.0
H845 H 0.84159 0.53436 0.19917 0.0
H846 H 0.79516 0.45947 0.29132 0.0
H847 H 0.84034 0.43129 0.28666 0.0
H848 H 0.88609 0.49736 0.03885 0.0
H849 H 0.91658 0.52038 0.05761 0.0
H850 H 0.88093 0.53394 0.07467 0.0
H851 H 0.89401 0.54905 0.24615 0.0
H852 H 0.92965 0.53598 0.22344 0.0
H853 H 0.91 0.52331 0.32324 0.0
H854 H 0.8894 0.4109 0.25335 0.0
H855 H 0.93654 0.39949 0.18212 0.0
H856 H 0.95186 0.48957 0.13558 0.0
C857 C 0.84122 0.51206 0.21899 0.0
C858 C 0.81544 0.49879 0.24597 0.0
C859 C 0.81504 0.4696 0.27009 0.0
C860 C 0.84052 0.45374 0.26894 0.0
C861 C 0.86596 0.46771 0.24463 0.0
C862 C 0.8664 0.49626 0.21993 0.0
C863 C 0.8957 0.50575 0.1875 0.0
C864 C 0.89475 0.51486 0.08355 0.0
C865 C 0.90797 0.5299 0.24898 0.0
C866 C 0.91197 0.47821 0.19958 0.0
C867 C 0.89449 0.45632 0.23135 0.0
C868 C 0.90356 0.42793 0.2309 0.0
C869 C 0.93041 0.42161 0.19112 0.0
C870 C 0.94761 0.44372 0.15363 0.0
C871 C 0.93915 0.47237 0.16485 0.0
H872 H 1.00368 0.22672 0.10933 0.0
H873 H 0.06378 0.27466 0.93671 0.0
H874 H 0.06528 0.23407 0.82562 0.0
H875 H 0.04117 0.16131 0.08895 0.0
H876 H 1.00982 0.13862 0.08842 0.0
H877 H 1.00917 0.17236 0.14956 0.0
H878 H 0.96571 0.18918 0.05641 0.0
H879 H 0.96452 0.15561 0.99437 0.0
H880 H 0.96661 0.18865 0.92997 0.0
H881 H 0.0604 0.18602 0.73136 0.0
H882 H 0.05151 0.13718 0.67049 0.0
H883 H 1.00126 0.11793 0.91865 0.0
C884 C 1.01777 0.22937 0.05027 0.0
C885 C 0.03351 0.25538 0.03439 0.0
C886 C 0.05055 0.25621 0.95128 0.0
C887 C 0.05189 0.23277 0.88768 0.0
C888 C 0.0366 0.20764 0.90742 0.0
C889 C 0.02007 0.20582 0.9876 0.0
C890 C 1.00689 0.17592 0.99625 0.0
C891 C 1.01737 0.16115 0.08609 0.0
C892 C 0.97397 0.17742 0.99413 0.0
C893 C 1.01848 0.16105 0.9083 0.0
C894 C 0.0352 0.1799 0.85705 0.0
C895 C 0.04726 0.17136 0.77132 0.0
C896 C 0.04209 0.14336 0.73708 0.0
C897 C 0.02584 0.1232 0.78927 0.0
C898 C 1.01399 0.13248 0.87666 0.0
H899 H 0.33183 0.04052 0.10493 0.0
H900 H 0.27319 0.05399 0.87474 0.0
H901 H 0.31359 0.04846 0.76151 0.0
H902 H 0.38331 0.08191 1.00825 0.0
H903 H 0.4159 0.06416 0.03374 0.0
H904 H 0.38551 0.0604 0.11317 0.0
H905 H 0.37961 1.00808 0.1069 0.0
H906 H 0.41197 1.00429 0.03815 0.0
H907 H 0.37891 0.98945 0.99595 0.0
H908 H 0.36455 0.04351 0.67112 0.0
H909 H 0.41569 0.03978 0.62204 0.0
H910 H 0.44064 0.03198 0.913 0.0
C911 C 0.32722 0.04176 0.03063 0.0
C912 C 0.29873 0.04754 0.99986 0.0
C913 C 0.29437 0.04923 0.90122 0.0
C914 C 0.31746 0.04623 0.836 0.0
C915 C 0.34538 0.04127 0.86903 0.0
C916 C 0.35001 0.03878 0.96449 0.0
C917 C 0.382 0.03593 0.98359 0.0
C918 C 0.3923 0.06204 0.03857 0.0
C919 C 0.3885 1.00781 0.03441 0.0
C920 C 0.39501 0.03617 0.88542 0.0
C921 C 0.37364 0.03945 0.8193 0.0
C922 C 0.38105 0.04095 0.72369 0.0
C923 C 0.41042 0.03895 0.6961 0.0
C924 C 0.43281 0.03595 0.763 0.0
C925 C 0.42453 0.03455 0.85921 0.0
H926 H 0.55832 0.33899 0.09679 0.0
H927 H 0.49375 0.29258 0.93941 0.0
H928 H 0.48934 0.33386 0.83165 0.0
H929 H 0.52739 0.40695 0.09033 0.0
H930 H 0.56072 0.42624 0.07426 0.0
H931 H 0.56053 0.39218 0.13215 0.0
H932 H 0.5979 0.37379 1.0135 0.0
H933 H 0.5979 0.40773 0.95401 0.0
H934 H 0.59039 0.3754 0.88957 0.0
H935 H 0.49044 0.38283 0.74265 0.0
H936 H 0.4972 0.43203 0.68318 0.0
H937 H 0.55885 0.44858 0.90373 0.0
C938 C 0.54311 0.33711 0.04031 0.0
C939 C 0.52625 0.31162 0.02854 0.0
C940 C 0.50735 0.31105 0.95046 0.0
C941 C 0.50451 0.33476 0.88893 0.0
C942 C 0.52083 0.35959 0.9044 0.0
C943 C 0.54009 0.36068 0.97775 0.0
C944 C 0.5551 0.3899 0.97958 0.0
C945 C 0.55062 0.40473 0.07471 0.0
C946 C 0.58724 0.3865 0.95792 0.0
C947 C 0.54009 0.40585 0.89963 0.0
C948 C 0.52096 0.38762 0.8554 0.0
C949 C 0.50543 0.39701 0.77729 0.0
C950 C 0.50946 0.42524 0.74356 0.0
C951 C 0.52839 0.44482 0.78811 0.0
C952 C 0.54391 0.43461 0.86784 0.0
H953 H 0.21563 0.52845 0.14435 0.0
H954 H 0.26999 0.50012 0.91606 0.0
H955 H 0.22958 0.50594 0.80484 0.0
H956 H 0.15083 0.49424 0.06985 0.0
H957 H 0.12758 0.52307 0.10487 0.0
H958 H 0.16161 0.51846 0.16231 0.0
H959 H 0.1746 0.57044 0.12239 0.0
H960 H 0.14098 0.57463 0.06181 0.0
H961 H 0.17427 0.5817 1.00144 0.0
H962 H 0.18154 0.513 0.71704 0.0
H963 H 0.13169 0.52024 0.66282 0.0
H964 H 0.10637 0.54269 0.94648 0.0
C965 C 0.21917 0.52413 0.07054 0.0
C966 C 0.24657 0.51412 0.03917 0.0
C967 C 0.2497 0.50815 0.94201 0.0
C968 C 0.22664 0.51128 0.87821 0.0
C969 C 0.1999 0.5206 0.91117 0.0
C970 C 0.1961 0.5272 1.00515 0.0
C971 C 0.16487 0.53627 0.02201 0.0
C972 C 0.15031 0.51679 0.09407 0.0
C973 C 0.16361 0.56763 0.05381 0.0
C974 C 0.15145 0.53257 0.92451 0.0
C975 C 0.17226 0.52408 0.86113 0.0
C976 C 0.16526 0.51973 0.76652 0.0
C977 C 0.13666 0.52403 0.73597 0.0
C978 C 0.11452 0.53224 0.79917 0.0
C979 C 0.12241 0.53644 0.89535 0.0
H980 H 0.06322 0.83383 0.38385 0.0
H981 H 0.97285 0.81208 0.38146 0.0
H982 H 0.96213 0.85686 0.4672 0.0
H983 H 0.06468 0.86769 0.61528 0.0
H984 H 0.08924 0.89576 0.58225 0.0
H985 H 0.09057 0.86169 0.52323 0.0
H986 H 0.08393 0.88588 0.36252 0.0
H987 H 0.08323 0.92025 0.41973 0.0
H988 H 0.054 0.90949 0.34481 0.0
H989 H 0.96081 0.90615 0.54905 0.0
H990 H 0.96874 0.95363 0.61945 0.0
H991 H 0.06009 0.94571 0.57039 0.0
C992 C 0.04114 0.83832 0.40206 0.0
C993 C 1.01897 0.81847 0.37666 0.0
C994 C 0.99045 0.82583 0.4018 0.0
C995 C 0.98412 0.85164 0.45001 0.0
C996 C 1.0064 0.87057 0.47352 0.0
C997 C 0.03443 0.86416 0.45047 0.0
C998 C 0.05436 0.88854 0.4822 0.0
C999 C 0.076 0.87779 0.55507 0.0
C1000 C 0.0698 0.90182 0.39727 0.0
C1001 C 0.03325 0.90977 0.52661 0.0
C1002 C 1.00567 0.89887 0.52031 0.0
C1003 C 0.98237 0.91464 0.55386 0.0
C1004 C 0.9871 0.94199 0.59346 0.0
C1005 C 1.01494 0.9542 0.60068 0.0
C1006 C 0.03845 0.93732 0.56739 0.0
H1007 H 0.72532 0.06086 0.38421 0.0
H1008 H 0.7467 0.97123 0.39861 0.0
H1009 H 0.70251 0.96244 0.49243 0.0
H1010 H 0.69211 0.06578 0.62365 0.0
H1011 H 0.66489 0.09047 0.58638 0.0
H1012 H 0.69942 0.09023 0.52896 0.0
H1013 H 0.67481 0.08196 0.36706 0.0
H1014 H 0.64067 0.08356 0.42627 0.0
H1015 H 0.6495 0.05277 0.35673 0.0
H1016 H 0.65252 0.96317 0.57917 0.0
H1017 H 0.6043 0.97319 0.64548 0.0
H1018 H 0.6132 0.06194 0.5674 0.0
C1019 C 0.72106 0.03944 0.40878 0.0
C1020 C 0.74035 1.01679 0.38445 0.0
C1021 C 0.73325 0.98913 0.41776 0.0
C1022 C 0.7078 0.98393 0.47059 0.0
C1023 C 0.68904 1.00656 0.4911 0.0
C1024 C 0.69558 0.0339 0.46161 0.0
C1025 C 0.67148 0.05443 0.49055 0.0
C1026 C 0.68264 0.07655 0.5616 0.0
C1027 C 0.6584 0.06912 0.40485 0.0
C1028 C 0.64965 0.03435 0.53655 0.0
C1029 C 0.66045 1.00686 0.53805 0.0
C1030 C 0.6442 0.9847 0.57774 0.0
C1031 C 0.61658 0.99058 0.61539 0.0
C1032 C 0.6044 1.01828 0.61175 0.0
C1033 C 0.62156 0.04045 0.57171 0.0
H1034 H 0.49258 0.746 0.46405 0.0
H1035 H 0.57862 0.75195 0.35112 0.0
H1036 H 0.59137 0.70716 0.43326 0.0
H1037 H 0.51709 0.71202 0.69648 0.0
H1038 H 0.48512 0.69051 0.70598 0.0
H1039 H 0.48359 0.72512 0.65104 0.0
H1040 H 0.46267 0.70261 0.49757 0.0
H1041 H 0.46245 0.66925 0.56006 0.0
H1042 H 0.48023 0.67172 0.44907 0.0
H1043 H 0.59369 0.6587 0.51626 0.0
H1044 H 0.58578 0.61203 0.59072 0.0
H1045 H 0.49684 0.63337 0.64116 0.0
C1046 C 0.51442 0.73838 0.45932 0.0
C1047 C 0.53482 0.75328 0.40154 0.0
C1048 C 0.56288 0.7419 0.39634 0.0
C1049 C 0.57016 0.71608 0.44221 0.0
C1050 C 0.54932 0.70146 0.49496 0.0
C1051 C 0.52202 0.71242 0.50496 0.0
C1052 C 0.50355 0.69194 0.56442 0.0
C1053 C 0.49694 0.70572 0.66015 0.0
C1054 C 0.4756 0.68346 0.51464 0.0
C1055 C 0.52363 0.66631 0.57675 0.0
C1056 C 0.55032 0.673 0.5397 0.0
C1057 C 0.57271 0.65334 0.54387 0.0
C1058 C 0.56779 0.62627 0.58444 0.0
C1059 C 0.54036 0.61761 0.61757 0.0
C1060 C 0.51809 0.63862 0.61564 0.0
H1061 H 0.8176 0.50539 0.44525 0.0
H1062 H 0.8154 0.58975 0.32233 0.0
H1063 H 0.86154 0.60138 0.39985 0.0
H1064 H 0.85333 0.52901 0.67016 0.0
H1065 H 0.8738 0.49661 0.67983 0.0
H1066 H 0.83906 0.49599 0.6245 0.0
H1067 H 0.86132 0.47367 0.47555 0.0
H1068 H 0.89584 0.47396 0.532 0.0
H1069 H 0.89141 0.49078 0.4201 0.0
H1070 H 0.90945 0.6035 0.48843 0.0
H1071 H 0.95452 0.59596 0.57343 0.0
H1072 H 0.93016 0.50806 0.62652 0.0
C1073 C 0.82653 0.52656 0.43626 0.0
C1074 C 0.81215 0.54686 0.37796 0.0
C1075 C 0.82508 0.57411 0.36801 0.0
C1076 C 0.85167 0.58072 0.41107 0.0
C1077 C 0.86563 0.55996 0.46483 0.0
C1078 C 0.85338 0.5334 0.47819 0.0
C1079 C 0.87319 0.5148 0.53836 0.0
C1080 C 0.859 0.50875 0.63386 0.0
C1081 C 0.88089 0.48669 0.48843 0.0
C1082 C 0.89945 0.53427 0.55082 0.0
C1083 C 0.89402 0.56056 0.51069 0.0
C1084 C 0.91394 0.58277 0.51826 0.0
C1085 C 0.93996 0.57811 0.56635 0.0
C1086 C 0.94723 0.55106 0.60435 0.0
C1087 C 0.92608 0.52891 0.59704 0.0
loop_
_geom_bond_atom_site_label_1
_geom_bond_atom_site_label_2
_geom_bond_distance
_geom_bond_site_symmetry_2
_ccdc_geom_bond_type
C0 N1 1.317 . S
C0 N2 1.348 . S
C0 C3 1.485 . S
N1 C0 1.317 . S
N1 N5 1.370 . S
N2 C0 1.348 . S
N2 C4 1.346 . S
C3 C0 1.485 . S
C3 H7 0.960 . S
C3 H8 0.961 . S
C3 H9 0.960 . S
C4 N2 1.346 . S
C4 N5 1.307 . S
C4 C6 1.486 . S
N5 N1 1.370 . S
N5 C4 1.307 . S
C6 C4 1.486 . S
C6 H10 0.960 . S
C6 H11 0.960 . S
C6 H12 0.959 . S
H7 C3 0.960 . S
H8 C3 0.961 . S
H9 C3 0.960 . S
H10 C6 0.960 . S
H11 C6 0.960 . S
H12 C6 0.959 . S
C13 N14 1.317 . S
C13 N15 1.348 . S
C13 C16 1.485 . S
N14 C13 1.317 . S
N14 N18 1.370 . S
N15 C13 1.348 . S
N15 C17 1.346 . S
C16 C13 1.485 . S
C16 H20 0.960 . S
C16 H21 0.961 . S
C16 H22 0.960 . S
C17 N15 1.346 . S
C17 N18 1.307 . S
C17 C19 1.486 . S
N18 N14 1.370 . S
N18 C17 1.307 . S
C19 C17 1.486 . S
C19 H23 0.960 . S
C19 H24 0.960 . S
C19 H25 0.959 . S
H20 C16 0.960 . S
H21 C16 0.961 . S
H22 C16 0.960 . S
H23 C19 0.960 . S
H24 C19 0.960 . S
H25 C19 0.959 . S
C26 N27 1.317 . S
C26 N28 1.348 . S
C26 C29 1.485 . S
N27 C26 1.317 . S
N27 N31 1.370 . S
N28 C26 1.348 . S
N28 C30 1.346 . S
C29 C26 1.485 . S
C29 H33 0.960 . S
C29 H34 0.961 . S
C29 H35 0.960 . S
C30 N28 1.346 . S
C30 N31 1.307 . S
C30 C32 1.486 . S
N31 N27 1.370 . S
N31 C30 1.307 . S
C32 C30 1.486 . S
C32 H36 0.960 . S
C32 H37 0.986 . S
C32 H38 0.959 . S
H33 C29 0.960 . S
H34 C29 0.961 . S
H35 C29 0.960 . S
H36 C32 0.960 . S
H37 C32 0.986 . S
H38 C32 0.959 . S
C39 N40 1.317 . S
C39 N41 1.348 . S
C39 C42 1.485 . S
N40 C39 1.317 . S
N40 N44 1.370 . S
N41 C39 1.348 . S
N41 C43 1.346 . S
C42 C39 1.485 . S
C42 H46 0.960 . S
C42 H47 0.961 . S
C42 H48 0.960 . S
C43 N41 1.346 . S
C43 N44 1.307 . S
C43 C45 1.486 . S
N44 N40 1.370 . S
N44 C43 1.307 . S
C45 C43 1.486 . S
C45 H49 0.960 . S
C45 H50 0.960 . S
C45 H51 0.959 . S
H46 C42 0.960 . S
H47 C42 0.961 . S
H48 C42 0.960 . S
H49 C45 0.960 . S
H50 C45 0.960 . S
H51 C45 0.959 . S
C52 N53 1.317 . S
C52 N54 1.348 1_556 S
C52 C55 1.485 . S
N53 C52 1.317 . S
N53 N57 1.370 1_556 S
N54 C52 1.348 1_554 S
N54 C56 1.346 . S
C55 C52 1.485 . S
C55 H59 0.960 . S
C55 H60 0.961 . S
C55 H61 0.960 . S
C56 N54 1.346 . S
C56 N57 1.307 . S
C56 C58 1.486 . S
N57 N53 1.370 1_554 S
N57 C56 1.307 . S
C58 C56 1.486 . S
C58 H62 0.960 . S
C58 H63 0.960 . S
C58 H64 0.959 . S
H59 C55 0.960 . S
H60 C55 0.961 . S
H61 C55 0.960 . S
H62 C58 0.960 . S
H63 C58 0.960 . S
H64 C58 0.959 . S
C65 N66 1.317 . S
C65 N67 1.348 1_556 S
C65 C68 1.485 . S
N66 C65 1.317 . S
N66 N70 1.370 1_556 S
N67 C65 1.348 1_554 S
N67 C69 1.346 . S
C68 C65 1.485 . S
C68 H72 0.960 . S
C68 H73 0.961 . S
C68 H74 0.960 . S
C69 N67 1.346 . S
C69 N70 1.307 . S
C69 C71 1.486 . S
N70 N66 1.370 1_554 S
N70 C69 1.307 . S
C71 C69 1.486 . S
C71 H75 0.960 . S
C71 H76 0.960 . S
C71 H77 0.959 . S
H72 C68 0.960 . S
H73 C68 0.961 . S
H74 C68 0.960 . S
H75 C71 0.960 . S
H76 C71 0.960 . S
H77 C71 0.959 . S
C78 N79 1.317 . S
C78 N80 1.348 1_556 S
C78 C81 1.485 . S
N79 C78 1.317 . S
N79 N83 1.370 1_556 S
N80 C78 1.348 1_554 S
N80 C82 1.346 . S
C81 C78 1.485 . S
C81 H85 0.960 . S
C81 H86 0.961 . S
C81 H87 0.960 . S
C82 N80 1.346 . S
C82 N83 1.307 . S
C82 C84 1.486 . S
N83 N79 1.370 1_554 S
N83 C82 1.307 . S
C84 C82 1.486 . S
C84 H88 0.960 . S
C84 H89 0.960 . S
C84 H90 0.959 . S
H85 C81 0.960 . S
H86 C81 0.961 . S
H87 C81 0.960 . S
H88 C84 0.960 . S
H89 C84 0.960 . S
H90 C84 0.959 . S
C91 N92 1.317 . S
C91 N93 1.348 1_556 S
C91 C94 1.485 . S
N92 C91 1.317 . S
N92 N96 1.370 1_556 S
N93 C91 1.348 1_554 S
N93 C95 1.346 . S
C94 C91 1.485 . S
C94 H98 0.960 . S
C94 H99 0.961 . S
C94 H100 0.960 . S
C95 N93 1.346 . S
C95 N96 1.307 . S
C95 C97 1.486 . S
N96 N92 1.370 1_554 S
N96 C95 1.307 . S
C97 C95 1.486 . S
C97 H101 0.960 . S
C97 H102 0.960 . S
C97 H103 0.959 . S
H98 C94 0.960 . S
H99 C94 0.961 . S
H100 C94 0.960 . S
H101 C97 0.960 . S
H102 C97 0.960 . S
H103 C97 0.959 . S
C104 C106 1.423 . S
C104 C108 1.415 . S
C104 N110 1.369 . S
C105 C106 1.420 1_554 S
C105 C107 1.417 . S
C105 C117 1.422 . S
C106 C104 1.423 . S
C106 C105 1.420 1_556 S
C106 N116 1.359 . S
C107 C105 1.417 . S
C107 C109 1.329 . S
C107 H126 0.930 . S
C108 C104 1.415 . S
C108 C109 1.437 1_556 S
C108 C112 1.413 . S
C109 C107 1.329 . S
C109 C108 1.437 1_554 S
C109 H131 0.929 . S
N110 C104 1.369 . S
N110 C111 1.338 . S
N110 Gd115 2.622 1_545 S
C111 N110 1.338 . S
C111 C113 1.378 . S
C111 H123 0.929 1_545 S
C112 C108 1.413 . S
C112 C113 1.348 . S
C112 H128 0.931 . S
C113 C111 1.378 . S
C113 C112 1.348 . S
C113 H129 0.930 . S
Gd114 N134 2.622 . S
Gd114 N141 2.570 . S
Gd114 O148 2.353 1_655 S
Gd114 O149 2.478 . S
Gd114 O150 2.427 . S
Gd114 O152 2.388 . S
Gd114 O153 2.386 1_545 S
Gd114 O157 2.307 1_655 S
Gd114 C167 2.805 . S
Gd115 N110 2.622 1_565 S
Gd115 N116 2.570 1_565 S
Gd115 O147 2.386 1_565 S
Gd115 O151 2.307 1_465 S
Gd115 O154 2.353 . S
Gd115 O155 2.468 . S
Gd115 O156 2.427 . S
Gd115 O158 2.388 . S
Gd115 C179 2.805 . S
N116 C106 1.359 . S
N116 Gd115 2.570 1_545 S
N116 C118 1.343 1_556 S
C117 C105 1.422 . S
C117 C119 1.321 . S
C117 H125 0.931 . S
C118 N116 1.343 1_554 S
C118 C119 1.390 . S
C118 H120 0.931 1_455 S
C119 C117 1.321 . S
C119 C118 1.390 . S
C119 H121 0.931 . S
H120 C118 0.931 1_655 S
H121 C119 0.931 . S
H122 C145 0.931 . S
H123 C111 0.929 1_565 S
H124 C146 0.941 . S
H125 C117 0.931 . S
H126 C107 0.930 . S
H127 C136 0.929 . S
H128 C112 0.931 . S
H129 C113 0.930 . S
H130 C168 0.930 . S
H131 C109 0.929 . S
H132 C137 0.931 . S
H133 C138 0.930 . S
N134 Gd114 2.622 . S
N134 C135 1.369 . S
N134 C136 1.338 . S
C135 N134 1.369 . S
C135 C139 1.415 1_545 S
C135 C142 1.420 1_545 S
C136 H127 0.929 . S
C136 N134 1.338 . S
C136 C138 1.378 . S
C137 H132 0.931 . S
C137 C138 1.348 1_565 S
C137 C139 1.413 . S
C138 H133 0.930 . S
C138 C136 1.378 . S
C138 C137 1.348 1_545 S
C139 C135 1.415 1_565 S
C139 C137 1.413 . S
C139 C169 1.437 . S
H140 C169 0.929 . S
N141 Gd114 2.570 . S
N141 C142 1.348 1_545 S
N141 C145 1.343 1_655 S
C142 C135 1.420 1_565 S
C142 N141 1.348 1_565 S
C142 C144 1.435 . S
C143 C144 1.422 . S
C143 C146 1.310 1_655 S
C143 H170 0.931 . S
C144 C142 1.435 . S
C144 C143 1.422 . S
C144 C168 1.417 . S
C145 H122 0.931 . S
C145 N141 1.343 1_455 S
C145 C146 1.391 1_545 S
C146 H124 0.941 . S
C146 C143 1.310 1_455 S
C146 C145 1.391 1_565 S
O147 Gd115 2.386 1_545 S
O147 C159 1.265 . S
O148 Gd114 2.353 1_455 S
O148 C159 1.242 . S
O149 Gd114 2.478 . S
O149 C167 1.289 . S
O150 Gd114 2.427 . S
O150 C167 1.252 . S
O151 Gd115 2.307 1_645 S
O151 C160 1.261 . S
O152 Gd114 2.388 . S
O152 C160 1.252 . S
O153 Gd114 2.386 1_565 S
O153 C171 1.265 . S
O154 Gd115 2.353 . S
O154 C171 1.242 1_455 S
O155 Gd115 2.468 . S
O155 C179 1.263 . S
O156 Gd115 2.427 . S
O156 C179 1.252 . S
O157 Gd114 2.307 1_455 S
O157 C172 1.261 . S
O158 Gd115 2.388 . S
O158 C172 1.252 1_565 S
C159 O147 1.265 . S
C159 O148 1.242 . S
C160 O151 1.261 . S
C160 O152 1.252 . S
C161 C164 1.394 . S
C161 C166 1.370 . S
C161 C167 1.500 . S
C162 C165 1.383 . S
C162 C166 1.395 . S
C163 C164 1.396 . S
C163 C165 1.365 . S
C163 H180 0.929 . S
C164 C161 1.394 . S
C164 C163 1.396 . S
C164 H181 0.930 . S
C165 C162 1.383 . S
C165 C163 1.365 . S
C165 H182 0.931 . S
C166 C161 1.370 . S
C166 C162 1.395 . S
C166 H183 0.930 1_655 S
C167 Gd114 2.805 . S
C167 O149 1.289 . S
C167 O150 1.252 . S
C167 C161 1.500 . S
C168 H130 0.930 . S
C168 C144 1.417 . S
C168 C169 1.329 . S
C169 C139 1.437 . S
C169 H140 0.929 . S
C169 C168 1.329 . S
H170 C143 0.931 . S
C171 O153 1.265 . S
C171 O154 1.242 1_655 S
C172 O157 1.261 . S
C172 O158 1.252 1_545 S
C173 C176 1.394 . S
C173 C178 1.370 . S
C173 C179 1.500 . S
C174 C177 1.383 . S
C174 C178 1.395 1_554 S
C175 C176 1.396 . S
C175 C177 1.365 1_556 S
C175 H184 0.929 . S
C176 C173 1.394 . S
C176 C175 1.396 . S
C176 H185 0.930 . S
C177 C174 1.383 . S
C177 C175 1.365 1_554 S
C177 H186 0.931 . S
C178 C173 1.370 . S
C178 C174 1.395 1_556 S
C178 H187 0.930 1_556 S
C179 Gd115 2.805 . S
C179 O155 1.263 . S
C179 O156 1.252 . S
C179 C173 1.500 . S
H180 C163 0.929 . S
H181 C164 0.930 . S
H182 C165 0.931 . S
H183 C166 0.930 1_455 S
H184 C175 0.929 . S
H185 C176 0.930 . S
H186 C177 0.931 . S
H187 C178 0.930 1_554 S
C188 C190 1.422 . S
C188 C192 1.415 . S
C188 N194 1.369 . S
C189 C190 1.421 . S
C189 C191 1.417 . S
C189 C201 1.422 . S
C190 C188 1.422 . S
C190 C189 1.421 . S
C190 N200 1.359 . S
C191 C189 1.417 . S
C191 C193 1.329 . S
C191 H210 0.930 . S
C192 C188 1.415 . S
C192 C193 1.437 . S
C192 C196 1.413 . S
C193 C191 1.329 . S
C193 C192 1.437 . S
C193 H215 0.929 . S
N194 C188 1.369 . S
N194 C195 1.338 . S
N194 Gd199 2.622 . S
C195 N194 1.338 . S
C195 C197 1.378 . S
C195 H207 0.929 . S
C196 C192 1.413 . S
C196 C197 1.348 . S
C196 H212 0.931 . S
C197 C195 1.378 . S
C197 C196 1.348 . S
C197 H213 0.930 . S
Gd198 N218 2.622 . S
Gd198 N225 2.570 . S
Gd198 O232 2.353 1_545 S
Gd198 O233 2.468 . S
Gd198 O234 2.427 . S
Gd198 O236 2.388 . S
Gd198 O237 2.386 . S
Gd198 O241 2.307 . S
Gd198 C251 2.805 . S
Gd199 N194 2.622 . S
Gd199 N200 2.570 . S
Gd199 O231 2.386 . S
Gd199 O235 2.307 1_565 S
Gd199 O238 2.353 1_565 S
Gd199 O239 2.468 . S
Gd199 O240 2.427 . S
Gd199 O242 2.388 . S
Gd199 C263 2.805 . S
N200 C190 1.359 . S
N200 Gd199 2.570 . S
N200 C202 1.343 . S
C201 C189 1.422 . S
C201 C203 1.321 . S
C201 H209 0.931 . S
C202 N200 1.343 . S
C202 C203 1.390 . S
C202 H204 0.931 . S
C203 C201 1.321 . S
C203 C202 1.390 . S
C203 H205 0.930 . S
H204 C202 0.931 . S
H205 C203 0.930 . S
H206 C229 0.931 . S
H207 C195 0.929 . S
H208 C230 0.930 . S
H209 C201 0.931 . S
H210 C191 0.930 . S
H211 C220 0.929 . S
H212 C196 0.931 . S
H213 C197 0.930 . S
H214 C252 0.930 . S
H215 C193 0.929 . S
H216 C221 0.931 . S
H217 C222 0.930 . S
N218 Gd198 2.622 . S
N218 C219 1.369 . S
N218 C220 1.338 . S
C219 N218 1.369 . S
C219 C223 1.415 . S
C219 C226 1.422 . S
C220 H211 0.929 . S
C220 N218 1.338 . S
C220 C222 1.378 . S
C221 H216 0.931 . S
C221 C222 1.348 . S
C221 C223 1.413 . S
C222 H217 0.930 . S
C222 C220 1.378 . S
C222 C221 1.348 . S
C223 C219 1.415 . S
C223 C221 1.413 . S
C223 C253 1.437 . S
H224 C253 0.929 . S
N225 Gd198 2.570 . S
N225 C226 1.359 . S
N225 C229 1.343 . S
C226 C219 1.422 . S
C226 N225 1.359 . S
C226 C228 1.421 . S
C227 C228 1.422 . S
C227 C230 1.321 . S
C227 H254 0.931 . S
C228 C226 1.421 . S
C228 C227 1.422 . S
C228 C252 1.417 . S
C229 H206 0.931 . S
C229 N225 1.343 . S
C229 C230 1.390 . S
C230 H208 0.930 . S
C230 C227 1.321 . S
C230 C229 1.390 . S
O231 Gd199 2.386 . S
O231 C243 1.265 . S
O232 Gd198 2.353 1_565 S
O232 C243 1.242 . S
O233 Gd198 2.468 . S
O233 C251 1.263 . S
O234 Gd198 2.427 . S
O234 C251 1.252 . S
O235 Gd199 2.307 1_545 S
O235 C244 1.261 . S
O236 Gd198 2.388 . S
O236 C244 1.252 . S
O237 Gd198 2.386 . S
O237 C255 1.265 . S
O238 Gd199 2.353 1_545 S
O238 C255 1.242 . S
O239 Gd199 2.468 . S
O239 C263 1.263 . S
O240 Gd199 2.427 . S
O240 C263 1.252 . S
O241 Gd198 2.307 . S
O241 C256 1.261 . S
O242 Gd199 2.388 . S
O242 C256 1.252 1_565 S
C243 O231 1.265 . S
C243 O232 1.242 . S
C244 O235 1.261 . S
C244 O236 1.252 . S
C245 C248 1.394 . S
C245 C250 1.370 . S
C245 C251 1.500 1_554 S
C246 C249 1.383 . S
C246 C250 1.395 . S
C247 C248 1.396 . S
C247 C249 1.365 . S
C247 H264 0.929 . S
C248 C245 1.394 . S
C248 C247 1.396 . S
C248 H265 0.930 . S
C249 C246 1.383 . S
C249 C247 1.365 . S
C249 H266 0.931 . S
C250 C245 1.370 . S
C250 C246 1.395 . S
C250 H267 0.930 1_554 S
C251 Gd198 2.805 . S
C251 O233 1.263 . S
C251 O234 1.252 . S
C251 C245 1.500 1_556 S
C252 H214 0.930 . S
C252 C228 1.417 . S
C252 C253 1.329 . S
C253 C223 1.437 . S
C253 H224 0.929 . S
C253 C252 1.329 . S
H254 C227 0.931 . S
C255 O237 1.265 . S
C255 O238 1.242 . S
C256 O241 1.261 . S
C256 O242 1.252 1_545 S
C257 C260 1.394 . S
C257 C262 1.370 1_565 S
C257 C263 1.500 . S
C258 C261 1.383 1_545 S
C258 C262 1.395 . S
C259 C260 1.396 . S
C259 C261 1.365 . S
C259 H268 0.929 . S
C260 C257 1.394 . S
C260 C259 1.396 . S
C260 H269 0.930 . S
C261 C258 1.383 1_565 S
C261 C259 1.365 . S
C261 H270 0.931 . S
C262 C257 1.370 1_545 S
C262 C258 1.395 . S
C262 H271 0.930 . S
C263 Gd199 2.805 . S
C263 O239 1.263 . S
C263 O240 1.252 . S
C263 C257 1.500 . S
H264 C247 0.929 . S
H265 C248 0.930 . S
H266 C249 0.931 . S
H267 C250 0.930 1_556 S
H268 C259 0.929 . S
H269 C260 0.930 . S
H270 C261 0.931 . S
H271 C262 0.930 . S
C272 C274 1.423 . S
C272 C276 1.415 . S
C272 N278 1.369 . S
C273 C274 1.420 1_554 S
C273 C275 1.417 . S
C273 C285 1.422 . S
C274 C272 1.423 . S
C274 C273 1.420 1_556 S
C274 N284 1.359 . S
C275 C273 1.417 . S
C275 C277 1.329 . S
C275 H294 0.930 . S
C276 C272 1.415 . S
C276 C277 1.437 1_556 S
C276 C280 1.413 . S
C277 C275 1.329 . S
C277 C276 1.437 1_554 S
C277 H299 0.929 . S
N278 C272 1.369 . S
N278 C279 1.338 . S
N278 Gd283 2.622 . S
C279 N278 1.338 . S
C279 C281 1.378 . S
C279 H291 0.929 . S
C280 C276 1.413 . S
C280 C281 1.348 . S
C280 H296 0.931 . S
C281 C279 1.378 . S
C281 C280 1.348 . S
C281 H297 0.930 . S
Gd282 N302 2.622 . S
Gd282 N309 2.570 . S
Gd282 O316 2.353 . S
Gd282 O317 2.468 . S
Gd282 O318 2.427 . S
Gd282 O320 2.388 . S
Gd282 O321 2.386 . S
Gd282 O325 2.307 . S
Gd282 C335 2.805 . S
Gd283 N278 2.622 . S
Gd283 N284 2.570 . S
Gd283 O315 2.386 . S
Gd283 O319 2.307 . S
Gd283 O322 2.353 . S
Gd283 O323 2.468 . S
Gd283 O324 2.427 . S
Gd283 O326 2.388 . S
Gd283 C347 2.805 . S
N284 C274 1.359 . S
N284 Gd283 2.570 . S
N284 C286 1.343 1_556 S
C285 C273 1.422 . S
C285 C287 1.321 . S
C285 H293 0.931 . S
C286 N284 1.343 1_554 S
C286 C287 1.390 . S
C286 H288 0.931 . S
C287 C285 1.321 . S
C287 C286 1.390 . S
C287 H289 0.930 . S
H288 C286 0.931 . S
H289 C287 0.930 . S
H290 C313 0.931 . S
H291 C279 0.929 . S
H292 C314 0.930 . S
H293 C285 0.931 . S
H294 C275 0.930 . S
H295 C304 0.929 . S
H296 C280 0.931 . S
H297 C281 0.930 . S
H298 C336 0.930 . S
H299 C277 0.929 . S
H300 C305 0.931 . S
H301 C306 0.930 . S
N302 Gd282 2.622 . S
N302 C303 1.369 . S
N302 C304 1.338 . S
C303 N302 1.369 . S
C303 C307 1.415 . S
C303 C310 1.422 . S
C304 H295 0.929 . S
C304 N302 1.338 . S
C304 C306 1.378 . S
C305 H300 0.931 . S
C305 C306 1.348 . S
C305 C307 1.413 . S
C306 H301 0.930 . S
C306 C304 1.378 . S
C306 C305 1.348 . S
C307 C303 1.415 . S
C307 C305 1.413 . S
C307 C337 1.437 . S
H308 C337 0.929 . S
N309 Gd282 2.570 . S
N309 C310 1.359 . S
N309 C313 1.343 . S
C310 C303 1.422 . S
C310 N309 1.359 . S
C310 C312 1.421 . S
C311 C312 1.422 . S
C311 C314 1.321 . S
C311 H338 0.931 . S
C312 C310 1.421 . S
C312 C311 1.422 . S
C312 C336 1.417 . S
C313 H290 0.931 . S
C313 N309 1.343 . S
C313 C314 1.390 . S
C314 H292 0.930 . S
C314 C311 1.321 . S
C314 C313 1.390 . S
O315 Gd283 2.386 . S
O315 C327 1.265 . S
O316 Gd282 2.353 . S
O316 C327 1.242 . S
O317 Gd282 2.468 . S
O317 C335 1.263 . S
O318 Gd282 2.427 . S
O318 C335 1.252 . S
O319 Gd283 2.307 . S
O319 C328 1.261 . S
O320 Gd282 2.388 . S
O320 C328 1.252 . S
O321 Gd282 2.386 . S
O321 C339 1.265 . S
O322 Gd283 2.353 . S
O322 C339 1.242 . S
O323 Gd283 2.468 . S
O323 C347 1.263 . S
O324 Gd283 2.427 . S
O324 C347 1.252 . S
O325 Gd282 2.307 . S
O325 C340 1.261 . S
O326 Gd283 2.388 . S
O326 C340 1.252 . S
C327 O315 1.265 . S
C327 O316 1.242 . S
C328 O319 1.261 . S
C328 O320 1.252 . S
C329 C332 1.394 . S
C329 C334 1.370 . S
C329 C335 1.500 . S
C330 C333 1.383 . S
C330 C334 1.395 . S
C331 C332 1.396 . S
C331 C333 1.365 . S
C331 H348 0.929 . S
C332 C329 1.394 . S
C332 C331 1.396 . S
C332 H349 0.930 . S
C333 C330 1.383 . S
C333 C331 1.365 . S
C333 H350 0.931 . S
C334 C329 1.370 . S
C334 C330 1.395 . S
C334 H351 0.930 . S
C335 Gd282 2.805 . S
C335 O317 1.263 . S
C335 O318 1.252 . S
C335 C329 1.500 . S
C336 H298 0.930 . S
C336 C312 1.417 . S
C336 C337 1.329 . S
C337 C307 1.437 . S
C337 H308 0.929 . S
C337 C336 1.329 . S
H338 C311 0.931 . S
C339 O321 1.265 . S
C339 O322 1.242 . S
C340 O325 1.261 . S
C340 O326 1.252 . S
C341 C344 1.394 . S
C341 C346 1.368 1_556 S
C341 C347 1.500 . S
C342 C345 1.383 . S
C342 C346 1.397 . S
C343 C344 1.396 . S
C343 C345 1.365 1_556 S
C343 H352 0.929 . S
C344 C341 1.394 . S
C344 C343 1.396 . S
C344 H353 0.930 . S
C345 C342 1.383 . S
C345 C343 1.365 1_554 S
C345 H354 0.931 . S
C346 C341 1.368 1_554 S
C346 C342 1.397 . S
C346 H355 0.930 . S
C347 Gd283 2.805 . S
C347 O323 1.263 . S
C347 O324 1.252 . S
C347 C341 1.500 . S
H348 C331 0.929 . S
H349 C332 0.930 . S
H350 C333 0.931 . S
H351 C334 0.930 . S
H352 C343 0.929 . S
H353 C344 0.930 . S
H354 C345 0.931 . S
H355 C346 0.930 . S
C356 C358 1.425 . S
C356 C360 1.415 . S
C356 N362 1.369 . S
C357 C358 1.417 1_554 S
C357 C359 1.417 . S
C357 C369 1.422 . S
C358 C356 1.425 . S
C358 C357 1.417 1_556 S
C358 N368 1.360 . S
C359 C357 1.417 . S
C359 C361 1.329 . S
C359 H378 0.930 . S
C360 C356 1.415 . S
C360 C361 1.437 1_556 S
C360 C364 1.413 . S
C361 C359 1.329 . S
C361 C360 1.437 1_554 S
C361 H383 0.929 . S
N362 C356 1.369 . S
N362 C363 1.337 1_455 S
N362 Gd367 2.622 1_455 S
C363 N362 1.337 1_655 S
C363 C365 1.377 1_655 S
C363 H375 0.930 . S
C364 C360 1.413 . S
C364 C365 1.348 . S
C364 H380 0.931 . S
C365 C363 1.377 1_455 S
C365 C364 1.348 . S
C365 H381 0.930 . S
Gd366 N386 2.622 . S
Gd366 N393 2.570 . S
Gd366 O400 2.353 . S
Gd366 O401 2.468 . S
Gd366 O402 2.427 . S
Gd366 O404 2.388 . S
Gd366 O405 2.386 1_455 S
Gd366 O409 2.307 . S
Gd366 C419 2.805 . S
Gd367 N362 2.622 1_655 S
Gd367 N368 2.570 1_655 S
Gd367 O399 2.386 1_655 S
Gd367 O403 2.307 1_655 S
Gd367 O406 2.353 . S
Gd367 O407 2.468 . S
Gd367 O408 2.427 . S
Gd367 O410 2.388 . S
Gd367 C431 2.805 . S
N368 C358 1.360 . S
N368 Gd367 2.570 1_455 S
N368 C370 1.343 1_556 S
C369 C357 1.422 . S
C369 C371 1.321 . S
C369 H377 0.931 . S
C370 N368 1.343 1_554 S
C370 C371 1.390 . S
C370 H372 0.931 . S
C371 C369 1.321 . S
C371 C370 1.390 . S
C371 H373 0.930 . S
H372 C370 0.931 . S
H373 C371 0.930 . S
H374 C397 0.931 . S
H375 C363 0.930 . S
H376 C398 0.930 . S
H377 C369 0.931 . S
H378 C359 0.930 . S
H379 C388 0.929 . S
H380 C364 0.931 . S
H381 C365 0.930 . S
H382 C420 0.930 . S
H383 C361 0.929 . S
H384 C389 0.931 . S
H385 C390 0.930 . S
N386 Gd366 2.622 . S
N386 C387 1.380 . S
N386 C388 1.338 . S
C387 N386 1.380 . S
C387 C391 1.406 1_455 S
C387 C394 1.420 1_455 S
C388 H379 0.929 . S
C388 N386 1.338 . S
C388 C390 1.378 . S
C389 H384 0.931 . S
C389 C390 1.348 1_655 S
C389 C391 1.413 . S
C390 H385 0.930 . S
C390 C388 1.378 . S
C390 C389 1.348 1_455 S
C391 C387 1.406 1_655 S
C391 C389 1.413 . S
C391 C421 1.437 . S
H392 C421 0.929 . S
N393 Gd366 2.570 . S
N393 C394 1.359 1_455 S
N393 C397 1.343 . S
C394 C387 1.420 1_655 S
C394 N393 1.359 1_655 S
C394 C396 1.421 . S
C395 C396 1.422 . S
C395 C398 1.321 . S
C395 H422 0.931 . S
C396 C394 1.421 . S
C396 C395 1.422 . S
C396 C420 1.417 . S
C397 H374 0.931 . S
C397 N393 1.343 . S
C397 C398 1.390 1_455 S
C398 H376 0.930 . S
C398 C395 1.321 . S
C398 C397 1.390 1_655 S
O399 Gd367 2.386 1_455 S
O399 C411 1.265 . S
O400 Gd366 2.353 . S
O400 C411 1.242 . S
O401 Gd366 2.468 . S
O401 C419 1.263 . S
O402 Gd366 2.427 . S
O402 C419 1.252 . S
O403 Gd367 2.307 1_455 S
O403 C412 1.261 . S
O404 Gd366 2.388 . S
O404 C412 1.252 . S
O405 Gd366 2.386 1_655 S
O405 C423 1.265 . S
O406 Gd367 2.353 . S
O406 C423 1.242 . S
O407 Gd367 2.468 . S
O407 C431 1.263 . S
O408 Gd367 2.427 . S
O408 C431 1.252 . S
O409 Gd366 2.307 . S
O409 C424 1.261 . S
O410 Gd367 2.388 . S
O410 C424 1.252 1_655 S
C411 O399 1.265 . S
C411 O400 1.242 . S
C412 O403 1.261 . S
C412 O404 1.252 . S
C413 C416 1.394 . S
C413 C418 1.370 . S
C413 C419 1.500 . S
C414 C417 1.383 . S
C414 C418 1.395 . S
C415 C416 1.396 . S
C415 C417 1.365 . S
C415 H432 0.929 . S
C416 C413 1.394 . S
C416 C415 1.396 . S
C416 H433 0.930 . S
C417 C414 1.383 . S
C417 C415 1.365 . S
C417 H434 0.931 . S
C418 C413 1.370 . S
C418 C414 1.395 . S
C418 H435 0.930 . S
C419 Gd366 2.805 . S
C419 O401 1.263 . S
C419 O402 1.252 . S
C419 C413 1.500 . S
C420 H382 0.930 . S
C420 C396 1.417 . S
C420 C421 1.329 . S
C421 C391 1.437 . S
C421 H392 0.929 . S
C421 C420 1.329 . S
H422 C395 0.931 . S
C423 O405 1.265 . S
C423 O406 1.242 . S
C424 O409 1.261 . S
C424 O410 1.252 1_455 S
C425 C428 1.394 . S
C425 C430 1.376 . S
C425 C431 1.500 . S
C426 C429 1.383 . S
C426 C430 1.389 1_554 S
C427 C428 1.396 . S
C427 C429 1.365 1_556 S
C427 H436 0.929 . S
C428 C425 1.394 . S
C428 C427 1.396 . S
C428 H437 0.930 . S
C429 C426 1.383 . S
C429 C427 1.365 1_554 S
C429 H438 0.931 . S
C430 C425 1.376 . S
C430 C426 1.389 1_556 S
C430 H439 0.930 1_556 S
C431 Gd367 2.805 . S
C431 O407 1.263 . S
C431 O408 1.252 . S
C431 C425 1.500 . S
H432 C415 0.929 . S
H433 C416 0.930 . S
H434 C417 0.931 . S
H435 C418 0.930 . S
H436 C427 0.929 . S
H437 C428 0.930 . S
H438 C429 0.931 . S
H439 C430 0.930 1_554 S
H440 C452 0.930 . S
H441 C454 0.930 . S
H442 C455 0.930 . S
H443 C459 0.959 . S
H444 C459 0.959 1_565 S
H445 C459 0.961 . S
H446 C460 0.960 . S
H447 C460 0.961 . S
H448 C460 0.959 . S
H449 C463 0.929 . S
H450 C464 0.931 . S
H451 C466 0.930 1_565 S
C452 H440 0.930 . S
C452 C453 1.399 . S
C452 C457 1.399 . S
C453 C452 1.399 . S
C453 C454 1.376 . S
C454 H441 0.930 . S
C454 C453 1.376 . S
C454 C455 1.388 . S
C455 H442 0.930 . S
C455 C454 1.388 . S
C455 C456 1.390 . S
C456 C455 1.390 . S
C456 C457 1.394 . S
C456 C462 1.465 . S
C457 C452 1.399 . S
C457 C456 1.394 . S
C457 C458 1.516 . S
C458 C457 1.516 . S
C458 C459 1.502 . S
C458 C460 1.561 1_545 S
C458 C461 1.526 . S
C459 H443 0.959 . S
C459 H444 0.959 1_545 S
C459 H445 0.961 . S
C459 C458 1.502 . S
C460 H446 0.960 . S
C460 H447 0.961 . S
C460 H448 0.959 . S
C460 C458 1.561 1_565 S
C461 C458 1.526 . S
C461 C462 1.396 . S
C461 C466 1.390 . S
C462 C456 1.465 . S
C462 C461 1.396 . S
C462 C463 1.399 . S
C463 H449 0.929 . S
C463 C462 1.399 . S
C463 C464 1.385 . S
C464 H450 0.931 . S
C464 C463 1.385 . S
C464 C465 1.389 . S
C465 C464 1.389 . S
C465 C466 1.387 . S
C466 H451 0.930 1_545 S
C466 C461 1.390 . S
C466 C465 1.387 . S
H467 C479 0.930 . S
H468 C481 0.930 . S
H469 C482 0.930 . S
H470 C486 0.959 . S
H471 C486 0.959 . S
H472 C486 0.961 . S
H473 C487 0.960 . S
H474 C487 0.961 . S
H475 C487 0.959 . S
H476 C490 0.929 . S
H477 C491 0.931 . S
H478 C493 0.930 . S
C479 H467 0.930 . S
C479 C480 1.399 . S
C479 C484 1.399 . S
C480 C479 1.399 . S
C480 C481 1.376 . S
C481 H468 0.930 . S
C481 C480 1.376 . S
C481 C482 1.388 . S
C482 H469 0.930 . S
C482 C481 1.388 . S
C482 C483 1.390 . S
C483 C482 1.390 . S
C483 C484 1.394 . S
C483 C489 1.465 . S
C484 C479 1.399 . S
C484 C483 1.394 . S
C484 C485 1.516 . S
C485 C484 1.516 . S
C485 C486 1.502 . S
C485 C487 1.561 . S
C485 C488 1.526 . S
C486 H470 0.959 . S
C486 H471 0.959 . S
C486 H472 0.961 . S
C486 C485 1.502 . S
C487 H473 0.960 . S
C487 H474 0.961 . S
C487 H475 0.959 . S
C487 C485 1.561 . S
C488 C485 1.526 . S
C488 C489 1.396 . S
C488 C493 1.390 . S
C489 C483 1.465 . S
C489 C488 1.396 . S
C489 C490 1.399 . S
C490 H476 0.929 . S
C490 C489 1.399 . S
C490 C491 1.385 . S
C491 H477 0.931 . S
C491 C490 1.385 . S
C491 C492 1.389 . S
C492 C491 1.389 . S
C492 C493 1.387 . S
C493 H478 0.930 . S
C493 C488 1.390 . S
C493 C492 1.387 . S
H494 C506 0.930 . S
H495 C508 0.930 . S
H496 C509 0.930 . S
H497 C513 0.959 . S
H498 C513 0.959 . S
H499 C513 0.961 . S
H500 C514 0.960 . S
H501 C514 0.961 . S
H502 C514 0.959 . S
H503 C517 0.929 . S
H504 C518 0.931 . S
H505 C520 0.930 . S
C506 H494 0.930 . S
C506 C507 1.399 . S
C506 C511 1.399 . S
C507 C506 1.399 . S
C507 C508 1.376 . S
C508 H495 0.930 . S
C508 C507 1.376 . S
C508 C509 1.388 . S
C509 H496 0.930 . S
C509 C508 1.388 . S
C509 C510 1.390 . S
C510 C509 1.390 . S
C510 C511 1.394 . S
C510 C516 1.465 . S
C511 C506 1.399 . S
C511 C510 1.394 . S
C511 C512 1.516 . S
C512 C511 1.516 . S
C512 C513 1.502 . S
C512 C514 1.561 . S
C512 C515 1.526 . S
C513 H497 0.959 . S
C513 H498 0.959 . S
C513 H499 0.961 . S
C513 C512 1.502 . S
C514 H500 0.960 . S
C514 H501 0.961 . S
C514 H502 0.959 . S
C514 C512 1.561 . S
C515 C512 1.526 . S
C515 C516 1.396 . S
C515 C520 1.390 . S
C516 C510 1.465 . S
C516 C515 1.396 . S
C516 C517 1.399 . S
C517 H503 0.929 . S
C517 C516 1.399 . S
C517 C518 1.385 . S
C518 H504 0.931 . S
C518 C517 1.385 . S
C518 C519 1.389 . S
C519 C518 1.389 . S
C519 C520 1.387 . S
C520 H505 0.930 . S
C520 C515 1.390 . S
C520 C519 1.387 . S
H521 C533 0.930 1_655 S
H522 C535 0.930 . S
H523 C536 0.930 . S
H524 C540 0.959 . S
H525 C540 0.959 . S
H526 C540 0.961 . S
H527 C541 0.960 . S
H528 C541 0.961 . S
H529 C541 0.959 . S
H530 C544 0.929 . S
H531 C545 0.931 . S
H532 C547 0.930 1_655 S
C533 H521 0.930 1_455 S
C533 C534 1.399 . S
C533 C538 1.399 . S
C534 C533 1.399 . S
C534 C535 1.376 . S
C535 H522 0.930 . S
C535 C534 1.376 . S
C535 C536 1.388 . S
C536 H523 0.930 . S
C536 C535 1.388 . S
C536 C537 1.390 . S
C537 C536 1.390 . S
C537 C538 1.394 . S
C537 C543 1.465 . S
C538 C533 1.399 . S
C538 C537 1.394 . S
C538 C539 1.516 1_455 S
C539 C538 1.516 1_655 S
C539 C540 1.502 . S
C539 C541 1.561 . S
C539 C542 1.526 1_655 S
C540 H524 0.959 . S
C540 H525 0.959 . S
C540 H526 0.961 . S
C540 C539 1.502 . S
C541 H527 0.960 . S
C541 H528 0.961 . S
C541 H529 0.959 . S
C541 C539 1.561 . S
C542 C539 1.526 1_455 S
C542 C543 1.396 . S
C542 C547 1.390 . S
C543 C537 1.465 . S
C543 C542 1.396 . S
C543 C544 1.399 . S
C544 H530 0.929 . S
C544 C543 1.399 . S
C544 C545 1.385 . S
C545 H531 0.931 . S
C545 C544 1.385 . S
C545 C546 1.389 . S
C546 C545 1.389 . S
C546 C547 1.387 . S
C547 H532 0.930 1_455 S
C547 C542 1.390 . S
C547 C546 1.387 . S
H548 C560 0.930 . S
H549 C562 0.930 . S
H550 C563 0.930 . S
H551 C567 0.959 . S
H552 C567 0.959 . S
H553 C567 0.961 . S
H554 C568 0.960 . S
H555 C568 0.961 . S
H556 C568 0.959 . S
H557 C571 0.929 . S
H558 C572 0.931 . S
H559 C574 0.930 . S
C560 H548 0.930 . S
C560 C561 1.399 1_545 S
C560 C565 1.399 . S
C561 C560 1.399 1_565 S
C561 C562 1.376 . S
C562 H549 0.930 . S
C562 C561 1.376 . S
C562 C563 1.388 . S
C563 H550 0.930 . S
C563 C562 1.388 . S
C563 C564 1.390 . S
C564 C563 1.390 . S
C564 C565 1.394 1_565 S
C564 C570 1.465 . S
C565 C560 1.399 . S
C565 C564 1.394 1_545 S
C565 C566 1.516 . S
C566 C565 1.516 . S
C566 C567 1.502 . S
C566 C568 1.561 . S
C566 C569 1.526 . S
C567 H551 0.959 . S
C567 H552 0.959 . S
C567 H553 0.961 . S
C567 C566 1.502 . S
C568 H554 0.960 . S
C568 H555 0.961 . S
C568 H556 0.959 . S
C568 C566 1.561 . S
C569 C566 1.526 . S
C569 C570 1.396 1_545 S
C569 C574 1.390 1_554 S
C570 C564 1.465 . S
C570 C569 1.396 1_565 S
C570 C571 1.399 1_554 S
C571 H557 0.929 . S
C571 C570 1.399 1_556 S
C571 C572 1.385 . S
C572 H558 0.931 . S
C572 C571 1.385 . S
C572 C573 1.389 . S
C573 C572 1.389 . S
C573 C574 1.387 1_565 S
C574 H559 0.930 . S
C574 C569 1.390 1_556 S
C574 C573 1.387 1_545 S
H575 C587 0.930 . S
H576 C589 0.930 . S
H577 C590 0.930 . S
H578 C594 0.959 . S
H579 C594 0.959 . S
H580 C594 0.961 . S
H581 C595 0.960 1_554 S
H582 C595 0.961 . S
H583 C595 0.959 . S
H584 C598 0.929 . S
H585 C599 0.931 . S
H586 C601 0.930 . S
C587 H575 0.930 . S
C587 C588 1.399 . S
C587 C592 1.399 . S
C588 C587 1.399 . S
C588 C589 1.376 . S
C589 H576 0.930 . S
C589 C588 1.376 . S
C589 C590 1.388 . S
C590 H577 0.930 . S
C590 C589 1.388 . S
C590 C591 1.390 . S
C591 C590 1.390 . S
C591 C592 1.394 . S
C591 C597 1.465 . S
C592 C587 1.399 . S
C592 C591 1.394 . S
C592 C593 1.516 . S
C593 C592 1.516 . S
C593 C594 1.502 . S
C593 C595 1.561 1_554 S
C593 C596 1.526 . S
C594 H578 0.959 . S
C594 H579 0.959 . S
C594 H580 0.961 . S
C594 C593 1.502 . S
C595 H581 0.960 1_556 S
C595 H582 0.961 . S
C595 H583 0.959 . S
C595 C593 1.561 1_556 S
C596 C593 1.526 . S
C596 C597 1.396 . S
C596 C601 1.390 1_554 S
C597 C591 1.465 . S
C597 C596 1.396 . S
C597 C598 1.399 . S
C598 H584 0.929 . S
C598 C597 1.399 . S
C598 C599 1.385 1_554 S
C599 H585 0.931 . S
C599 C598 1.385 1_556 S
C599 C600 1.389 . S
C600 C599 1.389 . S
C600 C601 1.387 . S
C601 H586 0.930 . S
C601 C596 1.390 1_556 S
C601 C600 1.387 . S
H602 C614 0.930 . S
H603 C616 0.930 . S
H604 C617 0.930 . S
H605 C621 0.959 1_556 S
H606 C621 0.959 1_556 S
H607 C621 0.961 . S
H608 C622 0.960 . S
H609 C622 0.961 . S
H610 C622 0.959 . S
H611 C625 0.929 . S
H612 C626 0.931 . S
H613 C628 0.930 . S
C614 H602 0.930 . S
C614 C615 1.399 . S
C614 C619 1.399 . S
C615 C614 1.399 . S
C615 C616 1.376 . S
C616 H603 0.930 . S
C616 C615 1.376 . S
C616 C617 1.388 . S
C617 H604 0.930 . S
C617 C616 1.388 . S
C617 C618 1.390 . S
C618 C617 1.390 . S
C618 C619 1.394 . S
C618 C624 1.465 . S
C619 C614 1.399 . S
C619 C618 1.394 . S
C619 C620 1.516 . S
C620 C619 1.516 . S
C620 C621 1.502 . S
C620 C622 1.561 . S
C620 C623 1.526 . S
C621 H605 0.959 1_554 S
C621 H606 0.959 1_554 S
C621 H607 0.961 . S
C621 C620 1.502 . S
C622 H608 0.960 . S
C622 H609 0.961 . S
C622 H610 0.959 . S
C622 C620 1.561 . S
C623 C620 1.526 . S
C623 C624 1.396 . S
C623 C628 1.390 1_554 S
C624 C618 1.465 . S
C624 C623 1.396 . S
C624 C625 1.399 . S
C625 H611 0.929 . S
C625 C624 1.399 . S
C625 C626 1.385 1_554 S
C626 H612 0.931 . S
C626 C625 1.385 1_556 S
C626 C627 1.389 . S
C627 C626 1.389 . S
C627 C628 1.387 . S
C628 H613 0.930 . S
C628 C623 1.390 1_556 S
C628 C627 1.387 . S
H629 C641 0.930 . S
H630 C643 0.929 1_455 S
H631 C644 0.930 . S
H632 C648 0.959 . S
H633 C648 0.959 . S
H634 C648 0.961 . S
H635 C649 0.960 . S
H636 C649 0.961 . S
H637 C649 0.959 . S
H638 C652 0.929 . S
H639 C653 0.931 . S
H640 C655 0.930 . S
C641 H629 0.930 . S
C641 C642 1.399 . S
C641 C646 1.399 . S
C642 C641 1.399 . S
C642 C643 1.376 . S
C643 H630 0.929 1_655 S
C643 C642 1.376 . S
C643 C644 1.388 1_655 S
C644 H631 0.930 . S
C644 C643 1.388 1_455 S
C644 C645 1.390 1_455 S
C645 C644 1.390 1_655 S
C645 C646 1.394 . S
C645 C651 1.465 . S
C646 C641 1.399 . S
C646 C645 1.394 . S
C646 C647 1.516 . S
C647 C646 1.516 . S
C647 C648 1.502 1_554 S
C647 C649 1.561 1_654 S
C647 C650 1.526 1_554 S
C648 H632 0.959 . S
C648 H633 0.959 . S
C648 H634 0.961 . S
C648 C647 1.502 1_556 S
C649 H635 0.960 . S
C649 H636 0.961 . S
C649 H637 0.959 . S
C649 C647 1.561 1_456 S
C650 C647 1.526 1_556 S
C650 C651 1.397 1_556 S
C650 C655 1.390 . S
C651 C645 1.465 . S
C651 C650 1.397 1_554 S
C651 C652 1.398 1_655 S
C652 H638 0.929 . S
C652 C651 1.398 1_455 S
C652 C653 1.385 1_554 S
C653 H639 0.931 . S
C653 C652 1.385 1_556 S
C653 C654 1.390 1_455 S
C654 C653 1.390 1_655 S
C654 C655 1.386 . S
C655 H640 0.930 . S
C655 C650 1.390 . S
C655 C654 1.386 . S
H656 C668 0.930 . S
H657 C670 0.930 1_556 S
H658 C671 0.930 . S
H659 C675 0.959 . S
H660 C675 0.959 . S
H661 C675 0.961 . S
H662 C676 0.960 . S
H663 C676 0.961 . S
H664 C676 0.959 . S
H665 C679 0.929 . S
H666 C680 0.928 1_655 S
H667 C682 0.930 . S
C668 H656 0.930 . S
C668 C669 1.399 . S
C668 C673 1.399 . S
C669 C668 1.399 . S
C669 C670 1.376 . S
C670 H657 0.930 1_554 S
C670 C669 1.376 . S
C670 C671 1.388 . S
C671 H658 0.930 . S
C671 C670 1.388 . S
C671 C672 1.390 . S
C672 C671 1.390 . S
C672 C673 1.394 . S
C672 C678 1.465 . S
C673 C668 1.399 . S
C673 C672 1.394 . S
C673 C674 1.516 . S
C674 C673 1.516 . S
C674 C675 1.502 . S
C674 C676 1.561 1_455 S
C674 C677 1.526 . S
C675 H659 0.959 . S
C675 H660 0.959 . S
C675 H661 0.961 . S
C675 C674 1.502 . S
C676 H662 0.960 . S
C676 H663 0.961 . S
C676 H664 0.959 . S
C676 C674 1.561 1_655 S
C677 C674 1.526 . S
C677 C678 1.396 . S
C677 C682 1.390 . S
C678 C672 1.465 . S
C678 C677 1.396 . S
C678 C679 1.399 . S
C679 H665 0.929 . S
C679 C678 1.399 . S
C679 C680 1.388 . S
C680 H666 0.928 1_455 S
C680 C679 1.388 . S
C680 C681 1.389 . S
C681 C680 1.389 . S
C681 C682 1.394 . S
C682 H667 0.930 . S
C682 C677 1.390 . S
C682 C681 1.394 . S
H683 C695 0.930 . S
H684 C697 0.930 1_556 S
H685 C698 0.930 . S
H686 C702 0.959 . S
H687 C702 0.959 . S
H688 C702 0.961 . S
H689 C703 0.960 . S
H690 C703 0.961 . S
H691 C703 0.959 . S
H692 C706 0.929 . S
H693 C707 0.938 . S
H694 C709 0.930 . S
C695 H683 0.930 . S
C695 C696 1.399 . S
C695 C700 1.399 . S
C696 C695 1.399 . S
C696 C697 1.376 . S
C697 H684 0.930 1_554 S
C697 C696 1.376 . S
C697 C698 1.388 . S
C698 H685 0.930 . S
C698 C697 1.388 . S
C698 C699 1.390 . S
C699 C698 1.390 . S
C699 C700 1.394 . S
C699 C705 1.465 . S
C700 C695 1.399 . S
C700 C699 1.394 . S
C700 C701 1.516 . S
C701 C700 1.516 . S
C701 C702 1.502 . S
C701 C703 1.561 1_545 S
C701 C704 1.526 . S
C702 H686 0.959 . S
C702 H687 0.959 . S
C702 H688 0.961 . S
C702 C701 1.502 . S
C703 H689 0.960 . S
C703 H690 0.961 . S
C703 H691 0.959 . S
C703 C701 1.561 1_565 S
C704 C701 1.526 . S
C704 C705 1.396 . S
C704 C709 1.390 . S
C705 C699 1.465 . S
C705 C704 1.396 . S
C705 C706 1.399 . S
C706 H692 0.929 . S
C706 C705 1.399 . S
C706 C707 1.385 . S
C707 H693 0.938 . S
C707 C706 1.385 . S
C707 C708 1.389 . S
C708 C707 1.389 . S
C708 C709 1.387 . S
C709 H694 0.930 . S
C709 C704 1.390 . S
C709 C708 1.387 . S
H710 C722 0.930 . S
H711 C724 0.930 1_556 S
H712 C725 0.930 . S
H713 C729 0.959 . S
H714 C729 0.959 . S
H715 C729 0.961 . S
H716 C730 0.960 . S
H717 C730 0.961 . S
H718 C730 0.959 . S
H719 C733 0.929 . S
H720 C734 0.931 . S
H721 C736 0.930 . S
C722 H710 0.930 . S
C722 C723 1.399 . S
C722 C727 1.399 . S
C723 C722 1.399 . S
C723 C724 1.376 . S
C724 H711 0.930 1_554 S
C724 C723 1.376 . S
C724 C725 1.388 . S
C725 H712 0.930 . S
C725 C724 1.388 . S
C725 C726 1.390 . S
C726 C725 1.390 . S
C726 C727 1.394 . S
C726 C732 1.465 . S
C727 C722 1.399 . S
C727 C726 1.394 . S
C727 C728 1.516 . S
C728 C727 1.516 . S
C728 C729 1.502 . S
C728 C730 1.561 . S
C728 C731 1.526 . S
C729 H713 0.959 . S
C729 H714 0.959 . S
C729 H715 0.961 . S
C729 C728 1.502 . S
C730 H716 0.960 . S
C730 H717 0.961 . S
C730 H718 0.959 . S
C730 C728 1.561 . S
C731 C728 1.526 . S
C731 C732 1.396 . S
C731 C736 1.390 . S
C732 C726 1.465 . S
C732 C731 1.396 . S
C732 C733 1.399 . S
C733 H719 0.929 . S
C733 C732 1.399 . S
C733 C734 1.385 . S
C734 H720 0.931 . S
C734 C733 1.385 . S
C734 C735 1.389 . S
C735 C734 1.389 . S
C735 C736 1.387 . S
C736 H721 0.930 . S
C736 C731 1.390 . S
C736 C735 1.387 . S
H737 C749 0.930 . S
H738 C751 0.930 1_556 S
H739 C752 0.930 . S
H740 C756 0.959 . S
H741 C756 0.959 . S
H742 C756 0.961 . S
H743 C757 0.960 . S
H744 C757 0.961 . S
H745 C757 0.959 . S
H746 C760 0.929 . S
H747 C761 0.931 . S
H748 C763 0.930 . S
C749 H737 0.930 . S
C749 C750 1.399 . S
C749 C754 1.399 . S
C750 C749 1.399 . S
C750 C751 1.376 . S
C751 H738 0.930 1_554 S
C751 C750 1.376 . S
C751 C752 1.388 . S
C752 H739 0.930 . S
C752 C751 1.388 . S
C752 C753 1.390 . S
C753 C752 1.390 . S
C753 C754 1.394 . S
C753 C759 1.465 . S
C754 C749 1.399 . S
C754 C753 1.394 . S
C754 C755 1.516 . S
C755 C754 1.516 . S
C755 C756 1.502 . S
C755 C757 1.561 . S
C755 C758 1.526 . S
C756 H740 0.959 . S
C756 H741 0.959 . S
C756 H742 0.961 . S
C756 C755 1.502 . S
C757 H743 0.960 . S
C757 H744 0.961 . S
C757 H745 0.959 . S
C757 C755 1.561 . S
C758 C755 1.526 . S
C758 C759 1.396 . S
C758 C763 1.390 . S
C759 C753 1.465 . S
C759 C758 1.396 . S
C759 C760 1.399 . S
C760 H746 0.929 . S
C760 C759 1.399 . S
C760 C761 1.385 . S
C761 H747 0.931 . S
C761 C760 1.385 . S
C761 C762 1.389 . S
C762 C761 1.389 . S
C762 C763 1.387 . S
C763 H748 0.930 . S
C763 C758 1.390 . S
C763 C762 1.387 . S
H764 C776 0.930 . S
H765 C778 0.930 . S
H766 C779 0.930 . S
H767 C783 0.959 . S
H768 C783 0.959 . S
H769 C783 0.961 . S
H770 C784 0.960 . S
H771 C784 0.961 . S
H772 C784 0.959 . S
H773 C787 0.929 . S
H774 C788 0.931 . S
H775 C790 0.930 . S
C776 H764 0.930 . S
C776 C777 1.399 1_455 S
C776 C781 1.399 . S
C777 C776 1.399 1_655 S
C777 C778 1.376 . S
C778 H765 0.930 . S
C778 C777 1.376 . S
C778 C779 1.388 . S
C779 H766 0.930 . S
C779 C778 1.388 . S
C779 C780 1.390 . S
C780 C779 1.390 . S
C780 C781 1.394 1_655 S
C780 C786 1.465 . S
C781 C776 1.399 . S
C781 C780 1.394 1_455 S
C781 C782 1.516 . S
C782 C781 1.516 . S
C782 C783 1.502 . S
C782 C784 1.561 . S
C782 C785 1.526 . S
C783 H767 0.959 . S
C783 H768 0.959 . S
C783 H769 0.961 . S
C783 C782 1.502 . S
C784 H770 0.960 . S
C784 H771 0.961 . S
C784 H772 0.959 . S
C784 C782 1.561 . S
C785 C782 1.526 . S
C785 C786 1.396 1_455 S
C785 C790 1.390 . S
C786 C780 1.465 . S
C786 C785 1.396 1_655 S
C786 C787 1.399 . S
C787 H773 0.929 . S
C787 C786 1.399 . S
C787 C788 1.385 . S
C788 H774 0.931 . S
C788 C787 1.385 . S
C788 C789 1.389 1_655 S
C789 C788 1.389 1_455 S
C789 C790 1.387 . S
C790 H775 0.930 . S
C790 C785 1.390 . S
C790 C789 1.387 . S
H791 C803 0.930 . S
H792 C805 0.930 . S
H793 C806 0.930 . S
H794 C810 0.959 . S
H795 C810 0.959 . S
H796 C810 0.961 . S
H797 C811 0.960 . S
H798 C811 0.961 . S
H799 C811 0.959 . S
H800 C814 0.929 . S
H801 C815 0.931 . S
H802 C817 0.930 . S
C803 H791 0.930 . S
C803 C804 1.399 . S
C803 C808 1.399 . S
C804 C803 1.399 . S
C804 C805 1.376 1_565 S
C805 H792 0.930 . S
C805 C804 1.376 1_545 S
C805 C806 1.388 . S
C806 H793 0.930 . S
C806 C805 1.388 . S
C806 C807 1.390 . S
C807 C806 1.390 . S
C807 C808 1.394 1_545 S
C807 C813 1.465 . S
C808 C803 1.399 . S
C808 C807 1.394 1_565 S
C808 C809 1.516 . S
C809 C808 1.516 . S
C809 C810 1.502 . S
C809 C811 1.561 . S
C809 C812 1.526 . S
C810 H794 0.959 . S
C810 H795 0.959 . S
C810 H796 0.961 . S
C810 C809 1.502 . S
C811 H797 0.960 . S
C811 H798 0.961 . S
C811 H799 0.959 . S
C811 C809 1.561 . S
C812 C809 1.526 . S
C812 C813 1.396 1_565 S
C812 C817 1.390 . S
C813 C807 1.465 . S
C813 C812 1.396 1_545 S
C813 C814 1.399 . S
C814 H800 0.929 . S
C814 C813 1.399 . S
C814 C815 1.385 . S
C815 H801 0.931 . S
C815 C814 1.385 . S
C815 C816 1.389 . S
C816 C815 1.389 . S
C816 C817 1.387 1_545 S
C817 H802 0.930 . S
C817 C812 1.390 . S
C817 C816 1.387 1_565 S
H818 C830 0.930 . S
H819 C832 0.930 . S
H820 C833 0.930 . S
H821 C837 0.959 . S
H822 C837 0.959 . S
H823 C837 0.961 . S
H824 C838 0.960 . S
H825 C838 0.961 . S
H826 C838 0.959 . S
H827 C841 0.929 . S
H828 C842 0.931 1_556 S
H829 C844 0.930 . S
C830 H818 0.930 . S
C830 C831 1.399 . S
C830 C835 1.399 . S
C831 C830 1.399 . S
C831 C832 1.376 . S
C832 H819 0.930 . S
C832 C831 1.376 . S
C832 C833 1.388 . S
C833 H820 0.930 . S
C833 C832 1.388 . S
C833 C834 1.390 . S
C834 C833 1.390 . S
C834 C835 1.394 . S
C834 C840 1.465 . S
C835 C830 1.399 . S
C835 C834 1.394 . S
C835 C836 1.516 . S
C836 C835 1.516 . S
C836 C837 1.502 . S
C836 C838 1.561 . S
C836 C839 1.526 . S
C837 H821 0.959 . S
C837 H822 0.959 . S
C837 H823 0.961 . S
C837 C836 1.502 . S
C838 H824 0.960 . S
C838 H825 0.961 . S
C838 H826 0.959 . S
C838 C836 1.561 . S
C839 C836 1.526 . S
C839 C840 1.396 . S
C839 C844 1.390 . S
C840 C834 1.465 . S
C840 C839 1.396 . S
C840 C841 1.399 . S
C841 H827 0.929 . S
C841 C840 1.399 . S
C841 C842 1.385 . S
C842 H828 0.931 1_554 S
C842 C841 1.385 . S
C842 C843 1.389 . S
C843 C842 1.389 . S
C843 C844 1.387 . S
C844 H829 0.930 . S
C844 C839 1.390 . S
C844 C843 1.387 . S
H845 C857 0.930 . S
H846 C859 0.930 . S
H847 C860 0.930 . S
H848 C864 0.959 . S
H849 C864 0.959 . S
H850 C864 0.961 . S
H851 C865 0.960 . S
H852 C865 0.961 . S
H853 C865 0.959 . S
H854 C868 0.929 . S
H855 C869 0.931 . S
H856 C871 0.930 . S
C857 H845 0.930 . S
C857 C858 1.399 . S
C857 C862 1.399 . S
C858 C857 1.399 . S
C858 C859 1.376 . S
C859 H846 0.930 . S
C859 C858 1.376 . S
C859 C860 1.388 . S
C860 H847 0.930 . S
C860 C859 1.388 . S
C860 C861 1.390 . S
C861 C860 1.390 . S
C861 C862 1.394 . S
C861 C867 1.465 . S
C862 C857 1.399 . S
C862 C861 1.394 . S
C862 C863 1.516 . S
C863 C862 1.516 . S
C863 C864 1.502 . S
C863 C865 1.561 . S
C863 C866 1.526 . S
C864 H848 0.959 . S
C864 H849 0.959 . S
C864 H850 0.961 . S
C864 C863 1.502 . S
C865 H851 0.960 . S
C865 H852 0.961 . S
C865 H853 0.959 . S
C865 C863 1.561 . S
C866 C863 1.526 . S
C866 C867 1.396 . S
C866 C871 1.390 . S
C867 C861 1.465 . S
C867 C866 1.396 . S
C867 C868 1.399 . S
C868 H854 0.929 . S
C868 C867 1.399 . S
C868 C869 1.385 . S
C869 H855 0.931 . S
C869 C868 1.385 . S
C869 C870 1.389 . S
C870 C869 1.389 . S
C870 C871 1.387 . S
C871 H856 0.930 . S
C871 C866 1.390 . S
C871 C870 1.387 . S
H872 C884 0.906 1_655 S
H873 C886 0.930 . S
H874 C887 0.930 . S
H875 C891 0.959 . S
H876 C891 0.959 . S
H877 C891 0.961 . S
H878 C892 0.960 1_655 S
H879 C892 0.961 1_655 S
H880 C892 0.959 . S
H881 C895 0.929 . S
H882 C896 0.931 . S
H883 C898 0.930 1_655 S
C884 H872 0.906 1_455 S
C884 C885 1.399 . S
C884 C889 1.399 . S
C885 C884 1.399 . S
C885 C886 1.376 . S
C886 H873 0.930 . S
C886 C885 1.376 . S
C886 C887 1.388 . S
C887 H874 0.930 . S
C887 C886 1.388 . S
C887 C888 1.390 . S
C888 C887 1.390 . S
C888 C889 1.394 . S
C888 C894 1.465 . S
C889 C884 1.399 . S
C889 C888 1.394 . S
C889 C890 1.540 . S
C890 C889 1.540 . S
C890 C891 1.462 1_455 S
C890 C892 1.563 . S
C890 C893 1.546 . S
C891 H875 0.959 . S
C891 H876 0.959 . S
C891 H877 0.961 . S
C891 C890 1.462 1_655 S
C892 H878 0.960 1_455 S
C892 H879 0.961 1_455 S
C892 H880 0.959 . S
C892 C890 1.563 . S
C893 C890 1.546 . S
C893 C894 1.396 . S
C893 C898 1.390 . S
C894 C888 1.465 . S
C894 C893 1.396 . S
C894 C895 1.399 . S
C895 H881 0.929 . S
C895 C894 1.399 . S
C895 C896 1.385 . S
C896 H882 0.931 . S
C896 C895 1.385 . S
C896 C897 1.389 . S
C897 C896 1.389 . S
C897 C898 1.387 . S
C898 H883 0.930 1_455 S
C898 C893 1.390 . S
C898 C897 1.387 . S
H899 C911 0.930 . S
H900 C913 0.930 . S
H901 C914 0.930 . S
H902 C918 0.959 1_545 S
H903 C918 0.959 . S
H904 C918 0.961 . S
H905 C919 0.960 . S
H906 C919 0.961 . S
H907 C919 0.959 . S
H908 C922 0.929 . S
H909 C923 0.931 . S
H910 C925 0.930 1_565 S
C911 H899 0.930 . S
C911 C912 1.399 . S
C911 C916 1.399 . S
C912 C911 1.399 . S
C912 C913 1.376 . S
C913 H900 0.930 . S
C913 C912 1.376 . S
C913 C914 1.388 . S
C914 H901 0.930 . S
C914 C913 1.388 . S
C914 C915 1.390 . S
C915 C914 1.390 . S
C915 C916 1.394 . S
C915 C921 1.465 . S
C916 C911 1.399 . S
C916 C915 1.394 . S
C916 C917 1.516 . S
C917 C916 1.516 . S
C917 C918 1.502 1_546 S
C917 C919 1.561 1_545 S
C917 C920 1.526 . S
C918 H902 0.959 1_565 S
C918 H903 0.959 . S
C918 H904 0.961 . S
C918 C917 1.502 1_564 S
C919 H905 0.960 . S
C919 H906 0.961 . S
C919 H907 0.959 . S
C919 C917 1.561 1_565 S
C920 C917 1.526 . S
C920 C921 1.396 . S
C920 C925 1.390 . S
C921 C915 1.465 . S
C921 C920 1.396 . S
C921 C922 1.399 . S
C922 H908 0.929 . S
C922 C921 1.399 . S
C922 C923 1.385 . S
C923 H909 0.931 . S
C923 C922 1.385 . S
C923 C924 1.389 . S
C924 C923 1.389 . S
C924 C925 1.387 . S
C925 H910 0.930 1_545 S
C925 C920 1.390 . S
C925 C924 1.387 . S
H926 C938 0.930 . S
H927 C940 0.930 . S
H928 C941 0.930 . S
H929 C945 0.959 . S
H930 C945 0.959 . S
H931 C945 0.961 . S
H932 C946 0.960 . S
H933 C946 0.961 . S
H934 C946 0.959 . S
H935 C949 0.929 1_554 S
H936 C950 0.931 . S
H937 C952 0.930 . S
C938 H926 0.930 . S
C938 C939 1.399 . S
C938 C943 1.399 . S
C939 C938 1.399 . S
C939 C940 1.376 1_556 S
C940 H927 0.930 . S
C940 C939 1.376 1_554 S
C940 C941 1.388 . S
C941 H928 0.930 . S
C941 C940 1.388 . S
C941 C942 1.390 1_554 S
C942 C941 1.390 1_556 S
C942 C943 1.394 . S
C942 C948 1.465 . S
C943 C938 1.399 . S
C943 C942 1.394 . S
C943 C944 1.516 . S
C944 C943 1.516 . S
C944 C945 1.502 . S
C944 C946 1.561 . S
C944 C947 1.526 . S
C945 H929 0.959 . S
C945 H930 0.959 . S
C945 H931 0.961 . S
C945 C944 1.502 . S
C946 H932 0.960 . S
C946 H933 0.961 . S
C946 H934 0.959 . S
C946 C944 1.561 . S
C947 C944 1.526 . S
C947 C948 1.396 . S
C947 C952 1.390 . S
C948 C942 1.465 . S
C948 C947 1.396 . S
C948 C949 1.399 . S
C949 H935 0.929 1_556 S
C949 C948 1.399 . S
C949 C950 1.385 . S
C950 H936 0.931 . S
C950 C949 1.385 . S
C950 C951 1.389 . S
C951 C950 1.389 . S
C951 C952 1.387 . S
C952 H937 0.930 . S
C952 C947 1.390 . S
C952 C951 1.387 . S
H953 C965 0.930 1_554 S
H954 C967 0.930 . S
H955 C968 0.930 . S
H956 C972 0.959 . S
H957 C972 0.959 . S
H958 C972 0.961 . S
H959 C973 0.960 . S
H960 C973 0.961 . S
H961 C973 0.959 . S
H962 C976 0.929 . S
H963 C977 0.931 . S
H964 C979 0.930 . S
C965 H953 0.930 1_556 S
C965 C966 1.399 . S
C965 C970 1.399 . S
C966 C965 1.399 . S
C966 C967 1.376 . S
C967 H954 0.930 . S
C967 C966 1.376 . S
C967 C968 1.388 . S
C968 H955 0.930 . S
C968 C967 1.388 . S
C968 C969 1.390 . S
C969 C968 1.390 . S
C969 C970 1.394 . S
C969 C975 1.465 . S
C970 C965 1.399 . S
C970 C969 1.394 . S
C970 C971 1.516 . S
C971 C970 1.516 . S
C971 C972 1.502 1_556 S
C971 C973 1.561 . S
C971 C974 1.526 . S
C972 H956 0.959 . S
C972 H957 0.959 . S
C972 H958 0.961 . S
C972 C971 1.502 1_554 S
C973 H959 0.960 . S
C973 H960 0.961 . S
C973 H961 0.959 . S
C973 C971 1.561 . S
C974 C971 1.526 . S
C974 C975 1.396 . S
C974 C979 1.390 . S
C975 C969 1.465 . S
C975 C974 1.396 . S
C975 C976 1.399 . S
C976 H962 0.929 . S
C976 C975 1.399 . S
C976 C977 1.385 . S
C977 H963 0.931 . S
C977 C976 1.385 . S
C977 C978 1.389 . S
C978 C977 1.389 . S
C978 C979 1.387 . S
C979 H964 0.930 . S
C979 C974 1.390 . S
C979 C978 1.387 . S
H980 C992 0.930 1_455 S
H981 C994 0.930 . S
H982 C995 0.930 . S
H983 C999 0.959 1_655 S
H984 C999 0.959 . S
H985 C999 0.961 . S
H986 C1000 0.960 . S
H987 C1000 0.961 . S
H988 C1000 0.959 . S
H989 C1003 0.929 . S
H990 C1004 0.931 . S
H991 C1006 0.930 . S
C992 H980 0.930 1_655 S
C992 C993 1.399 . S
C992 C997 1.399 . S
C993 C992 1.399 . S
C993 C994 1.376 . S
C994 H981 0.930 . S
C994 C993 1.376 . S
C994 C995 1.388 . S
C995 H982 0.930 . S
C995 C994 1.388 . S
C995 C996 1.390 . S
C996 C995 1.390 . S
C996 C997 1.394 . S
C996 C1002 1.465 . S
C997 C992 1.399 . S
C997 C996 1.394 . S
C997 C998 1.516 1_655 S
C998 C997 1.516 1_455 S
C998 C999 1.502 . S
C998 C1000 1.561 . S
C998 C1001 1.529 . S
C999 H983 0.959 1_455 S
C999 H984 0.959 . S
C999 H985 0.961 . S
C999 C998 1.502 . S
C1000 H986 0.960 . S
C1000 H987 0.961 . S
C1000 H988 0.959 . S
C1000 C998 1.561 . S
C1001 C998 1.529 . S
C1001 C1002 1.392 1_455 S
C1001 C1006 1.391 . S
C1002 C996 1.465 . S
C1002 C1001 1.392 1_655 S
C1002 C1003 1.399 . S
C1003 H989 0.929 . S
C1003 C1002 1.399 . S
C1003 C1004 1.385 . S
C1004 H990 0.931 . S
C1004 C1003 1.385 . S
C1004 C1005 1.389 . S
C1005 C1004 1.389 . S
C1005 C1006 1.387 1_655 S
C1006 H991 0.930 . S
C1006 C1001 1.391 . S
C1006 C1005 1.387 1_455 S
H1007 C1019 0.930 . S
H1008 C1021 0.930 . S
H1009 C1022 0.930 . S
H1010 C1026 0.959 . S
H1011 C1026 0.959 . S
H1012 C1026 0.961 . S
H1013 C1027 0.960 . S
H1014 C1027 0.961 . S
H1015 C1027 0.959 . S
H1016 C1030 0.929 . S
H1017 C1031 0.931 . S
H1018 C1033 0.930 . S
C1019 H1007 0.930 . S
C1019 C1020 1.399 . S
C1019 C1024 1.399 . S
C1020 C1019 1.399 . S
C1020 C1021 1.376 . S
C1021 H1008 0.930 . S
C1021 C1020 1.376 . S
C1021 C1022 1.388 . S
C1022 H1009 0.930 . S
C1022 C1021 1.388 . S
C1022 C1023 1.390 . S
C1023 C1022 1.390 . S
C1023 C1024 1.394 . S
C1023 C1029 1.465 . S
C1024 C1019 1.399 . S
C1024 C1023 1.394 . S
C1024 C1025 1.516 1_565 S
C1025 C1024 1.516 1_545 S
C1025 C1026 1.502 1_545 S
C1025 C1027 1.561 . S
C1025 C1028 1.526 1_545 S
C1026 H1010 0.959 . S
C1026 H1011 0.959 . S
C1026 H1012 0.961 . S
C1026 C1025 1.502 1_565 S
C1027 H1013 0.960 . S
C1027 H1014 0.961 . S
C1027 H1015 0.959 . S
C1027 C1025 1.561 . S
C1028 C1025 1.526 1_565 S
C1028 C1029 1.396 . S
C1028 C1033 1.390 1_565 S
C1029 C1023 1.465 . S
C1029 C1028 1.396 . S
C1029 C1030 1.399 . S
C1030 H1016 0.929 . S
C1030 C1029 1.399 . S
C1030 C1031 1.385 . S
C1031 H1017 0.931 . S
C1031 C1030 1.385 . S
C1031 C1032 1.389 . S
C1032 C1031 1.389 . S
C1032 C1033 1.387 1_565 S
C1033 H1018 0.930 . S
C1033 C1028 1.390 1_545 S
C1033 C1032 1.387 1_545 S
H1034 C1046 0.930 . S
H1035 C1048 0.930 . S
H1036 C1049 0.930 . S
H1037 C1053 0.959 . S
H1038 C1053 0.959 . S
H1039 C1053 0.961 . S
H1040 C1054 0.960 . S
H1041 C1054 0.961 . S
H1042 C1054 0.959 . S
H1043 C1057 0.929 . S
H1044 C1058 0.931 . S
H1045 C1060 0.930 . S
C1046 H1034 0.930 . S
C1046 C1047 1.399 . S
C1046 C1051 1.399 . S
C1047 C1046 1.399 . S
C1047 C1048 1.376 . S
C1048 H1035 0.930 . S
C1048 C1047 1.376 . S
C1048 C1049 1.388 . S
C1049 H1036 0.930 . S
C1049 C1048 1.388 . S
C1049 C1050 1.390 . S
C1050 C1049 1.390 . S
C1050 C1051 1.394 . S
C1050 C1056 1.465 . S
C1051 C1046 1.399 . S
C1051 C1050 1.394 . S
C1051 C1052 1.516 . S
C1052 C1051 1.516 . S
C1052 C1053 1.502 . S
C1052 C1054 1.561 . S
C1052 C1055 1.526 . S
C1053 H1037 0.959 . S
C1053 H1038 0.959 . S
C1053 H1039 0.961 . S
C1053 C1052 1.502 . S
C1054 H1040 0.960 . S
C1054 H1041 0.961 . S
C1054 H1042 0.959 . S
C1054 C1052 1.561 . S
C1055 C1052 1.526 . S
C1055 C1056 1.396 . S
C1055 C1060 1.390 . S
C1056 C1050 1.465 . S
C1056 C1055 1.396 . S
C1056 C1057 1.399 . S
C1057 H1043 0.929 . S
C1057 C1056 1.399 . S
C1057 C1058 1.385 . S
C1058 H1044 0.931 . S
C1058 C1057 1.385 . S
C1058 C1059 1.389 . S
C1059 C1058 1.389 . S
C1059 C1060 1.387 . S
C1060 H1045 0.930 . S
C1060 C1055 1.390 . S
C1060 C1059 1.387 . S
H1061 C1073 0.930 . S
H1062 C1075 0.930 . S
H1063 C1076 0.930 . S
H1064 C1080 0.959 . S
H1065 C1080 0.959 . S
H1066 C1080 0.961 . S
H1067 C1081 0.960 . S
H1068 C1081 0.961 . S
H1069 C1081 0.959 . S
H1070 C1084 0.929 . S
H1071 C1085 0.931 . S
H1072 C1087 0.930 . S
C1073 H1061 0.930 . S
C1073 C1074 1.399 . S
C1073 C1078 1.399 . S
C1074 C1073 1.399 . S
C1074 C1075 1.376 . S
C1075 H1062 0.930 . S
C1075 C1074 1.376 . S
C1075 C1076 1.388 . S
C1076 H1063 0.930 . S
C1076 C1075 1.388 . S
C1076 C1077 1.390 . S
C1077 C1076 1.390 . S
C1077 C1078 1.394 . S
C1077 C1083 1.465 . S
C1078 C1073 1.399 . S
C1078 C1077 1.394 . S
C1078 C1079 1.516 . S
C1079 C1078 1.516 . S
C1079 C1080 1.502 . S
C1079 C1081 1.561 . S
C1079 C1082 1.526 . S
C1080 H1064 0.959 . S
C1080 H1065 0.959 . S
C1080 H1066 0.961 . S
C1080 C1079 1.502 . S
C1081 H1067 0.960 . S
C1081 H1068 0.961 . S
C1081 H1069 0.959 . S
C1081 C1079 1.561 . S
C1082 C1079 1.526 . S
C1082 C1083 1.396 . S
C1082 C1087 1.390 . S
C1083 C1077 1.465 . S
C1083 C1082 1.396 . S
C1083 C1084 1.399 . S
C1084 H1070 0.929 . S
C1084 C1083 1.399 . S
C1084 C1085 1.385 . S
C1085 H1071 0.931 . S
C1085 C1084 1.385 . S
C1085 C1086 1.389 . S
C1086 C1085 1.389 . S
C1086 C1087 1.387 . S
C1087 H1072 0.930 . S
C1087 C1082 1.390 . S
C1087 C1086 1.387 . S
C453 N80 1.902 . S
C465 C172 2.018 . S
C492 C255 2.031 . S
C480 N93 1.899 . S
C519 C340 1.978 . S
C507 N54 1.942 . S
C546 C424 2.004 . S
C534 N67 1.913 . S
C573 C160 2.020 1_565 S
C561 N28 1.950 . S
C588 N41 1.928 . S
C600 C243 2.028 . S
C615 N2 1.954 . S
C627 C328 2.008 . S
C642 N15 1.946 . S
C654 C412 1.974 1_655 S
C681 C162 0.596 1_455 S
C669 N70 0.536 . S
C708 C258 0.450 . S
C696 N83 0.510 . S
C735 C330 0.592 . S
C723 N96 0.520 . S
C750 N57 0.554 . S
C762 C414 0.664 . S
C777 N18 0.580 . S
C789 C174 0.699 . S
C816 C246 0.494 . S
C804 N31 0.503 . S
C843 C342 0.491 . S
C831 N44 0.481 . S
C858 N5 0.472 . S
C870 C426 0.460 . S
C885 N66 2.018 . S
C897 C159 2.092 . S
C912 N79 2.041 . S
C924 C244 2.103 . S
C951 C327 2.115 . S
C939 N92 2.013 . S
C978 C411 2.100 . S
C966 N53 2.065 . S
C993 N14 1.989 . S
C1005 C171 2.099 . S
C1032 C256 2.084 1_565 S
C1020 N27 1.989 . S
C1059 C339 2.106 . S
C1047 N40 2.021 . S
C1074 N1 2.014 . S
C1086 C423 2.117 . S
