# Generated by pormake.
# Topology anh, (6,3)-cn, num edge types: 1
# Building blocks:
#     Node 0, Type 0, BuildingBlock: BETDEL_clean_sbu_0, # of connection points: 6
#     Node 1, Type 0, BuildingBlock: BETDEL_clean_sbu_0, # of connection points: 6
#     Node 2, Type 0, BuildingBlock: BETDEL_clean_sbu_0, # of connection points: 6
#     Node 3, Type 1, BuildingBlock: VETTIZ_charged_linker_0, # of connection points: 3
#     Node 4, Type 1, BuildingBlock: VETTIZ_charged_linker_0, # of connection points: 3
#     Node 5, Type 1, BuildingBlock: VETTIZ_charged_linker_0, # of connection points: 3
#     Node 6, Type 1, BuildingBlock: VETTIZ_charged_linker_0, # of connection points: 3
#     Node 7, Type 1, BuildingBlock: VETTIZ_charged_linker_0, # of connection points: 3
#     Node 8, Type 1, BuildingBlock: VETTIZ_charged_linker_0, # of connection points: 3
#     Edge 9, Type (0, 1), BuildingBlock: UVAHIK_clean_linker_0, # of connection points: 2
#     Edge 10, Type (0, 1), BuildingBlock: UVAHIK_clean_linker_0, # of connection points: 2
#     Edge 11, Type (0, 1), BuildingBlock: UVAHIK_clean_linker_0, # of connection points: 2
#     Edge 12, Type (0, 1), BuildingBlock: UVAHIK_clean_linker_0, # of connection points: 2
#     Edge 13, Type (0, 1), BuildingBlock: UVAHIK_clean_linker_0, # of connection points: 2
#     Edge 14, Type (0, 1), BuildingBlock: UVAHIK_clean_linker_0, # of connection points: 2
#     Edge 15, Type (0, 1), BuildingBlock: UVAHIK_clean_linker_0, # of connection points: 2
#     Edge 16, Type (0, 1), BuildingBlock: UVAHIK_clean_linker_0, # of connection points: 2
#     Edge 17, Type (0, 1), BuildingBlock: UVAHIK_clean_linker_0, # of connection points: 2
#     Edge 18, Type (0, 1), BuildingBlock: UVAHIK_clean_linker_0, # of connection points: 2
#     Edge 19, Type (0, 1), BuildingBlock: UVAHIK_clean_linker_0, # of connection points: 2
#     Edge 20, Type (0, 1), BuildingBlock: UVAHIK_clean_linker_0, # of connection points: 2
#     Edge 21, Type (0, 1), BuildingBlock: UVAHIK_clean_linker_0, # of connection points: 2
#     Edge 22, Type (0, 1), BuildingBlock: UVAHIK_clean_linker_0, # of connection points: 2
#     Edge 23, Type (0, 1), BuildingBlock: UVAHIK_clean_linker_0, # of connection points: 2
#     Edge 24, Type (0, 1), BuildingBlock: UVAHIK_clean_linker_0, # of connection points: 2
#     Edge 25, Type (0, 1), BuildingBlock: UVAHIK_clean_linker_0, # of connection points: 2
#     Edge 26, Type (0, 1), BuildingBlock: UVAHIK_clean_linker_0, # of connection points: 2
# Relax obj value: 0.140
# Max RMSD: 0.167
# Mean RMSD: 0.133
data_MOF--net-anh--node1-BETDEL_clean_sbu_0--node2-VETTIZ_charged_linker_0--edge1-UVAHIK_clean_linker_0
_symmetry_space_group_name_H-M    P1
_symmetry_Int_Tables_number       1
_symmetry_cell_setting            triclinic
loop_
_symmetry_equiv_pos_as_xyz
'x, y, z'
_cell_length_a     44.091373
_cell_length_b     44.081184
_cell_length_c     80.208123
_cell_angle_alpha  89.980724
_cell_angle_beta   89.994103
_cell_angle_gamma 119.96873
loop_
_atom_site_label
_atom_site_type_symbol
_atom_site_fract_x
_atom_site_fract_y
_atom_site_fract_z
_atom_type_partial_charge
Dy0 Dy 0.03909 0.47838 0.1678 0.0
C1 C 0.95776 0.54377 0.18011 0.0
C2 C 0.08315 0.45358 0.16034 0.0
Dy3 Dy 1.00073 0.51877 0.17074 0.0
O4 O 0.06852 0.45085 0.17469 0.0
O5 O 0.07333 0.4695 0.14987 0.0
O6 O 0.01866 0.4544 0.19283 0.0
O7 O 0.03008 0.50599 0.18814 0.0
C8 C 0.01723 0.48121 0.1985 0.0
C9 C 0.02118 0.51518 0.13971 0.0
O10 O 0.05422 0.56126 0.17826 0.0
O11 O 0.08328 0.53476 0.16682 0.0
O12 O 0.98163 0.55733 0.16864 0.0
O13 O 0.95736 0.51654 0.18651 0.0
O14 O 0.01919 0.54169 0.14534 0.0
O15 O 0.00904 0.49076 0.15028 0.0
O16 O 0.98541 0.43383 0.16206 0.0
O17 O 0.95611 0.46261 0.17066 0.0
C18 C 0.08347 0.56284 0.17297 0.0
C19 C 0.95605 0.4336 0.16604 0.0
Dy20 Dy 0.49262 0.04148 0.49952 0.0
C21 C 0.64034 0.12488 0.5182 0.0
C22 C 0.42457 0.99535 0.492 0.0
Dy23 Dy 0.57599 0.08506 0.50427 0.0
O24 O 0.43771 1.00273 0.5069 0.0
O25 O 0.44865 0.01347 0.48099 0.0
O26 O 0.48793 0.06193 0.52446 0.0
O27 O 0.53026 0.05388 0.51964 0.0
C28 C 0.51722 0.06551 0.53004 0.0
C29 C 0.55814 0.07696 0.47177 0.0
O30 O 0.56573 0.03009 0.50782 0.0
O31 O 0.50761 0.99937 0.49865 0.0
O32 O 0.63207 0.09917 0.50785 0.0
O33 O 0.61327 0.12846 0.52107 0.0
O34 O 0.59045 0.09441 0.47682 0.0
O35 O 0.53885 0.06602 0.48437 0.0
O36 O 0.50319 0.09568 0.49336 0.0
O37 O 0.55915 0.12571 0.50516 0.0
C38 C 0.53713 1.0005 0.50339 0.0
C39 C 0.53093 0.12504 0.49874 0.0
Dy40 Dy 0.58961 0.59289 0.8301 0.0
C41 C 0.53237 0.45015 0.85036 0.0
C42 C 0.60921 0.65792 0.81789 0.0
Dy43 Dy 0.55206 0.51487 0.83756 0.0
O44 O 0.61842 0.65154 0.83223 0.0
O45 O 0.58986 0.62874 0.81001 0.0
O46 O 0.61551 0.60419 0.85515 0.0
O47 O 0.56492 0.56095 0.85217 0.0
C48 C 0.59027 0.57643 0.86207 0.0
C49 C 0.5518 0.53077 0.80536 0.0
O50 O 0.50839 0.52506 0.84394 0.0
O51 O 0.53256 0.5787 0.8305 0.0
O52 O 0.51704 0.45635 0.83809 0.0
O53 O 0.55818 0.47942 0.8558 0.0
O54 O 0.52704 0.50282 0.81237 0.0
O55 O 0.57696 0.54667 0.81535 0.0
O56 O 0.63466 0.58389 0.82492 0.0
O57 O 0.60891 0.52904 0.83736 0.0
C58 C 0.50551 0.55141 0.83769 0.0
C59 C 0.63665 0.55681 0.8309 0.0
C60 C 0.60589 0.08439 0.18787 0.0
C61 C 0.63497 0.11334 0.19535 0.0
C62 C 0.63659 0.11629 0.21279 0.0
C63 C 0.58045 0.06313 0.21532 0.0
C64 C 0.57884 0.0594 0.19816 0.0
C65 C 0.54562 0.02653 0.19284 0.0
H66 H 0.3871 0.88819 0.21681 0.0
C67 C 0.54802 0.03434 0.22258 0.0
C68 C 0.52705 0.01256 0.20955 0.0
H69 H 0.4303 0.90861 0.16709 0.0
H70 H 0.48275 0.96066 0.17713 0.0
H71 H 0.45681 0.9025 0.23464 0.0
H72 H 0.40904 0.96547 0.22617 0.0
H73 H 0.42806 0.97716 0.24603 0.0
H74 H 0.39394 0.93264 0.24214 0.0
H75 H 0.4182 0.89564 0.24541 0.0
H76 H 0.46139 0.92542 0.25321 0.0
C77 C 0.55611 1.00132 0.18475 0.0
C78 C 0.52465 0.03704 0.18113 0.0
C79 C 0.53049 0.03139 0.28538 0.0
C80 C 0.50203 0.01025 0.2958 0.0
C81 C 0.47081 0.9837 0.2887 0.0
C82 C 0.46822 0.97776 0.27146 0.0
C83 C 0.49707 0.99883 0.26116 0.0
C84 C 0.52729 0.02547 0.26814 0.0
C85 C 0.55445 0.04655 0.25522 0.0
C86 C 0.53594 0.02747 0.23933 0.0
C87 C 0.50262 0.99939 0.24292 0.0
C88 C 0.58725 0.04324 0.25875 0.0
C89 C 0.56097 0.08459 0.25573 0.0
C90 C 0.40761 0.90398 0.20798 0.0
C91 C 0.40427 0.89448 0.19112 0.0
C92 C 0.43218 0.91538 0.18018 0.0
C93 C 0.46257 0.94555 0.18602 0.0
C94 C 0.46533 0.95461 0.20304 0.0
C95 C 0.438 0.93353 0.21362 0.0
C96 C 0.44517 0.94541 0.23138 0.0
C97 C 0.48137 0.97712 0.22993 0.0
C98 C 0.49338 0.98308 0.2133 0.0
C99 C 0.44523 0.91581 0.24185 0.0
C100 C 0.41762 0.95552 0.23688 0.0
H101 H 0.61267 0.09562 0.23596 0.0
H102 H 0.6042 0.0815 0.17444 0.0
H103 H 0.52242 0.05902 0.1866 0.0
H104 H 0.49767 0.01551 0.17905 0.0
H105 H 0.53781 0.04571 0.16883 0.0
H106 H 0.57748 1.00095 0.19196 0.0
H107 H 0.56563 0.0096 0.1718 0.0
H108 H 0.53445 0.97397 0.18456 0.0
H109 H 0.55458 0.05243 0.29051 0.0
H110 H 0.44861 0.96714 0.29656 0.0
H111 H 0.44388 0.95684 0.26685 0.0
H112 H 0.57955 0.01623 0.26289 0.0
H113 H 0.60358 0.06156 0.26876 0.0
H114 H 0.60367 0.04777 0.2476 0.0
H115 H 0.53789 0.0855 0.26073 0.0
H116 H 0.56508 0.09651 0.2432 0.0
H117 H 0.5837 0.10165 0.26377 0.0
H118 H 0.65874 0.13828 0.21874 0.0
C119 C 0.60968 0.09148 0.22277 0.0
C120 C 0.5406 0.65196 0.52211 0.0
C121 C 0.5457 0.68236 0.53056 0.0
C122 C 0.55006 0.68423 0.54797 0.0
C123 C 0.54483 0.62691 0.54848 0.0
C124 C 0.54069 0.62461 0.53135 0.0
C125 C 0.5374 0.59075 0.5248 0.0
H126 H 0.54111 0.44041 0.54344 0.0
C127 C 0.54409 0.59497 0.55462 0.0
C128 C 0.54003 0.57339 0.54084 0.0
H129 H 0.5282 0.47274 0.49447 0.0
H130 H 0.52948 0.52442 0.50648 0.0
H131 H 0.59848 0.51448 0.55686 0.0
H132 H 0.48655 0.45458 0.56044 0.0
H133 H 0.5002 0.47726 0.57938 0.0
H134 H 0.51421 0.44642 0.57385 0.0
H135 H 0.57545 0.47569 0.56934 0.0
H136 H 0.58784 0.51836 0.57755 0.0
C137 C 0.56835 0.6 0.51292 0.0
C138 C 0.50128 0.5692 0.51642 0.0
C139 C 0.55306 0.58031 0.61713 0.0
C140 C 0.55183 0.55303 0.62674 0.0
C141 C 0.54924 0.52351 0.61861 0.0
C142 C 0.54753 0.52095 0.60122 0.0
C143 C 0.54818 0.54809 0.59174 0.0
C144 C 0.55091 0.57712 0.5997 0.0
C145 C 0.55048 0.60295 0.58758 0.0
C146 C 0.5467 0.58441 0.57105 0.0
C147 C 0.54561 0.55252 0.5736 0.0
C148 C 0.58608 0.63756 0.58895 0.0
C149 C 0.51792 0.60646 0.59153 0.0
C150 C 0.53882 0.45871 0.53523 0.0
C151 C 0.53519 0.45288 0.51802 0.0
C152 C 0.53128 0.47686 0.50782 0.0
C153 C 0.53222 0.50686 0.5148 0.0
C154 C 0.53672 0.51264 0.53216 0.0
C155 C 0.53929 0.48816 0.54196 0.0
C156 C 0.54229 0.49665 0.56014 0.0
C157 C 0.54232 0.53093 0.55984 0.0
C158 C 0.53923 0.54081 0.54347 0.0
C159 C 0.57767 0.50137 0.56646 0.0
C160 C 0.50937 0.46726 0.56904 0.0
H161 H 0.55299 0.66026 0.57012 0.0
H162 H 0.53738 0.64993 0.5087 0.0
H163 H 0.48043 0.56872 0.52442 0.0
H164 H 0.494 0.54161 0.51449 0.0
H165 H 0.5007 0.58076 0.5042 0.0
H166 H 0.59336 0.62015 0.51864 0.0
H167 H 0.56491 0.61066 0.50096 0.0
H168 H 0.57169 0.57735 0.51016 0.0
H169 H 0.55479 0.60321 0.62305 0.0
H170 H 0.54869 0.50237 0.62575 0.0
H171 H 0.54571 0.49782 0.59587 0.0
H172 H 0.6073 0.63265 0.59317 0.0
H173 H 0.58466 0.65583 0.59803 0.0
H174 H 0.59541 0.651 0.57681 0.0
H175 H 0.49535 0.58077 0.59531 0.0
H176 H 0.50835 0.61462 0.58066 0.0
H177 H 0.52333 0.62515 0.60191 0.0
H178 H 0.55372 0.70709 0.55474 0.0
C179 C 0.54956 0.65685 0.55691 0.0
C180 C 0.15434 0.55088 0.85735 0.0
C181 C 0.18087 0.54758 0.86566 0.0
C182 C 0.17975 0.54466 0.88311 0.0
C183 C 0.12563 0.5461 0.88396 0.0
C184 C 0.12669 0.54986 0.86681 0.0
C185 C 0.09514 0.55173 0.86054 0.0
H186 H 0.93602 0.53609 0.87979 0.0
C187 C 0.09308 0.54377 0.89025 0.0
C188 C 0.07454 0.54676 0.87665 0.0
H189 H 0.98572 0.56094 0.83147 0.0
H190 H 0.03597 0.5591 0.84308 0.0
H191 H 0.95437 0.47856 0.88981 0.0
H192 H 1.00446 0.58896 0.89976 0.0
H193 H 1.00563 0.56873 0.9184 0.0
H194 H 0.96397 0.55756 0.90931 0.0
H195 H 0.93804 0.4963 0.9052 0.0
H196 H 0.97041 0.48405 0.91025 0.0
C197 C 0.07475 0.52151 0.84811 0.0
C198 C 0.10827 0.58835 0.85289 0.0
C199 C 0.06726 0.5251 0.95238 0.0
C200 C 0.03789 0.51822 0.96199 0.0
C201 C 0.00825 0.51573 0.95406 0.0
C202 C 1.00813 0.52073 0.9368 0.0
C203 C 0.03784 0.52792 0.92731 0.0
C204 C 0.06648 0.52943 0.93511 0.0
C205 C 0.09476 0.53502 0.92296 0.0
C206 C 0.07889 0.53785 0.90661 0.0
C207 C 0.04581 0.53405 0.90926 0.0
C208 C 0.09921 0.50219 0.92354 0.0
C209 C 0.12811 0.56994 0.92752 0.0
C210 C 0.95752 0.54084 0.87161 0.0
C211 C 0.9566 0.54817 0.85466 0.0
C212 C 0.98572 0.55514 0.84459 0.0
C213 C 0.01481 0.55401 0.85134 0.0
C214 C 0.01504 0.54631 0.8684 0.0
C215 C 0.98665 0.54032 0.87815 0.0
C216 C 0.99116 0.53402 0.89608 0.0
C217 C 0.02689 0.53711 0.89569 0.0
C218 C 0.04107 0.54393 0.87944 0.0
C219 C 0.96196 0.49644 0.90074 0.0
C220 C 0.99111 0.56357 0.90657 0.0
H221 H 0.15357 0.54168 0.90549 0.0
H222 H 0.1547 0.55329 0.84391 0.0
H223 H 0.12878 0.60896 0.86092 0.0
H224 H 0.08742 0.59511 0.85184 0.0
H225 H 0.11984 0.59024 0.84036 0.0
H226 H 0.07055 0.49639 0.85342 0.0
H227 H 0.08946 0.52635 0.83624 0.0
H228 H 0.04857 0.51756 0.84523 0.0
H229 H 0.09015 0.52651 0.95815 0.0
H230 H 0.98537 0.51048 0.96129 0.0
H231 H 0.98489 0.51887 0.93154 0.0
H232 H 0.0753 0.47876 0.92834 0.0
H233 H 0.12129 0.50653 0.93176 0.0
H234 H 0.1032 0.49418 0.91102 0.0
H235 H 0.12121 0.58999 0.93137 0.0
H236 H 0.14628 0.58184 0.91692 0.0
H237 H 0.14235 0.56627 0.93804 0.0
H238 H 0.20001 0.54248 0.88974 0.0
C239 C 0.15258 0.54408 0.89225 0.0
C240 C 0.95547 0.46056 0.48428 0.0
C241 C 0.93141 0.42594 0.47967 0.0
C242 C 0.92151 0.41805 0.46286 0.0
C243 C 0.95923 0.47875 0.45538 0.0
C244 C 0.96938 0.48651 0.47187 0.0
C245 C 0.99678 0.52447 0.47416 0.0
H246 H 0.10043 0.68371 0.43896 0.0
C247 C 0.97828 0.51121 0.44555 0.0
C248 C 1.00051 0.53819 0.45643 0.0
H249 H 0.10054 0.65369 0.4903 0.0
H250 H 0.0522 0.59571 0.48446 0.0
H251 H 0.09673 0.61804 0.42388 0.0
H252 H 0.016 0.64298 0.43406 0.0
H253 H 1.00633 0.62205 0.41456 0.0
H254 H 0.04689 0.66269 0.41736 0.0
H255 H 0.08956 0.64683 0.41077 0.0
H256 H 0.06688 0.60013 0.4074 0.0
C257 C 0.0308 0.52612 0.48044 0.0
C258 C 0.98195 0.54149 0.48606 0.0
C259 C 0.95869 0.50802 0.38299 0.0
C260 C 0.97442 0.53342 0.37037 0.0
C261 C 0.99817 0.56834 0.37498 0.0
C262 C 1.00698 0.5775 0.3917 0.0
C263 C 0.9923 0.55148 0.40405 0.0
C264 C 0.96819 0.51754 0.39964 0.0
C265 C 0.95604 0.49321 0.41439 0.0
C266 C 0.97722 0.51815 0.42834 0.0
C267 C 0.99834 0.55215 0.42219 0.0
C268 C 0.96631 0.46468 0.41145 0.0
C269 C 0.91626 0.4789 0.4166 0.0
C270 C 0.09027 0.6647 0.44898 0.0
C271 C 0.10467 0.67334 0.46507 0.0
C272 C 0.0899 0.64786 0.47779 0.0
C273 C 0.06205 0.61408 0.47434 0.0
C274 C 0.04897 0.60557 0.45799 0.0
C275 C 0.06294 0.63089 0.4457 0.0
C276 C 0.04697 0.61724 0.42891 0.0
C277 C 0.02119 0.57939 0.43305 0.0
C278 C 0.02228 0.57257 0.4501 0.0
C279 C 0.07635 0.62084 0.41699 0.0
C280 C 0.0282 0.63729 0.42326 0.0
H281 H 0.92631 0.43651 0.43817 0.0
H282 H 0.96358 0.46709 0.49715 0.0
H283 H 0.95418 0.53271 0.48294 0.0
H284 H 0.99587 0.57031 0.48512 0.0
H285 H 0.98283 0.53407 0.49921 0.0
H286 H 0.03371 0.50441 0.4751 0.0
H287 H 0.03072 0.52383 0.49424 0.0
H288 H 0.05471 0.5502 0.47653 0.0
H289 H 0.94001 0.48103 0.37998 0.0
H290 H 0.01116 0.58845 0.3656 0.0
H291 H 0.02572 0.60435 0.3943 0.0
H292 H 0.99014 0.47473 0.40353 0.0
H293 H 0.94498 0.44141 0.40509 0.0
H294 H 0.97336 0.45624 0.42309 0.0
H295 H 0.90964 0.49975 0.4141 0.0
H296 H 0.90702 0.47001 0.42943 0.0
H297 H 0.90084 0.45703 0.40782 0.0
H298 H 0.90278 0.39149 0.45917 0.0
C299 C 0.9351 0.44424 0.45072 0.0
C300 C 0.59345 0.99158 0.7908 0.0
C301 C 0.59778 0.96956 0.7795 0.0
C302 C 0.60249 0.97838 0.76245 0.0
C303 C 0.59777 0.02975 0.76797 0.0
C304 C 0.59341 0.02147 0.78474 0.0
C305 C 0.58846 0.04764 0.79477 0.0
H306 H 0.58005 0.1974 0.79583 0.0
C307 C 0.59624 0.06209 0.76558 0.0
C308 C 0.59083 0.07291 0.78121 0.0
H309 H 0.56814 0.13063 0.83768 0.0
H310 H 0.57638 0.09144 0.81936 0.0
H311 H 0.64415 0.19365 0.77754 0.0
H312 H 0.5321 0.13682 0.77191 0.0
H313 H 0.54964 0.14153 0.75183 0.0
H314 H 0.55855 0.18005 0.76358 0.0
H315 H 0.61977 0.21287 0.76925 0.0
H316 H 0.63465 0.18982 0.75608 0.0
C317 C 0.61896 0.06532 0.80738 0.0
C318 C 0.5517 0.02829 0.80289 0.0
C319 C 0.60744 0.11049 0.70717 0.0
C320 C 0.60552 0.13904 0.70063 0.0
C321 C 0.60131 0.16159 0.71164 0.0
C322 C 0.59883 0.15558 0.7289 0.0
C323 C 0.60024 0.12652 0.73521 0.0
C324 C 0.60459 0.10467 0.72436 0.0
C325 C 0.60444 0.07449 0.7331 0.0
C326 C 0.59916 0.08167 0.75104 0.0
C327 C 0.59684 0.11216 0.75223 0.0
C328 C 0.64073 0.07759 0.73039 0.0
C329 C 0.5729 0.04009 0.72646 0.0
C330 C 0.57978 0.17462 0.8011 0.0
C331 C 0.5741 0.16732 0.81822 0.0
C332 C 0.5727 0.1368 0.82452 0.0
C333 C 0.57752 0.1142 0.81387 0.0
C334 C 0.58333 0.12204 0.79674 0.0
C335 C 0.58411 0.15176 0.79066 0.0
C336 C 0.58893 0.15545 0.77211 0.0
C337 C 0.59163 0.12339 0.76799 0.0
C338 C 0.58849 0.10387 0.78243 0.0
C339 C 0.62353 0.1898 0.76841 0.0
C340 C 0.55584 0.15364 0.76434 0.0
H341 H 0.60619 0.01327 0.74352 0.0
H342 H 0.58965 0.98541 0.80398 0.0
H343 H 0.5324 0.00772 0.79442 0.0
H344 H 0.54091 0.04568 0.80538 0.0
H345 H 0.55212 0.01531 0.8147 0.0
H346 H 0.64414 0.07135 0.80141 0.0
H347 H 0.61468 0.04787 0.81819 0.0
H348 H 0.62302 0.09063 0.81202 0.0
H349 H 0.60991 0.09223 0.69903 0.0
H350 H 0.59984 0.18381 0.70687 0.0
H351 H 0.59556 0.1736 0.73664 0.0
H352 H 0.66182 0.10551 0.7297 0.0
H353 H 0.64136 0.06478 0.71857 0.0
H354 H 0.64859 0.06659 0.7408 0.0
H355 H 0.55057 0.04402 0.72318 0.0
H356 H 0.56202 0.01885 0.73581 0.0
H357 H 0.58007 0.03076 0.71508 0.0
H358 H 0.60655 0.96228 0.75354 0.0
C359 C 0.60251 0.00822 0.75665 0.0
C360 C 0.6246 0.53724 0.1492 0.0
C361 C 0.65929 0.55106 0.14364 0.0
C362 C 0.66624 0.55368 0.12641 0.0
C363 C 0.60458 0.52836 0.12044 0.0
C364 C 0.59768 0.52643 0.13736 0.0
C365 C 0.55936 0.51259 0.14081 0.0
H366 H 0.39599 0.45228 0.10967 0.0
C367 C 0.5712 0.51452 0.1114 0.0
C368 C 0.54446 0.50529 0.12322 0.0
H369 H 0.42829 0.47536 0.16116 0.0
H370 H 0.48721 0.48957 0.15349 0.0
H371 H 0.45646 0.51821 0.09578 0.0
H372 H 0.44145 0.41456 0.10034 0.0
H373 H 0.46089 0.43039 0.08077 0.0
H374 H 0.41876 0.426 0.08527 0.0
H375 H 0.4294 0.48378 0.08159 0.0
H376 H 0.47562 0.51207 0.07794 0.0
C377 C 0.55552 0.54194 0.14943 0.0
C378 C 0.54525 0.47863 0.15119 0.0
C379 C 0.57025 0.51027 0.04801 0.0
C380 C 0.54327 0.50026 0.03626 0.0
C381 C 0.50842 0.48539 0.04181 0.0
C382 C 0.50058 0.48148 0.05883 0.0
C383 C 0.52791 0.49295 0.07049 0.0
C384 C 0.56199 0.50657 0.06503 0.0
C385 C 0.58758 0.51797 0.07927 0.0
C386 C 0.5632 0.50935 0.09412 0.0
C387 C 0.52842 0.49477 0.08886 0.0
C388 C 0.61326 0.55793 0.07759 0.0
C389 C 0.60525 0.49517 0.07893 0.0
C390 C 0.41567 0.46041 0.11935 0.0
C391 C 0.4076 0.46324 0.13599 0.0
C392 C 0.43387 0.47306 0.14822 0.0
C393 C 0.4681 0.48165 0.14371 0.0
C394 C 0.47609 0.48059 0.1268 0.0
C395 C 0.44981 0.4696 0.11503 0.0
C396 C 0.46279 0.47151 0.09758 0.0
C397 C 0.50141 0.48592 0.10069 0.0
C398 C 0.50924 0.49106 0.1178 0.0
C399 C 0.45562 0.49747 0.08756 0.0
C400 C 0.44501 0.4338 0.09045 0.0
H401 H 0.64621 0.54473 0.1019 0.0
H402 H 0.61869 0.5352 0.1624 0.0
H403 H 0.55516 0.46171 0.14613 0.0
H404 H 0.51644 0.46251 0.15089 0.0
H405 H 0.55385 0.48466 0.16439 0.0
H406 H 0.57558 0.56823 0.1448 0.0
H407 H 0.55886 0.54159 0.16315 0.0
H408 H 0.53021 0.54036 0.14676 0.0
H409 H 0.59731 0.52207 0.04407 0.0
H410 H 0.48723 0.47716 0.03292 0.0
H411 H 0.47357 0.47038 0.06222 0.0
H412 H 0.60048 0.57125 0.07141 0.0
H413 H 0.63655 0.56334 0.07003 0.0
H414 H 0.62202 0.57123 0.08977 0.0
H415 H 0.58601 0.46766 0.07549 0.0
H416 H 0.61556 0.49326 0.09119 0.0
H417 H 0.62679 0.50524 0.06963 0.0
H418 H 0.69276 0.56389 0.1219 0.0
C419 C 0.63913 0.54229 0.11481 0.0
C420 C 0.11973 0.42846 0.16991 0.0
C421 C 0.11065 0.44458 0.15731 0.0
C422 C 0.14863 0.42381 0.16799 0.0
C423 C 0.21189 0.42599 0.13675 0.0
H424 H 0.27507 0.4533 0.17457 0.0
C425 C 0.35697 0.47148 0.12917 0.0
C426 C 0.37248 0.45809 0.14003 0.0
C427 C 0.32318 0.46516 0.13203 0.0
C428 C 0.25743 0.44504 0.164 0.0
H429 H 0.12362 0.46733 0.1326 0.0
H430 H 0.1744 0.4597 0.12925 0.0
H431 H 0.21815 0.44939 0.17769 0.0
H432 H 0.36511 0.4287 0.1628 0.0
H433 H 0.30568 0.41814 0.16801 0.0
H434 H 0.25178 0.42294 0.12293 0.0
C435 C 0.15901 0.45017 0.14055 0.0
C436 C 0.22479 0.44274 0.16577 0.0
C437 C 0.13002 0.45469 0.14247 0.0
C438 C 0.35383 0.43934 0.15423 0.0
C439 C 0.31987 0.43321 0.15717 0.0
C440 C 0.24454 0.42848 0.13498 0.0
C441 C 0.16907 0.4353 0.15343 0.0
C442 C 0.20197 0.43392 0.15205 0.0
C443 C 0.30407 0.44559 0.14591 0.0
C444 C 0.26795 0.43881 0.14847 0.0
H445 H 0.10508 0.42029 0.18147 0.0
H446 H 0.15532 0.41176 0.17802 0.0
H447 H 0.19466 0.41842 0.12605 0.0
H448 H 0.37099 0.48694 0.11839 0.0
H449 H 0.31205 0.47586 0.12339 0.0
C450 C 0.70425 0.14533 0.51864 0.0
C451 C 0.67645 0.1506 0.52307 0.0
C452 C 0.73882 0.17264 0.52006 0.0
C453 C 0.79535 0.26517 0.5346 0.0
H454 H 0.84212 0.27387 0.4925 0.0
C455 C 0.92003 0.36846 0.49063 0.0
C456 C 0.91534 0.39754 0.49207 0.0
C457 C 0.89851 0.33779 0.49946 0.0
C458 C 0.83014 0.27172 0.50455 0.0
H459 H 0.6628 0.18731 0.53378 0.0
H460 H 0.72293 0.23528 0.53581 0.0
H461 H 0.78983 0.21964 0.49926 0.0
H462 H 0.88645 0.41865 0.50453 0.0
H463 H 0.84795 0.36472 0.51967 0.0
H464 H 0.83513 0.31828 0.53939 0.0
C465 C 0.71836 0.21007 0.53147 0.0
C466 C 0.79994 0.2404 0.50845 0.0
C467 C 0.68381 0.18263 0.53021 0.0
C468 C 0.89063 0.39652 0.50339 0.0
C469 C 0.86869 0.36562 0.51207 0.0
C470 C 0.82572 0.29668 0.53068 0.0
C471 C 0.74618 0.20586 0.52572 0.0
C472 C 0.78156 0.23699 0.5233 0.0
C473 C 0.87135 0.3354 0.50961 0.0
C474 C 0.84292 0.30062 0.51537 0.0
H475 H 0.69925 0.12069 0.51328 0.0
H476 H 0.75968 0.16825 0.51589 0.0
H477 H 0.78208 0.26325 0.54625 0.0
H478 H 0.93907 0.36885 0.48196 0.0
H479 H 0.90184 0.3153 0.49758 0.0
C480 C 0.63369 0.7217 0.82304 0.0
C481 C 0.61473 0.6924 0.81276 0.0
C482 C 0.63502 0.75335 0.81943 0.0
C483 C 0.6182 0.80152 0.78617 0.0
H484 H 0.60306 0.84881 0.82331 0.0
C485 C 0.57999 0.90656 0.77577 0.0
C486 C 0.59781 0.93754 0.78513 0.0
C487 C 0.58308 0.87744 0.77974 0.0
C488 C 0.6077 0.83613 0.81284 0.0
H489 H 0.58339 0.67332 0.79034 0.0
H490 H 0.58543 0.72847 0.78405 0.0
H491 H 0.60873 0.79729 0.82846 0.0
H492 H 0.63164 0.96183 0.80643 0.0
H493 H 0.63691 0.91057 0.81347 0.0
H494 H 0.61663 0.84002 0.77054 0.0
C495 C 0.59959 0.72724 0.79482 0.0
C496 C 0.61105 0.80667 0.81578 0.0
C497 C 0.59832 0.69561 0.79842 0.0
C498 C 0.61748 0.93823 0.79905 0.0
C499 C 0.62056 0.90895 0.80305 0.0
C500 C 0.61475 0.83086 0.78324 0.0
C501 C 0.61736 0.75627 0.80547 0.0
C502 C 0.616 0.78883 0.80245 0.0
C503 C 0.60399 0.87854 0.79318 0.0
C504 C 0.60906 0.84825 0.79652 0.0
H505 H 0.64665 0.71991 0.83416 0.0
H506 H 0.64945 0.77539 0.82772 0.0
H507 H 0.62259 0.78876 0.77566 0.0
H508 H 0.56403 0.90501 0.76518 0.0
H509 H 0.56928 0.85409 0.77216 0.0
C510 C 0.93707 0.58673 0.17735 0.0
C511 C 0.93183 0.55471 0.18353 0.0
C512 C 0.91032 0.59488 0.17829 0.0
C513 C 0.8202 0.56453 0.19497 0.0
H514 H 0.80948 0.60015 0.15252 0.0
C515 C 0.68842 0.53654 0.16648 0.0
C516 C 0.68859 0.56127 0.1554 0.0
C517 C 0.71935 0.5431 0.17444 0.0
C518 C 0.81231 0.59097 0.16463 0.0
H519 H 0.89562 0.50699 0.19644 0.0
H520 H 0.84831 0.52044 0.19749 0.0
H521 H 0.86233 0.59834 0.1581 0.0
H522 H 0.71973 0.61351 0.1453 0.0
H523 H 0.77351 0.62543 0.15953 0.0
H524 H 0.76887 0.55546 0.20098 0.0
C525 C 0.87321 0.53973 0.19226 0.0
C526 C 0.84281 0.58995 0.16786 0.0
C527 C 0.90023 0.53187 0.19156 0.0
C528 C 0.71915 0.59392 0.15367 0.0
C529 C 0.7499 0.60062 0.16174 0.0
C530 C 0.78942 0.56538 0.19167 0.0
C531 C 0.87753 0.57082 0.18511 0.0
C532 C 0.84695 0.5761 0.18292 0.0
C533 C 0.7508 0.57459 0.1715 0.0
C534 C 0.78492 0.57804 0.17632 0.0
H535 H 0.96143 0.60498 0.17129 0.0
H536 H 0.91491 0.61947 0.17305 0.0
H537 H 0.8227 0.55411 0.20679 0.0
H538 H 0.66515 0.5111 0.16792 0.0
H539 H 0.71917 0.52243 0.18183 0.0
C540 C 0.36406 0.95379 0.50143 0.0
C541 C 0.38852 0.96751 0.48841 0.0
C542 C 0.33107 0.92464 0.4988 0.0
C543 C 0.2694 0.86753 0.46591 0.0
H544 H 0.2359 0.79823 0.50131 0.0
C545 C 0.16231 0.72389 0.45608 0.0
C546 C 0.13583 0.7083 0.46822 0.0
C547 C 0.19134 0.75698 0.45868 0.0
C548 C 0.24467 0.81752 0.49141 0.0
H549 H 0.39758 0.96249 0.4623 0.0
H550 H 0.34014 0.91078 0.4577 0.0
H551 H 0.28966 0.85384 0.50522 0.0
H552 H 0.11941 0.71537 0.49271 0.0
H553 H 0.17077 0.77309 0.4974 0.0
H554 H 0.22479 0.8304 0.45192 0.0
C555 C 0.34609 0.9229 0.4699 0.0
C556 C 0.27545 0.84948 0.49364 0.0
C557 C 0.37904 0.95244 0.47251 0.0
C558 C 0.13944 0.72645 0.48317 0.0
C559 C 0.16875 0.75953 0.48583 0.0
C560 C 0.23875 0.83539 0.46362 0.0
C561 C 0.32198 0.9082 0.48312 0.0
C562 C 0.28833 0.87485 0.48089 0.0
C563 C 0.19486 0.77517 0.47355 0.0
C564 C 0.22623 0.80999 0.47631 0.0
H565 H 0.37067 0.96517 0.51379 0.0
H566 H 0.3129 0.91463 0.50915 0.0
H567 H 0.27822 0.88662 0.45593 0.0
H568 H 0.1609 0.71034 0.44459 0.0
H569 H 0.2114 0.76806 0.44914 0.0
C570 C 0.55134 0.41155 0.86404 0.0
C571 C 0.52625 0.4151 0.85481 0.0
C572 C 0.54955 0.37904 0.86517 0.0
C573 C 0.51707 0.30033 0.83948 0.0
H574 H 0.55705 0.26997 0.87431 0.0
C575 C 0.5908 0.22765 0.82751 0.0
C576 C 0.56849 0.19131 0.82902 0.0
C577 C 0.58216 0.25082 0.83503 0.0
C578 C 0.54536 0.27795 0.86463 0.0
H579 H 0.47777 0.38718 0.84098 0.0
H580 H 0.47396 0.3302 0.84335 0.0
H581 H 0.54437 0.31736 0.87995 0.0
H582 H 0.52091 0.15069 0.84048 0.0
H583 H 0.50568 0.19172 0.85368 0.0
H584 H 0.51927 0.26186 0.82405 0.0
C585 C 0.49565 0.3526 0.84929 0.0
C586 C 0.53833 0.30513 0.86777 0.0
C587 C 0.49767 0.38517 0.84801 0.0
C588 C 0.53864 0.17859 0.83922 0.0
C589 C 0.52991 0.20192 0.84674 0.0
C590 C 0.52405 0.27332 0.8364 0.0
C591 C 0.52245 0.34946 0.85719 0.0
C592 C 0.52484 0.31718 0.85508 0.0
C593 C 0.55117 0.2381 0.84425 0.0
C594 C 0.5389 0.26249 0.84881 0.0
H595 H 0.57364 0.43428 0.86943 0.0
H596 H 0.57076 0.37771 0.87128 0.0
H597 H 0.50739 0.30925 0.82929 0.0
H598 H 0.6141 0.23811 0.81983 0.0
H599 H 0.59873 0.27869 0.83292 0.0
C600 C 0.50853 0.9351 0.49912 0.0
C601 C 0.53792 0.96698 0.50395 0.0
C602 C 0.50922 0.90362 0.49968 0.0
C603 C 0.57049 0.86825 0.50184 0.0
H604 H 0.4885 0.78365 0.51722 0.0
C605 C 0.57586 0.74651 0.5245 0.0
C606 C 0.54695 0.7129 0.52194 0.0
C607 C 0.57481 0.77647 0.51965 0.0
C608 C 0.51147 0.80683 0.51261 0.0
H609 H 0.59116 0.99028 0.51318 0.0
H610 H 0.59219 0.93558 0.51435 0.0
H611 H 0.48642 0.83768 0.51455 0.0
H612 H 0.49465 0.68428 0.51172 0.0
H613 H 0.49276 0.73678 0.503 0.0
H614 H 0.59573 0.83753 0.50019 0.0
C615 C 0.5687 0.93492 0.50987 0.0
C616 C 0.51031 0.83797 0.5111 0.0
C617 C 0.56803 0.9664 0.50931 0.0
C618 C 0.51747 0.70984 0.51366 0.0
C619 C 0.51626 0.73995 0.5089 0.0
C620 C 0.57166 0.83714 0.50336 0.0
C621 C 0.5393 0.903 0.50507 0.0
C622 C 0.53996 0.8693 0.5059 0.0
C623 C 0.54465 0.77374 0.51219 0.0
C624 C 0.54232 0.80605 0.50899 0.0
H625 H 0.48487 0.93436 0.49485 0.0
H626 H 0.4862 0.87978 0.49568 0.0
H627 H 0.59364 0.89153 0.49744 0.0
H628 H 0.59882 0.74966 0.53099 0.0
H629 H 0.59705 0.80185 0.52258 0.0
C630 C 0.67257 0.52818 0.83684 0.0
C631 C 0.67064 0.55696 0.83052 0.0
C632 C 0.7043 0.52815 0.83706 0.0
C633 C 0.80089 0.58693 0.83573 0.0
H634 H 0.80008 0.49958 0.82847 0.0
C635 C 0.92805 0.57681 0.83863 0.0
C636 C 0.92507 0.54842 0.84797 0.0
C637 C 0.89805 0.57861 0.8343 0.0
C638 C 0.80083 0.5242 0.83062 0.0
H639 H 0.70112 0.60839 0.81936 0.0
H640 H 0.75658 0.60821 0.8196 0.0
H641 H 0.74629 0.50168 0.8251 0.0
H642 H 0.88814 0.49898 0.85938 0.0
H643 H 0.83622 0.50192 0.8518 0.0
H644 H 0.85555 0.60928 0.84139 0.0
C645 C 0.73342 0.58572 0.82455 0.0
C646 C 0.76986 0.52541 0.82872 0.0
C647 C 0.70151 0.58574 0.82432 0.0
C648 C 0.89139 0.52129 0.85226 0.0
C649 C 0.86154 0.5229 0.8478 0.0
C650 C 0.83199 0.58574 0.83758 0.0
C651 C 0.73528 0.55687 0.83094 0.0
C652 C 0.76919 0.5566 0.83157 0.0
C653 C 0.86437 0.55181 0.83898 0.0
C654 C 0.83224 0.55416 0.83536 0.0
H655 H 0.64955 0.50556 0.84183 0.0
H656 H 0.7046 0.50572 0.84238 0.0
H657 H 0.80149 0.61138 0.83817 0.0
H658 H 0.95361 0.59824 0.83524 0.0
H659 H 0.90124 0.60112 0.82737 0.0
C660 C 0.14833 0.60002 0.16742 0.0
C661 C 0.11715 0.59679 0.17388 0.0
C662 C 0.17972 0.63226 0.16779 0.0
C663 C 0.21392 0.72832 0.1723 0.0
H664 H 0.30199 0.73214 0.18176 0.0
C665 C 0.33881 0.85654 0.19091 0.0
C666 C 0.37169 0.86249 0.18548 0.0
C667 C 0.3083 0.82477 0.18764 0.0
C668 C 0.27773 0.73157 0.17885 0.0
H669 H 0.09499 0.62528 0.18601 0.0
H670 H 0.14954 0.68106 0.18691 0.0
H671 H 0.24816 0.67554 0.18027 0.0
H672 H 0.39803 0.8399 0.17188 0.0
H673 H 0.34452 0.7842 0.16603 0.0
H674 H 0.24339 0.78434 0.17114 0.0
C675 C 0.14972 0.65886 0.18125 0.0
C676 C 0.24674 0.69902 0.17801 0.0
C677 C 0.11835 0.62666 0.18086 0.0
C678 C 0.3731 0.83623 0.17614 0.0
C679 C 0.34247 0.80417 0.17297 0.0
C680 C 0.24484 0.76082 0.17318 0.0
C681 C 0.18088 0.66225 0.17464 0.0
C682 C 0.21427 0.69689 0.17491 0.0
C683 C 0.30969 0.79783 0.17889 0.0
C684 C 0.27717 0.76298 0.17666 0.0
H685 H 0.14848 0.5777 0.16188 0.0
H686 H 0.20296 0.63379 0.1624 0.0
H687 H 0.18968 0.72788 0.1695 0.0
H688 H 0.33677 0.87628 0.19806 0.0
H689 H 0.28373 0.82089 0.19254 0.0
C690 C 0.50127 0.16048 0.4924 0.0
C691 C 0.53047 0.15873 0.49829 0.0
C692 C 0.50086 0.1922 0.49282 0.0
C693 C 0.54295 0.27772 0.51486 0.0
H694 H 0.50625 0.30905 0.47899 0.0
C695 C 0.56442 0.41699 0.51559 0.0
C696 C 0.53625 0.42187 0.51131 0.0
C697 C 0.56329 0.38531 0.51228 0.0
C698 C 0.51631 0.30055 0.4892 0.0
H699 H 0.58252 0.18969 0.50885 0.0
H700 H 0.58181 0.24432 0.50946 0.0
H701 H 0.50431 0.25261 0.47675 0.0
H702 H 0.48533 0.39778 0.49955 0.0
H703 H 0.48309 0.3419 0.49379 0.0
H704 H 0.55472 0.32508 0.52742 0.0
C705 C 0.55894 0.22118 0.50475 0.0
C706 C 0.51517 0.26814 0.48791 0.0
C707 C 0.5594 0.18969 0.50429 0.0
C708 C 0.50757 0.39486 0.50283 0.0
C709 C 0.5063 0.36283 0.49959 0.0
C710 C 0.54401 0.30988 0.51616 0.0
C711 C 0.52955 0.2229 0.49922 0.0
C712 C 0.52895 0.25652 0.50065 0.0
C713 C 0.53374 0.35727 0.50475 0.0
C714 C 0.53121 0.32212 0.50327 0.0
H715 H 0.47851 0.13726 0.48767 0.0
H716 H 0.47771 0.19245 0.48852 0.0
H717 H 0.55297 0.26936 0.52514 0.0
H718 H 0.58695 0.43742 0.52207 0.0
H719 H 0.58539 0.38255 0.51602 0.0
C720 C 0.46841 0.57986 0.83408 0.0
C721 C 0.47144 0.55084 0.83906 0.0
C722 C 0.43635 0.57925 0.83532 0.0
C723 C 0.34958 0.53181 0.85671 0.0
H724 H 0.32183 0.57746 0.82363 0.0
C725 C 0.21201 0.51526 0.85851 0.0
C726 C 0.20959 0.54571 0.85687 0.0
C727 C 0.24286 0.51536 0.85433 0.0
C728 C 0.32927 0.56477 0.83304 0.0
H729 H 0.44254 0.49815 0.84904 0.0
H730 H 0.38679 0.49681 0.85093 0.0
H731 H 0.37766 0.57872 0.82067 0.0
H732 H 0.23714 0.59982 0.84895 0.0
H733 H 0.29133 0.60009 0.84144 0.0
H734 H 0.30134 0.51782 0.86907 0.0
C735 C 0.40933 0.52045 0.84638 0.0
C736 C 0.36141 0.56556 0.83138 0.0
C737 C 0.44141 0.52112 0.84521 0.0
C738 C 0.23809 0.57582 0.85003 0.0
C739 C 0.26917 0.57596 0.84584 0.0
C740 C 0.3175 0.53088 0.85831 0.0
C741 C 0.40627 0.54956 0.84153 0.0
C742 C 0.37203 0.54898 0.84318 0.0
C743 C 0.27236 0.54604 0.84851 0.0
C744 C 0.30673 0.54719 0.84648 0.0
H745 H 0.49091 0.60327 0.8293 0.0
H746 H 0.43535 0.60238 0.83167 0.0
H747 H 0.35698 0.51947 0.86631 0.0
H748 H 0.19053 0.49179 0.86389 0.0
H749 H 0.24399 0.49161 0.85622 0.0
C750 C 0.92096 0.36758 0.16428 0.0
C751 C 0.92203 0.39993 0.16565 0.0
C752 C 0.88899 0.33591 0.16507 0.0
C753 C 0.79667 0.29965 0.17963 0.0
H754 H 0.78074 0.21708 0.15521 0.0
C755 C 0.66283 0.1727 0.18245 0.0
C756 C 0.66373 0.14186 0.18564 0.0
C757 C 0.69319 0.20336 0.17753 0.0
C758 C 0.78481 0.23987 0.16216 0.0
H759 H 0.88984 0.42408 0.16833 0.0
H760 H 0.8344 0.36933 0.16922 0.0
H761 H 0.83574 0.27213 0.15154 0.0
H762 H 0.69676 0.11855 0.18589 0.0
H763 H 0.74981 0.17188 0.17697 0.0
H764 H 0.74584 0.26749 0.19025 0.0
C765 C 0.85826 0.36817 0.16801 0.0
C766 C 0.81648 0.27151 0.16012 0.0
C767 C 0.89019 0.39975 0.16737 0.0
C768 C 0.6952 0.14177 0.18307 0.0
C769 C 0.7256 0.17241 0.17805 0.0
C770 C 0.765 0.26819 0.18157 0.0
C771 C 0.85711 0.33568 0.16713 0.0
C772 C 0.82299 0.30191 0.16888 0.0
C773 C 0.72528 0.20394 0.17576 0.0
C774 C 0.7586 0.23779 0.17292 0.0
H775 H 0.94492 0.36662 0.16303 0.0
H776 H 0.88945 0.31161 0.16454 0.0
H777 H 0.80075 0.32204 0.18694 0.0
H778 H 0.63907 0.17363 0.18469 0.0
H779 H 0.6918 0.22696 0.17566 0.0
C780 C 0.01242 0.47813 0.11453 0.0
C781 C 0.02763 0.5113 0.12204 0.0
C782 C 0.01559 0.47516 0.09732 0.0
C783 C 0.06792 0.51875 0.06064 0.0
H784 H 0.98068 0.47624 0.03597 0.0
C785 C 0.06514 0.54006 0.98993 0.0
C786 C 0.03826 0.51399 0.98027 0.0
C787 C 0.06496 0.53677 0.00726 0.0
C788 C 1.00536 0.48751 0.04257 0.0
H789 H 0.05949 0.56714 0.11783 0.0
H790 H 0.06606 0.56187 0.08785 0.0
H791 H 0.97954 0.47451 0.06631 0.0
H792 H 0.99077 0.46356 0.98091 0.0
H793 H 0.99114 0.4568 0.0111 0.0
H794 H 0.09398 0.53125 0.03708 0.0
C795 C 0.0513 0.53829 0.09519 0.0
C796 C 1.0046 0.4866 0.05999 0.0
C797 C 0.04743 0.54129 0.11228 0.0
C798 C 0.01158 0.48418 0.98817 0.0
C799 C 0.01176 0.48049 0.00548 0.0
C800 C 0.06874 0.51903 0.04321 0.0
C801 C 0.0348 0.50527 0.0875 0.0
C802 C 0.03585 0.50277 0.06915 0.0
C803 C 0.03824 0.50694 0.01532 0.0
C804 C 0.03745 0.50407 0.0339 0.0
H805 H 0.99697 0.45463 0.12182 0.0
H806 H 1.0027 0.44944 0.09162 0.0
H807 H 0.09236 0.53124 0.06749 0.0
H808 H 0.08584 0.56344 0.98409 0.0
H809 H 0.0854 0.55811 0.01432 0.0
C810 C 0.51693 0.04111 0.44899 0.0
C811 C 0.5472 0.07151 0.4542 0.0
C812 C 0.50955 0.03446 0.43194 0.0
C813 C 0.55526 0.06158 0.39093 0.0
H814 H 0.46128 0.00842 0.37312 0.0
C815 C 0.53299 0.01636 0.32271 0.0
C816 C 0.50506 0.0157 0.31405 0.0
C817 C 0.53623 0.02182 0.33992 0.0
C818 C 0.48773 0.02369 0.37783 0.0
H819 H 0.59226 0.11983 0.44607 0.0
H820 H 0.5785 0.10953 0.41657 0.0
H821 H 0.46961 0.02252 0.40272 0.0
H822 H 0.45859 0.02024 0.31643 0.0
H823 H 0.46498 0.03143 0.34641 0.0
H824 H 0.57353 0.06447 0.36607 0.0
C825 C 0.56119 0.08981 0.42536 0.0
C826 C 0.49251 0.03135 0.3949 0.0
C827 C 0.56894 0.09597 0.44229 0.0
C828 C 0.48027 0.02046 0.32289 0.0
C829 C 0.48386 0.02663 0.34009 0.0
C830 C 0.5505 0.05449 0.3739 0.0
C831 C 0.53203 0.05846 0.41988 0.0
C832 C 0.52639 0.05041 0.40169 0.0
C833 C 0.51201 0.02755 0.34884 0.0
C834 C 0.5167 0.03525 0.36708 0.0
H835 H 0.49999 0.02173 0.45801 0.0
H836 H 0.48702 0.0099 0.42826 0.0
H837 H 0.5818 0.07563 0.39564 0.0
H838 H 0.55215 0.01225 0.31617 0.0
H839 H 0.55772 0.02136 0.3462 0.0
C840 C 0.58209 0.56677 0.78003 0.0
C841 C 0.55332 0.53754 0.78729 0.0
C842 C 0.58366 0.57169 0.76271 0.0
C843 C 0.55188 0.52131 0.72425 0.0
H844 H 0.57105 0.6081 0.70295 0.0
C845 C 0.52835 0.5254 0.65445 0.0
C846 C 0.55247 0.55459 0.6452 0.0
C847 C 0.52979 0.52573 0.67181 0.0
C848 C 0.56616 0.58383 0.7087 0.0
H849 H 0.50329 0.49115 0.7823 0.0
H850 H 0.50628 0.49945 0.7522 0.0
H851 H 0.57208 0.60483 0.73342 0.0
H852 H 0.59657 0.60736 0.64684 0.0
H853 H 0.59964 0.60779 0.67733 0.0
H854 H 0.5464 0.50022 0.69978 0.0
C855 C 0.52766 0.51845 0.75981 0.0
C856 C 0.5667 0.58199 0.72613 0.0
C857 C 0.52591 0.51379 0.77704 0.0
C858 C 0.57758 0.58455 0.6537 0.0
C859 C 0.57926 0.58478 0.67114 0.0
C860 C 0.55168 0.52322 0.70691 0.0
C861 C 0.55669 0.54718 0.75244 0.0
C862 C 0.5589 0.55048 0.73404 0.0
C863 C 0.55565 0.55515 0.6804 0.0
C864 C 0.55812 0.55426 0.69889 0.0
H865 H 0.60354 0.5855 0.78769 0.0
H866 H 0.60635 0.59402 0.75732 0.0
H867 H 0.54644 0.49688 0.73003 0.0
H868 H 0.50829 0.50221 0.64822 0.0
H869 H 0.51054 0.50281 0.67851 0.0
C870 C 0.51673 0.09411 0.55675 0.0
C871 C 0.53286 0.08085 0.54628 0.0
C872 C 0.53059 0.1072 0.5725 0.0
C873 C 0.58451 0.09865 0.60491 0.0
H874 H 0.58199 0.17748 0.62489 0.0
C875 C 0.62915 0.13886 0.67228 0.0
C876 C 0.60573 0.14359 0.68232 0.0
C877 C 0.62604 0.13789 0.65495 0.0
C878 C 0.58279 0.15539 0.61948 0.0
H879 H 0.57654 0.07164 0.54375 0.0
H880 H 0.60114 0.095 0.57118 0.0
H881 H 0.56574 0.163 0.59563 0.0
H882 H 0.56179 0.15274 0.6821 0.0
H883 H 0.55615 0.15083 0.65181 0.0
H884 H 0.60065 0.09038 0.62876 0.0
C885 C 0.57751 0.09486 0.56735 0.0
C886 C 0.57346 0.14707 0.60274 0.0
C887 C 0.56357 0.08167 0.55162 0.0
C888 C 0.58039 0.14934 0.67466 0.0
C889 C 0.57719 0.14826 0.65731 0.0
C890 C 0.59385 0.10696 0.6216 0.0
C891 C 0.5609 0.10731 0.57806 0.0
C892 C 0.57373 0.11828 0.59535 0.0
C893 C 0.59935 0.14151 0.64729 0.0
C894 C 0.59264 0.13511 0.62914 0.0
H895 H 0.49303 0.0938 0.5529 0.0
H896 H 0.5169 0.11616 0.58052 0.0
H897 H 0.58443 0.07594 0.5997 0.0
H898 H 0.64931 0.13494 0.67786 0.0
H899 H 0.64395 0.13336 0.64756 0.0
C900 C 0.61716 0.58891 0.89034 0.0
C901 C 0.58963 0.56689 0.87969 0.0
C902 C 0.61584 0.58089 0.90725 0.0
C903 C 0.59026 0.57023 0.94318 0.0
H904 H 0.56152 0.47683 0.95952 0.0
C905 C 0.53725 0.52449 0.00921 0.0
C906 C 0.5514 0.5073 0.01833 0.0
C907 C 0.54507 0.53184 0.99235 0.0
C908 C 0.56987 0.50307 0.9551 0.0
H909 H 0.53971 0.51875 0.8781 0.0
H910 H 0.53753 0.50452 0.90772 0.0
H911 H 0.56994 0.48894 0.92952 0.0
H912 H 0.58458 0.48409 0.01708 0.0
H913 H 0.59785 0.49648 0.98727 0.0
H914 H 0.58933 0.58419 0.96865 0.0
C915 C 0.5601 0.52793 0.90298 0.0
C916 C 0.57443 0.50992 0.93799 0.0
C917 C 0.56125 0.53616 0.88609 0.0
C918 C 0.57344 0.49744 0.01028 0.0
C919 C 0.58086 0.50435 0.99329 0.0
C920 C 0.58527 0.56328 0.96022 0.0
C921 C 0.58714 0.55051 0.91375 0.0
C922 C 0.58438 0.5435 0.93188 0.0
C923 C 0.56688 0.52181 0.98423 0.0
C924 C 0.57467 0.52957 0.96631 0.0
H925 H 0.63943 0.61267 0.88567 0.0
H926 H 0.63714 0.59856 0.91528 0.0
H927 H 0.59766 0.59627 0.93878 0.0
H928 H 0.52047 0.53267 0.01519 0.0
H929 H 0.53374 0.54507 0.9856 0.0
C930 C 1.00607 0.51396 0.22083 0.0
C931 C 1.00596 0.48359 0.21547 0.0
C932 C 0.99686 0.51655 0.23723 0.0
C933 C 0.99663 0.48279 0.27878 0.0
H934 H 0.93796 0.52176 0.29096 0.0
C935 C 0.9662 0.49164 0.34728 0.0
C936 C 0.96867 0.52326 0.35248 0.0
C937 C 0.96511 0.48386 0.33036 0.0
C938 C 0.9546 0.51106 0.28776 0.0
H939 H 0.99503 0.4317 0.2227 0.0
H940 H 0.97917 0.4363 0.25135 0.0
H941 H 0.94725 0.51435 0.26152 0.0
H942 H 0.96963 0.57042 0.34389 0.0
H943 H 0.96928 0.55754 0.31436 0.0
H944 H 1.00512 0.48046 0.3048 0.0
C945 C 0.98663 0.45819 0.24296 0.0
C946 C 0.95985 0.50679 0.27092 0.0
C947 C 0.99562 0.45553 0.22658 0.0
C948 C 0.96841 0.54614 0.34033 0.0
C949 C 0.96771 0.53852 0.32337 0.0
C950 C 0.99165 0.48729 0.29555 0.0
C951 C 0.98762 0.48888 0.24853 0.0
C952 C 0.98097 0.49265 0.26629 0.0
C953 C 0.96695 0.50768 0.31819 0.0
C954 C 0.97062 0.50152 0.30028 0.0
H955 H 0.01382 0.5359 0.21245 0.0
H956 H 0.99807 0.5406 0.24123 0.0
H957 H 0.01357 0.47241 0.27558 0.0
H958 H 0.96665 0.47346 0.35622 0.0
H959 H 0.96376 0.45951 0.32681 0.0
loop_
_geom_bond_atom_site_label_1
_geom_bond_atom_site_label_2
_geom_bond_distance
_geom_bond_site_symmetry_2
_ccdc_geom_bond_type
Dy0 O4 2.398 . S
Dy0 O5 2.491 . S
Dy0 O6 2.403 . S
Dy0 O7 2.664 . S
Dy0 O11 2.326 . S
Dy0 O15 2.310 . S
Dy0 O16 2.337 1_455 S
C1 O12 1.185 . S
C1 O13 1.355 . S
C2 O4 1.185 . S
C2 O5 1.355 . S
Dy3 O7 2.310 . S
Dy3 O10 2.351 . S
Dy3 O12 2.398 1_455 S
Dy3 O13 2.491 1_455 S
Dy3 O14 2.403 . S
Dy3 O15 2.664 . S
Dy3 O17 2.326 1_455 S
O4 Dy0 2.398 . S
O4 C2 1.185 . S
O5 Dy0 2.491 . S
O5 C2 1.355 . S
O6 Dy0 2.403 . S
O6 C8 1.254 . S
O7 Dy0 2.664 . S
O7 Dy3 2.310 . S
O7 C8 1.268 . S
C8 O6 1.254 . S
C8 O7 1.268 . S
C9 O14 1.254 . S
C9 O15 1.268 . S
O10 Dy3 2.351 . S
O10 C18 1.249 . S
O11 Dy0 2.326 . S
O11 C18 1.267 . S
O12 C1 1.185 . S
O12 Dy3 2.398 1_655 S
O13 C1 1.355 . S
O13 Dy3 2.491 1_655 S
O14 Dy3 2.403 . S
O14 C9 1.254 . S
O15 Dy0 2.310 . S
O15 Dy3 2.664 . S
O15 C9 1.268 . S
O16 Dy0 2.337 1_655 S
O16 C19 1.268 . S
O17 Dy3 2.326 1_655 S
O17 C19 1.267 . S
C18 O10 1.249 . S
C18 O11 1.267 . S
C19 O16 1.268 . S
C19 O17 1.267 . S
Dy20 O24 2.398 1_545 S
Dy20 O25 2.491 1_545 S
Dy20 O26 2.403 . S
Dy20 O27 2.664 . S
Dy20 O31 2.326 1_545 S
Dy20 O35 2.310 . S
Dy20 O36 2.351 . S
C21 O32 1.185 . S
C21 O33 1.355 . S
C22 O24 1.185 . S
C22 O25 1.355 . S
Dy23 O27 2.310 . S
Dy23 O30 2.351 . S
Dy23 O32 2.398 . S
Dy23 O33 2.491 . S
Dy23 O34 2.403 . S
Dy23 O35 2.664 . S
Dy23 O37 2.326 . S
O24 Dy20 2.398 1_565 S
O24 C22 1.185 . S
O25 Dy20 2.491 1_565 S
O25 C22 1.355 . S
O26 Dy20 2.403 . S
O26 C28 1.254 . S
O27 Dy20 2.664 . S
O27 Dy23 2.310 . S
O27 C28 1.268 . S
C28 O26 1.254 . S
C28 O27 1.268 . S
C29 O34 1.254 . S
C29 O35 1.268 . S
O30 Dy23 2.351 . S
O30 C38 1.249 1_545 S
O31 Dy20 2.326 1_565 S
O31 C38 1.267 . S
O32 C21 1.185 . S
O32 Dy23 2.398 . S
O33 C21 1.355 . S
O33 Dy23 2.491 . S
O34 Dy23 2.403 . S
O34 C29 1.254 . S
O35 Dy20 2.310 . S
O35 Dy23 2.664 . S
O35 C29 1.268 . S
O36 Dy20 2.351 . S
O36 C39 1.249 . S
O37 Dy23 2.326 . S
O37 C39 1.267 . S
C38 O30 1.249 1_565 S
C38 O31 1.267 . S
C39 O36 1.249 . S
C39 O37 1.267 . S
Dy40 O44 2.398 . S
Dy40 O45 2.491 . S
Dy40 O46 2.403 . S
Dy40 O47 2.664 . S
Dy40 O51 2.326 . S
Dy40 O55 2.310 . S
Dy40 O56 2.351 . S
C41 O52 1.185 . S
C41 O53 1.355 . S
C42 O44 1.185 . S
C42 O45 1.355 . S
Dy43 O47 2.310 . S
Dy43 O50 2.351 . S
Dy43 O52 2.398 . S
Dy43 O53 2.491 . S
Dy43 O54 2.403 . S
Dy43 O55 2.664 . S
Dy43 O57 2.326 . S
O44 Dy40 2.398 . S
O44 C42 1.185 . S
O45 Dy40 2.491 . S
O45 C42 1.355 . S
O46 Dy40 2.403 . S
O46 C48 1.254 . S
O47 Dy40 2.664 . S
O47 Dy43 2.310 . S
O47 C48 1.268 . S
C48 O46 1.254 . S
C48 O47 1.268 . S
C49 O54 1.254 . S
C49 O55 1.268 . S
O50 Dy43 2.351 . S
O50 C58 1.249 . S
O51 Dy40 2.326 . S
O51 C58 1.267 . S
O52 C41 1.185 . S
O52 Dy43 2.398 . S
O53 C41 1.355 . S
O53 Dy43 2.491 . S
O54 Dy43 2.403 . S
O54 C49 1.254 . S
O55 Dy40 2.310 . S
O55 Dy43 2.664 . S
O55 C49 1.268 . S
O56 Dy40 2.351 . S
O56 C59 1.249 . S
O57 Dy43 2.326 . S
O57 C59 1.267 . S
C58 O50 1.249 . S
C58 O51 1.267 . S
C59 O56 1.249 . S
C59 O57 1.267 . S
C60 C61 1.391 . S
C60 C64 1.391 . S
C60 H102 0.948 . S
C61 C60 1.391 . S
C61 C62 1.391 . S
C62 C61 1.391 . S
C62 H118 0.947 . S
C62 C119 1.392 . S
C63 C64 1.391 . S
C63 C67 1.397 . S
C63 C119 1.419 . S
C64 C60 1.391 . S
C64 C63 1.391 . S
C64 C65 1.399 . S
C65 C64 1.399 . S
C65 C68 1.396 . S
C65 C77 1.453 . S
C65 C78 1.684 . S
H66 C90 0.948 . S
C67 C63 1.397 . S
C67 C68 1.394 . S
C67 C86 1.723 . S
C68 C65 1.396 . S
C68 C67 1.394 . S
C68 C98 1.723 1_545 S
H69 C92 0.947 . S
H70 C93 0.948 . S
H71 C99 0.982 . S
H72 C100 0.979 . S
H73 C100 0.980 . S
H74 C100 0.983 . S
H75 C99 0.979 . S
H76 C99 0.977 . S
C77 C65 1.453 . S
C77 H106 0.982 . S
C77 H107 0.979 . S
C77 H108 0.977 1_545 S
C78 C65 1.684 . S
C78 H103 0.979 . S
C78 H104 0.980 . S
C78 H105 0.983 . S
C79 C80 1.391 . S
C79 C84 1.391 . S
C79 H109 0.948 . S
C80 C79 1.391 . S
C80 C81 1.391 1_545 S
C81 C80 1.391 1_565 S
C81 C82 1.392 . S
C81 H110 0.947 . S
C82 C81 1.392 . S
C82 C83 1.419 1_565 S
C82 H111 0.948 . S
C83 C82 1.419 1_545 S
C83 C84 1.391 . S
C83 C87 1.397 . S
C84 C79 1.391 . S
C84 C83 1.391 . S
C84 C85 1.399 . S
C85 C84 1.399 . S
C85 C86 1.396 . S
C85 C88 1.453 . S
C85 C89 1.684 . S
C86 C67 1.723 . S
C86 C85 1.396 . S
C86 C87 1.394 . S
C87 C83 1.397 . S
C87 C86 1.394 . S
C87 C97 1.723 1_545 S
C88 C85 1.453 . S
C88 H112 0.982 . S
C88 H113 0.979 . S
C88 H114 0.977 . S
C89 C85 1.684 . S
C89 H115 0.979 . S
C89 H116 0.980 . S
C89 H117 0.983 . S
C90 H66 0.948 . S
C90 C91 1.391 . S
C90 C95 1.391 . S
C91 C90 1.391 . S
C91 C92 1.391 . S
C92 H69 0.947 . S
C92 C91 1.391 . S
C92 C93 1.392 . S
C93 H70 0.948 . S
C93 C92 1.392 . S
C93 C94 1.419 . S
C94 C93 1.419 . S
C94 C95 1.391 . S
C94 C98 1.397 . S
C95 C90 1.391 . S
C95 C94 1.391 . S
C95 C96 1.399 . S
C96 C95 1.399 . S
C96 C97 1.396 . S
C96 C99 1.453 . S
C96 C100 1.684 . S
C97 C87 1.723 1_565 S
C97 C96 1.396 . S
C97 C98 1.394 . S
C98 C68 1.723 1_565 S
C98 C94 1.397 . S
C98 C97 1.394 . S
C99 H71 0.982 . S
C99 H75 0.979 . S
C99 H76 0.977 . S
C99 C96 1.453 . S
C100 H72 0.979 . S
C100 H73 0.980 . S
C100 H74 0.983 . S
C100 C96 1.684 . S
H101 C119 0.948 . S
H102 C60 0.948 . S
H103 C78 0.979 . S
H104 C78 0.980 . S
H105 C78 0.983 . S
H106 C77 0.982 . S
H107 C77 0.979 . S
H108 C77 0.977 1_565 S
H109 C79 0.948 . S
H110 C81 0.947 . S
H111 C82 0.948 . S
H112 C88 0.982 . S
H113 C88 0.979 . S
H114 C88 0.977 . S
H115 C89 0.979 . S
H116 C89 0.980 . S
H117 C89 0.983 . S
H118 C62 0.947 . S
C119 C62 1.392 . S
C119 C63 1.419 . S
C119 H101 0.948 . S
C120 C121 1.391 . S
C120 C124 1.391 . S
C120 H162 0.948 . S
C121 C120 1.391 . S
C121 C122 1.391 . S
C122 C121 1.391 . S
C122 H178 0.947 . S
C122 C179 1.392 . S
C123 C124 1.391 . S
C123 C127 1.397 . S
C123 C179 1.419 . S
C124 C120 1.391 . S
C124 C123 1.391 . S
C124 C125 1.399 . S
C125 C124 1.399 . S
C125 C128 1.396 . S
C125 C137 1.453 . S
C125 C138 1.684 . S
H126 C150 0.948 . S
C127 C123 1.397 . S
C127 C128 1.394 . S
C127 C146 1.723 . S
C128 C125 1.396 . S
C128 C127 1.394 . S
C128 C158 1.723 . S
H129 C152 0.947 . S
H130 C153 0.948 . S
H131 C159 0.982 . S
H132 C160 0.979 . S
H133 C160 0.980 . S
H134 C160 0.983 . S
H135 C159 0.979 . S
H136 C159 0.977 . S
C137 C125 1.453 . S
C137 H166 0.982 . S
C137 H167 0.979 . S
C137 H168 0.977 . S
C138 C125 1.684 . S
C138 H163 0.979 . S
C138 H164 0.980 . S
C138 H165 0.983 . S
C139 C140 1.391 . S
C139 C144 1.391 . S
C139 H169 0.948 . S
C140 C139 1.391 . S
C140 C141 1.391 . S
C141 C140 1.391 . S
C141 C142 1.392 . S
C141 H170 0.947 . S
C142 C141 1.392 . S
C142 C143 1.419 . S
C142 H171 0.948 . S
C143 C142 1.419 . S
C143 C144 1.391 . S
C143 C147 1.397 . S
C144 C139 1.391 . S
C144 C143 1.391 . S
C144 C145 1.399 . S
C145 C144 1.399 . S
C145 C146 1.396 . S
C145 C148 1.453 . S
C145 C149 1.684 . S
C146 C127 1.723 . S
C146 C145 1.396 . S
C146 C147 1.394 . S
C147 C143 1.397 . S
C147 C146 1.394 . S
C147 C157 1.723 . S
C148 C145 1.453 . S
C148 H172 0.982 . S
C148 H173 0.979 . S
C148 H174 0.977 . S
C149 C145 1.684 . S
C149 H175 0.979 . S
C149 H176 0.980 . S
C149 H177 0.983 . S
C150 H126 0.948 . S
C150 C151 1.391 . S
C150 C155 1.391 . S
C151 C150 1.391 . S
C151 C152 1.391 . S
C152 H129 0.947 . S
C152 C151 1.391 . S
C152 C153 1.392 . S
C153 H130 0.948 . S
C153 C152 1.392 . S
C153 C154 1.419 . S
C154 C153 1.419 . S
C154 C155 1.391 . S
C154 C158 1.397 . S
C155 C150 1.391 . S
C155 C154 1.391 . S
C155 C156 1.399 . S
C156 C155 1.399 . S
C156 C157 1.396 . S
C156 C159 1.453 . S
C156 C160 1.684 . S
C157 C147 1.723 . S
C157 C156 1.396 . S
C157 C158 1.394 . S
C158 C128 1.723 . S
C158 C154 1.397 . S
C158 C157 1.394 . S
C159 H131 0.982 . S
C159 H135 0.979 . S
C159 H136 0.977 . S
C159 C156 1.453 . S
C160 H132 0.979 . S
C160 H133 0.980 . S
C160 H134 0.983 . S
C160 C156 1.684 . S
H161 C179 0.948 . S
H162 C120 0.948 . S
H163 C138 0.979 . S
H164 C138 0.980 . S
H165 C138 0.983 . S
H166 C137 0.982 . S
H167 C137 0.979 . S
H168 C137 0.977 . S
H169 C139 0.948 . S
H170 C141 0.947 . S
H171 C142 0.948 . S
H172 C148 0.982 . S
H173 C148 0.979 . S
H174 C148 0.977 . S
H175 C149 0.979 . S
H176 C149 0.980 . S
H177 C149 0.983 . S
H178 C122 0.947 . S
C179 C122 1.392 . S
C179 C123 1.419 . S
C179 H161 0.948 . S
C180 C181 1.391 . S
C180 C184 1.391 . S
C180 H222 0.948 . S
C181 C180 1.391 . S
C181 C182 1.391 . S
C182 C181 1.391 . S
C182 H238 0.947 . S
C182 C239 1.392 . S
C183 C184 1.391 . S
C183 C187 1.397 . S
C183 C239 1.419 . S
C184 C180 1.391 . S
C184 C183 1.391 . S
C184 C185 1.399 . S
C185 C184 1.399 . S
C185 C188 1.396 . S
C185 C197 1.453 . S
C185 C198 1.684 . S
H186 C210 0.948 . S
C187 C183 1.397 . S
C187 C188 1.394 . S
C187 C206 1.723 . S
C188 C185 1.396 . S
C188 C187 1.394 . S
C188 C218 1.723 . S
H189 C212 0.947 . S
H190 C213 0.948 . S
H191 C219 0.982 . S
H192 C220 0.979 1_455 S
H193 C220 0.980 . S
H194 C220 0.983 . S
H195 C219 0.979 . S
H196 C219 0.977 . S
C197 C185 1.453 . S
C197 H226 0.982 . S
C197 H227 0.979 . S
C197 H228 0.977 . S
C198 C185 1.684 . S
C198 H223 0.979 . S
C198 H224 0.980 . S
C198 H225 0.983 . S
C199 C200 1.391 . S
C199 C204 1.391 . S
C199 H229 0.948 . S
C200 C199 1.391 . S
C200 C201 1.391 . S
C201 C200 1.391 . S
C201 C202 1.392 . S
C201 H230 0.947 . S
C202 C201 1.392 . S
C202 C203 1.419 . S
C202 H231 0.948 . S
C203 C202 1.419 . S
C203 C204 1.391 . S
C203 C207 1.397 . S
C204 C199 1.391 . S
C204 C203 1.391 . S
C204 C205 1.399 . S
C205 C204 1.399 . S
C205 C206 1.396 . S
C205 C208 1.453 . S
C205 C209 1.684 . S
C206 C187 1.723 . S
C206 C205 1.396 . S
C206 C207 1.394 . S
C207 C203 1.397 . S
C207 C206 1.394 . S
C207 C217 1.723 . S
C208 C205 1.453 . S
C208 H232 0.982 . S
C208 H233 0.979 . S
C208 H234 0.977 . S
C209 C205 1.684 . S
C209 H235 0.979 . S
C209 H236 0.980 . S
C209 H237 0.983 . S
C210 H186 0.948 . S
C210 C211 1.391 . S
C210 C215 1.391 . S
C211 C210 1.391 . S
C211 C212 1.391 . S
C212 H189 0.947 . S
C212 C211 1.391 . S
C212 C213 1.392 1_655 S
C213 H190 0.948 . S
C213 C212 1.392 1_455 S
C213 C214 1.419 . S
C214 C213 1.419 . S
C214 C215 1.391 1_455 S
C214 C218 1.397 . S
C215 C210 1.391 . S
C215 C214 1.391 1_655 S
C215 C216 1.399 . S
C216 C215 1.399 . S
C216 C217 1.396 1_655 S
C216 C219 1.453 . S
C216 C220 1.684 . S
C217 C207 1.723 . S
C217 C216 1.396 1_455 S
C217 C218 1.394 . S
C218 C188 1.723 . S
C218 C214 1.397 . S
C218 C217 1.394 . S
C219 H191 0.982 . S
C219 H195 0.979 . S
C219 H196 0.977 . S
C219 C216 1.453 . S
C220 H192 0.979 1_655 S
C220 H193 0.980 . S
C220 H194 0.983 . S
C220 C216 1.684 . S
H221 C239 0.948 . S
H222 C180 0.948 . S
H223 C198 0.979 . S
H224 C198 0.980 . S
H225 C198 0.983 . S
H226 C197 0.982 . S
H227 C197 0.979 . S
H228 C197 0.977 . S
H229 C199 0.948 . S
H230 C201 0.947 . S
H231 C202 0.948 . S
H232 C208 0.982 . S
H233 C208 0.979 . S
H234 C208 0.977 . S
H235 C209 0.979 . S
H236 C209 0.980 . S
H237 C209 0.983 . S
H238 C182 0.947 . S
C239 C182 1.392 . S
C239 C183 1.419 . S
C239 H221 0.948 . S
C240 C241 1.391 . S
C240 C244 1.391 . S
C240 H282 0.948 . S
C241 C240 1.391 . S
C241 C242 1.391 . S
C242 C241 1.391 . S
C242 H298 0.947 . S
C242 C299 1.392 . S
C243 C244 1.391 . S
C243 C247 1.397 . S
C243 C299 1.419 . S
C244 C240 1.391 . S
C244 C243 1.391 . S
C244 C245 1.399 . S
C245 C244 1.399 . S
C245 C248 1.396 . S
C245 C257 1.451 1_655 S
C245 C258 1.684 . S
H246 C270 0.948 . S
C247 C243 1.397 . S
C247 C248 1.394 . S
C247 C266 1.723 . S
C248 C245 1.396 . S
C248 C247 1.394 . S
C248 C278 1.723 1_655 S
H249 C272 0.947 . S
H250 C273 0.948 . S
H251 C279 0.982 . S
H252 C280 0.979 . S
H253 C280 0.980 . S
H254 C280 0.983 . S
H255 C279 0.979 . S
H256 C279 0.977 . S
C257 C245 1.451 1_455 S
C257 H286 0.984 . S
C257 H287 0.978 1_455 S
C257 H288 0.978 . S
C258 C245 1.684 . S
C258 H283 0.979 . S
C258 H284 0.980 . S
C258 H285 0.983 . S
C259 C260 1.391 1_655 S
C259 C264 1.391 . S
C259 H289 0.948 . S
C260 C259 1.391 1_455 S
C260 C261 1.391 . S
C261 C260 1.391 . S
C261 C262 1.392 . S
C261 H290 0.947 . S
C262 C261 1.392 . S
C262 C263 1.419 . S
C262 H291 0.948 . S
C263 C262 1.419 . S
C263 C264 1.391 1_455 S
C263 C267 1.397 . S
C264 C259 1.391 . S
C264 C263 1.391 1_655 S
C264 C265 1.399 . S
C265 C264 1.399 . S
C265 C266 1.396 . S
C265 C268 1.453 . S
C265 C269 1.684 . S
C266 C247 1.723 . S
C266 C265 1.396 . S
C266 C267 1.394 1_655 S
C267 C263 1.397 . S
C267 C266 1.394 1_455 S
C267 C277 1.723 . S
C268 C265 1.453 . S
C268 H292 0.982 . S
C268 H293 0.979 . S
C268 H294 0.977 . S
C269 C265 1.684 . S
C269 H295 0.979 . S
C269 H296 0.980 . S
C269 H297 0.983 . S
C270 H246 0.948 . S
C270 C271 1.391 . S
C270 C275 1.391 . S
C271 C270 1.391 . S
C271 C272 1.391 . S
C272 H249 0.947 . S
C272 C271 1.391 . S
C272 C273 1.392 . S
C273 H250 0.948 . S
C273 C272 1.392 . S
C273 C274 1.419 . S
C274 C273 1.419 . S
C274 C275 1.391 . S
C274 C278 1.397 . S
C275 C270 1.391 . S
C275 C274 1.391 . S
C275 C276 1.399 . S
C276 C275 1.399 . S
C276 C277 1.396 . S
C276 C279 1.453 . S
C276 C280 1.684 . S
C277 C267 1.723 . S
C277 C276 1.396 . S
C277 C278 1.394 . S
C278 C248 1.723 1_455 S
C278 C274 1.397 . S
C278 C277 1.394 . S
C279 H251 0.982 . S
C279 H255 0.979 . S
C279 H256 0.977 . S
C279 C276 1.453 . S
C280 H252 0.979 . S
C280 H253 0.980 . S
C280 H254 0.983 . S
C280 C276 1.684 . S
H281 C299 0.948 . S
H282 C240 0.948 . S
H283 C258 0.979 . S
H284 C258 0.980 . S
H285 C258 0.983 . S
H286 C257 0.984 . S
H287 C257 0.978 1_655 S
H288 C257 0.978 . S
H289 C259 0.948 . S
H290 C261 0.947 . S
H291 C262 0.948 . S
H292 C268 0.982 . S
H293 C268 0.979 . S
H294 C268 0.977 . S
H295 C269 0.979 . S
H296 C269 0.980 . S
H297 C269 0.983 . S
H298 C242 0.947 . S
C299 C242 1.392 . S
C299 C243 1.419 . S
C299 H281 0.948 . S
C300 C301 1.391 . S
C300 C304 1.391 1_565 S
C300 H342 0.948 . S
C301 C300 1.391 . S
C301 C302 1.391 . S
C302 C301 1.391 . S
C302 H358 0.947 . S
C302 C359 1.392 . S
C303 C304 1.394 . S
C303 C307 1.427 . S
C303 C359 1.390 1_545 S
C304 C300 1.391 1_545 S
C304 C303 1.394 . S
C304 C305 1.399 . S
C305 C304 1.399 . S
C305 C308 1.396 . S
C305 C317 1.453 . S
C305 C318 1.684 . S
H306 C330 0.948 . S
C307 C303 1.427 . S
C307 C308 1.394 . S
C307 C326 1.723 . S
C308 C305 1.396 . S
C308 C307 1.394 . S
C308 C338 1.723 . S
H309 C332 0.947 . S
H310 C333 0.948 . S
H311 C339 0.982 . S
H312 C340 0.979 . S
H313 C340 0.980 . S
H314 C340 0.983 . S
H315 C339 0.979 . S
H316 C339 0.977 . S
C317 C305 1.453 . S
C317 H346 0.982 . S
C317 H347 0.979 . S
C317 H348 0.977 . S
C318 C305 1.684 . S
C318 H343 0.979 . S
C318 H344 0.980 . S
C318 H345 0.983 . S
C319 C320 1.391 . S
C319 C324 1.391 . S
C319 H349 0.948 . S
C320 C319 1.391 . S
C320 C321 1.391 . S
C321 C320 1.391 . S
C321 C322 1.392 . S
C321 H350 0.947 . S
C322 C321 1.392 . S
C322 C323 1.419 . S
C322 H351 0.948 . S
C323 C322 1.419 . S
C323 C324 1.391 . S
C323 C327 1.397 . S
C324 C319 1.391 . S
C324 C323 1.391 . S
C324 C325 1.399 . S
C325 C324 1.399 . S
C325 C326 1.396 . S
C325 C328 1.453 . S
C325 C329 1.684 1_545 S
C326 C307 1.723 . S
C326 C325 1.396 . S
C326 C327 1.394 . S
C327 C323 1.397 . S
C327 C326 1.394 . S
C327 C337 1.723 . S
C328 C325 1.453 . S
C328 H352 0.982 . S
C328 H353 0.979 1_545 S
C328 H354 0.977 1_545 S
C329 C325 1.684 1_565 S
C329 H355 0.979 . S
C329 H356 0.980 . S
C329 H357 0.983 . S
C330 H306 0.948 . S
C330 C331 1.391 . S
C330 C335 1.391 . S
C331 C330 1.391 . S
C331 C332 1.391 . S
C332 H309 0.947 . S
C332 C331 1.391 . S
C332 C333 1.392 . S
C333 H310 0.948 . S
C333 C332 1.392 . S
C333 C334 1.419 . S
C334 C333 1.419 . S
C334 C335 1.391 . S
C334 C338 1.397 . S
C335 C330 1.391 . S
C335 C334 1.391 . S
C335 C336 1.399 . S
C336 C335 1.399 . S
C336 C337 1.396 . S
C336 C339 1.453 . S
C336 C340 1.684 . S
C337 C327 1.723 . S
C337 C336 1.396 . S
C337 C338 1.394 . S
C338 C308 1.723 . S
C338 C334 1.397 . S
C338 C337 1.394 . S
C339 H311 0.982 . S
C339 H315 0.979 . S
C339 H316 0.977 . S
C339 C336 1.453 . S
C340 H312 0.979 . S
C340 H313 0.980 . S
C340 H314 0.983 . S
C340 C336 1.684 . S
H341 C359 0.948 . S
H342 C300 0.948 . S
H343 C318 0.979 . S
H344 C318 0.980 . S
H345 C318 0.983 . S
H346 C317 0.982 . S
H347 C317 0.979 . S
H348 C317 0.977 . S
H349 C319 0.948 . S
H350 C321 0.947 . S
H351 C322 0.948 . S
H352 C328 0.982 . S
H353 C328 0.979 1_565 S
H354 C328 0.977 1_565 S
H355 C329 0.979 . S
H356 C329 0.980 . S
H357 C329 0.983 . S
H358 C302 0.947 . S
C359 C302 1.392 . S
C359 C303 1.390 1_565 S
C359 H341 0.948 . S
C360 C361 1.391 . S
C360 C364 1.391 . S
C360 H402 0.948 . S
C361 C360 1.391 . S
C361 C362 1.391 . S
C362 C361 1.391 . S
C362 H418 0.947 . S
C362 C419 1.392 . S
C363 C364 1.391 . S
C363 C367 1.397 . S
C363 C419 1.419 . S
C364 C360 1.391 . S
C364 C363 1.391 . S
C364 C365 1.399 . S
C365 C364 1.399 . S
C365 C368 1.396 . S
C365 C377 1.453 . S
C365 C378 1.684 . S
H366 C390 0.948 . S
C367 C363 1.397 . S
C367 C368 1.394 . S
C367 C386 1.723 . S
C368 C365 1.396 . S
C368 C367 1.394 . S
C368 C398 1.723 . S
H369 C392 0.947 . S
H370 C393 0.948 . S
H371 C399 0.982 . S
H372 C400 0.979 . S
H373 C400 0.980 . S
H374 C400 0.983 . S
H375 C399 0.979 . S
H376 C399 0.977 . S
C377 C365 1.453 . S
C377 H406 0.982 . S
C377 H407 0.979 . S
C377 H408 0.977 . S
C378 C365 1.684 . S
C378 H403 0.979 . S
C378 H404 0.980 . S
C378 H405 0.983 . S
C379 C380 1.391 . S
C379 C384 1.391 . S
C379 H409 0.948 . S
C380 C379 1.391 . S
C380 C381 1.391 . S
C381 C380 1.391 . S
C381 C382 1.392 . S
C381 H410 0.947 . S
C382 C381 1.392 . S
C382 C383 1.419 . S
C382 H411 0.948 . S
C383 C382 1.419 . S
C383 C384 1.391 . S
C383 C387 1.397 . S
C384 C379 1.391 . S
C384 C383 1.391 . S
C384 C385 1.399 . S
C385 C384 1.399 . S
C385 C386 1.396 . S
C385 C388 1.453 . S
C385 C389 1.684 . S
C386 C367 1.723 . S
C386 C385 1.396 . S
C386 C387 1.394 . S
C387 C383 1.397 . S
C387 C386 1.394 . S
C387 C397 1.723 . S
C388 C385 1.453 . S
C388 H412 0.982 . S
C388 H413 0.979 . S
C388 H414 0.977 . S
C389 C385 1.684 . S
C389 H415 0.979 . S
C389 H416 0.980 . S
C389 H417 0.983 . S
C390 H366 0.948 . S
C390 C391 1.391 . S
C390 C395 1.391 . S
C391 C390 1.391 . S
C391 C392 1.391 . S
C392 H369 0.947 . S
C392 C391 1.391 . S
C392 C393 1.392 . S
C393 H370 0.948 . S
C393 C392 1.392 . S
C393 C394 1.419 . S
C394 C393 1.419 . S
C394 C395 1.391 . S
C394 C398 1.397 . S
C395 C390 1.391 . S
C395 C394 1.391 . S
C395 C396 1.399 . S
C396 C395 1.399 . S
C396 C397 1.396 . S
C396 C399 1.453 . S
C396 C400 1.684 . S
C397 C387 1.723 . S
C397 C396 1.396 . S
C397 C398 1.394 . S
C398 C368 1.723 . S
C398 C394 1.397 . S
C398 C397 1.394 . S
C399 H371 0.982 . S
C399 H375 0.979 . S
C399 H376 0.977 . S
C399 C396 1.453 . S
C400 H372 0.979 . S
C400 H373 0.980 . S
C400 H374 0.983 . S
C400 C396 1.684 . S
H401 C419 0.948 . S
H402 C360 0.948 . S
H403 C378 0.979 . S
H404 C378 0.980 . S
H405 C378 0.983 . S
H406 C377 0.982 . S
H407 C377 0.979 . S
H408 C377 0.977 . S
H409 C379 0.948 . S
H410 C381 0.947 . S
H411 C382 0.948 . S
H412 C388 0.982 . S
H413 C388 0.979 . S
H414 C388 0.977 . S
H415 C389 0.979 . S
H416 C389 0.980 . S
H417 C389 0.983 . S
H418 C362 0.947 . S
C419 C362 1.392 . S
C419 C363 1.419 . S
C419 H401 0.948 . S
C420 C421 1.349 . S
C420 C422 1.327 . S
C420 H445 0.950 . S
C421 C420 1.349 . S
C421 C437 1.349 . S
C422 C420 1.327 . S
C422 C441 1.429 . S
C422 H446 0.950 . S
C423 C440 1.574 . S
C423 C442 1.368 . S
C423 H447 0.949 . S
H424 C428 0.949 . S
C425 C426 1.349 . S
C425 C427 1.327 . S
C425 H448 0.950 . S
C426 C425 1.349 . S
C426 C438 1.349 . S
C427 C425 1.327 . S
C427 C443 1.429 . S
C427 H449 0.950 . S
C428 H424 0.949 . S
C428 C436 1.574 . S
C428 C444 1.368 . S
H429 C437 0.950 . S
H430 C435 0.950 . S
H431 C436 0.949 . S
H432 C438 0.950 . S
H433 C439 0.950 . S
H434 C440 0.949 . S
C435 H430 0.950 . S
C435 C437 1.327 . S
C435 C441 1.429 . S
C436 C428 1.574 . S
C436 H431 0.949 . S
C436 C442 1.368 . S
C437 C421 1.349 . S
C437 H429 0.950 . S
C437 C435 1.327 . S
C438 C426 1.349 . S
C438 H432 0.950 . S
C438 C439 1.327 . S
C439 H433 0.950 . S
C439 C438 1.327 . S
C439 C443 1.429 . S
C440 C423 1.574 . S
C440 H434 0.949 . S
C440 C444 1.368 . S
C441 C422 1.429 . S
C441 C435 1.429 . S
C441 C442 1.523 . S
C442 C423 1.368 . S
C442 C436 1.368 . S
C442 C441 1.523 . S
C443 C427 1.429 . S
C443 C439 1.429 . S
C443 C444 1.523 . S
C444 C428 1.368 . S
C444 C440 1.368 . S
C444 C443 1.523 . S
H445 C420 0.950 . S
H446 C422 0.950 . S
H447 C423 0.949 . S
H448 C425 0.950 . S
H449 C427 0.950 . S
C450 C451 1.349 . S
C450 C452 1.327 . S
C450 H475 0.950 . S
C451 C450 1.349 . S
C451 C467 1.349 . S
C452 C450 1.327 . S
C452 C471 1.429 . S
C452 H476 0.950 . S
C453 C470 1.574 . S
C453 C472 1.368 . S
C453 H477 0.949 . S
H454 C458 0.949 . S
C455 C456 1.349 . S
C455 C457 1.327 . S
C455 H478 0.950 . S
C456 C455 1.349 . S
C456 C468 1.349 . S
C457 C455 1.327 . S
C457 C473 1.429 . S
C457 H479 0.950 . S
C458 H454 0.949 . S
C458 C466 1.574 . S
C458 C474 1.368 . S
H459 C467 0.950 . S
H460 C465 0.950 . S
H461 C466 0.949 . S
H462 C468 0.950 . S
H463 C469 0.950 . S
H464 C470 0.949 . S
C465 H460 0.950 . S
C465 C467 1.327 . S
C465 C471 1.429 . S
C466 C458 1.574 . S
C466 H461 0.949 . S
C466 C472 1.368 . S
C467 C451 1.349 . S
C467 H459 0.950 . S
C467 C465 1.327 . S
C468 C456 1.349 . S
C468 H462 0.950 . S
C468 C469 1.327 . S
C469 H463 0.950 . S
C469 C468 1.327 . S
C469 C473 1.429 . S
C470 C453 1.574 . S
C470 H464 0.949 . S
C470 C474 1.368 . S
C471 C452 1.429 . S
C471 C465 1.429 . S
C471 C472 1.523 . S
C472 C453 1.368 . S
C472 C466 1.368 . S
C472 C471 1.523 . S
C473 C457 1.429 . S
C473 C469 1.429 . S
C473 C474 1.523 . S
C474 C458 1.368 . S
C474 C470 1.368 . S
C474 C473 1.523 . S
H475 C450 0.950 . S
H476 C452 0.950 . S
H477 C453 0.949 . S
H478 C455 0.950 . S
H479 C457 0.950 . S
C480 C481 1.349 . S
C480 C482 1.327 . S
C480 H505 0.950 . S
C481 C480 1.349 . S
C481 C497 1.349 . S
C482 C480 1.327 . S
C482 C501 1.429 . S
C482 H506 0.950 . S
C483 C500 1.574 . S
C483 C502 1.368 . S
C483 H507 0.949 . S
H484 C488 0.949 . S
C485 C486 1.349 . S
C485 C487 1.327 . S
C485 H508 0.950 . S
C486 C485 1.349 . S
C486 C498 1.349 . S
C487 C485 1.327 . S
C487 C503 1.429 . S
C487 H509 0.950 . S
C488 H484 0.949 . S
C488 C496 1.574 . S
C488 C504 1.368 . S
H489 C497 0.950 . S
H490 C495 0.950 . S
H491 C496 0.949 . S
H492 C498 0.950 . S
H493 C499 0.950 . S
H494 C500 0.949 . S
C495 H490 0.950 . S
C495 C497 1.327 . S
C495 C501 1.429 . S
C496 C488 1.574 . S
C496 H491 0.949 . S
C496 C502 1.368 . S
C497 C481 1.349 . S
C497 H489 0.950 . S
C497 C495 1.327 . S
C498 C486 1.349 . S
C498 H492 0.950 . S
C498 C499 1.327 . S
C499 H493 0.950 . S
C499 C498 1.327 . S
C499 C503 1.429 . S
C500 C483 1.574 . S
C500 H494 0.949 . S
C500 C504 1.368 . S
C501 C482 1.429 . S
C501 C495 1.429 . S
C501 C502 1.523 . S
C502 C483 1.368 . S
C502 C496 1.368 . S
C502 C501 1.523 . S
C503 C487 1.429 . S
C503 C499 1.429 . S
C503 C504 1.523 . S
C504 C488 1.368 . S
C504 C500 1.368 . S
C504 C503 1.523 . S
H505 C480 0.950 . S
H506 C482 0.950 . S
H507 C483 0.949 . S
H508 C485 0.950 . S
H509 C487 0.950 . S
C510 C511 1.349 . S
C510 C512 1.327 . S
C510 H535 0.950 . S
C511 C510 1.349 . S
C511 C527 1.349 . S
C512 C510 1.327 . S
C512 C531 1.429 . S
C512 H536 0.950 . S
C513 C530 1.574 . S
C513 C532 1.368 . S
C513 H537 0.949 . S
H514 C518 0.949 . S
C515 C516 1.349 . S
C515 C517 1.327 . S
C515 H538 0.950 . S
C516 C515 1.349 . S
C516 C528 1.349 . S
C517 C515 1.327 . S
C517 C533 1.429 . S
C517 H539 0.950 . S
C518 H514 0.949 . S
C518 C526 1.574 . S
C518 C534 1.368 . S
H519 C527 0.950 . S
H520 C525 0.950 . S
H521 C526 0.949 . S
H522 C528 0.950 . S
H523 C529 0.950 . S
H524 C530 0.949 . S
C525 H520 0.950 . S
C525 C527 1.327 . S
C525 C531 1.429 . S
C526 C518 1.574 . S
C526 H521 0.949 . S
C526 C532 1.368 . S
C527 C511 1.349 . S
C527 H519 0.950 . S
C527 C525 1.327 . S
C528 C516 1.349 . S
C528 H522 0.950 . S
C528 C529 1.327 . S
C529 H523 0.950 . S
C529 C528 1.327 . S
C529 C533 1.429 . S
C530 C513 1.574 . S
C530 H524 0.949 . S
C530 C534 1.368 . S
C531 C512 1.429 . S
C531 C525 1.429 . S
C531 C532 1.523 . S
C532 C513 1.368 . S
C532 C526 1.368 . S
C532 C531 1.523 . S
C533 C517 1.429 . S
C533 C529 1.429 . S
C533 C534 1.523 . S
C534 C518 1.368 . S
C534 C530 1.368 . S
C534 C533 1.523 . S
H535 C510 0.950 . S
H536 C512 0.950 . S
H537 C513 0.949 . S
H538 C515 0.950 . S
H539 C517 0.950 . S
C540 C541 1.349 . S
C540 C542 1.327 . S
C540 H565 0.950 . S
C541 C540 1.349 . S
C541 C557 1.349 . S
C542 C540 1.327 . S
C542 C561 1.429 . S
C542 H566 0.950 . S
C543 C560 1.574 . S
C543 C562 1.368 . S
C543 H567 0.949 . S
H544 C548 0.949 . S
C545 C546 1.349 . S
C545 C547 1.327 . S
C545 H568 0.950 . S
C546 C545 1.349 . S
C546 C558 1.349 . S
C547 C545 1.327 . S
C547 C563 1.429 . S
C547 H569 0.950 . S
C548 H544 0.949 . S
C548 C556 1.574 . S
C548 C564 1.368 . S
H549 C557 0.950 . S
H550 C555 0.950 . S
H551 C556 0.949 . S
H552 C558 0.950 . S
H553 C559 0.950 . S
H554 C560 0.949 . S
C555 H550 0.950 . S
C555 C557 1.327 . S
C555 C561 1.429 . S
C556 C548 1.574 . S
C556 H551 0.949 . S
C556 C562 1.368 . S
C557 C541 1.349 . S
C557 H549 0.950 . S
C557 C555 1.327 . S
C558 C546 1.349 . S
C558 H552 0.950 . S
C558 C559 1.327 . S
C559 H553 0.950 . S
C559 C558 1.327 . S
C559 C563 1.429 . S
C560 C543 1.574 . S
C560 H554 0.949 . S
C560 C564 1.368 . S
C561 C542 1.429 . S
C561 C555 1.429 . S
C561 C562 1.523 . S
C562 C543 1.368 . S
C562 C556 1.368 . S
C562 C561 1.523 . S
C563 C547 1.429 . S
C563 C559 1.429 . S
C563 C564 1.523 . S
C564 C548 1.368 . S
C564 C560 1.368 . S
C564 C563 1.523 . S
H565 C540 0.950 . S
H566 C542 0.950 . S
H567 C543 0.949 . S
H568 C545 0.950 . S
H569 C547 0.950 . S
C570 C571 1.349 . S
C570 C572 1.327 . S
C570 H595 0.950 . S
C571 C570 1.349 . S
C571 C587 1.349 . S
C572 C570 1.327 . S
C572 C591 1.429 . S
C572 H596 0.950 . S
C573 C590 1.574 . S
C573 C592 1.368 . S
C573 H597 0.949 . S
H574 C578 0.949 . S
C575 C576 1.349 . S
C575 C577 1.327 . S
C575 H598 0.950 . S
C576 C575 1.349 . S
C576 C588 1.349 . S
C577 C575 1.327 . S
C577 C593 1.429 . S
C577 H599 0.950 . S
C578 H574 0.949 . S
C578 C586 1.574 . S
C578 C594 1.368 . S
H579 C587 0.950 . S
H580 C585 0.950 . S
H581 C586 0.949 . S
H582 C588 0.950 . S
H583 C589 0.950 . S
H584 C590 0.949 . S
C585 H580 0.950 . S
C585 C587 1.327 . S
C585 C591 1.429 . S
C586 C578 1.574 . S
C586 H581 0.949 . S
C586 C592 1.368 . S
C587 C571 1.349 . S
C587 H579 0.950 . S
C587 C585 1.327 . S
C588 C576 1.349 . S
C588 H582 0.950 . S
C588 C589 1.327 . S
C589 H583 0.950 . S
C589 C588 1.327 . S
C589 C593 1.429 . S
C590 C573 1.574 . S
C590 H584 0.949 . S
C590 C594 1.368 . S
C591 C572 1.429 . S
C591 C585 1.429 . S
C591 C592 1.523 . S
C592 C573 1.368 . S
C592 C586 1.368 . S
C592 C591 1.523 . S
C593 C577 1.429 . S
C593 C589 1.429 . S
C593 C594 1.523 . S
C594 C578 1.368 . S
C594 C590 1.368 . S
C594 C593 1.523 . S
H595 C570 0.950 . S
H596 C572 0.950 . S
H597 C573 0.949 . S
H598 C575 0.950 . S
H599 C577 0.950 . S
C600 C601 1.349 . S
C600 C602 1.327 . S
C600 H625 0.950 . S
C601 C600 1.349 . S
C601 C617 1.349 . S
C602 C600 1.327 . S
C602 C621 1.429 . S
C602 H626 0.950 . S
C603 C620 1.574 . S
C603 C622 1.368 . S
C603 H627 0.949 . S
H604 C608 0.949 . S
C605 C606 1.349 . S
C605 C607 1.327 . S
C605 H628 0.950 . S
C606 C605 1.349 . S
C606 C618 1.349 . S
C607 C605 1.327 . S
C607 C623 1.429 . S
C607 H629 0.950 . S
C608 H604 0.949 . S
C608 C616 1.574 . S
C608 C624 1.368 . S
H609 C617 0.950 . S
H610 C615 0.950 . S
H611 C616 0.949 . S
H612 C618 0.950 . S
H613 C619 0.950 . S
H614 C620 0.949 . S
C615 H610 0.950 . S
C615 C617 1.327 . S
C615 C621 1.429 . S
C616 C608 1.574 . S
C616 H611 0.949 . S
C616 C622 1.368 . S
C617 C601 1.349 . S
C617 H609 0.950 . S
C617 C615 1.327 . S
C618 C606 1.349 . S
C618 H612 0.950 . S
C618 C619 1.327 . S
C619 H613 0.950 . S
C619 C618 1.327 . S
C619 C623 1.429 . S
C620 C603 1.574 . S
C620 H614 0.949 . S
C620 C624 1.368 . S
C621 C602 1.429 . S
C621 C615 1.429 . S
C621 C622 1.523 . S
C622 C603 1.368 . S
C622 C616 1.368 . S
C622 C621 1.523 . S
C623 C607 1.429 . S
C623 C619 1.429 . S
C623 C624 1.523 . S
C624 C608 1.368 . S
C624 C620 1.368 . S
C624 C623 1.523 . S
H625 C600 0.950 . S
H626 C602 0.950 . S
H627 C603 0.949 . S
H628 C605 0.950 . S
H629 C607 0.950 . S
C630 C631 1.349 . S
C630 C632 1.327 . S
C630 H655 0.950 . S
C631 C630 1.349 . S
C631 C647 1.349 . S
C632 C630 1.327 . S
C632 C651 1.429 . S
C632 H656 0.950 . S
C633 C650 1.574 . S
C633 C652 1.368 . S
C633 H657 0.949 . S
H634 C638 0.949 . S
C635 C636 1.349 . S
C635 C637 1.327 . S
C635 H658 0.950 . S
C636 C635 1.349 . S
C636 C648 1.349 . S
C637 C635 1.327 . S
C637 C653 1.429 . S
C637 H659 0.950 . S
C638 H634 0.949 . S
C638 C646 1.574 . S
C638 C654 1.368 . S
H639 C647 0.950 . S
H640 C645 0.950 . S
H641 C646 0.949 . S
H642 C648 0.950 . S
H643 C649 0.950 . S
H644 C650 0.949 . S
C645 H640 0.950 . S
C645 C647 1.327 . S
C645 C651 1.429 . S
C646 C638 1.574 . S
C646 H641 0.949 . S
C646 C652 1.368 . S
C647 C631 1.349 . S
C647 H639 0.950 . S
C647 C645 1.327 . S
C648 C636 1.349 . S
C648 H642 0.950 . S
C648 C649 1.327 . S
C649 H643 0.950 . S
C649 C648 1.327 . S
C649 C653 1.429 . S
C650 C633 1.574 . S
C650 H644 0.949 . S
C650 C654 1.368 . S
C651 C632 1.429 . S
C651 C645 1.429 . S
C651 C652 1.523 . S
C652 C633 1.368 . S
C652 C646 1.368 . S
C652 C651 1.523 . S
C653 C637 1.429 . S
C653 C649 1.429 . S
C653 C654 1.523 . S
C654 C638 1.368 . S
C654 C650 1.368 . S
C654 C653 1.523 . S
H655 C630 0.950 . S
H656 C632 0.950 . S
H657 C633 0.949 . S
H658 C635 0.950 . S
H659 C637 0.950 . S
C660 C661 1.349 . S
C660 C662 1.327 . S
C660 H685 0.950 . S
C661 C660 1.349 . S
C661 C677 1.349 . S
C662 C660 1.327 . S
C662 C681 1.429 . S
C662 H686 0.950 . S
C663 C680 1.574 . S
C663 C682 1.368 . S
C663 H687 0.949 . S
H664 C668 0.949 . S
C665 C666 1.349 . S
C665 C667 1.327 . S
C665 H688 0.950 . S
C666 C665 1.349 . S
C666 C678 1.349 . S
C667 C665 1.327 . S
C667 C683 1.429 . S
C667 H689 0.950 . S
C668 H664 0.949 . S
C668 C676 1.574 . S
C668 C684 1.368 . S
H669 C677 0.950 . S
H670 C675 0.950 . S
H671 C676 0.949 . S
H672 C678 0.950 . S
H673 C679 0.950 . S
H674 C680 0.949 . S
C675 H670 0.950 . S
C675 C677 1.327 . S
C675 C681 1.429 . S
C676 C668 1.574 . S
C676 H671 0.949 . S
C676 C682 1.368 . S
C677 C661 1.349 . S
C677 H669 0.950 . S
C677 C675 1.327 . S
C678 C666 1.349 . S
C678 H672 0.950 . S
C678 C679 1.327 . S
C679 H673 0.950 . S
C679 C678 1.327 . S
C679 C683 1.429 . S
C680 C663 1.574 . S
C680 H674 0.949 . S
C680 C684 1.368 . S
C681 C662 1.429 . S
C681 C675 1.429 . S
C681 C682 1.523 . S
C682 C663 1.368 . S
C682 C676 1.368 . S
C682 C681 1.523 . S
C683 C667 1.429 . S
C683 C679 1.429 . S
C683 C684 1.523 . S
C684 C668 1.368 . S
C684 C680 1.368 . S
C684 C683 1.523 . S
H685 C660 0.950 . S
H686 C662 0.950 . S
H687 C663 0.949 . S
H688 C665 0.950 . S
H689 C667 0.950 . S
C690 C691 1.349 . S
C690 C692 1.327 . S
C690 H715 0.950 . S
C691 C690 1.349 . S
C691 C707 1.349 . S
C692 C690 1.327 . S
C692 C711 1.429 . S
C692 H716 0.950 . S
C693 C710 1.574 . S
C693 C712 1.368 . S
C693 H717 0.949 . S
H694 C698 0.949 . S
C695 C696 1.349 . S
C695 C697 1.327 . S
C695 H718 0.950 . S
C696 C695 1.349 . S
C696 C708 1.349 . S
C697 C695 1.327 . S
C697 C713 1.429 . S
C697 H719 0.950 . S
C698 H694 0.949 . S
C698 C706 1.574 . S
C698 C714 1.368 . S
H699 C707 0.950 . S
H700 C705 0.950 . S
H701 C706 0.949 . S
H702 C708 0.950 . S
H703 C709 0.950 . S
H704 C710 0.949 . S
C705 H700 0.950 . S
C705 C707 1.327 . S
C705 C711 1.429 . S
C706 C698 1.574 . S
C706 H701 0.949 . S
C706 C712 1.368 . S
C707 C691 1.349 . S
C707 H699 0.950 . S
C707 C705 1.327 . S
C708 C696 1.349 . S
C708 H702 0.950 . S
C708 C709 1.327 . S
C709 H703 0.950 . S
C709 C708 1.327 . S
C709 C713 1.429 . S
C710 C693 1.574 . S
C710 H704 0.949 . S
C710 C714 1.368 . S
C711 C692 1.429 . S
C711 C705 1.429 . S
C711 C712 1.523 . S
C712 C693 1.368 . S
C712 C706 1.368 . S
C712 C711 1.523 . S
C713 C697 1.429 . S
C713 C709 1.429 . S
C713 C714 1.523 . S
C714 C698 1.368 . S
C714 C710 1.368 . S
C714 C713 1.523 . S
H715 C690 0.950 . S
H716 C692 0.950 . S
H717 C693 0.949 . S
H718 C695 0.950 . S
H719 C697 0.950 . S
C720 C721 1.349 . S
C720 C722 1.327 . S
C720 H745 0.950 . S
C721 C720 1.349 . S
C721 C737 1.349 . S
C722 C720 1.327 . S
C722 C741 1.429 . S
C722 H746 0.950 . S
C723 C740 1.574 . S
C723 C742 1.368 . S
C723 H747 0.949 . S
H724 C728 0.949 . S
C725 C726 1.349 . S
C725 C727 1.327 . S
C725 H748 0.950 . S
C726 C725 1.349 . S
C726 C738 1.349 . S
C727 C725 1.327 . S
C727 C743 1.429 . S
C727 H749 0.950 . S
C728 H724 0.949 . S
C728 C736 1.574 . S
C728 C744 1.368 . S
H729 C737 0.950 . S
H730 C735 0.950 . S
H731 C736 0.949 . S
H732 C738 0.950 . S
H733 C739 0.950 . S
H734 C740 0.949 . S
C735 H730 0.950 . S
C735 C737 1.327 . S
C735 C741 1.429 . S
C736 C728 1.574 . S
C736 H731 0.949 . S
C736 C742 1.368 . S
C737 C721 1.349 . S
C737 H729 0.950 . S
C737 C735 1.327 . S
C738 C726 1.349 . S
C738 H732 0.950 . S
C738 C739 1.327 . S
C739 H733 0.950 . S
C739 C738 1.327 . S
C739 C743 1.429 . S
C740 C723 1.574 . S
C740 H734 0.949 . S
C740 C744 1.368 . S
C741 C722 1.429 . S
C741 C735 1.429 . S
C741 C742 1.523 . S
C742 C723 1.368 . S
C742 C736 1.368 . S
C742 C741 1.523 . S
C743 C727 1.429 . S
C743 C739 1.429 . S
C743 C744 1.523 . S
C744 C728 1.368 . S
C744 C740 1.368 . S
C744 C743 1.523 . S
H745 C720 0.950 . S
H746 C722 0.950 . S
H747 C723 0.949 . S
H748 C725 0.950 . S
H749 C727 0.950 . S
C750 C751 1.349 . S
C750 C752 1.327 . S
C750 H775 0.950 . S
C751 C750 1.349 . S
C751 C767 1.349 . S
C752 C750 1.327 . S
C752 C771 1.429 . S
C752 H776 0.950 . S
C753 C770 1.574 . S
C753 C772 1.368 . S
C753 H777 0.949 . S
H754 C758 0.949 . S
C755 C756 1.349 . S
C755 C757 1.327 . S
C755 H778 0.950 . S
C756 C755 1.349 . S
C756 C768 1.349 . S
C757 C755 1.327 . S
C757 C773 1.429 . S
C757 H779 0.950 . S
C758 H754 0.949 . S
C758 C766 1.574 . S
C758 C774 1.368 . S
H759 C767 0.950 . S
H760 C765 0.950 . S
H761 C766 0.949 . S
H762 C768 0.950 . S
H763 C769 0.950 . S
H764 C770 0.949 . S
C765 H760 0.950 . S
C765 C767 1.327 . S
C765 C771 1.429 . S
C766 C758 1.574 . S
C766 H761 0.949 . S
C766 C772 1.368 . S
C767 C751 1.349 . S
C767 H759 0.950 . S
C767 C765 1.327 . S
C768 C756 1.349 . S
C768 H762 0.950 . S
C768 C769 1.327 . S
C769 H763 0.950 . S
C769 C768 1.327 . S
C769 C773 1.429 . S
C770 C753 1.574 . S
C770 H764 0.949 . S
C770 C774 1.368 . S
C771 C752 1.429 . S
C771 C765 1.429 . S
C771 C772 1.523 . S
C772 C753 1.368 . S
C772 C766 1.368 . S
C772 C771 1.523 . S
C773 C757 1.429 . S
C773 C769 1.429 . S
C773 C774 1.523 . S
C774 C758 1.368 . S
C774 C770 1.368 . S
C774 C773 1.523 . S
H775 C750 0.950 . S
H776 C752 0.950 . S
H777 C753 0.949 . S
H778 C755 0.950 . S
H779 C757 0.950 . S
C780 C781 1.349 . S
C780 C782 1.327 . S
C780 H805 0.950 1_455 S
C781 C780 1.349 . S
C781 C797 1.349 . S
C782 C780 1.327 . S
C782 C801 1.429 . S
C782 H806 0.950 1_455 S
C783 C800 1.574 . S
C783 C802 1.368 . S
C783 H807 0.949 . S
H784 C788 0.949 1_655 S
C785 C786 1.349 . S
C785 C787 1.327 1_556 S
C785 H808 0.950 . S
C786 C785 1.349 . S
C786 C798 1.349 . S
C787 C785 1.327 1_554 S
C787 C803 1.429 . S
C787 H809 0.950 . S
C788 H784 0.949 1_455 S
C788 C796 1.574 . S
C788 C804 1.368 . S
H789 C797 0.950 . S
H790 C795 0.950 . S
H791 C796 0.949 1_655 S
H792 C798 0.950 . S
H793 C799 0.928 1_655 S
H794 C800 0.949 . S
C795 H790 0.950 . S
C795 C797 1.327 . S
C795 C801 1.429 . S
C796 C788 1.574 . S
C796 H791 0.949 1_455 S
C796 C802 1.368 . S
C797 C781 1.349 . S
C797 H789 0.950 . S
C797 C795 1.327 . S
C798 C786 1.349 . S
C798 H792 0.950 . S
C798 C799 1.327 1_556 S
C799 H793 0.928 1_455 S
C799 C798 1.327 1_554 S
C799 C803 1.429 . S
C800 C783 1.574 . S
C800 H794 0.949 . S
C800 C804 1.368 . S
C801 C782 1.429 . S
C801 C795 1.429 . S
C801 C802 1.523 . S
C802 C783 1.368 . S
C802 C796 1.368 . S
C802 C801 1.523 . S
C803 C787 1.429 . S
C803 C799 1.429 . S
C803 C804 1.523 . S
C804 C788 1.368 . S
C804 C800 1.368 . S
C804 C803 1.523 . S
H805 C780 0.950 1_655 S
H806 C782 0.950 1_655 S
H807 C783 0.949 . S
H808 C785 0.950 . S
H809 C787 0.950 . S
C810 C811 1.349 . S
C810 C812 1.327 . S
C810 H835 0.950 1_545 S
C811 C810 1.349 . S
C811 C827 1.349 . S
C812 C810 1.327 . S
C812 C831 1.429 . S
C812 H836 0.950 1_545 S
C813 C830 1.574 . S
C813 C832 1.368 . S
C813 H837 0.949 . S
H814 C818 0.949 . S
C815 C816 1.349 . S
C815 C817 1.327 . S
C815 H838 0.950 . S
C816 C815 1.349 . S
C816 C828 1.349 1_545 S
C817 C815 1.327 . S
C817 C833 1.429 . S
C817 H839 0.950 . S
C818 H814 0.949 . S
C818 C826 1.576 . S
C818 C834 1.368 1_565 S
H819 C827 0.950 . S
H820 C825 0.950 . S
H821 C826 0.956 . S
H822 C828 0.950 . S
H823 C829 0.950 . S
H824 C830 0.949 . S
C825 H820 0.950 . S
C825 C827 1.327 . S
C825 C831 1.429 . S
C826 C818 1.576 . S
C826 H821 0.956 . S
C826 C832 1.359 1_565 S
C827 C811 1.349 . S
C827 H819 0.950 . S
C827 C825 1.327 . S
C828 C816 1.349 1_565 S
C828 H822 0.950 . S
C828 C829 1.327 . S
C829 H823 0.950 . S
C829 C828 1.327 . S
C829 C833 1.429 1_565 S
C830 C813 1.574 . S
C830 H824 0.949 . S
C830 C834 1.368 . S
C831 C812 1.429 . S
C831 C825 1.429 . S
C831 C832 1.523 . S
C832 C813 1.368 . S
C832 C826 1.359 1_545 S
C832 C831 1.523 . S
C833 C817 1.429 . S
C833 C829 1.429 1_545 S
C833 C834 1.523 . S
C834 C818 1.368 1_545 S
C834 C830 1.368 . S
C834 C833 1.523 . S
H835 C810 0.950 1_565 S
H836 C812 0.950 1_565 S
H837 C813 0.949 . S
H838 C815 0.950 . S
H839 C817 0.950 . S
C840 C841 1.349 . S
C840 C842 1.327 . S
C840 H865 0.950 . S
C841 C840 1.349 . S
C841 C857 1.349 . S
C842 C840 1.327 . S
C842 C861 1.429 . S
C842 H866 0.950 . S
C843 C860 1.574 . S
C843 C862 1.368 . S
C843 H867 0.949 . S
H844 C848 0.949 . S
C845 C846 1.349 . S
C845 C847 1.327 . S
C845 H868 0.950 . S
C846 C845 1.349 . S
C846 C858 1.349 . S
C847 C845 1.327 . S
C847 C863 1.429 . S
C847 H869 0.950 . S
C848 H844 0.949 . S
C848 C856 1.574 . S
C848 C864 1.368 . S
H849 C857 0.950 . S
H850 C855 0.950 . S
H851 C856 0.949 . S
H852 C858 0.950 . S
H853 C859 0.950 . S
H854 C860 0.949 . S
C855 H850 0.950 . S
C855 C857 1.327 . S
C855 C861 1.429 . S
C856 C848 1.574 . S
C856 H851 0.949 . S
C856 C862 1.368 . S
C857 C841 1.349 . S
C857 H849 0.950 . S
C857 C855 1.327 . S
C858 C846 1.349 . S
C858 H852 0.950 . S
C858 C859 1.327 . S
C859 H853 0.950 . S
C859 C858 1.327 . S
C859 C863 1.429 . S
C860 C843 1.574 . S
C860 H854 0.949 . S
C860 C864 1.368 . S
C861 C842 1.429 . S
C861 C855 1.429 . S
C861 C862 1.523 . S
C862 C843 1.368 . S
C862 C856 1.368 . S
C862 C861 1.523 . S
C863 C847 1.429 . S
C863 C859 1.429 . S
C863 C864 1.523 . S
C864 C848 1.368 . S
C864 C860 1.368 . S
C864 C863 1.523 . S
H865 C840 0.950 . S
H866 C842 0.950 . S
H867 C843 0.949 . S
H868 C845 0.950 . S
H869 C847 0.950 . S
C870 C871 1.349 . S
C870 C872 1.327 . S
C870 H895 0.950 . S
C871 C870 1.349 . S
C871 C887 1.349 . S
C872 C870 1.327 . S
C872 C891 1.429 . S
C872 H896 0.950 . S
C873 C890 1.574 . S
C873 C892 1.368 . S
C873 H897 0.949 . S
H874 C878 0.949 . S
C875 C876 1.349 . S
C875 C877 1.327 . S
C875 H898 0.950 . S
C876 C875 1.349 . S
C876 C888 1.349 . S
C877 C875 1.327 . S
C877 C893 1.429 . S
C877 H899 0.950 . S
C878 H874 0.949 . S
C878 C886 1.574 . S
C878 C894 1.368 . S
H879 C887 0.980 . S
H880 C885 0.950 . S
H881 C886 0.949 . S
H882 C888 0.950 . S
H883 C889 0.950 . S
H884 C890 0.949 . S
C885 H880 0.950 . S
C885 C887 1.327 . S
C885 C891 1.429 . S
C886 C878 1.574 . S
C886 H881 0.949 . S
C886 C892 1.368 . S
C887 C871 1.349 . S
C887 H879 0.980 . S
C887 C885 1.327 . S
C888 C876 1.349 . S
C888 H882 0.950 . S
C888 C889 1.327 . S
C889 H883 0.950 . S
C889 C888 1.327 . S
C889 C893 1.429 . S
C890 C873 1.574 . S
C890 H884 0.949 . S
C890 C894 1.368 . S
C891 C872 1.429 . S
C891 C885 1.429 . S
C891 C892 1.523 . S
C892 C873 1.368 . S
C892 C886 1.368 . S
C892 C891 1.523 . S
C893 C877 1.429 . S
C893 C889 1.429 . S
C893 C894 1.523 . S
C894 C878 1.368 . S
C894 C890 1.368 . S
C894 C893 1.523 . S
H895 C870 0.950 . S
H896 C872 0.950 . S
H897 C873 0.949 . S
H898 C875 0.950 . S
H899 C877 0.950 . S
C900 C901 1.349 . S
C900 C902 1.327 . S
C900 H925 0.950 . S
C901 C900 1.349 . S
C901 C917 1.349 . S
C902 C900 1.327 . S
C902 C921 1.429 . S
C902 H926 0.950 . S
C903 C920 1.574 . S
C903 C922 1.368 . S
C903 H927 0.949 . S
H904 C908 0.949 . S
C905 C906 1.349 . S
C905 C907 1.333 . S
C905 H928 0.950 . S
C906 C905 1.349 . S
C906 C918 1.349 . S
C907 C905 1.333 . S
C907 C923 1.425 1_554 S
C907 H929 0.947 1_554 S
C908 H904 0.949 . S
C908 C916 1.574 . S
C908 C924 1.368 . S
H909 C917 0.950 . S
H910 C915 0.950 . S
H911 C916 0.949 . S
H912 C918 0.950 . S
H913 C919 0.950 . S
H914 C920 0.949 . S
C915 H910 0.950 . S
C915 C917 1.327 . S
C915 C921 1.429 . S
C916 C908 1.574 . S
C916 H911 0.949 . S
C916 C922 1.368 . S
C917 C901 1.349 . S
C917 H909 0.950 . S
C917 C915 1.327 . S
C918 C906 1.349 . S
C918 H912 0.950 . S
C918 C919 1.327 1_554 S
C919 H913 0.950 . S
C919 C918 1.327 1_556 S
C919 C923 1.429 . S
C920 C903 1.574 . S
C920 H914 0.949 . S
C920 C924 1.368 . S
C921 C902 1.429 . S
C921 C915 1.429 . S
C921 C922 1.523 . S
C922 C903 1.368 . S
C922 C916 1.368 . S
C922 C921 1.523 . S
C923 C907 1.425 1_556 S
C923 C919 1.429 . S
C923 C924 1.523 . S
C924 C908 1.368 . S
C924 C920 1.368 . S
C924 C923 1.523 . S
H925 C900 0.950 . S
H926 C902 0.950 . S
H927 C903 0.949 . S
H928 C905 0.950 . S
H929 C907 0.947 1_556 S
C930 C931 1.349 . S
C930 C932 1.327 . S
C930 H955 0.950 . S
C931 C930 1.349 . S
C931 C947 1.349 . S
C932 C930 1.327 . S
C932 C951 1.429 . S
C932 H956 0.950 . S
C933 C950 1.574 . S
C933 C952 1.368 . S
C933 H957 0.949 . S
H934 C938 0.949 . S
C935 C936 1.349 . S
C935 C937 1.327 . S
C935 H958 0.950 . S
C936 C935 1.349 . S
C936 C948 1.349 . S
C937 C935 1.327 . S
C937 C953 1.429 . S
C937 H959 0.950 . S
C938 H934 0.949 . S
C938 C946 1.574 . S
C938 C954 1.368 . S
H939 C947 0.950 . S
H940 C945 0.950 . S
H941 C946 0.949 . S
H942 C948 0.950 . S
H943 C949 0.950 . S
H944 C950 0.949 . S
C945 H940 0.950 . S
C945 C947 1.327 . S
C945 C951 1.429 . S
C946 C938 1.574 . S
C946 H941 0.949 . S
C946 C952 1.368 . S
C947 C931 1.349 . S
C947 H939 0.950 . S
C947 C945 1.327 . S
C948 C936 1.349 . S
C948 H942 0.950 . S
C948 C949 1.327 . S
C949 H943 0.950 . S
C949 C948 1.327 . S
C949 C953 1.429 . S
C950 C933 1.574 . S
C950 H944 0.949 . S
C950 C954 1.368 . S
C951 C932 1.429 . S
C951 C945 1.429 . S
C951 C952 1.523 . S
C952 C933 1.368 . S
C952 C946 1.368 . S
C952 C951 1.523 . S
C953 C937 1.429 . S
C953 C949 1.429 . S
C953 C954 1.523 . S
C954 C938 1.368 . S
C954 C950 1.368 . S
C954 C953 1.523 . S
H955 C930 0.950 . S
H956 C932 0.950 . S
H957 C933 0.949 . S
H958 C935 0.950 . S
H959 C937 0.950 . S
C421 C2 1.033 . S
C426 C391 1.039 . S
C451 C21 0.961 . S
C456 C241 0.931 . S
C481 C42 1.033 . S
C486 C301 0.988 . S
C511 C1 0.961 . S
C516 C361 0.931 . S
C546 C271 1.039 . S
C541 C22 1.033 . S
C576 C331 0.970 . S
C571 C41 0.961 . S
C601 C38 1.820 . S
C606 C121 1.715 . S
C631 C59 1.903 . S
C636 C211 1.896 . S
C661 C18 1.820 . S
C666 C91 1.832 . S
C696 C151 1.896 . S
C691 C39 1.903 . S
C726 C181 1.715 . S
C721 C58 1.820 . S
C751 C19 1.903 . S
C756 C61 1.777 . S
C786 C200 1.542 . S
C781 C9 1.503 . S
C811 C29 1.503 . S
C816 C80 1.539 . S
C841 C49 1.503 . S
C846 C140 1.542 . S
C876 C320 1.360 . S
C871 C28 1.354 . S
C906 C380 1.365 . S
C901 C48 1.354 . S
C931 C8 1.355 . S
C936 C260 1.365 . S
