# Generated by pormake.
# Topology anh, (6,3)-cn, num edge types: 1
# Building blocks:
#     Node 0, Type 0, BuildingBlock: PAMTOO_clean_sbu_0, # of connection points: 6
#     Node 1, Type 0, BuildingBlock: PAMTOO_clean_sbu_0, # of connection points: 6
#     Node 2, Type 0, BuildingBlock: PAMTOO_clean_sbu_0, # of connection points: 6
#     Node 3, Type 1, BuildingBlock: QEWDON_clean_linker_0, # of connection points: 3
#     Node 4, Type 1, BuildingBlock: QEWDON_clean_linker_0, # of connection points: 3
#     Node 5, Type 1, BuildingBlock: QEWDON_clean_linker_0, # of connection points: 3
#     Node 6, Type 1, BuildingBlock: QEWDON_clean_linker_0, # of connection points: 3
#     Node 7, Type 1, BuildingBlock: QEWDON_clean_linker_0, # of connection points: 3
#     Node 8, Type 1, BuildingBlock: QEWDON_clean_linker_0, # of connection points: 3
#     Edge 9, Type (0, 1), BuildingBlock: XUDNAN_clean_linker_2, # of connection points: 2
#     Edge 10, Type (0, 1), BuildingBlock: XUDNAN_clean_linker_2, # of connection points: 2
#     Edge 11, Type (0, 1), BuildingBlock: XUDNAN_clean_linker_2, # of connection points: 2
#     Edge 12, Type (0, 1), BuildingBlock: XUDNAN_clean_linker_2, # of connection points: 2
#     Edge 13, Type (0, 1), BuildingBlock: XUDNAN_clean_linker_2, # of connection points: 2
#     Edge 14, Type (0, 1), BuildingBlock: XUDNAN_clean_linker_2, # of connection points: 2
#     Edge 15, Type (0, 1), BuildingBlock: XUDNAN_clean_linker_2, # of connection points: 2
#     Edge 16, Type (0, 1), BuildingBlock: XUDNAN_clean_linker_2, # of connection points: 2
#     Edge 17, Type (0, 1), BuildingBlock: XUDNAN_clean_linker_2, # of connection points: 2
#     Edge 18, Type (0, 1), BuildingBlock: XUDNAN_clean_linker_2, # of connection points: 2
#     Edge 19, Type (0, 1), BuildingBlock: XUDNAN_clean_linker_2, # of connection points: 2
#     Edge 20, Type (0, 1), BuildingBlock: XUDNAN_clean_linker_2, # of connection points: 2
#     Edge 21, Type (0, 1), BuildingBlock: XUDNAN_clean_linker_2, # of connection points: 2
#     Edge 22, Type (0, 1), BuildingBlock: XUDNAN_clean_linker_2, # of connection points: 2
#     Edge 23, Type (0, 1), BuildingBlock: XUDNAN_clean_linker_2, # of connection points: 2
#     Edge 24, Type (0, 1), BuildingBlock: XUDNAN_clean_linker_2, # of connection points: 2
#     Edge 25, Type (0, 1), BuildingBlock: XUDNAN_clean_linker_2, # of connection points: 2
#     Edge 26, Type (0, 1), BuildingBlock: XUDNAN_clean_linker_2, # of connection points: 2
# Relax obj value: 0.129
# Max RMSD: 0.151
# Mean RMSD: 0.118
data_MOF--net-anh--node1-PAMTOO_clean_sbu_0--node2-QEWDON_clean_linker_0--edge1-XUDNAN_clean_linker_2
_symmetry_space_group_name_H-M    P1
_symmetry_Int_Tables_number       1
_symmetry_cell_setting            triclinic
loop_
_symmetry_equiv_pos_as_xyz
'x, y, z'
_cell_length_a     31.354399
_cell_length_b     30.874438
_cell_length_c     48.5
_cell_angle_alpha  95.266548
_cell_angle_beta   98.564052
_cell_angle_gamma 100.94767
loop_
_atom_site_label
_atom_site_type_symbol
_atom_site_fract_x
_atom_site_fract_y
_atom_site_fract_z
_atom_type_partial_charge
Dy0 Dy 0.12172 0.6302 0.15667 0.0
Dy1 Dy 1.08816 0.5213 0.14217 0.0
C2 C 0.11634 0.58123 0.09521 0.0
O3 O 1.05077 0.61613 0.16224 0.0
O4 O 1.02718 0.55019 0.13343 0.0
O5 O 0.118 0.69611 0.14587 0.0
O6 O 0.16076 0.68786 0.18352 0.0
O7 O 1.07903 0.53781 0.18624 0.0
O8 O 0.13001 0.60313 0.19777 0.0
O9 O 0.16244 0.53261 0.15362 0.0
O10 O 0.18286 0.60691 0.14886 0.0
O11 O 0.09075 0.45548 0.15271 0.0
O12 O 1.04635 0.46403 0.11574 0.0
C13 C 1.01861 0.58491 0.14782 0.0
O14 O 0.10689 0.61495 0.10985 0.0
O15 O 0.11663 0.54321 0.10516 0.0
C16 C 0.18608 0.74692 0.159 0.0
C17 C 0.25899 0.80846 0.14885 0.0
C18 C 0.25911 0.76275 0.14635 0.0
C19 C 0.22284 0.73221 0.15124 0.0
C20 C 0.18531 0.79226 0.16077 0.0
C21 C 0.22142 0.82281 0.15567 0.0
C22 C 0.14942 0.7155 0.16646 0.0
C23 C 0.10438 0.56885 0.20501 0.0
C24 C 0.19278 0.56781 0.15163 0.0
C25 C 1.02116 0.40709 0.14229 0.0
C26 C 0.95074 0.35114 0.15978 0.0
C27 C 0.97367 0.39031 0.17687 0.0
C28 C 1.00835 0.41815 0.16814 0.0
C29 C 0.99841 0.36807 0.12515 0.0
C30 C 0.96333 0.34036 0.13376 0.0
C31 C 1.05763 0.43652 0.13301 0.0
H32 H 0.28743 0.7507 0.14092 0.0
H33 H 0.22386 0.69721 0.14956 0.0
H34 H 0.15721 0.80414 0.16674 0.0
H35 H 0.22057 0.85785 0.15811 0.0
H36 H 0.96423 0.39988 0.19679 0.0
H37 H 1.02506 0.44845 0.18155 0.0
H38 H 1.00769 0.35911 0.10508 0.0
H39 H 0.9463 0.31032 0.1202 0.0
Dy40 Dy 0.60166 0.04509 0.51122 0.0
Dy41 Dy 0.70693 0.07147 0.50704 0.0
C42 C 0.67347 0.06773 0.56447 0.0
O43 O 0.61087 0.11316 0.49826 0.0
O44 O 0.68503 0.136 0.51471 0.0
O45 O 0.55365 0.02498 0.53764 0.0
O46 O 0.53237 0.03809 0.4951 0.0
O47 O 0.6688 0.07274 0.46428 0.0
O48 O 0.60797 0.02077 0.4678 0.0
O49 O 0.69278 0.99707 0.50097 0.0
O50 O 0.62595 0.98237 0.51648 0.0
O51 O 0.76221 0.07145 0.48526 0.0
O52 O 0.7719 0.10636 0.52735 0.0
C53 C 0.64644 0.14472 0.50524 0.0
O54 O 0.64008 0.08191 0.55157 0.0
O55 O 0.70025 0.0522 0.54977 0.0
C56 C 0.48677 0.98104 0.51334 0.0
C57 C 0.42354 0.90116 0.50714 0.0
C58 C 0.43037 0.9318 0.53144 0.0
C59 C 0.4616 0.97147 0.53444 0.0
C60 C 0.48038 0.95027 0.48912 0.0
C61 C 0.44879 0.91076 0.48598 0.0
C62 C 0.52035 0.02249 0.51752 0.0
C63 C 0.63248 0.04429 0.45256 0.0
C64 C 0.66045 0.96944 0.50865 0.0
C65 C 0.81225 0.14069 0.49563 0.0
C66 C 0.85384 0.22361 0.48257 0.0
C67 C 0.81088 0.20352 0.46903 0.0
C68 C 0.79014 0.16254 0.47564 0.0
C69 C 0.85537 0.16023 0.50881 0.0
C70 C 0.87602 0.20144 0.50238 0.0
C71 C 0.78903 0.09998 0.50478 0.0
H72 H 0.41106 0.92541 0.54794 0.0
H73 H 0.46623 0.99469 0.55333 0.0
H74 H 0.49986 0.95663 0.4727 0.0
H75 H 0.44443 0.88747 0.46716 0.0
H76 H 0.7928 0.22014 0.45398 0.0
H77 H 0.75645 0.14844 0.46564 0.0
H78 H 0.8727 0.14408 0.52452 0.0
H79 H 0.90925 0.21609 0.51299 0.0
Dy80 Dy 0.67302 0.52346 0.83875 0.0
Dy81 Dy 0.56823 0.50623 0.81263 0.0
C82 C 0.64086 0.51343 0.77394 0.0
O83 O 0.66316 0.59066 0.82918 0.0
O84 O 0.58747 0.5801 0.82295 0.0
O85 O 0.73986 0.55915 0.84179 0.0
O86 O 0.72596 0.50264 0.86477 0.0
O87 O 0.57393 0.49932 0.85875 0.0
O88 O 0.64085 0.54642 0.87346 0.0
O89 O 0.58578 0.43909 0.80945 0.0
O90 O 0.64306 0.45503 0.84628 0.0
O91 O 0.50118 0.50865 0.81683 0.0
O92 O 0.51565 0.4811 0.77741 0.0
C93 C 0.62671 0.60615 0.82603 0.0
O94 O 0.66454 0.49744 0.79352 0.0
O95 O 0.60638 0.52877 0.77931 0.0
C96 C 0.7904 0.51171 0.84463 0.0
C97 C 0.86123 0.4845 0.82372 0.0
C98 C 0.82652 0.49449 0.80525 0.0
C99 C 0.79123 0.50779 0.81562 0.0
C100 C 0.82346 0.49891 0.86284 0.0
C101 C 0.85861 0.48525 0.85246 0.0
C102 C 0.75619 0.5306 0.8561 0.0
C103 C 0.60334 0.52488 0.8788 0.0
C104 C 0.61313 0.42611 0.82861 0.0
C105 C 0.4615 0.52455 0.77565 0.0
C106 C 0.41459 0.58785 0.75597 0.0
C107 C 0.39205 0.54678 0.76196 0.0
C108 C 0.4154 0.51538 0.7718 0.0
C109 C 0.48399 0.56435 0.7681 0.0
C110 C 0.46066 0.59571 0.75825 0.0
C111 C 0.48622 0.49514 0.79027 0.0
H112 H 0.82791 0.49431 0.78305 0.0
H113 H 0.76564 0.51693 0.80113 0.0
H114 H 0.82308 0.50131 0.88523 0.0
H115 H 0.8853 0.47842 0.86723 0.0
H116 H 0.35659 0.54006 0.76075 0.0
H117 H 0.39762 0.48492 0.77768 0.0
H118 H 0.51968 0.57197 0.77097 0.0
H119 H 0.47866 0.62679 0.75341 0.0
H120 H 0.61129 0.12209 0.25306 0.0
C121 C 0.58984 0.09528 0.23853 0.0
C122 C 0.56716 0.05788 0.24874 0.0
C123 C 0.58177 0.09988 0.20974 0.0
H124 H 0.52017 0.99584 0.2374 0.0
C125 C 0.53802 0.0244 0.22957 0.0
C126 C 0.52914 0.02878 0.20085 0.0
C127 C 0.55176 0.06645 0.19109 0.0
C128 C 0.59974 0.14193 0.19929 0.0
H129 H 0.54512 0.07059 0.16901 0.0
C130 C 0.64542 0.15748 0.20125 0.0
C131 C 0.66143 0.19603 0.1893 0.0
C132 C 0.57032 0.16584 0.18613 0.0
H133 H 0.53504 0.1545 0.18451 0.0
C134 C 0.58606 0.20455 0.17496 0.0
H135 H 0.66817 0.13872 0.211 0.0
C136 C 0.63124 0.21951 0.17641 0.0
H137 H 0.64262 0.24969 0.16753 0.0
H138 H 0.56315 0.22286 0.16497 0.0
H139 H 0.64457 0.57857 0.57031 0.0
C140 C 0.64752 0.54712 0.55964 0.0
C141 C 0.66326 0.51571 0.57542 0.0
C142 C 0.63366 0.53721 0.5304 0.0
H143 H 0.67508 0.44923 0.57415 0.0
C144 C 0.66533 0.47429 0.56173 0.0
C145 C 0.65128 0.46342 0.53266 0.0
C146 C 0.63606 0.49536 0.51709 0.0
C147 C 0.61282 0.56869 0.51414 0.0
H148 H 0.62528 0.48729 0.4946 0.0
C149 C 0.63049 0.6149 0.5185 0.0
C150 C 0.60927 0.64428 0.5036 0.0
C151 C 0.57382 0.5524 0.49462 0.0
H152 H 0.55893 0.51727 0.49114 0.0
C153 C 0.55292 0.58128 0.47979 0.0
H154 H 0.66047 0.62796 0.5335 0.0
C155 C 0.57038 0.62684 0.48421 0.0
H156 H 0.55368 0.64844 0.47216 0.0
H157 H 0.52291 0.5683 0.46484 0.0
H158 H 0.21801 0.71922 0.91785 0.0
C159 C 0.19727 0.69243 0.90297 0.0
C160 C 0.1795 0.65242 0.91249 0.0
C161 C 0.18963 0.69686 0.87408 0.0
H162 H 0.13865 0.58726 0.90114 0.0
C163 C 0.15355 0.61731 0.89331 0.0
C164 C 0.14473 0.6214 0.86461 0.0
C165 C 0.16282 0.6613 0.85519 0.0
C166 C 0.21115 0.73721 0.86298 0.0
H167 H 0.15581 0.66473 0.83303 0.0
C168 C 0.22832 0.73237 0.83802 0.0
C169 C 0.2496 0.76932 0.82702 0.0
C170 C 0.21554 0.78018 0.87697 0.0
H171 H 0.20235 0.7851 0.89615 0.0
C172 C 0.23691 0.81729 0.86608 0.0
H173 H 0.22693 0.69938 0.8276 0.0
C174 C 0.25432 0.81194 0.84131 0.0
H175 H 0.27163 0.84079 0.83346 0.0
H176 H 0.24036 0.85026 0.87704 0.0
H177 H 1.0586 0.57349 0.41604 0.0
C178 C 1.08964 0.59464 0.42622 0.0
C179 C 0.12221 0.60862 0.4101 0.0
C180 C 0.09622 0.60883 0.4552 0.0
H181 H 0.18747 0.64734 0.41121 0.0
C182 C 0.16163 0.63743 0.4233 0.0
C183 C 0.16844 0.65299 0.45207 0.0
C184 C 0.13568 0.63822 0.46791 0.0
C185 C 1.06176 0.59292 0.47209 0.0
H186 H 0.14083 0.64976 0.49016 0.0
C187 C 1.03843 0.54848 0.46705 0.0
C188 C 1.00568 0.533 0.48276 0.0
C189 C 1.05194 0.62182 0.49329 0.0
H190 H 1.06873 0.6564 0.49742 0.0
C191 C 1.0197 0.60654 0.50912 0.0
H192 H 1.04643 0.52554 0.45128 0.0
C193 C 0.9967 0.56242 0.50396 0.0
H194 H 0.97142 0.5515 0.51626 0.0
H195 H 1.01229 0.62909 0.52532 0.0
H196 H 0.61362 0.98853 0.76379 0.0
C197 C 0.61469 0.02169 0.77375 0.0
C198 C 0.6279 0.05836 0.7596 0.0
C199 C 0.60023 0.02756 0.79973 0.0
H200 H 0.63791 0.12952 0.76097 0.0
C201 C 0.62715 0.10115 0.77171 0.0
C202 C 0.61307 0.10791 0.79755 0.0
C203 C 0.60036 0.07108 0.81169 0.0
C204 C 0.58168 0.98826 0.81325 0.0
H205 H 0.58954 0.07632 0.8317 0.0
C206 C 0.59973 0.94962 0.8126 0.0
C207 C 0.58021 0.91194 0.82414 0.0
C208 C 0.54415 0.98863 0.82594 0.0
H209 H 0.52865 0.01712 0.82625 0.0
C210 C 0.52527 0.95175 0.83777 0.0
H211 H 0.62851 0.94859 0.80285 0.0
C212 C 0.54302 0.91369 0.83687 0.0
H213 H 0.52769 0.88558 0.84631 0.0
H214 H 0.49644 0.95254 0.84747 0.0
H215 H 0.5726 0.56984 0.09329 0.0
C216 C 0.60601 0.56865 0.10237 0.0
C217 C 0.6348 0.55821 0.08439 0.0
C218 C 0.62081 0.58083 0.1314 0.0
H219 H 0.70123 0.55222 0.08143 0.0
C220 C 0.67907 0.55935 0.09556 0.0
C221 C 0.69549 0.5714 0.12436 0.0
C222 C 0.66582 0.58158 0.14219 0.0
C223 C 0.59042 0.59707 0.14958 0.0
H224 H 0.67802 0.59029 0.16447 0.0
C225 C 0.54372 0.58135 0.14391 0.0
C226 C 0.51571 0.60041 0.15976 0.0
C227 C 0.60804 0.63137 0.17184 0.0
H228 H 0.64301 0.64553 0.17656 0.0
C229 C 0.58078 0.64932 0.18788 0.0
H230 H 0.52903 0.55493 0.12701 0.0
C231 C 0.53523 0.63423 0.18191 0.0
H232 H 0.51521 0.64896 0.19493 0.0
H233 H 0.59509 0.67565 0.20491 0.0
H234 H 0.26721 0.63428 0.15611 0.0
H235 H 0.22476 0.49073 0.14647 0.0
H236 H 0.30147 0.483 0.14482 0.0
H237 H 0.34887 0.63904 0.11048 0.0
H238 H 0.38703 0.68467 0.13236 0.0
H239 H 0.32867 0.67874 0.13201 0.0
H240 H 0.34104 0.679 0.18595 0.0
H241 H 0.39944 0.68509 0.18652 0.0
H242 H 0.36992 0.63958 0.20147 0.0
H243 H 0.38453 0.49128 0.14416 0.0
H244 H 0.46558 0.51495 0.14824 0.0
H245 H 0.45341 0.65284 0.15889 0.0
C246 C 0.27386 0.60114 0.15357 0.0
C247 C 0.23949 0.56309 0.15137 0.0
C248 C 0.25019 0.52046 0.1483 0.0
C249 C 0.2938 0.51572 0.1472 0.0
C250 C 0.32678 0.55389 0.14933 0.0
C251 C 0.31728 0.59581 0.15266 0.0
C252 C 0.3588 0.63159 0.15539 0.0
C253 C 0.35564 0.66019 0.13111 0.0
C254 C 0.36782 0.66051 0.18404 0.0
C255 C 0.39324 0.60336 0.15324 0.0
C256 C 0.37416 0.5586 0.14947 0.0
C257 C 0.39968 0.5263 0.1471 0.0
C258 C 0.44578 0.54003 0.14924 0.0
C259 C 0.46627 0.58575 0.15399 0.0
C260 C 0.43912 0.61758 0.15553 0.0
H261 H 0.89758 0.2949 0.52065 0.0
H262 H 0.85689 0.25298 0.4312 0.0
H263 H 0.89094 0.32784 0.42142 0.0
H264 H 0.87755 0.40542 0.51932 0.0
H265 H 0.9245 0.43041 0.54595 0.0
H266 H 0.89746 0.37343 0.54586 0.0
H267 H 0.97159 0.34846 0.54445 0.0
H268 H 0.99892 0.40537 0.54467 0.0
H269 H 1.0025 0.36365 0.51705 0.0
H270 H 0.9303 0.40687 0.42151 0.0
H271 H 0.97062 0.48508 0.43141 0.0
H272 H 0.98502 0.47529 0.52089 0.0
C273 C 0.89623 0.30138 0.499 0.0
C274 C 0.87486 0.26818 0.47664 0.0
C275 C 0.87298 0.2781 0.44861 0.0
C276 C 0.8923 0.32041 0.44287 0.0
C277 C 0.91308 0.35242 0.46542 0.0
C278 C 0.91503 0.34347 0.49292 0.0
C279 C 0.9387 0.38389 0.51335 0.0
C280 C 0.9077 0.39919 0.53223 0.0
C281 C 0.98041 0.37479 0.5309 0.0
C282 C 0.95012 0.41692 0.49303 0.0
C283 C 0.93512 0.3981 0.46548 0.0
C284 C 0.94219 0.42197 0.44299 0.0
C285 C 0.9653 0.46626 0.44881 0.0
C286 C 0.98094 0.48623 0.4769 0.0
C287 C 0.97303 0.4611 0.49922 0.0
H288 H 0.55936 0.64983 0.81271 0.0
H289 H 0.70128 0.67261 0.83855 0.0
H290 H 0.70607 0.75347 0.83851 0.0
H291 H 0.56127 0.73464 0.76664 0.0
H292 H 0.51262 0.75169 0.77514 0.0
H293 H 0.51843 0.69511 0.77704 0.0
H294 H 0.50704 0.69889 0.82808 0.0
H295 H 0.5011 0.7559 0.82891 0.0
H296 H 0.54229 0.74113 0.85412 0.0
H297 H 0.69431 0.83314 0.83708 0.0
H298 H 0.66668 0.90317 0.83557 0.0
H299 H 0.53313 0.82665 0.8101 0.0
C300 C 0.59155 0.67167 0.81834 0.0
C301 C 0.62992 0.65471 0.82572 0.0
C302 C 0.67135 0.68469 0.83278 0.0
C303 C 0.67443 0.73073 0.83279 0.0
C304 C 0.63586 0.7463 0.82549 0.0
C305 C 0.59528 0.71754 0.81833 0.0
C306 C 0.55867 0.74244 0.81174 0.0
C307 C 0.53639 0.73025 0.78082 0.0
C308 C 0.52528 0.73405 0.83188 0.0
C309 C 0.58461 0.78981 0.81706 0.0
C310 C 0.6292 0.79155 0.82466 0.0
C311 C 0.65945 0.83205 0.83101 0.0
C312 C 0.64352 0.87165 0.82996 0.0
C313 C 0.59775 0.87039 0.82285 0.0
C314 C 0.56825 0.82877 0.81593 0.0
H315 H 0.94075 0.52927 0.11936 0.0
H316 H 0.98952 0.64932 0.17831 0.0
H317 H 0.91315 0.65621 0.18085 0.0
H318 H 0.84943 0.5665 0.08157 0.0
H319 H 0.81255 0.51292 0.07647 0.0
H320 H 0.87113 0.51644 0.0799 0.0
H321 H 0.86867 0.46886 0.12114 0.0
H322 H 0.81007 0.46538 0.1179 0.0
H323 H 0.84552 0.48648 0.15108 0.0
H324 H 0.8306 0.65111 0.17658 0.0
H325 H 0.74952 0.63659 0.16369 0.0
H326 H 0.75317 0.51956 0.10789 0.0
C327 C 0.93545 0.557 0.13284 0.0
C328 C 0.97171 0.58875 0.14863 0.0
C329 C 0.96279 0.6245 0.16593 0.0
C330 C 0.9193 0.62867 0.1676 0.0
C331 C 0.88447 0.59689 0.15188 0.0
C332 C 0.89201 0.56181 0.13472 0.0
C333 C 0.84854 0.5329 0.11946 0.0
C334 C 0.84523 0.53216 0.08745 0.0
C335 C 0.84288 0.4856 0.1279 0.0
C336 C 0.81553 0.55747 0.13047 0.0
C337 C 0.83695 0.59409 0.14934 0.0
C338 C 0.81353 0.62234 0.16192 0.0
C339 C 0.76722 0.61356 0.15464 0.0
C340 C 0.74429 0.57685 0.13477 0.0
C341 C 0.76924 0.54815 0.12298 0.0
H342 H 0.36047 0.86682 0.46114 0.0
H343 H 0.40951 0.84265 0.54557 0.0
H344 H 0.3507 0.77503 0.54041 0.0
H345 H 0.24679 0.83423 0.46472 0.0
H346 H 0.23122 0.80895 0.4287 0.0
H347 H 0.2785 0.85392 0.43859 0.0
H348 H 0.3274 0.80472 0.41797 0.0
H349 H 0.28021 0.75958 0.40798 0.0
H350 H 0.329 0.75136 0.42993 0.0
H351 H 0.28554 0.71078 0.52613 0.0
H352 H 0.21841 0.65555 0.50416 0.0
H353 H 0.21107 0.72404 0.42983 0.0
C354 C 0.35919 0.84691 0.47837 0.0
C355 C 0.38954 0.85971 0.50371 0.0
C356 C 0.38635 0.8334 0.52604 0.0
C357 C 0.35323 0.79492 0.52326 0.0
C358 C 0.32355 0.78342 0.49806 0.0
C359 C 0.32619 0.80869 0.47603 0.0
C360 C 0.28927 0.79014 0.45159 0.0
C361 C 0.2597 0.82382 0.44556 0.0
C362 C 0.30758 0.77558 0.42532 0.0
C363 C 0.26535 0.75055 0.46332 0.0
C364 C 0.28571 0.74704 0.49007 0.0
C365 C 0.26927 0.71322 0.5052 0.0
C366 C 0.23096 0.6822 0.49262 0.0
C367 C 0.2094 0.68539 0.46526 0.0
C368 C 0.22707 0.72016 0.45057 0.0
H369 H 0.57873 0.3558 0.78726 0.0
H370 H 0.64424 0.38836 0.8741 0.0
H371 H 0.64591 0.30927 0.87684 0.0
H372 H 0.51266 0.24648 0.79438 0.0
H373 H 0.52001 0.22193 0.76068 0.0
H374 H 0.5198 0.2804 0.7664 0.0
H375 H 0.59625 0.29899 0.75103 0.0
H376 H 0.59674 0.24067 0.74536 0.0
H377 H 0.64146 0.27801 0.76868 0.0
H378 H 0.64425 0.22712 0.86943 0.0
H379 H 0.64238 0.14892 0.85153 0.0
H380 H 0.57955 0.17026 0.7694 0.0
C381 C 0.59262 0.34612 0.807 0.0
C382 C 0.61105 0.37819 0.83053 0.0
C383 C 0.62987 0.36435 0.8558 0.0
C384 C 0.63083 0.31947 0.85761 0.0
C385 C 0.61301 0.28875 0.83393 0.0
C386 C 0.59435 0.30146 0.80907 0.0
C387 C 0.58044 0.26237 0.78612 0.0
C388 C 0.53024 0.2522 0.77632 0.0
C389 C 0.60521 0.27051 0.76134 0.0
C390 C 0.59485 0.22597 0.80182 0.0
C391 C 0.61302 0.24166 0.82948 0.0
C392 C 0.62977 0.21436 0.84786 0.0
C393 C 0.62844 0.16999 0.83757 0.0
C394 C 0.61096 0.15359 0.80911 0.0
C395 C 0.59343 0.18196 0.79123 0.0
H396 H 0.59339 0.89965 0.51157 0.0
H397 H 0.73255 0.93142 0.506 0.0
H398 H 0.73588 0.85211 0.50684 0.0
H399 H 0.59879 0.81485 0.55785 0.0
H400 H 0.54704 0.78033 0.54048 0.0
H401 H 0.55619 0.83974 0.54058 0.0
H402 H 0.53795 0.82959 0.48625 0.0
H403 H 0.52857 0.77018 0.48591 0.0
H404 H 0.56795 0.79756 0.46626 0.0
H405 H 0.72344 0.76841 0.50801 0.0
H406 H 0.69507 0.68739 0.50586 0.0
H407 H 0.5641 0.71132 0.50988 0.0
C408 C 0.62472 0.89011 0.51073 0.0
C409 C 0.6628 0.9219 0.50887 0.0
C410 C 0.70292 0.90773 0.50741 0.0
C411 C 0.70518 0.86276 0.508 0.0
C412 C 0.66699 0.83233 0.50991 0.0
C413 C 0.62746 0.84545 0.51105 0.0
C414 C 0.59071 0.80614 0.51184 0.0
C415 C 0.57211 0.81054 0.53933 0.0
C416 C 0.55415 0.80054 0.48602 0.0
C417 C 0.61562 0.76871 0.51077 0.0
C418 C 0.65968 0.78443 0.50998 0.0
C419 C 0.68901 0.75579 0.50867 0.0
C420 C 0.6727 0.70986 0.50764 0.0
C421 C 0.6274 0.69303 0.50763 0.0
C422 C 0.59883 0.72312 0.50962 0.0
H423 H 0.90567 0.54435 0.79603 0.0
H424 H 0.91377 0.42399 0.83372 0.0
H425 H 0.99356 0.4373 0.83273 0.0
H426 H 1.00978 0.54824 0.75787 0.0
H427 H 1.02328 0.60773 0.76705 0.0
H428 H 0.96638 0.57904 0.75799 0.0
H429 H 0.95125 0.61433 0.80512 0.0
H430 H 1.00756 0.64241 0.81439 0.0
H431 H 0.9834 0.60619 0.8376 0.0
H432 H 1.07119 0.47413 0.84222 0.0
H433 H 0.13686 0.53101 0.86352 0.0
H434 H 1.07941 0.63113 0.82341 0.0
C435 C 0.9239 0.51936 0.80226 0.0
C436 C 0.90382 0.48293 0.81456 0.0
C437 C 0.92868 0.4518 0.82387 0.0
C438 C 0.97399 0.45909 0.82322 0.0
C439 C 0.99383 0.49766 0.81326 0.0
C440 C 0.96931 0.5271 0.80252 0.0
C441 C 0.99859 0.57107 0.79989 0.0
C442 C 0.99957 0.57684 0.76885 0.0
C443 C 0.98437 0.61073 0.8152 0.0
C444 C 1.04249 0.56389 0.81421 0.0
C445 C 1.03964 0.52053 0.8202 0.0
C446 C 1.07408 0.50778 0.83701 0.0
C447 C 0.11111 0.54046 0.84931 0.0
C448 C 0.11289 0.5856 0.84536 0.0
C449 C 1.07933 0.59679 0.82631 0.0
H450 H 0.34434 0.81002 0.17201 0.0
H451 H 0.26334 0.88232 0.12118 0.0
H452 H 0.3285 0.94227 0.12255 0.0
H453 H 0.4031 0.89928 0.21725 0.0
H454 H 0.4551 0.88175 0.22134 0.0
H455 H 0.4045 0.84101 0.21205 0.0
H456 H 0.43122 0.80957 0.16779 0.0
H457 H 0.48221 0.85019 0.17705 0.0
H458 H 0.44873 0.84632 0.14295 0.0
H459 H 0.39864 0.99881 0.13562 0.0
H460 H 0.46754 0.04816 0.15999 0.0
H461 H 0.50477 0.93808 0.20069 0.0
C462 C 0.34067 0.8377 0.1603 0.0
C463 C 0.29889 0.84143 0.14632 0.0
C464 C 0.29507 0.87889 0.13206 0.0
C465 C 0.33195 0.9129 0.13253 0.0
C466 C 0.37247 0.90878 0.14717 0.0
C467 C 0.37712 0.87195 0.16063 0.0
C468 C 0.42299 0.87785 0.17752 0.0
C469 C 0.42128 0.87481 0.20888 0.0
C470 C 0.44775 0.84397 0.1656 0.0
C471 C 0.44274 0.92458 0.17253 0.0
C472 C 0.41335 0.94153 0.15457 0.0
C473 C 0.42242 0.98556 0.14911 0.0
C474 C 0.46193 0.01334 0.16298 0.0
C475 C 0.49198 0.9971 0.18221 0.0
C476 C 0.48265 0.95164 0.18616 0.0
H477 H 0.70644 0.22166 0.52797 0.0
H478 H 0.5772 0.17332 0.47668 0.0
H479 H 0.56872 0.2505 0.47346 0.0
H480 H 0.67755 0.30839 0.56805 0.0
H481 H 0.72917 0.34712 0.57034 0.0
H482 H 0.72748 0.2883 0.56593 0.0
H483 H 0.76337 0.29626 0.52134 0.0
H484 H 0.7651 0.35522 0.52562 0.0
H485 H 0.73807 0.32183 0.49304 0.0
H486 H 0.57137 0.33219 0.47868 0.0
H487 H 0.583 0.41236 0.49453 0.0
H488 H 0.71049 0.40864 0.54243 0.0
C489 C 0.67666 0.22731 0.51569 0.0
C490 C 0.64252 0.19133 0.50253 0.0
C491 C 0.60379 0.20023 0.48702 0.0
C492 C 0.59876 0.24402 0.48489 0.0
C493 C 0.63275 0.27869 0.49835 0.0
C494 C 0.67094 0.27091 0.51351 0.0
C495 C 0.70088 0.3141 0.52781 0.0
C496 C 0.70923 0.31448 0.55993 0.0
C497 C 0.74443 0.32233 0.51626 0.0
C498 C 0.67289 0.34715 0.51902 0.0
C499 C 0.6341 0.32608 0.50161 0.0
C500 C 0.6019 0.3492 0.49198 0.0
C501 C 0.60895 0.39488 0.50095 0.0
C502 C 0.64777 0.417 0.51959 0.0
C503 C 0.6805 0.39277 0.52814 0.0
H504 H 0.43675 0.67108 0.78392 0.0
H505 H 0.33702 0.5853 0.72059 0.0
H506 H 0.28924 0.6401 0.72281 0.0
H507 H 0.36938 0.69283 0.82646 0.0
H508 H 0.39705 0.74944 0.83913 0.0
H509 H 0.42704 0.71103 0.82541 0.0
H510 H 0.44974 0.76711 0.78989 0.0
H511 H 0.41762 0.80384 0.80359 0.0
H512 H 0.40756 0.78411 0.76657 0.0
H513 H 0.24566 0.691 0.74092 0.0
H514 H 0.20994 0.73033 0.77455 0.0
H515 H 0.33682 0.78452 0.8264 0.0
C516 C 0.40591 0.66518 0.76937 0.0
C517 C 0.39075 0.62444 0.75178 0.0
C518 C 0.34932 0.61659 0.734 0.0
C519 C 0.32215 0.64773 0.735 0.0
C520 C 0.33697 0.68661 0.75381 0.0
C521 C 0.37823 0.69566 0.77052 0.0
C522 C 0.38284 0.73444 0.79307 0.0
C523 C 0.39474 0.72114 0.82272 0.0
C524 C 0.41642 0.77477 0.78796 0.0
C525 C 0.33672 0.74332 0.78803 0.0
C526 C 0.31116 0.71655 0.76462 0.0
C527 C 0.26567 0.71331 0.7586 0.0
C528 C 0.2456 0.73586 0.77773 0.0
C529 C 0.27102 0.76113 0.80256 0.0
C530 C 0.3172 0.76689 0.80691 0.0
H531 H 0.86942 0.31502 0.12864 0.0
H532 H 0.94681 0.32345 0.2116 0.0
H533 H 0.88254 0.27934 0.22749 0.0
H534 H 0.77142 0.32912 0.15136 0.0
H535 H 0.73542 0.29111 0.1233 0.0
H536 H 0.78857 0.31955 0.11785 0.0
H537 H 0.80855 0.24399 0.10324 0.0
H538 H 0.75533 0.21526 0.10859 0.0
H539 H 0.80476 0.20182 0.12665 0.0
H540 H 0.80825 0.23745 0.23487 0.0
H541 H 0.7294 0.20446 0.23359 0.0
H542 H 0.70134 0.22412 0.14585 0.0
C543 C 0.87309 0.30676 0.14997 0.0
C544 C 0.91312 0.32237 0.16885 0.0
C545 C 0.91634 0.31189 0.19683 0.0
C546 C 0.88013 0.28666 0.20598 0.0
C547 C 0.84094 0.27219 0.1869 0.0
C548 C 0.83724 0.28191 0.15948 0.0
C549 C 0.79079 0.26499 0.14364 0.0
C550 C 0.77036 0.30349 0.13345 0.0
C551 C 0.78982 0.22939 0.11908 0.0
C552 C 0.76871 0.24498 0.16656 0.0
C553 C 0.79821 0.24889 0.19127 0.0
C554 C 0.78493 0.23391 0.21556 0.0
C555 C 0.74017 0.21508 0.21463 0.0
C556 C 0.7093 0.2119 0.18968 0.0
C557 C 0.72412 0.22645 0.1653 0.0
H558 H 0.10392 0.6458 0.06099 0.0
H559 H 0.16583 0.53212 0.06928 0.0
H560 H 0.19739 0.54548 0.02652 0.0
H561 H 1.07318 0.62513 0.98655 0.0
H562 H 1.08277 0.68304 0.9814 0.0
H563 H 1.06791 0.6665 0.01389 0.0
H564 H 0.13809 0.72054 0.04131 0.0
H565 H 0.15355 0.73662 0.00879 0.0
H566 H 0.19132 0.71545 0.03319 0.0
H567 H 0.21975 0.56848 0.98234 0.0
H568 H 0.22386 0.5943 0.93589 0.0
H569 H 0.14715 0.69248 0.95509 0.0
C570 C 0.12422 0.62383 0.05382 0.0
C571 C 0.13236 0.58788 0.06845 0.0
C572 C 0.15877 0.55962 0.05829 0.0
C573 C 0.1773 0.56724 0.0342 0.0
C574 C 0.16902 0.60314 0.02041 0.0
C575 C 0.14262 0.63064 0.02955 0.0
C576 C 0.13619 0.66471 0.00953 0.0
C577 C 1.08711 0.65951 -0.0029 0.0
C578 C 0.15598 0.71214 0.02408 0.0
C579 C 0.1624 0.65144 0.98745 0.0
C580 C 0.18173 0.61636 -0.0055 0.0
C581 C 0.20531 0.5963 0.97672 0.0
C582 C 0.20773 0.61129 0.95053 0.0
C583 C 0.18663 0.64584 0.9424 0.0
C584 C 0.16471 0.66699 0.96134 0.0
H585 H 0.67866 0.07248 0.41089 0.0
H586 H 0.54864 0.01104 0.42549 0.0
H587 H 0.51868 0.01056 0.37566 0.0
H588 H 0.64334 0.14226 0.36032 0.0
H589 H 0.68332 0.13428 0.33823 0.0
H590 H 0.69547 0.13056 0.37533 0.0
H591 H 0.71071 0.05169 0.36478 0.0
H592 H 0.69896 0.05529 0.32765 0.0
H593 H 0.6692 0.00955 0.34228 0.0
H594 H 0.50143 0.01984 0.32572 0.0
H595 H 0.49873 0.03038 0.27606 0.0
H596 H 0.64044 0.08075 0.29127 0.0
C597 C 0.64394 0.0588 0.40352 0.0
C598 C 0.61599 0.04182 0.42213 0.0
C599 C 0.5708 0.02399 0.41168 0.0
C600 C 0.55334 0.02379 0.38341 0.0
C601 C 0.58154 0.04108 0.36571 0.0
C602 C 0.62596 0.05767 0.3751 0.0
C603 C 0.64891 0.07286 0.35113 0.0
C604 C 0.66894 0.12297 0.35659 0.0
C605 C 0.68402 0.04572 0.34617 0.0
C606 C 0.61029 0.06232 0.32692 0.0
C607 C 0.57179 0.04449 0.33607 0.0
C608 C 0.53145 0.03298 0.31813 0.0
C609 C 0.53039 0.03879 0.28984 0.0
C610 C 0.56957 0.05517 0.27944 0.0
C611 C 0.60999 0.06786 0.29846 0.0
H612 H 0.59715 0.54006 0.7271 0.0
H613 H 0.7143 0.49095 0.75733 0.0
H614 H 0.73709 0.49507 0.71103 0.0
H615 H 0.57478 0.47811 0.65985 0.0
H616 H 0.55521 0.52088 0.64177 0.0
H617 H 0.55032 0.51804 0.67808 0.0
H618 H 0.59304 0.59973 0.69055 0.0
H619 H 0.59846 0.60267 0.65425 0.0
H620 H 0.64685 0.61556 0.68115 0.0
H621 H 0.74519 0.50021 0.66097 0.0
H622 H 0.73514 0.50079 0.60951 0.0
H623 H 0.61229 0.5452 0.61131 0.0
C624 C 0.62783 0.53059 0.72408 0.0
C625 C 0.65417 0.51561 0.74599 0.0
C626 C 0.69375 0.50293 0.74101 0.0
C627 C 0.70708 0.5053 0.71478 0.0
C628 C 0.68046 0.52033 0.69369 0.0
C629 C 0.64152 0.53249 0.69795 0.0
C630 C 0.61741 0.54443 0.67116 0.0
C631 C 0.57175 0.51351 0.66219 0.0
C632 C 0.61374 0.59352 0.67449 0.0
C633 C 0.64842 0.53613 0.65104 0.0
C634 C 0.6849 0.52287 0.66458 0.0
C635 C 0.717 0.51095 0.65017 0.0
C636 C 0.71103 0.51136 0.62099 0.0
C637 C 0.67316 0.52335 0.60653 0.0
C638 C 0.64206 0.53692 0.62191 0.0
H639 H 0.62781 0.10386 0.60104 0.0
H640 H 0.72589 0.02258 0.59643 0.0
H641 H 0.72506 0.01046 0.64612 0.0
H642 H 0.66932 0.15609 0.67264 0.0
H643 H 0.61484 0.15587 0.68043 0.0
H644 H 0.62506 0.15933 0.64505 0.0
H645 H 0.56258 0.08997 0.62743 0.0
H646 H 0.55249 0.086 0.66279 0.0
H647 H 0.56456 0.03912 0.64266 0.0
H648 H 0.70969 1.00394 0.69598 0.0
H649 H 0.68572 0.00902 0.7425 0.0
H650 H 0.5984 0.09478 0.71328 0.0
C651 C 0.64954 0.0839 0.61051 0.0
C652 C 0.67694 0.06418 0.59487 0.0
C653 C 0.70481 0.03825 0.60808 0.0
C654 C 0.70441 0.031 0.63624 0.0
C655 C 0.67618 0.05018 0.65086 0.0
C656 C 0.64968 0.07653 0.63848 0.0
C657 C 0.62196 0.09308 0.65845 0.0
C658 C 0.63351 0.14412 0.6645 0.0
C659 C 0.57247 0.07601 0.64715 0.0
C660 C 0.63672 0.07173 0.68401 0.0
C661 C 0.66785 0.04692 0.67931 0.0
C662 C 0.68556 0.02354 0.69993 0.0
C663 C 0.6716 0.02634 0.72616 0.0
C664 C 0.64055 0.05256 0.73146 0.0
C665 C 0.62269 0.07501 0.70993 0.0
H666 H 0.65846 0.57376 0.92461 0.0
H667 H 0.53311 0.48032 0.90022 0.0
H668 H 0.52541 0.48063 0.95033 0.0
H669 H 0.69647 0.52629 0.98412 0.0
H670 H 0.72319 0.57864 0.00467 0.0
H671 H 0.71695 0.57343 0.96695 0.0
H672 H 0.67661 0.63938 0.96611 0.0
H673 H 0.68301 0.64503 0.00388 0.0
H674 H 0.62895 0.63757 0.98301 0.0
H675 H 0.53395 0.48891 0.00396 0.0
H676 H 0.55788 0.50441 0.0556 0.0
H677 H 0.67733 0.59215 0.0434 0.0
C678 C 0.62904 0.55366 0.92963 0.0
C679 C 0.59633 0.52705 0.90841 0.0
C680 C 0.55855 0.50112 0.91608 0.0
C681 C 0.55391 0.50107 0.94449 0.0
C682 C 0.58726 0.52721 0.96489 0.0
C683 C 0.62398 0.55315 0.95769 0.0
C684 C 0.65605 0.57708 0.98338 0.0
C685 C 0.70079 0.563 0.98485 0.0
C686 C 0.66145 0.62777 0.98413 0.0
C687 C 0.63205 0.56014 0.00628 0.0
C688 C 0.59229 0.53164 -0.00467 0.0
C689 C 0.56491 0.51138 0.01271 0.0
C690 C 0.57869 0.52043 0.04198 0.0
C691 C 0.61959 0.54921 0.0535 0.0
C692 C 0.64621 0.56946 0.03527 0.0
H693 H 0.13785 0.63396 0.24944 0.0
H694 H 1.06776 0.49653 0.22864 0.0
H695 H 1.06488 0.49145 0.27886 0.0
H696 H 0.20344 0.62084 0.31435 0.0
H697 H 0.1995 0.67366 0.33185 0.0
H698 H 0.19669 0.66619 0.2943 0.0
H699 H 0.12166 0.69088 0.28759 0.0
H700 H 0.12426 0.69847 0.32511 0.0
H701 H 1.07715 0.66244 0.30307 0.0
H702 H 1.07035 0.50126 0.3315 0.0
H703 H 1.0824 0.52572 0.38248 0.0
H704 H 0.14582 0.65762 0.36822 0.0
C705 C 0.12211 0.60268 0.25542 0.0
C706 C 0.10319 0.56558 0.23512 0.0
C707 C 1.08246 0.52543 0.24382 0.0
C708 C 1.08072 0.52218 0.27229 0.0
C709 C 0.09959 0.55944 0.29175 0.0
C710 C 0.11973 0.59897 0.28368 0.0
C711 C 0.13668 0.63438 0.30866 0.0
C712 C 0.18707 0.64965 0.31251 0.0
C713 C 0.11354 0.67386 0.30594 0.0
C714 C 0.12313 0.60852 0.33206 0.0
C715 C 0.1019 0.56533 0.32192 0.0
C716 C 1.08672 0.53508 0.33967 0.0
C717 C 0.09346 0.54939 0.36858 0.0
C718 C 0.115 0.59363 0.37943 0.0
C719 C 0.1298 0.62343 0.36074 0.0
loop_
_geom_bond_atom_site_label_1
_geom_bond_atom_site_label_2
_geom_bond_distance
_geom_bond_site_symmetry_2
_ccdc_geom_bond_type
Dy0 O3 2.307 1_455 S
Dy0 O5 2.395 . S
Dy0 O6 2.379 . S
Dy0 O8 2.339 . S
Dy0 O10 2.298 . S
Dy0 O14 2.275 . S
Dy0 C22 2.738 . S
Dy1 O4 2.298 1_455 S
Dy1 O7 2.275 . S
Dy1 O9 2.307 . S
Dy1 O11 2.395 1_455 S
Dy1 O12 2.379 1_455 S
Dy1 O15 2.339 . S
Dy1 C31 2.738 1_455 S
C2 O14 1.254 . S
C2 O15 1.257 . S
O3 Dy0 2.307 1_655 S
O3 C13 1.266 . S
O4 Dy1 2.298 1_655 S
O4 C13 1.236 . S
O5 Dy0 2.395 . S
O5 C22 1.255 . S
O6 Dy0 2.379 . S
O6 C22 1.249 . S
O7 Dy1 2.275 . S
O7 C23 1.254 . S
O8 Dy0 2.339 . S
O8 C23 1.257 . S
O9 Dy1 2.307 . S
O9 C24 1.266 . S
O10 Dy0 2.298 . S
O10 C24 1.236 . S
O11 Dy1 2.395 1_655 S
O11 C31 1.255 . S
O12 Dy1 2.379 1_655 S
O12 C31 1.249 . S
C13 O3 1.266 . S
C13 O4 1.236 . S
O14 Dy0 2.275 . S
O14 C2 1.254 . S
O15 Dy1 2.339 . S
O15 C2 1.257 . S
C16 C19 1.344 . S
C16 C20 1.328 . S
C16 C22 1.516 . S
C17 C18 1.304 . S
C17 C21 1.323 . S
C18 C17 1.304 . S
C18 C19 1.371 . S
C18 H32 0.930 . S
C19 C16 1.344 . S
C19 C18 1.371 . S
C19 H33 0.931 . S
C20 C16 1.328 . S
C20 C21 1.433 . S
C20 H34 0.931 . S
C21 C17 1.323 . S
C21 C20 1.433 . S
C21 H35 0.933 . S
C22 Dy0 2.738 . S
C22 O5 1.255 . S
C22 O6 1.249 . S
C22 C16 1.516 . S
C23 O7 1.254 . S
C23 O8 1.257 . S
C24 O9 1.266 . S
C24 O10 1.236 . S
C25 C28 1.344 . S
C25 C29 1.328 . S
C25 C31 1.516 . S
C26 C27 1.304 . S
C26 C30 1.323 . S
C27 C26 1.304 . S
C27 C28 1.371 . S
C27 H36 0.930 . S
C28 C25 1.344 . S
C28 C27 1.371 . S
C28 H37 0.931 . S
C29 C25 1.328 . S
C29 C30 1.433 . S
C29 H38 0.931 . S
C30 C26 1.323 . S
C30 C29 1.433 . S
C30 H39 0.933 . S
C31 Dy1 2.738 1_655 S
C31 O11 1.255 . S
C31 O12 1.249 . S
C31 C25 1.516 . S
H32 C18 0.930 . S
H33 C19 0.931 . S
H34 C20 0.931 . S
H35 C21 0.933 . S
H36 C27 0.930 . S
H37 C28 0.931 . S
H38 C29 0.931 . S
H39 C30 0.933 . S
Dy40 O43 2.307 . S
Dy40 O45 2.395 1_545 S
Dy40 O46 2.379 1_545 S
Dy40 O48 2.339 . S
Dy40 O50 2.298 1_545 S
Dy40 O54 2.275 . S
Dy40 C62 2.738 1_545 S
Dy41 O44 2.298 . S
Dy41 O47 2.275 . S
Dy41 O49 2.307 . S
Dy41 O51 2.395 . S
Dy41 O52 2.379 . S
Dy41 O55 2.339 . S
Dy41 C71 2.738 . S
C42 O54 1.254 . S
C42 O55 1.257 . S
O43 Dy40 2.307 . S
O43 C53 1.266 . S
O44 Dy41 2.298 . S
O44 C53 1.236 . S
O45 Dy40 2.395 1_565 S
O45 C62 1.255 . S
O46 Dy40 2.379 1_565 S
O46 C62 1.249 . S
O47 Dy41 2.275 . S
O47 C63 1.254 . S
O48 Dy40 2.339 . S
O48 C63 1.257 . S
O49 Dy41 2.307 . S
O49 C64 1.266 1_545 S
O50 Dy40 2.298 1_565 S
O50 C64 1.236 . S
O51 Dy41 2.395 . S
O51 C71 1.255 . S
O52 Dy41 2.379 . S
O52 C71 1.249 . S
C53 O43 1.266 . S
C53 O44 1.236 . S
O54 Dy40 2.275 . S
O54 C42 1.254 . S
O55 Dy41 2.339 . S
O55 C42 1.257 . S
C56 C59 1.344 . S
C56 C60 1.328 . S
C56 C62 1.516 . S
C57 C58 1.304 . S
C57 C61 1.323 . S
C58 C57 1.304 . S
C58 C59 1.371 . S
C58 H72 0.930 . S
C59 C56 1.344 . S
C59 C58 1.371 . S
C59 H73 0.931 . S
C60 C56 1.328 . S
C60 C61 1.433 . S
C60 H74 0.931 . S
C61 C57 1.323 . S
C61 C60 1.433 . S
C61 H75 0.933 . S
C62 Dy40 2.738 1_565 S
C62 O45 1.255 . S
C62 O46 1.249 . S
C62 C56 1.516 . S
C63 O47 1.254 . S
C63 O48 1.257 . S
C64 O49 1.266 1_565 S
C64 O50 1.236 . S
C65 C68 1.344 . S
C65 C69 1.328 . S
C65 C71 1.516 . S
C66 C67 1.304 . S
C66 C70 1.323 . S
C67 C66 1.304 . S
C67 C68 1.371 . S
C67 H76 0.930 . S
C68 C65 1.344 . S
C68 C67 1.371 . S
C68 H77 0.931 . S
C69 C65 1.328 . S
C69 C70 1.433 . S
C69 H78 0.931 . S
C70 C66 1.323 . S
C70 C69 1.433 . S
C70 H79 0.933 . S
C71 Dy41 2.738 . S
C71 O51 1.255 . S
C71 O52 1.249 . S
C71 C65 1.516 . S
H72 C58 0.930 . S
H73 C59 0.931 . S
H74 C60 0.931 . S
H75 C61 0.933 . S
H76 C67 0.930 . S
H77 C68 0.931 . S
H78 C69 0.931 . S
H79 C70 0.933 . S
Dy80 O83 2.307 . S
Dy80 O85 2.395 . S
Dy80 O86 2.379 . S
Dy80 O88 2.339 . S
Dy80 O90 2.298 . S
Dy80 O94 2.275 . S
Dy80 C102 2.738 . S
Dy81 O84 2.298 . S
Dy81 O87 2.275 . S
Dy81 O89 2.307 . S
Dy81 O91 2.395 . S
Dy81 O92 2.379 . S
Dy81 O95 2.339 . S
Dy81 C111 2.738 . S
C82 O94 1.254 . S
C82 O95 1.257 . S
O83 Dy80 2.307 . S
O83 C93 1.266 . S
O84 Dy81 2.298 . S
O84 C93 1.236 . S
O85 Dy80 2.395 . S
O85 C102 1.255 . S
O86 Dy80 2.379 . S
O86 C102 1.249 . S
O87 Dy81 2.275 . S
O87 C103 1.254 . S
O88 Dy80 2.339 . S
O88 C103 1.257 . S
O89 Dy81 2.307 . S
O89 C104 1.266 . S
O90 Dy80 2.298 . S
O90 C104 1.236 . S
O91 Dy81 2.395 . S
O91 C111 1.255 . S
O92 Dy81 2.379 . S
O92 C111 1.249 . S
C93 O83 1.266 . S
C93 O84 1.236 . S
O94 Dy80 2.275 . S
O94 C82 1.254 . S
O95 Dy81 2.339 . S
O95 C82 1.257 . S
C96 C99 1.344 . S
C96 C100 1.328 . S
C96 C102 1.516 . S
C97 C98 1.304 . S
C97 C101 1.323 . S
C98 C97 1.304 . S
C98 C99 1.371 . S
C98 H112 0.930 . S
C99 C96 1.344 . S
C99 C98 1.371 . S
C99 H113 0.931 . S
C100 C96 1.328 . S
C100 C101 1.433 . S
C100 H114 0.931 . S
C101 C97 1.323 . S
C101 C100 1.433 . S
C101 H115 0.933 . S
C102 Dy80 2.738 . S
C102 O85 1.255 . S
C102 O86 1.249 . S
C102 C96 1.516 . S
C103 O87 1.254 . S
C103 O88 1.257 . S
C104 O89 1.266 . S
C104 O90 1.236 . S
C105 C108 1.344 . S
C105 C109 1.328 . S
C105 C111 1.516 . S
C106 C107 1.304 . S
C106 C110 1.323 . S
C107 C106 1.304 . S
C107 C108 1.371 . S
C107 H116 0.930 . S
C108 C105 1.344 . S
C108 C107 1.371 . S
C108 H117 0.931 . S
C109 C105 1.328 . S
C109 C110 1.433 . S
C109 H118 0.931 . S
C110 C106 1.323 . S
C110 C109 1.433 . S
C110 H119 0.933 . S
C111 Dy81 2.738 . S
C111 O91 1.255 . S
C111 O92 1.249 . S
C111 C105 1.516 . S
H112 C98 0.930 . S
H113 C99 0.931 . S
H114 C100 0.931 . S
H115 C101 0.933 . S
H116 C107 0.930 . S
H117 C108 0.931 . S
H118 C109 0.931 . S
H119 C110 0.933 . S
H120 C121 0.949 . S
C121 H120 0.949 . S
C121 C122 1.395 . S
C121 C123 1.391 . S
C122 C121 1.395 . S
C122 C125 1.390 . S
C123 C121 1.391 . S
C123 C127 1.387 . S
C123 C128 1.491 . S
H124 C125 0.950 . S
C125 C122 1.390 . S
C125 H124 0.950 . S
C125 C126 1.378 . S
C126 C125 1.378 . S
C126 C127 1.409 . S
C127 C123 1.387 . S
C127 C126 1.409 . S
C127 H129 0.951 . S
C128 C123 1.491 . S
C128 C130 1.382 . S
C128 C132 1.404 . S
H129 C127 0.951 . S
C130 C128 1.382 . S
C130 C131 1.390 . S
C130 H135 0.949 . S
C131 C130 1.390 . S
C131 C136 1.399 . S
C132 C128 1.404 . S
C132 H133 0.950 . S
C132 C134 1.375 . S
H133 C132 0.950 . S
C134 C132 1.375 . S
C134 C136 1.382 . S
C134 H138 0.950 . S
H135 C130 0.949 . S
C136 C131 1.399 . S
C136 C134 1.382 . S
C136 H137 0.952 . S
H137 C136 0.952 . S
H138 C134 0.950 . S
H139 C140 0.949 . S
C140 H139 0.949 . S
C140 C141 1.395 . S
C140 C142 1.391 . S
C141 C140 1.395 . S
C141 C144 1.390 . S
C142 C140 1.391 . S
C142 C146 1.387 . S
C142 C147 1.491 . S
H143 C144 0.950 . S
C144 C141 1.390 . S
C144 H143 0.950 . S
C144 C145 1.378 . S
C145 C144 1.378 . S
C145 C146 1.409 . S
C146 C142 1.387 . S
C146 C145 1.409 . S
C146 H148 0.951 . S
C147 C142 1.491 . S
C147 C149 1.382 . S
C147 C151 1.404 . S
H148 C146 0.951 . S
C149 C147 1.382 . S
C149 C150 1.390 . S
C149 H154 0.949 . S
C150 C149 1.390 . S
C150 C155 1.399 . S
C151 C147 1.404 . S
C151 H152 0.950 . S
C151 C153 1.375 . S
H152 C151 0.950 . S
C153 C151 1.375 . S
C153 C155 1.382 . S
C153 H157 0.950 . S
H154 C149 0.949 . S
C155 C150 1.399 . S
C155 C153 1.382 . S
C155 H156 0.952 . S
H156 C155 0.952 . S
H157 C153 0.950 . S
H158 C159 0.949 . S
C159 H158 0.949 . S
C159 C160 1.395 . S
C159 C161 1.391 . S
C160 C159 1.395 . S
C160 C163 1.390 1_455 S
C161 C159 1.391 . S
C161 C165 1.387 . S
C161 C166 1.491 . S
H162 C163 0.950 . S
C163 C160 1.390 1_655 S
C163 H162 0.950 . S
C163 C164 1.378 . S
C164 C163 1.378 . S
C164 C165 1.409 1_655 S
C165 C161 1.387 . S
C165 C164 1.409 1_455 S
C165 H167 0.951 . S
C166 C161 1.491 . S
C166 C168 1.382 . S
C166 C170 1.404 . S
H167 C165 0.951 . S
C168 C166 1.382 . S
C168 C169 1.390 . S
C168 H173 0.949 . S
C169 C168 1.390 . S
C169 C174 1.399 . S
C170 C166 1.404 . S
C170 H171 0.950 . S
C170 C172 1.375 . S
H171 C170 0.950 . S
C172 C170 1.375 . S
C172 C174 1.382 . S
C172 H176 0.950 . S
H173 C168 0.949 . S
C174 C169 1.399 . S
C174 C172 1.382 . S
C174 H175 0.952 . S
H175 C174 0.952 . S
H176 C172 0.950 . S
H177 C178 0.949 1_655 S
C178 H177 0.949 1_455 S
C178 C179 1.395 . S
C178 C180 1.391 . S
C179 C178 1.395 . S
C179 C182 1.390 . S
C180 C178 1.391 . S
C180 C184 1.387 . S
C180 C185 1.491 1_455 S
H181 C182 0.950 . S
C182 C179 1.390 . S
C182 H181 0.950 . S
C182 C183 1.378 . S
C183 C182 1.378 . S
C183 C184 1.409 . S
C184 C180 1.387 . S
C184 C183 1.409 . S
C184 H186 0.951 . S
C185 C180 1.491 1_655 S
C185 C187 1.382 . S
C185 C189 1.404 . S
H186 C184 0.951 . S
C187 C185 1.382 . S
C187 C188 1.390 . S
C187 H192 0.949 . S
C188 C187 1.390 . S
C188 C193 1.399 . S
C189 C185 1.404 . S
C189 H190 0.950 1_655 S
C189 C191 1.375 . S
H190 C189 0.950 1_455 S
C191 C189 1.375 . S
C191 C193 1.382 . S
C191 H195 0.950 . S
H192 C187 0.949 . S
C193 C188 1.399 . S
C193 C191 1.382 . S
C193 H194 0.952 . S
H194 C193 0.952 . S
H195 C191 0.950 . S
H196 C197 0.949 1_565 S
C197 H196 0.949 1_545 S
C197 C198 1.395 . S
C197 C199 1.391 . S
C198 C197 1.395 . S
C198 C201 1.390 . S
C199 C197 1.391 . S
C199 C203 1.387 . S
C199 C204 1.491 1_545 S
H200 C201 0.950 . S
C201 C198 1.390 . S
C201 H200 0.950 . S
C201 C202 1.378 . S
C202 C201 1.378 . S
C202 C203 1.409 . S
C203 C199 1.387 . S
C203 C202 1.409 . S
C203 H205 0.951 . S
C204 C199 1.491 1_565 S
C204 C206 1.382 . S
C204 C208 1.404 . S
H205 C203 0.951 . S
C206 C204 1.382 . S
C206 C207 1.390 . S
C206 H211 0.949 . S
C207 C206 1.390 . S
C207 C212 1.399 . S
C208 C204 1.404 . S
C208 H209 0.950 . S
C208 C210 1.375 . S
H209 C208 0.950 . S
C210 C208 1.375 . S
C210 C212 1.382 . S
C210 H214 0.950 . S
H211 C206 0.949 . S
C212 C207 1.399 . S
C212 C210 1.382 . S
C212 H213 0.952 . S
H213 C212 0.952 . S
H214 C210 0.950 . S
H215 C216 0.949 . S
C216 H215 0.949 . S
C216 C217 1.395 . S
C216 C218 1.391 . S
C217 C216 1.395 . S
C217 C220 1.390 . S
C218 C216 1.391 . S
C218 C222 1.387 . S
C218 C223 1.491 . S
H219 C220 0.950 . S
C220 C217 1.390 . S
C220 H219 0.950 . S
C220 C221 1.378 . S
C221 C220 1.378 . S
C221 C222 1.409 . S
C222 C218 1.387 . S
C222 C221 1.409 . S
C222 H224 0.951 . S
C223 C218 1.491 . S
C223 C225 1.382 . S
C223 C227 1.404 . S
H224 C222 0.951 . S
C225 C223 1.382 . S
C225 C226 1.390 . S
C225 H230 0.949 . S
C226 C225 1.390 . S
C226 C231 1.399 . S
C227 C223 1.404 . S
C227 H228 0.950 . S
C227 C229 1.375 . S
H228 C227 0.950 . S
C229 C227 1.375 . S
C229 C231 1.382 . S
C229 H233 0.950 . S
H230 C225 0.949 . S
C231 C226 1.399 . S
C231 C229 1.382 . S
C231 H232 0.952 . S
H232 C231 0.952 . S
H233 C229 0.950 . S
H234 C246 0.930 . S
H235 C248 0.930 . S
H236 C249 0.930 . S
H237 C253 0.959 . S
H238 C253 0.959 . S
H239 C253 0.961 . S
H240 C254 0.960 . S
H241 C254 0.961 . S
H242 C254 0.959 . S
H243 C257 0.929 . S
H244 C258 0.931 . S
H245 C260 0.930 . S
C246 H234 0.930 . S
C246 C247 1.399 . S
C246 C251 1.399 . S
C247 C246 1.399 . S
C247 C248 1.376 . S
C248 H235 0.930 . S
C248 C247 1.376 . S
C248 C249 1.388 . S
C249 H236 0.930 . S
C249 C248 1.388 . S
C249 C250 1.390 . S
C250 C249 1.390 . S
C250 C251 1.394 . S
C250 C256 1.465 . S
C251 C246 1.399 . S
C251 C250 1.394 . S
C251 C252 1.516 . S
C252 C251 1.516 . S
C252 C253 1.502 . S
C252 C254 1.561 . S
C252 C255 1.526 . S
C253 H237 0.959 . S
C253 H238 0.959 . S
C253 H239 0.961 . S
C253 C252 1.502 . S
C254 H240 0.960 . S
C254 H241 0.961 . S
C254 H242 0.959 . S
C254 C252 1.561 . S
C255 C252 1.526 . S
C255 C256 1.396 . S
C255 C260 1.390 . S
C256 C250 1.465 . S
C256 C255 1.396 . S
C256 C257 1.399 . S
C257 H243 0.929 . S
C257 C256 1.399 . S
C257 C258 1.385 . S
C258 H244 0.931 . S
C258 C257 1.385 . S
C258 C259 1.389 . S
C259 C258 1.389 . S
C259 C260 1.387 . S
C260 H245 0.930 . S
C260 C255 1.390 . S
C260 C259 1.387 . S
H261 C273 0.930 . S
H262 C275 0.930 . S
H263 C276 0.930 . S
H264 C280 0.959 . S
H265 C280 0.959 . S
H266 C280 0.961 . S
H267 C281 0.960 . S
H268 C281 0.961 . S
H269 C281 0.959 . S
H270 C284 0.929 . S
H271 C285 0.931 . S
H272 C287 0.930 . S
C273 H261 0.930 . S
C273 C274 1.399 . S
C273 C278 1.399 . S
C274 C273 1.399 . S
C274 C275 1.376 . S
C275 H262 0.930 . S
C275 C274 1.376 . S
C275 C276 1.388 . S
C276 H263 0.930 . S
C276 C275 1.388 . S
C276 C277 1.390 . S
C277 C276 1.390 . S
C277 C278 1.394 . S
C277 C283 1.465 . S
C278 C273 1.399 . S
C278 C277 1.394 . S
C278 C279 1.516 . S
C279 C278 1.516 . S
C279 C280 1.502 . S
C279 C281 1.561 . S
C279 C282 1.526 . S
C280 H264 0.959 . S
C280 H265 0.959 . S
C280 H266 0.961 . S
C280 C279 1.502 . S
C281 H267 0.960 . S
C281 H268 0.961 . S
C281 H269 0.959 . S
C281 C279 1.561 . S
C282 C279 1.526 . S
C282 C283 1.396 . S
C282 C287 1.390 . S
C283 C277 1.465 . S
C283 C282 1.396 . S
C283 C284 1.399 . S
C284 H270 0.929 . S
C284 C283 1.399 . S
C284 C285 1.385 . S
C285 H271 0.931 . S
C285 C284 1.385 . S
C285 C286 1.389 . S
C286 C285 1.389 . S
C286 C287 1.387 . S
C287 H272 0.930 . S
C287 C282 1.390 . S
C287 C286 1.387 . S
H288 C300 0.930 . S
H289 C302 0.930 . S
H290 C303 0.930 . S
H291 C307 0.959 . S
H292 C307 0.959 . S
H293 C307 0.961 . S
H294 C308 0.960 . S
H295 C308 0.961 . S
H296 C308 0.959 . S
H297 C311 0.929 . S
H298 C312 0.931 . S
H299 C314 0.930 . S
C300 H288 0.930 . S
C300 C301 1.399 . S
C300 C305 1.399 . S
C301 C300 1.399 . S
C301 C302 1.376 . S
C302 H289 0.930 . S
C302 C301 1.376 . S
C302 C303 1.388 . S
C303 H290 0.930 . S
C303 C302 1.388 . S
C303 C304 1.390 . S
C304 C303 1.390 . S
C304 C305 1.394 . S
C304 C310 1.465 . S
C305 C300 1.399 . S
C305 C304 1.394 . S
C305 C306 1.516 . S
C306 C305 1.516 . S
C306 C307 1.502 . S
C306 C308 1.561 . S
C306 C309 1.526 . S
C307 H291 0.959 . S
C307 H292 0.959 . S
C307 H293 0.961 . S
C307 C306 1.502 . S
C308 H294 0.960 . S
C308 H295 0.961 . S
C308 H296 0.959 . S
C308 C306 1.561 . S
C309 C306 1.526 . S
C309 C310 1.396 . S
C309 C314 1.390 . S
C310 C304 1.465 . S
C310 C309 1.396 . S
C310 C311 1.399 . S
C311 H297 0.929 . S
C311 C310 1.399 . S
C311 C312 1.385 . S
C312 H298 0.931 . S
C312 C311 1.385 . S
C312 C313 1.389 . S
C313 C312 1.389 . S
C313 C314 1.387 . S
C314 H299 0.930 . S
C314 C309 1.390 . S
C314 C313 1.387 . S
H315 C327 0.930 . S
H316 C329 0.930 . S
H317 C330 0.930 . S
H318 C334 0.959 . S
H319 C334 0.959 . S
H320 C334 0.961 . S
H321 C335 0.960 . S
H322 C335 0.961 . S
H323 C335 0.959 . S
H324 C338 0.929 . S
H325 C339 0.931 . S
H326 C341 0.930 . S
C327 H315 0.930 . S
C327 C328 1.399 . S
C327 C332 1.399 . S
C328 C327 1.399 . S
C328 C329 1.376 . S
C329 H316 0.930 . S
C329 C328 1.376 . S
C329 C330 1.388 . S
C330 H317 0.930 . S
C330 C329 1.388 . S
C330 C331 1.390 . S
C331 C330 1.390 . S
C331 C332 1.394 . S
C331 C337 1.465 . S
C332 C327 1.399 . S
C332 C331 1.394 . S
C332 C333 1.516 . S
C333 C332 1.516 . S
C333 C334 1.502 . S
C333 C335 1.561 . S
C333 C336 1.526 . S
C334 H318 0.959 . S
C334 H319 0.959 . S
C334 H320 0.961 . S
C334 C333 1.502 . S
C335 H321 0.960 . S
C335 H322 0.961 . S
C335 H323 0.959 . S
C335 C333 1.561 . S
C336 C333 1.526 . S
C336 C337 1.396 . S
C336 C341 1.390 . S
C337 C331 1.465 . S
C337 C336 1.396 . S
C337 C338 1.399 . S
C338 H324 0.929 . S
C338 C337 1.399 . S
C338 C339 1.385 . S
C339 H325 0.931 . S
C339 C338 1.385 . S
C339 C340 1.389 . S
C340 C339 1.389 . S
C340 C341 1.387 . S
C341 H326 0.930 . S
C341 C336 1.390 . S
C341 C340 1.387 . S
H342 C354 0.930 . S
H343 C356 0.930 . S
H344 C357 0.930 . S
H345 C361 0.959 . S
H346 C361 0.959 . S
H347 C361 0.961 . S
H348 C362 0.960 . S
H349 C362 0.961 . S
H350 C362 0.959 . S
H351 C365 0.929 . S
H352 C366 0.931 . S
H353 C368 0.930 . S
C354 H342 0.930 . S
C354 C355 1.399 . S
C354 C359 1.399 . S
C355 C354 1.399 . S
C355 C356 1.376 . S
C356 H343 0.930 . S
C356 C355 1.376 . S
C356 C357 1.388 . S
C357 H344 0.930 . S
C357 C356 1.388 . S
C357 C358 1.390 . S
C358 C357 1.390 . S
C358 C359 1.394 . S
C358 C364 1.465 . S
C359 C354 1.399 . S
C359 C358 1.394 . S
C359 C360 1.516 . S
C360 C359 1.516 . S
C360 C361 1.502 . S
C360 C362 1.561 . S
C360 C363 1.526 . S
C361 H345 0.959 . S
C361 H346 0.959 . S
C361 H347 0.961 . S
C361 C360 1.502 . S
C362 H348 0.960 . S
C362 H349 0.961 . S
C362 H350 0.959 . S
C362 C360 1.561 . S
C363 C360 1.526 . S
C363 C364 1.396 . S
C363 C368 1.390 . S
C364 C358 1.465 . S
C364 C363 1.396 . S
C364 C365 1.399 . S
C365 H351 0.929 . S
C365 C364 1.399 . S
C365 C366 1.385 . S
C366 H352 0.931 . S
C366 C365 1.385 . S
C366 C367 1.389 . S
C367 C366 1.389 . S
C367 C368 1.387 . S
C368 H353 0.930 . S
C368 C363 1.390 . S
C368 C367 1.387 . S
H369 C381 0.930 . S
H370 C383 0.930 . S
H371 C384 0.930 . S
H372 C388 0.959 . S
H373 C388 0.959 . S
H374 C388 0.961 . S
H375 C389 0.960 . S
H376 C389 0.961 . S
H377 C389 0.959 . S
H378 C392 0.929 . S
H379 C393 0.931 . S
H380 C395 0.930 . S
C381 H369 0.930 . S
C381 C382 1.399 . S
C381 C386 1.399 . S
C382 C381 1.399 . S
C382 C383 1.376 . S
C383 H370 0.930 . S
C383 C382 1.376 . S
C383 C384 1.388 . S
C384 H371 0.930 . S
C384 C383 1.388 . S
C384 C385 1.390 . S
C385 C384 1.390 . S
C385 C386 1.394 . S
C385 C391 1.465 . S
C386 C381 1.399 . S
C386 C385 1.394 . S
C386 C387 1.516 . S
C387 C386 1.516 . S
C387 C388 1.502 . S
C387 C389 1.561 . S
C387 C390 1.526 . S
C388 H372 0.959 . S
C388 H373 0.959 . S
C388 H374 0.961 . S
C388 C387 1.502 . S
C389 H375 0.960 . S
C389 H376 0.961 . S
C389 H377 0.959 . S
C389 C387 1.561 . S
C390 C387 1.526 . S
C390 C391 1.396 . S
C390 C395 1.390 . S
C391 C385 1.465 . S
C391 C390 1.396 . S
C391 C392 1.399 . S
C392 H378 0.929 . S
C392 C391 1.399 . S
C392 C393 1.385 . S
C393 H379 0.931 . S
C393 C392 1.385 . S
C393 C394 1.389 . S
C394 C393 1.389 . S
C394 C395 1.387 . S
C395 H380 0.930 . S
C395 C390 1.390 . S
C395 C394 1.387 . S
H396 C408 0.930 . S
H397 C410 0.930 . S
H398 C411 0.930 . S
H399 C415 0.959 . S
H400 C415 0.959 . S
H401 C415 0.961 . S
H402 C416 0.960 . S
H403 C416 0.961 . S
H404 C416 0.959 . S
H405 C419 0.929 . S
H406 C420 0.931 . S
H407 C422 0.930 . S
C408 H396 0.930 . S
C408 C409 1.399 . S
C408 C413 1.399 . S
C409 C408 1.399 . S
C409 C410 1.376 . S
C410 H397 0.930 . S
C410 C409 1.376 . S
C410 C411 1.388 . S
C411 H398 0.930 . S
C411 C410 1.388 . S
C411 C412 1.390 . S
C412 C411 1.390 . S
C412 C413 1.394 . S
C412 C418 1.465 . S
C413 C408 1.399 . S
C413 C412 1.394 . S
C413 C414 1.516 . S
C414 C413 1.516 . S
C414 C415 1.502 . S
C414 C416 1.561 . S
C414 C417 1.526 . S
C415 H399 0.959 . S
C415 H400 0.959 . S
C415 H401 0.961 . S
C415 C414 1.502 . S
C416 H402 0.960 . S
C416 H403 0.961 . S
C416 H404 0.959 . S
C416 C414 1.561 . S
C417 C414 1.526 . S
C417 C418 1.396 . S
C417 C422 1.390 . S
C418 C412 1.465 . S
C418 C417 1.396 . S
C418 C419 1.399 . S
C419 H405 0.929 . S
C419 C418 1.399 . S
C419 C420 1.385 . S
C420 H406 0.931 . S
C420 C419 1.385 . S
C420 C421 1.389 . S
C421 C420 1.389 . S
C421 C422 1.387 . S
C422 H407 0.930 . S
C422 C417 1.390 . S
C422 C421 1.387 . S
H423 C435 0.930 . S
H424 C437 0.930 . S
H425 C438 0.930 . S
H426 C442 0.959 . S
H427 C442 0.959 . S
H428 C442 0.961 . S
H429 C443 0.960 . S
H430 C443 0.961 . S
H431 C443 0.959 . S
H432 C446 0.929 . S
H433 C447 0.931 . S
H434 C449 0.930 . S
C435 H423 0.930 . S
C435 C436 1.399 . S
C435 C440 1.399 . S
C436 C435 1.399 . S
C436 C437 1.376 . S
C437 H424 0.930 . S
C437 C436 1.376 . S
C437 C438 1.388 . S
C438 H425 0.930 . S
C438 C437 1.388 . S
C438 C439 1.390 . S
C439 C438 1.390 . S
C439 C440 1.394 . S
C439 C445 1.465 . S
C440 C435 1.399 . S
C440 C439 1.394 . S
C440 C441 1.516 . S
C441 C440 1.516 . S
C441 C442 1.502 . S
C441 C443 1.561 . S
C441 C444 1.526 . S
C442 H426 0.959 . S
C442 H427 0.959 . S
C442 H428 0.961 . S
C442 C441 1.502 . S
C443 H429 0.960 . S
C443 H430 0.961 . S
C443 H431 0.959 . S
C443 C441 1.561 . S
C444 C441 1.526 . S
C444 C445 1.396 . S
C444 C449 1.390 . S
C445 C439 1.465 . S
C445 C444 1.396 . S
C445 C446 1.399 . S
C446 H432 0.929 . S
C446 C445 1.399 . S
C446 C447 1.385 . S
C447 H433 0.931 . S
C447 C446 1.385 . S
C447 C448 1.389 . S
C448 C447 1.389 . S
C448 C449 1.387 . S
C449 H434 0.930 . S
C449 C444 1.390 . S
C449 C448 1.387 . S
H450 C462 0.930 . S
H451 C464 0.930 . S
H452 C465 0.930 . S
H453 C469 0.959 . S
H454 C469 0.959 . S
H455 C469 0.961 . S
H456 C470 0.960 . S
H457 C470 0.961 . S
H458 C470 0.959 . S
H459 C473 0.930 1_545 S
H460 C474 0.931 . S
H461 C476 0.930 . S
C462 H450 0.930 . S
C462 C463 1.399 . S
C462 C467 1.399 . S
C463 C462 1.399 . S
C463 C464 1.376 . S
C464 H451 0.930 . S
C464 C463 1.376 . S
C464 C465 1.388 . S
C465 H452 0.930 . S
C465 C464 1.388 . S
C465 C466 1.390 . S
C466 C465 1.390 . S
C466 C467 1.394 . S
C466 C472 1.465 . S
C467 C462 1.399 . S
C467 C466 1.394 . S
C467 C468 1.516 . S
C468 C467 1.516 . S
C468 C469 1.502 . S
C468 C470 1.561 . S
C468 C471 1.526 . S
C469 H453 0.959 . S
C469 H454 0.959 . S
C469 H455 0.961 . S
C469 C468 1.502 . S
C470 H456 0.960 . S
C470 H457 0.961 . S
C470 H458 0.959 . S
C470 C468 1.561 . S
C471 C468 1.526 . S
C471 C472 1.396 . S
C471 C476 1.390 . S
C472 C466 1.465 . S
C472 C471 1.396 . S
C472 C473 1.399 . S
C473 H459 0.930 1_565 S
C473 C472 1.399 . S
C473 C474 1.385 1_565 S
C474 H460 0.931 . S
C474 C473 1.385 1_545 S
C474 C475 1.389 . S
C475 C474 1.389 . S
C475 C476 1.387 1_545 S
C476 H461 0.930 . S
C476 C471 1.390 . S
C476 C475 1.387 1_565 S
H477 C489 0.930 . S
H478 C491 0.930 . S
H479 C492 0.930 . S
H480 C496 0.959 . S
H481 C496 0.959 . S
H482 C496 0.961 . S
H483 C497 0.960 . S
H484 C497 0.961 . S
H485 C497 0.959 . S
H486 C500 0.929 . S
H487 C501 0.931 . S
H488 C503 0.930 . S
C489 H477 0.930 . S
C489 C490 1.399 . S
C489 C494 1.399 . S
C490 C489 1.399 . S
C490 C491 1.376 . S
C491 H478 0.930 . S
C491 C490 1.376 . S
C491 C492 1.388 . S
C492 H479 0.930 . S
C492 C491 1.388 . S
C492 C493 1.390 . S
C493 C492 1.390 . S
C493 C494 1.394 . S
C493 C499 1.465 . S
C494 C489 1.399 . S
C494 C493 1.394 . S
C494 C495 1.516 . S
C495 C494 1.516 . S
C495 C496 1.502 . S
C495 C497 1.561 . S
C495 C498 1.526 . S
C496 H480 0.959 . S
C496 H481 0.959 . S
C496 H482 0.961 . S
C496 C495 1.502 . S
C497 H483 0.960 . S
C497 H484 0.961 . S
C497 H485 0.959 . S
C497 C495 1.561 . S
C498 C495 1.526 . S
C498 C499 1.396 . S
C498 C503 1.390 . S
C499 C493 1.465 . S
C499 C498 1.396 . S
C499 C500 1.399 . S
C500 H486 0.929 . S
C500 C499 1.399 . S
C500 C501 1.385 . S
C501 H487 0.931 . S
C501 C500 1.385 . S
C501 C502 1.389 . S
C502 C501 1.389 . S
C502 C503 1.387 . S
C503 H488 0.930 . S
C503 C498 1.390 . S
C503 C502 1.387 . S
H504 C516 0.930 . S
H505 C518 0.930 . S
H506 C519 0.930 . S
H507 C523 0.959 . S
H508 C523 0.959 . S
H509 C523 0.961 . S
H510 C524 0.960 . S
H511 C524 0.961 . S
H512 C524 0.959 . S
H513 C527 0.929 . S
H514 C528 0.931 . S
H515 C530 0.930 . S
C516 H504 0.930 . S
C516 C517 1.399 . S
C516 C521 1.399 . S
C517 C516 1.399 . S
C517 C518 1.376 . S
C518 H505 0.930 . S
C518 C517 1.376 . S
C518 C519 1.388 . S
C519 H506 0.930 . S
C519 C518 1.388 . S
C519 C520 1.390 . S
C520 C519 1.390 . S
C520 C521 1.394 . S
C520 C526 1.465 . S
C521 C516 1.399 . S
C521 C520 1.394 . S
C521 C522 1.516 . S
C522 C521 1.516 . S
C522 C523 1.502 . S
C522 C524 1.561 . S
C522 C525 1.526 . S
C523 H507 0.959 . S
C523 H508 0.959 . S
C523 H509 0.961 . S
C523 C522 1.502 . S
C524 H510 0.960 . S
C524 H511 0.961 . S
C524 H512 0.959 . S
C524 C522 1.561 . S
C525 C522 1.526 . S
C525 C526 1.396 . S
C525 C530 1.390 . S
C526 C520 1.465 . S
C526 C525 1.396 . S
C526 C527 1.399 . S
C527 H513 0.929 . S
C527 C526 1.399 . S
C527 C528 1.385 . S
C528 H514 0.931 . S
C528 C527 1.385 . S
C528 C529 1.389 . S
C529 C528 1.389 . S
C529 C530 1.387 . S
C530 H515 0.930 . S
C530 C525 1.390 . S
C530 C529 1.387 . S
H531 C543 0.930 . S
H532 C545 0.930 . S
H533 C546 0.930 . S
H534 C550 0.959 . S
H535 C550 0.959 . S
H536 C550 0.961 . S
H537 C551 0.960 . S
H538 C551 0.961 . S
H539 C551 0.959 . S
H540 C554 0.929 . S
H541 C555 0.931 . S
H542 C557 0.930 . S
C543 H531 0.930 . S
C543 C544 1.399 . S
C543 C548 1.399 . S
C544 C543 1.399 . S
C544 C545 1.376 . S
C545 H532 0.930 . S
C545 C544 1.376 . S
C545 C546 1.388 . S
C546 H533 0.930 . S
C546 C545 1.388 . S
C546 C547 1.390 . S
C547 C546 1.390 . S
C547 C548 1.394 . S
C547 C553 1.465 . S
C548 C543 1.399 . S
C548 C547 1.394 . S
C548 C549 1.516 . S
C549 C548 1.516 . S
C549 C550 1.502 . S
C549 C551 1.561 . S
C549 C552 1.526 . S
C550 H534 0.959 . S
C550 H535 0.959 . S
C550 H536 0.961 . S
C550 C549 1.502 . S
C551 H537 0.960 . S
C551 H538 0.961 . S
C551 H539 0.959 . S
C551 C549 1.561 . S
C552 C549 1.526 . S
C552 C553 1.396 . S
C552 C557 1.390 . S
C553 C547 1.465 . S
C553 C552 1.396 . S
C553 C554 1.399 . S
C554 H540 0.929 . S
C554 C553 1.399 . S
C554 C555 1.385 . S
C555 H541 0.931 . S
C555 C554 1.385 . S
C555 C556 1.389 . S
C556 C555 1.389 . S
C556 C557 1.387 . S
C557 H542 0.930 . S
C557 C552 1.390 . S
C557 C556 1.387 . S
H558 C570 0.930 . S
H559 C572 0.930 . S
H560 C573 0.930 . S
H561 C577 0.960 1_655 S
H562 C577 0.967 . S
H563 C577 0.955 1_554 S
H564 C578 0.960 . S
H565 C578 0.953 1_556 S
H566 C578 0.959 . S
H567 C581 0.929 . S
H568 C582 0.931 . S
H569 C584 0.930 . S
C570 H558 0.930 . S
C570 C571 1.399 . S
C570 C575 1.399 . S
C571 C570 1.399 . S
C571 C572 1.376 . S
C572 H559 0.930 . S
C572 C571 1.376 . S
C572 C573 1.388 . S
C573 H560 0.930 . S
C573 C572 1.388 . S
C573 C574 1.390 . S
C574 C573 1.390 . S
C574 C575 1.394 . S
C574 C580 1.465 . S
C575 C570 1.399 . S
C575 C574 1.394 . S
C575 C576 1.516 . S
C576 C575 1.516 . S
C576 C577 1.500 1_554 S
C576 C578 1.561 . S
C576 C579 1.526 1_554 S
C577 H561 0.960 1_455 S
C577 H562 0.967 . S
C577 H563 0.955 1_556 S
C577 C576 1.500 1_556 S
C578 H564 0.960 . S
C578 H565 0.953 1_554 S
C578 H566 0.959 . S
C578 C576 1.561 . S
C579 C576 1.526 1_556 S
C579 C580 1.396 1_556 S
C579 C584 1.390 . S
C580 C574 1.465 . S
C580 C579 1.396 1_554 S
C580 C581 1.399 1_554 S
C581 H567 0.929 . S
C581 C580 1.399 1_556 S
C581 C582 1.385 . S
C582 H568 0.931 . S
C582 C581 1.385 . S
C582 C583 1.389 . S
C583 C582 1.389 . S
C583 C584 1.387 . S
C584 H569 0.930 . S
C584 C579 1.390 . S
C584 C583 1.387 . S
H585 C597 0.930 . S
H586 C599 0.930 . S
H587 C600 0.930 1_565 S
H588 C604 0.959 . S
H589 C604 0.959 . S
H590 C604 0.961 . S
H591 C605 0.960 . S
H592 C605 0.961 . S
H593 C605 0.959 . S
H594 C608 0.929 1_565 S
H595 C609 0.931 . S
H596 C611 0.930 . S
C597 H585 0.930 . S
C597 C598 1.399 . S
C597 C602 1.399 . S
C598 C597 1.399 . S
C598 C599 1.376 . S
C599 H586 0.930 . S
C599 C598 1.376 . S
C599 C600 1.388 . S
C600 H587 0.930 1_545 S
C600 C599 1.388 . S
C600 C601 1.390 . S
C601 C600 1.390 . S
C601 C602 1.394 . S
C601 C607 1.465 . S
C602 C597 1.399 . S
C602 C601 1.394 . S
C602 C603 1.516 . S
C603 C602 1.516 . S
C603 C604 1.502 . S
C603 C605 1.561 . S
C603 C606 1.526 . S
C604 H588 0.959 . S
C604 H589 0.959 . S
C604 H590 0.961 . S
C604 C603 1.502 . S
C605 H591 0.960 . S
C605 H592 0.961 . S
C605 H593 0.959 . S
C605 C603 1.561 . S
C606 C603 1.526 . S
C606 C607 1.396 . S
C606 C611 1.390 . S
C607 C601 1.465 . S
C607 C606 1.396 . S
C607 C608 1.399 . S
C608 H594 0.929 1_545 S
C608 C607 1.399 . S
C608 C609 1.385 . S
C609 H595 0.931 . S
C609 C608 1.385 . S
C609 C610 1.389 . S
C610 C609 1.389 . S
C610 C611 1.387 . S
C611 H596 0.930 . S
C611 C606 1.390 . S
C611 C610 1.387 . S
H612 C624 0.930 . S
H613 C626 0.930 . S
H614 C627 0.930 . S
H615 C631 0.959 . S
H616 C631 0.959 . S
H617 C631 0.961 . S
H618 C632 0.960 . S
H619 C632 0.961 . S
H620 C632 0.959 . S
H621 C635 0.929 . S
H622 C636 0.931 . S
H623 C638 0.930 . S
C624 H612 0.930 . S
C624 C625 1.399 . S
C624 C629 1.399 . S
C625 C624 1.399 . S
C625 C626 1.376 . S
C626 H613 0.930 . S
C626 C625 1.376 . S
C626 C627 1.388 . S
C627 H614 0.930 . S
C627 C626 1.388 . S
C627 C628 1.390 . S
C628 C627 1.390 . S
C628 C629 1.394 . S
C628 C634 1.465 . S
C629 C624 1.399 . S
C629 C628 1.394 . S
C629 C630 1.516 . S
C630 C629 1.516 . S
C630 C631 1.502 . S
C630 C632 1.561 . S
C630 C633 1.526 . S
C631 H615 0.959 . S
C631 H616 0.959 . S
C631 H617 0.961 . S
C631 C630 1.502 . S
C632 H618 0.960 . S
C632 H619 0.961 . S
C632 H620 0.959 . S
C632 C630 1.561 . S
C633 C630 1.526 . S
C633 C634 1.396 . S
C633 C638 1.390 . S
C634 C628 1.465 . S
C634 C633 1.396 . S
C634 C635 1.399 . S
C635 H621 0.929 . S
C635 C634 1.399 . S
C635 C636 1.385 . S
C636 H622 0.931 . S
C636 C635 1.385 . S
C636 C637 1.389 . S
C637 C636 1.389 . S
C637 C638 1.387 . S
C638 H623 0.930 . S
C638 C633 1.390 . S
C638 C637 1.387 . S
H639 C651 0.930 . S
H640 C653 0.930 . S
H641 C654 0.930 . S
H642 C658 0.959 . S
H643 C658 0.959 . S
H644 C658 0.961 . S
H645 C659 0.960 . S
H646 C659 0.961 . S
H647 C659 0.959 . S
H648 C662 0.929 . S
H649 C663 0.931 . S
H650 C665 0.930 . S
C651 H639 0.930 . S
C651 C652 1.399 . S
C651 C656 1.399 . S
C652 C651 1.399 . S
C652 C653 1.376 . S
C653 H640 0.930 . S
C653 C652 1.376 . S
C653 C654 1.388 . S
C654 H641 0.930 . S
C654 C653 1.388 . S
C654 C655 1.390 . S
C655 C654 1.390 . S
C655 C656 1.394 . S
C655 C661 1.465 . S
C656 C651 1.399 . S
C656 C655 1.394 . S
C656 C657 1.516 . S
C657 C656 1.516 . S
C657 C658 1.502 . S
C657 C659 1.561 1_545 S
C657 C660 1.526 . S
C658 H642 0.959 . S
C658 H643 0.959 . S
C658 H644 0.961 . S
C658 C657 1.502 . S
C659 H645 0.960 . S
C659 H646 0.961 . S
C659 H647 0.959 . S
C659 C657 1.561 1_565 S
C660 C657 1.526 . S
C660 C661 1.396 . S
C660 C665 1.390 . S
C661 C655 1.465 . S
C661 C660 1.396 . S
C661 C662 1.399 . S
C662 H648 0.929 . S
C662 C661 1.399 . S
C662 C663 1.385 . S
C663 H649 0.931 . S
C663 C662 1.385 . S
C663 C664 1.389 . S
C664 C663 1.389 . S
C664 C665 1.387 . S
C665 H650 0.930 . S
C665 C660 1.390 . S
C665 C664 1.387 . S
H666 C678 0.930 . S
H667 C680 0.930 . S
H668 C681 0.930 . S
H669 C685 0.959 . S
H670 C685 0.959 . S
H671 C685 0.961 1_556 S
H672 C686 0.960 . S
H673 C686 0.961 1_554 S
H674 C686 0.959 . S
H675 C689 0.929 . S
H676 C690 0.931 . S
H677 C692 0.930 . S
C678 H666 0.930 . S
C678 C679 1.399 . S
C678 C683 1.399 . S
C679 C678 1.399 . S
C679 C680 1.376 . S
C680 H667 0.930 . S
C680 C679 1.376 . S
C680 C681 1.388 . S
C681 H668 0.930 . S
C681 C680 1.388 . S
C681 C682 1.390 . S
C682 C681 1.390 . S
C682 C683 1.394 . S
C682 C688 1.465 1_556 S
C683 C678 1.399 . S
C683 C682 1.394 . S
C683 C684 1.516 . S
C684 C683 1.516 . S
C684 C685 1.502 1_556 S
C684 C686 1.561 . S
C684 C687 1.526 1_556 S
C685 H669 0.959 . S
C685 H670 0.959 . S
C685 H671 0.961 1_554 S
C685 C684 1.502 1_554 S
C686 H672 0.960 . S
C686 H673 0.961 1_556 S
C686 H674 0.959 . S
C686 C684 1.561 . S
C687 C684 1.526 1_554 S
C687 C688 1.396 . S
C687 C692 1.390 . S
C688 C682 1.465 1_554 S
C688 C687 1.396 . S
C688 C689 1.399 . S
C689 H675 0.929 . S
C689 C688 1.399 . S
C689 C690 1.385 . S
C690 H676 0.931 . S
C690 C689 1.385 . S
C690 C691 1.389 . S
C691 C690 1.389 . S
C691 C692 1.387 . S
C692 H677 0.930 . S
C692 C687 1.390 . S
C692 C691 1.387 . S
H693 C705 0.930 . S
H694 C707 0.930 . S
H695 C708 0.930 . S
H696 C712 0.959 . S
H697 C712 0.959 . S
H698 C712 0.961 . S
H699 C713 0.960 . S
H700 C713 0.961 . S
H701 C713 0.959 . S
H702 C716 0.929 . S
H703 C717 0.936 . S
H704 C719 0.930 . S
C705 H693 0.930 . S
C705 C706 1.399 . S
C705 C710 1.399 . S
C706 C705 1.399 . S
C706 C707 1.376 1_455 S
C707 H694 0.930 . S
C707 C706 1.376 1_655 S
C707 C708 1.388 . S
C708 H695 0.930 . S
C708 C707 1.388 . S
C708 C709 1.390 1_655 S
C709 C708 1.390 1_455 S
C709 C710 1.394 . S
C709 C715 1.465 . S
C710 C705 1.399 . S
C710 C709 1.394 . S
C710 C711 1.516 . S
C711 C710 1.516 . S
C711 C712 1.502 . S
C711 C713 1.561 . S
C711 C714 1.526 . S
C712 H696 0.959 . S
C712 H697 0.959 . S
C712 H698 0.961 . S
C712 C711 1.502 . S
C713 H699 0.960 . S
C713 H700 0.961 . S
C713 H701 0.959 . S
C713 C711 1.561 . S
C714 C711 1.526 . S
C714 C715 1.396 . S
C714 C719 1.390 . S
C715 C709 1.465 . S
C715 C714 1.396 . S
C715 C716 1.399 1_455 S
C716 H702 0.929 . S
C716 C715 1.399 1_655 S
C716 C717 1.386 . S
C717 H703 0.936 . S
C717 C716 1.386 . S
C717 C718 1.384 1_655 S
C718 C717 1.384 1_455 S
C718 C719 1.387 . S
C719 H704 0.930 . S
C719 C714 1.390 . S
C719 C718 1.387 . S
C247 C24 3.086 . S
C259 C226 3.020 . S
C274 C66 1.200 . S
C286 C188 1.218 . S
C301 C93 1.895 . S
C313 C207 1.795 . S
C328 C13 3.009 . S
C340 C221 2.983 . S
C367 C183 1.074 . S
C355 C57 1.041 . S
C394 C202 1.864 . S
C382 C104 1.872 . S
C409 C64 2.047 . S
C421 C150 1.945 . S
C436 C97 0.214 . S
C448 C164 0.189 . S
C463 C17 1.193 . S
C475 C126 1.139 . S
C502 C145 1.670 . S
C490 C53 1.722 . S
C529 C169 0.655 . S
C517 C106 0.277 . S
C544 C26 1.207 . S
C556 C131 1.222 . S
C583 C160 1.345 . S
C571 C2 1.265 . S
C598 C63 1.495 . S
C610 C122 1.480 . S
C625 C82 1.533 . S
C637 C141 1.518 . S
C664 C198 1.507 . S
C652 C42 1.451 . S
C691 C217 1.743 . S
C679 C103 1.746 . S
C706 C23 1.610 . S
C718 C179 1.603 . S
