# Generated by pormake.
# Topology zzz, (3,6)-cn, num edge types: 1
# Building blocks:
#     Node 0, Type 0, BuildingBlock: MIDCAF_clean_linker_0, # of connection points: 3
#     Node 1, Type 0, BuildingBlock: MIDCAF_clean_linker_0, # of connection points: 3
#     Node 2, Type 0, BuildingBlock: MIDCAF_clean_linker_0, # of connection points: 3
#     Node 3, Type 0, BuildingBlock: MIDCAF_clean_linker_0, # of connection points: 3
#     Node 4, Type 0, BuildingBlock: MIDCAF_clean_linker_0, # of connection points: 3
#     Node 5, Type 0, BuildingBlock: MIDCAF_clean_linker_0, # of connection points: 3
#     Node 6, Type 0, BuildingBlock: MIDCAF_clean_linker_0, # of connection points: 3
#     Node 7, Type 0, BuildingBlock: MIDCAF_clean_linker_0, # of connection points: 3
#     Node 8, Type 1, BuildingBlock: KUMBUR_clean_sbu_0, # of connection points: 6
#     Node 9, Type 1, BuildingBlock: KUMBUR_clean_sbu_0, # of connection points: 6
#     Node 10, Type 1, BuildingBlock: KUMBUR_clean_sbu_0, # of connection points: 6
#     Node 11, Type 1, BuildingBlock: KUMBUR_clean_sbu_0, # of connection points: 6
#     Edge 12, Type (0, 1), BuildingBlock: OJICUG_clean_linker_0, # of connection points: 2
#     Edge 13, Type (0, 1), BuildingBlock: OJICUG_clean_linker_0, # of connection points: 2
#     Edge 14, Type (0, 1), BuildingBlock: OJICUG_clean_linker_0, # of connection points: 2
#     Edge 15, Type (0, 1), BuildingBlock: OJICUG_clean_linker_0, # of connection points: 2
#     Edge 16, Type (0, 1), BuildingBlock: OJICUG_clean_linker_0, # of connection points: 2
#     Edge 17, Type (0, 1), BuildingBlock: OJICUG_clean_linker_0, # of connection points: 2
#     Edge 18, Type (0, 1), BuildingBlock: OJICUG_clean_linker_0, # of connection points: 2
#     Edge 19, Type (0, 1), BuildingBlock: OJICUG_clean_linker_0, # of connection points: 2
#     Edge 20, Type (0, 1), BuildingBlock: OJICUG_clean_linker_0, # of connection points: 2
#     Edge 21, Type (0, 1), BuildingBlock: OJICUG_clean_linker_0, # of connection points: 2
#     Edge 22, Type (0, 1), BuildingBlock: OJICUG_clean_linker_0, # of connection points: 2
#     Edge 23, Type (0, 1), BuildingBlock: OJICUG_clean_linker_0, # of connection points: 2
#     Edge 24, Type (0, 1), BuildingBlock: OJICUG_clean_linker_0, # of connection points: 2
#     Edge 25, Type (0, 1), BuildingBlock: OJICUG_clean_linker_0, # of connection points: 2
#     Edge 26, Type (0, 1), BuildingBlock: OJICUG_clean_linker_0, # of connection points: 2
#     Edge 27, Type (0, 1), BuildingBlock: OJICUG_clean_linker_0, # of connection points: 2
#     Edge 28, Type (0, 1), BuildingBlock: OJICUG_clean_linker_0, # of connection points: 2
#     Edge 29, Type (0, 1), BuildingBlock: OJICUG_clean_linker_0, # of connection points: 2
#     Edge 30, Type (0, 1), BuildingBlock: OJICUG_clean_linker_0, # of connection points: 2
#     Edge 31, Type (0, 1), BuildingBlock: OJICUG_clean_linker_0, # of connection points: 2
#     Edge 32, Type (0, 1), BuildingBlock: OJICUG_clean_linker_0, # of connection points: 2
#     Edge 33, Type (0, 1), BuildingBlock: OJICUG_clean_linker_0, # of connection points: 2
#     Edge 34, Type (0, 1), BuildingBlock: OJICUG_clean_linker_0, # of connection points: 2
#     Edge 35, Type (0, 1), BuildingBlock: OJICUG_clean_linker_0, # of connection points: 2
# Relax obj value: 0.339
# Max RMSD: 0.223
# Mean RMSD: 0.215
data_MOF--net-zzz--node1-KUMBUR_clean_sbu_0--node2-MIDCAF_clean_linker_0--edge1-OJICUG_clean_linker_0
_symmetry_space_group_name_H-M    P1
_symmetry_Int_Tables_number       1
_symmetry_cell_setting            triclinic
loop_
_symmetry_equiv_pos_as_xyz
'x, y, z'
_cell_length_a     42.85632
_cell_length_b     42.826218
_cell_length_c     15.187386
_cell_angle_alpha  90.7742
_cell_angle_beta   89.952905
_cell_angle_gamma 90.284946
loop_
_atom_site_label
_atom_site_type_symbol
_atom_site_fract_x
_atom_site_fract_y
_atom_site_fract_z
_atom_type_partial_charge
C0 C 0.82466 0.59356 0.53387 0.0
C1 C 0.84045 0.56486 0.52485 0.0
C2 C 0.8275 0.54213 0.46704 0.0
C3 C 0.80125 0.5488 0.4153 0.0
H4 H 0.67707 0.62423 0.21577 0.0
H5 H 0.63359 0.61225 0.11779 0.0
H6 H 0.66286 0.51634 0.09929 0.0
H7 H 0.70722 0.5285 0.19761 0.0
H8 H 0.76961 0.60249 0.03545 0.0
H9 H 0.81587 0.59732 0.94735 0.0
H10 H 0.86667 0.65569 0.13336 0.0
H11 H 0.82041 0.65818 0.22636 0.0
H12 H 0.78904 0.62363 0.48397 0.0
H13 H 0.833 0.61147 0.57907 0.0
H14 H 0.83882 0.51987 0.45663 0.0
H15 H 0.7936 0.53178 0.3664 0.0
N16 N 0.74033 0.57815 0.32102 0.0
N17 N 0.74249 0.60665 0.18933 0.0
N18 N 0.78445 0.60869 0.28681 0.0
C19 C 0.72654 0.58775 0.24468 0.0
C20 C 0.77143 0.61717 0.20967 0.0
C21 C 0.7693 0.58949 0.34293 0.0
C22 C 0.69527 0.57722 0.21535 0.0
C23 C 0.67352 0.60027 0.19395 0.0
C24 C 0.64879 0.59352 0.13697 0.0
C25 C 0.64501 0.56356 0.09988 0.0
C26 C 0.66515 0.53966 0.12709 0.0
C27 C 0.69029 0.54651 0.18411 0.0
C28 C 0.79201 0.62922 0.14004 0.0
C29 C 0.79026 0.61536 0.05594 0.0
C30 C 0.81715 0.61247 1.00478 0.0
C31 C 0.84594 0.62406 0.0365 0.0
C32 C 0.84545 0.64452 0.11 0.0
C33 C 0.81883 0.64639 0.16293 0.0
C34 C 0.78742 0.57841 0.41923 0.0
C35 C 0.79885 0.60037 0.48084 0.0
C36 C 0.98398 0.8412 0.51615 0.0
C37 C 1.01069 0.85849 0.49148 0.0
C38 C 0.02893 0.84609 0.42158 0.0
C39 C 1.01996 0.81878 0.3755 0.0
H40 H 0.02975 0.71388 0.2027 0.0
H41 H 0.04139 0.66837 0.10697 0.0
H42 H 0.94274 0.65191 0.07247 0.0
H43 H 0.93134 0.69658 0.16699 0.0
H44 H 0.91948 0.77058 0.04124 0.0
H45 H 0.92301 0.80618 0.91862 0.0
H46 H 0.93417 0.88343 0.10281 0.0
H47 H 0.92844 0.84844 0.22335 0.0
H48 H 0.95261 0.80331 0.48464 0.0
H49 H 0.96944 0.84892 0.57034 0.0
H50 H 0.04927 0.85838 0.39776 0.0
H51 H 0.0333 0.81164 0.3181 0.0
N52 N 0.98576 0.7547 0.29995 0.0
N53 N 0.94952 0.75664 0.18343 0.0
N54 N 0.95455 0.79917 0.27943 0.0
C55 C 0.97123 0.7405 0.22908 0.0
C56 C 0.94125 0.78601 0.20717 0.0
C57 C 0.97639 0.78403 0.32673 0.0
C58 C 0.97959 0.70897 0.19276 0.0
C59 C 1.01065 0.69986 0.17694 0.0
C60 C 1.01728 0.67394 0.12128 0.0
C61 C 0.99298 0.65679 0.07992 0.0
C62 C 0.96209 0.66486 0.1009 0.0
C63 C 0.95555 0.69039 0.15622 0.0
C64 C 0.92623 0.80647 0.14183 0.0
C65 C 0.92115 0.79539 0.05542 0.0
C66 C 0.92356 0.81587 0.98481 0.0
C67 C 0.93185 0.84736 1.00009 0.0
C68 C 0.92927 0.85921 0.08689 0.0
C69 C 0.92614 0.83888 0.15724 0.0
C70 C 0.9922 0.80305 0.3964 0.0
C71 C 0.97468 0.81428 0.46849 0.0
C72 C 0.70599 0.96861 0.49074 0.0
C73 C 0.69915 1.0007 0.49646 0.0
C74 C 0.72171 1.0218 0.46324 0.0
C75 C 0.74876 1.01101 0.4195 0.0
H76 H 0.87645 0.93526 0.24333 0.0
H77 H 0.91998 0.94726 0.1442 0.0
H78 H 0.87649 0.03461 0.08007 0.0
H79 H 0.83342 1.0229 0.18108 0.0
H80 H 0.79359 0.93244 0.03572 0.0
H81 H 0.75574 0.94397 0.92434 0.0
H82 H 0.68133 0.91802 0.10161 0.0
H83 H 0.71953 0.90793 0.21543 0.0
H84 H 0.73618 0.933 0.44039 0.0
H85 H 0.68959 0.95129 0.51396 0.0
H86 H 0.71803 0.04674 0.46801 0.0
H87 H 0.7642 0.02776 0.38884 0.0
N88 N 0.8046 0.97801 0.32129 0.0
N89 N 0.8074 0.94491 0.19608 0.0
N90 N 0.76262 0.94497 0.28271 0.0
C91 C 0.82118 0.96603 0.25108 0.0
C92 C 0.77802 0.93448 0.21059 0.0
C93 C 0.77532 0.96637 0.33872 0.0
C94 C 0.85184 0.97851 0.2219 0.0
C95 C 0.87708 0.95779 0.21174 0.0
C96 C 0.90186 0.9645 0.15414 0.0
C97 C 0.90152 0.99172 0.10337 0.0
C98 C 0.87735 1.01337 0.11791 0.0
C99 C 0.85292 1.00694 0.17695 0.0
C100 C 0.75938 0.92162 0.13641 0.0
C101 C 0.76927 0.92771 0.05009 0.0
C102 C 0.74728 0.93434 0.98542 0.0
C103 C 0.71524 0.93407 1.00601 0.0
C104 C 0.7058 0.92022 0.08528 0.0
C105 C 0.72781 0.91408 0.15046 0.0
C106 C 0.75407 0.97885 0.40857 0.0
C107 C 0.73297 0.95797 0.44811 0.0
C108 C 0.64735 0.70352 0.12964 0.0
C109 C 0.62778 0.70469 0.0553 0.0
C110 C 0.62155 0.73409 1.01898 0.0
C111 C 0.62836 0.76131 0.06692 0.0
H112 H 0.54311 0.85031 0.22318 0.0
H113 H 0.52831 0.89306 0.12557 0.0
H114 H 0.62529 0.91764 0.09347 0.0
H115 H 0.64006 0.87469 0.18924 0.0
H116 H 0.54027 0.76146 0.35291 0.0
H117 H 0.52449 0.71684 0.44078 0.0
H118 H 0.60937 0.72602 0.59291 0.0
H119 H 0.62554 0.7695 0.50103 0.0
H120 H 0.66389 0.72858 0.24333 0.0
H121 H 0.65414 0.6813 0.15676 0.0
H122 H 0.60731 0.73623 0.96058 0.0
H123 H 0.61908 0.78315 0.04332 0.0
N124 N 0.62165 0.81102 0.19712 0.0
N125 N 0.58962 0.81577 0.32292 0.0
N126 N 0.61814 0.76987 0.29565 0.0
C127 C 0.60237 0.82853 0.24866 0.0
C128 C 0.5985 0.7865 0.34776 0.0
C129 C 0.62954 0.78163 0.21985 0.0
C130 C 0.59271 0.85927 0.21417 0.0
C131 C 0.56113 0.86559 0.19789 0.0
C132 C 0.55273 0.88981 0.14111 0.0
C133 C 0.57572 0.90851 0.10095 0.0
C134 C 0.60709 0.90377 0.12351 0.0
C135 C 0.61551 0.87923 0.17858 0.0
C136 C 0.58383 0.76942 0.42127 0.0
C137 C 0.55482 0.75476 0.40777 0.0
C138 C 0.54594 0.72886 0.45807 0.0
C139 C 0.56585 0.717 0.52359 0.0
C140 C 0.59368 0.7336 0.54175 0.0
C141 C 0.60271 0.75914 0.49049 0.0
C142 C 0.64071 0.75925 0.15227 0.0
C143 C 0.65333 0.73068 0.17888 0.0
C144 C 0.22833 0.51911 0.91679 0.0
C145 C 0.21589 0.49673 0.85709 0.0
C146 C 0.23219 0.46841 0.84599 0.0
C147 C 0.25799 0.46151 0.8989 0.0
H148 H 0.3791 0.43732 0.16047 0.0
H149 H 0.42304 0.44829 0.2583 0.0
H150 H 0.39214 0.54321 0.29168 0.0
H151 H 0.34735 0.53194 0.19405 0.0
H152 H 0.28603 0.45465 0.34569 0.0
H153 H 0.23946 0.45916 0.43274 0.0
H154 H 0.18878 0.40402 0.23898 0.0
H155 H 0.23542 0.40211 0.14748 0.0
H156 H 0.26182 0.52903 1.01879 0.0
H157 H 0.2166 0.54107 0.92877 0.0
H158 H 0.22422 0.45081 0.79929 0.0
H159 H 0.2682 0.43845 0.89416 0.0
N160 N 0.31549 0.48315 0.06207 0.0
N161 N 0.31318 0.4536 0.19188 0.0
N162 N 0.27177 0.45158 0.09254 0.0
C163 C 0.32904 0.47325 0.13836 0.0
C164 C 0.28453 0.44271 0.16966 0.0
C165 C 0.28685 0.47149 0.03832 0.0
C166 C 0.36015 0.48384 0.16869 0.0
C167 C 0.38244 0.46086 0.18573 0.0
C168 C 0.40741 0.46704 0.24236 0.0
C169 C 0.4109 0.49642 0.28324 0.0
C170 C 0.3901 0.52037 0.26067 0.0
C171 C 0.36471 0.51404 0.20414 0.0
C172 C 0.26377 0.42967 0.23753 0.0
C173 C 0.26534 0.4423 0.32315 0.0
C174 C 0.23826 0.44481 0.3737 0.0
C175 C 0.20947 0.43409 0.3397 0.0
C176 C 0.21004 0.41454 0.26427 0.0
C177 C 0.23689 0.41303 0.21213 0.0
C178 C 0.26887 0.48304 0.96244 0.0
C179 C 0.25457 0.51238 0.96841 0.0
C180 C 0.03138 0.21231 0.96618 0.0
C181 C 0.04744 0.20205 0.88965 0.0
C182 C 0.07214 0.22112 0.85959 0.0
C183 C 0.08164 0.24795 0.90733 0.0
H184 H 0.02918 0.34581 0.17689 0.0
H185 H 1.01655 0.39065 0.27429 0.0
H186 H 0.11479 0.40947 0.30805 0.0
H187 H 0.1272 0.36583 0.21122 0.0
H188 H 0.13252 0.28935 0.33687 0.0
H189 H 0.12611 0.24894 0.44265 0.0
H190 H 0.1457 0.17925 0.24155 0.0
H191 H 0.14929 0.22024 0.13301 0.0
H192 H 0.02901 0.24514 0.07433 0.0
H193 H 1.01278 0.19847 0.99414 0.0
H194 H 0.08495 0.21494 0.80054 0.0
H195 H 0.10225 0.2605 0.88599 0.0
N196 N 0.07282 0.306 0.07973 0.0
N197 N 0.11234 0.3063 0.18745 0.0
N198 N 0.10695 0.26329 0.09332 0.0
C199 C 0.08851 0.32114 0.14699 0.0
C200 C 0.12153 0.27738 0.1622 0.0
C201 C 0.08302 0.27717 0.051 0.0
C202 C 0.07923 0.35206 0.18601 0.0
C203 C 0.04796 0.3602 0.20289 0.0
C204 C 0.04077 0.38572 0.25951 0.0
C205 C 0.0647 0.40339 0.30091 0.0
C206 C 0.09573 0.39617 0.27937 0.0
C207 C 0.10284 0.37116 0.22285 0.0
C208 C 0.13855 0.25771 0.22532 0.0
C209 C 0.13671 0.26551 0.31531 0.0
C210 C 0.13309 0.24193 0.3769 0.0
C211 C 0.13228 0.21041 0.34901 0.0
C212 C 0.1435 0.20325 0.26386 0.0
C213 C 0.14604 0.22683 0.20153 0.0
C214 C 0.06623 0.25727 0.98515 0.0
C215 C 0.0405 0.2395 1.01258 0.0
C216 C 0.34581 0.03724 0.94706 0.0
C217 C 0.35985 0.0543 0.87816 0.0
C218 C 0.34409 0.08123 0.84958 0.0
C219 C 0.31698 0.09188 0.89255 0.0
H220 H 0.18872 0.13327 0.15791 0.0
H221 H 0.14509 0.11998 0.25451 0.0
H222 H 0.17708 0.02472 0.26223 0.0
H223 H 0.22061 0.03805 0.16413 0.0
H224 H 0.27048 0.13566 0.32122 0.0
H225 H 0.3098 0.12419 0.42829 0.0
H226 H 0.38169 0.14364 0.23638 0.0
H227 H 0.3419 0.15417 0.12801 0.0
H228 H 0.30964 0.03501 0.04497 0.0
H229 H 0.3569 1.01681 0.97357 0.0
H230 H 0.35307 0.09488 0.7957 0.0
H231 H 0.30708 0.11401 0.87343 0.0
N232 N 0.25441 0.08209 0.05095 0.0
N233 N 0.2537 0.11996 0.16501 0.0
N234 N 0.2976 0.11519 0.07535 0.0
C235 C 0.23881 0.09716 0.1181 0.0
C236 C 0.28324 0.12883 0.14516 0.0
C237 C 0.28367 0.09219 0.02746 0.0
C238 C 0.20799 0.08663 0.15248 0.0
C239 C 0.18574 0.10919 0.17745 0.0
C240 C 0.16077 0.10162 0.23325 0.0
C241 C 0.15775 0.0714 0.26739 0.0
C242 C 0.1789 0.04833 0.238 0.0
C243 C 0.2036 0.0558 0.18066 0.0
C244 C 0.30314 0.1433 0.21429 0.0
C245 C 0.29466 0.13916 0.30277 0.0
C246 C 0.31755 0.13249 0.36492 0.0
C247 C 0.34912 0.13077 0.33941 0.0
C248 C 0.35757 0.1431 0.25724 0.0
C249 C 0.33464 0.14945 0.1949 0.0
C250 C 0.30401 0.07545 0.96337 0.0
C251 C 0.31826 0.04753 0.98831 0.0
C252 C 0.40957 0.36902 0.2158 0.0
C253 C 0.42607 0.36726 0.29566 0.0
C254 C 0.42569 0.33874 0.34065 0.0
C255 C 0.41583 0.31147 0.29738 0.0
H256 H 0.4066 0.21024 0.26319 0.0
H257 H 0.41903 0.16692 0.35696 0.0
H258 H 0.50504 0.15236 0.21472 0.0
H259 H 0.49275 0.19679 0.11988 0.0
H260 H 0.43667 0.28863 0.86328 0.0
H261 H 0.45644 0.33316 0.77942 0.0
H262 H 0.52935 0.34709 0.97134 0.0
H263 H 0.51025 0.30197 0.05315 0.0
H264 H 0.39244 0.34327 0.10431 0.0
H265 H 0.40798 0.39086 0.18122 0.0
H266 H 0.43727 0.33637 0.40349 0.0
H267 H 0.42039 0.28937 0.32869 0.0
N268 N 0.4234 0.25844 0.18109 0.0
N269 N 0.45902 0.24754 0.06656 0.0
N270 N 0.43297 0.29572 0.07433 0.0
C271 C 0.44301 0.23803 0.13998 0.0
C272 C 0.45309 0.27638 0.03232 0.0
C273 C 0.4183 0.28729 0.14913 0.0
C274 C 0.449 0.20769 0.18463 0.0
C275 C 0.42821 0.19791 0.25089 0.0
C276 C 0.43535 0.17296 0.30531 0.0
C277 C 0.46332 0.15645 0.29491 0.0
C278 C 0.48327 0.16462 0.22475 0.0
C279 C 0.47623 0.19009 0.17027 0.0
C280 C 0.47245 0.29113 0.96348 0.0
C281 C 0.45817 0.29988 0.88418 0.0
C282 C 0.46922 0.32569 0.83685 0.0
C283 C 0.49428 0.34376 0.86923 0.0
C284 C 0.51005 0.33356 0.94468 0.0
C285 C 0.49944 0.30735 0.99073 0.0
C286 C 0.4072 0.31255 0.20825 0.0
C287 C 0.40026 0.34169 0.17193 0.0
Tb288 Tb 0.06174 0.02522 0.75799 0.0
C289 C 0.94234 0.99386 0.54019 0.0
C290 C 0.96262 0.96313 0.41857 0.0
C291 C 0.90781 0.95903 0.45711 0.0
C292 C 0.96704 0.98528 0.48743 0.0
C293 C 0.91223 0.98138 0.52448 0.0
C294 C 0.93301 0.94984 0.40444 0.0
C295 C 0.89237 1.01646 0.63627 0.0
N296 N 0.9474 1.01579 0.60373 0.0
C297 C 0.92253 0.02831 0.64848 0.0
C298 C 0.88723 0.99259 0.57467 0.0
Tb299 Tb 0.99666 0.03718 0.61278 0.0
N300 N 0.9952 0.9991 0.50228 0.0
C301 C 1.01978 0.9919 0.44751 0.0
C302 C 0.98792 0.95532 0.3649 0.0
C303 C 1.01658 0.96983 0.37943 0.0
H304 H 0.92609 0.04725 0.6953 0.0
H305 H 0.03638 0.96399 0.33819 0.0
H306 H 0.92924 0.93286 0.35189 0.0
H307 H 0.87307 0.02601 0.67377 0.0
H308 H 0.04264 1.00174 0.45672 0.0
H309 H 1.02179 0.0964 0.03649 0.0
H310 H 0.9855 0.93837 0.31169 0.0
H311 H 0.13311 1.01583 0.6796 0.0
H312 H 1.01625 0.05803 0.91951 0.0
H313 H 0.18482 0.0408 0.69266 0.0
H314 H 0.8849 0.9492 0.44409 0.0
H315 H 0.07126 0.12526 0.05682 0.0
H316 H 0.12653 0.13404 1.01062 0.0
H317 H 0.86378 0.98367 0.56447 0.0
H318 H 0.17065 0.11978 0.91493 0.0
N319 N 0.06276 0.06346 0.86839 0.0
C320 C 0.03856 0.06929 0.92579 0.0
C321 C 0.06919 0.108 1.00427 0.0
C322 C 0.0942 0.10154 0.94819 0.0
C323 C 0.04133 0.09168 0.99319 0.0
C324 C 0.09025 0.07888 0.88039 0.0
H325 H 0.19251 0.0854 0.79551 0.0
N326 N 0.11043 0.04836 0.76513 0.0
C327 C 0.16526 0.05003 0.72967 0.0
C328 C 0.11482 0.07129 0.82617 0.0
C329 C 0.13575 0.03629 0.72129 0.0
C330 C 0.1695 0.07512 0.78778 0.0
C331 C 0.14435 0.08552 0.83876 0.0
O332 O 0.09443 0.98973 0.7783 0.0
O333 O 0.02664 1.00325 0.67381 0.0
O334 O 0.97625 1.01355 0.72771 0.0
O335 O 1.01745 1.01588 0.8284 0.0
O336 O 0.07144 0.98744 0.66386 0.0
O337 O 0.06075 1.00145 0.87832 0.0
O338 O 0.96538 0.07435 0.59838 0.0
O339 O 0.03201 0.05922 0.69662 0.0
O340 O 0.08225 0.04567 0.63842 0.0
O341 O 0.04039 0.04629 0.5396 0.0
O342 O 0.98689 0.0739 0.71036 0.0
O343 O 0.99572 0.06055 0.4919 0.0
C344 C 0.0434 0.98254 0.63715 0.0
C345 C 0.07594 0.94862 0.86226 0.0
C346 C 0.03952 0.90468 0.86522 0.0
C347 C 0.04548 0.93672 0.8543 0.0
C348 C 0.06497 0.88459 0.87959 0.0
C349 C 0.10085 0.92825 0.87615 0.0
C350 C 0.09538 0.89632 0.88396 0.0
C351 C 0.98756 1.01106 0.80886 0.0
C352 C 0.08245 0.98203 0.85326 0.0
C353 C 0.14819 0.1086 0.90438 0.0
C354 C 0.12313 0.11662 0.95901 0.0
C355 C 1.01505 0.0793 0.73524 0.0
C356 C 0.9844 0.11435 0.51105 0.0
C357 C 1.01566 0.12345 0.50232 0.0
C358 C 1.02352 0.15481 0.49122 0.0
C359 C 1.00009 0.17758 0.49363 0.0
C360 C 0.96103 0.13719 0.513 0.0
C361 C 0.96893 0.16874 0.50518 0.0
C362 C 0.07059 0.04913 0.55808 0.0
C363 C 0.97596 0.08136 0.52118 0.0
H364 H 0.02647 0.95248 0.84075 0.0
H365 H 0.06149 0.85992 0.89074 0.0
H366 H 0.12455 0.93707 0.88094 0.0
H367 H 0.11468 0.88068 0.89539 0.0
H368 H 0.03396 0.10626 0.50276 0.0
H369 H 1.00579 0.20195 0.48366 0.0
H370 H 0.93674 0.1306 0.5208 0.0
H371 H 0.95082 0.18628 0.50626 0.0
Tb372 Tb 0.53729 0.06286 0.74399 0.0
C373 C 0.56556 0.9403 0.54665 0.0
C374 C 0.59453 0.95813 0.42019 0.0
C375 C 0.60154 0.90516 0.47095 0.0
C376 C 0.57289 0.96366 0.48897 0.0
C377 C 0.57918 0.91045 0.53704 0.0
C378 C 0.60923 0.929 0.41261 0.0
C379 C 0.54413 0.89192 0.64918 0.0
N380 N 0.54305 0.94597 0.60735 0.0
C381 C 0.53092 0.92166 0.65446 0.0
C382 C 0.56873 0.88638 0.59104 0.0
Tb383 Tb 0.52084 0.99486 0.60958 0.0
N384 N 0.55742 0.99113 0.49693 0.0
C385 C 0.56206 1.01369 0.43469 0.0
C386 C 0.59992 0.98158 0.35903 0.0
C387 C 0.58341 1.00938 0.366 0.0
H388 H 0.51093 0.92534 0.69661 0.0
H389 H 0.58716 0.02765 0.31854 0.0
H390 H 0.62585 0.92437 0.36026 0.0
H391 H 0.53489 0.87315 0.68864 0.0
H392 H 0.55052 0.03583 0.43799 0.0
H393 H 0.47225 0.03742 0.04262 0.0
H394 H 0.61626 0.97823 0.30527 0.0
H395 H 0.54401 0.12752 0.62837 0.0
H396 H 0.50363 1.02412 0.91439 0.0
H397 H 0.52693 0.1824 0.6404 0.0
H398 H 0.61224 0.88243 0.46257 0.0
H399 H 0.4534 0.09129 0.06587 0.0
H400 H 0.45104 0.14644 1.01395 0.0
H401 H 0.57853 0.86315 0.58561 0.0
H402 H 0.46532 0.18569 0.90409 0.0
N403 N 0.5034 0.0702 0.86063 0.0
C404 C 0.49622 0.04796 0.92173 0.0
C405 C 0.46726 0.08565 1.00813 0.0
C406 C 0.47463 0.10839 0.94635 0.0
C407 C 0.47794 0.05527 0.99538 0.0
C408 C 0.49277 0.09983 0.87221 0.0
H409 H 0.49304 0.19917 0.76397 0.0
N410 N 0.51817 0.11275 0.74042 0.0
C411 C 0.51909 0.16557 0.68823 0.0
C412 C 0.50037 0.1218 0.80994 0.0
C413 C 0.52855 0.13445 0.68139 0.0
C414 C 0.49997 0.17494 0.75802 0.0
C415 C 0.49068 0.15308 0.8206 0.0
O416 O 0.57512 0.09416 0.74616 0.0
O417 O 0.55638 0.02567 0.66191 0.0
O418 O 0.54361 0.97687 0.72836 0.0
O419 O 0.54604 1.0207 0.82253 0.0
O420 O 0.57123 0.07002 0.63762 0.0
O421 O 0.56374 0.06664 0.86012 0.0
O422 O 0.48345 0.96323 0.59645 0.0
O423 O 0.50211 0.031 0.69527 0.0
O424 O 0.50537 0.07849 0.64131 0.0
O425 O 0.5108 0.03851 0.53697 0.0
O426 O 0.48465 0.98715 0.70945 0.0
O427 O 0.49634 0.99315 0.48973 0.0
C428 C 0.57562 0.04119 0.61724 0.0
C429 C 0.61704 0.0781 0.83186 0.0
C430 C 0.65836 0.04057 0.8556 0.0
C431 C 0.6267 0.04736 0.84572 0.0
C432 C 0.68068 0.06443 0.84703 0.0
C433 C 0.63947 0.10188 0.82382 0.0
C434 C 0.67121 0.09497 0.8306 0.0
C435 C 0.54841 0.9902 0.80681 0.0
C436 C 0.58382 0.08571 0.82415 0.0
C437 C 0.47279 0.16174 0.89441 0.0
C438 C 0.46473 0.13942 0.95707 0.0
C439 C 0.48179 1.01554 0.73677 0.0
C440 C 0.44254 0.98283 0.5126 0.0
C441 C 0.43428 1.01309 0.48753 0.0
C442 C 0.40301 1.02226 0.4877 0.0
C443 C 0.37972 1.00091 0.51225 0.0
C444 C 0.41902 0.9615 0.5358 0.0
C445 C 0.38775 0.97055 0.53557 0.0
C446 C 0.50279 0.0675 0.55966 0.0
C447 C 0.47549 0.9738 0.52011 0.0
H448 H 0.60973 0.02873 0.84989 0.0
H449 H 0.70527 0.05959 0.8558 0.0
H450 H 0.63242 0.12574 0.81231 0.0
H451 H 0.68842 0.11341 0.82486 0.0
H452 H 0.45202 0.02976 0.46846 0.0
H453 H 0.35535 1.00751 0.5113 0.0
H454 H 0.42491 0.93799 0.55519 0.0
H455 H 0.36973 0.95402 0.55353 0.0
Tb456 Tb 0.56211 0.51973 0.65211 0.0
C457 C 0.4254 0.51429 0.69492 0.0
C458 C 0.40511 0.54159 0.56837 0.0
C459 C 0.37262 0.50353 0.6422 0.0
C460 C 0.42963 0.53576 0.6282 0.0
C461 C 0.39643 0.4986 0.7037 0.0
C462 C 0.37695 0.52496 0.57475 0.0
C463 C 0.41475 0.47708 0.8398 0.0
N464 N 0.44874 0.51015 0.7542 0.0
C465 C 0.44279 0.49328 0.82924 0.0
C466 C 0.39163 0.47934 0.77604 0.0
Tb467 Tb 0.49314 0.54013 0.73119 0.0
N468 N 0.45729 0.5514 0.62278 0.0
C469 C 0.46117 0.57392 0.56008 0.0
C470 C 0.40927 0.56438 0.50451 0.0
C471 C 0.43729 0.58079 0.50097 0.0
H472 H 0.46025 0.49154 0.88026 0.0
H473 H 0.44087 0.59828 0.45113 0.0
H474 H 0.3581 0.52898 0.52882 0.0
H475 H 0.41088 0.46312 0.89773 0.0
H476 H 0.48294 0.58596 0.55077 0.0
H477 H 0.6164 0.46135 0.92851 0.0
H478 H 0.39098 0.56951 0.45773 0.0
H479 H 0.5926 0.56948 0.50274 0.0
H480 H 0.57349 0.47362 0.83143 0.0
H481 H 0.64266 0.59623 0.47869 0.0
H482 H 0.35042 0.49149 0.64767 0.0
H483 H 0.66638 0.48978 0.91767 0.0
H484 H 0.69905 0.52951 0.84238 0.0
H485 H 0.36972 0.46703 0.78493 0.0
H486 H 0.70593 0.56654 0.72204 0.0
N487 N 0.5986 0.50815 0.75791 0.0
C488 C 0.5952 0.48566 0.82084 0.0
C489 C 0.64767 0.49499 0.87231 0.0
C490 C 0.6514 0.51759 0.80766 0.0
C491 C 0.61958 0.47878 0.87828 0.0
C492 C 0.62629 0.52363 0.75 0.0
H493 H 0.68536 0.59113 0.58639 0.0
N494 N 0.60601 0.54974 0.62584 0.0
C495 C 0.63936 0.58217 0.53668 0.0
C496 C 0.63004 0.54505 0.68261 0.0
C497 C 0.61105 0.56676 0.55063 0.0
C498 C 0.66334 0.57929 0.59771 0.0
C499 C 0.65913 0.56019 0.67074 0.0
O500 O 0.57478 0.51541 0.51888 0.0
O501 O 0.51504 0.52551 0.60533 0.0
O502 O 0.49328 0.48876 0.74047 0.0
O503 O 0.54473 0.47576 0.70635 0.0
O504 O 0.51538 0.52513 0.60491 0.0
O505 O 0.58029 0.47683 0.60588 0.0
O506 O 0.47857 0.54539 0.86264 0.0
O507 O 0.53992 0.5338 0.7784 0.0
O508 O 0.56374 0.57135 0.65438 0.0
O509 O 0.51141 0.58358 0.6756 0.0
O510 O 0.53973 0.53418 0.77903 0.0
O511 O 0.47707 0.58412 0.77527 0.0
C512 C 0.50436 0.50248 0.55715 0.0
C513 C 0.57691 0.46565 0.45252 0.0
C514 C 0.54007 0.43429 0.3662 0.0
C515 C 0.54746 0.45159 0.44285 0.0
C516 C 0.56362 0.42927 0.30271 0.0
C517 C 0.59976 0.46082 0.38784 0.0
C518 C 0.59324 0.44235 0.31387 0.0
C519 C 0.51643 0.46842 0.73449 0.0
C520 C 0.58426 0.4869 0.52622 0.0
C521 C 0.6836 0.55492 0.7299 0.0
C522 C 0.67972 0.53375 0.79825 0.0
C523 C 0.55018 0.55582 0.83119 0.0
C524 C 0.48154 0.59506 0.92824 0.0
C525 C 0.51057 0.61044 0.92956 0.0
C526 C 0.5203 0.62704 1.0053 0.0
C527 C 0.49945 0.62996 0.07682 0.0
C528 C 0.46143 0.59788 1.00063 0.0
C529 C 0.47021 0.61559 0.0741 0.0
C530 C 0.54042 0.59165 0.65565 0.0
C531 C 0.47189 0.57463 0.85486 0.0
H532 H 0.53034 0.45446 0.49403 0.0
H533 H 0.55933 0.41503 0.2445 0.0
H534 H 0.62264 0.47148 0.39443 0.0
H535 H 0.61108 0.43846 0.26446 0.0
H536 H 0.52568 0.60903 0.87274 0.0
H537 H 0.50558 0.64359 0.13489 0.0
H538 H 0.43891 0.58623 1.0004 0.0
H539 H 0.45447 0.61791 0.12956 0.0
Tb540 Tb 0.03849 0.56487 0.6529 0.0
C541 C 0.03953 0.42657 0.69376 0.0
C542 C 1.00957 0.40587 0.57022 0.0
C543 C 0.04564 0.37227 0.64683 0.0
C544 C 1.0176 0.43093 0.62756 0.0
C545 C 0.05316 0.39689 0.70502 0.0
C546 C 1.02398 0.37677 0.57954 0.0
C547 C 0.07859 0.41676 0.83595 0.0
N548 N 0.04647 0.45079 0.74936 0.0
C549 C 0.06458 0.44567 0.82259 0.0
C550 C 0.07321 0.39238 0.77627 0.0
Tb551 Tb 1.01803 0.49546 0.72627 0.0
N552 N 1.004 0.45943 0.61951 0.0
C553 C 0.9818 0.46393 0.55586 0.0
C554 C 0.987 0.41056 0.5055 0.0
C555 C 0.97296 0.43965 0.49867 0.0
H556 H 0.06893 0.46435 0.86979 0.0
H557 H 0.95574 0.44362 0.44801 0.0
H558 H 1.01816 0.35742 0.53578 0.0
H559 H 0.09343 0.41329 0.89258 0.0
H560 H 0.97155 0.4864 0.54465 0.0
H561 H 0.09835 0.62051 0.92933 0.0
H562 H 0.9803 0.39191 0.46032 0.0
H563 H 0.9882 0.59358 0.50393 0.0
H564 H 0.08403 0.57661 0.83475 0.0
H565 H 0.9633 0.64409 0.47497 0.0
H566 H 0.05604 0.34945 0.65433 0.0
H567 H 0.0728 0.67155 0.91229 0.0
H568 H 0.03504 0.7047 0.83173 0.0
H569 H 0.08395 0.3699 0.78714 0.0
H570 H 0.99803 0.71092 0.71008 0.0
N571 N 0.05115 0.60213 0.75743 0.0
C572 C 0.07325 0.59871 0.82191 0.0
C573 C 0.06668 0.65236 0.86828 0.0
C574 C 0.04445 0.65603 0.80207 0.0
C575 C 0.08127 0.62366 0.87778 0.0
C576 C 0.03714 0.63028 0.74643 0.0
H577 H 0.97148 0.68871 0.57714 0.0
N578 N 1.00962 0.60882 0.62428 0.0
C579 C 0.97773 0.64142 0.53282 0.0
C580 C 1.01573 0.63367 0.67841 0.0
C581 C 0.99195 0.61286 0.5496 0.0
C582 C 0.98237 0.66651 0.59069 0.0
C583 C 1.00185 0.66302 0.66369 0.0
O584 O 0.04395 0.57863 0.52154 0.0
O585 O 0.03114 0.5184 0.60177 0.0
O586 O 0.06965 0.4937 0.72082 0.0
O587 O 0.08139 0.54662 0.71027 0.0
O588 O 0.03151 0.51841 0.60079 0.0
O589 O 0.08269 0.58051 0.61077 0.0
O590 O 1.01392 0.48155 0.85793 0.0
O591 O 0.02531 0.54193 0.77741 0.0
O592 O 0.9869 0.56698 0.65904 0.0
O593 O 0.97468 0.51421 0.67279 0.0
O594 O 0.02495 0.54195 0.77842 0.0
O595 O 0.97449 0.47908 0.7712 0.0
C596 C 0.05064 0.50908 0.54038 0.0
C597 C 0.09348 0.57381 0.45856 0.0
C598 C 0.12476 0.5335 0.38683 0.0
C599 C 0.1089 0.54494 0.46152 0.0
C600 C 0.12688 0.5524 0.31174 0.0
C601 C 0.09565 0.59207 0.38293 0.0
C602 C 0.11259 0.58154 0.31024 0.0
C603 C 0.0898 0.5174 0.72408 0.0
C604 C 0.07338 0.58491 0.53043 0.0
C605 C 1.00861 0.68832 0.72026 0.0
C606 C 0.02976 0.68481 0.78935 0.0
C607 C 1.00585 0.5513 0.83886 0.0
C608 C 0.96482 0.48618 0.92366 0.0
C609 C 0.94857 0.51456 0.91946 0.0
C610 C 0.93289 0.52625 0.99408 0.0
C611 C 0.9319 0.50809 0.07079 0.0
C612 C 0.96377 0.46864 1.00081 0.0
C613 C 0.94708 0.47942 0.07372 0.0
C614 C 0.96651 0.54346 0.65775 0.0
C615 C 0.98449 0.47495 0.85101 0.0
H616 H 0.10789 0.53113 0.5206 0.0
H617 H 0.13987 0.5448 0.2542 0.0
H618 H 0.08396 0.61442 0.37988 0.0
H619 H 0.11434 0.59582 0.25216 0.0
H620 H 0.94881 0.52783 0.85933 0.0
H621 H 0.91911 0.51591 0.12847 0.0
H622 H 0.9761 0.44667 1.00483 0.0
H623 H 0.94619 0.46569 0.13301 0.0
C624 C 0.14421 0.04911 0.41545 0.0
C625 C 0.13473 0.06493 0.3396 0.0
H626 H 0.13191 0.0318 0.54163 0.0
C627 C 0.10371 0.07557 0.33583 0.0
H628 H 0.16789 0.04065 0.42114 0.0
C629 C 0.0828 0.07021 0.40575 0.0
C630 C 0.09265 0.0553 0.48316 0.0
H631 H 0.09546 0.08766 0.27822 0.0
H632 H 0.05894 0.0778 0.39869 0.0
C633 C 0.1236 0.04456 0.48597 0.0
C634 C 0.48589 0.10397 0.33637 0.0
C635 C 0.47218 0.13252 0.36134 0.0
H636 H 0.50544 0.06064 0.3786 0.0
C637 C 0.46702 0.13845 0.45164 0.0
H638 H 0.48969 0.09837 0.26745 0.0
C639 C 0.47602 0.11694 0.51519 0.0
C640 C 0.49064 0.08882 0.49075 0.0
H641 H 0.45663 0.16019 0.47371 0.0
H642 H 0.47176 0.12262 0.58382 0.0
C643 C 0.49478 0.08226 0.40027 0.0
C644 C 0.43336 0.4793 0.42652 0.0
C645 C 0.43389 0.50033 0.35619 0.0
H646 H 0.45498 0.46432 0.54589 0.0
C647 C 0.4571 0.52364 0.35499 0.0
H648 H 0.41592 0.46094 0.42892 0.0
C649 C 0.47964 0.52543 0.42227 0.0
C650 C 0.47843 0.50484 0.49363 0.0
H651 H 0.4584 0.53977 0.30079 0.0
H652 H 0.49824 0.54256 0.41801 0.0
C653 C 0.45552 0.48139 0.49385 0.0
C654 C 0.03497 0.45134 0.354 0.0
C655 C 0.05806 0.42869 0.3681 0.0
H656 H 1.01445 0.49462 0.3981 0.0
C657 C 0.07643 0.43154 0.44494 0.0
H658 H 1.02085 0.45039 0.29492 0.0
C659 C 0.07235 0.45658 0.50447 0.0
C660 C 0.04915 0.47902 0.49073 0.0
H661 H 0.09452 0.41469 0.45831 0.0
H662 H 0.08792 0.45883 0.56041 0.0
C663 C 0.0311 0.47655 0.41352 0.0
C664 C 0.91267 1.00086 0.94328 0.0
C665 C 0.92399 0.99583 0.02869 0.0
H666 H 0.92319 1.00777 0.80801 0.0
C667 C 0.95648 0.99396 0.04065 0.0
H668 H 0.88778 1.00176 0.93131 0.0
C669 C 0.97706 0.99844 0.9694 0.0
C670 C 0.9657 1.00387 0.88364 0.0
H671 H 0.96597 0.98972 0.10544 0.0
H672 H 1.00192 0.99764 0.98178 0.0
C673 C 0.93315 1.00432 0.87196 0.0
C674 C 0.5484 0.9202 0.95897 0.0
C675 C 0.56759 0.93038 0.02871 0.0
H676 H 0.52736 0.93087 0.83593 0.0
C677 C 0.58028 0.96073 1.0256 0.0
H678 H 0.53832 0.89695 0.95898 0.0
C679 C 0.57376 0.98036 0.95454 0.0
C680 C 0.55553 0.96967 0.88296 0.0
H681 H 0.59503 0.96937 0.07854 0.0
H682 H 0.58314 1.0038 0.95586 0.0
C683 C 0.54264 0.93948 0.8871 0.0
C684 C 0.59938 0.53505 0.02906 0.0
C685 C 0.6222 0.55874 0.02675 0.0
H686 H 0.55814 0.51551 0.96819 0.0
C687 C 0.6223 0.57936 0.9554 0.0
H688 H 0.59841 0.51918 0.08392 0.0
C689 C 0.59989 0.57677 0.88884 0.0
C690 C 0.57719 0.55314 0.89071 0.0
H691 H 0.63946 0.59797 0.95191 0.0
H692 H 0.59988 0.59377 0.83658 0.0
C693 C 0.5766 0.53274 0.96257 0.0
C694 C 0.98075 0.62883 0.93592 0.0
C695 C 0.99915 0.63134 1.01278 0.0
H696 H 0.96901 0.60194 0.81993 0.0
C697 C 1.02204 0.60843 1.02641 0.0
H698 H 0.96287 0.64592 0.92277 0.0
C699 C 0.02569 0.58333 0.96636 0.0
C700 C 1.00759 0.58122 0.88915 0.0
H701 H 0.0362 0.60913 0.08541 0.0
H702 H 0.04221 0.5651 0.9813 0.0
C703 C 0.98459 0.6039 0.87592 0.0
C704 C 0.1031 0.1926 0.48436 0.0
C705 C 0.11079 0.18826 0.39461 0.0
H706 H 0.06846 0.18613 0.58524 0.0
C707 C 0.09201 0.16781 0.34343 0.0
H708 H 0.11742 0.20712 0.5271 0.0
C709 C 0.06464 0.1553 0.37774 0.0
C710 C 0.05526 0.16307 0.46341 0.0
H711 H 0.09649 0.16362 0.2742 0.0
H712 H 0.04958 0.14143 0.33506 0.0
C713 C 0.07515 0.18062 0.51801 0.0
C714 C 0.3662 0.1019 0.47479 0.0
C715 C 0.37014 0.10846 0.38475 0.0
H716 H 0.37302 0.06872 0.57785 0.0
C717 C 0.38931 0.08855 0.33367 0.0
H718 H 0.35239 0.11704 0.51691 0.0
C719 C 0.40152 0.06142 0.36925 0.0
C720 C 0.39458 0.0534 0.4561 0.0
H721 H 0.39282 0.09221 0.264 0.0
H722 H 0.41456 0.04559 0.32699 0.0
C723 C 0.37792 0.0743 0.50982 0.0
C724 C 0.46107 0.39562 0.40429 0.0
C725 C 0.45069 0.39082 0.31728 0.0
H726 H 0.49778 0.41195 0.48836 0.0
C727 C 0.46813 0.40402 0.24837 0.0
H728 H 0.44805 0.38626 0.45917 0.0
C729 C 0.49601 0.41972 0.26533 0.0
C730 C 0.508 0.42174 0.35123 0.0
H731 H 0.46137 0.40079 0.18019 0.0
H732 H 0.50877 0.42917 0.21011 0.0
C733 C 0.48959 0.4106 0.42106 0.0
C734 C 0.15904 0.45897 0.29748 0.0
C735 C 0.1803 0.45113 0.36435 0.0
H736 H 0.12417 0.49049 0.25362 0.0
C737 C 0.17733 0.46629 0.44695 0.0
H738 H 0.15986 0.44803 0.23292 0.0
C739 C 0.15739 0.49191 0.45732 0.0
C740 C 0.13959 0.50224 0.38581 0.0
H741 H 0.1923 0.46019 0.50138 0.0
H742 H 0.1579 0.505 0.51881 0.0
C743 C 0.13878 0.48398 0.30852 0.0
C744 C 0.9561 0.89689 0.94312 0.0
C745 C 0.95179 0.86436 0.93541 0.0
H746 H 0.98779 0.93496 0.93094 0.0
C747 C 0.97285 0.84738 0.88193 0.0
H748 H 0.93974 0.91124 0.97973 0.0
C749 C 0.9999 0.86149 0.84997 0.0
C750 C 1.00693 0.89265 0.87231 0.0
H751 H 0.97055 0.82242 0.87209 0.0
H752 H 1.01651 0.84718 0.81414 0.0
C753 C 0.98368 0.91075 0.91365 0.0
C754 C 0.6734 0.97457 1.00898 0.0
C755 C 0.69399 0.95573 0.95925 0.0
H756 H 0.6461 1.01627 1.01402 0.0
C757 C 0.69879 0.9628 0.86986 0.0
H758 H 0.66934 0.9705 0.07825 0.0
C759 C 0.68613 0.98988 0.83416 0.0
C760 C 0.66772 1.00966 0.88653 0.0
H761 H 0.71393 0.94854 0.82904 0.0
H762 H 0.69169 0.99602 0.76697 0.0
C763 C 0.66031 1.00117 0.97272 0.0
C764 C 0.59402 0.66059 0.10422 0.0
C765 C 0.60641 0.67803 0.03437 0.0
H766 H 0.55836 0.62979 0.14859 0.0
C767 C 0.59296 0.67424 0.95028 0.0
H768 H 0.60327 0.66274 0.17034 0.0
C769 C 0.5658 0.65628 0.93891 0.0
C770 C 0.55193 0.64137 1.01122 0.0
H771 H 0.60213 0.68685 0.89454 0.0
H772 H 0.5547 0.65582 0.8749 0.0
C773 C 0.56756 0.64212 0.09236 0.0
C774 C 0.89725 0.60088 0.07829 0.0
C775 C 0.8753 0.60732 1.01195 0.0
H776 H 0.93319 0.57076 0.12327 0.0
C777 C 0.878 0.59117 0.93077 0.0
H778 H 0.89666 0.61263 0.14174 0.0
C779 C 0.89849 0.56595 0.9218 0.0
C780 C 0.9171 0.557 0.99322 0.0
H781 H 0.8625 0.5962 0.8766 0.0
H782 H 0.89787 0.55208 0.86165 0.0
C783 C 0.91801 0.57622 0.06863 0.0
C784 C 0.06154 0.15359 0.79605 0.0
C785 C 0.03929 0.17112 0.84476 0.0
H786 H 0.07146 0.11159 0.72104 0.0
C787 C 1.0091 0.15816 0.85241 0.0
H788 H 0.08517 0.16208 0.78818 0.0
C789 C 1.00189 0.12857 0.81718 0.0
C790 C 0.0243 0.11077 0.77155 0.0
H791 H 0.99065 0.1708 0.8856 0.0
H792 H 0.9785 0.11946 0.82636 0.0
C793 C 0.05394 0.12415 0.75858 0.0
C794 C 0.40163 1.01368 0.84426 0.0
C795 C 0.3912 0.04481 0.83973 0.0
H796 H 0.43813 0.98083 0.81885 0.0
C797 C 0.41152 0.06667 0.79977 0.0
H798 H 0.38693 0.99553 0.87091 0.0
C799 C 0.44077 0.05761 0.7657 0.0
C800 C 0.4514 0.0268 0.7742 0.0
H801 H 0.40519 0.09099 0.79512 0.0
H802 H 0.45498 0.07484 0.73302 0.0
C803 C 0.43121 1.00502 0.81325 0.0
C804 C 0.50978 0.37967 0.74488 0.0
C805 C 0.50083 0.3754 0.83314 0.0
H806 H 0.52257 0.41264 0.64471 0.0
C807 C 0.49703 0.40192 0.88763 0.0
H808 H 0.51281 0.35966 0.7014 0.0
C809 C 0.50172 0.43198 0.85474 0.0
C810 C 0.51087 0.43633 0.76696 0.0
H811 H 0.48996 0.39938 0.95569 0.0
H812 H 0.49878 0.45188 0.89863 0.0
C813 C 0.5153 0.40989 0.7125 0.0
C814 C 0.16437 0.47643 0.79562 0.0
C815 C 0.18478 0.50174 0.8133 0.0
H816 H 0.1196 0.46119 0.7494 0.0
C817 C 0.17421 0.53196 0.79365 0.0
H818 H 0.17111 0.45272 0.80996 0.0
C819 C 0.14385 0.53682 0.7624 0.0
C820 C 0.12307 0.51162 0.74863 0.0
H821 H 0.18921 0.5521 0.80344 0.0
H822 H 0.13653 0.56058 0.75076 0.0
C823 C 0.13424 0.48129 0.76256 0.0
C824 C 0.99581 0.90897 0.57534 0.0
C825 C 1.01869 0.88984 0.53435 0.0
H826 H 0.98547 0.95239 0.64291 0.0
C827 C 0.04946 0.90166 0.53204 0.0
H828 H 0.97173 0.90146 0.57893 0.0
C829 C 0.05672 0.93161 0.56439 0.0
C830 C 0.03382 0.95091 0.60258 0.0
H831 H 0.06837 0.88786 0.50533 0.0
H832 H 0.08063 0.93973 0.55933 0.0
C833 C 1.00345 0.93873 0.61068 0.0
C834 C 0.65366 0.03866 0.49756 0.0
C835 C 0.66781 1.01158 0.53077 0.0
H836 H 0.61388 0.06897 0.49889 0.0
C837 C 0.65081 0.9942 0.59345 0.0
H838 H 0.66519 0.05249 0.448 0.0
C839 C 0.62072 1.00326 0.62038 0.0
C840 C 0.60682 0.03015 0.58631 0.0
H841 H 0.66072 0.9736 0.62267 0.0
H842 H 0.60851 0.98941 0.66875 0.0
C843 C 0.6239 0.04799 0.52588 0.0
C844 C 0.52832 0.67554 0.58035 0.0
C845 C 0.55914 0.68607 0.5663 0.0
H846 H 0.49823 0.63806 0.6196 0.0
C847 C 0.58365 0.66579 0.58883 0.0
H848 H 0.50869 0.69045 0.56612 0.0
C849 C 0.57758 0.63587 0.62143 0.0
C850 C 0.54684 0.62479 0.63069 0.0
H851 H 0.60776 0.67249 0.57872 0.0
H852 H 0.59715 0.62132 0.63837 0.0
C853 C 0.52228 0.6454 0.61189 0.0
C854 C 0.88173 0.52953 0.59031 0.0
C855 C 0.87155 0.55973 0.56881 0.0
H856 H 0.91909 0.50072 0.63463 0.0
C857 C 0.89233 0.58487 0.58494 0.0
H858 H 0.86645 0.50953 0.58184 0.0
C859 C 0.92242 0.57984 0.61817 0.0
C860 C 0.9332 0.54948 0.63377 0.0
H861 H 0.88594 0.60855 0.56919 0.0
H862 H 0.93734 0.59983 0.63003 0.0
C863 C 0.91206 0.52448 0.62168 0.0
loop_
_geom_bond_atom_site_label_1
_geom_bond_atom_site_label_2
_geom_bond_distance
_geom_bond_site_symmetry_2
_ccdc_geom_bond_type
C0 C1 1.384 . S
C0 H13 0.947 . S
C0 C35 1.382 . S
C1 C0 1.384 . S
C1 C2 1.378 . S
C2 C1 1.378 . S
C2 C3 1.378 . S
C2 H14 0.952 . S
C3 C2 1.378 . S
C3 H15 0.950 . S
C3 C34 1.383 . S
H4 C23 0.947 . S
H5 C24 0.946 . S
H6 C26 0.953 . S
H7 C27 0.945 . S
H8 C29 0.952 . S
H9 C30 0.949 1_556 S
H10 C32 0.950 . S
H11 C33 0.948 . S
H12 C35 0.951 . S
H13 C0 0.947 . S
H14 C2 0.952 . S
H15 C3 0.950 . S
N16 C19 1.382 . S
N16 C21 1.363 . S
N17 C19 1.371 . S
N17 C20 1.372 . S
N18 C20 1.361 . S
N18 C21 1.377 . S
C19 N16 1.382 . S
C19 N17 1.371 . S
C19 C22 1.480 . S
C20 N17 1.372 . S
C20 N18 1.361 . S
C20 C28 1.457 . S
C21 N16 1.363 . S
C21 N18 1.377 . S
C21 C34 1.479 . S
C22 C19 1.480 . S
C22 C23 1.383 . S
C22 C27 1.385 . S
C23 H4 0.947 . S
C23 C22 1.383 . S
C23 C24 1.388 . S
C24 H5 0.946 . S
C24 C23 1.388 . S
C24 C25 1.384 . S
C25 C24 1.384 . S
C25 C26 1.377 . S
C26 H6 0.953 . S
C26 C25 1.377 . S
C26 C27 1.369 . S
C27 H7 0.945 . S
C27 C22 1.385 . S
C27 C26 1.369 . S
C28 C20 1.457 . S
C28 C29 1.372 . S
C28 C33 1.364 . S
C29 H8 0.952 . S
C29 C28 1.372 . S
C29 C30 1.389 . S
C30 H9 0.949 1_554 S
C30 C29 1.389 . S
C30 C31 1.387 . S
C31 C30 1.387 . S
C31 C32 1.372 . S
C32 H10 0.950 . S
C32 C31 1.372 . S
C32 C33 1.379 . S
C33 H11 0.948 . S
C33 C28 1.364 . S
C33 C32 1.379 . S
C34 C3 1.383 . S
C34 C21 1.479 . S
C34 C35 1.398 . S
C35 C0 1.382 . S
C35 H12 0.951 . S
C35 C34 1.398 . S
C36 C37 1.384 . S
C36 H49 0.947 . S
C36 C71 1.382 . S
C37 C36 1.384 . S
C37 C38 1.378 . S
C38 C37 1.378 . S
C38 C39 1.378 . S
C38 H50 0.952 . S
C39 C38 1.378 . S
C39 H51 0.950 . S
C39 C70 1.383 . S
H40 C59 0.947 . S
H41 C60 0.946 . S
H42 C62 0.953 . S
H43 C63 0.945 . S
H44 C65 0.952 . S
H45 C66 0.949 1_556 S
H46 C68 0.950 . S
H47 C69 0.948 . S
H48 C71 0.951 . S
H49 C36 0.947 . S
H50 C38 0.952 . S
H51 C39 0.950 . S
N52 C55 1.382 . S
N52 C57 1.363 . S
N53 C55 1.371 . S
N53 C56 1.372 . S
N54 C56 1.361 . S
N54 C57 1.377 . S
C55 N52 1.382 . S
C55 N53 1.371 . S
C55 C58 1.480 . S
C56 N53 1.372 . S
C56 N54 1.361 . S
C56 C64 1.457 . S
C57 N52 1.363 . S
C57 N54 1.377 . S
C57 C70 1.479 . S
C58 C55 1.480 . S
C58 C59 1.383 . S
C58 C63 1.385 . S
C59 H40 0.947 . S
C59 C58 1.383 . S
C59 C60 1.388 . S
C60 H41 0.946 . S
C60 C59 1.388 . S
C60 C61 1.384 . S
C61 C60 1.384 . S
C61 C62 1.377 . S
C62 H42 0.953 . S
C62 C61 1.377 . S
C62 C63 1.369 . S
C63 H43 0.945 . S
C63 C58 1.385 . S
C63 C62 1.369 . S
C64 C56 1.457 . S
C64 C65 1.372 . S
C64 C69 1.364 . S
C65 H44 0.952 . S
C65 C64 1.372 . S
C65 C66 1.389 . S
C66 H45 0.949 1_554 S
C66 C65 1.389 . S
C66 C67 1.387 . S
C67 C66 1.387 . S
C67 C68 1.372 . S
C68 H46 0.950 . S
C68 C67 1.372 . S
C68 C69 1.379 . S
C69 H47 0.948 . S
C69 C64 1.364 . S
C69 C68 1.379 . S
C70 C39 1.383 . S
C70 C57 1.479 . S
C70 C71 1.398 . S
C71 C36 1.382 . S
C71 H48 0.951 . S
C71 C70 1.398 . S
C72 C73 1.384 . S
C72 H85 0.947 . S
C72 C107 1.382 . S
C73 C72 1.384 . S
C73 C74 1.378 . S
C74 C73 1.378 . S
C74 C75 1.378 . S
C74 H86 0.952 . S
C75 C74 1.378 . S
C75 H87 0.950 . S
C75 C106 1.383 . S
H76 C95 0.947 . S
H77 C96 0.946 . S
H78 C98 0.953 . S
H79 C99 0.945 . S
H80 C101 0.952 . S
H81 C102 0.949 1_556 S
H82 C104 0.950 . S
H83 C105 0.948 . S
H84 C107 0.951 . S
H85 C72 0.947 . S
H86 C74 0.952 . S
H87 C75 0.950 . S
N88 C91 1.382 . S
N88 C93 1.363 . S
N89 C91 1.371 . S
N89 C92 1.372 . S
N90 C92 1.361 . S
N90 C93 1.377 . S
C91 N88 1.382 . S
C91 N89 1.371 . S
C91 C94 1.480 . S
C92 N89 1.372 . S
C92 N90 1.361 . S
C92 C100 1.457 . S
C93 N88 1.363 . S
C93 N90 1.377 . S
C93 C106 1.479 . S
C94 C91 1.480 . S
C94 C95 1.383 . S
C94 C99 1.385 . S
C95 H76 0.947 . S
C95 C94 1.383 . S
C95 C96 1.388 . S
C96 H77 0.946 . S
C96 C95 1.388 . S
C96 C97 1.384 . S
C97 C96 1.384 . S
C97 C98 1.377 . S
C98 H78 0.953 . S
C98 C97 1.377 . S
C98 C99 1.369 . S
C99 H79 0.945 . S
C99 C94 1.385 . S
C99 C98 1.369 . S
C100 C92 1.457 . S
C100 C101 1.372 . S
C100 C105 1.364 . S
C101 H80 0.952 . S
C101 C100 1.372 . S
C101 C102 1.389 . S
C102 H81 0.949 1_554 S
C102 C101 1.389 . S
C102 C103 1.387 . S
C103 C102 1.387 . S
C103 C104 1.372 . S
C104 H82 0.950 . S
C104 C103 1.372 . S
C104 C105 1.379 . S
C105 H83 0.948 . S
C105 C100 1.364 . S
C105 C104 1.379 . S
C106 C75 1.383 . S
C106 C93 1.479 . S
C106 C107 1.398 . S
C107 C72 1.382 . S
C107 H84 0.951 . S
C107 C106 1.398 . S
C108 C109 1.384 . S
C108 H121 0.947 . S
C108 C143 1.382 . S
C109 C108 1.384 . S
C109 C110 1.378 . S
C110 C109 1.378 . S
C110 C111 1.378 . S
C110 H122 0.952 1_554 S
C111 C110 1.378 . S
C111 H123 0.950 . S
C111 C142 1.383 . S
H112 C131 0.947 . S
H113 C132 0.946 . S
H114 C134 0.953 . S
H115 C135 0.945 . S
H116 C137 0.952 . S
H117 C138 0.949 . S
H118 C140 0.950 . S
H119 C141 0.948 . S
H120 C143 0.951 . S
H121 C108 0.947 . S
H122 C110 0.952 1_556 S
H123 C111 0.950 . S
N124 C127 1.382 . S
N124 C129 1.363 . S
N125 C127 1.371 . S
N125 C128 1.372 . S
N126 C128 1.361 . S
N126 C129 1.377 . S
C127 N124 1.382 . S
C127 N125 1.371 . S
C127 C130 1.480 . S
C128 N125 1.372 . S
C128 N126 1.361 . S
C128 C136 1.457 . S
C129 N124 1.363 . S
C129 N126 1.377 . S
C129 C142 1.479 . S
C130 C127 1.480 . S
C130 C131 1.383 . S
C130 C135 1.385 . S
C131 H112 0.947 . S
C131 C130 1.383 . S
C131 C132 1.388 . S
C132 H113 0.946 . S
C132 C131 1.388 . S
C132 C133 1.384 . S
C133 C132 1.384 . S
C133 C134 1.377 . S
C134 H114 0.953 . S
C134 C133 1.377 . S
C134 C135 1.369 . S
C135 H115 0.945 . S
C135 C130 1.385 . S
C135 C134 1.369 . S
C136 C128 1.457 . S
C136 C137 1.372 . S
C136 C141 1.364 . S
C137 H116 0.952 . S
C137 C136 1.372 . S
C137 C138 1.389 . S
C138 H117 0.949 . S
C138 C137 1.389 . S
C138 C139 1.387 . S
C139 C138 1.387 . S
C139 C140 1.372 . S
C140 H118 0.950 . S
C140 C139 1.372 . S
C140 C141 1.379 . S
C141 H119 0.948 . S
C141 C136 1.364 . S
C141 C140 1.379 . S
C142 C111 1.383 . S
C142 C129 1.479 . S
C142 C143 1.398 . S
C143 C108 1.382 . S
C143 H120 0.951 . S
C143 C142 1.398 . S
C144 C145 1.384 . S
C144 H157 0.947 . S
C144 C179 1.382 . S
C145 C144 1.384 . S
C145 C146 1.378 . S
C146 C145 1.378 . S
C146 C147 1.378 . S
C146 H158 0.952 . S
C147 C146 1.378 . S
C147 H159 0.950 . S
C147 C178 1.383 . S
H148 C167 0.947 1_556 S
H149 C168 0.946 1_556 S
H150 C170 0.953 . S
H151 C171 0.945 . S
H152 C173 0.952 . S
H153 C174 0.949 . S
H154 C176 0.950 . S
H155 C177 0.948 . S
H156 C179 0.951 . S
H157 C144 0.947 . S
H158 C146 0.952 . S
H159 C147 0.950 . S
N160 C163 1.382 1_556 S
N160 C165 1.363 . S
N161 C163 1.371 . S
N161 C164 1.372 . S
N162 C164 1.361 . S
N162 C165 1.377 1_554 S
C163 N160 1.382 1_554 S
C163 N161 1.371 . S
C163 C166 1.480 . S
C164 N161 1.372 . S
C164 N162 1.361 . S
C164 C172 1.457 . S
C165 N160 1.363 . S
C165 N162 1.377 1_556 S
C165 C178 1.479 . S
C166 C163 1.480 . S
C166 C167 1.383 . S
C166 C171 1.385 . S
C167 H148 0.947 1_554 S
C167 C166 1.383 . S
C167 C168 1.388 . S
C168 H149 0.946 1_554 S
C168 C167 1.388 . S
C168 C169 1.384 . S
C169 C168 1.384 . S
C169 C170 1.377 . S
C170 H150 0.953 . S
C170 C169 1.377 . S
C170 C171 1.369 . S
C171 H151 0.945 . S
C171 C166 1.385 . S
C171 C170 1.369 . S
C172 C164 1.457 . S
C172 C173 1.372 . S
C172 C177 1.364 . S
C173 H152 0.952 . S
C173 C172 1.372 . S
C173 C174 1.389 . S
C174 H153 0.949 . S
C174 C173 1.389 . S
C174 C175 1.387 . S
C175 C174 1.387 . S
C175 C176 1.372 . S
C176 H154 0.950 . S
C176 C175 1.372 . S
C176 C177 1.379 . S
C177 H155 0.948 . S
C177 C172 1.364 . S
C177 C176 1.379 . S
C178 C147 1.383 . S
C178 C165 1.479 . S
C178 C179 1.398 . S
C179 C144 1.382 . S
C179 H156 0.951 . S
C179 C178 1.398 . S
C180 C181 1.384 . S
C180 H193 0.947 . S
C180 C215 1.382 . S
C181 C180 1.384 . S
C181 C182 1.378 . S
C182 C181 1.378 . S
C182 C183 1.378 . S
C182 H194 0.952 . S
C183 C182 1.378 . S
C183 H195 0.950 . S
C183 C214 1.383 . S
H184 C203 0.947 1_556 S
H185 C204 0.946 1_556 S
H186 C206 0.953 . S
H187 C207 0.945 . S
H188 C209 0.952 . S
H189 C210 0.949 . S
H190 C212 0.950 . S
H191 C213 0.948 . S
H192 C215 0.951 . S
H193 C180 0.947 . S
H194 C182 0.952 . S
H195 C183 0.950 . S
N196 C199 1.382 1_556 S
N196 C201 1.363 . S
N197 C199 1.371 . S
N197 C200 1.372 . S
N198 C200 1.361 . S
N198 C201 1.377 1_554 S
C199 N196 1.382 1_554 S
C199 N197 1.371 . S
C199 C202 1.480 . S
C200 N197 1.372 . S
C200 N198 1.361 . S
C200 C208 1.457 . S
C201 N196 1.363 . S
C201 N198 1.377 1_556 S
C201 C214 1.479 . S
C202 C199 1.480 . S
C202 C203 1.383 . S
C202 C207 1.385 . S
C203 H184 0.947 1_554 S
C203 C202 1.383 . S
C203 C204 1.388 . S
C204 H185 0.946 1_554 S
C204 C203 1.388 . S
C204 C205 1.384 . S
C205 C204 1.384 . S
C205 C206 1.377 . S
C206 H186 0.953 . S
C206 C205 1.377 . S
C206 C207 1.369 . S
C207 H187 0.945 . S
C207 C202 1.385 . S
C207 C206 1.369 . S
C208 C200 1.457 . S
C208 C209 1.372 . S
C208 C213 1.364 . S
C209 H188 0.952 . S
C209 C208 1.372 . S
C209 C210 1.389 . S
C210 H189 0.949 . S
C210 C209 1.389 . S
C210 C211 1.387 . S
C211 C210 1.387 . S
C211 C212 1.372 . S
C212 H190 0.950 . S
C212 C211 1.372 . S
C212 C213 1.379 . S
C213 H191 0.948 . S
C213 C208 1.364 . S
C213 C212 1.379 . S
C214 C183 1.383 . S
C214 C201 1.479 . S
C214 C215 1.398 . S
C215 C180 1.382 . S
C215 H192 0.951 . S
C215 C214 1.398 . S
C216 C217 1.384 . S
C216 H229 0.947 . S
C216 C251 1.382 . S
C217 C216 1.384 . S
C217 C218 1.378 . S
C218 C217 1.378 . S
C218 C219 1.378 . S
C218 H230 0.952 . S
C219 C218 1.378 . S
C219 H231 0.950 . S
C219 C250 1.383 . S
H220 C239 0.955 . S
H221 C240 0.946 1_556 S
H222 C242 0.953 . S
H223 C243 0.945 . S
H224 C245 0.952 . S
H225 C246 0.949 . S
H226 C248 0.950 . S
H227 C249 0.948 . S
H228 C251 0.951 . S
H229 C216 0.947 . S
H230 C218 0.952 . S
H231 C219 0.950 . S
N232 C235 1.382 1_556 S
N232 C237 1.363 . S
N233 C235 1.371 . S
N233 C236 1.372 . S
N234 C236 1.361 . S
N234 C237 1.377 1_554 S
C235 N232 1.382 1_554 S
C235 N233 1.371 . S
C235 C238 1.480 . S
C236 N233 1.372 . S
C236 N234 1.361 . S
C236 C244 1.457 . S
C237 N232 1.363 . S
C237 N234 1.377 1_556 S
C237 C250 1.479 . S
C238 C235 1.480 . S
C238 C239 1.377 1_554 S
C238 C243 1.385 . S
C239 H220 0.955 . S
C239 C238 1.377 1_556 S
C239 C240 1.386 1_556 S
C240 H221 0.946 1_554 S
C240 C239 1.386 1_554 S
C240 C241 1.384 . S
C241 C240 1.384 . S
C241 C242 1.377 . S
C242 H222 0.953 . S
C242 C241 1.377 . S
C242 C243 1.369 . S
C243 H223 0.945 . S
C243 C238 1.385 . S
C243 C242 1.369 . S
C244 C236 1.457 . S
C244 C245 1.372 . S
C244 C249 1.364 . S
C245 H224 0.952 . S
C245 C244 1.372 . S
C245 C246 1.389 . S
C246 H225 0.949 . S
C246 C245 1.389 . S
C246 C247 1.387 . S
C247 C246 1.387 . S
C247 C248 1.372 . S
C248 H226 0.950 . S
C248 C247 1.372 . S
C248 C249 1.379 . S
C249 H227 0.948 . S
C249 C244 1.364 . S
C249 C248 1.379 . S
C250 C219 1.383 . S
C250 C237 1.479 . S
C250 C251 1.398 . S
C251 C216 1.382 . S
C251 H228 0.951 . S
C251 C250 1.398 . S
C252 C253 1.384 . S
C252 H265 0.947 . S
C252 C287 1.382 . S
C253 C252 1.384 . S
C253 C254 1.378 . S
C254 C253 1.378 . S
C254 C255 1.378 . S
C254 H266 0.952 . S
C255 C254 1.378 . S
C255 H267 0.950 . S
C255 C286 1.383 . S
H256 C275 0.947 . S
H257 C276 0.946 . S
H258 C278 0.953 1_556 S
H259 C279 0.945 . S
H260 C281 0.952 . S
H261 C282 0.949 . S
H262 C284 0.950 . S
H263 C285 0.948 . S
H264 C287 0.951 . S
H265 C252 0.947 . S
H266 C254 0.952 . S
H267 C255 0.950 . S
N268 C271 1.382 . S
N268 C273 1.363 . S
N269 C271 1.371 1_556 S
N269 C272 1.372 . S
N270 C272 1.371 . S
N270 C273 1.363 1_556 S
C271 N268 1.382 . S
C271 N269 1.371 1_554 S
C271 C274 1.480 . S
C272 N269 1.372 . S
C272 N270 1.371 . S
C272 C280 1.457 . S
C273 N268 1.363 . S
C273 N270 1.363 1_554 S
C273 C286 1.479 . S
C274 C271 1.480 . S
C274 C275 1.383 . S
C274 C279 1.385 1_554 S
C275 H256 0.947 . S
C275 C274 1.383 . S
C275 C276 1.388 . S
C276 H257 0.946 . S
C276 C275 1.388 . S
C276 C277 1.384 . S
C277 C276 1.384 . S
C277 C278 1.377 . S
C278 H258 0.953 1_554 S
C278 C277 1.377 . S
C278 C279 1.369 1_554 S
C279 H259 0.945 . S
C279 C274 1.385 1_556 S
C279 C278 1.369 1_556 S
C280 C272 1.457 . S
C280 C281 1.372 . S
C280 C285 1.364 . S
C281 H260 0.952 . S
C281 C280 1.372 . S
C281 C282 1.389 . S
C282 H261 0.949 . S
C282 C281 1.389 . S
C282 C283 1.387 . S
C283 C282 1.387 . S
C283 C284 1.372 . S
C284 H262 0.950 . S
C284 C283 1.372 . S
C284 C285 1.379 . S
C285 H263 0.948 . S
C285 C280 1.364 . S
C285 C284 1.379 . S
C286 C255 1.383 . S
C286 C273 1.479 . S
C286 C287 1.398 . S
C287 C252 1.382 . S
C287 H264 0.951 . S
C287 C286 1.398 . S
Tb288 N319 2.660 1_565 S
Tb288 N326 2.600 . S
Tb288 O332 2.546 . S
Tb288 O333 2.610 1_455 S
Tb288 O335 2.320 1_455 S
Tb288 O336 2.552 . S
Tb288 O337 2.413 . S
Tb288 O339 2.362 1_565 S
Tb288 O340 2.421 . S
Tb288 C352 2.833 . S
C289 C292 1.417 1_545 S
C289 C293 1.408 1_545 S
C289 N296 1.380 . S
C290 C292 1.417 . S
C290 C294 1.432 . S
C290 C302 1.410 . S
C291 C293 1.444 . S
C291 C294 1.317 . S
C291 H314 0.929 . S
C292 C289 1.417 1_565 S
C292 C290 1.417 . S
C292 N300 1.360 . S
C293 C289 1.408 1_565 S
C293 C291 1.444 . S
C293 C298 1.385 1_565 S
C294 C290 1.432 . S
C294 C291 1.317 . S
C294 H306 0.930 . S
C295 C297 1.392 . S
C295 C298 1.370 . S
C295 H307 0.931 . S
N296 C289 1.380 . S
N296 C297 1.327 . S
N296 Tb299 2.600 . S
C297 C295 1.392 . S
C297 N296 1.327 . S
C297 H304 0.930 . S
C298 C293 1.385 1_545 S
C298 C295 1.370 . S
C298 H317 0.930 . S
Tb299 N296 2.600 . S
Tb299 N300 2.660 1_545 S
Tb299 O333 2.362 1_545 S
Tb299 O334 2.421 . S
Tb299 O338 2.546 . S
Tb299 O339 2.610 1_655 S
Tb299 O341 2.320 1_655 S
Tb299 O342 2.546 1_655 S
Tb299 O343 2.413 . S
Tb299 C363 2.833 . S
N300 C292 1.360 . S
N300 Tb299 2.660 1_565 S
N300 C301 1.305 . S
C301 N300 1.305 . S
C301 C303 1.407 . S
C301 H308 0.930 1_655 S
C302 C290 1.410 . S
C302 C303 1.345 . S
C302 H310 0.930 . S
C303 C301 1.407 . S
C303 C302 1.345 . S
C303 H305 0.930 1_655 S
H304 C297 0.930 . S
H305 C303 0.930 1_455 S
H306 C294 0.930 . S
H307 C295 0.931 . S
H308 C301 0.930 1_455 S
H309 C323 0.930 1_654 S
H310 C302 0.930 . S
H311 C329 0.930 . S
H312 C320 0.930 1_655 S
H313 C327 0.931 . S
H314 C291 0.929 . S
H315 C321 0.930 . S
H316 C354 0.930 . S
H317 C298 0.930 . S
H318 C353 0.929 . S
N319 Tb288 2.660 1_545 S
N319 C320 1.305 . S
N319 C324 1.360 . S
C320 H312 0.930 1_455 S
C320 N319 1.305 . S
C320 C323 1.407 . S
C321 H315 0.930 . S
C321 C322 1.410 1_554 S
C321 C323 1.345 1_554 S
C322 C321 1.410 1_556 S
C322 C324 1.417 . S
C322 C354 1.432 1_556 S
C323 H309 0.930 1_456 S
C323 C320 1.407 . S
C323 C321 1.345 1_556 S
C324 N319 1.360 . S
C324 C322 1.417 . S
C324 C328 1.432 . S
H325 C330 0.930 . S
N326 Tb288 2.600 . S
N326 C328 1.359 1_565 S
N326 C329 1.327 . S
C327 H313 0.931 . S
C327 C329 1.392 . S
C327 C330 1.370 1_565 S
C328 C324 1.432 . S
C328 N326 1.359 1_545 S
C328 C331 1.414 . S
C329 H311 0.930 . S
C329 N326 1.327 . S
C329 C327 1.392 . S
C330 H325 0.930 . S
C330 C327 1.370 1_545 S
C330 C331 1.385 . S
C331 C328 1.414 . S
C331 C330 1.385 . S
C331 C353 1.444 . S
O332 Tb288 2.546 . S
O332 C352 1.251 . S
O333 Tb288 2.610 1_655 S
O333 Tb299 2.362 1_565 S
O333 C344 1.283 . S
O334 Tb299 2.421 . S
O334 C351 1.285 . S
O335 Tb288 2.320 1_655 S
O335 C351 1.251 1_565 S
O336 Tb288 2.552 . S
O336 C344 1.243 1_455 S
O337 Tb288 2.413 . S
O337 C352 1.256 . S
O338 Tb299 2.546 . S
O338 C363 1.251 . S
O339 Tb288 2.362 1_545 S
O339 Tb299 2.610 1_455 S
O339 C355 1.283 . S
O340 Tb288 2.421 . S
O340 C362 1.262 1_565 S
O341 Tb299 2.320 1_455 S
O341 C362 1.260 . S
O342 Tb299 2.546 1_455 S
O342 C355 1.253 . S
O343 Tb299 2.413 . S
O343 C363 1.256 . S
C344 O333 1.283 . S
C344 O336 1.243 1_655 S
C345 C347 1.382 . S
C345 C349 1.393 . S
C345 C352 1.500 . S
C346 C347 1.400 . S
C346 C348 1.384 . S
C347 C345 1.382 . S
C347 C346 1.400 . S
C347 H364 0.930 . S
C348 C346 1.384 . S
C348 C350 1.392 . S
C348 H365 0.931 1_556 S
C349 C345 1.393 . S
C349 C350 1.401 . S
C349 H366 0.930 . S
C350 C348 1.392 . S
C350 C349 1.401 . S
C350 H367 0.930 . S
C351 O334 1.285 . S
C351 O335 1.251 1_545 S
C352 Tb288 2.833 . S
C352 O332 1.251 . S
C352 O337 1.256 . S
C352 C345 1.500 . S
C353 H318 0.929 . S
C353 C331 1.444 . S
C353 C354 1.317 1_556 S
C354 H316 0.930 . S
C354 C322 1.432 1_554 S
C354 C353 1.317 1_554 S
C355 O339 1.283 . S
C355 O342 1.253 . S
C356 C357 1.382 . S
C356 C360 1.393 . S
C356 C363 1.500 . S
C357 C356 1.382 . S
C357 C358 1.400 . S
C357 H368 0.930 1_655 S
C358 C357 1.400 . S
C358 C359 1.384 . S
C359 C358 1.384 . S
C359 C361 1.392 . S
C359 H369 0.931 . S
C360 C356 1.393 . S
C360 C361 1.401 . S
C360 H370 0.930 . S
C361 C359 1.392 . S
C361 C360 1.401 . S
C361 H371 0.930 . S
C362 O340 1.262 1_545 S
C362 O341 1.260 . S
C363 Tb299 2.833 . S
C363 O338 1.251 . S
C363 O343 1.256 . S
C363 C356 1.500 . S
H364 C347 0.930 . S
H365 C348 0.931 1_554 S
H366 C349 0.930 . S
H367 C350 0.930 . S
H368 C357 0.930 1_455 S
H369 C359 0.931 . S
H370 C360 0.930 . S
H371 C361 0.930 . S
Tb372 N403 2.660 . S
Tb372 N410 2.600 . S
Tb372 O416 2.546 . S
Tb372 O417 2.610 1_545 S
Tb372 O419 2.320 1_545 S
Tb372 O420 2.552 . S
Tb372 O421 2.413 . S
Tb372 O423 2.362 . S
Tb372 O424 2.421 . S
Tb372 C436 2.833 . S
C373 C376 1.432 . S
C373 C377 1.414 . S
C373 N380 1.359 . S
C374 C376 1.417 . S
C374 C378 1.432 . S
C374 C386 1.410 . S
C375 C377 1.444 . S
C375 C378 1.317 . S
C375 H398 0.929 . S
C376 C373 1.432 . S
C376 C374 1.417 . S
C376 N384 1.360 . S
C377 C373 1.414 . S
C377 C375 1.444 . S
C377 C382 1.385 . S
C378 C374 1.432 . S
C378 C375 1.317 . S
C378 H390 0.930 . S
C379 C381 1.392 . S
C379 C382 1.370 . S
C379 H391 0.931 . S
N380 C373 1.359 . S
N380 C381 1.327 . S
N380 Tb383 2.600 . S
C381 C379 1.392 . S
C381 N380 1.327 . S
C381 H388 0.930 . S
C382 C377 1.385 . S
C382 C379 1.370 . S
C382 H401 0.930 . S
Tb383 N380 2.600 . S
Tb383 N384 2.660 . S
Tb383 O417 2.362 . S
Tb383 O418 2.421 . S
Tb383 O422 2.546 . S
Tb383 O423 2.610 1_565 S
Tb383 O425 2.320 1_565 S
Tb383 O426 2.552 1_565 S
Tb383 O427 2.413 . S
Tb383 C447 2.833 . S
N384 C376 1.360 . S
N384 Tb383 2.660 . S
N384 C385 1.290 1_565 S
C385 N384 1.290 1_545 S
C385 C387 1.407 1_545 S
C385 H392 0.947 . S
C386 C374 1.410 . S
C386 C387 1.345 . S
C386 H394 0.930 . S
C387 C385 1.407 1_565 S
C387 C386 1.345 . S
C387 H389 0.930 1_565 S
H388 C381 0.930 . S
H389 C387 0.930 1_545 S
H390 C378 0.930 . S
H391 C379 0.931 . S
H392 C385 0.947 . S
H393 C407 0.930 1_564 S
H394 C386 0.930 . S
H395 C413 0.930 . S
H396 C404 0.930 1_565 S
H397 C411 0.931 . S
H398 C375 0.929 . S
H399 C405 0.930 . S
H400 C438 0.930 . S
H401 C382 0.930 . S
H402 C437 0.929 . S
N403 Tb372 2.660 . S
N403 C404 1.305 . S
N403 C408 1.360 . S
C404 H396 0.930 1_545 S
C404 N403 1.305 . S
C404 C407 1.407 . S
C405 H399 0.930 . S
C405 C406 1.410 1_554 S
C405 C407 1.345 1_554 S
C406 C405 1.410 1_556 S
C406 C408 1.417 . S
C406 C438 1.432 1_556 S
C407 H393 0.930 1_546 S
C407 C404 1.407 . S
C407 C405 1.345 1_556 S
C408 N403 1.360 . S
C408 C406 1.417 . S
C408 C412 1.432 . S
H409 C414 0.930 . S
N410 Tb372 2.600 . S
N410 C412 1.359 . S
N410 C413 1.327 . S
C411 H397 0.931 . S
C411 C413 1.392 . S
C411 C414 1.370 . S
C412 C408 1.432 . S
C412 N410 1.359 . S
C412 C415 1.414 . S
C413 H395 0.930 . S
C413 N410 1.327 . S
C413 C411 1.392 . S
C414 H409 0.930 . S
C414 C411 1.370 . S
C414 C415 1.385 . S
C415 C412 1.414 . S
C415 C414 1.385 . S
C415 C437 1.444 . S
O416 Tb372 2.546 . S
O416 C436 1.251 . S
O417 Tb372 2.610 1_565 S
O417 Tb383 2.362 . S
O417 C428 1.283 . S
O418 Tb383 2.421 . S
O418 C435 1.262 . S
O419 Tb372 2.320 1_565 S
O419 C435 1.260 . S
O420 Tb372 2.552 . S
O420 C428 1.243 1_545 S
O421 Tb372 2.413 . S
O421 C436 1.256 . S
O422 Tb383 2.546 . S
O422 C447 1.251 . S
O423 Tb372 2.362 . S
O423 Tb383 2.610 1_545 S
O423 C439 1.283 . S
O424 Tb372 2.421 . S
O424 C446 1.262 . S
O425 Tb383 2.320 1_545 S
O425 C446 1.260 . S
O426 Tb383 2.552 1_545 S
O426 C439 1.243 . S
O427 Tb383 2.413 . S
O427 C447 1.256 . S
C428 O417 1.283 . S
C428 O420 1.243 1_565 S
C429 C431 1.382 . S
C429 C433 1.393 . S
C429 C436 1.500 . S
C430 C431 1.400 . S
C430 C432 1.384 . S
C431 C429 1.382 . S
C431 C430 1.400 . S
C431 H448 0.930 . S
C432 C430 1.384 . S
C432 C434 1.392 . S
C432 H449 0.931 1_556 S
C433 C429 1.393 . S
C433 C434 1.401 . S
C433 H450 0.930 . S
C434 C432 1.392 . S
C434 C433 1.401 . S
C434 H451 0.930 . S
C435 O418 1.262 . S
C435 O419 1.260 . S
C436 Tb372 2.833 . S
C436 O416 1.251 . S
C436 O421 1.256 . S
C436 C429 1.500 . S
C437 H402 0.929 . S
C437 C415 1.444 . S
C437 C438 1.317 1_556 S
C438 H400 0.930 . S
C438 C406 1.432 1_554 S
C438 C437 1.317 1_554 S
C439 O423 1.283 . S
C439 O426 1.243 . S
C440 C441 1.382 . S
C440 C444 1.393 . S
C440 C447 1.500 . S
C441 C440 1.382 . S
C441 C442 1.400 . S
C441 H452 0.930 1_565 S
C442 C441 1.400 . S
C442 C443 1.384 . S
C443 C442 1.384 . S
C443 C445 1.392 . S
C443 H453 0.931 . S
C444 C440 1.393 . S
C444 C445 1.401 . S
C444 H454 0.930 . S
C445 C443 1.392 . S
C445 C444 1.401 . S
C445 H455 0.930 . S
C446 O424 1.262 . S
C446 O425 1.260 . S
C447 Tb383 2.833 . S
C447 O422 1.251 . S
C447 O427 1.256 . S
C447 C440 1.500 . S
H448 C431 0.930 . S
H449 C432 0.931 1_554 S
H450 C433 0.930 . S
H451 C434 0.930 . S
H452 C441 0.930 1_545 S
H453 C443 0.931 . S
H454 C444 0.930 . S
H455 C445 0.930 . S
Tb456 N487 2.660 . S
Tb456 N494 2.600 . S
Tb456 O500 2.546 . S
Tb456 O501 2.610 . S
Tb456 O503 2.320 . S
Tb456 O504 2.552 . S
Tb456 O505 2.413 . S
Tb456 O507 2.362 . S
Tb456 O508 2.421 . S
Tb456 C520 2.833 . S
C457 C460 1.432 . S
C457 C461 1.414 . S
C457 N464 1.359 . S
C458 C460 1.417 . S
C458 C462 1.432 . S
C458 C470 1.410 . S
C459 C461 1.444 . S
C459 C462 1.317 . S
C459 H482 0.929 . S
C460 C457 1.432 . S
C460 C458 1.417 . S
C460 N468 1.360 . S
C461 C457 1.414 . S
C461 C459 1.444 . S
C461 C466 1.385 . S
C462 C458 1.432 . S
C462 C459 1.317 . S
C462 H474 0.930 . S
C463 C465 1.392 . S
C463 C466 1.370 . S
C463 H475 0.931 . S
N464 C457 1.359 . S
N464 C465 1.327 . S
N464 Tb467 2.600 . S
C465 C463 1.392 . S
C465 N464 1.327 . S
C465 H472 0.930 . S
C466 C461 1.385 . S
C466 C463 1.370 . S
C466 H485 0.930 . S
Tb467 N464 2.600 . S
Tb467 N468 2.660 . S
Tb467 O501 2.362 . S
Tb467 O502 2.421 . S
Tb467 O506 2.546 . S
Tb467 O507 2.610 . S
Tb467 O509 2.320 . S
Tb467 O510 2.552 . S
Tb467 O511 2.413 . S
Tb467 C531 2.833 . S
N468 C460 1.360 . S
N468 Tb467 2.660 . S
N468 C469 1.305 . S
C469 N468 1.305 . S
C469 C471 1.407 . S
C469 H476 0.930 . S
C470 C458 1.410 . S
C470 C471 1.345 . S
C470 H478 0.930 . S
C471 C469 1.407 . S
C471 C470 1.345 . S
C471 H473 0.930 . S
H472 C465 0.930 . S
H473 C471 0.930 . S
H474 C462 0.930 . S
H475 C463 0.931 . S
H476 C469 0.930 . S
H477 C491 0.930 . S
H478 C470 0.930 . S
H479 C497 0.930 . S
H480 C488 0.930 . S
H481 C495 0.931 . S
H482 C459 0.929 . S
H483 C489 0.930 . S
H484 C522 0.930 . S
H485 C466 0.930 . S
H486 C521 0.929 . S
N487 Tb456 2.660 . S
N487 C488 1.305 . S
N487 C492 1.360 . S
C488 H480 0.930 . S
C488 N487 1.305 . S
C488 C491 1.407 . S
C489 H483 0.930 . S
C489 C490 1.410 . S
C489 C491 1.345 . S
C490 C489 1.410 . S
C490 C492 1.417 . S
C490 C522 1.432 . S
C491 H477 0.930 . S
C491 C488 1.407 . S
C491 C489 1.345 . S
C492 N487 1.360 . S
C492 C490 1.417 . S
C492 C496 1.432 . S
H493 C498 0.930 . S
N494 Tb456 2.600 . S
N494 C496 1.359 . S
N494 C497 1.327 . S
C495 H481 0.931 . S
C495 C497 1.392 . S
C495 C498 1.370 . S
C496 C492 1.432 . S
C496 N494 1.359 . S
C496 C499 1.414 . S
C497 H479 0.930 . S
C497 N494 1.327 . S
C497 C495 1.392 . S
C498 H493 0.930 . S
C498 C495 1.370 . S
C498 C499 1.385 . S
C499 C496 1.414 . S
C499 C498 1.385 . S
C499 C521 1.444 . S
O500 Tb456 2.546 . S
O500 C520 1.251 . S
O501 Tb456 2.610 . S
O501 Tb467 2.362 . S
O501 C512 1.283 . S
O502 Tb467 2.421 . S
O502 C519 1.262 . S
O503 Tb456 2.320 . S
O503 C519 1.260 . S
O504 Tb456 2.552 . S
O504 C512 1.243 . S
O505 Tb456 2.413 . S
O505 C520 1.256 . S
O506 Tb467 2.546 . S
O506 C531 1.251 . S
O507 Tb456 2.362 . S
O507 Tb467 2.610 . S
O507 C523 1.283 . S
O508 Tb456 2.421 . S
O508 C530 1.262 . S
O509 Tb467 2.320 . S
O509 C530 1.260 . S
O510 Tb467 2.552 . S
O510 C523 1.243 . S
O511 Tb467 2.413 . S
O511 C531 1.256 . S
C512 O501 1.283 . S
C512 O504 1.243 . S
C513 C515 1.382 . S
C513 C517 1.393 . S
C513 C520 1.500 . S
C514 C515 1.400 . S
C514 C516 1.384 . S
C515 C513 1.382 . S
C515 C514 1.400 . S
C515 H532 0.930 . S
C516 C514 1.384 . S
C516 C518 1.392 . S
C516 H533 0.931 . S
C517 C513 1.393 . S
C517 C518 1.401 . S
C517 H534 0.930 . S
C518 C516 1.392 . S
C518 C517 1.401 . S
C518 H535 0.930 . S
C519 O502 1.262 . S
C519 O503 1.260 . S
C520 Tb456 2.833 . S
C520 O500 1.251 . S
C520 O505 1.256 . S
C520 C513 1.500 . S
C521 H486 0.929 . S
C521 C499 1.444 . S
C521 C522 1.317 . S
C522 H484 0.930 . S
C522 C490 1.432 . S
C522 C521 1.317 . S
C523 O507 1.283 . S
C523 O510 1.243 . S
C524 C525 1.382 . S
C524 C528 1.393 1_556 S
C524 C531 1.500 . S
C525 C524 1.382 . S
C525 C526 1.393 1_556 S
C525 H536 0.930 . S
C526 C525 1.393 1_554 S
C526 C527 1.392 . S
C527 C526 1.392 . S
C527 C529 1.392 . S
C527 H537 0.931 . S
C528 C524 1.393 1_554 S
C528 C529 1.401 . S
C528 H538 0.930 . S
C529 C527 1.392 . S
C529 C528 1.401 . S
C529 H539 0.930 . S
C530 O508 1.262 . S
C530 O509 1.260 . S
C531 Tb467 2.833 . S
C531 O506 1.251 . S
C531 O511 1.256 . S
C531 C524 1.500 . S
H532 C515 0.930 . S
H533 C516 0.931 . S
H534 C517 0.930 . S
H535 C518 0.930 . S
H536 C525 0.930 . S
H537 C527 0.931 . S
H538 C528 0.930 . S
H539 C529 0.930 . S
Tb540 N571 2.660 . S
Tb540 N578 2.600 . S
Tb540 O584 2.546 . S
Tb540 O585 2.610 . S
Tb540 O587 2.320 . S
Tb540 O588 2.552 . S
Tb540 O589 2.413 . S
Tb540 O591 2.347 1_455 S
Tb540 O592 2.421 1_455 S
Tb540 C604 2.833 . S
C541 C544 1.432 . S
C541 C545 1.414 . S
C541 N548 1.359 . S
C542 C544 1.417 . S
C542 C546 1.432 . S
C542 C554 1.410 . S
C543 C545 1.444 . S
C543 C546 1.317 . S
C543 H566 0.929 . S
C544 C541 1.432 . S
C544 C542 1.417 . S
C544 N552 1.360 . S
C545 C541 1.414 . S
C545 C543 1.444 . S
C545 C550 1.365 1_655 S
C546 C542 1.432 . S
C546 C543 1.317 . S
C546 H558 0.930 . S
C547 C549 1.392 . S
C547 C550 1.386 . S
C547 H559 0.931 . S
N548 C541 1.359 . S
N548 C549 1.327 1_655 S
N548 Tb551 2.600 . S
C549 C547 1.392 . S
C549 N548 1.327 1_455 S
C549 H556 0.930 . S
C550 C545 1.365 1_455 S
C550 C547 1.386 . S
C550 H569 0.935 . S
Tb551 N548 2.600 . S
Tb551 N552 2.660 . S
Tb551 O585 2.362 1_655 S
Tb551 O586 2.421 1_655 S
Tb551 O590 2.546 . S
Tb551 O591 2.619 . S
Tb551 O593 2.320 . S
Tb551 O594 2.552 . S
Tb551 O595 2.413 . S
Tb551 C615 2.833 . S
N552 C544 1.360 . S
N552 Tb551 2.660 . S
N552 C553 1.305 . S
C553 N552 1.305 . S
C553 C555 1.407 . S
C553 H560 0.930 . S
C554 C542 1.410 . S
C554 C555 1.345 . S
C554 H562 0.930 . S
C555 C553 1.407 . S
C555 C554 1.345 . S
C555 H557 0.930 . S
H556 C549 0.930 . S
H557 C555 0.930 . S
H558 C546 0.930 . S
H559 C547 0.931 . S
H560 C553 0.930 . S
H561 C575 0.930 . S
H562 C554 0.930 . S
H563 C581 0.930 . S
H564 C572 0.930 . S
H565 C579 0.931 . S
H566 C543 0.929 . S
H567 C573 0.930 . S
H568 C606 0.930 . S
H569 C550 0.935 . S
H570 C605 0.929 . S
N571 Tb540 2.660 . S
N571 C572 1.305 . S
N571 C576 1.360 . S
C572 H564 0.930 . S
C572 N571 1.305 . S
C572 C575 1.407 . S
C573 H567 0.930 . S
C573 C574 1.410 . S
C573 C575 1.345 . S
C574 C573 1.410 . S
C574 C576 1.417 . S
C574 C606 1.432 . S
C575 H561 0.930 . S
C575 C572 1.407 . S
C575 C573 1.345 . S
C576 N571 1.360 . S
C576 C574 1.417 . S
C576 C580 1.432 . S
H577 C582 0.930 . S
N578 Tb540 2.600 . S
N578 C580 1.359 . S
N578 C581 1.327 1_455 S
C579 H565 0.931 . S
C579 C581 1.392 . S
C579 C582 1.370 1_655 S
C580 C576 1.432 . S
C580 N578 1.359 . S
C580 C583 1.414 . S
C581 H563 0.930 . S
C581 N578 1.327 1_655 S
C581 C579 1.392 . S
C582 H577 0.930 . S
C582 C579 1.370 1_455 S
C582 C583 1.385 . S
C583 C580 1.414 . S
C583 C582 1.385 . S
C583 C605 1.444 . S
O584 Tb540 2.546 . S
O584 C604 1.251 . S
O585 Tb540 2.610 . S
O585 Tb551 2.362 1_455 S
O585 C596 1.283 . S
O586 Tb551 2.421 1_455 S
O586 C603 1.262 . S
O587 Tb540 2.320 . S
O587 C603 1.260 . S
O588 Tb540 2.552 . S
O588 C596 1.243 . S
O589 Tb540 2.413 . S
O589 C604 1.256 . S
O590 Tb551 2.546 . S
O590 C615 1.251 . S
O591 Tb540 2.347 1_655 S
O591 Tb551 2.619 . S
O591 C607 1.294 . S
O592 Tb540 2.421 1_655 S
O592 C614 1.262 . S
O593 Tb551 2.320 . S
O593 C614 1.260 . S
O594 Tb551 2.552 . S
O594 C607 1.243 . S
O595 Tb551 2.413 . S
O595 C615 1.256 . S
C596 O585 1.283 . S
C596 O588 1.243 . S
C597 C599 1.382 . S
C597 C601 1.393 . S
C597 C604 1.500 . S
C598 C599 1.400 . S
C598 C600 1.384 . S
C599 C597 1.382 . S
C599 C598 1.400 . S
C599 H616 0.930 . S
C600 C598 1.384 . S
C600 C602 1.392 . S
C600 H617 0.931 . S
C601 C597 1.393 . S
C601 C602 1.401 . S
C601 H618 0.930 . S
C602 C600 1.392 . S
C602 C601 1.401 . S
C602 H619 0.930 . S
C603 O586 1.262 . S
C603 O587 1.260 . S
C604 Tb540 2.833 . S
C604 O584 1.251 . S
C604 O589 1.256 . S
C604 C597 1.500 . S
C605 H570 0.929 . S
C605 C583 1.444 . S
C605 C606 1.317 . S
C606 H568 0.930 . S
C606 C574 1.432 . S
C606 C605 1.317 . S
C607 O591 1.294 . S
C607 O594 1.243 . S
C608 C609 1.382 . S
C608 C612 1.393 1_556 S
C608 C615 1.500 . S
C609 C608 1.382 . S
C609 C610 1.405 . S
C609 H620 0.930 . S
C610 C609 1.405 . S
C610 C611 1.378 1_556 S
C611 C610 1.378 1_554 S
C611 C613 1.392 . S
C611 H621 0.931 . S
C612 C608 1.393 1_554 S
C612 C613 1.401 . S
C612 H622 0.930 . S
C613 C611 1.392 . S
C613 C612 1.401 . S
C613 H623 0.930 . S
C614 O592 1.262 . S
C614 O593 1.260 . S
C615 Tb551 2.833 . S
C615 O590 1.251 . S
C615 O595 1.256 . S
C615 C608 1.500 . S
H616 C599 0.930 . S
H617 C600 0.931 . S
H618 C601 0.930 . S
H619 C602 0.930 . S
H620 C609 0.930 . S
H621 C611 0.931 . S
H622 C612 0.930 . S
H623 C613 0.930 . S
C624 C625 1.387 . S
C624 H628 0.950 . S
C624 C633 1.390 . S
C625 C624 1.387 . S
C625 C627 1.387 . S
H626 C633 0.950 1_565 S
C627 C625 1.387 . S
C627 C629 1.390 . S
C627 H631 0.950 . S
H628 C624 0.950 . S
C629 C627 1.390 . S
C629 C630 1.387 . S
C629 H632 0.950 . S
C630 C629 1.387 . S
C630 C633 1.387 . S
H631 C627 0.950 . S
H632 C629 0.950 . S
C633 C624 1.390 . S
C633 H626 0.950 1_545 S
C633 C630 1.387 . S
C634 C635 1.387 . S
C634 H638 0.950 . S
C634 C643 1.390 . S
C635 C634 1.387 . S
C635 C637 1.387 . S
H636 C643 0.950 . S
C637 C635 1.387 . S
C637 C639 1.390 . S
C637 H641 0.950 . S
H638 C634 0.950 . S
C639 C637 1.390 . S
C639 C640 1.387 . S
C639 H642 0.950 . S
C640 C639 1.387 . S
C640 C643 1.387 . S
H641 C637 0.950 . S
H642 C639 0.950 . S
C643 C634 1.390 . S
C643 H636 0.950 . S
C643 C640 1.387 . S
C644 C645 1.387 . S
C644 H648 0.950 . S
C644 C653 1.390 . S
C645 C644 1.387 . S
C645 C647 1.387 . S
H646 C653 0.950 . S
C647 C645 1.387 . S
C647 C649 1.390 . S
C647 H651 0.950 . S
H648 C644 0.950 . S
C649 C647 1.390 . S
C649 C650 1.387 . S
C649 H652 0.950 . S
C650 C649 1.387 . S
C650 C653 1.387 . S
H651 C647 0.950 . S
H652 C649 0.950 . S
C653 C644 1.390 . S
C653 H646 0.950 . S
C653 C650 1.387 . S
C654 C655 1.387 . S
C654 H658 0.950 . S
C654 C663 1.390 . S
C655 C654 1.387 . S
C655 C657 1.387 . S
H656 C663 0.950 . S
C657 C655 1.387 . S
C657 C659 1.390 . S
C657 H661 0.950 . S
H658 C654 0.950 . S
C659 C657 1.390 . S
C659 C660 1.387 . S
C659 H662 0.950 . S
C660 C659 1.387 . S
C660 C663 1.387 . S
H661 C657 0.950 . S
H662 C659 0.950 . S
C663 C654 1.390 . S
C663 H656 0.950 . S
C663 C660 1.387 . S
C664 C665 1.387 . S
C664 H668 0.950 . S
C664 C673 1.390 1_554 S
C665 C664 1.387 . S
C665 C667 1.387 . S
H666 C673 0.950 . S
C667 C665 1.387 . S
C667 C669 1.390 1_554 S
C667 H671 0.950 . S
H668 C664 0.950 . S
C669 C667 1.390 1_556 S
C669 C670 1.387 . S
C669 H672 0.950 . S
C670 C669 1.387 . S
C670 C673 1.387 . S
H671 C667 0.950 . S
H672 C669 0.950 . S
C673 C664 1.390 1_556 S
C673 H666 0.950 . S
C673 C670 1.387 . S
C674 C675 1.387 . S
C674 H678 0.950 . S
C674 C683 1.390 1_554 S
C675 C674 1.387 . S
C675 C677 1.387 . S
H676 C683 0.950 . S
C677 C675 1.387 . S
C677 C679 1.390 1_554 S
C677 H681 0.950 . S
H678 C674 0.950 . S
C679 C677 1.390 1_556 S
C679 C680 1.387 . S
C679 H682 0.950 . S
C680 C679 1.387 . S
C680 C683 1.387 . S
H681 C677 0.950 . S
H682 C679 0.950 . S
C683 C674 1.390 1_556 S
C683 H676 0.950 . S
C683 C680 1.387 . S
C684 C685 1.387 . S
C684 H688 0.950 . S
C684 C693 1.390 1_554 S
C685 C684 1.387 . S
C685 C687 1.387 . S
H686 C693 0.950 . S
C687 C685 1.387 . S
C687 C689 1.390 1_554 S
C687 H691 0.950 . S
H688 C684 0.950 . S
C689 C687 1.390 1_556 S
C689 C690 1.387 . S
C689 H692 0.950 . S
C690 C689 1.387 . S
C690 C693 1.387 . S
H691 C687 0.950 . S
H692 C689 0.950 . S
C693 C684 1.390 1_556 S
C693 H686 0.950 . S
C693 C690 1.387 . S
C694 C695 1.387 . S
C694 H698 0.950 . S
C694 C703 1.390 1_554 S
C695 C694 1.387 . S
C695 C697 1.387 . S
H696 C703 0.950 . S
C697 C695 1.387 . S
C697 C699 1.390 1_554 S
C697 H701 0.950 . S
H698 C694 0.950 . S
C699 C697 1.390 1_556 S
C699 C700 1.387 . S
C699 H702 0.950 . S
C700 C699 1.387 . S
C700 C703 1.387 . S
H701 C697 0.950 . S
H702 C699 0.950 . S
C703 C694 1.390 1_556 S
C703 H696 0.950 . S
C703 C700 1.387 . S
C704 C705 1.387 . S
C704 H708 0.950 . S
C704 C713 1.390 . S
C705 C704 1.387 . S
C705 C707 1.387 . S
H706 C713 0.950 . S
C707 C705 1.387 . S
C707 C709 1.390 . S
C707 H711 0.950 . S
H708 C704 0.950 . S
C709 C707 1.390 . S
C709 C710 1.387 . S
C709 H712 0.950 . S
C710 C709 1.387 . S
C710 C713 1.387 . S
H711 C707 0.950 . S
H712 C709 0.950 . S
C713 C704 1.390 . S
C713 H706 0.950 . S
C713 C710 1.387 . S
C714 C715 1.387 . S
C714 H718 0.950 . S
C714 C723 1.390 . S
C715 C714 1.387 . S
C715 C717 1.387 . S
H716 C723 0.950 . S
C717 C715 1.387 . S
C717 C719 1.390 . S
C717 H721 0.950 . S
H718 C714 0.950 . S
C719 C717 1.390 . S
C719 C720 1.387 . S
C719 H722 0.950 1_545 S
C720 C719 1.387 . S
C720 C723 1.387 . S
H721 C717 0.950 . S
H722 C719 0.950 1_565 S
C723 C714 1.390 . S
C723 H716 0.950 . S
C723 C720 1.387 . S
C724 C725 1.387 . S
C724 H728 0.950 . S
C724 C733 1.390 . S
C725 C724 1.387 . S
C725 C727 1.387 . S
H726 C733 0.950 . S
C727 C725 1.387 . S
C727 C729 1.390 . S
C727 H731 0.950 . S
H728 C724 0.950 . S
C729 C727 1.390 . S
C729 C730 1.387 . S
C729 H732 0.950 . S
C730 C729 1.387 . S
C730 C733 1.387 . S
H731 C727 0.950 . S
H732 C729 0.950 . S
C733 C724 1.390 . S
C733 H726 0.950 . S
C733 C730 1.387 . S
C734 C735 1.387 . S
C734 H738 0.950 . S
C734 C743 1.390 . S
C735 C734 1.387 . S
C735 C737 1.387 . S
H736 C743 0.950 . S
C737 C735 1.387 . S
C737 C739 1.390 . S
C737 H741 0.950 . S
H738 C734 0.950 . S
C739 C737 1.390 . S
C739 C740 1.387 . S
C739 H742 0.950 . S
C740 C739 1.387 . S
C740 C743 1.387 . S
H741 C737 0.950 . S
H742 C739 0.950 . S
C743 C734 1.390 . S
C743 H736 0.950 . S
C743 C740 1.387 . S
C744 C745 1.387 . S
C744 H748 0.950 . S
C744 C753 1.390 . S
C745 C744 1.387 . S
C745 C747 1.387 1_554 S
H746 C753 0.955 . S
C747 C745 1.387 1_556 S
C747 C749 1.390 . S
C747 H751 0.950 . S
H748 C744 0.950 . S
C749 C747 1.390 . S
C749 C750 1.387 1_655 S
C749 H752 0.950 1_655 S
C750 C749 1.387 1_455 S
C750 C753 1.387 1_456 S
H751 C747 0.950 . S
H752 C749 0.950 1_455 S
C753 C744 1.390 . S
C753 H746 0.955 . S
C753 C750 1.387 1_654 S
C754 C755 1.387 . S
C754 H758 0.950 . S
C754 C763 1.366 1_565 S
C755 C754 1.387 . S
C755 C757 1.387 1_554 S
H756 C763 0.965 . S
C757 C755 1.387 1_556 S
C757 C759 1.390 . S
C757 H761 0.950 . S
H758 C754 0.950 . S
C759 C757 1.390 . S
C759 C760 1.387 1_565 S
C759 H762 0.950 1_565 S
C760 C759 1.387 1_545 S
C760 C763 1.397 1_556 S
H761 C757 0.950 . S
H762 C759 0.950 1_545 S
C763 C754 1.366 1_545 S
C763 H756 0.965 . S
C763 C760 1.397 1_554 S
C764 C765 1.387 . S
C764 H768 0.950 . S
C764 C773 1.390 . S
C765 C764 1.387 . S
C765 C767 1.387 1_554 S
H766 C773 0.950 . S
C767 C765 1.387 1_556 S
C767 C769 1.390 . S
C767 H771 0.950 . S
H768 C764 0.950 . S
C769 C767 1.390 . S
C769 C770 1.387 . S
C769 H772 0.950 . S
C770 C769 1.387 . S
C770 C773 1.387 1_556 S
H771 C767 0.950 . S
H772 C769 0.950 . S
C773 C764 1.390 . S
C773 H766 0.950 . S
C773 C770 1.387 1_554 S
C774 C775 1.387 . S
C774 H778 0.950 . S
C774 C783 1.390 . S
C775 C774 1.387 . S
C775 C777 1.387 1_554 S
H776 C783 0.950 . S
C777 C775 1.387 1_556 S
C777 C779 1.390 . S
C777 H781 0.950 . S
H778 C774 0.950 . S
C779 C777 1.390 . S
C779 C780 1.387 . S
C779 H782 0.950 . S
C780 C779 1.387 . S
C780 C783 1.387 1_556 S
H781 C777 0.950 . S
H782 C779 0.950 . S
C783 C774 1.390 . S
C783 H776 0.950 . S
C783 C780 1.387 1_554 S
C784 C785 1.387 . S
C784 H788 0.950 . S
C784 C793 1.390 . S
C785 C784 1.387 . S
C785 C787 1.387 . S
H786 C793 0.950 . S
C787 C785 1.387 . S
C787 C789 1.390 . S
C787 H791 0.950 . S
H788 C784 0.950 . S
C789 C787 1.390 . S
C789 C790 1.387 . S
C789 H792 0.960 . S
C790 C789 1.387 . S
C790 C793 1.387 . S
H791 C787 0.950 . S
H792 C789 0.960 . S
C793 C784 1.390 . S
C793 H786 0.950 . S
C793 C790 1.387 . S
C794 C795 1.387 . S
C794 H798 0.950 . S
C794 C803 1.390 . S
C795 C794 1.387 . S
C795 C797 1.387 . S
H796 C803 0.950 . S
C797 C795 1.387 . S
C797 C799 1.390 . S
C797 H801 0.950 . S
H798 C794 0.950 . S
C799 C797 1.390 . S
C799 C800 1.387 . S
C799 H802 0.950 . S
C800 C799 1.387 . S
C800 C803 1.387 . S
H801 C797 0.950 . S
H802 C799 0.950 . S
C803 C794 1.390 . S
C803 H796 0.950 . S
C803 C800 1.387 . S
C804 C805 1.387 . S
C804 H808 0.950 . S
C804 C813 1.390 . S
C805 C804 1.387 . S
C805 C807 1.387 . S
H806 C813 0.950 . S
C807 C805 1.387 . S
C807 C809 1.390 . S
C807 H811 0.950 . S
H808 C804 0.950 . S
C809 C807 1.390 . S
C809 C810 1.387 . S
C809 H812 0.950 . S
C810 C809 1.387 . S
C810 C813 1.387 . S
H811 C807 0.950 . S
H812 C809 0.950 . S
C813 C804 1.390 . S
C813 H806 0.950 . S
C813 C810 1.387 . S
C814 C815 1.387 . S
C814 H818 0.950 . S
C814 C823 1.390 . S
C815 C814 1.387 . S
C815 C817 1.387 . S
H816 C823 0.950 . S
C817 C815 1.387 . S
C817 C819 1.390 . S
C817 H821 0.950 . S
H818 C814 0.950 . S
C819 C817 1.390 . S
C819 C820 1.387 . S
C819 H822 0.950 . S
C820 C819 1.387 . S
C820 C823 1.387 . S
H821 C817 0.950 . S
H822 C819 0.950 . S
C823 C814 1.390 . S
C823 H816 0.950 . S
C823 C820 1.387 . S
C824 C825 1.387 . S
C824 H828 0.950 . S
C824 C833 1.390 . S
C825 C824 1.387 . S
C825 C827 1.387 . S
H826 C833 0.950 . S
C827 C825 1.387 . S
C827 C829 1.390 . S
C827 H831 0.950 . S
H828 C824 0.950 . S
C829 C827 1.390 . S
C829 C830 1.387 . S
C829 H832 0.950 . S
C830 C829 1.387 . S
C830 C833 1.387 . S
H831 C827 0.950 . S
H832 C829 0.950 . S
C833 C824 1.390 . S
C833 H826 0.950 . S
C833 C830 1.387 . S
C834 C835 1.387 . S
C834 H838 0.950 . S
C834 C843 1.390 . S
C835 C834 1.387 . S
C835 C837 1.387 . S
H836 C843 0.950 . S
C837 C835 1.387 . S
C837 C839 1.390 . S
C837 H841 0.950 . S
H838 C834 0.950 . S
C839 C837 1.390 . S
C839 C840 1.387 . S
C839 H842 0.950 . S
C840 C839 1.387 . S
C840 C843 1.387 . S
H841 C837 0.950 . S
H842 C839 0.950 . S
C843 C834 1.390 . S
C843 H836 0.950 . S
C843 C840 1.387 . S
C844 C845 1.387 . S
C844 H848 0.950 . S
C844 C853 1.390 . S
C845 C844 1.387 . S
C845 C847 1.387 . S
H846 C853 0.950 . S
C847 C845 1.387 . S
C847 C849 1.390 . S
C847 H851 0.950 . S
H848 C844 0.950 . S
C849 C847 1.390 . S
C849 C850 1.387 . S
C849 H852 0.950 . S
C850 C849 1.387 . S
C850 C853 1.387 . S
H851 C847 0.950 . S
H852 C849 0.950 . S
C853 C844 1.390 . S
C853 H846 0.950 . S
C853 C850 1.387 . S
C854 C855 1.387 . S
C854 H858 0.950 . S
C854 C863 1.390 . S
C855 C854 1.387 . S
C855 C857 1.387 . S
H856 C863 0.950 . S
C857 C855 1.387 . S
C857 C859 1.390 . S
C857 H861 0.950 . S
H858 C854 0.950 . S
C859 C857 1.390 . S
C859 C860 1.387 . S
C859 H862 0.950 . S
C860 C859 1.387 . S
C860 C863 1.387 . S
H861 C857 0.950 . S
H862 C859 0.950 . S
C863 C854 1.390 . S
C863 H856 0.950 . S
C863 C860 1.387 . S
C625 C241 2.545 . S
C630 C362 2.719 . S
C640 C446 2.742 . S
C635 C277 2.594 . S
C650 C512 2.529 . S
C645 C169 2.626 . S
C660 C596 2.536 . S
C655 C205 2.631 . S
C670 C351 2.706 1_565 S
C665 C97 2.496 . S
C675 C133 2.643 . S
C680 C435 2.741 . S
C685 C25 2.570 . S
C690 C523 2.529 . S
C695 C61 2.580 . S
C700 C607 2.537 . S
C710 C358 1.182 1_455 S
C705 C211 1.051 . S
C720 C442 1.113 1_545 S
C715 C247 1.001 . S
C730 C514 1.092 . S
C725 C253 0.932 . S
C735 C175 1.029 . S
C740 C598 1.164 . S
C745 C67 0.975 . S
C750 C346 1.182 . S
C760 C430 1.113 . S
C755 C103 0.936 . S
C770 C526 1.092 1_556 S
C765 C109 0.983 . S
C775 C31 0.956 . S
C780 C610 1.168 . S
C785 C181 3.068 . S
C790 C355 3.243 . S
C795 C217 3.031 . S
C800 C439 3.208 . S
C810 C519 3.389 . S
C805 C283 2.836 . S
C820 C603 3.403 . S
C815 C145 2.965 . S
C825 C37 3.039 . S
C830 C344 3.243 . S
C840 C428 3.209 . S
C835 C73 3.007 . S
C850 C530 3.388 . S
C845 C139 2.873 . S
C855 C1 2.935 . S
C860 C614 3.403 . S
