# Generated by pormake.
# Topology zzz, (3,6)-cn, num edge types: 1
# Building blocks:
#     Node 0, Type 0, BuildingBlock: PAMTOO_clean_linker_0, # of connection points: 3
#     Node 1, Type 0, BuildingBlock: PAMTOO_clean_linker_0, # of connection points: 3
#     Node 2, Type 0, BuildingBlock: PAMTOO_clean_linker_0, # of connection points: 3
#     Node 3, Type 0, BuildingBlock: PAMTOO_clean_linker_0, # of connection points: 3
#     Node 4, Type 0, BuildingBlock: PAMTOO_clean_linker_0, # of connection points: 3
#     Node 5, Type 0, BuildingBlock: PAMTOO_clean_linker_0, # of connection points: 3
#     Node 6, Type 0, BuildingBlock: PAMTOO_clean_linker_0, # of connection points: 3
#     Node 7, Type 0, BuildingBlock: PAMTOO_clean_linker_0, # of connection points: 3
#     Node 8, Type 1, BuildingBlock: FUNLAD_clean_sbu_0, # of connection points: 6
#     Node 9, Type 1, BuildingBlock: FUNLAD_clean_sbu_0, # of connection points: 6
#     Node 10, Type 1, BuildingBlock: FUNLAD_clean_sbu_0, # of connection points: 6
#     Node 11, Type 1, BuildingBlock: FUNLAD_clean_sbu_0, # of connection points: 6
#     Edge 12, Type (0, 1), BuildingBlock: UVAHIK_clean_linker_0, # of connection points: 2
#     Edge 13, Type (0, 1), BuildingBlock: UVAHIK_clean_linker_0, # of connection points: 2
#     Edge 14, Type (0, 1), BuildingBlock: UVAHIK_clean_linker_0, # of connection points: 2
#     Edge 15, Type (0, 1), BuildingBlock: UVAHIK_clean_linker_0, # of connection points: 2
#     Edge 16, Type (0, 1), BuildingBlock: UVAHIK_clean_linker_0, # of connection points: 2
#     Edge 17, Type (0, 1), BuildingBlock: UVAHIK_clean_linker_0, # of connection points: 2
#     Edge 18, Type (0, 1), BuildingBlock: UVAHIK_clean_linker_0, # of connection points: 2
#     Edge 19, Type (0, 1), BuildingBlock: UVAHIK_clean_linker_0, # of connection points: 2
#     Edge 20, Type (0, 1), BuildingBlock: UVAHIK_clean_linker_0, # of connection points: 2
#     Edge 21, Type (0, 1), BuildingBlock: UVAHIK_clean_linker_0, # of connection points: 2
#     Edge 22, Type (0, 1), BuildingBlock: UVAHIK_clean_linker_0, # of connection points: 2
#     Edge 23, Type (0, 1), BuildingBlock: UVAHIK_clean_linker_0, # of connection points: 2
#     Edge 24, Type (0, 1), BuildingBlock: UVAHIK_clean_linker_0, # of connection points: 2
#     Edge 25, Type (0, 1), BuildingBlock: UVAHIK_clean_linker_0, # of connection points: 2
#     Edge 26, Type (0, 1), BuildingBlock: UVAHIK_clean_linker_0, # of connection points: 2
#     Edge 27, Type (0, 1), BuildingBlock: UVAHIK_clean_linker_0, # of connection points: 2
#     Edge 28, Type (0, 1), BuildingBlock: UVAHIK_clean_linker_0, # of connection points: 2
#     Edge 29, Type (0, 1), BuildingBlock: UVAHIK_clean_linker_0, # of connection points: 2
#     Edge 30, Type (0, 1), BuildingBlock: UVAHIK_clean_linker_0, # of connection points: 2
#     Edge 31, Type (0, 1), BuildingBlock: UVAHIK_clean_linker_0, # of connection points: 2
#     Edge 32, Type (0, 1), BuildingBlock: UVAHIK_clean_linker_0, # of connection points: 2
#     Edge 33, Type (0, 1), BuildingBlock: UVAHIK_clean_linker_0, # of connection points: 2
#     Edge 34, Type (0, 1), BuildingBlock: UVAHIK_clean_linker_0, # of connection points: 2
#     Edge 35, Type (0, 1), BuildingBlock: UVAHIK_clean_linker_0, # of connection points: 2
# Relax obj value: 0.124
# Max RMSD: 0.176
# Mean RMSD: 0.088
data_MOF--net-zzz--node1-FUNLAD_clean_sbu_0--node2-PAMTOO_clean_linker_0--edge1-UVAHIK_clean_linker_0
_symmetry_space_group_name_H-M    P1
_symmetry_Int_Tables_number       1
_symmetry_cell_setting            triclinic
loop_
_symmetry_equiv_pos_as_xyz
'x, y, z'
_cell_length_a     65.844421
_cell_length_b     71.370684
_cell_length_c     22.212434
_cell_angle_alpha  86.412401
_cell_angle_beta   86.027401
_cell_angle_gamma 90.129964
loop_
_atom_site_label
_atom_site_type_symbol
_atom_site_fract_x
_atom_site_fract_y
_atom_site_fract_z
_atom_type_partial_charge
H0 H 0.83066 0.48383 0.21537 0.0
H1 H 0.77596 0.49232 0.12229 0.0
H2 H 0.77915 0.51076 0.30191 0.0
H3 H 0.73056 0.50445 0.26581 0.0
C4 C 0.73911 0.49801 0.22751 0.0
O5 O 0.75625 0.50875 0.21045 0.0
H6 H 0.74312 0.48352 0.24422 0.0
C7 C 0.81492 0.48826 0.21526 0.0
C8 C 0.8061 0.49697 0.26554 0.0
C9 C 0.80429 0.48643 0.16329 0.0
C10 C 0.78439 0.49338 0.16213 0.0
C11 C 0.77532 0.50192 0.21235 0.0
C12 C 0.78619 0.50386 0.26376 0.0
H13 H 0.95655 0.8255 0.11068 0.0
H14 H 0.97047 0.7723 0.03777 0.0
H15 H 0.94362 0.77431 0.21962 0.0
H16 H 0.96983 0.73713 0.20065 0.0
C17 C 0.97231 0.74135 0.15165 0.0
O18 O 0.95613 0.75215 0.13404 0.0
H19 H 0.98688 0.74944 0.14531 0.0
C20 C 0.95624 0.81027 0.11558 0.0
C21 C 0.94887 0.80124 0.1706 0.0
C22 C 0.96424 0.80003 0.06786 0.0
C23 C 0.96443 0.78039 0.07456 0.0
C24 C 0.95674 0.77111 0.12899 0.0
C25 C 0.94927 0.78153 0.17741 0.0
H26 H 0.6871 0.01071 0.15508 0.0
H27 H 0.74138 0.0069 0.03695 0.0
H28 H 0.74291 0.99197 0.22755 0.0
H29 H 0.78215 0.01036 0.1748 0.0
C30 C 0.77935 0.0092 0.12636 0.0
O31 O 0.76468 0.99551 0.12253 0.0
H32 H 0.77393 0.0231 0.10845 0.0
C33 C 0.70324 0.0078 0.14834 0.0
C34 C 0.71378 0.00137 0.19806 0.0
C35 C 0.7129 0.00986 0.09006 0.0
C36 C 0.73362 0.00537 0.08164 0.0
C37 C 0.74453 0.99916 0.1312 0.0
C38 C 0.73452 0.99689 0.18944 0.0
H39 H 0.53929 0.66244 0.14304 0.0
H40 H 0.52523 0.71472 0.04818 0.0
H41 H 0.53941 0.71378 0.23455 0.0
H42 H 0.51086 0.74696 0.20022 0.0
C43 C 0.51257 0.74432 0.15135 0.0
O44 O 0.53077 0.7353 0.13923 0.0
H45 H 0.49941 0.73545 0.14133 0.0
C46 C 0.53772 0.67759 0.14204 0.0
C47 C 0.54026 0.6869 0.19465 0.0
C48 C 0.53204 0.68741 0.08927 0.0
C49 C 0.52945 0.70691 0.0888 0.0
C50 C 0.5324 0.71642 0.1409 0.0
C51 C 0.5375 0.7064 0.19413 0.0
H52 H 0.18146 0.52647 0.15647 0.0
H53 H 0.23185 0.52044 0.2694 0.0
H54 H 0.23395 0.49471 0.09928 0.0
H55 H 0.25872 0.47177 0.19692 0.0
C56 C 0.25582 0.48301 0.22885 0.0
O57 O 0.25351 0.49988 0.19619 0.0
H58 H 0.24172 0.47903 0.25758 0.0
C59 C 0.19676 0.52162 0.16366 0.0
C60 C 0.20684 0.51076 0.12051 0.0
C61 C 0.20546 0.52511 0.21779 0.0
C62 C 0.22485 0.51795 0.22788 0.0
C63 C 0.23506 0.50703 0.18519 0.0
C64 C 0.22603 0.50332 0.13174 0.0
H65 H 0.0583 0.17716 0.2858 0.0
H66 H 0.04355 0.22948 0.36344 0.0
H67 H 0.06799 0.22915 0.17856 0.0
H68 H 0.02453 0.25254 0.2699 0.0
C69 C 0.0386 0.2608 0.2555 0.0
O70 O 0.05583 0.25051 0.26687 0.0
H71 H 0.03868 0.26429 0.206 0.0
C72 C 0.05804 0.19239 0.28185 0.0
C73 C 0.06441 0.20189 0.22665 0.0
C74 C 0.05027 0.20214 0.33098 0.0
C75 C 0.04941 0.22177 0.32554 0.0
C76 C 0.05601 0.23153 0.27082 0.0
C77 C 0.06317 0.22158 0.22096 0.0
H78 H 0.32572 0.98406 0.24363 0.0
H79 H 0.27091 0.98889 0.35823 0.0
H80 H 0.27055 0.00307 0.16688 0.0
H81 H 0.23749 0.02497 0.24157 0.0
C82 C 0.23997 0.01659 0.28428 0.0
O83 O 0.24801 0.99939 0.27047 0.0
H84 H 0.25081 0.02464 0.30935 0.0
C85 C 0.30959 0.98719 0.24881 0.0
C86 C 0.29945 0.99364 0.19821 0.0
C87 C 0.29954 0.98562 0.30649 0.0
C88 C 0.27885 0.99013 0.31374 0.0
C89 C 0.26828 0.99617 0.26335 0.0
C90 C 0.27867 0.99823 0.20562 0.0
H91 H 0.47334 0.33828 0.24857 0.0
H92 H 0.4856 0.2852 0.34137 0.0
H93 H 0.47278 0.28758 0.15378 0.0
H94 H 0.45867 0.24926 0.21535 0.0
C95 C 0.46371 0.25353 0.25925 0.0
O96 O 0.48039 0.26534 0.24831 0.0
H97 H 0.45066 0.26083 0.28219 0.0
C98 C 0.4744 0.3231 0.24885 0.0
C99 C 0.47206 0.31419 0.19532 0.0
C100 C 0.47957 0.31286 0.30147 0.0
C101 C 0.4817 0.29333 0.30097 0.0
C102 C 0.47877 0.2842 0.24811 0.0
C103 C 0.4744 0.29466 0.19495 0.0
C104 C 0.01867 0.96593 0.74975 0.0
N105 N 0.98901 0.98081 0.59437 0.0
C106 C 1.00148 0.96822 0.56697 0.0
C107 C 0.99382 0.95563 0.52863 0.0
C108 C 0.97299 0.95565 0.51911 0.0
C109 C 0.96047 0.96905 0.54653 0.0
C110 C 0.96888 0.9817 0.58385 0.0
Zn111 Zn 1.00091 0.9952 0.66147 0.0
C112 C 0.97077 0.99792 0.76832 0.0
N113 N 0.02714 0.02063 0.80776 0.0
C114 C 0.04735 0.02019 0.81747 0.0
C115 C 0.01448 0.03299 0.83561 0.0
C116 C 0.02201 0.04579 0.87349 0.0
C117 C 0.04289 0.04627 0.88199 0.0
C118 C 0.05563 0.03309 0.85422 0.0
Zn119 Zn 0.01531 0.00614 0.74067 0.0
O120 O 0.00953 0.96904 0.7016 0.0
C121 C 0.04549 0.00346 0.63401 0.0
O122 O 0.02364 0.97966 0.77968 0.0
H123 H 0.99863 0.03369 0.82607 0.0
H124 H 0.01727 0.96723 0.57709 0.0
H125 H 0.05725 0.01041 0.79467 0.0
O126 O 0.02974 0.99757 0.61083 0.0
O127 O 0.04392 0.0082 0.6884 0.0
H128 H 0.95915 0.99168 0.60631 0.0
O129 O 0.0066 0.03228 0.70072 0.0
O130 O 0.99272 0.02169 0.62227 0.0
O131 O 0.98664 0.00362 0.79125 0.0
O132 O 0.97215 0.99329 0.7138 0.0
C133 C 0.9976 0.03541 0.65235 0.0
H134 H 0.00391 0.94533 0.5091 0.0
H135 H 0.94432 0.9695 0.54007 0.0
H136 H 0.01174 0.05591 0.89331 0.0
H137 H 0.07183 0.03304 0.85989 0.0
C138 C 0.47628 0.98962 0.62428 0.0
N139 N 0.50231 0.04217 0.64635 0.0
C140 C 0.50196 0.04459 0.5852 0.0
C141 C 0.50061 0.06253 0.55718 0.0
C142 C 0.49966 0.07825 0.59221 0.0
C143 C 0.49992 0.07537 0.65537 0.0
C144 C 0.50129 0.0571 0.68165 0.0
Zn145 Zn 0.50468 0.01525 0.68272 0.0
C146 C 0.47452 0.00567 0.7841 0.0
N147 N 0.50963 0.95807 0.74866 0.0
C148 C 0.51133 0.94306 0.71376 0.0
C149 C 0.50943 0.95579 0.80997 0.0
C150 C 0.511 0.93797 0.83854 0.0
C151 C 0.51288 0.92219 0.80391 0.0
C152 C 0.51296 0.92488 0.74062 0.0
Zn153 Zn 0.50729 0.98497 0.71198 0.0
O154 O 0.482 0.00653 0.62749 0.0
C155 C 0.53739 0.99454 0.61039 0.0
O156 O 0.48511 0.97659 0.65398 0.0
H157 H 0.50798 0.96786 0.83699 0.0
H158 H 0.50271 0.03256 0.55792 0.0
H159 H 0.51148 0.94519 0.66509 0.0
O160 O 0.52835 0.01016 0.61547 0.0
O161 O 0.53143 0.98048 0.64522 0.0
H162 H 0.50163 0.05485 0.73018 0.0
O163 O 0.52938 0.99381 0.76946 0.0
O164 O 0.52737 0.02353 0.73859 0.0
O165 O 0.48313 0.98992 0.77775 0.0
O166 O 0.48099 0.01989 0.75079 0.0
C167 C 0.53552 0.01067 0.77079 0.0
H168 H 0.50006 0.06401 0.5085 0.0
H169 H 0.49937 0.08709 0.6841 0.0
H170 H 0.51048 0.93657 0.88745 0.0
H171 H 0.51451 0.91313 0.71214 0.0
C172 C 0.51739 0.47167 0.61479 0.0
N173 N 0.46498 0.50352 0.6431 0.0
C174 C 0.46541 0.50432 0.58167 0.0
C175 C 0.44746 0.50348 0.5524 0.0
C176 C 0.42871 0.50158 0.58636 0.0
C177 C 0.42855 0.50141 0.64976 0.0
C178 C 0.44701 0.50237 0.67741 0.0
Zn179 Zn 0.49277 0.50188 0.67934 0.0
C180 C 0.4952 0.4727 0.77615 0.0
N181 N 0.55294 0.49655 0.73722 0.0
C182 C 0.57085 0.49578 0.70297 0.0
C183 C 0.55254 0.49596 0.79863 0.0
C184 C 0.57049 0.49432 0.82803 0.0
C185 C 0.5892 0.49335 0.79419 0.0
C186 C 0.58932 0.49426 0.73074 0.0
Zn187 Zn 0.52519 0.49863 0.70099 0.0
O188 O 0.50052 0.48018 0.62139 0.0
C189 C 0.52299 0.52785 0.60455 0.0
O190 O 0.53235 0.47683 0.64311 0.0
H191 H 0.53822 0.49679 0.82517 0.0
H192 H 0.47979 0.50507 0.55503 0.0
H193 H 0.57082 0.49631 0.6542 0.0
O194 O 0.50442 0.52292 0.61397 0.0
O195 O 0.53638 0.51931 0.63427 0.0
H196 H 0.44701 0.50164 0.7262 0.0
O197 O 0.51745 0.52051 0.75856 0.0
O198 O 0.48547 0.52348 0.73758 0.0
O199 O 0.51365 0.47791 0.76649 0.0
O200 O 0.48165 0.48092 0.74624 0.0
C201 C 0.50046 0.52882 0.76551 0.0
H202 H 0.44831 0.50405 0.50344 0.0
H203 H 0.41443 0.49988 0.67768 0.0
H204 H 0.56972 0.49406 0.87695 0.0
H205 H 0.60346 0.49354 0.70306 0.0
C206 C 0.03536 0.51947 0.61142 0.0
N207 N 0.01414 0.46363 0.63885 0.0
C208 C 0.01559 0.46402 0.57738 0.0
C209 C 0.01811 0.44745 0.5476 0.0
C210 C 0.01892 0.43013 0.58114 0.0
C211 C 0.01749 0.43015 0.64466 0.0
C212 C 0.01514 0.44713 0.67268 0.0
Zn213 Zn 0.00976 0.48867 0.67886 0.0
C214 C 0.03914 0.49554 0.76902 0.0
N215 N 1.00046 0.54213 0.75393 0.0
C216 C 0.99746 0.55839 0.72044 0.0
C217 C 1.00041 0.54186 0.81526 0.0
C218 C 0.99714 0.5583 0.84527 0.0
C219 C 0.99388 0.5753 0.81207 0.0
C220 C 0.99416 0.57522 0.74871 0.0
Zn221 Zn 0.00499 0.51715 0.71384 0.0
O222 O 0.03131 0.50199 0.61429 0.0
C223 C 0.97592 0.51022 0.62261 0.0
O224 O 0.02605 0.52996 0.64823 0.0
H225 H 0.0029 0.52883 0.84113 0.0
H226 H 0.0147 0.47724 0.55116 0.0
H227 H 0.99752 0.55829 0.67175 0.0
O228 O 0.98607 0.4951 0.62236 0.0
O229 O 0.98053 0.52285 0.65736 0.0
H230 H 0.01392 0.44711 0.7215 0.0
O231 O 0.9841 0.50399 0.77905 0.0
O232 O 0.98778 0.47606 0.74375 0.0
O233 O 0.02946 0.51094 0.76856 0.0
O234 O 0.03369 0.48265 0.73639 0.0
C235 C 0.97911 0.48675 0.78122 0.0
H236 H 0.01953 0.44827 0.49866 0.0
H237 H 0.0178 0.41717 0.67256 0.0
H238 H 0.9974 0.55771 0.89404 0.0
H239 H 0.99155 0.58797 0.72133 0.0
C240 C 0.2186 0.01641 0.38379 0.0
C241 C 0.21994 0.01388 0.32143 0.0
C242 C 0.19986 0.01462 0.41763 0.0
C243 C 0.14404 0.01544 0.40018 0.0
H244 H 0.14081 0.99431 0.56569 0.0
C245 C 0.06701 1.00011 0.53724 0.0
C246 C 0.06547 0.00456 0.59821 0.0
C247 C 0.08582 0.00096 0.50358 0.0
C248 C 0.14146 1.00042 0.51972 0.0
H249 H 0.20299 0.00671 0.24605 0.0
H250 H 0.17026 0.00323 0.30508 0.0
H251 H 0.17354 0.99574 0.50704 0.0
H252 H 0.08264 0.0134 0.67146 0.0
H253 H 0.11542 0.01493 0.61271 0.0
H254 H 0.11193 0.02002 0.41286 0.0
C255 C 0.18354 0.0071 0.32777 0.0
C256 C 0.16027 0.00126 0.486 0.0
C257 C 0.20229 0.00895 0.29394 0.0
C258 C 0.08324 0.00987 0.62465 0.0
C259 C 0.10208 0.01063 0.59105 0.0
C260 C 0.12523 0.01453 0.43382 0.0
C261 C 0.182 0.0101 0.39003 0.0
C262 C 0.16186 0.00883 0.42576 0.0
C263 C 0.10362 0.0062 0.53003 0.0
C264 C 0.12368 0.00706 0.4941 0.0
H265 H 0.23201 0.02009 0.4062 0.0
H266 H 0.19932 0.01722 0.46521 0.0
H267 H 0.14465 0.02168 0.35438 0.0
H268 H 0.05366 0.99591 0.5154 0.0
H269 H 0.08645 0.99724 0.45697 0.0
C270 C 0.48302 0.2233 0.27256 0.0
C271 C 0.46937 0.23633 0.29698 0.0
C272 C 0.48779 0.20694 0.30652 0.0
C273 C 0.48535 0.18494 0.46321 0.0
H274 H 0.48875 0.13869 0.38045 0.0
C275 C 0.48516 0.1109 0.58758 0.0
C276 C 0.49823 0.09744 0.56251 0.0
C277 C 0.48289 0.12849 0.55725 0.0
C278 C 0.4881 0.15151 0.40414 0.0
H279 H 0.45043 0.24289 0.37641 0.0
H280 H 0.45837 0.21415 0.4355 0.0
H281 H 0.48254 0.16812 0.32361 0.0
H282 H 0.51995 0.0923 0.48744 0.0
H283 H 0.51587 0.12284 0.43454 0.0
H284 H 0.49057 0.16813 0.54404 0.0
C285 C 0.46562 0.21659 0.39042 0.0
C286 C 0.48458 0.16841 0.3715 0.0
C287 C 0.46093 0.23298 0.35649 0.0
C288 C 0.50941 0.10218 0.50739 0.0
C289 C 0.5071 0.11969 0.47706 0.0
C290 C 0.48879 0.16798 0.49596 0.0
C291 C 0.47895 0.20326 0.36565 0.0
C292 C 0.48315 0.18536 0.40056 0.0
C293 C 0.4936 0.13295 0.50118 0.0
C294 C 0.49021 0.15108 0.46674 0.0
H295 H 0.48984 0.22571 0.22692 0.0
H296 H 0.49841 0.19718 0.28639 0.0
H297 H 0.48461 0.19775 0.48693 0.0
H298 H 0.47618 0.10765 0.62966 0.0
H299 H 0.47224 0.13835 0.57676 0.0
C300 C 0.27056 0.49458 0.32154 0.0
C301 C 0.27314 0.48469 0.26892 0.0
C302 C 0.28679 0.4967 0.35803 0.0
C303 C 0.34309 0.49476 0.35357 0.0
H304 H 0.33455 0.49063 0.52847 0.0
C305 C 0.40987 0.48785 0.50529 0.0
C306 C 0.40973 0.49911 0.55505 0.0
C307 C 0.39262 0.48632 0.47286 0.0
C308 C 0.33711 0.49201 0.4797 0.0
H309 H 0.2946 0.46946 0.21246 0.0
H310 H 0.32288 0.47274 0.27667 0.0
H311 H 0.3056 0.48748 0.46651 0.0
H312 H 0.39103 0.51709 0.611 0.0
H313 H 0.36065 0.51425 0.55428 0.0
H314 H 0.37459 0.49904 0.36665 0.0
C315 C 0.30843 0.47908 0.28964 0.0
C316 C 0.32054 0.49023 0.44416 0.0
C317 C 0.29223 0.47704 0.25309 0.0
C318 C 0.39161 0.50826 0.57301 0.0
C319 C 0.37424 0.50665 0.54053 0.0
C320 C 0.35961 0.49644 0.389 0.0
C321 C 0.30595 0.489 0.34246 0.0
C322 C 0.32337 0.49142 0.38062 0.0
C323 C 0.37471 0.49591 0.48947 0.0
C324 C 0.35686 0.4949 0.45243 0.0
H325 H 0.256 0.50077 0.33417 0.0
H326 H 0.28441 0.50466 0.39784 0.0
H327 H 0.34578 0.4962 0.30484 0.0
H328 H 0.42338 0.4802 0.49119 0.0
H329 H 0.39332 0.47758 0.43462 0.0
C330 C 0.04516 0.27866 0.34776 0.0
C331 C 0.03806 0.27849 0.28953 0.0
C332 C 0.04374 0.29491 0.37991 0.0
C333 C 0.03521 0.34649 0.35947 0.0
H334 H 0.02327 0.34229 0.53324 0.0
C335 C 0.01157 0.41008 0.49573 0.0
C336 C 0.02108 0.41226 0.54974 0.0
C337 C 0.01404 0.39364 0.46504 0.0
C338 C 0.02679 0.34367 0.4848 0.0
H339 H 0.02281 0.29481 0.22096 0.0
H340 H 0.01987 0.32305 0.27732 0.0
H341 H 0.02667 0.31392 0.47761 0.0
H342 H 0.04058 0.39856 0.61377 0.0
H343 H 0.04448 0.36968 0.56071 0.0
H344 H 0.03485 0.37627 0.36673 0.0
C345 C 0.02732 0.31092 0.29734 0.0
C346 C 0.02881 0.32741 0.45283 0.0
C347 C 0.02892 0.29472 0.26503 0.0
C348 C 0.03281 0.39734 0.5728 0.0
C349 C 0.03511 0.38079 0.54231 0.0
C350 C 0.03299 0.36273 0.39136 0.0
C351 C 0.03478 0.31128 0.35518 0.0
C352 C 0.03299 0.32859 0.38963 0.0
C353 C 0.0259 0.37884 0.48779 0.0
C354 C 0.02868 0.36151 0.45434 0.0
H355 H 0.05185 0.26622 0.36849 0.0
H356 H 0.0498 0.29464 0.42403 0.0
H357 H 0.03885 0.34801 0.31112 0.0
H358 H 1.00202 0.42102 0.47722 0.0
H359 H 0.00645 0.39243 0.42371 0.0
C360 C 0.81765 0.00591 0.11583 0.0
C361 C 0.79883 0.00472 0.09006 0.0
C362 C 0.83591 0.00389 0.08077 0.0
C363 C 0.85843 0.9865 0.93721 0.0
H364 H 0.90146 0.02204 0.95974 0.0
C365 C 0.93266 0.99325 0.77828 0.0
C366 C 0.95089 0.99719 0.80465 0.0
C367 C 0.91391 0.9934 0.81242 0.0
C368 C 0.88977 0.0118 0.95332 0.0
H369 H 0.78438 1.00057 0.00732 0.0
H370 H 0.81635 0.99687 0.94576 0.0
H371 H 0.8694 0.02325 0.02055 0.0
H372 H 0.96366 0.00389 0.8882 0.0
H373 H 0.93125 0.00374 0.94768 0.0
H374 H 0.87892 0.97498 0.8701 0.0
C375 C 0.81697 0.99911 0.99338 0.0
C376 C 0.87131 0.01253 0.98826 0.0
C377 C 0.79867 0.00122 0.02852 0.0
C378 C 0.94994 0.00092 0.86619 0.0
C379 C 0.93127 0.00097 0.9003 0.0
C380 C 0.87699 0.9857 0.90236 0.0
C381 C 0.83584 1.00072 0.01888 0.0
C382 C 0.85542 0.99985 0.98095 0.0
C383 C 0.91294 0.99743 0.87384 0.0
C384 C 0.89297 0.99829 0.91014 0.0
H385 H 0.81826 0.0088 0.16297 0.0
H386 H 0.85013 0.00498 0.10211 0.0
H387 H 0.84658 0.97644 0.93069 0.0
H388 H 0.93281 0.99036 0.73095 0.0
H389 H 0.90015 0.99078 0.79021 0.0
C390 C 0.50315 0.76398 0.05897 0.0
C391 C 0.51258 0.76261 0.11383 0.0
C392 C 0.50364 0.78089 0.0235 0.0
C393 C 0.51222 0.83195 0.03271 0.0
H394 H 0.51859 0.8322 0.85774 0.0
C395 C 0.52611 0.90039 0.88504 0.0
C396 C 0.51455 0.90313 0.83434 0.0
C397 C 0.52652 0.88289 0.91674 0.0
C398 C 0.51663 0.83234 0.90653 0.0
H399 H 0.53073 0.77736 0.17341 0.0
H400 H 0.53187 0.8069 0.1113 0.0
H401 H 0.51804 0.80236 0.91807 0.0
H402 H 0.49476 0.88939 0.77632 0.0
H403 H 0.49562 0.85872 0.83157 0.0
H404 H 0.51094 0.86189 0.02124 0.0
C405 C 0.52355 0.79514 0.09636 0.0
C406 C 0.51628 0.81525 0.94114 0.0
C407 C 0.52299 0.77825 0.13186 0.0
C408 C 0.50396 0.88773 0.81485 0.0
C409 C 0.50442 0.87017 0.84655 0.0
C410 C 0.51267 0.849 0.99817 0.0
C411 C 0.51379 0.79672 0.04187 0.0
C412 C 0.5141 0.81485 0.00471 0.0
C413 C 0.51544 0.86765 0.89846 0.0
C414 C 0.51493 0.84941 0.93471 0.0
H415 H 0.49532 0.75197 0.04371 0.0
H416 H 0.49583 0.78163 0.9821 0.0
H417 H 0.51011 0.83218 0.08144 0.0
H418 H 0.53482 0.91183 0.90049 0.0
H419 H 0.5355 0.88131 0.95578 0.0
C420 C 0.72938 0.48328 0.13319 0.0
C421 C 0.7261 0.49718 0.1747 0.0
C422 C 0.71736 0.48257 0.08387 0.0
C423 C 0.68091 0.47698 0.01001 0.0
H424 H 0.66226 0.52251 0.92713 0.0
C425 C 0.609 0.47935 0.87777 0.0
C426 C 0.60827 0.4916 0.82594 0.0
C427 C 0.62594 0.4791 0.91218 0.0
C428 C 0.66756 0.50963 0.94907 0.0
H429 H 0.70851 0.52175 0.19609 0.0
H430 H 0.68714 0.52034 0.11081 0.0
H431 H 0.68739 0.52451 0.00211 0.0
H432 H 0.62512 0.51266 0.76805 0.0
H433 H 0.65498 0.5121 0.82803 0.0
H434 H 0.66107 0.46211 0.95707 0.0
C435 C 0.69903 0.51002 0.1159 0.0
C436 C 0.68176 0.5108 0.99268 0.0
C437 C 0.71108 0.51074 0.16508 0.0
C438 C 0.62528 0.50303 0.8077 0.0
C439 C 0.64227 0.50283 0.84236 0.0
C440 C 0.66673 0.47581 0.96638 0.0
C441 C 0.70191 0.49584 0.07492 0.0
C442 C 0.6883 0.49452 0.02457 0.0
C443 C 0.64262 0.4911 0.89563 0.0
C444 C 0.65956 0.49215 0.9363 0.0
H445 H 0.74117 0.4729 0.13919 0.0
H446 H 0.72021 0.47165 0.05267 0.0
H447 H 0.6855 0.46416 0.0339 0.0
H448 H 0.59623 0.4702 0.89255 0.0
H449 H 0.62557 0.47003 0.95319 0.0
C450 C 0.98485 0.7252 0.05831 0.0
C451 C 0.97393 0.72429 0.11499 0.0
C452 C 0.98628 0.70941 0.02398 0.0
C453 C 0.98137 0.65763 0.039 0.0
H454 H 0.97909 0.66231 0.86472 0.0
C455 C 0.97812 0.59265 0.89843 0.0
C456 C 0.99028 0.59291 0.84375 0.0
C457 C 0.97545 0.60892 0.92987 0.0
C458 C 0.97996 0.66079 0.91329 0.0
H459 H 0.95505 0.70662 0.17899 0.0
H460 H 0.9574 0.679 0.11909 0.0
H461 H 0.97561 0.69023 0.92267 0.0
H462 H 0.00895 0.61063 0.77898 0.0
H463 H 0.00428 0.63907 0.83392 0.0
H464 H 0.98578 0.62824 0.02975 0.0
C465 C 0.96533 0.69172 0.10171 0.0
C466 C 0.97796 0.6768 0.94654 0.0
C467 C 0.96391 0.70752 0.13596 0.0
C468 C 0.99933 0.60997 0.82063 0.0
C469 C 0.99665 0.62628 0.85215 0.0
C470 C 0.98335 0.64165 0.00582 0.0
C471 C 0.97666 0.69241 0.04547 0.0
C472 C 0.97863 0.67541 0.00984 0.0
C473 C 0.98484 0.6259 0.9075 0.0
C474 C 0.98265 0.64301 0.94255 0.0
H475 H 0.99242 0.7381 0.04086 0.0
H476 H 0.99522 0.71042 0.98111 0.0
H477 H 0.98234 0.65607 0.08753 0.0
H478 H 0.97058 0.57985 0.91694 0.0
H479 H 0.96591 0.60821 0.9717 0.0
C480 C 0.02108 0.19176 0.40302 0.0
C481 C 0.04198 0.19123 0.38582 0.0
C482 C 0.01229 0.1781 0.44486 0.0
C483 C 0.99829 0.13806 0.48525 0.0
H484 H 0.02555 0.1165 0.62215 0.0
C485 C 0.9927 0.05986 0.56852 0.0
C486 C 0.99463 0.05508 0.63011 0.0
C487 C 0.99376 0.07869 0.54659 0.0
C488 C 0.01745 0.12247 0.58478 0.0
H489 H 0.07034 0.17707 0.4012 0.0
H490 H 0.05518 0.15345 0.4749 0.0
H491 H 0.03687 0.14671 0.57473 0.0
H492 H 0.99727 0.06627 0.71791 0.0
H493 H 0.99869 0.09898 0.67991 0.0
H494 H 0.97924 0.11351 0.4943 0.0
C495 C 0.0455 0.1643 0.45644 0.0
C496 C 0.02408 0.13973 0.55733 0.0
C497 C 0.05421 0.17779 0.41424 0.0
C498 C 0.99605 0.0695 0.66998 0.0
C499 C 0.99695 0.08825 0.64821 0.0
C500 C 0.99168 0.12073 0.51265 0.0
C501 C 0.02435 0.16389 0.47052 0.0
C502 C 0.01495 0.14746 0.50626 0.0
C503 C 0.99662 0.09304 0.586 0.0
C504 C 1.00153 0.11252 0.56179 0.0
H505 H 0.01136 0.20192 0.38107 0.0
H506 H 0.99598 0.17818 0.45529 0.0
H507 H 0.99106 0.14359 0.4456 0.0
H508 H 0.99161 0.04904 0.53678 0.0
H509 H 0.99357 0.08188 0.49832 0.0
C510 C 0.31583 0.99418 0.39867 0.0
C511 C 0.31162 0.98055 0.3585 0.0
C512 C 0.3315 0.99141 0.43755 0.0
C513 C 0.37959 0.96482 0.44397 0.0
H514 H 0.38328 0.9906 0.59133 0.0
C515 C 0.45179 0.96723 0.58365 0.0
C516 C 0.45783 0.98571 0.59267 0.0
C517 C 0.43311 0.96378 0.55963 0.0
C518 C 0.38238 0.98323 0.55039 0.0
H519 H 0.31912 0.95281 0.33015 0.0
H520 H 0.34576 0.94741 0.40036 0.0
H521 H 0.35052 0.98848 0.54708 0.0
H522 H 0.44912 0.01503 0.58264 0.0
H523 H 0.41657 0.0089 0.54196 0.0
H524 H 0.41158 0.95963 0.44785 0.0
C525 C 0.33757 0.96055 0.40064 0.0
C526 C 0.36366 0.98209 0.52479 0.0
C527 C 0.32214 0.96348 0.36105 0.0
C528 C 0.44501 1.00063 0.57614 0.0
C529 C 0.42627 0.99714 0.55335 0.0
C530 C 0.39823 0.96568 0.47024 0.0
C531 C 0.3431 0.97482 0.43743 0.0
C532 C 0.36212 0.97339 0.47016 0.0
C533 C 0.42004 0.97871 0.54558 0.0
C534 C 0.39988 0.97538 0.52262 0.0
H535 H 0.30809 0.00756 0.39665 0.0
H536 H 0.33537 0.00285 0.46451 0.0
H537 H 0.3792 0.95825 0.40144 0.0
H538 H 0.46132 0.95546 0.59608 0.0
H539 H 0.4286 0.94944 0.55365 0.0
C540 C 0.50326 0.32189 0.37824 0.0
C541 C 0.48403 0.32319 0.35466 0.0
C542 C 0.50907 0.33475 0.41903 0.0
C543 C 0.48922 0.37233 0.51573 0.0
H544 H 0.54031 0.3977 0.46467 0.0
C545 C 0.5343 0.44158 0.58624 0.0
C546 C 0.51816 0.45436 0.58148 0.0
C547 C 0.53282 0.42367 0.56418 0.0
C548 C 0.52619 0.39055 0.48007 0.0
H549 H 0.4553 0.33788 0.35804 0.0
H550 H 0.46526 0.36019 0.4291 0.0
H551 H 0.53201 0.36803 0.42199 0.0
H552 H 0.48849 0.45884 0.54607 0.0
H553 H 0.48597 0.4278 0.50827 0.0
H554 H 0.4829 0.39538 0.57107 0.0
C555 C 0.47592 0.34932 0.41666 0.0
C556 C 0.52145 0.37354 0.45597 0.0
C557 C 0.4702 0.33661 0.37573 0.0
C558 C 0.50113 0.4493 0.55111 0.0
C559 C 0.49959 0.43147 0.52979 0.0
C560 C 0.49387 0.38934 0.53932 0.0
C561 C 0.49565 0.34896 0.43723 0.0
C562 C 0.50257 0.36462 0.47193 0.0
C563 C 0.5151 0.41831 0.53773 0.0
C564 C 0.51205 0.39892 0.52007 0.0
H565 H 0.51422 0.31172 0.3622 0.0
H566 H 0.5243 0.33402 0.43455 0.0
H567 H 0.47475 0.36562 0.52986 0.0
H568 H 0.5476 0.44505 0.6095 0.0
H569 H 0.54504 0.41374 0.57032 0.0
C570 C 0.1911 0.52592 0.32483 0.0
C571 C 0.19299 0.53425 0.26569 0.0
C572 C 0.17554 0.53141 0.36592 0.0
C573 C 0.12371 0.54692 0.3577 0.0
H574 H 0.12353 0.54539 0.53256 0.0
C575 C 0.05795 0.51735 0.51738 0.0
C576 C 0.05179 0.52713 0.56833 0.0
C577 C 0.07477 0.52348 0.47965 0.0
C578 C 0.12337 0.54618 0.48373 0.0
H579 H 0.18175 0.55635 0.20551 0.0
H580 H 0.15448 0.56584 0.27722 0.0
H581 H 0.15593 0.54804 0.47126 0.0
H582 H 0.05809 0.55119 0.61927 0.0
H583 H 0.08798 0.56166 0.55365 0.0
H584 H 0.0913 0.544 0.37018 0.0
C585 C 0.16479 0.55487 0.29143 0.0
C586 C 0.14188 0.54758 0.44876 0.0
C587 C 0.18037 0.54944 0.25046 0.0
C588 C 0.06246 0.54345 0.58004 0.0
C589 C 0.07958 0.54939 0.54283 0.0
C590 C 0.10529 0.54529 0.39261 0.0
C591 C 0.16162 0.54529 0.34849 0.0
C592 C 0.14224 0.54746 0.38545 0.0
C593 C 0.08597 0.53933 0.49266 0.0
C594 C 0.105 0.54436 0.45592 0.0
H595 H 0.20051 0.51412 0.33782 0.0
H596 H 0.17342 0.52369 0.40948 0.0
H597 H 0.12349 0.54656 0.30907 0.0
H598 H 0.04999 0.50474 0.50727 0.0
H599 H 0.07952 0.51537 0.44156 0.0
C600 C 0.99433 0.80991 0.99867 0.0
C601 C 0.97325 0.81044 0.01302 0.0
C602 C 0.00362 0.82333 0.95691 0.0
C603 C 0.9932 0.86118 0.8408 0.0
H604 H 0.03669 0.88793 0.90867 0.0
C605 C 0.02091 0.93192 0.73145 0.0
C606 C 0.02179 0.94627 0.77177 0.0
C607 C 0.0202 0.91312 0.75279 0.0
C608 C 0.02464 0.88057 0.88896 0.0
H609 H 0.94514 0.82432 0.99277 0.0
H610 H 0.96117 0.84751 0.9193 0.0
H611 H 0.02464 0.85784 0.95661 0.0
H612 H 0.02401 0.95218 0.86555 0.0
H613 H 0.02229 0.91928 0.90329 0.0
H614 H 0.99223 0.88432 0.77549 0.0
C615 C 0.97062 0.83684 0.9398 0.0
C616 C 0.01791 0.86322 0.91594 0.0
C617 C 0.96141 0.82359 0.98187 0.0
C618 C 0.02336 0.94141 0.83348 0.0
C619 C 0.02244 0.92254 0.85499 0.0
C620 C 0.99992 0.87848 0.81385 0.0
C621 C 0.99191 0.8373 0.92857 0.0
C622 C 1.00168 0.85364 0.89322 0.0
C623 C 0.02012 0.90822 0.81503 0.0
C624 C 0.01532 0.88864 0.83861 0.0
H625 H 0.00374 0.79998 0.02279 0.0
H626 H 0.02003 0.82328 0.94874 0.0
H627 H 0.98077 0.85406 0.82202 0.0
H628 H 0.01999 0.93523 0.68344 0.0
H629 H 0.01891 0.90244 0.72067 0.0
C630 C 0.70083 0.00533 0.98725 0.0
C631 C 0.70055 0.01573 0.03886 0.0
C632 C 0.68571 0.00799 0.94627 0.0
C633 C 0.64044 0.03757 0.91006 0.0
H634 H 0.61849 0.98979 0.87064 0.0
C635 C 0.56593 0.03048 0.78645 0.0
C636 C 0.5537 0.0146 0.80346 0.0
C637 C 0.58495 0.03243 0.80999 0.0
C638 C 0.6243 0.00326 0.88174 0.0
H639 H 0.68573 0.0385 0.08451 0.0
H640 H 0.65914 0.04274 0.01479 0.0
H641 H 0.651 0.99074 0.91507 0.0
H642 H 0.55112 0.98898 0.86133 0.0
H643 H 0.58377 0.99273 0.90416 0.0
H644 H 0.613 0.04988 0.87993 0.0
C645 C 0.67093 0.03259 0.00514 0.0
C646 C 0.64323 0.00387 0.90612 0.0
C647 C 0.68609 0.03004 0.04562 0.0
C648 C 0.5603 0.00129 0.84696 0.0
C649 C 0.57914 0.00334 0.87095 0.0
C650 C 0.62136 0.03693 0.88615 0.0
C651 C 0.66999 0.02103 0.95642 0.0
C652 C 0.6514 0.02097 0.92181 0.0
C653 C 0.592 0.01862 0.8514 0.0
C654 C 0.61285 0.0197 0.87301 0.0
H655 H 0.71184 0.99425 0.98075 0.0
H656 H 0.68577 0.99917 0.90833 0.0
H657 H 0.64637 0.05104 0.92072 0.0
H658 H 0.56131 0.04091 0.75264 0.0
H659 H 0.59445 0.04434 0.79377 0.0
C660 C 0.50881 0.67755 0.01235 0.0
C661 C 0.52797 0.67675 0.03646 0.0
C662 C 0.50362 0.66462 0.97098 0.0
C663 C 0.52529 0.62833 0.87242 0.0
H664 H 0.47515 0.60098 0.92032 0.0
C665 C 0.48272 0.55826 0.79662 0.0
C666 C 0.49943 0.54604 0.79928 0.0
C667 C 0.48364 0.57603 0.81993 0.0
C668 C 0.48901 0.60868 0.90578 0.0
H669 H 0.55718 0.66288 0.03368 0.0
H670 H 0.5483 0.64046 0.96157 0.0
H671 H 0.48208 0.63052 0.96572 0.0
H672 H 0.52961 0.54242 0.83194 0.0
H673 H 0.53112 0.57321 0.87204 0.0
H674 H 0.5327 0.60602 0.81499 0.0
C675 C 0.53722 0.65097 0.97409 0.0
C676 C 0.49296 0.62562 0.93147 0.0
C677 C 0.54231 0.66373 0.01563 0.0
C678 C 0.51653 0.55152 0.82854 0.0
C679 C 0.5175 0.56922 0.85115 0.0
C680 C 0.52141 0.61141 0.84718 0.0
C681 C 0.51762 0.65088 0.95269 0.0
C682 C 0.51149 0.63525 0.91663 0.0
C683 C 0.50134 0.58184 0.84558 0.0
C684 C 0.50359 0.6011 0.86524 0.0
H685 H 0.49747 0.68741 0.02817 0.0
H686 H 0.48846 0.66497 0.95486 0.0
H687 H 0.5395 0.63562 0.85918 0.0
H688 H 0.46934 0.55444 0.77429 0.0
H689 H 0.47092 0.58551 0.81557 0.0
C690 C 0.82882 0.46404 0.11557 0.0
C691 C 0.81518 0.47904 0.10904 0.0
C692 C 0.84325 0.46038 0.06881 0.0
C693 C 0.87145 0.48848 0.94828 0.0
H694 H 0.90102 0.44219 0.92605 0.0
C695 C 0.95502 0.49103 0.87028 0.0
C696 C 0.96147 0.48025 0.82186 0.0
C697 C 0.93608 0.48774 0.90103 0.0
C698 C 0.8928 0.45517 0.93134 0.0
H699 H 0.80421 0.50036 0.04563 0.0
H700 H 0.82886 0.49352 0.96312 0.0
H701 H 0.86712 0.44118 0.97935 0.0
H702 H 0.95383 0.45669 0.77045 0.0
H703 H 0.92044 0.45093 0.82465 0.0
H704 H 0.89702 0.50251 0.90116 0.0
C705 C 0.82891 0.48501 0.00522 0.0
C706 C 0.87345 0.45463 0.96203 0.0
C707 C 0.8146 0.4888 0.05229 0.0
C708 C 0.94924 0.46517 0.80775 0.0
C709 C 0.93013 0.46192 0.83857 0.0
C710 C 0.89065 0.489 0.91782 0.0
C711 C 0.84419 0.47154 0.01425 0.0
C712 C 0.86278 0.47135 0.97224 0.0
C713 C 0.92307 0.47369 0.88386 0.0
C714 C 0.90182 0.47246 0.91071 0.0
H715 H 0.82931 0.45598 0.15842 0.0
H716 H 0.85468 0.44987 0.07752 0.0
H717 H 0.86392 0.50169 0.95582 0.0
H718 H 0.96422 0.5026 0.88267 0.0
H719 H 0.93129 0.49669 0.93696 0.0
C720 C 0.0859 0.17667 0.18361 0.0
C721 C 0.07105 0.19052 0.17545 0.0
C722 C 0.08822 0.16226 0.14409 0.0
C723 C 0.07292 0.14448 1e-05 0.0
H724 H 0.07035 0.09656 0.09308 0.0
C725 C 0.0672 0.07294 0.89022 0.0
C726 C 0.05119 0.06139 0.91619 0.0
C727 C 0.07319 0.08876 0.91901 0.0
C728 C 0.07117 0.10981 0.06641 0.0
H729 H 0.04814 0.2011 0.1171 0.0
H730 H 0.05216 0.17584 0.04757 0.0
H731 H 0.07525 0.1253 0.14393 0.0
H732 H 0.02944 0.05684 0.99344 0.0
H733 H 0.04012 0.0842 0.0443 0.0
H734 H 0.06815 0.12883 0.92271 0.0
C735 C 0.06211 0.17618 0.08432 0.0
C736 C 0.07419 0.12629 0.09539 0.0
C737 C 0.05984 0.19068 0.12395 0.0
C738 C 0.04183 0.06551 0.9725 0.0
C739 C 0.04799 0.08113 0.00163 0.0
C740 C 0.07009 0.12791 0.97083 0.0
C741 C 0.07565 0.16133 0.09573 0.0
C742 C 0.07476 0.14386 0.06278 0.0
C743 C 0.06349 0.09311 0.97474 0.0
C744 C 0.06878 0.11045 0.00403 0.0
H745 H 0.09477 0.1763 0.22298 0.0
H746 H 0.09908 0.15125 0.15336 0.0
H747 H 0.07335 0.15778 0.97366 0.0
H748 H 0.07452 0.07018 0.8465 0.0
H749 H 0.08525 0.0977 0.89746 0.0
C750 C 0.32264 0.98055 0.11822 0.0
C751 C 0.31141 0.99583 0.1391 0.0
C752 C 0.33774 0.98316 0.07109 0.0
C753 C 0.37342 0.01952 0.00289 0.0
H754 H 0.38763 0.98105 0.89192 0.0
C755 C 0.44479 0.02349 0.82981 0.0
C756 C 0.45588 0.00673 0.82553 0.0
C757 C 0.42604 0.02371 0.86398 0.0
C758 C 0.38392 0.99189 0.92281 0.0
H759 H 0.30644 0.02569 0.12531 0.0
H760 H 0.33277 0.03033 0.04175 0.0
H761 H 0.35555 0.97871 0.9536 0.0
H762 H 0.45616 0.9772 0.85566 0.0
H763 H 0.42375 0.97764 0.91492 0.0
H764 H 0.40203 0.03254 0.9723 0.0
C765 C 0.33 0.01631 0.06232 0.0
C766 C 0.3655 0.99057 0.95814 0.0
C767 C 0.31474 0.01365 0.1095 0.0
C768 C 0.44806 0.99037 0.85762 0.0
C769 C 0.42935 0.99056 0.89125 0.0
C770 C 0.39185 0.02089 0.96719 0.0
C771 C 0.34208 0.00116 0.04371 0.0
C772 C 0.36021 0.0041 -0.00019 0.0
C773 C 0.41793 0.00713 0.89409 0.0
C774 C 0.39755 0.00683 0.92788 0.0
H775 H 0.32048 0.9667 0.1407 0.0
H776 H 0.34681 0.97118 0.05868 0.0
H777 H 0.36999 0.03009 0.0349 0.0
H778 H 0.45033 0.03634 0.80555 0.0
H779 H 0.41761 0.0367 0.86528 0.0
C780 C 0.45339 0.33912 0.13807 0.0
C781 C 0.46923 0.32597 0.13947 0.0
C782 C 0.45351 0.3534 0.09198 0.0
C783 C 0.49017 0.38297 0.00948 0.0
H784 H 0.44865 0.39942 0.90279 0.0
C785 C 0.50607 0.44385 0.83339 0.0
C786 C 0.49032 0.45608 0.81784 0.0
C787 C 0.50199 0.4276 0.87018 0.0
C788 C 0.46025 0.3952 0.933 0.0
H789 H 0.49696 0.3167 0.09261 0.0
H790 H 0.49742 0.34195 0.01249 0.0
H791 H 0.44342 0.37053 0.96795 0.0
H792 H 0.45783 0.46083 0.82888 0.0
H793 H 0.4507 0.43268 0.89612 0.0
H794 H 0.50663 0.40779 0.97806 0.0
C795 C 0.4848 0.34103 0.04657 0.0
C796 C 0.45731 0.37857 0.96973 0.0
C797 C 0.48447 0.32656 0.09202 0.0
C798 C 0.47029 0.45169 0.84031 0.0
C799 C 0.46621 0.43547 0.87838 0.0
C800 C 0.49292 0.3997 0.974 0.0
C801 C 0.46969 0.35491 0.04738 0.0
C802 C 0.47243 0.37222 0.00749 0.0
C803 C 0.48206 0.42322 0.89384 0.0
C804 C 0.4782 0.40592 0.93439 0.0
H805 H 0.44157 0.33898 0.17455 0.0
H806 H 0.44179 0.36402 0.09368 0.0
H807 H 0.50181 0.37858 0.03947 0.0
H808 H 0.52165 0.4466 0.81598 0.0
H809 H 0.51455 0.41832 0.87925 0.0
C810 C 0.18676 0.52106 0.0335 0.0
C811 C 0.19626 0.50651 0.0662 0.0
C812 C 0.17327 0.51706 0.99034 0.0
C813 C 0.13781 0.47993 0.95815 0.0
H814 H 0.128 0.51467 0.8221 0.0
C815 C 0.06829 0.4765 0.80723 0.0
C816 C 0.05782 0.49364 0.8023 0.0
C817 C 0.08701 0.47548 0.83375 0.0
C818 C 0.13063 0.50479 0.85976 0.0
H819 H 0.20015 0.4764 0.07685 0.0
H820 H 0.17667 0.4693 0.00023 0.0
H821 H 0.1594 0.51721 0.87321 0.0
H822 H 0.05861 0.52301 0.8225 0.0
H823 H 0.09118 0.52121 0.86771 0.0
H824 H 0.10873 0.46775 0.94477 0.0
C825 C 0.17947 0.48383 0.00869 0.0
C826 C 0.14857 0.50625 0.88914 0.0
C827 C 0.19308 0.48788 0.05199 0.0
C828 C 0.06622 0.50957 0.82553 0.0
C829 C 0.08497 0.50861 0.851 0.0
C830 C 0.11992 0.47833 0.92818 0.0
C831 C 0.16894 0.49837 0.97869 0.0
C832 C 0.15203 0.49433 0.94017 0.0
C833 C 0.09568 0.49165 0.85465 0.0
C834 C 0.11587 0.49119 0.88016 0.0
H835 H 0.18902 0.53556 0.0435 0.0
H836 H 0.16532 0.52864 0.96881 0.0
H837 H 0.13986 0.4706 0.99756 0.0
H838 H 0.06221 0.46398 0.78974 0.0
H839 H 0.09498 0.46222 0.83636 0.0
C840 C 0.95245 0.81233 0.27399 0.0
C841 C 0.94214 0.81303 0.22066 0.0
C842 C 0.95028 0.8269 0.31336 0.0
C843 C 0.94075 0.87731 0.3009 0.0
H844 H 0.94441 0.87422 0.47467 0.0
C845 C 0.97416 0.93652 0.4283 0.0
C846 C 0.96448 0.94085 0.48398 0.0
C847 C 0.96764 0.92122 0.39825 0.0
C848 C 0.94313 0.87531 0.42622 0.0
H849 H 0.92004 0.82834 0.16948 0.0
H850 H 0.9159 0.85353 0.23865 0.0
H851 H 0.93852 0.84562 0.42262 0.0
H852 H 0.9402 0.93277 0.55154 0.0
H853 H 0.92882 0.90585 0.49894 0.0
H854 H 0.94589 0.90684 0.30406 0.0
C855 C 0.92601 0.84204 0.24953 0.0
C856 C 0.93992 0.85893 0.39642 0.0
C857 C 0.92823 0.82756 0.21023 0.0
C858 C 0.9478 0.92985 0.50835 0.0
C859 C 0.94143 0.91435 0.47862 0.0
C860 C 0.94412 0.89359 0.33053 0.0
C861 C 0.93775 0.84236 0.29993 0.0
C862 C 0.93895 0.85973 0.33328 0.0
C863 C 0.95143 0.90978 0.42355 0.0
C864 C 0.9457 0.89275 0.39333 0.0
H865 H 0.96341 0.80136 0.28266 0.0
H866 H 0.9596 0.82675 0.35171 0.0
H867 H 0.94038 0.87843 0.25213 0.0
H868 H 0.98705 0.94478 0.40853 0.0
H869 H 0.97577 0.91796 0.35615 0.0
C870 C 0.69313 0.01554 0.28094 0.0
C871 C 0.70217 0.99948 0.25767 0.0
C872 C 0.67703 0.01388 0.3253 0.0
C873 C 0.64741 0.98239 0.43702 0.0
H874 H 0.60214 0.01276 0.3863 0.0
C875 C 0.56646 0.97658 0.56157 0.0
C876 C 0.55577 0.99347 0.56793 0.0
C877 C 0.58466 0.97618 0.5248 0.0
C878 C 0.61465 0.00436 0.40186 0.0
H879 H 0.70241 0.96912 0.26499 0.0
H880 H 0.6743 0.96615 0.34388 0.0
H881 H 0.63445 0.01454 0.32653 0.0
H882 H 0.55595 0.02319 0.5404 0.0
H883 H 0.58756 0.0226 0.47799 0.0
H884 H 0.6276 0.97245 0.51314 0.0
C885 C 0.67975 0.98003 0.32784 0.0
C886 C 0.63321 0.00538 0.36741 0.0
C887 C 0.69592 0.9817 0.28308 0.0
C888 C 0.56361 0.00987 0.53621 0.0
C889 C 0.58179 0.00951 0.5 0.0
C890 C 0.6288 0.98151 0.47209 0.0
C891 C 0.66954 0.99611 0.34728 0.0
C892 C 0.6499 0.99458 0.38481 0.0
C893 C 0.59264 0.99269 0.49374 0.0
C894 C 0.61221 0.99266 0.45526 0.0
H895 H 0.69756 0.02938 0.26158 0.0
H896 H 0.66971 0.02654 0.34013 0.0
H897 H 0.65999 0.97386 0.45144 0.0
H898 H 0.56088 0.96369 0.58548 0.0
H899 H 0.59243 0.96293 0.52058 0.0
C900 C 0.56179 0.66433 0.25151 0.0
C901 C 0.54436 0.67556 0.25028 0.0
C902 C 0.56352 0.65031 0.29766 0.0
C903 C 0.53803 0.62998 0.44384 0.0
H904 H 0.55915 0.58324 0.38538 0.0
C905 C 0.51302 0.55732 0.5482 0.0
C906 C 0.52837 0.54465 0.5641 0.0
C907 C 0.51789 0.57408 0.51464 0.0
C908 C 0.55348 0.59626 0.40255 0.0
H909 H 0.51544 0.68162 0.29682 0.0
H910 H 0.51797 0.65684 0.37642 0.0
H911 H 0.56279 0.612 0.32042 0.0
H912 H 0.56085 0.53945 0.55597 0.0
H913 H 0.56928 0.56868 0.4948 0.0
H914 H 0.52756 0.61374 0.52455 0.0
C915 C 0.53069 0.65905 0.34316 0.0
C916 C 0.55564 0.61282 0.36554 0.0
C917 C 0.52917 0.67329 0.29755 0.0
C918 C 0.5487 0.54892 0.5443 0.0
C919 C 0.55353 0.56561 0.5095 0.0
C920 C 0.53556 0.61335 0.48035 0.0
C921 C 0.5476 0.64694 0.34273 0.0
C922 C 0.54759 0.62987 0.38519 0.0
C923 C 0.53816 0.57844 0.49527 0.0
C924 C 0.54293 0.5963 0.45955 0.0
H925 H 0.57366 0.66584 0.21519 0.0
H926 H 0.577 0.64164 0.29655 0.0
H927 H 0.53204 0.64284 0.46121 0.0
H928 H 0.49721 0.55454 0.56298 0.0
H929 H 0.50574 0.58364 0.50354 0.0
C930 C 0.83092 0.48499 0.33834 0.0
C931 C 0.8187 0.49975 0.31713 0.0
C932 C 0.84633 0.48839 0.37623 0.0
C933 C 0.86776 0.51861 0.48048 0.0
H934 H 0.91936 0.50318 0.4045 0.0
C935 C 0.9453 0.5279 0.5878 0.0
C936 C 0.95823 0.51226 0.58512 0.0
C937 C 0.92787 0.52884 0.55485 0.0
C938 C 0.9051 0.50746 0.42666 0.0
H939 H 0.81183 0.52929 0.32319 0.0
H940 H 0.83876 0.53515 0.39111 0.0
H941 H 0.88825 0.49941 0.35344 0.0
H942 H 0.96303 0.48545 0.54533 0.0
H943 H 0.93284 0.48695 0.48935 0.0
H944 H 0.88461 0.52595 0.55502 0.0
C945 C 0.83641 0.52103 0.37761 0.0
C946 C 0.88731 0.50534 0.39728 0.0
C947 C 0.82098 0.51765 0.33907 0.0
C948 C 0.95352 0.49777 0.5483 0.0
C949 C 0.9362 0.49869 0.51573 0.0
C950 C 0.88565 0.52052 0.51048 0.0
C951 C 0.84972 0.50656 0.39426 0.0
C952 C 0.86844 0.51049 0.42444 0.0
C953 C 0.92311 0.51418 0.51855 0.0
C954 C 0.90445 0.51451 0.48443 0.0
H955 H 0.82928 0.471 0.32289 0.0
H956 H 0.85624 0.47695 0.38931 0.0
H957 H 0.85335 0.52274 0.50206 0.0
H958 H 0.94849 0.53926 0.61592 0.0
H959 H 0.91816 0.54102 0.55768 0.0
loop_
_geom_bond_atom_site_label_1
_geom_bond_atom_site_label_2
_geom_bond_distance
_geom_bond_site_symmetry_2
_ccdc_geom_bond_type
H0 C7 0.929 . S
H1 C10 0.930 . S
H2 C12 0.929 . S
H3 C4 0.969 . S
C4 H3 0.969 . S
C4 O5 1.550 . S
C4 H6 0.973 . S
O5 C4 1.550 . S
O5 C11 1.412 . S
H6 C4 0.973 . S
C7 H0 0.929 . S
C7 C8 1.400 . S
C7 C9 1.364 . S
C8 C7 1.400 . S
C8 C12 1.377 . S
C9 C7 1.364 . S
C9 C10 1.374 . S
C10 H1 0.930 . S
C10 C9 1.374 . S
C10 C11 1.383 . S
C11 O5 1.412 . S
C11 C10 1.383 . S
C11 C12 1.394 . S
C12 H2 0.929 . S
C12 C8 1.377 . S
C12 C11 1.394 . S
H13 C20 0.929 . S
H14 C23 0.930 . S
H15 C25 0.929 . S
H16 C17 0.969 . S
C17 H16 0.969 . S
C17 O18 1.550 1_556 S
C17 H19 0.973 . S
O18 C17 1.550 1_554 S
O18 C24 1.412 . S
H19 C17 0.973 . S
C20 H13 0.929 . S
C20 C21 1.400 . S
C20 C22 1.364 1_554 S
C21 C20 1.400 . S
C21 C25 1.377 . S
C22 C20 1.364 1_556 S
C22 C23 1.374 . S
C23 H14 0.930 . S
C23 C22 1.374 . S
C23 C24 1.383 1_556 S
C24 O18 1.412 . S
C24 C23 1.383 1_554 S
C24 C25 1.394 . S
C25 H15 0.929 . S
C25 C21 1.377 . S
C25 C24 1.394 . S
H26 C33 0.929 . S
H27 C36 0.927 1_556 S
H28 C38 0.929 1_565 S
H29 C30 0.969 . S
C30 H29 0.969 . S
C30 O31 1.550 1_545 S
C30 H32 0.973 1_544 S
O31 C30 1.550 1_565 S
O31 C37 1.406 1_565 S
H32 C30 0.973 1_566 S
C33 H26 0.929 . S
C33 C34 1.400 1_565 S
C33 C35 1.363 1_565 S
C34 C33 1.400 1_545 S
C34 C38 1.377 . S
C35 C33 1.363 1_545 S
C35 C36 1.374 1_545 S
C36 H27 0.927 1_554 S
C36 C35 1.374 1_565 S
C36 C37 1.381 1_565 S
C37 O31 1.406 1_545 S
C37 C36 1.381 1_545 S
C37 C38 1.396 . S
C38 H28 0.929 1_545 S
C38 C34 1.377 . S
C38 C37 1.396 . S
H39 C46 0.929 . S
H40 C49 0.930 1_556 S
H41 C51 0.929 . S
H42 C43 0.969 . S
C43 H42 0.969 . S
C43 O44 1.550 . S
C43 H45 0.973 1_554 S
O44 C43 1.550 . S
O44 C50 1.412 . S
H45 C43 0.973 1_556 S
C46 H39 0.929 . S
C46 C47 1.400 . S
C46 C48 1.364 . S
C47 C46 1.400 . S
C47 C51 1.377 . S
C48 C46 1.364 . S
C48 C49 1.374 . S
C49 H40 0.930 1_554 S
C49 C48 1.374 . S
C49 C50 1.383 . S
C50 O44 1.412 . S
C50 C49 1.383 . S
C50 C51 1.394 . S
C51 H41 0.929 . S
C51 C47 1.377 . S
C51 C50 1.394 . S
H52 C59 0.929 . S
H53 C62 0.930 . S
H54 C64 0.929 . S
H55 C56 0.969 . S
C56 H55 0.969 . S
C56 O57 1.550 . S
C56 H58 0.973 . S
O57 C56 1.550 . S
O57 C63 1.412 . S
H58 C56 0.973 . S
C59 H52 0.929 . S
C59 C60 1.400 . S
C59 C61 1.364 . S
C60 C59 1.400 . S
C60 C64 1.377 . S
C61 C59 1.364 . S
C61 C62 1.374 . S
C62 H53 0.930 . S
C62 C61 1.374 . S
C62 C63 1.383 . S
C63 O57 1.412 . S
C63 C62 1.383 . S
C63 C64 1.394 . S
C64 H54 0.929 . S
C64 C60 1.377 . S
C64 C63 1.394 . S
H65 C72 0.929 . S
H66 C75 0.930 . S
H67 C77 0.929 . S
H68 C69 0.969 . S
C69 H68 0.969 . S
C69 O70 1.550 . S
C69 H71 0.973 . S
O70 C69 1.550 . S
O70 C76 1.412 . S
H71 C69 0.973 . S
C72 H65 0.929 . S
C72 C73 1.400 . S
C72 C74 1.364 . S
C73 C72 1.400 . S
C73 C77 1.377 . S
C74 C72 1.364 . S
C74 C75 1.374 . S
C75 H66 0.930 . S
C75 C74 1.374 . S
C75 C76 1.383 . S
C76 O70 1.412 . S
C76 C75 1.383 . S
C76 C77 1.394 . S
C77 H67 0.929 . S
C77 C73 1.377 . S
C77 C76 1.394 . S
H78 C85 0.929 1_565 S
H79 C88 0.932 . S
H80 C90 0.928 1_565 S
H81 C82 0.969 . S
C82 H81 0.969 . S
C82 O83 1.550 1_545 S
C82 H84 0.973 1_545 S
O83 C82 1.550 1_565 S
O83 C89 1.402 1_565 S
H84 C82 0.973 1_565 S
C85 H78 0.929 1_545 S
C85 C86 1.400 . S
C85 C87 1.364 . S
C86 C85 1.400 . S
C86 C90 1.377 . S
C87 C85 1.364 . S
C87 C88 1.374 1_545 S
C88 H79 0.932 . S
C88 C87 1.374 1_565 S
C88 C89 1.384 1_565 S
C89 O83 1.402 1_545 S
C89 C88 1.384 1_545 S
C89 C90 1.392 . S
C90 H80 0.928 1_545 S
C90 C86 1.377 . S
C90 C89 1.392 . S
H91 C98 0.929 . S
H92 C101 0.930 . S
H93 C103 0.929 . S
H94 C95 0.969 . S
C95 H94 0.969 . S
C95 O96 1.550 . S
C95 H97 0.973 . S
O96 C95 1.550 . S
O96 C102 1.412 . S
H97 C95 0.973 . S
C98 H91 0.929 . S
C98 C99 1.400 . S
C98 C100 1.364 . S
C99 C98 1.400 . S
C99 C103 1.377 . S
C100 C98 1.364 . S
C100 C101 1.374 . S
C101 H92 0.930 . S
C101 C100 1.374 . S
C101 C102 1.383 . S
C102 O96 1.412 . S
C102 C101 1.383 . S
C102 C103 1.394 . S
C103 H93 0.929 . S
C103 C99 1.377 . S
C103 C102 1.394 . S
C104 O120 1.251 1_455 S
C104 O122 1.254 . S
N105 C106 1.333 . S
N105 C110 1.307 . S
N105 Zn111 2.020 . S
C106 N105 1.333 . S
C106 C107 1.379 . S
C106 H124 0.952 1_655 S
C107 C106 1.379 . S
C107 C108 1.390 . S
C107 H134 0.949 . S
C108 C107 1.390 . S
C108 C109 1.357 . S
C109 C108 1.357 . S
C109 C110 1.370 . S
C109 H135 0.950 . S
C110 N105 1.307 . S
C110 C109 1.370 . S
C110 H128 0.948 . S
Zn111 N105 2.020 . S
Zn111 O120 2.039 . S
Zn111 O126 2.034 1_655 S
Zn111 O130 2.026 1_565 S
Zn111 O132 2.024 . S
C112 O131 1.246 . S
C112 O132 1.249 1_545 S
N113 C114 1.307 . S
N113 C115 1.333 . S
N113 Zn119 2.020 . S
C114 N113 1.307 . S
C114 C118 1.370 . S
C114 H125 0.948 . S
C115 N113 1.333 . S
C115 C116 1.379 . S
C115 H123 0.952 . S
C116 C115 1.379 . S
C116 C117 1.390 . S
C116 H136 0.949 . S
C117 C116 1.390 . S
C117 C118 1.357 . S
C118 C114 1.370 . S
C118 C117 1.357 . S
C118 H137 0.950 . S
Zn119 N113 2.020 . S
Zn119 O122 2.025 1_545 S
Zn119 O127 2.024 . S
Zn119 O129 2.039 . S
Zn119 O131 2.034 1_455 S
O120 C104 1.251 1_655 S
O120 Zn111 2.039 . S
C121 O126 1.246 . S
C121 O127 1.249 1_565 S
O122 C104 1.254 . S
O122 Zn119 2.025 1_565 S
H123 C115 0.952 . S
H124 C106 0.952 1_455 S
H125 C114 0.948 . S
O126 Zn111 2.034 1_455 S
O126 C121 1.246 . S
O127 Zn119 2.024 . S
O127 C121 1.249 1_545 S
H128 C110 0.948 . S
O129 Zn119 2.039 . S
O129 C133 1.251 . S
O130 Zn111 2.026 1_545 S
O130 C133 1.250 1_655 S
O131 C112 1.246 . S
O131 Zn119 2.034 1_655 S
O132 Zn111 2.024 . S
O132 C112 1.249 1_565 S
C133 O129 1.251 . S
C133 O130 1.250 1_455 S
H134 C107 0.949 . S
H135 C109 0.950 . S
H136 C116 0.949 . S
H137 C118 0.950 . S
C138 O154 1.251 1_565 S
C138 O156 1.254 . S
N139 C140 1.333 . S
N139 C144 1.307 . S
N139 Zn145 2.020 . S
C140 N139 1.333 . S
C140 C141 1.379 . S
C140 H158 0.952 . S
C141 C140 1.379 . S
C141 C142 1.390 . S
C141 H168 0.949 . S
C142 C141 1.390 . S
C142 C143 1.357 . S
C143 C142 1.357 . S
C143 C144 1.370 . S
C143 H169 0.950 . S
C144 N139 1.307 . S
C144 C143 1.370 . S
C144 H162 0.948 . S
Zn145 N139 2.020 . S
Zn145 O154 2.039 . S
Zn145 O160 2.034 . S
Zn145 O164 2.025 . S
Zn145 O166 2.024 . S
C146 O165 1.246 1_545 S
C146 O166 1.249 . S
N147 C148 1.307 . S
N147 C149 1.333 . S
N147 Zn153 2.020 . S
C148 N147 1.307 . S
C148 C152 1.370 . S
C148 H159 0.948 . S
C149 N147 1.333 . S
C149 C150 1.379 . S
C149 H157 0.952 . S
C150 C149 1.379 . S
C150 C151 1.390 . S
C150 H170 0.949 . S
C151 C150 1.390 . S
C151 C152 1.357 . S
C152 C148 1.370 . S
C152 C151 1.357 . S
C152 H171 0.950 . S
Zn153 N147 2.020 . S
Zn153 O156 2.025 . S
Zn153 O161 2.024 . S
Zn153 O163 2.039 . S
Zn153 O165 2.034 . S
O154 C138 1.251 1_545 S
O154 Zn145 2.039 . S
C155 O160 1.246 1_565 S
C155 O161 1.249 . S
O156 C138 1.254 . S
O156 Zn153 2.025 . S
H157 C149 0.952 . S
H158 C140 0.952 . S
H159 C148 0.948 . S
O160 Zn145 2.034 . S
O160 C155 1.246 1_545 S
O161 Zn153 2.024 . S
O161 C155 1.249 . S
H162 C144 0.948 . S
O163 Zn153 2.039 . S
O163 C167 1.251 1_565 S
O164 Zn145 2.025 . S
O164 C167 1.254 . S
O165 C146 1.246 1_565 S
O165 Zn153 2.034 . S
O166 Zn145 2.024 . S
O166 C146 1.249 . S
C167 O163 1.251 1_545 S
C167 O164 1.254 . S
H168 C141 0.949 . S
H169 C143 0.950 . S
H170 C150 0.949 . S
H171 C152 0.950 . S
C172 O188 1.251 . S
C172 O190 1.254 . S
N173 C174 1.333 . S
N173 C178 1.307 . S
N173 Zn179 2.020 . S
C174 N173 1.333 . S
C174 C175 1.379 . S
C174 H192 0.952 . S
C175 C174 1.379 . S
C175 C176 1.390 . S
C175 H202 0.949 . S
C176 C175 1.390 . S
C176 C177 1.357 . S
C177 C176 1.357 . S
C177 C178 1.370 . S
C177 H203 0.950 . S
C178 N173 1.307 . S
C178 C177 1.370 . S
C178 H196 0.948 . S
Zn179 N173 2.020 . S
Zn179 O188 2.039 . S
Zn179 O194 2.034 . S
Zn179 O198 2.025 . S
Zn179 O200 2.024 . S
C180 O199 1.246 . S
C180 O200 1.249 . S
N181 C182 1.307 . S
N181 C183 1.333 . S
N181 Zn187 2.020 . S
C182 N181 1.307 . S
C182 C186 1.370 . S
C182 H193 0.948 . S
C183 N181 1.333 . S
C183 C184 1.379 . S
C183 H191 0.952 . S
C184 C183 1.379 . S
C184 C185 1.390 . S
C184 H204 0.949 . S
C185 C184 1.390 . S
C185 C186 1.357 . S
C186 C182 1.370 . S
C186 C185 1.357 . S
C186 H205 0.950 . S
Zn187 N181 2.020 . S
Zn187 O190 2.025 . S
Zn187 O195 2.024 . S
Zn187 O197 2.039 . S
Zn187 O199 2.034 . S
O188 C172 1.251 . S
O188 Zn179 2.039 . S
C189 O194 1.246 . S
C189 O195 1.249 . S
O190 C172 1.254 . S
O190 Zn187 2.025 . S
H191 C183 0.952 . S
H192 C174 0.952 . S
H193 C182 0.948 . S
O194 Zn179 2.034 . S
O194 C189 1.246 . S
O195 Zn187 2.024 . S
O195 C189 1.249 . S
H196 C178 0.948 . S
O197 Zn187 2.039 . S
O197 C201 1.251 . S
O198 Zn179 2.025 . S
O198 C201 1.254 . S
O199 C180 1.246 . S
O199 Zn187 2.034 . S
O200 Zn179 2.024 . S
O200 C180 1.249 . S
C201 O197 1.251 . S
C201 O198 1.254 . S
H202 C175 0.949 . S
H203 C177 0.950 . S
H204 C184 0.949 . S
H205 C186 0.950 . S
C206 O222 1.251 . S
C206 O224 1.254 . S
N207 C208 1.333 . S
N207 C212 1.307 . S
N207 Zn213 2.020 . S
C208 N207 1.333 . S
C208 C209 1.379 . S
C208 H226 0.952 . S
C209 C208 1.379 . S
C209 C210 1.390 . S
C209 H236 0.949 . S
C210 C209 1.390 . S
C210 C211 1.357 . S
C211 C210 1.357 . S
C211 C212 1.370 . S
C211 H237 0.959 . S
C212 N207 1.307 . S
C212 C211 1.370 . S
C212 H230 0.948 1_455 S
Zn213 N207 2.020 . S
Zn213 O222 2.039 . S
Zn213 O228 2.034 1_455 S
Zn213 O232 2.025 1_455 S
Zn213 O234 2.024 . S
C214 O233 1.246 . S
C214 O234 1.249 . S
N215 C216 1.309 . S
N215 C217 1.328 1_455 S
N215 Zn221 2.020 . S
C216 N215 1.309 . S
C216 C220 1.370 . S
C216 H227 0.948 . S
C217 N215 1.328 1_655 S
C217 C218 1.379 . S
C217 H225 0.952 . S
C218 C217 1.379 . S
C218 C219 1.390 . S
C218 H238 0.949 . S
C219 C218 1.390 . S
C219 C220 1.357 1_655 S
C220 C216 1.370 . S
C220 C219 1.357 1_455 S
C220 H239 0.950 . S
Zn221 N215 2.020 . S
Zn221 O224 2.025 . S
Zn221 O229 2.024 1_455 S
Zn221 O231 2.039 1_455 S
Zn221 O233 2.034 . S
O222 C206 1.251 . S
O222 Zn213 2.039 . S
C223 O228 1.246 . S
C223 O229 1.249 . S
O224 C206 1.254 . S
O224 Zn221 2.025 . S
H225 C217 0.952 . S
H226 C208 0.952 . S
H227 C216 0.948 . S
O228 Zn213 2.034 1_655 S
O228 C223 1.246 . S
O229 Zn221 2.024 1_655 S
O229 C223 1.249 . S
H230 C212 0.948 1_655 S
O231 Zn221 2.039 1_655 S
O231 C235 1.251 . S
O232 Zn213 2.025 1_655 S
O232 C235 1.254 . S
O233 C214 1.246 . S
O233 Zn221 2.034 . S
O234 Zn213 2.024 . S
O234 C214 1.249 . S
C235 O231 1.251 . S
C235 O232 1.254 . S
H236 C209 0.949 . S
H237 C211 0.959 . S
H238 C218 0.949 . S
H239 C220 0.950 . S
C240 C241 1.351 . S
C240 C242 1.327 . S
C240 H265 0.950 . S
C241 C240 1.351 . S
C241 C257 1.347 1_565 S
C242 C240 1.327 . S
C242 C261 1.460 . S
C242 H266 0.950 . S
C243 C260 1.574 . S
C243 C262 1.368 1_545 S
C243 H267 0.949 . S
H244 C248 0.949 . S
C245 C246 1.349 1_545 S
C245 C247 1.327 . S
C245 H268 0.950 . S
C246 C245 1.349 1_565 S
C246 C258 1.349 . S
C247 C245 1.327 . S
C247 C263 1.429 1_545 S
C247 H269 0.950 . S
C248 H244 0.949 . S
C248 C256 1.574 . S
C248 C264 1.368 . S
H249 C257 0.950 . S
H250 C255 0.950 . S
H251 C256 0.949 . S
H252 C258 0.950 . S
H253 C259 0.950 . S
H254 C260 0.949 . S
C255 H250 0.950 . S
C255 C257 1.327 . S
C255 C261 1.399 1_545 S
C256 C248 1.574 . S
C256 H251 0.949 . S
C256 C262 1.368 . S
C257 C241 1.347 1_545 S
C257 H249 0.950 . S
C257 C255 1.327 . S
C258 C246 1.349 . S
C258 H252 0.950 . S
C258 C259 1.327 . S
C259 H253 0.950 . S
C259 C258 1.327 . S
C259 C263 1.429 . S
C260 C243 1.574 . S
C260 H254 0.949 . S
C260 C264 1.368 1_545 S
C261 C242 1.460 . S
C261 C255 1.399 1_565 S
C261 C262 1.523 . S
C262 C243 1.368 1_565 S
C262 C256 1.368 . S
C262 C261 1.523 . S
C263 C247 1.429 1_565 S
C263 C259 1.429 . S
C263 C264 1.523 . S
C264 C248 1.368 . S
C264 C260 1.368 1_565 S
C264 C263 1.523 . S
H265 C240 0.950 . S
H266 C242 0.950 . S
H267 C243 0.949 . S
H268 C245 0.950 . S
H269 C247 0.950 . S
C270 C271 1.349 . S
C270 C272 1.327 . S
C270 H295 0.950 . S
C271 C270 1.349 . S
C271 C287 1.349 . S
C272 C270 1.327 . S
C272 C291 1.429 . S
C272 H296 0.950 . S
C273 C290 1.574 . S
C273 C292 1.368 . S
C273 H297 0.949 . S
H274 C278 0.949 . S
C275 C276 1.349 . S
C275 C277 1.327 . S
C275 H298 0.950 . S
C276 C275 1.349 . S
C276 C288 1.349 . S
C277 C275 1.327 . S
C277 C293 1.429 . S
C277 H299 0.950 . S
C278 H274 0.949 . S
C278 C286 1.574 . S
C278 C294 1.368 . S
H279 C287 0.950 . S
H280 C285 0.950 . S
H281 C286 0.949 . S
H282 C288 0.950 . S
H283 C289 0.950 . S
H284 C290 0.949 . S
C285 H280 0.950 . S
C285 C287 1.327 . S
C285 C291 1.429 . S
C286 C278 1.574 . S
C286 H281 0.949 . S
C286 C292 1.368 . S
C287 C271 1.349 . S
C287 H279 0.950 . S
C287 C285 1.327 . S
C288 C276 1.349 . S
C288 H282 0.950 . S
C288 C289 1.327 . S
C289 H283 0.950 . S
C289 C288 1.327 . S
C289 C293 1.429 . S
C290 C273 1.574 . S
C290 H284 0.949 . S
C290 C294 1.368 . S
C291 C272 1.429 . S
C291 C285 1.429 . S
C291 C292 1.523 . S
C292 C273 1.368 . S
C292 C286 1.368 . S
C292 C291 1.523 . S
C293 C277 1.429 . S
C293 C289 1.429 . S
C293 C294 1.523 . S
C294 C278 1.368 . S
C294 C290 1.368 . S
C294 C293 1.523 . S
H295 C270 0.950 . S
H296 C272 0.950 . S
H297 C273 0.949 . S
H298 C275 0.950 . S
H299 C277 0.950 . S
C300 C301 1.349 . S
C300 C302 1.327 . S
C300 H325 0.950 . S
C301 C300 1.349 . S
C301 C317 1.349 . S
C302 C300 1.327 . S
C302 C321 1.429 . S
C302 H326 0.950 . S
C303 C320 1.574 . S
C303 C322 1.368 . S
C303 H327 0.949 . S
H304 C308 0.949 . S
C305 C306 1.349 . S
C305 C307 1.327 . S
C305 H328 0.950 . S
C306 C305 1.349 . S
C306 C318 1.349 . S
C307 C305 1.327 . S
C307 C323 1.429 . S
C307 H329 0.950 . S
C308 H304 0.949 . S
C308 C316 1.574 . S
C308 C324 1.368 . S
H309 C317 0.950 . S
H310 C315 0.950 . S
H311 C316 0.949 . S
H312 C318 0.950 . S
H313 C319 0.950 . S
H314 C320 0.949 . S
C315 H310 0.950 . S
C315 C317 1.327 . S
C315 C321 1.429 . S
C316 C308 1.574 . S
C316 H311 0.949 . S
C316 C322 1.368 . S
C317 C301 1.349 . S
C317 H309 0.950 . S
C317 C315 1.327 . S
C318 C306 1.349 . S
C318 H312 0.950 . S
C318 C319 1.327 . S
C319 H313 0.950 . S
C319 C318 1.327 . S
C319 C323 1.429 . S
C320 C303 1.574 . S
C320 H314 0.949 . S
C320 C324 1.368 . S
C321 C302 1.429 . S
C321 C315 1.429 . S
C321 C322 1.523 . S
C322 C303 1.368 . S
C322 C316 1.368 . S
C322 C321 1.523 . S
C323 C307 1.429 . S
C323 C319 1.429 . S
C323 C324 1.523 . S
C324 C308 1.368 . S
C324 C320 1.368 . S
C324 C323 1.523 . S
H325 C300 0.950 . S
H326 C302 0.950 . S
H327 C303 0.949 . S
H328 C305 0.950 . S
H329 C307 0.950 . S
C330 C331 1.349 . S
C330 C332 1.327 . S
C330 H355 0.950 . S
C331 C330 1.349 . S
C331 C347 1.349 . S
C332 C330 1.327 . S
C332 C351 1.429 . S
C332 H356 0.950 . S
C333 C350 1.574 . S
C333 C352 1.368 . S
C333 H357 0.949 . S
H334 C338 0.949 . S
C335 C336 1.349 . S
C335 C337 1.327 . S
C335 H358 0.950 . S
C336 C335 1.349 . S
C336 C348 1.349 . S
C337 C335 1.327 . S
C337 C353 1.429 . S
C337 H359 0.950 . S
C338 H334 0.949 . S
C338 C346 1.574 . S
C338 C354 1.368 . S
H339 C347 0.950 . S
H340 C345 0.950 . S
H341 C346 0.949 . S
H342 C348 0.950 . S
H343 C349 0.950 . S
H344 C350 0.949 . S
C345 H340 0.950 . S
C345 C347 1.327 . S
C345 C351 1.429 . S
C346 C338 1.574 . S
C346 H341 0.949 . S
C346 C352 1.368 . S
C347 C331 1.349 . S
C347 H339 0.950 . S
C347 C345 1.327 . S
C348 C336 1.349 . S
C348 H342 0.950 . S
C348 C349 1.327 . S
C349 H343 0.950 . S
C349 C348 1.327 . S
C349 C353 1.429 . S
C350 C333 1.574 . S
C350 H344 0.949 . S
C350 C354 1.368 . S
C351 C332 1.429 . S
C351 C345 1.429 . S
C351 C352 1.523 . S
C352 C333 1.368 . S
C352 C346 1.368 . S
C352 C351 1.523 . S
C353 C337 1.429 . S
C353 C349 1.429 . S
C353 C354 1.523 . S
C354 C338 1.368 . S
C354 C350 1.368 . S
C354 C353 1.523 . S
H355 C330 0.950 . S
H356 C332 0.950 . S
H357 C333 0.949 . S
H358 C335 0.950 . S
H359 C337 0.950 . S
C360 C361 1.361 1_554 S
C360 C362 1.327 1_554 S
C360 H385 0.950 . S
C361 C360 1.361 1_556 S
C361 C377 1.337 1_545 S
C362 C360 1.327 1_556 S
C362 C381 1.471 . S
C362 H386 0.950 . S
C363 C380 1.574 . S
C363 C382 1.368 1_565 S
C363 H387 0.949 . S
H364 C368 0.949 . S
C365 C366 1.349 1_565 S
C365 C367 1.327 . S
C365 H388 0.950 . S
C366 C365 1.349 1_545 S
C366 C378 1.349 . S
C367 C365 1.327 . S
C367 C383 1.429 1_565 S
C367 H389 0.950 . S
C368 H364 0.949 . S
C368 C376 1.574 . S
C368 C384 1.368 . S
H369 C377 0.950 . S
H370 C375 0.950 . S
H371 C376 0.949 . S
H372 C378 0.950 . S
H373 C379 0.950 . S
H374 C380 0.949 . S
C375 H370 0.950 . S
C375 C377 1.327 . S
C375 C381 1.388 1_565 S
C376 C368 1.574 . S
C376 H371 0.949 . S
C376 C382 1.368 . S
C377 C361 1.337 1_565 S
C377 H369 0.950 . S
C377 C375 1.327 . S
C378 C366 1.349 . S
C378 H372 0.950 . S
C378 C379 1.327 . S
C379 H373 0.950 . S
C379 C378 1.327 . S
C379 C383 1.429 . S
C380 C363 1.574 . S
C380 H374 0.949 . S
C380 C384 1.368 1_565 S
C381 C362 1.471 . S
C381 C375 1.388 1_545 S
C381 C382 1.523 . S
C382 C363 1.368 1_545 S
C382 C376 1.368 . S
C382 C381 1.523 . S
C383 C367 1.429 1_545 S
C383 C379 1.429 . S
C383 C384 1.523 . S
C384 C368 1.368 . S
C384 C380 1.368 1_545 S
C384 C383 1.523 . S
H385 C360 0.950 . S
H386 C362 0.950 . S
H387 C363 0.949 . S
H388 C365 0.950 . S
H389 C367 0.950 . S
C390 C391 1.349 1_556 S
C390 C392 1.327 . S
C390 H415 0.950 . S
C391 C390 1.349 1_554 S
C391 C407 1.349 . S
C392 C390 1.327 . S
C392 C411 1.429 . S
C392 H416 0.950 . S
C393 C410 1.574 . S
C393 C412 1.368 . S
C393 H417 0.949 . S
H394 C398 0.949 . S
C395 C396 1.349 . S
C395 C397 1.327 . S
C395 H418 0.950 . S
C396 C395 1.349 . S
C396 C408 1.349 . S
C397 C395 1.327 . S
C397 C413 1.429 . S
C397 H419 0.950 . S
C398 H394 0.949 . S
C398 C406 1.574 . S
C398 C414 1.368 . S
H399 C407 0.950 . S
H400 C405 0.950 . S
H401 C406 0.949 . S
H402 C408 0.950 . S
H403 C409 0.950 . S
H404 C410 0.949 . S
C405 H400 0.950 . S
C405 C407 1.327 . S
C405 C411 1.429 1_554 S
C406 C398 1.574 . S
C406 H401 0.949 . S
C406 C412 1.368 . S
C407 C391 1.349 . S
C407 H399 0.950 . S
C407 C405 1.327 . S
C408 C396 1.349 . S
C408 H402 0.950 . S
C408 C409 1.327 . S
C409 H403 0.950 . S
C409 C408 1.327 . S
C409 C413 1.429 . S
C410 C393 1.574 . S
C410 H404 0.949 . S
C410 C414 1.368 . S
C411 C392 1.429 . S
C411 C405 1.429 1_556 S
C411 C412 1.523 . S
C412 C393 1.368 . S
C412 C406 1.368 . S
C412 C411 1.523 . S
C413 C397 1.429 . S
C413 C409 1.429 . S
C413 C414 1.523 . S
C414 C398 1.368 . S
C414 C410 1.368 . S
C414 C413 1.523 . S
H415 C390 0.950 . S
H416 C392 0.950 . S
H417 C393 0.949 . S
H418 C395 0.950 . S
H419 C397 0.950 . S
C420 C421 1.349 . S
C420 C422 1.327 1_554 S
C420 H445 0.950 . S
C421 C420 1.349 . S
C421 C437 1.349 . S
C422 C420 1.327 1_556 S
C422 C441 1.429 . S
C422 H446 0.950 . S
C423 C440 1.574 . S
C423 C442 1.368 . S
C423 H447 0.949 1_556 S
H424 C428 0.949 . S
C425 C426 1.349 . S
C425 C427 1.327 . S
C425 H448 0.950 . S
C426 C425 1.349 . S
C426 C438 1.349 . S
C427 C425 1.327 . S
C427 C443 1.429 . S
C427 H449 0.950 . S
C428 H424 0.949 . S
C428 C436 1.574 . S
C428 C444 1.368 . S
H429 C437 0.950 . S
H430 C435 0.950 . S
H431 C436 0.949 . S
H432 C438 0.950 . S
H433 C439 0.950 . S
H434 C440 0.949 . S
C435 H430 0.950 . S
C435 C437 1.327 . S
C435 C441 1.429 1_554 S
C436 C428 1.574 . S
C436 H431 0.949 . S
C436 C442 1.368 . S
C437 C421 1.349 . S
C437 H429 0.950 . S
C437 C435 1.327 . S
C438 C426 1.349 . S
C438 H432 0.950 . S
C438 C439 1.327 . S
C439 H433 0.950 . S
C439 C438 1.327 . S
C439 C443 1.429 . S
C440 C423 1.574 . S
C440 H434 0.949 . S
C440 C444 1.368 . S
C441 C422 1.429 . S
C441 C435 1.429 1_556 S
C441 C442 1.523 . S
C442 C423 1.368 . S
C442 C436 1.368 . S
C442 C441 1.523 . S
C443 C427 1.429 . S
C443 C439 1.429 . S
C443 C444 1.523 . S
C444 C428 1.368 . S
C444 C440 1.368 . S
C444 C443 1.523 . S
H445 C420 0.950 . S
H446 C422 0.950 . S
H447 C423 0.949 1_554 S
H448 C425 0.950 . S
H449 C427 0.950 . S
C450 C451 1.349 . S
C450 C452 1.327 . S
C450 H475 0.950 . S
C451 C450 1.349 . S
C451 C467 1.349 . S
C452 C450 1.327 . S
C452 C471 1.429 . S
C452 H476 0.950 . S
C453 C470 1.574 . S
C453 C472 1.368 . S
C453 H477 0.949 . S
H454 C458 0.949 . S
C455 C456 1.349 . S
C455 C457 1.327 . S
C455 H478 0.950 . S
C456 C455 1.349 . S
C456 C468 1.349 . S
C457 C455 1.327 . S
C457 C473 1.429 . S
C457 H479 0.950 . S
C458 H454 0.949 . S
C458 C466 1.574 . S
C458 C474 1.368 . S
H459 C467 0.950 1_554 S
H460 C465 0.950 . S
H461 C466 0.949 . S
H462 C468 0.950 1_455 S
H463 C469 0.950 . S
H464 C470 0.949 . S
C465 H460 0.950 . S
C465 C467 1.327 . S
C465 C471 1.429 . S
C466 C458 1.574 . S
C466 H461 0.949 . S
C466 C472 1.368 . S
C467 C451 1.349 . S
C467 H459 0.950 1_556 S
C467 C465 1.327 . S
C468 C456 1.349 . S
C468 H462 0.950 1_655 S
C468 C469 1.327 . S
C469 H463 0.950 . S
C469 C468 1.327 . S
C469 C473 1.429 . S
C470 C453 1.574 . S
C470 H464 0.949 . S
C470 C474 1.368 . S
C471 C452 1.429 . S
C471 C465 1.429 . S
C471 C472 1.523 . S
C472 C453 1.368 . S
C472 C466 1.368 . S
C472 C471 1.523 . S
C473 C457 1.429 . S
C473 C469 1.429 . S
C473 C474 1.523 . S
C474 C458 1.368 . S
C474 C470 1.368 . S
C474 C473 1.523 . S
H475 C450 0.950 . S
H476 C452 0.950 . S
H477 C453 0.949 . S
H478 C455 0.950 . S
H479 C457 0.950 . S
C480 C481 1.349 . S
C480 C482 1.327 . S
C480 H505 0.950 . S
C481 C480 1.349 . S
C481 C497 1.349 . S
C482 C480 1.327 . S
C482 C501 1.429 . S
C482 H506 0.950 . S
C483 C500 1.574 . S
C483 C502 1.368 . S
C483 H507 0.949 . S
H484 C488 0.949 . S
C485 C486 1.349 . S
C485 C487 1.327 . S
C485 H508 0.950 . S
C486 C485 1.349 . S
C486 C498 1.349 1_455 S
C487 C485 1.327 . S
C487 C503 1.429 . S
C487 H509 0.950 . S
C488 H484 0.949 . S
C488 C496 1.574 . S
C488 C504 1.368 . S
H489 C497 0.950 . S
H490 C495 0.950 . S
H491 C496 0.949 . S
H492 C498 0.950 . S
H493 C499 0.959 . S
H494 C500 0.949 . S
C495 H490 0.950 . S
C495 C497 1.327 . S
C495 C501 1.429 . S
C496 C488 1.574 . S
C496 H491 0.949 . S
C496 C502 1.368 . S
C497 C481 1.349 . S
C497 H489 0.950 . S
C497 C495 1.327 . S
C498 C486 1.349 1_655 S
C498 H492 0.950 . S
C498 C499 1.327 1_655 S
C499 H493 0.959 . S
C499 C498 1.327 1_455 S
C499 C503 1.429 . S
C500 C483 1.574 . S
C500 H494 0.949 . S
C500 C504 1.368 . S
C501 C482 1.429 . S
C501 C495 1.429 . S
C501 C502 1.523 . S
C502 C483 1.368 . S
C502 C496 1.368 . S
C502 C501 1.523 . S
C503 C487 1.429 . S
C503 C499 1.429 . S
C503 C504 1.523 . S
C504 C488 1.368 . S
C504 C500 1.368 . S
C504 C503 1.523 . S
H505 C480 0.950 . S
H506 C482 0.950 . S
H507 C483 0.949 . S
H508 C485 0.950 . S
H509 C487 0.950 . S
C510 C511 1.350 . S
C510 C512 1.327 . S
C510 H535 0.950 . S
C511 C510 1.350 . S
C511 C527 1.348 1_545 S
C512 C510 1.327 . S
C512 C531 1.429 1_545 S
C512 H536 0.950 . S
C513 C530 1.574 . S
C513 C532 1.368 . S
C513 H537 0.949 . S
H514 C518 0.949 . S
C515 C516 1.349 . S
C515 C517 1.327 . S
C515 H538 0.950 . S
C516 C515 1.349 . S
C516 C528 1.349 1_565 S
C517 C515 1.327 . S
C517 C533 1.429 . S
C517 H539 0.950 . S
C518 H514 0.949 . S
C518 C526 1.574 . S
C518 C534 1.368 1_545 S
H519 C527 0.950 . S
H520 C525 0.950 . S
H521 C526 0.949 . S
H522 C528 0.950 . S
H523 C529 0.950 . S
H524 C530 0.949 . S
C525 H520 0.950 . S
C525 C527 1.327 . S
C525 C531 1.429 . S
C526 C518 1.574 . S
C526 H521 0.949 . S
C526 C532 1.368 1_545 S
C527 C511 1.348 1_565 S
C527 H519 0.950 . S
C527 C525 1.327 . S
C528 C516 1.349 1_545 S
C528 H522 0.950 . S
C528 C529 1.327 . S
C529 H523 0.950 . S
C529 C528 1.327 . S
C529 C533 1.429 1_545 S
C530 C513 1.574 . S
C530 H524 0.949 . S
C530 C534 1.368 . S
C531 C512 1.429 1_565 S
C531 C525 1.429 . S
C531 C532 1.523 . S
C532 C513 1.368 . S
C532 C526 1.368 1_565 S
C532 C531 1.523 . S
C533 C517 1.429 . S
C533 C529 1.429 1_565 S
C533 C534 1.523 . S
C534 C518 1.368 1_565 S
C534 C530 1.368 . S
C534 C533 1.523 . S
H535 C510 0.950 . S
H536 C512 0.950 . S
H537 C513 0.949 . S
H538 C515 0.950 . S
H539 C517 0.950 . S
C540 C541 1.349 . S
C540 C542 1.327 . S
C540 H565 0.950 . S
C541 C540 1.349 . S
C541 C557 1.349 . S
C542 C540 1.327 . S
C542 C561 1.429 . S
C542 H566 0.950 . S
C543 C560 1.574 . S
C543 C562 1.368 . S
C543 H567 0.949 . S
H544 C548 0.949 . S
C545 C546 1.349 . S
C545 C547 1.327 . S
C545 H568 0.950 . S
C546 C545 1.349 . S
C546 C558 1.349 . S
C547 C545 1.327 . S
C547 C563 1.429 . S
C547 H569 0.950 . S
C548 H544 0.949 . S
C548 C556 1.574 . S
C548 C564 1.368 . S
H549 C557 0.950 . S
H550 C555 0.950 . S
H551 C556 0.949 . S
H552 C558 0.950 . S
H553 C559 0.950 . S
H554 C560 0.949 . S
C555 H550 0.950 . S
C555 C557 1.327 . S
C555 C561 1.429 . S
C556 C548 1.574 . S
C556 H551 0.949 . S
C556 C562 1.368 . S
C557 C541 1.349 . S
C557 H549 0.950 . S
C557 C555 1.327 . S
C558 C546 1.349 . S
C558 H552 0.950 . S
C558 C559 1.327 . S
C559 H553 0.950 . S
C559 C558 1.327 . S
C559 C563 1.429 . S
C560 C543 1.574 . S
C560 H554 0.949 . S
C560 C564 1.368 . S
C561 C542 1.429 . S
C561 C555 1.429 . S
C561 C562 1.523 . S
C562 C543 1.368 . S
C562 C556 1.368 . S
C562 C561 1.523 . S
C563 C547 1.429 . S
C563 C559 1.429 . S
C563 C564 1.523 . S
C564 C548 1.368 . S
C564 C560 1.368 . S
C564 C563 1.523 . S
H565 C540 0.950 . S
H566 C542 0.950 . S
H567 C543 0.949 . S
H568 C545 0.950 . S
H569 C547 0.950 . S
C570 C571 1.349 . S
C570 C572 1.327 . S
C570 H595 0.950 . S
C571 C570 1.349 . S
C571 C587 1.349 . S
C572 C570 1.327 . S
C572 C591 1.429 . S
C572 H596 0.950 . S
C573 C590 1.574 . S
C573 C592 1.368 . S
C573 H597 0.949 . S
H574 C578 0.949 . S
C575 C576 1.349 . S
C575 C577 1.327 . S
C575 H598 0.950 . S
C576 C575 1.349 . S
C576 C588 1.349 . S
C577 C575 1.327 . S
C577 C593 1.429 . S
C577 H599 0.950 . S
C578 H574 0.949 . S
C578 C586 1.574 . S
C578 C594 1.368 . S
H579 C587 0.950 . S
H580 C585 0.950 . S
H581 C586 0.949 . S
H582 C588 0.950 . S
H583 C589 0.950 . S
H584 C590 0.949 . S
C585 H580 0.950 . S
C585 C587 1.327 . S
C585 C591 1.429 . S
C586 C578 1.574 . S
C586 H581 0.949 . S
C586 C592 1.368 . S
C587 C571 1.349 . S
C587 H579 0.950 . S
C587 C585 1.327 . S
C588 C576 1.349 . S
C588 H582 0.950 . S
C588 C589 1.327 . S
C589 H583 0.950 . S
C589 C588 1.327 . S
C589 C593 1.429 . S
C590 C573 1.574 . S
C590 H584 0.949 . S
C590 C594 1.368 . S
C591 C572 1.429 . S
C591 C585 1.429 . S
C591 C592 1.523 . S
C592 C573 1.368 . S
C592 C586 1.368 . S
C592 C591 1.523 . S
C593 C577 1.429 . S
C593 C589 1.429 . S
C593 C594 1.523 . S
C594 C578 1.368 . S
C594 C590 1.368 . S
C594 C593 1.523 . S
H595 C570 0.950 . S
H596 C572 0.950 . S
H597 C573 0.949 . S
H598 C575 0.950 . S
H599 C577 0.950 . S
C600 C601 1.349 . S
C600 C602 1.327 . S
C600 H625 0.950 1_556 S
C601 C600 1.349 . S
C601 C617 1.349 . S
C602 C600 1.327 . S
C602 C621 1.429 . S
C602 H626 0.950 . S
C603 C620 1.574 . S
C603 C622 1.368 . S
C603 H627 0.949 . S
H604 C608 0.949 . S
C605 C606 1.349 1_655 S
C605 C607 1.327 . S
C605 H628 0.950 . S
C606 C605 1.349 1_455 S
C606 C618 1.349 . S
C607 C605 1.327 . S
C607 C623 1.429 . S
C607 H629 0.950 . S
C608 H604 0.949 . S
C608 C616 1.574 . S
C608 C624 1.368 . S
H609 C617 0.950 . S
H610 C615 0.950 . S
H611 C616 0.949 . S
H612 C618 0.950 . S
H613 C619 0.950 . S
H614 C620 0.949 . S
C615 H610 0.950 . S
C615 C617 1.327 . S
C615 C621 1.429 . S
C616 C608 1.574 . S
C616 H611 0.949 . S
C616 C622 1.368 . S
C617 C601 1.349 . S
C617 H609 0.950 . S
C617 C615 1.327 . S
C618 C606 1.349 . S
C618 H612 0.950 . S
C618 C619 1.327 1_455 S
C619 H613 0.950 . S
C619 C618 1.327 1_655 S
C619 C623 1.429 . S
C620 C603 1.574 . S
C620 H614 0.949 . S
C620 C624 1.368 . S
C621 C602 1.429 . S
C621 C615 1.429 . S
C621 C622 1.523 . S
C622 C603 1.368 . S
C622 C616 1.368 . S
C622 C621 1.523 . S
C623 C607 1.429 . S
C623 C619 1.429 . S
C623 C624 1.523 . S
C624 C608 1.368 . S
C624 C620 1.368 . S
C624 C623 1.523 . S
H625 C600 0.950 1_554 S
H626 C602 0.950 . S
H627 C603 0.949 . S
H628 C605 0.950 . S
H629 C607 0.950 . S
C630 C631 1.350 1_565 S
C630 C632 1.327 1_554 S
C630 H655 0.950 . S
C631 C630 1.350 1_545 S
C631 C647 1.348 1_554 S
C632 C630 1.327 1_556 S
C632 C651 1.429 1_565 S
C632 H656 0.950 1_556 S
C633 C650 1.574 . S
C633 C652 1.368 . S
C633 H657 0.949 . S
H634 C638 0.949 . S
C635 C636 1.349 . S
C635 C637 1.327 . S
C635 H658 0.950 . S
C636 C635 1.349 . S
C636 C648 1.349 1_545 S
C637 C635 1.327 . S
C637 C653 1.429 . S
C637 H659 0.950 . S
C638 H634 0.949 . S
C638 C646 1.574 . S
C638 C654 1.368 1_565 S
H639 C647 0.950 . S
H640 C645 0.950 . S
H641 C646 0.949 . S
H642 C648 0.950 . S
H643 C649 0.950 . S
H644 C650 0.949 . S
C645 H640 0.950 . S
C645 C647 1.327 . S
C645 C651 1.429 . S
C646 C638 1.574 . S
C646 H641 0.949 . S
C646 C652 1.368 1_565 S
C647 C631 1.348 1_556 S
C647 H639 0.950 . S
C647 C645 1.327 . S
C648 C636 1.349 1_565 S
C648 H642 0.950 . S
C648 C649 1.327 . S
C649 H643 0.950 . S
C649 C648 1.327 . S
C649 C653 1.429 1_565 S
C650 C633 1.574 . S
C650 H644 0.949 . S
C650 C654 1.368 . S
C651 C632 1.429 1_545 S
C651 C645 1.429 . S
C651 C652 1.523 . S
C652 C633 1.368 . S
C652 C646 1.368 1_545 S
C652 C651 1.523 . S
C653 C637 1.429 . S
C653 C649 1.429 1_545 S
C653 C654 1.523 . S
C654 C638 1.368 1_545 S
C654 C650 1.368 . S
C654 C653 1.523 . S
H655 C630 0.950 . S
H656 C632 0.950 1_554 S
H657 C633 0.949 . S
H658 C635 0.950 . S
H659 C637 0.950 . S
C660 C661 1.349 . S
C660 C662 1.327 . S
C660 H685 0.950 . S
C661 C660 1.349 . S
C661 C677 1.349 1_554 S
C662 C660 1.327 . S
C662 C681 1.429 1_554 S
C662 H686 0.950 . S
C663 C680 1.574 . S
C663 C682 1.368 . S
C663 H687 0.949 . S
H664 C668 0.949 . S
C665 C666 1.349 . S
C665 C667 1.327 . S
C665 H688 0.950 . S
C666 C665 1.349 . S
C666 C678 1.349 . S
C667 C665 1.327 . S
C667 C683 1.429 . S
C667 H689 0.950 . S
C668 H664 0.949 . S
C668 C676 1.574 . S
C668 C684 1.368 . S
H669 C677 0.950 . S
H670 C675 0.950 . S
H671 C676 0.949 . S
H672 C678 0.950 . S
H673 C679 0.950 . S
H674 C680 0.949 . S
C675 H670 0.950 . S
C675 C677 1.327 . S
C675 C681 1.429 . S
C676 C668 1.574 . S
C676 H671 0.949 . S
C676 C682 1.368 . S
C677 C661 1.349 1_556 S
C677 H669 0.950 . S
C677 C675 1.327 . S
C678 C666 1.349 . S
C678 H672 0.950 . S
C678 C679 1.327 . S
C679 H673 0.950 . S
C679 C678 1.327 . S
C679 C683 1.429 . S
C680 C663 1.574 . S
C680 H674 0.949 . S
C680 C684 1.368 . S
C681 C662 1.429 1_556 S
C681 C675 1.429 . S
C681 C682 1.523 . S
C682 C663 1.368 . S
C682 C676 1.368 . S
C682 C681 1.523 . S
C683 C667 1.429 . S
C683 C679 1.429 . S
C683 C684 1.523 . S
C684 C668 1.368 . S
C684 C680 1.368 . S
C684 C683 1.523 . S
H685 C660 0.950 . S
H686 C662 0.950 . S
H687 C663 0.949 . S
H688 C665 0.950 . S
H689 C667 0.950 . S
C690 C691 1.349 . S
C690 C692 1.317 1_554 S
C690 H715 0.950 . S
C691 C690 1.349 . S
C691 C707 1.349 . S
C692 C690 1.317 1_556 S
C692 C711 1.427 1_556 S
C692 H716 0.962 . S
C693 C710 1.574 . S
C693 C712 1.368 . S
C693 H717 0.956 . S
H694 C698 0.949 . S
C695 C696 1.349 . S
C695 C697 1.327 . S
C695 H718 0.950 . S
C696 C695 1.349 . S
C696 C708 1.349 . S
C697 C695 1.327 . S
C697 C713 1.429 . S
C697 H719 0.950 . S
C698 H694 0.949 . S
C698 C706 1.574 . S
C698 C714 1.368 . S
H699 C707 0.950 . S
H700 C705 0.950 . S
H701 C706 0.949 . S
H702 C708 0.950 . S
H703 C709 0.950 . S
H704 C710 0.949 . S
C705 H700 0.950 . S
C705 C707 1.327 . S
C705 C711 1.429 . S
C706 C698 1.574 . S
C706 H701 0.949 . S
C706 C712 1.368 . S
C707 C691 1.349 . S
C707 H699 0.950 . S
C707 C705 1.327 . S
C708 C696 1.349 . S
C708 H702 0.950 . S
C708 C709 1.327 . S
C709 H703 0.950 . S
C709 C708 1.327 . S
C709 C713 1.429 . S
C710 C693 1.574 . S
C710 H704 0.949 . S
C710 C714 1.368 . S
C711 C692 1.427 1_554 S
C711 C705 1.429 . S
C711 C712 1.523 1_554 S
C712 C693 1.368 . S
C712 C706 1.368 . S
C712 C711 1.523 1_556 S
C713 C697 1.429 . S
C713 C709 1.429 . S
C713 C714 1.523 . S
C714 C698 1.368 . S
C714 C710 1.368 . S
C714 C713 1.523 . S
H715 C690 0.950 . S
H716 C692 0.962 . S
H717 C693 0.956 . S
H718 C695 0.950 . S
H719 C697 0.950 . S
C720 C721 1.349 . S
C720 C722 1.327 . S
C720 H745 0.950 . S
C721 C720 1.349 . S
C721 C737 1.349 . S
C722 C720 1.327 . S
C722 C741 1.429 . S
C722 H746 0.950 . S
C723 C740 1.574 . S
C723 C742 1.368 . S
C723 H747 0.949 . S
H724 C728 0.949 . S
C725 C726 1.349 . S
C725 C727 1.327 . S
C725 H748 0.950 . S
C726 C725 1.349 . S
C726 C738 1.349 1_556 S
C727 C725 1.327 . S
C727 C743 1.429 1_556 S
C727 H749 0.950 . S
C728 H724 0.949 . S
C728 C736 1.574 . S
C728 C744 1.368 . S
H729 C737 0.950 . S
H730 C735 0.950 . S
H731 C736 0.949 . S
H732 C738 0.950 . S
H733 C739 0.950 . S
H734 C740 0.949 . S
C735 H730 0.950 . S
C735 C737 1.327 . S
C735 C741 1.429 . S
C736 C728 1.574 . S
C736 H731 0.949 . S
C736 C742 1.368 . S
C737 C721 1.349 . S
C737 H729 0.950 . S
C737 C735 1.327 . S
C738 C726 1.349 1_554 S
C738 H732 0.950 . S
C738 C739 1.327 . S
C739 H733 0.950 . S
C739 C738 1.327 . S
C739 C743 1.429 . S
C740 C723 1.574 . S
C740 H734 0.949 . S
C740 C744 1.368 . S
C741 C722 1.429 . S
C741 C735 1.429 . S
C741 C742 1.523 . S
C742 C723 1.368 . S
C742 C736 1.368 . S
C742 C741 1.523 . S
C743 C727 1.429 1_554 S
C743 C739 1.429 . S
C743 C744 1.523 . S
C744 C728 1.368 . S
C744 C740 1.368 . S
C744 C743 1.523 . S
H745 C720 0.950 . S
H746 C722 0.950 . S
H747 C723 0.949 . S
H748 C725 0.950 . S
H749 C727 0.950 . S
C750 C751 1.334 1_565 S
C750 C752 1.327 . S
C750 H775 0.950 . S
C751 C750 1.334 1_545 S
C751 C767 1.363 . S
C752 C750 1.327 . S
C752 C771 1.429 1_565 S
C752 H776 0.950 . S
C753 C770 1.574 . S
C753 C772 1.368 . S
C753 H777 0.949 . S
H754 C758 0.949 . S
C755 C756 1.349 . S
C755 C757 1.327 . S
C755 H778 0.950 . S
C756 C755 1.349 . S
C756 C768 1.349 1_545 S
C757 C755 1.327 . S
C757 C773 1.429 . S
C757 H779 0.950 . S
C758 H754 0.949 . S
C758 C766 1.574 1_556 S
C758 C774 1.368 1_565 S
H759 C767 0.950 . S
H760 C765 0.950 . S
H761 C766 0.949 . S
H762 C768 0.950 . S
H763 C769 0.950 . S
H764 C770 0.949 . S
C765 H760 0.950 . S
C765 C767 1.327 . S
C765 C771 1.429 . S
C766 C758 1.574 1_554 S
C766 H761 0.949 . S
C766 C772 1.368 1_565 S
C767 C751 1.363 . S
C767 H759 0.950 . S
C767 C765 1.327 . S
C768 C756 1.349 1_565 S
C768 H762 0.950 . S
C768 C769 1.327 . S
C769 H763 0.950 . S
C769 C768 1.327 . S
C769 C773 1.429 1_565 S
C770 C753 1.574 . S
C770 H764 0.949 . S
C770 C774 1.368 1_554 S
C771 C752 1.429 1_545 S
C771 C765 1.429 . S
C771 C772 1.523 . S
C772 C753 1.368 . S
C772 C766 1.368 1_545 S
C772 C771 1.523 . S
C773 C757 1.429 . S
C773 C769 1.429 1_545 S
C773 C774 1.523 . S
C774 C758 1.368 1_545 S
C774 C770 1.368 1_556 S
C774 C773 1.523 . S
H775 C750 0.950 . S
H776 C752 0.950 . S
H777 C753 0.949 . S
H778 C755 0.950 . S
H779 C757 0.950 . S
C780 C781 1.349 . S
C780 C782 1.327 . S
C780 H805 0.950 . S
C781 C780 1.349 . S
C781 C797 1.349 . S
C782 C780 1.327 . S
C782 C801 1.429 . S
C782 H806 0.950 . S
C783 C800 1.574 . S
C783 C802 1.368 . S
C783 H807 0.949 . S
H784 C788 0.949 . S
C785 C786 1.349 . S
C785 C787 1.327 . S
C785 H808 0.950 . S
C786 C785 1.349 . S
C786 C798 1.349 . S
C787 C785 1.327 . S
C787 C803 1.429 . S
C787 H809 0.950 . S
C788 H784 0.949 . S
C788 C796 1.574 1_556 S
C788 C804 1.368 . S
H789 C797 0.950 . S
H790 C795 0.950 . S
H791 C796 0.949 . S
H792 C798 0.950 . S
H793 C799 0.950 . S
H794 C800 0.949 . S
C795 H790 0.950 . S
C795 C797 1.327 . S
C795 C801 1.429 . S
C796 C788 1.574 1_554 S
C796 H791 0.949 . S
C796 C802 1.368 . S
C797 C781 1.349 . S
C797 H789 0.950 . S
C797 C795 1.327 . S
C798 C786 1.349 . S
C798 H792 0.950 . S
C798 C799 1.327 . S
C799 H793 0.950 . S
C799 C798 1.327 . S
C799 C803 1.429 . S
C800 C783 1.574 . S
C800 H794 0.949 . S
C800 C804 1.368 1_554 S
C801 C782 1.429 . S
C801 C795 1.429 . S
C801 C802 1.523 . S
C802 C783 1.368 . S
C802 C796 1.368 . S
C802 C801 1.523 . S
C803 C787 1.429 . S
C803 C799 1.429 . S
C803 C804 1.523 . S
C804 C788 1.368 . S
C804 C800 1.368 1_556 S
C804 C803 1.523 . S
H805 C780 0.950 . S
H806 C782 0.950 . S
H807 C783 0.949 . S
H808 C785 0.950 . S
H809 C787 0.950 . S
C810 C811 1.349 . S
C810 C812 1.327 . S
C810 H835 0.950 . S
C811 C810 1.349 . S
C811 C827 1.349 . S
C812 C810 1.327 . S
C812 C831 1.429 . S
C812 H836 0.950 . S
C813 C830 1.574 1_554 S
C813 C832 1.368 . S
C813 H837 0.949 . S
H814 C818 0.949 . S
C815 C816 1.349 . S
C815 C817 1.327 . S
C815 H838 0.950 . S
C816 C815 1.349 . S
C816 C828 1.349 . S
C817 C815 1.327 . S
C817 C833 1.429 . S
C817 H839 0.950 . S
C818 H814 0.949 . S
C818 C826 1.574 . S
C818 C834 1.368 . S
H819 C827 0.950 . S
H820 C825 0.950 . S
H821 C826 0.949 . S
H822 C828 0.950 . S
H823 C829 0.950 . S
H824 C830 0.949 . S
C825 H820 0.950 . S
C825 C827 1.327 . S
C825 C831 1.429 . S
C826 C818 1.574 . S
C826 H821 0.949 . S
C826 C832 1.368 1_556 S
C827 C811 1.349 . S
C827 H819 0.950 . S
C827 C825 1.327 . S
C828 C816 1.349 . S
C828 H822 0.950 . S
C828 C829 1.327 . S
C829 H823 0.950 . S
C829 C828 1.327 . S
C829 C833 1.429 . S
C830 C813 1.574 1_556 S
C830 H824 0.949 . S
C830 C834 1.368 . S
C831 C812 1.429 . S
C831 C825 1.429 . S
C831 C832 1.523 . S
C832 C813 1.368 . S
C832 C826 1.368 1_554 S
C832 C831 1.523 . S
C833 C817 1.429 . S
C833 C829 1.429 . S
C833 C834 1.523 . S
C834 C818 1.368 . S
C834 C830 1.368 . S
C834 C833 1.523 . S
H835 C810 0.950 . S
H836 C812 0.950 . S
H837 C813 0.949 . S
H838 C815 0.950 . S
H839 C817 0.950 . S
C840 C841 1.349 . S
C840 C842 1.327 . S
C840 H865 0.950 . S
C841 C840 1.349 . S
C841 C857 1.349 . S
C842 C840 1.327 . S
C842 C861 1.429 . S
C842 H866 0.950 . S
C843 C860 1.574 . S
C843 C862 1.368 . S
C843 H867 0.949 . S
H844 C848 0.949 . S
C845 C846 1.349 . S
C845 C847 1.327 . S
C845 H868 0.950 . S
C846 C845 1.349 . S
C846 C858 1.349 . S
C847 C845 1.327 . S
C847 C863 1.429 . S
C847 H869 0.950 . S
C848 H844 0.949 . S
C848 C856 1.574 . S
C848 C864 1.368 . S
H849 C857 0.950 . S
H850 C855 0.950 . S
H851 C856 0.949 . S
H852 C858 0.950 . S
H853 C859 0.950 . S
H854 C860 0.949 . S
C855 H850 0.950 . S
C855 C857 1.327 . S
C855 C861 1.429 . S
C856 C848 1.574 . S
C856 H851 0.949 . S
C856 C862 1.368 . S
C857 C841 1.349 . S
C857 H849 0.950 . S
C857 C855 1.327 . S
C858 C846 1.349 . S
C858 H852 0.950 . S
C858 C859 1.327 . S
C859 H853 0.950 . S
C859 C858 1.327 . S
C859 C863 1.429 . S
C860 C843 1.574 . S
C860 H854 0.949 . S
C860 C864 1.368 . S
C861 C842 1.429 . S
C861 C855 1.429 . S
C861 C862 1.523 . S
C862 C843 1.368 . S
C862 C856 1.368 . S
C862 C861 1.523 . S
C863 C847 1.429 . S
C863 C859 1.429 . S
C863 C864 1.523 . S
C864 C848 1.368 . S
C864 C860 1.368 . S
C864 C863 1.523 . S
H865 C840 0.950 . S
H866 C842 0.950 . S
H867 C843 0.949 . S
H868 C845 0.950 . S
H869 C847 0.950 . S
C870 C871 1.344 1_545 S
C870 C872 1.327 . S
C870 H895 0.950 . S
C871 C870 1.344 1_565 S
C871 C887 1.353 . S
C872 C870 1.327 . S
C872 C891 1.389 1_545 S
C872 H896 0.950 . S
C873 C890 1.574 . S
C873 C892 1.368 . S
C873 H897 0.949 . S
H874 C878 0.949 . S
C875 C876 1.349 . S
C875 C877 1.327 . S
C875 H898 0.950 . S
C876 C875 1.349 . S
C876 C888 1.349 1_565 S
C877 C875 1.327 . S
C877 C893 1.429 . S
C877 H899 0.950 . S
C878 H874 0.949 . S
C878 C886 1.574 . S
C878 C894 1.368 1_545 S
H879 C887 0.950 . S
H880 C885 0.950 . S
H881 C886 0.949 . S
H882 C888 0.950 . S
H883 C889 0.950 . S
H884 C890 0.949 . S
C885 H880 0.950 . S
C885 C887 1.327 . S
C885 C891 1.472 . S
C886 C878 1.574 . S
C886 H881 0.949 . S
C886 C892 1.368 1_545 S
C887 C871 1.353 . S
C887 H879 0.950 . S
C887 C885 1.327 . S
C888 C876 1.349 1_545 S
C888 H882 0.950 . S
C888 C889 1.327 . S
C889 H883 0.950 . S
C889 C888 1.327 . S
C889 C893 1.429 1_545 S
C890 C873 1.574 . S
C890 H884 0.949 . S
C890 C894 1.368 . S
C891 C872 1.389 1_565 S
C891 C885 1.472 . S
C891 C892 1.523 . S
C892 C873 1.368 . S
C892 C886 1.368 1_565 S
C892 C891 1.523 . S
C893 C877 1.429 . S
C893 C889 1.429 1_565 S
C893 C894 1.523 . S
C894 C878 1.368 1_565 S
C894 C890 1.368 . S
C894 C893 1.523 . S
H895 C870 0.950 . S
H896 C872 0.950 . S
H897 C873 0.949 . S
H898 C875 0.950 . S
H899 C877 0.950 . S
C900 C901 1.349 . S
C900 C902 1.327 . S
C900 H925 0.950 . S
C901 C900 1.349 . S
C901 C917 1.349 . S
C902 C900 1.327 . S
C902 C921 1.429 . S
C902 H926 0.950 . S
C903 C920 1.574 . S
C903 C922 1.368 . S
C903 H927 0.949 . S
H904 C908 0.949 . S
C905 C906 1.349 . S
C905 C907 1.327 . S
C905 H928 0.950 . S
C906 C905 1.349 . S
C906 C918 1.349 . S
C907 C905 1.327 . S
C907 C923 1.429 . S
C907 H929 0.950 . S
C908 H904 0.949 . S
C908 C916 1.574 . S
C908 C924 1.368 . S
H909 C917 0.950 . S
H910 C915 0.950 . S
H911 C916 0.949 . S
H912 C918 0.950 . S
H913 C919 0.950 . S
H914 C920 0.949 . S
C915 H910 0.950 . S
C915 C917 1.327 . S
C915 C921 1.429 . S
C916 C908 1.574 . S
C916 H911 0.949 . S
C916 C922 1.368 . S
C917 C901 1.349 . S
C917 H909 0.950 . S
C917 C915 1.327 . S
C918 C906 1.349 . S
C918 H912 0.950 . S
C918 C919 1.327 . S
C919 H913 0.950 . S
C919 C918 1.327 . S
C919 C923 1.429 . S
C920 C903 1.574 . S
C920 H914 0.949 . S
C920 C924 1.368 . S
C921 C902 1.429 . S
C921 C915 1.429 . S
C921 C922 1.523 . S
C922 C903 1.368 . S
C922 C916 1.368 . S
C922 C921 1.523 . S
C923 C907 1.429 . S
C923 C919 1.429 . S
C923 C924 1.523 . S
C924 C908 1.368 . S
C924 C920 1.368 . S
C924 C923 1.523 . S
H925 C900 0.950 . S
H926 C902 0.950 . S
H927 C903 0.949 . S
H928 C905 0.950 . S
H929 C907 0.950 . S
C930 C931 1.349 . S
C930 C932 1.327 . S
C930 H955 0.950 . S
C931 C930 1.349 . S
C931 C947 1.349 . S
C932 C930 1.327 . S
C932 C951 1.429 . S
C932 H956 0.950 . S
C933 C950 1.574 . S
C933 C952 1.368 . S
C933 H957 0.949 . S
H934 C938 0.949 . S
C935 C936 1.349 . S
C935 C937 1.327 . S
C935 H958 0.950 . S
C936 C935 1.349 . S
C936 C948 1.349 . S
C937 C935 1.327 . S
C937 C953 1.429 . S
C937 H959 0.950 . S
C938 H934 0.949 . S
C938 C946 1.574 . S
C938 C954 1.368 . S
H939 C947 0.950 . S
H940 C945 0.950 . S
H941 C946 0.949 . S
H942 C948 0.950 . S
H943 C949 0.950 . S
H944 C950 0.949 . S
C945 H940 0.950 . S
C945 C947 1.327 . S
C945 C951 1.429 . S
C946 C938 1.574 . S
C946 H941 0.949 . S
C946 C952 1.368 . S
C947 C931 1.349 . S
C947 H939 0.950 . S
C947 C945 1.327 . S
C948 C936 1.349 . S
C948 H942 0.950 . S
C948 C949 1.327 . S
C949 H943 0.950 . S
C949 C948 1.327 . S
C949 C953 1.429 . S
C950 C933 1.574 . S
C950 H944 0.949 . S
C950 C954 1.368 . S
C951 C932 1.429 . S
C951 C945 1.429 . S
C951 C952 1.523 . S
C952 C933 1.368 . S
C952 C946 1.368 . S
C952 C951 1.523 . S
C953 C937 1.429 . S
C953 C949 1.429 . S
C953 C954 1.523 . S
C954 C938 1.368 . S
C954 C950 1.368 . S
C954 C953 1.523 . S
H955 C930 0.950 . S
H956 C932 0.950 . S
H957 C933 0.949 . S
H958 C935 0.950 . S
H959 C937 0.950 . S
C241 C82 1.762 1_565 S
C246 C121 1.872 . S
C276 C142 1.547 . S
C271 C95 1.459 . S
C306 C176 1.323 . S
C301 C56 1.219 . S
C336 C210 1.538 . S
C331 C69 1.472 . S
C366 C112 1.872 . S
C361 C30 1.759 1_556 S
C391 C43 1.442 . S
C396 C151 1.553 . S
C421 C4 1.221 . S
C426 C185 1.323 . S
C451 C17 1.433 . S
C456 C219 1.538 . S
C486 C133 0.249 . S
C481 C74 0.446 . S
C516 C138 0.704 . S
C511 C87 0.708 . S
C546 C172 0.635 . S
C541 C100 0.644 . S
C571 C61 0.252 . S
C576 C206 0.165 . S
C601 C22 0.452 . S
C606 C104 0.251 . S
C636 C167 0.704 . S
C631 C35 0.707 . S
C666 C201 0.635 . S
C661 C48 0.645 . S
C691 C9 0.252 . S
C696 C235 0.165 . S
C721 C73 1.265 . S
C726 C117 1.290 . S
C751 C86 1.713 . S
C756 C146 1.755 . S
C786 C180 1.553 . S
C781 C99 1.521 . S
C816 C214 1.614 . S
C811 C60 1.570 . S
C841 C21 1.263 . S
C846 C108 1.299 . S
C876 C155 1.755 . S
C871 C34 1.714 1_565 S
C906 C189 1.553 . S
C901 C47 1.519 . S
C931 C8 1.572 . S
C936 C223 1.614 . S
