# Generated by pormake.
# Topology zzz, (3,6)-cn, num edge types: 1
# Building blocks:
#     Node 0, Type 0, BuildingBlock: PAMTOO_clean_linker_0, # of connection points: 3
#     Node 1, Type 0, BuildingBlock: PAMTOO_clean_linker_0, # of connection points: 3
#     Node 2, Type 0, BuildingBlock: PAMTOO_clean_linker_0, # of connection points: 3
#     Node 3, Type 0, BuildingBlock: PAMTOO_clean_linker_0, # of connection points: 3
#     Node 4, Type 0, BuildingBlock: PAMTOO_clean_linker_0, # of connection points: 3
#     Node 5, Type 0, BuildingBlock: PAMTOO_clean_linker_0, # of connection points: 3
#     Node 6, Type 0, BuildingBlock: PAMTOO_clean_linker_0, # of connection points: 3
#     Node 7, Type 0, BuildingBlock: PAMTOO_clean_linker_0, # of connection points: 3
#     Node 8, Type 1, BuildingBlock: KUMBUR_clean_sbu_0, # of connection points: 6
#     Node 9, Type 1, BuildingBlock: KUMBUR_clean_sbu_0, # of connection points: 6
#     Node 10, Type 1, BuildingBlock: KUMBUR_clean_sbu_0, # of connection points: 6
#     Node 11, Type 1, BuildingBlock: KUMBUR_clean_sbu_0, # of connection points: 6
#     Edge 12, Type (0, 1), BuildingBlock: MIFKUJ_clean_linker_0, # of connection points: 2
#     Edge 13, Type (0, 1), BuildingBlock: MIFKUJ_clean_linker_0, # of connection points: 2
#     Edge 14, Type (0, 1), BuildingBlock: MIFKUJ_clean_linker_0, # of connection points: 2
#     Edge 15, Type (0, 1), BuildingBlock: MIFKUJ_clean_linker_0, # of connection points: 2
#     Edge 16, Type (0, 1), BuildingBlock: MIFKUJ_clean_linker_0, # of connection points: 2
#     Edge 17, Type (0, 1), BuildingBlock: MIFKUJ_clean_linker_0, # of connection points: 2
#     Edge 18, Type (0, 1), BuildingBlock: MIFKUJ_clean_linker_0, # of connection points: 2
#     Edge 19, Type (0, 1), BuildingBlock: MIFKUJ_clean_linker_0, # of connection points: 2
#     Edge 20, Type (0, 1), BuildingBlock: MIFKUJ_clean_linker_0, # of connection points: 2
#     Edge 21, Type (0, 1), BuildingBlock: MIFKUJ_clean_linker_0, # of connection points: 2
#     Edge 22, Type (0, 1), BuildingBlock: MIFKUJ_clean_linker_0, # of connection points: 2
#     Edge 23, Type (0, 1), BuildingBlock: MIFKUJ_clean_linker_0, # of connection points: 2
#     Edge 24, Type (0, 1), BuildingBlock: MIFKUJ_clean_linker_0, # of connection points: 2
#     Edge 25, Type (0, 1), BuildingBlock: MIFKUJ_clean_linker_0, # of connection points: 2
#     Edge 26, Type (0, 1), BuildingBlock: MIFKUJ_clean_linker_0, # of connection points: 2
#     Edge 27, Type (0, 1), BuildingBlock: MIFKUJ_clean_linker_0, # of connection points: 2
#     Edge 28, Type (0, 1), BuildingBlock: MIFKUJ_clean_linker_0, # of connection points: 2
#     Edge 29, Type (0, 1), BuildingBlock: MIFKUJ_clean_linker_0, # of connection points: 2
#     Edge 30, Type (0, 1), BuildingBlock: MIFKUJ_clean_linker_0, # of connection points: 2
#     Edge 31, Type (0, 1), BuildingBlock: MIFKUJ_clean_linker_0, # of connection points: 2
#     Edge 32, Type (0, 1), BuildingBlock: MIFKUJ_clean_linker_0, # of connection points: 2
#     Edge 33, Type (0, 1), BuildingBlock: MIFKUJ_clean_linker_0, # of connection points: 2
#     Edge 34, Type (0, 1), BuildingBlock: MIFKUJ_clean_linker_0, # of connection points: 2
#     Edge 35, Type (0, 1), BuildingBlock: MIFKUJ_clean_linker_0, # of connection points: 2
# Relax obj value: 0.144
# Max RMSD: 0.152
# Mean RMSD: 0.111
data_MOF--net-zzz--node1-KUMBUR_clean_sbu_0--node2-PAMTOO_clean_linker_0--edge1-MIFKUJ_clean_linker_0
_symmetry_space_group_name_H-M    P1
_symmetry_Int_Tables_number       1
_symmetry_cell_setting            triclinic
loop_
_symmetry_equiv_pos_as_xyz
'x, y, z'
_cell_length_a     65.510659
_cell_length_b     65.39826
_cell_length_c     19.102223
_cell_angle_alpha  90.897765
_cell_angle_beta   89.99419
_cell_angle_gamma 89.882164
loop_
_atom_site_label
_atom_site_type_symbol
_atom_site_fract_x
_atom_site_fract_y
_atom_site_fract_z
_atom_type_partial_charge
H0 H 0.80279 0.57943 0.20724 0.0
H1 H 0.74473 0.58318 0.10212 0.0
H2 H 0.75368 0.54049 0.26903 0.0
H3 H 0.72093 0.52576 0.14193 0.0
C4 C 0.72169 0.54134 0.11977 0.0
O5 O 0.72696 0.5551 0.17334 0.0
H6 H 0.73391 0.54078 0.07921 0.0
C7 C 0.78685 0.57522 0.20268 0.0
C8 C 0.77977 0.55984 0.24635 0.0
C9 C 0.77474 0.58342 0.14906 0.0
C10 C 0.75436 0.57704 0.14288 0.0
C11 C 0.74656 0.56157 0.18517 0.0
C12 C 0.75938 0.55279 0.23727 0.0
H13 H 0.96338 0.81406 0.22317 0.0
H14 H 0.95973 0.75607 0.11359 0.0
H15 H 0.99997 0.76365 0.29026 0.0
H16 H 0.01646 0.73256 0.16141 0.0
C17 C 1.00106 0.73243 0.13703 0.0
O18 O 0.98674 0.73772 0.18818 0.0
H19 H 1.0014 0.74418 0.0954 0.0
C20 C 0.96724 0.79799 0.21835 0.0
C21 C 0.98139 0.79021 0.26585 0.0
C22 C 0.95955 0.78619 0.16217 0.0
C23 C 0.96564 0.76563 0.15568 0.0
C24 C 0.98043 0.75742 0.20026 0.0
C25 C 0.98851 0.76983 0.25561 0.0
H26 H 0.72871 0.96847 0.22469 0.0
H27 H 0.78918 0.96786 0.13724 0.0
H28 H 0.77558 1.00554 0.31868 0.0
H29 H 0.81662 0.02251 0.21401 0.0
C30 C 0.8115 1.00952 0.18034 0.0
O31 O 0.80466 0.99398 0.22378 0.0
H32 H 0.79856 0.01538 0.14845 0.0
C33 C 0.7446 0.97298 0.22748 0.0
C34 C 0.75032 0.98678 0.28062 0.0
C35 C 0.75829 0.96598 0.1757 0.0
C36 C 0.77843 0.97306 0.17682 0.0
C37 C 0.78481 0.98753 0.22676 0.0
C38 C 0.77067 0.99456 0.27922 0.0
H39 H 0.57467 0.73453 0.20659 0.0
H40 H 0.57453 0.79404 0.11562 0.0
H41 H 0.54833 0.78547 0.31985 0.0
H42 H 0.52648 0.82279 0.22225 0.0
C43 C 0.53849 0.81948 0.18258 0.0
O44 O 0.55572 0.81246 0.21736 0.0
H45 H 0.53218 0.80742 0.14693 0.0
C46 C 0.57175 0.75083 0.21133 0.0
C47 C 0.56217 0.75841 0.272 0.0
C48 C 0.57584 0.76344 0.15435 0.0
C49 C 0.5713 0.78427 0.15938 0.0
C50 C 0.56116 0.79234 0.21792 0.0
C51 C 0.55634 0.77934 0.27458 0.0
H52 H 0.23262 0.47118 0.02794 0.0
H53 H 0.28987 0.47896 0.13276 0.0
H54 H 0.28205 0.50209 0.92454 0.0
H55 H 0.33252 0.48596 0.97902 0.0
C56 C 0.32596 0.48544 0.03259 0.0
O57 O 0.30843 0.49762 0.03378 0.0
H58 H 0.32202 0.46916 0.04211 0.0
C59 C 0.24853 0.4758 0.02588 0.0
C60 C 0.25556 0.48657 0.96786 0.0
C61 C 0.26075 0.47324 0.08506 0.0
C62 C 0.28082 0.48026 0.08558 0.0
C63 C 0.28907 0.48995 0.02753 0.0
C64 C 0.2763 0.49336 0.96796 0.0
H65 H 0.06899 0.23108 0.00944 0.0
H66 H 0.06722 0.28712 0.13063 0.0
H67 H 0.02686 0.27859 0.95475 0.0
H68 H 0.03831 0.32971 1.00357 0.0
C69 C 0.04642 0.32306 0.0489 0.0
O70 O 0.03797 0.30393 0.06227 0.0
H71 H 0.06273 0.32125 0.03335 0.0
C72 C 0.06356 0.24664 0.01693 0.0
C73 C 0.04803 0.25348 0.9728 0.0
C74 C 0.07037 0.25832 0.07472 0.0
C75 C 0.06227 0.27798 0.086 0.0
C76 C 0.04682 0.28566 0.04312 0.0
C77 C 0.03943 0.27322 0.98636 0.0
H78 H 0.30846 0.0774 0.03233 0.0
H79 H 0.25019 0.06896 0.12998 0.0
H80 H 0.26001 0.04738 0.91852 0.0
H81 H 0.20732 0.05685 0.97311 0.0
C82 C 0.21521 0.06138 0.02234 0.0
O83 O 0.23319 0.04998 0.02716 0.0
H84 H 0.21889 0.07795 0.01803 0.0
C85 C 0.29261 0.07284 0.02816 0.0
C86 C 0.28597 0.06309 0.96626 0.0
C87 C 0.28004 0.0748 0.08742 0.0
C88 C 0.25992 0.0678 0.08417 0.0
C89 C 0.25238 0.05817 0.02388 0.0
C90 C 0.26552 0.05551 0.96453 0.0
H91 H 0.44987 0.31242 0.01339 0.0
H92 H 0.44011 0.25449 0.10369 0.0
H93 H 0.48637 0.26123 0.94355 0.0
H94 H 0.459 0.2311 0.142 0.0
C95 C 0.47434 0.23185 0.11757 0.0
O96 O 0.4719 0.23591 0.04604 0.0
H97 H 0.48268 0.24485 0.14265 0.0
C98 C 0.45292 0.29611 0.01311 0.0
C99 C 0.46691 0.28782 0.96482 0.0
C100 C 0.44485 0.28431 0.06643 0.0
C101 C 0.44794 0.26326 0.06455 0.0
C102 C 0.46441 0.25478 0.02637 0.0
C103 C 0.47401 0.26735 0.9752 0.0
Tb104 Tb 0.03668 0.01482 0.68052 0.0
C105 C 0.96282 0.99935 0.501 0.0
C106 C 0.97538 0.97653 0.41023 0.0
C107 C 0.93986 0.97483 0.44491 0.0
C108 C 0.97884 0.99208 0.46103 0.0
C109 C 0.94302 0.99116 0.49211 0.0
C110 C 0.95601 0.96761 0.40365 0.0
C111 C 0.93013 0.01798 0.56789 0.0
N112 N 0.96623 0.01566 0.54391 0.0
C113 C 0.94988 0.02588 0.5732 0.0
C114 C 0.92674 1.0003 0.52806 0.0
Tb115 Tb 0.99953 0.02705 0.55296 0.0
N116 N 0.99749 1.00094 0.46898 0.0
C117 C 0.01297 0.99524 0.42395 0.0
C118 C 0.99126 0.97077 0.36579 0.0
C119 C 1.01012 0.98015 0.37252 0.0
H120 H 0.95225 0.04009 0.60169 0.0
H121 H 0.02259 0.97569 0.33829 0.0
H122 H 0.95326 0.95548 0.3655 0.0
H123 H 0.9175 0.02574 0.59349 0.0
H124 H 0.0281 1.00114 0.42783 0.0
H125 H 1.00592 0.05819 0.90164 0.0
H126 H 0.98888 0.9595 0.32507 0.0
H127 H 0.08482 1.01013 0.62239 0.0
H128 H 1.00417 0.03461 0.80335 0.0
H129 H 0.11828 0.02569 0.64715 0.0
H130 H 0.92483 0.96824 0.43786 0.0
H131 H 0.03805 0.07588 0.92905 0.0
H132 H 0.07451 0.08276 0.90083 0.0
H133 H 0.91137 0.99445 0.52244 0.0
H134 H 0.10483 0.07455 0.83044 0.0
N135 N 0.03527 0.03855 0.7709 0.0
C136 C 0.01852 0.04189 0.81279 0.0
C137 C 0.03736 0.06579 0.88428 0.0
C138 C 0.05451 0.06235 0.84261 0.0
C139 C 0.01929 0.05558 0.86935 0.0
C140 C 0.05306 0.04835 0.78586 0.0
H141 H 0.1213 0.05327 0.7364 0.0
N142 N 0.06852 0.02939 0.69466 0.0
C143 C 0.10487 0.03105 0.67509 0.0
C144 C 0.07016 0.04373 0.74627 0.0
C145 C 0.08585 0.02229 0.66132 0.0
C146 C 0.10649 0.04663 0.72528 0.0
C147 C 0.08914 0.05288 0.76254 0.0
O148 O 0.05919 0.99335 0.70182 0.0
O149 O 0.01495 1.002 0.60466 0.0
O150 O 0.98224 0.01952 0.64808 0.0
O151 O 1.00641 1.00732 0.72654 0.0
O152 O 0.04399 0.9906 0.60388 0.0
O153 O 0.03396 0.99754 0.77287 0.0
O154 O 0.97897 0.04389 0.49161 0.0
O155 O 0.02025 0.03945 0.6316 0.0
O156 O 0.0524 0.03182 0.5969 0.0
O157 O 0.03026 0.02695 0.50396 0.0
O158 O 0.992 0.05231 0.62658 0.0
O159 O 1.01102 0.0497 0.4869 0.0
C160 C 0.02615 0.98822 0.57721 0.0
C161 C 0.04988 0.9645 0.76308 0.0
C162 C 0.03241 0.93225 0.7812 0.0
C163 C 0.032 0.95372 0.77909 0.0
C164 C 0.05076 0.92173 0.76741 0.0
C165 C 0.06812 0.95369 0.75041 0.0
C166 C 0.0685 0.93244 0.75224 0.0
C167 C 0.98722 1.01147 0.70884 0.0
C168 C 0.05034 0.98689 0.75789 0.0
C169 C 0.09042 0.06734 0.81734 0.0
C170 C 0.07315 0.07201 0.85743 0.0
C171 C 1.00935 0.05368 0.658 0.0
C172 C 0.98946 0.07816 0.47878 0.0
C173 C 1.00354 0.09153 0.44947 0.0
C174 C 1.00111 0.11275 0.45661 0.0
C175 C 0.9844 0.12054 0.49487 0.0
C176 C 0.9728 0.08608 0.51691 0.0
C177 C 0.97037 0.10722 0.52496 0.0
C178 C 0.04869 0.03133 0.52873 0.0
C179 C 0.993 0.0561 0.46976 0.0
H180 H 0.01786 0.96186 0.78934 0.0
H181 H 0.05149 0.90521 0.77002 0.0
H182 H 0.08212 0.96174 0.73856 0.0
H183 H 0.08261 0.92425 0.7423 0.0
H184 H 0.01662 0.08527 0.42161 0.0
H185 H 0.98198 0.13686 0.50058 0.0
H186 H 0.96175 0.07604 0.54069 0.0
H187 H 0.95752 0.1133 0.55424 0.0
Tb188 Tb 0.52262 0.03945 0.69489 0.0
C189 C 0.53948 0.96776 0.49478 0.0
C190 C 0.55964 0.9821 0.40143 0.0
C191 C 0.56142 0.94569 0.42365 0.0
C192 C 0.54555 0.98452 0.45692 0.0
C193 C 0.54707 0.94808 0.47773 0.0
C194 C 0.56768 0.96267 0.38554 0.0
C195 C 0.5243 0.93423 0.56415 0.0
N196 N 0.5255 0.97058 0.54633 0.0
C197 C 0.51712 0.95397 0.57868 0.0
C198 C 0.53953 0.93129 0.51401 0.0
Tb199 Tb 0.51289 1.00316 0.56008 0.0
N200 N 0.53746 1.00312 0.47369 0.0
C201 C 0.54305 0.01992 0.43616 0.0
C202 C 0.56503 0.9992 0.36276 0.0
C203 C 0.55678 0.0182 0.38057 0.0
H204 H 0.50516 0.95608 0.61722 0.0
H205 H 0.56092 0.03163 0.35158 0.0
H206 H 0.57857 0.96057 0.3433 0.0
H207 H 0.51799 0.9213 0.59134 0.0
H208 H 0.53774 0.03501 0.44936 0.0
H209 H 0.46666 0.01441 0.88809 0.0
H210 H 0.57543 0.99785 0.31888 0.0
H211 H 0.53651 0.08626 0.64993 0.0
H212 H 0.4926 1.00933 0.80102 0.0
H213 H 0.52532 0.12177 0.6724 0.0
H214 H 0.56748 0.93073 0.41001 0.0
H215 H 0.45311 0.04888 0.91418 0.0
H216 H 0.4539 0.08629 0.89167 0.0
H217 H 0.54498 0.91595 0.50238 0.0
H218 H 0.46931 0.1154 0.83163 0.0
N219 N 0.49603 0.04114 0.77566 0.0
C220 C 0.48821 0.02484 0.81163 0.0
C221 C 0.46516 0.04693 0.87576 0.0
C222 C 0.47321 0.06362 0.84064 0.0
C223 C 0.47278 0.0275 0.86134 0.0
C224 C 0.48893 0.06027 0.79096 0.0
H225 H 0.49586 0.12876 0.75011 0.0
N226 N 0.51289 0.073 0.71122 0.0
C227 C 0.51721 0.10924 0.69606 0.0
C228 C 0.49742 0.07666 0.75683 0.0
C229 C 0.52341 0.08909 0.68318 0.0
C230 C 0.50059 0.11311 0.73986 0.0
C231 C 0.4907 0.09679 0.77188 0.0
O232 O 0.54018 0.05862 0.76067 0.0
O233 O 0.5365 0.01961 0.61604 0.0
O234 O 0.53025 0.98762 0.64162 0.0
O235 O 0.52084 1.00799 0.7361 0.0
O236 O 0.54803 0.04831 0.62633 0.0
O237 O 0.54377 0.02623 0.76394 0.0
O238 O 0.48795 0.98344 0.54348 0.0
O239 O 0.49876 0.02507 0.63359 0.0
O240 O 0.5126 0.05752 0.6038 0.0
O241 O 0.50826 0.03348 0.51342 0.0
O242 O 0.48732 0.99624 0.63023 0.0
O243 O 0.49855 1.00441 0.46175 0.0
C244 C 0.55052 0.03116 0.5936 0.0
C245 C 0.57341 0.04579 0.77788 0.0
C246 C 0.60702 0.0325 0.80436 0.0
C247 C 0.58584 0.03162 0.81177 0.0
C248 C 0.61592 0.04769 0.76347 0.0
C249 C 0.58242 0.06111 0.73715 0.0
C250 C 0.60361 0.062 0.73012 0.0
C251 C 0.5272 0.99021 0.7095 0.0
C252 C 0.55117 0.04373 0.78361 0.0
C253 C 0.47476 0.10007 0.81979 0.0
C254 C 0.46603 0.08352 0.85412 0.0
C255 C 0.48421 0.01423 0.65593 0.0
C256 C 0.47013 0.98231 0.43343 0.0
C257 C 0.45445 0.99557 0.41539 0.0
C258 C 0.43664 0.98804 0.384 0.0
C259 C 0.43497 0.96703 0.36847 0.0
C260 C 0.46843 0.96133 0.41857 0.0
C261 C 0.45096 0.95377 0.38515 0.0
C262 C 0.50871 0.05265 0.53731 0.0
C263 C 0.48588 0.99001 0.48009 0.0
H264 H 0.57905 0.01974 0.84322 0.0
H265 H 0.63236 0.04853 0.7578 0.0
H266 H 0.57316 0.07226 0.71032 0.0
H267 H 0.61049 0.07375 0.69864 0.0
H268 H 0.45553 1.0116 0.43055 0.0
H269 H 0.42133 0.96092 0.34395 0.0
H270 H 0.4803 0.95082 0.43453 0.0
H271 H 0.44958 0.93756 0.37391 0.0
Tb272 Tb 0.53776 0.51278 0.55322 0.0
C273 C 0.44904 0.51759 0.64228 0.0
C274 C 0.43445 0.53802 0.55034 0.0
C275 C 0.41324 0.51354 0.61033 0.0
C276 C 0.45133 0.53238 0.59221 0.0
C277 C 0.42982 0.50833 0.65297 0.0
C278 C 0.41556 0.52834 0.55904 0.0
C279 C 0.44414 0.49058 0.75102 0.0
N280 N 0.46539 0.51276 0.68221 0.0
C281 C 0.46282 0.50006 0.73844 0.0
C282 C 0.42763 0.49446 0.70735 0.0
Tb283 Tb 0.49563 0.52962 0.65863 0.0
N284 N 0.46999 0.54114 0.5841 0.0
C285 C 0.47216 0.5564 0.53576 0.0
C286 C 0.43697 0.55322 0.50073 0.0
C287 C 0.45586 0.56253 0.49386 0.0
H288 H 0.47542 0.49707 0.77352 0.0
H289 H 0.45803 0.57427 0.45527 0.0
H290 H 0.40258 0.53236 0.52684 0.0
H291 H 0.44251 0.4803 0.79452 0.0
H292 H 0.4864 0.56369 0.52511 0.0
H293 H 0.57267 0.46631 0.75481 0.0
H294 H 0.42444 0.55788 0.46753 0.0
H295 H 0.5594 0.54362 0.43738 0.0
H296 H 0.54437 0.48138 0.69293 0.0
H297 H 0.5928 0.55941 0.41646 0.0
H298 H 0.39847 0.50644 0.61737 0.0
H299 H 0.60789 0.47789 0.73226 0.0
H300 H 0.6311 0.50295 0.67575 0.0
H301 H 0.41313 0.4871 0.7172 0.0
H302 H 0.63626 0.52965 0.58839 0.0
N303 N 0.56258 0.50088 0.62913 0.0
C304 C 0.55937 0.48627 0.67879 0.0
C305 C 0.59529 0.48474 0.70448 0.0
C306 C 0.59858 0.50035 0.6569 0.0
C307 C 0.57554 0.47795 0.71639 0.0
C308 C 0.58181 0.50792 0.61863 0.0
H309 H 0.62207 0.55103 0.49247 0.0
N310 N 0.56844 0.52891 0.53137 0.0
C311 C 0.59072 0.54948 0.46069 0.0
C312 C 0.58473 0.52282 0.56949 0.0
C313 C 0.57165 0.54087 0.47389 0.0
C314 C 0.60718 0.54465 0.50343 0.0
C315 C 0.60448 0.53067 0.55719 0.0
O316 O 0.54547 0.50899 0.44802 0.0
O317 O 0.5046 0.51464 0.56192 0.0
O318 O 0.49605 0.49586 0.66447 0.0
O319 O 0.52358 0.48492 0.59592 0.0
O320 O 0.51709 0.52158 0.46776 0.0
O321 O 0.54641 0.48336 0.51734 0.0
O322 O 0.48227 0.53551 0.75644 0.0
O323 O 0.5288 0.52745 0.65129 0.0
O324 O 0.53845 0.54642 0.54876 0.0
O325 O 0.50905 0.55679 0.60885 0.0
O326 O 0.51558 0.51924 0.7434 0.0
O327 O 0.49596 0.55981 0.69959 0.0
C328 C 0.50004 0.51924 0.49973 0.0
C329 C 0.53927 0.47706 0.3963 0.0
C330 C 0.52432 0.44543 0.35288 0.0
C331 C 0.53162 0.45745 0.4087 0.0
C332 C 0.52438 0.45319 0.28468 0.0
C333 C 0.53926 0.48462 0.32772 0.0
C334 C 0.53171 0.47277 0.27238 0.0
C335 C 0.50797 0.48123 0.6382 0.0
C336 C 0.54835 0.48946 0.45292 0.0
C337 C 0.62105 0.52371 0.59685 0.0
C338 C 0.61813 0.50846 0.64628 0.0
C339 C 0.53286 0.52241 0.71365 0.0
C340 C 0.50035 0.55992 0.82274 0.0
C341 C 0.50914 0.57934 0.82765 0.0
C342 C 0.52045 0.58516 0.88703 0.0
C343 C 0.52314 0.57119 0.94145 0.0
C344 C 0.50304 0.54614 0.878 0.0
C345 C 0.51449 0.55177 0.93671 0.0
C346 C 0.52526 0.5607 0.56939 0.0
C347 C 0.48864 0.55416 0.75959 0.0
H348 H 0.53162 0.45135 0.46118 0.0
H349 H 0.51853 0.44421 0.24103 0.0
H350 H 0.54525 0.49967 0.31678 0.0
H351 H 0.53166 0.47872 0.21982 0.0
H352 H 0.50728 0.58987 0.78482 0.0
H353 H 0.53156 0.5754 0.98826 0.0
H354 H 0.49644 0.53098 0.87589 0.0
H355 H 0.51654 0.5411 0.97889 0.0
Tb356 Tb 0.02595 0.53848 0.5511 0.0
C357 C 0.01436 0.46029 0.70609 0.0
C358 C 0.98914 0.44203 0.63767 0.0
C359 C 0.01339 0.42306 0.70729 0.0
C360 C 0.99861 0.46057 0.65874 0.0
C361 C 0.02157 0.44155 0.73264 0.0
C362 C 0.99713 0.42331 0.65997 0.0
C363 C 0.04169 0.46066 0.81628 0.0
N364 N 0.02098 0.47844 0.73221 0.0
C365 C 0.03372 0.47873 0.78943 0.0
C366 C 0.03584 0.44195 0.78701 0.0
Tb367 Tb 1.00707 0.50783 0.68595 0.0
N368 N 0.991 0.47902 0.64003 0.0
C369 C 0.97256 0.47969 0.60593 0.0
C370 C 0.97109 0.44287 0.5991 0.0
C371 C 0.96248 0.4618 0.58496 0.0
H372 H 0.03796 0.49307 0.81432 0.0
H373 H 0.94814 0.46268 0.55727 0.0
H374 H 0.99019 0.40898 0.64364 0.0
H375 H 0.05208 0.46119 0.86032 0.0
H376 H 0.96493 0.4937 0.5948 0.0
H377 H 0.08548 0.57568 0.70558 0.0
H378 H 0.96324 0.42903 0.58267 0.0
H379 H 0.98982 0.56109 0.44988 0.0
H380 H 0.06995 0.54775 0.64125 0.0
H381 H 0.97208 0.59379 0.44579 0.0
H382 H 0.01882 0.40855 0.7267 0.0
H383 H 0.06903 0.60952 0.70882 0.0
H384 H 0.04006 0.632 0.67402 0.0
H385 H 0.04167 0.42791 0.80891 0.0
H386 H 1.00848 0.63662 0.60703 0.0
N387 N 0.0429 0.56415 0.6124 0.0
C388 C 0.06152 0.56173 0.64438 0.0
C389 C 0.06151 0.59696 0.68237 0.0
C390 C 0.04302 0.59979 0.64767 0.0
C391 C 0.07085 0.57789 0.68042 0.0
C392 C 0.0341 0.58297 0.6119 0.0
H393 H 0.98292 0.62248 0.52249 0.0
N394 N 1.00877 0.56928 0.53776 0.0
C395 C 0.98415 0.5916 0.48363 0.0
C396 C 0.01633 0.58554 0.57433 0.0
C397 C 0.99402 0.57272 0.48792 0.0
C398 C 0.99038 0.60775 0.52664 0.0
C399 C 1.00713 0.60509 0.57076 0.0
O400 O 0.02719 0.5459 0.44439 0.0
O401 O 0.02139 0.50692 0.583 0.0
O402 O 0.04063 0.50627 0.69447 0.0
O403 O 0.05244 0.52063 0.59155 0.0
O404 O 0.01598 0.51343 0.48158 0.0
O405 O 0.05445 0.5441 0.5064 0.0
O406 O 1.0023 0.5081 0.79476 0.0
O407 O 0.01202 0.53947 0.65521 0.0
O408 O 0.99358 0.53449 0.52658 0.0
O409 O 0.98112 0.52289 0.63194 0.0
O410 O 0.02305 0.53 0.75078 0.0
O411 O 0.9773 0.51252 0.72344 0.0
C412 C 0.01591 0.49858 0.52508 0.0
C413 C 0.05724 0.53498 0.387 0.0
C414 C 0.08648 0.51587 0.3443 0.0
C415 C 0.07598 0.52532 0.39925 0.0
C416 C 0.0783 0.51572 0.27653 0.0
C417 C 0.04904 0.53483 0.31898 0.0
C418 C 0.05952 0.52511 0.26408 0.0
C419 C 0.05568 0.51117 0.65184 0.0
C420 C 0.04699 0.54629 0.44392 0.0
C421 C 0.01545 0.6216 0.60869 0.0
C422 C 0.03344 0.61898 0.64678 0.0
C423 C 0.02011 0.54573 0.71262 0.0
C424 C 0.96923 0.49928 0.83352 0.0
C425 C 0.95028 0.50804 0.84795 0.0
C426 C 0.93716 0.49928 0.89641 0.0
C427 C 0.94295 0.48136 0.93054 0.0
C428 C 0.97498 0.48109 0.86636 0.0
C429 C 0.96177 0.47215 0.91471 0.0
C430 C 0.97827 0.53021 0.56835 0.0
C431 C 0.98282 0.5108 0.78834 0.0
H432 H 0.08278 0.52552 0.45104 0.0
H433 H 0.08653 0.50854 0.23347 0.0
H434 H 0.0347 0.54243 0.30818 0.0
H435 H 0.05323 0.52512 0.2117 0.0
H436 H 0.94596 0.52224 0.82309 0.0
H437 H 0.93298 0.47455 0.96887 0.0
H438 H 0.98967 0.47407 0.85569 0.0
H439 H 0.96624 0.45825 0.94069 0.0
H440 H 0.18767 0.08898 0.07572 0.0
H441 H 0.16063 0.08435 0.16221 0.0
H442 H 0.18008 0.02203 0.19059 0.0
H443 H 0.20738 0.02676 0.10373 0.0
H444 H 0.12818 0.06232 0.16559 0.0
H445 H 0.1671 1.00592 0.35496 0.0
H446 H 0.20152 0.9982 0.40013 0.0
H447 H 0.22046 0.05972 0.35947 0.0
H448 H 0.1861 0.06785 0.31495 0.0
H449 H 0.05019 0.02369 0.38563 0.0
H450 H 0.07857 0.02786 0.30531 0.0
H451 H 0.11447 0.0548 0.47171 0.0
H452 H 0.0862 0.04974 0.55333 0.0
H453 H 0.13914 0.03327 0.40079 0.0
H454 H 0.08972 0.08219 0.32922 0.0
H455 H 0.05527 0.0932 0.29491 0.0
H456 H 0.05849 0.05521 0.10992 0.0
H457 H 0.09279 0.04336 0.14444 0.0
C458 C 0.1865 0.07437 0.10134 0.0
C459 C 0.20022 0.05846 0.08363 0.0
C460 C 0.17078 0.07165 0.1506 0.0
C461 C 0.16806 0.05285 0.18427 0.0
C462 C 0.18181 0.03685 0.16688 0.0
C463 C 0.19756 0.03957 0.11708 0.0
C464 C 0.15063 0.05008 0.23587 0.0
C465 C 0.13067 0.05587 0.21684 0.0
C466 C 0.15349 0.04214 0.30398 0.0
C467 C 0.17413 0.03739 0.33084 0.0
C468 C 0.17862 0.01779 0.35581 0.0
C469 C 0.19811 0.01335 0.38129 0.0
C470 C 0.21319 0.02843 0.3824 0.0
C471 C 0.2088 0.04802 0.35829 0.0
C472 C 0.18933 0.05254 0.33283 0.0
C473 C 0.06412 0.03023 0.40602 0.0
C474 C 0.06583 0.03561 0.47764 0.0
C475 C 0.08048 0.03292 0.35912 0.0
C476 C 0.09903 0.04186 0.38111 0.0
C477 C 0.10063 0.04765 0.45241 0.0
C478 C 0.08434 0.04464 0.49963 0.0
C479 C 0.11659 0.04521 0.33022 0.0
C480 C 0.13659 0.03957 0.34936 0.0
C481 C 0.11385 0.05385 0.26287 0.0
C482 C 0.09371 0.06168 0.23995 0.0
C483 C 0.08306 0.07612 0.28134 0.0
C484 C 0.06355 0.0825 0.2619 0.0
C485 C 0.05464 0.07486 0.2005 0.0
C486 C 0.06537 0.06102 0.15775 0.0
C487 C 0.08485 0.05443 0.17729 0.0
H488 H 0.03938 0.0796 0.18636 0.0
H489 H 0.22827 0.02496 0.40212 0.0
H490 H 0.48873 0.22524 0.24424 0.0
H491 H 0.49515 0.19368 0.30264 0.0
H492 H 0.48798 0.16037 0.10744 0.0
H493 H 0.47853 0.19269 0.04965 0.0
H494 H 0.47351 0.13783 0.19676 0.0
H495 H 0.53843 0.1702 0.20918 0.0
H496 H 0.56257 0.19858 0.22943 0.0
H497 H 0.54449 0.20237 0.44534 0.0
H498 H 0.52009 0.17418 0.42623 0.0
H499 H 0.50826 0.05037 0.39269 0.0
H500 H 0.5055 0.07829 0.30961 0.0
H501 H 0.49791 0.12131 0.48096 0.0
H502 H 0.50088 0.09351 0.5641 0.0
H503 H 0.52419 0.13606 0.38939 0.0
H504 H 0.45807 0.10301 0.36805 0.0
H505 H 0.43648 0.07313 0.34375 0.0
H506 H 0.46052 0.06864 0.13464 0.0
H507 H 0.48284 0.09826 0.15885 0.0
C508 C 0.48919 0.21134 0.21259 0.0
C509 C 0.48407 0.21186 0.1411 0.0
C510 C 0.49306 0.19303 0.2465 0.0
C511 C 0.49331 0.17425 0.20987 0.0
C512 C 0.48842 0.17453 0.13753 0.0
C513 C 0.48341 0.1931 0.1038 0.0
C514 C 0.49739 0.1547 0.2494 0.0
C515 C 0.48495 0.13743 0.23772 0.0
C516 C 0.51221 0.15364 0.3039 0.0
C517 C 0.52742 0.1701 0.31616 0.0
C518 C 0.53962 0.17708 0.26096 0.0
C519 C 0.55332 0.19316 0.27224 0.0
C520 C 0.55505 0.20228 0.33862 0.0
C521 C 0.54316 0.19527 0.39398 0.0
C522 C 0.52944 0.17921 0.38301 0.0
C523 C 0.50599 0.06575 0.41305 0.0
C524 C 0.50528 0.06956 0.48598 0.0
C525 C 0.5043 0.0818 0.36504 0.0
C526 C 0.50142 0.10214 0.38831 0.0
C527 C 0.50029 0.10589 0.46102 0.0
C528 C 0.5021 0.08988 0.50894 0.0
C529 C 0.49997 0.11965 0.33789 0.0
C530 C 0.51297 0.13648 0.34767 0.0
C531 C 0.48613 0.12001 0.28067 0.0
C532 C 0.47224 0.1027 0.2655 0.0
C533 C 0.45882 0.09559 0.31701 0.0
C534 C 0.44645 0.07866 0.30317 0.0
C535 C 0.44707 0.06892 0.23747 0.0
C536 C 0.46007 0.07617 0.1855 0.0
C537 C 0.47261 0.093 0.19932 0.0
H538 H 0.43753 0.05578 0.2266 0.0
H539 H 0.56561 0.21477 0.34716 0.0
H540 H 0.32243 0.48991 0.17796 0.0
H541 H 0.34977 0.49482 0.26478 0.0
H542 H 0.39386 0.49869 0.09807 0.0
H543 H 0.36669 0.49357 0.01184 0.0
H544 H 0.40856 0.47454 0.19521 0.0
H545 H 0.37599 0.54152 0.20273 0.0
H546 H 0.3466 0.56467 0.22034 0.0
H547 H 0.33956 0.54347 0.4306 0.0
H548 H 0.36875 0.52 0.4139 0.0
H549 H 0.48802 0.53549 0.37654 0.0
H550 H 0.45711 0.52871 0.30777 0.0
H551 H 0.43697 0.48589 0.46203 0.0
H552 H 0.46841 0.49223 0.53041 0.0
H553 H 0.40884 0.52799 0.38228 0.0
H554 H 0.43292 0.45682 0.37104 0.0
H555 H 0.45864 0.42965 0.35739 0.0
H556 H 0.47967 0.45642 0.16665 0.0
H557 H 0.45353 0.4836 0.17858 0.0
C558 C 0.33786 0.49228 0.15973 0.0
C559 C 0.34212 0.49182 0.0873 0.0
C560 C 0.35362 0.49504 0.20968 0.0
C561 C 0.37417 0.49736 0.18882 0.0
C562 C 0.37832 0.49701 0.11645 0.0
C563 C 0.36263 0.49429 0.06678 0.0
C564 C 0.3915 0.49957 0.24126 0.0
C565 C 0.40849 0.48638 0.23563 0.0
C566 C 0.39161 0.51445 0.29644 0.0
C567 C 0.3744 0.52888 0.30682 0.0
C568 C 0.3681 0.54173 0.25258 0.0
C569 C 0.35149 0.55491 0.26241 0.0
C570 C 0.34118 0.5555 0.32648 0.0
C571 C 0.34754 0.54298 0.38097 0.0
C572 C 0.36412 0.52975 0.37137 0.0
C573 C 0.47703 0.52462 0.39605 0.0
C574 C 0.48053 0.51489 0.46026 0.0
C575 C 0.45928 0.52078 0.35658 0.0
C576 C 0.44447 0.50688 0.37941 0.0
C577 C 0.44803 0.49674 0.44295 0.0
C578 C 0.46598 0.50049 0.48242 0.0
C579 C 0.42565 0.50303 0.33552 0.0
C580 C 0.40865 0.51609 0.34209 0.0
C581 C 0.42519 0.48774 0.28236 0.0
C582 C 0.44158 0.47233 0.2763 0.0
C583 C 0.44323 0.45705 0.32672 0.0
C584 C 0.45781 0.44159 0.31909 0.0
C585 C 0.47097 0.44137 0.26152 0.0
C586 C 0.46951 0.45664 0.21133 0.0
C587 C 0.45475 0.47203 0.21832 0.0
H588 H 0.48218 0.4293 0.25551 0.0
H589 H 0.3283 0.56569 0.33395 0.0
H590 H 0.01667 0.32764 0.15426 0.0
H591 H 0.01349 0.35516 0.2428 0.0
H592 H 0.06902 0.38232 0.16703 0.0
H593 H 0.07252 0.35453 0.08074 0.0
H594 H 0.06894 0.38795 0.29991 0.0
H595 H 0.01749 0.40025 0.125 0.0
H596 H 0.98771 0.39113 0.05194 0.0
H597 H 0.95194 0.38133 0.23679 0.0
H598 H 0.98157 0.39023 0.31087 0.0
H599 H 0.0531 0.48657 0.47213 0.0
H600 H 0.06026 0.45723 0.39492 0.0
H601 H 0.99954 0.43437 0.43272 0.0
H602 H 0.9916 0.46586 0.49443 0.0
H603 H 1.00372 0.42598 0.31646 0.0
H604 H 0.05648 0.41658 0.49416 0.0
H605 H 0.08746 0.42523 0.56183 0.0
H606 H 0.12222 0.42773 0.3716 0.0
H607 H 0.09127 0.4206 0.30267 0.0
C608 C 0.02841 0.33924 0.15741 0.0
C609 C 0.04509 0.33847 0.11079 0.0
C610 C 0.02647 0.35526 0.20773 0.0
C611 C 0.04082 0.37139 0.21188 0.0
C612 C 0.05765 0.37031 0.16609 0.0
C613 C 0.05967 0.35427 0.11642 0.0
C614 C 0.03815 0.38962 0.2618 0.0
C615 C 0.05465 0.39631 0.30348 0.0
C616 C 0.01962 0.40075 0.2678 0.0
C617 C 1.00176 0.39574 0.22335 0.0
C618 C 1.00328 0.39608 0.14997 0.0
C619 C 0.98644 0.39095 0.10842 0.0
C620 C 0.96796 0.3856 0.1397 0.0
C621 C 0.96626 0.38546 0.21262 0.0
C622 C 0.98306 0.39057 0.25441 0.0
C623 C 0.04152 0.47487 0.46584 0.0
C624 C 0.02211 0.47781 0.49665 0.0
C625 C 0.04567 0.4578 0.42132 0.0
C626 C 0.03088 0.44239 0.40858 0.0
C627 C 0.01167 0.44536 0.4408 0.0
C628 C 1.00721 0.4631 0.48056 0.0
C629 C 0.0343 0.42413 0.3584 0.0
C630 C 0.01797 0.41754 0.31518 0.0
C631 C 0.05308 0.41314 0.3513 0.0
C632 C 0.07146 0.41829 0.3932 0.0
C633 C 0.07066 0.41936 0.46673 0.0
C634 C 0.0882 0.42414 0.5053 0.0
C635 C 0.10676 0.42728 0.47102 0.0
C636 C 0.10779 0.42568 0.39811 0.0
C637 C 0.09022 0.42146 0.35925 0.0
H638 H 0.12036 0.43083 0.50096 0.0
H639 H 0.95494 0.38161 0.10745 0.0
H640 H 0.84561 0.9841 0.2033 0.0
H641 H 0.8758 0.97921 0.12796 0.0
H642 H 0.84896 0.01889 0.97476 0.0
H643 H 0.81871 0.02278 0.04778 0.0
H644 H 0.867 0.99245 0.90515 0.0
H645 H 0.89047 0.0313 0.11024 0.0
H646 H 0.89766 0.03664 0.23602 0.0
H647 H 0.93583 0.98317 0.2354 0.0
H648 H 0.92865 0.97738 0.10976 0.0
H649 H 0.95054 0.03158 0.71864 0.0
H650 H 0.9224 0.02641 0.79921 0.0
H651 H 0.95696 0.9798 0.90372 0.0
H652 H 0.98547 0.9849 0.82145 0.0
H653 H 0.93666 1.00329 0.99949 0.0
H654 H 0.91848 0.96916 0.78859 0.0
H655 H 0.91178 0.96398 0.66296 0.0
H656 H 0.86403 1.00899 0.67238 0.0
H657 H 0.87061 0.01468 0.79819 0.0
C658 C 0.84597 0.99135 0.15276 0.0
C659 C 0.82934 1.00349 0.13134 0.0
C660 C 0.86351 0.98886 0.10982 0.0
C661 C 0.86528 0.99897 0.04506 0.0
C662 C 0.84841 1.01074 0.02365 0.0
C663 C 0.83091 0.01296 0.06579 0.0
C664 C 0.88438 0.99786 0.99927 0.0
C665 C 0.88215 0.99513 0.92622 0.0
C666 C 0.90462 1.00033 0.02546 0.0
C667 C 0.90881 1.00377 0.10092 0.0
C668 C 0.90027 0.0206 0.13709 0.0
C669 C 0.90436 0.02372 0.20831 0.0
C670 C 0.91713 1.01021 0.24373 0.0
C671 C 0.92589 0.99358 0.20795 0.0
C672 C 0.92181 0.99038 0.13676 0.0
C673 C 0.95214 0.01983 0.7573 0.0
C674 C 0.97023 1.00818 0.76111 0.0
C675 C 0.93593 0.01701 0.80436 0.0
C676 C 0.93707 1.00237 0.85745 0.0
C677 C 0.95541 0.99112 0.86327 0.0
C678 C 0.97176 0.994 0.81584 0.0
C679 C 0.91899 0.99897 0.9056 0.0
C680 C 0.92148 1.00064 0.97871 0.0
C681 C 0.89894 0.99561 0.87946 0.0
C682 C 0.89502 0.99229 0.80337 0.0
C683 C 0.90655 0.97798 0.76416 0.0
C684 C 0.90279 0.97497 0.69274 0.0
C685 C 0.88742 0.98608 0.6598 0.0
C686 C 0.87588 1.00033 0.69809 0.0
C687 C 0.87961 1.00344 0.76952 0.0
H688 H 0.88442 0.98364 0.60461 0.0
H689 H 0.92029 0.01265 0.29885 0.0
H690 H 0.52255 0.85819 0.19901 0.0
H691 H 0.52396 0.88666 0.11773 0.0
H692 H 0.56455 0.852 0.98352 0.0
H693 H 0.56301 0.82334 0.06475 0.0
H694 H 0.57453 0.89266 0.97909 0.0
H695 H 0.51675 0.85302 0.94109 0.0
H696 H 0.48588 0.83298 0.9661 0.0
H697 H 0.45566 0.88718 0.04287 0.0
H698 H 0.48656 0.90752 0.01949 0.0
H699 H 0.54743 0.95395 0.68228 0.0
H700 H 0.55097 0.92446 0.75874 0.0
H701 H 0.51947 0.95739 0.92347 0.0
H702 H 0.51562 0.98675 0.8473 0.0
H703 H 0.50589 0.91536 0.90159 0.0
H704 H 0.57001 0.95373 0.93096 0.0
H705 H 0.5988 0.97031 0.87127 0.0
H706 H 0.61558 0.91291 0.77507 0.0
H707 H 0.58678 0.89601 0.834 0.0
C708 C 0.53217 0.85676 0.15307 0.0
C709 C 0.54273 0.8384 0.13889 0.0
C710 C 0.53289 0.87306 0.10625 0.0
C711 C 0.54415 0.87152 0.0436 0.0
C712 C 0.55575 0.8537 0.03127 0.0
C713 C 0.55491 0.83727 0.07807 0.0
C714 C 0.54211 0.88773 0.989 0.0
C715 C 0.55952 0.89757 0.96238 0.0
C716 C 0.52263 0.89382 0.96423 0.0
C717 C 0.50406 0.88175 0.97948 0.0
C718 C 0.50361 0.86064 0.96412 0.0
C719 C 0.4861 0.84923 0.97784 0.0
C720 C 0.46884 0.85879 1.00631 0.0
C721 C 0.46907 0.87979 0.02102 0.0
C722 C 0.48658 0.89128 0.00756 0.0
C723 C 0.54094 0.95486 0.73433 0.0
C724 C 0.53067 0.97266 0.75747 0.0
C725 C 0.54313 0.93798 0.7783 0.0
C726 C 0.53534 0.93858 0.84693 0.0
C727 C 0.52538 0.95641 0.87055 0.0
C728 C 0.52323 0.97328 0.8267 0.0
C729 C 0.53813 0.92096 0.89514 0.0
C730 C 0.52086 0.91069 0.91973 0.0
C731 C 0.5577 0.914 0.91548 0.0
C732 C 0.57629 0.92361 0.88687 0.0
C733 C 0.57992 0.94464 0.89736 0.0
C734 C 0.59617 0.95411 0.86336 0.0
C735 C 0.60892 0.94269 0.81896 0.0
C736 C 0.60562 0.92173 0.80923 0.0
C737 C 0.58942 0.91217 0.84325 0.0
H738 H 0.6214 0.95 0.79223 0.0
H739 H 0.45527 0.84993 0.01676 0.0
H740 H 0.71427 0.55503 0.98558 0.0
H741 H 0.6819 0.55576 0.9216 0.0
H742 H 0.64997 0.53863 0.10912 0.0
H743 H 0.68255 0.53733 0.17251 0.0
H744 H 0.63703 0.5157 0.01114 0.0
H745 H 0.64558 0.58834 0.02129 0.0
H746 H 0.66275 0.62148 1.00547 0.0
H747 H 0.66688 0.60974 0.78413 0.0
H748 H 0.64996 0.57642 0.7987 0.0
H749 H 0.54022 0.51259 0.84913 0.0
H750 H 0.56933 0.52058 0.92271 0.0
H751 H 0.59866 0.55007 0.74903 0.0
H752 H 0.56746 0.54532 0.6796 0.0
H753 H 0.61292 0.56784 0.84485 0.0
H754 H 0.61248 0.49278 0.83954 0.0
H755 H 0.59722 0.45841 0.85327 0.0
H756 H 0.58013 0.47416 0.06438 0.0
H757 H 0.59525 0.50848 0.05106 0.0
C758 C 0.70029 0.55188 0.01372 0.0
C759 C 0.70113 0.54615 0.0846 0.0
C760 C 0.68162 0.55236 0.97687 0.0
C761 C 0.66305 0.54734 0.00977 0.0
C762 C 0.66384 0.54254 0.0816 0.0
C763 C 0.68253 0.54197 0.11834 0.0
C764 C 0.64326 0.54526 0.96853 0.0
C765 C 0.63168 0.52735 0.97566 0.0
C766 C 0.63618 0.55993 0.91992 0.0
C767 C 0.64667 0.57979 0.91123 0.0
C768 C 0.65032 0.59274 0.96934 0.0
C769 C 0.65997 0.61158 0.96056 0.0
C770 C 0.66594 0.61769 0.89387 0.0
C771 C 0.66227 0.60498 0.83578 0.0
C772 C 0.65264 0.58613 0.84426 0.0
C773 C 0.55287 0.52078 0.82631 0.0
C774 C 0.5518 0.5272 0.75637 0.0
C775 C 0.57002 0.52497 0.86851 0.0
C776 C 0.58748 0.53478 0.84171 0.0
C777 C 0.586 0.54203 0.77232 0.0
C778 C 0.56821 0.53889 0.73136 0.0
C779 C 0.60676 0.53795 0.88611 0.0
C780 C 0.61824 0.55612 0.87997 0.0
C781 C 0.61397 0.52343 0.93542 0.0
C782 C 0.60448 0.50315 0.94342 0.0
C783 C 0.6051 0.48886 0.88806 0.0
C784 C 0.59661 0.46945 0.896 0.0
C785 C 0.58756 0.46418 0.95945 0.0
C786 C 0.58706 0.47829 0.01515 0.0
C787 C 0.59564 0.49768 0.00746 0.0
H788 H 0.58114 0.4491 0.96569 0.0
H789 H 0.67338 0.6323 0.88718 0.0
H790 H 0.97741 0.72282 0.02067 0.0
H791 H 0.97721 0.69084 0.95122 0.0
H792 H 0.01618 0.66278 0.10432 0.0
H793 H 0.01654 0.69476 0.17295 0.0
H794 H 0.03224 0.65738 0.98229 0.0
H795 H 0.96485 0.64805 0.06999 0.0
H796 H 0.92869 0.65581 0.09428 0.0
H797 H 0.91659 0.65899 0.87383 0.0
H798 H 0.9528 0.65175 0.84817 0.0
H799 H 0.04117 0.55965 0.82445 0.0
H800 H 0.03498 0.58936 0.89835 0.0
H801 H 0.98694 0.60867 0.75961 0.0
H802 H 0.99136 0.57687 0.69066 0.0
H803 H 0.97486 0.61943 0.8731 0.0
H804 H 0.04454 0.64166 0.79536 0.0
H805 H 0.0817 0.63827 0.77537 0.0
H806 H 0.08885 0.61163 0.9779 0.0
H807 H 0.05192 0.61584 1.00012 0.0
C808 C 0.98551 0.70965 0.04035 0.0
C809 C 0.99713 0.71147 0.1023 0.0
C810 C 0.98539 0.69127 1.00048 0.0
C811 C 0.99678 0.67412 0.02168 0.0
C812 C 1.00735 0.67564 0.0859 0.0
C813 C 1.00745 0.69396 0.12563 0.0
C814 C 0.99958 0.65549 0.97439 0.0
C815 C 0.01956 0.64898 0.95939 0.0
C816 C 0.98328 0.64462 0.94181 0.0
C817 C 0.96164 0.64966 0.9572 0.0
C818 C 0.95457 0.65074 0.02669 0.0
C819 C 0.93404 0.65501 0.0407 0.0
C820 C 0.92037 0.65799 0.98565 0.0
C821 C 0.92721 0.65676 0.91644 0.0
C822 C 0.94775 0.65262 0.90214 0.0
C823 C 0.02942 0.57034 0.80889 0.0
C824 C 0.01737 0.56611 0.74946 0.0
C825 C 0.02614 0.58783 0.85092 0.0
C826 C 1.01118 0.60246 0.83399 0.0
C827 C 0.99889 0.59815 0.7745 0.0
C828 C 1.00165 0.58004 0.7338 0.0
C829 C 1.00763 0.6213 0.88065 0.0
C830 C 0.98752 0.62788 0.89569 0.0
C831 C 0.02378 0.63243 0.91337 0.0
C832 C 0.04551 0.62843 0.89823 0.0
C833 C 0.05404 0.63477 0.83491 0.0
C834 C 0.07507 0.63297 0.82368 0.0
C835 C 0.08756 0.62437 0.87474 0.0
C836 C 0.07914 0.61806 0.93801 0.0
C837 C 0.05823 0.62036 0.95027 0.0
H838 H 0.1038 0.62281 0.86558 0.0
H839 H 0.90445 0.66114 0.99661 0.0
H840 H 0.06558 0.26235 0.21673 0.0
H841 H 0.07115 0.23484 0.29745 0.0
H842 H 0.1054 0.20158 0.14034 0.0
H843 H 0.10138 0.22996 0.06011 0.0
H844 H 0.05981 0.19335 0.16671 0.0
H845 H 0.12477 0.19521 0.27488 0.0
H846 H 0.15375 0.21023 0.33965 0.0
H847 H 0.11534 0.22057 0.51898 0.0
H848 H 0.08602 0.20594 0.45485 0.0
H849 H 0.01912 0.10759 0.32867 0.0
H850 H 0.04389 0.12968 0.27326 0.0
H851 H 0.04035 0.17179 0.44919 0.0
H852 H 0.01677 0.1488 0.50803 0.0
H853 H 0.0777 0.17035 0.40503 0.0
H854 H 0.0122 0.17614 0.29667 0.0
H855 H 0.98104 0.16589 0.2331 0.0
H856 H 0.01707 0.14789 0.05482 0.0
H857 H 0.04854 0.15691 0.11856 0.0
C858 C 0.07563 0.25001 0.20044 0.0
C859 C 0.08212 0.24787 0.13046 0.0
C860 C 0.07883 0.23419 0.24719 0.0
C861 C 0.08818 0.21603 0.22396 0.0
C862 C 0.09802 0.21549 0.15888 0.0
C863 C 0.09541 0.23162 0.11277 0.0
C864 C 0.08055 0.19688 0.25341 0.0
C865 C 0.06414 0.18775 0.21787 0.0
C866 C 0.0857 0.19051 0.32123 0.0
C867 C 0.10316 0.19958 0.35985 0.0
C868 C 0.12244 0.20089 0.32787 0.0
C869 C 0.13895 0.20929 0.36453 0.0
C870 C 0.13638 0.21638 0.43336 0.0
C871 C 0.1173 0.21507 0.46566 0.0
C872 C 0.10074 0.2067 0.4292 0.0
C873 C 0.02394 0.1213 0.35651 0.0
C874 C 0.01593 0.12647 0.42281 0.0
C875 C 0.03798 0.134 0.32437 0.0
C876 C 0.04373 0.15248 0.35664 0.0
C877 C 0.03609 0.15756 0.42338 0.0
C878 C 0.02235 0.1446 0.4564 0.0
C879 C 0.05662 0.16714 0.31889 0.0
C880 C 0.07378 0.17545 0.35297 0.0
C881 C 0.05173 0.17337 0.2502 0.0
C882 C 0.03281 0.16686 0.21306 0.0
C883 C 0.01354 0.16954 0.24452 0.0
C884 C 0.9958 0.1639 0.20844 0.0
C885 C 0.99709 0.15596 0.14025 0.0
C886 C 0.01612 0.15363 0.10807 0.0
C887 C 0.03392 0.15892 0.14429 0.0
H888 H 0.98334 0.15178 0.11213 0.0
H889 H 0.14919 0.22286 0.46169 0.0
H890 H 0.30769 0.10516 0.11804 0.0
H891 H 0.3341 0.10181 0.20729 0.0
H892 H 0.3006 0.05243 0.29999 0.0
H893 H 0.27456 0.05528 0.2108 0.0
H894 H 0.32872 0.06938 0.39356 0.0
H895 H 0.32539 0.0391 0.1618 0.0
H896 H 0.32576 0.03339 0.03389 0.0
H897 H 0.37757 0.07305 0.01576 0.0
H898 H 0.37745 0.07905 0.14371 0.0
H899 H 0.39621 0.98278 0.41434 0.0
H900 H 0.36849 1.0075 0.39662 0.0
H901 H 0.41147 0.05025 0.31219 0.0
H902 H 0.43911 0.02565 0.32725 0.0
H903 H 0.38121 0.04302 0.22789 0.0
H904 H 0.38952 0.05714 0.47178 0.0
H905 H 0.39237 0.04507 0.59236 0.0
H906 H 0.3297 0.02599 0.58806 0.0
H907 H 0.32681 0.03675 0.46537 0.0
C908 C 0.30546 0.09429 0.15957 0.0
C909 C 0.28956 0.0799 0.15573 0.0
C910 C 0.32048 0.09251 0.21082 0.0
C911 C 0.31951 0.07643 0.25844 0.0
C912 C 0.30165 0.06482 0.26314 0.0
C913 C 0.28671 0.06649 0.21172 0.0
C914 C 0.3385 0.06761 0.28591 0.0
C915 C 0.34043 0.06387 0.35782 0.0
C916 C 0.35351 0.06008 0.2389 0.0
C917 C 0.35111 0.0599 0.16192 0.0
C918 C 0.33644 0.04712 0.13028 0.0
C919 C 0.33677 0.04362 0.05798 0.0
C920 C 0.35175 0.05279 0.01711 0.0
C921 C 0.36598 0.06602 0.04775 0.0
C922 C 0.36575 0.06951 0.12005 0.0
C923 C 0.39967 0.99744 0.39158 0.0
C924 C 0.4197 1.0023 0.37151 0.0
C925 C 0.38397 1.01164 0.38295 0.0
C926 C 0.38825 0.03084 0.35477 0.0
C927 C 0.40822 0.03568 0.3355 0.0
C928 C 0.42383 0.02156 0.34354 0.0
C929 C 0.37173 0.04491 0.33549 0.0
C930 C 0.37015 0.04942 0.26462 0.0
C931 C 0.35692 0.05237 0.38336 0.0
C932 C 0.35802 0.04758 0.45894 0.0
C933 C 0.37634 0.0503 0.49633 0.0
C934 C 0.37798 0.04361 0.56513 0.0
C935 C 0.36121 0.03474 0.59801 0.0
C936 C 0.3427 0.03276 0.56235 0.0
C937 C 0.34108 0.03907 0.493 0.0
H938 H 0.36254 0.02933 0.65103 0.0
H939 H 0.35264 0.04931 0.962 0.0
H940 H 0.41612 0.31319 0.10599 0.0
H941 H 0.42016 0.33737 0.20461 0.0
H942 H 0.47368 0.30414 0.27119 0.0
H943 H 0.4682 0.27917 0.17945 0.0
H944 H 0.46494 0.3237 0.3721 0.0
H945 H 0.47317 0.34328 0.13251 0.0
H946 H 0.46334 0.34971 0.01002 0.0
H947 H 0.41816 0.39306 0.08039 0.0
H948 H 0.42775 0.38685 0.20333 0.0
H949 H 0.53453 0.41004 0.28601 0.0
H950 H 0.51485 0.37833 0.2855 0.0
H951 H 0.47492 0.40357 0.44434 0.0
H952 H 0.49493 0.4352 0.44647 0.0
H953 H 0.46857 0.39135 0.25945 0.0
H954 H 0.48081 0.37189 0.50821 0.0
H955 H 0.50674 0.36465 0.59818 0.0
H956 H 0.53151 0.31638 0.46931 0.0
H957 H 0.50656 0.3241 0.37672 0.0
C958 C 0.42792 0.31052 0.1445 0.0
C959 C 0.44188 0.29445 0.13514 0.0
C960 C 0.43045 0.32445 0.20022 0.0
C961 C 0.44783 0.32322 0.24352 0.0
C962 C 0.46021 0.30572 0.23885 0.0
C963 C 0.45707 0.29134 0.18578 0.0
C964 C 0.45567 0.34139 0.28271 0.0
C965 C 0.46544 0.33855 0.34767 0.0
C966 C 0.45694 0.36079 0.25063 0.0
C967 C 0.45086 0.36431 0.177 0.0
C968 C 0.46103 0.35406 0.12179 0.0
C969 C 0.45554 0.35769 0.05234 0.0
C970 C 0.44002 0.37166 0.03748 0.0
C971 C 0.43008 0.38214 0.09202 0.0
C972 C 0.43554 0.37859 0.16157 0.0
C973 C 0.52202 0.40848 0.32266 0.0
C974 C 0.51591 0.42501 0.36533 0.0
C975 C 0.51095 0.39037 0.32283 0.0
C976 C 0.49356 0.38873 0.36508 0.0
C977 C 0.48856 0.4045 0.41248 0.0
C978 C 0.49988 0.42255 0.41325 0.0
C979 C 0.47835 0.37318 0.34608 0.0
C980 C 0.46719 0.37669 0.28501 0.0
C981 C 0.47768 0.35392 0.37783 0.0
C982 C 0.49185 0.34866 0.43537 0.0
C983 C 0.49191 0.3599 0.49867 0.0
C984 C 0.50645 0.35572 0.55012 0.0
C985 C 0.52063 0.33999 0.53974 0.0
C986 C 0.52045 0.32851 0.47749 0.0
C987 C 0.50618 0.33284 0.42537 0.0
H988 H 0.53177 0.33672 0.5799 0.0
H989 H 0.43578 0.37444 0.9837 0.0
H990 H 0.25521 0.49925 0.19196 0.0
H991 H 0.22926 0.49686 0.28086 0.0
H992 H 0.21737 0.4342 0.2177 0.0
H993 H 0.24228 0.43757 0.12262 0.0
H994 H 0.18504 0.45226 0.21283 0.0
H995 H 0.23264 0.45145 0.39848 0.0
H996 H 0.26392 0.46097 0.46278 0.0
H997 H 0.242 0.5226 0.4867 0.0
H998 H 0.21074 0.51358 0.4218 0.0
H999 H 0.09501 0.478 0.3916 0.0
H1000 H 0.12912 0.4623 0.39941 0.0
H1001 H 0.15657 0.51887 0.33633 0.0
H1002 H 0.12267 0.53468 0.32898 0.0
H1003 H 0.18041 0.4915 0.43661 0.0
H1004 H 0.14073 0.49291 0.215 0.0
H1005 H 0.10976 0.48436 0.14749 0.0
H1006 H 0.11831 0.42073 0.19145 0.0
H1007 H 0.14904 0.42902 0.26101 0.0
C1008 C 0.24768 0.48469 0.19911 0.0
C1009 C 0.25067 0.46855 0.15125 0.0
C1010 C 0.23291 0.48319 0.25077 0.0
C1011 C 0.22146 0.46518 0.25747 0.0
C1012 C 0.22603 0.44824 0.21383 0.0
C1013 C 0.2403 0.45005 0.15997 0.0
C1014 C 0.20221 0.46594 0.29825 0.0
C1015 C 0.18423 0.46009 0.26323 0.0
C1016 C 0.20084 0.47638 0.36377 0.0
C1017 C 0.21927 0.48176 0.40544 0.0
C1018 C 0.23448 0.46703 0.41751 0.0
C1019 C 0.25223 0.47236 0.45399 0.0
C1020 C 0.25493 0.49237 0.47889 0.0
C1021 C 0.23985 0.50708 0.46763 0.0
C1022 C 0.22207 0.50184 0.43122 0.0
C1023 C 0.10844 0.48706 0.38073 0.0
C1024 C 0.10659 0.50718 0.3575 0.0
C1025 C 0.12771 0.47819 0.38585 0.0
C1026 C 0.14505 0.48935 0.36743 0.0
C1027 C 0.14326 0.51009 0.35093 0.0
C1028 C 0.12401 0.51897 0.34558 0.0
C1029 C 0.16403 0.47866 0.3492 0.0
C1030 C 0.18163 0.48273 0.3882 0.0
C1031 C 0.16517 0.46652 0.28754 0.0
C1032 C 0.1469 0.46162 0.24455 0.0
C1033 C 0.13581 0.47714 0.21136 0.0
C1034 C 0.11831 0.47234 0.17259 0.0
C1035 C 0.11199 0.45203 0.16558 0.0
C1036 C 0.12319 0.43647 0.19712 0.0
C1037 C 0.14061 0.44121 0.23635 0.0
H1038 H 0.09847 0.44833 0.1354 0.0
H1039 H 0.26873 0.49648 0.50688 0.0
H1040 H 0.96068 0.77721 0.02038 0.0
H1041 H 0.95826 0.80284 0.93113 0.0
H1042 H 0.93397 0.84602 0.08239 0.0
H1043 H 0.93326 0.81944 0.1698 0.0
H1044 H 0.9296 0.8621 0.96268 0.0
H1045 H 0.9854 0.83536 0.08495 0.0
H1046 H 1.00748 0.80842 0.13305 0.0
H1047 H 0.02482 0.7897 0.92489 0.0
H1048 H 1.00258 0.8164 0.87548 0.0
H1049 H 1.0081 0.93874 0.89514 0.0
H1050 H 0.98349 0.91454 0.94333 0.0
H1051 H 0.9918 0.87495 0.76266 0.0
H1052 H 0.01639 0.89903 0.71447 0.0
H1053 H 1.00279 0.85858 0.8961 0.0
H1054 H 0.94645 0.89896 0.79381 0.0
H1055 H 0.92844 0.93196 0.78472 0.0
H1056 H 0.91832 0.93312 0.00689 0.0
H1057 H 0.93648 0.90025 0.01739 0.0
C1058 C 0.95341 0.79158 0.03423 0.0
C1059 C 0.94873 0.79678 0.10423 0.0
C1060 C 0.95223 0.80642 0.98273 0.0
C1061 C 0.94752 0.82671 1.00177 0.0
C1062 C 0.93854 0.83065 0.06716 0.0
C1063 C 0.93855 0.81546 0.11763 0.0
C1064 C 0.95697 0.84372 0.96303 0.0
C1065 C 0.94552 0.86125 0.9474 0.0
C1066 C 0.97814 0.84329 0.94733 0.0
C1067 C 0.99214 0.82769 0.97649 0.0
C1068 C 0.9939 0.82547 0.04943 0.0
C1069 C 1.00641 0.81023 0.07694 0.0
C1070 C 0.01748 0.7973 0.03204 0.0
C1071 C 0.01618 0.79969 0.95956 0.0
C1072 C 1.00363 0.81488 0.93175 0.0
C1073 C 1.00409 0.92522 0.8647 0.0
C1074 C 0.01425 0.92052 0.8017 0.0
C1075 C 0.99006 0.91144 0.89219 0.0
C1076 C 0.98593 0.89301 0.85643 0.0
C1077 C 0.99485 0.88913 0.79084 0.0
C1078 C 1.00888 0.90282 0.76355 0.0
C1079 C 0.97512 0.87636 0.89177 0.0
C1080 C 0.98664 0.85909 0.90885 0.0
C1081 C 0.95458 0.87792 0.91378 0.0
C1082 C 0.9428 0.89713 0.90633 0.0
C1083 C 0.94038 0.90625 0.84069 0.0
C1084 C 0.93016 0.92496 0.83534 0.0
C1085 C 0.92222 0.93463 0.89525 0.0
C1086 C 0.92443 0.92559 0.96055 0.0
C1087 C 0.93462 0.9069 0.96618 0.0
H1088 H 0.91432 0.9491 0.89131 0.0
H1089 H 0.02709 0.78545 0.0534 0.0
H1090 H 0.76857 0.96933 0.0363 0.0
H1091 H 0.74305 0.96665 0.9447 0.0
H1092 H 0.70254 0.93622 0.08747 0.0
H1093 H 0.72922 0.9357 0.17459 0.0
H1094 H 0.6847 0.93502 0.98035 0.0
H1095 H 0.7139 0.99173 0.10182 0.0
H1096 H 0.74153 0.01479 0.14117 0.0
H1097 H 0.75253 0.03207 0.92847 0.0
H1098 H 0.72507 1.0089 0.8879 0.0
H1099 H 0.61916 0.03426 0.93918 0.0
H1100 H 0.64414 1.01186 0.99573 0.0
H1101 H 0.64869 0.97547 0.80606 0.0
H1102 H 0.62374 0.99796 0.7493 0.0
H1103 H 0.68329 1.00924 0.93121 0.0
H1104 H 0.65636 0.92167 0.90506 0.0
H1105 H 0.6274 0.90074 0.94429 0.0
H1106 H 0.60394 0.95167 0.06389 0.0
H1107 H 0.63308 0.97262 0.0281 0.0
C1108 C 0.75491 0.96059 0.04662 0.0
C1109 C 0.75007 0.95429 0.11472 0.0
C1110 C 0.7401 0.95937 0.99421 0.0
C1111 C 0.72025 0.95313 0.01164 0.0
C1112 C 0.71739 0.94212 0.0734 0.0
C1113 C 0.73268 0.94206 0.12391 0.0
C1114 C 0.70226 0.96276 0.97815 0.0
C1115 C 0.68447 0.95115 0.96803 0.0
C1116 C 0.70142 0.98422 0.96785 0.0
C1117 C 0.71773 0.99838 0.99177 0.0
C1118 C 0.72227 1.00042 0.0635 0.0
C1119 C 0.7379 0.01348 0.08601 0.0
C1120 C 0.74885 0.0248 0.0373 0.0
C1121 C 0.7441 0.0232 0.96607 0.0
C1122 C 0.72852 1.01011 0.94327 0.0
C1123 C 0.62521 0.02118 0.91044 0.0
C1124 C 0.6199 0.01771 0.84028 0.0
C1125 C 0.63927 1.00839 0.94265 0.0
C1126 C 0.64786 0.99187 0.90518 0.0
C1127 C 0.64177 0.98785 0.83604 0.0
C1128 C 0.62782 1.00076 0.80358 0.0
C1129 C 0.66588 0.98139 0.93314 0.0
C1130 C 0.68365 0.99296 0.9415 0.0
C1131 C 0.66591 0.96046 0.95004 0.0
C1132 C 0.64676 0.94894 0.9622 0.0
C1133 C 0.64491 0.9285 0.93908 0.0
C1134 C 0.6286 0.91652 0.96163 0.0
C1135 C 0.61391 0.92485 0.00679 0.0
C1136 C 0.61534 0.94524 0.02885 0.0
C1137 C 0.63171 0.95722 0.0071 0.0
H1138 H 0.60136 0.91554 0.02451 0.0
H1139 H 0.76099 0.03486 0.05478 0.0
H1140 H 0.60405 0.73363 0.12508 0.0
H1141 H 0.59975 0.70803 0.03248 0.0
H1142 H 0.55356 0.74544 0.93657 0.0
H1143 H 0.55735 0.7708 0.03001 0.0
H1144 H 0.53856 0.71195 1.00048 0.0
H1145 H 0.59021 0.72526 0.83472 0.0
H1146 H 0.62457 0.73348 0.79109 0.0
H1147 H 0.64805 0.67792 0.87722 0.0
H1148 H 0.61392 0.66953 0.92258 0.0
H1149 H 0.50213 0.6208 0.84916 0.0
H1150 H 0.51561 0.6553 0.86137 0.0
H1151 H 0.57078 0.63138 0.95307 0.0
H1152 H 0.55783 0.59659 0.9374 0.0
H1153 H 0.57998 0.661 0.86845 0.0
H1154 H 0.53229 0.65076 0.0511 0.0
H1155 H 0.49992 0.64281 0.1101 0.0
H1156 H 0.47056 0.69259 1.00595 0.0
H1157 H 0.50276 0.7007 0.94546 0.0
C1158 C 0.59376 0.73687 0.08223 0.0
C1159 C 0.58056 0.7538 0.08584 0.0
C1160 C 0.59143 0.72231 0.02889 0.0
C1161 C 0.57605 0.72474 0.97857 0.0
C1162 C 0.56544 0.74333 0.97529 0.0
C1163 C 0.56769 0.75785 0.02881 0.0
C1164 C 0.567 0.70624 0.94662 0.0
C1165 C 0.54725 0.70112 0.96874 0.0
C1166 C 0.57882 0.6918 0.90889 0.0
C1167 C 0.59948 0.69682 0.88235 0.0
C1168 C 0.60273 0.71488 0.84495 0.0
C1169 C 0.62218 0.71956 0.81981 0.0
C1170 C 0.63849 0.70625 0.83144 0.0
C1171 C 0.6354 0.68822 0.86824 0.0
C1172 C 0.61599 0.68348 0.89361 0.0
C1173 C 0.51729 0.62282 0.87078 0.0
C1174 C 0.5289 0.60601 0.89277 0.0
C1175 C 0.52487 0.64256 0.87839 0.0
C1176 C 0.54404 0.64586 0.90907 0.0
C1177 C 0.5559 0.62911 0.9295 0.0
C1178 C 0.54841 0.6093 0.92126 0.0
C1179 C 0.55147 0.66683 0.92163 0.0
C1180 C 0.57087 0.67221 0.89685 0.0
C1181 C 0.53949 0.68144 0.95831 0.0
C1182 C 0.51989 0.67615 0.99281 0.0
C1183 C 0.51887 0.65982 0.03981 0.0
C1184 C 0.50056 0.65534 0.07382 0.0
C1185 C 0.48317 0.66713 0.06155 0.0
C1186 C 0.48405 0.68344 0.01526 0.0
C1187 C 0.50232 0.68799 0.98112 0.0
H1188 H 0.46902 0.66367 0.08809 0.0
H1189 H 0.65353 0.70989 0.81185 0.0
H1190 H 0.76688 0.58109 0.00694 0.0
H1191 H 0.79474 0.57884 0.92403 0.0
H1192 H 0.83539 0.60524 0.07802 0.0
H1193 H 0.80681 0.61091 0.1565 0.0
H1194 H 0.85602 0.60169 0.97046 0.0
H1195 H 0.81467 0.55132 0.09233 0.0
H1196 H 0.7827 0.53308 0.12034 0.0
H1197 H 0.77529 0.51626 0.9039 0.0
H1198 H 0.80722 0.53427 0.8747 0.0
H1199 H 0.92713 0.51921 0.01697 0.0
H1200 H 0.89829 0.54293 0.03416 0.0
H1201 H 0.87655 0.52825 0.8262 0.0
H1202 H 0.90546 0.50482 0.80868 0.0
H1203 H 0.84718 0.52665 0.9413 0.0
H1204 H 0.89877 0.57124 0.84211 0.0
H1205 H 0.93332 0.58622 0.84072 0.0
H1206 H 0.92411 0.6108 0.04807 0.0
H1207 H 0.88955 0.59596 0.05076 0.0
C1208 C 0.78127 0.58802 0.02163 0.0
C1209 C 0.7852 0.5943 0.09118 0.0
C1210 C 0.79742 0.58635 0.97413 0.0
C1211 C 0.81744 0.58979 0.99782 0.0
C1212 C 0.82023 0.6013 0.0597 0.0
C1213 C 0.8038 0.60435 0.10513 0.0
C1214 C 0.83449 0.57677 0.97148 0.0
C1215 C 0.854 0.58533 0.96355 0.0
C1216 C 0.83216 0.55522 0.96387 0.0
C1217 C 0.81306 0.54436 0.98127 0.0
C1218 C 0.80615 0.54374 0.05085 0.0
C1219 C 0.78808 0.53348 0.0669 0.0
C1220 C 0.77692 0.52368 0.01394 0.0
C1221 C 0.7839 0.52395 0.94483 0.0
C1222 C 0.80198 0.53414 0.92848 0.0
C1223 C 0.91586 0.52076 0.97587 0.0
C1224 C 0.91804 0.51002 0.91222 0.0
C1225 C 0.89971 0.53449 0.98513 0.0
C1226 C 0.88564 0.53747 0.93086 0.0
C1227 C 0.88743 0.52619 0.86822 0.0
C1228 C 0.90368 0.51269 0.85866 0.0
C1229 C 0.8684 0.55163 0.94052 0.0
C1230 C 0.84898 0.54312 0.94606 0.0
C1231 C 0.87109 0.57294 0.94936 0.0
C1232 C 0.89161 0.58242 0.9467 0.0
C1233 C 0.90413 0.57982 0.88742 0.0
C1234 C 0.9237 0.58832 0.88636 0.0
C1235 C 0.93089 0.59946 0.94426 0.0
C1236 C 0.91849 0.60225 1.00315 0.0
C1237 C 0.89889 0.59385 1.00438 0.0
H1238 H 0.94608 0.60588 0.94364 0.0
H1239 H 0.76291 0.51581 0.0265 0.0
H1240 H 0.06648 0.23983 0.8519 0.0
H1241 H 0.06045 0.20714 0.79049 0.0
H1242 H 1.0077 0.19701 0.92005 0.0
H1243 H 0.01378 0.22972 0.98114 0.0
H1244 H 0.03225 0.16512 0.92491 0.0
H1245 H 1.00673 0.20572 0.73549 0.0
H1246 H 1.00791 0.23144 0.64266 0.0
H1247 H 0.05739 0.1991 0.54322 0.0
H1248 H 0.05685 0.17344 0.63628 0.0
H1249 H 0.9866 0.07817 0.74333 0.0
H1250 H 0.9945 0.11203 0.79248 0.0
H1251 H 0.05418 0.10924 0.69848 0.0
H1252 H 0.04632 0.07493 0.64948 0.0
H1253 H 0.02876 0.14728 0.67218 0.0
H1254 H 0.065 0.12781 0.90767 0.0
H1255 H 0.06831 0.10856 0.01723 0.0
H1256 H 1.00318 0.10167 0.02631 0.0
H1257 H 0.99955 0.12138 0.91773 0.0
C1258 C 0.05298 0.23113 0.86487 0.0
C1259 C 0.0402 0.23794 0.92008 0.0
C1260 C 0.04963 0.2122 0.82999 0.0
C1261 C 0.0335 0.19927 0.84973 0.0
C1262 C 0.02021 0.20651 0.90287 0.0
C1263 C 0.02347 0.2255 0.93728 0.0
C1264 C 0.03168 0.17748 0.82129 0.0
C1265 C 0.03118 0.16145 0.86941 0.0
C1266 C 0.03134 0.17206 0.74874 0.0
C1267 C 0.03193 0.18778 0.69359 0.0
C1268 C 0.01806 0.20423 0.69444 0.0
C1269 C 0.01859 0.21879 0.64162 0.0
C1270 C 0.03277 0.21695 0.58722 0.0
C1271 C 0.04646 0.20056 0.58551 0.0
C1272 C 0.04606 0.18601 0.63834 0.0
C1273 C 1.0016 0.08453 0.73419 0.0
C1274 C 0.01592 0.07344 0.69353 0.0
C1275 C 1.00617 0.10398 0.76284 0.0
C1276 C 0.02512 0.11337 0.75086 0.0
C1277 C 0.03953 0.10241 0.70978 0.0
C1278 C 0.03505 0.08268 0.68186 0.0
C1279 C 0.02881 0.13518 0.77621 0.0
C1280 C 0.02979 0.15114 0.7275 0.0
C1281 C 0.03006 0.14069 0.84813 0.0
C1282 C 0.03206 0.12546 0.9037 0.0
C1283 C 0.05144 0.12176 0.93232 0.0
C1284 C 0.05335 0.11114 0.99488 0.0
C1285 C 0.03594 0.10403 0.02892 0.0
C1286 C 0.01663 0.10719 0.99978 0.0
C1287 C 0.01464 0.11803 0.9376 0.0
H1288 H 0.03742 0.09588 0.07734 0.0
H1289 H 0.0331 0.2282 0.54627 0.0
H1290 H 0.31321 0.09095 0.91527 0.0
H1291 H 0.34483 0.08434 0.85309 0.0
H1292 H 0.32736 0.02123 0.82301 0.0
H1293 H 0.29618 0.02764 0.89136 0.0
H1294 H 0.36266 0.01973 0.8609 0.0
H1295 H 0.33545 0.06413 0.68439 0.0
H1296 H 0.32067 0.09555 0.63566 0.0
H1297 H 0.37156 0.13036 0.71367 0.0
H1298 H 0.38659 0.09916 0.76315 0.0
H1299 H 0.45148 0.99003 0.68147 0.0
H1300 H 0.417 0.99923 0.7144 0.0
H1301 H 0.43395 0.06298 0.72033 0.0
H1302 H 0.46744 0.05368 0.67168 0.0
H1303 H 0.39917 0.06545 0.69948 0.0
H1304 H 0.42491 0.02213 0.88264 0.0
H1305 H 0.44025 0.99098 0.93232 0.0
H1306 H 0.39202 0.9546 0.8435 0.0
H1307 H 0.37643 0.98548 0.79349 0.0
C1308 C 0.31578 0.0757 0.89408 0.0
C1309 C 0.30188 0.05985 0.90919 0.0
C1310 C 0.33402 0.07194 0.85703 0.0
C1311 C 0.33899 0.05223 0.83127 0.0
C1312 C 0.32435 0.03664 0.8419 0.0
C1313 C 0.30618 0.04035 0.88038 0.0
C1314 C 0.3602 0.04737 0.80188 0.0
C1315 C 0.37029 0.02958 0.82405 0.0
C1316 C 0.37128 0.06053 0.75684 0.0
C1317 C 0.36208 0.07931 0.72783 0.0
C1318 C 0.34344 0.07849 0.69142 0.0
C1319 C 0.33503 0.09627 0.66359 0.0
C1320 C 0.34515 0.11495 0.67168 0.0
C1321 C 0.36373 0.11589 0.70747 0.0
C1322 C 0.37221 0.09816 0.73529 0.0
C1323 C 0.44795 1.00608 0.6896 0.0
C1324 C 0.46298 0.02102 0.67796 0.0
C1325 C 0.42805 1.0114 0.71072 0.0
C1326 C 0.42253 0.03184 0.72653 0.0
C1327 C 0.43733 0.04695 0.71138 0.0
C1328 C 0.45692 0.04163 0.68507 0.0
C1329 C 0.40138 0.03729 0.7561 0.0
C1330 C 0.39148 0.05543 0.73553 0.0
C1331 C 0.39043 0.02451 0.80291 0.0
C1332 C 0.39965 1.00606 0.83394 0.0
C1333 C 0.41765 1.00746 0.87364 0.0
C1334 C 0.42637 0.98987 0.9018 0.0
C1335 C 0.41718 0.97083 0.89073 0.0
C1336 C 0.39915 0.96935 0.85196 0.0
C1337 C 0.39032 0.98688 0.82393 0.0
H1338 H 0.42399 0.95723 0.91239 0.0
H1339 H 0.33861 0.12869 0.65012 0.0
H1340 H 0.44355 0.30764 0.87082 0.0
H1341 H 0.45184 0.33839 0.80699 0.0
H1342 H 0.51471 0.33301 0.87142 0.0
H1343 H 0.50596 0.30252 0.93929 0.0
H1344 H 0.50532 0.37002 0.88842 0.0
H1345 H 0.49469 0.32619 0.69155 0.0
H1346 H 0.47854 0.30204 0.60831 0.0
H1347 H 0.42872 0.34383 0.57979 0.0
H1348 H 0.4444 0.36813 0.66363 0.0
H1349 H 0.53545 0.44925 0.64643 0.0
H1350 H 0.52994 0.41524 0.69481 0.0
H1351 H 0.46617 0.42907 0.72334 0.0
H1352 H 0.47168 0.46334 0.67672 0.0
H1353 H 0.47776 0.38797 0.65554 0.0
H1354 H 0.48865 0.43039 0.86032 0.0
H1355 H 0.50739 0.45552 0.9331 0.0
H1356 H 0.5596 0.41573 0.93573 0.0
H1357 H 0.54125 0.39048 0.86194 0.0
C1358 C 0.45933 0.31256 0.8695 0.0
C1359 C 0.47414 0.30222 0.90932 0.0
C1360 C 0.46411 0.33032 0.83269 0.0
C1361 C 0.48405 0.33827 0.83275 0.0
C1362 C 0.49917 0.3274 0.86985 0.0
C1363 C 0.49428 0.30965 0.90777 0.0
C1364 C 0.48853 0.3586 0.79887 0.0
C1365 C 0.49959 0.37359 0.83678 0.0
C1366 C 0.48073 0.364 0.73197 0.0
C1367 C 0.47062 0.34888 0.68473 0.0
C1368 C 0.4801 0.33008 0.66859 0.0
C1369 C 0.47108 0.31641 0.62093 0.0
C1370 C 0.45258 0.32136 0.58895 0.0
C1371 C 0.44303 0.33999 0.60468 0.0
C1372 C 0.45199 0.35372 0.65225 0.0
C1373 C 0.52026 0.44524 0.66351 0.0
C1374 C 0.50417 0.45957 0.66009 0.0
C1375 C 0.51713 0.42567 0.69115 0.0
C1376 C 0.4977 0.41959 0.714 0.0
C1377 C 0.48138 0.43341 0.70711 0.0
C1378 C 0.4846 0.45316 0.68106 0.0
C1379 C 0.49444 0.39888 0.74504 0.0
C1380 C 0.48353 0.38404 0.70686 0.0
C1381 C 0.50259 0.3935 0.81089 0.0
C1382 C 0.51368 0.40866 0.85493 0.0
C1383 C 0.50421 0.4271 0.87573 0.0
C1384 C 0.51474 0.44134 0.91731 0.0
C1385 C 0.53468 0.43725 0.93887 0.0
C1386 C 0.54415 0.4189 0.91889 0.0
C1387 C 0.5337 0.40461 0.87722 0.0
H1388 H 0.54274 0.44828 0.97133 0.0
H1389 H 0.44567 0.3108 0.55183 0.0
H1390 H 0.22442 0.51318 0.98985 0.0
H1391 H 0.19251 0.5159 0.92411 0.0
H1392 H 0.21654 0.47517 0.76506 0.0
H1393 H 0.24857 0.47192 0.83245 0.0
H1394 H 0.19 0.51376 0.71861 0.0
H1395 H 0.18859 0.45241 0.8568 0.0
H1396 H 0.19412 0.43352 0.96597 0.0
H1397 H 0.1517 0.47303 0.07335 0.0
H1398 H 0.14602 0.49226 0.96509 0.0
H1399 H 0.08985 0.5018 0.57172 0.0
H1400 H 0.12481 0.49551 0.61208 0.0
H1401 H 0.10551 0.50623 0.82562 0.0
H1402 H 0.07051 0.51087 0.7856 0.0
H1403 H 0.13178 0.48004 0.83571 0.0
H1404 H 0.13415 0.54277 0.70545 0.0
H1405 H 0.12848 0.56347 0.60034 0.0
H1406 H 0.16911 0.52453 0.48255 0.0
H1407 H 0.1747 0.50328 0.58664 0.0
C1408 C 0.22328 0.50538 0.93954 0.0
C1409 C 0.23942 0.49273 0.91586 0.0
C1410 C 0.20485 0.50679 0.90219 0.0
C1411 C 0.20188 0.49577 0.83927 0.0
C1412 C 0.21837 0.48401 0.81304 0.0
C1413 C 0.23684 0.48232 0.85127 0.0
C1414 C 0.181 0.49533 0.80547 0.0
C1415 C 0.17733 0.5061 0.74352 0.0
C1416 C 0.16418 0.48581 0.8383 0.0
C1417 C 0.16702 0.47388 0.90298 0.0
C1418 C 0.18051 0.45712 0.90383 0.0
C1419 C 0.18363 0.44633 0.96554 0.0
C1420 C 0.17325 0.45207 0.02668 0.0
C1421 C 0.15966 0.46856 0.02604 0.0
C1422 C 0.15646 0.47939 0.96447 0.0
C1423 C 0.09307 0.50264 0.62731 0.0
C1424 C 0.07719 0.50678 0.67521 0.0
C1425 C 0.11326 0.49928 0.65067 0.0
C1426 C 0.11847 0.50089 0.72249 0.0
C1427 C 0.1024 0.50479 0.77009 0.0
C1428 C 0.08218 0.50749 0.74698 0.0
C1429 C 0.14037 0.49885 0.74869 0.0
C1430 C 0.14431 0.48764 0.80985 0.0
C1431 C 0.15738 0.50822 0.71545 0.0
C1432 C 0.15471 0.52137 0.65365 0.0
C1433 C 0.14185 0.5386 0.65708 0.0
C1434 C 0.1386 0.55038 0.59764 0.0
C1435 C 0.14835 0.54522 0.53472 0.0
C1436 C 0.16149 0.52838 0.53124 0.0
C1437 C 0.16472 0.51648 0.59044 0.0
H1438 H 0.14578 0.55432 0.48868 0.0
H1439 H 0.17572 0.44375 0.0745 0.0
H1440 H 0.01894 0.80858 0.27778 0.0
H1441 H 0.02652 0.84054 0.34168 0.0
H1442 H 0.96661 0.83942 0.43497 0.0
H1443 H 0.95937 0.80731 0.37263 0.0
H1444 H 1.00873 0.87494 0.31974 0.0
H1445 H 0.96335 0.87435 0.57784 0.0
H1446 H 0.95254 0.85073 0.67001 0.0
H1447 H 1.00313 0.81117 0.62124 0.0
H1448 H 0.01449 0.83475 0.52963 0.0
H1449 H 0.98871 0.96776 0.58484 0.0
H1450 H 0.98027 0.93364 0.5358 0.0
H1451 H 0.04199 0.92724 0.46119 0.0
H1452 H 0.04995 0.96145 0.50513 0.0
H1453 H 0.99687 0.89606 0.56664 0.0
H1454 H 0.04534 0.91546 0.34898 0.0
H1455 H 0.05091 0.937 0.246 0.0
H1456 H 0.98685 0.9349 0.19912 0.0
H1457 H 0.98078 0.91454 0.30482 0.0
C1458 C 1.00784 0.81456 0.31481 0.0
C1459 C 0.98877 0.80496 0.32143 0.0
C1460 C 0.01201 0.83312 0.35066 0.0
C1461 C 0.99723 0.8427 0.39408 0.0
C1462 C 0.97858 0.83246 0.40358 0.0
C1463 C 0.97446 0.8139 0.36798 0.0
C1464 C 1.00045 0.86431 0.42183 0.0
C1465 C 1.00654 0.87929 0.37428 0.0
C1466 C 0.9964 0.87074 0.49206 0.0
C1467 C 0.98963 0.85622 0.54622 0.0
C1468 C 0.97219 0.86062 0.5868 0.0
C1469 C 0.96598 0.84725 0.63902 0.0
C1470 C 0.9771 0.82942 0.6513 0.0
C1471 C 0.99448 0.82495 0.61145 0.0
C1472 C 1.0008 0.8383 0.55927 0.0
C1473 C 1.00026 0.9593 0.55589 0.0
C1474 C 0.01984 0.96778 0.54676 0.0
C1475 C 0.99547 0.93968 0.52805 0.0
C1476 C 1.01019 0.92792 0.49107 0.0
C1477 C 0.02987 0.9362 0.48474 0.0
C1478 C 0.03456 0.95576 0.5115 0.0
C1479 C 1.00584 0.90639 0.46482 0.0
C1480 C 0.99929 0.89152 0.5124 0.0
C1481 C 1.00896 0.9 0.39418 0.0
C1482 C 0.01248 0.91452 0.33705 0.0
C1483 C 0.03233 0.92045 0.31879 0.0
C1484 C 0.0356 0.9323 0.25952 0.0
C1485 C 0.01921 0.93759 0.2166 0.0
C1486 C 0.99952 0.93101 0.23279 0.0
C1487 C 0.99612 0.91963 0.29305 0.0
H1488 H 0.02179 0.94657 0.17034 0.0
H1489 H 0.97228 0.8191 0.6918 0.0
H1490 H 0.73527 0.02508 0.32189 0.0
H1491 H 0.70322 0.03232 0.38494 0.0
H1492 H 0.69399 0.96762 0.41146 0.0
H1493 H 0.72644 0.9607 0.35451 0.0
H1494 H 0.66722 0.02628 0.35417 0.0
H1495 H 0.65671 0.95506 0.52431 0.0
H1496 H 0.67704 0.93096 0.59386 0.0
H1497 H 0.72308 0.9768 0.62574 0.0
H1498 H 0.7029 1.00127 0.55705 0.0
H1499 H 0.56953 0.99274 0.57949 0.0
H1500 H 0.60346 0.98506 0.53005 0.0
H1501 H 0.61344 0.04951 0.50062 0.0
H1502 H 0.57918 0.05679 0.543 0.0
H1503 H 0.63987 0.9906 0.56088 0.0
H1504 H 0.64675 0.06287 0.39839 0.0
H1505 H 0.62637 0.08494 0.32115 0.0
H1506 H 0.58837 0.03387 0.26475 0.0
H1507 H 0.60836 1.01166 0.34312 0.0
C1508 C 0.7269 0.01251 0.34426 0.0
C1509 C 0.73386 0.9923 0.3337 0.0
C1510 C 0.70822 0.01659 0.37946 0.0
C1511 C 0.69573 1.00062 0.40474 0.0
C1512 C 0.70313 0.98052 0.39571 0.0
C1513 C 0.72188 0.97651 0.36222 0.0
C1514 C 0.67446 1.0048 0.43473 0.0
C1515 C 0.66159 0.0187 0.40042 0.0
C1516 C 0.6661 0.99444 0.49337 0.0
C1517 C 0.67837 0.97994 0.53502 0.0
C1518 C 0.67114 0.96003 0.54639 0.0
C1519 C 0.68264 0.94629 0.5856 0.0
C1520 C 0.70137 0.95233 0.61405 0.0
C1521 C 0.7086 0.97213 0.60348 0.0
C1522 C 0.69715 0.98594 0.56433 0.0
C1523 C 0.57869 1.00517 0.55995 0.0
C1524 C 0.57105 0.02535 0.56262 0.0
C1525 C 0.59838 1.00082 0.53245 0.0
C1526 C 0.61134 0.01656 0.50851 0.0
C1527 C 0.60387 0.03675 0.51444 0.0
C1528 C 0.58413 0.04099 0.53998 0.0
C1529 C 0.63282 1.0122 0.48051 0.0
C1530 C 0.64564 0.99825 0.51499 0.0
C1531 C 0.64118 0.02232 0.42164 0.0
C1532 C 0.62869 0.03576 0.37728 0.0
C1533 C 0.6339 0.05645 0.36997 0.0
C1534 C 0.62241 0.06897 0.32626 0.0
C1535 C 0.60591 0.06086 0.28875 0.0
C1536 C 0.60091 0.0402 0.29483 0.0
C1537 C 0.61218 0.02769 0.33926 0.0
H1538 H 0.59711 0.07054 0.25456 0.0
H1539 H 0.71026 0.94167 0.64437 0.0
H1540 H 0.58902 0.73344 0.33794 0.0
H1541 H 0.58128 0.70198 0.40042 0.0
H1542 H 0.51712 0.71607 0.39062 0.0
H1543 H 0.52481 0.7476 0.32676 0.0
H1544 H 0.55038 0.69299 0.5332 0.0
H1545 H 0.51345 0.6885 0.28964 0.0
H1546 H 0.51956 0.697 0.16569 0.0
H1547 H 0.57733 0.66595 0.17147 0.0
H1548 H 0.57164 0.65751 0.29548 0.0
H1549 H 0.50889 0.59654 0.62413 0.0
H1550 H 0.51354 0.63152 0.58272 0.0
H1551 H 0.55333 0.60904 0.41895 0.0
H1552 H 0.54797 0.57442 0.45794 0.0
H1553 H 0.53302 0.63722 0.36436 0.0
H1554 H 0.57225 0.63341 0.56283 0.0
H1555 H 0.58097 0.62416 0.68358 0.0
H1556 H 0.53858 0.66904 0.76283 0.0
H1557 H 0.52901 0.67805 0.64218 0.0
C1558 C 0.57328 0.73025 0.35132 0.0
C1559 C 0.55755 0.74321 0.32781 0.0
C1560 C 0.56888 0.71217 0.38689 0.0
C1561 C 0.54862 0.70654 0.40018 0.0
C1562 C 0.5329 0.72011 0.38124 0.0
C1563 C 0.53731 0.73826 0.34531 0.0
C1564 C 0.54398 0.68547 0.42544 0.0
C1565 C 0.54589 0.68093 0.49677 0.0
C1566 C 0.53999 0.66925 0.37751 0.0
C1567 C 0.54213 0.67242 0.30146 0.0
C1568 C 0.52737 0.6834 0.26418 0.0
C1569 C 0.53081 0.68829 0.19415 0.0
C1570 C 0.54891 0.68217 0.16108 0.0
C1571 C 0.56338 0.67075 0.19733 0.0
C1572 C 0.56004 0.66588 0.26734 0.0
C1573 C 0.51866 0.599 0.57932 0.0
C1574 C 0.52848 0.58233 0.54576 0.0
C1575 C 0.52136 0.61913 0.55562 0.0
C1576 C 0.534 0.62323 0.49768 0.0
C1577 C 0.5435 0.60658 0.46361 0.0
C1578 C 0.54073 0.58655 0.48714 0.0
C1579 C 0.53775 0.6448 0.47362 0.0
C1580 C 0.53642 0.64934 0.40192 0.0
C1581 C 0.54358 0.66073 0.52085 0.0
C1582 C 0.54963 0.65613 0.59358 0.0
C1583 C 0.56463 0.64118 0.60601 0.0
C1584 C 0.56969 0.63593 0.67431 0.0
C1585 C 0.56015 0.6458 0.73065 0.0
C1586 C 0.54576 0.6612 0.719 0.0
C1587 C 0.54047 0.66637 0.6506 0.0
H1588 H 0.564 0.64138 0.78309 0.0
H1589 H 0.55175 0.68623 0.10738 0.0
H1590 H 0.78628 0.56715 0.38742 0.0
H1591 H 0.81806 0.56095 0.45217 0.0
H1592 H 0.84279 0.52918 0.27146 0.0
H1593 H 0.8107 0.53408 0.20975 0.0
H1594 H 0.85865 0.51209 0.36877 0.0
H1595 H 0.85229 0.58425 0.32962 0.0
H1596 H 0.83682 0.61863 0.33721 0.0
H1597 H 0.83991 0.6172 0.56165 0.0
H1598 H 0.85515 0.58268 0.55539 0.0
H1599 H 0.96504 0.53122 0.43181 0.0
H1600 H 0.93014 0.53495 0.38759 0.0
H1601 H 0.9076 0.53982 0.59896 0.0
H1602 H 0.94256 0.53565 0.64384 0.0
H1603 H 0.89068 0.57044 0.49558 0.0
H1604 H 0.89715 0.49712 0.52789 0.0
H1605 H 0.91415 0.46365 0.51362 0.0
H1606 H 0.91387 0.47022 0.29029 0.0
H1607 H 0.89644 0.50359 0.30331 0.0
C1608 C 0.79815 0.55799 0.36292 0.0
C1609 C 0.79555 0.55062 0.29381 0.0
C1610 C 0.8167 0.55493 0.3993 0.0
C1611 C 0.83354 0.54507 0.36676 0.0
C1612 C 0.83043 0.53684 0.29893 0.0
C1613 C 0.81182 0.53949 0.26342 0.0
C1614 C 0.85444 0.54356 0.40142 0.0
C1615 C 0.86551 0.52508 0.39563 0.0
C1616 C 0.86394 0.56015 0.43819 0.0
C1617 C 0.85459 0.58078 0.44204 0.0
C1618 C 0.8495 0.5912 0.38059 0.0
C1619 C 0.84081 0.61072 0.38465 0.0
C1620 C 0.83732 0.62006 0.44988 0.0
C1621 C 0.84257 0.60992 0.51117 0.0
C1622 C 0.85123 0.59038 0.5074 0.0
C1623 C 0.95274 0.53323 0.46916 0.0
C1624 C 0.95682 0.53319 0.54167 0.0
C1625 C 0.93268 0.5353 0.44363 0.0
C1626 C 0.91603 0.53772 0.48963 0.0
C1627 C 0.92006 0.53807 0.56209 0.0
C1628 C 0.94012 0.5356 0.58776 0.0
C1629 C 0.89451 0.5392 0.46173 0.0
C1630 C 0.88352 0.5576 0.46872 0.0
C1631 C 0.88522 0.52279 0.42466 0.0
C1632 C 0.89567 0.50284 0.41659 0.0
C1633 C 0.90082 0.49145 0.47579 0.0
C1634 C 0.91051 0.4725 0.46793 0.0
C1635 C 0.91531 0.4649 0.40114 0.0
C1636 C 0.91021 0.47615 0.342 0.0
C1637 C 0.90031 0.49502 0.34956 0.0
H1638 H 0.92288 0.45025 0.39521 0.0
H1639 H 0.8306 0.63519 0.45292 0.0
loop_
_geom_bond_atom_site_label_1
_geom_bond_atom_site_label_2
_geom_bond_distance
_geom_bond_site_symmetry_2
_ccdc_geom_bond_type
H0 C7 0.929 . S
H1 C10 0.930 . S
H2 C12 0.929 . S
H3 C4 0.969 . S
C4 H3 0.969 . S
C4 O5 1.550 . S
C4 H6 0.973 . S
O5 C4 1.550 . S
O5 C11 1.412 . S
H6 C4 0.973 . S
C7 H0 0.929 . S
C7 C8 1.400 . S
C7 C9 1.364 . S
C8 C7 1.400 . S
C8 C12 1.377 . S
C9 C7 1.364 . S
C9 C10 1.374 . S
C10 H1 0.930 . S
C10 C9 1.374 . S
C10 C11 1.383 . S
C11 O5 1.412 . S
C11 C10 1.383 . S
C11 C12 1.394 . S
C12 H2 0.929 . S
C12 C8 1.377 . S
C12 C11 1.394 . S
H13 C20 0.929 . S
H14 C23 0.930 . S
H15 C25 0.929 . S
H16 C17 0.969 . S
C17 H16 0.969 . S
C17 O18 1.550 . S
C17 H19 0.973 . S
O18 C17 1.550 . S
O18 C24 1.412 . S
H19 C17 0.973 . S
C20 H13 0.929 . S
C20 C21 1.400 . S
C20 C22 1.364 . S
C21 C20 1.400 . S
C21 C25 1.377 . S
C22 C20 1.364 . S
C22 C23 1.374 . S
C23 H14 0.930 . S
C23 C22 1.374 . S
C23 C24 1.383 . S
C24 O18 1.412 . S
C24 C23 1.383 . S
C24 C25 1.394 . S
C25 H15 0.929 . S
C25 C21 1.377 . S
C25 C24 1.394 . S
H26 C33 0.929 . S
H27 C36 0.930 . S
H28 C38 0.929 . S
H29 C30 0.969 . S
C30 H29 0.969 . S
C30 O31 1.550 . S
C30 H32 0.973 . S
O31 C30 1.550 . S
O31 C37 1.412 . S
H32 C30 0.973 . S
C33 H26 0.929 . S
C33 C34 1.400 . S
C33 C35 1.364 . S
C34 C33 1.400 . S
C34 C38 1.377 . S
C35 C33 1.364 . S
C35 C36 1.374 . S
C36 H27 0.930 . S
C36 C35 1.374 . S
C36 C37 1.383 . S
C37 O31 1.412 . S
C37 C36 1.383 . S
C37 C38 1.394 . S
C38 H28 0.929 . S
C38 C34 1.377 . S
C38 C37 1.394 . S
H39 C46 0.929 . S
H40 C49 0.930 . S
H41 C51 0.929 . S
H42 C43 0.969 . S
C43 H42 0.969 . S
C43 O44 1.550 . S
C43 H45 0.973 . S
O44 C43 1.550 . S
O44 C50 1.412 . S
H45 C43 0.973 . S
C46 H39 0.929 . S
C46 C47 1.400 . S
C46 C48 1.364 . S
C47 C46 1.400 . S
C47 C51 1.377 . S
C48 C46 1.364 . S
C48 C49 1.374 . S
C49 H40 0.930 . S
C49 C48 1.374 . S
C49 C50 1.383 . S
C50 O44 1.412 . S
C50 C49 1.383 . S
C50 C51 1.394 . S
C51 H41 0.929 . S
C51 C47 1.377 . S
C51 C50 1.394 . S
H52 C59 0.929 . S
H53 C62 0.930 . S
H54 C64 0.929 . S
H55 C56 0.969 . S
C56 H55 0.969 . S
C56 O57 1.550 . S
C56 H58 0.973 . S
O57 C56 1.550 . S
O57 C63 1.412 . S
H58 C56 0.973 . S
C59 H52 0.929 . S
C59 C60 1.400 . S
C59 C61 1.364 1_556 S
C60 C59 1.400 . S
C60 C64 1.377 . S
C61 C59 1.364 1_554 S
C61 C62 1.374 . S
C62 H53 0.930 . S
C62 C61 1.374 . S
C62 C63 1.383 . S
C63 O57 1.412 . S
C63 C62 1.383 . S
C63 C64 1.394 1_554 S
C64 H54 0.929 . S
C64 C60 1.377 . S
C64 C63 1.394 1_556 S
H65 C72 0.929 . S
H66 C75 0.930 . S
H67 C77 0.929 . S
H68 C69 0.969 . S
C69 H68 0.969 . S
C69 O70 1.550 . S
C69 H71 0.973 . S
O70 C69 1.550 . S
O70 C76 1.412 . S
H71 C69 0.973 . S
C72 H65 0.929 . S
C72 C73 1.400 . S
C72 C74 1.364 1_556 S
C73 C72 1.400 . S
C73 C77 1.377 . S
C74 C72 1.364 1_554 S
C74 C75 1.374 . S
C75 H66 0.930 . S
C75 C74 1.374 . S
C75 C76 1.383 . S
C76 O70 1.412 . S
C76 C75 1.383 . S
C76 C77 1.394 1_554 S
C77 H67 0.929 . S
C77 C73 1.377 . S
C77 C76 1.394 1_556 S
H78 C85 0.929 . S
H79 C88 0.930 . S
H80 C90 0.929 . S
H81 C82 0.969 . S
C82 H81 0.969 . S
C82 O83 1.550 . S
C82 H84 0.973 . S
O83 C82 1.550 . S
O83 C89 1.412 . S
H84 C82 0.973 . S
C85 H78 0.929 . S
C85 C86 1.400 . S
C85 C87 1.364 1_556 S
C86 C85 1.400 . S
C86 C90 1.377 . S
C87 C85 1.364 1_554 S
C87 C88 1.374 . S
C88 H79 0.930 . S
C88 C87 1.374 . S
C88 C89 1.383 . S
C89 O83 1.412 . S
C89 C88 1.383 . S
C89 C90 1.394 1_554 S
C90 H80 0.929 . S
C90 C86 1.377 . S
C90 C89 1.394 1_556 S
H91 C98 0.929 . S
H92 C101 0.930 . S
H93 C103 0.929 . S
H94 C95 0.969 . S
C95 H94 0.969 . S
C95 O96 1.550 . S
C95 H97 0.973 . S
O96 C95 1.550 . S
O96 C102 1.412 . S
H97 C95 0.973 . S
C98 H91 0.929 . S
C98 C99 1.400 . S
C98 C100 1.364 1_556 S
C99 C98 1.400 . S
C99 C103 1.377 . S
C100 C98 1.364 1_554 S
C100 C101 1.374 . S
C101 H92 0.930 . S
C101 C100 1.374 . S
C101 C102 1.383 . S
C102 O96 1.412 . S
C102 C101 1.383 . S
C102 C103 1.394 1_554 S
C103 H93 0.929 . S
C103 C99 1.377 . S
C103 C102 1.394 1_556 S
Tb104 N135 2.660 1_565 S
Tb104 N142 2.598 1_565 S
Tb104 O148 2.546 . S
Tb104 O149 2.610 1_455 S
Tb104 O151 2.320 1_455 S
Tb104 O152 2.552 . S
Tb104 O153 2.413 . S
Tb104 O155 2.362 1_565 S
Tb104 O156 2.421 . S
Tb104 C168 2.833 . S
C105 C108 1.411 1_545 S
C105 C109 1.414 . S
C105 N112 1.359 . S
C106 C108 1.449 . S
C106 C110 1.432 . S
C106 C118 1.410 . S
C107 C109 1.444 1_565 S
C107 C110 1.317 . S
C107 H130 0.929 . S
C108 C105 1.411 1_565 S
C108 C106 1.449 . S
C108 N116 1.350 1_565 S
C109 C105 1.414 . S
C109 C107 1.444 1_545 S
C109 C114 1.385 . S
C110 C106 1.432 . S
C110 C107 1.317 . S
C110 H122 0.930 . S
C111 C113 1.392 . S
C111 C114 1.370 . S
C111 H123 0.931 . S
N112 C105 1.359 . S
N112 C113 1.327 . S
N112 Tb115 2.600 . S
C113 C111 1.392 . S
C113 N112 1.327 . S
C113 H120 0.930 . S
C114 C109 1.385 . S
C114 C111 1.370 . S
C114 H133 0.930 . S
Tb115 N112 2.600 . S
Tb115 N116 2.660 . S
Tb115 O149 2.362 1_545 S
Tb115 O150 2.421 . S
Tb115 O154 2.546 . S
Tb115 O155 2.610 1_655 S
Tb115 O157 2.320 1_655 S
Tb115 O158 2.552 1_655 S
Tb115 O159 2.412 . S
Tb115 C179 2.833 . S
N116 C108 1.350 1_545 S
N116 Tb115 2.660 . S
N116 C117 1.305 1_645 S
C117 N116 1.305 1_465 S
C117 C119 1.407 . S
C117 H124 0.930 . S
C118 C106 1.410 . S
C118 C119 1.345 1_655 S
C118 H126 0.930 . S
C119 C117 1.407 . S
C119 C118 1.345 1_455 S
C119 H121 0.930 . S
H120 C113 0.930 . S
H121 C119 0.930 . S
H122 C110 0.930 . S
H123 C111 0.931 . S
H124 C117 0.930 . S
H125 C139 0.930 1_655 S
H126 C118 0.930 . S
H127 C145 0.930 . S
H128 C136 0.930 1_655 S
H129 C143 0.931 . S
H130 C107 0.929 . S
H131 C137 0.930 . S
H132 C170 0.930 . S
H133 C114 0.930 . S
H134 C169 0.929 . S
N135 Tb104 2.660 1_545 S
N135 C136 1.305 . S
N135 C140 1.360 . S
C136 H128 0.930 1_455 S
C136 N135 1.305 . S
C136 C139 1.407 . S
C137 H131 0.930 . S
C137 C138 1.410 . S
C137 C139 1.345 . S
C138 C137 1.410 . S
C138 C140 1.417 . S
C138 C170 1.432 . S
C139 H125 0.930 1_455 S
C139 C136 1.407 . S
C139 C137 1.345 . S
C140 N135 1.360 . S
C140 C138 1.417 . S
C140 C144 1.432 . S
H141 C146 0.930 . S
N142 Tb104 2.598 1_545 S
N142 C144 1.364 . S
N142 C145 1.323 1_545 S
C143 H129 0.931 . S
C143 C145 1.392 . S
C143 C146 1.370 1_565 S
C144 C140 1.432 . S
C144 N142 1.364 . S
C144 C147 1.414 . S
C145 H127 0.930 . S
C145 N142 1.323 1_565 S
C145 C143 1.392 . S
C146 H141 0.930 . S
C146 C143 1.370 1_545 S
C146 C147 1.385 . S
C147 C144 1.414 . S
C147 C146 1.385 . S
C147 C169 1.444 . S
O148 Tb104 2.546 . S
O148 C168 1.251 . S
O149 Tb104 2.610 1_655 S
O149 Tb115 2.362 1_565 S
O149 C160 1.283 . S
O150 Tb115 2.421 . S
O150 C167 1.262 . S
O151 Tb104 2.320 1_655 S
O151 C167 1.260 1_565 S
O152 Tb104 2.552 . S
O152 C160 1.243 1_455 S
O153 Tb104 2.413 . S
O153 C168 1.256 . S
O154 Tb115 2.546 . S
O154 C179 1.251 . S
O155 Tb104 2.362 1_545 S
O155 Tb115 2.610 1_455 S
O155 C171 1.283 . S
O156 Tb104 2.421 . S
O156 C178 1.262 1_565 S
O157 Tb115 2.320 1_455 S
O157 C178 1.260 . S
O158 Tb115 2.552 1_455 S
O158 C171 1.243 . S
O159 Tb115 2.412 . S
O159 C179 1.253 . S
C160 O149 1.283 . S
C160 O152 1.243 1_655 S
C161 C163 1.382 . S
C161 C165 1.393 . S
C161 C168 1.500 . S
C162 C163 1.400 . S
C162 C164 1.384 . S
C163 C161 1.382 . S
C163 C162 1.400 . S
C163 H180 0.930 1_455 S
C164 C162 1.384 . S
C164 C166 1.392 . S
C164 H181 0.931 . S
C165 C161 1.393 . S
C165 C166 1.401 . S
C165 H182 0.930 . S
C166 C164 1.392 . S
C166 C165 1.401 . S
C166 H183 0.930 . S
C167 O150 1.262 . S
C167 O151 1.260 1_545 S
C168 Tb104 2.833 . S
C168 O148 1.251 . S
C168 O153 1.256 . S
C168 C161 1.500 . S
C169 H134 0.929 . S
C169 C147 1.444 . S
C169 C170 1.317 . S
C170 H132 0.930 . S
C170 C138 1.432 . S
C170 C169 1.317 . S
C171 O155 1.283 . S
C171 O158 1.243 . S
C172 C173 1.344 1_655 S
C172 C176 1.393 . S
C172 C179 1.500 . S
C173 C172 1.344 1_455 S
C173 C174 1.398 1_455 S
C173 H184 0.971 . S
C174 C173 1.398 1_655 S
C174 C175 1.396 . S
C175 C174 1.396 . S
C175 C177 1.392 . S
C175 H185 0.931 . S
C176 C172 1.393 . S
C176 C177 1.401 . S
C176 H186 0.930 . S
C177 C175 1.392 . S
C177 C176 1.401 . S
C177 H187 0.930 . S
C178 O156 1.262 1_545 S
C178 O157 1.260 . S
C179 Tb115 2.833 . S
C179 O154 1.251 . S
C179 O159 1.253 . S
C179 C172 1.500 . S
H180 C163 0.930 1_655 S
H181 C164 0.931 . S
H182 C165 0.930 . S
H183 C166 0.930 . S
H184 C173 0.971 . S
H185 C175 0.931 . S
H186 C176 0.930 . S
H187 C177 0.930 . S
Tb188 N219 2.660 . S
Tb188 N226 2.600 . S
Tb188 O232 2.546 . S
Tb188 O233 2.610 1_545 S
Tb188 O235 2.320 1_545 S
Tb188 O236 2.552 . S
Tb188 O237 2.413 . S
Tb188 O239 2.362 . S
Tb188 O240 2.421 . S
Tb188 C252 2.833 . S
C189 C192 1.432 . S
C189 C193 1.414 . S
C189 N196 1.359 . S
C190 C192 1.417 . S
C190 C194 1.432 . S
C190 C202 1.410 . S
C191 C193 1.444 . S
C191 C194 1.317 . S
C191 H214 0.929 . S
C192 C189 1.432 . S
C192 C190 1.417 . S
C192 N200 1.360 . S
C193 C189 1.414 . S
C193 C191 1.444 . S
C193 C198 1.385 . S
C194 C190 1.432 . S
C194 C191 1.317 . S
C194 H206 0.930 . S
C195 C197 1.392 . S
C195 C198 1.370 . S
C195 H207 0.931 . S
N196 C189 1.359 . S
N196 C197 1.327 . S
N196 Tb199 2.600 . S
C197 C195 1.392 . S
C197 N196 1.327 . S
C197 H204 0.930 . S
C198 C193 1.385 . S
C198 C195 1.370 . S
C198 H217 0.930 . S
Tb199 N196 2.600 . S
Tb199 N200 2.660 . S
Tb199 O233 2.362 . S
Tb199 O234 2.421 . S
Tb199 O238 2.546 . S
Tb199 O239 2.610 1_565 S
Tb199 O241 2.320 1_565 S
Tb199 O242 2.552 1_565 S
Tb199 O243 2.413 1_565 S
Tb199 C263 2.833 . S
N200 C192 1.360 . S
N200 Tb199 2.660 . S
N200 C201 1.305 1_565 S
C201 N200 1.305 1_545 S
C201 C203 1.407 . S
C201 H208 0.930 . S
C202 C190 1.410 . S
C202 C203 1.345 1_565 S
C202 H210 0.930 . S
C203 C201 1.407 . S
C203 C202 1.345 1_545 S
C203 H205 0.930 . S
H204 C197 0.930 . S
H205 C203 0.930 . S
H206 C194 0.930 . S
H207 C195 0.931 . S
H208 C201 0.930 . S
H209 C223 0.930 1_565 S
H210 C202 0.930 . S
H211 C229 0.930 . S
H212 C220 0.930 1_565 S
H213 C227 0.931 . S
H214 C191 0.929 . S
H215 C221 0.930 . S
H216 C254 0.930 . S
H217 C198 0.930 . S
H218 C253 0.929 . S
N219 Tb188 2.660 . S
N219 C220 1.305 . S
N219 C224 1.360 . S
C220 H212 0.930 1_545 S
C220 N219 1.305 . S
C220 C223 1.407 . S
C221 H215 0.930 . S
C221 C222 1.410 . S
C221 C223 1.345 . S
C222 C221 1.410 . S
C222 C224 1.417 . S
C222 C254 1.432 . S
C223 H209 0.930 1_545 S
C223 C220 1.407 . S
C223 C221 1.345 . S
C224 N219 1.360 . S
C224 C222 1.417 . S
C224 C228 1.432 . S
H225 C230 0.930 . S
N226 Tb188 2.600 . S
N226 C228 1.359 . S
N226 C229 1.327 . S
C227 H213 0.931 . S
C227 C229 1.392 . S
C227 C230 1.370 . S
C228 C224 1.432 . S
C228 N226 1.359 . S
C228 C231 1.414 . S
C229 H211 0.930 . S
C229 N226 1.327 . S
C229 C227 1.392 . S
C230 H225 0.930 . S
C230 C227 1.370 . S
C230 C231 1.385 . S
C231 C228 1.414 . S
C231 C230 1.385 . S
C231 C253 1.444 . S
O232 Tb188 2.546 . S
O232 C252 1.251 . S
O233 Tb188 2.610 1_565 S
O233 Tb199 2.362 . S
O233 C244 1.283 1_565 S
O234 Tb199 2.421 . S
O234 C251 1.262 . S
O235 Tb188 2.320 1_565 S
O235 C251 1.260 . S
O236 Tb188 2.552 . S
O236 C244 1.250 . S
O237 Tb188 2.413 . S
O237 C252 1.256 . S
O238 Tb199 2.546 . S
O238 C263 1.251 . S
O239 Tb188 2.362 . S
O239 Tb199 2.610 1_545 S
O239 C255 1.283 . S
O240 Tb188 2.421 . S
O240 C262 1.262 . S
O241 Tb199 2.320 1_545 S
O241 C262 1.260 . S
O242 Tb199 2.552 1_545 S
O242 C255 1.243 . S
O243 Tb199 2.413 1_545 S
O243 C263 1.256 1_545 S
C244 O233 1.283 1_545 S
C244 O236 1.250 . S
C245 C247 1.382 . S
C245 C249 1.393 . S
C245 C252 1.500 . S
C246 C247 1.400 . S
C246 C248 1.384 . S
C247 C245 1.382 . S
C247 C246 1.400 . S
C247 H264 0.930 . S
C248 C246 1.384 . S
C248 C250 1.392 . S
C248 H265 0.931 . S
C249 C245 1.393 . S
C249 C250 1.401 . S
C249 H266 0.930 . S
C250 C248 1.392 . S
C250 C249 1.401 . S
C250 H267 0.930 . S
C251 O234 1.262 . S
C251 O235 1.260 . S
C252 Tb188 2.833 . S
C252 O232 1.251 . S
C252 O237 1.256 . S
C252 C245 1.500 . S
C253 H218 0.929 . S
C253 C231 1.444 . S
C253 C254 1.317 . S
C254 H216 0.930 . S
C254 C222 1.432 . S
C254 C253 1.317 . S
C255 O239 1.283 . S
C255 O242 1.243 . S
C256 C257 1.382 1_565 S
C256 C260 1.393 . S
C256 C263 1.500 . S
C257 C256 1.382 1_545 S
C257 C258 1.405 . S
C257 H268 0.930 . S
C258 C257 1.405 . S
C258 C259 1.332 1_545 S
C259 C258 1.332 1_565 S
C259 C261 1.392 . S
C259 H269 0.931 . S
C260 C256 1.393 . S
C260 C261 1.401 . S
C260 H270 0.930 . S
C261 C259 1.392 . S
C261 C260 1.401 . S
C261 H271 0.930 . S
C262 O240 1.262 . S
C262 O241 1.260 . S
C263 Tb199 2.833 . S
C263 O238 1.251 . S
C263 O243 1.256 1_565 S
C263 C256 1.500 . S
H264 C247 0.930 . S
H265 C248 0.931 . S
H266 C249 0.930 . S
H267 C250 0.930 . S
H268 C257 0.930 . S
H269 C259 0.931 . S
H270 C260 0.930 . S
H271 C261 0.930 . S
Tb272 N303 2.660 . S
Tb272 N310 2.600 . S
Tb272 O316 2.546 . S
Tb272 O317 2.610 . S
Tb272 O319 2.320 . S
Tb272 O320 2.552 . S
Tb272 O321 2.413 . S
Tb272 O323 2.362 . S
Tb272 O324 2.421 . S
Tb272 C336 2.833 . S
C273 C276 1.432 . S
C273 C277 1.414 . S
C273 N280 1.359 . S
C274 C276 1.417 . S
C274 C278 1.432 . S
C274 C286 1.410 . S
C275 C277 1.444 . S
C275 C278 1.317 . S
C275 H298 0.929 . S
C276 C273 1.432 . S
C276 C274 1.417 . S
C276 N284 1.360 . S
C277 C273 1.414 . S
C277 C275 1.444 . S
C277 C282 1.385 . S
C278 C274 1.432 . S
C278 C275 1.317 . S
C278 H290 0.930 . S
C279 C281 1.392 . S
C279 C282 1.370 . S
C279 H291 0.931 . S
N280 C273 1.359 . S
N280 C281 1.327 . S
N280 Tb283 2.600 . S
C281 C279 1.392 . S
C281 N280 1.327 . S
C281 H288 0.930 . S
C282 C277 1.385 . S
C282 C279 1.370 . S
C282 H301 0.930 . S
Tb283 N280 2.600 . S
Tb283 N284 2.660 . S
Tb283 O317 2.362 . S
Tb283 O318 2.421 . S
Tb283 O322 2.546 . S
Tb283 O323 2.610 . S
Tb283 O325 2.320 . S
Tb283 O326 2.552 . S
Tb283 O327 2.413 . S
Tb283 C347 2.833 . S
N284 C276 1.360 . S
N284 Tb283 2.660 . S
N284 C285 1.305 . S
C285 N284 1.305 . S
C285 C287 1.407 . S
C285 H292 0.930 . S
C286 C274 1.410 . S
C286 C287 1.345 . S
C286 H294 0.930 . S
C287 C285 1.407 . S
C287 C286 1.345 . S
C287 H289 0.930 . S
H288 C281 0.930 . S
H289 C287 0.930 . S
H290 C278 0.930 . S
H291 C279 0.931 . S
H292 C285 0.930 . S
H293 C307 0.930 . S
H294 C286 0.930 . S
H295 C313 0.930 . S
H296 C304 0.930 . S
H297 C311 0.931 . S
H298 C275 0.929 . S
H299 C305 0.930 . S
H300 C338 0.930 . S
H301 C282 0.930 . S
H302 C337 0.929 . S
N303 Tb272 2.660 . S
N303 C304 1.305 . S
N303 C308 1.360 . S
C304 H296 0.930 . S
C304 N303 1.305 . S
C304 C307 1.407 . S
C305 H299 0.930 . S
C305 C306 1.410 . S
C305 C307 1.345 . S
C306 C305 1.410 . S
C306 C308 1.417 . S
C306 C338 1.432 . S
C307 H293 0.930 . S
C307 C304 1.407 . S
C307 C305 1.345 . S
C308 N303 1.360 . S
C308 C306 1.417 . S
C308 C312 1.432 . S
H309 C314 0.930 . S
N310 Tb272 2.600 . S
N310 C312 1.359 . S
N310 C313 1.327 . S
C311 H297 0.931 . S
C311 C313 1.392 . S
C311 C314 1.370 . S
C312 C308 1.432 . S
C312 N310 1.359 . S
C312 C315 1.414 . S
C313 H295 0.930 . S
C313 N310 1.327 . S
C313 C311 1.392 . S
C314 H309 0.930 . S
C314 C311 1.370 . S
C314 C315 1.385 . S
C315 C312 1.414 . S
C315 C314 1.385 . S
C315 C337 1.444 . S
O316 Tb272 2.546 . S
O316 C336 1.251 . S
O317 Tb272 2.610 . S
O317 Tb283 2.362 . S
O317 C328 1.283 . S
O318 Tb283 2.421 . S
O318 C335 1.262 . S
O319 Tb272 2.320 . S
O319 C335 1.260 . S
O320 Tb272 2.552 . S
O320 C328 1.243 . S
O321 Tb272 2.413 . S
O321 C336 1.256 . S
O322 Tb283 2.546 . S
O322 C347 1.251 . S
O323 Tb272 2.362 . S
O323 Tb283 2.610 . S
O323 C339 1.283 . S
O324 Tb272 2.421 . S
O324 C346 1.262 . S
O325 Tb283 2.320 . S
O325 C346 1.260 . S
O326 Tb283 2.552 . S
O326 C339 1.243 . S
O327 Tb283 2.413 . S
O327 C347 1.256 . S
C328 O317 1.283 . S
C328 O320 1.243 . S
C329 C331 1.382 . S
C329 C333 1.393 . S
C329 C336 1.500 . S
C330 C331 1.400 . S
C330 C332 1.384 . S
C331 C329 1.382 . S
C331 C330 1.400 . S
C331 H348 0.930 . S
C332 C330 1.384 . S
C332 C334 1.392 . S
C332 H349 0.931 . S
C333 C329 1.393 . S
C333 C334 1.401 . S
C333 H350 0.930 . S
C334 C332 1.392 . S
C334 C333 1.401 . S
C334 H351 0.930 . S
C335 O318 1.262 . S
C335 O319 1.260 . S
C336 Tb272 2.833 . S
C336 O316 1.251 . S
C336 O321 1.256 . S
C336 C329 1.500 . S
C337 H302 0.929 . S
C337 C315 1.444 . S
C337 C338 1.317 . S
C338 H300 0.930 . S
C338 C306 1.432 . S
C338 C337 1.317 . S
C339 O323 1.283 . S
C339 O326 1.243 . S
C340 C341 1.382 . S
C340 C344 1.393 . S
C340 C347 1.500 . S
C341 C340 1.382 . S
C341 C342 1.400 . S
C341 H352 0.930 . S
C342 C341 1.400 . S
C342 C343 1.384 . S
C343 C342 1.384 . S
C343 C345 1.392 . S
C343 H353 0.931 . S
C344 C340 1.393 . S
C344 C345 1.401 . S
C344 H354 0.930 . S
C345 C343 1.392 . S
C345 C344 1.401 . S
C345 H355 0.930 1_556 S
C346 O324 1.262 . S
C346 O325 1.260 . S
C347 Tb283 2.833 . S
C347 O322 1.251 . S
C347 O327 1.256 . S
C347 C340 1.500 . S
H348 C331 0.930 . S
H349 C332 0.931 . S
H350 C333 0.930 . S
H351 C334 0.930 . S
H352 C341 0.930 . S
H353 C343 0.931 . S
H354 C344 0.930 . S
H355 C345 0.930 1_554 S
Tb356 N387 2.660 . S
Tb356 N394 2.600 . S
Tb356 O400 2.546 . S
Tb356 O401 2.610 . S
Tb356 O403 2.320 . S
Tb356 O404 2.552 . S
Tb356 O405 2.413 . S
Tb356 O407 2.362 . S
Tb356 O408 2.421 1_455 S
Tb356 C420 2.833 . S
C357 C360 1.432 . S
C357 C361 1.414 . S
C357 N364 1.359 . S
C358 C360 1.417 . S
C358 C362 1.432 . S
C358 C370 1.410 . S
C359 C361 1.444 . S
C359 C362 1.317 . S
C359 H382 0.929 . S
C360 C357 1.432 . S
C360 C358 1.417 . S
C360 N368 1.360 . S
C361 C357 1.414 . S
C361 C359 1.444 . S
C361 C366 1.385 1_655 S
C362 C358 1.432 . S
C362 C359 1.317 . S
C362 H374 0.930 . S
C363 C365 1.392 . S
C363 C366 1.370 . S
C363 H375 0.931 . S
N364 C357 1.359 . S
N364 C365 1.327 1_655 S
N364 Tb367 2.600 . S
C365 C363 1.392 . S
C365 N364 1.327 1_455 S
C365 H372 0.930 . S
C366 C361 1.385 1_455 S
C366 C363 1.370 . S
C366 H385 0.930 . S
Tb367 N364 2.600 . S
Tb367 N368 2.660 . S
Tb367 O401 2.362 1_655 S
Tb367 O402 2.421 1_655 S
Tb367 O406 2.546 . S
Tb367 O407 2.610 1_655 S
Tb367 O409 2.320 . S
Tb367 O410 2.552 . S
Tb367 O411 2.413 . S
Tb367 C431 2.833 . S
N368 C360 1.360 . S
N368 Tb367 2.660 . S
N368 C369 1.305 . S
C369 N368 1.305 . S
C369 C371 1.407 . S
C369 H376 0.930 . S
C370 C358 1.410 . S
C370 C371 1.345 . S
C370 H378 0.930 . S
C371 C369 1.407 . S
C371 C370 1.345 . S
C371 H373 0.930 . S
H372 C365 0.930 . S
H373 C371 0.930 . S
H374 C362 0.930 . S
H375 C363 0.931 . S
H376 C369 0.930 . S
H377 C391 0.930 . S
H378 C370 0.930 . S
H379 C397 0.930 1_655 S
H380 C388 0.930 . S
H381 C395 0.931 1_655 S
H382 C359 0.929 . S
H383 C389 0.930 . S
H384 C422 0.930 . S
H385 C366 0.930 . S
H386 C421 0.929 . S
N387 Tb356 2.660 . S
N387 C388 1.305 . S
N387 C392 1.360 . S
C388 H380 0.930 . S
C388 N387 1.305 . S
C388 C391 1.407 . S
C389 H383 0.930 . S
C389 C390 1.410 . S
C389 C391 1.345 . S
C390 C389 1.410 . S
C390 C392 1.417 . S
C390 C422 1.432 . S
C391 H377 0.930 . S
C391 C388 1.407 . S
C391 C389 1.345 . S
C392 N387 1.360 . S
C392 C390 1.417 . S
C392 C396 1.432 . S
H393 C398 0.930 . S
N394 Tb356 2.600 . S
N394 C396 1.359 . S
N394 C397 1.327 . S
C395 H381 0.931 1_455 S
C395 C397 1.392 . S
C395 C398 1.370 . S
C396 C392 1.432 . S
C396 N394 1.359 . S
C396 C399 1.414 . S
C397 H379 0.930 1_455 S
C397 N394 1.327 . S
C397 C395 1.392 . S
C398 H393 0.930 . S
C398 C395 1.370 . S
C398 C399 1.385 . S
C399 C396 1.414 . S
C399 C398 1.385 . S
C399 C421 1.444 . S
O400 Tb356 2.546 . S
O400 C420 1.251 . S
O401 Tb356 2.610 . S
O401 Tb367 2.362 1_455 S
O401 C412 1.283 . S
O402 Tb367 2.421 1_455 S
O402 C419 1.262 . S
O403 Tb356 2.320 . S
O403 C419 1.260 . S
O404 Tb356 2.552 . S
O404 C412 1.243 . S
O405 Tb356 2.413 . S
O405 C420 1.256 . S
O406 Tb367 2.546 . S
O406 C431 1.251 . S
O407 Tb356 2.362 . S
O407 Tb367 2.610 1_455 S
O407 C423 1.283 1_455 S
O408 Tb356 2.421 1_655 S
O408 C430 1.262 . S
O409 Tb367 2.320 . S
O409 C430 1.260 . S
O410 Tb367 2.552 . S
O410 C423 1.243 . S
O411 Tb367 2.413 . S
O411 C431 1.256 . S
C412 O401 1.283 . S
C412 O404 1.243 . S
C413 C415 1.382 . S
C413 C417 1.393 . S
C413 C420 1.500 . S
C414 C415 1.400 . S
C414 C416 1.384 . S
C415 C413 1.382 . S
C415 C414 1.400 . S
C415 H432 0.930 . S
C416 C414 1.384 . S
C416 C418 1.392 . S
C416 H433 0.931 . S
C417 C413 1.393 . S
C417 C418 1.401 . S
C417 H434 0.930 . S
C418 C416 1.392 . S
C418 C417 1.401 . S
C418 H435 0.930 . S
C419 O402 1.262 . S
C419 O403 1.260 . S
C420 Tb356 2.833 . S
C420 O400 1.251 . S
C420 O405 1.256 . S
C420 C413 1.500 . S
C421 H386 0.929 . S
C421 C399 1.444 . S
C421 C422 1.317 . S
C422 H384 0.930 . S
C422 C390 1.432 . S
C422 C421 1.317 . S
C423 O407 1.283 1_655 S
C423 O410 1.243 . S
C424 C425 1.382 . S
C424 C428 1.393 . S
C424 C431 1.500 . S
C425 C424 1.382 . S
C425 C426 1.400 . S
C425 H436 0.930 . S
C426 C425 1.400 . S
C426 C427 1.384 . S
C427 C426 1.384 . S
C427 C429 1.392 . S
C427 H437 0.931 . S
C428 C424 1.393 . S
C428 C429 1.401 . S
C428 H438 0.930 . S
C429 C427 1.392 . S
C429 C428 1.401 . S
C429 H439 0.930 1_556 S
C430 O408 1.262 . S
C430 O409 1.260 . S
C431 Tb367 2.833 . S
C431 O406 1.251 . S
C431 O411 1.256 . S
C431 C424 1.500 . S
H432 C415 0.930 . S
H433 C416 0.931 . S
H434 C417 0.930 . S
H435 C418 0.930 . S
H436 C425 0.930 . S
H437 C427 0.931 . S
H438 C428 0.930 . S
H439 C429 0.930 1_554 S
H440 C458 0.951 . S
H441 C460 0.951 . S
H442 C462 0.950 . S
H443 C463 0.950 . S
H444 C465 0.950 . S
H445 C468 0.950 . S
H446 C469 0.950 . S
H447 C471 0.950 . S
H448 C472 0.950 . S
H449 C473 0.951 . S
H450 C475 0.951 . S
H451 C477 0.950 . S
H452 C478 0.950 . S
H453 C480 0.950 . S
H454 C483 0.950 . S
H455 C484 0.950 . S
H456 C486 0.950 . S
H457 C487 0.950 . S
C458 H440 0.951 . S
C458 C459 1.366 . S
C458 C460 1.388 . S
C459 C458 1.366 . S
C459 C463 1.385 . S
C460 H441 0.951 . S
C460 C458 1.388 . S
C460 C461 1.366 . S
C461 C460 1.366 . S
C461 C462 1.414 . S
C461 C464 1.499 . S
C462 H442 0.950 . S
C462 C461 1.414 . S
C462 C463 1.374 . S
C463 H443 0.950 . S
C463 C459 1.385 . S
C463 C462 1.374 . S
C464 C461 1.499 . S
C464 C465 1.373 . S
C464 C466 1.389 . S
C465 H444 0.950 . S
C465 C464 1.373 . S
C465 C481 1.377 . S
C466 C464 1.389 . S
C466 C467 1.524 . S
C466 C480 1.377 . S
C467 C466 1.524 . S
C467 C468 1.397 . S
C467 C472 1.363 . S
C468 H445 0.950 . S
C468 C467 1.397 . S
C468 C469 1.334 . S
C469 H446 0.950 . S
C469 C468 1.334 . S
C469 C470 1.287 . S
C470 C469 1.287 . S
C470 C471 1.524 . S
C470 H489 0.913 . S
C471 H447 0.950 . S
C471 C470 1.524 . S
C471 C472 1.415 . S
C472 H448 0.950 . S
C472 C467 1.363 . S
C472 C471 1.415 . S
C473 H449 0.951 . S
C473 C474 1.366 . S
C473 C475 1.388 . S
C474 C473 1.366 . S
C474 C478 1.385 . S
C475 H450 0.951 . S
C475 C473 1.388 . S
C475 C476 1.366 . S
C476 C475 1.366 . S
C476 C477 1.414 . S
C476 C479 1.499 . S
C477 H451 0.950 . S
C477 C476 1.414 . S
C477 C478 1.374 . S
C478 H452 0.950 . S
C478 C474 1.385 . S
C478 C477 1.374 . S
C479 C476 1.499 . S
C479 C480 1.373 . S
C479 C481 1.389 . S
C480 H453 0.950 . S
C480 C466 1.377 . S
C480 C479 1.373 . S
C481 C465 1.377 . S
C481 C479 1.389 . S
C481 C482 1.524 . S
C482 C481 1.524 . S
C482 C483 1.397 . S
C482 C487 1.363 . S
C483 H454 0.950 . S
C483 C482 1.397 . S
C483 C484 1.334 . S
C484 H455 0.950 . S
C484 C483 1.334 . S
C484 C485 1.287 . S
C485 C484 1.287 . S
C485 C486 1.524 . S
C485 H488 0.999 . S
C486 H456 0.950 . S
C486 C485 1.524 . S
C486 C487 1.415 . S
C487 H457 0.950 . S
C487 C482 1.363 . S
C487 C486 1.415 . S
H488 C485 0.999 . S
H489 C470 0.913 . S
H490 C508 0.951 . S
H491 C510 0.951 . S
H492 C512 0.950 . S
H493 C513 0.950 . S
H494 C515 0.950 . S
H495 C518 0.950 . S
H496 C519 0.950 . S
H497 C521 0.950 . S
H498 C522 0.950 . S
H499 C523 0.951 . S
H500 C525 0.951 . S
H501 C527 0.950 . S
H502 C528 0.950 . S
H503 C530 0.950 . S
H504 C533 0.950 . S
H505 C534 0.950 . S
H506 C536 0.950 . S
H507 C537 0.950 . S
C508 H490 0.951 . S
C508 C509 1.366 . S
C508 C510 1.388 . S
C509 C508 1.366 . S
C509 C513 1.385 . S
C510 H491 0.951 . S
C510 C508 1.388 . S
C510 C511 1.366 . S
C511 C510 1.366 . S
C511 C512 1.414 . S
C511 C514 1.499 . S
C512 H492 0.950 . S
C512 C511 1.414 . S
C512 C513 1.374 . S
C513 H493 0.950 . S
C513 C509 1.385 . S
C513 C512 1.374 . S
C514 C511 1.499 . S
C514 C515 1.373 . S
C514 C516 1.389 . S
C515 H494 0.950 . S
C515 C514 1.373 . S
C515 C531 1.377 . S
C516 C514 1.389 . S
C516 C517 1.524 . S
C516 C530 1.377 . S
C517 C516 1.524 . S
C517 C518 1.397 . S
C517 C522 1.363 . S
C518 H495 0.950 . S
C518 C517 1.397 . S
C518 C519 1.334 . S
C519 H496 0.950 . S
C519 C518 1.334 . S
C519 C520 1.287 . S
C520 C519 1.287 . S
C520 C521 1.524 . S
C520 H539 0.913 . S
C521 H497 0.950 . S
C521 C520 1.524 . S
C521 C522 1.415 . S
C522 H498 0.950 . S
C522 C517 1.363 . S
C522 C521 1.415 . S
C523 H499 0.951 . S
C523 C524 1.366 . S
C523 C525 1.388 . S
C524 C523 1.366 . S
C524 C528 1.385 . S
C525 H500 0.951 . S
C525 C523 1.388 . S
C525 C526 1.366 . S
C526 C525 1.366 . S
C526 C527 1.414 . S
C526 C529 1.499 . S
C527 H501 0.950 . S
C527 C526 1.414 . S
C527 C528 1.374 . S
C528 H502 0.950 . S
C528 C524 1.385 . S
C528 C527 1.374 . S
C529 C526 1.499 . S
C529 C530 1.373 . S
C529 C531 1.389 . S
C530 H503 0.950 . S
C530 C516 1.377 . S
C530 C529 1.373 . S
C531 C515 1.377 . S
C531 C529 1.389 . S
C531 C532 1.524 . S
C532 C531 1.524 . S
C532 C533 1.397 . S
C532 C537 1.363 . S
C533 H504 0.950 . S
C533 C532 1.397 . S
C533 C534 1.334 . S
C534 H505 0.950 . S
C534 C533 1.334 . S
C534 C535 1.287 . S
C535 C534 1.287 . S
C535 C536 1.524 . S
C535 H538 0.999 . S
C536 H506 0.950 . S
C536 C535 1.524 . S
C536 C537 1.415 . S
C537 H507 0.950 . S
C537 C532 1.363 . S
C537 C536 1.415 . S
H538 C535 0.999 . S
H539 C520 0.913 . S
H540 C558 0.951 . S
H541 C560 0.951 . S
H542 C562 0.950 . S
H543 C563 0.950 . S
H544 C565 0.950 . S
H545 C568 0.950 . S
H546 C569 0.950 . S
H547 C571 0.950 . S
H548 C572 0.950 . S
H549 C573 0.951 . S
H550 C575 0.951 . S
H551 C577 0.950 . S
H552 C578 0.950 . S
H553 C580 0.950 . S
H554 C583 0.950 . S
H555 C584 0.950 . S
H556 C586 0.950 . S
H557 C587 0.950 . S
C558 H540 0.951 . S
C558 C559 1.366 . S
C558 C560 1.388 . S
C559 C558 1.366 . S
C559 C563 1.385 . S
C560 H541 0.951 . S
C560 C558 1.388 . S
C560 C561 1.366 . S
C561 C560 1.366 . S
C561 C562 1.414 . S
C561 C564 1.499 . S
C562 H542 0.950 . S
C562 C561 1.414 . S
C562 C563 1.374 . S
C563 H543 0.950 . S
C563 C559 1.385 . S
C563 C562 1.374 . S
C564 C561 1.499 . S
C564 C565 1.373 . S
C564 C566 1.389 . S
C565 H544 0.950 . S
C565 C564 1.373 . S
C565 C581 1.377 . S
C566 C564 1.389 . S
C566 C567 1.524 . S
C566 C580 1.377 . S
C567 C566 1.524 . S
C567 C568 1.397 . S
C567 C572 1.363 . S
C568 H545 0.950 . S
C568 C567 1.397 . S
C568 C569 1.334 . S
C569 H546 0.950 . S
C569 C568 1.334 . S
C569 C570 1.287 . S
C570 C569 1.287 . S
C570 C571 1.524 . S
C570 H589 0.913 . S
C571 H547 0.950 . S
C571 C570 1.524 . S
C571 C572 1.415 . S
C572 H548 0.950 . S
C572 C567 1.363 . S
C572 C571 1.415 . S
C573 H549 0.951 . S
C573 C574 1.366 . S
C573 C575 1.388 . S
C574 C573 1.366 . S
C574 C578 1.385 . S
C575 H550 0.951 . S
C575 C573 1.388 . S
C575 C576 1.366 . S
C576 C575 1.366 . S
C576 C577 1.414 . S
C576 C579 1.499 . S
C577 H551 0.950 . S
C577 C576 1.414 . S
C577 C578 1.374 . S
C578 H552 0.950 . S
C578 C574 1.385 . S
C578 C577 1.374 . S
C579 C576 1.499 . S
C579 C580 1.373 . S
C579 C581 1.389 . S
C580 H553 0.950 . S
C580 C566 1.377 . S
C580 C579 1.373 . S
C581 C565 1.377 . S
C581 C579 1.389 . S
C581 C582 1.524 . S
C582 C581 1.524 . S
C582 C583 1.397 . S
C582 C587 1.363 . S
C583 H554 0.950 . S
C583 C582 1.397 . S
C583 C584 1.334 . S
C584 H555 0.950 . S
C584 C583 1.334 . S
C584 C585 1.287 . S
C585 C584 1.287 . S
C585 C586 1.524 . S
C585 H588 0.999 . S
C586 H556 0.950 . S
C586 C585 1.524 . S
C586 C587 1.415 . S
C587 H557 0.950 . S
C587 C582 1.363 . S
C587 C586 1.415 . S
H588 C585 0.999 . S
H589 C570 0.913 . S
H590 C608 0.951 . S
H591 C610 0.951 . S
H592 C612 0.950 . S
H593 C613 0.950 . S
H594 C615 0.950 . S
H595 C618 0.950 . S
H596 C619 0.950 . S
H597 C621 0.950 . S
H598 C622 0.950 . S
H599 C623 0.951 . S
H600 C625 0.951 . S
H601 C627 0.950 . S
H602 C628 0.950 . S
H603 C630 0.950 . S
H604 C633 0.950 . S
H605 C634 0.950 . S
H606 C636 0.950 . S
H607 C637 0.950 . S
C608 H590 0.951 . S
C608 C609 1.366 . S
C608 C610 1.388 . S
C609 C608 1.366 . S
C609 C613 1.385 . S
C610 H591 0.951 . S
C610 C608 1.388 . S
C610 C611 1.366 . S
C611 C610 1.366 . S
C611 C612 1.414 . S
C611 C614 1.499 . S
C612 H592 0.950 . S
C612 C611 1.414 . S
C612 C613 1.374 . S
C613 H593 0.950 . S
C613 C609 1.385 . S
C613 C612 1.374 . S
C614 C611 1.499 . S
C614 C615 1.373 . S
C614 C616 1.389 . S
C615 H594 0.950 . S
C615 C614 1.373 . S
C615 C631 1.377 . S
C616 C614 1.389 . S
C616 C617 1.524 . S
C616 C630 1.377 . S
C617 C616 1.524 . S
C617 C618 1.397 . S
C617 C622 1.363 1_455 S
C618 H595 0.950 . S
C618 C617 1.397 . S
C618 C619 1.334 1_455 S
C619 H596 0.950 . S
C619 C618 1.334 1_655 S
C619 C620 1.287 . S
C620 C619 1.287 . S
C620 C621 1.524 . S
C620 H639 0.913 . S
C621 H597 0.950 . S
C621 C620 1.524 . S
C621 C622 1.415 . S
C622 H598 0.950 . S
C622 C617 1.363 1_655 S
C622 C621 1.415 . S
C623 H599 0.951 . S
C623 C624 1.366 . S
C623 C625 1.388 . S
C624 C623 1.366 . S
C624 C628 1.385 . S
C625 H600 0.951 . S
C625 C623 1.388 . S
C625 C626 1.366 . S
C626 C625 1.366 . S
C626 C627 1.414 . S
C626 C629 1.499 . S
C627 H601 0.950 . S
C627 C626 1.414 . S
C627 C628 1.374 . S
C628 H602 0.950 . S
C628 C624 1.385 . S
C628 C627 1.374 . S
C629 C626 1.499 . S
C629 C630 1.373 . S
C629 C631 1.389 . S
C630 H603 0.950 . S
C630 C616 1.377 . S
C630 C629 1.373 . S
C631 C615 1.377 . S
C631 C629 1.389 . S
C631 C632 1.524 . S
C632 C631 1.524 . S
C632 C633 1.397 . S
C632 C637 1.363 . S
C633 H604 0.950 . S
C633 C632 1.397 . S
C633 C634 1.334 . S
C634 H605 0.950 . S
C634 C633 1.334 . S
C634 C635 1.287 . S
C635 C634 1.287 . S
C635 C636 1.524 . S
C635 H638 0.999 . S
C636 H606 0.950 . S
C636 C635 1.524 . S
C636 C637 1.415 . S
C637 H607 0.950 . S
C637 C632 1.363 . S
C637 C636 1.415 . S
H638 C635 0.999 . S
H639 C620 0.913 . S
H640 C658 0.951 . S
H641 C660 0.951 . S
H642 C662 0.950 1_556 S
H643 C663 0.950 . S
H644 C665 0.950 . S
H645 C668 0.950 1_545 S
H646 C669 0.950 . S
H647 C671 0.950 . S
H648 C672 0.950 . S
H649 C673 0.951 . S
H650 C675 0.951 1_545 S
H651 C677 0.950 . S
H652 C678 0.950 . S
H653 C680 0.950 . S
H654 C683 0.950 . S
H655 C684 0.950 . S
H656 C686 0.950 . S
H657 C687 0.950 . S
C658 H640 0.951 . S
C658 C659 1.366 . S
C658 C660 1.388 . S
C659 C658 1.366 . S
C659 C663 1.385 . S
C660 H641 0.951 . S
C660 C658 1.388 . S
C660 C661 1.366 . S
C661 C660 1.366 . S
C661 C662 1.414 . S
C661 C664 1.499 1_554 S
C662 H642 0.950 1_554 S
C662 C661 1.414 . S
C662 C663 1.374 . S
C663 H643 0.950 . S
C663 C659 1.385 . S
C663 C662 1.374 . S
C664 C661 1.499 1_556 S
C664 C665 1.373 . S
C664 C666 1.389 . S
C665 H644 0.950 . S
C665 C664 1.373 . S
C665 C681 1.377 . S
C666 C664 1.389 . S
C666 C667 1.524 1_556 S
C666 C680 1.377 . S
C667 C666 1.524 1_554 S
C667 C668 1.397 . S
C667 C672 1.363 . S
C668 H645 0.950 1_565 S
C668 C667 1.397 . S
C668 C669 1.334 1_565 S
C669 H646 0.950 . S
C669 C668 1.334 1_545 S
C669 C670 1.287 1_545 S
C670 C669 1.287 1_565 S
C670 C671 1.524 . S
C670 H689 0.917 . S
C671 H647 0.950 . S
C671 C670 1.524 . S
C671 C672 1.415 . S
C672 H648 0.950 . S
C672 C667 1.363 . S
C672 C671 1.415 . S
C673 H649 0.951 . S
C673 C674 1.366 1_545 S
C673 C675 1.388 1_545 S
C674 C673 1.366 1_565 S
C674 C678 1.385 . S
C675 H650 0.951 1_565 S
C675 C673 1.388 1_565 S
C675 C676 1.366 . S
C676 C675 1.366 . S
C676 C677 1.414 . S
C676 C679 1.499 . S
C677 H651 0.950 . S
C677 C676 1.414 . S
C677 C678 1.374 . S
C678 H652 0.950 . S
C678 C674 1.385 . S
C678 C677 1.374 . S
C679 C676 1.499 . S
C679 C680 1.373 . S
C679 C681 1.389 . S
C680 H653 0.950 . S
C680 C666 1.377 . S
C680 C679 1.373 . S
C681 C665 1.377 . S
C681 C679 1.389 . S
C681 C682 1.524 . S
C682 C681 1.524 . S
C682 C683 1.397 . S
C682 C687 1.363 . S
C683 H654 0.950 . S
C683 C682 1.397 . S
C683 C684 1.334 . S
C684 H655 0.950 . S
C684 C683 1.334 . S
C684 C685 1.287 . S
C685 C684 1.287 . S
C685 C686 1.524 . S
C685 H688 0.999 . S
C686 H656 0.950 . S
C686 C685 1.524 . S
C686 C687 1.415 . S
C687 H657 0.950 . S
C687 C682 1.363 . S
C687 C686 1.415 . S
H688 C685 0.999 . S
H689 C670 0.917 . S
H690 C708 0.951 . S
H691 C710 0.951 . S
H692 C712 0.950 1_556 S
H693 C713 0.950 . S
H694 C715 0.950 . S
H695 C718 0.950 . S
H696 C719 0.950 . S
H697 C721 0.950 . S
H698 C722 0.950 . S
H699 C723 0.951 . S
H700 C725 0.951 . S
H701 C727 0.950 . S
H702 C728 0.950 . S
H703 C730 0.950 . S
H704 C733 0.950 . S
H705 C734 0.950 . S
H706 C736 0.950 . S
H707 C737 0.950 . S
C708 H690 0.951 . S
C708 C709 1.366 . S
C708 C710 1.388 . S
C709 C708 1.366 . S
C709 C713 1.385 . S
C710 H691 0.951 . S
C710 C708 1.388 . S
C710 C711 1.366 . S
C711 C710 1.366 . S
C711 C712 1.414 . S
C711 C714 1.499 1_554 S
C712 H692 0.950 1_554 S
C712 C711 1.414 . S
C712 C713 1.374 . S
C713 H693 0.950 . S
C713 C709 1.385 . S
C713 C712 1.374 . S
C714 C711 1.499 1_556 S
C714 C715 1.373 . S
C714 C716 1.389 . S
C715 H694 0.950 . S
C715 C714 1.373 . S
C715 C731 1.377 . S
C716 C714 1.389 . S
C716 C717 1.524 . S
C716 C730 1.377 . S
C717 C716 1.524 . S
C717 C718 1.397 . S
C717 C722 1.363 . S
C718 H695 0.950 . S
C718 C717 1.397 . S
C718 C719 1.334 . S
C719 H696 0.950 . S
C719 C718 1.334 . S
C719 C720 1.287 . S
C720 C719 1.287 . S
C720 C721 1.524 . S
C720 H739 0.913 . S
C721 H697 0.950 . S
C721 C720 1.524 . S
C721 C722 1.415 . S
C722 H698 0.950 . S
C722 C717 1.363 . S
C722 C721 1.415 . S
C723 H699 0.951 . S
C723 C724 1.366 . S
C723 C725 1.388 . S
C724 C723 1.366 . S
C724 C728 1.385 . S
C725 H700 0.951 . S
C725 C723 1.388 . S
C725 C726 1.366 . S
C726 C725 1.366 . S
C726 C727 1.414 . S
C726 C729 1.499 . S
C727 H701 0.950 . S
C727 C726 1.414 . S
C727 C728 1.374 . S
C728 H702 0.950 . S
C728 C724 1.385 . S
C728 C727 1.374 . S
C729 C726 1.499 . S
C729 C730 1.373 . S
C729 C731 1.389 . S
C730 H703 0.950 . S
C730 C716 1.377 . S
C730 C729 1.373 . S
C731 C715 1.377 . S
C731 C729 1.389 . S
C731 C732 1.524 . S
C732 C731 1.524 . S
C732 C733 1.397 . S
C732 C737 1.363 . S
C733 H704 0.950 . S
C733 C732 1.397 . S
C733 C734 1.334 . S
C734 H705 0.950 . S
C734 C733 1.334 . S
C734 C735 1.287 . S
C735 C734 1.287 . S
C735 C736 1.524 . S
C735 H738 0.999 . S
C736 H706 0.950 . S
C736 C735 1.524 . S
C736 C737 1.415 . S
C737 H707 0.950 . S
C737 C732 1.363 . S
C737 C736 1.415 . S
H738 C735 0.999 . S
H739 C720 0.913 . S
H740 C758 0.951 . S
H741 C760 0.951 . S
H742 C762 0.950 . S
H743 C763 0.950 . S
H744 C765 0.950 1_554 S
H745 C768 0.950 . S
H746 C769 0.950 . S
H747 C771 0.950 . S
H748 C772 0.950 . S
H749 C773 0.951 . S
H750 C775 0.951 . S
H751 C777 0.950 . S
H752 C778 0.950 . S
H753 C780 0.950 . S
H754 C783 0.950 . S
H755 C784 0.950 . S
H756 C786 0.950 . S
H757 C787 0.950 . S
C758 H740 0.951 . S
C758 C759 1.366 . S
C758 C760 1.388 1_554 S
C759 C758 1.366 . S
C759 C763 1.385 . S
C760 H741 0.951 . S
C760 C758 1.388 1_556 S
C760 C761 1.366 1_556 S
C761 C760 1.366 1_554 S
C761 C762 1.414 . S
C761 C764 1.499 1_554 S
C762 H742 0.950 . S
C762 C761 1.414 . S
C762 C763 1.374 . S
C763 H743 0.950 . S
C763 C759 1.385 . S
C763 C762 1.374 . S
C764 C761 1.499 1_556 S
C764 C765 1.373 . S
C764 C766 1.389 . S
C765 H744 0.950 1_556 S
C765 C764 1.373 . S
C765 C781 1.377 . S
C766 C764 1.389 . S
C766 C767 1.524 . S
C766 C780 1.377 . S
C767 C766 1.524 . S
C767 C768 1.397 . S
C767 C772 1.363 . S
C768 H745 0.950 . S
C768 C767 1.397 . S
C768 C769 1.334 . S
C769 H746 0.950 . S
C769 C768 1.334 . S
C769 C770 1.287 . S
C770 C769 1.287 . S
C770 C771 1.524 . S
C770 H789 0.913 . S
C771 H747 0.950 . S
C771 C770 1.524 . S
C771 C772 1.415 . S
C772 H748 0.950 . S
C772 C767 1.363 . S
C772 C771 1.415 . S
C773 H749 0.951 . S
C773 C774 1.366 . S
C773 C775 1.388 . S
C774 C773 1.366 . S
C774 C778 1.385 . S
C775 H750 0.951 . S
C775 C773 1.388 . S
C775 C776 1.366 . S
C776 C775 1.366 . S
C776 C777 1.414 . S
C776 C779 1.499 . S
C777 H751 0.950 . S
C777 C776 1.414 . S
C777 C778 1.374 . S
C778 H752 0.950 . S
C778 C774 1.385 . S
C778 C777 1.374 . S
C779 C776 1.499 . S
C779 C780 1.373 . S
C779 C781 1.389 . S
C780 H753 0.950 . S
C780 C766 1.377 . S
C780 C779 1.373 . S
C781 C765 1.377 . S
C781 C779 1.389 . S
C781 C782 1.524 . S
C782 C781 1.524 . S
C782 C783 1.397 . S
C782 C787 1.363 1_556 S
C783 H754 0.950 . S
C783 C782 1.397 . S
C783 C784 1.334 . S
C784 H755 0.950 . S
C784 C783 1.334 . S
C784 C785 1.287 . S
C785 C784 1.287 . S
C785 C786 1.524 1_556 S
C785 H788 0.999 . S
C786 H756 0.950 . S
C786 C785 1.524 1_554 S
C786 C787 1.415 . S
C787 H757 0.950 . S
C787 C782 1.363 1_554 S
C787 C786 1.415 . S
H788 C785 0.999 . S
H789 C770 0.913 . S
H790 C808 0.951 . S
H791 C810 0.951 1_556 S
H792 C812 0.950 . S
H793 C813 0.950 . S
H794 C815 0.950 . S
H795 C818 0.950 . S
H796 C819 0.950 . S
H797 C821 0.950 . S
H798 C822 0.950 . S
H799 C823 0.951 1_455 S
H800 C825 0.961 . S
H801 C827 0.950 . S
H802 C828 0.950 . S
H803 C830 0.950 . S
H804 C833 0.950 . S
H805 C834 0.950 . S
H806 C836 0.950 . S
H807 C837 0.950 1_554 S
C808 H790 0.951 . S
C808 C809 1.366 . S
C808 C810 1.388 . S
C809 C808 1.366 . S
C809 C813 1.385 . S
C810 H791 0.951 1_554 S
C810 C808 1.388 . S
C810 C811 1.366 . S
C811 C810 1.366 . S
C811 C812 1.414 . S
C811 C814 1.499 1_554 S
C812 H792 0.950 . S
C812 C811 1.414 . S
C812 C813 1.374 . S
C813 H793 0.950 . S
C813 C809 1.385 . S
C813 C812 1.374 . S
C814 C811 1.499 1_556 S
C814 C815 1.373 . S
C814 C816 1.389 . S
C815 H794 0.950 . S
C815 C814 1.373 . S
C815 C831 1.377 . S
C816 C814 1.389 . S
C816 C817 1.524 . S
C816 C830 1.377 . S
C817 C816 1.524 . S
C817 C818 1.397 1_556 S
C817 C822 1.363 . S
C818 H795 0.950 . S
C818 C817 1.397 1_554 S
C818 C819 1.334 . S
C819 H796 0.950 . S
C819 C818 1.334 . S
C819 C820 1.287 1_554 S
C820 C819 1.287 1_556 S
C820 C821 1.524 . S
C820 H839 0.913 . S
C821 H797 0.950 . S
C821 C820 1.524 . S
C821 C822 1.415 . S
C822 H798 0.950 . S
C822 C817 1.363 . S
C822 C821 1.415 . S
C823 H799 0.951 1_655 S
C823 C824 1.366 . S
C823 C825 1.388 . S
C824 C823 1.366 . S
C824 C828 1.385 . S
C825 H800 0.961 . S
C825 C823 1.388 . S
C825 C826 1.366 . S
C826 C825 1.366 . S
C826 C827 1.414 . S
C826 C829 1.499 . S
C827 H801 0.950 . S
C827 C826 1.414 . S
C827 C828 1.374 . S
C828 H802 0.950 . S
C828 C824 1.385 . S
C828 C827 1.374 . S
C829 C826 1.499 . S
C829 C830 1.373 . S
C829 C831 1.389 . S
C830 H803 0.950 . S
C830 C816 1.377 . S
C830 C829 1.373 . S
C831 C815 1.377 . S
C831 C829 1.389 . S
C831 C832 1.524 1_655 S
C832 C831 1.524 1_455 S
C832 C833 1.397 . S
C832 C837 1.363 . S
C833 H804 0.950 . S
C833 C832 1.397 . S
C833 C834 1.334 . S
C834 H805 0.950 . S
C834 C833 1.334 . S
C834 C835 1.287 . S
C835 C834 1.287 . S
C835 C836 1.524 . S
C835 H838 0.999 . S
C836 H806 0.950 . S
C836 C835 1.524 . S
C836 C837 1.415 . S
C837 H807 0.950 1_556 S
C837 C832 1.363 . S
C837 C836 1.415 . S
H838 C835 0.999 . S
H839 C820 0.913 . S
H840 C858 0.951 . S
H841 C860 0.951 . S
H842 C862 0.950 . S
H843 C863 0.950 1_556 S
H844 C865 0.950 . S
H845 C868 0.950 . S
H846 C869 0.950 . S
H847 C871 0.950 . S
H848 C872 0.950 . S
H849 C873 0.951 . S
H850 C875 0.951 . S
H851 C877 0.950 . S
H852 C878 0.950 . S
H853 C880 0.950 . S
H854 C883 0.950 . S
H855 C884 0.950 . S
H856 C886 0.950 . S
H857 C887 0.950 1_455 S
C858 H840 0.951 . S
C858 C859 1.366 . S
C858 C860 1.388 . S
C859 C858 1.366 . S
C859 C863 1.385 . S
C860 H841 0.951 . S
C860 C858 1.388 . S
C860 C861 1.366 . S
C861 C860 1.366 . S
C861 C862 1.414 . S
C861 C864 1.499 . S
C862 H842 0.950 . S
C862 C861 1.414 . S
C862 C863 1.374 . S
C863 H843 0.950 1_554 S
C863 C859 1.385 . S
C863 C862 1.374 . S
C864 C861 1.499 . S
C864 C865 1.373 . S
C864 C866 1.389 . S
C865 H844 0.950 . S
C865 C864 1.373 . S
C865 C881 1.377 . S
C866 C864 1.389 . S
C866 C867 1.524 . S
C866 C880 1.377 . S
C867 C866 1.524 . S
C867 C868 1.397 . S
C867 C872 1.363 . S
C868 H845 0.950 . S
C868 C867 1.397 . S
C868 C869 1.334 . S
C869 H846 0.950 . S
C869 C868 1.334 . S
C869 C870 1.287 . S
C870 C869 1.287 . S
C870 C871 1.524 . S
C870 H889 0.913 . S
C871 H847 0.950 . S
C871 C870 1.524 . S
C871 C872 1.415 . S
C872 H848 0.950 . S
C872 C867 1.363 . S
C872 C871 1.415 . S
C873 H849 0.951 . S
C873 C874 1.366 . S
C873 C875 1.388 . S
C874 C873 1.366 . S
C874 C878 1.385 . S
C875 H850 0.951 . S
C875 C873 1.388 . S
C875 C876 1.366 . S
C876 C875 1.366 . S
C876 C877 1.414 . S
C876 C879 1.499 . S
C877 H851 0.950 . S
C877 C876 1.414 . S
C877 C878 1.374 . S
C878 H852 0.950 . S
C878 C874 1.385 . S
C878 C877 1.374 . S
C879 C876 1.499 . S
C879 C880 1.373 . S
C879 C881 1.389 . S
C880 H853 0.950 . S
C880 C866 1.377 . S
C880 C879 1.373 . S
C881 C865 1.377 . S
C881 C879 1.389 . S
C881 C882 1.551 . S
C882 C881 1.551 . S
C882 C883 1.372 1_455 S
C882 C887 1.361 1_455 S
C883 H854 0.950 . S
C883 C882 1.372 1_655 S
C883 C884 1.334 . S
C884 H855 0.950 . S
C884 C883 1.334 . S
C884 C885 1.287 . S
C885 C884 1.287 . S
C885 C886 1.524 . S
C885 H888 0.999 . S
C886 H856 0.950 . S
C886 C885 1.524 . S
C886 C887 1.415 . S
C887 H857 0.950 1_655 S
C887 C882 1.361 1_655 S
C887 C886 1.415 . S
H888 C885 0.999 . S
H889 C870 0.913 . S
H890 C908 0.951 . S
H891 C910 0.951 . S
H892 C912 0.950 . S
H893 C913 0.950 . S
H894 C915 0.950 . S
H895 C918 0.950 . S
H896 C919 0.950 . S
H897 C921 0.950 . S
H898 C922 0.950 . S
H899 C923 0.917 1_565 S
H900 C925 0.951 . S
H901 C927 0.950 . S
H902 C928 0.950 . S
H903 C930 0.950 . S
H904 C933 0.950 . S
H905 C934 0.950 . S
H906 C936 0.950 . S
H907 C937 0.950 . S
C908 H890 0.951 . S
C908 C909 1.366 . S
C908 C910 1.388 . S
C909 C908 1.366 . S
C909 C913 1.385 . S
C910 H891 0.951 . S
C910 C908 1.388 . S
C910 C911 1.366 . S
C911 C910 1.366 . S
C911 C912 1.414 . S
C911 C914 1.499 . S
C912 H892 0.950 . S
C912 C911 1.414 . S
C912 C913 1.374 . S
C913 H893 0.950 . S
C913 C909 1.385 . S
C913 C912 1.374 . S
C914 C911 1.499 . S
C914 C915 1.373 . S
C914 C916 1.389 . S
C915 H894 0.950 . S
C915 C914 1.373 . S
C915 C931 1.377 . S
C916 C914 1.389 . S
C916 C917 1.524 . S
C916 C930 1.377 . S
C917 C916 1.524 . S
C917 C918 1.397 . S
C917 C922 1.363 . S
C918 H895 0.950 . S
C918 C917 1.397 . S
C918 C919 1.334 1_554 S
C919 H896 0.950 . S
C919 C918 1.334 1_556 S
C919 C920 1.287 . S
C920 C919 1.287 . S
C920 C921 1.524 . S
C920 H939 0.913 . S
C921 H897 0.950 . S
C921 C920 1.524 . S
C921 C922 1.415 1_556 S
C922 H898 0.950 . S
C922 C917 1.363 . S
C922 C921 1.415 1_554 S
C923 H899 0.917 1_545 S
C923 C924 1.385 . S
C923 C925 1.405 . S
C924 C923 1.385 . S
C924 C928 1.385 . S
C925 H900 0.951 . S
C925 C923 1.405 . S
C925 C926 1.366 . S
C926 C925 1.366 . S
C926 C927 1.414 . S
C926 C929 1.499 . S
C927 H901 0.950 . S
C927 C926 1.414 . S
C927 C928 1.374 . S
C928 H902 0.950 . S
C928 C924 1.385 . S
C928 C927 1.374 . S
C929 C926 1.499 . S
C929 C930 1.373 . S
C929 C931 1.389 . S
C930 H903 0.950 . S
C930 C916 1.377 . S
C930 C929 1.373 . S
C931 C915 1.377 . S
C931 C929 1.389 . S
C931 C932 1.524 . S
C932 C931 1.524 . S
C932 C933 1.397 . S
C932 C937 1.363 . S
C933 H904 0.950 . S
C933 C932 1.397 . S
C933 C934 1.334 . S
C934 H905 0.950 . S
C934 C933 1.334 . S
C934 C935 1.287 . S
C935 C934 1.287 . S
C935 C936 1.524 . S
C935 H938 0.999 . S
C936 H906 0.950 . S
C936 C935 1.524 . S
C936 C937 1.415 . S
C937 H907 0.950 . S
C937 C932 1.363 . S
C937 C936 1.415 . S
H938 C935 0.999 . S
H939 C920 0.913 . S
H940 C958 0.951 . S
H941 C960 0.951 . S
H942 C962 0.950 . S
H943 C963 0.950 . S
H944 C965 0.950 . S
H945 C968 0.950 . S
H946 C969 0.950 1_556 S
H947 C971 0.950 . S
H948 C972 0.950 . S
H949 C973 0.951 . S
H950 C975 0.951 . S
H951 C977 0.950 . S
H952 C978 0.950 . S
H953 C980 0.950 . S
H954 C983 0.950 . S
H955 C984 0.950 . S
H956 C986 0.950 . S
H957 C987 0.950 . S
C958 H940 0.951 . S
C958 C959 1.366 . S
C958 C960 1.388 . S
C959 C958 1.366 . S
C959 C963 1.385 . S
C960 H941 0.951 . S
C960 C958 1.388 . S
C960 C961 1.366 . S
C961 C960 1.366 . S
C961 C962 1.414 . S
C961 C964 1.499 . S
C962 H942 0.950 . S
C962 C961 1.414 . S
C962 C963 1.374 . S
C963 H943 0.950 . S
C963 C959 1.385 . S
C963 C962 1.374 . S
C964 C961 1.499 . S
C964 C965 1.373 . S
C964 C966 1.389 . S
C965 H944 0.950 . S
C965 C964 1.373 . S
C965 C981 1.377 . S
C966 C964 1.389 . S
C966 C967 1.524 . S
C966 C980 1.377 . S
C967 C966 1.524 . S
C967 C968 1.397 . S
C967 C972 1.363 . S
C968 H945 0.950 . S
C968 C967 1.397 . S
C968 C969 1.334 . S
C969 H946 0.950 1_554 S
C969 C968 1.334 . S
C969 C970 1.287 . S
C970 C969 1.287 . S
C970 C971 1.524 . S
C970 H989 0.913 1_554 S
C971 H947 0.950 . S
C971 C970 1.524 . S
C971 C972 1.415 . S
C972 H948 0.950 . S
C972 C967 1.363 . S
C972 C971 1.415 . S
C973 H949 0.951 . S
C973 C974 1.366 . S
C973 C975 1.388 . S
C974 C973 1.366 . S
C974 C978 1.385 . S
C975 H950 0.951 . S
C975 C973 1.388 . S
C975 C976 1.366 . S
C976 C975 1.366 . S
C976 C977 1.414 . S
C976 C979 1.499 . S
C977 H951 0.950 . S
C977 C976 1.414 . S
C977 C978 1.374 . S
C978 H952 0.950 . S
C978 C974 1.385 . S
C978 C977 1.374 . S
C979 C976 1.499 . S
C979 C980 1.373 . S
C979 C981 1.389 . S
C980 H953 0.950 . S
C980 C966 1.377 . S
C980 C979 1.373 . S
C981 C965 1.377 . S
C981 C979 1.389 . S
C981 C982 1.524 . S
C982 C981 1.524 . S
C982 C983 1.397 . S
C982 C987 1.363 . S
C983 H954 0.950 . S
C983 C982 1.397 . S
C983 C984 1.334 . S
C984 H955 0.950 . S
C984 C983 1.334 . S
C984 C985 1.287 . S
C985 C984 1.287 . S
C985 C986 1.524 . S
C985 H988 0.999 . S
C986 H956 0.950 . S
C986 C985 1.524 . S
C986 C987 1.415 . S
C987 H957 0.950 . S
C987 C982 1.363 . S
C987 C986 1.415 . S
H988 C985 0.999 . S
H989 C970 0.913 1_556 S
H990 C1008 0.951 . S
H991 C1010 0.951 . S
H992 C1012 0.950 . S
H993 C1013 0.950 . S
H994 C1015 0.950 . S
H995 C1018 0.950 . S
H996 C1019 0.950 . S
H997 C1021 0.950 . S
H998 C1022 0.950 . S
H999 C1023 0.951 . S
H1000 C1025 0.951 . S
H1001 C1027 0.950 . S
H1002 C1028 0.950 . S
H1003 C1030 0.950 . S
H1004 C1033 0.950 . S
H1005 C1034 0.950 . S
H1006 C1036 0.950 . S
H1007 C1037 0.950 . S
C1008 H990 0.951 . S
C1008 C1009 1.366 . S
C1008 C1010 1.388 . S
C1009 C1008 1.366 . S
C1009 C1013 1.385 . S
C1010 H991 0.951 . S
C1010 C1008 1.388 . S
C1010 C1011 1.366 . S
C1011 C1010 1.366 . S
C1011 C1012 1.414 . S
C1011 C1014 1.499 . S
C1012 H992 0.950 . S
C1012 C1011 1.414 . S
C1012 C1013 1.374 . S
C1013 H993 0.950 . S
C1013 C1009 1.385 . S
C1013 C1012 1.374 . S
C1014 C1011 1.499 . S
C1014 C1015 1.373 . S
C1014 C1016 1.389 . S
C1015 H994 0.950 . S
C1015 C1014 1.373 . S
C1015 C1031 1.377 . S
C1016 C1014 1.389 . S
C1016 C1017 1.524 . S
C1016 C1030 1.377 . S
C1017 C1016 1.524 . S
C1017 C1018 1.397 . S
C1017 C1022 1.363 . S
C1018 H995 0.950 . S
C1018 C1017 1.397 . S
C1018 C1019 1.334 . S
C1019 H996 0.950 . S
C1019 C1018 1.334 . S
C1019 C1020 1.287 . S
C1020 C1019 1.287 . S
C1020 C1021 1.524 . S
C1020 H1039 0.913 . S
C1021 H997 0.950 . S
C1021 C1020 1.524 . S
C1021 C1022 1.415 . S
C1022 H998 0.950 . S
C1022 C1017 1.363 . S
C1022 C1021 1.415 . S
C1023 H999 0.951 . S
C1023 C1024 1.366 . S
C1023 C1025 1.388 . S
C1024 C1023 1.366 . S
C1024 C1028 1.385 . S
C1025 H1000 0.951 . S
C1025 C1023 1.388 . S
C1025 C1026 1.366 . S
C1026 C1025 1.366 . S
C1026 C1027 1.414 . S
C1026 C1029 1.499 . S
C1027 H1001 0.950 . S
C1027 C1026 1.414 . S
C1027 C1028 1.374 . S
C1028 H1002 0.950 . S
C1028 C1024 1.385 . S
C1028 C1027 1.374 . S
C1029 C1026 1.499 . S
C1029 C1030 1.373 . S
C1029 C1031 1.389 . S
C1030 H1003 0.950 . S
C1030 C1016 1.377 . S
C1030 C1029 1.373 . S
C1031 C1015 1.377 . S
C1031 C1029 1.389 . S
C1031 C1032 1.524 . S
C1032 C1031 1.524 . S
C1032 C1033 1.397 . S
C1032 C1037 1.363 . S
C1033 H1004 0.950 . S
C1033 C1032 1.397 . S
C1033 C1034 1.334 . S
C1034 H1005 0.950 . S
C1034 C1033 1.334 . S
C1034 C1035 1.287 . S
C1035 C1034 1.287 . S
C1035 C1036 1.524 . S
C1035 H1038 0.999 . S
C1036 H1006 0.950 . S
C1036 C1035 1.524 . S
C1036 C1037 1.415 . S
C1037 H1007 0.950 . S
C1037 C1032 1.363 . S
C1037 C1036 1.415 . S
H1038 C1035 0.999 . S
H1039 C1020 0.913 . S
H1040 C1058 0.951 . S
H1041 C1060 0.951 . S
H1042 C1062 0.950 . S
H1043 C1063 0.950 . S
H1044 C1065 0.950 . S
H1045 C1068 0.950 . S
H1046 C1069 0.950 . S
H1047 C1071 0.950 . S
H1048 C1072 0.950 . S
H1049 C1073 0.951 . S
H1050 C1075 0.951 1_554 S
H1051 C1077 0.950 . S
H1052 C1078 0.950 . S
H1053 C1080 0.950 1_455 S
H1054 C1083 0.950 . S
H1055 C1084 0.950 . S
H1056 C1086 0.950 . S
H1057 C1087 0.950 . S
C1058 H1040 0.951 . S
C1058 C1059 1.366 . S
C1058 C1060 1.388 . S
C1059 C1058 1.366 . S
C1059 C1063 1.385 . S
C1060 H1041 0.951 . S
C1060 C1058 1.388 . S
C1060 C1061 1.366 . S
C1061 C1060 1.366 . S
C1061 C1062 1.414 . S
C1061 C1064 1.499 . S
C1062 H1042 0.950 . S
C1062 C1061 1.414 . S
C1062 C1063 1.374 . S
C1063 H1043 0.950 . S
C1063 C1059 1.385 . S
C1063 C1062 1.374 . S
C1064 C1061 1.499 . S
C1064 C1065 1.373 . S
C1064 C1066 1.389 . S
C1065 H1044 0.950 . S
C1065 C1064 1.373 . S
C1065 C1081 1.377 1_554 S
C1066 C1064 1.389 . S
C1066 C1067 1.524 1_655 S
C1066 C1080 1.377 1_554 S
C1067 C1066 1.524 1_455 S
C1067 C1068 1.397 . S
C1067 C1072 1.363 1_554 S
C1068 H1045 0.950 . S
C1068 C1067 1.397 . S
C1068 C1069 1.334 . S
C1069 H1046 0.950 . S
C1069 C1068 1.334 . S
C1069 C1070 1.287 . S
C1070 C1069 1.287 . S
C1070 C1071 1.524 1_554 S
C1070 H1089 0.913 . S
C1071 H1047 0.950 . S
C1071 C1070 1.524 1_556 S
C1071 C1072 1.415 . S
C1072 H1048 0.950 . S
C1072 C1067 1.363 1_556 S
C1072 C1071 1.415 . S
C1073 H1049 0.951 . S
C1073 C1074 1.366 1_655 S
C1073 C1075 1.388 . S
C1074 C1073 1.366 1_455 S
C1074 C1078 1.385 . S
C1075 H1050 0.951 1_556 S
C1075 C1073 1.388 . S
C1075 C1076 1.366 . S
C1076 C1075 1.366 . S
C1076 C1077 1.414 . S
C1076 C1079 1.499 . S
C1077 H1051 0.950 . S
C1077 C1076 1.414 . S
C1077 C1078 1.374 1_655 S
C1078 H1052 0.950 . S
C1078 C1074 1.385 . S
C1078 C1077 1.374 1_455 S
C1079 C1076 1.499 . S
C1079 C1080 1.373 . S
C1079 C1081 1.389 . S
C1080 H1053 0.950 1_655 S
C1080 C1066 1.377 1_556 S
C1080 C1079 1.373 . S
C1081 C1065 1.377 1_556 S
C1081 C1079 1.389 . S
C1081 C1082 1.524 . S
C1082 C1081 1.524 . S
C1082 C1083 1.397 . S
C1082 C1087 1.363 1_556 S
C1083 H1054 0.950 . S
C1083 C1082 1.397 . S
C1083 C1084 1.334 . S
C1084 H1055 0.950 . S
C1084 C1083 1.334 . S
C1084 C1085 1.287 . S
C1085 C1084 1.287 . S
C1085 C1086 1.524 1_556 S
C1085 H1088 0.999 . S
C1086 H1056 0.950 . S
C1086 C1085 1.524 1_554 S
C1086 C1087 1.415 . S
C1087 H1057 0.950 . S
C1087 C1082 1.363 1_554 S
C1087 C1086 1.415 . S
H1088 C1085 0.999 . S
H1089 C1070 0.913 . S
H1090 C1108 0.951 . S
H1091 C1110 0.951 1_556 S
H1092 C1112 0.950 . S
H1093 C1113 0.950 . S
H1094 C1115 0.950 . S
H1095 C1118 0.950 . S
H1096 C1119 0.950 . S
H1097 C1121 0.950 . S
H1098 C1122 0.950 . S
H1099 C1123 0.951 . S
H1100 C1125 0.951 1_554 S
H1101 C1127 0.950 . S
H1102 C1128 0.950 . S
H1103 C1130 0.950 1_545 S
H1104 C1133 0.950 . S
H1105 C1134 0.950 . S
H1106 C1136 0.950 . S
H1107 C1137 0.950 . S
C1108 H1090 0.951 . S
C1108 C1109 1.366 . S
C1108 C1110 1.388 . S
C1109 C1108 1.366 . S
C1109 C1113 1.385 . S
C1110 H1091 0.951 1_554 S
C1110 C1108 1.388 . S
C1110 C1111 1.366 . S
C1111 C1110 1.366 . S
C1111 C1112 1.414 . S
C1111 C1114 1.499 . S
C1112 H1092 0.950 . S
C1112 C1111 1.414 . S
C1112 C1113 1.374 . S
C1113 H1093 0.950 . S
C1113 C1109 1.385 . S
C1113 C1112 1.374 . S
C1114 C1111 1.499 . S
C1114 C1115 1.373 . S
C1114 C1116 1.389 1_554 S
C1115 H1094 0.950 . S
C1115 C1114 1.373 . S
C1115 C1131 1.377 . S
C1116 C1114 1.389 1_556 S
C1116 C1117 1.524 1_565 S
C1116 C1130 1.377 . S
C1117 C1116 1.524 1_545 S
C1117 C1118 1.397 1_556 S
C1117 C1122 1.363 . S
C1118 H1095 0.950 . S
C1118 C1117 1.397 1_554 S
C1118 C1119 1.334 . S
C1119 H1096 0.950 . S
C1119 C1118 1.334 . S
C1119 C1120 1.287 1_554 S
C1120 C1119 1.287 1_556 S
C1120 C1121 1.524 . S
C1120 H1139 0.913 . S
C1121 H1097 0.950 . S
C1121 C1120 1.524 . S
C1121 C1122 1.415 . S
C1122 H1098 0.950 . S
C1122 C1117 1.363 . S
C1122 C1121 1.415 . S
C1123 H1099 0.951 . S
C1123 C1124 1.366 . S
C1123 C1125 1.388 1_545 S
C1124 C1123 1.366 . S
C1124 C1128 1.385 . S
C1125 H1100 0.951 1_556 S
C1125 C1123 1.388 1_565 S
C1125 C1126 1.366 . S
C1126 C1125 1.366 . S
C1126 C1127 1.414 . S
C1126 C1129 1.499 . S
C1127 H1101 0.950 . S
C1127 C1126 1.414 . S
C1127 C1128 1.374 1_565 S
C1128 H1102 0.950 . S
C1128 C1124 1.385 . S
C1128 C1127 1.374 1_545 S
C1129 C1126 1.499 . S
C1129 C1130 1.373 . S
C1129 C1131 1.389 1_556 S
C1130 H1103 0.950 1_565 S
C1130 C1116 1.377 . S
C1130 C1129 1.373 . S
C1131 C1115 1.377 . S
C1131 C1129 1.389 1_554 S
C1131 C1132 1.524 . S
C1132 C1131 1.524 . S
C1132 C1133 1.397 1_554 S
C1132 C1137 1.363 . S
C1133 H1104 0.950 . S
C1133 C1132 1.397 1_556 S
C1133 C1134 1.334 . S
C1134 H1105 0.950 . S
C1134 C1133 1.334 . S
C1134 C1135 1.287 1_556 S
C1135 C1134 1.287 1_554 S
C1135 C1136 1.524 . S
C1135 H1138 0.999 . S
C1136 H1106 0.950 . S
C1136 C1135 1.524 . S
C1136 C1137 1.415 . S
C1137 H1107 0.950 . S
C1137 C1132 1.363 . S
C1137 C1136 1.415 . S
H1138 C1135 0.999 . S
H1139 C1120 0.913 . S
H1140 C1158 0.951 . S
H1141 C1160 0.951 . S
H1142 C1162 0.950 . S
H1143 C1163 0.950 . S
H1144 C1165 0.950 . S
H1145 C1168 0.950 . S
H1146 C1169 0.950 . S
H1147 C1171 0.950 . S
H1148 C1172 0.950 . S
H1149 C1173 0.951 . S
H1150 C1175 0.951 . S
H1151 C1177 0.950 . S
H1152 C1178 0.950 . S
H1153 C1180 0.950 . S
H1154 C1183 0.950 . S
H1155 C1184 0.950 . S
H1156 C1186 0.950 . S
H1157 C1187 0.950 . S
C1158 H1140 0.951 . S
C1158 C1159 1.366 . S
C1158 C1160 1.388 . S
C1159 C1158 1.366 . S
C1159 C1163 1.385 . S
C1160 H1141 0.951 . S
C1160 C1158 1.388 . S
C1160 C1161 1.366 . S
C1161 C1160 1.366 . S
C1161 C1162 1.414 . S
C1161 C1164 1.499 . S
C1162 H1142 0.950 . S
C1162 C1161 1.414 . S
C1162 C1163 1.374 . S
C1163 H1143 0.950 . S
C1163 C1159 1.385 . S
C1163 C1162 1.374 . S
C1164 C1161 1.499 . S
C1164 C1165 1.373 . S
C1164 C1166 1.389 1_554 S
C1165 H1144 0.950 . S
C1165 C1164 1.373 . S
C1165 C1181 1.377 . S
C1166 C1164 1.389 1_556 S
C1166 C1167 1.524 . S
C1166 C1180 1.377 . S
C1167 C1166 1.524 . S
C1167 C1168 1.397 . S
C1167 C1172 1.363 . S
C1168 H1145 0.950 . S
C1168 C1167 1.397 . S
C1168 C1169 1.334 . S
C1169 H1146 0.950 . S
C1169 C1168 1.334 . S
C1169 C1170 1.287 . S
C1170 C1169 1.287 . S
C1170 C1171 1.524 . S
C1170 H1189 0.913 . S
C1171 H1147 0.950 . S
C1171 C1170 1.524 . S
C1171 C1172 1.415 . S
C1172 H1148 0.950 . S
C1172 C1167 1.363 . S
C1172 C1171 1.415 . S
C1173 H1149 0.951 . S
C1173 C1174 1.366 . S
C1173 C1175 1.388 . S
C1174 C1173 1.366 . S
C1174 C1178 1.385 . S
C1175 H1150 0.951 . S
C1175 C1173 1.388 . S
C1175 C1176 1.366 . S
C1176 C1175 1.366 . S
C1176 C1177 1.414 . S
C1176 C1179 1.499 . S
C1177 H1151 0.950 . S
C1177 C1176 1.414 . S
C1177 C1178 1.374 . S
C1178 H1152 0.950 . S
C1178 C1174 1.385 . S
C1178 C1177 1.374 . S
C1179 C1176 1.499 . S
C1179 C1180 1.373 . S
C1179 C1181 1.389 1_556 S
C1180 H1153 0.950 . S
C1180 C1166 1.377 . S
C1180 C1179 1.373 . S
C1181 C1165 1.377 . S
C1181 C1179 1.389 1_554 S
C1181 C1182 1.524 . S
C1182 C1181 1.524 . S
C1182 C1183 1.397 . S
C1182 C1187 1.363 . S
C1183 H1154 0.950 . S
C1183 C1182 1.397 . S
C1183 C1184 1.334 . S
C1184 H1155 0.950 . S
C1184 C1183 1.334 . S
C1184 C1185 1.287 . S
C1185 C1184 1.287 . S
C1185 C1186 1.524 . S
C1185 H1188 0.999 . S
C1186 H1156 0.950 . S
C1186 C1185 1.524 . S
C1186 C1187 1.415 . S
C1187 H1157 0.950 . S
C1187 C1182 1.363 . S
C1187 C1186 1.415 . S
H1188 C1185 0.999 . S
H1189 C1170 0.913 . S
H1190 C1208 0.951 . S
H1191 C1210 0.951 . S
H1192 C1212 0.950 . S
H1193 C1213 0.950 . S
H1194 C1215 0.950 . S
H1195 C1218 0.950 . S
H1196 C1219 0.950 . S
H1197 C1221 0.950 . S
H1198 C1222 0.950 . S
H1199 C1223 0.951 . S
H1200 C1225 0.951 1_554 S
H1201 C1227 0.950 . S
H1202 C1228 0.950 . S
H1203 C1230 0.950 . S
H1204 C1233 0.950 . S
H1205 C1234 0.950 . S
H1206 C1236 0.950 . S
H1207 C1237 0.950 . S
C1208 H1190 0.951 . S
C1208 C1209 1.366 . S
C1208 C1210 1.388 . S
C1209 C1208 1.366 . S
C1209 C1213 1.385 . S
C1210 H1191 0.951 . S
C1210 C1208 1.388 . S
C1210 C1211 1.366 . S
C1211 C1210 1.366 . S
C1211 C1212 1.414 . S
C1211 C1214 1.499 . S
C1212 H1192 0.950 . S
C1212 C1211 1.414 . S
C1212 C1213 1.374 . S
C1213 H1193 0.950 . S
C1213 C1209 1.385 . S
C1213 C1212 1.374 . S
C1214 C1211 1.499 . S
C1214 C1215 1.373 . S
C1214 C1216 1.389 . S
C1215 H1194 0.950 . S
C1215 C1214 1.373 . S
C1215 C1231 1.377 1_554 S
C1216 C1214 1.389 . S
C1216 C1217 1.524 . S
C1216 C1230 1.377 1_554 S
C1217 C1216 1.524 . S
C1217 C1218 1.397 . S
C1217 C1222 1.363 1_554 S
C1218 H1195 0.950 . S
C1218 C1217 1.397 . S
C1218 C1219 1.334 . S
C1219 H1196 0.950 . S
C1219 C1218 1.334 . S
C1219 C1220 1.287 . S
C1220 C1219 1.287 . S
C1220 C1221 1.524 1_554 S
C1220 H1239 0.913 . S
C1221 H1197 0.950 . S
C1221 C1220 1.524 1_556 S
C1221 C1222 1.415 . S
C1222 H1198 0.950 . S
C1222 C1217 1.363 1_556 S
C1222 C1221 1.415 . S
C1223 H1199 0.951 . S
C1223 C1224 1.366 . S
C1223 C1225 1.388 . S
C1224 C1223 1.366 . S
C1224 C1228 1.385 . S
C1225 H1200 0.951 1_556 S
C1225 C1223 1.388 . S
C1225 C1226 1.366 . S
C1226 C1225 1.366 . S
C1226 C1227 1.414 . S
C1226 C1229 1.499 . S
C1227 H1201 0.950 . S
C1227 C1226 1.414 . S
C1227 C1228 1.374 . S
C1228 H1202 0.950 . S
C1228 C1224 1.385 . S
C1228 C1227 1.374 . S
C1229 C1226 1.499 . S
C1229 C1230 1.373 . S
C1229 C1231 1.389 . S
C1230 H1203 0.950 . S
C1230 C1216 1.377 1_556 S
C1230 C1229 1.373 . S
C1231 C1215 1.377 1_556 S
C1231 C1229 1.389 . S
C1231 C1232 1.524 . S
C1232 C1231 1.524 . S
C1232 C1233 1.397 . S
C1232 C1237 1.363 1_556 S
C1233 H1204 0.950 . S
C1233 C1232 1.397 . S
C1233 C1234 1.334 . S
C1234 H1205 0.950 . S
C1234 C1233 1.334 . S
C1234 C1235 1.287 . S
C1235 C1234 1.287 . S
C1235 C1236 1.524 1_556 S
C1235 H1238 0.999 . S
C1236 H1206 0.950 . S
C1236 C1235 1.524 1_554 S
C1236 C1237 1.415 . S
C1237 H1207 0.950 . S
C1237 C1232 1.363 1_554 S
C1237 C1236 1.415 . S
H1238 C1235 0.999 . S
H1239 C1220 0.913 . S
H1240 C1258 0.951 . S
H1241 C1260 0.951 . S
H1242 C1262 0.950 . S
H1243 C1263 0.950 . S
H1244 C1265 0.950 . S
H1245 C1268 0.950 . S
H1246 C1269 0.950 . S
H1247 C1271 0.950 . S
H1248 C1272 0.950 . S
H1249 C1273 0.951 . S
H1250 C1275 0.951 . S
H1251 C1277 0.950 . S
H1252 C1278 0.950 . S
H1253 C1280 0.950 . S
H1254 C1283 0.950 . S
H1255 C1284 0.950 . S
H1256 C1286 0.950 . S
H1257 C1287 0.950 . S
C1258 H1240 0.951 . S
C1258 C1259 1.366 . S
C1258 C1260 1.388 . S
C1259 C1258 1.366 . S
C1259 C1263 1.385 . S
C1260 H1241 0.951 . S
C1260 C1258 1.388 . S
C1260 C1261 1.366 . S
C1261 C1260 1.366 . S
C1261 C1262 1.414 . S
C1261 C1264 1.499 . S
C1262 H1242 0.950 . S
C1262 C1261 1.414 . S
C1262 C1263 1.374 . S
C1263 H1243 0.950 . S
C1263 C1259 1.385 . S
C1263 C1262 1.374 . S
C1264 C1261 1.499 . S
C1264 C1265 1.373 . S
C1264 C1266 1.389 . S
C1265 H1244 0.950 . S
C1265 C1264 1.373 . S
C1265 C1281 1.377 . S
C1266 C1264 1.389 . S
C1266 C1267 1.524 . S
C1266 C1280 1.377 . S
C1267 C1266 1.524 . S
C1267 C1268 1.397 . S
C1267 C1272 1.363 . S
C1268 H1245 0.950 . S
C1268 C1267 1.397 . S
C1268 C1269 1.334 . S
C1269 H1246 0.950 . S
C1269 C1268 1.334 . S
C1269 C1270 1.287 . S
C1270 C1269 1.287 . S
C1270 C1271 1.524 . S
C1270 H1289 0.913 . S
C1271 H1247 0.950 . S
C1271 C1270 1.524 . S
C1271 C1272 1.415 . S
C1272 H1248 0.950 . S
C1272 C1267 1.363 . S
C1272 C1271 1.415 . S
C1273 H1249 0.951 . S
C1273 C1274 1.366 . S
C1273 C1275 1.388 . S
C1274 C1273 1.366 . S
C1274 C1278 1.385 . S
C1275 H1250 0.951 . S
C1275 C1273 1.388 . S
C1275 C1276 1.366 . S
C1276 C1275 1.366 . S
C1276 C1277 1.414 . S
C1276 C1279 1.499 . S
C1277 H1251 0.950 . S
C1277 C1276 1.414 . S
C1277 C1278 1.374 . S
C1278 H1252 0.950 . S
C1278 C1274 1.385 . S
C1278 C1277 1.374 . S
C1279 C1276 1.499 . S
C1279 C1280 1.373 . S
C1279 C1281 1.389 . S
C1280 H1253 0.950 . S
C1280 C1266 1.377 . S
C1280 C1279 1.373 . S
C1281 C1265 1.377 . S
C1281 C1279 1.389 . S
C1281 C1282 1.524 . S
C1282 C1281 1.524 . S
C1282 C1283 1.397 . S
C1282 C1287 1.363 . S
C1283 H1254 0.950 . S
C1283 C1282 1.397 . S
C1283 C1284 1.334 . S
C1284 H1255 0.950 . S
C1284 C1283 1.334 . S
C1284 C1285 1.287 . S
C1285 C1284 1.287 . S
C1285 C1286 1.524 1_556 S
C1285 H1288 0.999 1_556 S
C1286 H1256 0.950 . S
C1286 C1285 1.524 1_554 S
C1286 C1287 1.415 1_554 S
C1287 H1257 0.950 . S
C1287 C1282 1.363 . S
C1287 C1286 1.415 1_556 S
H1288 C1285 0.999 1_554 S
H1289 C1270 0.913 . S
H1290 C1308 0.951 . S
H1291 C1310 0.951 . S
H1292 C1312 0.950 . S
H1293 C1313 0.950 . S
H1294 C1315 0.950 . S
H1295 C1318 0.950 . S
H1296 C1319 0.950 . S
H1297 C1321 0.950 . S
H1298 C1322 0.950 . S
H1299 C1323 0.951 . S
H1300 C1325 0.951 . S
H1301 C1327 0.950 . S
H1302 C1328 0.950 . S
H1303 C1330 0.950 . S
H1304 C1333 0.950 1_545 S
H1305 C1334 0.950 . S
H1306 C1336 0.950 . S
H1307 C1337 0.950 . S
C1308 H1290 0.951 . S
C1308 C1309 1.366 . S
C1308 C1310 1.388 . S
C1309 C1308 1.366 . S
C1309 C1313 1.385 . S
C1310 H1291 0.951 . S
C1310 C1308 1.388 . S
C1310 C1311 1.366 . S
C1311 C1310 1.366 . S
C1311 C1312 1.414 . S
C1311 C1314 1.499 . S
C1312 H1292 0.950 . S
C1312 C1311 1.414 . S
C1312 C1313 1.374 . S
C1313 H1293 0.950 . S
C1313 C1309 1.385 . S
C1313 C1312 1.374 . S
C1314 C1311 1.499 . S
C1314 C1315 1.373 . S
C1314 C1316 1.389 . S
C1315 H1294 0.950 . S
C1315 C1314 1.373 . S
C1315 C1331 1.377 . S
C1316 C1314 1.389 . S
C1316 C1317 1.524 . S
C1316 C1330 1.377 . S
C1317 C1316 1.524 . S
C1317 C1318 1.397 . S
C1317 C1322 1.363 . S
C1318 H1295 0.950 . S
C1318 C1317 1.397 . S
C1318 C1319 1.334 . S
C1319 H1296 0.950 . S
C1319 C1318 1.334 . S
C1319 C1320 1.287 . S
C1320 C1319 1.287 . S
C1320 C1321 1.524 . S
C1320 H1339 0.913 . S
C1321 H1297 0.950 . S
C1321 C1320 1.524 . S
C1321 C1322 1.415 . S
C1322 H1298 0.950 . S
C1322 C1317 1.363 . S
C1322 C1321 1.415 . S
C1323 H1299 0.951 . S
C1323 C1324 1.366 . S
C1323 C1325 1.388 . S
C1324 C1323 1.366 . S
C1324 C1328 1.385 . S
C1325 H1300 0.951 . S
C1325 C1323 1.388 . S
C1325 C1326 1.366 . S
C1326 C1325 1.366 . S
C1326 C1327 1.414 . S
C1326 C1329 1.499 . S
C1327 H1301 0.950 . S
C1327 C1326 1.414 . S
C1327 C1328 1.374 . S
C1328 H1302 0.950 . S
C1328 C1324 1.385 . S
C1328 C1327 1.374 . S
C1329 C1326 1.499 . S
C1329 C1330 1.373 . S
C1329 C1331 1.389 . S
C1330 H1303 0.950 . S
C1330 C1316 1.377 . S
C1330 C1329 1.373 . S
C1331 C1315 1.377 . S
C1331 C1329 1.389 . S
C1331 C1332 1.524 . S
C1332 C1331 1.524 . S
C1332 C1333 1.397 1_545 S
C1332 C1337 1.363 1_545 S
C1333 H1304 0.950 1_565 S
C1333 C1332 1.397 1_565 S
C1333 C1334 1.334 . S
C1334 H1305 0.950 . S
C1334 C1333 1.334 . S
C1334 C1335 1.287 . S
C1335 C1334 1.287 . S
C1335 C1336 1.524 . S
C1335 H1338 0.999 . S
C1336 H1306 0.950 . S
C1336 C1335 1.524 . S
C1336 C1337 1.415 . S
C1337 H1307 0.950 . S
C1337 C1332 1.363 1_565 S
C1337 C1336 1.415 . S
H1338 C1335 0.999 . S
H1339 C1320 0.913 . S
H1340 C1358 0.951 . S
H1341 C1360 0.951 . S
H1342 C1362 0.950 . S
H1343 C1363 0.950 . S
H1344 C1365 0.950 . S
H1345 C1368 0.950 . S
H1346 C1369 0.950 . S
H1347 C1371 0.950 . S
H1348 C1372 0.950 . S
H1349 C1373 0.951 . S
H1350 C1375 0.951 . S
H1351 C1377 0.950 . S
H1352 C1378 0.950 . S
H1353 C1380 0.950 . S
H1354 C1383 0.950 . S
H1355 C1384 0.950 . S
H1356 C1386 0.950 . S
H1357 C1387 0.950 . S
C1358 H1340 0.951 . S
C1358 C1359 1.366 . S
C1358 C1360 1.388 . S
C1359 C1358 1.366 . S
C1359 C1363 1.385 . S
C1360 H1341 0.951 . S
C1360 C1358 1.388 . S
C1360 C1361 1.366 . S
C1361 C1360 1.366 . S
C1361 C1362 1.414 . S
C1361 C1364 1.499 . S
C1362 H1342 0.950 . S
C1362 C1361 1.414 . S
C1362 C1363 1.374 . S
C1363 H1343 0.950 . S
C1363 C1359 1.385 . S
C1363 C1362 1.374 . S
C1364 C1361 1.499 . S
C1364 C1365 1.373 . S
C1364 C1366 1.389 . S
C1365 H1344 0.950 . S
C1365 C1364 1.373 . S
C1365 C1381 1.377 . S
C1366 C1364 1.389 . S
C1366 C1367 1.524 . S
C1366 C1380 1.377 . S
C1367 C1366 1.524 . S
C1367 C1368 1.397 . S
C1367 C1372 1.363 . S
C1368 H1345 0.950 . S
C1368 C1367 1.397 . S
C1368 C1369 1.334 . S
C1369 H1346 0.950 . S
C1369 C1368 1.334 . S
C1369 C1370 1.287 . S
C1370 C1369 1.287 . S
C1370 C1371 1.524 . S
C1370 H1389 0.913 . S
C1371 H1347 0.950 . S
C1371 C1370 1.524 . S
C1371 C1372 1.415 . S
C1372 H1348 0.950 . S
C1372 C1367 1.363 . S
C1372 C1371 1.415 . S
C1373 H1349 0.951 . S
C1373 C1374 1.366 . S
C1373 C1375 1.388 . S
C1374 C1373 1.366 . S
C1374 C1378 1.385 . S
C1375 H1350 0.951 . S
C1375 C1373 1.388 . S
C1375 C1376 1.366 . S
C1376 C1375 1.366 . S
C1376 C1377 1.414 . S
C1376 C1379 1.499 . S
C1377 H1351 0.950 . S
C1377 C1376 1.414 . S
C1377 C1378 1.374 . S
C1378 H1352 0.950 . S
C1378 C1374 1.385 . S
C1378 C1377 1.374 . S
C1379 C1376 1.499 . S
C1379 C1380 1.373 . S
C1379 C1381 1.389 . S
C1380 H1353 0.950 . S
C1380 C1366 1.377 . S
C1380 C1379 1.373 . S
C1381 C1365 1.377 . S
C1381 C1379 1.389 . S
C1381 C1382 1.524 . S
C1382 C1381 1.524 . S
C1382 C1383 1.397 . S
C1382 C1387 1.363 . S
C1383 H1354 0.950 . S
C1383 C1382 1.397 . S
C1383 C1384 1.334 . S
C1384 H1355 0.950 . S
C1384 C1383 1.334 . S
C1384 C1385 1.287 . S
C1385 C1384 1.287 . S
C1385 C1386 1.524 . S
C1385 H1388 0.999 1_556 S
C1386 H1356 0.950 . S
C1386 C1385 1.524 . S
C1386 C1387 1.415 . S
C1387 H1357 0.950 . S
C1387 C1382 1.363 . S
C1387 C1386 1.415 . S
H1388 C1385 0.999 1_554 S
H1389 C1370 0.913 . S
H1390 C1408 0.951 . S
H1391 C1410 0.951 . S
H1392 C1412 0.950 . S
H1393 C1413 0.950 . S
H1394 C1415 0.950 . S
H1395 C1418 0.950 . S
H1396 C1419 0.950 . S
H1397 C1421 0.950 . S
H1398 C1422 0.950 . S
H1399 C1423 0.951 . S
H1400 C1425 0.951 . S
H1401 C1427 0.950 . S
H1402 C1428 0.950 . S
H1403 C1430 0.950 . S
H1404 C1433 0.950 . S
H1405 C1434 0.950 . S
H1406 C1436 0.950 . S
H1407 C1437 0.950 . S
C1408 H1390 0.951 . S
C1408 C1409 1.366 . S
C1408 C1410 1.388 . S
C1409 C1408 1.366 . S
C1409 C1413 1.385 . S
C1410 H1391 0.951 . S
C1410 C1408 1.388 . S
C1410 C1411 1.366 . S
C1411 C1410 1.366 . S
C1411 C1412 1.414 . S
C1411 C1414 1.499 . S
C1412 H1392 0.950 . S
C1412 C1411 1.414 . S
C1412 C1413 1.374 . S
C1413 H1393 0.950 . S
C1413 C1409 1.385 . S
C1413 C1412 1.374 . S
C1414 C1411 1.499 . S
C1414 C1415 1.373 . S
C1414 C1416 1.389 . S
C1415 H1394 0.950 . S
C1415 C1414 1.373 . S
C1415 C1431 1.377 . S
C1416 C1414 1.389 . S
C1416 C1417 1.524 . S
C1416 C1430 1.377 . S
C1417 C1416 1.524 . S
C1417 C1418 1.397 . S
C1417 C1422 1.363 . S
C1418 H1395 0.950 . S
C1418 C1417 1.397 . S
C1418 C1419 1.334 . S
C1419 H1396 0.950 . S
C1419 C1418 1.334 . S
C1419 C1420 1.287 1_556 S
C1420 C1419 1.287 1_554 S
C1420 C1421 1.524 . S
C1420 H1439 0.913 . S
C1421 H1397 0.950 . S
C1421 C1420 1.524 . S
C1421 C1422 1.415 1_554 S
C1422 H1398 0.950 . S
C1422 C1417 1.363 . S
C1422 C1421 1.415 1_556 S
C1423 H1399 0.951 . S
C1423 C1424 1.366 . S
C1423 C1425 1.388 . S
C1424 C1423 1.366 . S
C1424 C1428 1.385 . S
C1425 H1400 0.951 . S
C1425 C1423 1.388 . S
C1425 C1426 1.366 . S
C1426 C1425 1.366 . S
C1426 C1427 1.414 . S
C1426 C1429 1.499 . S
C1427 H1401 0.950 . S
C1427 C1426 1.414 . S
C1427 C1428 1.374 . S
C1428 H1402 0.950 . S
C1428 C1424 1.385 . S
C1428 C1427 1.374 . S
C1429 C1426 1.499 . S
C1429 C1430 1.373 . S
C1429 C1431 1.389 . S
C1430 H1403 0.950 . S
C1430 C1416 1.377 . S
C1430 C1429 1.373 . S
C1431 C1415 1.377 . S
C1431 C1429 1.389 . S
C1431 C1432 1.524 . S
C1432 C1431 1.524 . S
C1432 C1433 1.397 . S
C1432 C1437 1.363 . S
C1433 H1404 0.950 . S
C1433 C1432 1.397 . S
C1433 C1434 1.334 . S
C1434 H1405 0.950 . S
C1434 C1433 1.334 . S
C1434 C1435 1.287 . S
C1435 C1434 1.287 . S
C1435 C1436 1.524 . S
C1435 H1438 0.999 . S
C1436 H1406 0.950 . S
C1436 C1435 1.524 . S
C1436 C1437 1.415 . S
C1437 H1407 0.950 . S
C1437 C1432 1.363 . S
C1437 C1436 1.415 . S
H1438 C1435 0.999 . S
H1439 C1420 0.913 . S
H1440 C1458 0.951 . S
H1441 C1460 0.951 . S
H1442 C1462 0.950 . S
H1443 C1463 0.950 . S
H1444 C1465 0.950 . S
H1445 C1468 0.950 . S
H1446 C1469 0.950 . S
H1447 C1471 0.950 . S
H1448 C1472 0.950 . S
H1449 C1473 0.951 . S
H1450 C1475 0.951 . S
H1451 C1477 0.978 . S
H1452 C1478 0.950 1_455 S
H1453 C1480 0.950 . S
H1454 C1483 0.950 1_455 S
H1455 C1484 0.950 . S
H1456 C1486 0.950 . S
H1457 C1487 0.950 . S
C1458 H1440 0.951 . S
C1458 C1459 1.366 . S
C1458 C1460 1.388 . S
C1459 C1458 1.366 . S
C1459 C1463 1.385 . S
C1460 H1441 0.951 . S
C1460 C1458 1.388 . S
C1460 C1461 1.366 . S
C1461 C1460 1.366 . S
C1461 C1462 1.414 . S
C1461 C1464 1.499 . S
C1462 H1442 0.950 . S
C1462 C1461 1.414 . S
C1462 C1463 1.374 . S
C1463 H1443 0.950 . S
C1463 C1459 1.385 . S
C1463 C1462 1.374 . S
C1464 C1461 1.499 . S
C1464 C1465 1.373 . S
C1464 C1466 1.389 . S
C1465 H1444 0.950 . S
C1465 C1464 1.373 . S
C1465 C1481 1.377 . S
C1466 C1464 1.389 . S
C1466 C1467 1.524 . S
C1466 C1480 1.377 . S
C1467 C1466 1.524 . S
C1467 C1468 1.397 . S
C1467 C1472 1.363 . S
C1468 H1445 0.950 . S
C1468 C1467 1.397 . S
C1468 C1469 1.334 . S
C1469 H1446 0.950 . S
C1469 C1468 1.334 . S
C1469 C1470 1.287 . S
C1470 C1469 1.287 . S
C1470 C1471 1.524 . S
C1470 H1489 0.913 . S
C1471 H1447 0.950 . S
C1471 C1470 1.524 . S
C1471 C1472 1.415 . S
C1472 H1448 0.950 . S
C1472 C1467 1.363 . S
C1472 C1471 1.415 . S
C1473 H1449 0.951 . S
C1473 C1474 1.366 . S
C1473 C1475 1.388 . S
C1474 C1473 1.366 . S
C1474 C1478 1.385 . S
C1475 H1450 0.951 . S
C1475 C1473 1.388 . S
C1475 C1476 1.366 . S
C1476 C1475 1.366 . S
C1476 C1477 1.414 . S
C1476 C1479 1.499 . S
C1477 H1451 0.978 . S
C1477 C1476 1.414 . S
C1477 C1478 1.374 . S
C1478 H1452 0.950 1_655 S
C1478 C1474 1.385 . S
C1478 C1477 1.374 . S
C1479 C1476 1.499 . S
C1479 C1480 1.373 . S
C1479 C1481 1.389 . S
C1480 H1453 0.950 . S
C1480 C1466 1.377 . S
C1480 C1479 1.373 . S
C1481 C1465 1.377 . S
C1481 C1479 1.389 . S
C1481 C1482 1.524 . S
C1482 C1481 1.524 . S
C1482 C1483 1.397 . S
C1482 C1487 1.363 . S
C1483 H1454 0.950 1_655 S
C1483 C1482 1.397 . S
C1483 C1484 1.334 1_655 S
C1484 H1455 0.950 . S
C1484 C1483 1.334 1_455 S
C1484 C1485 1.287 1_455 S
C1485 C1484 1.287 1_655 S
C1485 C1486 1.524 . S
C1485 H1488 0.999 . S
C1486 H1456 0.950 . S
C1486 C1485 1.524 . S
C1486 C1487 1.415 . S
C1487 H1457 0.950 . S
C1487 C1482 1.363 . S
C1487 C1486 1.415 . S
H1488 C1485 0.999 . S
H1489 C1470 0.913 . S
H1490 C1508 0.951 . S
H1491 C1510 0.951 . S
H1492 C1512 0.950 . S
H1493 C1513 0.950 . S
H1494 C1515 0.950 . S
H1495 C1518 0.950 . S
H1496 C1519 0.950 . S
H1497 C1521 0.950 . S
H1498 C1522 0.950 . S
H1499 C1523 0.951 . S
H1500 C1525 0.951 . S
H1501 C1527 0.950 . S
H1502 C1528 0.950 . S
H1503 C1530 0.950 . S
H1504 C1533 0.950 . S
H1505 C1534 0.950 . S
H1506 C1536 0.950 . S
H1507 C1537 0.950 1_565 S
C1508 H1490 0.951 . S
C1508 C1509 1.366 . S
C1508 C1510 1.388 . S
C1509 C1508 1.366 . S
C1509 C1513 1.385 . S
C1510 H1491 0.951 . S
C1510 C1508 1.388 . S
C1510 C1511 1.366 . S
C1511 C1510 1.366 . S
C1511 C1512 1.414 . S
C1511 C1514 1.499 . S
C1512 H1492 0.950 . S
C1512 C1511 1.414 . S
C1512 C1513 1.374 . S
C1513 H1493 0.950 . S
C1513 C1509 1.385 . S
C1513 C1512 1.374 . S
C1514 C1511 1.499 . S
C1514 C1515 1.373 . S
C1514 C1516 1.389 . S
C1515 H1494 0.950 . S
C1515 C1514 1.373 . S
C1515 C1531 1.377 . S
C1516 C1514 1.389 . S
C1516 C1517 1.524 . S
C1516 C1530 1.377 . S
C1517 C1516 1.524 . S
C1517 C1518 1.397 . S
C1517 C1522 1.363 . S
C1518 H1495 0.950 . S
C1518 C1517 1.397 . S
C1518 C1519 1.334 . S
C1519 H1496 0.950 . S
C1519 C1518 1.334 . S
C1519 C1520 1.287 . S
C1520 C1519 1.287 . S
C1520 C1521 1.524 . S
C1520 H1539 0.913 . S
C1521 H1497 0.950 . S
C1521 C1520 1.524 . S
C1521 C1522 1.415 . S
C1522 H1498 0.950 . S
C1522 C1517 1.363 . S
C1522 C1521 1.415 . S
C1523 H1499 0.951 . S
C1523 C1524 1.366 . S
C1523 C1525 1.388 . S
C1524 C1523 1.366 . S
C1524 C1528 1.385 . S
C1525 H1500 0.951 . S
C1525 C1523 1.388 . S
C1525 C1526 1.366 . S
C1526 C1525 1.366 . S
C1526 C1527 1.414 . S
C1526 C1529 1.499 . S
C1527 H1501 0.950 . S
C1527 C1526 1.414 . S
C1527 C1528 1.374 . S
C1528 H1502 0.950 . S
C1528 C1524 1.385 . S
C1528 C1527 1.374 . S
C1529 C1526 1.499 . S
C1529 C1530 1.373 . S
C1529 C1531 1.389 . S
C1530 H1503 0.950 . S
C1530 C1516 1.377 . S
C1530 C1529 1.373 . S
C1531 C1515 1.377 . S
C1531 C1529 1.389 . S
C1531 C1532 1.524 1_565 S
C1532 C1531 1.524 1_545 S
C1532 C1533 1.397 . S
C1532 C1537 1.363 . S
C1533 H1504 0.950 . S
C1533 C1532 1.397 . S
C1533 C1534 1.334 . S
C1534 H1505 0.950 . S
C1534 C1533 1.334 . S
C1534 C1535 1.287 . S
C1535 C1534 1.287 . S
C1535 C1536 1.524 . S
C1535 H1538 0.999 . S
C1536 H1506 0.950 . S
C1536 C1535 1.524 . S
C1536 C1537 1.415 . S
C1537 H1507 0.950 1_545 S
C1537 C1532 1.363 . S
C1537 C1536 1.415 . S
H1538 C1535 0.999 . S
H1539 C1520 0.913 . S
H1540 C1558 0.951 . S
H1541 C1560 0.951 . S
H1542 C1562 0.950 . S
H1543 C1563 0.950 . S
H1544 C1565 0.950 . S
H1545 C1568 0.950 . S
H1546 C1569 0.950 . S
H1547 C1571 0.950 . S
H1548 C1572 0.950 . S
H1549 C1573 0.951 . S
H1550 C1575 0.951 . S
H1551 C1577 0.950 . S
H1552 C1578 0.950 . S
H1553 C1580 0.950 . S
H1554 C1583 0.950 . S
H1555 C1584 0.950 . S
H1556 C1586 0.950 . S
H1557 C1587 0.950 . S
C1558 H1540 0.951 . S
C1558 C1559 1.366 . S
C1558 C1560 1.388 . S
C1559 C1558 1.366 . S
C1559 C1563 1.385 . S
C1560 H1541 0.951 . S
C1560 C1558 1.388 . S
C1560 C1561 1.366 . S
C1561 C1560 1.366 . S
C1561 C1562 1.414 . S
C1561 C1564 1.499 . S
C1562 H1542 0.950 . S
C1562 C1561 1.414 . S
C1562 C1563 1.374 . S
C1563 H1543 0.950 . S
C1563 C1559 1.385 . S
C1563 C1562 1.374 . S
C1564 C1561 1.499 . S
C1564 C1565 1.373 . S
C1564 C1566 1.389 . S
C1565 H1544 0.950 . S
C1565 C1564 1.373 . S
C1565 C1581 1.377 . S
C1566 C1564 1.389 . S
C1566 C1567 1.524 . S
C1566 C1580 1.377 . S
C1567 C1566 1.524 . S
C1567 C1568 1.397 . S
C1567 C1572 1.363 . S
C1568 H1545 0.950 . S
C1568 C1567 1.397 . S
C1568 C1569 1.334 . S
C1569 H1546 0.950 . S
C1569 C1568 1.334 . S
C1569 C1570 1.287 . S
C1570 C1569 1.287 . S
C1570 C1571 1.524 . S
C1570 H1589 0.913 . S
C1571 H1547 0.950 . S
C1571 C1570 1.524 . S
C1571 C1572 1.415 . S
C1572 H1548 0.950 . S
C1572 C1567 1.363 . S
C1572 C1571 1.415 . S
C1573 H1549 0.951 . S
C1573 C1574 1.366 . S
C1573 C1575 1.388 . S
C1574 C1573 1.366 . S
C1574 C1578 1.385 . S
C1575 H1550 0.951 . S
C1575 C1573 1.388 . S
C1575 C1576 1.366 . S
C1576 C1575 1.366 . S
C1576 C1577 1.414 . S
C1576 C1579 1.499 . S
C1577 H1551 0.950 . S
C1577 C1576 1.414 . S
C1577 C1578 1.374 . S
C1578 H1552 0.950 . S
C1578 C1574 1.385 . S
C1578 C1577 1.374 . S
C1579 C1576 1.499 . S
C1579 C1580 1.373 . S
C1579 C1581 1.389 . S
C1580 H1553 0.950 . S
C1580 C1566 1.377 . S
C1580 C1579 1.373 . S
C1581 C1565 1.377 . S
C1581 C1579 1.389 . S
C1581 C1582 1.524 . S
C1582 C1581 1.524 . S
C1582 C1583 1.397 . S
C1582 C1587 1.363 . S
C1583 H1554 0.950 . S
C1583 C1582 1.397 . S
C1583 C1584 1.334 . S
C1584 H1555 0.950 . S
C1584 C1583 1.334 . S
C1584 C1585 1.287 . S
C1585 C1584 1.287 . S
C1585 C1586 1.524 . S
C1585 H1588 0.999 . S
C1586 H1556 0.950 . S
C1586 C1585 1.524 . S
C1586 C1587 1.415 . S
C1587 H1557 0.950 . S
C1587 C1582 1.363 . S
C1587 C1586 1.415 . S
H1588 C1585 0.999 . S
H1589 C1570 0.913 . S
H1590 C1608 0.951 . S
H1591 C1610 0.951 . S
H1592 C1612 0.950 . S
H1593 C1613 0.950 . S
H1594 C1615 0.950 . S
H1595 C1618 0.950 . S
H1596 C1619 0.950 . S
H1597 C1621 0.950 . S
H1598 C1622 0.950 . S
H1599 C1623 0.951 . S
H1600 C1625 0.951 . S
H1601 C1627 0.950 . S
H1602 C1628 0.950 . S
H1603 C1630 0.950 . S
H1604 C1633 0.950 . S
H1605 C1634 0.950 . S
H1606 C1636 0.950 . S
H1607 C1637 0.950 . S
C1608 H1590 0.951 . S
C1608 C1609 1.366 . S
C1608 C1610 1.388 . S
C1609 C1608 1.366 . S
C1609 C1613 1.385 . S
C1610 H1591 0.951 . S
C1610 C1608 1.388 . S
C1610 C1611 1.366 . S
C1611 C1610 1.366 . S
C1611 C1612 1.414 . S
C1611 C1614 1.499 . S
C1612 H1592 0.950 . S
C1612 C1611 1.414 . S
C1612 C1613 1.374 . S
C1613 H1593 0.950 . S
C1613 C1609 1.385 . S
C1613 C1612 1.374 . S
C1614 C1611 1.499 . S
C1614 C1615 1.373 . S
C1614 C1616 1.389 . S
C1615 H1594 0.950 . S
C1615 C1614 1.373 . S
C1615 C1631 1.377 . S
C1616 C1614 1.389 . S
C1616 C1617 1.524 . S
C1616 C1630 1.377 . S
C1617 C1616 1.524 . S
C1617 C1618 1.397 . S
C1617 C1622 1.363 . S
C1618 H1595 0.950 . S
C1618 C1617 1.397 . S
C1618 C1619 1.334 . S
C1619 H1596 0.950 . S
C1619 C1618 1.334 . S
C1619 C1620 1.287 . S
C1620 C1619 1.287 . S
C1620 C1621 1.524 . S
C1620 H1639 0.913 . S
C1621 H1597 0.950 . S
C1621 C1620 1.524 . S
C1621 C1622 1.415 . S
C1622 H1598 0.950 . S
C1622 C1617 1.363 . S
C1622 C1621 1.415 . S
C1623 H1599 0.951 . S
C1623 C1624 1.366 . S
C1623 C1625 1.388 . S
C1624 C1623 1.366 . S
C1624 C1628 1.385 . S
C1625 H1600 0.951 . S
C1625 C1623 1.388 . S
C1625 C1626 1.366 . S
C1626 C1625 1.366 . S
C1626 C1627 1.414 . S
C1626 C1629 1.499 . S
C1627 H1601 0.950 . S
C1627 C1626 1.414 . S
C1627 C1628 1.374 . S
C1628 H1602 0.950 . S
C1628 C1624 1.385 . S
C1628 C1627 1.374 . S
C1629 C1626 1.499 . S
C1629 C1630 1.373 . S
C1629 C1631 1.389 . S
C1630 H1603 0.950 . S
C1630 C1616 1.377 . S
C1630 C1629 1.373 . S
C1631 C1615 1.377 . S
C1631 C1629 1.389 . S
C1631 C1632 1.524 . S
C1632 C1631 1.524 . S
C1632 C1633 1.397 . S
C1632 C1637 1.363 . S
C1633 H1604 0.950 . S
C1633 C1632 1.397 . S
C1633 C1634 1.334 . S
C1634 H1605 0.950 . S
C1634 C1633 1.334 . S
C1634 C1635 1.287 . S
C1635 C1634 1.287 . S
C1635 C1636 1.524 . S
C1635 H1638 0.999 . S
C1636 H1606 0.950 . S
C1636 C1635 1.524 . S
C1636 C1637 1.415 . S
C1637 H1607 0.950 . S
C1637 C1632 1.363 . S
C1637 C1636 1.415 . S
H1638 C1635 0.999 . S
H1639 C1620 0.913 . S
C459 C82 1.704 . S
C474 C178 1.843 . S
C524 C262 1.875 . S
C509 C95 1.739 . S
C574 C328 1.895 . S
C559 C56 1.857 . S
C624 C412 1.867 . S
C609 C69 1.825 . S
C674 C167 1.843 1_565 S
C659 C30 1.643 . S
C709 C43 1.673 . S
C724 C251 1.876 . S
C759 C4 1.784 . S
C774 C339 1.895 . S
C809 C17 1.757 . S
C824 C423 1.867 . S
C874 C174 0.523 1_455 S
C859 C74 0.495 . S
C924 C258 0.574 . S
C909 C87 0.467 . S
C974 C330 0.507 . S
C959 C100 0.445 . S
C1009 C61 0.470 . S
C1024 C414 0.522 . S
C1059 C22 0.502 . S
C1074 C162 0.533 . S
C1124 C246 0.517 . S
C1109 C35 0.472 . S
C1174 C342 0.510 . S
C1159 C48 0.449 . S
C1209 C9 0.478 . S
C1224 C426 0.519 . S
C1259 C73 1.955 . S
C1274 C171 1.992 . S
C1309 C86 1.916 . S
C1324 C255 1.954 . S
C1374 C335 1.935 . S
C1359 C99 1.809 . S
C1424 C419 1.970 . S
C1409 C60 1.843 . S
C1459 C21 1.948 . S
C1474 C160 1.992 . S
C1524 C244 1.949 1_565 S
C1509 C34 1.910 . S
C1574 C346 1.934 . S
C1559 C47 1.804 . S
C1609 C8 1.836 . S
C1624 C430 1.971 . S
