# Generated by pormake.
# Topology pyr, (3,6)-cn, num edge types: 1
# Building blocks:
#     Node 0, Type 0, BuildingBlock: BETDIP_clean_linker_0, # of connection points: 3
#     Node 1, Type 0, BuildingBlock: BETDIP_clean_linker_0, # of connection points: 3
#     Node 2, Type 0, BuildingBlock: BETDIP_clean_linker_0, # of connection points: 3
#     Node 3, Type 0, BuildingBlock: BETDIP_clean_linker_0, # of connection points: 3
#     Node 4, Type 0, BuildingBlock: BETDIP_clean_linker_0, # of connection points: 3
#     Node 5, Type 0, BuildingBlock: BETDIP_clean_linker_0, # of connection points: 3
#     Node 6, Type 0, BuildingBlock: BETDIP_clean_linker_0, # of connection points: 3
#     Node 7, Type 0, BuildingBlock: BETDIP_clean_linker_0, # of connection points: 3
#     Node 8, Type 1, BuildingBlock: BETDAH_clean_sbu_0, # of connection points: 6
#     Node 9, Type 1, BuildingBlock: BETDAH_clean_sbu_0, # of connection points: 6
#     Node 10, Type 1, BuildingBlock: BETDAH_clean_sbu_0, # of connection points: 6
#     Node 11, Type 1, BuildingBlock: BETDAH_clean_sbu_0, # of connection points: 6
#     Edge 12, Type (0, 1), BuildingBlock: CIFDUS_clean_linker_0, # of connection points: 2
#     Edge 13, Type (0, 1), BuildingBlock: CIFDUS_clean_linker_0, # of connection points: 2
#     Edge 14, Type (0, 1), BuildingBlock: CIFDUS_clean_linker_0, # of connection points: 2
#     Edge 15, Type (0, 1), BuildingBlock: CIFDUS_clean_linker_0, # of connection points: 2
#     Edge 16, Type (0, 1), BuildingBlock: CIFDUS_clean_linker_0, # of connection points: 2
#     Edge 17, Type (0, 1), BuildingBlock: CIFDUS_clean_linker_0, # of connection points: 2
#     Edge 18, Type (0, 1), BuildingBlock: CIFDUS_clean_linker_0, # of connection points: 2
#     Edge 19, Type (0, 1), BuildingBlock: CIFDUS_clean_linker_0, # of connection points: 2
#     Edge 20, Type (0, 1), BuildingBlock: CIFDUS_clean_linker_0, # of connection points: 2
#     Edge 21, Type (0, 1), BuildingBlock: CIFDUS_clean_linker_0, # of connection points: 2
#     Edge 22, Type (0, 1), BuildingBlock: CIFDUS_clean_linker_0, # of connection points: 2
#     Edge 23, Type (0, 1), BuildingBlock: CIFDUS_clean_linker_0, # of connection points: 2
#     Edge 24, Type (0, 1), BuildingBlock: CIFDUS_clean_linker_0, # of connection points: 2
#     Edge 25, Type (0, 1), BuildingBlock: CIFDUS_clean_linker_0, # of connection points: 2
#     Edge 26, Type (0, 1), BuildingBlock: CIFDUS_clean_linker_0, # of connection points: 2
#     Edge 27, Type (0, 1), BuildingBlock: CIFDUS_clean_linker_0, # of connection points: 2
#     Edge 28, Type (0, 1), BuildingBlock: CIFDUS_clean_linker_0, # of connection points: 2
#     Edge 29, Type (0, 1), BuildingBlock: CIFDUS_clean_linker_0, # of connection points: 2
#     Edge 30, Type (0, 1), BuildingBlock: CIFDUS_clean_linker_0, # of connection points: 2
#     Edge 31, Type (0, 1), BuildingBlock: CIFDUS_clean_linker_0, # of connection points: 2
#     Edge 32, Type (0, 1), BuildingBlock: CIFDUS_clean_linker_0, # of connection points: 2
#     Edge 33, Type (0, 1), BuildingBlock: CIFDUS_clean_linker_0, # of connection points: 2
#     Edge 34, Type (0, 1), BuildingBlock: CIFDUS_clean_linker_0, # of connection points: 2
#     Edge 35, Type (0, 1), BuildingBlock: CIFDUS_clean_linker_0, # of connection points: 2
# Relax obj value: 0.151
# Max RMSD: 0.172
# Mean RMSD: 0.138
data_MOF--net-pyr--node1-BETDAH_clean_sbu_0--node2-BETDIP_clean_linker_0--edge1-CIFDUS_clean_linker_0
_symmetry_space_group_name_H-M    P1
_symmetry_Int_Tables_number       1
_symmetry_cell_setting            triclinic
loop_
_symmetry_equiv_pos_as_xyz
'x, y, z'
_cell_length_a     33.101908
_cell_length_b     34.890818
_cell_length_c     33.033635
_cell_angle_alpha  92.883368
_cell_angle_beta   87.100218
_cell_angle_gamma 107.96875
loop_
_atom_site_label
_atom_site_type_symbol
_atom_site_fract_x
_atom_site_fract_y
_atom_site_fract_z
_atom_type_partial_charge
H0 H 0.34787 0.34247 0.25108 0.0
H1 H 0.42679 0.32709 0.14823 0.0
H2 H 0.38902 0.2368 0.23804 0.0
H3 H 0.39484 0.36596 0.11897 0.0
C4 C 0.38044 0.38172 0.14169 0.0
C5 C 0.36705 0.3257 0.23554 0.0
C6 C 0.36625 0.28812 0.24947 0.0
C7 C 0.38814 0.33978 0.19893 0.0
C8 C 0.4106 0.31687 0.17681 0.0
C9 C 0.41152 0.27994 0.19124 0.0
C10 C 0.3899 0.26612 0.22786 0.0
N11 N 0.38177 0.37466 0.18351 0.0
H12 H 0.14343 0.84385 0.72114 0.0
H13 H 0.18397 0.79671 0.60856 0.0
H14 H 0.26251 0.81764 0.71134 0.0
H15 H 0.12139 0.80261 0.58325 0.0
C16 C 0.11956 0.82808 0.60275 0.0
C17 C 0.16616 0.83225 0.70394 0.0
C18 C 0.20347 0.83147 0.72188 0.0
C19 C 0.15899 0.82036 0.66306 0.0
C20 C 0.18868 0.80587 0.6402 0.0
C21 C 0.22559 0.80448 0.65808 0.0
C22 C 0.23288 0.81738 0.69855 0.0
N23 N 0.12401 0.8274 0.64516 0.0
H24 H 0.73346 0.45904 0.84514 0.0
H25 H 0.63103 0.34741 0.84845 0.0
H26 H 0.73539 0.36723 0.92752 0.0
H27 H 0.70856 0.45169 0.77327 0.0
C28 C 0.67483 0.44531 0.78064 0.0
C29 C 0.71938 0.42951 0.85743 0.0
C30 C 0.74024 0.41659 0.88842 0.0
C31 C 0.67976 0.40488 0.84278 0.0
C32 C 0.66123 0.36633 0.85946 0.0
C33 C 0.68179 0.35151 0.88905 0.0
C34 C 0.72083 0.3774 0.90332 0.0
N35 N 0.65665 0.41872 0.81341 0.0
H36 H 0.81812 0.66983 0.35076 0.0
H37 H 0.93157 0.77163 0.34379 0.0
H38 H 0.83452 0.76973 0.43645 0.0
H39 H 0.94425 0.74136 0.28268 0.0
C40 C 0.92454 0.71007 0.2816 0.0
C41 C 0.83672 0.69938 0.36212 0.0
C42 C 0.82134 0.71744 0.39592 0.0
C43 C 0.87609 0.71834 0.34283 0.0
C44 C 0.90088 0.75672 0.35788 0.0
C45 C 0.88633 0.77531 0.39238 0.0
C46 C 0.84652 0.75526 0.41085 0.0
N47 N 0.88923 0.6965 0.30955 0.0
H48 H 0.61564 0.79574 0.94011 0.0
H49 H 0.70757 0.76026 0.86301 0.0
H50 H 0.68155 0.87053 0.84257 0.0
H51 H 0.64862 0.67627 0.91865 0.0
C52 C 0.67001 0.70693 0.92019 0.0
C53 C 0.63817 0.8015 0.91448 0.0
C54 C 0.64526 0.83659 0.89234 0.0
C55 C 0.66044 0.77382 0.90432 0.0
C56 C 0.6903 0.78135 0.8716 0.0
C57 C 0.69841 0.81654 0.84982 0.0
C58 C 0.67532 0.84355 0.85978 0.0
N59 N 0.65118 0.73837 0.92708 0.0
H60 H 0.72248 0.10708 0.45105 0.0
H61 H 0.72346 0.20197 0.53978 0.0
H62 H 0.64951 0.18697 0.43363 0.0
H63 H 0.76286 0.17485 0.57581 0.0
C64 C 0.77576 0.15596 0.55525 0.0
C65 C 0.711 0.13184 0.46186 0.0
C66 C 0.68343 0.14402 0.43845 0.0
C67 C 0.72546 0.1522 0.49841 0.0
C68 C 0.71178 0.18521 0.51213 0.0
C69 C 0.6834 0.19729 0.48924 0.0
C70 C 0.66932 0.17634 0.45261 0.0
N71 N 0.75614 0.13998 0.51829 0.0
H72 H 0.34725 0.68542 0.22618 0.0
H73 H 0.45858 0.78893 0.22014 0.0
H74 H 0.35923 0.7753 0.13662 0.0
H75 H 0.37194 0.69092 0.29867 0.0
C76 C 0.40565 0.69609 0.2922 0.0
C77 C 0.36452 0.71361 0.21252 0.0
C78 C 0.3471 0.72727 0.17926 0.0
C79 C 0.40496 0.73565 0.22753 0.0
C80 C 0.42763 0.77223 0.20899 0.0
C81 C 0.41102 0.78778 0.1769 0.0
C82 C 0.37087 0.76474 0.16254 0.0
N83 N 0.42547 0.72087 0.25853 0.0
H84 H 0.13442 0.36923 0.72572 0.0
H85 H 0.2445 0.47127 0.70095 0.0
H86 H 0.2204 0.3629 0.62554 0.0
H87 H 0.13298 0.40283 0.78801 0.0
C88 C 0.14732 0.43476 0.783 0.0
C89 C 0.16347 0.38303 0.7084 0.0
C90 C 0.1749 0.36143 0.67472 0.0
C91 C 0.18884 0.42293 0.71818 0.0
C92 C 0.22559 0.44048 0.69394 0.0
C93 C 0.23748 0.41929 0.66033 0.0
C94 C 0.21177 0.37975 0.65122 0.0
N95 N 0.17772 0.44754 0.75023 0.0
Ho96 Ho 0.0435 0.07379 0.52114 0.0
Ho97 Ho 0.02847 1.03694 0.60385 0.0
C98 C 0.07383 0.12979 0.60176 0.0
C99 C 0.05457 0.11815 0.45865 0.0
C100 C 0.0908 0.13283 0.42993 0.0
C101 C 0.10125 0.17218 0.41626 0.0
C102 C 0.13777 0.18773 0.39174 0.0
C103 C 0.1643 0.16404 0.38048 0.0
C104 C 0.15348 0.12445 0.39391 0.0
C105 C 0.11716 0.10904 0.41861 0.0
C106 C 0.10292 1.04011 0.54253 0.0
C107 C 0.99407 0.98029 0.52267 0.0
C108 C 0.0222 0.99306 0.66596 0.0
C109 C 0.9857 0.9649 0.68694 0.0
C110 C 0.99008 0.93081 0.70466 0.0
C111 C 0.95531 0.90419 0.72492 0.0
C112 C 0.91566 0.91141 0.72783 0.0
C113 C 0.91151 0.94545 0.70943 0.0
C114 C 0.94602 0.97168 0.68893 0.0
C115 C 0.96797 0.069 0.58331 0.0
O116 O 0.05487 0.12683 0.56685 0.0
O117 O 0.07591 0.09692 0.61863 0.0
O118 O 0.03513 0.07939 0.4574 0.0
O119 O 0.06107 0.13287 0.49565 0.0
O120 O 0.09244 0.04162 0.50565 0.0
O121 O 0.08483 0.06042 0.56475 0.0
O122 O 1.0069 0.98251 0.56038 0.0
O123 O 0.99852 1.01331 0.50256 0.0
O124 O 0.02363 1.03096 0.66872 0.0
O125 O 0.03122 0.98172 0.62923 0.0
O126 O 0.97842 0.06734 0.62021 0.0
O127 O 0.98642 0.04973 0.55998 0.0
H128 H 0.08148 0.19108 0.42504 0.0
H129 H 0.14515 0.2182 0.38143 0.0
H130 H 0.17358 0.10569 0.38599 0.0
H131 H 0.11009 0.07878 0.42937 0.0
H132 H 1.02039 0.92487 0.70295 0.0
H133 H 0.9595 0.87803 0.73828 0.0
H134 H 0.88183 0.95254 0.71167 0.0
H135 H 0.94178 0.99761 0.67507 0.0
Ho136 Ho 0.57408 0.07589 0.04269 0.0
Ho137 Ho 0.49712 0.05963 1.0067 0.0
C138 C 0.50555 0.11423 0.08567 0.0
C139 C 0.64595 0.10249 0.07811 0.0
C140 C 0.6573 0.09893 0.11967 0.0
C141 C 0.69535 0.12451 0.13475 0.0
C142 C 0.70442 0.1233 0.17544 0.0
C143 C 0.67543 0.09649 0.20152 0.0
C144 C 0.63795 0.06996 0.18575 0.0
C145 C 0.62888 0.0713 0.14519 0.0
C146 C 0.51976 1.00212 0.06652 0.0
C147 C 0.56593 1.02356 0.96578 0.0
C148 C 0.42504 1.03178 0.97172 0.0
C149 C 0.39545 0.99546 0.95338 0.0
C150 C 0.40958 0.96808 0.92845 0.0
C151 C 0.38025 0.93671 0.90748 0.0
C152 C 0.33652 0.93242 0.9112 0.0
C153 C 0.32253 0.95856 0.93807 0.0
C154 C 0.35179 0.98983 0.95892 0.0
C155 C 0.54833 0.13602 0.98819 0.0
O156 O 0.54582 0.11599 0.08273 0.0
O157 O 0.47782 0.08999 0.06159 0.0
O158 O 0.63443 0.06883 0.05659 0.0
O159 O 0.62058 0.12412 0.07442 0.0
O160 O 0.55989 1.01019 0.05818 0.0
O161 O 0.51 1.03418 0.06307 0.0
O162 O 0.52573 1.01337 0.97794 0.0
O163 O 0.59166 0.05717 0.98072 0.0
O164 O 0.46112 0.04817 0.9522 0.0
O165 O 0.42894 1.03214 1.0108 0.0
O166 O 0.50842 0.1254 0.99831 0.0
O167 O 0.56059 0.10468 0.988 0.0
H168 H 0.71746 0.14613 0.11539 0.0
H169 H 0.73327 0.1445 0.18682 0.0
H170 H 0.61525 0.04869 0.20497 0.0
H171 H 0.59923 0.05136 0.13394 0.0
H172 H 0.44321 0.97181 0.92402 0.0
H173 H 0.39199 0.9172 0.88674 0.0
H174 H 0.28903 0.95564 0.94192 0.0
H175 H 0.34036 1.01057 0.97831 0.0
Ho176 Ho 0.54196 0.54286 0.50905 0.0
Ho177 Ho 0.53241 0.60306 0.57099 0.0
C178 C 0.57522 0.53979 0.6021 0.0
C179 C 0.5688 0.49318 0.46283 0.0
C180 C 0.57883 0.45583 0.46981 0.0
C181 C 0.60095 0.45227 0.50395 0.0
C182 C 0.6086 0.41601 0.51092 0.0
C183 C 0.59409 0.38261 0.48399 0.0
C184 C 0.57217 0.38637 0.44975 0.0
C185 C 0.56464 0.42267 0.44275 0.0
C186 C 0.46549 0.52237 0.55058 0.0
C187 C 0.50047 0.60564 0.47799 0.0
C188 C 0.50237 0.65035 0.61737 0.0
C189 C 0.46639 0.66585 0.61344 0.0
C190 C 0.43267 0.64523 0.58863 0.0
C191 C 0.39809 0.65966 0.58551 0.0
C192 C 0.39668 0.69493 0.60719 0.0
C193 C 0.43091 0.71581 0.6315 0.0
C194 C 0.46552 0.70137 0.63454 0.0
C195 C 0.6104 0.62251 0.53413 0.0
O196 O 0.5763 0.52896 0.56289 0.0
O197 O 0.5562 0.56687 0.61444 0.0
O198 O 0.52872 0.49093 0.46741 0.0
O199 O 0.59399 0.52651 0.47879 0.0
O200 O 0.46994 0.51492 0.51208 0.0
O201 O 0.50151 0.53848 0.56476 0.0
O202 O 0.49306 0.61071 0.51766 0.0
O203 O 0.52557 0.58395 0.4659 0.0
O204 O 0.53418 0.66353 0.59142 0.0
O205 O 0.49229 0.61152 0.62193 0.0
O206 O 0.60327 0.62863 0.57252 0.0
O207 O 0.57556 0.60775 0.51659 0.0
H208 H 0.61212 0.47736 0.52542 0.0
H209 H 0.62532 0.41393 0.53767 0.0
H210 H 0.5612 0.36135 0.4281 0.0
H211 H 0.5475 0.4248 0.41628 0.0
H212 H 0.4328 0.61769 0.57205 0.0
H213 H 0.37238 0.64312 0.56634 0.0
H214 H 0.43042 0.74271 0.64911 0.0
H215 H 0.49132 0.71762 0.65377 0.0
Ho216 Ho 0.04394 0.53857 0.05651 0.0
Ho217 Ho 0.03988 0.61641 1.0118 0.0
C218 C 0.12482 0.62334 0.06226 0.0
C219 C 0.06663 0.47918 0.08045 0.0
C220 C 0.10657 0.47327 0.09203 0.0
C221 C 0.11566 0.43798 0.07865 0.0
C222 C 0.15388 0.43204 0.08807 0.0
C223 C 0.18373 0.46132 0.11117 0.0
C224 C 0.17456 0.49673 0.12459 0.0
C225 C 0.13634 0.50274 0.11496 0.0
C226 C 1.00499 0.58713 0.09819 0.0
C227 C 0.96307 0.52968 1.00066 0.0
C228 C 1.0139 0.67764 1.0014 0.0
C229 C 0.9788 0.68488 0.98053 0.0
C230 C 0.95818 0.71097 0.9993 0.0
C231 C 0.92009 0.7131 0.98468 0.0
C232 C 0.90182 0.68931 0.95065 0.0
C233 C 0.92386 0.66462 0.93068 0.0
C234 C 0.96178 0.66213 0.94571 0.0
C235 C 0.0695 0.56652 0.96007 0.0
O236 O 0.1097 0.58375 0.06802 0.0
O237 O 0.10312 0.6427 0.04253 0.0
O238 O 0.05048 0.50176 0.10499 0.0
O239 O 0.06485 0.48644 0.04225 0.0
O240 O 0.99302 0.54807 0.10095 0.0
O241 O 0.03747 0.59762 0.07469 0.0
O242 O 0.97547 0.56973 0.99824 0.0
O243 O 0.98581 0.51084 1.01936 0.0
O244 O 0.04496 0.67031 0.97919 0.0
O245 O 1.00132 0.65372 1.0319 0.0
O246 O 0.06697 0.60127 0.94982 0.0
O247 O 0.05746 0.56268 0.99681 0.0
H248 H 0.09314 0.41498 0.0608 0.0
H249 H 0.15978 0.40421 0.0778 0.0
H250 H 0.1971 0.51993 0.14218 0.0
H251 H 0.13013 0.5304 0.12533 0.0
H252 H 0.97045 0.72826 1.02662 0.0
H253 H 0.90396 0.73189 1.00146 0.0
H254 H 0.9113 0.64634 0.90402 0.0
H255 H 0.97688 0.64135 0.93104 0.0
H256 H 0.31346 0.21156 0.24892 0.0
H257 H 0.34728 0.32222 0.32176 0.0
H258 H 0.28807 0.29304 0.36963 0.0
H259 H 0.22425 0.2373 0.3883 0.0
H260 H 0.19102 0.12723 0.31453 0.0
H261 H 0.25321 0.15476 0.26981 0.0
C262 C 0.3087 0.22901 0.27583 0.0
C263 C 0.33487 0.26897 0.28186 0.0
C264 C 0.27453 0.21224 0.30283 0.0
C265 C 0.32745 0.29145 0.31638 0.0
C266 C 0.2936 0.27481 0.34368 0.0
C267 C 0.23069 0.21944 0.36238 0.0
C268 C 0.203 0.18043 0.3545 0.0
C269 C 0.26642 0.23552 0.33671 0.0
C270 C 0.21201 0.15726 0.32129 0.0
C271 C 0.24744 0.17302 0.29566 0.0
H272 H 0.24174 0.80388 0.78014 0.0
H273 H 0.19179 0.90065 0.75559 0.0
H274 H 0.22397 0.93787 0.81624 0.0
H275 H 0.27555 0.94776 0.86924 0.0
H276 H 0.3306 0.85385 0.89076 0.0
H277 H 0.28798 0.81103 0.83761 0.0
C278 C 0.23758 0.83297 0.78828 0.0
C279 C 0.2149 0.84966 0.76298 0.0
C280 C 0.25783 0.85508 0.82213 0.0
C281 C 0.20883 0.88689 0.77453 0.0
C282 C 0.22771 0.90848 0.80897 0.0
C283 C 0.27742 0.91751 0.86306 0.0
C284 C 0.30635 0.90403 0.88369 0.0
C285 C 0.25361 0.89356 0.832 0.0
C286 C 0.30892 0.86503 0.8749 0.0
C287 C 0.28452 0.84056 0.84462 0.0
H288 H 0.69457 0.4673 0.70183 0.0
H289 H 0.59667 0.45892 0.79486 0.0
H290 H 0.55832 0.48852 0.74972 0.0
H291 H 0.5528 0.51829 0.68291 0.0
H292 H 0.64826 0.51999 0.58867 0.0
H293 H 0.6866 0.49192 0.63444 0.0
C294 C 0.66466 0.47167 0.71228 0.0
C295 C 0.64889 0.46071 0.75219 0.0
C296 C 0.64213 0.48792 0.68557 0.0
C297 C 0.60982 0.46663 0.76458 0.0
C298 C 0.58786 0.48385 0.73862 0.0
C299 C 0.58204 0.5126 0.67239 0.0
C300 C 0.59753 0.52193 0.6319 0.0
C301 C 0.60372 0.49492 0.69896 0.0
C302 C 0.63523 0.51341 0.61919 0.0
C303 C 0.65738 0.49728 0.64558 0.0
H304 H 0.9835 0.72773 0.21904 0.0
H305 H 0.88506 0.62853 0.27081 0.0
H306 H 0.89989 0.58241 0.21828 0.0
H307 H 0.94206 0.56944 0.15798 0.0
H308 H 0.04061 0.66865 0.10637 0.0
H309 H 0.02431 0.71512 0.15769 0.0
C310 C 0.96526 0.69602 0.21876 0.0
C311 C 0.93327 0.68183 0.24906 0.0
C312 C 0.97389 0.66945 0.18817 0.0
C313 C 0.90988 0.64056 0.24807 0.0
C314 C 0.91835 0.61402 0.21791 0.0
C315 C 0.95973 0.60128 0.15779 0.0
C316 C 0.9924 0.61541 0.12805 0.0
C317 C 0.9504 0.62802 0.18783 0.0
C318 C 1.01506 0.65683 0.12852 0.0
C319 C 1.0059 0.6835 0.15809 0.0
H320 H 0.46784 0.24211 0.21191 0.0
H321 H 0.39329 0.25573 0.11338 0.0
H322 H 0.41458 0.20424 0.07283 0.0
H323 H 0.45224 0.15392 0.06621 0.0
H324 H 0.53133 0.14282 0.16183 0.0
H325 H 0.51018 0.19453 0.20314 0.0
C326 C 0.45674 0.23398 0.18139 0.0
C327 C 0.4292 0.25263 0.16549 0.0
C328 C 0.46938 0.20451 0.15813 0.0
C329 C 0.41497 0.2421 0.12594 0.0
C330 C 0.42678 0.21243 0.10294 0.0
C331 C 0.46449 0.16259 0.09629 0.0
C332 C 0.4924 0.14414 0.11156 0.0
C333 C 0.45346 0.19311 0.11893 0.0
C334 C 0.5093 0.15641 0.14988 0.0
C335 C 0.49734 0.18598 0.17332 0.0
H336 H 0.13205 0.90199 0.63987 0.0
H337 H 0.10176 0.83715 0.52512 0.0
H338 H 0.09749 0.89845 0.49479 0.0
H339 H 0.09982 0.96971 0.502 0.0
H340 H 0.12968 1.0337 0.61719 0.0
H341 H 0.13762 0.97345 0.64623 0.0
C342 C 0.1244 0.90113 0.60824 0.0
C343 C 0.11667 0.86502 0.58477 0.0
C344 C 0.12249 0.9364 0.59107 0.0
C345 C 0.10747 0.86463 0.54374 0.0
C346 C 0.10519 0.89963 0.52642 0.0
C347 C 0.1089 0.97062 0.53321 0.0
C348 C 0.11435 1.00597 0.55751 0.0
C349 C 0.1125 0.93565 0.54987 0.0
C350 C 0.12559 1.00676 0.59799 0.0
C351 C 0.1298 0.9723 0.61463 0.0
H352 H 0.80663 0.39597 0.92056 0.0
H353 H 0.76815 0.50027 0.8981 0.0
H354 H 0.83246 0.54394 0.92903 0.0
H355 H 0.89993 0.55322 0.96481 0.0
H356 H 0.93484 0.44759 0.99004 0.0
H357 H 0.87185 0.40473 0.95707 0.0
C358 C 0.81156 0.42815 0.92271 0.0
C359 C 0.78137 0.44403 0.90649 0.0
C360 C 0.84848 0.45342 0.94168 0.0
C361 C 0.79026 0.48638 0.90924 0.0
C362 C 0.82721 0.51168 0.9275 0.0
C363 C 0.89381 0.52082 0.96325 0.0
C364 C 0.92285 0.50416 0.9805 0.0
C365 C 0.85663 0.49564 0.94413 0.0
C366 C 0.91364 0.46186 0.97767 0.0
C367 C 0.87736 0.43704 0.95853 0.0
H368 H 0.80029 0.71034 0.47682 0.0
H369 H 0.74677 0.67781 0.35895 0.0
H370 H 0.67724 0.64433 0.3907 0.0
H371 H 0.63078 0.62545 0.45244 0.0
H372 H 0.68514 0.65865 0.56993 0.0
H373 H 0.75467 0.6906 0.53798 0.0
C374 C 0.77337 0.69618 0.45804 0.0
C375 C 0.77892 0.69679 0.4155 0.0
C376 C 0.73339 0.67698 0.47651 0.0
C377 C 0.74367 0.67758 0.39174 0.0
C378 C 0.70376 0.65853 0.4099 0.0
C379 C 0.65792 0.63954 0.47096 0.0
C380 C 0.65264 0.63981 0.51354 0.0
C381 C 0.69814 0.65811 0.4523 0.0
C382 C 0.68819 0.65813 0.53711 0.0
C383 C 0.72806 0.67649 0.51886 0.0
H384 H 0.33722 0.42408 0.18826 0.0
H385 H 0.35415 0.3821 0.06539 0.0
H386 H 0.29615 0.40541 0.04421 0.0
H387 H 0.23715 0.43282 0.06191 0.0
H388 H 0.21967 0.47358 0.18513 0.0
H389 H 0.28173 0.45603 0.20485 0.0
C390 C 0.32853 0.42038 0.15676 0.0
C391 C 0.34957 0.40101 0.12842 0.0
C392 C 0.29494 0.43344 0.14496 0.0
C393 C 0.33827 0.39687 0.08769 0.0
C394 C 0.30502 0.41 0.07564 0.0
C395 C 0.24704 0.43793 0.09305 0.0
C396 C 0.22363 0.4541 0.12211 0.0
C397 C 0.28252 0.42747 0.10422 0.0
C398 C 0.23726 0.46132 0.16217 0.0
C399 C 0.27259 0.45109 0.17351 0.0
H400 H 0.59797 0.30967 0.91044 0.0
H401 H 0.7235 0.29689 0.90546 0.0
H402 H 0.69529 0.23009 0.93407 0.0
H403 H 0.63404 0.17397 0.96233 0.0
H404 H 0.50958 0.18987 0.96855 0.0
H405 H 0.53796 0.2549 0.93808 0.0
C406 C 0.61927 0.29228 0.91519 0.0
C407 C 0.66316 0.3092 0.90551 0.0
C408 C 0.60281 0.25354 0.93228 0.0
C409 C 0.68975 0.28557 0.91277 0.0
C410 C 0.67351 0.24693 0.92914 0.0
C411 C 0.6131 0.19152 0.95683 0.0
C412 C 0.56924 0.17594 0.96792 0.0
C413 C 0.62996 0.23037 0.93936 0.0
C414 C 0.54325 0.20011 0.96059 0.0
C415 C 0.55951 0.23781 0.94298 0.0
H416 H 0.90231 0.79734 0.47182 0.0
H417 H 0.92692 0.84464 0.35194 0.0
H418 H 0.96183 0.9122 0.3811 0.0
H419 H 0.98313 0.95867 0.44143 0.0
H420 H 0.95961 0.90952 0.56077 0.0
H421 H 0.92633 0.84245 0.53118 0.0
C422 C 0.91537 0.8224 0.45199 0.0
C423 C 0.91164 0.81577 0.40965 0.0
C424 C 0.93535 0.86115 0.469 0.0
C425 C 0.92947 0.84864 0.38454 0.0
C426 C 0.94918 0.88742 0.40129 0.0
C427 C 0.97058 0.93331 0.46095 0.0
C428 C 0.97363 0.93954 0.50347 0.0
C429 C 0.95187 0.89421 0.44357 0.0
C430 C 0.95774 0.90598 0.52808 0.0
C431 C 0.93864 0.86742 0.51115 0.0
H432 H 0.22119 0.72799 0.63632 0.0
H433 H 0.30306 0.85057 0.63165 0.0
H434 H 0.36347 0.8271 0.60986 0.0
H435 H 0.39446 0.77167 0.60184 0.0
H436 H 0.31338 0.64889 0.61168 0.0
H437 H 0.25106 0.67218 0.62078 0.0
C438 C 0.25203 0.74935 0.62917 0.0
C439 C 0.25805 0.79075 0.63514 0.0
C440 C 0.28677 0.73555 0.61819 0.0
C441 C 0.29804 0.81852 0.62673 0.0
C442 C 0.33252 0.8051 0.61468 0.0
C443 C 0.36309 0.75003 0.60566 0.0
C444 C 0.35861 0.70872 0.60667 0.0
C445 C 0.32756 0.76369 0.61192 0.0
C446 C 0.3177 0.68089 0.6107 0.0
C447 C 0.28205 0.69419 0.61619 0.0
H448 H 0.77994 0.81948 0.85866 0.0
H449 H 0.69514 0.83822 0.77225 0.0
H450 H 0.7551 0.86474 0.72437 0.0
H451 H 0.83188 0.88817 0.70999 0.0
H452 H 0.91723 0.87548 0.79942 0.0
H453 H 0.85677 0.83964 0.84256 0.0
C454 C 0.77462 0.82864 0.82898 0.0
C455 C 0.73342 0.82707 0.81882 0.0
C456 C 0.80932 0.84497 0.80225 0.0
C457 C 0.72676 0.83944 0.78061 0.0
C458 C 0.76096 0.85459 0.75335 0.0
C459 C 0.83734 0.87766 0.73895 0.0
C460 C 0.87914 0.88507 0.75157 0.0
C461 C 0.80248 0.85853 0.76434 0.0
C462 C 0.88551 0.87007 0.78868 0.0
C463 C 0.85091 0.84988 0.81362 0.0
H464 H 0.73797 0.12938 0.38028 0.0
H465 H 0.60604 0.12045 0.40382 0.0
H466 H 0.59128 0.10144 0.33257 0.0
H467 H 0.61746 0.09439 0.2629 0.0
H468 H 0.74958 0.10415 0.23897 0.0
H469 H 0.76274 0.11573 0.3114 0.0
C470 C 0.70578 0.12228 0.37001 0.0
C471 C 0.67314 0.12642 0.39713 0.0
C472 C 0.69774 0.11206 0.32898 0.0
C473 C 0.63172 0.11778 0.38332 0.0
C474 C 0.6233 0.10696 0.34266 0.0
C475 C 0.64894 0.09808 0.27358 0.0
C476 C 0.68256 0.09864 0.2456 0.0
C477 C 0.6563 0.10505 0.31508 0.0
C478 C 0.72332 0.10418 0.25989 0.0
C479 C 0.73082 0.11066 0.30126 0.0
H480 H 0.38288 0.67466 0.37121 0.0
H481 H 0.4843 0.68292 0.28193 0.0
H482 H 0.52153 0.65509 0.32972 0.0
H483 H 0.52529 0.62703 0.39767 0.0
H484 H 0.42614 0.62467 0.48825 0.0
H485 H 0.38884 0.65118 0.43998 0.0
C486 C 0.41327 0.67059 0.36214 0.0
C487 C 0.43036 0.68106 0.32241 0.0
C488 C 0.43518 0.65528 0.39042 0.0
C489 C 0.47006 0.67555 0.31191 0.0
C490 C 0.49142 0.65937 0.33943 0.0
C491 C 0.4955 0.63227 0.40695 0.0
C492 C 0.47873 0.62316 0.44716 0.0
C493 C 0.47432 0.64887 0.37887 0.0
C494 C 0.44023 0.63103 0.45805 0.0
C495 C 0.41866 0.64627 0.43019 0.0
H496 H 0.10238 0.42019 0.85521 0.0
H497 H 0.16963 0.51716 0.77776 0.0
H498 H 0.1522 0.56592 0.82565 0.0
H499 H 0.11674 0.58139 0.88935 0.0
H500 H 0.04993 0.4849 0.96717 0.0
H501 H 0.06853 0.43598 0.92006 0.0
C502 C 0.1133 0.45203 0.84889 0.0
C503 C 0.1373 0.4648 0.81274 0.0
C504 C 0.10342 0.48016 0.87694 0.0
C505 C 0.15124 0.50625 0.80519 0.0
C506 C 0.14121 0.53427 0.83265 0.0
C507 C 0.10654 0.54967 0.89614 0.0
C508 C 0.08266 0.53699 0.93234 0.0
C509 C 0.11722 0.52163 0.86859 0.0
C510 C 0.06944 0.49571 0.94038 0.0
C511 C 0.07966 0.46763 0.91307 0.0
H512 H 0.67784 0.91855 0.89353 0.0
H513 H 0.56177 0.82254 0.91763 0.0
H514 H 0.52574 0.87209 0.93906 0.0
H515 H 0.52825 0.94271 0.95405 0.0
H516 H 0.64472 1.03815 0.92976 0.0
H517 H 0.67899 0.98874 0.90384 0.0
C518 C 0.64443 0.90832 0.9027 0.0
C519 C 0.62268 0.86672 0.90399 0.0
C520 C 0.62384 0.93694 0.91468 0.0
C521 C 0.57958 0.85428 0.91689 0.0
C522 C 0.55882 0.88262 0.92886 0.0
C523 C 0.56087 0.95275 0.94234 0.0
C524 C 0.5839 0.99411 0.94388 0.0
C525 C 0.58075 0.92405 0.92826 0.0
C526 C 0.62629 1.00653 0.92898 0.0
C527 C 0.646 0.97827 0.91434 0.0
H528 H 0.82306 0.11965 0.507 0.0
H529 H 0.81151 0.16625 0.62906 0.0
H530 H 0.87102 0.14404 0.64875 0.0
H531 H 0.92471 0.10943 0.63126 0.0
H532 H 0.93586 0.06408 0.50861 0.0
H533 H 0.87779 0.08783 0.489 0.0
C534 C 0.83338 0.12492 0.53799 0.0
C535 C 0.81263 0.14408 0.56679 0.0
C536 C 0.86741 0.11224 0.54887 0.0
C537 C 0.82696 0.15132 0.60653 0.0
C538 C 0.86086 0.1386 0.61773 0.0
C539 C 0.91437 0.10486 0.60026 0.0
C540 C 0.93408 0.08475 0.57146 0.0
C541 C 0.88106 0.11872 0.5892 0.0
C542 C 0.92088 0.07928 0.5313 0.0
C543 C 0.88773 0.09284 0.5201 0.0
H544 H 0.28732 0.75214 0.13956 0.0
H545 H 0.31141 0.64385 0.17482 0.0
H546 H 0.24654 0.60302 0.14291 0.0
H547 H 0.18257 0.59702 0.10326 0.0
H548 H 0.16124 0.70557 0.06536 0.0
H549 H 0.22535 0.74626 0.09855 0.0
C550 C 0.27912 0.71962 0.14007 0.0
C551 C 0.30545 0.70187 0.16033 0.0
C552 C 0.24181 0.69579 0.1205 0.0
C553 C 0.29235 0.65929 0.1607 0.0
C554 C 0.25508 0.63555 0.14184 0.0
C555 C 0.19187 0.62956 0.10203 0.0
C556 C 0.16627 0.64771 0.0813 0.0
C557 C 0.22948 0.65333 0.12143 0.0
C558 C 0.17968 0.69018 0.08053 0.0
C559 C 0.21658 0.71373 0.09982 0.0
H560 H 0.31656 0.46568 0.68367 0.0
H561 H 0.24537 0.41589 0.57734 0.0
H562 H 0.30869 0.44366 0.53404 0.0
H563 H 0.38532 0.48095 0.52606 0.0
H564 H 0.45638 0.53002 0.63257 0.0
H565 H 0.39246 0.50441 0.67563 0.0
C566 C 0.31474 0.46127 0.65101 0.0
C567 C 0.27608 0.43836 0.63402 0.0
C568 C 0.35149 0.4773 0.6261 0.0
C569 C 0.2747 0.43274 0.5915 0.0
C570 C 0.31094 0.44882 0.56659 0.0
C571 C 0.38671 0.48613 0.55867 0.0
C572 C 0.42568 0.50749 0.57596 0.0
C573 C 0.34968 0.47087 0.5835 0.0
C574 C 0.42687 0.5139 0.61833 0.0
C575 C 0.39026 0.49913 0.64308 0.0
H576 H 0.70906 0.65046 0.90689 0.0
H577 H 0.7339 0.77547 0.94468 0.0
H578 H 0.80856 0.78177 0.95331 0.0
H579 H 0.86613 0.75089 0.95305 0.0
H580 H 0.83893 0.62398 0.92134 0.0
H581 H 0.76644 0.61969 0.90656 0.0
C582 C 0.73092 0.67915 0.91683 0.0
C583 C 0.71598 0.71248 0.92459 0.0
C584 C 0.77355 0.68227 0.92273 0.0
C585 C 0.74453 0.74942 0.93777 0.0
C586 C 0.78728 0.753 0.94295 0.0
C587 C 0.8444 0.72219 0.94311 0.0
C588 C 0.85848 0.68786 0.93838 0.0
C589 C 0.80204 0.71948 0.93597 0.0
C590 C 0.82971 0.65119 0.9246 0.0
C591 C 0.78789 0.64852 0.91656 0.0
H592 H 0.38395 0.85003 0.14934 0.0
H593 H 0.49684 0.81434 0.15812 0.0
H594 H 0.53922 0.87581 0.12553 0.0
H595 H 0.5453 0.94022 0.09359 0.0
H596 H 0.43365 0.97777 0.08587 0.0
H597 H 0.3904 0.91577 0.11825 0.0
C598 C 0.41781 0.85552 0.14408 0.0
C599 C 0.43672 0.82682 0.15681 0.0
C600 C 0.44257 0.89169 0.1252 0.0
C601 C 0.48095 0.83545 0.14964 0.0
C602 C 0.50541 0.87078 0.13059 0.0
C603 C 0.51148 0.93499 0.09898 0.0
C604 C 0.49304 0.96417 0.08702 0.0
C605 C 0.48673 0.89922 0.11819 0.0
C606 C 0.44904 0.95634 0.09462 0.0
C607 C 0.42418 0.92065 0.11321 0.0
H608 H 0.1709 0.28834 0.70395 0.0
H609 H 0.12033 0.34342 0.61333 0.0
H610 H 0.08387 0.27693 0.58299 0.0
H611 H 0.06959 0.2032 0.57982 0.0
H612 H 0.12092 0.14778 0.67001 0.0
H613 H 0.1536 0.21377 0.70269 0.0
C614 C 0.1511 0.28555 0.67812 0.0
C615 C 0.14765 0.32065 0.66128 0.0
C616 C 0.1308 0.24707 0.66035 0.0
C617 C 0.1228 0.31677 0.62718 0.0
C618 C 0.10226 0.27876 0.60965 0.0
C619 C 0.08782 0.20545 0.60669 0.0
C620 C 0.09287 0.17027 0.62211 0.0
C621 C 0.10657 0.24369 0.62553 0.0
C622 C 0.11647 0.1741 0.6572 0.0
C623 C 0.13522 0.21196 0.67603 0.0
H624 H 0.60505 0.20607 0.48774 0.0
H625 H 0.73493 0.27122 0.51476 0.0
H626 H 0.71755 0.33458 0.51954 0.0
H627 H 0.66765 0.37205 0.507 0.0
H628 H 0.53867 0.30664 0.47674 0.0
H629 H 0.5537 0.24281 0.48141 0.0
C630 C 0.62942 0.23413 0.49517 0.0
C631 C 0.67126 0.23405 0.50047 0.0
C632 C 0.61956 0.27043 0.49642 0.0
C633 C 0.7024 0.27044 0.51077 0.0
C634 C 0.69259 0.30673 0.51303 0.0
C635 C 0.64265 0.3438 0.50219 0.0
C636 C 0.60227 0.34406 0.49099 0.0
C637 C 0.65162 0.3072 0.50457 0.0
C638 C 0.57025 0.30722 0.48457 0.0
C639 C 0.57874 0.27074 0.48746 0.0
loop_
_geom_bond_atom_site_label_1
_geom_bond_atom_site_label_2
_geom_bond_distance
_geom_bond_site_symmetry_2
_ccdc_geom_bond_type
H0 C5 0.930 . S
H1 C8 0.930 . S
H2 C10 0.930 . S
H3 C4 1.016 . S
C4 H3 1.016 . S
C4 N11 1.286 . S
C5 H0 0.930 . S
C5 C6 1.397 . S
C5 C7 1.361 . S
C6 C5 1.397 . S
C6 C10 1.390 . S
C7 C5 1.361 . S
C7 C8 1.393 . S
C7 N11 1.413 . S
C8 H1 0.930 . S
C8 C7 1.393 . S
C8 C9 1.399 . S
C9 C8 1.399 . S
C9 C10 1.381 . S
C10 H2 0.930 . S
C10 C6 1.390 . S
C10 C9 1.381 . S
N11 C4 1.286 . S
N11 C7 1.413 . S
H12 C17 0.930 . S
H13 C20 0.930 . S
H14 C22 0.930 . S
H15 C16 1.016 . S
C16 H15 1.016 . S
C16 N23 1.286 . S
C17 H12 0.930 . S
C17 C18 1.397 . S
C17 C19 1.361 . S
C18 C17 1.397 . S
C18 C22 1.390 . S
C19 C17 1.361 . S
C19 C20 1.393 . S
C19 N23 1.413 . S
C20 H13 0.930 . S
C20 C19 1.393 . S
C20 C21 1.399 . S
C21 C20 1.399 . S
C21 C22 1.381 . S
C22 H14 0.930 . S
C22 C18 1.390 . S
C22 C21 1.381 . S
N23 C16 1.286 . S
N23 C19 1.413 . S
H24 C29 0.930 . S
H25 C32 0.930 . S
H26 C34 0.930 . S
H27 C28 1.016 . S
C28 H27 1.016 . S
C28 N35 1.286 . S
C29 H24 0.930 . S
C29 C30 1.397 . S
C29 C31 1.361 . S
C30 C29 1.397 . S
C30 C34 1.390 . S
C31 C29 1.361 . S
C31 C32 1.393 . S
C31 N35 1.413 . S
C32 H25 0.930 . S
C32 C31 1.393 . S
C32 C33 1.399 . S
C33 C32 1.399 . S
C33 C34 1.381 . S
C34 H26 0.930 . S
C34 C30 1.390 . S
C34 C33 1.381 . S
N35 C28 1.286 . S
N35 C31 1.413 . S
H36 C41 0.930 . S
H37 C44 0.930 . S
H38 C46 0.930 . S
H39 C40 1.016 . S
C40 H39 1.016 . S
C40 N47 1.286 . S
C41 H36 0.930 . S
C41 C42 1.397 . S
C41 C43 1.361 . S
C42 C41 1.397 . S
C42 C46 1.390 . S
C43 C41 1.361 . S
C43 C44 1.393 . S
C43 N47 1.413 . S
C44 H37 0.930 . S
C44 C43 1.393 . S
C44 C45 1.399 . S
C45 C44 1.399 . S
C45 C46 1.381 . S
C46 H38 0.930 . S
C46 C42 1.390 . S
C46 C45 1.381 . S
N47 C40 1.286 . S
N47 C43 1.413 . S
H48 C53 0.930 . S
H49 C56 0.930 . S
H50 C58 0.930 . S
H51 C52 1.016 . S
C52 H51 1.016 . S
C52 N59 1.286 . S
C53 H48 0.930 . S
C53 C54 1.397 . S
C53 C55 1.361 . S
C54 C53 1.397 . S
C54 C58 1.390 . S
C55 C53 1.361 . S
C55 C56 1.393 . S
C55 N59 1.413 . S
C56 H49 0.930 . S
C56 C55 1.393 . S
C56 C57 1.399 . S
C57 C56 1.399 . S
C57 C58 1.381 . S
C58 H50 0.930 . S
C58 C54 1.390 . S
C58 C57 1.381 . S
N59 C52 1.286 . S
N59 C55 1.413 . S
H60 C65 0.930 . S
H61 C68 0.930 . S
H62 C70 0.930 . S
H63 C64 1.016 . S
C64 H63 1.016 . S
C64 N71 1.286 . S
C65 H60 0.930 . S
C65 C66 1.397 . S
C65 C67 1.361 . S
C66 C65 1.397 . S
C66 C70 1.390 . S
C67 C65 1.361 . S
C67 C68 1.393 . S
C67 N71 1.413 . S
C68 H61 0.930 . S
C68 C67 1.393 . S
C68 C69 1.399 . S
C69 C68 1.399 . S
C69 C70 1.381 . S
C70 H62 0.930 . S
C70 C66 1.390 . S
C70 C69 1.381 . S
N71 C64 1.286 . S
N71 C67 1.413 . S
H72 C77 0.930 . S
H73 C80 0.930 . S
H74 C82 0.930 . S
H75 C76 1.016 . S
C76 H75 1.016 . S
C76 N83 1.286 . S
C77 H72 0.930 . S
C77 C78 1.397 . S
C77 C79 1.361 . S
C78 C77 1.397 . S
C78 C82 1.390 . S
C79 C77 1.361 . S
C79 C80 1.393 . S
C79 N83 1.413 . S
C80 H73 0.930 . S
C80 C79 1.393 . S
C80 C81 1.399 . S
C81 C80 1.399 . S
C81 C82 1.381 . S
C82 H74 0.930 . S
C82 C78 1.390 . S
C82 C81 1.381 . S
N83 C76 1.286 . S
N83 C79 1.413 . S
H84 C89 0.930 . S
H85 C92 0.930 . S
H86 C94 0.930 . S
H87 C88 1.016 . S
C88 H87 1.016 . S
C88 N95 1.286 . S
C89 H84 0.930 . S
C89 C90 1.397 . S
C89 C91 1.361 . S
C90 C89 1.397 . S
C90 C94 1.390 . S
C91 C89 1.361 . S
C91 C92 1.393 . S
C91 N95 1.413 . S
C92 H85 0.930 . S
C92 C91 1.393 . S
C92 C93 1.399 . S
C93 C92 1.399 . S
C93 C94 1.381 . S
C94 H86 0.930 . S
C94 C90 1.390 . S
C94 C93 1.381 . S
N95 C88 1.286 . S
N95 C91 1.413 . S
Ho96 C99 2.811 . S
Ho96 O116 2.322 . S
Ho96 O118 2.378 . S
Ho96 O119 2.524 . S
Ho96 O120 2.381 1_545 S
Ho96 O121 2.669 1_545 S
Ho96 O123 2.346 1_445 S
Ho96 O127 2.305 1_455 S
Ho97 C108 2.801 1_545 S
Ho97 O117 2.356 1_655 S
Ho97 O121 2.298 1_645 S
Ho97 O122 2.314 1_545 S
Ho97 O124 2.373 1_545 S
Ho97 O125 2.510 1_545 S
Ho97 O126 2.390 . S
Ho97 O127 2.676 . S
C98 O116 1.259 . S
C98 O117 1.268 . S
C99 Ho96 2.811 . S
C99 C100 1.488 . S
C99 O118 1.215 . S
C99 O119 1.289 . S
C100 C99 1.488 . S
C100 C101 1.348 . S
C100 C105 1.413 . S
C101 C100 1.348 . S
C101 C102 1.442 . S
C101 H128 0.930 . S
C102 C101 1.442 . S
C102 C103 1.381 . S
C102 H129 0.931 . S
C103 C102 1.381 . S
C103 C104 1.321 . S
C104 C103 1.321 . S
C104 C105 1.403 . S
C104 H130 0.934 . S
C105 C100 1.413 . S
C105 C104 1.403 . S
C105 H131 0.930 . S
C106 O120 1.275 . S
C106 O121 1.256 . S
C107 O122 1.259 . S
C107 O123 1.268 . S
C108 Ho97 2.801 1_565 S
C108 C109 1.488 . S
C108 O124 1.215 . S
C108 O125 1.289 . S
C109 C108 1.488 . S
C109 C110 1.348 . S
C109 C114 1.413 . S
C110 C109 1.348 . S
C110 C111 1.442 . S
C110 H132 0.930 . S
C111 C110 1.442 . S
C111 C112 1.381 . S
C111 H133 0.931 . S
C112 C111 1.381 . S
C112 C113 1.321 . S
C113 C112 1.321 . S
C113 C114 1.403 . S
C113 H134 0.934 . S
C114 C109 1.413 . S
C114 C113 1.403 . S
C114 H135 0.930 . S
C115 O126 1.275 . S
C115 O127 1.256 . S
O116 Ho96 2.322 . S
O116 C98 1.259 . S
O117 Ho97 2.356 1_455 S
O117 C98 1.268 . S
O118 Ho96 2.378 . S
O118 C99 1.215 . S
O119 Ho96 2.524 . S
O119 C99 1.289 . S
O120 Ho96 2.381 1_565 S
O120 C106 1.275 . S
O121 Ho96 2.669 1_565 S
O121 Ho97 2.298 1_465 S
O121 C106 1.256 . S
O122 Ho97 2.314 1_565 S
O122 C107 1.259 . S
O123 Ho96 2.346 1_665 S
O123 C107 1.268 . S
O124 Ho97 2.373 1_565 S
O124 C108 1.215 . S
O125 Ho97 2.510 1_565 S
O125 C108 1.289 . S
O126 Ho97 2.390 . S
O126 C115 1.275 . S
O127 Ho96 2.305 1_655 S
O127 Ho97 2.676 . S
O127 C115 1.256 . S
H128 C101 0.930 . S
H129 C102 0.931 . S
H130 C104 0.934 . S
H131 C105 0.930 . S
H132 C110 0.930 . S
H133 C111 0.931 . S
H134 C113 0.934 . S
H135 C114 0.930 . S
Ho136 C139 2.811 . S
Ho136 O156 2.322 . S
Ho136 O158 2.378 . S
Ho136 O159 2.524 . S
Ho136 O160 2.381 1_545 S
Ho136 O161 2.669 1_545 S
Ho136 O163 2.346 1_544 S
Ho136 O167 2.305 1_554 S
Ho137 C148 2.811 1_545 S
Ho137 O157 2.346 1_556 S
Ho137 O161 2.305 1_546 S
Ho137 O162 2.322 1_545 S
Ho137 O164 2.378 1_545 S
Ho137 O165 2.524 1_545 S
Ho137 O166 2.381 . S
Ho137 O167 2.669 . S
C138 O156 1.259 . S
C138 O157 1.268 . S
C139 Ho136 2.811 . S
C139 C140 1.488 . S
C139 O158 1.215 . S
C139 O159 1.289 . S
C140 C139 1.488 . S
C140 C141 1.348 . S
C140 C145 1.413 . S
C141 C140 1.348 . S
C141 C142 1.442 . S
C141 H168 0.930 . S
C142 C141 1.442 . S
C142 C143 1.381 . S
C142 H169 0.931 . S
C143 C142 1.381 . S
C143 C144 1.321 . S
C144 C143 1.321 . S
C144 C145 1.403 . S
C144 H170 0.934 . S
C145 C140 1.413 . S
C145 C144 1.403 . S
C145 H171 0.930 . S
C146 O160 1.275 . S
C146 O161 1.256 . S
C147 O162 1.259 . S
C147 O163 1.268 . S
C148 Ho137 2.811 1_565 S
C148 C149 1.488 . S
C148 O164 1.215 . S
C148 O165 1.289 . S
C149 C148 1.488 . S
C149 C150 1.348 . S
C149 C154 1.413 . S
C150 C149 1.348 . S
C150 C151 1.442 . S
C150 H172 0.930 . S
C151 C150 1.442 . S
C151 C152 1.381 . S
C151 H173 0.931 . S
C152 C151 1.381 . S
C152 C153 1.321 . S
C153 C152 1.321 . S
C153 C154 1.403 . S
C153 H174 0.934 . S
C154 C149 1.413 . S
C154 C153 1.403 . S
C154 H175 0.930 . S
C155 O166 1.275 . S
C155 O167 1.255 . S
O156 Ho136 2.322 . S
O156 C138 1.259 . S
O157 Ho137 2.346 1_554 S
O157 C138 1.268 . S
O158 Ho136 2.378 . S
O158 C139 1.215 . S
O159 Ho136 2.524 . S
O159 C139 1.289 . S
O160 Ho136 2.381 1_565 S
O160 C146 1.275 . S
O161 Ho136 2.669 1_565 S
O161 Ho137 2.305 1_564 S
O161 C146 1.256 . S
O162 Ho137 2.322 1_565 S
O162 C147 1.259 . S
O163 Ho136 2.346 1_566 S
O163 C147 1.268 . S
O164 Ho137 2.378 1_565 S
O164 C148 1.215 . S
O165 Ho137 2.524 1_565 S
O165 C148 1.289 . S
O166 Ho137 2.381 . S
O166 C155 1.275 . S
O167 Ho136 2.305 1_556 S
O167 Ho137 2.669 . S
O167 C155 1.255 . S
H168 C141 0.930 . S
H169 C142 0.931 . S
H170 C144 0.934 . S
H171 C145 0.930 . S
H172 C150 0.930 . S
H173 C151 0.931 . S
H174 C153 0.934 . S
H175 C154 0.930 . S
Ho176 C179 2.811 . S
Ho176 O196 2.322 . S
Ho176 O198 2.378 . S
Ho176 O199 2.524 . S
Ho176 O200 2.381 . S
Ho176 O201 2.669 . S
Ho176 O203 2.346 . S
Ho176 O207 2.305 . S
Ho177 C188 2.811 . S
Ho177 O197 2.346 . S
Ho177 O201 2.305 . S
Ho177 O202 2.322 . S
Ho177 O204 2.378 . S
Ho177 O205 2.524 . S
Ho177 O206 2.381 . S
Ho177 O207 2.669 . S
C178 O196 1.259 . S
C178 O197 1.268 . S
C179 Ho176 2.811 . S
C179 C180 1.488 . S
C179 O198 1.215 . S
C179 O199 1.289 . S
C180 C179 1.488 . S
C180 C181 1.348 . S
C180 C185 1.413 . S
C181 C180 1.348 . S
C181 C182 1.442 . S
C181 H208 0.930 . S
C182 C181 1.442 . S
C182 C183 1.381 . S
C182 H209 0.931 . S
C183 C182 1.381 . S
C183 C184 1.321 . S
C184 C183 1.321 . S
C184 C185 1.403 . S
C184 H210 0.934 . S
C185 C180 1.413 . S
C185 C184 1.403 . S
C185 H211 0.930 . S
C186 O200 1.275 . S
C186 O201 1.256 . S
C187 O202 1.259 . S
C187 O203 1.268 . S
C188 Ho177 2.811 . S
C188 C189 1.488 . S
C188 O204 1.215 . S
C188 O205 1.289 . S
C189 C188 1.488 . S
C189 C190 1.348 . S
C189 C194 1.413 . S
C190 C189 1.348 . S
C190 C191 1.442 . S
C190 H212 0.930 . S
C191 C190 1.442 . S
C191 C192 1.381 . S
C191 H213 0.931 . S
C192 C191 1.381 . S
C192 C193 1.321 . S
C193 C192 1.321 . S
C193 C194 1.403 . S
C193 H214 0.934 . S
C194 C189 1.413 . S
C194 C193 1.403 . S
C194 H215 0.930 . S
C195 O206 1.275 . S
C195 O207 1.256 . S
O196 Ho176 2.322 . S
O196 C178 1.259 . S
O197 Ho177 2.346 . S
O197 C178 1.268 . S
O198 Ho176 2.378 . S
O198 C179 1.215 . S
O199 Ho176 2.524 . S
O199 C179 1.289 . S
O200 Ho176 2.381 . S
O200 C186 1.275 . S
O201 Ho176 2.669 . S
O201 Ho177 2.305 . S
O201 C186 1.256 . S
O202 Ho177 2.322 . S
O202 C187 1.259 . S
O203 Ho176 2.346 . S
O203 C187 1.268 . S
O204 Ho177 2.378 . S
O204 C188 1.215 . S
O205 Ho177 2.524 . S
O205 C188 1.289 . S
O206 Ho177 2.381 . S
O206 C195 1.275 . S
O207 Ho176 2.305 . S
O207 Ho177 2.669 . S
O207 C195 1.256 . S
H208 C181 0.930 . S
H209 C182 0.931 . S
H210 C184 0.934 . S
H211 C185 0.930 . S
H212 C190 0.930 . S
H213 C191 0.931 . S
H214 C193 0.934 . S
H215 C194 0.930 . S
Ho216 C219 2.811 . S
Ho216 O236 2.322 . S
Ho216 O238 2.378 . S
Ho216 O239 2.524 . S
Ho216 O240 2.381 1_455 S
Ho216 O241 2.669 1_455 S
Ho216 O243 2.346 1_454 S
Ho216 O247 2.305 1_554 S
Ho217 C228 2.811 1_455 S
Ho217 O237 2.346 1_556 S
Ho217 O241 2.305 1_456 S
Ho217 O242 2.322 1_455 S
Ho217 O244 2.378 1_455 S
Ho217 O245 2.524 1_455 S
Ho217 O246 2.381 . S
Ho217 O247 2.669 . S
C218 O236 1.259 . S
C218 O237 1.268 . S
C219 Ho216 2.811 . S
C219 C220 1.488 . S
C219 O238 1.215 . S
C219 O239 1.289 . S
C220 C219 1.488 . S
C220 C221 1.348 . S
C220 C225 1.413 . S
C221 C220 1.348 . S
C221 C222 1.442 . S
C221 H248 0.930 . S
C222 C221 1.442 . S
C222 C223 1.381 . S
C222 H249 0.931 . S
C223 C222 1.381 . S
C223 C224 1.321 . S
C224 C223 1.321 . S
C224 C225 1.403 . S
C224 H250 0.934 . S
C225 C220 1.413 . S
C225 C224 1.403 . S
C225 H251 0.930 . S
C226 O240 1.275 . S
C226 O241 1.256 . S
C227 O242 1.259 . S
C227 O243 1.268 . S
C228 Ho217 2.811 1_655 S
C228 C229 1.488 . S
C228 O244 1.215 . S
C228 O245 1.289 . S
C229 C228 1.488 . S
C229 C230 1.348 . S
C229 C234 1.413 . S
C230 C229 1.348 . S
C230 C231 1.442 . S
C230 H252 0.930 . S
C231 C230 1.442 . S
C231 C232 1.381 . S
C231 H253 0.931 . S
C232 C231 1.381 . S
C232 C233 1.321 . S
C233 C232 1.321 . S
C233 C234 1.403 . S
C233 H254 0.934 . S
C234 C229 1.413 . S
C234 C233 1.403 . S
C234 H255 0.930 . S
C235 O246 1.275 . S
C235 O247 1.256 . S
O236 Ho216 2.322 . S
O236 C218 1.259 . S
O237 Ho217 2.346 1_554 S
O237 C218 1.268 . S
O238 Ho216 2.378 . S
O238 C219 1.215 . S
O239 Ho216 2.524 . S
O239 C219 1.289 . S
O240 Ho216 2.381 1_655 S
O240 C226 1.275 . S
O241 Ho216 2.669 1_655 S
O241 Ho217 2.305 1_654 S
O241 C226 1.256 . S
O242 Ho217 2.322 1_655 S
O242 C227 1.259 . S
O243 Ho216 2.346 1_656 S
O243 C227 1.268 . S
O244 Ho217 2.378 1_655 S
O244 C228 1.215 . S
O245 Ho217 2.524 1_655 S
O245 C228 1.289 . S
O246 Ho217 2.381 . S
O246 C235 1.275 . S
O247 Ho216 2.305 1_556 S
O247 Ho217 2.669 . S
O247 C235 1.256 . S
H248 C221 0.930 . S
H249 C222 0.931 . S
H250 C224 0.934 . S
H251 C225 0.930 . S
H252 C230 0.930 . S
H253 C231 0.931 . S
H254 C233 0.934 . S
H255 C234 0.930 . S
H256 C262 0.930 . S
H257 C265 0.930 . S
H258 C266 0.930 . S
H259 C267 0.930 . S
H260 C270 0.930 . S
H261 C271 0.930 . S
C262 H256 0.930 . S
C262 C263 1.355 . S
C262 C264 1.415 . S
C263 C262 1.355 . S
C263 C265 1.419 . S
C264 C262 1.415 . S
C264 C269 1.425 . S
C264 C271 1.409 . S
C265 H257 0.930 . S
C265 C263 1.419 . S
C265 C266 1.362 . S
C266 H258 0.930 . S
C266 C265 1.362 . S
C266 C269 1.409 . S
C267 H259 0.930 . S
C267 C268 1.355 . S
C267 C269 1.415 . S
C268 C267 1.355 . S
C268 C270 1.419 . S
C269 C264 1.425 . S
C269 C266 1.409 . S
C269 C267 1.415 . S
C270 H260 0.930 . S
C270 C268 1.419 . S
C270 C271 1.362 . S
C271 H261 0.930 . S
C271 C264 1.409 . S
C271 C270 1.362 . S
H272 C278 0.930 . S
H273 C281 0.930 . S
H274 C282 0.930 . S
H275 C283 0.930 . S
H276 C286 0.930 . S
H277 C287 0.930 . S
C278 H272 0.930 . S
C278 C279 1.355 . S
C278 C280 1.415 . S
C279 C278 1.355 . S
C279 C281 1.419 . S
C280 C278 1.415 . S
C280 C285 1.425 . S
C280 C287 1.409 . S
C281 H273 0.930 . S
C281 C279 1.419 . S
C281 C282 1.362 . S
C282 H274 0.930 . S
C282 C281 1.362 . S
C282 C285 1.409 . S
C283 H275 0.930 . S
C283 C284 1.355 . S
C283 C285 1.415 . S
C284 C283 1.355 . S
C284 C286 1.419 . S
C285 C280 1.425 . S
C285 C282 1.409 . S
C285 C283 1.415 . S
C286 H276 0.930 . S
C286 C284 1.419 . S
C286 C287 1.362 . S
C287 H277 0.930 . S
C287 C280 1.409 . S
C287 C286 1.362 . S
H288 C294 0.930 . S
H289 C297 0.930 . S
H290 C298 0.930 . S
H291 C299 0.930 . S
H292 C302 0.930 . S
H293 C303 0.930 . S
C294 H288 0.930 . S
C294 C295 1.355 . S
C294 C296 1.415 . S
C295 C294 1.355 . S
C295 C297 1.419 . S
C296 C294 1.415 . S
C296 C301 1.425 . S
C296 C303 1.409 . S
C297 H289 0.930 . S
C297 C295 1.419 . S
C297 C298 1.362 . S
C298 H290 0.930 . S
C298 C297 1.362 . S
C298 C301 1.409 . S
C299 H291 0.930 . S
C299 C300 1.355 . S
C299 C301 1.415 . S
C300 C299 1.355 . S
C300 C302 1.419 . S
C301 C296 1.425 . S
C301 C298 1.409 . S
C301 C299 1.415 . S
C302 H292 0.930 . S
C302 C300 1.419 . S
C302 C303 1.362 . S
C303 H293 0.930 . S
C303 C296 1.409 . S
C303 C302 1.362 . S
H304 C310 0.930 . S
H305 C313 0.930 . S
H306 C314 0.930 . S
H307 C315 0.930 . S
H308 C318 0.930 . S
H309 C319 0.930 . S
C310 H304 0.930 . S
C310 C311 1.355 . S
C310 C312 1.415 . S
C311 C310 1.355 . S
C311 C313 1.419 . S
C312 C310 1.415 . S
C312 C317 1.425 . S
C312 C319 1.409 . S
C313 H305 0.930 . S
C313 C311 1.419 . S
C313 C314 1.362 . S
C314 H306 0.930 . S
C314 C313 1.362 . S
C314 C317 1.409 . S
C315 H307 0.930 . S
C315 C316 1.355 . S
C315 C317 1.415 . S
C316 C315 1.355 . S
C316 C318 1.419 . S
C317 C312 1.425 . S
C317 C314 1.409 . S
C317 C315 1.415 . S
C318 H308 0.930 . S
C318 C316 1.419 . S
C318 C319 1.362 . S
C319 H309 0.930 . S
C319 C312 1.409 . S
C319 C318 1.362 . S
H320 C326 0.930 . S
H321 C329 0.930 . S
H322 C330 0.930 . S
H323 C331 0.930 . S
H324 C334 0.930 . S
H325 C335 0.930 . S
C326 H320 0.930 . S
C326 C327 1.355 . S
C326 C328 1.415 . S
C327 C326 1.355 . S
C327 C329 1.419 . S
C328 C326 1.415 . S
C328 C333 1.425 . S
C328 C335 1.409 . S
C329 H321 0.930 . S
C329 C327 1.419 . S
C329 C330 1.362 . S
C330 H322 0.930 . S
C330 C329 1.362 . S
C330 C333 1.409 . S
C331 H323 0.930 . S
C331 C332 1.355 . S
C331 C333 1.415 . S
C332 C331 1.355 . S
C332 C334 1.419 . S
C333 C328 1.425 . S
C333 C330 1.409 . S
C333 C331 1.415 . S
C334 H324 0.930 . S
C334 C332 1.419 . S
C334 C335 1.362 . S
C335 H325 0.930 . S
C335 C328 1.409 . S
C335 C334 1.362 . S
H336 C342 0.930 . S
H337 C345 0.930 . S
H338 C346 0.930 . S
H339 C347 0.930 . S
H340 C350 0.930 . S
H341 C351 0.930 . S
C342 H336 0.930 . S
C342 C343 1.355 . S
C342 C344 1.415 . S
C343 C342 1.355 . S
C343 C345 1.419 . S
C344 C342 1.415 . S
C344 C349 1.425 . S
C344 C351 1.409 . S
C345 H337 0.930 . S
C345 C343 1.419 . S
C345 C346 1.362 . S
C346 H338 0.930 . S
C346 C345 1.362 . S
C346 C349 1.409 . S
C347 H339 0.930 . S
C347 C348 1.355 . S
C347 C349 1.415 . S
C348 C347 1.355 . S
C348 C350 1.419 . S
C349 C344 1.425 . S
C349 C346 1.409 . S
C349 C347 1.415 . S
C350 H340 0.930 . S
C350 C348 1.419 . S
C350 C351 1.362 . S
C351 H341 0.930 . S
C351 C344 1.409 . S
C351 C350 1.362 . S
H352 C358 0.930 . S
H353 C361 0.930 . S
H354 C362 0.930 . S
H355 C363 0.930 . S
H356 C366 0.930 . S
H357 C367 0.930 . S
C358 H352 0.930 . S
C358 C359 1.355 . S
C358 C360 1.415 . S
C359 C358 1.355 . S
C359 C361 1.419 . S
C360 C358 1.415 . S
C360 C365 1.425 . S
C360 C367 1.409 . S
C361 H353 0.930 . S
C361 C359 1.419 . S
C361 C362 1.362 . S
C362 H354 0.930 . S
C362 C361 1.362 . S
C362 C365 1.409 . S
C363 H355 0.930 . S
C363 C364 1.355 . S
C363 C365 1.415 . S
C364 C363 1.355 . S
C364 C366 1.419 . S
C365 C360 1.425 . S
C365 C362 1.409 . S
C365 C363 1.415 . S
C366 H356 0.930 . S
C366 C364 1.419 . S
C366 C367 1.362 . S
C367 H357 0.930 . S
C367 C360 1.409 . S
C367 C366 1.362 . S
H368 C374 0.930 . S
H369 C377 0.930 . S
H370 C378 0.930 . S
H371 C379 0.930 . S
H372 C382 0.930 . S
H373 C383 0.930 . S
C374 H368 0.930 . S
C374 C375 1.355 . S
C374 C376 1.415 . S
C375 C374 1.355 . S
C375 C377 1.419 . S
C376 C374 1.415 . S
C376 C381 1.425 . S
C376 C383 1.409 . S
C377 H369 0.930 . S
C377 C375 1.419 . S
C377 C378 1.362 . S
C378 H370 0.930 . S
C378 C377 1.362 . S
C378 C381 1.409 . S
C379 H371 0.930 . S
C379 C380 1.355 . S
C379 C381 1.415 . S
C380 C379 1.355 . S
C380 C382 1.419 . S
C381 C376 1.425 . S
C381 C378 1.409 . S
C381 C379 1.415 . S
C382 H372 0.930 . S
C382 C380 1.419 . S
C382 C383 1.362 . S
C383 H373 0.930 . S
C383 C376 1.409 . S
C383 C382 1.362 . S
H384 C390 0.930 . S
H385 C393 0.930 . S
H386 C394 0.930 . S
H387 C395 0.930 . S
H388 C398 0.930 . S
H389 C399 0.930 . S
C390 H384 0.930 . S
C390 C391 1.355 . S
C390 C392 1.415 . S
C391 C390 1.355 . S
C391 C393 1.419 . S
C392 C390 1.415 . S
C392 C397 1.425 . S
C392 C399 1.409 . S
C393 H385 0.930 . S
C393 C391 1.419 . S
C393 C394 1.362 . S
C394 H386 0.930 . S
C394 C393 1.362 . S
C394 C397 1.409 . S
C395 H387 0.930 . S
C395 C396 1.355 . S
C395 C397 1.415 . S
C396 C395 1.355 . S
C396 C398 1.419 . S
C397 C392 1.425 . S
C397 C394 1.409 . S
C397 C395 1.415 . S
C398 H388 0.930 . S
C398 C396 1.419 . S
C398 C399 1.362 . S
C399 H389 0.930 . S
C399 C392 1.409 . S
C399 C398 1.362 . S
H400 C406 0.930 . S
H401 C409 0.930 . S
H402 C410 0.930 . S
H403 C411 0.930 . S
H404 C414 0.930 . S
H405 C415 0.930 . S
C406 H400 0.930 . S
C406 C407 1.355 . S
C406 C408 1.415 . S
C407 C406 1.355 . S
C407 C409 1.419 . S
C408 C406 1.415 . S
C408 C413 1.425 . S
C408 C415 1.409 . S
C409 H401 0.930 . S
C409 C407 1.419 . S
C409 C410 1.362 . S
C410 H402 0.930 . S
C410 C409 1.362 . S
C410 C413 1.409 . S
C411 H403 0.930 . S
C411 C412 1.355 . S
C411 C413 1.415 . S
C412 C411 1.355 . S
C412 C414 1.419 . S
C413 C408 1.425 . S
C413 C410 1.409 . S
C413 C411 1.415 . S
C414 H404 0.930 . S
C414 C412 1.419 . S
C414 C415 1.362 . S
C415 H405 0.930 . S
C415 C408 1.409 . S
C415 C414 1.362 . S
H416 C422 0.930 . S
H417 C425 0.930 . S
H418 C426 0.930 . S
H419 C427 0.930 . S
H420 C430 0.930 . S
H421 C431 0.930 . S
C422 H416 0.930 . S
C422 C423 1.355 . S
C422 C424 1.415 . S
C423 C422 1.355 . S
C423 C425 1.419 . S
C424 C422 1.415 . S
C424 C429 1.425 . S
C424 C431 1.409 . S
C425 H417 0.930 . S
C425 C423 1.419 . S
C425 C426 1.362 . S
C426 H418 0.930 . S
C426 C425 1.362 . S
C426 C429 1.409 . S
C427 H419 0.930 . S
C427 C428 1.355 . S
C427 C429 1.415 . S
C428 C427 1.355 . S
C428 C430 1.419 . S
C429 C424 1.425 . S
C429 C426 1.409 . S
C429 C427 1.415 . S
C430 H420 0.930 . S
C430 C428 1.419 . S
C430 C431 1.362 . S
C431 H421 0.930 . S
C431 C424 1.409 . S
C431 C430 1.362 . S
H432 C438 0.930 . S
H433 C441 0.930 . S
H434 C442 0.930 . S
H435 C443 0.930 . S
H436 C446 0.930 . S
H437 C447 0.930 . S
C438 H432 0.930 . S
C438 C439 1.355 . S
C438 C440 1.415 . S
C439 C438 1.355 . S
C439 C441 1.419 . S
C440 C438 1.415 . S
C440 C445 1.425 . S
C440 C447 1.409 . S
C441 H433 0.930 . S
C441 C439 1.419 . S
C441 C442 1.362 . S
C442 H434 0.930 . S
C442 C441 1.362 . S
C442 C445 1.409 . S
C443 H435 0.930 . S
C443 C444 1.355 . S
C443 C445 1.415 . S
C444 C443 1.355 . S
C444 C446 1.419 . S
C445 C440 1.425 . S
C445 C442 1.409 . S
C445 C443 1.415 . S
C446 H436 0.930 . S
C446 C444 1.419 . S
C446 C447 1.362 . S
C447 H437 0.930 . S
C447 C440 1.409 . S
C447 C446 1.362 . S
H448 C454 0.930 . S
H449 C457 0.930 . S
H450 C458 0.930 . S
H451 C459 0.930 . S
H452 C462 0.930 . S
H453 C463 0.930 . S
C454 H448 0.930 . S
C454 C455 1.355 . S
C454 C456 1.415 . S
C455 C454 1.355 . S
C455 C457 1.419 . S
C456 C454 1.415 . S
C456 C461 1.425 . S
C456 C463 1.409 . S
C457 H449 0.930 . S
C457 C455 1.419 . S
C457 C458 1.362 . S
C458 H450 0.930 . S
C458 C457 1.362 . S
C458 C461 1.409 . S
C459 H451 0.930 . S
C459 C460 1.355 . S
C459 C461 1.415 . S
C460 C459 1.355 . S
C460 C462 1.419 . S
C461 C456 1.425 . S
C461 C458 1.409 . S
C461 C459 1.415 . S
C462 H452 0.930 . S
C462 C460 1.419 . S
C462 C463 1.362 . S
C463 H453 0.930 . S
C463 C456 1.409 . S
C463 C462 1.362 . S
H464 C470 0.930 . S
H465 C473 0.930 . S
H466 C474 0.930 . S
H467 C475 0.930 . S
H468 C478 0.930 . S
H469 C479 0.930 . S
C470 H464 0.930 . S
C470 C471 1.355 . S
C470 C472 1.415 . S
C471 C470 1.355 . S
C471 C473 1.419 . S
C472 C470 1.415 . S
C472 C477 1.425 . S
C472 C479 1.409 . S
C473 H465 0.930 . S
C473 C471 1.419 . S
C473 C474 1.362 . S
C474 H466 0.930 . S
C474 C473 1.362 . S
C474 C477 1.409 . S
C475 H467 0.930 . S
C475 C476 1.355 . S
C475 C477 1.415 . S
C476 C475 1.355 . S
C476 C478 1.419 . S
C477 C472 1.425 . S
C477 C474 1.409 . S
C477 C475 1.415 . S
C478 H468 0.930 . S
C478 C476 1.419 . S
C478 C479 1.362 . S
C479 H469 0.930 . S
C479 C472 1.409 . S
C479 C478 1.362 . S
H480 C486 0.930 . S
H481 C489 0.930 . S
H482 C490 0.930 . S
H483 C491 0.930 . S
H484 C494 0.930 . S
H485 C495 0.930 . S
C486 H480 0.930 . S
C486 C487 1.355 . S
C486 C488 1.415 . S
C487 C486 1.355 . S
C487 C489 1.419 . S
C488 C486 1.415 . S
C488 C493 1.425 . S
C488 C495 1.409 . S
C489 H481 0.930 . S
C489 C487 1.419 . S
C489 C490 1.362 . S
C490 H482 0.930 . S
C490 C489 1.362 . S
C490 C493 1.409 . S
C491 H483 0.930 . S
C491 C492 1.355 . S
C491 C493 1.415 . S
C492 C491 1.355 . S
C492 C494 1.419 . S
C493 C488 1.425 . S
C493 C490 1.409 . S
C493 C491 1.415 . S
C494 H484 0.930 . S
C494 C492 1.419 . S
C494 C495 1.362 . S
C495 H485 0.930 . S
C495 C488 1.409 . S
C495 C494 1.362 . S
H496 C502 0.930 . S
H497 C505 0.930 . S
H498 C506 0.930 . S
H499 C507 0.930 . S
H500 C510 0.930 . S
H501 C511 0.930 . S
C502 H496 0.930 . S
C502 C503 1.355 . S
C502 C504 1.415 . S
C503 C502 1.355 . S
C503 C505 1.419 . S
C504 C502 1.415 . S
C504 C509 1.425 . S
C504 C511 1.409 . S
C505 H497 0.930 . S
C505 C503 1.419 . S
C505 C506 1.362 . S
C506 H498 0.930 . S
C506 C505 1.362 . S
C506 C509 1.409 . S
C507 H499 0.930 . S
C507 C508 1.355 . S
C507 C509 1.415 . S
C508 C507 1.355 . S
C508 C510 1.419 . S
C509 C504 1.425 . S
C509 C506 1.409 . S
C509 C507 1.415 . S
C510 H500 0.930 . S
C510 C508 1.419 . S
C510 C511 1.362 . S
C511 H501 0.930 . S
C511 C504 1.409 . S
C511 C510 1.362 . S
H512 C518 0.930 . S
H513 C521 0.930 . S
H514 C522 0.930 . S
H515 C523 0.930 . S
H516 C526 0.930 . S
H517 C527 0.930 . S
C518 H512 0.930 . S
C518 C519 1.355 . S
C518 C520 1.415 . S
C519 C518 1.355 . S
C519 C521 1.419 . S
C520 C518 1.415 . S
C520 C525 1.425 . S
C520 C527 1.409 . S
C521 H513 0.930 . S
C521 C519 1.419 . S
C521 C522 1.362 . S
C522 H514 0.930 . S
C522 C521 1.362 . S
C522 C525 1.409 . S
C523 H515 0.930 . S
C523 C524 1.355 . S
C523 C525 1.415 . S
C524 C523 1.355 . S
C524 C526 1.419 . S
C525 C520 1.425 . S
C525 C522 1.409 . S
C525 C523 1.415 . S
C526 H516 0.930 . S
C526 C524 1.419 . S
C526 C527 1.362 . S
C527 H517 0.930 . S
C527 C520 1.409 . S
C527 C526 1.362 . S
H528 C534 0.930 . S
H529 C537 0.930 . S
H530 C538 0.930 . S
H531 C539 0.930 . S
H532 C542 0.930 . S
H533 C543 0.930 . S
C534 H528 0.930 . S
C534 C535 1.355 . S
C534 C536 1.415 . S
C535 C534 1.355 . S
C535 C537 1.419 . S
C536 C534 1.415 . S
C536 C541 1.425 . S
C536 C543 1.409 . S
C537 H529 0.930 . S
C537 C535 1.419 . S
C537 C538 1.362 . S
C538 H530 0.930 . S
C538 C537 1.362 . S
C538 C541 1.409 . S
C539 H531 0.930 . S
C539 C540 1.355 . S
C539 C541 1.415 . S
C540 C539 1.355 . S
C540 C542 1.419 . S
C541 C536 1.425 . S
C541 C538 1.409 . S
C541 C539 1.415 . S
C542 H532 0.930 . S
C542 C540 1.419 . S
C542 C543 1.362 . S
C543 H533 0.930 . S
C543 C536 1.409 . S
C543 C542 1.362 . S
H544 C550 0.930 . S
H545 C553 0.930 . S
H546 C554 0.930 . S
H547 C555 0.930 . S
H548 C558 0.930 . S
H549 C559 0.930 . S
C550 H544 0.930 . S
C550 C551 1.355 . S
C550 C552 1.415 . S
C551 C550 1.355 . S
C551 C553 1.419 . S
C552 C550 1.415 . S
C552 C557 1.425 . S
C552 C559 1.409 . S
C553 H545 0.930 . S
C553 C551 1.419 . S
C553 C554 1.362 . S
C554 H546 0.930 . S
C554 C553 1.362 . S
C554 C557 1.409 . S
C555 H547 0.930 . S
C555 C556 1.355 . S
C555 C557 1.415 . S
C556 C555 1.355 . S
C556 C558 1.419 . S
C557 C552 1.425 . S
C557 C554 1.409 . S
C557 C555 1.415 . S
C558 H548 0.930 . S
C558 C556 1.419 . S
C558 C559 1.362 . S
C559 H549 0.930 . S
C559 C552 1.409 . S
C559 C558 1.362 . S
H560 C566 0.930 . S
H561 C569 0.930 . S
H562 C570 0.930 . S
H563 C571 0.930 . S
H564 C574 0.930 . S
H565 C575 0.930 . S
C566 H560 0.930 . S
C566 C567 1.355 . S
C566 C568 1.415 . S
C567 C566 1.355 . S
C567 C569 1.419 . S
C568 C566 1.415 . S
C568 C573 1.425 . S
C568 C575 1.409 . S
C569 H561 0.930 . S
C569 C567 1.419 . S
C569 C570 1.362 . S
C570 H562 0.930 . S
C570 C569 1.362 . S
C570 C573 1.409 . S
C571 H563 0.930 . S
C571 C572 1.355 . S
C571 C573 1.415 . S
C572 C571 1.355 . S
C572 C574 1.419 . S
C573 C568 1.425 . S
C573 C570 1.409 . S
C573 C571 1.415 . S
C574 H564 0.930 . S
C574 C572 1.419 . S
C574 C575 1.362 . S
C575 H565 0.930 . S
C575 C568 1.409 . S
C575 C574 1.362 . S
H576 C582 0.930 . S
H577 C585 0.930 . S
H578 C586 0.930 . S
H579 C587 0.930 . S
H580 C590 0.930 . S
H581 C591 0.930 . S
C582 H576 0.930 . S
C582 C583 1.355 . S
C582 C584 1.415 . S
C583 C582 1.355 . S
C583 C585 1.419 . S
C584 C582 1.415 . S
C584 C589 1.425 . S
C584 C591 1.409 . S
C585 H577 0.930 . S
C585 C583 1.419 . S
C585 C586 1.362 . S
C586 H578 0.930 . S
C586 C585 1.362 . S
C586 C589 1.409 . S
C587 H579 0.930 . S
C587 C588 1.355 . S
C587 C589 1.415 . S
C588 C587 1.355 . S
C588 C590 1.419 . S
C589 C584 1.425 . S
C589 C586 1.409 . S
C589 C587 1.415 . S
C590 H580 0.930 . S
C590 C588 1.419 . S
C590 C591 1.362 . S
C591 H581 0.930 . S
C591 C584 1.409 . S
C591 C590 1.362 . S
H592 C598 0.930 . S
H593 C601 0.930 . S
H594 C602 0.930 . S
H595 C603 0.930 . S
H596 C606 0.930 . S
H597 C607 0.930 . S
C598 H592 0.930 . S
C598 C599 1.355 . S
C598 C600 1.415 . S
C599 C598 1.355 . S
C599 C601 1.419 . S
C600 C598 1.415 . S
C600 C605 1.425 . S
C600 C607 1.409 . S
C601 H593 0.930 . S
C601 C599 1.419 . S
C601 C602 1.362 . S
C602 H594 0.930 . S
C602 C601 1.362 . S
C602 C605 1.409 . S
C603 H595 0.930 . S
C603 C604 1.355 . S
C603 C605 1.415 . S
C604 C603 1.355 . S
C604 C606 1.419 . S
C605 C600 1.425 . S
C605 C602 1.409 . S
C605 C603 1.415 . S
C606 H596 0.930 . S
C606 C604 1.419 . S
C606 C607 1.362 . S
C607 H597 0.930 . S
C607 C600 1.409 . S
C607 C606 1.362 . S
H608 C614 0.930 . S
H609 C617 0.930 . S
H610 C618 0.930 . S
H611 C619 0.930 . S
H612 C622 0.930 . S
H613 C623 0.930 . S
C614 H608 0.930 . S
C614 C615 1.355 . S
C614 C616 1.415 . S
C615 C614 1.355 . S
C615 C617 1.419 . S
C616 C614 1.415 . S
C616 C621 1.425 . S
C616 C623 1.409 . S
C617 H609 0.930 . S
C617 C615 1.419 . S
C617 C618 1.362 . S
C618 H610 0.930 . S
C618 C617 1.362 . S
C618 C621 1.409 . S
C619 H611 0.930 . S
C619 C620 1.355 . S
C619 C621 1.415 . S
C620 C619 1.355 . S
C620 C622 1.419 . S
C621 C616 1.425 . S
C621 C618 1.409 . S
C621 C619 1.415 . S
C622 H612 0.930 . S
C622 C620 1.419 . S
C622 C623 1.362 . S
C623 H613 0.930 . S
C623 C616 1.409 . S
C623 C622 1.362 . S
H624 C630 0.930 . S
H625 C633 0.930 . S
H626 C634 0.930 . S
H627 C635 0.930 . S
H628 C638 0.930 . S
H629 C639 0.930 . S
C630 H624 0.930 . S
C630 C631 1.355 . S
C630 C632 1.415 . S
C631 C630 1.355 . S
C631 C633 1.419 . S
C632 C630 1.415 . S
C632 C637 1.425 . S
C632 C639 1.409 . S
C633 H625 0.930 . S
C633 C631 1.419 . S
C633 C634 1.362 . S
C634 H626 0.930 . S
C634 C633 1.362 . S
C634 C637 1.409 . S
C635 H627 0.930 . S
C635 C636 1.355 . S
C635 C637 1.415 . S
C636 C635 1.355 . S
C636 C638 1.419 . S
C637 C632 1.425 . S
C637 C634 1.409 . S
C637 C635 1.415 . S
C638 H628 0.930 . S
C638 C636 1.419 . S
C638 C639 1.362 . S
C639 H629 0.930 . S
C639 C632 1.409 . S
C639 C638 1.362 . S
C263 C6 1.040 . S
C268 C103 1.051 . S
C279 C18 1.246 . S
C284 C152 1.232 . S
C300 C178 2.557 . S
C295 C28 2.626 . S
C311 C40 1.862 . S
C316 C226 1.809 . S
C332 C138 2.287 . S
C327 C9 2.146 . S
C348 C106 0.896 . S
C343 C16 0.842 . S
C364 C227 1.888 . S
C359 C30 1.932 . S
C380 C195 1.367 . S
C375 C42 1.396 . S
C391 C4 1.480 . S
C396 C223 1.520 . S
C412 C155 2.490 . S
C407 C33 2.571 . S
C423 C45 2.091 . S
C428 C107 2.085 . S
C439 C21 1.046 . S
C444 C192 1.080 . S
C460 C112 1.089 . S
C455 C57 1.108 . S
C471 C66 1.254 . S
C476 C143 1.234 . S
C487 C76 2.672 . S
C492 C187 2.631 . S
C503 C88 1.819 . S
C508 C235 1.797 . S
C519 C54 2.164 . S
C524 C147 2.272 . S
C540 C115 1.012 . S
C535 C64 1.006 . S
C556 C218 1.814 . S
C551 C78 1.872 . S
C572 C186 1.398 . S
C567 C93 1.429 . S
C583 C52 1.443 . S
C588 C232 1.527 . S
C604 C146 2.515 . S
C599 C81 2.578 . S
C620 C98 2.050 . S
C615 C90 2.065 . S
C631 C69 1.120 . S
C636 C183 1.154 . S
