# Generated by pormake.
# Topology tsx, (6,3)-cn, num edge types: 1
# Building blocks:
#     Node 0, Type 0, BuildingBlock: MIDCAF_clean_sbu_0, # of connection points: 6
#     Node 1, Type 0, BuildingBlock: MIDCAF_clean_sbu_0, # of connection points: 6
#     Node 2, Type 1, BuildingBlock: BETDIP_clean_linker_0, # of connection points: 3
#     Node 3, Type 1, BuildingBlock: BETDIP_clean_linker_0, # of connection points: 3
#     Node 4, Type 1, BuildingBlock: BETDIP_clean_linker_0, # of connection points: 3
#     Node 5, Type 1, BuildingBlock: BETDIP_clean_linker_0, # of connection points: 3
#     Edge 6, Type (0, 1), BuildingBlock: ZUJKAS_clean_linker_0, # of connection points: 2
#     Edge 7, Type (0, 1), BuildingBlock: ZUJKAS_clean_linker_0, # of connection points: 2
#     Edge 8, Type (0, 1), BuildingBlock: ZUJKAS_clean_linker_0, # of connection points: 2
#     Edge 9, Type (0, 1), BuildingBlock: ZUJKAS_clean_linker_0, # of connection points: 2
#     Edge 10, Type (0, 1), BuildingBlock: ZUJKAS_clean_linker_0, # of connection points: 2
#     Edge 11, Type (0, 1), BuildingBlock: ZUJKAS_clean_linker_0, # of connection points: 2
#     Edge 12, Type (0, 1), BuildingBlock: ZUJKAS_clean_linker_0, # of connection points: 2
#     Edge 13, Type (0, 1), BuildingBlock: ZUJKAS_clean_linker_0, # of connection points: 2
#     Edge 14, Type (0, 1), BuildingBlock: ZUJKAS_clean_linker_0, # of connection points: 2
#     Edge 15, Type (0, 1), BuildingBlock: ZUJKAS_clean_linker_0, # of connection points: 2
#     Edge 16, Type (0, 1), BuildingBlock: ZUJKAS_clean_linker_0, # of connection points: 2
#     Edge 17, Type (0, 1), BuildingBlock: ZUJKAS_clean_linker_0, # of connection points: 2
# Relax obj value: 0.083
# Max RMSD: 0.150
# Mean RMSD: 0.115
data_MOF--net-tsx--node1-MIDCAF_clean_sbu_0--node2-BETDIP_clean_linker_0--edge1-ZUJKAS_clean_linker_0
_symmetry_space_group_name_H-M    P1
_symmetry_Int_Tables_number       1
_symmetry_cell_setting            triclinic
loop_
_symmetry_equiv_pos_as_xyz
'x, y, z'
_cell_length_a     26.113472
_cell_length_b     26.879949
_cell_length_c     46.289358
_cell_angle_alpha  90.365615
_cell_angle_beta   103.58315
_cell_angle_gamma 90.148845
loop_
_atom_site_label
_atom_site_type_symbol
_atom_site_fract_x
_atom_site_fract_y
_atom_site_fract_z
_atom_type_partial_charge
Zn0 Zn 0.96027 0.0233 0.96736 0.0
Zn1 Zn 0.13028 0.02986 0.05688 0.0
Zn2 Zn 0.04503 0.02721 0.01289 0.0
C3 C 0.10621 0.12832 0.041 0.0
C4 C 0.15816 0.97806 0.01121 0.0
O5 O 0.98263 0.98381 0.02709 0.0
O6 O 0.91477 0.9853 0.98805 0.0
C7 C 0.98069 0.12378 0.98264 0.0
O8 O 0.06866 0.10654 0.02198 0.0
O9 O 0.13791 0.10297 0.06002 0.0
O10 O 0.17856 0.99367 0.03713 0.0
O11 O 0.10946 0.98717 0.999 0.0
O12 O 0.95041 0.09637 0.96376 0.0
O13 O 0.01842 0.10442 0.00237 0.0
O14 O 0.06659 0.99044 0.97444 0.0
O15 O 0.99314 0.98728 0.93891 0.0
C16 C 0.0416 0.9781 0.94792 0.0
O17 O 0.02501 0.99145 0.05198 0.0
O18 O 0.10004 0.99442 0.0862 0.0
C19 C 0.93489 0.97142 0.01425 0.0
C20 C 0.05196 0.98241 0.07853 0.0
Zn21 Zn 0.63637 0.51079 0.55224 0.0
Zn22 Zn 0.45831 0.51466 0.46891 0.0
Zn23 Zn 0.54854 0.51736 0.51039 0.0
C24 C 0.53294 0.46783 0.44458 0.0
C25 C 0.48554 0.61551 0.48247 0.0
O26 O 0.53154 0.48382 0.55106 0.0
O27 O 0.60789 0.48275 0.58426 0.0
C28 C 0.65377 0.45563 0.50502 0.0
O29 O 0.56245 0.48039 0.47004 0.0
O30 O 0.48423 0.47691 0.43843 0.0
O31 O 0.45206 0.58813 0.46538 0.0
O32 O 0.52494 0.59595 0.50096 0.0
O33 O 0.67522 0.46479 0.53189 0.0
O34 O 0.60809 0.47381 0.49296 0.0
O35 O 0.57612 0.59491 0.5196 0.0
O36 O 0.6511 0.58348 0.55291 0.0
C37 C 0.61847 0.61244 0.53684 0.0
O38 O 0.48718 0.47687 0.52754 0.0
O39 O 0.41428 0.47932 0.4917 0.0
C40 C 0.55902 0.47425 0.57743 0.0
C41 C 0.4381 0.46568 0.51737 0.0
H42 H 0.11489 0.03668 0.45251 0.0
H43 H 0.00607 0.05652 0.36801 0.0
H44 H 0.11423 0.934 0.38069 0.0
H45 H 0.02362 0.14009 0.38403 0.0
C46 C 0.01399 0.13436 0.40538 0.0
C47 C 0.09902 0.02446 0.42981 0.0
C48 C 0.1198 0.98213 0.4187 0.0
C49 C 0.05807 0.05147 0.41159 0.0
C50 C 0.03749 0.03561 0.38212 0.0
C51 C 0.05746 0.99329 0.37064 0.0
C52 C 0.09832 0.96662 0.38926 0.0
N53 N 0.03706 0.09377 0.42336 0.0
H54 H 0.99124 0.0371 0.57229 0.0
H55 H 0.10144 0.05107 0.65711 0.0
H56 H 0.9816 0.93828 0.64369 0.0
H57 H 0.09203 0.13334 0.64465 0.0
C58 C 0.09744 0.13045 0.62212 0.0
C59 C 1.00581 0.02465 0.59495 0.0
C60 C 0.98233 0.98348 0.60549 0.0
C61 C 0.04794 0.05009 0.61371 0.0
C62 C 0.06741 0.03322 0.64293 0.0
C63 C 0.04367 0.99309 0.65405 0.0
C64 C 1.0013 0.96836 0.6351 0.0
N65 N 0.07077 0.09217 0.60291 0.0
H66 H 0.61372 0.54533 0.95818 0.0
H67 H 0.50449 0.57439 0.87503 0.0
H68 H 0.6175 0.45689 0.88079 0.0
H69 H 0.52961 0.65782 0.89556 0.0
C70 C 0.51756 0.64898 0.91589 0.0
C71 C 0.59846 0.53637 0.93488 0.0
C72 C 0.62018 0.497 0.92164 0.0
C73 C 0.55759 0.56497 0.91799 0.0
C74 C 0.53717 0.55322 0.88785 0.0
C75 C 0.55805 0.51384 0.87429 0.0
C76 C 0.59962 0.48601 0.89137 0.0
N77 N 0.53686 0.60512 0.93164 0.0
H78 H 0.50384 0.52485 0.06614 0.0
H79 H 0.60848 0.53556 0.15299 0.0
H80 H 0.47763 0.43379 0.1373 0.0
H81 H 0.5583 0.57988 0.05253 0.0
C82 C 0.58759 0.59321 0.07169 0.0
C83 C 0.51567 0.51322 0.08905 0.0
C84 C 0.48652 0.47581 0.09926 0.0
C85 C 0.56003 0.53464 0.10864 0.0
C86 C 0.5742 0.51896 0.13821 0.0
C87 C 0.54504 0.48246 0.14884 0.0
C88 C 0.5014 0.46102 0.12913 0.0
N89 N 0.59172 0.57242 0.10027 0.0
H90 H 0.08748 0.18707 0.99123 0.0
H91 H 0.13 0.26733 0.98672 0.0
H92 H 0.19772 0.26821 0.08118 0.0
H93 H 0.15421 0.18959 0.08588 0.0
H94 H 0.17508 0.36221 0.06005 0.0
H95 H 0.2864 0.25775 0.99027 0.0
H96 H 0.21627 0.2624 0.97663 0.0
H97 H 0.24289 0.22669 0.00936 0.0
C98 C 0.10968 0.20547 0.01115 0.0
C99 C 0.11804 0.18184 0.03888 0.0
C100 C 0.13455 0.25101 0.00849 0.0
C101 C 0.16834 0.27309 0.03349 0.0
C102 C 0.17222 0.25182 0.06152 0.0
H103 H 0.4659 0.37702 0.09216 0.0
H104 H 0.38291 0.33722 0.0678 0.0
C105 C 0.14738 0.20672 0.06419 0.0
C106 C 0.20541 0.31397 0.03084 0.0
H107 H 0.32141 0.3334 0.01047 0.0
C108 C 0.20637 0.35674 0.04855 0.0
C109 C 0.24636 0.30657 0.01588 0.0
C110 C 0.24846 0.26085 0.99707 0.0
C111 C 0.2493 0.38995 0.05382 0.0
C112 C 0.29189 0.38065 0.04045 0.0
C113 C 0.28867 0.34039 0.02064 0.0
C114 C 0.34374 0.40572 0.05115 0.0
C115 C 0.25083 0.43214 0.07568 0.0
C116 C 0.35016 0.45741 0.04896 0.0
C117 C 0.3979 0.4804 0.0631 0.0
C118 C 0.43968 0.4519 0.07956 0.0
C119 C 0.43413 0.39994 0.07994 0.0
C120 C 0.38676 0.37715 0.06591 0.0
H121 H 0.21755 0.43043 0.08683 0.0
H122 H 0.28834 0.4316 0.09299 0.0
H123 H 0.24866 0.46811 0.06385 0.0
H124 H 0.3178 0.48009 0.03722 0.0
H125 H 0.40117 0.52053 0.06247 0.0
H126 H 0.26137 0.99132 0.01269 0.0
H127 H 0.31902 0.93544 0.99326 0.0
H128 H 0.18679 0.83839 0.95802 0.0
H129 H 0.12858 0.89553 0.97654 0.0
H130 H 0.34242 0.84447 0.01022 0.0
H131 H 0.25406 0.84272 0.88921 0.0
H132 H 0.23297 0.88518 0.91441 0.0
H133 H 0.2084 0.82232 0.91024 0.0
C134 C 0.24449 0.95858 0.00021 0.0
C135 C 0.19061 0.94779 0.99586 0.0
C136 C 0.27743 0.92658 0.98923 0.0
C137 C 0.25732 0.88273 0.97408 0.0
C138 C 0.20309 0.87247 0.96907 0.0
H139 H 0.46541 0.63355 0.96019 0.0
H140 H 0.40082 0.68854 0.97448 0.0
C141 C 0.16984 0.9051 0.97962 0.0
C142 C 0.29412 0.84655 0.96555 0.0
H143 H 0.32007 0.78143 0.90711 0.0
C144 C 0.33761 0.83085 0.98763 0.0
C145 C 0.28795 0.82887 0.93608 0.0
C146 C 0.24359 0.846 0.91106 0.0
C147 C 0.37543 0.79856 0.98103 0.0
C148 C 0.36869 0.78009 0.9517 0.0
C149 C 0.32498 0.79539 0.92964 0.0
C150 C 0.40751 0.74633 0.94314 0.0
C151 C 0.42302 0.78587 0.00538 0.0
C152 C 0.43173 0.75995 0.92031 0.0
C153 C 0.46795 0.72828 0.91183 0.0
C154 C 0.48081 0.6826 0.92613 0.0
C155 C 0.45671 0.66889 0.94904 0.0
C156 C 0.41996 0.70036 0.95729 0.0
H157 H 0.42958 0.81359 0.02381 0.0
H158 H 0.41679 0.74907 0.01475 0.0
H159 H 0.45918 0.78393 0.99672 0.0
H160 H 0.42266 0.79519 0.90906 0.0
H161 H 0.48587 0.73948 0.894 0.0
H162 H 0.82928 0.97315 0.00831 0.0
H163 H 0.7747 0.9098 0.02419 0.0
H164 H 0.91425 0.8293 0.06704 0.0
H165 H 0.96936 0.89286 0.05099 0.0
H166 H 0.83601 0.7732 0.02448 0.0
H167 H 0.74895 0.87307 0.1066 0.0
H168 H 0.74587 0.90646 0.07273 0.0
H169 H 0.80883 0.89344 0.09701 0.0
C170 C 0.8484 0.94254 0.02172 0.0
C171 C 0.90353 0.93804 0.02863 0.0
C172 C 0.81718 0.90649 0.03085 0.0
C173 C 0.84044 0.86508 0.04694 0.0
C174 C 0.89563 0.86122 0.05479 0.0
H175 H 0.66513 0.6368 0.11484 0.0
H176 H 0.72745 0.7012 0.1087 0.0
C177 C 0.92703 0.89765 0.04583 0.0
C178 C 0.80662 0.82391 0.0529 0.0
H179 H 0.70702 0.79719 0.08673 0.0
C180 C 0.80817 0.77817 0.03834 0.0
C181 C 0.77046 0.83059 0.071 0.0
C182 C 0.76856 0.87838 0.08797 0.0
C183 C 0.77347 0.73925 0.0408 0.0
C184 C 0.73589 0.74659 0.05799 0.0
C185 C 0.7354 0.79188 0.07323 0.0
C186 C 0.69768 0.70726 0.06116 0.0
C187 C 0.77751 0.69054 0.02512 0.0
C188 C 0.65975 0.68954 0.03642 0.0
C189 C 0.62382 0.65249 0.03983 0.0
C190 C 0.62521 0.63274 0.06802 0.0
C191 C 0.66296 0.65098 0.09274 0.0
C192 C 0.69868 0.68792 0.08932 0.0
H193 H 0.81596 0.68684 0.01895 0.0
H194 H 0.77246 0.65857 0.03928 0.0
H195 H 0.74586 0.68854 0.00442 0.0
H196 H 0.6577 0.70462 0.01454 0.0
H197 H 0.59498 0.63927 0.02047 0.0
H198 H 0.9989 0.18699 0.03082 0.0
H199 H 0.95894 0.26909 0.033 0.0
H200 H 0.89163 0.26152 0.93859 0.0
H201 H 0.93221 0.1806 0.93618 0.0
H202 H 0.92265 0.35826 0.95914 0.0
H203 H 0.79917 0.26526 0.02643 0.0
H204 H 0.86939 0.26588 0.04083 0.0
H205 H 0.84115 0.23026 0.00799 0.0
C206 C 0.97717 0.20372 0.0104 0.0
C207 C 0.9682 0.17726 0.98335 0.0
C208 C 0.95396 0.25038 0.01173 0.0
C209 C 0.92141 0.27085 0.98606 0.0
C210 C 0.9164 0.24633 0.9587 0.0
H211 H 0.63342 0.39655 0.92198 0.0
H212 H 0.71241 0.34983 0.94485 0.0
C213 C 0.93944 0.19997 0.95736 0.0
C214 C 0.88667 0.31385 0.9875 0.0
H215 H 0.77002 0.34149 0.00509 0.0
C216 C 0.89003 0.35546 0.96986 0.0
C217 C 0.84397 0.30974 0.00139 0.0
C218 C 0.83769 0.26539 0.02013 0.0
C219 C 0.84981 0.39118 0.96391 0.0
C220 C 0.80551 0.38527 0.97627 0.0
C221 C 0.80415 0.34579 0.99573 0.0
C222 C 0.75669 0.41422 0.96533 0.0
C223 C 0.85294 0.43269 0.94259 0.0
C224 C 0.75495 0.46578 0.96992 0.0
C225 C 0.70971 0.49269 0.95671 0.0
C226 C 0.66572 0.46833 0.9387 0.0
C227 C 0.66695 0.41641 0.93535 0.0
C228 C 0.71193 0.38966 0.94856 0.0
H229 H 0.88728 0.42874 0.93243 0.0
H230 H 0.81645 0.43369 0.92453 0.0
H231 H 0.8565 0.46886 0.95459 0.0
H232 H 0.78889 0.4853 0.9831 0.0
H233 H 0.70994 0.53271 0.9596 0.0
H234 H 0.59506 0.67962 0.49099 0.0
H235 H 0.63598 0.76206 0.49005 0.0
H236 H 0.7158 0.74625 0.58231 0.0
H237 H 0.67492 0.66508 0.58344 0.0
H238 H 0.68141 0.84423 0.56692 0.0
H239 H 0.79436 0.76266 0.48984 0.0
H240 H 0.72356 0.76212 0.47862 0.0
H241 H 0.75658 0.72417 0.50905 0.0
C242 C 0.62003 0.69459 0.51125 0.0
C243 C 0.63229 0.66582 0.53722 0.0
C244 C 0.64374 0.7414 0.51062 0.0
C245 C 0.6797 0.75985 0.53598 0.0
C246 C 0.68836 0.73276 0.56246 0.0
H247 H 0.96944 0.88348 0.59817 0.0
H248 H 0.88966 0.83835 0.57372 0.0
C249 C 0.66509 0.68624 0.56305 0.0
C250 C 0.71349 0.804 0.53498 0.0
H251 H 0.82665 0.83623 0.51465 0.0
C252 C 0.71229 0.84347 0.55482 0.0
C253 C 0.75396 0.80256 0.51931 0.0
C254 C 0.75772 0.76063 0.49806 0.0
C255 C 0.75272 0.87933 0.56118 0.0
C256 C 0.79506 0.8759 0.54699 0.0
C257 C 0.79405 0.83875 0.52542 0.0
C258 C 0.84465 0.90438 0.55805 0.0
C259 C 0.75213 0.91804 0.58486 0.0
C260 C 0.84646 0.95652 0.55654 0.0
C261 C 0.89228 0.98252 0.57064 0.0
C262 C 0.93674 0.95666 0.58648 0.0
C263 C 0.93557 0.9044 0.58645 0.0
C264 C 0.89008 0.87858 0.57235 0.0
H265 H 0.71936 0.91209 0.59605 0.0
H266 H 0.78993 0.91767 0.60194 0.0
H267 H 0.74757 0.95549 0.57465 0.0
H268 H 0.81203 0.97711 0.54527 0.0
H269 H 0.89206 0.02281 0.57036 0.0
H270 H 0.69152 0.36522 0.52319 0.0
H271 H 0.74693 0.3113 0.50072 0.0
H272 H 0.73386 0.41446 0.42831 0.0
H273 H 0.68034 0.46978 0.45185 0.0
H274 H 0.73211 0.2637 0.44612 0.0
H275 H 0.89284 0.40465 0.46157 0.0
H276 H 0.83775 0.41098 0.47862 0.0
H277 H 0.82991 0.42439 0.43985 0.0
C278 C 0.69996 0.37601 0.50227 0.0
C279 C 0.68081 0.42104 0.4888 0.0
C280 C 0.7315 0.34519 0.48943 0.0
C281 C 0.74501 0.35902 0.463 0.0
C282 C 0.72437 0.40327 0.44888 0.0
H283 H 0.96886 0.21533 0.37579 0.0
H284 H 0.90195 0.26994 0.38816 0.0
C285 C 0.69284 0.43432 0.46189 0.0
C286 C 0.78292 0.32799 0.4515 0.0
H287 H 0.90779 0.32775 0.44042 0.0
C288 C 0.7704 0.27777 0.44469 0.0
C289 C 0.83299 0.34636 0.4498 0.0
C290 C 0.84959 0.3994 0.45805 0.0
C291 C 0.80669 0.24536 0.43642 0.0
C292 C 0.85707 0.26351 0.43533 0.0
C293 C 0.86917 0.31396 0.44141 0.0
C294 C 0.89802 0.23061 0.42821 0.0
C295 C 0.79078 0.19199 0.42884 0.0
C296 C 0.91873 0.19096 0.44695 0.0
C297 C 0.95718 0.15988 0.44001 0.0
C298 C 0.97552 0.16808 0.41422 0.0
C299 C 0.95535 0.20824 0.3958 0.0
C300 C 0.91714 0.23938 0.4028 0.0
H301 H 0.7473 0.18709 0.4236 0.0
H302 H 0.8057 0.17878 0.40957 0.0
H303 H 0.80802 0.16816 0.44814 0.0
H304 H 0.90518 0.18412 0.46696 0.0
H305 H 0.97202 0.12925 0.45465 0.0
H306 H 0.33358 0.46906 0.51539 0.0
H307 H 0.28281 0.41295 0.53924 0.0
H308 H 0.42544 0.33686 0.58207 0.0
H309 H 0.47634 0.39192 0.55713 0.0
H310 H 0.34827 0.2729 0.55421 0.0
H311 H 0.26655 0.40402 0.62393 0.0
H312 H 0.25493 0.42466 0.58618 0.0
H313 H 0.32146 0.41989 0.6082 0.0
C314 C 0.35426 0.44085 0.53025 0.0
C315 C 0.40907 0.43542 0.53483 0.0
C316 C 0.32524 0.40906 0.54407 0.0
C317 C 0.3504 0.37127 0.56288 0.0
C318 C 0.40532 0.36617 0.56791 0.0
H319 H 0.16581 0.19178 0.65825 0.0
H320 H 0.23099 0.2476 0.6454 0.0
C321 C 0.43444 0.39799 0.55395 0.0
C322 C 0.31841 0.33475 0.57501 0.0
H323 H 0.22026 0.32625 0.6121 0.0
C324 C 0.32078 0.28439 0.56723 0.0
C325 C 0.28317 0.34962 0.59239 0.0
C326 C 0.28174 0.40242 0.60344 0.0
C327 C 0.28732 0.24881 0.57533 0.0
C328 C 0.24936 0.26432 0.59086 0.0
C329 C 0.24858 0.31439 0.59969 0.0
C330 C 0.21039 0.22933 0.59846 0.0
C331 C 0.29344 0.19498 0.56736 0.0
C332 C 0.17661 0.20073 0.57633 0.0
C333 C 0.13978 0.16819 0.58375 0.0
C334 C 0.13545 0.1646 0.61333 0.0
C335 C 0.16844 0.19391 0.63528 0.0
C336 C 0.20565 0.2258 0.62795 0.0
H337 H 0.3338 0.18736 0.56455 0.0
H338 H 0.2852 0.16968 0.5846 0.0
H339 H 0.26537 0.18623 0.54593 0.0
H340 H 0.17834 0.20388 0.55327 0.0
H341 H 0.11446 0.14635 0.56633 0.0
H342 H 0.44078 0.67182 0.43518 0.0
H343 H 0.39973 0.75273 0.43625 0.0
H344 H 0.46104 0.76149 0.53118 0.0
H345 H 0.50256 0.67964 0.53014 0.0
H346 H 0.35345 0.76966 0.51485 0.0
H347 H 0.43942 0.89836 0.44684 0.0
H348 H 0.42387 0.83995 0.42786 0.0
H349 H 0.47279 0.84248 0.46256 0.0
C350 C 0.44718 0.69176 0.45615 0.0
C351 C 0.47469 0.66943 0.48258 0.0
C352 C 0.4239 0.73825 0.45673 0.0
C353 C 0.42749 0.76349 0.48376 0.0
C354 C 0.45807 0.74284 0.51004 0.0
H355 H 0.21283 0.02061 0.45152 0.0
H356 H 0.29246 0.97436 0.47537 0.0
C357 C 0.48202 0.69626 0.50941 0.0
C358 C 0.39214 0.80649 0.48454 0.0
H359 H 0.3461 0.91122 0.44583 0.0
C360 C 0.35274 0.80142 0.50043 0.0
C361 C 0.39139 0.84838 0.4661 0.0
C362 C 0.43456 0.85787 0.45015 0.0
C363 C 0.31013 0.83452 0.49621 0.0
C364 C 0.30644 0.87322 0.47526 0.0
C365 C 0.34835 0.88106 0.46153 0.0
C366 C 0.25698 0.90173 0.46452 0.0
C367 C 0.26835 0.82649 0.51336 0.0
C368 C 0.2105 0.87632 0.45078 0.0
C369 C 0.16523 0.90253 0.43721 0.0
C370 C 0.16543 0.95481 0.43694 0.0
C371 C 0.21135 0.98034 0.45167 0.0
C372 C 0.25691 0.95399 0.46514 0.0
H373 H 0.2851 0.8085 0.53505 0.0
H374 H 0.24967 0.86211 0.51742 0.0
H375 H 0.23739 0.8014 0.50042 0.0
H376 H 0.20981 0.83607 0.44944 0.0
H377 H 0.13041 0.88184 0.42613 0.0
H378 H 0.95023 0.99456 0.08419 0.0
H379 H 0.91808 0.97835 0.12903 0.0
H380 H 0.06791 0.91314 0.17059 0.0
H381 H 0.09885 0.92681 0.12569 0.0
H382 H 0.98888 0.86857 0.18932 0.0
H383 H 0.97251 0.07509 0.19619 0.0
H384 H 0.93033 0.04455 0.16483 0.0
H385 H 1.00039 0.04546 0.16844 0.0
C386 C 0.97537 0.97493 0.10247 0.0
C387 C 0.02721 0.96236 0.10161 0.0
C388 C 0.95726 0.96632 0.12823 0.0
C389 C 0.99119 0.94593 0.15351 0.0
C390 C 0.04109 0.92925 0.15151 0.0
H391 H 0.1142 0.95721 0.3323 0.0
H392 H 0.08301 0.93804 0.27961 0.0
C393 C 0.05888 0.93733 0.12584 0.0
C394 C 0.97914 0.9477 0.18329 0.0
H395 H 0.9741 0.03006 0.2391 0.0
C396 C 0.98425 0.90376 0.20001 0.0
C397 C 0.97318 0.9937 0.19732 0.0
C398 C 0.96908 0.0425 0.18095 0.0
C399 C 0.98765 0.90504 0.23073 0.0
C400 C 0.98559 0.95133 0.24497 0.0
C401 C 0.97573 0.99467 0.22795 0.0
C402 C 1.00179 0.95677 0.27766 0.0
C403 C 0.99629 0.85728 0.24805 0.0
C404 C 0.96635 0.97366 0.29402 0.0
C405 C 0.9839 0.98395 0.32444 0.0
C406 C 0.03748 0.97849 0.33887 0.0
C407 C 0.07255 0.96086 0.32227 0.0
C408 C 0.05482 0.94997 0.29206 0.0
H409 H 0.98298 0.82443 0.2335 0.0
H410 H 0.03898 0.85302 0.25819 0.0
H411 H 0.97511 0.85781 0.26624 0.0
H412 H 0.92533 0.97954 0.28317 0.0
H413 H 0.95558 0.9967 0.33654 0.0
H414 H 0.02656 0.88962 0.9187 0.0
H415 H 0.0521 0.86999 0.87233 0.0
H416 H 0.13812 0.00875 0.87948 0.0
H417 H 0.11607 0.02596 0.92692 0.0
H418 H 0.01357 0.92044 0.82759 0.0
H419 H 0.22739 0.93176 0.83903 0.0
H420 H 0.19959 0.9305 0.87116 0.0
H421 H 0.20678 0.98853 0.85317 0.0
C422 C 0.05326 0.91442 0.91103 0.0
C423 C 0.06966 0.95908 0.92619 0.0
C424 C 0.06761 0.90346 0.88446 0.0
C425 C 0.09695 0.9379 0.8721 0.0
C426 C 0.11665 0.98081 0.88862 0.0
H427 H 0.07276 0.05522 0.70217 0.0
H428 H 0.09344 0.03312 0.75464 0.0
C429 C 0.10378 0.99088 0.91573 0.0
C430 C 0.09742 0.93422 0.84002 0.0
H431 H 0.1725 0.95649 0.79004 0.0
C432 C 0.04881 0.92679 0.81954 0.0
C433 C 0.14304 0.94312 0.82915 0.0
C434 C 0.19712 0.94842 0.84942 0.0
C435 C 0.04405 0.93066 0.78887 0.0
C436 C 0.08903 0.94228 0.77825 0.0
C437 C 0.13806 0.9477 0.79838 0.0
C438 C 0.08424 0.95394 0.7466 0.0
C439 C 0.99036 0.92513 0.76802 0.0
C440 C 0.07333 0.91648 0.72478 0.0
C441 C 0.06188 0.92891 0.69465 0.0
C442 C 0.06092 0.97906 0.6859 0.0
C443 C 0.07384 0.01622 0.70801 0.0
C444 C 0.08556 0.00372 0.73804 0.0
H445 H 0.95856 0.9205 0.78007 0.0
H446 H 0.98143 0.95822 0.75347 0.0
H447 H 0.9901 0.89209 0.75349 0.0
H448 H 0.07227 0.87781 0.73107 0.0
H449 H 0.05295 0.89934 0.67822 0.0
H450 H 0.59468 0.40388 0.61847 0.0
H451 H 0.57161 0.39579 0.66636 0.0
H452 H 0.4474 0.50315 0.63921 0.0
H453 H 0.4696 0.51021 0.59072 0.0
H454 H 0.58687 0.4848 0.69787 0.0
H455 H 0.38734 0.40786 0.69362 0.0
H456 H 0.42281 0.39475 0.66526 0.0
H457 H 0.39125 0.45376 0.66608 0.0
C458 C 0.56095 0.42404 0.62226 0.0
C459 C 0.5342 0.458 0.6012 0.0
C460 C 0.54774 0.41937 0.64958 0.0
C461 C 0.50806 0.4491 0.65642 0.0
C462 C 0.47771 0.47939 0.63426 0.0
H463 H 0.53306 0.58132 0.82924 0.0
H464 H 0.51139 0.56455 0.77581 0.0
C465 C 0.4905 0.48354 0.60662 0.0
C466 C 0.50726 0.45668 0.68801 0.0
H467 H 0.43212 0.44712 0.73904 0.0
C468 C 0.55309 0.4762 0.70686 0.0
C469 C 0.46303 0.4458 0.69958 0.0
C470 C 0.41334 0.42402 0.68022 0.0
C471 C 0.55609 0.48515 0.73698 0.0
C472 C 0.51178 0.475 0.74858 0.0
C473 C 0.46584 0.45514 0.72991 0.0
C474 C 0.51393 0.48453 0.7803 0.0
C475 C 0.60688 0.50518 0.75631 0.0
C476 C 0.52096 0.44494 0.80039 0.0
C477 C 0.53329 0.45436 0.831 0.0
C478 C 0.53874 0.50355 0.84195 0.0
C479 C 0.52875 0.54303 0.82161 0.0
C480 C 0.51642 0.53356 0.79106 0.0
H481 H 0.64012 0.50261 0.74516 0.0
H482 H 0.60162 0.54489 0.7616 0.0
H483 H 0.61761 0.48463 0.7776 0.0
H484 H 0.51945 0.40686 0.79242 0.0
H485 H 0.53992 0.42316 0.8461 0.0
H486 H 0.50847 0.38223 0.41292 0.0
H487 H 0.52917 0.36281 0.36507 0.0
H488 H 0.62391 0.49623 0.37278 0.0
H489 H 0.60415 0.51472 0.42071 0.0
H490 H 0.49512 0.4219 0.31999 0.0
H491 H 0.71021 0.40554 0.33454 0.0
H492 H 0.67897 0.40069 0.36535 0.0
H493 H 0.69437 0.46077 0.35244 0.0
C494 C 0.53562 0.40601 0.40488 0.0
C495 C 0.55588 0.44924 0.42061 0.0
C496 C 0.5473 0.39506 0.37758 0.0
C497 C 0.5787 0.42767 0.36544 0.0
C498 C 0.60105 0.4696 0.38201 0.0
H499 H 0.57681 0.54365 0.19727 0.0
H500 H 0.59151 0.52161 0.24969 0.0
C501 C 0.58969 0.48026 0.40938 0.0
C502 C 0.57995 0.42341 0.33365 0.0
H503 H 0.66108 0.43372 0.28581 0.0
C504 C 0.53151 0.42308 0.31255 0.0
C505 C 0.62738 0.42529 0.32388 0.0
C506 C 0.68061 0.42256 0.34531 0.0
C507 C 0.52912 0.42746 0.28213 0.0
C508 C 0.57636 0.43218 0.27256 0.0
C509 C 0.62495 0.43033 0.29338 0.0
C510 C 0.57512 0.44331 0.24123 0.0
C511 C 0.47603 0.4297 0.26046 0.0
C512 C 0.56202 0.40626 0.21929 0.0
C513 C 0.55393 0.41861 0.18926 0.0
C514 C 0.55854 0.46831 0.18074 0.0
C515 C 0.57358 0.50495 0.203 0.0
C516 C 0.58192 0.49249 0.23297 0.0
H517 H 0.44292 0.42868 0.27176 0.0
H518 H 0.47301 0.46427 0.24717 0.0
H519 H 0.47173 0.3977 0.2448 0.0
H520 H 0.55659 0.36809 0.22537 0.0
H521 H 0.54325 0.38938 0.17272 0.0
loop_
_geom_bond_atom_site_label_1
_geom_bond_atom_site_label_2
_geom_bond_distance
_geom_bond_site_symmetry_2
_ccdc_geom_bond_type
Zn0 O6 1.920 1_545 S
Zn0 O12 1.898 . S
Zn0 O15 1.905 1_545 S
Zn1 O9 1.905 . S
Zn1 O10 1.898 1_545 S
Zn1 O18 1.920 1_545 S
Zn2 O5 2.080 1_445 S
Zn2 O8 2.114 . S
Zn2 O11 2.120 1_545 S
Zn2 O13 2.120 1_455 S
Zn2 O14 2.114 1_554 S
Zn2 O17 2.080 . S
C3 O8 1.166 . S
C3 O9 1.182 . S
C4 O10 1.167 . S
C4 O11 1.299 . S
O5 Zn2 2.080 1_665 S
O5 C19 1.305 . S
O6 Zn0 1.920 1_565 S
O6 C19 1.234 1_556 S
C7 O12 1.167 . S
C7 O13 1.299 1_556 S
O8 Zn2 2.114 . S
O8 C3 1.166 . S
O9 Zn1 1.905 . S
O9 C3 1.182 . S
O10 Zn1 1.898 1_565 S
O10 C4 1.167 . S
O11 Zn2 2.120 1_565 S
O11 C4 1.299 . S
O12 Zn0 1.898 . S
O12 C7 1.167 . S
O13 Zn2 2.120 1_655 S
O13 C7 1.299 1_554 S
O14 Zn2 2.114 1_556 S
O14 C16 1.166 1_545 S
O15 Zn0 1.905 1_565 S
O15 C16 1.182 1_655 S
C16 O14 1.166 1_565 S
C16 O15 1.182 1_455 S
O17 Zn2 2.080 . S
O17 C20 1.305 1_545 S
O18 Zn1 1.920 1_565 S
O18 C20 1.234 . S
C19 O5 1.305 . S
C19 O6 1.234 1_554 S
C20 O17 1.305 1_565 S
C20 O18 1.234 . S
Zn21 O27 1.920 . S
Zn21 O33 1.898 . S
Zn21 O36 1.905 . S
Zn22 O30 1.905 . S
Zn22 O31 1.898 . S
Zn22 O39 1.920 . S
Zn23 O26 2.080 . S
Zn23 O29 2.114 . S
Zn23 O32 2.120 . S
Zn23 O34 2.120 . S
Zn23 O35 2.114 . S
Zn23 O38 2.080 . S
C24 O29 1.166 . S
C24 O30 1.182 . S
C25 O31 1.167 . S
C25 O32 1.299 . S
O26 Zn23 2.080 . S
O26 C40 1.305 . S
O27 Zn21 1.920 . S
O27 C40 1.234 . S
C28 O33 1.167 . S
C28 O34 1.299 . S
O29 Zn23 2.114 . S
O29 C24 1.166 . S
O30 Zn22 1.905 . S
O30 C24 1.182 . S
O31 Zn22 1.898 . S
O31 C25 1.167 . S
O32 Zn23 2.120 . S
O32 C25 1.299 . S
O33 Zn21 1.898 . S
O33 C28 1.167 . S
O34 Zn23 2.120 . S
O34 C28 1.299 . S
O35 Zn23 2.114 . S
O35 C37 1.166 . S
O36 Zn21 1.905 . S
O36 C37 1.182 . S
C37 O35 1.166 . S
C37 O36 1.182 . S
O38 Zn23 2.080 . S
O38 C41 1.305 . S
O39 Zn22 1.920 . S
O39 C41 1.234 . S
C40 O26 1.305 . S
C40 O27 1.234 . S
C41 O38 1.305 . S
C41 O39 1.234 . S
H42 C47 0.930 . S
H43 C50 0.930 . S
H44 C52 0.930 1_565 S
H45 C46 1.016 . S
C46 H45 1.016 . S
C46 N53 1.286 . S
C47 H42 0.930 . S
C47 C48 1.397 1_545 S
C47 C49 1.361 . S
C48 C47 1.397 1_565 S
C48 C52 1.390 1_565 S
C49 C47 1.361 . S
C49 C50 1.393 . S
C49 N53 1.413 . S
C50 H43 0.930 . S
C50 C49 1.393 . S
C50 C51 1.399 . S
C51 C50 1.399 . S
C51 C52 1.381 . S
C52 H44 0.930 1_545 S
C52 C48 1.390 1_545 S
C52 C51 1.381 . S
N53 C46 1.286 . S
N53 C49 1.413 . S
H54 C59 0.930 . S
H55 C62 0.930 . S
H56 C64 0.930 . S
H57 C58 1.016 . S
C58 H57 1.016 . S
C58 N65 1.286 . S
C59 H54 0.930 . S
C59 C60 1.397 1_545 S
C59 C61 1.361 1_655 S
C60 C59 1.397 1_565 S
C60 C64 1.390 . S
C61 C59 1.361 1_455 S
C61 C62 1.393 . S
C61 N65 1.413 . S
C62 H55 0.930 . S
C62 C61 1.393 . S
C62 C63 1.399 1_455 S
C63 C62 1.399 1_655 S
C63 C64 1.381 1_545 S
C64 H56 0.930 . S
C64 C60 1.390 . S
C64 C63 1.381 1_565 S
N65 C58 1.286 . S
N65 C61 1.413 . S
H66 C71 0.930 . S
H67 C74 0.930 . S
H68 C76 0.930 . S
H69 C70 1.016 . S
C70 H69 1.016 . S
C70 N77 1.286 . S
C71 H66 0.930 . S
C71 C72 1.397 . S
C71 C73 1.361 . S
C72 C71 1.397 . S
C72 C76 1.390 . S
C73 C71 1.361 . S
C73 C74 1.393 . S
C73 N77 1.413 . S
C74 H67 0.930 . S
C74 C73 1.393 . S
C74 C75 1.399 . S
C75 C74 1.399 . S
C75 C76 1.381 . S
C76 H68 0.930 . S
C76 C72 1.390 . S
C76 C75 1.381 . S
N77 C70 1.286 . S
N77 C73 1.413 . S
H78 C83 0.930 . S
H79 C86 0.930 . S
H80 C88 0.930 . S
H81 C82 1.016 . S
C82 H81 1.016 . S
C82 N89 1.286 . S
C83 H78 0.930 . S
C83 C84 1.397 . S
C83 C85 1.361 . S
C84 C83 1.397 . S
C84 C88 1.390 . S
C85 C83 1.361 . S
C85 C86 1.393 . S
C85 N89 1.413 . S
C86 H79 0.930 . S
C86 C85 1.393 . S
C86 C87 1.399 . S
C87 C86 1.399 . S
C87 C88 1.381 . S
C88 H80 0.930 . S
C88 C84 1.390 . S
C88 C87 1.381 . S
N89 C82 1.286 . S
N89 C85 1.413 . S
H90 C98 0.929 1_556 S
H91 C100 0.930 1_556 S
H92 C102 0.930 . S
H93 C105 0.929 . S
H94 C108 0.930 . S
H95 C110 0.960 . S
H96 C110 0.960 . S
H97 C110 0.960 . S
C98 H90 0.929 1_554 S
C98 C99 1.377 . S
C98 C100 1.384 . S
C99 C98 1.377 . S
C99 C105 1.390 . S
C100 H91 0.930 1_554 S
C100 C98 1.384 . S
C100 C101 1.372 . S
C101 C100 1.372 . S
C101 C102 1.400 . S
C101 C106 1.490 . S
C102 H92 0.930 . S
C102 C101 1.400 . S
C102 C105 1.386 . S
H103 C119 0.930 . S
H104 C120 0.931 . S
C105 H93 0.929 . S
C105 C99 1.390 . S
C105 C102 1.386 . S
C106 C101 1.490 . S
C106 C108 1.395 . S
C106 C109 1.403 . S
H107 C113 0.930 . S
C108 H94 0.930 . S
C108 C106 1.395 . S
C108 C111 1.403 . S
C109 C106 1.403 . S
C109 C110 1.524 . S
C109 C113 1.400 . S
C110 H95 0.960 . S
C110 H96 0.960 . S
C110 H97 0.960 . S
C110 C109 1.524 . S
C111 C108 1.403 . S
C111 C112 1.392 . S
C111 C115 1.495 . S
C112 C111 1.392 . S
C112 C113 1.385 . S
C112 C114 1.478 . S
C113 H107 0.930 . S
C113 C109 1.400 . S
C113 C112 1.385 . S
C114 C112 1.478 . S
C114 C116 1.381 . S
C114 C120 1.383 . S
C115 C111 1.495 . S
C115 H121 0.959 . S
C115 H122 0.961 . S
C115 H123 0.960 . S
C116 C114 1.381 . S
C116 C117 1.394 . S
C116 H124 0.930 . S
C117 C116 1.394 . S
C117 C118 1.383 . S
C117 H125 0.929 . S
C118 C117 1.383 . S
C118 C119 1.377 . S
C119 H103 0.930 . S
C119 C118 1.377 . S
C119 C120 1.379 . S
C120 H104 0.931 . S
C120 C114 1.383 . S
C120 C119 1.379 . S
H121 C115 0.959 . S
H122 C115 0.961 . S
H123 C115 0.960 . S
H124 C116 0.930 . S
H125 C117 0.929 . S
H126 C134 0.929 . S
H127 C136 0.930 . S
H128 C138 0.930 . S
H129 C141 0.929 . S
H130 C144 0.930 . S
H131 C146 0.960 . S
H132 C146 0.960 . S
H133 C146 0.960 . S
C134 H126 0.929 . S
C134 C135 1.377 1_556 S
C134 C136 1.384 . S
C135 C134 1.377 1_554 S
C135 C141 1.390 . S
C136 H127 0.930 . S
C136 C134 1.384 . S
C136 C137 1.372 . S
C137 C136 1.372 . S
C137 C138 1.400 . S
C137 C142 1.490 . S
C138 H128 0.930 . S
C138 C137 1.400 . S
C138 C141 1.386 1_556 S
H139 C155 0.930 . S
H140 C156 0.931 . S
C141 H129 0.929 . S
C141 C135 1.390 . S
C141 C138 1.386 1_554 S
C142 C137 1.490 . S
C142 C144 1.395 1_556 S
C142 C145 1.403 . S
H143 C149 0.930 . S
C144 H130 0.930 . S
C144 C142 1.395 1_554 S
C144 C147 1.395 1_554 S
C145 C142 1.403 . S
C145 C146 1.524 . S
C145 C149 1.400 . S
C146 H131 0.960 . S
C146 H132 0.960 . S
C146 H133 0.960 . S
C146 C145 1.524 . S
C147 C144 1.395 1_556 S
C147 C148 1.414 . S
C147 C151 1.482 1_556 S
C148 C147 1.414 . S
C148 C149 1.385 . S
C148 C150 1.478 . S
C149 H143 0.930 . S
C149 C145 1.400 . S
C149 C148 1.385 . S
C150 C148 1.478 . S
C150 C152 1.381 . S
C150 C156 1.383 . S
C151 C147 1.482 1_554 S
C151 H157 0.959 . S
C151 H158 0.961 . S
C151 H159 0.960 . S
C152 C150 1.381 . S
C152 C153 1.394 . S
C152 H160 0.930 . S
C153 C152 1.394 . S
C153 C154 1.383 . S
C153 H161 0.929 . S
C154 C153 1.383 . S
C154 C155 1.377 . S
C155 H139 0.930 . S
C155 C154 1.377 . S
C155 C156 1.379 . S
C156 H140 0.931 . S
C156 C150 1.383 . S
C156 C155 1.379 . S
H157 C151 0.959 . S
H158 C151 0.961 . S
H159 C151 0.960 . S
H160 C152 0.930 . S
H161 C153 0.929 . S
H162 C170 0.929 1_556 S
H163 C172 0.930 1_556 S
H164 C174 0.930 . S
H165 C177 0.929 . S
H166 C180 0.930 1_556 S
H167 C182 0.960 . S
H168 C182 0.960 . S
H169 C182 0.960 . S
C170 H162 0.929 1_554 S
C170 C171 1.377 . S
C170 C172 1.384 . S
C171 C170 1.377 . S
C171 C177 1.390 . S
C172 H163 0.930 1_554 S
C172 C170 1.384 . S
C172 C173 1.372 . S
C173 C172 1.372 . S
C173 C174 1.400 . S
C173 C178 1.490 . S
C174 H164 0.930 . S
C174 C173 1.400 . S
C174 C177 1.386 . S
H175 C191 0.930 . S
H176 C192 0.931 . S
C177 H165 0.929 . S
C177 C171 1.390 . S
C177 C174 1.386 . S
C178 C173 1.490 . S
C178 C180 1.395 . S
C178 C181 1.403 . S
H179 C185 0.930 . S
C180 H166 0.930 1_554 S
C180 C178 1.395 . S
C180 C183 1.403 . S
C181 C178 1.403 . S
C181 C182 1.524 . S
C181 C185 1.400 . S
C182 H167 0.960 . S
C182 H168 0.960 . S
C182 H169 0.960 . S
C182 C181 1.524 . S
C183 C180 1.403 . S
C183 C184 1.392 . S
C183 C187 1.495 1_554 S
C184 C183 1.392 . S
C184 C185 1.385 . S
C184 C186 1.478 . S
C185 H179 0.930 . S
C185 C181 1.400 . S
C185 C184 1.385 . S
C186 C184 1.478 . S
C186 C188 1.381 . S
C186 C192 1.383 . S
C187 C183 1.495 1_556 S
C187 H193 0.959 . S
C187 H194 0.961 1_556 S
C187 H195 0.960 . S
C188 C186 1.381 . S
C188 C189 1.394 . S
C188 H196 0.930 . S
C189 C188 1.394 . S
C189 C190 1.383 . S
C189 H197 0.929 . S
C190 C189 1.383 . S
C190 C191 1.377 . S
C191 H175 0.930 . S
C191 C190 1.377 . S
C191 C192 1.379 . S
C192 H176 0.931 . S
C192 C186 1.383 . S
C192 C191 1.379 . S
H193 C187 0.959 . S
H194 C187 0.961 1_554 S
H195 C187 0.960 . S
H196 C188 0.930 . S
H197 C189 0.929 . S
H198 C206 0.929 . S
H199 C208 0.930 . S
H200 C210 0.930 . S
H201 C213 0.929 . S
H202 C216 0.928 1_554 S
H203 C218 0.960 . S
H204 C218 0.960 . S
H205 C218 0.960 . S
C206 H198 0.929 . S
C206 C207 1.377 1_554 S
C206 C208 1.384 . S
C207 C206 1.377 1_556 S
C207 C213 1.390 . S
C208 H199 0.930 . S
C208 C206 1.384 . S
C208 C209 1.372 1_554 S
C209 C208 1.372 1_556 S
C209 C210 1.400 . S
C209 C214 1.490 . S
C210 H200 0.930 . S
C210 C209 1.400 . S
C210 C213 1.386 . S
H211 C227 0.930 . S
H212 C228 0.931 . S
C213 H201 0.929 . S
C213 C207 1.390 . S
C213 C210 1.386 . S
C214 C209 1.490 . S
C214 C216 1.395 . S
C214 C217 1.403 . S
H215 C221 0.930 . S
C216 H202 0.928 1_556 S
C216 C214 1.395 . S
C216 C219 1.403 . S
C217 C214 1.403 . S
C217 C218 1.524 . S
C217 C221 1.400 . S
C218 H203 0.960 . S
C218 H204 0.960 . S
C218 H205 0.960 . S
C218 C217 1.524 . S
C219 C216 1.403 . S
C219 C220 1.392 . S
C219 C223 1.495 . S
C220 C219 1.392 . S
C220 C221 1.385 . S
C220 C222 1.478 . S
C221 H215 0.930 . S
C221 C217 1.400 . S
C221 C220 1.385 . S
C222 C220 1.478 . S
C222 C224 1.381 . S
C222 C228 1.383 . S
C223 C219 1.495 . S
C223 H229 0.959 1_556 S
C223 H230 0.961 . S
C223 H231 0.960 1_556 S
C224 C222 1.381 . S
C224 C225 1.394 . S
C224 H232 0.946 . S
C225 C224 1.394 . S
C225 C226 1.383 . S
C225 H233 0.929 . S
C226 C225 1.383 . S
C226 C227 1.377 . S
C227 H211 0.930 . S
C227 C226 1.377 . S
C227 C228 1.379 . S
C228 H212 0.931 . S
C228 C222 1.383 . S
C228 C227 1.379 . S
H229 C223 0.959 1_554 S
H230 C223 0.961 . S
H231 C223 0.960 1_554 S
H232 C224 0.946 . S
H233 C225 0.929 . S
H234 C242 0.929 . S
H235 C244 0.930 . S
H236 C246 0.930 . S
H237 C249 0.929 . S
H238 C252 0.930 . S
H239 C254 0.960 . S
H240 C254 0.960 . S
H241 C254 0.960 . S
C242 H234 0.929 . S
C242 C243 1.377 . S
C242 C244 1.384 . S
C243 C242 1.377 . S
C243 C249 1.390 . S
C244 H235 0.930 . S
C244 C242 1.384 . S
C244 C245 1.372 . S
C245 C244 1.372 . S
C245 C246 1.400 . S
C245 C250 1.490 . S
C246 H236 0.930 . S
C246 C245 1.400 . S
C246 C249 1.386 . S
H247 C263 0.930 . S
H248 C264 0.931 . S
C249 H237 0.929 . S
C249 C243 1.390 . S
C249 C246 1.386 . S
C250 C245 1.490 . S
C250 C252 1.395 . S
C250 C253 1.403 . S
H251 C257 0.930 . S
C252 H238 0.930 . S
C252 C250 1.395 . S
C252 C255 1.403 . S
C253 C250 1.403 . S
C253 C254 1.524 . S
C253 C257 1.400 . S
C254 H239 0.960 . S
C254 H240 0.960 . S
C254 H241 0.960 . S
C254 C253 1.524 . S
C255 C252 1.403 . S
C255 C256 1.392 . S
C255 C259 1.495 . S
C256 C255 1.392 . S
C256 C257 1.385 . S
C256 C258 1.478 . S
C257 H251 0.930 . S
C257 C253 1.400 . S
C257 C256 1.385 . S
C258 C256 1.478 . S
C258 C260 1.381 . S
C258 C264 1.383 . S
C259 C255 1.495 . S
C259 H265 0.959 . S
C259 H266 0.961 . S
C259 H267 0.960 . S
C260 C258 1.381 . S
C260 C261 1.394 . S
C260 H268 0.930 . S
C261 C260 1.394 . S
C261 C262 1.383 . S
C261 H269 0.929 . S
C262 C261 1.383 . S
C262 C263 1.377 . S
C263 H247 0.930 . S
C263 C262 1.377 . S
C263 C264 1.379 . S
C264 H248 0.931 . S
C264 C258 1.383 . S
C264 C263 1.379 . S
H265 C259 0.959 . S
H266 C259 0.961 . S
H267 C259 0.960 . S
H268 C260 0.930 . S
H269 C261 0.929 . S
H270 C278 0.929 . S
H271 C280 0.930 . S
H272 C282 0.930 . S
H273 C285 0.929 . S
H274 C288 0.930 . S
H275 C290 0.960 . S
H276 C290 0.960 . S
H277 C290 0.960 . S
C278 H270 0.929 . S
C278 C279 1.377 . S
C278 C280 1.384 . S
C279 C278 1.377 . S
C279 C285 1.390 . S
C280 H271 0.930 . S
C280 C278 1.384 . S
C280 C281 1.372 . S
C281 C280 1.372 . S
C281 C282 1.400 . S
C281 C286 1.490 . S
C282 H272 0.930 . S
C282 C281 1.400 . S
C282 C285 1.386 . S
H283 C299 0.930 . S
H284 C300 0.931 . S
C285 H273 0.929 . S
C285 C279 1.390 . S
C285 C282 1.386 . S
C286 C281 1.490 . S
C286 C288 1.395 . S
C286 C289 1.403 . S
H287 C293 0.930 . S
C288 H274 0.930 . S
C288 C286 1.395 . S
C288 C291 1.403 . S
C289 C286 1.403 . S
C289 C290 1.524 . S
C289 C293 1.400 . S
C290 H275 0.960 . S
C290 H276 0.960 . S
C290 H277 0.960 . S
C290 C289 1.524 . S
C291 C288 1.403 . S
C291 C292 1.392 . S
C291 C295 1.495 . S
C292 C291 1.392 . S
C292 C293 1.385 . S
C292 C294 1.478 . S
C293 H287 0.930 . S
C293 C289 1.400 . S
C293 C292 1.385 . S
C294 C292 1.478 . S
C294 C296 1.381 . S
C294 C300 1.383 . S
C295 C291 1.495 . S
C295 H301 0.959 . S
C295 H302 0.961 . S
C295 H303 0.960 . S
C296 C294 1.381 . S
C296 C297 1.394 . S
C296 H304 0.930 . S
C297 C296 1.394 . S
C297 C298 1.383 . S
C297 H305 0.929 . S
C298 C297 1.383 . S
C298 C299 1.377 . S
C299 H283 0.930 . S
C299 C298 1.377 . S
C299 C300 1.379 . S
C300 H284 0.931 . S
C300 C294 1.383 . S
C300 C299 1.379 . S
H301 C295 0.959 . S
H302 C295 0.961 . S
H303 C295 0.960 . S
H304 C296 0.930 . S
H305 C297 0.929 . S
H306 C314 0.929 . S
H307 C316 0.930 . S
H308 C318 0.930 . S
H309 C321 0.929 . S
H310 C324 0.930 . S
H311 C326 0.960 . S
H312 C326 0.960 . S
H313 C326 0.960 . S
C314 H306 0.929 . S
C314 C315 1.377 . S
C314 C316 1.384 . S
C315 C314 1.377 . S
C315 C321 1.390 . S
C316 H307 0.930 . S
C316 C314 1.384 . S
C316 C317 1.372 . S
C317 C316 1.372 . S
C317 C318 1.400 . S
C317 C322 1.490 . S
C318 H308 0.930 . S
C318 C317 1.400 . S
C318 C321 1.386 . S
H319 C335 0.930 . S
H320 C336 0.931 . S
C321 H309 0.929 . S
C321 C315 1.390 . S
C321 C318 1.386 . S
C322 C317 1.490 . S
C322 C324 1.395 . S
C322 C325 1.403 . S
H323 C329 0.930 . S
C324 H310 0.930 . S
C324 C322 1.395 . S
C324 C327 1.403 . S
C325 C322 1.403 . S
C325 C326 1.524 . S
C325 C329 1.400 . S
C326 H311 0.960 . S
C326 H312 0.960 . S
C326 H313 0.960 . S
C326 C325 1.524 . S
C327 C324 1.403 . S
C327 C328 1.392 . S
C327 C331 1.495 . S
C328 C327 1.392 . S
C328 C329 1.385 . S
C328 C330 1.478 . S
C329 H323 0.930 . S
C329 C325 1.400 . S
C329 C328 1.385 . S
C330 C328 1.478 . S
C330 C332 1.381 . S
C330 C336 1.383 . S
C331 C327 1.495 . S
C331 H337 0.959 . S
C331 H338 0.961 . S
C331 H339 0.960 . S
C332 C330 1.381 . S
C332 C333 1.394 . S
C332 H340 0.930 . S
C333 C332 1.394 . S
C333 C334 1.383 . S
C333 H341 0.929 . S
C334 C333 1.383 . S
C334 C335 1.377 . S
C335 H319 0.930 . S
C335 C334 1.377 . S
C335 C336 1.379 . S
C336 H320 0.931 . S
C336 C330 1.383 . S
C336 C335 1.379 . S
H337 C331 0.959 . S
H338 C331 0.961 . S
H339 C331 0.960 . S
H340 C332 0.930 . S
H341 C333 0.929 . S
H342 C350 0.929 . S
H343 C352 0.930 . S
H344 C354 0.930 . S
H345 C357 0.929 . S
H346 C360 0.930 . S
H347 C362 0.960 . S
H348 C362 0.960 . S
H349 C362 0.960 . S
C350 H342 0.929 . S
C350 C351 1.377 . S
C350 C352 1.384 . S
C351 C350 1.377 . S
C351 C357 1.390 . S
C352 H343 0.930 . S
C352 C350 1.384 . S
C352 C353 1.372 . S
C353 C352 1.372 . S
C353 C354 1.400 . S
C353 C358 1.490 . S
C354 H344 0.930 . S
C354 C353 1.400 . S
C354 C357 1.386 . S
H355 C371 0.930 . S
H356 C372 0.931 . S
C357 H345 0.929 . S
C357 C351 1.390 . S
C357 C354 1.386 . S
C358 C353 1.490 . S
C358 C360 1.395 . S
C358 C361 1.403 . S
H359 C365 0.930 . S
C360 H346 0.930 . S
C360 C358 1.395 . S
C360 C363 1.403 . S
C361 C358 1.403 . S
C361 C362 1.524 . S
C361 C365 1.400 . S
C362 H347 0.960 . S
C362 H348 0.960 . S
C362 H349 0.960 . S
C362 C361 1.524 . S
C363 C360 1.403 . S
C363 C364 1.392 . S
C363 C367 1.495 . S
C364 C363 1.392 . S
C364 C365 1.385 . S
C364 C366 1.478 . S
C365 H359 0.930 . S
C365 C361 1.400 . S
C365 C364 1.385 . S
C366 C364 1.478 . S
C366 C368 1.381 . S
C366 C372 1.383 . S
C367 C363 1.495 . S
C367 H373 0.959 . S
C367 H374 0.961 . S
C367 H375 0.960 . S
C368 C366 1.381 . S
C368 C369 1.394 . S
C368 H376 0.930 . S
C369 C368 1.394 . S
C369 C370 1.383 . S
C369 H377 0.929 . S
C370 C369 1.383 . S
C370 C371 1.377 . S
C371 H355 0.930 . S
C371 C370 1.377 . S
C371 C372 1.379 . S
C372 H356 0.931 . S
C372 C366 1.383 . S
C372 C371 1.379 . S
H373 C367 0.959 . S
H374 C367 0.961 . S
H375 C367 0.960 . S
H376 C368 0.930 . S
H377 C369 0.929 . S
H378 C386 0.929 1_655 S
H379 C388 0.930 1_655 S
H380 C390 0.930 . S
H381 C393 0.929 . S
H382 C396 0.930 . S
H383 C398 0.960 . S
H384 C398 0.960 . S
H385 C398 0.960 . S
C386 H378 0.929 1_455 S
C386 C387 1.377 . S
C386 C388 1.384 . S
C387 C386 1.377 . S
C387 C393 1.390 1_565 S
C388 H379 0.930 1_455 S
C388 C386 1.384 . S
C388 C389 1.374 . S
C389 C388 1.374 . S
C389 C390 1.398 1_565 S
C389 C394 1.489 1_565 S
C390 H380 0.930 . S
C390 C389 1.398 1_545 S
C390 C393 1.386 . S
H391 C407 0.930 . S
H392 C408 0.931 . S
C393 H381 0.929 . S
C393 C387 1.390 1_545 S
C393 C390 1.386 . S
C394 C389 1.489 1_545 S
C394 C396 1.395 1_545 S
C394 C397 1.403 . S
H395 C401 0.930 . S
C396 H382 0.930 . S
C396 C394 1.395 1_565 S
C396 C399 1.403 . S
C397 C394 1.403 . S
C397 C398 1.524 . S
C397 C401 1.400 . S
C398 H383 0.960 . S
C398 H384 0.960 . S
C398 H385 0.960 . S
C398 C397 1.524 . S
C399 C396 1.403 . S
C399 C400 1.392 1_565 S
C399 C403 1.495 . S
C400 C399 1.392 1_545 S
C400 C401 1.385 . S
C400 C402 1.478 . S
C401 H395 0.930 . S
C401 C397 1.400 . S
C401 C400 1.385 . S
C402 C400 1.478 . S
C402 C404 1.381 . S
C402 C408 1.383 . S
C403 C399 1.495 . S
C403 H409 0.959 . S
C403 H410 0.961 . S
C403 H411 0.960 . S
C404 C402 1.381 . S
C404 C405 1.394 . S
C404 H412 0.930 1_545 S
C405 C404 1.394 . S
C405 C406 1.383 . S
C405 H413 0.929 . S
C406 C405 1.383 . S
C406 C407 1.377 . S
C407 H391 0.930 . S
C407 C406 1.377 . S
C407 C408 1.379 . S
C408 H392 0.931 . S
C408 C402 1.383 . S
C408 C407 1.379 . S
H409 C403 0.959 . S
H410 C403 0.961 . S
H411 C403 0.960 . S
H412 C404 0.930 1_565 S
H413 C405 0.929 . S
H414 C422 0.929 . S
H415 C424 0.930 . S
H416 C426 0.930 . S
H417 C429 0.929 . S
H418 C432 0.930 . S
H419 C434 0.960 . S
H420 C434 0.960 . S
H421 C434 0.960 . S
C422 H414 0.929 . S
C422 C423 1.377 . S
C422 C424 1.384 . S
C423 C422 1.377 . S
C423 C429 1.390 1_465 S
C424 H415 0.930 . S
C424 C422 1.384 . S
C424 C425 1.372 . S
C425 C424 1.372 . S
C425 C426 1.400 1_465 S
C425 C430 1.490 1_565 S
C426 H416 0.930 . S
C426 C425 1.400 1_645 S
C426 C429 1.386 . S
H427 C443 0.930 . S
H428 C444 0.931 . S
C429 H417 0.929 . S
C429 C423 1.390 1_645 S
C429 C426 1.386 . S
C430 C425 1.490 1_545 S
C430 C432 1.395 1_445 S
C430 C433 1.403 . S
H431 C437 0.930 . S
C432 H418 0.930 . S
C432 C430 1.395 1_665 S
C432 C435 1.403 . S
C433 C430 1.403 . S
C433 C434 1.524 . S
C433 C437 1.400 . S
C434 H419 0.960 . S
C434 H420 0.960 . S
C434 H421 0.960 . S
C434 C433 1.524 . S
C435 C432 1.403 . S
C435 C436 1.392 1_665 S
C435 C439 1.495 . S
C436 C435 1.392 1_445 S
C436 C437 1.385 . S
C436 C438 1.477 1_455 S
C437 H431 0.930 . S
C437 C433 1.400 . S
C437 C436 1.385 . S
C438 C436 1.477 1_655 S
C438 C440 1.382 1_645 S
C438 C444 1.382 . S
C439 C435 1.495 . S
C439 H445 0.959 . S
C439 H446 0.961 . S
C439 H447 0.960 . S
C440 C438 1.382 1_465 S
C440 C441 1.394 . S
C440 H448 0.930 . S
C441 C440 1.394 . S
C441 C442 1.383 1_465 S
C441 H449 0.929 . S
C442 C441 1.383 1_645 S
C442 C443 1.377 . S
C443 H427 0.930 . S
C443 C442 1.377 . S
C443 C444 1.379 . S
C444 H428 0.931 . S
C444 C438 1.382 . S
C444 C443 1.379 . S
H445 C439 0.959 . S
H446 C439 0.961 . S
H447 C439 0.960 . S
H448 C440 0.930 . S
H449 C441 0.929 . S
H450 C458 0.929 . S
H451 C460 0.930 . S
H452 C462 0.930 . S
H453 C465 0.929 . S
H454 C468 0.930 . S
H455 C470 0.960 . S
H456 C470 0.960 . S
H457 C470 0.960 . S
C458 H450 0.929 . S
C458 C459 1.377 . S
C458 C460 1.384 . S
C459 C458 1.377 . S
C459 C465 1.390 . S
C460 H451 0.930 . S
C460 C458 1.384 . S
C460 C461 1.372 . S
C461 C460 1.372 . S
C461 C462 1.400 . S
C461 C466 1.490 . S
C462 H452 0.930 . S
C462 C461 1.400 . S
C462 C465 1.386 . S
H463 C479 0.930 . S
H464 C480 0.931 . S
C465 H453 0.929 . S
C465 C459 1.390 . S
C465 C462 1.386 . S
C466 C461 1.490 . S
C466 C468 1.395 . S
C466 C469 1.403 . S
H467 C473 0.930 . S
C468 H454 0.930 . S
C468 C466 1.395 . S
C468 C471 1.403 . S
C469 C466 1.403 . S
C469 C470 1.524 . S
C469 C473 1.400 . S
C470 H455 0.960 . S
C470 H456 0.960 . S
C470 H457 0.960 . S
C470 C469 1.524 . S
C471 C468 1.403 . S
C471 C472 1.392 . S
C471 C475 1.495 . S
C472 C471 1.392 . S
C472 C473 1.385 . S
C472 C474 1.478 . S
C473 H467 0.930 . S
C473 C469 1.400 . S
C473 C472 1.385 . S
C474 C472 1.478 . S
C474 C476 1.381 . S
C474 C480 1.383 . S
C475 C471 1.495 . S
C475 H481 0.959 . S
C475 H482 0.961 . S
C475 H483 0.960 . S
C476 C474 1.381 . S
C476 C477 1.394 . S
C476 H484 0.930 . S
C477 C476 1.394 . S
C477 C478 1.383 . S
C477 H485 0.929 . S
C478 C477 1.383 . S
C478 C479 1.377 . S
C479 H463 0.930 . S
C479 C478 1.377 . S
C479 C480 1.379 . S
C480 H464 0.931 . S
C480 C474 1.383 . S
C480 C479 1.379 . S
H481 C475 0.959 . S
H482 C475 0.961 . S
H483 C475 0.960 . S
H484 C476 0.930 . S
H485 C477 0.929 . S
H486 C494 0.929 . S
H487 C496 0.930 . S
H488 C498 0.930 . S
H489 C501 0.929 . S
H490 C504 0.930 . S
H491 C506 0.960 . S
H492 C506 0.960 . S
H493 C506 0.960 . S
C494 H486 0.929 . S
C494 C495 1.377 . S
C494 C496 1.384 . S
C495 C494 1.377 . S
C495 C501 1.390 . S
C496 H487 0.930 . S
C496 C494 1.384 . S
C496 C497 1.372 . S
C497 C496 1.372 . S
C497 C498 1.400 . S
C497 C502 1.490 . S
C498 H488 0.930 . S
C498 C497 1.400 . S
C498 C501 1.386 . S
H499 C515 0.930 . S
H500 C516 0.931 . S
C501 H489 0.929 . S
C501 C495 1.390 . S
C501 C498 1.386 . S
C502 C497 1.490 . S
C502 C504 1.395 . S
C502 C505 1.403 . S
H503 C509 0.930 . S
C504 H490 0.930 . S
C504 C502 1.395 . S
C504 C507 1.403 . S
C505 C502 1.403 . S
C505 C506 1.524 . S
C505 C509 1.400 . S
C506 H491 0.960 . S
C506 H492 0.960 . S
C506 H493 0.960 . S
C506 C505 1.524 . S
C507 C504 1.403 . S
C507 C508 1.392 . S
C507 C511 1.495 . S
C508 C507 1.392 . S
C508 C509 1.385 . S
C508 C510 1.478 . S
C509 H503 0.930 . S
C509 C505 1.400 . S
C509 C508 1.385 . S
C510 C508 1.478 . S
C510 C512 1.381 . S
C510 C516 1.383 . S
C511 C507 1.495 . S
C511 H517 0.959 . S
C511 H518 0.961 . S
C511 H519 0.960 . S
C512 C510 1.381 . S
C512 C513 1.394 . S
C512 H520 0.930 . S
C513 C512 1.394 . S
C513 C514 1.383 . S
C513 H521 0.929 . S
C514 C513 1.383 . S
C514 C515 1.377 . S
C515 H499 0.930 . S
C515 C514 1.377 . S
C515 C516 1.379 . S
C516 H500 0.931 . S
C516 C510 1.383 . S
C516 C515 1.379 . S
H517 C511 0.959 . S
H518 C511 0.961 . S
H519 C511 0.960 . S
H520 C512 0.930 . S
H521 C513 0.929 . S
C118 C84 1.283 . S
C99 C3 1.176 . S
C135 C4 1.449 . S
C154 C70 1.531 . S
C171 C19 1.468 . S
C190 C82 1.556 . S
C207 C7 1.175 . S
C226 C72 1.300 . S
C243 C37 1.179 . S
C262 C60 1.277 . S
C279 C28 1.438 . S
C298 C46 1.511 1_655 S
C334 C58 1.551 . S
C315 C41 1.466 . S
C370 C48 1.281 . S
C351 C25 1.177 . S
C387 C20 1.347 . S
C406 C51 1.453 . S
C423 C16 1.400 . S
C442 C63 1.504 . S
C478 C75 1.475 . S
C459 C40 1.344 . S
C495 C24 1.398 . S
C514 C87 1.518 . S
