# Generated by pormake.
# Topology eea, (3,6)-cn, num edge types: 1
# Building blocks:
#     Node 0, Type 0, BuildingBlock: ESEHIV_clean_linker_0, # of connection points: 3
#     Node 1, Type 0, BuildingBlock: ESEHIV_clean_linker_0, # of connection points: 3
#     Node 2, Type 0, BuildingBlock: ESEHIV_clean_linker_0, # of connection points: 3
#     Node 3, Type 0, BuildingBlock: ESEHIV_clean_linker_0, # of connection points: 3
#     Node 4, Type 0, BuildingBlock: ESEHIV_clean_linker_0, # of connection points: 3
#     Node 5, Type 0, BuildingBlock: ESEHIV_clean_linker_0, # of connection points: 3
#     Node 6, Type 0, BuildingBlock: ESEHIV_clean_linker_0, # of connection points: 3
#     Node 7, Type 0, BuildingBlock: ESEHIV_clean_linker_0, # of connection points: 3
#     Node 8, Type 0, BuildingBlock: ESEHIV_clean_linker_0, # of connection points: 3
#     Node 9, Type 0, BuildingBlock: ESEHIV_clean_linker_0, # of connection points: 3
#     Node 10, Type 0, BuildingBlock: ESEHIV_clean_linker_0, # of connection points: 3
#     Node 11, Type 0, BuildingBlock: ESEHIV_clean_linker_0, # of connection points: 3
#     Node 12, Type 0, BuildingBlock: ESEHIV_clean_linker_0, # of connection points: 3
#     Node 13, Type 0, BuildingBlock: ESEHIV_clean_linker_0, # of connection points: 3
#     Node 14, Type 0, BuildingBlock: ESEHIV_clean_linker_0, # of connection points: 3
#     Node 15, Type 0, BuildingBlock: ESEHIV_clean_linker_0, # of connection points: 3
#     Node 16, Type 0, BuildingBlock: ESEHIV_clean_linker_0, # of connection points: 3
#     Node 17, Type 0, BuildingBlock: ESEHIV_clean_linker_0, # of connection points: 3
#     Node 18, Type 1, BuildingBlock: CIFDUS_clean_sbu_1, # of connection points: 6
#     Node 19, Type 1, BuildingBlock: CIFDUS_clean_sbu_1, # of connection points: 6
#     Node 20, Type 1, BuildingBlock: CIFDUS_clean_sbu_1, # of connection points: 6
#     Node 21, Type 1, BuildingBlock: CIFDUS_clean_sbu_1, # of connection points: 6
#     Node 22, Type 1, BuildingBlock: CIFDUS_clean_sbu_1, # of connection points: 6
#     Node 23, Type 1, BuildingBlock: CIFDUS_clean_sbu_1, # of connection points: 6
#     Node 24, Type 1, BuildingBlock: CIFDUS_clean_sbu_1, # of connection points: 6
#     Node 25, Type 1, BuildingBlock: CIFDUS_clean_sbu_1, # of connection points: 6
#     Node 26, Type 1, BuildingBlock: CIFDUS_clean_sbu_1, # of connection points: 6
#     Edge 27, Type (0, 1), BuildingBlock: AJUNOK_clean_linker_0, # of connection points: 2
#     Edge 28, Type (0, 1), BuildingBlock: AJUNOK_clean_linker_0, # of connection points: 2
#     Edge 29, Type (0, 1), BuildingBlock: AJUNOK_clean_linker_0, # of connection points: 2
#     Edge 30, Type (0, 1), BuildingBlock: AJUNOK_clean_linker_0, # of connection points: 2
#     Edge 31, Type (0, 1), BuildingBlock: AJUNOK_clean_linker_0, # of connection points: 2
#     Edge 32, Type (0, 1), BuildingBlock: AJUNOK_clean_linker_0, # of connection points: 2
#     Edge 33, Type (0, 1), BuildingBlock: AJUNOK_clean_linker_0, # of connection points: 2
#     Edge 34, Type (0, 1), BuildingBlock: AJUNOK_clean_linker_0, # of connection points: 2
#     Edge 35, Type (0, 1), BuildingBlock: AJUNOK_clean_linker_0, # of connection points: 2
#     Edge 36, Type (0, 1), BuildingBlock: AJUNOK_clean_linker_0, # of connection points: 2
#     Edge 37, Type (0, 1), BuildingBlock: AJUNOK_clean_linker_0, # of connection points: 2
#     Edge 38, Type (0, 1), BuildingBlock: AJUNOK_clean_linker_0, # of connection points: 2
#     Edge 39, Type (0, 1), BuildingBlock: AJUNOK_clean_linker_0, # of connection points: 2
#     Edge 40, Type (0, 1), BuildingBlock: AJUNOK_clean_linker_0, # of connection points: 2
#     Edge 41, Type (0, 1), BuildingBlock: AJUNOK_clean_linker_0, # of connection points: 2
#     Edge 42, Type (0, 1), BuildingBlock: AJUNOK_clean_linker_0, # of connection points: 2
#     Edge 43, Type (0, 1), BuildingBlock: AJUNOK_clean_linker_0, # of connection points: 2
#     Edge 44, Type (0, 1), BuildingBlock: AJUNOK_clean_linker_0, # of connection points: 2
#     Edge 45, Type (0, 1), BuildingBlock: AJUNOK_clean_linker_0, # of connection points: 2
#     Edge 46, Type (0, 1), BuildingBlock: AJUNOK_clean_linker_0, # of connection points: 2
#     Edge 47, Type (0, 1), BuildingBlock: AJUNOK_clean_linker_0, # of connection points: 2
#     Edge 48, Type (0, 1), BuildingBlock: AJUNOK_clean_linker_0, # of connection points: 2
#     Edge 49, Type (0, 1), BuildingBlock: AJUNOK_clean_linker_0, # of connection points: 2
#     Edge 50, Type (0, 1), BuildingBlock: AJUNOK_clean_linker_0, # of connection points: 2
#     Edge 51, Type (0, 1), BuildingBlock: AJUNOK_clean_linker_0, # of connection points: 2
#     Edge 52, Type (0, 1), BuildingBlock: AJUNOK_clean_linker_0, # of connection points: 2
#     Edge 53, Type (0, 1), BuildingBlock: AJUNOK_clean_linker_0, # of connection points: 2
#     Edge 54, Type (0, 1), BuildingBlock: AJUNOK_clean_linker_0, # of connection points: 2
#     Edge 55, Type (0, 1), BuildingBlock: AJUNOK_clean_linker_0, # of connection points: 2
#     Edge 56, Type (0, 1), BuildingBlock: AJUNOK_clean_linker_0, # of connection points: 2
#     Edge 57, Type (0, 1), BuildingBlock: AJUNOK_clean_linker_0, # of connection points: 2
#     Edge 58, Type (0, 1), BuildingBlock: AJUNOK_clean_linker_0, # of connection points: 2
#     Edge 59, Type (0, 1), BuildingBlock: AJUNOK_clean_linker_0, # of connection points: 2
#     Edge 60, Type (0, 1), BuildingBlock: AJUNOK_clean_linker_0, # of connection points: 2
#     Edge 61, Type (0, 1), BuildingBlock: AJUNOK_clean_linker_0, # of connection points: 2
#     Edge 62, Type (0, 1), BuildingBlock: AJUNOK_clean_linker_0, # of connection points: 2
#     Edge 63, Type (0, 1), BuildingBlock: AJUNOK_clean_linker_0, # of connection points: 2
#     Edge 64, Type (0, 1), BuildingBlock: AJUNOK_clean_linker_0, # of connection points: 2
#     Edge 65, Type (0, 1), BuildingBlock: AJUNOK_clean_linker_0, # of connection points: 2
#     Edge 66, Type (0, 1), BuildingBlock: AJUNOK_clean_linker_0, # of connection points: 2
#     Edge 67, Type (0, 1), BuildingBlock: AJUNOK_clean_linker_0, # of connection points: 2
#     Edge 68, Type (0, 1), BuildingBlock: AJUNOK_clean_linker_0, # of connection points: 2
#     Edge 69, Type (0, 1), BuildingBlock: AJUNOK_clean_linker_0, # of connection points: 2
#     Edge 70, Type (0, 1), BuildingBlock: AJUNOK_clean_linker_0, # of connection points: 2
#     Edge 71, Type (0, 1), BuildingBlock: AJUNOK_clean_linker_0, # of connection points: 2
#     Edge 72, Type (0, 1), BuildingBlock: AJUNOK_clean_linker_0, # of connection points: 2
#     Edge 73, Type (0, 1), BuildingBlock: AJUNOK_clean_linker_0, # of connection points: 2
#     Edge 74, Type (0, 1), BuildingBlock: AJUNOK_clean_linker_0, # of connection points: 2
#     Edge 75, Type (0, 1), BuildingBlock: AJUNOK_clean_linker_0, # of connection points: 2
#     Edge 76, Type (0, 1), BuildingBlock: AJUNOK_clean_linker_0, # of connection points: 2
#     Edge 77, Type (0, 1), BuildingBlock: AJUNOK_clean_linker_0, # of connection points: 2
#     Edge 78, Type (0, 1), BuildingBlock: AJUNOK_clean_linker_0, # of connection points: 2
#     Edge 79, Type (0, 1), BuildingBlock: AJUNOK_clean_linker_0, # of connection points: 2
#     Edge 80, Type (0, 1), BuildingBlock: AJUNOK_clean_linker_0, # of connection points: 2
# Relax obj value: 0.100
# Max RMSD: 0.183
# Mean RMSD: 0.093
data_MOF--net-eea--node1-CIFDUS_clean_sbu_1--node2-ESEHIV_clean_linker_0--edge1-AJUNOK_clean_linker_0
_symmetry_space_group_name_H-M    P1
_symmetry_Int_Tables_number       1
_symmetry_cell_setting            triclinic
loop_
_symmetry_equiv_pos_as_xyz
'x, y, z'
_cell_length_a     36.99401
_cell_length_b     36.600472
_cell_length_c     37.67992
_cell_angle_alpha  89.770233
_cell_angle_beta   89.652288
_cell_angle_gamma 120.11258
loop_
_atom_site_label
_atom_site_type_symbol
_atom_site_fract_x
_atom_site_fract_y
_atom_site_fract_z
_atom_type_partial_charge
H0 H 0.23764 0.17375 0.46574 0.0
H1 H 0.25551 0.06888 0.44372 0.0
H2 H 0.18908 0.10256 0.36966 0.0
C3 C 0.23387 0.14895 0.44796 0.0
C4 C 0.21252 0.14285 0.41576 0.0
C5 C 0.2507 0.12337 0.45765 0.0
C6 C 0.24267 0.08873 0.4364 0.0
C7 C 0.21961 0.08045 0.40502 0.0
C8 C 0.20541 0.10809 0.39456 0.0
H9 H 0.82077 0.06638 0.45407 0.0
H10 H 0.92389 0.19144 0.43774 0.0
H11 H 0.89455 0.09661 0.35811 0.0
C12 C 0.84555 0.0891 0.43686 0.0
C13 C 0.85282 0.07672 0.40384 0.0
C14 C 0.87007 0.13039 0.4485 0.0
C15 C 0.90392 0.15972 0.4279 0.0
C16 C 0.9135 0.14718 0.39564 0.0
C17 C 0.88763 0.10583 0.38341 0.0
H18 H 0.80714 0.7345 0.4372 0.0
H19 H 0.9202 0.72942 0.44628 0.0
H20 H 0.8998 0.78617 0.35377 0.0
C21 C 0.83683 0.74063 0.42612 0.0
C22 C 0.85024 0.76057 0.39291 0.0
C23 C 0.86198 0.7296 0.44552 0.0
C24 C 0.90048 0.7378 0.43122 0.0
C25 C 0.91434 0.75843 0.39817 0.0
C26 C 0.88921 0.77007 0.37917 0.0
H27 H 0.0818 0.27377 0.56679 0.0
H28 H 0.19726 0.27297 0.56512 0.0
H29 H 0.10979 0.21212 0.65118 0.0
C30 C 0.10331 0.26596 0.57951 0.0
C31 C 0.09223 0.24353 0.61197 0.0
C32 C 0.14126 0.27653 0.56266 0.0
C33 C 0.16823 0.26535 0.57854 0.0
C34 C 0.1567 0.24145 0.60998 0.0
C35 C 0.11895 0.23101 0.62705 0.0
H36 H 0.73057 0.91978 0.566 0.0
H37 H 0.73449 0.80605 0.55699 0.0
H38 H 0.81884 0.90247 0.6277 0.0
C39 C 0.74577 0.90244 0.57368 0.0
C40 C 0.7775 0.91782 0.59919 0.0
C41 C 0.73359 0.86451 0.55623 0.0
C42 C 0.74646 0.83676 0.56904 0.0
C43 C 0.77466 0.84908 0.59749 0.0
C44 C 0.79312 0.8912 0.60938 0.0
H45 H 0.08196 0.8098 0.56206 0.0
H46 H 0.2018 0.92268 0.56646 0.0
H47 H 0.10868 0.89976 0.64549 0.0
C48 C 0.1033 0.83924 0.57491 0.0
C49 C 0.09078 0.85117 0.60618 0.0
C50 C 0.14297 0.86585 0.55971 0.0
C51 C 0.17059 0.90308 0.57712 0.0
C52 C 0.15781 0.91696 0.6065 0.0
C53 C 0.11836 0.89009 0.62183 0.0
H54 H 0.92628 0.51582 0.77484 0.0
H55 H 0.92402 0.39711 0.77672 0.0
H56 H 0.84794 0.41626 0.70276 0.0
C57 C 0.91385 0.48405 0.76489 0.0
C58 C 0.88646 0.47027 0.73569 0.0
C59 C 0.92571 0.4567 0.78096 0.0
C60 C 0.91213 0.41678 0.76651 0.0
C61 C 0.88542 0.40319 0.7376 0.0
C62 C 0.87018 0.42847 0.72423 0.0
H63 H 0.46914 0.41437 0.77485 0.0
H64 H 0.59231 0.52372 0.77879 0.0
H65 H 0.55981 0.43483 0.69392 0.0
C66 C 0.50019 0.43344 0.76363 0.0
C67 C 0.51158 0.41903 0.73368 0.0
C68 C 0.52925 0.47039 0.78086 0.0
C69 C 0.56914 0.49547 0.76547 0.0
C70 C 0.57987 0.48306 0.73361 0.0
C71 C 0.55096 0.44496 0.7178 0.0
H72 H 0.47251 0.06525 0.77072 0.0
H73 H 0.59129 0.07219 0.77994 0.0
H74 H 0.56289 0.121 0.68614 0.0
C75 C 0.50282 0.07368 0.75947 0.0
C76 C 0.51423 0.09259 0.72584 0.0
C77 C 0.53053 0.06666 0.77916 0.0
C78 C 0.56988 0.07797 0.76467 0.0
C79 C 0.58191 0.09744 0.73083 0.0
C80 C 0.55376 0.10477 0.71157 0.0
H81 H 0.75757 0.61408 0.89613 0.0
H82 H 0.86911 0.60716 0.9086 0.0
H83 H 0.76961 0.54655 0.98531 0.0
C84 C 0.77572 0.604 0.91151 0.0
C85 C 0.75836 0.57893 0.94238 0.0
C86 C 0.8155 0.61393 0.89907 0.0
C87 C 0.83891 0.60074 0.91864 0.0
C88 C 0.82272 0.57741 0.95013 0.0
C89 C 0.78261 0.5665 0.96197 0.0
H90 H 0.42328 0.26767 0.88865 0.0
H91 H 0.41265 0.14635 0.88196 0.0
H92 H 0.46099 0.21876 0.9766 0.0
C93 C 0.42729 0.24344 0.9014 0.0
C94 C 0.44586 0.25011 0.93504 0.0
C95 C 0.41266 0.20513 0.88371 0.0
C96 C 0.42103 0.17441 0.89733 0.0
C97 C 0.44114 0.18065 0.93004 0.0
C98 C 0.45042 0.21704 0.94973 0.0
H99 H 0.74954 0.14202 0.89427 0.0
H100 H 0.85518 0.26797 0.89487 0.0
H101 H 0.77593 0.21947 0.98708 0.0
C102 C 0.76866 0.17153 0.90792 0.0
C103 C 0.75711 0.17713 0.94233 0.0
C104 C 0.8045 0.20375 0.8908 0.0
C105 C 0.82819 0.24232 0.90805 0.0
C106 C 0.81811 0.24794 0.94265 0.0
C107 C 0.78292 0.21521 0.95996 0.0
H108 H 0.60959 0.85926 0.10284 0.0
H109 H 0.57627 0.72938 0.11722 0.0
H110 H 0.51617 0.7643 0.0377 0.0
C111 C 0.59001 0.82617 0.09687 0.0
C112 C 0.55893 0.81461 0.07141 0.0
C113 C 0.59368 0.79524 0.11632 0.0
C114 C 0.57197 0.75329 0.10423 0.0
C115 C 0.54524 0.74224 0.07485 0.0
C116 C 0.53783 0.77285 0.05952 0.0
H117 H 0.14744 0.7299 0.1158 0.0
H118 H 0.25589 0.85371 0.1143 0.0
H119 H 0.23317 0.76942 0.02738 0.0
C120 C 0.17624 0.75322 0.10322 0.0
C121 C 0.18804 0.74375 0.07064 0.0
C122 C 0.20024 0.79243 0.11942 0.0
C123 C 0.23659 0.82328 0.102 0.0
C124 C 0.24861 0.81505 0.06885 0.0
C125 C 0.22442 0.77515 0.05335 0.0
H126 H 0.14514 0.4098 0.10861 0.0
H127 H 0.25053 0.39166 0.10895 0.0
H128 H 0.22808 0.45032 0.01832 0.0
C129 C 0.17283 0.41318 0.09543 0.0
C130 C 0.18544 0.4338 0.06237 0.0
C131 C 0.1957 0.39726 0.11185 0.0
C132 C 0.23177 0.40211 0.09498 0.0
C133 C 0.24435 0.4213 0.06105 0.0
C134 C 0.22003 0.43618 0.04453 0.0
H135 H 0.41485 0.93642 0.23303 0.0
H136 H 0.53169 0.93851 0.23639 0.0
H137 H 0.44155 0.87844 0.3209 0.0
C138 C 0.4364 0.92948 0.24679 0.0
C139 C 0.42442 0.90765 0.2795 0.0
C140 C 0.47491 0.94035 0.23082 0.0
C141 C 0.50226 0.931 0.24891 0.0
C142 C 0.49041 0.90835 0.28128 0.0
C143 C 0.45174 0.89753 0.29689 0.0
H144 H 0.07106 0.59382 0.22303 0.0
H145 H 0.0757 0.47956 0.21398 0.0
H146 H 0.12619 0.55906 0.3064 0.0
C147 C 0.07971 0.57185 0.23406 0.0
C148 C 0.10121 0.58115 0.26593 0.0
C149 C 0.07008 0.53516 0.21573 0.0
C150 C 0.08212 0.50709 0.22935 0.0
C151 C 0.10342 0.51529 0.26201 0.0
C152 C 0.11206 0.55249 0.28044 0.0
H153 H 0.41548 0.47404 0.23594 0.0
H154 H 0.52505 0.59823 0.22992 0.0
H155 H 0.44054 0.56298 0.31877 0.0
C156 C 0.43474 0.50565 0.24604 0.0
C157 C 0.42277 0.51616 0.27805 0.0
C158 C 0.4707 0.5355 0.2273 0.0
C159 C 0.49664 0.57485 0.24315 0.0
C160 C 0.48678 0.58396 0.27673 0.0
C161 C 0.44911 0.55513 0.29354 0.0
O162 O 0.43634 0.95551 0.00792 0.0
Mn163 Mn 0.50018 -0.00151 0.00293 0.0
O164 O 0.41521 0.98439 0.05043 0.0
Mn165 Mn 0.46462 0.03571 0.05572 0.0
O166 O 0.56438 0.04074 0.9979 0.0
O167 O 0.51156 0.95079 0.99252 0.0
Mn168 Mn 0.5332 0.95988 0.94986 0.0
O169 O 0.49418 0.00999 0.94813 0.0
O170 O 0.58288 0.01099 0.95412 0.0
O171 O 0.50604 0.98729 0.05768 0.0
O172 O 0.502 0.03703 0.08817 0.0
O173 O 0.53185 0.91182 0.96393 0.0
O174 O 0.49421 0.95755 0.91923 0.0
C175 C 0.48176 0.0776 0.01228 0.0
C176 C 0.40817 0.95486 0.02861 0.0
C177 C 0.59168 0.04045 0.97656 0.0
C178 C 0.51861 0.91944 0.99332 0.0
C179 C 0.48949 0.98935 0.9192 0.0
C180 C 0.5095 0.00698 0.08695 0.0
O181 O 0.48835 0.04593 0.01354 0.0
O182 O 0.4666 0.08414 0.04104 0.0
O183 O 0.0552 0.4924 0.99817 0.0
Mn184 Mn 0.00553 0.50347 0.99647 0.0
O185 O 0.0372 0.45968 0.05043 0.0
Mn186 Mn 0.98129 0.44465 0.04672 0.0
O187 O 0.95518 0.51439 0.9953 0.0
O188 O 0.04752 0.56575 0.98768 0.0
Mn189 Mn 0.02888 0.5824 0.95206 0.0
O190 O 0.99876 0.4903 0.94149 0.0
O191 O 0.97867 0.57665 0.96696 0.0
O192 O 0.01585 0.52179 0.05068 0.0
O193 O 0.96188 0.47081 0.07581 0.0
O194 O 0.07708 0.62943 0.96365 0.0
O195 O 0.02774 0.5527 0.91302 0.0
C196 C 0.94122 0.39829 0.0154 0.0
C197 C 0.06356 0.4772 0.02539 0.0
C198 C 0.9506 0.54502 0.98417 0.0
C199 C 0.07746 0.60499 0.98842 0.0
C200 C 0.01087 0.51284 0.91278 0.0
C201 C 0.99243 0.50722 0.0782 0.0
O202 O 0.96164 0.43755 0.00247 0.0
O203 O 0.94854 0.39014 0.04722 0.0
O204 O 0.56571 0.51944 0.00358 0.0
Mn205 Mn 0.50178 0.50031 0.00439 0.0
O206 O 0.58161 0.55657 0.95426 0.0
Mn207 Mn 0.54111 0.5709 0.96046 0.0
O208 O 0.43745 0.47839 0.00657 0.0
O209 O 0.4909 0.4379 0.00806 0.0
Mn210 Mn 0.46841 0.42984 0.05129 0.0
O211 O 0.50538 0.51344 0.05924 0.0
O212 O 0.41754 0.42771 0.04789 0.0
O213 O 0.4973 0.49111 0.94785 0.0
O214 O 0.50376 0.55009 0.92507 0.0
O215 O 0.46607 0.38122 0.04548 0.0
O216 O 0.50423 0.46061 0.08677 0.0
C217 C 0.53665 0.6018 0.00443 0.0
C218 C 0.59019 0.53725 0.9772 0.0
C219 C 0.40916 0.44939 0.02647 0.0
C220 C 0.48235 0.39877 0.01514 0.0
C221 C 0.51071 0.49755 0.08757 0.0
C222 C 0.49475 0.51218 0.92108 0.0
O223 O 0.51057 0.56113 0.00027 0.0
O224 O 0.56485 0.62123 0.98002 0.0
O225 O 0.10463 0.28627 0.33777 0.0
Mn226 Mn 0.16694 0.33352 0.33678 0.0
O227 O 0.08051 0.30583 0.38406 0.0
Mn228 Mn 0.12325 0.36167 0.38603 0.0
O229 O 0.22986 0.38069 0.33464 0.0
O230 O 0.18232 0.28785 0.32971 0.0
Mn231 Mn 0.21618 0.30217 0.29302 0.0
O232 O 0.16275 0.34148 0.28113 0.0
O233 O 0.26309 0.35259 0.30487 0.0
O234 O 0.17194 0.32519 0.39215 0.0
O235 O 0.16159 0.37232 0.42057 0.0
O236 O 0.21079 0.25242 0.30829 0.0
O237 O 0.18782 0.30411 0.25418 0.0
C238 C 0.12649 0.39444 0.34023 0.0
C239 C 0.07582 0.27963 0.36007 0.0
C240 C 0.26307 0.38265 0.3218 0.0
C241 C 0.18833 0.25589 0.33309 0.0
C242 C 0.17012 0.32612 0.25291 0.0
C243 C 0.17335 0.34526 0.4207 0.0
O244 O 0.15256 0.38058 0.34574 0.0
O245 O 0.10538 0.39498 0.36765 0.0
O246 O 0.72057 0.82136 0.33413 0.0
Mn247 Mn 0.67222 0.83371 0.33493 0.0
O248 O 0.70555 0.79009 0.38686 0.0
Mn249 Mn 0.64993 0.77656 0.3852 0.0
O250 O 0.62366 0.84668 0.33423 0.0
O251 O 0.71422 0.89528 0.32578 0.0
Mn252 Mn 0.70099 0.90905 0.28547 0.0
O253 O 0.66158 0.81904 0.28016 0.0
O254 O 0.64688 0.89921 0.29333 0.0
O255 O 0.68469 0.85285 0.38907 0.0
O256 O 0.63105 0.80251 0.41504 0.0
O257 O 0.74613 0.95776 0.30033 0.0
O258 O 0.70867 0.87698 0.25224 0.0
C259 C 0.6094 0.72943 0.3548 0.0
C260 C 0.7298 0.8056 0.36023 0.0
C261 C 0.61885 0.87274 0.31472 0.0
C262 C 0.74368 0.93439 0.32713 0.0
C263 C 0.68093 0.83843 0.2515 0.0
C264 C 0.66137 0.83904 0.41678 0.0
O265 O 0.62856 0.76838 0.34153 0.0
O266 O 0.61745 0.72218 0.3866 0.0
O267 O 0.23067 0.84569 0.33663 0.0
Mn268 Mn 0.1692 0.8328 0.33807 0.0
O269 O 0.24909 0.88323 0.28698 0.0
Mn270 Mn 0.20642 0.89564 0.29074 0.0
O271 O 0.1071 0.8177 0.3419 0.0
O272 O 0.1494 0.76811 0.34104 0.0
Mn273 Mn 0.13221 0.76218 0.38558 0.0
O274 O 0.17527 0.84595 0.39336 0.0
O275 O 0.08675 0.77059 0.38684 0.0
O276 O 0.1622 0.81759 0.28301 0.0
O277 O 0.16506 0.87215 0.25811 0.0
O278 O 0.12141 0.71036 0.37663 0.0
O279 O 0.17538 0.79119 0.41588 0.0
C280 C 0.20637 0.93892 0.32306 0.0
C281 C 0.25656 0.86409 0.31127 0.0
C282 C 0.0797 0.79267 0.36466 0.0
C283 C 0.13628 0.72754 0.34587 0.0
C284 C 0.18179 0.82787 0.41978 0.0
C285 C 0.1565 0.8347 0.25552 0.0
O286 O 0.188 0.89878 0.33432 0.0
O287 O 0.22668 0.94975 0.29319 0.0
O288 O 0.77432 0.6131 0.67233 0.0
Mn289 Mn 0.83537 0.66492 0.67072 0.0
O290 O 0.75269 0.62695 0.72258 0.0
Mn291 Mn 0.78917 0.6844 0.72015 0.0
O292 O 0.89658 0.71848 0.66736 0.0
O293 O 0.85473 0.62001 0.66229 0.0
Mn294 Mn 0.89163 0.64987 0.62835 0.0
O295 O 0.82654 0.67231 0.61625 0.0
O296 O 0.93734 0.69499 0.64684 0.0
O297 O 0.84393 0.65848 0.72683 0.0
O298 O 0.82852 0.70249 0.75434 0.0
O299 O 0.89569 0.60454 0.62746 0.0
O300 O 0.87056 0.6581 0.58735 0.0
C301 C 0.78647 0.71844 0.67672 0.0
C302 C 0.74766 0.60216 0.69759 0.0
C303 C 0.93298 0.7242 0.65967 0.0
C304 C 0.86929 0.59452 0.6536 0.0
C305 C 0.84257 0.66811 0.58733 0.0
C306 C 0.84383 0.67844 0.75529 0.0
O307 O 0.81636 0.70905 0.67951 0.0
O308 O 0.76125 0.70861 0.70367 0.0
O309 O 0.37998 0.14976 0.67448 0.0
Mn310 Mn 0.33473 0.16692 0.67013 0.0
O311 O 0.3527 0.09825 0.71635 0.0
Mn312 Mn 0.3001 0.093 0.72067 0.0
O313 O 0.28994 0.18426 0.66539 0.0
O314 O 0.37965 0.22882 0.66198 0.0
Mn315 Mn 0.37026 0.2378 0.61796 0.0
O316 O 0.32553 0.15041 0.61571 0.0
O317 O 0.31603 0.2293 0.61863 0.0
O318 O 0.34285 0.18278 0.72451 0.0
O319 O 0.29289 0.12666 0.75193 0.0
O320 O 0.41397 0.28802 0.63077 0.0
O321 O 0.37978 0.20292 0.58969 0.0
C322 C 0.2596 0.0664 0.6784 0.0
C323 C 0.38187 0.12251 0.69477 0.0
C324 C 0.28714 0.20763 0.64141 0.0
C325 C 0.40896 0.26843 0.66068 0.0
C326 C 0.34778 0.16693 0.58769 0.0
C327 C 0.32175 0.16462 0.75279 0.0
O328 O 0.28959 0.1056 0.67853 0.0
O329 O 0.2546 0.04466 0.70706 0.0
O330 O 0.89715 0.17676 0.66823 0.0
Mn331 Mn 0.83567 0.16393 0.66893 0.0
O332 O 0.91603 0.2128 0.61712 0.0
Mn333 Mn 0.87288 0.22475 0.61737 0.0
O334 O 0.77401 0.15174 0.67042 0.0
O335 O 0.81503 0.10029 0.67768 0.0
Mn336 Mn 0.79268 0.09582 0.7204 0.0
O337 O 0.84101 0.18164 0.72285 0.0
O338 O 0.74889 0.1066 0.71676 0.0
O339 O 0.8302 0.14548 0.61514 0.0
O340 O 0.82881 0.19655 0.58788 0.0
O341 O 0.78242 0.04336 0.71309 0.0
O342 O 0.83308 0.12687 0.75299 0.0
C343 C 0.87384 0.26821 0.65005 0.0
C344 C 0.9237 0.19561 0.64313 0.0
C345 C 0.74523 0.12982 0.69342 0.0
C346 C 0.80184 0.06001 0.68343 0.0
C347 C 0.84408 0.1654 0.75201 0.0
C348 C 0.82323 0.1601 0.58677 0.0
O349 O 0.85716 0.22863 0.66123 0.0
O350 O 0.89017 0.27861 0.6185 0.0
C351 C 0.32093 0.84268 0.04408 0.0
C352 C 0.28678 0.84862 0.05095 0.0
C353 C 0.35996 0.87675 0.03353 0.0
C354 C 0.36575 0.9176 0.02961 0.0
H355 H 0.31818 0.81221 0.04907 0.0
H356 H 0.38633 0.87173 0.03105 0.0
S357 S 0.28418 0.94767 0.03753 0.0
N358 N 0.25982 0.89694 0.04812 0.0
N359 N 0.3329 0.96071 0.02822 0.0
C360 C 0.33091 0.92295 0.03336 0.0
C361 C 0.29146 0.88852 0.04411 0.0
C362 C 0.1431 0.44294 0.01496 0.0
C363 C 0.1629 0.45437 0.04812 0.0
C364 C 0.11366 0.45475 0.00538 0.0
C365 C 0.1034 0.47801 0.02884 0.0
H366 H 0.14797 0.4222 0.99765 0.0
H367 H 0.09626 0.44248 0.98109 0.0
S368 S 0.15166 0.5212 0.11587 0.0
N369 N 0.17479 0.4953 0.10181 0.0
N370 N 0.11859 0.51604 0.0844 0.0
C371 C 0.12576 0.49264 0.06047 0.0
C372 C 0.15583 0.48119 0.06996 0.0
C373 C 0.53332 0.70034 0.02024 0.0
C374 C 0.52943 0.7008 0.05727 0.0
C375 C 0.52971 0.66513 0.00321 0.0
C376 C 0.52391 0.62946 0.02248 0.0
H377 H 0.54269 0.72847 0.00435 0.0
H378 H 0.53544 0.6676 0.97481 0.0
S379 S 0.49528 0.60892 0.11779 0.0
N380 N 0.50617 0.6581 0.11121 0.0
N381 N 0.50255 0.59218 0.07912 0.0
C382 C 0.51377 0.62691 0.05869 0.0
C383 C 0.51615 0.66276 0.07612 0.0
C384 C 0.8682 0.28422 0.99104 0.0
C385 C 0.84704 0.28693 0.96147 0.0
C386 C 0.89908 0.32063 0.00729 0.0
C387 C 0.9098 0.36145 0.99501 0.0
H388 H 0.8616 0.25368 0.00113 0.0
H389 H 0.91479 0.31644 0.02977 0.0
S390 S 0.86076 0.38454 0.91926 0.0
N391 N 0.83735 0.33251 0.92057 0.0
N392 N 0.89481 0.40172 0.95202 0.0
C393 C 0.88827 0.36447 0.96558 0.0
C394 C 0.85698 0.32703 0.94867 0.0
C395 C 0.70216 0.56369 0.98803 0.0
C396 C 0.71386 0.56268 0.95244 0.0
C397 C 0.66056 0.5512 0.99731 0.0
C398 C 0.62954 0.5371 0.97125 0.0
H399 H 0.72564 0.57616 0.00853 0.0
H400 H 0.65334 0.55539 0.02437 0.0
S401 S 0.64225 0.52186 0.87556 0.0
N402 N 0.68956 0.54123 0.89207 0.0
N403 N 0.61205 0.51808 0.90942 0.0
C404 C 0.64027 0.53283 0.93623 0.0
C405 C 0.68228 0.54568 0.92678 0.0
C406 C 0.49439 0.16795 0.95932 0.0
C407 C 0.45475 0.15101 0.94355 0.0
C408 C 0.50635 0.14227 0.97737 0.0
C409 C 0.47955 0.09853 0.97987 0.0
H410 H 0.5156 0.20177 0.95941 0.0
H411 H 0.53522 0.1572 0.99219 0.0
S412 S 0.37512 0.03689 0.93909 0.0
N413 N 0.39042 0.08647 0.92853 0.0
N414 N 0.41371 0.03832 0.96203 0.0
C415 C 0.44163 0.08047 0.96136 0.0
C416 C 0.42901 0.10666 0.94325 0.0
C417 C 0.70679 0.10068 0.95434 0.0
C418 C 0.71765 0.14308 0.95882 0.0
C419 C 0.66671 0.06773 0.96272 0.0
C420 C 0.63566 0.07559 0.97617 0.0
H421 H 0.72889 0.09283 0.94277 0.0
H422 H 0.65951 0.03577 0.95706 0.0
S423 S 0.6504 0.1804 -0.00024 0.0
N424 N 0.69574 0.19092 0.98234 0.0
N425 N 0.6204 0.12848 0.99893 0.0
C426 C 0.64722 0.11745 0.98437 0.0
C427 C 0.68822 0.15132 0.97548 0.0
C428 C 0.87641 0.58502 0.99329 0.0
C429 C 0.84656 0.56059 0.96786 0.0
C430 C 0.90781 0.5761 0.00255 0.0
C431 C 0.90989 0.54246 0.98672 0.0
H432 H 0.87759 0.61315 0.00371 0.0
H433 H 0.93275 0.59789 0.01963 0.0
S434 S 0.83643 0.46738 0.92112 0.0
N435 N 0.81861 0.49983 0.92923 0.0
N436 N 0.87759 0.48282 0.94678 0.0
C437 C 0.87789 0.51562 0.96379 0.0
C438 C 0.84619 0.52488 0.9542 0.0
C439 C 0.43984 0.31506 0.94666 0.0
C440 C 0.45969 0.29134 0.95401 0.0
C441 C 0.45179 0.35371 0.96312 0.0
C442 C 0.48324 0.37007 0.9886 0.0
H443 H 0.41322 0.30312 0.92929 0.0
H444 H 0.43364 0.36898 0.95816 0.0
S445 S 0.54301 0.32075 0.02154 0.0
N446 N 0.51333 0.28885 0.99 0.0
N447 N 0.53202 0.35916 0.02304 0.0
C448 C 0.50305 0.34705 0.99697 0.0
C449 C 0.49207 0.30828 0.97942 0.0
C450 C 0.11626 0.68432 0.05736 0.0
C451 C 0.15993 0.7019 0.05429 0.0
C452 C 0.08861 0.64671 0.04064 0.0
C453 C 0.10327 0.62576 0.01906 0.0
H454 H 0.10296 0.70089 0.07095 0.0
H455 H 0.05555 0.63644 0.04149 0.0
S456 S 0.21355 0.65466 0.00509 0.0
N457 N 0.21609 0.69183 0.03146 0.0
N458 N 0.16337 0.62242 0.99757 0.0
C459 C 0.14637 0.64107 0.01733 0.0
C460 C 0.17487 0.67902 0.03524 0.0
C461 C 0.29455 0.3954 0.05056 0.0
C462 C 0.28374 0.42668 0.04456 0.0
C463 C 0.33435 0.40237 0.04234 0.0
C464 C 0.3653 0.44066 0.02705 0.0
H465 H 0.2726 0.36565 0.06311 0.0
H466 H 0.3413 0.37785 0.04945 0.0
S467 S 0.35029 0.52883 0.99736 0.0
N468 N 0.3056 0.49516 0.01687 0.0
N469 N 0.38008 0.50719 -3e-05 0.0
C470 C 0.3537 0.47036 0.01697 0.0
C471 C 0.31302 0.4636 0.02601 0.0
C472 C 0.57801 0.88715 0.04953 0.0
C473 C 0.54714 0.84558 0.05847 0.0
C474 C 0.56715 0.91488 0.03361 0.0
C475 C 0.52531 0.9017 0.02554 0.0
H476 H 0.61085 0.8975 0.05251 0.0
H477 H 0.59202 0.94511 0.02386 0.0
S478 S 0.43252 0.79981 0.04981 0.0
N479 N 0.47247 0.79571 0.06407 0.0
N480 N 0.45285 0.84728 0.03165 0.0
C481 C 0.49411 0.86207 0.03733 0.0
C482 C 0.50489 0.83402 0.05421 0.0
C483 C 0.98742 0.17049 0.37979 0.0
C484 C 0.95283 0.17652 0.37697 0.0
C485 C 0.02778 0.20288 0.37042 0.0
C486 C 0.03432 0.24189 0.35781 0.0
H487 H 0.98369 0.14186 0.39187 0.0
H488 H 0.05419 0.19863 0.3758 0.0
S489 S 0.95347 0.2709 0.34044 0.0
N490 N 0.92718 0.22247 0.35703 0.0
N491 N 0.00292 0.28309 0.33895 0.0
C492 C -0.00042 0.24682 0.35198 0.0
C493 C 0.95873 0.21415 0.36174 0.0
C494 C 0.8346 0.81614 0.37426 0.0
C495 C 0.82382 0.77343 0.37416 0.0
C496 C 0.80478 0.82775 0.36614 0.0
C497 C 0.76394 0.79681 0.35742 0.0
H498 H 0.86503 0.84009 0.38352 0.0
H499 H 0.81268 0.86033 0.36942 0.0
S500 S 0.72235 0.6819 0.34852 0.0
N501 N 0.77129 0.70103 0.36103 0.0
N502 N 0.71541 0.72297 0.34521 0.0
C503 C 0.75408 0.7547 0.3541 0.0
C504 C 0.7841 0.74289 0.36263 0.0
C505 C 0.19515 0.00308 0.39795 0.0
C506 C 0.2121 0.04369 0.38271 0.0
C507 C 0.1915 0.96857 0.37844 0.0
C508 C 0.20491 0.97352 0.34292 0.0
H509 H 0.18468 -0.00181 0.42531 0.0
H510 H 0.1787 0.93807 0.39131 0.0
S511 S 0.24491 0.07225 0.28876 0.0
N512 N 0.23824 0.08587 0.32889 0.0
N513 N 0.23033 0.02175 0.29181 0.0
C514 C 0.21912 0.0136 0.32667 0.0
C515 C 0.223 0.04849 0.34661 0.0
C516 C 0.53426 0.66236 0.28227 0.0
C517 C 0.51784 0.62127 0.29618 0.0
C518 C 0.56425 0.69759 0.30108 0.0
C519 C 0.5788 0.69254 0.33414 0.0
H520 H 0.52353 0.66723 0.25696 0.0
H521 H 0.5758 0.72882 0.2898 0.0
S522 S 0.5483 0.5901 0.37941 0.0
N523 N 0.51993 0.57695 0.34315 0.0
N524 N 0.57641 0.64209 0.3783 0.0
C525 C 0.56332 0.65107 0.3475 0.0
C526 C 0.53275 0.6157 0.32858 0.0
C527 C 0.34819 0.86453 0.26914 0.0
C528 C 0.38088 0.89011 0.29216 0.0
C529 C 0.30683 0.85239 0.27752 0.0
C530 C 0.29667 0.86513 0.30931 0.0
H531 H 0.3549 0.85551 0.24366 0.0
H532 H 0.2829 0.83509 0.25799 0.0
S533 S 0.37014 0.92876 0.38013 0.0
N534 N 0.40015 0.92504 0.34934 0.0
N535 N 0.32179 0.90187 0.36522 0.0
C536 C 0.32851 0.88801 0.33383 0.0
C537 C 0.37089 0.90062 0.3252 0.0
C538 C 0.08845 0.44055 0.27226 0.0
C539 C 0.11518 0.48442 0.27697 0.0
C540 C 0.09595 0.41068 0.28905 0.0
C541 C 0.13052 0.42319 0.3112 0.0
H542 H 0.05983 0.42882 0.2574 0.0
H543 H 0.07253 0.37752 0.28714 0.0
S544 S 0.21174 0.53303 0.33131 0.0
N545 N 0.18014 0.53823 0.30365 0.0
N546 N 0.19234 0.4817 0.33647 0.0
C547 C 0.15866 0.46651 0.31481 0.0
C548 C 0.1514 0.49715 0.29754 0.0
C549 C 0.3459 0.47444 0.27227 0.0
C550 C 0.3812 0.48721 0.29354 0.0
C551 C 0.30639 0.44345 0.28402 0.0
C552 C 0.30089 0.42378 0.31722 0.0
H553 H 0.34913 0.48736 0.24575 0.0
H554 H 0.2804 0.43254 0.26588 0.0
S555 S 0.38252 0.44896 0.38447 0.0
N556 N 0.40781 0.48093 0.35074 0.0
N557 N 0.33302 0.42116 0.37249 0.0
C558 C 0.33535 0.43786 0.33973 0.0
C559 C 0.37575 0.4701 0.32794 0.0
C560 C 0.52785 0.86916 0.27056 0.0
C561 C 0.51586 0.89041 0.2947 0.0
C562 C 0.558 0.8586 0.27938 0.0
C563 C 0.57777 0.86945 0.31236 0.0
H564 H 0.51529 0.86247 0.24394 0.0
H565 H 0.56781 0.84413 0.25943 0.0
S566 S 0.54962 0.91416 0.38838 0.0
N567 N 0.51961 0.91364 0.35576 0.0
N568 N 0.57776 0.89453 0.37186 0.0
C569 C 0.56272 0.88592 0.33831 0.0
C570 C 0.53132 0.8963 0.32953 0.0
C571 C 0.07893 0.62679 0.29643 0.0
C572 C 0.11143 0.62105 0.28369 0.0
C573 C 0.08754 0.66444 0.31293 0.0
C574 C 0.12888 0.69782 0.31701 0.0
H575 H 0.04675 0.6015 0.29459 0.0
H576 H 0.06176 0.66647 0.32463 0.0
S577 S 0.2241 0.7013 0.28194 0.0
N578 N 0.18585 0.6536 0.27163 0.0
N579 N 0.20203 0.72464 0.30317 0.0
C580 C 0.16136 0.69361 0.30216 0.0
C581 C 0.15262 0.65504 0.28544 0.0
C582 C 0.83847 0.00997 0.37338 0.0
C583 C 0.82341 0.03353 0.39103 0.0
C584 C 0.81091 0.97162 0.3571 0.0
C585 C 0.76757 0.95542 0.35857 0.0
H586 H 0.87176 0.02229 0.37045 0.0
H587 H 0.82371 0.95677 0.34038 0.0
S588 S 0.71163 0.00164 0.40461 0.0
N589 N 0.76159 0.03592 0.41068 0.0
N590 N 0.71044 0.9624 0.38226 0.0
C591 C 0.75198 0.97603 0.37941 0.0
C592 C 0.77976 0.01571 0.39488 0.0
C593 C 0.96338 0.73578 0.37624 0.0
C594 C 0.95558 0.76861 0.38405 0.0
C595 C 0.00355 0.74449 0.36694 0.0
C596 C 0.03723 0.78626 0.3653 0.0
H597 H 0.93855 0.70316 0.37853 0.0
H598 H 0.00877 0.71821 0.36264 0.0
S599 S 0.03237 0.88329 0.38192 0.0
N600 N 0.98383 0.84438 0.38803 0.0
N601 N 0.05989 0.86078 0.37069 0.0
C602 C 0.02944 0.81948 0.37119 0.0
C603 C 0.98837 0.81059 0.38064 0.0
C604 C 0.16289 0.15923 0.38285 0.0
C605 C 0.19951 0.1736 0.40309 0.0
C606 C 0.15463 0.18747 0.36412 0.0
C607 C 0.1819 0.23125 0.3657 0.0
H608 H 0.14171 0.12573 0.37945 0.0
H609 H 0.12902 0.17477 0.3455 0.0
S610 S 0.27835 0.2866 0.41864 0.0
N611 N 0.26126 0.23598 0.42586 0.0
N612 N 0.24359 0.28827 0.39249 0.0
C613 C 0.21557 0.24636 0.38916 0.0
C614 C 0.22504 0.2178 0.40731 0.0
C615 C 0.63232 0.53289 0.6889 0.0
C616 C 0.62302 0.50724 0.71935 0.0
C617 C 0.67406 0.56029 0.67834 0.0
C618 C 0.70744 0.56234 0.69774 0.0
H619 H 0.60743 0.53368 0.67457 0.0
H620 H 0.68027 0.58257 0.65691 0.0
S621 S 0.69867 0.49709 0.77621 0.0
N622 N 0.64982 0.48218 0.76626 0.0
N623 N 0.72798 0.53332 0.74635 0.0
C624 C 0.69805 0.53421 0.72631 0.0
C625 C 0.65587 0.50678 0.7372 0.0
C626 C 0.44688 0.07037 0.69632 0.0
C627 C 0.48552 0.10311 0.70803 0.0
C628 C 0.41409 0.07784 0.68931 0.0
C629 C 0.41912 0.11822 0.6938 0.0
H630 H 0.44117 0.03833 0.69499 0.0
H631 H 0.38388 0.05141 0.68233 0.0
S632 S 0.51456 0.21406 0.72359 0.0
N633 N 0.52767 0.17711 0.72288 0.0
N634 N 0.46579 0.19139 0.70967 0.0
C635 C 0.45835 0.15169 0.70346 0.0
C636 C 0.49173 0.14402 0.7106 0.0
C637 C 0.8613 0.32641 0.72843 0.0
C638 C 0.88186 0.36831 0.71592 0.0
C639 C 0.85868 0.29374 0.70713 0.0
C640 C 0.8769 0.30235 0.67296 0.0
H641 H 0.84697 0.31893 0.75459 0.0
H642 H 0.84223 0.2617 0.71741 0.0
S643 S 0.93892 0.40879 0.63063 0.0
N644 N 0.92377 0.41757 0.6693 0.0
N645 N 0.91922 0.35724 0.62912 0.0
C646 C 0.89886 0.34479 0.66096 0.0
C647 C 0.90128 0.37753 0.68252 0.0
C648 C 0.22886 0.97726 0.6207 0.0
C649 C 0.18534 0.96071 0.61915 0.0
C650 C 0.25537 0.01781 0.63352 0.0
C651 C 0.2392 0.04254 0.64673 0.0
H652 H 0.24247 0.95798 0.61391 0.0
H653 H 0.28801 0.02758 0.63742 0.0
S654 S 0.12946 0.01797 0.64231 0.0
N655 N 0.12861 0.97585 0.62572 0.0
N656 N 0.17858 0.05088 0.65291 0.0
C657 C 0.19664 0.02824 0.6424 0.0
C658 C 0.16958 0.98736 0.62832 0.0
C659 C 0.01997 0.18731 0.62923 0.0
C660 C 0.05104 0.23033 0.62819 0.0
C661 C 0.97829 0.17491 0.63781 0.0
C662 C 0.96709 0.2053 0.64607 0.0
H663 H 0.02736 0.16348 0.62095 0.0
H664 H 0.95444 0.14198 0.6354 0.0
S665 S 0.0378 0.321 0.65199 0.0
N666 N 0.06852 0.30259 0.63953 0.0
N667 N 0.9906 0.27928 0.65647 0.0
C668 C 0.99854 0.24788 0.64801 0.0
C669 C 0.04052 0.26048 0.63881 0.0
C670 C 0.78623 0.78587 0.59929 0.0
C671 C 0.78257 0.81792 0.61699 0.0
C672 C 0.79051 0.75485 0.61832 0.0
C673 C 0.79175 0.7552 0.65561 0.0
H674 H 0.78494 0.78417 0.57061 0.0
H675 H 0.79086 0.72948 0.60393 0.0
S676 S 0.7834 0.8316 0.71488 0.0
N677 N 0.77899 0.84625 0.6745 0.0
N678 N 0.79083 0.7912 0.70942 0.0
C679 C 0.78984 0.78798 0.6734 0.0
C680 C 0.78421 0.8184 0.65437 0.0
C681 C 0.04312 0.8136 0.65815 0.0
C682 C 0.04828 0.82415 0.62169 0.0
C683 C 0.00368 0.78452 0.67247 0.0
C684 C 0.96803 0.76631 0.65101 0.0
H685 H 0.07012 0.82579 0.67522 0.0
H686 H 0.00158 0.77394 0.69969 0.0
S687 S 0.96403 0.78523 0.55479 0.0
N688 N 0.01372 0.81551 0.56509 0.0
N689 N 0.93991 0.762 0.59223 0.0
C690 C 0.9724 0.77893 0.61524 0.0
C691 C 0.01244 0.80743 0.60046 0.0
C692 C 0.20401 0.23692 0.65463 0.0
C693 C 0.18294 0.22431 0.62212 0.0
C694 C 0.23627 0.22858 0.66235 0.0
C695 C 0.24798 0.20769 0.63762 0.0
H696 H 0.19742 0.25561 0.67297 0.0
H697 H 0.25387 0.24089 0.68654 0.0
S698 S 0.19856 0.16351 0.55124 0.0
N699 N 0.1726 0.18575 0.56721 0.0
N700 N 0.23384 0.1711 0.58139 0.0
C701 C 0.22518 0.19244 0.60633 0.0
C702 C 0.19232 0.20043 0.59869 0.0
C703 C 0.80596 0.96513 0.65247 0.0
C704 C 0.79194 0.95967 0.6171 0.0
C705 C 0.81341 0.00049 0.67209 0.0
C706 C 0.80584 0.03158 0.65803 0.0
H707 H 0.80884 0.94088 0.66643 0.0
H708 H 0.82236 0.00192 0.69962 0.0
S709 S 0.77098 0.03482 0.56674 0.0
N710 N 0.77664 0.99293 0.56743 0.0
N711 N 0.78338 0.05511 0.6069 0.0
C712 C 0.79331 0.02789 0.6226 0.0
C713 C 0.78806 0.99298 0.60163 0.0
C714 C 0.44016 0.36007 0.71792 0.0
C715 C 0.4833 0.37541 0.72114 0.0
C716 C 0.41365 0.32013 0.70365 0.0
C717 C 0.42945 0.29452 0.6916 0.0
H718 H 0.42715 0.37997 0.72442 0.0
H719 H 0.38149 0.31125 0.69844 0.0
S720 S 0.53818 0.31676 0.70014 0.0
N721 N 0.53904 0.35873 0.71695 0.0
N722 N 0.4895 0.2849 0.68769 0.0
C723 C 0.47156 0.30783 0.6976 0.0
C724 C 0.49848 0.34811 0.71277 0.0
C725 C 0.65893 0.13571 0.73931 0.0
C726 C 0.62479 0.11238 0.71696 0.0
C727 C 0.6993 0.146 0.72908 0.0
C728 C 0.70717 0.13292 0.69637 0.0
H729 H 0.65422 0.14484 0.76549 0.0
H730 H 0.72421 0.16221 0.74792 0.0
S731 S 0.62994 0.07728 0.62569 0.0
N732 N 0.60227 0.08129 0.65849 0.0
N733 N 0.67872 0.10018 0.63969 0.0
C734 C 0.67414 0.11286 0.6724 0.0
C735 C 0.63274 0.10261 0.68266 0.0
C736 C 0.87163 0.53077 0.73163 0.0
C737 C 0.87743 0.49968 0.71483 0.0
C738 C 0.86505 0.5596 0.71177 0.0
C739 C 0.86232 0.55739 0.67469 0.0
H740 H 0.87375 0.53388 0.7602 0.0
H741 H 0.86571 0.58593 0.72504 0.0
S742 S 0.87867 0.4847 0.61715 0.0
N743 N 0.88458 0.47222 0.65791 0.0
N744 N 0.86624 0.52183 0.62166 0.0
C745 C 0.86657 0.52556 0.65764 0.0
C746 C 0.87572 0.49802 0.6774 0.0
C747 C 0.52324 0.99214 0.18454 0.0
C748 C 0.4846 0.9563 0.19348 0.0
C749 C 0.53291 0.00709 0.14927 0.0
C750 C 0.50502 0.98572 0.12149 0.0
H751 H 0.5456 0.00946 0.20513 0.0
H752 H 0.56181 0.03622 0.14383 0.0
S753 S 0.3997 0.8909 0.13064 0.0
N754 N 0.41815 0.90026 0.17143 0.0
N755 N 0.43692 0.92768 0.10542 0.0
C756 C 0.46676 0.94946 0.13001 0.0
C757 C 0.4564 0.93493 0.16589 0.0
C758 C 0.00791 0.49888 0.17651 0.0
C759 C 0.05021 0.52885 0.18086 0.0
C760 C 0.98837 0.49494 0.14385 0.0
C761 C 0.0107 0.52026 0.11417 0.0
H762 H 0.98988 0.47848 0.19844 0.0
H763 H 0.95592 0.47049 0.1415 0.0
S764 S 0.12166 0.60638 0.11431 0.0
N765 N 0.11304 0.5866 0.15491 0.0
N766 N 0.07714 0.57857 0.09309 0.0
C767 C 0.05271 0.55162 0.11912 0.0
C768 C 0.07229 0.55587 0.15249 0.0
C769 C 0.52297 0.54194 0.18043 0.0
C770 C 0.48091 0.52607 0.1912 0.0
C771 C 0.53325 0.53431 0.1463 0.0
C772 C 0.50181 0.5105 0.12187 0.0
H773 H 0.54824 0.55977 0.19866 0.0
H774 H 0.56575 0.5464 0.13925 0.0
S775 S 0.38737 0.46002 0.13603 0.0
N776 N 0.40783 0.48504 0.17337 0.0
N777 N 0.42758 0.46954 0.11059 0.0
C778 C 0.45998 0.49403 0.13222 0.0
C779 C 0.44937 0.50199 0.16652 0.0
C780 C 0.93839 0.44204 0.84287 0.0
C781 C 0.9522 0.46886 0.81287 0.0
C782 C 0.96081 0.45394 0.8746 0.0
C783 C 0.99741 0.49325 0.87749 0.0
H784 H 0.90897 0.41249 0.84229 0.0
H785 H 0.94792 0.43368 0.8976 0.0
S786 S 0.05293 0.5691 0.80365 0.0
N787 N 0.00902 0.53226 0.78584 0.0
N788 N 0.05152 0.55453 0.8454 0.0
C789 C 0.01418 0.51786 0.84637 0.0
C790 C 0.99123 0.50594 0.81416 0.0
C791 C 0.52831 0.52159 0.82452 0.0
C792 C 0.51849 0.48027 0.81629 0.0
C793 C 0.51802 0.531 0.85778 0.0
C794 C 0.49774 0.4995 0.88431 0.0
H795 H 0.54413 0.54685 0.8052 0.0
H796 H 0.52757 0.56368 0.86302 0.0
S797 S 0.46445 0.38631 0.87557 0.0
N798 N 0.4876 0.40767 0.83743 0.0
N799 N 0.46673 0.42526 0.89921 0.0
C800 C 0.48692 0.45803 0.87604 0.0
C801 C 0.49776 0.44848 0.84233 0.0
C802 C 0.50418 0.00456 0.81961 0.0
C803 C 0.5177 0.04743 0.81488 0.0
C804 C 0.49124 0.98534 0.85304 0.0
C805 C 0.4923 0.00848 0.88347 0.0
H806 H 0.5039 0.98579 0.79732 0.0
H807 H 0.48216 0.9523 0.8552 0.0
S808 S 0.52185 0.12153 0.88353 0.0
N809 N 0.52796 0.11201 0.84176 0.0
N810 N 0.50564 0.07659 0.90527 0.0
C811 C 0.5041 0.0512 0.87849 0.0
C812 C 0.5165 0.07053 0.84409 0.0
C813 C 0.18049 0.33641 0.51996 0.0
C814 C 0.15078 0.29378 0.52623 0.0
C815 C 0.19044 0.35263 0.48519 0.0
C816 C 0.17202 0.32637 0.45568 0.0
H817 H 0.19528 0.35744 0.54207 0.0
H818 H 0.2116 0.38618 0.48134 0.0
S819 S 0.09409 0.2118 0.45857 0.0
N820 N 0.10416 0.22532 0.50068 0.0
N821 N 0.12365 0.25529 0.43534 0.0
C822 C 0.14374 0.28322 0.46183 0.0
C823 C 0.13287 0.26705 0.49714 0.0
C824 C 0.67103 0.83523 0.51647 0.0
C825 C 0.71435 0.8591 0.52107 0.0
C826 C 0.65357 0.83244 0.48288 0.0
C827 C 0.67891 0.85319 0.45279 0.0
H828 H 0.6507 0.81836 0.53875 0.0
H829 H 0.62011 0.81216 0.48014 0.0
S830 S 0.794 0.92423 0.45325 0.0
N831 N 0.78179 0.90724 0.49462 0.0
N832 N 0.74945 0.90185 0.4315 0.0
C833 C 0.72208 0.87934 0.45799 0.0
C834 C 0.73966 0.88208 0.49209 0.0
C835 C 0.14648 0.81626 0.51582 0.0
C836 C 0.15514 0.8571 0.52441 0.0
C837 C 0.15774 0.80783 0.48263 0.0
C838 C 0.17808 0.83989 0.45656 0.0
H839 H 0.13076 0.79056 0.53477 0.0
H840 H 0.14889 0.7754 0.47702 0.0
S841 S 0.21234 0.95293 0.46758 0.0
N842 N 0.18671 0.93035 0.50454 0.0
N843 N 0.21056 0.91462 0.44334 0.0
C844 C 0.18868 0.88109 0.46545 0.0
C845 C 0.17646 0.88962 0.49896 0.0
C846 C 0.63675 0.78421 0.16322 0.0
C847 C 0.61685 0.80625 0.15072 0.0
C848 C 0.65659 0.79321 0.19649 0.0
C849 C 0.65835 0.82546 0.21766 0.0
H850 H 0.63739 0.76006 0.14722 0.0
H851 H 0.6714 0.77568 0.20522 0.0
S852 S 0.61382 0.89422 0.19759 0.0
N853 N 0.59918 0.86073 0.1645 0.0
N854 N 0.64173 0.88139 0.22314 0.0
C855 C 0.64003 0.84848 0.20509 0.0
C856 C 0.61804 0.83804 0.17263 0.0
C857 C 0.1893 0.84073 0.15938 0.0
C858 C 0.18619 0.80131 0.15388 0.0
C859 C 0.17633 0.84993 0.19139 0.0
C860 C 0.15978 0.82016 0.21951 0.0
H861 H 0.20204 0.8649 0.13886 0.0
H862 H 0.18116 0.88148 0.1945 0.0
S863 S 0.14017 0.71056 0.21707 0.0
N864 N 0.16313 0.73136 0.17874 0.0
N865 N 0.13666 0.74816 0.23808 0.0
C866 C 0.15425 0.77987 0.21364 0.0
C867 C 0.16808 0.77064 0.18117 0.0
C868 C 0.17813 0.39758 0.17644 0.0
C869 C 0.1824 0.37624 0.14709 0.0
C870 C 0.17003 0.37959 0.21074 0.0
C871 C 0.16553 0.33949 0.21664 0.0
H872 H 0.18326 0.42926 0.17315 0.0
H873 H 0.17012 0.39836 0.23293 0.0
S874 S 0.16608 0.26785 0.14699 0.0
N875 N 0.17635 0.31126 0.12519 0.0
N876 N 0.15986 0.27666 0.18891 0.0
C877 C 0.16602 0.3165 0.18671 0.0
C878 C 0.17495 0.33512 0.15216 0.0
C879 C 0.84509 0.67472 0.85582 0.0
C880 C 0.82953 0.63172 0.86293 0.0
C881 C 0.85398 0.69045 0.82079 0.0
C882 C 0.84685 0.6636 0.79153 0.0
H883 H 0.84913 0.69601 0.87729 0.0
H884 H 0.86416 0.72351 0.81642 0.0
S885 S 0.8076 0.54838 0.79741 0.0
N886 N 0.80981 0.56301 0.83905 0.0
N887 N 0.82363 0.59162 0.77324 0.0
C888 C 0.83274 0.62075 0.79888 0.0
C889 C 0.82464 0.60505 0.83456 0.0
C890 C 0.40314 0.22491 0.82217 0.0
C891 C 0.38741 0.19708 0.85141 0.0
C892 C 0.37991 0.21674 0.79095 0.0
C893 C 0.33991 0.18075 0.78823 0.0
H894 H 0.4343 0.25223 0.82294 0.0
H895 H 0.39441 0.2374 0.76824 0.0
S896 S 0.28184 0.10286 0.86056 0.0
N897 N 0.32797 0.13535 0.87762 0.0
N898 N 0.28313 0.12088 0.8201 0.0
C899 C 0.32238 0.15509 0.81885 0.0
C900 C 0.34654 0.16281 0.85005 0.0
C901 C 0.78596 0.17705 0.8288 0.0
C902 C 0.81677 0.1973 0.8547 0.0
C903 C 0.79621 0.16924 0.79506 0.0
C904 C 0.8376 0.1819 0.78545 0.0
H905 H 0.75349 0.1666 0.8347 0.0
H906 H 0.77121 0.15134 0.77673 0.0
S907 S 0.93005 0.23503 0.84329 0.0
N908 N 0.89073 0.22885 0.86861 0.0
N909 N 0.90973 0.21508 0.80426 0.0
C910 C 0.86896 0.20256 0.81066 0.0
C911 C 0.85859 0.21019 0.84544 0.0
C912 C 0.27125 0.10277 0.51485 0.0
C913 C 0.27799 0.13393 0.48937 0.0
C914 C 0.29514 0.11301 0.54601 0.0
C915 C 0.3273 0.1546 0.55241 0.0
H916 H 0.24632 0.07051 0.51128 0.0
H917 H 0.28772 0.08842 0.56559 0.0
S918 S 0.35914 0.24745 0.49259 0.0
N919 N 0.32051 0.20761 0.47171 0.0
N920 N 0.36528 0.22706 0.52958 0.0
C921 C 0.33537 0.18572 0.52624 0.0
C922 C 0.31077 0.17536 0.49496 0.0
C923 C 0.83621 0.15935 0.48739 0.0
C924 C 0.86091 0.1405 0.48378 0.0
C925 C 0.82144 0.16265 0.52083 0.0
C926 C 0.83111 0.1474 0.55171 0.0
H927 H 0.8277 0.17088 0.46419 0.0
H928 H 0.80314 0.17823 0.52268 0.0
S929 S 0.89551 0.09562 0.5551 0.0
N930 N 0.89394 0.1057 0.51258 0.0
N931 N 0.86841 0.1138 0.57586 0.0
C932 C 0.85617 0.12867 0.54806 0.0
C933 C 0.87056 0.12482 0.51397 0.0
C934 C 0.85484 0.73834 0.51037 0.0
C935 C 0.84899 0.71166 0.48157 0.0
C936 C 0.84728 0.72271 0.54537 0.0
C937 C 0.83365 0.67997 0.55247 0.0
H938 H 0.86749 0.77186 0.5059 0.0
H939 H 0.85567 0.74487 0.567 0.0
S940 S 0.80821 0.59651 0.48569 0.0
N941 N 0.8246 0.64011 0.46188 0.0
N942 N 0.81061 0.61062 0.52761 0.0
C943 C 0.82482 0.65259 0.52359 0.0
C944 C 0.83255 0.66849 0.48809 0.0
loop_
_geom_bond_atom_site_label_1
_geom_bond_atom_site_label_2
_geom_bond_distance
_geom_bond_site_symmetry_2
_ccdc_geom_bond_type
H0 C3 0.931 . S
H1 C6 0.928 . S
H2 C8 0.930 . S
C3 H0 0.931 . S
C3 C4 1.413 . S
C3 C5 1.360 . S
C4 C3 1.413 . S
C4 C8 1.429 . S
C5 C3 1.360 . S
C5 C6 1.372 . S
C6 H1 0.928 . S
C6 C5 1.372 . S
C6 C7 1.404 . S
C7 C6 1.404 . S
C7 C8 1.391 . S
C8 H2 0.930 . S
C8 C4 1.429 . S
C8 C7 1.391 . S
H9 C12 0.931 . S
H10 C15 0.928 . S
H11 C17 0.930 . S
C12 H9 0.931 . S
C12 C13 1.413 . S
C12 C14 1.360 . S
C13 C12 1.413 . S
C13 C17 1.429 . S
C14 C12 1.360 . S
C14 C15 1.372 . S
C15 H10 0.928 . S
C15 C14 1.372 . S
C15 C16 1.404 . S
C16 C15 1.404 . S
C16 C17 1.391 . S
C17 H11 0.930 . S
C17 C13 1.429 . S
C17 C16 1.391 . S
H18 C21 0.931 . S
H19 C24 0.928 . S
H20 C26 0.930 . S
C21 H18 0.931 . S
C21 C22 1.413 . S
C21 C23 1.360 . S
C22 C21 1.413 . S
C22 C26 1.429 . S
C23 C21 1.360 . S
C23 C24 1.372 . S
C24 H19 0.928 . S
C24 C23 1.372 . S
C24 C25 1.404 . S
C25 C24 1.404 . S
C25 C26 1.391 . S
C26 H20 0.930 . S
C26 C22 1.429 . S
C26 C25 1.391 . S
H27 C30 0.931 . S
H28 C33 0.928 . S
H29 C35 0.930 . S
C30 H27 0.931 . S
C30 C31 1.413 . S
C30 C32 1.360 . S
C31 C30 1.413 . S
C31 C35 1.429 . S
C32 C30 1.360 . S
C32 C33 1.372 . S
C33 H28 0.928 . S
C33 C32 1.372 . S
C33 C34 1.404 . S
C34 C33 1.404 . S
C34 C35 1.391 . S
C35 H29 0.930 . S
C35 C31 1.429 . S
C35 C34 1.391 . S
H36 C39 0.931 . S
H37 C42 0.928 . S
H38 C44 0.930 . S
C39 H36 0.931 . S
C39 C40 1.413 . S
C39 C41 1.360 . S
C40 C39 1.413 . S
C40 C44 1.429 . S
C41 C39 1.360 . S
C41 C42 1.372 . S
C42 H37 0.928 . S
C42 C41 1.372 . S
C42 C43 1.404 . S
C43 C42 1.404 . S
C43 C44 1.391 . S
C44 H38 0.930 . S
C44 C40 1.429 . S
C44 C43 1.391 . S
H45 C48 0.931 . S
H46 C51 0.928 . S
H47 C53 0.930 . S
C48 H45 0.931 . S
C48 C49 1.413 . S
C48 C50 1.360 . S
C49 C48 1.413 . S
C49 C53 1.429 . S
C50 C48 1.360 . S
C50 C51 1.372 . S
C51 H46 0.928 . S
C51 C50 1.372 . S
C51 C52 1.404 . S
C52 C51 1.404 . S
C52 C53 1.391 . S
C53 H47 0.930 . S
C53 C49 1.429 . S
C53 C52 1.391 . S
H54 C57 0.931 . S
H55 C60 0.928 . S
H56 C62 0.930 . S
C57 H54 0.931 . S
C57 C58 1.413 . S
C57 C59 1.360 . S
C58 C57 1.413 . S
C58 C62 1.429 . S
C59 C57 1.360 . S
C59 C60 1.372 . S
C60 H55 0.928 . S
C60 C59 1.372 . S
C60 C61 1.404 . S
C61 C60 1.404 . S
C61 C62 1.391 . S
C62 H56 0.930 . S
C62 C58 1.429 . S
C62 C61 1.391 . S
H63 C66 0.931 . S
H64 C69 0.928 . S
H65 C71 0.930 . S
C66 H63 0.931 . S
C66 C67 1.413 . S
C66 C68 1.360 . S
C67 C66 1.413 . S
C67 C71 1.429 . S
C68 C66 1.360 . S
C68 C69 1.372 . S
C69 H64 0.928 . S
C69 C68 1.372 . S
C69 C70 1.404 . S
C70 C69 1.404 . S
C70 C71 1.391 . S
C71 H65 0.930 . S
C71 C67 1.429 . S
C71 C70 1.391 . S
H72 C75 0.931 . S
H73 C78 0.928 . S
H74 C80 0.930 . S
C75 H72 0.931 . S
C75 C76 1.413 . S
C75 C77 1.360 . S
C76 C75 1.413 . S
C76 C80 1.429 . S
C77 C75 1.360 . S
C77 C78 1.372 . S
C78 H73 0.928 . S
C78 C77 1.372 . S
C78 C79 1.404 . S
C79 C78 1.404 . S
C79 C80 1.391 . S
C80 H74 0.930 . S
C80 C76 1.429 . S
C80 C79 1.391 . S
H81 C84 0.931 . S
H82 C87 0.928 . S
H83 C89 0.930 . S
C84 H81 0.931 . S
C84 C85 1.413 . S
C84 C86 1.360 . S
C85 C84 1.413 . S
C85 C89 1.429 . S
C86 C84 1.360 . S
C86 C87 1.372 . S
C87 H82 0.928 . S
C87 C86 1.372 . S
C87 C88 1.404 . S
C88 C87 1.404 . S
C88 C89 1.391 . S
C89 H83 0.930 . S
C89 C85 1.429 . S
C89 C88 1.391 . S
H90 C93 0.931 . S
H91 C96 0.928 . S
H92 C98 0.930 . S
C93 H90 0.931 . S
C93 C94 1.413 . S
C93 C95 1.360 . S
C94 C93 1.413 . S
C94 C98 1.429 . S
C95 C93 1.360 . S
C95 C96 1.372 . S
C96 H91 0.928 . S
C96 C95 1.372 . S
C96 C97 1.404 . S
C97 C96 1.404 . S
C97 C98 1.391 . S
C98 H92 0.930 . S
C98 C94 1.429 . S
C98 C97 1.391 . S
H99 C102 0.931 . S
H100 C105 0.928 . S
H101 C107 0.930 . S
C102 H99 0.931 . S
C102 C103 1.413 . S
C102 C104 1.360 . S
C103 C102 1.413 . S
C103 C107 1.429 . S
C104 C102 1.360 . S
C104 C105 1.372 . S
C105 H100 0.928 . S
C105 C104 1.372 . S
C105 C106 1.404 . S
C106 C105 1.404 . S
C106 C107 1.391 . S
C107 H101 0.930 . S
C107 C103 1.429 . S
C107 C106 1.391 . S
H108 C111 0.931 . S
H109 C114 0.928 . S
H110 C116 0.930 . S
C111 H108 0.931 . S
C111 C112 1.413 . S
C111 C113 1.360 . S
C112 C111 1.413 . S
C112 C116 1.429 . S
C113 C111 1.360 . S
C113 C114 1.372 . S
C114 H109 0.928 . S
C114 C113 1.372 . S
C114 C115 1.404 . S
C115 C114 1.404 . S
C115 C116 1.391 . S
C116 H110 0.930 . S
C116 C112 1.429 . S
C116 C115 1.391 . S
H117 C120 0.931 . S
H118 C123 0.928 . S
H119 C125 0.930 . S
C120 H117 0.931 . S
C120 C121 1.413 . S
C120 C122 1.360 . S
C121 C120 1.413 . S
C121 C125 1.429 . S
C122 C120 1.360 . S
C122 C123 1.372 . S
C123 H118 0.928 . S
C123 C122 1.372 . S
C123 C124 1.404 . S
C124 C123 1.404 . S
C124 C125 1.391 . S
C125 H119 0.930 . S
C125 C121 1.429 . S
C125 C124 1.391 . S
H126 C129 0.931 . S
H127 C132 0.928 . S
H128 C134 0.930 . S
C129 H126 0.931 . S
C129 C130 1.413 . S
C129 C131 1.360 . S
C130 C129 1.413 . S
C130 C134 1.429 . S
C131 C129 1.360 . S
C131 C132 1.372 . S
C132 H127 0.928 . S
C132 C131 1.372 . S
C132 C133 1.404 . S
C133 C132 1.404 . S
C133 C134 1.391 . S
C134 H128 0.930 . S
C134 C130 1.429 . S
C134 C133 1.391 . S
H135 C138 0.931 . S
H136 C141 0.928 . S
H137 C143 0.930 . S
C138 H135 0.931 . S
C138 C139 1.413 . S
C138 C140 1.360 . S
C139 C138 1.413 . S
C139 C143 1.429 . S
C140 C138 1.360 . S
C140 C141 1.372 . S
C141 H136 0.928 . S
C141 C140 1.372 . S
C141 C142 1.404 . S
C142 C141 1.404 . S
C142 C143 1.391 . S
C143 H137 0.930 . S
C143 C139 1.429 . S
C143 C142 1.391 . S
H144 C147 0.931 . S
H145 C150 0.928 . S
H146 C152 0.930 . S
C147 H144 0.931 . S
C147 C148 1.413 . S
C147 C149 1.360 . S
C148 C147 1.413 . S
C148 C152 1.429 . S
C149 C147 1.360 . S
C149 C150 1.372 . S
C150 H145 0.928 . S
C150 C149 1.372 . S
C150 C151 1.404 . S
C151 C150 1.404 . S
C151 C152 1.391 . S
C152 H146 0.930 . S
C152 C148 1.429 . S
C152 C151 1.391 . S
H153 C156 0.931 . S
H154 C159 0.928 . S
H155 C161 0.930 . S
C156 H153 0.931 . S
C156 C157 1.413 . S
C156 C158 1.360 . S
C157 C156 1.413 . S
C157 C161 1.429 . S
C158 C156 1.360 . S
C158 C159 1.372 . S
C159 H154 0.928 . S
C159 C158 1.372 . S
C159 C160 1.404 . S
C160 C159 1.404 . S
C160 C161 1.391 . S
C161 H155 0.930 . S
C161 C157 1.429 . S
C161 C160 1.391 . S
O162 Mn163 2.163 1_565 S
O162 C176 1.244 . S
Mn163 O162 2.163 1_545 S
Mn163 O166 2.160 . S
Mn163 O167 2.221 1_545 S
Mn163 O169 2.163 1_554 S
Mn163 O171 2.160 . S
Mn163 O181 2.221 . S
O164 Mn165 2.087 1_565 S
O164 C176 1.256 . S
Mn165 O164 2.087 1_545 S
Mn165 O172 2.089 . S
Mn165 O181 2.290 . S
Mn165 O182 2.251 . S
O166 Mn163 2.160 . S
O166 C177 1.239 1_554 S
O167 Mn163 2.221 1_565 S
O167 Mn168 2.290 1_554 S
O167 C178 1.278 1_554 S
Mn168 O167 2.290 1_556 S
Mn168 O170 2.089 1_565 S
Mn168 O173 2.251 . S
Mn168 O174 2.087 . S
O169 Mn163 2.163 1_556 S
O169 C179 1.244 . S
O170 Mn168 2.089 1_545 S
O170 C177 1.256 . S
O171 Mn163 2.160 . S
O171 C180 1.239 . S
O172 Mn165 2.089 . S
O172 C180 1.256 . S
O173 Mn168 2.251 . S
O173 C178 1.241 . S
O174 Mn168 2.087 . S
O174 C179 1.256 1_565 S
C175 O181 1.278 1_556 S
C175 O182 1.241 1_556 S
C176 O162 1.244 . S
C176 O164 1.256 . S
C177 O166 1.239 1_556 S
C177 O170 1.256 . S
C178 O167 1.278 1_556 S
C178 O173 1.241 . S
C179 O169 1.244 . S
C179 O174 1.256 1_545 S
C180 O171 1.239 . S
C180 O172 1.256 . S
O181 Mn163 2.221 . S
O181 Mn165 2.290 . S
O181 C175 1.278 1_554 S
O182 Mn165 2.251 . S
O182 C175 1.241 1_554 S
O183 Mn184 2.142 1_455 S
O183 C197 1.244 . S
Mn184 O183 2.142 1_655 S
Mn184 O187 2.181 . S
Mn184 O188 2.219 1_655 S
Mn184 O190 2.163 1_554 S
Mn184 O192 2.161 . S
Mn184 O202 2.225 . S
O185 Mn186 2.087 1_455 S
O185 C197 1.256 . S
Mn186 O185 2.087 1_655 S
Mn186 O193 2.089 1_655 S
Mn186 O202 2.290 . S
Mn186 O203 2.251 . S
O187 Mn184 2.181 . S
O187 C198 1.239 1_554 S
O188 Mn184 2.219 1_455 S
O188 Mn189 2.290 1_554 S
O188 C199 1.273 1_554 S
Mn189 O188 2.290 1_556 S
Mn189 O191 2.089 1_455 S
Mn189 O194 2.251 . S
Mn189 O195 2.087 . S
O190 Mn184 2.163 1_556 S
O190 C200 1.244 1_655 S
O191 Mn189 2.089 1_655 S
O191 C198 1.256 . S
O192 Mn184 2.161 . S
O192 C201 1.239 1_655 S
O193 Mn186 2.089 1_455 S
O193 C201 1.256 . S
O194 Mn189 2.251 . S
O194 C199 1.262 . S
O195 Mn189 2.087 . S
O195 C200 1.256 . S
C196 O202 1.278 1_556 S
C196 O203 1.241 1_556 S
C197 O183 1.244 . S
C197 O185 1.256 . S
C198 O187 1.239 1_556 S
C198 O191 1.256 . S
C199 O188 1.273 1_556 S
C199 O194 1.262 . S
C200 O190 1.244 1_455 S
C200 O195 1.256 . S
C201 O192 1.239 1_455 S
C201 O193 1.256 . S
O202 Mn184 2.225 . S
O202 Mn186 2.290 . S
O202 C196 1.278 1_554 S
O203 Mn186 2.251 . S
O203 C196 1.241 1_554 S
O204 Mn205 2.165 . S
O204 C218 1.244 . S
Mn205 O204 2.165 . S
Mn205 O208 2.158 1_556 S
Mn205 O209 2.219 1_556 S
Mn205 O211 2.134 1_556 S
Mn205 O213 2.189 . S
Mn205 O223 2.225 . S
O206 Mn207 2.087 . S
O206 C218 1.256 . S
Mn207 O206 2.087 . S
Mn207 O214 2.089 . S
Mn207 O223 2.290 . S
Mn207 O224 2.226 1_556 S
O208 Mn205 2.158 1_554 S
O208 C219 1.251 . S
O209 Mn205 2.219 1_554 S
O209 Mn210 2.290 . S
O209 C220 1.278 . S
Mn210 O209 2.290 . S
Mn210 O212 2.089 . S
Mn210 O215 2.251 . S
Mn210 O216 2.087 . S
O211 Mn205 2.134 1_554 S
O211 C221 1.244 . S
O212 Mn210 2.089 . S
O212 C219 1.256 . S
O213 Mn205 2.189 . S
O213 C222 1.239 . S
O214 Mn207 2.089 . S
O214 C222 1.256 . S
O215 Mn210 2.251 . S
O215 C220 1.241 . S
O216 Mn210 2.087 . S
O216 C221 1.256 . S
C217 O223 1.278 1_554 S
C217 O224 1.249 . S
C218 O204 1.244 . S
C218 O206 1.256 . S
C219 O208 1.251 . S
C219 O212 1.256 . S
C220 O209 1.278 . S
C220 O215 1.241 . S
C221 O211 1.244 . S
C221 O216 1.256 . S
C222 O213 1.239 . S
C222 O214 1.256 . S
O223 Mn205 2.225 . S
O223 Mn207 2.290 . S
O223 C217 1.278 1_556 S
O224 Mn207 2.226 1_554 S
O224 C217 1.249 . S
O225 Mn226 2.163 . S
O225 C239 1.244 . S
Mn226 O225 2.163 . S
Mn226 O229 2.160 . S
Mn226 O230 2.221 . S
Mn226 O232 2.163 . S
Mn226 O234 2.160 . S
Mn226 O244 2.221 . S
O227 Mn228 2.087 . S
O227 C239 1.256 . S
Mn228 O227 2.087 . S
Mn228 O235 2.089 . S
Mn228 O244 2.290 . S
Mn228 O245 2.251 . S
O229 Mn226 2.160 . S
O229 C240 1.239 . S
O230 Mn226 2.221 . S
O230 Mn231 2.290 . S
O230 C241 1.278 . S
Mn231 O230 2.290 . S
Mn231 O233 2.089 . S
Mn231 O236 2.251 . S
Mn231 O237 2.087 . S
O232 Mn226 2.163 . S
O232 C242 1.244 . S
O233 Mn231 2.089 . S
O233 C240 1.256 . S
O234 Mn226 2.160 . S
O234 C243 1.239 . S
O235 Mn228 2.089 . S
O235 C243 1.256 . S
O236 Mn231 2.251 . S
O236 C241 1.241 . S
O237 Mn231 2.087 . S
O237 C242 1.256 . S
C238 O244 1.278 . S
C238 O245 1.241 . S
C239 O225 1.244 . S
C239 O227 1.256 . S
C240 O229 1.239 . S
C240 O233 1.256 . S
C241 O230 1.278 . S
C241 O236 1.241 . S
C242 O232 1.244 . S
C242 O237 1.256 . S
C243 O234 1.239 . S
C243 O235 1.256 . S
O244 Mn226 2.221 . S
O244 Mn228 2.290 . S
O244 C238 1.278 . S
O245 Mn228 2.251 . S
O245 C238 1.241 . S
O246 Mn247 2.163 . S
O246 C260 1.244 . S
Mn247 O246 2.163 . S
Mn247 O250 2.160 . S
Mn247 O251 2.221 . S
Mn247 O253 2.163 . S
Mn247 O255 2.160 . S
Mn247 O265 2.221 . S
O248 Mn249 2.087 . S
O248 C260 1.256 . S
Mn249 O248 2.087 . S
Mn249 O256 2.089 . S
Mn249 O265 2.290 . S
Mn249 O266 2.251 . S
O250 Mn247 2.160 . S
O250 C261 1.239 . S
O251 Mn247 2.221 . S
O251 Mn252 2.290 . S
O251 C262 1.278 . S
Mn252 O251 2.290 . S
Mn252 O254 2.089 . S
Mn252 O257 2.251 . S
Mn252 O258 2.087 . S
O253 Mn247 2.163 . S
O253 C263 1.244 . S
O254 Mn252 2.089 . S
O254 C261 1.256 . S
O255 Mn247 2.160 . S
O255 C264 1.239 . S
O256 Mn249 2.089 . S
O256 C264 1.256 . S
O257 Mn252 2.251 . S
O257 C262 1.241 . S
O258 Mn252 2.087 . S
O258 C263 1.256 . S
C259 O265 1.278 . S
C259 O266 1.241 . S
C260 O246 1.244 . S
C260 O248 1.256 . S
C261 O250 1.239 . S
C261 O254 1.256 . S
C262 O251 1.278 . S
C262 O257 1.241 . S
C263 O253 1.244 . S
C263 O258 1.256 . S
C264 O255 1.239 . S
C264 O256 1.256 . S
O265 Mn247 2.221 . S
O265 Mn249 2.290 . S
O265 C259 1.278 . S
O266 Mn249 2.251 . S
O266 C259 1.241 . S
O267 Mn268 2.163 . S
O267 C281 1.244 . S
Mn268 O267 2.163 . S
Mn268 O271 2.160 . S
Mn268 O272 2.221 . S
Mn268 O274 2.163 . S
Mn268 O276 2.160 . S
Mn268 O286 2.221 . S
O269 Mn270 2.087 . S
O269 C281 1.256 . S
Mn270 O269 2.087 . S
Mn270 O277 2.089 . S
Mn270 O286 2.290 . S
Mn270 O287 2.251 . S
O271 Mn268 2.160 . S
O271 C282 1.239 . S
O272 Mn268 2.221 . S
O272 Mn273 2.290 . S
O272 C283 1.278 . S
Mn273 O272 2.290 . S
Mn273 O275 2.089 . S
Mn273 O278 2.251 . S
Mn273 O279 2.087 . S
O274 Mn268 2.163 . S
O274 C284 1.244 . S
O275 Mn273 2.089 . S
O275 C282 1.256 . S
O276 Mn268 2.160 . S
O276 C285 1.239 . S
O277 Mn270 2.089 . S
O277 C285 1.256 . S
O278 Mn273 2.251 . S
O278 C283 1.241 . S
O279 Mn273 2.087 . S
O279 C284 1.256 . S
C280 O286 1.278 . S
C280 O287 1.241 . S
C281 O267 1.244 . S
C281 O269 1.256 . S
C282 O271 1.239 . S
C282 O275 1.256 . S
C283 O272 1.278 . S
C283 O278 1.241 . S
C284 O274 1.244 . S
C284 O279 1.256 . S
C285 O276 1.239 . S
C285 O277 1.256 . S
O286 Mn268 2.221 . S
O286 Mn270 2.290 . S
O286 C280 1.278 . S
O287 Mn270 2.251 . S
O287 C280 1.241 . S
O288 Mn289 2.163 . S
O288 C302 1.244 . S
Mn289 O288 2.163 . S
Mn289 O292 2.160 . S
Mn289 O293 2.221 . S
Mn289 O295 2.163 . S
Mn289 O297 2.160 . S
Mn289 O307 2.221 . S
O290 Mn291 2.087 . S
O290 C302 1.256 . S
Mn291 O290 2.087 . S
Mn291 O298 2.089 . S
Mn291 O307 2.290 . S
Mn291 O308 2.251 . S
O292 Mn289 2.160 . S
O292 C303 1.239 . S
O293 Mn289 2.221 . S
O293 Mn294 2.290 . S
O293 C304 1.278 . S
Mn294 O293 2.290 . S
Mn294 O296 2.089 . S
Mn294 O299 2.251 . S
Mn294 O300 2.087 . S
O295 Mn289 2.163 . S
O295 C305 1.244 . S
O296 Mn294 2.089 . S
O296 C303 1.256 . S
O297 Mn289 2.160 . S
O297 C306 1.239 . S
O298 Mn291 2.089 . S
O298 C306 1.256 . S
O299 Mn294 2.251 . S
O299 C304 1.241 . S
O300 Mn294 2.087 . S
O300 C305 1.256 . S
C301 O307 1.278 . S
C301 O308 1.241 . S
C302 O288 1.244 . S
C302 O290 1.256 . S
C303 O292 1.239 . S
C303 O296 1.256 . S
C304 O293 1.278 . S
C304 O299 1.241 . S
C305 O295 1.244 . S
C305 O300 1.256 . S
C306 O297 1.239 . S
C306 O298 1.256 . S
O307 Mn289 2.221 . S
O307 Mn291 2.290 . S
O307 C301 1.278 . S
O308 Mn291 2.251 . S
O308 C301 1.241 . S
O309 Mn310 2.163 . S
O309 C323 1.244 . S
Mn310 O309 2.163 . S
Mn310 O313 2.160 . S
Mn310 O314 2.221 . S
Mn310 O316 2.163 . S
Mn310 O318 2.160 . S
Mn310 O328 2.221 . S
O311 Mn312 2.087 . S
O311 C323 1.256 . S
Mn312 O311 2.087 . S
Mn312 O319 2.089 . S
Mn312 O328 2.290 . S
Mn312 O329 2.251 . S
O313 Mn310 2.160 . S
O313 C324 1.239 . S
O314 Mn310 2.221 . S
O314 Mn315 2.290 . S
O314 C325 1.278 . S
Mn315 O314 2.290 . S
Mn315 O317 2.089 . S
Mn315 O320 2.251 . S
Mn315 O321 2.087 . S
O316 Mn310 2.163 . S
O316 C326 1.244 . S
O317 Mn315 2.089 . S
O317 C324 1.256 . S
O318 Mn310 2.160 . S
O318 C327 1.239 . S
O319 Mn312 2.089 . S
O319 C327 1.256 . S
O320 Mn315 2.251 . S
O320 C325 1.241 . S
O321 Mn315 2.087 . S
O321 C326 1.256 . S
C322 O328 1.278 . S
C322 O329 1.241 . S
C323 O309 1.244 . S
C323 O311 1.256 . S
C324 O313 1.239 . S
C324 O317 1.256 . S
C325 O314 1.278 . S
C325 O320 1.241 . S
C326 O316 1.244 . S
C326 O321 1.256 . S
C327 O318 1.239 . S
C327 O319 1.256 . S
O328 Mn310 2.221 . S
O328 Mn312 2.290 . S
O328 C322 1.278 . S
O329 Mn312 2.251 . S
O329 C322 1.241 . S
O330 Mn331 2.163 . S
O330 C344 1.244 . S
Mn331 O330 2.163 . S
Mn331 O334 2.160 . S
Mn331 O335 2.221 . S
Mn331 O337 2.163 . S
Mn331 O339 2.160 . S
Mn331 O349 2.221 . S
O332 Mn333 2.087 . S
O332 C344 1.256 . S
Mn333 O332 2.087 . S
Mn333 O340 2.089 . S
Mn333 O349 2.290 . S
Mn333 O350 2.251 . S
O334 Mn331 2.160 . S
O334 C345 1.239 . S
O335 Mn331 2.221 . S
O335 Mn336 2.290 . S
O335 C346 1.278 . S
Mn336 O335 2.290 . S
Mn336 O338 2.089 . S
Mn336 O341 2.251 . S
Mn336 O342 2.087 . S
O337 Mn331 2.163 . S
O337 C347 1.244 . S
O338 Mn336 2.089 . S
O338 C345 1.256 . S
O339 Mn331 2.160 . S
O339 C348 1.239 . S
O340 Mn333 2.089 . S
O340 C348 1.256 . S
O341 Mn336 2.251 . S
O341 C346 1.241 . S
O342 Mn336 2.087 . S
O342 C347 1.256 . S
C343 O349 1.278 . S
C343 O350 1.241 . S
C344 O330 1.244 . S
C344 O332 1.256 . S
C345 O334 1.239 . S
C345 O338 1.256 . S
C346 O335 1.278 . S
C346 O341 1.241 . S
C347 O337 1.244 . S
C347 O342 1.256 . S
C348 O339 1.239 . S
C348 O340 1.256 . S
O349 Mn331 2.221 . S
O349 Mn333 2.290 . S
O349 C343 1.278 . S
O350 Mn333 2.251 . S
O350 C343 1.241 . S
C351 C352 1.369 . S
C351 C353 1.419 . S
C351 H355 0.930 . S
C352 C351 1.369 . S
C352 C361 1.429 . S
C353 C351 1.419 . S
C353 C354 1.363 . S
C353 H356 0.929 . S
C354 C353 1.363 . S
C354 C360 1.428 . S
H355 C351 0.930 . S
H356 C353 0.929 . S
S357 N358 1.613 . S
S357 N359 1.610 . S
N358 S357 1.613 . S
N358 C361 1.350 . S
N359 S357 1.610 . S
N359 C360 1.351 . S
C360 C354 1.428 . S
C360 N359 1.351 . S
C360 C361 1.434 . S
C361 C352 1.429 . S
C361 N358 1.350 . S
C361 C360 1.434 . S
C362 C363 1.369 . S
C362 C364 1.419 . S
C362 H366 0.930 1_554 S
C363 C362 1.369 . S
C363 C372 1.429 . S
C364 C362 1.419 . S
C364 C365 1.363 . S
C364 H367 0.929 1_554 S
C365 C364 1.363 . S
C365 C371 1.428 . S
H366 C362 0.930 1_556 S
H367 C364 0.929 1_556 S
S368 N369 1.613 . S
S368 N370 1.610 . S
N369 S368 1.613 . S
N369 C372 1.350 . S
N370 S368 1.610 . S
N370 C371 1.351 . S
C371 C365 1.428 . S
C371 N370 1.351 . S
C371 C372 1.434 . S
C372 C363 1.429 . S
C372 N369 1.350 . S
C372 C371 1.434 . S
C373 C374 1.369 . S
C373 C375 1.419 . S
C373 H377 0.930 . S
C374 C373 1.369 . S
C374 C383 1.429 . S
C375 C373 1.419 . S
C375 C376 1.363 . S
C375 H378 0.929 1_554 S
C376 C375 1.363 . S
C376 C382 1.428 . S
H377 C373 0.930 . S
H378 C375 0.929 1_556 S
S379 N380 1.613 . S
S379 N381 1.610 . S
N380 S379 1.613 . S
N380 C383 1.350 . S
N381 S379 1.610 . S
N381 C382 1.351 . S
C382 C376 1.428 . S
C382 N381 1.351 . S
C382 C383 1.434 . S
C383 C374 1.429 . S
C383 N380 1.350 . S
C383 C382 1.434 . S
C384 C385 1.369 . S
C384 C386 1.425 . S
C384 H388 0.930 1_556 S
C385 C384 1.369 . S
C385 C394 1.429 . S
C386 C384 1.425 . S
C386 C387 1.381 . S
C386 H389 0.905 1_556 S
C387 C386 1.381 . S
C387 C393 1.428 . S
H388 C384 0.930 1_554 S
H389 C386 0.905 1_554 S
S390 N391 1.613 . S
S390 N392 1.610 . S
N391 S390 1.613 . S
N391 C394 1.350 . S
N392 S390 1.610 . S
N392 C393 1.351 . S
C393 C387 1.428 . S
C393 N392 1.351 . S
C393 C394 1.434 . S
C394 C385 1.429 . S
C394 N391 1.350 . S
C394 C393 1.434 . S
C395 C396 1.369 . S
C395 C397 1.419 1_556 S
C395 H399 0.930 1_556 S
C396 C395 1.369 . S
C396 C405 1.429 . S
C397 C395 1.419 1_554 S
C397 C398 1.363 1_554 S
C397 H400 0.929 . S
C398 C397 1.363 1_556 S
C398 C404 1.428 . S
H399 C395 0.930 1_554 S
H400 C397 0.929 . S
S401 N402 1.613 . S
S401 N403 1.610 . S
N402 S401 1.613 . S
N402 C405 1.350 . S
N403 S401 1.610 . S
N403 C404 1.351 . S
C404 C398 1.428 . S
C404 N403 1.351 . S
C404 C405 1.434 . S
C405 C396 1.429 . S
C405 N402 1.350 . S
C405 C404 1.434 . S
C406 C407 1.369 . S
C406 C408 1.419 . S
C406 H410 0.930 1_556 S
C407 C406 1.369 . S
C407 C416 1.429 . S
C408 C406 1.419 . S
C408 C409 1.363 . S
C408 H411 0.929 1_556 S
C409 C408 1.363 . S
C409 C415 1.428 . S
H410 C406 0.930 1_554 S
H411 C408 0.929 1_554 S
S412 N413 1.613 . S
S412 N414 1.610 . S
N413 S412 1.613 . S
N413 C416 1.350 . S
N414 S412 1.610 . S
N414 C415 1.351 . S
C415 C409 1.428 . S
C415 N414 1.351 . S
C415 C416 1.434 . S
C416 C407 1.429 . S
C416 N413 1.350 . S
C416 C415 1.434 . S
C417 C418 1.369 . S
C417 C419 1.419 . S
C417 H421 0.930 . S
C418 C417 1.369 . S
C418 C427 1.429 . S
C419 C417 1.419 . S
C419 C420 1.363 . S
C419 H422 0.929 . S
C420 C419 1.363 . S
C420 C426 1.428 . S
H421 C417 0.930 . S
H422 C419 0.929 . S
S423 N424 1.613 . S
S423 N425 1.610 . S
N424 S423 1.613 . S
N424 C427 1.350 1_554 S
N425 S423 1.610 . S
N425 C426 1.351 1_554 S
C426 C420 1.428 . S
C426 N425 1.351 1_556 S
C426 C427 1.434 . S
C427 C418 1.429 . S
C427 N424 1.350 1_556 S
C427 C426 1.434 . S
C428 C429 1.369 . S
C428 C430 1.419 1_556 S
C428 H432 0.930 1_556 S
C429 C428 1.369 . S
C429 C438 1.429 . S
C430 C428 1.419 1_554 S
C430 C431 1.363 1_554 S
C430 H433 0.929 . S
C431 C430 1.363 1_556 S
C431 C437 1.428 . S
H432 C428 0.930 1_554 S
H433 C430 0.929 . S
S434 N435 1.613 . S
S434 N436 1.610 . S
N435 S434 1.613 . S
N435 C438 1.350 . S
N436 S434 1.610 . S
N436 C437 1.351 . S
C437 C431 1.428 . S
C437 N436 1.351 . S
C437 C438 1.434 . S
C438 C429 1.429 . S
C438 N435 1.350 . S
C438 C437 1.434 . S
C439 C440 1.369 . S
C439 C441 1.419 . S
C439 H443 0.930 . S
C440 C439 1.369 . S
C440 C449 1.429 1_556 S
C441 C439 1.419 . S
C441 C442 1.363 . S
C441 H444 0.929 . S
C442 C441 1.363 . S
C442 C448 1.428 1_556 S
H443 C439 0.930 . S
H444 C441 0.929 . S
S445 N446 1.613 . S
S445 N447 1.610 . S
N446 S445 1.613 . S
N446 C449 1.350 . S
N447 S445 1.610 . S
N447 C448 1.351 . S
C448 C442 1.428 1_554 S
C448 N447 1.351 . S
C448 C449 1.434 . S
C449 C440 1.429 1_554 S
C449 N446 1.350 . S
C449 C448 1.434 . S
C450 C451 1.369 . S
C450 C452 1.419 . S
C450 H454 0.930 . S
C451 C450 1.369 . S
C451 C460 1.429 . S
C452 C450 1.419 . S
C452 C453 1.363 . S
C452 H455 0.929 . S
C453 C452 1.363 . S
C453 C459 1.428 . S
H454 C450 0.930 . S
H455 C452 0.929 . S
S456 N457 1.613 1_556 S
S456 N458 1.610 . S
N457 S456 1.613 1_554 S
N457 C460 1.350 . S
N458 S456 1.610 . S
N458 C459 1.351 1_556 S
C459 C453 1.428 . S
C459 N458 1.351 1_554 S
C459 C460 1.434 . S
C460 C451 1.429 . S
C460 N457 1.350 . S
C460 C459 1.434 . S
C461 C462 1.369 . S
C461 C463 1.419 . S
C461 H465 0.930 . S
C462 C461 1.369 . S
C462 C471 1.429 . S
C463 C461 1.419 . S
C463 C464 1.363 . S
C463 H466 0.929 . S
C464 C463 1.363 . S
C464 C470 1.428 . S
H465 C461 0.930 . S
H466 C463 0.929 . S
S467 N468 1.613 . S
S467 N469 1.610 . S
N468 S467 1.613 . S
N468 C471 1.350 1_556 S
N469 S467 1.610 . S
N469 C470 1.351 1_556 S
C470 C464 1.428 . S
C470 N469 1.351 1_554 S
C470 C471 1.434 . S
C471 C462 1.429 . S
C471 N468 1.350 1_554 S
C471 C470 1.434 . S
C472 C473 1.369 . S
C472 C474 1.419 . S
C472 H476 0.930 . S
C473 C472 1.369 . S
C473 C482 1.429 . S
C474 C472 1.419 . S
C474 C475 1.363 . S
C474 H477 0.929 . S
C475 C474 1.363 . S
C475 C481 1.428 . S
H476 C472 0.930 . S
H477 C474 0.929 . S
S478 N479 1.613 . S
S478 N480 1.610 . S
N479 S478 1.613 . S
N479 C482 1.350 . S
N480 S478 1.610 . S
N480 C481 1.351 . S
C481 C475 1.428 . S
C481 N480 1.351 . S
C481 C482 1.434 . S
C482 C473 1.429 . S
C482 N479 1.350 . S
C482 C481 1.434 . S
C483 C484 1.369 . S
C483 C485 1.419 1_655 S
C483 H487 0.930 . S
C484 C483 1.369 . S
C484 C493 1.429 . S
C485 C483 1.419 1_455 S
C485 C486 1.363 . S
C485 H488 0.929 . S
C486 C485 1.363 . S
C486 C492 1.428 . S
H487 C483 0.930 . S
H488 C485 0.929 . S
S489 N490 1.613 . S
S489 N491 1.610 1_655 S
N490 S489 1.613 . S
N490 C493 1.350 . S
N491 S489 1.610 1_455 S
N491 C492 1.351 . S
C492 C486 1.428 . S
C492 N491 1.351 . S
C492 C493 1.434 1_455 S
C493 C484 1.429 . S
C493 N490 1.350 . S
C493 C492 1.434 1_655 S
C494 C495 1.369 . S
C494 C496 1.419 . S
C494 H498 0.930 . S
C495 C494 1.369 . S
C495 C504 1.429 . S
C496 C494 1.419 . S
C496 C497 1.363 . S
C496 H499 0.929 . S
C497 C496 1.363 . S
C497 C503 1.428 . S
H498 C494 0.930 . S
H499 C496 0.929 . S
S500 N501 1.613 . S
S500 N502 1.610 . S
N501 S500 1.613 . S
N501 C504 1.350 . S
N502 S500 1.610 . S
N502 C503 1.351 . S
C503 C497 1.428 . S
C503 N502 1.351 . S
C503 C504 1.434 . S
C504 C495 1.429 . S
C504 N501 1.350 . S
C504 C503 1.434 . S
C505 C506 1.369 . S
C505 C507 1.419 1_545 S
C505 H509 0.930 . S
C506 C505 1.369 . S
C506 C515 1.429 . S
C507 C505 1.419 1_565 S
C507 C508 1.363 . S
C507 H510 0.929 . S
C508 C507 1.363 . S
C508 C514 1.428 . S
H509 C505 0.930 . S
H510 C507 0.929 . S
S511 N512 1.613 . S
S511 N513 1.610 1_545 S
N512 S511 1.613 . S
N512 C515 1.350 . S
N513 S511 1.610 1_565 S
N513 C514 1.351 . S
C514 C508 1.428 . S
C514 N513 1.351 . S
C514 C515 1.434 1_565 S
C515 C506 1.429 . S
C515 N512 1.350 . S
C515 C514 1.434 1_545 S
C516 C517 1.369 . S
C516 C518 1.419 . S
C516 H520 0.930 . S
C517 C516 1.369 . S
C517 C526 1.429 . S
C518 C516 1.419 . S
C518 C519 1.363 . S
C518 H521 0.929 . S
C519 C518 1.363 . S
C519 C525 1.428 . S
H520 C516 0.930 . S
H521 C518 0.929 . S
S522 N523 1.613 . S
S522 N524 1.610 . S
N523 S522 1.613 . S
N523 C526 1.350 . S
N524 S522 1.610 . S
N524 C525 1.351 . S
C525 C519 1.428 . S
C525 N524 1.351 . S
C525 C526 1.434 . S
C526 C517 1.429 . S
C526 N523 1.350 . S
C526 C525 1.434 . S
C527 C528 1.369 . S
C527 C529 1.419 . S
C527 H531 0.930 . S
C528 C527 1.369 . S
C528 C537 1.429 . S
C529 C527 1.419 . S
C529 C530 1.363 . S
C529 H532 0.929 . S
C530 C529 1.363 . S
C530 C536 1.428 . S
H531 C527 0.930 . S
H532 C529 0.929 . S
S533 N534 1.613 . S
S533 N535 1.610 . S
N534 S533 1.613 . S
N534 C537 1.350 . S
N535 S533 1.610 . S
N535 C536 1.351 . S
C536 C530 1.428 . S
C536 N535 1.351 . S
C536 C537 1.434 . S
C537 C528 1.429 . S
C537 N534 1.350 . S
C537 C536 1.434 . S
C538 C539 1.369 . S
C538 C540 1.419 . S
C538 H542 0.930 . S
C539 C538 1.369 . S
C539 C548 1.429 . S
C540 C538 1.419 . S
C540 C541 1.363 . S
C540 H543 0.929 . S
C541 C540 1.363 . S
C541 C547 1.428 . S
H542 C538 0.930 . S
H543 C540 0.929 . S
S544 N545 1.613 . S
S544 N546 1.610 . S
N545 S544 1.613 . S
N545 C548 1.350 . S
N546 S544 1.610 . S
N546 C547 1.351 . S
C547 C541 1.428 . S
C547 N546 1.351 . S
C547 C548 1.434 . S
C548 C539 1.429 . S
C548 N545 1.350 . S
C548 C547 1.434 . S
C549 C550 1.369 . S
C549 C551 1.419 . S
C549 H553 0.930 . S
C550 C549 1.369 . S
C550 C559 1.429 . S
C551 C549 1.419 . S
C551 C552 1.363 . S
C551 H554 0.929 . S
C552 C551 1.363 . S
C552 C558 1.428 . S
H553 C549 0.930 . S
H554 C551 0.929 . S
S555 N556 1.613 . S
S555 N557 1.610 . S
N556 S555 1.613 . S
N556 C559 1.350 . S
N557 S555 1.610 . S
N557 C558 1.351 . S
C558 C552 1.428 . S
C558 N557 1.351 . S
C558 C559 1.434 . S
C559 C550 1.429 . S
C559 N556 1.350 . S
C559 C558 1.434 . S
C560 C561 1.369 . S
C560 C562 1.419 . S
C560 H564 0.930 . S
C561 C560 1.369 . S
C561 C570 1.429 . S
C562 C560 1.419 . S
C562 C563 1.363 . S
C562 H565 0.929 . S
C563 C562 1.363 . S
C563 C569 1.428 . S
H564 C560 0.930 . S
H565 C562 0.929 . S
S566 N567 1.613 . S
S566 N568 1.610 . S
N567 S566 1.613 . S
N567 C570 1.350 . S
N568 S566 1.610 . S
N568 C569 1.351 . S
C569 C563 1.428 . S
C569 N568 1.351 . S
C569 C570 1.434 . S
C570 C561 1.429 . S
C570 N567 1.350 . S
C570 C569 1.434 . S
C571 C572 1.369 . S
C571 C573 1.419 . S
C571 H575 0.930 . S
C572 C571 1.369 . S
C572 C581 1.429 . S
C573 C571 1.419 . S
C573 C574 1.363 . S
C573 H576 0.929 . S
C574 C573 1.363 . S
C574 C580 1.428 . S
H575 C571 0.930 . S
H576 C573 0.929 . S
S577 N578 1.613 . S
S577 N579 1.610 . S
N578 S577 1.613 . S
N578 C581 1.350 . S
N579 S577 1.610 . S
N579 C580 1.351 . S
C580 C574 1.428 . S
C580 N579 1.351 . S
C580 C581 1.434 . S
C581 C572 1.429 . S
C581 N578 1.350 . S
C581 C580 1.434 . S
C582 C583 1.369 . S
C582 C584 1.419 1_545 S
C582 H586 0.930 . S
C583 C582 1.369 . S
C583 C592 1.429 . S
C584 C582 1.419 1_565 S
C584 C585 1.363 . S
C584 H587 0.929 . S
C585 C584 1.363 . S
C585 C591 1.428 . S
H586 C582 0.930 . S
H587 C584 0.929 . S
S588 N589 1.613 1_565 S
S588 N590 1.610 . S
N589 S588 1.613 1_545 S
N589 C592 1.350 . S
N590 S588 1.610 . S
N590 C591 1.351 . S
C591 C585 1.428 . S
C591 N590 1.351 . S
C591 C592 1.434 1_565 S
C592 C583 1.429 . S
C592 N589 1.350 . S
C592 C591 1.434 1_545 S
C593 C594 1.369 . S
C593 C595 1.419 1_655 S
C593 H597 0.930 . S
C594 C593 1.369 . S
C594 C603 1.429 . S
C595 C593 1.419 1_455 S
C595 C596 1.363 . S
C595 H598 0.929 . S
C596 C595 1.363 . S
C596 C602 1.428 . S
H597 C593 0.930 . S
H598 C595 0.929 . S
S599 N600 1.613 1_455 S
S599 N601 1.610 . S
N600 S599 1.613 1_655 S
N600 C603 1.350 . S
N601 S599 1.610 . S
N601 C602 1.351 . S
C602 C596 1.428 . S
C602 N601 1.351 . S
C602 C603 1.434 1_455 S
C603 C594 1.429 . S
C603 N600 1.350 . S
C603 C602 1.434 1_655 S
C604 C605 1.369 . S
C604 C606 1.419 . S
C604 H608 0.930 . S
C605 C604 1.369 . S
C605 C614 1.429 . S
C606 C604 1.419 . S
C606 C607 1.363 . S
C606 H609 0.929 . S
C607 C606 1.363 . S
C607 C613 1.428 . S
H608 C604 0.930 . S
H609 C606 0.929 . S
S610 N611 1.613 . S
S610 N612 1.610 . S
N611 S610 1.613 . S
N611 C614 1.350 . S
N612 S610 1.610 . S
N612 C613 1.351 . S
C613 C607 1.428 . S
C613 N612 1.351 . S
C613 C614 1.434 . S
C614 C605 1.429 . S
C614 N611 1.350 . S
C614 C613 1.434 . S
C615 C616 1.369 . S
C615 C617 1.419 . S
C615 H619 0.930 . S
C616 C615 1.369 . S
C616 C625 1.429 . S
C617 C615 1.419 . S
C617 C618 1.363 . S
C617 H620 0.929 . S
C618 C617 1.363 . S
C618 C624 1.428 . S
H619 C615 0.930 . S
H620 C617 0.929 . S
S621 N622 1.613 . S
S621 N623 1.610 . S
N622 S621 1.613 . S
N622 C625 1.350 . S
N623 S621 1.610 . S
N623 C624 1.351 . S
C624 C618 1.428 . S
C624 N623 1.351 . S
C624 C625 1.434 . S
C625 C616 1.429 . S
C625 N622 1.350 . S
C625 C624 1.434 . S
C626 C627 1.369 . S
C626 C628 1.419 . S
C626 H630 0.930 . S
C627 C626 1.369 . S
C627 C636 1.429 . S
C628 C626 1.419 . S
C628 C629 1.363 . S
C628 H631 0.929 . S
C629 C628 1.363 . S
C629 C635 1.428 . S
H630 C626 0.930 . S
H631 C628 0.929 . S
S632 N633 1.613 . S
S632 N634 1.610 . S
N633 S632 1.613 . S
N633 C636 1.350 . S
N634 S632 1.610 . S
N634 C635 1.351 . S
C635 C629 1.428 . S
C635 N634 1.351 . S
C635 C636 1.434 . S
C636 C627 1.429 . S
C636 N633 1.350 . S
C636 C635 1.434 . S
C637 C638 1.369 . S
C637 C639 1.419 . S
C637 H641 0.930 . S
C638 C637 1.369 . S
C638 C647 1.429 . S
C639 C637 1.419 . S
C639 C640 1.363 . S
C639 H642 0.929 . S
C640 C639 1.363 . S
C640 C646 1.428 . S
H641 C637 0.930 . S
H642 C639 0.929 . S
S643 N644 1.613 . S
S643 N645 1.610 . S
N644 S643 1.613 . S
N644 C647 1.350 . S
N645 S643 1.610 . S
N645 C646 1.351 . S
C646 C640 1.428 . S
C646 N645 1.351 . S
C646 C647 1.434 . S
C647 C638 1.429 . S
C647 N644 1.350 . S
C647 C646 1.434 . S
C648 C649 1.369 . S
C648 C650 1.419 1_565 S
C648 H652 0.930 . S
C649 C648 1.369 . S
C649 C658 1.429 . S
C650 C648 1.419 1_545 S
C650 C651 1.363 . S
C650 H653 0.929 . S
C651 C650 1.363 . S
C651 C657 1.428 . S
H652 C648 0.930 . S
H653 C650 0.929 . S
S654 N655 1.613 1_545 S
S654 N656 1.610 . S
N655 S654 1.613 1_565 S
N655 C658 1.350 . S
N656 S654 1.610 . S
N656 C657 1.351 . S
C657 C651 1.428 . S
C657 N656 1.351 . S
C657 C658 1.434 1_545 S
C658 C649 1.429 . S
C658 N655 1.350 . S
C658 C657 1.434 1_565 S
C659 C660 1.369 . S
C659 C661 1.419 1_455 S
C659 H663 0.930 . S
C660 C659 1.369 . S
C660 C669 1.429 . S
C661 C659 1.419 1_655 S
C661 C662 1.363 . S
C661 H664 0.929 . S
C662 C661 1.363 . S
C662 C668 1.428 . S
H663 C659 0.930 . S
H664 C661 0.929 . S
S665 N666 1.613 . S
S665 N667 1.610 1_455 S
N666 S665 1.613 . S
N666 C669 1.350 . S
N667 S665 1.610 1_655 S
N667 C668 1.351 . S
C668 C662 1.428 . S
C668 N667 1.351 . S
C668 C669 1.434 1_655 S
C669 C660 1.429 . S
C669 N666 1.350 . S
C669 C668 1.434 1_455 S
C670 C671 1.369 . S
C670 C672 1.419 . S
C670 H674 0.930 . S
C671 C670 1.369 . S
C671 C680 1.429 . S
C672 C670 1.419 . S
C672 C673 1.363 . S
C672 H675 0.929 . S
C673 C672 1.363 . S
C673 C679 1.428 . S
H674 C670 0.930 . S
H675 C672 0.929 . S
S676 N677 1.613 . S
S676 N678 1.610 . S
N677 S676 1.613 . S
N677 C680 1.350 . S
N678 S676 1.610 . S
N678 C679 1.351 . S
C679 C673 1.428 . S
C679 N678 1.351 . S
C679 C680 1.434 . S
C680 C671 1.429 . S
C680 N677 1.350 . S
C680 C679 1.434 . S
C681 C682 1.369 . S
C681 C683 1.419 . S
C681 H685 0.930 . S
C682 C681 1.369 . S
C682 C691 1.429 . S
C683 C681 1.419 . S
C683 C684 1.363 1_455 S
C683 H686 0.929 1_455 S
C684 C683 1.363 1_655 S
C684 C690 1.428 . S
H685 C681 0.930 . S
H686 C683 0.929 1_655 S
S687 N688 1.613 1_655 S
S687 N689 1.610 . S
N688 S687 1.613 1_455 S
N688 C691 1.350 . S
N689 S687 1.610 . S
N689 C690 1.351 . S
C690 C684 1.428 . S
C690 N689 1.351 . S
C690 C691 1.434 1_655 S
C691 C682 1.429 . S
C691 N688 1.350 . S
C691 C690 1.434 1_455 S
C692 C693 1.369 . S
C692 C694 1.419 . S
C692 H696 0.930 . S
C693 C692 1.369 . S
C693 C702 1.429 . S
C694 C692 1.419 . S
C694 C695 1.363 . S
C694 H697 0.929 . S
C695 C694 1.363 . S
C695 C701 1.428 . S
H696 C692 0.930 . S
H697 C694 0.929 . S
S698 N699 1.613 . S
S698 N700 1.610 . S
N699 S698 1.613 . S
N699 C702 1.350 . S
N700 S698 1.610 . S
N700 C701 1.351 . S
C701 C695 1.428 . S
C701 N700 1.351 . S
C701 C702 1.434 . S
C702 C693 1.429 . S
C702 N699 1.350 . S
C702 C701 1.434 . S
C703 C704 1.369 . S
C703 C705 1.419 1_565 S
C703 H707 0.930 . S
C704 C703 1.369 . S
C704 C713 1.429 . S
C705 C703 1.419 1_545 S
C705 C706 1.363 . S
C705 H708 0.929 . S
C706 C705 1.363 . S
C706 C712 1.428 . S
H707 C703 0.930 . S
H708 C705 0.929 . S
S709 N710 1.613 1_545 S
S709 N711 1.610 . S
N710 S709 1.613 1_565 S
N710 C713 1.350 . S
N711 S709 1.610 . S
N711 C712 1.351 . S
C712 C706 1.428 . S
C712 N711 1.351 . S
C712 C713 1.434 1_545 S
C713 C704 1.429 . S
C713 N710 1.350 . S
C713 C712 1.434 1_565 S
C714 C715 1.369 . S
C714 C716 1.419 . S
C714 H718 0.930 . S
C715 C714 1.369 . S
C715 C724 1.429 . S
C716 C714 1.419 . S
C716 C717 1.363 . S
C716 H719 0.929 . S
C717 C716 1.363 . S
C717 C723 1.428 . S
H718 C714 0.930 . S
H719 C716 0.929 . S
S720 N721 1.613 . S
S720 N722 1.610 . S
N721 S720 1.613 . S
N721 C724 1.350 . S
N722 S720 1.610 . S
N722 C723 1.351 . S
C723 C717 1.428 . S
C723 N722 1.351 . S
C723 C724 1.434 . S
C724 C715 1.429 . S
C724 N721 1.350 . S
C724 C723 1.434 . S
C725 C726 1.369 . S
C725 C727 1.419 . S
C725 H729 0.930 . S
C726 C725 1.369 . S
C726 C735 1.429 . S
C727 C725 1.419 . S
C727 C728 1.363 . S
C727 H730 0.929 . S
C728 C727 1.363 . S
C728 C734 1.428 . S
H729 C725 0.930 . S
H730 C727 0.929 . S
S731 N732 1.613 . S
S731 N733 1.610 . S
N732 S731 1.613 . S
N732 C735 1.350 . S
N733 S731 1.610 . S
N733 C734 1.351 . S
C734 C728 1.428 . S
C734 N733 1.351 . S
C734 C735 1.434 . S
C735 C726 1.429 . S
C735 N732 1.350 . S
C735 C734 1.434 . S
C736 C737 1.369 . S
C736 C738 1.419 . S
C736 H740 0.930 . S
C737 C736 1.369 . S
C737 C746 1.429 . S
C738 C736 1.419 . S
C738 C739 1.363 . S
C738 H741 0.929 . S
C739 C738 1.363 . S
C739 C745 1.428 . S
H740 C736 0.930 . S
H741 C738 0.929 . S
S742 N743 1.613 . S
S742 N744 1.610 . S
N743 S742 1.613 . S
N743 C746 1.350 . S
N744 S742 1.610 . S
N744 C745 1.351 . S
C745 C739 1.428 . S
C745 N744 1.351 . S
C745 C746 1.434 . S
C746 C737 1.429 . S
C746 N743 1.350 . S
C746 C745 1.434 . S
C747 C748 1.369 . S
C747 C749 1.419 1_565 S
C747 H751 0.930 1_565 S
C748 C747 1.369 . S
C748 C757 1.429 . S
C749 C747 1.419 1_545 S
C749 C750 1.363 1_545 S
C749 H752 0.929 . S
C750 C749 1.363 1_565 S
C750 C756 1.428 . S
H751 C747 0.930 1_545 S
H752 C749 0.929 . S
S753 N754 1.613 . S
S753 N755 1.610 . S
N754 S753 1.613 . S
N754 C757 1.350 . S
N755 S753 1.610 . S
N755 C756 1.351 . S
C756 C750 1.428 . S
C756 N755 1.351 . S
C756 C757 1.434 . S
C757 C748 1.429 . S
C757 N754 1.350 . S
C757 C756 1.434 . S
C758 C759 1.369 . S
C758 C760 1.419 1_455 S
C758 H762 0.930 1_455 S
C759 C758 1.369 . S
C759 C768 1.429 . S
C760 C758 1.419 1_655 S
C760 C761 1.363 1_655 S
C760 H763 0.929 . S
C761 C760 1.363 1_455 S
C761 C767 1.428 . S
H762 C758 0.930 1_655 S
H763 C760 0.929 . S
S764 N765 1.613 . S
S764 N766 1.610 . S
N765 S764 1.613 . S
N765 C768 1.350 . S
N766 S764 1.610 . S
N766 C767 1.351 . S
C767 C761 1.428 . S
C767 N766 1.351 . S
C767 C768 1.434 . S
C768 C759 1.429 . S
C768 N765 1.350 . S
C768 C767 1.434 . S
C769 C770 1.369 . S
C769 C771 1.419 . S
C769 H773 0.930 . S
C770 C769 1.369 . S
C770 C779 1.429 . S
C771 C769 1.419 . S
C771 C772 1.363 . S
C771 H774 0.929 . S
C772 C771 1.363 . S
C772 C778 1.428 . S
H773 C769 0.930 . S
H774 C771 0.929 . S
S775 N776 1.613 . S
S775 N777 1.610 . S
N776 S775 1.613 . S
N776 C779 1.350 . S
N777 S775 1.610 . S
N777 C778 1.351 . S
C778 C772 1.428 . S
C778 N777 1.351 . S
C778 C779 1.434 . S
C779 C770 1.429 . S
C779 N776 1.350 . S
C779 C778 1.434 . S
C780 C781 1.369 . S
C780 C782 1.419 . S
C780 H784 0.930 . S
C781 C780 1.369 . S
C781 C790 1.422 1_655 S
C782 C780 1.419 . S
C782 C783 1.363 . S
C782 H785 0.929 . S
C783 C782 1.363 . S
C783 C789 1.428 1_655 S
H784 C780 0.930 . S
H785 C782 0.929 . S
S786 N787 1.613 . S
S786 N788 1.610 . S
N787 S786 1.613 . S
N787 C790 1.355 . S
N788 S786 1.610 . S
N788 C789 1.351 . S
C789 C783 1.428 1_455 S
C789 N788 1.351 . S
C789 C790 1.437 . S
C790 C781 1.422 1_455 S
C790 N787 1.355 . S
C790 C789 1.437 . S
C791 C792 1.369 . S
C791 C793 1.419 . S
C791 H795 0.930 . S
C792 C791 1.369 . S
C792 C801 1.429 . S
C793 C791 1.419 . S
C793 C794 1.363 . S
C793 H796 0.929 . S
C794 C793 1.363 . S
C794 C800 1.428 . S
H795 C791 0.930 . S
H796 C793 0.929 . S
S797 N798 1.613 . S
S797 N799 1.610 . S
N798 S797 1.613 . S
N798 C801 1.350 . S
N799 S797 1.610 . S
N799 C800 1.351 . S
C800 C794 1.428 . S
C800 N799 1.351 . S
C800 C801 1.434 . S
C801 C792 1.429 . S
C801 N798 1.350 . S
C801 C800 1.434 . S
C802 C803 1.378 . S
C802 C804 1.416 1_545 S
C802 H806 0.923 1_545 S
C803 C802 1.378 . S
C803 C812 1.429 . S
C804 C802 1.416 1_565 S
C804 C805 1.363 1_565 S
C804 H807 0.929 . S
C805 C804 1.363 1_545 S
C805 C811 1.428 . S
H806 C802 0.923 1_565 S
H807 C804 0.929 . S
S808 N809 1.613 . S
S808 N810 1.610 . S
N809 S808 1.613 . S
N809 C812 1.350 . S
N810 S808 1.610 . S
N810 C811 1.351 . S
C811 C805 1.428 . S
C811 N810 1.351 . S
C811 C812 1.434 . S
C812 C803 1.429 . S
C812 N809 1.350 . S
C812 C811 1.434 . S
C813 C814 1.369 . S
C813 C815 1.419 . S
C813 H817 0.930 . S
C814 C813 1.369 . S
C814 C823 1.429 . S
C815 C813 1.419 . S
C815 C816 1.363 . S
C815 H818 0.929 . S
C816 C815 1.363 . S
C816 C822 1.428 . S
H817 C813 0.930 . S
H818 C815 0.929 . S
S819 N820 1.613 . S
S819 N821 1.610 . S
N820 S819 1.613 . S
N820 C823 1.350 . S
N821 S819 1.610 . S
N821 C822 1.351 . S
C822 C816 1.428 . S
C822 N821 1.351 . S
C822 C823 1.434 . S
C823 C814 1.429 . S
C823 N820 1.350 . S
C823 C822 1.434 . S
C824 C825 1.369 . S
C824 C826 1.419 . S
C824 H828 0.930 . S
C825 C824 1.369 . S
C825 C834 1.429 . S
C826 C824 1.419 . S
C826 C827 1.363 . S
C826 H829 0.929 . S
C827 C826 1.363 . S
C827 C833 1.428 . S
H828 C824 0.930 . S
H829 C826 0.929 . S
S830 N831 1.613 . S
S830 N832 1.610 . S
N831 S830 1.613 . S
N831 C834 1.350 . S
N832 S830 1.610 . S
N832 C833 1.351 . S
C833 C827 1.428 . S
C833 N832 1.351 . S
C833 C834 1.434 . S
C834 C825 1.429 . S
C834 N831 1.350 . S
C834 C833 1.434 . S
C835 C836 1.369 . S
C835 C837 1.419 . S
C835 H839 0.930 . S
C836 C835 1.369 . S
C836 C845 1.429 . S
C837 C835 1.419 . S
C837 C838 1.363 . S
C837 H840 0.929 . S
C838 C837 1.363 . S
C838 C844 1.428 . S
H839 C835 0.930 . S
H840 C837 0.929 . S
S841 N842 1.613 . S
S841 N843 1.610 . S
N842 S841 1.613 . S
N842 C845 1.350 . S
N843 S841 1.610 . S
N843 C844 1.351 . S
C844 C838 1.428 . S
C844 N843 1.351 . S
C844 C845 1.434 . S
C845 C836 1.429 . S
C845 N842 1.350 . S
C845 C844 1.434 . S
C846 C847 1.369 . S
C846 C848 1.419 . S
C846 H850 0.930 . S
C847 C846 1.369 . S
C847 C856 1.429 . S
C848 C846 1.419 . S
C848 C849 1.363 . S
C848 H851 0.929 . S
C849 C848 1.363 . S
C849 C855 1.428 . S
H850 C846 0.930 . S
H851 C848 0.929 . S
S852 N853 1.613 . S
S852 N854 1.610 . S
N853 S852 1.613 . S
N853 C856 1.350 . S
N854 S852 1.610 . S
N854 C855 1.351 . S
C855 C849 1.428 . S
C855 N854 1.351 . S
C855 C856 1.434 . S
C856 C847 1.429 . S
C856 N853 1.350 . S
C856 C855 1.434 . S
C857 C858 1.369 . S
C857 C859 1.419 . S
C857 H861 0.930 . S
C858 C857 1.369 . S
C858 C867 1.429 . S
C859 C857 1.419 . S
C859 C860 1.363 . S
C859 H862 0.929 . S
C860 C859 1.363 . S
C860 C866 1.428 . S
H861 C857 0.930 . S
H862 C859 0.929 . S
S863 N864 1.613 . S
S863 N865 1.610 . S
N864 S863 1.613 . S
N864 C867 1.350 . S
N865 S863 1.610 . S
N865 C866 1.351 . S
C866 C860 1.428 . S
C866 N865 1.351 . S
C866 C867 1.434 . S
C867 C858 1.429 . S
C867 N864 1.350 . S
C867 C866 1.434 . S
C868 C869 1.369 . S
C868 C870 1.419 . S
C868 H872 0.930 . S
C869 C868 1.369 . S
C869 C878 1.429 . S
C870 C868 1.419 . S
C870 C871 1.363 . S
C870 H873 0.929 . S
C871 C870 1.363 . S
C871 C877 1.428 . S
H872 C868 0.930 . S
H873 C870 0.929 . S
S874 N875 1.613 . S
S874 N876 1.610 . S
N875 S874 1.613 . S
N875 C878 1.350 . S
N876 S874 1.610 . S
N876 C877 1.351 . S
C877 C871 1.428 . S
C877 N876 1.351 . S
C877 C878 1.434 . S
C878 C869 1.429 . S
C878 N875 1.350 . S
C878 C877 1.434 . S
C879 C880 1.369 . S
C879 C881 1.419 . S
C879 H883 0.930 . S
C880 C879 1.369 . S
C880 C889 1.429 . S
C881 C879 1.419 . S
C881 C882 1.363 . S
C881 H884 0.929 . S
C882 C881 1.363 . S
C882 C888 1.428 . S
H883 C879 0.930 . S
H884 C881 0.929 . S
S885 N886 1.613 . S
S885 N887 1.610 . S
N886 S885 1.613 . S
N886 C889 1.350 . S
N887 S885 1.610 . S
N887 C888 1.351 . S
C888 C882 1.428 . S
C888 N887 1.351 . S
C888 C889 1.434 . S
C889 C880 1.429 . S
C889 N886 1.350 . S
C889 C888 1.434 . S
C890 C891 1.369 . S
C890 C892 1.419 . S
C890 H894 0.930 . S
C891 C890 1.369 . S
C891 C900 1.429 . S
C892 C890 1.419 . S
C892 C893 1.363 . S
C892 H895 0.929 . S
C893 C892 1.363 . S
C893 C899 1.428 . S
H894 C890 0.930 . S
H895 C892 0.929 . S
S896 N897 1.613 . S
S896 N898 1.610 . S
N897 S896 1.613 . S
N897 C900 1.350 . S
N898 S896 1.610 . S
N898 C899 1.351 . S
C899 C893 1.428 . S
C899 N898 1.351 . S
C899 C900 1.434 . S
C900 C891 1.429 . S
C900 N897 1.350 . S
C900 C899 1.434 . S
C901 C902 1.369 . S
C901 C903 1.419 . S
C901 H905 0.930 . S
C902 C901 1.369 . S
C902 C911 1.429 . S
C903 C901 1.419 . S
C903 C904 1.363 . S
C903 H906 0.929 . S
C904 C903 1.363 . S
C904 C910 1.428 . S
H905 C901 0.930 . S
H906 C903 0.929 . S
S907 N908 1.613 . S
S907 N909 1.610 . S
N908 S907 1.613 . S
N908 C911 1.350 . S
N909 S907 1.610 . S
N909 C910 1.351 . S
C910 C904 1.428 . S
C910 N909 1.351 . S
C910 C911 1.434 . S
C911 C902 1.429 . S
C911 N908 1.350 . S
C911 C910 1.434 . S
C912 C913 1.369 . S
C912 C914 1.419 . S
C912 H916 0.930 . S
C913 C912 1.369 . S
C913 C922 1.429 . S
C914 C912 1.419 . S
C914 C915 1.363 . S
C914 H917 0.929 . S
C915 C914 1.363 . S
C915 C921 1.428 . S
H916 C912 0.930 . S
H917 C914 0.929 . S
S918 N919 1.613 . S
S918 N920 1.610 . S
N919 S918 1.613 . S
N919 C922 1.350 . S
N920 S918 1.610 . S
N920 C921 1.351 . S
C921 C915 1.428 . S
C921 N920 1.351 . S
C921 C922 1.434 . S
C922 C913 1.429 . S
C922 N919 1.350 . S
C922 C921 1.434 . S
C923 C924 1.369 . S
C923 C925 1.419 . S
C923 H927 0.930 . S
C924 C923 1.369 . S
C924 C933 1.429 . S
C925 C923 1.419 . S
C925 C926 1.363 . S
C925 H928 0.929 . S
C926 C925 1.363 . S
C926 C932 1.428 . S
H927 C923 0.930 . S
H928 C925 0.929 . S
S929 N930 1.613 . S
S929 N931 1.610 . S
N930 S929 1.613 . S
N930 C933 1.350 . S
N931 S929 1.610 . S
N931 C932 1.351 . S
C932 C926 1.428 . S
C932 N931 1.351 . S
C932 C933 1.434 . S
C933 C924 1.429 . S
C933 N930 1.350 . S
C933 C932 1.434 . S
C934 C935 1.369 . S
C934 C936 1.419 . S
C934 H938 0.930 . S
C935 C934 1.369 . S
C935 C944 1.429 . S
C936 C934 1.419 . S
C936 C937 1.363 . S
C936 H939 0.929 . S
C937 C936 1.363 . S
C937 C943 1.428 . S
H938 C934 0.930 . S
H939 C936 0.929 . S
S940 N941 1.613 . S
S940 N942 1.610 . S
N941 S940 1.613 . S
N941 C944 1.350 . S
N942 S940 1.610 . S
N942 C943 1.351 . S
C943 C937 1.428 . S
C943 N942 1.351 . S
C943 C944 1.434 . S
C944 C935 1.429 . S
C944 N941 1.350 . S
C944 C943 1.434 . S
C352 C124 1.441 . S
C354 C176 1.348 . S
C363 C130 1.455 . S
C365 C197 1.360 . S
C374 C115 1.386 . S
C376 C217 1.196 . S
C385 C106 1.400 . S
C387 C196 1.197 . S
C398 C218 1.368 . S
C396 C85 1.470 . S
C407 C97 1.394 . S
C409 C175 1.180 . S
C420 C177 1.341 . S
C418 C103 1.445 . S
C431 C198 1.309 . S
C429 C88 1.389 . S
C440 C94 1.471 . S
C442 C220 1.231 1_556 S
C451 C121 1.441 . S
C453 C199 1.208 1_554 S
C462 C133 1.403 . S
C464 C219 1.313 . S
C475 C178 1.271 1_554 S
C473 C112 1.489 . S
C486 C239 1.349 . S
C484 C16 1.441 . S
C495 C22 1.459 . S
C497 C260 1.357 . S
C506 C7 1.391 . S
C508 C280 1.185 . S
C517 C160 1.406 . S
C519 C259 1.183 . S
C528 C139 1.471 . S
C530 C281 1.373 . S
C539 C151 1.394 . S
C541 C238 1.184 . S
C550 C157 1.447 . S
C552 C240 1.336 . S
C561 C142 1.394 . S
C563 C261 1.308 . S
C574 C283 1.242 . S
C572 C148 1.467 . S
C583 C13 1.441 . S
C585 C262 1.220 . S
C596 C282 1.314 . S
C594 C25 1.400 . S
C605 C4 1.492 . S
C607 C241 1.266 . S
C618 C302 1.353 . S
C616 C70 1.436 . S
C627 C76 1.453 . S
C629 C323 1.366 . S
C640 C343 1.182 . S
C638 C61 1.392 . S
C651 C322 1.197 . S
C649 C52 1.401 . S
C662 C344 1.368 . S
C660 C31 1.472 . S
C671 C43 1.397 . S
C673 C301 1.177 . S
C682 C49 1.443 . S
C684 C303 1.333 . S
C693 C34 1.389 . S
C695 C324 1.306 . S
C706 C346 1.240 . S
C704 C40 1.468 . S
C715 C67 1.439 . S
C717 C325 1.227 . S
C726 C79 1.404 . S
C728 C345 1.311 . S
C737 C58 1.494 . S
C739 C304 1.259 . S
C748 C140 1.460 . S
C750 C180 1.407 1_565 S
C761 C201 1.427 . S
C759 C149 1.475 . S
C770 C158 1.506 . S
C772 C221 1.474 . S
C781 C59 1.550 . S
C783 C200 1.515 1_655 S
C792 C68 1.505 . S
C794 C222 1.452 . S
C805 C179 1.496 . S
C803 C77 1.519 . S
C814 C32 1.460 . S
C816 C243 1.409 . S
C825 C41 1.475 . S
C827 C264 1.426 . S
C836 C50 1.505 . S
C838 C284 1.478 . S
C847 C113 1.550 . S
C849 C263 1.513 . S
C860 C285 1.452 . S
C858 C122 1.505 . S
C869 C131 1.522 . S
C871 C242 1.494 . S
C880 C86 1.460 . S
C882 C306 1.410 . S
C891 C95 1.476 . S
C893 C327 1.424 . S
C904 C347 1.479 . S
C902 C104 1.506 . S
C913 C5 1.550 . S
C915 C326 1.514 . S
C924 C14 1.505 . S
C926 C348 1.450 . S
C935 C23 1.522 . S
C937 C305 1.496 . S
