# Generated by pormake.
# Topology wbl, (4,4)-cn, num edge types: 1
# Building blocks:
#     Node 0, Type 0, BuildingBlock: NAWXER_clean_linker_0, # of connection points: 4
#     Node 1, Type 0, BuildingBlock: NAWXER_clean_linker_0, # of connection points: 4
#     Node 2, Type 0, BuildingBlock: NAWXER_clean_linker_0, # of connection points: 4
#     Node 3, Type 0, BuildingBlock: NAWXER_clean_linker_0, # of connection points: 4
#     Node 4, Type 0, BuildingBlock: NAWXER_clean_linker_0, # of connection points: 4
#     Node 5, Type 0, BuildingBlock: NAWXER_clean_linker_0, # of connection points: 4
#     Node 6, Type 0, BuildingBlock: NAWXER_clean_linker_0, # of connection points: 4
#     Node 7, Type 0, BuildingBlock: NAWXER_clean_linker_0, # of connection points: 4
#     Node 8, Type 1, BuildingBlock: TATPOV_clean_sbu_0, # of connection points: 4
#     Node 9, Type 1, BuildingBlock: TATPOV_clean_sbu_0, # of connection points: 4
#     Node 10, Type 1, BuildingBlock: TATPOV_clean_sbu_0, # of connection points: 4
#     Node 11, Type 1, BuildingBlock: TATPOV_clean_sbu_0, # of connection points: 4
#     Node 12, Type 1, BuildingBlock: TATPOV_clean_sbu_0, # of connection points: 4
#     Node 13, Type 1, BuildingBlock: TATPOV_clean_sbu_0, # of connection points: 4
#     Node 14, Type 1, BuildingBlock: TATPOV_clean_sbu_0, # of connection points: 4
#     Node 15, Type 1, BuildingBlock: TATPOV_clean_sbu_0, # of connection points: 4
#     Edge 16, Type (0, 1), BuildingBlock: MIFKUJ_clean_linker_0, # of connection points: 2
#     Edge 17, Type (0, 1), BuildingBlock: MIFKUJ_clean_linker_0, # of connection points: 2
#     Edge 18, Type (0, 1), BuildingBlock: MIFKUJ_clean_linker_0, # of connection points: 2
#     Edge 19, Type (0, 1), BuildingBlock: MIFKUJ_clean_linker_0, # of connection points: 2
#     Edge 20, Type (0, 1), BuildingBlock: MIFKUJ_clean_linker_0, # of connection points: 2
#     Edge 21, Type (0, 1), BuildingBlock: MIFKUJ_clean_linker_0, # of connection points: 2
#     Edge 22, Type (0, 1), BuildingBlock: MIFKUJ_clean_linker_0, # of connection points: 2
#     Edge 23, Type (0, 1), BuildingBlock: MIFKUJ_clean_linker_0, # of connection points: 2
#     Edge 24, Type (0, 1), BuildingBlock: MIFKUJ_clean_linker_0, # of connection points: 2
#     Edge 25, Type (0, 1), BuildingBlock: MIFKUJ_clean_linker_0, # of connection points: 2
#     Edge 26, Type (0, 1), BuildingBlock: MIFKUJ_clean_linker_0, # of connection points: 2
#     Edge 27, Type (0, 1), BuildingBlock: MIFKUJ_clean_linker_0, # of connection points: 2
#     Edge 28, Type (0, 1), BuildingBlock: MIFKUJ_clean_linker_0, # of connection points: 2
#     Edge 29, Type (0, 1), BuildingBlock: MIFKUJ_clean_linker_0, # of connection points: 2
#     Edge 30, Type (0, 1), BuildingBlock: MIFKUJ_clean_linker_0, # of connection points: 2
#     Edge 31, Type (0, 1), BuildingBlock: MIFKUJ_clean_linker_0, # of connection points: 2
#     Edge 32, Type (0, 1), BuildingBlock: MIFKUJ_clean_linker_0, # of connection points: 2
#     Edge 33, Type (0, 1), BuildingBlock: MIFKUJ_clean_linker_0, # of connection points: 2
#     Edge 34, Type (0, 1), BuildingBlock: MIFKUJ_clean_linker_0, # of connection points: 2
#     Edge 35, Type (0, 1), BuildingBlock: MIFKUJ_clean_linker_0, # of connection points: 2
#     Edge 36, Type (0, 1), BuildingBlock: MIFKUJ_clean_linker_0, # of connection points: 2
#     Edge 37, Type (0, 1), BuildingBlock: MIFKUJ_clean_linker_0, # of connection points: 2
#     Edge 38, Type (0, 1), BuildingBlock: MIFKUJ_clean_linker_0, # of connection points: 2
#     Edge 39, Type (0, 1), BuildingBlock: MIFKUJ_clean_linker_0, # of connection points: 2
#     Edge 40, Type (0, 1), BuildingBlock: MIFKUJ_clean_linker_0, # of connection points: 2
#     Edge 41, Type (0, 1), BuildingBlock: MIFKUJ_clean_linker_0, # of connection points: 2
#     Edge 42, Type (0, 1), BuildingBlock: MIFKUJ_clean_linker_0, # of connection points: 2
#     Edge 43, Type (0, 1), BuildingBlock: MIFKUJ_clean_linker_0, # of connection points: 2
#     Edge 44, Type (0, 1), BuildingBlock: MIFKUJ_clean_linker_0, # of connection points: 2
#     Edge 45, Type (0, 1), BuildingBlock: MIFKUJ_clean_linker_0, # of connection points: 2
#     Edge 46, Type (0, 1), BuildingBlock: MIFKUJ_clean_linker_0, # of connection points: 2
#     Edge 47, Type (0, 1), BuildingBlock: MIFKUJ_clean_linker_0, # of connection points: 2
# Relax obj value: 0.173
# Max RMSD: 0.170
# Mean RMSD: 0.138
data_MOF--net-wbl--node1-TATPOV_clean_sbu_0--node2-NAWXER_clean_linker_0--edge1-MIFKUJ_clean_linker_0
_symmetry_space_group_name_H-M    P1
_symmetry_Int_Tables_number       1
_symmetry_cell_setting            triclinic
loop_
_symmetry_equiv_pos_as_xyz
'x, y, z'
_cell_length_a     55.852468
_cell_length_b     55.855245
_cell_length_c     95.446889
_cell_angle_alpha  91.440893
_cell_angle_beta   91.389431
_cell_angle_gamma 90.014944
loop_
_atom_site_label
_atom_site_type_symbol
_atom_site_fract_x
_atom_site_fract_y
_atom_site_fract_z
_atom_type_partial_charge
C0 C 0.11688 0.97291 0.36916 0.0
C1 C 0.13268 0.97914 0.38036 0.0
C2 C 0.10461 0.9906 0.36182 0.0
C3 C 0.10825 0.01495 0.36532 0.0
C4 C 0.13622 0.00353 0.38386 0.0
C5 C 0.12405 0.02123 0.37645 0.0
C6 C 0.0943 0.03376 0.35813 0.0
C7 C 0.13993 -0.0017 0.32587 0.0
C8 C 0.12653 0.98452 0.31595 0.0
C9 C 0.12859 0.01488 0.33466 0.0
C10 C 0.10366 0.01791 0.3337 0.0
C11 C 0.10169 0.98814 0.31472 0.0
C12 C 0.09038 0.00486 0.32344 0.0
C13 C 0.09123 0.03443 0.34342 0.0
C14 C 0.03129 0.1234 0.33522 0.0
C15 C 0.01368 0.11384 0.32592 0.0
C16 C 0.04805 0.10831 0.34163 0.0
C17 C 0.04737 0.08351 0.33879 0.0
C18 C 0.01367 0.08915 0.32273 0.0
C19 C 0.03045 0.07416 0.32904 0.0
C20 C 0.06391 0.06693 0.34594 0.0
C21 C 0.01515 0.09692 0.37885 0.0
C22 C 0.02684 0.10806 0.39046 0.0
C23 C 0.02813 0.08349 0.36911 0.0
C24 C 0.05317 0.08155 0.37055 0.0
C25 C 0.05181 0.10582 0.39203 0.0
C26 C 0.06484 0.09269 0.38216 0.0
C27 C 0.06706 0.06643 0.36068 0.0
H28 H 0.11382 0.95433 0.36613 0.0
H29 H 0.09191 0.98518 0.35359 0.0
H30 H 0.1479 0.00896 0.3926 0.0
H31 H 0.12683 0.03987 0.37948 0.0
H32 H 0.15909 0.99577 0.3271 0.0
H33 H 0.13923 0.0251 0.34234 0.0
H34 H 0.09099 0.97793 0.30707 0.0
H35 H 0.07115 0.00711 0.32245 0.0
H36 H 0.03169 0.14238 0.33782 0.0
H37 H 0.06129 0.11594 0.34892 0.0
H38 H 0.00054 0.08139 0.3154 0.0
H39 H 0.02979 0.05512 0.32659 0.0
H40 H 0.99585 0.09793 0.37756 0.0
H41 H 0.01847 0.0742 0.36063 0.0
H42 H 0.06124 0.11423 0.40091 0.0
H43 H 0.08407 0.09115 0.38363 0.0
N44 N 0.08226 0.04994 0.36618 0.0
N45 N 0.07602 0.05084 0.3379 0.0
C46 C 0.92419 0.52114 0.61653 0.0
C47 C 0.93227 0.50536 0.62687 0.0
C48 C 0.94045 0.53559 0.60968 0.0
C49 C 0.96504 0.53453 0.61309 0.0
C50 C 0.95691 0.50418 0.63013 0.0
C51 C 0.97309 0.51877 0.62339 0.0
C52 C 0.98235 0.55072 0.60662 0.0
C53 C 0.95991 0.49889 0.57225 0.0
C54 C 0.94458 0.50913 0.56218 0.0
C55 C 0.97243 0.51337 0.58202 0.0
C56 C 0.96994 0.53834 0.58184 0.0
C57 C 0.94212 0.53414 0.56196 0.0
C58 C 0.955 0.54869 0.57163 0.0
C59 C 0.98367 0.55353 0.592 0.0
C60 C 0.07639 0.60501 0.58636 0.0
C61 C 0.07028 0.62363 0.57733 0.0
C62 C 0.05854 0.59131 0.59229 0.0
C63 C 0.03428 0.59596 0.58926 0.0
C64 C 0.04599 0.62804 0.57416 0.0
C65 C 0.02813 0.61413 0.57997 0.0
C66 C 0.01539 0.58165 0.59565 0.0
C67 C 0.04775 0.62953 0.62931 0.0
C68 C 0.05914 0.61733 0.6403 0.0
C69 C 0.03285 0.61724 0.61961 0.0
C70 C 0.02943 0.59241 0.62057 0.0
C71 C 0.0552 0.59261 0.64146 0.0
C72 C 0.04043 0.58029 0.6317 0.0
C73 C 0.01396 0.57902 0.61029 0.0
H74 H 0.9053 0.52239 0.6138 0.0
H75 H 0.93374 0.54797 0.60197 0.0
H76 H 0.96362 0.49245 0.6382 0.0
H77 H 0.99195 0.5178 0.62626 0.0
H78 H 0.96187 0.47962 0.57272 0.0
H79 H 0.98417 0.50507 0.58969 0.0
H80 H 0.9304 0.54239 0.55428 0.0
H81 H 0.95306 0.56797 0.57128 0.0
H82 H 0.09497 0.60129 0.58901 0.0
H83 H 0.06366 0.57708 0.59927 0.0
H84 H 0.04084 0.64213 0.56709 0.0
H85 H 0.00951 0.61781 0.57741 0.0
H86 H 0.05009 0.64866 0.62832 0.0
H87 H 0.0239 0.62718 0.61142 0.0
H88 H 0.06387 0.5827 0.64976 0.0
H89 H 0.03791 0.56119 0.63273 0.0
N90 N 0.99759 0.56353 0.6152 0.0
N91 N 9e-05 0.56893 0.58704 0.0
C92 C 0.5516 0.40782 0.86845 0.0
C93 C 0.56433 0.4166 0.8804 0.0
C94 C 0.53733 0.42321 0.86044 0.0
C95 C 0.53586 0.44768 0.86416 0.0
C96 C 0.56317 0.44116 0.88388 0.0
C97 C 0.54903 0.45647 0.87588 0.0
C98 C 0.51928 0.46407 0.85678 0.0
C99 C 0.57275 0.44215 0.82427 0.0
C100 C 0.56273 0.42906 0.81277 0.0
C101 C 0.55809 0.45371 0.83395 0.0
C102 C 0.53309 0.45241 0.83236 0.0
C103 C 0.53764 0.42786 0.81121 0.0
C104 C 0.52298 0.4396 0.82085 0.0
C105 C 0.5175 0.46583 0.84204 0.0
C106 C 0.46274 0.55766 0.83677 0.0
C107 C 0.44547 0.55205 0.82626 0.0
C108 C 0.47717 0.53976 0.84239 0.0
C109 C 0.47435 0.51584 0.83777 0.0
C110 C 0.44349 0.52826 0.82115 0.0
C111 C 0.4579 0.51029 0.82684 0.0
C112 C 0.48832 0.49668 0.84457 0.0
C113 C 0.43622 0.52601 0.87522 0.0
C114 C 0.44699 0.53783 0.88691 0.0
C115 C 0.44982 0.51137 0.8664 0.0
C116 C 0.47455 0.50869 0.86895 0.0
C117 C 0.47154 0.53437 0.88975 0.0
C118 C 0.48518 0.51989 0.88087 0.0
C119 C 0.48948 0.49434 0.85926 0.0
H120 H 0.552 0.38893 0.8656 0.0
H121 H 0.52688 0.41585 0.85165 0.0
H122 H 0.57308 0.44854 0.89288 0.0
H123 H 0.54819 0.47525 0.87896 0.0
H124 H 0.59198 0.44397 0.82564 0.0
H125 H 0.56629 0.46411 0.84252 0.0
H126 H 0.52929 0.41776 0.80257 0.0
H127 H 0.50371 0.43861 0.81937 0.0
H128 H 0.46506 0.5759 0.84068 0.0
H129 H 0.4903 0.54456 0.85052 0.0
H130 H 0.43031 0.52343 0.81305 0.0
H131 H 0.45565 0.49197 0.82304 0.0
H132 H 0.41724 0.52797 0.87293 0.0
H133 H 0.44103 0.50228 0.85754 0.0
H134 H 0.48035 0.54334 0.89866 0.0
H135 H 0.50418 0.51793 0.8831 0.0
N136 N 0.50512 0.47836 0.86479 0.0
N137 N 0.50209 0.48211 0.83649 0.0
C138 C 0.50748 0.91702 0.08915 0.0
C139 C 0.4936 0.92456 0.07758 0.0
C140 C 0.52455 0.93224 0.09554 0.0
C141 C 0.52761 0.9556 0.09076 0.0
C142 C 0.49734 0.94768 0.07253 0.0
C143 C 0.51416 0.96301 0.07906 0.0
C144 C 0.54531 0.97218 0.09754 0.0
C145 C 0.49232 0.95495 0.13067 0.0
C146 C 0.5024 0.94444 0.14267 0.0
C147 C 0.50699 0.96519 0.12077 0.0
C148 C 0.53205 0.96453 0.12249 0.0
C149 C 0.52744 0.9443 0.14453 0.0
C150 C 0.54209 0.95427 0.13455 0.0
C151 C 0.54796 0.97554 0.11223 0.0
C152 C 0.61388 0.05943 0.11963 0.0
C153 C 0.62812 0.05146 0.13094 0.0
C154 C 0.59866 0.04351 0.11218 0.0
C155 C 0.59769 0.01931 0.1158 0.0
C156 C 0.62735 0.02715 0.13436 0.0
C157 C 0.6122 0.01129 0.12692 0.0
C158 C 0.58033 0.00259 0.10891 0.0
C159 C 0.63151 0.02544 0.0764 0.0
C160 C 0.62073 0.03586 0.06454 0.0
C161 C 0.61772 0.01307 0.08588 0.0
C162 C 0.59274 0.01151 0.08398 0.0
C163 C 0.59588 0.03307 0.06227 0.0
C164 C 0.58207 0.02109 0.07189 0.0
C165 C 0.57755 -0.00056 0.09421 0.0
H166 H 0.50504 0.89942 0.09341 0.0
H167 H 0.53529 0.92574 0.10424 0.0
H168 H 0.48745 0.95391 0.06343 0.0
H169 H 0.51651 0.9808 0.07502 0.0
H170 H 0.47306 0.95569 0.1291 0.0
H171 H 0.49871 0.97378 0.11183 0.0
H172 H 0.53571 0.93623 0.15364 0.0
H173 H 0.56135 0.95379 0.13621 0.0
H174 H 0.61383 0.07812 0.11688 0.0
H175 H 0.58718 0.05024 0.10386 0.0
H176 H 0.63831 0.02042 0.14291 0.0
H177 H 0.61164 0.99272 0.12993 0.0
H178 H 0.65053 0.02726 0.07859 0.0
H179 H 0.62664 0.00495 0.09476 0.0
H180 H 0.587 0.04025 0.05309 0.0
H181 H 0.56291 0.01968 0.07 0.0
N182 N 0.56007 0.98441 0.08914 0.0
N183 N 0.56552 0.99043 0.11729 0.0
C184 C 0.04374 0.61442 0.89768 0.0
C185 C 0.05707 0.6036 0.88693 0.0
C186 C 0.02836 0.60064 0.90563 0.0
C187 C 0.02639 0.5758 0.90307 0.0
C188 C 0.05548 0.5787 0.88468 0.0
C189 C 0.04027 0.565 0.89262 0.0
C190 C 0.00861 0.56098 0.91021 0.0
C191 C 0.05981 0.58645 0.94433 0.0
C192 C 0.04938 0.60211 0.95419 0.0
C193 C 0.0455 0.57339 0.93471 0.0
C194 C 0.02051 0.57582 0.93473 0.0
C195 C 0.02433 0.6044 0.95427 0.0
C196 C 0.00999 0.59113 0.9447 0.0
C197 C 0.00531 0.56148 0.92484 0.0
C198 C 0.95099 0.47129 0.93277 0.0
C199 C 0.93253 0.47837 0.94171 0.0
C200 C 0.96502 0.48841 0.92643 0.0
C201 C 0.96088 0.51292 0.92893 0.0
C202 C 0.9286 0.50292 0.94435 0.0
C203 C 0.94287 0.52008 0.93812 0.0
C204 C 0.97562 0.53092 0.92205 0.0
C205 C 0.92644 0.49879 0.88873 0.0
C206 C 0.93809 0.48699 0.87765 0.0
C207 C 0.93944 0.51304 0.89846 0.0
C208 C 0.96439 0.51536 0.89744 0.0
C209 C 0.96299 0.48956 0.87656 0.0
C210 C 0.97599 0.50365 0.88634 0.0
C211 C 0.97845 0.53089 0.90739 0.0
H212 H 0.04447 0.63361 0.89956 0.0
H213 H 0.01744 0.60953 0.9134 0.0
H214 H 0.06582 0.56979 0.87663 0.0
H215 H 0.0391 0.54589 0.89044 0.0
H216 H 0.07909 0.58452 0.94394 0.0
H217 H 0.05396 0.56126 0.9273 0.0
H218 H 0.01586 0.61624 0.96182 0.0
H219 H 0.9907 0.59298 0.94498 0.0
H220 H 0.95432 0.4525 0.9305 0.0
H221 H 0.97911 0.48251 0.91955 0.0
H222 H 0.91463 0.50882 0.95131 0.0
H223 H 0.93958 0.53891 0.94027 0.0
H224 H 0.9072 0.49744 0.88969 0.0
H225 H 0.9299 0.52255 0.90662 0.0
H226 H 0.97248 0.48049 0.86821 0.0
H227 H 0.99519 0.50528 0.88527 0.0
N228 N 0.99497 0.54575 0.90209 0.0
N229 N 0.98894 0.54641 0.93022 0.0
C230 C 0.44932 0.52292 0.13724 0.0
C231 C 0.45988 0.53276 0.12551 0.0
C232 C 0.46302 0.50948 0.14661 0.0
C233 C 0.48774 0.5064 0.1447 0.0
C234 C 0.48435 0.52901 0.12328 0.0
C235 C 0.49818 0.51601 0.13283 0.0
C236 C 0.50266 0.49243 0.15464 0.0
C237 C 0.47449 0.55429 0.1798 0.0
C238 C 0.45728 0.54773 0.18948 0.0
C239 C 0.48861 0.5369 0.1733 0.0
C240 C 0.48569 0.51263 0.17632 0.0
C241 C 0.45459 0.52345 0.19264 0.0
C242 C 0.46888 0.50604 0.1862 0.0
C243 C 0.50049 0.49422 0.16936 0.0
C244 C 0.5834 0.43529 0.19051 0.0
C245 C 0.57237 0.42362 0.20151 0.0
C246 C 0.56978 0.44851 0.18102 0.0
C247 C 0.54476 0.44976 0.1821 0.0
C248 C 0.54748 0.42558 0.20292 0.0
C249 C 0.5338 0.43854 0.19329 0.0
C250 C 0.53007 0.46386 0.17218 0.0
C251 C 0.56395 0.4064 0.14455 0.0
C252 C 0.58209 0.41615 0.13649 0.0
C253 C 0.54805 0.42147 0.15165 0.0
C254 C 0.54986 0.44641 0.15053 0.0
C255 C 0.584 0.44111 0.13554 0.0
C256 C 0.5678 0.45611 0.14236 0.0
C257 C 0.53277 0.4626 0.1575 0.0
H258 H 0.43035 0.5252 0.13898 0.0
H259 H 0.45417 0.50133 0.15526 0.0
H260 H 0.49283 0.53639 0.11426 0.0
H261 H 0.51711 0.51365 0.131 0.0
H262 H 0.47685 0.57286 0.17712 0.0
H263 H 0.50181 0.54239 0.16589 0.0
H264 H 0.44165 0.51796 0.2002 0.0
H265 H 0.46657 0.48741 0.18877 0.0
H266 H 0.60264 0.43446 0.18938 0.0
H267 H 0.5789 0.45798 0.17295 0.0
H268 H 0.53858 0.41672 0.21132 0.0
H269 H 0.51458 0.43959 0.19448 0.0
H270 H 0.56216 0.38717 0.14535 0.0
H271 H 0.53414 0.41369 0.15782 0.0
H272 H 0.59771 0.44896 0.12925 0.0
H273 H 0.56937 0.47532 0.14135 0.0
N274 N 0.51897 0.47688 0.14931 0.0
N275 N 0.514 0.47966 0.17754 0.0
C276 C 0.50855 0.92688 0.40026 0.0
C277 C 0.49294 0.93583 0.38987 0.0
C278 C 0.52402 0.94233 0.40788 0.0
C279 C 0.5239 0.96701 0.40535 0.0
C280 C 0.49243 0.96061 0.38766 0.0
C281 C 0.50783 0.976 0.39527 0.0
C282 C 0.54187 0.98332 0.41208 0.0
C283 C 0.49614 0.95843 0.44662 0.0
C284 C 0.5082 0.9431 0.45587 0.0
C285 C 0.50888 0.97178 0.43715 0.0
C286 C 0.53392 0.97005 0.43673 0.0
C287 C 0.53331 0.9417 0.45561 0.0
C288 C 0.54609 0.95528 0.44621 0.0
C289 C 0.5474 0.98395 0.42659 0.0
C290 C 0.61116 0.07101 0.43243 0.0
C291 C 0.62746 0.06308 0.44272 0.0
C292 C 0.59456 0.05515 0.42617 0.0
C293 C 0.5945 0.03088 0.42974 0.0
C294 C 0.62688 0.03905 0.44667 0.0
C295 C 0.61056 0.02307 0.44021 0.0
C296 C 0.57709 0.01382 0.42312 0.0
C297 C 0.62119 0.04019 0.38761 0.0
C298 C 0.60799 0.05371 0.37786 0.0
C299 C 0.6095 0.02705 0.39768 0.0
C300 C 0.5844 0.02728 0.39825 0.0
C301 C 0.58284 0.05377 0.37846 0.0
C302 C 0.57119 0.04054 0.38847 0.0
C303 C 0.57165 0.01301 0.40857 0.0
H304 H 0.50953 0.90783 0.40208 0.0
H305 H 0.5367 0.93484 0.41533 0.0
H306 H 0.48035 0.96808 0.37987 0.0
H307 H 0.50745 0.99496 0.39312 0.0
H308 H 0.47678 0.9597 0.4465 0.0
H309 H 0.49917 0.98343 0.4301 0.0
H310 H 0.54303 0.93014 0.4627 0.0
H311 H 0.56543 0.95391 0.44613 0.0
H312 H 0.61096 0.08959 0.42943 0.0
H313 H 0.58166 0.06197 0.41862 0.0
H314 H 0.63928 0.03257 0.45461 0.0
H315 H 0.61061 0.00454 0.44331 0.0
H316 H 0.64054 0.03939 0.3873 0.0
H317 H 0.62004 0.01647 0.40492 0.0
H318 H 0.57211 0.06423 0.37126 0.0
H319 H 0.5518 0.04089 0.38869 0.0
N320 N 0.55416 0.99794 0.40366 0.0
N321 N 0.56486 -0.00091 0.43156 0.0
C322 C 0.14752 0.00575 0.65208 0.0
C323 C 0.13727 0.99203 0.64092 0.0
C324 C 0.13307 0.02012 0.66065 0.0
C325 C 0.10813 0.02072 0.65829 0.0
C326 C 0.11229 0.99225 0.63885 0.0
C327 C 0.09792 0.0065 0.64739 0.0
C328 C 0.09257 0.03756 0.6661 0.0
C329 C 0.12012 0.98741 0.69907 0.0
C330 C 0.1353 -0.0014 0.7092 0.0
C331 C 0.10684 0.00106 0.68961 0.0
C332 C 0.10846 0.02613 0.69017 0.0
C333 C 0.13704 0.0237 0.70968 0.0
C334 C 0.12348 0.03737 0.70033 0.0
C335 C 0.09322 0.04067 0.68085 0.0
C336 C 0.00105 0.09197 0.6903 0.0
C337 C 0.0075 0.11158 0.69909 0.0
C338 C 0.01863 0.07776 0.68414 0.0
C339 C 0.04297 0.0829 0.68666 0.0
C340 C 0.0319 0.11624 0.70196 0.0
C341 C 0.04953 0.10182 0.6959 0.0
C342 C 0.06139 0.06893 0.67924 0.0
C343 C 0.02662 0.11779 0.64846 0.0
C344 C 0.01434 0.10607 0.63725 0.0
C345 C 0.04206 0.10506 0.65725 0.0
C346 C 0.04509 0.08024 0.65519 0.0
C347 C 0.01784 0.08137 0.63499 0.0
C348 C 0.0331 0.06859 0.64387 0.0
C349 C 0.06126 0.06644 0.66449 0.0
H350 H 0.16674 0.0061 0.65384 0.0
H351 H 0.14148 0.03138 0.66875 0.0
H352 H 0.10382 0.98156 0.63049 0.0
H353 H 0.07875 0.00664 0.64536 0.0
H354 H 0.1186 0.96808 0.69842 0.0
H355 H 0.09498 0.99205 0.68203 0.0
H356 H 0.1485 0.03273 0.71746 0.0
H357 H 0.12471 0.05672 0.70102 0.0
H358 H 0.9824 0.08806 0.68782 0.0
H359 H 0.01323 0.06302 0.67718 0.0
H360 H 0.03733 0.13112 0.70881 0.0
H361 H 0.06825 0.10592 0.69803 0.0
H362 H 0.02462 0.1369 0.65027 0.0
H363 H 0.0518 0.11468 0.66557 0.0
H364 H 0.00851 0.07187 0.62646 0.0
H365 H 0.03531 0.04952 0.64199 0.0
N366 N 0.07666 0.05067 0.65852 0.0
N367 N 0.07755 0.05621 0.68688 0.0
Zn368 Zn 0.29558 0.73952 0.99003 0.0
Zn369 Zn 0.30798 0.70756 0.01044 0.0
O370 O 0.27138 0.70598 0.01 0.0
O371 O 0.26088 0.733 0.99456 0.0
O372 O 0.31852 0.68564 0.02588 0.0
O373 O 0.31419 0.76556 0.00083 0.0
O374 O 0.32356 0.73913 0.0168 0.0
C375 C 0.2552 0.71734 0.00327 0.0
C376 C 0.32301 0.69844 0.98013 0.0
O377 O 0.32272 0.69293 0.99298 0.0
O378 O 0.31262 0.71731 0.97605 0.0
C379 C 0.32269 0.66349 0.02376 0.0
O380 O 0.31885 0.65397 0.01118 0.0
C381 C 0.32486 0.76027 0.0122 0.0
Zn382 Zn 0.31324 0.76745 0.27914 0.0
Zn383 Zn 0.33446 0.79567 0.2598 0.0
O384 O 0.30083 0.80976 0.26099 0.0
O385 O 0.2826 0.78627 0.27558 0.0
O386 O 0.35048 0.81497 0.24503 0.0
O387 O 0.32114 0.73799 0.26729 0.0
O388 O 0.33732 0.76142 0.25192 0.0
C389 C 0.28222 0.80411 0.26762 0.0
C390 C 0.35336 0.79555 0.29029 0.0
O391 O 0.35424 0.80248 0.2777 0.0
O392 O 0.3376 0.78054 0.29368 0.0
C393 C 0.36164 0.83442 0.24783 0.0
O394 O 0.3624 0.84292 0.26079 0.0
C395 C 0.33171 0.74057 0.25584 0.0
Zn396 Zn 0.27456 0.78886 0.4931 0.0
Zn397 Zn 0.2624 0.82522 0.51129 0.0
O398 O 0.29891 0.82734 0.51118 0.0
O399 O 0.30953 0.79745 0.49717 0.0
O400 O 0.25254 0.8503 0.52551 0.0
O401 O 0.25712 0.76497 0.50497 0.0
O402 O 0.24714 0.79512 0.5189 0.0
C403 C 0.31515 0.81524 0.50509 0.0
C404 C 0.24606 0.82707 0.48062 0.0
O405 O 0.2471 0.83612 0.49299 0.0
O406 O 0.256 0.80709 0.47795 0.0
C407 C 0.25983 0.84904 0.53819 0.0
O408 O 0.2747 0.83184 0.54168 0.0
C409 C 0.24626 0.77291 0.51562 0.0
Zn410 Zn 0.26349 0.75852 0.74988 0.0
Zn411 Zn 0.23278 0.74742 0.77063 0.0
O412 O 0.2322 0.78407 0.7712 0.0
O413 O 0.25975 0.79335 0.75609 0.0
O414 O 0.21094 0.73739 0.78609 0.0
O415 O 0.28861 0.73725 0.75872 0.0
O416 O 0.26452 0.73145 0.77626 0.0
C417 C 0.24435 0.79972 0.76498 0.0
C418 C 0.22107 0.73395 0.73965 0.0
O419 O 0.21666 0.73365 0.75267 0.0
O420 O 0.23985 0.74406 0.73552 0.0
C421 C 0.19988 0.7175 0.78481 0.0
O422 O 0.20268 0.70416 0.77345 0.0
C423 C 0.28458 0.72818 0.77045 0.0
Zn424 Zn 0.81573 0.2556 0.53224 0.0
Zn425 Zn 0.84746 0.24432 0.51159 0.0
O426 O 0.84778 0.28096 0.5118 0.0
O427 O 0.8206 0.29044 0.52736 0.0
O428 O 0.87022 0.23416 0.49638 0.0
O429 O 0.79069 0.23517 0.52191 0.0
O430 O 0.81609 0.22831 0.50497 0.0
C431 C 0.83585 0.29672 0.51853 0.0
C432 C 0.85735 0.23037 0.54229 0.0
O433 O 0.86256 0.23057 0.52939 0.0
O434 O 0.83828 0.24025 0.54645 0.0
C435 C 0.88019 0.21373 0.49705 0.0
O436 O 0.87555 0.19999 0.50762 0.0
C437 C 0.79546 0.22565 0.51012 0.0
Zn438 Zn 0.79145 0.29397 0.76315 0.0
Zn439 Zn 0.80527 0.32503 0.74337 0.0
O440 O 0.76859 0.32722 0.74258 0.0
O441 O 0.7569 0.30084 0.75776 0.0
O442 O 0.81606 0.3461 0.72793 0.0
O443 O 0.80999 0.26712 0.7537 0.0
O444 O 0.82129 0.29317 0.73826 0.0
C445 C 0.75187 0.31666 0.74886 0.0
C446 C 0.81902 0.33515 0.77398 0.0
O447 O 0.81952 0.34076 0.76114 0.0
O448 O 0.80831 0.31628 0.77752 0.0
C449 C 0.80751 0.36677 0.72566 0.0
O450 O 0.79057 0.37525 0.7337 0.0
C451 C 0.82192 0.27209 0.74304 0.0
Zn452 Zn 0.76857 0.27 0.02347 0.0
Zn453 Zn 0.73184 0.28159 0.00547 0.0
O454 O 0.73075 0.24505 0.00506 0.0
O455 O 0.76076 0.23489 0.01909 0.0
O456 O 0.70657 0.29144 0.99139 0.0
O457 O 0.79206 0.28833 0.01185 0.0
O458 O 0.76154 0.29831 0.99823 0.0
C459 C 0.74319 0.229 0.01107 0.0
C460 C 0.72938 0.29655 0.03631 0.0
O461 O 0.72016 0.29532 0.02398 0.0
O462 O 0.74996 0.28776 0.03879 0.0
C463 C 0.70855 0.28574 0.97849 0.0
O464 O 0.72666 0.27231 0.97462 0.0
C465 C 0.78376 0.29962 0.00147 0.0
Zn466 Zn 0.78098 0.24752 0.24111 0.0
Zn467 Zn 0.75669 0.22104 0.26012 0.0
O468 O 0.74039 0.25356 0.26152 0.0
O469 O 0.76001 0.27576 0.24689 0.0
O470 O 0.7403 0.20162 0.27456 0.0
O471 O 0.81224 0.24056 0.25169 0.0
O472 O 0.79171 0.21931 0.26637 0.0
C473 C 0.74352 0.27351 0.25567 0.0
C474 C 0.75459 0.2067 0.22896 0.0
O475 O 0.74907 0.20353 0.24164 0.0
O476 O 0.76809 0.22398 0.2259 0.0
C477 C 0.71957 0.19268 0.2724 0.0
O478 O 0.70831 0.19629 0.26039 0.0
C479 C 0.8116 0.22746 0.26233 0.0
H480 H 0.11161 0.93851 0.31118 0.0
H481 H 0.13297 0.90621 0.299 0.0
H482 H 0.18957 0.95537 0.28957 0.0
H483 H 0.1682 0.98785 0.30167 0.0
H484 H 0.17662 0.9221 0.26698 0.0
H485 H 0.1975 0.92346 0.31675 0.0
H486 H 0.18773 0.92316 0.34182 0.0
H487 H 0.15239 0.85531 0.33559 0.0
H488 H 0.16169 0.85536 0.31044 0.0
H489 H 0.28004 0.85045 0.25929 0.0
H490 H 0.24801 0.87907 0.2636 0.0
H491 H 0.20454 0.82281 0.27997 0.0
H492 H 0.23701 0.79423 0.27619 0.0
H493 H 0.20627 0.85766 0.29774 0.0
H494 H 0.18953 0.85304 0.24869 0.0
H495 H 0.19804 0.85299 0.22347 0.0
H496 H 0.22364 0.92538 0.22753 0.0
H497 H 0.21561 0.92577 0.25283 0.0
C498 C 0.12837 0.94254 0.30626 0.0
C499 C 0.13834 0.96563 0.30743 0.0
C500 C 0.14056 0.92408 0.29936 0.0
C501 C 0.16286 0.92845 0.29347 0.0
C502 C 0.17234 0.95171 0.29403 0.0
C503 C 0.16025 0.97015 0.30104 0.0
C504 C 0.17729 0.90839 0.28784 0.0
C505 C 0.18327 0.90801 0.27365 0.0
C506 C 0.18529 0.88975 0.29653 0.0
C507 C 0.18004 0.88955 0.31169 0.0
C508 C 0.18749 0.90856 0.32071 0.0
C509 C 0.18206 0.90843 0.33493 0.0
C510 C 0.16935 0.88929 0.34028 0.0
C511 C 0.16217 0.87016 0.33143 0.0
C512 C 0.16754 0.87022 0.31719 0.0
C513 C 0.26345 0.84402 0.26349 0.0
C514 C 0.26114 0.82011 0.26752 0.0
C515 C 0.24505 0.86042 0.26589 0.0
C516 C 0.22375 0.85313 0.27207 0.0
C517 C 0.22084 0.8289 0.27525 0.0
C518 C 0.23938 0.81256 0.27305 0.0
C519 C 0.20593 0.8712 0.27675 0.0
C520 C 0.19937 0.87137 0.29087 0.0
C521 C 0.19728 0.88948 0.26793 0.0
C522 C 0.20211 0.88936 0.25269 0.0
C523 C 0.19714 0.86889 0.24423 0.0
C524 C 0.20185 0.86882 0.22991 0.0
C525 C 0.21141 0.88915 0.2239 0.0
C526 C 0.21624 0.90963 0.2322 0.0
C527 C 0.21158 0.9098 0.24653 0.0
H528 H 0.21505 0.88906 0.21281 0.0
H529 H 0.1651 0.88924 0.35128 0.0
H530 H 0.0723 0.67232 0.57662 0.0
H531 H 0.10368 0.69697 0.56685 0.0
H532 H 0.14214 0.63312 0.55451 0.0
H533 H 0.11106 0.60844 0.56465 0.0
H534 H 0.17244 0.66464 0.56484 0.0
H535 H 0.10885 0.66656 0.53056 0.0
H536 H 0.06756 0.67229 0.52154 0.0
H537 H 0.07012 0.74628 0.53484 0.0
H538 H 0.11133 0.74091 0.54412 0.0
H539 H 0.24455 0.72384 0.51428 0.0
H540 H 0.2163 0.69776 0.52591 0.0
H541 H 0.1846 0.75944 0.5462 0.0
H542 H 0.21286 0.7856 0.53483 0.0
H543 H 0.15159 0.72842 0.53142 0.0
H544 H 0.21665 0.72497 0.56546 0.0
H545 H 0.25839 0.71792 0.57329 0.0
H546 H 0.25342 0.64479 0.55853 0.0
H547 H 0.21173 0.6515 0.55042 0.0
C548 C 0.0874 0.66358 0.57175 0.0
C549 C 0.08921 0.6385 0.5713 0.0
C550 C 0.10531 0.67765 0.56615 0.0
C551 C 0.12511 0.6669 0.55972 0.0
C552 C 0.12705 0.64182 0.5594 0.0
C553 C 0.10929 0.62775 0.56518 0.0
C554 C 0.14378 0.68183 0.55337 0.0
C555 C 0.16788 0.67835 0.55738 0.0
C556 C 0.13787 0.69994 0.54376 0.0
C557 C 0.1131 0.70327 0.53816 0.0
C558 C 0.10054 0.68401 0.53166 0.0
C559 C 0.07716 0.6872 0.52648 0.0
C560 C 0.0662 0.70962 0.52765 0.0
C561 C 0.07862 0.72891 0.53396 0.0
C562 C 0.102 0.72581 0.53917 0.0
C563 C 0.23176 0.73182 0.52136 0.0
C564 C 0.23091 0.75679 0.5236 0.0
C565 C 0.21569 0.7169 0.528 0.0
C566 C 0.1984 0.72673 0.53688 0.0
C567 C 0.19782 0.75156 0.53936 0.0
C568 C 0.21406 0.76645 0.53289 0.0
C569 C 0.18005 0.7113 0.543 0.0
C570 C 0.15605 0.71467 0.53888 0.0
C571 C 0.1861 0.69287 0.55232 0.0
C572 C 0.21115 0.68881 0.5572 0.0
C573 C 0.22453 0.70745 0.56376 0.0
C574 C 0.24816 0.7035 0.56828 0.0
C575 C 0.25857 0.68095 0.56638 0.0
C576 C 0.24534 0.66227 0.55998 0.0
C577 C 0.2217 0.66612 0.55543 0.0
H578 H 0.27687 0.67792 0.56988 0.0
H579 H 0.0481 0.71205 0.52363 0.0
H580 H 0.43226 0.56043 0.79901 0.0
H581 H 0.40566 0.59195 0.79037 0.0
H582 H 0.39578 0.6179 0.83279 0.0
H583 H 0.42194 0.58618 0.84151 0.0
H584 H 0.35365 0.6151 0.8179 0.0
H585 H 0.43219 0.6474 0.81196 0.0
H586 H 0.47373 0.64739 0.80378 0.0
H587 H 0.44811 0.64078 0.76108 0.0
H588 H 0.4064 0.64041 0.76902 0.0
H589 H 0.29306 0.72111 0.79834 0.0
H590 H 0.322 0.69355 0.80888 0.0
H591 H 0.34422 0.67095 0.76758 0.0
H592 H 0.31661 0.69966 0.75714 0.0
H593 H 0.38112 0.67324 0.78328 0.0
H594 H 0.30214 0.63868 0.78948 0.0
H595 H 0.26073 0.63902 0.79797 0.0
H596 H 0.28717 0.6496 0.84029 0.0
H597 H 0.32868 0.64962 0.83204 0.0
C598 C 0.42429 0.57277 0.80649 0.0
C599 C 0.42928 0.57095 0.82092 0.0
C600 C 0.40927 0.59086 0.80154 0.0
C601 C 0.39899 0.6074 0.81095 0.0
C602 C 0.40363 0.60537 0.82537 0.0
C603 C 0.41871 0.58737 0.83031 0.0
C604 C 0.38326 0.62675 0.80575 0.0
C605 C 0.35968 0.628 0.81044 0.0
C606 C 0.39111 0.64333 0.7959 0.0
C607 C 0.41618 0.64365 0.7911 0.0
C608 C 0.43542 0.64575 0.80083 0.0
C609 C 0.45899 0.64585 0.79624 0.0
C610 C 0.46356 0.64403 0.78192 0.0
C611 C 0.44455 0.64216 0.77217 0.0
C612 C 0.42094 0.64203 0.77671 0.0
C613 C 0.30431 0.71036 0.79156 0.0
C614 C 0.30261 0.71242 0.77694 0.0
C615 C 0.32069 0.69447 0.79757 0.0
C616 C 0.33492 0.67965 0.78903 0.0
C617 C 0.33347 0.6821 0.77442 0.0
C618 C 0.31766 0.69849 0.76845 0.0
C619 C 0.35117 0.66138 0.79516 0.0
C620 C 0.37496 0.66035 0.7907 0.0
C621 C 0.34345 0.64492 0.80519 0.0
C622 C 0.31849 0.64438 0.81013 0.0
C623 C 0.2991 0.64117 0.80059 0.0
C624 C 0.27562 0.6413 0.80536 0.0
C625 C 0.27134 0.64442 0.81966 0.0
C626 C 0.29052 0.64724 0.82922 0.0
C627 C 0.31401 0.64716 0.82451 0.0
H628 H 0.25319 0.64466 0.82336 0.0
H629 H 0.48183 0.64411 0.77839 0.0
H630 H 0.49624 0.87585 0.07334 0.0
H631 H 0.46615 0.84933 0.06252 0.0
H632 H 0.42028 0.90992 0.05464 0.0
H633 H 0.44956 0.93643 0.0664 0.0
H634 H 0.39436 0.87523 0.06296 0.0
H635 H 0.45363 0.88172 0.02826 0.0
H636 H 0.49405 0.88086 0.01844 0.0
H637 H 0.50044 0.80621 0.02754 0.0
H638 H 0.46016 0.80669 0.0376 0.0
H639 H 0.32372 0.80905 0.01005 0.0
H640 H 0.35101 0.83828 0.02156 0.0
H641 H 0.38829 0.7811 0.04233 0.0
H642 H 0.36088 0.75187 0.03117 0.0
H643 H 0.4174 0.81545 0.02638 0.0
H644 H 0.35665 0.81132 0.06174 0.0
H645 H 0.31527 0.81389 0.07007 0.0
H646 H 0.3108 0.88696 0.05731 0.0
H647 H 0.35208 0.88471 0.04871 0.0
C648 C 0.47963 0.88357 0.06951 0.0
C649 C 0.47541 0.90836 0.07074 0.0
C650 C 0.46255 0.86838 0.06312 0.0
C651 C 0.44113 0.87767 0.0575 0.0
C652 C 0.43674 0.90235 0.05881 0.0
C653 C 0.45366 0.91753 0.0654 0.0
C654 C 0.42322 0.86156 0.05043 0.0
C655 C 0.39938 0.86243 0.05481 0.0
C656 C 0.42971 0.8447 0.03985 0.0
C657 C 0.45395 0.84431 0.0338 0.0
C658 C 0.46372 0.86516 0.02826 0.0
C659 C 0.4866 0.86474 0.02264 0.0
C660 C 0.49983 0.84351 0.0224 0.0
C661 C 0.49018 0.82265 0.02775 0.0
C662 C 0.46731 0.82298 0.0334 0.0
C663 C 0.3376 0.80275 0.01717 0.0
C664 C 0.34017 0.77819 0.01972 0.0
C665 C 0.3531 0.81943 0.02373 0.0
C666 C 0.37158 0.81173 0.03274 0.0
C667 C 0.37409 0.78729 0.03539 0.0
C668 C 0.35836 0.77067 0.02905 0.0
C669 C 0.38889 0.82904 0.03907 0.0
C670 C 0.41253 0.82839 0.03449 0.0
C671 C 0.38212 0.84638 0.04923 0.0
C672 C 0.35734 0.84775 0.05443 0.0
C673 C 0.34676 0.82786 0.06057 0.0
C674 C 0.32334 0.82927 0.06538 0.0
C675 C 0.31038 0.85055 0.06418 0.0
C676 C 0.32085 0.87048 0.05821 0.0
C677 C 0.34425 0.86915 0.05338 0.0
H678 H 0.29226 0.85161 0.0679 0.0
H679 H 0.51754 0.84322 0.01803 0.0
H680 H 0.04644 0.64997 0.96049 0.0
H681 H 0.07534 0.67439 0.9743 0.0
H682 H 0.11616 0.61099 0.9837 0.0
H683 H 0.08726 0.58649 0.97003 0.0
H684 H 0.11477 0.64511 0.00645 0.0
H685 H 0.13063 0.64061 0.95642 0.0
H686 H 0.11945 0.64552 0.9315 0.0
H687 H 0.10636 0.72038 0.93929 0.0
H688 H 0.11712 0.7158 0.96432 0.0
H689 H 0.23734 0.67484 0.01186 0.0
H690 H 0.19631 0.66047 0.00879 0.0
H691 H 0.17442 0.72982 0.99414 0.0
H692 H 0.21576 0.74392 0.9966 0.0
H693 H 0.1609 0.69832 0.97617 0.0
H694 H 0.15297 0.70459 0.02548 0.0
H695 H 0.16391 0.69979 0.05043 0.0
H696 H 0.16163 0.62331 0.04481 0.0
H697 H 0.15102 0.62762 0.01977 0.0
C698 C 0.06126 0.6412 0.96579 0.0
C699 C 0.06483 0.61641 0.96406 0.0
C700 C 0.07773 0.65515 0.97365 0.0
C701 C 0.09793 0.64447 0.97991 0.0
C702 C 0.10065 0.61954 0.97896 0.0
C703 C 0.0843 0.60562 0.97104 0.0
C704 C 0.1178 0.65934 0.98583 0.0
C705 C 0.12494 0.65681 0.99991 0.0
C706 C 0.13056 0.675 0.97732 0.0
C707 C 0.12439 0.67781 0.96225 0.0
C708 C 0.12519 0.65807 0.95283 0.0
C709 C 0.11895 0.6608 0.93869 0.0
C710 C 0.11212 0.68324 0.93382 0.0
C711 C 0.1116 0.703 0.94308 0.0
C712 C 0.11776 0.70035 0.95725 0.0
C713 C 0.22368 0.68722 0.00834 0.0
C714 C 0.22979 0.71041 0.00432 0.0
C715 C 0.20012 0.67902 0.00666 0.0
C716 C 0.18214 0.69407 0.00127 0.0
C717 C 0.18797 0.71783 0.99825 0.0
C718 C 0.21159 0.72588 0.99967 0.0
C719 C 0.15838 0.68405 0.9969 0.0
C720 C 0.15052 0.68728 0.98299 0.0
C721 C 0.14497 0.66918 0.00563 0.0
C722 C 0.15132 0.66645 0.0207 0.0
C723 C 0.15496 0.68674 0.02953 0.0
C724 C 0.16108 0.6841 0.0437 0.0
C725 C 0.1635 0.66126 0.04919 0.0
C726 C 0.15975 0.641 0.04054 0.0
C727 C 0.15364 0.64353 0.02636 0.0
H728 H 0.16824 0.65926 0.06016 0.0
H729 H 0.1073 0.68531 0.92287 0.0
H730 H 0.40887 0.54698 0.19305 0.0
H731 H 0.38416 0.57835 0.20387 0.0
H732 H 0.44724 0.6216 0.21192 0.0
H733 H 0.472 0.59029 0.20129 0.0
H734 H 0.41822 0.62015 0.23464 0.0
H735 H 0.4114 0.634 0.18507 0.0
H736 H 0.40245 0.62243 0.16039 0.0
H737 H 0.32961 0.6072 0.17049 0.0
H738 H 0.33823 0.61835 0.1953 0.0
H739 H 0.35325 0.73944 0.23039 0.0
H740 H 0.37051 0.70468 0.21831 0.0
H741 H 0.34483 0.6588 0.25038 0.0
H742 H 0.32756 0.69344 0.26258 0.0
H743 H 0.35376 0.6607 0.20748 0.0
H744 H 0.39115 0.62078 0.25849 0.0
H745 H 0.40237 0.63376 0.28268 0.0
H746 H 0.41802 0.70431 0.26853 0.0
H747 H 0.40721 0.69166 0.24425 0.0
C748 C 0.41744 0.56311 0.19724 0.0
C749 C 0.44231 0.56628 0.19631 0.0
C750 C 0.40332 0.58103 0.20332 0.0
C751 C 0.4139 0.60231 0.20859 0.0
C752 C 0.43877 0.6053 0.20788 0.0
C753 C 0.45284 0.5875 0.20174 0.0
C754 C 0.39915 0.62163 0.21479 0.0
C755 C 0.40402 0.6289 0.22873 0.0
C756 C 0.38082 0.63316 0.207 0.0
C757 C 0.37552 0.62677 0.19207 0.0
C758 C 0.39352 0.62801 0.18205 0.0
C759 C 0.3885 0.62156 0.16804 0.0
C760 C 0.3655 0.61401 0.16388 0.0
C761 C 0.34743 0.613 0.17373 0.0
C762 C 0.35237 0.61941 0.18777 0.0
C763 C 0.35094 0.72192 0.23478 0.0
C764 C 0.33929 0.71926 0.24755 0.0
C765 C 0.36071 0.70207 0.22781 0.0
C766 C 0.35915 0.67927 0.23355 0.0
C767 C 0.34639 0.67632 0.24586 0.0
C768 C 0.33653 0.69615 0.25282 0.0
C769 C 0.37276 0.65907 0.22735 0.0
C770 C 0.36773 0.65168 0.21343 0.0
C771 C 0.39121 0.64761 0.23508 0.0
C772 C 0.3981 0.65533 0.2496 0.0
C773 C 0.39705 0.63904 0.26055 0.0
C774 C 0.40333 0.64634 0.27427 0.0
C775 C 0.41081 0.66987 0.27715 0.0
C776 C 0.41213 0.68612 0.2663 0.0
C777 C 0.4059 0.6789 0.25256 0.0
H778 H 0.41564 0.67549 0.28778 0.0
H779 H 0.36166 0.609 0.15303 0.0
H780 H 0.5136 0.8953 0.46032 0.0
H781 H 0.48726 0.86944 0.47348 0.0
H782 H 0.44506 0.93085 0.48562 0.0
H783 H 0.47139 0.95681 0.47257 0.0
H784 H 0.45105 0.89653 0.5072 0.0
H785 H 0.42797 0.90093 0.45785 0.0
H786 H 0.43572 0.89711 0.43256 0.0
H787 H 0.45325 0.82283 0.43717 0.0
H788 H 0.44596 0.82633 0.46255 0.0
H789 H 0.33159 0.859 0.51437 0.0
H790 H 0.37092 0.87611 0.51062 0.0
H791 H 0.39503 0.8083 0.49349 0.0
H792 H 0.35529 0.79129 0.49671 0.0
H793 H 0.40361 0.84099 0.47609 0.0
H794 H 0.41947 0.83471 0.52493 0.0
H795 H 0.41194 0.83859 0.55023 0.0
H796 H 0.40848 0.91508 0.5472 0.0
H797 H 0.41564 0.91166 0.52184 0.0
C798 C 0.49905 0.90334 0.46608 0.0
C799 C 0.49435 0.928 0.46532 0.0
C800 C 0.48402 0.88856 0.47355 0.0
C801 C 0.46415 0.89825 0.48042 0.0
C802 C 0.46033 0.92306 0.4804 0.0
C803 C 0.47522 0.93781 0.47285 0.0
C804 C 0.44578 0.88241 0.48617 0.0
C805 C 0.44059 0.88435 0.50046 0.0
C806 C 0.43265 0.86615 0.47739 0.0
C807 C 0.43671 0.86396 0.46211 0.0
C808 C 0.43366 0.88383 0.45349 0.0
C809 C 0.43794 0.88172 0.43914 0.0
C810 C 0.44504 0.85976 0.43327 0.0
C811 C 0.4478 0.83984 0.44173 0.0
C812 C 0.44359 0.84187 0.4561 0.0
C813 C 0.34542 0.84751 0.51013 0.0
C814 C 0.34022 0.82385 0.50569 0.0
C815 C 0.36803 0.85731 0.50807 0.0
C816 C 0.38607 0.8435 0.5018 0.0
C817 C 0.3814 0.81935 0.49828 0.0
C818 C 0.35867 0.80963 0.50016 0.0
C819 C 0.40843 0.85511 0.49723 0.0
C820 C 0.41433 0.85258 0.48304 0.0
C821 C 0.42221 0.87072 0.50616 0.0
C822 C 0.41797 0.8729 0.52144 0.0
C823 C 0.41694 0.85235 0.52963 0.0
C824 C 0.41276 0.85447 0.54399 0.0
C825 C 0.4097 0.87706 0.55031 0.0
C826 C 0.41086 0.89759 0.54229 0.0
C827 C 0.41502 0.89557 0.52792 0.0
H828 H 0.40646 0.87866 0.56143 0.0
H829 H 0.44836 0.85817 0.42216 0.0
H830 H 0.11886 0.96257 0.72508 0.0
H831 H 0.14239 0.93597 0.74004 0.0
H832 H 0.20661 0.97482 0.73074 0.0
H833 H 0.18306 0.0016 0.71577 0.0
H834 H 0.2091 0.92562 0.7252 0.0
H835 H 0.18785 0.97809 0.76304 0.0
H836 H 0.16065 0.00221 0.77765 0.0
H837 H 0.12237 0.93868 0.7881 0.0
H838 H 0.14911 0.9142 0.77338 0.0
H839 H 0.27285 0.83834 0.76045 0.0
H840 H 0.25949 0.87946 0.75685 0.0
H841 H 0.18775 0.85957 0.76775 0.0
H842 H 0.20128 0.81881 0.77204 0.0
H843 H 0.19467 0.90493 0.77455 0.0
H844 H 0.20767 0.85476 0.7334 0.0
H845 H 0.23139 0.82894 0.71763 0.0
H846 H 0.28106 0.88646 0.71214 0.0
H847 H 0.25777 0.91253 0.72803 0.0
C848 C 0.13796 0.96558 0.72637 0.0
C849 C 0.14921 0.98399 0.71922 0.0
C850 C 0.15133 0.95055 0.73501 0.0
C851 C 0.17619 0.95358 0.73658 0.0
C852 C 0.1874 0.97235 0.72974 0.0
C853 C 0.17397 0.9876 0.72123 0.0
C854 C 0.19061 0.93543 0.74401 0.0
C855 C 0.20647 0.92151 0.73611 0.0
C856 C 0.18652 0.92967 0.75811 0.0
C857 C 0.17043 0.94432 0.76702 0.0
C858 C 0.17352 0.96927 0.76836 0.0
C859 C 0.1582 0.98301 0.77669 0.0
C860 C 0.13978 0.97199 0.78379 0.0
C861 C 0.13666 0.9472 0.7826 0.0
C862 C 0.15192 0.93337 0.77428 0.0
C863 C 0.25441 0.84296 0.76252 0.0
C864 C 0.238 0.82532 0.76629 0.0
C865 C 0.24677 0.86643 0.7604 0.0
C866 C 0.22245 0.87239 0.76157 0.0
C867 C 0.20656 0.85537 0.76667 0.0
C868 C 0.21432 0.83203 0.76911 0.0
C869 C 0.21289 0.8949 0.75566 0.0
C870 C 0.19782 0.90949 0.76377 0.0
C871 C 0.21723 0.90105 0.74162 0.0
C872 C 0.23118 0.88547 0.73202 0.0
C873 C 0.22374 0.86184 0.72889 0.0
C874 C 0.23709 0.84717 0.71993 0.0
C875 C 0.25776 0.85603 0.71393 0.0
C876 C 0.26508 0.8796 0.71683 0.0
C877 C 0.25182 0.89433 0.72581 0.0
H878 H 0.26807 0.84465 0.70699 0.0
H879 H 0.12793 0.98266 0.79022 0.0
H880 H 0.60491 0.40556 0.81784 0.0
H881 H 0.63207 0.38818 0.80075 0.0
H882 H 0.58331 0.40701 0.76711 0.0
H883 H 0.55624 0.4253 0.78413 0.0
H884 H 0.60308 0.35931 0.76474 0.0
H885 H 0.62836 0.44039 0.77044 0.0
H886 H 0.63937 0.47749 0.78359 0.0
H887 H 0.69854 0.44139 0.80334 0.0
H888 H 0.68765 0.40395 0.79048 0.0
H889 H 0.73565 0.35661 0.73551 0.0
H890 H 0.69722 0.37655 0.73897 0.0
H891 H 0.67375 0.31752 0.76351 0.0
H892 H 0.71181 0.29737 0.75995 0.0
H893 H 0.6858 0.39161 0.76409 0.0
H894 H 0.61415 0.31523 0.76539 0.0
H895 H 0.60271 0.27904 0.7515 0.0
H896 H 0.63555 0.30764 0.71531 0.0
H897 H 0.64689 0.34418 0.7289 0.0
C898 C 0.59998 0.40625 0.80681 0.0
C899 C 0.57848 0.41709 0.80238 0.0
C900 C 0.61546 0.39615 0.79707 0.0
C901 C 0.60975 0.39653 0.78269 0.0
C902 C 0.58798 0.40655 0.77818 0.0
C903 C 0.57252 0.4169 0.78794 0.0
C904 C 0.62708 0.38698 0.7725 0.0
C905 C 0.62113 0.3664 0.76444 0.0
C906 C 0.65033 0.3968 0.77184 0.0
C907 C 0.65709 0.41932 0.77954 0.0
C908 C 0.64361 0.44031 0.77766 0.0
C909 C 0.64985 0.46141 0.78506 0.0
C910 C 0.66962 0.46179 0.79431 0.0
C911 C 0.68323 0.44107 0.79617 0.0
C912 C 0.67705 0.41991 0.78881 0.0
C913 C 0.722 0.34747 0.74123 0.0
C914 C 0.72695 0.32557 0.74766 0.0
C915 C 0.70005 0.35894 0.74322 0.0
C916 C 0.68263 0.34861 0.75155 0.0
C917 C 0.68675 0.32576 0.7569 0.0
C918 C 0.70866 0.31431 0.75494 0.0
C919 C 0.66227 0.3631 0.75675 0.0
C920 C 0.66764 0.38469 0.764 0.0
C921 C 0.63847 0.3543 0.7565 0.0
C922 C 0.63148 0.33244 0.74821 0.0
C923 C 0.6188 0.3139 0.75445 0.0
C924 C 0.61236 0.29329 0.74663 0.0
C925 C 0.61843 0.29102 0.73254 0.0
C926 C 0.63092 0.30939 0.72623 0.0
C927 C 0.63739 0.33004 0.734 0.0
H928 H 0.61344 0.27505 0.72651 0.0
H929 H 0.67442 0.47814 0.80002 0.0
H930 H 0.66727 0.02862 0.05646 0.0
H931 H 0.69195 0.05533 0.0429 0.0
H932 H 0.63155 0.10224 0.03682 0.0
H933 H 0.60705 0.0765 0.05091 0.0
H934 H 0.66154 0.09385 0.0121 0.0
H935 H 0.66618 0.11649 0.06191 0.0
H936 H 0.67421 0.10785 0.08681 0.0
H937 H 0.74623 0.08729 0.07735 0.0
H938 H 0.73847 0.09546 0.05234 0.0
H939 H 0.6989 0.21229 0.00322 0.0
H940 H 0.68256 0.1729 0.00752 0.0
H941 H 0.75228 0.14896 0.0218 0.0
H942 H 0.7685 0.18893 0.01815 0.0
H943 H 0.72273 0.1394 0.04032 0.0
H944 H 0.72126 0.12431 0.99131 0.0
H945 H 0.71392 0.13198 0.96625 0.0
H946 H 0.63832 0.13648 0.97304 0.0
H947 H 0.64521 0.12918 0.99819 0.0
C948 C 0.65918 0.04463 0.05228 0.0
C949 C 0.63515 0.05045 0.05495 0.0
C950 C 0.67327 0.0597 0.04439 0.0
C951 C 0.66351 0.08069 0.03888 0.0
C952 C 0.6393 0.08596 0.04088 0.0
C953 C 0.6253 0.07113 0.04893 0.0
C954 C 0.67897 0.09851 0.03232 0.0
C955 C 0.67496 0.1039 0.01819 0.0
C956 C 0.69694 0.11094 0.04021 0.0
C957 C 0.70166 0.10629 0.05525 0.0
C958 C 0.68366 0.10992 0.06513 0.0
C959 C 0.68816 0.10515 0.07926 0.0
C960 C 0.71069 0.09695 0.08365 0.0
C961 C 0.72877 0.09359 0.07392 0.0
C962 C 0.72433 0.09829 0.05978 0.0
C963 C 0.71094 0.19848 0.00691 0.0
C964 C 0.73495 0.20381 0.01048 0.0
C965 C 0.70158 0.17581 0.0093 0.0
C966 C 0.71616 0.15777 0.01495 0.0
C967 C 0.74061 0.16257 0.01751 0.0
C968 C 0.74989 0.18541 0.01537 0.0
C969 C 0.7052 0.13536 0.01997 0.0
C970 C 0.70989 0.12909 0.03394 0.0
C971 C 0.68808 0.12198 0.01182 0.0
C972 C 0.68379 0.12631 0.99668 0.0
C973 C 0.70308 0.12709 0.98749 0.0
C974 C 0.69899 0.13135 0.97326 0.0
C975 C 0.67567 0.13474 0.96806 0.0
C976 C 0.65638 0.13384 0.97708 0.0
C977 C 0.66036 0.1296 0.99132 0.0
H978 H 0.67255 0.13804 0.95704 0.0
H979 H 0.71415 0.09327 0.09459 0.0
H980 H 0.96587 0.10529 0.32488 0.0
H981 H 0.9346 0.12891 0.31354 0.0
H982 H 0.98732 0.1807 0.30176 0.0
H983 H 0.01886 0.15709 0.31335 0.0
H984 H 0.94634 0.20243 0.31021 0.0
H985 H 0.96685 0.1407 0.27765 0.0
H986 H 0.97582 0.09959 0.26936 0.0
H987 H 0.90456 0.07748 0.27895 0.0
H988 H 0.89527 0.11838 0.28751 0.0
H989 H 0.85695 0.24532 0.25922 0.0
H990 H 0.89431 0.2304 0.26992 0.0
H991 H 0.85431 0.17791 0.29204 0.0
H992 H 0.81706 0.19274 0.28166 0.0
H993 H 0.89321 0.15967 0.27545 0.0
H994 H 0.87518 0.22205 0.31006 0.0
H995 H 0.86723 0.26373 0.31769 0.0
H996 H 0.93543 0.28546 0.30249 0.0
H997 H 0.94364 0.24391 0.29459 0.0
C998 C 0.97081 0.1217 0.31987 0.0
C999 C 0.99479 0.12921 0.31979 0.0
C1000 C 0.95295 0.13518 0.3134 0.0
C1001 C 0.95873 0.15627 0.30654 0.0
C1002 C 0.98254 0.16439 0.30692 0.0
C1003 C 0.00049 0.15094 0.31353 0.0
C1004 C 0.93977 0.16924 0.29873 0.0
C1005 C 0.93499 0.19324 0.30241 0.0
C1006 C 0.92499 0.15724 0.28854 0.0
C1007 C 0.93042 0.1326 0.28331 0.0
C1008 C 0.95314 0.12704 0.27808 0.0
C1009 C 0.95828 0.10377 0.27332 0.0
C1010 C 0.94078 0.08593 0.27365 0.0
C1011 C 0.9181 0.09132 0.27871 0.0
C1012 C 0.91287 0.11455 0.2835 0.0
C1013 C 0.85612 0.23078 0.26649 0.0
C1014 C 0.83406 0.22015 0.26955 0.0
C1015 C 0.87743 0.22234 0.27259 0.0
C1016 C 0.87695 0.20305 0.28171 0.0
C1017 C 0.85497 0.19279 0.285 0.0
C1018 C 0.83371 0.20136 0.27907 0.0
C1019 C 0.89931 0.19247 0.2873 0.0
C1020 C 0.90478 0.16893 0.28311 0.0
C1021 C 0.91483 0.20501 0.29682 0.0
C1022 C 0.90988 0.22995 0.30157 0.0
C1023 C 0.88837 0.23576 0.30821 0.0
C1024 C 0.88384 0.25935 0.31262 0.0
C1025 C 0.90077 0.27725 0.31053 0.0
C1026 C 0.9223 0.27158 0.30407 0.0
C1027 C 0.92691 0.24802 0.29964 0.0
H1028 H 0.89724 0.2955 0.31396 0.0
H1029 H 0.9448 0.06792 0.26996 0.0
H1030 H 0.89639 0.50953 0.55716 0.0
H1031 H 0.87263 0.47885 0.54429 0.0
H1032 H 0.93751 0.44253 0.53249 0.0
H1033 H 0.9613 0.47301 0.54543 0.0
H1034 H 0.89853 0.44129 0.51108 0.0
H1035 H 0.9161 0.42503 0.56014 0.0
H1036 H 0.91691 0.43655 0.58527 0.0
H1037 H 0.84054 0.44549 0.58395 0.0
H1038 H 0.83935 0.43437 0.55873 0.0
H1039 H 0.87584 0.31651 0.5076 0.0
H1040 H 0.88873 0.35816 0.50997 0.0
H1041 H 0.82174 0.37683 0.52902 0.0
H1042 H 0.80908 0.33501 0.5271 0.0
H1043 H 0.85669 0.3913 0.54512 0.0
H1044 H 0.83869 0.39902 0.49647 0.0
H1045 H 0.83877 0.38829 0.47126 0.0
H1046 H 0.91531 0.39541 0.47124 0.0
H1047 H 0.91576 0.40585 0.4965 0.0
C1048 C 0.90555 0.49537 0.55147 0.0
C1049 C 0.93059 0.4934 0.55237 0.0
C1050 C 0.892 0.47792 0.54413 0.0
C1051 C 0.90338 0.45845 0.53752 0.0
C1052 C 0.92846 0.45751 0.53748 0.0
C1053 C 0.94198 0.47476 0.54496 0.0
C1054 C 0.8894 0.43725 0.53266 0.0
C1055 C 0.88931 0.43026 0.51844 0.0
C1056 C 0.87712 0.42325 0.5423 0.0
C1057 C 0.87767 0.42918 0.55754 0.0
C1058 C 0.8995 0.4296 0.5652 0.0
C1059 C 0.90003 0.43603 0.57945 0.0
C1060 C 0.87881 0.44185 0.58619 0.0
C1061 C 0.85697 0.44104 0.57871 0.0
C1062 C 0.85636 0.43467 0.56444 0.0
C1063 C 0.8636 0.32958 0.51198 0.0
C1064 C 0.84156 0.32242 0.51732 0.0
C1065 C 0.87094 0.35347 0.51326 0.0
C1066 C 0.85618 0.37071 0.51965 0.0
C1067 C 0.83347 0.36384 0.52411 0.0
C1068 C 0.82626 0.33993 0.523 0.0
C1069 C 0.8657 0.39493 0.5234 0.0
C1070 C 0.86522 0.40246 0.53754 0.0
C1071 C 0.87742 0.40932 0.51364 0.0
C1072 C 0.87726 0.40308 0.49842 0.0
C1073 C 0.85557 0.39813 0.49112 0.0
C1074 C 0.85551 0.39213 0.47681 0.0
C1075 C 0.87703 0.39113 0.46966 0.0
C1076 C 0.89865 0.39618 0.47679 0.0
C1077 C 0.89881 0.40218 0.49111 0.0
H1078 H 0.87695 0.38648 0.45858 0.0
H1079 H 0.8793 0.44696 0.5972 0.0
H1080 H 0.6581 0.0928 0.42978 0.0
H1081 H 0.68673 0.12118 0.44088 0.0
H1082 H 0.66422 0.10013 0.48169 0.0
H1083 H 0.63582 0.07145 0.47065 0.0
H1084 H 0.66649 0.152 0.4768 0.0
H1085 H 0.71344 0.07946 0.47257 0.0
H1086 H 0.73054 0.04501 0.45963 0.0
H1087 H 0.76692 0.09279 0.43273 0.0
H1088 H 0.74973 0.12755 0.44539 0.0
H1089 H 0.75566 0.20534 0.5208 0.0
H1090 H 0.72693 0.1787 0.50872 0.0
H1091 H 0.76511 0.18571 0.47024 0.0
H1092 H 0.79458 0.21159 0.48247 0.0
H1093 H 0.75433 0.14157 0.47299 0.0
H1094 H 0.7095 0.21398 0.47643 0.0
H1095 H 0.69195 0.24965 0.48794 0.0
H1096 H 0.65099 0.20467 0.51423 0.0
H1097 H 0.66854 0.16871 0.50301 0.0
C1098 C 0.65931 0.09427 0.44112 0.0
C1099 C 0.64486 0.07999 0.4494 0.0
C1100 C 0.67564 0.11038 0.44742 0.0
C1101 C 0.67752 0.11264 0.46207 0.0
C1102 C 0.66296 0.09857 0.47036 0.0
C1103 C 0.6469 0.08217 0.46407 0.0
C1104 C 0.69469 0.12975 0.46876 0.0
C1105 C 0.68572 0.14966 0.47614 0.0
C1106 C 0.71967 0.12698 0.46741 0.0
C1107 C 0.73008 0.1061 0.45983 0.0
C1108 C 0.7249 0.08262 0.46381 0.0
C1109 C 0.73465 0.06304 0.45655 0.0
C1110 C 0.74975 0.06671 0.44534 0.0
C1111 C 0.75519 0.08998 0.4414 0.0
C1112 C 0.74546 0.10962 0.44862 0.0
C1113 C 0.75784 0.20136 0.50974 0.0
C1114 C 0.77734 0.21062 0.50257 0.0
C1115 C 0.74132 0.1862 0.50281 0.0
C1116 C 0.74359 0.18048 0.48849 0.0
C1117 C 0.76296 0.18987 0.48129 0.0
C1118 C 0.77975 0.20471 0.48827 0.0
C1119 C 0.72624 0.164 0.48119 0.0
C1120 C 0.73514 0.14413 0.47365 0.0
C1121 C 0.70115 0.16706 0.48219 0.0
C1122 C 0.69051 0.18865 0.48896 0.0
C1123 C 0.69689 0.21169 0.48474 0.0
C1124 C 0.68692 0.23197 0.4912 0.0
C1125 C 0.67041 0.22943 0.50183 0.0
C1126 C 0.6638 0.2066 0.506 0.0
C1127 C 0.67373 0.18627 0.49958 0.0
H1128 H 0.66271 0.24515 0.50682 0.0
H1129 H 0.75729 0.05152 0.43973 0.0
H1130 H 0.9659 0.09901 0.71145 0.0
H1131 H 0.93352 0.12552 0.71896 0.0
H1132 H 0.97408 0.18682 0.70638 0.0
H1133 H 0.00666 0.16038 0.6991 0.0
H1134 H 0.95341 0.1966 0.73019 0.0
H1135 H 0.92778 0.16303 0.68575 0.0
H1136 H 0.91866 0.13086 0.66827 0.0
H1137 H 0.86521 0.1027 0.69495 0.0
H1138 H 0.87426 0.13452 0.71269 0.0
H1139 H 0.85839 0.27989 0.72521 0.0
H1140 H 0.8889 0.25134 0.71766 0.0
H1141 H 0.85372 0.19528 0.73963 0.0
H1142 H 0.82319 0.22383 0.74745 0.0
H1143 H 0.87084 0.18252 0.71135 0.0
H1144 H 0.89756 0.21806 0.75571 0.0
H1145 H 0.90677 0.25189 0.77205 0.0
H1146 H 0.95858 0.2783 0.74372 0.0
H1147 H 0.9494 0.2448 0.7271 0.0
C1148 C 0.9679 0.11816 0.71034 0.0
C1149 C 0.98872 0.12766 0.70465 0.0
C1150 C 0.94939 0.13327 0.71459 0.0
C1151 C 0.95119 0.15813 0.71299 0.0
C1152 C 0.97228 0.1677 0.70769 0.0
C1153 C 0.9909 0.1526 0.70357 0.0
C1154 C 0.93099 0.17415 0.71667 0.0
C1155 C 0.93544 0.19364 0.72594 0.0
C1156 C 0.90742 0.17013 0.71128 0.0
C1157 C 0.90187 0.15101 0.70061 0.0
C1158 C 0.91421 0.14987 0.68794 0.0
C1159 C 0.90904 0.13171 0.67797 0.0
C1160 C 0.89142 0.11471 0.68051 0.0
C1161 C 0.87889 0.11586 0.69301 0.0
C1162 C 0.88401 0.13396 0.70302 0.0
C1163 C 0.85689 0.26142 0.72828 0.0
C1164 C 0.83844 0.25414 0.737 0.0
C1165 C 0.87439 0.24517 0.72399 0.0
C1166 C 0.8736 0.22134 0.72821 0.0
C1167 C 0.85458 0.21366 0.7363 0.0
C1168 C 0.83722 0.22999 0.74078 0.0
C1169 C 0.8934 0.20483 0.72479 0.0
C1170 C 0.88884 0.18533 0.7156 0.0
C1171 C 0.91694 0.20901 0.73008 0.0
C1172 C 0.92261 0.22906 0.7401 0.0
C1173 C 0.91076 0.2312 0.75291 0.0
C1174 C 0.916 0.25029 0.76223 0.0
C1175 C 0.9332 0.26727 0.75891 0.0
C1176 C 0.94524 0.26515 0.74627 0.0
C1177 C 0.94003 0.24611 0.7369 0.0
H1178 H 0.93724 0.28204 0.76614 0.0
H1179 H 0.88743 0.10067 0.67278 0.0
H1180 H 0.88376 0.4773 0.9426 0.0
H1181 H 0.85862 0.44619 0.95227 0.0
H1182 H 0.92191 0.40725 0.96503 0.0
H1183 H 0.94706 0.43804 0.95502 0.0
H1184 H 0.89096 0.37743 0.95381 0.0
H1185 H 0.88721 0.44002 0.98878 0.0
H1186 H 0.88064 0.48099 0.99814 0.0
H1187 H 0.80718 0.47791 0.98385 0.0
H1188 H 0.8134 0.43703 0.97424 0.0
H1189 H 0.83273 0.30251 0.0028 0.0
H1190 H 0.8581 0.33195 0.99168 0.0
H1191 H 0.79566 0.36329 0.97205 0.0
H1192 H 0.77018 0.33383 0.98296 0.0
H1193 H 0.82599 0.39652 0.9868 0.0
H1194 H 0.831 0.33253 0.95226 0.0
H1195 H 0.83867 0.29113 0.94397 0.0
H1196 H 0.91153 0.29655 0.95913 0.0
H1197 H 0.9042 0.33789 0.96769 0.0
C1198 C 0.89227 0.4622 0.94759 0.0
C1199 C 0.91733 0.46008 0.94811 0.0
C1200 C 0.87791 0.44444 0.95313 0.0
C1201 C 0.88836 0.42449 0.95955 0.0
C1202 C 0.91342 0.42243 0.96011 0.0
C1203 C 0.92777 0.44002 0.95441 0.0
C1204 C 0.87319 0.40554 0.96545 0.0
C1205 C 0.87698 0.38161 0.96117 0.0
C1206 C 0.85465 0.41097 0.97488 0.0
C1207 C 0.85084 0.43555 0.98066 0.0
C1208 C 0.8697 0.44815 0.98754 0.0
C1209 C 0.86604 0.47134 0.9929 0.0
C1210 C 0.84353 0.48207 0.99156 0.0
C1211 C 0.82462 0.46959 0.98487 0.0
C1212 C 0.8282 0.4464 0.97947 0.0
C1213 C 0.82442 0.31549 0.99598 0.0
C1214 C 0.79943 0.31585 0.99378 0.0
C1215 C 0.83894 0.33226 0.98963 0.0
C1216 C 0.82871 0.34976 0.98107 0.0
C1217 C 0.80385 0.34992 0.97865 0.0
C1218 C 0.78936 0.333 0.98484 0.0
C1219 C 0.84381 0.36858 0.97513 0.0
C1220 C 0.84 0.39245 0.97943 0.0
C1221 C 0.86252 0.36306 0.96589 0.0
C1222 C 0.86697 0.33822 0.96074 0.0
C1223 C 0.84859 0.32482 0.95394 0.0
C1224 C 0.85289 0.30138 0.94917 0.0
C1225 C 0.87555 0.29119 0.95106 0.0
C1226 C 0.89398 0.30445 0.95769 0.0
C1227 C 0.88976 0.32789 0.96249 0.0
H1228 H 0.87885 0.27305 0.94735 0.0
H1229 H 0.84072 0.50002 0.99572 0.0
H1230 H 0.60524 0.38969 0.19485 0.0
H1231 H 0.62986 0.36603 0.21087 0.0
H1232 H 0.59711 0.40125 0.24628 0.0
H1233 H 0.57219 0.42503 0.2302 0.0
H1234 H 0.64862 0.39848 0.24799 0.0
H1235 H 0.5811 0.34765 0.24115 0.0
H1236 H 0.54907 0.32626 0.22775 0.0
H1237 H 0.60167 0.28577 0.20522 0.0
H1238 H 0.63404 0.30718 0.21833 0.0
H1239 H 0.70163 0.27218 0.26994 0.0
H1240 H 0.66875 0.30093 0.26859 0.0
H1241 H 0.71214 0.34719 0.24405 0.0
H1242 H 0.7451 0.31873 0.24544 0.0
H1243 H 0.6475 0.30972 0.24424 0.0
H1244 H 0.69348 0.40402 0.24634 0.0
H1245 H 0.72473 0.42533 0.26043 0.0
H1246 H 0.71341 0.37859 0.29468 0.0
H1247 H 0.68184 0.35721 0.28089 0.0
C1248 C 0.60331 0.39241 0.20605 0.0
C1249 C 0.58688 0.40916 0.21132 0.0
C1250 C 0.61726 0.37883 0.21517 0.0
C1251 C 0.61515 0.38185 0.22972 0.0
C1252 C 0.59889 0.39867 0.23506 0.0
C1253 C 0.58465 0.4121 0.2259 0.0
C1254 C 0.63042 0.36746 0.23915 0.0
C1255 C 0.6483 0.37907 0.24736 0.0
C1256 C 0.62941 0.34218 0.2386 0.0
C1257 C 0.61002 0.32912 0.2307 0.0
C1258 C 0.58585 0.3343 0.23327 0.0
C1259 C 0.56762 0.32215 0.22574 0.0
C1260 C 0.57333 0.30468 0.21563 0.0
C1261 C 0.59727 0.2993 0.21306 0.0
C1262 C 0.61557 0.31141 0.22056 0.0
C1263 C 0.70445 0.2888 0.26461 0.0
C1264 C 0.72587 0.293 0.2576 0.0
C1265 C 0.6856 0.3052 0.26384 0.0
C1266 C 0.68796 0.32617 0.25621 0.0
C1267 C 0.70999 0.33127 0.25016 0.0
C1268 C 0.72879 0.31487 0.25087 0.0
C1269 C 0.66663 0.3407 0.25253 0.0
C1270 C 0.64757 0.32911 0.24529 0.0
C1271 C 0.66648 0.36596 0.25412 0.0
C1272 C 0.68532 0.37893 0.26253 0.0
C1273 C 0.69752 0.39837 0.25691 0.0
C1274 C 0.71533 0.41045 0.26484 0.0
C1275 C 0.72107 0.40329 0.27843 0.0
C1276 C 0.70899 0.38407 0.28414 0.0
C1277 C 0.69116 0.37194 0.27626 0.0
H1278 H 0.73488 0.41266 0.28455 0.0
H1279 H 0.55919 0.29529 0.20981 0.0
H1280 H 0.17866 0.97877 0.39111 0.0
H1281 H 0.19703 0.94908 0.40635 0.0
H1282 H 0.13234 0.90683 0.40352 0.0
H1283 H 0.11348 0.93694 0.38881 0.0
H1284 H 0.14686 0.91098 0.42957 0.0
H1285 H 0.18355 0.88872 0.38672 0.0
H1286 H 0.20567 0.89462 0.36502 0.0
H1287 H 0.26712 0.91904 0.38921 0.0
H1288 H 0.24531 0.91354 0.41107 0.0
H1289 H 0.23808 0.81239 0.45326 0.0
H1290 H 0.21761 0.83444 0.43465 0.0
H1291 H 0.20611 0.89363 0.46361 0.0
H1292 H 0.22603 0.87163 0.48228 0.0
H1293 H 0.22732 0.87561 0.42264 0.0
H1294 H 0.15373 0.92031 0.45649 0.0
H1295 H 0.13001 0.9112 0.47717 0.0
H1296 H 0.13885 0.83587 0.4688 0.0
H1297 H 0.16233 0.84451 0.44797 0.0
C1298 C 0.16832 0.96319 0.39375 0.0
C1299 C 0.14457 0.96028 0.38876 0.0
C1300 C 0.17895 0.94607 0.40233 0.0
C1301 C 0.16614 0.9256 0.40597 0.0
C1302 C 0.14258 0.92245 0.40081 0.0
C1303 C 0.1319 0.9396 0.39229 0.0
C1304 C 0.17682 0.90821 0.41582 0.0
C1305 C 0.1644 0.90317 0.42801 0.0
C1306 C 0.19949 0.8976 0.41366 0.0
C1307 C 0.21271 0.90088 0.40054 0.0
C1308 C 0.20172 0.89552 0.38741 0.0
C1309 C 0.21421 0.89876 0.37509 0.0
C1310 C 0.23774 0.90726 0.37574 0.0
C1311 C 0.24887 0.91247 0.38872 0.0
C1312 C 0.23647 0.90925 0.40109 0.0
C1313 C 0.23109 0.83006 0.45568 0.0
C1314 C 0.23357 0.84018 0.46929 0.0
C1315 C 0.21948 0.84266 0.44502 0.0
C1316 C 0.21009 0.86555 0.44777 0.0
C1317 C 0.21281 0.8758 0.4613 0.0
C1318 C 0.22429 0.8632 0.47196 0.0
C1319 C 0.1976 0.87895 0.43653 0.0
C1320 C 0.20968 0.88328 0.42412 0.0
C1321 C 0.17436 0.88846 0.43832 0.0
C1322 C 0.15997 0.88308 0.45073 0.0
C1323 C 0.15052 0.9018 0.45902 0.0
C1324 C 0.13713 0.89672 0.47078 0.0
C1325 C 0.13298 0.87298 0.47432 0.0
C1326 C 0.14215 0.85426 0.46608 0.0
C1327 C 0.15552 0.85924 0.4543 0.0
H1328 H 0.12264 0.86909 0.48343 0.0
H1329 H 0.24737 0.90977 0.36618 0.0
H1330 H 0.09352 0.65038 0.63483 0.0
H1331 H 0.12052 0.67118 0.65166 0.0
H1332 H 0.0883 0.6341 0.68555 0.0
H1333 H 0.06095 0.61355 0.6688 0.0
H1334 H 0.095 0.68234 0.69152 0.0
H1335 H 0.14086 0.61561 0.67379 0.0
H1336 H 0.15855 0.59005 0.65532 0.0
H1337 H 0.19856 0.65 0.64104 0.0
H1338 H 0.18084 0.67602 0.65931 0.0
H1339 H 0.18268 0.70539 0.74486 0.0
H1340 H 0.15492 0.6865 0.72782 0.0
H1341 H 0.19291 0.71827 0.6941 0.0
H1342 H 0.22119 0.73669 0.71108 0.0
H1343 H 0.183 0.67342 0.68768 0.0
H1344 H 0.13815 0.74027 0.7052 0.0
H1345 H 0.12027 0.76666 0.72321 0.0
H1346 H 0.07818 0.70802 0.73732 0.0
H1347 H 0.09605 0.68119 0.7195 0.0
C1348 C 0.09205 0.64684 0.64588 0.0
C1349 C 0.07519 0.63029 0.65051 0.0
C1350 C 0.10758 0.65859 0.65546 0.0
C1351 C 0.10653 0.65398 0.66982 0.0
C1352 C 0.08942 0.63783 0.6745 0.0
C1353 C 0.07396 0.62599 0.66492 0.0
C1354 C 0.12347 0.66581 0.67996 0.0
C1355 C 0.11424 0.68019 0.69081 0.0
C1356 C 0.14856 0.66346 0.67876 0.0
C1357 C 0.15935 0.64781 0.66783 0.0
C1358 C 0.15329 0.62339 0.66664 0.0
C1359 C 0.16335 0.60881 0.65622 0.0
C1360 C 0.17962 0.61841 0.64699 0.0
C1361 C 0.18593 0.6426 0.64819 0.0
C1362 C 0.1759 0.65726 0.65858 0.0
C1363 C 0.18513 0.7084 0.73382 0.0
C1364 C 0.20413 0.72259 0.72933 0.0
C1365 C 0.16916 0.69768 0.72409 0.0
C1366 C 0.17161 0.70125 0.70968 0.0
C1367 C 0.19065 0.71529 0.70516 0.0
C1368 C 0.20677 0.72584 0.71489 0.0
C1369 C 0.15458 0.69 0.69931 0.0
C1370 C 0.16378 0.67568 0.68841 0.0
C1371 C 0.12945 0.69256 0.7004 0.0
C1372 C 0.11861 0.70867 0.7111 0.0
C1373 C 0.12521 0.73296 0.71221 0.0
C1374 C 0.11506 0.748 0.72237 0.0
C1375 C 0.09815 0.73901 0.73143 0.0
C1376 C 0.09131 0.71496 0.73031 0.0
C1377 C 0.10142 0.69983 0.72017 0.0
H1378 H 0.09031 0.75068 0.73929 0.0
H1379 H 0.18739 0.60709 0.63893 0.0
H1380 H 0.44735 0.54046 0.91554 0.0
H1381 H 0.42461 0.56788 0.93053 0.0
H1382 H 0.39168 0.59897 0.89391 0.0
H1383 H 0.41469 0.57182 0.87883 0.0
H1384 H 0.40808 0.63302 0.91322 0.0
H1385 H 0.35984 0.56204 0.91283 0.0
H1386 H 0.35183 0.51897 0.91538 0.0
H1387 H 0.37467 0.52391 0.95864 0.0
H1388 H 0.38315 0.56696 0.9563 0.0
H1389 H 0.32176 0.70018 0.95144 0.0
H1390 H 0.34133 0.67292 0.93486 0.0
H1391 H 0.37185 0.63365 0.96931 0.0
H1392 H 0.3519 0.66036 0.98591 0.0
H1393 H 0.3548 0.60369 0.94994 0.0
H1394 H 0.4052 0.67361 0.95029 0.0
H1395 H 0.41428 0.71652 0.94799 0.0
H1396 H 0.38856 0.71353 0.90522 0.0
H1397 H 0.37904 0.67064 0.90732 0.0
C1398 C 0.43532 0.55319 0.91069 0.0
C1399 C 0.43275 0.55398 0.89602 0.0
C1400 C 0.42222 0.56871 0.91926 0.0
C1401 C 0.40632 0.5853 0.91332 0.0
C1402 C 0.4038 0.58623 0.89868 0.0
C1403 C 0.4168 0.57061 0.8901 0.0
C1404 C 0.39268 0.60195 0.92242 0.0
C1405 C 0.39612 0.62666 0.92111 0.0
C1406 C 0.37752 0.59356 0.9329 0.0
C1407 C 0.37233 0.56769 0.93435 0.0
C1408 C 0.36334 0.5539 0.92286 0.0
C1409 C 0.35868 0.5295 0.92427 0.0
C1410 C 0.36279 0.5187 0.93716 0.0
C1411 C 0.37152 0.5323 0.94866 0.0
C1412 C 0.37623 0.5567 0.9473 0.0
C1413 C 0.33271 0.68579 0.95548 0.0
C1414 C 0.3353 0.68248 0.97 0.0
C1415 C 0.34394 0.67026 0.94599 0.0
C1416 C 0.35827 0.65138 0.95084 0.0
C1417 C 0.36086 0.64806 0.96532 0.0
C1418 C 0.34948 0.66341 0.9748 0.0
C1419 C 0.37041 0.63484 0.94089 0.0
C1420 C 0.36666 0.61012 0.94202 0.0
C1421 C 0.38541 0.64322 0.9303 0.0
C1422 C 0.39117 0.66899 0.92901 0.0
C1423 C 0.40131 0.68215 0.94043 0.0
C1424 C 0.40656 0.70646 0.93915 0.0
C1425 C 0.40193 0.71776 0.92648 0.0
C1426 C 0.3921 0.70476 0.91504 0.0
C1427 C 0.38679 0.68045 0.91626 0.0
H1428 H 0.40602 0.73658 0.92551 0.0
H1429 H 0.35917 0.49981 0.93823 0.0
H1430 H 0.46439 0.91416 0.13819 0.0
H1431 H 0.43946 0.89598 0.15579 0.0
H1432 H 0.48033 0.93291 0.18866 0.0
H1433 H 0.50559 0.95067 0.1711 0.0
H1434 H 0.47365 0.88881 0.19562 0.0
H1435 H 0.42255 0.95072 0.17803 0.0
H1436 H 0.40072 0.97348 0.15998 0.0
H1437 H 0.36042 0.9106 0.14769 0.0
H1438 H 0.38225 0.88737 0.16555 0.0
H1439 H 0.39349 0.87143 0.25102 0.0
H1440 H 0.41636 0.89044 0.23281 0.0
H1441 H 0.38217 0.84442 0.20136 0.0
H1442 H 0.35926 0.82519 0.21952 0.0
H1443 H 0.38488 0.89266 0.1936 0.0
H1444 H 0.43652 0.8312 0.21169 0.0
H1445 H 0.45824 0.80935 0.23018 0.0
H1446 H 0.49737 0.87315 0.24207 0.0
H1447 H 0.47563 0.89548 0.22377 0.0
C1448 C 0.4679 0.91852 0.14917 0.0
C1449 C 0.4869 0.93384 0.15329 0.0
C1450 C 0.45363 0.90817 0.15923 0.0
C1451 C 0.45779 0.9133 0.17357 0.0
C1452 C 0.47677 0.92864 0.17767 0.0
C1453 C 0.49121 0.93876 0.16764 0.0
C1454 C 0.44279 0.90229 0.18434 0.0
C1455 C 0.45425 0.88998 0.19526 0.0
C1456 C 0.41743 0.9033 0.18375 0.0
C1457 C 0.4042 0.91725 0.17304 0.0
C1458 C 0.40916 0.9417 0.17141 0.0
C1459 C 0.39676 0.9547 0.16122 0.0
C1460 C 0.37924 0.94348 0.15267 0.0
C1461 C 0.37402 0.91926 0.15431 0.0
C1462 C 0.38639 0.90617 0.16447 0.0
C1463 C 0.39072 0.86541 0.24023 0.0
C1464 C 0.37463 0.84672 0.23673 0.0
C1465 C 0.40386 0.87625 0.22985 0.0
C1466 C 0.40109 0.86868 0.21577 0.0
C1467 C 0.38458 0.85048 0.21218 0.0
C1468 C 0.37158 0.83947 0.22257 0.0
C1469 C 0.41581 0.87944 0.20484 0.0
C1470 C 0.40428 0.8916 0.19391 0.0
C1471 C 0.44111 0.87848 0.20548 0.0
C1472 C 0.45427 0.86507 0.21645 0.0
C1473 C 0.44961 0.84062 0.21832 0.0
C1474 C 0.46195 0.82814 0.22875 0.0
C1475 C 0.47913 0.83987 0.23732 0.0
C1476 C 0.48404 0.8641 0.23545 0.0
C1477 C 0.47173 0.87667 0.22504 0.0
H1478 H 0.48867 0.83017 0.24539 0.0
H1479 H 0.36966 0.95357 0.14479 0.0
H1480 H 0.08854 0.64007 0.89401 0.0
H1481 H 0.11395 0.66223 0.87814 0.0
H1482 H 0.08351 0.62208 0.84282 0.0
H1483 H 0.0584 0.59995 0.85853 0.0
H1484 H 0.1308 0.62277 0.84173 0.0
H1485 H 0.06832 0.68108 0.85012 0.0
H1486 H 0.04339 0.70742 0.86489 0.0
H1487 H 0.10635 0.74416 0.88072 0.0
H1488 H 0.13169 0.71782 0.86616 0.0
H1489 H 0.16498 0.68363 0.78259 0.0
H1490 H 0.14152 0.66723 0.80131 0.0
H1491 H 0.17757 0.7145 0.83142 0.0
H1492 H 0.20053 0.73173 0.81254 0.0
H1493 H 0.13164 0.71107 0.8374 0.0
H1494 H 0.19374 0.65456 0.82683 0.0
H1495 H 0.2178 0.6282 0.81155 0.0
H1496 H 0.15509 0.58737 0.79981 0.0
H1497 H 0.13049 0.61375 0.81474 0.0
C1498 C 0.08717 0.63619 0.88284 0.0
C1499 C 0.07168 0.61811 0.87751 0.0
C1500 C 0.10166 0.64884 0.87379 0.0
C1501 C 0.10064 0.64381 0.85928 0.0
C1502 C 0.08479 0.62613 0.85398 0.0
C1503 C 0.07048 0.61345 0.86297 0.0
C1504 C 0.11647 0.65619 0.84949 0.0
C1505 C 0.13083 0.64207 0.84071 0.0
C1506 C 0.11713 0.68142 0.84848 0.0
C1507 C 0.10191 0.69731 0.85718 0.0
C1508 C 0.07686 0.69466 0.85684 0.0
C1509 C 0.06266 0.70961 0.86515 0.0
C1510 C 0.07329 0.72741 0.87377 0.0
C1511 C 0.09814 0.73034 0.87406 0.0
C1512 C 0.11243 0.71542 0.86577 0.0
C1513 C 0.16785 0.69063 0.79318 0.0
C1514 C 0.18476 0.70879 0.79612 0.0
C1515 C 0.1545 0.68116 0.8039 0.0
C1516 C 0.15822 0.68917 0.81785 0.0
C1517 C 0.17452 0.70791 0.82076 0.0
C1518 C 0.18763 0.71772 0.80997 0.0
C1519 C 0.14538 0.67755 0.82933 0.0
C1520 C 0.13177 0.69179 0.8385 0.0
C1521 C 0.14534 0.65235 0.8307 0.0
C1522 C 0.16023 0.63626 0.82185 0.0
C1523 C 0.18504 0.64005 0.82093 0.0
C1524 C 0.19878 0.6251 0.81234 0.0
C1525 C 0.188 0.60614 0.80473 0.0
C1526 C 0.16343 0.60206 0.80571 0.0
C1527 C 0.14957 0.61701 0.81423 0.0
H1528 H 0.19869 0.5946 0.7981 0.0
H1529 H 0.06226 0.73896 0.8802 0.0
H1530 H 0.43231 0.57186 0.13108 0.0
H1531 H 0.40814 0.5948 0.1144 0.0
H1532 H 0.4296 0.5468 0.08081 0.0
H1533 H 0.45474 0.5247 0.0974 0.0
H1534 H 0.4306 0.5895 0.07202 0.0
H1535 H 0.37211 0.54501 0.09723 0.0
H1536 H 0.35222 0.53154 0.11844 0.0
H1537 H 0.33375 0.60422 0.12917 0.0
H1538 H 0.35379 0.61816 0.1081 0.0
H1539 H 0.34176 0.61857 0.02144 0.0
H1540 H 0.36366 0.59659 0.03948 0.0
H1541 H 0.35127 0.65403 0.06946 0.0
H1542 H 0.32935 0.67623 0.05146 0.0
H1543 H 0.34518 0.60804 0.08045 0.0
H1544 H 0.40308 0.65201 0.05493 0.0
H1545 H 0.42307 0.66532 0.03373 0.0
H1546 H 0.44239 0.59266 0.02351 0.0
H1547 H 0.4222 0.57887 0.04456 0.0
C1548 C 0.43179 0.5663 0.12012 0.0
C1549 C 0.44525 0.54656 0.11547 0.0
C1550 C 0.41788 0.57928 0.11061 0.0
C1551 C 0.41661 0.57227 0.09636 0.0
C1552 C 0.43023 0.55257 0.09174 0.0
C1553 C 0.44455 0.53994 0.10119 0.0
C1554 C 0.40143 0.58557 0.08618 0.0
C1555 C 0.41183 0.59319 0.07381 0.0
C1556 C 0.37707 0.59105 0.08863 0.0
C1557 C 0.36462 0.58264 0.10115 0.0
C1558 C 0.3639 0.55813 0.10414 0.0
C1559 C 0.3526 0.55041 0.11614 0.0
C1560 C 0.34179 0.56702 0.12517 0.0
C1561 C 0.34216 0.59137 0.12218 0.0
C1562 C 0.35345 0.59919 0.1102 0.0
C1563 C 0.34345 0.62644 0.0319 0.0
C1564 C 0.33395 0.64923 0.03499 0.0
C1565 C 0.35603 0.61389 0.04218 0.0
C1566 C 0.35928 0.62383 0.05574 0.0
C1567 C 0.34898 0.6461 0.05904 0.0
C1568 C 0.33654 0.65877 0.04873 0.0
C1569 C 0.37432 0.61144 0.06629 0.0
C1570 C 0.36393 0.60416 0.07871 0.0
C1571 C 0.39865 0.60613 0.06387 0.0
C1572 C 0.41091 0.61439 0.05124 0.0
C1573 C 0.41142 0.63885 0.0481 0.0
C1574 C 0.42281 0.64648 0.03612 0.0
C1575 C 0.43393 0.62984 0.02725 0.0
C1576 C 0.43374 0.60553 0.03037 0.0
C1577 C 0.42233 0.5978 0.04233 0.0
H1578 H 0.44275 0.63578 0.01798 0.0
H1579 H 0.33309 0.56101 0.13446 0.0
H1580 H 0.48684 0.93733 0.36156 0.0
H1581 H 0.46251 0.911 0.34628 0.0
H1582 H 0.44196 0.87043 0.38194 0.0
H1583 H 0.46649 0.8969 0.39742 0.0
H1584 H 0.45264 0.84131 0.35954 0.0
H1585 H 0.40279 0.90902 0.36787 0.0
H1586 H 0.39231 0.95185 0.36965 0.0
H1587 H 0.40528 0.95936 0.32582 0.0
H1588 H 0.41619 0.91665 0.32382 0.0
H1589 H 0.35676 0.78532 0.31823 0.0
H1590 H 0.38076 0.80641 0.33646 0.0
H1591 H 0.41035 0.85164 0.30525 0.0
H1592 H 0.38654 0.83076 0.287 0.0
H1593 H 0.39195 0.87712 0.32755 0.0
H1594 H 0.4441 0.80928 0.31994 0.0
H1595 H 0.4541 0.76631 0.31853 0.0
H1596 H 0.43533 0.75879 0.36156 0.0
H1597 H 0.4249 0.80168 0.36317 0.0
C1598 C 0.47696 0.92297 0.3662 0.0
C1599 C 0.47829 0.9194 0.38072 0.0
C1600 C 0.46311 0.90788 0.35744 0.0
C1601 C 0.45009 0.88902 0.36301 0.0
C1602 C 0.4518 0.88496 0.37746 0.0
C1603 C 0.4658 0.90006 0.38627 0.0
C1604 C 0.43469 0.87378 0.35359 0.0
C1605 C 0.43906 0.84904 0.35272 0.0
C1606 C 0.41715 0.88394 0.34459 0.0
C1607 C 0.41048 0.90965 0.34572 0.0
C1608 C 0.40358 0.91984 0.35863 0.0
C1609 C 0.39753 0.94409 0.35968 0.0
C1610 C 0.39817 0.95833 0.34786 0.0
C1611 C 0.40481 0.94832 0.33497 0.0
C1612 C 0.41089 0.92408 0.33387 0.0
C1613 C 0.3686 0.79956 0.31522 0.0
C1614 C 0.36962 0.80644 0.30116 0.0
C1615 C 0.38233 0.81155 0.32565 0.0
C1616 C 0.39728 0.83059 0.32219 0.0
C1617 C 0.39884 0.83704 0.30813 0.0
C1618 C 0.38525 0.82502 0.29771 0.0
C1619 C 0.41035 0.84478 0.33323 0.0
C1620 C 0.40541 0.86934 0.33445 0.0
C1621 C 0.42717 0.8344 0.34259 0.0
C1622 C 0.43345 0.80863 0.34163 0.0
C1623 C 0.44189 0.79842 0.32906 0.0
C1624 C 0.44769 0.77409 0.32823 0.0
C1625 C 0.44528 0.75981 0.33993 0.0
C1626 C 0.43714 0.76986 0.3525 0.0
C1627 C 0.4313 0.79418 0.35338 0.0
H1628 H 0.44979 0.74097 0.33927 0.0
H1629 H 0.39349 0.9771 0.3487 0.0
H1630 H 0.13314 0.99013 0.61244 0.0
H1631 H 0.15643 0.96613 0.59601 0.0
H1632 H 0.19919 0.93903 0.63034 0.0
H1633 H 0.17583 0.96322 0.64696 0.0
H1634 H 0.2266 0.94961 0.60797 0.0
H1635 H 0.15561 0.9047 0.61566 0.0
H1636 H 0.11219 0.89788 0.61744 0.0
H1637 H 0.10184 0.91488 0.57409 0.0
H1638 H 0.14518 0.92216 0.57211 0.0
H1639 H 0.27175 0.85141 0.56619 0.0
H1640 H 0.2535 0.87655 0.58436 0.0
H1641 H 0.20778 0.90885 0.55306 0.0
H1642 H 0.22579 0.88373 0.53485 0.0
H1643 H 0.1828 0.8937 0.57525 0.0
H1644 H 0.25421 0.93969 0.568 0.0
H1645 H 0.29775 0.94613 0.56652 0.0
H1646 H 0.30747 0.92593 0.60939 0.0
H1647 H 0.26401 0.91904 0.61107 0.0
C1648 C 0.14742 0.97897 0.61652 0.0
C1649 C 0.15242 0.97827 0.63101 0.0
C1650 C 0.16075 0.96531 0.60711 0.0
C1651 C 0.17925 0.95045 0.61197 0.0
C1652 C 0.18491 0.9503 0.62639 0.0
C1653 C 0.17159 0.96412 0.63585 0.0
C1654 C 0.19218 0.93476 0.60192 0.0
C1655 C 0.2171 0.93709 0.60096 0.0
C1656 C 0.17971 0.91868 0.59265 0.0
C1657 C 0.15363 0.91417 0.59377 0.0
C1658 C 0.14406 0.90716 0.60654 0.0
C1659 C 0.11946 0.90318 0.60758 0.0
C1660 C 0.10426 0.906 0.59589 0.0
C1661 C 0.11363 0.91273 0.58313 0.0
C1662 C 0.13822 0.91676 0.58204 0.0
C1663 C 0.25797 0.86402 0.56314 0.0
C1664 C 0.25018 0.86551 0.54906 0.0
C1665 C 0.24761 0.87843 0.57355 0.0
C1666 C 0.22934 0.89462 0.57005 0.0
C1667 C 0.22184 0.89644 0.55598 0.0
C1668 C 0.23221 0.88212 0.54558 0.0
C1669 C 0.21716 0.90886 0.5811 0.0
C1670 C 0.19234 0.90615 0.58229 0.0
C1671 C 0.22976 0.92444 0.5906 0.0
C1672 C 0.25589 0.9286 0.58961 0.0
C1673 C 0.26566 0.93642 0.57708 0.0
C1674 C 0.29032 0.94019 0.57621 0.0
C1675 C 0.30538 0.93637 0.58784 0.0
C1676 C 0.29579 0.92884 0.60038 0.0
C1677 C 0.27114 0.92502 0.6013 0.0
H1678 H 0.32446 0.93931 0.58715 0.0
H1679 H 0.08522 0.90291 0.59672 0.0
H1680 H 0.56458 0.41593 0.9089 0.0
H1681 H 0.58884 0.39105 0.92433 0.0
H1682 H 0.61931 0.35528 0.88837 0.0
H1683 H 0.59488 0.38027 0.87277 0.0
H1684 H 0.60907 0.32384 0.90908 0.0
H1685 H 0.65106 0.39775 0.9056 0.0
H1686 H 0.65602 0.44162 0.90606 0.0
H1687 H 0.63704 0.44491 0.94939 0.0
H1688 H 0.63161 0.40106 0.94914 0.0
H1689 H 0.70779 0.27743 0.95008 0.0
H1690 H 0.68247 0.29686 0.93245 0.0
H1691 H 0.64665 0.33648 0.96516 0.0
H1692 H 0.67191 0.31728 0.98283 0.0
H1693 H 0.66179 0.36526 0.94459 0.0
H1694 H 0.61869 0.29085 0.94755 0.0
H1695 H 0.61416 0.24692 0.94676 0.0
H1696 H 0.63651 0.24447 0.90402 0.0
H1697 H 0.64149 0.28838 0.90462 0.0
C1698 C 0.57651 0.40284 0.90426 0.0
C1699 C 0.57811 0.40031 0.88962 0.0
C1700 C 0.59032 0.38859 0.91309 0.0
C1701 C 0.60621 0.37163 0.9075 0.0
C1702 C 0.60723 0.36835 0.89289 0.0
C1703 C 0.59327 0.3826 0.884 0.0
C1704 C 0.62214 0.35795 0.91703 0.0
C1705 C 0.62089 0.33284 0.91671 0.0
C1706 C 0.63734 0.36975 0.92708 0.0
C1707 C 0.64074 0.39612 0.92731 0.0
C1708 C 0.64777 0.40784 0.9152 0.0
C1709 C 0.65069 0.4327 0.91542 0.0
C1710 C 0.64679 0.44605 0.92773 0.0
C1711 C 0.64003 0.43455 0.93985 0.0
C1712 C 0.63705 0.40969 0.93968 0.0
C1713 C 0.69436 0.29009 0.95354 0.0
C1714 C 0.69193 0.29587 0.96787 0.0
C1715 C 0.67985 0.30112 0.94344 0.0
C1716 C 0.66264 0.31807 0.9475 0.0
C1717 C 0.65985 0.32348 0.96181 0.0
C1718 C 0.67427 0.31242 0.97189 0.0
C1719 C 0.64835 0.33115 0.93687 0.0
C1720 C 0.65003 0.35621 0.93694 0.0
C1721 C 0.63372 0.31927 0.92656 0.0
C1722 C 0.63072 0.29288 0.92618 0.0
C1723 C 0.62285 0.28093 0.93803 0.0
C1724 C 0.62015 0.25603 0.9376 0.0
C1725 C 0.62511 0.2429 0.92536 0.0
C1726 C 0.63271 0.25465 0.9135 0.0
C1727 C 0.63546 0.27955 0.91388 0.0
H1728 H 0.62301 0.22363 0.92505 0.0
H1729 H 0.64906 0.4653 0.92789 0.0
H1730 H 0.63207 0.05371 0.15942 0.0
H1731 H 0.65516 0.0821 0.17409 0.0
H1732 H 0.67947 0.11697 0.13721 0.0
H1733 H 0.6567 0.08807 0.12233 0.0
H1734 H 0.71595 0.11049 0.15713 0.0
H1735 H 0.63721 0.14325 0.15547 0.0
H1736 H 0.5932 0.14295 0.15688 0.0
H1737 H 0.59879 0.12386 0.20014 0.0
H1738 H 0.64285 0.12369 0.19893 0.0
H1739 H 0.75963 0.20958 0.2005 0.0
H1740 H 0.73975 0.18487 0.18213 0.0
H1741 H 0.70607 0.14336 0.21368 0.0
H1742 H 0.72554 0.16801 0.23205 0.0
H1743 H 0.6742 0.15733 0.19402 0.0
H1744 H 0.7529 0.12124 0.19492 0.0
H1745 H 0.79691 0.1212 0.19338 0.0
H1746 H 0.7913 0.14695 0.15142 0.0
H1747 H 0.74723 0.14745 0.15278 0.0
C1748 C 0.64255 0.06721 0.1544 0.0
C1749 C 0.64261 0.06862 0.13971 0.0
C1750 C 0.65556 0.08357 0.1628 0.0
C1751 C 0.66878 0.1018 0.15674 0.0
C1752 C 0.66928 0.10307 0.14208 0.0
C1753 C 0.65616 0.08669 0.13362 0.0
C1754 C 0.68182 0.11949 0.16587 0.0
C1755 C 0.70682 0.1211 0.16503 0.0
C1756 C 0.66988 0.13309 0.17627 0.0
C1757 C 0.64336 0.1333 0.17707 0.0
C1758 C 0.62906 0.13882 0.16526 0.0
C1759 C 0.6041 0.13876 0.16602 0.0
C1760 C 0.5932 0.13335 0.17858 0.0
C1761 C 0.60725 0.12804 0.19041 0.0
C1762 C 0.63223 0.12805 0.1897 0.0
C1763 C 0.74815 0.19506 0.20353 0.0
C1764 C 0.74414 0.19081 0.21776 0.0
C1765 C 0.73685 0.18093 0.19301 0.0
C1766 C 0.72147 0.16225 0.19655 0.0
C1767 C 0.71779 0.15774 0.21073 0.0
C1768 C 0.72902 0.17183 0.22122 0.0
C1769 C 0.70843 0.14782 0.18558 0.0
C1770 C 0.68335 0.14693 0.18603 0.0
C1771 C 0.72032 0.13497 0.17484 0.0
C1772 C 0.74679 0.13465 0.17401 0.0
C1773 C 0.76106 0.1271 0.18541 0.0
C1774 C 0.78601 0.12695 0.18456 0.0
C1775 C 0.7969 0.13414 0.17233 0.0
C1776 C 0.78285 0.14143 0.1609 0.0
C1777 C 0.75788 0.14164 0.1617 0.0
H1778 H 0.81622 0.13401 0.17169 0.0
H1779 H 0.57387 0.13331 0.17916 0.0
H1780 H 0.99216 0.14186 0.38635 0.0
H1781 H 0.96781 0.16195 0.4042 0.0
H1782 H 0.00523 0.12323 0.43654 0.0
H1783 H 0.02971 0.10325 0.41878 0.0
H1784 H 0.95397 0.12155 0.4375 0.0
H1785 H 0.01822 0.17893 0.43374 0.0
H1786 H 0.04427 0.20604 0.42094 0.0
H1787 H 0.9828 0.24608 0.40721 0.0
H1788 H 0.95634 0.21897 0.41977 0.0
H1789 H 0.91255 0.17745 0.49863 0.0
H1790 H 0.93789 0.16163 0.48014 0.0
H1791 H 0.90899 0.21372 0.4517 0.0
H1792 H 0.88419 0.23031 0.47042 0.0
H1793 H 0.95464 0.20913 0.44761 0.0
H1794 H 0.89008 0.15395 0.45069 0.0
H1795 H 0.86214 0.12683 0.46211 0.0
H1796 H 0.92098 0.08253 0.47517 0.0
H1797 H 0.94932 0.10957 0.46399 0.0
C1798 C 0.99522 0.13775 0.39728 0.0
C1799 C 0.01283 0.12106 0.40122 0.0
C1800 C 0.9814 0.14927 0.40744 0.0
C1801 C 0.98481 0.14409 0.42166 0.0
C1802 C 0.0024 0.12748 0.42561 0.0
C1803 C 0.01644 0.11621 0.41548 0.0
C1804 C 0.96954 0.15538 0.43242 0.0
C1805 C 0.9543 0.14065 0.43986 0.0
C1806 C 0.96937 0.1804 0.43505 0.0
C1807 C 0.98528 0.19677 0.42757 0.0
C1808 C 0.01024 0.19338 0.42788 0.0
C1809 C 0.02508 0.20878 0.4207 0.0
C1810 C 0.01519 0.22773 0.41323 0.0
C1811 C 0.99043 0.23137 0.41298 0.0
C1812 C 0.97551 0.216 0.42014 0.0
C1813 C 0.91163 0.18561 0.48845 0.0
C1814 C 0.89623 0.20499 0.48594 0.0
C1815 C 0.92605 0.17646 0.47786 0.0
C1816 C 0.92495 0.18609 0.4644 0.0
C1817 C 0.91006 0.2059 0.46196 0.0
C1818 C 0.89588 0.21534 0.47266 0.0
C1819 C 0.9392 0.17525 0.45292 0.0
C1820 C 0.9542 0.19003 0.44527 0.0
C1821 C 0.93883 0.15027 0.44989 0.0
C1822 C 0.92184 0.13391 0.45661 0.0
C1823 C 0.89708 0.13852 0.45608 0.0
C1824 C 0.88117 0.12314 0.4625 0.0
C1825 C 0.88979 0.103 0.46939 0.0
C1826 C 0.91433 0.09815 0.46985 0.0
C1827 C 0.93032 0.11348 0.46346 0.0
H1828 H 0.87744 0.09112 0.47435 0.0
H1829 H 0.02672 0.23963 0.40768 0.0
H1830 H 0.9356 0.45802 0.63313 0.0
H1831 H 0.90943 0.43524 0.64808 0.0
H1832 H 0.86412 0.49718 0.65342 0.0
H1833 H 0.89045 0.52017 0.63858 0.0
H1834 H 0.87666 0.47743 0.67837 0.0
H1835 H 0.84198 0.44989 0.63474 0.0
H1836 H 0.84155 0.43361 0.61051 0.0
H1837 H 0.87629 0.3696 0.62445 0.0
H1838 H 0.8768 0.38548 0.64883 0.0
H1839 H 0.79361 0.41167 0.71784 0.0
H1840 H 0.81036 0.4358 0.6994 0.0
H1841 H 0.85974 0.3789 0.68933 0.0
H1842 H 0.84292 0.35456 0.70757 0.0
H1843 H 0.841 0.39814 0.66584 0.0
H1844 H 0.87738 0.42731 0.70946 0.0
H1845 H 0.87714 0.44392 0.73365 0.0
H1846 H 0.83909 0.50588 0.71941 0.0
H1847 H 0.83883 0.48947 0.69516 0.0
C1848 C 0.91996 0.46671 0.63741 0.0
C1849 C 0.9151 0.49088 0.63473 0.0
C1850 C 0.90492 0.45364 0.64585 0.0
C1851 C 0.88475 0.46448 0.6518 0.0
C1852 C 0.87955 0.48846 0.6489 0.0
C1853 C 0.89451 0.50151 0.64036 0.0
C1854 C 0.87015 0.45117 0.66179 0.0
C1855 C 0.86842 0.46032 0.67556 0.0
C1856 C 0.85984 0.42866 0.6582 0.0
C1857 C 0.85959 0.41896 0.64359 0.0
C1858 C 0.84965 0.4324 0.63263 0.0
C1859 C 0.84935 0.42322 0.61887 0.0
C1860 C 0.85903 0.40064 0.61592 0.0
C1861 C 0.86884 0.38711 0.62675 0.0
C1862 C 0.86905 0.39615 0.64055 0.0
C1863 C 0.80797 0.40425 0.71167 0.0
C1864 C 0.81703 0.38124 0.71424 0.0
C1865 C 0.81755 0.41809 0.70115 0.0
C1866 C 0.83647 0.40924 0.69308 0.0
C1867 C 0.84514 0.38608 0.69542 0.0
C1868 C 0.83557 0.37223 0.7059 0.0
C1869 C 0.84777 0.42427 0.68247 0.0
C1870 C 0.84896 0.4154 0.6686 0.0
C1871 C 0.85756 0.44709 0.68597 0.0
C1872 C 0.85785 0.45704 0.70053 0.0
C1873 C 0.86881 0.44439 0.71151 0.0
C1874 C 0.86879 0.45379 0.72523 0.0
C1875 C 0.85804 0.47591 0.72807 0.0
C1876 C 0.84736 0.48873 0.7172 0.0
C1877 C 0.84731 0.47939 0.70346 0.0
H1878 H 0.85803 0.48315 0.7387 0.0
H1879 H 0.85886 0.39362 0.60524 0.0
H1880 H 0.5942 0.05908 0.35038 0.0
H1881 H 0.61376 0.08255 0.33275 0.0
H1882 H 0.66975 0.10217 0.3628 0.0
H1883 H 0.6496 0.07968 0.38075 0.0
H1884 H 0.65617 0.13992 0.34862 0.0
H1885 H 0.67855 0.05952 0.33645 0.0
H1886 H 0.672 0.01669 0.33071 0.0
H1887 H 0.6294 0.03503 0.2945 0.0
H1888 H 0.63543 0.078 0.30013 0.0
H1889 H 0.73685 0.1842 0.29887 0.0
H1890 H 0.71835 0.16033 0.31679 0.0
H1891 H 0.65858 0.14466 0.28858 0.0
H1892 H 0.67701 0.1684 0.27053 0.0
H1893 H 0.67503 0.1047 0.30193 0.0
H1894 H 0.65266 0.18542 0.31462 0.0
H1895 H 0.66 0.22808 0.32048 0.0
H1896 H 0.70392 0.20862 0.35594 0.0
H1897 H 0.6971 0.16581 0.35017 0.0
C1898 C 0.61054 0.06858 0.35331 0.0
C1899 C 0.6203 0.06749 0.36701 0.0
C1900 C 0.62188 0.08175 0.34315 0.0
C1901 C 0.64342 0.09384 0.34638 0.0
C1902 C 0.6532 0.09289 0.36005 0.0
C1903 C 0.64177 0.07983 0.37026 0.0
C1904 C 0.65547 0.10786 0.33557 0.0
C1905 C 0.66063 0.1321 0.33849 0.0
C1906 C 0.66085 0.09782 0.32224 0.0
C1907 C 0.65727 0.07198 0.31879 0.0
C1908 C 0.66764 0.05442 0.32732 0.0
C1909 C 0.66404 0.03012 0.32408 0.0
C1910 C 0.65024 0.02315 0.31227 0.0
C1911 C 0.64007 0.04046 0.30365 0.0
C1912 C 0.64359 0.06479 0.30686 0.0
C1913 C 0.71975 0.1757 0.29646 0.0
C1914 C 0.70836 0.17827 0.28328 0.0
C1915 C 0.70918 0.16213 0.30674 0.0
C1916 C 0.687 0.15091 0.30405 0.0
C1917 C 0.6757 0.15321 0.29087 0.0
C1918 C 0.68622 0.16685 0.28059 0.0
C1919 C 0.67563 0.13669 0.31499 0.0
C1920 C 0.67061 0.11244 0.31208 0.0
C1921 C 0.67052 0.14668 0.32836 0.0
C1922 C 0.67456 0.17241 0.33188 0.0
C1923 C 0.66404 0.19024 0.3236 0.0
C1924 C 0.66808 0.21444 0.32692 0.0
C1925 C 0.68247 0.22106 0.33856 0.0
C1926 C 0.6928 0.20347 0.34692 0.0
C1927 C 0.68884 0.17924 0.34364 0.0
H1928 H 0.68558 0.23981 0.34111 0.0
H1929 H 0.64748 0.00432 0.30978 0.0
H1930 H 0.01186 0.10391 0.60866 0.0
H1931 H 0.98509 0.12635 0.59313 0.0
H1932 H 0.95362 0.16131 0.62904 0.0
H1933 H 0.98022 0.13871 0.64466 0.0
H1934 H 0.91983 0.14443 0.60922 0.0
H1935 H 0.9917 0.19165 0.61066 0.0
H1936 H 0.03505 0.19878 0.60874 0.0
H1937 H 0.03166 0.17547 0.56553 0.0
H1938 H 0.98833 0.16787 0.56724 0.0
H1939 H 0.85562 0.23187 0.57094 0.0
H1940 H 0.88241 0.21194 0.58756 0.0
H1941 H 0.92213 0.18156 0.55322 0.0
H1942 H 0.89588 0.20196 0.53655 0.0
H1943 H 0.95184 0.19727 0.57307 0.0
H1944 H 0.88103 0.14837 0.57147 0.0
H1945 H 0.83785 0.13995 0.57304 0.0
H1946 H 0.83927 0.16479 0.61599 0.0
H1947 H 0.88242 0.17367 0.61462 0.0
C1948 C -0.00086 0.11628 0.61324 0.0
C1949 C 0.99812 0.11962 0.62785 0.0
C1950 C 0.984 0.1292 0.60437 0.0
C1951 C 0.96756 0.14562 0.60996 0.0
C1952 C 0.96627 0.14877 0.62455 0.0
C1953 C 0.98154 0.13599 0.63343 0.0
C1954 C 0.95159 0.15935 0.60053 0.0
C1955 C 0.92676 0.15629 0.60145 0.0
C1956 C 0.96076 0.17431 0.5902 0.0
C1957 C 0.9868 0.17898 0.58912 0.0
C1958 C 0.00023 0.18786 0.60078 0.0
C1959 C 0.02479 0.19202 0.59972 0.0
C1960 C 0.03611 0.18753 0.58703 0.0
C1961 C 0.02287 0.17892 0.57536 0.0
C1962 C -0.0017 0.1747 0.57636 0.0
C1963 C 0.87005 0.22094 0.56692 0.0
C1964 C 0.87355 0.21842 0.55242 0.0
C1965 C 0.8853 0.20948 0.57644 0.0
C1966 C 0.90407 0.19497 0.57163 0.0
C1967 C 0.90775 0.19264 0.55717 0.0
C1968 C 0.89268 0.20428 0.54765 0.0
C1969 C 0.91998 0.18225 0.58165 0.0
C1970 C 0.94483 0.1855 0.58086 0.0
C1971 C 0.91083 0.16729 0.59203 0.0
C1972 C 0.8849 0.16192 0.59289 0.0
C1973 C 0.8721 0.15221 0.58121 0.0
C1974 C 0.84764 0.14732 0.58208 0.0
C1975 C 0.83581 0.15189 0.5946 0.0
C1976 C 0.84845 0.1613 0.6063 0.0
C1977 C 0.87291 0.16624 0.60548 0.0
H1978 H 0.81687 0.1481 0.59524 0.0
H1979 H 0.05513 0.19077 0.58623 0.0
H1980 H 0.903 0.45423 0.8824 0.0
H1981 H 0.88118 0.42905 0.86501 0.0
H1982 H 0.92055 0.46096 0.83191 0.0
H1983 H 0.94212 0.48645 0.8492 0.0
H1984 H 0.87221 0.45659 0.82547 0.0
H1985 H 0.93661 0.40737 0.84316 0.0
H1986 H 0.96068 0.38794 0.86164 0.0
H1987 H 0.89855 0.34972 0.87451 0.0
H1988 H 0.87403 0.3692 0.85621 0.0
H1989 H 0.84925 0.3728 0.7701 0.0
H1990 H 0.86815 0.39891 0.78804 0.0
H1991 H 0.83352 0.35976 0.82029 0.0
H1992 H 0.81512 0.3331 0.80243 0.0
H1993 H 0.8781 0.36812 0.82776 0.0
H1994 H 0.8136 0.41596 0.81002 0.0
H1995 H 0.78878 0.43549 0.79191 0.0
H1996 H 0.84952 0.47643 0.77961 0.0
H1997 H 0.87478 0.45693 0.79755 0.0
C1998 C 0.90681 0.45603 0.8714 0.0
C1999 C 0.92435 0.47219 0.86715 0.0
C2000 C 0.89446 0.44155 0.86151 0.0
C2001 C 0.89944 0.44301 0.84721 0.0
C2002 C 0.91651 0.45953 0.84291 0.0
C2003 C 0.92894 0.47392 0.8528 0.0
C2004 C 0.88723 0.42699 0.83671 0.0
C2005 C 0.87366 0.43725 0.82586 0.0
C2006 C 0.88868 0.40178 0.83748 0.0
C2007 C 0.90344 0.38992 0.84841 0.0
C2008 C 0.92804 0.39496 0.85 0.0
C2009 C 0.94177 0.38392 0.86043 0.0
C2010 C 0.93114 0.36765 0.86927 0.0
C2011 C 0.90676 0.36235 0.86767 0.0
C2012 C 0.89294 0.37337 0.85726 0.0
C2013 C 0.84564 0.36974 0.78101 0.0
C2014 C 0.83063 0.3509 0.78483 0.0
C2015 C 0.85636 0.38477 0.79125 0.0
C2016 C 0.85194 0.38155 0.80551 0.0
C2017 C 0.83715 0.36262 0.80936 0.0
C2018 C 0.82662 0.34741 0.79913 0.0
C2019 C 0.86307 0.39767 0.81642 0.0
C2020 C 0.87648 0.38745 0.82736 0.0
C2021 C 0.86132 0.42293 0.81579 0.0
C2022 C 0.84613 0.43482 0.80505 0.0
C2023 C 0.8217 0.42901 0.8034 0.0
C2024 C 0.80755 0.4401 0.79317 0.0
C2025 C 0.81758 0.45715 0.78459 0.0
C2026 C 0.84178 0.46321 0.78625 0.0
C2027 C 0.85602 0.45216 0.79646 0.0
H2028 H 0.80659 0.46571 0.77668 0.0
H2029 H 0.9418 0.35912 0.87734 0.0
H2030 H 0.63075 0.41531 0.13824 0.0
H2031 H 0.65793 0.39212 0.1234 0.0
H2032 H 0.59713 0.35995 0.10133 0.0
H2033 H 0.57006 0.3822 0.1167 0.0
H2034 H 0.62991 0.32816 0.10344 0.0
H2035 H 0.62923 0.40989 0.08895 0.0
H2036 H 0.63355 0.45368 0.09195 0.0
H2037 H 0.70734 0.44509 0.10449 0.0
H2038 H 0.70337 0.40121 0.10175 0.0
H2039 H 0.68128 0.30459 0.03687 0.0
H2040 H 0.6584 0.32239 0.056 0.0
H2041 H 0.72343 0.33187 0.08079 0.0
H2042 H 0.74651 0.31361 0.06176 0.0
H2043 H 0.69142 0.37379 0.07856 0.0
H2044 H 0.69083 0.29045 0.09032 0.0
H2045 H 0.68456 0.24732 0.08542 0.0
H2046 H 0.61033 0.26017 0.07557 0.0
H2047 H 0.61623 0.30345 0.0802 0.0
C2048 C 0.62332 0.403 0.13033 0.0
C2049 C 0.59843 0.40052 0.12851 0.0
C2050 C 0.63879 0.38989 0.1218 0.0
C2051 C 0.62961 0.37471 0.11099 0.0
C2052 C 0.60469 0.37157 0.10955 0.0
C2053 C 0.58922 0.38428 0.1183 0.0
C2054 C 0.6458 0.3629 0.1008 0.0
C2055 C 0.64321 0.33822 0.09794 0.0
C2056 C 0.66346 0.37588 0.09371 0.0
C2057 C 0.66593 0.40226 0.0953 0.0
C2058 C 0.64633 0.41734 0.09244 0.0
C2059 C 0.64872 0.44217 0.09408 0.0
C2060 C 0.67068 0.45216 0.09844 0.0
C2061 C 0.69033 0.43733 0.10113 0.0
C2062 C 0.68802 0.41248 0.09953 0.0
C2063 C 0.69074 0.31046 0.04638 0.0
C2064 C 0.7157 0.30771 0.04781 0.0
C2065 C 0.67763 0.32052 0.05731 0.0
C2066 C 0.68926 0.32827 0.06979 0.0
C2067 C 0.71419 0.32589 0.07122 0.0
C2068 C 0.7273 0.31544 0.06037 0.0
C2069 C 0.67527 0.33929 0.0812 0.0
C2070 C 0.67826 0.36379 0.08422 0.0
C2071 C 0.65766 0.32627 0.08819 0.0
C2072 C 0.65403 0.30023 0.08549 0.0
C2073 C 0.67322 0.28411 0.08699 0.0
C2074 C 0.66972 0.25963 0.08429 0.0
C2075 C 0.64708 0.25102 0.08016 0.0
C2076 C 0.62787 0.26687 0.07876 0.0
C2077 C 0.63127 0.29137 0.08144 0.0
H2078 H 0.64441 0.23206 0.07807 0.0
H2079 H 0.6725 0.47139 0.09971 0.0
loop_
_geom_bond_atom_site_label_1
_geom_bond_atom_site_label_2
_geom_bond_distance
_geom_bond_site_symmetry_2
_ccdc_geom_bond_type
C0 C1 1.384 . S
C0 C2 1.384 . S
C0 H28 0.931 . S
C1 C0 1.384 . S
C1 C4 1.382 1_565 S
C2 C0 1.384 . S
C2 C3 1.381 1_565 S
C2 H29 0.930 . S
C3 C2 1.381 1_545 S
C3 C5 1.381 . S
C3 C6 1.487 . S
C4 C1 1.382 1_545 S
C4 C5 1.387 . S
C4 H30 0.930 . S
C5 C3 1.381 . S
C5 C4 1.387 . S
C5 H31 0.931 . S
C6 C3 1.487 . S
C6 C13 1.399 . S
C6 N44 1.343 . S
C7 C8 1.384 . S
C7 C9 1.384 . S
C7 H32 0.931 . S
C8 C7 1.384 . S
C8 C11 1.382 . S
C9 C7 1.384 . S
C9 C10 1.381 . S
C9 H33 0.930 1_565 S
C10 C9 1.381 . S
C10 C12 1.381 . S
C10 C13 1.487 1_565 S
C11 C8 1.382 . S
C11 C12 1.387 . S
C11 H34 0.930 . S
C12 C10 1.381 . S
C12 C11 1.387 . S
C12 H35 0.931 . S
C13 C6 1.399 . S
C13 C10 1.487 1_545 S
C13 N45 1.343 . S
C14 C15 1.384 . S
C14 C16 1.384 . S
C14 H36 0.931 . S
C15 C14 1.384 . S
C15 C18 1.382 . S
C16 C14 1.384 . S
C16 C17 1.381 . S
C16 H37 0.930 . S
C17 C16 1.381 . S
C17 C19 1.381 . S
C17 C20 1.487 . S
C18 C15 1.382 . S
C18 C19 1.387 . S
C18 H38 0.944 . S
C19 C17 1.381 . S
C19 C18 1.387 . S
C19 H39 0.931 . S
C20 C17 1.487 . S
C20 C27 1.399 . S
C20 N45 1.343 . S
C21 C22 1.384 1_655 S
C21 C23 1.384 1_655 S
C21 H40 0.931 . S
C22 C21 1.384 1_455 S
C22 C25 1.382 . S
C23 C21 1.384 1_455 S
C23 C24 1.381 . S
C23 H41 0.930 . S
C24 C23 1.381 . S
C24 C26 1.381 . S
C24 C27 1.487 . S
C25 C22 1.382 . S
C25 C26 1.387 . S
C25 H42 0.930 . S
C26 C24 1.381 . S
C26 C25 1.387 . S
C26 H43 0.931 . S
C27 C20 1.399 . S
C27 C24 1.487 . S
C27 N44 1.343 . S
H28 C0 0.931 . S
H29 C2 0.930 . S
H30 C4 0.930 . S
H31 C5 0.931 . S
H32 C7 0.931 . S
H33 C9 0.930 1_545 S
H34 C11 0.930 . S
H35 C12 0.931 . S
H36 C14 0.931 . S
H37 C16 0.930 . S
H38 C18 0.944 . S
H39 C19 0.931 . S
H40 C21 0.931 . S
H41 C23 0.930 . S
H42 C25 0.930 . S
H43 C26 0.931 . S
N44 C6 1.343 . S
N44 C27 1.343 . S
N45 C13 1.343 . S
N45 C20 1.343 . S
C46 C47 1.384 . S
C46 C48 1.384 . S
C46 H74 0.931 . S
C47 C46 1.384 . S
C47 C50 1.382 . S
C48 C46 1.384 . S
C48 C49 1.381 . S
C48 H75 0.930 . S
C49 C48 1.381 . S
C49 C51 1.381 . S
C49 C52 1.497 . S
C50 C47 1.382 . S
C50 C51 1.387 . S
C50 H76 0.930 . S
C51 C49 1.381 . S
C51 C50 1.387 . S
C51 H77 0.931 1_655 S
C52 C49 1.497 . S
C52 C59 1.398 1_655 S
C52 N90 1.333 1_655 S
C53 C54 1.384 . S
C53 C55 1.384 . S
C53 H78 0.931 . S
C54 C53 1.384 . S
C54 C57 1.382 . S
C55 C53 1.384 . S
C55 C56 1.381 . S
C55 H79 0.930 . S
C56 C55 1.381 . S
C56 C58 1.381 . S
C56 C59 1.489 1_655 S
C57 C54 1.382 . S
C57 C58 1.387 . S
C57 H80 0.930 . S
C58 C56 1.381 . S
C58 C57 1.387 . S
C58 H81 0.931 . S
C59 C52 1.398 1_455 S
C59 C56 1.489 1_455 S
C59 N91 1.341 . S
C60 C61 1.384 . S
C60 C62 1.384 . S
C60 H82 0.931 . S
C61 C60 1.384 . S
C61 C64 1.382 . S
C62 C60 1.384 . S
C62 C63 1.381 . S
C62 H83 0.930 . S
C63 C62 1.381 . S
C63 C65 1.381 . S
C63 C66 1.487 . S
C64 C61 1.382 . S
C64 C65 1.387 . S
C64 H84 0.930 . S
C65 C63 1.381 . S
C65 C64 1.387 . S
C65 H85 0.931 . S
C66 C63 1.487 . S
C66 C73 1.399 . S
C66 N91 1.343 . S
C67 C68 1.384 . S
C67 C69 1.384 . S
C67 H86 0.931 . S
C68 C67 1.384 . S
C68 C71 1.382 . S
C69 C67 1.384 . S
C69 C70 1.381 . S
C69 H87 0.930 . S
C70 C69 1.381 . S
C70 C72 1.381 . S
C70 C73 1.487 . S
C71 C68 1.382 . S
C71 C72 1.387 . S
C71 H88 0.930 . S
C72 C70 1.381 . S
C72 C71 1.387 . S
C72 H89 0.931 . S
C73 C66 1.399 . S
C73 C70 1.487 . S
C73 N90 1.343 . S
H74 C46 0.931 . S
H75 C48 0.930 . S
H76 C50 0.930 . S
H77 C51 0.931 1_455 S
H78 C53 0.931 . S
H79 C55 0.930 . S
H80 C57 0.930 . S
H81 C58 0.931 . S
H82 C60 0.931 . S
H83 C62 0.930 . S
H84 C64 0.930 . S
H85 C65 0.931 . S
H86 C67 0.931 . S
H87 C69 0.930 . S
H88 C71 0.930 . S
H89 C72 0.931 . S
N90 C52 1.333 1_455 S
N90 C73 1.343 . S
N91 C59 1.341 . S
N91 C66 1.343 . S
C92 C93 1.384 . S
C92 C94 1.384 . S
C92 H120 0.931 . S
C93 C92 1.384 . S
C93 C96 1.382 . S
C94 C92 1.384 . S
C94 C95 1.381 . S
C94 H121 0.930 . S
C95 C94 1.381 . S
C95 C97 1.381 . S
C95 C98 1.487 . S
C96 C93 1.382 . S
C96 C97 1.387 . S
C96 H122 0.930 . S
C97 C95 1.381 . S
C97 C96 1.387 . S
C97 H123 0.931 . S
C98 C95 1.487 . S
C98 C105 1.399 . S
C98 N136 1.343 . S
C99 C100 1.384 . S
C99 C101 1.384 . S
C99 H124 0.931 . S
C100 C99 1.384 . S
C100 C103 1.382 . S
C101 C99 1.384 . S
C101 C102 1.381 . S
C101 H125 0.930 . S
C102 C101 1.381 . S
C102 C104 1.381 . S
C102 C105 1.487 . S
C103 C100 1.382 . S
C103 C104 1.387 . S
C103 H126 0.930 . S
C104 C102 1.381 . S
C104 C103 1.387 . S
C104 H127 0.931 . S
C105 C98 1.399 . S
C105 C102 1.487 . S
C105 N137 1.343 . S
C106 C107 1.384 . S
C106 C108 1.384 . S
C106 H128 0.931 . S
C107 C106 1.384 . S
C107 C110 1.382 . S
C108 C106 1.384 . S
C108 C109 1.381 . S
C108 H129 0.930 . S
C109 C108 1.381 . S
C109 C111 1.381 . S
C109 C112 1.487 . S
C110 C107 1.382 . S
C110 C111 1.387 . S
C110 H130 0.930 . S
C111 C109 1.381 . S
C111 C110 1.387 . S
C111 H131 0.931 . S
C112 C109 1.487 . S
C112 C119 1.399 . S
C112 N137 1.343 . S
C113 C114 1.384 . S
C113 C115 1.384 . S
C113 H132 0.931 . S
C114 C113 1.384 . S
C114 C117 1.382 . S
C115 C113 1.384 . S
C115 C116 1.381 . S
C115 H133 0.930 . S
C116 C115 1.381 . S
C116 C118 1.381 . S
C116 C119 1.487 . S
C117 C114 1.382 . S
C117 C118 1.387 . S
C117 H134 0.930 . S
C118 C116 1.381 . S
C118 C117 1.387 . S
C118 H135 0.931 . S
C119 C112 1.399 . S
C119 C116 1.487 . S
C119 N136 1.343 . S
H120 C92 0.931 . S
H121 C94 0.930 . S
H122 C96 0.930 . S
H123 C97 0.931 . S
H124 C99 0.931 . S
H125 C101 0.930 . S
H126 C103 0.930 . S
H127 C104 0.931 . S
H128 C106 0.931 . S
H129 C108 0.930 . S
H130 C110 0.930 . S
H131 C111 0.931 . S
H132 C113 0.931 . S
H133 C115 0.930 . S
H134 C117 0.930 . S
H135 C118 0.931 . S
N136 C98 1.343 . S
N136 C119 1.343 . S
N137 C105 1.343 . S
N137 C112 1.343 . S
C138 C139 1.384 . S
C138 C140 1.384 . S
C138 H166 0.931 . S
C139 C138 1.384 . S
C139 C142 1.382 . S
C140 C138 1.384 . S
C140 C141 1.381 . S
C140 H167 0.930 . S
C141 C140 1.381 . S
C141 C143 1.381 . S
C141 C144 1.487 . S
C142 C139 1.382 . S
C142 C143 1.387 . S
C142 H168 0.930 . S
C143 C141 1.381 . S
C143 C142 1.387 . S
C143 H169 0.931 . S
C144 C141 1.487 . S
C144 C151 1.399 . S
C144 N182 1.343 1_565 S
C145 C146 1.384 . S
C145 C147 1.384 . S
C145 H170 0.931 . S
C146 C145 1.384 . S
C146 C149 1.382 . S
C147 C145 1.384 . S
C147 C148 1.381 . S
C147 H171 0.930 . S
C148 C147 1.381 . S
C148 C150 1.381 . S
C148 C151 1.487 . S
C149 C146 1.382 . S
C149 C150 1.387 . S
C149 H172 0.930 . S
C150 C148 1.381 . S
C150 C149 1.387 . S
C150 H173 0.931 . S
C151 C144 1.399 . S
C151 C148 1.487 . S
C151 N183 1.343 . S
C152 C153 1.384 . S
C152 C154 1.384 . S
C152 H174 0.931 . S
C153 C152 1.384 . S
C153 C156 1.382 . S
C154 C152 1.384 . S
C154 C155 1.381 . S
C154 H175 0.930 . S
C155 C154 1.381 . S
C155 C157 1.381 . S
C155 C158 1.487 . S
C156 C153 1.382 . S
C156 C157 1.387 . S
C156 H176 0.930 . S
C157 C155 1.381 . S
C157 C156 1.387 . S
C157 H177 0.931 . S
C158 C155 1.487 . S
C158 C165 1.399 . S
C158 N183 1.343 1_545 S
C159 C160 1.384 . S
C159 C161 1.384 . S
C159 H178 0.931 . S
C160 C159 1.384 . S
C160 C163 1.382 . S
C161 C159 1.384 . S
C161 C162 1.381 . S
C161 H179 0.930 . S
C162 C161 1.381 . S
C162 C164 1.381 . S
C162 C165 1.487 . S
C163 C160 1.382 . S
C163 C164 1.387 . S
C163 H180 0.930 . S
C164 C162 1.381 . S
C164 C163 1.387 . S
C164 H181 0.931 . S
C165 C158 1.399 . S
C165 C162 1.487 . S
C165 N182 1.343 . S
H166 C138 0.931 . S
H167 C140 0.930 . S
H168 C142 0.930 . S
H169 C143 0.931 . S
H170 C145 0.931 . S
H171 C147 0.930 . S
H172 C149 0.930 . S
H173 C150 0.931 . S
H174 C152 0.931 . S
H175 C154 0.930 . S
H176 C156 0.930 . S
H177 C157 0.931 . S
H178 C159 0.931 . S
H179 C161 0.930 . S
H180 C163 0.930 . S
H181 C164 0.931 . S
N182 C144 1.343 1_545 S
N182 C165 1.343 . S
N183 C151 1.343 . S
N183 C158 1.343 1_565 S
C184 C185 1.384 . S
C184 C186 1.384 . S
C184 H212 0.931 . S
C185 C184 1.384 . S
C185 C188 1.382 . S
C186 C184 1.384 . S
C186 C187 1.381 . S
C186 H213 0.930 . S
C187 C186 1.381 . S
C187 C189 1.381 . S
C187 C190 1.487 . S
C188 C185 1.382 . S
C188 C189 1.387 . S
C188 H214 0.930 . S
C189 C187 1.381 . S
C189 C188 1.387 . S
C189 H215 0.931 . S
C190 C187 1.487 . S
C190 C197 1.399 . S
C190 N228 1.343 . S
C191 C192 1.384 . S
C191 C193 1.384 . S
C191 H216 0.931 . S
C192 C191 1.384 . S
C192 C195 1.382 . S
C193 C191 1.384 . S
C193 C194 1.381 . S
C193 H217 0.930 . S
C194 C193 1.381 . S
C194 C196 1.381 . S
C194 C197 1.487 . S
C195 C192 1.382 . S
C195 C196 1.387 . S
C195 H218 0.930 . S
C196 C194 1.381 . S
C196 C195 1.387 . S
C196 H219 0.931 . S
C197 C190 1.399 . S
C197 C194 1.487 . S
C197 N229 1.354 . S
C198 C199 1.384 . S
C198 C200 1.384 . S
C198 H220 0.931 . S
C199 C198 1.384 . S
C199 C202 1.382 . S
C200 C198 1.384 . S
C200 C201 1.381 . S
C200 H221 0.930 . S
C201 C200 1.381 . S
C201 C203 1.381 . S
C201 C204 1.487 . S
C202 C199 1.382 . S
C202 C203 1.387 . S
C202 H222 0.930 . S
C203 C201 1.381 . S
C203 C202 1.387 . S
C203 H223 0.931 . S
C204 C201 1.487 . S
C204 C211 1.399 . S
C204 N229 1.334 1_655 S
C205 C206 1.384 . S
C205 C207 1.384 . S
C205 H224 0.931 . S
C206 C205 1.384 . S
C206 C209 1.382 . S
C207 C205 1.384 . S
C207 C208 1.381 . S
C207 H225 0.930 . S
C208 C207 1.381 . S
C208 C210 1.381 . S
C208 C211 1.487 . S
C209 C206 1.382 . S
C209 C210 1.387 . S
C209 H226 0.930 . S
C210 C208 1.381 . S
C210 C209 1.387 . S
C210 H227 0.931 . S
C211 C204 1.399 . S
C211 C208 1.487 . S
C211 N228 1.343 1_655 S
H212 C184 0.931 . S
H213 C186 0.930 . S
H214 C188 0.930 . S
H215 C189 0.931 . S
H216 C191 0.931 . S
H217 C193 0.930 . S
H218 C195 0.930 . S
H219 C196 0.931 . S
H220 C198 0.931 . S
H221 C200 0.930 . S
H222 C202 0.930 . S
H223 C203 0.931 . S
H224 C205 0.931 . S
H225 C207 0.930 . S
H226 C209 0.930 . S
H227 C210 0.931 . S
N228 C190 1.343 . S
N228 C211 1.343 1_455 S
N229 C197 1.354 . S
N229 C204 1.334 1_455 S
C230 C231 1.384 . S
C230 C232 1.384 . S
C230 H258 0.931 . S
C231 C230 1.384 . S
C231 C234 1.382 . S
C232 C230 1.384 . S
C232 C233 1.381 . S
C232 H259 0.930 . S
C233 C232 1.381 . S
C233 C235 1.381 . S
C233 C236 1.487 . S
C234 C231 1.382 . S
C234 C235 1.387 . S
C234 H260 0.930 . S
C235 C233 1.381 . S
C235 C234 1.387 . S
C235 H261 0.931 . S
C236 C233 1.487 . S
C236 C243 1.399 . S
C236 N274 1.343 . S
C237 C238 1.384 . S
C237 C239 1.384 . S
C237 H262 0.931 . S
C238 C237 1.384 . S
C238 C241 1.382 . S
C239 C237 1.384 . S
C239 C240 1.381 . S
C239 H263 0.930 . S
C240 C239 1.381 . S
C240 C242 1.381 . S
C240 C243 1.487 . S
C241 C238 1.382 . S
C241 C242 1.387 . S
C241 H264 0.930 . S
C242 C240 1.381 . S
C242 C241 1.387 . S
C242 H265 0.931 . S
C243 C236 1.399 . S
C243 C240 1.487 . S
C243 N275 1.343 . S
C244 C245 1.384 . S
C244 C246 1.384 . S
C244 H266 0.931 . S
C245 C244 1.384 . S
C245 C248 1.382 . S
C246 C244 1.384 . S
C246 C247 1.381 . S
C246 H267 0.930 . S
C247 C246 1.381 . S
C247 C249 1.381 . S
C247 C250 1.487 . S
C248 C245 1.382 . S
C248 C249 1.387 . S
C248 H268 0.930 . S
C249 C247 1.381 . S
C249 C248 1.387 . S
C249 H269 0.931 . S
C250 C247 1.487 . S
C250 C257 1.399 . S
C250 N275 1.343 . S
C251 C252 1.384 . S
C251 C253 1.384 . S
C251 H270 0.931 . S
C252 C251 1.384 . S
C252 C255 1.382 . S
C253 C251 1.384 . S
C253 C254 1.381 . S
C253 H271 0.930 . S
C254 C253 1.381 . S
C254 C256 1.381 . S
C254 C257 1.487 . S
C255 C252 1.382 . S
C255 C256 1.387 . S
C255 H272 0.930 . S
C256 C254 1.381 . S
C256 C255 1.387 . S
C256 H273 0.931 . S
C257 C250 1.399 . S
C257 C254 1.487 . S
C257 N274 1.343 . S
H258 C230 0.931 . S
H259 C232 0.930 . S
H260 C234 0.930 . S
H261 C235 0.931 . S
H262 C237 0.931 . S
H263 C239 0.930 . S
H264 C241 0.930 . S
H265 C242 0.931 . S
H266 C244 0.931 . S
H267 C246 0.930 . S
H268 C248 0.930 . S
H269 C249 0.931 . S
H270 C251 0.931 . S
H271 C253 0.930 . S
H272 C255 0.930 . S
H273 C256 0.931 . S
N274 C236 1.343 . S
N274 C257 1.343 . S
N275 C243 1.343 . S
N275 C250 1.343 . S
C276 C277 1.384 . S
C276 C278 1.384 . S
C276 H304 0.931 . S
C277 C276 1.384 . S
C277 C280 1.382 . S
C278 C276 1.384 . S
C278 C279 1.381 . S
C278 H305 0.930 . S
C279 C278 1.381 . S
C279 C281 1.381 . S
C279 C282 1.487 . S
C280 C277 1.382 . S
C280 C281 1.387 . S
C280 H306 0.930 . S
C281 C279 1.381 . S
C281 C280 1.387 . S
C281 H307 0.931 1_565 S
C282 C279 1.487 . S
C282 C289 1.399 . S
C282 N320 1.343 1_565 S
C283 C284 1.384 . S
C283 C285 1.384 . S
C283 H308 0.931 . S
C284 C283 1.384 . S
C284 C287 1.382 . S
C285 C283 1.384 . S
C285 C286 1.381 . S
C285 H309 0.930 . S
C286 C285 1.381 . S
C286 C288 1.381 . S
C286 C289 1.487 . S
C287 C284 1.382 . S
C287 C288 1.387 . S
C287 H310 0.930 . S
C288 C286 1.381 . S
C288 C287 1.387 . S
C288 H311 0.931 . S
C289 C282 1.399 . S
C289 C286 1.487 . S
C289 N321 1.343 1_565 S
C290 C291 1.384 . S
C290 C292 1.384 . S
C290 H312 0.931 . S
C291 C290 1.384 . S
C291 C294 1.382 . S
C292 C290 1.384 . S
C292 C293 1.381 . S
C292 H313 0.930 . S
C293 C292 1.381 . S
C293 C295 1.381 . S
C293 C296 1.487 . S
C294 C291 1.382 . S
C294 C295 1.387 . S
C294 H314 0.930 . S
C295 C293 1.381 . S
C295 C294 1.387 . S
C295 H315 0.931 . S
C296 C293 1.487 . S
C296 C303 1.399 . S
C296 N321 1.343 . S
C297 C298 1.384 . S
C297 C299 1.384 . S
C297 H316 0.931 . S
C298 C297 1.384 . S
C298 C301 1.382 . S
C299 C297 1.384 . S
C299 C300 1.381 . S
C299 H317 0.930 . S
C300 C299 1.381 . S
C300 C302 1.381 . S
C300 C303 1.487 . S
C301 C298 1.382 . S
C301 C302 1.387 . S
C301 H318 0.930 . S
C302 C300 1.381 . S
C302 C301 1.387 . S
C302 H319 0.931 . S
C303 C296 1.399 . S
C303 C300 1.487 . S
C303 N320 1.343 . S
H304 C276 0.931 . S
H305 C278 0.930 . S
H306 C280 0.930 . S
H307 C281 0.931 1_545 S
H308 C283 0.931 . S
H309 C285 0.930 . S
H310 C287 0.930 . S
H311 C288 0.931 . S
H312 C290 0.931 . S
H313 C292 0.930 . S
H314 C294 0.930 . S
H315 C295 0.931 . S
H316 C297 0.931 . S
H317 C299 0.930 . S
H318 C301 0.930 . S
H319 C302 0.931 . S
N320 C282 1.343 1_545 S
N320 C303 1.343 . S
N321 C289 1.343 1_545 S
N321 C296 1.343 . S
C322 C323 1.384 1_545 S
C322 C324 1.384 . S
C322 H350 0.925 1_545 S
C323 C322 1.384 1_565 S
C323 C326 1.382 . S
C324 C322 1.384 . S
C324 C325 1.381 . S
C324 H351 0.930 . S
C325 C324 1.381 . S
C325 C327 1.381 . S
C325 C328 1.487 . S
C326 C323 1.382 . S
C326 C327 1.387 1_565 S
C326 H352 0.930 . S
C327 C325 1.381 . S
C327 C326 1.387 1_545 S
C327 H353 0.931 . S
C328 C325 1.487 . S
C328 C335 1.399 . S
C328 N366 1.343 . S
C329 C330 1.384 . S
C329 C331 1.384 . S
C329 H354 0.931 . S
C330 C329 1.384 . S
C330 C333 1.382 1_565 S
C331 C329 1.384 . S
C331 C332 1.381 1_565 S
C331 H355 0.930 . S
C332 C331 1.381 1_545 S
C332 C334 1.381 . S
C332 C335 1.487 . S
C333 C330 1.382 1_545 S
C333 C334 1.387 . S
C333 H356 0.930 . S
C334 C332 1.381 . S
C334 C333 1.387 . S
C334 H357 0.931 . S
C335 C328 1.399 . S
C335 C332 1.487 . S
C335 N367 1.343 . S
C336 C337 1.384 1_655 S
C336 C338 1.384 1_655 S
C336 H358 0.931 . S
C337 C336 1.384 1_455 S
C337 C340 1.382 . S
C338 C336 1.384 1_455 S
C338 C339 1.381 . S
C338 H359 0.930 1_455 S
C339 C338 1.381 . S
C339 C341 1.381 . S
C339 C342 1.487 . S
C340 C337 1.382 . S
C340 C341 1.387 . S
C340 H360 0.930 . S
C341 C339 1.381 . S
C341 C340 1.387 . S
C341 H361 0.931 . S
C342 C339 1.487 . S
C342 C349 1.399 . S
C342 N367 1.343 . S
C343 C344 1.384 . S
C343 C345 1.384 . S
C343 H362 0.931 . S
C344 C343 1.384 . S
C344 C347 1.382 . S
C345 C343 1.384 . S
C345 C346 1.381 . S
C345 H363 0.930 . S
C346 C345 1.381 . S
C346 C348 1.381 . S
C346 C349 1.487 . S
C347 C344 1.382 . S
C347 C348 1.387 . S
C347 H364 0.914 1_455 S
C348 C346 1.381 . S
C348 C347 1.387 . S
C348 H365 0.931 . S
C349 C342 1.399 . S
C349 C346 1.487 . S
C349 N366 1.343 . S
H350 C322 0.925 1_565 S
H351 C324 0.930 . S
H352 C326 0.930 . S
H353 C327 0.931 . S
H354 C329 0.931 . S
H355 C331 0.930 . S
H356 C333 0.930 . S
H357 C334 0.931 . S
H358 C336 0.931 . S
H359 C338 0.930 1_655 S
H360 C340 0.930 . S
H361 C341 0.931 . S
H362 C343 0.931 . S
H363 C345 0.930 . S
H364 C347 0.914 1_655 S
H365 C348 0.931 . S
N366 C328 1.343 . S
N366 C349 1.343 . S
N367 C335 1.343 . S
N367 C342 1.343 . S
Zn368 O371 2.031 . S
Zn368 O373 2.049 1_556 S
Zn368 O378 2.067 . S
Zn369 O370 1.962 . S
Zn369 O372 1.986 . S
Zn369 O374 1.996 . S
Zn369 O377 1.943 . S
O370 Zn369 1.962 . S
O370 C375 1.254 . S
O371 Zn368 2.031 . S
O371 C375 1.269 1_556 S
O372 Zn369 1.986 . S
O372 C379 1.262 . S
O373 Zn368 2.049 1_554 S
O373 C381 1.260 . S
O374 Zn369 1.996 . S
O374 C381 1.257 . S
C375 O370 1.254 . S
C375 O371 1.269 1_554 S
C376 O377 1.249 1_556 S
C376 O378 1.270 . S
O377 Zn369 1.943 . S
O377 C376 1.249 1_554 S
O378 Zn368 2.067 . S
O378 C376 1.270 . S
C379 O372 1.262 . S
C379 O380 1.232 . S
O380 C379 1.232 . S
C381 O373 1.260 . S
C381 O374 1.257 . S
Zn382 O385 2.031 . S
Zn382 O387 2.049 . S
Zn382 O392 2.067 . S
Zn383 O384 1.962 . S
Zn383 O386 1.986 . S
Zn383 O388 1.996 . S
Zn383 O391 1.943 . S
O384 Zn383 1.962 . S
O384 C389 1.254 . S
O385 Zn382 2.031 . S
O385 C389 1.269 . S
O386 Zn383 1.986 . S
O386 C393 1.262 . S
O387 Zn382 2.049 . S
O387 C395 1.260 . S
O388 Zn383 1.996 . S
O388 C395 1.257 . S
C389 O384 1.254 . S
C389 O385 1.269 . S
C390 O391 1.249 . S
C390 O392 1.270 . S
O391 Zn383 1.943 . S
O391 C390 1.249 . S
O392 Zn382 2.067 . S
O392 C390 1.270 . S
C393 O386 1.262 . S
C393 O394 1.232 . S
O394 C393 1.232 . S
C395 O387 1.260 . S
C395 O388 1.257 . S
Zn396 O399 2.031 . S
Zn396 O401 2.049 . S
Zn396 O406 2.067 . S
Zn397 O398 1.962 . S
Zn397 O400 1.986 . S
Zn397 O402 1.996 . S
Zn397 O405 1.943 . S
O398 Zn397 1.962 . S
O398 C403 1.254 . S
O399 Zn396 2.031 . S
O399 C403 1.269 . S
O400 Zn397 1.986 . S
O400 C407 1.262 . S
O401 Zn396 2.049 . S
O401 C409 1.260 . S
O402 Zn397 1.996 . S
O402 C409 1.257 . S
C403 O398 1.254 . S
C403 O399 1.269 . S
C404 O405 1.249 . S
C404 O406 1.270 . S
O405 Zn397 1.943 . S
O405 C404 1.249 . S
O406 Zn396 2.067 . S
O406 C404 1.270 . S
C407 O400 1.262 . S
C407 O408 1.232 . S
O408 C407 1.232 . S
C409 O401 1.260 . S
C409 O402 1.257 . S
Zn410 O413 2.031 . S
Zn410 O415 2.049 . S
Zn410 O420 2.067 . S
Zn411 O412 1.962 . S
Zn411 O414 1.986 . S
Zn411 O416 1.996 . S
Zn411 O419 1.943 . S
O412 Zn411 1.962 . S
O412 C417 1.254 . S
O413 Zn410 2.031 . S
O413 C417 1.269 . S
O414 Zn411 1.986 . S
O414 C421 1.262 . S
O415 Zn410 2.049 . S
O415 C423 1.260 . S
O416 Zn411 1.996 . S
O416 C423 1.257 . S
C417 O412 1.254 . S
C417 O413 1.269 . S
C418 O419 1.249 . S
C418 O420 1.270 . S
O419 Zn411 1.943 . S
O419 C418 1.249 . S
O420 Zn410 2.067 . S
O420 C418 1.270 . S
C421 O414 1.262 . S
C421 O422 1.232 . S
O422 C421 1.232 . S
C423 O415 1.260 . S
C423 O416 1.257 . S
Zn424 O427 2.031 . S
Zn424 O429 2.049 . S
Zn424 O434 2.067 . S
Zn425 O426 1.962 . S
Zn425 O428 1.986 . S
Zn425 O430 1.996 . S
Zn425 O433 1.943 . S
O426 Zn425 1.962 . S
O426 C431 1.254 . S
O427 Zn424 2.031 . S
O427 C431 1.269 . S
O428 Zn425 1.986 . S
O428 C435 1.262 . S
O429 Zn424 2.049 . S
O429 C437 1.260 . S
O430 Zn425 1.996 . S
O430 C437 1.257 . S
C431 O426 1.254 . S
C431 O427 1.269 . S
C432 O433 1.249 . S
C432 O434 1.270 . S
O433 Zn425 1.943 . S
O433 C432 1.249 . S
O434 Zn424 2.067 . S
O434 C432 1.270 . S
C435 O428 1.262 . S
C435 O436 1.232 . S
O436 C435 1.232 . S
C437 O429 1.260 . S
C437 O430 1.257 . S
Zn438 O441 2.031 . S
Zn438 O443 2.049 . S
Zn438 O448 2.067 . S
Zn439 O440 1.962 . S
Zn439 O442 1.986 . S
Zn439 O444 1.996 . S
Zn439 O447 1.943 . S
O440 Zn439 1.962 . S
O440 C445 1.254 . S
O441 Zn438 2.031 . S
O441 C445 1.269 . S
O442 Zn439 1.986 . S
O442 C449 1.262 . S
O443 Zn438 2.049 . S
O443 C451 1.260 . S
O444 Zn439 1.996 . S
O444 C451 1.257 . S
C445 O440 1.254 . S
C445 O441 1.269 . S
C446 O447 1.249 . S
C446 O448 1.270 . S
O447 Zn439 1.943 . S
O447 C446 1.249 . S
O448 Zn438 2.067 . S
O448 C446 1.270 . S
C449 O442 1.262 . S
C449 O450 1.232 . S
O450 C449 1.232 . S
C451 O443 1.260 . S
C451 O444 1.257 . S
Zn452 O455 2.031 . S
Zn452 O457 2.049 . S
Zn452 O462 2.067 . S
Zn453 O454 1.962 . S
Zn453 O456 1.986 . S
Zn453 O458 1.996 . S
Zn453 O461 1.943 1_556 S
O454 Zn453 1.962 . S
O454 C459 1.254 1_556 S
O455 Zn452 2.031 . S
O455 C459 1.269 . S
O456 Zn453 1.986 . S
O456 C463 1.262 . S
O457 Zn452 2.049 . S
O457 C465 1.277 . S
O458 Zn453 1.996 . S
O458 C465 1.252 1_556 S
C459 O454 1.254 1_554 S
C459 O455 1.269 . S
C460 O461 1.249 . S
C460 O462 1.270 . S
O461 Zn453 1.943 1_554 S
O461 C460 1.249 . S
O462 Zn452 2.067 . S
O462 C460 1.270 . S
C463 O456 1.262 . S
C463 O464 1.232 . S
O464 C463 1.232 . S
C465 O457 1.277 . S
C465 O458 1.252 1_554 S
Zn466 O469 2.031 . S
Zn466 O471 2.049 . S
Zn466 O476 2.067 . S
Zn467 O468 1.962 . S
Zn467 O470 1.986 . S
Zn467 O472 1.996 . S
Zn467 O475 1.943 . S
O468 Zn467 1.962 . S
O468 C473 1.254 . S
O469 Zn466 2.031 . S
O469 C473 1.269 . S
O470 Zn467 1.986 . S
O470 C477 1.262 . S
O471 Zn466 2.049 . S
O471 C479 1.260 . S
O472 Zn467 1.996 . S
O472 C479 1.257 . S
C473 O468 1.254 . S
C473 O469 1.269 . S
C474 O475 1.249 . S
C474 O476 1.270 . S
O475 Zn467 1.943 . S
O475 C474 1.249 . S
O476 Zn466 2.067 . S
O476 C474 1.270 . S
C477 O470 1.262 . S
C477 O478 1.232 . S
O478 C477 1.232 . S
C479 O471 1.260 . S
C479 O472 1.257 . S
H480 C498 0.951 . S
H481 C500 0.951 . S
H482 C502 0.950 . S
H483 C503 0.950 . S
H484 C505 0.950 . S
H485 C508 0.950 . S
H486 C509 0.950 . S
H487 C511 0.950 . S
H488 C512 0.950 . S
H489 C513 0.951 . S
H490 C515 0.951 . S
H491 C517 0.950 . S
H492 C518 0.950 . S
H493 C520 0.950 . S
H494 C523 0.950 . S
H495 C524 0.950 . S
H496 C526 0.950 . S
H497 C527 0.950 . S
C498 H480 0.951 . S
C498 C499 1.366 . S
C498 C500 1.388 . S
C499 C498 1.366 . S
C499 C503 1.385 . S
C500 H481 0.951 . S
C500 C498 1.388 . S
C500 C501 1.366 . S
C501 C500 1.366 . S
C501 C502 1.414 . S
C501 C504 1.499 . S
C502 H482 0.950 . S
C502 C501 1.414 . S
C502 C503 1.374 . S
C503 H483 0.950 . S
C503 C499 1.385 . S
C503 C502 1.374 . S
C504 C501 1.499 . S
C504 C505 1.373 . S
C504 C506 1.389 . S
C505 H484 0.950 . S
C505 C504 1.373 . S
C505 C521 1.377 . S
C506 C504 1.389 . S
C506 C507 1.524 . S
C506 C520 1.377 . S
C507 C506 1.524 . S
C507 C508 1.397 . S
C507 C512 1.363 . S
C508 H485 0.950 . S
C508 C507 1.397 . S
C508 C509 1.334 . S
C509 H486 0.950 . S
C509 C508 1.334 . S
C509 C510 1.287 . S
C510 C509 1.287 . S
C510 C511 1.524 . S
C510 H529 0.913 . S
C511 H487 0.950 . S
C511 C510 1.524 . S
C511 C512 1.415 . S
C512 H488 0.950 . S
C512 C507 1.363 . S
C512 C511 1.415 . S
C513 H489 0.951 . S
C513 C514 1.366 . S
C513 C515 1.388 . S
C514 C513 1.366 . S
C514 C518 1.385 . S
C515 H490 0.951 . S
C515 C513 1.388 . S
C515 C516 1.366 . S
C516 C515 1.366 . S
C516 C517 1.414 . S
C516 C519 1.499 . S
C517 H491 0.950 . S
C517 C516 1.414 . S
C517 C518 1.374 . S
C518 H492 0.950 . S
C518 C514 1.385 . S
C518 C517 1.374 . S
C519 C516 1.499 . S
C519 C520 1.373 . S
C519 C521 1.389 . S
C520 H493 0.950 . S
C520 C506 1.377 . S
C520 C519 1.373 . S
C521 C505 1.377 . S
C521 C519 1.389 . S
C521 C522 1.524 . S
C522 C521 1.524 . S
C522 C523 1.397 . S
C522 C527 1.363 . S
C523 H494 0.950 . S
C523 C522 1.397 . S
C523 C524 1.334 . S
C524 H495 0.950 . S
C524 C523 1.334 . S
C524 C525 1.287 . S
C525 C524 1.287 . S
C525 C526 1.524 . S
C525 H528 0.999 . S
C526 H496 0.950 . S
C526 C525 1.524 . S
C526 C527 1.415 . S
C527 H497 0.950 . S
C527 C522 1.363 . S
C527 C526 1.415 . S
H528 C525 0.999 . S
H529 C510 0.913 . S
H530 C548 0.951 . S
H531 C550 0.951 . S
H532 C552 0.950 . S
H533 C553 0.950 . S
H534 C555 0.950 . S
H535 C558 0.950 . S
H536 C559 0.950 . S
H537 C561 0.950 . S
H538 C562 0.950 . S
H539 C563 0.951 . S
H540 C565 0.951 . S
H541 C567 0.950 . S
H542 C568 0.950 . S
H543 C570 0.950 . S
H544 C573 0.950 . S
H545 C574 0.950 . S
H546 C576 0.950 . S
H547 C577 0.950 . S
C548 H530 0.951 . S
C548 C549 1.366 . S
C548 C550 1.388 . S
C549 C548 1.366 . S
C549 C553 1.385 . S
C550 H531 0.951 . S
C550 C548 1.388 . S
C550 C551 1.366 . S
C551 C550 1.366 . S
C551 C552 1.414 . S
C551 C554 1.499 . S
C552 H532 0.950 . S
C552 C551 1.414 . S
C552 C553 1.374 . S
C553 H533 0.950 . S
C553 C549 1.385 . S
C553 C552 1.374 . S
C554 C551 1.499 . S
C554 C555 1.373 . S
C554 C556 1.389 . S
C555 H534 0.950 . S
C555 C554 1.373 . S
C555 C571 1.377 . S
C556 C554 1.389 . S
C556 C557 1.524 . S
C556 C570 1.377 . S
C557 C556 1.524 . S
C557 C558 1.397 . S
C557 C562 1.363 . S
C558 H535 0.950 . S
C558 C557 1.397 . S
C558 C559 1.334 . S
C559 H536 0.950 . S
C559 C558 1.334 . S
C559 C560 1.287 . S
C560 C559 1.287 . S
C560 C561 1.524 . S
C560 H579 0.913 . S
C561 H537 0.950 . S
C561 C560 1.524 . S
C561 C562 1.415 . S
C562 H538 0.950 . S
C562 C557 1.363 . S
C562 C561 1.415 . S
C563 H539 0.951 . S
C563 C564 1.366 . S
C563 C565 1.388 . S
C564 C563 1.366 . S
C564 C568 1.385 . S
C565 H540 0.951 . S
C565 C563 1.388 . S
C565 C566 1.366 . S
C566 C565 1.366 . S
C566 C567 1.414 . S
C566 C569 1.499 . S
C567 H541 0.950 . S
C567 C566 1.414 . S
C567 C568 1.374 . S
C568 H542 0.950 . S
C568 C564 1.385 . S
C568 C567 1.374 . S
C569 C566 1.499 . S
C569 C570 1.373 . S
C569 C571 1.389 . S
C570 H543 0.950 . S
C570 C556 1.377 . S
C570 C569 1.373 . S
C571 C555 1.377 . S
C571 C569 1.389 . S
C571 C572 1.524 . S
C572 C571 1.524 . S
C572 C573 1.397 . S
C572 C577 1.363 . S
C573 H544 0.950 . S
C573 C572 1.397 . S
C573 C574 1.334 . S
C574 H545 0.950 . S
C574 C573 1.334 . S
C574 C575 1.287 . S
C575 C574 1.287 . S
C575 C576 1.524 . S
C575 H578 0.999 . S
C576 H546 0.950 . S
C576 C575 1.524 . S
C576 C577 1.415 . S
C577 H547 0.950 . S
C577 C572 1.363 . S
C577 C576 1.415 . S
H578 C575 0.999 . S
H579 C560 0.913 . S
H580 C598 0.951 . S
H581 C600 0.951 . S
H582 C602 0.950 . S
H583 C603 0.950 . S
H584 C605 0.950 . S
H585 C608 0.950 . S
H586 C609 0.950 . S
H587 C611 0.950 . S
H588 C612 0.950 . S
H589 C613 0.951 . S
H590 C615 0.951 . S
H591 C617 0.950 . S
H592 C618 0.950 . S
H593 C620 0.950 . S
H594 C623 0.950 . S
H595 C624 0.950 . S
H596 C626 0.950 . S
H597 C627 0.950 . S
C598 H580 0.951 . S
C598 C599 1.366 . S
C598 C600 1.388 . S
C599 C598 1.366 . S
C599 C603 1.385 . S
C600 H581 0.951 . S
C600 C598 1.388 . S
C600 C601 1.366 . S
C601 C600 1.366 . S
C601 C602 1.414 . S
C601 C604 1.499 . S
C602 H582 0.950 . S
C602 C601 1.414 . S
C602 C603 1.374 . S
C603 H583 0.950 . S
C603 C599 1.385 . S
C603 C602 1.374 . S
C604 C601 1.499 . S
C604 C605 1.373 . S
C604 C606 1.389 . S
C605 H584 0.950 . S
C605 C604 1.373 . S
C605 C621 1.377 . S
C606 C604 1.389 . S
C606 C607 1.524 . S
C606 C620 1.377 . S
C607 C606 1.524 . S
C607 C608 1.397 . S
C607 C612 1.363 . S
C608 H585 0.950 . S
C608 C607 1.397 . S
C608 C609 1.334 . S
C609 H586 0.950 . S
C609 C608 1.334 . S
C609 C610 1.287 . S
C610 C609 1.287 . S
C610 C611 1.524 . S
C610 H629 0.913 . S
C611 H587 0.950 . S
C611 C610 1.524 . S
C611 C612 1.415 . S
C612 H588 0.950 . S
C612 C607 1.363 . S
C612 C611 1.415 . S
C613 H589 0.951 . S
C613 C614 1.366 . S
C613 C615 1.388 . S
C614 C613 1.366 . S
C614 C618 1.385 . S
C615 H590 0.951 . S
C615 C613 1.388 . S
C615 C616 1.366 . S
C616 C615 1.366 . S
C616 C617 1.414 . S
C616 C619 1.499 . S
C617 H591 0.950 . S
C617 C616 1.414 . S
C617 C618 1.374 . S
C618 H592 0.950 . S
C618 C614 1.385 . S
C618 C617 1.374 . S
C619 C616 1.499 . S
C619 C620 1.373 . S
C619 C621 1.389 . S
C620 H593 0.950 . S
C620 C606 1.377 . S
C620 C619 1.373 . S
C621 C605 1.377 . S
C621 C619 1.389 . S
C621 C622 1.524 . S
C622 C621 1.524 . S
C622 C623 1.397 . S
C622 C627 1.363 . S
C623 H594 0.950 . S
C623 C622 1.397 . S
C623 C624 1.334 . S
C624 H595 0.950 . S
C624 C623 1.334 . S
C624 C625 1.287 . S
C625 C624 1.287 . S
C625 C626 1.524 . S
C625 H628 0.999 . S
C626 H596 0.950 . S
C626 C625 1.524 . S
C626 C627 1.415 . S
C627 H597 0.950 . S
C627 C622 1.363 . S
C627 C626 1.415 . S
H628 C625 0.999 . S
H629 C610 0.913 . S
H630 C648 0.951 . S
H631 C650 0.951 . S
H632 C652 0.950 . S
H633 C653 0.950 . S
H634 C655 0.950 . S
H635 C658 0.950 . S
H636 C659 0.950 . S
H637 C661 0.950 . S
H638 C662 0.950 . S
H639 C663 0.951 . S
H640 C665 0.951 . S
H641 C667 0.950 . S
H642 C668 0.950 . S
H643 C670 0.950 . S
H644 C673 0.950 . S
H645 C674 0.950 . S
H646 C676 0.950 . S
H647 C677 0.950 . S
C648 H630 0.951 . S
C648 C649 1.366 . S
C648 C650 1.388 . S
C649 C648 1.366 . S
C649 C653 1.385 . S
C650 H631 0.951 . S
C650 C648 1.388 . S
C650 C651 1.366 . S
C651 C650 1.366 . S
C651 C652 1.414 . S
C651 C654 1.499 . S
C652 H632 0.950 . S
C652 C651 1.414 . S
C652 C653 1.374 . S
C653 H633 0.950 . S
C653 C649 1.385 . S
C653 C652 1.374 . S
C654 C651 1.499 . S
C654 C655 1.373 . S
C654 C656 1.389 . S
C655 H634 0.950 . S
C655 C654 1.373 . S
C655 C671 1.377 . S
C656 C654 1.389 . S
C656 C657 1.524 . S
C656 C670 1.377 . S
C657 C656 1.524 . S
C657 C658 1.397 . S
C657 C662 1.363 . S
C658 H635 0.950 . S
C658 C657 1.397 . S
C658 C659 1.334 . S
C659 H636 0.950 . S
C659 C658 1.334 . S
C659 C660 1.287 . S
C660 C659 1.287 . S
C660 C661 1.524 . S
C660 H679 0.913 . S
C661 H637 0.950 . S
C661 C660 1.524 . S
C661 C662 1.415 . S
C662 H638 0.950 . S
C662 C657 1.363 . S
C662 C661 1.415 . S
C663 H639 0.951 . S
C663 C664 1.366 . S
C663 C665 1.388 . S
C664 C663 1.366 . S
C664 C668 1.385 . S
C665 H640 0.951 . S
C665 C663 1.388 . S
C665 C666 1.366 . S
C666 C665 1.366 . S
C666 C667 1.414 . S
C666 C669 1.499 . S
C667 H641 0.950 . S
C667 C666 1.414 . S
C667 C668 1.374 . S
C668 H642 0.950 . S
C668 C664 1.385 . S
C668 C667 1.374 . S
C669 C666 1.499 . S
C669 C670 1.373 . S
C669 C671 1.389 . S
C670 H643 0.950 . S
C670 C656 1.377 . S
C670 C669 1.373 . S
C671 C655 1.377 . S
C671 C669 1.389 . S
C671 C672 1.524 . S
C672 C671 1.524 . S
C672 C673 1.397 . S
C672 C677 1.363 . S
C673 H644 0.950 . S
C673 C672 1.397 . S
C673 C674 1.334 . S
C674 H645 0.950 . S
C674 C673 1.334 . S
C674 C675 1.287 . S
C675 C674 1.287 . S
C675 C676 1.524 . S
C675 H678 0.999 . S
C676 H646 0.950 . S
C676 C675 1.524 . S
C676 C677 1.415 . S
C677 H647 0.950 . S
C677 C672 1.363 . S
C677 C676 1.415 . S
H678 C675 0.999 . S
H679 C660 0.913 . S
H680 C698 0.951 . S
H681 C700 0.951 . S
H682 C702 0.950 . S
H683 C703 0.950 . S
H684 C705 0.943 1_554 S
H685 C708 0.950 . S
H686 C709 0.950 . S
H687 C711 0.950 . S
H688 C712 0.950 . S
H689 C713 0.951 . S
H690 C715 0.951 . S
H691 C717 0.950 . S
H692 C718 0.950 . S
H693 C720 0.950 . S
H694 C723 0.950 . S
H695 C724 0.950 . S
H696 C726 0.950 . S
H697 C727 0.950 . S
C698 H680 0.951 . S
C698 C699 1.366 . S
C698 C700 1.388 . S
C699 C698 1.366 . S
C699 C703 1.385 . S
C700 H681 0.951 . S
C700 C698 1.388 . S
C700 C701 1.366 . S
C701 C700 1.366 . S
C701 C702 1.414 . S
C701 C704 1.499 . S
C702 H682 0.950 . S
C702 C701 1.414 . S
C702 C703 1.374 . S
C703 H683 0.950 . S
C703 C699 1.385 . S
C703 C702 1.374 . S
C704 C701 1.499 . S
C704 C705 1.383 . S
C704 C706 1.389 . S
C705 H684 0.943 1_556 S
C705 C704 1.383 . S
C705 C721 1.374 1_556 S
C706 C704 1.389 . S
C706 C707 1.524 . S
C706 C720 1.377 . S
C707 C706 1.524 . S
C707 C708 1.397 . S
C707 C712 1.363 . S
C708 H685 0.950 . S
C708 C707 1.397 . S
C708 C709 1.334 . S
C709 H686 0.950 . S
C709 C708 1.334 . S
C709 C710 1.287 . S
C710 C709 1.287 . S
C710 C711 1.524 . S
C710 H729 0.913 . S
C711 H687 0.950 . S
C711 C710 1.524 . S
C711 C712 1.415 . S
C712 H688 0.950 . S
C712 C707 1.363 . S
C712 C711 1.415 . S
C713 H689 0.951 . S
C713 C714 1.366 . S
C713 C715 1.388 . S
C714 C713 1.366 . S
C714 C718 1.385 1_554 S
C715 H690 0.951 . S
C715 C713 1.388 . S
C715 C716 1.366 1_554 S
C716 C715 1.366 1_556 S
C716 C717 1.414 . S
C716 C719 1.499 . S
C717 H691 0.950 . S
C717 C716 1.414 . S
C717 C718 1.374 . S
C718 H692 0.950 . S
C718 C714 1.385 1_556 S
C718 C717 1.374 . S
C719 C716 1.499 . S
C719 C720 1.373 . S
C719 C721 1.389 1_556 S
C720 H693 0.950 . S
C720 C706 1.377 . S
C720 C719 1.373 . S
C721 C705 1.374 1_554 S
C721 C719 1.389 1_554 S
C721 C722 1.524 . S
C722 C721 1.524 . S
C722 C723 1.397 . S
C722 C727 1.363 . S
C723 H694 0.950 . S
C723 C722 1.397 . S
C723 C724 1.334 . S
C724 H695 0.950 . S
C724 C723 1.334 . S
C724 C725 1.287 . S
C725 C724 1.287 . S
C725 C726 1.524 . S
C725 H728 0.999 . S
C726 H696 0.950 . S
C726 C725 1.524 . S
C726 C727 1.415 . S
C727 H697 0.950 . S
C727 C722 1.363 . S
C727 C726 1.415 . S
H728 C725 0.999 . S
H729 C710 0.913 . S
H730 C748 0.951 . S
H731 C750 0.951 . S
H732 C752 0.950 . S
H733 C753 0.950 . S
H734 C755 0.950 . S
H735 C758 0.950 . S
H736 C759 0.950 . S
H737 C761 0.950 . S
H738 C762 0.950 . S
H739 C763 0.951 . S
H740 C765 0.951 . S
H741 C767 0.950 . S
H742 C768 0.950 . S
H743 C770 0.950 . S
H744 C773 0.950 . S
H745 C774 0.950 . S
H746 C776 0.950 . S
H747 C777 0.950 . S
C748 H730 0.951 . S
C748 C749 1.366 . S
C748 C750 1.388 . S
C749 C748 1.366 . S
C749 C753 1.385 . S
C750 H731 0.951 . S
C750 C748 1.388 . S
C750 C751 1.366 . S
C751 C750 1.366 . S
C751 C752 1.414 . S
C751 C754 1.499 . S
C752 H732 0.950 . S
C752 C751 1.414 . S
C752 C753 1.374 . S
C753 H733 0.950 . S
C753 C749 1.385 . S
C753 C752 1.374 . S
C754 C751 1.499 . S
C754 C755 1.373 . S
C754 C756 1.389 . S
C755 H734 0.950 . S
C755 C754 1.373 . S
C755 C771 1.377 . S
C756 C754 1.389 . S
C756 C757 1.524 . S
C756 C770 1.377 . S
C757 C756 1.524 . S
C757 C758 1.397 . S
C757 C762 1.363 . S
C758 H735 0.950 . S
C758 C757 1.397 . S
C758 C759 1.334 . S
C759 H736 0.950 . S
C759 C758 1.334 . S
C759 C760 1.287 . S
C760 C759 1.287 . S
C760 C761 1.524 . S
C760 H779 0.913 . S
C761 H737 0.950 . S
C761 C760 1.524 . S
C761 C762 1.415 . S
C762 H738 0.950 . S
C762 C757 1.363 . S
C762 C761 1.415 . S
C763 H739 0.951 . S
C763 C764 1.366 . S
C763 C765 1.388 . S
C764 C763 1.366 . S
C764 C768 1.385 . S
C765 H740 0.951 . S
C765 C763 1.388 . S
C765 C766 1.366 . S
C766 C765 1.366 . S
C766 C767 1.414 . S
C766 C769 1.499 . S
C767 H741 0.950 . S
C767 C766 1.414 . S
C767 C768 1.374 . S
C768 H742 0.950 . S
C768 C764 1.385 . S
C768 C767 1.374 . S
C769 C766 1.499 . S
C769 C770 1.373 . S
C769 C771 1.389 . S
C770 H743 0.950 . S
C770 C756 1.377 . S
C770 C769 1.373 . S
C771 C755 1.377 . S
C771 C769 1.389 . S
C771 C772 1.524 . S
C772 C771 1.524 . S
C772 C773 1.397 . S
C772 C777 1.363 . S
C773 H744 0.950 . S
C773 C772 1.397 . S
C773 C774 1.334 . S
C774 H745 0.950 . S
C774 C773 1.334 . S
C774 C775 1.287 . S
C775 C774 1.287 . S
C775 C776 1.524 . S
C775 H778 0.999 . S
C776 H746 0.950 . S
C776 C775 1.524 . S
C776 C777 1.415 . S
C777 H747 0.950 . S
C777 C772 1.363 . S
C777 C776 1.415 . S
H778 C775 0.999 . S
H779 C760 0.913 . S
H780 C798 0.951 . S
H781 C800 0.951 . S
H782 C802 0.950 . S
H783 C803 0.950 . S
H784 C805 0.950 . S
H785 C808 0.950 . S
H786 C809 0.950 . S
H787 C811 0.950 . S
H788 C812 0.950 . S
H789 C813 0.951 . S
H790 C815 0.951 . S
H791 C817 0.950 . S
H792 C818 0.950 . S
H793 C820 0.950 . S
H794 C823 0.950 . S
H795 C824 0.950 . S
H796 C826 0.950 . S
H797 C827 0.950 . S
C798 H780 0.951 . S
C798 C799 1.366 . S
C798 C800 1.388 . S
C799 C798 1.366 . S
C799 C803 1.385 . S
C800 H781 0.951 . S
C800 C798 1.388 . S
C800 C801 1.366 . S
C801 C800 1.366 . S
C801 C802 1.414 . S
C801 C804 1.499 . S
C802 H782 0.950 . S
C802 C801 1.414 . S
C802 C803 1.374 . S
C803 H783 0.950 . S
C803 C799 1.385 . S
C803 C802 1.374 . S
C804 C801 1.499 . S
C804 C805 1.373 . S
C804 C806 1.389 . S
C805 H784 0.950 . S
C805 C804 1.373 . S
C805 C821 1.377 . S
C806 C804 1.389 . S
C806 C807 1.524 . S
C806 C820 1.377 . S
C807 C806 1.524 . S
C807 C808 1.397 . S
C807 C812 1.363 . S
C808 H785 0.950 . S
C808 C807 1.397 . S
C808 C809 1.334 . S
C809 H786 0.950 . S
C809 C808 1.334 . S
C809 C810 1.287 . S
C810 C809 1.287 . S
C810 C811 1.524 . S
C810 H829 0.913 . S
C811 H787 0.950 . S
C811 C810 1.524 . S
C811 C812 1.415 . S
C812 H788 0.950 . S
C812 C807 1.363 . S
C812 C811 1.415 . S
C813 H789 0.951 . S
C813 C814 1.366 . S
C813 C815 1.388 . S
C814 C813 1.366 . S
C814 C818 1.385 . S
C815 H790 0.951 . S
C815 C813 1.388 . S
C815 C816 1.366 . S
C816 C815 1.366 . S
C816 C817 1.414 . S
C816 C819 1.499 . S
C817 H791 0.950 . S
C817 C816 1.414 . S
C817 C818 1.374 . S
C818 H792 0.950 . S
C818 C814 1.385 . S
C818 C817 1.374 . S
C819 C816 1.499 . S
C819 C820 1.373 . S
C819 C821 1.389 . S
C820 H793 0.950 . S
C820 C806 1.377 . S
C820 C819 1.373 . S
C821 C805 1.377 . S
C821 C819 1.389 . S
C821 C822 1.524 . S
C822 C821 1.524 . S
C822 C823 1.397 . S
C822 C827 1.363 . S
C823 H794 0.950 . S
C823 C822 1.397 . S
C823 C824 1.334 . S
C824 H795 0.950 . S
C824 C823 1.334 . S
C824 C825 1.287 . S
C825 C824 1.287 . S
C825 C826 1.524 . S
C825 H828 0.999 . S
C826 H796 0.950 . S
C826 C825 1.524 . S
C826 C827 1.415 . S
C827 H797 0.950 . S
C827 C822 1.363 . S
C827 C826 1.415 . S
H828 C825 0.999 . S
H829 C810 0.913 . S
H830 C848 0.951 . S
H831 C850 0.951 . S
H832 C852 0.950 . S
H833 C853 0.950 . S
H834 C855 0.950 . S
H835 C858 0.950 . S
H836 C859 0.950 . S
H837 C861 0.950 . S
H838 C862 0.950 . S
H839 C863 0.951 . S
H840 C865 0.951 . S
H841 C867 0.950 . S
H842 C868 0.950 . S
H843 C870 0.950 . S
H844 C873 0.950 . S
H845 C874 0.950 . S
H846 C876 0.950 . S
H847 C877 0.950 . S
C848 H830 0.951 . S
C848 C849 1.366 . S
C848 C850 1.388 . S
C849 C848 1.366 . S
C849 C853 1.385 . S
C850 H831 0.951 . S
C850 C848 1.388 . S
C850 C851 1.366 . S
C851 C850 1.366 . S
C851 C852 1.414 . S
C851 C854 1.499 . S
C852 H832 0.950 . S
C852 C851 1.414 . S
C852 C853 1.374 . S
C853 H833 0.950 . S
C853 C849 1.385 . S
C853 C852 1.374 . S
C854 C851 1.499 . S
C854 C855 1.373 . S
C854 C856 1.389 . S
C855 H834 0.950 . S
C855 C854 1.373 . S
C855 C871 1.377 . S
C856 C854 1.389 . S
C856 C857 1.524 . S
C856 C870 1.377 . S
C857 C856 1.524 . S
C857 C858 1.397 . S
C857 C862 1.363 . S
C858 H835 0.950 . S
C858 C857 1.397 . S
C858 C859 1.334 . S
C859 H836 0.950 . S
C859 C858 1.334 . S
C859 C860 1.287 . S
C860 C859 1.287 . S
C860 C861 1.524 . S
C860 H879 0.913 . S
C861 H837 0.950 . S
C861 C860 1.524 . S
C861 C862 1.415 . S
C862 H838 0.950 . S
C862 C857 1.363 . S
C862 C861 1.415 . S
C863 H839 0.951 . S
C863 C864 1.366 . S
C863 C865 1.388 . S
C864 C863 1.366 . S
C864 C868 1.385 . S
C865 H840 0.951 . S
C865 C863 1.388 . S
C865 C866 1.366 . S
C866 C865 1.366 . S
C866 C867 1.414 . S
C866 C869 1.499 . S
C867 H841 0.950 . S
C867 C866 1.414 . S
C867 C868 1.374 . S
C868 H842 0.950 . S
C868 C864 1.385 . S
C868 C867 1.374 . S
C869 C866 1.499 . S
C869 C870 1.373 . S
C869 C871 1.389 . S
C870 H843 0.950 . S
C870 C856 1.377 . S
C870 C869 1.373 . S
C871 C855 1.377 . S
C871 C869 1.389 . S
C871 C872 1.524 . S
C872 C871 1.524 . S
C872 C873 1.397 . S
C872 C877 1.363 . S
C873 H844 0.950 . S
C873 C872 1.397 . S
C873 C874 1.334 . S
C874 H845 0.950 . S
C874 C873 1.334 . S
C874 C875 1.287 . S
C875 C874 1.287 . S
C875 C876 1.524 . S
C875 H878 0.999 . S
C876 H846 0.950 . S
C876 C875 1.524 . S
C876 C877 1.415 . S
C877 H847 0.950 . S
C877 C872 1.363 . S
C877 C876 1.415 . S
H878 C875 0.999 . S
H879 C860 0.913 . S
H880 C898 0.951 . S
H881 C900 0.951 . S
H882 C902 0.950 . S
H883 C903 0.950 . S
H884 C905 0.950 . S
H885 C908 0.950 . S
H886 C909 0.950 . S
H887 C911 0.950 . S
H888 C912 0.950 . S
H889 C913 0.951 . S
H890 C915 0.951 . S
H891 C917 0.950 . S
H892 C918 0.950 . S
H893 C920 0.950 . S
H894 C923 0.950 . S
H895 C924 0.950 . S
H896 C926 0.950 . S
H897 C927 0.950 . S
C898 H880 0.951 . S
C898 C899 1.366 . S
C898 C900 1.388 . S
C899 C898 1.366 . S
C899 C903 1.385 . S
C900 H881 0.951 . S
C900 C898 1.388 . S
C900 C901 1.366 . S
C901 C900 1.366 . S
C901 C902 1.414 . S
C901 C904 1.499 . S
C902 H882 0.950 . S
C902 C901 1.414 . S
C902 C903 1.374 . S
C903 H883 0.950 . S
C903 C899 1.385 . S
C903 C902 1.374 . S
C904 C901 1.499 . S
C904 C905 1.373 . S
C904 C906 1.389 . S
C905 H884 0.950 . S
C905 C904 1.373 . S
C905 C921 1.377 . S
C906 C904 1.389 . S
C906 C907 1.524 . S
C906 C920 1.377 . S
C907 C906 1.524 . S
C907 C908 1.397 . S
C907 C912 1.363 . S
C908 H885 0.950 . S
C908 C907 1.397 . S
C908 C909 1.334 . S
C909 H886 0.950 . S
C909 C908 1.334 . S
C909 C910 1.287 . S
C910 C909 1.287 . S
C910 C911 1.524 . S
C910 H929 0.913 . S
C911 H887 0.950 . S
C911 C910 1.524 . S
C911 C912 1.415 . S
C912 H888 0.950 . S
C912 C907 1.363 . S
C912 C911 1.415 . S
C913 H889 0.951 . S
C913 C914 1.366 . S
C913 C915 1.388 . S
C914 C913 1.366 . S
C914 C918 1.385 . S
C915 H890 0.951 . S
C915 C913 1.388 . S
C915 C916 1.366 . S
C916 C915 1.366 . S
C916 C917 1.414 . S
C916 C919 1.499 . S
C917 H891 0.950 . S
C917 C916 1.414 . S
C917 C918 1.374 . S
C918 H892 0.950 . S
C918 C914 1.385 . S
C918 C917 1.374 . S
C919 C916 1.499 . S
C919 C920 1.373 . S
C919 C921 1.389 . S
C920 H893 0.950 . S
C920 C906 1.377 . S
C920 C919 1.373 . S
C921 C905 1.377 . S
C921 C919 1.389 . S
C921 C922 1.524 . S
C922 C921 1.524 . S
C922 C923 1.397 . S
C922 C927 1.363 . S
C923 H894 0.950 . S
C923 C922 1.397 . S
C923 C924 1.334 . S
C924 H895 0.950 . S
C924 C923 1.334 . S
C924 C925 1.287 . S
C925 C924 1.287 . S
C925 C926 1.524 . S
C925 H928 0.999 . S
C926 H896 0.950 . S
C926 C925 1.524 . S
C926 C927 1.415 . S
C927 H897 0.950 . S
C927 C922 1.363 . S
C927 C926 1.415 . S
H928 C925 0.999 . S
H929 C910 0.913 . S
H930 C948 0.951 . S
H931 C950 0.951 . S
H932 C952 0.950 . S
H933 C953 0.950 . S
H934 C955 0.950 . S
H935 C958 0.950 . S
H936 C959 0.950 . S
H937 C961 0.950 . S
H938 C962 0.950 . S
H939 C963 0.951 . S
H940 C965 0.951 . S
H941 C967 0.950 . S
H942 C968 0.950 . S
H943 C970 0.950 . S
H944 C973 0.950 . S
H945 C974 0.950 . S
H946 C976 0.950 . S
H947 C977 0.950 . S
C948 H930 0.951 . S
C948 C949 1.366 . S
C948 C950 1.388 . S
C949 C948 1.366 . S
C949 C953 1.385 . S
C950 H931 0.951 . S
C950 C948 1.388 . S
C950 C951 1.366 . S
C951 C950 1.366 . S
C951 C952 1.414 . S
C951 C954 1.499 . S
C952 H932 0.950 . S
C952 C951 1.414 . S
C952 C953 1.374 . S
C953 H933 0.950 . S
C953 C949 1.385 . S
C953 C952 1.374 . S
C954 C951 1.499 . S
C954 C955 1.373 . S
C954 C956 1.389 . S
C955 H934 0.950 . S
C955 C954 1.373 . S
C955 C971 1.377 . S
C956 C954 1.389 . S
C956 C957 1.524 . S
C956 C970 1.377 . S
C957 C956 1.524 . S
C957 C958 1.397 . S
C957 C962 1.363 . S
C958 H935 0.950 . S
C958 C957 1.397 . S
C958 C959 1.334 . S
C959 H936 0.950 . S
C959 C958 1.334 . S
C959 C960 1.287 . S
C960 C959 1.287 . S
C960 C961 1.524 . S
C960 H979 0.913 . S
C961 H937 0.950 . S
C961 C960 1.524 . S
C961 C962 1.415 . S
C962 H938 0.950 . S
C962 C957 1.363 . S
C962 C961 1.415 . S
C963 H939 0.951 . S
C963 C964 1.366 . S
C963 C965 1.388 . S
C964 C963 1.366 . S
C964 C968 1.385 . S
C965 H940 0.951 . S
C965 C963 1.388 . S
C965 C966 1.366 . S
C966 C965 1.366 . S
C966 C967 1.414 . S
C966 C969 1.499 . S
C967 H941 0.950 . S
C967 C966 1.414 . S
C967 C968 1.374 . S
C968 H942 0.950 . S
C968 C964 1.385 . S
C968 C967 1.374 . S
C969 C966 1.499 . S
C969 C970 1.373 . S
C969 C971 1.389 . S
C970 H943 0.950 . S
C970 C956 1.377 . S
C970 C969 1.373 . S
C971 C955 1.377 . S
C971 C969 1.389 . S
C971 C972 1.524 1_554 S
C972 C971 1.524 1_556 S
C972 C973 1.397 . S
C972 C977 1.363 . S
C973 H944 0.950 . S
C973 C972 1.397 . S
C973 C974 1.334 . S
C974 H945 0.950 . S
C974 C973 1.334 . S
C974 C975 1.287 . S
C975 C974 1.287 . S
C975 C976 1.524 . S
C975 H978 0.999 . S
C976 H946 0.950 . S
C976 C975 1.524 . S
C976 C977 1.415 . S
C977 H947 0.950 . S
C977 C972 1.363 . S
C977 C976 1.415 . S
H978 C975 0.999 . S
H979 C960 0.913 . S
H980 C998 0.951 . S
H981 C1000 0.951 . S
H982 C1002 0.950 . S
H983 C1003 0.949 . S
H984 C1005 0.950 . S
H985 C1008 0.950 . S
H986 C1009 0.950 . S
H987 C1011 0.950 . S
H988 C1012 0.950 . S
H989 C1013 0.951 . S
H990 C1015 0.951 . S
H991 C1017 0.950 . S
H992 C1018 0.950 . S
H993 C1020 0.950 . S
H994 C1023 0.950 . S
H995 C1024 0.950 . S
H996 C1026 0.950 . S
H997 C1027 0.950 . S
C998 H980 0.951 . S
C998 C999 1.366 . S
C998 C1000 1.388 . S
C999 C998 1.366 . S
C999 C1003 1.385 . S
C1000 H981 0.951 . S
C1000 C998 1.388 . S
C1000 C1001 1.366 . S
C1001 C1000 1.366 . S
C1001 C1002 1.414 . S
C1001 C1004 1.499 . S
C1002 H982 0.950 . S
C1002 C1001 1.414 . S
C1002 C1003 1.374 . S
C1003 H983 0.949 . S
C1003 C999 1.385 . S
C1003 C1002 1.374 . S
C1004 C1001 1.499 . S
C1004 C1005 1.373 . S
C1004 C1006 1.389 . S
C1005 H984 0.950 . S
C1005 C1004 1.373 . S
C1005 C1021 1.377 . S
C1006 C1004 1.389 . S
C1006 C1007 1.524 . S
C1006 C1020 1.377 . S
C1007 C1006 1.524 . S
C1007 C1008 1.397 . S
C1007 C1012 1.363 . S
C1008 H985 0.950 . S
C1008 C1007 1.397 . S
C1008 C1009 1.334 . S
C1009 H986 0.950 . S
C1009 C1008 1.334 . S
C1009 C1010 1.287 . S
C1010 C1009 1.287 . S
C1010 C1011 1.524 . S
C1010 H1029 0.913 . S
C1011 H987 0.950 . S
C1011 C1010 1.524 . S
C1011 C1012 1.415 . S
C1012 H988 0.950 . S
C1012 C1007 1.363 . S
C1012 C1011 1.415 . S
C1013 H989 0.951 . S
C1013 C1014 1.366 . S
C1013 C1015 1.388 . S
C1014 C1013 1.366 . S
C1014 C1018 1.385 . S
C1015 H990 0.951 . S
C1015 C1013 1.388 . S
C1015 C1016 1.366 . S
C1016 C1015 1.366 . S
C1016 C1017 1.414 . S
C1016 C1019 1.499 . S
C1017 H991 0.950 . S
C1017 C1016 1.414 . S
C1017 C1018 1.374 . S
C1018 H992 0.950 . S
C1018 C1014 1.385 . S
C1018 C1017 1.374 . S
C1019 C1016 1.499 . S
C1019 C1020 1.373 . S
C1019 C1021 1.389 . S
C1020 H993 0.950 . S
C1020 C1006 1.377 . S
C1020 C1019 1.373 . S
C1021 C1005 1.377 . S
C1021 C1019 1.389 . S
C1021 C1022 1.524 . S
C1022 C1021 1.524 . S
C1022 C1023 1.397 . S
C1022 C1027 1.363 . S
C1023 H994 0.950 . S
C1023 C1022 1.397 . S
C1023 C1024 1.334 . S
C1024 H995 0.950 . S
C1024 C1023 1.334 . S
C1024 C1025 1.287 . S
C1025 C1024 1.287 . S
C1025 C1026 1.524 . S
C1025 H1028 0.999 . S
C1026 H996 0.950 . S
C1026 C1025 1.524 . S
C1026 C1027 1.415 . S
C1027 H997 0.950 . S
C1027 C1022 1.363 . S
C1027 C1026 1.415 . S
H1028 C1025 0.999 . S
H1029 C1010 0.913 . S
H1030 C1048 0.951 . S
H1031 C1050 0.951 . S
H1032 C1052 0.950 . S
H1033 C1053 0.950 . S
H1034 C1055 0.950 . S
H1035 C1058 0.950 . S
H1036 C1059 0.950 . S
H1037 C1061 0.950 . S
H1038 C1062 0.950 . S
H1039 C1063 0.951 . S
H1040 C1065 0.951 . S
H1041 C1067 0.950 . S
H1042 C1068 0.950 . S
H1043 C1070 0.950 . S
H1044 C1073 0.950 . S
H1045 C1074 0.950 . S
H1046 C1076 0.950 . S
H1047 C1077 0.950 . S
C1048 H1030 0.951 . S
C1048 C1049 1.366 . S
C1048 C1050 1.388 . S
C1049 C1048 1.366 . S
C1049 C1053 1.385 . S
C1050 H1031 0.951 . S
C1050 C1048 1.388 . S
C1050 C1051 1.366 . S
C1051 C1050 1.366 . S
C1051 C1052 1.414 . S
C1051 C1054 1.499 . S
C1052 H1032 0.950 . S
C1052 C1051 1.414 . S
C1052 C1053 1.374 . S
C1053 H1033 0.950 . S
C1053 C1049 1.385 . S
C1053 C1052 1.374 . S
C1054 C1051 1.499 . S
C1054 C1055 1.373 . S
C1054 C1056 1.389 . S
C1055 H1034 0.950 . S
C1055 C1054 1.373 . S
C1055 C1071 1.377 . S
C1056 C1054 1.389 . S
C1056 C1057 1.524 . S
C1056 C1070 1.377 . S
C1057 C1056 1.524 . S
C1057 C1058 1.397 . S
C1057 C1062 1.363 . S
C1058 H1035 0.950 . S
C1058 C1057 1.397 . S
C1058 C1059 1.334 . S
C1059 H1036 0.950 . S
C1059 C1058 1.334 . S
C1059 C1060 1.287 . S
C1060 C1059 1.287 . S
C1060 C1061 1.524 . S
C1060 H1079 0.913 . S
C1061 H1037 0.950 . S
C1061 C1060 1.524 . S
C1061 C1062 1.415 . S
C1062 H1038 0.950 . S
C1062 C1057 1.363 . S
C1062 C1061 1.415 . S
C1063 H1039 0.951 . S
C1063 C1064 1.366 . S
C1063 C1065 1.388 . S
C1064 C1063 1.366 . S
C1064 C1068 1.385 . S
C1065 H1040 0.951 . S
C1065 C1063 1.388 . S
C1065 C1066 1.366 . S
C1066 C1065 1.366 . S
C1066 C1067 1.414 . S
C1066 C1069 1.499 . S
C1067 H1041 0.950 . S
C1067 C1066 1.414 . S
C1067 C1068 1.374 . S
C1068 H1042 0.950 . S
C1068 C1064 1.385 . S
C1068 C1067 1.374 . S
C1069 C1066 1.499 . S
C1069 C1070 1.373 . S
C1069 C1071 1.389 . S
C1070 H1043 0.950 . S
C1070 C1056 1.377 . S
C1070 C1069 1.373 . S
C1071 C1055 1.377 . S
C1071 C1069 1.389 . S
C1071 C1072 1.524 . S
C1072 C1071 1.524 . S
C1072 C1073 1.397 . S
C1072 C1077 1.363 . S
C1073 H1044 0.950 . S
C1073 C1072 1.397 . S
C1073 C1074 1.334 . S
C1074 H1045 0.950 . S
C1074 C1073 1.334 . S
C1074 C1075 1.287 . S
C1075 C1074 1.287 . S
C1075 C1076 1.524 . S
C1075 H1078 0.999 . S
C1076 H1046 0.950 . S
C1076 C1075 1.524 . S
C1076 C1077 1.415 . S
C1077 H1047 0.950 . S
C1077 C1072 1.363 . S
C1077 C1076 1.415 . S
H1078 C1075 0.999 . S
H1079 C1060 0.913 . S
H1080 C1098 0.951 . S
H1081 C1100 0.951 . S
H1082 C1102 0.950 . S
H1083 C1103 0.950 . S
H1084 C1105 0.950 . S
H1085 C1108 0.950 . S
H1086 C1109 0.950 . S
H1087 C1111 0.950 . S
H1088 C1112 0.950 . S
H1089 C1113 0.951 . S
H1090 C1115 0.951 . S
H1091 C1117 0.950 . S
H1092 C1118 0.950 . S
H1093 C1120 0.950 . S
H1094 C1123 0.950 . S
H1095 C1124 0.950 . S
H1096 C1126 0.950 . S
H1097 C1127 0.950 . S
C1098 H1080 0.951 . S
C1098 C1099 1.366 . S
C1098 C1100 1.388 . S
C1099 C1098 1.366 . S
C1099 C1103 1.385 . S
C1100 H1081 0.951 . S
C1100 C1098 1.388 . S
C1100 C1101 1.366 . S
C1101 C1100 1.366 . S
C1101 C1102 1.414 . S
C1101 C1104 1.499 . S
C1102 H1082 0.950 . S
C1102 C1101 1.414 . S
C1102 C1103 1.374 . S
C1103 H1083 0.950 . S
C1103 C1099 1.385 . S
C1103 C1102 1.374 . S
C1104 C1101 1.499 . S
C1104 C1105 1.373 . S
C1104 C1106 1.389 . S
C1105 H1084 0.950 . S
C1105 C1104 1.373 . S
C1105 C1121 1.377 . S
C1106 C1104 1.389 . S
C1106 C1107 1.524 . S
C1106 C1120 1.377 . S
C1107 C1106 1.524 . S
C1107 C1108 1.397 . S
C1107 C1112 1.363 . S
C1108 H1085 0.950 . S
C1108 C1107 1.397 . S
C1108 C1109 1.334 . S
C1109 H1086 0.950 . S
C1109 C1108 1.334 . S
C1109 C1110 1.287 . S
C1110 C1109 1.287 . S
C1110 C1111 1.524 . S
C1110 H1129 0.913 . S
C1111 H1087 0.950 . S
C1111 C1110 1.524 . S
C1111 C1112 1.415 . S
C1112 H1088 0.950 . S
C1112 C1107 1.363 . S
C1112 C1111 1.415 . S
C1113 H1089 0.951 . S
C1113 C1114 1.366 . S
C1113 C1115 1.388 . S
C1114 C1113 1.366 . S
C1114 C1118 1.385 . S
C1115 H1090 0.951 . S
C1115 C1113 1.388 . S
C1115 C1116 1.366 . S
C1116 C1115 1.366 . S
C1116 C1117 1.414 . S
C1116 C1119 1.499 . S
C1117 H1091 0.950 . S
C1117 C1116 1.414 . S
C1117 C1118 1.374 . S
C1118 H1092 0.950 . S
C1118 C1114 1.385 . S
C1118 C1117 1.374 . S
C1119 C1116 1.499 . S
C1119 C1120 1.373 . S
C1119 C1121 1.389 . S
C1120 H1093 0.950 . S
C1120 C1106 1.377 . S
C1120 C1119 1.373 . S
C1121 C1105 1.377 . S
C1121 C1119 1.389 . S
C1121 C1122 1.524 . S
C1122 C1121 1.524 . S
C1122 C1123 1.397 . S
C1122 C1127 1.363 . S
C1123 H1094 0.950 . S
C1123 C1122 1.397 . S
C1123 C1124 1.334 . S
C1124 H1095 0.950 . S
C1124 C1123 1.334 . S
C1124 C1125 1.287 . S
C1125 C1124 1.287 . S
C1125 C1126 1.524 . S
C1125 H1128 0.999 . S
C1126 H1096 0.950 . S
C1126 C1125 1.524 . S
C1126 C1127 1.415 . S
C1127 H1097 0.950 . S
C1127 C1122 1.363 . S
C1127 C1126 1.415 . S
H1128 C1125 0.999 . S
H1129 C1110 0.913 . S
H1130 C1148 0.951 . S
H1131 C1150 0.951 . S
H1132 C1152 0.950 . S
H1133 C1153 0.950 1_455 S
H1134 C1155 0.950 . S
H1135 C1158 0.950 . S
H1136 C1159 0.950 . S
H1137 C1161 0.950 . S
H1138 C1162 0.950 . S
H1139 C1163 0.951 . S
H1140 C1165 0.951 . S
H1141 C1167 0.950 . S
H1142 C1168 0.950 . S
H1143 C1170 0.950 . S
H1144 C1173 0.950 . S
H1145 C1174 0.950 . S
H1146 C1176 0.950 . S
H1147 C1177 0.950 . S
C1148 H1130 0.951 . S
C1148 C1149 1.366 . S
C1148 C1150 1.388 . S
C1149 C1148 1.366 . S
C1149 C1153 1.385 . S
C1150 H1131 0.951 . S
C1150 C1148 1.388 . S
C1150 C1151 1.366 . S
C1151 C1150 1.366 . S
C1151 C1152 1.414 . S
C1151 C1154 1.499 . S
C1152 H1132 0.950 . S
C1152 C1151 1.414 . S
C1152 C1153 1.374 . S
C1153 H1133 0.950 1_655 S
C1153 C1149 1.385 . S
C1153 C1152 1.374 . S
C1154 C1151 1.499 . S
C1154 C1155 1.373 . S
C1154 C1156 1.389 . S
C1155 H1134 0.950 . S
C1155 C1154 1.373 . S
C1155 C1171 1.377 . S
C1156 C1154 1.389 . S
C1156 C1157 1.524 . S
C1156 C1170 1.377 . S
C1157 C1156 1.524 . S
C1157 C1158 1.397 . S
C1157 C1162 1.363 . S
C1158 H1135 0.950 . S
C1158 C1157 1.397 . S
C1158 C1159 1.334 . S
C1159 H1136 0.950 . S
C1159 C1158 1.334 . S
C1159 C1160 1.287 . S
C1160 C1159 1.287 . S
C1160 C1161 1.524 . S
C1160 H1179 0.913 . S
C1161 H1137 0.950 . S
C1161 C1160 1.524 . S
C1161 C1162 1.415 . S
C1162 H1138 0.950 . S
C1162 C1157 1.363 . S
C1162 C1161 1.415 . S
C1163 H1139 0.951 . S
C1163 C1164 1.366 . S
C1163 C1165 1.388 . S
C1164 C1163 1.366 . S
C1164 C1168 1.385 . S
C1165 H1140 0.951 . S
C1165 C1163 1.388 . S
C1165 C1166 1.366 . S
C1166 C1165 1.366 . S
C1166 C1167 1.414 . S
C1166 C1169 1.499 . S
C1167 H1141 0.950 . S
C1167 C1166 1.414 . S
C1167 C1168 1.374 . S
C1168 H1142 0.950 . S
C1168 C1164 1.385 . S
C1168 C1167 1.374 . S
C1169 C1166 1.499 . S
C1169 C1170 1.373 . S
C1169 C1171 1.389 . S
C1170 H1143 0.950 . S
C1170 C1156 1.377 . S
C1170 C1169 1.373 . S
C1171 C1155 1.377 . S
C1171 C1169 1.389 . S
C1171 C1172 1.524 . S
C1172 C1171 1.524 . S
C1172 C1173 1.397 . S
C1172 C1177 1.363 . S
C1173 H1144 0.950 . S
C1173 C1172 1.397 . S
C1173 C1174 1.334 . S
C1174 H1145 0.950 . S
C1174 C1173 1.334 . S
C1174 C1175 1.287 . S
C1175 C1174 1.287 . S
C1175 C1176 1.524 . S
C1175 H1178 0.999 . S
C1176 H1146 0.950 . S
C1176 C1175 1.524 . S
C1176 C1177 1.415 . S
C1177 H1147 0.950 . S
C1177 C1172 1.363 . S
C1177 C1176 1.415 . S
H1178 C1175 0.999 . S
H1179 C1160 0.913 . S
H1180 C1198 0.951 . S
H1181 C1200 0.951 . S
H1182 C1202 0.950 . S
H1183 C1203 0.950 . S
H1184 C1205 0.950 . S
H1185 C1208 0.950 . S
H1186 C1209 0.950 . S
H1187 C1211 0.950 . S
H1188 C1212 0.950 1_556 S
H1189 C1213 0.951 . S
H1190 C1215 0.951 . S
H1191 C1217 0.950 . S
H1192 C1218 0.950 . S
H1193 C1220 1.013 . S
H1194 C1223 0.950 . S
H1195 C1224 0.950 . S
H1196 C1226 0.950 . S
H1197 C1227 0.950 . S
C1198 H1180 0.951 . S
C1198 C1199 1.366 . S
C1198 C1200 1.388 . S
C1199 C1198 1.366 . S
C1199 C1203 1.385 . S
C1200 H1181 0.951 . S
C1200 C1198 1.388 . S
C1200 C1201 1.366 . S
C1201 C1200 1.366 . S
C1201 C1202 1.414 . S
C1201 C1204 1.499 . S
C1202 H1182 0.950 . S
C1202 C1201 1.414 . S
C1202 C1203 1.374 . S
C1203 H1183 0.950 . S
C1203 C1199 1.385 . S
C1203 C1202 1.374 . S
C1204 C1201 1.499 . S
C1204 C1205 1.373 . S
C1204 C1206 1.389 . S
C1205 H1184 0.950 . S
C1205 C1204 1.373 . S
C1205 C1221 1.377 . S
C1206 C1204 1.389 . S
C1206 C1207 1.527 . S
C1206 C1220 1.377 . S
C1207 C1206 1.527 . S
C1207 C1208 1.395 1_556 S
C1207 C1212 1.362 1_556 S
C1208 H1185 0.950 . S
C1208 C1207 1.395 1_554 S
C1208 C1209 1.334 . S
C1209 H1186 0.950 . S
C1209 C1208 1.334 . S
C1209 C1210 1.287 . S
C1210 C1209 1.287 . S
C1210 C1211 1.524 . S
C1210 H1229 0.913 . S
C1211 H1187 0.950 . S
C1211 C1210 1.524 . S
C1211 C1212 1.415 . S
C1212 H1188 0.950 1_554 S
C1212 C1207 1.362 1_554 S
C1212 C1211 1.415 . S
C1213 H1189 0.951 . S
C1213 C1214 1.366 . S
C1213 C1215 1.388 . S
C1214 C1213 1.366 . S
C1214 C1218 1.385 . S
C1215 H1190 0.951 . S
C1215 C1213 1.388 . S
C1215 C1216 1.366 . S
C1216 C1215 1.366 . S
C1216 C1217 1.414 . S
C1216 C1219 1.499 . S
C1217 H1191 0.950 . S
C1217 C1216 1.414 . S
C1217 C1218 1.374 . S
C1218 H1192 0.950 . S
C1218 C1214 1.385 . S
C1218 C1217 1.374 . S
C1219 C1216 1.499 . S
C1219 C1220 1.373 . S
C1219 C1221 1.389 . S
C1220 H1193 1.013 . S
C1220 C1206 1.377 . S
C1220 C1219 1.373 . S
C1221 C1205 1.377 . S
C1221 C1219 1.389 . S
C1221 C1222 1.524 . S
C1222 C1221 1.524 . S
C1222 C1223 1.397 . S
C1222 C1227 1.363 . S
C1223 H1194 0.950 . S
C1223 C1222 1.397 . S
C1223 C1224 1.334 . S
C1224 H1195 0.950 . S
C1224 C1223 1.334 . S
C1224 C1225 1.287 . S
C1225 C1224 1.287 . S
C1225 C1226 1.524 . S
C1225 H1228 0.999 . S
C1226 H1196 0.950 . S
C1226 C1225 1.524 . S
C1226 C1227 1.415 . S
C1227 H1197 0.950 . S
C1227 C1222 1.363 . S
C1227 C1226 1.415 . S
H1228 C1225 0.999 . S
H1229 C1210 0.913 . S
H1230 C1248 0.951 . S
H1231 C1250 0.951 . S
H1232 C1252 0.950 . S
H1233 C1253 0.950 . S
H1234 C1255 0.950 . S
H1235 C1258 0.950 . S
H1236 C1259 0.950 . S
H1237 C1261 0.950 . S
H1238 C1262 0.950 . S
H1239 C1263 0.951 . S
H1240 C1265 0.951 . S
H1241 C1267 0.950 . S
H1242 C1268 0.950 . S
H1243 C1270 0.950 . S
H1244 C1273 0.950 . S
H1245 C1274 0.950 . S
H1246 C1276 0.950 . S
H1247 C1277 0.950 . S
C1248 H1230 0.951 . S
C1248 C1249 1.366 . S
C1248 C1250 1.388 . S
C1249 C1248 1.366 . S
C1249 C1253 1.385 . S
C1250 H1231 0.951 . S
C1250 C1248 1.388 . S
C1250 C1251 1.366 . S
C1251 C1250 1.366 . S
C1251 C1252 1.414 . S
C1251 C1254 1.499 . S
C1252 H1232 0.950 . S
C1252 C1251 1.414 . S
C1252 C1253 1.374 . S
C1253 H1233 0.950 . S
C1253 C1249 1.385 . S
C1253 C1252 1.374 . S
C1254 C1251 1.499 . S
C1254 C1255 1.373 . S
C1254 C1256 1.389 . S
C1255 H1234 0.950 . S
C1255 C1254 1.373 . S
C1255 C1271 1.377 . S
C1256 C1254 1.389 . S
C1256 C1257 1.524 . S
C1256 C1270 1.377 . S
C1257 C1256 1.524 . S
C1257 C1258 1.397 . S
C1257 C1262 1.363 . S
C1258 H1235 0.950 . S
C1258 C1257 1.397 . S
C1258 C1259 1.334 . S
C1259 H1236 0.950 . S
C1259 C1258 1.334 . S
C1259 C1260 1.287 . S
C1260 C1259 1.287 . S
C1260 C1261 1.524 . S
C1260 H1279 0.913 . S
C1261 H1237 0.950 . S
C1261 C1260 1.524 . S
C1261 C1262 1.415 . S
C1262 H1238 0.950 . S
C1262 C1257 1.363 . S
C1262 C1261 1.415 . S
C1263 H1239 0.951 . S
C1263 C1264 1.366 . S
C1263 C1265 1.388 . S
C1264 C1263 1.366 . S
C1264 C1268 1.385 . S
C1265 H1240 0.951 . S
C1265 C1263 1.388 . S
C1265 C1266 1.366 . S
C1266 C1265 1.366 . S
C1266 C1267 1.414 . S
C1266 C1269 1.499 . S
C1267 H1241 0.950 . S
C1267 C1266 1.414 . S
C1267 C1268 1.374 . S
C1268 H1242 0.950 . S
C1268 C1264 1.385 . S
C1268 C1267 1.374 . S
C1269 C1266 1.499 . S
C1269 C1270 1.373 . S
C1269 C1271 1.389 . S
C1270 H1243 0.950 . S
C1270 C1256 1.377 . S
C1270 C1269 1.373 . S
C1271 C1255 1.377 . S
C1271 C1269 1.389 . S
C1271 C1272 1.524 . S
C1272 C1271 1.524 . S
C1272 C1273 1.397 . S
C1272 C1277 1.363 . S
C1273 H1244 0.950 . S
C1273 C1272 1.397 . S
C1273 C1274 1.334 . S
C1274 H1245 0.950 . S
C1274 C1273 1.334 . S
C1274 C1275 1.287 . S
C1275 C1274 1.287 . S
C1275 C1276 1.524 . S
C1275 H1278 0.999 . S
C1276 H1246 0.950 . S
C1276 C1275 1.524 . S
C1276 C1277 1.415 . S
C1277 H1247 0.950 . S
C1277 C1272 1.363 . S
C1277 C1276 1.415 . S
H1278 C1275 0.999 . S
H1279 C1260 0.913 . S
H1280 C1298 0.951 . S
H1281 C1300 0.951 . S
H1282 C1302 0.950 . S
H1283 C1303 0.950 . S
H1284 C1305 0.950 . S
H1285 C1308 0.950 . S
H1286 C1309 0.950 . S
H1287 C1311 0.950 . S
H1288 C1312 0.950 . S
H1289 C1313 0.951 . S
H1290 C1315 0.951 . S
H1291 C1317 0.950 . S
H1292 C1318 0.950 . S
H1293 C1320 0.950 . S
H1294 C1323 0.950 . S
H1295 C1324 0.950 . S
H1296 C1326 0.950 . S
H1297 C1327 0.950 . S
C1298 H1280 0.951 . S
C1298 C1299 1.366 . S
C1298 C1300 1.388 . S
C1299 C1298 1.366 . S
C1299 C1303 1.385 . S
C1300 H1281 0.951 . S
C1300 C1298 1.388 . S
C1300 C1301 1.366 . S
C1301 C1300 1.366 . S
C1301 C1302 1.414 . S
C1301 C1304 1.499 . S
C1302 H1282 0.950 . S
C1302 C1301 1.414 . S
C1302 C1303 1.374 . S
C1303 H1283 0.950 . S
C1303 C1299 1.385 . S
C1303 C1302 1.374 . S
C1304 C1301 1.499 . S
C1304 C1305 1.373 . S
C1304 C1306 1.389 . S
C1305 H1284 0.950 . S
C1305 C1304 1.373 . S
C1305 C1321 1.377 . S
C1306 C1304 1.389 . S
C1306 C1307 1.524 . S
C1306 C1320 1.377 . S
C1307 C1306 1.524 . S
C1307 C1308 1.397 . S
C1307 C1312 1.363 . S
C1308 H1285 0.950 . S
C1308 C1307 1.397 . S
C1308 C1309 1.334 . S
C1309 H1286 0.950 . S
C1309 C1308 1.334 . S
C1309 C1310 1.287 . S
C1310 C1309 1.287 . S
C1310 C1311 1.524 . S
C1310 H1329 0.913 . S
C1311 H1287 0.950 . S
C1311 C1310 1.524 . S
C1311 C1312 1.415 . S
C1312 H1288 0.950 . S
C1312 C1307 1.363 . S
C1312 C1311 1.415 . S
C1313 H1289 0.951 . S
C1313 C1314 1.366 . S
C1313 C1315 1.388 . S
C1314 C1313 1.366 . S
C1314 C1318 1.385 . S
C1315 H1290 0.951 . S
C1315 C1313 1.388 . S
C1315 C1316 1.366 . S
C1316 C1315 1.366 . S
C1316 C1317 1.414 . S
C1316 C1319 1.499 . S
C1317 H1291 0.950 . S
C1317 C1316 1.414 . S
C1317 C1318 1.374 . S
C1318 H1292 0.950 . S
C1318 C1314 1.385 . S
C1318 C1317 1.374 . S
C1319 C1316 1.499 . S
C1319 C1320 1.373 . S
C1319 C1321 1.389 . S
C1320 H1293 0.950 . S
C1320 C1306 1.377 . S
C1320 C1319 1.373 . S
C1321 C1305 1.377 . S
C1321 C1319 1.389 . S
C1321 C1322 1.524 . S
C1322 C1321 1.524 . S
C1322 C1323 1.397 . S
C1322 C1327 1.363 . S
C1323 H1294 0.950 . S
C1323 C1322 1.397 . S
C1323 C1324 1.334 . S
C1324 H1295 0.950 . S
C1324 C1323 1.334 . S
C1324 C1325 1.287 . S
C1325 C1324 1.287 . S
C1325 C1326 1.524 . S
C1325 H1328 0.999 . S
C1326 H1296 0.950 . S
C1326 C1325 1.524 . S
C1326 C1327 1.415 . S
C1327 H1297 0.950 . S
C1327 C1322 1.363 . S
C1327 C1326 1.415 . S
H1328 C1325 0.999 . S
H1329 C1310 0.913 . S
H1330 C1348 0.951 . S
H1331 C1350 0.951 . S
H1332 C1352 0.950 . S
H1333 C1353 0.950 . S
H1334 C1355 0.950 . S
H1335 C1358 0.950 . S
H1336 C1359 0.950 . S
H1337 C1361 0.950 . S
H1338 C1362 0.950 . S
H1339 C1363 0.951 . S
H1340 C1365 0.951 . S
H1341 C1367 0.950 . S
H1342 C1368 0.950 . S
H1343 C1370 0.950 . S
H1344 C1373 0.950 . S
H1345 C1374 0.950 . S
H1346 C1376 0.950 . S
H1347 C1377 0.950 . S
C1348 H1330 0.951 . S
C1348 C1349 1.366 . S
C1348 C1350 1.388 . S
C1349 C1348 1.366 . S
C1349 C1353 1.385 . S
C1350 H1331 0.951 . S
C1350 C1348 1.388 . S
C1350 C1351 1.366 . S
C1351 C1350 1.366 . S
C1351 C1352 1.414 . S
C1351 C1354 1.499 . S
C1352 H1332 0.950 . S
C1352 C1351 1.414 . S
C1352 C1353 1.374 . S
C1353 H1333 0.950 . S
C1353 C1349 1.385 . S
C1353 C1352 1.374 . S
C1354 C1351 1.499 . S
C1354 C1355 1.373 . S
C1354 C1356 1.389 . S
C1355 H1334 0.950 . S
C1355 C1354 1.373 . S
C1355 C1371 1.377 . S
C1356 C1354 1.389 . S
C1356 C1357 1.524 . S
C1356 C1370 1.377 . S
C1357 C1356 1.524 . S
C1357 C1358 1.397 . S
C1357 C1362 1.363 . S
C1358 H1335 0.950 . S
C1358 C1357 1.397 . S
C1358 C1359 1.334 . S
C1359 H1336 0.950 . S
C1359 C1358 1.334 . S
C1359 C1360 1.287 . S
C1360 C1359 1.287 . S
C1360 C1361 1.524 . S
C1360 H1379 0.913 . S
C1361 H1337 0.950 . S
C1361 C1360 1.524 . S
C1361 C1362 1.415 . S
C1362 H1338 0.950 . S
C1362 C1357 1.363 . S
C1362 C1361 1.415 . S
C1363 H1339 0.951 . S
C1363 C1364 1.366 . S
C1363 C1365 1.388 . S
C1364 C1363 1.366 . S
C1364 C1368 1.385 . S
C1365 H1340 0.951 . S
C1365 C1363 1.388 . S
C1365 C1366 1.366 . S
C1366 C1365 1.366 . S
C1366 C1367 1.414 . S
C1366 C1369 1.499 . S
C1367 H1341 0.950 . S
C1367 C1366 1.414 . S
C1367 C1368 1.374 . S
C1368 H1342 0.950 . S
C1368 C1364 1.385 . S
C1368 C1367 1.374 . S
C1369 C1366 1.499 . S
C1369 C1370 1.373 . S
C1369 C1371 1.389 . S
C1370 H1343 0.950 . S
C1370 C1356 1.377 . S
C1370 C1369 1.373 . S
C1371 C1355 1.377 . S
C1371 C1369 1.389 . S
C1371 C1372 1.524 . S
C1372 C1371 1.524 . S
C1372 C1373 1.397 . S
C1372 C1377 1.363 . S
C1373 H1344 0.950 . S
C1373 C1372 1.397 . S
C1373 C1374 1.334 . S
C1374 H1345 0.950 . S
C1374 C1373 1.334 . S
C1374 C1375 1.287 . S
C1375 C1374 1.287 . S
C1375 C1376 1.524 . S
C1375 H1378 0.999 . S
C1376 H1346 0.950 . S
C1376 C1375 1.524 . S
C1376 C1377 1.415 . S
C1377 H1347 0.950 . S
C1377 C1372 1.363 . S
C1377 C1376 1.415 . S
H1378 C1375 0.999 . S
H1379 C1360 0.913 . S
H1380 C1398 0.951 . S
H1381 C1400 0.951 . S
H1382 C1402 0.950 . S
H1383 C1403 0.950 . S
H1384 C1405 0.950 . S
H1385 C1408 0.950 . S
H1386 C1409 0.950 . S
H1387 C1411 0.950 . S
H1388 C1412 0.950 . S
H1389 C1413 0.951 . S
H1390 C1415 0.951 . S
H1391 C1417 0.950 . S
H1392 C1418 0.950 . S
H1393 C1420 0.950 . S
H1394 C1423 0.950 . S
H1395 C1424 0.950 . S
H1396 C1426 0.950 . S
H1397 C1427 0.950 . S
C1398 H1380 0.951 . S
C1398 C1399 1.366 . S
C1398 C1400 1.388 . S
C1399 C1398 1.366 . S
C1399 C1403 1.385 . S
C1400 H1381 0.951 . S
C1400 C1398 1.388 . S
C1400 C1401 1.366 . S
C1401 C1400 1.366 . S
C1401 C1402 1.414 . S
C1401 C1404 1.499 . S
C1402 H1382 0.950 . S
C1402 C1401 1.414 . S
C1402 C1403 1.374 . S
C1403 H1383 0.950 . S
C1403 C1399 1.385 . S
C1403 C1402 1.374 . S
C1404 C1401 1.499 . S
C1404 C1405 1.373 . S
C1404 C1406 1.389 . S
C1405 H1384 0.950 . S
C1405 C1404 1.373 . S
C1405 C1421 1.377 . S
C1406 C1404 1.389 . S
C1406 C1407 1.524 . S
C1406 C1420 1.377 . S
C1407 C1406 1.524 . S
C1407 C1408 1.397 . S
C1407 C1412 1.363 . S
C1408 H1385 0.950 . S
C1408 C1407 1.397 . S
C1408 C1409 1.334 . S
C1409 H1386 0.950 . S
C1409 C1408 1.334 . S
C1409 C1410 1.287 . S
C1410 C1409 1.287 . S
C1410 C1411 1.524 . S
C1410 H1429 0.913 . S
C1411 H1387 0.950 . S
C1411 C1410 1.524 . S
C1411 C1412 1.415 . S
C1412 H1388 0.950 . S
C1412 C1407 1.363 . S
C1412 C1411 1.415 . S
C1413 H1389 0.951 . S
C1413 C1414 1.366 . S
C1413 C1415 1.388 . S
C1414 C1413 1.366 . S
C1414 C1418 1.385 . S
C1415 H1390 0.951 . S
C1415 C1413 1.388 . S
C1415 C1416 1.366 . S
C1416 C1415 1.366 . S
C1416 C1417 1.414 . S
C1416 C1419 1.499 . S
C1417 H1391 0.950 . S
C1417 C1416 1.414 . S
C1417 C1418 1.374 . S
C1418 H1392 0.950 . S
C1418 C1414 1.385 . S
C1418 C1417 1.374 . S
C1419 C1416 1.499 . S
C1419 C1420 1.373 . S
C1419 C1421 1.389 . S
C1420 H1393 0.950 . S
C1420 C1406 1.377 . S
C1420 C1419 1.373 . S
C1421 C1405 1.377 . S
C1421 C1419 1.389 . S
C1421 C1422 1.524 . S
C1422 C1421 1.524 . S
C1422 C1423 1.397 . S
C1422 C1427 1.363 . S
C1423 H1394 0.950 . S
C1423 C1422 1.397 . S
C1423 C1424 1.334 . S
C1424 H1395 0.950 . S
C1424 C1423 1.334 . S
C1424 C1425 1.287 . S
C1425 C1424 1.287 . S
C1425 C1426 1.524 . S
C1425 H1428 0.999 . S
C1426 H1396 0.950 . S
C1426 C1425 1.524 . S
C1426 C1427 1.415 . S
C1427 H1397 0.950 . S
C1427 C1422 1.363 . S
C1427 C1426 1.415 . S
H1428 C1425 0.999 . S
H1429 C1410 0.913 . S
H1430 C1448 0.951 . S
H1431 C1450 0.951 . S
H1432 C1452 0.950 . S
H1433 C1453 0.950 . S
H1434 C1455 0.950 . S
H1435 C1458 0.950 . S
H1436 C1459 0.950 . S
H1437 C1461 0.950 . S
H1438 C1462 0.950 . S
H1439 C1463 0.951 . S
H1440 C1465 0.951 . S
H1441 C1467 0.950 . S
H1442 C1468 0.950 . S
H1443 C1470 0.950 . S
H1444 C1473 0.950 . S
H1445 C1474 0.950 . S
H1446 C1476 0.950 . S
H1447 C1477 0.950 . S
C1448 H1430 0.951 . S
C1448 C1449 1.366 . S
C1448 C1450 1.388 . S
C1449 C1448 1.366 . S
C1449 C1453 1.385 . S
C1450 H1431 0.951 . S
C1450 C1448 1.388 . S
C1450 C1451 1.366 . S
C1451 C1450 1.366 . S
C1451 C1452 1.414 . S
C1451 C1454 1.499 . S
C1452 H1432 0.950 . S
C1452 C1451 1.414 . S
C1452 C1453 1.374 . S
C1453 H1433 0.950 . S
C1453 C1449 1.385 . S
C1453 C1452 1.374 . S
C1454 C1451 1.499 . S
C1454 C1455 1.373 . S
C1454 C1456 1.389 . S
C1455 H1434 0.950 . S
C1455 C1454 1.373 . S
C1455 C1471 1.377 . S
C1456 C1454 1.389 . S
C1456 C1457 1.524 . S
C1456 C1470 1.377 . S
C1457 C1456 1.524 . S
C1457 C1458 1.397 . S
C1457 C1462 1.363 . S
C1458 H1435 0.950 . S
C1458 C1457 1.397 . S
C1458 C1459 1.334 . S
C1459 H1436 0.950 . S
C1459 C1458 1.334 . S
C1459 C1460 1.287 . S
C1460 C1459 1.287 . S
C1460 C1461 1.524 . S
C1460 H1479 0.913 . S
C1461 H1437 0.950 . S
C1461 C1460 1.524 . S
C1461 C1462 1.415 . S
C1462 H1438 0.950 . S
C1462 C1457 1.363 . S
C1462 C1461 1.415 . S
C1463 H1439 0.951 . S
C1463 C1464 1.366 . S
C1463 C1465 1.388 . S
C1464 C1463 1.366 . S
C1464 C1468 1.385 . S
C1465 H1440 0.951 . S
C1465 C1463 1.388 . S
C1465 C1466 1.366 . S
C1466 C1465 1.366 . S
C1466 C1467 1.414 . S
C1466 C1469 1.499 . S
C1467 H1441 0.950 . S
C1467 C1466 1.414 . S
C1467 C1468 1.374 . S
C1468 H1442 0.950 . S
C1468 C1464 1.385 . S
C1468 C1467 1.374 . S
C1469 C1466 1.499 . S
C1469 C1470 1.373 . S
C1469 C1471 1.389 . S
C1470 H1443 0.950 . S
C1470 C1456 1.377 . S
C1470 C1469 1.373 . S
C1471 C1455 1.377 . S
C1471 C1469 1.389 . S
C1471 C1472 1.524 . S
C1472 C1471 1.524 . S
C1472 C1473 1.397 . S
C1472 C1477 1.363 . S
C1473 H1444 0.950 . S
C1473 C1472 1.397 . S
C1473 C1474 1.334 . S
C1474 H1445 0.950 . S
C1474 C1473 1.334 . S
C1474 C1475 1.287 . S
C1475 C1474 1.287 . S
C1475 C1476 1.524 . S
C1475 H1478 0.999 . S
C1476 H1446 0.950 . S
C1476 C1475 1.524 . S
C1476 C1477 1.415 . S
C1477 H1447 0.950 . S
C1477 C1472 1.363 . S
C1477 C1476 1.415 . S
H1478 C1475 0.999 . S
H1479 C1460 0.913 . S
H1480 C1498 0.951 . S
H1481 C1500 0.951 . S
H1482 C1502 0.950 . S
H1483 C1503 0.950 . S
H1484 C1505 0.950 . S
H1485 C1508 0.950 . S
H1486 C1509 0.950 . S
H1487 C1511 0.950 . S
H1488 C1512 0.950 . S
H1489 C1513 0.951 . S
H1490 C1515 0.951 . S
H1491 C1517 0.950 . S
H1492 C1518 0.950 . S
H1493 C1520 0.950 . S
H1494 C1523 0.950 . S
H1495 C1524 0.950 . S
H1496 C1526 0.950 . S
H1497 C1527 0.950 . S
C1498 H1480 0.951 . S
C1498 C1499 1.366 . S
C1498 C1500 1.388 . S
C1499 C1498 1.366 . S
C1499 C1503 1.385 . S
C1500 H1481 0.951 . S
C1500 C1498 1.388 . S
C1500 C1501 1.366 . S
C1501 C1500 1.366 . S
C1501 C1502 1.414 . S
C1501 C1504 1.499 . S
C1502 H1482 0.950 . S
C1502 C1501 1.414 . S
C1502 C1503 1.374 . S
C1503 H1483 0.950 . S
C1503 C1499 1.385 . S
C1503 C1502 1.374 . S
C1504 C1501 1.499 . S
C1504 C1505 1.373 . S
C1504 C1506 1.389 . S
C1505 H1484 0.950 . S
C1505 C1504 1.373 . S
C1505 C1521 1.377 . S
C1506 C1504 1.389 . S
C1506 C1507 1.524 . S
C1506 C1520 1.377 . S
C1507 C1506 1.524 . S
C1507 C1508 1.397 . S
C1507 C1512 1.363 . S
C1508 H1485 0.950 . S
C1508 C1507 1.397 . S
C1508 C1509 1.334 . S
C1509 H1486 0.950 . S
C1509 C1508 1.334 . S
C1509 C1510 1.287 . S
C1510 C1509 1.287 . S
C1510 C1511 1.524 . S
C1510 H1529 0.913 . S
C1511 H1487 0.950 . S
C1511 C1510 1.524 . S
C1511 C1512 1.415 . S
C1512 H1488 0.950 . S
C1512 C1507 1.363 . S
C1512 C1511 1.415 . S
C1513 H1489 0.951 . S
C1513 C1514 1.366 . S
C1513 C1515 1.388 . S
C1514 C1513 1.366 . S
C1514 C1518 1.385 . S
C1515 H1490 0.951 . S
C1515 C1513 1.388 . S
C1515 C1516 1.366 . S
C1516 C1515 1.366 . S
C1516 C1517 1.414 . S
C1516 C1519 1.499 . S
C1517 H1491 0.950 . S
C1517 C1516 1.414 . S
C1517 C1518 1.374 . S
C1518 H1492 0.950 . S
C1518 C1514 1.385 . S
C1518 C1517 1.374 . S
C1519 C1516 1.499 . S
C1519 C1520 1.373 . S
C1519 C1521 1.389 . S
C1520 H1493 0.950 . S
C1520 C1506 1.377 . S
C1520 C1519 1.373 . S
C1521 C1505 1.377 . S
C1521 C1519 1.389 . S
C1521 C1522 1.524 . S
C1522 C1521 1.524 . S
C1522 C1523 1.397 . S
C1522 C1527 1.363 . S
C1523 H1494 0.950 . S
C1523 C1522 1.397 . S
C1523 C1524 1.334 . S
C1524 H1495 0.950 . S
C1524 C1523 1.334 . S
C1524 C1525 1.287 . S
C1525 C1524 1.287 . S
C1525 C1526 1.524 . S
C1525 H1528 0.999 . S
C1526 H1496 0.950 . S
C1526 C1525 1.524 . S
C1526 C1527 1.415 . S
C1527 H1497 0.950 . S
C1527 C1522 1.363 . S
C1527 C1526 1.415 . S
H1528 C1525 0.999 . S
H1529 C1510 0.913 . S
H1530 C1548 0.951 . S
H1531 C1550 0.951 . S
H1532 C1552 0.950 . S
H1533 C1553 0.950 . S
H1534 C1555 0.950 . S
H1535 C1558 0.950 . S
H1536 C1559 0.950 . S
H1537 C1561 0.950 . S
H1538 C1562 0.950 . S
H1539 C1563 0.951 . S
H1540 C1565 0.951 . S
H1541 C1567 0.950 . S
H1542 C1568 0.950 . S
H1543 C1570 0.950 . S
H1544 C1573 0.950 . S
H1545 C1574 0.950 . S
H1546 C1576 0.950 . S
H1547 C1577 0.950 . S
C1548 H1530 0.951 . S
C1548 C1549 1.366 . S
C1548 C1550 1.388 . S
C1549 C1548 1.366 . S
C1549 C1553 1.385 . S
C1550 H1531 0.951 . S
C1550 C1548 1.388 . S
C1550 C1551 1.366 . S
C1551 C1550 1.366 . S
C1551 C1552 1.414 . S
C1551 C1554 1.499 . S
C1552 H1532 0.950 . S
C1552 C1551 1.414 . S
C1552 C1553 1.374 . S
C1553 H1533 0.950 . S
C1553 C1549 1.385 . S
C1553 C1552 1.374 . S
C1554 C1551 1.499 . S
C1554 C1555 1.373 . S
C1554 C1556 1.389 . S
C1555 H1534 0.950 . S
C1555 C1554 1.373 . S
C1555 C1571 1.377 . S
C1556 C1554 1.389 . S
C1556 C1557 1.524 . S
C1556 C1570 1.377 . S
C1557 C1556 1.524 . S
C1557 C1558 1.397 . S
C1557 C1562 1.363 . S
C1558 H1535 0.950 . S
C1558 C1557 1.397 . S
C1558 C1559 1.334 . S
C1559 H1536 0.950 . S
C1559 C1558 1.334 . S
C1559 C1560 1.287 . S
C1560 C1559 1.287 . S
C1560 C1561 1.524 . S
C1560 H1579 0.913 . S
C1561 H1537 0.950 . S
C1561 C1560 1.524 . S
C1561 C1562 1.415 . S
C1562 H1538 0.950 . S
C1562 C1557 1.363 . S
C1562 C1561 1.415 . S
C1563 H1539 0.951 . S
C1563 C1564 1.366 . S
C1563 C1565 1.388 . S
C1564 C1563 1.366 . S
C1564 C1568 1.385 . S
C1565 H1540 0.951 . S
C1565 C1563 1.388 . S
C1565 C1566 1.366 . S
C1566 C1565 1.366 . S
C1566 C1567 1.414 . S
C1566 C1569 1.499 . S
C1567 H1541 0.950 . S
C1567 C1566 1.414 . S
C1567 C1568 1.374 . S
C1568 H1542 0.950 . S
C1568 C1564 1.385 . S
C1568 C1567 1.374 . S
C1569 C1566 1.499 . S
C1569 C1570 1.373 . S
C1569 C1571 1.389 . S
C1570 H1543 0.950 . S
C1570 C1556 1.377 . S
C1570 C1569 1.373 . S
C1571 C1555 1.377 . S
C1571 C1569 1.389 . S
C1571 C1572 1.524 . S
C1572 C1571 1.524 . S
C1572 C1573 1.397 . S
C1572 C1577 1.363 . S
C1573 H1544 0.950 . S
C1573 C1572 1.397 . S
C1573 C1574 1.334 . S
C1574 H1545 0.950 . S
C1574 C1573 1.334 . S
C1574 C1575 1.287 . S
C1575 C1574 1.287 . S
C1575 C1576 1.524 . S
C1575 H1578 0.999 . S
C1576 H1546 0.950 . S
C1576 C1575 1.524 . S
C1576 C1577 1.415 . S
C1577 H1547 0.950 . S
C1577 C1572 1.363 . S
C1577 C1576 1.415 . S
H1578 C1575 0.999 . S
H1579 C1560 0.913 . S
H1580 C1598 0.951 . S
H1581 C1600 0.951 . S
H1582 C1602 0.950 . S
H1583 C1603 0.950 . S
H1584 C1605 0.950 . S
H1585 C1608 0.950 . S
H1586 C1609 0.950 . S
H1587 C1611 0.950 . S
H1588 C1612 0.950 . S
H1589 C1613 0.951 . S
H1590 C1615 0.951 . S
H1591 C1617 0.950 . S
H1592 C1618 0.950 . S
H1593 C1620 0.950 . S
H1594 C1623 0.950 . S
H1595 C1624 0.950 . S
H1596 C1626 0.950 . S
H1597 C1627 0.950 . S
C1598 H1580 0.951 . S
C1598 C1599 1.366 . S
C1598 C1600 1.388 . S
C1599 C1598 1.366 . S
C1599 C1603 1.385 . S
C1600 H1581 0.951 . S
C1600 C1598 1.388 . S
C1600 C1601 1.366 . S
C1601 C1600 1.366 . S
C1601 C1602 1.414 . S
C1601 C1604 1.499 . S
C1602 H1582 0.950 . S
C1602 C1601 1.414 . S
C1602 C1603 1.374 . S
C1603 H1583 0.950 . S
C1603 C1599 1.385 . S
C1603 C1602 1.374 . S
C1604 C1601 1.499 . S
C1604 C1605 1.373 . S
C1604 C1606 1.389 . S
C1605 H1584 0.950 . S
C1605 C1604 1.373 . S
C1605 C1621 1.377 . S
C1606 C1604 1.389 . S
C1606 C1607 1.524 . S
C1606 C1620 1.377 . S
C1607 C1606 1.524 . S
C1607 C1608 1.397 . S
C1607 C1612 1.363 . S
C1608 H1585 0.950 . S
C1608 C1607 1.397 . S
C1608 C1609 1.334 . S
C1609 H1586 0.950 . S
C1609 C1608 1.334 . S
C1609 C1610 1.287 . S
C1610 C1609 1.287 . S
C1610 C1611 1.524 . S
C1610 H1629 0.913 . S
C1611 H1587 0.950 . S
C1611 C1610 1.524 . S
C1611 C1612 1.415 . S
C1612 H1588 0.950 . S
C1612 C1607 1.363 . S
C1612 C1611 1.415 . S
C1613 H1589 0.951 . S
C1613 C1614 1.366 . S
C1613 C1615 1.388 . S
C1614 C1613 1.366 . S
C1614 C1618 1.385 . S
C1615 H1590 0.951 . S
C1615 C1613 1.388 . S
C1615 C1616 1.366 . S
C1616 C1615 1.366 . S
C1616 C1617 1.414 . S
C1616 C1619 1.499 . S
C1617 H1591 0.950 . S
C1617 C1616 1.414 . S
C1617 C1618 1.374 . S
C1618 H1592 0.950 . S
C1618 C1614 1.385 . S
C1618 C1617 1.374 . S
C1619 C1616 1.499 . S
C1619 C1620 1.373 . S
C1619 C1621 1.389 . S
C1620 H1593 0.950 . S
C1620 C1606 1.377 . S
C1620 C1619 1.373 . S
C1621 C1605 1.377 . S
C1621 C1619 1.389 . S
C1621 C1622 1.524 . S
C1622 C1621 1.524 . S
C1622 C1623 1.397 . S
C1622 C1627 1.363 . S
C1623 H1594 0.950 . S
C1623 C1622 1.397 . S
C1623 C1624 1.334 . S
C1624 H1595 0.950 . S
C1624 C1623 1.334 . S
C1624 C1625 1.287 . S
C1625 C1624 1.287 . S
C1625 C1626 1.524 . S
C1625 H1628 0.999 . S
C1626 H1596 0.950 . S
C1626 C1625 1.524 . S
C1626 C1627 1.415 . S
C1627 H1597 0.950 . S
C1627 C1622 1.363 . S
C1627 C1626 1.415 . S
H1628 C1625 0.999 . S
H1629 C1610 0.913 . S
H1630 C1648 0.951 . S
H1631 C1650 0.951 . S
H1632 C1652 0.950 . S
H1633 C1653 0.950 . S
H1634 C1655 0.950 . S
H1635 C1658 0.950 . S
H1636 C1659 0.950 . S
H1637 C1661 0.950 . S
H1638 C1662 0.950 . S
H1639 C1663 0.951 . S
H1640 C1665 0.951 . S
H1641 C1667 0.950 . S
H1642 C1668 0.950 . S
H1643 C1670 0.950 . S
H1644 C1673 0.950 . S
H1645 C1674 0.950 . S
H1646 C1676 0.950 . S
H1647 C1677 0.950 . S
C1648 H1630 0.951 . S
C1648 C1649 1.366 . S
C1648 C1650 1.388 . S
C1649 C1648 1.366 . S
C1649 C1653 1.385 . S
C1650 H1631 0.951 . S
C1650 C1648 1.388 . S
C1650 C1651 1.366 . S
C1651 C1650 1.366 . S
C1651 C1652 1.414 . S
C1651 C1654 1.499 . S
C1652 H1632 0.950 . S
C1652 C1651 1.414 . S
C1652 C1653 1.374 . S
C1653 H1633 0.950 . S
C1653 C1649 1.385 . S
C1653 C1652 1.374 . S
C1654 C1651 1.499 . S
C1654 C1655 1.373 . S
C1654 C1656 1.389 . S
C1655 H1634 0.950 . S
C1655 C1654 1.373 . S
C1655 C1671 1.377 . S
C1656 C1654 1.389 . S
C1656 C1657 1.524 . S
C1656 C1670 1.377 . S
C1657 C1656 1.524 . S
C1657 C1658 1.397 . S
C1657 C1662 1.363 . S
C1658 H1635 0.950 . S
C1658 C1657 1.397 . S
C1658 C1659 1.334 . S
C1659 H1636 0.950 . S
C1659 C1658 1.334 . S
C1659 C1660 1.287 . S
C1660 C1659 1.287 . S
C1660 C1661 1.524 . S
C1660 H1679 0.913 . S
C1661 H1637 0.950 . S
C1661 C1660 1.524 . S
C1661 C1662 1.415 . S
C1662 H1638 0.950 . S
C1662 C1657 1.363 . S
C1662 C1661 1.415 . S
C1663 H1639 0.951 . S
C1663 C1664 1.366 . S
C1663 C1665 1.388 . S
C1664 C1663 1.366 . S
C1664 C1668 1.385 . S
C1665 H1640 0.951 . S
C1665 C1663 1.388 . S
C1665 C1666 1.366 . S
C1666 C1665 1.366 . S
C1666 C1667 1.414 . S
C1666 C1669 1.499 . S
C1667 H1641 0.950 . S
C1667 C1666 1.414 . S
C1667 C1668 1.374 . S
C1668 H1642 0.950 . S
C1668 C1664 1.385 . S
C1668 C1667 1.374 . S
C1669 C1666 1.499 . S
C1669 C1670 1.373 . S
C1669 C1671 1.389 . S
C1670 H1643 0.950 . S
C1670 C1656 1.377 . S
C1670 C1669 1.373 . S
C1671 C1655 1.377 . S
C1671 C1669 1.389 . S
C1671 C1672 1.524 . S
C1672 C1671 1.524 . S
C1672 C1673 1.397 . S
C1672 C1677 1.363 . S
C1673 H1644 0.950 . S
C1673 C1672 1.397 . S
C1673 C1674 1.334 . S
C1674 H1645 0.950 . S
C1674 C1673 1.334 . S
C1674 C1675 1.287 . S
C1675 C1674 1.287 . S
C1675 C1676 1.524 . S
C1675 H1678 0.999 . S
C1676 H1646 0.950 . S
C1676 C1675 1.524 . S
C1676 C1677 1.415 . S
C1677 H1647 0.950 . S
C1677 C1672 1.363 . S
C1677 C1676 1.415 . S
H1678 C1675 0.999 . S
H1679 C1660 0.913 . S
H1680 C1698 0.951 . S
H1681 C1700 0.951 . S
H1682 C1702 0.950 . S
H1683 C1703 0.950 . S
H1684 C1705 0.950 . S
H1685 C1708 0.950 . S
H1686 C1709 0.950 . S
H1687 C1711 0.950 . S
H1688 C1712 0.950 . S
H1689 C1713 0.951 . S
H1690 C1715 0.951 . S
H1691 C1717 0.950 . S
H1692 C1718 0.950 . S
H1693 C1720 0.950 . S
H1694 C1723 0.950 . S
H1695 C1724 0.950 . S
H1696 C1726 0.950 . S
H1697 C1727 0.950 . S
C1698 H1680 0.951 . S
C1698 C1699 1.366 . S
C1698 C1700 1.388 . S
C1699 C1698 1.366 . S
C1699 C1703 1.385 . S
C1700 H1681 0.951 . S
C1700 C1698 1.388 . S
C1700 C1701 1.366 . S
C1701 C1700 1.366 . S
C1701 C1702 1.414 . S
C1701 C1704 1.499 . S
C1702 H1682 0.950 . S
C1702 C1701 1.414 . S
C1702 C1703 1.374 . S
C1703 H1683 0.950 . S
C1703 C1699 1.385 . S
C1703 C1702 1.374 . S
C1704 C1701 1.499 . S
C1704 C1705 1.373 . S
C1704 C1706 1.389 . S
C1705 H1684 0.950 . S
C1705 C1704 1.373 . S
C1705 C1721 1.377 . S
C1706 C1704 1.389 . S
C1706 C1707 1.524 . S
C1706 C1720 1.377 . S
C1707 C1706 1.524 . S
C1707 C1708 1.397 . S
C1707 C1712 1.363 . S
C1708 H1685 0.950 . S
C1708 C1707 1.397 . S
C1708 C1709 1.334 . S
C1709 H1686 0.950 . S
C1709 C1708 1.334 . S
C1709 C1710 1.287 . S
C1710 C1709 1.287 . S
C1710 C1711 1.524 . S
C1710 H1729 0.913 . S
C1711 H1687 0.950 . S
C1711 C1710 1.524 . S
C1711 C1712 1.415 . S
C1712 H1688 0.950 . S
C1712 C1707 1.363 . S
C1712 C1711 1.415 . S
C1713 H1689 0.951 . S
C1713 C1714 1.366 . S
C1713 C1715 1.388 . S
C1714 C1713 1.366 . S
C1714 C1718 1.385 . S
C1715 H1690 0.951 . S
C1715 C1713 1.388 . S
C1715 C1716 1.366 . S
C1716 C1715 1.366 . S
C1716 C1717 1.414 . S
C1716 C1719 1.499 . S
C1717 H1691 0.950 . S
C1717 C1716 1.414 . S
C1717 C1718 1.374 . S
C1718 H1692 0.950 . S
C1718 C1714 1.385 . S
C1718 C1717 1.374 . S
C1719 C1716 1.499 . S
C1719 C1720 1.373 . S
C1719 C1721 1.389 . S
C1720 H1693 0.950 . S
C1720 C1706 1.377 . S
C1720 C1719 1.373 . S
C1721 C1705 1.377 . S
C1721 C1719 1.389 . S
C1721 C1722 1.524 . S
C1722 C1721 1.524 . S
C1722 C1723 1.397 . S
C1722 C1727 1.363 . S
C1723 H1694 0.950 . S
C1723 C1722 1.397 . S
C1723 C1724 1.334 . S
C1724 H1695 0.950 . S
C1724 C1723 1.334 . S
C1724 C1725 1.287 . S
C1725 C1724 1.287 . S
C1725 C1726 1.524 . S
C1725 H1728 0.999 . S
C1726 H1696 0.950 . S
C1726 C1725 1.524 . S
C1726 C1727 1.415 . S
C1727 H1697 0.950 . S
C1727 C1722 1.363 . S
C1727 C1726 1.415 . S
H1728 C1725 0.999 . S
H1729 C1710 0.913 . S
H1730 C1748 0.951 . S
H1731 C1750 0.951 . S
H1732 C1752 0.950 . S
H1733 C1753 0.950 . S
H1734 C1755 0.950 . S
H1735 C1758 0.950 . S
H1736 C1759 0.950 . S
H1737 C1761 0.950 . S
H1738 C1762 0.950 . S
H1739 C1763 0.951 . S
H1740 C1765 0.951 . S
H1741 C1767 0.950 . S
H1742 C1768 0.950 . S
H1743 C1770 0.950 . S
H1744 C1773 0.950 . S
H1745 C1774 0.950 . S
H1746 C1776 0.950 . S
H1747 C1777 0.950 . S
C1748 H1730 0.951 . S
C1748 C1749 1.366 . S
C1748 C1750 1.388 . S
C1749 C1748 1.366 . S
C1749 C1753 1.385 . S
C1750 H1731 0.951 . S
C1750 C1748 1.388 . S
C1750 C1751 1.366 . S
C1751 C1750 1.366 . S
C1751 C1752 1.414 . S
C1751 C1754 1.499 . S
C1752 H1732 0.950 . S
C1752 C1751 1.414 . S
C1752 C1753 1.374 . S
C1753 H1733 0.950 . S
C1753 C1749 1.385 . S
C1753 C1752 1.374 . S
C1754 C1751 1.499 . S
C1754 C1755 1.373 . S
C1754 C1756 1.389 . S
C1755 H1734 0.950 . S
C1755 C1754 1.373 . S
C1755 C1771 1.377 . S
C1756 C1754 1.389 . S
C1756 C1757 1.524 . S
C1756 C1770 1.377 . S
C1757 C1756 1.524 . S
C1757 C1758 1.397 . S
C1757 C1762 1.363 . S
C1758 H1735 0.950 . S
C1758 C1757 1.397 . S
C1758 C1759 1.334 . S
C1759 H1736 0.950 . S
C1759 C1758 1.334 . S
C1759 C1760 1.287 . S
C1760 C1759 1.287 . S
C1760 C1761 1.524 . S
C1760 H1779 0.913 . S
C1761 H1737 0.950 . S
C1761 C1760 1.524 . S
C1761 C1762 1.415 . S
C1762 H1738 0.950 . S
C1762 C1757 1.363 . S
C1762 C1761 1.415 . S
C1763 H1739 0.951 . S
C1763 C1764 1.366 . S
C1763 C1765 1.388 . S
C1764 C1763 1.366 . S
C1764 C1768 1.385 . S
C1765 H1740 0.951 . S
C1765 C1763 1.388 . S
C1765 C1766 1.366 . S
C1766 C1765 1.366 . S
C1766 C1767 1.414 . S
C1766 C1769 1.499 . S
C1767 H1741 0.950 . S
C1767 C1766 1.414 . S
C1767 C1768 1.374 . S
C1768 H1742 0.950 . S
C1768 C1764 1.385 . S
C1768 C1767 1.374 . S
C1769 C1766 1.499 . S
C1769 C1770 1.373 . S
C1769 C1771 1.389 . S
C1770 H1743 0.950 . S
C1770 C1756 1.377 . S
C1770 C1769 1.373 . S
C1771 C1755 1.377 . S
C1771 C1769 1.389 . S
C1771 C1772 1.524 . S
C1772 C1771 1.524 . S
C1772 C1773 1.397 . S
C1772 C1777 1.363 . S
C1773 H1744 0.950 . S
C1773 C1772 1.397 . S
C1773 C1774 1.334 . S
C1774 H1745 0.950 . S
C1774 C1773 1.334 . S
C1774 C1775 1.287 . S
C1775 C1774 1.287 . S
C1775 C1776 1.524 . S
C1775 H1778 0.999 . S
C1776 H1746 0.950 . S
C1776 C1775 1.524 . S
C1776 C1777 1.415 . S
C1777 H1747 0.950 . S
C1777 C1772 1.363 . S
C1777 C1776 1.415 . S
H1778 C1775 0.999 . S
H1779 C1760 0.913 . S
H1780 C1798 0.951 . S
H1781 C1800 0.951 . S
H1782 C1802 0.950 . S
H1783 C1803 0.923 1_455 S
H1784 C1805 0.950 . S
H1785 C1808 0.950 1_455 S
H1786 C1809 0.950 . S
H1787 C1811 0.950 . S
H1788 C1812 0.950 . S
H1789 C1813 0.951 . S
H1790 C1815 0.951 . S
H1791 C1817 0.950 . S
H1792 C1818 0.950 . S
H1793 C1820 0.950 . S
H1794 C1823 0.950 . S
H1795 C1824 0.950 . S
H1796 C1826 0.950 . S
H1797 C1827 0.950 . S
C1798 H1780 0.951 . S
C1798 C1799 1.366 . S
C1798 C1800 1.388 . S
C1799 C1798 1.366 . S
C1799 C1803 1.392 . S
C1800 H1781 0.951 . S
C1800 C1798 1.388 . S
C1800 C1801 1.366 . S
C1801 C1800 1.366 . S
C1801 C1802 1.414 . S
C1801 C1804 1.499 . S
C1802 H1782 0.950 . S
C1802 C1801 1.414 . S
C1802 C1803 1.395 . S
C1803 H1783 0.923 1_655 S
C1803 C1799 1.392 . S
C1803 C1802 1.395 . S
C1804 C1801 1.499 . S
C1804 C1805 1.373 . S
C1804 C1806 1.389 . S
C1805 H1784 0.950 . S
C1805 C1804 1.373 . S
C1805 C1821 1.377 . S
C1806 C1804 1.389 . S
C1806 C1807 1.524 . S
C1806 C1820 1.377 . S
C1807 C1806 1.524 . S
C1807 C1808 1.397 . S
C1807 C1812 1.363 . S
C1808 H1785 0.950 1_655 S
C1808 C1807 1.397 . S
C1808 C1809 1.334 1_655 S
C1809 H1786 0.950 . S
C1809 C1808 1.334 1_455 S
C1809 C1810 1.287 . S
C1810 C1809 1.287 . S
C1810 C1811 1.524 1_455 S
C1810 H1829 0.913 . S
C1811 H1787 0.950 . S
C1811 C1810 1.524 1_655 S
C1811 C1812 1.415 . S
C1812 H1788 0.950 . S
C1812 C1807 1.363 . S
C1812 C1811 1.415 . S
C1813 H1789 0.951 . S
C1813 C1814 1.366 . S
C1813 C1815 1.388 . S
C1814 C1813 1.366 . S
C1814 C1818 1.385 . S
C1815 H1790 0.951 . S
C1815 C1813 1.388 . S
C1815 C1816 1.366 . S
C1816 C1815 1.366 . S
C1816 C1817 1.414 . S
C1816 C1819 1.499 . S
C1817 H1791 0.950 . S
C1817 C1816 1.414 . S
C1817 C1818 1.374 . S
C1818 H1792 0.950 . S
C1818 C1814 1.385 . S
C1818 C1817 1.374 . S
C1819 C1816 1.499 . S
C1819 C1820 1.373 . S
C1819 C1821 1.389 . S
C1820 H1793 0.950 . S
C1820 C1806 1.377 . S
C1820 C1819 1.373 . S
C1821 C1805 1.377 . S
C1821 C1819 1.389 . S
C1821 C1822 1.524 . S
C1822 C1821 1.524 . S
C1822 C1823 1.397 . S
C1822 C1827 1.363 . S
C1823 H1794 0.950 . S
C1823 C1822 1.397 . S
C1823 C1824 1.334 . S
C1824 H1795 0.950 . S
C1824 C1823 1.334 . S
C1824 C1825 1.287 . S
C1825 C1824 1.287 . S
C1825 C1826 1.524 . S
C1825 H1828 0.999 . S
C1826 H1796 0.950 . S
C1826 C1825 1.524 . S
C1826 C1827 1.415 . S
C1827 H1797 0.950 . S
C1827 C1822 1.363 . S
C1827 C1826 1.415 . S
H1828 C1825 0.999 . S
H1829 C1810 0.913 . S
H1830 C1848 0.951 . S
H1831 C1850 0.951 . S
H1832 C1852 0.950 . S
H1833 C1853 0.950 . S
H1834 C1855 0.950 . S
H1835 C1858 0.950 . S
H1836 C1859 0.950 . S
H1837 C1861 0.950 . S
H1838 C1862 0.950 . S
H1839 C1863 0.951 . S
H1840 C1865 0.951 . S
H1841 C1867 0.950 . S
H1842 C1868 0.950 . S
H1843 C1870 0.950 . S
H1844 C1873 0.950 . S
H1845 C1874 0.950 . S
H1846 C1876 0.950 . S
H1847 C1877 0.950 . S
C1848 H1830 0.951 . S
C1848 C1849 1.366 . S
C1848 C1850 1.388 . S
C1849 C1848 1.366 . S
C1849 C1853 1.385 . S
C1850 H1831 0.951 . S
C1850 C1848 1.388 . S
C1850 C1851 1.366 . S
C1851 C1850 1.366 . S
C1851 C1852 1.414 . S
C1851 C1854 1.499 . S
C1852 H1832 0.950 . S
C1852 C1851 1.414 . S
C1852 C1853 1.374 . S
C1853 H1833 0.950 . S
C1853 C1849 1.385 . S
C1853 C1852 1.374 . S
C1854 C1851 1.499 . S
C1854 C1855 1.373 . S
C1854 C1856 1.389 . S
C1855 H1834 0.950 . S
C1855 C1854 1.373 . S
C1855 C1871 1.377 . S
C1856 C1854 1.389 . S
C1856 C1857 1.524 . S
C1856 C1870 1.377 . S
C1857 C1856 1.524 . S
C1857 C1858 1.397 . S
C1857 C1862 1.363 . S
C1858 H1835 0.950 . S
C1858 C1857 1.397 . S
C1858 C1859 1.334 . S
C1859 H1836 0.950 . S
C1859 C1858 1.334 . S
C1859 C1860 1.287 . S
C1860 C1859 1.287 . S
C1860 C1861 1.524 . S
C1860 H1879 0.913 . S
C1861 H1837 0.950 . S
C1861 C1860 1.524 . S
C1861 C1862 1.415 . S
C1862 H1838 0.950 . S
C1862 C1857 1.363 . S
C1862 C1861 1.415 . S
C1863 H1839 0.951 . S
C1863 C1864 1.366 . S
C1863 C1865 1.388 . S
C1864 C1863 1.366 . S
C1864 C1868 1.385 . S
C1865 H1840 0.951 . S
C1865 C1863 1.388 . S
C1865 C1866 1.366 . S
C1866 C1865 1.366 . S
C1866 C1867 1.414 . S
C1866 C1869 1.499 . S
C1867 H1841 0.950 . S
C1867 C1866 1.414 . S
C1867 C1868 1.374 . S
C1868 H1842 0.950 . S
C1868 C1864 1.385 . S
C1868 C1867 1.374 . S
C1869 C1866 1.499 . S
C1869 C1870 1.373 . S
C1869 C1871 1.389 . S
C1870 H1843 0.950 . S
C1870 C1856 1.377 . S
C1870 C1869 1.373 . S
C1871 C1855 1.377 . S
C1871 C1869 1.389 . S
C1871 C1872 1.524 . S
C1872 C1871 1.524 . S
C1872 C1873 1.397 . S
C1872 C1877 1.363 . S
C1873 H1844 0.950 . S
C1873 C1872 1.397 . S
C1873 C1874 1.334 . S
C1874 H1845 0.950 . S
C1874 C1873 1.334 . S
C1874 C1875 1.287 . S
C1875 C1874 1.287 . S
C1875 C1876 1.524 . S
C1875 H1878 0.999 . S
C1876 H1846 0.950 . S
C1876 C1875 1.524 . S
C1876 C1877 1.415 . S
C1877 H1847 0.950 . S
C1877 C1872 1.363 . S
C1877 C1876 1.415 . S
H1878 C1875 0.999 . S
H1879 C1860 0.913 . S
H1880 C1898 0.951 . S
H1881 C1900 0.951 . S
H1882 C1902 0.950 . S
H1883 C1903 0.950 . S
H1884 C1905 0.950 . S
H1885 C1908 0.950 . S
H1886 C1909 0.950 . S
H1887 C1911 0.950 . S
H1888 C1912 0.950 . S
H1889 C1913 0.951 . S
H1890 C1915 0.951 . S
H1891 C1917 0.950 . S
H1892 C1918 0.950 . S
H1893 C1920 0.950 . S
H1894 C1923 0.950 . S
H1895 C1924 0.950 . S
H1896 C1926 0.950 . S
H1897 C1927 0.950 . S
C1898 H1880 0.951 . S
C1898 C1899 1.366 . S
C1898 C1900 1.388 . S
C1899 C1898 1.366 . S
C1899 C1903 1.385 . S
C1900 H1881 0.951 . S
C1900 C1898 1.388 . S
C1900 C1901 1.366 . S
C1901 C1900 1.366 . S
C1901 C1902 1.414 . S
C1901 C1904 1.499 . S
C1902 H1882 0.950 . S
C1902 C1901 1.414 . S
C1902 C1903 1.374 . S
C1903 H1883 0.950 . S
C1903 C1899 1.385 . S
C1903 C1902 1.374 . S
C1904 C1901 1.499 . S
C1904 C1905 1.373 . S
C1904 C1906 1.389 . S
C1905 H1884 0.950 . S
C1905 C1904 1.373 . S
C1905 C1921 1.377 . S
C1906 C1904 1.389 . S
C1906 C1907 1.524 . S
C1906 C1920 1.377 . S
C1907 C1906 1.524 . S
C1907 C1908 1.397 . S
C1907 C1912 1.363 . S
C1908 H1885 0.950 . S
C1908 C1907 1.397 . S
C1908 C1909 1.334 . S
C1909 H1886 0.950 . S
C1909 C1908 1.334 . S
C1909 C1910 1.287 . S
C1910 C1909 1.287 . S
C1910 C1911 1.524 . S
C1910 H1929 0.913 . S
C1911 H1887 0.950 . S
C1911 C1910 1.524 . S
C1911 C1912 1.415 . S
C1912 H1888 0.950 . S
C1912 C1907 1.363 . S
C1912 C1911 1.415 . S
C1913 H1889 0.951 . S
C1913 C1914 1.366 . S
C1913 C1915 1.388 . S
C1914 C1913 1.366 . S
C1914 C1918 1.385 . S
C1915 H1890 0.951 . S
C1915 C1913 1.388 . S
C1915 C1916 1.366 . S
C1916 C1915 1.366 . S
C1916 C1917 1.414 . S
C1916 C1919 1.499 . S
C1917 H1891 0.950 . S
C1917 C1916 1.414 . S
C1917 C1918 1.374 . S
C1918 H1892 0.950 . S
C1918 C1914 1.385 . S
C1918 C1917 1.374 . S
C1919 C1916 1.499 . S
C1919 C1920 1.373 . S
C1919 C1921 1.389 . S
C1920 H1893 0.950 . S
C1920 C1906 1.377 . S
C1920 C1919 1.373 . S
C1921 C1905 1.377 . S
C1921 C1919 1.389 . S
C1921 C1922 1.524 . S
C1922 C1921 1.524 . S
C1922 C1923 1.397 . S
C1922 C1927 1.363 . S
C1923 H1894 0.950 . S
C1923 C1922 1.397 . S
C1923 C1924 1.334 . S
C1924 H1895 0.950 . S
C1924 C1923 1.334 . S
C1924 C1925 1.287 . S
C1925 C1924 1.287 . S
C1925 C1926 1.524 . S
C1925 H1928 0.999 . S
C1926 H1896 0.950 . S
C1926 C1925 1.524 . S
C1926 C1927 1.415 . S
C1927 H1897 0.950 . S
C1927 C1922 1.363 . S
C1927 C1926 1.415 . S
H1928 C1925 0.999 . S
H1929 C1910 0.913 . S
H1930 C1948 0.951 . S
H1931 C1950 0.951 . S
H1932 C1952 0.950 . S
H1933 C1953 0.950 . S
H1934 C1955 0.950 . S
H1935 C1958 0.950 1_655 S
H1936 C1959 0.950 . S
H1937 C1961 0.950 . S
H1938 C1962 0.947 1_655 S
H1939 C1963 0.951 . S
H1940 C1965 0.951 . S
H1941 C1967 0.950 . S
H1942 C1968 0.950 . S
H1943 C1970 0.950 . S
H1944 C1973 0.950 . S
H1945 C1974 0.950 . S
H1946 C1976 0.950 . S
H1947 C1977 0.950 . S
C1948 H1930 0.951 . S
C1948 C1949 1.366 1_455 S
C1948 C1950 1.388 1_455 S
C1949 C1948 1.366 1_655 S
C1949 C1953 1.385 . S
C1950 H1931 0.951 . S
C1950 C1948 1.388 1_655 S
C1950 C1951 1.366 . S
C1951 C1950 1.366 . S
C1951 C1952 1.414 . S
C1951 C1954 1.499 . S
C1952 H1932 0.950 . S
C1952 C1951 1.414 . S
C1952 C1953 1.374 . S
C1953 H1933 0.950 . S
C1953 C1949 1.385 . S
C1953 C1952 1.374 . S
C1954 C1951 1.499 . S
C1954 C1955 1.373 . S
C1954 C1956 1.389 . S
C1955 H1934 0.950 . S
C1955 C1954 1.373 . S
C1955 C1971 1.377 . S
C1956 C1954 1.389 . S
C1956 C1957 1.524 . S
C1956 C1970 1.377 . S
C1957 C1956 1.524 . S
C1957 C1958 1.397 1_655 S
C1957 C1962 1.363 1_655 S
C1958 H1935 0.950 1_455 S
C1958 C1957 1.397 1_455 S
C1958 C1959 1.334 . S
C1959 H1936 0.950 . S
C1959 C1958 1.334 . S
C1959 C1960 1.287 . S
C1960 C1959 1.287 . S
C1960 C1961 1.524 . S
C1960 H1979 0.913 . S
C1961 H1937 0.950 . S
C1961 C1960 1.524 . S
C1961 C1962 1.415 . S
C1962 H1938 0.947 1_455 S
C1962 C1957 1.363 1_455 S
C1962 C1961 1.415 . S
C1963 H1939 0.951 . S
C1963 C1964 1.366 . S
C1963 C1965 1.388 . S
C1964 C1963 1.366 . S
C1964 C1968 1.385 . S
C1965 H1940 0.951 . S
C1965 C1963 1.388 . S
C1965 C1966 1.366 . S
C1966 C1965 1.366 . S
C1966 C1967 1.414 . S
C1966 C1969 1.499 . S
C1967 H1941 0.950 . S
C1967 C1966 1.414 . S
C1967 C1968 1.374 . S
C1968 H1942 0.950 . S
C1968 C1964 1.385 . S
C1968 C1967 1.374 . S
C1969 C1966 1.499 . S
C1969 C1970 1.373 . S
C1969 C1971 1.389 . S
C1970 H1943 0.950 . S
C1970 C1956 1.377 . S
C1970 C1969 1.373 . S
C1971 C1955 1.377 . S
C1971 C1969 1.389 . S
C1971 C1972 1.524 . S
C1972 C1971 1.524 . S
C1972 C1973 1.397 . S
C1972 C1977 1.363 . S
C1973 H1944 0.950 . S
C1973 C1972 1.397 . S
C1973 C1974 1.334 . S
C1974 H1945 0.950 . S
C1974 C1973 1.334 . S
C1974 C1975 1.287 . S
C1975 C1974 1.287 . S
C1975 C1976 1.524 . S
C1975 H1978 0.999 . S
C1976 H1946 0.950 . S
C1976 C1975 1.524 . S
C1976 C1977 1.415 . S
C1977 H1947 0.950 . S
C1977 C1972 1.363 . S
C1977 C1976 1.415 . S
H1978 C1975 0.999 . S
H1979 C1960 0.913 . S
H1980 C1998 0.951 . S
H1981 C2000 0.951 . S
H1982 C2002 0.950 . S
H1983 C2003 0.950 . S
H1984 C2005 0.950 . S
H1985 C2008 0.950 . S
H1986 C2009 0.950 . S
H1987 C2011 0.950 . S
H1988 C2012 0.950 . S
H1989 C2013 0.951 . S
H1990 C2015 0.951 . S
H1991 C2017 0.950 . S
H1992 C2018 0.950 . S
H1993 C2020 0.950 . S
H1994 C2023 0.950 . S
H1995 C2024 0.950 . S
H1996 C2026 0.950 . S
H1997 C2027 0.950 . S
C1998 H1980 0.951 . S
C1998 C1999 1.366 . S
C1998 C2000 1.388 . S
C1999 C1998 1.366 . S
C1999 C2003 1.385 . S
C2000 H1981 0.951 . S
C2000 C1998 1.388 . S
C2000 C2001 1.366 . S
C2001 C2000 1.366 . S
C2001 C2002 1.414 . S
C2001 C2004 1.499 . S
C2002 H1982 0.950 . S
C2002 C2001 1.414 . S
C2002 C2003 1.374 . S
C2003 H1983 0.950 . S
C2003 C1999 1.385 . S
C2003 C2002 1.374 . S
C2004 C2001 1.499 . S
C2004 C2005 1.373 . S
C2004 C2006 1.389 . S
C2005 H1984 0.950 . S
C2005 C2004 1.373 . S
C2005 C2021 1.377 . S
C2006 C2004 1.389 . S
C2006 C2007 1.524 . S
C2006 C2020 1.377 . S
C2007 C2006 1.524 . S
C2007 C2008 1.397 . S
C2007 C2012 1.363 . S
C2008 H1985 0.950 . S
C2008 C2007 1.397 . S
C2008 C2009 1.334 . S
C2009 H1986 0.950 . S
C2009 C2008 1.334 . S
C2009 C2010 1.287 . S
C2010 C2009 1.287 . S
C2010 C2011 1.524 . S
C2010 H2029 0.913 . S
C2011 H1987 0.950 . S
C2011 C2010 1.524 . S
C2011 C2012 1.415 . S
C2012 H1988 0.950 . S
C2012 C2007 1.363 . S
C2012 C2011 1.415 . S
C2013 H1989 0.951 . S
C2013 C2014 1.366 . S
C2013 C2015 1.388 . S
C2014 C2013 1.366 . S
C2014 C2018 1.385 . S
C2015 H1990 0.951 . S
C2015 C2013 1.388 . S
C2015 C2016 1.366 . S
C2016 C2015 1.366 . S
C2016 C2017 1.414 . S
C2016 C2019 1.499 . S
C2017 H1991 0.950 . S
C2017 C2016 1.414 . S
C2017 C2018 1.374 . S
C2018 H1992 0.950 . S
C2018 C2014 1.385 . S
C2018 C2017 1.374 . S
C2019 C2016 1.499 . S
C2019 C2020 1.373 . S
C2019 C2021 1.389 . S
C2020 H1993 0.950 . S
C2020 C2006 1.377 . S
C2020 C2019 1.373 . S
C2021 C2005 1.377 . S
C2021 C2019 1.389 . S
C2021 C2022 1.524 . S
C2022 C2021 1.524 . S
C2022 C2023 1.397 . S
C2022 C2027 1.363 . S
C2023 H1994 0.950 . S
C2023 C2022 1.397 . S
C2023 C2024 1.334 . S
C2024 H1995 0.950 . S
C2024 C2023 1.334 . S
C2024 C2025 1.287 . S
C2025 C2024 1.287 . S
C2025 C2026 1.524 . S
C2025 H2028 0.999 . S
C2026 H1996 0.950 . S
C2026 C2025 1.524 . S
C2026 C2027 1.415 . S
C2027 H1997 0.950 . S
C2027 C2022 1.363 . S
C2027 C2026 1.415 . S
H2028 C2025 0.999 . S
H2029 C2010 0.913 . S
H2030 C2048 0.951 . S
H2031 C2050 0.951 . S
H2032 C2052 0.950 . S
H2033 C2053 0.950 . S
H2034 C2055 0.950 . S
H2035 C2058 0.950 . S
H2036 C2059 0.950 . S
H2037 C2061 0.950 . S
H2038 C2062 0.950 . S
H2039 C2063 0.951 . S
H2040 C2065 0.951 . S
H2041 C2067 0.950 . S
H2042 C2068 0.950 . S
H2043 C2070 0.950 . S
H2044 C2073 0.950 . S
H2045 C2074 0.950 . S
H2046 C2076 0.950 . S
H2047 C2077 0.950 . S
C2048 H2030 0.951 . S
C2048 C2049 1.366 . S
C2048 C2050 1.388 . S
C2049 C2048 1.366 . S
C2049 C2053 1.385 . S
C2050 H2031 0.951 . S
C2050 C2048 1.388 . S
C2050 C2051 1.366 . S
C2051 C2050 1.366 . S
C2051 C2052 1.414 . S
C2051 C2054 1.499 . S
C2052 H2032 0.950 . S
C2052 C2051 1.414 . S
C2052 C2053 1.374 . S
C2053 H2033 0.950 . S
C2053 C2049 1.385 . S
C2053 C2052 1.374 . S
C2054 C2051 1.499 . S
C2054 C2055 1.373 . S
C2054 C2056 1.389 . S
C2055 H2034 0.950 . S
C2055 C2054 1.373 . S
C2055 C2071 1.377 . S
C2056 C2054 1.389 . S
C2056 C2057 1.524 . S
C2056 C2070 1.377 . S
C2057 C2056 1.524 . S
C2057 C2058 1.397 . S
C2057 C2062 1.363 . S
C2058 H2035 0.950 . S
C2058 C2057 1.397 . S
C2058 C2059 1.334 . S
C2059 H2036 0.950 . S
C2059 C2058 1.334 . S
C2059 C2060 1.287 . S
C2060 C2059 1.287 . S
C2060 C2061 1.524 . S
C2060 H2079 0.913 . S
C2061 H2037 0.950 . S
C2061 C2060 1.524 . S
C2061 C2062 1.415 . S
C2062 H2038 0.950 . S
C2062 C2057 1.363 . S
C2062 C2061 1.415 . S
C2063 H2039 0.951 . S
C2063 C2064 1.366 . S
C2063 C2065 1.388 . S
C2064 C2063 1.366 . S
C2064 C2068 1.385 . S
C2065 H2040 0.951 . S
C2065 C2063 1.388 . S
C2065 C2066 1.366 . S
C2066 C2065 1.366 . S
C2066 C2067 1.414 . S
C2066 C2069 1.499 . S
C2067 H2041 0.950 . S
C2067 C2066 1.414 . S
C2067 C2068 1.374 . S
C2068 H2042 0.950 . S
C2068 C2064 1.385 . S
C2068 C2067 1.374 . S
C2069 C2066 1.499 . S
C2069 C2070 1.373 . S
C2069 C2071 1.389 . S
C2070 H2043 0.950 . S
C2070 C2056 1.377 . S
C2070 C2069 1.373 . S
C2071 C2055 1.377 . S
C2071 C2069 1.389 . S
C2071 C2072 1.524 . S
C2072 C2071 1.524 . S
C2072 C2073 1.397 . S
C2072 C2077 1.363 . S
C2073 H2044 0.950 . S
C2073 C2072 1.397 . S
C2073 C2074 1.334 . S
C2074 H2045 0.950 . S
C2074 C2073 1.334 . S
C2074 C2075 1.287 . S
C2075 C2074 1.287 . S
C2075 C2076 1.524 . S
C2075 H2078 0.999 . S
C2076 H2046 0.950 . S
C2076 C2075 1.524 . S
C2076 C2077 1.415 . S
C2077 H2047 0.950 . S
C2077 C2072 1.363 . S
C2077 C2076 1.415 . S
H2078 C2075 0.999 . S
H2079 C2060 0.913 . S
C514 C389 1.215 . S
C499 C8 1.201 . S
C564 C409 1.268 . S
C549 C61 1.272 . S
C614 C423 1.294 . S
C599 C107 1.301 . S
C649 C139 1.307 . S
C664 C381 1.307 . S
C699 C192 1.303 . S
C714 C375 1.337 . S
C749 C238 1.276 . S
C764 C395 1.279 . S
C814 C403 1.197 . S
C799 C284 1.186 . S
C864 C417 1.283 . S
C849 C330 1.257 . S
C899 C100 1.257 . S
C914 C445 1.282 . S
C964 C459 1.197 . S
C949 C160 1.177 . S
C999 C15 1.271 1_655 S
C1014 C479 1.278 . S
C1064 C431 1.337 . S
C1049 C54 1.303 . S
C1099 C291 1.307 . S
C1114 C437 1.304 . S
C1149 C337 1.301 1_655 S
C1164 C451 1.294 . S
C1214 C465 1.259 1_556 S
C1199 C199 1.274 . S
C1249 C245 1.201 . S
C1264 C473 1.215 . S
C1314 C404 1.711 . S
C1299 C1 1.702 . S
C1364 C418 1.716 . S
C1349 C68 1.695 . S
C1399 C114 1.615 . S
C1414 C376 1.633 . S
C1449 C146 1.448 . S
C1464 C393 1.457 . S
C1499 C185 1.311 . S
C1514 C421 1.314 . S
C1564 C379 1.280 . S
C1549 C231 1.277 . S
C1614 C390 1.523 . S
C1599 C277 1.519 . S
C1664 C407 1.386 . S
C1649 C323 1.381 . S
C1714 C463 1.386 . S
C1699 C93 1.383 . S
C1764 C474 1.522 . S
C1749 C153 1.512 . S
C1799 C22 1.275 1_655 S
C1814 C435 1.280 . S
C1864 C449 1.314 . S
C1849 C47 1.310 . S
C1914 C477 1.455 . S
C1899 C298 1.441 . S
C1949 C344 1.615 1_655 S
C1964 C432 1.633 . S
C2014 C446 1.716 . S
C1999 C206 1.695 . S
C2064 C460 1.711 . S
C2049 C252 1.691 . S
