# Generated by pormake.
# Topology nom, (4,4)-cn, num edge types: 1
# Building blocks:
#     Node 0, Type 0, BuildingBlock: AZAVOO_clean_linker_0, # of connection points: 4
#     Node 1, Type 0, BuildingBlock: AZAVOO_clean_linker_0, # of connection points: 4
#     Node 2, Type 0, BuildingBlock: AZAVOO_clean_linker_0, # of connection points: 4
#     Node 3, Type 0, BuildingBlock: AZAVOO_clean_linker_0, # of connection points: 4
#     Node 4, Type 0, BuildingBlock: AZAVOO_clean_linker_0, # of connection points: 4
#     Node 5, Type 0, BuildingBlock: AZAVOO_clean_linker_0, # of connection points: 4
#     Node 6, Type 1, BuildingBlock: KUFVIS_clean_sbu_0, # of connection points: 4
#     Node 7, Type 1, BuildingBlock: KUFVIS_clean_sbu_0, # of connection points: 4
#     Node 8, Type 1, BuildingBlock: KUFVIS_clean_sbu_0, # of connection points: 4
#     Node 9, Type 1, BuildingBlock: KUFVIS_clean_sbu_0, # of connection points: 4
#     Node 10, Type 1, BuildingBlock: KUFVIS_clean_sbu_0, # of connection points: 4
#     Node 11, Type 1, BuildingBlock: KUFVIS_clean_sbu_0, # of connection points: 4
#     Edge 12, Type (0, 1), BuildingBlock: AJUNOK_clean_linker_0, # of connection points: 2
#     Edge 13, Type (0, 1), BuildingBlock: AJUNOK_clean_linker_0, # of connection points: 2
#     Edge 14, Type (0, 1), BuildingBlock: AJUNOK_clean_linker_0, # of connection points: 2
#     Edge 15, Type (0, 1), BuildingBlock: AJUNOK_clean_linker_0, # of connection points: 2
#     Edge 16, Type (0, 1), BuildingBlock: AJUNOK_clean_linker_0, # of connection points: 2
#     Edge 17, Type (0, 1), BuildingBlock: AJUNOK_clean_linker_0, # of connection points: 2
#     Edge 18, Type (0, 1), BuildingBlock: AJUNOK_clean_linker_0, # of connection points: 2
#     Edge 19, Type (0, 1), BuildingBlock: AJUNOK_clean_linker_0, # of connection points: 2
#     Edge 20, Type (0, 1), BuildingBlock: AJUNOK_clean_linker_0, # of connection points: 2
#     Edge 21, Type (0, 1), BuildingBlock: AJUNOK_clean_linker_0, # of connection points: 2
#     Edge 22, Type (0, 1), BuildingBlock: AJUNOK_clean_linker_0, # of connection points: 2
#     Edge 23, Type (0, 1), BuildingBlock: AJUNOK_clean_linker_0, # of connection points: 2
#     Edge 24, Type (0, 1), BuildingBlock: AJUNOK_clean_linker_0, # of connection points: 2
#     Edge 25, Type (0, 1), BuildingBlock: AJUNOK_clean_linker_0, # of connection points: 2
#     Edge 26, Type (0, 1), BuildingBlock: AJUNOK_clean_linker_0, # of connection points: 2
#     Edge 27, Type (0, 1), BuildingBlock: AJUNOK_clean_linker_0, # of connection points: 2
#     Edge 28, Type (0, 1), BuildingBlock: AJUNOK_clean_linker_0, # of connection points: 2
#     Edge 29, Type (0, 1), BuildingBlock: AJUNOK_clean_linker_0, # of connection points: 2
#     Edge 30, Type (0, 1), BuildingBlock: AJUNOK_clean_linker_0, # of connection points: 2
#     Edge 31, Type (0, 1), BuildingBlock: AJUNOK_clean_linker_0, # of connection points: 2
#     Edge 32, Type (0, 1), BuildingBlock: AJUNOK_clean_linker_0, # of connection points: 2
#     Edge 33, Type (0, 1), BuildingBlock: AJUNOK_clean_linker_0, # of connection points: 2
#     Edge 34, Type (0, 1), BuildingBlock: AJUNOK_clean_linker_0, # of connection points: 2
#     Edge 35, Type (0, 1), BuildingBlock: AJUNOK_clean_linker_0, # of connection points: 2
# Relax obj value: 0.157
# Max RMSD: 0.227
# Mean RMSD: 0.145
data_MOF--net-nom--node1-KUFVIS_clean_sbu_0--node2-AZAVOO_clean_linker_0--edge1-AJUNOK_clean_linker_0
_symmetry_space_group_name_H-M    P1
_symmetry_Int_Tables_number       1
_symmetry_cell_setting            triclinic
loop_
_symmetry_equiv_pos_as_xyz
'x, y, z'
_cell_length_a     37.217704
_cell_length_b     39.106238
_cell_length_c     46.365686
_cell_angle_alpha  90.817244
_cell_angle_beta   90.738768
_cell_angle_gamma 121.56369
loop_
_atom_site_label
_atom_site_type_symbol
_atom_site_fract_x
_atom_site_fract_y
_atom_site_fract_z
_atom_type_partial_charge
H0 H 0.1158 0.50501 0.12136 0.0
H1 H 0.30201 0.67533 0.40765 0.0
H2 H 0.98644 0.43886 0.26779 0.0
H3 H 0.94613 0.4116 0.22235 0.0
H4 H 0.94799 0.52173 0.21055 0.0
H5 H 0.98729 0.54848 0.25655 0.0
H6 H 0.08482 0.48204 0.24517 0.0
H7 H 0.09607 0.47956 0.19338 0.0
H8 H 0.07192 0.57506 0.18022 0.0
H9 H 0.06169 0.57781 0.23201 0.0
H10 H 0.16401 0.53217 0.29268 0.0
H11 H 0.23764 0.57522 0.27804 0.0
H12 H 0.20991 0.66351 0.2488 0.0
H13 H 0.13704 0.62096 0.26384 0.0
H14 H 0.12961 0.51399 0.35114 0.0
H15 H 0.19464 0.54315 0.38051 0.0
H16 H 0.21906 0.66201 0.36419 0.0
H17 H 0.15417 0.63241 0.33457 0.0
H18 H 0.04348 0.48323 0.37335 0.0
H19 H 0.0696 0.4983 0.4234 0.0
H20 H 0.09973 0.62001 0.41499 0.0
H21 H 0.07371 0.605 0.36471 0.0
H22 H 0.95222 0.44735 0.32476 0.0
H23 H 0.88435 0.43291 0.3437 0.0
H24 H 0.9323 0.56016 0.34955 0.0
H25 H 0.99999 0.57417 0.33148 0.0
O26 O 0.11034 0.50587 0.14163 0.0
O27 O 0.08445 0.54513 0.13459 0.0
O28 O 0.2612 0.6012 0.40479 0.0
O29 O 0.2763 0.66306 0.396 0.0
C30 C 0.02643 0.51656 0.28553 0.0
C31 C 0.0669 0.53233 0.2738 0.0
C32 C 0.10298 0.55139 0.29195 0.0
C33 C 0.09883 0.55325 0.32194 0.0
C34 C 0.05867 0.53904 0.33372 0.0
C35 C 0.02226 0.52136 0.31541 0.0
C36 C 0.98947 0.49551 0.26554 0.0
C37 C 0.97622 0.45627 0.25618 0.0
C38 C 0.95382 0.441 0.23007 0.0
C39 C 0.94485 0.46499 0.21291 0.0
C40 C 0.95502 0.50295 0.22342 0.0
C41 C 0.97674 0.51793 0.24984 0.0
C42 C 0.07197 0.52976 0.24223 0.0
C43 C 0.08185 0.50227 0.23101 0.0
C44 C 0.08832 0.50099 0.20147 0.0
C45 C 0.08496 0.52717 0.1827 0.0
C46 C 0.07461 0.5544 0.19406 0.0
C47 C 0.06857 0.55591 0.22361 0.0
C48 C 0.14542 0.57363 0.27937 0.0
C49 C 0.17383 0.56056 0.28273 0.0
C50 C 0.21566 0.58507 0.27444 0.0
C51 C 0.22923 0.62263 0.26247 0.0
C52 C 0.20006 0.63453 0.25777 0.0
C53 C 0.15853 0.61031 0.26631 0.0
C54 C 0.13716 0.57112 0.34096 0.0
C55 C 0.14897 0.54629 0.35409 0.0
C56 C 0.18618 0.56302 0.37073 0.0
C57 C 0.21202 0.60492 0.37474 0.0
C58 C 0.19989 0.62966 0.36158 0.0
C59 C 0.1628 0.61288 0.34476 0.0
C60 C 0.05639 0.54291 0.36542 0.0
C61 C 0.05337 0.51247 0.38275 0.0
C62 C 0.06875 0.5212 0.41124 0.0
C63 C 0.08675 0.56026 0.42286 0.0
C64 C 0.08552 0.58957 0.40653 0.0
C65 C 0.07035 0.58091 0.37793 0.0
C66 C 0.98107 0.51181 0.3269 0.0
C67 C 0.94793 0.472 0.33019 0.0
C68 C 0.90912 0.46384 0.34077 0.0
C69 C 0.90278 0.4954 0.34796 0.0
C70 C 0.9362 0.53517 0.34449 0.0
C71 C 0.97488 0.54325 0.33412 0.0
C72 C 0.09307 0.52662 0.15151 0.0
C73 C 0.25128 0.62278 0.39274 0.0
H74 H 0.58178 0.08281 0.29745 0.0
H75 H 0.54499 0.24801 0.58346 0.0
H76 H 0.53948 0.97256 0.44909 0.0
H77 H 0.53591 0.93651 0.40442 0.0
H78 H 0.41709 0.92485 0.38156 0.0
H79 H 0.42128 0.96151 0.42597 0.0
H80 H 0.57595 0.05353 0.42117 0.0
H81 H 0.58915 0.06516 0.3696 0.0
H82 H 0.46899 0.05618 0.35781 0.0
H83 H 0.45628 0.04461 0.40947 0.0
H84 H 0.60155 0.13154 0.4616 0.0
H85 H 0.63112 0.20094 0.44618 0.0
H86 H 0.50525 0.17826 0.43384 0.0
H87 H 0.47586 0.10899 0.44976 0.0
H88 H 0.59384 0.12405 0.51938 0.0
H89 H 0.61606 0.18646 0.54651 0.0
H90 H 0.48638 0.1559 0.54811 0.0
H91 H 0.46491 0.09447 0.51993 0.0
H92 H 0.56306 0.03407 0.54051 0.0
H93 H 0.58292 0.05738 0.59052 0.0
H94 H 0.46455 0.0507 0.60152 0.0
H95 H 0.44433 0.02652 0.55124 0.0
H96 H 0.51255 0.95871 0.52743 0.0
H97 H 0.47172 0.88925 0.54414 0.0
H98 H 0.36267 0.87073 0.49612 0.0
H99 H 0.40281 0.94028 0.48045 0.0
O100 O 0.57556 0.07734 0.31766 0.0
O101 O 0.51223 0.06961 0.31236 0.0
O102 O 0.60323 0.23721 0.57251 0.0
O103 O 0.53714 0.22329 0.57315 0.0
C104 C 0.49023 0.00271 0.46147 0.0
C105 C 0.50767 0.04165 0.45027 0.0
C106 C 0.51898 0.07462 0.46881 0.0
C107 C 0.51497 0.06923 0.4988 0.0
C108 C 0.49899 0.03062 0.51042 0.0
C109 C 0.48478 0.99668 0.49164 0.0
C110 C 0.48052 0.96944 0.44086 0.0
C111 C 0.51186 0.96077 0.43501 0.0
C112 C 0.51004 0.94064 0.40932 0.0
C113 C 0.47691 0.92907 0.38912 0.0
C114 C 0.44362 0.93449 0.39636 0.0
C115 C 0.44549 0.95465 0.42198 0.0
C116 C 0.51522 0.04829 0.41893 0.0
C117 C 0.55255 0.05405 0.40736 0.0
C118 C 0.55997 0.06068 0.37792 0.0
C119 C 0.53019 0.06175 0.35959 0.0
C120 C 0.49263 0.05565 0.37133 0.0
C121 C 0.48529 0.04908 0.40079 0.0
C122 C 0.53661 0.11541 0.45696 0.0
C123 C 0.5804 0.1415 0.45538 0.0
C124 C 0.59719 0.18103 0.44666 0.0
C125 C 0.5704 0.19491 0.43904 0.0
C126 C 0.52651 0.16821 0.43955 0.0
C127 C 0.50974 0.1288 0.44864 0.0
C128 C 0.52777 0.10472 0.51794 0.0
C129 C 0.5703 0.1308 0.52582 0.0
C130 C 0.58287 0.16641 0.54128 0.0
C131 C 0.55294 0.17606 0.54965 0.0
C132 C 0.51022 0.14936 0.54211 0.0
C133 C 0.49782 0.11414 0.52619 0.0
C134 C 0.50206 0.02819 0.54221 0.0
C135 C 0.5403 0.03535 0.55411 0.0
C136 C 0.55186 0.04915 0.58263 0.0
C137 C 0.52556 0.05642 0.59973 0.0
C138 C 0.48532 0.04519 0.58882 0.0
C139 C 0.47363 0.03115 0.56017 0.0
C140 C 0.46076 0.95497 0.50277 0.0
C141 C 0.47965 0.94001 0.52099 0.0
C142 C 0.45635 0.90028 0.53045 0.0
C143 C 0.41399 0.87464 0.52147 0.0
C144 C 0.39526 0.88974 0.50331 0.0
C145 C 0.41824 0.92947 0.49429 0.0
C146 C 0.53858 0.06968 0.32844 0.0
C147 C 0.56612 0.21402 0.56583 0.0
H148 H 0.55703 0.50928 0.83516 0.0
H149 H 0.57374 0.33124 0.53792 0.0
H150 H 0.55912 0.58803 0.68316 0.0
H151 H 0.55209 0.61181 0.7304 0.0
H152 H 0.42654 0.50747 0.73614 0.0
H153 H 0.43431 0.48343 0.68894 0.0
H154 H 0.58495 0.54095 0.71206 0.0
H155 H 0.58549 0.53737 0.7647 0.0
H156 H 0.4667 0.42387 0.75953 0.0
H157 H 0.46635 0.42814 0.70687 0.0
H158 H 0.60633 0.48674 0.68735 0.0
H159 H 0.62928 0.44107 0.70288 0.0
H160 H 0.51579 0.34075 0.66479 0.0
H161 H 0.49213 0.38606 0.65036 0.0
H162 H 0.61613 0.48961 0.62084 0.0
H163 H 0.64022 0.44976 0.59615 0.0
H164 H 0.51303 0.36758 0.56416 0.0
H165 H 0.48899 0.40651 0.59022 0.0
H166 H 0.59211 0.55836 0.59223 0.0
H167 H 0.61976 0.55798 0.54477 0.0
H168 H 0.49951 0.45446 0.51898 0.0
H169 H 0.47183 0.4551 0.56647 0.0
H170 H 0.52098 0.59227 0.63548 0.0
H171 H 0.4716 0.61354 0.62185 0.0
H172 H 0.38538 0.49508 0.58578 0.0
H173 H 0.43331 0.47351 0.60081 0.0
O174 O 0.55682 0.50952 0.81429 0.0
O175 O 0.49735 0.44986 0.81041 0.0
O176 O 0.6293 0.3893 0.56637 0.0
O177 O 0.56518 0.34794 0.54746 0.0
C178 C 0.50898 0.51242 0.66217 0.0
C179 C 0.52381 0.48867 0.67399 0.0
C180 C 0.53535 0.46727 0.6557 0.0
C181 C 0.53545 0.47202 0.62563 0.0
C182 C 0.52163 0.4965 0.61369 0.0
C183 C 0.50603 0.51505 0.63186 0.0
C184 C 0.49717 0.53411 0.6826 0.0
C185 C 0.52918 0.57149 0.69384 0.0
C186 C 0.52522 0.58488 0.721 0.0
C187 C 0.48895 0.56121 0.7371 0.0
C188 C 0.45502 0.52603 0.72429 0.0
C189 C 0.45907 0.51261 0.69714 0.0
C190 C 0.52551 0.48492 0.70575 0.0
C191 C 0.55918 0.51528 0.72236 0.0
C192 C 0.55939 0.51315 0.75241 0.0
C193 C 0.52608 0.48038 0.76634 0.0
C194 C 0.49283 0.44953 0.74949 0.0
C195 C 0.49258 0.45181 0.71944 0.0
C196 C 0.54751 0.43966 0.6678 0.0
C197 C 0.58601 0.45481 0.68296 0.0
C198 C 0.59921 0.42889 0.69158 0.0
C199 C 0.57441 0.38773 0.68463 0.0
C200 C 0.53553 0.37252 0.67005 0.0
C201 C 0.52199 0.39826 0.66195 0.0
C202 C 0.55094 0.45139 0.6069 0.0
C203 C 0.59363 0.46329 0.60817 0.0
C204 C 0.60725 0.44032 0.5942 0.0
C205 C 0.57855 0.4055 0.5781 0.0
C206 C 0.53599 0.3943 0.57624 0.0
C207 C 0.52226 0.4168 0.59078 0.0
C208 C 0.53 0.50666 0.58288 0.0
C209 C 0.57093 0.53702 0.57581 0.0
C210 C 0.58689 0.53648 0.54884 0.0
C211 C 0.56201 0.50563 0.5286 0.0
C212 C 0.5193 0.47853 0.53428 0.0
C213 C 0.50333 0.47906 0.56134 0.0
C214 C 0.48074 0.53111 0.61945 0.0
C215 C 0.49147 0.57095 0.62459 0.0
C216 C 0.46334 0.58314 0.61666 0.0
C217 C 0.42406 0.55568 0.60343 0.0
C218 C 0.41478 0.51664 0.59672 0.0
C219 C 0.44255 0.50445 0.60486 0.0
C220 C 0.5258 0.47879 0.79831 0.0
C221 C 0.59271 0.38058 0.56364 0.0
H222 H 0.09392 0.51281 0.00287 0.0
H223 H 0.26541 0.56436 0.68629 0.0
H224 H 0.99041 0.5044 0.85888 0.0
H225 H 0.95317 0.48237 0.90432 0.0
H226 H 0.94191 0.36737 0.89253 0.0
H227 H 0.98039 0.39018 0.84747 0.0
H228 H 0.07911 0.54296 0.88132 0.0
H229 H 0.08814 0.54193 0.93366 0.0
H230 H 0.07458 0.42547 0.92464 0.0
H231 H 0.06529 0.42683 0.87236 0.0
H232 H 0.16402 0.57492 0.84318 0.0
H233 H 0.2335 0.59079 0.86161 0.0
H234 H 0.19669 0.46708 0.84705 0.0
H235 H 0.12738 0.45146 0.8293 0.0
H236 H 0.13678 0.5815 0.77628 0.0
H237 H 0.19391 0.61192 0.74171 0.0
H238 H 0.19109 0.50016 0.73441 0.0
H239 H 0.13396 0.47018 0.76895 0.0
H240 H 0.05091 0.54344 0.75011 0.0
H241 H 0.07782 0.56147 0.70123 0.0
H242 H 0.0805 0.45257 0.694 0.0
H243 H 0.05176 0.43408 0.74199 0.0
H244 H 0.95632 0.48223 0.78412 0.0
H245 H 0.88348 0.43325 0.76779 0.0
H246 H 0.9104 0.33848 0.7726 0.0
H247 H 0.98298 0.38761 0.78753 0.0
O248 O 0.09056 0.51273 0.98213 0.0
O249 O 0.08875 0.45534 0.97599 0.0
O250 O 0.24532 0.61084 0.70617 0.0
O251 O 0.24392 0.55355 0.70077 0.0
C252 C 0.02355 0.46737 0.82965 0.0
C253 C 0.06477 0.48529 0.84159 0.0
C254 C 0.09955 0.50199 0.82347 0.0
C255 C 0.09393 0.50429 0.79372 0.0
C256 C 0.05275 0.48621 0.78143 0.0
C257 C 0.01733 0.46606 0.79935 0.0
C258 C 0.98785 0.44882 0.84974 0.0
C259 C 0.97827 0.47384 0.86546 0.0
C260 C 0.95741 0.46135 0.89159 0.0
C261 C 0.94571 0.42356 0.90239 0.0
C262 C 0.95162 0.39708 0.88514 0.0
C263 C 0.9727 0.40969 0.85906 0.0
C264 C 0.07153 0.48498 0.87319 0.0
C265 C 0.07823 0.51734 0.89074 0.0
C266 C 0.08328 0.51661 0.92059 0.0
C267 C 0.08205 0.4836 0.93334 0.0
C268 C 0.07575 0.45137 0.91553 0.0
C269 C 0.07048 0.45206 0.8857 0.0
C270 C 0.14107 0.51214 0.83508 0.0
C271 C 0.17106 0.55137 0.84424 0.0
C272 C 0.21047 0.56028 0.85466 0.0
C273 C 0.22006 0.52997 0.856 0.0
C274 C 0.18971 0.49071 0.84683 0.0
C275 C 0.15042 0.48186 0.83651 0.0
C276 C 0.13129 0.5237 0.775 0.0
C277 C 0.14894 0.56385 0.76743 0.0
C278 C 0.18143 0.58106 0.74762 0.0
C279 C 0.1969 0.55837 0.73515 0.0
C280 C 0.17984 0.51843 0.74349 0.0
C281 C 0.14738 0.50128 0.76332 0.0
C282 C 0.04884 0.48717 0.74957 0.0
C283 C 0.05471 0.52227 0.73721 0.0
C284 C 0.07111 0.53301 0.70952 0.0
C285 C 0.0818 0.50875 0.6937 0.0
C286 C 0.07193 0.47169 0.70514 0.0
C287 C 0.05503 0.46077 0.73262 0.0
C288 C 0.97481 0.43837 0.78677 0.0
C289 C 0.94646 0.45096 0.78113 0.0
C290 C 0.90481 0.42288 0.77222 0.0
C291 C 0.89097 0.38184 0.76925 0.0
C292 C 0.92002 0.36981 0.77442 0.0
C293 C 0.9615 0.39781 0.78298 0.0
C294 C 0.0873 0.48288 0.96507 0.0
C295 C 0.23023 0.576 0.71323 0.0
H296 H 0.42886 0.96909 0.79538 0.0
H297 H 0.43602 0.75557 0.06316 0.0
H298 H 0.49852 0.05941 0.93523 0.0
H299 H 0.52537 0.10117 0.89278 0.0
H300 H 0.64439 0.10819 0.90436 0.0
H301 H 0.61688 0.06547 0.94643 0.0
H302 H 0.43406 0.96398 0.9214 0.0
H303 H 0.41932 0.962 0.86957 0.0
H304 H 0.54849 0.99883 0.85236 0.0
H305 H 0.56252 0.99989 0.9041 0.0
H306 H 0.41311 0.88233 0.96389 0.0
H307 H 0.39335 0.81504 0.94574 0.0
H308 H 0.51776 0.86484 0.91102 0.0
H309 H 0.53736 0.9309 0.92951 0.0
H310 H 0.43403 0.91992 0.02924 0.0
H311 H 0.40361 0.85696 0.05522 0.0
H312 H 0.49857 0.83686 0.02059 0.0
H313 H 0.52889 0.90007 0.99499 0.0
H314 H 0.49438 0.00389 0.05551 0.0
H315 H 0.49862 0.9844 0.10512 0.0
H316 H 0.58831 0.95273 0.07835 0.0
H317 H 0.58404 0.97217 0.02908 0.0
H318 H 0.54088 0.09242 0.99746 0.0
H319 H 0.59829 0.15997 0.01128 0.0
H320 H 0.67814 0.11315 0.0311 0.0
H321 H 0.62204 0.04663 0.0145 0.0
O322 O 0.43518 0.96951 0.81574 0.0
O323 O 0.50219 0.98944 0.80816 0.0
O324 O 0.39822 0.7915 0.06936 0.0
O325 O 0.44763 0.78076 0.05335 0.0
C326 C 0.53493 0.02313 0.96208 0.0
C327 C 0.50858 0.98539 0.94813 0.0
C328 C 0.49282 0.94997 0.96375 0.0
C329 C 0.50085 0.952 0.99374 0.0
C330 C 0.52751 0.98954 0.00786 0.0
C331 C 0.54519 0.02524 0.9919 0.0
C332 C 0.55566 0.05925 0.94386 0.0
C333 C 0.531 0.07142 0.92937 0.0
C334 C 0.54638 0.09521 0.90506 0.0
C335 C 0.58686 0.1076 0.89513 0.0
C336 C 0.61294 0.0987 0.91142 0.0
C337 C 0.59751 0.07481 0.93569 0.0
C338 C 0.49945 0.98259 0.91652 0.0
C339 C 0.45902 0.97138 0.90637 0.0
C340 C 0.45076 0.9704 0.87677 0.0
C341 C 0.48281 0.98051 0.85682 0.0
C342 C 0.52314 0.99105 0.86711 0.0
C343 C 0.53128 0.99182 0.89667 0.0
C344 C 0.4766 0.91137 0.9479 0.0
C345 C 0.43553 0.87868 0.95166 0.0
C346 C 0.42439 0.84047 0.94141 0.0
C347 C 0.45418 0.83499 0.92714 0.0
C348 C 0.49408 0.86837 0.92162 0.0
C349 C 0.50528 0.90615 0.9321 0.0
C350 C 0.48343 0.91435 0.01014 0.0
C351 C 0.44826 0.90192 0.02741 0.0
C352 C 0.43093 0.86593 0.04215 0.0
C353 C 0.44851 0.84174 0.03982 0.0
C354 C 0.48416 0.85467 0.02277 0.0
C355 C 0.50152 0.89071 0.0081 0.0
C356 C 0.53913 0.98974 0.03871 0.0
C357 C 0.51624 0.99435 0.06065 0.0
C358 C 0.5185 0.983 0.08887 0.0
C359 C 0.54338 0.96661 0.09534 0.0
C360 C 0.56866 0.96498 0.07382 0.0
C361 C 0.56656 0.97646 0.04578 0.0
C362 C 0.577 0.06442 0.00535 0.0
C363 C 0.57061 0.09672 0.00519 0.0
C364 C 0.60337 0.13526 0.01334 0.0
C365 C 0.64272 0.14191 0.0226 0.0
C366 C 0.64832 0.10909 0.0239 0.0
C367 C 0.61597 0.07084 0.01499 0.0
C368 C 0.47415 0.98011 0.82544 0.0
C369 C 0.42978 0.80318 0.05506 0.0
H370 H 0.61089 0.48179 0.97133 0.0
H371 H 0.73131 0.48521 0.27855 0.0
H372 H 0.52489 0.55236 0.10766 0.0
H373 H 0.50269 0.56744 0.06231 0.0
H374 H 0.62679 0.67307 0.05436 0.0
H375 H 0.64851 0.65829 0.10052 0.0
H376 H 0.56464 0.4954 0.0891 0.0
H377 H 0.57274 0.4789 0.03945 0.0
H378 H 0.68475 0.59687 0.03257 0.0
H379 H 0.67705 0.61241 0.08258 0.0
H380 H 0.5893 0.46314 0.13891 0.0
H381 H 0.61614 0.42144 0.1208 0.0
H382 H 0.73435 0.52871 0.10133 0.0
H383 H 0.70757 0.57007 0.11968 0.0
H384 H 0.58045 0.47818 0.19452 0.0
H385 H 0.60246 0.44683 0.23026 0.0
H386 H 0.72993 0.54942 0.22852 0.0
H387 H 0.70734 0.5805 0.19292 0.0
H388 H 0.54861 0.52687 0.2123 0.0
H389 H 0.55662 0.50908 0.26085 0.0
H390 H 0.68115 0.61592 0.26787 0.0
H391 H 0.67425 0.63109 0.21808 0.0
H392 H 0.52753 0.592 0.15534 0.0
H393 H 0.51194 0.64323 0.1697 0.0
H394 H 0.63978 0.71856 0.20287 0.0
H395 H 0.65596 0.66877 0.18608 0.0
O396 O 0.6079 0.4892 0.99076 0.0
O397 O 0.66435 0.55075 0.98791 0.0
O398 O 0.65591 0.44454 0.2641 0.0
O399 O 0.72195 0.49656 0.26402 0.0
C400 C 0.60401 0.58868 0.1298 0.0
C401 C 0.61798 0.5631 0.12045 0.0
C402 C 0.63047 0.54473 0.14072 0.0
C403 C 0.62856 0.55117 0.17033 0.0
C404 C 0.61476 0.57684 0.17996 0.0
C405 C 0.60334 0.59654 0.1597 0.0
C406 C 0.58806 0.60458 0.10759 0.0
C407 C 0.54672 0.57972 0.0968 0.0
C408 C 0.53426 0.58813 0.07071 0.0
C409 C 0.56319 0.62118 0.05468 0.0
C410 C 0.604 0.64727 0.06625 0.0
C411 C 0.61623 0.63922 0.09272 0.0
C412 C 0.61995 0.55524 0.08925 0.0
C413 C 0.59061 0.51776 0.07669 0.0
C414 C 0.59547 0.50837 0.04841 0.0
C415 C 0.62945 0.53655 0.03205 0.0
C416 C 0.6582 0.5745 0.04454 0.0
C417 C 0.65365 0.58362 0.07299 0.0
C418 C 0.64675 0.51945 0.13074 0.0
C419 C 0.62111 0.47748 0.13098 0.0
C420 C 0.63632 0.45384 0.12061 0.0
C421 C 0.67716 0.47207 0.10973 0.0
C422 C 0.70261 0.51411 0.10944 0.0
C423 C 0.68755 0.53765 0.12 0.0
C424 C 0.64227 0.53166 0.19136 0.0
C425 C 0.61312 0.49373 0.20186 0.0
C426 C 0.62578 0.47593 0.22226 0.0
C427 C 0.66798 0.49566 0.2323 0.0
C428 C 0.69722 0.53342 0.22128 0.0
C429 C 0.68445 0.55125 0.20096 0.0
C430 C 0.61084 0.5802 0.21151 0.0
C431 C 0.57666 0.5477 0.22488 0.0
C432 C 0.58144 0.53744 0.25282 0.0
C433 C 0.61997 0.5606 0.26821 0.0
C434 C 0.65148 0.5968 0.25633 0.0
C435 C 0.64719 0.60625 0.22805 0.0
C436 C 0.59292 0.62658 0.16959 0.0
C437 C 0.55232 0.61983 0.16529 0.0
C438 C 0.5434 0.64904 0.17376 0.0
C439 C 0.57475 0.68537 0.18714 0.0
C440 C 0.61519 0.6916 0.19187 0.0
C441 C 0.62428 0.66275 0.18283 0.0
C442 C 0.63509 0.5261 0.00226 0.0
C443 C 0.68143 0.47722 0.25437 0.0
Mn444 Mn 0.65362 0.4287 0.40351 0.0
Mn445 Mn 0.71629 0.52755 0.42048 0.0
C446 C 0.6307 0.45843 0.43568 0.0
C447 C 0.63468 0.36237 0.41211 0.0
C448 C 0.66384 0.49583 0.36513 0.0
O449 O 0.7109 0.44295 0.38812 0.0
O450 O 0.75101 0.50691 0.4045 0.0
C451 C 0.76691 0.52264 0.46819 0.0
N452 N 0.74056 0.53443 0.45827 0.0
C453 C 0.74396 0.56592 0.50404 0.0
C454 C 0.77152 0.55449 0.51465 0.0
C455 C 0.78285 0.53257 0.49668 0.0
C456 C 0.72909 0.55517 0.47546 0.0
H457 H 0.77569 0.50578 0.45445 0.0
C458 C 0.74654 0.47553 0.39179 0.0
O459 O 0.62641 0.37246 0.38743 0.0
O460 O 0.65472 0.39098 0.43126 0.0
N461 N 0.68731 0.55167 0.4364 0.0
C462 C 0.65972 0.55966 0.42307 0.0
C463 C 0.64393 0.57999 0.43847 0.0
C464 C 0.6571 0.59241 0.46726 0.0
C465 C 0.6862 0.58463 0.48032 0.0
C466 C 0.70085 0.56425 0.4639 0.0
H467 H 0.64958 0.55033 0.40092 0.0
O468 O 0.60411 0.42425 0.42319 0.0
O469 O 0.67033 0.47345 0.42997 0.0
O470 O 0.64529 0.45841 0.37034 0.0
O471 O 0.69201 0.52361 0.38165 0.0
C472 C 0.70103 0.59607 0.50905 0.0
C473 C 0.72989 0.58673 0.5209 0.0
H474 H 0.78373 0.56194 0.53665 0.0
H475 H 0.80384 0.52336 0.50478 0.0
H476 H 0.6216 0.58601 0.4282 0.0
H477 H 0.64466 0.60788 0.47912 0.0
H478 H 0.69026 0.61186 0.52228 0.0
H479 H 0.74072 0.59531 0.54311 0.0
Mn480 Mn 0.25512 0.63728 0.55657 0.0
Mn481 Mn 0.20861 0.53958 0.53598 0.0
C482 C 0.19969 0.60935 0.52288 0.0
C483 C 0.30748 0.70527 0.55006 0.0
C484 C 0.18791 0.5662 0.59177 0.0
O485 O 0.29835 0.6234 0.57045 0.0
O486 O 0.26318 0.55815 0.55664 0.0
C487 C 0.27171 0.55078 0.49287 0.0
N488 N 0.23088 0.53665 0.49975 0.0
C489 C 0.20646 0.50883 0.45184 0.0
C490 C 0.24822 0.52282 0.44428 0.0
C491 C 0.28099 0.54406 0.46485 0.0
C492 C 0.19918 0.51663 0.48003 0.0
H493 H 0.29697 0.56705 0.50864 0.0
C494 C 0.29483 0.58915 0.5687 0.0
O495 O 0.289 0.69284 0.5746 0.0
O496 O 0.29657 0.67806 0.52994 0.0
N497 N 0.15562 0.51656 0.51559 0.0
C498 C 0.11753 0.50769 0.52569 0.0
C499 C 0.08141 0.48672 0.50775 0.0
C500 C 0.08477 0.47494 0.47966 0.0
C501 C 0.12437 0.48478 0.4696 0.0
C502 C 0.15919 0.50538 0.48858 0.0
H503 H 0.11487 0.51717 0.54708 0.0
O504 O 0.20927 0.64172 0.53741 0.0
O505 O 0.22322 0.59449 0.5281 0.0
O506 O 0.21464 0.60393 0.58934 0.0
O507 O 0.18327 0.54 0.57288 0.0
C508 C 0.1308 0.4755 0.44137 0.0
C509 C 0.17184 0.48777 0.43244 0.0
H510 H 0.2555 0.5177 0.42269 0.0
H511 H 0.31332 0.55516 0.45914 0.0
H512 H 0.05106 0.47975 0.51552 0.0
H513 H 0.05677 0.45869 0.46594 0.0
H514 H 0.10449 0.45938 0.42623 0.0
H515 H 0.17645 0.48099 0.41056 0.0
Mn516 Mn 0.6262 0.21844 0.73068 0.0
Mn517 Mn 0.67029 0.1626 0.72305 0.0
C518 C 0.59264 0.16003 0.70234 0.0
C519 C 0.61836 0.27121 0.7168 0.0
C520 C 0.62877 0.16658 0.77803 0.0
O521 O 0.6875 0.25678 0.74349 0.0
O522 O 0.71546 0.2191 0.73272 0.0
C523 C 0.72172 0.19814 0.67134 0.0
N524 N 0.69012 0.16578 0.68476 0.0
C525 C 0.67832 0.12267 0.64358 0.0
C526 C 0.71107 0.15545 0.62946 0.0
C527 C 0.73276 0.19337 0.64338 0.0
C528 C 0.66897 0.12917 0.67153 0.0
H529 H 0.73829 0.22738 0.68187 0.0
C530 C 0.71889 0.25213 0.74118 0.0
O531 O 0.61052 0.2577 0.74279 0.0
O532 O 0.63154 0.25446 0.69893 0.0
N533 N 0.62947 0.10772 0.71314 0.0
C534 C 0.59779 0.0795 0.72935 0.0
C535 C 0.57202 0.04024 0.7181 0.0
C536 C 0.57919 0.03035 0.6904 0.0
C537 C 0.6121 0.05986 0.67418 0.0
C538 C 0.63678 0.09846 0.68652 0.0
H539 H 0.59207 0.08693 0.75063 0.0
O540 O 0.57121 0.17467 0.71296 0.0
O541 O 0.63266 0.17993 0.70894 0.0
O542 O 0.61519 0.18793 0.76797 0.0
O543 O 0.65049 0.15627 0.76327 0.0
C544 C 0.62109 0.05257 0.64613 0.0
C545 C 0.65426 0.08394 0.63088 0.0
H546 H 0.71947 0.15195 0.60781 0.0
H547 H 0.75782 0.2189 0.63253 0.0
H548 H 0.54663 0.01766 0.73074 0.0
H549 H 0.55912 1.00008 0.68175 0.0
H550 H 0.60249 0.02303 0.636 0.0
H551 H 0.66069 0.07803 0.60925 0.0
Mn552 Mn 0.47634 0.64296 0.90257 0.0
Mn553 Mn 0.44794 0.54913 0.91642 0.0
C554 C 0.5132 0.63214 0.93792 0.0
C555 C 0.46341 0.69418 0.90933 0.0
C556 C 0.48606 0.59115 0.86021 0.0
O557 O 0.41782 0.60778 0.88471 0.0
O558 O 0.39566 0.54897 0.90646 0.0
C559 C 0.3977 0.53085 0.96919 0.0
N560 N 0.43215 0.53553 0.95559 0.0
C561 C 0.45639 0.51911 0.99855 0.0
C562 C 0.42111 0.51401 0.01301 0.0
C563 C 0.39163 0.51989 0.99825 0.0
C564 C 0.46065 0.52985 0.96956 0.0
H565 H 0.37524 0.53577 0.95801 0.0
C566 C 0.3888 0.57253 0.89156 0.0
O567 O 0.48068 0.69126 0.88599 0.0
O568 O 0.45463 0.66777 0.92897 0.0
N569 N 0.49702 0.54751 0.92656 0.0
C570 C 0.5302 0.5552 0.90987 0.0
C571 C 0.56305 0.55175 0.92163 0.0
C572 C 0.56137 0.54025 0.95036 0.0
C573 C 0.5268 0.53225 0.96707 0.0
C574 C 0.49497 0.53617 0.95418 0.0
H575 H 0.53167 0.56389 0.88774 0.0
O576 O 0.53012 0.66714 0.92624 0.0
O577 O 0.47591 0.60551 0.92804 0.0
O578 O 0.50077 0.62653 0.87024 0.0
O579 O 0.46391 0.56003 0.87526 0.0
C580 C 0.52293 0.52106 0.99612 0.0
C581 C 0.4877 0.51432 0.01182 0.0
H582 H 0.4165 0.50587 0.03548 0.0
H583 H 0.36444 0.51624 0.0093 0.0
H584 H 0.58963 0.55793 0.90859 0.0
H585 H 0.58689 0.53787 0.95935 0.0
H586 H 0.54697 0.51775 0.0066 0.0
H587 H 0.48516 0.50572 0.03415 0.0
Mn588 Mn 0.82327 0.38823 0.06272 0.0
Mn589 Mn 0.87665 0.34209 0.07496 0.0
C590 C 0.87811 0.41497 0.0962 0.0
C591 C 0.76892 0.39869 0.07283 0.0
C592 C 0.88488 0.38735 0.02029 0.0
O593 O 0.7829 0.33166 0.0477 0.0
O594 O 0.81953 0.30199 0.05882 0.0
C595 C 0.82595 0.28695 0.12113 0.0
N596 N 0.86323 0.31844 0.11212 0.0
C597 C 0.89611 0.32605 0.15874 0.0
C598 C 0.85814 0.29362 0.16848 0.0
C599 C 0.82293 0.27397 0.14957 0.0
C600 C 0.89741 0.33728 0.13005 0.0
H601 H 0.79869 0.2719 0.10677 0.0
C602 C 0.78653 0.30104 0.04915 0.0
O603 O 0.78675 0.40725 0.0479 0.0
O604 O 0.78189 0.38285 0.09148 0.0
N605 N 0.9316 0.37841 0.09137 0.0
C606 C 0.96549 0.40996 0.07892 0.0
C607 C 0.00308 0.43322 0.09516 0.0
C608 C 0.00533 0.42387 0.12401 0.0
C609 C 0.97003 0.39141 0.13639 0.0
C610 C 0.93358 0.36905 0.11908 0.0
H611 H 0.96374 0.41746 0.05683 0.0
O612 O 0.86765 0.43808 0.0836 0.0
O613 O 0.85742 0.37765 0.08751 0.0
O614 O 0.8606 0.39939 0.02806 0.0
O615 O 0.89318 0.36578 0.03618 0.0
C616 C 0.96944 0.38074 0.16536 0.0
C617 C 0.93252 0.34801 0.1765 0.0
H618 H 0.85555 0.28379 0.19049 0.0
H619 H 0.79344 0.24904 0.15696 0.0
H620 H 0.03018 0.45842 0.08553 0.0
H621 H 0.03418 0.44184 0.13656 0.0
H622 H 0.9971 0.39769 0.1793 0.0
H623 H 0.93237 0.3402 0.19884 0.0
Mn624 Mn 0.46173 0.81565 0.24059 0.0
Mn625 Mn 0.56297 0.88191 0.25988 0.0
C626 C 0.47734 0.86366 0.276 0.0
C627 C 0.3994 0.75411 0.24524 0.0
C628 C 0.52256 0.88758 0.20454 0.0
O629 O 0.49195 0.7889 0.22558 0.0
O630 O 0.55903 0.83415 0.23981 0.0
C631 C 0.57407 0.83332 0.30344 0.0
N632 N 0.57463 0.86731 0.29646 0.0
C633 C 0.59292 0.89288 0.3454 0.0
C634 C 0.59284 0.85829 0.35304 0.0
C635 C 0.58335 0.82838 0.33197 0.0
C636 C 0.58384 0.89633 0.31656 0.0
H637 H 0.56644 0.81007 0.28739 0.0
C638 C 0.53094 0.80065 0.22771 0.0
O639 O 0.408 0.77396 0.22153 0.0
O640 O 0.42747 0.76982 0.26602 0.0
N641 N 0.5706 0.92855 0.27988 0.0
C642 C 0.56677 0.9589 0.2694 0.0
C643 C 0.57393 0.99066 0.28796 0.0
C644 C 0.58492 0.99091 0.31708 0.0
C645 C 0.58891 0.95948 0.32734 0.0
C646 C 0.58183 0.92883 0.30776 0.0
H647 H 0.5578 0.95861 0.24716 0.0
O648 O 0.4419 0.84747 0.26145 0.0
O649 O 0.50282 0.85175 0.26884 0.0
O650 O 0.48636 0.85659 0.20856 0.0
O651 O 0.55373 0.90023 0.2223 0.0
C652 C 0.59876 0.95694 0.35636 0.0
C653 C 0.60073 0.92365 0.36539 0.0
H654 H 0.59962 0.85419 0.37508 0.0
H655 H 0.58298 0.80148 0.33774 0.0
H656 H 0.57052 0.01465 0.27988 0.0
H657 H 0.58986 0.01515 0.33143 0.0
H658 H 0.60427 0.98014 0.372 0.0
H659 H 0.60773 0.92175 0.38785 0.0
C660 C 0.28646 0.67018 0.23044 0.0
C661 C 0.27426 0.65137 0.25715 0.0
C662 C 0.32767 0.70219 0.22639 0.0
C663 C 0.35806 0.71678 0.24902 0.0
H664 H 0.26357 0.66089 0.21283 0.0
H665 H 0.33521 0.71649 0.20567 0.0
S666 S 0.34199 0.67625 0.32288 0.0
N667 N 0.29575 0.64827 0.30624 0.0
N668 N 0.37342 0.7083 0.29877 0.0
C669 C 0.34665 0.69696 0.27551 0.0
C670 C 0.30467 0.66427 0.27955 0.0
C671 C 0.57764 0.2482 0.40573 0.0
C672 C 0.5882 0.23769 0.432 0.0
C673 C 0.5936 0.2886 0.39914 0.0
C674 C 0.62025 0.31997 0.41877 0.0
H675 H 0.55695 0.225 0.39015 0.0
H676 H 0.5844 0.29518 0.3787 0.0
S677 S 0.65586 0.3077 0.49111 0.0
N678 N 0.62609 0.26145 0.47795 0.0
N679 N 0.65593 0.33715 0.46592 0.0
C680 C 0.63092 0.30962 0.44518 0.0
C681 C 0.61494 0.26858 0.45171 0.0
C682 C 0.40244 0.60212 0.58296 0.0
C683 C 0.39187 0.56669 0.59746 0.0
C684 C 0.37127 0.61061 0.5749 0.0
C685 C 0.32854 0.58382 0.58098 0.0
H686 H 0.4347 0.62264 0.57683 0.0
H687 H 0.38038 0.63728 0.56272 0.0
S688 S 0.28542 0.49062 0.62264 0.0
N689 N 0.33631 0.50755 0.62078 0.0
N690 N 0.27804 0.52291 0.60502 0.0
C691 C 0.31803 0.54954 0.59678 0.0
C692 C 0.34958 0.54114 0.60519 0.0
C693 C 0.83808 0.32041 0.7409 0.0
C694 C 0.84645 0.35102 0.76113 0.0
C695 C 0.79685 0.28887 0.73459 0.0
C696 C 0.762 0.2868 0.74789 0.0
H697 H 0.86372 0.32056 0.72998 0.0
H698 H 0.79239 0.2659 0.71912 0.0
S699 S 0.76654 0.35906 0.80279 0.0
N700 N 0.81634 0.37688 0.79491 0.0
N701 N 0.73858 0.31821 0.78231 0.0
C702 C 0.76971 0.31764 0.76773 0.0
C703 C 0.81193 0.34959 0.77448 0.0
C704 C 0.45726 0.78572 0.89443 0.0
C705 C 0.44701 0.7947 0.9214 0.0
C706 C 0.46097 0.75222 0.89046 0.0
C707 C 0.45462 0.72657 0.91336 0.0
H708 H 0.46447 0.80587 0.87666 0.0
H709 H 0.47032 0.74728 0.86954 0.0
S710 S 0.42376 0.73537 0.98766 0.0
N711 N 0.42811 0.77427 0.9709 0.0
N712 N 0.43435 0.71074 0.96342 0.0
C713 C 0.44181 0.73388 0.94 0.0
C714 C 0.43811 0.76809 0.94402 0.0
C715 C 0.71159 0.45462 0.07156 0.0
C716 C 0.69416 0.44777 0.09909 0.0
C717 C 0.73343 0.43638 0.06249 0.0
C718 C 0.73899 0.41104 0.08079 0.0
H719 H 0.70951 0.47528 0.05732 0.0
H720 H 0.74777 0.44385 0.04152 0.0
S721 S 0.69585 0.38081 0.15409 0.0
N722 N 0.68104 0.41196 0.14383 0.0
N723 N 0.72209 0.3774 0.12687 0.0
C724 C 0.71954 0.40216 0.10778 0.0
C725 C 0.6971 0.42062 0.11692 0.0
C726 C 0.37056 0.80139 0.50819 0.0
C727 C 0.38938 0.83169 0.52979 0.0
C728 C 0.34532 0.76076 0.51513 0.0
C729 C 0.33709 0.74858 0.544 0.0
H730 H 0.37526 0.80921 0.48565 0.0
H731 H 0.33127 0.7388 0.49756 0.0
S732 S 0.37955 0.81632 0.60871 0.0
N733 N 0.39899 0.84687 0.58128 0.0
N734 N 0.35082 0.77053 0.59443 0.0
C735 C 0.35614 0.7786 0.56587 0.0
C736 C 0.38248 0.82008 0.55875 0.0
C737 C 0.59364 0.3537 0.72136 0.0
C738 C 0.58899 0.36041 0.69229 0.0
C739 C 0.60403 0.32533 0.72904 0.0
C740 C 0.61071 0.30312 0.70788 0.0
H741 H 0.58799 0.36965 0.73826 0.0
H742 H 0.60631 0.32045 0.75175 0.0
S743 S 0.60547 0.31249 0.62855 0.0
N744 N 0.59377 0.34461 0.64223 0.0
N745 N 0.61399 0.29163 0.65644 0.0
C746 C 0.60767 0.31081 0.67865 0.0
C747 C 0.59656 0.33935 0.67091 0.0
C748 C 0.29809 0.57194 0.85323 0.0
C749 C 0.26242 0.53973 0.86558 0.0
C750 C 0.33862 0.58163 0.86144 0.0
C751 C 0.34514 0.55949 0.88237 0.0
H752 H 0.29464 0.5896 0.83687 0.0
H753 H 0.36505 0.60683 0.85122 0.0
S754 S 0.2615 0.47263 0.92164 0.0
N755 N 0.23558 0.48597 0.90002 0.0
N756 N 0.31197 0.50379 0.91537 0.0
C757 C 0.30953 0.52689 0.89475 0.0
C758 C 0.26814 0.51713 0.88639 0.0
C759 C 0.71913 0.19508 0.01914 0.0
C760 C 0.67875 0.18313 0.02929 0.0
C761 C 0.75391 0.23349 0.02539 0.0
C762 C 0.74935 0.26163 0.0414 0.0
H763 H 0.72396 0.17464 0.00615 0.0
H764 H 0.78452 0.24132 0.0175 0.0
S765 S 0.65147 0.24528 0.0743 0.0
N766 N 0.63702 0.20227 0.05754 0.0
N767 N 0.70218 0.27515 0.06808 0.0
C768 C 0.70932 0.25044 0.05149 0.0
C769 C 0.67404 0.21104 0.0457 0.0
C770 C 0.52623 0.7033 0.21061 0.0
C771 C 0.56465 0.71586 0.19699 0.0
C772 C 0.51571 0.73101 0.22023 0.0
C773 C 0.54341 0.77253 0.21707 0.0
H774 H 0.50419 0.67176 0.21424 0.0
H775 H 0.48582 0.71977 0.2307 0.0
S776 S 0.64666 0.82132 0.18136 0.0
N777 N 0.62948 0.7729 0.17934 0.0
N778 N 0.61022 0.825 0.19859 0.0
C779 C 0.5819 0.7857 0.20354 0.0
C780 C 0.59239 0.75739 0.19324 0.0
C781 C 0.86219 0.51033 0.3834 0.0
C782 C 0.86196 0.48756 0.35954 0.0
C783 C 0.82475 0.50572 0.3938 0.0
C784 C 0.78524 0.47784 0.38099 0.0
H785 H 0.89168 0.53218 0.39411 0.0
H786 H 0.82692 0.52436 0.41205 0.0
S787 S 0.76715 0.41122 0.31756 0.0
N788 N 0.8188 0.43644 0.32303 0.0
N789 N 0.74824 0.4271 0.34297 0.0
C790 C 0.78438 0.45426 0.35742 0.0
C791 C 0.8227 0.45925 0.34663 0.0
C792 C 0.15457 0.5782 0.44689 0.0
C793 C 0.1141 0.57229 0.44906 0.0
C794 C 0.18213 0.59042 0.47088 0.0
C795 C 0.16969 0.59606 0.49811 0.0
H796 H 0.16499 0.57337 0.42644 0.0
H797 H 0.21334 0.59533 0.46813 0.0
S798 S 0.06746 0.58578 0.51501 0.0
N799 N 0.06334 0.57435 0.48017 0.0
N800 N 0.11493 0.59662 0.52569 0.0
C801 C 0.12965 0.59122 0.50047 0.0
C802 C 0.10171 0.57912 0.47588 0.0
C803 C 0.52244 0.0696 0.6529 0.0
C804 C 0.54299 0.08192 0.62638 0.0
C805 C 0.5386 0.09475 0.67777 0.0
C806 C 0.57589 0.13273 0.67679 0.0
H807 H 0.49387 0.04039 0.65442 0.0
H808 H 0.52214 0.08436 0.69785 0.0
S809 S 0.63706 0.18157 0.61174 0.0
N810 N 0.59993 0.13627 0.60025 0.0
N811 N 0.62953 0.18336 0.64658 0.0
C812 C 0.59552 0.14589 0.65021 0.0
C813 C 0.57937 0.12046 0.62513 0.0
C814 C 0.47755 0.53955 0.78828 0.0
C815 C 0.48884 0.57011 0.7683 0.0
C816 C 0.47852 0.54705 0.81797 0.0
C817 C 0.49069 0.58547 0.82899 0.0
H818 H 0.46805 0.5095 0.78091 0.0
H819 H 0.46907 0.52229 0.83235 0.0
S820 S 0.52276 0.67584 0.7854 0.0
N821 N 0.51238 0.64013 0.76134 0.0
N822 N 0.5144 0.65465 0.81713 0.0
C823 C 0.50265 0.61653 0.80915 0.0
C824 C 0.50163 0.60875 0.77886 0.0
C825 C 0.89904 0.4202 0.94218 0.0
C826 C 0.93028 0.41327 0.93236 0.0
C827 C 0.88519 0.41227 0.97064 0.0
C828 C 0.90202 0.39708 0.99063 0.0
H829 H 0.8849 0.4316 0.92767 0.0
H830 H 0.86062 0.41771 0.97684 0.0
S831 S 0.9868 0.37628 0.97608 0.0
N832 N 0.97933 0.39228 0.94514 0.0
N833 N 0.95302 0.37684 0.99851 0.0
C834 C 0.93373 0.39045 0.98112 0.0
C835 C 0.94787 0.39862 0.95207 0.0
C836 C 0.54819 0.96832 0.14964 0.0
C837 C 0.53924 0.94685 0.12324 0.0
C838 C 0.54379 0.94935 0.17607 0.0
C839 C 0.52919 0.90812 0.17687 0.0
H840 H 0.55889 0.99996 0.14981 0.0
H841 H 0.55093 0.9668 0.19594 0.0
S842 S 0.50175 0.83876 0.11393 0.0
N843 N 0.51572 0.88236 0.09966 0.0
N844 N 0.50649 0.84673 0.14921 0.0
C845 C 0.52009 0.88646 0.15068 0.0
C846 C 0.52534 0.90581 0.12389 0.0
C847 C 0.66995 0.54795 0.296 0.0
C848 C 0.63007 0.54402 0.29374 0.0
C849 C 0.68017 0.53109 0.31869 0.0
C850 C 0.65065 0.50882 0.33966 0.0
H851 H 0.69354 0.56385 0.27992 0.0
H852 H 0.71146 0.53556 0.31988 0.0
S853 S 0.54328 0.49153 0.34547 0.0
N854 N 0.56187 0.51793 0.31598 0.0
N855 N 0.58089 0.48492 0.35802 0.0
C856 C 0.61079 0.50443 0.33793 0.0
C857 C 0.60052 0.52227 0.3151 0.0
C858 C 0.48661 0.88263 0.35679 0.0
C859 C 0.47838 0.91371 0.35994 0.0
C860 C 0.48736 0.86735 0.32939 0.0
C861 C 0.48073 0.88312 0.3042 0.0
H862 H 0.49165 0.86948 0.37564 0.0
H863 H 0.49241 0.8425 0.32793 0.0
S864 S 0.46009 0.96579 0.30044 0.0
N865 N 0.46533 0.96087 0.3353 0.0
N866 N 0.46592 0.93135 0.28392 0.0
C867 C 0.47266 0.91418 0.30697 0.0
C868 C 0.47201 0.92988 0.3348 0.0
C869 C 0.56617 0.49204 0.47601 0.0
C870 C 0.58214 0.49722 0.50443 0.0
C871 C 0.58281 0.4804 0.45354 0.0
C872 C 0.61612 0.47401 0.45882 0.0
H873 H 0.54041 0.49657 0.47122 0.0
H874 H 0.56955 0.47631 0.43192 0.0
S875 S 0.66417 0.47722 0.52991 0.0
N876 N 0.63048 0.49149 0.53688 0.0
N877 N 0.66072 0.46867 0.49473 0.0
C878 C 0.6313 0.47773 0.48718 0.0
C879 C 0.61472 0.48983 0.50995 0.0
C880 C 0.14184 0.56314 0.66577 0.0
C881 C 0.10673 0.52357 0.66682 0.0
C882 C 0.16772 0.57682 0.64153 0.0
C883 C 0.1599 0.55141 0.61735 0.0
H884 H 0.15008 0.58352 0.68414 0.0
H885 H 0.19447 0.60738 0.64202 0.0
S886 S 0.07022 0.44549 0.6087 0.0
N887 N 0.06398 0.46001 0.64083 0.0
N888 N 0.1132 0.48445 0.59611 0.0
C889 C 0.12451 0.51176 0.61814 0.0
C890 C 0.09786 0.4982 0.64259 0.0
C891 C 0.61424 0.10787 0.84613 0.0
C892 C 0.59965 0.12504 0.86609 0.0
C893 C 0.62375 0.12161 0.81786 0.0
C894 C 0.6189 0.15302 0.80831 0.0
H895 H 0.61736 0.08286 0.85218 0.0
H896 H 0.63434 0.10695 0.80328 0.0
S897 S 0.58424 0.20985 0.85301 0.0
N898 N 0.58263 0.17624 0.87497 0.0
N899 N 0.60021 0.20217 0.82186 0.0
C900 C 0.60492 0.1709 0.8283 0.0
C901 C 0.59534 0.15688 0.85713 0.0
C902 C 0.57733 0.63092 0.00171 0.0
C903 C 0.55146 0.62642 0.02511 0.0
C904 C 0.56512 0.63291 0.97327 0.0
C905 C 0.52632 0.62958 0.96743 0.0
H906 H 0.60671 0.63197 0.00536 0.0
H907 H 0.58557 0.63611 0.95576 0.0
S908 S 0.45012 0.62305 0.02108 0.0
N909 N 0.48741 0.62274 0.04054 0.0
N910 N 0.46427 0.6258 0.98719 0.0
C911 C 0.50099 0.62653 0.99062 0.0
C912 C 0.51351 0.62492 0.01945 0.0
C913 C 0.95117 0.47393 0.15952 0.0
C914 C 0.92778 0.45157 0.18322 0.0
C915 C 0.93554 0.46154 0.13113 0.0
C916 C 0.89642 0.42615 0.12566 0.0
H917 H 0.98173 0.50109 0.16301 0.0
H918 H 0.95408 0.47964 0.11339 0.0
S919 S 0.82132 0.35977 0.18041 0.0
N920 N 0.86281 0.39405 0.19947 0.0
N921 N 0.83305 0.37104 0.14626 0.0
C922 C 0.87251 0.40405 0.14923 0.0
C923 C 0.88841 0.41659 0.178 0.0
loop_
_geom_bond_atom_site_label_1
_geom_bond_atom_site_label_2
_geom_bond_distance
_geom_bond_site_symmetry_2
_ccdc_geom_bond_type
H0 O26 0.856 . S
H1 O29 0.854 . S
H2 C37 0.930 1_455 S
H3 C38 0.930 . S
H4 C40 0.930 . S
H5 C41 0.930 . S
H6 C43 0.931 . S
H7 C44 0.930 . S
H8 C46 0.930 . S
H9 C47 0.929 . S
H10 C49 0.930 . S
H11 C50 0.931 . S
H12 C52 0.930 . S
H13 C53 0.929 . S
H14 C55 0.931 . S
H15 C56 0.930 . S
H16 C58 0.930 . S
H17 C59 0.932 . S
H18 C61 0.930 . S
H19 C62 0.929 . S
H20 C64 0.931 . S
H21 C65 0.930 . S
H22 C67 0.929 . S
H23 C68 0.931 . S
H24 C70 0.930 . S
H25 C71 0.929 . S
O26 H0 0.856 . S
O26 C72 1.300 . S
O27 C72 1.209 . S
O28 C73 1.199 . S
O29 H1 0.854 . S
O29 C73 1.297 . S
C30 C31 1.404 . S
C30 C35 1.397 . S
C30 C36 1.492 . S
C31 C30 1.404 . S
C31 C32 1.396 . S
C31 C42 1.492 . S
C32 C31 1.396 . S
C32 C33 1.397 . S
C32 C48 1.509 . S
C33 C32 1.397 . S
C33 C34 1.412 . S
C33 C54 1.485 . S
C34 C33 1.412 . S
C34 C35 1.388 . S
C34 C60 1.490 . S
C35 C30 1.397 . S
C35 C34 1.388 . S
C35 C66 1.519 1_455 S
C36 C30 1.492 . S
C36 C37 1.363 1_455 S
C36 C41 1.390 1_455 S
C37 H2 0.930 1_655 S
C37 C36 1.363 1_655 S
C37 C38 1.372 . S
C38 H3 0.930 . S
C38 C37 1.372 . S
C38 C39 1.383 . S
C39 C38 1.383 . S
C39 C40 1.395 . S
C40 H4 0.930 . S
C40 C39 1.395 . S
C40 C41 1.362 . S
C41 H5 0.930 . S
C41 C36 1.390 1_655 S
C41 C40 1.362 . S
C42 C31 1.492 . S
C42 C43 1.377 . S
C42 C47 1.397 . S
C43 H6 0.931 . S
C43 C42 1.377 . S
C43 C44 1.376 . S
C44 H7 0.930 . S
C44 C43 1.376 . S
C44 C45 1.376 . S
C45 C44 1.376 . S
C45 C46 1.378 . S
C45 C72 1.486 . S
C46 H8 0.930 . S
C46 C45 1.378 . S
C46 C47 1.376 . S
C47 H9 0.929 . S
C47 C42 1.397 . S
C47 C46 1.376 . S
C48 C32 1.509 . S
C48 C49 1.391 . S
C48 C53 1.386 . S
C49 H10 0.930 . S
C49 C48 1.391 . S
C49 C50 1.375 . S
C50 H11 0.931 . S
C50 C49 1.375 . S
C50 C51 1.375 . S
C51 C50 1.375 . S
C51 C52 1.361 . S
C52 H12 0.930 . S
C52 C51 1.361 . S
C52 C53 1.399 . S
C53 H13 0.929 . S
C53 C48 1.386 . S
C53 C52 1.399 . S
C54 C33 1.485 . S
C54 C55 1.394 . S
C54 C59 1.360 . S
C55 H14 0.931 . S
C55 C54 1.394 . S
C55 C56 1.372 . S
C56 H15 0.930 . S
C56 C55 1.372 . S
C56 C57 1.397 . S
C57 C56 1.397 . S
C57 C58 1.390 . S
C57 C73 1.476 . S
C58 H16 0.930 . S
C58 C57 1.390 . S
C58 C59 1.366 . S
C59 H17 0.932 . S
C59 C54 1.360 . S
C59 C58 1.366 . S
C60 C34 1.490 . S
C60 C61 1.380 . S
C60 C65 1.386 . S
C61 H18 0.930 . S
C61 C60 1.380 . S
C61 C62 1.381 . S
C62 H19 0.929 . S
C62 C61 1.381 . S
C62 C63 1.371 . S
C63 C62 1.371 . S
C63 C64 1.380 . S
C64 H20 0.931 . S
C64 C63 1.380 . S
C64 C65 1.387 . S
C65 H21 0.930 . S
C65 C60 1.386 . S
C65 C64 1.387 . S
C66 C35 1.519 1_655 S
C66 C67 1.377 . S
C66 C71 1.361 . S
C67 H22 0.929 . S
C67 C66 1.377 . S
C67 C68 1.386 . S
C68 H23 0.931 . S
C68 C67 1.386 . S
C68 C69 1.363 . S
C69 C68 1.363 . S
C69 C70 1.385 . S
C70 H24 0.930 . S
C70 C69 1.385 . S
C70 C71 1.396 . S
C71 H25 0.929 . S
C71 C66 1.361 . S
C71 C70 1.396 . S
C72 O26 1.300 . S
C72 O27 1.209 . S
C72 C45 1.486 . S
C73 O28 1.199 . S
C73 O29 1.297 . S
C73 C57 1.476 . S
H74 O100 0.856 . S
H75 O103 0.854 . S
H76 C111 0.930 1_545 S
H77 C112 0.930 . S
H78 C114 0.930 . S
H79 C115 0.930 . S
H80 C117 0.931 . S
H81 C118 0.930 . S
H82 C120 0.930 . S
H83 C121 0.929 . S
H84 C123 0.930 . S
H85 C124 0.931 . S
H86 C126 0.930 . S
H87 C127 0.929 . S
H88 C129 0.931 . S
H89 C130 0.930 . S
H90 C132 0.930 . S
H91 C133 0.932 . S
H92 C135 0.930 . S
H93 C136 0.929 . S
H94 C138 0.931 . S
H95 C139 0.930 . S
H96 C141 0.929 . S
H97 C142 0.931 . S
H98 C144 0.930 . S
H99 C145 0.929 . S
O100 H74 0.856 . S
O100 C146 1.300 . S
O101 C146 1.209 . S
O102 C147 1.199 . S
O103 H75 0.854 . S
O103 C147 1.297 . S
C104 C105 1.404 . S
C104 C109 1.397 . S
C104 C110 1.492 1_545 S
C105 C104 1.404 . S
C105 C106 1.396 . S
C105 C116 1.492 . S
C106 C105 1.396 . S
C106 C107 1.397 . S
C106 C122 1.509 . S
C107 C106 1.397 . S
C107 C108 1.412 . S
C107 C128 1.485 . S
C108 C107 1.412 . S
C108 C109 1.388 . S
C108 C134 1.490 . S
C109 C104 1.397 . S
C109 C108 1.388 . S
C109 C140 1.519 1_545 S
C110 C104 1.492 1_565 S
C110 C111 1.363 . S
C110 C115 1.390 . S
C111 H76 0.930 1_565 S
C111 C110 1.363 . S
C111 C112 1.372 . S
C112 H77 0.930 . S
C112 C111 1.372 . S
C112 C113 1.383 . S
C113 C112 1.383 . S
C113 C114 1.395 . S
C114 H78 0.930 . S
C114 C113 1.395 . S
C114 C115 1.362 . S
C115 H79 0.930 . S
C115 C110 1.390 . S
C115 C114 1.362 . S
C116 C105 1.492 . S
C116 C117 1.377 . S
C116 C121 1.397 . S
C117 H80 0.931 . S
C117 C116 1.377 . S
C117 C118 1.376 . S
C118 H81 0.930 . S
C118 C117 1.376 . S
C118 C119 1.376 . S
C119 C118 1.376 . S
C119 C120 1.378 . S
C119 C146 1.486 . S
C120 H82 0.930 . S
C120 C119 1.378 . S
C120 C121 1.376 . S
C121 H83 0.929 . S
C121 C116 1.397 . S
C121 C120 1.376 . S
C122 C106 1.509 . S
C122 C123 1.391 . S
C122 C127 1.386 . S
C123 H84 0.930 . S
C123 C122 1.391 . S
C123 C124 1.375 . S
C124 H85 0.931 . S
C124 C123 1.375 . S
C124 C125 1.375 . S
C125 C124 1.375 . S
C125 C126 1.361 . S
C126 H86 0.930 . S
C126 C125 1.361 . S
C126 C127 1.399 . S
C127 H87 0.929 . S
C127 C122 1.386 . S
C127 C126 1.399 . S
C128 C107 1.485 . S
C128 C129 1.394 . S
C128 C133 1.360 . S
C129 H88 0.931 . S
C129 C128 1.394 . S
C129 C130 1.372 . S
C130 H89 0.930 . S
C130 C129 1.372 . S
C130 C131 1.397 . S
C131 C130 1.397 . S
C131 C132 1.390 . S
C131 C147 1.476 . S
C132 H90 0.930 . S
C132 C131 1.390 . S
C132 C133 1.366 . S
C133 H91 0.932 . S
C133 C128 1.360 . S
C133 C132 1.366 . S
C134 C108 1.490 . S
C134 C135 1.380 . S
C134 C139 1.386 . S
C135 H92 0.930 . S
C135 C134 1.380 . S
C135 C136 1.381 . S
C136 H93 0.929 . S
C136 C135 1.381 . S
C136 C137 1.371 . S
C137 C136 1.371 . S
C137 C138 1.380 . S
C138 H94 0.931 . S
C138 C137 1.380 . S
C138 C139 1.387 . S
C139 H95 0.930 . S
C139 C134 1.386 . S
C139 C138 1.387 . S
C140 C109 1.519 1_565 S
C140 C141 1.377 . S
C140 C145 1.361 . S
C141 H96 0.929 . S
C141 C140 1.377 . S
C141 C142 1.386 . S
C142 H97 0.931 . S
C142 C141 1.386 . S
C142 C143 1.363 . S
C143 C142 1.363 . S
C143 C144 1.385 . S
C144 H98 0.930 . S
C144 C143 1.385 . S
C144 C145 1.396 . S
C145 H99 0.929 . S
C145 C140 1.361 . S
C145 C144 1.396 . S
C146 O100 1.300 . S
C146 O101 1.209 . S
C146 C119 1.486 . S
C147 O102 1.199 . S
C147 O103 1.297 . S
C147 C131 1.476 . S
H148 O174 0.856 . S
H149 O177 0.854 . S
H150 C185 0.930 . S
H151 C186 0.930 . S
H152 C188 0.930 . S
H153 C189 0.930 . S
H154 C191 0.931 . S
H155 C192 0.930 . S
H156 C194 0.930 . S
H157 C195 0.929 . S
H158 C197 0.930 . S
H159 C198 0.931 . S
H160 C200 0.930 . S
H161 C201 0.929 . S
H162 C203 0.931 . S
H163 C204 0.930 . S
H164 C206 0.930 . S
H165 C207 0.932 . S
H166 C209 0.930 . S
H167 C210 0.929 . S
H168 C212 0.931 . S
H169 C213 0.930 . S
H170 C215 0.929 . S
H171 C216 0.931 . S
H172 C218 0.930 . S
H173 C219 0.929 . S
O174 H148 0.856 . S
O174 C220 1.300 . S
O175 C220 1.209 . S
O176 C221 1.199 . S
O177 H149 0.854 . S
O177 C221 1.297 . S
C178 C179 1.404 . S
C178 C183 1.397 . S
C178 C184 1.492 . S
C179 C178 1.404 . S
C179 C180 1.396 . S
C179 C190 1.492 . S
C180 C179 1.396 . S
C180 C181 1.397 . S
C180 C196 1.509 . S
C181 C180 1.397 . S
C181 C182 1.412 . S
C181 C202 1.485 . S
C182 C181 1.412 . S
C182 C183 1.388 . S
C182 C208 1.490 . S
C183 C178 1.397 . S
C183 C182 1.388 . S
C183 C214 1.519 . S
C184 C178 1.492 . S
C184 C185 1.363 . S
C184 C189 1.390 . S
C185 H150 0.930 . S
C185 C184 1.363 . S
C185 C186 1.372 . S
C186 H151 0.930 . S
C186 C185 1.372 . S
C186 C187 1.383 . S
C187 C186 1.383 . S
C187 C188 1.395 . S
C188 H152 0.930 . S
C188 C187 1.395 . S
C188 C189 1.362 . S
C189 H153 0.930 . S
C189 C184 1.390 . S
C189 C188 1.362 . S
C190 C179 1.492 . S
C190 C191 1.377 . S
C190 C195 1.397 . S
C191 H154 0.931 . S
C191 C190 1.377 . S
C191 C192 1.376 . S
C192 H155 0.930 . S
C192 C191 1.376 . S
C192 C193 1.376 . S
C193 C192 1.376 . S
C193 C194 1.378 . S
C193 C220 1.486 . S
C194 H156 0.930 . S
C194 C193 1.378 . S
C194 C195 1.376 . S
C195 H157 0.929 . S
C195 C190 1.397 . S
C195 C194 1.376 . S
C196 C180 1.509 . S
C196 C197 1.391 . S
C196 C201 1.386 . S
C197 H158 0.930 . S
C197 C196 1.391 . S
C197 C198 1.375 . S
C198 H159 0.931 . S
C198 C197 1.375 . S
C198 C199 1.375 . S
C199 C198 1.375 . S
C199 C200 1.361 . S
C200 H160 0.930 . S
C200 C199 1.361 . S
C200 C201 1.399 . S
C201 H161 0.929 . S
C201 C196 1.386 . S
C201 C200 1.399 . S
C202 C181 1.485 . S
C202 C203 1.394 . S
C202 C207 1.360 . S
C203 H162 0.931 . S
C203 C202 1.394 . S
C203 C204 1.372 . S
C204 H163 0.930 . S
C204 C203 1.372 . S
C204 C205 1.397 . S
C205 C204 1.397 . S
C205 C206 1.390 . S
C205 C221 1.476 . S
C206 H164 0.930 . S
C206 C205 1.390 . S
C206 C207 1.366 . S
C207 H165 0.932 . S
C207 C202 1.360 . S
C207 C206 1.366 . S
C208 C182 1.490 . S
C208 C209 1.380 . S
C208 C213 1.386 . S
C209 H166 0.930 . S
C209 C208 1.380 . S
C209 C210 1.381 . S
C210 H167 0.929 . S
C210 C209 1.381 . S
C210 C211 1.371 . S
C211 C210 1.371 . S
C211 C212 1.380 . S
C212 H168 0.931 . S
C212 C211 1.380 . S
C212 C213 1.387 . S
C213 H169 0.930 . S
C213 C208 1.386 . S
C213 C212 1.387 . S
C214 C183 1.519 . S
C214 C215 1.377 . S
C214 C219 1.361 . S
C215 H170 0.929 . S
C215 C214 1.377 . S
C215 C216 1.386 . S
C216 H171 0.931 . S
C216 C215 1.386 . S
C216 C217 1.363 . S
C217 C216 1.363 . S
C217 C218 1.385 . S
C218 H172 0.930 . S
C218 C217 1.385 . S
C218 C219 1.396 . S
C219 H173 0.929 . S
C219 C214 1.361 . S
C219 C218 1.396 . S
C220 O174 1.300 . S
C220 O175 1.209 . S
C220 C193 1.486 . S
C221 O176 1.199 . S
C221 O177 1.297 . S
C221 C205 1.476 . S
H222 O248 0.856 1_554 S
H223 O251 0.854 . S
H224 C259 0.930 1_455 S
H225 C260 0.930 . S
H226 C262 0.930 . S
H227 C263 0.930 . S
H228 C265 0.931 . S
H229 C266 0.930 . S
H230 C268 0.930 . S
H231 C269 0.929 . S
H232 C271 0.930 . S
H233 C272 0.931 . S
H234 C274 0.930 . S
H235 C275 0.929 . S
H236 C277 0.931 . S
H237 C278 0.930 . S
H238 C280 0.930 . S
H239 C281 0.932 . S
H240 C283 0.930 . S
H241 C284 0.929 . S
H242 C286 0.931 . S
H243 C287 0.930 . S
H244 C289 0.929 . S
H245 C290 0.931 . S
H246 C292 0.930 . S
H247 C293 0.929 . S
O248 H222 0.856 1_556 S
O248 C294 1.300 . S
O249 C294 1.209 . S
O250 C295 1.199 . S
O251 H223 0.854 . S
O251 C295 1.297 . S
C252 C253 1.404 . S
C252 C257 1.397 . S
C252 C258 1.492 . S
C253 C252 1.404 . S
C253 C254 1.396 . S
C253 C264 1.492 . S
C254 C253 1.396 . S
C254 C255 1.397 . S
C254 C270 1.509 . S
C255 C254 1.397 . S
C255 C256 1.412 . S
C255 C276 1.485 . S
C256 C255 1.412 . S
C256 C257 1.388 . S
C256 C282 1.490 . S
C257 C252 1.397 . S
C257 C256 1.388 . S
C257 C288 1.519 1_455 S
C258 C252 1.492 . S
C258 C259 1.363 1_455 S
C258 C263 1.390 1_455 S
C259 H224 0.930 1_655 S
C259 C258 1.363 1_655 S
C259 C260 1.372 . S
C260 H225 0.930 . S
C260 C259 1.372 . S
C260 C261 1.383 . S
C261 C260 1.383 . S
C261 C262 1.395 . S
C262 H226 0.930 . S
C262 C261 1.395 . S
C262 C263 1.362 . S
C263 H227 0.930 . S
C263 C258 1.390 1_655 S
C263 C262 1.362 . S
C264 C253 1.492 . S
C264 C265 1.377 . S
C264 C269 1.397 . S
C265 H228 0.931 . S
C265 C264 1.377 . S
C265 C266 1.376 . S
C266 H229 0.930 . S
C266 C265 1.376 . S
C266 C267 1.376 . S
C267 C266 1.376 . S
C267 C268 1.378 . S
C267 C294 1.486 . S
C268 H230 0.930 . S
C268 C267 1.378 . S
C268 C269 1.376 . S
C269 H231 0.929 . S
C269 C264 1.397 . S
C269 C268 1.376 . S
C270 C254 1.509 . S
C270 C271 1.391 . S
C270 C275 1.386 . S
C271 H232 0.930 . S
C271 C270 1.391 . S
C271 C272 1.375 . S
C272 H233 0.931 . S
C272 C271 1.375 . S
C272 C273 1.375 . S
C273 C272 1.375 . S
C273 C274 1.361 . S
C274 H234 0.930 . S
C274 C273 1.361 . S
C274 C275 1.399 . S
C275 H235 0.929 . S
C275 C270 1.386 . S
C275 C274 1.399 . S
C276 C255 1.485 . S
C276 C277 1.394 . S
C276 C281 1.360 . S
C277 H236 0.931 . S
C277 C276 1.394 . S
C277 C278 1.372 . S
C278 H237 0.930 . S
C278 C277 1.372 . S
C278 C279 1.397 . S
C279 C278 1.397 . S
C279 C280 1.390 . S
C279 C295 1.476 . S
C280 H238 0.930 . S
C280 C279 1.390 . S
C280 C281 1.366 . S
C281 H239 0.932 . S
C281 C276 1.360 . S
C281 C280 1.366 . S
C282 C256 1.490 . S
C282 C283 1.380 . S
C282 C287 1.386 . S
C283 H240 0.930 . S
C283 C282 1.380 . S
C283 C284 1.381 . S
C284 H241 0.929 . S
C284 C283 1.381 . S
C284 C285 1.371 . S
C285 C284 1.371 . S
C285 C286 1.380 . S
C286 H242 0.931 . S
C286 C285 1.380 . S
C286 C287 1.387 . S
C287 H243 0.930 . S
C287 C282 1.386 . S
C287 C286 1.387 . S
C288 C257 1.519 1_655 S
C288 C289 1.377 . S
C288 C293 1.361 . S
C289 H244 0.929 . S
C289 C288 1.377 . S
C289 C290 1.386 . S
C290 H245 0.931 . S
C290 C289 1.386 . S
C290 C291 1.363 . S
C291 C290 1.363 . S
C291 C292 1.385 . S
C292 H246 0.930 . S
C292 C291 1.385 . S
C292 C293 1.396 . S
C293 H247 0.929 . S
C293 C288 1.361 . S
C293 C292 1.396 . S
C294 O248 1.300 . S
C294 O249 1.209 . S
C294 C267 1.486 . S
C295 O250 1.199 . S
C295 O251 1.297 . S
C295 C279 1.476 . S
H296 O322 0.856 . S
H297 O325 0.854 . S
H298 C333 0.930 . S
H299 C334 0.930 . S
H300 C336 0.930 . S
H301 C337 0.930 . S
H302 C339 0.931 . S
H303 C340 0.930 . S
H304 C342 0.930 . S
H305 C343 0.929 . S
H306 C345 0.930 . S
H307 C346 0.931 . S
H308 C348 0.930 . S
H309 C349 0.929 . S
H310 C351 0.931 . S
H311 C352 0.930 . S
H312 C354 0.930 . S
H313 C355 0.932 . S
H314 C357 0.930 1_545 S
H315 C358 0.929 . S
H316 C360 0.931 . S
H317 C361 0.930 . S
H318 C363 0.929 1_556 S
H319 C364 0.931 . S
H320 C366 0.930 . S
H321 C367 0.929 . S
O322 H296 0.856 . S
O322 C368 1.300 . S
O323 C368 1.209 . S
O324 C369 1.199 . S
O325 H297 0.854 . S
O325 C369 1.297 . S
C326 C327 1.404 1_545 S
C326 C331 1.397 . S
C326 C332 1.492 . S
C327 C326 1.404 1_565 S
C327 C328 1.396 . S
C327 C338 1.492 . S
C328 C327 1.396 . S
C328 C329 1.397 . S
C328 C344 1.509 . S
C329 C328 1.397 . S
C329 C330 1.412 1_556 S
C329 C350 1.485 1_556 S
C330 C329 1.412 1_554 S
C330 C331 1.388 1_564 S
C330 C356 1.490 . S
C331 C326 1.397 . S
C331 C330 1.388 1_546 S
C331 C362 1.519 1_556 S
C332 C326 1.492 . S
C332 C333 1.363 . S
C332 C337 1.390 . S
C333 H298 0.930 . S
C333 C332 1.363 . S
C333 C334 1.372 . S
C334 H299 0.930 . S
C334 C333 1.372 . S
C334 C335 1.383 . S
C335 C334 1.383 . S
C335 C336 1.395 . S
C336 H300 0.930 . S
C336 C335 1.395 . S
C336 C337 1.362 . S
C337 H301 0.930 . S
C337 C332 1.390 . S
C337 C336 1.362 . S
C338 C327 1.492 . S
C338 C339 1.377 . S
C338 C343 1.397 . S
C339 H302 0.931 . S
C339 C338 1.377 . S
C339 C340 1.376 . S
C340 H303 0.930 . S
C340 C339 1.376 . S
C340 C341 1.376 . S
C341 C340 1.376 . S
C341 C342 1.378 . S
C341 C368 1.486 . S
C342 H304 0.930 . S
C342 C341 1.378 . S
C342 C343 1.376 . S
C343 H305 0.929 . S
C343 C338 1.397 . S
C343 C342 1.376 . S
C344 C328 1.509 . S
C344 C345 1.391 . S
C344 C349 1.386 . S
C345 H306 0.930 . S
C345 C344 1.391 . S
C345 C346 1.375 . S
C346 H307 0.931 . S
C346 C345 1.375 . S
C346 C347 1.375 . S
C347 C346 1.375 . S
C347 C348 1.361 . S
C348 H308 0.930 . S
C348 C347 1.361 . S
C348 C349 1.399 . S
C349 H309 0.929 . S
C349 C344 1.386 . S
C349 C348 1.399 . S
C350 C329 1.485 1_554 S
C350 C351 1.394 . S
C350 C355 1.360 . S
C351 H310 0.931 . S
C351 C350 1.394 . S
C351 C352 1.372 . S
C352 H311 0.930 . S
C352 C351 1.372 . S
C352 C353 1.397 . S
C353 C352 1.397 . S
C353 C354 1.390 . S
C353 C369 1.476 . S
C354 H312 0.930 . S
C354 C353 1.390 . S
C354 C355 1.366 . S
C355 H313 0.932 . S
C355 C350 1.360 . S
C355 C354 1.366 . S
C356 C330 1.490 . S
C356 C357 1.380 . S
C356 C361 1.386 . S
C357 H314 0.930 1_565 S
C357 C356 1.380 . S
C357 C358 1.381 1_565 S
C358 H315 0.929 . S
C358 C357 1.381 1_545 S
C358 C359 1.371 1_545 S
C359 C358 1.371 1_565 S
C359 C360 1.380 . S
C360 H316 0.931 . S
C360 C359 1.380 . S
C360 C361 1.387 . S
C361 H317 0.930 . S
C361 C356 1.386 . S
C361 C360 1.387 . S
C362 C331 1.519 1_554 S
C362 C363 1.377 . S
C362 C367 1.361 . S
C363 H318 0.929 1_554 S
C363 C362 1.377 . S
C363 C364 1.386 . S
C364 H319 0.931 . S
C364 C363 1.386 . S
C364 C365 1.363 . S
C365 C364 1.363 . S
C365 C366 1.385 . S
C366 H320 0.930 . S
C366 C365 1.385 . S
C366 C367 1.396 . S
C367 H321 0.929 . S
C367 C362 1.361 . S
C367 C366 1.396 . S
C368 O322 1.300 . S
C368 O323 1.209 . S
C368 C341 1.486 . S
C369 O324 1.199 . S
C369 O325 1.297 . S
C369 C353 1.476 . S
H370 O396 0.856 . S
H371 O399 0.854 . S
H372 C407 0.930 . S
H373 C408 0.930 . S
H374 C410 0.930 . S
H375 C411 0.930 . S
H376 C413 0.931 . S
H377 C414 0.930 . S
H378 C416 0.930 . S
H379 C417 0.929 . S
H380 C419 0.930 . S
H381 C420 0.931 . S
H382 C422 0.930 . S
H383 C423 0.929 . S
H384 C425 0.931 . S
H385 C426 0.930 . S
H386 C428 0.930 . S
H387 C429 0.932 . S
H388 C431 0.930 . S
H389 C432 0.929 . S
H390 C434 0.931 . S
H391 C435 0.930 . S
H392 C437 0.929 . S
H393 C438 0.931 . S
H394 C440 0.930 . S
H395 C441 0.929 . S
O396 H370 0.856 . S
O396 C442 1.300 . S
O397 C442 1.209 . S
O398 C443 1.199 . S
O399 H371 0.854 . S
O399 C443 1.297 . S
C400 C401 1.404 . S
C400 C405 1.397 . S
C400 C406 1.492 . S
C401 C400 1.404 . S
C401 C402 1.396 . S
C401 C412 1.492 . S
C402 C401 1.396 . S
C402 C403 1.397 . S
C402 C418 1.509 . S
C403 C402 1.397 . S
C403 C404 1.412 . S
C403 C424 1.485 . S
C404 C403 1.412 . S
C404 C405 1.388 . S
C404 C430 1.490 . S
C405 C400 1.397 . S
C405 C404 1.388 . S
C405 C436 1.519 . S
C406 C400 1.492 . S
C406 C407 1.363 . S
C406 C411 1.390 . S
C407 H372 0.930 . S
C407 C406 1.363 . S
C407 C408 1.372 . S
C408 H373 0.930 . S
C408 C407 1.372 . S
C408 C409 1.383 . S
C409 C408 1.383 . S
C409 C410 1.395 . S
C410 H374 0.930 . S
C410 C409 1.395 . S
C410 C411 1.362 . S
C411 H375 0.930 . S
C411 C406 1.390 . S
C411 C410 1.362 . S
C412 C401 1.492 . S
C412 C413 1.377 . S
C412 C417 1.397 . S
C413 H376 0.931 . S
C413 C412 1.377 . S
C413 C414 1.376 . S
C414 H377 0.930 . S
C414 C413 1.376 . S
C414 C415 1.376 . S
C415 C414 1.376 . S
C415 C416 1.378 . S
C415 C442 1.486 1_554 S
C416 H378 0.930 . S
C416 C415 1.378 . S
C416 C417 1.376 . S
C417 H379 0.929 . S
C417 C412 1.397 . S
C417 C416 1.376 . S
C418 C402 1.509 . S
C418 C419 1.391 . S
C418 C423 1.386 . S
C419 H380 0.930 . S
C419 C418 1.391 . S
C419 C420 1.375 . S
C420 H381 0.931 . S
C420 C419 1.375 . S
C420 C421 1.375 . S
C421 C420 1.375 . S
C421 C422 1.361 . S
C422 H382 0.930 . S
C422 C421 1.361 . S
C422 C423 1.399 . S
C423 H383 0.929 . S
C423 C418 1.386 . S
C423 C422 1.399 . S
C424 C403 1.485 . S
C424 C425 1.394 . S
C424 C429 1.360 . S
C425 H384 0.931 . S
C425 C424 1.394 . S
C425 C426 1.372 . S
C426 H385 0.930 . S
C426 C425 1.372 . S
C426 C427 1.397 . S
C427 C426 1.397 . S
C427 C428 1.390 . S
C427 C443 1.476 . S
C428 H386 0.930 . S
C428 C427 1.390 . S
C428 C429 1.366 . S
C429 H387 0.932 . S
C429 C424 1.360 . S
C429 C428 1.366 . S
C430 C404 1.490 . S
C430 C431 1.380 . S
C430 C435 1.386 . S
C431 H388 0.930 . S
C431 C430 1.380 . S
C431 C432 1.381 . S
C432 H389 0.929 . S
C432 C431 1.381 . S
C432 C433 1.371 . S
C433 C432 1.371 . S
C433 C434 1.380 . S
C434 H390 0.931 . S
C434 C433 1.380 . S
C434 C435 1.387 . S
C435 H391 0.930 . S
C435 C430 1.386 . S
C435 C434 1.387 . S
C436 C405 1.519 . S
C436 C437 1.377 . S
C436 C441 1.361 . S
C437 H392 0.929 . S
C437 C436 1.377 . S
C437 C438 1.386 . S
C438 H393 0.931 . S
C438 C437 1.386 . S
C438 C439 1.363 . S
C439 C438 1.363 . S
C439 C440 1.385 . S
C440 H394 0.930 . S
C440 C439 1.385 . S
C440 C441 1.396 . S
C441 H395 0.929 . S
C441 C436 1.361 . S
C441 C440 1.396 . S
C442 O396 1.300 . S
C442 O397 1.209 . S
C442 C415 1.486 1_556 S
C443 O398 1.199 . S
C443 O399 1.297 . S
C443 C427 1.476 . S
Mn444 O449 2.095 . S
Mn444 O459 2.162 . S
Mn444 O460 2.297 . S
Mn444 O468 2.385 . S
Mn444 O469 2.209 . S
Mn444 O470 2.094 . S
Mn445 O450 2.121 . S
Mn445 N452 2.257 . S
Mn445 N461 2.282 . S
Mn445 O469 2.215 . S
Mn445 O471 2.117 . S
C446 O468 1.234 . S
C446 O469 1.283 . S
C447 O459 1.281 . S
C447 O460 1.236 . S
C448 O470 1.240 . S
C448 O471 1.264 . S
O449 Mn444 2.095 . S
O449 C458 1.250 . S
O450 Mn445 2.121 . S
O450 C458 1.258 . S
C451 N452 1.326 . S
C451 C455 1.460 . S
C451 H457 0.929 . S
N452 Mn445 2.257 . S
N452 C451 1.326 . S
N452 C456 1.362 . S
C453 C454 1.258 . S
C453 C456 1.431 . S
C453 C473 1.449 . S
C454 C453 1.258 . S
C454 C455 1.477 . S
C454 H474 0.931 . S
C455 C451 1.460 . S
C455 C454 1.477 . S
C455 H475 0.930 . S
C456 N452 1.362 . S
C456 C453 1.431 . S
C456 C466 1.476 . S
H457 C451 0.929 . S
C458 O449 1.250 . S
C458 O450 1.258 . S
O459 Mn444 2.162 . S
O459 C447 1.281 . S
O460 Mn444 2.297 . S
O460 C447 1.236 . S
N461 Mn445 2.282 . S
N461 C462 1.328 . S
N461 C466 1.318 . S
C462 N461 1.328 . S
C462 C463 1.457 . S
C462 H467 0.929 . S
C463 C462 1.457 . S
C463 C464 1.291 . S
C463 H476 0.931 . S
C464 C463 1.291 . S
C464 C465 1.373 . S
C464 H477 0.929 . S
C465 C464 1.373 . S
C465 C466 1.396 . S
C465 C472 1.403 . S
C466 C456 1.476 . S
C466 N461 1.318 . S
C466 C465 1.396 . S
H467 C462 0.929 . S
O468 Mn444 2.385 . S
O468 C446 1.234 . S
O469 Mn444 2.209 . S
O469 Mn445 2.215 . S
O469 C446 1.283 . S
O470 Mn444 2.094 . S
O470 C448 1.240 . S
O471 Mn445 2.117 . S
O471 C448 1.264 . S
C472 C465 1.403 . S
C472 C473 1.399 . S
C472 H478 0.929 . S
C473 C453 1.449 . S
C473 C472 1.399 . S
C473 H479 0.930 . S
H474 C454 0.931 . S
H475 C455 0.930 . S
H476 C463 0.931 . S
H477 C464 0.929 . S
H478 C472 0.929 . S
H479 C473 0.930 . S
Mn480 O485 2.095 . S
Mn480 O495 2.162 . S
Mn480 O496 2.297 . S
Mn480 O504 2.385 . S
Mn480 O505 2.209 . S
Mn480 O506 2.094 . S
Mn481 O486 2.121 . S
Mn481 N488 2.257 . S
Mn481 N497 2.282 . S
Mn481 O505 2.215 . S
Mn481 O507 2.117 . S
C482 O504 1.234 . S
C482 O505 1.283 . S
C483 O495 1.281 . S
C483 O496 1.236 . S
C484 O506 1.240 . S
C484 O507 1.264 . S
O485 Mn480 2.095 . S
O485 C494 1.250 . S
O486 Mn481 2.121 . S
O486 C494 1.258 . S
C487 N488 1.326 . S
C487 C491 1.460 . S
C487 H493 0.929 . S
N488 Mn481 2.257 . S
N488 C487 1.326 . S
N488 C492 1.362 . S
C489 C490 1.258 . S
C489 C492 1.431 . S
C489 C509 1.449 . S
C490 C489 1.258 . S
C490 C491 1.477 . S
C490 H510 0.931 . S
C491 C487 1.460 . S
C491 C490 1.477 . S
C491 H511 0.930 . S
C492 N488 1.362 . S
C492 C489 1.431 . S
C492 C502 1.476 . S
H493 C487 0.929 . S
C494 O485 1.250 . S
C494 O486 1.258 . S
O495 Mn480 2.162 . S
O495 C483 1.281 . S
O496 Mn480 2.297 . S
O496 C483 1.236 . S
N497 Mn481 2.282 . S
N497 C498 1.328 . S
N497 C502 1.318 . S
C498 N497 1.328 . S
C498 C499 1.457 . S
C498 H503 0.929 . S
C499 C498 1.457 . S
C499 C500 1.291 . S
C499 H512 0.931 . S
C500 C499 1.291 . S
C500 C501 1.373 . S
C500 H513 0.929 . S
C501 C500 1.373 . S
C501 C502 1.396 . S
C501 C508 1.403 . S
C502 C492 1.476 . S
C502 N497 1.318 . S
C502 C501 1.396 . S
H503 C498 0.929 . S
O504 Mn480 2.385 . S
O504 C482 1.234 . S
O505 Mn480 2.209 . S
O505 Mn481 2.215 . S
O505 C482 1.283 . S
O506 Mn480 2.094 . S
O506 C484 1.240 . S
O507 Mn481 2.117 . S
O507 C484 1.264 . S
C508 C501 1.403 . S
C508 C509 1.399 . S
C508 H514 0.929 . S
C509 C489 1.449 . S
C509 C508 1.399 . S
C509 H515 0.930 . S
H510 C490 0.931 . S
H511 C491 0.930 . S
H512 C499 0.931 . S
H513 C500 0.929 . S
H514 C508 0.929 . S
H515 C509 0.930 . S
Mn516 O521 2.095 . S
Mn516 O531 2.162 . S
Mn516 O532 2.297 . S
Mn516 O540 2.385 . S
Mn516 O541 2.209 . S
Mn516 O542 2.094 . S
Mn517 O522 2.121 . S
Mn517 N524 2.257 . S
Mn517 N533 2.282 . S
Mn517 O541 2.215 . S
Mn517 O543 2.117 . S
C518 O540 1.234 . S
C518 O541 1.283 . S
C519 O531 1.281 . S
C519 O532 1.236 . S
C520 O542 1.240 . S
C520 O543 1.264 . S
O521 Mn516 2.095 . S
O521 C530 1.250 . S
O522 Mn517 2.121 . S
O522 C530 1.258 . S
C523 N524 1.326 . S
C523 C527 1.460 . S
C523 H529 0.929 . S
N524 Mn517 2.257 . S
N524 C523 1.326 . S
N524 C528 1.362 . S
C525 C526 1.258 . S
C525 C528 1.431 . S
C525 C545 1.449 . S
C526 C525 1.258 . S
C526 C527 1.477 . S
C526 H546 0.931 . S
C527 C523 1.460 . S
C527 C526 1.477 . S
C527 H547 0.930 . S
C528 N524 1.362 . S
C528 C525 1.431 . S
C528 C538 1.476 . S
H529 C523 0.929 . S
C530 O521 1.250 . S
C530 O522 1.258 . S
O531 Mn516 2.162 . S
O531 C519 1.281 . S
O532 Mn516 2.297 . S
O532 C519 1.236 . S
N533 Mn517 2.282 . S
N533 C534 1.328 . S
N533 C538 1.318 . S
C534 N533 1.328 . S
C534 C535 1.457 . S
C534 H539 0.929 . S
C535 C534 1.457 . S
C535 C536 1.291 . S
C535 H548 0.931 . S
C536 C535 1.291 . S
C536 C537 1.373 . S
C536 H549 0.929 1_545 S
C537 C536 1.373 . S
C537 C538 1.396 . S
C537 C544 1.403 . S
C538 C528 1.476 . S
C538 N533 1.318 . S
C538 C537 1.396 . S
H539 C534 0.929 . S
O540 Mn516 2.385 . S
O540 C518 1.234 . S
O541 Mn516 2.209 . S
O541 Mn517 2.215 . S
O541 C518 1.283 . S
O542 Mn516 2.094 . S
O542 C520 1.240 . S
O543 Mn517 2.117 . S
O543 C520 1.264 . S
C544 C537 1.403 . S
C544 C545 1.399 . S
C544 H550 0.928 . S
C545 C525 1.449 . S
C545 C544 1.399 . S
C545 H551 0.930 . S
H546 C526 0.931 . S
H547 C527 0.930 . S
H548 C535 0.931 . S
H549 C536 0.929 1_565 S
H550 C544 0.928 . S
H551 C545 0.930 . S
Mn552 O557 2.095 . S
Mn552 O567 2.162 . S
Mn552 O568 2.297 . S
Mn552 O576 2.385 . S
Mn552 O577 2.209 . S
Mn552 O578 2.094 . S
Mn553 O558 2.121 . S
Mn553 N560 2.257 . S
Mn553 N569 2.282 . S
Mn553 O577 2.215 . S
Mn553 O579 2.117 . S
C554 O576 1.234 . S
C554 O577 1.283 . S
C555 O567 1.281 . S
C555 O568 1.236 . S
C556 O578 1.240 . S
C556 O579 1.264 . S
O557 Mn552 2.095 . S
O557 C566 1.250 . S
O558 Mn553 2.121 . S
O558 C566 1.258 . S
C559 N560 1.326 . S
C559 C563 1.460 . S
C559 H565 0.929 . S
N560 Mn553 2.257 . S
N560 C559 1.326 . S
N560 C564 1.362 . S
C561 C562 1.258 . S
C561 C564 1.431 . S
C561 C581 1.449 . S
C562 C561 1.258 . S
C562 C563 1.477 . S
C562 H582 0.931 . S
C563 C559 1.460 . S
C563 C562 1.477 . S
C563 H583 0.930 . S
C564 N560 1.362 . S
C564 C561 1.431 . S
C564 C574 1.476 . S
H565 C559 0.929 . S
C566 O557 1.250 . S
C566 O558 1.258 . S
O567 Mn552 2.162 . S
O567 C555 1.281 . S
O568 Mn552 2.297 . S
O568 C555 1.236 . S
N569 Mn553 2.282 . S
N569 C570 1.328 . S
N569 C574 1.318 . S
C570 N569 1.328 . S
C570 C571 1.457 . S
C570 H575 0.929 . S
C571 C570 1.457 . S
C571 C572 1.291 . S
C571 H584 0.931 . S
C572 C571 1.291 . S
C572 C573 1.373 . S
C572 H585 0.929 . S
C573 C572 1.373 . S
C573 C574 1.396 . S
C573 C580 1.403 . S
C574 C564 1.476 . S
C574 N569 1.318 . S
C574 C573 1.396 . S
H575 C570 0.929 . S
O576 Mn552 2.385 . S
O576 C554 1.234 . S
O577 Mn552 2.209 . S
O577 Mn553 2.215 . S
O577 C554 1.283 . S
O578 Mn552 2.094 . S
O578 C556 1.240 . S
O579 Mn553 2.117 . S
O579 C556 1.264 . S
C580 C573 1.403 . S
C580 C581 1.399 . S
C580 H586 0.929 . S
C581 C561 1.449 . S
C581 C580 1.399 . S
C581 H587 0.930 . S
H582 C562 0.931 . S
H583 C563 0.930 . S
H584 C571 0.931 . S
H585 C572 0.929 . S
H586 C580 0.929 . S
H587 C581 0.930 . S
Mn588 O593 2.095 . S
Mn588 O603 2.162 . S
Mn588 O604 2.297 . S
Mn588 O612 2.385 . S
Mn588 O613 2.209 . S
Mn588 O614 2.094 . S
Mn589 O594 2.121 . S
Mn589 N596 2.257 . S
Mn589 N605 2.282 . S
Mn589 O613 2.215 . S
Mn589 O615 2.117 . S
C590 O612 1.234 . S
C590 O613 1.283 . S
C591 O603 1.281 . S
C591 O604 1.236 . S
C592 O614 1.240 . S
C592 O615 1.264 . S
O593 Mn588 2.095 . S
O593 C602 1.250 . S
O594 Mn589 2.121 . S
O594 C602 1.258 . S
C595 N596 1.326 . S
C595 C599 1.460 . S
C595 H601 0.929 . S
N596 Mn589 2.257 . S
N596 C595 1.326 . S
N596 C600 1.362 . S
C597 C598 1.258 . S
C597 C600 1.431 . S
C597 C617 1.449 . S
C598 C597 1.258 . S
C598 C599 1.477 . S
C598 H618 0.931 . S
C599 C595 1.460 . S
C599 C598 1.477 . S
C599 H619 0.930 . S
C600 N596 1.362 . S
C600 C597 1.431 . S
C600 C610 1.476 . S
H601 C595 0.929 . S
C602 O593 1.250 . S
C602 O594 1.258 . S
O603 Mn588 2.162 . S
O603 C591 1.281 . S
O604 Mn588 2.297 . S
O604 C591 1.236 . S
N605 Mn589 2.282 . S
N605 C606 1.328 . S
N605 C610 1.318 . S
C606 N605 1.328 . S
C606 C607 1.457 . S
C606 H611 0.929 . S
C607 C606 1.457 . S
C607 C608 1.281 1_655 S
C607 H620 0.931 1_655 S
C608 C607 1.281 1_455 S
C608 C609 1.365 1_455 S
C608 H621 0.948 . S
C609 C608 1.365 1_655 S
C609 C610 1.396 . S
C609 C616 1.403 . S
C610 C600 1.476 . S
C610 N605 1.318 . S
C610 C609 1.396 . S
H611 C606 0.929 . S
O612 Mn588 2.385 . S
O612 C590 1.234 . S
O613 Mn588 2.209 . S
O613 Mn589 2.215 . S
O613 C590 1.283 . S
O614 Mn588 2.094 . S
O614 C592 1.240 . S
O615 Mn589 2.117 . S
O615 C592 1.264 . S
C616 C609 1.403 . S
C616 C617 1.399 . S
C616 H622 0.929 1_655 S
C617 C597 1.449 . S
C617 C616 1.399 . S
C617 H623 0.930 . S
H618 C598 0.931 . S
H619 C599 0.930 . S
H620 C607 0.931 1_455 S
H621 C608 0.948 . S
H622 C616 0.929 1_455 S
H623 C617 0.930 . S
Mn624 O629 2.095 . S
Mn624 O639 2.162 . S
Mn624 O640 2.297 . S
Mn624 O648 2.385 . S
Mn624 O649 2.209 . S
Mn624 O650 2.094 . S
Mn625 O630 2.121 . S
Mn625 N632 2.257 . S
Mn625 N641 2.282 . S
Mn625 O649 2.215 . S
Mn625 O651 2.117 . S
C626 O648 1.234 . S
C626 O649 1.283 . S
C627 O639 1.281 . S
C627 O640 1.236 . S
C628 O650 1.240 . S
C628 O651 1.264 . S
O629 Mn624 2.095 . S
O629 C638 1.250 . S
O630 Mn625 2.121 . S
O630 C638 1.258 . S
C631 N632 1.326 . S
C631 C635 1.460 . S
C631 H637 0.929 . S
N632 Mn625 2.257 . S
N632 C631 1.326 . S
N632 C636 1.362 . S
C633 C634 1.258 . S
C633 C636 1.431 . S
C633 C653 1.449 . S
C634 C633 1.258 . S
C634 C635 1.477 . S
C634 H654 0.931 . S
C635 C631 1.460 . S
C635 C634 1.477 . S
C635 H655 0.930 . S
C636 N632 1.362 . S
C636 C633 1.431 . S
C636 C646 1.476 . S
H637 C631 0.929 . S
C638 O629 1.250 . S
C638 O630 1.258 . S
O639 Mn624 2.162 . S
O639 C627 1.281 . S
O640 Mn624 2.297 . S
O640 C627 1.236 . S
N641 Mn625 2.282 . S
N641 C642 1.328 . S
N641 C646 1.318 . S
C642 N641 1.328 . S
C642 C643 1.457 1_565 S
C642 H647 0.929 . S
C643 C642 1.457 1_545 S
C643 C644 1.291 . S
C643 H656 0.931 . S
C644 C643 1.291 . S
C644 C645 1.373 . S
C644 H657 0.929 . S
C645 C644 1.373 . S
C645 C646 1.396 1_545 S
C645 C652 1.403 . S
C646 C636 1.476 . S
C646 N641 1.318 . S
C646 C645 1.396 1_565 S
H647 C642 0.929 . S
O648 Mn624 2.385 . S
O648 C626 1.234 . S
O649 Mn624 2.209 . S
O649 Mn625 2.215 . S
O649 C626 1.283 . S
O650 Mn624 2.094 . S
O650 C628 1.240 . S
O651 Mn625 2.117 . S
O651 C628 1.264 . S
C652 C645 1.403 . S
C652 C653 1.399 1_545 S
C652 H658 0.929 . S
C653 C633 1.449 . S
C653 C652 1.399 1_565 S
C653 H659 0.930 . S
H654 C634 0.931 . S
H655 C635 0.930 . S
H656 C643 0.931 . S
H657 C644 0.929 . S
H658 C652 0.929 . S
H659 C653 0.930 . S
C660 C661 1.369 . S
C660 C662 1.419 . S
C660 H664 0.930 . S
C661 C660 1.369 . S
C661 C670 1.429 . S
C662 C660 1.419 . S
C662 C663 1.363 . S
C662 H665 0.929 . S
C663 C662 1.363 . S
C663 C669 1.428 . S
H664 C660 0.930 . S
H665 C662 0.929 . S
S666 N667 1.613 . S
S666 N668 1.610 . S
N667 S666 1.613 . S
N667 C670 1.350 . S
N668 S666 1.610 . S
N668 C669 1.351 . S
C669 C663 1.428 . S
C669 N668 1.351 . S
C669 C670 1.434 . S
C670 C661 1.429 . S
C670 N667 1.350 . S
C670 C669 1.434 . S
C671 C672 1.369 . S
C671 C673 1.419 . S
C671 H675 0.930 . S
C672 C671 1.369 . S
C672 C681 1.429 . S
C673 C671 1.419 . S
C673 C674 1.363 . S
C673 H676 0.929 . S
C674 C673 1.363 . S
C674 C680 1.428 . S
H675 C671 0.930 . S
H676 C673 0.929 . S
S677 N678 1.613 . S
S677 N679 1.610 . S
N678 S677 1.613 . S
N678 C681 1.350 . S
N679 S677 1.610 . S
N679 C680 1.351 . S
C680 C674 1.428 . S
C680 N679 1.351 . S
C680 C681 1.434 . S
C681 C672 1.429 . S
C681 N678 1.350 . S
C681 C680 1.434 . S
C682 C683 1.369 . S
C682 C684 1.419 . S
C682 H686 0.930 . S
C683 C682 1.369 . S
C683 C692 1.429 . S
C684 C682 1.419 . S
C684 C685 1.363 . S
C684 H687 0.929 . S
C685 C684 1.363 . S
C685 C691 1.428 . S
H686 C682 0.930 . S
H687 C684 0.929 . S
S688 N689 1.613 . S
S688 N690 1.610 . S
N689 S688 1.613 . S
N689 C692 1.350 . S
N690 S688 1.610 . S
N690 C691 1.351 . S
C691 C685 1.428 . S
C691 N690 1.351 . S
C691 C692 1.434 . S
C692 C683 1.429 . S
C692 N689 1.350 . S
C692 C691 1.434 . S
C693 C694 1.369 . S
C693 C695 1.419 . S
C693 H697 0.930 . S
C694 C693 1.369 . S
C694 C703 1.429 . S
C695 C693 1.419 . S
C695 C696 1.363 . S
C695 H698 0.929 . S
C696 C695 1.363 . S
C696 C702 1.428 . S
H697 C693 0.930 . S
H698 C695 0.929 . S
S699 N700 1.613 . S
S699 N701 1.610 . S
N700 S699 1.613 . S
N700 C703 1.350 . S
N701 S699 1.610 . S
N701 C702 1.351 . S
C702 C696 1.428 . S
C702 N701 1.351 . S
C702 C703 1.434 . S
C703 C694 1.429 . S
C703 N700 1.350 . S
C703 C702 1.434 . S
C704 C705 1.369 . S
C704 C706 1.419 . S
C704 H708 0.930 . S
C705 C704 1.369 . S
C705 C714 1.429 . S
C706 C704 1.419 . S
C706 C707 1.363 . S
C706 H709 0.929 . S
C707 C706 1.363 . S
C707 C713 1.428 . S
H708 C704 0.930 . S
H709 C706 0.929 . S
S710 N711 1.613 . S
S710 N712 1.610 . S
N711 S710 1.613 . S
N711 C714 1.350 . S
N712 S710 1.610 . S
N712 C713 1.351 . S
C713 C707 1.428 . S
C713 N712 1.351 . S
C713 C714 1.434 . S
C714 C705 1.429 . S
C714 N711 1.350 . S
C714 C713 1.434 . S
C715 C716 1.369 . S
C715 C717 1.419 . S
C715 H719 0.930 . S
C716 C715 1.369 . S
C716 C725 1.429 . S
C717 C715 1.419 . S
C717 C718 1.363 . S
C717 H720 0.929 . S
C718 C717 1.363 . S
C718 C724 1.428 . S
H719 C715 0.930 . S
H720 C717 0.929 . S
S721 N722 1.613 . S
S721 N723 1.610 . S
N722 S721 1.613 . S
N722 C725 1.350 . S
N723 S721 1.610 . S
N723 C724 1.351 . S
C724 C718 1.428 . S
C724 N723 1.351 . S
C724 C725 1.434 . S
C725 C716 1.429 . S
C725 N722 1.350 . S
C725 C724 1.434 . S
C726 C727 1.369 . S
C726 C728 1.419 . S
C726 H730 0.930 . S
C727 C726 1.369 . S
C727 C736 1.429 . S
C728 C726 1.419 . S
C728 C729 1.363 . S
C728 H731 0.929 . S
C729 C728 1.363 . S
C729 C735 1.428 . S
H730 C726 0.930 . S
H731 C728 0.929 . S
S732 N733 1.613 . S
S732 N734 1.610 . S
N733 S732 1.613 . S
N733 C736 1.350 . S
N734 S732 1.610 . S
N734 C735 1.351 . S
C735 C729 1.428 . S
C735 N734 1.351 . S
C735 C736 1.434 . S
C736 C727 1.429 . S
C736 N733 1.350 . S
C736 C735 1.434 . S
C737 C738 1.369 . S
C737 C739 1.419 . S
C737 H741 0.930 . S
C738 C737 1.369 . S
C738 C747 1.429 . S
C739 C737 1.419 . S
C739 C740 1.363 . S
C739 H742 0.929 . S
C740 C739 1.363 . S
C740 C746 1.428 . S
H741 C737 0.930 . S
H742 C739 0.929 . S
S743 N744 1.613 . S
S743 N745 1.610 . S
N744 S743 1.613 . S
N744 C747 1.350 . S
N745 S743 1.610 . S
N745 C746 1.351 . S
C746 C740 1.428 . S
C746 N745 1.351 . S
C746 C747 1.434 . S
C747 C738 1.429 . S
C747 N744 1.350 . S
C747 C746 1.434 . S
C748 C749 1.369 . S
C748 C750 1.419 . S
C748 H752 0.930 . S
C749 C748 1.369 . S
C749 C758 1.429 . S
C750 C748 1.419 . S
C750 C751 1.363 . S
C750 H753 0.929 . S
C751 C750 1.363 . S
C751 C757 1.428 . S
H752 C748 0.930 . S
H753 C750 0.929 . S
S754 N755 1.613 . S
S754 N756 1.610 . S
N755 S754 1.613 . S
N755 C758 1.350 . S
N756 S754 1.610 . S
N756 C757 1.351 . S
C757 C751 1.428 . S
C757 N756 1.351 . S
C757 C758 1.434 . S
C758 C749 1.429 . S
C758 N755 1.350 . S
C758 C757 1.434 . S
C759 C760 1.369 . S
C759 C761 1.419 . S
C759 H763 0.930 . S
C760 C759 1.369 . S
C760 C769 1.429 . S
C761 C759 1.419 . S
C761 C762 1.363 . S
C761 H764 0.929 . S
C762 C761 1.363 . S
C762 C768 1.428 . S
H763 C759 0.930 . S
H764 C761 0.929 . S
S765 N766 1.613 . S
S765 N767 1.610 . S
N766 S765 1.613 . S
N766 C769 1.350 . S
N767 S765 1.610 . S
N767 C768 1.351 . S
C768 C762 1.428 . S
C768 N767 1.351 . S
C768 C769 1.434 . S
C769 C760 1.429 . S
C769 N766 1.350 . S
C769 C768 1.434 . S
C770 C771 1.369 . S
C770 C772 1.419 . S
C770 H774 0.930 . S
C771 C770 1.369 . S
C771 C780 1.429 . S
C772 C770 1.419 . S
C772 C773 1.363 . S
C772 H775 0.929 . S
C773 C772 1.363 . S
C773 C779 1.428 . S
H774 C770 0.930 . S
H775 C772 0.929 . S
S776 N777 1.613 . S
S776 N778 1.610 . S
N777 S776 1.613 . S
N777 C780 1.350 . S
N778 S776 1.610 . S
N778 C779 1.351 . S
C779 C773 1.428 . S
C779 N778 1.351 . S
C779 C780 1.434 . S
C780 C771 1.429 . S
C780 N777 1.350 . S
C780 C779 1.434 . S
C781 C782 1.369 . S
C781 C783 1.419 . S
C781 H785 0.930 . S
C782 C781 1.369 . S
C782 C791 1.429 . S
C783 C781 1.419 . S
C783 C784 1.363 . S
C783 H786 0.929 . S
C784 C783 1.363 . S
C784 C790 1.428 . S
H785 C781 0.930 . S
H786 C783 0.929 . S
S787 N788 1.613 . S
S787 N789 1.610 . S
N788 S787 1.613 . S
N788 C791 1.350 . S
N789 S787 1.610 . S
N789 C790 1.351 . S
C790 C784 1.428 . S
C790 N789 1.351 . S
C790 C791 1.434 . S
C791 C782 1.429 . S
C791 N788 1.350 . S
C791 C790 1.434 . S
C792 C793 1.369 . S
C792 C794 1.419 . S
C792 H796 0.930 . S
C793 C792 1.369 . S
C793 C802 1.429 . S
C794 C792 1.419 . S
C794 C795 1.363 . S
C794 H797 0.929 . S
C795 C794 1.363 . S
C795 C801 1.428 . S
H796 C792 0.930 . S
H797 C794 0.929 . S
S798 N799 1.613 . S
S798 N800 1.610 . S
N799 S798 1.613 . S
N799 C802 1.350 . S
N800 S798 1.610 . S
N800 C801 1.351 . S
C801 C795 1.428 . S
C801 N800 1.351 . S
C801 C802 1.434 . S
C802 C793 1.429 . S
C802 N799 1.350 . S
C802 C801 1.434 . S
C803 C804 1.369 . S
C803 C805 1.419 . S
C803 H807 0.930 . S
C804 C803 1.369 . S
C804 C813 1.429 . S
C805 C803 1.419 . S
C805 C806 1.363 . S
C805 H808 0.929 . S
C806 C805 1.363 . S
C806 C812 1.428 . S
H807 C803 0.930 . S
H808 C805 0.929 . S
S809 N810 1.613 . S
S809 N811 1.610 . S
N810 S809 1.613 . S
N810 C813 1.350 . S
N811 S809 1.610 . S
N811 C812 1.351 . S
C812 C806 1.428 . S
C812 N811 1.351 . S
C812 C813 1.434 . S
C813 C804 1.429 . S
C813 N810 1.350 . S
C813 C812 1.434 . S
C814 C815 1.369 . S
C814 C816 1.419 . S
C814 H818 0.930 . S
C815 C814 1.369 . S
C815 C824 1.429 . S
C816 C814 1.419 . S
C816 C817 1.363 . S
C816 H819 0.929 . S
C817 C816 1.363 . S
C817 C823 1.428 . S
H818 C814 0.930 . S
H819 C816 0.929 . S
S820 N821 1.613 . S
S820 N822 1.610 . S
N821 S820 1.613 . S
N821 C824 1.350 . S
N822 S820 1.610 . S
N822 C823 1.351 . S
C823 C817 1.428 . S
C823 N822 1.351 . S
C823 C824 1.434 . S
C824 C815 1.429 . S
C824 N821 1.350 . S
C824 C823 1.434 . S
C825 C826 1.369 . S
C825 C827 1.419 . S
C825 H829 0.930 . S
C826 C825 1.369 . S
C826 C835 1.429 . S
C827 C825 1.419 . S
C827 C828 1.363 . S
C827 H830 0.929 . S
C828 C827 1.363 . S
C828 C834 1.428 . S
H829 C825 0.930 . S
H830 C827 0.929 . S
S831 N832 1.613 . S
S831 N833 1.610 . S
N832 S831 1.613 . S
N832 C835 1.350 . S
N833 S831 1.610 . S
N833 C834 1.351 . S
C834 C828 1.428 . S
C834 N833 1.351 . S
C834 C835 1.434 . S
C835 C826 1.429 . S
C835 N832 1.350 . S
C835 C834 1.434 . S
C836 C837 1.369 . S
C836 C838 1.419 . S
C836 H840 0.930 . S
C837 C836 1.369 . S
C837 C846 1.429 . S
C838 C836 1.419 . S
C838 C839 1.363 . S
C838 H841 0.929 . S
C839 C838 1.363 . S
C839 C845 1.428 . S
H840 C836 0.930 . S
H841 C838 0.929 . S
S842 N843 1.613 . S
S842 N844 1.610 . S
N843 S842 1.613 . S
N843 C846 1.350 . S
N844 S842 1.610 . S
N844 C845 1.351 . S
C845 C839 1.428 . S
C845 N844 1.351 . S
C845 C846 1.434 . S
C846 C837 1.429 . S
C846 N843 1.350 . S
C846 C845 1.434 . S
C847 C848 1.369 . S
C847 C849 1.419 . S
C847 H851 0.930 . S
C848 C847 1.369 . S
C848 C857 1.429 . S
C849 C847 1.419 . S
C849 C850 1.363 . S
C849 H852 0.929 . S
C850 C849 1.363 . S
C850 C856 1.428 . S
H851 C847 0.930 . S
H852 C849 0.929 . S
S853 N854 1.613 . S
S853 N855 1.610 . S
N854 S853 1.613 . S
N854 C857 1.350 . S
N855 S853 1.610 . S
N855 C856 1.351 . S
C856 C850 1.428 . S
C856 N855 1.351 . S
C856 C857 1.434 . S
C857 C848 1.429 . S
C857 N854 1.350 . S
C857 C856 1.434 . S
C858 C859 1.369 . S
C858 C860 1.419 . S
C858 H862 0.930 . S
C859 C858 1.369 . S
C859 C868 1.429 . S
C860 C858 1.419 . S
C860 C861 1.363 . S
C860 H863 0.929 . S
C861 C860 1.363 . S
C861 C867 1.428 . S
H862 C858 0.930 . S
H863 C860 0.929 . S
S864 N865 1.613 . S
S864 N866 1.610 . S
N865 S864 1.613 . S
N865 C868 1.350 . S
N866 S864 1.610 . S
N866 C867 1.351 . S
C867 C861 1.428 . S
C867 N866 1.351 . S
C867 C868 1.434 . S
C868 C859 1.429 . S
C868 N865 1.350 . S
C868 C867 1.434 . S
C869 C870 1.369 . S
C869 C871 1.419 . S
C869 H873 0.930 . S
C870 C869 1.369 . S
C870 C879 1.429 . S
C871 C869 1.419 . S
C871 C872 1.363 . S
C871 H874 0.929 . S
C872 C871 1.363 . S
C872 C878 1.428 . S
H873 C869 0.930 . S
H874 C871 0.929 . S
S875 N876 1.613 . S
S875 N877 1.610 . S
N876 S875 1.613 . S
N876 C879 1.350 . S
N877 S875 1.610 . S
N877 C878 1.351 . S
C878 C872 1.428 . S
C878 N877 1.351 . S
C878 C879 1.434 . S
C879 C870 1.429 . S
C879 N876 1.350 . S
C879 C878 1.434 . S
C880 C881 1.369 . S
C880 C882 1.419 . S
C880 H884 0.930 . S
C881 C880 1.369 . S
C881 C890 1.429 . S
C882 C880 1.419 . S
C882 C883 1.363 . S
C882 H885 0.929 . S
C883 C882 1.363 . S
C883 C889 1.428 . S
H884 C880 0.930 . S
H885 C882 0.929 . S
S886 N887 1.613 . S
S886 N888 1.610 . S
N887 S886 1.613 . S
N887 C890 1.350 . S
N888 S886 1.610 . S
N888 C889 1.351 . S
C889 C883 1.428 . S
C889 N888 1.351 . S
C889 C890 1.434 . S
C890 C881 1.429 . S
C890 N887 1.350 . S
C890 C889 1.434 . S
C891 C892 1.369 . S
C891 C893 1.419 . S
C891 H895 0.930 . S
C892 C891 1.369 . S
C892 C901 1.429 . S
C893 C891 1.419 . S
C893 C894 1.363 . S
C893 H896 0.929 . S
C894 C893 1.363 . S
C894 C900 1.428 . S
H895 C891 0.930 . S
H896 C893 0.929 . S
S897 N898 1.613 . S
S897 N899 1.610 . S
N898 S897 1.613 . S
N898 C901 1.350 . S
N899 S897 1.610 . S
N899 C900 1.351 . S
C900 C894 1.428 . S
C900 N899 1.351 . S
C900 C901 1.434 . S
C901 C892 1.429 . S
C901 N898 1.350 . S
C901 C900 1.434 . S
C902 C903 1.369 . S
C902 C904 1.419 1_554 S
C902 H906 0.930 . S
C903 C902 1.369 . S
C903 C912 1.429 . S
C904 C902 1.419 1_556 S
C904 C905 1.363 . S
C904 H907 0.929 . S
C905 C904 1.363 . S
C905 C911 1.428 . S
H906 C902 0.930 . S
H907 C904 0.929 . S
S908 N909 1.613 . S
S908 N910 1.610 1_554 S
N909 S908 1.613 . S
N909 C912 1.350 . S
N910 S908 1.610 1_556 S
N910 C911 1.351 . S
C911 C905 1.428 . S
C911 N910 1.351 . S
C911 C912 1.434 1_556 S
C912 C903 1.429 . S
C912 N909 1.350 . S
C912 C911 1.434 1_554 S
C913 C914 1.369 . S
C913 C915 1.419 . S
C913 H917 0.930 . S
C914 C913 1.369 . S
C914 C923 1.429 . S
C915 C913 1.419 . S
C915 C916 1.363 . S
C915 H918 0.929 . S
C916 C915 1.363 . S
C916 C922 1.428 . S
H917 C913 0.930 . S
H918 C915 0.929 . S
S919 N920 1.613 . S
S919 N921 1.610 . S
N920 S919 1.613 . S
N920 C923 1.350 . S
N921 S919 1.610 . S
N921 C922 1.351 . S
C922 C916 1.428 . S
C922 N921 1.351 . S
C922 C923 1.434 . S
C923 C914 1.429 . S
C923 N920 1.350 . S
C923 C922 1.434 . S
C663 C627 1.439 . S
C661 C51 1.402 . S
C672 C125 1.510 . S
C674 C447 1.510 . S
C683 C217 2.486 . S
C685 C494 2.529 . S
C694 C291 1.564 . S
C696 C530 1.567 . S
C707 C555 1.062 . S
C705 C347 1.036 . S
C716 C421 1.035 . S
C718 C591 1.044 . S
C727 C143 2.255 . S
C729 C483 2.252 . S
C738 C199 1.504 . S
C740 C519 1.526 . S
C749 C273 0.739 . S
C751 C566 0.731 . S
C762 C602 1.708 . S
C760 C365 1.653 . S
C773 C638 1.873 . S
C771 C439 1.878 . S
C784 C458 2.482 . S
C782 C69 2.391 . S
C793 C63 1.519 . S
C795 C482 1.671 . S
C804 C137 1.579 . S
C806 C518 1.692 . S
C817 C556 1.532 . S
C815 C187 1.441 . S
C826 C261 1.516 . S
C828 C592 1.585 1_556 S
C839 C628 1.734 . S
C837 C359 1.513 . S
C850 C448 1.360 . S
C848 C433 1.253 . S
C861 C626 1.665 . S
C859 C113 1.661 . S
C870 C211 1.382 . S
C872 C446 1.514 . S
C883 C484 1.711 . S
C881 C285 1.582 . S
C892 C335 1.476 . S
C894 C520 1.606 . S
C903 C409 1.445 . S
C905 C554 1.509 . S
C914 C39 1.662 . S
C916 C590 1.714 . S
