# Generated by pormake.
# Topology anh, (6,3)-cn, num edge types: 1
# Building blocks:
#     Node 0, Type 0, BuildingBlock: BETFAJ_clean_sbu_0, # of connection points: 6
#     Node 1, Type 0, BuildingBlock: BETFAJ_clean_sbu_0, # of connection points: 6
#     Node 2, Type 0, BuildingBlock: BETFAJ_clean_sbu_0, # of connection points: 6
#     Node 3, Type 1, BuildingBlock: ESEHIV_clean_linker_0, # of connection points: 3
#     Node 4, Type 1, BuildingBlock: ESEHIV_clean_linker_0, # of connection points: 3
#     Node 5, Type 1, BuildingBlock: ESEHIV_clean_linker_0, # of connection points: 3
#     Node 6, Type 1, BuildingBlock: ESEHIV_clean_linker_0, # of connection points: 3
#     Node 7, Type 1, BuildingBlock: ESEHIV_clean_linker_0, # of connection points: 3
#     Node 8, Type 1, BuildingBlock: ESEHIV_clean_linker_0, # of connection points: 3
#     Edge 9, Type (0, 1), BuildingBlock: OJICUG_clean_linker_0, # of connection points: 2
#     Edge 10, Type (0, 1), BuildingBlock: OJICUG_clean_linker_0, # of connection points: 2
#     Edge 11, Type (0, 1), BuildingBlock: OJICUG_clean_linker_0, # of connection points: 2
#     Edge 12, Type (0, 1), BuildingBlock: OJICUG_clean_linker_0, # of connection points: 2
#     Edge 13, Type (0, 1), BuildingBlock: OJICUG_clean_linker_0, # of connection points: 2
#     Edge 14, Type (0, 1), BuildingBlock: OJICUG_clean_linker_0, # of connection points: 2
#     Edge 15, Type (0, 1), BuildingBlock: OJICUG_clean_linker_0, # of connection points: 2
#     Edge 16, Type (0, 1), BuildingBlock: OJICUG_clean_linker_0, # of connection points: 2
#     Edge 17, Type (0, 1), BuildingBlock: OJICUG_clean_linker_0, # of connection points: 2
#     Edge 18, Type (0, 1), BuildingBlock: OJICUG_clean_linker_0, # of connection points: 2
#     Edge 19, Type (0, 1), BuildingBlock: OJICUG_clean_linker_0, # of connection points: 2
#     Edge 20, Type (0, 1), BuildingBlock: OJICUG_clean_linker_0, # of connection points: 2
#     Edge 21, Type (0, 1), BuildingBlock: OJICUG_clean_linker_0, # of connection points: 2
#     Edge 22, Type (0, 1), BuildingBlock: OJICUG_clean_linker_0, # of connection points: 2
#     Edge 23, Type (0, 1), BuildingBlock: OJICUG_clean_linker_0, # of connection points: 2
#     Edge 24, Type (0, 1), BuildingBlock: OJICUG_clean_linker_0, # of connection points: 2
#     Edge 25, Type (0, 1), BuildingBlock: OJICUG_clean_linker_0, # of connection points: 2
#     Edge 26, Type (0, 1), BuildingBlock: OJICUG_clean_linker_0, # of connection points: 2
# Relax obj value: 0.288
# Max RMSD: 0.260
# Mean RMSD: 0.181
data_MOF--net-anh--node1-BETFAJ_clean_sbu_0--node2-ESEHIV_clean_linker_0--edge1-OJICUG_clean_linker_0
_symmetry_space_group_name_H-M    P1
_symmetry_Int_Tables_number       1
_symmetry_cell_setting            triclinic
loop_
_symmetry_equiv_pos_as_xyz
'x, y, z'
_cell_length_a     20.363438
_cell_length_b     26.669061
_cell_length_c     37.522403
_cell_angle_alpha  92.153078
_cell_angle_beta   88.704859
_cell_angle_gamma 133.28651
loop_
_atom_site_label
_atom_site_type_symbol
_atom_site_fract_x
_atom_site_fract_y
_atom_site_fract_z
_atom_type_partial_charge
Sm0 Sm 0.24414 0.55909 0.14071 0.0
Sm1 Sm 1.11087 0.56692 0.16889 0.0
C2 C 0.37508 0.58269 0.10483 0.0
C3 C 0.46993 0.6243 0.11376 0.0
C4 C 0.52776 0.6338 0.08796 0.0
C5 C 0.60828 0.65374 0.09841 0.0
C6 C 0.63018 0.66245 0.13492 0.0
C7 C 0.57892 0.66363 0.15999 0.0
C8 C 0.49882 0.64446 0.14942 0.0
C9 C 0.2294 0.55453 0.21328 0.0
C10 C 0.31401 0.71422 0.15892 0.0
C11 C 0.98307 0.54111 0.20929 0.0
C12 C 0.88966 0.47639 0.21609 0.0
C13 C 0.8669 0.41324 0.21655 0.0
C14 C 0.77762 0.35116 0.2108 0.0
C15 C 0.71036 0.35169 0.20475 0.0
C16 C 0.73138 0.41392 0.21097 0.0
C17 C 0.82068 0.47597 0.21594 0.0
C18 C 1.12626 0.56866 0.09557 0.0
C19 C 1.04056 0.41229 0.15043 0.0
O20 O 0.35104 0.61635 0.09934 0.0
O21 O 0.31806 0.5289 0.12459 0.0
O22 O 0.23008 0.59244 0.19396 0.0
O23 O 0.2493 0.52427 0.19506 0.0
O24 O 0.32883 0.67776 0.14261 0.0
O25 O 0.2358 0.68331 0.17445 0.0
O26 O 1.04655 0.54573 0.22172 0.0
O27 O 0.99924 0.56353 0.17679 0.0
O28 O 1.12371 0.53112 0.11606 0.0
O29 O 1.11433 0.60481 0.11338 0.0
O30 O 1.02724 0.44911 0.16732 0.0
O31 O 1.1171 0.44269 0.13355 0.0
H32 H 0.50679 0.61935 0.06027 0.0
H33 H 0.64615 0.65251 0.07827 0.0
H34 H 0.59459 0.67072 0.18818 0.0
H35 H 0.45511 0.63849 0.16959 0.0
H36 H 0.91867 0.41194 0.21815 0.0
H37 H 0.76307 0.3039 0.20704 0.0
H38 H 0.68118 0.41645 0.20725 0.0
H39 H 0.8365 0.52394 0.21628 0.0
Sm40 Sm 0.76757 0.07393 0.46749 0.0
Sm41 Sm 0.63972 0.08908 0.45638 0.0
C42 C 0.85318 0.03766 0.48853 0.0
C43 C 0.83062 0.97628 0.5026 0.0
C44 C 0.81681 0.96346 0.5393 0.0
C45 C 0.79655 0.90586 0.55245 0.0
C46 C 0.78987 0.85989 0.52924 0.0
C47 C 0.80418 0.87291 0.4926 0.0
C48 C 0.82474 0.93063 0.47945 0.0
C49 C 0.75313 0.09286 0.39752 0.0
C50 C 0.55216 0.93417 0.45449 0.0
C51 C 0.55683 0.12964 0.44038 0.0
C52 C 0.56073 0.18163 0.45864 0.0
C53 C 0.57718 0.23329 0.43928 0.0
C54 C 0.59219 0.28757 0.4571 0.0
C55 C 0.5913 0.29106 0.49462 0.0
C56 C 0.57176 0.23787 0.51376 0.0
C57 C 0.55729 0.18413 0.49604 0.0
C58 C 0.65159 0.07025 0.52664 0.0
C59 C 0.85999 0.23111 0.46321 0.0
O60 O 0.83853 0.06953 0.5094 0.0
O61 O 0.83205 0.03393 0.45527 0.0
O62 O 0.6878 0.0532 0.41835 0.0
O63 O 0.8293 0.1229 0.41289 0.0
O64 O 0.62631 0.96137 0.47222 0.0
O65 O 0.54702 0.97502 0.43896 0.0
O66 O 0.63149 0.15379 0.42488 0.0
O67 O 0.51798 0.07377 0.45787 0.0
O68 O 0.7182 0.10879 0.50602 0.0
O69 O 0.57759 0.04392 0.51095 0.0
O70 O 0.7781 0.20275 0.45399 0.0
O71 O 0.87452 0.1924 0.47304 0.0
H72 H 0.82151 0.99784 0.55794 0.0
H73 H 0.78504 0.89687 0.58078 0.0
H74 H 0.80076 0.83898 0.47411 0.0
H75 H 0.8363 0.93958 0.45111 0.0
H76 H 0.58117 0.2328 0.41044 0.0
H77 H 0.60756 0.32794 0.44159 0.0
H78 H 0.56871 0.23814 0.54262 0.0
H79 H 0.5457 0.14548 0.5118 0.0
Sm80 Sm 0.68848 0.59404 0.85155 0.0
Sm81 Sm 0.55091 0.44063 0.85415 0.0
C82 C 0.7844 0.72412 0.83527 0.0
C83 C 0.76937 0.76655 0.82064 0.0
C84 C 0.78457 0.78214 0.78428 0.0
C85 C 0.77106 0.82225 0.77013 0.0
C86 C 0.7427 0.8483 0.79203 0.0
C87 C 0.72866 0.83354 0.82851 0.0
C88 C 0.74186 0.79315 0.84266 0.0
C89 C 0.66371 0.54307 0.91743 0.0
C90 C 0.46836 0.51243 0.85992 0.0
C91 C 0.46343 0.3103 0.86459 0.0
C92 C 0.47487 0.26553 0.84787 0.0
C93 C 0.48974 0.23177 0.86906 0.0
C94 C 0.50887 0.1945 0.85323 0.0
C95 C 0.51286 0.19 0.81588 0.0
C96 C 0.49688 0.22324 0.79481 0.0
C97 C 0.47848 0.26071 0.81056 0.0
C98 C 0.58239 0.48869 0.7864 0.0
C99 C 0.77444 0.52448 0.85278 0.0
O100 O 0.77191 0.67883 0.81335 0.0
O101 O 0.7551 0.7011 0.86748 0.0
O102 O 0.60137 0.52101 0.89605 0.0
O103 O 0.74206 0.59723 0.90552 0.0
O104 O 0.55008 0.56717 0.84801 0.0
O105 O 0.45395 0.45778 0.86931 0.0
O106 O 0.52967 0.3609 0.88519 0.0
O107 O 0.43277 0.32904 0.84406 0.0
O108 O 0.64227 0.513 0.80962 0.0
O109 O 0.5037 0.43492 0.79791 0.0
O110 O 0.68832 0.46591 0.85649 0.0
O111 O 0.7936 0.58259 0.84796 0.0
H112 H 0.80708 0.76335 0.76667 0.0
H113 H 0.78388 0.83353 0.74204 0.0
H114 H 0.70611 0.85234 0.84605 0.0
H115 H 0.73022 0.78267 0.87085 0.0
H116 H 0.48823 0.2353 0.89788 0.0
H117 H 0.52053 0.16925 0.87019 0.0
H118 H 0.50116 0.222 0.76601 0.0
H119 H 0.4691 0.28717 0.79341 0.0
H120 H 0.58149 0.96788 0.24385 0.0
H121 H 0.83302 0.17847 0.23495 0.0
H122 H 0.67446 0.06009 0.14097 0.0
C123 C 0.63236 1.01188 0.22775 0.0
C124 C 0.61972 1.00522 0.1906 0.0
C125 C 0.70893 0.07373 0.24428 0.0
C126 C 0.77306 0.13044 0.22287 0.0
C127 C 0.7609 0.127 0.18588 0.0
C128 C 0.68425 0.06364 0.16953 0.0
H129 H 0.69147 0.64558 0.64023 0.0
H130 H 0.62089 0.45326 0.62574 0.0
H131 H 0.6971 0.57734 0.53507 0.0
C132 C 0.68371 0.60853 0.62272 0.0
C133 C 0.69753 0.61899 0.58579 0.0
C134 C 0.65565 0.54872 0.63707 0.0
C135 C 0.64302 0.49964 0.61452 0.0
C136 C 0.65823 0.50968 0.57772 0.0
C137 C 0.68461 0.56915 0.56344 0.0
H138 H 1.03027 0.5446 0.93427 0.0
H139 H 0.23593 0.53947 0.94002 0.0
H140 H 1.12058 0.51407 0.83775 0.0
C141 C 1.07408 0.54043 0.92076 0.0
C142 C 1.06666 0.52985 0.88359 0.0
C143 C 1.13409 0.54377 0.94114 0.0
C144 C 0.18936 0.53624 0.92405 0.0
C145 C 0.18732 0.5256 0.88687 0.0
C146 C 1.12476 0.52264 0.86635 0.0
H147 H 1.11427 0.45912 0.37387 0.0
H148 H 0.32298 0.67952 0.36866 0.0
H149 H 0.20896 0.58499 0.47029 0.0
C150 C 0.15877 0.50957 0.38711 0.0
C151 C 0.15393 0.51441 0.42431 0.0
C152 C 0.21981 0.56867 0.36685 0.0
C153 C 0.27692 0.63358 0.38425 0.0
C154 C 0.27439 0.64063 0.4214 0.0
C155 C 0.2127 0.58045 0.44167 0.0
H156 H 0.61642 0.10324 0.68925 0.0
H157 H 0.70993 1.00039 0.67727 0.0
H158 H 0.64179 0.02686 0.78162 0.0
C159 C 0.63388 0.07721 0.70114 0.0
C160 C 0.62666 0.06891 0.73817 0.0
C161 C 0.66351 0.05249 0.67909 0.0
C162 C 0.68752 1.01977 0.69441 0.0
C163 C 0.67963 1.00981 0.73147 0.0
C164 C 0.65022 0.03549 0.75322 0.0
H165 H 0.69587 0.53951 0.05864 0.0
H166 H 0.56841 0.32833 0.04833 0.0
H167 H 0.63481 0.42785 0.15239 0.0
C168 C 0.67091 0.4932 0.07117 0.0
C169 C 0.67083 0.49103 0.10833 0.0
C170 C 0.63419 0.43524 0.04953 0.0
C171 C 0.59575 0.37304 0.06504 0.0
C172 C 0.59463 0.3698 0.10244 0.0
C173 C 0.63303 0.42924 0.12366 0.0
C174 C 0.75324 0.66431 0.12555 0.0
C175 C 0.6801 0.6437 0.14608 0.0
H176 H 0.81051 0.63045 0.09793 0.0
C177 C 0.63184 0.58397 0.16615 0.0
H178 H 0.7938 0.71141 0.11084 0.0
C179 C 0.63897 0.53652 0.15785 0.0
C180 C 0.69651 0.54982 0.13028 0.0
H181 H 0.57667 0.56741 0.18318 0.0
H182 H 0.58956 0.48592 0.16907 0.0
C183 C 0.76171 0.61735 0.11777 0.0
C184 C 0.92172 0.34954 0.45119 0.0
C185 C 0.93743 0.30741 0.45965 0.0
H186 H 0.97848 0.44867 0.4344 0.0
C187 C 1.02769 0.33824 0.46163 0.0
H188 H 0.85351 0.3281 0.44941 0.0
C189 C 1.09949 0.40787 0.45321 0.0
C190 C 1.08305 0.44873 0.44315 0.0
H191 H 1.04278 0.30773 0.46788 0.0
H192 H 0.16755 0.42871 0.45258 0.0
C193 C 0.99347 0.41907 0.44298 0.0
C194 C 0.75537 0.94927 0.7949 0.0
C195 C 0.72704 0.89008 0.77669 0.0
H196 H 0.76443 0.03423 0.79471 0.0
C197 C 0.68338 0.87088 0.74356 0.0
H198 H 0.79015 0.96594 0.82028 0.0
C199 C 0.66842 0.90979 0.72898 0.0
C200 C 0.69706 0.9692 0.74704 0.0
H201 H 0.65925 0.82493 0.72911 0.0
H202 H 0.63279 0.89244 0.70378 0.0
C203 C 0.74066 0.98842 0.78023 0.0
C204 C 0.65755 0.29189 0.14623 0.0
C205 C 0.63385 0.29901 0.18034 0.0
H206 H 0.65931 0.30897 0.09094 0.0
C207 C 0.55456 0.28622 0.18329 0.0
H208 H 0.715 0.29727 0.14284 0.0
C209 C 0.52068 0.29113 0.15299 0.0
C210 C 0.56776 0.30978 0.12059 0.0
H211 H 0.53153 0.28778 0.20925 0.0
H212 H 0.47261 0.2963 0.1567 0.0
C213 C 0.62508 0.2983 0.11607 0.0
C214 C 0.39683 0.82905 0.43204 0.0
C215 C 0.47567 0.85744 0.45062 0.0
H216 H 0.2708 0.73829 0.40923 0.0
C217 C 0.48136 0.8117 0.46397 0.0
H218 H 0.3892 0.86209 0.42153 0.0
C219 C 0.41218 0.73999 0.45719 0.0
C220 C 0.33572 0.71242 0.43703 0.0
H221 H 0.54077 0.83143 0.47849 0.0
H222 H 0.42088 0.70659 0.46593 0.0
C223 C 0.32822 0.7578 0.42528 0.0
C224 C 0.60738 0.16084 0.81141 0.0
C225 C 0.53611 0.15276 0.79852 0.0
H226 H 0.69238 0.14093 0.80234 0.0
C227 C 0.49051 0.11214 0.76738 0.0
H228 H 0.64425 0.19218 0.8352 0.0
C229 C 0.51806 0.08307 0.74865 0.0
C230 C 0.59203 0.09383 0.76051 0.0
H231 H 0.43413 0.10365 0.75715 0.0
H232 H 0.48212 0.05287 0.72448 0.0
C233 C 0.63503 0.13159 0.79259 0.0
C234 C 0.80814 0.80375 0.57487 0.0
C235 C 0.76795 0.79854 0.54322 0.0
H236 H 0.81904 0.75165 0.61268 0.0
C237 C 0.70608 0.7342 0.5252 0.0
H238 H 0.85717 0.85284 0.58905 0.0
C239 C 0.68405 0.67616 0.53877 0.0
C240 C 0.72354 0.6812 0.57063 0.0
H241 H 0.67313 0.72836 0.501 0.0
H242 H 0.63443 0.62701 0.52472 0.0
C243 C 0.7863 0.74577 0.58839 0.0
C244 C 0.94361 0.58628 0.85463 0.0
C245 C 0.85079 0.52478 0.8555 0.0
H246 H 1.0827 0.63624 0.86145 0.0
C247 C 0.83245 0.46373 0.86079 0.0
H248 H 0.96269 0.63493 0.85102 0.0
C249 C 0.90247 0.46451 0.86617 0.0
C250 C 0.99519 0.52616 0.86613 0.0
H251 H 0.7631 0.41487 0.86203 0.0
H252 H 0.8835 0.41666 0.87231 0.0
C253 C 1.01355 0.58698 0.86011 0.0
C254 C 0.47484 0.82616 0.14672 0.0
C255 C 0.38953 0.79135 0.16211 0.0
H256 H 0.61408 0.92152 0.14282 0.0
C257 C 0.37897 0.83077 0.18256 0.0
H258 H 0.48592 0.79792 0.13069 0.0
C259 C 0.45238 0.90156 0.18928 0.0
C260 C 0.53869 0.93556 0.17554 0.0
H261 H 0.31474 0.80644 0.19476 0.0
H262 H 0.44271 0.92927 0.20679 0.0
C263 C 0.54837 0.89735 0.1533 0.0
C264 C 0.66642 0.3781 0.54528 0.0
C265 C 0.61323 0.35057 0.51417 0.0
H266 H 0.72292 0.45023 0.58937 0.0
C267 C 0.57977 0.37915 0.50271 0.0
H268 H 0.69537 0.35868 0.55435 0.0
C269 C 0.59645 0.43235 0.52274 0.0
C270 C 0.64652 0.45764 0.55461 0.0
H271 H 0.53834 0.35896 0.47894 0.0
H272 H 0.5676 0.45203 0.51397 0.0
C273 C 0.68255 0.43075 0.5653 0.0
C274 C 0.40413 0.56918 0.85203 0.0
C275 C 0.3926 0.51316 0.86324 0.0
H276 H 0.35065 0.61679 0.84923 0.0
C277 C 0.30754 0.45844 0.8785 0.0
H278 H 0.46756 0.61299 0.84025 0.0
C279 C 0.23966 0.46058 0.88339 0.0
C280 C 0.25141 0.51685 0.87271 0.0
H281 H 0.29391 0.41414 0.88782 0.0
H282 H 0.17817 0.41856 0.89695 0.0
C283 C 0.33568 0.57105 0.85672 0.0
C284 C 0.87631 0.30305 0.15296 0.0
C285 C 0.96721 0.33544 0.1515 0.0
H286 H 0.7389 0.21057 0.16344 0.0
C287 C 0.98676 0.29451 0.15515 0.0
H288 H 0.85912 0.33309 0.14997 0.0
C289 C 0.9178 0.22423 0.16306 0.0
C290 C 0.82744 0.19281 0.16648 0.0
H291 H 1.05601 0.31782 0.15444 0.0
H292 H 0.93583 0.1954 0.16871 0.0
C293 C 0.80726 0.23263 0.16016 0.0
C294 C 1.12783 0.60421 0.0341 0.0
C295 C 1.13166 0.56494 0.05619 0.0
H296 H 1.12733 0.62946 0.98058 0.0
C297 C 0.13961 0.52069 0.04032 0.0
H298 H 1.12228 0.63906 0.04555 0.0
C299 C 0.14189 0.51474 0.00318 0.0
C300 C 1.13654 0.55305 0.98086 0.0
H301 H 0.14293 0.48979 0.05662 0.0
H302 H 0.14559 0.47871 0.99197 0.0
C303 C 1.13029 0.59837 -0.00314 0.0
C304 C 0.77796 0.14675 0.3399 0.0
C305 C 0.74254 0.08846 0.3587 0.0
H306 H 0.7913 0.18744 0.2895 0.0
C307 C 0.69687 0.02562 0.34023 0.0
H308 H 0.81296 0.19562 0.35391 0.0
C309 C 0.68768 1.02119 0.30317 0.0
C310 C 0.7213 0.07911 0.28388 0.0
H311 H 0.6698 0.98018 0.35441 0.0
H312 H 0.65497 0.97232 0.28976 0.0
C313 C 0.7662 0.14195 0.30292 0.0
C314 C 0.53284 0.46213 0.7229 0.0
C315 C 0.60107 0.50655 0.74848 0.0
H316 H 0.49749 0.44066 0.66742 0.0
C317 C 0.68696 0.56651 0.7373 0.0
H318 H 0.466 0.41553 0.73074 0.0
C319 C 0.70431 0.58152 0.70105 0.0
C320 C 0.63658 0.53592 0.67552 0.0
H321 H 0.74081 0.60137 0.75645 0.0
H322 H 0.77114 0.62765 0.69285 0.0
C323 C 0.55072 0.47633 0.68672 0.0
C324 C 0.73608 0.09035 0.58188 0.0
C325 C 0.65696 0.06595 0.56545 0.0
H326 H 0.8 0.10429 0.63108 0.0
C327 C 0.5806 0.03625 0.58651 0.0
H328 H 0.7958 0.11333 0.56623 0.0
C329 C 0.58338 0.03202 0.62326 0.0
C330 C 0.66219 0.05647 0.63984 0.0
H331 H 0.51848 1.01672 0.57466 0.0
H332 H 0.52344 1.00914 0.63877 0.0
C333 C 0.7384 0.08501 0.61883 0.0
C334 C 0.56665 0.45175 0.9626 0.0
C335 C 0.65225 0.50466 0.94795 0.0
H336 H 0.49322 0.38551 0.00696 0.0
C337 C 0.72811 0.52195 0.96316 0.0
H338 H 0.50702 0.43688 0.95094 0.0
C339 C 0.71975 0.49119 -0.00569 0.0
C340 C 0.63556 0.44308 0.0109 0.0
H341 H 0.79463 0.56149 0.95191 0.0
H342 H 0.78023 0.50946 0.00722 0.0
C343 C 0.55842 0.42137 -0.00588 0.0
C344 C 0.3077 0.60236 0.27193 0.0
C345 C 0.22726 0.55691 0.2523 0.0
H346 H 0.36854 0.64099 0.32374 0.0
C347 C 0.14447 0.51373 0.27015 0.0
H348 H 0.37221 0.6357 0.25844 0.0
C349 C 0.14196 0.51685 0.30738 0.0
C350 C 0.22241 0.56313 0.32734 0.0
H351 H 1.08176 0.47779 0.2553 0.0
H352 H 1.07698 0.48403 0.32047 0.0
C353 C 0.30537 0.6055 0.30917 0.0
loop_
_geom_bond_atom_site_label_1
_geom_bond_atom_site_label_2
_geom_bond_distance
_geom_bond_site_symmetry_2
_ccdc_geom_bond_type
Sm0 C2 2.846 . S
Sm0 O20 2.543 . S
Sm0 O21 2.450 . S
Sm0 O22 2.681 . S
Sm0 O23 2.464 . S
Sm0 O24 2.396 . S
Sm0 O28 2.386 . S
Sm0 O31 2.408 1_455 S
Sm1 C11 2.846 . S
Sm1 O22 2.386 1_655 S
Sm1 O25 2.408 1_655 S
Sm1 O26 2.543 . S
Sm1 O27 2.450 . S
Sm1 O28 2.681 1_655 S
Sm1 O29 2.464 . S
Sm1 O30 2.396 . S
C2 Sm0 2.846 . S
C2 C3 1.506 . S
C2 O20 1.261 . S
C2 O21 1.242 . S
C3 C2 1.506 . S
C3 C4 1.358 . S
C3 C8 1.382 . S
C4 C3 1.358 . S
C4 C5 1.385 . S
C4 H32 0.930 . S
C5 C4 1.385 . S
C5 C6 1.395 . S
C5 H33 0.929 . S
C6 C5 1.395 . S
C6 C7 1.335 . S
C7 C6 1.335 . S
C7 C8 1.398 . S
C7 H34 0.930 . S
C8 C3 1.382 . S
C8 C7 1.398 . S
C8 H35 0.929 . S
C9 O22 1.271 . S
C9 O23 1.251 . S
C10 O24 1.252 . S
C10 O25 1.272 . S
C11 Sm1 2.846 . S
C11 C12 1.506 . S
C11 O26 1.261 . S
C11 O27 1.242 . S
C12 C11 1.506 . S
C12 C13 1.358 . S
C12 C17 1.382 . S
C13 C12 1.358 . S
C13 C14 1.385 . S
C13 H36 0.930 . S
C14 C13 1.385 . S
C14 C15 1.395 . S
C14 H37 0.929 . S
C15 C14 1.395 . S
C15 C16 1.335 . S
C16 C15 1.335 . S
C16 C17 1.398 . S
C16 H38 0.930 . S
C17 C12 1.382 . S
C17 C16 1.398 . S
C17 H39 0.929 . S
C18 O28 1.271 . S
C18 O29 1.251 1_455 S
C19 O30 1.252 . S
C19 O31 1.272 . S
O20 Sm0 2.543 . S
O20 C2 1.261 . S
O21 Sm0 2.450 . S
O21 C2 1.242 . S
O22 Sm0 2.681 . S
O22 Sm1 2.386 1_455 S
O22 C9 1.271 . S
O23 Sm0 2.464 . S
O23 C9 1.251 . S
O24 Sm0 2.396 . S
O24 C10 1.252 . S
O25 Sm1 2.408 1_455 S
O25 C10 1.272 . S
O26 Sm1 2.543 . S
O26 C11 1.261 . S
O27 Sm1 2.450 . S
O27 C11 1.242 . S
O28 Sm0 2.386 . S
O28 Sm1 2.681 1_455 S
O28 C18 1.271 . S
O29 Sm1 2.464 . S
O29 C18 1.251 1_655 S
O30 Sm1 2.396 . S
O30 C19 1.252 . S
O31 Sm0 2.408 1_655 S
O31 C19 1.272 . S
H32 C4 0.930 . S
H33 C5 0.929 . S
H34 C7 0.930 . S
H35 C8 0.929 . S
H36 C13 0.930 . S
H37 C14 0.929 . S
H38 C16 0.930 . S
H39 C17 0.929 . S
Sm40 C42 2.846 . S
Sm40 O60 2.543 . S
Sm40 O61 2.450 . S
Sm40 O62 2.681 1_565 S
Sm40 O63 2.464 . S
Sm40 O64 2.396 . S
Sm40 O68 2.386 . S
Sm40 O71 2.408 1_565 S
Sm41 C51 2.846 . S
Sm41 O62 2.386 . S
Sm41 O65 2.408 1_545 S
Sm41 O66 2.543 . S
Sm41 O67 2.450 . S
Sm41 O68 2.681 1_545 S
Sm41 O69 2.464 . S
Sm41 O70 2.396 . S
C42 Sm40 2.846 . S
C42 C43 1.506 . S
C42 O60 1.261 . S
C42 O61 1.242 . S
C43 C42 1.506 . S
C43 C44 1.358 . S
C43 C48 1.382 . S
C44 C43 1.358 . S
C44 C45 1.385 . S
C44 H72 0.930 . S
C45 C44 1.385 . S
C45 C46 1.395 . S
C45 H73 0.929 . S
C46 C45 1.395 . S
C46 C47 1.335 . S
C47 C46 1.335 . S
C47 C48 1.398 . S
C47 H74 0.930 . S
C48 C43 1.382 . S
C48 C47 1.398 . S
C48 H75 0.929 . S
C49 O62 1.271 . S
C49 O63 1.251 1_545 S
C50 O64 1.252 . S
C50 O65 1.272 . S
C51 Sm41 2.846 . S
C51 C52 1.506 . S
C51 O66 1.261 . S
C51 O67 1.242 . S
C52 C51 1.506 . S
C52 C53 1.358 . S
C52 C57 1.382 . S
C53 C52 1.358 . S
C53 C54 1.385 . S
C53 H76 0.930 . S
C54 C53 1.385 . S
C54 C55 1.395 . S
C54 H77 0.929 . S
C55 C54 1.395 . S
C55 C56 1.335 . S
C56 C55 1.335 . S
C56 C57 1.398 . S
C56 H78 0.930 . S
C57 C52 1.382 . S
C57 C56 1.398 . S
C57 H79 0.929 . S
C58 O68 1.271 1_545 S
C58 O69 1.251 . S
C59 O70 1.252 . S
C59 O71 1.272 . S
O60 Sm40 2.543 . S
O60 C42 1.261 . S
O61 Sm40 2.450 . S
O61 C42 1.242 . S
O62 Sm40 2.681 1_545 S
O62 Sm41 2.386 . S
O62 C49 1.271 . S
O63 Sm40 2.464 . S
O63 C49 1.251 1_565 S
O64 Sm40 2.396 . S
O64 C50 1.252 . S
O65 Sm41 2.408 1_565 S
O65 C50 1.272 . S
O66 Sm41 2.543 . S
O66 C51 1.261 . S
O67 Sm41 2.450 . S
O67 C51 1.242 . S
O68 Sm40 2.386 . S
O68 Sm41 2.681 1_565 S
O68 C58 1.271 1_565 S
O69 Sm41 2.464 . S
O69 C58 1.251 . S
O70 Sm41 2.396 . S
O70 C59 1.252 . S
O71 Sm40 2.408 1_545 S
O71 C59 1.272 . S
H72 C44 0.930 . S
H73 C45 0.929 . S
H74 C47 0.930 . S
H75 C48 0.929 . S
H76 C53 0.930 . S
H77 C54 0.929 . S
H78 C56 0.930 . S
H79 C57 0.929 . S
Sm80 C82 2.846 . S
Sm80 O100 2.543 . S
Sm80 O101 2.450 . S
Sm80 O102 2.681 . S
Sm80 O103 2.464 . S
Sm80 O104 2.396 . S
Sm80 O108 2.386 . S
Sm80 O111 2.408 . S
Sm81 C91 2.846 . S
Sm81 O102 2.386 . S
Sm81 O105 2.408 . S
Sm81 O106 2.543 . S
Sm81 O107 2.450 . S
Sm81 O108 2.681 . S
Sm81 O109 2.464 . S
Sm81 O110 2.396 . S
C82 Sm80 2.846 . S
C82 C83 1.506 . S
C82 O100 1.261 . S
C82 O101 1.242 . S
C83 C82 1.506 . S
C83 C84 1.358 . S
C83 C88 1.382 . S
C84 C83 1.358 . S
C84 C85 1.385 . S
C84 H112 0.930 . S
C85 C84 1.385 . S
C85 C86 1.395 . S
C85 H113 0.929 . S
C86 C85 1.395 . S
C86 C87 1.335 . S
C87 C86 1.335 . S
C87 C88 1.398 . S
C87 H114 0.930 . S
C88 C83 1.382 . S
C88 C87 1.398 . S
C88 H115 0.929 . S
C89 O102 1.271 . S
C89 O103 1.251 . S
C90 O104 1.252 . S
C90 O105 1.272 . S
C91 Sm81 2.846 . S
C91 C92 1.506 . S
C91 O106 1.261 . S
C91 O107 1.242 . S
C92 C91 1.506 . S
C92 C93 1.358 . S
C92 C97 1.382 . S
C93 C92 1.358 . S
C93 C94 1.385 . S
C93 H116 0.930 . S
C94 C93 1.385 . S
C94 C95 1.395 . S
C94 H117 0.929 . S
C95 C94 1.395 . S
C95 C96 1.335 . S
C96 C95 1.335 . S
C96 C97 1.398 . S
C96 H118 0.930 . S
C97 C92 1.382 . S
C97 C96 1.398 . S
C97 H119 0.929 . S
C98 O108 1.271 . S
C98 O109 1.251 . S
C99 O110 1.252 . S
C99 O111 1.272 . S
O100 Sm80 2.543 . S
O100 C82 1.261 . S
O101 Sm80 2.450 . S
O101 C82 1.242 . S
O102 Sm80 2.681 . S
O102 Sm81 2.386 . S
O102 C89 1.271 . S
O103 Sm80 2.464 . S
O103 C89 1.251 . S
O104 Sm80 2.396 . S
O104 C90 1.252 . S
O105 Sm81 2.408 . S
O105 C90 1.272 . S
O106 Sm81 2.543 . S
O106 C91 1.261 . S
O107 Sm81 2.450 . S
O107 C91 1.242 . S
O108 Sm80 2.386 . S
O108 Sm81 2.681 . S
O108 C98 1.271 . S
O109 Sm81 2.464 . S
O109 C98 1.251 . S
O110 Sm81 2.396 . S
O110 C99 1.252 . S
O111 Sm80 2.408 . S
O111 C99 1.272 . S
H112 C84 0.930 . S
H113 C85 0.929 . S
H114 C87 0.930 . S
H115 C88 0.929 . S
H116 C93 0.930 . S
H117 C94 0.929 . S
H118 C96 0.930 . S
H119 C97 0.929 . S
H120 C123 0.931 . S
H121 C126 0.928 . S
H122 C128 0.930 . S
C123 H120 0.931 . S
C123 C124 1.413 . S
C123 C125 1.360 1_565 S
C124 C123 1.413 . S
C124 C128 1.429 1_565 S
C125 C123 1.360 1_545 S
C125 C126 1.372 . S
C126 H121 0.928 . S
C126 C125 1.372 . S
C126 C127 1.404 . S
C127 C126 1.404 . S
C127 C128 1.391 . S
C128 H122 0.930 . S
C128 C124 1.429 1_545 S
C128 C127 1.391 . S
H129 C132 0.931 . S
H130 C135 0.928 . S
H131 C137 0.930 . S
C132 H129 0.931 . S
C132 C133 1.413 . S
C132 C134 1.360 . S
C133 C132 1.413 . S
C133 C137 1.429 . S
C134 C132 1.360 . S
C134 C135 1.372 . S
C135 H130 0.928 . S
C135 C134 1.372 . S
C135 C136 1.404 . S
C136 C135 1.404 . S
C136 C137 1.391 . S
C137 H131 0.930 . S
C137 C133 1.429 . S
C137 C136 1.391 . S
H138 C141 0.931 1_655 S
H139 C144 0.928 . S
H140 C146 0.930 . S
C141 H138 0.931 1_455 S
C141 C142 1.413 . S
C141 C143 1.360 . S
C142 C141 1.413 . S
C142 C146 1.429 . S
C143 C141 1.360 . S
C143 C144 1.372 . S
C144 H139 0.928 . S
C144 C143 1.372 . S
C144 C145 1.404 . S
C145 C144 1.404 . S
C145 C146 1.391 . S
C146 H140 0.930 . S
C146 C142 1.429 . S
C146 C145 1.391 . S
H147 C150 0.931 . S
H148 C153 0.928 . S
H149 C155 0.930 . S
C150 H147 0.931 . S
C150 C151 1.413 . S
C150 C152 1.360 1_655 S
C151 C150 1.413 . S
C151 C155 1.429 1_655 S
C152 C150 1.360 1_455 S
C152 C153 1.372 . S
C153 H148 0.928 . S
C153 C152 1.372 . S
C153 C154 1.404 . S
C154 C153 1.404 . S
C154 C155 1.391 . S
C155 H149 0.930 . S
C155 C151 1.429 1_455 S
C155 C154 1.391 . S
H156 C159 0.931 . S
H157 C162 0.928 . S
H158 C164 0.930 . S
C159 H156 0.931 . S
C159 C160 1.413 . S
C159 C161 1.360 1_545 S
C160 C159 1.413 . S
C160 C164 1.429 . S
C161 C159 1.360 1_565 S
C161 C162 1.372 . S
C162 H157 0.928 . S
C162 C161 1.372 . S
C162 C163 1.404 . S
C163 C162 1.404 . S
C163 C164 1.391 1_565 S
C164 H158 0.930 . S
C164 C160 1.429 . S
C164 C163 1.391 1_545 S
H165 C168 0.931 . S
H166 C171 0.928 . S
H167 C173 0.930 . S
C168 H165 0.931 . S
C168 C169 1.413 . S
C168 C170 1.360 . S
C169 C168 1.413 . S
C169 C173 1.429 . S
C170 C168 1.360 . S
C170 C171 1.372 . S
C171 H166 0.928 . S
C171 C170 1.372 . S
C171 C172 1.404 . S
C172 C171 1.404 . S
C172 C173 1.391 . S
C173 H167 0.930 . S
C173 C169 1.429 . S
C173 C172 1.391 . S
C174 C175 1.387 . S
C174 H178 0.950 . S
C174 C183 1.390 . S
C175 C174 1.387 . S
C175 C177 1.387 . S
H176 C183 0.950 . S
C177 C175 1.387 . S
C177 C179 1.390 . S
C177 H181 0.950 . S
H178 C174 0.950 . S
C179 C177 1.390 . S
C179 C180 1.387 . S
C179 H182 0.950 . S
C180 C179 1.387 . S
C180 C183 1.387 . S
H181 C177 0.950 . S
H182 C179 0.950 . S
C183 C174 1.390 . S
C183 H176 0.950 . S
C183 C180 1.387 . S
C184 C185 1.387 . S
C184 H188 0.950 . S
C184 C193 1.390 . S
C185 C184 1.387 . S
C185 C187 1.387 . S
H186 C193 0.950 . S
C187 C185 1.387 . S
C187 C189 1.390 . S
C187 H191 0.950 . S
H188 C184 0.950 . S
C189 C187 1.390 . S
C189 C190 1.387 . S
C189 H192 0.950 . S
C190 C189 1.387 . S
C190 C193 1.387 . S
H191 C187 0.950 . S
H192 C189 0.950 . S
C193 C184 1.390 . S
C193 H186 0.950 . S
C193 C190 1.387 . S
C194 C195 1.387 . S
C194 H198 0.950 . S
C194 C203 1.390 . S
C195 C194 1.387 . S
C195 C197 1.387 . S
H196 C203 0.950 1_545 S
C197 C195 1.387 . S
C197 C199 1.390 . S
C197 H201 0.950 . S
H198 C194 0.950 . S
C199 C197 1.390 . S
C199 C200 1.387 . S
C199 H202 0.950 . S
C200 C199 1.387 . S
C200 C203 1.387 . S
H201 C197 0.950 . S
H202 C199 0.950 . S
C203 C194 1.390 . S
C203 H196 0.950 1_565 S
C203 C200 1.387 . S
C204 C205 1.387 . S
C204 H208 0.950 . S
C204 C213 1.390 . S
C205 C204 1.387 . S
C205 C207 1.387 . S
H206 C213 0.950 . S
C207 C205 1.387 . S
C207 C209 1.390 . S
C207 H211 0.950 . S
H208 C204 0.950 . S
C209 C207 1.390 . S
C209 C210 1.387 . S
C209 H212 0.950 . S
C210 C209 1.387 . S
C210 C213 1.387 . S
H211 C207 0.950 . S
H212 C209 0.950 . S
C213 C204 1.390 . S
C213 H206 0.950 . S
C213 C210 1.387 . S
C214 C215 1.387 . S
C214 H218 0.950 . S
C214 C223 1.390 . S
C215 C214 1.387 . S
C215 C217 1.387 . S
H216 C223 0.950 . S
C217 C215 1.387 . S
C217 C219 1.390 . S
C217 H221 0.950 . S
H218 C214 0.950 . S
C219 C217 1.390 . S
C219 C220 1.387 . S
C219 H222 0.950 . S
C220 C219 1.387 . S
C220 C223 1.387 . S
H221 C217 0.950 . S
H222 C219 0.950 . S
C223 C214 1.390 . S
C223 H216 0.950 . S
C223 C220 1.387 . S
C224 C225 1.387 . S
C224 H228 0.950 . S
C224 C233 1.390 . S
C225 C224 1.387 . S
C225 C227 1.387 . S
H226 C233 0.950 . S
C227 C225 1.387 . S
C227 C229 1.390 . S
C227 H231 0.950 . S
H228 C224 0.950 . S
C229 C227 1.390 . S
C229 C230 1.387 . S
C229 H232 0.950 . S
C230 C229 1.387 . S
C230 C233 1.387 . S
H231 C227 0.950 . S
H232 C229 0.950 . S
C233 C224 1.390 . S
C233 H226 0.950 . S
C233 C230 1.387 . S
C234 C235 1.387 . S
C234 H238 0.950 . S
C234 C243 1.390 . S
C235 C234 1.387 . S
C235 C237 1.387 . S
H236 C243 0.950 . S
C237 C235 1.387 . S
C237 C239 1.390 . S
C237 H241 0.950 . S
H238 C234 0.950 . S
C239 C237 1.390 . S
C239 C240 1.387 . S
C239 H242 0.950 . S
C240 C239 1.387 . S
C240 C243 1.387 . S
H241 C237 0.950 . S
H242 C239 0.950 . S
C243 C234 1.390 . S
C243 H236 0.950 . S
C243 C240 1.387 . S
C244 C245 1.387 . S
C244 H248 0.950 . S
C244 C253 1.390 . S
C245 C244 1.387 . S
C245 C247 1.387 . S
H246 C253 0.950 . S
C247 C245 1.387 . S
C247 C249 1.390 . S
C247 H251 0.950 . S
H248 C244 0.950 . S
C249 C247 1.390 . S
C249 C250 1.387 . S
C249 H252 0.950 . S
C250 C249 1.387 . S
C250 C253 1.387 . S
H251 C247 0.950 . S
H252 C249 0.950 . S
C253 C244 1.390 . S
C253 H246 0.950 . S
C253 C250 1.387 . S
C254 C255 1.387 . S
C254 H258 0.950 . S
C254 C263 1.390 . S
C255 C254 1.387 . S
C255 C257 1.387 . S
H256 C263 0.950 . S
C257 C255 1.387 . S
C257 C259 1.390 . S
C257 H261 0.950 . S
H258 C254 0.950 . S
C259 C257 1.390 . S
C259 C260 1.387 . S
C259 H262 0.950 . S
C260 C259 1.387 . S
C260 C263 1.387 . S
H261 C257 0.950 . S
H262 C259 0.950 . S
C263 C254 1.390 . S
C263 H256 0.950 . S
C263 C260 1.387 . S
C264 C265 1.387 . S
C264 H268 0.950 . S
C264 C273 1.390 . S
C265 C264 1.387 . S
C265 C267 1.387 . S
H266 C273 0.950 . S
C267 C265 1.387 . S
C267 C269 1.390 . S
C267 H271 0.950 . S
H268 C264 0.950 . S
C269 C267 1.390 . S
C269 C270 1.387 . S
C269 H272 0.950 . S
C270 C269 1.387 . S
C270 C273 1.387 . S
H271 C267 0.950 . S
H272 C269 0.950 . S
C273 C264 1.390 . S
C273 H266 0.950 . S
C273 C270 1.387 . S
C274 C275 1.387 . S
C274 H278 0.950 . S
C274 C283 1.390 . S
C275 C274 1.387 . S
C275 C277 1.387 . S
H276 C283 0.950 . S
C277 C275 1.387 . S
C277 C279 1.390 . S
C277 H281 0.950 . S
H278 C274 0.950 . S
C279 C277 1.390 . S
C279 C280 1.387 . S
C279 H282 0.950 . S
C280 C279 1.387 . S
C280 C283 1.387 . S
H281 C277 0.950 . S
H282 C279 0.950 . S
C283 C274 1.390 . S
C283 H276 0.950 . S
C283 C280 1.387 . S
C284 C285 1.387 . S
C284 H288 0.950 . S
C284 C293 1.390 . S
C285 C284 1.387 . S
C285 C287 1.387 . S
H286 C293 0.950 . S
C287 C285 1.387 . S
C287 C289 1.390 . S
C287 H291 0.950 . S
H288 C284 0.950 . S
C289 C287 1.390 . S
C289 C290 1.387 . S
C289 H292 0.950 . S
C290 C289 1.387 . S
C290 C293 1.387 . S
H291 C287 0.950 . S
H292 C289 0.950 . S
C293 C284 1.390 . S
C293 H286 0.950 . S
C293 C290 1.387 . S
C294 C295 1.387 . S
C294 H298 0.950 1_455 S
C294 C303 1.390 . S
C295 C294 1.387 . S
C295 C297 1.387 . S
H296 C303 0.950 1_656 S
C297 C295 1.387 . S
C297 C299 1.390 . S
C297 H301 0.950 . S
H298 C294 0.950 1_655 S
C299 C297 1.390 . S
C299 C300 1.387 1_554 S
C299 H302 0.950 1_554 S
C300 C299 1.387 1_556 S
C300 C303 1.387 1_556 S
H301 C297 0.950 . S
H302 C299 0.950 1_556 S
C303 C294 1.390 . S
C303 H296 0.950 1_454 S
C303 C300 1.387 1_554 S
C304 C305 1.387 . S
C304 H308 0.950 . S
C304 C313 1.390 . S
C305 C304 1.387 . S
C305 C307 1.387 1_545 S
H306 C313 0.950 . S
C307 C305 1.387 1_565 S
C307 C309 1.390 . S
C307 H311 0.950 . S
H308 C304 0.950 . S
C309 C307 1.390 . S
C309 C310 1.387 1_565 S
C309 H312 0.950 . S
C310 C309 1.387 1_545 S
C310 C313 1.387 . S
H311 C307 0.950 . S
H312 C309 0.950 . S
C313 C304 1.390 . S
C313 H306 0.950 . S
C313 C310 1.387 . S
C314 C315 1.387 . S
C314 H318 0.950 . S
C314 C323 1.390 . S
C315 C314 1.387 . S
C315 C317 1.387 . S
H316 C323 0.950 . S
C317 C315 1.387 . S
C317 C319 1.390 . S
C317 H321 0.950 . S
H318 C314 0.950 . S
C319 C317 1.390 . S
C319 C320 1.387 . S
C319 H322 0.950 . S
C320 C319 1.387 . S
C320 C323 1.387 . S
H321 C317 0.950 . S
H322 C319 0.950 . S
C323 C314 1.390 . S
C323 H316 0.950 . S
C323 C320 1.387 . S
C324 C325 1.387 . S
C324 H328 0.950 . S
C324 C333 1.390 . S
C325 C324 1.387 . S
C325 C327 1.387 1_545 S
H326 C333 0.950 . S
C327 C325 1.387 1_565 S
C327 C329 1.390 . S
C327 H331 0.950 . S
H328 C324 0.950 . S
C329 C327 1.390 . S
C329 C330 1.387 . S
C329 H332 0.950 . S
C330 C329 1.387 . S
C330 C333 1.387 1_565 S
H331 C327 0.950 . S
H332 C329 0.950 . S
C333 C324 1.390 . S
C333 H326 0.950 . S
C333 C330 1.387 1_545 S
C334 C335 1.387 . S
C334 H338 0.950 . S
C334 C343 1.390 . S
C335 C334 1.387 . S
C335 C337 1.387 . S
H336 C343 0.950 . S
C337 C335 1.387 . S
C337 C339 1.419 . S
C337 H341 0.950 . S
H338 C334 0.950 . S
C339 C337 1.419 . S
C339 C340 1.380 1_556 S
C339 H342 0.929 1_556 S
C340 C339 1.380 1_554 S
C340 C343 1.387 1_554 S
H341 C337 0.950 . S
H342 C339 0.929 1_554 S
C343 C334 1.390 . S
C343 H336 0.950 . S
C343 C340 1.387 1_556 S
C344 C345 1.387 . S
C344 H348 0.950 . S
C344 C353 1.390 . S
C345 C344 1.387 . S
C345 C347 1.387 1_455 S
H346 C353 0.950 . S
C347 C345 1.387 1_655 S
C347 C349 1.390 . S
C347 H351 0.950 . S
H348 C344 0.950 . S
C349 C347 1.390 . S
C349 C350 1.387 1_655 S
C349 H352 0.950 . S
C350 C349 1.387 1_455 S
C350 C353 1.387 . S
H351 C347 0.950 . S
H352 C349 0.950 . S
C353 C344 1.390 . S
C353 H346 0.950 . S
C353 C350 1.387 . S
C175 C6 1.219 . S
C180 C169 1.410 . S
C185 C59 1.879 . S
C190 C151 1.853 . S
C195 C86 1.640 . S
C200 C163 1.767 . S
C205 C15 0.964 . S
C210 C172 1.135 . S
C220 C154 1.862 . S
C215 C50 1.891 . S
C230 C160 1.602 . S
C225 C95 1.494 . S
C235 C46 1.476 . S
C240 C133 1.568 . S
C245 C99 3.044 . S
C250 C142 3.007 1_655 S
C255 C10 1.927 . S
C260 C124 1.941 . S
C270 C136 1.658 . S
C265 C55 1.521 . S
C280 C145 2.990 . S
C275 C90 2.979 . S
C285 C19 1.880 . S
C290 C127 1.873 . S
C300 C143 1.812 . S
C295 C18 1.741 . S
C305 C49 1.291 . S
C310 C125 1.337 . S
C315 C98 1.428 . S
C320 C134 1.495 . S
C330 C161 1.460 . S
C325 C58 1.413 . S
C340 C170 0.983 . S
C335 C89 0.991 . S
C345 C9 1.271 . S
C350 C152 1.311 . S
