# Generated by pormake.
# Topology ssb, (4,4)-cn, num edge types: 1
# Building blocks:
#     Node 0, Type 0, BuildingBlock: GIZVER_clean_linker_0, # of connection points: 4
#     Node 1, Type 0, BuildingBlock: GIZVER_clean_linker_0, # of connection points: 4
#     Node 2, Type 0, BuildingBlock: GIZVER_clean_linker_0, # of connection points: 4
#     Node 3, Type 0, BuildingBlock: GIZVER_clean_linker_0, # of connection points: 4
#     Node 4, Type 0, BuildingBlock: GIZVER_clean_linker_0, # of connection points: 4
#     Node 5, Type 0, BuildingBlock: GIZVER_clean_linker_0, # of connection points: 4
#     Node 6, Type 0, BuildingBlock: GIZVER_clean_linker_0, # of connection points: 4
#     Node 7, Type 0, BuildingBlock: GIZVER_clean_linker_0, # of connection points: 4
#     Node 8, Type 1, BuildingBlock: KOZSID_clean_sbu_0, # of connection points: 4
#     Node 9, Type 1, BuildingBlock: KOZSID_clean_sbu_0, # of connection points: 4
#     Node 10, Type 1, BuildingBlock: KOZSID_clean_sbu_0, # of connection points: 4
#     Node 11, Type 1, BuildingBlock: KOZSID_clean_sbu_0, # of connection points: 4
#     Node 12, Type 1, BuildingBlock: KOZSID_clean_sbu_0, # of connection points: 4
#     Node 13, Type 1, BuildingBlock: KOZSID_clean_sbu_0, # of connection points: 4
#     Node 14, Type 1, BuildingBlock: KOZSID_clean_sbu_0, # of connection points: 4
#     Node 15, Type 1, BuildingBlock: KOZSID_clean_sbu_0, # of connection points: 4
#     Edge 16, Type (0, 1), BuildingBlock: MIFKUJ_clean_linker_0, # of connection points: 2
#     Edge 17, Type (0, 1), BuildingBlock: MIFKUJ_clean_linker_0, # of connection points: 2
#     Edge 18, Type (0, 1), BuildingBlock: MIFKUJ_clean_linker_0, # of connection points: 2
#     Edge 19, Type (0, 1), BuildingBlock: MIFKUJ_clean_linker_0, # of connection points: 2
#     Edge 20, Type (0, 1), BuildingBlock: MIFKUJ_clean_linker_0, # of connection points: 2
#     Edge 21, Type (0, 1), BuildingBlock: MIFKUJ_clean_linker_0, # of connection points: 2
#     Edge 22, Type (0, 1), BuildingBlock: MIFKUJ_clean_linker_0, # of connection points: 2
#     Edge 23, Type (0, 1), BuildingBlock: MIFKUJ_clean_linker_0, # of connection points: 2
#     Edge 24, Type (0, 1), BuildingBlock: MIFKUJ_clean_linker_0, # of connection points: 2
#     Edge 25, Type (0, 1), BuildingBlock: MIFKUJ_clean_linker_0, # of connection points: 2
#     Edge 26, Type (0, 1), BuildingBlock: MIFKUJ_clean_linker_0, # of connection points: 2
#     Edge 27, Type (0, 1), BuildingBlock: MIFKUJ_clean_linker_0, # of connection points: 2
#     Edge 28, Type (0, 1), BuildingBlock: MIFKUJ_clean_linker_0, # of connection points: 2
#     Edge 29, Type (0, 1), BuildingBlock: MIFKUJ_clean_linker_0, # of connection points: 2
#     Edge 30, Type (0, 1), BuildingBlock: MIFKUJ_clean_linker_0, # of connection points: 2
#     Edge 31, Type (0, 1), BuildingBlock: MIFKUJ_clean_linker_0, # of connection points: 2
#     Edge 32, Type (0, 1), BuildingBlock: MIFKUJ_clean_linker_0, # of connection points: 2
#     Edge 33, Type (0, 1), BuildingBlock: MIFKUJ_clean_linker_0, # of connection points: 2
#     Edge 34, Type (0, 1), BuildingBlock: MIFKUJ_clean_linker_0, # of connection points: 2
#     Edge 35, Type (0, 1), BuildingBlock: MIFKUJ_clean_linker_0, # of connection points: 2
#     Edge 36, Type (0, 1), BuildingBlock: MIFKUJ_clean_linker_0, # of connection points: 2
#     Edge 37, Type (0, 1), BuildingBlock: MIFKUJ_clean_linker_0, # of connection points: 2
#     Edge 38, Type (0, 1), BuildingBlock: MIFKUJ_clean_linker_0, # of connection points: 2
#     Edge 39, Type (0, 1), BuildingBlock: MIFKUJ_clean_linker_0, # of connection points: 2
#     Edge 40, Type (0, 1), BuildingBlock: MIFKUJ_clean_linker_0, # of connection points: 2
#     Edge 41, Type (0, 1), BuildingBlock: MIFKUJ_clean_linker_0, # of connection points: 2
#     Edge 42, Type (0, 1), BuildingBlock: MIFKUJ_clean_linker_0, # of connection points: 2
#     Edge 43, Type (0, 1), BuildingBlock: MIFKUJ_clean_linker_0, # of connection points: 2
#     Edge 44, Type (0, 1), BuildingBlock: MIFKUJ_clean_linker_0, # of connection points: 2
#     Edge 45, Type (0, 1), BuildingBlock: MIFKUJ_clean_linker_0, # of connection points: 2
#     Edge 46, Type (0, 1), BuildingBlock: MIFKUJ_clean_linker_0, # of connection points: 2
#     Edge 47, Type (0, 1), BuildingBlock: MIFKUJ_clean_linker_0, # of connection points: 2
# Relax obj value: 0.002
# Max RMSD: 0.042
# Mean RMSD: 0.021
data_MOF--net-ssb--node1-KOZSID_clean_sbu_0--node2-GIZVER_clean_linker_0--edge1-MIFKUJ_clean_linker_0
_symmetry_space_group_name_H-M    P1
_symmetry_Int_Tables_number       1
_symmetry_cell_setting            triclinic
loop_
_symmetry_equiv_pos_as_xyz
'x, y, z'
_cell_length_a     69.376509
_cell_length_b     69.061013
_cell_length_c     51.005367
_cell_angle_alpha  92.278845
_cell_angle_beta   94.087119
_cell_angle_gamma 89.993032
loop_
_atom_site_label
_atom_site_type_symbol
_atom_site_fract_x
_atom_site_fract_y
_atom_site_fract_z
_atom_type_partial_charge
H0 H 0.25855 0.2087 0.28556 0.0
H1 H 0.21241 0.25037 0.28784 0.0
H2 H 0.22797 0.21693 0.35541 0.0
H3 H 0.24116 0.22007 0.24477 0.0
H4 H 0.22281 0.23789 0.24626 0.0
H5 H 0.27664 0.23048 0.25441 0.0
H6 H 0.28791 0.28322 0.21636 0.0
H7 H 0.23014 0.27019 0.23538 0.0
C8 C 0.24799 0.21658 0.29644 0.0
C9 C 0.24499 0.21151 0.32234 0.0
C10 C 0.23671 0.23115 0.28409 0.0
C11 C 0.222 0.24021 0.29784 0.0
C12 C 0.21841 0.2348 0.32338 0.0
C13 C 0.23058 0.22112 0.33571 0.0
C14 C 0.23747 0.23406 0.25478 0.0
C15 C 0.25192 0.24922 0.24773 0.0
C16 C 0.27166 0.24436 0.24746 0.0
C17 C 0.28471 0.25677 0.23651 0.0
C18 C 0.27798 0.27409 0.22587 0.0
C19 C 0.25836 0.27898 0.22505 0.0
C20 C 0.24541 0.26678 0.2367 0.0
H21 H 0.80103 0.25684 0.26799 0.0
H22 H 0.76075 0.20951 0.26813 0.0
H23 H 0.79397 0.22745 0.33937 0.0
H24 H 0.78842 0.24042 0.2267 0.0
H25 H 0.77223 0.22039 0.22693 0.0
H26 H 0.77652 0.27363 0.22749 0.0
H27 H 0.71594 0.28165 0.20687 0.0
H28 H 0.73715 0.22545 0.22765 0.0
C29 C 0.79373 0.24607 0.27862 0.0
C30 C 0.7989 0.24383 0.30547 0.0
C31 C 0.77963 0.23397 0.26521 0.0
C32 C 0.77086 0.21943 0.27881 0.0
C33 C 0.77614 0.2168 0.30553 0.0
C34 C 0.7897 0.22947 0.3188 0.0
C35 C 0.77545 0.2351 0.23589 0.0
C36 C 0.75859 0.2483 0.22943 0.0
C37 C 0.76187 0.26802 0.22549 0.0
C38 C 0.7466 0.28007 0.21688 0.0
C39 C 0.72777 0.27247 0.21378 0.0
C40 C 0.72422 0.25282 0.21746 0.0
C41 C 0.7397 0.24076 0.22539 0.0
H42 H 0.76807 0.73244 0.30625 0.0
H43 H 0.72631 0.77773 0.31713 0.0
H44 H 0.78611 0.78717 0.34272 0.0
H45 H 0.73262 0.72556 0.30941 0.0
H46 H 0.7156 0.74478 0.30774 0.0
H47 H 0.7479 0.71315 0.2694 0.0
H48 H 0.71494 0.72298 0.19657 0.0
H49 H 0.70446 0.75771 0.26582 0.0
C50 C 0.76472 0.74725 0.31209 0.0
C51 C 0.7794 0.75932 0.32391 0.0
C52 C 0.74554 0.75388 0.30905 0.0
C53 C 0.74119 0.77285 0.31818 0.0
C54 C 0.75574 0.78489 0.3307 0.0
C55 C 0.77485 0.77812 0.33278 0.0
C56 C 0.7295 0.7397 0.3003 0.0
C57 C 0.72699 0.73634 0.27073 0.0
C58 C 0.73726 0.72146 0.25808 0.0
C59 C 0.73321 0.71676 0.23112 0.0
C60 C 0.71889 0.72724 0.21693 0.0
C61 C 0.70837 0.74192 0.22923 0.0
C62 C 0.71274 0.74662 0.25606 0.0
H63 H 0.20381 0.74371 0.24393 0.0
H64 H 0.24508 0.79044 0.24872 0.0
H65 H 0.21529 0.77646 0.3167 0.0
H66 H 0.21448 0.75777 0.20403 0.0
H67 H 0.2308 0.77783 0.20614 0.0
H68 H 0.2277 0.72428 0.21574 0.0
H69 H 0.28341 0.71387 0.18608 0.0
H70 H 0.26405 0.77223 0.19928 0.0
C71 C 0.21197 0.75485 0.25546 0.0
C72 C 0.20836 0.75843 0.28196 0.0
C73 C 0.2256 0.76607 0.24356 0.0
C74 C 0.23536 0.78117 0.25829 0.0
C75 C 0.23148 0.78524 0.2846 0.0
C76 C 0.21846 0.77336 0.29644 0.0
C77 C 0.22805 0.76351 0.21447 0.0
C78 C 0.24432 0.74976 0.20893 0.0
C79 C 0.24131 0.72965 0.20971 0.0
C80 C 0.25539 0.71652 0.20161 0.0
C81 C 0.27269 0.72382 0.19317 0.0
C82 C 0.27595 0.74381 0.19212 0.0
C83 C 0.26186 0.75677 0.20058 0.0
H84 H 0.29285 0.76214 0.76062 0.0
H85 H 0.25242 0.71458 0.7519 0.0
H86 H 0.28505 0.72567 0.82561 0.0
H87 H 0.28337 0.74571 0.71664 0.0
H88 H 0.26332 0.72958 0.71323 0.0
H89 H 0.27877 0.78087 0.71675 0.0
H90 H 0.22203 0.80157 0.69372 0.0
H91 H 0.23047 0.74171 0.71251 0.0
C92 C 0.28539 0.75039 0.76913 0.0
C93 C 0.29044 0.74551 0.79525 0.0
C94 C 0.27155 0.73949 0.75333 0.0
C95 C 0.2625 0.72361 0.76413 0.0
C96 C 0.26708 0.71891 0.79046 0.0
C97 C 0.28084 0.73004 0.80583 0.0
C98 C 0.26898 0.74292 0.72409 0.0
C99 C 0.25573 0.75978 0.71741 0.0
C100 C 0.26334 0.77836 0.71368 0.0
C101 C 0.25117 0.79345 0.70489 0.0
C102 C 0.23128 0.78985 0.70033 0.0
C103 C 0.22353 0.77113 0.70206 0.0
C104 C 0.23588 0.75634 0.71148 0.0
H105 H 0.26977 0.23115 0.83601 0.0
H106 H 0.22543 0.27349 0.81998 0.0
H107 H 0.28377 0.29196 0.84108 0.0
H108 H 0.23622 0.2217 0.83394 0.0
H109 H 0.2179 0.23981 0.83326 0.0
H110 H 0.24768 0.2076 0.7928 0.0
H111 H 0.20913 0.21215 0.72352 0.0
H112 H 0.20116 0.24892 0.79185 0.0
C113 C 0.26558 0.24611 0.83346 0.0
C114 C 0.27926 0.26101 0.83918 0.0
C115 C 0.24614 0.25054 0.82629 0.0
C116 C 0.24051 0.27 0.82452 0.0
C117 C 0.25406 0.28497 0.82975 0.0
C118 C 0.27341 0.28035 0.83647 0.0
C119 C 0.23099 0.23479 0.82358 0.0
C120 C 0.22546 0.22933 0.79509 0.0
C121 C 0.23564 0.21459 0.78227 0.0
C122 C 0.22955 0.208 0.75663 0.0
C123 C 0.21363 0.21689 0.74355 0.0
C124 C 0.20312 0.23147 0.75607 0.0
C125 C 0.20935 0.23792 0.78176 0.0
H126 H 0.71024 0.24829 0.77764 0.0
H127 H 0.74681 0.29895 0.78305 0.0
H128 H 0.7153 0.28371 0.84889 0.0
H129 H 0.71852 0.26541 0.73803 0.0
H130 H 0.7354 0.28479 0.74044 0.0
H131 H 0.72899 0.23226 0.73133 0.0
H132 H 0.78718 0.22429 0.70936 0.0
H133 H 0.77078 0.27836 0.74594 0.0
C134 C 0.71706 0.26026 0.78918 0.0
C135 C 0.71191 0.26416 0.81501 0.0
C136 C 0.73004 0.27249 0.77762 0.0
C137 C 0.73773 0.28885 0.7923 0.0
C138 C 0.73222 0.29316 0.81793 0.0
C139 C 0.71983 0.28036 0.8293 0.0
C140 C 0.73244 0.27038 0.74832 0.0
C141 C 0.74833 0.25652 0.74099 0.0
C142 C 0.74373 0.23747 0.73143 0.0
C143 C 0.75768 0.22588 0.71967 0.0
C144 C 0.77653 0.23305 0.71892 0.0
C145 C 0.78146 0.25186 0.72844 0.0
C146 C 0.76731 0.26353 0.73957 0.0
H147 H 0.75497 0.71003 0.75882 0.0
H148 H 0.70666 0.74901 0.75054 0.0
H149 H 0.72007 0.72224 0.82399 0.0
H150 H 0.74058 0.7178 0.71504 0.0
H151 H 0.72115 0.7347 0.71148 0.0
H152 H 0.77189 0.72905 0.70725 0.0
H153 H 0.78303 0.79018 0.7039 0.0
H154 H 0.72837 0.77054 0.72711 0.0
C155 C 0.74315 0.7177 0.76734 0.0
C156 C 0.73916 0.71471 0.79353 0.0
C157 C 0.73154 0.73007 0.75172 0.0
C158 C 0.71595 0.73978 0.7626 0.0
C159 C 0.7122 0.73741 0.78894 0.0
C160 C 0.72383 0.7249 0.80417 0.0
C161 C 0.73499 0.73178 0.72301 0.0
C162 C 0.74898 0.74798 0.7191 0.0
C163 C 0.76751 0.74396 0.71058 0.0
C164 C 0.7798 0.75913 0.70454 0.0
C165 C 0.77375 0.77835 0.70858 0.0
C166 C 0.75526 0.78252 0.71663 0.0
C167 C 0.74291 0.76732 0.7218 0.0
C168 C 0.03059 0.29239 0.57451 0.0
C169 C 0.03725 0.31025 0.58491 0.0
C170 C 0.02739 0.32402 0.571 0.0
C171 C 0.01534 0.31385 0.55296 0.0
N172 N 0.01683 0.29439 0.55452 0.0
Co173 Co 0.00197 0.27424 0.53187 0.0
N174 N 0.98842 0.29454 0.51034 0.0
C175 C 0.99136 0.31391 0.51267 0.0
C176 C 0.98015 0.32419 0.49494 0.0
C177 C 0.96932 0.31059 0.48041 0.0
C178 C 0.97453 0.29274 0.49027 0.0
N179 N 0.98662 0.2541 0.50981 0.0
C180 C 0.97258 0.25614 0.49021 0.0
C181 C 0.96496 0.23834 0.48099 0.0
C182 C 0.97452 0.22457 0.49523 0.0
C183 C 0.98728 0.23468 0.51236 0.0
N184 N 0.01596 0.25391 0.55286 0.0
C185 C 0.01387 0.23447 0.5495 0.0
C186 C 0.02568 0.22416 0.56648 0.0
C187 C 0.03616 0.23779 0.58141 0.0
C188 C 0.03013 0.25572 0.57256 0.0
N189 N 0.98113 0.27534 0.55683 0.0
C190 C 0.95066 0.27667 0.59091 0.0
C191 C 0.95926 0.25911 0.58379 0.0
C192 C 0.97431 0.25878 0.56695 0.0
C193 C 0.95778 0.29359 0.58085 0.0
C194 C 0.97289 0.29261 0.56407 0.0
N195 N 0.02282 0.27312 0.50691 0.0
C196 C 0.04283 0.25454 0.47814 0.0
C197 C 0.05349 0.27102 0.47303 0.0
C198 C 0.04817 0.28866 0.4849 0.0
C199 C 0.03286 0.2894 0.50141 0.0
C200 C 0.02787 0.25588 0.49507 0.0
H201 H 0.02957 0.30331 0.5097 0.0
H202 H 0.02067 0.24268 0.49835 0.0
H203 H 0.98006 0.2449 0.56223 0.0
H204 H 0.97762 0.30603 0.55711 0.0
C205 C 0.00368 0.32209 0.53294 0.0
C206 C 0.03842 0.274 0.58344 0.0
C207 C 0.96566 0.27455 0.4801 0.0
C208 C 1.00031 0.22634 0.53072 0.0
H209 H 0.04839 0.31305 0.60054 0.0
H210 H 0.0292 0.33957 0.57325 0.0
H211 H 0.97961 0.33975 0.49316 0.0
H212 H 0.95864 0.3135 0.46454 0.0
H213 H 0.95356 0.23559 0.46569 0.0
H214 H 0.97236 0.20904 0.4934 0.0
H215 H 0.02655 0.20858 0.56788 0.0
H216 H 0.04702 0.23486 0.59704 0.0
H217 H 0.95417 0.24553 0.59072 0.0
H218 H 0.95183 0.30761 0.58604 0.0
H219 H 0.04589 0.24055 0.46906 0.0
H220 H 0.05596 0.30189 0.48194 0.0
C221 C 0.72252 0.03721 0.55896 0.0
C222 C 0.705 0.04494 0.56584 0.0
C223 C 0.69083 0.03418 0.55229 0.0
C224 C 0.70042 0.02063 0.53786 0.0
N225 N 0.7199 0.02198 0.54139 0.0
Co226 Co 0.73928 0.0055 0.52332 0.0
N227 N 0.71836 0.99013 0.50266 0.0
C228 C 0.69908 0.99273 0.50343 0.0
C229 C 0.68822 0.97964 0.48783 0.0
C230 C 0.7013 0.96786 0.47648 0.0
C231 C 0.71951 0.97454 0.48573 0.0
N232 N 0.75869 0.98892 0.50541 0.0
C233 C 0.75605 0.97354 0.48809 0.0
C234 C 0.77355 0.96624 0.48046 0.0
C235 C 0.78774 0.97706 0.49386 0.0
C236 C 0.77818 0.99038 0.50871 0.0
N237 N 0.76024 0.02092 0.54383 0.0
C238 C 0.77954 0.01849 0.54282 0.0
C239 C 0.79038 0.03128 0.55896 0.0
C240 C 0.77726 0.0427 0.57087 0.0
C241 C 0.75908 0.03625 0.56118 0.0
N242 N 0.73921 0.98678 0.55183 0.0
C243 C 0.73918 0.95825 0.58965 0.0
C244 C 0.75646 0.96475 0.58068 0.0
C245 C 0.75616 0.97907 0.56216 0.0
C246 C 0.72194 0.96667 0.58015 0.0
C247 C 0.72226 0.98074 0.56121 0.0
N248 N 0.73938 0.02429 0.49481 0.0
C249 C 0.75707 0.04383 0.46637 0.0
C250 C 0.7402 0.05329 0.4574 0.0
C251 C 0.72275 0.04734 0.46671 0.0
C252 C 0.72266 0.0328 0.48502 0.0
C253 C 0.75636 0.02968 0.48501 0.0
H254 H 0.70892 0.02893 0.49126 0.0
H255 H 0.76982 0.02353 0.49137 0.0
H256 H 0.76982 0.98346 0.55626 0.0
H257 H 0.70862 0.98624 0.55414 0.0
C258 C 0.69158 0.00693 0.52005 0.0
C259 C 0.74121 0.0453 0.56896 0.0
C260 C 0.73739 0.96513 0.47859 0.0
C261 C 0.78707 0.00425 0.52626 0.0
H262 H 0.70265 0.05728 0.57895 0.0
H263 H 0.67538 0.03623 0.55255 0.0
H264 H 0.67262 0.97851 0.48548 0.0
H265 H 0.69778 0.95553 0.46326 0.0
H266 H 0.77584 0.95422 0.46677 0.0
H267 H 0.8032 0.97531 0.49305 0.0
H268 H 0.80597 0.03227 0.56161 0.0
H269 H 0.78069 0.05451 0.58501 0.0
H270 H 0.77017 0.95872 0.58784 0.0
H271 H 0.70822 0.96195 0.5866 0.0
H272 H 0.77092 0.04735 0.45923 0.0
H273 H 0.70923 0.05416 0.46049 0.0
C274 C 0.03391 0.75554 0.54423 0.0
C275 C 0.04212 0.77362 0.55078 0.0
C276 C 0.03164 0.78679 0.53662 0.0
C277 C 0.01788 0.7761 0.52194 0.0
N278 N 0.01878 0.75687 0.52598 0.0
Co279 Co 0.00314 0.73601 0.50584 0.0
N280 N 0.98779 0.75552 0.48493 0.0
C281 C 0.98937 0.77504 0.4876 0.0
C282 C 0.97584 0.78479 0.47241 0.0
C283 C 0.96472 0.77069 0.45945 0.0
C284 C 0.97232 0.75303 0.46729 0.0
N285 N 0.98815 0.71512 0.48491 0.0
C286 C 0.97346 0.71639 0.46605 0.0
C287 C 0.96766 0.69823 0.45576 0.0
C288 C 0.97878 0.68501 0.46903 0.0
C289 C 0.9908 0.69579 0.4864 0.0
N290 N 0.01773 0.71655 0.52765 0.0
C291 C 0.01503 0.69712 0.52642 0.0
C292 C 0.02623 0.68755 0.54491 0.0
C293 C 0.03684 0.70167 0.55869 0.0
C294 C 0.0317 0.71911 0.54748 0.0
N295 N 0.98325 0.73727 0.532 0.0
C296 C 0.95277 0.73936 0.56576 0.0
C297 C 0.95886 0.72155 0.55537 0.0
C298 C 0.97399 0.72084 0.53869 0.0
C299 C 0.96265 0.75604 0.55964 0.0
C300 C 0.97779 0.75467 0.54299 0.0
N301 N 0.02303 0.73474 0.4795 0.0
C302 C 0.04716 0.71686 0.45647 0.0
C303 C 0.05172 0.73321 0.44286 0.0
C304 C 0.0416 0.75029 0.44779 0.0
C305 C 0.02754 0.75077 0.46609 0.0
C306 C 0.03281 0.71789 0.47439 0.0
H307 H 0.02064 0.76435 0.46912 0.0
H308 H 0.02994 0.70484 0.48387 0.0
H309 H 0.97769 0.70686 0.53103 0.0
H310 H 0.9847 0.76792 0.539 0.0
C311 C 0.0038 0.78375 0.50447 0.0
C312 C 0.04119 0.73753 0.55549 0.0
C313 C 0.96404 0.73432 0.45801 0.0
C314 C 0.00297 0.68822 0.50641 0.0
H315 H 0.05457 0.77707 0.5641 0.0
H316 H 0.03394 0.8023 0.53677 0.0
H317 H 0.97408 0.80031 0.47121 0.0
H318 H 0.95227 0.77324 0.44608 0.0
H319 H 0.95626 0.69488 0.44066 0.0
H320 H 0.97773 0.66938 0.46692 0.0
H321 H 0.02691 0.67209 0.54767 0.0
H322 H 0.04747 0.69932 0.57483 0.0
H323 H 0.9516 0.70822 0.55939 0.0
H324 H 0.95869 0.77015 0.5676 0.0
H325 H 0.05449 0.70323 0.4531 0.0
H326 H 0.04478 0.76341 0.43793 0.0
C327 C 0.2959 0.97311 0.55338 0.0
C328 C 0.31386 0.96739 0.56412 0.0
C329 C 0.3273 0.97849 0.55341 0.0
C330 C 0.31687 0.99047 0.53701 0.0
N331 N 0.29755 0.98769 0.53652 0.0
Co332 Co 0.27722 0.00307 0.51657 0.0
N333 N 0.29708 0.01855 0.49958 0.0
C334 C 0.31643 0.01595 0.50201 0.0
C335 C 0.32646 0.02821 0.48742 0.0
C336 C 0.31269 0.0393 0.47483 0.0
C337 C 0.29499 0.03324 0.48265 0.0
N338 N 0.25687 0.01925 0.49789 0.0
C339 C 0.25854 0.03453 0.48221 0.0
C340 C 0.24064 0.0424 0.47488 0.0
C341 C 0.22718 0.03168 0.48615 0.0
C342 C 0.23758 0.01802 0.49986 0.0
N343 N 0.25731 0.9868 0.53226 0.0
C344 C 0.23794 0.9879 0.52734 0.0
C345 C 0.22787 0.97406 0.53923 0.0
C346 C 0.24162 0.96336 0.55246 0.0
C347 C 0.25939 0.97147 0.54814 0.0
N348 N 0.27757 0.02206 0.54686 0.0
C349 C 0.27725 0.05049 0.58814 0.0
C350 C 0.26081 0.03939 0.58044 0.0
C351 C 0.26123 0.02554 0.55986 0.0
C352 C 0.29406 0.04664 0.57529 0.0
C353 C 0.29395 0.03237 0.55505 0.0
N354 N 0.27681 0.98405 0.48632 0.0
C355 C 0.25891 0.96574 0.45131 0.0
C356 C 0.27514 0.95456 0.44637 0.0
C357 C 0.29249 0.95906 0.46098 0.0
C358 C 0.29304 0.97385 0.48055 0.0
C359 C 0.26002 0.9802 0.47122 0.0
H360 H 0.30668 0.97652 0.49106 0.0
H361 H 0.24699 0.98784 0.47422 0.0
H362 H 0.24806 0.01794 0.55474 0.0
H363 H 0.30726 0.03011 0.54615 0.0
C364 C 0.32477 0.00325 0.52014 0.0
C365 C 0.27777 0.9641 0.55959 0.0
C366 C 0.27667 0.04212 0.47377 0.0
C367 C 0.22962 0.00295 0.513 0.0
H368 H 0.31696 0.95621 0.57808 0.0
H369 H 0.34286 0.97767 0.55681 0.0
H370 H 0.34196 0.02928 0.48655 0.0
H371 H 0.31539 0.05074 0.46165 0.0
H372 H 0.23759 0.0546 0.46258 0.0
H373 H 0.21165 0.03346 0.4843 0.0
H374 H 0.21236 0.9721 0.53857 0.0
H375 H 0.23881 0.95099 0.56402 0.0
H376 H 0.24754 0.04133 0.59018 0.0
H377 H 0.30719 0.05485 0.58034 0.0
H378 H 0.24525 0.96329 0.44002 0.0
H379 H 0.30551 0.95086 0.45794 0.0
C380 C 0.53187 0.78753 0.05 0.0
C381 C 0.53891 0.80479 0.06191 0.0
C382 C 0.52926 0.81937 0.04939 0.0
C383 C 0.51688 0.81023 0.03073 0.0
N384 N 0.51796 0.79066 0.03061 0.0
Co385 Co 0.50235 0.77174 0.00687 0.0
N386 N 0.48892 0.79325 0.98757 0.0
C387 C 0.49233 0.81248 0.99133 0.0
C388 C 0.48073 0.82372 0.97526 0.0
C389 C 0.46909 0.81093 0.96047 0.0
C390 C 0.47429 0.79256 0.96847 0.0
N391 N 0.4863 0.75283 0.98369 0.0
C392 C 0.47156 0.75602 0.96548 0.0
C393 C 0.46364 0.7388 0.95462 0.0
C394 C 0.47355 0.72416 0.96667 0.0
C395 C 0.48686 0.73325 0.98412 0.0
N396 N 0.51616 0.75022 0.0257 0.0
C397 C 0.51383 0.73095 0.02052 0.0
C398 C 0.52585 0.7197 0.036 0.0
C399 C 0.53668 0.73251 0.05188 0.0
C400 C 0.53055 0.75092 0.04519 0.0
N401 N 0.48194 0.77204 0.03229 0.0
C402 C 0.45033 0.77205 0.06416 0.0
C403 C 0.4589 0.75473 0.05604 0.0
C404 C 0.47458 0.75505 0.04039 0.0
C405 C 0.45841 0.78944 0.057 0.0
C406 C 0.4741 0.7891 0.04118 0.0
N407 N 0.52274 0.77142 0.98125 0.0
C408 C 0.5418 0.75395 0.95015 0.0
C409 C 0.5522 0.77066 0.94578 0.0
C410 C 0.54754 0.78781 0.95928 0.0
C411 C 0.53278 0.78791 0.9766 0.0
C412 C 0.52737 0.75462 0.9679 0.0
H413 H 0.52982 0.8015 0.98604 0.0
H414 H 0.5203 0.74127 0.97061 0.0
H415 H 0.48029 0.74134 0.03473 0.0
H416 H 0.4794 0.8028 0.03595 0.0
C417 C 0.50511 0.81958 0.01184 0.0
C418 C 0.53923 0.7686 0.05742 0.0
C419 C 0.46428 0.77501 0.95826 0.0
C420 C 0.49999 0.72385 1.0013 0.0
H421 H 0.55008 0.80664 0.07775 0.0
H422 H 0.53134 0.8348 0.05305 0.0
H423 H 0.48031 0.83938 0.97498 0.0
H424 H 0.45773 0.8147 0.94592 0.0
H425 H 0.45177 0.73701 0.93975 0.0
H426 H 0.47116 0.70874 0.96335 0.0
H427 H 0.5267 0.70404 0.03568 0.0
H428 H 0.54794 0.72873 0.06655 0.0
H429 H 0.45346 0.74089 0.06162 0.0
H430 H 0.4523 0.80324 0.06285 0.0
H431 H 0.54506 0.74026 0.94033 0.0
H432 H 0.55512 0.80118 0.95632 0.0
C433 C 0.22554 0.52893 0.05046 0.0
C434 C 0.20829 0.5365 0.05867 0.0
C435 C 0.19376 0.52763 0.04333 0.0
C436 C 0.20285 0.51536 0.02651 0.0
N437 N 0.22236 0.5157 0.03023 0.0
Co438 Co 0.24117 0.50111 0.00869 0.0
N439 N 0.21967 0.48895 0.98526 0.0
C440 C 0.20048 0.49167 0.98692 0.0
C441 C 0.18919 0.4815 0.96802 0.0
C442 C 0.2019 0.47147 0.95352 0.0
C443 C 0.22029 0.47605 0.9646 0.0
N444 N 0.25998 0.48671 0.98695 0.0
C445 C 0.25679 0.47385 0.96629 0.0
C446 C 0.27403 0.46666 0.95755 0.0
C447 C 0.28858 0.4754 0.97303 0.0
C448 C 0.27951 0.48727 0.99039 0.0
N449 N 0.26265 0.51313 0.0323 0.0
C450 C 0.28182 0.50995 0.03114 0.0
C451 C 0.29306 0.51992 0.05031 0.0
C452 C 0.28035 0.53024 0.06448 0.0
C453 C 0.26201 0.52608 0.05292 0.0
N454 N 0.24042 0.47876 0.0324 0.0
C455 C 0.23955 0.44654 0.0651 0.0
C456 C 0.25682 0.45286 0.05577 0.0
C457 C 0.25695 0.46888 0.03982 0.0
C458 C 0.2227 0.45677 0.05797 0.0
C459 C 0.22343 0.47258 0.04157 0.0
N460 N 0.24197 0.52341 0.98496 0.0
C461 C 0.26018 0.54574 0.96061 0.0
C462 C 0.24327 0.55484 0.95095 0.0
C463 C 0.22569 0.54795 0.95879 0.0
C464 C 0.22537 0.53233 0.97551 0.0
C465 C 0.25922 0.53032 0.97753 0.0
H466 H 0.21149 0.5277 0.98046 0.0
H467 H 0.27266 0.52426 0.98441 0.0
H468 H 0.27066 0.47294 0.03374 0.0
H469 H 0.21003 0.4795 0.03644 0.0
C470 C 0.19348 0.50397 0.00633 0.0
C471 C 0.24454 0.53525 0.06183 0.0
C472 C 0.23779 0.46743 0.95507 0.0
C473 C 0.28887 0.49808 0.01124 0.0
H474 H 0.20628 0.54758 0.07379 0.0
H475 H 0.1784 0.53018 0.04393 0.0
H476 H 0.17358 0.48136 0.96516 0.0
H477 H 0.19806 0.46178 0.93676 0.0
H478 H 0.27598 0.45591 0.94198 0.0
H479 H 0.30395 0.47298 0.9722 0.0
H480 H 0.30866 0.51987 0.05341 0.0
H481 H 0.28416 0.53994 0.08124 0.0
H482 H 0.27031 0.44561 0.06101 0.0
H483 H 0.20892 0.45236 0.06455 0.0
H484 H 0.27419 0.55068 0.95548 0.0
H485 H 0.21216 0.55438 0.95171 0.0
C486 C 0.47215 0.25677 0.99135 0.0
C487 C 0.46559 0.275 0.98444 0.0
C488 C 0.47679 0.28816 0.99923 0.0
C489 C 0.48939 0.27727 0.01438 0.0
N490 N 0.48714 0.25794 0.00994 0.0
Co491 Co 0.50146 0.23693 0.02923 0.0
N492 N 0.51787 0.25631 0.05112 0.0
C493 C 0.51757 0.27578 0.04915 0.0
C494 C 0.53158 0.28529 0.06499 0.0
C495 C 0.54164 0.27104 0.07764 0.0
C496 C 0.53299 0.25356 0.06899 0.0
N497 N 0.5151 0.21595 0.04931 0.0
C498 C 0.5296 0.21707 0.06859 0.0
C499 C 0.53427 0.19895 0.07803 0.0
C500 C 0.52266 0.18586 0.06375 0.0
C501 C 0.51147 0.1967 0.04667 0.0
N502 N 0.48572 0.2175 0.00654 0.0
C503 C 0.48724 0.19799 0.0068 0.0
C504 C 0.47476 0.18841 0.98868 0.0
C505 C 0.46458 0.20265 0.97614 0.0
C506 C 0.4714 0.22015 0.98752 0.0
N507 N 0.5215 0.23606 0.0031 0.0
C508 C 0.55124 0.23531 0.96794 0.0
C509 C 0.54527 0.21836 0.97913 0.0
C510 C 0.5304 0.21902 0.99633 0.0
C511 C 0.54186 0.25257 0.97438 0.0
C512 C 0.52724 0.25263 0.99189 0.0
N513 N 0.48143 0.23785 0.05539 0.0
C514 C 0.45628 0.22223 0.07763 0.0
C515 C 0.45179 0.23962 0.09082 0.0
C516 C 0.46271 0.25602 0.08623 0.0
C517 C 0.47726 0.25484 0.06861 0.0
C518 C 0.47104 0.22165 0.06029 0.0
H519 H 0.48485 0.26792 0.06594 0.0
H520 H 0.47363 0.20795 0.05086 0.0
H521 H 0.52642 0.20556 0.00401 0.0
H522 H 0.52097 0.26635 0.99624 0.0
C523 C 0.50389 0.28473 0.03231 0.0
C524 C 0.46332 0.23883 0.98023 0.0
C525 C 0.53999 0.23473 0.0777 0.0
C526 C 0.49893 0.18912 0.02621 0.0
H527 H 0.45382 0.27845 0.97034 0.0
H528 H 0.4758 0.30379 0.99905 0.0
H529 H 0.53434 0.30073 0.06682 0.0
H530 H 0.55411 0.27335 0.09136 0.0
H531 H 0.54526 0.19549 0.09325 0.0
H532 H 0.5228 0.17026 0.06508 0.0
H533 H 0.47284 0.17291 0.98557 0.0
H534 H 0.45314 0.20041 0.96075 0.0
H535 H 0.55194 0.20458 0.97447 0.0
H536 H 0.54607 0.26612 0.96642 0.0
H537 H 0.4482 0.20911 0.0802 0.0
H538 H 0.46016 0.26979 0.09628 0.0
C539 C 0.74793 0.53706 0.06266 0.0
C540 C 0.73025 0.54379 0.07038 0.0
C541 C 0.71631 0.53348 0.05565 0.0
C542 C 0.7262 0.52108 0.03984 0.0
N543 N 0.74564 0.52284 0.04353 0.0
Co544 Co 0.76539 0.50745 0.02468 0.0
N545 N 0.74482 0.49299 0.00213 0.0
C546 C 0.72557 0.49625 0.00136 0.0
C547 C 0.71503 0.48431 0.98363 0.0
C548 C 0.72832 0.47265 0.97246 0.0
C549 C 0.74627 0.47809 0.98421 0.0
N550 N 0.78509 0.49129 0.00677 0.0
C551 C 0.78272 0.47605 0.98916 0.0
C552 C 0.80032 0.46814 0.98306 0.0
C553 C 0.81431 0.47867 0.99738 0.0
C554 C 0.80451 0.49228 0.01147 0.0
N555 N 0.78597 0.52251 0.04637 0.0
C556 C 0.80529 0.52083 0.04489 0.0
C557 C 0.81586 0.53364 0.06135 0.0
C558 C 0.80249 0.54432 0.07392 0.0
C559 C 0.78447 0.53737 0.06436 0.0
N560 N 0.76487 0.4877 0.05176 0.0
C561 C 0.76441 0.45756 0.08725 0.0
C562 C 0.78164 0.46694 0.08287 0.0
C563 C 0.78155 0.48186 0.06516 0.0
C564 C 0.74731 0.46403 0.07435 0.0
C565 C 0.74785 0.47905 0.05692 0.0
N566 N 0.76596 0.52729 0.99751 0.0
C567 C 0.78358 0.5457 0.96758 0.0
C568 C 0.76733 0.5569 0.96132 0.0
C569 C 0.75027 0.55284 0.97291 0.0
C570 C 0.74983 0.53792 0.99053 0.0
C571 C 0.78265 0.53119 0.98576 0.0
H572 H 0.73628 0.53542 0.99832 0.0
H573 H 0.79571 0.52353 0.99015 0.0
H574 H 0.7952 0.48819 0.06226 0.0
H575 H 0.73436 0.48323 0.04757 0.0
C576 C 0.71771 0.50903 0.0196 0.0
C577 C 0.76641 0.54533 0.0731 0.0
C578 C 0.76416 0.4683 0.97819 0.0
C579 C 0.81308 0.50645 0.0288 0.0
H580 H 0.72765 0.5553 0.08472 0.0
H581 H 0.70082 0.53523 0.05586 0.0
H582 H 0.69948 0.48372 0.9799 0.0
H583 H 0.72513 0.46117 0.95771 0.0
H584 H 0.80278 0.45591 0.9698 0.0
H585 H 0.82978 0.47657 0.99761 0.0
H586 H 0.83143 0.53496 0.06403 0.0
H587 H 0.80564 0.5559 0.08853 0.0
H588 H 0.79527 0.46237 0.09235 0.0
H589 H 0.73355 0.45742 0.07751 0.0
H590 H 0.79711 0.54845 0.95899 0.0
H591 H 0.73725 0.56106 0.96825 0.0
H592 H 0.19437 0.21276 0.35003 0.0
H593 H 0.16587 0.22263 0.37187 0.0
H594 H 0.17223 0.28092 0.34628 0.0
H595 H 0.20178 0.27125 0.32519 0.0
H596 H 0.16269 0.28154 0.39633 0.0
H597 H 0.13688 0.25078 0.31696 0.0
H598 H 0.1332 0.22562 0.2813 0.0
H599 H 0.11663 0.18422 0.3362 0.0
H600 H 0.12049 0.20905 0.3723 0.0
H601 H 0.06587 0.29802 0.43927 0.0
H602 H 0.09305 0.29541 0.41126 0.0
H603 H 0.10542 0.23819 0.43858 0.0
H604 H 0.07906 0.24093 0.46758 0.0
H605 H 0.10323 0.24142 0.38217 0.0
H606 H 0.1331 0.27272 0.46194 0.0
H607 H 0.13629 0.29874 0.49651 0.0
H608 H 0.14385 0.34065 0.43808 0.0
H609 H 0.14042 0.31488 0.4031 0.0
C610 C 0.19 0.2278 0.3493 0.0
C611 C 0.20063 0.24127 0.33611 0.0
C612 C 0.17343 0.23336 0.36151 0.0
C613 C 0.16664 0.25246 0.36042 0.0
C614 C 0.17713 0.26606 0.34729 0.0
C615 C 0.19393 0.2605 0.33511 0.0
C616 C 0.14874 0.25791 0.37348 0.0
C617 C 0.14955 0.27304 0.39279 0.0
C618 C 0.13155 0.24679 0.36905 0.0
C619 C 0.12909 0.23178 0.34738 0.0
C620 C 0.13257 0.23628 0.32147 0.0
C621 C 0.13044 0.22207 0.30117 0.0
C622 C 0.12471 0.20332 0.30649 0.0
C623 C 0.12107 0.19875 0.33212 0.0
C624 C 0.1232 0.2129 0.3525 0.0
C625 C 0.07451 0.28498 0.43971 0.0
C626 C 0.07006 0.26966 0.45577 0.0
C627 C 0.08999 0.28349 0.4235 0.0
C628 C 0.10121 0.26659 0.42279 0.0
C629 C 0.09684 0.2513 0.43867 0.0
C630 C 0.0816 0.25287 0.45513 0.0
C631 C 0.11746 0.26458 0.40543 0.0
C632 C 0.11628 0.25011 0.38531 0.0
C633 C 0.13414 0.27647 0.40887 0.0
C634 C 0.13625 0.29192 0.42989 0.0
C635 C 0.13525 0.28751 0.45644 0.0
C636 C 0.13714 0.30221 0.47611 0.0
C637 C 0.1402 0.32135 0.46949 0.0
C638 C 0.14143 0.32582 0.44318 0.0
C639 C 0.13952 0.31118 0.42342 0.0
H640 H 0.14167 0.33271 0.48475 0.0
H641 H 0.12307 0.19234 0.29074 0.0
H642 H 0.79734 0.19372 0.33876 0.0
H643 H 0.78687 0.16519 0.36014 0.0
H644 H 0.72952 0.17103 0.32275 0.0
H645 H 0.7397 0.20053 0.30211 0.0
H646 H 0.72801 0.16138 0.37327 0.0
H647 H 0.75976 0.13656 0.29989 0.0
H648 H 0.78543 0.13369 0.26896 0.0
H649 H 0.82587 0.11675 0.33149 0.0
H650 H 0.80051 0.11978 0.36291 0.0
H651 H 0.71353 0.0631 0.41734 0.0
H652 H 0.71539 0.09 0.38768 0.0
H653 H 0.77077 0.10655 0.42555 0.0
H654 H 0.76868 0.0806 0.45612 0.0
H655 H 0.76819 0.1021 0.36747 0.0
H656 H 0.73657 0.13226 0.44113 0.0
H657 H 0.71042 0.1349 0.4714 0.0
H658 H 0.66868 0.14061 0.40586 0.0
H659 H 0.69459 0.13773 0.37517 0.0
C660 C 0.78237 0.18926 0.33539 0.0
C661 C 0.76931 0.19957 0.31885 0.0
C662 C 0.77648 0.17271 0.34735 0.0
C663 C 0.75751 0.16574 0.34264 0.0
C664 C 0.74427 0.17608 0.32648 0.0
C665 C 0.75014 0.19284 0.31459 0.0
C666 C 0.75182 0.14768 0.35491 0.0
C667 C 0.73651 0.14827 0.37151 0.0
C668 C 0.76292 0.13055 0.35267 0.0
C669 C 0.77822 0.12849 0.33379 0.0
C670 C 0.77415 0.13233 0.30709 0.0
C671 C 0.78865 0.13066 0.28946 0.0
C672 C 0.80727 0.12506 0.29826 0.0
C673 C 0.81143 0.12107 0.3247 0.0
C674 C 0.79699 0.12273 0.34242 0.0
C675 C 0.72599 0.07261 0.41965 0.0
C676 C 0.74103 0.0695 0.43909 0.0
C677 C 0.72706 0.08787 0.40255 0.0
C678 C 0.74327 0.1001 0.40442 0.0
C679 C 0.75824 0.09709 0.42369 0.0
C680 C 0.75706 0.08212 0.44102 0.0
C681 C 0.74491 0.11613 0.38638 0.0
C682 C 0.75945 0.11509 0.36868 0.0
C683 C 0.73298 0.13269 0.38741 0.0
C684 C 0.71746 0.13452 0.40585 0.0
C685 C 0.72179 0.13388 0.43316 0.0
C686 C 0.70703 0.13546 0.4504 0.0
C687 C 0.68789 0.13785 0.44055 0.0
C688 C 0.6835 0.13872 0.41345 0.0
C689 C 0.69822 0.13712 0.39613 0.0
H690 H 0.67648 0.13908 0.45392 0.0
H691 H 0.81848 0.12379 0.28458 0.0
H692 H 0.78896 0.72841 0.35337 0.0
H693 H 0.82123 0.72013 0.37245 0.0
H694 H 0.84616 0.76522 0.32945 0.0
H695 H 0.81381 0.77389 0.31083 0.0
H696 H 0.86815 0.72671 0.33429 0.0
H697 H 0.83769 0.77863 0.38363 0.0
H698 H 0.81076 0.79279 0.40689 0.0
H699 H 0.81485 0.74684 0.46132 0.0
H700 H 0.84148 0.73212 0.43791 0.0
H701 H 0.95706 0.74662 0.40801 0.0
H702 H 0.92601 0.74728 0.38197 0.0
H703 H 0.89865 0.7197 0.44424 0.0
H704 H 0.92955 0.72011 0.4708 0.0
H705 H 0.87716 0.74727 0.42873 0.0
H706 H 0.90813 0.69583 0.38319 0.0
H707 H 0.93403 0.67951 0.36012 0.0
H708 H 0.92857 0.72117 0.29977 0.0
H709 H 0.90282 0.73793 0.32269 0.0
C710 C 0.8014 0.73615 0.3474 0.0
C711 C 0.799 0.75175 0.33063 0.0
C712 C 0.81977 0.73146 0.35836 0.0
C713 C 0.836 0.74212 0.35238 0.0
C714 C 0.83379 0.75679 0.33416 0.0
C715 C 0.81538 0.76174 0.32361 0.0
C716 C 0.85477 0.73957 0.36749 0.0
C717 C 0.87027 0.73131 0.35488 0.0
C718 C 0.85723 0.74512 0.3945 0.0
C719 C 0.84138 0.75411 0.40876 0.0
C720 C 0.83269 0.77141 0.40035 0.0
C721 C 0.8175 0.77956 0.41359 0.0
C722 C 0.81105 0.77068 0.43551 0.0
C723 C 0.81981 0.75367 0.44428 0.0
C724 C 0.83494 0.7454 0.43101 0.0
C725 C 0.94436 0.7407 0.416 0.0
C726 C 0.94552 0.73348 0.44139 0.0
C727 C 0.92667 0.74089 0.40106 0.0
C728 C 0.90994 0.73331 0.41094 0.0
C729 C 0.91129 0.72565 0.43614 0.0
C730 C 0.92891 0.72579 0.45125 0.0
C731 C 0.89087 0.73433 0.39566 0.0
C732 C 0.87521 0.74243 0.40821 0.0
C733 C 0.88823 0.72832 0.36871 0.0
C734 C 0.90365 0.71824 0.35479 0.0
C735 C 0.91255 0.7016 0.3651 0.0
C736 C 0.92719 0.69225 0.35203 0.0
C737 C 0.93297 0.69932 0.32853 0.0
C738 C 0.92408 0.71573 0.318 0.0
C739 C 0.90945 0.72514 0.331 0.0
H740 H 0.9443 0.69207 0.31844 0.0
H741 H 0.7993 0.77702 0.44576 0.0
H742 H 0.26814 0.8008 0.28585 0.0
H743 H 0.27977 0.83104 0.30861 0.0
H744 H 0.22357 0.84008 0.33815 0.0
H745 H 0.21174 0.8106 0.31484 0.0
H746 H 0.23655 0.87257 0.32016 0.0
H747 H 0.26237 0.82222 0.3764 0.0
H748 H 0.2818 0.79317 0.38642 0.0
H749 H 0.33297 0.8224 0.3661 0.0
H750 H 0.31378 0.85155 0.35564 0.0
H751 H 0.24501 0.92924 0.43655 0.0
H752 H 0.24197 0.9024 0.40414 0.0
H753 H 0.299 0.91433 0.38028 0.0
H754 H 0.30199 0.94188 0.41221 0.0
H755 H 0.29096 0.87391 0.38884 0.0
H756 H 0.26462 0.92645 0.34006 0.0
H757 H 0.24439 0.9553 0.33235 0.0
H758 H 0.19327 0.92161 0.34026 0.0
H759 H 0.21321 0.89261 0.34843 0.0
C760 C 0.25829 0.80931 0.29714 0.0
C761 C 0.2391 0.80315 0.29882 0.0
C762 C 0.26497 0.8265 0.31024 0.0
C763 C 0.25257 0.83775 0.32524 0.0
C764 C 0.23341 0.83165 0.32672 0.0
C765 C 0.22674 0.81462 0.31363 0.0
C766 C 0.25919 0.85591 0.3396 0.0
C767 C 0.24844 0.87284 0.33519 0.0
C768 C 0.2751 0.85645 0.35863 0.0
C769 C 0.28661 0.83895 0.36491 0.0
C770 C 0.27774 0.82239 0.37385 0.0
C771 C 0.28871 0.80592 0.37965 0.0
C772 C 0.3086 0.80591 0.3768 0.0
C773 C 0.31756 0.8224 0.36823 0.0
C774 C 0.30665 0.8389 0.36237 0.0
C775 C 0.25683 0.92645 0.42417 0.0
C776 C 0.27365 0.93795 0.42681 0.0
C777 C 0.2551 0.91099 0.40576 0.0
C778 C 0.27018 0.90654 0.38968 0.0
C779 C 0.2872 0.9176 0.39254 0.0
C780 C 0.28889 0.93327 0.41086 0.0
C781 C 0.26783 0.89023 0.37001 0.0
C782 C 0.27937 0.87372 0.37338 0.0
C783 C 0.25254 0.88999 0.35014 0.0
C784 C 0.24044 0.90737 0.345 0.0
C785 C 0.24908 0.92522 0.34034 0.0
C786 C 0.23765 0.9416 0.33586 0.0
C787 C 0.21756 0.94029 0.33585 0.0
C788 C 0.20884 0.9226 0.34027 0.0
C789 C 0.2202 0.90617 0.34479 0.0
H790 H 0.20874 0.95299 0.33238 0.0
H791 H 0.31707 0.79316 0.38131 0.0
H792 H 0.19797 0.74312 0.7165 0.0
H793 H 0.16706 0.73351 0.69377 0.0
H794 H 0.17137 0.78051 0.64128 0.0
H795 H 0.20295 0.78863 0.66127 0.0
H796 H 0.13334 0.74655 0.68487 0.0
H797 H 0.15315 0.77143 0.58176 0.0
H798 H 0.18204 0.77339 0.55646 0.0
H799 H 0.20956 0.72909 0.60245 0.0
H800 H 0.18075 0.72667 0.62778 0.0
H801 H 0.04775 0.75672 0.60333 0.0
H802 H 0.07814 0.75931 0.63059 0.0
H803 H 0.10471 0.71935 0.57671 0.0
H804 H 0.07494 0.71863 0.54806 0.0
H805 H 0.12855 0.74402 0.58732 0.0
H806 H 0.09197 0.7088 0.64387 0.0
H807 H 0.06439 0.70045 0.66923 0.0
H808 H 0.07239 0.7533 0.71599 0.0
H809 H 0.09986 0.76211 0.69068 0.0
C810 C 0.19255 0.75125 0.69984 0.0
C811 C 0.20337 0.76663 0.69084 0.0
C812 C 0.17467 0.74586 0.68705 0.0
C813 C 0.16703 0.75593 0.66527 0.0
C814 C 0.17715 0.77204 0.65744 0.0
C815 C 0.19521 0.77701 0.66952 0.0
C816 C 0.14882 0.74951 0.65011 0.0
C817 C 0.13229 0.74587 0.66353 0.0
C818 C 0.14752 0.7478 0.62225 0.0
C819 C 0.16482 0.74898 0.6068 0.0
C820 C 0.16532 0.76203 0.58637 0.0
C821 C 0.18169 0.76324 0.57205 0.0
C822 C 0.19764 0.75141 0.57788 0.0
C823 C 0.19722 0.73829 0.598 0.0
C824 C 0.18088 0.737 0.61236 0.0
C825 C 0.06018 0.74861 0.59734 0.0
C826 C 0.05913 0.7377 0.57347 0.0
C827 C 0.07749 0.74981 0.61316 0.0
C828 C 0.09386 0.73931 0.60609 0.0
C829 C 0.09247 0.72774 0.58268 0.0
C830 C 0.0754 0.72718 0.56638 0.0
C831 C 0.11276 0.74145 0.62196 0.0
C832 C 0.1295 0.74437 0.60864 0.0
C833 C 0.11439 0.74141 0.64986 0.0
C834 C 0.0979 0.73618 0.66523 0.0
C835 C 0.08778 0.71871 0.65945 0.0
C836 C 0.07217 0.71388 0.67383 0.0
C837 C 0.06662 0.72635 0.69418 0.0
C838 C 0.0767 0.74366 0.70022 0.0
C839 C 0.09231 0.74856 0.68588 0.0
H840 H 0.05453 0.72259 0.70529 0.0
H841 H 0.21031 0.75239 0.56679 0.0
H842 H 0.2682 0.19879 0.75606 0.0
H843 H 0.28238 0.1705 0.73394 0.0
H844 H 0.22524 0.15054 0.70651 0.0
H845 H 0.21111 0.178 0.72931 0.0
H846 H 0.246 0.12118 0.72211 0.0
H847 H 0.25526 0.17615 0.66752 0.0
H848 H 0.26791 0.20839 0.65841 0.0
H849 H 0.32589 0.18876 0.67653 0.0
H850 H 0.31353 0.15644 0.68605 0.0
H851 H 0.24703 0.07463 0.59779 0.0
H852 H 0.24525 0.09943 0.63277 0.0
H853 H 0.30427 0.0881 0.65983 0.0
H854 H 0.306 0.06231 0.62561 0.0
H855 H 0.29035 0.13084 0.65159 0.0
H856 H 0.27905 0.07302 0.69761 0.0
H857 H 0.26425 0.04109 0.70296 0.0
H858 H 0.2078 0.06676 0.69777 0.0
H859 H 0.22225 0.0988 0.69195 0.0
C860 C 0.25871 0.18822 0.74553 0.0
C861 C 0.23855 0.1908 0.74406 0.0
C862 C 0.26682 0.17215 0.73277 0.0
C863 C 0.25487 0.1585 0.71831 0.0
C864 C 0.23477 0.16085 0.7175 0.0
C865 C 0.22671 0.17673 0.73028 0.0
C866 C 0.26292 0.14197 0.70315 0.0
C867 C 0.25579 0.12331 0.7068 0.0
C868 C 0.27606 0.14461 0.68355 0.0
C869 C 0.28347 0.16399 0.67783 0.0
C870 C 0.27069 0.17877 0.66976 0.0
C871 C 0.27781 0.19704 0.66449 0.0
C872 C 0.29769 0.20064 0.66698 0.0
C873 C 0.31049 0.18596 0.67468 0.0
C874 C 0.30345 0.16767 0.68001 0.0
C875 C 0.25959 0.07707 0.61136 0.0
C876 C 0.27659 0.06619 0.60898 0.0
C877 C 0.25858 0.09142 0.6312 0.0
C878 C 0.2746 0.09546 0.64885 0.0
C879 C 0.29179 0.08513 0.64628 0.0
C880 C 0.29274 0.07048 0.62662 0.0
C881 C 0.27286 0.11038 0.67009 0.0
C882 C 0.2811 0.12867 0.6675 0.0
C883 C 0.2605 0.10751 0.69042 0.0
C884 C 0.25174 0.08829 0.69418 0.0
C885 C 0.26347 0.07183 0.69739 0.0
C886 C 0.25514 0.05371 0.70055 0.0
C887 C 0.23509 0.05189 0.70067 0.0
C888 C 0.22333 0.06819 0.69768 0.0
C889 C 0.23158 0.08634 0.69448 0.0
H890 H 0.22867 0.03785 0.70311 0.0
H891 H 0.30317 0.21479 0.66288 0.0
H892 H 0.7888 0.28492 0.70334 0.0
H893 H 0.81903 0.29351 0.68447 0.0
H894 H 0.84723 0.24462 0.72055 0.0
H895 H 0.81703 0.23598 0.73942 0.0
H896 H 0.87171 0.27759 0.7195 0.0
H897 H 0.82859 0.23815 0.66153 0.0
H898 H 0.7973 0.23015 0.63757 0.0
H899 H 0.7999 0.28256 0.59536 0.0
H900 H 0.83106 0.29106 0.61949 0.0
H901 H 0.94592 0.25528 0.63425 0.0
H902 H 0.91824 0.25498 0.66126 0.0
H903 H 0.89067 0.29926 0.6146 0.0
H904 H 0.91801 0.29914 0.58686 0.0
H905 H 0.86573 0.27125 0.62198 0.0
H906 H 0.91066 0.30937 0.67771 0.0
H907 H 0.94181 0.31711 0.7022 0.0
H908 H 0.93617 0.26716 0.7486 0.0
H909 H 0.9051 0.25895 0.72414 0.0
C910 C 0.80162 0.27642 0.70801 0.0
C911 C 0.80058 0.25975 0.72279 0.0
C912 C 0.81884 0.28125 0.69706 0.0
C913 C 0.83531 0.26955 0.70083 0.0
C914 C 0.83471 0.25383 0.71737 0.0
C915 C 0.81746 0.2489 0.72811 0.0
C916 C 0.85231 0.27224 0.68517 0.0
C917 C 0.87047 0.27612 0.69819 0.0
C918 C 0.85061 0.27057 0.65735 0.0
C919 C 0.83203 0.26535 0.64253 0.0
C920 C 0.82241 0.24805 0.6473 0.0
C921 C 0.80471 0.24341 0.63367 0.0
C922 C 0.7966 0.25586 0.615 0.0
C923 C 0.80619 0.27295 0.60987 0.0
C924 C 0.82387 0.27769 0.62352 0.0
C925 C 0.93395 0.26491 0.62963 0.0
C926 C 0.93423 0.27721 0.6083 0.0
C927 C 0.9182 0.26489 0.64532 0.0
C928 C 0.90242 0.27727 0.64021 0.0
C929 C 0.9027 0.28964 0.61904 0.0
C930 C 0.91844 0.28966 0.60331 0.0
C931 C 0.8853 0.27668 0.65623 0.0
C932 C 0.86704 0.27303 0.64326 0.0
C933 C 0.88697 0.27853 0.6841 0.0
C934 C 0.90562 0.28346 0.69893 0.0
C935 C 0.91613 0.29995 0.693 0.0
C936 C 0.93376 0.30443 0.7069 0.0
C937 C 0.94099 0.29261 0.7269 0.0
C938 C 0.93057 0.27629 0.73309 0.0
C939 C 0.91293 0.27173 0.71923 0.0
H940 H 0.95464 0.2961 0.73764 0.0
H941 H 0.78289 0.25225 0.60445 0.0
H942 H 0.72464 0.79523 0.6863 0.0
H943 H 0.71881 0.82856 0.6736 0.0
H944 H 0.76407 0.84848 0.73079 0.0
H945 H 0.77053 0.81491 0.74257 0.0
H946 H 0.71056 0.86365 0.68999 0.0
H947 H 0.79215 0.88018 0.7035 0.0
H948 H 0.82314 0.86258 0.70773 0.0
H949 H 0.79757 0.81413 0.66267 0.0
H950 H 0.76652 0.83151 0.65794 0.0
H951 H 0.72286 0.95704 0.63683 0.0
H952 H 0.72357 0.92997 0.66668 0.0
H953 H 0.75547 0.89577 0.61182 0.0
H954 H 0.75554 0.92302 0.58282 0.0
H955 H 0.77041 0.89026 0.65733 0.0
H956 H 0.70489 0.89051 0.61911 0.0
H957 H 0.67279 0.90457 0.60803 0.0
H958 H 0.66443 0.91403 0.69017 0.0
H959 H 0.6966 0.90022 0.70171 0.0
C960 C 0.73287 0.80682 0.69677 0.0
C961 C 0.74814 0.80261 0.71517 0.0
C962 C 0.72954 0.82587 0.68952 0.0
C963 C 0.74133 0.84097 0.70077 0.0
C964 C 0.75509 0.83699 0.72143 0.0
C965 C 0.75871 0.81788 0.72826 0.0
C966 C 0.74126 0.85992 0.68802 0.0
C967 C 0.72367 0.86963 0.68311 0.0
C968 C 0.75827 0.86747 0.67842 0.0
C969 C 0.77699 0.85706 0.68066 0.0
C970 C 0.79318 0.8658 0.69444 0.0
C971 C 0.81074 0.85585 0.69694 0.0
C972 C 0.81229 0.83721 0.68558 0.0
C973 C 0.79632 0.82852 0.67156 0.0
C974 C 0.77875 0.83841 0.66896 0.0
C975 C 0.73001 0.9437 0.63131 0.0
C976 C 0.7392 0.94204 0.60767 0.0
C977 C 0.73036 0.92824 0.64827 0.0
C978 C 0.73944 0.91073 0.64145 0.0
C979 C 0.74851 0.90915 0.61769 0.0
C980 C 0.74851 0.92468 0.60108 0.0
C981 C 0.73962 0.89389 0.65875 0.0
C982 C 0.75731 0.88459 0.66462 0.0
C983 C 0.72256 0.88629 0.66815 0.0
C984 C 0.70323 0.89456 0.66126 0.0
C985 C 0.69626 0.89572 0.63479 0.0
C986 C 0.67805 0.90362 0.62843 0.0
C987 C 0.6666 0.91025 0.64838 0.0
C988 C 0.67333 0.90893 0.67474 0.0
C989 C 0.69154 0.90106 0.6812 0.0
H990 H 0.65251 0.91635 0.64342 0.0
H991 H 0.82588 0.82952 0.68759 0.0
H992 H 0.80783 0.7318 0.71597 0.0
H993 H 0.83764 0.72597 0.69361 0.0
H994 H 0.82245 0.77201 0.64127 0.0
H995 H 0.79255 0.77729 0.66263 0.0
H996 H 0.83519 0.74213 0.61438 0.0
H997 H 0.85645 0.77813 0.69395 0.0
H998 H 0.86048 0.78466 0.74191 0.0
H999 H 0.89166 0.73136 0.7511 0.0
H1000 H 0.88759 0.72439 0.70319 0.0
H1001 H 0.92341 0.76574 0.56306 0.0
H1002 H 0.89469 0.76691 0.58817 0.0
H1003 H 0.91456 0.71668 0.62973 0.0
H1004 H 0.94359 0.71562 0.60496 0.0
H1005 H 0.89983 0.74521 0.6627 0.0
H1006 H 0.88043 0.71124 0.58118 0.0
H1007 H 0.87686 0.70643 0.53291 0.0
H1008 H 0.84225 0.75783 0.52713 0.0
H1009 H 0.84587 0.76313 0.57535 0.0
C1010 C 0.81084 0.74057 0.6996 0.0
C1011 C 0.79796 0.75521 0.69137 0.0
C1012 C 0.82793 0.73733 0.68696 0.0
C1013 C 0.83242 0.74871 0.66593 0.0
C1014 C 0.81939 0.76308 0.65747 0.0
C1015 C 0.80237 0.76625 0.66996 0.0
C1016 C 0.8506 0.74583 0.65245 0.0
C1017 C 0.84931 0.74295 0.62496 0.0
C1018 C 0.86906 0.74647 0.66625 0.0
C1019 C 0.87151 0.75063 0.69504 0.0
C1020 C 0.86402 0.76772 0.70623 0.0
C1021 C 0.86634 0.77152 0.7334 0.0
C1022 C 0.87626 0.75841 0.74956 0.0
C1023 C 0.88394 0.74149 0.73857 0.0
C1024 C 0.88164 0.73761 0.71141 0.0
C1025 C 0.92182 0.75509 0.57778 0.0
C1026 C 0.93578 0.74055 0.58197 0.0
C1027 C 0.90531 0.75568 0.59196 0.0
C1028 C 0.90237 0.74174 0.61059 0.0
C1029 C 0.91651 0.72752 0.61536 0.0
C1030 C 0.93301 0.72686 0.60107 0.0
C1031 C 0.88436 0.74188 0.62467 0.0
C1032 C 0.88568 0.7442 0.65221 0.0
C1033 C 0.86591 0.74093 0.6109 0.0
C1034 C 0.86355 0.73766 0.58189 0.0
C1035 C 0.87217 0.7216 0.56961 0.0
C1036 C 0.87013 0.71877 0.54225 0.0
C1037 C 0.85937 0.73184 0.52696 0.0
C1038 C 0.85059 0.74773 0.539 0.0
C1039 C 0.85262 0.75064 0.56635 0.0
H1040 H 0.85781 0.72963 0.50578 0.0
H1041 H 0.87805 0.76138 0.77059 0.0
H1042 H 0.27906 0.79892 0.67075 0.0
H1043 H 0.28651 0.82889 0.64951 0.0
H1044 H 0.24782 0.86033 0.69827 0.0
H1045 H 0.23987 0.83018 0.71884 0.0
H1046 H 0.23986 0.86955 0.65088 0.0
H1047 H 0.29942 0.86617 0.70356 0.0
H1048 H 0.32942 0.8513 0.72214 0.0
H1049 H 0.34954 0.84363 0.64474 0.0
H1050 H 0.31954 0.85822 0.62563 0.0
H1051 H 0.26362 0.96284 0.60813 0.0
H1052 H 0.26208 0.93484 0.63617 0.0
H1053 H 0.29095 0.89976 0.57918 0.0
H1054 H 0.29226 0.92775 0.55098 0.0
H1055 H 0.30465 0.89332 0.63176 0.0
H1056 H 0.244 0.89642 0.57988 0.0
H1057 H 0.21444 0.91272 0.56251 0.0
H1058 H 0.19673 0.92208 0.64097 0.0
H1059 H 0.22639 0.90616 0.65886 0.0
C1060 C 0.2726 0.81233 0.67748 0.0
C1061 C 0.25897 0.8122 0.6966 0.0
C1062 C 0.27684 0.82953 0.66527 0.0
C1063 C 0.26782 0.84707 0.67224 0.0
C1064 C 0.25493 0.84707 0.69233 0.0
C1065 C 0.2505 0.82984 0.70427 0.0
C1066 C 0.27058 0.86501 0.65729 0.0
C1067 C 0.25409 0.87488 0.64721 0.0
C1068 C 0.28907 0.8719 0.65173 0.0
C1069 C 0.30714 0.86313 0.66314 0.0
C1070 C 0.31017 0.86118 0.69047 0.0
C1071 C 0.32719 0.85282 0.70111 0.0
C1072 C 0.34135 0.84648 0.68462 0.0
C1073 C 0.33855 0.84852 0.65748 0.0
C1074 C 0.32155 0.85686 0.64674 0.0
C1075 C 0.2697 0.94915 0.60172 0.0
C1076 C 0.27795 0.94737 0.57738 0.0
C1077 C 0.26884 0.93318 0.61771 0.0
C1078 C 0.27629 0.91512 0.60973 0.0
C1079 C 0.28514 0.91352 0.58579 0.0
C1080 C 0.28585 0.92946 0.56968 0.0
C1081 C 0.27399 0.89773 0.62571 0.0
C1082 C 0.2905 0.88797 0.63577 0.0
C1083 C 0.25554 0.89103 0.63149 0.0
C1084 C 0.23752 0.90026 0.62072 0.0
C1085 C 0.23387 0.90208 0.59344 0.0
C1086 C 0.21709 0.91124 0.5835 0.0
C1087 C 0.20373 0.91847 0.60063 0.0
C1088 C 0.2071 0.9165 0.62773 0.0
C1089 C 0.2239 0.9074 0.63778 0.0
H1090 H 0.19075 0.92557 0.59289 0.0
H1091 H 0.35452 0.84002 0.69289 0.0
H1092 H 0.17471 0.20989 0.7296 0.0
H1093 H 0.14625 0.22109 0.70396 0.0
H1094 H 0.16107 0.28031 0.72711 0.0
H1095 H 0.19019 0.26908 0.75236 0.0
H1096 H 0.11488 0.23991 0.71443 0.0
H1097 H 0.14704 0.30873 0.67465 0.0
H1098 H 0.17881 0.32233 0.66617 0.0
H1099 H 0.20141 0.26489 0.65548 0.0
H1100 H 0.16973 0.25098 0.66357 0.0
H1101 H 0.03929 0.28332 0.63598 0.0
H1102 H 0.0668 0.28058 0.66876 0.0
H1103 H 0.10268 0.26063 0.60748 0.0
H1104 H 0.07527 0.26377 0.57476 0.0
H1105 H 0.12278 0.28452 0.64204 0.0
H1106 H 0.08129 0.22898 0.64525 0.0
H1107 H 0.05037 0.21231 0.64993 0.0
H1108 H 0.04817 0.2375 0.728 0.0
H1109 H 0.07894 0.2546 0.7236 0.0
C1110 C 0.172 0.22532 0.72919 0.0
C1111 C 0.18491 0.23863 0.74261 0.0
C1112 C 0.15558 0.2317 0.71472 0.0
C1113 C 0.15158 0.25155 0.71332 0.0
C1114 C 0.16399 0.26492 0.72761 0.0
C1115 C 0.18054 0.2585 0.74216 0.0
C1116 C 0.13485 0.25794 0.6959 0.0
C1117 C 0.11658 0.24986 0.69882 0.0
C1118 C 0.13706 0.27067 0.6752 0.0
C1119 C 0.1561 0.27885 0.67005 0.0
C1120 C 0.15879 0.29903 0.67044 0.0
C1121 C 0.17677 0.30678 0.6657 0.0
C1122 C 0.19214 0.29448 0.66039 0.0
C1123 C 0.18953 0.2744 0.6597 0.0
C1124 C 0.17157 0.26658 0.66439 0.0
C1125 C 0.05316 0.27862 0.62962 0.0
C1126 C 0.05531 0.27371 0.60304 0.0
C1127 C 0.06882 0.277 0.64828 0.0
C1128 C 0.08677 0.27023 0.64062 0.0
C1129 C 0.08901 0.26594 0.61385 0.0
C1130 C 0.07339 0.26763 0.59522 0.0
C1131 C 0.10289 0.2664 0.66052 0.0
C1132 C 0.12101 0.27493 0.65803 0.0
C1133 C 0.10069 0.25366 0.68119 0.0
C1134 C 0.0823 0.24324 0.68399 0.0
C1135 C 0.07414 0.23107 0.66334 0.0
C1136 C 0.05665 0.22154 0.66595 0.0
C1137 C 0.04729 0.22388 0.68923 0.0
C1138 C 0.05542 0.23573 0.70997 0.0
C1139 C 0.07289 0.24535 0.70743 0.0
H1140 H 0.03375 0.21649 0.69121 0.0
H1141 H 0.20605 0.30052 0.65675 0.0
H1142 H 0.73951 0.19391 0.73728 0.0
H1143 H 0.73378 0.16245 0.71346 0.0
H1144 H 0.75845 0.18486 0.64551 0.0
H1145 H 0.76412 0.21603 0.66905 0.0
H1146 H 0.72601 0.1634 0.6316 0.0
H1147 H 0.78511 0.15749 0.6868 0.0
H1148 H 0.80494 0.15848 0.72892 0.0
H1149 H 0.76889 0.1149 0.75823 0.0
H1150 H 0.74867 0.11386 0.71636 0.0
H1151 H 0.75269 0.08121 0.55632 0.0
H1152 H 0.75316 0.11123 0.58375 0.0
H1153 H 0.73159 0.07998 0.64724 0.0
H1154 H 0.73161 0.04983 0.61987 0.0
H1155 H 0.75914 0.10493 0.66582 0.0
H1156 H 0.70175 0.10862 0.60873 0.0
H1157 H 0.6826 0.10721 0.56608 0.0
H1158 H 0.71522 0.15478 0.54013 0.0
H1159 H 0.73479 0.15628 0.58251 0.0
C1160 C 0.74348 0.1921 0.71717 0.0
C1161 C 0.75244 0.20731 0.70511 0.0
C1162 C 0.7403 0.17414 0.70363 0.0
C1163 C 0.74585 0.17122 0.67774 0.0
C1164 C 0.75406 0.18671 0.66542 0.0
C1165 C 0.7574 0.20449 0.67896 0.0
C1166 C 0.74391 0.15197 0.66355 0.0
C1167 C 0.73332 0.15063 0.63903 0.0
C1168 C 0.75309 0.13518 0.67346 0.0
C1169 C 0.76524 0.13577 0.69859 0.0
C1170 C 0.78131 0.14824 0.70231 0.0
C1171 C 0.79264 0.14879 0.72612 0.0
C1172 C 0.78814 0.13681 0.74627 0.0
C1173 C 0.77233 0.12421 0.74262 0.0
C1174 C 0.76093 0.12363 0.71886 0.0
C1175 C 0.74815 0.08082 0.57619 0.0
C1176 C 0.742 0.06335 0.58603 0.0
C1177 C 0.7483 0.09795 0.5918 0.0
C1178 C 0.74208 0.09798 0.61746 0.0
C1179 C 0.73637 0.08037 0.6275 0.0
C1180 C 0.73631 0.0632 0.6119 0.0
C1181 C 0.74147 0.11641 0.63365 0.0
C1182 C 0.75159 0.1176 0.65852 0.0
C1183 C 0.73182 0.13308 0.62408 0.0
C1184 C 0.71983 0.13247 0.59875 0.0
C1185 C 0.70491 0.11872 0.59389 0.0
C1186 C 0.69398 0.1179 0.56976 0.0
C1187 C 0.69772 0.13088 0.55039 0.0
C1188 C 0.71235 0.14473 0.55515 0.0
C1189 C 0.72335 0.14559 0.57924 0.0
H1190 H 0.68926 0.13021 0.53171 0.0
H1191 H 0.79694 0.13724 0.76469 0.0
H1192 H 0.83494 0.24815 0.28834 0.0
H1193 H 0.86421 0.25849 0.31488 0.0
H1194 H 0.83014 0.27259 0.38047 0.0
H1195 H 0.80079 0.2624 0.35394 0.0
H1196 H 0.86169 0.29824 0.37709 0.0
H1197 H 0.84827 0.22971 0.37676 0.0
H1198 H 0.84115 0.19758 0.35547 0.0
H1199 H 0.89511 0.19872 0.31919 0.0
H1200 H 0.90237 0.23106 0.33989 0.0
H1201 H 0.92856 0.28493 0.48722 0.0
H1202 H 0.90089 0.28401 0.45439 0.0
H1203 H 0.93821 0.26381 0.39491 0.0
H1204 H 0.9658 0.26447 0.42797 0.0
H1205 H 0.90603 0.24279 0.39257 0.0
H1206 H 0.92087 0.31047 0.39681 0.0
H1207 H 0.92761 0.34249 0.41862 0.0
H1208 H 0.87117 0.34307 0.44813 0.0
H1209 H 0.8642 0.31089 0.42687 0.0
C1210 C 0.83361 0.2541 0.3081 0.0
C1211 C 0.81561 0.25436 0.31915 0.0
C1212 C 0.85035 0.25987 0.3233 0.0
C1213 C 0.84936 0.26603 0.34976 0.0
C1214 C 0.83123 0.26785 0.36012 0.0
C1215 C 0.8145 0.26196 0.345 0.0
C1216 C 0.86723 0.26824 0.36745 0.0
C1217 C 0.87137 0.28614 0.38061 0.0
C1218 C 0.87995 0.25247 0.37175 0.0
C1219 C 0.87576 0.2329 0.35962 0.0
C1220 C 0.85854 0.22318 0.36408 0.0
C1221 C 0.85449 0.20492 0.35214 0.0
C1222 C 0.86765 0.19613 0.33594 0.0
C1223 C 0.88491 0.20556 0.33171 0.0
C1224 C 0.889 0.22386 0.34353 0.0
C1225 C 0.93077 0.28045 0.46706 0.0
C1226 C 0.94915 0.27478 0.45992 0.0
C1227 C 0.91503 0.28 0.44831 0.0
C1228 C 0.91749 0.27405 0.42207 0.0
C1229 C 0.93596 0.26848 0.41498 0.0
C1230 C 0.95169 0.2689 0.43376 0.0
C1231 C 0.90065 0.27286 0.40231 0.0
C1232 C 0.89658 0.25505 0.38885 0.0
C1233 C 0.88801 0.28872 0.39783 0.0
C1234 C 0.89207 0.30818 0.4104 0.0
C1235 C 0.90994 0.31736 0.4081 0.0
C1236 C 0.9138 0.33555 0.42035 0.0
C1237 C 0.89984 0.34479 0.43479 0.0
C1238 C 0.88198 0.33589 0.43696 0.0
C1239 C 0.87805 0.31767 0.42479 0.0
H1240 H 0.90286 0.35888 0.44426 0.0
H1241 H 0.86449 0.182 0.32671 0.0
H1242 H 0.76698 0.79669 0.38095 0.0
H1243 H 0.76059 0.82757 0.40361 0.0
H1244 H 0.72748 0.84638 0.33451 0.0
H1245 H 0.73387 0.81521 0.31154 0.0
H1246 H 0.75497 0.87435 0.35757 0.0
H1247 H 0.70364 0.83474 0.38408 0.0
H1248 H 0.68949 0.80556 0.40146 0.0
H1249 H 0.72348 0.81504 0.47454 0.0
H1250 H 0.73806 0.84413 0.45746 0.0
H1251 H 0.7248 0.95962 0.42677 0.0
H1252 H 0.7247 0.92938 0.39975 0.0
H1253 H 0.7494 0.89921 0.46661 0.0
H1254 H 0.7488 0.92931 0.49373 0.0
H1255 H 0.72304 0.87731 0.44164 0.0
H1256 H 0.77655 0.91419 0.41559 0.0
H1257 H 0.79277 0.94263 0.39929 0.0
H1258 H 0.75728 0.93765 0.32683 0.0
H1259 H 0.74064 0.90933 0.34287 0.0
C1260 C 0.75835 0.8074 0.3705 0.0
C1261 C 0.75102 0.80357 0.34437 0.0
C1262 C 0.75462 0.82501 0.38355 0.0
C1263 C 0.74349 0.83927 0.37082 0.0
C1264 C 0.7361 0.83556 0.34471 0.0
C1265 C 0.73965 0.81775 0.33167 0.0
C1266 C 0.73997 0.85808 0.38496 0.0
C1267 C 0.74762 0.87511 0.37567 0.0
C1268 C 0.73091 0.85895 0.40898 0.0
C1269 C 0.72204 0.84155 0.4194 0.0
C1270 C 0.7082 0.83053 0.40379 0.0
C1271 C 0.70009 0.81401 0.4136 0.0
C1272 C 0.70561 0.80843 0.43907 0.0
C1273 C 0.71922 0.81938 0.45481 0.0
C1274 C 0.7274 0.8359 0.44508 0.0
C1275 C 0.73003 0.94645 0.43563 0.0
C1276 C 0.73676 0.94669 0.46226 0.0
C1277 C 0.73011 0.92921 0.42019 0.0
C1278 C 0.73729 0.91197 0.43098 0.0
C1279 C 0.74378 0.91224 0.45776 0.0
C1280 C 0.74351 0.92943 0.47323 0.0
C1281 C 0.73825 0.89368 0.41448 0.0
C1282 C 0.73016 0.87669 0.42337 0.0
C1283 C 0.74716 0.89281 0.39028 0.0
C1284 C 0.75719 0.90978 0.38055 0.0
C1285 C 0.7721 0.91925 0.39626 0.0
C1286 C 0.78138 0.93534 0.38706 0.0
C1287 C 0.77602 0.94198 0.36207 0.0
C1288 C 0.76139 0.93251 0.3462 0.0
C1289 C 0.75203 0.91644 0.35534 0.0
H1290 H 0.78323 0.95443 0.35497 0.0
H1291 H 0.69931 0.79563 0.44663 0.0
H1292 H 0.1708 0.75572 0.26287 0.0
H1293 H 0.14313 0.74671 0.28718 0.0
H1294 H 0.18187 0.73105 0.35277 0.0
H1295 H 0.20959 0.74029 0.32864 0.0
H1296 H 0.14711 0.70602 0.34176 0.0
H1297 H 0.16707 0.77308 0.35623 0.0
H1298 H 0.17557 0.80524 0.34109 0.0
H1299 H 0.11903 0.8102 0.30185 0.0
H1300 H 0.11035 0.77785 0.31632 0.0
H1301 H 0.08775 0.71726 0.44927 0.0
H1302 H 0.11347 0.71755 0.4189 0.0
H1303 H 0.07598 0.74783 0.36319 0.0
H1304 H 0.05038 0.74795 0.39381 0.0
H1305 H 0.10952 0.76419 0.36683 0.0
H1306 H 0.08816 0.6985 0.35436 0.0
H1307 H 0.07946 0.66585 0.36753 0.0
H1308 H 0.1373 0.65761 0.40101 0.0
H1309 H 0.14628 0.69034 0.38835 0.0
C1310 C 0.17342 0.74974 0.28211 0.0
C1311 C 0.19229 0.74871 0.29394 0.0
C1312 C 0.15763 0.74469 0.29601 0.0
C1313 C 0.16049 0.73836 0.32182 0.0
C1314 C 0.17938 0.73585 0.33285 0.0
C1315 C 0.19517 0.74117 0.31911 0.0
C1316 C 0.14392 0.73681 0.33842 0.0
C1317 C 0.13893 0.7187 0.34745 0.0
C1318 C 0.13308 0.75335 0.34535 0.0
C1319 C 0.13814 0.77296 0.3371 0.0
C1320 C 0.15651 0.78096 0.34419 0.0
C1321 C 0.16136 0.79923 0.33575 0.0
C1322 C 0.14786 0.80974 0.32047 0.0
C1323 C 0.12948 0.80203 0.31365 0.0
C1324 C 0.12459 0.78372 0.32196 0.0
C1325 C 0.08493 0.72378 0.43041 0.0
C1326 C 0.06704 0.73258 0.42391 0.0
C1327 C 0.09963 0.72389 0.41301 0.0
C1328 C 0.09663 0.73249 0.38853 0.0
C1329 C 0.07869 0.74112 0.38194 0.0
C1330 C 0.06407 0.74121 0.39946 0.0
C1331 C 0.11246 0.73328 0.37032 0.0
C1332 C 0.11746 0.75137 0.36104 0.0
C1333 C 0.12317 0.71666 0.36304 0.0
C1334 C 0.11784 0.69694 0.37061 0.0
C1335 C 0.09899 0.68978 0.3647 0.0
C1336 C 0.09401 0.67125 0.37205 0.0
C1337 C 0.10781 0.65968 0.38515 0.0
C1338 C 0.12662 0.6666 0.39088 0.0
C1339 C 0.13167 0.68513 0.3836 0.0
H1340 H 0.10392 0.64534 0.39083 0.0
H1341 H 0.15164 0.82389 0.31395 0.0
H1342 H 0.26303 0.21008 0.3716 0.0
H1343 H 0.27232 0.18115 0.39558 0.0
H1344 H 0.25656 0.14537 0.32609 0.0
H1345 H 0.24762 0.1744 0.30194 0.0
H1346 H 0.24929 0.15382 0.40776 0.0
H1347 H 0.27929 0.10145 0.32911 0.0
H1348 H 0.29827 0.10268 0.2901 0.0
H1349 H 0.32486 0.15586 0.32053 0.0
H1350 H 0.30624 0.15481 0.35987 0.0
H1351 H 0.26567 0.04335 0.42136 0.0
H1352 H 0.26366 0.07191 0.39394 0.0
H1353 H 0.28518 0.10787 0.46077 0.0
H1354 H 0.28707 0.07931 0.48809 0.0
H1355 H 0.29024 0.09889 0.3801 0.0
H1356 H 0.26081 0.15108 0.45911 0.0
H1357 H 0.24207 0.14962 0.49833 0.0
H1358 H 0.21473 0.09702 0.46714 0.0
H1359 H 0.23303 0.09835 0.42755 0.0
C1360 C 0.26205 0.19607 0.36125 0.0
C1361 C 0.25467 0.19455 0.33483 0.0
C1362 C 0.26723 0.1795 0.37503 0.0
C1363 C 0.26513 0.16095 0.36279 0.0
C1364 C 0.25863 0.15946 0.33599 0.0
C1365 C 0.25358 0.17609 0.32212 0.0
C1366 C 0.26822 0.14328 0.37868 0.0
C1367 C 0.25854 0.142 0.40187 0.0
C1368 C 0.27979 0.12746 0.37076 0.0
C1369 C 0.2912 0.12814 0.3473 0.0
C1370 C 0.28923 0.11337 0.32751 0.0
C1371 C 0.29992 0.11404 0.30534 0.0
C1372 C 0.31271 0.12937 0.3028 0.0
C1373 C 0.31489 0.14403 0.32247 0.0
C1374 C 0.30425 0.14342 0.34469 0.0
C1375 C 0.27007 0.05737 0.43002 0.0
C1376 C 0.27644 0.05924 0.45676 0.0
C1377 C 0.269 0.07365 0.41438 0.0
C1378 C 0.27411 0.09212 0.42529 0.0
C1379 C 0.28095 0.09385 0.45193 0.0
C1380 C 0.28208 0.07757 0.46751 0.0
C1381 C 0.27151 0.10966 0.4092 0.0
C1382 C 0.28113 0.11083 0.38598 0.0
C1383 C 0.2599 0.12543 0.41705 0.0
C1384 C 0.24847 0.12472 0.4405 0.0
C1385 C 0.25073 0.13926 0.46057 0.0
C1386 C 0.24019 0.13845 0.48287 0.0
C1387 C 0.22727 0.1232 0.48526 0.0
C1388 C 0.22479 0.10879 0.4653 0.0
C1389 C 0.23525 0.10956 0.44294 0.0
H1390 H 0.21915 0.12259 0.50257 0.0
H1391 H 0.32097 0.12987 0.28561 0.0
H1392 H 0.7121 0.75983 0.83389 0.0
H1393 H 0.68404 0.76937 0.85779 0.0
H1394 H 0.64615 0.74386 0.79501 0.0
H1395 H 0.6743 0.73481 0.77067 0.0
H1396 H 0.62967 0.77548 0.8165 0.0
H1397 H 0.66019 0.71809 0.84772 0.0
H1398 H 0.68761 0.69807 0.86396 0.0
H1399 H 0.69672 0.73617 0.93234 0.0
H1400 H 0.66958 0.75664 0.91624 0.0
H1401 H 0.55172 0.75375 0.89634 0.0
H1402 H 0.5784 0.75149 0.86731 0.0
H1403 H 0.61515 0.78358 0.92541 0.0
H1404 H 0.58852 0.78593 0.9545 0.0
H1405 H 0.63169 0.74894 0.90569 0.0
H1406 H 0.599 0.80568 0.87296 0.0
H1407 H 0.57082 0.824 0.85523 0.0
H1408 H 0.56425 0.78413 0.78842 0.0
H1409 H 0.59224 0.76539 0.80594 0.0
C1410 C 0.69775 0.75672 0.82494 0.0
C1411 C 0.6953 0.74651 0.80057 0.0
C1412 C 0.68174 0.76207 0.83863 0.0
C1413 C 0.66301 0.75689 0.82849 0.0
C1414 C 0.66046 0.74792 0.80327 0.0
C1415 C 0.67652 0.74279 0.78936 0.0
C1416 C 0.64641 0.75926 0.84523 0.0
C1417 C 0.63004 0.76952 0.83589 0.0
C1418 C 0.64688 0.75151 0.8706 0.0
C1419 C 0.66296 0.739 0.88065 0.0
C1420 C 0.66811 0.72227 0.86615 0.0
C1421 C 0.68361 0.71084 0.87532 0.0
C1422 C 0.69393 0.71587 0.89914 0.0
C1423 C 0.68873 0.73231 0.91387 0.0
C1424 C 0.67329 0.74383 0.90473 0.0
C1425 C 0.56548 0.76037 0.90287 0.0
C1426 C 0.56805 0.77003 0.92767 0.0
C1427 C 0.58065 0.75916 0.88623 0.0
C1428 C 0.5987 0.76745 0.89418 0.0
C1429 C 0.6013 0.77714 0.9189 0.0
C1430 C 0.58607 0.77857 0.93541 0.0
C1431 C 0.61509 0.7654 0.87712 0.0
C1432 C 0.63139 0.755 0.88636 0.0
C1433 C 0.61436 0.7727 0.85153 0.0
C1434 C 0.5976 0.78402 0.8409 0.0
C1435 C 0.59145 0.80072 0.8546 0.0
C1436 C 0.57553 0.8112 0.84456 0.0
C1437 C 0.56572 0.80521 0.82075 0.0
C1438 C 0.57185 0.78874 0.80688 0.0
C1439 C 0.58775 0.7782 0.81684 0.0
H1440 H 0.5534 0.81334 0.81301 0.0
H1441 H 0.70593 0.70701 0.9062 0.0
H1442 H 0.24216 0.71678 0.82915 0.0
H1443 H 0.23492 0.68826 0.85389 0.0
H1444 H 0.26975 0.653 0.80398 0.0
H1445 H 0.2761 0.6814 0.77845 0.0
H1446 H 0.2416 0.63182 0.81687 0.0
H1447 H 0.28713 0.67351 0.86606 0.0
H1448 H 0.29938 0.70431 0.88703 0.0
H1449 H 0.25246 0.70562 0.93761 0.0
H1450 H 0.23973 0.67498 0.91662 0.0
H1451 H 0.26552 0.55837 0.90898 0.0
H1452 H 0.267 0.58562 0.87987 0.0
H1453 H 0.22423 0.61601 0.92288 0.0
H1454 H 0.22276 0.58884 0.95219 0.0
H1455 H 0.25557 0.63935 0.9135 0.0
H1456 H 0.21156 0.59548 0.86371 0.0
H1457 H 0.2015 0.56404 0.84248 0.0
H1458 H 0.24906 0.56592 0.79317 0.0
H1459 H 0.25957 0.59726 0.81438 0.0
C1460 C 0.24774 0.70279 0.82304 0.0
C1461 C 0.2595 0.7012 0.80177 0.0
C1462 C 0.24385 0.68652 0.83739 0.0
C1463 C 0.25222 0.66845 0.83138 0.0
C1464 C 0.26315 0.6667 0.80919 0.0
C1465 C 0.26673 0.68291 0.79451 0.0
C1466 C 0.25053 0.65176 0.849 0.0
C1467 C 0.24485 0.63348 0.83796 0.0
C1468 C 0.25461 0.65376 0.87667 0.0
C1469 C 0.26237 0.67205 0.88959 0.0
C1470 C 0.27936 0.68042 0.88155 0.0
C1471 C 0.28639 0.69785 0.89344 0.0
C1472 C 0.27668 0.70694 0.9136 0.0
C1473 C 0.25995 0.69858 0.92196 0.0
C1474 C 0.25282 0.68118 0.91008 0.0
C1475 C 0.25647 0.57088 0.91232 0.0
C1476 C 0.244 0.57137 0.93296 0.0
C1477 C 0.25723 0.5864 0.89552 0.0
C1478 C 0.24562 0.60286 0.899 0.0
C1479 C 0.23328 0.60347 0.91971 0.0
C1480 C 0.23237 0.58786 0.93636 0.0
C1481 C 0.24658 0.61954 0.88135 0.0
C1482 C 0.25222 0.63777 0.89242 0.0
C1483 C 0.24284 0.61739 0.85371 0.0
C1484 C 0.23645 0.59863 0.8408 0.0
C1485 C 0.21996 0.58912 0.84848 0.0
C1486 C 0.21416 0.57133 0.83642 0.0
C1487 C 0.22466 0.56296 0.81653 0.0
C1488 C 0.24095 0.5724 0.8086 0.0
C1489 C 0.24682 0.59019 0.82062 0.0
H1490 H 0.22015 0.54919 0.80722 0.0
H1491 H 0.28214 0.72043 0.92278 0.0
H1492 H 0.29895 0.27991 0.88069 0.0
H1493 H 0.33158 0.2739 0.89929 0.0
H1494 H 0.33712 0.22609 0.84335 0.0
H1495 H 0.30422 0.23218 0.82426 0.0
H1496 H 0.35133 0.21719 0.89291 0.0
H1497 H 0.35981 0.26762 0.83402 0.0
H1498 H 0.35298 0.29876 0.81328 0.0
H1499 H 0.36676 0.32929 0.88721 0.0
H1500 H 0.3734 0.29831 0.90851 0.0
H1501 H 0.45975 0.24822 0.92871 0.0
H1502 H 0.42993 0.24932 0.89969 0.0
H1503 H 0.39694 0.23234 0.9637 0.0
H1504 H 0.42679 0.23093 0.9924 0.0
H1505 H 0.39893 0.27112 0.90208 0.0
H1506 H 0.35822 0.20551 0.94067 0.0
H1507 H 0.36602 0.17375 0.95915 0.0
H1508 H 0.41892 0.17191 0.92026 0.0
H1509 H 0.41128 0.20348 0.90118 0.0
C1510 C 0.30715 0.26827 0.87202 0.0
C1511 C 0.29909 0.25676 0.85061 0.0
C1512 C 0.32581 0.26481 0.88278 0.0
C1513 C 0.33693 0.24978 0.87242 0.0
C1514 C 0.32881 0.23785 0.85154 0.0
C1515 C 0.31003 0.24133 0.84068 0.0
C1516 C 0.35698 0.24672 0.88375 0.0
C1517 C 0.3618 0.22892 0.89478 0.0
C1518 C 0.3708 0.2619 0.88566 0.0
C1519 C 0.367 0.28061 0.8729 0.0
C1520 C 0.36127 0.28096 0.8459 0.0
C1521 C 0.35745 0.29859 0.83404 0.0
C1522 C 0.35941 0.31599 0.84892 0.0
C1523 C 0.36525 0.3158 0.8757 0.0
C1524 C 0.36907 0.29821 0.88768 0.0
C1525 C 0.44607 0.24467 0.93637 0.0
C1526 C 0.44538 0.23949 0.9626 0.0
C1527 C 0.42909 0.24531 0.91989 0.0
C1528 C 0.4112 0.24069 0.9294 0.0
C1529 C 0.41058 0.2356 0.95574 0.0
C1530 C 0.42756 0.2349 0.97217 0.0
C1531 C 0.39307 0.2418 0.91212 0.0
C1532 C 0.38859 0.25928 0.89997 0.0
C1533 C 0.37973 0.2262 0.90879 0.0
C1534 C 0.38422 0.20695 0.91965 0.0
C1535 C 0.37145 0.19827 0.93591 0.0
C1536 C 0.37585 0.18031 0.94652 0.0
C1537 C 0.39298 0.17084 0.94093 0.0
C1538 C 0.40569 0.17928 0.92463 0.0
C1539 C 0.40133 0.19721 0.91393 0.0
H1540 H 0.39638 0.15695 0.9492 0.0
H1541 H 0.35644 0.32962 0.8397 0.0
H1542 H 0.76782 0.31103 0.82601 0.0
H1543 H 0.77557 0.34148 0.85134 0.0
H1544 H 0.71551 0.34817 0.86651 0.0
H1545 H 0.70774 0.31814 0.84123 0.0
H1546 H 0.73072 0.38222 0.8543 0.0
H1547 H 0.74712 0.33061 0.91259 0.0
H1548 H 0.76394 0.30082 0.92631 0.0
H1549 H 0.81878 0.32897 0.92235 0.0
H1550 H 0.80227 0.35887 0.90824 0.0
H1551 H 0.75418 0.43204 0.99124 0.0
H1552 H 0.75115 0.40263 0.96245 0.0
H1553 H 0.76916 0.435 0.89775 0.0
H1554 H 0.77209 0.4644 0.92663 0.0
H1555 H 0.77636 0.38175 0.93373 0.0
H1556 H 0.74219 0.41823 0.84169 0.0
H1557 H 0.72304 0.44726 0.83055 0.0
H1558 H 0.69966 0.448 0.90631 0.0
H1559 H 0.71839 0.41879 0.9177 0.0
C1560 C 0.75631 0.31912 0.8346 0.0
C1561 C 0.73723 0.31204 0.83193 0.0
C1562 C 0.76074 0.33645 0.84915 0.0
C1563 C 0.74614 0.34705 0.86105 0.0
C1564 C 0.72703 0.34028 0.8576 0.0
C1565 C 0.72264 0.323 0.84331 0.0
C1566 C 0.75059 0.36491 0.87777 0.0
C1567 C 0.74086 0.38215 0.8715 0.0
C1568 C 0.76353 0.36481 0.90053 0.0
C1569 C 0.77347 0.34688 0.90907 0.0
C1570 C 0.76277 0.33039 0.91443 0.0
C1571 C 0.77224 0.3135 0.92232 0.0
C1572 C 0.79242 0.31298 0.92513 0.0
C1573 C 0.80316 0.32938 0.92012 0.0
C1574 C 0.79375 0.3463 0.91218 0.0
C1575 C 0.75762 0.43273 0.97091 0.0
C1576 C 0.76335 0.45033 0.96101 0.0
C1577 C 0.75597 0.41598 0.95452 0.0
C1578 C 0.75984 0.4166 0.92788 0.0
C1579 C 0.76596 0.43418 0.91816 0.0
C1580 C 0.76767 0.45092 0.93459 0.0
C1581 C 0.75661 0.39907 0.91011 0.0
C1582 C 0.7665 0.3819 0.91624 0.0
C1583 C 0.74354 0.39913 0.88747 0.0
C1584 C 0.73188 0.41646 0.88063 0.0
C1585 C 0.7329 0.42454 0.85591 0.0
C1586 C 0.72212 0.44103 0.84956 0.0
C1587 C 0.7102 0.44951 0.86774 0.0
C1588 C 0.70895 0.44146 0.89227 0.0
C1589 C 0.71966 0.42495 0.89869 0.0
H1590 H 0.70189 0.46229 0.8628 0.0
H1591 H 0.79973 0.29989 0.93125 0.0
H1592 H 0.68948 0.26523 0.23355 0.0
H1593 H 0.6574 0.25697 0.2128 0.0
H1594 H 0.68318 0.21528 0.16077 0.0
H1595 H 0.71526 0.22334 0.18172 0.0
H1596 H 0.66056 0.24425 0.13529 0.0
H1597 H 0.65529 0.19877 0.20316 0.0
H1598 H 0.65643 0.18828 0.24888 0.0
H1599 H 0.61175 0.22887 0.26618 0.0
H1600 H 0.61054 0.23982 0.22064 0.0
H1601 H 0.5733 0.21737 0.06455 0.0
H1602 H 0.60399 0.2156 0.09123 0.0
H1603 H 0.57889 0.24776 0.15461 0.0
H1604 H 0.54786 0.24851 0.12834 0.0
H1605 H 0.60166 0.22149 0.1746 0.0
H1606 H 0.60815 0.2694 0.11057 0.0
H1607 H 0.60676 0.28229 0.06608 0.0
H1608 H 0.64908 0.24073 0.04322 0.0
H1609 H 0.65051 0.22738 0.08749 0.0
C1610 C 0.68819 0.25389 0.21822 0.0
C1611 C 0.70479 0.24485 0.20928 0.0
C1612 C 0.6699 0.24919 0.20639 0.0
C1613 C 0.66794 0.23554 0.18522 0.0
C1614 C 0.6844 0.22582 0.17712 0.0
C1615 C 0.70268 0.23031 0.18922 0.0
C1616 C 0.6491 0.23307 0.16979 0.0
C1617 C 0.64774 0.2389 0.14369 0.0
C1618 C 0.63228 0.22682 0.18114 0.0
C1619 C 0.63295 0.22024 0.20853 0.0
C1620 C 0.64583 0.20559 0.21677 0.0
C1621 C 0.64646 0.19953 0.24265 0.0
C1622 C 0.6342 0.20794 0.26044 0.0
C1623 C 0.62125 0.22239 0.25238 0.0
C1624 C 0.62057 0.22851 0.22652 0.0
C1625 C 0.57437 0.22389 0.08428 0.0
C1626 C 0.55842 0.23334 0.09434 0.0
C1627 C 0.5919 0.22299 0.09946 0.0
C1628 C 0.59394 0.23194 0.12476 0.0
C1629 C 0.57775 0.24084 0.13513 0.0
C1630 C 0.5601 0.24142 0.12009 0.0
C1631 C 0.61308 0.23264 0.13998 0.0
C1632 C 0.61449 0.22663 0.16606 0.0
C1633 C 0.62995 0.23912 0.12881 0.0
C1634 C 0.62929 0.24726 0.10226 0.0
C1635 C 0.61707 0.26293 0.096 0.0
C1636 C 0.61628 0.27032 0.07083 0.0
C1637 C 0.62779 0.2623 0.05182 0.0
C1638 C 0.64015 0.2469 0.05796 0.0
C1639 C 0.64097 0.23942 0.08309 0.0
H1640 H 0.62715 0.26804 0.03233 0.0
H1641 H 0.63472 0.20323 0.28047 0.0
H1642 H 0.73814 0.6801 0.24925 0.0
H1643 H 0.74751 0.65098 0.22432 0.0
H1644 H 0.75717 0.68557 0.15788 0.0
H1645 H 0.74772 0.71465 0.18266 0.0
H1646 H 0.73471 0.65574 0.1429 0.0
H1647 H 0.79478 0.6641 0.19483 0.0
H1648 H 0.81581 0.66847 0.23569 0.0
H1649 H 0.79623 0.6141 0.26217 0.0
H1650 H 0.77487 0.60953 0.22161 0.0
H1651 H 0.77324 0.58265 0.06143 0.0
H1652 H 0.77126 0.61179 0.09032 0.0
H1653 H 0.7578 0.5762 0.15426 0.0
H1654 H 0.75997 0.54704 0.12529 0.0
H1655 H 0.78275 0.60613 0.17103 0.0
H1656 H 0.72244 0.59802 0.11991 0.0
H1657 H 0.70158 0.59319 0.079 0.0
H1658 H 0.72139 0.64713 0.05141 0.0
H1659 H 0.74268 0.65211 0.09199 0.0
C1660 C 0.74277 0.68156 0.22959 0.0
C1661 C 0.74214 0.69969 0.21792 0.0
C1662 C 0.74807 0.66488 0.2153 0.0
C1663 C 0.75306 0.66601 0.18914 0.0
C1664 C 0.75328 0.68425 0.17793 0.0
C1665 C 0.74791 0.70089 0.19214 0.0
C1666 C 0.75664 0.64816 0.17279 0.0
C1667 C 0.74546 0.64508 0.1489 0.0
C1668 C 0.77022 0.63387 0.1809 0.0
C1669 C 0.78308 0.63657 0.20528 0.0
C1670 C 0.79484 0.65315 0.20946 0.0
C1671 C 0.80684 0.65565 0.23255 0.0
C1672 C 0.80731 0.6416 0.25155 0.0
C1673 C 0.79582 0.62499 0.24745 0.0
C1674 C 0.78378 0.62242 0.2244 0.0
C1675 C 0.77008 0.58113 0.08175 0.0
C1676 C 0.76667 0.56276 0.09125 0.0
C1677 C 0.7689 0.59772 0.0982 0.0
C1678 C 0.76417 0.59621 0.12441 0.0
C1679 C 0.76147 0.57773 0.13415 0.0
C1680 C 0.76264 0.56112 0.11765 0.0
C1681 C 0.76101 0.61395 0.14111 0.0
C1682 C 0.77212 0.6169 0.16505 0.0
C1683 C 0.74732 0.62814 0.13313 0.0
C1684 C 0.7343 0.62535 0.10889 0.0
C1685 C 0.72246 0.60879 0.10505 0.0
C1686 C 0.71055 0.60603 0.08192 0.0
C1687 C 0.71019 0.61983 0.06259 0.0
C1688 C 0.72171 0.63644 0.06639 0.0
C1689 C 0.73369 0.63924 0.08945 0.0
H1690 H 0.70096 0.61767 0.0447 0.0
H1691 H 0.81662 0.64356 0.26941 0.0
H1692 H 0.3015 0.77273 0.21013 0.0
H1693 H 0.33203 0.78123 0.19147 0.0
H1694 H 0.32007 0.7387 0.12816 0.0
H1695 H 0.28977 0.7304 0.14635 0.0
H1696 H 0.35605 0.73436 0.15293 0.0
H1697 H 0.31606 0.78616 0.11754 0.0
H1698 H 0.29493 0.81473 0.1209 0.0
H1699 H 0.3399 0.84564 0.1673 0.0
H1700 H 0.36122 0.81713 0.16451 0.0
H1701 H 0.41888 0.74849 0.05508 0.0
H1702 H 0.39037 0.74706 0.08024 0.0
H1703 H 0.4131 0.79366 0.13225 0.0
H1704 H 0.44182 0.79524 0.10689 0.0
H1705 H 0.37449 0.79801 0.12033 0.0
H1706 H 0.41564 0.74772 0.1523 0.0
H1707 H 0.43703 0.71933 0.1494 0.0
H1708 H 0.39036 0.6856 0.11126 0.0
H1709 H 0.36875 0.71388 0.11357 0.0
C1710 C 0.30531 0.76545 0.19203 0.0
C1711 C 0.29343 0.75067 0.17995 0.0
C1712 C 0.32273 0.77027 0.18143 0.0
C1713 C 0.32839 0.76045 0.15855 0.0
C1714 C 0.31612 0.74628 0.14599 0.0
C1715 C 0.29883 0.74152 0.15647 0.0
C1716 C 0.34742 0.76401 0.148 0.0
C1717 C 0.36003 0.74825 0.14567 0.0
C1718 C 0.35293 0.78231 0.13946 0.0
C1719 C 0.34014 0.79944 0.1411 0.0
C1720 C 0.32137 0.79898 0.12867 0.0
C1721 C 0.30938 0.81518 0.13042 0.0
C1722 C 0.31604 0.83197 0.14438 0.0
C1723 C 0.33474 0.83261 0.15655 0.0
C1724 C 0.34679 0.81644 0.15487 0.0
C1725 C 0.41792 0.75836 0.07198 0.0
C1726 C 0.43275 0.77179 0.07921 0.0
C1727 C 0.40157 0.75756 0.08633 0.0
C1728 C 0.39975 0.77001 0.10845 0.0
C1729 C 0.41424 0.78386 0.11532 0.0
C1730 C 0.43062 0.78475 0.10082 0.0
C1731 C 0.38278 0.76815 0.1244 0.0
C1732 C 0.37063 0.78419 0.1279 0.0
C1733 C 0.37769 0.7501 0.13422 0.0
C1734 C 0.3906 0.73298 0.13296 0.0
C1735 C 0.40996 0.73429 0.14314 0.0
C1736 C 0.42213 0.71821 0.14161 0.0
C1737 C 0.41507 0.70068 0.13011 0.0
C1738 C 0.39581 0.69919 0.12016 0.0
C1739 C 0.38359 0.71523 0.1216 0.0
H1740 H 0.42451 0.68824 0.12895 0.0
H1741 H 0.30674 0.8445 0.14572 0.0
H1742 H 0.26397 0.28347 0.1737 0.0
H1743 H 0.25787 0.31211 0.14786 0.0
H1744 H 0.23208 0.34066 0.21343 0.0
H1745 H 0.23803 0.31161 0.23947 0.0
H1746 H 0.21289 0.34886 0.16445 0.0
H1747 H 0.27819 0.35002 0.20352 0.0
H1748 H 0.31017 0.33555 0.21407 0.0
H1749 H 0.31903 0.32875 0.13177 0.0
H1750 H 0.28697 0.34291 0.1207 0.0
H1751 H 0.22139 0.4426 0.11077 0.0
H1752 H 0.22226 0.41477 0.13919 0.0
H1753 H 0.25756 0.38357 0.08549 0.0
H1754 H 0.25723 0.41156 0.05763 0.0
H1755 H 0.27165 0.37785 0.13186 0.0
H1756 H 0.20697 0.37427 0.09159 0.0
H1757 H 0.17424 0.38621 0.07895 0.0
H1758 H 0.16357 0.39554 0.16038 0.0
H1759 H 0.19633 0.38388 0.1735 0.0
C1760 C 0.25676 0.29576 0.18252 0.0
C1761 C 0.25167 0.29541 0.2087 0.0
C1762 C 0.25332 0.31215 0.16774 0.0
C1763 C 0.2449 0.32875 0.17884 0.0
C1764 C 0.23871 0.32807 0.20449 0.0
C1765 C 0.24207 0.3115 0.21934 0.0
C1766 C 0.24381 0.347 0.16404 0.0
C1767 C 0.22574 0.35541 0.15767 0.0
C1768 C 0.26054 0.35533 0.15464 0.0
C1769 C 0.28013 0.34746 0.16128 0.0
C1770 C 0.28694 0.34541 0.18767 0.0
C1771 C 0.30508 0.33725 0.19374 0.0
C1772 C 0.31663 0.33125 0.17361 0.0
C1773 C 0.31009 0.33345 0.14735 0.0
C1774 C 0.29194 0.34156 0.14116 0.0
C1775 C 0.22921 0.42973 0.10496 0.0
C1776 C 0.23926 0.42932 0.08193 0.0
C1777 C 0.22966 0.41376 0.1212 0.0
C1778 C 0.2398 0.39682 0.11448 0.0
C1779 C 0.24969 0.3964 0.09133 0.0
C1780 C 0.24949 0.41244 0.07534 0.0
C1781 C 0.24061 0.37968 0.13171 0.0
C1782 C 0.25872 0.37146 0.13867 0.0
C1783 C 0.22388 0.37142 0.14134 0.0
C1784 C 0.20417 0.3784 0.13351 0.0
C1785 C 0.19769 0.379 0.10679 0.0
C1786 C 0.17913 0.3857 0.09955 0.0
C1787 C 0.16685 0.39168 0.11885 0.0
C1788 C 0.1731 0.39093 0.14545 0.0
C1789 C 0.19166 0.38427 0.1528 0.0
H1790 H 0.15249 0.39686 0.1132 0.0
H1791 H 0.33063 0.32486 0.17834 0.0
H1792 H 0.31851 0.2755 0.25183 0.0
H1793 H 0.3496 0.27058 0.2324 0.0
H1794 H 0.3262 0.22053 0.18792 0.0
H1795 H 0.29529 0.22515 0.20775 0.0
H1796 H 0.37717 0.23777 0.22381 0.0
H1797 H 0.33333 0.2329 0.12346 0.0
H1798 H 0.30137 0.24296 0.10433 0.0
H1799 H 0.30089 0.29075 0.16075 0.0
H1800 H 0.33305 0.28132 0.17969 0.0
H1801 H 0.4408 0.21235 0.12483 0.0
H1802 H 0.41404 0.21402 0.15343 0.0
H1803 H 0.40007 0.27134 0.12739 0.0
H1804 H 0.42613 0.26938 0.09773 0.0
H1805 H 0.36834 0.25213 0.12909 0.0
H1806 H 0.42364 0.26321 0.18896 0.0
H1807 H 0.45579 0.25665 0.21055 0.0
H1808 H 0.43481 0.20322 0.23825 0.0
H1809 H 0.40259 0.20933 0.21651 0.0
C1810 C 0.32033 0.26297 0.2388 0.0
C1811 C 0.3046 0.25062 0.2314 0.0
C1812 C 0.33805 0.26018 0.22769 0.0
C1813 C 0.34011 0.24529 0.20859 0.0
C1814 C 0.32488 0.23208 0.20267 0.0
C1815 C 0.30728 0.23466 0.21412 0.0
C1816 C 0.35685 0.24529 0.19205 0.0
C1817 C 0.37531 0.24077 0.20307 0.0
C1818 C 0.35445 0.24992 0.16525 0.0
C1819 C 0.33548 0.25622 0.1532 0.0
C1820 C 0.32646 0.24563 0.13165 0.0
C1821 C 0.30832 0.25125 0.12083 0.0
C1822 C 0.29909 0.26746 0.13137 0.0
C1823 C 0.30805 0.2782 0.15262 0.0
C1824 C 0.32623 0.27271 0.1634 0.0
C1825 C 0.43195 0.22525 0.12495 0.0
C1826 C 0.43575 0.24074 0.1089 0.0
C1827 C 0.41675 0.22629 0.14162 0.0
C1828 C 0.40513 0.24292 0.14292 0.0
C1829 C 0.40884 0.25836 0.12687 0.0
C1830 C 0.42393 0.25729 0.11008 0.0
C1831 C 0.38888 0.24411 0.16056 0.0
C1832 C 0.37038 0.24896 0.14976 0.0
C1833 C 0.39141 0.24035 0.18775 0.0
C1834 C 0.41075 0.23664 0.20089 0.0
C1835 C 0.42592 0.24999 0.19948 0.0
C1836 C 0.44415 0.24637 0.21178 0.0
C1837 C 0.44735 0.22951 0.2257 0.0
C1838 C 0.43232 0.21626 0.22742 0.0
C1839 C 0.41406 0.2198 0.21514 0.0
H1840 H 0.46148 0.22673 0.23521 0.0
H1841 H 0.28501 0.27173 0.12305 0.0
H1842 H 0.73189 0.29568 0.17173 0.0
H1843 H 0.73885 0.32715 0.15485 0.0
H1844 H 0.77773 0.34027 0.22304 0.0
H1845 H 0.77043 0.30858 0.24057 0.0
H1846 H 0.75316 0.37162 0.20802 0.0
H1847 H 0.79736 0.32845 0.16914 0.0
H1848 H 0.80774 0.29845 0.14647 0.0
H1849 H 0.77012 0.31087 0.07872 0.0
H1850 H 0.75927 0.3408 0.10114 0.0
H1851 H 0.78394 0.45292 0.13532 0.0
H1852 H 0.78457 0.424 0.16185 0.0
H1853 H 0.74545 0.39501 0.10351 0.0
H1854 H 0.74498 0.42358 0.07683 0.0
H1855 H 0.77665 0.37259 0.11841 0.0
H1856 H 0.72937 0.41299 0.15986 0.0
H1857 H 0.71824 0.44265 0.18265 0.0
H1858 H 0.76183 0.43536 0.24556 0.0
H1859 H 0.77339 0.40577 0.22293 0.0
C1860 C 0.74166 0.30534 0.18345 0.0
C1861 C 0.75048 0.2997 0.20762 0.0
C1862 C 0.74579 0.32326 0.17362 0.0
C1863 C 0.75896 0.33592 0.18756 0.0
C1864 C 0.76756 0.33062 0.21198 0.0
C1865 C 0.76346 0.31254 0.22187 0.0
C1866 C 0.76374 0.35446 0.17593 0.0
C1867 C 0.75874 0.37192 0.1887 0.0
C1868 C 0.77082 0.35476 0.15061 0.0
C1869 C 0.77743 0.33684 0.1369 0.0
C1870 C 0.7912 0.32473 0.14948 0.0
C1871 C 0.79718 0.30773 0.13666 0.0
C1872 C 0.78958 0.30274 0.11118 0.0
C1873 C 0.776 0.31475 0.09845 0.0
C1874 C 0.76995 0.33175 0.1112 0.0
C1875 C 0.7755 0.44035 0.12819 0.0
C1876 C 0.76435 0.44053 0.10405 0.0
C1877 C 0.7758 0.42391 0.14341 0.0
C1878 C 0.76501 0.40741 0.13465 0.0
C1879 C 0.75388 0.4076 0.11061 0.0
C1880 C 0.75349 0.424 0.0955 0.0
C1881 C 0.76543 0.38968 0.15007 0.0
C1882 C 0.77147 0.37236 0.13797 0.0
C1883 C 0.75934 0.38956 0.17597 0.0
C1884 C 0.7524 0.40732 0.18955 0.0
C1885 C 0.7367 0.41781 0.17843 0.0
C1886 C 0.73029 0.43459 0.19134 0.0
C1887 C 0.73937 0.44092 0.2155 0.0
C1888 C 0.75484 0.43046 0.22682 0.0
C1889 C 0.76132 0.41369 0.21397 0.0
H1890 H 0.73438 0.4539 0.22547 0.0
H1891 H 0.79422 0.28958 0.1013 0.0
H1892 H 0.67196 0.74662 0.24559 0.0
H1893 H 0.64267 0.75477 0.21873 0.0
H1894 H 0.67662 0.76346 0.15256 0.0
H1895 H 0.70604 0.75555 0.17944 0.0
H1896 H 0.64635 0.79016 0.15576 0.0
H1897 H 0.65639 0.72108 0.15774 0.0
H1898 H 0.6619 0.6901 0.17947 0.0
H1899 H 0.60841 0.69682 0.21631 0.0
H1900 H 0.60273 0.72802 0.19509 0.0
H1901 H 0.5768 0.7745 0.04837 0.0
H1902 H 0.60515 0.7728 0.07985 0.0
H1903 H 0.56807 0.75866 0.14088 0.0
H1904 H 0.53978 0.76 0.1091 0.0
H1905 H 0.5991 0.73607 0.14254 0.0
H1906 H 0.58764 0.80406 0.13785 0.0
H1907 H 0.58198 0.83484 0.11572 0.0
H1908 H 0.63765 0.83053 0.08418 0.0
H1909 H 0.64351 0.79952 0.10574 0.0
C1910 C 0.67327 0.75082 0.22556 0.0
C1911 C 0.6913 0.75035 0.21457 0.0
C1912 C 0.6565 0.75532 0.21017 0.0
C1913 C 0.65745 0.75944 0.18355 0.0
C1914 C 0.67556 0.76026 0.17303 0.0
C1915 C 0.69233 0.75567 0.18836 0.0
C1916 C 0.63952 0.76116 0.16609 0.0
C1917 C 0.63606 0.77831 0.1527 0.0
C1918 C 0.62595 0.74581 0.1625 0.0
C1919 C 0.62924 0.72698 0.17507 0.0
C1920 C 0.64588 0.71602 0.17064 0.0
C1921 C 0.64902 0.69842 0.18284 0.0
C1922 C 0.63554 0.69152 0.19932 0.0
C1923 C 0.61886 0.7022 0.20357 0.0
C1924 C 0.61567 0.71984 0.19146 0.0
C1925 C 0.57483 0.77103 0.06854 0.0
C1926 C 0.5563 0.76739 0.07652 0.0
C1927 C 0.59094 0.77017 0.08652 0.0
C1928 C 0.58873 0.76588 0.11286 0.0
C1929 C 0.57013 0.76205 0.12072 0.0
C1930 C 0.55402 0.76284 0.10267 0.0
C1931 C 0.60585 0.76509 0.13206 0.0
C1932 C 0.60922 0.74804 0.14575 0.0
C1933 C 0.6193 0.78057 0.13593 0.0
C1934 C 0.61595 0.79937 0.12325 0.0
C1935 C 0.59863 0.8096 0.12606 0.0
C1936 C 0.59539 0.8271 0.11362 0.0
C1937 C 0.60944 0.83462 0.09852 0.0
C1938 C 0.62678 0.82468 0.09587 0.0
C1939 C 0.63007 0.80714 0.10821 0.0
H1940 H 0.6069 0.84817 0.0889 0.0
H1941 H 0.638 0.67788 0.20875 0.0
H1942 H 0.28029 0.6864 0.21166 0.0
H1943 H 0.2766 0.65318 0.19399 0.0
H1944 H 0.21744 0.66496 0.16769 0.0
H1945 H 0.22145 0.69859 0.18352 0.0
H1946 H 0.25681 0.62132 0.19516 0.0
H1947 H 0.20805 0.64686 0.1063 0.0
H1948 H 0.20069 0.67697 0.0831 0.0
H1949 H 0.25679 0.69965 0.10894 0.0
H1950 H 0.26457 0.66958 0.1319 0.0
H1951 H 0.23184 0.53846 0.11137 0.0
H1952 H 0.23222 0.56748 0.14069 0.0
H1953 H 0.26276 0.59863 0.08456 0.0
H1954 H 0.26101 0.57006 0.05457 0.0
H1955 H 0.23694 0.62044 0.09973 0.0
H1956 H 0.28421 0.58179 0.14583 0.0
H1957 H 0.29737 0.55287 0.16756 0.0
H1958 H 0.25452 0.55789 0.22417 0.0
H1959 H 0.24093 0.58671 0.20256 0.0
C1960 C 0.26641 0.68188 0.20237 0.0
C1961 C 0.25138 0.69536 0.19826 0.0
C1962 C 0.26426 0.66279 0.19253 0.0
C1963 C 0.24694 0.65675 0.17877 0.0
C1964 C 0.23112 0.66947 0.17764 0.0
C1965 C 0.23337 0.68869 0.18701 0.0
C1966 C 0.24637 0.63833 0.16265 0.0
C1967 C 0.25233 0.62105 0.17433 0.0
C1968 C 0.24119 0.63808 0.13527 0.0
C1969 C 0.23678 0.65607 0.12106 0.0
C1970 C 0.21883 0.65825 0.10692 0.0
C1971 C 0.21459 0.67531 0.09382 0.0
C1972 C 0.22824 0.69024 0.09462 0.0
C1973 C 0.24621 0.68811 0.10839 0.0
C1974 C 0.25054 0.67106 0.12145 0.0
C1975 C 0.23858 0.55157 0.10543 0.0
C1976 C 0.2462 0.55222 0.08071 0.0
C1977 C 0.23898 0.56808 0.12226 0.0
C1978 C 0.24764 0.58529 0.115 0.0
C1979 C 0.25585 0.58563 0.09059 0.0
C1980 C 0.255 0.5693 0.07354 0.0
C1981 C 0.24744 0.60325 0.13212 0.0
C1982 C 0.24128 0.62053 0.12059 0.0
C1983 C 0.25329 0.60359 0.15935 0.0
C1984 C 0.26143 0.58628 0.17241 0.0
C1985 C 0.2775 0.57664 0.16279 0.0
C1986 C 0.28505 0.56028 0.17511 0.0
C1987 C 0.27675 0.55352 0.19719 0.0
C1988 C 0.26091 0.56313 0.20704 0.0
C1989 C 0.25329 0.57948 0.19478 0.0
H1990 H 0.28262 0.54085 0.2067 0.0
H1991 H 0.22491 0.70345 0.08451 0.0
H1992 H 0.29406 0.75617 0.8478 0.0
H1993 H 0.32361 0.7657 0.87404 0.0
H1994 H 0.35472 0.76519 0.80373 0.0
H1995 H 0.32543 0.7549 0.77752 0.0
H1996 H 0.37326 0.74468 0.84006 0.0
H1997 H 0.34516 0.8079 0.83837 0.0
H1998 H 0.31974 0.83242 0.84357 0.0
H1999 H 0.31976 0.82126 0.92578 0.0
H2000 H 0.345 0.79646 0.92101 0.0
H2001 H 0.46106 0.77851 0.90524 0.0
H2002 H 0.43123 0.77812 0.87614 0.0
H2003 H 0.39751 0.77366 0.94359 0.0
H2004 H 0.42739 0.77418 0.9726 0.0
H2005 H 0.38096 0.79857 0.90728 0.0
H2006 H 0.40722 0.73415 0.90837 0.0
H2007 H 0.43266 0.70959 0.90367 0.0
H2008 H 0.43572 0.72294 0.82256 0.0
H2009 H 0.4105 0.74785 0.8269 0.0
C2010 C 0.30714 0.7583 0.83788 0.0
C2011 C 0.30736 0.7547 0.81055 0.0
C2012 C 0.32401 0.76392 0.85289 0.0
C2013 C 0.34141 0.76625 0.84086 0.0
C2014 C 0.34147 0.7635 0.81345 0.0
C2015 C 0.32463 0.75782 0.79843 0.0
C2016 C 0.35983 0.76989 0.85708 0.0
C2017 C 0.37504 0.75671 0.85437 0.0
C2018 C 0.36201 0.78525 0.87631 0.0
C2019 C 0.34687 0.8002 0.87927 0.0
C2020 C 0.33964 0.81056 0.85751 0.0
C2021 C 0.32528 0.82453 0.86039 0.0
C2022 C 0.31811 0.82837 0.88498 0.0
C2023 C 0.32532 0.81826 0.90675 0.0
C2024 C 0.33967 0.80426 0.90397 0.0
C2025 C 0.44722 0.77769 0.91371 0.0
C2026 C 0.4463 0.77636 0.94093 0.0
C2027 C 0.43025 0.77743 0.89718 0.0
C2028 C 0.41217 0.7757 0.90771 0.0
C2029 C 0.41129 0.77504 0.93508 0.0
C2030 C 0.42828 0.77527 0.95159 0.0
C2031 C 0.39427 0.77341 0.8901 0.0
C2032 C 0.37917 0.78672 0.8927 0.0
C2033 C 0.39213 0.75815 0.87077 0.0
C2034 C 0.40712 0.74301 0.86803 0.0
C2035 C 0.41341 0.73195 0.88958 0.0
C2036 C 0.42778 0.71796 0.88698 0.0
C2037 C 0.43583 0.71474 0.86285 0.0
C2038 C 0.42949 0.72548 0.84125 0.0
C2039 C 0.41516 0.73953 0.84377 0.0
H2040 H 0.44696 0.7039 0.86088 0.0
H2041 H 0.307 0.83919 0.88716 0.0
H2042 H 0.22539 0.29939 0.85822 0.0
H2043 H 0.21927 0.33327 0.86976 0.0
H2044 H 0.26263 0.35072 0.8187 0.0
H2045 H 0.26931 0.31657 0.80795 0.0
H2046 H 0.26948 0.36804 0.86298 0.0
H2047 H 0.21247 0.36143 0.80694 0.0
H2048 H 0.18222 0.34667 0.78719 0.0
H2049 H 0.15696 0.3525 0.86152 0.0
H2050 H 0.18715 0.36704 0.88185 0.0
H2051 H 0.2489 0.46586 0.90471 0.0
H2052 H 0.24826 0.43741 0.87401 0.0
H2053 H 0.22167 0.40367 0.93107 0.0
H2054 H 0.22288 0.43186 0.96199 0.0
H2055 H 0.20576 0.39833 0.87543 0.0
H2056 H 0.26626 0.39987 0.93105 0.0
H2057 H 0.29629 0.41607 0.94902 0.0
H2058 H 0.31453 0.42117 0.87088 0.0
H2059 H 0.28438 0.40532 0.85242 0.0
C2060 C 0.2332 0.31047 0.84885 0.0
C2061 C 0.24778 0.30541 0.83216 0.0
C2062 C 0.22966 0.32989 0.85539 0.0
C2063 C 0.24034 0.34468 0.84491 0.0
C2064 C 0.25421 0.33962 0.82706 0.0
C2065 C 0.25798 0.32015 0.82086 0.0
C2066 C 0.23859 0.36503 0.85511 0.0
C2067 C 0.25552 0.3748 0.86498 0.0
C2068 C 0.22042 0.37394 0.85808 0.0
C2069 C 0.20215 0.36525 0.84596 0.0
C2070 C 0.20052 0.35945 0.81913 0.0
C2071 C 0.18337 0.35114 0.80782 0.0
C2072 C 0.16769 0.34863 0.8231 0.0
C2073 C 0.16912 0.35446 0.84971 0.0
C2074 C 0.18624 0.36277 0.86113 0.0
C2075 C 0.24286 0.45235 0.9105 0.0
C2076 C 0.23616 0.45081 0.93567 0.0
C2077 C 0.24239 0.43623 0.893 0.0
C2078 C 0.2349 0.41852 0.90035 0.0
C2079 C 0.22738 0.41727 0.92504 0.0
C2080 C 0.22816 0.43326 0.94267 0.0
C2081 C 0.23651 0.40078 0.88352 0.0
C2082 C 0.21962 0.3916 0.87262 0.0
C2083 C 0.25469 0.39252 0.8792 0.0
C2084 C 0.27298 0.40163 0.89035 0.0
C2085 C 0.27661 0.40459 0.91769 0.0
C2086 C 0.29365 0.41369 0.92797 0.0
C2087 C 0.30729 0.4197 0.9111 0.0
C2088 C 0.30393 0.41655 0.88392 0.0
C2089 C 0.28687 0.40751 0.87354 0.0
H2090 H 0.32047 0.42675 0.91909 0.0
H2091 H 0.15443 0.34218 0.81431 0.0
H2092 H 0.6747 0.26102 0.79498 0.0
H2093 H 0.64682 0.25148 0.81859 0.0
H2094 H 0.68511 0.23492 0.88414 0.0
H2095 H 0.71302 0.24497 0.86085 0.0
H2096 H 0.64836 0.20974 0.86888 0.0
H2097 H 0.672 0.27495 0.89247 0.0
H2098 H 0.68284 0.30728 0.88071 0.0
H2099 H 0.62772 0.31713 0.83968 0.0
H2100 H 0.61672 0.28463 0.85069 0.0
H2101 H 0.58615 0.21691 0.97403 0.0
H2102 H 0.61305 0.21796 0.94559 0.0
H2103 H 0.57943 0.25427 0.89278 0.0
H2104 H 0.55268 0.25358 0.92147 0.0
H2105 H 0.61388 0.26835 0.89996 0.0
H2106 H 0.58875 0.2049 0.87809 0.0
H2107 H 0.57759 0.17195 0.88637 0.0
H2108 H 0.63389 0.15808 0.92097 0.0
H2109 H 0.64533 0.19106 0.91322 0.0
C2110 C 0.67718 0.25468 0.81402 0.0
C2111 C 0.69596 0.25361 0.82609 0.0
C2112 C 0.66127 0.24932 0.82752 0.0
C2113 C 0.66394 0.24255 0.85311 0.0
C2114 C 0.68278 0.23999 0.86434 0.0
C2115 C 0.69868 0.24572 0.85106 0.0
C2116 C 0.64719 0.24085 0.86941 0.0
C2117 C 0.64089 0.2225 0.87595 0.0
C2118 C 0.63725 0.25752 0.87807 0.0
C2119 C 0.64362 0.27728 0.87214 0.0
C2120 C 0.66225 0.28394 0.88075 0.0
C2121 C 0.66843 0.3023 0.87424 0.0
C2122 C 0.65599 0.31423 0.8594 0.0
C2123 C 0.63734 0.30785 0.85113 0.0
C2124 C 0.63113 0.28946 0.85749 0.0
C2125 C 0.58442 0.22493 0.95619 0.0
C2126 C 0.56727 0.23515 0.95 0.0
C2127 C 0.59981 0.2255 0.93989 0.0
C2128 C 0.59827 0.236 0.91677 0.0
C2129 C 0.58106 0.24608 0.91048 0.0
C2130 C 0.56576 0.24569 0.92692 0.0
C2131 C 0.61479 0.2371 0.89965 0.0
C2132 C 0.62117 0.25546 0.89294 0.0
C2133 C 0.62464 0.22037 0.89065 0.0
C2134 C 0.61784 0.20052 0.8953 0.0
C2135 C 0.59872 0.19488 0.88765 0.0
C2136 C 0.59235 0.17619 0.89221 0.0
C2137 C 0.60501 0.16295 0.90425 0.0
C2138 C 0.62409 0.16836 0.91168 0.0
C2139 C 0.63053 0.18704 0.90718 0.0
H2140 H 0.60005 0.14848 0.90776 0.0
H2141 H 0.6608 0.32843 0.85437 0.0
H2142 H 0.75083 0.67883 0.77604 0.0
H2143 H 0.76179 0.65191 0.80274 0.0
H2144 H 0.75997 0.68856 0.87301 0.0
H2145 H 0.75026 0.71592 0.84632 0.0
H2146 H 0.78796 0.66355 0.87985 0.0
H2147 H 0.72109 0.66014 0.84991 0.0
H2148 H 0.69309 0.65966 0.81727 0.0
H2149 H 0.71451 0.60783 0.78026 0.0
H2150 H 0.7428 0.60817 0.8125 0.0
H2151 H 0.75729 0.59449 0.97027 0.0
H2152 H 0.75812 0.62108 0.93984 0.0
H2153 H 0.77957 0.58189 0.88082 0.0
H2154 H 0.77922 0.5553 0.91147 0.0
H2155 H 0.74427 0.60655 0.86646 0.0
H2156 H 0.81026 0.60989 0.90366 0.0
H2157 H 0.83541 0.61169 0.94035 0.0
H2158 H 0.8118 0.66541 0.96861 0.0
H2159 H 0.78631 0.66378 0.9323 0.0
C2160 C 0.75342 0.6814 0.79708 0.0
C2161 C 0.74931 0.69949 0.80906 0.0
C2162 C 0.75946 0.66589 0.81237 0.0
C2163 C 0.76114 0.66806 0.83994 0.0
C2164 C 0.75857 0.68647 0.8518 0.0
C2165 C 0.75282 0.70206 0.8365 0.0
C2166 C 0.76371 0.6509 0.85647 0.0
C2167 C 0.77838 0.65112 0.87693 0.0
C2168 C 0.75121 0.63464 0.85272 0.0
C2169 C 0.73417 0.63431 0.83341 0.0
C2170 C 0.71989 0.64872 0.83469 0.0
C2171 C 0.70397 0.64846 0.81629 0.0
C2172 C 0.70205 0.63375 0.79665 0.0
C2173 C 0.71604 0.61924 0.79545 0.0
C2174 C 0.73202 0.61945 0.81378 0.0
C2175 C 0.76224 0.59162 0.95083 0.0
C2176 C 0.76816 0.57293 0.9431 0.0
C2177 C 0.7628 0.60677 0.93358 0.0
C2178 C 0.76898 0.60338 0.90822 0.0
C2179 C 0.77484 0.58472 0.90039 0.0
C2180 C 0.77467 0.56963 0.91785 0.0
C2181 C 0.76851 0.61925 0.88962 0.0
C2182 C 0.75407 0.61884 0.86896 0.0
C2183 C 0.78085 0.63552 0.89368 0.0
C2184 C 0.79627 0.63662 0.91538 0.0
C2185 C 0.81032 0.622 0.91783 0.0
C2186 C 0.82467 0.62301 0.93853 0.0
C2187 C 0.82518 0.63863 0.95684 0.0
C2188 C 0.81138 0.65331 0.95443 0.0
C2189 C 0.79699 0.65236 0.93377 0.0
H2190 H 0.83629 0.63938 0.97285 0.0
H2191 H 0.68971 0.63358 0.78242 0.0
loop_
_geom_bond_atom_site_label_1
_geom_bond_atom_site_label_2
_geom_bond_distance
_geom_bond_site_symmetry_2
_ccdc_geom_bond_type
H0 C8 0.930 . S
H1 C11 0.930 . S
H2 C13 0.930 . S
H3 C14 0.970 . S
H4 C14 0.970 . S
H5 C16 0.930 . S
H6 C18 0.930 . S
H7 C20 0.930 . S
C8 H0 0.930 . S
C8 C9 1.382 . S
C8 C10 1.426 . S
C9 C8 1.382 . S
C9 C13 1.389 . S
C10 C8 1.426 . S
C10 C11 1.375 . S
C10 C14 1.532 . S
C11 H1 0.930 . S
C11 C10 1.375 . S
C11 C12 1.416 . S
C12 C11 1.416 . S
C12 C13 1.371 . S
C13 H2 0.930 . S
C13 C9 1.389 . S
C13 C12 1.371 . S
C14 H3 0.970 . S
C14 H4 0.970 . S
C14 C10 1.532 . S
C14 C15 1.499 . S
C15 C14 1.499 . S
C15 C16 1.370 . S
C15 C20 1.415 . S
C16 H5 0.930 . S
C16 C15 1.370 . S
C16 C17 1.407 . S
C17 C16 1.407 . S
C17 C18 1.365 . S
C18 H6 0.930 . S
C18 C17 1.365 . S
C18 C19 1.393 . S
C19 C18 1.393 . S
C19 C20 1.387 . S
C20 H7 0.930 . S
C20 C15 1.415 . S
C20 C19 1.387 . S
H21 C29 0.930 . S
H22 C32 0.930 . S
H23 C34 0.930 . S
H24 C35 0.970 . S
H25 C35 0.970 . S
H26 C37 0.930 . S
H27 C39 0.930 . S
H28 C41 0.930 . S
C29 H21 0.930 . S
C29 C30 1.382 . S
C29 C31 1.426 . S
C30 C29 1.382 . S
C30 C34 1.389 . S
C31 C29 1.426 . S
C31 C32 1.375 . S
C31 C35 1.532 . S
C32 H22 0.930 . S
C32 C31 1.375 . S
C32 C33 1.416 . S
C33 C32 1.416 . S
C33 C34 1.371 . S
C34 H23 0.930 . S
C34 C30 1.389 . S
C34 C33 1.371 . S
C35 H24 0.970 . S
C35 H25 0.970 . S
C35 C31 1.532 . S
C35 C36 1.499 . S
C36 C35 1.499 . S
C36 C37 1.370 . S
C36 C41 1.415 . S
C37 H26 0.930 . S
C37 C36 1.370 . S
C37 C38 1.407 . S
C38 C37 1.407 . S
C38 C39 1.365 . S
C39 H27 0.930 . S
C39 C38 1.365 . S
C39 C40 1.393 . S
C40 C39 1.393 . S
C40 C41 1.387 . S
C41 H28 0.930 . S
C41 C36 1.415 . S
C41 C40 1.387 . S
H42 C50 0.930 . S
H43 C53 0.930 . S
H44 C55 0.930 . S
H45 C56 0.970 . S
H46 C56 0.970 . S
H47 C58 0.930 . S
H48 C60 0.930 . S
H49 C62 0.930 . S
C50 H42 0.930 . S
C50 C51 1.382 . S
C50 C52 1.426 . S
C51 C50 1.382 . S
C51 C55 1.389 . S
C52 C50 1.426 . S
C52 C53 1.375 . S
C52 C56 1.532 . S
C53 H43 0.930 . S
C53 C52 1.375 . S
C53 C54 1.416 . S
C54 C53 1.416 . S
C54 C55 1.371 . S
C55 H44 0.930 . S
C55 C51 1.389 . S
C55 C54 1.371 . S
C56 H45 0.970 . S
C56 H46 0.970 . S
C56 C52 1.532 . S
C56 C57 1.499 . S
C57 C56 1.499 . S
C57 C58 1.370 . S
C57 C62 1.415 . S
C58 H47 0.930 . S
C58 C57 1.370 . S
C58 C59 1.407 . S
C59 C58 1.407 . S
C59 C60 1.365 . S
C60 H48 0.930 . S
C60 C59 1.365 . S
C60 C61 1.393 . S
C61 C60 1.393 . S
C61 C62 1.387 . S
C62 H49 0.930 . S
C62 C57 1.415 . S
C62 C61 1.387 . S
H63 C71 0.930 . S
H64 C74 0.930 . S
H65 C76 0.930 . S
H66 C77 0.970 . S
H67 C77 0.970 . S
H68 C79 0.930 . S
H69 C81 0.930 . S
H70 C83 0.930 . S
C71 H63 0.930 . S
C71 C72 1.382 . S
C71 C73 1.426 . S
C72 C71 1.382 . S
C72 C76 1.389 . S
C73 C71 1.426 . S
C73 C74 1.375 . S
C73 C77 1.532 . S
C74 H64 0.930 . S
C74 C73 1.375 . S
C74 C75 1.416 . S
C75 C74 1.416 . S
C75 C76 1.371 . S
C76 H65 0.930 . S
C76 C72 1.389 . S
C76 C75 1.371 . S
C77 H66 0.970 . S
C77 H67 0.970 . S
C77 C73 1.532 . S
C77 C78 1.499 . S
C78 C77 1.499 . S
C78 C79 1.370 . S
C78 C83 1.415 . S
C79 H68 0.930 . S
C79 C78 1.370 . S
C79 C80 1.407 . S
C80 C79 1.407 . S
C80 C81 1.365 . S
C81 H69 0.930 . S
C81 C80 1.365 . S
C81 C82 1.393 . S
C82 C81 1.393 . S
C82 C83 1.387 . S
C83 H70 0.930 . S
C83 C78 1.415 . S
C83 C82 1.387 . S
H84 C92 0.930 . S
H85 C95 0.930 . S
H86 C97 0.930 . S
H87 C98 0.970 . S
H88 C98 0.970 . S
H89 C100 0.930 . S
H90 C102 0.930 . S
H91 C104 0.930 . S
C92 H84 0.930 . S
C92 C93 1.382 . S
C92 C94 1.426 . S
C93 C92 1.382 . S
C93 C97 1.389 . S
C94 C92 1.426 . S
C94 C95 1.375 . S
C94 C98 1.532 . S
C95 H85 0.930 . S
C95 C94 1.375 . S
C95 C96 1.416 . S
C96 C95 1.416 . S
C96 C97 1.371 . S
C97 H86 0.930 . S
C97 C93 1.389 . S
C97 C96 1.371 . S
C98 H87 0.970 . S
C98 H88 0.970 . S
C98 C94 1.532 . S
C98 C99 1.499 . S
C99 C98 1.499 . S
C99 C100 1.370 . S
C99 C104 1.415 . S
C100 H89 0.930 . S
C100 C99 1.370 . S
C100 C101 1.407 . S
C101 C100 1.407 . S
C101 C102 1.365 . S
C102 H90 0.930 . S
C102 C101 1.365 . S
C102 C103 1.393 . S
C103 C102 1.393 . S
C103 C104 1.387 . S
C104 H91 0.930 . S
C104 C99 1.415 . S
C104 C103 1.387 . S
H105 C113 0.930 . S
H106 C116 0.930 . S
H107 C118 0.930 . S
H108 C119 0.970 . S
H109 C119 0.970 . S
H110 C121 0.930 . S
H111 C123 0.930 . S
H112 C125 0.930 . S
C113 H105 0.930 . S
C113 C114 1.382 . S
C113 C115 1.426 . S
C114 C113 1.382 . S
C114 C118 1.389 . S
C115 C113 1.426 . S
C115 C116 1.375 . S
C115 C119 1.532 . S
C116 H106 0.930 . S
C116 C115 1.375 . S
C116 C117 1.416 . S
C117 C116 1.416 . S
C117 C118 1.371 . S
C118 H107 0.930 . S
C118 C114 1.389 . S
C118 C117 1.371 . S
C119 H108 0.970 . S
C119 H109 0.970 . S
C119 C115 1.532 . S
C119 C120 1.499 . S
C120 C119 1.499 . S
C120 C121 1.370 . S
C120 C125 1.415 . S
C121 H110 0.930 . S
C121 C120 1.370 . S
C121 C122 1.407 . S
C122 C121 1.407 . S
C122 C123 1.365 . S
C123 H111 0.930 . S
C123 C122 1.365 . S
C123 C124 1.393 . S
C124 C123 1.393 . S
C124 C125 1.387 . S
C125 H112 0.930 . S
C125 C120 1.415 . S
C125 C124 1.387 . S
H126 C134 0.930 . S
H127 C137 0.930 . S
H128 C139 0.930 . S
H129 C140 0.970 . S
H130 C140 0.970 . S
H131 C142 0.930 . S
H132 C144 0.930 . S
H133 C146 0.930 . S
C134 H126 0.930 . S
C134 C135 1.382 . S
C134 C136 1.426 . S
C135 C134 1.382 . S
C135 C139 1.389 . S
C136 C134 1.426 . S
C136 C137 1.375 . S
C136 C140 1.532 . S
C137 H127 0.930 . S
C137 C136 1.375 . S
C137 C138 1.416 . S
C138 C137 1.416 . S
C138 C139 1.371 . S
C139 H128 0.930 . S
C139 C135 1.389 . S
C139 C138 1.371 . S
C140 H129 0.970 . S
C140 H130 0.970 . S
C140 C136 1.532 . S
C140 C141 1.499 . S
C141 C140 1.499 . S
C141 C142 1.370 . S
C141 C146 1.415 . S
C142 H131 0.930 . S
C142 C141 1.370 . S
C142 C143 1.407 . S
C143 C142 1.407 . S
C143 C144 1.365 . S
C144 H132 0.930 . S
C144 C143 1.365 . S
C144 C145 1.393 . S
C145 C144 1.393 . S
C145 C146 1.387 . S
C146 H133 0.930 . S
C146 C141 1.415 . S
C146 C145 1.387 . S
H147 C155 0.930 . S
H148 C158 0.930 . S
H149 C160 0.930 . S
H150 C161 0.970 . S
H151 C161 0.970 . S
H152 C163 0.930 . S
H153 C165 0.930 . S
H154 C167 0.930 . S
C155 H147 0.930 . S
C155 C156 1.382 . S
C155 C157 1.426 . S
C156 C155 1.382 . S
C156 C160 1.389 . S
C157 C155 1.426 . S
C157 C158 1.375 . S
C157 C161 1.532 . S
C158 H148 0.930 . S
C158 C157 1.375 . S
C158 C159 1.416 . S
C159 C158 1.416 . S
C159 C160 1.371 . S
C160 H149 0.930 . S
C160 C156 1.389 . S
C160 C159 1.371 . S
C161 H150 0.970 . S
C161 H151 0.970 . S
C161 C157 1.532 . S
C161 C162 1.499 . S
C162 C161 1.499 . S
C162 C163 1.370 . S
C162 C167 1.415 . S
C163 H152 0.930 . S
C163 C162 1.370 . S
C163 C164 1.407 . S
C164 C163 1.407 . S
C164 C165 1.365 . S
C165 H153 0.930 . S
C165 C164 1.365 . S
C165 C166 1.393 . S
C166 C165 1.393 . S
C166 C167 1.387 . S
C167 H154 0.930 . S
C167 C162 1.415 . S
C167 C166 1.387 . S
C168 C169 1.443 . S
C168 N172 1.376 . S
C168 C206 1.389 . S
C169 C168 1.443 . S
C169 C170 1.340 . S
C169 H209 0.951 . S
C170 C169 1.340 . S
C170 C171 1.439 . S
C170 H210 0.950 . S
C171 C170 1.439 . S
C171 N172 1.374 . S
C171 C205 1.395 . S
N172 C168 1.376 . S
N172 C171 1.374 . S
N172 Co173 2.008 . S
Co173 N172 2.008 . S
Co173 N174 1.995 1_455 S
Co173 N179 2.008 1_455 S
Co173 N184 1.995 . S
Co173 N189 2.282 1_455 S
Co173 N195 2.282 . S
N174 Co173 1.995 1_655 S
N174 C175 1.376 . S
N174 C178 1.383 . S
C175 N174 1.376 . S
C175 C176 1.446 . S
C175 C205 1.391 1_655 S
C176 C175 1.446 . S
C176 C177 1.339 . S
C176 H211 0.949 . S
C177 C176 1.339 . S
C177 C178 1.439 . S
C177 H212 0.950 . S
C178 N174 1.383 . S
C178 C177 1.439 . S
C178 C207 1.392 . S
N179 Co173 2.008 1_655 S
N179 C180 1.376 . S
N179 C183 1.374 . S
C180 N179 1.376 . S
C180 C181 1.443 . S
C180 C207 1.389 . S
C181 C180 1.443 . S
C181 C182 1.340 . S
C181 H213 0.951 . S
C182 C181 1.340 . S
C182 C183 1.439 . S
C182 H214 0.950 . S
C183 N179 1.374 . S
C183 C182 1.439 . S
C183 C208 1.401 . S
N184 Co173 1.995 . S
N184 C185 1.376 . S
N184 C188 1.383 . S
C185 N184 1.376 . S
C185 C186 1.446 . S
C185 C208 1.385 1_455 S
C186 C185 1.446 . S
C186 C187 1.339 . S
C186 H215 0.949 . S
C187 C186 1.339 . S
C187 C188 1.439 . S
C187 H216 0.950 . S
C188 N184 1.383 . S
C188 C187 1.439 . S
C188 C206 1.392 . S
N189 Co173 2.282 1_655 S
N189 C192 1.332 . S
N189 C194 1.332 . S
C190 C191 1.386 . S
C190 C193 1.388 . S
C191 C190 1.386 . S
C191 C192 1.382 . S
C191 H217 0.950 . S
C192 N189 1.332 . S
C192 C191 1.382 . S
C192 H203 0.952 . S
C193 C190 1.388 . S
C193 C194 1.382 . S
C193 H218 0.950 . S
C194 N189 1.332 . S
C194 C193 1.382 . S
C194 H204 0.948 . S
N195 Co173 2.282 . S
N195 C199 1.332 . S
N195 C200 1.332 . S
C196 C197 1.388 . S
C196 C200 1.382 . S
C196 H219 0.950 . S
C197 C196 1.388 . S
C197 C198 1.386 . S
C198 C197 1.386 . S
C198 C199 1.382 . S
C198 H220 0.950 . S
C199 N195 1.332 . S
C199 C198 1.382 . S
C199 H201 0.952 . S
C200 N195 1.332 . S
C200 C196 1.382 . S
C200 H202 0.948 . S
H201 C199 0.952 . S
H202 C200 0.948 . S
H203 C192 0.952 . S
H204 C194 0.948 . S
C205 C171 1.395 . S
C205 C175 1.391 1_455 S
C206 C168 1.389 . S
C206 C188 1.392 . S
C207 C178 1.392 . S
C207 C180 1.389 . S
C208 C183 1.401 . S
C208 C185 1.385 1_655 S
H209 C169 0.951 . S
H210 C170 0.950 . S
H211 C176 0.949 . S
H212 C177 0.950 . S
H213 C181 0.951 . S
H214 C182 0.950 . S
H215 C186 0.949 . S
H216 C187 0.950 . S
H217 C191 0.950 . S
H218 C193 0.950 . S
H219 C196 0.950 . S
H220 C198 0.950 . S
C221 C222 1.443 . S
C221 N225 1.376 . S
C221 C259 1.389 . S
C222 C221 1.443 . S
C222 C223 1.340 . S
C222 H262 0.951 . S
C223 C222 1.340 . S
C223 C224 1.439 . S
C223 H263 0.950 . S
C224 C223 1.439 . S
C224 N225 1.374 . S
C224 C258 1.395 . S
N225 C221 1.376 . S
N225 C224 1.374 . S
N225 Co226 2.008 . S
Co226 N225 2.008 . S
Co226 N227 1.995 1_545 S
Co226 N232 2.008 1_545 S
Co226 N237 1.995 . S
Co226 N242 2.282 1_545 S
Co226 N248 2.282 . S
N227 Co226 1.995 1_565 S
N227 C228 1.376 . S
N227 C231 1.383 . S
C228 N227 1.376 . S
C228 C229 1.446 . S
C228 C258 1.391 1_565 S
C229 C228 1.446 . S
C229 C230 1.339 . S
C229 H264 0.949 . S
C230 C229 1.339 . S
C230 C231 1.439 . S
C230 H265 0.950 . S
C231 N227 1.383 . S
C231 C230 1.439 . S
C231 C260 1.392 . S
N232 Co226 2.008 1_565 S
N232 C233 1.376 . S
N232 C236 1.374 . S
C233 N232 1.376 . S
C233 C234 1.443 . S
C233 C260 1.389 . S
C234 C233 1.443 . S
C234 C235 1.340 . S
C234 H266 0.951 . S
C235 C234 1.340 . S
C235 C236 1.439 . S
C235 H267 0.950 . S
C236 N232 1.374 . S
C236 C235 1.439 . S
C236 C261 1.357 1_565 S
N237 Co226 1.995 . S
N237 C238 1.376 . S
N237 C241 1.383 . S
C238 N237 1.376 . S
C238 C239 1.446 . S
C238 C261 1.433 . S
C239 C238 1.446 . S
C239 C240 1.339 . S
C239 H268 0.949 . S
C240 C239 1.339 . S
C240 C241 1.439 . S
C240 H269 0.950 . S
C241 N237 1.383 . S
C241 C240 1.439 . S
C241 C259 1.392 . S
N242 Co226 2.282 1_565 S
N242 C245 1.332 . S
N242 C247 1.332 . S
C243 C244 1.386 . S
C243 C246 1.388 . S
C244 C243 1.386 . S
C244 C245 1.382 . S
C244 H270 0.950 . S
C245 N242 1.332 . S
C245 C244 1.382 . S
C245 H256 0.952 . S
C246 C243 1.388 . S
C246 C247 1.382 . S
C246 H271 0.950 . S
C247 N242 1.332 . S
C247 C246 1.382 . S
C247 H257 0.948 . S
N248 Co226 2.282 . S
N248 C252 1.332 . S
N248 C253 1.332 . S
C249 C250 1.388 . S
C249 C253 1.382 . S
C249 H272 0.950 . S
C250 C249 1.388 . S
C250 C251 1.386 . S
C251 C250 1.386 . S
C251 C252 1.382 . S
C251 H273 0.950 . S
C252 N248 1.332 . S
C252 C251 1.382 . S
C252 H254 0.952 . S
C253 N248 1.332 . S
C253 C249 1.382 . S
C253 H255 0.948 . S
H254 C252 0.952 . S
H255 C253 0.948 . S
H256 C245 0.952 . S
H257 C247 0.948 . S
C258 C224 1.395 . S
C258 C228 1.391 1_545 S
C259 C221 1.389 . S
C259 C241 1.392 . S
C260 C231 1.392 . S
C260 C233 1.389 . S
C261 C236 1.357 1_545 S
C261 C238 1.433 . S
H262 C222 0.951 . S
H263 C223 0.950 . S
H264 C229 0.949 . S
H265 C230 0.950 . S
H266 C234 0.951 . S
H267 C235 0.950 . S
H268 C239 0.949 . S
H269 C240 0.950 . S
H270 C244 0.950 . S
H271 C246 0.950 . S
H272 C249 0.950 . S
H273 C251 0.950 . S
C274 C275 1.443 . S
C274 N278 1.376 . S
C274 C312 1.389 . S
C275 C274 1.443 . S
C275 C276 1.340 . S
C275 H315 0.951 . S
C276 C275 1.340 . S
C276 C277 1.439 . S
C276 H316 0.950 . S
C277 C276 1.439 . S
C277 N278 1.374 . S
C277 C311 1.395 . S
N278 C274 1.376 . S
N278 C277 1.374 . S
N278 Co279 2.035 . S
Co279 N278 2.035 . S
Co279 N280 1.972 1_455 S
Co279 N285 1.982 1_455 S
Co279 N290 2.018 . S
Co279 N295 2.248 1_455 S
Co279 N301 2.317 . S
N280 Co279 1.972 1_655 S
N280 C281 1.376 . S
N280 C284 1.383 . S
C281 N280 1.376 . S
C281 C282 1.446 . S
C281 C311 1.391 1_655 S
C282 C281 1.446 . S
C282 C283 1.339 . S
C282 H317 0.949 . S
C283 C282 1.339 . S
C283 C284 1.439 . S
C283 H318 0.950 . S
C284 N280 1.383 . S
C284 C283 1.439 . S
C284 C313 1.392 . S
N285 Co279 1.982 1_655 S
N285 C286 1.376 . S
N285 C289 1.374 . S
C286 N285 1.376 . S
C286 C287 1.443 . S
C286 C313 1.389 . S
C287 C286 1.443 . S
C287 C288 1.340 . S
C287 H319 0.951 . S
C288 C287 1.340 . S
C288 C289 1.439 . S
C288 H320 0.950 . S
C289 N285 1.374 . S
C289 C288 1.439 . S
C289 C314 1.395 . S
N290 Co279 2.018 . S
N290 C291 1.376 . S
N290 C294 1.383 . S
C291 N290 1.376 . S
C291 C292 1.446 . S
C291 C314 1.391 1_455 S
C292 C291 1.446 . S
C292 C293 1.339 . S
C292 H321 0.949 . S
C293 C292 1.339 . S
C293 C294 1.439 . S
C293 H322 0.950 . S
C294 N290 1.383 . S
C294 C293 1.439 . S
C294 C312 1.392 . S
N295 Co279 2.248 1_655 S
N295 C298 1.332 . S
N295 C300 1.332 . S
C296 C297 1.386 . S
C296 C299 1.388 . S
C297 C296 1.386 . S
C297 C298 1.382 . S
C297 H323 0.950 . S
C298 N295 1.332 . S
C298 C297 1.382 . S
C298 H309 0.952 . S
C299 C296 1.388 . S
C299 C300 1.382 . S
C299 H324 0.950 . S
C300 N295 1.332 . S
C300 C299 1.382 . S
C300 H310 0.948 . S
N301 Co279 2.317 . S
N301 C305 1.332 . S
N301 C306 1.332 . S
C302 C303 1.388 . S
C302 C306 1.382 . S
C302 H325 0.950 . S
C303 C302 1.388 . S
C303 C304 1.386 . S
C304 C303 1.386 . S
C304 C305 1.382 . S
C304 H326 0.950 . S
C305 N301 1.332 . S
C305 C304 1.382 . S
C305 H307 0.952 . S
C306 N301 1.332 . S
C306 C302 1.382 . S
C306 H308 0.948 . S
H307 C305 0.952 . S
H308 C306 0.948 . S
H309 C298 0.952 . S
H310 C300 0.948 . S
C311 C277 1.395 . S
C311 C281 1.391 1_455 S
C312 C274 1.389 . S
C312 C294 1.392 . S
C313 C284 1.392 . S
C313 C286 1.389 . S
C314 C289 1.395 . S
C314 C291 1.391 1_655 S
H315 C275 0.951 . S
H316 C276 0.950 . S
H317 C282 0.949 . S
H318 C283 0.950 . S
H319 C287 0.951 . S
H320 C288 0.950 . S
H321 C292 0.949 . S
H322 C293 0.950 . S
H323 C297 0.950 . S
H324 C299 0.950 . S
H325 C302 0.950 . S
H326 C304 0.950 . S
C327 C328 1.443 . S
C327 N331 1.376 . S
C327 C365 1.389 . S
C328 C327 1.443 . S
C328 C329 1.340 . S
C328 H368 0.951 . S
C329 C328 1.340 . S
C329 C330 1.439 . S
C329 H369 0.950 . S
C330 C329 1.439 . S
C330 N331 1.374 . S
C330 C364 1.417 . S
N331 C327 1.376 . S
N331 C330 1.374 . S
N331 Co332 2.008 1_565 S
Co332 N331 2.008 1_545 S
Co332 N333 1.995 . S
Co332 N338 2.008 . S
Co332 N343 1.995 1_545 S
Co332 N348 2.282 . S
Co332 N354 2.282 1_545 S
N333 Co332 1.995 . S
N333 C334 1.376 . S
N333 C337 1.383 . S
C334 N333 1.376 . S
C334 C335 1.446 . S
C334 C364 1.368 1_545 S
C335 C334 1.446 . S
C335 C336 1.339 . S
C335 H370 0.949 . S
C336 C335 1.339 . S
C336 C337 1.439 . S
C336 H371 0.950 . S
C337 N333 1.383 . S
C337 C336 1.439 . S
C337 C366 1.392 . S
N338 Co332 2.008 . S
N338 C339 1.376 . S
N338 C342 1.374 . S
C339 N338 1.376 . S
C339 C340 1.443 . S
C339 C366 1.389 . S
C340 C339 1.443 . S
C340 C341 1.340 . S
C340 H372 0.951 . S
C341 C340 1.340 . S
C341 C342 1.439 . S
C341 H373 0.950 . S
C342 N338 1.374 . S
C342 C341 1.439 . S
C342 C367 1.395 . S
N343 Co332 1.995 1_565 S
N343 C344 1.376 . S
N343 C347 1.383 . S
C344 N343 1.376 . S
C344 C345 1.446 . S
C344 C367 1.391 1_565 S
C345 C344 1.446 . S
C345 C346 1.339 . S
C345 H374 0.949 . S
C346 C345 1.339 . S
C346 C347 1.439 . S
C346 H375 0.950 . S
C347 N343 1.383 . S
C347 C346 1.439 . S
C347 C365 1.392 . S
N348 Co332 2.282 . S
N348 C351 1.332 . S
N348 C353 1.332 . S
C349 C350 1.386 . S
C349 C352 1.388 . S
C350 C349 1.386 . S
C350 C351 1.382 . S
C350 H376 0.950 . S
C351 N348 1.332 . S
C351 C350 1.382 . S
C351 H362 0.952 . S
C352 C349 1.388 . S
C352 C353 1.382 . S
C352 H377 0.950 . S
C353 N348 1.332 . S
C353 C352 1.382 . S
C353 H363 0.948 . S
N354 Co332 2.282 1_565 S
N354 C358 1.332 . S
N354 C359 1.332 . S
C355 C356 1.388 . S
C355 C359 1.382 . S
C355 H378 0.950 . S
C356 C355 1.388 . S
C356 C357 1.386 . S
C357 C356 1.386 . S
C357 C358 1.382 . S
C357 H379 0.950 . S
C358 N354 1.332 . S
C358 C357 1.382 . S
C358 H360 0.952 . S
C359 N354 1.332 . S
C359 C355 1.382 . S
C359 H361 0.948 . S
H360 C358 0.952 . S
H361 C359 0.948 . S
H362 C351 0.952 . S
H363 C353 0.948 . S
C364 C330 1.417 . S
C364 C334 1.368 1_565 S
C365 C327 1.389 . S
C365 C347 1.392 . S
C366 C337 1.392 . S
C366 C339 1.389 . S
C367 C342 1.395 . S
C367 C344 1.391 1_545 S
H368 C328 0.951 . S
H369 C329 0.950 . S
H370 C335 0.949 . S
H371 C336 0.950 . S
H372 C340 0.951 . S
H373 C341 0.950 . S
H374 C345 0.949 . S
H375 C346 0.950 . S
H376 C350 0.950 . S
H377 C352 0.950 . S
H378 C355 0.950 . S
H379 C357 0.950 . S
C380 C381 1.443 . S
C380 N384 1.376 . S
C380 C418 1.389 . S
C381 C380 1.443 . S
C381 C382 1.340 . S
C381 H421 0.951 . S
C382 C381 1.340 . S
C382 C383 1.439 . S
C382 H422 0.950 . S
C383 C382 1.439 . S
C383 N384 1.374 . S
C383 C417 1.401 . S
N384 C380 1.376 . S
N384 C383 1.374 . S
N384 Co385 2.008 . S
Co385 N384 2.008 . S
Co385 N386 1.995 1_554 S
Co385 N391 2.008 1_554 S
Co385 N396 1.995 . S
Co385 N401 2.282 . S
Co385 N407 2.282 1_554 S
N386 Co385 1.995 1_556 S
N386 C387 1.376 . S
N386 C390 1.383 . S
C387 N386 1.376 . S
C387 C388 1.446 . S
C387 C417 1.386 1_556 S
C388 C387 1.446 . S
C388 C389 1.339 . S
C388 H423 0.949 . S
C389 C388 1.339 . S
C389 C390 1.439 . S
C389 H424 0.950 . S
C390 N386 1.383 . S
C390 C389 1.439 . S
C390 C419 1.392 . S
N391 Co385 2.008 1_556 S
N391 C392 1.376 . S
N391 C395 1.374 . S
C392 N391 1.376 . S
C392 C393 1.443 . S
C392 C419 1.389 . S
C393 C392 1.443 . S
C393 C394 1.340 . S
C393 H425 0.951 . S
C394 C393 1.340 . S
C394 C395 1.439 . S
C394 H426 0.950 . S
C395 N391 1.374 . S
C395 C394 1.439 . S
C395 C420 1.395 1_556 S
N396 Co385 1.995 . S
N396 C397 1.376 . S
N396 C400 1.383 . S
C397 N396 1.376 . S
C397 C398 1.446 . S
C397 C420 1.391 . S
C398 C397 1.446 . S
C398 C399 1.339 . S
C398 H427 0.949 . S
C399 C398 1.339 . S
C399 C400 1.439 . S
C399 H428 0.950 . S
C400 N396 1.383 . S
C400 C399 1.439 . S
C400 C418 1.392 . S
N401 Co385 2.282 . S
N401 C404 1.332 . S
N401 C406 1.332 . S
C402 C403 1.386 . S
C402 C405 1.388 . S
C403 C402 1.386 . S
C403 C404 1.382 . S
C403 H429 0.950 . S
C404 N401 1.332 . S
C404 C403 1.382 . S
C404 H415 0.952 . S
C405 C402 1.388 . S
C405 C406 1.382 . S
C405 H430 0.950 . S
C406 N401 1.332 . S
C406 C405 1.382 . S
C406 H416 0.948 . S
N407 Co385 2.282 1_556 S
N407 C411 1.332 . S
N407 C412 1.332 . S
C408 C409 1.388 . S
C408 C412 1.382 . S
C408 H431 0.950 . S
C409 C408 1.388 . S
C409 C410 1.386 . S
C410 C409 1.386 . S
C410 C411 1.382 . S
C410 H432 0.950 . S
C411 N407 1.332 . S
C411 C410 1.382 . S
C411 H413 0.952 . S
C412 N407 1.332 . S
C412 C408 1.382 . S
C412 H414 0.948 . S
H413 C411 0.952 . S
H414 C412 0.948 . S
H415 C404 0.952 . S
H416 C406 0.948 . S
C417 C383 1.401 . S
C417 C387 1.386 1_554 S
C418 C380 1.389 . S
C418 C400 1.392 . S
C419 C390 1.392 . S
C419 C392 1.389 . S
C420 C395 1.395 1_554 S
C420 C397 1.391 . S
H421 C381 0.951 . S
H422 C382 0.950 . S
H423 C388 0.949 . S
H424 C389 0.950 . S
H425 C393 0.951 . S
H426 C394 0.950 . S
H427 C398 0.949 . S
H428 C399 0.950 . S
H429 C403 0.950 . S
H430 C405 0.950 . S
H431 C408 0.950 . S
H432 C410 0.950 . S
C433 C434 1.443 . S
C433 N437 1.376 . S
C433 C471 1.389 . S
C434 C433 1.443 . S
C434 C435 1.340 . S
C434 H474 0.951 . S
C435 C434 1.340 . S
C435 C436 1.439 . S
C435 H475 0.950 . S
C436 C435 1.439 . S
C436 N437 1.374 . S
C436 C470 1.395 . S
N437 C433 1.376 . S
N437 C436 1.374 . S
N437 Co438 2.008 . S
Co438 N437 2.008 . S
Co438 N439 1.995 1_554 S
Co438 N444 2.008 . S
Co438 N449 1.995 . S
Co438 N454 2.282 . S
Co438 N460 2.282 1_554 S
N439 Co438 1.995 1_556 S
N439 C440 1.376 . S
N439 C443 1.383 . S
C440 N439 1.376 . S
C440 C441 1.446 . S
C440 C470 1.391 1_556 S
C441 C440 1.446 . S
C441 C442 1.339 . S
C441 H476 0.949 . S
C442 C441 1.339 . S
C442 C443 1.439 . S
C442 H477 0.950 . S
C443 N439 1.383 . S
C443 C442 1.439 . S
C443 C472 1.392 . S
N444 Co438 2.008 . S
N444 C445 1.376 1_554 S
N444 C448 1.374 . S
C445 N444 1.376 1_556 S
C445 C446 1.443 . S
C445 C472 1.389 . S
C446 C445 1.443 . S
C446 C447 1.340 1_556 S
C446 H478 0.951 . S
C447 C446 1.340 1_554 S
C447 C448 1.439 . S
C447 H479 0.950 . S
C448 N444 1.374 . S
C448 C447 1.439 . S
C448 C473 1.395 . S
N449 Co438 1.995 . S
N449 C450 1.376 . S
N449 C453 1.383 . S
C450 N449 1.376 . S
C450 C451 1.446 . S
C450 C473 1.391 . S
C451 C450 1.446 . S
C451 C452 1.339 . S
C451 H480 0.949 . S
C452 C451 1.339 . S
C452 C453 1.439 . S
C452 H481 0.950 . S
C453 N449 1.383 . S
C453 C452 1.439 . S
C453 C471 1.392 . S
N454 Co438 2.282 . S
N454 C457 1.332 . S
N454 C459 1.332 . S
C455 C456 1.386 . S
C455 C458 1.388 . S
C456 C455 1.386 . S
C456 C457 1.382 . S
C456 H482 0.950 . S
C457 N454 1.332 . S
C457 C456 1.382 . S
C457 H468 0.952 . S
C458 C455 1.388 . S
C458 C459 1.382 . S
C458 H483 0.950 . S
C459 N454 1.332 . S
C459 C458 1.382 . S
C459 H469 0.948 . S
N460 Co438 2.282 1_556 S
N460 C464 1.332 . S
N460 C465 1.332 . S
C461 C462 1.388 . S
C461 C465 1.382 . S
C461 H484 0.950 . S
C462 C461 1.388 . S
C462 C463 1.386 . S
C463 C462 1.386 . S
C463 C464 1.382 . S
C463 H485 0.950 . S
C464 N460 1.332 . S
C464 C463 1.382 . S
C464 H466 0.952 . S
C465 N460 1.332 . S
C465 C461 1.382 . S
C465 H467 0.948 . S
H466 C464 0.952 . S
H467 C465 0.948 . S
H468 C457 0.952 . S
H469 C459 0.948 . S
C470 C436 1.395 . S
C470 C440 1.391 1_554 S
C471 C433 1.389 . S
C471 C453 1.392 . S
C472 C443 1.392 . S
C472 C445 1.389 . S
C473 C448 1.395 . S
C473 C450 1.391 . S
H474 C434 0.951 . S
H475 C435 0.950 . S
H476 C441 0.949 . S
H477 C442 0.950 . S
H478 C446 0.951 . S
H479 C447 0.950 . S
H480 C451 0.949 . S
H481 C452 0.950 . S
H482 C456 0.950 . S
H483 C458 0.950 . S
H484 C461 0.950 . S
H485 C463 0.950 . S
C486 C487 1.443 1_554 S
C486 N490 1.378 . S
C486 C524 1.388 1_554 S
C487 C486 1.443 1_556 S
C487 C488 1.340 1_556 S
C487 H527 0.951 . S
C488 C487 1.340 1_554 S
C488 C489 1.439 . S
C488 H528 0.950 . S
C489 C488 1.439 . S
C489 N490 1.374 . S
C489 C523 1.395 . S
N490 C486 1.378 . S
N490 C489 1.374 . S
N490 Co491 2.008 . S
Co491 N490 2.008 . S
Co491 N492 1.995 . S
Co491 N497 2.008 . S
Co491 N502 1.995 . S
Co491 N507 2.284 1_554 S
Co491 N513 2.282 . S
N492 Co491 1.995 . S
N492 C493 1.376 . S
N492 C496 1.383 . S
C493 N492 1.376 . S
C493 C494 1.446 . S
C493 C523 1.391 . S
C494 C493 1.446 . S
C494 C495 1.339 . S
C494 H529 0.949 . S
C495 C494 1.339 . S
C495 C496 1.439 . S
C495 H530 0.950 . S
C496 N492 1.383 . S
C496 C495 1.439 . S
C496 C525 1.392 . S
N497 Co491 2.008 . S
N497 C498 1.376 . S
N497 C501 1.374 . S
C498 N497 1.376 . S
C498 C499 1.443 . S
C498 C525 1.389 . S
C499 C498 1.443 . S
C499 C500 1.340 . S
C499 H531 0.951 . S
C500 C499 1.340 . S
C500 C501 1.439 . S
C500 H532 0.950 . S
C501 N497 1.374 . S
C501 C500 1.439 . S
C501 C526 1.395 . S
N502 Co491 1.995 . S
N502 C503 1.376 . S
N502 C506 1.383 1_554 S
C503 N502 1.376 . S
C503 C504 1.446 1_554 S
C503 C526 1.391 . S
C504 C503 1.446 1_556 S
C504 C505 1.339 . S
C504 H533 0.949 . S
C505 C504 1.339 . S
C505 C506 1.439 . S
C505 H534 0.950 . S
C506 N502 1.383 1_556 S
C506 C505 1.439 . S
C506 C524 1.392 . S
N507 Co491 2.284 1_556 S
N507 C510 1.331 . S
N507 C512 1.332 . S
C508 C509 1.386 . S
C508 C511 1.388 . S
C509 C508 1.386 . S
C509 C510 1.382 . S
C509 H535 0.950 . S
C510 N507 1.331 . S
C510 C509 1.382 . S
C510 H521 0.952 . S
C511 C508 1.388 . S
C511 C512 1.382 . S
C511 H536 0.950 . S
C512 N507 1.332 . S
C512 C511 1.382 . S
C512 H522 0.948 1_556 S
N513 Co491 2.282 . S
N513 C517 1.332 . S
N513 C518 1.332 . S
C514 C515 1.388 . S
C514 C518 1.382 . S
C514 H537 0.950 . S
C515 C514 1.388 . S
C515 C516 1.386 . S
C516 C515 1.386 . S
C516 C517 1.382 . S
C516 H538 0.950 . S
C517 N513 1.332 . S
C517 C516 1.382 . S
C517 H519 0.952 . S
C518 N513 1.332 . S
C518 C514 1.382 . S
C518 H520 0.948 . S
H519 C517 0.952 . S
H520 C518 0.948 . S
H521 C510 0.952 . S
H522 C512 0.948 1_554 S
C523 C489 1.395 . S
C523 C493 1.391 . S
C524 C486 1.388 1_556 S
C524 C506 1.392 . S
C525 C496 1.392 . S
C525 C498 1.389 . S
C526 C501 1.395 . S
C526 C503 1.391 . S
H527 C487 0.951 . S
H528 C488 0.950 . S
H529 C494 0.949 . S
H530 C495 0.950 . S
H531 C499 0.951 . S
H532 C500 0.950 . S
H533 C504 0.949 . S
H534 C505 0.950 . S
H535 C509 0.950 . S
H536 C511 0.950 . S
H537 C514 0.950 . S
H538 C516 0.950 . S
C539 C540 1.443 . S
C539 N543 1.376 . S
C539 C577 1.389 . S
C540 C539 1.443 . S
C540 C541 1.340 . S
C540 H580 0.951 . S
C541 C540 1.340 . S
C541 C542 1.439 . S
C541 H581 0.950 . S
C542 C541 1.439 . S
C542 N543 1.374 . S
C542 C576 1.395 . S
N543 C539 1.376 . S
N543 C542 1.374 . S
N543 Co544 2.008 . S
Co544 N543 2.008 . S
Co544 N545 1.995 1_554 S
Co544 N550 2.008 1_554 S
Co544 N555 1.995 . S
Co544 N560 2.282 . S
Co544 N566 2.282 1_554 S
N545 Co544 1.995 1_556 S
N545 C546 1.376 . S
N545 C549 1.383 . S
C546 N545 1.376 . S
C546 C547 1.446 . S
C546 C576 1.391 1_556 S
C547 C546 1.446 . S
C547 C548 1.339 . S
C547 H582 0.949 . S
C548 C547 1.339 . S
C548 C549 1.439 . S
C548 H583 0.950 . S
C549 N545 1.383 . S
C549 C548 1.439 . S
C549 C578 1.392 . S
N550 Co544 2.008 1_556 S
N550 C551 1.376 . S
N550 C554 1.374 1_556 S
C551 N550 1.376 . S
C551 C552 1.443 . S
C551 C578 1.389 . S
C552 C551 1.443 . S
C552 C553 1.340 . S
C552 H584 0.951 . S
C553 C552 1.340 . S
C553 C554 1.439 1_556 S
C553 H585 0.950 . S
C554 N550 1.374 1_554 S
C554 C553 1.439 1_554 S
C554 C579 1.395 . S
N555 Co544 1.995 . S
N555 C556 1.376 . S
N555 C559 1.383 . S
C556 N555 1.376 . S
C556 C557 1.446 . S
C556 C579 1.391 . S
C557 C556 1.446 . S
C557 C558 1.339 . S
C557 H586 0.949 . S
C558 C557 1.339 . S
C558 C559 1.439 . S
C558 H587 0.950 . S
C559 N555 1.383 . S
C559 C558 1.439 . S
C559 C577 1.392 . S
N560 Co544 2.282 . S
N560 C563 1.332 . S
N560 C565 1.332 . S
C561 C562 1.386 . S
C561 C564 1.388 . S
C562 C561 1.386 . S
C562 C563 1.382 . S
C562 H588 0.950 . S
C563 N560 1.332 . S
C563 C562 1.382 . S
C563 H574 0.952 . S
C564 C561 1.388 . S
C564 C565 1.382 . S
C564 H589 0.950 . S
C565 N560 1.332 . S
C565 C564 1.382 . S
C565 H575 0.948 . S
N566 Co544 2.282 1_556 S
N566 C570 1.332 . S
N566 C571 1.332 . S
C567 C568 1.388 . S
C567 C571 1.382 . S
C567 H590 0.950 . S
C568 C567 1.388 . S
C568 C569 1.386 . S
C569 C568 1.386 . S
C569 C570 1.382 . S
C569 H591 0.950 . S
C570 N566 1.332 . S
C570 C569 1.382 . S
C570 H572 0.952 . S
C571 N566 1.332 . S
C571 C567 1.382 . S
C571 H573 0.948 . S
H572 C570 0.952 . S
H573 C571 0.948 . S
H574 C563 0.952 . S
H575 C565 0.948 . S
C576 C542 1.395 . S
C576 C546 1.391 1_554 S
C577 C539 1.389 . S
C577 C559 1.392 . S
C578 C549 1.392 . S
C578 C551 1.389 . S
C579 C554 1.395 . S
C579 C556 1.391 . S
H580 C540 0.951 . S
H581 C541 0.950 . S
H582 C547 0.949 . S
H583 C548 0.950 . S
H584 C552 0.951 . S
H585 C553 0.950 . S
H586 C557 0.949 . S
H587 C558 0.950 . S
H588 C562 0.950 . S
H589 C564 0.950 . S
H590 C567 0.950 . S
H591 C569 0.950 . S
H592 C610 0.951 . S
H593 C612 0.951 . S
H594 C614 0.950 . S
H595 C615 0.950 . S
H596 C617 0.950 . S
H597 C620 0.950 . S
H598 C621 0.950 . S
H599 C623 0.950 . S
H600 C624 0.950 . S
H601 C625 0.951 . S
H602 C627 0.951 . S
H603 C629 0.950 . S
H604 C630 0.950 . S
H605 C632 0.950 . S
H606 C635 0.950 . S
H607 C636 0.950 . S
H608 C638 0.950 . S
H609 C639 0.950 . S
C610 H592 0.951 . S
C610 C611 1.366 . S
C610 C612 1.388 . S
C611 C610 1.366 . S
C611 C615 1.385 . S
C612 H593 0.951 . S
C612 C610 1.388 . S
C612 C613 1.366 . S
C613 C612 1.366 . S
C613 C614 1.414 . S
C613 C616 1.499 . S
C614 H594 0.950 . S
C614 C613 1.414 . S
C614 C615 1.374 . S
C615 H595 0.950 . S
C615 C611 1.385 . S
C615 C614 1.374 . S
C616 C613 1.499 . S
C616 C617 1.373 . S
C616 C618 1.389 . S
C617 H596 0.950 . S
C617 C616 1.373 . S
C617 C633 1.377 . S
C618 C616 1.389 . S
C618 C619 1.524 . S
C618 C632 1.377 . S
C619 C618 1.524 . S
C619 C620 1.397 . S
C619 C624 1.363 . S
C620 H597 0.950 . S
C620 C619 1.397 . S
C620 C621 1.334 . S
C621 H598 0.950 . S
C621 C620 1.334 . S
C621 C622 1.287 . S
C622 C621 1.287 . S
C622 C623 1.524 . S
C622 H641 0.913 . S
C623 H599 0.950 . S
C623 C622 1.524 . S
C623 C624 1.415 . S
C624 H600 0.950 . S
C624 C619 1.363 . S
C624 C623 1.415 . S
C625 H601 0.951 . S
C625 C626 1.366 . S
C625 C627 1.388 . S
C626 C625 1.366 . S
C626 C630 1.385 . S
C627 H602 0.951 . S
C627 C625 1.388 . S
C627 C628 1.366 . S
C628 C627 1.366 . S
C628 C629 1.414 . S
C628 C631 1.499 . S
C629 H603 0.950 . S
C629 C628 1.414 . S
C629 C630 1.374 . S
C630 H604 0.950 . S
C630 C626 1.385 . S
C630 C629 1.374 . S
C631 C628 1.499 . S
C631 C632 1.373 . S
C631 C633 1.389 . S
C632 H605 0.950 . S
C632 C618 1.377 . S
C632 C631 1.373 . S
C633 C617 1.377 . S
C633 C631 1.389 . S
C633 C634 1.524 . S
C634 C633 1.524 . S
C634 C635 1.397 . S
C634 C639 1.363 . S
C635 H606 0.950 . S
C635 C634 1.397 . S
C635 C636 1.334 . S
C636 H607 0.950 . S
C636 C635 1.334 . S
C636 C637 1.287 . S
C637 C636 1.287 . S
C637 C638 1.524 . S
C637 H640 0.999 . S
C638 H608 0.950 . S
C638 C637 1.524 . S
C638 C639 1.415 . S
C639 H609 0.950 . S
C639 C634 1.363 . S
C639 C638 1.415 . S
H640 C637 0.999 . S
H641 C622 0.913 . S
H642 C660 0.951 . S
H643 C662 0.951 . S
H644 C664 0.950 . S
H645 C665 0.950 . S
H646 C667 0.950 . S
H647 C670 0.950 . S
H648 C671 0.950 . S
H649 C673 0.950 . S
H650 C674 0.950 . S
H651 C675 0.951 . S
H652 C677 0.951 . S
H653 C679 0.950 . S
H654 C680 0.950 . S
H655 C682 0.950 . S
H656 C685 0.950 . S
H657 C686 0.950 . S
H658 C688 0.950 . S
H659 C689 0.950 . S
C660 H642 0.951 . S
C660 C661 1.366 . S
C660 C662 1.388 . S
C661 C660 1.366 . S
C661 C665 1.385 . S
C662 H643 0.951 . S
C662 C660 1.388 . S
C662 C663 1.366 . S
C663 C662 1.366 . S
C663 C664 1.414 . S
C663 C666 1.499 . S
C664 H644 0.950 . S
C664 C663 1.414 . S
C664 C665 1.374 . S
C665 H645 0.950 . S
C665 C661 1.385 . S
C665 C664 1.374 . S
C666 C663 1.499 . S
C666 C667 1.373 . S
C666 C668 1.389 . S
C667 H646 0.950 . S
C667 C666 1.373 . S
C667 C683 1.377 . S
C668 C666 1.389 . S
C668 C669 1.524 . S
C668 C682 1.377 . S
C669 C668 1.524 . S
C669 C670 1.397 . S
C669 C674 1.363 . S
C670 H647 0.950 . S
C670 C669 1.397 . S
C670 C671 1.334 . S
C671 H648 0.950 . S
C671 C670 1.334 . S
C671 C672 1.287 . S
C672 C671 1.287 . S
C672 C673 1.524 . S
C672 H691 0.913 . S
C673 H649 0.950 . S
C673 C672 1.524 . S
C673 C674 1.415 . S
C674 H650 0.950 . S
C674 C669 1.363 . S
C674 C673 1.415 . S
C675 H651 0.951 . S
C675 C676 1.366 . S
C675 C677 1.388 . S
C676 C675 1.366 . S
C676 C680 1.385 . S
C677 H652 0.951 . S
C677 C675 1.388 . S
C677 C678 1.366 . S
C678 C677 1.366 . S
C678 C679 1.414 . S
C678 C681 1.499 . S
C679 H653 0.950 . S
C679 C678 1.414 . S
C679 C680 1.374 . S
C680 H654 0.950 . S
C680 C676 1.385 . S
C680 C679 1.374 . S
C681 C678 1.499 . S
C681 C682 1.373 . S
C681 C683 1.389 . S
C682 H655 0.950 . S
C682 C668 1.377 . S
C682 C681 1.373 . S
C683 C667 1.377 . S
C683 C681 1.389 . S
C683 C684 1.524 . S
C684 C683 1.524 . S
C684 C685 1.397 . S
C684 C689 1.363 . S
C685 H656 0.950 . S
C685 C684 1.397 . S
C685 C686 1.334 . S
C686 H657 0.950 . S
C686 C685 1.334 . S
C686 C687 1.287 . S
C687 C686 1.287 . S
C687 C688 1.524 . S
C687 H690 0.999 . S
C688 H658 0.950 . S
C688 C687 1.524 . S
C688 C689 1.415 . S
C689 H659 0.950 . S
C689 C684 1.363 . S
C689 C688 1.415 . S
H690 C687 0.999 . S
H691 C672 0.913 . S
H692 C710 0.951 . S
H693 C712 0.951 . S
H694 C714 0.950 . S
H695 C715 0.950 . S
H696 C717 0.950 . S
H697 C720 0.950 . S
H698 C721 0.950 . S
H699 C723 0.950 . S
H700 C724 0.950 . S
H701 C725 0.951 . S
H702 C727 0.951 . S
H703 C729 0.950 . S
H704 C730 0.950 . S
H705 C732 0.950 . S
H706 C735 0.950 . S
H707 C736 0.950 . S
H708 C738 0.950 . S
H709 C739 0.950 . S
C710 H692 0.951 . S
C710 C711 1.366 . S
C710 C712 1.388 . S
C711 C710 1.366 . S
C711 C715 1.385 . S
C712 H693 0.951 . S
C712 C710 1.388 . S
C712 C713 1.366 . S
C713 C712 1.366 . S
C713 C714 1.414 . S
C713 C716 1.499 . S
C714 H694 0.950 . S
C714 C713 1.414 . S
C714 C715 1.374 . S
C715 H695 0.950 . S
C715 C711 1.385 . S
C715 C714 1.374 . S
C716 C713 1.499 . S
C716 C717 1.373 . S
C716 C718 1.389 . S
C717 H696 0.950 . S
C717 C716 1.373 . S
C717 C733 1.377 . S
C718 C716 1.389 . S
C718 C719 1.524 . S
C718 C732 1.377 . S
C719 C718 1.524 . S
C719 C720 1.397 . S
C719 C724 1.363 . S
C720 H697 0.950 . S
C720 C719 1.397 . S
C720 C721 1.334 . S
C721 H698 0.950 . S
C721 C720 1.334 . S
C721 C722 1.287 . S
C722 C721 1.287 . S
C722 C723 1.524 . S
C722 H741 0.913 . S
C723 H699 0.950 . S
C723 C722 1.524 . S
C723 C724 1.415 . S
C724 H700 0.950 . S
C724 C719 1.363 . S
C724 C723 1.415 . S
C725 H701 0.951 . S
C725 C726 1.366 . S
C725 C727 1.388 . S
C726 C725 1.366 . S
C726 C730 1.385 . S
C727 H702 0.951 . S
C727 C725 1.388 . S
C727 C728 1.366 . S
C728 C727 1.366 . S
C728 C729 1.414 . S
C728 C731 1.499 . S
C729 H703 0.950 . S
C729 C728 1.414 . S
C729 C730 1.374 . S
C730 H704 0.950 . S
C730 C726 1.385 . S
C730 C729 1.374 . S
C731 C728 1.499 . S
C731 C732 1.373 . S
C731 C733 1.389 . S
C732 H705 0.950 . S
C732 C718 1.377 . S
C732 C731 1.373 . S
C733 C717 1.377 . S
C733 C731 1.389 . S
C733 C734 1.524 . S
C734 C733 1.524 . S
C734 C735 1.397 . S
C734 C739 1.363 . S
C735 H706 0.950 . S
C735 C734 1.397 . S
C735 C736 1.334 . S
C736 H707 0.950 . S
C736 C735 1.334 . S
C736 C737 1.287 . S
C737 C736 1.287 . S
C737 C738 1.524 . S
C737 H740 0.999 . S
C738 H708 0.950 . S
C738 C737 1.524 . S
C738 C739 1.415 . S
C739 H709 0.950 . S
C739 C734 1.363 . S
C739 C738 1.415 . S
H740 C737 0.999 . S
H741 C722 0.913 . S
H742 C760 0.951 . S
H743 C762 0.951 . S
H744 C764 0.950 . S
H745 C765 0.950 . S
H746 C767 0.950 . S
H747 C770 0.950 . S
H748 C771 0.950 . S
H749 C773 0.950 . S
H750 C774 0.950 . S
H751 C775 0.951 . S
H752 C777 0.951 . S
H753 C779 0.950 . S
H754 C780 0.950 . S
H755 C782 0.950 . S
H756 C785 0.950 . S
H757 C786 0.950 . S
H758 C788 0.950 . S
H759 C789 0.950 . S
C760 H742 0.951 . S
C760 C761 1.366 . S
C760 C762 1.388 . S
C761 C760 1.366 . S
C761 C765 1.385 . S
C762 H743 0.951 . S
C762 C760 1.388 . S
C762 C763 1.366 . S
C763 C762 1.366 . S
C763 C764 1.414 . S
C763 C766 1.499 . S
C764 H744 0.950 . S
C764 C763 1.414 . S
C764 C765 1.374 . S
C765 H745 0.950 . S
C765 C761 1.385 . S
C765 C764 1.374 . S
C766 C763 1.499 . S
C766 C767 1.373 . S
C766 C768 1.389 . S
C767 H746 0.950 . S
C767 C766 1.373 . S
C767 C783 1.377 . S
C768 C766 1.389 . S
C768 C769 1.524 . S
C768 C782 1.377 . S
C769 C768 1.524 . S
C769 C770 1.397 . S
C769 C774 1.363 . S
C770 H747 0.950 . S
C770 C769 1.397 . S
C770 C771 1.334 . S
C771 H748 0.950 . S
C771 C770 1.334 . S
C771 C772 1.287 . S
C772 C771 1.287 . S
C772 C773 1.524 . S
C772 H791 0.913 . S
C773 H749 0.950 . S
C773 C772 1.524 . S
C773 C774 1.415 . S
C774 H750 0.950 . S
C774 C769 1.363 . S
C774 C773 1.415 . S
C775 H751 0.951 . S
C775 C776 1.366 . S
C775 C777 1.388 . S
C776 C775 1.366 . S
C776 C780 1.385 . S
C777 H752 0.951 . S
C777 C775 1.388 . S
C777 C778 1.366 . S
C778 C777 1.366 . S
C778 C779 1.414 . S
C778 C781 1.499 . S
C779 H753 0.950 . S
C779 C778 1.414 . S
C779 C780 1.374 . S
C780 H754 0.950 . S
C780 C776 1.385 . S
C780 C779 1.374 . S
C781 C778 1.499 . S
C781 C782 1.373 . S
C781 C783 1.389 . S
C782 H755 0.950 . S
C782 C768 1.377 . S
C782 C781 1.373 . S
C783 C767 1.377 . S
C783 C781 1.389 . S
C783 C784 1.524 . S
C784 C783 1.524 . S
C784 C785 1.397 . S
C784 C789 1.363 . S
C785 H756 0.950 . S
C785 C784 1.397 . S
C785 C786 1.334 . S
C786 H757 0.950 . S
C786 C785 1.334 . S
C786 C787 1.287 . S
C787 C786 1.287 . S
C787 C788 1.524 . S
C787 H790 0.999 . S
C788 H758 0.950 . S
C788 C787 1.524 . S
C788 C789 1.415 . S
C789 H759 0.950 . S
C789 C784 1.363 . S
C789 C788 1.415 . S
H790 C787 0.999 . S
H791 C772 0.913 . S
H792 C810 0.951 . S
H793 C812 0.951 . S
H794 C814 0.950 . S
H795 C815 0.950 . S
H796 C817 0.950 . S
H797 C820 0.950 . S
H798 C821 0.950 . S
H799 C823 0.950 . S
H800 C824 0.950 . S
H801 C825 0.951 . S
H802 C827 0.951 . S
H803 C829 0.950 . S
H804 C830 0.950 . S
H805 C832 0.950 . S
H806 C835 0.950 . S
H807 C836 0.950 . S
H808 C838 0.950 . S
H809 C839 0.950 . S
C810 H792 0.951 . S
C810 C811 1.366 . S
C810 C812 1.388 . S
C811 C810 1.366 . S
C811 C815 1.385 . S
C812 H793 0.951 . S
C812 C810 1.388 . S
C812 C813 1.366 . S
C813 C812 1.366 . S
C813 C814 1.414 . S
C813 C816 1.499 . S
C814 H794 0.950 . S
C814 C813 1.414 . S
C814 C815 1.374 . S
C815 H795 0.950 . S
C815 C811 1.385 . S
C815 C814 1.374 . S
C816 C813 1.499 . S
C816 C817 1.373 . S
C816 C818 1.389 . S
C817 H796 0.950 . S
C817 C816 1.373 . S
C817 C833 1.377 . S
C818 C816 1.389 . S
C818 C819 1.524 . S
C818 C832 1.377 . S
C819 C818 1.524 . S
C819 C820 1.397 . S
C819 C824 1.363 . S
C820 H797 0.950 . S
C820 C819 1.397 . S
C820 C821 1.334 . S
C821 H798 0.950 . S
C821 C820 1.334 . S
C821 C822 1.287 . S
C822 C821 1.287 . S
C822 C823 1.524 . S
C822 H841 0.913 . S
C823 H799 0.950 . S
C823 C822 1.524 . S
C823 C824 1.415 . S
C824 H800 0.950 . S
C824 C819 1.363 . S
C824 C823 1.415 . S
C825 H801 0.951 . S
C825 C826 1.366 . S
C825 C827 1.388 . S
C826 C825 1.366 . S
C826 C830 1.385 . S
C827 H802 0.951 . S
C827 C825 1.388 . S
C827 C828 1.366 . S
C828 C827 1.366 . S
C828 C829 1.414 . S
C828 C831 1.499 . S
C829 H803 0.950 . S
C829 C828 1.414 . S
C829 C830 1.374 . S
C830 H804 0.950 . S
C830 C826 1.385 . S
C830 C829 1.374 . S
C831 C828 1.499 . S
C831 C832 1.373 . S
C831 C833 1.389 . S
C832 H805 0.950 . S
C832 C818 1.377 . S
C832 C831 1.373 . S
C833 C817 1.377 . S
C833 C831 1.389 . S
C833 C834 1.524 . S
C834 C833 1.524 . S
C834 C835 1.397 . S
C834 C839 1.363 . S
C835 H806 0.950 . S
C835 C834 1.397 . S
C835 C836 1.334 . S
C836 H807 0.950 . S
C836 C835 1.334 . S
C836 C837 1.287 . S
C837 C836 1.287 . S
C837 C838 1.524 . S
C837 H840 0.999 . S
C838 H808 0.950 . S
C838 C837 1.524 . S
C838 C839 1.415 . S
C839 H809 0.950 . S
C839 C834 1.363 . S
C839 C838 1.415 . S
H840 C837 0.999 . S
H841 C822 0.913 . S
H842 C860 0.951 . S
H843 C862 0.951 . S
H844 C864 0.950 . S
H845 C865 0.950 . S
H846 C867 0.950 . S
H847 C870 0.950 . S
H848 C871 0.950 . S
H849 C873 0.950 . S
H850 C874 0.950 . S
H851 C875 0.951 . S
H852 C877 0.951 . S
H853 C879 0.950 . S
H854 C880 0.950 . S
H855 C882 0.950 . S
H856 C885 0.950 . S
H857 C886 0.950 . S
H858 C888 0.950 . S
H859 C889 0.950 . S
C860 H842 0.951 . S
C860 C861 1.366 . S
C860 C862 1.388 . S
C861 C860 1.366 . S
C861 C865 1.385 . S
C862 H843 0.951 . S
C862 C860 1.388 . S
C862 C863 1.366 . S
C863 C862 1.366 . S
C863 C864 1.414 . S
C863 C866 1.499 . S
C864 H844 0.950 . S
C864 C863 1.414 . S
C864 C865 1.374 . S
C865 H845 0.950 . S
C865 C861 1.385 . S
C865 C864 1.374 . S
C866 C863 1.499 . S
C866 C867 1.373 . S
C866 C868 1.389 . S
C867 H846 0.950 . S
C867 C866 1.373 . S
C867 C883 1.377 . S
C868 C866 1.389 . S
C868 C869 1.524 . S
C868 C882 1.377 . S
C869 C868 1.524 . S
C869 C870 1.397 . S
C869 C874 1.363 . S
C870 H847 0.950 . S
C870 C869 1.397 . S
C870 C871 1.334 . S
C871 H848 0.950 . S
C871 C870 1.334 . S
C871 C872 1.287 . S
C872 C871 1.287 . S
C872 C873 1.524 . S
C872 H891 0.913 . S
C873 H849 0.950 . S
C873 C872 1.524 . S
C873 C874 1.415 . S
C874 H850 0.950 . S
C874 C869 1.363 . S
C874 C873 1.415 . S
C875 H851 0.951 . S
C875 C876 1.366 . S
C875 C877 1.388 . S
C876 C875 1.366 . S
C876 C880 1.385 . S
C877 H852 0.951 . S
C877 C875 1.388 . S
C877 C878 1.366 . S
C878 C877 1.366 . S
C878 C879 1.414 . S
C878 C881 1.499 . S
C879 H853 0.950 . S
C879 C878 1.414 . S
C879 C880 1.374 . S
C880 H854 0.950 . S
C880 C876 1.385 . S
C880 C879 1.374 . S
C881 C878 1.499 . S
C881 C882 1.373 . S
C881 C883 1.389 . S
C882 H855 0.950 . S
C882 C868 1.377 . S
C882 C881 1.373 . S
C883 C867 1.377 . S
C883 C881 1.389 . S
C883 C884 1.524 . S
C884 C883 1.524 . S
C884 C885 1.397 . S
C884 C889 1.363 . S
C885 H856 0.950 . S
C885 C884 1.397 . S
C885 C886 1.334 . S
C886 H857 0.950 . S
C886 C885 1.334 . S
C886 C887 1.287 . S
C887 C886 1.287 . S
C887 C888 1.524 . S
C887 H890 0.999 . S
C888 H858 0.950 . S
C888 C887 1.524 . S
C888 C889 1.415 . S
C889 H859 0.950 . S
C889 C884 1.363 . S
C889 C888 1.415 . S
H890 C887 0.999 . S
H891 C872 0.913 . S
H892 C910 0.951 . S
H893 C912 0.951 . S
H894 C914 0.950 . S
H895 C915 0.950 . S
H896 C917 0.950 . S
H897 C920 0.950 . S
H898 C921 0.950 . S
H899 C923 0.950 . S
H900 C924 0.950 . S
H901 C925 0.951 . S
H902 C927 0.951 . S
H903 C929 0.950 . S
H904 C930 0.950 . S
H905 C932 0.950 . S
H906 C935 0.950 . S
H907 C936 0.950 . S
H908 C938 0.950 . S
H909 C939 0.950 . S
C910 H892 0.951 . S
C910 C911 1.366 . S
C910 C912 1.388 . S
C911 C910 1.366 . S
C911 C915 1.385 . S
C912 H893 0.951 . S
C912 C910 1.388 . S
C912 C913 1.366 . S
C913 C912 1.366 . S
C913 C914 1.414 . S
C913 C916 1.499 . S
C914 H894 0.950 . S
C914 C913 1.414 . S
C914 C915 1.374 . S
C915 H895 0.950 . S
C915 C911 1.385 . S
C915 C914 1.374 . S
C916 C913 1.499 . S
C916 C917 1.373 . S
C916 C918 1.389 . S
C917 H896 0.950 . S
C917 C916 1.373 . S
C917 C933 1.377 . S
C918 C916 1.389 . S
C918 C919 1.524 . S
C918 C932 1.377 . S
C919 C918 1.524 . S
C919 C920 1.397 . S
C919 C924 1.363 . S
C920 H897 0.950 . S
C920 C919 1.397 . S
C920 C921 1.334 . S
C921 H898 0.950 . S
C921 C920 1.334 . S
C921 C922 1.287 . S
C922 C921 1.287 . S
C922 C923 1.524 . S
C922 H941 0.913 . S
C923 H899 0.950 . S
C923 C922 1.524 . S
C923 C924 1.415 . S
C924 H900 0.950 . S
C924 C919 1.363 . S
C924 C923 1.415 . S
C925 H901 0.951 . S
C925 C926 1.366 . S
C925 C927 1.388 . S
C926 C925 1.366 . S
C926 C930 1.385 . S
C927 H902 0.951 . S
C927 C925 1.388 . S
C927 C928 1.366 . S
C928 C927 1.366 . S
C928 C929 1.414 . S
C928 C931 1.499 . S
C929 H903 0.950 . S
C929 C928 1.414 . S
C929 C930 1.374 . S
C930 H904 0.950 . S
C930 C926 1.385 . S
C930 C929 1.374 . S
C931 C928 1.499 . S
C931 C932 1.373 . S
C931 C933 1.389 . S
C932 H905 0.950 . S
C932 C918 1.377 . S
C932 C931 1.373 . S
C933 C917 1.377 . S
C933 C931 1.389 . S
C933 C934 1.524 . S
C934 C933 1.524 . S
C934 C935 1.397 . S
C934 C939 1.363 . S
C935 H906 0.950 . S
C935 C934 1.397 . S
C935 C936 1.334 . S
C936 H907 0.950 . S
C936 C935 1.334 . S
C936 C937 1.287 . S
C937 C936 1.287 . S
C937 C938 1.524 . S
C937 H940 0.999 . S
C938 H908 0.950 . S
C938 C937 1.524 . S
C938 C939 1.415 . S
C939 H909 0.950 . S
C939 C934 1.363 . S
C939 C938 1.415 . S
H940 C937 0.999 . S
H941 C922 0.913 . S
H942 C960 0.951 . S
H943 C962 0.951 . S
H944 C964 0.950 . S
H945 C965 0.950 . S
H946 C967 0.950 . S
H947 C970 0.950 . S
H948 C971 0.950 . S
H949 C973 0.950 . S
H950 C974 0.950 . S
H951 C975 0.951 . S
H952 C977 0.951 . S
H953 C979 0.950 . S
H954 C980 0.950 . S
H955 C982 0.950 . S
H956 C985 0.950 . S
H957 C986 0.950 . S
H958 C988 0.950 . S
H959 C989 0.950 . S
C960 H942 0.951 . S
C960 C961 1.366 . S
C960 C962 1.388 . S
C961 C960 1.366 . S
C961 C965 1.385 . S
C962 H943 0.951 . S
C962 C960 1.388 . S
C962 C963 1.366 . S
C963 C962 1.366 . S
C963 C964 1.414 . S
C963 C966 1.499 . S
C964 H944 0.950 . S
C964 C963 1.414 . S
C964 C965 1.374 . S
C965 H945 0.950 . S
C965 C961 1.385 . S
C965 C964 1.374 . S
C966 C963 1.499 . S
C966 C967 1.373 . S
C966 C968 1.389 . S
C967 H946 0.950 . S
C967 C966 1.373 . S
C967 C983 1.377 . S
C968 C966 1.389 . S
C968 C969 1.524 . S
C968 C982 1.377 . S
C969 C968 1.524 . S
C969 C970 1.397 . S
C969 C974 1.363 . S
C970 H947 0.950 . S
C970 C969 1.397 . S
C970 C971 1.334 . S
C971 H948 0.950 . S
C971 C970 1.334 . S
C971 C972 1.287 . S
C972 C971 1.287 . S
C972 C973 1.524 . S
C972 H991 0.913 . S
C973 H949 0.950 . S
C973 C972 1.524 . S
C973 C974 1.415 . S
C974 H950 0.950 . S
C974 C969 1.363 . S
C974 C973 1.415 . S
C975 H951 0.951 . S
C975 C976 1.366 . S
C975 C977 1.388 . S
C976 C975 1.366 . S
C976 C980 1.385 . S
C977 H952 0.951 . S
C977 C975 1.388 . S
C977 C978 1.366 . S
C978 C977 1.366 . S
C978 C979 1.414 . S
C978 C981 1.499 . S
C979 H953 0.950 . S
C979 C978 1.414 . S
C979 C980 1.374 . S
C980 H954 0.950 . S
C980 C976 1.385 . S
C980 C979 1.374 . S
C981 C978 1.499 . S
C981 C982 1.373 . S
C981 C983 1.389 . S
C982 H955 0.950 . S
C982 C968 1.377 . S
C982 C981 1.373 . S
C983 C967 1.377 . S
C983 C981 1.389 . S
C983 C984 1.524 . S
C984 C983 1.524 . S
C984 C985 1.397 . S
C984 C989 1.363 . S
C985 H956 0.950 . S
C985 C984 1.397 . S
C985 C986 1.334 . S
C986 H957 0.950 . S
C986 C985 1.334 . S
C986 C987 1.287 . S
C987 C986 1.287 . S
C987 C988 1.524 . S
C987 H990 0.999 . S
C988 H958 0.950 . S
C988 C987 1.524 . S
C988 C989 1.415 . S
C989 H959 0.950 . S
C989 C984 1.363 . S
C989 C988 1.415 . S
H990 C987 0.999 . S
H991 C972 0.913 . S
H992 C1010 0.951 . S
H993 C1012 0.951 . S
H994 C1014 0.950 . S
H995 C1015 0.950 . S
H996 C1017 0.950 . S
H997 C1020 0.950 . S
H998 C1021 0.950 . S
H999 C1023 0.950 . S
H1000 C1024 0.950 . S
H1001 C1025 0.951 . S
H1002 C1027 0.951 . S
H1003 C1029 0.950 . S
H1004 C1030 0.950 . S
H1005 C1032 0.950 . S
H1006 C1035 0.950 . S
H1007 C1036 0.950 . S
H1008 C1038 0.950 . S
H1009 C1039 0.950 . S
C1010 H992 0.951 . S
C1010 C1011 1.366 . S
C1010 C1012 1.388 . S
C1011 C1010 1.366 . S
C1011 C1015 1.385 . S
C1012 H993 0.951 . S
C1012 C1010 1.388 . S
C1012 C1013 1.366 . S
C1013 C1012 1.366 . S
C1013 C1014 1.414 . S
C1013 C1016 1.499 . S
C1014 H994 0.950 . S
C1014 C1013 1.414 . S
C1014 C1015 1.374 . S
C1015 H995 0.950 . S
C1015 C1011 1.385 . S
C1015 C1014 1.374 . S
C1016 C1013 1.499 . S
C1016 C1017 1.373 . S
C1016 C1018 1.389 . S
C1017 H996 0.950 . S
C1017 C1016 1.373 . S
C1017 C1033 1.377 . S
C1018 C1016 1.389 . S
C1018 C1019 1.524 . S
C1018 C1032 1.377 . S
C1019 C1018 1.524 . S
C1019 C1020 1.397 . S
C1019 C1024 1.363 . S
C1020 H997 0.950 . S
C1020 C1019 1.397 . S
C1020 C1021 1.334 . S
C1021 H998 0.950 . S
C1021 C1020 1.334 . S
C1021 C1022 1.287 . S
C1022 C1021 1.287 . S
C1022 C1023 1.524 . S
C1022 H1041 0.913 . S
C1023 H999 0.950 . S
C1023 C1022 1.524 . S
C1023 C1024 1.415 . S
C1024 H1000 0.950 . S
C1024 C1019 1.363 . S
C1024 C1023 1.415 . S
C1025 H1001 0.951 . S
C1025 C1026 1.366 . S
C1025 C1027 1.388 . S
C1026 C1025 1.366 . S
C1026 C1030 1.385 . S
C1027 H1002 0.951 . S
C1027 C1025 1.388 . S
C1027 C1028 1.366 . S
C1028 C1027 1.366 . S
C1028 C1029 1.414 . S
C1028 C1031 1.499 . S
C1029 H1003 0.950 . S
C1029 C1028 1.414 . S
C1029 C1030 1.374 . S
C1030 H1004 0.950 . S
C1030 C1026 1.385 . S
C1030 C1029 1.374 . S
C1031 C1028 1.499 . S
C1031 C1032 1.373 . S
C1031 C1033 1.389 . S
C1032 H1005 0.950 . S
C1032 C1018 1.377 . S
C1032 C1031 1.373 . S
C1033 C1017 1.377 . S
C1033 C1031 1.389 . S
C1033 C1034 1.524 . S
C1034 C1033 1.524 . S
C1034 C1035 1.397 . S
C1034 C1039 1.363 . S
C1035 H1006 0.950 . S
C1035 C1034 1.397 . S
C1035 C1036 1.334 . S
C1036 H1007 0.950 . S
C1036 C1035 1.334 . S
C1036 C1037 1.287 . S
C1037 C1036 1.287 . S
C1037 C1038 1.524 . S
C1037 H1040 0.999 . S
C1038 H1008 0.950 . S
C1038 C1037 1.524 . S
C1038 C1039 1.415 . S
C1039 H1009 0.950 . S
C1039 C1034 1.363 . S
C1039 C1038 1.415 . S
H1040 C1037 0.999 . S
H1041 C1022 0.913 . S
H1042 C1060 0.951 . S
H1043 C1062 0.951 . S
H1044 C1064 0.950 . S
H1045 C1065 0.950 . S
H1046 C1067 0.950 . S
H1047 C1070 0.950 . S
H1048 C1071 0.950 . S
H1049 C1073 0.950 . S
H1050 C1074 0.950 . S
H1051 C1075 0.951 . S
H1052 C1077 0.951 . S
H1053 C1079 0.950 . S
H1054 C1080 0.950 . S
H1055 C1082 0.950 . S
H1056 C1085 0.950 . S
H1057 C1086 0.950 . S
H1058 C1088 0.950 . S
H1059 C1089 0.950 . S
C1060 H1042 0.951 . S
C1060 C1061 1.366 . S
C1060 C1062 1.388 . S
C1061 C1060 1.366 . S
C1061 C1065 1.385 . S
C1062 H1043 0.951 . S
C1062 C1060 1.388 . S
C1062 C1063 1.366 . S
C1063 C1062 1.366 . S
C1063 C1064 1.414 . S
C1063 C1066 1.499 . S
C1064 H1044 0.950 . S
C1064 C1063 1.414 . S
C1064 C1065 1.374 . S
C1065 H1045 0.950 . S
C1065 C1061 1.385 . S
C1065 C1064 1.374 . S
C1066 C1063 1.499 . S
C1066 C1067 1.373 . S
C1066 C1068 1.389 . S
C1067 H1046 0.950 . S
C1067 C1066 1.373 . S
C1067 C1083 1.377 . S
C1068 C1066 1.389 . S
C1068 C1069 1.524 . S
C1068 C1082 1.377 . S
C1069 C1068 1.524 . S
C1069 C1070 1.397 . S
C1069 C1074 1.363 . S
C1070 H1047 0.950 . S
C1070 C1069 1.397 . S
C1070 C1071 1.334 . S
C1071 H1048 0.950 . S
C1071 C1070 1.334 . S
C1071 C1072 1.287 . S
C1072 C1071 1.287 . S
C1072 C1073 1.524 . S
C1072 H1091 0.913 . S
C1073 H1049 0.950 . S
C1073 C1072 1.524 . S
C1073 C1074 1.415 . S
C1074 H1050 0.950 . S
C1074 C1069 1.363 . S
C1074 C1073 1.415 . S
C1075 H1051 0.951 . S
C1075 C1076 1.366 . S
C1075 C1077 1.388 . S
C1076 C1075 1.366 . S
C1076 C1080 1.385 . S
C1077 H1052 0.951 . S
C1077 C1075 1.388 . S
C1077 C1078 1.366 . S
C1078 C1077 1.366 . S
C1078 C1079 1.414 . S
C1078 C1081 1.499 . S
C1079 H1053 0.950 . S
C1079 C1078 1.414 . S
C1079 C1080 1.374 . S
C1080 H1054 0.950 . S
C1080 C1076 1.385 . S
C1080 C1079 1.374 . S
C1081 C1078 1.499 . S
C1081 C1082 1.373 . S
C1081 C1083 1.389 . S
C1082 H1055 0.950 . S
C1082 C1068 1.377 . S
C1082 C1081 1.373 . S
C1083 C1067 1.377 . S
C1083 C1081 1.389 . S
C1083 C1084 1.524 . S
C1084 C1083 1.524 . S
C1084 C1085 1.397 . S
C1084 C1089 1.363 . S
C1085 H1056 0.950 . S
C1085 C1084 1.397 . S
C1085 C1086 1.334 . S
C1086 H1057 0.950 . S
C1086 C1085 1.334 . S
C1086 C1087 1.287 . S
C1087 C1086 1.287 . S
C1087 C1088 1.524 . S
C1087 H1090 0.999 . S
C1088 H1058 0.950 . S
C1088 C1087 1.524 . S
C1088 C1089 1.415 . S
C1089 H1059 0.950 . S
C1089 C1084 1.363 . S
C1089 C1088 1.415 . S
H1090 C1087 0.999 . S
H1091 C1072 0.913 . S
H1092 C1110 0.951 . S
H1093 C1112 0.951 . S
H1094 C1114 0.950 . S
H1095 C1115 0.950 . S
H1096 C1117 0.950 . S
H1097 C1120 0.950 . S
H1098 C1121 0.950 . S
H1099 C1123 0.950 . S
H1100 C1124 0.950 . S
H1101 C1125 0.951 . S
H1102 C1127 0.951 . S
H1103 C1129 0.950 . S
H1104 C1130 0.950 . S
H1105 C1132 0.950 . S
H1106 C1135 0.950 . S
H1107 C1136 0.950 . S
H1108 C1138 0.950 . S
H1109 C1139 0.950 . S
C1110 H1092 0.951 . S
C1110 C1111 1.366 . S
C1110 C1112 1.388 . S
C1111 C1110 1.366 . S
C1111 C1115 1.385 . S
C1112 H1093 0.951 . S
C1112 C1110 1.388 . S
C1112 C1113 1.366 . S
C1113 C1112 1.366 . S
C1113 C1114 1.414 . S
C1113 C1116 1.499 . S
C1114 H1094 0.950 . S
C1114 C1113 1.414 . S
C1114 C1115 1.374 . S
C1115 H1095 0.950 . S
C1115 C1111 1.385 . S
C1115 C1114 1.374 . S
C1116 C1113 1.499 . S
C1116 C1117 1.373 . S
C1116 C1118 1.389 . S
C1117 H1096 0.950 . S
C1117 C1116 1.373 . S
C1117 C1133 1.377 . S
C1118 C1116 1.389 . S
C1118 C1119 1.524 . S
C1118 C1132 1.377 . S
C1119 C1118 1.524 . S
C1119 C1120 1.397 . S
C1119 C1124 1.363 . S
C1120 H1097 0.950 . S
C1120 C1119 1.397 . S
C1120 C1121 1.334 . S
C1121 H1098 0.950 . S
C1121 C1120 1.334 . S
C1121 C1122 1.287 . S
C1122 C1121 1.287 . S
C1122 C1123 1.524 . S
C1122 H1141 0.913 . S
C1123 H1099 0.950 . S
C1123 C1122 1.524 . S
C1123 C1124 1.415 . S
C1124 H1100 0.950 . S
C1124 C1119 1.363 . S
C1124 C1123 1.415 . S
C1125 H1101 0.951 . S
C1125 C1126 1.366 . S
C1125 C1127 1.388 . S
C1126 C1125 1.366 . S
C1126 C1130 1.385 . S
C1127 H1102 0.951 . S
C1127 C1125 1.388 . S
C1127 C1128 1.366 . S
C1128 C1127 1.366 . S
C1128 C1129 1.414 . S
C1128 C1131 1.499 . S
C1129 H1103 0.950 . S
C1129 C1128 1.414 . S
C1129 C1130 1.374 . S
C1130 H1104 0.950 . S
C1130 C1126 1.385 . S
C1130 C1129 1.374 . S
C1131 C1128 1.499 . S
C1131 C1132 1.373 . S
C1131 C1133 1.389 . S
C1132 H1105 0.950 . S
C1132 C1118 1.377 . S
C1132 C1131 1.373 . S
C1133 C1117 1.377 . S
C1133 C1131 1.389 . S
C1133 C1134 1.524 . S
C1134 C1133 1.524 . S
C1134 C1135 1.397 . S
C1134 C1139 1.363 . S
C1135 H1106 0.950 . S
C1135 C1134 1.397 . S
C1135 C1136 1.334 . S
C1136 H1107 0.950 . S
C1136 C1135 1.334 . S
C1136 C1137 1.287 . S
C1137 C1136 1.287 . S
C1137 C1138 1.524 . S
C1137 H1140 0.999 . S
C1138 H1108 0.950 . S
C1138 C1137 1.524 . S
C1138 C1139 1.415 . S
C1139 H1109 0.950 . S
C1139 C1134 1.363 . S
C1139 C1138 1.415 . S
H1140 C1137 0.999 . S
H1141 C1122 0.913 . S
H1142 C1160 0.951 . S
H1143 C1162 0.951 . S
H1144 C1164 0.950 . S
H1145 C1165 0.950 . S
H1146 C1167 0.950 . S
H1147 C1170 0.950 . S
H1148 C1171 0.950 . S
H1149 C1173 0.950 . S
H1150 C1174 0.950 . S
H1151 C1175 0.951 . S
H1152 C1177 0.951 . S
H1153 C1179 0.950 . S
H1154 C1180 0.950 . S
H1155 C1182 0.950 . S
H1156 C1185 0.950 . S
H1157 C1186 0.950 . S
H1158 C1188 0.950 . S
H1159 C1189 0.950 . S
C1160 H1142 0.951 . S
C1160 C1161 1.366 . S
C1160 C1162 1.388 . S
C1161 C1160 1.366 . S
C1161 C1165 1.385 . S
C1162 H1143 0.951 . S
C1162 C1160 1.388 . S
C1162 C1163 1.366 . S
C1163 C1162 1.366 . S
C1163 C1164 1.414 . S
C1163 C1166 1.499 . S
C1164 H1144 0.950 . S
C1164 C1163 1.414 . S
C1164 C1165 1.374 . S
C1165 H1145 0.950 . S
C1165 C1161 1.385 . S
C1165 C1164 1.374 . S
C1166 C1163 1.499 . S
C1166 C1167 1.373 . S
C1166 C1168 1.389 . S
C1167 H1146 0.950 . S
C1167 C1166 1.373 . S
C1167 C1183 1.377 . S
C1168 C1166 1.389 . S
C1168 C1169 1.524 . S
C1168 C1182 1.377 . S
C1169 C1168 1.524 . S
C1169 C1170 1.397 . S
C1169 C1174 1.363 . S
C1170 H1147 0.950 . S
C1170 C1169 1.397 . S
C1170 C1171 1.334 . S
C1171 H1148 0.950 . S
C1171 C1170 1.334 . S
C1171 C1172 1.287 . S
C1172 C1171 1.287 . S
C1172 C1173 1.524 . S
C1172 H1191 0.913 . S
C1173 H1149 0.950 . S
C1173 C1172 1.524 . S
C1173 C1174 1.415 . S
C1174 H1150 0.950 . S
C1174 C1169 1.363 . S
C1174 C1173 1.415 . S
C1175 H1151 0.951 . S
C1175 C1176 1.366 . S
C1175 C1177 1.388 . S
C1176 C1175 1.366 . S
C1176 C1180 1.385 . S
C1177 H1152 0.951 . S
C1177 C1175 1.388 . S
C1177 C1178 1.366 . S
C1178 C1177 1.366 . S
C1178 C1179 1.414 . S
C1178 C1181 1.499 . S
C1179 H1153 0.950 . S
C1179 C1178 1.414 . S
C1179 C1180 1.374 . S
C1180 H1154 0.950 . S
C1180 C1176 1.385 . S
C1180 C1179 1.374 . S
C1181 C1178 1.499 . S
C1181 C1182 1.373 . S
C1181 C1183 1.389 . S
C1182 H1155 0.950 . S
C1182 C1168 1.377 . S
C1182 C1181 1.373 . S
C1183 C1167 1.377 . S
C1183 C1181 1.389 . S
C1183 C1184 1.524 . S
C1184 C1183 1.524 . S
C1184 C1185 1.397 . S
C1184 C1189 1.363 . S
C1185 H1156 0.950 . S
C1185 C1184 1.397 . S
C1185 C1186 1.334 . S
C1186 H1157 0.950 . S
C1186 C1185 1.334 . S
C1186 C1187 1.287 . S
C1187 C1186 1.287 . S
C1187 C1188 1.524 . S
C1187 H1190 0.999 . S
C1188 H1158 0.950 . S
C1188 C1187 1.524 . S
C1188 C1189 1.415 . S
C1189 H1159 0.950 . S
C1189 C1184 1.363 . S
C1189 C1188 1.415 . S
H1190 C1187 0.999 . S
H1191 C1172 0.913 . S
H1192 C1210 0.951 . S
H1193 C1212 0.951 . S
H1194 C1214 0.950 . S
H1195 C1215 0.950 . S
H1196 C1217 0.950 . S
H1197 C1220 0.950 . S
H1198 C1221 0.950 . S
H1199 C1223 0.950 . S
H1200 C1224 0.950 . S
H1201 C1225 0.951 . S
H1202 C1227 0.951 . S
H1203 C1229 0.950 . S
H1204 C1230 0.950 . S
H1205 C1232 0.950 . S
H1206 C1235 0.950 . S
H1207 C1236 0.950 . S
H1208 C1238 0.950 . S
H1209 C1239 0.950 . S
C1210 H1192 0.951 . S
C1210 C1211 1.366 . S
C1210 C1212 1.388 . S
C1211 C1210 1.366 . S
C1211 C1215 1.385 . S
C1212 H1193 0.951 . S
C1212 C1210 1.388 . S
C1212 C1213 1.366 . S
C1213 C1212 1.366 . S
C1213 C1214 1.414 . S
C1213 C1216 1.499 . S
C1214 H1194 0.950 . S
C1214 C1213 1.414 . S
C1214 C1215 1.374 . S
C1215 H1195 0.950 . S
C1215 C1211 1.385 . S
C1215 C1214 1.374 . S
C1216 C1213 1.499 . S
C1216 C1217 1.373 . S
C1216 C1218 1.389 . S
C1217 H1196 0.950 . S
C1217 C1216 1.373 . S
C1217 C1233 1.377 . S
C1218 C1216 1.389 . S
C1218 C1219 1.524 . S
C1218 C1232 1.377 . S
C1219 C1218 1.524 . S
C1219 C1220 1.397 . S
C1219 C1224 1.363 . S
C1220 H1197 0.950 . S
C1220 C1219 1.397 . S
C1220 C1221 1.334 . S
C1221 H1198 0.950 . S
C1221 C1220 1.334 . S
C1221 C1222 1.287 . S
C1222 C1221 1.287 . S
C1222 C1223 1.524 . S
C1222 H1241 0.913 . S
C1223 H1199 0.950 . S
C1223 C1222 1.524 . S
C1223 C1224 1.415 . S
C1224 H1200 0.950 . S
C1224 C1219 1.363 . S
C1224 C1223 1.415 . S
C1225 H1201 0.951 . S
C1225 C1226 1.366 . S
C1225 C1227 1.388 . S
C1226 C1225 1.366 . S
C1226 C1230 1.385 . S
C1227 H1202 0.951 . S
C1227 C1225 1.388 . S
C1227 C1228 1.366 . S
C1228 C1227 1.366 . S
C1228 C1229 1.414 . S
C1228 C1231 1.499 . S
C1229 H1203 0.950 . S
C1229 C1228 1.414 . S
C1229 C1230 1.374 . S
C1230 H1204 0.950 . S
C1230 C1226 1.385 . S
C1230 C1229 1.374 . S
C1231 C1228 1.499 . S
C1231 C1232 1.373 . S
C1231 C1233 1.389 . S
C1232 H1205 0.950 . S
C1232 C1218 1.377 . S
C1232 C1231 1.373 . S
C1233 C1217 1.377 . S
C1233 C1231 1.389 . S
C1233 C1234 1.524 . S
C1234 C1233 1.524 . S
C1234 C1235 1.397 . S
C1234 C1239 1.363 . S
C1235 H1206 0.950 . S
C1235 C1234 1.397 . S
C1235 C1236 1.334 . S
C1236 H1207 0.950 . S
C1236 C1235 1.334 . S
C1236 C1237 1.287 . S
C1237 C1236 1.287 . S
C1237 C1238 1.524 . S
C1237 H1240 0.999 . S
C1238 H1208 0.950 . S
C1238 C1237 1.524 . S
C1238 C1239 1.415 . S
C1239 H1209 0.950 . S
C1239 C1234 1.363 . S
C1239 C1238 1.415 . S
H1240 C1237 0.999 . S
H1241 C1222 0.913 . S
H1242 C1260 0.951 . S
H1243 C1262 0.951 . S
H1244 C1264 0.950 . S
H1245 C1265 0.950 . S
H1246 C1267 0.950 . S
H1247 C1270 0.950 . S
H1248 C1271 0.950 . S
H1249 C1273 0.950 . S
H1250 C1274 0.950 . S
H1251 C1275 0.951 . S
H1252 C1277 0.951 . S
H1253 C1279 0.950 . S
H1254 C1280 0.950 . S
H1255 C1282 0.950 . S
H1256 C1285 0.950 . S
H1257 C1286 0.950 . S
H1258 C1288 0.950 . S
H1259 C1289 0.950 . S
C1260 H1242 0.951 . S
C1260 C1261 1.366 . S
C1260 C1262 1.388 . S
C1261 C1260 1.366 . S
C1261 C1265 1.385 . S
C1262 H1243 0.951 . S
C1262 C1260 1.388 . S
C1262 C1263 1.366 . S
C1263 C1262 1.366 . S
C1263 C1264 1.414 . S
C1263 C1266 1.499 . S
C1264 H1244 0.950 . S
C1264 C1263 1.414 . S
C1264 C1265 1.374 . S
C1265 H1245 0.950 . S
C1265 C1261 1.385 . S
C1265 C1264 1.374 . S
C1266 C1263 1.499 . S
C1266 C1267 1.373 . S
C1266 C1268 1.389 . S
C1267 H1246 0.950 . S
C1267 C1266 1.373 . S
C1267 C1283 1.377 . S
C1268 C1266 1.389 . S
C1268 C1269 1.524 . S
C1268 C1282 1.377 . S
C1269 C1268 1.524 . S
C1269 C1270 1.397 . S
C1269 C1274 1.363 . S
C1270 H1247 0.950 . S
C1270 C1269 1.397 . S
C1270 C1271 1.334 . S
C1271 H1248 0.950 . S
C1271 C1270 1.334 . S
C1271 C1272 1.287 . S
C1272 C1271 1.287 . S
C1272 C1273 1.524 . S
C1272 H1291 0.913 . S
C1273 H1249 0.950 . S
C1273 C1272 1.524 . S
C1273 C1274 1.415 . S
C1274 H1250 0.950 . S
C1274 C1269 1.363 . S
C1274 C1273 1.415 . S
C1275 H1251 0.951 . S
C1275 C1276 1.366 . S
C1275 C1277 1.388 . S
C1276 C1275 1.366 . S
C1276 C1280 1.385 . S
C1277 H1252 0.951 . S
C1277 C1275 1.388 . S
C1277 C1278 1.366 . S
C1278 C1277 1.366 . S
C1278 C1279 1.414 . S
C1278 C1281 1.499 . S
C1279 H1253 0.950 . S
C1279 C1278 1.414 . S
C1279 C1280 1.374 . S
C1280 H1254 0.950 . S
C1280 C1276 1.385 . S
C1280 C1279 1.374 . S
C1281 C1278 1.499 . S
C1281 C1282 1.373 . S
C1281 C1283 1.389 . S
C1282 H1255 0.950 . S
C1282 C1268 1.377 . S
C1282 C1281 1.373 . S
C1283 C1267 1.377 . S
C1283 C1281 1.389 . S
C1283 C1284 1.524 . S
C1284 C1283 1.524 . S
C1284 C1285 1.397 . S
C1284 C1289 1.363 . S
C1285 H1256 0.950 . S
C1285 C1284 1.397 . S
C1285 C1286 1.334 . S
C1286 H1257 0.950 . S
C1286 C1285 1.334 . S
C1286 C1287 1.287 . S
C1287 C1286 1.287 . S
C1287 C1288 1.524 . S
C1287 H1290 0.999 . S
C1288 H1258 0.950 . S
C1288 C1287 1.524 . S
C1288 C1289 1.415 . S
C1289 H1259 0.950 . S
C1289 C1284 1.363 . S
C1289 C1288 1.415 . S
H1290 C1287 0.999 . S
H1291 C1272 0.913 . S
H1292 C1310 0.951 . S
H1293 C1312 0.951 . S
H1294 C1314 0.950 . S
H1295 C1315 0.950 . S
H1296 C1317 0.950 . S
H1297 C1320 0.950 . S
H1298 C1321 0.950 . S
H1299 C1323 0.950 . S
H1300 C1324 0.950 . S
H1301 C1325 0.951 . S
H1302 C1327 0.951 . S
H1303 C1329 0.950 . S
H1304 C1330 0.950 . S
H1305 C1332 0.950 . S
H1306 C1335 0.950 . S
H1307 C1336 0.950 . S
H1308 C1338 0.950 . S
H1309 C1339 0.950 . S
C1310 H1292 0.951 . S
C1310 C1311 1.366 . S
C1310 C1312 1.388 . S
C1311 C1310 1.366 . S
C1311 C1315 1.385 . S
C1312 H1293 0.951 . S
C1312 C1310 1.388 . S
C1312 C1313 1.366 . S
C1313 C1312 1.366 . S
C1313 C1314 1.414 . S
C1313 C1316 1.499 . S
C1314 H1294 0.950 . S
C1314 C1313 1.414 . S
C1314 C1315 1.374 . S
C1315 H1295 0.950 . S
C1315 C1311 1.385 . S
C1315 C1314 1.374 . S
C1316 C1313 1.499 . S
C1316 C1317 1.373 . S
C1316 C1318 1.389 . S
C1317 H1296 0.950 . S
C1317 C1316 1.373 . S
C1317 C1333 1.377 . S
C1318 C1316 1.389 . S
C1318 C1319 1.524 . S
C1318 C1332 1.377 . S
C1319 C1318 1.524 . S
C1319 C1320 1.397 . S
C1319 C1324 1.363 . S
C1320 H1297 0.950 . S
C1320 C1319 1.397 . S
C1320 C1321 1.334 . S
C1321 H1298 0.950 . S
C1321 C1320 1.334 . S
C1321 C1322 1.287 . S
C1322 C1321 1.287 . S
C1322 C1323 1.524 . S
C1322 H1341 0.913 . S
C1323 H1299 0.950 . S
C1323 C1322 1.524 . S
C1323 C1324 1.415 . S
C1324 H1300 0.950 . S
C1324 C1319 1.363 . S
C1324 C1323 1.415 . S
C1325 H1301 0.951 . S
C1325 C1326 1.366 . S
C1325 C1327 1.388 . S
C1326 C1325 1.366 . S
C1326 C1330 1.385 . S
C1327 H1302 0.951 . S
C1327 C1325 1.388 . S
C1327 C1328 1.366 . S
C1328 C1327 1.366 . S
C1328 C1329 1.414 . S
C1328 C1331 1.499 . S
C1329 H1303 0.950 . S
C1329 C1328 1.414 . S
C1329 C1330 1.374 . S
C1330 H1304 0.950 . S
C1330 C1326 1.385 . S
C1330 C1329 1.374 . S
C1331 C1328 1.499 . S
C1331 C1332 1.373 . S
C1331 C1333 1.389 . S
C1332 H1305 0.950 . S
C1332 C1318 1.377 . S
C1332 C1331 1.373 . S
C1333 C1317 1.377 . S
C1333 C1331 1.389 . S
C1333 C1334 1.524 . S
C1334 C1333 1.524 . S
C1334 C1335 1.397 . S
C1334 C1339 1.363 . S
C1335 H1306 0.950 . S
C1335 C1334 1.397 . S
C1335 C1336 1.334 . S
C1336 H1307 0.950 . S
C1336 C1335 1.334 . S
C1336 C1337 1.287 . S
C1337 C1336 1.287 . S
C1337 C1338 1.524 . S
C1337 H1340 0.999 . S
C1338 H1308 0.950 . S
C1338 C1337 1.524 . S
C1338 C1339 1.415 . S
C1339 H1309 0.950 . S
C1339 C1334 1.363 . S
C1339 C1338 1.415 . S
H1340 C1337 0.999 . S
H1341 C1322 0.913 . S
H1342 C1360 0.951 . S
H1343 C1362 0.951 . S
H1344 C1364 0.950 . S
H1345 C1365 0.950 . S
H1346 C1367 0.950 . S
H1347 C1370 0.950 . S
H1348 C1371 0.950 . S
H1349 C1373 0.950 . S
H1350 C1374 0.950 . S
H1351 C1375 0.951 . S
H1352 C1377 0.951 . S
H1353 C1379 0.950 . S
H1354 C1380 0.950 . S
H1355 C1382 0.950 . S
H1356 C1385 0.950 . S
H1357 C1386 0.950 . S
H1358 C1388 0.950 . S
H1359 C1389 0.950 . S
C1360 H1342 0.951 . S
C1360 C1361 1.366 . S
C1360 C1362 1.388 . S
C1361 C1360 1.366 . S
C1361 C1365 1.385 . S
C1362 H1343 0.951 . S
C1362 C1360 1.388 . S
C1362 C1363 1.366 . S
C1363 C1362 1.366 . S
C1363 C1364 1.414 . S
C1363 C1366 1.499 . S
C1364 H1344 0.950 . S
C1364 C1363 1.414 . S
C1364 C1365 1.374 . S
C1365 H1345 0.950 . S
C1365 C1361 1.385 . S
C1365 C1364 1.374 . S
C1366 C1363 1.499 . S
C1366 C1367 1.373 . S
C1366 C1368 1.389 . S
C1367 H1346 0.950 . S
C1367 C1366 1.373 . S
C1367 C1383 1.377 . S
C1368 C1366 1.389 . S
C1368 C1369 1.524 . S
C1368 C1382 1.377 . S
C1369 C1368 1.524 . S
C1369 C1370 1.397 . S
C1369 C1374 1.363 . S
C1370 H1347 0.950 . S
C1370 C1369 1.397 . S
C1370 C1371 1.334 . S
C1371 H1348 0.950 . S
C1371 C1370 1.334 . S
C1371 C1372 1.287 . S
C1372 C1371 1.287 . S
C1372 C1373 1.524 . S
C1372 H1391 0.913 . S
C1373 H1349 0.950 . S
C1373 C1372 1.524 . S
C1373 C1374 1.415 . S
C1374 H1350 0.950 . S
C1374 C1369 1.363 . S
C1374 C1373 1.415 . S
C1375 H1351 0.951 . S
C1375 C1376 1.366 . S
C1375 C1377 1.388 . S
C1376 C1375 1.366 . S
C1376 C1380 1.385 . S
C1377 H1352 0.951 . S
C1377 C1375 1.388 . S
C1377 C1378 1.366 . S
C1378 C1377 1.366 . S
C1378 C1379 1.414 . S
C1378 C1381 1.499 . S
C1379 H1353 0.950 . S
C1379 C1378 1.414 . S
C1379 C1380 1.374 . S
C1380 H1354 0.950 . S
C1380 C1376 1.385 . S
C1380 C1379 1.374 . S
C1381 C1378 1.499 . S
C1381 C1382 1.373 . S
C1381 C1383 1.389 . S
C1382 H1355 0.950 . S
C1382 C1368 1.377 . S
C1382 C1381 1.373 . S
C1383 C1367 1.377 . S
C1383 C1381 1.389 . S
C1383 C1384 1.524 . S
C1384 C1383 1.524 . S
C1384 C1385 1.397 . S
C1384 C1389 1.363 . S
C1385 H1356 0.950 . S
C1385 C1384 1.397 . S
C1385 C1386 1.334 . S
C1386 H1357 0.950 . S
C1386 C1385 1.334 . S
C1386 C1387 1.287 . S
C1387 C1386 1.287 . S
C1387 C1388 1.524 . S
C1387 H1390 0.999 . S
C1388 H1358 0.950 . S
C1388 C1387 1.524 . S
C1388 C1389 1.415 . S
C1389 H1359 0.950 . S
C1389 C1384 1.363 . S
C1389 C1388 1.415 . S
H1390 C1387 0.999 . S
H1391 C1372 0.913 . S
H1392 C1410 0.951 . S
H1393 C1412 0.951 . S
H1394 C1414 0.950 . S
H1395 C1415 0.950 . S
H1396 C1417 0.950 . S
H1397 C1420 0.950 . S
H1398 C1421 0.950 . S
H1399 C1423 0.950 . S
H1400 C1424 0.950 . S
H1401 C1425 0.951 . S
H1402 C1427 0.951 . S
H1403 C1429 0.950 . S
H1404 C1430 0.950 . S
H1405 C1432 0.950 . S
H1406 C1435 0.950 . S
H1407 C1436 0.950 . S
H1408 C1438 0.950 . S
H1409 C1439 0.950 . S
C1410 H1392 0.951 . S
C1410 C1411 1.366 . S
C1410 C1412 1.388 . S
C1411 C1410 1.366 . S
C1411 C1415 1.385 . S
C1412 H1393 0.951 . S
C1412 C1410 1.388 . S
C1412 C1413 1.366 . S
C1413 C1412 1.366 . S
C1413 C1414 1.414 . S
C1413 C1416 1.499 . S
C1414 H1394 0.950 . S
C1414 C1413 1.414 . S
C1414 C1415 1.374 . S
C1415 H1395 0.950 . S
C1415 C1411 1.385 . S
C1415 C1414 1.374 . S
C1416 C1413 1.499 . S
C1416 C1417 1.373 . S
C1416 C1418 1.389 . S
C1417 H1396 0.950 . S
C1417 C1416 1.373 . S
C1417 C1433 1.377 . S
C1418 C1416 1.389 . S
C1418 C1419 1.524 . S
C1418 C1432 1.377 . S
C1419 C1418 1.524 . S
C1419 C1420 1.397 . S
C1419 C1424 1.363 . S
C1420 H1397 0.950 . S
C1420 C1419 1.397 . S
C1420 C1421 1.334 . S
C1421 H1398 0.950 . S
C1421 C1420 1.334 . S
C1421 C1422 1.287 . S
C1422 C1421 1.287 . S
C1422 C1423 1.524 . S
C1422 H1441 0.913 . S
C1423 H1399 0.950 . S
C1423 C1422 1.524 . S
C1423 C1424 1.415 . S
C1424 H1400 0.950 . S
C1424 C1419 1.363 . S
C1424 C1423 1.415 . S
C1425 H1401 0.951 . S
C1425 C1426 1.366 . S
C1425 C1427 1.388 . S
C1426 C1425 1.366 . S
C1426 C1430 1.385 . S
C1427 H1402 0.951 . S
C1427 C1425 1.388 . S
C1427 C1428 1.366 . S
C1428 C1427 1.366 . S
C1428 C1429 1.414 . S
C1428 C1431 1.499 . S
C1429 H1403 0.950 . S
C1429 C1428 1.414 . S
C1429 C1430 1.374 . S
C1430 H1404 0.950 . S
C1430 C1426 1.385 . S
C1430 C1429 1.374 . S
C1431 C1428 1.499 . S
C1431 C1432 1.373 . S
C1431 C1433 1.389 . S
C1432 H1405 0.950 . S
C1432 C1418 1.377 . S
C1432 C1431 1.373 . S
C1433 C1417 1.377 . S
C1433 C1431 1.389 . S
C1433 C1434 1.524 . S
C1434 C1433 1.524 . S
C1434 C1435 1.397 . S
C1434 C1439 1.363 . S
C1435 H1406 0.950 . S
C1435 C1434 1.397 . S
C1435 C1436 1.334 . S
C1436 H1407 0.950 . S
C1436 C1435 1.334 . S
C1436 C1437 1.287 . S
C1437 C1436 1.287 . S
C1437 C1438 1.524 . S
C1437 H1440 0.999 . S
C1438 H1408 0.950 . S
C1438 C1437 1.524 . S
C1438 C1439 1.415 . S
C1439 H1409 0.950 . S
C1439 C1434 1.363 . S
C1439 C1438 1.415 . S
H1440 C1437 0.999 . S
H1441 C1422 0.913 . S
H1442 C1460 0.951 . S
H1443 C1462 0.951 . S
H1444 C1464 0.950 . S
H1445 C1465 0.950 . S
H1446 C1467 0.950 . S
H1447 C1470 0.950 . S
H1448 C1471 0.950 . S
H1449 C1473 0.950 . S
H1450 C1474 0.950 . S
H1451 C1475 0.951 . S
H1452 C1477 0.951 . S
H1453 C1479 0.950 . S
H1454 C1480 0.950 . S
H1455 C1482 0.950 . S
H1456 C1485 0.950 . S
H1457 C1486 0.950 . S
H1458 C1488 0.950 . S
H1459 C1489 0.950 . S
C1460 H1442 0.951 . S
C1460 C1461 1.366 . S
C1460 C1462 1.388 . S
C1461 C1460 1.366 . S
C1461 C1465 1.385 . S
C1462 H1443 0.951 . S
C1462 C1460 1.388 . S
C1462 C1463 1.366 . S
C1463 C1462 1.366 . S
C1463 C1464 1.414 . S
C1463 C1466 1.499 . S
C1464 H1444 0.950 . S
C1464 C1463 1.414 . S
C1464 C1465 1.374 . S
C1465 H1445 0.950 . S
C1465 C1461 1.385 . S
C1465 C1464 1.374 . S
C1466 C1463 1.499 . S
C1466 C1467 1.373 . S
C1466 C1468 1.389 . S
C1467 H1446 0.950 . S
C1467 C1466 1.373 . S
C1467 C1483 1.377 . S
C1468 C1466 1.389 . S
C1468 C1469 1.524 . S
C1468 C1482 1.377 . S
C1469 C1468 1.524 . S
C1469 C1470 1.397 . S
C1469 C1474 1.363 . S
C1470 H1447 0.950 . S
C1470 C1469 1.397 . S
C1470 C1471 1.334 . S
C1471 H1448 0.950 . S
C1471 C1470 1.334 . S
C1471 C1472 1.287 . S
C1472 C1471 1.287 . S
C1472 C1473 1.524 . S
C1472 H1491 0.913 . S
C1473 H1449 0.950 . S
C1473 C1472 1.524 . S
C1473 C1474 1.415 . S
C1474 H1450 0.950 . S
C1474 C1469 1.363 . S
C1474 C1473 1.415 . S
C1475 H1451 0.951 . S
C1475 C1476 1.366 . S
C1475 C1477 1.388 . S
C1476 C1475 1.366 . S
C1476 C1480 1.385 . S
C1477 H1452 0.951 . S
C1477 C1475 1.388 . S
C1477 C1478 1.366 . S
C1478 C1477 1.366 . S
C1478 C1479 1.414 . S
C1478 C1481 1.499 . S
C1479 H1453 0.950 . S
C1479 C1478 1.414 . S
C1479 C1480 1.374 . S
C1480 H1454 0.950 . S
C1480 C1476 1.385 . S
C1480 C1479 1.374 . S
C1481 C1478 1.499 . S
C1481 C1482 1.373 . S
C1481 C1483 1.389 . S
C1482 H1455 0.950 . S
C1482 C1468 1.377 . S
C1482 C1481 1.373 . S
C1483 C1467 1.377 . S
C1483 C1481 1.389 . S
C1483 C1484 1.524 . S
C1484 C1483 1.524 . S
C1484 C1485 1.397 . S
C1484 C1489 1.363 . S
C1485 H1456 0.950 . S
C1485 C1484 1.397 . S
C1485 C1486 1.334 . S
C1486 H1457 0.950 . S
C1486 C1485 1.334 . S
C1486 C1487 1.287 . S
C1487 C1486 1.287 . S
C1487 C1488 1.524 . S
C1487 H1490 0.999 . S
C1488 H1458 0.950 . S
C1488 C1487 1.524 . S
C1488 C1489 1.415 . S
C1489 H1459 0.950 . S
C1489 C1484 1.363 . S
C1489 C1488 1.415 . S
H1490 C1487 0.999 . S
H1491 C1472 0.913 . S
H1492 C1510 0.951 . S
H1493 C1512 0.951 . S
H1494 C1514 0.950 . S
H1495 C1515 0.950 . S
H1496 C1517 0.950 . S
H1497 C1520 0.950 . S
H1498 C1521 0.950 . S
H1499 C1523 0.950 . S
H1500 C1524 0.950 . S
H1501 C1525 0.951 . S
H1502 C1527 0.951 . S
H1503 C1529 0.950 . S
H1504 C1530 0.950 . S
H1505 C1532 0.950 . S
H1506 C1535 0.950 . S
H1507 C1536 0.950 1_554 S
H1508 C1538 0.950 . S
H1509 C1539 0.950 . S
C1510 H1492 0.951 . S
C1510 C1511 1.366 . S
C1510 C1512 1.388 . S
C1511 C1510 1.366 . S
C1511 C1515 1.385 . S
C1512 H1493 0.951 . S
C1512 C1510 1.388 . S
C1512 C1513 1.366 . S
C1513 C1512 1.366 . S
C1513 C1514 1.414 . S
C1513 C1516 1.499 . S
C1514 H1494 0.950 . S
C1514 C1513 1.414 . S
C1514 C1515 1.374 . S
C1515 H1495 0.950 . S
C1515 C1511 1.385 . S
C1515 C1514 1.374 . S
C1516 C1513 1.499 . S
C1516 C1517 1.373 . S
C1516 C1518 1.389 . S
C1517 H1496 0.950 . S
C1517 C1516 1.373 . S
C1517 C1533 1.377 . S
C1518 C1516 1.389 . S
C1518 C1519 1.524 . S
C1518 C1532 1.377 . S
C1519 C1518 1.524 . S
C1519 C1520 1.397 . S
C1519 C1524 1.363 . S
C1520 H1497 0.950 . S
C1520 C1519 1.397 . S
C1520 C1521 1.334 . S
C1521 H1498 0.950 . S
C1521 C1520 1.334 . S
C1521 C1522 1.287 . S
C1522 C1521 1.287 . S
C1522 C1523 1.524 . S
C1522 H1541 0.913 . S
C1523 H1499 0.950 . S
C1523 C1522 1.524 . S
C1523 C1524 1.415 . S
C1524 H1500 0.950 . S
C1524 C1519 1.363 . S
C1524 C1523 1.415 . S
C1525 H1501 0.951 . S
C1525 C1526 1.366 . S
C1525 C1527 1.388 . S
C1526 C1525 1.366 . S
C1526 C1530 1.385 . S
C1527 H1502 0.951 . S
C1527 C1525 1.388 . S
C1527 C1528 1.366 . S
C1528 C1527 1.366 . S
C1528 C1529 1.414 . S
C1528 C1531 1.499 . S
C1529 H1503 0.950 . S
C1529 C1528 1.414 . S
C1529 C1530 1.374 . S
C1530 H1504 0.950 . S
C1530 C1526 1.385 . S
C1530 C1529 1.374 . S
C1531 C1528 1.499 . S
C1531 C1532 1.373 . S
C1531 C1533 1.389 . S
C1532 H1505 0.950 . S
C1532 C1518 1.377 . S
C1532 C1531 1.373 . S
C1533 C1517 1.377 . S
C1533 C1531 1.389 . S
C1533 C1534 1.524 . S
C1534 C1533 1.524 . S
C1534 C1535 1.397 . S
C1534 C1539 1.363 . S
C1535 H1506 0.950 . S
C1535 C1534 1.397 . S
C1535 C1536 1.334 . S
C1536 H1507 0.950 1_556 S
C1536 C1535 1.334 . S
C1536 C1537 1.287 . S
C1537 C1536 1.287 . S
C1537 C1538 1.524 . S
C1537 H1540 0.999 1_556 S
C1538 H1508 0.950 . S
C1538 C1537 1.524 . S
C1538 C1539 1.415 . S
C1539 H1509 0.950 . S
C1539 C1534 1.363 . S
C1539 C1538 1.415 . S
H1540 C1537 0.999 1_554 S
H1541 C1522 0.913 . S
H1542 C1560 0.951 . S
H1543 C1562 0.951 . S
H1544 C1564 0.950 . S
H1545 C1565 0.950 . S
H1546 C1567 0.950 . S
H1547 C1570 0.950 . S
H1548 C1571 0.950 . S
H1549 C1573 0.950 . S
H1550 C1574 0.950 . S
H1551 C1575 0.951 . S
H1552 C1577 0.951 . S
H1553 C1579 0.950 . S
H1554 C1580 0.950 . S
H1555 C1582 0.950 . S
H1556 C1585 0.950 . S
H1557 C1586 0.950 . S
H1558 C1588 0.950 . S
H1559 C1589 0.950 . S
C1560 H1542 0.951 . S
C1560 C1561 1.366 . S
C1560 C1562 1.388 . S
C1561 C1560 1.366 . S
C1561 C1565 1.385 . S
C1562 H1543 0.951 . S
C1562 C1560 1.388 . S
C1562 C1563 1.366 . S
C1563 C1562 1.366 . S
C1563 C1564 1.414 . S
C1563 C1566 1.499 . S
C1564 H1544 0.950 . S
C1564 C1563 1.414 . S
C1564 C1565 1.374 . S
C1565 H1545 0.950 . S
C1565 C1561 1.385 . S
C1565 C1564 1.374 . S
C1566 C1563 1.499 . S
C1566 C1567 1.373 . S
C1566 C1568 1.389 . S
C1567 H1546 0.950 . S
C1567 C1566 1.373 . S
C1567 C1583 1.377 . S
C1568 C1566 1.389 . S
C1568 C1569 1.524 . S
C1568 C1582 1.377 . S
C1569 C1568 1.524 . S
C1569 C1570 1.397 . S
C1569 C1574 1.363 . S
C1570 H1547 0.950 . S
C1570 C1569 1.397 . S
C1570 C1571 1.334 . S
C1571 H1548 0.950 . S
C1571 C1570 1.334 . S
C1571 C1572 1.287 . S
C1572 C1571 1.287 . S
C1572 C1573 1.524 . S
C1572 H1591 0.913 . S
C1573 H1549 0.950 . S
C1573 C1572 1.524 . S
C1573 C1574 1.415 . S
C1574 H1550 0.950 . S
C1574 C1569 1.363 . S
C1574 C1573 1.415 . S
C1575 H1551 0.951 . S
C1575 C1576 1.366 . S
C1575 C1577 1.388 . S
C1576 C1575 1.366 . S
C1576 C1580 1.385 . S
C1577 H1552 0.951 . S
C1577 C1575 1.388 . S
C1577 C1578 1.366 . S
C1578 C1577 1.366 . S
C1578 C1579 1.414 . S
C1578 C1581 1.499 . S
C1579 H1553 0.950 . S
C1579 C1578 1.414 . S
C1579 C1580 1.374 . S
C1580 H1554 0.950 . S
C1580 C1576 1.385 . S
C1580 C1579 1.374 . S
C1581 C1578 1.499 . S
C1581 C1582 1.373 . S
C1581 C1583 1.389 . S
C1582 H1555 0.950 . S
C1582 C1568 1.377 . S
C1582 C1581 1.373 . S
C1583 C1567 1.377 . S
C1583 C1581 1.389 . S
C1583 C1584 1.524 . S
C1584 C1583 1.524 . S
C1584 C1585 1.397 . S
C1584 C1589 1.363 . S
C1585 H1556 0.950 . S
C1585 C1584 1.397 . S
C1585 C1586 1.334 . S
C1586 H1557 0.950 . S
C1586 C1585 1.334 . S
C1586 C1587 1.287 . S
C1587 C1586 1.287 . S
C1587 C1588 1.524 . S
C1587 H1590 0.999 . S
C1588 H1558 0.950 . S
C1588 C1587 1.524 . S
C1588 C1589 1.415 . S
C1589 H1559 0.950 . S
C1589 C1584 1.363 . S
C1589 C1588 1.415 . S
H1590 C1587 0.999 . S
H1591 C1572 0.913 . S
H1592 C1610 0.951 . S
H1593 C1612 0.951 . S
H1594 C1614 0.950 . S
H1595 C1615 0.950 . S
H1596 C1617 0.950 . S
H1597 C1620 0.950 . S
H1598 C1621 0.950 . S
H1599 C1623 0.950 . S
H1600 C1624 0.950 . S
H1601 C1625 0.951 . S
H1602 C1627 0.951 . S
H1603 C1629 0.950 . S
H1604 C1630 0.950 . S
H1605 C1632 0.950 . S
H1606 C1635 0.950 . S
H1607 C1636 0.950 . S
H1608 C1638 0.950 . S
H1609 C1639 0.950 . S
C1610 H1592 0.951 . S
C1610 C1611 1.366 . S
C1610 C1612 1.388 . S
C1611 C1610 1.366 . S
C1611 C1615 1.385 . S
C1612 H1593 0.951 . S
C1612 C1610 1.388 . S
C1612 C1613 1.366 . S
C1613 C1612 1.366 . S
C1613 C1614 1.414 . S
C1613 C1616 1.499 . S
C1614 H1594 0.950 . S
C1614 C1613 1.414 . S
C1614 C1615 1.374 . S
C1615 H1595 0.950 . S
C1615 C1611 1.385 . S
C1615 C1614 1.374 . S
C1616 C1613 1.499 . S
C1616 C1617 1.373 . S
C1616 C1618 1.389 . S
C1617 H1596 0.950 . S
C1617 C1616 1.373 . S
C1617 C1633 1.377 . S
C1618 C1616 1.389 . S
C1618 C1619 1.524 . S
C1618 C1632 1.377 . S
C1619 C1618 1.524 . S
C1619 C1620 1.397 . S
C1619 C1624 1.363 . S
C1620 H1597 0.950 . S
C1620 C1619 1.397 . S
C1620 C1621 1.334 . S
C1621 H1598 0.950 . S
C1621 C1620 1.334 . S
C1621 C1622 1.287 . S
C1622 C1621 1.287 . S
C1622 C1623 1.524 . S
C1622 H1641 0.913 . S
C1623 H1599 0.950 . S
C1623 C1622 1.524 . S
C1623 C1624 1.415 . S
C1624 H1600 0.950 . S
C1624 C1619 1.363 . S
C1624 C1623 1.415 . S
C1625 H1601 0.951 . S
C1625 C1626 1.366 . S
C1625 C1627 1.388 . S
C1626 C1625 1.366 . S
C1626 C1630 1.385 . S
C1627 H1602 0.951 . S
C1627 C1625 1.388 . S
C1627 C1628 1.366 . S
C1628 C1627 1.366 . S
C1628 C1629 1.414 . S
C1628 C1631 1.499 . S
C1629 H1603 0.950 . S
C1629 C1628 1.414 . S
C1629 C1630 1.374 . S
C1630 H1604 0.950 . S
C1630 C1626 1.385 . S
C1630 C1629 1.374 . S
C1631 C1628 1.499 . S
C1631 C1632 1.373 . S
C1631 C1633 1.389 . S
C1632 H1605 0.950 . S
C1632 C1618 1.377 . S
C1632 C1631 1.373 . S
C1633 C1617 1.377 . S
C1633 C1631 1.389 . S
C1633 C1634 1.524 . S
C1634 C1633 1.524 . S
C1634 C1635 1.397 . S
C1634 C1639 1.363 . S
C1635 H1606 0.950 . S
C1635 C1634 1.397 . S
C1635 C1636 1.334 . S
C1636 H1607 0.950 . S
C1636 C1635 1.334 . S
C1636 C1637 1.287 . S
C1637 C1636 1.287 . S
C1637 C1638 1.524 . S
C1637 H1640 0.999 . S
C1638 H1608 0.950 . S
C1638 C1637 1.524 . S
C1638 C1639 1.415 . S
C1639 H1609 0.950 . S
C1639 C1634 1.363 . S
C1639 C1638 1.415 . S
H1640 C1637 0.999 . S
H1641 C1622 0.913 . S
H1642 C1660 0.951 . S
H1643 C1662 0.951 . S
H1644 C1664 0.950 . S
H1645 C1665 0.950 . S
H1646 C1667 0.950 . S
H1647 C1670 0.950 . S
H1648 C1671 0.950 . S
H1649 C1673 0.950 . S
H1650 C1674 0.950 . S
H1651 C1675 0.951 . S
H1652 C1677 0.951 . S
H1653 C1679 0.950 . S
H1654 C1680 0.950 . S
H1655 C1682 0.950 . S
H1656 C1685 0.950 . S
H1657 C1686 0.950 . S
H1658 C1688 0.950 . S
H1659 C1689 0.950 . S
C1660 H1642 0.951 . S
C1660 C1661 1.366 . S
C1660 C1662 1.388 . S
C1661 C1660 1.366 . S
C1661 C1665 1.385 . S
C1662 H1643 0.951 . S
C1662 C1660 1.388 . S
C1662 C1663 1.366 . S
C1663 C1662 1.366 . S
C1663 C1664 1.414 . S
C1663 C1666 1.499 . S
C1664 H1644 0.950 . S
C1664 C1663 1.414 . S
C1664 C1665 1.374 . S
C1665 H1645 0.950 . S
C1665 C1661 1.385 . S
C1665 C1664 1.374 . S
C1666 C1663 1.499 . S
C1666 C1667 1.373 . S
C1666 C1668 1.389 . S
C1667 H1646 0.950 . S
C1667 C1666 1.373 . S
C1667 C1683 1.377 . S
C1668 C1666 1.389 . S
C1668 C1669 1.524 . S
C1668 C1682 1.377 . S
C1669 C1668 1.524 . S
C1669 C1670 1.397 . S
C1669 C1674 1.363 . S
C1670 H1647 0.950 . S
C1670 C1669 1.397 . S
C1670 C1671 1.334 . S
C1671 H1648 0.950 . S
C1671 C1670 1.334 . S
C1671 C1672 1.287 . S
C1672 C1671 1.287 . S
C1672 C1673 1.524 . S
C1672 H1691 0.913 . S
C1673 H1649 0.950 . S
C1673 C1672 1.524 . S
C1673 C1674 1.415 . S
C1674 H1650 0.950 . S
C1674 C1669 1.363 . S
C1674 C1673 1.415 . S
C1675 H1651 0.951 . S
C1675 C1676 1.366 . S
C1675 C1677 1.388 . S
C1676 C1675 1.366 . S
C1676 C1680 1.385 . S
C1677 H1652 0.951 . S
C1677 C1675 1.388 . S
C1677 C1678 1.366 . S
C1678 C1677 1.366 . S
C1678 C1679 1.414 . S
C1678 C1681 1.499 . S
C1679 H1653 0.950 . S
C1679 C1678 1.414 . S
C1679 C1680 1.374 . S
C1680 H1654 0.950 . S
C1680 C1676 1.385 . S
C1680 C1679 1.374 . S
C1681 C1678 1.499 . S
C1681 C1682 1.373 . S
C1681 C1683 1.389 . S
C1682 H1655 0.950 . S
C1682 C1668 1.377 . S
C1682 C1681 1.373 . S
C1683 C1667 1.377 . S
C1683 C1681 1.389 . S
C1683 C1684 1.524 . S
C1684 C1683 1.524 . S
C1684 C1685 1.397 . S
C1684 C1689 1.363 . S
C1685 H1656 0.950 . S
C1685 C1684 1.397 . S
C1685 C1686 1.334 . S
C1686 H1657 0.950 . S
C1686 C1685 1.334 . S
C1686 C1687 1.287 . S
C1687 C1686 1.287 . S
C1687 C1688 1.524 . S
C1687 H1690 0.999 . S
C1688 H1658 0.950 . S
C1688 C1687 1.524 . S
C1688 C1689 1.415 . S
C1689 H1659 0.950 . S
C1689 C1684 1.363 . S
C1689 C1688 1.415 . S
H1690 C1687 0.999 . S
H1691 C1672 0.913 . S
H1692 C1710 0.951 . S
H1693 C1712 0.951 . S
H1694 C1714 0.950 . S
H1695 C1715 0.950 . S
H1696 C1717 0.950 . S
H1697 C1720 0.950 . S
H1698 C1721 0.950 . S
H1699 C1723 0.950 . S
H1700 C1724 0.950 . S
H1701 C1725 0.951 . S
H1702 C1727 0.951 . S
H1703 C1729 0.950 . S
H1704 C1730 0.950 . S
H1705 C1732 0.950 . S
H1706 C1735 0.950 . S
H1707 C1736 0.950 . S
H1708 C1738 0.950 . S
H1709 C1739 0.950 . S
C1710 H1692 0.951 . S
C1710 C1711 1.366 . S
C1710 C1712 1.388 . S
C1711 C1710 1.366 . S
C1711 C1715 1.385 . S
C1712 H1693 0.951 . S
C1712 C1710 1.388 . S
C1712 C1713 1.366 . S
C1713 C1712 1.366 . S
C1713 C1714 1.414 . S
C1713 C1716 1.499 . S
C1714 H1694 0.950 . S
C1714 C1713 1.414 . S
C1714 C1715 1.374 . S
C1715 H1695 0.950 . S
C1715 C1711 1.385 . S
C1715 C1714 1.374 . S
C1716 C1713 1.499 . S
C1716 C1717 1.373 . S
C1716 C1718 1.389 . S
C1717 H1696 0.950 . S
C1717 C1716 1.373 . S
C1717 C1733 1.377 . S
C1718 C1716 1.389 . S
C1718 C1719 1.524 . S
C1718 C1732 1.377 . S
C1719 C1718 1.524 . S
C1719 C1720 1.397 . S
C1719 C1724 1.363 . S
C1720 H1697 0.950 . S
C1720 C1719 1.397 . S
C1720 C1721 1.334 . S
C1721 H1698 0.950 . S
C1721 C1720 1.334 . S
C1721 C1722 1.287 . S
C1722 C1721 1.287 . S
C1722 C1723 1.524 . S
C1722 H1741 0.913 . S
C1723 H1699 0.950 . S
C1723 C1722 1.524 . S
C1723 C1724 1.415 . S
C1724 H1700 0.950 . S
C1724 C1719 1.363 . S
C1724 C1723 1.415 . S
C1725 H1701 0.951 . S
C1725 C1726 1.366 . S
C1725 C1727 1.388 . S
C1726 C1725 1.366 . S
C1726 C1730 1.385 . S
C1727 H1702 0.951 . S
C1727 C1725 1.388 . S
C1727 C1728 1.366 . S
C1728 C1727 1.366 . S
C1728 C1729 1.414 . S
C1728 C1731 1.499 . S
C1729 H1703 0.950 . S
C1729 C1728 1.414 . S
C1729 C1730 1.374 . S
C1730 H1704 0.950 . S
C1730 C1726 1.385 . S
C1730 C1729 1.374 . S
C1731 C1728 1.499 . S
C1731 C1732 1.373 . S
C1731 C1733 1.389 . S
C1732 H1705 0.950 . S
C1732 C1718 1.377 . S
C1732 C1731 1.373 . S
C1733 C1717 1.377 . S
C1733 C1731 1.389 . S
C1733 C1734 1.524 . S
C1734 C1733 1.524 . S
C1734 C1735 1.397 . S
C1734 C1739 1.363 . S
C1735 H1706 0.950 . S
C1735 C1734 1.397 . S
C1735 C1736 1.334 . S
C1736 H1707 0.950 . S
C1736 C1735 1.334 . S
C1736 C1737 1.287 . S
C1737 C1736 1.287 . S
C1737 C1738 1.524 . S
C1737 H1740 0.999 . S
C1738 H1708 0.950 . S
C1738 C1737 1.524 . S
C1738 C1739 1.415 . S
C1739 H1709 0.950 . S
C1739 C1734 1.363 . S
C1739 C1738 1.415 . S
H1740 C1737 0.999 . S
H1741 C1722 0.913 . S
H1742 C1760 0.951 . S
H1743 C1762 0.951 . S
H1744 C1764 0.950 . S
H1745 C1765 0.950 . S
H1746 C1767 0.950 . S
H1747 C1770 0.950 . S
H1748 C1771 0.950 . S
H1749 C1773 0.950 . S
H1750 C1774 0.950 . S
H1751 C1775 0.951 . S
H1752 C1777 0.951 . S
H1753 C1779 0.950 . S
H1754 C1780 0.950 . S
H1755 C1782 0.950 . S
H1756 C1785 0.950 . S
H1757 C1786 0.950 . S
H1758 C1788 0.950 . S
H1759 C1789 0.950 . S
C1760 H1742 0.951 . S
C1760 C1761 1.366 . S
C1760 C1762 1.388 . S
C1761 C1760 1.366 . S
C1761 C1765 1.385 . S
C1762 H1743 0.951 . S
C1762 C1760 1.388 . S
C1762 C1763 1.366 . S
C1763 C1762 1.366 . S
C1763 C1764 1.414 . S
C1763 C1766 1.499 . S
C1764 H1744 0.950 . S
C1764 C1763 1.414 . S
C1764 C1765 1.374 . S
C1765 H1745 0.950 . S
C1765 C1761 1.385 . S
C1765 C1764 1.374 . S
C1766 C1763 1.499 . S
C1766 C1767 1.373 . S
C1766 C1768 1.389 . S
C1767 H1746 0.950 . S
C1767 C1766 1.373 . S
C1767 C1783 1.377 . S
C1768 C1766 1.389 . S
C1768 C1769 1.524 . S
C1768 C1782 1.377 . S
C1769 C1768 1.524 . S
C1769 C1770 1.397 . S
C1769 C1774 1.363 . S
C1770 H1747 0.950 . S
C1770 C1769 1.397 . S
C1770 C1771 1.334 . S
C1771 H1748 0.950 . S
C1771 C1770 1.334 . S
C1771 C1772 1.287 . S
C1772 C1771 1.287 . S
C1772 C1773 1.524 . S
C1772 H1791 0.913 . S
C1773 H1749 0.950 . S
C1773 C1772 1.524 . S
C1773 C1774 1.415 . S
C1774 H1750 0.950 . S
C1774 C1769 1.363 . S
C1774 C1773 1.415 . S
C1775 H1751 0.951 . S
C1775 C1776 1.366 . S
C1775 C1777 1.388 . S
C1776 C1775 1.366 . S
C1776 C1780 1.385 . S
C1777 H1752 0.951 . S
C1777 C1775 1.388 . S
C1777 C1778 1.366 . S
C1778 C1777 1.366 . S
C1778 C1779 1.414 . S
C1778 C1781 1.499 . S
C1779 H1753 0.950 . S
C1779 C1778 1.414 . S
C1779 C1780 1.374 . S
C1780 H1754 0.950 . S
C1780 C1776 1.385 . S
C1780 C1779 1.374 . S
C1781 C1778 1.499 . S
C1781 C1782 1.373 . S
C1781 C1783 1.389 . S
C1782 H1755 0.950 . S
C1782 C1768 1.377 . S
C1782 C1781 1.373 . S
C1783 C1767 1.377 . S
C1783 C1781 1.389 . S
C1783 C1784 1.524 . S
C1784 C1783 1.524 . S
C1784 C1785 1.397 . S
C1784 C1789 1.363 . S
C1785 H1756 0.950 . S
C1785 C1784 1.397 . S
C1785 C1786 1.334 . S
C1786 H1757 0.950 . S
C1786 C1785 1.334 . S
C1786 C1787 1.287 . S
C1787 C1786 1.287 . S
C1787 C1788 1.524 . S
C1787 H1790 0.999 . S
C1788 H1758 0.950 . S
C1788 C1787 1.524 . S
C1788 C1789 1.415 . S
C1789 H1759 0.950 . S
C1789 C1784 1.363 . S
C1789 C1788 1.415 . S
H1790 C1787 0.999 . S
H1791 C1772 0.913 . S
H1792 C1810 0.951 . S
H1793 C1812 0.951 . S
H1794 C1814 0.950 . S
H1795 C1815 0.950 . S
H1796 C1817 0.950 . S
H1797 C1820 0.950 . S
H1798 C1821 0.950 . S
H1799 C1823 0.950 . S
H1800 C1824 0.950 . S
H1801 C1825 0.951 . S
H1802 C1827 0.951 . S
H1803 C1829 0.950 . S
H1804 C1830 0.950 . S
H1805 C1832 0.950 . S
H1806 C1835 0.950 . S
H1807 C1836 0.950 . S
H1808 C1838 0.950 . S
H1809 C1839 0.950 . S
C1810 H1792 0.951 . S
C1810 C1811 1.366 . S
C1810 C1812 1.388 . S
C1811 C1810 1.366 . S
C1811 C1815 1.385 . S
C1812 H1793 0.951 . S
C1812 C1810 1.388 . S
C1812 C1813 1.366 . S
C1813 C1812 1.366 . S
C1813 C1814 1.414 . S
C1813 C1816 1.499 . S
C1814 H1794 0.950 . S
C1814 C1813 1.414 . S
C1814 C1815 1.374 . S
C1815 H1795 0.950 . S
C1815 C1811 1.385 . S
C1815 C1814 1.374 . S
C1816 C1813 1.499 . S
C1816 C1817 1.373 . S
C1816 C1818 1.389 . S
C1817 H1796 0.950 . S
C1817 C1816 1.373 . S
C1817 C1833 1.377 . S
C1818 C1816 1.389 . S
C1818 C1819 1.524 . S
C1818 C1832 1.377 . S
C1819 C1818 1.524 . S
C1819 C1820 1.397 . S
C1819 C1824 1.363 . S
C1820 H1797 0.950 . S
C1820 C1819 1.397 . S
C1820 C1821 1.334 . S
C1821 H1798 0.950 . S
C1821 C1820 1.334 . S
C1821 C1822 1.287 . S
C1822 C1821 1.287 . S
C1822 C1823 1.524 . S
C1822 H1841 0.913 . S
C1823 H1799 0.950 . S
C1823 C1822 1.524 . S
C1823 C1824 1.415 . S
C1824 H1800 0.950 . S
C1824 C1819 1.363 . S
C1824 C1823 1.415 . S
C1825 H1801 0.951 . S
C1825 C1826 1.366 . S
C1825 C1827 1.388 . S
C1826 C1825 1.366 . S
C1826 C1830 1.385 . S
C1827 H1802 0.951 . S
C1827 C1825 1.388 . S
C1827 C1828 1.366 . S
C1828 C1827 1.366 . S
C1828 C1829 1.414 . S
C1828 C1831 1.499 . S
C1829 H1803 0.950 . S
C1829 C1828 1.414 . S
C1829 C1830 1.374 . S
C1830 H1804 0.950 . S
C1830 C1826 1.385 . S
C1830 C1829 1.374 . S
C1831 C1828 1.499 . S
C1831 C1832 1.373 . S
C1831 C1833 1.389 . S
C1832 H1805 0.950 . S
C1832 C1818 1.377 . S
C1832 C1831 1.373 . S
C1833 C1817 1.377 . S
C1833 C1831 1.389 . S
C1833 C1834 1.524 . S
C1834 C1833 1.524 . S
C1834 C1835 1.397 . S
C1834 C1839 1.363 . S
C1835 H1806 0.950 . S
C1835 C1834 1.397 . S
C1835 C1836 1.334 . S
C1836 H1807 0.950 . S
C1836 C1835 1.334 . S
C1836 C1837 1.287 . S
C1837 C1836 1.287 . S
C1837 C1838 1.524 . S
C1837 H1840 0.999 . S
C1838 H1808 0.950 . S
C1838 C1837 1.524 . S
C1838 C1839 1.415 . S
C1839 H1809 0.950 . S
C1839 C1834 1.363 . S
C1839 C1838 1.415 . S
H1840 C1837 0.999 . S
H1841 C1822 0.913 . S
H1842 C1860 0.951 . S
H1843 C1862 0.951 . S
H1844 C1864 0.950 . S
H1845 C1865 0.950 . S
H1846 C1867 0.950 . S
H1847 C1870 0.950 . S
H1848 C1871 0.950 . S
H1849 C1873 0.950 . S
H1850 C1874 0.950 . S
H1851 C1875 0.951 . S
H1852 C1877 0.951 . S
H1853 C1879 0.950 . S
H1854 C1880 0.950 . S
H1855 C1882 0.950 . S
H1856 C1885 0.950 . S
H1857 C1886 0.950 . S
H1858 C1888 0.950 . S
H1859 C1889 0.950 . S
C1860 H1842 0.951 . S
C1860 C1861 1.366 . S
C1860 C1862 1.388 . S
C1861 C1860 1.366 . S
C1861 C1865 1.385 . S
C1862 H1843 0.951 . S
C1862 C1860 1.388 . S
C1862 C1863 1.366 . S
C1863 C1862 1.366 . S
C1863 C1864 1.414 . S
C1863 C1866 1.499 . S
C1864 H1844 0.950 . S
C1864 C1863 1.414 . S
C1864 C1865 1.374 . S
C1865 H1845 0.950 . S
C1865 C1861 1.385 . S
C1865 C1864 1.374 . S
C1866 C1863 1.499 . S
C1866 C1867 1.373 . S
C1866 C1868 1.389 . S
C1867 H1846 0.950 . S
C1867 C1866 1.373 . S
C1867 C1883 1.377 . S
C1868 C1866 1.389 . S
C1868 C1869 1.524 . S
C1868 C1882 1.377 . S
C1869 C1868 1.524 . S
C1869 C1870 1.397 . S
C1869 C1874 1.363 . S
C1870 H1847 0.950 . S
C1870 C1869 1.397 . S
C1870 C1871 1.334 . S
C1871 H1848 0.950 . S
C1871 C1870 1.334 . S
C1871 C1872 1.287 . S
C1872 C1871 1.287 . S
C1872 C1873 1.524 . S
C1872 H1891 0.913 . S
C1873 H1849 0.950 . S
C1873 C1872 1.524 . S
C1873 C1874 1.415 . S
C1874 H1850 0.950 . S
C1874 C1869 1.363 . S
C1874 C1873 1.415 . S
C1875 H1851 0.951 . S
C1875 C1876 1.366 . S
C1875 C1877 1.388 . S
C1876 C1875 1.366 . S
C1876 C1880 1.385 . S
C1877 H1852 0.951 . S
C1877 C1875 1.388 . S
C1877 C1878 1.366 . S
C1878 C1877 1.366 . S
C1878 C1879 1.414 . S
C1878 C1881 1.499 . S
C1879 H1853 0.950 . S
C1879 C1878 1.414 . S
C1879 C1880 1.374 . S
C1880 H1854 0.950 . S
C1880 C1876 1.385 . S
C1880 C1879 1.374 . S
C1881 C1878 1.499 . S
C1881 C1882 1.373 . S
C1881 C1883 1.389 . S
C1882 H1855 0.950 . S
C1882 C1868 1.377 . S
C1882 C1881 1.373 . S
C1883 C1867 1.377 . S
C1883 C1881 1.389 . S
C1883 C1884 1.524 . S
C1884 C1883 1.524 . S
C1884 C1885 1.397 . S
C1884 C1889 1.363 . S
C1885 H1856 0.950 . S
C1885 C1884 1.397 . S
C1885 C1886 1.334 . S
C1886 H1857 0.950 . S
C1886 C1885 1.334 . S
C1886 C1887 1.287 . S
C1887 C1886 1.287 . S
C1887 C1888 1.524 . S
C1887 H1890 0.999 . S
C1888 H1858 0.950 . S
C1888 C1887 1.524 . S
C1888 C1889 1.415 . S
C1889 H1859 0.950 . S
C1889 C1884 1.363 . S
C1889 C1888 1.415 . S
H1890 C1887 0.999 . S
H1891 C1872 0.913 . S
H1892 C1910 0.951 . S
H1893 C1912 0.951 . S
H1894 C1914 0.950 . S
H1895 C1915 0.950 . S
H1896 C1917 0.950 . S
H1897 C1920 0.950 . S
H1898 C1921 0.950 . S
H1899 C1923 0.950 . S
H1900 C1924 0.950 . S
H1901 C1925 0.951 . S
H1902 C1927 0.951 . S
H1903 C1929 0.950 . S
H1904 C1930 0.950 . S
H1905 C1932 0.950 . S
H1906 C1935 0.950 . S
H1907 C1936 0.950 . S
H1908 C1938 0.950 . S
H1909 C1939 0.950 . S
C1910 H1892 0.951 . S
C1910 C1911 1.366 . S
C1910 C1912 1.388 . S
C1911 C1910 1.366 . S
C1911 C1915 1.385 . S
C1912 H1893 0.951 . S
C1912 C1910 1.388 . S
C1912 C1913 1.366 . S
C1913 C1912 1.366 . S
C1913 C1914 1.414 . S
C1913 C1916 1.499 . S
C1914 H1894 0.950 . S
C1914 C1913 1.414 . S
C1914 C1915 1.374 . S
C1915 H1895 0.950 . S
C1915 C1911 1.385 . S
C1915 C1914 1.374 . S
C1916 C1913 1.499 . S
C1916 C1917 1.373 . S
C1916 C1918 1.389 . S
C1917 H1896 0.950 . S
C1917 C1916 1.373 . S
C1917 C1933 1.377 . S
C1918 C1916 1.389 . S
C1918 C1919 1.524 . S
C1918 C1932 1.377 . S
C1919 C1918 1.524 . S
C1919 C1920 1.397 . S
C1919 C1924 1.363 . S
C1920 H1897 0.950 . S
C1920 C1919 1.397 . S
C1920 C1921 1.334 . S
C1921 H1898 0.950 . S
C1921 C1920 1.334 . S
C1921 C1922 1.287 . S
C1922 C1921 1.287 . S
C1922 C1923 1.524 . S
C1922 H1941 0.913 . S
C1923 H1899 0.950 . S
C1923 C1922 1.524 . S
C1923 C1924 1.415 . S
C1924 H1900 0.950 . S
C1924 C1919 1.363 . S
C1924 C1923 1.415 . S
C1925 H1901 0.951 . S
C1925 C1926 1.366 . S
C1925 C1927 1.388 . S
C1926 C1925 1.366 . S
C1926 C1930 1.385 . S
C1927 H1902 0.951 . S
C1927 C1925 1.388 . S
C1927 C1928 1.366 . S
C1928 C1927 1.366 . S
C1928 C1929 1.414 . S
C1928 C1931 1.499 . S
C1929 H1903 0.950 . S
C1929 C1928 1.414 . S
C1929 C1930 1.374 . S
C1930 H1904 0.950 . S
C1930 C1926 1.385 . S
C1930 C1929 1.374 . S
C1931 C1928 1.499 . S
C1931 C1932 1.373 . S
C1931 C1933 1.389 . S
C1932 H1905 0.950 . S
C1932 C1918 1.377 . S
C1932 C1931 1.373 . S
C1933 C1917 1.377 . S
C1933 C1931 1.389 . S
C1933 C1934 1.524 . S
C1934 C1933 1.524 . S
C1934 C1935 1.397 . S
C1934 C1939 1.363 . S
C1935 H1906 0.950 . S
C1935 C1934 1.397 . S
C1935 C1936 1.334 . S
C1936 H1907 0.950 . S
C1936 C1935 1.334 . S
C1936 C1937 1.287 . S
C1937 C1936 1.287 . S
C1937 C1938 1.524 . S
C1937 H1940 0.999 . S
C1938 H1908 0.950 . S
C1938 C1937 1.524 . S
C1938 C1939 1.415 . S
C1939 H1909 0.950 . S
C1939 C1934 1.363 . S
C1939 C1938 1.415 . S
H1940 C1937 0.999 . S
H1941 C1922 0.913 . S
H1942 C1960 0.951 . S
H1943 C1962 0.951 . S
H1944 C1964 0.950 . S
H1945 C1965 0.950 . S
H1946 C1967 0.950 . S
H1947 C1970 0.950 . S
H1948 C1971 0.950 . S
H1949 C1973 0.950 . S
H1950 C1974 0.950 . S
H1951 C1975 0.951 . S
H1952 C1977 0.951 . S
H1953 C1979 0.950 . S
H1954 C1980 0.950 . S
H1955 C1982 0.950 . S
H1956 C1985 0.950 . S
H1957 C1986 0.950 . S
H1958 C1988 0.950 . S
H1959 C1989 0.950 . S
C1960 H1942 0.951 . S
C1960 C1961 1.366 . S
C1960 C1962 1.388 . S
C1961 C1960 1.366 . S
C1961 C1965 1.385 . S
C1962 H1943 0.951 . S
C1962 C1960 1.388 . S
C1962 C1963 1.366 . S
C1963 C1962 1.366 . S
C1963 C1964 1.414 . S
C1963 C1966 1.499 . S
C1964 H1944 0.950 . S
C1964 C1963 1.414 . S
C1964 C1965 1.374 . S
C1965 H1945 0.950 . S
C1965 C1961 1.385 . S
C1965 C1964 1.374 . S
C1966 C1963 1.499 . S
C1966 C1967 1.373 . S
C1966 C1968 1.389 . S
C1967 H1946 0.950 . S
C1967 C1966 1.373 . S
C1967 C1983 1.377 . S
C1968 C1966 1.389 . S
C1968 C1969 1.524 . S
C1968 C1982 1.377 . S
C1969 C1968 1.524 . S
C1969 C1970 1.397 . S
C1969 C1974 1.363 . S
C1970 H1947 0.950 . S
C1970 C1969 1.397 . S
C1970 C1971 1.334 . S
C1971 H1948 0.950 . S
C1971 C1970 1.334 . S
C1971 C1972 1.287 . S
C1972 C1971 1.287 . S
C1972 C1973 1.524 . S
C1972 H1991 0.913 . S
C1973 H1949 0.950 . S
C1973 C1972 1.524 . S
C1973 C1974 1.415 . S
C1974 H1950 0.950 . S
C1974 C1969 1.363 . S
C1974 C1973 1.415 . S
C1975 H1951 0.951 . S
C1975 C1976 1.366 . S
C1975 C1977 1.388 . S
C1976 C1975 1.366 . S
C1976 C1980 1.385 . S
C1977 H1952 0.951 . S
C1977 C1975 1.388 . S
C1977 C1978 1.366 . S
C1978 C1977 1.366 . S
C1978 C1979 1.414 . S
C1978 C1981 1.499 . S
C1979 H1953 0.950 . S
C1979 C1978 1.414 . S
C1979 C1980 1.374 . S
C1980 H1954 0.950 . S
C1980 C1976 1.385 . S
C1980 C1979 1.374 . S
C1981 C1978 1.499 . S
C1981 C1982 1.373 . S
C1981 C1983 1.389 . S
C1982 H1955 0.950 . S
C1982 C1968 1.377 . S
C1982 C1981 1.373 . S
C1983 C1967 1.377 . S
C1983 C1981 1.389 . S
C1983 C1984 1.524 . S
C1984 C1983 1.524 . S
C1984 C1985 1.397 . S
C1984 C1989 1.363 . S
C1985 H1956 0.950 . S
C1985 C1984 1.397 . S
C1985 C1986 1.334 . S
C1986 H1957 0.950 . S
C1986 C1985 1.334 . S
C1986 C1987 1.287 . S
C1987 C1986 1.287 . S
C1987 C1988 1.524 . S
C1987 H1990 0.999 . S
C1988 H1958 0.950 . S
C1988 C1987 1.524 . S
C1988 C1989 1.415 . S
C1989 H1959 0.950 . S
C1989 C1984 1.363 . S
C1989 C1988 1.415 . S
H1990 C1987 0.999 . S
H1991 C1972 0.913 . S
H1992 C2010 0.951 . S
H1993 C2012 0.951 . S
H1994 C2014 0.950 . S
H1995 C2015 0.950 . S
H1996 C2017 0.950 . S
H1997 C2020 0.950 . S
H1998 C2021 0.950 . S
H1999 C2023 0.950 . S
H2000 C2024 0.950 . S
H2001 C2025 0.951 . S
H2002 C2027 0.951 . S
H2003 C2029 0.950 . S
H2004 C2030 0.950 . S
H2005 C2032 0.950 . S
H2006 C2035 0.950 . S
H2007 C2036 0.950 . S
H2008 C2038 0.950 . S
H2009 C2039 0.950 . S
C2010 H1992 0.951 . S
C2010 C2011 1.366 . S
C2010 C2012 1.388 . S
C2011 C2010 1.366 . S
C2011 C2015 1.385 . S
C2012 H1993 0.951 . S
C2012 C2010 1.388 . S
C2012 C2013 1.366 . S
C2013 C2012 1.366 . S
C2013 C2014 1.414 . S
C2013 C2016 1.499 . S
C2014 H1994 0.950 . S
C2014 C2013 1.414 . S
C2014 C2015 1.374 . S
C2015 H1995 0.950 . S
C2015 C2011 1.385 . S
C2015 C2014 1.374 . S
C2016 C2013 1.499 . S
C2016 C2017 1.373 . S
C2016 C2018 1.389 . S
C2017 H1996 0.950 . S
C2017 C2016 1.373 . S
C2017 C2033 1.377 . S
C2018 C2016 1.389 . S
C2018 C2019 1.524 . S
C2018 C2032 1.377 . S
C2019 C2018 1.524 . S
C2019 C2020 1.397 . S
C2019 C2024 1.363 . S
C2020 H1997 0.950 . S
C2020 C2019 1.397 . S
C2020 C2021 1.334 . S
C2021 H1998 0.950 . S
C2021 C2020 1.334 . S
C2021 C2022 1.287 . S
C2022 C2021 1.287 . S
C2022 C2023 1.524 . S
C2022 H2041 0.913 . S
C2023 H1999 0.950 . S
C2023 C2022 1.524 . S
C2023 C2024 1.415 . S
C2024 H2000 0.950 . S
C2024 C2019 1.363 . S
C2024 C2023 1.415 . S
C2025 H2001 0.951 . S
C2025 C2026 1.366 . S
C2025 C2027 1.388 . S
C2026 C2025 1.366 . S
C2026 C2030 1.385 . S
C2027 H2002 0.951 . S
C2027 C2025 1.388 . S
C2027 C2028 1.366 . S
C2028 C2027 1.366 . S
C2028 C2029 1.414 . S
C2028 C2031 1.499 . S
C2029 H2003 0.950 . S
C2029 C2028 1.414 . S
C2029 C2030 1.374 . S
C2030 H2004 0.950 . S
C2030 C2026 1.385 . S
C2030 C2029 1.374 . S
C2031 C2028 1.499 . S
C2031 C2032 1.373 . S
C2031 C2033 1.389 . S
C2032 H2005 0.950 . S
C2032 C2018 1.377 . S
C2032 C2031 1.373 . S
C2033 C2017 1.377 . S
C2033 C2031 1.389 . S
C2033 C2034 1.524 . S
C2034 C2033 1.524 . S
C2034 C2035 1.397 . S
C2034 C2039 1.363 . S
C2035 H2006 0.950 . S
C2035 C2034 1.397 . S
C2035 C2036 1.334 . S
C2036 H2007 0.950 . S
C2036 C2035 1.334 . S
C2036 C2037 1.287 . S
C2037 C2036 1.287 . S
C2037 C2038 1.524 . S
C2037 H2040 0.999 . S
C2038 H2008 0.950 . S
C2038 C2037 1.524 . S
C2038 C2039 1.415 . S
C2039 H2009 0.950 . S
C2039 C2034 1.363 . S
C2039 C2038 1.415 . S
H2040 C2037 0.999 . S
H2041 C2022 0.913 . S
H2042 C2060 0.951 . S
H2043 C2062 0.951 . S
H2044 C2064 0.950 . S
H2045 C2065 0.950 . S
H2046 C2067 0.950 . S
H2047 C2070 0.950 . S
H2048 C2071 0.950 . S
H2049 C2073 0.950 . S
H2050 C2074 0.950 . S
H2051 C2075 0.951 . S
H2052 C2077 0.951 . S
H2053 C2079 0.950 . S
H2054 C2080 0.950 . S
H2055 C2082 0.950 . S
H2056 C2085 0.950 . S
H2057 C2086 0.950 . S
H2058 C2088 0.950 . S
H2059 C2089 0.950 . S
C2060 H2042 0.951 . S
C2060 C2061 1.366 . S
C2060 C2062 1.388 . S
C2061 C2060 1.366 . S
C2061 C2065 1.385 . S
C2062 H2043 0.951 . S
C2062 C2060 1.388 . S
C2062 C2063 1.366 . S
C2063 C2062 1.366 . S
C2063 C2064 1.414 . S
C2063 C2066 1.499 . S
C2064 H2044 0.950 . S
C2064 C2063 1.414 . S
C2064 C2065 1.374 . S
C2065 H2045 0.950 . S
C2065 C2061 1.385 . S
C2065 C2064 1.374 . S
C2066 C2063 1.499 . S
C2066 C2067 1.373 . S
C2066 C2068 1.389 . S
C2067 H2046 0.950 . S
C2067 C2066 1.373 . S
C2067 C2083 1.377 . S
C2068 C2066 1.389 . S
C2068 C2069 1.524 . S
C2068 C2082 1.377 . S
C2069 C2068 1.524 . S
C2069 C2070 1.397 . S
C2069 C2074 1.363 . S
C2070 H2047 0.950 . S
C2070 C2069 1.397 . S
C2070 C2071 1.334 . S
C2071 H2048 0.950 . S
C2071 C2070 1.334 . S
C2071 C2072 1.287 . S
C2072 C2071 1.287 . S
C2072 C2073 1.524 . S
C2072 H2091 0.913 . S
C2073 H2049 0.950 . S
C2073 C2072 1.524 . S
C2073 C2074 1.415 . S
C2074 H2050 0.950 . S
C2074 C2069 1.363 . S
C2074 C2073 1.415 . S
C2075 H2051 0.951 . S
C2075 C2076 1.366 . S
C2075 C2077 1.388 . S
C2076 C2075 1.366 . S
C2076 C2080 1.385 . S
C2077 H2052 0.951 . S
C2077 C2075 1.388 . S
C2077 C2078 1.366 . S
C2078 C2077 1.366 . S
C2078 C2079 1.414 . S
C2078 C2081 1.499 . S
C2079 H2053 0.950 . S
C2079 C2078 1.414 . S
C2079 C2080 1.374 . S
C2080 H2054 0.950 . S
C2080 C2076 1.385 . S
C2080 C2079 1.374 . S
C2081 C2078 1.499 . S
C2081 C2082 1.373 . S
C2081 C2083 1.389 . S
C2082 H2055 0.950 . S
C2082 C2068 1.377 . S
C2082 C2081 1.373 . S
C2083 C2067 1.377 . S
C2083 C2081 1.389 . S
C2083 C2084 1.524 . S
C2084 C2083 1.524 . S
C2084 C2085 1.397 . S
C2084 C2089 1.363 . S
C2085 H2056 0.950 . S
C2085 C2084 1.397 . S
C2085 C2086 1.334 . S
C2086 H2057 0.950 . S
C2086 C2085 1.334 . S
C2086 C2087 1.287 . S
C2087 C2086 1.287 . S
C2087 C2088 1.524 . S
C2087 H2090 0.999 . S
C2088 H2058 0.950 . S
C2088 C2087 1.524 . S
C2088 C2089 1.415 . S
C2089 H2059 0.950 . S
C2089 C2084 1.363 . S
C2089 C2088 1.415 . S
H2090 C2087 0.999 . S
H2091 C2072 0.913 . S
H2092 C2110 0.951 . S
H2093 C2112 0.951 . S
H2094 C2114 0.950 . S
H2095 C2115 0.950 . S
H2096 C2117 0.950 . S
H2097 C2120 0.950 . S
H2098 C2121 0.950 . S
H2099 C2123 0.950 . S
H2100 C2124 0.950 . S
H2101 C2125 0.951 . S
H2102 C2127 0.951 . S
H2103 C2129 0.950 . S
H2104 C2130 0.950 . S
H2105 C2132 0.950 . S
H2106 C2135 0.950 . S
H2107 C2136 0.950 . S
H2108 C2138 0.950 . S
H2109 C2139 0.950 . S
C2110 H2092 0.951 . S
C2110 C2111 1.366 . S
C2110 C2112 1.388 . S
C2111 C2110 1.366 . S
C2111 C2115 1.385 . S
C2112 H2093 0.951 . S
C2112 C2110 1.388 . S
C2112 C2113 1.366 . S
C2113 C2112 1.366 . S
C2113 C2114 1.414 . S
C2113 C2116 1.499 . S
C2114 H2094 0.950 . S
C2114 C2113 1.414 . S
C2114 C2115 1.374 . S
C2115 H2095 0.950 . S
C2115 C2111 1.385 . S
C2115 C2114 1.374 . S
C2116 C2113 1.499 . S
C2116 C2117 1.373 . S
C2116 C2118 1.389 . S
C2117 H2096 0.950 . S
C2117 C2116 1.373 . S
C2117 C2133 1.377 . S
C2118 C2116 1.389 . S
C2118 C2119 1.524 . S
C2118 C2132 1.377 . S
C2119 C2118 1.524 . S
C2119 C2120 1.397 . S
C2119 C2124 1.363 . S
C2120 H2097 0.950 . S
C2120 C2119 1.397 . S
C2120 C2121 1.334 . S
C2121 H2098 0.950 . S
C2121 C2120 1.334 . S
C2121 C2122 1.287 . S
C2122 C2121 1.287 . S
C2122 C2123 1.524 . S
C2122 H2141 0.913 . S
C2123 H2099 0.950 . S
C2123 C2122 1.524 . S
C2123 C2124 1.415 . S
C2124 H2100 0.950 . S
C2124 C2119 1.363 . S
C2124 C2123 1.415 . S
C2125 H2101 0.951 . S
C2125 C2126 1.366 . S
C2125 C2127 1.388 . S
C2126 C2125 1.366 . S
C2126 C2130 1.385 . S
C2127 H2102 0.951 . S
C2127 C2125 1.388 . S
C2127 C2128 1.366 . S
C2128 C2127 1.366 . S
C2128 C2129 1.414 . S
C2128 C2131 1.499 . S
C2129 H2103 0.950 . S
C2129 C2128 1.414 . S
C2129 C2130 1.374 . S
C2130 H2104 0.950 . S
C2130 C2126 1.385 . S
C2130 C2129 1.374 . S
C2131 C2128 1.499 . S
C2131 C2132 1.373 . S
C2131 C2133 1.389 . S
C2132 H2105 0.950 . S
C2132 C2118 1.377 . S
C2132 C2131 1.373 . S
C2133 C2117 1.377 . S
C2133 C2131 1.389 . S
C2133 C2134 1.524 . S
C2134 C2133 1.524 . S
C2134 C2135 1.397 . S
C2134 C2139 1.363 . S
C2135 H2106 0.950 . S
C2135 C2134 1.397 . S
C2135 C2136 1.334 . S
C2136 H2107 0.950 . S
C2136 C2135 1.334 . S
C2136 C2137 1.287 . S
C2137 C2136 1.287 . S
C2137 C2138 1.524 . S
C2137 H2140 0.999 . S
C2138 H2108 0.950 . S
C2138 C2137 1.524 . S
C2138 C2139 1.415 . S
C2139 H2109 0.950 . S
C2139 C2134 1.363 . S
C2139 C2138 1.415 . S
H2140 C2137 0.999 . S
H2141 C2122 0.913 . S
H2142 C2160 0.951 . S
H2143 C2162 0.951 . S
H2144 C2164 0.950 . S
H2145 C2165 0.950 . S
H2146 C2167 0.950 . S
H2147 C2170 0.950 . S
H2148 C2171 0.950 . S
H2149 C2173 0.950 . S
H2150 C2174 0.950 . S
H2151 C2175 0.951 . S
H2152 C2177 0.951 . S
H2153 C2179 0.950 . S
H2154 C2180 0.950 . S
H2155 C2182 0.950 . S
H2156 C2185 0.950 . S
H2157 C2186 0.950 . S
H2158 C2188 0.950 . S
H2159 C2189 0.950 . S
C2160 H2142 0.951 . S
C2160 C2161 1.366 . S
C2160 C2162 1.388 . S
C2161 C2160 1.366 . S
C2161 C2165 1.385 . S
C2162 H2143 0.951 . S
C2162 C2160 1.388 . S
C2162 C2163 1.366 . S
C2163 C2162 1.366 . S
C2163 C2164 1.414 . S
C2163 C2166 1.499 . S
C2164 H2144 0.950 . S
C2164 C2163 1.414 . S
C2164 C2165 1.374 . S
C2165 H2145 0.950 . S
C2165 C2161 1.385 . S
C2165 C2164 1.374 . S
C2166 C2163 1.499 . S
C2166 C2167 1.373 . S
C2166 C2168 1.389 . S
C2167 H2146 0.950 . S
C2167 C2166 1.373 . S
C2167 C2183 1.377 . S
C2168 C2166 1.389 . S
C2168 C2169 1.524 . S
C2168 C2182 1.377 . S
C2169 C2168 1.524 . S
C2169 C2170 1.397 . S
C2169 C2174 1.363 . S
C2170 H2147 0.950 . S
C2170 C2169 1.397 . S
C2170 C2171 1.334 . S
C2171 H2148 0.950 . S
C2171 C2170 1.334 . S
C2171 C2172 1.287 . S
C2172 C2171 1.287 . S
C2172 C2173 1.524 . S
C2172 H2191 0.913 . S
C2173 H2149 0.950 . S
C2173 C2172 1.524 . S
C2173 C2174 1.415 . S
C2174 H2150 0.950 . S
C2174 C2169 1.363 . S
C2174 C2173 1.415 . S
C2175 H2151 0.951 . S
C2175 C2176 1.366 . S
C2175 C2177 1.388 . S
C2176 C2175 1.366 . S
C2176 C2180 1.385 . S
C2177 H2152 0.951 . S
C2177 C2175 1.388 . S
C2177 C2178 1.366 . S
C2178 C2177 1.366 . S
C2178 C2179 1.414 . S
C2178 C2181 1.499 . S
C2179 H2153 0.950 . S
C2179 C2178 1.414 . S
C2179 C2180 1.374 . S
C2180 H2154 0.950 . S
C2180 C2176 1.385 . S
C2180 C2179 1.374 . S
C2181 C2178 1.499 . S
C2181 C2182 1.373 . S
C2181 C2183 1.389 . S
C2182 H2155 0.950 . S
C2182 C2168 1.377 . S
C2182 C2181 1.373 . S
C2183 C2167 1.377 . S
C2183 C2181 1.389 . S
C2183 C2184 1.524 . S
C2184 C2183 1.524 . S
C2184 C2185 1.397 . S
C2184 C2189 1.363 . S
C2185 H2156 0.950 . S
C2185 C2184 1.397 . S
C2185 C2186 1.334 . S
C2186 H2157 0.950 . S
C2186 C2185 1.334 . S
C2186 C2187 1.287 . S
C2187 C2186 1.287 . S
C2187 C2188 1.524 . S
C2187 H2190 0.999 . S
C2188 H2158 0.950 . S
C2188 C2187 1.524 . S
C2188 C2189 1.415 . S
C2189 H2159 0.950 . S
C2189 C2184 1.363 . S
C2189 C2188 1.415 . S
H2190 C2187 0.999 . S
H2191 C2172 0.913 . S
C626 C197 1.503 . S
C611 C12 1.385 . S
C676 C250 1.315 . S
C661 C33 1.222 . S
C726 C313 1.545 . S
C711 C51 1.471 . S
C776 C356 1.290 . S
C761 C75 1.200 . S
C811 C103 1.479 . S
C826 C312 1.546 . S
C876 C349 1.331 . S
C861 C122 1.248 . S
C926 C190 1.488 . S
C911 C145 1.419 . S
C976 C243 1.255 . S
C961 C166 1.194 . S
C1026 C296 1.547 . S
C1011 C164 1.428 . S
C1076 C365 1.829 . S
C1061 C101 1.720 . S
C1126 C206 1.583 . S
C1111 C124 1.503 . S
C1176 C259 1.766 . S
C1161 C143 1.649 . S
C1226 C207 1.586 . S
C1211 C30 1.492 . S
C1276 C260 1.822 . S
C1261 C54 1.699 . S
C1326 C303 1.542 . S
C1311 C72 1.444 . S
C1376 C366 1.776 . S
C1361 C9 1.660 . S
C1426 C409 1.485 . S
C1411 C159 1.363 . S
C1461 C96 1.585 . S
C1476 C462 1.705 . S
C1511 C114 1.487 . S
C1526 C524 1.564 . S
C1561 C138 1.579 . S
C1576 C578 1.697 . S
C1611 C40 1.453 . S
C1626 C525 1.518 . S
C1661 C59 1.639 . S
C1676 C577 1.747 . S
C1711 C82 1.438 . S
C1726 C402 1.507 . S
C1776 C455 1.644 . S
C1761 C19 1.556 . S
C1826 C515 1.522 . S
C1811 C17 1.407 . S
C1861 C38 1.295 . S
C1876 C561 1.392 . S
C1911 C61 1.526 . S
C1926 C418 1.602 . S
C1961 C80 1.283 . S
C1976 C471 1.367 . S
C2026 C419 1.561 . S
C2011 C93 1.463 . S
C2076 C472 1.425 . S
C2061 C117 1.333 . S
C2111 C135 1.461 . S
C2126 C508 1.559 . S
C2176 C568 1.338 . S
C2161 C156 1.249 . S
