# Generated by pormake.
# Topology tsx, (6,3)-cn, num edge types: 1
# Building blocks:
#     Node 0, Type 0, BuildingBlock: FUNLAD_clean_sbu_0, # of connection points: 6
#     Node 1, Type 0, BuildingBlock: FUNLAD_clean_sbu_0, # of connection points: 6
#     Node 2, Type 1, BuildingBlock: MIDCAF_clean_linker_0, # of connection points: 3
#     Node 3, Type 1, BuildingBlock: MIDCAF_clean_linker_0, # of connection points: 3
#     Node 4, Type 1, BuildingBlock: MIDCAF_clean_linker_0, # of connection points: 3
#     Node 5, Type 1, BuildingBlock: MIDCAF_clean_linker_0, # of connection points: 3
#     Edge 6, Type (0, 1), BuildingBlock: TEMPAE_clean_linker_10, # of connection points: 2
#     Edge 7, Type (0, 1), BuildingBlock: TEMPAE_clean_linker_10, # of connection points: 2
#     Edge 8, Type (0, 1), BuildingBlock: TEMPAE_clean_linker_10, # of connection points: 2
#     Edge 9, Type (0, 1), BuildingBlock: TEMPAE_clean_linker_10, # of connection points: 2
#     Edge 10, Type (0, 1), BuildingBlock: TEMPAE_clean_linker_10, # of connection points: 2
#     Edge 11, Type (0, 1), BuildingBlock: TEMPAE_clean_linker_10, # of connection points: 2
#     Edge 12, Type (0, 1), BuildingBlock: TEMPAE_clean_linker_10, # of connection points: 2
#     Edge 13, Type (0, 1), BuildingBlock: TEMPAE_clean_linker_10, # of connection points: 2
#     Edge 14, Type (0, 1), BuildingBlock: TEMPAE_clean_linker_10, # of connection points: 2
#     Edge 15, Type (0, 1), BuildingBlock: TEMPAE_clean_linker_10, # of connection points: 2
#     Edge 16, Type (0, 1), BuildingBlock: TEMPAE_clean_linker_10, # of connection points: 2
#     Edge 17, Type (0, 1), BuildingBlock: TEMPAE_clean_linker_10, # of connection points: 2
# Relax obj value: 0.165
# Max RMSD: 0.155
# Mean RMSD: 0.090
data_MOF--net-tsx--node1-FUNLAD_clean_sbu_0--node2-MIDCAF_clean_linker_0--edge1-TEMPAE_clean_linker_10
_symmetry_space_group_name_H-M    P1
_symmetry_Int_Tables_number       1
_symmetry_cell_setting            triclinic
loop_
_symmetry_equiv_pos_as_xyz
'x, y, z'
_cell_length_a     23.427922
_cell_length_b     26.092383
_cell_length_c     50.520817
_cell_angle_alpha  91.077586
_cell_angle_beta   92.069741
_cell_angle_gamma 89.946711
loop_
_atom_site_label
_atom_site_type_symbol
_atom_site_fract_x
_atom_site_fract_y
_atom_site_fract_z
_atom_type_partial_charge
C0 C 0.93797 0.91399 -0.00129 0.0
N1 N 0.00869 -0.00045 0.06269 0.0
C2 C 0.95682 -0.00098 0.07394 0.0
C3 C 0.95304 0.00066 0.10144 0.0
C4 C 0.00315 0.00241 0.11757 0.0
C5 C 0.05613 0.00285 0.10537 0.0
C6 C 0.05791 0.00162 0.07779 0.0
Zn7 Zn 0.01252 -0.00359 0.02247 0.0
C8 C 0.10208 0.92509 0.00452 0.0
N9 N 0.01872 0.98953 0.93833 0.0
C10 C 0.96972 0.98861 0.92301 0.0
C11 C 0.07088 0.98836 0.92732 0.0
C12 C 0.0752 0.98571 0.89988 0.0
C13 C 0.02538 0.98502 0.88364 0.0
C14 C 0.9721 0.98672 0.89544 0.0
Zn15 Zn 0.01472 -0.00722 0.97856 0.0
O16 O 0.95358 0.93499 0.0207 0.0
C17 C 0.92446 0.06339 -0.00307 0.0
O18 O 0.95723 0.93081 0.97737 0.0
H19 H 0.10929 0.98959 0.93984 0.0
H20 H 0.9182 -0.0027 0.06156 0.0
H21 H 0.92872 0.98928 0.93218 0.0
O22 O 0.94471 0.04942 0.01929 0.0
O23 O 0.94579 0.04534 0.97593 0.0
H24 H 0.09869 0.00197 0.06842 0.0
O25 O 0.07202 0.05463 0.97995 0.0
O26 O 0.07155 0.05805 0.02336 0.0
O27 O 0.08332 0.94018 0.98207 0.0
O28 O 0.08008 0.94287 0.02537 0.0
C29 C 0.0891 0.07536 0.00174 0.0
H30 H 0.91126 0.00101 0.10993 0.0
H31 H 0.0959 0.0034 0.11698 0.0
H32 H 0.11704 0.98496 0.89141 0.0
H33 H 0.93279 0.98589 0.88348 0.0
C34 C 0.40915 0.44372 0.49642 0.0
N35 N 0.50068 0.51144 0.56075 0.0
C36 C 0.4495 0.51294 0.57261 0.0
C37 C 0.44713 0.51191 0.60012 0.0
C38 C 0.49795 0.51006 0.61573 0.0
C39 C 0.55027 0.5092 0.60292 0.0
C40 C 0.55063 0.50963 0.57528 0.0
Zn41 Zn 0.50114 0.51124 0.52039 0.0
C42 C 0.57314 0.42798 0.49904 0.0
N43 N 0.49925 0.51034 0.43603 0.0
C44 C 0.44868 0.51327 0.42205 0.0
C45 C 0.54977 0.50826 0.42361 0.0
C46 C 0.55074 0.50967 0.39603 0.0
C47 C 0.49918 0.51279 0.38104 0.0
C48 C 0.44764 0.5143 0.39444 0.0
Zn49 Zn 0.49938 0.51026 0.47638 0.0
O50 O 0.43028 0.46063 0.5184 0.0
C51 C 0.42763 0.59365 0.49829 0.0
O52 O 0.43008 0.45841 0.47501 0.0
H53 H 0.58949 0.50595 0.43511 0.0
H54 H 0.41027 0.51455 0.56071 0.0
H55 H 0.40901 0.51491 0.43234 0.0
O56 O 0.44624 0.57491 0.51993 0.0
O57 O 0.4423 0.57337 0.47648 0.0
H58 H 0.59085 0.50843 0.56544 0.0
O59 O 0.56891 0.56176 0.47805 0.0
O60 O 0.57213 0.56164 0.52147 0.0
O61 O 0.55648 0.44733 0.47716 0.0
O62 O 0.55626 0.44747 0.52061 0.0
C63 C 0.59182 0.57719 0.49991 0.0
H64 H 0.40575 0.51171 0.609 0.0
H65 H 0.59057 0.50852 0.61409 0.0
H66 H 0.59153 0.50913 0.38661 0.0
H67 H 0.40683 0.51589 0.38372 0.0
C68 C 0.81919 0.10322 0.45517 0.0
C69 C 0.82973 0.12466 0.48057 0.0
C70 C 0.88031 0.11181 0.49471 0.0
C71 C 0.92094 0.08016 0.48307 0.0
H72 H 0.04778 0.95513 0.49335 0.0
H73 H 0.11974 0.89932 0.51402 0.0
H74 H 0.22426 0.91495 0.4459 0.0
H75 H 0.15287 0.97083 0.42556 0.0
H76 H 0.08868 -0.00694 0.37 0.0
H77 H 0.08631 0.99114 0.32185 0.0
H78 H 0.90552 0.02469 0.32065 0.0
H79 H 0.90828 0.02844 0.36887 0.0
H80 H 0.85142 0.05796 0.42341 0.0
H81 H 0.7808 0.11281 0.44371 0.0
H82 H 0.88922 0.12763 0.5144 0.0
H83 H 0.96042 0.07244 0.49405 0.0
N84 N 0.00331 0.01441 0.45652 0.0
N85 N 0.04531 -0.00789 0.41644 0.0
N86 N 0.95688 0.03377 0.41599 0.0
C87 C 0.04704 -0.00726 0.44333 0.0
C88 C 0.00035 0.01241 0.40262 0.0
C89 C 0.95815 0.03518 0.4429 0.0
C90 C 0.09431 0.9667 0.45776 0.0
C91 C 0.08677 0.94764 0.48319 0.0
C92 C 0.1278 0.91556 0.49493 0.0
C93 C 0.17736 0.90253 0.48146 0.0
C94 C 0.18671 0.92463 0.45686 0.0
C95 C 0.14552 0.95626 0.44508 0.0
C96 C -0.00131 0.01096 0.37331 0.0
C97 C 0.04838 1e-05 0.35949 0.0
C98 C 0.04695 -0.00139 0.33185 0.0
C99 C -0.00432 0.00758 0.31734 0.0
C100 C 0.94592 0.01836 0.33118 0.0
C101 C 0.94746 0.02028 0.35885 0.0
C102 C 0.912 0.06159 0.45694 0.0
C103 C 0.85996 0.07217 0.44344 0.0
C104 C 0.94693 0.81814 0.54164 0.0
C105 C 0.9115 0.83095 0.51974 0.0
C106 C 0.91539 0.88032 0.50922 0.0
C107 C 0.95252 0.91672 0.52107 0.0
H108 H 0.05862 0.05332 0.50928 0.0
H109 H 0.10946 0.12332 0.48836 0.0
H110 H 0.2144 0.14479 0.55968 0.0
H111 H 0.16384 0.07626 0.58061 0.0
H112 H 0.08039 0.05606 0.6345 0.0
H113 H 0.07764 0.05558 0.68256 0.0
H114 H 0.03153 0.89511 0.67923 0.0
H115 H 0.03193 0.89621 0.63108 0.0
H116 H 0.00899 0.84387 0.57093 0.0
H117 H 0.9444 0.7807 0.55044 0.0
H118 H 0.88866 0.89114 0.49229 0.0
H119 H 0.95313 0.95511 0.51327 0.0
N120 N 0.0451 0.98261 0.54589 0.0
N121 N 0.07988 0.01577 0.58688 0.0
N122 N 0.02435 0.94136 0.58534 0.0
C123 C 0.07612 0.01842 0.56004 0.0
C124 C 0.05394 0.97753 0.59967 0.0
C125 C 0.01958 0.9437 0.55853 0.0
C126 C 0.10686 0.05948 0.54667 0.0
C127 C 0.09255 0.07303 0.52042 0.0
C128 C 0.12147 0.11298 0.50847 0.0
C129 C 0.16592 0.139 0.52243 0.0
C130 C 0.18065 0.1249 0.54843 0.0
C131 C 0.15132 0.08585 0.56046 0.0
C132 C 0.0561 0.97624 0.62894 0.0
C133 C 0.06999 0.02058 0.64402 0.0
C134 C 0.06867 0.02023 0.67163 0.0
C135 C 0.05417 0.97534 0.68483 0.0
C136 C 0.04172 0.93065 0.66972 0.0
C137 C 0.0423 0.93118 0.6421 0.0
C138 C 0.98587 0.90433 0.54371 0.0
C139 C 0.98352 0.85448 0.55355 0.0
C140 C 0.32148 0.59918 0.95607 0.0
C141 C 0.33816 0.61431 0.982 0.0
C142 C 0.38542 0.59053 0.99451 0.0
C143 C 0.41576 0.55244 0.98106 0.0
H144 H 0.55547 0.43673 0.98473 0.0
H145 H 0.62092 0.37262 0.00364 0.0
H146 H 0.57961 0.26985 0.9377 0.0
H147 H 0.51412 0.33325 0.9191 0.0
H148 H 0.48851 0.39366 0.86205 0.0
H149 H 0.49379 0.40156 0.81407 0.0
H150 H 0.44262 0.56012 0.82033 0.0
H151 H 0.43661 0.5524 0.86826 0.0
H152 H 0.33863 0.55185 0.92242 0.0
H153 H 0.28562 0.61739 0.94587 0.0
H154 H 0.39906 0.60167 0.01452 0.0
H155 H 0.45239 0.53497 0.99091 0.0
N156 N 0.46576 0.4648 0.95198 0.0
N157 N 0.49228 0.43158 0.91065 0.0
N158 N 0.43216 0.503 0.91268 0.0
C159 C 0.49471 0.42958 0.93751 0.0
C160 C 0.46157 0.46851 0.89811 0.0
C161 C 0.43363 0.50118 0.93955 0.0
C162 C 0.52975 0.38978 0.95051 0.0
C163 C 0.55944 0.39992 0.97469 0.0
C164 C 0.59717 0.36351 0.98536 0.0
C165 C 0.6052 0.31629 0.97214 0.0
C166 C 0.57375 0.30562 0.9485 0.0
C167 C 0.53666 0.34208 0.93773 0.0
C168 C 0.46217 0.47241 0.86896 0.0
C169 C 0.47811 0.43015 0.8532 0.0
C170 C 0.48093 0.43454 0.82576 0.0
C171 C 0.4688 0.48147 0.81364 0.0
C172 C 0.45255 0.52363 0.8293 0.0
C173 C 0.44878 0.51905 0.85668 0.0
C174 C 0.40001 0.53858 0.95478 0.0
C175 C 0.35221 0.56198 0.94257 0.0
C176 C 0.32153 0.41656 0.04041 0.0
C177 C 0.33515 0.3887 0.01744 0.0
C178 C 0.38646 0.39932 0.00506 0.0
C179 C 0.42503 0.43485 0.01645 0.0
H180 H 0.5478 0.56174 0.00403 0.0
H181 H 0.62072 0.6129 0.98338 0.0
H182 H 0.72168 0.6139 0.05661 0.0
H183 H 0.64926 0.56314 0.07725 0.0
H184 H 0.5888 0.53831 0.13088 0.0
H185 H 0.58835 0.53886 0.17903 0.0
H186 H 0.40711 0.50722 0.17542 0.0
H187 H 0.40801 0.50468 0.12728 0.0
H188 H 0.3496 0.4709 0.07024 0.0
H189 H 0.2825 0.40891 0.05051 0.0
H190 H 0.39777 0.37865 0.9872 0.0
H191 H 0.46546 0.44045 0.00727 0.0
N192 N 0.50217 0.51035 0.04226 0.0
N193 N 0.5436 0.53823 0.083 0.0
N194 N 0.45643 0.49448 0.08185 0.0
C195 C 0.54516 0.53473 0.05617 0.0
C196 C 0.4993 0.51833 0.09597 0.0
C197 C 0.45765 0.49014 0.05505 0.0
C198 C 0.59231 0.55912 0.04241 0.0
C199 C 0.58598 0.57209 0.01557 0.0
C200 C 0.62761 0.60141 0.00374 0.0
C201 C 0.67662 0.61742 0.01844 0.0
C202 C 0.68454 0.60168 0.04473 0.0
C203 C 0.64274 0.57302 0.05663 0.0
C204 C 0.49849 0.52121 0.12522 0.0
C205 C 0.54879 0.53167 0.14035 0.0
C206 C 0.54848 0.53223 0.168 0.0
C207 C 0.49772 0.52295 0.18116 0.0
C208 C 0.4472 0.51352 0.16597 0.0
C209 C 0.44765 0.51235 0.13834 0.0
C210 C 0.41312 0.45997 0.04046 0.0
C211 C 0.36022 0.45173 0.05186 0.0
C212 C 0.14905 0.14198 0.02556 0.0
C213 C 0.12717 0.12046 0.00168 0.0
C214 C 0.18343 0.18593 0.02572 0.0
C215 C 0.19588 0.20901 0.00144 0.0
C216 C 0.17432 0.18728 0.97727 0.0
C217 C 0.14035 0.14313 0.97767 0.0
C218 C 0.20609 0.20791 0.05191 0.0
C219 C 0.18655 0.21103 0.95104 0.0
C220 C 0.23955 0.34845 0.00802 0.0
C221 C 0.29924 0.34449 0.0087 0.0
C222 C 0.20515 0.30478 0.00438 0.0
C223 C 0.23123 0.25613 0.00154 0.0
C224 C 0.29139 0.25226 0.00075 0.0
C225 C 0.32472 0.29659 0.00429 0.0
C226 C 0.14105 0.31043 0.00494 0.0
C227 C 0.32071 0.20101 -0.00221 0.0
H228 H 0.13912 0.12461 0.04417 0.0
H229 H 0.12346 0.1268 0.95911 0.0
H230 H 0.25341 0.20993 0.05202 0.0
H231 H 0.19004 0.24759 0.05471 0.0
H232 H 0.19336 0.18479 0.06897 0.0
H233 H 0.16713 0.18899 0.93398 0.0
H234 H 0.16973 0.25078 0.95057 0.0
H235 H 0.23332 0.21335 0.94856 0.0
H236 H 0.21983 0.38557 0.0112 0.0
H237 H 0.37088 0.29328 0.00513 0.0
H238 H 0.12529 0.29272 0.02309 0.0
H239 H 0.1203 0.29003 0.9877 0.0
H240 H 0.12742 0.35122 0.00475 0.0
H241 H 0.31438 0.17811 0.01573 0.0
H242 H 0.36732 0.20507 0.99505 0.0
H243 H 0.30173 0.17905 0.98065 0.0
C244 C 0.17203 0.86688 0.98317 0.0
C245 C 0.14579 0.88425 0.00616 0.0
C246 C 0.20815 0.8241 0.98363 0.0
C247 C 0.21816 0.79791 0.00766 0.0
C248 C 0.19426 0.8168 0.03124 0.0
C249 C 0.15833 0.85988 0.03022 0.0
C250 C 0.2333 0.80542 0.95807 0.0
C251 C 0.20414 0.79001 0.05723 0.0
C252 C 0.24815 0.65798 0.9942 0.0
C253 C 0.30794 0.65745 0.99469 0.0
C254 C 0.21821 0.70279 0.00045 0.0
C255 C 0.24896 0.74815 0.00719 0.0
C256 C 0.30932 0.74668 0.00987 0.0
C257 C 0.33823 0.70111 0.0036 0.0
C258 C 0.15379 0.70253 -0.00226 0.0
C259 C 0.34354 0.79414 0.01721 0.0
H260 H 0.16299 0.8858 0.96456 0.0
H261 H 0.13834 0.87319 0.04811 0.0
H262 H 0.28011 0.80011 0.96079 0.0
H263 H 0.21463 0.76762 0.95224 0.0
H264 H 0.22504 0.83235 0.94159 0.0
H265 H 0.18953 0.81345 0.07427 0.0
H266 H 0.18045 0.75318 0.05667 0.0
H267 H 0.25007 0.7809 0.06055 0.0
H268 H 0.22483 0.62394 0.98756 0.0
H269 H 0.38453 0.70072 0.00388 0.0
H270 H 0.13996 0.72454 0.98004 0.0
H271 H 0.13494 0.7214 0.01523 0.0
H272 H 0.13628 0.66306 0.99552 0.0
H273 H 0.34351 0.81999 2e-05 0.0
H274 H 0.38856 0.78482 0.0229 0.0
H275 H 0.32416 0.81548 0.03383 0.0
C276 C 0.87071 0.85613 0.02089 0.0
C277 C 0.89895 0.86956 -0.00195 0.0
C278 C 0.83471 0.81332 0.02084 0.0
C279 C 0.82725 0.78293 -0.00255 0.0
C280 C 0.85542 0.79633 0.97428 0.0
C281 C 0.89078 0.83973 0.97481 0.0
C282 C 0.80488 0.80048 0.04589 0.0
C283 C 0.84878 0.76448 0.9491 0.0
C284 C 0.77537 0.64955 0.01173 0.0
C285 C 0.71623 0.65536 0.00782 0.0
C286 C 0.8127 0.68981 0.0066 0.0
C287 C 0.79007 0.73699 -0.00237 0.0
C288 C 0.73076 0.74178 0.9919 0.0
C289 C 0.69448 0.70073 -0.00301 0.0
C290 C 0.87585 0.683 0.01252 0.0
C291 C 0.70503 0.79153 0.98238 0.0
H292 H 0.87666 0.87915 0.03886 0.0
H293 H 0.91274 0.84981 0.95712 0.0
H294 H 0.75799 0.79921 0.04197 0.0
H295 H 0.81832 0.76196 0.05266 0.0
H296 H 0.81427 0.82873 0.0622 0.0
H297 H 0.8729 0.78062 0.93266 0.0
H298 H 0.8641 0.72488 0.9527 0.0
H299 H 0.80303 0.76176 0.94277 0.0
H300 H 0.79219 0.61421 0.01986 0.0
H301 H 0.64869 0.70546 0.99417 0.0
H302 H 0.88858 0.70562 0.03059 0.0
H303 H 0.90099 0.69749 0.99604 0.0
H304 H 0.88733 0.64224 0.01583 0.0
H305 H 0.70727 0.82046 -0.00123 0.0
H306 H 0.65963 0.78696 0.97562 0.0
H307 H 0.72944 0.80686 0.96587 0.0
C308 C 0.85769 0.11975 0.971 0.0
C309 C 0.87667 0.1004 0.99547 0.0
C310 C 0.81275 0.15519 0.96938 0.0
C311 C 0.78594 0.1714 0.99278 0.0
C312 C 0.80467 0.15187 0.01753 0.0
C313 C 0.84995 0.11668 0.0186 0.0
C314 C 0.79402 0.17538 0.94261 0.0
C315 C 0.77683 0.1681 0.04285 0.0
C316 C 0.70513 0.29692 0.98766 0.0
C317 C 0.64953 0.27968 0.98144 0.0
C318 C 0.74973 0.26205 0.99247 0.0
C319 C 0.7382 0.20879 0.99115 0.0
C320 C 0.68155 0.19128 0.98632 0.0
C321 C 0.63787 0.22699 0.98144 0.0
C322 C 0.80963 0.28213 -0.00246 0.0
C323 C 0.66751 0.1348 0.98509 0.0
H324 H 0.87817 0.10743 0.95306 0.0
H325 H 0.86427 0.10177 0.03759 0.0
H326 H 0.74839 0.16601 0.93835 0.0
H327 H 0.79801 0.21775 0.94265 0.0
H328 H 0.81959 0.15916 0.92636 0.0
H329 H 0.79625 0.14906 0.06049 0.0
H330 H 0.78057 0.21021 0.04583 0.0
H331 H 0.73059 0.15884 0.0415 0.0
H332 H 0.71438 0.33761 0.9874 0.0
H333 H 0.59473 0.21367 0.97691 0.0
H334 H 0.83631 0.2715 0.98058 0.0
H335 H 0.82945 0.26449 0.01544 0.0
H336 H 0.81063 0.32448 0.00023 0.0
H337 H 0.68735 0.11675 0.96761 0.0
H338 H 0.62074 0.1277 0.98355 0.0
H339 H 0.68539 0.11551 0.00293 0.0
C340 C 0.66245 0.62985 0.47626 0.0
C341 C 0.64037 0.61342 0.50015 0.0
C342 C 0.70774 0.66499 0.47617 0.0
C343 C 0.73137 0.68417 0.50054 0.0
C344 C 0.70961 0.66743 0.5247 0.0
C345 C 0.66441 0.63221 0.52421 0.0
C346 C 0.73 0.68189 0.45005 0.0
C347 C 0.73381 0.68703 0.5511 0.0
C348 C 0.87952 0.7419 0.50743 0.0
C349 C 0.8669 0.79427 0.50999 0.0
C350 C 0.83593 0.70565 0.50294 0.0
C351 C 0.77845 0.72228 0.501 0.0
C352 C 0.76578 0.77533 0.50189 0.0
C353 C 0.81023 0.81075 0.50637 0.0
C354 C 0.85118 0.64943 0.50181 0.0
C355 C 0.70499 0.79453 0.49979 0.0
H356 H 0.64421 0.61541 0.45756 0.0
H357 H 0.64766 0.61968 0.54274 0.0
H358 H 0.72445 0.72389 0.44811 0.0
H359 H 0.77641 0.6738 0.44927 0.0
H360 H 0.70781 0.66242 0.43285 0.0
H361 H 0.71243 0.66981 0.56807 0.0
H362 H 0.78016 0.67841 0.5529 0.0
H363 H 0.72902 0.7293 0.55247 0.0
H364 H 0.92342 0.72913 0.50988 0.0
H365 H 0.80018 0.85113 0.50857 0.0
H366 H 0.82958 0.63033 0.48439 0.0
H367 H 0.8361 0.6305 0.51976 0.0
H368 H 0.89796 0.6432 0.50075 0.0
H369 H 0.68206 0.77675 0.48236 0.0
H370 H 0.70279 0.83688 0.49808 0.0
H371 H 0.68208 0.7834 0.51764 0.0
C372 C 0.62147 0.35597 0.52296 0.0
C373 C 0.61086 0.38257 0.49939 0.0
C374 C 0.65615 0.3121 0.5234 0.0
C375 C 0.68114 0.29485 0.49978 0.0
C376 C 0.6709 0.32175 0.47598 0.0
C377 C 0.63567 0.36516 0.47605 0.0
C378 C 0.66578 0.28407 0.54906 0.0
C379 C 0.69722 0.30468 0.45041 0.0
C380 C 0.81383 0.21223 0.49936 0.0
C381 C 0.79114 0.16498 0.49054 0.0
C382 C 0.77812 0.25436 0.50391 0.0
C383 C 0.71838 0.24884 0.49968 0.0
C384 C 0.69499 0.20026 0.49263 0.0
C385 C 0.73176 0.15888 0.48801 0.0
C386 C 0.80466 0.30559 0.51136 0.0
C387 C 0.63141 0.19272 0.48835 0.0
H388 H 0.60217 0.36908 0.54106 0.0
H389 H 0.62777 0.38559 0.4578 0.0
H390 H 0.6509 0.24384 0.5466 0.0
H391 H 0.71208 0.28275 0.55444 0.0
H392 H 0.64307 0.3024 0.56568 0.0
H393 H 0.68549 0.3302 0.43371 0.0
H394 H 0.74445 0.30395 0.45298 0.0
H395 H 0.68315 0.26515 0.44501 0.0
H396 H 0.85977 0.21721 0.50107 0.0
H397 H 0.71419 0.12217 0.48144 0.0
H398 H 0.78259 0.32357 0.52822 0.0
H399 H 0.79976 0.33177 0.49437 0.0
H400 H 0.85086 0.30219 0.5168 0.0
H401 H 0.60812 0.20989 0.50507 0.0
H402 H 0.61972 0.15155 0.48625 0.0
H403 H 0.61666 0.2125 0.47009 0.0
C404 C 0.34918 0.37706 0.47244 0.0
C405 C 0.36378 0.4043 0.49594 0.0
C406 C 0.31173 0.33508 0.47253 0.0
C407 C 0.28825 0.32031 0.49664 0.0
C408 C 0.30015 0.34961 0.52007 0.0
C409 C 0.3379 0.39115 0.51945 0.0
C410 C 0.29997 0.30484 0.44716 0.0
C411 C 0.27545 0.33543 0.54616 0.0
C412 C 0.16675 0.22533 0.50187 0.0
C413 C 0.19659 0.18201 0.51073 0.0
C414 C 0.19615 0.27022 0.49567 0.0
C415 C 0.25655 0.27127 0.49829 0.0
C416 C 0.2868 0.22627 0.50538 0.0
C417 C 0.25638 0.18224 0.51163 0.0
C418 C 0.16247 0.31738 0.48811 0.0
C419 C 0.35123 0.22554 0.50805 0.0
H420 H 0.36885 0.38712 0.45415 0.0
H421 H 0.34849 0.41236 0.53763 0.0
H422 H 0.32225 0.26736 0.4483 0.0
H423 H 0.25364 0.29683 0.44431 0.0
H424 H 0.31486 0.32521 0.42957 0.0
H425 H 0.28454 0.36484 0.56193 0.0
H426 H 0.22853 0.33034 0.54383 0.0
H427 H 0.29381 0.29838 0.55276 0.0
H428 H 0.12044 0.22512 0.50133 0.0
H429 H 0.27932 0.14846 0.51829 0.0
H430 H 0.18133 0.33623 0.47098 0.0
H431 H 0.16408 0.34537 0.50493 0.0
H432 H 0.117 0.3083 0.48308 0.0
H433 H 0.37015 0.24139 0.49013 0.0
H434 H 0.36828 0.18626 0.5111 0.0
H435 H 0.3655 0.2501 0.5252 0.0
C436 C 0.38225 0.6666 0.52242 0.0
C437 C 0.39066 0.63953 0.4986 0.0
C438 C 0.34865 0.71109 0.52294 0.0
C439 C 0.3225 0.72854 0.49911 0.0
C440 C 0.33044 0.70117 0.47505 0.0
C441 C 0.36464 0.65708 0.47507 0.0
C442 C 0.34146 0.73959 0.5489 0.0
C443 C 0.30281 0.71848 0.44925 0.0
C444 C 0.19216 0.81423 0.49829 0.0
C445 C 0.21558 0.8611 0.491 0.0
C446 C 0.22695 0.77117 0.50233 0.0
C447 C 0.28651 0.77533 0.49913 0.0
C448 C 0.31082 0.82341 0.49356 0.0
C449 C 0.27495 0.86578 0.48945 0.0
C450 C 0.19947 0.72051 0.50823 0.0
C451 C 0.37429 0.82946 0.49041 0.0
H452 H 0.40248 0.65339 0.54069 0.0
H453 H 0.37089 0.6363 0.45661 0.0
H454 H 0.35721 0.77947 0.5474 0.0
H455 H 0.29554 0.74189 0.55343 0.0
H456 H 0.36481 0.72098 0.56567 0.0
H457 H 0.31275 0.69256 0.43234 0.0
H458 H 0.25575 0.7202 0.45096 0.0
H459 H 0.31753 0.75768 0.44478 0.0
H460 H 0.1462 0.81031 0.49921 0.0
H461 H 0.29312 0.90217 0.48407 0.0
H462 H 0.22214 0.70205 0.52519 0.0
H463 H 0.20261 0.69424 0.49081 0.0
H464 H 0.15369 0.72486 0.51284 0.0
H465 H 0.39842 0.81202 0.50725 0.0
H466 H 0.38702 0.87032 0.48913 0.0
H467 H 0.38702 0.80906 0.47207 0.0
C468 C 0.03836 0.03386 0.16245 0.0
C469 C 0.00024 0.00348 0.14692 0.0
C470 C 0.03683 0.0345 0.19017 0.0
C471 C -0.00429 0.00453 0.20267 0.0
C472 C 0.95662 0.97429 0.18717 0.0
C473 C 0.95958 0.97387 0.15949 0.0
C474 C 0.07944 0.06703 0.20609 0.0
C475 C 0.91192 0.94211 0.19983 0.0
C476 C 0.02612 0.96901 0.27425 0.0
C477 C -0.00567 0.00595 0.2879 0.0
C478 C 0.02676 0.96799 0.24651 0.0
C479 C -0.00579 0.00437 0.23203 0.0
C480 C 0.96116 0.04114 0.24559 0.0
C481 C 0.9619 0.0417 0.27337 0.0
C482 C 0.06275 0.92834 0.2327 0.0
C483 C 0.92552 0.08024 0.23077 0.0
H484 H 0.06927 0.05753 0.15292 0.0
H485 H 0.9305 0.94969 0.1477 0.0
H486 H 0.05671 0.09538 0.21851 0.0
H487 H 0.10523 0.04253 0.21969 0.0
H488 H 0.10885 0.08794 0.19333 0.0
H489 H 0.88351 0.92202 0.18493 0.0
H490 H 0.93288 0.91306 0.21267 0.0
H491 H 0.88529 0.96659 0.21268 0.0
H492 H 0.05046 0.94065 0.28527 0.0
H493 H 0.93781 0.0708 0.28373 0.0
H494 H 0.09486 0.94761 0.2207 0.0
H495 H 0.03552 0.90457 0.2189 0.0
H496 H 0.08546 0.90266 0.24687 0.0
H497 H 0.95354 0.1051 0.2193 0.0
H498 H 0.90042 0.10489 0.24424 0.0
H499 H 0.8956 0.06066 0.21638 0.0
C500 C 0.06387 0.94594 0.84248 0.0
C501 C 0.02914 0.9827 0.85449 0.0
C502 C 0.06818 0.94348 0.81487 0.0
C503 C 0.03773 0.97921 0.79903 0.0
C504 C 0.00277 0.01657 0.81111 0.0
C505 C -0.00147 0.01759 0.83873 0.0
C506 C 0.10508 0.90257 0.80265 0.0
C507 C 0.97037 0.05578 0.79487 0.0
C508 C 0.09019 0.00358 0.73021 0.0
C509 C 0.05077 0.97549 0.71418 0.0
C510 C 0.0863 0.0053 0.75785 0.0
C511 C 0.04252 0.97759 0.7698 0.0
C512 C 0.0031 0.94857 0.75384 0.0
C513 C 0.0074 0.94821 0.72623 0.0
C514 C 0.12883 0.03703 0.77426 0.0
C515 C 0.95616 0.91812 0.76593 0.0
H516 H 0.08711 0.91867 0.8547 0.0
H517 H 0.97211 0.04632 0.84809 0.0
H518 H 0.07905 0.87868 0.78839 0.0
H519 H 0.13931 0.92056 0.7914 0.0
H520 H 0.12519 0.87717 0.81774 0.0
H521 H 0.94546 0.08253 0.80735 0.0
H522 H 0.00059 0.07844 0.78339 0.0
H523 H 0.94059 0.03626 0.7804 0.0
H524 H 0.12439 0.0241 0.72116 0.0
H525 H 0.97611 0.92714 0.71405 0.0
H526 H 0.15293 0.01224 0.78833 0.0
H527 H 0.10603 0.06614 0.7862 0.0
H528 H 0.15977 0.057 0.76187 0.0
H529 H 0.97476 0.89094 0.78051 0.0
H530 H 0.9302 0.8961 0.75081 0.0
H531 H 0.92744 0.94426 0.77678 0.0
C532 C 0.45453 0.53602 0.65867 0.0
C533 C 0.49609 0.50821 0.64511 0.0
C534 C 0.45032 0.5326 0.6862 0.0
C535 C 0.48931 0.50141 0.70063 0.0
C536 C 0.53232 0.47432 0.68724 0.0
C537 C 0.53489 0.47768 0.65963 0.0
C538 C 0.40358 0.56175 0.69978 0.0
C539 C 0.57514 0.44121 0.70205 0.0
C540 C 0.50655 0.52638 0.77474 0.0
C541 C 0.47391 0.48664 0.78473 0.0
C542 C 0.5125 0.53134 0.74738 0.0
C543 C 0.48426 0.49624 0.72968 0.0
C544 C 0.45084 0.45629 0.7397 0.0
C545 C 0.4465 0.4517 0.76717 0.0
C546 C 0.54932 0.57384 0.73743 0.0
C547 C 0.41929 0.4187 0.72141 0.0
H548 H 0.42509 0.56055 0.64777 0.0
H549 H 0.56664 0.45547 0.64937 0.0
H550 H 0.37577 0.53463 0.71001 0.0
H551 H 0.42241 0.58831 0.71511 0.0
H552 H 0.37663 0.58429 0.68568 0.0
H553 H 0.60783 0.42488 0.6889 0.0
H554 H 0.59713 0.46392 0.71816 0.0
H555 H 0.55281 0.40918 0.71143 0.0
H556 H 0.5282 0.55307 0.7884 0.0
H557 H 0.42094 0.42122 0.77496 0.0
H558 H 0.5234 0.59929 0.7244 0.0
H559 H 0.58375 0.55741 0.72537 0.0
H560 H 0.56912 0.5974 0.75384 0.0
H561 H 0.38951 0.43959 0.70785 0.0
H562 H 0.39451 0.39028 0.73239 0.0
H563 H 0.44996 0.39779 0.70893 0.0
C564 C 0.46055 0.54655 0.33779 0.0
C565 C 0.49916 0.51476 0.35164 0.0
C566 C 0.45974 0.54851 0.31006 0.0
C567 C 0.49897 0.51846 0.29583 0.0
C568 C 0.53841 0.48666 0.30963 0.0
C569 C 0.53779 0.48494 0.33735 0.0
C570 C 0.41679 0.58263 0.29598 0.0
C571 C 0.58115 0.45431 0.29511 0.0
C572 C 0.46484 0.48599 0.22349 0.0
C573 C 0.49764 0.52226 0.21059 0.0
C574 C 0.46449 0.48466 0.25121 0.0
C575 C 0.4984 0.51993 0.26645 0.0
C576 C 0.53183 0.55646 0.25364 0.0
C577 C 0.53075 0.55742 0.22587 0.0
C578 C 0.42794 0.44538 0.2642 0.0
C579 C 0.56888 0.59443 0.26926 0.0
H580 H 0.43121 0.57039 0.34866 0.0
H581 H 0.5672 0.45969 0.34782 0.0
H582 H 0.43923 0.61137 0.28424 0.0
H583 H 0.38957 0.55943 0.2819 0.0
H584 H 0.3888 0.60317 0.30995 0.0
H585 H 0.60991 0.43265 0.30882 0.0
H586 H 0.55846 0.42661 0.28154 0.0
H587 H 0.60759 0.479 0.28276 0.0
H588 H 0.43992 0.45808 0.2119 0.0
H589 H 0.55555 0.58607 0.21612 0.0
H590 H 0.39782 0.46481 0.27756 0.0
H591 H 0.45523 0.41978 0.27655 0.0
H592 H 0.40295 0.42149 0.24951 0.0
H593 H 0.54212 0.61856 0.28221 0.0
H594 H 0.59297 0.61989 0.25628 0.0
H595 H 0.59982 0.57375 0.28234 0.0
loop_
_geom_bond_atom_site_label_1
_geom_bond_atom_site_label_2
_geom_bond_distance
_geom_bond_site_symmetry_2
_ccdc_geom_bond_type
C0 O16 1.251 . S
C0 O18 1.254 1_554 S
N1 C2 1.333 1_445 S
N1 C6 1.307 . S
N1 Zn7 2.020 . S
C2 N1 1.333 1_665 S
C2 C3 1.379 . S
C2 H20 0.952 . S
C3 C2 1.379 . S
C3 C4 1.390 1_665 S
C3 H30 0.949 . S
C4 C3 1.390 1_445 S
C4 C5 1.357 . S
C5 C4 1.357 . S
C5 C6 1.370 . S
C5 H31 0.950 . S
C6 N1 1.307 . S
C6 C5 1.370 . S
C6 H24 0.948 . S
Zn7 N1 2.020 . S
Zn7 O16 2.039 1_445 S
Zn7 O22 2.034 1_455 S
Zn7 O26 2.025 . S
Zn7 O28 2.024 1_545 S
C8 O27 1.246 1_554 S
C8 O28 1.249 . S
N9 C10 1.307 1_445 S
N9 C11 1.333 . S
N9 Zn15 2.020 . S
C10 N9 1.307 1_665 S
C10 C14 1.370 . S
C10 H21 0.948 . S
C11 N9 1.333 . S
C11 C12 1.379 . S
C11 H19 0.952 . S
C12 C11 1.379 . S
C12 C13 1.390 . S
C12 H32 0.949 . S
C13 C12 1.390 . S
C13 C14 1.357 1_445 S
C14 C10 1.370 . S
C14 C13 1.357 1_665 S
C14 H33 0.950 . S
Zn15 N9 2.020 . S
Zn15 O18 2.025 1_445 S
Zn15 O23 2.024 1_455 S
Zn15 O25 2.039 . S
Zn15 O27 2.034 1_545 S
O16 C0 1.251 . S
O16 Zn7 2.039 1_665 S
C17 O22 1.246 . S
C17 O23 1.249 1_554 S
O18 C0 1.254 1_556 S
O18 Zn15 2.025 1_665 S
H19 C11 0.952 . S
H20 C2 0.952 . S
H21 C10 0.948 . S
O22 Zn7 2.034 1_655 S
O22 C17 1.246 . S
O23 Zn15 2.024 1_655 S
O23 C17 1.249 1_556 S
H24 C6 0.948 . S
O25 Zn15 2.039 . S
O25 C29 1.251 1_556 S
O26 Zn7 2.025 . S
O26 C29 1.254 . S
O27 C8 1.246 1_556 S
O27 Zn15 2.034 1_565 S
O28 Zn7 2.024 1_565 S
O28 C8 1.249 . S
C29 O25 1.251 1_554 S
C29 O26 1.254 . S
H30 C3 0.949 . S
H31 C5 0.950 . S
H32 C12 0.949 . S
H33 C14 0.950 . S
C34 O50 1.251 . S
C34 O52 1.254 . S
N35 C36 1.333 . S
N35 C40 1.307 . S
N35 Zn41 2.020 . S
C36 N35 1.333 . S
C36 C37 1.379 . S
C36 H54 0.952 . S
C37 C36 1.379 . S
C37 C38 1.390 . S
C37 H64 0.949 . S
C38 C37 1.390 . S
C38 C39 1.357 . S
C39 C38 1.357 . S
C39 C40 1.370 . S
C39 H65 0.950 . S
C40 N35 1.307 . S
C40 C39 1.370 . S
C40 H58 0.948 . S
Zn41 N35 2.020 . S
Zn41 O50 2.039 . S
Zn41 O56 2.034 . S
Zn41 O60 2.025 . S
Zn41 O62 2.024 . S
C42 O61 1.246 . S
C42 O62 1.249 . S
N43 C44 1.307 . S
N43 C45 1.333 . S
N43 Zn49 2.020 . S
C44 N43 1.307 . S
C44 C48 1.370 . S
C44 H55 0.948 . S
C45 N43 1.333 . S
C45 C46 1.379 . S
C45 H53 0.952 . S
C46 C45 1.379 . S
C46 C47 1.390 . S
C46 H66 0.949 . S
C47 C46 1.390 . S
C47 C48 1.357 . S
C48 C44 1.370 . S
C48 C47 1.357 . S
C48 H67 0.950 . S
Zn49 N43 2.020 . S
Zn49 O52 2.025 . S
Zn49 O57 2.024 . S
Zn49 O59 2.039 . S
Zn49 O61 2.034 . S
O50 C34 1.251 . S
O50 Zn41 2.039 . S
C51 O56 1.246 . S
C51 O57 1.249 . S
O52 C34 1.254 . S
O52 Zn49 2.025 . S
H53 C45 0.952 . S
H54 C36 0.952 . S
H55 C44 0.948 . S
O56 Zn41 2.034 . S
O56 C51 1.246 . S
O57 Zn49 2.024 . S
O57 C51 1.249 . S
H58 C40 0.948 . S
O59 Zn49 2.039 . S
O59 C63 1.251 . S
O60 Zn41 2.025 . S
O60 C63 1.254 . S
O61 C42 1.246 . S
O61 Zn49 2.034 . S
O62 Zn41 2.024 . S
O62 C42 1.249 . S
C63 O59 1.251 . S
C63 O60 1.254 . S
H64 C37 0.949 . S
H65 C39 0.950 . S
H66 C46 0.949 . S
H67 C48 0.950 . S
C68 C69 1.384 . S
C68 H81 0.947 . S
C68 C103 1.382 . S
C69 C68 1.384 . S
C69 C70 1.378 . S
C70 C69 1.378 . S
C70 C71 1.378 . S
C70 H82 0.952 . S
C71 C70 1.378 . S
C71 H83 0.950 . S
C71 C102 1.383 . S
H72 C91 0.947 . S
H73 C92 0.946 . S
H74 C94 0.953 . S
H75 C95 0.945 . S
H76 C97 0.952 . S
H77 C98 0.949 . S
H78 C100 0.950 . S
H79 C101 0.948 . S
H80 C103 0.951 . S
H81 C68 0.947 . S
H82 C70 0.952 . S
H83 C71 0.950 . S
N84 C87 1.382 1_545 S
N84 C89 1.363 1_455 S
N85 C87 1.371 . S
N85 C88 1.372 1_565 S
N86 C88 1.361 1_655 S
N86 C89 1.377 . S
C87 N84 1.382 1_565 S
C87 N85 1.371 . S
C87 C90 1.480 . S
C88 N85 1.372 1_545 S
C88 N86 1.361 1_455 S
C88 C96 1.457 . S
C89 N84 1.363 1_655 S
C89 N86 1.377 . S
C89 C102 1.479 . S
C90 C87 1.480 . S
C90 C91 1.383 . S
C90 C95 1.385 . S
C91 H72 0.947 . S
C91 C90 1.383 . S
C91 C92 1.388 . S
C92 H73 0.946 . S
C92 C91 1.388 . S
C92 C93 1.384 . S
C93 C92 1.384 . S
C93 C94 1.377 . S
C94 H74 0.953 . S
C94 C93 1.377 . S
C94 C95 1.369 . S
C95 H75 0.945 . S
C95 C90 1.385 . S
C95 C94 1.369 . S
C96 C88 1.457 . S
C96 C97 1.372 1_545 S
C96 C101 1.364 1_455 S
C97 H76 0.952 . S
C97 C96 1.372 1_565 S
C97 C98 1.389 . S
C98 H77 0.949 . S
C98 C97 1.389 . S
C98 C99 1.387 1_565 S
C99 C98 1.387 1_545 S
C99 C100 1.372 1_455 S
C100 H78 0.950 . S
C100 C99 1.372 1_655 S
C100 C101 1.379 . S
C101 H79 0.948 . S
C101 C96 1.364 1_655 S
C101 C100 1.379 . S
C102 C71 1.383 . S
C102 C89 1.479 . S
C102 C103 1.398 . S
C103 C68 1.382 . S
C103 H80 0.951 . S
C103 C102 1.398 . S
C104 C105 1.384 . S
C104 H117 0.947 . S
C104 C139 1.382 . S
C105 C104 1.384 . S
C105 C106 1.378 . S
C106 C105 1.378 . S
C106 C107 1.378 . S
C106 H118 0.952 . S
C107 C106 1.378 . S
C107 H119 0.950 . S
C107 C138 1.383 . S
H108 C127 0.947 . S
H109 C128 0.946 . S
H110 C130 0.953 . S
H111 C131 0.945 . S
H112 C133 0.952 . S
H113 C134 0.949 . S
H114 C136 0.950 . S
H115 C137 0.954 . S
H116 C139 0.951 . S
H117 C104 0.947 . S
H118 C106 0.952 . S
H119 C107 0.950 . S
N120 C123 1.372 1_565 S
N120 C125 1.374 1_455 S
N121 C123 1.371 . S
N121 C124 1.377 . S
N122 C124 1.356 1_665 S
N122 C125 1.377 . S
C123 N120 1.372 1_545 S
C123 N121 1.371 . S
C123 C126 1.480 . S
C124 N121 1.377 . S
C124 N122 1.356 1_445 S
C124 C132 1.457 . S
C125 N120 1.374 1_655 S
C125 N122 1.377 . S
C125 C138 1.479 . S
C126 C123 1.480 . S
C126 C127 1.383 . S
C126 C131 1.385 . S
C127 H108 0.947 . S
C127 C126 1.383 . S
C127 C128 1.388 . S
C128 H109 0.946 . S
C128 C127 1.388 . S
C128 C129 1.384 . S
C129 C128 1.384 . S
C129 C130 1.377 . S
C130 H110 0.953 . S
C130 C129 1.377 . S
C130 C131 1.369 . S
C131 H111 0.945 . S
C131 C126 1.385 . S
C131 C130 1.369 . S
C132 C124 1.457 . S
C132 C133 1.374 . S
C132 C137 1.355 1_445 S
C133 H112 0.952 . S
C133 C132 1.374 . S
C133 C134 1.389 . S
C134 H113 0.949 . S
C134 C133 1.389 . S
C134 C135 1.387 . S
C135 C134 1.387 . S
C135 C136 1.372 1_445 S
C136 H114 0.950 . S
C136 C135 1.372 1_665 S
C136 C137 1.380 . S
C137 H115 0.954 . S
C137 C132 1.355 1_665 S
C137 C136 1.380 . S
C138 C107 1.383 . S
C138 C125 1.479 . S
C138 C139 1.398 . S
C139 C104 1.382 . S
C139 H116 0.951 . S
C139 C138 1.398 . S
C140 C141 1.384 . S
C140 H153 0.947 . S
C140 C175 1.382 . S
C141 C140 1.384 . S
C141 C142 1.378 1_556 S
C142 C141 1.378 1_554 S
C142 C143 1.378 1_554 S
C142 H154 0.952 . S
C143 C142 1.378 1_556 S
C143 H155 0.950 1_556 S
C143 C174 1.383 . S
H144 C163 0.938 1_554 S
H145 C164 0.946 . S
H146 C166 0.953 . S
H147 C167 0.945 . S
H148 C169 0.952 . S
H149 C170 0.949 . S
H150 C172 0.950 . S
H151 C173 0.948 . S
H152 C175 0.951 . S
H153 C140 0.947 . S
H154 C142 0.952 . S
H155 C143 0.950 1_554 S
N156 C159 1.382 . S
N156 C161 1.363 . S
N157 C159 1.371 . S
N157 C160 1.372 . S
N158 C160 1.361 . S
N158 C161 1.377 . S
C159 N156 1.382 . S
C159 N157 1.371 . S
C159 C162 1.480 . S
C160 N157 1.372 . S
C160 N158 1.361 . S
C160 C168 1.457 . S
C161 N156 1.363 . S
C161 N158 1.377 . S
C161 C174 1.479 . S
C162 C159 1.480 . S
C162 C163 1.383 . S
C162 C167 1.385 . S
C163 H144 0.938 1_556 S
C163 C162 1.383 . S
C163 C164 1.388 1_556 S
C164 H145 0.946 . S
C164 C163 1.388 1_554 S
C164 C165 1.384 1_554 S
C165 C164 1.384 1_556 S
C165 C166 1.377 . S
C166 H146 0.953 . S
C166 C165 1.377 . S
C166 C167 1.369 . S
C167 H147 0.945 . S
C167 C162 1.385 . S
C167 C166 1.369 . S
C168 C160 1.457 . S
C168 C169 1.372 . S
C168 C173 1.364 . S
C169 H148 0.952 . S
C169 C168 1.372 . S
C169 C170 1.389 . S
C170 H149 0.949 . S
C170 C169 1.389 . S
C170 C171 1.387 . S
C171 C170 1.387 . S
C171 C172 1.372 . S
C172 H150 0.950 . S
C172 C171 1.372 . S
C172 C173 1.379 . S
C173 H151 0.948 . S
C173 C168 1.364 . S
C173 C172 1.379 . S
C174 C143 1.383 . S
C174 C161 1.479 . S
C174 C175 1.398 . S
C175 C140 1.382 . S
C175 H152 0.951 . S
C175 C174 1.398 . S
C176 C177 1.384 . S
C176 H189 0.947 . S
C176 C211 1.382 . S
C177 C176 1.384 . S
C177 C178 1.378 1_554 S
C178 C177 1.378 1_556 S
C178 C179 1.378 1_556 S
C178 H190 0.952 . S
C179 C178 1.378 1_554 S
C179 H191 0.950 . S
C179 C210 1.383 . S
H180 C199 0.947 . S
H181 C200 0.946 1_556 S
H182 C202 0.953 . S
H183 C203 0.945 . S
H184 C205 0.952 . S
H185 C206 0.949 . S
H186 C208 0.950 . S
H187 C209 0.948 . S
H188 C211 0.951 . S
H189 C176 0.947 . S
H190 C178 0.952 . S
H191 C179 0.950 . S
N192 C195 1.382 . S
N192 C197 1.363 . S
N193 C195 1.371 . S
N193 C196 1.372 . S
N194 C196 1.361 . S
N194 C197 1.377 . S
C195 N192 1.382 . S
C195 N193 1.371 . S
C195 C198 1.480 . S
C196 N193 1.372 . S
C196 N194 1.361 . S
C196 C204 1.457 . S
C197 N192 1.363 . S
C197 N194 1.377 . S
C197 C210 1.479 . S
C198 C195 1.480 . S
C198 C199 1.383 . S
C198 C203 1.385 . S
C199 H180 0.947 . S
C199 C198 1.383 . S
C199 C200 1.388 . S
C200 H181 0.946 1_554 S
C200 C199 1.388 . S
C200 C201 1.384 . S
C201 C200 1.384 . S
C201 C202 1.377 . S
C202 H182 0.953 . S
C202 C201 1.377 . S
C202 C203 1.369 . S
C203 H183 0.945 . S
C203 C198 1.385 . S
C203 C202 1.369 . S
C204 C196 1.457 . S
C204 C205 1.372 . S
C204 C209 1.364 . S
C205 H184 0.952 . S
C205 C204 1.372 . S
C205 C206 1.389 . S
C206 H185 0.949 . S
C206 C205 1.389 . S
C206 C207 1.387 . S
C207 C206 1.387 . S
C207 C208 1.372 . S
C208 H186 0.950 . S
C208 C207 1.372 . S
C208 C209 1.379 . S
C209 H187 0.948 . S
C209 C204 1.364 . S
C209 C208 1.379 . S
C210 C179 1.383 . S
C210 C197 1.479 . S
C210 C211 1.398 . S
C211 C176 1.382 . S
C211 H188 0.951 . S
C211 C210 1.398 . S
C212 C213 1.391 . S
C212 C214 1.394 . S
C212 H228 0.931 . S
C213 C212 1.391 . S
C213 C217 1.376 1_554 S
C214 C212 1.394 . S
C214 C215 1.369 . S
C214 C218 1.531 . S
C215 C214 1.369 . S
C215 C216 1.410 1_554 S
C215 C223 1.503 . S
C216 C215 1.410 1_556 S
C216 C217 1.392 . S
C216 C219 1.511 . S
C217 C213 1.376 1_556 S
C217 C216 1.392 . S
C217 H229 0.929 . S
C218 C214 1.531 . S
C218 H230 0.960 . S
C218 H231 0.962 . S
C218 H232 0.960 . S
C219 C216 1.511 . S
C219 H233 0.961 . S
C219 H234 0.961 . S
C219 H235 0.961 . S
C220 C221 1.370 1_556 S
C220 C222 1.363 . S
C220 H236 0.931 . S
C221 C220 1.370 1_554 S
C221 C225 1.408 . S
C222 C220 1.363 . S
C222 C223 1.370 1_556 S
C222 C226 1.524 . S
C223 C215 1.503 . S
C223 C222 1.370 1_554 S
C223 C224 1.403 . S
C224 C223 1.403 . S
C224 C225 1.404 . S
C224 C227 1.539 . S
C225 C221 1.408 . S
C225 C224 1.404 . S
C225 H237 0.930 . S
C226 C222 1.524 . S
C226 H238 0.956 . S
C226 H239 0.961 . S
C226 H240 0.961 . S
C227 C224 1.539 . S
C227 H241 0.958 . S
C227 H242 0.961 . S
C227 H243 0.960 . S
H228 C212 0.931 . S
H229 C217 0.929 . S
H230 C218 0.960 . S
H231 C218 0.962 . S
H232 C218 0.960 . S
H233 C219 0.961 . S
H234 C219 0.961 . S
H235 C219 0.961 . S
H236 C220 0.931 . S
H237 C225 0.930 . S
H238 C226 0.956 . S
H239 C226 0.961 . S
H240 C226 0.961 . S
H241 C227 0.958 . S
H242 C227 0.961 . S
H243 C227 0.960 . S
C244 C245 1.391 1_556 S
C244 C246 1.395 . S
C244 H260 0.931 . S
C245 C244 1.391 1_554 S
C245 C249 1.376 . S
C246 C244 1.395 . S
C246 C247 1.360 1_556 S
C246 C250 1.539 . S
C247 C246 1.360 1_554 S
C247 C248 1.410 . S
C247 C255 1.503 . S
C248 C247 1.410 . S
C248 C249 1.392 . S
C248 C251 1.511 . S
C249 C245 1.376 . S
C249 C248 1.392 . S
C249 H261 0.929 . S
C250 C246 1.539 . S
C250 H262 0.960 1_556 S
C250 H263 0.962 . S
C250 H264 0.960 . S
C251 C248 1.511 . S
C251 H265 0.961 . S
C251 H266 0.961 . S
C251 H267 0.961 . S
C252 C253 1.393 . S
C252 C254 1.363 . S
C252 H268 0.931 . S
C253 C252 1.393 . S
C253 C257 1.383 1_556 S
C254 C252 1.363 . S
C254 C255 1.370 1_556 S
C254 C258 1.524 . S
C255 C247 1.503 . S
C255 C254 1.370 1_554 S
C255 C256 1.403 . S
C256 C255 1.403 . S
C256 C257 1.404 . S
C256 C259 1.539 . S
C257 C253 1.383 1_554 S
C257 C256 1.404 . S
C257 H269 0.930 . S
C258 C254 1.524 . S
C258 H270 0.956 . S
C258 H271 0.961 . S
C258 H272 0.961 . S
C259 C256 1.539 . S
C259 H273 0.958 . S
C259 H274 0.961 . S
C259 H275 0.960 . S
H260 C244 0.931 . S
H261 C249 0.929 . S
H262 C250 0.960 1_554 S
H263 C250 0.962 . S
H264 C250 0.960 . S
H265 C251 0.961 . S
H266 C251 0.961 . S
H267 C251 0.961 . S
H268 C252 0.931 . S
H269 C257 0.930 . S
H270 C258 0.956 . S
H271 C258 0.961 . S
H272 C258 0.961 . S
H273 C259 0.958 . S
H274 C259 0.961 . S
H275 C259 0.960 . S
C276 C277 1.391 . S
C276 C278 1.394 . S
C276 H292 0.931 . S
C277 C276 1.391 . S
C277 C281 1.376 1_554 S
C278 C276 1.394 . S
C278 C279 1.369 . S
C278 C282 1.531 . S
C279 C278 1.369 . S
C279 C280 1.410 1_554 S
C279 C287 1.503 . S
C280 C279 1.410 1_556 S
C280 C281 1.392 . S
C280 C283 1.511 . S
C281 C277 1.376 1_556 S
C281 C280 1.392 . S
C281 H293 0.929 . S
C282 C278 1.531 . S
C282 H294 0.960 . S
C282 H295 0.962 . S
C282 H296 0.960 . S
C283 C280 1.511 . S
C283 H297 0.961 . S
C283 H298 0.961 . S
C283 H299 0.961 . S
C284 C285 1.370 . S
C284 C286 1.363 . S
C284 H300 0.931 . S
C285 C284 1.370 . S
C285 C289 1.408 . S
C286 C284 1.363 . S
C286 C287 1.370 . S
C286 C290 1.524 . S
C287 C279 1.503 . S
C287 C286 1.370 . S
C287 C288 1.403 . S
C288 C287 1.403 . S
C288 C289 1.404 . S
C288 C291 1.539 . S
C289 C285 1.408 . S
C289 C288 1.404 . S
C289 H301 0.930 . S
C290 C286 1.524 . S
C290 H302 0.956 . S
C290 H303 0.961 1_554 S
C290 H304 0.961 . S
C291 C288 1.539 . S
C291 H305 0.958 . S
C291 H306 0.961 1_554 S
C291 H307 0.960 1_554 S
H292 C276 0.931 . S
H293 C281 0.929 . S
H294 C282 0.960 . S
H295 C282 0.962 . S
H296 C282 0.960 . S
H297 C283 0.961 . S
H298 C283 0.961 . S
H299 C283 0.961 . S
H300 C284 0.931 . S
H301 C289 0.930 . S
H302 C290 0.956 . S
H303 C290 0.961 1_556 S
H304 C290 0.961 . S
H305 C291 0.958 . S
H306 C291 0.961 1_556 S
H307 C291 0.960 1_556 S
C308 C309 1.382 1_556 S
C308 C310 1.394 . S
C308 H324 0.931 . S
C309 C308 1.382 1_554 S
C309 C313 1.383 . S
C310 C308 1.394 . S
C310 C311 1.369 . S
C310 C314 1.531 . S
C311 C310 1.369 . S
C311 C312 1.410 1_556 S
C311 C319 1.503 . S
C312 C311 1.410 1_554 S
C312 C313 1.392 . S
C312 C315 1.511 . S
C313 C309 1.383 . S
C313 C312 1.392 . S
C313 H325 0.929 . S
C314 C310 1.531 . S
C314 H326 0.960 . S
C314 H327 0.962 . S
C314 H328 0.960 . S
C315 C312 1.511 . S
C315 H329 0.961 . S
C315 H330 0.961 . S
C315 H331 0.976 . S
C316 C317 1.370 1_554 S
C316 C318 1.363 . S
C316 H332 0.931 . S
C317 C316 1.370 1_556 S
C317 C321 1.408 . S
C318 C316 1.363 . S
C318 C319 1.370 1_554 S
C318 C322 1.524 . S
C319 C311 1.503 . S
C319 C318 1.370 1_556 S
C319 C320 1.403 . S
C320 C319 1.403 . S
C320 C321 1.404 . S
C320 C323 1.539 . S
C321 C317 1.408 . S
C321 C320 1.404 . S
C321 H333 0.930 . S
C322 C318 1.524 . S
C322 H334 0.956 . S
C322 H335 0.961 . S
C322 H336 0.961 . S
C323 C320 1.539 . S
C323 H337 0.958 . S
C323 H338 0.961 . S
C323 H339 0.960 . S
H324 C308 0.931 . S
H325 C313 0.929 . S
H326 C314 0.960 . S
H327 C314 0.962 . S
H328 C314 0.960 . S
H329 C315 0.961 . S
H330 C315 0.961 . S
H331 C315 0.976 . S
H332 C316 0.931 . S
H333 C321 0.930 . S
H334 C322 0.956 . S
H335 C322 0.961 . S
H336 C322 0.961 . S
H337 C323 0.958 . S
H338 C323 0.961 . S
H339 C323 0.960 . S
C340 C341 1.391 . S
C340 C342 1.394 . S
C340 H356 0.931 . S
C341 C340 1.391 . S
C341 C345 1.376 . S
C342 C340 1.394 . S
C342 C343 1.369 . S
C342 C346 1.531 . S
C343 C342 1.369 . S
C343 C344 1.410 . S
C343 C351 1.503 . S
C344 C343 1.410 . S
C344 C345 1.392 . S
C344 C347 1.511 . S
C345 C341 1.376 . S
C345 C344 1.392 . S
C345 H357 0.929 . S
C346 C342 1.531 . S
C346 H358 0.960 . S
C346 H359 0.962 . S
C346 H360 0.960 . S
C347 C344 1.511 . S
C347 H361 0.961 . S
C347 H362 0.961 . S
C347 H363 0.961 . S
C348 C349 1.370 . S
C348 C350 1.363 . S
C348 H364 0.931 . S
C349 C348 1.370 . S
C349 C353 1.408 . S
C350 C348 1.363 . S
C350 C351 1.370 . S
C350 C354 1.524 . S
C351 C343 1.503 . S
C351 C350 1.370 . S
C351 C352 1.403 . S
C352 C351 1.403 . S
C352 C353 1.404 . S
C352 C355 1.539 . S
C353 C349 1.408 . S
C353 C352 1.404 . S
C353 H365 0.930 . S
C354 C350 1.524 . S
C354 H366 0.956 . S
C354 H367 0.961 . S
C354 H368 0.961 . S
C355 C352 1.539 . S
C355 H369 0.958 . S
C355 H370 0.961 . S
C355 H371 0.960 . S
H356 C340 0.931 . S
H357 C345 0.929 . S
H358 C346 0.960 . S
H359 C346 0.962 . S
H360 C346 0.960 . S
H361 C347 0.961 . S
H362 C347 0.961 . S
H363 C347 0.961 . S
H364 C348 0.931 . S
H365 C353 0.930 . S
H366 C354 0.956 . S
H367 C354 0.961 . S
H368 C354 0.961 . S
H369 C355 0.958 . S
H370 C355 0.961 . S
H371 C355 0.960 . S
C372 C373 1.391 . S
C372 C374 1.394 . S
C372 H388 0.931 . S
C373 C372 1.391 . S
C373 C377 1.376 . S
C374 C372 1.394 . S
C374 C375 1.369 . S
C374 C378 1.531 . S
C375 C374 1.369 . S
C375 C376 1.410 . S
C375 C383 1.503 . S
C376 C375 1.410 . S
C376 C377 1.392 . S
C376 C379 1.511 . S
C377 C373 1.376 . S
C377 C376 1.392 . S
C377 H389 0.929 . S
C378 C374 1.531 . S
C378 H390 0.960 . S
C378 H391 0.962 . S
C378 H392 0.960 . S
C379 C376 1.511 . S
C379 H393 0.961 . S
C379 H394 0.961 . S
C379 H395 0.961 . S
C380 C381 1.370 . S
C380 C382 1.363 . S
C380 H396 0.931 . S
C381 C380 1.370 . S
C381 C385 1.408 . S
C382 C380 1.363 . S
C382 C383 1.370 . S
C382 C386 1.524 . S
C383 C375 1.503 . S
C383 C382 1.370 . S
C383 C384 1.403 . S
C384 C383 1.403 . S
C384 C385 1.404 . S
C384 C387 1.539 . S
C385 C381 1.408 . S
C385 C384 1.404 . S
C385 H397 0.930 . S
C386 C382 1.524 . S
C386 H398 0.956 . S
C386 H399 0.961 . S
C386 H400 0.961 . S
C387 C384 1.539 . S
C387 H401 0.958 . S
C387 H402 0.961 . S
C387 H403 0.960 . S
H388 C372 0.931 . S
H389 C377 0.929 . S
H390 C378 0.960 . S
H391 C378 0.962 . S
H392 C378 0.960 . S
H393 C379 0.961 . S
H394 C379 0.961 . S
H395 C379 0.961 . S
H396 C380 0.931 . S
H397 C385 0.930 . S
H398 C386 0.956 . S
H399 C386 0.961 . S
H400 C386 0.961 . S
H401 C387 0.958 . S
H402 C387 0.961 . S
H403 C387 0.960 . S
C404 C405 1.391 . S
C404 C406 1.394 . S
C404 H420 0.931 . S
C405 C404 1.391 . S
C405 C409 1.376 . S
C406 C404 1.394 . S
C406 C407 1.369 . S
C406 C410 1.531 . S
C407 C406 1.369 . S
C407 C408 1.410 . S
C407 C415 1.503 . S
C408 C407 1.410 . S
C408 C409 1.392 . S
C408 C411 1.511 . S
C409 C405 1.376 . S
C409 C408 1.392 . S
C409 H421 0.929 . S
C410 C406 1.531 . S
C410 H422 0.960 . S
C410 H423 0.962 . S
C410 H424 0.960 . S
C411 C408 1.511 . S
C411 H425 0.961 . S
C411 H426 0.961 . S
C411 H427 0.961 . S
C412 C413 1.370 . S
C412 C414 1.363 . S
C412 H428 0.931 . S
C413 C412 1.370 . S
C413 C417 1.408 . S
C414 C412 1.363 . S
C414 C415 1.370 . S
C414 C418 1.524 . S
C415 C407 1.503 . S
C415 C414 1.370 . S
C415 C416 1.403 . S
C416 C415 1.403 . S
C416 C417 1.404 . S
C416 C419 1.539 . S
C417 C413 1.408 . S
C417 C416 1.404 . S
C417 H429 0.930 . S
C418 C414 1.524 . S
C418 H430 0.956 . S
C418 H431 0.961 . S
C418 H432 0.961 . S
C419 C416 1.539 . S
C419 H433 0.958 . S
C419 H434 0.961 . S
C419 H435 0.960 . S
H420 C404 0.931 . S
H421 C409 0.929 . S
H422 C410 0.960 . S
H423 C410 0.962 . S
H424 C410 0.960 . S
H425 C411 0.961 . S
H426 C411 0.961 . S
H427 C411 0.961 . S
H428 C412 0.931 . S
H429 C417 0.930 . S
H430 C418 0.956 . S
H431 C418 0.961 . S
H432 C418 0.961 . S
H433 C419 0.958 . S
H434 C419 0.961 . S
H435 C419 0.960 . S
C436 C437 1.391 . S
C436 C438 1.394 . S
C436 H452 0.931 . S
C437 C436 1.391 . S
C437 C441 1.376 . S
C438 C436 1.394 . S
C438 C439 1.369 . S
C438 C442 1.531 . S
C439 C438 1.369 . S
C439 C440 1.410 . S
C439 C447 1.503 . S
C440 C439 1.410 . S
C440 C441 1.392 . S
C440 C443 1.511 . S
C441 C437 1.376 . S
C441 C440 1.392 . S
C441 H453 0.929 . S
C442 C438 1.531 . S
C442 H454 0.960 . S
C442 H455 0.962 . S
C442 H456 0.960 . S
C443 C440 1.511 . S
C443 H457 0.961 . S
C443 H458 0.961 . S
C443 H459 0.961 . S
C444 C445 1.370 . S
C444 C446 1.363 . S
C444 H460 0.931 . S
C445 C444 1.370 . S
C445 C449 1.408 . S
C446 C444 1.363 . S
C446 C447 1.370 . S
C446 C450 1.524 . S
C447 C439 1.503 . S
C447 C446 1.370 . S
C447 C448 1.403 . S
C448 C447 1.403 . S
C448 C449 1.404 . S
C448 C451 1.539 . S
C449 C445 1.408 . S
C449 C448 1.404 . S
C449 H461 0.930 . S
C450 C446 1.524 . S
C450 H462 0.956 . S
C450 H463 0.961 . S
C450 H464 0.961 . S
C451 C448 1.539 . S
C451 H465 0.958 . S
C451 H466 0.961 . S
C451 H467 0.960 . S
H452 C436 0.931 . S
H453 C441 0.929 . S
H454 C442 0.960 . S
H455 C442 0.962 . S
H456 C442 0.960 . S
H457 C443 0.961 . S
H458 C443 0.961 . S
H459 C443 0.961 . S
H460 C444 0.931 . S
H461 C449 0.930 . S
H462 C450 0.956 . S
H463 C450 0.961 . S
H464 C450 0.961 . S
H465 C451 0.958 . S
H466 C451 0.961 . S
H467 C451 0.960 . S
C468 C469 1.391 . S
C468 C470 1.394 . S
C468 H484 0.931 . S
C469 C468 1.391 . S
C469 C473 1.376 1_445 S
C470 C468 1.394 . S
C470 C471 1.366 1_455 S
C470 C474 1.531 . S
C471 C470 1.366 1_655 S
C471 C472 1.411 1_545 S
C471 C479 1.503 . S
C472 C471 1.411 1_565 S
C472 C473 1.392 . S
C472 C475 1.513 . S
C473 C469 1.376 1_665 S
C473 C472 1.392 . S
C473 H485 0.929 . S
C474 C470 1.531 . S
C474 H486 0.960 . S
C474 H487 0.962 . S
C474 H488 0.960 . S
C475 C472 1.513 . S
C475 H489 0.961 . S
C475 H490 0.961 . S
C475 H491 0.961 1_565 S
C476 C477 1.370 1_465 S
C476 C478 1.363 . S
C476 H492 0.931 . S
C477 C476 1.370 1_645 S
C477 C481 1.408 . S
C478 C476 1.363 . S
C478 C479 1.366 1_465 S
C478 C482 1.524 . S
C479 C471 1.503 . S
C479 C478 1.366 1_645 S
C479 C480 1.408 . S
C480 C479 1.408 . S
C480 C481 1.404 . S
C480 C483 1.539 . S
C481 C477 1.408 . S
C481 C480 1.404 . S
C481 H493 0.930 . S
C482 C478 1.524 . S
C482 H494 0.956 . S
C482 H495 0.961 . S
C482 H496 0.961 . S
C483 C480 1.539 . S
C483 H497 0.958 . S
C483 H498 0.961 . S
C483 H499 0.960 . S
H484 C468 0.931 . S
H485 C473 0.929 . S
H486 C474 0.960 . S
H487 C474 0.962 . S
H488 C474 0.960 . S
H489 C475 0.961 . S
H490 C475 0.961 . S
H491 C475 0.961 1_545 S
H492 C476 0.931 . S
H493 C481 0.930 . S
H494 C482 0.956 . S
H495 C482 0.961 . S
H496 C482 0.961 . S
H497 C483 0.958 . S
H498 C483 0.961 . S
H499 C483 0.960 . S
C500 C501 1.391 1_565 S
C500 C502 1.394 . S
C500 H516 0.931 . S
C501 C500 1.391 1_545 S
C501 C505 1.376 1_455 S
C502 C500 1.394 . S
C502 C503 1.369 1_565 S
C502 C506 1.531 . S
C503 C502 1.369 1_545 S
C503 C504 1.410 1_455 S
C503 C511 1.503 . S
C504 C503 1.410 1_655 S
C504 C505 1.392 . S
C504 C507 1.511 . S
C505 C501 1.376 1_655 S
C505 C504 1.392 . S
C505 H517 0.929 . S
C506 C502 1.531 . S
C506 H518 0.960 . S
C506 H519 0.962 . S
C506 H520 0.960 . S
C507 C504 1.511 . S
C507 H521 0.961 . S
C507 H522 0.961 . S
C507 H523 0.961 . S
C508 C509 1.370 . S
C508 C510 1.363 . S
C508 H524 0.931 . S
C509 C508 1.370 . S
C509 C513 1.408 1_445 S
C510 C508 1.363 . S
C510 C511 1.370 . S
C510 C514 1.524 . S
C511 C503 1.503 . S
C511 C510 1.370 . S
C511 C512 1.403 1_445 S
C512 C511 1.403 1_665 S
C512 C513 1.404 . S
C512 C515 1.539 . S
C513 C509 1.408 1_665 S
C513 C512 1.404 . S
C513 H525 0.930 . S
C514 C510 1.524 . S
C514 H526 0.956 . S
C514 H527 0.961 . S
C514 H528 0.961 . S
C515 C512 1.539 . S
C515 H529 0.958 . S
C515 H530 0.961 . S
C515 H531 0.960 . S
H516 C500 0.931 . S
H517 C505 0.929 . S
H518 C506 0.960 . S
H519 C506 0.962 . S
H520 C506 0.960 . S
H521 C507 0.961 . S
H522 C507 0.961 . S
H523 C507 0.961 . S
H524 C508 0.931 . S
H525 C513 0.930 . S
H526 C514 0.956 . S
H527 C514 0.961 . S
H528 C514 0.961 . S
H529 C515 0.958 . S
H530 C515 0.961 . S
H531 C515 0.960 . S
C532 C533 1.391 . S
C532 C534 1.394 . S
C532 H548 0.931 . S
C533 C532 1.391 . S
C533 C537 1.376 . S
C534 C532 1.394 . S
C534 C535 1.369 . S
C534 C538 1.531 . S
C535 C534 1.369 . S
C535 C536 1.410 . S
C535 C543 1.503 . S
C536 C535 1.410 . S
C536 C537 1.392 . S
C536 C539 1.511 . S
C537 C533 1.376 . S
C537 C536 1.392 . S
C537 H549 0.929 . S
C538 C534 1.531 . S
C538 H550 0.960 . S
C538 H551 0.962 . S
C538 H552 0.960 . S
C539 C536 1.511 . S
C539 H553 0.961 . S
C539 H554 0.961 . S
C539 H555 0.961 . S
C540 C541 1.370 . S
C540 C542 1.363 . S
C540 H556 0.931 . S
C541 C540 1.370 . S
C541 C545 1.408 . S
C542 C540 1.363 . S
C542 C543 1.370 . S
C542 C546 1.524 . S
C543 C535 1.503 . S
C543 C542 1.370 . S
C543 C544 1.403 . S
C544 C543 1.403 . S
C544 C545 1.404 . S
C544 C547 1.539 . S
C545 C541 1.408 . S
C545 C544 1.404 . S
C545 H557 0.930 . S
C546 C542 1.524 . S
C546 H558 0.956 . S
C546 H559 0.961 . S
C546 H560 0.961 . S
C547 C544 1.539 . S
C547 H561 0.958 . S
C547 H562 0.961 . S
C547 H563 0.960 . S
H548 C532 0.931 . S
H549 C537 0.929 . S
H550 C538 0.960 . S
H551 C538 0.962 . S
H552 C538 0.960 . S
H553 C539 0.961 . S
H554 C539 0.961 . S
H555 C539 0.961 . S
H556 C540 0.931 . S
H557 C545 0.930 . S
H558 C546 0.956 . S
H559 C546 0.961 . S
H560 C546 0.961 . S
H561 C547 0.958 . S
H562 C547 0.961 . S
H563 C547 0.960 . S
C564 C565 1.391 . S
C564 C566 1.394 . S
C564 H580 0.931 . S
C565 C564 1.391 . S
C565 C569 1.376 . S
C566 C564 1.394 . S
C566 C567 1.369 . S
C566 C570 1.531 . S
C567 C566 1.369 . S
C567 C568 1.410 . S
C567 C575 1.503 . S
C568 C567 1.410 . S
C568 C569 1.392 . S
C568 C571 1.511 . S
C569 C565 1.376 . S
C569 C568 1.392 . S
C569 H581 0.929 . S
C570 C566 1.531 . S
C570 H582 0.960 . S
C570 H583 0.962 . S
C570 H584 0.960 . S
C571 C568 1.511 . S
C571 H585 0.961 . S
C571 H586 0.961 . S
C571 H587 0.961 . S
C572 C573 1.370 . S
C572 C574 1.363 . S
C572 H588 0.931 . S
C573 C572 1.370 . S
C573 C577 1.408 . S
C574 C572 1.363 . S
C574 C575 1.370 . S
C574 C578 1.524 . S
C575 C567 1.503 . S
C575 C574 1.370 . S
C575 C576 1.403 . S
C576 C575 1.403 . S
C576 C577 1.404 . S
C576 C579 1.539 . S
C577 C573 1.408 . S
C577 C576 1.404 . S
C577 H589 0.930 . S
C578 C574 1.524 . S
C578 H590 0.956 . S
C578 H591 0.961 . S
C578 H592 0.961 . S
C579 C576 1.539 . S
C579 H593 0.958 . S
C579 H594 0.961 . S
C579 H595 0.960 . S
H580 C564 0.931 . S
H581 C569 0.929 . S
H582 C570 0.960 . S
H583 C570 0.962 . S
H584 C570 0.960 . S
H585 C571 0.961 . S
H586 C571 0.961 . S
H587 C571 0.961 . S
H588 C572 0.931 . S
H589 C577 0.930 . S
H590 C578 0.956 . S
H591 C578 0.961 . S
H592 C578 0.961 . S
H593 C579 0.958 . S
H594 C579 0.961 . S
H595 C579 0.960 . S
C221 C177 1.450 . S
C213 C29 1.490 . S
C245 C8 1.474 . S
C253 C141 1.463 . S
C277 C0 1.466 . S
C285 C201 1.419 . S
C309 C17 1.477 . S
C317 C165 1.416 . S
C341 C63 1.496 . S
C349 C105 1.461 . S
C373 C42 1.476 . S
C381 C69 1.456 . S
C413 C129 1.400 . S
C405 C34 1.466 . S
C445 C93 1.412 . S
C437 C51 1.489 . S
C469 C4 1.477 . S
C477 C99 1.479 1_655 S
C501 C13 1.473 . S
C509 C135 1.480 . S
C541 C171 1.485 . S
C533 C38 1.486 . S
C565 C47 1.486 . S
C573 C207 1.483 . S
