# Generated by pormake.
# Topology bwt, (3,3)-cn, num edge types: 1
# Building blocks:
#     Node 0, Type 0, BuildingBlock: OLANEW_clean_sbu_2, # of connection points: 3
#     Node 1, Type 0, BuildingBlock: OLANEW_clean_sbu_2, # of connection points: 3
#     Node 2, Type 0, BuildingBlock: OLANEW_clean_sbu_2, # of connection points: 3
#     Node 3, Type 0, BuildingBlock: OLANEW_clean_sbu_2, # of connection points: 3
#     Node 4, Type 0, BuildingBlock: OLANEW_clean_sbu_2, # of connection points: 3
#     Node 5, Type 0, BuildingBlock: OLANEW_clean_sbu_2, # of connection points: 3
#     Node 6, Type 0, BuildingBlock: OLANEW_clean_sbu_2, # of connection points: 3
#     Node 7, Type 0, BuildingBlock: OLANEW_clean_sbu_2, # of connection points: 3
#     Node 8, Type 0, BuildingBlock: OLANEW_clean_sbu_2, # of connection points: 3
#     Node 9, Type 0, BuildingBlock: OLANEW_clean_sbu_2, # of connection points: 3
#     Node 10, Type 0, BuildingBlock: OLANEW_clean_sbu_2, # of connection points: 3
#     Node 11, Type 0, BuildingBlock: OLANEW_clean_sbu_2, # of connection points: 3
#     Node 12, Type 0, BuildingBlock: OLANEW_clean_sbu_2, # of connection points: 3
#     Node 13, Type 0, BuildingBlock: OLANEW_clean_sbu_2, # of connection points: 3
#     Node 14, Type 0, BuildingBlock: OLANEW_clean_sbu_2, # of connection points: 3
#     Node 15, Type 0, BuildingBlock: OLANEW_clean_sbu_2, # of connection points: 3
#     Node 16, Type 0, BuildingBlock: OLANEW_clean_sbu_2, # of connection points: 3
#     Node 17, Type 0, BuildingBlock: OLANEW_clean_sbu_2, # of connection points: 3
#     Node 18, Type 0, BuildingBlock: OLANEW_clean_sbu_2, # of connection points: 3
#     Node 19, Type 0, BuildingBlock: OLANEW_clean_sbu_2, # of connection points: 3
#     Node 20, Type 0, BuildingBlock: OLANEW_clean_sbu_2, # of connection points: 3
#     Node 21, Type 0, BuildingBlock: OLANEW_clean_sbu_2, # of connection points: 3
#     Node 22, Type 0, BuildingBlock: OLANEW_clean_sbu_2, # of connection points: 3
#     Node 23, Type 0, BuildingBlock: OLANEW_clean_sbu_2, # of connection points: 3
#     Node 24, Type 1, BuildingBlock: BETDIP_clean_linker_0, # of connection points: 3
#     Node 25, Type 1, BuildingBlock: BETDIP_clean_linker_0, # of connection points: 3
#     Node 26, Type 1, BuildingBlock: BETDIP_clean_linker_0, # of connection points: 3
#     Node 27, Type 1, BuildingBlock: BETDIP_clean_linker_0, # of connection points: 3
#     Node 28, Type 1, BuildingBlock: BETDIP_clean_linker_0, # of connection points: 3
#     Node 29, Type 1, BuildingBlock: BETDIP_clean_linker_0, # of connection points: 3
#     Node 30, Type 1, BuildingBlock: BETDIP_clean_linker_0, # of connection points: 3
#     Node 31, Type 1, BuildingBlock: BETDIP_clean_linker_0, # of connection points: 3
#     Node 32, Type 1, BuildingBlock: BETDIP_clean_linker_0, # of connection points: 3
#     Node 33, Type 1, BuildingBlock: BETDIP_clean_linker_0, # of connection points: 3
#     Node 34, Type 1, BuildingBlock: BETDIP_clean_linker_0, # of connection points: 3
#     Node 35, Type 1, BuildingBlock: BETDIP_clean_linker_0, # of connection points: 3
#     Node 36, Type 1, BuildingBlock: BETDIP_clean_linker_0, # of connection points: 3
#     Node 37, Type 1, BuildingBlock: BETDIP_clean_linker_0, # of connection points: 3
#     Node 38, Type 1, BuildingBlock: BETDIP_clean_linker_0, # of connection points: 3
#     Node 39, Type 1, BuildingBlock: BETDIP_clean_linker_0, # of connection points: 3
#     Node 40, Type 1, BuildingBlock: BETDIP_clean_linker_0, # of connection points: 3
#     Node 41, Type 1, BuildingBlock: BETDIP_clean_linker_0, # of connection points: 3
#     Node 42, Type 1, BuildingBlock: BETDIP_clean_linker_0, # of connection points: 3
#     Node 43, Type 1, BuildingBlock: BETDIP_clean_linker_0, # of connection points: 3
#     Node 44, Type 1, BuildingBlock: BETDIP_clean_linker_0, # of connection points: 3
#     Node 45, Type 1, BuildingBlock: BETDIP_clean_linker_0, # of connection points: 3
#     Node 46, Type 1, BuildingBlock: BETDIP_clean_linker_0, # of connection points: 3
#     Node 47, Type 1, BuildingBlock: BETDIP_clean_linker_0, # of connection points: 3
#     Edge 48, Type (0, 1), None
#     Edge 49, Type (0, 1), None
#     Edge 50, Type (0, 1), None
#     Edge 51, Type (0, 1), None
#     Edge 52, Type (0, 1), None
#     Edge 53, Type (0, 1), None
#     Edge 54, Type (0, 1), None
#     Edge 55, Type (0, 1), None
#     Edge 56, Type (0, 1), None
#     Edge 57, Type (0, 1), None
#     Edge 58, Type (0, 1), None
#     Edge 59, Type (0, 1), None
#     Edge 60, Type (0, 1), None
#     Edge 61, Type (0, 1), None
#     Edge 62, Type (0, 1), None
#     Edge 63, Type (0, 1), None
#     Edge 64, Type (0, 1), None
#     Edge 65, Type (0, 1), None
#     Edge 66, Type (0, 1), None
#     Edge 67, Type (0, 1), None
#     Edge 68, Type (0, 1), None
#     Edge 69, Type (0, 1), None
#     Edge 70, Type (0, 1), None
#     Edge 71, Type (0, 1), None
#     Edge 72, Type (0, 1), None
#     Edge 73, Type (0, 1), None
#     Edge 74, Type (0, 1), None
#     Edge 75, Type (0, 1), None
#     Edge 76, Type (0, 1), None
#     Edge 77, Type (0, 1), None
#     Edge 78, Type (0, 1), None
#     Edge 79, Type (0, 1), None
#     Edge 80, Type (0, 1), None
#     Edge 81, Type (0, 1), None
#     Edge 82, Type (0, 1), None
#     Edge 83, Type (0, 1), None
#     Edge 84, Type (0, 1), None
#     Edge 85, Type (0, 1), None
#     Edge 86, Type (0, 1), None
#     Edge 87, Type (0, 1), None
#     Edge 88, Type (0, 1), None
#     Edge 89, Type (0, 1), None
#     Edge 90, Type (0, 1), None
#     Edge 91, Type (0, 1), None
#     Edge 92, Type (0, 1), None
#     Edge 93, Type (0, 1), None
#     Edge 94, Type (0, 1), None
#     Edge 95, Type (0, 1), None
#     Edge 96, Type (0, 1), None
#     Edge 97, Type (0, 1), None
#     Edge 98, Type (0, 1), None
#     Edge 99, Type (0, 1), None
#     Edge 100, Type (0, 1), None
#     Edge 101, Type (0, 1), None
#     Edge 102, Type (0, 1), None
#     Edge 103, Type (0, 1), None
#     Edge 104, Type (0, 1), None
#     Edge 105, Type (0, 1), None
#     Edge 106, Type (0, 1), None
#     Edge 107, Type (0, 1), None
#     Edge 108, Type (0, 1), None
#     Edge 109, Type (0, 1), None
#     Edge 110, Type (0, 1), None
#     Edge 111, Type (0, 1), None
#     Edge 112, Type (0, 1), None
#     Edge 113, Type (0, 1), None
#     Edge 114, Type (0, 1), None
#     Edge 115, Type (0, 1), None
#     Edge 116, Type (0, 1), None
#     Edge 117, Type (0, 1), None
#     Edge 118, Type (0, 1), None
#     Edge 119, Type (0, 1), None
# Relax obj value: 0.039
# Max RMSD: 0.115
# Mean RMSD: 0.071
data_MOF--net-bwt--node1-OLANEW_clean_sbu_2--node2-BETDIP_clean_linker_0--edge1-none
_symmetry_space_group_name_H-M    P1
_symmetry_Int_Tables_number       1
_symmetry_cell_setting            triclinic
loop_
_symmetry_equiv_pos_as_xyz
'x, y, z'
_cell_length_a     28.127198
_cell_length_b     28.127337
_cell_length_c     28.127236
_cell_angle_alpha  92.641207
_cell_angle_beta   92.639619
_cell_angle_gamma 92.641183
loop_
_atom_site_label
_atom_site_type_symbol
_atom_site_fract_x
_atom_site_fract_y
_atom_site_fract_z
_atom_type_partial_charge
O0 O 0.2997 0.56652 0.37479 0.0
Cd1 Cd 0.30285 0.57247 0.28832 0.0
O2 O 0.31643 0.64245 0.39285 0.0
Cd3 Cd 0.34385 0.64881 0.32194 0.0
O4 O 0.40558 0.62844 0.28254 0.0
C5 C 0.42562 0.59234 0.29814 0.0
O6 O 0.40692 0.56985 0.33321 0.0
C7 C 0.30399 0.60113 0.40567 0.0
C8 C 0.21778 0.53235 0.24578 0.0
O9 O 0.25335 0.50692 0.25527 0.0
O10 O 0.22272 0.57738 0.25518 0.0
O11 O 0.22581 0.41057 0.85915 0.0
Cd12 Cd 0.21791 0.3976 0.77273 0.0
O13 O 0.20753 0.33723 0.87832 0.0
Cd14 Cd 0.17614 0.3222 0.80646 0.0
O15 O 0.11975 0.34172 0.75597 0.0
C16 C 0.10615 0.38362 0.76408 0.0
O17 O 0.12643 0.40993 0.79984 0.0
C18 C 0.22212 0.3797 0.89055 0.0
C19 C 0.29448 0.44685 0.73519 0.0
O20 O 0.29599 0.40218 0.74197 0.0
O21 O 0.25629 0.46773 0.74477 0.0
O22 O 0.72202 0.94255 0.62585 0.0
Cd23 Cd 0.73712 0.945 0.71294 0.0
O24 O 0.76041 0.01195 0.6209 0.0
Cd25 Cd 0.79053 0.01548 0.6937 0.0
O26 O 0.84872 0.01983 0.74774 0.0
C27 C 0.87895 0.98776 0.74543 0.0
O28 O 0.87237 0.95257 0.71312 0.0
C29 C 0.7356 0.97695 0.60109 0.0
C30 C 0.67457 0.00226 0.76176 0.0
O31 O 0.66568 0.95729 0.75489 0.0
O32 O 0.71296 0.02014 0.74568 0.0
O33 O 0.7226 0.04149 0.12406 0.0
Cd34 Cd 0.70641 0.04055 0.20876 0.0
O35 O 0.69545 0.1108 0.10548 0.0
Cd36 Cd 0.6591 0.11849 0.17236 0.0
O37 O 0.59573 0.11187 0.2145 0.0
C38 C 0.57444 0.07098 0.21222 0.0
O39 O 0.59246 0.03604 0.1874 0.0
C40 C 0.71668 0.0733 0.09393 0.0
C41 C 0.78231 0.99649 0.25378 0.0
O42 O 0.74601 0.97194 0.23534 0.0
O43 O 0.782 0.04197 0.25244 0.0
O44 O 0.37478 0.2997 0.56653 0.0
Cd45 Cd 0.28831 0.30284 0.57248 0.0
O46 O 0.39283 0.31643 0.64245 0.0
Cd47 Cd 0.32193 0.34385 0.64882 0.0
O48 O 0.28253 0.40558 0.62845 0.0
C49 C 0.29813 0.42563 0.59235 0.0
O50 O 0.3332 0.40693 0.56986 0.0
C51 C 0.40565 0.30399 0.60113 0.0
C52 C 0.24576 0.21778 0.53236 0.0
O53 O 0.25525 0.25335 0.50693 0.0
O54 O 0.25517 0.22272 0.57739 0.0
O55 O 0.12404 0.72261 0.04149 0.0
Cd56 Cd 0.20873 0.70643 0.04055 0.0
O57 O 0.10546 0.69546 0.1108 0.0
Cd58 Cd 0.17234 0.65911 0.11849 0.0
O59 O 0.21448 0.59574 0.11187 0.0
C60 C 0.2122 0.57445 0.07098 0.0
O61 O 0.18738 0.59246 0.03604 0.0
C62 C 0.0939 0.71668 0.0733 0.0
C63 C 0.25376 0.78233 0.99649 0.0
O64 O 0.23531 0.74603 0.97194 0.0
O65 O 0.25242 0.78201 0.04197 0.0
O66 O 0.85915 0.2258 0.41056 0.0
Cd67 Cd 0.77272 0.2179 0.39758 0.0
O68 O 0.87832 0.20752 0.33722 0.0
Cd69 Cd 0.80646 0.17612 0.32218 0.0
O70 O 0.75596 0.11974 0.34171 0.0
C71 C 0.76408 0.10614 0.38361 0.0
O72 O 0.79984 0.12642 0.40992 0.0
C73 C 0.89055 0.22212 0.37968 0.0
C74 C 0.73518 0.29447 0.44684 0.0
O75 O 0.74196 0.29598 0.40217 0.0
O76 O 0.74476 0.25628 0.46771 0.0
O77 O 0.62587 0.72202 0.94257 0.0
Cd78 Cd 0.71296 0.73712 0.94501 0.0
O79 O 0.62092 0.76041 0.01196 0.0
Cd80 Cd 0.69372 0.79053 0.01549 0.0
O81 O 0.74775 0.84874 0.01983 0.0
C82 C 0.74543 0.87896 0.98776 0.0
O83 O 0.71313 0.87238 0.95258 0.0
C84 C 0.60111 0.7356 0.97696 0.0
C85 C 0.76177 0.67458 0.00227 0.0
O86 O 0.75491 0.66569 0.9573 0.0
O87 O 0.74569 0.71297 0.02015 0.0
O88 O 0.56652 0.37478 0.29971 0.0
Cd89 Cd 0.57247 0.28832 0.30285 0.0
O90 O 0.64245 0.39284 0.31644 0.0
Cd91 Cd 0.64881 0.32193 0.34385 0.0
O92 O 0.62844 0.28254 0.40558 0.0
C93 C 0.59234 0.29813 0.42563 0.0
O94 O 0.56985 0.33321 0.40693 0.0
C95 C 0.60113 0.40566 0.30399 0.0
C96 C 0.53234 0.24577 0.21778 0.0
O97 O 0.50692 0.25526 0.25335 0.0
O98 O 0.57737 0.25517 0.22272 0.0
O99 O 0.04148 0.12406 0.7226 0.0
Cd100 Cd 0.04054 0.20876 0.70641 0.0
O101 O 0.11079 0.10548 0.69545 0.0
Cd102 Cd 0.11849 0.17236 0.65909 0.0
O103 O 0.11187 0.21449 0.59573 0.0
C104 C 0.07098 0.21221 0.57443 0.0
O105 O 0.03604 0.18738 0.59245 0.0
C106 C 0.0733 0.09393 0.71667 0.0
C107 C 0.99648 0.25378 0.78232 0.0
O108 O 0.97193 0.23534 0.74602 0.0
O109 O 0.04196 0.25244 0.782 0.0
O110 O 0.41057 0.85914 0.22582 0.0
Cd111 Cd 0.3976 0.77272 0.21793 0.0
O112 O 0.33723 0.87831 0.20754 0.0
Cd113 Cd 0.3222 0.80645 0.17614 0.0
O114 O 0.34173 0.75596 0.11976 0.0
C115 C 0.38363 0.76407 0.10616 0.0
O116 O 0.40994 0.79983 0.12645 0.0
C117 C 0.37969 0.89054 0.22214 0.0
C118 C 0.44685 0.73517 0.29449 0.0
O119 O 0.40218 0.74195 0.296 0.0
O120 O 0.46773 0.74476 0.2563 0.0
O121 O 0.94254 0.62584 0.72202 0.0
Cd122 Cd 0.94498 0.71293 0.73712 0.0
O123 O 0.01193 0.62089 0.76042 0.0
Cd124 Cd 0.01545 0.69369 0.79053 0.0
O125 O 0.0198 0.74773 0.84873 0.0
C126 C 0.98773 0.74541 0.87896 0.0
O127 O 0.95254 0.71311 0.87238 0.0
C128 C 0.97694 0.60108 0.7356 0.0
C129 C 0.00224 0.76175 0.67458 0.0
O130 O 0.95727 0.75488 0.66569 0.0
O131 O 0.02011 0.74567 0.71297 0.0
O132 O 0.7701 0.37504 0.61464 0.0
Cd133 Cd 0.79745 0.39243 0.69741 0.0
O134 O 0.70512 0.41198 0.62927 0.0
Cd135 Cd 0.63469 0.43799 0.61202 0.0
O136 O 0.56525 0.46932 0.60961 0.0
C137 C 0.53075 0.44801 0.6286 0.0
O138 O 0.53707 0.40697 0.64784 0.0
C139 C 0.73023 0.38971 0.59999 0.0
C140 C 0.88444 0.44489 0.7052 0.0
O141 O 0.88267 0.39921 0.70333 0.0
O142 O 0.84494 0.46587 0.70304 0.0
O143 O 0.75768 0.63438 0.17784 0.0
Cd144 Cd 0.73832 0.63625 0.26173 0.0
O145 O 0.82014 0.59359 0.1942 0.0
Cd146 Cd 0.88606 0.55492 0.18977 0.0
O147 O 0.94025 0.52029 0.23307 0.0
C148 C 0.98445 0.51839 0.226 0.0
O149 O 0.01226 0.50055 0.25869 0.0
C150 C 0.79363 0.613 0.16351 0.0
C151 C 0.66222 0.57208 0.27633 0.0
O152 O 0.65504 0.61554 0.26745 0.0
O153 O 0.70535 0.55919 0.27861 0.0
O154 O 0.25679 0.1326 0.36804 0.0
Cd155 Cd 0.27005 0.12397 0.28281 0.0
O156 O 0.19523 0.08178 0.36085 0.0
Cd157 Cd 0.13122 0.04314 0.38249 0.0
O158 O 0.06346 0.00247 0.3841 0.0
C159 C 0.02675 0.01966 0.36488 0.0
O160 O 0.03026 0.06155 0.34625 0.0
C161 C 0.22282 0.11016 0.387 0.0
C162 C 0.33871 0.05862 0.26205 0.0
O163 O 0.35057 0.10287 0.27048 0.0
O164 O 0.29458 0.04553 0.26367 0.0
O165 O 0.22831 0.85223 0.8317 0.0
Cd166 Cd 0.20258 0.86522 0.74916 0.0
O167 O 0.28055 0.9116 0.82779 0.0
Cd168 Cd 0.33947 0.96398 0.84656 0.0
O169 O 0.39897 0.01702 0.85033 0.0
C170 C 0.44092 0.00306 0.85692 0.0
O171 O 0.4473 0.95774 0.86297 0.0
C172 C 0.26146 0.8792 0.85192 0.0
C173 C 0.1307 0.93031 0.74532 0.0
O174 O 0.12106 0.88569 0.74904 0.0
O175 O 0.17452 0.9443 0.74299 0.0
O176 O 0.61465 0.77009 0.37506 0.0
Cd177 Cd 0.69741 0.79744 0.39246 0.0
O178 O 0.62928 0.70511 0.412 0.0
Cd179 Cd 0.61203 0.63468 0.43801 0.0
O180 O 0.60961 0.56524 0.46933 0.0
C181 C 0.62861 0.53073 0.44802 0.0
O182 O 0.64785 0.53706 0.40698 0.0
C183 C 0.6 0.73022 0.38974 0.0
C184 C 0.70521 0.88443 0.44491 0.0
O185 O 0.70333 0.88266 0.39923 0.0
O186 O 0.70304 0.84495 0.46589 0.0
O187 O 0.83169 0.22833 0.85223 0.0
Cd188 Cd 0.74916 0.20258 0.86521 0.0
O189 O 0.82779 0.28056 0.9116 0.0
Cd190 Cd 0.84656 0.33947 0.96398 0.0
O191 O 0.85032 0.39897 0.01702 0.0
C192 C 0.85692 0.44093 0.00307 0.0
O193 O 0.86298 0.4473 0.95775 0.0
C194 C 0.85191 0.26148 0.8792 0.0
C195 C 0.74532 0.13071 0.93032 0.0
O196 O 0.74904 0.12107 0.88569 0.0
O197 O 0.74298 0.17453 0.94429 0.0
O198 O 0.17781 0.75767 0.63438 0.0
Cd199 Cd 0.26171 0.73831 0.63626 0.0
O200 O 0.19417 0.82013 0.59359 0.0
Cd201 Cd 0.18975 0.88605 0.55493 0.0
O202 O 0.23305 0.94025 0.52031 0.0
C203 C 0.22598 0.98444 0.51841 0.0
O204 O 0.25868 0.01226 0.50057 0.0
C205 C 0.16349 0.79362 0.61301 0.0
C206 C 0.27631 0.66222 0.57209 0.0
O207 O 0.26743 0.65503 0.61555 0.0
O208 O 0.2786 0.70535 0.5592 0.0
O209 O 0.36803 0.25681 0.13261 0.0
Cd210 Cd 0.2828 0.27007 0.12399 0.0
O211 O 0.36083 0.19525 0.08179 0.0
Cd212 Cd 0.38247 0.13123 0.04315 0.0
O213 O 0.38407 0.06348 0.00248 0.0
C214 C 0.36485 0.02676 0.01966 0.0
O215 O 0.34622 0.03028 0.06156 0.0
C216 C 0.38698 0.22284 0.11017 0.0
C217 C 0.26204 0.33872 0.05864 0.0
O218 O 0.27047 0.35059 0.10288 0.0
O219 O 0.26366 0.2946 0.04554 0.0
O220 O 0.37507 0.61464 0.77011 0.0
Cd221 Cd 0.39247 0.6974 0.79746 0.0
O222 O 0.41201 0.62927 0.70513 0.0
Cd223 Cd 0.43802 0.61202 0.6347 0.0
O224 O 0.46934 0.6096 0.56525 0.0
C225 C 0.44802 0.62859 0.53075 0.0
O226 O 0.40699 0.64783 0.53708 0.0
C227 C 0.38974 0.59999 0.73024 0.0
C228 C 0.44493 0.7052 0.88445 0.0
O229 O 0.39925 0.70332 0.88268 0.0
O230 O 0.46591 0.70303 0.84496 0.0
O231 O 0.85221 0.8317 0.22833 0.0
Cd232 Cd 0.86519 0.74916 0.20259 0.0
O233 O 0.91158 0.82779 0.28056 0.0
Cd234 Cd 0.96396 0.84656 0.33948 0.0
O235 O 0.017 0.85032 0.39898 0.0
C236 C 0.00304 0.85691 0.44093 0.0
O237 O 0.95772 0.86297 0.44731 0.0
C238 C 0.87918 0.85192 0.26148 0.0
C239 C 0.93029 0.74532 0.13071 0.0
O240 O 0.88566 0.74904 0.12108 0.0
O241 O 0.94427 0.74298 0.17453 0.0
O242 O 0.63437 0.17783 0.75768 0.0
Cd243 Cd 0.63625 0.26172 0.73832 0.0
O244 O 0.59358 0.19419 0.82013 0.0
Cd245 Cd 0.55492 0.18976 0.88606 0.0
O246 O 0.52029 0.23307 0.94025 0.0
C247 C 0.51839 0.22599 0.98445 0.0
O248 O 0.50055 0.25869 0.01226 0.0
C249 C 0.613 0.1635 0.79362 0.0
C250 C 0.57208 0.27632 0.66222 0.0
O251 O 0.61554 0.26744 0.65504 0.0
O252 O 0.55919 0.27861 0.70535 0.0
O253 O 0.13261 0.36803 0.2568 0.0
Cd254 Cd 0.12399 0.2828 0.27005 0.0
O255 O 0.08179 0.36084 0.19524 0.0
Cd256 Cd 0.04314 0.38248 0.13122 0.0
O257 O 0.00247 0.38409 0.06347 0.0
C258 C 0.01966 0.36487 0.02675 0.0
O259 O 0.06156 0.34624 0.03027 0.0
C260 C 0.11017 0.38698 0.22282 0.0
C261 C 0.05863 0.26203 0.33871 0.0
O262 O 0.10288 0.27047 0.35057 0.0
O263 O 0.04554 0.26366 0.29458 0.0
H264 H 0.28014 0.56829 0.59009 0.0
H265 H 0.30252 0.5163 0.44751 0.0
H266 H 0.28972 0.66645 0.47737 0.0
H267 H 0.25488 0.4894 0.59913 0.0
C268 C 0.27971 0.47083 0.57737 0.0
C269 C 0.28375 0.57492 0.5528 0.0
C270 C 0.28331 0.62195 0.53766 0.0
C271 C 0.29046 0.5368 0.52004 0.0
C272 C 0.29659 0.54593 0.47223 0.0
C273 C 0.29628 0.59251 0.45637 0.0
C274 C 0.28985 0.63041 0.48937 0.0
N275 N 0.29473 0.48926 0.5341 0.0
H276 H 0.25221 0.4337 0.07555 0.0
H277 H 0.22109 0.46869 0.9308 0.0
H278 H 0.24464 0.32362 0.96347 0.0
H279 H 0.2517 0.51201 0.09286 0.0
C280 C 0.23396 0.52841 0.0632 0.0
C281 C 0.24731 0.42308 0.03816 0.0
C282 C 0.25076 0.37478 0.02356 0.0
C283 C 0.23664 0.45702 0.00445 0.0
C284 C 0.22995 0.44237 0.95637 0.0
C285 C 0.23233 0.39434 0.94129 0.0
C286 C 0.24269 0.36071 0.97506 0.0
N287 N 0.22922 0.50559 0.01702 0.0
H288 H 0.71742 0.97201 0.41007 0.0
H289 H 0.74156 0.05104 0.54351 0.0
H290 H 0.71089 0.8996 0.54144 0.0
H291 H 0.70983 0.046 0.37951 0.0
C292 C 0.73513 0.06746 0.40271 0.0
C293 C 0.71832 0.9732 0.4486 0.0
C294 C 0.71174 0.93066 0.47249 0.0
C295 C 0.72863 0.01667 0.47442 0.0
C296 C 0.73222 0.01745 0.52412 0.0
C297 C 0.72581 0.97555 0.5488 0.0
C298 C 0.71481 0.93227 0.52272 0.0
N299 N 0.74071 0.05951 0.45206 0.0
H300 H 0.76321 0.03765 0.91292 0.0
H301 H 0.74227 0.99035 0.05337 0.0
H302 H 0.72394 0.13725 0.02393 0.0
H303 H 0.79551 0.93132 0.02649 0.0
C304 C 0.77346 0.92421 0.994 0.0
C305 C 0.75506 0.04576 0.94962 0.0
C306 C 0.7445 0.09231 0.96461 0.0
C307 C 0.7553 0.00917 0.98156 0.0
C308 C 0.74398 0.01897 0.02903 0.0
C309 C 0.73215 0.06497 0.04463 0.0
C310 C 0.73293 0.10163 0.01224 0.0
N311 N 0.76287 0.96202 0.96412 0.0
H312 H 0.59008 0.28015 0.56829 0.0
H313 H 0.4475 0.30252 0.51631 0.0
H314 H 0.47736 0.28973 0.66646 0.0
H315 H 0.59911 0.25488 0.4894 0.0
C316 C 0.57736 0.27971 0.47083 0.0
C317 C 0.55279 0.28376 0.57492 0.0
C318 C 0.53765 0.28331 0.62195 0.0
C319 C 0.52003 0.29046 0.53681 0.0
C320 C 0.47222 0.29659 0.54594 0.0
C321 C 0.45635 0.29628 0.59252 0.0
C322 C 0.48936 0.28985 0.63041 0.0
N323 N 0.53409 0.29474 0.48927 0.0
H324 H 0.91289 0.76319 0.03766 0.0
H325 H 0.05334 0.74226 0.99035 0.0
H326 H 0.0239 0.72394 0.13726 0.0
H327 H 0.02646 0.79549 0.93131 0.0
C328 C 0.99397 0.77344 0.92421 0.0
C329 C 0.94959 0.75505 0.04576 0.0
C330 C 0.96458 0.7445 0.09232 0.0
C331 C 0.98153 0.75528 0.00917 0.0
C332 C 0.02901 0.74398 0.01897 0.0
C333 C 0.0446 0.73215 0.06497 0.0
C334 C 0.01221 0.73293 0.10163 0.0
N335 N 0.96409 0.76286 0.96202 0.0
H336 H 0.07555 0.25221 0.43368 0.0
H337 H 0.9308 0.22108 0.46867 0.0
H338 H 0.96347 0.24464 0.3236 0.0
H339 H 0.09285 0.2517 0.51199 0.0
C340 C 0.06319 0.23396 0.52839 0.0
C341 C 0.03815 0.24731 0.42307 0.0
C342 C 0.02355 0.25076 0.37476 0.0
C343 C 0.00445 0.23663 0.45701 0.0
C344 C 0.95636 0.22994 0.44235 0.0
C345 C 0.94128 0.23232 0.39433 0.0
C346 C 0.97506 0.24269 0.36069 0.0
N347 N 0.01701 0.22922 0.50557 0.0
H348 H 0.41008 0.7174 0.97203 0.0
H349 H 0.54353 0.74156 0.05106 0.0
H350 H 0.54146 0.71088 0.89962 0.0
H351 H 0.37952 0.70982 0.04602 0.0
C352 C 0.40273 0.73512 0.06749 0.0
C353 C 0.44861 0.71831 0.97322 0.0
C354 C 0.47251 0.71173 0.93068 0.0
C355 C 0.47444 0.72862 0.01669 0.0
C356 C 0.52414 0.73222 0.01747 0.0
C357 C 0.54882 0.7258 0.97557 0.0
C358 C 0.52274 0.71481 0.93229 0.0
N359 N 0.45208 0.7407 0.05953 0.0
H360 H 0.56829 0.59008 0.28015 0.0
H361 H 0.5163 0.44751 0.30253 0.0
H362 H 0.66646 0.47736 0.28973 0.0
H363 H 0.4894 0.59912 0.25489 0.0
C364 C 0.47083 0.57737 0.27972 0.0
C365 C 0.57492 0.55279 0.28376 0.0
C366 C 0.62195 0.53766 0.28332 0.0
C367 C 0.5368 0.52003 0.29047 0.0
C368 C 0.54593 0.47222 0.29659 0.0
C369 C 0.59251 0.45636 0.29628 0.0
C370 C 0.63041 0.48937 0.28986 0.0
N371 N 0.48926 0.53409 0.29474 0.0
H372 H 0.03764 0.91292 0.7632 0.0
H373 H 0.99033 0.05337 0.74226 0.0
H374 H 0.13724 0.02393 0.72394 0.0
H375 H 0.9313 0.02649 0.7955 0.0
C376 C 0.9242 0.994 0.77345 0.0
C377 C 0.04575 0.94962 0.75506 0.0
C378 C 0.0923 0.96461 0.7445 0.0
C379 C 0.00916 0.98156 0.75529 0.0
C380 C 0.01896 0.02903 0.74398 0.0
C381 C 0.06496 0.04462 0.73215 0.0
C382 C 0.10162 0.01224 0.73293 0.0
N383 N 0.96201 0.96412 0.76287 0.0
H384 H 0.43369 0.07554 0.25223 0.0
H385 H 0.46868 0.93079 0.22111 0.0
H386 H 0.32362 0.96346 0.24466 0.0
H387 H 0.51199 0.09285 0.25172 0.0
C388 C 0.5284 0.06319 0.23398 0.0
C389 C 0.42307 0.03815 0.24733 0.0
C390 C 0.37477 0.02354 0.25078 0.0
C391 C 0.45702 0.00444 0.23666 0.0
C392 C 0.44236 0.95636 0.22997 0.0
C393 C 0.39434 0.94128 0.23235 0.0
C394 C 0.3607 0.97505 0.24271 0.0
N395 N 0.50558 0.01701 0.22925 0.0
H396 H 0.97201 0.41006 0.71741 0.0
H397 H 0.05104 0.54351 0.74156 0.0
H398 H 0.8996 0.54143 0.71089 0.0
H399 H 0.04601 0.3795 0.70983 0.0
C400 C 0.06747 0.40271 0.73513 0.0
C401 C 0.9732 0.44859 0.71832 0.0
C402 C 0.93066 0.47248 0.71174 0.0
C403 C 0.01667 0.47441 0.72863 0.0
C404 C 0.01744 0.52412 0.73223 0.0
C405 C 0.97555 0.54879 0.72581 0.0
C406 C 0.93227 0.52271 0.71481 0.0
N407 N 0.05951 0.45205 0.74071 0.0
H408 H 0.68921 0.36966 0.41216 0.0
H409 H 0.68318 0.45004 0.54482 0.0
H410 H 0.7464 0.31405 0.54177 0.0
H411 H 0.61858 0.48173 0.50624 0.0
C412 C 0.63303 0.48556 0.4714 0.0
C413 C 0.69551 0.37236 0.45046 0.0
C414 C 0.71843 0.33618 0.47396 0.0
C415 C 0.68065 0.41244 0.47596 0.0
C416 C 0.69082 0.41743 0.52543 0.0
C417 C 0.71463 0.38206 0.54929 0.0
C418 C 0.72761 0.3412 0.52346 0.0
N419 N 0.65932 0.44893 0.45031 0.0
H420 H 0.81157 0.5984 0.97431 0.0
H421 H 0.83972 0.54546 0.11325 0.0
H422 H 0.76438 0.67387 0.09853 0.0
H423 H 0.84412 0.47568 0.07277 0.0
C424 C 0.85209 0.48208 0.03619 0.0
C425 C 0.80947 0.60243 0.01266 0.0
C426 C 0.78589 0.64067 0.03294 0.0
C427 C 0.82857 0.56775 0.04106 0.0
C428 C 0.82556 0.5722 0.09095 0.0
C429 C 0.80243 0.61055 0.11195 0.0
C430 C 0.78303 0.64472 0.08264 0.0
N431 N 0.84799 0.52783 0.01751 0.0
H432 H 0.20632 0.14103 0.57529 0.0
H433 H 0.18604 0.04812 0.44977 0.0
H434 H 0.24512 0.19076 0.43925 0.0
H435 H 0.15958 0.98025 0.55677 0.0
C436 C 0.18332 0.00434 0.53891 0.0
C437 C 0.20877 0.13514 0.53714 0.0
C438 C 0.22715 0.17164 0.50978 0.0
C439 C 0.1946 0.09036 0.51583 0.0
C440 C 0.19698 0.08264 0.4662 0.0
C441 C 0.21556 0.11872 0.43841 0.0
C442 C 0.23031 0.16304 0.46052 0.0
N443 N 0.17687 0.05423 0.54507 0.0
H444 H 0.30547 0.85877 0.03785 0.0
H445 H 0.30678 0.94372 0.91557 0.0
H446 H 0.24375 0.80158 0.90306 0.0
H447 H 0.37324 0.98023 0.95547 0.0
C448 C 0.35972 0.98181 0.99103 0.0
C449 C 0.29781 0.86199 4e-05 0.0
C450 C 0.27294 0.82477 0.97301 0.0
C451 C 0.31193 0.90418 0.97903 0.0
C452 C 0.30009 0.90966 0.93054 0.0
C453 C 0.27627 0.8726 0.9025 0.0
C454 C 0.26319 0.83002 0.92406 0.0
N455 N 0.33413 0.94205 0.00846 0.0
H456 H 0.41217 0.6892 0.36968 0.0
H457 H 0.54483 0.68316 0.45006 0.0
H458 H 0.54178 0.74639 0.31407 0.0
H459 H 0.50625 0.61856 0.48174 0.0
C460 C 0.4714 0.63301 0.48557 0.0
C461 C 0.45047 0.6955 0.37238 0.0
C462 C 0.47397 0.71842 0.3362 0.0
C463 C 0.47596 0.68063 0.41246 0.0
C464 C 0.52543 0.69081 0.41744 0.0
C465 C 0.5493 0.71462 0.38208 0.0
C466 C 0.52347 0.7276 0.34122 0.0
N467 N 0.45031 0.6593 0.44895 0.0
H468 H 0.03784 0.3055 0.85875 0.0
H469 H 0.91556 0.3068 0.94371 0.0
H470 H 0.90305 0.24377 0.80157 0.0
H471 H 0.95546 0.37325 0.98023 0.0
C472 C 0.99103 0.35974 0.9818 0.0
C473 C 3e-05 0.29784 0.86197 0.0
C474 C 0.973 0.27297 0.82476 0.0
C475 C 0.97902 0.31195 0.90417 0.0
C476 C 0.93054 0.30011 0.90966 0.0
C477 C 0.90249 0.27629 0.87259 0.0
C478 C 0.92405 0.26321 0.83002 0.0
N479 N 0.00845 0.33415 0.94204 0.0
H480 H 0.97428 0.81155 0.59841 0.0
H481 H 0.11322 0.83971 0.54547 0.0
H482 H 0.0985 0.76435 0.67387 0.0
H483 H 0.07275 0.84411 0.47569 0.0
C484 C 0.03617 0.85208 0.48209 0.0
C485 C 0.01263 0.80944 0.60244 0.0
C486 C 0.03291 0.78587 0.64067 0.0
C487 C 0.04103 0.82856 0.56776 0.0
C488 C 0.09092 0.82555 0.5722 0.0
C489 C 0.11192 0.80241 0.61055 0.0
C490 C 0.08261 0.78301 0.64472 0.0
N491 N 0.01748 0.84798 0.52784 0.0
H492 H 0.57528 0.20633 0.14103 0.0
H493 H 0.44975 0.18606 0.04813 0.0
H494 H 0.43923 0.24513 0.19077 0.0
H495 H 0.55675 0.15959 0.98025 0.0
C496 C 0.53889 0.18333 0.00434 0.0
C497 C 0.53713 0.20878 0.13514 0.0
C498 C 0.50976 0.22716 0.17165 0.0
C499 C 0.51581 0.19461 0.09036 0.0
C500 C 0.46618 0.197 0.08264 0.0
C501 C 0.43839 0.21558 0.11873 0.0
C502 C 0.4605 0.23032 0.16304 0.0
N503 N 0.54505 0.17689 0.05423 0.0
H504 H 0.36967 0.41216 0.68921 0.0
H505 H 0.45007 0.54482 0.68318 0.0
H506 H 0.31408 0.54177 0.74641 0.0
H507 H 0.48174 0.50623 0.61857 0.0
C508 C 0.48557 0.47139 0.63302 0.0
C509 C 0.37237 0.45046 0.69551 0.0
C510 C 0.33619 0.47397 0.71844 0.0
C511 C 0.41246 0.47595 0.68065 0.0
C512 C 0.41745 0.52542 0.69083 0.0
C513 C 0.38209 0.54929 0.71464 0.0
C514 C 0.34122 0.52347 0.72762 0.0
N515 N 0.44895 0.4503 0.65931 0.0
H516 H 0.85875 0.03785 0.3055 0.0
H517 H 0.9437 0.91557 0.3068 0.0
H518 H 0.80156 0.90306 0.24377 0.0
H519 H 0.98021 0.95546 0.37326 0.0
C520 C 0.98179 0.99103 0.35974 0.0
C521 C 0.86197 3e-05 0.29784 0.0
C522 C 0.82475 0.97301 0.27297 0.0
C523 C 0.90416 0.97903 0.31196 0.0
C524 C 0.90964 0.93054 0.30012 0.0
C525 C 0.87258 0.90249 0.2763 0.0
C526 C 0.83 0.92406 0.26322 0.0
N527 N 0.94204 0.00846 0.33416 0.0
H528 H 0.5984 0.9743 0.81156 0.0
H529 H 0.54546 0.11324 0.83971 0.0
H530 H 0.67387 0.09852 0.76436 0.0
H531 H 0.47568 0.07277 0.84412 0.0
C532 C 0.48208 0.03619 0.85209 0.0
C533 C 0.60243 0.01265 0.80945 0.0
C534 C 0.64066 0.03293 0.78588 0.0
C535 C 0.56774 0.04105 0.82856 0.0
C536 C 0.57219 0.09094 0.82556 0.0
C537 C 0.61054 0.11194 0.80242 0.0
C538 C 0.64471 0.08263 0.78302 0.0
N539 N 0.52782 0.0175 0.84798 0.0
H540 H 0.14103 0.57528 0.20634 0.0
H541 H 0.04813 0.44976 0.18605 0.0
H542 H 0.19077 0.43924 0.24513 0.0
H543 H 0.98025 0.55676 0.1596 0.0
C544 C 0.00434 0.5389 0.18333 0.0
C545 C 0.13514 0.53713 0.20878 0.0
C546 C 0.17165 0.50977 0.22716 0.0
C547 C 0.09036 0.51582 0.19461 0.0
C548 C 0.08264 0.46619 0.19699 0.0
C549 C 0.11873 0.43839 0.21557 0.0
C550 C 0.16304 0.46051 0.23032 0.0
N551 N 0.05423 0.54506 0.17689 0.0
loop_
_geom_bond_atom_site_label_1
_geom_bond_atom_site_label_2
_geom_bond_distance
_geom_bond_site_symmetry_2
_ccdc_geom_bond_type
O0 Cd1 2.300 . S
O0 C7 1.275 . S
Cd1 O0 2.300 . S
Cd1 O9 2.381 . S
Cd1 O10 2.378 . S
O2 Cd3 2.385 . S
O2 C7 1.255 . S
Cd3 O2 2.385 . S
Cd3 O4 2.317 . S
O4 Cd3 2.317 . S
O4 C5 1.232 . S
C5 O4 1.232 . S
C5 O6 1.218 . S
O6 C5 1.218 . S
C7 O0 1.275 . S
C7 O2 1.255 . S
C8 O9 1.258 . S
C8 O10 1.256 . S
O9 Cd1 2.381 . S
O9 C8 1.258 . S
O10 Cd1 2.378 . S
O10 C8 1.256 . S
O11 Cd12 2.300 . S
O11 C18 1.275 . S
Cd12 O11 2.300 . S
Cd12 O20 2.381 . S
Cd12 O21 2.378 . S
O13 Cd14 2.385 . S
O13 C18 1.255 . S
Cd14 O13 2.385 . S
Cd14 O15 2.317 . S
O15 Cd14 2.317 . S
O15 C16 1.232 . S
C16 O15 1.232 . S
C16 O17 1.218 . S
O17 C16 1.218 . S
C18 O11 1.275 . S
C18 O13 1.255 . S
C19 O20 1.258 . S
C19 O21 1.256 . S
O20 Cd12 2.381 . S
O20 C19 1.258 . S
O21 Cd12 2.378 . S
O21 C19 1.256 . S
O22 Cd23 2.310 . S
O22 C29 1.287 . S
Cd23 O22 2.310 . S
Cd23 O31 2.381 1_565 S
Cd23 O32 2.378 . S
O24 Cd25 2.385 . S
O24 C29 1.255 . S
Cd25 O24 2.385 . S
Cd25 O26 2.317 . S
O26 Cd25 2.317 . S
O26 C27 1.232 . S
C27 O26 1.232 . S
C27 O28 1.218 . S
O28 C27 1.218 . S
C29 O22 1.287 . S
C29 O24 1.255 . S
C30 O31 1.258 . S
C30 O32 1.256 1_545 S
O31 Cd23 2.381 1_545 S
O31 C30 1.258 . S
O32 Cd23 2.378 . S
O32 C30 1.256 1_565 S
O33 Cd34 2.292 1_565 S
O33 C40 1.263 1_565 S
Cd34 O33 2.292 1_545 S
Cd34 O42 2.381 1_545 S
Cd34 O43 2.378 . S
O35 Cd36 2.385 . S
O35 C40 1.255 . S
Cd36 O35 2.385 . S
Cd36 O37 2.317 . S
O37 Cd36 2.317 . S
O37 C38 1.232 . S
C38 O37 1.232 . S
C38 O39 1.218 . S
O39 C38 1.218 . S
C40 O33 1.263 1_545 S
C40 O35 1.255 . S
C41 O42 1.252 1_545 S
C41 O43 1.265 . S
O42 Cd34 2.381 1_565 S
O42 C41 1.252 1_565 S
O43 Cd34 2.378 . S
O43 C41 1.265 . S
O44 Cd45 2.300 . S
O44 C51 1.275 . S
Cd45 O44 2.300 . S
Cd45 O53 2.381 . S
Cd45 O54 2.378 . S
O46 Cd47 2.385 . S
O46 C51 1.255 . S
Cd47 O46 2.385 . S
Cd47 O48 2.317 . S
O48 Cd47 2.317 . S
O48 C49 1.232 . S
C49 O48 1.232 . S
C49 O50 1.218 . S
O50 C49 1.218 . S
C51 O44 1.275 . S
C51 O46 1.255 . S
C52 O53 1.258 . S
C52 O54 1.256 . S
O53 Cd45 2.381 . S
O53 C52 1.258 . S
O54 Cd45 2.378 . S
O54 C52 1.256 . S
O55 Cd56 2.292 1_556 S
O55 C62 1.263 1_556 S
Cd56 O55 2.292 1_554 S
Cd56 O64 2.381 1_554 S
Cd56 O65 2.378 . S
O57 Cd58 2.385 . S
O57 C62 1.255 . S
Cd58 O57 2.385 . S
Cd58 O59 2.317 . S
O59 Cd58 2.317 . S
O59 C60 1.232 . S
C60 O59 1.232 . S
C60 O61 1.218 . S
O61 C60 1.218 . S
C62 O55 1.263 1_554 S
C62 O57 1.255 . S
C63 O64 1.252 1_554 S
C63 O65 1.265 . S
O64 Cd56 2.381 1_556 S
O64 C63 1.252 1_556 S
O65 Cd56 2.378 . S
O65 C63 1.265 . S
O66 Cd67 2.300 . S
O66 C73 1.275 . S
Cd67 O66 2.300 . S
Cd67 O75 2.381 . S
Cd67 O76 2.378 . S
O68 Cd69 2.385 . S
O68 C73 1.255 . S
Cd69 O68 2.385 . S
Cd69 O70 2.317 . S
O70 Cd69 2.317 . S
O70 C71 1.232 . S
C71 O70 1.232 . S
C71 O72 1.218 . S
O72 C71 1.218 . S
C73 O66 1.275 . S
C73 O68 1.255 . S
C74 O75 1.258 . S
C74 O76 1.256 . S
O75 Cd67 2.381 . S
O75 C74 1.258 . S
O76 Cd67 2.378 . S
O76 C74 1.256 . S
O77 Cd78 2.310 . S
O77 C84 1.287 . S
Cd78 O77 2.310 . S
Cd78 O86 2.381 1_556 S
Cd78 O87 2.378 . S
O79 Cd80 2.385 . S
O79 C84 1.255 . S
Cd80 O79 2.385 . S
Cd80 O81 2.317 . S
O81 Cd80 2.317 . S
O81 C82 1.232 . S
C82 O81 1.232 . S
C82 O83 1.218 . S
O83 C82 1.218 . S
C84 O77 1.287 . S
C84 O79 1.255 . S
C85 O86 1.258 . S
C85 O87 1.256 1_554 S
O86 Cd78 2.381 1_554 S
O86 C85 1.258 . S
O87 Cd78 2.378 . S
O87 C85 1.256 1_556 S
O88 Cd89 2.300 . S
O88 C95 1.275 . S
Cd89 O88 2.300 . S
Cd89 O97 2.381 . S
Cd89 O98 2.378 . S
O90 Cd91 2.385 . S
O90 C95 1.255 . S
Cd91 O90 2.385 . S
Cd91 O92 2.317 . S
O92 Cd91 2.317 . S
O92 C93 1.232 . S
C93 O92 1.232 . S
C93 O94 1.218 . S
O94 C93 1.218 . S
C95 O88 1.275 . S
C95 O90 1.255 . S
C96 O97 1.258 . S
C96 O98 1.256 . S
O97 Cd89 2.381 . S
O97 C96 1.258 . S
O98 Cd89 2.378 . S
O98 C96 1.256 . S
O99 Cd100 2.292 1_655 S
O99 C106 1.263 1_655 S
Cd100 O99 2.292 1_455 S
Cd100 O108 2.381 1_455 S
Cd100 O109 2.378 . S
O101 Cd102 2.385 . S
O101 C106 1.255 . S
Cd102 O101 2.385 . S
Cd102 O103 2.317 . S
O103 Cd102 2.317 . S
O103 C104 1.232 . S
C104 O103 1.232 . S
C104 O105 1.218 . S
O105 C104 1.218 . S
C106 O99 1.263 1_455 S
C106 O101 1.255 . S
C107 O108 1.252 1_455 S
C107 O109 1.265 . S
O108 Cd100 2.381 1_655 S
O108 C107 1.252 1_655 S
O109 Cd100 2.378 . S
O109 C107 1.265 . S
O110 Cd111 2.300 . S
O110 C117 1.275 . S
Cd111 O110 2.300 . S
Cd111 O119 2.381 . S
Cd111 O120 2.378 . S
O112 Cd113 2.385 . S
O112 C117 1.255 . S
Cd113 O112 2.385 . S
Cd113 O114 2.317 . S
O114 Cd113 2.317 . S
O114 C115 1.232 . S
C115 O114 1.232 . S
C115 O116 1.218 . S
O116 C115 1.218 . S
C117 O110 1.275 . S
C117 O112 1.255 . S
C118 O119 1.258 . S
C118 O120 1.256 . S
O119 Cd111 2.381 . S
O119 C118 1.258 . S
O120 Cd111 2.378 . S
O120 C118 1.256 . S
O121 Cd122 2.310 . S
O121 C128 1.287 . S
Cd122 O121 2.310 . S
Cd122 O130 2.381 1_655 S
Cd122 O131 2.378 . S
O123 Cd124 2.385 . S
O123 C128 1.255 . S
Cd124 O123 2.385 . S
Cd124 O125 2.317 . S
O125 Cd124 2.317 . S
O125 C126 1.232 . S
C126 O125 1.232 . S
C126 O127 1.218 . S
O127 C126 1.218 . S
C128 O121 1.287 . S
C128 O123 1.255 . S
C129 O130 1.258 . S
C129 O131 1.256 1_455 S
O130 Cd122 2.381 1_455 S
O130 C129 1.258 . S
O131 Cd122 2.378 . S
O131 C129 1.256 1_655 S
O132 Cd133 2.300 . S
O132 C139 1.275 . S
Cd133 O132 2.300 . S
Cd133 O141 2.381 . S
Cd133 O142 2.378 . S
O134 Cd135 2.385 . S
O134 C139 1.255 . S
Cd135 O134 2.385 . S
Cd135 O136 2.317 . S
O136 Cd135 2.317 . S
O136 C137 1.232 . S
C137 O136 1.232 . S
C137 O138 1.218 . S
O138 C137 1.218 . S
C139 O132 1.275 . S
C139 O134 1.255 . S
C140 O141 1.258 . S
C140 O142 1.256 . S
O141 Cd133 2.381 . S
O141 C140 1.258 . S
O142 Cd133 2.378 . S
O142 C140 1.256 . S
O143 Cd144 2.300 . S
O143 C150 1.275 . S
Cd144 O143 2.300 . S
Cd144 O152 2.381 . S
Cd144 O153 2.378 . S
O145 Cd146 2.385 . S
O145 C150 1.255 . S
Cd146 O145 2.385 . S
Cd146 O147 2.317 . S
O147 Cd146 2.317 . S
O147 C148 1.232 . S
C148 O147 1.232 . S
C148 O149 1.218 . S
O149 C148 1.218 . S
C150 O143 1.275 . S
C150 O145 1.255 . S
C151 O152 1.258 . S
C151 O153 1.256 . S
O152 Cd144 2.381 . S
O152 C151 1.258 . S
O153 Cd144 2.378 . S
O153 C151 1.256 . S
O154 Cd155 2.300 1_545 S
O154 C161 1.275 . S
Cd155 O154 2.300 1_565 S
Cd155 O163 2.381 1_565 S
Cd155 O164 2.378 . S
O156 Cd157 2.385 . S
O156 C161 1.255 1_565 S
Cd157 O156 2.385 . S
Cd157 O158 2.317 . S
O158 Cd157 2.317 . S
O158 C159 1.232 . S
C159 O158 1.232 . S
C159 O160 1.218 . S
O160 C159 1.218 . S
C161 O154 1.275 . S
C161 O156 1.255 1_545 S
C162 O163 1.258 1_565 S
C162 O164 1.256 . S
O163 Cd155 2.381 1_545 S
O163 C162 1.258 1_545 S
O164 Cd155 2.378 . S
O164 C162 1.256 . S
O165 Cd166 2.300 1_565 S
O165 C172 1.275 . S
Cd166 O165 2.300 1_545 S
Cd166 O174 2.381 1_545 S
Cd166 O175 2.378 . S
O167 Cd168 2.385 . S
O167 C172 1.255 1_545 S
Cd168 O167 2.385 . S
Cd168 O169 2.317 . S
O169 Cd168 2.317 . S
O169 C170 1.232 . S
C170 O169 1.232 . S
C170 O171 1.218 . S
O171 C170 1.218 . S
C172 O165 1.275 . S
C172 O167 1.255 1_565 S
C173 O174 1.258 1_545 S
C173 O175 1.256 . S
O174 Cd166 2.381 1_565 S
O174 C173 1.258 1_565 S
O175 Cd166 2.378 . S
O175 C173 1.256 . S
O176 Cd177 2.300 . S
O176 C183 1.275 . S
Cd177 O176 2.300 . S
Cd177 O185 2.381 . S
Cd177 O186 2.378 . S
O178 Cd179 2.385 . S
O178 C183 1.255 . S
Cd179 O178 2.385 . S
Cd179 O180 2.317 . S
O180 Cd179 2.317 . S
O180 C181 1.232 . S
C181 O180 1.232 . S
C181 O182 1.218 . S
O182 C181 1.218 . S
C183 O176 1.275 . S
C183 O178 1.255 . S
C184 O185 1.258 . S
C184 O186 1.256 . S
O185 Cd177 2.381 . S
O185 C184 1.258 . S
O186 Cd177 2.378 . S
O186 C184 1.256 . S
O187 Cd188 2.300 1_556 S
O187 C194 1.275 . S
Cd188 O187 2.300 1_554 S
Cd188 O196 2.381 1_554 S
Cd188 O197 2.378 . S
O189 Cd190 2.385 . S
O189 C194 1.255 1_554 S
Cd190 O189 2.385 . S
Cd190 O191 2.317 . S
O191 Cd190 2.317 . S
O191 C192 1.232 . S
C192 O191 1.232 . S
C192 O193 1.218 . S
O193 C192 1.218 . S
C194 O187 1.275 . S
C194 O189 1.255 1_556 S
C195 O196 1.258 1_554 S
C195 O197 1.256 . S
O196 Cd188 2.381 1_556 S
O196 C195 1.258 1_556 S
O197 Cd188 2.378 . S
O197 C195 1.256 . S
O198 Cd199 2.300 . S
O198 C205 1.275 . S
Cd199 O198 2.300 . S
Cd199 O207 2.381 . S
Cd199 O208 2.378 . S
O200 Cd201 2.385 . S
O200 C205 1.255 . S
Cd201 O200 2.385 . S
Cd201 O202 2.317 . S
O202 Cd201 2.317 . S
O202 C203 1.232 . S
C203 O202 1.232 . S
C203 O204 1.218 . S
O204 C203 1.218 . S
C205 O198 1.275 . S
C205 O200 1.255 . S
C206 O207 1.258 . S
C206 O208 1.256 . S
O207 Cd199 2.381 . S
O207 C206 1.258 . S
O208 Cd199 2.378 . S
O208 C206 1.256 . S
O209 Cd210 2.300 1_554 S
O209 C216 1.275 . S
Cd210 O209 2.300 1_556 S
Cd210 O218 2.381 1_556 S
Cd210 O219 2.378 . S
O211 Cd212 2.385 . S
O211 C216 1.255 1_556 S
Cd212 O211 2.385 . S
Cd212 O213 2.317 . S
O213 Cd212 2.317 . S
O213 C214 1.232 . S
C214 O213 1.232 . S
C214 O215 1.218 . S
O215 C214 1.218 . S
C216 O209 1.275 . S
C216 O211 1.255 1_554 S
C217 O218 1.258 1_556 S
C217 O219 1.256 . S
O218 Cd210 2.381 1_554 S
O218 C217 1.258 1_554 S
O219 Cd210 2.378 . S
O219 C217 1.256 . S
O220 Cd221 2.300 . S
O220 C227 1.275 . S
Cd221 O220 2.300 . S
Cd221 O229 2.381 . S
Cd221 O230 2.378 . S
O222 Cd223 2.385 . S
O222 C227 1.255 . S
Cd223 O222 2.385 . S
Cd223 O224 2.317 . S
O224 Cd223 2.317 . S
O224 C225 1.232 . S
C225 O224 1.232 . S
C225 O226 1.218 . S
O226 C225 1.218 . S
C227 O220 1.275 . S
C227 O222 1.255 . S
C228 O229 1.258 . S
C228 O230 1.256 . S
O229 Cd221 2.381 . S
O229 C228 1.258 . S
O230 Cd221 2.378 . S
O230 C228 1.256 . S
O231 Cd232 2.300 1_655 S
O231 C238 1.275 . S
Cd232 O231 2.300 1_455 S
Cd232 O240 2.381 1_455 S
Cd232 O241 2.378 . S
O233 Cd234 2.385 . S
O233 C238 1.255 1_455 S
Cd234 O233 2.385 . S
Cd234 O235 2.317 . S
O235 Cd234 2.317 . S
O235 C236 1.232 . S
C236 O235 1.232 . S
C236 O237 1.218 . S
O237 C236 1.218 . S
C238 O231 1.275 . S
C238 O233 1.255 1_655 S
C239 O240 1.258 1_455 S
C239 O241 1.256 . S
O240 Cd232 2.381 1_655 S
O240 C239 1.258 1_655 S
O241 Cd232 2.378 . S
O241 C239 1.256 . S
O242 Cd243 2.300 . S
O242 C249 1.275 . S
Cd243 O242 2.300 . S
Cd243 O251 2.381 . S
Cd243 O252 2.378 . S
O244 Cd245 2.385 . S
O244 C249 1.255 . S
Cd245 O244 2.385 . S
Cd245 O246 2.317 . S
O246 Cd245 2.317 . S
O246 C247 1.232 . S
C247 O246 1.232 . S
C247 O248 1.218 . S
O248 C247 1.218 . S
C249 O242 1.275 . S
C249 O244 1.255 . S
C250 O251 1.258 . S
C250 O252 1.256 . S
O251 Cd243 2.381 . S
O251 C250 1.258 . S
O252 Cd243 2.378 . S
O252 C250 1.256 . S
O253 Cd254 2.300 1_455 S
O253 C260 1.275 . S
Cd254 O253 2.300 1_655 S
Cd254 O262 2.381 1_655 S
Cd254 O263 2.378 . S
O255 Cd256 2.385 . S
O255 C260 1.255 1_655 S
Cd256 O255 2.385 . S
Cd256 O257 2.317 . S
O257 Cd256 2.317 . S
O257 C258 1.232 . S
C258 O257 1.232 . S
C258 O259 1.218 . S
O259 C258 1.218 . S
C260 O253 1.275 . S
C260 O255 1.255 1_455 S
C261 O262 1.258 1_655 S
C261 O263 1.256 . S
O262 Cd254 2.381 1_455 S
O262 C261 1.258 1_455 S
O263 Cd254 2.378 . S
O263 C261 1.256 . S
H264 C269 0.930 . S
H265 C272 0.930 . S
H266 C274 0.930 . S
H267 C268 1.016 . S
C268 H267 1.016 . S
C268 N275 1.286 . S
C269 H264 0.930 . S
C269 C270 1.397 . S
C269 C271 1.361 . S
C270 C269 1.397 . S
C270 C274 1.390 . S
C271 C269 1.361 . S
C271 C272 1.393 . S
C271 N275 1.413 . S
C272 H265 0.930 . S
C272 C271 1.393 . S
C272 C273 1.399 . S
C273 C272 1.399 . S
C273 C274 1.381 . S
C274 H266 0.930 . S
C274 C270 1.390 . S
C274 C273 1.381 . S
N275 C268 1.286 . S
N275 C271 1.413 . S
H276 C281 0.930 1_554 S
H277 C284 0.930 . S
H278 C286 0.930 . S
H279 C280 1.016 . S
C280 H279 1.016 . S
C280 N287 1.286 . S
C281 H276 0.930 1_556 S
C281 C282 1.397 . S
C281 C283 1.361 . S
C282 C281 1.397 . S
C282 C286 1.390 . S
C283 C281 1.361 . S
C283 C284 1.393 . S
C283 N287 1.413 . S
C284 H277 0.930 . S
C284 C283 1.393 . S
C284 C285 1.399 . S
C285 C284 1.399 . S
C285 C286 1.381 . S
C286 H278 0.930 . S
C286 C282 1.390 . S
C286 C285 1.381 . S
N287 C280 1.286 . S
N287 C283 1.413 . S
H288 C293 0.930 . S
H289 C296 0.930 . S
H290 C298 0.930 . S
H291 C292 1.016 . S
C292 H291 1.016 . S
C292 N299 1.286 . S
C293 H288 0.930 . S
C293 C294 1.397 . S
C293 C295 1.361 1_565 S
C294 C293 1.397 . S
C294 C298 1.390 . S
C295 C293 1.361 1_545 S
C295 C296 1.393 . S
C295 N299 1.413 . S
C296 H289 0.930 . S
C296 C295 1.393 . S
C296 C297 1.400 . S
C297 C296 1.400 . S
C297 C298 1.379 1_545 S
C298 H290 0.930 . S
C298 C294 1.390 . S
C298 C297 1.379 1_565 S
N299 C292 1.286 . S
N299 C295 1.413 . S
H300 C305 0.930 1_556 S
H301 C308 0.930 . S
H302 C310 0.930 . S
H303 C304 1.016 . S
C304 H303 1.016 . S
C304 N311 1.286 . S
C305 H300 0.930 1_554 S
C305 C306 1.397 1_565 S
C305 C307 1.361 . S
C306 C305 1.397 1_545 S
C306 C310 1.390 . S
C307 C305 1.361 . S
C307 C308 1.393 . S
C307 N311 1.413 . S
C308 H301 0.930 . S
C308 C307 1.393 . S
C308 C309 1.399 . S
C309 C308 1.399 . S
C309 C310 1.381 1_565 S
C310 H302 0.930 . S
C310 C306 1.390 . S
C310 C309 1.381 1_545 S
N311 C304 1.286 . S
N311 C307 1.413 . S
H312 C317 0.930 . S
H313 C320 0.930 . S
H314 C322 0.930 . S
H315 C316 1.016 . S
C316 H315 1.016 . S
C316 N323 1.286 . S
C317 H312 0.930 . S
C317 C318 1.397 . S
C317 C319 1.361 . S
C318 C317 1.397 . S
C318 C322 1.390 . S
C319 C317 1.361 . S
C319 C320 1.393 . S
C319 N323 1.413 . S
C320 H313 0.930 . S
C320 C319 1.393 . S
C320 C321 1.399 . S
C321 C320 1.399 . S
C321 C322 1.381 . S
C322 H314 0.930 . S
C322 C318 1.390 . S
C322 C321 1.381 . S
N323 C316 1.286 . S
N323 C319 1.413 . S
H324 C329 0.930 1_655 S
H325 C332 0.930 . S
H326 C334 0.930 . S
H327 C328 1.016 . S
C328 H327 1.016 . S
C328 N335 1.286 . S
C329 H324 0.930 1_455 S
C329 C330 1.397 1_556 S
C329 C331 1.361 . S
C330 C329 1.397 1_554 S
C330 C334 1.390 . S
C331 C329 1.361 . S
C331 C332 1.393 . S
C331 N335 1.413 . S
C332 H325 0.930 . S
C332 C331 1.393 . S
C332 C333 1.399 . S
C333 C332 1.399 . S
C333 C334 1.381 1_556 S
C334 H326 0.930 . S
C334 C330 1.390 . S
C334 C333 1.381 1_554 S
N335 C328 1.286 . S
N335 C331 1.413 . S
H336 C341 0.930 1_455 S
H337 C344 0.930 . S
H338 C346 0.930 . S
H339 C340 1.016 . S
C340 H339 1.016 . S
C340 N347 1.286 . S
C341 H336 0.930 1_655 S
C341 C342 1.397 . S
C341 C343 1.361 . S
C342 C341 1.397 . S
C342 C346 1.390 . S
C343 C341 1.361 . S
C343 C344 1.393 . S
C343 N347 1.413 . S
C344 H337 0.930 . S
C344 C343 1.393 . S
C344 C345 1.399 . S
C345 C344 1.399 . S
C345 C346 1.381 . S
C346 H338 0.930 . S
C346 C342 1.390 . S
C346 C345 1.381 . S
N347 C340 1.286 . S
N347 C343 1.413 . S
H348 C353 0.930 . S
H349 C356 0.930 . S
H350 C358 0.930 . S
H351 C352 1.016 . S
C352 H351 1.016 . S
C352 N359 1.286 . S
C353 H348 0.930 . S
C353 C354 1.397 . S
C353 C355 1.361 1_556 S
C354 C353 1.397 . S
C354 C358 1.390 . S
C355 C353 1.361 1_554 S
C355 C356 1.393 . S
C355 N359 1.413 . S
C356 H349 0.930 . S
C356 C355 1.393 . S
C356 C357 1.400 . S
C357 C356 1.400 . S
C357 C358 1.379 1_554 S
C358 H350 0.930 . S
C358 C354 1.390 . S
C358 C357 1.379 1_556 S
N359 C352 1.286 . S
N359 C355 1.413 . S
H360 C365 0.930 . S
H361 C368 0.930 . S
H362 C370 0.930 . S
H363 C364 1.016 . S
C364 H363 1.016 . S
C364 N371 1.286 . S
C365 H360 0.930 . S
C365 C366 1.397 . S
C365 C367 1.361 . S
C366 C365 1.397 . S
C366 C370 1.390 . S
C367 C365 1.361 . S
C367 C368 1.393 . S
C367 N371 1.413 . S
C368 H361 0.930 . S
C368 C367 1.393 . S
C368 C369 1.399 . S
C369 C368 1.399 . S
C369 C370 1.381 . S
C370 H362 0.930 . S
C370 C366 1.390 . S
C370 C369 1.381 . S
N371 C364 1.286 . S
N371 C367 1.413 . S
H372 C377 0.930 1_565 S
H373 C380 0.930 . S
H374 C382 0.930 . S
H375 C376 1.016 . S
C376 H375 1.016 . S
C376 N383 1.286 . S
C377 H372 0.930 1_545 S
C377 C378 1.397 1_655 S
C377 C379 1.361 . S
C378 C377 1.397 1_455 S
C378 C382 1.390 . S
C379 C377 1.361 . S
C379 C380 1.393 . S
C379 N383 1.413 . S
C380 H373 0.930 . S
C380 C379 1.393 . S
C380 C381 1.399 . S
C381 C380 1.399 . S
C381 C382 1.381 1_655 S
C382 H374 0.930 . S
C382 C378 1.390 . S
C382 C381 1.381 1_455 S
N383 C376 1.286 . S
N383 C379 1.413 . S
H384 C389 0.930 1_545 S
H385 C392 0.930 . S
H386 C394 0.930 . S
H387 C388 1.016 . S
C388 H387 1.016 . S
C388 N395 1.286 . S
C389 H384 0.930 1_565 S
C389 C390 1.397 . S
C389 C391 1.361 . S
C390 C389 1.397 . S
C390 C394 1.390 . S
C391 C389 1.361 . S
C391 C392 1.393 . S
C391 N395 1.413 . S
C392 H385 0.930 . S
C392 C391 1.393 . S
C392 C393 1.399 . S
C393 C392 1.399 . S
C393 C394 1.381 . S
C394 H386 0.930 . S
C394 C390 1.390 . S
C394 C393 1.381 . S
N395 C388 1.286 . S
N395 C391 1.413 . S
H396 C401 0.930 . S
H397 C404 0.930 . S
H398 C406 0.930 . S
H399 C400 1.016 . S
C400 H399 1.016 . S
C400 N407 1.286 . S
C401 H396 0.930 . S
C401 C402 1.397 . S
C401 C403 1.361 1_655 S
C402 C401 1.397 . S
C402 C406 1.390 . S
C403 C401 1.361 1_455 S
C403 C404 1.393 . S
C403 N407 1.413 . S
C404 H397 0.930 . S
C404 C403 1.393 . S
C404 C405 1.400 . S
C405 C404 1.400 . S
C405 C406 1.379 1_455 S
C406 H398 0.930 . S
C406 C402 1.390 . S
C406 C405 1.379 1_655 S
N407 C400 1.286 . S
N407 C403 1.413 . S
H408 C413 0.930 . S
H409 C416 0.930 . S
H410 C418 0.930 . S
H411 C412 1.016 . S
C412 H411 1.016 . S
C412 N419 1.286 . S
C413 H408 0.930 . S
C413 C414 1.397 . S
C413 C415 1.361 . S
C414 C413 1.397 . S
C414 C418 1.390 . S
C415 C413 1.361 . S
C415 C416 1.393 . S
C415 N419 1.413 . S
C416 H409 0.930 . S
C416 C415 1.393 . S
C416 C417 1.399 . S
C417 C416 1.399 . S
C417 C418 1.381 . S
C418 H410 0.930 . S
C418 C414 1.390 . S
C418 C417 1.381 . S
N419 C412 1.286 . S
N419 C415 1.413 . S
H420 C425 0.930 1_556 S
H421 C428 0.930 . S
H422 C430 0.930 . S
H423 C424 1.016 . S
C424 H423 1.016 . S
C424 N431 1.286 . S
C425 H420 0.930 1_554 S
C425 C426 1.397 . S
C425 C427 1.361 . S
C426 C425 1.397 . S
C426 C430 1.390 . S
C427 C425 1.361 . S
C427 C428 1.393 . S
C427 N431 1.413 . S
C428 H421 0.930 . S
C428 C427 1.393 . S
C428 C429 1.399 . S
C429 C428 1.399 . S
C429 C430 1.381 . S
C430 H422 0.930 . S
C430 C426 1.390 . S
C430 C429 1.381 . S
N431 C424 1.286 . S
N431 C427 1.413 . S
H432 C437 0.930 . S
H433 C440 0.930 . S
H434 C442 0.930 . S
H435 C436 1.016 . S
C436 H435 1.016 . S
C436 N443 1.286 . S
C437 H432 0.930 . S
C437 C438 1.397 . S
C437 C439 1.361 1_545 S
C438 C437 1.397 . S
C438 C442 1.390 . S
C439 C437 1.361 1_565 S
C439 C440 1.393 . S
C439 N443 1.413 . S
C440 H433 0.930 . S
C440 C439 1.393 . S
C440 C441 1.409 . S
C441 C440 1.409 . S
C441 C442 1.370 1_565 S
C442 H434 0.930 . S
C442 C438 1.390 . S
C442 C441 1.370 1_545 S
N443 C436 1.286 . S
N443 C439 1.413 . S
H444 C449 0.930 1_554 S
H445 C452 0.930 . S
H446 C454 0.930 . S
H447 C448 1.016 . S
C448 H447 1.016 . S
C448 N455 1.286 . S
C449 H444 0.930 1_556 S
C449 C450 1.397 1_545 S
C449 C451 1.361 . S
C450 C449 1.397 1_565 S
C450 C454 1.390 . S
C451 C449 1.361 . S
C451 C452 1.393 . S
C451 N455 1.413 . S
C452 H445 0.930 . S
C452 C451 1.393 . S
C452 C453 1.399 . S
C453 C452 1.399 . S
C453 C454 1.381 1_545 S
C454 H446 0.930 . S
C454 C450 1.390 . S
C454 C453 1.381 1_565 S
N455 C448 1.286 . S
N455 C451 1.413 . S
H456 C461 0.930 . S
H457 C464 0.930 . S
H458 C466 0.930 . S
H459 C460 1.016 . S
C460 H459 1.016 . S
C460 N467 1.286 . S
C461 H456 0.930 . S
C461 C462 1.397 . S
C461 C463 1.361 . S
C462 C461 1.397 . S
C462 C466 1.390 . S
C463 C461 1.361 . S
C463 C464 1.393 . S
C463 N467 1.413 . S
C464 H457 0.930 . S
C464 C463 1.393 . S
C464 C465 1.399 . S
C465 C464 1.399 . S
C465 C466 1.381 . S
C466 H458 0.930 . S
C466 C462 1.390 . S
C466 C465 1.381 . S
N467 C460 1.286 . S
N467 C463 1.413 . S
H468 C473 0.930 1_455 S
H469 C476 0.930 . S
H470 C478 0.930 . S
H471 C472 1.016 . S
C472 H471 1.016 . S
C472 N479 1.286 . S
C473 H468 0.930 1_655 S
C473 C474 1.397 1_554 S
C473 C475 1.361 . S
C474 C473 1.397 1_556 S
C474 C478 1.390 . S
C475 C473 1.361 . S
C475 C476 1.393 . S
C475 N479 1.413 . S
C476 H469 0.930 . S
C476 C475 1.393 . S
C476 C477 1.399 . S
C477 C476 1.399 . S
C477 C478 1.381 1_554 S
C478 H470 0.930 . S
C478 C474 1.390 . S
C478 C477 1.381 1_556 S
N479 C472 1.286 . S
N479 C475 1.413 . S
H480 C485 0.930 1_655 S
H481 C488 0.930 . S
H482 C490 0.930 . S
H483 C484 1.016 . S
C484 H483 1.016 . S
C484 N491 1.286 . S
C485 H480 0.930 1_455 S
C485 C486 1.397 . S
C485 C487 1.361 . S
C486 C485 1.397 . S
C486 C490 1.390 . S
C487 C485 1.361 . S
C487 C488 1.393 . S
C487 N491 1.413 . S
C488 H481 0.930 . S
C488 C487 1.393 . S
C488 C489 1.399 . S
C489 C488 1.399 . S
C489 C490 1.381 . S
C490 H482 0.930 . S
C490 C486 1.390 . S
C490 C489 1.381 . S
N491 C484 1.286 . S
N491 C487 1.413 . S
H492 C497 0.930 . S
H493 C500 0.930 . S
H494 C502 0.930 . S
H495 C496 1.016 . S
C496 H495 1.016 . S
C496 N503 1.286 . S
C497 H492 0.930 . S
C497 C498 1.397 . S
C497 C499 1.361 1_554 S
C498 C497 1.397 . S
C498 C502 1.390 . S
C499 C497 1.361 1_556 S
C499 C500 1.393 . S
C499 N503 1.413 . S
C500 H493 0.930 . S
C500 C499 1.393 . S
C500 C501 1.409 . S
C501 C500 1.409 . S
C501 C502 1.369 1_556 S
C502 H494 0.930 . S
C502 C498 1.390 . S
C502 C501 1.369 1_554 S
N503 C496 1.286 . S
N503 C499 1.413 . S
H504 C509 0.930 . S
H505 C512 0.930 . S
H506 C514 0.930 . S
H507 C508 1.016 . S
C508 H507 1.016 . S
C508 N515 1.286 . S
C509 H504 0.930 . S
C509 C510 1.397 . S
C509 C511 1.361 . S
C510 C509 1.397 . S
C510 C514 1.390 . S
C511 C509 1.361 . S
C511 C512 1.393 . S
C511 N515 1.413 . S
C512 H505 0.930 . S
C512 C511 1.393 . S
C512 C513 1.399 . S
C513 C512 1.399 . S
C513 C514 1.381 . S
C514 H506 0.930 . S
C514 C510 1.390 . S
C514 C513 1.381 . S
N515 C508 1.286 . S
N515 C511 1.413 . S
H516 C521 0.930 1_545 S
H517 C524 0.930 . S
H518 C526 0.930 . S
H519 C520 1.016 . S
C520 H519 1.016 . S
C520 N527 1.286 . S
C521 H516 0.930 1_565 S
C521 C522 1.397 1_455 S
C521 C523 1.361 . S
C522 C521 1.397 1_655 S
C522 C526 1.390 . S
C523 C521 1.361 . S
C523 C524 1.393 . S
C523 N527 1.413 . S
C524 H517 0.930 . S
C524 C523 1.393 . S
C524 C525 1.399 . S
C525 C524 1.399 . S
C525 C526 1.381 1_455 S
C526 H518 0.930 . S
C526 C522 1.390 . S
C526 C525 1.381 1_655 S
N527 C520 1.286 . S
N527 C523 1.413 . S
H528 C533 0.930 1_565 S
H529 C536 0.930 . S
H530 C538 0.930 . S
H531 C532 1.016 . S
C532 H531 1.016 . S
C532 N539 1.286 . S
C533 H528 0.930 1_545 S
C533 C534 1.397 . S
C533 C535 1.361 . S
C534 C533 1.397 . S
C534 C538 1.390 . S
C535 C533 1.361 . S
C535 C536 1.393 . S
C535 N539 1.413 . S
C536 H529 0.930 . S
C536 C535 1.393 . S
C536 C537 1.399 . S
C537 C536 1.399 . S
C537 C538 1.381 . S
C538 H530 0.930 . S
C538 C534 1.390 . S
C538 C537 1.381 . S
N539 C532 1.286 . S
N539 C535 1.413 . S
H540 C545 0.930 . S
H541 C548 0.930 . S
H542 C550 0.930 . S
H543 C544 1.016 . S
C544 H543 1.016 . S
C544 N551 1.286 . S
C545 H540 0.930 . S
C545 C546 1.397 . S
C545 C547 1.361 1_455 S
C546 C545 1.397 . S
C546 C550 1.390 . S
C547 C545 1.361 1_655 S
C547 C548 1.393 . S
C547 N551 1.413 . S
C548 H541 0.930 . S
C548 C547 1.393 . S
C548 C549 1.410 . S
C549 C548 1.410 . S
C549 C550 1.369 1_655 S
C550 H542 0.930 . S
C550 C546 1.390 . S
C550 C549 1.369 1_455 S
N551 C544 1.286 . S
N551 C547 1.413 . S
C546 C8 1.779 . S
C510 C19 1.963 . S
C534 C30 1.580 . S
C522 C41 1.923 1_565 S
C438 C52 1.779 . S
C63 C450 1.923 1_554 S
C414 C74 1.963 . S
C85 C426 1.580 . S
C498 C96 1.779 . S
C107 C474 1.923 1_455 S
C118 C462 1.963 . S
C486 C129 1.580 . S
C402 C140 1.605 . S
C151 C366 1.730 . S
C390 C162 1.396 . S
C173 C378 1.715 . S
C294 C184 1.605 . S
C306 C195 1.715 . S
C206 C270 1.730 . S
C217 C282 1.396 . S
C228 C354 1.605 . S
C239 C330 1.715 . S
C318 C250 1.730 . S
C261 C342 1.396 . S
C273 C7 1.645 . S
C285 C18 1.788 . S
C29 C297 1.532 1_565 S
C40 C309 1.487 1_545 S
C321 C51 1.645 . S
C62 C333 1.487 1_554 S
C345 C73 1.788 . S
C357 C84 1.532 1_554 S
C369 C95 1.645 . S
C106 C381 1.487 1_455 S
C117 C393 1.788 . S
C128 C405 1.531 1_655 S
C139 C417 1.381 . S
C150 C429 1.405 . S
C161 C441 1.318 1_545 S
C172 C453 1.249 1_565 S
C183 C465 1.381 . S
C477 C194 1.249 1_554 S
C489 C205 1.405 . S
C501 C216 1.318 1_556 S
C513 C227 1.381 . S
C238 C525 1.249 1_655 S
C249 C537 1.405 . S
C260 C549 1.318 1_455 S
C5 C364 1.610 . S
C400 C16 1.747 . S
C27 C376 1.482 1_565 S
C388 C38 1.845 1_565 S
C49 C268 1.610 . S
C60 C280 1.845 1_554 S
C71 C292 1.747 . S
C82 C304 1.482 1_556 S
C316 C93 1.610 . S
C340 C104 1.845 1_655 S
C115 C352 1.747 . S
C126 C328 1.482 1_655 S
C508 C137 1.061 . S
C544 C148 1.125 . S
C159 C520 1.037 . S
C532 C170 1.204 . S
C181 C412 1.061 . S
C192 C424 1.204 . S
C203 C436 1.125 . S
C448 C214 1.037 . S
C460 C225 1.061 . S
C484 C236 1.204 . S
C247 C496 1.125 . S
C472 C258 1.037 . S
