# Generated by pormake.
# Topology ctn, (3,4)-cn, num edge types: 1
# Building blocks:
#     Node 0, Type 0, BuildingBlock: KAKCAD_clean_linker_0, # of connection points: 3
#     Node 1, Type 0, BuildingBlock: KAKCAD_clean_linker_0, # of connection points: 3
#     Node 2, Type 0, BuildingBlock: KAKCAD_clean_linker_0, # of connection points: 3
#     Node 3, Type 0, BuildingBlock: KAKCAD_clean_linker_0, # of connection points: 3
#     Node 4, Type 0, BuildingBlock: KAKCAD_clean_linker_0, # of connection points: 3
#     Node 5, Type 0, BuildingBlock: KAKCAD_clean_linker_0, # of connection points: 3
#     Node 6, Type 0, BuildingBlock: KAKCAD_clean_linker_0, # of connection points: 3
#     Node 7, Type 0, BuildingBlock: KAKCAD_clean_linker_0, # of connection points: 3
#     Node 8, Type 0, BuildingBlock: KAKCAD_clean_linker_0, # of connection points: 3
#     Node 9, Type 0, BuildingBlock: KAKCAD_clean_linker_0, # of connection points: 3
#     Node 10, Type 0, BuildingBlock: KAKCAD_clean_linker_0, # of connection points: 3
#     Node 11, Type 0, BuildingBlock: KAKCAD_clean_linker_0, # of connection points: 3
#     Node 12, Type 0, BuildingBlock: KAKCAD_clean_linker_0, # of connection points: 3
#     Node 13, Type 0, BuildingBlock: KAKCAD_clean_linker_0, # of connection points: 3
#     Node 14, Type 0, BuildingBlock: KAKCAD_clean_linker_0, # of connection points: 3
#     Node 15, Type 0, BuildingBlock: KAKCAD_clean_linker_0, # of connection points: 3
#     Node 16, Type 1, BuildingBlock: NAHDIM_clean_sbu_0, # of connection points: 4
#     Node 17, Type 1, BuildingBlock: NAHDIM_clean_sbu_0, # of connection points: 4
#     Node 18, Type 1, BuildingBlock: NAHDIM_clean_sbu_0, # of connection points: 4
#     Node 19, Type 1, BuildingBlock: NAHDIM_clean_sbu_0, # of connection points: 4
#     Node 20, Type 1, BuildingBlock: NAHDIM_clean_sbu_0, # of connection points: 4
#     Node 21, Type 1, BuildingBlock: NAHDIM_clean_sbu_0, # of connection points: 4
#     Node 22, Type 1, BuildingBlock: NAHDIM_clean_sbu_0, # of connection points: 4
#     Node 23, Type 1, BuildingBlock: NAHDIM_clean_sbu_0, # of connection points: 4
#     Node 24, Type 1, BuildingBlock: NAHDIM_clean_sbu_0, # of connection points: 4
#     Node 25, Type 1, BuildingBlock: NAHDIM_clean_sbu_0, # of connection points: 4
#     Node 26, Type 1, BuildingBlock: NAHDIM_clean_sbu_0, # of connection points: 4
#     Node 27, Type 1, BuildingBlock: NAHDIM_clean_sbu_0, # of connection points: 4
#     Edge 28, Type (0, 1), BuildingBlock: AJUNOK_clean_linker_0, # of connection points: 2
#     Edge 29, Type (0, 1), BuildingBlock: AJUNOK_clean_linker_0, # of connection points: 2
#     Edge 30, Type (0, 1), BuildingBlock: AJUNOK_clean_linker_0, # of connection points: 2
#     Edge 31, Type (0, 1), BuildingBlock: AJUNOK_clean_linker_0, # of connection points: 2
#     Edge 32, Type (0, 1), BuildingBlock: AJUNOK_clean_linker_0, # of connection points: 2
#     Edge 33, Type (0, 1), BuildingBlock: AJUNOK_clean_linker_0, # of connection points: 2
#     Edge 34, Type (0, 1), BuildingBlock: AJUNOK_clean_linker_0, # of connection points: 2
#     Edge 35, Type (0, 1), BuildingBlock: AJUNOK_clean_linker_0, # of connection points: 2
#     Edge 36, Type (0, 1), BuildingBlock: AJUNOK_clean_linker_0, # of connection points: 2
#     Edge 37, Type (0, 1), BuildingBlock: AJUNOK_clean_linker_0, # of connection points: 2
#     Edge 38, Type (0, 1), BuildingBlock: AJUNOK_clean_linker_0, # of connection points: 2
#     Edge 39, Type (0, 1), BuildingBlock: AJUNOK_clean_linker_0, # of connection points: 2
#     Edge 40, Type (0, 1), BuildingBlock: AJUNOK_clean_linker_0, # of connection points: 2
#     Edge 41, Type (0, 1), BuildingBlock: AJUNOK_clean_linker_0, # of connection points: 2
#     Edge 42, Type (0, 1), BuildingBlock: AJUNOK_clean_linker_0, # of connection points: 2
#     Edge 43, Type (0, 1), BuildingBlock: AJUNOK_clean_linker_0, # of connection points: 2
#     Edge 44, Type (0, 1), BuildingBlock: AJUNOK_clean_linker_0, # of connection points: 2
#     Edge 45, Type (0, 1), BuildingBlock: AJUNOK_clean_linker_0, # of connection points: 2
#     Edge 46, Type (0, 1), BuildingBlock: AJUNOK_clean_linker_0, # of connection points: 2
#     Edge 47, Type (0, 1), BuildingBlock: AJUNOK_clean_linker_0, # of connection points: 2
#     Edge 48, Type (0, 1), BuildingBlock: AJUNOK_clean_linker_0, # of connection points: 2
#     Edge 49, Type (0, 1), BuildingBlock: AJUNOK_clean_linker_0, # of connection points: 2
#     Edge 50, Type (0, 1), BuildingBlock: AJUNOK_clean_linker_0, # of connection points: 2
#     Edge 51, Type (0, 1), BuildingBlock: AJUNOK_clean_linker_0, # of connection points: 2
#     Edge 52, Type (0, 1), BuildingBlock: AJUNOK_clean_linker_0, # of connection points: 2
#     Edge 53, Type (0, 1), BuildingBlock: AJUNOK_clean_linker_0, # of connection points: 2
#     Edge 54, Type (0, 1), BuildingBlock: AJUNOK_clean_linker_0, # of connection points: 2
#     Edge 55, Type (0, 1), BuildingBlock: AJUNOK_clean_linker_0, # of connection points: 2
#     Edge 56, Type (0, 1), BuildingBlock: AJUNOK_clean_linker_0, # of connection points: 2
#     Edge 57, Type (0, 1), BuildingBlock: AJUNOK_clean_linker_0, # of connection points: 2
#     Edge 58, Type (0, 1), BuildingBlock: AJUNOK_clean_linker_0, # of connection points: 2
#     Edge 59, Type (0, 1), BuildingBlock: AJUNOK_clean_linker_0, # of connection points: 2
#     Edge 60, Type (0, 1), BuildingBlock: AJUNOK_clean_linker_0, # of connection points: 2
#     Edge 61, Type (0, 1), BuildingBlock: AJUNOK_clean_linker_0, # of connection points: 2
#     Edge 62, Type (0, 1), BuildingBlock: AJUNOK_clean_linker_0, # of connection points: 2
#     Edge 63, Type (0, 1), BuildingBlock: AJUNOK_clean_linker_0, # of connection points: 2
#     Edge 64, Type (0, 1), BuildingBlock: AJUNOK_clean_linker_0, # of connection points: 2
#     Edge 65, Type (0, 1), BuildingBlock: AJUNOK_clean_linker_0, # of connection points: 2
#     Edge 66, Type (0, 1), BuildingBlock: AJUNOK_clean_linker_0, # of connection points: 2
#     Edge 67, Type (0, 1), BuildingBlock: AJUNOK_clean_linker_0, # of connection points: 2
#     Edge 68, Type (0, 1), BuildingBlock: AJUNOK_clean_linker_0, # of connection points: 2
#     Edge 69, Type (0, 1), BuildingBlock: AJUNOK_clean_linker_0, # of connection points: 2
#     Edge 70, Type (0, 1), BuildingBlock: AJUNOK_clean_linker_0, # of connection points: 2
#     Edge 71, Type (0, 1), BuildingBlock: AJUNOK_clean_linker_0, # of connection points: 2
#     Edge 72, Type (0, 1), BuildingBlock: AJUNOK_clean_linker_0, # of connection points: 2
#     Edge 73, Type (0, 1), BuildingBlock: AJUNOK_clean_linker_0, # of connection points: 2
#     Edge 74, Type (0, 1), BuildingBlock: AJUNOK_clean_linker_0, # of connection points: 2
#     Edge 75, Type (0, 1), BuildingBlock: AJUNOK_clean_linker_0, # of connection points: 2
# Relax obj value: 0.002
# Max RMSD: 0.032
# Mean RMSD: 0.017
data_MOF--net-ctn--node1-NAHDIM_clean_sbu_0--node2-KAKCAD_clean_linker_0--edge1-AJUNOK_clean_linker_0
_symmetry_space_group_name_H-M    P1
_symmetry_Int_Tables_number       1
_symmetry_cell_setting            triclinic
loop_
_symmetry_equiv_pos_as_xyz
'x, y, z'
_cell_length_a     52.823245
_cell_length_b     53.061727
_cell_length_c     52.448478
_cell_angle_alpha  91.302277
_cell_angle_beta   90.388897
_cell_angle_gamma 92.44695
loop_
_atom_site_label
_atom_site_type_symbol
_atom_site_fract_x
_atom_site_fract_y
_atom_site_fract_z
_atom_type_partial_charge
C0 C 0.03399 0.10108 0.96354 0.0
C1 C 0.02915 0.12583 0.97164 0.0
C2 C 0.03763 0.08232 0.98136 0.0
C3 C 0.03635 0.08787 0.00767 0.0
C4 C 0.03138 0.11264 0.0157 0.0
C5 C 0.02773 0.13135 0.9979 0.0
C6 C 0.04003 0.06796 0.02673 0.0
C7 C 0.05903 0.05042 0.02345 0.0
C8 C 0.06288 0.0319 0.04168 0.0
C9 C 0.04739 0.03104 0.06337 0.0
C10 C 0.02831 0.0484 0.067 0.0
C11 C 0.02472 0.06669 0.04851 0.0
C12 C 0.01222 0.0476 0.09016 0.0
C13 C 0.00276 0.02445 0.09951 0.0
C14 C 0.0062 0.07005 0.1031 0.0
C15 C 0.99112 0.06936 0.12489 0.0
C16 C 0.98181 0.04621 0.13428 0.0
C17 C 0.08333 0.01369 0.03827 0.0
C18 C 0.08768 0.00241 0.01426 0.0
C19 C 0.09865 0.00742 0.05904 0.0
C20 C 0.11788 0.99035 0.05586 0.0
C21 C 0.1223 0.97923 0.03182 0.0
C22 C 0.1069 0.98532 0.01109 0.0
C23 C 0.98766 0.02377 0.1213 0.0
H24 H 0.03514 0.0963 0.94341 0.0
H25 H 0.04111 0.06337 0.97452 0.0
H26 H 0.0305 0.11764 0.0358 0.0
H27 H 0.02354 0.15013 0.00471 0.0
H28 H 0.07136 0.05168 0.00706 0.0
H29 H 0.00959 0.07969 0.05086 0.0
H30 H 0.05028 0.01688 0.07754 0.0
H31 H 0.00677 0.00684 0.08982 0.0
H32 H 0.01335 0.08818 0.09653 0.0
H33 H 0.98655 0.08697 0.13425 0.0
H34 H 0.07603 0.0066 0.99795 0.0
H35 H 0.09596 0.01591 0.07774 0.0
H36 H 0.98069 0.00567 0.12813 0.0
H37 H 0.1099 0.977 0.99236 0.0
H38 H 0.12917 0.98569 0.07227 0.0
C39 C 0.35864 0.75161 0.27773 0.0
C40 C 0.37205 0.73114 0.28644 0.0
C41 C 0.33846 0.74769 0.2605 0.0
C42 C 0.33116 0.72319 0.25177 0.0
C43 C 0.34441 0.70269 0.26078 0.0
C44 C 0.36461 0.70663 0.27794 0.0
C45 C 0.31006 0.71892 0.23305 0.0
C46 C 0.30792 0.73469 0.21207 0.0
C47 C 0.28866 0.73015 0.19372 0.0
C48 C 0.27161 0.7093 0.19642 0.0
C49 C 0.27315 0.69342 0.21749 0.0
C50 C 0.29236 0.69867 0.23582 0.0
C51 C 0.2549 0.67132 0.22027 0.0
C52 C 0.22976 0.67211 0.21133 0.0
C53 C 0.26246 0.64917 0.23193 0.0
C54 C 0.24538 0.6286 0.23477 0.0
C55 C 0.22047 0.6292 0.22525 0.0
C56 C 0.28645 0.7471 0.17167 0.0
C57 C 0.28962 0.77342 0.17509 0.0
C58 C 0.28094 0.73714 0.14708 0.0
C59 C 0.27864 0.7531 0.12644 0.0
C60 C 0.28198 0.77938 0.12986 0.0
C61 C 0.28736 0.78938 0.15442 0.0
C62 C 0.21289 0.65125 0.21353 0.0
H63 H 0.36399 0.7707 0.28403 0.0
H64 H 0.32847 0.76384 0.25414 0.0
H65 H 0.3394 0.6836 0.25426 0.0
H66 H 0.37435 0.69047 0.28467 0.0
H67 H 0.32175 0.7501 0.20958 0.0
H68 H 0.29341 0.68726 0.25261 0.0
H69 H 0.2571 0.70552 0.18201 0.0
H70 H 0.22287 0.6889 0.20279 0.0
H71 H 0.28167 0.64749 0.23878 0.0
H72 H 0.25172 0.61233 0.24469 0.0
H73 H 0.29354 0.78173 0.19383 0.0
H74 H 0.27859 0.71696 0.14371 0.0
H75 H 0.19387 0.65243 0.20594 0.0
H76 H 0.29 0.80957 0.1576 0.0
H77 H 0.27402 0.74488 0.10781 0.0
C78 C 0.99726 0.48154 0.13106 0.0
C79 C 0.02388 0.48179 0.1306 0.0
C80 C 0.98315 0.47794 0.10853 0.0
C81 C 0.99534 0.47417 0.08511 0.0
C82 C 0.02192 0.47384 0.08472 0.0
C83 C 0.03604 0.47764 0.10722 0.0
C84 C 0.98041 0.47101 0.06107 0.0
C85 C 0.9607 0.48713 0.05593 0.0
C86 C 0.94686 0.48475 0.03298 0.0
C87 C 0.95303 0.46594 0.01502 0.0
C88 C 0.97249 0.44934 0.01992 0.0
C89 C 0.98605 0.45209 0.04308 0.0
C90 C 0.97852 0.42906 1.00101 0.0
C91 C 0.95916 0.41655 0.98634 0.0
C92 C 0.00367 0.42189 0.99753 0.0
C93 C 0.00923 0.40261 0.98011 0.0
C94 C 0.98987 0.39046 0.96547 0.0
C95 C 0.9259 0.50183 0.02782 0.0
C96 C 0.90872 0.50792 0.04715 0.0
C97 C 0.92273 0.51198 0.00352 0.0
C98 C 0.90281 0.52776 0.99866 0.0
C99 C 0.8857 0.53384 0.01801 0.0
C100 C 0.88882 0.5237 0.04228 0.0
C101 C 0.96483 0.3976 0.9686 0.0
H102 H 0.98732 0.484 0.14887 0.0
H103 H 0.96266 0.47788 0.10946 0.0
H104 H 0.03184 0.47118 0.06691 0.0
H105 H 0.05653 0.47783 0.10625 0.0
H106 H 0.95658 0.50204 0.06957 0.0
H107 H 1.00066 0.43912 0.0475 0.0
H108 H 0.94252 0.46421 0.99723 0.0
H109 H 0.93952 0.42109 0.98878 0.0
H110 H 0.01917 0.43132 0.00806 0.0
H111 H 0.0287 0.39737 0.97783 0.0
H112 H 0.91036 0.50008 0.06595 0.0
H113 H 0.93581 0.50793 0.9883 0.0
H114 H 0.94962 0.38823 0.95756 0.0
H115 H 0.87557 0.5276 0.0574 0.0
H116 H 0.90088 0.5354 0.9798 0.0
C117 C 0.7121 0.74393 0.13077 0.0
C118 C 0.73702 0.73637 0.12716 0.0
C119 C 0.70633 0.76006 0.15117 0.0
C120 C 0.72539 0.76908 0.16831 0.0
C121 C 0.7503 0.76143 0.16469 0.0
C122 C 0.75605 0.74529 0.14432 0.0
C123 C 0.71945 0.78674 0.18965 0.0
C124 C 0.69735 0.78287 0.20412 0.0
C125 C 0.69178 0.79945 0.22442 0.0
C126 C 0.70846 0.82022 0.22995 0.0
C127 C 0.73061 0.82436 0.21574 0.0
C128 C 0.73597 0.80753 0.19565 0.0
C129 C 0.74823 0.84617 0.22208 0.0
C130 C 0.73889 0.87018 0.22711 0.0
C131 C 0.77449 0.84304 0.2235 0.0
C132 C 0.79103 0.86342 0.23018 0.0
C133 C 0.78163 0.88733 0.23546 0.0
C134 C 0.66877 0.795 0.24014 0.0
C135 C 0.6454 0.78764 0.22867 0.0
C136 C 0.67003 0.79832 0.26681 0.0
C137 C 0.64837 0.79467 0.28163 0.0
C138 C 0.62496 0.78767 0.27014 0.0
C139 C 0.62371 0.78399 0.24353 0.0
C140 C 0.75545 0.89059 0.23362 0.0
H141 H 0.69716 0.73777 0.11752 0.0
H142 H 0.68704 0.76591 0.1532 0.0
H143 H 0.76535 0.76776 0.17774 0.0
H144 H 0.77539 0.73964 0.14207 0.0
H145 H 0.68487 0.76651 0.20006 0.0
H146 H 0.75277 0.81099 0.18429 0.0
H147 H 0.70428 0.83316 0.24549 0.0
H148 H 0.71878 0.87321 0.22588 0.0
H149 H 0.78222 0.82473 0.21985 0.0
H150 H 0.81119 0.86053 0.23111 0.0
H151 H 0.64378 0.78503 0.20818 0.0
H152 H 0.68782 0.80359 0.27628 0.0
H153 H 0.74777 0.90887 0.23756 0.0
H154 H 0.60599 0.77814 0.23422 0.0
H155 H 0.64988 0.79759 0.3021 0.0
C156 C 0.96717 0.97962 0.39556 0.0
C157 C 0.97834 0.98575 0.37215 0.0
C158 C 0.98223 0.97623 0.41716 0.0
C159 C 0.00878 0.97909 0.41582 0.0
C160 C 0.0199 0.98537 0.39239 0.0
C161 C 0.00485 0.98871 0.37082 0.0
C162 C 0.02488 0.97579 0.4388 0.0
C163 C 0.01955 0.95596 0.45556 0.0
C164 C 0.03491 0.95267 0.47713 0.0
C165 C 0.05567 0.96959 0.48192 0.0
C166 C 0.06122 0.98959 0.4655 0.0
C167 C 0.04574 0.99251 0.44398 0.0
C168 C 0.08305 0.00755 0.47095 0.0
C169 C 0.08796 0.01673 0.49594 0.0
C170 C 0.09915 0.01565 0.45123 0.0
C171 C 0.11963 0.03261 0.45638 0.0
C172 C 0.12433 0.04194 0.48131 0.0
C173 C 0.02934 0.93164 0.49478 0.0
C174 C 0.00437 0.92585 0.50254 0.0
C175 C 0.04907 0.91757 0.50446 0.0
C176 C 0.04402 0.89844 0.52182 0.0
C177 C 0.01916 0.89305 0.53 0.0
C178 C 0.99934 0.90675 0.51998 0.0
C179 C 0.1084 0.03371 0.50106 0.0
H180 H 0.94677 0.97725 0.39711 0.0
H181 H 0.97306 0.97171 0.43499 0.0
H182 H 0.04029 0.98752 0.39065 0.0
H183 H 0.01395 0.99386 0.35313 0.0
H184 H 0.00383 0.94267 0.45144 0.0
H185 H 0.04956 0.00827 0.43159 0.0
H186 H 0.06755 0.96721 0.49855 0.0
H187 H 0.07581 0.01102 0.51152 0.0
H188 H 0.09606 0.00868 0.43184 0.0
H189 H 0.13166 0.03863 0.44083 0.0
H190 H 0.98878 0.93642 0.49552 0.0
H191 H 0.06846 0.92132 0.49858 0.0
H192 H 0.11185 0.04027 0.52053 0.0
H193 H 0.97993 0.90268 0.52563 0.0
H194 H 0.05963 0.88813 0.52921 0.0
C195 C 0.12806 0.71571 0.7399 0.0
C196 C 0.12343 0.7396 0.7303 0.0
C197 C 0.14882 0.71241 0.75598 0.0
C198 C 0.16526 0.73298 0.76296 0.0
C199 C 0.16065 0.75686 0.75325 0.0
C200 C 0.13995 0.76013 0.73709 0.0
C201 C 0.18682 0.72969 0.78076 0.0
C202 C 0.20207 0.70873 0.7782 0.0
C203 C 0.22238 0.70547 0.7951 0.0
C204 C 0.22736 0.72355 0.81471 0.0
C205 C 0.2122 0.74455 0.81774 0.0
C206 C 0.19198 0.74741 0.80063 0.0
C207 C 0.2171 0.76323 0.83903 0.0
C208 C 0.22431 0.75527 0.86333 0.0
C209 C 0.21434 0.78915 0.83532 0.0
C210 C 0.21835 0.80661 0.85546 0.0
C211 C 0.22529 0.79857 0.87977 0.0
C212 C 0.23823 0.68305 0.79252 0.0
C213 C 0.22696 0.65897 0.78731 0.0
C214 C 0.2647 0.68547 0.7956 0.0
C215 C 0.27951 0.6643 0.79376 0.0
C216 C 0.26818 0.64022 0.78891 0.0
C217 C 0.24178 0.6378 0.78549 0.0
C218 C 0.22852 0.77275 0.8834 0.0
H219 H 0.11558 0.69958 0.73496 0.0
H220 H 0.15169 0.69384 0.76336 0.0
H221 H 0.17308 0.77304 0.75812 0.0
H222 H 0.13661 0.77883 0.73027 0.0
H223 H 0.19845 0.6952 0.76268 0.0
H224 H 0.17969 0.76309 0.80322 0.0
H225 H 0.243 0.72115 0.82778 0.0
H226 H 0.22639 0.73546 0.867 0.0
H227 H 0.20921 0.79602 0.81678 0.0
H228 H 0.21577 0.8264 0.85207 0.0
H229 H 0.20661 0.65642 0.785 0.0
H230 H 0.27402 0.70379 0.79928 0.0
H231 H 0.23445 0.76602 0.90175 0.0
H232 H 0.23258 0.61953 0.78126 0.0
H233 H 0.29983 0.66671 0.79641 0.0
C234 C 0.99123 0.62621 0.51416 0.0
C235 C 0.98789 0.62297 0.54044 0.0
C236 C 0.98734 0.60586 0.497 0.0
C237 C 0.97996 0.5818 0.50573 0.0
C238 C 0.9764 0.57863 0.53204 0.0
C239 C 0.98028 0.59901 0.5492 0.0
C240 C 0.97584 0.56019 0.48738 0.0
C241 C 0.99243 0.55696 0.46685 0.0
C242 C 0.98821 0.53729 0.44868 0.0
C243 C 0.9673 0.52031 0.45174 0.0
C244 C 0.95077 0.52288 0.47248 0.0
C245 C 0.95513 0.543 0.49007 0.0
C246 C 0.92886 0.50467 0.47572 0.0
C247 C 0.91434 0.49571 0.45455 0.0
C248 C 0.92225 0.49613 0.50009 0.0
C249 C 0.90164 0.47912 0.50322 0.0
C250 C 0.88729 0.4701 0.48204 0.0
C251 C 0.00537 0.53482 0.42633 0.0
C252 C 0.01598 0.55644 0.41474 0.0
C253 C 0.01114 0.51095 0.41621 0.0
C254 C 0.02664 0.50882 0.39481 0.0
C255 C 0.03698 0.53047 0.38314 0.0
C256 C 0.03181 0.55428 0.39366 0.0
C257 C 0.89379 0.47859 0.45768 0.0
H258 H 0.99708 0.64448 0.50688 0.0
H259 H 0.98987 0.60906 0.47683 0.0
H260 H 0.97085 0.56032 0.53941 0.0
H261 H 0.97713 0.59606 0.56931 0.0
H262 H 0.00893 0.56966 0.46528 0.0
H263 H 0.94192 0.54572 0.50551 0.0
H264 H 0.96378 0.50508 0.43792 0.0
H265 H 0.91858 0.50223 0.43557 0.0
H266 H 0.93321 0.50237 0.51677 0.0
H267 H 0.89706 0.47278 0.5222 0.0
H268 H 0.01182 0.57517 0.42169 0.0
H269 H 0.0038 0.49383 0.42486 0.0
H270 H 0.88271 0.4723 0.4411 0.0
H271 H 0.04005 0.57135 0.38565 0.0
H272 H 0.03031 0.49018 0.38722 0.0
C273 C 0.80105 0.72986 0.86515 0.0
C274 C 0.77648 0.72012 0.87009 0.0
C275 C 0.80516 0.74751 0.84606 0.0
C276 C 0.78475 0.75591 0.83165 0.0
C277 C 0.76013 0.74634 0.83683 0.0
C278 C 0.75605 0.72863 0.85585 0.0
C279 C 0.78913 0.77454 0.81123 0.0
C280 C 0.8094 0.77213 0.79431 0.0
C281 C 0.81382 0.78962 0.7749 0.0
C282 C 0.79739 0.80965 0.77247 0.0
C283 C 0.7768 0.81222 0.78909 0.0
C284 C 0.77297 0.79463 0.80848 0.0
C285 C 0.75916 0.83314 0.78632 0.0
C286 C 0.76833 0.85777 0.78115 0.0
C287 C 0.73292 0.82864 0.78927 0.0
C288 C 0.71631 0.84833 0.78761 0.0
C289 C 0.72554 0.873 0.78301 0.0
C290 C 0.83531 0.78649 0.75699 0.0
C291 C 0.85858 0.77792 0.76584 0.0
C292 C 0.83256 0.79121 0.73083 0.0
C293 C 0.85244 0.78709 0.71394 0.0
C294 C 0.87538 0.77801 0.72282 0.0
C295 C 0.8783 0.77355 0.74892 0.0
C296 C 0.75167 0.87749 0.77945 0.0
H297 H 0.81712 0.72364 0.8759 0.0
H298 H 0.82431 0.75475 0.84273 0.0
H299 H 0.74404 0.75232 0.82596 0.0
H300 H 0.73686 0.72173 0.85957 0.0
H301 H 0.82135 0.75613 0.79585 0.0
H302 H 0.75763 0.79687 0.82186 0.0
H303 H 0.80053 0.82321 0.75756 0.0
H304 H 0.78844 0.86193 0.779 0.0
H305 H 0.72516 0.80981 0.79271 0.0
H306 H 0.69619 0.84423 0.78981 0.0
H307 H 0.86159 0.77453 0.7859 0.0
H308 H 0.81483 0.79744 0.72325 0.0
H309 H 0.75925 0.89636 0.77588 0.0
H310 H 0.89592 0.76673 0.75623 0.0
H311 H 0.84964 0.79035 0.69382 0.0
C312 C 0.30006 0.23723 0.37271 0.0
C313 C 0.27506 0.23023 0.37937 0.0
C314 C 0.3049 0.25224 0.35157 0.0
C315 C 0.28482 0.26055 0.33663 0.0
C316 C 0.25984 0.2531 0.34301 0.0
C317 C 0.25503 0.23803 0.36408 0.0
C318 C 0.28987 0.2774 0.31481 0.0
C319 C 0.30972 0.27284 0.29786 0.0
C320 C 0.31504 0.28909 0.27755 0.0
C321 C 0.30001 0.31009 0.27435 0.0
C322 C 0.27988 0.3148 0.29096 0.0
C323 C 0.27502 0.29837 0.31114 0.0
C324 C 0.26407 0.33704 0.28755 0.0
C325 C 0.27529 0.3607 0.28167 0.0
C326 C 0.23763 0.33484 0.29053 0.0
C327 C 0.2228 0.35586 0.28803 0.0
C328 C 0.23408 0.37956 0.28261 0.0
C329 C 0.33624 0.28409 0.25974 0.0
C330 C 0.359 0.27455 0.26882 0.0
C331 C 0.33389 0.28867 0.2335 0.0
C332 C 0.35378 0.28392 0.21685 0.0
C333 C 0.37635 0.27428 0.226 0.0
C334 C 0.37875 0.26953 0.25209 0.0
C335 C 0.26044 0.38172 0.2792 0.0
H336 H 0.31586 0.23153 0.38419 0.0
H337 H 0.32433 0.25785 0.34729 0.0
H338 H 0.244 0.25882 0.3316 0.0
H339 H 0.2356 0.23237 0.36835 0.0
H340 H 0.32069 0.25624 0.30021 0.0
H341 H 0.26008 0.30234 0.32453 0.0
H342 H 0.30396 0.32285 0.25891 0.0
H343 H 0.29561 0.36308 0.27941 0.0
H344 H 0.22836 0.31682 0.29472 0.0
H345 H 0.20251 0.35365 0.29071 0.0
H346 H 0.36172 0.27119 0.28892 0.0
H347 H 0.31652 0.29554 0.22571 0.0
H348 H 0.26959 0.39967 0.27455 0.0
H349 H 0.39605 0.2622 0.25959 0.0
H350 H 0.35137 0.28737 0.19671 0.0
C351 C 0.50398 0.98919 0.62928 0.0
C352 C 0.5305 0.9886 0.62771 0.0
C353 C 0.48877 0.98401 0.60772 0.0
C354 C 0.49975 0.97789 0.58417 0.0
C355 C 0.52628 0.97716 0.58263 0.0
C356 C 0.54148 0.98246 0.60417 0.0
C357 C 0.48358 0.97192 0.56135 0.0
C358 C 0.46287 0.98666 0.5557 0.0
C359 C 0.44746 0.98105 0.53417 0.0
C360 C 0.45292 0.96027 0.51832 0.0
C361 C 0.4735 0.94527 0.52371 0.0
C362 C 0.48874 0.9513 0.54523 0.0
C363 C 0.47894 0.92307 0.50714 0.0
C364 C 0.45919 0.90644 0.49833 0.0
C365 C 0.50399 0.91807 0.50042 0.0
C366 C 0.50918 0.8969 0.48532 0.0
C367 C 0.48944 0.88028 0.47655 0.0
C368 C 0.42572 0.99689 0.52822 0.0
C369 C 0.40961 0.0051 0.54768 0.0
C370 C 0.42089 0.00392 0.50301 0.0
C371 C 0.40034 0.01865 0.49738 0.0
C372 C 0.38406 0.02655 0.51678 0.0
C373 C 0.38902 0.01979 0.54202 0.0
C374 C 0.46439 0.88523 0.48326 0.0
H375 H 0.49494 0.99326 0.6473 0.0
H376 H 0.46838 0.98431 0.6096 0.0
H377 H 0.53531 0.97275 0.5647 0.0
H378 H 0.56187 0.98198 0.60237 0.0
H379 H 0.45913 0.00293 0.56775 0.0
H380 H 0.50426 0.93945 0.54988 0.0
H381 H 0.44107 0.95572 0.50176 0.0
H382 H 0.43973 0.90952 0.50353 0.0
H383 H 0.5196 0.93066 0.50668 0.0
H384 H 0.52865 0.89361 0.48033 0.0
H385 H 0.41266 0.99981 0.56725 0.0
H386 H 0.43321 0.99832 0.48766 0.0
H387 H 0.44884 0.87244 0.47727 0.0
H388 H 0.37673 0.02554 0.55734 0.0
H389 H 0.39735 0.02409 0.47784 0.0
C390 C 0.2158 0.24043 0.63062 0.0
C391 C 0.24107 0.23436 0.6262 0.0
C392 C 0.2098 0.2568 0.65076 0.0
C393 C 0.22898 0.26759 0.66677 0.0
C394 C 0.25423 0.26141 0.66238 0.0
C395 C 0.2602 0.245 0.64232 0.0
C396 C 0.22283 0.2857 0.68762 0.0
C397 C 0.2019 0.28102 0.70347 0.0
C398 C 0.1961 0.29813 0.72326 0.0
C399 C 0.21169 0.32009 0.7271 0.0
C400 C 0.2327 0.32513 0.7114 0.0
C401 C 0.23797 0.30784 0.69165 0.0
C402 C 0.24909 0.34847 0.71535 0.0
C403 C 0.23853 0.37162 0.72196 0.0
C404 C 0.27548 0.34783 0.71207 0.0
C405 C 0.29083 0.36984 0.71474 0.0
C406 C 0.28018 0.39293 0.72097 0.0
C407 C 0.17376 0.2931 0.73985 0.0
C408 C 0.15078 0.28313 0.72937 0.0
C409 C 0.17513 0.29846 0.76623 0.0
C410 C 0.15402 0.29406 0.78171 0.0
C411 C 0.13111 0.284 0.77121 0.0
C412 C 0.12971 0.27864 0.74486 0.0
C413 C 0.25396 0.3936 0.72489 0.0
H414 H 0.20071 0.23295 0.61817 0.0
H415 H 0.19022 0.26148 0.65342 0.0
H416 H 0.26939 0.26917 0.67458 0.0
H417 H 0.27981 0.24053 0.63946 0.0
H418 H 0.19045 0.26372 0.70075 0.0
H419 H 0.25359 0.31191 0.67889 0.0
H420 H 0.20741 0.33334 0.74232 0.0
H421 H 0.21828 0.37292 0.72433 0.0
H422 H 0.28436 0.33028 0.70755 0.0
H423 H 0.31108 0.3688 0.71208 0.0
H424 H 0.14893 0.27911 0.70909 0.0
H425 H 0.19257 0.30593 0.775 0.0
H426 H 0.24535 0.41125 0.72968 0.0
H427 H 0.1123 0.27089 0.73623 0.0
H428 H 0.15554 0.29885 0.80186 0.0
C429 C 0.86035 0.26056 0.77923 0.0
C430 C 0.87759 0.24177 0.78428 0.0
C431 C 0.83927 0.2553 0.76348 0.0
C432 C 0.83463 0.231 0.7529 0.0
C433 C 0.85128 0.21194 0.75863 0.0
C434 C 0.87264 0.2173 0.77406 0.0
C435 C 0.81268 0.22573 0.73557 0.0
C436 C 0.80865 0.2414 0.71485 0.0
C437 C 0.78809 0.23655 0.69807 0.0
C438 C 0.77126 0.21588 0.70251 0.0
C439 C 0.77483 0.20012 0.72334 0.0
C440 C 0.79578 0.20511 0.73966 0.0
C441 C 0.7565 0.17869 0.72821 0.0
C442 C 0.73033 0.18135 0.72468 0.0
C443 C 0.76498 0.15544 0.73647 0.0
C444 C 0.7477 0.13541 0.74118 0.0
C445 C 0.72157 0.13816 0.73776 0.0
C446 C 0.78441 0.25283 0.67572 0.0
C447 C 0.7882 0.2792 0.67803 0.0
C448 C 0.77734 0.2421 0.65182 0.0
C449 C 0.77437 0.25732 0.6307 0.0
C450 C 0.77854 0.28361 0.63295 0.0
C451 C 0.78523 0.29442 0.65688 0.0
C452 C 0.71309 0.16129 0.72927 0.0
H453 H 0.8631 0.27937 0.7875 0.0
H454 H 0.82646 0.27021 0.75969 0.0
H455 H 0.84813 0.19305 0.75063 0.0
H456 H 0.88555 0.20243 0.77757 0.0
H457 H 0.82204 0.25699 0.7114 0.0
H458 H 0.7986 0.19341 0.75602 0.0
H459 H 0.75532 0.21207 0.68969 0.0
H460 H 0.72308 0.19905 0.7186 0.0
H461 H 0.785 0.1526 0.73904 0.0
H462 H 0.75479 0.11779 0.74768 0.0
H463 H 0.79332 0.2881 0.69623 0.0
H464 H 0.77447 0.22186 0.64931 0.0
H465 H 0.69311 0.16382 0.72593 0.0
H466 H 0.78851 0.31464 0.65916 0.0
H467 H 0.76873 0.24851 0.6126 0.0
C468 C 0.5303 0.60899 0.47266 0.0
C469 C 0.52405 0.63259 0.48294 0.0
C470 C 0.53465 0.58885 0.48865 0.0
C471 C 0.53274 0.59186 0.51527 0.0
C472 C 0.52659 0.61555 0.52551 0.0
C473 C 0.52224 0.63565 0.50952 0.0
C474 C 0.53662 0.57029 0.53231 0.0
C475 C 0.55626 0.55369 0.52776 0.0
C476 C 0.55996 0.53331 0.54388 0.0
C477 C 0.54359 0.52955 0.5646 0.0
C478 C 0.5239 0.54591 0.56945 0.0
C479 C 0.52056 0.56621 0.55322 0.0
C480 C 0.50684 0.54184 0.59152 0.0
C481 C 0.49722 0.51749 0.59712 0.0
C482 C 0.50022 0.56227 0.60729 0.0
C483 C 0.48442 0.55843 0.62824 0.0
C484 C 0.47473 0.5341 0.63375 0.0
C485 C 0.58099 0.51601 0.53929 0.0
C486 C 0.58651 0.5074 0.51447 0.0
C487 C 0.59547 0.50768 0.55981 0.0
C488 C 0.61489 0.49104 0.55565 0.0
C489 C 0.62039 0.48242 0.53087 0.0
C490 C 0.60595 0.49071 0.51032 0.0
C491 C 0.48135 0.51367 0.61801 0.0
H492 H 0.53133 0.60594 0.45221 0.0
H493 H 0.53895 0.57076 0.48013 0.0
H494 H 0.52531 0.61862 0.54594 0.0
H495 H 0.51761 0.65369 0.51795 0.0
H496 H 0.56911 0.55705 0.51207 0.0
H497 H 0.50499 0.57849 0.55652 0.0
H498 H 0.54623 0.51385 0.57707 0.0
H499 H 0.50175 0.50142 0.58516 0.0
H500 H 0.50766 0.58119 0.60371 0.0
H501 H 0.48014 0.57444 0.64038 0.0
H502 H 0.57554 0.51323 0.49828 0.0
H503 H 0.59188 0.51413 0.57914 0.0
H504 H 0.47405 0.49473 0.62175 0.0
H505 H 0.60979 0.48434 0.49101 0.0
H506 H 0.62541 0.48464 0.5719 0.0
C507 C 0.46101 0.48308 0.9085 0.0
C508 C 0.47008 0.48567 0.88355 0.0
C509 C 0.47779 0.4793 0.92866 0.0
C510 C 0.50396 0.4784 0.92425 0.0
C511 C 0.51299 0.48107 0.89927 0.0
C512 C 0.49617 0.48445 0.87907 0.0
C513 C 0.52183 0.47491 0.94567 0.0
C514 C 0.5173 0.45551 0.96307 0.0
C515 C 0.53426 0.45202 0.98334 0.0
C516 C 0.55562 0.46858 0.98633 0.0
C517 C 0.56032 0.4882 0.96921 0.0
C518 C 0.54344 0.49105 0.94877 0.0
C519 C 0.58261 0.50595 0.97298 0.0
C520 C 0.58877 0.51593 0.9974 0.0
C521 C 0.59773 0.51322 0.95221 0.0
C522 C 0.61863 0.53004 0.95584 0.0
C523 C 0.62475 0.53997 0.98027 0.0
C524 C 0.52988 0.43097 1.00125 0.0
C525 C 0.50549 0.4251 0.01058 0.0
C526 C 0.55016 0.41664 0.00924 0.0
C527 C 0.54616 0.39693 0.02615 0.0
C528 C 0.52178 0.39102 0.03539 0.0
C529 C 0.50151 0.40538 0.02755 0.0
C530 C 0.60957 0.53283 1.00099 0.0
H531 H 0.44092 0.48375 0.91233 0.0
H532 H 0.47037 0.47742 0.94776 0.0
H533 H 0.53306 0.48027 0.89534 0.0
H534 H 0.50354 0.48637 0.85995 0.0
H535 H 0.50092 0.4427 0.96036 0.0
H536 H 0.54669 0.50637 0.93569 0.0
H537 H 0.56865 0.46622 0.00206 0.0
H538 H 0.5773 0.51095 0.01372 0.0
H539 H 0.59353 0.50575 0.93319 0.0
H540 H 0.62982 0.53553 0.93949 0.0
H541 H 0.48953 0.43595 0.00503 0.0
H542 H 0.56914 0.42053 0.00223 0.0
H543 H 0.61389 0.54024 0.02001 0.0
H544 H 0.48252 0.40123 0.03442 0.0
H545 H 0.56221 0.38645 0.0322 0.0
C546 C 0.63387 0.20946 0.23994 0.0
C547 C 0.62621 0.23303 0.23181 0.0
C548 C 0.65547 0.20776 0.25528 0.0
C549 C 0.66986 0.2296 0.2628 0.0
C550 C 0.6625 0.25311 0.25411 0.0
C551 C 0.64095 0.25479 0.23874 0.0
C552 C 0.692 0.22803 0.28029 0.0
C553 C 0.7093 0.2088 0.27713 0.0
C554 C 0.73003 0.20709 0.2939 0.0
C555 C 0.73331 0.22501 0.31396 0.0
C556 C 0.71622 0.24437 0.31746 0.0
C557 C 0.69561 0.24564 0.30053 0.0
C558 C 0.71967 0.26307 0.33894 0.0
C559 C 0.72772 0.25551 0.36311 0.0
C560 C 0.71485 0.28865 0.33548 0.0
C561 C 0.71782 0.30617 0.3557 0.0
C562 C 0.72572 0.29855 0.37986 0.0
C563 C 0.74813 0.18647 0.29076 0.0
C564 C 0.73939 0.16174 0.28415 0.0
C565 C 0.77427 0.19123 0.29493 0.0
C566 C 0.79113 0.17169 0.29307 0.0
C567 C 0.78228 0.14696 0.28691 0.0
C568 C 0.75631 0.14222 0.28214 0.0
C569 C 0.73085 0.27307 0.38328 0.0
H570 H 0.6231 0.19233 0.2345 0.0
H571 H 0.66054 0.18938 0.26174 0.0
H572 H 0.67339 0.27025 0.25926 0.0
H573 H 0.6355 0.27319 0.23269 0.0
H574 H 0.70689 0.19545 0.26126 0.0
H575 H 0.68187 0.25998 0.30357 0.0
H576 H 0.74919 0.22383 0.32699 0.0
H577 H 0.73138 0.23595 0.36657 0.0
H578 H 0.70899 0.29522 0.31704 0.0
H579 H 0.71376 0.32569 0.35249 0.0
H580 H 0.71938 0.15731 0.28109 0.0
H581 H 0.78175 0.21012 0.29952 0.0
H582 H 0.73751 0.2667 0.40152 0.0
H583 H 0.74901 0.12329 0.2774 0.0
H584 H 0.81115 0.17594 0.29631 0.0
C585 C 0.49172 0.12612 0.01072 0.0
C586 C 0.48887 0.12301 0.03708 0.0
C587 C 0.48826 0.10552 0.99379 0.0
C588 C 0.48185 0.08137 0.00289 0.0
C589 C 0.47903 0.07828 0.02929 0.0
C590 C 0.48262 0.09888 0.04622 0.0
C591 C 0.47818 0.05946 0.98489 0.0
C592 C 0.49515 0.05593 0.96475 0.0
C593 C 0.49184 0.03531 0.94755 0.0
C594 C 0.47119 0.01807 0.95082 0.0
C595 C 0.45406 0.02122 0.97094 0.0
C596 C 0.45772 0.04203 0.98783 0.0
C597 C 0.4323 0.00287 0.97434 0.0
C598 C 0.41833 0.99304 0.95316 0.0
C599 C 0.4252 0.99518 0.99887 0.0
C600 C 0.40458 0.9782 0.00215 0.0
C601 C 0.39072 0.96837 0.98098 0.0
C602 C 0.51005 0.03174 0.92633 0.0
C603 C 0.51995 0.05258 0.91294 0.0
C604 C 0.51783 0.0075 0.91941 0.0
C605 C 0.53498 0.0042 0.89954 0.0
C606 C 0.54479 0.02505 0.88622 0.0
C607 C 0.53723 0.04927 0.89319 0.0
C608 C 0.39776 0.97597 0.95646 0.0
H609 H 0.49693 0.14446 0.00321 0.0
H610 H 0.4904 0.10853 0.97355 0.0
H611 H 0.47438 0.05986 0.0369 0.0
H612 H 0.48037 0.09598 0.06648 0.0
H613 H 0.51137 0.06895 0.96287 0.0
H614 H 0.44424 0.04504 0.00296 0.0
H615 H 0.46846 0.00212 0.93768 0.0
H616 H 0.42299 0.99889 0.93405 0.0
H617 H 0.43574 0.0021 0.01557 0.0
H618 H 0.3996 0.97255 0.02126 0.0
H619 H 0.51413 0.07147 0.91749 0.0
H620 H 0.511 0.99108 0.9296 0.0
H621 H 0.38708 0.96906 0.93985 0.0
H622 H 0.54445 0.06564 0.88311 0.0
H623 H 0.54087 0.98536 0.89482 0.0
C624 C 0.20126 0.9068 0.0167 0.0
O625 O 0.1953 0.88502 0.0053 0.0
O626 O 0.24291 0.86494 0.98616 0.0
Zn627 Zn 0.25221 0.88777 0.01639 0.0
O628 O 0.28436 0.90857 0.00964 0.0
C629 C 0.26951 0.84585 0.04398 0.0
O630 O 0.27785 0.83999 0.02117 0.0
O631 O 0.22418 0.91171 0.02331 0.0
C632 C 0.30274 0.90052 0.99669 0.0
O633 O 0.30118 0.87739 0.98719 0.0
C634 C 0.24493 0.87151 0.9631 0.0
O635 O 0.25351 0.89447 0.95813 0.0
O636 O 0.25755 0.866 0.04695 0.0
C637 C 0.17064 0.46633 0.27336 0.0
O638 O 0.17607 0.48793 0.28531 0.0
O639 O 0.1097 0.50018 0.28732 0.0
Zn640 Zn 0.12995 0.49495 0.25491 0.0
O641 O 0.15397 0.52486 0.24836 0.0
C642 C 0.08509 0.499 0.22282 0.0
O643 O 0.0777 0.51349 0.24173 0.0
O644 O 0.15112 0.46451 0.25901 0.0
C645 C 0.14758 0.54489 0.23761 0.0
O646 O 0.12396 0.5472 0.23039 0.0
C647 C 0.10222 0.52166 0.29452 0.0
O648 O 0.10844 0.54158 0.2812 0.0
O649 O 0.10642 0.48886 0.22447 0.0
C650 C 0.79905 0.59468 0.9963 0.0
O651 O 0.78487 0.58872 0.9762 0.0
O652 O 0.76707 0.65438 0.97379 0.0
Zn653 Zn 0.76113 0.63139 0.00352 0.0
O654 O 0.73234 0.60624 0.99552 0.0
C655 C 0.76392 0.67294 0.04004 0.0
O656 O 0.78269 0.68059 0.0254 0.0
O657 O 0.79269 0.61272 0.01092 0.0
C658 C 0.70949 0.61214 0.99855 0.0
O659 O 0.70487 0.63495 0.00709 0.0
C660 C 0.7598 0.64814 0.95127 0.0
O661 O 0.74839 0.62593 0.94721 0.0
O662 O 0.75206 0.6522 0.03448 0.0
C663 C 0.85121 0.06413 0.27967 0.0
O664 O 0.86409 0.05673 0.29945 0.0
O665 O 0.89732 0.01722 0.28451 0.0
Zn666 Zn 0.87495 0.02213 0.25367 0.0
O667 O 0.85203 0.9912 0.24707 0.0
C668 C 0.91709 0.04117 0.22387 0.0
O669 O 0.92288 0.05338 0.24533 0.0
O670 O 0.85317 0.0523 0.25846 0.0
C671 C 0.84899 0.97353 0.26289 0.0
O672 O 0.86085 0.97539 0.28497 0.0
C673 C 0.91503 0.00178 0.28287 0.0
O674 O 0.91816 0.98956 0.26114 0.0
O675 O 0.8971 0.02696 0.22286 0.0
C676 C 0.29789 0.08822 0.49514 0.0
O677 O 0.28234 0.0831 0.47588 0.0
O678 O 0.27029 0.15031 0.47282 0.0
Zn679 Zn 0.26357 0.12815 0.50306 0.0
O680 O 0.23284 0.10512 0.49553 0.0
C681 C 0.26828 0.17044 0.53952 0.0
O682 O 0.28638 0.17842 0.52425 0.0
O683 O 0.2938 0.10711 0.50965 0.0
C684 C 0.2109 0.11127 0.50255 0.0
O685 O 0.20852 0.13295 0.51468 0.0
C686 C 0.25587 0.16828 0.46826 0.0
O687 O 0.23672 0.17202 0.48352 0.0
O688 O 0.25656 0.14953 0.53434 0.0
C689 C 0.33126 0.55286 0.77996 0.0
O690 O 0.32585 0.53167 0.79161 0.0
O691 O 0.39419 0.52001 0.79187 0.0
Zn692 Zn 0.37244 0.52427 0.76049 0.0
O693 O 0.34981 0.49299 0.75445 0.0
C694 C 0.41173 0.51584 0.72289 0.0
O695 O 0.41526 0.49557 0.73615 0.0
O696 O 0.35061 0.55417 0.76569 0.0
C697 C 0.34461 0.48429 0.73216 0.0
O698 O 0.35394 0.49613 0.71238 0.0
C699 C 0.40175 0.49847 0.79783 0.0
O700 O 0.3951 0.47869 0.7834 0.0
O701 O 0.39472 0.53071 0.72988 0.0
C702 C 0.69856 0.40956 0.51367 0.0
O703 O 0.69298 0.38915 0.49975 0.0
O704 O 0.74028 0.3656 0.4863 0.0
Zn705 Zn 0.74894 0.38887 0.5164 0.0
O706 O 0.7811 0.40969 0.50991 0.0
C707 C 0.76594 0.34741 0.54498 0.0
O708 O 0.77458 0.34115 0.52239 0.0
O709 O 0.72086 0.41291 0.52275 0.0
C710 C 0.7996 0.40175 0.49706 0.0
O711 O 0.79821 0.37863 0.48752 0.0
C712 C 0.74226 0.37211 0.46321 0.0
O713 O 0.75018 0.39527 0.45822 0.0
O714 O 0.75395 0.36761 0.54738 0.0
C715 C 0.65584 0.95505 0.7763 0.0
O716 O 0.63835 0.9587 0.7935 0.0
O717 O 0.61143 0.003 0.78312 0.0
Zn718 Zn 0.63501 0.99938 0.75313 0.0
O719 O 0.65751 0.03081 0.74917 0.0
C720 C 0.59434 0.00691 0.718 0.0
O721 O 0.5889 0.02379 0.7356 0.0
O722 O 0.65755 0.9698 0.75754 0.0
C723 C 0.65054 0.053 0.75428 0.0
O724 O 0.62745 0.05608 0.76256 0.0
C725 C 0.61775 0.01349 0.80438 0.0
O726 O 0.64106 0.02269 0.80763 0.0
O727 O 0.6136 0.99372 0.72128 0.0
C728 C 0.00966 0.20394 0.89835 0.0
O729 O 0.99545 0.1983 0.87819 0.0
O730 O 0.97924 0.24737 0.85749 0.0
Zn731 Zn 0.01112 0.25534 0.8787 0.0
O732 O 0.00653 0.28621 0.90132 0.0
C733 C 0.04083 0.26853 0.8334 0.0
O734 O 0.01877 0.27377 0.82363 0.0
O735 O 0.01793 0.22659 0.902 0.0
C736 C 0.01143 0.30874 0.89453 0.0
O737 O 0.02036 0.31286 0.87162 0.0
C738 C 0.9667 0.26494 0.84813 0.0
O739 O 0.97416 0.2885 0.85283 0.0
O740 O 0.04182 0.2607 0.85611 0.0
C741 C 0.50122 0.71624 0.41741 0.0
O742 O 0.48032 0.72829 0.42129 0.0
O743 O 0.47809 0.74229 0.35368 0.0
Zn744 Zn 0.50803 0.75188 0.37652 0.0
O745 O 0.50063 0.78319 0.3972 0.0
C746 C 0.53639 0.7723 0.33465 0.0
O747 O 0.51439 0.78163 0.3293 0.0
O748 O 0.51574 0.72312 0.39941 0.0
C749 C 0.513 0.79003 0.41721 0.0
O750 O 0.5315 0.77619 0.42492 0.0
C751 C 0.45609 0.7502 0.35789 0.0
O752 O 0.45251 0.76441 0.37828 0.0
O753 O 0.53833 0.75899 0.35436 0.0
C754 C 1.00158 0.81416 0.60429 0.0
O755 O 0.99095 0.8186 0.62641 0.0
O756 O 0.97221 0.77084 0.64525 0.0
Zn757 Zn 0.00271 0.76353 0.62358 0.0
O758 O 0.99631 0.73118 0.60285 0.0
C759 C 0.0331 0.75297 0.66837 0.0
O760 O 0.01096 0.74612 0.6778 0.0
O761 O 0.00845 0.79197 0.59902 0.0
C762 C 0.00544 0.7103 0.60883 0.0
O763 O 0.01932 0.70938 0.62961 0.0
C764 C 0.95767 0.7537 0.65445 0.0
O765 O 0.96252 0.72993 0.64999 0.0
O766 O 0.0341 0.76111 0.64576 0.0
C767 C 0.50452 0.31069 0.10822 0.0
O768 O 0.49226 0.31566 0.12933 0.0
O769 O 0.47448 0.26761 0.14995 0.0
Zn770 Zn 0.50473 0.25981 0.12811 0.0
O771 O 0.49685 0.22847 0.10628 0.0
C772 C 0.53443 0.24362 0.17112 0.0
O773 O 0.51239 0.23379 0.17808 0.0
O774 O 0.51177 0.28844 0.10409 0.0
C775 C 0.50891 0.20829 0.10738 0.0
O776 O 0.52744 0.20698 0.12405 0.0
C777 C 0.45916 0.25054 0.15806 0.0
O778 O 0.46302 0.22681 0.15221 0.0
O779 O 0.53574 0.25562 0.15041 0.0
C780 C 0.24407 0.83957 0.89751 0.0
C781 C 0.22943 0.81718 0.90119 0.0
C782 C 0.24867 0.85718 0.91752 0.0
C783 C 0.23892 0.85303 0.94205 0.0
H784 H 0.25243 0.84332 0.87911 0.0
H785 H 0.26037 0.87394 0.91381 0.0
S786 S 0.19756 0.79842 0.96112 0.0
N787 N 0.20375 0.79266 0.93079 0.0
N788 N 0.21279 0.82543 0.96853 0.0
C789 C 0.22387 0.83092 0.94589 0.0
C790 C 0.21904 0.81308 0.92545 0.0
C791 C 0.07204 0.51025 0.35898 0.0
C792 C 0.05317 0.52823 0.36012 0.0
C793 C 0.08772 0.50805 0.33761 0.0
C794 C 0.08537 0.524 0.31677 0.0
H795 H 0.07497 0.49799 0.37487 0.0
H796 H 0.10208 0.49407 0.33762 0.0
S797 S 0.03741 0.57238 0.30898 0.0
N798 N 0.03173 0.56077 0.33741 0.0
N799 N 0.0618 0.55727 0.2978 0.0
C800 C 0.0664 0.54179 0.31745 0.0
C801 C 0.05017 0.54375 0.33898 0.0
C802 C 0.78216 0.70609 0.91493 0.0
C803 C 0.7722 0.70132 0.8903 0.0
C804 C 0.77806 0.6888 0.93445 0.0
C805 C 0.76399 0.66593 0.93006 0.0
H806 H 0.79294 0.72351 0.91926 0.0
H807 H 0.786 0.69349 0.95314 0.0
S808 S 0.73482 0.64408 0.8683 0.0
N809 N 0.74839 0.67187 0.8622 0.0
N810 N 0.74054 0.63932 0.89876 0.0
C811 C 0.75417 0.66082 0.90533 0.0
C812 C 0.75828 0.67853 0.88551 0.0
C813 C 0.94185 0.00532 0.35047 0.0
C814 C 0.96235 0.9893 0.34921 0.0
C815 C 0.92677 0.0093 0.32894 0.0
C816 C 0.93148 0.99729 0.30531 0.0
H817 H 0.93762 0.01512 0.36818 0.0
H818 H 0.91128 0.02192 0.33091 0.0
S819 S 0.98238 0.95255 0.2924 0.0
N820 N 0.98616 0.96068 0.32279 0.0
N821 N 0.95804 0.96817 0.28227 0.0
C822 C 0.95185 0.981 0.30391 0.0
C823 C 0.96723 0.97703 0.32584 0.0
C824 C 0.26738 0.22483 0.58792 0.0
C825 C 0.24768 0.21751 0.60445 0.0
C826 C 0.27392 0.20946 0.56712 0.0
C827 C 0.26109 0.18606 0.56202 0.0
H828 H 0.27764 0.24279 0.59089 0.0
H829 H 0.28912 0.21611 0.5549 0.0
S830 S 0.20866 0.15774 0.60034 0.0
N831 N 0.21592 0.18501 0.61494 0.0
N832 N 0.22794 0.15612 0.57577 0.0
C833 C 0.24144 0.17841 0.57859 0.0
C834 C 0.23479 0.19413 0.59977 0.0
C835 C 0.46338 0.51058 0.6732 0.0
C836 C 0.45822 0.52986 0.6562 0.0
C837 C 0.44826 0.50626 0.69465 0.0
C838 C 0.42733 0.52104 0.69999 0.0
H839 H 0.47945 0.49891 0.67008 0.0
H840 H 0.45318 0.49127 0.7072 0.0
S841 S 0.4049 0.57301 0.66047 0.0
N842 N 0.43012 0.56316 0.64543 0.0
N843 N 0.4018 0.55532 0.68585 0.0
C844 C 0.42183 0.54028 0.68297 0.0
C845 C 0.43724 0.54463 0.66109 0.0
C846 C 0.76125 0.32125 0.61186 0.0
C847 C 0.7759 0.29976 0.61039 0.0
C848 C 0.75821 0.33656 0.59068 0.0
C849 C 0.76978 0.33103 0.5672 0.0
H850 H 0.75174 0.32609 0.62943 0.0
H851 H 0.74654 0.35277 0.59276 0.0
S852 S 0.81157 0.2777 0.55405 0.0
N853 N 0.80313 0.27436 0.58407 0.0
N854 N 0.79737 0.30287 0.54421 0.0
C855 C 0.78482 0.30973 0.56564 0.0
C856 C 0.78787 0.29417 0.58721 0.0
C857 C 0.56602 0.97759 0.6568 0.0
C858 C 0.54673 0.99394 0.65063 0.0
C859 C 0.58137 0.98201 0.6785 0.0
C860 C 0.57804 0.00296 0.69492 0.0
H861 H 0.56905 0.96102 0.64495 0.0
H862 H 0.59579 0.96871 0.68252 0.0
S863 S 0.53124 0.05246 0.68617 0.0
N864 N 0.52597 0.0326 0.66185 0.0
N865 N 0.55451 0.04083 0.70278 0.0
C866 C 0.559 0.01966 0.68874 0.0
C867 C 0.54342 0.01516 0.6666 0.0
C868 C 0.90805 0.23122 0.81914 0.0
C869 C 0.90074 0.24773 0.80003 0.0
C870 C 0.92959 0.23671 0.83444 0.0
C871 C 0.94444 0.25906 0.83139 0.0
H872 H 0.89683 0.21409 0.82259 0.0
H873 H 0.93435 0.22359 0.84908 0.0
S874 S 0.93512 0.30723 0.78238 0.0
N875 N 0.91148 0.28628 0.77753 0.0
N876 N 0.95135 0.29698 0.80677 0.0
C877 C 0.93765 0.27549 0.81207 0.0
C878 C 0.91596 0.26974 0.79629 0.0
C879 C 0.51412 0.84159 0.46884 0.0
C880 C 0.49512 0.85753 0.46092 0.0
C881 C 0.51972 0.81988 0.4546 0.0
C882 C 0.5066 0.81324 0.43179 0.0
H883 H 0.52456 0.84576 0.48639 0.0
H884 H 0.53443 0.80819 0.46165 0.0
S885 S 0.45587 0.84952 0.40215 0.0
N886 N 0.46378 0.86581 0.4284 0.0
N887 N 0.47403 0.82496 0.40166 0.0
C888 C 0.48765 0.8292 0.42354 0.0
C889 C 0.48196 0.85131 0.4381 0.0
C890 C 0.08486 0.28824 0.77971 0.0
C891 C 0.10847 0.27967 0.78749 0.0
C892 C 0.06321 0.28453 0.79468 0.0
C893 C 0.06423 0.2721 0.81809 0.0
H894 H 0.08315 0.29818 0.76201 0.0
H895 H 0.04555 0.29165 0.78784 0.0
S896 S 0.12133 0.2448 0.84639 0.0
N897 N 0.13147 0.25728 0.81958 0.0
N898 N 0.0909 0.25055 0.84794 0.0
C899 C 0.08774 0.26327 0.82603 0.0
C900 C 0.1098 0.26701 0.8107 0.0
C901 C 0.49673 0.66738 0.46935 0.0
C902 C 0.51885 0.65389 0.46603 0.0
C903 C 0.49123 0.68743 0.45355 0.0
C904 C 0.5077 0.6949 0.43383 0.0
H905 H 0.48337 0.6622 0.48411 0.0
H906 H 0.47386 0.69708 0.45685 0.0
S907 S 0.56888 0.6663 0.4181 0.0
N908 N 0.55781 0.64984 0.44224 0.0
N909 N 0.54757 0.68738 0.4124 0.0
C910 C 0.53007 0.68165 0.43049 0.0
C911 C 0.5356 0.66118 0.44658 0.0
C912 C 0.906 0.74817 0.70425 0.0
C913 C 0.89605 0.77232 0.70488 0.0
C914 C 0.92563 0.74225 0.6876 0.0
C915 C 0.93634 0.76039 0.67121 0.0
H916 H 0.89841 0.73367 0.71663 0.0
H917 H 0.93269 0.72339 0.68788 0.0
S918 S 0.91699 0.82656 0.66579 0.0
N919 N 0.89817 0.81451 0.68783 0.0
N920 N 0.93528 0.8036 0.65665 0.0
C921 C 0.92651 0.78467 0.6717 0.0
C922 C 0.9063 0.79057 0.68847 0.0
C923 C 0.02376 0.84915 0.54542 0.0
C924 C 0.01406 0.87322 0.54904 0.0
C925 C 0.01951 0.8302 0.56329 0.0
C926 C 0.00557 0.83463 0.58564 0.0
H927 H 0.03458 0.84485 0.52851 0.0
H928 H 0.02737 0.81197 0.55954 0.0
S929 S 0.97672 0.89493 0.60435 0.0
N930 N 0.99037 0.90075 0.57676 0.0
N931 N 0.98222 0.86524 0.61037 0.0
C932 C 0.99583 0.85874 0.58951 0.0
C933 C 1.00008 0.87797 0.57121 0.0
C934 C 0.07681 0.73442 0.72201 0.0
C935 C 0.10086 0.7432 0.71397 0.0
C936 C 0.0551 0.73787 0.70721 0.0
C937 C 0.05656 0.75008 0.68366 0.0
H938 H 0.0747 0.72505 0.74006 0.0
H939 H 0.03703 0.73077 0.71435 0.0
S940 S 0.11543 0.77587 0.65373 0.0
N941 N 0.12513 0.76413 0.68081 0.0
N942 N 0.08439 0.7707 0.6529 0.0
C943 C 0.08061 0.75883 0.67533 0.0
C944 C 0.10272 0.7554 0.69051 0.0
C945 C 0.98123 0.6678 0.55377 0.0
C946 C 0.99222 0.64469 0.55854 0.0
C947 C 0.98541 0.68875 0.57025 0.0
C948 C 1.00085 0.68749 0.59216 0.0
H949 H 0.96917 0.66969 0.53719 0.0
H950 H 0.9765 0.7061 0.56565 0.0
S951 S 0.03467 0.6313 0.61275 0.0
N952 N 0.01962 0.62178 0.58634 0.0
N953 N 0.02739 0.66098 0.61751 0.0
C954 C 0.01193 0.66438 0.59716 0.0
C955 C 0.00763 0.64304 0.58034 0.0
C956 C 0.79831 0.9316 0.2295 0.0
C957 C 0.79906 0.90894 0.2428 0.0
C958 C 0.81463 0.95228 0.23605 0.0
C959 C 0.83209 0.95123 0.25638 0.0
H960 H 0.78517 0.93325 0.21374 0.0
H961 H 0.81337 0.96931 0.22518 0.0
S962 S 0.84106 0.89618 0.29751 0.0
N963 N 0.81833 0.88661 0.27734 0.0
N964 N 0.84899 0.92545 0.28981 0.0
C965 C 0.83289 0.92865 0.26994 0.0
C966 C 0.81641 0.90752 0.26308 0.0
C967 C 0.80055 0.11029 0.26367 0.0
C968 C 0.8001 0.12609 0.28551 0.0
C969 C 0.81728 0.09051 0.26189 0.0
C970 C 0.83405 0.08556 0.28202 0.0
H971 H 0.78802 0.11339 0.24771 0.0
H972 H 0.81689 0.07891 0.24462 0.0
S973 S 0.83958 0.1212 0.34377 0.0
N974 N 0.81735 0.13533 0.32789 0.0
N975 N 0.84879 0.0982 0.32472 0.0
C976 C 0.83362 0.10121 0.30408 0.0
C977 C 0.81669 0.12146 0.30576 0.0
C978 C 0.34957 0.95688 0.00196 0.0
C979 C 0.36862 0.95063 0.98463 0.0
C980 C 0.32838 0.9406 0.00563 0.0
C981 C 0.3255 0.91728 0.99231 0.0
H982 H 0.3509 0.97466 0.01255 0.0
H983 H 0.3142 0.94638 0.01913 0.0
S984 S 0.3707 0.89182 0.94529 0.0
N985 N 0.38371 0.91943 0.95442 0.0
N986 N 0.34394 0.88873 0.96122 0.0
C987 C 0.3446 0.91073 0.97504 0.0
C988 C 0.36611 0.92744 0.97121 0.0
C989 C 0.19634 0.40072 0.2652 0.0
C990 C 0.21829 0.40195 0.28058 0.0
C991 C 0.18111 0.42158 0.26301 0.0
C992 C 0.18713 0.4445 0.27622 0.0
H993 H 0.19104 0.38355 0.25454 0.0
H994 H 0.1645 0.41967 0.25078 0.0
S995 S 0.24209 0.45694 0.32004 0.0
N996 N 0.24487 0.4275 0.30996 0.0
N997 N 0.21648 0.4668 0.30582 0.0
C998 C 0.20897 0.44586 0.29188 0.0
C999 C 0.22449 0.4246 0.29404 0.0
C1000 C 0.17034 0.05477 0.47802 0.0
C1001 C 0.14598 0.06006 0.48672 0.0
C1002 C 0.19116 0.07141 0.48323 0.0
C1003 C 0.18841 0.09411 0.49722 0.0
H1004 H 0.17341 0.03744 0.46737 0.0
H1005 H 0.20955 0.06636 0.47623 0.0
S1006 S 0.12812 0.11719 0.52322 0.0
N1007 N 0.11998 0.08986 0.50918 0.0
N1008 N 0.15898 0.12115 0.51917 0.0
C1009 C 0.164 0.09972 0.50579 0.0
C1010 C 0.14285 0.0827 0.50052 0.0
C1011 C 0.70777 0.09255 0.7326 0.0
C1012 C 0.70327 0.11676 0.74259 0.0
C1013 C 0.69068 0.07211 0.73657 0.0
C1014 C 0.66833 0.07504 0.75064 0.0
H1015 H 0.72449 0.08943 0.7213 0.0
H1016 H 0.69495 0.05391 0.72828 0.0
S1017 S 0.64863 0.13427 0.78238 0.0
N1018 N 0.67556 0.14227 0.76832 0.0
N1019 N 0.64321 0.104 0.77549 0.0
C1020 C 0.66374 0.09912 0.76099 0.0
C1021 C 0.68124 0.11992 0.75703 0.0
C1022 C 0.35773 0.06403 0.52517 0.0
C1023 C 0.36199 0.04193 0.51081 0.0
C1024 C 0.33706 0.07886 0.5199 0.0
C1025 C 0.31974 0.07217 0.50008 0.0
H1026 H 0.37064 0.07006 0.54048 0.0
H1027 H 0.33473 0.09575 0.53148 0.0
S1028 S 0.32184 0.01522 0.45767 0.0
N1029 N 0.34677 0.01349 0.47659 0.0
N1030 N 0.30806 0.04135 0.46643 0.0
C1031 C 0.32373 0.04996 0.48567 0.0
C1032 C 0.34481 0.03487 0.49108 0.0
C1033 C 0.63585 0.44224 0.51178 0.0
C1034 C 0.64078 0.4644 0.5265 0.0
C1035 C 0.6546 0.42466 0.50785 0.0
C1036 C 0.67911 0.42857 0.51837 0.0
H1037 H 0.61721 0.43827 0.50351 0.0
H1038 H 0.64974 0.40784 0.49646 0.0
S1039 S 0.70194 0.48443 0.55743 0.0
N1040 N 0.67209 0.48987 0.55088 0.0
N1041 N 0.70734 0.45689 0.54372 0.0
C1042 C 0.68433 0.45087 0.53295 0.0
C1043 C 0.66518 0.46873 0.53697 0.0
C1044 C 0.74223 0.34044 0.3975 0.0
C1045 C 0.72901 0.31726 0.4013 0.0
C1046 C 0.74609 0.35818 0.41752 0.0
C1047 C 0.73698 0.3534 0.44218 0.0
H1048 H 0.75007 0.34475 0.37899 0.0
H1049 H 0.75672 0.37558 0.41369 0.0
S1050 S 0.69928 0.29642 0.4616 0.0
N1051 N 0.70534 0.29117 0.43115 0.0
N1052 N 0.71295 0.32423 0.46891 0.0
C1053 C 0.72331 0.33047 0.44613 0.0
C1054 C 0.71926 0.31247 0.42569 0.0
C1055 C 0.58636 0.0355 0.8655 0.0
C1056 C 0.56308 0.02163 0.86521 0.0
C1057 C 0.604 0.03253 0.8459 0.0
C1058 C 0.59889 0.01581 0.82508 0.0
H1059 H 0.59108 0.04859 0.88114 0.0
H1060 H 0.62167 0.04365 0.84701 0.0
S1061 S 0.54021 0.97552 0.81518 0.0
N1062 N 0.53558 0.99086 0.84238 0.0
N1063 N 0.56856 0.98525 0.80545 0.0
C1064 C 0.57554 0.00191 0.82455 0.0
C1065 C 0.55771 0.0048 0.84464 0.0
C1066 C 0.28333 0.19294 0.40628 0.0
C1067 C 0.26993 0.21487 0.40226 0.0
C1068 C 0.27871 0.17808 0.42767 0.0
C1069 C 0.26051 0.18456 0.44593 0.0
H1070 H 0.2973 0.18704 0.3926 0.0
H1071 H 0.28939 0.16126 0.42974 0.0
S1072 S 0.22156 0.24123 0.44505 0.0
N1073 N 0.23867 0.24309 0.41889 0.0
N1074 N 0.22972 0.21514 0.45893 0.0
C1075 C 0.2472 0.20667 0.44226 0.0
C1076 C 0.25196 0.2218 0.42049 0.0
C1077 C 0.45131 0.47206 0.84136 0.0
C1078 C 0.45235 0.48931 0.8621 0.0
C1079 C 0.43464 0.47504 0.82085 0.0
C1080 C 0.41875 0.49566 0.82009 0.0
H1081 H 0.46333 0.45601 0.84113 0.0
H1082 H 0.43449 0.46124 0.8053 0.0
S1083 S 0.41465 0.54627 0.86974 0.0
N1084 N 0.43626 0.52766 0.8808 0.0
N1085 N 0.40518 0.53362 0.84204 0.0
C1086 C 0.41977 0.51315 0.8407 0.0
C1087 C 0.43647 0.50986 0.86177 0.0
C1088 C 0.76401 0.72642 0.08952 0.0
C1089 C 0.74342 0.71972 0.1052 0.0
C1090 C 0.77043 0.71119 0.06858 0.0
C1091 C 0.75661 0.68853 0.0625 0.0
H1092 H 0.77508 0.74378 0.09329 0.0
H1093 H 0.78638 0.71732 0.05706 0.0
S1094 S 0.7015 0.66206 0.09832 0.0
N1095 N 0.70965 0.68864 0.11381 0.0
N1096 N 0.72149 0.65999 0.07438 0.0
C1097 C 0.73603 0.68152 0.0782 0.0
C1098 C 0.72948 0.69712 0.09951 0.0
C1099 C 0.9426 0.03121 0.15692 0.0
C1100 C 0.96568 0.04541 0.15737 0.0
C1101 C 0.927 0.03015 0.17841 0.0
C1102 C 0.93389 0.04318 0.2013 0.0
H1103 H 0.93641 0.02099 0.13971 0.0
H1104 H 0.9094 0.01895 0.177 0.0
S1105 S 0.99314 0.08227 0.21258 0.0
N1106 N 0.99515 0.07218 0.18269 0.0
N1107 N 0.96586 0.07042 0.22309 0.0
C1108 C 0.95705 0.0574 0.202 0.0
C1109 C 0.97291 0.05847 0.18006 0.0
C1110 C 0.26424 0.81734 0.10978 0.0
C1111 C 0.27958 0.79636 0.10791 0.0
C1112 C 0.26124 0.83331 0.08912 0.0
C1113 C 0.2735 0.82896 0.06575 0.0
H1114 H 0.25412 0.82122 0.12723 0.0
H1115 H 0.24898 0.84903 0.09145 0.0
S1116 S 0.31739 0.77756 0.05181 0.0
N1117 N 0.30832 0.77286 0.08143 0.0
N1118 N 0.3026 0.80259 0.04251 0.0
C1119 C 0.28928 0.80824 0.06382 0.0
C1120 C 0.29233 0.79202 0.08489 0.0
C1121 C 0.05913 0.4709 0.16013 0.0
C1122 C 0.03902 0.48643 0.15438 0.0
C1123 C 0.07387 0.47507 0.18228 0.0
C1124 C 0.06903 0.4949 0.19963 0.0
H1125 H 0.0634 0.45524 0.14749 0.0
H1126 H 0.08907 0.46253 0.18588 0.0
S1127 S 0.01954 0.54198 0.19253 0.0
N1128 N 0.01583 0.52318 0.16716 0.0
N1129 N 0.04315 0.5308 0.209 0.0
C1130 C 0.04904 0.51067 0.19403 0.0
C1131 C 0.03414 0.50649 0.17138 0.0
C1132 C 0.39089 0.75019 0.32672 0.0
C1133 C 0.39369 0.73539 0.30444 0.0
C1134 C 0.41106 0.75457 0.34398 0.0
C1135 C 0.43492 0.74446 0.33956 0.0
H1136 H 0.37288 0.75831 0.33096 0.0
H1137 H 0.40788 0.76612 0.36084 0.0
S1138 S 0.45218 0.70503 0.28336 0.0
N1139 N 0.42217 0.71108 0.27844 0.0
N1140 N 0.46012 0.71913 0.31081 0.0
C1141 C 0.43795 0.72962 0.31724 0.0
C1142 C 0.41734 0.72512 0.29972 0.0
C1143 C 0.00326 0.34677 0.95586 0.0
C1144 C 0.99574 0.37012 0.94707 0.0
C1145 C 0.00823 0.32696 0.93871 0.0
C1146 C 0.00639 0.33006 0.91217 0.0
H1147 H 0.00495 0.34371 0.97615 0.0
H1148 H 0.01375 0.30915 0.94627 0.0
S1149 S 0.98745 0.38785 0.87975 0.0
N1150 N 0.98647 0.39537 0.91045 0.0
N1151 N 0.99644 0.35842 0.87804 0.0
C1152 C 0.99916 0.3535 0.9032 0.0
C1153 C 0.99364 0.37347 0.92071 0.0
C1154 C 0.60289 0.76905 0.30782 0.0
C1155 C 0.60202 0.784 0.28607 0.0
C1156 C 0.58162 0.76543 0.32334 0.0
C1157 C 0.5586 0.7767 0.3178 0.0
H1158 H 0.62011 0.75985 0.31277 0.0
H1159 H 0.5833 0.75362 0.33978 0.0
S1160 S 0.54691 0.81861 0.26351 0.0
N1161 N 0.57666 0.81086 0.26015 0.0
N1162 N 0.53655 0.804 0.28912 0.0
C1163 C 0.55755 0.79187 0.29613 0.0
C1164 C 0.57926 0.7955 0.28031 0.0
C1165 C 0.00809 0.14125 0.9323 0.0
C1166 C 0.02516 0.14577 0.95275 0.0
C1167 C 0.00336 0.16008 0.91474 0.0
C1168 C 0.01555 0.18419 0.91691 0.0
H1169 H 0.99792 0.12316 0.93011 0.0
H1170 H 0.98979 0.15573 0.89953 0.0
S1171 S 0.06357 0.20482 0.96605 0.0
N1172 N 0.05544 0.1755 0.97337 0.0
N1173 N 0.0465 0.211 0.94064 0.0
C1174 C 0.03309 0.18874 0.93705 0.0
C1175 C 0.03788 0.16954 0.95489 0.0
C1176 C 0.40685 0.24443 0.20716 0.0
C1177 C 0.39729 0.26873 0.20834 0.0
C1178 C 0.42662 0.23867 0.19059 0.0
C1179 C 0.43786 0.25713 0.17489 0.0
H1180 H 0.39883 0.22969 0.219 0.0
H1181 H 0.43334 0.21967 0.19038 0.0
S1182 S 0.41974 0.32382 0.1712 0.0
N1183 N 0.4004 0.31142 0.1926 0.0
N1184 N 0.43778 0.30081 0.16164 0.0
C1185 C 0.42848 0.28158 0.17601 0.0
C1186 C 0.40812 0.28732 0.19265 0.0
C1187 C 0.50431 0.37434 0.07626 0.0
C1188 C 0.51754 0.37016 0.05349 0.0
C1189 C 0.50036 0.35507 0.09383 0.0
C1190 C 0.50934 0.33076 0.08928 0.0
H1191 H 0.49722 0.39278 0.0807 0.0
H1192 H 0.49012 0.35934 0.11111 0.0
S1193 S 0.54419 0.30988 0.03173 0.0
N1194 N 0.53892 0.33983 0.02681 0.0
N1195 N 0.53169 0.30357 0.05975 0.0
C1196 C 0.52245 0.3263 0.06639 0.0
C1197 C 0.52651 0.34599 0.04855 0.0
C1198 C 0.60306 0.24899 0.19396 0.0
C1199 C 0.60267 0.2351 0.21648 0.0
C1200 C 0.58097 0.25153 0.17941 0.0
C1201 C 0.55755 0.24044 0.18689 0.0
H1202 H 0.62064 0.25782 0.18743 0.0
H1203 H 0.58233 0.26237 0.16218 0.0
S1204 S 0.54636 0.20292 0.24507 0.0
N1205 N 0.57694 0.2107 0.24605 0.0
N1206 N 0.53544 0.21528 0.2188 0.0
C1207 C 0.55693 0.22657 0.20952 0.0
C1208 C 0.57947 0.22394 0.22426 0.0
C1209 C 0.50977 0.1431 0.07585 0.0
C1210 C 0.49299 0.14478 0.05511 0.0
C1211 C 0.51463 0.16366 0.09268 0.0
C1212 C 0.50272 0.18666 0.08959 0.0
H1213 H 0.5196 0.12589 0.07882 0.0
H1214 H 0.52794 0.16146 0.10819 0.0
S1215 S 0.45596 0.20011 0.03891 0.0
N1216 N 0.46364 0.17075 0.03285 0.0
N1217 N 0.47265 0.20947 0.06439 0.0
C1218 C 0.48547 0.18838 0.06912 0.0
C1219 C 0.48068 0.16745 0.0519 0.0
C1220 C 0.29664 0.43098 0.7459 0.0
C1221 C 0.29644 0.41632 0.72325 0.0
C1222 C 0.31237 0.45286 0.74864 0.0
C1223 C 0.32816 0.46109 0.72867 0.0
H1224 H 0.28481 0.42529 0.76174 0.0
H1225 H 0.312 0.46347 0.76652 0.0
S1226 S 0.33387 0.42949 0.66517 0.0
N1227 N 0.31289 0.41156 0.68038 0.0
N1228 N 0.3423 0.45277 0.68531 0.0
C1229 C 0.32784 0.44668 0.70578 0.0
C1230 C 0.31204 0.42426 0.70314 0.0
C1231 C 0.30559 0.61812 0.77168 0.0
C1232 C 0.28398 0.61775 0.78718 0.0
C1233 C 0.32071 0.59711 0.76954 0.0
C1234 C 0.31492 0.57488 0.78292 0.0
H1235 H 0.31069 0.63469 0.76083 0.0
H1236 H 0.33704 0.59835 0.75718 0.0
S1237 S 0.26096 0.56492 0.82721 0.0
N1238 N 0.258 0.59382 0.81693 0.0
N1239 N 0.28623 0.55423 0.81289 0.0
C1240 C 0.29345 0.57441 0.79875 0.0
C1241 C 0.27803 0.59584 0.80086 0.0
C1242 C 0.8465 0.45795 0.50335 0.0
C1243 C 0.86527 0.45223 0.48553 0.0
C1244 C 0.82537 0.44155 0.50686 0.0
C1245 C 0.8223 0.41862 0.49287 0.0
H1246 H 0.84799 0.47542 0.51447 0.0
H1247 H 0.81139 0.44691 0.52075 0.0
S1248 S 0.86674 0.39461 0.44432 0.0
N1249 N 0.87989 0.42196 0.45409 0.0
N1250 N 0.84024 0.39102 0.4606 0.0
C1251 C 0.84113 0.41259 0.47511 0.0
C1252 C 0.86256 0.42943 0.47143 0.0
C1253 C 0.70838 0.91022 0.76111 0.0
C1254 C 0.70788 0.89401 0.78193 0.0
C1255 C 0.69149 0.92983 0.75946 0.0
C1256 C 0.67351 0.9341 0.77865 0.0
H1257 H 0.72169 0.9075 0.74576 0.0
H1258 H 0.69253 0.94165 0.7429 0.0
S1259 S 0.66575 0.89773 0.83805 0.0
N1260 N 0.68887 0.88409 0.82272 0.0
N1261 N 0.65705 0.92078 0.81973 0.0
C1262 C 0.67313 0.91817 0.79981 0.0
C1263 C 0.69031 0.89818 0.80141 0.0
C1264 C 0.64332 0.58115 0.99729 0.0
C1265 C 0.64664 0.55811 0.98424 0.0
C1266 C 0.66369 0.59855 0.00154 0.0
C1267 C 0.68827 0.59349 0.99316 0.0
H1268 H 0.62475 0.58584 0.00412 0.0
H1269 H 0.66012 0.616 0.01174 0.0
S1270 S 0.70695 0.53553 0.95827 0.0
N1271 N 0.67626 0.53094 0.9631 0.0
N1272 N 0.71465 0.56356 0.97105 0.0
C1273 C 0.69183 0.57045 0.98004 0.0
C1274 C 0.67099 0.55281 0.97557 0.0
C1275 C 0.17683 0.61118 0.23459 0.0
C1276 C 0.20221 0.6072 0.22799 0.0
C1277 C 0.15922 0.59093 0.23734 0.0
C1278 C 0.1664 0.56588 0.23415 0.0
H1279 H 0.17053 0.63011 0.23801 0.0
H1280 H 0.13995 0.59491 0.24252 0.0
S1281 S 0.22969 0.54491 0.21501 0.0
N1282 N 0.23294 0.576 0.2165 0.0
N1283 N 0.20009 0.538 0.22311 0.0
C1284 C 0.19156 0.5615 0.22751 0.0
C1285 C 0.20939 0.58212 0.2241 0.0
C1286 C 0.84851 0.54482 0.99125 0.0
C1287 C 0.8642 0.55013 0.01263 0.0
C1288 C 0.82766 0.55943 0.98611 0.0
C1289 C 0.8217 0.58002 0.00207 0.0
H1290 H 0.8521 0.52896 0.97862 0.0
H1291 H 0.81604 0.55433 0.96954 0.0
S1292 S 0.858 0.60268 0.05969 0.0
N1293 N 0.87321 0.578 0.04924 0.0
N1294 N 0.83399 0.60545 0.03977 0.0
C1295 C 0.83756 0.58578 0.02332 0.0
C1296 C 0.85878 0.57083 0.02856 0.0
C1297 C 0.13755 0.93767 0.01601 0.0
C1298 C 0.14277 0.96112 0.02836 0.0
C1299 C 0.15651 0.92023 0.01255 0.0
C1300 C 0.18153 0.92558 0.02116 0.0
H1301 H 0.11856 0.93264 0.00916 0.0
H1302 H 0.15144 0.90242 0.00294 0.0
S1303 S 0.20515 0.98496 0.05391 0.0
N1304 N 0.1748 0.98919 0.04864 0.0
N1305 N 0.21046 0.95649 0.04235 0.0
C1306 C 0.18701 0.9491 0.03348 0.0
C1307 C 0.16764 0.96682 0.03704 0.0
loop_
_geom_bond_atom_site_label_1
_geom_bond_atom_site_label_2
_geom_bond_distance
_geom_bond_site_symmetry_2
_ccdc_geom_bond_type
C0 C1 1.386 . S
C0 C2 1.397 . S
C0 H24 0.931 . S
C1 C0 1.386 . S
C1 C5 1.397 1_556 S
C2 C0 1.397 . S
C2 C3 1.384 1_556 S
C2 H25 0.930 . S
C3 C2 1.384 1_554 S
C3 C4 1.377 . S
C3 C6 1.481 . S
C4 C3 1.377 . S
C4 C5 1.389 . S
C4 H26 0.929 . S
C5 C1 1.397 1_554 S
C5 C4 1.389 . S
C5 H27 0.931 . S
C6 C3 1.481 . S
C6 C7 1.387 . S
C6 C11 1.390 . S
C7 C6 1.387 . S
C7 C8 1.401 . S
C7 H28 0.930 . S
C8 C7 1.401 . S
C8 C9 1.376 . S
C8 C17 1.511 . S
C9 C8 1.376 . S
C9 C10 1.392 . S
C9 H30 0.931 . S
C10 C9 1.392 . S
C10 C11 1.361 . S
C10 C12 1.500 . S
C11 C6 1.390 . S
C11 C10 1.361 . S
C11 H29 0.931 . S
C12 C10 1.500 . S
C12 C13 1.365 1_455 S
C12 C14 1.365 1_455 S
C13 C12 1.365 1_655 S
C13 C23 1.407 . S
C13 H31 0.917 1_655 S
C14 C12 1.365 1_655 S
C14 C15 1.409 . S
C14 H32 0.933 . S
C15 C14 1.409 . S
C15 C16 1.380 . S
C15 H33 0.930 . S
C16 C15 1.380 . S
C16 C23 1.357 . S
C17 C8 1.511 . S
C17 C18 1.341 . S
C17 C19 1.371 1_545 S
C18 C17 1.341 . S
C18 C22 1.394 1_545 S
C18 H34 0.914 1_554 S
C19 C17 1.371 1_565 S
C19 C20 1.392 . S
C19 H35 0.931 . S
C20 C19 1.392 . S
C20 C21 1.331 . S
C20 H38 0.932 . S
C21 C20 1.331 . S
C21 C22 1.336 . S
C22 C18 1.394 1_565 S
C22 C21 1.336 . S
C22 H37 0.929 1_554 S
C23 C13 1.407 . S
C23 C16 1.357 . S
C23 H36 0.928 1_545 S
H24 C0 0.931 . S
H25 C2 0.930 . S
H26 C4 0.929 . S
H27 C5 0.931 . S
H28 C7 0.930 . S
H29 C11 0.931 . S
H30 C9 0.931 . S
H31 C13 0.917 1_455 S
H32 C14 0.933 . S
H33 C15 0.930 . S
H34 C18 0.914 1_556 S
H35 C19 0.931 . S
H36 C23 0.928 1_565 S
H37 C22 0.929 1_556 S
H38 C20 0.932 . S
C39 C40 1.386 . S
C39 C41 1.397 . S
C39 H63 0.931 . S
C40 C39 1.386 . S
C40 C44 1.397 . S
C41 C39 1.397 . S
C41 C42 1.384 . S
C41 H64 0.930 . S
C42 C41 1.384 . S
C42 C43 1.377 . S
C42 C45 1.481 . S
C43 C42 1.377 . S
C43 C44 1.389 . S
C43 H65 0.929 . S
C44 C40 1.397 . S
C44 C43 1.389 . S
C44 H66 0.931 . S
C45 C42 1.481 . S
C45 C46 1.387 . S
C45 C50 1.390 . S
C46 C45 1.387 . S
C46 C47 1.401 . S
C46 H67 0.930 . S
C47 C46 1.401 . S
C47 C48 1.376 . S
C47 C56 1.511 . S
C48 C47 1.376 . S
C48 C49 1.392 . S
C48 H69 0.931 . S
C49 C48 1.392 . S
C49 C50 1.361 . S
C49 C51 1.500 . S
C50 C45 1.390 . S
C50 C49 1.361 . S
C50 H68 0.931 . S
C51 C49 1.500 . S
C51 C52 1.371 . S
C51 C53 1.365 . S
C52 C51 1.371 . S
C52 C62 1.386 . S
C52 H70 0.931 . S
C53 C51 1.365 . S
C53 C54 1.409 . S
C53 H71 0.929 . S
C54 C53 1.409 . S
C54 C55 1.380 . S
C54 H72 0.930 . S
C55 C54 1.380 . S
C55 C62 1.357 . S
C56 C47 1.511 . S
C56 C57 1.341 . S
C56 C58 1.371 . S
C57 C56 1.341 . S
C57 C61 1.394 . S
C57 H73 0.930 . S
C58 C56 1.371 . S
C58 C59 1.392 . S
C58 H74 0.931 . S
C59 C58 1.392 . S
C59 C60 1.331 . S
C59 H77 0.932 . S
C60 C59 1.331 . S
C60 C61 1.336 . S
C61 C57 1.394 . S
C61 C60 1.336 . S
C61 H76 0.929 . S
C62 C52 1.386 . S
C62 C55 1.357 . S
C62 H75 0.928 . S
H63 C39 0.931 . S
H64 C41 0.930 . S
H65 C43 0.929 . S
H66 C44 0.931 . S
H67 C46 0.930 . S
H68 C50 0.931 . S
H69 C48 0.931 . S
H70 C52 0.931 . S
H71 C53 0.929 . S
H72 C54 0.930 . S
H73 C57 0.930 . S
H74 C58 0.931 . S
H75 C62 0.928 . S
H76 C61 0.929 . S
H77 C59 0.932 . S
C78 C79 1.386 . S
C78 C80 1.397 1_455 S
C78 H102 0.929 1_455 S
C79 C78 1.386 . S
C79 C83 1.397 . S
C80 C78 1.397 1_655 S
C80 C81 1.402 . S
C80 H103 0.930 . S
C81 C80 1.402 . S
C81 C82 1.331 1_655 S
C81 C84 1.509 . S
C82 C81 1.331 1_455 S
C82 C83 1.389 . S
C82 H104 0.929 . S
C83 C79 1.397 . S
C83 C82 1.389 . S
C83 H105 0.931 . S
C84 C81 1.509 . S
C84 C85 1.387 . S
C84 C89 1.390 . S
C85 C84 1.387 . S
C85 C86 1.401 . S
C85 H106 0.930 . S
C86 C85 1.401 . S
C86 C87 1.376 . S
C86 C95 1.511 . S
C87 C86 1.376 . S
C87 C88 1.392 . S
C87 H108 0.931 . S
C88 C87 1.392 . S
C88 C89 1.361 . S
C88 C90 1.500 . S
C89 C84 1.390 . S
C89 C88 1.361 . S
C89 H107 0.931 . S
C90 C88 1.500 . S
C90 C91 1.371 1_554 S
C90 C92 1.365 1_554 S
C91 C90 1.371 1_556 S
C91 C101 1.386 . S
C91 H109 0.931 . S
C92 C90 1.365 1_556 S
C92 C93 1.409 1_655 S
C92 H110 0.929 1_656 S
C93 C92 1.409 1_455 S
C93 C94 1.380 1_455 S
C93 H111 0.930 . S
C94 C93 1.380 1_655 S
C94 C101 1.357 . S
C95 C86 1.511 . S
C95 C96 1.341 . S
C95 C97 1.371 . S
C96 C95 1.341 . S
C96 C100 1.394 . S
C96 H112 0.930 . S
C97 C95 1.371 . S
C97 C98 1.399 . S
C97 H113 0.931 1_554 S
C98 C97 1.399 . S
C98 C99 1.359 . S
C98 H116 0.898 1_554 S
C99 C98 1.359 . S
C99 C100 1.336 . S
C100 C96 1.394 . S
C100 C99 1.336 . S
C100 H115 0.929 . S
C101 C91 1.386 . S
C101 C94 1.357 . S
C101 H114 0.928 . S
H102 C78 0.929 1_655 S
H103 C80 0.930 . S
H104 C82 0.929 . S
H105 C83 0.931 . S
H106 C85 0.930 . S
H107 C89 0.931 . S
H108 C87 0.931 . S
H109 C91 0.931 . S
H110 C92 0.929 1_454 S
H111 C93 0.930 . S
H112 C96 0.930 . S
H113 C97 0.931 1_556 S
H114 C101 0.928 . S
H115 C100 0.929 . S
H116 C98 0.898 1_556 S
C117 C118 1.386 . S
C117 C119 1.397 . S
C117 H141 0.931 . S
C118 C117 1.386 . S
C118 C122 1.397 . S
C119 C117 1.397 . S
C119 C120 1.384 . S
C119 H142 0.930 . S
C120 C119 1.384 . S
C120 C121 1.377 . S
C120 C123 1.481 . S
C121 C120 1.377 . S
C121 C122 1.389 . S
C121 H143 0.929 . S
C122 C118 1.397 . S
C122 C121 1.389 . S
C122 H144 0.931 . S
C123 C120 1.481 . S
C123 C124 1.387 . S
C123 C128 1.390 . S
C124 C123 1.387 . S
C124 C125 1.401 . S
C124 H145 0.930 . S
C125 C124 1.401 . S
C125 C126 1.376 . S
C125 C134 1.511 . S
C126 C125 1.376 . S
C126 C127 1.392 . S
C126 H147 0.931 . S
C127 C126 1.392 . S
C127 C128 1.361 . S
C127 C129 1.500 . S
C128 C123 1.390 . S
C128 C127 1.361 . S
C128 H146 0.931 . S
C129 C127 1.500 . S
C129 C130 1.371 . S
C129 C131 1.365 . S
C130 C129 1.371 . S
C130 C140 1.386 . S
C130 H148 0.931 . S
C131 C129 1.365 . S
C131 C132 1.409 . S
C131 H149 0.929 . S
C132 C131 1.409 . S
C132 C133 1.380 . S
C132 H150 0.930 . S
C133 C132 1.380 . S
C133 C140 1.357 . S
C134 C125 1.511 . S
C134 C135 1.341 . S
C134 C136 1.371 . S
C135 C134 1.341 . S
C135 C139 1.394 . S
C135 H151 0.930 . S
C136 C134 1.371 . S
C136 C137 1.392 . S
C136 H152 0.931 . S
C137 C136 1.392 . S
C137 C138 1.331 . S
C137 H155 0.932 . S
C138 C137 1.331 . S
C138 C139 1.336 . S
C139 C135 1.394 . S
C139 C138 1.336 . S
C139 H154 0.929 . S
C140 C130 1.386 . S
C140 C133 1.357 . S
C140 H153 0.928 . S
H141 C117 0.931 . S
H142 C119 0.930 . S
H143 C121 0.929 . S
H144 C122 0.931 . S
H145 C124 0.930 . S
H146 C128 0.931 . S
H147 C126 0.931 . S
H148 C130 0.931 . S
H149 C131 0.929 . S
H150 C132 0.930 . S
H151 C135 0.930 . S
H152 C136 0.931 . S
H153 C140 0.928 . S
H154 C139 0.929 . S
H155 C137 0.932 . S
C156 C157 1.386 . S
C156 C158 1.397 . S
C156 H180 0.931 . S
C157 C156 1.386 . S
C157 C161 1.397 . S
C158 C156 1.397 . S
C158 C159 1.384 1_655 S
C158 H181 0.930 . S
C159 C158 1.384 1_455 S
C159 C160 1.377 . S
C159 C162 1.481 . S
C160 C159 1.377 . S
C160 C161 1.389 1_455 S
C160 H182 0.929 . S
C161 C157 1.397 . S
C161 C160 1.389 1_655 S
C161 H183 0.931 1_655 S
C162 C159 1.481 . S
C162 C163 1.387 . S
C162 C167 1.390 . S
C163 C162 1.387 . S
C163 C164 1.401 . S
C163 H184 0.930 . S
C164 C163 1.401 . S
C164 C165 1.376 . S
C164 C173 1.511 . S
C165 C164 1.376 . S
C165 C166 1.392 . S
C165 H186 0.931 . S
C166 C165 1.392 . S
C166 C167 1.361 . S
C166 C168 1.500 1_565 S
C167 C162 1.390 . S
C167 C166 1.361 . S
C167 H185 0.931 1_565 S
C168 C166 1.500 1_545 S
C168 C169 1.371 . S
C168 C170 1.365 . S
C169 C168 1.371 . S
C169 C179 1.386 . S
C169 H187 0.931 . S
C170 C168 1.365 . S
C170 C171 1.409 . S
C170 H188 0.929 . S
C171 C170 1.409 . S
C171 C172 1.380 . S
C171 H189 0.930 . S
C172 C171 1.380 . S
C172 C179 1.357 . S
C173 C164 1.511 . S
C173 C174 1.341 . S
C173 C175 1.371 . S
C174 C173 1.341 . S
C174 C178 1.394 . S
C174 H190 0.930 1_455 S
C175 C173 1.371 . S
C175 C176 1.392 . S
C175 H191 0.931 . S
C176 C175 1.392 . S
C176 C177 1.331 . S
C176 H194 0.932 . S
C177 C176 1.331 . S
C177 C178 1.336 . S
C178 C174 1.394 . S
C178 C177 1.336 . S
C178 H193 0.929 1_455 S
C179 C169 1.386 . S
C179 C172 1.357 . S
C179 H192 0.928 . S
H180 C156 0.931 . S
H181 C158 0.930 . S
H182 C160 0.929 . S
H183 C161 0.931 1_455 S
H184 C163 0.930 . S
H185 C167 0.931 1_545 S
H186 C165 0.931 . S
H187 C169 0.931 . S
H188 C170 0.929 . S
H189 C171 0.930 . S
H190 C174 0.930 1_655 S
H191 C175 0.931 . S
H192 C179 0.928 . S
H193 C178 0.929 1_655 S
H194 C176 0.932 . S
C195 C196 1.386 . S
C195 C197 1.397 . S
C195 H219 0.931 . S
C196 C195 1.386 . S
C196 C200 1.397 . S
C197 C195 1.397 . S
C197 C198 1.384 . S
C197 H220 0.930 . S
C198 C197 1.384 . S
C198 C199 1.377 . S
C198 C201 1.481 . S
C199 C198 1.377 . S
C199 C200 1.389 . S
C199 H221 0.929 . S
C200 C196 1.397 . S
C200 C199 1.389 . S
C200 H222 0.931 . S
C201 C198 1.481 . S
C201 C202 1.387 . S
C201 C206 1.390 . S
C202 C201 1.387 . S
C202 C203 1.401 . S
C202 H223 0.930 . S
C203 C202 1.401 . S
C203 C204 1.376 . S
C203 C212 1.511 . S
C204 C203 1.376 . S
C204 C205 1.392 . S
C204 H225 0.931 . S
C205 C204 1.392 . S
C205 C206 1.361 . S
C205 C207 1.500 . S
C206 C201 1.390 . S
C206 C205 1.361 . S
C206 H224 0.931 . S
C207 C205 1.500 . S
C207 C208 1.371 . S
C207 C209 1.365 . S
C208 C207 1.371 . S
C208 C218 1.386 . S
C208 H226 0.931 . S
C209 C207 1.365 . S
C209 C210 1.409 . S
C209 H227 0.929 . S
C210 C209 1.409 . S
C210 C211 1.380 . S
C210 H228 0.930 . S
C211 C210 1.380 . S
C211 C218 1.357 . S
C212 C203 1.511 . S
C212 C213 1.341 . S
C212 C214 1.371 . S
C213 C212 1.341 . S
C213 C217 1.394 . S
C213 H229 0.930 . S
C214 C212 1.371 . S
C214 C215 1.392 . S
C214 H230 0.931 . S
C215 C214 1.392 . S
C215 C216 1.331 . S
C215 H233 0.932 . S
C216 C215 1.331 . S
C216 C217 1.336 . S
C217 C213 1.394 . S
C217 C216 1.336 . S
C217 H232 0.929 . S
C218 C208 1.386 . S
C218 C211 1.357 . S
C218 H231 0.928 . S
H219 C195 0.931 . S
H220 C197 0.930 . S
H221 C199 0.929 . S
H222 C200 0.931 . S
H223 C202 0.930 . S
H224 C206 0.931 . S
H225 C204 0.931 . S
H226 C208 0.931 . S
H227 C209 0.929 . S
H228 C210 0.930 . S
H229 C213 0.930 . S
H230 C214 0.931 . S
H231 C218 0.928 . S
H232 C217 0.929 . S
H233 C215 0.932 . S
C234 C235 1.386 . S
C234 C236 1.397 . S
C234 H258 0.931 . S
C235 C234 1.386 . S
C235 C239 1.397 . S
C236 C234 1.397 . S
C236 C237 1.384 . S
C236 H259 0.930 . S
C237 C236 1.384 . S
C237 C238 1.377 . S
C237 C240 1.481 . S
C238 C237 1.377 . S
C238 C239 1.389 . S
C238 H260 0.929 . S
C239 C235 1.397 . S
C239 C238 1.389 . S
C239 H261 0.931 . S
C240 C237 1.481 . S
C240 C241 1.387 . S
C240 C245 1.390 . S
C241 C240 1.387 . S
C241 C242 1.401 . S
C241 H262 0.952 . S
C242 C241 1.401 . S
C242 C243 1.376 . S
C242 C251 1.535 . S
C243 C242 1.376 . S
C243 C244 1.392 . S
C243 H264 0.931 . S
C244 C243 1.392 . S
C244 C245 1.361 . S
C244 C246 1.500 . S
C245 C240 1.390 . S
C245 C244 1.361 . S
C245 H263 0.931 . S
C246 C244 1.500 . S
C246 C247 1.371 . S
C246 C248 1.365 . S
C247 C246 1.371 . S
C247 C257 1.386 . S
C247 H265 0.931 . S
C248 C246 1.365 . S
C248 C249 1.409 . S
C248 H266 0.929 . S
C249 C248 1.409 . S
C249 C250 1.380 . S
C249 H267 0.930 . S
C250 C249 1.380 . S
C250 C257 1.357 . S
C251 C242 1.535 . S
C251 C252 1.318 1_655 S
C251 C253 1.366 1_655 S
C252 C251 1.318 1_455 S
C252 C256 1.394 . S
C252 H268 0.930 . S
C253 C251 1.366 1_455 S
C253 C254 1.412 . S
C253 H269 0.915 1_455 S
C254 C253 1.412 . S
C254 C255 1.331 . S
C254 H272 0.932 . S
C255 C254 1.331 . S
C255 C256 1.336 . S
C256 C252 1.394 . S
C256 C255 1.336 . S
C256 H271 0.929 . S
C257 C247 1.386 . S
C257 C250 1.357 . S
C257 H270 0.928 . S
H258 C234 0.931 . S
H259 C236 0.930 . S
H260 C238 0.929 . S
H261 C239 0.931 . S
H262 C241 0.952 . S
H263 C245 0.931 . S
H264 C243 0.931 . S
H265 C247 0.931 . S
H266 C248 0.929 . S
H267 C249 0.930 . S
H268 C252 0.930 . S
H269 C253 0.915 1_655 S
H270 C257 0.928 . S
H271 C256 0.929 . S
H272 C254 0.932 . S
C273 C274 1.386 . S
C273 C275 1.397 . S
C273 H297 0.931 . S
C274 C273 1.386 . S
C274 C278 1.397 . S
C275 C273 1.397 . S
C275 C276 1.384 . S
C275 H298 0.930 . S
C276 C275 1.384 . S
C276 C277 1.377 . S
C276 C279 1.481 . S
C277 C276 1.377 . S
C277 C278 1.389 . S
C277 H299 0.929 . S
C278 C274 1.397 . S
C278 C277 1.389 . S
C278 H300 0.931 . S
C279 C276 1.481 . S
C279 C280 1.387 . S
C279 C284 1.390 . S
C280 C279 1.387 . S
C280 C281 1.401 . S
C280 H301 0.930 . S
C281 C280 1.401 . S
C281 C282 1.376 . S
C281 C290 1.511 . S
C282 C281 1.376 . S
C282 C283 1.392 . S
C282 H303 0.931 . S
C283 C282 1.392 . S
C283 C284 1.361 . S
C283 C285 1.500 . S
C284 C279 1.390 . S
C284 C283 1.361 . S
C284 H302 0.931 . S
C285 C283 1.500 . S
C285 C286 1.371 . S
C285 C287 1.365 . S
C286 C285 1.371 . S
C286 C296 1.386 . S
C286 H304 0.931 . S
C287 C285 1.365 . S
C287 C288 1.409 . S
C287 H305 0.929 . S
C288 C287 1.409 . S
C288 C289 1.380 . S
C288 H306 0.930 . S
C289 C288 1.380 . S
C289 C296 1.357 . S
C290 C281 1.511 . S
C290 C291 1.341 . S
C290 C292 1.371 . S
C291 C290 1.341 . S
C291 C295 1.394 . S
C291 H307 0.930 . S
C292 C290 1.371 . S
C292 C293 1.392 . S
C292 H308 0.931 . S
C293 C292 1.392 . S
C293 C294 1.331 . S
C293 H311 0.932 . S
C294 C293 1.331 . S
C294 C295 1.336 . S
C295 C291 1.394 . S
C295 C294 1.336 . S
C295 H310 0.929 . S
C296 C286 1.386 . S
C296 C289 1.357 . S
C296 H309 0.928 . S
H297 C273 0.931 . S
H298 C275 0.930 . S
H299 C277 0.929 . S
H300 C278 0.931 . S
H301 C280 0.930 . S
H302 C284 0.931 . S
H303 C282 0.931 . S
H304 C286 0.931 . S
H305 C287 0.929 . S
H306 C288 0.930 . S
H307 C291 0.930 . S
H308 C292 0.931 . S
H309 C296 0.928 . S
H310 C295 0.929 . S
H311 C293 0.932 . S
C312 C313 1.386 . S
C312 C314 1.397 . S
C312 H336 0.931 . S
C313 C312 1.386 . S
C313 C317 1.397 . S
C314 C312 1.397 . S
C314 C315 1.384 . S
C314 H337 0.930 . S
C315 C314 1.384 . S
C315 C316 1.377 . S
C315 C318 1.481 . S
C316 C315 1.377 . S
C316 C317 1.389 . S
C316 H338 0.929 . S
C317 C313 1.397 . S
C317 C316 1.389 . S
C317 H339 0.931 . S
C318 C315 1.481 . S
C318 C319 1.387 . S
C318 C323 1.390 . S
C319 C318 1.387 . S
C319 C320 1.401 . S
C319 H340 0.930 . S
C320 C319 1.401 . S
C320 C321 1.376 . S
C320 C329 1.511 . S
C321 C320 1.376 . S
C321 C322 1.392 . S
C321 H342 0.931 . S
C322 C321 1.392 . S
C322 C323 1.361 . S
C322 C324 1.500 . S
C323 C318 1.390 . S
C323 C322 1.361 . S
C323 H341 0.931 . S
C324 C322 1.500 . S
C324 C325 1.371 . S
C324 C326 1.365 . S
C325 C324 1.371 . S
C325 C335 1.386 . S
C325 H343 0.931 . S
C326 C324 1.365 . S
C326 C327 1.409 . S
C326 H344 0.929 . S
C327 C326 1.409 . S
C327 C328 1.380 . S
C327 H345 0.930 . S
C328 C327 1.380 . S
C328 C335 1.357 . S
C329 C320 1.511 . S
C329 C330 1.341 . S
C329 C331 1.371 . S
C330 C329 1.341 . S
C330 C334 1.394 . S
C330 H346 0.930 . S
C331 C329 1.371 . S
C331 C332 1.392 . S
C331 H347 0.931 . S
C332 C331 1.392 . S
C332 C333 1.331 . S
C332 H350 0.932 . S
C333 C332 1.331 . S
C333 C334 1.336 . S
C334 C330 1.394 . S
C334 C333 1.336 . S
C334 H349 0.929 . S
C335 C325 1.386 . S
C335 C328 1.357 . S
C335 H348 0.928 . S
H336 C312 0.931 . S
H337 C314 0.930 . S
H338 C316 0.929 . S
H339 C317 0.931 . S
H340 C319 0.930 . S
H341 C323 0.931 . S
H342 C321 0.931 . S
H343 C325 0.931 . S
H344 C326 0.929 . S
H345 C327 0.930 . S
H346 C330 0.930 . S
H347 C331 0.931 . S
H348 C335 0.928 . S
H349 C334 0.929 . S
H350 C332 0.932 . S
C351 C352 1.386 . S
C351 C353 1.397 . S
C351 H375 0.931 . S
C352 C351 1.386 . S
C352 C356 1.397 . S
C353 C351 1.397 . S
C353 C354 1.384 . S
C353 H376 0.930 . S
C354 C353 1.384 . S
C354 C355 1.377 . S
C354 C357 1.481 . S
C355 C354 1.377 . S
C355 C356 1.389 . S
C355 H377 0.929 . S
C356 C352 1.397 . S
C356 C355 1.389 . S
C356 H378 0.931 . S
C357 C354 1.481 . S
C357 C358 1.387 . S
C357 C362 1.390 . S
C358 C357 1.387 . S
C358 C359 1.401 . S
C358 H379 0.931 1_565 S
C359 C358 1.401 . S
C359 C360 1.376 . S
C359 C368 1.495 1_565 S
C360 C359 1.376 . S
C360 C361 1.392 . S
C360 H381 0.931 . S
C361 C360 1.392 . S
C361 C362 1.361 . S
C361 C363 1.500 . S
C362 C357 1.390 . S
C362 C361 1.361 . S
C362 H380 0.931 . S
C363 C361 1.500 . S
C363 C364 1.371 . S
C363 C365 1.365 . S
C364 C363 1.371 . S
C364 C374 1.386 . S
C364 H382 0.931 . S
C365 C363 1.365 . S
C365 C366 1.409 . S
C365 H383 0.929 . S
C366 C365 1.409 . S
C366 C367 1.380 . S
C366 H384 0.930 . S
C367 C366 1.380 . S
C367 C374 1.357 . S
C368 C359 1.495 1_545 S
C368 C369 1.356 . S
C368 C370 1.374 . S
C369 C368 1.356 . S
C369 C373 1.394 . S
C369 H385 0.930 . S
C370 C368 1.374 . S
C370 C371 1.392 . S
C370 H386 0.931 1_545 S
C371 C370 1.392 . S
C371 C372 1.331 . S
C371 H389 0.932 . S
C372 C371 1.331 . S
C372 C373 1.336 . S
C373 C369 1.394 . S
C373 C372 1.336 . S
C373 H388 0.929 . S
C374 C364 1.386 . S
C374 C367 1.357 . S
C374 H387 0.928 . S
H375 C351 0.931 . S
H376 C353 0.930 . S
H377 C355 0.929 . S
H378 C356 0.931 . S
H379 C358 0.931 1_545 S
H380 C362 0.931 . S
H381 C360 0.931 . S
H382 C364 0.931 . S
H383 C365 0.929 . S
H384 C366 0.930 . S
H385 C369 0.930 . S
H386 C370 0.931 1_565 S
H387 C374 0.928 . S
H388 C373 0.929 . S
H389 C371 0.932 . S
C390 C391 1.386 . S
C390 C392 1.397 . S
C390 H414 0.931 . S
C391 C390 1.386 . S
C391 C395 1.397 . S
C392 C390 1.397 . S
C392 C393 1.384 . S
C392 H415 0.930 . S
C393 C392 1.384 . S
C393 C394 1.377 . S
C393 C396 1.481 . S
C394 C393 1.377 . S
C394 C395 1.389 . S
C394 H416 0.929 . S
C395 C391 1.397 . S
C395 C394 1.389 . S
C395 H417 0.931 . S
C396 C393 1.481 . S
C396 C397 1.387 . S
C396 C401 1.390 . S
C397 C396 1.387 . S
C397 C398 1.401 . S
C397 H418 0.930 . S
C398 C397 1.401 . S
C398 C399 1.376 . S
C398 C407 1.511 . S
C399 C398 1.376 . S
C399 C400 1.392 . S
C399 H420 0.931 . S
C400 C399 1.392 . S
C400 C401 1.361 . S
C400 C402 1.500 . S
C401 C396 1.390 . S
C401 C400 1.361 . S
C401 H419 0.931 . S
C402 C400 1.500 . S
C402 C403 1.371 . S
C402 C404 1.365 . S
C403 C402 1.371 . S
C403 C413 1.386 . S
C403 H421 0.931 . S
C404 C402 1.365 . S
C404 C405 1.409 . S
C404 H422 0.929 . S
C405 C404 1.409 . S
C405 C406 1.380 . S
C405 H423 0.930 . S
C406 C405 1.380 . S
C406 C413 1.357 . S
C407 C398 1.511 . S
C407 C408 1.341 . S
C407 C409 1.371 . S
C408 C407 1.341 . S
C408 C412 1.394 . S
C408 H424 0.930 . S
C409 C407 1.371 . S
C409 C410 1.392 . S
C409 H425 0.931 . S
C410 C409 1.392 . S
C410 C411 1.331 . S
C410 H428 0.932 . S
C411 C410 1.331 . S
C411 C412 1.336 . S
C412 C408 1.394 . S
C412 C411 1.336 . S
C412 H427 0.929 . S
C413 C403 1.386 . S
C413 C406 1.357 . S
C413 H426 0.928 . S
H414 C390 0.931 . S
H415 C392 0.930 . S
H416 C394 0.929 . S
H417 C395 0.931 . S
H418 C397 0.930 . S
H419 C401 0.931 . S
H420 C399 0.931 . S
H421 C403 0.931 . S
H422 C404 0.929 . S
H423 C405 0.930 . S
H424 C408 0.930 . S
H425 C409 0.931 . S
H426 C413 0.928 . S
H427 C412 0.929 . S
H428 C410 0.932 . S
C429 C430 1.386 . S
C429 C431 1.397 . S
C429 H453 0.931 . S
C430 C429 1.386 . S
C430 C434 1.397 . S
C431 C429 1.397 . S
C431 C432 1.384 . S
C431 H454 0.930 . S
C432 C431 1.384 . S
C432 C433 1.377 . S
C432 C435 1.481 . S
C433 C432 1.377 . S
C433 C434 1.389 . S
C433 H455 0.929 . S
C434 C430 1.397 . S
C434 C433 1.389 . S
C434 H456 0.931 . S
C435 C432 1.481 . S
C435 C436 1.387 . S
C435 C440 1.390 . S
C436 C435 1.387 . S
C436 C437 1.401 . S
C436 H457 0.930 . S
C437 C436 1.401 . S
C437 C438 1.376 . S
C437 C446 1.511 . S
C438 C437 1.376 . S
C438 C439 1.392 . S
C438 H459 0.931 . S
C439 C438 1.392 . S
C439 C440 1.361 . S
C439 C441 1.500 . S
C440 C435 1.390 . S
C440 C439 1.361 . S
C440 H458 0.931 . S
C441 C439 1.500 . S
C441 C442 1.371 . S
C441 C443 1.365 . S
C442 C441 1.371 . S
C442 C452 1.386 . S
C442 H460 0.931 . S
C443 C441 1.365 . S
C443 C444 1.409 . S
C443 H461 0.929 . S
C444 C443 1.409 . S
C444 C445 1.380 . S
C444 H462 0.930 . S
C445 C444 1.380 . S
C445 C452 1.357 . S
C446 C437 1.511 . S
C446 C447 1.341 . S
C446 C448 1.371 . S
C447 C446 1.341 . S
C447 C451 1.394 . S
C447 H463 0.930 . S
C448 C446 1.371 . S
C448 C449 1.392 . S
C448 H464 0.931 . S
C449 C448 1.392 . S
C449 C450 1.331 . S
C449 H467 0.932 . S
C450 C449 1.331 . S
C450 C451 1.336 . S
C451 C447 1.394 . S
C451 C450 1.336 . S
C451 H466 0.929 . S
C452 C442 1.386 . S
C452 C445 1.357 . S
C452 H465 0.928 . S
H453 C429 0.931 . S
H454 C431 0.930 . S
H455 C433 0.929 . S
H456 C434 0.931 . S
H457 C436 0.930 . S
H458 C440 0.931 . S
H459 C438 0.931 . S
H460 C442 0.931 . S
H461 C443 0.929 . S
H462 C444 0.930 . S
H463 C447 0.930 . S
H464 C448 0.931 . S
H465 C452 0.928 . S
H466 C451 0.929 . S
H467 C449 0.932 . S
C468 C469 1.386 . S
C468 C470 1.397 . S
C468 H492 0.931 . S
C469 C468 1.386 . S
C469 C473 1.397 . S
C470 C468 1.397 . S
C470 C471 1.384 . S
C470 H493 0.930 . S
C471 C470 1.384 . S
C471 C472 1.377 . S
C471 C474 1.481 . S
C472 C471 1.377 . S
C472 C473 1.389 . S
C472 H494 0.929 . S
C473 C469 1.397 . S
C473 C472 1.389 . S
C473 H495 0.931 . S
C474 C471 1.481 . S
C474 C475 1.387 . S
C474 C479 1.390 . S
C475 C474 1.387 . S
C475 C476 1.401 . S
C475 H496 0.930 . S
C476 C475 1.401 . S
C476 C477 1.376 . S
C476 C485 1.511 . S
C477 C476 1.376 . S
C477 C478 1.392 . S
C477 H498 0.931 . S
C478 C477 1.392 . S
C478 C479 1.361 . S
C478 C480 1.500 . S
C479 C474 1.390 . S
C479 C478 1.361 . S
C479 H497 0.931 . S
C480 C478 1.500 . S
C480 C481 1.371 . S
C480 C482 1.365 . S
C481 C480 1.371 . S
C481 C491 1.386 . S
C481 H499 0.931 . S
C482 C480 1.365 . S
C482 C483 1.409 . S
C482 H500 0.929 . S
C483 C482 1.409 . S
C483 C484 1.380 . S
C483 H501 0.930 . S
C484 C483 1.380 . S
C484 C491 1.357 . S
C485 C476 1.511 . S
C485 C486 1.341 . S
C485 C487 1.371 . S
C486 C485 1.341 . S
C486 C490 1.394 . S
C486 H502 0.930 . S
C487 C485 1.371 . S
C487 C488 1.392 . S
C487 H503 0.931 . S
C488 C487 1.392 . S
C488 C489 1.331 . S
C488 H506 0.932 . S
C489 C488 1.331 . S
C489 C490 1.336 . S
C490 C486 1.394 . S
C490 C489 1.336 . S
C490 H505 0.929 . S
C491 C481 1.386 . S
C491 C484 1.357 . S
C491 H504 0.928 . S
H492 C468 0.931 . S
H493 C470 0.930 . S
H494 C472 0.929 . S
H495 C473 0.931 . S
H496 C475 0.930 . S
H497 C479 0.931 . S
H498 C477 0.931 . S
H499 C481 0.931 . S
H500 C482 0.929 . S
H501 C483 0.930 . S
H502 C486 0.930 . S
H503 C487 0.931 . S
H504 C491 0.928 . S
H505 C490 0.929 . S
H506 C488 0.932 . S
C507 C508 1.386 . S
C507 C509 1.397 . S
C507 H531 0.931 . S
C508 C507 1.386 . S
C508 C512 1.397 . S
C509 C507 1.397 . S
C509 C510 1.384 . S
C509 H532 0.930 . S
C510 C509 1.384 . S
C510 C511 1.377 . S
C510 C513 1.481 . S
C511 C510 1.377 . S
C511 C512 1.389 . S
C511 H533 0.929 . S
C512 C508 1.397 . S
C512 C511 1.389 . S
C512 H534 0.931 . S
C513 C510 1.481 . S
C513 C514 1.387 . S
C513 C518 1.390 . S
C514 C513 1.387 . S
C514 C515 1.401 . S
C514 H535 0.930 . S
C515 C514 1.401 . S
C515 C516 1.376 . S
C515 C524 1.511 . S
C516 C515 1.376 . S
C516 C517 1.392 . S
C516 H537 0.931 . S
C517 C516 1.392 . S
C517 C518 1.361 . S
C517 C519 1.500 . S
C518 C513 1.390 . S
C518 C517 1.361 . S
C518 H536 0.931 . S
C519 C517 1.500 . S
C519 C520 1.371 . S
C519 C521 1.365 . S
C520 C519 1.371 . S
C520 C530 1.386 . S
C520 H538 0.931 1_556 S
C521 C519 1.365 . S
C521 C522 1.409 . S
C521 H539 0.929 . S
C522 C521 1.409 . S
C522 C523 1.380 . S
C522 H540 0.930 . S
C523 C522 1.380 . S
C523 C530 1.357 . S
C524 C515 1.511 . S
C524 C525 1.341 . S
C524 C526 1.371 1_556 S
C525 C524 1.341 . S
C525 C529 1.394 1_556 S
C525 H541 0.930 . S
C526 C524 1.371 1_554 S
C526 C527 1.392 . S
C526 H542 0.931 . S
C527 C526 1.392 . S
C527 C528 1.331 . S
C527 H545 0.932 . S
C528 C527 1.331 . S
C528 C529 1.336 . S
C529 C525 1.394 1_554 S
C529 C528 1.336 . S
C529 H544 0.929 . S
C530 C520 1.386 . S
C530 C523 1.357 . S
C530 H543 0.928 1_556 S
H531 C507 0.931 . S
H532 C509 0.930 . S
H533 C511 0.929 . S
H534 C512 0.931 . S
H535 C514 0.930 . S
H536 C518 0.931 . S
H537 C516 0.931 . S
H538 C520 0.931 1_554 S
H539 C521 0.929 . S
H540 C522 0.930 . S
H541 C525 0.930 . S
H542 C526 0.931 . S
H543 C530 0.928 1_554 S
H544 C529 0.929 . S
H545 C527 0.932 . S
C546 C547 1.386 . S
C546 C548 1.397 . S
C546 H570 0.931 . S
C547 C546 1.386 . S
C547 C551 1.397 . S
C548 C546 1.397 . S
C548 C549 1.384 . S
C548 H571 0.930 . S
C549 C548 1.384 . S
C549 C550 1.377 . S
C549 C552 1.481 . S
C550 C549 1.377 . S
C550 C551 1.389 . S
C550 H572 0.929 . S
C551 C547 1.397 . S
C551 C550 1.389 . S
C551 H573 0.931 . S
C552 C549 1.481 . S
C552 C553 1.387 . S
C552 C557 1.390 . S
C553 C552 1.387 . S
C553 C554 1.401 . S
C553 H574 0.930 . S
C554 C553 1.401 . S
C554 C555 1.376 . S
C554 C563 1.511 . S
C555 C554 1.376 . S
C555 C556 1.392 . S
C555 H576 0.931 . S
C556 C555 1.392 . S
C556 C557 1.361 . S
C556 C558 1.500 . S
C557 C552 1.390 . S
C557 C556 1.361 . S
C557 H575 0.931 . S
C558 C556 1.500 . S
C558 C559 1.371 . S
C558 C560 1.365 . S
C559 C558 1.371 . S
C559 C569 1.386 . S
C559 H577 0.931 . S
C560 C558 1.365 . S
C560 C561 1.409 . S
C560 H578 0.929 . S
C561 C560 1.409 . S
C561 C562 1.380 . S
C561 H579 0.930 . S
C562 C561 1.380 . S
C562 C569 1.357 . S
C563 C554 1.511 . S
C563 C564 1.341 . S
C563 C565 1.371 . S
C564 C563 1.341 . S
C564 C568 1.394 . S
C564 H580 0.930 . S
C565 C563 1.371 . S
C565 C566 1.392 . S
C565 H581 0.931 . S
C566 C565 1.392 . S
C566 C567 1.331 . S
C566 H584 0.932 . S
C567 C566 1.331 . S
C567 C568 1.336 . S
C568 C564 1.394 . S
C568 C567 1.336 . S
C568 H583 0.929 . S
C569 C559 1.386 . S
C569 C562 1.357 . S
C569 H582 0.928 . S
H570 C546 0.931 . S
H571 C548 0.930 . S
H572 C550 0.929 . S
H573 C551 0.931 . S
H574 C553 0.930 . S
H575 C557 0.931 . S
H576 C555 0.931 . S
H577 C559 0.931 . S
H578 C560 0.929 . S
H579 C561 0.930 . S
H580 C564 0.930 . S
H581 C565 0.931 . S
H582 C569 0.928 . S
H583 C568 0.929 . S
H584 C566 0.932 . S
C585 C586 1.386 . S
C585 C587 1.397 1_554 S
C585 H609 0.929 . S
C586 C585 1.386 . S
C586 C590 1.397 . S
C587 C585 1.397 1_556 S
C587 C588 1.382 . S
C587 H610 0.930 . S
C588 C587 1.382 . S
C588 C589 1.382 1_556 S
C588 C591 1.478 . S
C589 C588 1.382 1_554 S
C589 C590 1.389 . S
C589 H611 0.929 . S
C590 C586 1.397 . S
C590 C589 1.389 . S
C590 H612 0.931 . S
C591 C588 1.478 . S
C591 C592 1.387 . S
C591 C596 1.390 . S
C592 C591 1.387 . S
C592 C593 1.401 . S
C592 H613 0.930 . S
C593 C592 1.401 . S
C593 C594 1.376 . S
C593 C602 1.511 . S
C594 C593 1.376 . S
C594 C595 1.392 . S
C594 H615 0.931 . S
C595 C594 1.392 . S
C595 C596 1.361 . S
C595 C597 1.500 . S
C596 C591 1.390 . S
C596 C595 1.361 . S
C596 H614 0.918 1_556 S
C597 C595 1.500 . S
C597 C598 1.371 1_545 S
C597 C599 1.365 1_556 S
C598 C597 1.371 1_565 S
C598 C608 1.386 . S
C598 H616 0.931 . S
C599 C597 1.365 1_554 S
C599 C600 1.409 1_545 S
C599 H617 0.929 . S
C600 C599 1.409 1_565 S
C600 C601 1.380 1_554 S
C600 H618 0.930 . S
C601 C600 1.380 1_556 S
C601 C608 1.357 . S
C602 C593 1.511 . S
C602 C603 1.341 . S
C602 C604 1.371 . S
C603 C602 1.341 . S
C603 C607 1.394 . S
C603 H619 0.930 . S
C604 C602 1.371 . S
C604 C605 1.392 . S
C604 H620 0.931 1_545 S
C605 C604 1.392 . S
C605 C606 1.331 . S
C605 H623 0.932 1_545 S
C606 C605 1.331 . S
C606 C607 1.336 . S
C607 C603 1.394 . S
C607 C606 1.336 . S
C607 H622 0.929 . S
C608 C598 1.386 . S
C608 C601 1.357 . S
C608 H621 0.928 . S
H609 C585 0.929 . S
H610 C587 0.930 . S
H611 C589 0.929 . S
H612 C590 0.931 . S
H613 C592 0.930 . S
H614 C596 0.918 1_554 S
H615 C594 0.931 . S
H616 C598 0.931 . S
H617 C599 0.929 . S
H618 C600 0.930 . S
H619 C603 0.930 . S
H620 C604 0.931 1_565 S
H621 C608 0.928 . S
H622 C607 0.929 . S
H623 C605 0.932 1_565 S
C624 O625 1.160 1_554 S
C624 O631 1.185 . S
O625 C624 1.160 1_556 S
O626 Zn627 1.899 1_556 S
O626 C634 1.284 . S
Zn627 O626 1.899 1_554 S
Zn627 O628 2.032 . S
Zn627 O631 2.086 . S
Zn627 O636 1.977 . S
O628 Zn627 2.032 . S
O628 C632 1.278 . S
C629 O630 1.203 . S
C629 O636 1.267 . S
O630 C629 1.203 . S
O631 C624 1.185 . S
O631 Zn627 2.086 . S
C632 O628 1.278 . S
C632 O633 1.211 . S
O633 C632 1.211 . S
C634 O626 1.284 . S
C634 O635 1.273 . S
O635 C634 1.273 . S
O636 Zn627 1.977 . S
O636 C629 1.267 . S
C637 O638 1.160 . S
C637 O644 1.185 . S
O638 C637 1.160 . S
O639 Zn640 1.899 . S
O639 C647 1.284 . S
Zn640 O639 1.899 . S
Zn640 O641 2.032 . S
Zn640 O644 2.086 . S
Zn640 O649 1.977 . S
O641 Zn640 2.032 . S
O641 C645 1.278 . S
C642 O643 1.203 . S
C642 O649 1.267 . S
O643 C642 1.203 . S
O644 C637 1.185 . S
O644 Zn640 2.086 . S
C645 O641 1.278 . S
C645 O646 1.211 . S
O646 C645 1.211 . S
C647 O639 1.284 . S
C647 O648 1.273 . S
O648 C647 1.273 . S
O649 Zn640 1.977 . S
O649 C642 1.267 . S
C650 O651 1.160 1_554 S
C650 O657 1.185 . S
O651 C650 1.160 1_556 S
O652 Zn653 1.899 1_556 S
O652 C660 1.284 . S
Zn653 O652 1.899 1_554 S
Zn653 O654 2.032 1_554 S
Zn653 O657 2.086 . S
Zn653 O662 1.977 . S
O654 Zn653 2.032 1_556 S
O654 C658 1.278 . S
C655 O656 1.203 . S
C655 O662 1.267 . S
O656 C655 1.203 . S
O657 C650 1.185 . S
O657 Zn653 2.086 . S
C658 O654 1.278 . S
C658 O659 1.211 1_556 S
O659 C658 1.211 1_554 S
C660 O652 1.284 . S
C660 O661 1.273 . S
O661 C660 1.273 . S
O662 Zn653 1.977 . S
O662 C655 1.267 . S
C663 O664 1.160 . S
C663 O670 1.185 . S
O664 C663 1.160 . S
O665 Zn666 1.899 . S
O665 C673 1.284 . S
Zn666 O665 1.899 . S
Zn666 O667 2.032 1_545 S
Zn666 O670 2.086 . S
Zn666 O675 1.977 . S
O667 Zn666 2.032 1_565 S
O667 C671 1.278 . S
C668 O669 1.203 . S
C668 O675 1.267 . S
O669 C668 1.203 . S
O670 C663 1.185 . S
O670 Zn666 2.086 . S
C671 O667 1.278 . S
C671 O672 1.211 . S
O672 C671 1.211 . S
C673 O665 1.284 . S
C673 O674 1.273 1_545 S
O674 C673 1.273 1_565 S
O675 Zn666 1.977 . S
O675 C668 1.267 . S
C676 O677 1.160 . S
C676 O683 1.185 . S
O677 C676 1.160 . S
O678 Zn679 1.899 . S
O678 C686 1.284 . S
Zn679 O678 1.899 . S
Zn679 O680 2.032 . S
Zn679 O683 2.086 . S
Zn679 O688 1.977 . S
O680 Zn679 2.032 . S
O680 C684 1.278 . S
C681 O682 1.203 . S
C681 O688 1.267 . S
O682 C681 1.203 . S
O683 C676 1.185 . S
O683 Zn679 2.086 . S
C684 O680 1.278 . S
C684 O685 1.211 . S
O685 C684 1.211 . S
C686 O678 1.284 . S
C686 O687 1.273 . S
O687 C686 1.273 . S
O688 Zn679 1.977 . S
O688 C681 1.267 . S
C689 O690 1.160 . S
C689 O696 1.185 . S
O690 C689 1.160 . S
O691 Zn692 1.899 . S
O691 C699 1.284 . S
Zn692 O691 1.899 . S
Zn692 O693 2.032 . S
Zn692 O696 2.086 . S
Zn692 O701 1.977 . S
O693 Zn692 2.032 . S
O693 C697 1.278 . S
C694 O695 1.203 . S
C694 O701 1.267 . S
O695 C694 1.203 . S
O696 C689 1.185 . S
O696 Zn692 2.086 . S
C697 O693 1.278 . S
C697 O698 1.211 . S
O698 C697 1.211 . S
C699 O691 1.284 . S
C699 O700 1.273 . S
O700 C699 1.273 . S
O701 Zn692 1.977 . S
O701 C694 1.267 . S
C702 O703 1.160 . S
C702 O709 1.185 . S
O703 C702 1.160 . S
O704 Zn705 1.899 . S
O704 C712 1.284 . S
Zn705 O704 1.899 . S
Zn705 O706 2.032 . S
Zn705 O709 2.086 . S
Zn705 O714 1.977 . S
O706 Zn705 2.032 . S
O706 C710 1.278 . S
C707 O708 1.203 . S
C707 O714 1.267 . S
O708 C707 1.203 . S
O709 C702 1.185 . S
O709 Zn705 2.086 . S
C710 O706 1.278 . S
C710 O711 1.211 . S
O711 C710 1.211 . S
C712 O704 1.284 . S
C712 O713 1.273 . S
O713 C712 1.273 . S
O714 Zn705 1.977 . S
O714 C707 1.267 . S
C715 O716 1.160 . S
C715 O722 1.185 . S
O716 C715 1.160 . S
O717 Zn718 1.899 . S
O717 C725 1.284 1_565 S
Zn718 O717 1.899 . S
Zn718 O719 2.032 1_565 S
Zn718 O722 2.086 . S
Zn718 O727 1.977 . S
O719 Zn718 2.032 1_545 S
O719 C723 1.278 . S
C720 O721 1.203 1_565 S
C720 O727 1.267 . S
O721 C720 1.203 1_545 S
O722 C715 1.185 . S
O722 Zn718 2.086 . S
C723 O719 1.278 . S
C723 O724 1.211 . S
O724 C723 1.211 . S
C725 O717 1.284 1_545 S
C725 O726 1.273 . S
O726 C725 1.273 . S
O727 Zn718 1.977 . S
O727 C720 1.267 . S
C728 O729 1.160 1_455 S
C728 O735 1.185 . S
O729 C728 1.160 1_655 S
O730 Zn731 1.899 1_655 S
O730 C738 1.284 . S
Zn731 O730 1.899 1_455 S
Zn731 O732 2.032 1_455 S
Zn731 O735 2.086 . S
Zn731 O740 1.977 . S
O732 Zn731 2.032 1_655 S
O732 C736 1.277 1_655 S
C733 O734 1.203 . S
C733 O740 1.267 . S
O734 C733 1.203 . S
O735 C728 1.185 . S
O735 Zn731 2.086 . S
C736 O732 1.277 1_455 S
C736 O737 1.217 . S
O737 C736 1.217 . S
C738 O730 1.284 . S
C738 O739 1.273 . S
O739 C738 1.273 . S
O740 Zn731 1.977 . S
O740 C733 1.267 . S
C741 O742 1.160 . S
C741 O748 1.185 . S
O742 C741 1.160 . S
O743 Zn744 1.899 . S
O743 C751 1.284 . S
Zn744 O743 1.899 . S
Zn744 O745 2.032 . S
Zn744 O748 2.086 . S
Zn744 O753 1.977 . S
O745 Zn744 2.032 . S
O745 C749 1.278 . S
C746 O747 1.203 . S
C746 O753 1.267 . S
O747 C746 1.203 . S
O748 C741 1.185 . S
O748 Zn744 2.086 . S
C749 O745 1.278 . S
C749 O750 1.211 . S
O750 C749 1.211 . S
C751 O743 1.284 . S
C751 O752 1.273 . S
O752 C751 1.273 . S
O753 Zn744 1.977 . S
O753 C746 1.267 . S
C754 O755 1.160 1_455 S
C754 O761 1.185 . S
O755 C754 1.160 1_655 S
O756 Zn757 1.899 1_655 S
O756 C764 1.284 . S
Zn757 O756 1.899 1_455 S
Zn757 O758 2.032 1_455 S
Zn757 O761 2.086 . S
Zn757 O766 1.977 . S
O758 Zn757 2.032 1_655 S
O758 C762 1.278 . S
C759 O760 1.203 . S
C759 O766 1.267 . S
O760 C759 1.203 . S
O761 C754 1.185 . S
O761 Zn757 2.086 . S
C762 O758 1.278 . S
C762 O763 1.211 1_655 S
O763 C762 1.211 1_455 S
C764 O756 1.284 . S
C764 O765 1.273 . S
O765 C764 1.273 . S
O766 Zn757 1.977 . S
O766 C759 1.267 . S
C767 O768 1.160 . S
C767 O774 1.185 . S
O768 C767 1.160 . S
O769 Zn770 1.899 . S
O769 C777 1.284 . S
Zn770 O769 1.899 . S
Zn770 O771 2.032 . S
Zn770 O774 2.086 . S
Zn770 O779 1.977 . S
O771 Zn770 2.032 . S
O771 C775 1.278 . S
C772 O773 1.203 . S
C772 O779 1.267 . S
O773 C772 1.203 . S
O774 C767 1.185 . S
O774 Zn770 2.086 . S
C775 O771 1.278 . S
C775 O776 1.211 . S
O776 C775 1.211 . S
C777 O769 1.284 . S
C777 O778 1.273 . S
O778 C777 1.273 . S
O779 Zn770 1.977 . S
O779 C772 1.267 . S
C780 C781 1.369 . S
C780 C782 1.419 . S
C780 H784 0.930 . S
C781 C780 1.369 . S
C781 C790 1.429 . S
C782 C780 1.419 . S
C782 C783 1.363 . S
C782 H785 0.929 . S
C783 C782 1.363 . S
C783 C789 1.428 . S
H784 C780 0.930 . S
H785 C782 0.929 . S
S786 N787 1.613 . S
S786 N788 1.610 . S
N787 S786 1.613 . S
N787 C790 1.350 . S
N788 S786 1.610 . S
N788 C789 1.351 . S
C789 C783 1.428 . S
C789 N788 1.351 . S
C789 C790 1.434 . S
C790 C781 1.429 . S
C790 N787 1.350 . S
C790 C789 1.434 . S
C791 C792 1.369 . S
C791 C793 1.419 . S
C791 H795 0.930 . S
C792 C791 1.369 . S
C792 C801 1.429 . S
C793 C791 1.419 . S
C793 C794 1.363 . S
C793 H796 0.929 . S
C794 C793 1.363 . S
C794 C800 1.428 . S
H795 C791 0.930 . S
H796 C793 0.929 . S
S797 N798 1.613 . S
S797 N799 1.610 . S
N798 S797 1.613 . S
N798 C801 1.350 . S
N799 S797 1.610 . S
N799 C800 1.351 . S
C800 C794 1.428 . S
C800 N799 1.351 . S
C800 C801 1.434 . S
C801 C792 1.429 . S
C801 N798 1.350 . S
C801 C800 1.434 . S
C802 C803 1.369 . S
C802 C804 1.419 . S
C802 H806 0.930 . S
C803 C802 1.369 . S
C803 C812 1.429 . S
C804 C802 1.419 . S
C804 C805 1.363 . S
C804 H807 0.929 . S
C805 C804 1.363 . S
C805 C811 1.428 . S
H806 C802 0.930 . S
H807 C804 0.929 . S
S808 N809 1.613 . S
S808 N810 1.610 . S
N809 S808 1.613 . S
N809 C812 1.350 . S
N810 S808 1.610 . S
N810 C811 1.351 . S
C811 C805 1.428 . S
C811 N810 1.351 . S
C811 C812 1.434 . S
C812 C803 1.429 . S
C812 N809 1.350 . S
C812 C811 1.434 . S
C813 C814 1.369 . S
C813 C815 1.419 1_565 S
C813 H817 0.930 . S
C814 C813 1.369 . S
C814 C823 1.429 . S
C815 C813 1.419 1_545 S
C815 C816 1.363 . S
C815 H818 0.929 . S
C816 C815 1.363 . S
C816 C822 1.423 1_545 S
H817 C813 0.930 . S
H818 C815 0.929 . S
S819 N820 1.613 . S
S819 N821 1.609 1_565 S
N820 S819 1.613 . S
N820 C823 1.350 . S
N821 S819 1.609 1_545 S
N821 C822 1.350 1_545 S
C822 C816 1.423 1_565 S
C822 N821 1.350 1_565 S
C822 C823 1.441 . S
C823 C814 1.429 . S
C823 N820 1.350 . S
C823 C822 1.441 . S
C824 C825 1.369 . S
C824 C826 1.419 . S
C824 H828 0.930 . S
C825 C824 1.369 . S
C825 C834 1.429 . S
C826 C824 1.419 . S
C826 C827 1.363 . S
C826 H829 0.929 . S
C827 C826 1.363 . S
C827 C833 1.428 . S
H828 C824 0.930 . S
H829 C826 0.929 . S
S830 N831 1.613 . S
S830 N832 1.610 . S
N831 S830 1.613 . S
N831 C834 1.350 . S
N832 S830 1.610 . S
N832 C833 1.351 . S
C833 C827 1.428 . S
C833 N832 1.351 . S
C833 C834 1.434 . S
C834 C825 1.429 . S
C834 N831 1.350 . S
C834 C833 1.434 . S
C835 C836 1.369 . S
C835 C837 1.419 . S
C835 H839 0.930 . S
C836 C835 1.369 . S
C836 C845 1.429 . S
C837 C835 1.419 . S
C837 C838 1.363 . S
C837 H840 0.929 . S
C838 C837 1.363 . S
C838 C844 1.428 . S
H839 C835 0.930 . S
H840 C837 0.929 . S
S841 N842 1.613 . S
S841 N843 1.610 . S
N842 S841 1.613 . S
N842 C845 1.350 . S
N843 S841 1.610 . S
N843 C844 1.351 . S
C844 C838 1.428 . S
C844 N843 1.351 . S
C844 C845 1.434 . S
C845 C836 1.429 . S
C845 N842 1.350 . S
C845 C844 1.434 . S
C846 C847 1.369 . S
C846 C848 1.419 . S
C846 H850 0.930 . S
C847 C846 1.369 . S
C847 C856 1.429 . S
C848 C846 1.419 . S
C848 C849 1.363 . S
C848 H851 0.929 . S
C849 C848 1.363 . S
C849 C855 1.428 . S
H850 C846 0.930 . S
H851 C848 0.929 . S
S852 N853 1.613 . S
S852 N854 1.610 . S
N853 S852 1.613 . S
N853 C856 1.350 . S
N854 S852 1.610 . S
N854 C855 1.351 . S
C855 C849 1.428 . S
C855 N854 1.351 . S
C855 C856 1.434 . S
C856 C847 1.429 . S
C856 N853 1.350 . S
C856 C855 1.434 . S
C857 C858 1.369 . S
C857 C859 1.419 . S
C857 H861 0.930 . S
C858 C857 1.369 . S
C858 C867 1.429 1_565 S
C859 C857 1.419 . S
C859 C860 1.363 . S
C859 H862 0.929 . S
C860 C859 1.363 . S
C860 C866 1.428 1_565 S
H861 C857 0.930 . S
H862 C859 0.929 . S
S863 N864 1.613 . S
S863 N865 1.610 . S
N864 S863 1.613 . S
N864 C867 1.350 . S
N865 S863 1.610 . S
N865 C866 1.351 . S
C866 C860 1.428 1_545 S
C866 N865 1.351 . S
C866 C867 1.434 . S
C867 C858 1.429 1_545 S
C867 N864 1.350 . S
C867 C866 1.434 . S
C868 C869 1.369 . S
C868 C870 1.419 . S
C868 H872 0.930 . S
C869 C868 1.369 . S
C869 C878 1.429 . S
C870 C868 1.419 . S
C870 C871 1.363 . S
C870 H873 0.929 . S
C871 C870 1.363 . S
C871 C877 1.428 . S
H872 C868 0.930 . S
H873 C870 0.929 . S
S874 N875 1.613 . S
S874 N876 1.610 . S
N875 S874 1.613 . S
N875 C878 1.350 . S
N876 S874 1.610 . S
N876 C877 1.351 . S
C877 C871 1.428 . S
C877 N876 1.351 . S
C877 C878 1.434 . S
C878 C869 1.429 . S
C878 N875 1.350 . S
C878 C877 1.434 . S
C879 C880 1.369 . S
C879 C881 1.419 . S
C879 H883 0.930 . S
C880 C879 1.369 . S
C880 C889 1.429 . S
C881 C879 1.419 . S
C881 C882 1.363 . S
C881 H884 0.929 . S
C882 C881 1.363 . S
C882 C888 1.428 . S
H883 C879 0.930 . S
H884 C881 0.929 . S
S885 N886 1.613 . S
S885 N887 1.610 . S
N886 S885 1.613 . S
N886 C889 1.350 . S
N887 S885 1.610 . S
N887 C888 1.351 . S
C888 C882 1.428 . S
C888 N887 1.351 . S
C888 C889 1.434 . S
C889 C880 1.429 . S
C889 N886 1.350 . S
C889 C888 1.434 . S
C890 C891 1.369 . S
C890 C892 1.419 . S
C890 H894 0.930 . S
C891 C890 1.369 . S
C891 C900 1.429 . S
C892 C890 1.419 . S
C892 C893 1.363 . S
C892 H895 0.929 . S
C893 C892 1.363 . S
C893 C899 1.428 . S
H894 C890 0.930 . S
H895 C892 0.929 . S
S896 N897 1.613 . S
S896 N898 1.610 . S
N897 S896 1.613 . S
N897 C900 1.350 . S
N898 S896 1.610 . S
N898 C899 1.351 . S
C899 C893 1.428 . S
C899 N898 1.351 . S
C899 C900 1.434 . S
C900 C891 1.429 . S
C900 N897 1.350 . S
C900 C899 1.434 . S
C901 C902 1.369 . S
C901 C903 1.419 . S
C901 H905 0.930 . S
C902 C901 1.369 . S
C902 C911 1.429 . S
C903 C901 1.419 . S
C903 C904 1.363 . S
C903 H906 0.929 . S
C904 C903 1.363 . S
C904 C910 1.428 . S
H905 C901 0.930 . S
H906 C903 0.929 . S
S907 N908 1.613 . S
S907 N909 1.610 . S
N908 S907 1.613 . S
N908 C911 1.350 . S
N909 S907 1.610 . S
N909 C910 1.351 . S
C910 C904 1.428 . S
C910 N909 1.351 . S
C910 C911 1.434 . S
C911 C902 1.429 . S
C911 N908 1.350 . S
C911 C910 1.434 . S
C912 C913 1.369 . S
C912 C914 1.419 . S
C912 H916 0.930 . S
C913 C912 1.369 . S
C913 C922 1.429 . S
C914 C912 1.419 . S
C914 C915 1.363 . S
C914 H917 0.929 . S
C915 C914 1.363 . S
C915 C921 1.428 . S
H916 C912 0.930 . S
H917 C914 0.929 . S
S918 N919 1.613 . S
S918 N920 1.610 . S
N919 S918 1.613 . S
N919 C922 1.350 . S
N920 S918 1.610 . S
N920 C921 1.351 . S
C921 C915 1.428 . S
C921 N920 1.351 . S
C921 C922 1.434 . S
C922 C913 1.429 . S
C922 N919 1.350 . S
C922 C921 1.434 . S
C923 C924 1.369 . S
C923 C925 1.419 . S
C923 H927 0.930 . S
C924 C923 1.369 . S
C924 C933 1.429 . S
C925 C923 1.419 . S
C925 C926 1.363 . S
C925 H928 0.929 . S
C926 C925 1.363 . S
C926 C932 1.406 1_455 S
H927 C923 0.930 . S
H928 C925 0.929 . S
S929 N930 1.613 . S
S929 N931 1.610 . S
N930 S929 1.613 . S
N930 C933 1.350 1_655 S
N931 S929 1.610 . S
N931 C932 1.377 . S
C932 C926 1.406 1_655 S
C932 N931 1.377 . S
C932 C933 1.432 1_655 S
C933 C924 1.429 . S
C933 N930 1.350 1_455 S
C933 C932 1.432 1_455 S
C934 C935 1.369 . S
C934 C936 1.419 . S
C934 H938 0.930 . S
C935 C934 1.369 . S
C935 C944 1.429 . S
C936 C934 1.419 . S
C936 C937 1.363 . S
C936 H939 0.929 . S
C937 C936 1.363 . S
C937 C943 1.428 . S
H938 C934 0.930 . S
H939 C936 0.929 . S
S940 N941 1.613 . S
S940 N942 1.610 . S
N941 S940 1.613 . S
N941 C944 1.350 . S
N942 S940 1.610 . S
N942 C943 1.351 . S
C943 C937 1.428 . S
C943 N942 1.351 . S
C943 C944 1.434 . S
C944 C935 1.429 . S
C944 N941 1.350 . S
C944 C943 1.434 . S
C945 C946 1.369 . S
C945 C947 1.419 . S
C945 H949 0.930 . S
C946 C945 1.369 . S
C946 C955 1.429 . S
C947 C945 1.419 . S
C947 C948 1.363 . S
C947 H950 0.929 . S
C948 C947 1.363 . S
C948 C954 1.428 1_655 S
H949 C945 0.930 . S
H950 C947 0.929 . S
S951 N952 1.613 . S
S951 N953 1.610 . S
N952 S951 1.613 . S
N952 C955 1.350 1_455 S
N953 S951 1.610 . S
N953 C954 1.351 . S
C954 C948 1.428 1_455 S
C954 N953 1.351 . S
C954 C955 1.434 1_455 S
C955 C946 1.429 . S
C955 N952 1.350 1_655 S
C955 C954 1.434 1_655 S
C956 C957 1.369 . S
C956 C958 1.419 . S
C956 H960 0.930 . S
C957 C956 1.369 . S
C957 C966 1.429 . S
C958 C956 1.419 . S
C958 C959 1.363 . S
C958 H961 0.929 . S
C959 C958 1.363 . S
C959 C965 1.428 . S
H960 C956 0.930 . S
H961 C958 0.929 . S
S962 N963 1.613 . S
S962 N964 1.610 . S
N963 S962 1.613 . S
N963 C966 1.350 . S
N964 S962 1.610 . S
N964 C965 1.351 . S
C965 C959 1.428 . S
C965 N964 1.351 . S
C965 C966 1.434 . S
C966 C957 1.429 . S
C966 N963 1.350 . S
C966 C965 1.434 . S
C967 C968 1.369 . S
C967 C969 1.419 . S
C967 H971 0.930 . S
C968 C967 1.369 . S
C968 C977 1.429 . S
C969 C967 1.419 . S
C969 C970 1.363 . S
C969 H972 0.929 . S
C970 C969 1.363 . S
C970 C976 1.428 . S
H971 C967 0.930 . S
H972 C969 0.929 . S
S973 N974 1.613 . S
S973 N975 1.610 . S
N974 S973 1.613 . S
N974 C977 1.350 . S
N975 S973 1.610 . S
N975 C976 1.351 . S
C976 C970 1.428 . S
C976 N975 1.351 . S
C976 C977 1.434 . S
C977 C968 1.429 . S
C977 N974 1.350 . S
C977 C976 1.434 . S
C978 C979 1.369 . S
C978 C980 1.419 1_556 S
C978 H982 0.925 1_556 S
C979 C978 1.369 . S
C979 C988 1.429 . S
C980 C978 1.419 1_554 S
C980 C981 1.360 1_554 S
C980 H983 0.929 . S
C981 C980 1.360 1_556 S
C981 C987 1.440 . S
H982 C978 0.925 1_554 S
H983 C980 0.929 . S
S984 N985 1.613 . S
S984 N986 1.610 . S
N985 S984 1.613 . S
N985 C988 1.350 . S
N986 S984 1.610 . S
N986 C987 1.351 . S
C987 C981 1.440 . S
C987 N986 1.351 . S
C987 C988 1.434 . S
C988 C979 1.429 . S
C988 N985 1.350 . S
C988 C987 1.434 . S
C989 C990 1.369 . S
C989 C991 1.419 . S
C989 H993 0.930 . S
C990 C989 1.369 . S
C990 C999 1.429 . S
C991 C989 1.419 . S
C991 C992 1.363 . S
C991 H994 0.929 . S
C992 C991 1.363 . S
C992 C998 1.428 . S
H993 C989 0.930 . S
H994 C991 0.929 . S
S995 N996 1.613 . S
S995 N997 1.610 . S
N996 S995 1.613 . S
N996 C999 1.350 . S
N997 S995 1.610 . S
N997 C998 1.351 . S
C998 C992 1.428 . S
C998 N997 1.351 . S
C998 C999 1.434 . S
C999 C990 1.429 . S
C999 N996 1.350 . S
C999 C998 1.434 . S
C1000 C1001 1.369 . S
C1000 C1002 1.419 . S
C1000 H1004 0.930 . S
C1001 C1000 1.369 . S
C1001 C1010 1.429 . S
C1002 C1000 1.419 . S
C1002 C1003 1.363 . S
C1002 H1005 0.929 . S
C1003 C1002 1.363 . S
C1003 C1009 1.428 . S
H1004 C1000 0.930 . S
H1005 C1002 0.929 . S
S1006 N1007 1.613 . S
S1006 N1008 1.610 . S
N1007 S1006 1.613 . S
N1007 C1010 1.350 . S
N1008 S1006 1.610 . S
N1008 C1009 1.351 . S
C1009 C1003 1.428 . S
C1009 N1008 1.351 . S
C1009 C1010 1.434 . S
C1010 C1001 1.429 . S
C1010 N1007 1.350 . S
C1010 C1009 1.434 . S
C1011 C1012 1.369 . S
C1011 C1013 1.419 . S
C1011 H1015 0.930 . S
C1012 C1011 1.369 . S
C1012 C1021 1.429 . S
C1013 C1011 1.419 . S
C1013 C1014 1.363 . S
C1013 H1016 0.929 . S
C1014 C1013 1.363 . S
C1014 C1020 1.428 . S
H1015 C1011 0.930 . S
H1016 C1013 0.929 . S
S1017 N1018 1.613 . S
S1017 N1019 1.610 . S
N1018 S1017 1.613 . S
N1018 C1021 1.350 . S
N1019 S1017 1.610 . S
N1019 C1020 1.351 . S
C1020 C1014 1.428 . S
C1020 N1019 1.351 . S
C1020 C1021 1.434 . S
C1021 C1012 1.429 . S
C1021 N1018 1.350 . S
C1021 C1020 1.434 . S
C1022 C1023 1.369 . S
C1022 C1024 1.419 . S
C1022 H1026 0.930 . S
C1023 C1022 1.369 . S
C1023 C1032 1.429 . S
C1024 C1022 1.419 . S
C1024 C1025 1.363 . S
C1024 H1027 0.929 . S
C1025 C1024 1.363 . S
C1025 C1031 1.428 . S
H1026 C1022 0.930 . S
H1027 C1024 0.929 . S
S1028 N1029 1.613 . S
S1028 N1030 1.610 . S
N1029 S1028 1.613 . S
N1029 C1032 1.350 . S
N1030 S1028 1.610 . S
N1030 C1031 1.351 . S
C1031 C1025 1.428 . S
C1031 N1030 1.351 . S
C1031 C1032 1.434 . S
C1032 C1023 1.429 . S
C1032 N1029 1.350 . S
C1032 C1031 1.434 . S
C1033 C1034 1.369 . S
C1033 C1035 1.419 . S
C1033 H1037 0.930 . S
C1034 C1033 1.369 . S
C1034 C1043 1.429 . S
C1035 C1033 1.419 . S
C1035 C1036 1.363 . S
C1035 H1038 0.929 . S
C1036 C1035 1.363 . S
C1036 C1042 1.428 . S
H1037 C1033 0.930 . S
H1038 C1035 0.929 . S
S1039 N1040 1.613 . S
S1039 N1041 1.610 . S
N1040 S1039 1.613 . S
N1040 C1043 1.350 . S
N1041 S1039 1.610 . S
N1041 C1042 1.351 . S
C1042 C1036 1.428 . S
C1042 N1041 1.351 . S
C1042 C1043 1.434 . S
C1043 C1034 1.429 . S
C1043 N1040 1.350 . S
C1043 C1042 1.434 . S
C1044 C1045 1.369 . S
C1044 C1046 1.419 . S
C1044 H1048 0.930 . S
C1045 C1044 1.369 . S
C1045 C1054 1.429 . S
C1046 C1044 1.419 . S
C1046 C1047 1.363 . S
C1046 H1049 0.929 . S
C1047 C1046 1.363 . S
C1047 C1053 1.428 . S
H1048 C1044 0.930 . S
H1049 C1046 0.929 . S
S1050 N1051 1.613 . S
S1050 N1052 1.610 . S
N1051 S1050 1.613 . S
N1051 C1054 1.350 . S
N1052 S1050 1.610 . S
N1052 C1053 1.351 . S
C1053 C1047 1.428 . S
C1053 N1052 1.351 . S
C1053 C1054 1.434 . S
C1054 C1045 1.429 . S
C1054 N1051 1.350 . S
C1054 C1053 1.434 . S
C1055 C1056 1.369 . S
C1055 C1057 1.419 . S
C1055 H1059 0.930 . S
C1056 C1055 1.369 . S
C1056 C1065 1.429 1_545 S
C1057 C1055 1.419 . S
C1057 C1058 1.363 . S
C1057 H1060 0.929 . S
C1058 C1057 1.363 . S
C1058 C1064 1.428 1_545 S
H1059 C1055 0.930 . S
H1060 C1057 0.929 . S
S1061 N1062 1.613 . S
S1061 N1063 1.610 . S
N1062 S1061 1.613 . S
N1062 C1065 1.350 . S
N1063 S1061 1.610 . S
N1063 C1064 1.351 . S
C1064 C1058 1.428 1_565 S
C1064 N1063 1.351 . S
C1064 C1065 1.434 . S
C1065 C1056 1.429 1_565 S
C1065 N1062 1.350 . S
C1065 C1064 1.434 . S
C1066 C1067 1.369 . S
C1066 C1068 1.419 . S
C1066 H1070 0.930 . S
C1067 C1066 1.369 . S
C1067 C1076 1.429 . S
C1068 C1066 1.419 . S
C1068 C1069 1.363 . S
C1068 H1071 0.929 . S
C1069 C1068 1.363 . S
C1069 C1075 1.428 . S
H1070 C1066 0.930 . S
H1071 C1068 0.929 . S
S1072 N1073 1.613 . S
S1072 N1074 1.610 . S
N1073 S1072 1.613 . S
N1073 C1076 1.350 . S
N1074 S1072 1.610 . S
N1074 C1075 1.351 . S
C1075 C1069 1.428 . S
C1075 N1074 1.351 . S
C1075 C1076 1.434 . S
C1076 C1067 1.429 . S
C1076 N1073 1.350 . S
C1076 C1075 1.434 . S
C1077 C1078 1.369 . S
C1077 C1079 1.419 . S
C1077 H1081 0.930 . S
C1078 C1077 1.369 . S
C1078 C1087 1.429 . S
C1079 C1077 1.419 . S
C1079 C1080 1.363 . S
C1079 H1082 0.929 . S
C1080 C1079 1.363 . S
C1080 C1086 1.428 . S
H1081 C1077 0.930 . S
H1082 C1079 0.929 . S
S1083 N1084 1.613 . S
S1083 N1085 1.610 . S
N1084 S1083 1.613 . S
N1084 C1087 1.350 . S
N1085 S1083 1.610 . S
N1085 C1086 1.351 . S
C1086 C1080 1.428 . S
C1086 N1085 1.351 . S
C1086 C1087 1.434 . S
C1087 C1078 1.429 . S
C1087 N1084 1.350 . S
C1087 C1086 1.434 . S
C1088 C1089 1.369 . S
C1088 C1090 1.419 . S
C1088 H1092 0.930 . S
C1089 C1088 1.369 . S
C1089 C1098 1.429 . S
C1090 C1088 1.419 . S
C1090 C1091 1.363 . S
C1090 H1093 0.929 . S
C1091 C1090 1.363 . S
C1091 C1097 1.428 . S
H1092 C1088 0.930 . S
H1093 C1090 0.929 . S
S1094 N1095 1.613 . S
S1094 N1096 1.610 . S
N1095 S1094 1.613 . S
N1095 C1098 1.350 . S
N1096 S1094 1.610 . S
N1096 C1097 1.351 . S
C1097 C1091 1.428 . S
C1097 N1096 1.351 . S
C1097 C1098 1.434 . S
C1098 C1089 1.429 . S
C1098 N1095 1.350 . S
C1098 C1097 1.434 . S
C1099 C1100 1.369 . S
C1099 C1101 1.419 . S
C1099 H1103 0.930 . S
C1100 C1099 1.369 . S
C1100 C1109 1.429 . S
C1101 C1099 1.419 . S
C1101 C1102 1.363 . S
C1101 H1104 0.929 . S
C1102 C1101 1.363 . S
C1102 C1108 1.428 . S
H1103 C1099 0.930 . S
H1104 C1101 0.929 . S
S1105 N1106 1.613 . S
S1105 N1107 1.610 . S
N1106 S1105 1.613 . S
N1106 C1109 1.350 . S
N1107 S1105 1.610 . S
N1107 C1108 1.351 . S
C1108 C1102 1.428 . S
C1108 N1107 1.351 . S
C1108 C1109 1.434 . S
C1109 C1100 1.429 . S
C1109 N1106 1.350 . S
C1109 C1108 1.434 . S
C1110 C1111 1.369 . S
C1110 C1112 1.419 . S
C1110 H1114 0.930 . S
C1111 C1110 1.369 . S
C1111 C1120 1.429 . S
C1112 C1110 1.419 . S
C1112 C1113 1.363 . S
C1112 H1115 0.929 . S
C1113 C1112 1.363 . S
C1113 C1119 1.428 . S
H1114 C1110 0.930 . S
H1115 C1112 0.929 . S
S1116 N1117 1.613 . S
S1116 N1118 1.610 . S
N1117 S1116 1.613 . S
N1117 C1120 1.350 . S
N1118 S1116 1.610 . S
N1118 C1119 1.351 . S
C1119 C1113 1.428 . S
C1119 N1118 1.351 . S
C1119 C1120 1.434 . S
C1120 C1111 1.429 . S
C1120 N1117 1.350 . S
C1120 C1119 1.434 . S
C1121 C1122 1.369 . S
C1121 C1123 1.419 . S
C1121 H1125 0.930 . S
C1122 C1121 1.369 . S
C1122 C1131 1.429 . S
C1123 C1121 1.419 . S
C1123 C1124 1.363 . S
C1123 H1126 0.929 . S
C1124 C1123 1.363 . S
C1124 C1130 1.428 . S
H1125 C1121 0.930 . S
H1126 C1123 0.929 . S
S1127 N1128 1.613 . S
S1127 N1129 1.610 . S
N1128 S1127 1.613 . S
N1128 C1131 1.350 . S
N1129 S1127 1.610 . S
N1129 C1130 1.351 . S
C1130 C1124 1.428 . S
C1130 N1129 1.351 . S
C1130 C1131 1.434 . S
C1131 C1122 1.429 . S
C1131 N1128 1.350 . S
C1131 C1130 1.434 . S
C1132 C1133 1.369 . S
C1132 C1134 1.419 . S
C1132 H1136 0.930 . S
C1133 C1132 1.369 . S
C1133 C1142 1.429 . S
C1134 C1132 1.419 . S
C1134 C1135 1.363 . S
C1134 H1137 0.929 . S
C1135 C1134 1.363 . S
C1135 C1141 1.428 . S
H1136 C1132 0.930 . S
H1137 C1134 0.929 . S
S1138 N1139 1.613 . S
S1138 N1140 1.610 . S
N1139 S1138 1.613 . S
N1139 C1142 1.350 . S
N1140 S1138 1.610 . S
N1140 C1141 1.351 . S
C1141 C1135 1.428 . S
C1141 N1140 1.351 . S
C1141 C1142 1.434 . S
C1142 C1133 1.429 . S
C1142 N1139 1.350 . S
C1142 C1141 1.434 . S
C1143 C1144 1.369 1_455 S
C1143 C1145 1.419 . S
C1143 H1147 0.930 . S
C1144 C1143 1.369 1_655 S
C1144 C1153 1.429 . S
C1145 C1143 1.419 . S
C1145 C1146 1.363 1_455 S
C1145 H1148 0.929 . S
C1146 C1145 1.363 1_655 S
C1146 C1152 1.428 . S
H1147 C1143 0.930 . S
H1148 C1145 0.929 . S
S1149 N1150 1.613 . S
S1149 N1151 1.610 . S
N1150 S1149 1.613 . S
N1150 C1153 1.350 . S
N1151 S1149 1.610 . S
N1151 C1152 1.351 . S
C1152 C1146 1.428 . S
C1152 N1151 1.351 . S
C1152 C1153 1.434 . S
C1153 C1144 1.429 . S
C1153 N1150 1.350 . S
C1153 C1152 1.434 . S
C1154 C1155 1.369 . S
C1154 C1156 1.419 . S
C1154 H1158 0.930 . S
C1155 C1154 1.369 . S
C1155 C1164 1.429 . S
C1156 C1154 1.419 . S
C1156 C1157 1.363 . S
C1156 H1159 0.929 . S
C1157 C1156 1.363 . S
C1157 C1163 1.428 . S
H1158 C1154 0.930 . S
H1159 C1156 0.929 . S
S1160 N1161 1.613 . S
S1160 N1162 1.610 . S
N1161 S1160 1.613 . S
N1161 C1164 1.350 . S
N1162 S1160 1.610 . S
N1162 C1163 1.351 . S
C1163 C1157 1.428 . S
C1163 N1162 1.351 . S
C1163 C1164 1.434 . S
C1164 C1155 1.429 . S
C1164 N1161 1.350 . S
C1164 C1163 1.434 . S
C1165 C1166 1.369 . S
C1165 C1167 1.419 . S
C1165 H1169 0.941 . S
C1166 C1165 1.369 . S
C1166 C1175 1.429 . S
C1167 C1165 1.419 . S
C1167 C1168 1.363 . S
C1167 H1170 0.929 1_455 S
C1168 C1167 1.363 . S
C1168 C1174 1.428 . S
H1169 C1165 0.941 . S
H1170 C1167 0.929 1_655 S
S1171 N1172 1.613 . S
S1171 N1173 1.610 . S
N1172 S1171 1.613 . S
N1172 C1175 1.350 . S
N1173 S1171 1.610 . S
N1173 C1174 1.351 . S
C1174 C1168 1.428 . S
C1174 N1173 1.351 . S
C1174 C1175 1.434 . S
C1175 C1166 1.429 . S
C1175 N1172 1.350 . S
C1175 C1174 1.434 . S
C1176 C1177 1.369 . S
C1176 C1178 1.419 . S
C1176 H1180 0.930 . S
C1177 C1176 1.369 . S
C1177 C1186 1.429 . S
C1178 C1176 1.419 . S
C1178 C1179 1.363 . S
C1178 H1181 0.929 . S
C1179 C1178 1.363 . S
C1179 C1185 1.428 . S
H1180 C1176 0.930 . S
H1181 C1178 0.929 . S
S1182 N1183 1.613 . S
S1182 N1184 1.610 . S
N1183 S1182 1.613 . S
N1183 C1186 1.350 . S
N1184 S1182 1.610 . S
N1184 C1185 1.351 . S
C1185 C1179 1.428 . S
C1185 N1184 1.351 . S
C1185 C1186 1.434 . S
C1186 C1177 1.429 . S
C1186 N1183 1.350 . S
C1186 C1185 1.434 . S
C1187 C1188 1.369 . S
C1187 C1189 1.419 . S
C1187 H1191 0.930 . S
C1188 C1187 1.369 . S
C1188 C1197 1.429 . S
C1189 C1187 1.419 . S
C1189 C1190 1.363 . S
C1189 H1192 0.929 . S
C1190 C1189 1.363 . S
C1190 C1196 1.428 . S
H1191 C1187 0.930 . S
H1192 C1189 0.929 . S
S1193 N1194 1.613 . S
S1193 N1195 1.610 . S
N1194 S1193 1.613 . S
N1194 C1197 1.350 . S
N1195 S1193 1.610 . S
N1195 C1196 1.351 . S
C1196 C1190 1.428 . S
C1196 N1195 1.351 . S
C1196 C1197 1.434 . S
C1197 C1188 1.429 . S
C1197 N1194 1.350 . S
C1197 C1196 1.434 . S
C1198 C1199 1.369 . S
C1198 C1200 1.419 . S
C1198 H1202 0.930 . S
C1199 C1198 1.369 . S
C1199 C1208 1.429 . S
C1200 C1198 1.419 . S
C1200 C1201 1.363 . S
C1200 H1203 0.929 . S
C1201 C1200 1.363 . S
C1201 C1207 1.428 . S
H1202 C1198 0.930 . S
H1203 C1200 0.929 . S
S1204 N1205 1.613 . S
S1204 N1206 1.610 . S
N1205 S1204 1.613 . S
N1205 C1208 1.350 . S
N1206 S1204 1.610 . S
N1206 C1207 1.351 . S
C1207 C1201 1.428 . S
C1207 N1206 1.351 . S
C1207 C1208 1.434 . S
C1208 C1199 1.429 . S
C1208 N1205 1.350 . S
C1208 C1207 1.434 . S
C1209 C1210 1.369 . S
C1209 C1211 1.419 . S
C1209 H1213 0.930 . S
C1210 C1209 1.369 . S
C1210 C1219 1.429 . S
C1211 C1209 1.419 . S
C1211 C1212 1.363 . S
C1211 H1214 0.929 . S
C1212 C1211 1.363 . S
C1212 C1218 1.428 . S
H1213 C1209 0.930 . S
H1214 C1211 0.929 . S
S1215 N1216 1.613 . S
S1215 N1217 1.610 . S
N1216 S1215 1.613 . S
N1216 C1219 1.350 . S
N1217 S1215 1.610 . S
N1217 C1218 1.351 . S
C1218 C1212 1.428 . S
C1218 N1217 1.351 . S
C1218 C1219 1.434 . S
C1219 C1210 1.429 . S
C1219 N1216 1.350 . S
C1219 C1218 1.434 . S
C1220 C1221 1.369 . S
C1220 C1222 1.419 . S
C1220 H1224 0.930 . S
C1221 C1220 1.369 . S
C1221 C1230 1.429 . S
C1222 C1220 1.419 . S
C1222 C1223 1.363 . S
C1222 H1225 0.929 . S
C1223 C1222 1.363 . S
C1223 C1229 1.428 . S
H1224 C1220 0.930 . S
H1225 C1222 0.929 . S
S1226 N1227 1.613 . S
S1226 N1228 1.610 . S
N1227 S1226 1.613 . S
N1227 C1230 1.350 . S
N1228 S1226 1.610 . S
N1228 C1229 1.351 . S
C1229 C1223 1.428 . S
C1229 N1228 1.351 . S
C1229 C1230 1.434 . S
C1230 C1221 1.429 . S
C1230 N1227 1.350 . S
C1230 C1229 1.434 . S
C1231 C1232 1.369 . S
C1231 C1233 1.419 . S
C1231 H1235 0.930 . S
C1232 C1231 1.369 . S
C1232 C1241 1.429 . S
C1233 C1231 1.419 . S
C1233 C1234 1.363 . S
C1233 H1236 0.929 . S
C1234 C1233 1.363 . S
C1234 C1240 1.428 . S
H1235 C1231 0.930 . S
H1236 C1233 0.929 . S
S1237 N1238 1.613 . S
S1237 N1239 1.610 . S
N1238 S1237 1.613 . S
N1238 C1241 1.350 . S
N1239 S1237 1.610 . S
N1239 C1240 1.351 . S
C1240 C1234 1.428 . S
C1240 N1239 1.351 . S
C1240 C1241 1.434 . S
C1241 C1232 1.429 . S
C1241 N1238 1.350 . S
C1241 C1240 1.434 . S
C1242 C1243 1.369 . S
C1242 C1244 1.419 . S
C1242 H1246 0.930 . S
C1243 C1242 1.369 . S
C1243 C1252 1.429 . S
C1244 C1242 1.419 . S
C1244 C1245 1.363 . S
C1244 H1247 0.929 . S
C1245 C1244 1.363 . S
C1245 C1251 1.428 . S
H1246 C1242 0.930 . S
H1247 C1244 0.929 . S
S1248 N1249 1.613 . S
S1248 N1250 1.610 . S
N1249 S1248 1.613 . S
N1249 C1252 1.350 . S
N1250 S1248 1.610 . S
N1250 C1251 1.351 . S
C1251 C1245 1.428 . S
C1251 N1250 1.351 . S
C1251 C1252 1.434 . S
C1252 C1243 1.429 . S
C1252 N1249 1.350 . S
C1252 C1251 1.434 . S
C1253 C1254 1.369 . S
C1253 C1255 1.419 . S
C1253 H1257 0.930 . S
C1254 C1253 1.369 . S
C1254 C1263 1.429 . S
C1255 C1253 1.419 . S
C1255 C1256 1.363 . S
C1255 H1258 0.929 . S
C1256 C1255 1.363 . S
C1256 C1262 1.428 . S
H1257 C1253 0.930 . S
H1258 C1255 0.929 . S
S1259 N1260 1.613 . S
S1259 N1261 1.610 . S
N1260 S1259 1.613 . S
N1260 C1263 1.350 . S
N1261 S1259 1.610 . S
N1261 C1262 1.351 . S
C1262 C1256 1.428 . S
C1262 N1261 1.351 . S
C1262 C1263 1.434 . S
C1263 C1254 1.429 . S
C1263 N1260 1.350 . S
C1263 C1262 1.434 . S
C1264 C1265 1.369 1_554 S
C1264 C1266 1.419 . S
C1264 H1268 0.930 . S
C1265 C1264 1.369 1_556 S
C1265 C1274 1.429 . S
C1266 C1264 1.419 . S
C1266 C1267 1.363 1_554 S
C1266 H1269 0.929 . S
C1267 C1266 1.363 1_556 S
C1267 C1273 1.428 . S
H1268 C1264 0.930 . S
H1269 C1266 0.929 . S
S1270 N1271 1.613 . S
S1270 N1272 1.610 . S
N1271 S1270 1.613 . S
N1271 C1274 1.350 . S
N1272 S1270 1.610 . S
N1272 C1273 1.351 . S
C1273 C1267 1.428 . S
C1273 N1272 1.351 . S
C1273 C1274 1.434 . S
C1274 C1265 1.429 . S
C1274 N1271 1.350 . S
C1274 C1273 1.434 . S
C1275 C1276 1.369 . S
C1275 C1277 1.419 . S
C1275 H1279 0.930 . S
C1276 C1275 1.369 . S
C1276 C1285 1.429 . S
C1277 C1275 1.419 . S
C1277 C1278 1.363 . S
C1277 H1280 0.929 . S
C1278 C1277 1.363 . S
C1278 C1284 1.428 . S
H1279 C1275 0.930 . S
H1280 C1277 0.929 . S
S1281 N1282 1.613 . S
S1281 N1283 1.610 . S
N1282 S1281 1.613 . S
N1282 C1285 1.350 . S
N1283 S1281 1.610 . S
N1283 C1284 1.351 . S
C1284 C1278 1.428 . S
C1284 N1283 1.351 . S
C1284 C1285 1.434 . S
C1285 C1276 1.429 . S
C1285 N1282 1.350 . S
C1285 C1284 1.434 . S
C1286 C1287 1.369 1_556 S
C1286 C1288 1.419 . S
C1286 H1290 0.930 . S
C1287 C1286 1.369 1_554 S
C1287 C1296 1.429 . S
C1288 C1286 1.419 . S
C1288 C1289 1.363 1_556 S
C1288 H1291 0.929 . S
C1289 C1288 1.363 1_554 S
C1289 C1295 1.428 . S
H1290 C1286 0.930 . S
H1291 C1288 0.929 . S
S1292 N1293 1.613 . S
S1292 N1294 1.610 . S
N1293 S1292 1.613 . S
N1293 C1296 1.350 . S
N1294 S1292 1.610 . S
N1294 C1295 1.351 . S
C1295 C1289 1.428 . S
C1295 N1294 1.351 . S
C1295 C1296 1.434 . S
C1296 C1287 1.429 . S
C1296 N1293 1.350 . S
C1296 C1295 1.434 . S
C1297 C1298 1.369 . S
C1297 C1299 1.419 . S
C1297 H1301 0.930 . S
C1298 C1297 1.369 . S
C1298 C1307 1.429 . S
C1299 C1297 1.419 . S
C1299 C1300 1.363 . S
C1299 H1302 0.929 . S
C1300 C1299 1.363 . S
C1300 C1306 1.428 . S
H1301 C1297 0.930 . S
H1302 C1299 0.929 . S
S1303 N1304 1.613 1_545 S
S1303 N1305 1.610 1_545 S
N1304 S1303 1.613 1_565 S
N1304 C1307 1.350 . S
N1305 S1303 1.610 1_565 S
N1305 C1306 1.351 . S
C1306 C1300 1.428 . S
C1306 N1305 1.351 . S
C1306 C1307 1.434 . S
C1307 C1298 1.429 . S
C1307 N1304 1.350 . S
C1307 C1306 1.434 . S
C783 C634 1.428 . S
C781 C211 1.432 . S
C794 C647 1.582 . S
C792 C255 1.593 . S
C803 C274 1.466 . S
C805 C660 1.454 . S
C816 C673 1.519 . S
C814 C157 1.530 . S
C827 C681 1.473 . S
C825 C391 1.503 . S
C838 C694 1.425 . S
C836 C484 1.439 . S
C847 C450 1.520 . S
C849 C707 1.489 . S
C860 C720 1.500 . S
C858 C352 1.517 . S
C869 C430 1.449 . S
C871 C738 1.437 . S
C882 C749 1.514 . S
C880 C367 1.544 . S
C891 C411 1.482 . S
C893 C733 1.451 . S
C904 C741 1.457 . S
C902 C469 1.486 . S
C913 C294 1.499 . S
C915 C764 1.492 . S
C924 C177 1.516 . S
C926 C754 1.480 . S
C935 C196 1.510 . S
C937 C759 1.481 . S
C946 C235 1.561 . S
C948 C762 1.522 . S
C957 C133 1.461 . S
C959 C671 1.439 . S
C968 C567 1.435 . S
C970 C663 1.416 . S
C981 C632 1.519 1_556 S
C979 C601 1.562 . S
C992 C637 1.496 . S
C990 C328 1.518 . S
C1001 C172 1.535 . S
C1003 C684 1.501 . S
C1014 C723 1.503 . S
C1012 C445 1.531 . S
C1025 C676 1.490 . S
C1023 C372 1.522 . S
C1036 C702 1.441 . S
C1034 C489 1.473 . S
C1047 C712 1.427 . S
C1045 C562 1.431 . S
C1056 C606 1.593 . S
C1058 C725 1.585 . S
C1067 C313 1.466 . S
C1069 C686 1.453 . S
C1080 C699 1.519 . S
C1078 C508 1.530 . S
C1089 C118 1.503 . S
C1091 C655 1.470 . S
C1102 C668 1.422 . S
C1100 C16 1.439 . S
C1113 C629 1.489 . S
C1111 C60 1.520 . S
C1124 C642 1.500 . S
C1122 C79 1.517 . S
C1133 C40 1.449 . S
C1135 C751 1.439 . S
C1144 C94 1.545 . S
C1146 C736 1.507 1_655 S
C1155 C138 1.481 . S
C1157 C746 1.450 . S
C1166 C1 1.485 . S
C1168 C728 1.459 . S
C1179 C777 1.490 . S
C1177 C333 1.500 . S
C1190 C767 1.485 . S
C1188 C528 1.516 . S
C1201 C772 1.476 . S
C1199 C547 1.511 . S
C1210 C586 1.559 . S
C1212 C775 1.527 . S
C1221 C406 1.463 . S
C1223 C697 1.435 . S
C1234 C689 1.416 . S
C1232 C216 1.435 . S
C1245 C710 1.531 . S
C1243 C250 1.562 . S
C1256 C715 1.496 . S
C1254 C289 1.521 . S
C1265 C523 1.534 . S
C1267 C658 1.507 . S
C1278 C645 1.504 . S
C1276 C55 1.534 . S
C1287 C99 1.521 . S
C1289 C650 1.491 . S
C1300 C624 1.440 . S
C1298 C21 1.473 . S
