# Generated by pormake.
# Topology ctn, (3,4)-cn, num edge types: 1
# Building blocks:
#     Node 0, Type 0, BuildingBlock: VETTIZ_charged_linker_0, # of connection points: 3
#     Node 1, Type 0, BuildingBlock: VETTIZ_charged_linker_0, # of connection points: 3
#     Node 2, Type 0, BuildingBlock: VETTIZ_charged_linker_0, # of connection points: 3
#     Node 3, Type 0, BuildingBlock: VETTIZ_charged_linker_0, # of connection points: 3
#     Node 4, Type 0, BuildingBlock: VETTIZ_charged_linker_0, # of connection points: 3
#     Node 5, Type 0, BuildingBlock: VETTIZ_charged_linker_0, # of connection points: 3
#     Node 6, Type 0, BuildingBlock: VETTIZ_charged_linker_0, # of connection points: 3
#     Node 7, Type 0, BuildingBlock: VETTIZ_charged_linker_0, # of connection points: 3
#     Node 8, Type 0, BuildingBlock: VETTIZ_charged_linker_0, # of connection points: 3
#     Node 9, Type 0, BuildingBlock: VETTIZ_charged_linker_0, # of connection points: 3
#     Node 10, Type 0, BuildingBlock: VETTIZ_charged_linker_0, # of connection points: 3
#     Node 11, Type 0, BuildingBlock: VETTIZ_charged_linker_0, # of connection points: 3
#     Node 12, Type 0, BuildingBlock: VETTIZ_charged_linker_0, # of connection points: 3
#     Node 13, Type 0, BuildingBlock: VETTIZ_charged_linker_0, # of connection points: 3
#     Node 14, Type 0, BuildingBlock: VETTIZ_charged_linker_0, # of connection points: 3
#     Node 15, Type 0, BuildingBlock: VETTIZ_charged_linker_0, # of connection points: 3
#     Node 16, Type 1, BuildingBlock: NAHDIM_clean_sbu_0, # of connection points: 4
#     Node 17, Type 1, BuildingBlock: NAHDIM_clean_sbu_0, # of connection points: 4
#     Node 18, Type 1, BuildingBlock: NAHDIM_clean_sbu_0, # of connection points: 4
#     Node 19, Type 1, BuildingBlock: NAHDIM_clean_sbu_0, # of connection points: 4
#     Node 20, Type 1, BuildingBlock: NAHDIM_clean_sbu_0, # of connection points: 4
#     Node 21, Type 1, BuildingBlock: NAHDIM_clean_sbu_0, # of connection points: 4
#     Node 22, Type 1, BuildingBlock: NAHDIM_clean_sbu_0, # of connection points: 4
#     Node 23, Type 1, BuildingBlock: NAHDIM_clean_sbu_0, # of connection points: 4
#     Node 24, Type 1, BuildingBlock: NAHDIM_clean_sbu_0, # of connection points: 4
#     Node 25, Type 1, BuildingBlock: NAHDIM_clean_sbu_0, # of connection points: 4
#     Node 26, Type 1, BuildingBlock: NAHDIM_clean_sbu_0, # of connection points: 4
#     Node 27, Type 1, BuildingBlock: NAHDIM_clean_sbu_0, # of connection points: 4
#     Edge 28, Type (0, 1), BuildingBlock: XIVTED_clean_linker_0, # of connection points: 2
#     Edge 29, Type (0, 1), BuildingBlock: XIVTED_clean_linker_0, # of connection points: 2
#     Edge 30, Type (0, 1), BuildingBlock: XIVTED_clean_linker_0, # of connection points: 2
#     Edge 31, Type (0, 1), BuildingBlock: XIVTED_clean_linker_0, # of connection points: 2
#     Edge 32, Type (0, 1), BuildingBlock: XIVTED_clean_linker_0, # of connection points: 2
#     Edge 33, Type (0, 1), BuildingBlock: XIVTED_clean_linker_0, # of connection points: 2
#     Edge 34, Type (0, 1), BuildingBlock: XIVTED_clean_linker_0, # of connection points: 2
#     Edge 35, Type (0, 1), BuildingBlock: XIVTED_clean_linker_0, # of connection points: 2
#     Edge 36, Type (0, 1), BuildingBlock: XIVTED_clean_linker_0, # of connection points: 2
#     Edge 37, Type (0, 1), BuildingBlock: XIVTED_clean_linker_0, # of connection points: 2
#     Edge 38, Type (0, 1), BuildingBlock: XIVTED_clean_linker_0, # of connection points: 2
#     Edge 39, Type (0, 1), BuildingBlock: XIVTED_clean_linker_0, # of connection points: 2
#     Edge 40, Type (0, 1), BuildingBlock: XIVTED_clean_linker_0, # of connection points: 2
#     Edge 41, Type (0, 1), BuildingBlock: XIVTED_clean_linker_0, # of connection points: 2
#     Edge 42, Type (0, 1), BuildingBlock: XIVTED_clean_linker_0, # of connection points: 2
#     Edge 43, Type (0, 1), BuildingBlock: XIVTED_clean_linker_0, # of connection points: 2
#     Edge 44, Type (0, 1), BuildingBlock: XIVTED_clean_linker_0, # of connection points: 2
#     Edge 45, Type (0, 1), BuildingBlock: XIVTED_clean_linker_0, # of connection points: 2
#     Edge 46, Type (0, 1), BuildingBlock: XIVTED_clean_linker_0, # of connection points: 2
#     Edge 47, Type (0, 1), BuildingBlock: XIVTED_clean_linker_0, # of connection points: 2
#     Edge 48, Type (0, 1), BuildingBlock: XIVTED_clean_linker_0, # of connection points: 2
#     Edge 49, Type (0, 1), BuildingBlock: XIVTED_clean_linker_0, # of connection points: 2
#     Edge 50, Type (0, 1), BuildingBlock: XIVTED_clean_linker_0, # of connection points: 2
#     Edge 51, Type (0, 1), BuildingBlock: XIVTED_clean_linker_0, # of connection points: 2
#     Edge 52, Type (0, 1), BuildingBlock: XIVTED_clean_linker_0, # of connection points: 2
#     Edge 53, Type (0, 1), BuildingBlock: XIVTED_clean_linker_0, # of connection points: 2
#     Edge 54, Type (0, 1), BuildingBlock: XIVTED_clean_linker_0, # of connection points: 2
#     Edge 55, Type (0, 1), BuildingBlock: XIVTED_clean_linker_0, # of connection points: 2
#     Edge 56, Type (0, 1), BuildingBlock: XIVTED_clean_linker_0, # of connection points: 2
#     Edge 57, Type (0, 1), BuildingBlock: XIVTED_clean_linker_0, # of connection points: 2
#     Edge 58, Type (0, 1), BuildingBlock: XIVTED_clean_linker_0, # of connection points: 2
#     Edge 59, Type (0, 1), BuildingBlock: XIVTED_clean_linker_0, # of connection points: 2
#     Edge 60, Type (0, 1), BuildingBlock: XIVTED_clean_linker_0, # of connection points: 2
#     Edge 61, Type (0, 1), BuildingBlock: XIVTED_clean_linker_0, # of connection points: 2
#     Edge 62, Type (0, 1), BuildingBlock: XIVTED_clean_linker_0, # of connection points: 2
#     Edge 63, Type (0, 1), BuildingBlock: XIVTED_clean_linker_0, # of connection points: 2
#     Edge 64, Type (0, 1), BuildingBlock: XIVTED_clean_linker_0, # of connection points: 2
#     Edge 65, Type (0, 1), BuildingBlock: XIVTED_clean_linker_0, # of connection points: 2
#     Edge 66, Type (0, 1), BuildingBlock: XIVTED_clean_linker_0, # of connection points: 2
#     Edge 67, Type (0, 1), BuildingBlock: XIVTED_clean_linker_0, # of connection points: 2
#     Edge 68, Type (0, 1), BuildingBlock: XIVTED_clean_linker_0, # of connection points: 2
#     Edge 69, Type (0, 1), BuildingBlock: XIVTED_clean_linker_0, # of connection points: 2
#     Edge 70, Type (0, 1), BuildingBlock: XIVTED_clean_linker_0, # of connection points: 2
#     Edge 71, Type (0, 1), BuildingBlock: XIVTED_clean_linker_0, # of connection points: 2
#     Edge 72, Type (0, 1), BuildingBlock: XIVTED_clean_linker_0, # of connection points: 2
#     Edge 73, Type (0, 1), BuildingBlock: XIVTED_clean_linker_0, # of connection points: 2
#     Edge 74, Type (0, 1), BuildingBlock: XIVTED_clean_linker_0, # of connection points: 2
#     Edge 75, Type (0, 1), BuildingBlock: XIVTED_clean_linker_0, # of connection points: 2
# Relax obj value: 0.002
# Max RMSD: 0.034
# Mean RMSD: 0.017
data_MOF--net-ctn--node1-NAHDIM_clean_sbu_0--node2-VETTIZ_charged_linker_0--edge1-XIVTED_clean_linker_0
_symmetry_space_group_name_H-M    P1
_symmetry_Int_Tables_number       1
_symmetry_cell_setting            triclinic
loop_
_symmetry_equiv_pos_as_xyz
'x, y, z'
_cell_length_a     67.480903
_cell_length_b     67.850578
_cell_length_c     67.220668
_cell_angle_alpha  91.134116
_cell_angle_beta   89.985011
_cell_angle_gamma 92.141148
loop_
_atom_site_label
_atom_site_type_symbol
_atom_site_fract_x
_atom_site_fract_y
_atom_site_fract_z
_atom_type_partial_charge
C0 C 0.03362 0.10009 0.99341 0.0
C1 C 0.01677 0.1117 0.99437 0.0
C2 C 0.00153 0.10663 0.00791 0.0
C3 C 0.02008 0.07914 0.01934 0.0
C4 C 0.03491 0.08393 0.00591 0.0
C5 C 0.05172 0.07001 0.00667 0.0
H6 H 0.09107 0.989 0.04561 0.0
C7 C 0.02606 0.06162 0.03022 0.0
C8 C 0.04453 0.05612 0.02279 0.0
H9 H 0.11637 0.02759 0.00097 0.0
H10 H 0.08778 0.04765 0.00292 0.0
H11 H 0.0781 0.02364 0.07401 0.0
H12 H 0.04548 0.9886 0.03017 0.0
H13 H 0.03057 0.9906 0.05157 0.0
H14 H 0.05405 0.97893 0.05318 0.0
H15 H 0.06905 -0.00098 0.07893 0.0
H16 H 0.05403 0.02012 0.08343 0.0
C17 C 0.07079 0.08199 0.01296 0.0
C18 C 0.05305 0.05936 0.98613 0.0
C19 C 0.98269 0.03504 0.08604 0.0
C20 C 0.98479 0.01965 0.09953 0.0
C21 C 0.00114 0.0074 0.09747 0.0
C22 C 0.01534 0.01069 0.08256 0.0
C23 C 0.0133 0.02648 0.06959 0.0
C24 C 0.99709 0.03822 0.07136 0.0
C25 C 0.99747 0.05448 0.05648 0.0
C26 C 0.01681 0.0508 0.04575 0.0
C27 C 0.02598 0.03435 0.05345 0.0
C28 C -0.00181 0.07448 0.06807 0.0
C29 C 0.97929 0.05123 0.04254 0.0
C30 C 0.0906 0.00184 0.03634 0.0
C31 C 0.10606 0.0065 0.02297 0.0
C32 C 0.10456 0.02331 0.01109 0.0
C33 C 0.08797 0.03508 0.01235 0.0
C34 C 0.07267 0.03016 0.02572 0.0
C35 C 0.07422 0.01387 0.03755 0.0
C36 C 0.0569 0.01135 0.05149 0.0
C37 C 0.04453 0.02859 0.04576 0.0
C38 C 0.0538 0.03949 0.03061 0.0
C39 C 0.06478 0.01348 0.07313 0.0
C40 C 0.04615 0.99129 0.04655 0.0
H41 H 0.99099 0.08741 0.03032 0.0
H42 H 0.0457 0.10363 0.98333 0.0
H43 H 0.03799 0.05596 0.97994 0.0
H44 H 0.06006 0.04496 0.98684 0.0
H45 H 0.06126 0.06871 0.97527 0.0
H46 H 0.06726 0.09429 0.02342 0.0
H47 H 0.0784 0.08853 -0.00013 0.0
H48 H 0.08136 0.07314 0.02119 0.0
H49 H 0.97017 0.04454 0.08696 0.0
H50 H 0.00327 0.99556 0.10773 0.0
H51 H 0.02753 0.00099 0.08192 0.0
H52 H 0.00777 0.07374 0.08149 0.0
H53 H 0.98316 0.07845 0.07313 0.0
H54 H 0.00474 0.08673 0.05942 0.0
H55 H 0.97541 0.03524 0.04042 0.0
H56 H 0.98208 0.05662 0.02736 0.0
H57 H 0.96604 0.05837 0.04878 0.0
H58 H 0.98822 0.11505 0.00873 0.0
C59 C 0.00309 0.09046 0.02036 0.0
C60 C 0.24647 0.64529 0.22148 0.0
C61 C 0.23121 0.64004 0.2079 0.0
C62 C 0.22846 0.65201 0.19127 0.0
C63 C 0.25532 0.67427 0.20231 0.0
C64 C 0.25831 0.66234 0.21838 0.0
C65 C 0.27515 0.66999 0.23138 0.0
H66 H 0.34698 0.74009 0.25046 0.0
C67 C 0.26974 0.69114 0.20372 0.0
C68 C 0.28146 0.6887 0.2207 0.0
H69 H 0.33371 0.68699 0.28322 0.0
H70 H 0.30697 0.67819 0.26049 0.0
H71 H 0.30248 0.75194 0.24492 0.0
H72 H 0.34211 0.72021 0.20701 0.0
H73 H 0.32959 0.73666 0.19203 0.0
H74 H 0.34499 0.74622 0.21215 0.0
H75 H 0.32162 0.76431 0.23085 0.0
H76 H 0.29728 0.75887 0.22052 0.0
C77 C 0.26678 0.67449 0.25238 0.0
C78 C 0.29155 0.65459 0.23091 0.0
C79 C 0.26873 0.74523 0.1525 0.0
C80 C 0.27962 0.76317 0.15059 0.0
C81 C 0.2943 0.76847 0.16481 0.0
C82 C 0.29819 0.75604 0.18062 0.0
C83 C 0.28721 0.73814 0.18233 0.0
C84 C 0.27268 0.73305 0.16849 0.0
C85 C 0.2621 0.71376 0.17306 0.0
C86 C 0.27282 0.70804 0.19182 0.0
C87 C 0.28756 0.72233 0.19708 0.0
C88 C 0.23999 0.71785 0.17704 0.0
C89 C 0.26568 0.69911 0.15556 0.0
C90 C 0.33818 0.72668 0.2529 0.0
C91 C 0.34245 0.71425 0.26869 0.0
C92 C 0.33085 0.69673 0.27106 0.0
C93 C 0.31528 0.69168 0.25788 0.0
C94 C 0.31128 0.70425 0.24211 0.0
C95 C 0.32265 0.72141 0.23986 0.0
C96 C 0.31644 0.73293 0.22221 0.0
C97 C 0.29957 0.71976 0.21408 0.0
C98 C 0.29657 0.70302 0.22581 0.0
C99 C 0.30918 0.75315 0.22984 0.0
C100 C 0.33415 0.73428 0.20754 0.0
H101 H 0.23747 0.67754 0.17552 0.0
H102 H 0.24895 0.63657 0.2345 0.0
H103 H 0.29202 0.64681 0.21619 0.0
H104 H 0.3066 0.66132 0.23287 0.0
H105 H 0.2889 0.64325 0.2424 0.0
H106 H 0.25199 0.68111 0.25133 0.0
H107 H 0.26498 0.66082 0.26112 0.0
H108 H 0.27604 0.68539 0.26095 0.0
H109 H 0.25717 0.74089 0.14194 0.0
H110 H 0.30299 0.78214 0.16354 0.0
H111 H 0.30962 0.76087 0.19087 0.0
H112 H 0.23845 0.73234 0.18482 0.0
H113 H 0.2315 0.71821 0.16291 0.0
H114 H 0.23271 0.70704 0.18697 0.0
H115 H 0.28086 0.70142 0.14934 0.0
H116 H 0.26494 0.68354 0.1601 0.0
H117 H 0.25494 0.70106 0.1433 0.0
H118 H 0.21711 0.64814 0.18034 0.0
C119 C 0.24039 0.66906 0.18842 0.0
C120 C 0.99302 0.41273 0.98808 0.0
C121 C 0.98257 0.40917 0.97019 0.0
C122 C 0.96748 0.42196 0.965 0.0
C123 C 0.97297 0.4409 0.99558 0.0
C124 C 0.98798 0.42856 0.00049 0.0
C125 C 0.99725 0.43397 0.02028 0.0
H126 H 0.99674 0.48946 0.1048 0.0
C127 C 0.97097 0.45544 0.01205 0.0
C128 C 0.98517 0.45146 0.02655 0.0
H129 H 0.03724 0.44392 0.08817 0.0
H130 H 0.02072 0.43936 0.05664 0.0
H131 H 0.95685 0.46851 0.08632 0.0
H132 H -0.00019 0.51086 0.06379 0.0
H133 H 0.97682 0.51724 0.05415 0.0
H134 H 0.98068 0.5179 0.08075 0.0
H135 H 0.95962 0.49342 0.09572 0.0
H136 H 0.94391 0.48717 0.07471 0.0
C137 C 0.99384 0.41628 0.03427 0.0
C138 C 0.01935 0.43999 0.0168 0.0
C139 C 0.91741 0.50605 0.0094 0.0
C140 C 0.91162 0.52101 0.02274 0.0
C141 C 0.92211 0.52396 0.04076 0.0
C142 C 0.93789 0.51208 0.04554 0.0
C143 C 0.94333 0.49706 0.03217 0.0
C144 C 0.93324 0.49434 0.01439 0.0
C145 C 0.94114 0.47767 0.00201 0.0
C146 C 0.95769 0.47093 0.01526 0.0
C147 C 0.9588 0.48227 0.03294 0.0
C148 C 0.92433 0.46162 -0.0006 0.0
C149 C 0.9492 0.48622 0.98226 0.0
C150 C 0.00224 0.47861 0.09436 0.0
C151 C 0.01827 0.4669 0.09925 0.0
C152 C 0.02466 0.45285 0.08512 0.0
C153 C 0.01515 0.45032 0.06668 0.0
C154 C -0.00093 0.46201 0.06215 0.0
C155 C 0.99305 0.47605 0.07578 0.0
C156 C 0.97628 0.48773 0.06808 0.0
C157 C 0.97303 0.47815 0.04769 0.0
C158 C 0.98627 0.46296 0.04441 0.0
C159 C 0.95816 0.48423 0.0819 0.0
C160 C 0.98357 0.50962 0.06669 0.0
H161 H 0.95098 0.44692 0.97282 0.0
H162 H 0.00453 0.40307 0.99265 0.0
H163 H 0.02158 0.44664 0.00192 0.0
H164 H 0.02493 0.45152 0.02746 0.0
H165 H 0.02889 0.42704 0.01753 0.0
H166 H 0.97868 0.40952 0.03218 0.0
H167 H 0.00464 0.40465 0.03114 0.0
H168 H 0.99472 0.42046 0.05018 0.0
H169 H 0.90955 0.50322 0.99553 0.0
H170 H 0.91821 0.53556 0.05117 0.0
H171 H 0.9452 0.51504 0.05951 0.0
H172 H 0.91503 0.46062 0.01304 0.0
H173 H 0.91443 0.46501 0.98681 0.0
H174 H 0.9299 0.44666 0.99711 0.0
H175 H 0.95627 0.50114 0.98481 0.0
H176 H 0.96095 0.47737 0.97553 0.0
H177 H 0.93708 0.48766 0.97127 0.0
H178 H 0.95939 0.41971 0.95118 0.0
C179 C 0.96266 0.4378 0.97756 0.0
C180 C 0.64988 0.79557 0.24703 0.0
C181 C 0.63719 0.77871 0.24531 0.0
C182 C 0.64113 0.76428 0.2306 0.0
C183 C 0.66994 0.78358 0.21969 0.0
C184 C 0.6661 0.79766 0.23418 0.0
C185 C 0.68119 0.81453 0.23432 0.0
H186 H 0.76341 0.85799 0.19438 0.0
C187 C 0.68803 0.79018 0.20894 0.0
C188 C 0.69472 0.80828 0.21751 0.0
H189 H 0.72857 0.87897 0.24388 0.0
H190 H 0.70673 0.85 0.24101 0.0
H191 H 0.72597 0.84233 0.1669 0.0
H192 H 0.76475 0.81489 0.20782 0.0
H193 H 0.75911 0.79692 0.18938 0.0
H194 H 0.77204 0.81961 0.18266 0.0
H195 H 0.75172 0.83858 0.16202 0.0
H196 H 0.73293 0.81988 0.15594 0.0
C197 C 0.67036 0.8336 0.22948 0.0
C198 C 0.69194 0.8151 0.25471 0.0
C199 C 0.71424 0.74887 0.15131 0.0
C200 C 0.73101 0.75113 0.13895 0.0
C201 C 0.74399 0.7677 0.14201 0.0
C202 C 0.74025 0.78185 0.15681 0.0
C203 C 0.72339 0.77947 0.16888 0.0
C204 C 0.71081 0.76311 0.16618 0.0
C205 C 0.694 0.76278 0.18094 0.0
C206 C 0.69854 0.78174 0.19276 0.0
C207 C 0.71568 0.79147 0.18549 0.0
C208 C 0.67429 0.76361 0.16925 0.0
C209 C 0.69572 0.74427 0.19388 0.0
C210 C 0.75094 0.85645 0.20446 0.0
C211 C 0.7476 0.87082 0.21928 0.0
C212 C 0.73149 0.86803 0.2324 0.0
C213 C 0.71879 0.85125 0.23064 0.0
C214 C 0.72228 0.83704 0.21566 0.0
C215 C 0.73822 0.83975 0.20297 0.0
C216 C 0.74002 0.82296 0.18827 0.0
C217 C 0.72239 0.80979 0.19406 0.0
C218 C 0.71201 0.81812 0.21003 0.0
C219 C 0.73769 0.83122 0.1671 0.0
C220 C 0.76003 0.81307 0.19201 0.0
H221 H 0.65955 0.75519 0.20683 0.0
H222 H 0.64744 0.80678 0.25837 0.0
H223 H 0.69329 0.79997 0.26054 0.0
H224 H 0.70736 0.82108 0.25383 0.0
H225 H 0.68371 0.82381 0.26594 0.0
H226 H 0.65875 0.83059 0.21795 0.0
H227 H 0.66298 0.83967 0.24291 0.0
H228 H 0.68026 0.84518 0.22318 0.0
H229 H 0.70387 0.73641 0.14939 0.0
H230 H 0.75728 0.76965 0.13313 0.0
H231 H 0.7507 0.79408 0.15829 0.0
H232 H 0.67588 0.77397 0.15667 0.0
H233 H 0.66979 0.74886 0.16295 0.0
H234 H 0.66201 0.76919 0.17833 0.0
H235 H 0.71151 0.74065 0.19608 0.0
H236 H 0.68986 0.74639 0.20909 0.0
H237 H 0.68805 0.73118 0.18677 0.0
H238 H 0.63148 0.75124 0.22887 0.0
C239 C 0.65739 0.76664 0.21776 0.0
C240 C 0.02907 0.91717 0.50394 0.0
C241 C 0.01259 0.90395 0.50187 0.0
C242 C -0.00123 0.90692 0.48657 0.0
C243 C 0.01736 0.93626 0.47644 0.0
C244 C 0.03115 0.93313 0.49112 0.0
C245 C 0.04769 0.94864 0.49143 0.0
H246 H 0.08568 0.03519 0.45739 0.0
C247 C 0.02346 0.95455 0.46618 0.0
C248 C 0.04123 0.96187 0.47486 0.0
H249 H 0.1115 0.99673 0.50022 0.0
H250 H 0.08368 0.97379 0.49638 0.0
H251 H 0.04003 0.02959 0.47105 0.0
H252 H 0.07516 0.00063 0.42662 0.0
H253 H 0.0514 0.00245 0.41642 0.0
H254 H 0.06571 0.02465 0.42295 0.0
H255 H 0.04846 0.04139 0.44876 0.0
H256 H 0.0256 0.02681 0.44932 0.0
C257 C 0.04755 0.95937 0.51198 0.0
C258 C 0.06736 0.93853 0.4864 0.0
C259 C 0.98052 0.97982 0.41085 0.0
C260 C 0.98205 0.99658 0.39888 0.0
C261 C -0.00196 0.01028 0.40198 0.0
C262 C 0.01233 0.00727 0.41662 0.0
C263 C 0.01069 0.99035 0.42831 0.0
C264 C 0.99493 0.97702 0.42538 0.0
C265 C 0.99554 0.95993 0.43924 0.0
C266 C 0.01443 0.96506 0.45076 0.0
C267 C 0.02321 0.98289 0.44432 0.0
C268 C 0.9769 0.96038 0.4527 0.0
C269 C 0.99731 0.94075 0.42655 0.0
C270 C 0.08555 0.02178 0.46586 0.0
C271 C 0.1009 0.01803 0.47931 0.0
C272 C 0.09977 0.00037 0.4901 0.0
C273 C 0.08365 0.9869 0.48771 0.0
C274 C 0.06849 0.99094 0.47425 0.0
C275 C 0.06975 0.00801 0.4634 0.0
C276 C 0.05288 0.00933 0.44894 0.0
C277 C 0.04115 0.99035 0.45312 0.0
C278 C 0.05023 0.97977 0.46813 0.0
C279 C 0.0411 0.02778 0.4546 0.0
C280 C 0.06158 0.00942 0.42758 0.0
H281 H 0.98999 0.92443 0.46263 0.0
H282 H 0.03992 0.91543 0.51558 0.0
H283 H 0.0647 0.92509 0.47688 0.0
H284 H 0.07763 0.94802 0.47763 0.0
H285 H 0.075 0.93397 0.50011 0.0
H286 H 0.0321 0.96241 0.51658 0.0
H287 H 0.05413 0.95021 0.5236 0.0
H288 H 0.05549 0.97387 0.51202 0.0
H289 H 0.96857 0.96888 0.40873 0.0
H290 H -0.00057 0.02345 0.39316 0.0
H291 H 0.02411 0.01825 0.41824 0.0
H292 H 0.97282 0.97583 0.45614 0.0
H293 H 0.96394 0.95278 0.44531 0.0
H294 H 0.97918 0.95382 0.46738 0.0
H295 H 0.00668 0.94344 0.41318 0.0
H296 H 0.00468 0.92898 0.43453 0.0
H297 H 0.98252 0.93506 0.42132 0.0
H298 H 0.98617 0.89677 0.48433 0.0
C299 C 0.00106 0.92297 0.47389 0.0
C300 C 0.24824 0.66906 0.79897 0.0
C301 C 0.2455 0.6541 0.78436 0.0
C302 C 0.22898 0.65443 0.77159 0.0
C303 C 0.21835 0.68438 0.78786 0.0
C304 C 0.23443 0.68392 0.80056 0.0
C305 C 0.23463 0.70051 0.81575 0.0
H306 H 0.19087 0.78082 0.85449 0.0
C307 C 0.20682 0.70171 0.79344 0.0
C308 C 0.21619 0.71116 0.80987 0.0
H309 H 0.24434 0.75406 0.87456 0.0
H310 H 0.24121 0.72954 0.84821 0.0
H311 H 0.16577 0.74051 0.84515 0.0
H312 H 0.20191 0.77894 0.80878 0.0
H313 H 0.18203 0.77037 0.79378 0.0
H314 H 0.1772 0.78487 0.81595 0.0
H315 H 0.15868 0.76474 0.83844 0.0
H316 H 0.15306 0.74352 0.82263 0.0
C317 C 0.23262 0.69143 0.83667 0.0
C318 C 0.25376 0.71343 0.81271 0.0
C319 C 0.14651 0.71818 0.75269 0.0
C320 C 0.13332 0.73372 0.75376 0.0
C321 C 0.13563 0.74805 0.76914 0.0
C322 C 0.15088 0.74699 0.78316 0.0
C323 C 0.16407 0.73147 0.78177 0.0
C324 C 0.16174 0.7174 0.76674 0.0
C325 C 0.17732 0.70215 0.76739 0.0
C326 C 0.1895 0.70952 0.78519 0.0
C327 C 0.18161 0.72662 0.79358 0.0
C328 C 0.16687 0.68182 0.77115 0.0
C329 C 0.18937 0.70322 0.74778 0.0
C330 C 0.20203 0.76981 0.85314 0.0
C331 C 0.21783 0.76939 0.86675 0.0
C332 C 0.23184 0.75458 0.86451 0.0
C333 C 0.23006 0.74039 0.84911 0.0
C334 C 0.21412 0.74098 0.83573 0.0
C335 C 0.20051 0.75559 0.83782 0.0
C336 C 0.18469 0.75413 0.82207 0.0
C337 C 0.19085 0.73602 0.81039 0.0
C338 C 0.20807 0.72836 0.81845 0.0
C339 C 0.1644 0.75067 0.83247 0.0
C340 C 0.18632 0.77305 0.80949 0.0
H341 H 0.20322 0.66896 0.76299 0.0
H342 H 0.26064 0.66899 0.80919 0.0
H343 H 0.25727 0.71473 0.7966 0.0
H344 H 0.25241 0.72875 0.8182 0.0
H345 H 0.26667 0.70691 0.82003 0.0
H346 H 0.22299 0.67775 0.83616 0.0
H347 H 0.2473 0.68748 0.84255 0.0
H348 H 0.2254 0.70121 0.84756 0.0
H349 H 0.14528 0.70707 0.74092 0.0
H350 H 0.12551 0.76003 0.77041 0.0
H351 H 0.15183 0.75832 0.7945 0.0
H352 H 0.15329 0.68344 0.78035 0.0
H353 H 0.16233 0.67433 0.75695 0.0
H354 H 0.17614 0.67193 0.77974 0.0
H355 H 0.19173 0.71879 0.74316 0.0
H356 H 0.2044 0.69753 0.74914 0.0
H357 H 0.18144 0.69506 0.7355 0.0
H358 H 0.22667 0.64309 0.76016 0.0
C359 C 0.21544 0.6695 0.77322 0.0
C360 C 0.91483 0.50118 0.49118 0.0
C361 C 0.90923 0.48467 0.47922 0.0
C362 C 0.92062 0.48029 0.46221 0.0
C363 C 0.94254 0.50871 0.46924 0.0
C364 C 0.93141 0.51291 0.48595 0.0
C365 C 0.93904 0.53113 0.49694 0.0
H366 H 0.00398 0.60926 0.50274 0.0
C367 C 0.95861 0.52404 0.46789 0.0
C368 C 0.95662 0.53719 0.48411 0.0
H369 H 0.956 0.59414 0.54301 0.0
H370 H 0.94794 0.56481 0.52346 0.0
H371 H 0.98069 0.59819 0.46276 0.0
H372 H 0.02006 0.56561 0.49885 0.0
H373 H 0.0253 0.5592 0.47404 0.0
H374 H 0.02897 0.58451 0.48246 0.0
H375 H 0.00691 0.60355 0.46393 0.0
H376 H 0.99638 0.58556 0.44648 0.0
C377 C 0.92262 0.54652 0.49668 0.0
C378 C 0.94552 0.52511 0.51803 0.0
C379 C 0.0076 0.52267 0.41038 0.0
C380 C 0.02387 0.53511 0.40521 0.0
C381 C 0.02894 0.55151 0.41764 0.0
C382 C 0.01795 0.55556 0.43479 0.0
C383 C 0.00165 0.54311 0.43966 0.0
C384 C 0.99676 0.52693 0.42761 0.0
C385 C 0.97898 0.51533 0.43525 0.0
C386 C 0.97408 0.52723 0.45386 0.0
C387 C 0.98739 0.5435 0.45629 0.0
C388 C 0.96232 0.51584 0.41943 0.0
C389 C 0.98555 0.49435 0.44021 0.0
C390 C 0.99189 0.59951 0.50751 0.0
C391 C 0.98055 0.60412 0.52441 0.0
C392 C 0.96477 0.59113 0.52988 0.0
C393 C 0.96017 0.57403 0.51855 0.0
C394 C 0.97143 0.56981 0.50151 0.0
C395 C 0.98709 0.58237 0.49635 0.0
C396 C 0.99747 0.57551 0.47782 0.0
C397 C 0.98532 0.55684 0.47262 0.0
C398 C 0.97008 0.55363 0.4865 0.0
C399 C 0.99547 0.59149 0.46185 0.0
C400 C 0.01913 0.57107 0.48339 0.0
H401 H 0.94529 0.48809 0.44406 0.0
H402 H 0.90625 0.50516 0.50417 0.0
H403 H 0.95175 0.51015 0.5177 0.0
H404 H 0.95753 0.53486 0.52429 0.0
H405 H 0.93277 0.5248 0.52849 0.0
H406 H 0.91433 0.54566 0.48236 0.0
H407 H 0.91175 0.54395 0.50885 0.0
H408 H 0.92853 0.56189 0.49778 0.0
H409 H 0.00319 0.51004 0.40108 0.0
H410 H 0.04159 0.56115 0.41422 0.0
H411 H 0.02259 0.56827 0.44358 0.0
H412 H 0.96238 0.53043 0.41215 0.0
H413 H 0.9643 0.50441 0.40761 0.0
H414 H 0.94732 0.51393 0.42582 0.0
H415 H 0.00082 0.49487 0.44648 0.0
H416 H 0.97624 0.48722 0.45172 0.0
H417 H 0.98555 0.48469 0.42667 0.0
H418 H 0.91675 0.46754 0.45285 0.0
C419 C 0.93724 0.49219 0.45718 0.0
C420 C 0.78667 0.74115 0.84735 0.0
C421 C 0.77112 0.74319 0.86113 0.0
C422 C 0.75777 0.75846 0.85862 0.0
C423 C 0.7758 0.76961 0.82956 0.0
C424 C 0.78866 0.75443 0.83171 0.0
C425 C 0.80419 0.75426 0.81563 0.0
H426 H 0.844 0.79583 0.73324 0.0
C427 C 0.78206 0.78096 0.812 0.0
C428 C 0.79861 0.77198 0.80365 0.0
H429 H 0.86293 0.7441 0.7635 0.0
H430 H 0.8366 0.74747 0.78747 0.0
H431 H 0.83646 0.82168 0.77318 0.0
H432 H 0.79795 0.7855 0.73537 0.0
H433 H 0.78476 0.80636 0.7423 0.0
H434 H 0.80735 0.80939 0.72814 0.0
H435 H 0.82934 0.82895 0.74876 0.0
H436 H 0.8144 0.83427 0.77031 0.0
C437 C 0.82479 0.75741 0.82558 0.0
C438 C 0.80147 0.7347 0.80348 0.0
C439 C 0.74546 0.84215 0.79401 0.0
C440 C 0.74777 0.85574 0.77859 0.0
C441 C 0.76284 0.85311 0.76437 0.0
C442 C 0.77551 0.83727 0.76557 0.0
C443 C 0.77307 0.82386 0.78113 0.0
C444 C 0.75818 0.82639 0.79496 0.0
C445 C 0.75754 0.81052 0.81025 0.0
C446 C 0.77465 0.79817 0.80346 0.0
C447 C 0.78372 0.80608 0.78646 0.0
C448 C 0.76153 0.82045 0.8309 0.0
C449 C 0.73731 0.79899 0.80844 0.0
C450 C 0.8426 0.78533 0.74513 0.0
C451 C 0.85559 0.76969 0.74647 0.0
C452 C 0.85299 0.75615 0.762 0.0
C453 C 0.83775 0.75819 0.77597 0.0
C454 C 0.82491 0.77393 0.77443 0.0
C455 C 0.82746 0.78715 0.75918 0.0
C456 C 0.8124 0.80291 0.75978 0.0
C457 C 0.80034 0.79695 0.77787 0.0
C458 C 0.80774 0.77999 0.78642 0.0
C459 C 0.82358 0.82309 0.76304 0.0
C460 C 0.79997 0.80117 0.74039 0.0
H461 H 0.74942 0.78296 0.84199 0.0
H462 H 0.79727 0.72968 0.84883 0.0
H463 H 0.78553 0.72994 0.80248 0.0
H464 H 0.80634 0.73603 0.78786 0.0
H465 H 0.80948 0.72264 0.81051 0.0
H466 H 0.82413 0.76826 0.83817 0.0
H467 H 0.83005 0.74339 0.83158 0.0
H468 H 0.83616 0.76362 0.81545 0.0
H469 H 0.73381 0.84358 0.80497 0.0
H470 H 0.765 0.86346 0.75243 0.0
H471 H 0.78673 0.83612 0.75434 0.0
H472 H 0.77323 0.83238 0.82983 0.0
H473 H 0.74794 0.82716 0.83687 0.0
H474 H 0.76715 0.81024 0.84197 0.0
H475 H 0.73153 0.79909 0.79294 0.0
H476 H 0.73836 0.78317 0.81179 0.0
H477 H 0.72598 0.80556 0.81827 0.0
H478 H 0.74537 0.76014 0.86867 0.0
C479 C 0.76005 0.77166 0.84299 0.0
C480 C 0.28621 0.23217 0.33744 0.0
C481 C 0.27044 0.23254 0.35103 0.0
C482 C 0.25658 0.2475 0.34979 0.0
C483 C 0.27479 0.26179 0.32214 0.0
C484 C 0.28801 0.24676 0.32311 0.0
C485 C 0.30361 0.24809 0.30721 0.0
H486 H 0.34317 0.29514 0.22808 0.0
C487 C 0.28117 0.2748 0.30577 0.0
C488 C 0.29795 0.26673 0.29689 0.0
H489 H 0.36082 0.24057 0.25385 0.0
H490 H 0.33545 0.2432 0.27881 0.0
H491 H 0.33776 0.31823 0.26937 0.0
H492 H 0.2961 0.28621 0.23129 0.0
H493 H 0.28528 0.3083 0.23891 0.0
H494 H 0.30793 0.30932 0.22475 0.0
H495 H 0.32832 0.32871 0.24717 0.0
H496 H 0.3156 0.3309 0.27072 0.0
C497 C 0.32413 0.25059 0.3175 0.0
C498 C 0.30115 0.22955 0.2934 0.0
C499 C 0.24445 0.33728 0.29243 0.0
C500 C 0.24773 0.35267 0.27897 0.0
C501 C 0.26384 0.35186 0.26568 0.0
C502 C 0.27643 0.33593 0.26567 0.0
C503 C 0.27296 0.32063 0.27916 0.0
C504 C 0.25729 0.32153 0.29236 0.0
C505 C 0.25629 0.30422 0.30602 0.0
C506 C 0.27387 0.29275 0.29875 0.0
C507 C 0.28346 0.30238 0.28293 0.0
C508 C 0.25925 0.31214 0.32763 0.0
C509 C 0.23636 0.29265 0.30234 0.0
C510 C 0.34165 0.28385 0.23921 0.0
C511 C 0.35391 0.26754 0.23889 0.0
C512 C 0.35134 0.2531 0.25355 0.0
C513 C 0.33664 0.25469 0.2681 0.0
C514 C 0.32428 0.27089 0.26804 0.0
C515 C 0.32694 0.28518 0.25383 0.0
C516 C 0.3123 0.30126 0.25605 0.0
C517 C 0.30017 0.294 0.27366 0.0
C518 C 0.30733 0.27627 0.28063 0.0
C519 C 0.32396 0.32089 0.26094 0.0
C520 C 0.29974 0.3015 0.23676 0.0
H521 H 0.24783 0.2733 0.33536 0.0
H522 H 0.29685 0.2206 0.33784 0.0
H523 H 0.28552 0.22368 0.29316 0.0
H524 H 0.30453 0.23271 0.27766 0.0
H525 H 0.31056 0.21752 0.29842 0.0
H526 H 0.32332 0.26065 0.33073 0.0
H527 H 0.32931 0.23621 0.32265 0.0
H528 H 0.33562 0.2574 0.30787 0.0
H529 H 0.23233 0.33763 0.30298 0.0
H530 H 0.26654 0.36346 0.25506 0.0
H531 H 0.28835 0.33613 0.25512 0.0
H532 H 0.27069 0.32439 0.32819 0.0
H533 H 0.24526 0.31793 0.33372 0.0
H534 H 0.26471 0.301 0.33779 0.0
H535 H 0.23194 0.29313 0.28642 0.0
H536 H 0.23717 0.27678 0.30549 0.0
H537 H 0.22425 0.29898 0.31134 0.0
H538 H 0.24432 0.24803 0.36017 0.0
C539 C 0.25872 0.26218 0.33546 0.0
C540 C 0.49234 0.91355 0.48627 0.0
C541 C 0.48174 0.90972 0.46852 0.0
C542 C 0.46594 0.92183 0.46376 0.0
C543 C 0.47075 0.94028 0.49473 0.0
C544 C 0.4866 0.9288 0.4991 0.0
C545 C 0.49586 0.9343 0.51888 0.0
H546 H 0.49293 0.98725 0.60495 0.0
C547 C 0.46792 0.95405 0.51171 0.0
C548 C 0.48261 0.95064 0.52589 0.0
H549 H 0.53698 0.94605 0.58594 0.0
H550 H 0.51983 0.94068 0.55483 0.0
H551 H 0.45475 0.96335 0.58753 0.0
H552 H 0.49259 0.00963 0.56387 0.0
H553 H 0.46833 0.01451 0.55657 0.0
H554 H 0.47442 0.01429 0.58271 0.0
H555 H 0.45453 0.98839 0.59665 0.0
H556 H 0.43939 0.97998 0.57585 0.0
C557 C 0.49405 0.91609 0.53239 0.0
C558 C 0.51745 0.94201 0.51521 0.0
C559 C 0.41051 0.00049 0.51151 0.0
C560 C 0.40352 0.01418 0.52561 0.0
C561 C 0.41358 0.01671 0.54393 0.0
C562 C 0.43027 0.00586 0.54812 0.0
C563 C 0.43705 0.99225 0.53389 0.0
C564 C 0.42719 0.98972 0.51597 0.0
C565 C 0.43629 0.97431 0.50281 0.0
C566 C 0.45341 0.96824 0.5157 0.0
C567 C 0.45374 0.97879 0.53388 0.0
C568 C 0.42066 0.95724 0.49944 0.0
C569 C 0.44366 0.98432 0.48351 0.0
C570 C 0.49906 0.97719 0.59408 0.0
C571 C 0.51632 0.96696 0.59815 0.0
C572 C 0.5235 0.95384 0.5835 0.0
C573 C 0.51361 0.95086 0.5653 0.0
C574 C 0.49638 0.96115 0.56155 0.0
C575 C 0.48952 0.97422 0.57573 0.0
C576 C 0.47148 0.98452 0.56883 0.0
C577 C 0.46857 0.97534 0.54823 0.0
C578 C 0.48305 0.96151 0.54415 0.0
C579 C 0.45406 0.97898 0.58294 0.0
C580 C 0.47677 0.00693 0.56803 0.0
H581 H 0.44818 0.94565 0.47235 0.0
H582 H 0.50444 0.90444 0.49049 0.0
H583 H 0.519 0.94887 0.50036 0.0
H584 H 0.52224 0.95385 0.52589 0.0
H585 H 0.52801 0.92986 0.51576 0.0
H586 H 0.47924 0.90849 0.5306 0.0
H587 H 0.50546 0.90526 0.52853 0.0
H588 H 0.49528 0.91987 0.54838 0.0
H589 H 0.40329 -0.00172 0.49721 0.0
H590 H 0.40835 0.02688 0.55521 0.0
H591 H 0.43718 0.00843 0.56235 0.0
H592 H 0.41127 0.95511 0.5129 0.0
H593 H 0.41066 0.96033 0.48685 0.0
H594 H 0.42733 0.94282 0.49678 0.0
H595 H 0.44985 -0.00053 0.4868 0.0
H596 H 0.45588 0.97655 0.47623 0.0
H597 H 0.43135 0.98558 0.4727 0.0
H598 H 0.45775 0.91944 0.45002 0.0
C599 C 0.46043 0.93709 0.47674 0.0
C600 C 0.1527 0.29994 0.74625 0.0
C601 C 0.13832 0.28475 0.74264 0.0
C602 C 0.14031 0.27223 0.72585 0.0
C603 C 0.17062 0.28997 0.71661 0.0
C604 C 0.16861 0.30235 0.733 0.0
C605 C 0.18489 0.31811 0.73421 0.0
H606 H 0.26804 0.36009 0.69428 0.0
C607 C 0.18861 0.29651 0.70573 0.0
C608 C 0.19698 0.31311 0.71585 0.0
H609 H 0.23778 0.37767 0.74816 0.0
H610 H 0.21325 0.35126 0.74296 0.0
H611 H 0.22972 0.3515 0.66788 0.0
H612 H 0.26519 0.31389 0.70296 0.0
H613 H 0.25911 0.30073 0.68093 0.0
H614 H 0.27351 0.3236 0.67964 0.0
H615 H 0.25381 0.34411 0.66007 0.0
H616 H 0.23171 0.3293 0.65428 0.0
C617 C 0.17536 0.33845 0.73265 0.0
C618 C 0.19669 0.31533 0.75365 0.0
C619 C 0.21039 0.25785 0.64457 0.0
C620 C 0.22632 0.26042 0.63128 0.0
C621 C 0.23951 0.27687 0.63386 0.0
C622 C 0.23707 0.29037 0.64963 0.0
C623 C 0.22125 0.28743 0.66298 0.0
C624 C 0.20811 0.27151 0.6602 0.0
C625 C 0.19189 0.27104 0.67554 0.0
C626 C 0.19775 0.28905 0.68827 0.0
C627 C 0.21497 0.29852 0.68088 0.0
C628 C 0.17181 0.27342 0.66477 0.0
C629 C 0.19329 0.25168 0.68723 0.0
C630 C 0.25627 0.35818 0.70511 0.0
C631 C 0.25493 0.37103 0.72168 0.0
C632 C 0.23908 0.36815 0.73514 0.0
C633 C 0.2249 0.35272 0.73216 0.0
C634 C 0.22655 0.33997 0.71555 0.0
C635 C 0.24209 0.34282 0.70241 0.0
C636 C 0.24175 0.32773 0.68575 0.0
C637 C 0.22338 0.31538 0.69097 0.0
C638 C 0.21449 0.3226 0.70841 0.0
C639 C 0.23926 0.33859 0.66587 0.0
C640 C 0.26089 0.31587 0.68716 0.0
H641 H 0.15708 0.26466 0.70041 0.0
H642 H 0.15142 0.30995 0.7589 0.0
H643 H 0.19797 0.29939 0.75682 0.0
H644 H 0.21213 0.32122 0.75284 0.0
H645 H 0.18922 0.3223 0.76658 0.0
H646 H 0.16268 0.33765 0.72205 0.0
H647 H 0.16966 0.34351 0.74731 0.0
H648 H 0.18562 0.34996 0.72674 0.0
H649 H 0.19982 0.24553 0.64276 0.0
H650 H 0.25196 0.2791 0.62388 0.0
H651 H 0.2477 0.30248 0.65088 0.0
H652 H 0.17377 0.28202 0.65094 0.0
H653 H 0.16484 0.25886 0.6605 0.0
H654 H 0.16121 0.28185 0.67379 0.0
H655 H 0.20905 0.24847 0.69025 0.0
H656 H 0.18617 0.25237 0.70199 0.0
H657 H 0.18663 0.23895 0.67862 0.0
H658 H 0.12951 0.26032 0.72287 0.0
C659 C 0.15638 0.27472 0.71286 0.0
C660 C 0.74764 0.15105 0.72258 0.0
C661 C 0.73165 0.14613 0.70975 0.0
C662 C 0.72857 0.15794 0.69307 0.0
C663 C 0.75673 0.17927 0.70244 0.0
C664 C 0.75996 0.16757 0.71862 0.0
C665 C 0.77767 0.17482 0.73067 0.0
H666 H 0.85273 0.24267 0.74505 0.0
C667 C 0.772 0.19541 0.70266 0.0
C668 C 0.7844 0.19287 0.71909 0.0
H669 H 0.83814 0.19148 0.78026 0.0
H670 H 0.81085 0.18263 0.75824 0.0
H671 H 0.80751 0.2556 0.73888 0.0
H672 H 0.84679 0.22125 0.7029 0.0
H673 H 0.83369 0.23602 0.6867 0.0
H674 H 0.8497 0.24758 0.70538 0.0
H675 H 0.8286 0.26634 0.72626 0.0
H676 H 0.80488 0.26287 0.71411 0.0
C677 C 0.77043 0.18039 0.75184 0.0
C678 C 0.79326 0.15861 0.73003 0.0
C679 C 0.77054 0.24784 0.64998 0.0
C680 C 0.78256 0.26472 0.6462 0.0
C681 C 0.7989 0.26927 0.65879 0.0
C682 C 0.80311 0.25725 0.67487 0.0
C683 C 0.79088 0.24047 0.67845 0.0
C684 C 0.77498 0.23598 0.66603 0.0
C685 C 0.76368 0.21751 0.67192 0.0
C686 C 0.77535 0.21169 0.69001 0.0
C687 C 0.79121 0.2252 0.69382 0.0
C688 C 0.74226 0.2231 0.67741 0.0
C689 C 0.76507 0.20215 0.65462 0.0
C690 C 0.84354 0.22966 0.74813 0.0
C691 C 0.84755 0.2178 0.76446 0.0
C692 C 0.83546 0.20077 0.76769 0.0
C693 C 0.81956 0.19571 0.75494 0.0
C694 C 0.8157 0.20777 0.73873 0.0
C695 C 0.82765 0.22438 0.73552 0.0
C696 C 0.82149 0.23536 0.71747 0.0
C697 C 0.80382 0.22264 0.71039 0.0
C698 C 0.80046 0.20654 0.72293 0.0
C699 C 0.81539 0.25621 0.72435 0.0
C700 C 0.83877 0.23526 0.70227 0.0
H701 H 0.73778 0.18281 0.67647 0.0
H702 H 0.75038 0.14241 0.73561 0.0
H703 H 0.79292 0.15055 0.71545 0.0
H704 H 0.80864 0.16464 0.73146 0.0
H705 H 0.79039 0.14761 0.74181 0.0
H706 H 0.75585 0.1875 0.75119 0.0
H707 H 0.76856 0.16711 0.76116 0.0
H708 H 0.78039 0.19128 0.75959 0.0
H709 H 0.75771 0.24401 0.64082 0.0
H710 H 0.80858 0.28202 0.65608 0.0
H711 H 0.81575 0.26149 0.68386 0.0
H712 H 0.74227 0.23766 0.68533 0.0
H713 H 0.73294 0.22414 0.66388 0.0
H714 H 0.73492 0.21272 0.68774 0.0
H715 H 0.77932 0.20407 0.64641 0.0
H716 H 0.76501 0.18679 0.65981 0.0
H717 H 0.75286 0.20361 0.64374 0.0
H718 H 0.71665 0.15431 0.6827 0.0
C719 C 0.74097 0.17445 0.68938 0.0
C720 C 0.52766 0.58883 0.48322 0.0
C721 C 0.51192 0.60176 0.48481 0.0
C722 C 0.49893 0.60023 0.50119 0.0
C723 C 0.51775 0.5736 0.51423 0.0
C724 C 0.53033 0.57501 0.49806 0.0
C725 C 0.54683 0.56079 0.49896 0.0
H726 H 0.59473 0.49155 0.54914 0.0
C727 C 0.52517 0.55825 0.52733 0.0
C728 C 0.54224 0.55076 0.51849 0.0
H729 H 0.60894 0.51548 0.49143 0.0
H730 H 0.58061 0.53589 0.49343 0.0
H731 H 0.58345 0.53146 0.57013 0.0
H732 H 0.54716 0.48636 0.54052 0.0
H733 H 0.53469 0.4935 0.56229 0.0
H734 H 0.55867 0.48282 0.56418 0.0
H735 H 0.57745 0.50823 0.58138 0.0
H736 H 0.56145 0.52886 0.58393 0.0
C737 C 0.56678 0.57289 0.49978 0.0
C738 C 0.54464 0.54625 0.48094 0.0
C739 C 0.48903 0.54207 0.59169 0.0
C740 C 0.49298 0.52929 0.60734 0.0
C741 C 0.51011 0.518 0.60624 0.0
C742 C 0.52288 0.5192 0.58985 0.0
C743 C 0.51865 0.53194 0.57434 0.0
C744 C 0.50206 0.54324 0.57549 0.0
C745 C 0.50036 0.55653 0.55796 0.0
C746 C 0.51844 0.55102 0.54592 0.0
C747 C 0.52904 0.53655 0.55556 0.0
C748 C 0.50188 0.57822 0.56571 0.0
C749 C 0.48082 0.55085 0.54685 0.0
C750 C 0.59165 0.50105 0.53684 0.0
C751 C 0.60427 0.50198 0.52018 0.0
C752 C 0.59974 0.51473 0.50463 0.0
C753 C 0.58317 0.5265 0.50574 0.0
C754 C 0.57086 0.52557 0.52257 0.0
C755 C 0.57508 0.51287 0.53768 0.0
C756 C 0.56014 0.51366 0.55427 0.0
C757 C 0.54635 0.52901 0.54665 0.0
C758 C 0.55279 0.53598 0.52814 0.0
C759 C 0.57106 0.52077 0.57354 0.0
C760 C 0.54961 0.49304 0.55561 0.0
H761 H 0.49136 0.58576 0.52797 0.0
H762 H 0.53807 0.58981 0.47098 0.0
H763 H 0.52877 0.54349 0.4769 0.0
H764 H 0.55015 0.53149 0.48408 0.0
H765 H 0.55238 0.55219 0.46763 0.0
H766 H 0.56532 0.58665 0.50887 0.0
H767 H 0.57166 0.57722 0.48465 0.0
H768 H 0.57879 0.56505 0.50698 0.0
H769 H 0.476 0.5509 0.59187 0.0
H770 H 0.51387 0.50837 0.61822 0.0
H771 H 0.53563 0.51023 0.58997 0.0
H772 H 0.51144 0.57972 0.57919 0.0
H773 H 0.48706 0.58365 0.56977 0.0
H774 H 0.50898 0.58833 0.55493 0.0
H775 H 0.47837 0.53454 0.54614 0.0
H776 H 0.48088 0.55554 0.53123 0.0
H777 H 0.46788 0.55716 0.55458 0.0
H778 H 0.48658 0.6099 0.50264 0.0
C779 C 0.50172 0.58618 0.51586 0.0
C780 C 0.53252 0.40857 0.00169 0.0
C781 C 0.51635 0.39502 -0.0006 0.0
C782 C 0.50173 0.39862 0.98505 0.0
C783 C 0.51946 0.42873 0.97568 0.0
C784 C 0.53372 0.42526 0.98978 0.0
C785 C 0.54978 0.44123 0.99055 0.0
H786 H 0.58786 0.52773 0.95621 0.0
C787 C 0.5251 0.44738 0.96584 0.0
C788 C 0.54281 0.45482 0.97453 0.0
H789 H 0.61115 0.4917 0.00246 0.0
H790 H 0.58396 0.46801 -0.00225 0.0
H791 H 0.54152 0.52286 0.96944 0.0
H792 H 0.57701 0.49236 0.92635 0.0
H793 H 0.55349 0.49455 0.9157 0.0
H794 H 0.5682 0.51654 0.92206 0.0
H795 H 0.55039 0.53403 0.94698 0.0
H796 H 0.52744 0.51959 0.94754 0.0
C797 C 0.54946 0.45121 0.01149 0.0
C798 C 0.56969 0.43187 0.98497 0.0
C799 C 0.48259 0.47168 0.90979 0.0
C800 C 0.48432 0.48805 0.8973 0.0
C801 C 0.50025 0.50186 0.9003 0.0
C802 C 0.51431 0.49927 0.91527 0.0
C803 C 0.51251 0.48266 0.9274 0.0
C804 C 0.49681 0.46925 0.92458 0.0
C805 C 0.49737 0.45235 0.93866 0.0
C806 C 0.51611 0.45773 0.9503 0.0
C807 C 0.52489 0.47552 0.9437 0.0
C808 C 0.47863 0.45282 0.95197 0.0
C809 C 0.49935 0.43307 0.92618 0.0
C810 C 0.58697 0.51483 0.96545 0.0
C811 C 0.60164 0.5116 0.97975 0.0
C812 C 0.60014 0.49443 0.99121 0.0
C813 C 0.58427 0.48074 0.98853 0.0
C814 C 0.56972 0.48419 0.97419 0.0
C815 C 0.57125 0.50097 0.9629 0.0
C816 C 0.55461 0.50198 0.9481 0.0
C817 C 0.54272 0.48316 0.95258 0.0
C818 C 0.55163 0.47283 0.96789 0.0
C819 C 0.54285 0.52062 0.95306 0.0
C820 C 0.56364 0.50148 0.9269 0.0
H821 H 0.49157 0.41725 0.96262 0.0
H822 H 0.54413 0.4062 0.0124 0.0
H823 H 0.5674 0.41998 0.97347 0.0
H824 H 0.58045 0.44244 0.97827 0.0
H825 H 0.57658 0.42523 -0.00186 0.0
H826 H 0.53402 0.45184 0.01725 0.0
H827 H 0.55816 0.44289 0.02232 0.0
H828 H 0.55502 0.46672 0.01154 0.0
H829 H 0.4704 0.46094 0.90813 0.0
H830 H 0.5021 0.51448 0.89077 0.0
H831 H 0.52615 0.51021 0.91669 0.0
H832 H 0.47424 0.46824 0.95497 0.0
H833 H 0.46584 0.44479 0.94471 0.0
H834 H 0.48098 0.44669 0.96685 0.0
H835 H 0.50904 0.43563 0.91301 0.0
H836 H 0.50645 0.42131 0.93439 0.0
H837 H 0.48467 0.42741 0.92063 0.0
H838 H 0.48895 0.38863 0.98318 0.0
C839 C 0.5032 0.41535 0.9732 0.0
C840 C 0.74843 0.16414 0.29186 0.0
C841 C 0.74471 0.15018 0.27647 0.0
C842 C 0.7279 0.15195 0.26429 0.0
C843 C 0.71899 0.18137 0.28274 0.0
C844 C 0.73538 0.17947 0.29478 0.0
C845 C 0.73689 0.19519 0.31082 0.0
H846 H 0.7008 0.27718 0.35408 0.0
C847 C 0.70845 0.19887 0.2898 0.0
C848 C 0.7188 0.20695 0.30633 0.0
H849 H 0.75195 0.24497 0.3715 0.0
H850 H 0.7459 0.22161 0.34457 0.0
H851 H 0.67236 0.23899 0.34652 0.0
H852 H 0.70842 0.27432 0.30704 0.0
H853 H 0.68573 0.26893 0.29497 0.0
H854 H 0.68602 0.28291 0.31806 0.0
H855 H 0.66545 0.26302 0.33903 0.0
H856 H 0.65876 0.24114 0.32447 0.0
C857 C 0.73523 0.18506 0.33127 0.0
C858 C 0.75645 0.20742 0.30765 0.0
C859 C 0.64729 0.22013 0.2531 0.0
C860 C 0.63442 0.23574 0.25614 0.0
C861 C 0.63778 0.24888 0.2724 0.0
C862 C 0.65379 0.24663 0.28531 0.0
C863 C 0.6666 0.23104 0.28199 0.0
C864 C 0.66317 0.21805 0.26618 0.0
C865 C 0.67812 0.20217 0.26515 0.0
C866 C 0.69122 0.20793 0.28282 0.0
C867 C 0.68443 0.22487 0.29258 0.0
C868 C 0.66705 0.18198 0.268 0.0
C869 C 0.68943 0.20404 0.24518 0.0
C870 C 0.7106 0.265 0.35222 0.0
C871 C 0.72694 0.26302 0.36493 0.0
C872 C 0.73945 0.24706 0.36176 0.0
C873 C 0.73584 0.23341 0.34617 0.0
C874 C 0.71951 0.23565 0.33356 0.0
C875 C 0.70717 0.25119 0.33674 0.0
C876 C 0.69046 0.25114 0.32194 0.0
C877 C 0.69483 0.23301 0.30935 0.0
C878 C 0.71189 0.22406 0.31619 0.0
C879 C 0.67064 0.24859 0.33345 0.0
C880 C 0.69254 0.27033 0.30987 0.0
H881 H 0.70257 0.16809 0.25749 0.0
H882 H 0.76103 0.16296 0.30168 0.0
H883 H 0.75934 0.20952 0.29151 0.0
H884 H 0.75611 0.22249 0.3141 0.0
H885 H 0.7693 0.19987 0.31392 0.0
H886 H 0.72551 0.17146 0.33031 0.0
H887 H 0.74999 0.18075 0.33664 0.0
H888 H 0.72825 0.19435 0.34279 0.0
H889 H 0.64492 0.20961 0.24093 0.0
H890 H 0.62817 0.26112 0.27495 0.0
H891 H 0.6556 0.25718 0.29733 0.0
H892 H 0.65394 0.18349 0.27789 0.0
H893 H 0.66166 0.17561 0.25355 0.0
H894 H 0.67624 0.17117 0.27543 0.0
H895 H 0.69248 0.21982 0.24165 0.0
H896 H 0.70411 0.19743 0.24542 0.0
H897 H 0.68061 0.19724 0.23271 0.0
H898 H 0.72481 0.1414 0.25228 0.0
C899 C 0.71506 0.16749 0.2673 0.0
C900 C 0.4116 0.99725 0.98267 0.0
C901 C 0.40591 0.98185 0.9693 0.0
C902 C 0.41821 0.97786 0.95284 0.0
C903 C 0.44119 0.00439 0.96317 0.0
C904 C 0.42923 0.00822 0.97937 0.0
C905 C 0.4374 0.02506 0.99216 0.0
H906 H 0.50764 0.0975 0.00754 0.0
C907 C 0.45843 0.01843 0.96409 0.0
C908 C 0.45639 0.03048 0.98112 0.0
H909 H 0.45516 0.08464 0.04262 0.0
H910 H 0.44682 0.05659 0.02127 0.0
H911 H 0.48698 0.0894 0.96459 0.0
H912 H 0.52081 0.05337 0.00297 0.0
H913 H 0.52668 0.04613 0.97852 0.0
H914 H 0.53263 0.0711 0.98699 0.0
H915 H 0.51281 0.09404 0.97005 0.0
H916 H 0.50492 0.0775 0.95015 0.0
C917 C 0.42241 0.04183 0.99181 0.0
C918 C 0.4416 0.01713 0.01314 0.0
C919 C 0.50955 0.01849 0.90863 0.0
C920 C 0.52751 0.02919 0.90589 0.0
C921 C 0.53431 0.04271 0.92071 0.0
C922 C 0.52301 0.04603 0.93786 0.0
C923 C 0.5048 0.03557 0.94024 0.0
C924 C 0.4986 0.02172 0.92599 0.0
C925 C 0.47954 0.01108 0.93166 0.0
C926 C 0.47501 0.0213 0.95134 0.0
C927 C 0.48969 0.03582 0.95612 0.0
C928 C 0.46381 0.01509 0.91561 0.0
C929 C 0.48375 0.98896 0.93426 0.0
C930 C 0.49449 0.08848 0.0108 0.0
C931 C 0.48198 0.09339 0.02673 0.0
C932 C 0.46488 0.08138 0.03026 0.0
C933 C 0.46009 0.06504 0.01788 0.0
C934 C 0.47247 0.06066 0.0017 0.0
C935 C 0.48946 0.07217 -0.00149 0.0
C936 C 0.50078 0.0654 0.98053 0.0
C937 C 0.48761 0.04812 0.97326 0.0
C938 C 0.47105 0.04544 0.9857 0.0
C939 C 0.5016 0.08241 0.96548 0.0
C940 C 0.52137 0.05875 0.98744 0.0
H941 H 0.44444 0.98526 0.93692 0.0
H942 H 0.40241 0.00091 0.99533 0.0
H943 H 0.44708 0.00187 0.01213 0.0
H944 H 0.45338 0.02577 0.02115 0.0
H945 H 0.42795 0.01669 0.02239 0.0
H946 H 0.4151 0.04246 0.97701 0.0
H947 H 0.41059 0.03951 0.00311 0.0
H948 H 0.42948 0.05663 0.99414 0.0
H949 H 0.50424 0.00774 0.89756 0.0
H950 H 0.54819 0.05102 0.9188 0.0
H951 H 0.52879 0.05673 0.94851 0.0
H952 H 0.46477 0.03083 0.91122 0.0
H953 H 0.46612 0.00588 0.90202 0.0
H954 H 0.44845 0.0125 0.92082 0.0
H955 H 0.49942 0.98691 0.93869 0.0
H956 H 0.47488 0.98216 0.94633 0.0
H957 H 0.48104 0.98039 0.92021 0.0
H958 H 0.41436 0.96592 0.94246 0.0
C959 C 0.43577 0.98903 0.94971 0.0
C960 C 0.22347 0.92069 0.00902 0.0
O961 O 0.2372 0.92431 0.99559 0.0
O962 O 0.23993 0.86758 0.99197 0.0
Zn963 Zn 0.24637 0.88634 0.01496 0.0
O964 O 0.27213 0.9014 0.0098 0.0
C965 C 0.25805 0.85353 0.03703 0.0
O966 O 0.26401 0.84811 0.01921 0.0
O967 O 0.22434 0.90524 0.01935 0.0
C968 C 0.27894 0.90377 0.99234 0.0
O969 O 0.26892 0.8963 0.97705 0.0
C970 C 0.22901 0.87099 0.97714 0.0
O971 O 0.22064 0.88809 0.97596 0.0
O972 O 0.24984 0.86999 0.03928 0.0
C973 C 0.15978 0.4675 0.26632 0.0
O974 O 0.16612 0.48561 0.27071 0.0
O975 O 0.1099 0.49377 0.27785 0.0
Zn976 Zn 0.12573 0.48765 0.2532 0.0
O977 O 0.14366 0.51098 0.24584 0.0
C978 C 0.09081 0.48862 0.2284 0.0
O979 O 0.08551 0.50191 0.24163 0.0
O980 O 0.14267 0.46463 0.25868 0.0
C981 C 0.13867 0.52405 0.2337 0.0
O982 O 0.12104 0.52269 0.22544 0.0
C983 C 0.10646 0.51131 0.28345 0.0
O984 O 0.1135 0.52613 0.27297 0.0
O985 O 0.10728 0.48037 0.23042 0.0
C986 C 0.79323 0.60115 0.99387 0.0
O987 O 0.78864 0.60523 0.97545 0.0
O988 O 0.76064 0.63849 0.9789 0.0
Zn989 Zn 0.7574 0.62162 0.0032 0.0
O990 O 0.73444 0.60227 -0.00083 0.0
C991 C 0.76366 0.65416 0.03027 0.0
O992 O 0.77838 0.65791 0.01793 0.0
O993 O 0.78207 0.60676 0.00795 0.0
C994 C 0.71669 0.60772 0.0008 0.0
O995 O 0.71344 0.62624 0.00528 0.0
C996 C 0.75094 0.6541 0.97742 0.0
O997 O 0.73867 0.65895 0.99172 0.0
O998 O 0.75247 0.63893 0.0272 0.0
C999 C 0.83433 0.03642 0.26026 0.0
O1000 O 0.82808 0.01858 0.26505 0.0
O1001 O 0.88808 0.01457 0.27272 0.0
Zn1002 Zn 0.86949 0.01602 0.24959 0.0
O1003 O 0.85265 0.99103 0.24722 0.0
C1004 C 0.89435 0.0047 0.21723 0.0
O1005 O 0.89246 0.98755 0.22592 0.0
O1006 O 0.8518 0.03907 0.25346 0.0
C1007 C 0.84241 0.98778 0.23157 0.0
O1008 O 0.84357 0.00057 0.21714 0.0
C1009 C 0.88207 0.00951 0.28985 0.0
O1010 O 0.86314 0.00515 0.29257 0.0
O1011 O 0.88565 0.0194 0.22471 0.0
C1012 C 0.28364 0.09316 0.49946 0.0
O1013 O 0.27019 0.08656 0.4866 0.0
O1014 O 0.26267 0.13963 0.47636 0.0
Zn1015 Zn 0.2577 0.12554 0.5021 0.0
O1016 O 0.23325 0.10772 0.50038 0.0
C1017 C 0.24924 0.16319 0.52012 0.0
O1018 O 0.24742 0.16826 0.50148 0.0
O1019 O 0.28138 0.10969 0.50822 0.0
C1020 C 0.21707 0.11384 0.4936 0.0
O1021 O 0.21634 0.13208 0.48752 0.0
C1022 C 0.25598 0.1341 0.4594 0.0
O1023 O 0.2454 0.11752 0.4576 0.0
O1024 O 0.25371 0.14564 0.52404 0.0
C1025 C 0.33825 0.54323 0.76655 0.0
O1026 O 0.33369 0.52568 0.77349 0.0
O1027 O 0.387 0.51817 0.77652 0.0
Zn1028 Zn 0.37059 0.52197 0.75191 0.0
O1029 O 0.3517 0.4985 0.74707 0.0
C1030 C 0.40437 0.51627 0.72678 0.0
O1031 O 0.40847 0.50371 0.74068 0.0
O1032 O 0.35409 0.5457 0.75652 0.0
C1033 C 0.35522 0.48343 0.7363 0.0
O1034 O 0.37237 0.48236 0.72721 0.0
C1035 C 0.38949 0.50128 0.78377 0.0
O1036 O 0.38097 0.48562 0.77517 0.0
O1037 O 0.38874 0.52608 0.72832 0.0
C1038 C 0.72436 0.41994 0.50547 0.0
O1039 O 0.7388 0.4254 0.49344 0.0
O1040 O 0.7422 0.36846 0.48547 0.0
Zn1041 Zn 0.74824 0.38617 0.50913 0.0
O1042 O 0.77288 0.40252 0.5031 0.0
C1043 C 0.74666 0.35183 0.53381 0.0
O1044 O 0.73583 0.34436 0.51907 0.0
O1045 O 0.72521 0.40354 0.51419 0.0
C1046 C 0.78482 0.4086 0.51668 0.0
O1047 O 0.78078 0.40453 0.5353 0.0
C1048 C 0.75625 0.35947 0.47715 0.0
O1049 O 0.77436 0.36221 0.48409 0.0
O1050 O 0.75324 0.36959 0.533 0.0
C1051 C 0.65492 0.96711 0.76825 0.0
O1052 O 0.65339 0.97994 0.78302 0.0
O1053 O 0.61237 0.99606 0.7757 0.0
Zn1054 Zn 0.62698 0.99193 0.74987 0.0
O1055 O 0.64427 0.01595 0.74397 0.0
C1056 C 0.59111 0.99284 0.72544 0.0
O1057 O 0.58494 0.00521 0.73914 0.0
O1058 O 0.64479 0.96919 0.75256 0.0
C1059 C 0.63889 0.02977 0.73293 0.0
O1060 O 0.62117 0.02869 0.72482 0.0
C1061 C 0.60529 0.01259 0.7805 0.0
O1062 O 0.60736 0.02744 0.76835 0.0
O1063 O 0.60809 0.98554 0.72715 0.0
C1064 C -0.00026 0.22762 0.90621 0.0
O1065 O 0.98762 0.24157 0.9113 0.0
O1066 O 0.97796 0.24213 0.85476 0.0
Zn1067 Zn 0.00254 0.24999 0.8705 0.0
O1068 O -0.00194 0.2751 0.88592 0.0
C1069 C 0.02333 0.26116 0.8348 0.0
O1070 O 0.00536 0.26499 0.82885 0.0
O1071 O 0.00817 0.22821 0.88931 0.0
C1072 C 0.01239 0.28597 0.89257 0.0
O1073 O 0.03065 0.28056 0.88955 0.0
C1074 C 0.96504 0.25462 0.85074 0.0
O1075 O 0.96783 0.27301 0.85688 0.0
O1076 O 0.02577 0.2544 0.85208 0.0
C1077 C 0.50361 0.70959 0.38544 0.0
O1078 O 0.50215 0.70518 0.36636 0.0
O1079 O 0.47413 0.74119 0.35561 0.0
Zn1080 Zn 0.49887 0.74855 0.37114 0.0
O1081 O 0.49524 0.7744 0.38555 0.0
C1082 C 0.52336 0.76548 0.34088 0.0
O1083 O 0.50985 0.7789 0.34194 0.0
O1084 O 0.50304 0.72753 0.39111 0.0
C1085 C 0.50955 0.78529 0.3922 0.0
O1086 O 0.5278 0.77953 0.38994 0.0
C1087 C 0.46194 0.75407 0.3507 0.0
O1088 O 0.46567 0.77266 0.3557 0.0
O1089 O 0.52194 0.75075 0.35225 0.0
C1090 C 0.98995 0.79371 0.59771 0.0
O1091 O 0.97217 0.78562 0.60032 0.0
O1092 O 0.97602 0.76788 0.64231 0.0
Zn1093 Zn 5e-05 0.76408 0.62509 0.0
O1094 O 0.99593 0.73949 0.60832 0.0
C1095 C 0.02566 0.74563 0.65236 0.0
O1096 O 0.01267 0.73093 0.6496 0.0
O1097 O 0.00451 0.78706 0.60711 0.0
C1098 C 0.01019 0.73075 0.6001 0.0
O1099 O 0.02836 0.73812 0.60229 0.0
C1100 C 0.96527 0.75303 0.6474 0.0
O1101 O 0.96975 0.73538 0.64085 0.0
O1102 O 0.02354 0.76155 0.64307 0.0
C1103 C 0.50014 0.27811 0.08784 0.0
O1104 O 0.48881 0.26293 0.08197 0.0
O1105 O 0.47661 0.26083 0.13834 0.0
Zn1106 Zn 0.50188 0.25573 0.12346 0.0
O1107 O 0.49839 0.23045 0.10755 0.0
C1108 C 0.52158 0.25195 0.16143 0.0
O1109 O 0.5034 0.25214 0.16838 0.0
O1110 O 0.50765 0.27826 0.10517 0.0
C1111 C 0.51255 0.21927 0.1034 0.0
O1112 O 0.5306 0.22439 0.10932 0.0
C1113 C 0.46422 0.24679 0.14195 0.0
O1114 O 0.46787 0.22888 0.13553 0.0
O1115 O 0.52447 0.25342 0.14282 0.0
H1116 H 0.22929 0.76381 0.90534 0.0
H1117 H 0.21122 0.87492 0.94085 0.0
H1118 H 0.21026 0.80885 0.86585 0.0
H1119 H 0.24131 0.83304 0.97651 0.0
H1120 H 0.2083 0.85017 0.91396 0.0
H1121 H 0.23176 0.78842 0.9323 0.0
C1122 C 0.22577 0.77889 0.90228 0.0
C1123 C 0.21958 0.78424 0.88325 0.0
C1124 C 0.21554 0.84641 0.92768 0.0
C1125 C 0.22205 0.81244 0.91419 0.0
C1126 C 0.21715 0.86051 0.94306 0.0
C1127 C 0.22656 0.85606 0.96094 0.0
C1128 C 0.22327 0.8277 0.93025 0.0
C1129 C 0.234 0.83715 0.96295 0.0
C1130 C 0.22707 0.79291 0.91772 0.0
C1131 C 0.21483 0.80396 0.88032 0.0
N1132 N 0.23217 0.82366 0.94781 0.0
N1133 N 0.21614 0.81733 0.89562 0.0
H1134 H 0.03564 0.49943 0.39035 0.0
H1135 H 0.09516 0.54681 0.29881 0.0
H1136 H 0.03873 0.56176 0.37844 0.0
H1137 H 0.08983 0.48416 0.30874 0.0
H1138 H 0.07474 0.55254 0.32817 0.0
H1139 H 0.05542 0.49344 0.36052 0.0
C1140 C 0.04036 0.51185 0.3814 0.0
C1141 C 0.03556 0.53114 0.38695 0.0
C1142 C 0.07802 0.53753 0.32394 0.0
C1143 C 0.0584 0.52441 0.35291 0.0
C1144 C 0.08972 0.53425 0.30717 0.0
C1145 C 0.09423 0.51498 0.3013 0.0
C1146 C 0.07079 0.52142 0.33496 0.0
C1147 C 0.08673 0.49927 0.31271 0.0
C1148 C 0.05176 0.50843 0.36443 0.0
C1149 C 0.04233 0.54668 0.37492 0.0
N1150 N 0.07539 0.50284 0.329 0.0
N1151 N 0.05341 0.54298 0.3585 0.0
H1152 H 0.77725 0.70329 0.86186 0.0
H1153 H 0.7376 0.69123 0.97295 0.0
H1154 H 0.75974 0.7521 0.89931 0.0
H1155 H 0.77094 0.64657 0.94269 0.0
H1156 H 0.74282 0.71274 0.94465 0.0
H1157 H 0.77277 0.68137 0.89011 0.0
C1158 C 0.77259 0.70945 0.87602 0.0
C1159 C 0.76878 0.72961 0.87814 0.0
C1160 C 0.74903 0.69825 0.9442 0.0
C1161 C 0.7633 0.7045 0.91038 0.0
C1162 C 0.74599 0.68591 0.96033 0.0
C1163 C 0.75386 0.66707 0.96019 0.0
C1164 C 0.75987 0.69166 0.92769 0.0
C1165 C 0.76465 0.66101 0.94343 0.0
C1166 C 0.76995 0.6969 0.8921 0.0
C1167 C 0.76247 0.73663 0.8968 0.0
N1168 N 0.76729 0.67326 0.9278 0.0
N1169 N 0.75986 0.7241 0.91214 0.0
H1170 H 0.9887 0.0097 0.3611 0.0
H1171 H 0.87467 -0.00141 0.32829 0.0
H1172 H 0.9417 0.99012 0.40043 0.0
H1173 H 0.92207 0.01766 0.28915 0.0
H1174 H 0.89878 0.9962 0.3552 0.0
H1175 H 0.96425 0.01374 0.3349 0.0
C1176 C 0.97321 0.00641 0.36428 0.0
C1177 C 0.96725 -0.00044 0.383 0.0
C1178 C 0.90389 0.00094 0.34073 0.0
C1179 C 0.93916 0.00391 0.35295 0.0
C1180 C 0.89013 0.00231 0.32535 0.0
C1181 C 0.89636 0.00829 0.30642 0.0
C1182 C 0.92402 0.00559 0.33714 0.0
C1183 C 0.91659 0.01294 0.30349 0.0
C1184 C 0.95926 0.0086 0.34927 0.0
C1185 C 0.94699 0.99521 0.38615 0.0
N1186 N 0.92968 0.01146 0.31867 0.0
N1187 N 0.93368 0.99744 0.37127 0.0
H1188 H 0.22426 0.22019 0.63315 0.0
H1189 H 0.24422 0.20282 0.51703 0.0
H1190 H 0.23533 0.26761 0.59232 0.0
H1191 H 0.24659 0.15662 0.56013 0.0
H1192 H 0.23843 0.22655 0.54401 0.0
H1193 H 0.22968 0.19639 0.60607 0.0
C1194 C 0.22772 0.22558 0.61845 0.0
C1195 C 0.22936 0.24589 0.61495 0.0
C1196 C 0.24026 0.21123 0.54756 0.0
C1197 C 0.23566 0.21879 0.58395 0.0
C1198 C 0.24352 0.19766 0.53216 0.0
C1199 C 0.24591 0.1777 0.53634 0.0
C1200 C 0.2392 0.20479 0.56726 0.0
C1201 C 0.24489 0.17187 0.55624 0.0
C1202 C 0.23094 0.212 0.60304 0.0
C1203 C 0.23412 0.25208 0.59568 0.0
N1204 N 0.24154 0.18534 0.57096 0.0
N1205 N 0.23704 0.23858 0.58088 0.0
H1206 H 0.47214 0.55867 0.62579 0.0
H1207 H 0.43328 0.49169 0.71461 0.0
H1208 H 0.48275 0.49638 0.62881 0.0
H1209 H 0.40517 0.54537 0.69898 0.0
H1210 H 0.45458 0.49492 0.68539 0.0
H1211 H 0.45014 0.55564 0.65454 0.0
C1212 C 0.46978 0.54433 0.63234 0.0
C1213 C 0.47942 0.52776 0.62478 0.0
C1214 C 0.44373 0.50597 0.68834 0.0
C1215 C 0.45458 0.52437 0.65802 0.0
C1216 C 0.43163 0.5042 0.70507 0.0
C1217 C 0.41742 0.51828 0.70923 0.0
C1218 C 0.44183 0.52209 0.67581 0.0
C1219 C 0.41589 0.53414 0.69628 0.0
C1220 C 0.45729 0.54266 0.64884 0.0
C1221 C 0.47602 0.50967 0.63427 0.0
N1222 N 0.42803 0.53568 0.68018 0.0
N1223 N 0.46398 0.50849 0.65042 0.0
H1224 H 0.76954 0.25345 0.6089 0.0
H1225 H 0.76615 0.36316 0.56818 0.0
H1226 H 0.78505 0.3052 0.64483 0.0
H1227 H 0.73922 0.31223 0.53788 0.0
H1228 H 0.77537 0.34208 0.59552 0.0
H1229 H 0.76063 0.27471 0.58175 0.0
C1230 C 0.77099 0.26929 0.61114 0.0
C1231 C 0.77794 0.27753 0.62927 0.0
C1232 C 0.7674 0.33555 0.58291 0.0
C1233 C 0.76801 0.30198 0.59805 0.0
C1234 C 0.76214 0.34756 0.56729 0.0
C1235 C 0.75187 0.33944 0.55072 0.0
C1236 C 0.76251 0.31525 0.58188 0.0
C1237 C 0.74707 0.31913 0.55037 0.0
C1238 C 0.76597 0.28142 0.59557 0.0
C1239 C 0.77995 0.29817 0.63108 0.0
N1240 N 0.75249 0.30774 0.56568 0.0
N1241 N 0.77499 0.30969 0.61567 0.0
H1242 H 0.53588 0.93987 0.62008 0.0
H1243 H 0.55996 0.01322 0.71157 0.0
H1244 H 0.52098 0.00128 0.62042 0.0
H1245 H 0.5948 0.96248 0.69844 0.0
H1246 H 0.54111 0.00652 0.68093 0.0
H1247 H 0.55364 0.94567 0.65144 0.0
C1248 C 0.53639 0.95459 0.62662 0.0
C1249 C 0.52691 0.97011 0.61744 0.0
C1250 C 0.55286 0.99686 0.68481 0.0
C1251 C 0.54678 0.97663 0.65365 0.0
C1252 C 0.56355 0.00059 0.70232 0.0
C1253 C 0.57901 0.98842 0.7075 0.0
C1254 C 0.55747 0.98067 0.67257 0.0
C1255 C 0.58307 0.97231 0.69493 0.0
C1256 C 0.54644 0.95782 0.6446 0.0
C1257 C 0.52773 0.98875 0.62701 0.0
N1258 N 0.57231 0.96885 0.67805 0.0
N1259 N 0.53743 0.99146 0.6446 0.0
H1260 H 0.85854 0.25444 0.77931 0.0
H1261 H 0.95417 0.21773 0.83625 0.0
H1262 H 0.87469 0.19352 0.78048 0.0
H1263 H 0.93561 0.27796 0.83792 0.0
H1264 H 0.92514 0.20847 0.81593 0.0
H1265 H 0.88677 0.26328 0.8008 0.0
C1266 C 0.86807 0.24292 0.78405 0.0
C1267 C 0.8643 0.22322 0.77803 0.0
C1268 C 0.9274 0.2237 0.82078 0.0
C1269 C 0.89661 0.23321 0.80277 0.0
C1270 C 0.94398 0.22901 0.83238 0.0
C1271 C 0.94736 0.24867 0.83877 0.0
C1272 C 0.91412 0.23817 0.81548 0.0
C1273 C 0.93363 0.26264 0.83332 0.0
C1274 C 0.88413 0.24796 0.79641 0.0
C1275 C 0.87695 0.20887 0.78491 0.0
N1276 N 0.91766 0.25712 0.82196 0.0
N1277 N 0.89259 0.21416 0.79684 0.0
H1278 H 0.5184 0.89629 0.45833 0.0
H1279 H 0.47362 0.80161 0.39854 0.0
H1280 H 0.4558 0.88376 0.44946 0.0
H1281 H 0.53629 0.81224 0.40893 0.0
H1282 H 0.46709 0.83264 0.41573 0.0
H1283 H 0.52552 0.86653 0.43889 0.0
C1284 C 0.50615 0.88731 0.45228 0.0
C1285 C 0.48646 0.89253 0.45558 0.0
C1286 C 0.48229 0.82823 0.41424 0.0
C1287 C 0.49451 0.85851 0.43324 0.0
C1288 C 0.48604 0.81048 0.40443 0.0
C1289 C 0.50554 0.80425 0.40236 0.0
C1290 C 0.49814 0.8399 0.42211 0.0
C1291 C 0.52102 0.81642 0.41023 0.0
C1292 C 0.51024 0.87037 0.44112 0.0
C1293 C 0.47121 0.88049 0.44711 0.0
N1294 N 0.51698 0.83366 0.41981 0.0
N1295 N 0.47556 0.86402 0.43642 0.0
H1296 H 0.09931 0.2786 0.73267 0.0
H1297 H 0.06284 0.2607 0.84413 0.0
H1298 H 0.1384 0.28449 0.78338 0.0
H1299 H 0.02292 0.27007 0.79532 0.0
H1300 H 0.09095 0.26698 0.82185 0.0
H1301 H 0.07128 0.27305 0.75518 0.0
C1302 C 0.10197 0.27868 0.74856 0.0
C1303 C 0.12118 0.28195 0.7562 0.0
C1304 C 0.07603 0.2677 0.81605 0.0
C1305 C 0.08922 0.27562 0.78203 0.0
C1306 C 0.05998 0.26404 0.82872 0.0
C1307 C 0.0405 0.26484 0.82156 0.0
C1308 C 0.07258 0.27199 0.79602 0.0
C1309 C 0.03768 0.26933 0.80149 0.0
C1310 C 0.08597 0.27562 0.7614 0.0
C1311 C 0.12379 0.28215 0.77691 0.0
N1312 N 0.05354 0.27265 0.78941 0.0
N1313 N 0.108 0.27891 0.78912 0.0
H1314 H 0.51497 0.59816 0.44427 0.0
H1315 H 0.50341 0.71336 0.42607 0.0
H1316 H 0.50384 0.64061 0.49122 0.0
H1317 H 0.50675 0.66991 0.3785 0.0
H1318 H 0.50474 0.68702 0.4502 0.0
H1319 H 0.51296 0.62434 0.41995 0.0
C1320 C 0.51209 0.613 0.44945 0.0
C1321 C 0.50959 0.61723 0.4698 0.0
C1322 C 0.50517 0.68324 0.43449 0.0
C1323 C 0.50728 0.64725 0.44207 0.0
C1324 C 0.50448 0.69828 0.42068 0.0
C1325 C 0.50497 0.69384 0.40021 0.0
C1326 C 0.50646 0.66359 0.4278 0.0
C1327 C 0.50632 0.67402 0.39413 0.0
C1328 C 0.51088 0.62792 0.43556 0.0
C1329 C 0.50565 0.63666 0.47567 0.0
N1330 N 0.50704 0.65964 0.40786 0.0
N1331 N 0.50472 0.65097 0.46188 0.0
H1332 H 0.87993 0.7987 0.73088 0.0
H1333 H 0.94 0.72428 0.66181 0.0
H1334 H 0.868 0.73575 0.72836 0.0
H1335 H 0.95237 0.78717 0.66468 0.0
H1336 H 0.91312 0.7283 0.68566 0.0
H1337 H 0.90609 0.79487 0.70616 0.0
C1338 C 0.88275 0.78407 0.72505 0.0
C1339 C 0.87174 0.76751 0.73169 0.0
C1340 C 0.92168 0.74123 0.68105 0.0
C1341 C 0.90181 0.763 0.7035 0.0
C1342 C 0.93703 0.73895 0.6674 0.0
C1343 C 0.94849 0.75542 0.66126 0.0
C1344 C 0.91774 0.76011 0.68864 0.0
C1345 C 0.94394 0.77407 0.66901 0.0
C1346 C 0.89776 0.78189 0.71101 0.0
C1347 C 0.87627 0.74889 0.72386 0.0
N1348 N 0.92894 0.7759 0.68233 0.0
N1349 N 0.89094 0.74714 0.71016 0.0
H1350 H 0.0406 0.88031 0.5176 0.0
H1351 H 0.96182 0.8135 0.57763 0.0
H1352 H 0.97768 0.88982 0.51804 0.0
H1353 H 0.02515 0.81106 0.58573 0.0
H1354 H 0.96731 0.84016 0.55415 0.0
H1355 H 0.03521 0.85362 0.54109 0.0
C1356 C 0.02566 0.87686 0.52268 0.0
C1357 C 0.00957 0.88737 0.5158 0.0
C1358 C 0.98001 0.83382 0.56109 0.0
C1359 C 0.00328 0.85664 0.54252 0.0
C1360 C 0.97689 0.81857 0.57449 0.0
C1361 C 0.99305 0.81005 0.58368 0.0
C1362 C -0.00056 0.84052 0.55674 0.0
C1363 C 0.01224 0.81724 0.57903 0.0
C1364 C 0.02259 0.86156 0.53604 0.0
C1365 C 0.9905 0.88197 0.52267 0.0
N1366 N 0.01491 0.83202 0.56584 0.0
N1367 N 0.9879 0.86699 0.53562 0.0
H1368 H 0.1088 0.70405 0.73861 0.0
H1369 H 0.05328 0.77414 0.66401 0.0
H1370 H 0.12177 0.76661 0.73461 0.0
H1371 H 0.03544 0.71324 0.67334 0.0
H1372 H 0.07969 0.77121 0.6885 0.0
H1373 H 0.083 0.70669 0.71338 0.0
C1374 C 0.10625 0.71833 0.73236 0.0
C1375 C 0.11742 0.73515 0.73872 0.0
C1376 C 0.07 0.75849 0.68518 0.0
C1377 C 0.0879 0.7383 0.70992 0.0
C1378 C 0.05495 0.76013 0.67116 0.0
C1379 C 0.0421 0.74392 0.66665 0.0
C1380 C 0.07228 0.74048 0.69471 0.0
C1381 C 0.04497 0.72614 0.67638 0.0
C1382 C 0.09147 0.71985 0.71804 0.0
C1383 C 0.11334 0.75332 0.73031 0.0
N1384 N 0.05975 0.7249 0.68996 0.0
N1385 N 0.09894 0.75441 0.71631 0.0
H1386 H 0.95402 0.62946 0.54057 0.0
H1387 H 0.03714 0.70683 0.58225 0.0
H1388 H 0.01686 0.62107 0.53449 0.0
H1389 H 0.97433 0.71226 0.59212 0.0
H1390 H 0.03014 0.67582 0.56397 0.0
H1391 H 0.96131 0.66014 0.55909 0.0
C1392 C 0.96936 0.63398 0.54328 0.0
C1393 C 0.98485 0.62263 0.536 0.0
C1394 C 0.0179 0.68381 0.57014 0.0
C1395 C 0.99332 0.65796 0.55696 0.0
C1396 C 0.02188 0.70154 0.58054 0.0
C1397 C 0.0063 0.71216 0.58872 0.0
C1398 C -0.00181 0.67671 0.56787 0.0
C1399 C 0.98682 0.70457 0.58608 0.0
C1400 C 0.97352 0.65158 0.55375 0.0
C1401 C 0.00445 0.62946 0.53963 0.0
N1402 N 0.98333 0.68733 0.57589 0.0
N1403 N 0.00813 0.64669 0.54984 0.0
H1404 H 0.76176 0.89414 0.18939 0.0
H1405 H 0.83232 0.96143 0.26054 0.0
H1406 H 0.764 0.88773 0.25307 0.0
H1407 H 0.8211 0.97454 0.19905 0.0
H1408 H 0.80887 0.93317 0.25775 0.0
H1409 H 0.78494 0.92258 0.19232 0.0
C1410 C 0.76717 0.89873 0.20399 0.0
C1411 C 0.761 0.88856 0.22102 0.0
C1412 C 0.81153 0.94224 0.24488 0.0
C1413 C 0.78751 0.92108 0.2245 0.0
C1414 C 0.82498 0.95833 0.24643 0.0
C1415 C 0.82868 0.97036 0.22999 0.0
C1416 C 0.80183 0.93807 0.22673 0.0
C1417 C 0.81869 0.96569 0.21211 0.0
C1418 C 0.78032 0.91501 0.20567 0.0
C1419 C 0.76826 0.89527 0.2396 0.0
N1420 N 0.80575 0.94988 0.21095 0.0
N1421 N 0.78123 0.91106 0.24084 0.0
H1422 H 0.78525 0.15178 0.27565 0.0
H1423 H 0.79461 0.03495 0.26822 0.0
H1424 H 0.73477 0.11109 0.27039 0.0
H1425 H 0.84373 0.07592 0.25729 0.0
H1426 H 0.77275 0.06268 0.27167 0.0
H1427 H 0.80727 0.12413 0.27148 0.0
C1428 C 0.77883 0.137 0.27363 0.0
C1429 C 0.75818 0.13368 0.27336 0.0
C1430 C 0.7883 0.0656 0.26847 0.0
C1431 C 0.78322 0.10204 0.26863 0.0
C1432 C 0.80082 0.04978 0.26658 0.0
C1433 C 0.82103 0.05313 0.26246 0.0
C1434 C 0.79608 0.08493 0.26645 0.0
C1435 C 0.82823 0.07266 0.26042 0.0
C1436 C 0.79138 0.12127 0.27116 0.0
C1437 C 0.75061 0.11429 0.27051 0.0
N1438 N 0.81577 0.08785 0.26252 0.0
N1439 N 0.76313 0.09918 0.26836 0.0
H1440 H 0.3789 0.96827 0.94128 0.0
H1441 H 0.30437 0.9197 0.02061 0.0
H1442 H 0.39028 0.96857 0.00449 0.0
H1443 H 0.2965 0.91361 0.95701 0.0
H1444 H 0.33538 0.93852 0.01508 0.0
H1445 H 0.34825 0.94892 0.9468 0.0
C1446 C 0.37504 0.96416 0.95631 0.0
C1447 C 0.38723 0.97006 0.97244 0.0
C1448 C 0.32688 0.93304 0.00233 0.0
C1449 C 0.35195 0.94812 0.9789 0.0
C1450 C 0.30916 0.92231 0.00548 0.0
C1451 C 0.29781 0.91507 0.98925 0.0
C1452 C 0.33329 0.93663 0.98281 0.0
C1453 C 0.30476 0.91889 0.96997 0.0
C1454 C 0.35746 0.9532 0.95947 0.0
C1455 C 0.38123 0.9646 0.99163 0.0
N1456 N 0.32203 0.92944 0.96729 0.0
N1457 N 0.36402 0.95395 0.99432 0.0
H1458 H 0.20716 0.35157 0.27983 0.0
H1459 H 0.19899 0.46879 0.27678 0.0
H1460 H 0.25797 0.39198 0.27735 0.0
H1461 H 0.1499 0.42801 0.26352 0.0
H1462 H 0.22029 0.44086 0.2812 0.0
H1463 H 0.18539 0.37957 0.27811 0.0
C1464 C 0.21371 0.36636 0.27907 0.0
C1465 C 0.23437 0.36949 0.27864 0.0
C1466 C 0.20485 0.43804 0.27735 0.0
C1467 C 0.20963 0.40151 0.27663 0.0
C1468 C 0.19266 0.45397 0.27487 0.0
C1469 C 0.17265 0.45073 0.26968 0.0
C1470 C 0.19694 0.41872 0.27478 0.0
C1471 C 0.16527 0.43119 0.26741 0.0
C1472 C 0.2013 0.3823 0.27797 0.0
C1473 C 0.24211 0.38892 0.27747 0.0
N1474 N 0.17741 0.41592 0.26999 0.0
N1475 N 0.22973 0.4042 0.27653 0.0
H1476 H 0.12253 0.02695 0.51334 0.0
H1477 H 0.18551 0.11643 0.46849 0.0
H1478 H 0.11864 0.04201 0.45129 0.0
H1479 H 0.20883 0.08047 0.5146 0.0
H1480 H 0.15696 0.09316 0.46513 0.0
H1481 H 0.15082 0.05023 0.51702 0.0
C1482 C 0.12761 0.03498 0.50044 0.0
C1483 C 0.11805 0.03235 0.48193 0.0
C1484 C 0.16835 0.09043 0.47598 0.0
C1485 C 0.15006 0.05953 0.48636 0.0
C1486 C 0.18455 0.10371 0.47798 0.0
C1487 C 0.19953 0.1003 0.49181 0.0
C1488 C 0.16696 0.07391 0.48819 0.0
C1489 C 0.19763 0.08355 0.50368 0.0
C1490 C 0.14369 0.04837 0.50264 0.0
C1491 C 0.12515 0.04371 0.46595 0.0
N1492 N 0.18155 0.07101 0.5017 0.0
N1493 N 0.14063 0.05687 0.46857 0.0
H1494 H 0.74119 0.10986 0.72363 0.0
H1495 H 0.63076 0.0638 0.71385 0.0
H1496 H 0.69131 0.14294 0.70478 0.0
H1497 H 0.67777 0.03501 0.74413 0.0
H1498 H 0.65331 0.09217 0.70842 0.0
H1499 H 0.71865 0.08158 0.72961 0.0
C1500 C 0.7255 0.11124 0.72087 0.0
C1501 C 0.71816 0.12883 0.71364 0.0
C1502 C 0.65868 0.07966 0.71628 0.0
C1503 C 0.69233 0.09638 0.72017 0.0
C1504 C 0.64583 0.06343 0.71934 0.0
C1505 C 0.65239 0.04701 0.72947 0.0
C1506 C 0.67828 0.07943 0.72326 0.0
C1507 C 0.67207 0.04737 0.73628 0.0
C1508 C 0.71265 0.09505 0.72419 0.0
C1509 C 0.69771 0.1296 0.71002 0.0
N1510 N 0.68434 0.0633 0.73301 0.0
N1511 N 0.68553 0.11361 0.71328 0.0
H1512 H 0.36925 0.00164 0.50642 0.0
H1513 H 0.3158 0.10398 0.52256 0.0
H1514 H 0.39718 0.05297 0.53512 0.0
H1515 H 0.29181 0.05613 0.48554 0.0
H1516 H 0.345 0.08483 0.5288 0.0
H1517 H 0.34015 0.02081 0.49981 0.0
C1518 C 0.36935 0.01697 0.51122 0.0
C1519 C 0.38574 0.02568 0.52135 0.0
C1520 C 0.33336 0.07852 0.51929 0.0
C1521 C 0.35228 0.04764 0.51408 0.0
C1522 C 0.31665 0.08944 0.51576 0.0
C1523 C 0.30133 0.08165 0.5035 0.0
C1524 C 0.33474 0.05963 0.5106 0.0
C1525 C 0.30327 0.06273 0.49507 0.0
C1526 C 0.35266 0.02788 0.50753 0.0
C1527 C 0.38481 0.04553 0.52753 0.0
N1528 N 0.31966 0.05235 0.49881 0.0
N1529 N 0.36837 0.05581 0.52382 0.0
H1530 H 0.6082 0.46373 0.53187 0.0
H1531 H 0.71924 0.45696 0.49144 0.0
H1532 H 0.64108 0.51251 0.50573 0.0
H1533 H 0.69011 0.41145 0.52605 0.0
H1534 H 0.69027 0.47712 0.49566 0.0
H1535 H 0.63767 0.44398 0.52923 0.0
C1536 C 0.62163 0.47035 0.5257 0.0
C1537 C 0.62211 0.48982 0.51895 0.0
C1538 C 0.69023 0.46275 0.50239 0.0
C1539 C 0.65583 0.46718 0.51564 0.0
C1540 C 0.70677 0.45121 0.49996 0.0
C1541 C 0.7071 0.43247 0.50838 0.0
C1542 C 0.67382 0.45547 0.51322 0.0
C1543 C 0.6905 0.42581 0.51931 0.0
C1544 C 0.63843 0.45902 0.52411 0.0
C1545 C 0.63989 0.49748 0.51081 0.0
N1546 N 0.67451 0.43727 0.52135 0.0
N1547 N 0.65599 0.48613 0.50934 0.0
H1548 H 0.70016 0.28048 0.38974 0.0
H1549 H 0.78303 0.33965 0.45452 0.0
H1550 H 0.76292 0.27863 0.37767 0.0
H1551 H 0.72021 0.34771 0.46136 0.0
H1552 H 0.77594 0.31637 0.42705 0.0
H1553 H 0.70719 0.30439 0.41668 0.0
C1554 C 0.71541 0.28519 0.39266 0.0
C1555 C 0.73097 0.27752 0.3814 0.0
C1556 C 0.76371 0.32327 0.43453 0.0
C1557 C 0.73914 0.30471 0.41242 0.0
C1558 C 0.76774 0.33655 0.45023 0.0
C1559 C 0.75219 0.34564 0.46026 0.0
C1560 C 0.74397 0.31895 0.42885 0.0
C1561 C 0.73267 0.34107 0.45404 0.0
C1562 C 0.71942 0.29877 0.40812 0.0
C1563 C 0.75047 0.28391 0.38612 0.0
N1564 N 0.72911 0.328 0.43877 0.0
N1565 N 0.75399 0.29711 0.40128 0.0
H1566 H 0.51504 0.03479 0.86807 0.0
H1567 H 0.60899 0.99175 0.81459 0.0
H1568 H 0.56565 0.01771 0.9019 0.0
H1569 H 0.57645 0.03856 0.78894 0.0
H1570 H 0.59016 0.9958 0.84558 0.0
H1571 H 0.53431 0.03087 0.83733 0.0
C1572 C 0.5302 0.03013 0.86894 0.0
C1573 C 0.53889 0.02658 0.88738 0.0
C1574 C 0.58723 0.00517 0.83314 0.0
C1575 C 0.56074 0.02184 0.85256 0.0
C1576 C 0.59786 0.00283 0.81549 0.0
C1577 C 0.59425 0.01488 0.79926 0.0
C1578 C 0.57261 0.0193 0.83432 0.0
C1579 C 0.57974 0.02906 0.80118 0.0
C1580 C 0.54116 0.028 0.8515 0.0
C1581 C 0.55856 0.02065 0.88787 0.0
N1582 N 0.56928 0.03076 0.81835 0.0
N1583 N 0.56883 0.01828 0.87065 0.0
H1584 H 0.29923 0.22134 0.37635 0.0
H1585 H 0.23427 0.13438 0.42501 0.0
H1586 H 0.23782 0.20962 0.36096 0.0
H1587 H 0.28397 0.16375 0.45502 0.0
H1588 H 0.23793 0.15794 0.39791 0.0
H1589 H 0.29633 0.1963 0.40203 0.0
C1590 C 0.28516 0.21341 0.37836 0.0
C1591 C 0.26871 0.21752 0.36662 0.0
C1592 C 0.24805 0.15913 0.41042 0.0
C1593 C 0.26535 0.18885 0.39575 0.0
C1594 C 0.24606 0.14565 0.42579 0.0
C1595 C 0.25882 0.14717 0.44228 0.0
C1596 C 0.26309 0.17397 0.41143 0.0
C1597 C 0.27376 0.16212 0.44262 0.0
C1598 C 0.2835 0.19922 0.39303 0.0
C1599 C 0.25078 0.20696 0.36986 0.0
N1600 N 0.27553 0.17491 0.42739 0.0
N1601 N 0.24958 0.19299 0.38409 0.0
H1602 H 0.46809 0.52216 0.88454 0.0
H1603 H 0.40081 0.46721 0.80085 0.0
H1604 H 0.46755 0.45935 0.87274 0.0
H1605 H 0.40815 0.53059 0.80623 0.0
H1606 H 0.42339 0.46404 0.82887 0.0
H1607 H 0.44455 0.52556 0.85729 0.0
C1608 C 0.4631 0.50909 0.87619 0.0
C1609 C 0.46983 0.49043 0.88097 0.0
C1610 C 0.42005 0.47865 0.82393 0.0
C1611 C 0.44268 0.4942 0.84994 0.0
C1612 C 0.40711 0.48047 0.80796 0.0
C1613 C 0.40262 0.4992 0.80114 0.0
C1614 C 0.42851 0.49566 0.83324 0.0
C1615 C 0.41124 0.51586 0.81095 0.0
C1616 C 0.44958 0.51104 0.8607 0.0
C1617 C 0.46257 0.47399 0.86982 0.0
N1618 N 0.42378 0.5137 0.8265 0.0
N1619 N 0.44941 0.47626 0.85485 0.0
H1620 H 0.72484 0.71077 0.13949 0.0
H1621 H 0.77869 0.69181 0.03571 0.0
H1622 H 0.74662 0.7577 0.10185 0.0
H1623 H 0.73872 0.6485 0.06199 0.0
H1624 H 0.77048 0.71527 0.06221 0.0
H1625 H 0.73262 0.68687 0.11318 0.0
C1626 C 0.73111 0.7161 0.12569 0.0
C1627 C 0.73515 0.73635 0.12299 0.0
C1628 C 0.76351 0.70062 0.06217 0.0
C1629 C 0.74448 0.70898 0.09304 0.0
C1630 C 0.76827 0.68719 0.04712 0.0
C1631 C 0.75935 0.66818 0.04664 0.0
C1632 C 0.74993 0.69495 0.077 0.0
C1633 C 0.74588 0.66304 0.06177 0.0
C1634 C 0.73564 0.70242 0.11073 0.0
C1635 C 0.74362 0.74227 0.10485 0.0
N1636 N 0.74162 0.67634 0.0764 0.0
N1637 N 0.74809 0.72866 0.09064 0.0
H1638 H 0.96968 0.98494 0.11487 0.0
H1639 H 0.90373 0.03857 0.19726 0.0
H1640 H 0.96735 0.04819 0.1222 0.0
H1641 H 0.91315 0.97596 0.19612 0.0
H1642 H 0.92489 0.04204 0.16798 0.0
H1643 H 0.94703 0.98105 0.14304 0.0
C1644 C 0.96445 -0.00199 0.1224 0.0
C1645 C 0.97047 0.01692 0.11613 0.0
C1646 C 0.92232 0.02754 0.17412 0.0
C1647 C 0.94436 0.01256 0.14825 0.0
C1648 C 0.9102 0.02553 0.19083 0.0
C1649 C 0.90672 0.00695 0.19921 0.0
C1650 C 0.93096 0.01083 0.16565 0.0
C1651 C 0.91549 0.99058 0.19021 0.0
C1652 C 0.95145 0.99577 0.13843 0.0
C1653 C 0.96292 0.03331 0.12628 0.0
N1654 N 0.92722 0.99291 0.17392 0.0
N1655 N 0.9503 0.03075 0.14183 0.0
H1656 H 0.27498 0.75296 0.11129 0.0
H1657 H 0.25311 0.86211 0.07673 0.0
H1658 H 0.27555 0.80316 0.15173 0.0
H1659 H 0.26901 0.8152 0.03613 0.0
H1660 H 0.25785 0.84007 0.10461 0.0
H1661 H 0.26915 0.77495 0.08365 0.0
C1662 C 0.27376 0.76861 0.11434 0.0
C1663 C 0.27579 0.77628 0.13379 0.0
C1664 C 0.26031 0.83464 0.08959 0.0
C1665 C 0.26917 0.80149 0.1023 0.0
C1666 C 0.25756 0.84718 0.07368 0.0
C1667 C 0.26072 0.84049 0.05409 0.0
C1668 C 0.26603 0.81522 0.08584 0.0
C1669 C 0.26649 0.82101 0.051 0.0
C1670 C 0.27056 0.78115 0.09857 0.0
C1671 C 0.27429 0.79669 0.13691 0.0
N1672 N 0.2689 0.80905 0.0667 0.0
N1673 N 0.271 0.8086 0.12133 0.0
H1674 H 0.0344 0.43845 0.12229 0.0
H1675 H 0.06162 0.51099 0.21358 0.0
H1676 H 0.02519 0.50113 0.12124 0.0
H1677 H 0.0926 0.45742 0.2021 0.0
H1678 H 0.04317 0.50531 0.18253 0.0
H1679 H 0.05139 0.44315 0.1542 0.0
C1680 C 0.036 0.45321 0.12864 0.0
C1681 C 0.02835 0.46942 0.11889 0.0
C1682 C 0.05397 0.49478 0.18687 0.0
C1683 C 0.04732 0.47471 0.15574 0.0
C1684 C 0.06442 0.49795 0.20462 0.0
C1685 C 0.07871 0.48468 0.21036 0.0
C1686 C 0.05763 0.47809 0.17497 0.0
C1687 C 0.08179 0.46806 0.19815 0.0
C1688 C 0.0456 0.45582 0.14693 0.0
C1689 C 0.0305 0.48811 0.12824 0.0
N1690 N 0.07128 0.4652 0.18102 0.0
N1691 N 0.03972 0.49022 0.14615 0.0
H1692 H 0.37007 0.68985 0.28365 0.0
H1693 H 0.43262 0.77773 0.33825 0.0
H1694 H 0.35301 0.75054 0.28473 0.0
H1695 H 0.44976 0.71704 0.33772 0.0
H1696 H 0.40281 0.7678 0.31951 0.0
H1697 H 0.39859 0.6992 0.30467 0.0
C1698 C 0.37221 0.7051 0.28847 0.0
C1699 C 0.35918 0.71945 0.28234 0.0
C1700 C 0.41306 0.75664 0.32352 0.0
C1701 C 0.39192 0.7303 0.30618 0.0
C1702 C 0.43011 0.76231 0.33421 0.0
C1703 C 0.44375 0.74821 0.33951 0.0
C1704 C 0.4096 0.73672 0.31805 0.0
C1705 C 0.43968 0.72842 0.33391 0.0
C1706 C 0.38856 0.71046 0.30036 0.0
C1707 C 0.36284 0.73905 0.28883 0.0
N1708 N 0.42299 0.72327 0.32344 0.0
N1709 N 0.37888 0.7439 0.30034 0.0
H1710 H 0.95615 0.38385 0.95088 0.0
H1711 H 0.03932 0.3127 0.9092 0.0
H1712 H 0.01888 0.39471 0.96058 0.0
H1713 H 0.97644 0.30167 0.90064 0.0
H1714 H 0.03229 0.34332 0.92718 0.0
H1715 H 0.96348 0.35442 0.93119 0.0
C1716 C 0.97149 0.38017 0.94869 0.0
C1717 C 0.98692 0.39177 0.95742 0.0
C1718 C 0.02004 0.33421 0.92134 0.0
C1719 C 0.99542 0.35787 0.93511 0.0
C1720 C 0.02404 0.31671 0.91109 0.0
C1721 C 0.00845 0.30457 0.90344 0.0
C1722 C 0.0003 0.33961 0.92396 0.0
C1723 C 0.98894 0.31054 0.90631 0.0
C1724 C 0.97566 0.36326 0.93756 0.0
C1725 C 0.0065 0.38606 0.95435 0.0
N1726 N 0.98543 0.32761 0.91635 0.0
N1727 N 0.01018 0.3695 0.94348 0.0
H1728 H 0.62452 0.74535 0.26463 0.0
H1729 H 0.53257 0.79664 0.31695 0.0
H1730 H 0.61083 0.80635 0.25698 0.0
H1731 H 0.55185 0.73885 0.33211 0.0
H1732 H 0.55992 0.79967 0.2933 0.0
H1733 H 0.59654 0.74181 0.28762 0.0
C1734 C 0.61554 0.75796 0.26769 0.0
C1735 C 0.62002 0.77618 0.25891 0.0
C1736 C 0.55818 0.78633 0.30181 0.0
C1737 C 0.58809 0.77229 0.28528 0.0
C1738 C 0.54255 0.78457 0.31531 0.0
C1739 C 0.53992 0.76747 0.32656 0.0
C1740 C 0.57126 0.77083 0.29943 0.0
C1741 C 0.55333 0.75233 0.32379 0.0
C1742 C 0.59966 0.75597 0.28091 0.0
C1743 C 0.60804 0.7921 0.2636 0.0
N1744 N 0.5684 0.75435 0.31048 0.0
N1745 N 0.59262 0.78977 0.27643 0.0
H1746 H 0.02793 0.11512 0.95524 0.0
H1747 H 0.98616 0.22313 0.94428 0.0
H1748 H 0.00165 0.14772 0.00369 0.0
H1749 H 0.02061 0.19437 0.89883 0.0
H1750 H 0.99084 0.19522 0.96595 0.0
H1751 H 0.0247 0.14365 0.93406 0.0
C1752 C 0.02161 0.12831 0.96149 0.0
C1753 C 0.01503 0.12897 0.98131 0.0
C1754 C 0.99744 0.19504 0.95126 0.0
C1755 C 0.01103 0.16163 0.95701 0.0
C1756 C 0.99475 0.21097 0.93886 0.0
C1757 C 0.00297 0.21108 0.91969 0.0
C1758 C 0.00833 0.17903 0.94441 0.0
C1759 C 0.014 0.19492 0.9135 0.0
C1760 C 0.01968 0.14457 0.94934 0.0
C1761 C 0.00664 0.14639 0.98844 0.0
N1762 N 0.01629 0.17951 0.92579 0.0
N1763 N 0.00484 0.16198 0.97629 0.0
H1764 H 0.3795 0.29599 0.22404 0.0
H1765 H 0.43501 0.22006 0.1526 0.0
H1766 H 0.36303 0.23408 0.21805 0.0
H1767 H 0.45342 0.28142 0.15989 0.0
H1768 H 0.40716 0.22558 0.17488 0.0
H1769 H 0.40526 0.29161 0.19887 0.0
C1770 C 0.38122 0.28152 0.21733 0.0
C1771 C 0.36921 0.26534 0.22325 0.0
C1772 C 0.41724 0.23787 0.17156 0.0
C1773 C 0.39869 0.26019 0.19458 0.0
C1774 C 0.43315 0.23473 0.15881 0.0
C1775 C 0.44664 0.25028 0.15446 0.0
C1776 C 0.41478 0.25669 0.18007 0.0
C1777 C 0.44342 0.26899 0.16288 0.0
C1778 C 0.39597 0.279 0.20304 0.0
C1779 C 0.37219 0.24688 0.21419 0.0
N1780 N 0.42786 0.27165 0.17537 0.0
N1781 N 0.38665 0.24481 0.20035 0.0
H1782 H 0.50352 0.35746 0.98855 0.0
H1783 H 0.51965 0.31332 0.0966 0.0
H1784 H 0.5252 0.39218 0.03906 0.0
H1785 H 0.48847 0.2816 0.04911 0.0
H1786 H 0.52432 0.34155 0.07488 0.0
H1787 H 0.50012 0.32875 0.00979 0.0
C1788 C 0.50748 0.35909 0.00412 0.0
C1789 C 0.5146 0.37732 0.01202 0.0
C1790 C 0.51647 0.32841 0.06921 0.0
C1791 C 0.51101 0.3444 0.03636 0.0
C1792 C 0.51384 0.31226 0.08158 0.0
C1793 C 0.50359 0.29508 0.07468 0.0
C1794 C 0.5089 0.32735 0.04974 0.0
C1795 C 0.49639 0.29456 0.05508 0.0
C1796 C 0.50563 0.34266 0.01621 0.0
C1797 C 0.51989 0.37841 0.03223 0.0
N1798 N 0.49918 0.31046 0.0433 0.0
N1799 N 0.51797 0.36219 0.0437 0.0
H1800 H 0.5962 0.24451 0.26547 0.0
H1801 H 0.56075 0.24791 0.15199 0.0
H1802 H 0.63446 0.23295 0.21546 0.0
H1803 H 0.52086 0.25115 0.20209 0.0
H1804 H 0.58831 0.24415 0.175 0.0
H1805 H 0.56875 0.24884 0.24243 0.0
C1806 C 0.59884 0.24298 0.24963 0.0
C1807 C 0.61763 0.23836 0.24236 0.0
C1808 C 0.57352 0.24568 0.18095 0.0
C1809 C 0.58629 0.24319 0.21592 0.0
C1810 C 0.55778 0.24787 0.16783 0.0
C1811 C 0.53846 0.24985 0.17513 0.0
C1812 C 0.56994 0.24556 0.20154 0.0
C1813 C 0.5355 0.24965 0.19579 0.0
C1814 C 0.58314 0.24534 0.23649 0.0
C1815 C 0.62015 0.23629 0.2217 0.0
N1816 N 0.55108 0.24757 0.20827 0.0
N1817 N 0.60467 0.23877 0.2092 0.0
H1818 H 0.45581 0.12036 0.04039 0.0
H1819 H 0.53904 0.19155 0.09182 0.0
H1820 H 0.51801 0.10763 0.04096 0.0
H1821 H 0.47681 0.20412 0.08994 0.0
H1822 H 0.53173 0.16043 0.07383 0.0
H1823 H 0.46326 0.15061 0.05956 0.0
C1824 C 0.47102 0.12382 0.04473 0.0
C1825 C 0.4863 0.11141 0.03908 0.0
C1826 C 0.51969 0.17001 0.07736 0.0
C1827 C 0.495 0.14626 0.06079 0.0
C1828 C 0.52385 0.18779 0.08762 0.0
C1829 C 0.50852 0.20048 0.09237 0.0
C1830 C 0.50005 0.1649 0.07184 0.0
C1831 C 0.48912 0.19482 0.08657 0.0
C1832 C 0.47529 0.14119 0.05555 0.0
C1833 C 0.50579 0.11687 0.0448 0.0
N1834 N 0.48545 0.17747 0.07663 0.0
N1835 N 0.50959 0.1339 0.05533 0.0
H1836 H 0.29503 0.37026 0.71529 0.0
H1837 H 0.31702 0.48228 0.75013 0.0
H1838 H 0.24933 0.40893 0.73522 0.0
H1839 H 0.35935 0.44713 0.7186 0.0
H1840 H 0.29263 0.45481 0.74732 0.0
H1841 H 0.31941 0.39753 0.71897 0.0
C1842 C 0.29008 0.38451 0.72036 0.0
C1843 C 0.27003 0.38731 0.72479 0.0
C1844 C 0.30725 0.45313 0.741 0.0
C1845 C 0.29801 0.41857 0.72933 0.0
C1846 C 0.32119 0.46879 0.74261 0.0
C1847 C 0.34026 0.46701 0.73455 0.0
C1848 C 0.31243 0.4355 0.73139 0.0
C1849 C 0.34482 0.44918 0.72498 0.0
C1850 C 0.30405 0.40005 0.72254 0.0
C1851 C 0.26463 0.406 0.73179 0.0
N1852 N 0.33103 0.43411 0.7237 0.0
N1853 N 0.27853 0.42093 0.7338 0.0
H1854 H 0.28602 0.6573 0.78315 0.0
H1855 H 0.30017 0.54104 0.78018 0.0
H1856 H 0.23712 0.6145 0.78141 0.0
H1857 H 0.34568 0.58273 0.76073 0.0
H1858 H 0.27779 0.56815 0.78521 0.0
H1859 H 0.30912 0.63038 0.77941 0.0
C1860 C 0.28019 0.64222 0.78208 0.0
C1861 C 0.25967 0.63806 0.78251 0.0
C1862 C 0.29267 0.57136 0.77984 0.0
C1863 C 0.28587 0.60735 0.77833 0.0
C1864 C 0.30549 0.55591 0.77703 0.0
C1865 C 0.3248 0.55964 0.76997 0.0
C1866 C 0.29928 0.59072 0.7758 0.0
C1867 C 0.33087 0.57921 0.7661 0.0
C1868 C 0.29333 0.62692 0.77984 0.0
C1869 C 0.25283 0.61832 0.78094 0.0
N1870 N 0.31816 0.59406 0.76913 0.0
N1871 N 0.26591 0.60368 0.779 0.0
H1872 H 0.8806 0.46889 0.45405 0.0
H1873 H 0.81407 0.42321 0.54174 0.0
H1874 H 0.8971 0.47259 0.51609 0.0
H1875 H 0.79779 0.41907 0.47963 0.0
H1876 H 0.84475 0.44103 0.5326 0.0
H1877 H 0.85056 0.44989 0.46304 0.0
C1878 C 0.878 0.46555 0.46955 0.0
C1879 C 0.89137 0.47239 0.48434 0.0
C1880 C 0.83447 0.43622 0.52097 0.0
C1881 C 0.85687 0.45088 0.49478 0.0
C1882 C 0.81692 0.42607 0.52618 0.0
C1883 C 0.80332 0.41966 0.51144 0.0
C1884 C 0.83845 0.44 0.50086 0.0
C1885 C 0.80784 0.42375 0.49151 0.0
C1886 C 0.86077 0.45482 0.47469 0.0
C1887 C 0.88707 0.46787 0.50422 0.0
N1888 N 0.82501 0.43366 0.48681 0.0
N1889 N 0.87019 0.45743 0.50885 0.0
H1890 H 0.73544 0.87998 0.80879 0.0
H1891 H 0.66412 0.94017 0.7392 0.0
H1892 H 0.72966 0.86954 0.74549 0.0
H1893 H 0.67676 0.95652 0.80043 0.0
H1894 H 0.6869 0.91323 0.74166 0.0
H1895 H 0.71277 0.90713 0.80645 0.0
C1896 C 0.72934 0.88338 0.79441 0.0
C1897 C 0.73441 0.87249 0.7773 0.0
C1898 C 0.68471 0.92272 0.75455 0.0
C1899 C 0.70854 0.90355 0.7745 0.0
C1900 C 0.67166 0.93809 0.75318 0.0
C1901 C 0.66853 0.95063 0.76965 0.0
C1902 C 0.69464 0.91979 0.77254 0.0
C1903 C 0.67874 0.94723 0.78736 0.0
C1904 C 0.7165 0.89893 0.79306 0.0
C1905 C 0.7263 0.87769 0.75901 0.0
N1906 N 0.69132 0.9321 0.78835 0.0
N1907 N 0.7137 0.8928 0.7581 0.0
H1908 H 0.60064 0.5519 0.98164 0.0
H1909 H 0.7181 0.56783 0.99429 0.0
H1910 H 0.64091 0.50411 0.98457 0.0
H1911 H 0.67706 0.61492 4e-05 0.0
H1912 H 0.69014 0.54442 0.98903 0.0
H1913 H 0.62863 0.57542 0.98655 0.0
C1914 C 0.61539 0.54637 0.98322 0.0
C1915 C 0.61846 0.52602 0.98271 0.0
C1916 C 0.68725 0.55987 0.99147 0.0
C1917 C 0.65054 0.55282 0.98844 0.0
C1918 C 0.70321 0.57326 0.99444 0.0
C1919 C 0.69991 0.59337 -0.00237 0.0
C1920 C 0.66783 0.56664 0.99157 0.0
C1921 C 0.68029 0.59955 -0.00232 0.0
C1922 C 0.63135 0.55979 0.98614 0.0
C1923 C 0.63786 0.51966 0.9851 0.0
N1924 N 0.66499 0.58624 0.99466 0.0
N1925 N 0.65316 0.53302 0.98781 0.0
H1926 H 0.24101 0.60401 0.22233 0.0
H1927 H 0.13105 0.55671 0.21221 0.0
H1928 H 0.19117 0.63581 0.20116 0.0
H1929 H 0.17749 0.5298 0.24514 0.0
H1930 H 0.15373 0.58465 0.20543 0.0
H1931 H 0.2187 0.57558 0.22844 0.0
C1932 C 0.22538 0.60508 0.21903 0.0
C1933 C 0.21798 0.6224 0.21123 0.0
C1934 C 0.15896 0.57264 0.21415 0.0
C1935 C 0.19243 0.58975 0.21793 0.0
C1936 C 0.14603 0.55665 0.21799 0.0
C1937 C 0.15237 0.54091 0.2293 0.0
C1938 C 0.17843 0.57285 0.22154 0.0
C1939 C 0.17196 0.54165 0.23641 0.0
C1940 C 0.21267 0.58879 0.22245 0.0
C1941 C 0.19763 0.62271 0.2069 0.0
N1942 N 0.1843 0.55735 0.23239 0.0
N1943 N 0.18559 0.60665 0.2103 0.0
H1944 H 0.90144 0.53636 0.98678 0.0
H1945 H 0.80594 0.58905 0.03011 0.0
H1946 H 0.8827 0.53356 0.04811 0.0
H1947 H 0.82095 0.58747 0.96767 0.0
H1948 H 0.83495 0.56997 0.03709 0.0
H1949 H 0.87283 0.55611 0.97954 0.0
C1950 C 0.89128 0.53982 -0.00129 0.0
C1951 C 0.89451 0.53328 0.0181 0.0
C1952 C 0.83192 0.57378 0.02185 0.0
C1953 C 0.86185 0.55606 0.00995 0.0
C1954 C 0.81535 0.58471 0.01785 0.0
C1955 C 0.81097 0.58984 -0.00175 0.0
C1956 C 0.84428 0.56794 0.00617 0.0
C1957 C 0.82373 0.58381 0.98299 0.0
C1958 C 0.875 0.55118 0.99459 0.0
C1959 C 0.881 0.5385 0.03302 0.0
N1960 N 0.83981 0.57317 0.98727 0.0
N1961 N 0.86528 0.54956 0.02862 0.0
H1962 H 0.12489 0.98721 0.05284 0.0
H1963 H 0.21228 0.9494 0.98389 0.0
H1964 H 0.12757 0.99712 0.98957 0.0
H1965 H 0.1964 0.92202 0.03938 0.0
H1966 H 0.18391 0.97056 0.98747 0.0
H1967 H 0.15353 0.96639 0.04973 0.0
C1968 C 0.13136 0.98495 0.03827 0.0
C1969 C 0.12367 0.99397 0.02142 0.0
C1970 C 0.18665 0.95991 -0.00115 0.0
C1971 C 0.15681 0.97051 0.01794 0.0
C1972 C 0.20288 0.9479 0.99688 0.0
C1973 C 0.20668 0.9339 0.01135 0.0
C1974 C 0.17427 0.95812 0.01555 0.0
C1975 C 0.19396 0.93256 0.02783 0.0
C1976 C 0.14779 0.97314 0.03656 0.0
C1977 C 0.1331 0.99081 0.00304 0.0
N1978 N 0.17834 0.94458 0.02953 0.0
N1979 N 0.14918 0.9794 0.00181 0.0
loop_
_geom_bond_atom_site_label_1
_geom_bond_atom_site_label_2
_geom_bond_distance
_geom_bond_site_symmetry_2
_ccdc_geom_bond_type
C0 C1 1.391 . S
C0 C4 1.391 1_556 S
C0 H42 0.948 . S
C1 C0 1.391 . S
C1 C2 1.391 1_556 S
C2 C1 1.391 1_554 S
C2 H58 0.947 1_455 S
C2 C59 1.392 . S
C3 C4 1.391 . S
C3 C7 1.397 . S
C3 C59 1.419 . S
C4 C0 1.391 1_554 S
C4 C3 1.391 . S
C4 C5 1.399 . S
C5 C4 1.399 . S
C5 C8 1.396 . S
C5 C17 1.453 . S
C5 C18 1.684 1_554 S
H6 C30 0.948 . S
C7 C3 1.397 . S
C7 C8 1.394 . S
C7 C26 1.723 . S
C8 C5 1.396 . S
C8 C7 1.394 . S
C8 C38 1.723 . S
H9 C32 0.947 . S
H10 C33 0.948 . S
H11 C39 0.982 . S
H12 C40 0.979 . S
H13 C40 0.980 . S
H14 C40 0.983 . S
H15 C39 0.954 1_565 S
H16 C39 0.977 . S
C17 C5 1.453 . S
C17 H46 0.982 . S
C17 H47 0.979 1_554 S
C17 H48 0.977 . S
C18 C5 1.684 1_556 S
C18 H43 0.979 . S
C18 H44 0.980 . S
C18 H45 0.983 . S
C19 C20 1.391 . S
C19 C24 1.391 . S
C19 H49 0.948 . S
C20 C19 1.391 . S
C20 C21 1.356 1_655 S
C21 C20 1.356 1_455 S
C21 C22 1.422 . S
C21 H50 0.953 . S
C22 C21 1.422 . S
C22 C23 1.419 . S
C22 H51 0.948 . S
C23 C22 1.419 . S
C23 C24 1.391 1_455 S
C23 C27 1.397 . S
C24 C19 1.391 . S
C24 C23 1.391 1_655 S
C24 C25 1.399 . S
C25 C24 1.399 . S
C25 C26 1.401 1_655 S
C25 C28 1.453 1_655 S
C25 C29 1.679 . S
C26 C7 1.723 . S
C26 C25 1.401 1_455 S
C26 C27 1.394 . S
C27 C23 1.397 . S
C27 C26 1.394 . S
C27 C37 1.723 . S
C28 C25 1.453 1_455 S
C28 H52 0.982 . S
C28 H53 0.979 1_455 S
C28 H54 0.977 . S
C29 C25 1.679 . S
C29 H55 0.979 . S
C29 H56 0.980 . S
C29 H57 0.983 . S
C30 H6 0.948 . S
C30 C31 1.391 . S
C30 C35 1.391 1_565 S
C31 C30 1.391 . S
C31 C32 1.391 1_565 S
C32 H9 0.947 . S
C32 C31 1.391 1_545 S
C32 C33 1.392 . S
C33 H10 0.948 . S
C33 C32 1.392 . S
C33 C34 1.419 . S
C34 C33 1.419 . S
C34 C35 1.391 . S
C34 C38 1.397 . S
C35 C30 1.391 1_545 S
C35 C34 1.391 . S
C35 C36 1.399 . S
C36 C35 1.399 . S
C36 C37 1.396 . S
C36 C39 1.453 . S
C36 C40 1.684 1_545 S
C37 C27 1.723 . S
C37 C36 1.396 . S
C37 C38 1.394 . S
C38 C8 1.723 . S
C38 C34 1.397 . S
C38 C37 1.394 . S
C39 H11 0.982 . S
C39 H15 0.954 1_545 S
C39 H16 0.977 . S
C39 C36 1.453 . S
C40 H12 0.979 . S
C40 H13 0.980 . S
C40 H14 0.983 . S
C40 C36 1.684 1_565 S
H41 C59 0.926 1_655 S
H42 C0 0.948 . S
H43 C18 0.979 . S
H44 C18 0.980 . S
H45 C18 0.983 . S
H46 C17 0.982 . S
H47 C17 0.979 1_556 S
H48 C17 0.977 . S
H49 C19 0.948 . S
H50 C21 0.953 . S
H51 C22 0.948 . S
H52 C28 0.982 . S
H53 C28 0.979 1_655 S
H54 C28 0.977 . S
H55 C29 0.979 . S
H56 C29 0.980 . S
H57 C29 0.983 . S
H58 C2 0.947 1_655 S
C59 C2 1.392 . S
C59 C3 1.419 . S
C59 H41 0.926 1_455 S
C60 C61 1.391 . S
C60 C64 1.391 . S
C60 H102 0.948 . S
C61 C60 1.391 . S
C61 C62 1.391 . S
C62 C61 1.391 . S
C62 H118 0.947 . S
C62 C119 1.392 . S
C63 C64 1.391 . S
C63 C67 1.397 . S
C63 C119 1.419 . S
C64 C60 1.391 . S
C64 C63 1.391 . S
C64 C65 1.399 . S
C65 C64 1.399 . S
C65 C68 1.396 . S
C65 C77 1.453 . S
C65 C78 1.684 . S
H66 C90 0.948 . S
C67 C63 1.397 . S
C67 C68 1.394 . S
C67 C86 1.723 . S
C68 C65 1.396 . S
C68 C67 1.394 . S
C68 C98 1.723 . S
H69 C92 0.947 . S
H70 C93 0.948 . S
H71 C99 0.982 . S
H72 C100 0.979 . S
H73 C100 0.980 . S
H74 C100 0.983 . S
H75 C99 0.979 . S
H76 C99 0.977 . S
C77 C65 1.453 . S
C77 H106 0.982 . S
C77 H107 0.979 . S
C77 H108 0.977 . S
C78 C65 1.684 . S
C78 H103 0.979 . S
C78 H104 0.980 . S
C78 H105 0.983 . S
C79 C80 1.391 . S
C79 C84 1.391 . S
C79 H109 0.948 . S
C80 C79 1.391 . S
C80 C81 1.391 . S
C81 C80 1.391 . S
C81 C82 1.392 . S
C81 H110 0.947 . S
C82 C81 1.392 . S
C82 C83 1.419 . S
C82 H111 0.948 . S
C83 C82 1.419 . S
C83 C84 1.391 . S
C83 C87 1.397 . S
C84 C79 1.391 . S
C84 C83 1.391 . S
C84 C85 1.399 . S
C85 C84 1.399 . S
C85 C86 1.396 . S
C85 C88 1.453 . S
C85 C89 1.684 . S
C86 C67 1.723 . S
C86 C85 1.396 . S
C86 C87 1.394 . S
C87 C83 1.397 . S
C87 C86 1.394 . S
C87 C97 1.723 . S
C88 C85 1.453 . S
C88 H112 0.982 . S
C88 H113 0.979 . S
C88 H114 0.977 . S
C89 C85 1.684 . S
C89 H115 0.979 . S
C89 H116 0.980 . S
C89 H117 0.983 . S
C90 H66 0.948 . S
C90 C91 1.391 . S
C90 C95 1.391 . S
C91 C90 1.391 . S
C91 C92 1.391 . S
C92 H69 0.947 . S
C92 C91 1.391 . S
C92 C93 1.392 . S
C93 H70 0.948 . S
C93 C92 1.392 . S
C93 C94 1.419 . S
C94 C93 1.419 . S
C94 C95 1.391 . S
C94 C98 1.397 . S
C95 C90 1.391 . S
C95 C94 1.391 . S
C95 C96 1.399 . S
C96 C95 1.399 . S
C96 C97 1.396 . S
C96 C99 1.453 . S
C96 C100 1.684 . S
C97 C87 1.723 . S
C97 C96 1.396 . S
C97 C98 1.394 . S
C98 C68 1.723 . S
C98 C94 1.397 . S
C98 C97 1.394 . S
C99 H71 0.982 . S
C99 H75 0.979 . S
C99 H76 0.977 . S
C99 C96 1.453 . S
C100 H72 0.979 . S
C100 H73 0.980 . S
C100 H74 0.983 . S
C100 C96 1.684 . S
H101 C119 0.948 . S
H102 C60 0.948 . S
H103 C78 0.979 . S
H104 C78 0.980 . S
H105 C78 0.983 . S
H106 C77 0.982 . S
H107 C77 0.979 . S
H108 C77 0.977 . S
H109 C79 0.948 . S
H110 C81 0.947 . S
H111 C82 0.948 . S
H112 C88 0.982 . S
H113 C88 0.979 . S
H114 C88 0.977 . S
H115 C89 0.979 . S
H116 C89 0.980 . S
H117 C89 0.983 . S
H118 C62 0.947 . S
C119 C62 1.392 . S
C119 C63 1.419 . S
C119 H101 0.948 . S
C120 C121 1.391 . S
C120 C124 1.391 1_556 S
C120 H162 0.951 . S
C121 C120 1.391 . S
C121 C122 1.391 . S
C122 C121 1.391 . S
C122 H178 0.947 . S
C122 C179 1.392 . S
C123 C124 1.391 . S
C123 C127 1.397 . S
C123 C179 1.419 1_554 S
C124 C120 1.391 1_554 S
C124 C123 1.391 . S
C124 C125 1.399 . S
C125 C124 1.399 . S
C125 C128 1.396 . S
C125 C137 1.453 . S
C125 C138 1.684 1_655 S
H126 C150 0.948 . S
C127 C123 1.397 . S
C127 C128 1.394 . S
C127 C146 1.723 . S
C128 C125 1.396 . S
C128 C127 1.394 . S
C128 C158 1.723 . S
H129 C152 0.947 . S
H130 C153 0.948 . S
H131 C159 0.982 . S
H132 C160 0.979 . S
H133 C160 0.980 . S
H134 C160 0.983 . S
H135 C159 0.979 . S
H136 C159 0.977 . S
C137 C125 1.453 . S
C137 H166 0.982 . S
C137 H167 0.979 1_655 S
C137 H168 0.954 1_655 S
C138 C125 1.684 1_455 S
C138 H163 0.979 . S
C138 H164 0.980 . S
C138 H165 0.983 . S
C139 C140 1.391 . S
C139 C144 1.391 . S
C139 H169 0.981 . S
C140 C139 1.391 . S
C140 C141 1.391 . S
C141 C140 1.391 . S
C141 C142 1.392 . S
C141 H170 0.947 . S
C142 C141 1.392 . S
C142 C143 1.419 . S
C142 H171 0.948 . S
C143 C142 1.419 . S
C143 C144 1.391 . S
C143 C147 1.397 . S
C144 C139 1.391 . S
C144 C143 1.391 . S
C144 C145 1.399 . S
C145 C144 1.399 . S
C145 C146 1.396 . S
C145 C148 1.453 . S
C145 C149 1.684 1_554 S
C146 C127 1.723 . S
C146 C145 1.396 . S
C146 C147 1.394 . S
C147 C143 1.397 . S
C147 C146 1.394 . S
C147 C157 1.723 . S
C148 C145 1.453 . S
C148 H172 0.982 . S
C148 H173 0.979 1_554 S
C148 H174 0.977 1_554 S
C149 C145 1.684 1_556 S
C149 H175 0.979 . S
C149 H176 0.980 . S
C149 H177 0.983 . S
C150 H126 0.948 . S
C150 C151 1.391 . S
C150 C155 1.391 1_455 S
C151 C150 1.391 . S
C151 C152 1.391 . S
C152 H129 0.947 . S
C152 C151 1.391 . S
C152 C153 1.392 . S
C153 H130 0.948 . S
C153 C152 1.392 . S
C153 C154 1.419 1_455 S
C154 C153 1.419 1_655 S
C154 C155 1.391 . S
C154 C158 1.397 . S
C155 C150 1.391 1_655 S
C155 C154 1.391 . S
C155 C156 1.399 . S
C156 C155 1.399 . S
C156 C157 1.396 . S
C156 C159 1.453 . S
C156 C160 1.684 . S
C157 C147 1.723 . S
C157 C156 1.396 . S
C157 C158 1.394 . S
C158 C128 1.723 . S
C158 C154 1.397 . S
C158 C157 1.394 . S
C159 H131 0.982 . S
C159 H135 0.979 . S
C159 H136 0.977 . S
C159 C156 1.453 . S
C160 H132 0.979 . S
C160 H133 0.980 . S
C160 H134 0.983 . S
C160 C156 1.684 . S
H161 C179 0.948 . S
H162 C120 0.951 . S
H163 C138 0.979 . S
H164 C138 0.980 . S
H165 C138 0.983 . S
H166 C137 0.982 . S
H167 C137 0.979 1_455 S
H168 C137 0.954 1_455 S
H169 C139 0.981 . S
H170 C141 0.947 . S
H171 C142 0.948 . S
H172 C148 0.982 . S
H173 C148 0.979 1_556 S
H174 C148 0.977 1_556 S
H175 C149 0.979 . S
H176 C149 0.980 . S
H177 C149 0.983 . S
H178 C122 0.947 . S
C179 C122 1.392 . S
C179 C123 1.419 1_556 S
C179 H161 0.948 . S
C180 C181 1.391 . S
C180 C184 1.391 . S
C180 H222 0.948 . S
C181 C180 1.391 . S
C181 C182 1.391 . S
C182 C181 1.391 . S
C182 H238 0.947 . S
C182 C239 1.392 . S
C183 C184 1.391 . S
C183 C187 1.397 . S
C183 C239 1.419 . S
C184 C180 1.391 . S
C184 C183 1.391 . S
C184 C185 1.399 . S
C185 C184 1.399 . S
C185 C188 1.396 . S
C185 C197 1.453 . S
C185 C198 1.684 . S
H186 C210 0.948 . S
C187 C183 1.397 . S
C187 C188 1.394 . S
C187 C206 1.723 . S
C188 C185 1.396 . S
C188 C187 1.394 . S
C188 C218 1.723 . S
H189 C212 0.947 . S
H190 C213 0.948 . S
H191 C219 0.982 . S
H192 C220 0.979 . S
H193 C220 0.980 . S
H194 C220 0.983 . S
H195 C219 0.979 . S
H196 C219 0.977 . S
C197 C185 1.453 . S
C197 H226 0.982 . S
C197 H227 0.979 . S
C197 H228 0.977 . S
C198 C185 1.684 . S
C198 H223 0.979 . S
C198 H224 0.980 . S
C198 H225 0.983 . S
C199 C200 1.391 . S
C199 C204 1.391 . S
C199 H229 0.948 . S
C200 C199 1.391 . S
C200 C201 1.391 . S
C201 C200 1.391 . S
C201 C202 1.392 . S
C201 H230 0.947 . S
C202 C201 1.392 . S
C202 C203 1.419 . S
C202 H231 0.948 . S
C203 C202 1.419 . S
C203 C204 1.391 . S
C203 C207 1.397 . S
C204 C199 1.391 . S
C204 C203 1.391 . S
C204 C205 1.399 . S
C205 C204 1.399 . S
C205 C206 1.396 . S
C205 C208 1.453 . S
C205 C209 1.684 . S
C206 C187 1.723 . S
C206 C205 1.396 . S
C206 C207 1.394 . S
C207 C203 1.397 . S
C207 C206 1.394 . S
C207 C217 1.723 . S
C208 C205 1.453 . S
C208 H232 0.982 . S
C208 H233 0.979 . S
C208 H234 0.977 . S
C209 C205 1.684 . S
C209 H235 0.979 . S
C209 H236 0.980 . S
C209 H237 0.983 . S
C210 H186 0.948 . S
C210 C211 1.391 . S
C210 C215 1.391 . S
C211 C210 1.391 . S
C211 C212 1.391 . S
C212 H189 0.947 . S
C212 C211 1.391 . S
C212 C213 1.392 . S
C213 H190 0.948 . S
C213 C212 1.392 . S
C213 C214 1.419 . S
C214 C213 1.419 . S
C214 C215 1.391 . S
C214 C218 1.397 . S
C215 C210 1.391 . S
C215 C214 1.391 . S
C215 C216 1.399 . S
C216 C215 1.399 . S
C216 C217 1.396 . S
C216 C219 1.453 . S
C216 C220 1.684 . S
C217 C207 1.723 . S
C217 C216 1.396 . S
C217 C218 1.394 . S
C218 C188 1.723 . S
C218 C214 1.397 . S
C218 C217 1.394 . S
C219 H191 0.982 . S
C219 H195 0.979 . S
C219 H196 0.977 . S
C219 C216 1.453 . S
C220 H192 0.979 . S
C220 H193 0.980 . S
C220 H194 0.983 . S
C220 C216 1.684 . S
H221 C239 0.948 . S
H222 C180 0.948 . S
H223 C198 0.979 . S
H224 C198 0.980 . S
H225 C198 0.983 . S
H226 C197 0.982 . S
H227 C197 0.979 . S
H228 C197 0.977 . S
H229 C199 0.948 . S
H230 C201 0.947 . S
H231 C202 0.948 . S
H232 C208 0.982 . S
H233 C208 0.979 . S
H234 C208 0.977 . S
H235 C209 0.979 . S
H236 C209 0.980 . S
H237 C209 0.983 . S
H238 C182 0.947 . S
C239 C182 1.392 . S
C239 C183 1.419 . S
C239 H221 0.948 . S
C240 C241 1.391 . S
C240 C244 1.391 . S
C240 H282 0.948 . S
C241 C240 1.391 . S
C241 C242 1.391 . S
C242 C241 1.391 . S
C242 H298 0.902 1_455 S
C242 C299 1.392 . S
C243 C244 1.391 . S
C243 C247 1.397 . S
C243 C299 1.419 . S
C244 C240 1.391 . S
C244 C243 1.391 . S
C244 C245 1.399 . S
C245 C244 1.399 . S
C245 C248 1.396 . S
C245 C257 1.453 . S
C245 C258 1.684 . S
H246 C270 0.948 . S
C247 C243 1.397 . S
C247 C248 1.394 . S
C247 C266 1.723 . S
C248 C245 1.396 . S
C248 C247 1.394 . S
C248 C278 1.723 . S
H249 C272 0.947 . S
H250 C273 0.948 . S
H251 C279 0.982 . S
H252 C280 1.006 . S
H253 C280 0.980 . S
H254 C280 0.983 . S
H255 C279 0.979 . S
H256 C279 0.977 . S
C257 C245 1.453 . S
C257 H286 0.982 . S
C257 H287 0.979 . S
C257 H288 0.977 . S
C258 C245 1.684 . S
C258 H283 0.979 . S
C258 H284 0.980 . S
C258 H285 0.983 . S
C259 C260 1.391 . S
C259 C264 1.391 1_655 S
C259 H289 0.948 . S
C260 C259 1.391 . S
C260 C261 1.366 1_665 S
C261 C260 1.366 1_445 S
C261 C262 1.386 1_545 S
C261 H290 0.979 . S
C262 C261 1.386 1_565 S
C262 C263 1.419 . S
C262 H291 0.948 1_565 S
C263 C262 1.419 . S
C263 C264 1.391 . S
C263 C267 1.397 . S
C264 C259 1.391 1_455 S
C264 C263 1.391 . S
C264 C265 1.399 . S
C265 C264 1.399 . S
C265 C266 1.396 . S
C265 C268 1.453 1_455 S
C265 C269 1.684 1_455 S
C266 C247 1.723 . S
C266 C265 1.396 . S
C266 C267 1.394 . S
C267 C263 1.397 . S
C267 C266 1.394 . S
C267 C277 1.723 . S
C268 C265 1.453 1_655 S
C268 H292 0.982 . S
C268 H293 0.979 . S
C268 H294 0.977 . S
C269 C265 1.684 1_655 S
C269 H295 0.979 1_655 S
C269 H296 0.985 . S
C269 H297 0.983 . S
C270 H246 0.948 . S
C270 C271 1.391 . S
C270 C275 1.391 . S
C271 C270 1.391 . S
C271 C272 1.391 . S
C272 H249 0.947 . S
C272 C271 1.391 . S
C272 C273 1.392 1_545 S
C273 H250 0.948 . S
C273 C272 1.392 1_565 S
C273 C274 1.419 . S
C274 C273 1.419 . S
C274 C275 1.391 1_565 S
C274 C278 1.397 . S
C275 C270 1.391 . S
C275 C274 1.391 1_545 S
C275 C276 1.399 . S
C276 C275 1.399 . S
C276 C277 1.396 1_545 S
C276 C279 1.453 . S
C276 C280 1.684 . S
C277 C267 1.723 . S
C277 C276 1.396 1_565 S
C277 C278 1.394 . S
C278 C248 1.723 . S
C278 C274 1.397 . S
C278 C277 1.394 . S
C279 H251 0.982 . S
C279 H255 0.979 . S
C279 H256 0.977 . S
C279 C276 1.453 . S
C280 H252 1.006 . S
C280 H253 0.980 . S
C280 H254 0.983 . S
C280 C276 1.684 . S
H281 C299 0.948 . S
H282 C240 0.948 . S
H283 C258 0.979 . S
H284 C258 0.980 . S
H285 C258 0.983 . S
H286 C257 0.982 . S
H287 C257 0.979 . S
H288 C257 0.977 . S
H289 C259 0.948 . S
H290 C261 0.979 . S
H291 C262 0.948 1_545 S
H292 C268 0.982 . S
H293 C268 0.979 . S
H294 C268 0.977 . S
H295 C269 0.979 1_455 S
H296 C269 0.985 . S
H297 C269 0.983 . S
H298 C242 0.902 1_655 S
C299 C242 1.392 . S
C299 C243 1.419 . S
C299 H281 0.948 . S
C300 C301 1.391 . S
C300 C304 1.391 . S
C300 H342 0.948 . S
C301 C300 1.391 . S
C301 C302 1.391 . S
C302 C301 1.391 . S
C302 H358 0.947 . S
C302 C359 1.392 . S
C303 C304 1.391 . S
C303 C307 1.397 . S
C303 C359 1.419 . S
C304 C300 1.391 . S
C304 C303 1.391 . S
C304 C305 1.399 . S
C305 C304 1.399 . S
C305 C308 1.396 . S
C305 C317 1.453 . S
C305 C318 1.684 . S
H306 C330 0.948 . S
C307 C303 1.397 . S
C307 C308 1.394 . S
C307 C326 1.723 . S
C308 C305 1.396 . S
C308 C307 1.394 . S
C308 C338 1.723 . S
H309 C332 0.947 . S
H310 C333 0.948 . S
H311 C339 0.982 . S
H312 C340 0.979 . S
H313 C340 0.980 . S
H314 C340 0.983 . S
H315 C339 0.979 . S
H316 C339 0.977 . S
C317 C305 1.453 . S
C317 H346 0.982 . S
C317 H347 0.979 . S
C317 H348 0.977 . S
C318 C305 1.684 . S
C318 H343 0.979 . S
C318 H344 0.980 . S
C318 H345 0.983 . S
C319 C320 1.391 . S
C319 C324 1.391 . S
C319 H349 0.948 . S
C320 C319 1.391 . S
C320 C321 1.391 . S
C321 C320 1.391 . S
C321 C322 1.392 . S
C321 H350 0.947 . S
C322 C321 1.392 . S
C322 C323 1.419 . S
C322 H351 0.948 . S
C323 C322 1.419 . S
C323 C324 1.391 . S
C323 C327 1.397 . S
C324 C319 1.391 . S
C324 C323 1.391 . S
C324 C325 1.399 . S
C325 C324 1.399 . S
C325 C326 1.396 . S
C325 C328 1.453 . S
C325 C329 1.684 . S
C326 C307 1.723 . S
C326 C325 1.396 . S
C326 C327 1.394 . S
C327 C323 1.397 . S
C327 C326 1.394 . S
C327 C337 1.723 . S
C328 C325 1.453 . S
C328 H352 0.982 . S
C328 H353 0.979 . S
C328 H354 0.977 . S
C329 C325 1.684 . S
C329 H355 0.979 . S
C329 H356 0.980 . S
C329 H357 0.983 . S
C330 H306 0.948 . S
C330 C331 1.391 . S
C330 C335 1.391 . S
C331 C330 1.391 . S
C331 C332 1.391 . S
C332 H309 0.947 . S
C332 C331 1.391 . S
C332 C333 1.392 . S
C333 H310 0.948 . S
C333 C332 1.392 . S
C333 C334 1.419 . S
C334 C333 1.419 . S
C334 C335 1.391 . S
C334 C338 1.397 . S
C335 C330 1.391 . S
C335 C334 1.391 . S
C335 C336 1.399 . S
C336 C335 1.399 . S
C336 C337 1.396 . S
C336 C339 1.453 . S
C336 C340 1.684 . S
C337 C327 1.723 . S
C337 C336 1.396 . S
C337 C338 1.394 . S
C338 C308 1.723 . S
C338 C334 1.397 . S
C338 C337 1.394 . S
C339 H311 0.982 . S
C339 H315 0.979 . S
C339 H316 0.977 . S
C339 C336 1.453 . S
C340 H312 0.979 . S
C340 H313 0.980 . S
C340 H314 0.983 . S
C340 C336 1.684 . S
H341 C359 0.948 . S
H342 C300 0.948 . S
H343 C318 0.979 . S
H344 C318 0.980 . S
H345 C318 0.983 . S
H346 C317 0.982 . S
H347 C317 0.979 . S
H348 C317 0.977 . S
H349 C319 0.948 . S
H350 C321 0.947 . S
H351 C322 0.948 . S
H352 C328 0.982 . S
H353 C328 0.979 . S
H354 C328 0.977 . S
H355 C329 0.979 . S
H356 C329 0.980 . S
H357 C329 0.983 . S
H358 C302 0.947 . S
C359 C302 1.392 . S
C359 C303 1.419 . S
C359 H341 0.948 . S
C360 C361 1.391 . S
C360 C364 1.391 . S
C360 H402 0.948 . S
C361 C360 1.391 . S
C361 C362 1.391 . S
C362 C361 1.391 . S
C362 H418 0.947 . S
C362 C419 1.392 . S
C363 C364 1.391 . S
C363 C367 1.397 . S
C363 C419 1.419 . S
C364 C360 1.391 . S
C364 C363 1.391 . S
C364 C365 1.399 . S
C365 C364 1.399 . S
C365 C368 1.396 . S
C365 C377 1.453 . S
C365 C378 1.684 . S
H366 C390 0.949 . S
C367 C363 1.397 . S
C367 C368 1.394 . S
C367 C386 1.723 . S
C368 C365 1.396 . S
C368 C367 1.394 . S
C368 C398 1.723 . S
H369 C392 0.947 . S
H370 C393 0.948 . S
H371 C399 0.982 . S
H372 C400 0.979 . S
H373 C400 0.980 . S
H374 C400 0.983 . S
H375 C399 0.979 1_455 S
H376 C399 0.977 1_455 S
C377 C365 1.453 . S
C377 H406 0.982 . S
C377 H407 0.979 . S
C377 H408 0.977 . S
C378 C365 1.684 . S
C378 H403 0.979 . S
C378 H404 0.980 . S
C378 H405 0.983 . S
C379 C380 1.391 . S
C379 C384 1.391 1_455 S
C379 H409 0.948 1_455 S
C380 C379 1.391 . S
C380 C381 1.391 . S
C381 C380 1.391 . S
C381 C382 1.392 . S
C381 H410 0.947 . S
C382 C381 1.392 . S
C382 C383 1.419 1_455 S
C382 H411 0.948 . S
C383 C382 1.419 1_655 S
C383 C384 1.391 . S
C383 C387 1.397 . S
C384 C379 1.391 1_655 S
C384 C383 1.391 . S
C384 C385 1.399 . S
C385 C384 1.399 . S
C385 C386 1.396 . S
C385 C388 1.453 . S
C385 C389 1.684 . S
C386 C367 1.723 . S
C386 C385 1.396 . S
C386 C387 1.394 . S
C387 C383 1.397 . S
C387 C386 1.394 . S
C387 C397 1.723 . S
C388 C385 1.453 . S
C388 H412 0.982 . S
C388 H413 0.979 . S
C388 H414 0.977 . S
C389 C385 1.684 . S
C389 H415 0.979 . S
C389 H416 0.980 . S
C389 H417 0.983 . S
C390 H366 0.949 . S
C390 C391 1.391 . S
C390 C395 1.391 . S
C391 C390 1.391 . S
C391 C392 1.391 . S
C392 H369 0.947 . S
C392 C391 1.391 . S
C392 C393 1.392 . S
C393 H370 0.948 . S
C393 C392 1.392 . S
C393 C394 1.419 . S
C394 C393 1.419 . S
C394 C395 1.391 . S
C394 C398 1.397 . S
C395 C390 1.391 . S
C395 C394 1.391 . S
C395 C396 1.399 . S
C396 C395 1.399 . S
C396 C397 1.396 . S
C396 C399 1.453 . S
C396 C400 1.684 1_655 S
C397 C387 1.723 . S
C397 C396 1.396 . S
C397 C398 1.394 . S
C398 C368 1.723 . S
C398 C394 1.397 . S
C398 C397 1.394 . S
C399 H371 0.982 . S
C399 H375 0.979 1_655 S
C399 H376 0.977 1_655 S
C399 C396 1.453 . S
C400 H372 0.979 . S
C400 H373 0.980 . S
C400 H374 0.983 . S
C400 C396 1.684 1_455 S
H401 C419 0.948 . S
H402 C360 0.948 . S
H403 C378 0.979 . S
H404 C378 0.980 . S
H405 C378 0.983 . S
H406 C377 0.982 . S
H407 C377 0.979 . S
H408 C377 0.977 . S
H409 C379 0.948 1_655 S
H410 C381 0.947 . S
H411 C382 0.948 . S
H412 C388 0.982 . S
H413 C388 0.979 . S
H414 C388 0.977 . S
H415 C389 0.979 . S
H416 C389 0.980 . S
H417 C389 0.983 . S
H418 C362 0.947 . S
C419 C362 1.392 . S
C419 C363 1.419 . S
C419 H401 0.948 . S
C420 C421 1.391 . S
C420 C424 1.391 . S
C420 H462 0.948 . S
C421 C420 1.391 . S
C421 C422 1.391 . S
C422 C421 1.391 . S
C422 H478 0.947 . S
C422 C479 1.392 . S
C423 C424 1.391 . S
C423 C427 1.397 . S
C423 C479 1.419 . S
C424 C420 1.391 . S
C424 C423 1.391 . S
C424 C425 1.399 . S
C425 C424 1.399 . S
C425 C428 1.396 . S
C425 C437 1.453 . S
C425 C438 1.684 . S
H426 C450 0.948 . S
C427 C423 1.397 . S
C427 C428 1.394 . S
C427 C446 1.723 . S
C428 C425 1.396 . S
C428 C427 1.394 . S
C428 C458 1.723 . S
H429 C452 0.947 . S
H430 C453 0.948 . S
H431 C459 0.982 . S
H432 C460 0.979 . S
H433 C460 0.980 . S
H434 C460 0.983 . S
H435 C459 0.979 . S
H436 C459 0.977 . S
C437 C425 1.453 . S
C437 H466 0.982 . S
C437 H467 0.979 . S
C437 H468 0.977 . S
C438 C425 1.684 . S
C438 H463 0.979 . S
C438 H464 0.980 . S
C438 H465 0.983 . S
C439 C440 1.391 . S
C439 C444 1.391 . S
C439 H469 0.948 . S
C440 C439 1.391 . S
C440 C441 1.391 . S
C441 C440 1.391 . S
C441 C442 1.392 . S
C441 H470 0.947 . S
C442 C441 1.392 . S
C442 C443 1.419 . S
C442 H471 0.948 . S
C443 C442 1.419 . S
C443 C444 1.391 . S
C443 C447 1.397 . S
C444 C439 1.391 . S
C444 C443 1.391 . S
C444 C445 1.399 . S
C445 C444 1.399 . S
C445 C446 1.396 . S
C445 C448 1.453 . S
C445 C449 1.684 . S
C446 C427 1.723 . S
C446 C445 1.396 . S
C446 C447 1.394 . S
C447 C443 1.397 . S
C447 C446 1.394 . S
C447 C457 1.723 . S
C448 C445 1.453 . S
C448 H472 0.982 . S
C448 H473 0.979 . S
C448 H474 0.977 . S
C449 C445 1.684 . S
C449 H475 0.979 . S
C449 H476 0.980 . S
C449 H477 0.983 . S
C450 H426 0.948 . S
C450 C451 1.391 . S
C450 C455 1.391 . S
C451 C450 1.391 . S
C451 C452 1.391 . S
C452 H429 0.947 . S
C452 C451 1.391 . S
C452 C453 1.392 . S
C453 H430 0.948 . S
C453 C452 1.392 . S
C453 C454 1.419 . S
C454 C453 1.419 . S
C454 C455 1.391 . S
C454 C458 1.397 . S
C455 C450 1.391 . S
C455 C454 1.391 . S
C455 C456 1.399 . S
C456 C455 1.399 . S
C456 C457 1.396 . S
C456 C459 1.453 . S
C456 C460 1.684 . S
C457 C447 1.723 . S
C457 C456 1.396 . S
C457 C458 1.394 . S
C458 C428 1.723 . S
C458 C454 1.397 . S
C458 C457 1.394 . S
C459 H431 0.982 . S
C459 H435 0.979 . S
C459 H436 0.977 . S
C459 C456 1.453 . S
C460 H432 0.979 . S
C460 H433 0.980 . S
C460 H434 0.983 . S
C460 C456 1.684 . S
H461 C479 0.948 . S
H462 C420 0.948 . S
H463 C438 0.979 . S
H464 C438 0.980 . S
H465 C438 0.983 . S
H466 C437 0.982 . S
H467 C437 0.979 . S
H468 C437 0.977 . S
H469 C439 0.948 . S
H470 C441 0.947 . S
H471 C442 0.948 . S
H472 C448 0.982 . S
H473 C448 0.979 . S
H474 C448 0.977 . S
H475 C449 0.979 . S
H476 C449 0.980 . S
H477 C449 0.983 . S
H478 C422 0.947 . S
C479 C422 1.392 . S
C479 C423 1.419 . S
C479 H461 0.948 . S
C480 C481 1.391 . S
C480 C484 1.391 . S
C480 H522 0.948 . S
C481 C480 1.391 . S
C481 C482 1.391 . S
C482 C481 1.391 . S
C482 H538 0.947 . S
C482 C539 1.392 . S
C483 C484 1.391 . S
C483 C487 1.397 . S
C483 C539 1.419 . S
C484 C480 1.391 . S
C484 C483 1.391 . S
C484 C485 1.399 . S
C485 C484 1.399 . S
C485 C488 1.396 . S
C485 C497 1.453 . S
C485 C498 1.684 . S
H486 C510 0.948 . S
C487 C483 1.397 . S
C487 C488 1.394 . S
C487 C506 1.723 . S
C488 C485 1.396 . S
C488 C487 1.394 . S
C488 C518 1.723 . S
H489 C512 0.947 . S
H490 C513 0.948 . S
H491 C519 0.982 . S
H492 C520 0.979 . S
H493 C520 0.980 . S
H494 C520 0.983 . S
H495 C519 0.979 . S
H496 C519 0.977 . S
C497 C485 1.453 . S
C497 H526 0.982 . S
C497 H527 0.979 . S
C497 H528 0.977 . S
C498 C485 1.684 . S
C498 H523 0.979 . S
C498 H524 0.980 . S
C498 H525 0.983 . S
C499 C500 1.391 . S
C499 C504 1.391 . S
C499 H529 0.948 . S
C500 C499 1.391 . S
C500 C501 1.391 . S
C501 C500 1.391 . S
C501 C502 1.392 . S
C501 H530 0.947 . S
C502 C501 1.392 . S
C502 C503 1.419 . S
C502 H531 0.948 . S
C503 C502 1.419 . S
C503 C504 1.391 . S
C503 C507 1.397 . S
C504 C499 1.391 . S
C504 C503 1.391 . S
C504 C505 1.399 . S
C505 C504 1.399 . S
C505 C506 1.396 . S
C505 C508 1.453 . S
C505 C509 1.684 . S
C506 C487 1.723 . S
C506 C505 1.396 . S
C506 C507 1.394 . S
C507 C503 1.397 . S
C507 C506 1.394 . S
C507 C517 1.723 . S
C508 C505 1.453 . S
C508 H532 0.982 . S
C508 H533 0.979 . S
C508 H534 0.977 . S
C509 C505 1.684 . S
C509 H535 0.979 . S
C509 H536 0.980 . S
C509 H537 0.983 . S
C510 H486 0.948 . S
C510 C511 1.391 . S
C510 C515 1.391 . S
C511 C510 1.391 . S
C511 C512 1.391 . S
C512 H489 0.947 . S
C512 C511 1.391 . S
C512 C513 1.392 . S
C513 H490 0.948 . S
C513 C512 1.392 . S
C513 C514 1.419 . S
C514 C513 1.419 . S
C514 C515 1.391 . S
C514 C518 1.397 . S
C515 C510 1.391 . S
C515 C514 1.391 . S
C515 C516 1.399 . S
C516 C515 1.399 . S
C516 C517 1.396 . S
C516 C519 1.453 . S
C516 C520 1.684 . S
C517 C507 1.723 . S
C517 C516 1.396 . S
C517 C518 1.394 . S
C518 C488 1.723 . S
C518 C514 1.397 . S
C518 C517 1.394 . S
C519 H491 0.982 . S
C519 H495 0.979 . S
C519 H496 0.977 . S
C519 C516 1.453 . S
C520 H492 0.979 . S
C520 H493 0.980 . S
C520 H494 0.983 . S
C520 C516 1.684 . S
H521 C539 0.948 . S
H522 C480 0.948 . S
H523 C498 0.979 . S
H524 C498 0.980 . S
H525 C498 0.983 . S
H526 C497 0.982 . S
H527 C497 0.979 . S
H528 C497 0.977 . S
H529 C499 0.948 . S
H530 C501 0.947 . S
H531 C502 0.948 . S
H532 C508 0.982 . S
H533 C508 0.979 . S
H534 C508 0.977 . S
H535 C509 0.979 . S
H536 C509 0.980 . S
H537 C509 0.983 . S
H538 C482 0.947 . S
C539 C482 1.392 . S
C539 C483 1.419 . S
C539 H521 0.948 . S
C540 C541 1.391 . S
C540 C544 1.391 . S
C540 H582 0.948 . S
C541 C540 1.391 . S
C541 C542 1.391 . S
C542 C541 1.391 . S
C542 H598 0.947 . S
C542 C599 1.392 . S
C543 C544 1.391 . S
C543 C547 1.397 . S
C543 C599 1.419 . S
C544 C540 1.391 . S
C544 C543 1.391 . S
C544 C545 1.399 . S
C545 C544 1.399 . S
C545 C548 1.396 . S
C545 C557 1.453 . S
C545 C558 1.684 . S
H546 C570 0.948 1_545 S
C547 C543 1.397 . S
C547 C548 1.394 . S
C547 C566 1.723 . S
C548 C545 1.396 . S
C548 C547 1.394 . S
C548 C578 1.723 . S
H549 C572 0.947 . S
H550 C573 0.948 . S
H551 C579 0.982 . S
H552 C580 0.979 . S
H553 C580 0.980 . S
H554 C580 0.983 . S
H555 C579 0.979 1_545 S
H556 C579 0.977 1_545 S
C557 C545 1.453 . S
C557 H586 0.982 . S
C557 H587 0.979 . S
C557 H588 0.977 . S
C558 C545 1.684 . S
C558 H583 0.979 . S
C558 H584 0.980 . S
C558 H585 0.983 . S
C559 C560 1.391 . S
C559 C564 1.391 1_545 S
C559 H589 0.948 . S
C560 C559 1.391 . S
C560 C561 1.391 . S
C561 C560 1.391 . S
C561 C562 1.392 . S
C561 H590 0.947 . S
C562 C561 1.392 . S
C562 C563 1.419 1_545 S
C562 H591 0.948 . S
C563 C562 1.419 1_565 S
C563 C564 1.391 . S
C563 C567 1.397 . S
C564 C559 1.391 1_565 S
C564 C563 1.391 . S
C564 C565 1.399 . S
C565 C564 1.399 . S
C565 C566 1.396 . S
C565 C568 1.453 . S
C565 C569 1.684 . S
C566 C547 1.723 . S
C566 C565 1.396 . S
C566 C567 1.394 . S
C567 C563 1.397 . S
C567 C566 1.394 . S
C567 C577 1.723 . S
C568 C565 1.453 . S
C568 H592 0.982 . S
C568 H593 0.979 . S
C568 H594 0.977 . S
C569 C565 1.684 . S
C569 H595 0.979 . S
C569 H596 0.980 . S
C569 H597 0.983 . S
C570 H546 0.948 1_565 S
C570 C571 1.391 . S
C570 C575 1.391 . S
C571 C570 1.391 . S
C571 C572 1.391 . S
C572 H549 0.947 . S
C572 C571 1.391 . S
C572 C573 1.392 . S
C573 H550 0.948 . S
C573 C572 1.392 . S
C573 C574 1.419 . S
C574 C573 1.419 . S
C574 C575 1.391 . S
C574 C578 1.397 . S
C575 C570 1.391 . S
C575 C574 1.391 . S
C575 C576 1.399 . S
C576 C575 1.399 . S
C576 C577 1.396 . S
C576 C579 1.453 . S
C576 C580 1.684 1_565 S
C577 C567 1.723 . S
C577 C576 1.396 . S
C577 C578 1.394 . S
C578 C548 1.723 . S
C578 C574 1.397 . S
C578 C577 1.394 . S
C579 H551 0.982 . S
C579 H555 0.979 1_565 S
C579 H556 0.977 1_565 S
C579 C576 1.453 . S
C580 H552 0.979 . S
C580 H553 0.980 . S
C580 H554 0.983 . S
C580 C576 1.684 1_545 S
H581 C599 0.948 . S
H582 C540 0.948 . S
H583 C558 0.979 . S
H584 C558 0.980 . S
H585 C558 0.983 . S
H586 C557 0.982 . S
H587 C557 0.979 . S
H588 C557 0.977 . S
H589 C559 0.948 . S
H590 C561 0.947 . S
H591 C562 0.948 . S
H592 C568 0.982 . S
H593 C568 0.979 . S
H594 C568 0.977 . S
H595 C569 0.979 . S
H596 C569 0.980 . S
H597 C569 0.983 . S
H598 C542 0.947 . S
C599 C542 1.392 . S
C599 C543 1.419 . S
C599 H581 0.948 . S
C600 C601 1.391 . S
C600 C604 1.391 . S
C600 H642 0.948 . S
C601 C600 1.391 . S
C601 C602 1.391 . S
C602 C601 1.391 . S
C602 H658 0.947 . S
C602 C659 1.392 . S
C603 C604 1.391 . S
C603 C607 1.397 . S
C603 C659 1.419 . S
C604 C600 1.391 . S
C604 C603 1.391 . S
C604 C605 1.399 . S
C605 C604 1.399 . S
C605 C608 1.396 . S
C605 C617 1.453 . S
C605 C618 1.684 . S
H606 C630 0.948 . S
C607 C603 1.397 . S
C607 C608 1.394 . S
C607 C626 1.723 . S
C608 C605 1.396 . S
C608 C607 1.394 . S
C608 C638 1.723 . S
H609 C632 0.947 . S
H610 C633 0.948 . S
H611 C639 0.982 . S
H612 C640 0.979 . S
H613 C640 0.980 . S
H614 C640 0.983 . S
H615 C639 0.979 . S
H616 C639 0.977 . S
C617 C605 1.453 . S
C617 H646 0.982 . S
C617 H647 0.979 . S
C617 H648 0.977 . S
C618 C605 1.684 . S
C618 H643 0.979 . S
C618 H644 0.980 . S
C618 H645 0.983 . S
C619 C620 1.391 . S
C619 C624 1.391 . S
C619 H649 0.948 . S
C620 C619 1.391 . S
C620 C621 1.391 . S
C621 C620 1.391 . S
C621 C622 1.392 . S
C621 H650 0.947 . S
C622 C621 1.392 . S
C622 C623 1.419 . S
C622 H651 0.948 . S
C623 C622 1.419 . S
C623 C624 1.391 . S
C623 C627 1.397 . S
C624 C619 1.391 . S
C624 C623 1.391 . S
C624 C625 1.399 . S
C625 C624 1.399 . S
C625 C626 1.396 . S
C625 C628 1.453 . S
C625 C629 1.684 . S
C626 C607 1.723 . S
C626 C625 1.396 . S
C626 C627 1.394 . S
C627 C623 1.397 . S
C627 C626 1.394 . S
C627 C637 1.723 . S
C628 C625 1.453 . S
C628 H652 0.982 . S
C628 H653 0.979 . S
C628 H654 0.977 . S
C629 C625 1.684 . S
C629 H655 0.979 . S
C629 H656 0.980 . S
C629 H657 0.983 . S
C630 H606 0.948 . S
C630 C631 1.391 . S
C630 C635 1.391 . S
C631 C630 1.391 . S
C631 C632 1.391 . S
C632 H609 0.947 . S
C632 C631 1.391 . S
C632 C633 1.392 . S
C633 H610 0.948 . S
C633 C632 1.392 . S
C633 C634 1.419 . S
C634 C633 1.419 . S
C634 C635 1.391 . S
C634 C638 1.397 . S
C635 C630 1.391 . S
C635 C634 1.391 . S
C635 C636 1.399 . S
C636 C635 1.399 . S
C636 C637 1.396 . S
C636 C639 1.453 . S
C636 C640 1.684 . S
C637 C627 1.723 . S
C637 C636 1.396 . S
C637 C638 1.394 . S
C638 C608 1.723 . S
C638 C634 1.397 . S
C638 C637 1.394 . S
C639 H611 0.982 . S
C639 H615 0.979 . S
C639 H616 0.977 . S
C639 C636 1.453 . S
C640 H612 0.979 . S
C640 H613 0.980 . S
C640 H614 0.983 . S
C640 C636 1.684 . S
H641 C659 0.948 . S
H642 C600 0.948 . S
H643 C618 0.979 . S
H644 C618 0.980 . S
H645 C618 0.983 . S
H646 C617 0.982 . S
H647 C617 0.979 . S
H648 C617 0.977 . S
H649 C619 0.948 . S
H650 C621 0.947 . S
H651 C622 0.948 . S
H652 C628 0.982 . S
H653 C628 0.979 . S
H654 C628 0.977 . S
H655 C629 0.979 . S
H656 C629 0.980 . S
H657 C629 0.983 . S
H658 C602 0.947 . S
C659 C602 1.392 . S
C659 C603 1.419 . S
C659 H641 0.948 . S
C660 C661 1.391 . S
C660 C664 1.391 . S
C660 H702 0.948 . S
C661 C660 1.391 . S
C661 C662 1.391 . S
C662 C661 1.391 . S
C662 H718 0.947 . S
C662 C719 1.392 . S
C663 C664 1.391 . S
C663 C667 1.397 . S
C663 C719 1.419 . S
C664 C660 1.391 . S
C664 C663 1.391 . S
C664 C665 1.399 . S
C665 C664 1.399 . S
C665 C668 1.396 . S
C665 C677 1.453 . S
C665 C678 1.684 . S
H666 C690 0.948 . S
C667 C663 1.397 . S
C667 C668 1.394 . S
C667 C686 1.723 . S
C668 C665 1.396 . S
C668 C667 1.394 . S
C668 C698 1.723 . S
H669 C692 0.947 . S
H670 C693 0.948 . S
H671 C699 0.982 . S
H672 C700 0.979 . S
H673 C700 0.980 . S
H674 C700 0.983 . S
H675 C699 0.979 . S
H676 C699 0.977 . S
C677 C665 1.453 . S
C677 H706 0.982 . S
C677 H707 0.979 . S
C677 H708 0.977 . S
C678 C665 1.684 . S
C678 H703 0.979 . S
C678 H704 0.980 . S
C678 H705 0.983 . S
C679 C680 1.391 . S
C679 C684 1.391 . S
C679 H709 0.948 . S
C680 C679 1.391 . S
C680 C681 1.391 . S
C681 C680 1.391 . S
C681 C682 1.392 . S
C681 H710 0.947 . S
C682 C681 1.392 . S
C682 C683 1.419 . S
C682 H711 0.948 . S
C683 C682 1.419 . S
C683 C684 1.391 . S
C683 C687 1.397 . S
C684 C679 1.391 . S
C684 C683 1.391 . S
C684 C685 1.399 . S
C685 C684 1.399 . S
C685 C686 1.396 . S
C685 C688 1.453 . S
C685 C689 1.684 . S
C686 C667 1.723 . S
C686 C685 1.396 . S
C686 C687 1.394 . S
C687 C683 1.397 . S
C687 C686 1.394 . S
C687 C697 1.723 . S
C688 C685 1.453 . S
C688 H712 0.982 . S
C688 H713 0.979 . S
C688 H714 0.977 . S
C689 C685 1.684 . S
C689 H715 0.979 . S
C689 H716 0.980 . S
C689 H717 0.983 . S
C690 H666 0.948 . S
C690 C691 1.391 . S
C690 C695 1.391 . S
C691 C690 1.391 . S
C691 C692 1.391 . S
C692 H669 0.947 . S
C692 C691 1.391 . S
C692 C693 1.392 . S
C693 H670 0.948 . S
C693 C692 1.392 . S
C693 C694 1.419 . S
C694 C693 1.419 . S
C694 C695 1.391 . S
C694 C698 1.397 . S
C695 C690 1.391 . S
C695 C694 1.391 . S
C695 C696 1.399 . S
C696 C695 1.399 . S
C696 C697 1.396 . S
C696 C699 1.453 . S
C696 C700 1.684 . S
C697 C687 1.723 . S
C697 C696 1.396 . S
C697 C698 1.394 . S
C698 C668 1.723 . S
C698 C694 1.397 . S
C698 C697 1.394 . S
C699 H671 0.982 . S
C699 H675 0.979 . S
C699 H676 0.977 . S
C699 C696 1.453 . S
C700 H672 0.979 . S
C700 H673 0.980 . S
C700 H674 0.983 . S
C700 C696 1.684 . S
H701 C719 0.948 . S
H702 C660 0.948 . S
H703 C678 0.979 . S
H704 C678 0.980 . S
H705 C678 0.983 . S
H706 C677 0.982 . S
H707 C677 0.979 . S
H708 C677 0.977 . S
H709 C679 0.948 . S
H710 C681 0.947 . S
H711 C682 0.948 . S
H712 C688 0.982 . S
H713 C688 0.979 . S
H714 C688 0.977 . S
H715 C689 0.979 . S
H716 C689 0.980 . S
H717 C689 0.983 . S
H718 C662 0.947 . S
C719 C662 1.392 . S
C719 C663 1.419 . S
C719 H701 0.948 . S
C720 C721 1.391 . S
C720 C724 1.391 . S
C720 H762 0.948 . S
C721 C720 1.391 . S
C721 C722 1.391 . S
C722 C721 1.391 . S
C722 H778 0.947 . S
C722 C779 1.392 . S
C723 C724 1.391 . S
C723 C727 1.397 . S
C723 C779 1.419 . S
C724 C720 1.391 . S
C724 C723 1.391 . S
C724 C725 1.399 . S
C725 C724 1.399 . S
C725 C728 1.396 . S
C725 C737 1.453 . S
C725 C738 1.684 . S
H726 C750 0.948 . S
C727 C723 1.397 . S
C727 C728 1.394 . S
C727 C746 1.723 . S
C728 C725 1.396 . S
C728 C727 1.394 . S
C728 C758 1.723 . S
H729 C752 0.947 . S
H730 C753 0.948 . S
H731 C759 0.982 . S
H732 C760 0.979 . S
H733 C760 0.980 . S
H734 C760 0.983 . S
H735 C759 0.979 . S
H736 C759 0.977 . S
C737 C725 1.453 . S
C737 H766 0.982 . S
C737 H767 0.979 . S
C737 H768 0.977 . S
C738 C725 1.684 . S
C738 H763 0.979 . S
C738 H764 0.980 . S
C738 H765 0.983 . S
C739 C740 1.391 . S
C739 C744 1.391 . S
C739 H769 0.948 . S
C740 C739 1.391 . S
C740 C741 1.391 . S
C741 C740 1.391 . S
C741 C742 1.392 . S
C741 H770 0.947 . S
C742 C741 1.392 . S
C742 C743 1.419 . S
C742 H771 0.948 . S
C743 C742 1.419 . S
C743 C744 1.391 . S
C743 C747 1.397 . S
C744 C739 1.391 . S
C744 C743 1.391 . S
C744 C745 1.399 . S
C745 C744 1.399 . S
C745 C746 1.396 . S
C745 C748 1.453 . S
C745 C749 1.684 . S
C746 C727 1.723 . S
C746 C745 1.396 . S
C746 C747 1.394 . S
C747 C743 1.397 . S
C747 C746 1.394 . S
C747 C757 1.723 . S
C748 C745 1.453 . S
C748 H772 0.982 . S
C748 H773 0.979 . S
C748 H774 0.977 . S
C749 C745 1.684 . S
C749 H775 0.979 . S
C749 H776 0.980 . S
C749 H777 0.983 . S
C750 H726 0.948 . S
C750 C751 1.391 . S
C750 C755 1.391 . S
C751 C750 1.391 . S
C751 C752 1.391 . S
C752 H729 0.947 . S
C752 C751 1.391 . S
C752 C753 1.392 . S
C753 H730 0.948 . S
C753 C752 1.392 . S
C753 C754 1.419 . S
C754 C753 1.419 . S
C754 C755 1.391 . S
C754 C758 1.397 . S
C755 C750 1.391 . S
C755 C754 1.391 . S
C755 C756 1.399 . S
C756 C755 1.399 . S
C756 C757 1.396 . S
C756 C759 1.453 . S
C756 C760 1.684 . S
C757 C747 1.723 . S
C757 C756 1.396 . S
C757 C758 1.394 . S
C758 C728 1.723 . S
C758 C754 1.397 . S
C758 C757 1.394 . S
C759 H731 0.982 . S
C759 H735 0.979 . S
C759 H736 0.977 . S
C759 C756 1.453 . S
C760 H732 0.979 . S
C760 H733 0.980 . S
C760 H734 0.983 . S
C760 C756 1.684 . S
H761 C779 0.948 . S
H762 C720 0.948 . S
H763 C738 0.979 . S
H764 C738 0.980 . S
H765 C738 0.983 . S
H766 C737 0.982 . S
H767 C737 0.979 . S
H768 C737 0.977 . S
H769 C739 0.948 . S
H770 C741 0.947 . S
H771 C742 0.948 . S
H772 C748 0.982 . S
H773 C748 0.979 . S
H774 C748 0.977 . S
H775 C749 0.979 . S
H776 C749 0.980 . S
H777 C749 0.983 . S
H778 C722 0.947 . S
C779 C722 1.392 . S
C779 C723 1.419 . S
C779 H761 0.948 . S
C780 C781 1.391 . S
C780 C784 1.391 1_554 S
C780 H822 0.948 . S
C781 C780 1.391 . S
C781 C782 1.391 1_554 S
C782 C781 1.391 1_556 S
C782 H838 0.947 . S
C782 C839 1.392 . S
C783 C784 1.391 . S
C783 C787 1.397 . S
C783 C839 1.419 . S
C784 C780 1.391 1_556 S
C784 C783 1.391 . S
C784 C785 1.399 . S
C785 C784 1.399 . S
C785 C788 1.396 . S
C785 C797 1.453 1_556 S
C785 C798 1.684 . S
H786 C810 0.948 . S
C787 C783 1.397 . S
C787 C788 1.394 . S
C787 C806 1.723 . S
C788 C785 1.396 . S
C788 C787 1.394 . S
C788 C818 1.723 . S
H789 C812 0.947 . S
H790 C813 0.948 . S
H791 C819 0.982 . S
H792 C820 0.979 . S
H793 C820 0.980 . S
H794 C820 0.983 . S
H795 C819 0.979 . S
H796 C819 0.977 . S
C797 C785 1.453 1_554 S
C797 H826 0.982 . S
C797 H827 0.979 . S
C797 H828 0.977 . S
C798 C785 1.684 . S
C798 H823 0.979 . S
C798 H824 0.980 . S
C798 H825 0.983 1_556 S
C799 C800 1.391 . S
C799 C804 1.391 . S
C799 H829 0.948 . S
C800 C799 1.391 . S
C800 C801 1.391 . S
C801 C800 1.391 . S
C801 C802 1.392 . S
C801 H830 0.947 . S
C802 C801 1.392 . S
C802 C803 1.419 . S
C802 H831 0.948 . S
C803 C802 1.419 . S
C803 C804 1.391 . S
C803 C807 1.397 . S
C804 C799 1.391 . S
C804 C803 1.391 . S
C804 C805 1.399 . S
C805 C804 1.399 . S
C805 C806 1.396 . S
C805 C808 1.453 . S
C805 C809 1.684 . S
C806 C787 1.723 . S
C806 C805 1.396 . S
C806 C807 1.394 . S
C807 C803 1.397 . S
C807 C806 1.394 . S
C807 C817 1.723 . S
C808 C805 1.453 . S
C808 H832 0.982 . S
C808 H833 0.979 . S
C808 H834 0.977 . S
C809 C805 1.684 . S
C809 H835 0.979 . S
C809 H836 0.980 . S
C809 H837 0.983 . S
C810 H786 0.948 . S
C810 C811 1.391 . S
C810 C815 1.391 . S
C811 C810 1.391 . S
C811 C812 1.391 . S
C812 H789 0.947 . S
C812 C811 1.391 . S
C812 C813 1.392 . S
C813 H790 0.948 . S
C813 C812 1.392 . S
C813 C814 1.419 . S
C814 C813 1.419 . S
C814 C815 1.391 . S
C814 C818 1.397 . S
C815 C810 1.391 . S
C815 C814 1.391 . S
C815 C816 1.399 . S
C816 C815 1.399 . S
C816 C817 1.396 . S
C816 C819 1.453 . S
C816 C820 1.684 . S
C817 C807 1.723 . S
C817 C816 1.396 . S
C817 C818 1.394 . S
C818 C788 1.723 . S
C818 C814 1.397 . S
C818 C817 1.394 . S
C819 H791 0.982 . S
C819 H795 0.979 . S
C819 H796 0.977 . S
C819 C816 1.453 . S
C820 H792 0.979 . S
C820 H793 0.980 . S
C820 H794 0.983 . S
C820 C816 1.684 . S
H821 C839 0.948 . S
H822 C780 0.948 . S
H823 C798 0.979 . S
H824 C798 0.980 . S
H825 C798 0.983 1_554 S
H826 C797 0.982 . S
H827 C797 0.979 . S
H828 C797 0.977 . S
H829 C799 0.948 . S
H830 C801 0.947 . S
H831 C802 0.948 . S
H832 C808 0.982 . S
H833 C808 0.979 . S
H834 C808 0.977 . S
H835 C809 0.979 . S
H836 C809 0.980 . S
H837 C809 0.983 . S
H838 C782 0.947 . S
C839 C782 1.392 . S
C839 C783 1.419 . S
C839 H821 0.948 . S
C840 C841 1.391 . S
C840 C844 1.391 . S
C840 H882 0.948 . S
C841 C840 1.391 . S
C841 C842 1.391 . S
C842 C841 1.391 . S
C842 H898 0.947 . S
C842 C899 1.392 . S
C843 C844 1.391 . S
C843 C847 1.397 . S
C843 C899 1.419 . S
C844 C840 1.391 . S
C844 C843 1.391 . S
C844 C845 1.399 . S
C845 C844 1.399 . S
C845 C848 1.396 . S
C845 C857 1.453 . S
C845 C858 1.684 . S
H846 C870 0.948 . S
C847 C843 1.397 . S
C847 C848 1.394 . S
C847 C866 1.723 . S
C848 C845 1.396 . S
C848 C847 1.394 . S
C848 C878 1.723 . S
H849 C872 0.947 . S
H850 C873 0.948 . S
H851 C879 0.982 . S
H852 C880 0.979 . S
H853 C880 0.980 . S
H854 C880 0.983 . S
H855 C879 0.979 . S
H856 C879 0.977 . S
C857 C845 1.453 . S
C857 H886 0.982 . S
C857 H887 0.979 . S
C857 H888 0.977 . S
C858 C845 1.684 . S
C858 H883 0.979 . S
C858 H884 0.980 . S
C858 H885 0.983 . S
C859 C860 1.391 . S
C859 C864 1.391 . S
C859 H889 0.948 . S
C860 C859 1.391 . S
C860 C861 1.391 . S
C861 C860 1.391 . S
C861 C862 1.392 . S
C861 H890 0.947 . S
C862 C861 1.392 . S
C862 C863 1.419 . S
C862 H891 0.948 . S
C863 C862 1.419 . S
C863 C864 1.391 . S
C863 C867 1.397 . S
C864 C859 1.391 . S
C864 C863 1.391 . S
C864 C865 1.399 . S
C865 C864 1.399 . S
C865 C866 1.396 . S
C865 C868 1.453 . S
C865 C869 1.684 . S
C866 C847 1.723 . S
C866 C865 1.396 . S
C866 C867 1.394 . S
C867 C863 1.397 . S
C867 C866 1.394 . S
C867 C877 1.723 . S
C868 C865 1.453 . S
C868 H892 0.982 . S
C868 H893 0.979 . S
C868 H894 0.977 . S
C869 C865 1.684 . S
C869 H895 0.979 . S
C869 H896 0.980 . S
C869 H897 0.983 . S
C870 H846 0.948 . S
C870 C871 1.391 . S
C870 C875 1.391 . S
C871 C870 1.391 . S
C871 C872 1.391 . S
C872 H849 0.947 . S
C872 C871 1.391 . S
C872 C873 1.392 . S
C873 H850 0.948 . S
C873 C872 1.392 . S
C873 C874 1.419 . S
C874 C873 1.419 . S
C874 C875 1.391 . S
C874 C878 1.397 . S
C875 C870 1.391 . S
C875 C874 1.391 . S
C875 C876 1.399 . S
C876 C875 1.399 . S
C876 C877 1.396 . S
C876 C879 1.453 . S
C876 C880 1.684 . S
C877 C867 1.723 . S
C877 C876 1.396 . S
C877 C878 1.394 . S
C878 C848 1.723 . S
C878 C874 1.397 . S
C878 C877 1.394 . S
C879 H851 0.982 . S
C879 H855 0.979 . S
C879 H856 0.977 . S
C879 C876 1.453 . S
C880 H852 0.979 . S
C880 H853 0.980 . S
C880 H854 0.983 . S
C880 C876 1.684 . S
H881 C899 0.948 . S
H882 C840 0.948 . S
H883 C858 0.979 . S
H884 C858 0.980 . S
H885 C858 0.983 . S
H886 C857 0.982 . S
H887 C857 0.979 . S
H888 C857 0.977 . S
H889 C859 0.948 . S
H890 C861 0.947 . S
H891 C862 0.948 . S
H892 C868 0.982 . S
H893 C868 0.979 . S
H894 C868 0.977 . S
H895 C869 0.979 . S
H896 C869 0.980 . S
H897 C869 0.983 . S
H898 C842 0.947 . S
C899 C842 1.392 . S
C899 C843 1.419 . S
C899 H881 0.948 . S
C900 C901 1.391 1_545 S
C900 C904 1.391 . S
C900 H942 0.948 1_556 S
C901 C900 1.391 1_565 S
C901 C902 1.391 . S
C902 C901 1.391 . S
C902 H958 0.947 . S
C902 C959 1.392 . S
C903 C904 1.391 . S
C903 C907 1.397 . S
C903 C959 1.419 1_545 S
C904 C900 1.391 . S
C904 C903 1.391 . S
C904 C905 1.399 . S
C905 C904 1.399 . S
C905 C908 1.396 . S
C905 C917 1.453 . S
C905 C918 1.684 1_556 S
H906 C930 0.948 . S
C907 C903 1.397 . S
C907 C908 1.394 . S
C907 C926 1.723 . S
C908 C905 1.396 . S
C908 C907 1.394 . S
C908 C938 1.723 . S
H909 C932 0.947 . S
H910 C933 0.948 . S
H911 C939 0.982 . S
H912 C940 0.979 . S
H913 C940 0.980 . S
H914 C940 0.983 . S
H915 C939 0.979 . S
H916 C939 0.977 . S
C917 C905 1.453 . S
C917 H946 0.982 . S
C917 H947 0.979 1_556 S
C917 H948 0.977 1_556 S
C918 C905 1.684 1_554 S
C918 H943 0.979 . S
C918 H944 0.980 . S
C918 H945 0.983 . S
C919 C920 1.391 . S
C919 C924 1.391 . S
C919 H949 0.948 . S
C920 C919 1.391 . S
C920 C921 1.391 . S
C921 C920 1.391 . S
C921 C922 1.392 . S
C921 H950 0.947 . S
C922 C921 1.392 . S
C922 C923 1.419 . S
C922 H951 0.948 . S
C923 C922 1.419 . S
C923 C924 1.391 . S
C923 C927 1.397 . S
C924 C919 1.391 . S
C924 C923 1.391 . S
C924 C925 1.399 . S
C925 C924 1.399 . S
C925 C926 1.396 . S
C925 C928 1.453 . S
C925 C929 1.684 1_545 S
C926 C907 1.723 . S
C926 C925 1.396 . S
C926 C927 1.394 . S
C927 C923 1.397 . S
C927 C926 1.394 . S
C927 C937 1.723 . S
C928 C925 1.453 . S
C928 H952 0.982 . S
C928 H953 1.005 . S
C928 H954 0.977 . S
C929 C925 1.684 1_565 S
C929 H955 0.979 . S
C929 H956 0.980 . S
C929 H957 0.983 . S
C930 H906 0.948 . S
C930 C931 1.391 . S
C930 C935 1.391 1_554 S
C931 C930 1.391 . S
C931 C932 1.391 . S
C932 H909 0.947 . S
C932 C931 1.391 . S
C932 C933 1.392 . S
C933 H910 0.948 . S
C933 C932 1.392 . S
C933 C934 1.419 1_554 S
C934 C933 1.419 1_556 S
C934 C935 1.391 . S
C934 C938 1.397 . S
C935 C930 1.391 1_556 S
C935 C934 1.391 . S
C935 C936 1.399 . S
C936 C935 1.399 . S
C936 C937 1.396 . S
C936 C939 1.453 . S
C936 C940 1.684 . S
C937 C927 1.723 . S
C937 C936 1.396 . S
C937 C938 1.394 . S
C938 C908 1.723 . S
C938 C934 1.397 . S
C938 C937 1.394 . S
C939 H911 0.982 . S
C939 H915 0.979 . S
C939 H916 0.977 . S
C939 C936 1.453 . S
C940 H912 0.979 . S
C940 H913 0.980 . S
C940 H914 0.983 . S
C940 C936 1.684 . S
H941 C959 0.948 . S
H942 C900 0.948 1_554 S
H943 C918 0.979 . S
H944 C918 0.980 . S
H945 C918 0.983 . S
H946 C917 0.982 . S
H947 C917 0.979 1_554 S
H948 C917 0.977 1_554 S
H949 C919 0.948 . S
H950 C921 0.947 . S
H951 C922 0.948 . S
H952 C928 0.982 . S
H953 C928 1.005 . S
H954 C928 0.977 . S
H955 C929 0.979 . S
H956 C929 0.980 . S
H957 C929 0.983 . S
H958 C902 0.947 . S
C959 C902 1.392 . S
C959 C903 1.419 1_565 S
C959 H941 0.948 . S
C960 O961 1.160 1_554 S
C960 O967 1.185 . S
O961 C960 1.160 1_556 S
O962 Zn963 1.899 1_556 S
O962 C970 1.284 . S
Zn963 O962 1.899 1_554 S
Zn963 O964 2.032 . S
Zn963 O967 2.086 . S
Zn963 O972 1.977 . S
O964 Zn963 2.032 . S
O964 C968 1.278 . S
C965 O966 1.203 . S
C965 O972 1.267 . S
O966 C965 1.203 . S
O967 C960 1.185 . S
O967 Zn963 2.086 . S
C968 O964 1.278 . S
C968 O969 1.211 . S
O969 C968 1.211 . S
C970 O962 1.284 . S
C970 O971 1.273 . S
O971 C970 1.273 . S
O972 Zn963 1.977 . S
O972 C965 1.267 . S
C973 O974 1.160 . S
C973 O980 1.185 . S
O974 C973 1.160 . S
O975 Zn976 1.899 . S
O975 C983 1.284 . S
Zn976 O975 1.899 . S
Zn976 O977 2.032 . S
Zn976 O980 2.086 . S
Zn976 O985 1.977 . S
O977 Zn976 2.032 . S
O977 C981 1.278 . S
C978 O979 1.203 . S
C978 O985 1.267 . S
O979 C978 1.203 . S
O980 C973 1.185 . S
O980 Zn976 2.086 . S
C981 O977 1.278 . S
C981 O982 1.211 . S
O982 C981 1.211 . S
C983 O975 1.284 . S
C983 O984 1.273 . S
O984 C983 1.273 . S
O985 Zn976 1.977 . S
O985 C978 1.267 . S
C986 O987 1.160 1_554 S
C986 O993 1.185 . S
O987 C986 1.160 1_556 S
O988 Zn989 1.899 1_556 S
O988 C996 1.284 . S
Zn989 O988 1.899 1_554 S
Zn989 O990 2.032 1_554 S
Zn989 O993 2.086 . S
Zn989 O998 1.977 . S
O990 Zn989 2.032 1_556 S
O990 C994 1.278 . S
C991 O992 1.203 . S
C991 O998 1.267 . S
O992 C991 1.203 . S
O993 C986 1.185 . S
O993 Zn989 2.086 . S
C994 O990 1.278 . S
C994 O995 1.211 1_556 S
O995 C994 1.211 1_554 S
C996 O988 1.284 . S
C996 O997 1.273 . S
O997 C996 1.273 . S
O998 Zn989 1.977 . S
O998 C991 1.267 . S
C999 O1000 1.160 . S
C999 O1006 1.185 . S
O1000 C999 1.160 . S
O1001 Zn1002 1.899 . S
O1001 C1009 1.284 . S
Zn1002 O1001 1.899 . S
Zn1002 O1003 1.996 1_545 S
Zn1002 O1006 2.086 . S
Zn1002 O1011 1.977 . S
O1003 Zn1002 1.996 1_565 S
O1003 C1007 1.327 . S
C1004 O1005 1.203 . S
C1004 O1011 1.267 . S
O1005 C1004 1.203 . S
O1006 C999 1.185 . S
O1006 Zn1002 2.086 . S
C1007 O1003 1.327 . S
C1007 O1008 1.211 . S
O1008 C1007 1.211 . S
C1009 O1001 1.284 . S
C1009 O1010 1.273 1_545 S
O1010 C1009 1.273 1_565 S
O1011 Zn1002 1.977 . S
O1011 C1004 1.267 . S
C1012 O1013 1.160 . S
C1012 O1019 1.185 . S
O1013 C1012 1.160 . S
O1014 Zn1015 1.899 . S
O1014 C1022 1.284 . S
Zn1015 O1014 1.899 . S
Zn1015 O1016 2.032 . S
Zn1015 O1019 2.086 . S
Zn1015 O1024 1.977 . S
O1016 Zn1015 2.032 . S
O1016 C1020 1.278 . S
C1017 O1018 1.203 . S
C1017 O1024 1.267 . S
O1018 C1017 1.203 . S
O1019 C1012 1.185 . S
O1019 Zn1015 2.086 . S
C1020 O1016 1.278 . S
C1020 O1021 1.211 . S
O1021 C1020 1.211 . S
C1022 O1014 1.284 . S
C1022 O1023 1.273 . S
O1023 C1022 1.273 . S
O1024 Zn1015 1.977 . S
O1024 C1017 1.267 . S
C1025 O1026 1.160 . S
C1025 O1032 1.185 . S
O1026 C1025 1.160 . S
O1027 Zn1028 1.899 . S
O1027 C1035 1.284 . S
Zn1028 O1027 1.899 . S
Zn1028 O1029 2.032 . S
Zn1028 O1032 2.086 . S
Zn1028 O1037 1.977 . S
O1029 Zn1028 2.032 . S
O1029 C1033 1.278 . S
C1030 O1031 1.203 . S
C1030 O1037 1.267 . S
O1031 C1030 1.203 . S
O1032 C1025 1.185 . S
O1032 Zn1028 2.086 . S
C1033 O1029 1.278 . S
C1033 O1034 1.211 . S
O1034 C1033 1.211 . S
C1035 O1027 1.284 . S
C1035 O1036 1.273 . S
O1036 C1035 1.273 . S
O1037 Zn1028 1.977 . S
O1037 C1030 1.267 . S
C1038 O1039 1.160 . S
C1038 O1045 1.185 . S
O1039 C1038 1.160 . S
O1040 Zn1041 1.899 . S
O1040 C1048 1.284 . S
Zn1041 O1040 1.899 . S
Zn1041 O1042 2.032 . S
Zn1041 O1045 2.086 . S
Zn1041 O1050 1.977 . S
O1042 Zn1041 2.032 . S
O1042 C1046 1.278 . S
C1043 O1044 1.203 . S
C1043 O1050 1.267 . S
O1044 C1043 1.203 . S
O1045 C1038 1.185 . S
O1045 Zn1041 2.086 . S
C1046 O1042 1.278 . S
C1046 O1047 1.211 . S
O1047 C1046 1.211 . S
C1048 O1040 1.284 . S
C1048 O1049 1.273 . S
O1049 C1048 1.273 . S
O1050 Zn1041 1.977 . S
O1050 C1043 1.267 . S
C1051 O1052 1.160 . S
C1051 O1058 1.185 . S
O1052 C1051 1.160 . S
O1053 Zn1054 1.899 . S
O1053 C1061 1.284 1_565 S
Zn1054 O1053 1.899 . S
Zn1054 O1055 2.032 1_565 S
Zn1054 O1058 2.086 . S
Zn1054 O1063 1.977 . S
O1055 Zn1054 2.032 1_545 S
O1055 C1059 1.278 . S
C1056 O1057 1.203 1_565 S
C1056 O1063 1.267 . S
O1057 C1056 1.203 1_545 S
O1058 C1051 1.185 . S
O1058 Zn1054 2.086 . S
C1059 O1055 1.278 . S
C1059 O1060 1.211 . S
O1060 C1059 1.211 . S
C1061 O1053 1.284 1_545 S
C1061 O1062 1.273 . S
O1062 C1061 1.273 . S
O1063 Zn1054 1.977 . S
O1063 C1056 1.267 . S
C1064 O1065 1.160 1_455 S
C1064 O1071 1.185 . S
O1065 C1064 1.160 1_655 S
O1066 Zn1067 1.899 1_655 S
O1066 C1074 1.284 . S
Zn1067 O1066 1.899 1_455 S
Zn1067 O1068 2.032 1_455 S
Zn1067 O1071 2.086 . S
Zn1067 O1076 1.977 . S
O1068 Zn1067 2.032 1_655 S
O1068 C1072 1.276 1_655 S
C1069 O1070 1.203 . S
C1069 O1076 1.267 . S
O1070 C1069 1.203 . S
O1071 C1064 1.185 . S
O1071 Zn1067 2.086 . S
C1072 O1068 1.276 1_455 S
C1072 O1073 1.219 . S
O1073 C1072 1.219 . S
C1074 O1066 1.284 . S
C1074 O1075 1.273 . S
O1075 C1074 1.273 . S
O1076 Zn1067 1.977 . S
O1076 C1069 1.267 . S
C1077 O1078 1.160 . S
C1077 O1084 1.185 . S
O1078 C1077 1.160 . S
O1079 Zn1080 1.899 . S
O1079 C1087 1.284 . S
Zn1080 O1079 1.899 . S
Zn1080 O1081 2.032 . S
Zn1080 O1084 2.086 . S
Zn1080 O1089 1.977 . S
O1081 Zn1080 2.032 . S
O1081 C1085 1.278 . S
C1082 O1083 1.203 . S
C1082 O1089 1.267 . S
O1083 C1082 1.203 . S
O1084 C1077 1.185 . S
O1084 Zn1080 2.086 . S
C1085 O1081 1.278 . S
C1085 O1086 1.211 . S
O1086 C1085 1.211 . S
C1087 O1079 1.284 . S
C1087 O1088 1.273 . S
O1088 C1087 1.273 . S
O1089 Zn1080 1.977 . S
O1089 C1082 1.267 . S
C1090 O1091 1.160 1_455 S
C1090 O1097 1.185 . S
O1091 C1090 1.160 1_655 S
O1092 Zn1093 1.899 1_655 S
O1092 C1100 1.284 . S
Zn1093 O1092 1.899 1_455 S
Zn1093 O1094 2.032 1_455 S
Zn1093 O1097 2.086 . S
Zn1093 O1102 1.977 . S
O1094 Zn1093 2.032 1_655 S
O1094 C1098 1.279 . S
C1095 O1096 1.203 . S
C1095 O1102 1.267 . S
O1096 C1095 1.203 . S
O1097 C1090 1.185 . S
O1097 Zn1093 2.086 . S
C1098 O1094 1.279 . S
C1098 O1099 1.208 1_655 S
O1099 C1098 1.208 1_455 S
C1100 O1092 1.284 . S
C1100 O1101 1.273 . S
O1101 C1100 1.273 . S
O1102 Zn1093 1.977 . S
O1102 C1095 1.267 . S
C1103 O1104 1.160 . S
C1103 O1110 1.185 . S
O1104 C1103 1.160 . S
O1105 Zn1106 1.899 . S
O1105 C1113 1.284 . S
Zn1106 O1105 1.899 . S
Zn1106 O1107 2.032 . S
Zn1106 O1110 2.086 . S
Zn1106 O1115 1.977 . S
O1107 Zn1106 2.032 . S
O1107 C1111 1.278 . S
C1108 O1109 1.203 . S
C1108 O1115 1.267 . S
O1109 C1108 1.203 . S
O1110 C1103 1.185 . S
O1110 Zn1106 2.086 . S
C1111 O1107 1.278 . S
C1111 O1112 1.211 . S
O1112 C1111 1.211 . S
C1113 O1105 1.284 . S
C1113 O1114 1.273 . S
O1114 C1113 1.273 . S
O1115 Zn1106 1.977 . S
O1115 C1108 1.267 . S
H1116 C1122 0.930 . S
H1117 C1126 0.930 . S
H1118 C1131 0.929 . S
H1119 C1129 0.929 . S
H1120 C1124 0.929 . S
H1121 C1130 0.929 . S
C1122 H1116 0.930 . S
C1122 C1123 1.367 . S
C1122 C1130 1.378 . S
C1123 C1122 1.367 . S
C1123 C1131 1.433 . S
C1124 H1120 0.929 . S
C1124 C1126 1.378 . S
C1124 C1128 1.350 . S
C1125 C1128 1.463 . S
C1125 C1130 1.350 . S
C1125 N1133 1.427 . S
C1126 H1117 0.930 . S
C1126 C1124 1.378 . S
C1126 C1127 1.367 . S
C1127 C1126 1.367 . S
C1127 C1129 1.433 . S
C1128 C1124 1.350 . S
C1128 C1125 1.463 . S
C1128 N1132 1.427 . S
C1129 H1119 0.929 . S
C1129 C1127 1.433 . S
C1129 N1132 1.384 . S
C1130 H1121 0.929 . S
C1130 C1122 1.378 . S
C1130 C1125 1.350 . S
C1131 H1118 0.929 . S
C1131 C1123 1.433 . S
C1131 N1133 1.384 . S
N1132 C1128 1.427 . S
N1132 C1129 1.384 . S
N1133 C1125 1.427 . S
N1133 C1131 1.384 . S
H1134 C1140 0.930 . S
H1135 C1144 0.930 . S
H1136 C1149 0.929 . S
H1137 C1147 0.929 . S
H1138 C1142 0.929 . S
H1139 C1148 0.929 . S
C1140 H1134 0.930 . S
C1140 C1141 1.367 . S
C1140 C1148 1.378 . S
C1141 C1140 1.367 . S
C1141 C1149 1.433 . S
C1142 H1138 0.929 . S
C1142 C1144 1.378 . S
C1142 C1146 1.350 . S
C1143 C1146 1.463 . S
C1143 C1148 1.350 . S
C1143 N1151 1.427 . S
C1144 H1135 0.930 . S
C1144 C1142 1.378 . S
C1144 C1145 1.367 . S
C1145 C1144 1.367 . S
C1145 C1147 1.433 . S
C1146 C1142 1.350 . S
C1146 C1143 1.463 . S
C1146 N1150 1.427 . S
C1147 H1137 0.929 . S
C1147 C1145 1.433 . S
C1147 N1150 1.384 . S
C1148 H1139 0.929 . S
C1148 C1140 1.378 . S
C1148 C1143 1.350 . S
C1149 H1136 0.929 . S
C1149 C1141 1.433 . S
C1149 N1151 1.384 . S
N1150 C1146 1.427 . S
N1150 C1147 1.384 . S
N1151 C1143 1.427 . S
N1151 C1149 1.384 . S
H1152 C1158 0.930 . S
H1153 C1162 0.930 . S
H1154 C1167 0.929 . S
H1155 C1165 0.929 . S
H1156 C1160 0.929 . S
H1157 C1166 0.929 . S
C1158 H1152 0.930 . S
C1158 C1159 1.367 . S
C1158 C1166 1.378 . S
C1159 C1158 1.367 . S
C1159 C1167 1.433 . S
C1160 H1156 0.929 . S
C1160 C1162 1.378 . S
C1160 C1164 1.350 . S
C1161 C1164 1.463 . S
C1161 C1166 1.350 . S
C1161 N1169 1.427 . S
C1162 H1153 0.930 . S
C1162 C1160 1.378 . S
C1162 C1163 1.367 . S
C1163 C1162 1.367 . S
C1163 C1165 1.433 . S
C1164 C1160 1.350 . S
C1164 C1161 1.463 . S
C1164 N1168 1.427 . S
C1165 H1155 0.929 . S
C1165 C1163 1.433 . S
C1165 N1168 1.384 . S
C1166 H1157 0.929 . S
C1166 C1158 1.378 . S
C1166 C1161 1.350 . S
C1167 H1154 0.929 . S
C1167 C1159 1.433 . S
C1167 N1169 1.384 . S
N1168 C1164 1.427 . S
N1168 C1165 1.384 . S
N1169 C1161 1.427 . S
N1169 C1167 1.384 . S
H1170 C1176 0.930 . S
H1171 C1180 0.930 . S
H1172 C1185 0.929 . S
H1173 C1183 0.929 . S
H1174 C1178 0.929 . S
H1175 C1184 0.929 . S
C1176 H1170 0.930 . S
C1176 C1177 1.367 1_545 S
C1176 C1184 1.378 . S
C1177 C1176 1.367 1_565 S
C1177 C1185 1.433 . S
C1178 H1174 0.929 . S
C1178 C1180 1.378 . S
C1178 C1182 1.350 . S
C1179 C1182 1.463 . S
C1179 C1184 1.350 1_565 S
C1179 N1187 1.427 . S
C1180 H1171 0.930 . S
C1180 C1178 1.378 . S
C1180 C1181 1.367 1_565 S
C1181 C1180 1.367 1_545 S
C1181 C1183 1.433 . S
C1182 C1178 1.350 . S
C1182 C1179 1.463 . S
C1182 N1186 1.427 1_565 S
C1183 H1173 0.929 . S
C1183 C1181 1.433 . S
C1183 N1186 1.384 . S
C1184 H1175 0.929 . S
C1184 C1176 1.378 . S
C1184 C1179 1.350 1_545 S
C1185 H1172 0.929 . S
C1185 C1177 1.433 . S
C1185 N1187 1.384 . S
N1186 C1182 1.427 1_545 S
N1186 C1183 1.384 . S
N1187 C1179 1.427 . S
N1187 C1185 1.384 . S
H1188 C1194 0.930 . S
H1189 C1198 0.930 . S
H1190 C1203 0.929 . S
H1191 C1201 0.929 . S
H1192 C1196 0.929 . S
H1193 C1202 0.929 . S
C1194 H1188 0.930 . S
C1194 C1195 1.367 . S
C1194 C1202 1.378 . S
C1195 C1194 1.367 . S
C1195 C1203 1.433 . S
C1196 H1192 0.929 . S
C1196 C1198 1.378 . S
C1196 C1200 1.350 . S
C1197 C1200 1.463 . S
C1197 C1202 1.350 . S
C1197 N1205 1.427 . S
C1198 H1189 0.930 . S
C1198 C1196 1.378 . S
C1198 C1199 1.367 . S
C1199 C1198 1.367 . S
C1199 C1201 1.433 . S
C1200 C1196 1.350 . S
C1200 C1197 1.463 . S
C1200 N1204 1.427 . S
C1201 H1191 0.929 . S
C1201 C1199 1.433 . S
C1201 N1204 1.384 . S
C1202 H1193 0.929 . S
C1202 C1194 1.378 . S
C1202 C1197 1.350 . S
C1203 H1190 0.929 . S
C1203 C1195 1.433 . S
C1203 N1205 1.384 . S
N1204 C1200 1.427 . S
N1204 C1201 1.384 . S
N1205 C1197 1.427 . S
N1205 C1203 1.384 . S
H1206 C1212 0.930 . S
H1207 C1216 0.930 . S
H1208 C1221 0.929 . S
H1209 C1219 0.929 . S
H1210 C1214 0.929 . S
H1211 C1220 0.929 . S
C1212 H1206 0.930 . S
C1212 C1213 1.367 . S
C1212 C1220 1.378 . S
C1213 C1212 1.367 . S
C1213 C1221 1.433 . S
C1214 H1210 0.929 . S
C1214 C1216 1.378 . S
C1214 C1218 1.350 . S
C1215 C1218 1.463 . S
C1215 C1220 1.350 . S
C1215 N1223 1.427 . S
C1216 H1207 0.930 . S
C1216 C1214 1.378 . S
C1216 C1217 1.367 . S
C1217 C1216 1.367 . S
C1217 C1219 1.433 . S
C1218 C1214 1.350 . S
C1218 C1215 1.463 . S
C1218 N1222 1.427 . S
C1219 H1209 0.929 . S
C1219 C1217 1.433 . S
C1219 N1222 1.384 . S
C1220 H1211 0.929 . S
C1220 C1212 1.378 . S
C1220 C1215 1.350 . S
C1221 H1208 0.929 . S
C1221 C1213 1.433 . S
C1221 N1223 1.384 . S
N1222 C1218 1.427 . S
N1222 C1219 1.384 . S
N1223 C1215 1.427 . S
N1223 C1221 1.384 . S
H1224 C1230 0.930 . S
H1225 C1234 0.930 . S
H1226 C1239 0.929 . S
H1227 C1237 0.929 . S
H1228 C1232 0.929 . S
H1229 C1238 0.929 . S
C1230 H1224 0.930 . S
C1230 C1231 1.367 . S
C1230 C1238 1.378 . S
C1231 C1230 1.367 . S
C1231 C1239 1.433 . S
C1232 H1228 0.929 . S
C1232 C1234 1.378 . S
C1232 C1236 1.350 . S
C1233 C1236 1.463 . S
C1233 C1238 1.350 . S
C1233 N1241 1.427 . S
C1234 H1225 0.930 . S
C1234 C1232 1.378 . S
C1234 C1235 1.367 . S
C1235 C1234 1.367 . S
C1235 C1237 1.433 . S
C1236 C1232 1.350 . S
C1236 C1233 1.463 . S
C1236 N1240 1.427 . S
C1237 H1227 0.929 . S
C1237 C1235 1.433 . S
C1237 N1240 1.384 . S
C1238 H1229 0.929 . S
C1238 C1230 1.378 . S
C1238 C1233 1.350 . S
C1239 H1226 0.929 . S
C1239 C1231 1.433 . S
C1239 N1241 1.384 . S
N1240 C1236 1.427 . S
N1240 C1237 1.384 . S
N1241 C1233 1.427 . S
N1241 C1239 1.384 . S
H1242 C1248 0.930 . S
H1243 C1252 0.930 . S
H1244 C1257 0.932 1_545 S
H1245 C1255 0.929 . S
H1246 C1250 0.929 . S
H1247 C1256 0.929 . S
C1248 H1242 0.930 . S
C1248 C1249 1.367 . S
C1248 C1256 1.378 . S
C1249 C1248 1.367 . S
C1249 C1257 1.431 . S
C1250 H1246 0.929 . S
C1250 C1252 1.378 . S
C1250 C1254 1.350 1_545 S
C1251 C1254 1.463 . S
C1251 C1256 1.350 . S
C1251 N1259 1.427 1_565 S
C1252 H1243 0.930 . S
C1252 C1250 1.378 . S
C1252 C1253 1.367 1_545 S
C1253 C1252 1.367 1_565 S
C1253 C1255 1.433 . S
C1254 C1250 1.350 1_565 S
C1254 C1251 1.463 . S
C1254 N1258 1.427 . S
C1255 H1245 0.929 . S
C1255 C1253 1.433 . S
C1255 N1258 1.384 . S
C1256 H1247 0.929 . S
C1256 C1248 1.378 . S
C1256 C1251 1.350 . S
C1257 H1244 0.932 1_565 S
C1257 C1249 1.431 . S
C1257 N1259 1.384 1_565 S
N1258 C1254 1.427 . S
N1258 C1255 1.384 . S
N1259 C1251 1.427 1_545 S
N1259 C1257 1.384 1_545 S
H1260 C1266 0.930 . S
H1261 C1270 0.930 . S
H1262 C1275 0.929 . S
H1263 C1273 0.929 . S
H1264 C1268 0.929 . S
H1265 C1274 0.929 . S
C1266 H1260 0.930 . S
C1266 C1267 1.367 . S
C1266 C1274 1.378 . S
C1267 C1266 1.367 . S
C1267 C1275 1.433 . S
C1268 H1264 0.929 . S
C1268 C1270 1.378 . S
C1268 C1272 1.350 . S
C1269 C1272 1.463 . S
C1269 C1274 1.350 . S
C1269 N1277 1.427 . S
C1270 H1261 0.930 . S
C1270 C1268 1.378 . S
C1270 C1271 1.367 . S
C1271 C1270 1.367 . S
C1271 C1273 1.433 . S
C1272 C1268 1.350 . S
C1272 C1269 1.463 . S
C1272 N1276 1.427 . S
C1273 H1263 0.929 . S
C1273 C1271 1.433 . S
C1273 N1276 1.384 . S
C1274 H1265 0.929 . S
C1274 C1266 1.378 . S
C1274 C1269 1.350 . S
C1275 H1262 0.929 . S
C1275 C1267 1.433 . S
C1275 N1277 1.384 . S
N1276 C1272 1.427 . S
N1276 C1273 1.384 . S
N1277 C1269 1.427 . S
N1277 C1275 1.384 . S
H1278 C1284 0.930 . S
H1279 C1288 0.930 . S
H1280 C1293 0.929 . S
H1281 C1291 0.929 . S
H1282 C1286 0.929 . S
H1283 C1292 0.929 . S
C1284 H1278 0.930 . S
C1284 C1285 1.367 . S
C1284 C1292 1.378 . S
C1285 C1284 1.367 . S
C1285 C1293 1.433 . S
C1286 H1282 0.929 . S
C1286 C1288 1.378 . S
C1286 C1290 1.350 . S
C1287 C1290 1.463 . S
C1287 C1292 1.350 . S
C1287 N1295 1.427 . S
C1288 H1279 0.930 . S
C1288 C1286 1.378 . S
C1288 C1289 1.367 . S
C1289 C1288 1.367 . S
C1289 C1291 1.433 . S
C1290 C1286 1.350 . S
C1290 C1287 1.463 . S
C1290 N1294 1.427 . S
C1291 H1281 0.929 . S
C1291 C1289 1.433 . S
C1291 N1294 1.384 . S
C1292 H1283 0.929 . S
C1292 C1284 1.378 . S
C1292 C1287 1.350 . S
C1293 H1280 0.929 . S
C1293 C1285 1.433 . S
C1293 N1295 1.384 . S
N1294 C1290 1.427 . S
N1294 C1291 1.384 . S
N1295 C1287 1.427 . S
N1295 C1293 1.384 . S
H1296 C1302 0.930 . S
H1297 C1306 0.930 . S
H1298 C1311 0.929 . S
H1299 C1309 0.929 . S
H1300 C1304 0.929 . S
H1301 C1310 0.929 . S
C1302 H1296 0.930 . S
C1302 C1303 1.367 . S
C1302 C1310 1.378 . S
C1303 C1302 1.367 . S
C1303 C1311 1.433 . S
C1304 H1300 0.929 . S
C1304 C1306 1.378 . S
C1304 C1308 1.350 . S
C1305 C1308 1.463 . S
C1305 C1310 1.350 . S
C1305 N1313 1.427 . S
C1306 H1297 0.930 . S
C1306 C1304 1.378 . S
C1306 C1307 1.367 . S
C1307 C1306 1.367 . S
C1307 C1309 1.433 . S
C1308 C1304 1.350 . S
C1308 C1305 1.463 . S
C1308 N1312 1.427 . S
C1309 H1299 0.929 . S
C1309 C1307 1.433 . S
C1309 N1312 1.384 . S
C1310 H1301 0.929 . S
C1310 C1302 1.378 . S
C1310 C1305 1.350 . S
C1311 H1298 0.929 . S
C1311 C1303 1.433 . S
C1311 N1313 1.384 . S
N1312 C1308 1.427 . S
N1312 C1309 1.384 . S
N1313 C1305 1.427 . S
N1313 C1311 1.384 . S
H1314 C1320 0.930 . S
H1315 C1324 0.930 . S
H1316 C1329 0.929 . S
H1317 C1327 0.929 . S
H1318 C1322 0.929 . S
H1319 C1328 0.929 . S
C1320 H1314 0.930 . S
C1320 C1321 1.367 . S
C1320 C1328 1.378 . S
C1321 C1320 1.367 . S
C1321 C1329 1.433 . S
C1322 H1318 0.929 . S
C1322 C1324 1.378 . S
C1322 C1326 1.350 . S
C1323 C1326 1.463 . S
C1323 C1328 1.350 . S
C1323 N1331 1.427 . S
C1324 H1315 0.930 . S
C1324 C1322 1.378 . S
C1324 C1325 1.367 . S
C1325 C1324 1.367 . S
C1325 C1327 1.433 . S
C1326 C1322 1.350 . S
C1326 C1323 1.463 . S
C1326 N1330 1.427 . S
C1327 H1317 0.929 . S
C1327 C1325 1.433 . S
C1327 N1330 1.384 . S
C1328 H1319 0.929 . S
C1328 C1320 1.378 . S
C1328 C1323 1.350 . S
C1329 H1316 0.929 . S
C1329 C1321 1.433 . S
C1329 N1331 1.384 . S
N1330 C1326 1.427 . S
N1330 C1327 1.384 . S
N1331 C1323 1.427 . S
N1331 C1329 1.384 . S
H1332 C1338 0.930 . S
H1333 C1342 0.930 . S
H1334 C1347 0.929 . S
H1335 C1345 0.929 . S
H1336 C1340 0.929 . S
H1337 C1346 0.929 . S
C1338 H1332 0.930 . S
C1338 C1339 1.367 . S
C1338 C1346 1.378 . S
C1339 C1338 1.367 . S
C1339 C1347 1.433 . S
C1340 H1336 0.929 . S
C1340 C1342 1.378 . S
C1340 C1344 1.350 . S
C1341 C1344 1.463 . S
C1341 C1346 1.350 . S
C1341 N1349 1.427 . S
C1342 H1333 0.930 . S
C1342 C1340 1.378 . S
C1342 C1343 1.367 . S
C1343 C1342 1.367 . S
C1343 C1345 1.433 . S
C1344 C1340 1.350 . S
C1344 C1341 1.463 . S
C1344 N1348 1.427 . S
C1345 H1335 0.929 . S
C1345 C1343 1.433 . S
C1345 N1348 1.384 . S
C1346 H1337 0.929 . S
C1346 C1338 1.378 . S
C1346 C1341 1.350 . S
C1347 H1334 0.929 . S
C1347 C1339 1.433 . S
C1347 N1349 1.384 . S
N1348 C1344 1.427 . S
N1348 C1345 1.384 . S
N1349 C1341 1.427 . S
N1349 C1347 1.384 . S
H1350 C1356 0.930 . S
H1351 C1360 0.930 . S
H1352 C1365 0.929 1_655 S
H1353 C1363 0.929 . S
H1354 C1358 0.929 . S
H1355 C1364 0.929 . S
C1356 H1350 0.930 . S
C1356 C1357 1.367 . S
C1356 C1364 1.378 . S
C1357 C1356 1.367 . S
C1357 C1365 1.433 . S
C1358 H1354 0.929 . S
C1358 C1360 1.378 . S
C1358 C1362 1.350 1_655 S
C1359 C1362 1.463 . S
C1359 C1364 1.350 . S
C1359 N1367 1.427 . S
C1360 H1351 0.930 . S
C1360 C1358 1.378 . S
C1360 C1361 1.367 1_655 S
C1361 C1360 1.367 1_455 S
C1361 C1363 1.433 . S
C1362 C1358 1.350 1_455 S
C1362 C1359 1.463 . S
C1362 N1366 1.427 . S
C1363 H1353 0.929 . S
C1363 C1361 1.433 . S
C1363 N1366 1.384 . S
C1364 H1355 0.929 . S
C1364 C1356 1.378 . S
C1364 C1359 1.350 . S
C1365 H1352 0.929 1_455 S
C1365 C1357 1.433 . S
C1365 N1367 1.384 . S
N1366 C1362 1.427 . S
N1366 C1363 1.384 . S
N1367 C1359 1.427 . S
N1367 C1365 1.384 . S
H1368 C1374 0.930 . S
H1369 C1378 0.930 . S
H1370 C1383 0.929 . S
H1371 C1381 0.929 . S
H1372 C1376 0.929 . S
H1373 C1382 0.929 . S
C1374 H1368 0.930 . S
C1374 C1375 1.367 . S
C1374 C1382 1.378 . S
C1375 C1374 1.367 . S
C1375 C1383 1.433 . S
C1376 H1372 0.929 . S
C1376 C1378 1.378 . S
C1376 C1380 1.350 . S
C1377 C1380 1.463 . S
C1377 C1382 1.350 . S
C1377 N1385 1.427 . S
C1378 H1369 0.930 . S
C1378 C1376 1.378 . S
C1378 C1379 1.367 . S
C1379 C1378 1.367 . S
C1379 C1381 1.433 . S
C1380 C1376 1.350 . S
C1380 C1377 1.463 . S
C1380 N1384 1.427 . S
C1381 H1371 0.929 . S
C1381 C1379 1.433 . S
C1381 N1384 1.384 . S
C1382 H1373 0.929 . S
C1382 C1374 1.378 . S
C1382 C1377 1.350 . S
C1383 H1370 0.929 . S
C1383 C1375 1.433 . S
C1383 N1385 1.384 . S
N1384 C1380 1.427 . S
N1384 C1381 1.384 . S
N1385 C1377 1.427 . S
N1385 C1383 1.384 . S
H1386 C1392 0.930 . S
H1387 C1396 0.930 . S
H1388 C1401 0.975 . S
H1389 C1399 0.929 . S
H1390 C1394 0.929 . S
H1391 C1400 0.929 . S
C1392 H1386 0.930 . S
C1392 C1393 1.367 . S
C1392 C1400 1.378 . S
C1393 C1392 1.367 . S
C1393 C1401 1.382 1_655 S
C1394 H1390 0.929 . S
C1394 C1396 1.378 . S
C1394 C1398 1.350 1_455 S
C1395 C1398 1.463 . S
C1395 C1400 1.350 . S
C1395 N1403 1.427 1_655 S
C1396 H1387 0.930 . S
C1396 C1394 1.378 . S
C1396 C1397 1.367 1_455 S
C1397 C1396 1.367 1_655 S
C1397 C1399 1.433 . S
C1398 C1394 1.350 1_655 S
C1398 C1395 1.463 . S
C1398 N1402 1.427 . S
C1399 H1389 0.929 . S
C1399 C1397 1.433 . S
C1399 N1402 1.384 . S
C1400 H1391 0.929 . S
C1400 C1392 1.378 . S
C1400 C1395 1.350 . S
C1401 H1388 0.975 . S
C1401 C1393 1.382 1_455 S
C1401 N1403 1.389 . S
N1402 C1398 1.427 . S
N1402 C1399 1.384 . S
N1403 C1395 1.427 1_455 S
N1403 C1401 1.389 . S
H1404 C1410 0.930 . S
H1405 C1414 0.930 . S
H1406 C1419 0.929 . S
H1407 C1417 0.929 . S
H1408 C1412 0.929 . S
H1409 C1418 0.929 . S
C1410 H1404 0.930 . S
C1410 C1411 1.367 . S
C1410 C1418 1.378 . S
C1411 C1410 1.367 . S
C1411 C1419 1.433 . S
C1412 H1408 0.929 . S
C1412 C1414 1.378 . S
C1412 C1416 1.350 . S
C1413 C1416 1.463 . S
C1413 C1418 1.350 . S
C1413 N1421 1.427 . S
C1414 H1405 0.930 . S
C1414 C1412 1.378 . S
C1414 C1415 1.367 . S
C1415 C1414 1.367 . S
C1415 C1417 1.433 . S
C1416 C1412 1.350 . S
C1416 C1413 1.463 . S
C1416 N1420 1.427 . S
C1417 H1407 0.929 . S
C1417 C1415 1.433 . S
C1417 N1420 1.384 . S
C1418 H1409 0.929 . S
C1418 C1410 1.378 . S
C1418 C1413 1.350 . S
C1419 H1406 0.929 . S
C1419 C1411 1.433 . S
C1419 N1421 1.384 . S
N1420 C1416 1.427 . S
N1420 C1417 1.384 . S
N1421 C1413 1.427 . S
N1421 C1419 1.384 . S
H1422 C1428 0.930 . S
H1423 C1432 0.930 . S
H1424 C1437 0.929 . S
H1425 C1435 0.929 . S
H1426 C1430 0.929 . S
H1427 C1436 0.929 . S
C1428 H1422 0.930 . S
C1428 C1429 1.367 . S
C1428 C1436 1.378 . S
C1429 C1428 1.367 . S
C1429 C1437 1.433 . S
C1430 H1426 0.929 . S
C1430 C1432 1.378 . S
C1430 C1434 1.350 . S
C1431 C1434 1.463 . S
C1431 C1436 1.350 . S
C1431 N1439 1.427 . S
C1432 H1423 0.930 . S
C1432 C1430 1.378 . S
C1432 C1433 1.367 . S
C1433 C1432 1.367 . S
C1433 C1435 1.433 . S
C1434 C1430 1.350 . S
C1434 C1431 1.463 . S
C1434 N1438 1.427 . S
C1435 H1425 0.929 . S
C1435 C1433 1.433 . S
C1435 N1438 1.384 . S
C1436 H1427 0.929 . S
C1436 C1428 1.378 . S
C1436 C1431 1.350 . S
C1437 H1424 0.929 . S
C1437 C1429 1.433 . S
C1437 N1439 1.384 . S
N1438 C1434 1.427 . S
N1438 C1435 1.384 . S
N1439 C1431 1.427 . S
N1439 C1437 1.384 . S
H1440 C1446 0.930 . S
H1441 C1450 0.930 . S
H1442 C1455 0.961 . S
H1443 C1453 0.929 . S
H1444 C1448 0.929 . S
H1445 C1454 0.929 . S
C1446 H1440 0.930 . S
C1446 C1447 1.367 . S
C1446 C1454 1.378 . S
C1447 C1446 1.367 . S
C1447 C1455 1.393 1_556 S
C1448 H1444 0.929 . S
C1448 C1450 1.378 . S
C1448 C1452 1.350 1_554 S
C1449 C1452 1.463 . S
C1449 C1454 1.350 . S
C1449 N1457 1.427 1_556 S
C1450 H1441 0.930 . S
C1450 C1448 1.378 . S
C1450 C1451 1.367 . S
C1451 C1450 1.367 . S
C1451 C1453 1.433 1_554 S
C1452 C1448 1.350 1_556 S
C1452 C1449 1.463 . S
C1452 N1456 1.427 . S
C1453 H1443 0.929 . S
C1453 C1451 1.433 1_556 S
C1453 N1456 1.384 . S
C1454 H1445 0.929 . S
C1454 C1446 1.378 . S
C1454 C1449 1.350 . S
C1455 H1442 0.961 . S
C1455 C1447 1.393 1_554 S
C1455 N1457 1.393 . S
N1456 C1452 1.427 . S
N1456 C1453 1.384 . S
N1457 C1449 1.427 1_554 S
N1457 C1455 1.393 . S
H1458 C1464 0.930 . S
H1459 C1468 0.930 . S
H1460 C1473 0.929 . S
H1461 C1471 0.929 . S
H1462 C1466 0.929 . S
H1463 C1472 0.929 . S
C1464 H1458 0.930 . S
C1464 C1465 1.367 . S
C1464 C1472 1.378 . S
C1465 C1464 1.367 . S
C1465 C1473 1.433 . S
C1466 H1462 0.929 . S
C1466 C1468 1.378 . S
C1466 C1470 1.350 . S
C1467 C1470 1.463 . S
C1467 C1472 1.350 . S
C1467 N1475 1.427 . S
C1468 H1459 0.930 . S
C1468 C1466 1.378 . S
C1468 C1469 1.367 . S
C1469 C1468 1.367 . S
C1469 C1471 1.433 . S
C1470 C1466 1.350 . S
C1470 C1467 1.463 . S
C1470 N1474 1.427 . S
C1471 H1461 0.929 . S
C1471 C1469 1.433 . S
C1471 N1474 1.384 . S
C1472 H1463 0.929 . S
C1472 C1464 1.378 . S
C1472 C1467 1.350 . S
C1473 H1460 0.929 . S
C1473 C1465 1.433 . S
C1473 N1475 1.384 . S
N1474 C1470 1.427 . S
N1474 C1471 1.384 . S
N1475 C1467 1.427 . S
N1475 C1473 1.384 . S
H1476 C1482 0.930 . S
H1477 C1486 0.930 . S
H1478 C1491 0.929 . S
H1479 C1489 0.929 . S
H1480 C1484 0.929 . S
H1481 C1490 0.929 . S
C1482 H1476 0.930 . S
C1482 C1483 1.367 . S
C1482 C1490 1.378 . S
C1483 C1482 1.367 . S
C1483 C1491 1.433 . S
C1484 H1480 0.929 . S
C1484 C1486 1.378 . S
C1484 C1488 1.350 . S
C1485 C1488 1.463 . S
C1485 C1490 1.350 . S
C1485 N1493 1.427 . S
C1486 H1477 0.930 . S
C1486 C1484 1.378 . S
C1486 C1487 1.367 . S
C1487 C1486 1.367 . S
C1487 C1489 1.433 . S
C1488 C1484 1.350 . S
C1488 C1485 1.463 . S
C1488 N1492 1.427 . S
C1489 H1479 0.929 . S
C1489 C1487 1.433 . S
C1489 N1492 1.384 . S
C1490 H1481 0.929 . S
C1490 C1482 1.378 . S
C1490 C1485 1.350 . S
C1491 H1478 0.929 . S
C1491 C1483 1.433 . S
C1491 N1493 1.384 . S
N1492 C1488 1.427 . S
N1492 C1489 1.384 . S
N1493 C1485 1.427 . S
N1493 C1491 1.384 . S
H1494 C1500 0.930 . S
H1495 C1504 0.930 . S
H1496 C1509 0.929 . S
H1497 C1507 0.929 . S
H1498 C1502 0.929 . S
H1499 C1508 0.929 . S
C1500 H1494 0.930 . S
C1500 C1501 1.367 . S
C1500 C1508 1.378 . S
C1501 C1500 1.367 . S
C1501 C1509 1.433 . S
C1502 H1498 0.929 . S
C1502 C1504 1.378 . S
C1502 C1506 1.350 . S
C1503 C1506 1.463 . S
C1503 C1508 1.350 . S
C1503 N1511 1.427 . S
C1504 H1495 0.930 . S
C1504 C1502 1.378 . S
C1504 C1505 1.367 . S
C1505 C1504 1.367 . S
C1505 C1507 1.433 . S
C1506 C1502 1.350 . S
C1506 C1503 1.463 . S
C1506 N1510 1.427 . S
C1507 H1497 0.929 . S
C1507 C1505 1.433 . S
C1507 N1510 1.384 . S
C1508 H1499 0.929 . S
C1508 C1500 1.378 . S
C1508 C1503 1.350 . S
C1509 H1496 0.929 . S
C1509 C1501 1.433 . S
C1509 N1511 1.384 . S
N1510 C1506 1.427 . S
N1510 C1507 1.384 . S
N1511 C1503 1.427 . S
N1511 C1509 1.384 . S
H1512 C1518 0.930 . S
H1513 C1522 0.930 . S
H1514 C1527 0.929 . S
H1515 C1525 0.929 . S
H1516 C1520 0.929 . S
H1517 C1526 0.929 . S
C1518 H1512 0.930 . S
C1518 C1519 1.367 . S
C1518 C1526 1.378 . S
C1519 C1518 1.367 . S
C1519 C1527 1.433 . S
C1520 H1516 0.929 . S
C1520 C1522 1.378 . S
C1520 C1524 1.350 . S
C1521 C1524 1.463 . S
C1521 C1526 1.350 . S
C1521 N1529 1.427 . S
C1522 H1513 0.930 . S
C1522 C1520 1.378 . S
C1522 C1523 1.367 . S
C1523 C1522 1.367 . S
C1523 C1525 1.433 . S
C1524 C1520 1.350 . S
C1524 C1521 1.463 . S
C1524 N1528 1.427 . S
C1525 H1515 0.929 . S
C1525 C1523 1.433 . S
C1525 N1528 1.384 . S
C1526 H1517 0.929 . S
C1526 C1518 1.378 . S
C1526 C1521 1.350 . S
C1527 H1514 0.929 . S
C1527 C1519 1.433 . S
C1527 N1529 1.384 . S
N1528 C1524 1.427 . S
N1528 C1525 1.384 . S
N1529 C1521 1.427 . S
N1529 C1527 1.384 . S
H1530 C1536 0.930 . S
H1531 C1540 0.930 . S
H1532 C1545 0.929 . S
H1533 C1543 0.929 . S
H1534 C1538 0.929 . S
H1535 C1544 0.929 . S
C1536 H1530 0.930 . S
C1536 C1537 1.367 . S
C1536 C1544 1.378 . S
C1537 C1536 1.367 . S
C1537 C1545 1.433 . S
C1538 H1534 0.929 . S
C1538 C1540 1.378 . S
C1538 C1542 1.350 . S
C1539 C1542 1.463 . S
C1539 C1544 1.350 . S
C1539 N1547 1.427 . S
C1540 H1531 0.930 . S
C1540 C1538 1.378 . S
C1540 C1541 1.367 . S
C1541 C1540 1.367 . S
C1541 C1543 1.433 . S
C1542 C1538 1.350 . S
C1542 C1539 1.463 . S
C1542 N1546 1.427 . S
C1543 H1533 0.929 . S
C1543 C1541 1.433 . S
C1543 N1546 1.384 . S
C1544 H1535 0.929 . S
C1544 C1536 1.378 . S
C1544 C1539 1.350 . S
C1545 H1532 0.929 . S
C1545 C1537 1.433 . S
C1545 N1547 1.384 . S
N1546 C1542 1.427 . S
N1546 C1543 1.384 . S
N1547 C1539 1.427 . S
N1547 C1545 1.384 . S
H1548 C1554 0.930 . S
H1549 C1558 0.930 . S
H1550 C1563 0.929 . S
H1551 C1561 0.929 . S
H1552 C1556 0.929 . S
H1553 C1562 0.929 . S
C1554 H1548 0.930 . S
C1554 C1555 1.367 . S
C1554 C1562 1.378 . S
C1555 C1554 1.367 . S
C1555 C1563 1.433 . S
C1556 H1552 0.929 . S
C1556 C1558 1.378 . S
C1556 C1560 1.350 . S
C1557 C1560 1.463 . S
C1557 C1562 1.350 . S
C1557 N1565 1.427 . S
C1558 H1549 0.930 . S
C1558 C1556 1.378 . S
C1558 C1559 1.367 . S
C1559 C1558 1.367 . S
C1559 C1561 1.433 . S
C1560 C1556 1.350 . S
C1560 C1557 1.463 . S
C1560 N1564 1.427 . S
C1561 H1551 0.929 . S
C1561 C1559 1.433 . S
C1561 N1564 1.384 . S
C1562 H1553 0.929 . S
C1562 C1554 1.378 . S
C1562 C1557 1.350 . S
C1563 H1550 0.929 . S
C1563 C1555 1.433 . S
C1563 N1565 1.384 . S
N1564 C1560 1.427 . S
N1564 C1561 1.384 . S
N1565 C1557 1.427 . S
N1565 C1563 1.384 . S
H1566 C1572 0.930 . S
H1567 C1576 0.930 . S
H1568 C1581 0.929 . S
H1569 C1579 0.929 . S
H1570 C1574 0.929 . S
H1571 C1580 0.929 . S
C1572 H1566 0.930 . S
C1572 C1573 1.367 . S
C1572 C1580 1.378 . S
C1573 C1572 1.367 . S
C1573 C1581 1.433 . S
C1574 H1570 0.929 . S
C1574 C1576 1.378 . S
C1574 C1578 1.350 . S
C1575 C1578 1.463 . S
C1575 C1580 1.350 . S
C1575 N1583 1.427 . S
C1576 H1567 0.930 . S
C1576 C1574 1.378 . S
C1576 C1577 1.367 . S
C1577 C1576 1.367 . S
C1577 C1579 1.433 . S
C1578 C1574 1.350 . S
C1578 C1575 1.463 . S
C1578 N1582 1.427 . S
C1579 H1569 0.929 . S
C1579 C1577 1.433 . S
C1579 N1582 1.384 . S
C1580 H1571 0.929 . S
C1580 C1572 1.378 . S
C1580 C1575 1.350 . S
C1581 H1568 0.929 . S
C1581 C1573 1.433 . S
C1581 N1583 1.384 . S
N1582 C1578 1.427 . S
N1582 C1579 1.384 . S
N1583 C1575 1.427 . S
N1583 C1581 1.384 . S
H1584 C1590 0.930 . S
H1585 C1594 0.930 . S
H1586 C1599 0.929 . S
H1587 C1597 0.929 . S
H1588 C1592 0.929 . S
H1589 C1598 0.929 . S
C1590 H1584 0.930 . S
C1590 C1591 1.367 . S
C1590 C1598 1.378 . S
C1591 C1590 1.367 . S
C1591 C1599 1.433 . S
C1592 H1588 0.929 . S
C1592 C1594 1.378 . S
C1592 C1596 1.350 . S
C1593 C1596 1.463 . S
C1593 C1598 1.350 . S
C1593 N1601 1.427 . S
C1594 H1585 0.930 . S
C1594 C1592 1.378 . S
C1594 C1595 1.367 . S
C1595 C1594 1.367 . S
C1595 C1597 1.433 . S
C1596 C1592 1.350 . S
C1596 C1593 1.463 . S
C1596 N1600 1.427 . S
C1597 H1587 0.929 . S
C1597 C1595 1.433 . S
C1597 N1600 1.384 . S
C1598 H1589 0.929 . S
C1598 C1590 1.378 . S
C1598 C1593 1.350 . S
C1599 H1586 0.929 . S
C1599 C1591 1.433 . S
C1599 N1601 1.384 . S
N1600 C1596 1.427 . S
N1600 C1597 1.384 . S
N1601 C1593 1.427 . S
N1601 C1599 1.384 . S
H1602 C1608 0.930 . S
H1603 C1612 0.930 . S
H1604 C1617 0.929 . S
H1605 C1615 0.929 . S
H1606 C1610 0.929 . S
H1607 C1616 0.929 . S
C1608 H1602 0.930 . S
C1608 C1609 1.367 . S
C1608 C1616 1.378 . S
C1609 C1608 1.367 . S
C1609 C1617 1.433 . S
C1610 H1606 0.929 . S
C1610 C1612 1.378 . S
C1610 C1614 1.350 . S
C1611 C1614 1.463 . S
C1611 C1616 1.350 . S
C1611 N1619 1.427 . S
C1612 H1603 0.930 . S
C1612 C1610 1.378 . S
C1612 C1613 1.367 . S
C1613 C1612 1.367 . S
C1613 C1615 1.433 . S
C1614 C1610 1.350 . S
C1614 C1611 1.463 . S
C1614 N1618 1.427 . S
C1615 H1605 0.929 . S
C1615 C1613 1.433 . S
C1615 N1618 1.384 . S
C1616 H1607 0.929 . S
C1616 C1608 1.378 . S
C1616 C1611 1.350 . S
C1617 H1604 0.929 . S
C1617 C1609 1.433 . S
C1617 N1619 1.384 . S
N1618 C1614 1.427 . S
N1618 C1615 1.384 . S
N1619 C1611 1.427 . S
N1619 C1617 1.384 . S
H1620 C1626 0.930 . S
H1621 C1630 0.930 . S
H1622 C1635 0.929 . S
H1623 C1633 0.929 . S
H1624 C1628 0.929 . S
H1625 C1634 0.929 . S
C1626 H1620 0.930 . S
C1626 C1627 1.367 . S
C1626 C1634 1.378 . S
C1627 C1626 1.367 . S
C1627 C1635 1.433 . S
C1628 H1624 0.929 . S
C1628 C1630 1.378 . S
C1628 C1632 1.350 . S
C1629 C1632 1.463 . S
C1629 C1634 1.350 . S
C1629 N1637 1.427 . S
C1630 H1621 0.930 . S
C1630 C1628 1.378 . S
C1630 C1631 1.367 . S
C1631 C1630 1.367 . S
C1631 C1633 1.433 . S
C1632 C1628 1.350 . S
C1632 C1629 1.463 . S
C1632 N1636 1.427 . S
C1633 H1623 0.929 . S
C1633 C1631 1.433 . S
C1633 N1636 1.384 . S
C1634 H1625 0.929 . S
C1634 C1626 1.378 . S
C1634 C1629 1.350 . S
C1635 H1622 0.929 . S
C1635 C1627 1.433 . S
C1635 N1637 1.384 . S
N1636 C1632 1.427 . S
N1636 C1633 1.384 . S
N1637 C1629 1.427 . S
N1637 C1635 1.384 . S
H1638 C1644 0.930 . S
H1639 C1648 0.930 . S
H1640 C1653 0.929 . S
H1641 C1651 0.929 1_565 S
H1642 C1646 0.929 . S
H1643 C1652 0.973 . S
C1644 H1638 0.930 . S
C1644 C1645 1.367 . S
C1644 C1652 1.378 . S
C1645 C1644 1.367 . S
C1645 C1653 1.433 . S
C1646 H1642 0.929 . S
C1646 C1648 1.378 . S
C1646 C1650 1.350 . S
C1647 C1650 1.463 . S
C1647 C1652 1.350 . S
C1647 N1655 1.427 . S
C1648 H1639 0.930 . S
C1648 C1646 1.378 . S
C1648 C1649 1.367 . S
C1649 C1648 1.367 . S
C1649 C1651 1.433 . S
C1650 C1646 1.350 . S
C1650 C1647 1.463 . S
C1650 N1654 1.427 . S
C1651 H1641 0.929 1_545 S
C1651 C1649 1.433 . S
C1651 N1654 1.384 . S
C1652 H1643 0.973 . S
C1652 C1644 1.378 . S
C1652 C1647 1.350 . S
C1653 H1640 0.929 . S
C1653 C1645 1.433 . S
C1653 N1655 1.384 . S
N1654 C1650 1.427 . S
N1654 C1651 1.384 . S
N1655 C1647 1.427 . S
N1655 C1653 1.384 . S
H1656 C1662 0.930 . S
H1657 C1666 0.930 . S
H1658 C1671 0.929 . S
H1659 C1669 0.929 . S
H1660 C1664 0.929 . S
H1661 C1670 0.929 . S
C1662 H1656 0.930 . S
C1662 C1663 1.367 . S
C1662 C1670 1.378 . S
C1663 C1662 1.367 . S
C1663 C1671 1.433 . S
C1664 H1660 0.929 . S
C1664 C1666 1.378 . S
C1664 C1668 1.350 . S
C1665 C1668 1.463 . S
C1665 C1670 1.350 . S
C1665 N1673 1.427 . S
C1666 H1657 0.930 . S
C1666 C1664 1.378 . S
C1666 C1667 1.367 . S
C1667 C1666 1.367 . S
C1667 C1669 1.433 . S
C1668 C1664 1.350 . S
C1668 C1665 1.463 . S
C1668 N1672 1.427 . S
C1669 H1659 0.929 . S
C1669 C1667 1.433 . S
C1669 N1672 1.384 . S
C1670 H1661 0.929 . S
C1670 C1662 1.378 . S
C1670 C1665 1.350 . S
C1671 H1658 0.929 . S
C1671 C1663 1.433 . S
C1671 N1673 1.384 . S
N1672 C1668 1.427 . S
N1672 C1669 1.384 . S
N1673 C1665 1.427 . S
N1673 C1671 1.384 . S
H1674 C1680 0.930 . S
H1675 C1684 0.930 . S
H1676 C1689 0.929 . S
H1677 C1687 0.929 . S
H1678 C1682 0.929 . S
H1679 C1688 0.929 . S
C1680 H1674 0.930 . S
C1680 C1681 1.367 . S
C1680 C1688 1.378 . S
C1681 C1680 1.367 . S
C1681 C1689 1.433 . S
C1682 H1678 0.929 . S
C1682 C1684 1.378 . S
C1682 C1686 1.350 . S
C1683 C1686 1.463 . S
C1683 C1688 1.350 . S
C1683 N1691 1.427 . S
C1684 H1675 0.930 . S
C1684 C1682 1.378 . S
C1684 C1685 1.367 . S
C1685 C1684 1.367 . S
C1685 C1687 1.433 . S
C1686 C1682 1.350 . S
C1686 C1683 1.463 . S
C1686 N1690 1.427 . S
C1687 H1677 0.929 . S
C1687 C1685 1.433 . S
C1687 N1690 1.384 . S
C1688 H1679 0.929 . S
C1688 C1680 1.378 . S
C1688 C1683 1.350 . S
C1689 H1676 0.929 . S
C1689 C1681 1.433 . S
C1689 N1691 1.384 . S
N1690 C1686 1.427 . S
N1690 C1687 1.384 . S
N1691 C1683 1.427 . S
N1691 C1689 1.384 . S
H1692 C1698 0.930 . S
H1693 C1702 0.930 . S
H1694 C1707 0.929 . S
H1695 C1705 0.929 . S
H1696 C1700 0.929 . S
H1697 C1706 0.929 . S
C1698 H1692 0.930 . S
C1698 C1699 1.367 . S
C1698 C1706 1.378 . S
C1699 C1698 1.367 . S
C1699 C1707 1.433 . S
C1700 H1696 0.929 . S
C1700 C1702 1.378 . S
C1700 C1704 1.350 . S
C1701 C1704 1.463 . S
C1701 C1706 1.350 . S
C1701 N1709 1.427 . S
C1702 H1693 0.930 . S
C1702 C1700 1.378 . S
C1702 C1703 1.367 . S
C1703 C1702 1.367 . S
C1703 C1705 1.433 . S
C1704 C1700 1.350 . S
C1704 C1701 1.463 . S
C1704 N1708 1.427 . S
C1705 H1695 0.929 . S
C1705 C1703 1.433 . S
C1705 N1708 1.384 . S
C1706 H1697 0.929 . S
C1706 C1698 1.378 . S
C1706 C1701 1.350 . S
C1707 H1694 0.929 . S
C1707 C1699 1.433 . S
C1707 N1709 1.384 . S
N1708 C1704 1.427 . S
N1708 C1705 1.384 . S
N1709 C1701 1.427 . S
N1709 C1707 1.384 . S
H1710 C1716 0.930 . S
H1711 C1720 0.930 . S
H1712 C1725 0.929 1_455 S
H1713 C1723 0.929 . S
H1714 C1718 0.929 . S
H1715 C1724 0.929 . S
C1716 H1710 0.930 . S
C1716 C1717 1.367 . S
C1716 C1724 1.378 . S
C1717 C1716 1.367 . S
C1717 C1725 1.433 . S
C1718 H1714 0.929 . S
C1718 C1720 1.378 . S
C1718 C1722 1.350 1_455 S
C1719 C1722 1.463 . S
C1719 C1724 1.350 . S
C1719 N1727 1.412 1_655 S
C1720 H1711 0.930 . S
C1720 C1718 1.378 . S
C1720 C1721 1.367 1_455 S
C1721 C1720 1.367 1_655 S
C1721 C1723 1.433 . S
C1722 C1718 1.350 1_655 S
C1722 C1719 1.463 . S
C1722 N1726 1.427 . S
C1723 H1713 0.929 . S
C1723 C1721 1.433 . S
C1723 N1726 1.384 . S
C1724 H1715 0.929 . S
C1724 C1716 1.378 . S
C1724 C1719 1.350 . S
C1725 H1712 0.929 1_655 S
C1725 C1717 1.433 . S
C1725 N1727 1.380 1_655 S
N1726 C1722 1.427 . S
N1726 C1723 1.384 . S
N1727 C1719 1.412 1_455 S
N1727 C1725 1.380 1_455 S
H1728 C1734 0.930 . S
H1729 C1738 0.930 . S
H1730 C1743 0.929 . S
H1731 C1741 0.929 . S
H1732 C1736 0.929 . S
H1733 C1742 0.929 . S
C1734 H1728 0.930 . S
C1734 C1735 1.367 . S
C1734 C1742 1.378 . S
C1735 C1734 1.367 . S
C1735 C1743 1.433 . S
C1736 H1732 0.929 . S
C1736 C1738 1.378 . S
C1736 C1740 1.350 . S
C1737 C1740 1.463 . S
C1737 C1742 1.350 . S
C1737 N1745 1.427 . S
C1738 H1729 0.930 . S
C1738 C1736 1.378 . S
C1738 C1739 1.367 . S
C1739 C1738 1.367 . S
C1739 C1741 1.433 . S
C1740 C1736 1.350 . S
C1740 C1737 1.463 . S
C1740 N1744 1.427 . S
C1741 H1731 0.929 . S
C1741 C1739 1.433 . S
C1741 N1744 1.384 . S
C1742 H1733 0.929 . S
C1742 C1734 1.378 . S
C1742 C1737 1.350 . S
C1743 H1730 0.929 . S
C1743 C1735 1.433 . S
C1743 N1745 1.384 . S
N1744 C1740 1.427 . S
N1744 C1741 1.384 . S
N1745 C1737 1.427 . S
N1745 C1743 1.384 . S
H1746 C1752 0.930 . S
H1747 C1756 0.930 1_655 S
H1748 C1761 0.929 . S
H1749 C1759 0.929 . S
H1750 C1754 0.929 . S
H1751 C1760 0.929 . S
C1752 H1746 0.930 . S
C1752 C1753 1.367 . S
C1752 C1760 1.378 . S
C1753 C1752 1.367 . S
C1753 C1761 1.433 . S
C1754 H1750 0.929 . S
C1754 C1756 1.378 . S
C1754 C1758 1.350 . S
C1755 C1758 1.463 . S
C1755 C1760 1.350 . S
C1755 N1763 1.427 . S
C1756 H1747 0.930 1_455 S
C1756 C1754 1.378 . S
C1756 C1757 1.367 . S
C1757 C1756 1.367 . S
C1757 C1759 1.433 . S
C1758 C1754 1.350 . S
C1758 C1755 1.463 . S
C1758 N1762 1.427 . S
C1759 H1749 0.929 . S
C1759 C1757 1.433 . S
C1759 N1762 1.384 . S
C1760 H1751 0.929 . S
C1760 C1752 1.378 . S
C1760 C1755 1.350 . S
C1761 H1748 0.929 . S
C1761 C1753 1.433 . S
C1761 N1763 1.384 . S
N1762 C1758 1.427 . S
N1762 C1759 1.384 . S
N1763 C1755 1.427 . S
N1763 C1761 1.384 . S
H1764 C1770 0.930 . S
H1765 C1774 0.930 . S
H1766 C1779 0.929 . S
H1767 C1777 0.929 . S
H1768 C1772 0.929 . S
H1769 C1778 0.929 . S
C1770 H1764 0.930 . S
C1770 C1771 1.367 . S
C1770 C1778 1.378 . S
C1771 C1770 1.367 . S
C1771 C1779 1.433 . S
C1772 H1768 0.929 . S
C1772 C1774 1.378 . S
C1772 C1776 1.350 . S
C1773 C1776 1.463 . S
C1773 C1778 1.350 . S
C1773 N1781 1.427 . S
C1774 H1765 0.930 . S
C1774 C1772 1.378 . S
C1774 C1775 1.367 . S
C1775 C1774 1.367 . S
C1775 C1777 1.433 . S
C1776 C1772 1.350 . S
C1776 C1773 1.463 . S
C1776 N1780 1.427 . S
C1777 H1767 0.929 . S
C1777 C1775 1.433 . S
C1777 N1780 1.384 . S
C1778 H1769 0.929 . S
C1778 C1770 1.378 . S
C1778 C1773 1.350 . S
C1779 H1766 0.929 . S
C1779 C1771 1.433 . S
C1779 N1781 1.384 . S
N1780 C1776 1.427 . S
N1780 C1777 1.384 . S
N1781 C1773 1.427 . S
N1781 C1779 1.384 . S
H1782 C1788 0.930 . S
H1783 C1792 0.930 . S
H1784 C1797 0.929 . S
H1785 C1795 0.929 . S
H1786 C1790 0.929 . S
H1787 C1796 0.929 . S
C1788 H1782 0.930 . S
C1788 C1789 1.367 . S
C1788 C1796 1.378 . S
C1789 C1788 1.367 . S
C1789 C1797 1.433 . S
C1790 H1786 0.929 . S
C1790 C1792 1.378 . S
C1790 C1794 1.350 . S
C1791 C1794 1.463 . S
C1791 C1796 1.350 . S
C1791 N1799 1.427 . S
C1792 H1783 0.930 . S
C1792 C1790 1.378 . S
C1792 C1793 1.367 . S
C1793 C1792 1.367 . S
C1793 C1795 1.433 . S
C1794 C1790 1.350 . S
C1794 C1791 1.463 . S
C1794 N1798 1.427 . S
C1795 H1785 0.929 . S
C1795 C1793 1.433 . S
C1795 N1798 1.384 . S
C1796 H1787 0.929 . S
C1796 C1788 1.378 . S
C1796 C1791 1.350 . S
C1797 H1784 0.929 . S
C1797 C1789 1.433 . S
C1797 N1799 1.384 . S
N1798 C1794 1.427 . S
N1798 C1795 1.384 . S
N1799 C1791 1.427 . S
N1799 C1797 1.384 . S
H1800 C1806 0.930 . S
H1801 C1810 0.930 . S
H1802 C1815 0.929 . S
H1803 C1813 0.929 . S
H1804 C1808 0.929 . S
H1805 C1814 0.929 . S
C1806 H1800 0.930 . S
C1806 C1807 1.367 . S
C1806 C1814 1.378 . S
C1807 C1806 1.367 . S
C1807 C1815 1.433 . S
C1808 H1804 0.929 . S
C1808 C1810 1.378 . S
C1808 C1812 1.350 . S
C1809 C1812 1.463 . S
C1809 C1814 1.350 . S
C1809 N1817 1.427 . S
C1810 H1801 0.930 . S
C1810 C1808 1.378 . S
C1810 C1811 1.367 . S
C1811 C1810 1.367 . S
C1811 C1813 1.433 . S
C1812 C1808 1.350 . S
C1812 C1809 1.463 . S
C1812 N1816 1.427 . S
C1813 H1803 0.929 . S
C1813 C1811 1.433 . S
C1813 N1816 1.384 . S
C1814 H1805 0.929 . S
C1814 C1806 1.378 . S
C1814 C1809 1.350 . S
C1815 H1802 0.929 . S
C1815 C1807 1.433 . S
C1815 N1817 1.384 . S
N1816 C1812 1.427 . S
N1816 C1813 1.384 . S
N1817 C1809 1.427 . S
N1817 C1815 1.384 . S
H1818 C1824 0.930 . S
H1819 C1828 0.930 . S
H1820 C1833 0.929 . S
H1821 C1831 0.929 . S
H1822 C1826 0.929 . S
H1823 C1832 0.929 . S
C1824 H1818 0.930 . S
C1824 C1825 1.367 . S
C1824 C1832 1.378 . S
C1825 C1824 1.367 . S
C1825 C1833 1.433 . S
C1826 H1822 0.929 . S
C1826 C1828 1.378 . S
C1826 C1830 1.350 . S
C1827 C1830 1.463 . S
C1827 C1832 1.350 . S
C1827 N1835 1.427 . S
C1828 H1819 0.930 . S
C1828 C1826 1.378 . S
C1828 C1829 1.367 . S
C1829 C1828 1.367 . S
C1829 C1831 1.433 . S
C1830 C1826 1.350 . S
C1830 C1827 1.463 . S
C1830 N1834 1.427 . S
C1831 H1821 0.929 . S
C1831 C1829 1.433 . S
C1831 N1834 1.384 . S
C1832 H1823 0.929 . S
C1832 C1824 1.378 . S
C1832 C1827 1.350 . S
C1833 H1820 0.929 . S
C1833 C1825 1.433 . S
C1833 N1835 1.384 . S
N1834 C1830 1.427 . S
N1834 C1831 1.384 . S
N1835 C1827 1.427 . S
N1835 C1833 1.384 . S
H1836 C1842 0.930 . S
H1837 C1846 0.930 . S
H1838 C1851 0.929 . S
H1839 C1849 0.929 . S
H1840 C1844 0.929 . S
H1841 C1850 0.929 . S
C1842 H1836 0.930 . S
C1842 C1843 1.367 . S
C1842 C1850 1.378 . S
C1843 C1842 1.367 . S
C1843 C1851 1.433 . S
C1844 H1840 0.929 . S
C1844 C1846 1.378 . S
C1844 C1848 1.350 . S
C1845 C1848 1.463 . S
C1845 C1850 1.350 . S
C1845 N1853 1.427 . S
C1846 H1837 0.930 . S
C1846 C1844 1.378 . S
C1846 C1847 1.367 . S
C1847 C1846 1.367 . S
C1847 C1849 1.433 . S
C1848 C1844 1.350 . S
C1848 C1845 1.463 . S
C1848 N1852 1.427 . S
C1849 H1839 0.929 . S
C1849 C1847 1.433 . S
C1849 N1852 1.384 . S
C1850 H1841 0.929 . S
C1850 C1842 1.378 . S
C1850 C1845 1.350 . S
C1851 H1838 0.929 . S
C1851 C1843 1.433 . S
C1851 N1853 1.384 . S
N1852 C1848 1.427 . S
N1852 C1849 1.384 . S
N1853 C1845 1.427 . S
N1853 C1851 1.384 . S
H1854 C1860 0.930 . S
H1855 C1864 0.930 . S
H1856 C1869 0.929 . S
H1857 C1867 0.929 . S
H1858 C1862 0.929 . S
H1859 C1868 0.929 . S
C1860 H1854 0.930 . S
C1860 C1861 1.367 . S
C1860 C1868 1.378 . S
C1861 C1860 1.367 . S
C1861 C1869 1.433 . S
C1862 H1858 0.929 . S
C1862 C1864 1.378 . S
C1862 C1866 1.350 . S
C1863 C1866 1.463 . S
C1863 C1868 1.350 . S
C1863 N1871 1.427 . S
C1864 H1855 0.930 . S
C1864 C1862 1.378 . S
C1864 C1865 1.367 . S
C1865 C1864 1.367 . S
C1865 C1867 1.433 . S
C1866 C1862 1.350 . S
C1866 C1863 1.463 . S
C1866 N1870 1.427 . S
C1867 H1857 0.929 . S
C1867 C1865 1.433 . S
C1867 N1870 1.384 . S
C1868 H1859 0.929 . S
C1868 C1860 1.378 . S
C1868 C1863 1.350 . S
C1869 H1856 0.929 . S
C1869 C1861 1.433 . S
C1869 N1871 1.384 . S
N1870 C1866 1.427 . S
N1870 C1867 1.384 . S
N1871 C1863 1.427 . S
N1871 C1869 1.384 . S
H1872 C1878 0.930 . S
H1873 C1882 0.930 . S
H1874 C1887 0.929 . S
H1875 C1885 0.929 . S
H1876 C1880 0.929 . S
H1877 C1886 0.929 . S
C1878 H1872 0.930 . S
C1878 C1879 1.367 . S
C1878 C1886 1.378 . S
C1879 C1878 1.367 . S
C1879 C1887 1.433 . S
C1880 H1876 0.929 . S
C1880 C1882 1.378 . S
C1880 C1884 1.350 . S
C1881 C1884 1.463 . S
C1881 C1886 1.350 . S
C1881 N1889 1.427 . S
C1882 H1873 0.930 . S
C1882 C1880 1.378 . S
C1882 C1883 1.367 . S
C1883 C1882 1.367 . S
C1883 C1885 1.433 . S
C1884 C1880 1.350 . S
C1884 C1881 1.463 . S
C1884 N1888 1.427 . S
C1885 H1875 0.929 . S
C1885 C1883 1.433 . S
C1885 N1888 1.384 . S
C1886 H1877 0.929 . S
C1886 C1878 1.378 . S
C1886 C1881 1.350 . S
C1887 H1874 0.929 . S
C1887 C1879 1.433 . S
C1887 N1889 1.384 . S
N1888 C1884 1.427 . S
N1888 C1885 1.384 . S
N1889 C1881 1.427 . S
N1889 C1887 1.384 . S
H1890 C1896 0.930 . S
H1891 C1900 0.930 . S
H1892 C1905 0.929 . S
H1893 C1903 0.929 . S
H1894 C1898 0.929 . S
H1895 C1904 0.929 . S
C1896 H1890 0.930 . S
C1896 C1897 1.367 . S
C1896 C1904 1.378 . S
C1897 C1896 1.367 . S
C1897 C1905 1.433 . S
C1898 H1894 0.929 . S
C1898 C1900 1.378 . S
C1898 C1902 1.350 . S
C1899 C1902 1.463 . S
C1899 C1904 1.350 . S
C1899 N1907 1.427 . S
C1900 H1891 0.930 . S
C1900 C1898 1.378 . S
C1900 C1901 1.367 . S
C1901 C1900 1.367 . S
C1901 C1903 1.433 . S
C1902 C1898 1.350 . S
C1902 C1899 1.463 . S
C1902 N1906 1.427 . S
C1903 H1893 0.929 . S
C1903 C1901 1.433 . S
C1903 N1906 1.384 . S
C1904 H1895 0.929 . S
C1904 C1896 1.378 . S
C1904 C1899 1.350 . S
C1905 H1892 0.929 . S
C1905 C1897 1.433 . S
C1905 N1907 1.384 . S
N1906 C1902 1.427 . S
N1906 C1903 1.384 . S
N1907 C1899 1.427 . S
N1907 C1905 1.384 . S
H1908 C1914 0.930 . S
H1909 C1918 0.930 . S
H1910 C1923 0.929 . S
H1911 C1921 0.929 . S
H1912 C1916 0.929 . S
H1913 C1922 0.929 . S
C1914 H1908 0.930 . S
C1914 C1915 1.367 . S
C1914 C1922 1.378 . S
C1915 C1914 1.367 . S
C1915 C1923 1.433 . S
C1916 H1912 0.929 . S
C1916 C1918 1.378 . S
C1916 C1920 1.350 . S
C1917 C1920 1.463 . S
C1917 C1922 1.350 . S
C1917 N1925 1.427 . S
C1918 H1909 0.930 . S
C1918 C1916 1.378 . S
C1918 C1919 1.367 . S
C1919 C1918 1.367 . S
C1919 C1921 1.433 . S
C1920 C1916 1.350 . S
C1920 C1917 1.463 . S
C1920 N1924 1.427 . S
C1921 H1911 0.929 . S
C1921 C1919 1.433 . S
C1921 N1924 1.384 . S
C1922 H1913 0.929 . S
C1922 C1914 1.378 . S
C1922 C1917 1.350 . S
C1923 H1910 0.929 . S
C1923 C1915 1.433 . S
C1923 N1925 1.384 . S
N1924 C1920 1.427 . S
N1924 C1921 1.384 . S
N1925 C1917 1.427 . S
N1925 C1923 1.384 . S
H1926 C1932 0.930 . S
H1927 C1936 0.930 . S
H1928 C1941 0.929 . S
H1929 C1939 0.929 . S
H1930 C1934 0.929 . S
H1931 C1940 0.929 . S
C1932 H1926 0.930 . S
C1932 C1933 1.367 . S
C1932 C1940 1.378 . S
C1933 C1932 1.367 . S
C1933 C1941 1.433 . S
C1934 H1930 0.929 . S
C1934 C1936 1.378 . S
C1934 C1938 1.350 . S
C1935 C1938 1.463 . S
C1935 C1940 1.350 . S
C1935 N1943 1.427 . S
C1936 H1927 0.930 . S
C1936 C1934 1.378 . S
C1936 C1937 1.367 . S
C1937 C1936 1.367 . S
C1937 C1939 1.433 . S
C1938 C1934 1.350 . S
C1938 C1935 1.463 . S
C1938 N1942 1.427 . S
C1939 H1929 0.929 . S
C1939 C1937 1.433 . S
C1939 N1942 1.384 . S
C1940 H1931 0.929 . S
C1940 C1932 1.378 . S
C1940 C1935 1.350 . S
C1941 H1928 0.929 . S
C1941 C1933 1.433 . S
C1941 N1943 1.384 . S
N1942 C1938 1.427 . S
N1942 C1939 1.384 . S
N1943 C1935 1.427 . S
N1943 C1941 1.384 . S
H1944 C1950 0.930 . S
H1945 C1954 0.930 . S
H1946 C1959 0.929 . S
H1947 C1957 0.920 1_556 S
H1948 C1952 0.929 . S
H1949 C1958 0.929 . S
C1950 H1944 0.930 . S
C1950 C1951 1.367 . S
C1950 C1958 1.378 . S
C1951 C1950 1.367 . S
C1951 C1959 1.433 . S
C1952 H1948 0.929 . S
C1952 C1954 1.378 . S
C1952 C1956 1.350 . S
C1953 C1956 1.463 . S
C1953 C1958 1.350 . S
C1953 N1961 1.427 . S
C1954 H1945 0.930 . S
C1954 C1952 1.378 . S
C1954 C1955 1.367 . S
C1955 C1954 1.367 . S
C1955 C1957 1.440 . S
C1956 C1952 1.350 . S
C1956 C1953 1.463 . S
C1956 N1960 1.427 . S
C1957 H1947 0.920 1_554 S
C1957 C1955 1.440 . S
C1957 N1960 1.386 . S
C1958 H1949 0.929 . S
C1958 C1950 1.378 . S
C1958 C1953 1.350 . S
C1959 H1946 0.929 . S
C1959 C1951 1.433 . S
C1959 N1961 1.384 . S
N1960 C1956 1.427 . S
N1960 C1957 1.386 . S
N1961 C1953 1.427 . S
N1961 C1959 1.384 . S
H1962 C1968 0.930 . S
H1963 C1972 0.930 1_556 S
H1964 C1977 0.905 1_556 S
H1965 C1975 0.929 . S
H1966 C1970 0.929 1_556 S
H1967 C1976 0.929 . S
C1968 H1962 0.930 . S
C1968 C1969 1.367 . S
C1968 C1976 1.378 . S
C1969 C1968 1.367 . S
C1969 C1977 1.433 . S
C1970 H1966 0.929 1_554 S
C1970 C1972 1.378 . S
C1970 C1974 1.350 . S
C1971 C1974 1.463 . S
C1971 C1976 1.350 . S
C1971 N1979 1.427 . S
C1972 H1963 0.930 1_554 S
C1972 C1970 1.378 . S
C1972 C1973 1.367 . S
C1973 C1972 1.367 . S
C1973 C1975 1.433 . S
C1974 C1970 1.350 . S
C1974 C1971 1.463 . S
C1974 N1978 1.427 . S
C1975 H1965 0.929 . S
C1975 C1973 1.433 . S
C1975 N1978 1.384 . S
C1976 H1967 0.929 . S
C1976 C1968 1.378 . S
C1976 C1971 1.350 . S
C1977 H1964 0.905 1_554 S
C1977 C1969 1.433 . S
C1977 N1979 1.384 . S
N1978 C1974 1.427 . S
N1978 C1975 1.384 . S
N1979 C1971 1.427 . S
N1979 C1977 1.384 . S
C1127 C970 1.418 . S
C1123 C331 1.395 . S
C1145 C983 1.599 . S
C1141 C380 1.596 . S
C1159 C421 1.437 . S
C1163 C996 1.445 . S
C1181 C1009 1.520 . S
C1177 C260 1.503 . S
C1199 C1017 1.462 . S
C1195 C620 1.470 . S
C1217 C1030 1.411 . S
C1213 C740 1.418 . S
C1231 C680 1.501 . S
C1235 C1043 1.499 . S
C1253 C1056 1.494 . S
C1249 C571 1.491 . S
C1267 C691 1.423 . S
C1271 C1074 1.432 . S
C1289 C1085 1.518 . S
C1285 C541 1.526 . S
C1303 C601 1.434 . S
C1307 C1069 1.438 . S
C1325 C1077 1.465 . S
C1321 C721 1.461 . S
C1339 C451 1.480 . S
C1343 C1100 1.484 . S
C1357 C241 1.495 . S
C1361 C1090 1.483 . S
C1375 C320 1.490 . S
C1379 C1095 1.482 . S
C1393 C391 1.548 . S
C1397 C1098 1.539 . S
C1411 C211 1.426 . S
C1415 C1007 1.430 . S
C1429 C841 1.398 . S
C1433 C999 1.405 . S
C1451 C968 1.547 . S
C1447 C901 1.554 . S
C1469 C973 1.496 . S
C1465 C500 1.494 . S
C1483 C271 1.509 . S
C1487 C1020 1.513 . S
C1505 C1059 1.501 . S
C1501 C661 1.514 . S
C1523 C1012 1.481 . S
C1519 C560 1.497 . S
C1541 C1038 1.447 . S
C1537 C751 1.464 . S
C1559 C1048 1.416 . S
C1555 C871 1.403 . S
C1573 C920 1.596 . S
C1577 C1061 1.601 . S
C1591 C481 1.437 . S
C1595 C1022 1.440 . S
C1613 C1035 1.519 . S
C1609 C800 1.504 . S
C1627 C200 1.467 . S
C1631 C991 1.456 . S
C1649 C1004 1.419 . S
C1645 C20 1.408 . S
C1667 C965 1.502 . S
C1663 C80 1.498 . S
C1685 C978 1.495 . S
C1681 C151 1.491 . S
C1699 C91 1.413 . S
C1703 C1087 1.426 . S
C1717 C121 1.527 . S
C1721 C1072 1.502 1_655 S
C1735 C181 1.427 . S
C1739 C1082 1.429 . S
C1753 C1 1.465 . S
C1757 C1064 1.462 . S
C1775 C1113 1.484 . S
C1771 C511 1.480 . S
C1793 C1103 1.484 . S
C1789 C781 1.492 . S
C1811 C1108 1.485 . S
C1807 C860 1.483 . S
C1825 C931 1.550 . S
C1829 C1111 1.536 . S
C1843 C631 1.423 . S
C1847 C1033 1.430 . S
C1865 C1025 1.406 . S
C1861 C301 1.398 . S
C1883 C1046 1.545 . S
C1879 C361 1.556 . S
C1901 C1051 1.498 . S
C1897 C440 1.502 . S
C1915 C811 1.519 . S
C1919 C994 1.518 . S
C1937 C981 1.504 . S
C1933 C61 1.514 . S
C1951 C140 1.490 . S
C1955 C986 1.488 . S
C1973 C960 1.445 . S
C1969 C31 1.465 . S
