# Generated by pormake.
# Topology zzz, (3,6)-cn, num edge types: 1
# Building blocks:
#     Node 0, Type 0, BuildingBlock: BELTOD_clean_linker_0, # of connection points: 3
#     Node 1, Type 0, BuildingBlock: BELTOD_clean_linker_0, # of connection points: 3
#     Node 2, Type 0, BuildingBlock: BELTOD_clean_linker_0, # of connection points: 3
#     Node 3, Type 0, BuildingBlock: BELTOD_clean_linker_0, # of connection points: 3
#     Node 4, Type 0, BuildingBlock: BELTOD_clean_linker_0, # of connection points: 3
#     Node 5, Type 0, BuildingBlock: BELTOD_clean_linker_0, # of connection points: 3
#     Node 6, Type 0, BuildingBlock: BELTOD_clean_linker_0, # of connection points: 3
#     Node 7, Type 0, BuildingBlock: BELTOD_clean_linker_0, # of connection points: 3
#     Node 8, Type 1, BuildingBlock: KUMJIN_clean_sbu_1, # of connection points: 6
#     Node 9, Type 1, BuildingBlock: KUMJIN_clean_sbu_1, # of connection points: 6
#     Node 10, Type 1, BuildingBlock: KUMJIN_clean_sbu_1, # of connection points: 6
#     Node 11, Type 1, BuildingBlock: KUMJIN_clean_sbu_1, # of connection points: 6
#     Edge 12, Type (0, 1), BuildingBlock: UVAHIK_clean_linker_0, # of connection points: 2
#     Edge 13, Type (0, 1), BuildingBlock: UVAHIK_clean_linker_0, # of connection points: 2
#     Edge 14, Type (0, 1), BuildingBlock: UVAHIK_clean_linker_0, # of connection points: 2
#     Edge 15, Type (0, 1), BuildingBlock: UVAHIK_clean_linker_0, # of connection points: 2
#     Edge 16, Type (0, 1), BuildingBlock: UVAHIK_clean_linker_0, # of connection points: 2
#     Edge 17, Type (0, 1), BuildingBlock: UVAHIK_clean_linker_0, # of connection points: 2
#     Edge 18, Type (0, 1), BuildingBlock: UVAHIK_clean_linker_0, # of connection points: 2
#     Edge 19, Type (0, 1), BuildingBlock: UVAHIK_clean_linker_0, # of connection points: 2
#     Edge 20, Type (0, 1), BuildingBlock: UVAHIK_clean_linker_0, # of connection points: 2
#     Edge 21, Type (0, 1), BuildingBlock: UVAHIK_clean_linker_0, # of connection points: 2
#     Edge 22, Type (0, 1), BuildingBlock: UVAHIK_clean_linker_0, # of connection points: 2
#     Edge 23, Type (0, 1), BuildingBlock: UVAHIK_clean_linker_0, # of connection points: 2
#     Edge 24, Type (0, 1), BuildingBlock: UVAHIK_clean_linker_0, # of connection points: 2
#     Edge 25, Type (0, 1), BuildingBlock: UVAHIK_clean_linker_0, # of connection points: 2
#     Edge 26, Type (0, 1), BuildingBlock: UVAHIK_clean_linker_0, # of connection points: 2
#     Edge 27, Type (0, 1), BuildingBlock: UVAHIK_clean_linker_0, # of connection points: 2
#     Edge 28, Type (0, 1), BuildingBlock: UVAHIK_clean_linker_0, # of connection points: 2
#     Edge 29, Type (0, 1), BuildingBlock: UVAHIK_clean_linker_0, # of connection points: 2
#     Edge 30, Type (0, 1), BuildingBlock: UVAHIK_clean_linker_0, # of connection points: 2
#     Edge 31, Type (0, 1), BuildingBlock: UVAHIK_clean_linker_0, # of connection points: 2
#     Edge 32, Type (0, 1), BuildingBlock: UVAHIK_clean_linker_0, # of connection points: 2
#     Edge 33, Type (0, 1), BuildingBlock: UVAHIK_clean_linker_0, # of connection points: 2
#     Edge 34, Type (0, 1), BuildingBlock: UVAHIK_clean_linker_0, # of connection points: 2
#     Edge 35, Type (0, 1), BuildingBlock: UVAHIK_clean_linker_0, # of connection points: 2
# Relax obj value: 0.272
# Max RMSD: 0.194
# Mean RMSD: 0.169
data_MOF--net-zzz--node1-KUMJIN_clean_sbu_1--node2-BELTOD_clean_linker_0--edge1-UVAHIK_clean_linker_0
_symmetry_space_group_name_H-M    P1
_symmetry_Int_Tables_number       1
_symmetry_cell_setting            triclinic
loop_
_symmetry_equiv_pos_as_xyz
'x, y, z'
_cell_length_a     66.983281
_cell_length_b     67.273301
_cell_length_c     24.69338
_cell_angle_alpha  90.08017
_cell_angle_beta   89.826691
_cell_angle_gamma 90.317207
loop_
_atom_site_label
_atom_site_type_symbol
_atom_site_fract_x
_atom_site_fract_y
_atom_site_fract_z
_atom_type_partial_charge
P0 P 0.73612 0.50438 0.19016 0.0
H1 H 0.74506 0.48578 0.29451 0.0
H2 H 0.77121 0.49298 0.36027 0.0
H3 H 0.78215 0.54961 0.28335 0.0
H4 H 0.75577 0.54233 0.21758 0.0
H5 H 0.698 0.48324 0.18457 0.0
H6 H 0.66667 0.49175 0.14189 0.0
H7 H 0.68693 0.55249 0.12391 0.0
H8 H 0.71874 0.54363 0.16646 0.0
H9 H 0.77931 0.50613 0.17489 0.0
H10 H 0.72692 0.51488 0.07648 0.0
O11 O 0.73581 0.47959 0.19291 0.0
H12 H 0.80045 0.51498 0.09827 0.0
H13 H 0.74805 0.52419 0.99999 0.0
C14 C 0.74862 0.51337 0.25047 0.0
C15 C 0.75252 0.50009 0.29288 0.0
C16 C 0.76757 0.50421 0.33059 0.0
C17 C 0.77911 0.52168 0.32639 0.0
C18 C 0.77379 0.53585 0.28711 0.0
C19 C 0.75852 0.53182 0.24984 0.0
C20 C 0.71085 0.51276 0.17854 0.0
C21 C 0.69557 0.49857 0.1732 0.0
C22 C 0.6775 0.5035 0.1486 0.0
C23 C 0.67426 0.52278 0.12856 0.0
C24 C 0.68901 0.53741 0.138 0.0
C25 C 0.70711 0.53246 0.1631 0.0
C26 C 0.75146 0.51077 0.1325 0.0
C27 C 0.7723 0.5104 0.13723 0.0
C28 C 0.7844 0.51553 0.09335 0.0
C29 C 0.77591 0.52079 0.04341 0.0
C30 C 0.75503 0.52043 0.03811 0.0
C31 C 0.74291 0.5153 0.08217 0.0
P32 P 0.01637 0.73632 0.19735 0.0
H33 H 0.02748 0.7443 0.30991 0.0
H34 H 0.01808 0.77105 0.3713 0.0
H35 H 0.97036 0.78751 0.26337 0.0
H36 H 0.97983 0.76043 0.20189 0.0
H37 H 0.02572 0.69467 0.21875 0.0
H38 H 0.01643 0.6644 0.17061 0.0
H39 H 0.97162 0.69686 0.08232 0.0
H40 H 0.98069 0.72713 0.13205 0.0
H41 H 0.01854 0.77969 0.18094 0.0
H42 H 0.02219 0.72676 0.08243 0.0
O43 O 0.03954 0.73097 0.21704 0.0
H44 H 0.02107 0.80018 0.09994 0.0
H45 H 0.02465 0.74726 1.00123 0.0
C46 C 0.00456 0.75053 0.25078 0.0
C47 C 0.01456 0.75318 0.30015 0.0
C48 C 0.00915 0.76855 0.33541 0.0
C49 C 0.99371 0.78168 0.32176 0.0
C50 C 0.98253 0.77784 0.27461 0.0
C51 C 0.98778 0.76222 0.23972 0.0
C52 C 0.00417 0.71329 0.17831 0.0
C53 C 0.01345 0.69521 0.19038 0.0
C54 C 0.00826 0.67789 0.16226 0.0
C55 C 0.99371 0.67829 0.12125 0.0
C56 C 0.98295 0.69599 0.11338 0.0
C57 C 0.98809 0.71333 0.14196 0.0
C58 C 0.01901 0.75161 0.1377 0.0
C59 C 0.01943 0.77241 0.14194 0.0
C60 C 0.02095 0.78416 0.09554 0.0
C61 C 0.02263 0.77532 0.04414 0.0
C62 C 0.02322 0.75449 0.04025 0.0
C63 C 0.02159 0.74276 0.08668 0.0
P64 P 0.78558 0.02763 0.21546 0.0
H65 H 0.76054 0.05282 0.28187 0.0
H66 H 0.73277 0.04615 0.34191 0.0
H67 H 0.74473 0.98317 0.33164 0.0
H68 H 0.77263 0.99015 0.26939 0.0
H69 H 0.82726 0.0397 0.23018 0.0
H70 H 0.85704 0.02815 0.18378 0.0
H71 H 0.82538 0.97518 0.13323 0.0
H72 H 0.79534 0.98718 0.17907 0.0
H73 H 0.74567 0.01128 0.18838 0.0
H74 H 0.79725 0.03443 0.10365 0.0
O75 O 0.79093 0.05188 0.21806 0.0
H76 H 0.72988 0.00354 0.10262 0.0
H77 H 0.78156 0.02623 0.01703 0.0
C78 C 0.76907 0.02204 0.27183 0.0
C79 C 0.75771 0.03757 0.2937 0.0
C80 C 0.74166 0.0337 0.32836 0.0
C81 C 0.73633 0.01408 0.34217 0.0
C82 C 0.74821 0.99847 0.32171 0.0
C83 C 0.76441 1.00243 0.28674 0.0
C84 C 0.80891 0.01446 0.2077 0.0
C85 C 0.82687 0.02521 0.2111 0.0
C86 C 0.84401 0.01856 0.18417 0.0
C87 C 0.84356 1.00094 0.15333 0.0
C88 C 0.82616 0.98907 0.15536 0.0
C89 C 0.80902 0.99574 0.1825 0.0
C90 C 0.77271 0.02345 0.15256 0.0
C91 C 0.75368 0.0147 0.15148 0.0
C92 C 0.7447 0.01006 0.10217 0.0
C93 C 0.7546 0.01399 0.05297 0.0
C94 C 0.77353 0.02307 0.05419 0.0
C95 C 0.78248 0.02778 0.10362 0.0
P96 P 0.50183 0.76864 0.14883 0.0
H97 H 0.47877 0.75747 0.2447 0.0
H98 H 0.48501 0.73388 0.31716 0.0
H99 H 0.54611 0.72808 0.26312 0.0
H100 H 0.53962 0.75183 0.18989 0.0
H101 H 0.47711 0.80434 0.14636 0.0
H102 H 0.4836 0.83685 0.10744 0.0
H103 H 0.54655 0.82341 0.09886 0.0
H104 H 0.53976 0.79047 0.13734 0.0
H105 H 0.51501 0.72762 0.12714 0.0
H106 H 0.51024 0.78273 0.03883 0.0
O107 O 0.47715 0.76619 0.14182 0.0
H108 H 0.52758 0.71127 0.0458 0.0
H109 H 0.52302 0.76651 0.95784 0.0
C110 C 0.50861 0.75614 0.21106 0.0
C111 C 0.49367 0.75153 0.24902 0.0
C112 C 0.49729 0.73799 0.29077 0.0
C113 C 0.51599 0.72873 0.29563 0.0
C114 C 0.53142 0.7346 0.25997 0.0
C115 C 0.52779 0.74834 0.21838 0.0
C116 C 0.50792 0.79483 0.14439 0.0
C117 C 0.49243 0.80857 0.13808 0.0
C118 C 0.49619 0.82729 0.11558 0.0
C119 C 0.51557 0.83269 0.0988 0.0
C120 C 0.53138 0.8196 0.11023 0.0
C121 C 0.52758 0.80087 0.13312 0.0
C122 C 0.51255 0.75668 0.09014 0.0
C123 C 0.51725 0.7364 0.09094 0.0
C124 C 0.52444 0.72704 0.04428 0.0
C125 C 0.52661 0.73769 0.99559 0.0
C126 C 0.52164 0.75793 0.99477 0.0
C127 C 0.51451 0.76727 0.04141 0.0
P128 P 0.27199 0.4515 0.06021 0.0
H129 H 0.26823 0.4459 0.94314 0.0
H130 H 0.24371 0.45785 0.87803 0.0
H131 H 0.2198 0.49741 0.99982 0.0
H132 H 0.24497 0.48602 0.06365 0.0
H133 H 0.30765 0.42914 0.08518 0.0
H134 H 0.33858 0.43849 0.12871 0.0
H135 H 0.32358 0.50056 0.11001 0.0
H136 H 0.29185 0.49078 0.06814 0.0
H137 H 0.23041 0.44344 0.08875 0.0
H138 H 0.28401 0.4617 0.17241 0.0
O139 O 0.27223 0.42762 0.04182 0.0
H140 H 0.21146 0.44677 0.1732 0.0
H141 H 0.2654 0.46455 0.25619 0.0
C142 C 0.25825 0.46477 0.00864 0.0
C143 C 0.25807 0.45756 0.95535 0.0
C144 C 0.24379 0.46423 0.9183 0.0
C145 C 0.22927 0.47824 0.9338 0.0
C146 C 0.23062 0.48662 0.98606 0.0
C147 C 0.24505 0.48006 0.0229 0.0
C148 C 0.29751 0.45924 0.07234 0.0
C149 C 0.31128 0.4448 0.08847 0.0
C150 C 0.32912 0.45024 0.11372 0.0
C151 C 0.33377 0.47035 0.12359 0.0
C152 C 0.32047 0.4849 0.10412 0.0
C153 C 0.30244 0.47938 0.07911 0.0
C154 C 0.25853 0.45276 0.12358 0.0
C155 C 0.23813 0.44805 0.12519 0.0
C156 C 0.22736 0.4498 0.17357 0.0
C157 C 0.23691 0.45612 0.22131 0.0
C158 C 0.25752 0.46006 0.2199 0.0
C159 C 0.26822 0.45838 0.17161 0.0
P160 P 0.06843 0.27743 0.0553 0.0
H161 H 0.08471 0.25912 0.95752 0.0
H162 H 0.0724 0.23254 0.89971 0.0
H163 H 0.01503 0.23527 0.97982 0.0
H164 H 0.02773 0.26186 0.03861 0.0
H165 H 0.07757 0.31899 0.02872 0.0
H166 H 0.06697 0.35 0.0708 0.0
H167 H 0.02246 0.31768 0.16305 0.0
H168 H 0.03244 0.28701 0.11831 0.0
H169 H 0.06459 0.2344 0.07688 0.0
H170 H 0.0746 0.2881 0.16906 0.0
O171 O 0.09205 0.28249 0.03839 0.0
H172 H 0.05989 0.21584 0.16046 0.0
H173 H 0.06992 0.26946 0.25316 0.0
C174 C 0.0571 0.2627 1.00216 0.0
C175 C 0.06927 0.25451 0.96166 0.0
C176 C 0.06217 0.2392 0.92844 0.0
C177 C 0.04273 0.23156 0.93519 0.0
C178 C 0.03017 0.24058 0.97389 0.0
C179 C 0.0373 0.25601 0.00704 0.0
C180 C 0.05605 0.3006 0.07104 0.0
C181 C 0.06509 0.31868 0.05666 0.0
C182 C 0.05918 0.33642 0.08154 0.0
C183 C 0.04426 0.33642 0.12194 0.0
C184 C 0.03399 0.31846 0.13234 0.0
C185 C 0.0397 0.30078 0.10666 0.0
C186 C 0.06896 0.26287 0.11658 0.0
C187 C 0.0659 0.24224 0.11498 0.0
C188 C 0.06345 0.23154 0.16296 0.0
C189 C 0.06419 0.24129 0.21331 0.0
C190 C 0.06888 0.26166 0.21485 0.0
C191 C 0.07151 0.27231 0.16681 0.0
P192 P 0.24097 0.05958 0.05845 0.0
H193 H 0.2385 0.05278 0.94113 0.0
H194 H 0.26253 0.03894 0.87707 0.0
H195 H 0.29842 0.01856 0.01119 0.0
H196 H 0.27366 0.03104 0.07412 0.0
H197 H 0.20217 0.07739 0.0788 0.0
H198 H 0.17342 0.06727 0.13274 0.0
H199 H 0.20146 0.01092 0.16519 0.0
H200 H 0.23032 0.02106 0.10946 0.0
H201 H 0.27441 0.08717 0.05537 0.0
H202 H 0.24772 0.04731 0.1719 0.0
O203 O 0.23496 0.07993 0.02361 0.0
H204 H 0.30363 0.0909 0.1135 0.0
H205 H 0.27695 0.05042 0.22899 0.0
C206 C 0.2544 0.04336 0.01257 0.0
C207 C 0.25119 0.0447 0.95662 0.0
C208 C 0.26523 0.03706 0.91994 0.0
C209 C 0.28297 0.02814 0.93845 0.0
C210 C 0.28511 0.02526 0.9947 0.0
C211 C 0.27087 0.03256 0.03119 0.0
C212 C 0.21838 0.04991 0.08947 0.0
C213 C 0.20201 0.06262 0.09611 0.0
C214 C 0.18551 0.05682 0.12717 0.0
C215 C 0.18512 0.0383 0.15337 0.0
C216 C 0.20134 0.02532 0.14567 0.0
C217 C 0.21776 0.03102 0.11351 0.0
C218 C 0.25879 0.06704 0.1092 0.0
C219 C 0.27453 0.07973 0.09423 0.0
C220 C 0.29133 0.08167 0.12724 0.0
C221 C 0.29278 0.07075 0.17558 0.0
C222 C 0.27631 0.05921 0.19234 0.0
C223 C 0.25949 0.05734 0.15938 0.0
P224 P 0.44553 0.24278 0.03702 0.0
H225 H 0.43027 0.2592 0.93654 0.0
H226 H 0.44395 0.28292 0.87378 0.0
H227 H 0.50227 0.27579 0.9462 0.0
H228 H 0.48767 0.2531 0.01277 0.0
H229 H 0.42242 0.21406 0.09647 0.0
H230 H 0.43119 0.1849 0.14885 0.0
H231 H 0.49153 0.18825 0.08787 0.0
H232 H 0.48259 0.21791 0.03461 0.0
H233 H 0.42699 0.28048 0.06594 0.0
H234 H 0.47322 0.24268 0.12913 0.0
O235 O 0.42107 0.24238 0.02409 0.0
H236 H 0.43236 0.3038 0.14102 0.0
H237 H 0.47855 0.26571 0.20376 0.0
C238 C 0.45792 0.25403 0.97933 0.0
C239 C 0.44613 0.26225 0.93833 0.0
C240 C 0.45415 0.27597 0.90174 0.0
C241 C 0.47439 0.28173 0.90428 0.0
C242 C 0.48653 0.2723 0.94321 0.0
C243 C 0.47831 0.25883 0.9808 0.0
C244 C 0.45173 0.21812 0.06078 0.0
C245 C 0.43741 0.20827 0.09263 0.0
C246 C 0.44248 0.19166 0.12319 0.0
C247 C 0.46207 0.18443 0.12293 0.0
C248 C 0.47627 0.19351 0.08862 0.0
C249 C 0.47117 0.21039 0.05801 0.0
C250 C 0.44932 0.2596 0.09271 0.0
C251 C 0.43813 0.2771 0.0962 0.0
C252 C 0.44127 0.29043 0.13887 0.0
C253 C 0.45567 0.28641 0.17862 0.0
C254 C 0.46702 0.26897 0.17445 0.0
C255 C 0.46399 0.25578 0.13161 0.0
Eu256 Eu 0.98023 0.01667 0.5852 0.0
C257 C 0.05362 1.00253 0.77071 0.0
N258 N 0.05237 0.00935 0.7193 0.0
C259 C 0.07858 0.03292 0.73674 0.0
C260 C 0.06711 0.01101 0.80799 0.0
C261 C 0.06504 0.02387 0.70123 0.0
C262 C 0.07945 0.02663 0.79059 0.0
C263 C 0.04398 0.97771 0.83673 0.0
C264 C 0.04226 0.9862 0.78482 0.0
C265 C 0.0567 0.98658 0.87502 0.0
C266 C 0.06826 0.00323 0.86067 0.0
Eu267 Eu 0.02815 0.99447 0.66243 0.0
N268 N 0.03049 0.97785 0.74648 0.0
C269 C 0.03334 0.9602 0.84788 0.0
C270 C 0.0209 0.96025 0.75609 0.0
C271 C 0.02195 0.9513 0.8071 0.0
H272 H 0.06433 0.02881 0.65968 0.0
H273 H 0.01404 0.93751 0.81483 0.0
H274 H 0.94432 0.02391 0.68124 0.0
H275 H 0.96882 0.97668 0.39582 0.0
H276 H 0.01224 0.95322 0.72449 0.0
H277 H 0.03424 0.95318 0.88725 0.0
H278 H 0.98276 0.00293 0.45573 0.0
H279 H 0.0883 0.04472 0.72257 0.0
H280 H 0.05811 0.98039 0.91531 0.0
H281 H 0.0784 0.00963 0.8901 0.0
H282 H 0.91589 0.00531 0.72041 0.0
H283 H 0.09001 0.03357 0.81797 0.0
H284 H 0.9435 0.9531 0.43157 0.0
N285 N 0.9505 1.00209 0.62104 0.0
C286 C 0.9432 0.9861 0.59388 0.0
C287 C 0.92364 0.99952 0.68531 0.0
C288 C 0.92656 0.97533 0.61345 0.0
C289 C 0.93997 0.00985 0.66351 0.0
C290 C 0.91724 0.98185 0.66102 0.0
N291 N 0.96559 0.99396 0.52389 0.0
C292 C 0.97148 0.99282 0.47103 0.0
C293 C 0.9426 0.96679 0.51099 0.0
C294 C 0.95095 0.98197 0.54329 0.0
C295 C 0.9495 0.9646 0.45772 0.0
C296 C 0.96372 0.97795 0.4373 0.0
H297 H 0.90442 0.97401 0.67748 0.0
H298 H 0.90652 0.95054 0.59809 0.0
H299 H 0.92069 0.94298 0.50828 0.0
O300 O 0.98492 0.04387 0.53855 0.0
O301 O 0.99612 0.98844 0.55942 0.0
O302 O 1.00181 0.97483 0.6411 0.0
O303 O 0.95496 0.03344 0.5537 0.0
O304 O 0.00881 0.01419 0.53619 0.0
O305 O 0.03175 0.01999 0.60272 0.0
O306 O 0.05398 0.97486 0.65632 0.0
O307 O 0.02452 0.02766 0.68023 0.0
O308 O 0.99366 0.03823 0.64684 0.0
O309 O 0.03767 0.9824 0.58419 0.0
O310 O 0.9977 0.98825 0.70002 0.0
O311 O 0.97971 0.01603 0.67769 0.0
C312 C 0.99681 0.97265 0.59035 0.0
C313 C 0.96102 0.06808 0.55878 0.0
C314 C 0.96704 0.10383 0.55713 0.0
C315 C 0.95627 0.10584 0.60564 0.0
C316 C 0.95005 0.07034 0.60707 0.0
C317 C 0.94762 0.08916 0.63009 0.0
C318 C 0.9692 0.08493 0.53366 0.0
C319 C 0.02692 0.01933 0.55122 0.0
C320 C 0.96604 0.04824 0.53758 0.0
C321 C 0.91908 0.95921 0.58331 0.0
C322 C 0.92712 0.95493 0.5321 0.0
C323 C 0.01037 0.04117 0.6744 0.0
C324 C 0.0504 0.9501 0.58816 0.0
C325 C 0.04561 0.91493 0.60939 0.0
C326 C 0.04702 0.91041 0.55391 0.0
C327 C 0.05191 0.94527 0.53302 0.0
C328 C 0.04708 0.93489 0.62605 0.0
C329 C 0.05014 0.92552 0.51605 0.0
C330 C 0.98416 1.00166 0.71164 0.0
C331 C 0.05124 0.97111 0.60504 0.0
H332 H 0.95449 0.12029 0.6244 0.0
H333 H 0.94383 0.05755 0.62783 0.0
H334 H 0.93935 0.09077 0.66754 0.0
H335 H 0.97798 0.08323 0.49698 0.0
H336 H 0.04599 0.89518 0.53984 0.0
H337 H 0.05422 0.95681 0.50305 0.0
H338 H 0.04535 0.93859 0.66852 0.0
H339 H 0.0512 0.92192 0.47342 0.0
Eu340 Eu 0.51239 0.03249 0.65973 0.0
C341 C 0.4631 0.95776 0.62521 0.0
N342 N 0.48319 0.95905 0.61893 0.0
C343 C 0.48739 0.92954 0.67198 0.0
C344 C 0.45441 0.94291 0.65809 0.0
C345 C 0.49521 0.94441 0.63839 0.0
C346 C 0.46693 0.92909 0.68303 0.0
C347 C 0.43019 0.96813 0.59652 0.0
C348 C 0.45115 0.97014 0.59471 0.0
C349 C 0.42144 0.95431 0.63211 0.0
C350 C 0.43353 0.94172 0.66289 0.0
Eu351 Eu 0.49536 0.98626 0.56745 0.0
N352 N 0.46007 0.98339 0.56092 0.0
C353 C 0.41868 0.97962 0.5613 0.0
C354 C 0.44897 0.99395 0.52459 0.0
C355 C 0.42815 0.99234 0.52453 0.0
H356 H 0.51094 0.94434 0.62849 0.0
H357 H 0.41941 1.00113 0.4967 0.0
H358 H 0.48739 0.03019 0.77771 0.0
H359 H 0.5342 0.09819 0.54444 0.0
H360 H 0.45613 0.00451 0.49789 0.0
H361 H 0.40254 0.97849 0.56143 0.0
H362 H 0.53583 0.06304 0.57377 0.0
H363 H 0.4971 0.91838 0.68896 0.0
H364 H 0.40535 0.95279 0.63477 0.0
H365 H 0.42659 0.93062 0.68862 0.0
H366 H 0.46493 0.05135 0.83232 0.0
H367 H 0.46086 0.91746 0.70866 0.0
H368 H 0.51024 0.12108 0.58828 0.0
N369 N 0.49239 0.05224 0.71747 0.0
C370 C 0.48955 0.07138 0.70232 0.0
C371 C 0.47165 0.05714 0.79563 0.0
C372 C 0.47717 0.08412 0.73269 0.0
C373 C 0.48428 0.04517 0.76448 0.0
C374 C 0.46788 0.07664 0.77932 0.0
N375 N 0.51263 0.06606 0.632 0.0
C376 C 0.52534 0.073 0.59292 0.0
C377 C 0.49871 0.0987 0.64327 0.0
C378 C 0.5001 0.07855 0.65826 0.0
C379 C 0.51086 0.1057 0.60107 0.0
C380 C 0.52444 0.09284 0.5763 0.0
H381 H 0.45823 0.08593 0.80375 0.0
H382 H 0.46539 0.11399 0.73903 0.0
H383 H 0.4843 0.12679 0.66069 0.0
O384 O 0.54157 0.0203 0.6804 0.0
O385 O 0.4989 0.04203 0.57919 0.0
O386 O 0.49439 0.01517 0.52008 0.0
O387 O 0.53133 0.04735 0.71903 0.0
O388 O 0.52967 0.02471 0.58327 0.0
O389 O 0.52822 0.99091 0.58526 0.0
O390 O 0.50794 0.98506 0.4859 0.0
O391 O 0.51536 0.98076 0.6412 0.0
O392 O 0.50395 0.00374 0.70217 0.0
O393 O 0.49394 0.95895 0.51923 0.0
O394 O 0.47313 0.00942 0.59882 0.0
O395 O 0.48408 0.01631 0.68367 0.0
C396 C 0.49461 0.03438 0.53122 0.0
C397 C 0.56594 0.04464 0.69976 0.0
C398 C 0.60232 0.04142 0.70021 0.0
C399 C 0.60384 0.06182 0.68731 0.0
C400 C 0.56786 0.06483 0.6865 0.0
C401 C 0.58674 0.07325 0.6796 0.0
C402 C 0.58308 0.03293 0.70425 0.0
C403 C 0.53784 0.0074 0.57332 0.0
C404 C 0.54633 0.03546 0.71059 0.0
C405 C 0.47496 0.104 0.71649 0.0
C406 C 0.48573 0.11129 0.67188 0.0
C407 C 0.5114 0.98615 0.69141 0.0
C408 C 0.49089 0.96392 0.42561 0.0
C409 C 0.46478 0.97404 0.36297 0.0
C410 C 0.46792 0.95652 0.33302 0.0
C411 C 0.49383 0.94652 0.39546 0.0
C412 C 0.47673 0.97781 0.40848 0.0
C413 C 0.4825 0.94296 0.34899 0.0
C414 C 0.46945 0.01255 0.65027 0.0
C415 C 0.5018 0.96702 0.47639 0.0
H416 H 0.61811 0.06934 0.68502 0.0
H417 H 0.55484 0.07416 0.68212 0.0
H418 H 0.58816 0.08889 0.66998 0.0
H419 H 0.58114 0.01722 0.71207 0.0
H420 H 0.4591 0.9533 0.29736 0.0
H421 H 0.50472 0.93565 0.40815 0.0
H422 H 0.47464 0.99126 0.43161 0.0
H423 H 0.4848 0.9295 0.32578 0.0
Eu424 Eu 0.52942 0.50086 0.57538 0.0
C425 C 0.45062 0.48151 0.69093 0.0
N426 N 0.45442 0.49477 0.65065 0.0
C427 C 0.42633 0.48224 0.60075 0.0
C428 C 0.43501 0.46744 0.68645 0.0
C429 C 0.44176 0.49609 0.60761 0.0
C430 C 0.42317 0.46759 0.63987 0.0
C431 C 0.45721 0.47028 0.78248 0.0
C432 C 0.46152 0.48287 0.73833 0.0
C433 C 0.44228 0.45568 0.77732 0.0
C434 C 0.43123 0.45423 0.72935 0.0
Eu435 Eu 0.48182 0.51675 0.6647 0.0
N436 N 0.47608 0.4969 0.74174 0.0
C437 C 0.46786 0.47298 0.83071 0.0
C438 C 0.48603 0.50013 0.7891 0.0
C439 C 0.48218 0.48812 0.8342 0.0
H440 H 0.44312 0.50812 0.57914 0.0
H441 H 0.4903 0.4905 0.8715 0.0
H442 H 0.56667 0.52601 0.63306 0.0
H443 H 0.50737 0.50022 0.36168 0.0
H444 H 0.4971 0.51184 0.79172 0.0
H445 H 0.46497 0.46364 0.8656 0.0
H446 H 0.51115 0.48629 0.45326 0.0
H447 H 0.41664 0.48313 0.56585 0.0
H448 H 0.4389 0.4457 0.81055 0.0
H449 H 0.41942 0.44321 0.72641 0.0
H450 H 0.58891 0.55467 0.61246 0.0
H451 H 0.41104 0.45704 0.63484 0.0
H452 H 0.52357 0.53223 0.33838 0.0
N453 N 0.55126 0.52777 0.55823 0.0
C454 C 0.55017 0.53634 0.50863 0.0
C455 C 0.57798 0.54975 0.58308 0.0
C456 C 0.56234 0.55279 0.49526 0.0
C457 C 0.56544 0.53359 0.59465 0.0
C458 C 0.5762 0.5596 0.5335 0.0
N459 N 0.52702 0.51137 0.48386 0.0
C460 C 0.51732 0.50079 0.44461 0.0
C461 C 0.53634 0.53627 0.41813 0.0
C462 C 0.53735 0.52814 0.47068 0.0
C463 C 0.52475 0.52647 0.37919 0.0
C464 C 0.51555 0.50842 0.39221 0.0
H465 H 0.58585 0.57218 0.52473 0.0
H466 H 0.56954 0.57445 0.43322 0.0
H467 H 0.54676 0.55997 0.3656 0.0
O468 O 0.54898 0.48296 0.52414 0.0
O469 O 0.52461 0.5335 0.59857 0.0
O470 O 0.49088 0.53583 0.59338 0.0
O471 O 0.55364 0.48359 0.61046 0.0
O472 O 0.49887 0.49055 0.54426 0.0
O473 O 0.47829 0.51578 0.57293 0.0
O474 O 0.48072 0.54181 0.72018 0.0
O475 O 0.49817 0.48796 0.68354 0.0
O476 O 0.5072 0.47682 0.59968 0.0
O477 O 0.45387 0.53283 0.67832 0.0
O478 O 0.51206 0.52625 0.69917 0.0
O479 O 0.53428 0.50285 0.66608 0.0
C480 C 0.50858 0.54385 0.58771 0.0
C481 C 0.56057 0.4536 0.56605 0.0
C482 C 0.54818 0.42041 0.54355 0.0
C483 C 0.56449 0.41219 0.57128 0.0
C484 C 0.57671 0.44513 0.59342 0.0
C485 C 0.57859 0.42451 0.59614 0.0
C486 C 0.54623 0.44122 0.54169 0.0
C487 C 0.4828 0.50156 0.53835 0.0
C488 C 0.55858 0.47534 0.5648 0.0
C489 C 0.56056 0.5616 0.44399 0.0
C490 C 0.54755 0.55338 0.40554 0.0
C491 C 0.50224 0.47327 0.65023 0.0
C492 C 0.45941 0.56729 0.69006 0.0
C493 C 0.47335 0.60004 0.6673 0.0
C494 C 0.45371 0.60765 0.66776 0.0
C495 C 0.44016 0.57524 0.69022 0.0
C496 C 0.47572 0.57947 0.67573 0.0
C497 C 0.43733 0.59525 0.67802 0.0
C498 C 0.52883 0.51609 0.70253 0.0
C499 C 0.46253 0.54655 0.70717 0.0
H500 H 0.56661 0.39626 0.57282 0.0
H501 H 0.58781 0.45448 0.61282 0.0
H502 H 0.59113 0.41804 0.61721 0.0
H503 H 0.5335 0.44779 0.52165 0.0
H504 H 0.45078 0.62331 0.66278 0.0
H505 H 0.42738 0.56604 0.70051 0.0
H506 H 0.49035 0.57285 0.67317 0.0
H507 H 0.42243 0.60138 0.67873 0.0
Eu508 Eu 0.01805 0.53336 0.5733 0.0
C509 C 0.03319 0.46534 0.72845 0.0
N510 N 0.02543 0.46435 0.6778 0.0
C511 C 0.04729 0.43748 0.65532 0.0
C512 C 0.04919 0.45304 0.74362 0.0
C513 C 0.03156 0.45014 0.64196 0.0
C514 C 0.05636 0.43914 0.70607 0.0
C515 C 0.03197 0.47918 0.81901 0.0
C516 C 0.02461 0.47822 0.76558 0.0
C517 C 0.04866 0.46781 0.83346 0.0
C518 C 0.05722 0.45472 0.7959 0.0
Eu519 Eu 0.99904 0.48618 0.658 0.0
N520 N 0.00822 0.48869 0.75064 0.0
C521 C 0.02184 0.4909 0.85689 0.0
C522 C 0.99725 0.49856 0.78879 0.0
C523 C 0.00417 0.5003 0.84196 0.0
H524 H 0.02456 0.44899 0.60267 0.0
H525 H 0.9957 0.50864 0.87159 0.0
H526 H 0.01117 0.57201 0.66002 0.0
H527 H 0.99386 0.52712 0.36385 0.0
H528 H 0.983 0.50496 0.77873 0.0
H529 H 0.02703 0.49207 0.8983 0.0
H530 H 0.014 0.51905 0.4449 0.0
H531 H 0.05246 0.42653 0.62644 0.0
H532 H 0.05466 0.46855 0.87413 0.0
H533 H 0.06972 0.44562 0.80808 0.0
H534 H 0.98802 0.59998 0.67155 0.0
H535 H 0.06861 0.42939 0.71622 0.0
H536 H 0.9685 0.55371 0.36869 0.0
N537 N 0.99819 0.56211 0.58606 0.0
C538 C 0.98563 0.56674 0.5449 0.0
C539 C 0.98696 0.59056 0.63608 0.0
C540 C 0.97259 0.58307 0.54878 0.0
C541 C 0.9998 0.57439 0.62994 0.0
C542 C 0.97304 0.59473 0.59575 0.0
N543 N 0.99985 0.54063 0.49445 0.0
C544 C 1.00296 0.53069 0.44701 0.0
C545 C 0.97483 0.56092 0.45245 0.0
C546 C 0.98671 0.55586 0.49734 0.0
C547 C 0.97731 0.55026 0.40414 0.0
C548 C 0.99162 0.53524 0.40123 0.0
H549 H 0.96326 0.6074 0.60033 0.0
H550 H 0.94981 0.60003 0.5075 0.0
H551 H 0.95177 0.58061 0.42312 0.0
O552 O 0.04584 0.53181 0.52757 0.0
O553 O 0.98866 0.51835 0.54985 0.0
O554 O 0.97575 0.50861 0.63156 0.0
O555 O 0.03586 0.56014 0.55812 0.0
O556 O 0.02624 0.50316 0.53716 0.0
O557 O 1.00155 0.48159 0.56746 0.0
O558 O 0.98027 0.46659 0.70706 0.0
O559 O 0.03233 0.49069 0.63872 0.0
O560 O 0.03448 0.52402 0.64847 0.0
O561 O 0.98196 0.46207 0.62074 0.0
O562 O 0.9882 0.51651 0.68821 0.0
O563 O 0.01479 0.53648 0.66479 0.0
C564 C 0.97325 0.51455 0.58137 0.0
C565 C 0.07032 0.55255 0.56665 0.0
C566 C 0.10377 0.53984 0.58478 0.0
C567 C 0.10634 0.55444 0.62486 0.0
C568 C 0.07317 0.56706 0.60702 0.0
C569 C 0.09109 0.56796 0.63581 0.0
C570 C 0.0858 0.53915 0.55558 0.0
C571 C 0.01549 0.48674 0.53248 0.0
C572 C 0.05087 0.55007 0.53899 0.0
C573 C 0.96005 0.58765 0.50505 0.0
C574 C 0.9612 0.57662 0.45695 0.0
C575 C 0.04269 0.50654 0.65215 0.0
C576 C 0.95142 0.45487 0.66279 0.0
C577 C 0.91811 0.46847 0.67768 0.0
C578 C 0.90992 0.45017 0.66045 0.0
C579 C 0.94299 0.4369 0.64547 0.0
C580 C 0.93903 0.47074 0.67739 0.0
C581 C 0.92229 0.43464 0.64393 0.0
C582 C 0.99929 0.5325 0.69585 0.0
C583 C 0.97318 0.45694 0.66559 0.0
H584 H 0.12005 0.55528 0.64791 0.0
H585 H 0.06148 0.57753 0.61698 0.0
H586 H 0.09311 0.5791 0.66703 0.0
H587 H 0.08387 0.5281 0.52398 0.0
H588 H 0.89399 0.44747 0.66131 0.0
H589 H 0.9524 0.42459 0.63354 0.0
H590 H 0.94585 0.48468 0.6893 0.0
H591 H 0.91581 0.42064 0.63104 0.0
C592 C 0.1485 0.03717 0.17644 0.0
C593 C 0.16837 0.03335 0.19107 0.0
C594 C 0.13291 0.03448 0.21371 0.0
C595 C 0.12045 0.01201 0.34876 0.0
H596 H 0.07702 0.04986 0.34498 0.0
C597 C 0.06313 0.02017 0.52384 0.0
C598 C 0.04287 0.02155 0.5095 0.0
C599 C 0.07813 0.02111 0.48427 0.0
C600 C 0.08894 0.03906 0.34631 0.0
H601 H 0.1874 0.02345 0.25631 0.0
H602 H 0.16038 0.01917 0.32175 0.0
H603 H 0.10361 0.05193 0.2777 0.0
H604 H 0.02258 0.02521 0.44207 0.0
H605 H 0.04881 0.02721 0.37308 0.0
H606 H 0.10591 0.99954 0.41851 0.0
C607 C 0.15665 0.02382 0.28109 0.0
C608 C 0.10421 0.04016 0.30748 0.0
C609 C 0.17222 0.02628 0.24353 0.0
C610 C 0.03802 0.02415 0.45459 0.0
C611 C 0.05306 0.02536 0.41505 0.0
C612 C 0.10529 0.01106 0.38796 0.0
C613 C 0.13676 0.02814 0.26701 0.0
C614 C 0.12023 0.02666 0.30803 0.0
C615 C 0.07331 0.02369 0.42936 0.0
C616 C 0.08934 0.02458 0.38726 0.0
H617 H 0.14501 0.04243 0.13613 0.0
H618 H 0.11781 0.0375 0.20064 0.0
H619 H 0.13225 1.0011 0.35021 0.0
H620 H 0.06745 0.01793 0.56557 0.0
H621 H 0.09357 0.01994 0.49676 0.0
C622 C 0.47651 0.1508 0.14566 0.0
C623 C 0.46758 0.16865 0.16226 0.0
C624 C 0.47966 0.13539 0.18307 0.0
C625 C 0.46205 0.11842 0.31951 0.0
H626 H 0.5079 0.0836 0.31348 0.0
C627 C 0.48479 0.06822 0.49809 0.0
C628 C 0.49032 0.04852 0.48653 0.0
C629 C 0.4816 0.08186 0.45632 0.0
C630 C 0.49491 0.0931 0.31533 0.0
H631 H 0.45611 0.18487 0.23134 0.0
H632 H 0.46217 0.15858 0.29649 0.0
H633 H 0.50401 0.10956 0.24504 0.0
H634 H 0.49659 0.02771 0.42156 0.0
H635 H 0.49109 0.05164 0.34852 0.0
H636 H 0.45326 0.10232 0.39056 0.0
C637 C 0.46604 0.15593 0.2545 0.0
C638 C 0.49264 0.10798 0.27602 0.0
C639 C 0.4627 0.17113 0.2172 0.0
C640 C 0.49233 0.04275 0.43197 0.0
C641 C 0.48934 0.05649 0.3901 0.0
C642 C 0.46444 0.10375 0.35899 0.0
C643 C 0.47412 0.13763 0.23794 0.0
C644 C 0.47629 0.12105 0.27796 0.0
C645 C 0.48399 0.07622 0.40183 0.0
C646 C 0.48099 0.09104 0.35777 0.0
H647 H 0.48037 0.1485 0.10349 0.0
H648 H 0.48586 0.12152 0.16861 0.0
H649 H 0.44893 0.12773 0.32169 0.0
H650 H 0.4829 0.07316 0.53953 0.0
H651 H 0.47762 0.09697 0.46678 0.0
C652 C 0.36868 0.46395 0.15869 0.0
C653 C 0.35135 0.47574 0.1584 0.0
C654 C 0.38392 0.46732 0.19642 0.0
C655 C 0.39276 0.49252 0.32962 0.0
H656 H 0.44806 0.47935 0.30041 0.0
C657 C 0.45662 0.51404 0.47478 0.0
C658 C 0.46956 0.4987 0.49056 0.0
C659 C 0.44311 0.51128 0.43241 0.0
C660 C 0.43264 0.48297 0.30918 0.0
H661 H 0.33724 0.50109 0.19695 0.0
H662 H 0.36418 0.50772 0.25988 0.0
H663 H 0.4232 0.47568 0.22878 0.0
H664 H 0.47878 0.46856 0.47264 0.0
H665 H 0.45548 0.46397 0.39695 0.0
H666 H 0.40244 0.50037 0.40954 0.0
C667 C 0.3657 0.49528 0.23236 0.0
C668 C 0.41831 0.48081 0.26818 0.0
C669 C 0.3503 0.49171 0.19521 0.0
C670 C 0.46911 0.48072 0.46139 0.0
C671 C 0.45576 0.47808 0.41815 0.0
C672 C 0.40713 0.49499 0.37015 0.0
C673 C 0.38253 0.48282 0.23461 0.0
C674 C 0.3981 0.48554 0.27773 0.0
C675 C 0.44237 0.49323 0.40385 0.0
C676 C 0.42722 0.49023 0.36049 0.0
H677 H 0.37036 0.45176 0.1304 0.0
H678 H 0.39648 0.45727 0.19661 0.0
H679 H 0.37738 0.49583 0.33952 0.0
H680 H 0.45672 0.52819 0.49577 0.0
H681 H 0.43318 0.52333 0.4219 0.0
C682 C 0.05689 0.36696 0.17082 0.0
C683 C 0.04081 0.35444 0.15648 0.0
C684 C 0.05422 0.38284 0.20674 0.0
C685 C 0.0151 0.41368 0.27495 0.0
H686 H 0.05769 0.42447 0.37711 0.0
C687 C 0.00389 0.45943 0.47091 0.0
C688 C 0.01864 0.47346 0.48509 0.0
C689 C 0.00675 0.44643 0.42742 0.0
C690 C 0.04576 0.42182 0.34844 0.0
H691 H 0.00904 0.34954 0.16812 0.0
H692 H 0.00457 0.3766 0.23233 0.0
H693 H 0.0621 0.39889 0.30824 0.0
H694 H 0.04799 0.48485 0.46416 0.0
H695 H 0.05316 0.46179 0.38839 0.0
H696 H 0.99854 0.43619 0.31681 0.0
C697 C 0.01925 0.37438 0.21496 0.0
C698 C 0.04828 0.40715 0.30869 0.0
C699 C 0.02187 0.3586 0.1785 0.0
C700 C 0.03632 0.47425 0.4543 0.0
C701 C 0.03932 0.46099 0.41111 0.0
C702 C 0.01251 0.42818 0.31511 0.0
C703 C 0.03544 0.38661 0.23017 0.0
C704 C 0.03295 0.40277 0.27145 0.0
C705 C 0.02455 0.44691 0.39723 0.0
C706 C 0.02776 0.43234 0.35254 0.0
H707 H 0.0718 0.36419 0.15571 0.0
H708 H 0.06701 0.39207 0.21643 0.0
H709 H 1.00308 0.41109 0.24654 0.0
H710 H 0.99003 0.45843 0.49349 0.0
H711 H 0.99517 0.43565 0.4182 0.0
C712 C 0.8801 1.00097 0.12666 0.0
C713 C 0.86007 0.99648 0.11418 0.0
C714 C 0.89511 0.99936 0.08719 0.0
C715 C 0.90657 0.97825 0.95068 0.0
H716 H 0.94422 0.02213 0.94241 0.0
C717 C 0.96969 0.98152 0.7884 0.0
C718 C 0.97242 0.99996 0.7626 0.0
C719 C 0.95741 0.97989 0.83436 0.0
C720 C 0.93381 0.00977 0.94401 0.0
H721 H 0.84041 0.98634 0.04999 0.0
H722 H 0.86648 0.98335 0.9818 0.0
H723 H 0.92009 0.0208 0.0164 0.0
H724 H 0.96505 0.03126 0.76614 0.0
H725 H 0.94363 0.02844 0.8457 0.0
H726 H 0.91994 0.96756 0.87727 0.0
C727 C 0.87066 0.98791 0.02229 0.0
C728 C 0.9201 0.00888 0.98691 0.0
C729 C 0.85566 0.98957 0.06167 0.0
C730 C 0.96311 0.0168 0.78476 0.0
C731 C 0.95095 0.0152 0.83072 0.0
C732 C 0.92036 0.9791 0.90786 0.0
C733 C 0.89053 0.99317 0.03413 0.0
C734 C 0.90611 0.99324 0.99053 0.0
C735 C 0.94775 0.9967 0.85592 0.0
C736 C 0.93399 0.99502 0.90353 0.0
H737 H 0.88415 0.00607 0.16677 0.0
H738 H 0.91029 0.00319 0.09811 0.0
H739 H 0.89618 0.96588 0.95237 0.0
H740 H 0.97661 0.96825 0.77228 0.0
H741 H 0.95547 0.96545 0.85302 0.0
C742 C 0.50763 0.86812 0.07308 0.0
C743 C 0.51867 0.85068 0.06413 0.0
C744 C 0.50845 0.88389 0.03608 0.0
C745 C 0.53726 0.90477 0.91984 0.0
H746 H 0.48644 0.92813 0.88169 0.0
C747 C 0.52745 0.9559 0.73222 0.0
C748 C 0.51403 0.97182 0.73652 0.0
C749 C 0.52899 0.94186 0.7739 0.0
C750 C 0.50083 0.92202 0.89231 0.0
H751 H 0.53968 0.83653 0.00944 0.0
H752 H 0.54125 0.86403 0.94551 0.0
H753 H 0.48779 0.90295 0.95221 0.0
H754 H 0.49229 0.9859 0.78903 0.0
H755 H 0.49526 0.96178 0.86196 0.0
H756 H 0.55027 0.92382 0.85967 0.0
C757 C 0.53206 0.8656 0.9814 0.0
C758 C 0.5016 0.90754 0.9329 0.0
C759 C 0.53122 0.84982 0.01832 0.0
C760 C 0.50269 0.97375 0.78421 0.0
C761 C 0.50426 0.95977 0.82588 0.0
C762 C 0.5365 0.91932 0.87929 0.0
C763 C 0.52036 0.88267 0.98914 0.0
C764 C 0.51981 0.89867 0.94718 0.0
C765 C 0.51726 0.94348 0.82113 0.0
C766 C 0.51825 0.92813 0.86485 0.0
H767 H 0.49804 0.86948 0.10827 0.0
H768 H 0.49953 0.89696 0.04397 0.0
H769 H 0.55157 0.89842 0.93013 0.0
H770 H 0.5366 0.95417 0.69631 0.0
H771 H 0.53907 0.92948 0.7685 0.0
C772 C 0.63804 0.51758 0.10378 0.0
C773 C 0.65659 0.52676 0.09328 0.0
C774 C 0.62243 0.51872 0.06632 0.0
C775 C 0.60423 0.54516 0.94378 0.0
H776 H 0.57903 0.4945 0.91152 0.0
C777 C 0.53973 0.53504 0.78608 0.0
C778 C 0.54208 0.51891 0.75029 0.0
C779 C 0.55251 0.53739 0.83073 0.0
C780 C 0.58589 0.50878 0.92004 0.0
H781 H 0.67278 0.54511 0.03561 0.0
H782 H 0.64549 0.54731 0.9708 0.0
H783 H 0.60317 0.49681 0.98488 0.0
H784 H 0.55973 0.49258 0.73391 0.0
H785 H 0.58164 0.4966 0.81132 0.0
H786 H 0.58713 0.55697 0.87785 0.0
C787 C 0.64301 0.53927 0.00821 0.0
C788 C 0.59961 0.51016 0.96252 0.0
C789 C 0.65868 0.53805 0.04559 0.0
C790 C 0.55742 0.50521 0.7604 0.0
C791 C 0.56995 0.50743 0.80513 0.0
C792 C 0.59031 0.54382 0.90149 0.0
C793 C 0.62487 0.52917 0.0174 0.0
C794 C 0.60917 0.52829 0.97458 0.0
C795 C 0.56768 0.5235 0.84095 0.0
C796 C 0.58123 0.52552 0.88857 0.0
H797 H 0.63572 0.50907 0.14047 0.0
H798 H 0.60853 0.51108 0.07523 0.0
H799 H 0.61121 0.55939 0.95218 0.0
H800 H 0.52811 0.5459 0.77948 0.0
H801 H 0.55032 0.54991 0.85771 0.0
C802 C 0.00871 0.65132 0.06418 0.0
C803 C 0.99156 0.66112 0.08319 0.0
C804 C 0.00727 0.63586 0.02657 0.0
C805 C 0.97397 0.61412 0.92188 0.0
H806 H 0.01217 0.5711 0.9288 0.0
C807 C 0.97695 0.54841 0.76586 0.0
C808 C 0.99611 0.54511 0.74441 0.0
C809 C 0.97433 0.56117 0.8104 0.0
C810 C 1.00139 0.58301 0.92629 0.0
H811 H 0.95932 0.66216 0.07714 0.0
H812 H 0.95672 0.63486 0.01166 0.0
H813 H 0.01108 0.59566 1.00122 0.0
H814 H 0.02755 0.55212 0.75356 0.0
H815 H 0.02304 0.57397 0.83123 0.0
H816 H 0.9644 0.60126 0.84652 0.0
C817 C 0.97137 0.63935 0.02565 0.0
C818 C 1.00081 0.59718 0.96771 0.0
C819 C 0.97284 0.65497 0.06334 0.0
C820 C 0.01258 0.55444 0.76898 0.0
C821 C 0.01001 0.56686 0.81375 0.0
C822 C 0.97444 0.59977 0.88055 0.0
C823 C 0.9886 0.62958 0.00672 0.0
C824 C 0.98748 0.61327 0.96546 0.0
C825 C 0.99087 0.57051 0.83488 0.0
C826 C 0.98851 0.58434 0.88165 0.0
H827 H 0.02344 0.65597 0.07721 0.0
H828 H 0.02094 0.62917 0.01202 0.0
H829 H 0.96358 0.62632 0.91844 0.0
H830 H 0.964 0.54143 0.74758 0.0
H831 H 0.95941 0.56364 0.82593 0.0
C832 C 0.06431 0.21111 0.27292 0.0
C833 C 0.05797 0.23064 0.2631 0.0
C834 C 0.05597 0.20008 0.31532 0.0
C835 C 0.00887 0.19555 0.3863 0.0
H836 H 0.03714 0.15872 0.47894 0.0
C837 C 0.97315 0.12528 0.47657 0.0
C838 C 0.97661 0.12123 0.53143 0.0
C839 C 0.98305 0.14098 0.45107 0.0
C840 C 0.02909 0.16912 0.45378 0.0
H841 H 0.03857 0.25423 0.29129 0.0
H842 H 0.02402 0.23494 0.36528 0.0
H843 H 0.05603 0.18234 0.42291 0.0
H844 H 0.99299 0.13025 0.60296 0.0
H845 H 0.01073 0.15768 0.55777 0.0
H846 H 0.98198 0.18185 0.41543 0.0
C847 C 0.03543 0.22819 0.34019 0.0
C848 C 0.03987 0.1825 0.42156 0.0
C849 C 0.04388 0.23927 0.29815 0.0
C850 C 0.99 0.13325 0.56066 0.0
C851 C 1.00019 0.14879 0.53485 0.0
C852 C 0.99813 0.18202 0.41789 0.0
C853 C 0.04101 0.20833 0.34828 0.0
C854 C 0.02984 0.19564 0.38696 0.0
C855 C 0.99683 0.15273 0.47978 0.0
C856 C 0.00814 0.16848 0.45121 0.0
H857 H 0.07523 0.20415 0.24671 0.0
H858 H 0.06046 0.18475 0.32046 0.0
H859 H 1.00075 0.20535 0.35958 0.0
H860 H 0.96287 0.11618 0.45334 0.0
H861 H 0.98035 0.14359 0.40844 0.0
C862 C 0.32987 0.06656 0.17421 0.0
C863 C 0.31218 0.06901 0.20422 0.0
C864 C 0.3476 0.0613 0.19983 0.0
C865 C 0.36348 0.03335 0.31817 0.0
H866 H 0.41642 0.04728 0.26608 0.0
C867 C 0.42939 0.98012 0.33588 0.0
C868 C 0.4483 0.98777 0.34918 0.0
C869 C 0.41351 0.99287 0.32554 0.0
C870 C 0.40178 0.04342 0.28168 0.0
H871 H 0.29965 0.06938 0.28529 0.0
H872 H 0.33071 0.06011 0.33017 0.0
H873 H 0.38766 0.06659 0.23662 0.0
H874 H 0.46542 0.01484 0.36165 0.0
H875 H 0.43755 0.0372 0.34367 0.0
H876 H 0.37751 0.00998 0.3624 0.0
C877 C 0.33073 0.06199 0.28661 0.0
C878 C 0.38529 0.05438 0.2645 0.0
C879 C 0.31295 0.0673 0.26093 0.0
C880 C 0.45099 0.00851 0.35173 0.0
C881 C 0.43508 0.0213 0.34116 0.0
C882 C 0.37993 0.0224 0.33524 0.0
C883 C 0.34809 0.05831 0.25611 0.0
C884 C 0.3659 0.04911 0.28135 0.0
C885 C 0.41614 0.01359 0.32822 0.0
C886 C 0.39918 0.02693 0.3159 0.0
H887 H 0.3298 0.06742 0.13042 0.0
H888 H 0.3606 0.05832 0.17498 0.0
H889 H 0.34876 0.02877 0.33163 0.0
H890 H 0.42675 0.96423 0.33439 0.0
H891 H 0.39918 0.98646 0.31485 0.0
C892 C 0.46216 0.2936 0.27651 0.0
C893 C 0.45945 0.30056 0.22345 0.0
C894 C 0.46756 0.30668 0.31795 0.0
C895 C 0.472 0.36024 0.35374 0.0
H896 H 0.5155 0.3419 0.44376 0.0
C897 C 0.52642 0.41285 0.46357 0.0
C898 C 0.5337 0.40738 0.51476 0.0
C899 C 0.51392 0.40007 0.43462 0.0
C900 C 0.5031 0.34715 0.41976 0.0
H901 H 0.45968 0.32674 0.17241 0.0
H902 H 0.46939 0.34958 0.24452 0.0
H903 H 0.49965 0.319 0.38079 0.0
H904 H 0.53273 0.38455 0.57671 0.0
H905 H 0.51097 0.36215 0.52584 0.0
H906 H 0.47603 0.38864 0.39163 0.0
C907 C 0.46701 0.33407 0.25443 0.0
C908 C 0.49399 0.33401 0.38361 0.0
C909 C 0.46149 0.32099 0.21304 0.0
C910 C 0.52768 0.38906 0.53697 0.0
C911 C 0.51517 0.37626 0.50795 0.0
C912 C 0.48117 0.37341 0.38985 0.0
C913 C 0.47048 0.327 0.30713 0.0
C914 C 0.47858 0.34049 0.34945 0.0
C915 C 0.50844 0.38149 0.45607 0.0
C916 C 0.49707 0.36709 0.42249 0.0
H917 H 0.46035 0.27796 0.28583 0.0
H918 H 0.46975 0.30082 0.35831 0.0
H919 H 0.45995 0.3656 0.32861 0.0
H920 H 0.53099 0.42669 0.44481 0.0
H921 H 0.50924 0.4044 0.3944 0.0
C922 C 0.21002 0.44643 0.28776 0.0
C923 C 0.22533 0.45956 0.27179 0.0
C924 C 0.19852 0.45041 0.33386 0.0
C925 C 0.1963 0.48223 0.45732 0.0
H926 H 0.1391 0.47838 0.43623 0.0
C927 C 0.13941 0.53295 0.5615 0.0
C928 C 0.11998 0.52584 0.57091 0.0
C929 C 0.15377 0.52059 0.53821 0.0
C930 C 0.15502 0.47913 0.44356 0.0
H931 H 0.24062 0.4871 0.2919 0.0
H932 H 0.2206 0.49407 0.37174 0.0
H933 H 0.16148 0.46446 0.36881 0.0
H934 H 0.10087 0.49975 0.56895 0.0
H935 H 0.12599 0.47808 0.52852 0.0
H936 H 0.18972 0.49776 0.53102 0.0
C937 C 0.21771 0.48047 0.34951 0.0
C938 C 0.16788 0.47115 0.40476 0.0
C939 C 0.22917 0.47649 0.30356 0.0
C940 C 0.11565 0.5057 0.561 0.0
C941 C 0.13001 0.49332 0.53787 0.0
C942 C 0.18342 0.49026 0.49615 0.0
C943 C 0.20209 0.46761 0.36487 0.0
C944 C 0.18866 0.47315 0.41034 0.0
C945 C 0.14896 0.50087 0.52411 0.0
C946 C 0.16264 0.48931 0.48885 0.0
H947 H 0.20688 0.43311 0.26454 0.0
H948 H 0.18672 0.44012 0.34495 0.0
H949 H 0.21225 0.48368 0.46327 0.0
H950 H 0.14314 0.54843 0.5686 0.0
H951 H 0.16817 0.52693 0.5278 0.0
C952 C 0.03798 0.78355 0.95411 0.0
C953 C 0.02397 0.78784 0.99489 0.0
C954 C 0.03966 0.79574 0.90858 0.0
C955 C 0.04907 0.83207 0.83992 0.0
H956 H 1.00262 0.85318 0.7667 0.0
C957 C 0.05347 0.89979 0.69928 0.0
C958 C 0.0429 0.89898 0.65022 0.0
C959 C 0.05089 0.88504 0.73829 0.0
C960 C 0.01572 0.84725 0.78646 0.0
H961 H 1.00031 0.80786 0.01917 0.0
H962 H 0.00338 0.82929 0.93983 0.0
H963 H 0.99822 0.82908 0.83996 0.0
H964 H 0.02143 0.88189 0.60354 0.0
H965 H 0.01688 0.85605 0.67211 0.0
H966 H 0.06657 0.85033 0.78688 0.0
C967 C 0.013 0.81645 0.94299 0.0
C968 C 0.0132 0.83361 0.82864 0.0
C969 C 0.0114 0.80433 0.98867 0.0
C970 C 0.02978 0.88295 0.6409 0.0
C971 C 0.02708 0.86823 0.68024 0.0
C972 C 0.05157 0.84578 0.79808 0.0
C973 C 0.02729 0.8124 0.90275 0.0
C974 C 0.02985 0.82602 0.85607 0.0
C975 C 0.03766 0.86913 0.72925 0.0
C976 C 0.03493 0.85366 0.77131 0.0
H977 H 0.04794 0.77101 0.95795 0.0
H978 H 0.05069 0.79217 0.87798 0.0
H979 H 0.06218 0.82662 0.86061 0.0
H980 H 0.06391 0.91178 0.70743 0.0
H981 H 0.05909 0.88623 0.7759 0.0
C982 C 0.74515 0.02282 0.95776 0.0
C983 C 0.74473 0.00919 1.00087 0.0
C984 C 0.73326 0.01969 0.91211 0.0
C985 C 0.68478 1.00013 0.88709 0.0
H986 H 0.69523 0.01121 0.73559 0.0
C987 C 0.61889 0.01349 0.75117 0.0
C988 C 0.62046 0.0297 0.71523 0.0
C989 C 0.63585 0.00474 0.77287 0.0
C990 C 0.69202 0.00818 0.77776 0.0
H991 H 0.73322 0.9806 0.02741 0.0
H992 H 0.71204 0.97546 0.94832 0.0
H993 H 0.72316 0.00777 0.79862 0.0
H994 H 0.64183 0.04731 0.66885 0.0
H995 H 0.67111 0.0338 0.71185 0.0
H996 H 0.654 1.00229 0.86899 0.0
C997 C 0.72148 0.98857 0.9501 0.0
C998 C 0.70804 0.00606 0.81362 0.0
C999 C 0.73344 0.99163 0.9955 0.0
C1000 C 0.63972 0.03566 0.69847 0.0
C1001 C 0.65672 0.02747 0.72226 0.0
C1002 C 0.66888 1.00267 0.85184 0.0
C1003 C 0.72071 0.00295 0.90902 0.0
C1004 C 0.70448 1.0023 0.86873 0.0
C1005 C 0.65493 0.01253 0.76183 0.0
C1006 C 0.67218 0.00707 0.79676 0.0
H1007 H 0.75365 0.03651 0.96073 0.0
H1008 H 0.73276 0.03109 0.88118 0.0
H1009 H 0.6816 0.99766 0.92962 0.0
H1010 H 0.60466 0.0081 0.76585 0.0
H1011 H 0.63382 0.99258 0.80106 0.0
C1012 C 0.54754 0.71287 0.9453 0.0
C1013 C 0.53243 0.72727 0.945 0.0
C1014 C 0.55096 0.70107 0.89964 0.0
C1015 C 0.53618 0.69272 0.75519 0.0
H1016 H 0.5328 0.63797 0.80242 0.0
C1017 C 0.4894 0.63367 0.64944 0.0
C1018 C 0.49113 0.6138 0.66682 0.0
C1019 C 0.50322 0.64807 0.66619 0.0
C1020 C 0.53439 0.65301 0.78746 0.0
H1021 H 0.50992 0.74142 0.8955 0.0
H1022 H 0.51562 0.72067 0.81641 0.0
H1023 H 0.54112 0.66339 0.86681 0.0
H1024 H 0.51193 0.5932 0.70512 0.0
H1025 H 0.53639 0.61766 0.7286 0.0
H1026 H 0.52845 0.68222 0.67596 0.0
C1027 C 0.52511 0.71869 0.85139 0.0
C1028 C 0.53915 0.66773 0.82495 0.0
C1029 C 0.52176 0.73054 0.89693 0.0
C1030 C 0.50918 0.60821 0.69186 0.0
C1031 C 0.52335 0.62247 0.70644 0.0
C1032 C 0.53154 0.67789 0.71729 0.0
C1033 C 0.53923 0.70332 0.85289 0.0
C1034 C 0.5392 0.68784 0.80993 0.0
C1035 C 0.51954 0.64276 0.69875 0.0
C1036 C 0.52964 0.65791 0.73356 0.0
H1037 H 0.55627 0.7103 0.98145 0.0
H1038 H 0.56217 0.68956 0.90178 0.0
H1039 H 0.53645 0.70809 0.7422 0.0
H1040 H 0.47662 0.63857 0.62649 0.0
H1041 H 0.49995 0.66349 0.65772 0.0
C1042 C 0.78503 0.51753 0.94517 0.0
C1043 C 0.78901 0.52558 0.99662 0.0
C1044 C 0.79892 0.5196 0.9032 0.0
C1045 C 0.83014 0.53004 0.81638 0.0
H1046 H 0.88087 0.51058 0.86863 0.0
C1047 C 0.88502 0.48614 0.68397 0.0
C1048 C 0.90502 0.48432 0.70054 0.0
C1049 C 0.87175 0.49811 0.71292 0.0
C1050 C 0.86713 0.51663 0.85291 0.0
H1051 H 0.80972 0.5437 0.04291 0.0
H1052 H 0.83411 0.54701 0.96981 0.0
H1053 H 0.85527 0.51962 0.93272 0.0
H1054 H 0.92707 0.49587 0.75731 0.0
H1055 H 0.90451 0.51776 0.80406 0.0
H1056 H 0.84196 0.52663 0.73624 0.0
C1057 C 0.82036 0.53894 0.96221 0.0
C1058 C 0.85234 0.52175 0.89 0.0
C1059 C 0.80647 0.53693 0.00408 0.0
C1060 C 0.91186 0.49661 0.74291 0.0
C1061 C 0.89874 0.50901 0.77069 0.0
C1062 C 0.84512 0.52519 0.77902 0.0
C1063 C 0.81704 0.52969 0.91199 0.0
C1064 C 0.83351 0.52792 0.87219 0.0
C1065 C 0.87828 0.50899 0.7583 0.0
C1066 C 0.8636 0.51778 0.79683 0.0
H1067 H 0.77177 0.50862 0.9382 0.0
H1068 H 0.79606 0.51214 0.86507 0.0
H1069 H 0.81577 0.53492 0.80165 0.0
H1070 H 0.87931 0.47764 0.65011 0.0
H1071 H 0.85615 0.49775 0.70163 0.0
C1072 C 0.02565 0.19807 0.93193 0.0
C1073 C 0.0364 0.21323 0.9053 0.0
C1074 C 0.02161 0.17996 0.90599 0.0
C1075 C 0.02061 0.15506 0.7709 0.0
H1076 H 0.02646 0.10716 0.85642 0.0
C1077 C 1.00087 0.07702 0.68611 0.0
C1078 C 0.01313 0.06096 0.70055 0.0
C1079 C 1.00326 0.09568 0.71042 0.0
C1080 C 0.02492 0.12035 0.83174 0.0
H1081 H 0.0505 0.22136 0.82926 0.0
H1082 H 0.0438 0.18973 0.78445 0.0
H1083 H 0.03103 0.13951 0.89899 0.0
H1084 H 0.03757 0.05212 0.75242 0.0
H1085 H 0.04204 0.08472 0.79407 0.0
H1086 H 0.01503 0.13585 0.70329 0.0
C1087 C 0.03836 0.19187 0.82537 0.0
C1088 C 0.02726 0.13898 0.8564 0.0
C1089 C 0.04239 0.20998 0.85132 0.0
C1090 C 0.02793 0.06411 0.73996 0.0
C1091 C 0.03035 0.08281 0.76432 0.0
C1092 C 0.01828 0.13642 0.7462 0.0
C1093 C 0.02821 0.17646 0.85265 0.0
C1094 C 0.02517 0.15661 0.82636 0.0
C1095 C 0.01802 0.09886 0.74996 0.0
C1096 C 0.02045 0.11878 0.77625 0.0
H1097 H 0.02096 0.19988 0.97365 0.0
H1098 H 0.01347 0.1686 0.92805 0.0
H1099 H 0.0187 0.16827 0.74649 0.0
H1100 H 0.98943 0.07524 0.65567 0.0
H1101 H 0.99331 0.10754 0.69866 0.0
C1102 C 0.31356 0.00829 0.9112 0.0
C1103 C 0.29987 0.02358 0.90023 0.0
C1104 C 0.3306 0.00564 0.87887 0.0
C1105 C 0.3624 0.03291 0.77769 0.0
H1106 H 0.38814 0.98168 0.76378 0.0
C1107 C 0.43285 0.02012 0.64384 0.0
C1108 C 0.44885 0.01163 0.67195 0.0
C1109 C 0.41367 0.02035 0.66687 0.0
C1110 C 0.38108 0.99608 0.76729 0.0
H1111 H 0.2935 0.04766 0.84438 0.0
H1112 H 0.32214 0.04218 0.78652 0.0
H1113 H 0.35623 0.9841 0.81129 0.0
H1114 H 0.45737 0.99617 0.74508 0.0
H1115 H 0.42382 0.99608 0.78466 0.0
H1116 H 0.3872 0.04469 0.73258 0.0
C1117 C 0.32019 0.03264 0.82141 0.0
C1118 C 0.36282 0.99754 0.79494 0.0
C1119 C 0.30337 0.03553 0.85428 0.0
C1120 C 0.44527 0.00287 0.72267 0.0
C1121 C 0.42607 0.00271 0.74514 0.0
C1122 C 0.38044 0.03135 0.74919 0.0
C1123 C 0.33437 0.01796 0.83381 0.0
C1124 C 0.35329 0.01605 0.80132 0.0
C1125 C 0.41011 0.01173 0.71794 0.0
C1126 C 0.39012 0.01298 0.74431 0.0
H1127 H 0.31136 0.99846 0.94537 0.0
H1128 H 0.34109 0.99425 0.89045 0.0
H1129 H 0.35596 0.04753 0.78242 0.0
H1130 H 0.43528 0.0271 0.60484 0.0
H1131 H 0.40163 0.02734 0.64492 0.0
C1132 C 0.49742 0.31131 0.88839 0.0
C1133 C 0.48202 0.29869 0.86995 0.0
C1134 C 0.50279 0.32851 0.85967 0.0
C1135 C 0.49203 0.35719 0.73033 0.0
H1136 H 0.51218 0.40076 0.81705 0.0
C1137 C 0.50433 0.43599 0.63713 0.0
C1138 C 0.50235 0.45255 0.67152 0.0
C1139 C 0.50413 0.41659 0.65828 0.0
C1140 C 0.50615 0.38899 0.79199 0.0
H1141 H 0.46143 0.29401 0.80315 0.0
H1142 H 0.46924 0.32451 0.75676 0.0
H1143 H 0.50705 0.36888 0.85824 0.0
H1144 H 0.49947 0.46145 0.75536 0.0
H1145 H 0.49703 0.42837 0.79133 0.0
H1146 H 0.48943 0.37794 0.66532 0.0
C1147 C 0.47773 0.32104 0.79266 0.0
C1148 C 0.50368 0.37025 0.81563 0.0
C1149 C 0.47285 0.30351 0.82037 0.0
C1150 C 0.50038 0.44917 0.72735 0.0
C1151 C 0.49955 0.42992 0.74827 0.0
C1152 C 0.49389 0.37615 0.70709 0.0
C1153 C 0.49253 0.33414 0.81232 0.0
C1154 C 0.49641 0.35395 0.78551 0.0
C1155 C 0.50158 0.41319 0.71434 0.0
C1156 C 0.50073 0.3925 0.73773 0.0
H1157 H 0.50497 0.30847 0.92623 0.0
H1158 H 0.51481 0.33754 0.87568 0.0
H1159 H 0.48694 0.34516 0.70468 0.0
H1160 H 0.50595 0.43798 0.59384 0.0
H1161 H 0.50604 0.40434 0.63045 0.0
C1162 C 0.20328 0.46785 0.86521 0.0
C1163 C 0.21198 0.48286 0.89746 0.0
C1164 C 0.18625 0.47161 0.83412 0.0
C1165 C 0.14269 0.50485 0.82806 0.0
H1166 H 0.13559 0.48248 0.68453 0.0
C1167 C 0.07178 0.52081 0.70309 0.0
C1168 C 0.06323 0.50486 0.67434 0.0
C1169 C 0.09076 0.51913 0.7262 0.0
C1170 C 0.13721 0.48866 0.7248 0.0
H1171 H 0.20962 0.51392 0.92029 0.0
H1172 H 0.17979 0.52036 0.86668 0.0
H1173 H 0.16715 0.47781 0.73213 0.0
H1174 H 0.06858 0.47516 0.64418 0.0
H1175 H 0.10133 0.47182 0.68626 0.0
H1176 H 0.11269 0.51532 0.82155 0.0
C1177 C 0.18612 0.50558 0.86595 0.0
C1178 C 0.15536 0.48603 0.75207 0.0
C1179 C 0.20326 0.50186 0.89681 0.0
C1180 C 0.07446 0.48746 0.66753 0.0
C1181 C 0.09341 0.4857 0.69097 0.0
C1182 C 0.12453 0.50738 0.801 0.0
C1183 C 0.17727 0.49045 0.83457 0.0
C1184 C 0.15831 0.494 0.80422 0.0
C1185 C 0.10174 0.50143 0.72129 0.0
C1186 C 0.12146 0.49924 0.74908 0.0
H1187 H 0.20918 0.4529 0.8653 0.0
H1188 H 0.17971 0.4595 0.81114 0.0
H1189 H 0.14426 0.51093 0.86846 0.0
H1190 H 0.0637 0.53458 0.70848 0.0
H1191 H 0.09681 0.53176 0.74801 0.0
C1192 C 0.99188 0.80079 0.40985 0.0
C1193 C 0.9911 0.80053 0.35288 0.0
C1194 C 0.99179 0.81886 0.43834 0.0
C1195 C 0.00595 0.87124 0.42138 0.0
H1196 H 0.97245 0.88141 0.54653 0.0
C1197 C 0.99871 0.95004 0.50983 0.0
C1198 C 0.99637 0.95248 0.56594 0.0
C1199 C 0.99812 0.93113 0.48638 0.0
C1200 C 0.98216 0.87875 0.51219 0.0
H1201 H 0.98942 0.81912 0.28141 0.0
H1202 H 0.98932 0.85052 0.33098 0.0
H1203 H 0.97087 0.84906 0.5014 0.0
H1204 H 0.99193 0.93687 0.64174 0.0
H1205 H 0.99119 0.90377 0.60106 0.0
H1206 H 0.01766 0.90057 0.43244 0.0
C1207 C 0.98996 0.83676 0.35362 0.0
C1208 C 0.98117 0.86021 0.4862 0.0
C1209 C 0.98977 0.81874 0.32525 0.0
C1210 C 0.99369 0.9355 0.59828 0.0
C1211 C 0.99314 0.9165 0.57483 0.0
C1212 C 0.00714 0.88964 0.44767 0.0
C1213 C 0.99127 0.83707 0.41044 0.0
C1214 C 0.99282 0.85637 0.43993 0.0
C1215 C 0.99542 0.91403 0.51847 0.0
C1216 C 0.995 0.89384 0.49287 0.0
H1217 H 0.99289 0.78703 0.43234 0.0
H1218 H 0.99285 0.81861 0.4821 0.0
H1219 H 0.01546 0.8686 0.38656 0.0
H1220 H 1.00123 0.96274 0.48382 0.0
H1221 H 0.99962 0.92999 0.44283 0.0
C1222 C 0.70498 0.99411 0.36217 0.0
C1223 C 0.71766 0.01025 0.37443 0.0
C1224 C 0.68638 0.99197 0.38799 0.0
C1225 C 0.6553 0.01157 0.50379 0.0
H1226 H 0.61142 0.992 0.41631 0.0
C1227 C 0.57165 0.02309 0.55925 0.0
C1228 C 0.55883 0.00657 0.55366 0.0
C1229 C 0.59147 0.02228 0.54101 0.0
C1230 C 0.62354 0.99732 0.44148 0.0
H1231 H 0.72093 0.03609 0.42645 0.0
H1232 H 0.68846 0.03291 0.46924 0.0
H1233 H 0.64506 0.99258 0.37875 0.0
H1234 H 0.55684 0.97627 0.52421 0.0
H1235 H 0.59128 0.97506 0.49085 0.0
H1236 H 0.6334 0.01702 0.56571 0.0
C1237 C 0.69285 0.02167 0.44023 0.0
C1238 C 0.64295 0.99757 0.42005 0.0
C1239 C 0.7115 0.02368 0.41491 0.0
C1240 C 0.56631 0.98925 0.52919 0.0
C1241 C 0.58602 0.98858 0.50989 0.0
C1242 C 0.63582 0.0116 0.52489 0.0
C1243 C 0.67979 0.00597 0.42658 0.0
C1244 C 0.65918 0.00478 0.45071 0.0
C1245 C 0.59885 0.00508 0.51558 0.0
C1246 C 0.61969 0.00454 0.49391 0.0
H1247 H 0.70903 0.98349 0.33111 0.0
H1248 H 0.67707 0.9794 0.37702 0.0
H1249 H 0.6673 0.01687 0.52934 0.0
H1250 H 0.56642 0.03666 0.57807 0.0
H1251 H 0.60091 0.03528 0.54578 0.0
C1252 C 0.52881 0.69458 0.3185 0.0
C1253 C 0.51865 0.71189 0.33449 0.0
C1254 C 0.52931 0.67784 0.35222 0.0
C1255 C 0.50117 0.65428 0.46505 0.0
H1256 H 0.54632 0.61848 0.46794 0.0
C1257 C 0.49441 0.57284 0.53733 0.0
C1258 C 0.5103 0.56443 0.56626 0.0
C1259 C 0.4961 0.59192 0.51525 0.0
C1260 C 0.53365 0.62842 0.46817 0.0
H1261 H 0.50193 0.72536 0.40015 0.0
H1262 H 0.50294 0.69629 0.45906 0.0
H1263 H 0.54896 0.6499 0.41904 0.0
H1264 H 0.53987 0.5701 0.59791 0.0
H1265 H 0.54309 0.60329 0.55827 0.0
H1266 H 0.48588 0.6328 0.51427 0.0
C1267 C 0.51017 0.69549 0.41985 0.0
C1268 C 0.53508 0.64636 0.43952 0.0
C1269 C 0.50964 0.71222 0.38607 0.0
C1270 C 0.52767 0.57586 0.57419 0.0
C1271 C 0.52944 0.59494 0.55172 0.0
C1272 C 0.49973 0.63634 0.4936 0.0
C1273 C 0.51969 0.67791 0.40303 0.0
C1274 C 0.51876 0.65944 0.43689 0.0
C1275 C 0.51373 0.60315 0.52148 0.0
C1276 C 0.51584 0.62301 0.49488 0.0
H1277 H 0.53565 0.6936 0.2788 0.0
H1278 H 0.53657 0.66455 0.33739 0.0
H1279 H 0.48821 0.66381 0.4637 0.0
H1280 H 0.48075 0.5645 0.53072 0.0
H1281 H 0.48375 0.59765 0.4919 0.0
C1282 C 0.81576 0.52946 0.33142 0.0
C1283 C 0.79801 0.52378 0.35792 0.0
C1284 C 0.83407 0.52908 0.35853 0.0
C1285 C 0.85827 0.52927 0.49225 0.0
H1286 H 0.90112 0.50241 0.41643 0.0
C1287 C 0.93573 0.51519 0.59235 0.0
C1288 C 0.95271 0.5158 0.55867 0.0
C1289 C 0.91646 0.51608 0.57025 0.0
C1290 C 0.88951 0.51029 0.43805 0.0
H1291 H 0.78559 0.51398 0.43456 0.0
H1292 H 0.81766 0.51366 0.48232 0.0
H1293 H 0.86857 0.50521 0.37407 0.0
H1294 H 0.96252 0.51761 0.47522 0.0
H1295 H 0.92943 0.52048 0.43714 0.0
H1296 H 0.87934 0.53482 0.55575 0.0
C1297 C 0.81732 0.5183 0.44035 0.0
C1298 C 0.87075 0.51179 0.41369 0.0
C1299 C 0.79898 0.51841 0.41294 0.0
C1300 C 0.9499 0.51746 0.50254 0.0
C1301 C 0.93075 0.51871 0.48054 0.0
C1302 C 0.87718 0.52802 0.51644 0.0
C1303 C 0.83515 0.52322 0.41307 0.0
C1304 C 0.85493 0.52141 0.44023 0.0
C1305 C 0.91366 0.51783 0.51387 0.0
C1306 C 0.89317 0.51864 0.48946 0.0
H1307 H 0.81565 0.53342 0.28892 0.0
H1308 H 0.8475 0.53314 0.3365 0.0
H1309 H 0.84639 0.53682 0.51368 0.0
H1310 H 0.9373 0.51408 0.63585 0.0
H1311 H 0.90378 0.51514 0.59744 0.0
loop_
_geom_bond_atom_site_label_1
_geom_bond_atom_site_label_2
_geom_bond_distance
_geom_bond_site_symmetry_2
_ccdc_geom_bond_type
P0 O11 1.490 . S
P0 C14 1.812 . S
P0 C20 1.803 . S
P0 C26 1.819 . S
H1 C15 0.941 . S
H2 C16 0.939 . S
H3 C18 0.940 . S
H4 C19 0.940 . S
H5 C21 0.939 . S
H6 C22 0.942 . S
H7 C24 0.940 . S
H8 C25 0.939 . S
H9 C27 0.941 . S
H10 C31 0.939 . S
O11 P0 1.490 . S
H12 C28 0.939 . S
H13 C30 0.940 . S
C14 P0 1.812 . S
C14 C15 1.389 . S
C14 C19 1.391 . S
C15 H1 0.941 . S
C15 C14 1.389 . S
C15 C16 1.397 . S
C16 H2 0.939 . S
C16 C15 1.397 . S
C16 C17 1.378 . S
C17 C16 1.378 . S
C17 C18 1.378 . S
C18 H3 0.940 . S
C18 C17 1.378 . S
C18 C19 1.396 . S
C19 H4 0.940 . S
C19 C14 1.391 . S
C19 C18 1.396 . S
C20 P0 1.803 . S
C20 C21 1.378 . S
C20 C25 1.400 . S
C21 H5 0.939 . S
C21 C20 1.378 . S
C21 C22 1.361 . S
C22 H6 0.942 . S
C22 C21 1.361 . S
C22 C23 1.369 . S
C23 C22 1.369 . S
C23 C24 1.404 . S
C24 H7 0.940 . S
C24 C23 1.404 . S
C24 C25 1.389 . S
C25 H8 0.939 . S
C25 C20 1.400 . S
C25 C24 1.389 . S
C26 P0 1.819 . S
C26 C27 1.391 . S
C26 C31 1.391 . S
C27 H9 0.941 . S
C27 C26 1.391 . S
C27 C28 1.396 . S
C28 H12 0.939 . S
C28 C27 1.396 . S
C28 C29 1.397 . S
C29 C28 1.397 . S
C29 C30 1.385 . S
C30 H13 0.940 . S
C30 C29 1.385 . S
C30 C31 1.388 . S
C31 H10 0.939 . S
C31 C26 1.391 . S
C31 C30 1.388 . S
P32 O43 1.490 1_655 S
P32 C46 1.812 . S
P32 C52 1.803 . S
P32 C58 1.819 . S
H33 C47 0.941 1_455 S
H34 C48 0.939 . S
H35 C50 0.940 . S
H36 C51 0.940 . S
H37 C53 0.939 1_455 S
H38 C54 0.942 . S
H39 C56 0.940 . S
H40 C57 0.939 . S
H41 C59 0.941 1_455 S
H42 C63 0.939 . S
O43 P32 1.490 1_455 S
H44 C60 0.939 . S
H45 C62 0.940 . S
C46 P32 1.812 . S
C46 C47 1.389 . S
C46 C51 1.391 . S
C47 H33 0.941 1_655 S
C47 C46 1.389 . S
C47 C48 1.397 . S
C48 H34 0.939 . S
C48 C47 1.397 . S
C48 C49 1.378 . S
C49 C48 1.378 . S
C49 C50 1.378 . S
C50 H35 0.940 . S
C50 C49 1.378 . S
C50 C51 1.396 . S
C51 H36 0.940 . S
C51 C46 1.391 . S
C51 C50 1.396 . S
C52 P32 1.803 . S
C52 C53 1.378 . S
C52 C57 1.400 . S
C53 H37 0.939 1_655 S
C53 C52 1.378 . S
C53 C54 1.361 . S
C54 H38 0.942 . S
C54 C53 1.361 . S
C54 C55 1.369 . S
C55 C54 1.369 . S
C55 C56 1.404 . S
C56 H39 0.940 . S
C56 C55 1.404 . S
C56 C57 1.389 . S
C57 H40 0.939 . S
C57 C52 1.400 . S
C57 C56 1.389 . S
C58 P32 1.819 . S
C58 C59 1.391 . S
C58 C63 1.391 . S
C59 H41 0.941 1_655 S
C59 C58 1.391 . S
C59 C60 1.396 . S
C60 H44 0.939 . S
C60 C59 1.396 . S
C60 C61 1.397 . S
C61 C60 1.397 . S
C61 C62 1.385 . S
C62 H45 0.940 . S
C62 C61 1.385 . S
C62 C63 1.388 . S
C63 H42 0.939 . S
C63 C58 1.391 . S
C63 C62 1.388 . S
P64 O75 1.490 1_565 S
P64 C78 1.812 . S
P64 C84 1.803 . S
P64 C90 1.819 . S
H65 C79 0.941 1_545 S
H66 C80 0.939 . S
H67 C82 0.940 . S
H68 C83 0.940 . S
H69 C85 0.939 1_545 S
H70 C86 0.942 . S
H71 C88 0.940 . S
H72 C89 0.939 . S
H73 C91 0.941 1_545 S
H74 C95 0.939 . S
O75 P64 1.490 1_545 S
H76 C92 0.939 . S
H77 C94 0.940 . S
C78 P64 1.812 . S
C78 C79 1.389 . S
C78 C83 1.391 . S
C79 H65 0.941 1_565 S
C79 C78 1.389 . S
C79 C80 1.397 . S
C80 H66 0.939 . S
C80 C79 1.397 . S
C80 C81 1.378 . S
C81 C80 1.378 . S
C81 C82 1.378 . S
C82 H67 0.940 . S
C82 C81 1.378 . S
C82 C83 1.396 . S
C83 H68 0.940 . S
C83 C78 1.391 . S
C83 C82 1.396 . S
C84 P64 1.803 . S
C84 C85 1.378 . S
C84 C89 1.400 . S
C85 H69 0.939 1_565 S
C85 C84 1.378 . S
C85 C86 1.361 . S
C86 H70 0.942 . S
C86 C85 1.361 . S
C86 C87 1.369 . S
C87 C86 1.369 . S
C87 C88 1.404 . S
C88 H71 0.940 . S
C88 C87 1.404 . S
C88 C89 1.389 . S
C89 H72 0.939 . S
C89 C84 1.400 . S
C89 C88 1.389 . S
C90 P64 1.819 . S
C90 C91 1.391 . S
C90 C95 1.391 . S
C91 H73 0.941 1_565 S
C91 C90 1.391 . S
C91 C92 1.396 . S
C92 H76 0.939 . S
C92 C91 1.396 . S
C92 C93 1.397 . S
C93 C92 1.397 . S
C93 C94 1.385 . S
C94 H77 0.940 . S
C94 C93 1.385 . S
C94 C95 1.388 . S
C95 H74 0.939 . S
C95 C90 1.391 . S
C95 C94 1.388 . S
P96 O107 1.490 . S
P96 C110 1.812 . S
P96 C116 1.803 . S
P96 C122 1.819 . S
H97 C111 0.941 . S
H98 C112 0.939 . S
H99 C114 0.940 . S
H100 C115 0.940 . S
H101 C117 0.939 . S
H102 C118 0.942 . S
H103 C120 0.940 . S
H104 C121 0.939 . S
H105 C123 0.941 . S
H106 C127 0.939 . S
O107 P96 1.490 . S
H108 C124 0.939 . S
H109 C126 0.940 . S
C110 P96 1.812 . S
C110 C111 1.389 . S
C110 C115 1.391 . S
C111 H97 0.941 . S
C111 C110 1.389 . S
C111 C112 1.397 . S
C112 H98 0.939 . S
C112 C111 1.397 . S
C112 C113 1.378 . S
C113 C112 1.378 . S
C113 C114 1.378 . S
C114 H99 0.940 . S
C114 C113 1.378 . S
C114 C115 1.396 . S
C115 H100 0.940 . S
C115 C110 1.391 . S
C115 C114 1.396 . S
C116 P96 1.803 . S
C116 C117 1.378 . S
C116 C121 1.400 . S
C117 H101 0.939 . S
C117 C116 1.378 . S
C117 C118 1.361 . S
C118 H102 0.942 . S
C118 C117 1.361 . S
C118 C119 1.369 . S
C119 C118 1.369 . S
C119 C120 1.404 . S
C120 H103 0.940 . S
C120 C119 1.404 . S
C120 C121 1.389 . S
C121 H104 0.939 . S
C121 C116 1.400 . S
C121 C120 1.389 . S
C122 P96 1.819 . S
C122 C123 1.391 . S
C122 C127 1.391 . S
C123 H105 0.941 . S
C123 C122 1.391 . S
C123 C124 1.396 . S
C124 H108 0.939 . S
C124 C123 1.396 . S
C124 C125 1.397 . S
C125 C124 1.397 . S
C125 C126 1.385 . S
C126 H109 0.940 . S
C126 C125 1.385 . S
C126 C127 1.388 . S
C127 H106 0.939 . S
C127 C122 1.391 . S
C127 C126 1.388 . S
P128 O139 1.490 . S
P128 C142 1.812 1_554 S
P128 C148 1.803 . S
P128 C154 1.819 . S
H129 C143 0.941 . S
H130 C144 0.939 . S
H131 C146 0.940 . S
H132 C147 0.955 . S
H133 C149 0.939 . S
H134 C150 0.942 . S
H135 C152 0.940 . S
H136 C153 0.939 . S
H137 C155 0.941 . S
H138 C159 0.939 . S
O139 P128 1.490 . S
H140 C156 0.939 . S
H141 C158 0.940 . S
C142 P128 1.812 1_556 S
C142 C143 1.389 . S
C142 C147 1.391 . S
C143 H129 0.941 . S
C143 C142 1.389 . S
C143 C144 1.397 . S
C144 H130 0.939 . S
C144 C143 1.397 . S
C144 C145 1.378 . S
C145 C144 1.378 . S
C145 C146 1.378 . S
C146 H131 0.940 . S
C146 C145 1.378 . S
C146 C147 1.396 . S
C147 H132 0.955 . S
C147 C142 1.391 . S
C147 C146 1.396 . S
C148 P128 1.803 . S
C148 C149 1.378 . S
C148 C153 1.400 . S
C149 H133 0.939 . S
C149 C148 1.378 . S
C149 C150 1.361 . S
C150 H134 0.942 . S
C150 C149 1.361 . S
C150 C151 1.369 . S
C151 C150 1.369 . S
C151 C152 1.404 . S
C152 H135 0.940 . S
C152 C151 1.404 . S
C152 C153 1.389 . S
C153 H136 0.939 . S
C153 C148 1.400 . S
C153 C152 1.389 . S
C154 P128 1.819 . S
C154 C155 1.391 . S
C154 C159 1.391 . S
C155 H137 0.941 . S
C155 C154 1.391 . S
C155 C156 1.396 . S
C156 H140 0.939 . S
C156 C155 1.396 . S
C156 C157 1.397 . S
C157 C156 1.397 . S
C157 C158 1.385 . S
C158 H141 0.940 . S
C158 C157 1.385 . S
C158 C159 1.388 . S
C159 H138 0.939 . S
C159 C154 1.391 . S
C159 C158 1.388 . S
P160 O171 1.490 . S
P160 C174 1.812 1_554 S
P160 C180 1.803 . S
P160 C186 1.819 . S
H161 C175 0.941 . S
H162 C176 0.939 . S
H163 C178 0.940 . S
H164 C179 0.926 1_554 S
H165 C181 0.939 . S
H166 C182 0.942 . S
H167 C184 0.940 . S
H168 C185 0.939 . S
H169 C187 0.941 . S
H170 C191 0.939 . S
O171 P160 1.490 . S
H172 C188 0.939 . S
H173 C190 0.940 . S
C174 P160 1.812 1_556 S
C174 C175 1.389 . S
C174 C179 1.391 . S
C175 H161 0.941 . S
C175 C174 1.389 . S
C175 C176 1.397 . S
C176 H162 0.939 . S
C176 C175 1.397 . S
C176 C177 1.378 . S
C177 C176 1.378 . S
C177 C178 1.378 . S
C178 H163 0.940 . S
C178 C177 1.378 . S
C178 C179 1.396 . S
C179 H164 0.926 1_556 S
C179 C174 1.391 . S
C179 C178 1.396 . S
C180 P160 1.803 . S
C180 C181 1.378 . S
C180 C185 1.400 . S
C181 H165 0.939 . S
C181 C180 1.378 . S
C181 C182 1.361 . S
C182 H166 0.942 . S
C182 C181 1.361 . S
C182 C183 1.369 . S
C183 C182 1.369 . S
C183 C184 1.404 . S
C184 H167 0.940 . S
C184 C183 1.404 . S
C184 C185 1.389 . S
C185 H168 0.939 . S
C185 C180 1.400 . S
C185 C184 1.389 . S
C186 P160 1.819 . S
C186 C187 1.391 . S
C186 C191 1.391 . S
C187 H169 0.941 . S
C187 C186 1.391 . S
C187 C188 1.396 . S
C188 H172 0.939 . S
C188 C187 1.396 . S
C188 C189 1.397 . S
C189 C188 1.397 . S
C189 C190 1.385 . S
C190 H173 0.940 . S
C190 C189 1.385 . S
C190 C191 1.388 . S
C191 H170 0.939 . S
C191 C186 1.391 . S
C191 C190 1.388 . S
P192 O203 1.490 . S
P192 C206 1.812 1_554 S
P192 C212 1.803 . S
P192 C218 1.819 . S
H193 C207 0.941 . S
H194 C208 0.939 . S
H195 C210 0.940 . S
H196 C211 0.936 1_554 S
H197 C213 0.939 . S
H198 C214 0.942 . S
H199 C216 0.940 . S
H200 C217 0.939 . S
H201 C219 0.941 . S
H202 C223 0.939 . S
O203 P192 1.490 . S
H204 C220 0.939 . S
H205 C222 0.940 . S
C206 P192 1.812 1_556 S
C206 C207 1.389 . S
C206 C211 1.391 . S
C207 H193 0.941 . S
C207 C206 1.389 . S
C207 C208 1.397 . S
C208 H194 0.939 . S
C208 C207 1.397 . S
C208 C209 1.378 . S
C209 C208 1.378 . S
C209 C210 1.378 . S
C210 H195 0.940 . S
C210 C209 1.378 . S
C210 C211 1.396 . S
C211 H196 0.936 1_556 S
C211 C206 1.391 . S
C211 C210 1.396 . S
C212 P192 1.803 . S
C212 C213 1.378 . S
C212 C217 1.400 . S
C213 H197 0.939 . S
C213 C212 1.378 . S
C213 C214 1.361 . S
C214 H198 0.942 . S
C214 C213 1.361 . S
C214 C215 1.369 . S
C215 C214 1.369 . S
C215 C216 1.404 . S
C216 H199 0.940 . S
C216 C215 1.404 . S
C216 C217 1.389 . S
C217 H200 0.939 . S
C217 C212 1.400 . S
C217 C216 1.389 . S
C218 P192 1.819 . S
C218 C219 1.391 . S
C218 C223 1.391 . S
C219 H201 0.941 . S
C219 C218 1.391 . S
C219 C220 1.396 . S
C220 H204 0.939 . S
C220 C219 1.396 . S
C220 C221 1.397 . S
C221 C220 1.397 . S
C221 C222 1.385 . S
C222 H205 0.940 . S
C222 C221 1.385 . S
C222 C223 1.388 . S
C223 H202 0.939 . S
C223 C218 1.391 . S
C223 C222 1.388 . S
P224 O235 1.490 . S
P224 C238 1.812 1_554 S
P224 C244 1.803 . S
P224 C250 1.819 . S
H225 C239 0.941 . S
H226 C240 0.939 . S
H227 C242 0.940 . S
H228 C243 0.940 . S
H229 C245 0.939 . S
H230 C246 0.942 . S
H231 C248 0.940 . S
H232 C249 0.939 . S
H233 C251 0.941 . S
H234 C255 0.939 . S
O235 P224 1.490 . S
H236 C252 0.939 . S
H237 C254 0.940 . S
C238 P224 1.812 1_556 S
C238 C239 1.389 . S
C238 C243 1.391 . S
C239 H225 0.941 . S
C239 C238 1.389 . S
C239 C240 1.397 . S
C240 H226 0.939 . S
C240 C239 1.397 . S
C240 C241 1.378 . S
C241 C240 1.378 . S
C241 C242 1.378 . S
C242 H227 0.940 . S
C242 C241 1.378 . S
C242 C243 1.396 . S
C243 H228 0.940 . S
C243 C238 1.391 . S
C243 C242 1.396 . S
C244 P224 1.803 . S
C244 C245 1.378 . S
C244 C249 1.400 . S
C245 H229 0.939 . S
C245 C244 1.378 . S
C245 C246 1.361 . S
C246 H230 0.942 . S
C246 C245 1.361 . S
C246 C247 1.369 . S
C247 C246 1.369 . S
C247 C248 1.404 . S
C248 H231 0.940 . S
C248 C247 1.404 . S
C248 C249 1.389 . S
C249 H232 0.939 . S
C249 C244 1.400 . S
C249 C248 1.389 . S
C250 P224 1.819 . S
C250 C251 1.391 . S
C250 C255 1.391 . S
C251 H233 0.941 . S
C251 C250 1.391 . S
C251 C252 1.396 . S
C252 H236 0.939 . S
C252 C251 1.396 . S
C252 C253 1.397 . S
C253 C252 1.397 . S
C253 C254 1.385 . S
C254 H237 0.940 . S
C254 C253 1.385 . S
C254 C255 1.388 . S
C255 H234 0.939 . S
C255 C250 1.391 . S
C255 C254 1.388 . S
Eu256 N285 2.600 . S
Eu256 N291 2.562 . S
Eu256 O300 2.469 . S
Eu256 O301 2.373 1_545 S
Eu256 O303 2.432 . S
Eu256 O304 2.291 1_655 S
Eu256 O308 2.335 1_655 S
Eu256 O311 2.372 . S
Eu256 C320 2.787 . S
C257 N258 1.349 1_545 S
C257 C260 1.405 . S
C257 C264 1.448 . S
N258 C257 1.349 1_565 S
N258 C261 1.324 . S
N258 Eu267 2.609 . S
C259 C261 1.397 1_545 S
C259 C262 1.367 . S
C259 H279 0.931 . S
C260 C257 1.405 . S
C260 C262 1.403 . S
C260 C266 1.439 . S
C261 N258 1.324 . S
C261 C259 1.397 1_565 S
C261 H272 0.930 . S
C262 C259 1.367 . S
C262 C260 1.403 . S
C262 H283 0.929 . S
C263 C264 1.430 . S
C263 C265 1.387 . S
C263 C269 1.404 . S
C264 C257 1.448 . S
C264 C263 1.430 . S
C264 N268 1.351 . S
C265 C263 1.387 . S
C265 C266 1.374 . S
C265 H280 0.931 . S
C266 C260 1.439 . S
C266 C265 1.374 . S
C266 H281 0.931 . S
Eu267 N258 2.609 . S
Eu267 N268 2.562 1_565 S
Eu267 O302 2.335 . S
Eu267 O305 2.372 . S
Eu267 O306 2.462 . S
Eu267 O307 2.373 1_565 S
Eu267 O309 2.432 . S
Eu267 O310 2.291 1_465 S
Eu267 C331 2.787 . S
N268 C264 1.351 . S
N268 Eu267 2.562 1_545 S
N268 C270 1.325 . S
C269 C263 1.404 . S
C269 C271 1.366 . S
C269 H277 0.930 . S
C270 N268 1.325 . S
C270 C271 1.416 . S
C270 H276 0.931 1_455 S
C271 C269 1.366 . S
C271 C270 1.416 . S
C271 H273 0.916 1_455 S
H272 C261 0.930 . S
H273 C271 0.916 1_655 S
H274 C289 0.930 . S
H275 C296 0.937 1_455 S
H276 C270 0.931 1_655 S
H277 C269 0.930 . S
H278 C292 0.884 1_455 S
H279 C259 0.931 . S
H280 C265 0.931 . S
H281 C266 0.931 . S
H282 C287 0.931 . S
H283 C262 0.929 . S
H284 C295 0.930 . S
N285 Eu256 2.600 . S
N285 C286 1.365 . S
N285 C289 1.319 . S
C286 N285 1.365 . S
C286 C288 1.405 1_545 S
C286 C294 1.448 . S
C287 H282 0.931 . S
C287 C289 1.397 . S
C287 C290 1.385 . S
C288 C286 1.405 1_565 S
C288 C290 1.399 1_565 S
C288 C321 1.439 . S
C289 H274 0.930 . S
C289 N285 1.319 . S
C289 C287 1.397 . S
C290 C287 1.385 . S
C290 C288 1.399 1_545 S
C290 H297 0.918 1_545 S
N291 Eu256 2.562 . S
N291 C292 1.366 . S
N291 C294 1.351 . S
C292 H278 0.884 1_655 S
C292 N291 1.366 . S
C292 C296 1.393 1_545 S
C293 C294 1.430 1_565 S
C293 C295 1.404 . S
C293 C322 1.387 . S
C294 C286 1.448 . S
C294 N291 1.351 . S
C294 C293 1.430 1_545 S
C295 H284 0.930 . S
C295 C293 1.404 . S
C295 C296 1.387 . S
C296 H275 0.937 1_655 S
C296 C292 1.393 1_565 S
C296 C295 1.387 . S
H297 C290 0.918 1_565 S
H298 C321 0.931 . S
H299 C322 0.931 . S
O300 Eu256 2.469 . S
O300 C320 1.269 . S
O301 Eu256 2.373 1_565 S
O301 C312 1.249 . S
O302 Eu267 2.335 . S
O302 C312 1.264 1_455 S
O303 Eu256 2.432 . S
O303 C320 1.268 . S
O304 Eu256 2.291 1_455 S
O304 C319 1.255 . S
O305 Eu267 2.372 . S
O305 C319 1.257 1_565 S
O306 Eu267 2.462 . S
O306 C331 1.252 . S
O307 Eu267 2.373 1_545 S
O307 C323 1.249 . S
O308 Eu256 2.335 1_455 S
O308 C323 1.264 . S
O309 Eu267 2.432 . S
O309 C331 1.268 . S
O310 Eu267 2.291 1_645 S
O310 C330 1.255 . S
O311 Eu256 2.372 . S
O311 C330 1.257 . S
C312 O301 1.249 . S
C312 O302 1.264 1_655 S
C313 C316 1.382 . S
C313 C318 1.390 . S
C313 C320 1.506 . S
C314 C315 1.398 . S
C314 C318 1.392 . S
C315 C314 1.398 . S
C315 C317 1.372 . S
C315 H332 0.931 . S
C316 C313 1.382 . S
C316 C317 1.390 . S
C316 H333 0.931 . S
C317 C315 1.372 . S
C317 C316 1.390 . S
C317 H334 0.929 . S
C318 C313 1.390 . S
C318 C314 1.392 . S
C318 H335 0.930 1_655 S
C319 O304 1.255 . S
C319 O305 1.257 1_545 S
C320 Eu256 2.787 . S
C320 O300 1.269 . S
C320 O303 1.268 . S
C320 C313 1.506 . S
C321 C288 1.439 . S
C321 H298 0.931 . S
C321 C322 1.374 . S
C322 C293 1.387 . S
C322 H299 0.931 . S
C322 C321 1.374 . S
C323 O307 1.249 . S
C323 O308 1.264 . S
C324 C327 1.382 . S
C324 C328 1.390 . S
C324 C331 1.506 . S
C325 C326 1.398 . S
C325 C328 1.392 . S
C326 C325 1.398 . S
C326 C329 1.372 . S
C326 H336 0.931 . S
C327 C324 1.382 . S
C327 C329 1.390 . S
C327 H337 0.931 . S
C328 C324 1.390 . S
C328 C325 1.392 . S
C328 H338 0.905 1_455 S
C329 C326 1.372 . S
C329 C327 1.390 . S
C329 H339 0.929 . S
C330 O310 1.255 . S
C330 O311 1.257 . S
C331 Eu267 2.787 . S
C331 O306 1.252 . S
C331 O309 1.268 . S
C331 C324 1.506 . S
H332 C315 0.931 . S
H333 C316 0.931 . S
H334 C317 0.929 . S
H335 C318 0.930 1_455 S
H336 C326 0.931 . S
H337 C327 0.931 . S
H338 C328 0.905 1_655 S
H339 C329 0.929 . S
Eu340 N369 2.600 . S
Eu340 N375 2.562 . S
Eu340 O384 2.462 . S
Eu340 O385 2.373 . S
Eu340 O387 2.432 . S
Eu340 O388 2.291 . S
Eu340 O392 2.335 1_545 S
Eu340 O395 2.372 . S
Eu340 C404 2.787 . S
C341 N342 1.365 . S
C341 C344 1.405 . S
C341 C348 1.448 . S
N342 C341 1.365 . S
N342 C345 1.319 . S
N342 Eu351 2.600 . S
C343 C345 1.397 . S
C343 C346 1.367 . S
C343 H363 0.931 . S
C344 C341 1.405 . S
C344 C346 1.403 . S
C344 C350 1.439 . S
C345 N342 1.319 . S
C345 C343 1.397 . S
C345 H356 0.930 . S
C346 C343 1.367 . S
C346 C344 1.403 . S
C346 H367 0.929 . S
C347 C348 1.430 . S
C347 C349 1.387 . S
C347 C353 1.404 . S
C348 C341 1.448 . S
C348 C347 1.430 . S
C348 N352 1.351 . S
C349 C347 1.387 . S
C349 C350 1.374 . S
C349 H364 0.931 . S
C350 C344 1.439 . S
C350 C349 1.374 . S
C350 H365 0.931 . S
Eu351 N342 2.600 . S
Eu351 N352 2.562 . S
Eu351 O386 2.335 1_565 S
Eu351 O389 2.372 . S
Eu351 O390 2.462 . S
Eu351 O391 2.373 . S
Eu351 O393 2.432 . S
Eu351 O394 2.291 1_565 S
Eu351 C415 2.787 . S
N352 C348 1.351 . S
N352 Eu351 2.562 . S
N352 C354 1.325 . S
C353 C347 1.404 . S
C353 C355 1.366 . S
C353 H361 0.930 . S
C354 N352 1.325 . S
C354 C355 1.416 . S
C354 H360 0.929 . S
C355 C353 1.366 . S
C355 C354 1.416 . S
C355 H357 0.930 . S
H356 C345 0.930 . S
H357 C355 0.930 . S
H358 C373 0.930 . S
H359 C380 0.930 . S
H360 C354 0.929 . S
H361 C353 0.930 . S
H362 C376 0.929 . S
H363 C343 0.931 . S
H364 C349 0.931 . S
H365 C350 0.931 . S
H366 C371 0.931 . S
H367 C346 0.929 . S
H368 C379 0.930 . S
N369 Eu340 2.600 . S
N369 C370 1.365 . S
N369 C373 1.319 . S
C370 N369 1.365 . S
C370 C372 1.405 . S
C370 C378 1.448 . S
C371 H366 0.931 . S
C371 C373 1.397 . S
C371 C374 1.367 . S
C372 C370 1.405 . S
C372 C374 1.403 . S
C372 C405 1.439 . S
C373 H358 0.930 . S
C373 N369 1.319 . S
C373 C371 1.397 . S
C374 C371 1.367 . S
C374 C372 1.403 . S
C374 H381 0.929 . S
N375 Eu340 2.562 . S
N375 C376 1.325 . S
N375 C378 1.351 . S
C376 H362 0.929 . S
C376 N375 1.325 . S
C376 C380 1.416 . S
C377 C378 1.430 . S
C377 C379 1.404 . S
C377 C406 1.387 . S
C378 C370 1.448 . S
C378 N375 1.351 . S
C378 C377 1.430 . S
C379 H368 0.930 . S
C379 C377 1.404 . S
C379 C380 1.366 . S
C380 H359 0.930 . S
C380 C376 1.416 . S
C380 C379 1.366 . S
H381 C374 0.929 . S
H382 C405 0.931 . S
H383 C406 0.931 . S
O384 Eu340 2.462 . S
O384 C404 1.252 . S
O385 Eu340 2.373 . S
O385 C396 1.249 . S
O386 Eu351 2.335 1_545 S
O386 C396 1.264 . S
O387 Eu340 2.432 . S
O387 C404 1.268 . S
O388 Eu340 2.291 . S
O388 C403 1.255 1_545 S
O389 Eu351 2.372 . S
O389 C403 1.257 . S
O390 Eu351 2.462 . S
O390 C415 1.252 . S
O391 Eu351 2.373 . S
O391 C407 1.249 . S
O392 Eu340 2.335 1_565 S
O392 C407 1.264 . S
O393 Eu351 2.432 . S
O393 C415 1.268 . S
O394 Eu351 2.291 1_545 S
O394 C414 1.255 . S
O395 Eu340 2.372 . S
O395 C414 1.257 . S
C396 O385 1.249 . S
C396 O386 1.264 . S
C397 C400 1.382 . S
C397 C402 1.390 . S
C397 C404 1.506 . S
C398 C399 1.398 . S
C398 C402 1.392 . S
C399 C398 1.398 . S
C399 C401 1.372 . S
C399 H416 0.931 . S
C400 C397 1.382 . S
C400 C401 1.390 . S
C400 H417 0.931 . S
C401 C399 1.372 . S
C401 C400 1.390 . S
C401 H418 0.929 . S
C402 C397 1.390 . S
C402 C398 1.392 . S
C402 H419 0.930 . S
C403 O388 1.255 1_565 S
C403 O389 1.257 . S
C404 Eu340 2.787 . S
C404 O384 1.252 . S
C404 O387 1.268 . S
C404 C397 1.506 . S
C405 C372 1.439 . S
C405 H382 0.931 . S
C405 C406 1.374 . S
C406 C377 1.387 . S
C406 H383 0.931 . S
C406 C405 1.374 . S
C407 O391 1.249 . S
C407 O392 1.264 . S
C408 C411 1.382 . S
C408 C412 1.390 1_565 S
C408 C415 1.506 . S
C409 C410 1.398 1_545 S
C409 C412 1.392 . S
C410 C409 1.398 1_565 S
C410 C413 1.372 . S
C410 H420 0.931 . S
C411 C408 1.382 . S
C411 C413 1.390 . S
C411 H421 0.931 . S
C412 C408 1.390 1_545 S
C412 C409 1.392 . S
C412 H422 0.930 . S
C413 C410 1.372 . S
C413 C411 1.390 . S
C413 H423 0.929 . S
C414 O394 1.255 . S
C414 O395 1.257 . S
C415 Eu351 2.787 . S
C415 O390 1.252 . S
C415 O393 1.268 . S
C415 C408 1.506 . S
H416 C399 0.931 . S
H417 C400 0.931 . S
H418 C401 0.929 . S
H419 C402 0.930 . S
H420 C410 0.931 . S
H421 C411 0.931 . S
H422 C412 0.930 . S
H423 C413 0.929 . S
Eu424 N453 2.600 . S
Eu424 N459 2.562 . S
Eu424 O468 2.462 . S
Eu424 O469 2.373 . S
Eu424 O471 2.432 . S
Eu424 O472 2.291 . S
Eu424 O476 2.335 . S
Eu424 O479 2.372 . S
Eu424 C488 2.787 . S
C425 N426 1.365 . S
C425 C428 1.405 . S
C425 C432 1.448 . S
N426 C425 1.365 . S
N426 C429 1.319 . S
N426 Eu435 2.600 . S
C427 C429 1.397 . S
C427 C430 1.367 . S
C427 H447 0.931 . S
C428 C425 1.405 . S
C428 C430 1.403 . S
C428 C434 1.439 . S
C429 N426 1.319 . S
C429 C427 1.397 . S
C429 H440 0.930 . S
C430 C427 1.367 . S
C430 C428 1.403 . S
C430 H451 0.929 . S
C431 C432 1.430 . S
C431 C433 1.387 . S
C431 C437 1.404 . S
C432 C425 1.448 . S
C432 C431 1.430 . S
C432 N436 1.351 . S
C433 C431 1.387 . S
C433 C434 1.374 . S
C433 H448 0.931 . S
C434 C428 1.439 . S
C434 C433 1.374 . S
C434 H449 0.931 . S
Eu435 N426 2.600 . S
Eu435 N436 2.562 . S
Eu435 O470 2.335 . S
Eu435 O473 2.372 . S
Eu435 O474 2.462 . S
Eu435 O475 2.373 . S
Eu435 O477 2.432 . S
Eu435 O478 2.291 . S
Eu435 C499 2.787 . S
N436 C432 1.351 . S
N436 Eu435 2.562 . S
N436 C438 1.325 . S
C437 C431 1.404 . S
C437 C439 1.366 . S
C437 H445 0.930 . S
C438 N436 1.325 . S
C438 C439 1.416 . S
C438 H444 0.929 . S
C439 C437 1.366 . S
C439 C438 1.416 . S
C439 H441 0.930 . S
H440 C429 0.930 . S
H441 C439 0.930 . S
H442 C457 0.930 . S
H443 C464 0.930 . S
H444 C438 0.929 . S
H445 C437 0.930 . S
H446 C460 0.929 . S
H447 C427 0.931 . S
H448 C433 0.931 . S
H449 C434 0.931 . S
H450 C455 0.931 . S
H451 C430 0.929 . S
H452 C463 0.930 . S
N453 Eu424 2.600 . S
N453 C454 1.365 . S
N453 C457 1.319 . S
C454 N453 1.365 . S
C454 C456 1.405 . S
C454 C462 1.448 . S
C455 H450 0.931 . S
C455 C457 1.397 . S
C455 C458 1.367 . S
C456 C454 1.405 . S
C456 C458 1.403 . S
C456 C489 1.439 . S
C457 H442 0.930 . S
C457 N453 1.319 . S
C457 C455 1.397 . S
C458 C455 1.367 . S
C458 C456 1.403 . S
C458 H465 0.929 . S
N459 Eu424 2.562 . S
N459 C460 1.325 . S
N459 C462 1.351 . S
C460 H446 0.929 . S
C460 N459 1.325 . S
C460 C464 1.416 . S
C461 C462 1.430 . S
C461 C463 1.404 . S
C461 C490 1.387 . S
C462 C454 1.448 . S
C462 N459 1.351 . S
C462 C461 1.430 . S
C463 H452 0.930 . S
C463 C461 1.404 . S
C463 C464 1.366 . S
C464 H443 0.930 . S
C464 C460 1.416 . S
C464 C463 1.366 . S
H465 C458 0.929 . S
H466 C489 0.931 . S
H467 C490 0.931 . S
O468 Eu424 2.462 . S
O468 C488 1.252 . S
O469 Eu424 2.373 . S
O469 C480 1.249 . S
O470 Eu435 2.335 . S
O470 C480 1.264 . S
O471 Eu424 2.432 . S
O471 C488 1.268 . S
O472 Eu424 2.291 . S
O472 C487 1.255 . S
O473 Eu435 2.372 . S
O473 C487 1.257 . S
O474 Eu435 2.462 . S
O474 C499 1.252 . S
O475 Eu435 2.373 . S
O475 C491 1.249 . S
O476 Eu424 2.335 . S
O476 C491 1.264 . S
O477 Eu435 2.432 . S
O477 C499 1.268 . S
O478 Eu435 2.291 . S
O478 C498 1.255 . S
O479 Eu424 2.372 . S
O479 C498 1.257 . S
C480 O469 1.249 . S
C480 O470 1.264 . S
C481 C484 1.382 . S
C481 C486 1.390 . S
C481 C488 1.506 . S
C482 C483 1.398 . S
C482 C486 1.392 . S
C483 C482 1.398 . S
C483 C485 1.372 . S
C483 H500 0.931 . S
C484 C481 1.382 . S
C484 C485 1.390 . S
C484 H501 0.931 . S
C485 C483 1.372 . S
C485 C484 1.390 . S
C485 H502 0.929 . S
C486 C481 1.390 . S
C486 C482 1.392 . S
C486 H503 0.930 . S
C487 O472 1.255 . S
C487 O473 1.257 . S
C488 Eu424 2.787 . S
C488 O468 1.252 . S
C488 O471 1.268 . S
C488 C481 1.506 . S
C489 C456 1.439 . S
C489 H466 0.931 . S
C489 C490 1.374 . S
C490 C461 1.387 . S
C490 H467 0.931 . S
C490 C489 1.374 . S
C491 O475 1.249 . S
C491 O476 1.264 . S
C492 C495 1.382 . S
C492 C496 1.390 . S
C492 C499 1.506 . S
C493 C494 1.398 . S
C493 C496 1.392 . S
C494 C493 1.398 . S
C494 C497 1.372 . S
C494 H504 0.931 . S
C495 C492 1.382 . S
C495 C497 1.390 . S
C495 H505 0.931 . S
C496 C492 1.390 . S
C496 C493 1.392 . S
C496 H506 0.930 . S
C497 C494 1.372 . S
C497 C495 1.390 . S
C497 H507 0.929 . S
C498 O478 1.255 . S
C498 O479 1.257 . S
C499 Eu435 2.787 . S
C499 O474 1.252 . S
C499 O477 1.268 . S
C499 C492 1.506 . S
H500 C483 0.931 . S
H501 C484 0.931 . S
H502 C485 0.929 . S
H503 C486 0.930 . S
H504 C494 0.931 . S
H505 C495 0.931 . S
H506 C496 0.930 . S
H507 C497 0.929 . S
Eu508 N537 2.600 . S
Eu508 N543 2.562 . S
Eu508 O552 2.462 . S
Eu508 O553 2.373 1_455 S
Eu508 O555 2.432 . S
Eu508 O556 2.291 . S
Eu508 O560 2.335 . S
Eu508 O563 2.372 . S
Eu508 C572 2.787 . S
C509 N510 1.365 1_455 S
C509 C512 1.405 . S
C509 C516 1.448 . S
N510 C509 1.365 1_655 S
N510 C513 1.319 . S
N510 Eu519 2.600 . S
C511 C513 1.397 1_455 S
C511 C514 1.367 . S
C511 H531 0.929 1_455 S
C512 C509 1.405 . S
C512 C514 1.403 . S
C512 C518 1.439 . S
C513 N510 1.319 . S
C513 C511 1.397 1_655 S
C513 H524 0.930 . S
C514 C511 1.367 . S
C514 C512 1.403 . S
C514 H535 0.929 . S
C515 C516 1.430 . S
C515 C517 1.387 . S
C515 C521 1.404 . S
C516 C509 1.448 . S
C516 C515 1.430 . S
C516 N520 1.367 . S
C517 C515 1.387 . S
C517 C518 1.374 . S
C517 H532 0.931 . S
C518 C512 1.439 . S
C518 C517 1.374 . S
C518 H533 0.931 . S
Eu519 N510 2.600 . S
Eu519 N520 2.548 1_655 S
Eu519 O554 2.335 . S
Eu519 O557 2.372 . S
Eu519 O558 2.462 . S
Eu519 O559 2.373 1_655 S
Eu519 O561 2.432 . S
Eu519 O562 2.297 . S
Eu519 C583 2.787 . S
N520 C516 1.367 . S
N520 Eu519 2.548 1_455 S
N520 C522 1.331 . S
C521 C515 1.404 . S
C521 C523 1.366 . S
C521 H529 0.930 . S
C522 N520 1.331 . S
C522 C523 1.416 . S
C522 H528 0.929 1_455 S
C523 C521 1.366 . S
C523 C522 1.416 . S
C523 H525 0.930 . S
H524 C513 0.930 . S
H525 C523 0.930 . S
H526 C541 0.930 . S
H527 C548 0.930 . S
H528 C522 0.929 1_655 S
H529 C521 0.930 . S
H530 C544 0.929 . S
H531 C511 0.929 1_655 S
H532 C517 0.931 . S
H533 C518 0.931 . S
H534 C539 0.931 . S
H535 C514 0.929 . S
H536 C547 0.930 . S
N537 Eu508 2.600 . S
N537 C538 1.365 . S
N537 C541 1.319 . S
C538 N537 1.365 . S
C538 C540 1.405 1_455 S
C538 C546 1.448 . S
C539 H534 0.931 . S
C539 C541 1.397 . S
C539 C542 1.369 . S
C540 C538 1.405 1_655 S
C540 C542 1.403 1_655 S
C540 C573 1.439 . S
C541 H526 0.930 . S
C541 N537 1.319 . S
C541 C539 1.397 . S
C542 C539 1.369 . S
C542 C540 1.403 1_455 S
C542 H549 0.928 1_455 S
N543 Eu508 2.562 . S
N543 C544 1.325 . S
N543 C546 1.351 . S
C544 H530 0.929 . S
C544 N543 1.325 . S
C544 C548 1.416 1_455 S
C545 C546 1.430 1_655 S
C545 C547 1.404 . S
C545 C574 1.387 . S
C546 C538 1.448 . S
C546 N543 1.351 . S
C546 C545 1.430 1_455 S
C547 H536 0.930 . S
C547 C545 1.404 . S
C547 C548 1.366 . S
C548 H527 0.930 . S
C548 C544 1.416 1_655 S
C548 C547 1.366 . S
H549 C542 0.928 1_655 S
H550 C573 0.931 . S
H551 C574 0.931 . S
O552 Eu508 2.462 . S
O552 C572 1.252 . S
O553 Eu508 2.373 1_655 S
O553 C564 1.249 . S
O554 Eu519 2.335 . S
O554 C564 1.264 . S
O555 Eu508 2.432 . S
O555 C572 1.268 . S
O556 Eu508 2.291 . S
O556 C571 1.255 . S
O557 Eu519 2.372 . S
O557 C571 1.257 1_655 S
O558 Eu519 2.462 . S
O558 C583 1.252 . S
O559 Eu519 2.373 1_455 S
O559 C575 1.249 . S
O560 Eu508 2.335 . S
O560 C575 1.264 . S
O561 Eu519 2.432 . S
O561 C583 1.268 . S
O562 Eu519 2.297 . S
O562 C582 1.251 1_655 S
O563 Eu508 2.372 . S
O563 C582 1.257 . S
C564 O553 1.249 . S
C564 O554 1.264 . S
C565 C568 1.382 . S
C565 C570 1.390 . S
C565 C572 1.506 . S
C566 C567 1.398 . S
C566 C570 1.392 . S
C567 C566 1.398 . S
C567 C569 1.372 . S
C567 H584 0.931 . S
C568 C565 1.382 . S
C568 C569 1.390 . S
C568 H585 0.931 . S
C569 C567 1.372 . S
C569 C568 1.390 . S
C569 H586 0.929 . S
C570 C565 1.390 . S
C570 C566 1.392 . S
C570 H587 0.930 . S
C571 O556 1.255 . S
C571 O557 1.257 1_455 S
C572 Eu508 2.787 . S
C572 O552 1.252 . S
C572 O555 1.268 . S
C572 C565 1.506 . S
C573 C540 1.439 . S
C573 H550 0.931 . S
C573 C574 1.374 . S
C574 C545 1.387 . S
C574 H551 0.931 . S
C574 C573 1.374 . S
C575 O559 1.249 . S
C575 O560 1.264 . S
C576 C579 1.382 . S
C576 C580 1.390 . S
C576 C583 1.506 . S
C577 C578 1.398 . S
C577 C580 1.392 . S
C578 C577 1.398 . S
C578 C581 1.372 . S
C578 H588 0.931 . S
C579 C576 1.382 . S
C579 C581 1.390 . S
C579 H589 0.931 . S
C580 C576 1.390 . S
C580 C577 1.392 . S
C580 H590 0.930 . S
C581 C578 1.372 . S
C581 C579 1.390 . S
C581 H591 0.929 . S
C582 O562 1.251 1_455 S
C582 O563 1.257 . S
C583 Eu519 2.787 . S
C583 O558 1.252 . S
C583 O561 1.268 . S
C583 C576 1.506 . S
H584 C567 0.931 . S
H585 C568 0.931 . S
H586 C569 0.929 . S
H587 C570 0.930 . S
H588 C578 0.931 . S
H589 C579 0.931 . S
H590 C580 0.930 . S
H591 C581 0.929 . S
C592 C593 1.349 . S
C592 C594 1.327 . S
C592 H617 0.950 . S
C593 C592 1.349 . S
C593 C609 1.349 . S
C594 C592 1.327 . S
C594 C613 1.429 . S
C594 H618 0.950 . S
C595 C612 1.574 . S
C595 C614 1.368 . S
C595 H619 0.949 . S
H596 C600 0.949 . S
C597 C598 1.387 . S
C597 C599 1.336 . S
C597 H620 0.904 1_545 S
C598 C597 1.387 . S
C598 C610 1.349 . S
C599 C597 1.336 . S
C599 C615 1.429 . S
C599 H621 0.950 1_545 S
C600 H596 0.949 . S
C600 C608 1.574 . S
C600 C616 1.368 . S
H601 C609 0.950 . S
H602 C607 0.950 . S
H603 C608 0.949 . S
H604 C610 0.950 . S
H605 C611 0.950 . S
H606 C612 0.949 1_565 S
C607 H602 0.950 . S
C607 C609 1.327 . S
C607 C613 1.429 . S
C608 C600 1.574 . S
C608 H603 0.949 . S
C608 C614 1.368 . S
C609 C593 1.349 . S
C609 H601 0.950 . S
C609 C607 1.327 . S
C610 C598 1.349 . S
C610 H604 0.950 . S
C610 C611 1.327 . S
C611 H605 0.950 . S
C611 C610 1.327 . S
C611 C615 1.429 . S
C612 C595 1.574 . S
C612 H606 0.949 1_545 S
C612 C616 1.368 . S
C613 C594 1.429 . S
C613 C607 1.429 . S
C613 C614 1.523 . S
C614 C595 1.368 . S
C614 C608 1.368 . S
C614 C613 1.523 . S
C615 C599 1.429 . S
C615 C611 1.429 . S
C615 C616 1.523 . S
C616 C600 1.368 . S
C616 C612 1.368 . S
C616 C615 1.523 . S
H617 C592 0.950 . S
H618 C594 0.950 . S
H619 C595 0.949 . S
H620 C597 0.904 1_565 S
H621 C599 0.950 1_565 S
C622 C623 1.349 . S
C622 C624 1.327 . S
C622 H647 0.950 . S
C623 C622 1.349 . S
C623 C639 1.349 . S
C624 C622 1.327 . S
C624 C643 1.429 . S
C624 H648 0.950 . S
C625 C642 1.574 . S
C625 C644 1.368 . S
C625 H649 0.949 . S
H626 C630 0.949 . S
C627 C628 1.349 . S
C627 C629 1.327 . S
C627 H650 0.950 . S
C628 C627 1.349 . S
C628 C640 1.349 . S
C629 C627 1.327 . S
C629 C645 1.429 . S
C629 H651 0.950 . S
C630 H626 0.949 . S
C630 C638 1.574 . S
C630 C646 1.368 . S
H631 C639 0.950 . S
H632 C637 0.950 . S
H633 C638 0.949 . S
H634 C640 0.950 . S
H635 C641 0.950 . S
H636 C642 0.949 . S
C637 H632 0.950 . S
C637 C639 1.327 . S
C637 C643 1.429 . S
C638 C630 1.574 . S
C638 H633 0.949 . S
C638 C644 1.368 . S
C639 C623 1.349 . S
C639 H631 0.950 . S
C639 C637 1.327 . S
C640 C628 1.349 . S
C640 H634 0.950 . S
C640 C641 1.327 . S
C641 H635 0.950 . S
C641 C640 1.327 . S
C641 C645 1.429 . S
C642 C625 1.574 . S
C642 H636 0.949 . S
C642 C646 1.368 . S
C643 C624 1.429 . S
C643 C637 1.429 . S
C643 C644 1.523 . S
C644 C625 1.368 . S
C644 C638 1.368 . S
C644 C643 1.523 . S
C645 C629 1.429 . S
C645 C641 1.429 . S
C645 C646 1.523 . S
C646 C630 1.368 . S
C646 C642 1.368 . S
C646 C645 1.523 . S
H647 C622 0.950 . S
H648 C624 0.950 . S
H649 C625 0.949 . S
H650 C627 0.950 . S
H651 C629 0.950 . S
C652 C653 1.349 . S
C652 C654 1.327 . S
C652 H677 0.950 . S
C653 C652 1.349 . S
C653 C669 1.349 . S
C654 C652 1.327 . S
C654 C673 1.429 . S
C654 H678 0.950 . S
C655 C672 1.574 . S
C655 C674 1.368 . S
C655 H679 0.949 . S
H656 C660 0.949 . S
C657 C658 1.349 . S
C657 C659 1.327 . S
C657 H680 0.950 . S
C658 C657 1.349 . S
C658 C670 1.349 . S
C659 C657 1.327 . S
C659 C675 1.429 . S
C659 H681 0.950 . S
C660 H656 0.949 . S
C660 C668 1.574 . S
C660 C676 1.368 . S
H661 C669 0.950 . S
H662 C667 0.950 . S
H663 C668 0.949 . S
H664 C670 0.950 . S
H665 C671 0.950 . S
H666 C672 0.949 . S
C667 H662 0.950 . S
C667 C669 1.327 . S
C667 C673 1.429 . S
C668 C660 1.574 . S
C668 H663 0.949 . S
C668 C674 1.368 . S
C669 C653 1.349 . S
C669 H661 0.950 . S
C669 C667 1.327 . S
C670 C658 1.349 . S
C670 H664 0.950 . S
C670 C671 1.327 . S
C671 H665 0.950 . S
C671 C670 1.327 . S
C671 C675 1.429 . S
C672 C655 1.574 . S
C672 H666 0.949 . S
C672 C676 1.368 . S
C673 C654 1.429 . S
C673 C667 1.429 . S
C673 C674 1.523 . S
C674 C655 1.368 . S
C674 C668 1.368 . S
C674 C673 1.523 . S
C675 C659 1.429 . S
C675 C671 1.429 . S
C675 C676 1.523 . S
C676 C660 1.368 . S
C676 C672 1.368 . S
C676 C675 1.523 . S
H677 C652 0.950 . S
H678 C654 0.950 . S
H679 C655 0.949 . S
H680 C657 0.950 . S
H681 C659 0.950 . S
C682 C683 1.349 . S
C682 C684 1.327 . S
C682 H707 0.950 . S
C683 C682 1.349 . S
C683 C699 1.349 . S
C684 C682 1.327 . S
C684 C703 1.429 . S
C684 H708 0.950 . S
C685 C702 1.574 . S
C685 C704 1.368 . S
C685 H709 0.949 . S
H686 C690 0.949 . S
C687 C688 1.349 . S
C687 C689 1.327 . S
C687 H710 0.943 1_455 S
C688 C687 1.349 . S
C688 C700 1.349 . S
C689 C687 1.327 . S
C689 C705 1.429 . S
C689 H711 0.950 . S
C690 H686 0.949 . S
C690 C698 1.574 . S
C690 C706 1.368 . S
H691 C699 0.950 . S
H692 C697 0.950 . S
H693 C698 0.949 . S
H694 C700 0.950 . S
H695 C701 0.950 . S
H696 C702 0.949 . S
C697 H692 0.950 . S
C697 C699 1.327 . S
C697 C703 1.429 . S
C698 C690 1.574 . S
C698 H693 0.949 . S
C698 C704 1.368 . S
C699 C683 1.349 . S
C699 H691 0.950 . S
C699 C697 1.327 . S
C700 C688 1.349 . S
C700 H694 0.950 . S
C700 C701 1.327 . S
C701 H695 0.950 . S
C701 C700 1.327 . S
C701 C705 1.429 . S
C702 C685 1.574 . S
C702 H696 0.949 . S
C702 C706 1.368 . S
C703 C684 1.429 . S
C703 C697 1.429 . S
C703 C704 1.523 . S
C704 C685 1.368 . S
C704 C698 1.368 . S
C704 C703 1.523 . S
C705 C689 1.429 . S
C705 C701 1.429 . S
C705 C706 1.523 . S
C706 C690 1.368 . S
C706 C702 1.368 . S
C706 C705 1.523 . S
H707 C682 0.950 . S
H708 C684 0.950 . S
H709 C685 0.949 . S
H710 C687 0.943 1_655 S
H711 C689 0.950 . S
C712 C713 1.349 . S
C712 C714 1.327 . S
C712 H737 0.950 . S
C713 C712 1.349 . S
C713 C729 1.349 . S
C714 C712 1.327 . S
C714 C733 1.429 . S
C714 H738 0.950 1_565 S
C715 C732 1.574 . S
C715 C734 1.368 . S
C715 H739 0.949 . S
H716 C720 0.949 . S
C717 C718 1.349 . S
C717 C719 1.327 . S
C717 H740 0.950 . S
C718 C717 1.349 . S
C718 C730 1.349 1_565 S
C719 C717 1.327 . S
C719 C735 1.429 . S
C719 H741 0.950 . S
C720 H716 0.949 . S
C720 C728 1.566 1_545 S
C720 C736 1.368 1_545 S
H721 C729 0.950 . S
H722 C727 0.950 . S
H723 C728 0.914 1_545 S
H724 C730 0.950 . S
H725 C731 0.950 . S
H726 C732 0.949 . S
C727 H722 0.950 . S
C727 C729 1.327 . S
C727 C733 1.429 . S
C728 C720 1.566 1_565 S
C728 H723 0.914 1_565 S
C728 C734 1.417 . S
C729 C713 1.349 . S
C729 H721 0.950 . S
C729 C727 1.327 . S
C730 C718 1.349 1_545 S
C730 H724 0.950 . S
C730 C731 1.327 . S
C731 H725 0.950 . S
C731 C730 1.327 . S
C731 C735 1.429 1_545 S
C732 C715 1.574 . S
C732 H726 0.949 . S
C732 C736 1.368 . S
C733 C714 1.429 . S
C733 C727 1.429 . S
C733 C734 1.523 1_554 S
C734 C715 1.368 . S
C734 C728 1.417 . S
C734 C733 1.523 1_556 S
C735 C719 1.429 . S
C735 C731 1.429 1_565 S
C735 C736 1.523 . S
C736 C720 1.368 1_565 S
C736 C732 1.368 . S
C736 C735 1.523 . S
H737 C712 0.950 . S
H738 C714 0.950 1_545 S
H739 C715 0.949 . S
H740 C717 0.950 . S
H741 C719 0.950 . S
C742 C743 1.349 . S
C742 C744 1.327 . S
C742 H767 0.950 . S
C743 C742 1.349 . S
C743 C759 1.349 . S
C744 C742 1.327 . S
C744 C763 1.429 . S
C744 H768 0.950 . S
C745 C762 1.574 . S
C745 C764 1.368 . S
C745 H769 0.949 . S
H746 C750 0.949 . S
C747 C748 1.349 . S
C747 C749 1.327 . S
C747 H770 0.950 . S
C748 C747 1.349 . S
C748 C760 1.349 . S
C749 C747 1.327 . S
C749 C765 1.429 . S
C749 H771 0.950 . S
C750 H746 0.949 . S
C750 C758 1.574 . S
C750 C766 1.368 . S
H751 C759 0.950 . S
H752 C757 0.950 1_556 S
H753 C758 0.949 . S
H754 C760 0.950 . S
H755 C761 0.950 . S
H756 C762 0.949 . S
C757 H752 0.950 1_554 S
C757 C759 1.327 . S
C757 C763 1.429 . S
C758 C750 1.574 . S
C758 H753 0.949 . S
C758 C764 1.368 . S
C759 C743 1.349 . S
C759 H751 0.950 . S
C759 C757 1.327 . S
C760 C748 1.349 . S
C760 H754 0.950 . S
C760 C761 1.327 . S
C761 H755 0.950 . S
C761 C760 1.327 . S
C761 C765 1.429 . S
C762 C745 1.574 . S
C762 H756 0.949 . S
C762 C766 1.368 . S
C763 C744 1.429 . S
C763 C757 1.429 . S
C763 C764 1.523 1_554 S
C764 C745 1.368 . S
C764 C758 1.368 . S
C764 C763 1.523 1_556 S
C765 C749 1.429 . S
C765 C761 1.429 . S
C765 C766 1.523 . S
C766 C750 1.368 . S
C766 C762 1.368 . S
C766 C765 1.523 . S
H767 C742 0.950 . S
H768 C744 0.950 . S
H769 C745 0.949 . S
H770 C747 0.950 . S
H771 C749 0.950 . S
C772 C773 1.349 . S
C772 C774 1.327 . S
C772 H797 0.950 . S
C773 C772 1.349 . S
C773 C789 1.349 . S
C774 C772 1.327 . S
C774 C793 1.429 . S
C774 H798 0.950 . S
C775 C792 1.574 . S
C775 C794 1.368 . S
C775 H799 0.949 . S
H776 C780 0.949 . S
C777 C778 1.349 . S
C777 C779 1.327 . S
C777 H800 0.950 . S
C778 C777 1.349 . S
C778 C790 1.349 . S
C779 C777 1.327 . S
C779 C795 1.429 . S
C779 H801 0.950 . S
C780 H776 0.949 . S
C780 C788 1.574 . S
C780 C796 1.368 . S
H781 C789 0.950 . S
H782 C787 0.950 1_556 S
H783 C788 0.949 . S
H784 C790 0.950 . S
H785 C791 0.950 . S
H786 C792 0.949 . S
C787 H782 0.950 1_554 S
C787 C789 1.327 . S
C787 C793 1.429 . S
C788 C780 1.574 . S
C788 H783 0.949 . S
C788 C794 1.368 . S
C789 C773 1.349 . S
C789 H781 0.950 . S
C789 C787 1.327 . S
C790 C778 1.349 . S
C790 H784 0.950 . S
C790 C791 1.327 . S
C791 H785 0.950 . S
C791 C790 1.327 . S
C791 C795 1.429 . S
C792 C775 1.574 . S
C792 H786 0.949 . S
C792 C796 1.368 . S
C793 C774 1.429 . S
C793 C787 1.429 . S
C793 C794 1.523 1_554 S
C794 C775 1.368 . S
C794 C788 1.368 . S
C794 C793 1.523 1_556 S
C795 C779 1.429 . S
C795 C791 1.429 . S
C795 C796 1.523 . S
C796 C780 1.368 . S
C796 C792 1.368 . S
C796 C795 1.523 . S
H797 C772 0.950 . S
H798 C774 0.950 . S
H799 C775 0.949 . S
H800 C777 0.950 . S
H801 C779 0.950 . S
C802 C803 1.349 . S
C802 C804 1.327 . S
C802 H827 0.950 . S
C803 C802 1.349 . S
C803 C819 1.349 . S
C804 C802 1.327 . S
C804 C823 1.429 . S
C804 H828 0.950 . S
C805 C822 1.574 . S
C805 C824 1.368 . S
C805 H829 0.949 . S
H806 C810 0.909 1_455 S
C807 C808 1.349 . S
C807 C809 1.327 . S
C807 H830 0.950 . S
C808 C807 1.349 . S
C808 C820 1.349 1_655 S
C809 C807 1.327 . S
C809 C825 1.429 . S
C809 H831 0.950 . S
C810 H806 0.909 1_655 S
C810 C818 1.584 . S
C810 C826 1.405 . S
H811 C819 0.950 . S
H812 C817 0.950 . S
H813 C818 0.949 1_455 S
H814 C820 0.950 . S
H815 C821 0.950 . S
H816 C822 0.949 . S
C817 H812 0.950 . S
C817 C819 1.327 . S
C817 C823 1.429 . S
C818 C810 1.584 . S
C818 H813 0.949 1_655 S
C818 C824 1.368 . S
C819 C803 1.349 . S
C819 H811 0.950 . S
C819 C817 1.327 . S
C820 C808 1.349 1_455 S
C820 H814 0.950 . S
C820 C821 1.327 . S
C821 H815 0.950 . S
C821 C820 1.327 . S
C821 C825 1.429 1_455 S
C822 C805 1.574 . S
C822 H816 0.949 . S
C822 C826 1.368 . S
C823 C804 1.429 . S
C823 C817 1.429 . S
C823 C824 1.523 1_554 S
C824 C805 1.368 . S
C824 C818 1.368 . S
C824 C823 1.523 1_556 S
C825 C809 1.429 . S
C825 C821 1.429 1_655 S
C825 C826 1.523 . S
C826 C810 1.405 . S
C826 C822 1.368 . S
C826 C825 1.523 . S
H827 C802 0.950 . S
H828 C804 0.950 . S
H829 C805 0.949 . S
H830 C807 0.950 . S
H831 C809 0.950 . S
C832 C833 1.349 . S
C832 C834 1.327 . S
C832 H857 0.950 . S
C833 C832 1.349 . S
C833 C849 1.349 . S
C834 C832 1.327 . S
C834 C853 1.429 . S
C834 H858 0.950 . S
C835 C852 1.574 . S
C835 C854 1.368 . S
C835 H859 0.949 . S
H836 C840 0.949 . S
C837 C838 1.349 1_655 S
C837 C839 1.318 1_655 S
C837 H860 0.950 . S
C838 C837 1.349 1_455 S
C838 C850 1.349 . S
C839 C837 1.318 1_455 S
C839 C855 1.451 . S
C839 H861 0.937 1_455 S
C840 H836 0.949 . S
C840 C848 1.574 . S
C840 C856 1.368 . S
H841 C849 0.950 . S
H842 C847 0.950 . S
H843 C848 0.949 . S
H844 C850 0.950 . S
H845 C851 0.950 . S
H846 C852 0.949 . S
C847 H842 0.950 . S
C847 C849 1.327 . S
C847 C853 1.429 . S
C848 C840 1.574 . S
C848 H843 0.949 . S
C848 C854 1.368 . S
C849 C833 1.349 . S
C849 H841 0.950 . S
C849 C847 1.327 . S
C850 C838 1.349 . S
C850 H844 0.950 . S
C850 C851 1.327 . S
C851 H845 0.950 . S
C851 C850 1.327 . S
C851 C855 1.429 . S
C852 C835 1.574 . S
C852 H846 0.949 . S
C852 C856 1.368 . S
C853 C834 1.429 . S
C853 C847 1.429 . S
C853 C854 1.523 . S
C854 C835 1.368 . S
C854 C848 1.368 . S
C854 C853 1.523 . S
C855 C839 1.451 . S
C855 C851 1.429 . S
C855 C856 1.523 . S
C856 C840 1.368 . S
C856 C852 1.368 . S
C856 C855 1.523 . S
H857 C832 0.950 . S
H858 C834 0.950 . S
H859 C835 0.949 . S
H860 C837 0.950 . S
H861 C839 0.937 1_655 S
C862 C863 1.349 . S
C862 C864 1.327 . S
C862 H887 0.950 . S
C863 C862 1.349 . S
C863 C879 1.349 . S
C864 C862 1.327 . S
C864 C883 1.429 . S
C864 H888 0.950 . S
C865 C882 1.574 . S
C865 C884 1.368 . S
C865 H889 0.949 . S
H866 C870 0.949 . S
C867 C868 1.349 . S
C867 C869 1.327 . S
C867 H890 0.953 . S
C868 C867 1.349 . S
C868 C880 1.349 . S
C869 C867 1.327 . S
C869 C885 1.429 . S
C869 H891 0.950 . S
C870 H866 0.949 . S
C870 C878 1.574 . S
C870 C886 1.368 . S
H871 C879 0.950 . S
H872 C877 0.950 . S
H873 C878 0.949 . S
H874 C880 0.950 . S
H875 C881 0.950 . S
H876 C882 0.949 . S
C877 H872 0.950 . S
C877 C879 1.327 . S
C877 C883 1.429 . S
C878 C870 1.574 . S
C878 H873 0.949 . S
C878 C884 1.368 . S
C879 C863 1.349 . S
C879 H871 0.950 . S
C879 C877 1.327 . S
C880 C868 1.349 . S
C880 H874 0.950 . S
C880 C881 1.327 . S
C881 H875 0.950 . S
C881 C880 1.327 . S
C881 C885 1.429 . S
C882 C865 1.574 . S
C882 H876 0.949 . S
C882 C886 1.368 . S
C883 C864 1.429 . S
C883 C877 1.429 . S
C883 C884 1.523 . S
C884 C865 1.368 . S
C884 C878 1.368 . S
C884 C883 1.523 . S
C885 C869 1.429 . S
C885 C881 1.429 . S
C885 C886 1.523 . S
C886 C870 1.368 . S
C886 C882 1.368 . S
C886 C885 1.523 . S
H887 C862 0.950 . S
H888 C864 0.950 . S
H889 C865 0.949 . S
H890 C867 0.953 . S
H891 C869 0.950 . S
C892 C893 1.349 . S
C892 C894 1.327 . S
C892 H917 0.950 . S
C893 C892 1.349 . S
C893 C909 1.349 . S
C894 C892 1.327 . S
C894 C913 1.429 . S
C894 H918 0.950 . S
C895 C912 1.574 . S
C895 C914 1.368 . S
C895 H919 0.949 . S
H896 C900 0.949 . S
C897 C898 1.349 . S
C897 C899 1.327 . S
C897 H920 0.950 . S
C898 C897 1.349 . S
C898 C910 1.349 . S
C899 C897 1.327 . S
C899 C915 1.429 . S
C899 H921 0.950 . S
C900 H896 0.949 . S
C900 C908 1.574 . S
C900 C916 1.368 . S
H901 C909 0.950 . S
H902 C907 0.950 . S
H903 C908 0.949 . S
H904 C910 0.950 . S
H905 C911 0.950 . S
H906 C912 0.949 . S
C907 H902 0.950 . S
C907 C909 1.327 . S
C907 C913 1.429 . S
C908 C900 1.574 . S
C908 H903 0.949 . S
C908 C914 1.368 . S
C909 C893 1.349 . S
C909 H901 0.950 . S
C909 C907 1.327 . S
C910 C898 1.349 . S
C910 H904 0.950 . S
C910 C911 1.327 . S
C911 H905 0.950 . S
C911 C910 1.327 . S
C911 C915 1.429 . S
C912 C895 1.574 . S
C912 H906 0.949 . S
C912 C916 1.368 . S
C913 C894 1.429 . S
C913 C907 1.429 . S
C913 C914 1.523 . S
C914 C895 1.368 . S
C914 C908 1.368 . S
C914 C913 1.523 . S
C915 C899 1.429 . S
C915 C911 1.429 . S
C915 C916 1.523 . S
C916 C900 1.368 . S
C916 C912 1.368 . S
C916 C915 1.523 . S
H917 C892 0.950 . S
H918 C894 0.950 . S
H919 C895 0.949 . S
H920 C897 0.950 . S
H921 C899 0.950 . S
C922 C923 1.349 . S
C922 C924 1.327 . S
C922 H947 0.950 . S
C923 C922 1.349 . S
C923 C939 1.349 . S
C924 C922 1.327 . S
C924 C943 1.429 . S
C924 H948 0.950 . S
C925 C942 1.574 . S
C925 C944 1.368 . S
C925 H949 0.949 . S
H926 C930 0.949 . S
C927 C928 1.349 . S
C927 C929 1.327 . S
C927 H950 0.950 . S
C928 C927 1.349 . S
C928 C940 1.349 . S
C929 C927 1.327 . S
C929 C945 1.429 . S
C929 H951 0.950 . S
C930 H926 0.949 . S
C930 C938 1.574 . S
C930 C946 1.368 . S
H931 C939 0.950 . S
H932 C937 0.950 . S
H933 C938 0.949 . S
H934 C940 0.950 . S
H935 C941 0.950 . S
H936 C942 0.949 . S
C937 H932 0.950 . S
C937 C939 1.327 . S
C937 C943 1.429 . S
C938 C930 1.574 . S
C938 H933 0.949 . S
C938 C944 1.368 . S
C939 C923 1.349 . S
C939 H931 0.950 . S
C939 C937 1.327 . S
C940 C928 1.349 . S
C940 H934 0.950 . S
C940 C941 1.327 . S
C941 H935 0.950 . S
C941 C940 1.327 . S
C941 C945 1.429 . S
C942 C925 1.574 . S
C942 H936 0.949 . S
C942 C946 1.368 . S
C943 C924 1.429 . S
C943 C937 1.429 . S
C943 C944 1.523 . S
C944 C925 1.368 . S
C944 C938 1.368 . S
C944 C943 1.523 . S
C945 C929 1.429 . S
C945 C941 1.429 . S
C945 C946 1.523 . S
C946 C930 1.368 . S
C946 C942 1.368 . S
C946 C945 1.523 . S
H947 C922 0.950 . S
H948 C924 0.950 . S
H949 C925 0.949 . S
H950 C927 0.950 . S
H951 C929 0.950 . S
C952 C953 1.349 . S
C952 C954 1.327 1_554 S
C952 H977 0.950 . S
C953 C952 1.349 . S
C953 C969 1.349 . S
C954 C952 1.327 1_556 S
C954 C973 1.432 . S
C954 H978 0.950 . S
C955 C972 1.565 1_655 S
C955 C974 1.368 . S
C955 H979 0.951 1_656 S
H956 C960 0.949 . S
C957 C958 1.349 . S
C957 C959 1.327 . S
C957 H980 0.950 . S
C958 C957 1.349 . S
C958 C970 1.349 1_455 S
C959 C957 1.327 . S
C959 C975 1.429 1_455 S
C959 H981 0.950 . S
C960 H956 0.949 . S
C960 C968 1.574 . S
C960 C976 1.368 . S
H961 C969 0.950 . S
H962 C967 0.950 . S
H963 C968 0.949 . S
H964 C970 0.950 . S
H965 C971 0.950 . S
H966 C972 0.975 . S
C967 H962 0.950 . S
C967 C969 1.327 . S
C967 C973 1.417 1_554 S
C968 C960 1.574 . S
C968 H963 0.949 . S
C968 C974 1.368 . S
C969 C953 1.349 . S
C969 H961 0.950 . S
C969 C967 1.327 . S
C970 C958 1.349 1_655 S
C970 H964 0.950 . S
C970 C971 1.327 . S
C971 H965 0.950 . S
C971 C970 1.327 . S
C971 C975 1.429 . S
C972 C955 1.565 1_455 S
C972 H966 0.975 . S
C972 C976 1.350 1_455 S
C973 C954 1.432 . S
C973 C967 1.417 1_556 S
C973 C974 1.530 . S
C974 C955 1.368 . S
C974 C968 1.368 . S
C974 C973 1.530 . S
C975 C959 1.429 1_655 S
C975 C971 1.429 . S
C975 C976 1.523 . S
C976 C960 1.368 . S
C976 C972 1.350 1_655 S
C976 C975 1.523 . S
H977 C952 0.950 . S
H978 C954 0.950 . S
H979 C955 0.951 1_454 S
H980 C957 0.950 . S
H981 C959 0.950 . S
C982 C983 1.349 . S
C982 C984 1.327 1_554 S
C982 H1007 0.954 . S
C983 C982 1.349 . S
C983 C999 1.349 . S
C984 C982 1.327 1_556 S
C984 C1003 1.429 1_556 S
C984 H1008 0.950 . S
C985 C1002 1.574 . S
C985 C1004 1.368 . S
C985 H1009 0.949 1_556 S
H986 C990 0.949 . S
C987 C988 1.349 . S
C987 C989 1.327 1_545 S
C987 H1010 0.950 . S
C988 C987 1.349 . S
C988 C1000 1.349 . S
C989 C987 1.327 1_565 S
C989 C1005 1.429 . S
C989 H1011 0.950 . S
C990 H986 0.949 . S
C990 C998 1.574 . S
C990 C1006 1.368 . S
H991 C999 0.950 . S
H992 C997 0.950 . S
H993 C998 0.949 . S
H994 C1000 0.950 . S
H995 C1001 0.950 . S
H996 C1002 0.949 . S
C997 H992 0.950 . S
C997 C999 1.327 . S
C997 C1003 1.429 . S
C998 C990 1.574 . S
C998 H993 0.949 . S
C998 C1004 1.368 . S
C999 C983 1.349 . S
C999 H991 0.950 . S
C999 C997 1.327 . S
C1000 C988 1.349 . S
C1000 H994 0.950 . S
C1000 C1001 1.327 . S
C1001 H995 0.950 . S
C1001 C1000 1.327 . S
C1001 C1005 1.429 1_545 S
C1002 C985 1.574 . S
C1002 H996 0.949 . S
C1002 C1006 1.368 . S
C1003 C984 1.429 1_554 S
C1003 C997 1.429 . S
C1003 C1004 1.523 1_554 S
C1004 C985 1.368 . S
C1004 C998 1.368 . S
C1004 C1003 1.523 1_556 S
C1005 C989 1.429 . S
C1005 C1001 1.429 1_565 S
C1005 C1006 1.523 . S
C1006 C990 1.368 . S
C1006 C1002 1.368 . S
C1006 C1005 1.523 . S
H1007 C982 0.954 . S
H1008 C984 0.950 . S
H1009 C985 0.949 1_554 S
H1010 C987 0.950 . S
H1011 C989 0.950 . S
C1012 C1013 1.349 . S
C1012 C1014 1.327 . S
C1012 H1037 0.950 . S
C1013 C1012 1.349 . S
C1013 C1029 1.349 . S
C1014 C1012 1.327 . S
C1014 C1033 1.429 . S
C1014 H1038 0.950 . S
C1015 C1032 1.574 . S
C1015 C1034 1.368 . S
C1015 H1039 0.949 . S
H1016 C1020 0.949 . S
C1017 C1018 1.349 . S
C1017 C1019 1.327 . S
C1017 H1040 0.950 . S
C1018 C1017 1.349 . S
C1018 C1030 1.349 . S
C1019 C1017 1.327 . S
C1019 C1035 1.429 . S
C1019 H1041 0.950 . S
C1020 H1016 0.949 . S
C1020 C1028 1.574 . S
C1020 C1036 1.368 . S
H1021 C1029 0.950 . S
H1022 C1027 0.950 . S
H1023 C1028 0.949 1_554 S
H1024 C1030 0.950 . S
H1025 C1031 0.950 . S
H1026 C1032 0.949 . S
C1027 H1022 0.950 . S
C1027 C1029 1.327 1_556 S
C1027 C1033 1.429 1_556 S
C1028 C1020 1.574 . S
C1028 H1023 0.949 1_556 S
C1028 C1034 1.368 . S
C1029 C1013 1.349 . S
C1029 H1021 0.950 . S
C1029 C1027 1.327 1_554 S
C1030 C1018 1.349 . S
C1030 H1024 0.950 . S
C1030 C1031 1.327 . S
C1031 H1025 0.950 . S
C1031 C1030 1.327 . S
C1031 C1035 1.429 . S
C1032 C1015 1.574 . S
C1032 H1026 0.949 . S
C1032 C1036 1.368 . S
C1033 C1014 1.429 . S
C1033 C1027 1.429 1_554 S
C1033 C1034 1.523 1_554 S
C1034 C1015 1.368 . S
C1034 C1028 1.368 . S
C1034 C1033 1.523 1_556 S
C1035 C1019 1.429 . S
C1035 C1031 1.429 . S
C1035 C1036 1.523 . S
C1036 C1020 1.368 . S
C1036 C1032 1.368 . S
C1036 C1035 1.523 . S
H1037 C1012 0.950 . S
H1038 C1014 0.950 . S
H1039 C1015 0.949 . S
H1040 C1017 0.950 . S
H1041 C1019 0.950 . S
C1042 C1043 1.349 . S
C1042 C1044 1.327 . S
C1042 H1067 0.950 . S
C1043 C1042 1.349 . S
C1043 C1059 1.349 . S
C1044 C1042 1.327 . S
C1044 C1063 1.429 . S
C1044 H1068 0.950 . S
C1045 C1062 1.574 . S
C1045 C1064 1.368 . S
C1045 H1069 0.949 . S
H1046 C1050 0.949 . S
C1047 C1048 1.349 . S
C1047 C1049 1.327 . S
C1047 H1070 0.950 . S
C1048 C1047 1.349 . S
C1048 C1060 1.349 . S
C1049 C1047 1.327 . S
C1049 C1065 1.429 . S
C1049 H1071 0.950 . S
C1050 H1046 0.949 . S
C1050 C1058 1.574 . S
C1050 C1066 1.368 . S
H1051 C1059 0.950 . S
H1052 C1057 0.950 . S
H1053 C1058 0.949 . S
H1054 C1060 0.950 . S
H1055 C1061 0.950 . S
H1056 C1062 0.949 . S
C1057 H1052 0.950 . S
C1057 C1059 1.327 . S
C1057 C1063 1.429 . S
C1058 C1050 1.574 . S
C1058 H1053 0.949 . S
C1058 C1064 1.368 . S
C1059 C1043 1.349 . S
C1059 H1051 0.950 . S
C1059 C1057 1.327 . S
C1060 C1048 1.349 . S
C1060 H1054 0.950 . S
C1060 C1061 1.327 . S
C1061 H1055 0.950 . S
C1061 C1060 1.327 . S
C1061 C1065 1.429 . S
C1062 C1045 1.574 . S
C1062 H1056 0.949 . S
C1062 C1066 1.368 . S
C1063 C1044 1.429 . S
C1063 C1057 1.429 . S
C1063 C1064 1.523 1_554 S
C1064 C1045 1.368 . S
C1064 C1058 1.368 . S
C1064 C1063 1.523 1_556 S
C1065 C1049 1.429 . S
C1065 C1061 1.429 . S
C1065 C1066 1.523 . S
C1066 C1050 1.368 . S
C1066 C1062 1.368 . S
C1066 C1065 1.523 . S
H1067 C1042 0.950 . S
H1068 C1044 0.950 . S
H1069 C1045 0.949 . S
H1070 C1047 0.950 . S
H1071 C1049 0.950 . S
C1072 C1073 1.349 . S
C1072 C1074 1.327 . S
C1072 H1097 0.950 . S
C1073 C1072 1.349 . S
C1073 C1089 1.349 . S
C1074 C1072 1.327 . S
C1074 C1093 1.429 . S
C1074 H1098 0.950 . S
C1075 C1092 1.574 . S
C1075 C1094 1.368 . S
C1075 H1099 0.949 . S
H1076 C1080 0.949 . S
C1077 C1078 1.349 . S
C1077 C1079 1.327 . S
C1077 H1100 0.950 . S
C1078 C1077 1.349 . S
C1078 C1090 1.349 . S
C1079 C1077 1.327 . S
C1079 C1095 1.429 . S
C1079 H1101 0.950 . S
C1080 H1076 0.949 . S
C1080 C1088 1.574 . S
C1080 C1096 1.368 . S
H1081 C1089 0.950 . S
H1082 C1087 0.950 . S
H1083 C1088 0.949 . S
H1084 C1090 0.950 . S
H1085 C1091 0.950 . S
H1086 C1092 0.949 . S
C1087 H1082 0.950 . S
C1087 C1089 1.327 . S
C1087 C1093 1.429 . S
C1088 C1080 1.574 . S
C1088 H1083 0.949 . S
C1088 C1094 1.368 . S
C1089 C1073 1.349 . S
C1089 H1081 0.950 . S
C1089 C1087 1.327 . S
C1090 C1078 1.349 . S
C1090 H1084 0.950 . S
C1090 C1091 1.327 . S
C1091 H1085 0.950 . S
C1091 C1090 1.327 . S
C1091 C1095 1.429 . S
C1092 C1075 1.574 . S
C1092 H1086 0.949 . S
C1092 C1096 1.368 . S
C1093 C1074 1.429 . S
C1093 C1087 1.429 . S
C1093 C1094 1.523 . S
C1094 C1075 1.368 . S
C1094 C1088 1.368 . S
C1094 C1093 1.523 . S
C1095 C1079 1.429 . S
C1095 C1091 1.429 . S
C1095 C1096 1.523 . S
C1096 C1080 1.368 . S
C1096 C1092 1.368 . S
C1096 C1095 1.523 . S
H1097 C1072 0.950 . S
H1098 C1074 0.950 . S
H1099 C1075 0.949 . S
H1100 C1077 0.950 . S
H1101 C1079 0.950 . S
C1102 C1103 1.349 . S
C1102 C1104 1.327 . S
C1102 H1127 0.950 . S
C1103 C1102 1.349 . S
C1103 C1119 1.349 . S
C1104 C1102 1.327 . S
C1104 C1123 1.429 . S
C1104 H1128 0.950 . S
C1105 C1122 1.574 . S
C1105 C1124 1.368 . S
C1105 H1129 0.949 . S
H1106 C1110 0.949 . S
C1107 C1108 1.349 . S
C1107 C1109 1.327 . S
C1107 H1130 0.950 . S
C1108 C1107 1.349 . S
C1108 C1120 1.349 . S
C1109 C1107 1.327 . S
C1109 C1125 1.429 . S
C1109 H1131 0.950 . S
C1110 H1106 0.949 . S
C1110 C1118 1.574 . S
C1110 C1126 1.368 . S
H1111 C1119 0.950 . S
H1112 C1117 0.950 . S
H1113 C1118 0.949 . S
H1114 C1120 0.950 1_565 S
H1115 C1121 0.950 1_565 S
H1116 C1122 0.949 . S
C1117 H1112 0.950 . S
C1117 C1119 1.327 . S
C1117 C1123 1.429 . S
C1118 C1110 1.574 . S
C1118 H1113 0.949 . S
C1118 C1124 1.368 . S
C1119 C1103 1.349 . S
C1119 H1111 0.950 . S
C1119 C1117 1.327 . S
C1120 C1108 1.349 . S
C1120 H1114 0.950 1_545 S
C1120 C1121 1.327 . S
C1121 H1115 0.950 1_545 S
C1121 C1120 1.327 . S
C1121 C1125 1.429 . S
C1122 C1105 1.574 . S
C1122 H1116 0.949 . S
C1122 C1126 1.368 . S
C1123 C1104 1.429 . S
C1123 C1117 1.429 . S
C1123 C1124 1.523 . S
C1124 C1105 1.368 . S
C1124 C1118 1.368 . S
C1124 C1123 1.523 . S
C1125 C1109 1.429 . S
C1125 C1121 1.429 . S
C1125 C1126 1.523 . S
C1126 C1110 1.368 . S
C1126 C1122 1.368 . S
C1126 C1125 1.523 . S
H1127 C1102 0.950 . S
H1128 C1104 0.950 . S
H1129 C1105 0.949 . S
H1130 C1107 0.950 . S
H1131 C1109 0.950 . S
C1132 C1133 1.349 . S
C1132 C1134 1.327 . S
C1132 H1157 0.950 . S
C1133 C1132 1.349 . S
C1133 C1149 1.349 . S
C1134 C1132 1.327 . S
C1134 C1153 1.429 . S
C1134 H1158 0.950 . S
C1135 C1152 1.574 . S
C1135 C1154 1.368 . S
C1135 H1159 0.949 . S
H1136 C1140 0.949 . S
C1137 C1138 1.349 . S
C1137 C1139 1.327 . S
C1137 H1160 0.950 . S
C1138 C1137 1.349 . S
C1138 C1150 1.349 . S
C1139 C1137 1.327 . S
C1139 C1155 1.429 . S
C1139 H1161 0.950 . S
C1140 H1136 0.949 . S
C1140 C1148 1.574 . S
C1140 C1156 1.368 . S
H1141 C1149 0.950 . S
H1142 C1147 0.950 . S
H1143 C1148 0.949 . S
H1144 C1150 0.950 . S
H1145 C1151 0.950 . S
H1146 C1152 0.949 . S
C1147 H1142 0.950 . S
C1147 C1149 1.327 . S
C1147 C1153 1.429 . S
C1148 C1140 1.574 . S
C1148 H1143 0.949 . S
C1148 C1154 1.368 . S
C1149 C1133 1.349 . S
C1149 H1141 0.950 . S
C1149 C1147 1.327 . S
C1150 C1138 1.349 . S
C1150 H1144 0.950 . S
C1150 C1151 1.327 . S
C1151 H1145 0.950 . S
C1151 C1150 1.327 . S
C1151 C1155 1.429 . S
C1152 C1135 1.574 . S
C1152 H1146 0.949 . S
C1152 C1156 1.368 . S
C1153 C1134 1.429 . S
C1153 C1147 1.429 . S
C1153 C1154 1.523 . S
C1154 C1135 1.368 . S
C1154 C1148 1.368 . S
C1154 C1153 1.523 . S
C1155 C1139 1.429 . S
C1155 C1151 1.429 . S
C1155 C1156 1.523 . S
C1156 C1140 1.368 . S
C1156 C1152 1.368 . S
C1156 C1155 1.523 . S
H1157 C1132 0.950 . S
H1158 C1134 0.950 . S
H1159 C1135 0.949 . S
H1160 C1137 0.950 . S
H1161 C1139 0.950 . S
C1162 C1163 1.349 . S
C1162 C1164 1.327 . S
C1162 H1187 0.950 . S
C1163 C1162 1.349 . S
C1163 C1179 1.349 . S
C1164 C1162 1.327 . S
C1164 C1183 1.429 . S
C1164 H1188 0.950 . S
C1165 C1182 1.574 . S
C1165 C1184 1.368 . S
C1165 H1189 0.949 . S
H1166 C1170 0.949 . S
C1167 C1168 1.349 . S
C1167 C1169 1.327 . S
C1167 H1190 0.950 . S
C1168 C1167 1.349 . S
C1168 C1180 1.349 . S
C1169 C1167 1.327 . S
C1169 C1185 1.429 . S
C1169 H1191 0.950 . S
C1170 H1166 0.949 . S
C1170 C1178 1.574 . S
C1170 C1186 1.368 . S
H1171 C1179 0.950 . S
H1172 C1177 0.950 . S
H1173 C1178 0.949 . S
H1174 C1180 0.950 . S
H1175 C1181 0.950 . S
H1176 C1182 0.949 . S
C1177 H1172 0.950 . S
C1177 C1179 1.327 . S
C1177 C1183 1.429 . S
C1178 C1170 1.574 . S
C1178 H1173 0.949 . S
C1178 C1184 1.368 . S
C1179 C1163 1.349 . S
C1179 H1171 0.950 . S
C1179 C1177 1.327 . S
C1180 C1168 1.349 . S
C1180 H1174 0.950 . S
C1180 C1181 1.327 . S
C1181 H1175 0.950 . S
C1181 C1180 1.327 . S
C1181 C1185 1.429 . S
C1182 C1165 1.574 . S
C1182 H1176 0.949 . S
C1182 C1186 1.368 . S
C1183 C1164 1.429 . S
C1183 C1177 1.429 . S
C1183 C1184 1.523 . S
C1184 C1165 1.368 . S
C1184 C1178 1.368 . S
C1184 C1183 1.523 . S
C1185 C1169 1.429 . S
C1185 C1181 1.429 . S
C1185 C1186 1.523 . S
C1186 C1170 1.368 . S
C1186 C1182 1.368 . S
C1186 C1185 1.523 . S
H1187 C1162 0.950 . S
H1188 C1164 0.950 . S
H1189 C1165 0.949 . S
H1190 C1167 0.950 . S
H1191 C1169 0.950 . S
C1192 C1193 1.349 . S
C1192 C1194 1.327 . S
C1192 H1217 0.950 . S
C1193 C1192 1.349 . S
C1193 C1209 1.349 . S
C1194 C1192 1.327 . S
C1194 C1213 1.429 . S
C1194 H1218 0.950 . S
C1195 C1212 1.574 . S
C1195 C1214 1.368 . S
C1195 H1219 0.949 . S
H1196 C1200 0.949 . S
C1197 C1198 1.349 . S
C1197 C1199 1.327 . S
C1197 H1220 0.950 . S
C1198 C1197 1.349 . S
C1198 C1210 1.349 . S
C1199 C1197 1.327 . S
C1199 C1215 1.429 . S
C1199 H1221 0.950 . S
C1200 H1196 0.949 . S
C1200 C1208 1.574 . S
C1200 C1216 1.368 . S
H1201 C1209 0.950 . S
H1202 C1207 0.950 . S
H1203 C1208 0.949 . S
H1204 C1210 0.950 . S
H1205 C1211 0.950 . S
H1206 C1212 0.949 . S
C1207 H1202 0.950 . S
C1207 C1209 1.327 . S
C1207 C1213 1.429 . S
C1208 C1200 1.574 . S
C1208 H1203 0.949 . S
C1208 C1214 1.368 . S
C1209 C1193 1.349 . S
C1209 H1201 0.950 . S
C1209 C1207 1.327 . S
C1210 C1198 1.349 . S
C1210 H1204 0.950 . S
C1210 C1211 1.327 . S
C1211 H1205 0.950 . S
C1211 C1210 1.327 . S
C1211 C1215 1.429 . S
C1212 C1195 1.574 . S
C1212 H1206 0.949 . S
C1212 C1216 1.368 . S
C1213 C1194 1.429 . S
C1213 C1207 1.429 . S
C1213 C1214 1.523 . S
C1214 C1195 1.368 . S
C1214 C1208 1.368 . S
C1214 C1213 1.523 . S
C1215 C1199 1.429 . S
C1215 C1211 1.429 . S
C1215 C1216 1.523 . S
C1216 C1200 1.368 . S
C1216 C1212 1.368 . S
C1216 C1215 1.523 . S
H1217 C1192 0.950 . S
H1218 C1194 0.950 . S
H1219 C1195 0.949 . S
H1220 C1197 0.950 . S
H1221 C1199 0.950 . S
C1222 C1223 1.349 . S
C1222 C1224 1.327 . S
C1222 H1247 0.950 . S
C1223 C1222 1.349 . S
C1223 C1239 1.349 . S
C1224 C1222 1.327 . S
C1224 C1243 1.429 . S
C1224 H1248 0.950 . S
C1225 C1242 1.574 . S
C1225 C1244 1.368 . S
C1225 H1249 0.949 . S
H1226 C1230 0.949 . S
C1227 C1228 1.349 . S
C1227 C1229 1.327 . S
C1227 H1250 0.950 . S
C1228 C1227 1.349 . S
C1228 C1240 1.349 . S
C1229 C1227 1.327 . S
C1229 C1245 1.429 . S
C1229 H1251 0.950 . S
C1230 H1226 0.949 . S
C1230 C1238 1.574 . S
C1230 C1246 1.368 . S
H1231 C1239 0.950 . S
H1232 C1237 0.950 . S
H1233 C1238 0.949 . S
H1234 C1240 0.950 1_545 S
H1235 C1241 0.968 . S
H1236 C1242 0.949 . S
C1237 H1232 0.950 . S
C1237 C1239 1.327 . S
C1237 C1243 1.429 . S
C1238 C1230 1.574 . S
C1238 H1233 0.949 . S
C1238 C1244 1.368 . S
C1239 C1223 1.349 . S
C1239 H1231 0.950 . S
C1239 C1237 1.327 . S
C1240 C1228 1.349 . S
C1240 H1234 0.950 1_565 S
C1240 C1241 1.327 . S
C1241 H1235 0.968 . S
C1241 C1240 1.327 . S
C1241 C1245 1.429 . S
C1242 C1225 1.574 . S
C1242 H1236 0.949 . S
C1242 C1246 1.368 . S
C1243 C1224 1.429 . S
C1243 C1237 1.429 . S
C1243 C1244 1.523 . S
C1244 C1225 1.368 . S
C1244 C1238 1.368 . S
C1244 C1243 1.523 . S
C1245 C1229 1.429 . S
C1245 C1241 1.429 . S
C1245 C1246 1.523 . S
C1246 C1230 1.368 . S
C1246 C1242 1.368 . S
C1246 C1245 1.523 . S
H1247 C1222 0.950 . S
H1248 C1224 0.950 . S
H1249 C1225 0.949 . S
H1250 C1227 0.950 . S
H1251 C1229 0.950 . S
C1252 C1253 1.349 . S
C1252 C1254 1.327 . S
C1252 H1277 0.950 . S
C1253 C1252 1.349 . S
C1253 C1269 1.349 . S
C1254 C1252 1.327 . S
C1254 C1273 1.429 . S
C1254 H1278 0.950 . S
C1255 C1272 1.574 . S
C1255 C1274 1.368 . S
C1255 H1279 0.949 . S
H1256 C1260 0.949 . S
C1257 C1258 1.349 . S
C1257 C1259 1.327 . S
C1257 H1280 0.950 . S
C1258 C1257 1.349 . S
C1258 C1270 1.349 . S
C1259 C1257 1.327 . S
C1259 C1275 1.429 . S
C1259 H1281 0.950 . S
C1260 H1256 0.949 . S
C1260 C1268 1.574 . S
C1260 C1276 1.368 . S
H1261 C1269 0.950 . S
H1262 C1267 0.950 . S
H1263 C1268 0.949 . S
H1264 C1270 0.950 . S
H1265 C1271 0.950 . S
H1266 C1272 0.949 . S
C1267 H1262 0.950 . S
C1267 C1269 1.327 . S
C1267 C1273 1.429 . S
C1268 C1260 1.574 . S
C1268 H1263 0.949 . S
C1268 C1274 1.368 . S
C1269 C1253 1.349 . S
C1269 H1261 0.950 . S
C1269 C1267 1.327 . S
C1270 C1258 1.349 . S
C1270 H1264 0.950 . S
C1270 C1271 1.327 . S
C1271 H1265 0.950 . S
C1271 C1270 1.327 . S
C1271 C1275 1.429 . S
C1272 C1255 1.574 . S
C1272 H1266 0.949 . S
C1272 C1276 1.368 . S
C1273 C1254 1.429 . S
C1273 C1267 1.429 . S
C1273 C1274 1.523 . S
C1274 C1255 1.368 . S
C1274 C1268 1.368 . S
C1274 C1273 1.523 . S
C1275 C1259 1.429 . S
C1275 C1271 1.429 . S
C1275 C1276 1.523 . S
C1276 C1260 1.368 . S
C1276 C1272 1.368 . S
C1276 C1275 1.523 . S
H1277 C1252 0.950 . S
H1278 C1254 0.950 . S
H1279 C1255 0.949 . S
H1280 C1257 0.950 . S
H1281 C1259 0.950 . S
C1282 C1283 1.349 . S
C1282 C1284 1.327 . S
C1282 H1307 0.950 . S
C1283 C1282 1.349 . S
C1283 C1299 1.349 . S
C1284 C1282 1.327 . S
C1284 C1303 1.429 . S
C1284 H1308 0.950 . S
C1285 C1302 1.574 . S
C1285 C1304 1.368 . S
C1285 H1309 0.949 . S
H1286 C1290 0.949 . S
C1287 C1288 1.349 . S
C1287 C1289 1.327 . S
C1287 H1310 0.950 . S
C1288 C1287 1.349 . S
C1288 C1300 1.349 . S
C1289 C1287 1.327 . S
C1289 C1305 1.429 . S
C1289 H1311 0.950 . S
C1290 H1286 0.949 . S
C1290 C1298 1.574 . S
C1290 C1306 1.368 . S
H1291 C1299 0.950 . S
H1292 C1297 0.950 . S
H1293 C1298 0.949 . S
H1294 C1300 0.950 . S
H1295 C1301 0.950 . S
H1296 C1302 0.949 . S
C1297 H1292 0.950 . S
C1297 C1299 1.327 . S
C1297 C1303 1.429 . S
C1298 C1290 1.574 . S
C1298 H1293 0.949 . S
C1298 C1304 1.368 . S
C1299 C1283 1.349 . S
C1299 H1291 0.950 . S
C1299 C1297 1.327 . S
C1300 C1288 1.349 . S
C1300 H1294 0.950 . S
C1300 C1301 1.327 . S
C1301 H1295 0.950 . S
C1301 C1300 1.327 . S
C1301 C1305 1.429 . S
C1302 C1285 1.574 . S
C1302 H1296 0.949 . S
C1302 C1306 1.368 . S
C1303 C1284 1.429 . S
C1303 C1297 1.429 . S
C1303 C1304 1.523 . S
C1304 C1285 1.368 . S
C1304 C1298 1.368 . S
C1304 C1303 1.523 . S
C1305 C1289 1.429 . S
C1305 C1301 1.429 . S
C1305 C1306 1.523 . S
C1306 C1290 1.368 . S
C1306 C1302 1.368 . S
C1306 C1305 1.523 . S
H1307 C1282 0.950 . S
H1308 C1284 0.950 . S
H1309 C1285 0.949 . S
H1310 C1287 0.950 . S
H1311 C1289 0.950 . S
C593 C215 1.978 . S
C598 C319 2.049 . S
C628 C396 2.063 . S
C623 C247 1.986 . S
C658 C487 2.040 . S
C653 C151 1.968 . S
C688 C571 2.029 . S
C683 C183 1.958 . S
C718 C330 2.048 1_565 S
C713 C87 1.913 . S
C743 C119 1.920 . S
C748 C407 2.063 . S
C773 C23 1.906 . S
C778 C498 2.040 . S
C803 C55 1.895 . S
C808 C582 2.029 1_655 S
C838 C314 0.450 1_455 S
C833 C189 0.291 . S
C868 C409 0.534 . S
C863 C221 0.258 . S
C898 C482 0.448 . S
C893 C253 0.294 . S
C923 C157 0.274 . S
C928 C566 0.443 . S
C953 C61 0.487 . S
C958 C325 0.450 . S
C988 C398 0.534 . S
C983 C93 0.483 . S
C1018 C493 0.448 . S
C1013 C125 0.493 . S
C1043 C29 0.483 . S
C1048 C577 0.443 . S
C1073 C177 2.201 . S
C1078 C323 2.366 . S
C1103 C209 2.200 . S
C1108 C414 2.372 . S
C1138 C491 2.384 . S
C1133 C241 2.219 . S
C1168 C575 2.389 . S
C1163 C145 2.223 . S
C1193 C49 2.149 . S
C1198 C312 2.366 . S
C1228 C403 2.373 . S
C1223 C81 2.145 . S
C1258 C480 2.385 . S
C1253 C113 2.164 . S
C1283 C17 2.171 . S
C1288 C564 2.389 . S
