# Generated by pormake.
# Topology cml, (3,6)-cn, num edge types: 1
# Building blocks:
#     Node 0, Type 0, BuildingBlock: ESEHIV_clean_linker_0, # of connection points: 3
#     Node 1, Type 0, BuildingBlock: ESEHIV_clean_linker_0, # of connection points: 3
#     Node 2, Type 0, BuildingBlock: ESEHIV_clean_linker_0, # of connection points: 3
#     Node 3, Type 0, BuildingBlock: ESEHIV_clean_linker_0, # of connection points: 3
#     Node 4, Type 0, BuildingBlock: ESEHIV_clean_linker_0, # of connection points: 3
#     Node 5, Type 0, BuildingBlock: ESEHIV_clean_linker_0, # of connection points: 3
#     Node 6, Type 0, BuildingBlock: ESEHIV_clean_linker_0, # of connection points: 3
#     Node 7, Type 0, BuildingBlock: ESEHIV_clean_linker_0, # of connection points: 3
#     Node 8, Type 1, BuildingBlock: IZENUY_clean_sbu_0, # of connection points: 6
#     Node 9, Type 1, BuildingBlock: IZENUY_clean_sbu_0, # of connection points: 6
#     Node 10, Type 1, BuildingBlock: IZENUY_clean_sbu_0, # of connection points: 6
#     Node 11, Type 1, BuildingBlock: IZENUY_clean_sbu_0, # of connection points: 6
#     Edge 12, Type (0, 1), BuildingBlock: XIVTED_clean_linker_0, # of connection points: 2
#     Edge 13, Type (0, 1), BuildingBlock: XIVTED_clean_linker_0, # of connection points: 2
#     Edge 14, Type (0, 1), BuildingBlock: XIVTED_clean_linker_0, # of connection points: 2
#     Edge 15, Type (0, 1), BuildingBlock: XIVTED_clean_linker_0, # of connection points: 2
#     Edge 16, Type (0, 1), BuildingBlock: XIVTED_clean_linker_0, # of connection points: 2
#     Edge 17, Type (0, 1), BuildingBlock: XIVTED_clean_linker_0, # of connection points: 2
#     Edge 18, Type (0, 1), BuildingBlock: XIVTED_clean_linker_0, # of connection points: 2
#     Edge 19, Type (0, 1), BuildingBlock: XIVTED_clean_linker_0, # of connection points: 2
#     Edge 20, Type (0, 1), BuildingBlock: XIVTED_clean_linker_0, # of connection points: 2
#     Edge 21, Type (0, 1), BuildingBlock: XIVTED_clean_linker_0, # of connection points: 2
#     Edge 22, Type (0, 1), BuildingBlock: XIVTED_clean_linker_0, # of connection points: 2
#     Edge 23, Type (0, 1), BuildingBlock: XIVTED_clean_linker_0, # of connection points: 2
#     Edge 24, Type (0, 1), BuildingBlock: XIVTED_clean_linker_0, # of connection points: 2
#     Edge 25, Type (0, 1), BuildingBlock: XIVTED_clean_linker_0, # of connection points: 2
#     Edge 26, Type (0, 1), BuildingBlock: XIVTED_clean_linker_0, # of connection points: 2
#     Edge 27, Type (0, 1), BuildingBlock: XIVTED_clean_linker_0, # of connection points: 2
#     Edge 28, Type (0, 1), BuildingBlock: XIVTED_clean_linker_0, # of connection points: 2
#     Edge 29, Type (0, 1), BuildingBlock: XIVTED_clean_linker_0, # of connection points: 2
#     Edge 30, Type (0, 1), BuildingBlock: XIVTED_clean_linker_0, # of connection points: 2
#     Edge 31, Type (0, 1), BuildingBlock: XIVTED_clean_linker_0, # of connection points: 2
#     Edge 32, Type (0, 1), BuildingBlock: XIVTED_clean_linker_0, # of connection points: 2
#     Edge 33, Type (0, 1), BuildingBlock: XIVTED_clean_linker_0, # of connection points: 2
#     Edge 34, Type (0, 1), BuildingBlock: XIVTED_clean_linker_0, # of connection points: 2
#     Edge 35, Type (0, 1), BuildingBlock: XIVTED_clean_linker_0, # of connection points: 2
# Relax obj value: 0.055
# Max RMSD: 0.070
# Mean RMSD: 0.067
data_MOF--net-cml--node1-IZENUY_clean_sbu_0--node2-ESEHIV_clean_linker_0--edge1-XIVTED_clean_linker_0
_symmetry_space_group_name_H-M    P1
_symmetry_Int_Tables_number       1
_symmetry_cell_setting            triclinic
loop_
_symmetry_equiv_pos_as_xyz
'x, y, z'
_cell_length_a     33.789435
_cell_length_b     39.171079
_cell_length_c     36.239674
_cell_angle_alpha  90.095223
_cell_angle_beta   89.933284
_cell_angle_gamma 89.49603
loop_
_atom_site_label
_atom_site_type_symbol
_atom_site_fract_x
_atom_site_fract_y
_atom_site_fract_z
_atom_type_partial_charge
H0 H 0.32781 0.41746 0.03604 0.0
H1 H 0.26594 0.39028 0.93675 0.0
H2 H 0.24785 0.33318 0.03689 0.0
C3 C 0.30698 0.40138 0.02157 0.0
C4 C 0.28858 0.37487 0.04073 0.0
C5 C 0.29976 0.40672 0.98386 0.0
C6 C 0.27213 0.38606 0.96571 0.0
C7 C 0.25271 0.35975 0.98472 0.0
C8 C 0.26168 0.35397 0.02215 0.0
H9 H 0.66996 0.5779 0.52819 0.0
H10 H 0.73614 0.6079 0.43267 0.0
H11 H 0.74295 0.66686 0.53308 0.0
C12 C 0.69102 0.5948 0.51519 0.0
C13 C 0.70518 0.62301 0.53488 0.0
C14 C 0.70222 0.5891 0.4784 0.0
C15 C 0.72797 0.61206 0.46123 0.0
C16 C 0.74302 0.64029 0.48058 0.0
C17 C 0.73129 0.64558 0.5175 0.0
H18 H 0.67243 0.42305 0.03012 0.0
H19 H 0.73478 0.32714 0.03194 0.0
H20 H 0.75832 0.40058 0.94616 0.0
C21 C 0.69459 0.40601 0.01846 0.0
C22 C 0.71423 0.41541 0.98599 0.0
C23 C 0.70193 0.37432 0.0353 0.0
C24 C 0.73015 0.35205 0.01968 0.0
C25 C 0.7506 0.36106 0.98721 0.0
C26 C 0.74256 0.393 0.97083 0.0
H27 H 0.31643 0.57359 0.54279 0.0
H28 H 0.24585 0.60122 0.4489 0.0
H29 H 0.24437 0.66437 0.54643 0.0
C30 C 0.2947 0.59032 0.53005 0.0
C31 C 0.28166 0.61962 0.54901 0.0
C32 C 0.28183 0.58335 0.49405 0.0
C33 C 0.2554 0.60622 0.4769 0.0
C34 C 0.24178 0.63571 0.49543 0.0
C35 C 0.25508 0.64211 0.53158 0.0
H36 H 0.8297 0.917 0.03269 0.0
H37 H 0.76456 0.88829 0.93587 0.0
H38 H 0.75049 0.83225 0.03733 0.0
C39 C 0.80849 0.9006 0.01915 0.0
C40 C 0.79099 0.87426 0.0393 0.0
C41 C 0.79989 0.9054 0.98162 0.0
C42 C 0.77183 0.88438 0.96466 0.0
C43 C 0.75337 0.85816 0.98462 0.0
C44 C 0.76365 0.85292 0.02187 0.0
H45 H 0.17661 0.07787 0.53819 0.0
H46 H 0.23358 0.10869 0.43766 0.0
H47 H 0.25363 0.16405 0.53885 0.0
C48 C 0.19642 0.09469 0.52349 0.0
C49 C 0.21371 0.12189 0.5425 0.0
C50 C 0.20316 0.08975 0.4856 0.0
C51 C 0.2291 0.11173 0.46708 0.0
C52 C 0.24784 0.13856 0.48598 0.0
C53 C 0.23962 0.14357 0.52374 0.0
H54 H 0.18096 0.92474 0.04304 0.0
H55 H 0.25247 0.83357 0.04537 0.0
H56 H 0.25058 0.89704 0.94831 0.0
C57 C 0.20237 0.9079 0.0299 0.0
C58 C 0.2149 0.91486 0.9938 0.0
C59 C 0.2155 0.87854 0.0486 0.0
C60 C 0.24173 0.8559 0.03074 0.0
C61 C 0.25489 0.86242 0.99455 0.0
C62 C 0.24114 0.89196 0.97632 0.0
H63 H 0.82243 0.07682 0.53627 0.0
H64 H 0.7463 0.10324 0.44591 0.0
H65 H 0.75451 0.16983 0.54052 0.0
C66 C 0.80059 0.09381 0.52411 0.0
C67 C 0.78911 0.12355 0.54312 0.0
C68 C 0.78577 0.08656 0.48885 0.0
C69 C 0.75865 0.1094 0.47264 0.0
C70 C 0.74699 0.13966 0.49091 0.0
C71 C 0.76269 0.14654 0.52617 0.0
Fe72 Fe -0.00179 0.80852 0.31204 0.0
Fe73 Fe 0.99448 0.84731 0.3859 0.0
O74 O 0.99651 0.8476 0.33705 0.0
Fe75 Fe 0.99672 0.88705 0.31327 0.0
O76 O 0.95157 0.87656 0.2891 0.0
O77 O 0.96976 0.82475 0.27248 0.0
O78 O 0.95151 0.79482 0.33163 0.0
C79 C 0.94411 0.7933 0.3657 0.0
C80 C 0.05112 0.84643 0.27255 0.0
O81 O 0.96592 0.80801 0.38903 0.0
C82 C 0.04563 0.90254 0.37051 0.0
O83 O 0.02679 0.78531 0.34725 0.0
O84 O 0.04116 0.82426 0.38879 0.0
O85 O 0.02769 0.87168 0.27521 0.0
O86 O 0.04507 0.81934 0.29042 0.0
C87 C 0.9421 0.89909 0.37147 0.0
O88 O 0.02244 0.88671 0.39175 0.0
O89 O 0.04198 0.90036 0.33596 0.0
C90 C 0.04803 0.79577 0.37369 0.0
O91 O 0.94761 0.87041 0.38647 0.0
O92 O 0.96566 0.90978 0.34698 0.0
C93 C 0.94668 0.85028 0.26955 0.0
Fe94 Fe 0.00386 0.1499 0.88558 0.0
Fe95 Fe 0.00548 0.11099 0.81237 0.0
O96 O 0.00359 0.1502 0.83669 0.0
Fe97 Fe 0.00168 0.18952 0.81234 0.0
O98 O 0.04691 0.20432 0.83416 0.0
O99 O 0.02989 0.19024 0.89051 0.0
O100 O 0.05175 0.12831 0.88701 0.0
C101 C 0.05857 0.09984 0.87178 0.0
C102 C 0.9486 0.19973 0.87266 0.0
O103 O 0.03595 0.08877 0.84673 0.0
C104 C 0.95192 0.15081 0.77006 0.0
O105 O 0.97767 0.10951 0.88988 0.0
O106 O 0.95977 0.09652 0.83347 0.0
O107 O 0.97006 0.21122 0.84678 0.0
O108 O 0.95625 0.17131 0.8875 0.0
C109 C 0.05632 0.14924 0.77097 0.0
O110 O 0.97565 0.1259 0.77348 0.0
O111 O 0.95644 0.17786 0.78846 0.0
C112 C 0.95539 0.09363 0.86786 0.0
O113 O 0.05113 0.12265 0.78983 0.0
O114 O 0.03282 0.17455 0.77374 0.0
C115 C 0.05182 0.20646 0.86857 0.0
Fe116 Fe 0.4966 0.30857 0.31143 0.0
Fe117 Fe 0.49574 0.349 0.38465 0.0
O118 O 0.49476 0.34801 0.33574 0.0
Fe119 Fe 0.49161 0.3869 0.31091 0.0
O120 O 0.44469 0.37476 0.29104 0.0
O121 O 0.46388 0.32325 0.27388 0.0
O122 O 0.45244 0.29328 0.33432 0.0
C123 C 0.44653 0.29277 0.36867 0.0
C124 C 0.54269 0.34677 0.26593 0.0
O125 O 0.46794 0.3096 0.39059 0.0
C126 C 0.54565 0.40345 0.36363 0.0
O127 O 0.5292 0.28702 0.34485 0.0
O128 O 0.5426 0.32644 0.38626 0.0
O129 O 0.51861 0.37126 0.27051 0.0
O130 O 0.54108 0.32072 0.28626 0.0
C131 C 0.44175 0.39998 0.37198 0.0
O132 O 0.52406 0.38859 0.38718 0.0
O133 O 0.53842 0.40129 0.32952 0.0
C134 C 0.55023 0.29816 0.3711 0.0
O135 O 0.44858 0.37165 0.38722 0.0
O136 O 0.46371 0.41033 0.34619 0.0
C137 C 0.43949 0.34806 0.27215 0.0
Fe138 Fe 0.50255 0.65143 0.88482 0.0
Fe139 Fe 0.50455 0.61207 0.81185 0.0
O140 O 0.50238 0.65132 0.83596 0.0
Fe141 Fe 0.50013 0.69049 0.81145 0.0
O142 O 0.54584 0.70503 0.83254 0.0
O143 O 0.52838 0.69203 0.88912 0.0
O144 O 0.55062 0.63029 0.88647 0.0
C145 C 0.55823 0.60202 0.8711 0.0
C146 C 0.44736 0.70111 0.87171 0.0
O147 O 0.53589 0.59046 0.84604 0.0
C148 C 0.44951 0.65133 0.77068 0.0
O149 O 0.47686 0.6108 0.88971 0.0
O150 O 0.45934 0.59717 0.83341 0.0
O151 O 0.46947 0.71257 0.84633 0.0
O152 O 0.45455 0.67249 0.88631 0.0
C153 C 0.55384 0.6503 0.76899 0.0
O154 O 0.47378 0.62668 0.77345 0.0
O155 O 0.45437 0.67863 0.7886 0.0
C156 C 0.45496 0.59446 0.86779 0.0
O157 O 0.54973 0.62401 0.78856 0.0
O158 O 0.5302 0.67542 0.7722 0.0
C159 C 0.55087 0.70745 0.86694 0.0
H160 H 0.25543 0.33355 0.91416 0.0
H161 H 0.05704 0.22756 0.93987 0.0
H162 H 0.18209 0.33729 0.01176 0.0
H163 H 0.1129 0.23973 0.83348 0.0
H164 H 0.10523 0.26571 0.96675 0.0
H165 H 0.20586 0.29775 0.88407 0.0
C166 C 0.22883 0.32706 0.92918 0.0
C167 C 0.22302 0.33832 0.96566 0.0
C168 C 0.10699 0.26022 0.93749 0.0
C169 C 0.1666 0.29708 0.93156 0.0
C170 C 0.0795 0.23827 0.92206 0.0
C171 C 0.08094 0.23034 0.8843 0.0
C172 C 0.13658 0.27429 0.9152 0.0
C173 C 0.11067 0.24522 0.8627 0.0
C174 C 0.20066 0.30654 0.91202 0.0
C175 C 0.18824 0.32871 0.98391 0.0
N176 N 0.13754 0.26642 0.87853 0.0
N177 N 0.16149 0.30859 0.96672 0.0
H178 H 0.74857 0.70996 0.48903 0.0
H179 H 0.91251 0.73607 0.3338 0.0
H180 H 0.80122 0.62514 0.42969 0.0
H181 H 0.90197 0.80206 0.42885 0.0
H182 H 0.8613 0.69917 0.36023 0.0
H183 H 0.79548 0.74816 0.45916 0.0
C184 C 0.76999 0.69925 0.46992 0.0
C185 C 0.77088 0.66409 0.46212 0.0
C186 C 0.87019 0.72185 0.3751 0.0
C187 C 0.82375 0.70801 0.427 0.0
C188 C 0.89914 0.74293 0.36 0.0
C189 C 0.9116 0.77191 0.37938 0.0
C190 C 0.85315 0.73035 0.40931 0.0
C191 C 0.89346 0.77969 0.41326 0.0
C192 C 0.79653 0.72116 0.45269 0.0
C193 C 0.7988 0.65204 0.43624 0.0
N194 N 0.86504 0.75908 0.42712 0.0
N195 N 0.82403 0.67397 0.41953 0.0
H196 H 0.76392 0.35009 0.91309 0.0
H197 H 0.91361 0.19411 0.94057 0.0
H198 H 0.80211 0.31577 0.0207 0.0
H199 H 0.91256 0.25584 0.84198 0.0
H200 H 0.86472 0.23279 0.96829 0.0
H201 H 0.81115 0.31053 0.88478 0.0
C202 C 0.78239 0.33454 0.93089 0.0
C203 C 0.77907 0.33667 0.96953 0.0
C204 C 0.87517 0.23779 0.94058 0.0
C205 C 0.83245 0.29043 0.93694 0.0
C206 C 0.90289 0.21563 0.92462 0.0
C207 C 0.91732 0.22181 0.8889 0.0
C208 C 0.86126 0.26604 0.9205 0.0
C209 C 0.90243 0.25022 0.86965 0.0
C210 C 0.80917 0.31176 0.91459 0.0
C211 C 0.80312 0.31489 0.99087 0.0
N212 N 0.87511 0.27123 0.88565 0.0
N213 N 0.82867 0.29264 0.97429 0.0
H214 H 0.24118 0.70587 0.49879 0.0
H215 H 0.06144 0.72836 0.35737 0.0
H216 H 0.17936 0.62123 0.44952 0.0
H217 H 0.10349 0.81008 0.42676 0.0
H218 H 0.10931 0.68974 0.38609 0.0
H219 H 0.19516 0.74523 0.46851 0.0
C220 C 0.21782 0.69548 0.48182 0.0
C221 C 0.21416 0.66005 0.47689 0.0
C222 C 0.10809 0.71613 0.39501 0.0
C223 C 0.16179 0.70517 0.44151 0.0
C224 C 0.08085 0.73827 0.37852 0.0
C225 C 0.07825 0.77255 0.38977 0.0
C226 C 0.13325 0.72831 0.42278 0.0
C227 C 0.10426 0.78384 0.41734 0.0
C228 C 0.19169 0.71803 0.46436 0.0
C229 C 0.18376 0.64827 0.45383 0.0
N230 N 0.13067 0.76178 0.43289 0.0
N231 N 0.15882 0.67076 0.43701 0.0
H232 H 0.68383 0.83552 0.01392 0.0
H233 H 0.61174 0.73998 0.83088 0.0
H234 H 0.754 0.83147 0.91431 0.0
H235 H 0.55809 0.72809 0.9383 0.0
H236 H 0.66133 0.7776 0.85866 0.0
H237 H 0.63452 0.79974 0.98436 0.0
C238 C 0.68903 0.8269 0.9859 0.0
C239 C 0.72324 0.83638 0.96668 0.0
C240 C 0.63862 0.76669 0.87601 0.0
C241 C 0.66646 0.79577 0.93234 0.0
C242 C 0.61029 0.74535 0.86018 0.0
C243 C 0.58077 0.73081 0.88228 0.0
C244 C 0.63706 0.77367 0.91406 0.0
C245 C 0.58035 0.73855 0.92013 0.0
C246 C 0.66072 0.80662 0.96893 0.0
C247 C 0.72787 0.82508 0.93007 0.0
N248 N 0.60797 0.75943 0.93473 0.0
N249 N 0.69978 0.80533 0.91406 0.0
H250 H 0.30099 0.12227 0.43094 0.0
H251 H 0.40866 0.30076 0.43437 0.0
H252 H 0.25783 0.20762 0.49562 0.0
H253 H 0.41349 0.23531 0.33849 0.0
H254 H 0.35843 0.26384 0.46118 0.0
H255 H 0.34708 0.16051 0.39991 0.0
C256 C 0.30086 0.14904 0.43846 0.0
C257 C 0.27547 0.1616 0.4662 0.0
C258 C 0.37034 0.25765 0.43421 0.0
C259 C 0.32889 0.20519 0.43132 0.0
C260 C 0.39914 0.27857 0.41897 0.0
C261 C 0.41533 0.27097 0.38423 0.0
C262 C 0.35812 0.22854 0.41489 0.0
C263 C 0.40167 0.24208 0.36533 0.0
C264 C 0.32732 0.17077 0.4208 0.0
C265 C 0.27735 0.19648 0.47511 0.0
N266 N 0.37407 0.22164 0.3811 0.0
N267 N 0.30381 0.21696 0.45795 0.0
H268 H 0.31712 0.87789 0.94886 0.0
H269 H 0.39114 0.68496 0.92352 0.0
H270 H 0.25656 0.79214 0.99704 0.0
H271 H 0.43326 0.76877 0.85738 0.0
H272 H 0.34331 0.72374 0.95277 0.0
H273 H 0.36181 0.8383 0.91729 0.0
C274 C 0.31297 0.85074 0.95265 0.0
C275 C 0.2828 0.83844 0.97564 0.0
C276 C 0.3629 0.73357 0.93172 0.0
C277 C 0.33456 0.79282 0.93989 0.0
C278 C 0.39025 0.71145 0.91501 0.0
C279 C 0.41643 0.72361 0.88802 0.0
C280 C 0.36193 0.76817 0.92163 0.0
C281 C 0.41374 0.7582 0.87804 0.0
C282 C 0.33868 0.82812 0.93469 0.0
C283 C 0.27963 0.8029 0.98002 0.0
N284 N 0.38721 0.77926 0.89501 0.0
N285 N 0.30521 0.78137 0.96239 0.0
H286 H 0.68928 0.1795 0.52391 0.0
H287 H 0.58913 0.24413 0.33867 0.0
H288 H 0.73945 0.15561 0.41707 0.0
H289 H 0.58203 0.30145 0.44034 0.0
H290 H 0.63831 0.20611 0.36735 0.0
H291 H 0.64358 0.21938 0.49422 0.0
C292 C 0.69106 0.18273 0.4943 0.0
C293 C 0.71861 0.16401 0.47313 0.0
C294 C 0.62607 0.22716 0.38321 0.0
C295 C 0.66527 0.20909 0.43888 0.0
C296 C 0.59798 0.24877 0.36694 0.0
C297 C 0.58146 0.276 0.38713 0.0
C298 C 0.63704 0.2324 0.42014 0.0
C299 C 0.5941 0.28089 0.42367 0.0
C300 C 0.66471 0.20541 0.47737 0.0
C301 C 0.71842 0.16885 0.43463 0.0
N302 N 0.62081 0.2591 0.43911 0.0
N303 N 0.69203 0.19073 0.41875 0.0
H304 H 0.37775 0.42274 0.99176 0.0
H305 H 0.39284 0.56155 0.83411 0.0
H306 H 0.27361 0.45065 0.92925 0.0
H307 H 0.45869 0.56625 0.93606 0.0
H308 H 0.3533 0.51483 0.86032 0.0
H309 H 0.41362 0.46875 0.96219 0.0
C310 C 0.36226 0.43866 0.97199 0.0
C311 C 0.32225 0.43324 0.96366 0.0
C312 C 0.37633 0.52639 0.87678 0.0
C313 C 0.36375 0.48545 0.92888 0.0
C314 C 0.39887 0.55287 0.86193 0.0
C315 C 0.42909 0.56775 0.88295 0.0
C316 C 0.3849 0.51444 0.9124 0.0
C317 C 0.43566 0.55567 0.91886 0.0
C318 C 0.38288 0.4648 0.95498 0.0
C319 C 0.30438 0.45391 0.93656 0.0
N320 N 0.41404 0.52953 0.93227 0.0
N321 N 0.32529 0.47926 0.92009 0.0
H322 H 0.67461 0.58735 0.40713 0.0
H323 H 0.58146 0.40298 0.4307 0.0
H324 H 0.69278 0.52365 0.50281 0.0
H325 H 0.57886 0.45792 0.32757 0.0
H326 H 0.62577 0.44572 0.45594 0.0
H327 H 0.64319 0.53936 0.37577 0.0
C328 C 0.67249 0.56315 0.42137 0.0
C329 C 0.68597 0.5596 0.45782 0.0
C330 C 0.61588 0.44835 0.42767 0.0
C331 C 0.6496 0.5048 0.42229 0.0
C332 C 0.59048 0.42398 0.41326 0.0
C333 C 0.57608 0.42716 0.37714 0.0
C334 C 0.62665 0.47647 0.40601 0.0
C335 C 0.58917 0.4546 0.35562 0.0
C336 C 0.65441 0.53581 0.40349 0.0
C337 C 0.68207 0.52775 0.47501 0.0
N338 N 0.61334 0.47852 0.37057 0.0
N339 N 0.66396 0.5017 0.45722 0.0
H340 H 0.70153 0.42405 0.91202 0.0
H341 H 0.59871 0.60744 0.93677 0.0
H342 H 0.69842 0.47891 0.01536 0.0
H343 H 0.59013 0.54525 0.8387 0.0
H344 H 0.6453 0.56566 0.96281 0.0
H345 H 0.67169 0.47346 0.88161 0.0
C346 C 0.69532 0.44674 0.92821 0.0
C347 C 0.7021 0.44716 0.96641 0.0
C348 C 0.63349 0.56139 0.93544 0.0
C349 C 0.66709 0.5037 0.93184 0.0
C350 C 0.60699 0.58527 0.92052 0.0
C351 C 0.59001 0.57958 0.88572 0.0
C352 C 0.64323 0.53176 0.91531 0.0
C353 C 0.60196 0.55044 0.86587 0.0
C354 C 0.67793 0.47488 0.91087 0.0
C355 C 0.693 0.47723 0.98599 0.0
N356 N 0.62755 0.52756 0.88103 0.0
N357 N 0.67559 0.50416 0.96857 0.0
H358 H 0.29382 0.51831 0.52017 0.0
H359 H 0.41356 0.45858 0.34082 0.0
H360 H 0.30739 0.57974 0.42229 0.0
H361 H 0.4009 0.39562 0.43771 0.0
H362 H 0.3689 0.50063 0.36819 0.0
H363 H 0.32731 0.47091 0.48866 0.0
C364 C 0.30364 0.52177 0.49196 0.0
C365 C 0.29807 0.55319 0.47396 0.0
C366 C 0.37561 0.47755 0.38345 0.0
C367 C 0.33631 0.49895 0.43769 0.0
C368 C 0.4012 0.45348 0.36783 0.0
C369 C 0.41145 0.42367 0.3872 0.0
C370 C 0.36019 0.47204 0.41889 0.0
C371 C 0.39403 0.41831 0.42188 0.0
C372 C 0.32262 0.49464 0.47396 0.0
C373 C 0.31078 0.55598 0.43721 0.0
N374 N 0.36955 0.44246 0.4368 0.0
N375 N 0.32959 0.52935 0.42045 0.0
H376 H 0.77117 0.94901 0.92781 0.0
H377 H 0.95799 0.06683 0.93677 0.0
H378 H 0.87801 0.92161 0.98652 0.0
H379 H 0.89418 0.05947 0.83383 0.0
H380 H 0.91893 0.02042 0.96133 0.0
H381 H 0.8076 0.99501 0.89691 0.0
C382 C 0.80223 0.95241 0.934 0.0
C383 C 0.82136 0.93182 0.9604 0.0
C384 C 0.91343 0.02898 0.93337 0.0
C385 C 0.86243 0.98444 0.92591 0.0
C386 C 0.93551 0.05565 0.91934 0.0
C387 C 0.9295 0.06694 0.88304 0.0
C388 C 0.8846 0.01366 0.91131 0.0
C389 C 0.89989 0.05131 0.86186 0.0
C390 C 0.82283 0.97865 0.91644 0.0
C391 C 0.86162 0.93748 0.96737 0.0
N392 N 0.87826 0.02537 0.8764 0.0
N393 N 0.88061 0.96349 0.95062 0.0
H394 H 0.22998 0.04798 0.42908 0.0
H395 H 0.04547 0.92596 0.44115 0.0
H396 H 0.1266 0.06968 0.4957 0.0
H397 H 0.1065 0.93765 0.33715 0.0
H398 H 0.08539 0.97126 0.46716 0.0
H399 H 0.19363 0.00151 0.39897 0.0
C400 C 0.19972 0.04319 0.43728 0.0
C401 C 0.18162 0.06249 0.46551 0.0
C402 C 0.09012 0.96386 0.43866 0.0
C403 C 0.14064 0.00913 0.43188 0.0
C404 C 0.06752 0.93783 0.42378 0.0
C405 C 0.07239 0.92814 0.38674 0.0
C406 C 0.11831 0.98016 0.41666 0.0
C407 C 0.10158 0.94456 0.36574 0.0
C408 C 0.17916 0.01663 0.42018 0.0
C409 C 0.14237 0.05491 0.47505 0.0
N410 N 0.12362 0.96987 0.38104 0.0
N411 N 0.12343 0.02866 0.45858 0.0
H412 H 0.20301 0.97985 0.02054 0.0
H413 H 0.08827 0.04211 0.83975 0.0
H414 H 0.18986 0.91904 0.92196 0.0
H415 H 0.09829 0.10378 0.93808 0.0
H416 H 0.13207 -0.00037 0.86732 0.0
H417 H 0.17082 0.02781 0.98908 0.0
C418 C 0.19351 0.97661 0.99222 0.0
C419 C 0.19888 0.94522 0.97398 0.0
C420 C 0.12501 0.02253 0.88285 0.0
C421 C 0.16224 0.00014 0.93772 0.0
C422 C 0.09995 0.04687 0.8671 0.0
C423 C 0.08915 0.0764 0.88682 0.0
C424 C 0.13931 0.02749 0.91878 0.0
C425 C 0.10566 0.08132 0.92195 0.0
C426 C 0.17531 0.00408 0.97424 0.0
C427 C 0.18664 0.94275 0.93708 0.0
N428 N 0.12959 0.0569 0.937 0.0
N429 N 0.16864 0.96972 0.92032 0.0
H430 H 0.80723 0.08208 0.41607 0.0
H431 H 0.89754 0.8932 0.43479 0.0
H432 H 0.79848 0.02162 0.51514 0.0
H433 H 0.91691 0.9593 0.34138 0.0
H434 H 0.85267 0.93629 0.46111 0.0
H435 H 0.83843 0.03359 0.38477 0.0
C436 C 0.81129 0.05843 0.43109 0.0
C437 C 0.80054 0.05605 0.46841 0.0
C438 C 0.86651 0.94119 0.4347 0.0
C439 C 0.83688 0.00049 0.43286 0.0
C440 C 0.89204 0.91656 0.41961 0.0
C441 C 0.91146 0.92282 0.38605 0.0
C442 C 0.86023 0.97219 0.41601 0.0
C443 C 0.90305 0.95353 0.36756 0.0
C444 C 0.8294 0.0308 0.41327 0.0
C445 C 0.80695 0.02479 0.48654 0.0
N446 N 0.87832 0.9771 0.38289 0.0
N447 N 0.82496 0.99834 0.46869 0.0
H448 H 0.29139 0.42054 0.09758 0.0
H449 H 0.42098 0.29693 0.22342 0.0
H450 H 0.31198 0.31438 0.07173 0.0
H451 H 0.38729 0.39955 0.25489 0.0
H452 H 0.37555 0.30058 0.17116 0.0
H453 H 0.32028 0.41135 0.15856 0.0
C454 C 0.30155 0.39517 0.10504 0.0
C455 C 0.29971 0.36824 0.07958 0.0
C456 C 0.37775 0.32215 0.18976 0.0
C457 C 0.33327 0.35754 0.14907 0.0
C458 C 0.40374 0.3201 0.21961 0.0
C459 C 0.4085 0.34819 0.24329 0.0
C460 C 0.35655 0.35257 0.18336 0.0
C461 C 0.38504 0.3774 0.23714 0.0
C462 C 0.31801 0.38989 0.13983 0.0
C463 C 0.31287 0.33579 0.09064 0.0
N464 N 0.36049 0.37896 0.20754 0.0
N465 N 0.32968 0.33143 0.12441 0.0
H466 H 0.70031 0.57716 0.59141 0.0
H467 H 0.56964 0.7006 0.71846 0.0
H468 H 0.67755 0.68284 0.56505 0.0
H469 H 0.60462 0.59833 0.74961 0.0
H470 H 0.61294 0.69635 0.66452 0.0
H471 H 0.66947 0.58597 0.6517 0.0
C472 C 0.68907 0.60231 0.5985 0.0
C473 C 0.69114 0.62923 0.57312 0.0
C474 C 0.61142 0.67498 0.68336 0.0
C475 C 0.65553 0.63954 0.64201 0.0
C476 C 0.58667 0.67737 0.71419 0.0
C477 C 0.58303 0.64962 0.73842 0.0
C478 C 0.63255 0.64455 0.67658 0.0
C479 C 0.6061 0.62027 0.73155 0.0
C480 C 0.67155 0.60738 0.63295 0.0
C481 C 0.67661 0.66143 0.58387 0.0
N482 N 0.62951 0.61841 0.70112 0.0
N483 N 0.65897 0.6656 0.61736 0.0
H484 H 0.62246 0.38205 0.0452 0.0
H485 H 0.61009 0.30848 0.25025 0.0
H486 H 0.72703 0.34319 0.09964 0.0
H487 H 0.532 0.38545 0.20483 0.0
H488 H 0.64976 0.31065 0.19296 0.0
H489 H 0.58439 0.37162 0.10096 0.0
C490 C 0.63746 0.37134 0.06897 0.0
C491 C 0.67821 0.36429 0.06805 0.0
C492 C 0.62389 0.32696 0.19582 0.0
C493 C 0.63449 0.35183 0.13211 0.0
C494 C 0.60129 0.3257 0.22834 0.0
C495 C 0.56783 0.34695 0.23244 0.0
C496 C 0.61223 0.34903 0.1672 0.0
C497 C 0.55769 0.3688 0.20321 0.0
C498 C 0.61566 0.36528 0.10079 0.0
C499 C 0.69571 0.34923 0.09932 0.0
N500 N 0.57962 0.36912 0.17194 0.0
N501 N 0.67378 0.34373 0.13034 0.0
H502 H 0.30696 0.68111 0.57655 0.0
H503 H 0.41486 0.5933 0.74663 0.0
H504 H 0.29302 0.57526 0.60633 0.0
H505 H 0.41115 0.70263 0.73251 0.0
H506 H 0.3669 0.5873 0.6971 0.0
H507 H 0.34109 0.69097 0.63517 0.0
C508 C 0.31045 0.66008 0.59568 0.0
C509 C 0.29761 0.62718 0.58629 0.0
C510 C 0.37617 0.61269 0.70494 0.0
C511 C 0.33708 0.63819 0.65305 0.0
C512 C 0.40371 0.61611 0.73316 0.0
C513 C 0.41734 0.64848 0.74335 0.0
C514 C 0.36248 0.6418 0.68619 0.0
C515 C 0.40147 0.67719 0.72536 0.0
C516 C 0.33009 0.66571 0.62905 0.0
C517 C 0.3032 0.60086 0.61203 0.0
N518 N 0.37524 0.67316 0.6972 0.0
N519 N 0.32286 0.60686 0.64398 0.0
H520 H 0.79553 0.92096 0.09503 0.0
H521 H 0.92757 0.79898 0.22131 0.0
H522 H 0.81594 0.81444 0.07084 0.0
H523 H 0.89712 0.903 0.25 0.0
H524 H 0.88187 0.80231 0.16924 0.0
H525 H 0.82693 0.91309 0.15514 0.0
C526 C 0.80619 0.89579 0.10269 0.0
C527 C 0.80353 0.86837 0.07791 0.0
C528 C 0.88492 0.8243 0.18713 0.0
C529 C 0.83995 0.85919 0.1464 0.0
C530 C 0.91111 0.82245 0.21684 0.0
C531 C 0.91667 0.85092 0.23981 0.0
C532 C 0.86428 0.85488 0.18016 0.0
C533 C 0.89416 0.88052 0.23285 0.0
C534 C 0.82411 0.89128 0.13697 0.0
C535 C 0.81739 0.83621 0.08923 0.0
N536 N 0.86929 0.88182 0.20346 0.0
N537 N 0.83556 0.83259 0.12248 0.0
H538 H 0.211 0.07693 0.60004 0.0
H539 H 0.07452 0.19988 0.72153 0.0
H540 H 0.1881 0.18226 0.57232 0.0
H541 H 0.10885 0.09786 0.75424 0.0
H542 H 0.12126 0.19621 0.67009 0.0
H543 H 0.17973 0.0863 0.66007 0.0
C544 C 0.19988 0.10218 0.60691 0.0
C545 C 0.20177 0.12879 0.58116 0.0
C546 C 0.11885 0.17478 0.68877 0.0
C547 C 0.1654 0.13966 0.64952 0.0
C548 C 0.0921 0.17683 0.71813 0.0
C549 C 0.08724 0.14894 0.74196 0.0
C550 C 0.14075 0.14457 0.68306 0.0
C551 C 0.11115 0.11986 0.73635 0.0
C552 C 0.18201 0.10755 0.64115 0.0
C553 C 0.18727 0.1611 0.59148 0.0
N554 N 0.1365 0.11832 0.70729 0.0
N555 N 0.16912 0.16552 0.62467 0.0
H556 H 0.20748 0.9232 0.10613 0.0
H557 H 0.08796 0.79375 0.23489 0.0
H558 H 0.18895 0.81774 0.07688 0.0
H559 H 0.08716 0.90334 0.24716 0.0
H560 H 0.13552 0.79931 0.18382 0.0
H561 H 0.17442 0.91334 0.16495 0.0
C562 C 0.19663 0.89788 0.11222 0.0
C563 C 0.20039 0.87141 0.08631 0.0
C564 C 0.12517 0.82204 0.19802 0.0
C565 C 0.16245 0.85986 0.15376 0.0
C566 C 0.09823 0.81887 0.22722 0.0
C567 C 0.08325 0.84817 0.24492 0.0
C568 C 0.13746 0.85467 0.18695 0.0
C569 C 0.09748 0.88011 0.2339 0.0
C570 C 0.17782 0.89223 0.14585 0.0
C571 C 0.18662 0.83889 0.09605 0.0
N572 N 0.12357 0.8825 0.20559 0.0
N573 N 0.16781 0.83409 0.12887 0.0
H574 H 0.81707 0.18426 0.57099 0.0
H575 H 0.91773 0.09346 0.74353 0.0
H576 H 0.79943 0.07867 0.59999 0.0
H577 H 0.91615 0.20297 0.731 0.0
H578 H 0.8722 0.08858 0.69188 0.0
H579 H 0.85069 0.19304 0.63017 0.0
C580 C 0.81973 0.16306 0.58999 0.0
C581 C 0.80587 0.13054 0.58029 0.0
C582 C 0.88142 0.11377 0.7005 0.0
C583 C 0.84467 0.14032 0.64771 0.0
C584 C 0.90755 0.11656 0.72998 0.0
C585 C 0.92102 0.14865 0.74133 0.0
C586 C 0.86898 0.14326 0.68167 0.0
C587 C 0.90648 0.17774 0.72305 0.0
C588 C 0.83906 0.16806 0.62369 0.0
C589 C 0.81041 0.10397 0.60591 0.0
N590 N 0.88161 0.17433 0.69371 0.0
N591 N 0.8297 0.10938 0.63818 0.0
loop_
_geom_bond_atom_site_label_1
_geom_bond_atom_site_label_2
_geom_bond_distance
_geom_bond_site_symmetry_2
_ccdc_geom_bond_type
H0 C3 0.931 . S
H1 C6 0.928 . S
H2 C8 0.930 . S
C3 H0 0.931 . S
C3 C4 1.413 . S
C3 C5 1.360 1_554 S
C4 C3 1.413 . S
C4 C8 1.429 . S
C5 C3 1.360 1_556 S
C5 C6 1.372 . S
C6 H1 0.928 . S
C6 C5 1.372 . S
C6 C7 1.404 . S
C7 C6 1.404 . S
C7 C8 1.391 1_556 S
C8 H2 0.930 . S
C8 C4 1.429 . S
C8 C7 1.391 1_554 S
H9 C12 0.931 . S
H10 C15 0.928 . S
H11 C17 0.930 . S
C12 H9 0.931 . S
C12 C13 1.413 . S
C12 C14 1.360 . S
C13 C12 1.413 . S
C13 C17 1.429 . S
C14 C12 1.360 . S
C14 C15 1.372 . S
C15 H10 0.928 . S
C15 C14 1.372 . S
C15 C16 1.404 . S
C16 C15 1.404 . S
C16 C17 1.391 . S
C17 H11 0.930 . S
C17 C13 1.429 . S
C17 C16 1.391 . S
H18 C21 0.931 . S
H19 C24 0.928 . S
H20 C26 0.930 . S
C21 H18 0.931 . S
C21 C22 1.413 1_554 S
C21 C23 1.360 . S
C22 C21 1.413 1_556 S
C22 C26 1.429 . S
C23 C21 1.360 . S
C23 C24 1.372 . S
C24 H19 0.928 . S
C24 C23 1.372 . S
C24 C25 1.404 1_554 S
C25 C24 1.404 1_556 S
C25 C26 1.391 . S
C26 H20 0.930 . S
C26 C22 1.429 . S
C26 C25 1.391 . S
H27 C30 0.931 . S
H28 C33 0.928 . S
H29 C35 0.930 . S
C30 H27 0.931 . S
C30 C31 1.413 . S
C30 C32 1.360 . S
C31 C30 1.413 . S
C31 C35 1.429 . S
C32 C30 1.360 . S
C32 C33 1.372 . S
C33 H28 0.928 . S
C33 C32 1.372 . S
C33 C34 1.404 . S
C34 C33 1.404 . S
C34 C35 1.391 . S
C35 H29 0.930 . S
C35 C31 1.429 . S
C35 C34 1.391 . S
H36 C39 0.931 . S
H37 C42 0.928 . S
H38 C44 0.930 . S
C39 H36 0.931 . S
C39 C40 1.413 . S
C39 C41 1.360 1_554 S
C40 C39 1.413 . S
C40 C44 1.429 . S
C41 C39 1.360 1_556 S
C41 C42 1.372 . S
C42 H37 0.928 . S
C42 C41 1.372 . S
C42 C43 1.404 . S
C43 C42 1.404 . S
C43 C44 1.391 1_556 S
C44 H38 0.930 . S
C44 C40 1.429 . S
C44 C43 1.391 1_554 S
H45 C48 0.931 . S
H46 C51 0.928 . S
H47 C53 0.930 . S
C48 H45 0.931 . S
C48 C49 1.413 . S
C48 C50 1.360 . S
C49 C48 1.413 . S
C49 C53 1.429 . S
C50 C48 1.360 . S
C50 C51 1.372 . S
C51 H46 0.928 . S
C51 C50 1.372 . S
C51 C52 1.404 . S
C52 C51 1.404 . S
C52 C53 1.391 . S
C53 H47 0.930 . S
C53 C49 1.429 . S
C53 C52 1.391 . S
H54 C57 0.931 . S
H55 C60 0.928 . S
H56 C62 0.930 . S
C57 H54 0.931 . S
C57 C58 1.413 1_554 S
C57 C59 1.360 . S
C58 C57 1.413 1_556 S
C58 C62 1.429 . S
C59 C57 1.360 . S
C59 C60 1.372 . S
C60 H55 0.928 . S
C60 C59 1.372 . S
C60 C61 1.404 1_554 S
C61 C60 1.404 1_556 S
C61 C62 1.391 . S
C62 H56 0.930 . S
C62 C58 1.429 . S
C62 C61 1.391 . S
H63 C66 0.931 . S
H64 C69 0.928 . S
H65 C71 0.930 . S
C66 H63 0.931 . S
C66 C67 1.413 . S
C66 C68 1.360 . S
C67 C66 1.413 . S
C67 C71 1.429 . S
C68 C66 1.360 . S
C68 C69 1.372 . S
C69 H64 0.928 . S
C69 C68 1.372 . S
C69 C70 1.404 . S
C70 C69 1.404 . S
C70 C71 1.391 . S
C71 H65 0.930 . S
C71 C67 1.429 . S
C71 C70 1.391 . S
Fe72 O74 1.918 . S
Fe72 O77 1.997 1_455 S
Fe72 O78 2.002 1_455 S
Fe72 O83 1.976 . S
Fe72 O86 1.996 . S
Fe73 O74 1.918 . S
Fe73 O81 1.997 1_455 S
Fe73 O84 1.996 . S
Fe73 O88 1.976 . S
Fe73 O91 2.002 1_455 S
O74 Fe72 1.918 . S
O74 Fe73 1.918 . S
O74 Fe75 1.918 . S
Fe75 O74 1.918 . S
Fe75 O76 2.002 1_455 S
Fe75 O85 1.976 . S
Fe75 O89 1.996 . S
Fe75 O92 1.997 1_455 S
O76 Fe75 2.002 1_655 S
O76 C93 1.295 . S
O77 Fe72 1.997 1_655 S
O77 C93 1.235 . S
O78 Fe72 2.002 1_655 S
O78 C79 1.295 . S
C79 O78 1.295 . S
C79 O81 1.235 . S
C80 O85 1.287 . S
C80 O86 1.255 . S
O81 Fe73 1.997 1_655 S
O81 C79 1.235 . S
C82 O88 1.287 . S
C82 O89 1.255 . S
O83 Fe72 1.976 . S
O83 C90 1.287 . S
O84 Fe73 1.996 . S
O84 C90 1.255 . S
O85 Fe75 1.976 . S
O85 C80 1.287 . S
O86 Fe72 1.996 . S
O86 C80 1.255 . S
C87 O91 1.295 . S
C87 O92 1.235 . S
O88 Fe73 1.976 . S
O88 C82 1.287 . S
O89 Fe75 1.996 . S
O89 C82 1.255 . S
C90 O83 1.287 . S
C90 O84 1.255 . S
O91 Fe73 2.002 1_655 S
O91 C87 1.295 . S
O92 Fe75 1.997 1_655 S
O92 C87 1.235 . S
C93 O76 1.295 . S
C93 O77 1.235 . S
Fe94 O96 1.918 . S
Fe94 O99 1.997 1_655 S
Fe94 O100 2.002 1_655 S
Fe94 O105 1.976 . S
Fe94 O108 1.996 . S
Fe95 O96 1.918 . S
Fe95 O103 1.997 1_655 S
Fe95 O106 1.996 . S
Fe95 O110 1.976 . S
Fe95 O113 2.002 1_655 S
O96 Fe94 1.918 . S
O96 Fe95 1.918 . S
O96 Fe97 1.918 . S
Fe97 O96 1.918 . S
Fe97 O98 2.002 1_655 S
Fe97 O107 1.976 . S
Fe97 O111 1.996 . S
Fe97 O114 1.997 1_655 S
O98 Fe97 2.002 1_455 S
O98 C115 1.295 . S
O99 Fe94 1.997 1_455 S
O99 C115 1.235 . S
O100 Fe94 2.002 1_455 S
O100 C101 1.295 . S
C101 O100 1.295 . S
C101 O103 1.235 . S
C102 O107 1.287 . S
C102 O108 1.255 . S
O103 Fe95 1.997 1_455 S
O103 C101 1.235 . S
C104 O110 1.287 . S
C104 O111 1.255 . S
O105 Fe94 1.976 . S
O105 C112 1.287 . S
O106 Fe95 1.996 . S
O106 C112 1.255 . S
O107 Fe97 1.976 . S
O107 C102 1.287 . S
O108 Fe94 1.996 . S
O108 C102 1.255 . S
C109 O113 1.295 . S
C109 O114 1.235 . S
O110 Fe95 1.976 . S
O110 C104 1.287 . S
O111 Fe97 1.996 . S
O111 C104 1.255 . S
C112 O105 1.287 . S
C112 O106 1.255 . S
O113 Fe95 2.002 1_455 S
O113 C109 1.295 . S
O114 Fe97 1.997 1_455 S
O114 C109 1.235 . S
C115 O98 1.295 . S
C115 O99 1.235 . S
Fe116 O118 1.918 . S
Fe116 O121 1.997 . S
Fe116 O122 2.002 . S
Fe116 O127 1.976 . S
Fe116 O130 1.996 . S
Fe117 O118 1.918 . S
Fe117 O125 1.997 . S
Fe117 O128 1.996 . S
Fe117 O132 1.976 . S
Fe117 O135 2.002 . S
O118 Fe116 1.918 . S
O118 Fe117 1.918 . S
O118 Fe119 1.918 . S
Fe119 O118 1.918 . S
Fe119 O120 2.002 . S
Fe119 O129 1.976 . S
Fe119 O133 1.996 . S
Fe119 O136 1.997 . S
O120 Fe119 2.002 . S
O120 C137 1.295 . S
O121 Fe116 1.997 . S
O121 C137 1.235 . S
O122 Fe116 2.002 . S
O122 C123 1.295 . S
C123 O122 1.295 . S
C123 O125 1.235 . S
C124 O129 1.287 . S
C124 O130 1.255 . S
O125 Fe117 1.997 . S
O125 C123 1.235 . S
C126 O132 1.287 . S
C126 O133 1.255 . S
O127 Fe116 1.976 . S
O127 C134 1.287 . S
O128 Fe117 1.996 . S
O128 C134 1.255 . S
O129 Fe119 1.976 . S
O129 C124 1.287 . S
O130 Fe116 1.996 . S
O130 C124 1.255 . S
C131 O135 1.295 . S
C131 O136 1.235 . S
O132 Fe117 1.976 . S
O132 C126 1.287 . S
O133 Fe119 1.996 . S
O133 C126 1.255 . S
C134 O127 1.287 . S
C134 O128 1.255 . S
O135 Fe117 2.002 . S
O135 C131 1.295 . S
O136 Fe119 1.997 . S
O136 C131 1.235 . S
C137 O120 1.295 . S
C137 O121 1.235 . S
Fe138 O140 1.918 . S
Fe138 O143 1.997 . S
Fe138 O144 2.002 . S
Fe138 O149 1.976 . S
Fe138 O152 1.996 . S
Fe139 O140 1.918 . S
Fe139 O147 1.997 . S
Fe139 O150 1.996 . S
Fe139 O154 1.976 . S
Fe139 O157 2.002 . S
O140 Fe138 1.918 . S
O140 Fe139 1.918 . S
O140 Fe141 1.918 . S
Fe141 O140 1.918 . S
Fe141 O142 2.002 . S
Fe141 O151 1.976 . S
Fe141 O155 1.996 . S
Fe141 O158 1.997 . S
O142 Fe141 2.002 . S
O142 C159 1.295 . S
O143 Fe138 1.997 . S
O143 C159 1.235 . S
O144 Fe138 2.002 . S
O144 C145 1.295 . S
C145 O144 1.295 . S
C145 O147 1.235 . S
C146 O151 1.287 . S
C146 O152 1.255 . S
O147 Fe139 1.997 . S
O147 C145 1.235 . S
C148 O154 1.287 . S
C148 O155 1.255 . S
O149 Fe138 1.976 . S
O149 C156 1.287 . S
O150 Fe139 1.996 . S
O150 C156 1.255 . S
O151 Fe141 1.976 . S
O151 C146 1.287 . S
O152 Fe138 1.996 . S
O152 C146 1.255 . S
C153 O157 1.295 . S
C153 O158 1.235 . S
O154 Fe139 1.976 . S
O154 C148 1.287 . S
O155 Fe141 1.996 . S
O155 C148 1.255 . S
C156 O149 1.287 . S
C156 O150 1.255 . S
O157 Fe139 2.002 . S
O157 C153 1.295 . S
O158 Fe141 1.997 . S
O158 C153 1.235 . S
C159 O142 1.295 . S
C159 O143 1.235 . S
H160 C166 0.930 . S
H161 C170 0.930 . S
H162 C175 0.929 1_554 S
H163 C173 0.929 . S
H164 C168 0.929 . S
H165 C174 0.929 . S
C166 H160 0.930 . S
C166 C167 1.367 . S
C166 C174 1.378 . S
C167 C166 1.367 . S
C167 C175 1.433 . S
C168 H164 0.929 . S
C168 C170 1.378 . S
C168 C172 1.350 . S
C169 C172 1.463 . S
C169 C174 1.350 . S
C169 N177 1.427 . S
C170 H161 0.930 . S
C170 C168 1.378 . S
C170 C171 1.367 . S
C171 C170 1.367 . S
C171 C173 1.433 . S
C172 C168 1.350 . S
C172 C169 1.463 . S
C172 N176 1.427 . S
C173 H163 0.929 . S
C173 C171 1.433 . S
C173 N176 1.384 . S
C174 H165 0.929 . S
C174 C166 1.378 . S
C174 C169 1.350 . S
C175 H162 0.929 1_556 S
C175 C167 1.433 . S
C175 N177 1.384 . S
N176 C172 1.427 . S
N176 C173 1.384 . S
N177 C169 1.427 . S
N177 C175 1.384 . S
H178 C184 0.930 . S
H179 C188 0.930 . S
H180 C193 0.929 . S
H181 C191 0.929 . S
H182 C186 0.929 . S
H183 C192 0.929 . S
C184 H178 0.930 . S
C184 C185 1.367 . S
C184 C192 1.378 . S
C185 C184 1.367 . S
C185 C193 1.433 . S
C186 H182 0.929 . S
C186 C188 1.378 . S
C186 C190 1.350 . S
C187 C190 1.463 . S
C187 C192 1.350 . S
C187 N195 1.427 . S
C188 H179 0.930 . S
C188 C186 1.378 . S
C188 C189 1.367 . S
C189 C188 1.367 . S
C189 C191 1.433 . S
C190 C186 1.350 . S
C190 C187 1.463 . S
C190 N194 1.427 . S
C191 H181 0.929 . S
C191 C189 1.433 . S
C191 N194 1.384 . S
C192 H183 0.929 . S
C192 C184 1.378 . S
C192 C187 1.350 . S
C193 H180 0.929 . S
C193 C185 1.433 . S
C193 N195 1.384 . S
N194 C190 1.427 . S
N194 C191 1.384 . S
N195 C187 1.427 . S
N195 C193 1.384 . S
H196 C202 0.930 . S
H197 C206 0.930 . S
H198 C211 0.929 1_554 S
H199 C209 0.929 . S
H200 C204 0.929 . S
H201 C210 0.929 . S
C202 H196 0.930 . S
C202 C203 1.367 . S
C202 C210 1.378 . S
C203 C202 1.367 . S
C203 C211 1.433 . S
C204 H200 0.929 . S
C204 C206 1.378 . S
C204 C208 1.350 . S
C205 C208 1.463 . S
C205 C210 1.350 . S
C205 N213 1.427 . S
C206 H197 0.930 . S
C206 C204 1.378 . S
C206 C207 1.367 . S
C207 C206 1.367 . S
C207 C209 1.433 . S
C208 C204 1.350 . S
C208 C205 1.463 . S
C208 N212 1.427 . S
C209 H199 0.929 . S
C209 C207 1.433 . S
C209 N212 1.384 . S
C210 H201 0.929 . S
C210 C202 1.378 . S
C210 C205 1.350 . S
C211 H198 0.929 1_556 S
C211 C203 1.433 . S
C211 N213 1.384 . S
N212 C208 1.427 . S
N212 C209 1.384 . S
N213 C205 1.427 . S
N213 C211 1.384 . S
H214 C220 0.930 . S
H215 C224 0.930 . S
H216 C229 0.929 . S
H217 C227 0.929 . S
H218 C222 0.929 . S
H219 C228 0.929 . S
C220 H214 0.930 . S
C220 C221 1.367 . S
C220 C228 1.378 . S
C221 C220 1.367 . S
C221 C229 1.433 . S
C222 H218 0.929 . S
C222 C224 1.378 . S
C222 C226 1.350 . S
C223 C226 1.463 . S
C223 C228 1.350 . S
C223 N231 1.427 . S
C224 H215 0.930 . S
C224 C222 1.378 . S
C224 C225 1.367 . S
C225 C224 1.367 . S
C225 C227 1.433 . S
C226 C222 1.350 . S
C226 C223 1.463 . S
C226 N230 1.427 . S
C227 H217 0.929 . S
C227 C225 1.433 . S
C227 N230 1.384 . S
C228 H219 0.929 . S
C228 C220 1.378 . S
C228 C223 1.350 . S
C229 H216 0.929 . S
C229 C221 1.433 . S
C229 N231 1.384 . S
N230 C226 1.427 . S
N230 C227 1.384 . S
N231 C223 1.427 . S
N231 C229 1.384 . S
H232 C238 0.930 1_554 S
H233 C242 0.930 . S
H234 C247 0.929 . S
H235 C245 0.929 . S
H236 C240 0.929 . S
H237 C246 0.929 . S
C238 H232 0.930 1_556 S
C238 C239 1.367 . S
C238 C246 1.378 . S
C239 C238 1.367 . S
C239 C247 1.433 . S
C240 H236 0.929 . S
C240 C242 1.378 . S
C240 C244 1.350 . S
C241 C244 1.463 . S
C241 C246 1.350 . S
C241 N249 1.427 . S
C242 H233 0.930 . S
C242 C240 1.378 . S
C242 C243 1.367 . S
C243 C242 1.367 . S
C243 C245 1.433 . S
C244 C240 1.350 . S
C244 C241 1.463 . S
C244 N248 1.427 . S
C245 H235 0.929 . S
C245 C243 1.433 . S
C245 N248 1.384 . S
C246 H237 0.929 . S
C246 C238 1.378 . S
C246 C241 1.350 . S
C247 H234 0.929 . S
C247 C239 1.433 . S
C247 N249 1.384 . S
N248 C244 1.427 . S
N248 C245 1.384 . S
N249 C241 1.427 . S
N249 C247 1.384 . S
H250 C256 0.930 . S
H251 C260 0.930 . S
H252 C265 0.929 . S
H253 C263 0.929 . S
H254 C258 0.929 . S
H255 C264 0.929 . S
C256 H250 0.930 . S
C256 C257 1.367 . S
C256 C264 1.378 . S
C257 C256 1.367 . S
C257 C265 1.433 . S
C258 H254 0.929 . S
C258 C260 1.378 . S
C258 C262 1.350 . S
C259 C262 1.463 . S
C259 C264 1.350 . S
C259 N267 1.427 . S
C260 H251 0.930 . S
C260 C258 1.378 . S
C260 C261 1.367 . S
C261 C260 1.367 . S
C261 C263 1.433 . S
C262 C258 1.350 . S
C262 C259 1.463 . S
C262 N266 1.427 . S
C263 H253 0.929 . S
C263 C261 1.433 . S
C263 N266 1.384 . S
C264 H255 0.929 . S
C264 C256 1.378 . S
C264 C259 1.350 . S
C265 H252 0.929 . S
C265 C257 1.433 . S
C265 N267 1.384 . S
N266 C262 1.427 . S
N266 C263 1.384 . S
N267 C259 1.427 . S
N267 C265 1.384 . S
H268 C274 0.930 . S
H269 C278 0.930 . S
H270 C283 0.929 1_554 S
H271 C281 0.929 . S
H272 C276 0.929 . S
H273 C282 0.929 . S
C274 H268 0.930 . S
C274 C275 1.367 . S
C274 C282 1.378 . S
C275 C274 1.367 . S
C275 C283 1.433 . S
C276 H272 0.929 . S
C276 C278 1.378 . S
C276 C280 1.350 . S
C277 C280 1.463 . S
C277 C282 1.350 . S
C277 N285 1.427 . S
C278 H269 0.930 . S
C278 C276 1.378 . S
C278 C279 1.367 . S
C279 C278 1.367 . S
C279 C281 1.433 . S
C280 C276 1.350 . S
C280 C277 1.463 . S
C280 N284 1.427 . S
C281 H271 0.929 . S
C281 C279 1.433 . S
C281 N284 1.384 . S
C282 H273 0.929 . S
C282 C274 1.378 . S
C282 C277 1.350 . S
C283 H270 0.929 1_556 S
C283 C275 1.433 . S
C283 N285 1.384 . S
N284 C280 1.427 . S
N284 C281 1.384 . S
N285 C277 1.427 . S
N285 C283 1.384 . S
H286 C292 0.930 . S
H287 C296 0.930 . S
H288 C301 0.929 . S
H289 C299 0.929 . S
H290 C294 0.929 . S
H291 C300 0.929 . S
C292 H286 0.930 . S
C292 C293 1.367 . S
C292 C300 1.378 . S
C293 C292 1.367 . S
C293 C301 1.433 . S
C294 H290 0.929 . S
C294 C296 1.378 . S
C294 C298 1.350 . S
C295 C298 1.463 . S
C295 C300 1.350 . S
C295 N303 1.427 . S
C296 H287 0.930 . S
C296 C294 1.378 . S
C296 C297 1.367 . S
C297 C296 1.367 . S
C297 C299 1.433 . S
C298 C294 1.350 . S
C298 C295 1.463 . S
C298 N302 1.427 . S
C299 H289 0.929 . S
C299 C297 1.433 . S
C299 N302 1.384 . S
C300 H291 0.929 . S
C300 C292 1.378 . S
C300 C295 1.350 . S
C301 H288 0.929 . S
C301 C293 1.433 . S
C301 N303 1.384 . S
N302 C298 1.427 . S
N302 C299 1.384 . S
N303 C295 1.427 . S
N303 C301 1.384 . S
H304 C310 0.930 1_554 S
H305 C314 0.930 . S
H306 C319 0.929 . S
H307 C317 0.929 . S
H308 C312 0.929 . S
H309 C318 0.929 . S
C310 H304 0.930 1_556 S
C310 C311 1.367 . S
C310 C318 1.378 . S
C311 C310 1.367 . S
C311 C319 1.433 . S
C312 H308 0.929 . S
C312 C314 1.378 . S
C312 C316 1.350 . S
C313 C316 1.463 . S
C313 C318 1.350 . S
C313 N321 1.427 . S
C314 H305 0.930 . S
C314 C312 1.378 . S
C314 C315 1.367 . S
C315 C314 1.367 . S
C315 C317 1.433 . S
C316 C312 1.350 . S
C316 C313 1.463 . S
C316 N320 1.427 . S
C317 H307 0.929 . S
C317 C315 1.433 . S
C317 N320 1.384 . S
C318 H309 0.929 . S
C318 C310 1.378 . S
C318 C313 1.350 . S
C319 H306 0.929 . S
C319 C311 1.433 . S
C319 N321 1.384 . S
N320 C316 1.427 . S
N320 C317 1.384 . S
N321 C313 1.427 . S
N321 C319 1.384 . S
H322 C328 0.930 . S
H323 C332 0.930 . S
H324 C337 0.929 . S
H325 C335 0.929 . S
H326 C330 0.929 . S
H327 C336 0.929 . S
C328 H322 0.930 . S
C328 C329 1.367 . S
C328 C336 1.378 . S
C329 C328 1.367 . S
C329 C337 1.433 . S
C330 H326 0.929 . S
C330 C332 1.378 . S
C330 C334 1.350 . S
C331 C334 1.463 . S
C331 C336 1.350 . S
C331 N339 1.427 . S
C332 H323 0.930 . S
C332 C330 1.378 . S
C332 C333 1.367 . S
C333 C332 1.367 . S
C333 C335 1.433 . S
C334 C330 1.350 . S
C334 C331 1.463 . S
C334 N338 1.427 . S
C335 H325 0.929 . S
C335 C333 1.433 . S
C335 N338 1.384 . S
C336 H327 0.929 . S
C336 C328 1.378 . S
C336 C331 1.350 . S
C337 H324 0.929 . S
C337 C329 1.433 . S
C337 N339 1.384 . S
N338 C334 1.427 . S
N338 C335 1.384 . S
N339 C331 1.427 . S
N339 C337 1.384 . S
H340 C346 0.930 . S
H341 C350 0.930 . S
H342 C355 0.929 1_554 S
H343 C353 0.929 . S
H344 C348 0.929 . S
H345 C354 0.929 . S
C346 H340 0.930 . S
C346 C347 1.367 . S
C346 C354 1.378 . S
C347 C346 1.367 . S
C347 C355 1.433 . S
C348 H344 0.929 . S
C348 C350 1.378 . S
C348 C352 1.350 . S
C349 C352 1.463 . S
C349 C354 1.350 . S
C349 N357 1.427 . S
C350 H341 0.930 . S
C350 C348 1.378 . S
C350 C351 1.367 . S
C351 C350 1.367 . S
C351 C353 1.433 . S
C352 C348 1.350 . S
C352 C349 1.463 . S
C352 N356 1.427 . S
C353 H343 0.929 . S
C353 C351 1.433 . S
C353 N356 1.384 . S
C354 H345 0.929 . S
C354 C346 1.378 . S
C354 C349 1.350 . S
C355 H342 0.929 1_556 S
C355 C347 1.433 . S
C355 N357 1.384 . S
N356 C352 1.427 . S
N356 C353 1.384 . S
N357 C349 1.427 . S
N357 C355 1.384 . S
H358 C364 0.930 . S
H359 C368 0.930 . S
H360 C373 0.929 . S
H361 C371 0.929 . S
H362 C366 0.929 . S
H363 C372 0.929 . S
C364 H358 0.930 . S
C364 C365 1.367 . S
C364 C372 1.378 . S
C365 C364 1.367 . S
C365 C373 1.433 . S
C366 H362 0.929 . S
C366 C368 1.378 . S
C366 C370 1.350 . S
C367 C370 1.463 . S
C367 C372 1.350 . S
C367 N375 1.427 . S
C368 H359 0.930 . S
C368 C366 1.378 . S
C368 C369 1.367 . S
C369 C368 1.367 . S
C369 C371 1.433 . S
C370 C366 1.350 . S
C370 C367 1.463 . S
C370 N374 1.427 . S
C371 H361 0.929 . S
C371 C369 1.433 . S
C371 N374 1.384 . S
C372 H363 0.929 . S
C372 C364 1.378 . S
C372 C367 1.350 . S
C373 H360 0.929 . S
C373 C365 1.433 . S
C373 N375 1.384 . S
N374 C370 1.427 . S
N374 C371 1.384 . S
N375 C367 1.427 . S
N375 C373 1.384 . S
H376 C382 0.930 . S
H377 C386 0.930 . S
H378 C391 0.929 1_554 S
H379 C389 0.929 . S
H380 C384 0.929 . S
H381 C390 0.929 1_545 S
C382 H376 0.930 . S
C382 C383 1.367 . S
C382 C390 1.378 . S
C383 C382 1.367 . S
C383 C391 1.433 . S
C384 H380 0.929 . S
C384 C386 1.378 . S
C384 C388 1.350 . S
C385 C388 1.484 . S
C385 C390 1.345 1_545 S
C385 N393 1.412 1_545 S
C386 H377 0.930 . S
C386 C384 1.378 . S
C386 C387 1.367 . S
C387 C386 1.367 . S
C387 C389 1.433 . S
C388 C384 1.350 . S
C388 C385 1.484 . S
C388 N392 1.427 . S
C389 H379 0.929 . S
C389 C387 1.433 . S
C389 N392 1.384 . S
C390 H381 0.929 1_565 S
C390 C382 1.378 . S
C390 C385 1.345 1_565 S
C391 H378 0.929 1_556 S
C391 C383 1.433 . S
C391 N393 1.384 . S
N392 C388 1.427 . S
N392 C389 1.384 . S
N393 C385 1.412 1_565 S
N393 C391 1.384 . S
H394 C400 0.930 . S
H395 C404 0.930 . S
H396 C409 0.929 . S
H397 C407 0.929 . S
H398 C402 0.929 . S
H399 C408 0.929 . S
C400 H394 0.930 . S
C400 C401 1.367 . S
C400 C408 1.378 1_545 S
C401 C400 1.367 . S
C401 C409 1.433 . S
C402 H398 0.929 . S
C402 C404 1.378 . S
C402 C406 1.350 . S
C403 C406 1.463 . S
C403 C408 1.350 . S
C403 N411 1.427 1_565 S
C404 H395 0.930 . S
C404 C402 1.378 . S
C404 C405 1.367 . S
C405 C404 1.367 . S
C405 C407 1.433 . S
C406 C402 1.350 . S
C406 C403 1.463 . S
C406 N410 1.427 . S
C407 H397 0.929 . S
C407 C405 1.433 . S
C407 N410 1.384 . S
C408 H399 0.929 . S
C408 C400 1.378 1_565 S
C408 C403 1.350 . S
C409 H396 0.929 . S
C409 C401 1.433 . S
C409 N411 1.384 . S
N410 C406 1.427 . S
N410 C407 1.384 . S
N411 C403 1.427 1_545 S
N411 C409 1.384 . S
H412 C418 0.930 1_554 S
H413 C422 0.930 . S
H414 C427 0.929 . S
H415 C425 0.929 . S
H416 C420 0.929 . S
H417 C426 0.929 . S
C418 H412 0.930 1_556 S
C418 C419 1.367 . S
C418 C426 1.378 1_565 S
C419 C418 1.367 . S
C419 C427 1.433 . S
C420 H416 0.929 . S
C420 C422 1.378 . S
C420 C424 1.350 . S
C421 C424 1.463 . S
C421 C426 1.350 . S
C421 N429 1.427 1_545 S
C422 H413 0.930 . S
C422 C420 1.378 . S
C422 C423 1.367 . S
C423 C422 1.367 . S
C423 C425 1.433 . S
C424 C420 1.350 . S
C424 C421 1.463 . S
C424 N428 1.427 . S
C425 H415 0.929 . S
C425 C423 1.433 . S
C425 N428 1.384 . S
C426 H417 0.929 . S
C426 C418 1.378 1_545 S
C426 C421 1.350 . S
C427 H414 0.929 . S
C427 C419 1.433 . S
C427 N429 1.384 . S
N428 C424 1.427 . S
N428 C425 1.384 . S
N429 C421 1.427 1_565 S
N429 C427 1.384 . S
H430 C436 0.930 . S
H431 C440 0.930 . S
H432 C445 0.929 . S
H433 C443 0.929 . S
H434 C438 0.929 . S
H435 C444 0.929 . S
C436 H430 0.930 . S
C436 C437 1.367 . S
C436 C444 1.378 . S
C437 C436 1.367 . S
C437 C445 1.433 . S
C438 H434 0.929 . S
C438 C440 1.378 . S
C438 C442 1.350 . S
C439 C442 1.463 . S
C439 C444 1.350 1_565 S
C439 N447 1.427 . S
C440 H431 0.930 . S
C440 C438 1.378 . S
C440 C441 1.367 . S
C441 C440 1.367 . S
C441 C443 1.433 . S
C442 C438 1.350 . S
C442 C439 1.463 . S
C442 N446 1.427 . S
C443 H433 0.929 . S
C443 C441 1.433 . S
C443 N446 1.384 . S
C444 H435 0.929 . S
C444 C436 1.378 . S
C444 C439 1.350 1_545 S
C445 H432 0.929 . S
C445 C437 1.433 . S
C445 N447 1.384 1_545 S
N446 C442 1.427 . S
N446 C443 1.384 . S
N447 C439 1.427 . S
N447 C445 1.384 1_565 S
H448 C454 0.930 . S
H449 C458 0.930 . S
H450 C463 0.929 . S
H451 C461 0.929 . S
H452 C456 0.929 . S
H453 C462 0.929 . S
C454 H448 0.930 . S
C454 C455 1.367 . S
C454 C462 1.378 . S
C455 C454 1.367 . S
C455 C463 1.433 . S
C456 H452 0.929 . S
C456 C458 1.378 . S
C456 C460 1.350 . S
C457 C460 1.463 . S
C457 C462 1.350 . S
C457 N465 1.427 . S
C458 H449 0.930 . S
C458 C456 1.378 . S
C458 C459 1.367 . S
C459 C458 1.367 . S
C459 C461 1.433 . S
C460 C456 1.350 . S
C460 C457 1.463 . S
C460 N464 1.427 . S
C461 H451 0.929 . S
C461 C459 1.433 . S
C461 N464 1.384 . S
C462 H453 0.929 . S
C462 C454 1.378 . S
C462 C457 1.350 . S
C463 H450 0.929 . S
C463 C455 1.433 . S
C463 N465 1.384 . S
N464 C460 1.427 . S
N464 C461 1.384 . S
N465 C457 1.427 . S
N465 C463 1.384 . S
H466 C472 0.930 . S
H467 C476 0.930 . S
H468 C481 0.929 . S
H469 C479 0.929 . S
H470 C474 0.929 . S
H471 C480 0.929 . S
C472 H466 0.930 . S
C472 C473 1.367 . S
C472 C480 1.378 . S
C473 C472 1.367 . S
C473 C481 1.433 . S
C474 H470 0.929 . S
C474 C476 1.378 . S
C474 C478 1.350 . S
C475 C478 1.463 . S
C475 C480 1.350 . S
C475 N483 1.427 . S
C476 H467 0.930 . S
C476 C474 1.378 . S
C476 C477 1.367 . S
C477 C476 1.367 . S
C477 C479 1.433 . S
C478 C474 1.350 . S
C478 C475 1.463 . S
C478 N482 1.427 . S
C479 H469 0.929 . S
C479 C477 1.433 . S
C479 N482 1.384 . S
C480 H471 0.929 . S
C480 C472 1.378 . S
C480 C475 1.350 . S
C481 H468 0.929 . S
C481 C473 1.433 . S
C481 N483 1.384 . S
N482 C478 1.427 . S
N482 C479 1.384 . S
N483 C475 1.427 . S
N483 C481 1.384 . S
H484 C490 0.930 . S
H485 C494 0.930 . S
H486 C499 0.929 . S
H487 C497 0.929 . S
H488 C492 0.929 . S
H489 C498 0.929 . S
C490 H484 0.930 . S
C490 C491 1.367 . S
C490 C498 1.378 . S
C491 C490 1.367 . S
C491 C499 1.433 . S
C492 H488 0.929 . S
C492 C494 1.378 . S
C492 C496 1.350 . S
C493 C496 1.463 . S
C493 C498 1.350 . S
C493 N501 1.427 . S
C494 H485 0.930 . S
C494 C492 1.378 . S
C494 C495 1.367 . S
C495 C494 1.367 . S
C495 C497 1.433 . S
C496 C492 1.350 . S
C496 C493 1.463 . S
C496 N500 1.427 . S
C497 H487 0.929 . S
C497 C495 1.433 . S
C497 N500 1.384 . S
C498 H489 0.929 . S
C498 C490 1.378 . S
C498 C493 1.350 . S
C499 H486 0.929 . S
C499 C491 1.433 . S
C499 N501 1.384 . S
N500 C496 1.427 . S
N500 C497 1.384 . S
N501 C493 1.427 . S
N501 C499 1.384 . S
H502 C508 0.930 . S
H503 C512 0.930 . S
H504 C517 0.929 . S
H505 C515 0.929 . S
H506 C510 0.929 . S
H507 C516 0.929 . S
C508 H502 0.930 . S
C508 C509 1.367 . S
C508 C516 1.378 . S
C509 C508 1.367 . S
C509 C517 1.433 . S
C510 H506 0.929 . S
C510 C512 1.378 . S
C510 C514 1.350 . S
C511 C514 1.463 . S
C511 C516 1.350 . S
C511 N519 1.427 . S
C512 H503 0.930 . S
C512 C510 1.378 . S
C512 C513 1.367 . S
C513 C512 1.367 . S
C513 C515 1.433 . S
C514 C510 1.350 . S
C514 C511 1.463 . S
C514 N518 1.427 . S
C515 H505 0.929 . S
C515 C513 1.433 . S
C515 N518 1.384 . S
C516 H507 0.929 . S
C516 C508 1.378 . S
C516 C511 1.350 . S
C517 H504 0.929 . S
C517 C509 1.433 . S
C517 N519 1.384 . S
N518 C514 1.427 . S
N518 C515 1.384 . S
N519 C511 1.427 . S
N519 C517 1.384 . S
H520 C526 0.930 . S
H521 C530 0.930 . S
H522 C535 0.929 . S
H523 C533 0.929 . S
H524 C528 0.929 . S
H525 C534 0.929 . S
C526 H520 0.930 . S
C526 C527 1.367 . S
C526 C534 1.378 . S
C527 C526 1.367 . S
C527 C535 1.433 . S
C528 H524 0.929 . S
C528 C530 1.378 . S
C528 C532 1.350 . S
C529 C532 1.463 . S
C529 C534 1.350 . S
C529 N537 1.427 . S
C530 H521 0.930 . S
C530 C528 1.378 . S
C530 C531 1.367 . S
C531 C530 1.367 . S
C531 C533 1.433 . S
C532 C528 1.350 . S
C532 C529 1.463 . S
C532 N536 1.427 . S
C533 H523 0.929 . S
C533 C531 1.433 . S
C533 N536 1.384 . S
C534 H525 0.929 . S
C534 C526 1.378 . S
C534 C529 1.350 . S
C535 H522 0.929 . S
C535 C527 1.433 . S
C535 N537 1.384 . S
N536 C532 1.427 . S
N536 C533 1.384 . S
N537 C529 1.427 . S
N537 C535 1.384 . S
H538 C544 0.930 . S
H539 C548 0.930 . S
H540 C553 0.929 . S
H541 C551 0.929 . S
H542 C546 0.929 . S
H543 C552 0.929 . S
C544 H538 0.930 . S
C544 C545 1.367 . S
C544 C552 1.378 . S
C545 C544 1.367 . S
C545 C553 1.433 . S
C546 H542 0.929 . S
C546 C548 1.378 . S
C546 C550 1.350 . S
C547 C550 1.463 . S
C547 C552 1.350 . S
C547 N555 1.427 . S
C548 H539 0.930 . S
C548 C546 1.378 . S
C548 C549 1.367 . S
C549 C548 1.367 . S
C549 C551 1.433 . S
C550 C546 1.350 . S
C550 C547 1.463 . S
C550 N554 1.427 . S
C551 H541 0.929 . S
C551 C549 1.433 . S
C551 N554 1.384 . S
C552 H543 0.929 . S
C552 C544 1.378 . S
C552 C547 1.350 . S
C553 H540 0.929 . S
C553 C545 1.433 . S
C553 N555 1.384 . S
N554 C550 1.427 . S
N554 C551 1.384 . S
N555 C547 1.427 . S
N555 C553 1.384 . S
H556 C562 0.930 . S
H557 C566 0.930 . S
H558 C571 0.929 . S
H559 C569 0.929 . S
H560 C564 0.929 . S
H561 C570 0.929 . S
C562 H556 0.930 . S
C562 C563 1.367 . S
C562 C570 1.378 . S
C563 C562 1.367 . S
C563 C571 1.433 . S
C564 H560 0.929 . S
C564 C566 1.378 . S
C564 C568 1.350 . S
C565 C568 1.463 . S
C565 C570 1.350 . S
C565 N573 1.427 . S
C566 H557 0.930 . S
C566 C564 1.378 . S
C566 C567 1.367 . S
C567 C566 1.367 . S
C567 C569 1.433 . S
C568 C564 1.350 . S
C568 C565 1.463 . S
C568 N572 1.427 . S
C569 H559 0.929 . S
C569 C567 1.433 . S
C569 N572 1.384 . S
C570 H561 0.929 . S
C570 C562 1.378 . S
C570 C565 1.350 . S
C571 H558 0.929 . S
C571 C563 1.433 . S
C571 N573 1.384 . S
N572 C568 1.427 . S
N572 C569 1.384 . S
N573 C565 1.427 . S
N573 C571 1.384 . S
H574 C580 0.930 . S
H575 C584 0.930 . S
H576 C589 0.929 . S
H577 C587 0.929 . S
H578 C582 0.929 . S
H579 C588 0.929 . S
C580 H574 0.930 . S
C580 C581 1.367 . S
C580 C588 1.378 . S
C581 C580 1.367 . S
C581 C589 1.433 . S
C582 H578 0.929 . S
C582 C584 1.378 . S
C582 C586 1.350 . S
C583 C586 1.463 . S
C583 C588 1.350 . S
C583 N591 1.427 . S
C584 H575 0.930 . S
C584 C582 1.378 . S
C584 C585 1.367 . S
C585 C584 1.367 . S
C585 C587 1.433 . S
C586 C582 1.350 . S
C586 C583 1.463 . S
C586 N590 1.427 . S
C587 H577 0.929 . S
C587 C585 1.433 . S
C587 N590 1.384 . S
C588 H579 0.929 . S
C588 C580 1.378 . S
C588 C583 1.350 . S
C589 H576 0.929 . S
C589 C581 1.433 . S
C589 N591 1.384 . S
N590 C586 1.427 . S
N590 C587 1.384 . S
N591 C583 1.427 . S
N591 C589 1.384 . S
C167 C7 1.515 . S
C171 C115 1.502 . S
C189 C79 1.504 . S
C185 C16 1.517 . S
C207 C102 1.491 . S
C203 C25 1.497 . S
C225 C90 1.495 . S
C221 C34 1.495 . S
C243 C159 1.510 . S
C239 C43 1.520 . S
C261 C123 1.509 . S
C257 C52 1.520 . S
C275 C61 1.498 . S
C279 C146 1.493 . S
C297 C134 1.500 . S
C293 C70 1.500 . S
C311 C5 1.458 . S
C315 C156 1.465 . S
C333 C126 1.464 . S
C329 C14 1.462 . S
C347 C22 1.482 . S
C351 C145 1.473 . S
C365 C32 1.485 . S
C369 C131 1.475 . S
C387 C112 1.462 . S
C383 C41 1.463 . S
C401 C50 1.464 . S
C405 C82 1.462 . S
C423 C101 1.475 . S
C419 C58 1.480 . S
C441 C87 1.481 . S
C437 C68 1.480 . S
C459 C137 1.461 . S
C455 C4 1.476 . S
C477 C153 1.464 . S
C473 C13 1.476 . S
C491 C23 1.443 . S
C495 C124 1.450 . S
C513 C148 1.445 . S
C509 C31 1.443 . S
C531 C93 1.463 . S
C527 C40 1.475 . S
C545 C49 1.478 . S
C549 C109 1.458 . S
C563 C59 1.445 . S
C567 C80 1.450 . S
C581 C67 1.442 . S
C585 C104 1.446 . S
