# Generated by pormake.
# Topology zzz, (3,6)-cn, num edge types: 1
# Building blocks:
#     Node 0, Type 0, BuildingBlock: QEWDON_clean_linker_0, # of connection points: 3
#     Node 1, Type 0, BuildingBlock: QEWDON_clean_linker_0, # of connection points: 3
#     Node 2, Type 0, BuildingBlock: QEWDON_clean_linker_0, # of connection points: 3
#     Node 3, Type 0, BuildingBlock: QEWDON_clean_linker_0, # of connection points: 3
#     Node 4, Type 0, BuildingBlock: QEWDON_clean_linker_0, # of connection points: 3
#     Node 5, Type 0, BuildingBlock: QEWDON_clean_linker_0, # of connection points: 3
#     Node 6, Type 0, BuildingBlock: QEWDON_clean_linker_0, # of connection points: 3
#     Node 7, Type 0, BuildingBlock: QEWDON_clean_linker_0, # of connection points: 3
#     Node 8, Type 1, BuildingBlock: PAMTOO_clean_sbu_0, # of connection points: 6
#     Node 9, Type 1, BuildingBlock: PAMTOO_clean_sbu_0, # of connection points: 6
#     Node 10, Type 1, BuildingBlock: PAMTOO_clean_sbu_0, # of connection points: 6
#     Node 11, Type 1, BuildingBlock: PAMTOO_clean_sbu_0, # of connection points: 6
#     Edge 12, Type (0, 1), BuildingBlock: XUDNAN_clean_linker_2, # of connection points: 2
#     Edge 13, Type (0, 1), BuildingBlock: XUDNAN_clean_linker_2, # of connection points: 2
#     Edge 14, Type (0, 1), BuildingBlock: XUDNAN_clean_linker_2, # of connection points: 2
#     Edge 15, Type (0, 1), BuildingBlock: XUDNAN_clean_linker_2, # of connection points: 2
#     Edge 16, Type (0, 1), BuildingBlock: XUDNAN_clean_linker_2, # of connection points: 2
#     Edge 17, Type (0, 1), BuildingBlock: XUDNAN_clean_linker_2, # of connection points: 2
#     Edge 18, Type (0, 1), BuildingBlock: XUDNAN_clean_linker_2, # of connection points: 2
#     Edge 19, Type (0, 1), BuildingBlock: XUDNAN_clean_linker_2, # of connection points: 2
#     Edge 20, Type (0, 1), BuildingBlock: XUDNAN_clean_linker_2, # of connection points: 2
#     Edge 21, Type (0, 1), BuildingBlock: XUDNAN_clean_linker_2, # of connection points: 2
#     Edge 22, Type (0, 1), BuildingBlock: XUDNAN_clean_linker_2, # of connection points: 2
#     Edge 23, Type (0, 1), BuildingBlock: XUDNAN_clean_linker_2, # of connection points: 2
#     Edge 24, Type (0, 1), BuildingBlock: XUDNAN_clean_linker_2, # of connection points: 2
#     Edge 25, Type (0, 1), BuildingBlock: XUDNAN_clean_linker_2, # of connection points: 2
#     Edge 26, Type (0, 1), BuildingBlock: XUDNAN_clean_linker_2, # of connection points: 2
#     Edge 27, Type (0, 1), BuildingBlock: XUDNAN_clean_linker_2, # of connection points: 2
#     Edge 28, Type (0, 1), BuildingBlock: XUDNAN_clean_linker_2, # of connection points: 2
#     Edge 29, Type (0, 1), BuildingBlock: XUDNAN_clean_linker_2, # of connection points: 2
#     Edge 30, Type (0, 1), BuildingBlock: XUDNAN_clean_linker_2, # of connection points: 2
#     Edge 31, Type (0, 1), BuildingBlock: XUDNAN_clean_linker_2, # of connection points: 2
#     Edge 32, Type (0, 1), BuildingBlock: XUDNAN_clean_linker_2, # of connection points: 2
#     Edge 33, Type (0, 1), BuildingBlock: XUDNAN_clean_linker_2, # of connection points: 2
#     Edge 34, Type (0, 1), BuildingBlock: XUDNAN_clean_linker_2, # of connection points: 2
#     Edge 35, Type (0, 1), BuildingBlock: XUDNAN_clean_linker_2, # of connection points: 2
# Relax obj value: 0.154
# Max RMSD: 0.254
# Mean RMSD: 0.085
data_MOF--net-zzz--node1-PAMTOO_clean_sbu_0--node2-QEWDON_clean_linker_0--edge1-XUDNAN_clean_linker_2
_symmetry_space_group_name_H-M    P1
_symmetry_Int_Tables_number       1
_symmetry_cell_setting            triclinic
loop_
_symmetry_equiv_pos_as_xyz
'x, y, z'
_cell_length_a     60.057161
_cell_length_b     52.766131
_cell_length_c     15.294564
_cell_angle_alpha  91.578502
_cell_angle_beta   80.130623
_cell_angle_gamma 86.487691
loop_
_atom_site_label
_atom_site_type_symbol
_atom_site_fract_x
_atom_site_fract_y
_atom_site_fract_z
_atom_type_partial_charge
H0 H 0.79525 0.48627 0.44512 0.0
C1 C 0.80709 0.49274 0.4856 0.0
C2 C 0.82974 0.48351 0.46476 0.0
C3 C 0.7996 0.50921 0.5603 0.0
H4 H 0.86281 0.4832 0.50079 0.0
C5 C 0.84533 0.49081 0.51726 0.0
C6 C 0.83854 0.50686 0.59261 0.0
C7 C 0.81559 0.51602 0.61424 0.0
C8 C 0.77492 0.51772 0.58423 0.0
H9 H 0.81037 0.52852 0.67244 0.0
C10 C 0.76115 0.52193 0.5183 0.0
C11 C 0.73771 0.52883 0.54225 0.0
C12 C 0.76465 0.52051 0.67411 0.0
H13 H 0.77428 0.51678 0.72658 0.0
C14 C 0.74158 0.52735 0.69796 0.0
H15 H 0.76864 0.52033 0.44859 0.0
C16 C 0.72822 0.53143 0.63298 0.0
H17 H 0.71027 0.53628 0.654 0.0
H18 H 0.73392 0.52922 0.76745 0.0
H19 H 0.98714 0.74872 0.37049 0.0
C20 C 0.99518 0.76231 0.40692 0.0
C21 C 0.99074 0.78826 0.39465 0.0
C22 C 1.01011 0.75408 0.46408 0.0
H23 H 0.99776 0.82629 0.43288 0.0
C24 C 1.00031 0.80617 0.44386 0.0
C25 C 1.01516 0.79875 0.50043 0.0
C26 C 1.02043 0.77274 0.50949 0.0
C27 C 1.01476 0.72621 0.47618 0.0
H28 H 0.03284 0.76726 0.5503 0.0
C29 C 1.01328 0.70768 0.40861 0.0
C30 C 1.01548 0.68152 0.42446 0.0
C31 C 1.01958 0.71778 0.55798 0.0
H32 H 1.02034 0.73105 0.61241 0.0
C33 C 1.02273 0.69192 0.57227 0.0
H34 H 1.00982 0.71334 0.34455 0.0
C35 C 1.0205 0.67392 0.50654 0.0
H36 H 1.02242 0.65394 0.52024 0.0
H37 H 1.02635 0.68578 0.63562 0.0
H38 H 0.79219 0.04777 0.24075 0.0
C39 C 0.78022 0.04005 0.29275 0.0
C40 C 0.75702 0.04649 0.29699 0.0
C41 C 0.78789 0.02462 0.35709 0.0
H42 H 0.72334 0.04183 0.36734 0.0
C43 C 0.74131 0.03748 0.36564 0.0
C44 C 0.74808 0.02184 0.4296 0.0
C45 C 0.7714 0.01499 0.42439 0.0
C46 C 0.81295 0.02031 0.35775 0.0
H47 H 0.77657 1.00248 0.47322 0.0
C48 C 0.82956 0.01935 0.27872 0.0
C49 C 0.85315 0.01743 0.28218 0.0
C50 C 0.82051 0.01887 0.43969 0.0
H51 H 0.80867 0.02026 0.50178 0.0
C52 C 0.84353 0.01675 0.44361 0.0
H53 H 0.82417 0.01991 0.2148 0.0
C54 C 0.85964 0.01628 0.36628 0.0
H55 H 0.87729 0.01571 0.37327 0.0
H56 H 0.84896 0.01607 0.5075 0.0
H57 H 0.55328 0.7313 0.1056 0.0
C58 C 0.55403 0.72101 0.16545 0.0
C59 C 0.54569 0.69667 0.17286 0.0
C60 C 0.56424 0.7316 0.23338 0.0
H61 H 0.54232 0.66379 0.25394 0.0
C62 C 0.54775 0.68301 0.24858 0.0
C63 C 0.55711 0.69321 0.31781 0.0
C64 C 0.5654 0.71756 0.31064 0.0
C65 C 0.57545 0.7561 0.21958 0.0
H66 H 0.57274 0.72545 0.36448 0.0
C67 C 0.56558 0.77694 0.17969 0.0
C68 C 0.57748 0.79904 0.16051 0.0
C69 C 0.59712 0.75804 0.2413 0.0
H70 H 0.60536 0.74238 0.27049 0.0
C71 C 0.60882 0.77983 0.22283 0.0
H72 H 0.54884 0.77592 0.16292 0.0
C73 C 0.5992 0.80009 0.18238 0.0
H74 H 0.60862 0.81685 0.1695 0.0
H75 H 0.62555 0.78095 0.23948 0.0
H76 H 0.26336 0.46554 0.17187 0.0
C77 C 0.2518 0.47297 0.13029 0.0
C78 C 0.22906 0.46748 0.15091 0.0
C79 C 0.2595 0.48841 0.05901 0.0
H80 H 0.19636 0.47228 0.11155 0.0
C81 C 0.21406 0.47617 0.09569 0.0
C82 C 0.22097 0.49111 0.02304 0.0
C83 C 0.2439 0.49713 0.00421 0.0
C84 C 0.28373 0.49534 0.0449 0.0
H85 H 0.24925 0.50924 0.9496 0.0
C86 C 0.29529 0.49797 0.11785 0.0
C87 C 0.31887 0.50085 0.10559 0.0
C88 C 0.29595 0.49773 0.95898 0.0
H89 H 0.2879 0.49567 0.90129 0.0
C90 C 0.31905 0.50182 0.94618 0.0
H91 H 0.28589 0.4976 0.18474 0.0
C92 C 0.3305 0.503 0.01835 0.0
H93 H 0.3486 0.50487 0.00511 0.0
H94 H 0.32832 0.50329 0.87947 0.0
H95 H 1.00326 0.29353 0.242 0.0
C96 C 1.01114 0.27827 0.19612 0.0
C97 C 1.00256 0.25413 0.20369 0.0
C98 C 0.02979 0.28278 0.12997 0.0
H99 H 1.00687 0.21549 0.15027 0.0
C100 C 1.0125 0.23457 0.14284 0.0
C101 C 0.03073 0.2385 0.0757 0.0
C102 C 0.03962 0.26259 0.06991 0.0
C103 C 0.03876 0.30859 0.12442 0.0
H104 H 0.05418 0.26547 0.01952 0.0
C105 C 0.03996 0.32322 0.20216 0.0
C106 C 0.04734 0.34812 0.19739 0.0
C107 C 0.04542 0.31918 0.04147 0.0
H108 H 0.04447 0.30868 0.98053 0.0
C109 C 0.05282 0.34377 0.0362 0.0
H110 H 0.03497 0.31528 0.2666 0.0
C111 C 0.05371 0.35819 0.11334 0.0
H112 H 0.05971 0.37711 0.10708 0.0
H113 H 0.05781 0.35175 0.97189 0.0
H114 H 0.29288 0.0285 0.39406 0.0
C115 C 0.30627 0.02667 0.33674 0.0
C116 C 0.32848 0.0221 0.35113 0.0
C117 C 0.30164 0.02927 0.24977 0.0
H118 H 0.36366 0.01824 0.29336 0.0
C119 C 0.34654 0.02151 0.28017 0.0
C120 C 0.34308 0.02527 0.19346 0.0
C121 C 0.32048 0.02823 0.17782 0.0
C122 C 0.27738 0.03416 0.23582 0.0
H123 H 0.3178 0.02999 0.11007 0.0
C124 C 0.25855 0.02679 0.29802 0.0
C125 C 0.23584 0.03284 0.28688 0.0
C126 C 0.27274 0.04735 0.1615 0.0
H127 H 0.28616 0.05423 0.11352 0.0
C128 C 0.25053 0.05255 0.14845 0.0
H129 H 0.26142 0.01658 0.35571 0.0
C130 C 0.23232 0.0454 0.20997 0.0
H131 H 0.2154 0.04964 0.1965 0.0
H132 H 0.24739 0.0625 0.09034 0.0
H133 H 0.56939 0.27183 0.41095 0.0
C134 C 0.56225 0.2839 0.36524 0.0
C135 C 0.56481 0.3102 0.37015 0.0
C136 C 0.55132 0.27322 0.29928 0.0
H137 H 0.55722 0.34623 0.31537 0.0
C138 C 0.5561 0.32582 0.3099 0.0
C139 C 0.54563 0.31596 0.2431 0.0
C140 C 0.54271 0.28973 0.23905 0.0
C141 C 0.55036 0.24487 0.28913 0.0
H142 H 0.53415 0.2823 0.18806 0.0
C143 C 0.54852 0.22884 0.36289 0.0
C144 C 0.54872 0.20204 0.35097 0.0
C145 C 0.5523 0.23346 0.20362 0.0
H146 H 0.5545 0.2447 0.14503 0.0
C147 C 0.55222 0.20721 0.19161 0.0
H148 H 0.54672 0.23717 0.42941 0.0
C149 C 0.55055 0.19163 0.26415 0.0
H150 H 0.55137 0.17128 0.25155 0.0
H151 H 0.55393 0.1988 0.12522 0.0
Dy152 Dy 0.03326 0.0304 0.67733 0.0
Dy153 Dy 0.05039 1.00462 0.84614 0.0
C154 C 0.08654 0.01637 0.6719 0.0
O155 O 0.04296 0.98946 0.63777 0.0
O156 O 0.03307 0.9756 0.77741 0.0
O157 O 0.03842 0.05534 0.56777 0.0
O158 O 1.0077 0.03537 0.59356 0.0
O159 O 1.01372 0.0154 0.89844 0.0
O160 O 1.00098 0.02202 0.7673 0.0
O161 O 0.05995 0.04506 0.85078 0.0
O162 O 0.0318 0.06132 0.78123 0.0
O163 O 0.05119 1.00206 0.98658 0.0
O164 O 0.07002 0.9738 0.89229 0.0
C165 C 0.03778 0.97096 0.69151 0.0
O166 O 0.07118 0.03195 0.6462 0.0
O167 O 0.08122 1.00158 0.73912 0.0
C168 C 1.00426 0.07838 0.55496 0.0
C169 C 0.9792 0.12548 0.55411 0.0
C170 C 0.99955 0.12387 0.5882 0.0
C171 C 1.01179 0.10064 0.58937 0.0
C172 C 0.98356 0.0796 0.52399 0.0
C173 C 0.97106 0.10291 0.52406 0.0
C174 C 1.01781 0.05397 0.55266 0.0
C175 C 0.99708 0.01907 0.85361 0.0
C176 C 0.04731 0.06454 0.83064 0.0
C177 C 0.04846 0.95854 0.01873 0.0
C178 C 1.02285 0.91605 0.05856 0.0
C179 C 1.0121 0.94054 0.06377 0.0
C180 C 1.02476 0.96159 0.0438 0.0
C181 C 0.05932 0.93425 0.01844 0.0
C182 C 0.04664 0.91318 0.03814 0.0
C183 C 0.06107 0.97915 0.97507 0.0
H184 H 1.00679 0.1407 0.61018 0.0
H185 H 1.02749 0.10034 0.61533 0.0
H186 H 0.97722 0.0626 0.49862 0.0
H187 H 0.95531 0.10329 0.49856 0.0
H188 H 0.99383 0.94333 0.07971 0.0
H189 H 1.01588 0.98005 0.04374 0.0
H190 H 0.07753 0.9314 0.99841 0.0
H191 H 0.05545 0.89458 0.03591 0.0
Dy192 Dy 0.54311 0.99518 0.72768 0.0
Dy193 Dy 0.55327 0.02346 0.90684 0.0
C194 C 0.54894 0.05499 0.7382 0.0
O195 O 0.58074 0.99574 0.69497 0.0
O196 O 0.58805 0.01172 0.82881 0.0
O197 O 0.54112 0.99578 0.58777 0.0
O198 O 0.52791 0.96483 0.66614 0.0
O199 O 0.5437 0.98403 0.94118 0.0
O200 O 0.55672 0.9642 0.8059 0.0
O201 O 0.51522 0.03009 0.91675 0.0
O202 O 0.51096 0.99627 0.82625 0.0
O203 O 0.56795 0.02118 0.02581 0.0
O204 O 0.55099 0.05651 0.99532 0.0
C205 C 0.59488 1.00249 0.74683 0.0
O206 O 0.53617 0.0374 0.71611 0.0
O207 O 0.56121 0.05083 0.79974 0.0
C208 C 0.50416 0.98516 0.58134 0.0
C209 C 0.45776 0.99717 0.58021 0.0
C210 C 0.46936 0.01072 0.63651 0.0
C211 C 0.49226 1.00504 0.63596 0.0
C212 C 0.49301 0.97161 0.52392 0.0
C213 C 0.47001 0.9778 0.52246 0.0
C214 C 0.52722 0.97756 0.59468 0.0
C215 C 0.55062 0.96323 0.8924 0.0
C216 C 0.50216 0.01424 0.88511 0.0
C217 C 0.58533 0.05851 0.0491 0.0
C218 C 0.62895 0.07469 0.05431 0.0
C219 C 0.62062 0.07398 0.9739 0.0
C220 C 0.59903 0.06588 0.97129 0.0
C221 C 0.59305 0.0604 0.13013 0.0
C222 C 0.61468 0.06846 0.13283 0.0
C223 C 0.56462 0.04562 0.04313 0.0
H224 H 0.46073 0.02529 0.68357 0.0
H225 H 0.50048 0.01566 0.68129 0.0
H226 H 0.50191 0.95612 0.48153 0.0
H227 H 0.46191 0.9673 0.47631 0.0
H228 H 0.63108 0.07883 0.91248 0.0
H229 H 0.59344 0.06431 0.90778 0.0
H230 H 0.58281 0.05448 0.19055 0.0
H231 H 0.62067 0.06836 0.1957 0.0
Dy232 Dy 0.56814 0.50761 0.80253 0.0
Dy233 Dy 0.51704 0.49848 0.73992 0.0
C234 C 0.53228 0.46993 0.90705 0.0
O235 O 0.57431 0.47895 0.68881 0.0
O236 O 0.53931 0.46281 0.71651 0.0
O237 O 0.60095 0.49322 0.82882 0.0
O238 O 0.59087 0.5333 0.8477 0.0
O239 O 0.5362 0.52022 0.63115 0.0
O240 O 0.56483 0.53563 0.6972 0.0
O241 O 0.51654 0.53814 0.79476 0.0
O242 O 0.5401 0.5296 0.89406 0.0
O243 O 0.48017 0.50208 0.76141 0.0
O244 O 0.49941 0.48211 0.64313 0.0
C245 C 0.56115 0.46003 0.68654 0.0
O246 O 0.55327 0.47658 0.88545 0.0
O247 O 0.51539 0.48015 0.87183 0.0
C248 C 0.61734 0.51664 0.93468 0.0
C249 C 0.64027 0.52272 0.08111 0.0
C250 C 0.6165 0.52701 0.09162 0.0
C251 C 0.60517 0.52402 0.01924 0.0
C252 C 0.6409 0.5117 0.9244 0.0
C253 C 0.65224 0.51466 0.99656 0.0
C254 C 0.6063 0.51539 0.85515 0.0
C255 C 0.55182 0.53645 0.6361 0.0
C256 C 0.52536 0.54492 0.86378 0.0
C257 C 0.46157 0.49799 0.63372 0.0
C258 C 0.42562 0.50264 0.53455 0.0
C259 C 0.44836 0.50049 0.49126 0.0
C260 C 0.46612 0.49809 0.54021 0.0
C261 C 0.43895 0.50164 0.67689 0.0
C262 C 0.42123 0.50401 0.62811 0.0
C263 C 0.47936 0.49 0.68618 0.0
H264 H 0.60661 0.53284 0.15582 0.0
H265 H 0.58697 0.52787 0.02905 0.0
H266 H 0.65068 0.5061 0.85972 0.0
H267 H 0.6705 0.51145 0.98522 0.0
H268 H 0.45242 0.49924 0.41944 0.0
H269 H 0.48333 0.49512 0.50453 0.0
H270 H 0.43484 0.50146 0.74867 0.0
H271 H 0.40399 0.5061 0.66391 0.0
Dy272 Dy 0.03213 0.53233 0.74896 0.0
Dy273 Dy 1.02443 0.49021 0.89925 0.0
C274 C 0.03858 0.47337 0.696 0.0
O275 O 0.99439 0.53311 0.78437 0.0
O276 O 0.99243 0.4932 0.84073 0.0
O277 O 1.02646 0.54796 0.62438 0.0
O278 O 0.05117 0.56345 0.69469 0.0
O279 O 1.01038 0.52658 0.97107 0.0
O280 O 1.02755 0.55555 0.87694 0.0
O281 O 0.05784 0.50562 0.91046 0.0
O282 O 0.06614 0.51421 0.76398 0.0
O283 O 1.01285 0.47803 0.03239 0.0
O284 O 0.02831 0.4506 0.92939 0.0
C285 C 0.98289 0.51333 0.80911 0.0
O286 O 0.02977 0.49535 0.67638 0.0
O287 O 0.04299 0.46987 0.77577 0.0
C288 C 0.06394 0.54968 0.54781 0.0
C289 C 0.10464 0.51992 0.49036 0.0
C290 C 0.0837 0.5097 0.48787 0.0
C291 C 0.06359 0.52456 0.51476 0.0
C292 C 0.08476 0.56086 0.53924 0.0
C293 C 0.10495 0.54613 0.51029 0.0
C294 C 0.04516 0.55973 0.61752 0.0
C295 C 1.01647 0.54972 0.95484 0.0
C296 C 0.07274 0.51025 0.84032 0.0
C297 C 0.99624 0.43931 0.02631 0.0
C298 C 0.95299 0.42117 0.07229 0.0
C299 C 0.96033 0.42927 0.98615 0.0
C300 C 0.9818 0.43826 0.96332 0.0
C301 C 0.98974 0.4293 0.10992 0.0
C302 C 0.96823 0.42016 0.13276 0.0
C303 C 1.01633 0.45404 0.00857 0.0
H304 H 0.08261 0.48974 0.47208 0.0
H305 H 0.04784 0.51536 0.51902 0.0
H306 H 0.08554 0.58019 0.56382 0.0
H307 H 0.1208 0.55499 0.50872 0.0
H308 H 0.9489 0.43024 0.93848 0.0
H309 H 0.98656 0.44583 0.89817 0.0
H310 H 1.00069 0.43003 0.15921 0.0
H311 H 0.96288 0.41432 0.20006 0.0
H312 H 0.19402 0.05976 0.33383 0.0
H313 H 0.23137 0.99113 0.39387 0.0
H314 H 0.198 0.98034 0.50101 0.0
H315 H 0.16226 0.07423 0.55289 0.0
H316 H 0.13674 0.08479 0.51369 0.0
H317 H 0.16394 0.08783 0.4453 0.0
H318 H 0.15137 0.06231 0.31724 0.0
H319 H 0.12411 0.05922 0.38517 0.0
H320 H 0.14105 0.03126 0.33725 0.0
H321 H 0.15983 0.9767 0.60161 0.0
H322 H 0.12046 0.9799 0.68267 0.0
H323 H 0.10714 0.04948 0.55005 0.0
C324 C 0.1953 0.04227 0.36849 0.0
C325 C 0.21572 0.02638 0.35435 0.0
C326 C 0.21635 1.00401 0.40366 0.0
C327 C 0.19731 0.99757 0.4645 0.0
C328 C 0.17752 0.01354 0.47558 0.0
C329 C 0.17639 0.03539 0.42857 0.0
C330 C 0.15293 0.04899 0.45067 0.0
C331 C 0.15404 0.07553 0.49317 0.0
C332 C 0.1417 0.05053 0.36764 0.0
C333 C 0.14094 0.03135 0.51737 0.0
C334 C 0.15549 0.01111 0.53135 0.0
C335 C 0.14835 0.99247 0.59083 0.0
C336 C 0.12587 0.9945 0.63684 0.0
C337 C 0.11048 0.01491 0.62306 0.0
C338 C 0.1183 0.03355 0.56213 0.0
H339 H 0.52773 0.15678 0.37525 0.0
H340 H 0.56921 0.20688 0.4981 0.0
H341 H 0.57198 0.17575 0.61403 0.0
H342 H 0.49784 0.13128 0.57943 0.0
H343 H 0.49829 0.09974 0.53058 0.0
H344 H 0.49781 0.12695 0.46212 0.0
H345 H 0.5341 0.10803 0.35884 0.0
H346 H 0.53476 0.08084 0.42715 0.0
H347 H 0.55904 0.09963 0.4054 0.0
H348 H 0.57277 0.13765 0.71012 0.0
H349 H 0.57049 0.09648 0.78206 0.0
H350 H 0.52916 0.07032 0.59531 0.0
C351 C 0.53734 0.16137 0.42664 0.0
C352 C 0.54825 0.18452 0.42695 0.0
C353 C 0.56037 0.18964 0.49658 0.0
C354 C 0.56219 0.17192 0.56253 0.0
C355 C 0.55176 0.14909 0.55854 0.0
C356 C 0.53944 0.14384 0.49267 0.0
C357 C 0.53063 0.11744 0.50128 0.0
C358 C 0.5046 0.11895 0.51945 0.0
C359 C 0.54021 0.10049 0.41824 0.0
C360 C 0.54018 0.10849 0.58171 0.0
C361 C 0.55224 0.1271 0.6138 0.0
C362 C 0.56321 0.12306 0.68591 0.0
C363 C 0.56183 0.09949 0.72628 0.0
C364 C 0.54957 0.08002 0.69485 0.0
C365 C 0.53853 0.08477 0.62158 0.0
H366 H 0.35753 0.52524 0.12966 0.0
H367 H 0.30951 0.47341 0.25669 0.0
H368 H 0.33036 0.47035 0.3811 0.0
H369 H 0.40662 0.49184 0.18644 0.0
H370 H 0.42086 0.52013 0.20424 0.0
H371 H 0.40125 0.52005 0.12739 0.0
H372 H 0.37831 0.55895 0.21279 0.0
H373 H 0.39787 0.55915 0.28994 0.0
H374 H 0.36801 0.55737 0.33024 0.0
H375 H 0.35686 0.47154 0.49055 0.0
H376 H 0.38788 0.47588 0.57512 0.0
H377 H 0.4203 0.52526 0.37632 0.0
C378 C 0.35132 0.51318 0.18332 0.0
C379 C 0.33143 0.4999 0.18279 0.0
C380 C 0.32413 0.48448 0.25554 0.0
C381 C 0.33604 0.48238 0.32665 0.0
C382 C 0.35549 0.49558 0.32456 0.0
C383 C 0.3632 0.51059 0.2547 0.0
C384 C 0.38518 0.52192 0.26754 0.0
C385 C 0.40462 0.51294 0.19191 0.0
C386 C 0.38215 0.55108 0.27561 0.0
C387 C 0.38867 0.51074 0.35518 0.0
C388 C 0.37119 0.49579 0.38707 0.0
C389 C 0.37056 0.48332 0.46645 0.0
C390 C 0.38825 0.48607 0.51445 0.0
C391 C 0.40655 0.50112 0.48328 0.0
C392 C 0.40665 0.51359 0.40216 0.0
H393 H 0.03516 0.39918 0.23402 0.0
H394 H 0.0624 0.33197 0.34728 0.0
H395 H 0.06426 0.35706 0.48407 0.0
H396 H 0.06936 0.44421 0.32817 0.0
H397 H 0.0469 0.46902 0.34805 0.0
H398 H 0.0482 0.44605 0.25758 0.0
H399 H 1.00731 0.4345 0.31963 0.0
H400 H 1.00586 0.4575 0.4099 0.0
H401 H 1.0005 0.42488 0.43273 0.0
H402 H 0.06265 0.38909 0.60947 0.0
H403 H 0.05668 0.42554 0.71688 0.0
H404 H 0.03059 0.47238 0.52308 0.0
C405 C 0.04176 0.38978 0.28716 0.0
C406 C 0.04859 0.36349 0.2797 0.0
C407 C 0.05677 0.35192 0.35161 0.0
C408 C 0.05807 0.36609 0.42939 0.0
C409 C 0.05118 0.39187 0.43453 0.0
C410 C 0.04318 0.40365 0.36543 0.0
C411 C 0.03634 0.43152 0.38909 0.0
C412 C 0.05108 0.44871 0.32701 0.0
C413 C 1.011 0.43744 0.38777 0.0
C414 C 0.04141 0.43344 0.48281 0.0
C415 C 0.05015 0.41039 0.50727 0.0
C416 C 0.05588 0.40726 0.59095 0.0
C417 C 0.0524 0.42814 0.6516 0.0
C418 C 0.04316 0.45194 0.62876 0.0
C419 C 0.03777 0.45455 0.54272 0.0
H420 H 0.8964 0.99331 0.25173 0.0
H421 H 0.85169 0.04269 0.12618 0.0
H422 H 0.88276 0.04645 0.99942 0.0
H423 H 0.94482 0.02857 0.19731 0.0
H424 H 0.96463 1.00107 0.17991 0.0
H425 H 0.93822 0.99998 0.25545 0.0
H426 H 0.92872 0.96044 0.16851 0.0
H427 H 0.95504 0.96146 0.09227 0.0
H428 H 0.9287 0.96196 0.05091 0.0
H429 H 0.92002 0.04631 0.88756 0.0
H430 H 0.95945 0.04328 0.80557 0.0
H431 H 0.98027 0.9971 0.01121 0.0
C432 C 0.89295 1.00506 0.1981 0.0
C433 C 0.87125 0.01776 0.20035 0.0
C434 C 0.8678 0.03236 0.1266 0.0
C435 C 0.8855 0.03479 0.05421 0.0
C436 C 0.90675 0.02262 0.05595 0.0
C437 C 0.91049 1.00805 0.12626 0.0
C438 C 0.9351 0.9979 0.11473 0.0
C439 C 0.94635 1.00746 0.1914 0.0
C440 C 0.93699 0.96871 0.10609 0.0
C441 C 0.94484 1.00948 0.02782 0.0
C442 C 0.92816 0.02332 0.99401 0.0
C443 C 0.93313 0.03553 0.91379 0.0
C444 C 0.95563 0.03367 0.8675 0.0
C445 C 0.97313 0.02011 0.90194 0.0
C446 C 0.96746 1.00784 0.98328 0.0
H447 H 0.59671 0.82539 0.01715 0.0
H448 H 0.53601 0.82424 0.21609 0.0
H449 H 0.52169 0.86518 0.16416 0.0
H450 H 0.6039 0.89064 0.03282 0.0
H451 H 0.61322 0.89438 0.91572 0.0
H452 H 0.61791 0.86415 0.96361 0.0
H453 H 0.59676 0.84234 0.85131 0.0
H454 H 0.59216 0.8725 0.80246 0.0
H455 H 0.56844 0.85414 0.84263 0.0
H456 H 0.51641 0.90883 0.10307 0.0
H457 H 0.51826 0.94943 0.02612 0.0
H458 H 0.58103 0.92119 0.85856 0.0
C459 C 0.58021 0.83356 0.04867 0.0
C460 C 0.56742 0.82159 0.12069 0.0
C461 C 0.54595 0.83289 0.1603 0.0
C462 C 0.53777 0.85623 0.13151 0.0
C463 C 0.55106 0.86783 0.06185 0.0
C464 C 0.57163 0.85662 0.01969 0.0
C465 C 0.58276 0.87323 0.94732 0.0
C466 C 0.60581 0.88106 0.96603 0.0
C467 C 0.58517 0.85975 0.85548 0.0
C468 C 0.56555 0.89587 0.95676 0.0
C469 C 0.54746 0.89242 0.0237 0.0
C470 C 0.53026 0.91148 0.04945 0.0
C471 C 0.53152 0.93454 0.00564 0.0
C472 C 0.54963 0.93835 0.93571 0.0
C473 C 0.56675 0.91861 0.91055 0.0
H474 H 0.73572 0.50021 0.38884 0.0
H475 H 0.70538 0.56767 0.54319 0.0
H476 H 0.6776 0.57332 0.44278 0.0
H477 H 0.72831 0.52399 0.17083 0.0
H478 H 0.72191 0.49347 0.12928 0.0
H479 H 0.74017 0.49527 0.21098 0.0
H480 H 0.71401 0.46711 0.31356 0.0
H481 H 0.69559 0.4654 0.23254 0.0
H482 H 0.68431 0.47675 0.34456 0.0
H483 H 0.65176 0.57072 0.3305 0.0
H484 H 0.63113 0.56146 0.20854 0.0
H485 H 0.67773 0.49563 0.12489 0.0
C486 C 0.7235 0.51642 0.40046 0.0
C487 C 0.72274 0.53342 0.47453 0.0
C488 C 0.7062 0.5542 0.48781 0.0
C489 C 0.69035 0.55763 0.4309 0.0
C490 C 0.69117 0.54023 0.36011 0.0
C491 C 0.70742 0.52015 0.344 0.0
C492 C 0.70417 0.50397 0.2639 0.0
C493 C 0.72487 0.50419 0.18933 0.0
C494 C 0.69922 0.47669 0.29025 0.0
C495 C 0.68349 0.51798 0.23815 0.0
C496 C 0.67628 0.53882 0.29472 0.0
C497 C 0.65732 0.55449 0.28558 0.0
C498 C 0.64555 0.54889 0.21634 0.0
C499 C 0.65263 0.52774 0.15657 0.0
C500 C 0.67192 0.51211 0.16837 0.0
H501 H 0.03487 0.67344 0.24697 0.0
H502 H 0.98565 0.64501 0.45639 0.0
H503 H 0.97878 0.61031 0.35508 0.0
H504 H 1.00577 0.65726 0.06054 0.0
H505 H 0.03174 0.64764 0.98609 0.0
H506 H 0.0316 0.67167 0.07232 0.0
H507 H 0.06326 0.64527 0.13142 0.0
H508 H 0.06348 0.62119 0.04551 0.0
H509 H 0.05905 0.6128 0.16035 0.0
H510 H 0.97868 0.57745 0.23656 0.0
H511 H 0.98576 0.54747 0.10735 0.0
H512 H 0.03538 0.59595 0.97102 0.0
C513 C 1.02239 0.66012 0.27063 0.0
C514 C 1.01073 0.66192 0.35951 0.0
C515 C 0.99481 0.6439 0.38875 0.0
C516 C 0.99072 0.6242 0.33158 0.0
C517 C 1.0027 0.62264 0.245 0.0
C518 C 1.01823 0.64004 0.21427 0.0
C519 C 0.02969 0.63291 0.11943 0.0
C520 C 1.02438 0.6536 0.05583 0.0
C521 C 0.05539 0.62773 0.1139 0.0
C522 C 1.01837 0.60867 0.10246 0.0
C523 C 1.00275 0.60331 0.17584 0.0
C524 C 0.99074 0.58153 0.17838 0.0
C525 C 0.99494 0.56456 0.1045 0.0
C526 C 1.01107 0.5693 0.02858 0.0
C527 C 1.02272 0.59191 0.0274 0.0
H528 H 0.9686 0.22214 0.20372 0.0
H529 H 0.99867 0.27054 0.3781 0.0
H530 H 0.98068 0.2479 0.50655 0.0
H531 H 0.91843 0.19956 0.38038 0.0
H532 H 0.92401 0.16791 0.3309 0.0
H533 H 0.92749 0.1951 0.26206 0.0
H534 H 0.96864 0.1781 0.19896 0.0
H535 H 0.96536 0.15125 0.26724 0.0
H536 H 0.98809 0.17161 0.27458 0.0
H537 H 0.97172 0.21292 0.6054 0.0
H538 H 0.97645 0.16966 0.65772 0.0
H539 H 0.95888 0.13927 0.41405 0.0
C540 C 0.97055 0.22859 0.26959 0.0
C541 C 0.9853 0.2478 0.28062 0.0
C542 C 0.9873 0.25605 0.36756 0.0
C543 C 0.9771 0.24315 0.44131 0.0
C544 C 0.96513 0.22196 0.42703 0.0
C545 C 0.96166 0.21484 0.34274 0.0
C546 C 0.95449 0.18783 0.33943 0.0
C547 C 0.92962 0.1876 0.32753 0.0
C548 C 0.9701 0.17126 0.2659 0.0
C549 C 0.95722 0.17985 0.43151 0.0
C550 C 0.96176 0.20026 0.48297 0.0
C551 C 0.96779 0.19694 0.56618 0.0
C552 C 0.97075 0.17218 0.59489 0.0
C553 C 0.9686 0.15092 0.53894 0.0
C554 C 0.96033 0.155 0.45904 0.0
H555 H 0.34377 0.97931 0.41843 0.0
H556 H 0.32894 0.05981 0.47378 0.0
H557 H 0.35649 0.0595 0.57587 0.0
H558 H 0.36323 0.96365 0.64961 0.0
H559 H 0.38474 0.94119 0.59024 0.0
H560 H 0.35748 0.94519 0.55604 0.0
H561 H 0.37783 0.95378 0.39772 0.0
H562 H 0.40498 0.95115 0.43119 0.0
H563 H 0.3961 0.97978 0.38139 0.0
H564 H 0.39399 0.05454 0.61531 0.0
H565 H 0.43409 0.04385 0.6163 0.0
H566 H 0.4253 0.96518 0.54563 0.0
C567 C 0.34509 0.99628 0.45818 0.0
C568 C 0.33416 0.01946 0.4402 0.0
C569 C 0.33681 0.04181 0.48897 0.0
C570 C 0.35261 0.04177 0.54645 0.0
C571 C 0.3652 0.01913 0.55508 0.0
C572 C 0.361 0.99645 0.51504 0.0
C573 C 0.37962 0.97603 0.51986 0.0
C574 C 0.37074 0.95529 0.58272 0.0
C575 C 0.39024 0.96456 0.42706 0.0
C576 C 0.39611 0.9915 0.55922 0.0
C577 C 0.38725 0.01611 0.58103 0.0
C578 C 0.4007 0.03501 0.60323 0.0
C579 C 0.42364 0.02865 0.60348 0.0
C580 C 0.43309 1.00343 0.58262 0.0
C581 C 0.41883 0.98461 0.56209 0.0
H582 H 0.59479 0.34704 0.34768 0.0
H583 H 0.55691 0.30293 0.54925 0.0
H584 H 0.56272 0.33429 0.66431 0.0
H585 H 0.63158 0.38111 0.49615 0.0
H586 H 0.62767 0.41006 0.43908 0.0
H587 H 0.62971 0.37975 0.37974 0.0
H588 H 0.59146 0.39153 0.32994 0.0
H589 H 0.58896 0.42144 0.39015 0.0
H590 H 0.56673 0.39985 0.41288 0.0
H591 H 0.56148 0.37485 0.74708 0.0
H592 H 0.55338 0.42013 0.79036 0.0
H593 H 0.58907 0.44094 0.53481 0.0
C594 C 0.58873 0.34341 0.41675 0.0
C595 C 0.57533 0.32266 0.43976 0.0
C596 C 0.56747 0.31848 0.53027 0.0
C597 C 0.57064 0.33635 0.59603 0.0
C598 C 0.58175 0.35815 0.56999 0.0
C599 C 0.591 0.36159 0.48223 0.0
C600 C 0.59728 0.3888 0.46772 0.0
C601 C 0.6231 0.38999 0.44432 0.0
C602 C 0.58538 0.4011 0.39606 0.0
C603 C 0.58829 0.40073 0.5591 0.0
C604 C 0.58028 0.38247 0.61794 0.0
C605 C 0.56833 0.38913 0.70252 0.0
C606 C 0.5637 0.41492 0.72639 0.0
C607 C 0.57088 0.43384 0.66601 0.0
C608 C 0.58406 0.42673 0.58272 0.0
H609 H 0.19532 0.43505 0.18848 0.0
H610 H 0.24066 0.47904 0.31219 0.0
H611 H 0.21316 0.48287 0.4496 0.0
H612 H 0.15762 0.47462 0.21901 0.0
H613 H 0.13211 0.45789 0.24446 0.0
H614 H 0.15726 0.44175 0.18418 0.0
H615 H 0.15707 0.40729 0.30013 0.0
H616 H 0.1309 0.42229 0.36035 0.0
H617 H 0.15469 0.41623 0.41611 0.0
H618 H 0.17817 0.49974 0.53852 0.0
H619 H 0.14148 0.52414 0.57306 0.0
H620 H 0.11585 0.4775 0.37949 0.0
C621 C 0.19975 0.44422 0.24669 0.0
C622 C 0.2196 0.45755 0.23869 0.0
C623 C 0.22546 0.46881 0.31586 0.0
C624 C 0.2097 0.4712 0.39482 0.0
C625 C 0.18822 0.46246 0.39507 0.0
C626 C 0.18335 0.44839 0.32338 0.0
C627 C 0.15794 0.44813 0.32665 0.0
C628 C 0.15083 0.45611 0.23846 0.0
C629 C 0.14966 0.42193 0.3524 0.0
C630 C 0.14968 0.46766 0.40115 0.0
C631 C 0.16713 0.4742 0.44398 0.0
C632 C 0.16431 0.49429 0.50683 0.0
C633 C 0.14349 0.5085 0.52443 0.0
C634 C 0.12585 0.50312 0.47747 0.0
C635 C 0.12885 0.48187 0.41744 0.0
H636 H 0.96082 0.82906 0.39331 0.0
H637 H 0.99909 0.76886 0.22418 0.0
H638 H 0.9994 0.79535 0.09535 0.0
H639 H 0.93579 0.86668 0.20175 0.0
H640 H 0.94076 0.89596 0.25654 0.0
H641 H 0.93133 0.86934 0.32132 0.0
H642 H 0.96558 0.87213 0.4023 0.0
H643 H 0.97545 0.89799 0.33697 0.0
H644 H 0.99386 0.86974 0.33818 0.0
H645 H 1.01114 0.83096 0.00707 0.0
H646 H 0.02913 0.87051 0.96502 0.0
H647 H 0.98701 0.91049 0.19097 0.0
C648 C 0.96793 0.82108 0.32779 0.0
C649 C 0.98034 0.79728 0.31883 0.0
C650 C 0.98945 0.78705 0.23289 0.0
C651 C 0.98982 0.80218 0.15898 0.0
C652 C 0.98095 0.82735 0.1723 0.0
C653 C 0.96946 0.83661 0.2546 0.0
C654 C 0.967 0.86545 0.2585 0.0
C655 C 0.94225 0.87491 0.25954 0.0
C656 C 0.97605 0.87694 0.33857 0.0
C657 C 0.98164 0.8709 0.1712 0.0
C658 C 0.98852 0.84878 0.12042 0.0
C659 C 1.0052 0.84847 0.04461 0.0
C660 C 1.01558 0.87096 0.02183 0.0
C661 C 1.00941 0.89349 0.07493 0.0
C662 C 0.99161 0.89363 0.14823 0.0
H663 H 0.72617 0.08681 0.32167 0.0
H664 H 0.76628 0.03673 0.11776 0.0
H665 H 0.74087 0.04925 0.01339 0.0
H666 H 0.67847 0.06701 0.2966 0.0
H667 H 0.66088 0.09623 0.31638 0.0
H668 H 0.68639 0.09286 0.3619 0.0
H669 H 0.70119 0.13291 0.28338 0.0
H670 H 0.6753 0.13695 0.23891 0.0
H671 H 0.70228 0.13522 0.16536 0.0
H672 H 0.70582 0.05552 0.95083 0.0
H673 H 0.66581 0.05604 0.93423 0.0
H674 H 0.6468 0.10129 0.17954 0.0
C675 C 0.73026 0.07971 0.2533 0.0
C676 C 0.74812 0.06094 0.22732 0.0
C677 C 0.7529 0.05147 0.13834 0.0
C678 C 0.73843 0.05843 0.07879 0.0
C679 C 0.71948 0.07504 0.10926 0.0
C680 C 0.71563 0.08602 0.19425 0.0
C681 C 0.69193 0.09868 0.21798 0.0
C682 C 0.67867 0.08803 0.30311 0.0
C683 C 0.69273 0.12766 0.22689 0.0
C684 C 0.68234 0.09112 0.13661 0.0
C685 C 0.69869 0.07832 0.07325 0.0
C686 C 0.69309 0.06634 0.99834 0.0
C687 C 0.67024 0.06678 0.98931 0.0
C688 C 0.65316 0.07892 0.05523 0.0
C689 C 0.6595 0.09202 0.12784 0.0
H690 H 0.51058 0.66554 0.18787 0.0
H691 H 0.5618 0.69698 0.99351 0.0
H692 H 0.5551 0.66523 0.88156 0.0
H693 H 0.53159 0.60648 0.14468 0.0
H694 H 0.50544 0.5908 0.16219 0.0
H695 H 0.50697 0.621 0.21697 0.0
H696 H 0.47341 0.64011 0.14859 0.0
H697 H 0.47132 0.60969 0.09491 0.0
H698 H 0.47452 0.63767 0.0301 0.0
H699 H 0.55019 0.62497 0.80343 0.0
H700 H 0.54754 0.57989 0.76492 0.0
H701 H 0.50326 0.57083 0.01522 0.0
C702 C 0.51984 0.66631 0.12082 0.0
C703 C 0.53684 0.68368 0.09968 0.0
C704 C 0.54848 0.68418 0.0112 0.0
C705 C 0.54485 0.66605 0.94719 0.0
C706 C 0.52959 0.64758 0.97291 0.0
C707 C 0.51711 0.64769 0.05768 0.0
C708 C 0.50552 0.6231 0.07468 0.0
C709 C 0.51284 0.60957 0.15427 0.0
C710 C 0.47965 0.62794 0.08781 0.0
C711 C 0.51454 0.60848 0.98818 0.0
C712 C 0.5277 0.62332 0.9293 0.0
C713 C 0.53944 0.61344 0.84799 0.0
C714 C 0.53784 0.58778 0.8266 0.0
C715 C 0.52488 0.57217 0.88644 0.0
C716 C 0.51294 0.58262 0.96796 0.0
H717 H 0.84398 0.49444 0.29388 0.0
H718 H 0.83547 0.4325 0.4728 0.0
H719 H 0.85991 0.4039 0.36087 0.0
H720 H 0.85386 0.45207 0.07101 0.0
H721 H 0.87468 0.4731 0.02218 0.0
H722 H 0.85006 0.48563 0.09925 0.0
H723 H 0.87612 0.5061 0.19576 0.0
H724 H 0.90059 0.49361 0.11985 0.0
H725 H 0.89753 0.4863 0.23563 0.0
H726 H 0.89373 0.38732 0.25869 0.0
H727 H 0.93252 0.38379 0.1718 0.0
H728 H 0.91921 0.45542 0.05299 0.0
C729 C 0.84619 0.47442 0.30631 0.0
C730 C 0.83763 0.46528 0.39004 0.0
C731 C 0.84156 0.43944 0.40759 0.0
C732 C 0.85538 0.42312 0.34432 0.0
C733 C 0.86494 0.43299 0.26381 0.0
C734 C 0.86009 0.45798 0.2436 0.0
C735 C 0.8758 0.46537 0.16125 0.0
C736 C 0.86282 0.46926 0.08383 0.0
C737 C 0.88825 0.48921 0.17936 0.0
C738 C 0.89177 0.44175 0.14455 0.0
C739 C 0.8848 0.42293 0.20233 0.0
C740 C 0.89893 0.4014 0.21058 0.0
C741 C 0.92097 0.39957 0.16145 0.0
C742 C 0.92858 0.41912 0.10485 0.0
C743 C 0.91343 0.43977 0.09332 0.0
H744 H 1.00913 0.20926 0.97216 0.0
H745 H 0.07382 0.21624 0.05607 0.0
H746 H 0.08647 0.17279 0.99374 0.0
H747 H 1.00235 0.14801 0.03203 0.0
H748 H 0.98922 0.13805 0.94041 0.0
H749 H 0.9867 0.17095 0.97689 0.0
H750 H 1.00375 0.18409 0.81854 0.0
H751 H 1.00571 0.15123 0.78107 0.0
H752 H 0.03054 0.16924 0.7638 0.0
H753 H 0.08934 0.1259 0.94362 0.0
H754 H 0.08405 0.08192 0.8939 0.0
H755 H 1.01759 0.10645 0.8405 0.0
C756 C 1.02631 0.202 0.97389 0.0
C757 C 0.04069 0.21621 0.01742 0.0
C758 C 0.0628 0.20589 0.02106 0.0
C759 C 0.06999 0.18113 0.98662 0.0
C760 C 0.05495 0.16714 0.94785 0.0
C761 C 0.03373 0.17748 0.93952 0.0
C762 C 1.02009 0.15808 0.90115 0.0
C763 C 0.99831 0.15351 0.96653 0.0
C764 C 1.01472 0.16615 0.81076 0.0
C765 C 0.0367 0.13498 0.89091 0.0
C766 C 0.05671 0.14048 0.9183 0.0
C767 C 0.07391 0.12157 0.92044 0.0
C768 C 0.07069 0.09659 0.89272 0.0
C769 C 0.05048 0.09071 0.86275 0.0
C770 C 0.03337 0.11031 0.86192 0.0
H771 H 0.38175 0.05016 0.19958 0.0
H772 H 0.35185 1.00015 0.02899 0.0
H773 H 0.38879 0.99433 0.92698 0.0
H774 H 0.42129 0.07911 0.02258 0.0
H775 H 0.44323 0.07984 0.08942 0.0
H776 H 0.41388 0.08257 0.14181 0.0
H777 H 0.42119 0.04437 0.23809 0.0
H778 H 0.45047 0.04129 0.18542 0.0
H779 H 0.43319 0.01457 0.18465 0.0
H780 H 0.4302 0.98959 0.85483 0.0
H781 H 0.47149 0.98858 0.81103 0.0
H782 H 0.47519 0.04236 0.02724 0.0
C783 C 0.38281 0.03835 0.13976 0.0
C784 C 0.36373 0.0256 0.12241 0.0
C785 C 0.36598 0.01038 0.04335 0.0
C786 C 0.387 1.00682 0.98543 0.0
C787 C 0.40564 0.01879 0.0069 0.0
C788 C 0.40364 0.03456 0.08163 0.0
C789 C 0.42648 0.0441 0.09253 0.0
C790 C 0.4262 0.07313 0.08619 0.0
C791 C 0.43322 0.03557 0.18037 0.0
C792 C 0.44188 0.03084 0.01308 0.0
C793 C 0.42944 0.01638 0.96465 0.0
C794 C 0.43995 1.00122 0.89154 0.0
C795 C 0.4636 1.00082 0.86713 0.0
C796 C 0.47689 0.01573 0.9144 0.0
C797 C 0.46568 0.03104 0.98852 0.0
H798 H 0.57271 0.34751 0.1447 0.0
H799 H 0.50326 0.32658 0.20018 0.0
H800 H 0.49151 0.36396 0.11899 0.0
H801 H 0.56099 0.41198 0.1855 0.0
H802 H 0.58294 0.42171 0.09973 0.0
H803 H 0.58623 0.39151 0.1495 0.0
H804 H 0.59215 0.36819 0.99486 0.0
H805 H 0.58955 0.39839 0.94414 0.0
H806 H 0.57148 0.37366 0.92357 0.0
H807 H 0.48756 0.40667 0.04063 0.0
H808 H 0.49213 0.44749 0.96523 0.0
H809 H 0.56419 0.44027 0.97223 0.0
C810 C 0.55511 0.35036 0.13742 0.0
C811 C 0.5389 0.33404 0.17775 0.0
C812 C 0.51598 0.33859 0.16827 0.0
C813 C 0.50918 0.35993 0.1231 0.0
C814 C 0.52555 0.37639 0.08788 0.0
C815 C 0.54811 0.37152 0.09371 0.0
C816 C 0.56237 0.39257 0.05564 0.0
C817 C 0.57379 0.40518 0.12684 0.0
C818 C 0.57992 0.38261 0.97475 0.0
C819 C 0.54434 0.41041 0.02837 0.0
C820 C 0.5232 0.40083 0.04661 0.0
C821 C 0.50409 0.41421 0.026 0.0
C822 C 0.50683 0.43752 0.98373 0.0
C823 C 0.52849 0.44738 0.96314 0.0
C824 C 0.54731 0.43363 0.98752 0.0
H825 H 0.179 0.51377 0.08885 0.0
H826 H 0.22206 0.48775 0.84188 0.0
H827 H 0.18919 0.49347 0.76377 0.0
H828 H 0.13422 0.48095 0.06493 0.0
H829 H 0.11166 0.50431 0.10952 0.0
H830 H 0.13849 0.50503 0.1456 0.0
H831 H 0.14405 0.55063 0.1 0.0
H832 H 0.11633 0.55191 0.06938 0.0
H833 H 0.14055 0.55974 0.9902 0.0
H834 H 0.14992 0.4975 0.71709 0.0
H835 H 0.10915 0.49983 0.70608 0.0
H836 H 0.09192 0.51996 0.98733 0.0
C837 C 0.18171 0.50997 0.01772 0.0
C838 C 0.20322 0.5004 0.97133 0.0
C839 C 0.20592 0.49548 0.87852 0.0
C840 C 0.18725 0.4985 0.83387 0.0
C841 C 0.16601 0.50664 0.88284 0.0
C842 C 0.16329 0.51263 0.97273 0.0
C843 C 0.13854 0.51897 0.01228 0.0
C844 C 0.13026 0.5012 0.08739 0.0
C845 C 0.13464 0.54698 0.04486 0.0
C846 C 0.12751 0.51428 0.93192 0.0
C847 C 0.14361 0.5079 0.85719 0.0
C848 C 0.13728 0.50266 0.77519 0.0
C849 C 0.11405 0.50397 0.76963 0.0
C850 C 0.09729 0.50984 0.84606 0.0
C851 C 0.10427 0.51516 0.92794 0.0
H852 H 0.9987 0.82977 0.64604 0.0
H853 H 0.05604 0.81547 0.43327 0.0
H854 H 0.06937 0.85771 0.46421 0.0
H855 H 0.98659 0.89167 0.60706 0.0
H856 H 0.97931 0.90346 0.7208 0.0
H857 H 0.97613 0.87065 0.69345 0.0
H858 H 1.0019 0.85616 0.8046 0.0
H859 H 1.00481 0.88894 0.83423 0.0
H860 H 0.02967 0.868 0.79654 0.0
H861 H 0.07202 0.90423 0.49854 0.0
H862 H 0.06801 0.9492 0.55257 0.0
H863 H 1.01068 0.93272 0.75157 0.0
C864 C 1.01472 0.83506 0.60949 0.0
C865 C 1.02679 0.81914 0.53909 0.0
C866 C 0.04706 0.82708 0.48936 0.0
C867 C 0.05457 0.85116 0.50584 0.0
C868 C 0.04177 0.86691 0.57322 0.0
C869 C 1.02266 0.8589 0.62624 0.0
C870 C 1.01131 0.88006 0.69106 0.0
C871 C 0.98689 0.88685 0.6772 0.0
C872 C 1.01196 0.87286 0.78732 0.0
C873 C 1.02651 0.90146 0.66399 0.0
C874 C 0.04388 0.89352 0.5954 0.0
C875 C 0.05885 0.91047 0.55374 0.0
C876 C 0.0563 0.93602 0.58419 0.0
C877 C 0.03916 0.94435 0.65646 0.0
C878 C 1.02414 0.92676 0.69693 0.0
H879 H 0.71625 0.05025 0.54776 0.0
H880 H 0.73738 0.97263 0.45764 0.0
H881 H 0.70129 0.95843 0.5398 0.0
H882 H 0.68446 0.03522 0.77309 0.0
H883 H 0.66307 0.06044 0.76861 0.0
H884 H 0.6918 0.06346 0.71398 0.0
H885 H 0.67721 0.07171 0.56667 0.0
H886 H 0.64857 0.06813 0.62051 0.0
H887 H 0.66062 0.04861 0.52335 0.0
H888 H 0.66001 0.95419 0.60926 0.0
H889 H 0.61933 0.95925 0.67691 0.0
H890 H 0.62577 0.03917 0.73153 0.0
C891 C 0.71365 0.03011 0.54855 0.0
C892 C 0.72984 0.01243 0.49765 0.0
C893 C 0.72553 0.98637 0.49788 0.0
C894 C 0.70495 0.97822 0.54372 0.0
C895 C 0.68894 0.99631 0.5903 0.0
C896 C 0.69333 0.02167 0.59485 0.0
C897 C 0.67288 0.03756 0.64494 0.0
C898 C 0.67839 0.04989 0.73023 0.0
C899 C 0.66432 0.05768 0.5853 0.0
C900 C 0.65604 0.01733 0.6661 0.0
C901 C 0.66558 0.99367 0.63343 0.0
C902 C 0.65263 0.97249 0.63713 0.0
C903 C 0.62951 0.97553 0.67534 0.0
C904 C 0.61956 0.99944 0.71099 0.0
C905 C 0.63311 0.02052 0.70696 0.0
H906 H 0.58961 0.65799 0.3547 0.0
H907 H 0.52168 0.69093 0.45009 0.0
H908 H 0.51349 0.65398 0.54273 0.0
H909 H 0.57737 0.59659 0.33353 0.0
H910 H 0.60099 0.58147 0.37505 0.0
H911 H 0.6035 0.61211 0.32685 0.0
H912 H 0.61438 0.63127 0.47006 0.0
H913 H 0.61278 0.6004 0.51755 0.0
H914 H 0.59646 0.62748 0.57556 0.0
H915 H 0.50973 0.61005 0.59377 0.0
H916 H 0.51363 0.56598 0.64072 0.0
H917 H 0.58547 0.56215 0.53257 0.0
C918 C 0.57355 0.65808 0.39951 0.0
C919 C 0.55642 0.67765 0.39729 0.0
C920 C 0.53518 0.67657 0.4532 0.0
C921 C 0.53029 0.65545 0.50489 0.0
C922 C 0.54702 0.63577 0.50161 0.0
C923 C 0.56857 0.63729 0.45371 0.0
C924 C 0.58311 0.61295 0.46057 0.0
C925 C 0.59174 0.60003 0.36852 0.0
C926 C 0.60285 0.61835 0.50884 0.0
C927 C 0.56603 0.59722 0.51643 0.0
C928 C 0.54523 0.61071 0.53759 0.0
C929 C 0.52609 0.59957 0.58011 0.0
C930 C 0.52841 0.57436 0.60521 0.0
C931 C 0.54982 0.56066 0.5904 0.0
C932 C 0.56891 0.57223 0.54502 0.0
H933 H 0.87888 0.52884 0.54623 0.0
H934 H 0.83754 0.49444 0.76559 0.0
H935 H 0.86944 0.49416 0.84949 0.0
H936 H 0.92966 0.49487 0.55565 0.0
H937 H 0.94762 0.52077 0.53006 0.0
H938 H 0.92097 0.52063 0.49133 0.0
H939 H 0.90853 0.56473 0.56872 0.0
H940 H 0.9353 0.56519 0.60672 0.0
H941 H 0.90921 0.56934 0.68544 0.0
H942 H 0.9081 0.49164 0.8987 0.0
H943 H 0.94813 0.49289 0.91848 0.0
H944 H 0.96334 0.53237 0.67278 0.0
C945 C 0.87635 0.52202 0.61313 0.0
C946 C 0.85563 0.51196 0.65004 0.0
C947 C 0.85308 0.50269 0.73691 0.0
C948 C 0.8712 0.50227 0.78462 0.0
C949 C 0.89166 0.51162 0.74519 0.0
C950 C 0.89411 0.52193 0.66221 0.0
C951 C 0.91798 0.53018 0.63358 0.0
C952 C 0.92974 0.51575 0.54758 0.0
C953 C 0.91773 0.55908 0.62302 0.0
C954 C 0.9288 0.52235 0.71226 0.0
C955 C 0.91342 0.51144 0.77566 0.0
C956 C 0.92007 0.50074 0.85047 0.0
C957 C 0.94287 0.50143 0.86104 0.0
C958 C 0.95874 0.51318 0.79816 0.0
C959 C 0.95147 0.52388 0.72316 0.0
loop_
_geom_bond_atom_site_label_1
_geom_bond_atom_site_label_2
_geom_bond_distance
_geom_bond_site_symmetry_2
_ccdc_geom_bond_type
H0 C1 0.949 . S
C1 H0 0.949 . S
C1 C2 1.395 . S
C1 C3 1.391 . S
C2 C1 1.395 . S
C2 C5 1.390 . S
C3 C1 1.391 . S
C3 C7 1.387 . S
C3 C8 1.491 . S
H4 C5 0.950 . S
C5 C2 1.390 . S
C5 H4 0.950 . S
C5 C6 1.378 . S
C6 C5 1.378 . S
C6 C7 1.409 . S
C7 C3 1.387 . S
C7 C6 1.409 . S
C7 H9 0.951 . S
C8 C3 1.491 . S
C8 C10 1.382 . S
C8 C12 1.404 . S
H9 C7 0.951 . S
C10 C8 1.382 . S
C10 C11 1.390 . S
C10 H15 0.949 . S
C11 C10 1.390 . S
C11 C16 1.399 . S
C12 C8 1.404 . S
C12 H13 0.950 . S
C12 C14 1.375 . S
H13 C12 0.950 . S
C14 C12 1.375 . S
C14 C16 1.382 . S
C14 H18 0.950 . S
H15 C10 0.949 . S
C16 C11 1.399 . S
C16 C14 1.382 . S
C16 H17 0.952 . S
H17 C16 0.952 . S
H18 C14 0.950 . S
H19 C20 0.949 . S
C20 H19 0.949 . S
C20 C21 1.395 . S
C20 C22 1.391 . S
C21 C20 1.395 . S
C21 C24 1.390 . S
C22 C20 1.391 . S
C22 C26 1.387 . S
C22 C27 1.491 . S
H23 C24 0.950 1_455 S
C24 C21 1.390 . S
C24 H23 0.950 1_655 S
C24 C25 1.378 . S
C25 C24 1.378 . S
C25 C26 1.409 . S
C26 C22 1.387 . S
C26 C25 1.409 . S
C26 H28 0.951 . S
C27 C22 1.491 . S
C27 C29 1.382 . S
C27 C31 1.404 . S
H28 C26 0.951 . S
C29 C27 1.382 . S
C29 C30 1.390 . S
C29 H34 0.949 1_655 S
C30 C29 1.390 . S
C30 C35 1.399 . S
C31 C27 1.404 . S
C31 H32 0.950 . S
C31 C33 1.375 . S
H32 C31 0.950 . S
C33 C31 1.375 . S
C33 C35 1.382 . S
C33 H37 0.950 . S
H34 C29 0.949 1_455 S
C35 C30 1.399 . S
C35 C33 1.382 . S
C35 H36 0.952 . S
H36 C35 0.952 . S
H37 C33 0.950 . S
H38 C39 0.949 . S
C39 H38 0.949 . S
C39 C40 1.399 . S
C39 C41 1.391 . S
C40 C39 1.399 . S
C40 C43 1.393 1_565 S
C41 C39 1.391 . S
C41 C45 1.387 . S
C41 C46 1.491 . S
H42 C43 0.953 . S
C43 C40 1.393 1_545 S
C43 H42 0.953 . S
C43 C44 1.376 1_545 S
C44 C43 1.376 1_565 S
C44 C45 1.409 . S
C45 C41 1.387 . S
C45 C44 1.409 . S
C45 H47 0.951 . S
C46 C41 1.491 . S
C46 C48 1.382 . S
C46 C50 1.404 . S
H47 C45 0.951 . S
C48 C46 1.382 . S
C48 C49 1.390 . S
C48 H53 0.949 1_565 S
C49 C48 1.390 . S
C49 C54 1.399 . S
C50 C46 1.404 . S
C50 H51 0.950 . S
C50 C52 1.375 . S
H51 C50 0.950 . S
C52 C50 1.375 . S
C52 C54 1.382 . S
C52 H56 0.950 . S
H53 C48 0.949 1_545 S
C54 C49 1.399 . S
C54 C52 1.382 . S
C54 H55 0.952 . S
H55 C54 0.952 . S
H56 C52 0.950 . S
H57 C58 0.949 . S
C58 H57 0.949 . S
C58 C59 1.395 . S
C58 C60 1.391 . S
C59 C58 1.395 . S
C59 C62 1.390 . S
C60 C58 1.391 . S
C60 C64 1.387 . S
C60 C65 1.491 . S
H61 C62 0.950 . S
C62 C59 1.390 . S
C62 H61 0.950 . S
C62 C63 1.378 . S
C63 C62 1.378 . S
C63 C64 1.409 . S
C64 C60 1.387 . S
C64 C63 1.409 . S
C64 H66 0.951 . S
C65 C60 1.491 . S
C65 C67 1.382 . S
C65 C69 1.404 . S
H66 C64 0.951 . S
C67 C65 1.382 . S
C67 C68 1.390 . S
C67 H72 0.949 . S
C68 C67 1.390 . S
C68 C73 1.399 . S
C69 C65 1.404 . S
C69 H70 0.950 . S
C69 C71 1.375 . S
H70 C69 0.950 . S
C71 C69 1.375 . S
C71 C73 1.382 . S
C71 H75 0.950 . S
H72 C67 0.949 . S
C73 C68 1.399 . S
C73 C71 1.382 . S
C73 H74 0.952 . S
H74 C73 0.952 . S
H75 C71 0.950 . S
H76 C77 0.949 . S
C77 H76 0.949 . S
C77 C78 1.395 . S
C77 C79 1.391 1_554 S
C78 C77 1.395 . S
C78 C81 1.390 1_554 S
C79 C77 1.391 1_556 S
C79 C83 1.387 . S
C79 C84 1.491 . S
H80 C81 0.950 . S
C81 C78 1.390 1_556 S
C81 H80 0.950 . S
C81 C82 1.378 . S
C82 C81 1.378 . S
C82 C83 1.409 . S
C83 C79 1.387 . S
C83 C82 1.409 . S
C83 H85 0.951 . S
C84 C79 1.491 . S
C84 C86 1.382 1_556 S
C84 C88 1.404 . S
H85 C83 0.951 . S
C86 C84 1.382 1_554 S
C86 C87 1.390 . S
C86 H91 0.949 . S
C87 C86 1.390 . S
C87 C92 1.399 1_554 S
C88 C84 1.404 . S
C88 H89 0.950 . S
C88 C90 1.375 . S
H89 C88 0.950 . S
C90 C88 1.375 . S
C90 C92 1.382 . S
C90 H94 0.950 . S
H91 C86 0.949 . S
C92 C87 1.399 1_556 S
C92 C90 1.382 . S
C92 H93 0.952 . S
H93 C92 0.952 . S
H94 C90 0.950 . S
H95 C96 0.949 . S
C96 H95 0.949 . S
C96 C97 1.395 . S
C96 C98 1.391 . S
C97 C96 1.395 . S
C97 C100 1.390 . S
C98 C96 1.391 . S
C98 C102 1.387 . S
C98 C103 1.491 . S
H99 C100 0.950 . S
C100 C97 1.390 . S
C100 H99 0.950 . S
C100 C101 1.378 . S
C101 C100 1.378 . S
C101 C102 1.409 . S
C102 C98 1.387 . S
C102 C101 1.409 . S
C102 H104 0.951 1_554 S
C103 C98 1.491 . S
C103 C105 1.382 . S
C103 C107 1.404 1_455 S
H104 C102 0.951 1_556 S
C105 C103 1.382 . S
C105 C106 1.390 . S
C105 H110 0.949 . S
C106 C105 1.390 . S
C106 C111 1.399 1_455 S
C107 C103 1.404 1_655 S
C107 H108 0.950 . S
C107 C109 1.375 . S
H108 C107 0.950 . S
C109 C107 1.375 . S
C109 C111 1.382 . S
C109 H113 0.950 . S
H110 C105 0.949 . S
C111 C106 1.399 1_655 S
C111 C109 1.382 . S
C111 H112 0.952 . S
H112 C111 0.952 . S
H113 C109 0.950 . S
H114 C115 0.952 . S
C115 H114 0.952 . S
C115 C116 1.390 1_565 S
C115 C117 1.393 . S
C116 C115 1.390 1_545 S
C116 C119 1.390 . S
C117 C115 1.393 . S
C117 C121 1.387 . S
C117 C122 1.491 . S
H118 C119 0.950 . S
C119 C116 1.390 . S
C119 H118 0.950 . S
C119 C120 1.378 . S
C120 C119 1.378 . S
C120 C121 1.409 1_545 S
C121 C117 1.387 . S
C121 C120 1.409 1_565 S
C121 H123 0.951 . S
C122 C117 1.491 . S
C122 C124 1.382 1_565 S
C122 C126 1.404 . S
H123 C121 0.951 . S
C124 C122 1.382 1_545 S
C124 C125 1.390 1_545 S
C124 H129 0.949 . S
C125 C124 1.390 1_565 S
C125 C130 1.399 . S
C126 C122 1.404 . S
C126 H127 0.950 . S
C126 C128 1.375 . S
H127 C126 0.950 . S
C128 C126 1.375 . S
C128 C130 1.382 . S
C128 H132 0.950 . S
H129 C124 0.949 . S
C130 C125 1.399 . S
C130 C128 1.382 . S
C130 H131 0.952 . S
H131 C130 0.952 . S
H132 C128 0.950 . S
H133 C134 0.949 . S
C134 H133 0.949 . S
C134 C135 1.395 . S
C134 C136 1.391 . S
C135 C134 1.395 . S
C135 C138 1.390 . S
C136 C134 1.391 . S
C136 C140 1.387 . S
C136 C141 1.491 . S
H137 C138 0.950 . S
C138 C135 1.390 . S
C138 H137 0.950 . S
C138 C139 1.378 . S
C139 C138 1.378 . S
C139 C140 1.409 . S
C140 C136 1.387 . S
C140 C139 1.409 . S
C140 H142 0.951 . S
C141 C136 1.491 . S
C141 C143 1.382 . S
C141 C145 1.404 . S
H142 C140 0.951 . S
C143 C141 1.382 . S
C143 C144 1.390 . S
C143 H148 0.949 . S
C144 C143 1.390 . S
C144 C149 1.399 . S
C145 C141 1.404 . S
C145 H146 0.950 . S
C145 C147 1.375 . S
H146 C145 0.950 . S
C147 C145 1.375 . S
C147 C149 1.382 . S
C147 H151 0.950 . S
H148 C143 0.949 . S
C149 C144 1.399 . S
C149 C147 1.382 . S
C149 H150 0.952 . S
H150 C149 0.952 . S
H151 C147 0.950 . S
Dy152 O155 2.307 1_545 S
Dy152 O157 2.395 1_655 S
Dy152 O158 2.379 . S
Dy152 O160 2.339 . S
Dy152 O162 2.298 1_655 S
Dy152 O166 2.275 1_655 S
Dy152 C174 2.738 . S
Dy153 O156 2.298 . S
Dy153 O159 2.275 1_455 S
Dy153 O161 2.307 1_565 S
Dy153 O163 2.387 1_455 S
Dy153 O164 2.379 . S
Dy153 O167 2.339 . S
Dy153 C183 2.738 . S
C154 O166 1.254 1_565 S
C154 O167 1.257 . S
O155 Dy152 2.307 1_565 S
O155 C165 1.266 1_655 S
O156 Dy153 2.298 . S
O156 C165 1.236 . S
O157 Dy152 2.395 1_455 S
O157 C174 1.255 1_455 S
O158 Dy152 2.379 . S
O158 C174 1.249 . S
O159 Dy153 2.275 1_655 S
O159 C175 1.254 1_565 S
O160 Dy152 2.339 . S
O160 C175 1.257 . S
O161 Dy153 2.307 1_545 S
O161 C176 1.266 . S
O162 Dy152 2.298 1_455 S
O162 C176 1.236 . S
O163 Dy153 2.387 1_655 S
O163 C183 1.240 1_655 S
O164 Dy153 2.379 . S
O164 C183 1.249 . S
C165 O155 1.266 1_455 S
C165 O156 1.236 . S
O166 Dy152 2.275 1_455 S
O166 C154 1.254 1_545 S
O167 Dy153 2.339 . S
O167 C154 1.257 . S
C168 C171 1.344 1_655 S
C168 C172 1.328 . S
C168 C174 1.516 . S
C169 C170 1.308 . S
C169 C173 1.320 1_455 S
C170 C169 1.308 . S
C170 C171 1.371 . S
C170 H184 0.930 . S
C171 C168 1.344 1_455 S
C171 C170 1.371 . S
C171 H185 0.931 . S
C172 C168 1.328 . S
C172 C173 1.433 . S
C172 H186 0.931 . S
C173 C169 1.320 1_655 S
C173 C172 1.433 . S
C173 H187 0.933 . S
C174 Dy152 2.738 . S
C174 O157 1.255 1_655 S
C174 O158 1.249 . S
C174 C168 1.516 . S
C175 O159 1.254 1_545 S
C175 O160 1.257 . S
C176 O161 1.266 . S
C176 O162 1.236 . S
C177 C180 1.344 1_455 S
C177 C181 1.328 . S
C177 C183 1.516 1_554 S
C178 C179 1.304 1_455 S
C178 C182 1.323 . S
C179 C178 1.304 1_655 S
C179 C180 1.371 . S
C179 H188 0.930 . S
C180 C177 1.344 1_655 S
C180 C179 1.371 . S
C180 H189 0.931 . S
C181 C177 1.328 . S
C181 C182 1.433 . S
C181 H190 0.931 . S
C182 C178 1.323 . S
C182 C181 1.433 . S
C182 H191 0.933 . S
C183 Dy153 2.738 . S
C183 O163 1.240 1_455 S
C183 O164 1.249 . S
C183 C177 1.516 1_556 S
H184 C170 0.930 . S
H185 C171 0.931 . S
H186 C172 0.931 . S
H187 C173 0.933 . S
H188 C179 0.930 . S
H189 C180 0.931 . S
H190 C181 0.931 . S
H191 C182 0.933 . S
Dy192 O195 2.307 . S
Dy192 O197 2.395 1_565 S
Dy192 O198 2.379 . S
Dy192 O200 2.339 . S
Dy192 O202 2.298 . S
Dy192 O206 2.275 1_565 S
Dy192 C214 2.738 . S
Dy193 O196 2.298 . S
Dy193 O199 2.275 1_545 S
Dy193 O201 2.307 . S
Dy193 O203 2.395 1_545 S
Dy193 O204 2.379 . S
Dy193 O207 2.339 . S
Dy193 C223 2.738 . S
C194 O206 1.254 . S
C194 O207 1.257 . S
O195 Dy192 2.307 . S
O195 C205 1.266 . S
O196 Dy193 2.298 . S
O196 C205 1.236 1_545 S
O197 Dy192 2.395 1_545 S
O197 C214 1.255 1_545 S
O198 Dy192 2.379 . S
O198 C214 1.249 . S
O199 Dy193 2.275 1_565 S
O199 C215 1.254 . S
O200 Dy192 2.339 . S
O200 C215 1.257 . S
O201 Dy193 2.307 . S
O201 C216 1.266 . S
O202 Dy192 2.298 . S
O202 C216 1.236 1_565 S
O203 Dy193 2.395 1_565 S
O203 C223 1.255 1_565 S
O204 Dy193 2.379 . S
O204 C223 1.249 . S
C205 O195 1.266 . S
C205 O196 1.236 1_565 S
O206 Dy192 2.275 1_545 S
O206 C194 1.254 . S
O207 Dy193 2.339 . S
O207 C194 1.257 . S
C208 C211 1.344 1_565 S
C208 C212 1.328 . S
C208 C214 1.516 . S
C209 C210 1.304 1_565 S
C209 C213 1.323 . S
C210 C209 1.304 1_545 S
C210 C211 1.371 . S
C210 H224 0.930 . S
C211 C208 1.344 1_545 S
C211 C210 1.371 . S
C211 H225 0.931 . S
C212 C208 1.328 . S
C212 C213 1.433 . S
C212 H226 0.931 . S
C213 C209 1.323 . S
C213 C212 1.433 . S
C213 H227 0.933 . S
C214 Dy192 2.738 . S
C214 O197 1.255 1_565 S
C214 O198 1.249 . S
C214 C208 1.516 . S
C215 O199 1.254 . S
C215 O200 1.257 . S
C216 O201 1.266 . S
C216 O202 1.236 1_545 S
C217 C220 1.344 1_545 S
C217 C221 1.328 . S
C217 C223 1.516 1_554 S
C218 C219 1.304 1_545 S
C218 C222 1.323 . S
C219 C218 1.304 1_565 S
C219 C220 1.371 . S
C219 H228 0.930 . S
C220 C217 1.344 1_565 S
C220 C219 1.371 . S
C220 H229 0.931 1_554 S
C221 C217 1.328 . S
C221 C222 1.433 . S
C221 H230 0.931 . S
C222 C218 1.323 . S
C222 C221 1.433 . S
C222 H231 0.933 . S
C223 Dy193 2.738 . S
C223 O203 1.255 1_545 S
C223 O204 1.249 . S
C223 C217 1.516 1_556 S
H224 C210 0.930 . S
H225 C211 0.931 . S
H226 C212 0.931 . S
H227 C213 0.933 . S
H228 C219 0.930 . S
H229 C220 0.931 1_556 S
H230 C221 0.931 . S
H231 C222 0.933 . S
Dy232 O235 2.307 . S
Dy232 O237 2.395 . S
Dy232 O238 2.379 . S
Dy232 O240 2.339 . S
Dy232 O242 2.298 . S
Dy232 O246 2.275 . S
Dy232 C254 2.738 . S
Dy233 O236 2.298 . S
Dy233 O239 2.275 . S
Dy233 O241 2.307 . S
Dy233 O243 2.395 . S
Dy233 O244 2.379 . S
Dy233 O247 2.339 . S
Dy233 C263 2.738 . S
C234 O246 1.254 . S
C234 O247 1.257 . S
O235 Dy232 2.307 . S
O235 C245 1.266 . S
O236 Dy233 2.298 . S
O236 C245 1.236 . S
O237 Dy232 2.395 . S
O237 C254 1.255 . S
O238 Dy232 2.379 . S
O238 C254 1.249 . S
O239 Dy233 2.275 . S
O239 C255 1.254 . S
O240 Dy232 2.339 . S
O240 C255 1.257 . S
O241 Dy233 2.307 . S
O241 C256 1.266 . S
O242 Dy232 2.298 . S
O242 C256 1.236 . S
O243 Dy233 2.395 . S
O243 C263 1.255 . S
O244 Dy233 2.379 . S
O244 C263 1.249 . S
C245 O235 1.266 . S
C245 O236 1.236 . S
O246 Dy232 2.275 . S
O246 C234 1.254 . S
O247 Dy233 2.339 . S
O247 C234 1.257 . S
C248 C251 1.344 1_556 S
C248 C252 1.328 . S
C248 C254 1.516 . S
C249 C250 1.304 . S
C249 C253 1.323 1_554 S
C250 C249 1.304 . S
C250 C251 1.371 . S
C250 H264 0.930 . S
C251 C248 1.344 1_554 S
C251 C250 1.371 . S
C251 H265 0.931 . S
C252 C248 1.328 . S
C252 C253 1.433 . S
C252 H266 0.931 . S
C253 C249 1.323 1_556 S
C253 C252 1.433 . S
C253 H267 0.933 . S
C254 Dy232 2.738 . S
C254 O237 1.255 . S
C254 O238 1.249 . S
C254 C248 1.516 . S
C255 O239 1.254 . S
C255 O240 1.257 . S
C256 O241 1.266 . S
C256 O242 1.236 . S
C257 C260 1.344 . S
C257 C261 1.328 . S
C257 C263 1.516 . S
C258 C259 1.304 . S
C258 C262 1.323 . S
C259 C258 1.304 . S
C259 C260 1.371 . S
C259 H268 0.930 . S
C260 C257 1.344 . S
C260 C259 1.371 . S
C260 H269 0.931 . S
C261 C257 1.328 . S
C261 C262 1.433 . S
C261 H270 0.931 . S
C262 C258 1.323 . S
C262 C261 1.433 . S
C262 H271 0.933 . S
C263 Dy233 2.738 . S
C263 O243 1.255 . S
C263 O244 1.249 . S
C263 C257 1.516 . S
H264 C250 0.930 . S
H265 C251 0.931 . S
H266 C252 0.931 . S
H267 C253 0.933 . S
H268 C259 0.930 . S
H269 C260 0.931 . S
H270 C261 0.931 . S
H271 C262 0.933 . S
Dy272 O275 2.307 1_455 S
Dy272 O277 2.395 . S
Dy272 O278 2.379 . S
Dy272 O280 2.339 . S
Dy272 O282 2.298 . S
Dy272 O286 2.275 . S
Dy272 C294 2.738 . S
Dy273 O276 2.298 . S
Dy273 O279 2.275 1_655 S
Dy273 O281 2.307 1_655 S
Dy273 O283 2.395 1_556 S
Dy273 O284 2.379 . S
Dy273 O287 2.339 . S
Dy273 C303 2.738 1_556 S
C274 O286 1.254 . S
C274 O287 1.257 1_455 S
O275 Dy272 2.307 1_655 S
O275 C285 1.266 . S
O276 Dy273 2.298 . S
O276 C285 1.236 . S
O277 Dy272 2.395 . S
O277 C294 1.255 . S
O278 Dy272 2.379 . S
O278 C294 1.249 . S
O279 Dy273 2.275 1_455 S
O279 C295 1.254 . S
O280 Dy272 2.339 . S
O280 C295 1.257 . S
O281 Dy273 2.307 1_455 S
O281 C296 1.266 . S
O282 Dy272 2.298 . S
O282 C296 1.236 . S
O283 Dy273 2.395 1_554 S
O283 C303 1.255 . S
O284 Dy273 2.379 . S
O284 C303 1.249 1_556 S
C285 O275 1.266 . S
C285 O276 1.236 . S
O286 Dy272 2.275 . S
O286 C274 1.254 . S
O287 Dy273 2.339 . S
O287 C274 1.257 1_655 S
C288 C291 1.344 . S
C288 C292 1.328 . S
C288 C294 1.516 . S
C289 C290 1.304 . S
C289 C293 1.323 . S
C290 C289 1.304 . S
C290 C291 1.371 . S
C290 H304 0.930 . S
C291 C288 1.344 . S
C291 C290 1.371 . S
C291 H305 0.931 . S
C292 C288 1.328 . S
C292 C293 1.433 . S
C292 H306 0.931 . S
C293 C289 1.323 . S
C293 C292 1.433 . S
C293 H307 0.933 . S
C294 Dy272 2.738 . S
C294 O277 1.255 . S
C294 O278 1.249 . S
C294 C288 1.516 . S
C295 O279 1.254 . S
C295 O280 1.257 . S
C296 O281 1.266 . S
C296 O282 1.236 . S
C297 C300 1.344 . S
C297 C301 1.328 . S
C297 C303 1.516 . S
C298 C299 1.304 . S
C298 C302 1.323 . S
C299 C298 1.304 . S
C299 C300 1.371 . S
C299 H308 0.930 . S
C300 C297 1.344 . S
C300 C299 1.371 . S
C300 H309 0.931 . S
C301 C297 1.328 . S
C301 C302 1.433 . S
C301 H310 0.931 . S
C302 C298 1.323 . S
C302 C301 1.433 . S
C302 H311 0.933 . S
C303 Dy273 2.738 1_554 S
C303 O283 1.255 . S
C303 O284 1.249 1_554 S
C303 C297 1.516 . S
H304 C290 0.930 . S
H305 C291 0.931 . S
H306 C292 0.931 . S
H307 C293 0.933 . S
H308 C299 0.930 . S
H309 C300 0.931 . S
H310 C301 0.931 . S
H311 C302 0.933 . S
H312 C324 0.930 . S
H313 C326 0.930 . S
H314 C327 0.930 . S
H315 C331 0.959 . S
H316 C331 0.959 . S
H317 C331 0.961 . S
H318 C332 0.960 . S
H319 C332 0.961 . S
H320 C332 0.959 . S
H321 C335 0.929 . S
H322 C336 0.931 . S
H323 C338 0.930 . S
C324 H312 0.930 . S
C324 C325 1.399 . S
C324 C329 1.399 . S
C325 C324 1.399 . S
C325 C326 1.376 1_545 S
C326 H313 0.930 . S
C326 C325 1.376 1_565 S
C326 C327 1.388 . S
C327 H314 0.930 . S
C327 C326 1.388 . S
C327 C328 1.390 . S
C328 C327 1.390 . S
C328 C329 1.394 1_565 S
C328 C334 1.465 . S
C329 C324 1.399 . S
C329 C328 1.394 1_545 S
C329 C330 1.516 . S
C330 C329 1.516 . S
C330 C331 1.502 . S
C330 C332 1.561 . S
C330 C333 1.526 . S
C331 H315 0.959 . S
C331 H316 0.959 . S
C331 H317 0.961 . S
C331 C330 1.502 . S
C332 H318 0.960 . S
C332 H319 0.961 . S
C332 H320 0.959 . S
C332 C330 1.561 . S
C333 C330 1.526 . S
C333 C334 1.396 1_545 S
C333 C338 1.390 . S
C334 C328 1.465 . S
C334 C333 1.396 1_565 S
C334 C335 1.399 . S
C335 H321 0.929 . S
C335 C334 1.399 . S
C335 C336 1.385 . S
C336 H322 0.931 . S
C336 C335 1.385 . S
C336 C337 1.389 1_565 S
C337 C336 1.389 1_545 S
C337 C338 1.387 . S
C338 H323 0.930 . S
C338 C333 1.390 . S
C338 C337 1.387 . S
H339 C351 0.930 . S
H340 C353 0.930 . S
H341 C354 0.930 . S
H342 C358 0.959 . S
H343 C358 0.959 . S
H344 C358 0.961 . S
H345 C359 0.960 . S
H346 C359 0.961 . S
H347 C359 0.959 . S
H348 C362 0.929 . S
H349 C363 0.931 . S
H350 C365 0.930 . S
C351 H339 0.930 . S
C351 C352 1.399 . S
C351 C356 1.399 . S
C352 C351 1.399 . S
C352 C353 1.376 . S
C353 H340 0.930 . S
C353 C352 1.376 . S
C353 C354 1.388 . S
C354 H341 0.930 . S
C354 C353 1.388 . S
C354 C355 1.390 . S
C355 C354 1.390 . S
C355 C356 1.394 . S
C355 C361 1.465 . S
C356 C351 1.399 . S
C356 C355 1.394 . S
C356 C357 1.516 . S
C357 C356 1.516 . S
C357 C358 1.502 . S
C357 C359 1.561 . S
C357 C360 1.526 . S
C358 H342 0.959 . S
C358 H343 0.959 . S
C358 H344 0.961 . S
C358 C357 1.502 . S
C359 H345 0.960 . S
C359 H346 0.961 . S
C359 H347 0.959 . S
C359 C357 1.561 . S
C360 C357 1.526 . S
C360 C361 1.396 . S
C360 C365 1.390 . S
C361 C355 1.465 . S
C361 C360 1.396 . S
C361 C362 1.399 . S
C362 H348 0.929 . S
C362 C361 1.399 . S
C362 C363 1.385 . S
C363 H349 0.931 . S
C363 C362 1.385 . S
C363 C364 1.389 . S
C364 C363 1.389 . S
C364 C365 1.387 . S
C365 H350 0.930 . S
C365 C360 1.390 . S
C365 C364 1.387 . S
H366 C378 0.930 . S
H367 C380 0.930 . S
H368 C381 0.930 . S
H369 C385 0.959 . S
H370 C385 0.959 . S
H371 C385 0.961 . S
H372 C386 0.960 . S
H373 C386 0.961 . S
H374 C386 0.959 . S
H375 C389 0.929 . S
H376 C390 0.931 . S
H377 C392 0.930 . S
C378 H366 0.930 . S
C378 C379 1.399 . S
C378 C383 1.399 . S
C379 C378 1.399 . S
C379 C380 1.376 . S
C380 H367 0.930 . S
C380 C379 1.376 . S
C380 C381 1.388 . S
C381 H368 0.930 . S
C381 C380 1.388 . S
C381 C382 1.390 . S
C382 C381 1.390 . S
C382 C383 1.394 . S
C382 C388 1.465 . S
C383 C378 1.399 . S
C383 C382 1.394 . S
C383 C384 1.516 . S
C384 C383 1.516 . S
C384 C385 1.502 . S
C384 C386 1.561 . S
C384 C387 1.526 . S
C385 H369 0.959 . S
C385 H370 0.959 . S
C385 H371 0.961 . S
C385 C384 1.502 . S
C386 H372 0.960 . S
C386 H373 0.961 . S
C386 H374 0.959 . S
C386 C384 1.561 . S
C387 C384 1.526 . S
C387 C388 1.396 . S
C387 C392 1.390 . S
C388 C382 1.465 . S
C388 C387 1.396 . S
C388 C389 1.399 . S
C389 H375 0.929 . S
C389 C388 1.399 . S
C389 C390 1.385 . S
C390 H376 0.931 . S
C390 C389 1.385 . S
C390 C391 1.389 . S
C391 C390 1.389 . S
C391 C392 1.387 . S
C392 H377 0.930 . S
C392 C387 1.390 . S
C392 C391 1.387 . S
H393 C405 0.934 . S
H394 C407 0.930 . S
H395 C408 0.930 . S
H396 C412 0.959 . S
H397 C412 0.959 . S
H398 C412 0.961 . S
H399 C413 0.960 . S
H400 C413 0.961 . S
H401 C413 0.959 . S
H402 C416 0.929 . S
H403 C417 0.931 . S
H404 C419 0.930 1_655 S
C405 H393 0.934 . S
C405 C406 1.399 . S
C405 C410 1.399 . S
C406 C405 1.399 . S
C406 C407 1.376 . S
C407 H394 0.930 . S
C407 C406 1.376 . S
C407 C408 1.388 . S
C408 H395 0.930 . S
C408 C407 1.388 . S
C408 C409 1.390 . S
C409 C408 1.390 . S
C409 C410 1.394 . S
C409 C415 1.465 . S
C410 C405 1.399 . S
C410 C409 1.394 . S
C410 C411 1.516 . S
C411 C410 1.516 . S
C411 C412 1.502 1_455 S
C411 C413 1.561 . S
C411 C414 1.526 . S
C412 H396 0.959 . S
C412 H397 0.959 . S
C412 H398 0.961 . S
C412 C411 1.502 1_655 S
C413 H399 0.960 . S
C413 H400 0.961 . S
C413 H401 0.959 . S
C413 C411 1.561 . S
C414 C411 1.526 . S
C414 C415 1.396 . S
C414 C419 1.390 . S
C415 C409 1.465 . S
C415 C414 1.396 . S
C415 C416 1.399 . S
C416 H402 0.929 . S
C416 C415 1.399 . S
C416 C417 1.385 . S
C417 H403 0.931 . S
C417 C416 1.385 . S
C417 C418 1.389 . S
C418 C417 1.389 . S
C418 C419 1.387 . S
C419 H404 0.930 1_455 S
C419 C414 1.390 . S
C419 C418 1.387 . S
H420 C432 0.930 . S
H421 C434 0.930 . S
H422 C435 0.930 . S
H423 C439 0.959 . S
H424 C439 0.959 . S
H425 C439 0.961 . S
H426 C440 0.960 . S
H427 C440 0.961 . S
H428 C440 0.959 1_556 S
H429 C443 0.929 . S
H430 C444 0.931 . S
H431 C446 0.930 . S
C432 H420 0.930 . S
C432 C433 1.399 1_565 S
C432 C437 1.399 . S
C433 C432 1.399 1_545 S
C433 C434 1.376 . S
C434 H421 0.930 . S
C434 C433 1.376 . S
C434 C435 1.388 . S
C435 H422 0.930 . S
C435 C434 1.388 . S
C435 C436 1.390 . S
C436 C435 1.390 . S
C436 C437 1.394 1_545 S
C436 C442 1.465 . S
C437 C432 1.399 . S
C437 C436 1.394 1_565 S
C437 C438 1.516 . S
C438 C437 1.516 . S
C438 C439 1.502 . S
C438 C440 1.561 . S
C438 C441 1.526 . S
C439 H423 0.959 . S
C439 H424 0.959 . S
C439 H425 0.961 . S
C439 C438 1.502 . S
C440 H426 0.960 . S
C440 H427 0.961 . S
C440 H428 0.959 1_554 S
C440 C438 1.561 . S
C441 C438 1.526 . S
C441 C442 1.396 1_565 S
C441 C446 1.390 1_554 S
C442 C436 1.465 . S
C442 C441 1.396 1_545 S
C442 C443 1.399 1_554 S
C443 H429 0.929 . S
C443 C442 1.399 1_556 S
C443 C444 1.385 . S
C444 H430 0.931 . S
C444 C443 1.385 . S
C444 C445 1.389 . S
C445 C444 1.389 . S
C445 C446 1.387 1_545 S
C446 H431 0.930 . S
C446 C441 1.390 1_556 S
C446 C445 1.387 1_565 S
H447 C459 0.930 . S
H448 C461 0.930 . S
H449 C462 0.930 . S
H450 C466 0.959 . S
H451 C466 0.959 . S
H452 C466 0.961 . S
H453 C467 0.960 . S
H454 C467 0.961 . S
H455 C467 0.959 . S
H456 C470 0.929 . S
H457 C471 0.931 1_554 S
H458 C473 0.930 . S
C459 H447 0.930 . S
C459 C460 1.399 1_556 S
C459 C464 1.399 . S
C460 C459 1.399 1_554 S
C460 C461 1.376 . S
C461 H448 0.930 . S
C461 C460 1.376 . S
C461 C462 1.388 . S
C462 H449 0.930 . S
C462 C461 1.388 . S
C462 C463 1.390 . S
C463 C462 1.390 . S
C463 C464 1.394 1_554 S
C463 C469 1.465 1_554 S
C464 C459 1.399 . S
C464 C463 1.394 1_556 S
C464 C465 1.516 . S
C465 C464 1.516 . S
C465 C466 1.502 . S
C465 C467 1.561 . S
C465 C468 1.526 . S
C466 H450 0.959 . S
C466 H451 0.959 . S
C466 H452 0.961 . S
C466 C465 1.502 . S
C467 H453 0.960 . S
C467 H454 0.961 . S
C467 H455 0.959 . S
C467 C465 1.561 . S
C468 C465 1.526 . S
C468 C469 1.396 . S
C468 C473 1.390 . S
C469 C463 1.465 1_556 S
C469 C468 1.396 . S
C469 C470 1.399 1_556 S
C470 H456 0.929 . S
C470 C469 1.399 1_554 S
C470 C471 1.385 1_554 S
C471 H457 0.931 1_556 S
C471 C470 1.385 1_556 S
C471 C472 1.389 . S
C472 C471 1.389 . S
C472 C473 1.387 . S
C473 H458 0.930 . S
C473 C468 1.390 . S
C473 C472 1.387 . S
H474 C486 0.930 . S
H475 C488 0.930 . S
H476 C489 0.930 . S
H477 C493 0.959 . S
H478 C493 0.959 . S
H479 C493 0.961 . S
H480 C494 0.960 . S
H481 C494 0.961 . S
H482 C494 0.959 . S
H483 C497 0.929 . S
H484 C498 0.931 . S
H485 C500 0.930 . S
C486 H474 0.930 . S
C486 C487 1.399 . S
C486 C491 1.399 . S
C487 C486 1.399 . S
C487 C488 1.376 . S
C488 H475 0.930 . S
C488 C487 1.376 . S
C488 C489 1.388 . S
C489 H476 0.930 . S
C489 C488 1.388 . S
C489 C490 1.390 . S
C490 C489 1.390 . S
C490 C491 1.394 . S
C490 C496 1.465 . S
C491 C486 1.399 . S
C491 C490 1.394 . S
C491 C492 1.516 . S
C492 C491 1.516 . S
C492 C493 1.502 . S
C492 C494 1.561 . S
C492 C495 1.526 . S
C493 H477 0.959 . S
C493 H478 0.959 . S
C493 H479 0.961 . S
C493 C492 1.502 . S
C494 H480 0.960 . S
C494 H481 0.961 . S
C494 H482 0.959 . S
C494 C492 1.561 . S
C495 C492 1.526 . S
C495 C496 1.396 . S
C495 C500 1.390 . S
C496 C490 1.465 . S
C496 C495 1.396 . S
C496 C497 1.399 . S
C497 H483 0.929 . S
C497 C496 1.399 . S
C497 C498 1.385 . S
C498 H484 0.931 . S
C498 C497 1.385 . S
C498 C499 1.389 . S
C499 C498 1.389 . S
C499 C500 1.387 . S
C500 H485 0.930 . S
C500 C495 1.390 . S
C500 C499 1.387 . S
H501 C513 0.930 . S
H502 C515 0.930 . S
H503 C516 0.930 . S
H504 C520 0.959 . S
H505 C520 0.959 . S
H506 C520 0.961 . S
H507 C521 0.960 . S
H508 C521 0.961 . S
H509 C521 0.959 . S
H510 C524 0.929 . S
H511 C525 0.931 . S
H512 C527 0.930 . S
C513 H501 0.930 . S
C513 C514 1.399 1_455 S
C513 C518 1.399 . S
C514 C513 1.399 1_655 S
C514 C515 1.376 . S
C515 H502 0.930 . S
C515 C514 1.376 . S
C515 C516 1.388 . S
C516 H503 0.930 . S
C516 C515 1.388 . S
C516 C517 1.390 . S
C517 C516 1.390 . S
C517 C518 1.394 1_655 S
C517 C523 1.465 . S
C518 C513 1.399 . S
C518 C517 1.394 1_455 S
C518 C519 1.516 . S
C519 C518 1.516 . S
C519 C520 1.502 . S
C519 C521 1.561 . S
C519 C522 1.526 . S
C520 H504 0.959 . S
C520 H505 0.959 . S
C520 H506 0.961 . S
C520 C519 1.502 . S
C521 H507 0.960 . S
C521 H508 0.961 . S
C521 H509 0.959 . S
C521 C519 1.561 . S
C522 C519 1.526 . S
C522 C523 1.396 1_455 S
C522 C527 1.390 1_554 S
C523 C517 1.465 . S
C523 C522 1.396 1_655 S
C523 C524 1.399 . S
C524 H510 0.929 . S
C524 C523 1.399 . S
C524 C525 1.385 1_554 S
C525 H511 0.931 . S
C525 C524 1.385 1_556 S
C525 C526 1.341 1_655 S
C526 C525 1.341 1_455 S
C526 C527 1.433 . S
C527 H512 0.930 . S
C527 C522 1.390 1_556 S
C527 C526 1.433 . S
H528 C540 0.930 . S
H529 C542 0.930 . S
H530 C543 0.930 . S
H531 C547 0.959 . S
H532 C547 0.959 . S
H533 C547 0.961 . S
H534 C548 0.960 . S
H535 C548 0.961 . S
H536 C548 0.959 . S
H537 C551 0.929 . S
H538 C552 0.931 . S
H539 C554 0.930 . S
C540 H528 0.930 . S
C540 C541 1.399 . S
C540 C545 1.399 . S
C541 C540 1.399 . S
C541 C542 1.376 . S
C542 H529 0.930 . S
C542 C541 1.376 . S
C542 C543 1.388 . S
C543 H530 0.930 . S
C543 C542 1.388 . S
C543 C544 1.390 . S
C544 C543 1.390 . S
C544 C545 1.394 . S
C544 C550 1.465 . S
C545 C540 1.399 . S
C545 C544 1.394 . S
C545 C546 1.510 1_455 S
C546 C545 1.510 1_655 S
C546 C547 1.515 . S
C546 C548 1.556 1_655 S
C546 C549 1.523 1_655 S
C547 H531 0.959 . S
C547 H532 0.959 . S
C547 H533 0.961 . S
C547 C546 1.515 . S
C548 H534 0.960 . S
C548 H535 0.961 . S
C548 H536 0.959 . S
C548 C546 1.556 1_455 S
C549 C546 1.523 1_455 S
C549 C550 1.396 . S
C549 C554 1.390 1_455 S
C550 C544 1.465 . S
C550 C549 1.396 . S
C550 C551 1.399 . S
C551 H537 0.929 . S
C551 C550 1.399 . S
C551 C552 1.385 . S
C552 H538 0.931 . S
C552 C551 1.385 . S
C552 C553 1.389 1_455 S
C553 C552 1.389 1_655 S
C553 C554 1.387 . S
C554 H539 0.930 . S
C554 C549 1.390 1_655 S
C554 C553 1.387 . S
H555 C567 0.930 . S
H556 C569 0.930 . S
H557 C570 0.930 . S
H558 C574 0.959 . S
H559 C574 0.959 . S
H560 C574 0.961 . S
H561 C575 0.960 . S
H562 C575 0.961 . S
H563 C575 0.959 . S
H564 C578 0.929 . S
H565 C579 0.931 . S
H566 C581 0.930 . S
C567 H555 0.930 . S
C567 C568 1.399 1_565 S
C567 C572 1.399 . S
C568 C567 1.399 1_545 S
C568 C569 1.376 . S
C569 H556 0.930 . S
C569 C568 1.376 . S
C569 C570 1.388 . S
C570 H557 0.930 . S
C570 C569 1.388 . S
C570 C571 1.390 . S
C571 C570 1.390 . S
C571 C572 1.394 1_545 S
C571 C577 1.465 . S
C572 C567 1.399 . S
C572 C571 1.394 1_565 S
C572 C573 1.516 . S
C573 C572 1.516 . S
C573 C574 1.502 . S
C573 C575 1.561 . S
C573 C576 1.526 . S
C574 H558 0.959 . S
C574 H559 0.959 . S
C574 H560 0.961 . S
C574 C573 1.502 . S
C575 H561 0.960 . S
C575 H562 0.961 . S
C575 H563 0.959 . S
C575 C573 1.561 . S
C576 C573 1.526 . S
C576 C577 1.396 1_565 S
C576 C581 1.390 . S
C577 C571 1.465 . S
C577 C576 1.396 1_545 S
C577 C578 1.399 . S
C578 H564 0.929 . S
C578 C577 1.399 . S
C578 C579 1.385 . S
C579 H565 0.931 . S
C579 C578 1.385 . S
C579 C580 1.389 1_545 S
C580 C579 1.389 1_565 S
C580 C581 1.387 . S
C581 H566 0.930 . S
C581 C576 1.390 . S
C581 C580 1.387 . S
H582 C594 0.930 . S
H583 C596 0.930 . S
H584 C597 0.930 . S
H585 C601 0.959 . S
H586 C601 0.959 . S
H587 C601 0.961 . S
H588 C602 0.960 . S
H589 C602 0.961 . S
H590 C602 0.959 . S
H591 C605 0.929 . S
H592 C606 0.931 . S
H593 C608 0.930 . S
C594 H582 0.930 . S
C594 C595 1.399 . S
C594 C599 1.399 . S
C595 C594 1.399 . S
C595 C596 1.376 . S
C596 H583 0.930 . S
C596 C595 1.376 . S
C596 C597 1.388 . S
C597 H584 0.930 . S
C597 C596 1.388 . S
C597 C598 1.390 . S
C598 C597 1.390 . S
C598 C599 1.394 . S
C598 C604 1.465 . S
C599 C594 1.399 . S
C599 C598 1.394 . S
C599 C600 1.516 . S
C600 C599 1.516 . S
C600 C601 1.502 . S
C600 C602 1.561 . S
C600 C603 1.526 . S
C601 H585 0.959 . S
C601 H586 0.959 . S
C601 H587 0.961 . S
C601 C600 1.502 . S
C602 H588 0.960 . S
C602 H589 0.961 . S
C602 H590 0.959 . S
C602 C600 1.561 . S
C603 C600 1.526 . S
C603 C604 1.396 . S
C603 C608 1.390 . S
C604 C598 1.465 . S
C604 C603 1.396 . S
C604 C605 1.399 . S
C605 H591 0.929 . S
C605 C604 1.399 . S
C605 C606 1.385 . S
C606 H592 0.931 . S
C606 C605 1.385 . S
C606 C607 1.389 . S
C607 C606 1.389 . S
C607 C608 1.387 . S
C608 H593 0.930 . S
C608 C603 1.390 . S
C608 C607 1.387 . S
H609 C621 0.930 . S
H610 C623 0.930 . S
H611 C624 0.930 . S
H612 C628 0.959 . S
H613 C628 0.959 . S
H614 C628 0.961 . S
H615 C629 0.960 . S
H616 C629 0.961 . S
H617 C629 0.959 . S
H618 C632 0.929 . S
H619 C633 0.931 . S
H620 C635 0.930 . S
C621 H609 0.930 . S
C621 C622 1.399 . S
C621 C626 1.399 . S
C622 C621 1.399 . S
C622 C623 1.376 . S
C623 H610 0.930 . S
C623 C622 1.376 . S
C623 C624 1.388 . S
C624 H611 0.930 . S
C624 C623 1.388 . S
C624 C625 1.390 . S
C625 C624 1.390 . S
C625 C626 1.394 . S
C625 C631 1.465 . S
C626 C621 1.399 . S
C626 C625 1.394 . S
C626 C627 1.516 . S
C627 C626 1.516 . S
C627 C628 1.502 . S
C627 C629 1.561 . S
C627 C630 1.526 . S
C628 H612 0.959 . S
C628 H613 0.959 . S
C628 H614 0.961 . S
C628 C627 1.502 . S
C629 H615 0.960 . S
C629 H616 0.961 . S
C629 H617 0.959 . S
C629 C627 1.561 . S
C630 C627 1.526 . S
C630 C631 1.396 . S
C630 C635 1.390 . S
C631 C625 1.465 . S
C631 C630 1.396 . S
C631 C632 1.399 . S
C632 H618 0.929 . S
C632 C631 1.399 . S
C632 C633 1.385 . S
C633 H619 0.931 . S
C633 C632 1.385 . S
C633 C634 1.389 . S
C634 C633 1.389 . S
C634 C635 1.387 . S
C635 H620 0.930 . S
C635 C630 1.390 . S
C635 C634 1.387 . S
H636 C648 0.930 . S
H637 C650 0.930 . S
H638 C651 0.930 . S
H639 C655 0.959 . S
H640 C655 0.959 . S
H641 C655 0.961 . S
H642 C656 0.960 . S
H643 C656 0.961 . S
H644 C656 0.959 1_455 S
H645 C659 0.929 . S
H646 C660 0.931 . S
H647 C662 0.930 1_655 S
C648 H636 0.930 . S
C648 C649 1.399 . S
C648 C653 1.399 . S
C649 C648 1.399 . S
C649 C650 1.376 1_655 S
C650 H637 0.930 . S
C650 C649 1.376 1_455 S
C650 C651 1.388 . S
C651 H638 0.930 . S
C651 C650 1.388 . S
C651 C652 1.390 . S
C652 C651 1.390 . S
C652 C653 1.394 1_455 S
C652 C658 1.465 . S
C653 C648 1.399 . S
C653 C652 1.394 1_655 S
C653 C654 1.516 . S
C654 C653 1.516 . S
C654 C655 1.502 . S
C654 C656 1.561 . S
C654 C657 1.526 1_655 S
C655 H639 0.959 . S
C655 H640 0.959 . S
C655 H641 0.961 . S
C655 C654 1.502 . S
C656 H642 0.960 . S
C656 H643 0.961 . S
C656 H644 0.959 1_655 S
C656 C654 1.561 . S
C657 C654 1.526 1_455 S
C657 C658 1.396 . S
C657 C662 1.390 . S
C658 C652 1.465 . S
C658 C657 1.396 . S
C658 C659 1.399 . S
C659 H645 0.929 . S
C659 C658 1.399 . S
C659 C660 1.385 . S
C660 H646 0.931 . S
C660 C659 1.385 . S
C660 C661 1.389 . S
C661 C660 1.389 . S
C661 C662 1.387 . S
C662 H647 0.930 1_455 S
C662 C657 1.390 . S
C662 C661 1.387 . S
H663 C675 0.930 . S
H664 C677 0.930 . S
H665 C678 0.930 . S
H666 C682 0.959 . S
H667 C682 0.959 . S
H668 C682 0.961 . S
H669 C683 0.960 . S
H670 C683 0.961 . S
H671 C683 0.959 . S
H672 C686 0.929 . S
H673 C687 0.931 . S
H674 C689 0.930 . S
C675 H663 0.930 . S
C675 C676 1.399 1_545 S
C675 C680 1.399 . S
C676 C675 1.399 1_565 S
C676 C677 1.376 . S
C677 H664 0.930 . S
C677 C676 1.376 . S
C677 C678 1.388 . S
C678 H665 0.930 . S
C678 C677 1.388 . S
C678 C679 1.390 . S
C679 C678 1.390 . S
C679 C680 1.394 1_565 S
C679 C685 1.465 . S
C680 C675 1.399 . S
C680 C679 1.394 1_545 S
C680 C681 1.516 . S
C681 C680 1.516 . S
C681 C682 1.502 . S
C681 C683 1.561 . S
C681 C684 1.526 . S
C682 H666 0.959 . S
C682 H667 0.959 . S
C682 H668 0.961 . S
C682 C681 1.502 . S
C683 H669 0.960 . S
C683 H670 0.961 . S
C683 H671 0.959 . S
C683 C681 1.561 . S
C684 C681 1.526 . S
C684 C685 1.396 1_545 S
C684 C689 1.390 . S
C685 C679 1.465 . S
C685 C684 1.396 1_565 S
C685 C686 1.399 . S
C686 H672 0.929 . S
C686 C685 1.399 . S
C686 C687 1.385 . S
C687 H673 0.931 . S
C687 C686 1.385 . S
C687 C688 1.389 1_565 S
C688 C687 1.389 1_545 S
C688 C689 1.387 . S
C689 H674 0.930 . S
C689 C684 1.390 . S
C689 C688 1.387 . S
H690 C702 0.930 . S
H691 C704 0.930 . S
H692 C705 0.930 . S
H693 C709 0.959 . S
H694 C709 0.959 . S
H695 C709 0.961 . S
H696 C710 0.960 . S
H697 C710 0.961 . S
H698 C710 0.959 . S
H699 C713 0.929 . S
H700 C714 0.931 . S
H701 C716 0.930 . S
C702 H690 0.930 . S
C702 C703 1.399 . S
C702 C707 1.399 . S
C703 C702 1.399 . S
C703 C704 1.376 1_554 S
C704 H691 0.930 . S
C704 C703 1.376 1_556 S
C704 C705 1.388 . S
C705 H692 0.930 . S
C705 C704 1.388 . S
C705 C706 1.390 . S
C706 C705 1.390 . S
C706 C707 1.394 1_556 S
C706 C712 1.465 . S
C707 C702 1.399 . S
C707 C706 1.394 1_554 S
C707 C708 1.516 . S
C708 C707 1.516 . S
C708 C709 1.502 . S
C708 C710 1.561 . S
C708 C711 1.526 . S
C709 H693 0.959 . S
C709 H694 0.959 . S
C709 H695 0.961 . S
C709 C708 1.502 . S
C710 H696 0.960 . S
C710 H697 0.961 . S
C710 H698 0.959 . S
C710 C708 1.561 . S
C711 C708 1.526 . S
C711 C712 1.396 1_554 S
C711 C716 1.390 . S
C712 C706 1.465 . S
C712 C711 1.396 1_556 S
C712 C713 1.399 . S
C713 H699 0.929 . S
C713 C712 1.399 . S
C713 C714 1.385 . S
C714 H700 0.931 . S
C714 C713 1.385 . S
C714 C715 1.389 . S
C715 C714 1.389 . S
C715 C716 1.387 1_556 S
C716 H701 0.930 . S
C716 C711 1.390 . S
C716 C715 1.387 1_554 S
H717 C729 0.930 . S
H718 C731 0.930 . S
H719 C732 0.930 . S
H720 C736 0.959 . S
H721 C736 0.959 . S
H722 C736 0.961 . S
H723 C737 0.960 . S
H724 C737 0.961 . S
H725 C737 0.959 . S
H726 C740 0.929 . S
H727 C741 0.931 . S
H728 C743 0.930 . S
C729 H717 0.930 . S
C729 C730 1.399 . S
C729 C734 1.399 . S
C730 C729 1.399 . S
C730 C731 1.376 . S
C731 H718 0.930 . S
C731 C730 1.376 . S
C731 C732 1.388 . S
C732 H719 0.930 . S
C732 C731 1.388 . S
C732 C733 1.390 . S
C733 C732 1.390 . S
C733 C734 1.394 . S
C733 C739 1.465 . S
C734 C729 1.399 . S
C734 C733 1.394 . S
C734 C735 1.516 . S
C735 C734 1.516 . S
C735 C736 1.502 . S
C735 C737 1.561 . S
C735 C738 1.526 . S
C736 H720 0.959 . S
C736 H721 0.959 . S
C736 H722 0.961 . S
C736 C735 1.502 . S
C737 H723 0.960 . S
C737 H724 0.961 . S
C737 H725 0.959 . S
C737 C735 1.561 . S
C738 C735 1.526 . S
C738 C739 1.396 . S
C738 C743 1.390 . S
C739 C733 1.465 . S
C739 C738 1.396 . S
C739 C740 1.399 . S
C740 H726 0.929 . S
C740 C739 1.399 . S
C740 C741 1.385 . S
C741 H727 0.931 . S
C741 C740 1.385 . S
C741 C742 1.389 . S
C742 C741 1.389 . S
C742 C743 1.387 . S
C743 H728 0.930 . S
C743 C738 1.390 . S
C743 C742 1.387 . S
H744 C756 0.930 . S
H745 C758 0.930 . S
H746 C759 0.930 . S
H747 C763 0.959 . S
H748 C763 0.959 . S
H749 C763 0.961 . S
H750 C764 0.960 . S
H751 C764 0.961 . S
H752 C764 0.959 . S
H753 C767 0.929 . S
H754 C768 0.931 1_554 S
H755 C770 0.930 . S
C756 H744 0.930 . S
C756 C757 1.399 . S
C756 C761 1.399 . S
C757 C756 1.399 . S
C757 C758 1.376 1_556 S
C758 H745 0.930 . S
C758 C757 1.376 1_554 S
C758 C759 1.388 . S
C759 H746 0.930 . S
C759 C758 1.388 . S
C759 C760 1.390 1_554 S
C760 C759 1.390 1_556 S
C760 C761 1.394 . S
C760 C766 1.465 . S
C761 C756 1.399 . S
C761 C760 1.394 . S
C761 C762 1.516 . S
C762 C761 1.516 . S
C762 C763 1.502 1_455 S
C762 C764 1.561 . S
C762 C765 1.526 . S
C763 H747 0.959 . S
C763 H748 0.959 . S
C763 H749 0.961 . S
C763 C762 1.502 1_655 S
C764 H750 0.960 . S
C764 H751 0.961 . S
C764 H752 0.959 . S
C764 C762 1.561 . S
C765 C762 1.526 . S
C765 C766 1.396 . S
C765 C770 1.390 . S
C766 C760 1.465 . S
C766 C765 1.396 . S
C766 C767 1.399 1_556 S
C767 H753 0.929 . S
C767 C766 1.399 1_554 S
C767 C768 1.385 1_554 S
C768 H754 0.931 1_556 S
C768 C767 1.385 1_556 S
C768 C769 1.389 . S
C769 C768 1.389 . S
C769 C770 1.387 . S
C770 H755 0.930 . S
C770 C765 1.390 . S
C770 C769 1.387 . S
H771 C783 0.930 . S
H772 C785 0.930 1_556 S
H773 C786 0.930 . S
H774 C790 0.959 1_556 S
H775 C790 0.959 . S
H776 C790 0.961 . S
H777 C791 0.960 . S
H778 C791 0.961 . S
H779 C791 0.959 . S
H780 C794 0.929 . S
H781 C795 0.931 . S
H782 C797 0.930 1_554 S
C783 H771 0.930 . S
C783 C784 1.399 . S
C783 C788 1.399 . S
C784 C783 1.399 . S
C784 C785 1.376 1_545 S
C785 H772 0.930 1_554 S
C785 C784 1.376 1_565 S
C785 C786 1.388 1_554 S
C786 H773 0.930 . S
C786 C785 1.388 1_556 S
C786 C787 1.390 . S
C787 C786 1.390 . S
C787 C788 1.394 1_566 S
C787 C793 1.465 . S
C788 C783 1.399 . S
C788 C787 1.394 1_544 S
C788 C789 1.516 . S
C789 C788 1.516 . S
C789 C790 1.502 . S
C789 C791 1.561 . S
C789 C792 1.523 1_554 S
C790 H774 0.959 1_554 S
C790 H775 0.959 . S
C790 H776 0.961 . S
C790 C789 1.502 . S
C791 H777 0.960 . S
C791 H778 0.961 . S
C791 H779 0.959 . S
C791 C789 1.561 . S
C792 C789 1.523 1_556 S
C792 C793 1.399 1_545 S
C792 C797 1.390 . S
C793 C787 1.465 . S
C793 C792 1.399 1_565 S
C793 C794 1.399 . S
C794 H780 0.929 . S
C794 C793 1.399 . S
C794 C795 1.385 . S
C795 H781 0.931 . S
C795 C794 1.385 . S
C795 C796 1.389 1_565 S
C796 C795 1.389 1_545 S
C796 C797 1.387 . S
C797 H782 0.930 1_556 S
C797 C792 1.390 . S
C797 C796 1.387 . S
H798 C810 0.930 . S
H799 C812 0.930 . S
H800 C813 0.930 . S
H801 C817 0.959 1_554 S
H802 C817 0.959 . S
H803 C817 0.961 . S
H804 C818 0.960 . S
H805 C818 0.961 . S
H806 C818 0.959 . S
H807 C821 0.929 . S
H808 C822 0.931 . S
H809 C824 0.930 . S
C810 H798 0.930 . S
C810 C811 1.399 . S
C810 C815 1.399 . S
C811 C810 1.399 . S
C811 C812 1.376 . S
C812 H799 0.930 . S
C812 C811 1.376 . S
C812 C813 1.388 . S
C813 H800 0.930 . S
C813 C812 1.388 . S
C813 C814 1.390 . S
C814 C813 1.390 . S
C814 C815 1.394 . S
C814 C820 1.465 . S
C815 C810 1.399 . S
C815 C814 1.394 . S
C815 C816 1.516 . S
C816 C815 1.516 . S
C816 C817 1.502 1_554 S
C816 C818 1.561 1_554 S
C816 C819 1.526 . S
C817 H801 0.959 1_556 S
C817 H802 0.959 . S
C817 H803 0.961 . S
C817 C816 1.502 1_556 S
C818 H804 0.960 . S
C818 H805 0.961 . S
C818 H806 0.959 . S
C818 C816 1.561 1_556 S
C819 C816 1.526 . S
C819 C820 1.396 . S
C819 C824 1.390 1_554 S
C820 C814 1.465 . S
C820 C819 1.396 . S
C820 C821 1.399 . S
C821 H807 0.929 . S
C821 C820 1.399 . S
C821 C822 1.385 . S
C822 H808 0.931 . S
C822 C821 1.385 . S
C822 C823 1.389 . S
C823 C822 1.389 . S
C823 C824 1.387 1_554 S
C824 H809 0.930 . S
C824 C819 1.390 1_556 S
C824 C823 1.387 1_556 S
H825 C837 0.930 . S
H826 C839 0.930 . S
H827 C840 0.930 . S
H828 C844 0.959 . S
H829 C844 0.959 . S
H830 C844 0.961 . S
H831 C845 0.960 . S
H832 C845 0.961 . S
H833 C845 0.959 . S
H834 C848 0.929 . S
H835 C849 0.931 . S
H836 C851 0.930 . S
C837 H825 0.930 . S
C837 C838 1.399 . S
C837 C842 1.399 . S
C838 C837 1.399 . S
C838 C839 1.376 . S
C839 H826 0.930 . S
C839 C838 1.376 . S
C839 C840 1.388 . S
C840 H827 0.930 . S
C840 C839 1.388 . S
C840 C841 1.390 . S
C841 C840 1.390 . S
C841 C842 1.394 . S
C841 C847 1.465 . S
C842 C837 1.399 . S
C842 C841 1.394 . S
C842 C843 1.516 . S
C843 C842 1.516 . S
C843 C844 1.502 1_556 S
C843 C845 1.561 . S
C843 C846 1.526 . S
C844 H828 0.959 . S
C844 H829 0.959 . S
C844 H830 0.961 . S
C844 C843 1.502 1_554 S
C845 H831 0.960 . S
C845 H832 0.961 . S
C845 H833 0.959 . S
C845 C843 1.561 . S
C846 C843 1.526 . S
C846 C847 1.396 . S
C846 C851 1.390 . S
C847 C841 1.465 . S
C847 C846 1.396 . S
C847 C848 1.399 . S
C848 H834 0.929 . S
C848 C847 1.399 . S
C848 C849 1.385 . S
C849 H835 0.931 . S
C849 C848 1.385 . S
C849 C850 1.389 . S
C850 C849 1.389 . S
C850 C851 1.387 . S
C851 H836 0.930 . S
C851 C846 1.390 . S
C851 C850 1.387 . S
H852 C864 0.930 . S
H853 C866 0.930 . S
H854 C867 0.930 . S
H855 C871 0.959 . S
H856 C871 0.959 . S
H857 C871 0.961 . S
H858 C872 0.960 . S
H859 C872 0.961 . S
H860 C872 0.959 1_455 S
H861 C875 0.929 . S
H862 C876 0.931 . S
H863 C878 0.930 . S
C864 H852 0.930 . S
C864 C865 1.414 . S
C864 C869 1.399 . S
C865 C864 1.414 . S
C865 C866 1.351 1_655 S
C866 H853 0.930 . S
C866 C865 1.351 1_455 S
C866 C867 1.388 . S
C867 H854 0.930 . S
C867 C866 1.388 . S
C867 C868 1.390 . S
C868 C867 1.390 . S
C868 C869 1.394 1_455 S
C868 C874 1.465 . S
C869 C864 1.399 . S
C869 C868 1.394 1_655 S
C869 C870 1.516 . S
C870 C869 1.516 . S
C870 C871 1.502 . S
C870 C872 1.561 . S
C870 C873 1.526 . S
C871 H855 0.959 . S
C871 H856 0.959 . S
C871 H857 0.961 . S
C871 C870 1.502 . S
C872 H858 0.960 . S
C872 H859 0.961 . S
C872 H860 0.959 1_655 S
C872 C870 1.561 . S
C873 C870 1.526 . S
C873 C874 1.396 1_655 S
C873 C878 1.390 . S
C874 C868 1.465 . S
C874 C873 1.396 1_455 S
C874 C875 1.399 . S
C875 H861 0.929 . S
C875 C874 1.399 . S
C875 C876 1.385 . S
C876 H862 0.931 . S
C876 C875 1.385 . S
C876 C877 1.410 . S
C877 C876 1.410 . S
C877 C878 1.369 1_455 S
C878 H863 0.930 . S
C878 C873 1.390 . S
C878 C877 1.369 1_655 S
H879 C891 0.930 . S
H880 C893 0.930 . S
H881 C894 0.930 . S
H882 C898 0.959 . S
H883 C898 0.959 . S
H884 C898 0.961 . S
H885 C899 0.960 . S
H886 C899 0.961 . S
H887 C899 0.959 . S
H888 C902 0.929 . S
H889 C903 0.931 . S
H890 C905 0.930 . S
C891 H879 0.930 . S
C891 C892 1.399 1_545 S
C891 C896 1.399 . S
C892 C891 1.399 1_565 S
C892 C893 1.376 . S
C893 H880 0.930 . S
C893 C892 1.376 . S
C893 C894 1.388 . S
C894 H881 0.930 . S
C894 C893 1.388 . S
C894 C895 1.390 . S
C895 C894 1.390 . S
C895 C896 1.394 1_565 S
C895 C901 1.465 . S
C896 C891 1.399 . S
C896 C895 1.394 1_545 S
C896 C897 1.516 . S
C897 C896 1.516 . S
C897 C898 1.502 . S
C897 C899 1.561 . S
C897 C900 1.526 . S
C898 H882 0.959 . S
C898 H883 0.959 . S
C898 H884 0.961 . S
C898 C897 1.502 . S
C899 H885 0.960 . S
C899 H886 0.961 . S
C899 H887 0.959 . S
C899 C897 1.561 . S
C900 C897 1.526 . S
C900 C901 1.396 1_545 S
C900 C905 1.390 . S
C901 C895 1.465 . S
C901 C900 1.396 1_565 S
C901 C902 1.399 . S
C902 H888 0.929 . S
C902 C901 1.399 . S
C902 C903 1.385 . S
C903 H889 0.931 . S
C903 C902 1.385 . S
C903 C904 1.389 . S
C904 C903 1.389 . S
C904 C905 1.387 1_565 S
C905 H890 0.930 . S
C905 C900 1.390 . S
C905 C904 1.387 1_545 S
H906 C918 0.930 . S
H907 C920 0.930 . S
H908 C921 0.930 . S
H909 C925 0.959 . S
H910 C925 0.959 . S
H911 C925 0.961 . S
H912 C926 0.960 . S
H913 C926 0.961 . S
H914 C926 0.959 . S
H915 C929 0.929 . S
H916 C930 0.931 . S
H917 C932 0.930 . S
C918 H906 0.930 . S
C918 C919 1.399 . S
C918 C923 1.399 . S
C919 C918 1.399 . S
C919 C920 1.376 . S
C920 H907 0.930 . S
C920 C919 1.376 . S
C920 C921 1.388 . S
C921 H908 0.930 . S
C921 C920 1.388 . S
C921 C922 1.390 . S
C922 C921 1.390 . S
C922 C923 1.394 . S
C922 C928 1.465 . S
C923 C918 1.399 . S
C923 C922 1.394 . S
C923 C924 1.516 . S
C924 C923 1.516 . S
C924 C925 1.502 . S
C924 C926 1.561 . S
C924 C927 1.526 . S
C925 H909 0.959 . S
C925 H910 0.959 . S
C925 H911 0.961 . S
C925 C924 1.502 . S
C926 H912 0.960 . S
C926 H913 0.961 . S
C926 H914 0.959 . S
C926 C924 1.561 . S
C927 C924 1.526 . S
C927 C928 1.396 . S
C927 C932 1.390 . S
C928 C922 1.465 . S
C928 C927 1.396 . S
C928 C929 1.399 . S
C929 H915 0.929 . S
C929 C928 1.399 . S
C929 C930 1.385 . S
C930 H916 0.931 . S
C930 C929 1.385 . S
C930 C931 1.389 . S
C931 C930 1.389 . S
C931 C932 1.387 . S
C932 H917 0.930 . S
C932 C927 1.390 . S
C932 C931 1.387 . S
H933 C945 0.930 . S
H934 C947 0.930 . S
H935 C948 0.930 . S
H936 C952 0.959 . S
H937 C952 0.959 . S
H938 C952 0.961 . S
H939 C953 0.960 . S
H940 C953 0.961 . S
H941 C953 0.959 . S
H942 C956 0.929 . S
H943 C957 0.931 . S
H944 C959 0.930 . S
C945 H933 0.930 . S
C945 C946 1.399 . S
C945 C950 1.399 . S
C946 C945 1.399 . S
C946 C947 1.376 . S
C947 H934 0.930 . S
C947 C946 1.376 . S
C947 C948 1.388 . S
C948 H935 0.930 . S
C948 C947 1.388 . S
C948 C949 1.390 . S
C949 C948 1.390 . S
C949 C950 1.394 . S
C949 C955 1.465 . S
C950 C945 1.399 . S
C950 C949 1.394 . S
C950 C951 1.516 . S
C951 C950 1.516 . S
C951 C952 1.502 . S
C951 C953 1.561 . S
C951 C954 1.526 . S
C952 H936 0.959 . S
C952 H937 0.959 . S
C952 H938 0.961 . S
C952 C951 1.502 . S
C953 H939 0.960 . S
C953 H940 0.961 . S
C953 H941 0.959 . S
C953 C951 1.561 . S
C954 C951 1.526 . S
C954 C955 1.396 . S
C954 C959 1.390 . S
C955 C949 1.465 . S
C955 C954 1.396 . S
C955 C956 1.399 . S
C956 H942 0.929 . S
C956 C955 1.399 . S
C956 C957 1.385 . S
C957 H943 0.931 . S
C957 C956 1.385 . S
C957 C958 1.389 . S
C958 C957 1.389 . S
C958 C959 1.387 . S
C959 H944 0.930 . S
C959 C954 1.390 . S
C959 C958 1.387 . S
C325 C125 1.980 1_545 S
C337 C154 2.047 1_545 S
C364 C194 2.062 . S
C352 C144 1.958 . S
C391 C258 1.892 . S
C379 C87 1.880 . S
C418 C274 1.638 . S
C406 C106 1.628 . S
C445 C175 2.037 . S
C433 C49 2.029 1_545 S
C460 C68 2.030 . S
C472 C215 2.075 . S
C487 C11 1.911 . S
C499 C249 1.854 . S
C514 C30 1.593 . S
C526 C295 1.653 . S
C553 C169 0.404 1_655 S
C541 C97 0.591 . S
C580 C209 0.774 . S
C568 C116 0.767 . S
C607 C245 0.773 . S
C595 C135 0.914 . S
C622 C78 0.586 . S
C634 C289 0.707 . S
C649 C21 0.473 . S
C661 C178 0.539 . S
C688 C218 0.759 . S
C676 C40 0.852 . S
C715 C256 0.773 . S
C703 C59 0.921 . S
C730 C2 0.514 . S
C742 C298 0.717 . S
C757 C101 1.796 1_556 S
C769 C176 2.033 . S
C784 C120 1.909 . S
C796 C216 2.026 . S
C823 C234 1.609 1_554 S
C811 C139 1.567 . S
C850 C296 2.463 . S
C838 C82 2.275 . S
C865 C25 1.824 . S
C877 C165 2.029 . S
C904 C205 2.060 . S
C892 C44 1.871 . S
C931 C255 1.592 . S
C919 C63 1.610 . S
C946 C6 2.223 . S
C958 C285 2.452 . S
