# Generated by pormake.
# Topology ptr, (4,4)-cn, num edge types: 1
# Building blocks:
#     Node 0, Type 0, BuildingBlock: TATPOV_clean_sbu_0, # of connection points: 4
#     Node 1, Type 0, BuildingBlock: TATPOV_clean_sbu_0, # of connection points: 4
#     Node 2, Type 0, BuildingBlock: TATPOV_clean_sbu_0, # of connection points: 4
#     Node 3, Type 0, BuildingBlock: TATPOV_clean_sbu_0, # of connection points: 4
#     Node 4, Type 0, BuildingBlock: TATPOV_clean_sbu_0, # of connection points: 4
#     Node 5, Type 0, BuildingBlock: TATPOV_clean_sbu_0, # of connection points: 4
#     Node 6, Type 0, BuildingBlock: TATPOV_clean_sbu_0, # of connection points: 4
#     Node 7, Type 0, BuildingBlock: TATPOV_clean_sbu_0, # of connection points: 4
#     Node 8, Type 0, BuildingBlock: TATPOV_clean_sbu_0, # of connection points: 4
#     Node 9, Type 0, BuildingBlock: TATPOV_clean_sbu_0, # of connection points: 4
#     Node 10, Type 0, BuildingBlock: TATPOV_clean_sbu_0, # of connection points: 4
#     Node 11, Type 0, BuildingBlock: TATPOV_clean_sbu_0, # of connection points: 4
#     Node 12, Type 0, BuildingBlock: TATPOV_clean_sbu_0, # of connection points: 4
#     Node 13, Type 0, BuildingBlock: TATPOV_clean_sbu_0, # of connection points: 4
#     Node 14, Type 0, BuildingBlock: TATPOV_clean_sbu_0, # of connection points: 4
#     Node 15, Type 0, BuildingBlock: TATPOV_clean_sbu_0, # of connection points: 4
#     Node 16, Type 0, BuildingBlock: TATPOV_clean_sbu_0, # of connection points: 4
#     Node 17, Type 0, BuildingBlock: TATPOV_clean_sbu_0, # of connection points: 4
#     Node 18, Type 1, BuildingBlock: NAHDIM_clean_linker_0, # of connection points: 4
#     Node 19, Type 1, BuildingBlock: NAHDIM_clean_linker_0, # of connection points: 4
#     Node 20, Type 1, BuildingBlock: NAHDIM_clean_linker_0, # of connection points: 4
#     Node 21, Type 1, BuildingBlock: NAHDIM_clean_linker_0, # of connection points: 4
#     Node 22, Type 1, BuildingBlock: NAHDIM_clean_linker_0, # of connection points: 4
#     Node 23, Type 1, BuildingBlock: NAHDIM_clean_linker_0, # of connection points: 4
#     Node 24, Type 1, BuildingBlock: NAHDIM_clean_linker_0, # of connection points: 4
#     Node 25, Type 1, BuildingBlock: NAHDIM_clean_linker_0, # of connection points: 4
#     Node 26, Type 1, BuildingBlock: NAHDIM_clean_linker_0, # of connection points: 4
#     Node 27, Type 1, BuildingBlock: NAHDIM_clean_linker_0, # of connection points: 4
#     Node 28, Type 1, BuildingBlock: NAHDIM_clean_linker_0, # of connection points: 4
#     Node 29, Type 1, BuildingBlock: NAHDIM_clean_linker_0, # of connection points: 4
#     Node 30, Type 1, BuildingBlock: NAHDIM_clean_linker_0, # of connection points: 4
#     Node 31, Type 1, BuildingBlock: NAHDIM_clean_linker_0, # of connection points: 4
#     Node 32, Type 1, BuildingBlock: NAHDIM_clean_linker_0, # of connection points: 4
#     Node 33, Type 1, BuildingBlock: NAHDIM_clean_linker_0, # of connection points: 4
#     Node 34, Type 1, BuildingBlock: NAHDIM_clean_linker_0, # of connection points: 4
#     Node 35, Type 1, BuildingBlock: NAHDIM_clean_linker_0, # of connection points: 4
#     Edge 36, Type (0, 1), BuildingBlock: MIFKUJ_clean_linker_0, # of connection points: 2
#     Edge 37, Type (0, 1), BuildingBlock: MIFKUJ_clean_linker_0, # of connection points: 2
#     Edge 38, Type (0, 1), BuildingBlock: MIFKUJ_clean_linker_0, # of connection points: 2
#     Edge 39, Type (0, 1), BuildingBlock: MIFKUJ_clean_linker_0, # of connection points: 2
#     Edge 40, Type (0, 1), BuildingBlock: MIFKUJ_clean_linker_0, # of connection points: 2
#     Edge 41, Type (0, 1), BuildingBlock: MIFKUJ_clean_linker_0, # of connection points: 2
#     Edge 42, Type (0, 1), BuildingBlock: MIFKUJ_clean_linker_0, # of connection points: 2
#     Edge 43, Type (0, 1), BuildingBlock: MIFKUJ_clean_linker_0, # of connection points: 2
#     Edge 44, Type (0, 1), BuildingBlock: MIFKUJ_clean_linker_0, # of connection points: 2
#     Edge 45, Type (0, 1), BuildingBlock: MIFKUJ_clean_linker_0, # of connection points: 2
#     Edge 46, Type (0, 1), BuildingBlock: MIFKUJ_clean_linker_0, # of connection points: 2
#     Edge 47, Type (0, 1), BuildingBlock: MIFKUJ_clean_linker_0, # of connection points: 2
#     Edge 48, Type (0, 1), BuildingBlock: MIFKUJ_clean_linker_0, # of connection points: 2
#     Edge 49, Type (0, 1), BuildingBlock: MIFKUJ_clean_linker_0, # of connection points: 2
#     Edge 50, Type (0, 1), BuildingBlock: MIFKUJ_clean_linker_0, # of connection points: 2
#     Edge 51, Type (0, 1), BuildingBlock: MIFKUJ_clean_linker_0, # of connection points: 2
#     Edge 52, Type (0, 1), BuildingBlock: MIFKUJ_clean_linker_0, # of connection points: 2
#     Edge 53, Type (0, 1), BuildingBlock: MIFKUJ_clean_linker_0, # of connection points: 2
#     Edge 54, Type (0, 1), BuildingBlock: MIFKUJ_clean_linker_0, # of connection points: 2
#     Edge 55, Type (0, 1), BuildingBlock: MIFKUJ_clean_linker_0, # of connection points: 2
#     Edge 56, Type (0, 1), BuildingBlock: MIFKUJ_clean_linker_0, # of connection points: 2
#     Edge 57, Type (0, 1), BuildingBlock: MIFKUJ_clean_linker_0, # of connection points: 2
#     Edge 58, Type (0, 1), BuildingBlock: MIFKUJ_clean_linker_0, # of connection points: 2
#     Edge 59, Type (0, 1), BuildingBlock: MIFKUJ_clean_linker_0, # of connection points: 2
#     Edge 60, Type (0, 1), BuildingBlock: MIFKUJ_clean_linker_0, # of connection points: 2
#     Edge 61, Type (0, 1), BuildingBlock: MIFKUJ_clean_linker_0, # of connection points: 2
#     Edge 62, Type (0, 1), BuildingBlock: MIFKUJ_clean_linker_0, # of connection points: 2
#     Edge 63, Type (0, 1), BuildingBlock: MIFKUJ_clean_linker_0, # of connection points: 2
#     Edge 64, Type (0, 1), BuildingBlock: MIFKUJ_clean_linker_0, # of connection points: 2
#     Edge 65, Type (0, 1), BuildingBlock: MIFKUJ_clean_linker_0, # of connection points: 2
#     Edge 66, Type (0, 1), BuildingBlock: MIFKUJ_clean_linker_0, # of connection points: 2
#     Edge 67, Type (0, 1), BuildingBlock: MIFKUJ_clean_linker_0, # of connection points: 2
#     Edge 68, Type (0, 1), BuildingBlock: MIFKUJ_clean_linker_0, # of connection points: 2
#     Edge 69, Type (0, 1), BuildingBlock: MIFKUJ_clean_linker_0, # of connection points: 2
#     Edge 70, Type (0, 1), BuildingBlock: MIFKUJ_clean_linker_0, # of connection points: 2
#     Edge 71, Type (0, 1), BuildingBlock: MIFKUJ_clean_linker_0, # of connection points: 2
#     Edge 72, Type (0, 1), BuildingBlock: MIFKUJ_clean_linker_0, # of connection points: 2
#     Edge 73, Type (0, 1), BuildingBlock: MIFKUJ_clean_linker_0, # of connection points: 2
#     Edge 74, Type (0, 1), BuildingBlock: MIFKUJ_clean_linker_0, # of connection points: 2
#     Edge 75, Type (0, 1), BuildingBlock: MIFKUJ_clean_linker_0, # of connection points: 2
#     Edge 76, Type (0, 1), BuildingBlock: MIFKUJ_clean_linker_0, # of connection points: 2
#     Edge 77, Type (0, 1), BuildingBlock: MIFKUJ_clean_linker_0, # of connection points: 2
#     Edge 78, Type (0, 1), BuildingBlock: MIFKUJ_clean_linker_0, # of connection points: 2
#     Edge 79, Type (0, 1), BuildingBlock: MIFKUJ_clean_linker_0, # of connection points: 2
#     Edge 80, Type (0, 1), BuildingBlock: MIFKUJ_clean_linker_0, # of connection points: 2
#     Edge 81, Type (0, 1), BuildingBlock: MIFKUJ_clean_linker_0, # of connection points: 2
#     Edge 82, Type (0, 1), BuildingBlock: MIFKUJ_clean_linker_0, # of connection points: 2
#     Edge 83, Type (0, 1), BuildingBlock: MIFKUJ_clean_linker_0, # of connection points: 2
#     Edge 84, Type (0, 1), BuildingBlock: MIFKUJ_clean_linker_0, # of connection points: 2
#     Edge 85, Type (0, 1), BuildingBlock: MIFKUJ_clean_linker_0, # of connection points: 2
#     Edge 86, Type (0, 1), BuildingBlock: MIFKUJ_clean_linker_0, # of connection points: 2
#     Edge 87, Type (0, 1), BuildingBlock: MIFKUJ_clean_linker_0, # of connection points: 2
#     Edge 88, Type (0, 1), BuildingBlock: MIFKUJ_clean_linker_0, # of connection points: 2
#     Edge 89, Type (0, 1), BuildingBlock: MIFKUJ_clean_linker_0, # of connection points: 2
#     Edge 90, Type (0, 1), BuildingBlock: MIFKUJ_clean_linker_0, # of connection points: 2
#     Edge 91, Type (0, 1), BuildingBlock: MIFKUJ_clean_linker_0, # of connection points: 2
#     Edge 92, Type (0, 1), BuildingBlock: MIFKUJ_clean_linker_0, # of connection points: 2
#     Edge 93, Type (0, 1), BuildingBlock: MIFKUJ_clean_linker_0, # of connection points: 2
#     Edge 94, Type (0, 1), BuildingBlock: MIFKUJ_clean_linker_0, # of connection points: 2
#     Edge 95, Type (0, 1), BuildingBlock: MIFKUJ_clean_linker_0, # of connection points: 2
#     Edge 96, Type (0, 1), BuildingBlock: MIFKUJ_clean_linker_0, # of connection points: 2
#     Edge 97, Type (0, 1), BuildingBlock: MIFKUJ_clean_linker_0, # of connection points: 2
#     Edge 98, Type (0, 1), BuildingBlock: MIFKUJ_clean_linker_0, # of connection points: 2
#     Edge 99, Type (0, 1), BuildingBlock: MIFKUJ_clean_linker_0, # of connection points: 2
#     Edge 100, Type (0, 1), BuildingBlock: MIFKUJ_clean_linker_0, # of connection points: 2
#     Edge 101, Type (0, 1), BuildingBlock: MIFKUJ_clean_linker_0, # of connection points: 2
#     Edge 102, Type (0, 1), BuildingBlock: MIFKUJ_clean_linker_0, # of connection points: 2
#     Edge 103, Type (0, 1), BuildingBlock: MIFKUJ_clean_linker_0, # of connection points: 2
#     Edge 104, Type (0, 1), BuildingBlock: MIFKUJ_clean_linker_0, # of connection points: 2
#     Edge 105, Type (0, 1), BuildingBlock: MIFKUJ_clean_linker_0, # of connection points: 2
#     Edge 106, Type (0, 1), BuildingBlock: MIFKUJ_clean_linker_0, # of connection points: 2
#     Edge 107, Type (0, 1), BuildingBlock: MIFKUJ_clean_linker_0, # of connection points: 2
# Relax obj value: 0.076
# Max RMSD: 0.284
# Mean RMSD: 0.115
data_MOF--net-ptr--node1-TATPOV_clean_sbu_0--node2-NAHDIM_clean_linker_0--edge1-MIFKUJ_clean_linker_0
_symmetry_space_group_name_H-M    P1
_symmetry_Int_Tables_number       1
_symmetry_cell_setting            triclinic
loop_
_symmetry_equiv_pos_as_xyz
'x, y, z'
_cell_length_a     114.19377
_cell_length_b     115.56052
_cell_length_c     96.674978
_cell_angle_alpha  90.501832
_cell_angle_beta   90.873704
_cell_angle_gamma 121.65582
loop_
_atom_site_label
_atom_site_type_symbol
_atom_site_fract_x
_atom_site_fract_y
_atom_site_fract_z
_atom_type_partial_charge
Zn0 Zn 0.97404 0.3404 0.00597 0.0
Zn1 Zn 0.99686 0.3406 0.01254 0.0
O2 O 0.98258 0.32128 0.00511 0.0
O3 O 0.96312 0.32046 0.00141 0.0
O4 O 0.01198 0.33773 0.01914 0.0
O5 O 0.97377 0.34791 0.0247 0.0
O6 O 0.99265 0.34806 0.03003 0.0
C7 C 0.96994 0.31468 0.00125 0.0
C8 C 0.99792 0.358 0.98909 0.0
O9 O 0.00461 0.35461 0.99701 0.0
O10 O 0.98519 0.35317 0.9908 0.0
C11 C 0.02309 0.34637 0.02546 0.0
O12 O 0.02588 0.35883 0.02747 0.0
C13 C 0.98338 0.35054 0.03328 0.0
Zn14 Zn 0.65611 0.63574 0.00455 0.0
Zn15 Zn 0.6565 0.65598 0.01904 0.0
O16 O 0.67582 0.66424 0.01111 0.0
O17 O 0.67655 0.6472 0.0018 0.0
O18 O 0.65857 0.6717 0.03029 0.0
O19 O 0.64866 0.62374 0.02122 0.0
O20 O 0.65082 0.64104 0.03328 0.0
C21 C 0.68245 0.65968 0.00507 0.0
C22 C 0.63785 0.64419 0.99375 0.0
O23 O 0.64137 0.6516 0.00466 0.0
O24 O 0.64314 0.63717 0.99106 0.0
C25 C 0.66529 0.68352 0.02526 0.0
O26 O 0.66979 0.68494 0.01259 0.0
C27 C 0.64773 0.62873 0.03257 0.0
Zn28 Zn 0.34326 0.98156 0.00591 0.0
Zn29 Zn 0.34546 0.00551 0.00206 0.0
O30 O 0.3258 0.99265 0.00894 0.0
O31 O 0.32357 0.97273 0.01168 0.0
O32 O 0.3447 0.02178 0.99594 0.0
O33 O 0.34796 0.97993 0.98642 0.0
O34 O 0.35184 0.00058 0.98425 0.0
C35 C 0.31857 0.98023 0.01232 0.0
C36 C 0.36415 0.00465 0.02338 0.0
O37 O 0.35982 0.01172 0.01783 0.0
O38 O 0.35895 0.99226 0.01984 0.0
C39 C 0.33753 0.02559 0.00218 0.0
O40 O 0.33158 0.01967 0.01373 0.0
C41 C 0.35215 0.99048 0.97931 0.0
Zn42 Zn 0.02708 0.66467 0.02161 0.0
Zn43 Zn 0.00269 0.66141 0.01395 0.0
O44 O 0.01487 0.6812 0.02122 0.0
O45 O 0.03544 0.68468 0.02555 0.0
O46 O 0.98642 0.66156 0.00578 0.0
O47 O 0.02876 0.65768 0.00289 0.0
O48 O 0.00886 0.65523 0.99714 0.0
C49 C 0.02737 0.68907 0.02516 0.0
C50 C 0.00315 0.64499 0.03762 0.0
O51 O 0.99591 0.6473 0.02925 0.0
O52 O 0.01614 0.65127 0.03667 0.0
C53 C 0.98072 0.66713 0.01174 0.0
O54 O 0.9845 0.67178 0.02451 0.0
C55 C 0.01903 0.65409 0.99413 0.0
Zn56 Zn 0.34489 0.37369 0.01746 0.0
Zn57 Zn 0.34427 0.35193 0.00602 0.0
O58 O 0.32543 0.34525 0.01465 0.0
O59 O 0.32475 0.36292 0.02214 0.0
O60 O 0.34109 0.33465 0.99669 0.0
O61 O 0.3512 0.38341 -0.00046 0.0
O62 O 0.3503 0.36558 0.98998 0.0
C63 C 0.31897 0.35023 0.02022 0.0
C64 C 0.36421 0.36709 0.02992 0.0
O65 O 0.35958 0.35761 0.02076 0.0
O66 O 0.35936 0.37475 0.03069 0.0
C67 C 0.33301 0.32321 0.0021 0.0
O68 O 0.32782 0.32291 0.01422 0.0
C69 C 0.35286 0.37771 0.98917 0.0
Zn70 Zn 0.66082 0.02702 0.00838 0.0
Zn71 Zn 0.65892 0.00388 0.01573 0.0
O72 O 0.67905 0.01751 0.01039 0.0
O73 O 0.68135 0.03733 0.00675 0.0
O74 O 0.66027 0.98822 0.02296 0.0
O75 O 0.65158 0.02717 0.02586 0.0
O76 O 0.65098 0.00864 0.03226 0.0
C77 C 0.68656 0.03003 0.00738 0.0
C78 C 0.64333 0.00365 0.99018 0.0
O79 O 0.64543 0.99672 -0.00104 0.0
O80 O 0.64912 0.01642 0.99171 0.0
C81 C 0.66844 0.98523 0.01749 0.0
O82 O 0.67485 0.99148 0.00623 0.0
C83 C 0.64836 0.01792 0.03458 0.0
Zn84 Zn 0.64445 0.68327 0.33388 0.0
Zn85 Zn 0.66559 0.68245 0.34444 0.0
O86 O 0.65296 0.66377 0.33435 0.0
O87 O 0.63557 0.66461 0.32554 0.0
O88 O 0.68016 0.67987 0.3537 0.0
O89 O 0.63885 0.68586 0.35258 0.0
O90 O 0.65758 0.68732 0.36116 0.0
C91 C 0.64165 0.65822 0.3274 0.0
C92 C 0.67097 0.7038 0.32314 0.0
O93 O 0.67578 0.69826 0.33083 0.0
O94 O 0.6582 0.6994 0.323 0.0
C95 C 0.67588 0.66848 0.35939 0.0
O96 O 0.66263 0.65936 0.35896 0.0
C97 C 0.64681 0.68787 0.36278 0.0
Zn98 Zn 0.3141 0.96103 0.34627 0.0
Zn99 Zn 0.31601 0.98289 0.35731 0.0
O100 O 0.33534 0.98953 0.34992 0.0
O101 O 0.33454 0.97062 0.34435 0.0
O102 O 0.31915 -8e-05 0.36676 0.0
O103 O 0.30541 0.9502 0.3631 0.0
O104 O 0.30915 0.96903 0.37316 0.0
C105 C 0.34127 0.98342 0.34581 0.0
C106 C 0.29794 0.96985 0.33163 0.0
O107 O 0.30165 0.97835 0.3417 0.0
O108 O 0.30236 0.96185 0.33095 0.0
C109 C 0.32326 0.01067 0.3599 0.0
O110 O 0.32448 0.0102 0.34644 0.0
C111 C 0.30498 0.95642 0.37372 0.0
Zn112 Zn 0.02352 0.31403 0.35513 0.0
Zn113 Zn 0.02233 0.33416 0.34254 0.0
O114 O 0.00287 0.32214 0.35044 0.0
O115 O 0.00356 0.30524 0.35993 0.0
O116 O 0.02179 0.34923 0.33256 0.0
O117 O 0.02943 0.30958 0.33728 0.0
O118 O 0.02736 0.32536 0.32697 0.0
C119 C 0.99702 0.31102 0.35701 0.0
C120 C 0.04225 0.34042 0.36723 0.0
O121 O 0.03762 0.34448 0.35756 0.0
O122 O 0.03771 0.32787 0.36851 0.0
C123 C 0.01075 0.3481 0.3279 0.0
O124 O -0.00105 0.33673 0.3297 0.0
C125 C 0.0301 0.316 0.32647 0.0
Zn126 Zn 0.69187 0.98191 0.36249 0.0
Zn127 Zn 0.66959 0.97987 0.34977 0.0
O128 O 0.68001 -0.00076 0.35835 0.0
O129 O 0.69849 0.00127 0.3683 0.0
O130 O 0.6541 0.97939 0.33902 0.0
O131 O 0.69789 0.97805 0.34436 0.0
O132 O 0.67926 0.97572 0.33448 0.0
C133 C 0.69125 0.00628 0.36528 0.0
C134 C 0.66547 0.96061 0.37304 0.0
O135 O 0.66035 0.96475 0.36396 0.0
O136 O 0.67841 0.96624 0.37437 0.0
C137 C 0.64486 0.98075 0.34458 0.0
O138 O 0.64497 0.98207 0.3581 0.0
C139 C 0.69024 0.97544 0.33373 0.0
Zn140 Zn 0.01853 0.71355 0.35591 0.0
Zn141 Zn 0.01971 0.69344 0.3431 0.0
O142 O -0.00025 0.68429 0.34961 0.0
O143 O 0.99804 0.70097 0.35835 0.0
O144 O 0.01959 0.67814 0.33285 0.0
O145 O 0.02628 0.72505 0.3389 0.0
O146 O 0.02514 0.70764 0.32799 0.0
C147 C 0.99258 0.68849 0.35519 0.0
C148 C 0.0373 0.70725 0.36918 0.0
O149 O 0.03426 0.69916 0.35883 0.0
O150 O 0.03156 0.71404 0.37053 0.0
C151 C 0.01564 0.6668 0.33848 0.0
O152 O 0.01213 0.66524 0.35152 0.0
C153 C 0.02779 0.71981 0.32803 0.0
Zn154 Zn 0.31529 0.35456 0.33887 0.0
Zn155 Zn 0.31402 0.33272 0.34891 0.0
O156 O 0.33346 0.34472 0.34124 0.0
O157 O 0.33595 0.36455 0.3369 0.0
O158 O 0.31577 0.31793 0.35772 0.0
O159 O 0.30675 0.35668 0.35594 0.0
O160 O 0.30842 0.3403 0.36536 0.0
C161 C 0.34092 0.35703 0.33759 0.0
C162 C 0.29653 0.32943 0.32366 0.0
O163 O 0.29912 0.3237 0.33345 0.0
O164 O 0.30271 0.34228 0.32334 0.0
C165 C 0.32035 0.31164 0.35107 0.0
O166 O 0.32272 0.31392 0.33781 0.0
C167 C 0.30532 0.34938 0.36621 0.0
Zn168 Zn 0.31049 0.01904 0.66278 0.0
Zn169 Zn 0.33072 0.01863 0.67665 0.0
O170 O 0.31879 -0.00079 0.66818 0.0
O171 O 0.30094 -0.00106 0.65885 0.0
O172 O 0.34546 0.01774 0.68762 0.0
O173 O 0.30632 0.02632 0.6798 0.0
O174 O 0.32168 0.0241 0.69156 0.0
C175 C 0.30717 0.99286 0.66177 0.0
C176 C 0.33724 0.03725 0.65185 0.0
O177 O 0.34134 0.03355 0.66229 0.0
O178 O 0.3245 0.03208 0.64943 0.0
C179 C 0.35632 0.01955 0.68209 0.0
O180 O 0.3581 0.02214 0.66882 0.0
C181 C 0.3125 0.02721 0.69112 0.0
Zn182 Zn 0.98164 0.29056 0.66689 0.0
Zn183 Zn 0.9846 0.31248 0.68026 0.0
O184 O 0.00321 0.32032 0.67084 0.0
O185 O 0.00034 0.30279 0.65864 0.0
O186 O 0.98618 0.32788 0.69178 0.0
O187 O 0.97941 0.28087 0.68473 0.0
O188 O 0.98015 0.29823 0.69518 0.0
C189 C 0.00769 0.31522 0.66222 0.0
C190 C 0.96144 0.29719 0.6588 0.0
O191 O 0.96852 0.3076 0.66665 0.0
O192 O 0.96461 0.28825 0.6576 0.0
C193 C 0.99539 0.34041 0.69093 0.0
O194 O 0.00496 0.3443 0.68163 0.0
C195 C 0.97856 0.28647 0.69566 0.0
Zn196 Zn 0.69094 0.65526 0.68602 0.0
Zn197 Zn 0.68487 0.67187 0.67234 0.0
O198 O 0.66694 0.65806 0.68193 0.0
O199 O 0.67159 0.64418 0.69272 0.0
O200 O 0.67948 0.68359 0.66195 0.0
O201 O 0.6964 0.65068 0.66807 0.0
O202 O 0.69097 0.66383 0.65692 0.0
C203 C 0.66321 0.64783 0.6896 0.0
C204 C 0.70694 0.6832 0.69542 0.0
O205 O 0.70038 0.68523 0.68594 0.0
O206 O 0.70468 0.67141 0.69752 0.0
C207 C 0.6713 0.68662 0.66731 0.0
O208 O 0.66679 0.6824 0.67979 0.0
C209 C 0.69535 0.65569 0.65687 0.0
Zn210 Zn 0.35794 0.31743 0.69168 0.0
Zn211 Zn 0.33816 0.31906 0.67768 0.0
O212 O 0.35048 0.33758 0.68727 0.0
O213 O 0.36605 0.33642 0.6998 0.0
O214 O 0.32566 0.32323 0.66678 0.0
O215 O 0.36445 0.31423 0.67352 0.0
O216 O 0.34717 0.31385 0.66264 0.0
C217 C 0.36072 0.34305 0.6957 0.0
C218 C 0.32975 0.29749 0.69952 0.0
O219 O 0.32621 0.30352 0.69097 0.0
O220 O 0.34233 0.30135 0.70126 0.0
C221 C 0.31262 0.31664 0.66561 0.0
O222 O 0.30535 0.30495 0.67183 0.0
C223 C 0.35761 0.31258 0.66246 0.0
Zn224 Zn 0.69256 0.04673 0.67956 0.0
Zn225 Zn 0.68432 0.02236 0.6681 0.0
O226 O 0.66721 0.01976 0.67792 0.0
O227 O 0.67342 0.04007 0.68618 0.0
O228 O 0.67662 0.00403 0.65846 0.0
O229 O 0.6988 0.05576 0.66146 0.0
O230 O 0.69178 0.0358 0.65168 0.0
C231 C 0.66436 0.0276 0.68442 0.0
C232 C 0.7071 0.03441 0.6904 0.0
O233 O 0.69929 0.02457 0.68212 0.0
O234 O 0.70617 0.04484 0.69115 0.0
C235 C 0.68196 0.99676 0.65848 0.0
O236 O 0.69364 0.0011 0.66525 0.0
C237 C 0.69736 0.04865 0.65082 0.0
Zn238 Zn 0.97708 0.69032 0.66606 0.0
Zn239 Zn 0.975 0.66807 0.67733 0.0
O240 O 0.99448 0.67886 0.66917 0.0
O241 O 0.99667 0.69754 0.66089 0.0
O242 O 0.97493 0.65236 0.68652 0.0
O243 O 0.97268 0.69531 0.68449 0.0
O244 O 0.97108 0.67714 0.69353 0.0
C245 C 0.00166 0.6902 0.66319 0.0
C246 C 0.95577 0.66481 0.65333 0.0
O247 O 0.95934 0.65935 0.66254 0.0
O248 O 0.96187 0.67763 0.65263 0.0
C249 C 0.98567 0.65475 0.69326 0.0
O250 O 0.99633 0.66726 0.69402 0.0
C251 C 0.97046 0.68779 0.69479 0.0
C252 C 0.18033 0.24981 0.07454 0.0
C253 C 0.1859 0.2644 0.07961 0.0
C254 C 0.18018 0.26984 0.10161 0.0
C255 C 0.18527 0.2838 0.10205 0.0
C256 C 0.17871 0.28899 0.10987 0.0
C257 C 0.16663 0.27993 0.11708 0.0
C258 C 0.16144 0.26577 0.11647 0.0
C259 C 0.1685 0.26095 0.10896 0.0
C260 C 0.18463 0.30413 0.11034 0.0
C261 C 0.14832 0.25566 0.12351 0.0
C262 C 0.08741 0.30235 0.08262 0.0
C263 C 0.09391 0.29553 0.08948 0.0
C264 C 0.11616 0.3005 0.09872 0.0
C265 C 0.11099 0.28768 0.10469 0.0
C266 C 0.11956 0.28487 0.11264 0.0
C267 C 0.13354 0.29516 0.11494 0.0
C268 C 0.1388 0.30804 0.10892 0.0
C269 C 0.13005 0.31049 0.1008 0.0
C270 C 0.11364 0.27091 0.11863 0.0
C271 C 0.15364 0.31923 0.11116 0.0
C272 C 0.10711 0.29382 0.20066 0.0
C273 C 0.10426 0.28133 0.19496 0.0
C274 C 0.11475 0.28 0.18931 0.0
C275 C 0.12838 0.29138 0.18929 0.0
C276 C 0.13137 0.30385 0.19533 0.0
C277 C 0.12068 0.3049 0.20095 0.0
C278 C 0.1112 0.26649 0.18304 0.0
C279 C 0.14578 0.31616 0.19549 0.0
C280 C 0.20056 0.25717 0.20414 0.0
C281 C 0.19979 0.26906 0.21011 0.0
C282 C 0.17908 0.2699 0.20615 0.0
C283 C 0.16528 0.26095 0.20244 0.0
C284 C 0.15771 0.26547 0.19522 0.0
C285 C 0.16407 0.27939 0.19195 0.0
C286 C 0.17782 0.28866 0.19641 0.0
C287 C 0.18521 0.28381 0.20346 0.0
C288 C 0.14301 0.25532 0.19083 0.0
C289 C 0.18476 0.30363 0.19352 0.0
C290 C 0.15911 0.28514 0.12481 0.0
C291 C 0.15092 0.28861 0.11718 0.0
C292 C 0.14259 0.29242 0.12374 0.0
C293 C 0.14231 0.29272 0.13836 0.0
C294 C 0.13386 0.29625 0.1453 0.0
C295 C 0.13297 0.29566 0.15963 0.0
C296 C 0.14065 0.29171 0.16761 0.0
C297 C 0.13922 0.29035 0.18211 0.0
C298 C 0.14725 0.28673 0.1898 0.0
C299 C 0.15652 0.2841 0.18333 0.0
C300 C 0.1578 0.28504 0.16877 0.0
C301 C 0.16671 0.28209 0.16185 0.0
C302 C 0.16742 0.28244 0.14748 0.0
C303 C 0.15915 0.28562 0.13945 0.0
C304 C 0.15051 0.28917 0.14623 0.0
C305 C 0.14977 0.2888 0.16089 0.0
C306 C 0.07646 0.28509 0.19185 0.0
C307 C 0.08315 0.28636 0.20616 0.0
O308 O 0.18636 0.26479 0.09394 0.0
O309 O 0.18614 0.26479 0.21232 0.0
O310 O 0.09718 0.29575 0.20576 0.0
O311 O 0.10812 0.30359 0.09101 0.0
H312 H 0.17863 0.26738 0.07566 0.0
H313 H 0.16979 0.24303 0.07846 0.0
H314 H 0.18699 0.2461 0.07833 0.0
H315 H 0.17979 0.24924 0.06305 0.0
H316 H 0.1944 0.29058 0.09632 0.0
H317 H 0.16469 0.25016 0.10846 0.0
H318 H 0.17775 0.30646 0.1044 0.0
H319 H 0.19504 0.30989 0.10585 0.0
H320 H 0.18527 0.30771 0.12118 0.0
H321 H 0.14441 0.24505 0.11993 0.0
H322 H 0.14019 0.25801 0.12156 0.0
H323 H 0.15025 0.25626 0.13485 0.0
H324 H 0.09032 0.28511 0.08536 0.0
H325 H 0.08272 0.29642 0.07268 0.0
H326 H 0.09593 0.31156 0.07741 0.0
H327 H 0.07557 0.30364 0.09825 0.0
H328 H 0.10028 0.27979 0.10318 0.0
H329 H 0.13397 0.32033 0.09616 0.0
H330 H 0.1132 0.27159 0.13005 0.0
H331 H 0.12035 0.26686 0.11634 0.0
H332 H 0.1031 0.26358 0.11452 0.0
H333 H 0.15595 0.32893 0.10647 0.0
H334 H 0.16043 0.3161 0.10655 0.0
H335 H 0.15617 0.32099 0.12242 0.0
H336 H 0.0812 0.27617 0.20886 0.0
H337 H 0.09389 0.27259 0.19464 0.0
H338 H 0.12283 0.31448 0.20541 0.0
H339 H 0.11267 0.26749 0.17169 0.0
H340 H 0.1004 0.25832 0.18495 0.0
H341 H 0.11818 0.26338 0.18734 0.0
H342 H 0.14649 0.32507 0.20082 0.0
H343 H 0.14928 0.31893 0.18471 0.0
H344 H 0.15292 0.31373 0.20077 0.0
H345 H 0.20427 0.2771 0.20217 0.0
H346 H 0.21145 0.2603 0.20256 0.0
H347 H 0.19501 0.25393 0.19396 0.0
H348 H 0.19573 0.24833 0.21111 0.0
H349 H 0.16058 0.25028 0.20482 0.0
H350 H 0.19573 0.29088 0.20687 0.0
H351 H 0.14164 0.25581 0.1795 0.0
H352 H 0.13607 0.25791 0.19604 0.0
H353 H 0.13984 0.24474 0.19345 0.0
H354 H 0.19502 0.30967 0.19876 0.0
H355 H 0.1782 0.30752 0.19698 0.0
H356 H 0.18607 0.30519 0.1822 0.0
H357 H 0.15074 0.28798 0.10596 0.0
H358 H 0.12765 0.2993 0.13971 0.0
H359 H 0.1261 0.29827 0.16437 0.0
H360 H 0.14598 0.28554 0.2009 0.0
H361 H 0.17314 0.27931 0.16744 0.0
H362 H 0.17441 0.28 0.14273 0.0
H363 H 0.07885 0.29519 0.18827 0.0
H364 H 0.06514 0.27802 0.1922 0.0
H365 H 0.08046 0.28094 0.18412 0.0
C366 C 0.73582 0.9174 0.07563 0.0
C367 C 0.72331 0.91292 0.08467 0.0
C368 C 0.72597 0.90707 0.10788 0.0
C369 C 0.71284 0.89614 0.11088 0.0
C370 C 0.71119 0.886 0.11994 0.0
C371 C 0.72298 0.88672 0.1259 0.0
C372 C 0.73625 0.89799 0.12314 0.0
C373 C 0.73754 0.90818 0.11434 0.0
C374 C 0.69688 0.87432 0.12282 0.0
C375 C 0.74908 0.89902 0.12906 0.0
C376 C 0.70926 0.78995 0.08927 0.0
C377 C 0.71602 0.80355 0.09619 0.0
C378 C 0.7098 0.81795 0.10879 0.0
C379 C 0.72335 0.82785 0.11292 0.0
C380 C 0.72606 0.83915 0.12104 0.0
C381 C 0.715 0.84048 0.12524 0.0
C382 C 0.70136 0.83047 0.12119 0.0
C383 C 0.69895 0.81935 0.11296 0.0
C384 C 0.74074 0.8497 0.12513 0.0
C385 C 0.68933 0.83156 0.12554 0.0
C386 C 0.72263 0.82157 0.21383 0.0
C387 C 0.73495 0.83162 0.2079 0.0
C388 C 0.73565 0.84262 0.20103 0.0
C389 C 0.72378 0.84354 0.19997 0.0
C390 C 0.71145 0.83356 0.20611 0.0
C391 C 0.71108 0.82276 0.21303 0.0
C392 C 0.74902 0.8532 0.19474 0.0
C393 C 0.6986 0.83421 0.20517 0.0
C394 C 0.73835 0.94496 0.20436 0.0
C395 C 0.72946 0.93204 0.21254 0.0
C396 C 0.73448 0.91394 0.21189 0.0
C397 C 0.74553 0.9124 0.20895 0.0
C398 C 0.74331 0.90017 0.2033 0.0
C399 C 0.72969 0.88919 0.20077 0.0
C400 C 0.71846 0.89034 0.20478 0.0
C401 C 0.72098 0.90272 0.21034 0.0
C402 C 0.7555 0.89917 0.1994 0.0
C403 C 0.70382 0.87866 0.20264 0.0
C404 C 0.72147 0.87521 0.1341 0.0
C405 C 0.71902 0.86361 0.12682 0.0
C406 C 0.71771 0.85243 0.13371 0.0
C407 C 0.71905 0.85279 0.14829 0.0
C408 C 0.71793 0.84176 0.15553 0.0
C409 C 0.71955 0.84234 0.16986 0.0
C410 C 0.72227 0.85393 0.17752 0.0
C411 C 0.72416 0.85471 0.19208 0.0
C412 C 0.72654 0.86628 0.1994 0.0
C413 C 0.72717 0.87718 0.19253 0.0
C414 C 0.72553 0.87668 0.17796 0.0
C415 C 0.72625 0.88755 0.17073 0.0
C416 C 0.72478 0.88704 0.15639 0.0
C417 C 0.72263 0.87569 0.14871 0.0
C418 C 0.72158 0.8645 0.1558 0.0
C419 C 0.72311 0.86503 0.17044 0.0
C420 C 0.73072 0.8 0.20678 0.0
C421 C 0.73053 0.80618 0.22082 0.0
O422 O 0.72765 0.91634 0.09837 0.0
O423 O 0.73721 0.92638 0.21603 0.0
O424 O 0.72131 0.81056 0.22033 0.0
O425 O 0.70674 0.80693 0.10081 0.0
H426 H 0.71657 0.90167 0.08329 0.0
H427 H 0.74109 0.91201 0.07876 0.0
H428 H 0.74328 0.92852 0.07678 0.0
H429 H 0.73255 0.91486 0.06457 0.0
H430 H 0.70392 0.8955 0.10597 0.0
H431 H 0.74763 0.91674 0.11195 0.0
H432 H 0.69503 0.86509 0.11716 0.0
H433 H 0.68886 0.87646 0.11945 0.0
H434 H 0.69578 0.87207 0.13404 0.0
H435 H 0.75861 0.90772 0.12483 0.0
H436 H 0.74893 0.88951 0.12683 0.0
H437 H 0.74943 0.90035 0.14047 0.0
H438 H 0.7247 0.81189 0.09044 0.0
H439 H 0.71261 0.79202 0.07821 0.0
H440 H 0.69836 0.78701 0.08686 0.0
H441 H 0.71415 0.77867 0.10236 0.0
H442 H 0.73186 0.82688 0.1098 0.0
H443 H 0.68855 0.81165 0.10974 0.0
H444 H 0.74199 0.85014 0.13657 0.0
H445 H 0.7432 0.8599 0.12178 0.0
H446 H 0.74824 0.8475 0.12055 0.0
H447 H 0.67929 0.82254 0.12219 0.0
H448 H 0.6902 0.84076 0.12101 0.0
H449 H 0.6895 0.8327 0.13698 0.0
H450 H 0.74101 0.81489 0.22355 0.0
H451 H 0.74404 0.83096 0.20852 0.0
H452 H 0.70164 0.815 0.21768 0.0
H453 H 0.74775 0.85278 0.18331 0.0
H454 H 0.75761 0.85167 0.19742 0.0
H455 H 0.75184 0.86352 0.19833 0.0
H456 H 0.6897 0.82541 0.21012 0.0
H457 H 0.69587 0.83446 0.19415 0.0
H458 H 0.70054 0.84372 0.21028 0.0
H459 H 0.72061 0.92509 0.20556 0.0
H460 H 0.73241 0.94978 0.20161 0.0
H461 H 0.74161 0.94238 0.19463 0.0
H462 H 0.74773 0.95239 0.21043 0.0
H463 H 0.75591 0.92104 0.21051 0.0
H464 H 0.7124 0.90366 0.21329 0.0
H465 H 0.75551 0.89794 0.188 0.0
H466 H 0.75469 0.89006 0.20412 0.0
H467 H 0.76544 0.90832 0.20278 0.0
H468 H 0.69632 0.88067 0.20757 0.0
H469 H 0.70261 0.86922 0.20693 0.0
H470 H 0.70133 0.87685 0.19138 0.0
H471 H 0.71814 0.86328 0.11561 0.0
H472 H 0.71588 0.83259 0.15018 0.0
H473 H 0.71866 0.83357 0.17486 0.0
H474 H 0.72793 0.8668 0.21056 0.0
H475 H 0.72801 0.89663 0.17605 0.0
H476 H 0.72542 0.8957 0.15139 0.0
H477 H 0.73798 0.79634 0.20721 0.0
H478 H 0.73413 0.8077 0.19857 0.0
H479 H 0.72027 0.79132 0.20388 0.0
C480 C 0.21877 0.91079 0.11479 0.0
C481 C 0.2096 0.90825 0.10195 0.0
C482 C 0.18706 0.90138 0.11155 0.0
C483 C 0.17775 0.9055 0.11406 0.0
C484 C 0.16535 0.89699 0.12078 0.0
C485 C 0.16221 0.88401 0.12505 0.0
C486 C 0.17149 0.87969 0.12245 0.0
C487 C 0.18383 0.88841 0.11578 0.0
C488 C 0.15566 0.90189 0.12345 0.0
C489 C 0.1684 0.86587 0.12683 0.0
C490 C 0.07952 0.83177 0.06849 0.0
C491 C 0.08429 0.8249 0.07863 0.0
C492 C 0.09153 0.83337 0.10215 0.0
C493 C 0.10136 0.82979 0.10452 0.0
C494 C 0.11206 0.83695 0.11435 0.0
C495 C 0.11303 0.84806 0.12177 0.0
C496 C 0.10284 0.8514 0.11968 0.0
C497 C 0.09204 0.84378 0.11007 0.0
C498 C 0.12249 0.83285 0.11656 0.0
C499 C 0.10362 0.86329 0.1272 0.0
C500 C 0.08484 0.82702 0.20797 0.0
C501 C 0.09373 0.82266 0.20406 0.0
C502 C 0.10663 0.83185 0.19856 0.0
C503 C 0.11059 0.84558 0.1968 0.0
C504 C 0.10187 0.85008 0.2013 0.0
C505 C 0.08918 0.84074 0.20701 0.0
C506 C 0.11592 0.82684 0.19439 0.0
C507 C 0.10582 0.86468 0.19983 0.0
C508 C 0.20132 0.93816 0.21174 0.0
C509 C 0.19566 0.92944 0.22465 0.0
C510 C 0.18096 0.90622 0.21487 0.0
C511 C 0.17993 0.89373 0.21276 0.0
C512 C 0.16878 0.88308 0.20526 0.0
C513 C 0.15841 0.88501 0.19973 0.0
C514 C 0.15922 0.89752 0.20205 0.0
C515 C 0.17046 0.90798 0.20961 0.0
C516 C 0.16821 0.86986 0.20297 0.0
C517 C 0.14833 0.89994 0.1963 0.0
C518 C 0.14933 0.87497 0.13246 0.0
C519 C 0.13751 0.86615 0.1246 0.0
C520 C 0.12522 0.85679 0.13092 0.0
C521 C 0.12473 0.85608 0.14552 0.0
C522 C 0.11271 0.84651 0.15223 0.0
C523 C 0.11224 0.84613 0.1666 0.0
C524 C 0.12383 0.85522 0.17484 0.0
C525 C 0.1234 0.85506 0.18947 0.0
C526 C 0.13496 0.86456 0.19731 0.0
C527 C 0.14704 0.87427 0.19093 0.0
C528 C 0.1478 0.8743 0.17634 0.0
C529 C 0.15992 0.88368 0.16962 0.0
C530 C 0.16049 0.88385 0.15526 0.0
C531 C 0.1489 0.87476 0.14706 0.0
C532 C 0.13658 0.86521 0.15361 0.0
C533 C 0.1361 0.86484 0.16828 0.0
C534 C 0.04937 0.80241 0.20563 0.0
C535 C 0.06355 0.80473 0.20942 0.0
O536 O 0.19899 0.91024 0.10517 0.0
O537 O 0.19229 0.91623 0.22184 0.0
O538 O 0.07212 0.8184 0.21288 0.0
O539 O 0.08171 0.82719 0.09202 0.0
H540 H 0.20528 0.89762 0.09815 0.0
H541 H 0.22744 0.90947 0.11211 0.0
H542 H 0.223 0.92123 0.11906 0.0
H543 H 0.2128 0.90346 0.12298 0.0
H544 H 0.18028 0.91549 0.11079 0.0
H545 H 0.19085 0.88497 0.11405 0.0
H546 H 0.14551 0.89482 0.11839 0.0
H547 H 0.15963 0.9123 0.11955 0.0
H548 H 0.154 0.9019 0.13474 0.0
H549 H 0.17642 0.86379 0.12358 0.0
H550 H 0.15832 0.85783 0.12232 0.0
H551 H 0.16763 0.86517 0.13826 0.0
H552 H 0.09559 0.8298 0.07713 0.0
H553 H 0.08121 0.82978 0.05766 0.0
H554 H 0.08552 0.84294 0.07045 0.0
H555 H 0.06844 0.82806 0.06973 0.0
H556 H 0.10071 0.82146 0.0986 0.0
H557 H 0.08429 0.84635 0.10821 0.0
H558 H 0.12452 0.83258 0.12779 0.0
H559 H 0.13234 0.84049 0.11185 0.0
H560 H 0.11904 0.82274 0.11179 0.0
H561 H 0.09568 0.86536 0.12336 0.0
H562 H 0.11393 0.87259 0.126 0.0
H563 H 0.10212 0.86118 0.13841 0.0
H564 H 0.06724 0.80196 0.20011 0.0
H565 H 0.09064 0.81213 0.20534 0.0
H566 H 0.08234 0.84402 0.21036 0.0
H567 H 0.11634 0.82659 0.18294 0.0
H568 H 0.11226 0.81646 0.19821 0.0
H569 H 0.12656 0.83389 0.19844 0.0
H570 H 0.09737 0.86625 0.20271 0.0
H571 H 0.10872 0.86796 0.18901 0.0
H572 H 0.11492 0.8713 0.20661 0.0
H573 H 0.18636 0.92939 0.22802 0.0
H574 H 0.20437 0.94882 0.21415 0.0
H575 H 0.1934 0.93423 0.2033 0.0
H576 H 0.21042 0.9381 0.20792 0.0
H577 H 0.18802 0.89241 0.21688 0.0
H578 H 0.17097 0.91751 0.21117 0.0
H579 H 0.16837 0.86799 0.19171 0.0
H580 H 0.15842 0.86132 0.20695 0.0
H581 H 0.17696 0.86986 0.20817 0.0
H582 H 0.15004 0.90994 0.19964 0.0
H583 H 0.13802 0.89181 0.19967 0.0
H584 H 0.14828 0.89951 0.18482 0.0
H585 H 0.13789 0.86653 0.1134 0.0
H586 H 0.10349 0.83924 0.14643 0.0
H587 H 0.10264 0.83863 0.17116 0.0
H588 H 0.13443 0.86464 0.20851 0.0
H589 H 0.16913 0.891 0.17539 0.0
H590 H 0.1701 0.8913 0.15067 0.0
H591 H 0.04467 0.80404 0.21485 0.0
H592 H 0.04234 0.79199 0.20136 0.0
H593 H 0.05045 0.80968 0.19756 0.0
C594 C 0.29006 0.1133 0.94423 0.0
C595 C 0.28653 0.10155 0.93409 0.0
C596 C 0.288 0.1135 0.91278 0.0
C597 C 0.27432 0.11028 0.91166 0.0
C598 C 0.27078 0.11784 0.90317 0.0
C599 C 0.28117 0.129 0.89587 0.0
C600 C 0.29494 0.13219 0.89691 0.0
C601 C 0.2981 0.12418 0.90512 0.0
C602 C 0.25594 0.11395 0.90208 0.0
C603 C 0.30639 0.1442 0.88957 0.0
C604 C 0.25776 0.18462 0.94687 0.0
C605 C 0.27 0.19153 0.93724 0.0
C606 C 0.26724 0.18237 0.91407 0.0
C607 C 0.28052 0.18542 0.91116 0.0
C608 C 0.28254 0.17718 0.90197 0.0
C609 C 0.27098 0.16552 0.89582 0.0
C610 C 0.25755 0.16263 0.89853 0.0
C611 C 0.25588 0.17131 0.90744 0.0
C612 C 0.29701 0.18077 0.89912 0.0
C613 C 0.24495 0.15014 0.89246 0.0
C614 C 0.25957 0.17921 0.80686 0.0
C615 C 0.27323 0.1837 0.81072 0.0
C616 C 0.27649 0.17502 0.81752 0.0
C617 C 0.26586 0.16163 0.82059 0.0
C618 C 0.25216 0.15693 0.81621 0.0
C619 C 0.24924 0.16576 0.80923 0.0
C620 C 0.29127 0.1802 0.82159 0.0
C621 C 0.24059 0.14267 0.81914 0.0
C622 C 0.27066 0.07444 0.81773 0.0
C623 C 0.27329 0.08096 0.80342 0.0
C624 C 0.27949 0.10432 0.80947 0.0
C625 C 0.29049 0.11773 0.8112 0.0
C626 C 0.2886 0.12782 0.81695 0.0
C627 C 0.27533 0.12438 0.82103 0.0
C628 C 0.26401 0.11099 0.81871 0.0
C629 C 0.26619 0.10109 0.81297 0.0
C630 C 0.30087 0.14203 0.81915 0.0
C631 C 0.24969 0.10704 0.82279 0.0
C632 C 0.27771 0.13761 0.88753 0.0
C633 C 0.27583 0.14711 0.89457 0.0
C634 C 0.27292 0.15582 0.88745 0.0
C635 C 0.27196 0.15518 0.87282 0.0
C636 C 0.26934 0.16397 0.86529 0.0
C637 C 0.26824 0.16311 0.85091 0.0
C638 C 0.26994 0.15359 0.84347 0.0
C639 C 0.26895 0.15271 0.82883 0.0
C640 C 0.2708 0.14317 0.82179 0.0
C641 C 0.27352 0.13436 0.82899 0.0
C642 C 0.27444 0.13502 0.84362 0.0
C643 C 0.27703 0.1262 0.85117 0.0
C644 C 0.27795 0.12693 0.86554 0.0
C645 C 0.27648 0.1366 0.87293 0.0
C646 C 0.2737 0.14549 0.86555 0.0
C647 C 0.2727 0.1447 0.85087 0.0
C648 C 0.25019 0.20124 0.81356 0.0
C649 C 0.2609 0.20089 0.80449 0.0
O650 O 0.29187 0.10668 0.92122 0.0
O651 O 0.28228 0.09491 0.80472 0.0
O652 O 0.25606 0.1875 0.80062 0.0
O653 O 0.26517 0.18971 0.92366 0.0
H654 H 0.27517 0.0947 0.93318 0.0
H655 H 0.28551 0.11919 0.94047 0.0
H656 H 0.30139 0.12027 0.94529 0.0
H657 H 0.28582 0.1094 0.95459 0.0
H658 H 0.26634 0.10182 0.91726 0.0
H659 H 0.30861 0.12654 0.90601 0.0
H660 H 0.25479 0.12187 0.90731 0.0
H661 H 0.24888 0.10403 0.90692 0.0
H662 H 0.25277 0.11338 0.89105 0.0
H663 H 0.31671 0.14632 0.89286 0.0
H664 H 0.30594 0.15343 0.89159 0.0
H665 H 0.30512 0.14215 0.87824 0.0
H666 H 0.27594 0.18644 0.93885 0.0
H667 H 0.26141 0.18603 0.95783 0.0
H668 H 0.25155 0.17354 0.94443 0.0
H669 H 0.25103 0.18884 0.94558 0.0
H670 H 0.28927 0.19416 0.91621 0.0
H671 H 0.24567 0.16912 0.90977 0.0
H672 H 0.29829 0.17997 0.88785 0.0
H673 H 0.29902 0.17346 0.90441 0.0
H674 H 0.30482 0.1912 0.90288 0.0
H675 H 0.23527 0.14864 0.8967 0.0
H676 H 0.24542 0.14095 0.89455 0.0
H677 H 0.24461 0.15106 0.88107 0.0
H678 H 0.27042 0.20521 0.81106 0.0
H679 H 0.28138 0.19391 0.80833 0.0
H680 H 0.23877 0.16233 0.80596 0.0
H681 H 0.29245 0.18101 0.83304 0.0
H682 H 0.29849 0.19034 0.81725 0.0
H683 H 0.2942 0.17292 0.818 0.0
H684 H 0.23043 0.14073 0.81549 0.0
H685 H 0.24019 0.14086 0.83044 0.0
H686 H 0.24252 0.13524 0.81396 0.0
H687 H 0.26324 0.07865 0.79895 0.0
H688 H 0.26403 0.06319 0.81672 0.0
H689 H 0.26527 0.078 0.82434 0.0
H690 H 0.28053 0.07728 0.82307 0.0
H691 H 0.30068 0.12019 0.80835 0.0
H692 H 0.25747 0.09085 0.81156 0.0
H693 H 0.30266 0.14449 0.83041 0.0
H694 H 0.29879 0.14948 0.81432 0.0
H695 H 0.31038 0.14327 0.81474 0.0
H696 H 0.24179 0.09657 0.81922 0.0
H697 H 0.24706 0.11427 0.81842 0.0
H698 H 0.24931 0.10762 0.83423 0.0
H699 H 0.27669 0.14775 0.90578 0.0
H700 H 0.26807 0.17158 0.87044 0.0
H701 H 0.26609 0.17007 0.84569 0.0
H702 H 0.27006 0.14255 0.81057 0.0
H703 H 0.27836 0.11861 0.84608 0.0
H704 H 0.27988 0.11983 0.87078 0.0
H705 H 0.24005 0.19646 0.80804 0.0
H706 H 0.25365 0.21187 0.81666 0.0
H707 H 0.24884 0.19545 0.82313 0.0
C708 C 0.82386 0.0756 0.94686 0.0
C709 C 0.8151 0.08034 0.93965 0.0
C710 C 0.81833 0.08632 0.91569 0.0
C711 C 0.81322 0.09493 0.91421 0.0
C712 C 0.81922 0.10575 0.90499 0.0
C713 C 0.83073 0.10812 0.89733 0.0
C714 C 0.83554 0.09907 0.89845 0.0
C715 C 0.82906 0.08809 0.90747 0.0
C716 C 0.81363 0.115 0.90388 0.0
C717 C 0.84798 0.10139 0.89075 0.0
C718 C 0.91489 0.20621 0.93748 0.0
C719 C 0.90798 0.19371 0.9286 0.0
C720 C 0.88539 0.17828 0.9177 0.0
C721 C 0.88948 0.17053 0.91026 0.0
C722 C 0.88009 0.15969 0.90157 0.0
C723 C 0.86641 0.1567 0.9001 0.0
C724 C 0.86232 0.1646 0.90743 0.0
C725 C 0.87187 0.17525 0.9162 0.0
C726 C 0.88477 0.15136 0.89406 0.0
C727 C 0.84787 0.16176 0.90601 0.0
C728 C 0.89197 0.1836 0.8159 0.0
C729 C 0.89404 0.17376 0.82196 0.0
C730 C 0.88296 0.16163 0.8269 0.0
C731 C 0.8695 0.15932 0.82603 0.0
C732 C 0.8673 0.16901 0.81969 0.0
C733 C 0.87858 0.18101 0.81465 0.0
C734 C 0.88576 0.1515 0.83352 0.0
C735 C 0.8531 0.16688 0.81864 0.0
C736 C 0.80183 0.05036 0.80702 0.0
C737 C 0.80022 0.06235 0.80354 0.0
C738 C 0.81944 0.08563 0.8076 0.0
C739 C 0.83351 0.09207 0.81053 0.0
C740 C 0.8405 0.10437 0.81808 0.0
C741 C 0.83327 0.11063 0.82234 0.0
C742 C 0.81915 0.10454 0.81866 0.0
C743 C 0.81232 0.09199 0.81145 0.0
C744 C 0.85558 0.11054 0.82162 0.0
C745 C 0.81127 0.11122 0.82248 0.0
C746 C 0.8388 0.12096 0.88968 0.0
C747 C 0.8477 0.13269 0.89749 0.0
C748 C 0.85634 0.14508 0.89117 0.0
C749 C 0.85603 0.14593 0.87662 0.0
C750 C 0.86448 0.15829 0.86997 0.0
C751 C 0.86486 0.15883 0.85562 0.0
C752 C 0.8568 0.14704 0.84739 0.0
C753 C 0.85808 0.14729 0.83286 0.0
C754 C 0.84973 0.13548 0.82491 0.0
C755 C 0.84041 0.12318 0.83116 0.0
C756 C 0.83929 0.12268 0.84575 0.0
C757 C 0.83039 0.11043 0.85248 0.0
C758 C 0.82988 0.10992 0.86685 0.0
C759 C 0.83848 0.12155 0.87508 0.0
C760 C 0.84724 0.13407 0.86853 0.0
C761 C 0.8476 0.13464 0.85387 0.0
C762 C 0.92249 0.2062 0.82642 0.0
C763 C 0.91643 0.20039 0.81191 0.0
O764 O 0.81366 0.0769 0.9257 0.0
O765 O 0.81314 0.07344 0.80082 0.0
O766 O 0.90249 0.1957 0.81135 0.0
O767 O 0.89406 0.18865 0.92645 0.0
H768 H 0.82094 0.09163 0.94115 0.0
H769 H 0.83445 0.08127 0.94279 0.0
H770 H 0.81956 0.06459 0.94493 0.0
H771 H 0.8245 0.07762 0.95819 0.0
H772 H 0.80477 0.09335 0.92054 0.0
H773 H 0.83286 0.08131 0.90874 0.0
H774 H 0.82071 0.12472 0.90949 0.0
H775 H 0.80327 0.11042 0.90843 0.0
H776 H 0.813 0.11738 0.89289 0.0
H777 H 0.85112 0.09412 0.89373 0.0
H778 H 0.8568 0.1119 0.89277 0.0
H779 H 0.84569 0.10024 0.87946 0.0
H780 H 0.91026 0.18577 0.93154 0.0
H781 H 0.91842 0.20329 0.94704 0.0
H782 H 0.90645 0.20672 0.94277 0.0
H783 H 0.92863 0.22132 0.92414 0.0
H784 H 0.89993 0.1728 0.91126 0.0
H785 H 0.86883 0.18131 0.92195 0.0
H786 H 0.88465 0.15289 0.88275 0.0
H787 H 0.8776 0.14037 0.89595 0.0
H788 H 0.89533 0.15417 0.89731 0.0
H789 H 0.84664 0.16954 0.91147 0.0
H790 H 0.84056 0.15165 0.91034 0.0
H791 H 0.84504 0.16141 0.8949 0.0
H792 H 0.91814 0.19192 0.80981 0.0
H793 H 0.90425 0.17546 0.82311 0.0
H794 H 0.87702 0.1886 0.80994 0.0
H795 H 0.88489 0.1519 0.84491 0.0
H796 H 0.89622 0.15363 0.83126 0.0
H797 H 0.87808 0.14101 0.82986 0.0
H798 H 0.85307 0.17534 0.81332 0.0
H799 H 0.84898 0.16595 0.82918 0.0
H800 H 0.84607 0.15723 0.8129 0.0
H801 H 0.79579 0.06442 0.81275 0.0
H802 H 0.79184 0.04138 0.80999 0.0
H803 H 0.8092 0.05318 0.81589 0.0
H804 H 0.80583 0.04754 0.79801 0.0
H805 H 0.83892 0.08716 0.80724 0.0
H806 H 0.8015 0.08721 0.8087 0.0
H807 H 0.85764 0.1134 0.83278 0.0
H808 H 0.86171 0.11993 0.81561 0.0
H809 H 0.85917 0.10351 0.81917 0.0
H810 H 0.80103 0.10627 0.81715 0.0
H811 H 0.81722 0.12215 0.81981 0.0
H812 H 0.80972 0.11061 0.83381 0.0
H813 H 0.84819 0.13209 0.90866 0.0
H814 H 0.87106 0.16764 0.87578 0.0
H815 H 0.87173 0.1686 0.85107 0.0
H816 H 0.85101 0.13568 0.8138 0.0
H817 H 0.82381 0.10106 0.84672 0.0
H818 H 0.82287 0.10023 0.87147 0.0
H819 H 0.91948 0.21343 0.82997 0.0
H820 H 0.93389 0.21142 0.82645 0.0
H821 H 0.91857 0.19788 0.83398 0.0
C822 C 0.7855 0.69509 0.91154 0.0
C823 C 0.79495 0.70104 0.92444 0.0
C824 C 0.8178 0.71612 0.91479 0.0
C825 C 0.82808 0.72966 0.91272 0.0
C826 C 0.83997 0.73299 0.90545 0.0
C827 C 0.84154 0.72246 0.90013 0.0
C828 C 0.83128 0.70873 0.90232 0.0
C829 C 0.81953 0.70569 0.90964 0.0
C830 C 0.85077 0.74773 0.90329 0.0
C831 C 0.83267 0.69726 0.89676 0.0
C832 C 0.9395 0.74454 0.92484 0.0
C833 C 0.92649 0.73245 0.9308 0.0
C834 C 0.90774 0.72585 0.91361 0.0
C835 C 0.89817 0.71513 0.90505 0.0
C836 C 0.88776 0.71579 0.89791 0.0
C837 C 0.88724 0.72774 0.899 0.0
C838 C 0.89695 0.7387 0.90758 0.0
C839 C 0.90702 0.73759 0.91493 0.0
C840 C 0.87732 0.70366 0.88925 0.0
C841 C 0.89674 0.75161 0.90894 0.0
C842 C 0.91126 0.7365 0.81311 0.0
C843 C 0.90038 0.72367 0.81696 0.0
C844 C 0.88849 0.7222 0.8227 0.0
C845 C 0.88751 0.73381 0.82472 0.0
C846 C 0.89806 0.74658 0.81999 0.0
C847 C 0.90977 0.74773 0.81408 0.0
C848 C 0.87718 0.7083 0.82711 0.0
C849 C 0.89721 0.7591 0.82172 0.0
C850 C 0.79575 0.7339 0.82095 0.0
C851 C 0.80214 0.73418 0.807 0.0
C852 C 0.81821 0.72672 0.81295 0.0
C853 C 0.81948 0.71535 0.81378 0.0
C854 C 0.83102 0.7162 0.82022 0.0
C855 C 0.84169 0.72884 0.82572 0.0
C856 C 0.84074 0.7405 0.82451 0.0
C857 C 0.82895 0.73931 0.81832 0.0
C858 C 0.83165 0.70353 0.82148 0.0
C859 C 0.85209 0.7542 0.83 0.0
C860 C 0.85368 0.72572 0.89186 0.0
C861 C 0.86494 0.72644 0.89865 0.0
C862 C 0.87635 0.7286 0.89133 0.0
C863 C 0.87673 0.73042 0.87685 0.0
C864 C 0.88823 0.73306 0.86923 0.0
C865 C 0.88818 0.73405 0.8549 0.0
C866 C 0.87661 0.73244 0.84764 0.0
C867 C 0.87619 0.73276 0.83302 0.0
C868 C 0.8647 0.7315 0.82615 0.0
C869 C 0.85346 0.72975 0.83352 0.0
C870 C 0.85353 0.72902 0.84812 0.0
C871 C 0.84222 0.72687 0.85583 0.0
C872 C 0.8423 0.72595 0.87016 0.0
C873 C 0.85368 0.72709 0.87735 0.0
C874 C 0.86523 0.7294 0.86982 0.0
C875 C 0.86515 0.73036 0.85519 0.0
C876 C 0.94229 0.74303 0.823 0.0
C877 C 0.93019 0.73246 0.81388 0.0
O878 O 0.8064 0.71363 0.92165 0.0
O879 O 0.80649 0.72501 0.80701 0.0
O880 O 0.92329 0.73837 0.80844 0.0
O881 O 0.91747 0.72438 0.92022 0.0
H882 H 0.79824 0.69395 0.92772 0.0
H883 H 0.79087 0.69341 0.90302 0.0
H884 H 0.78227 0.7021 0.90786 0.0
H885 H 0.77618 0.68514 0.91392 0.0
H886 H 0.8267 0.73764 0.91673 0.0
H887 H 0.81175 0.69513 0.91111 0.0
H888 H 0.86093 0.74988 0.90719 0.0
H889 H 0.8483 0.75474 0.9086 0.0
H890 H 0.85168 0.74985 0.89205 0.0
H891 H 0.82372 0.6871 0.89924 0.0
H892 H 0.84214 0.69814 0.90118 0.0
H893 H 0.8337 0.69799 0.88535 0.0
H894 H 0.92147 0.73635 0.93758 0.0
H895 H 0.94684 0.75082 0.93334 0.0
H896 H 0.93693 0.7511 0.91888 0.0
H897 H 0.94463 0.74099 0.91779 0.0
H898 H 0.89878 0.70611 0.90412 0.0
H899 H 0.91434 0.746 0.92152 0.0
H900 H 0.87936 0.70599 0.87812 0.0
H901 H 0.86675 0.70134 0.8912 0.0
H902 H 0.87774 0.69445 0.89139 0.0
H903 H 0.9059 0.75976 0.91473 0.0
H904 H 0.88737 0.74946 0.91446 0.0
H905 H 0.89629 0.75537 0.89853 0.0
H906 H 0.92357 0.724 0.82089 0.0
H907 H 0.90116 0.7148 0.81559 0.0
H908 H 0.9181 0.75752 0.81076 0.0
H909 H 0.8773 0.70783 0.83857 0.0
H910 H 0.87844 0.70008 0.82282 0.0
H911 H 0.86697 0.7064 0.82373 0.0
H912 H 0.90623 0.76828 0.81741 0.0
H913 H 0.89654 0.76101 0.83288 0.0
H914 H 0.88771 0.75744 0.81647 0.0
H915 H 0.81093 0.74471 0.80559 0.0
H916 H 0.79113 0.74029 0.82068 0.0
H917 H 0.80382 0.738 0.82927 0.0
H918 H 0.78779 0.72332 0.82365 0.0
H919 H 0.8112 0.70569 0.80962 0.0
H920 H 0.82831 0.74829 0.81785 0.0
H921 H 0.83251 0.70158 0.83256 0.0
H922 H 0.84097 0.70504 0.81634 0.0
H923 H 0.82244 0.69444 0.81677 0.0
H924 H 0.85047 0.76253 0.82701 0.0
H925 H 0.86217 0.75649 0.82609 0.0
H926 H 0.85261 0.754 0.84147 0.0
H927 H 0.86462 0.72488 0.90972 0.0
H928 H 0.89737 0.73429 0.87424 0.0
H929 H 0.8973 0.736 0.8496 0.0
H930 H 0.86448 0.73182 0.81494 0.0
H931 H 0.83312 0.72577 0.85087 0.0
H932 H 0.83328 0.72421 0.87551 0.0
H933 H 0.94898 0.75244 0.81717 0.0
H934 H 0.94845 0.73882 0.82698 0.0
H935 H 0.9383 0.74584 0.83202 0.0
C936 C 0.86255 0.5953 0.42827 0.0
C937 C 0.8639 0.60752 0.42065 0.0
C938 C 0.85499 0.6181 0.43614 0.0
C939 C 0.85874 0.62997 0.44364 0.0
C940 C 0.84889 0.6316 0.45037 0.0
C941 C 0.83493 0.6209 0.44982 0.0
C942 C 0.83101 0.60882 0.44224 0.0
C943 C 0.84106 0.60756 0.43539 0.0
C944 C 0.85343 0.64472 0.45817 0.0
C945 C 0.81622 0.59716 0.44156 0.0
C946 C 0.7491 0.63512 0.41724 0.0
C947 C 0.75632 0.62891 0.42391 0.0
C948 C 0.77904 0.63474 0.43251 0.0
C949 C 0.77461 0.62179 0.43778 0.0
C950 C 0.78362 0.61937 0.44543 0.0
C951 C 0.79728 0.6302 0.44826 0.0
C952 C 0.80181 0.64323 0.44295 0.0
C953 C 0.79265 0.64528 0.43501 0.0
C954 C 0.77849 0.6052 0.45053 0.0
C955 C 0.81626 0.65502 0.4458 0.0
C956 C 0.76998 0.62506 0.53502 0.0
C957 C 0.76584 0.61316 0.52718 0.0
C958 C 0.77561 0.61106 0.52094 0.0
C959 C 0.78976 0.62121 0.52224 0.0
C960 C 0.79396 0.63307 0.53033 0.0
C961 C 0.784 0.63475 0.53674 0.0
C962 C 0.77077 0.59807 0.51275 0.0
C963 C 0.80895 0.64409 0.53196 0.0
C964 C 0.85989 0.58325 0.53816 0.0
C965 C 0.85864 0.5955 0.54156 0.0
C966 C 0.83828 0.5968 0.53699 0.0
C967 C 0.82451 0.58831 0.53289 0.0
C968 C 0.81741 0.59346 0.52585 0.0
C969 C 0.8242 0.60755 0.52323 0.0
C970 C 0.83793 0.61633 0.52807 0.0
C971 C 0.84488 0.61085 0.53481 0.0
C972 C 0.80274 0.58379 0.52098 0.0
C973 C 0.8453 0.63147 0.52596 0.0
C974 C 0.82453 0.62225 0.45749 0.0
C975 C 0.81637 0.62594 0.45016 0.0
C976 C 0.80669 0.62779 0.45687 0.0
C977 C 0.80542 0.62637 0.47139 0.0
C978 C 0.79639 0.62894 0.4786 0.0
C979 C 0.79481 0.627 0.49278 0.0
C980 C 0.80208 0.62227 0.5003 0.0
C981 C 0.80007 0.61969 0.51461 0.0
C982 C 0.8076 0.61517 0.52182 0.0
C983 C 0.81704 0.61297 0.51508 0.0
C984 C 0.81907 0.61536 0.50072 0.0
C985 C 0.8283 0.61305 0.49353 0.0
C986 C 0.83018 0.61539 0.47941 0.0
C987 C 0.82278 0.61996 0.47187 0.0
C988 C 0.8133 0.62217 0.47886 0.0
C989 C 0.81153 0.62 0.49332 0.0
C990 C 0.74393 0.62539 0.52457 0.0
C991 C 0.74685 0.62123 0.53861 0.0
O992 O 0.86518 0.61726 0.43005 0.0
O993 O 0.84486 0.59111 0.54297 0.0
O994 O 0.76093 0.62771 0.54105 0.0
O995 O 0.77052 0.63742 0.42507 0.0
H996 H 0.85463 0.60398 0.41386 0.0
H997 H 0.85311 0.59036 0.43449 0.0
H998 H 0.87153 0.59853 0.43537 0.0
H999 H 0.86185 0.58766 0.4207 0.0
H1000 H 0.86949 0.63804 0.44417 0.0
H1001 H 0.83796 0.59826 0.42967 0.0
H1002 H 0.84691 0.6488 0.45505 0.0
H1003 H 0.86438 0.65257 0.45636 0.0
H1004 H 0.85215 0.64275 0.46943 0.0
H1005 H 0.81496 0.58812 0.43595 0.0
H1006 H 0.80979 0.60044 0.43624 0.0
H1007 H 0.81229 0.59417 0.45219 0.0
H1008 H 0.75299 0.61854 0.41985 0.0
H1009 H 0.74428 0.62896 0.40744 0.0
H1010 H 0.75721 0.6444 0.41176 0.0
H1011 H 0.73741 0.63607 0.43324 0.0
H1012 H 0.76414 0.61347 0.43593 0.0
H1013 H 0.79602 0.65523 0.43091 0.0
H1014 H 0.77715 0.605 0.46188 0.0
H1015 H 0.78609 0.60221 0.44843 0.0
H1016 H 0.76846 0.59753 0.4456 0.0
H1017 H 0.81782 0.66477 0.44199 0.0
H1018 H 0.82368 0.65304 0.44066 0.0
H1019 H 0.81863 0.65608 0.45709 0.0
H1020 H 0.74212 0.61002 0.53872 0.0
H1021 H 0.75505 0.60547 0.52584 0.0
H1022 H 0.7871 0.64384 0.54288 0.0
H1023 H 0.77204 0.60032 0.50155 0.0
H1024 H 0.75978 0.59036 0.5145 0.0
H1025 H 0.77708 0.59366 0.51553 0.0
H1026 H 0.81047 0.65301 0.53802 0.0
H1027 H 0.8135 0.64753 0.52162 0.0
H1028 H 0.81465 0.63998 0.53728 0.0
H1029 H 0.86297 0.60243 0.53261 0.0
H1030 H 0.87087 0.58653 0.53697 0.0
H1031 H 0.85427 0.57836 0.52829 0.0
H1032 H 0.85542 0.5756 0.54645 0.0
H1033 H 0.81946 0.57752 0.53482 0.0
H1034 H 0.85541 0.61753 0.53843 0.0
H1035 H 0.8017 0.58491 0.50971 0.0
H1036 H 0.79582 0.58632 0.52635 0.0
H1037 H 0.79925 0.57301 0.52302 0.0
H1038 H 0.85529 0.63706 0.53177 0.0
H1039 H 0.83876 0.63542 0.5293 0.0
H1040 H 0.84729 0.6336 0.51479 0.0
H1041 H 0.81744 0.62721 0.43905 0.0
H1042 H 0.79044 0.63247 0.47334 0.0
H1043 H 0.7877 0.62914 0.49775 0.0
H1044 H 0.80593 0.61313 0.53278 0.0
H1045 H 0.83418 0.60941 0.49873 0.0
H1046 H 0.83742 0.61342 0.47445 0.0
H1047 H 0.73266 0.62026 0.52256 0.0
H1048 H 0.74833 0.62239 0.51612 0.0
H1049 H 0.74857 0.63659 0.52434 0.0
C1050 C 0.39827 0.26527 0.43473 0.0
C1051 C 0.38554 0.25335 0.42742 0.0
C1052 C 0.37751 0.23413 0.44329 0.0
C1053 C 0.36661 0.22518 0.45155 0.0
C1054 C 0.36679 0.21472 0.45861 0.0
C1055 C 0.37842 0.21344 0.45769 0.0
C1056 C 0.38948 0.22239 0.44926 0.0
C1057 C 0.38883 0.23251 0.44199 0.0
C1058 C 0.35462 0.20515 0.46717 0.0
C1059 C 0.40206 0.22135 0.44801 0.0
C1060 C 0.36714 0.12095 0.41593 0.0
C1061 C 0.3724 0.13474 0.42202 0.0
C1062 C 0.36886 0.14585 0.44167 0.0
C1063 C 0.38165 0.1581 0.44099 0.0
C1064 C 0.38458 0.16945 0.44916 0.0
C1065 C 0.37438 0.16869 0.45789 0.0
C1066 C 0.36145 0.15639 0.45855 0.0
C1067 C 0.35898 0.14505 0.45062 0.0
C1068 C 0.39857 0.18229 0.44831 0.0
C1069 C 0.35018 0.15525 0.46749 0.0
C1070 C 0.39155 0.1564 0.54612 0.0
C1071 C 0.40372 0.16826 0.54219 0.0
C1072 C 0.40321 0.17846 0.53491 0.0
C1073 C 0.39032 0.17693 0.53175 0.0
C1074 C 0.37809 0.16523 0.53612 0.0
C1075 C 0.37889 0.15507 0.54313 0.0
C1076 C 0.41646 0.19082 0.53046 0.0
C1077 C 0.36418 0.16338 0.53323 0.0
C1078 C 0.40612 0.27864 0.53545 0.0
C1079 C 0.39621 0.26574 0.54318 0.0
C1080 C 0.39993 0.24677 0.54241 0.0
C1081 C 0.41073 0.24481 0.53962 0.0
C1082 C 0.40818 0.23249 0.53385 0.0
C1083 C 0.39444 0.22179 0.53119 0.0
C1084 C 0.38343 0.2234 0.53495 0.0
C1085 C 0.3863 0.23593 0.54049 0.0
C1086 C 0.42017 0.23107 0.53019 0.0
C1087 C 0.36865 0.21204 0.53274 0.0
C1088 C 0.37919 0.20298 0.46582 0.0
C1089 C 0.3764 0.19106 0.45899 0.0
C1090 C 0.37713 0.1809 0.46599 0.0
C1091 C 0.38056 0.18255 0.4803 0.0
C1092 C 0.38161 0.17267 0.48765 0.0
C1093 C 0.38465 0.17425 0.50179 0.0
C1094 C 0.38681 0.1858 0.50914 0.0
C1095 C 0.38962 0.18739 0.52358 0.0
C1096 C 0.3919 0.19911 0.53051 0.0
C1097 C 0.39163 0.20943 0.52337 0.0
C1098 C 0.38887 0.20804 0.50893 0.0
C1099 C 0.38878 0.21835 0.50139 0.0
C1100 C 0.38576 0.21678 0.48727 0.0
C1101 C 0.38265 0.20481 0.48012 0.0
C1102 C 0.38313 0.19447 0.48741 0.0
C1103 C 0.38625 0.1961 0.50185 0.0
C1104 C 0.40859 0.1416 0.54445 0.0
C1105 C 0.40263 0.14508 0.55682 0.0
O1106 O 0.37669 0.24418 0.43699 0.0
O1107 O 0.40304 0.25922 0.547 0.0
O1108 O 0.39145 0.14595 0.55262 0.0
O1109 O 0.36567 0.13469 0.43386 0.0
H1110 H 0.38896 0.24817 0.42023 0.0
H1111 H 0.40435 0.2617 0.44023 0.0
H1112 H 0.39525 0.27035 0.44245 0.0
H1113 H 0.40502 0.27284 0.42703 0.0
H1114 H 0.35787 0.22643 0.45244 0.0
H1115 H 0.3973 0.2392 0.43551 0.0
H1116 H 0.35156 0.19445 0.46503 0.0
H1117 H 0.34561 0.20618 0.46512 0.0
H1118 H 0.3575 0.20735 0.47832 0.0
H1119 H 0.41053 0.23018 0.44264 0.0
H1120 H 0.39926 0.21197 0.44204 0.0
H1121 H 0.40589 0.22063 0.4584 0.0
H1122 H 0.3736 0.14257 0.41453 0.0
H1123 H 0.38402 0.1185 0.41787 0.0
H1124 H 0.36245 0.12096 0.40561 0.0
H1125 H 0.35696 0.11389 0.42083 0.0
H1126 H 0.38945 0.15887 0.43418 0.0
H1127 H 0.34915 0.13556 0.45111 0.0
H1128 H 0.40268 0.18668 0.45881 0.0
H1129 H 0.3976 0.1899 0.44234 0.0
H1130 H 0.4061 0.18049 0.4431 0.0
H1131 H 0.34021 0.1456 0.46549 0.0
H1132 H 0.34875 0.16391 0.46567 0.0
H1133 H 0.35312 0.15567 0.47856 0.0
H1134 H 0.41076 0.15496 0.56154 0.0
H1135 H 0.41364 0.16961 0.54458 0.0
H1136 H 0.36956 0.14595 0.54628 0.0
H1137 H 0.41593 0.19239 0.5192 0.0
H1138 H 0.42556 0.18997 0.53265 0.0
H1139 H 0.41794 0.19996 0.53601 0.0
H1140 H 0.35582 0.15448 0.53862 0.0
H1141 H 0.36186 0.16189 0.52194 0.0
H1142 H 0.36423 0.17264 0.53652 0.0
H1143 H 0.38743 0.25926 0.53592 0.0
H1144 H 0.40087 0.28402 0.53215 0.0
H1145 H 0.40974 0.27594 0.52606 0.0
H1146 H 0.41522 0.28561 0.54212 0.0
H1147 H 0.42121 0.25317 0.54146 0.0
H1148 H 0.37791 0.23724 0.54326 0.0
H1149 H 0.4195 0.2283 0.51905 0.0
H1150 H 0.41974 0.22274 0.53623 0.0
H1151 H 0.43024 0.24056 0.53236 0.0
H1152 H 0.36139 0.21416 0.53805 0.0
H1153 H 0.36716 0.20233 0.53656 0.0
H1154 H 0.36605 0.21067 0.5215 0.0
H1155 H 0.37373 0.18971 0.44803 0.0
H1156 H 0.38002 0.16356 0.48256 0.0
H1157 H 0.38523 0.16627 0.5069 0.0
H1158 H 0.39402 0.20025 0.54158 0.0
H1159 H 0.39101 0.22777 0.50631 0.0
H1160 H 0.38583 0.22506 0.48205 0.0
H1161 H 0.41724 0.14046 0.54797 0.0
H1162 H 0.40058 0.13198 0.53924 0.0
H1163 H 0.41259 0.14977 0.53673 0.0
C1164 C 0.85106 0.23596 0.40115 0.0
C1165 C 0.86087 0.24529 0.41282 0.0
C1166 C 0.84948 0.22968 0.43204 0.0
C1167 C 0.83873 0.23206 0.43386 0.0
C1168 C 0.82746 0.22342 0.44202 0.0
C1169 C 0.82684 0.21209 0.44829 0.0
C1170 C 0.83773 0.20977 0.44656 0.0
C1171 C 0.84903 0.21877 0.43865 0.0
C1172 C 0.81614 0.22634 0.44385 0.0
C1173 C 0.83733 0.19766 0.45284 0.0
C1174 C 0.74599 0.15225 0.39342 0.0
C1175 C 0.75005 0.14605 0.40507 0.0
C1176 C 0.75732 0.15714 0.42767 0.0
C1177 C 0.76727 0.15399 0.43123 0.0
C1178 C 0.77794 0.16216 0.44077 0.0
C1179 C 0.7787 0.17377 0.44675 0.0
C1180 C 0.76834 0.17664 0.44358 0.0
C1181 C 0.75762 0.16811 0.43422 0.0
C1182 C 0.78857 0.15858 0.44422 0.0
C1183 C 0.76886 0.18897 0.44969 0.0
C1184 C 0.75192 0.15647 0.53322 0.0
C1185 C 0.76052 0.15182 0.52917 0.0
C1186 C 0.77346 0.16081 0.52362 0.0
C1187 C 0.77768 0.17462 0.52184 0.0
C1188 C 0.76927 0.17941 0.52655 0.0
C1189 C 0.75657 0.17027 0.53238 0.0
C1190 C 0.78246 0.15549 0.51934 0.0
C1191 C 0.77349 0.19409 0.52505 0.0
C1192 C 0.87293 0.26525 0.53244 0.0
C1193 C 0.86607 0.25784 0.54581 0.0
C1194 C 0.84952 0.23439 0.53745 0.0
C1195 C 0.84732 0.22133 0.53608 0.0
C1196 C 0.83565 0.21089 0.52899 0.0
C1197 C 0.82585 0.21357 0.52329 0.0
C1198 C 0.82777 0.22663 0.525 0.0
C1199 C 0.83965 0.23695 0.53191 0.0
C1200 C 0.83395 0.19709 0.52729 0.0
C1201 C 0.8174 0.22978 0.51926 0.0
C1202 C 0.81459 0.20243 0.45625 0.0
C1203 C 0.80277 0.19287 0.44879 0.0
C1204 C 0.79083 0.18341 0.45551 0.0
C1205 C 0.79062 0.18336 0.47013 0.0
C1206 C 0.7788 0.17398 0.47723 0.0
C1207 C 0.77864 0.17416 0.49161 0.0
C1208 C 0.79038 0.18357 0.49948 0.0
C1209 C 0.79032 0.18382 0.51412 0.0
C1210 C 0.80212 0.19345 0.5216 0.0
C1211 C 0.81401 0.20299 0.51483 0.0
C1212 C 0.8143 0.20281 0.50021 0.0
C1213 C 0.8261 0.21225 0.49308 0.0
C1214 C 0.8262 0.21221 0.47869 0.0
C1215 C 0.81456 0.20261 0.47087 0.0
C1216 C 0.80255 0.19299 0.47783 0.0
C1217 C 0.80244 0.19307 0.49252 0.0
C1218 C 0.71605 0.13257 0.53135 0.0
C1219 C 0.73023 0.13453 0.53415 0.0
O1220 O 0.86039 0.23753 0.42392 0.0
O1221 O 0.86135 0.24413 0.54397 0.0
O1222 O 0.73914 0.14801 0.5381 0.0
O1223 O 0.74754 0.14997 0.41772 0.0
H1224 H 0.85787 0.25259 0.41618 0.0
H1225 H 0.84032 0.23006 0.40477 0.0
H1226 H 0.85405 0.22869 0.39764 0.0
H1227 H 0.85122 0.24199 0.3922 0.0
H1228 H 0.83906 0.24061 0.42898 0.0
H1229 H 0.85742 0.21708 0.43723 0.0
H1230 H 0.80666 0.21837 0.43833 0.0
H1231 H 0.81892 0.23641 0.43975 0.0
H1232 H 0.81373 0.22604 0.45498 0.0
H1233 H 0.84585 0.19648 0.44924 0.0
H1234 H 0.82738 0.1882 0.45021 0.0
H1235 H 0.83816 0.19885 0.46428 0.0
H1236 H 0.76128 0.15027 0.40391 0.0
H1237 H 0.74753 0.14888 0.38318 0.0
H1238 H 0.75255 0.16352 0.39413 0.0
H1239 H 0.73508 0.14933 0.39418 0.0
H1240 H 0.76675 0.14521 0.42646 0.0
H1241 H 0.74978 0.17034 0.4315 0.0
H1242 H 0.79006 0.15872 0.45562 0.0
H1243 H 0.79859 0.1663 0.43986 0.0
H1244 H 0.78566 0.14841 0.44 0.0
H1245 H 0.76031 0.19006 0.44574 0.0
H1246 H 0.77879 0.19829 0.44725 0.0
H1247 H 0.76828 0.18822 0.46112 0.0
H1248 H 0.73352 0.13211 0.52431 0.0
H1249 H 0.75716 0.14121 0.53034 0.0
H1250 H 0.74994 0.17377 0.53585 0.0
H1251 H 0.78235 0.15473 0.50788 0.0
H1252 H 0.77886 0.14528 0.52357 0.0
H1253 H 0.79327 0.1626 0.52287 0.0
H1254 H 0.76534 0.19596 0.52834 0.0
H1255 H 0.77597 0.19717 0.51412 0.0
H1256 H 0.78291 0.20067 0.53146 0.0
H1257 H 0.85741 0.25928 0.54808 0.0
H1258 H 0.87489 0.27573 0.53266 0.0
H1259 H 0.86607 0.25989 0.52333 0.0
H1260 H 0.88274 0.26559 0.53096 0.0
H1261 H 0.85495 0.21942 0.54038 0.0
H1262 H 0.84114 0.24697 0.53275 0.0
H1263 H 0.8333 0.19446 0.51612 0.0
H1264 H 0.82418 0.18926 0.53198 0.0
H1265 H 0.84259 0.19669 0.53219 0.0
H1266 H 0.81955 0.23989 0.52284 0.0
H1267 H 0.80687 0.22189 0.52236 0.0
H1268 H 0.81758 0.22966 0.50778 0.0
H1269 H 0.80287 0.19281 0.43757 0.0
H1270 H 0.7695 0.16644 0.47173 0.0
H1271 H 0.76916 0.1668 0.49646 0.0
H1272 H 0.80193 0.19374 0.53281 0.0
H1273 H 0.83541 0.21982 0.49853 0.0
H1274 H 0.83553 0.2198 0.47379 0.0
H1275 H 0.71192 0.13422 0.54101 0.0
H1276 H 0.70866 0.12221 0.52713 0.0
H1277 H 0.71691 0.14 0.52359 0.0
C1278 C 0.01963 0.47258 0.27685 0.0
C1279 C 0.01164 0.46129 0.26594 0.0
C1280 C 0.01382 0.47208 0.24389 0.0
C1281 C -0.0 0.46664 0.23998 0.0
C1282 C 0.99619 0.4737 0.23107 0.0
C1283 C 0.00646 0.48642 0.22594 0.0
C1284 C 0.02047 0.49163 0.22937 0.0
C1285 C 0.02399 0.48428 0.23822 0.0
C1286 C 0.98118 0.4677 0.22736 0.0
C1287 C 0.03166 0.50509 0.22397 0.0
C1288 C 0.96453 0.5448 0.24718 0.0
C1289 C 0.97729 0.54757 0.25557 0.0
C1290 C 0.98889 0.5395 0.24044 0.0
C1291 C 0.00069 0.54375 0.23277 0.0
C1292 C 0.00278 0.53438 0.22568 0.0
C1293 C 0.99261 0.52035 0.22605 0.0
C1294 C 0.98066 0.51592 0.23387 0.0
C1295 C 0.97895 0.52552 0.24109 0.0
C1296 C 0.01581 0.5395 0.2177 0.0
C1297 C 0.96962 0.50104 0.23444 0.0
C1298 C 0.96728 0.52412 0.14044 0.0
C1299 C 0.98146 0.53159 0.14348 0.0
C1300 C 0.988 0.52521 0.14915 0.0
C1301 C 0.98012 0.51115 0.152 0.0
C1302 C 0.96595 0.50351 0.14829 0.0
C1303 C 0.95975 0.5101 0.14237 0.0
C1304 C 0.00324 0.53356 0.15244 0.0
C1305 C 0.95726 0.48849 0.15104 0.0
C1306 C 0.03768 0.46254 0.13742 0.0
C1307 C 0.02211 0.45585 0.13499 0.0
C1308 C 0.01389 0.4714 0.13616 0.0
C1309 C 0.02074 0.48554 0.13696 0.0
C1310 C 0.01522 0.49202 0.14435 0.0
C1311 C 0.00229 0.48407 0.15063 0.0
C1312 C 0.99493 0.46972 0.1491 0.0
C1313 C 0.00094 0.46351 0.14203 0.0
C1314 C 0.02335 0.50734 0.14565 0.0
C1315 C 0.98084 0.46095 0.15506 0.0
C1316 C 0.00236 0.49457 0.21769 0.0
C1317 C -0.00064 0.50322 0.22489 0.0
C1318 C 0.99444 0.51044 0.21797 0.0
C1319 C 0.99198 0.50869 0.20351 0.0
C1320 C 0.98605 0.51498 0.19637 0.0
C1321 C 0.98397 0.51345 0.1821 0.0
C1322 C 0.98803 0.50583 0.17436 0.0
C1323 C 0.98642 0.50464 0.15978 0.0
C1324 C 0.99084 0.49722 0.15238 0.0
C1325 C 0.99679 0.49083 0.15917 0.0
C1326 C 0.99814 0.4916 0.17379 0.0
C1327 C 0.00379 0.48506 0.18103 0.0
C1328 C 0.00492 0.48578 0.19541 0.0
C1329 C 0.00099 0.49352 0.20309 0.0
C1330 C 0.99559 0.50046 0.196 0.0
C1331 C 0.99387 0.49925 0.18138 0.0
C1332 C 0.94925 0.54009 0.14635 0.0
C1333 C 0.96266 0.54247 0.14042 0.0
O1334 O 0.01758 0.46577 0.25314 0.0
O1335 O 0.0199 0.46559 0.12943 0.0
O1336 O 0.96056 0.53014 0.13564 0.0
O1337 O 0.98755 0.54927 0.24682 0.0
H1338 H 0.00087 0.45898 0.26575 0.0
H1339 H 0.01908 0.48162 0.2742 0.0
H1340 H 0.03062 0.47566 0.27735 0.0
H1341 H 0.0151 0.46908 0.2872 0.0
H1342 H 0.99217 0.45689 0.24391 0.0
H1343 H 0.03466 0.48827 0.24114 0.0
H1344 H 0.97776 0.47443 0.23145 0.0
H1345 H 0.97453 0.45739 0.23161 0.0
H1346 H 0.97972 0.46709 0.21594 0.0
H1347 H 0.04209 0.50758 0.2273 0.0
H1348 H 0.03012 0.51331 0.22771 0.0
H1349 H 0.03106 0.50493 0.21249 0.0
H1350 H 0.97441 0.53886 0.26249 0.0
H1351 H 0.95646 0.54378 0.25423 0.0
H1352 H 0.96018 0.53522 0.24102 0.0
H1353 H 0.96716 0.5532 0.23993 0.0
H1354 H 0.00832 0.55454 0.23237 0.0
H1355 H 0.96978 0.52201 0.24703 0.0
H1356 H 0.02062 0.53354 0.22027 0.0
H1357 H 0.02342 0.55043 0.21988 0.0
H1358 H 0.0133 0.53813 0.20644 0.0
H1359 H 0.96048 0.4993 0.24015 0.0
H1360 H 0.97384 0.49541 0.23961 0.0
H1361 H 0.96629 0.49673 0.22379 0.0
H1362 H 0.97048 0.54673 0.14903 0.0
H1363 H 0.9874 0.54238 0.14145 0.0
H1364 H 0.94886 0.50442 0.13973 0.0
H1365 H 0.00493 0.53481 0.16383 0.0
H1366 H 0.00822 0.54382 0.14785 0.0
H1367 H 0.00834 0.52826 0.14857 0.0
H1368 H 0.94634 0.48405 0.14773 0.0
H1369 H 0.95768 0.48672 0.16226 0.0
H1370 H 0.96146 0.48306 0.14544 0.0
H1371 H 0.01711 0.45246 0.14519 0.0
H1372 H 0.0401 0.45595 0.14354 0.0
H1373 H 0.04179 0.47223 0.14337 0.0
H1374 H 0.04303 0.46481 0.12739 0.0
H1375 H 0.03065 0.49149 0.13216 0.0
H1376 H 0.99552 0.45253 0.14098 0.0
H1377 H 0.02447 0.51055 0.15669 0.0
H1378 H 0.01772 0.51143 0.14014 0.0
H1379 H 0.03375 0.51193 0.14122 0.0
H1380 H 0.97561 0.45029 0.15109 0.0
H1381 H 0.97428 0.46516 0.15257 0.0
H1382 H 0.98179 0.46087 0.16649 0.0
H1383 H 0.00089 0.50435 0.23605 0.0
H1384 H 0.98288 0.52111 0.20176 0.0
H1385 H 0.97928 0.51848 0.17722 0.0
H1386 H 0.98979 0.49655 0.14118 0.0
H1387 H 0.00728 0.4792 0.17567 0.0
H1388 H 0.00918 0.4804 0.20043 0.0
H1389 H 0.9507 0.5498 0.15039 0.0
H1390 H 0.94607 0.53287 0.15502 0.0
H1391 H 0.9409 0.53573 0.1383 0.0
C1392 C 0.46636 0.39945 0.25493 0.0
C1393 C 0.4649 0.41088 0.26117 0.0
C1394 C 0.47278 0.42898 0.24403 0.0
C1395 C 0.46867 0.43649 0.23636 0.0
C1396 C 0.47823 0.44801 0.22912 0.0
C1397 C 0.49221 0.45181 0.22917 0.0
C1398 C 0.49644 0.44418 0.23682 0.0
C1399 C 0.48672 0.43296 0.24431 0.0
C1400 C 0.47336 0.45608 0.2214 0.0
C1401 C 0.51123 0.44787 0.23711 0.0
C1402 C 0.57291 0.54786 0.2721 0.0
C1403 C 0.5626 0.53411 0.26644 0.0
C1404 C 0.55035 0.52279 0.24527 0.0
C1405 C 0.55238 0.51193 0.24357 0.0
C1406 C 0.54296 0.50034 0.23574 0.0
C1407 C 0.53115 0.49952 0.22976 0.0
C1408 C 0.52906 0.51048 0.23156 0.0
C1409 C 0.53887 0.52212 0.2391 0.0
C1410 C 0.54573 0.48903 0.23374 0.0
C1411 C 0.51654 0.50992 0.22544 0.0
C1412 C 0.55419 0.52287 0.14561 0.0
C1413 C 0.55748 0.51301 0.1486 0.0
C1414 C 0.54746 0.50022 0.15345 0.0
C1415 C 0.53388 0.49723 0.15522 0.0
C1416 C 0.5303 0.50674 0.15119 0.0
C1417 C 0.54054 0.51944 0.14634 0.0
C1418 C 0.55149 0.49012 0.15727 0.0
C1419 C 0.51585 0.50375 0.15269 0.0
C1420 C 0.45858 0.38721 0.14876 0.0
C1421 C 0.46036 0.3997 0.14142 0.0
C1422 C 0.48197 0.42163 0.14329 0.0
C1423 C 0.49576 0.42675 0.14681 0.0
C1424 C 0.50401 0.4398 0.15276 0.0
C1425 C 0.49834 0.44799 0.15495 0.0
C1426 C 0.48466 0.44323 0.15048 0.0
C1427 C 0.47659 0.43007 0.14469 0.0
C1428 C 0.51863 0.44465 0.15716 0.0
C1429 C 0.47846 0.45188 0.15224 0.0
C1430 C 0.50237 0.46366 0.22112 0.0
C1431 C 0.51132 0.47582 0.22831 0.0
C1432 C 0.5212 0.48732 0.22138 0.0
C1433 C 0.52193 0.48688 0.20681 0.0
C1434 C 0.5315 0.49836 0.19948 0.0
C1435 C 0.53209 0.49784 0.18516 0.0
C1436 C 0.52334 0.48573 0.17761 0.0
C1437 C 0.52402 0.48507 0.16305 0.0
C1438 C 0.51558 0.47277 0.15588 0.0
C1439 C 0.50636 0.461 0.16292 0.0
C1440 C 0.50527 0.46155 0.17745 0.0
C1441 C 0.49598 0.44996 0.18485 0.0
C1442 C 0.495 0.45061 0.19913 0.0
C1443 C 0.50332 0.46286 0.20661 0.0
C1444 C 0.51297 0.47459 0.19941 0.0
C1445 C 0.51381 0.47397 0.1848 0.0
C1446 C 0.57756 0.5503 0.16078 0.0
C1447 C 0.57728 0.54334 0.14707 0.0
O1448 O 0.46294 0.41795 0.2508 0.0
O1449 O 0.47415 0.40852 0.13871 0.0
O1450 O 0.56383 0.53573 0.14201 0.0
O1451 O 0.55957 0.53414 0.25251 0.0
H1452 H 0.47445 0.41785 0.2673 0.0
H1453 H 0.47584 0.40373 0.24882 0.0
H1454 H 0.45749 0.39269 0.24794 0.0
H1455 H 0.46706 0.39329 0.2633 0.0
H1456 H 0.45791 0.43337 0.23622 0.0
H1457 H 0.49011 0.42728 0.25017 0.0
H1458 H 0.48031 0.46712 0.2237 0.0
H1459 H 0.4627 0.45302 0.22409 0.0
H1460 H 0.4736 0.45446 0.2101 0.0
H1461 H 0.51239 0.43965 0.24146 0.0
H1462 H 0.51745 0.45717 0.24363 0.0
H1463 H 0.51547 0.45009 0.22654 0.0
H1464 H 0.55317 0.52818 0.2727 0.0
H1465 H 0.58958 0.54608 0.27796 0.0
H1466 H 0.56713 0.55035 0.27969 0.0
H1467 H 0.57373 0.5553 0.26417 0.0
H1468 H 0.56147 0.51263 0.24808 0.0
H1469 H 0.5375 0.53066 0.24042 0.0
H1470 H 0.54529 0.48654 0.22254 0.0
H1471 H 0.53765 0.47976 0.23886 0.0
H1472 H 0.55593 0.4917 0.2381 0.0
H1473 H 0.5158 0.51873 0.22883 0.0
H1474 H 0.50706 0.50039 0.22846 0.0
H1475 H 0.51694 0.50985 0.21398 0.0
H1476 H 0.58155 0.53686 0.14938 0.0
H1477 H 0.56782 0.51518 0.14724 0.0
H1478 H 0.53803 0.52699 0.14367 0.0
H1479 H 0.55042 0.48838 0.16858 0.0
H1480 H 0.56225 0.49364 0.15449 0.0
H1481 H 0.54446 0.48022 0.15193 0.0
H1482 H 0.51437 0.51153 0.1477 0.0
H1483 H 0.51356 0.50347 0.16385 0.0
H1484 H 0.50834 0.49361 0.14806 0.0
H1485 H 0.45661 0.40442 0.14883 0.0
H1486 H 0.44751 0.37971 0.15042 0.0
H1487 H 0.46397 0.39033 0.15902 0.0
H1488 H 0.46304 0.38227 0.14272 0.0
H1489 H 0.49988 0.42026 0.14541 0.0
H1490 H 0.46609 0.42638 0.14136 0.0
H1491 H 0.51998 0.44677 0.16849 0.0
H1492 H 0.52579 0.45429 0.15194 0.0
H1493 H 0.52153 0.43709 0.15466 0.0
H1494 H 0.46819 0.44728 0.14702 0.0
H1495 H 0.4854 0.46214 0.14801 0.0
H1496 H 0.47733 0.45321 0.16343 0.0
H1497 H 0.51073 0.47628 0.23947 0.0
H1498 H 0.53859 0.50792 0.20472 0.0
H1499 H 0.5396 0.50706 0.18013 0.0
H1500 H 0.51636 0.4723 0.14474 0.0
H1501 H 0.48932 0.44023 0.1797 0.0
H1502 H 0.48766 0.44135 0.20424 0.0
H1503 H 0.57305 0.55672 0.15935 0.0
H1504 H 0.58826 0.5566 0.16498 0.0
H1505 H 0.57138 0.54246 0.16851 0.0
C1506 C 0.41805 0.97002 0.2447 0.0
C1507 C 0.42916 0.97977 0.25521 0.0
C1508 C 0.451 0.99193 0.24288 0.0
C1509 C 0.46131 0.00479 0.23873 0.0
C1510 C 0.47313 0.00675 0.23236 0.0
C1511 C 0.47447 0.99544 0.2298 0.0
C1512 C 0.46419 0.98239 0.23416 0.0
C1513 C 0.45256 0.98076 0.24075 0.0
C1514 C 0.48401 0.02088 0.22806 0.0
C1515 C 0.46533 0.97013 0.23148 0.0
C1516 C 0.57532 0.02912 0.25313 0.0
C1517 C 0.56423 0.01649 0.26057 0.0
C1518 C 0.54416 0.00579 0.2445 0.0
C1519 C 0.53557 0.9941 0.23653 0.0
C1520 C 0.52405 0.9925 0.2293 0.0
C1521 C 0.52132 0.00312 0.22972 0.0
C1522 C 0.52995 0.015 0.2378 0.0
C1523 C 0.54117 0.01614 0.24526 0.0
C1524 C 0.51485 0.97948 0.22118 0.0
C1525 C 0.5274 0.02656 0.23844 0.0
C1526 C 0.55033 0.02287 0.14671 0.0
C1527 C 0.54105 0.00882 0.14781 0.0
C1528 C 0.52761 0.0038 0.15227 0.0
C1529 C 0.5235 0.01305 0.15577 0.0
C1530 C 0.5325 0.02712 0.15361 0.0
C1531 C 0.5458 0.03182 0.14894 0.0
C1532 C 0.51805 0.9887 0.15394 0.0
C1533 C 0.52834 0.03723 0.15694 0.0
C1534 C 0.41675 0.98825 0.1522 0.0
C1535 C 0.42955 0.99802 0.14413 0.0
C1536 C 0.44909 0.99463 0.14483 0.0
C1537 C 0.45168 0.98412 0.14578 0.0
C1538 C 0.46428 0.98654 0.15109 0.0
C1539 C 0.47455 -0.00015 0.15545 0.0
C1540 C 0.47236 0.01071 0.15359 0.0
C1541 C 0.45966 0.00801 0.14819 0.0
C1542 C 0.4664 0.97477 0.15266 0.0
C1543 C 0.48326 0.02509 0.15779 0.0
C1544 C 0.48615 0.9972 0.22164 0.0
C1545 C 0.49768 0.99878 0.22871 0.0
C1546 C 0.50952 0.00182 0.22163 0.0
C1547 C 0.50998 0.00359 0.20713 0.0
C1548 C 0.52201 0.00757 0.1998 0.0
C1549 C 0.52231 0.0092 0.18555 0.0
C1550 C 0.51055 0.00678 0.17804 0.0
C1551 C 0.51072 0.00833 0.16352 0.0
C1552 C 0.49888 0.00591 0.15636 0.0
C1553 C 0.48681 0.00212 0.16341 0.0
C1554 C 0.48648 0.00065 0.17794 0.0
C1555 C 0.47456 0.99704 0.18535 0.0
C1556 C 0.4744 0.99582 0.19964 0.0
C1557 C 0.48612 0.99809 0.20708 0.0
C1558 C 0.49814 0.00147 0.19982 0.0
C1559 C 0.49837 0.00291 0.18524 0.0
C1560 C 0.58429 0.03434 0.15595 0.0
C1561 C 0.57189 0.02316 0.14767 0.0
O1562 O 0.43968 0.99082 0.24857 0.0
O1563 O 0.43633 0.99141 0.14056 0.0
O1564 O 0.56371 0.02817 0.14362 0.0
O1565 O 0.55521 0.00665 0.25108 0.0
H1566 H 0.43327 0.97423 0.26083 0.0
H1567 H 0.42235 0.96589 0.2373 0.0
H1568 H 0.41392 0.97532 0.2387 0.0
H1569 H 0.40946 0.96133 0.25011 0.0
H1570 H 0.46002 0.01333 0.24046 0.0
H1571 H 0.44467 0.97071 0.24388 0.0
H1572 H 0.49439 0.02318 0.23139 0.0
H1573 H 0.48233 0.02879 0.23247 0.0
H1574 H 0.48388 0.02145 0.2166 0.0
H1575 H 0.45635 0.96062 0.23534 0.0
H1576 H 0.47483 0.97168 0.2366 0.0
H1577 H 0.46616 0.9689 0.2202 0.0
H1578 H 0.5585 0.01951 0.26743 0.0
H1579 H 0.58281 0.03675 0.26079 0.0
H1580 H 0.57067 0.03393 0.24717 0.0
H1581 H 0.58093 0.02641 0.24578 0.0
H1582 H 0.53789 0.98614 0.23606 0.0
H1583 H 0.54759 0.02522 0.25148 0.0
H1584 H 0.51639 0.9815 0.20995 0.0
H1585 H 0.50387 0.97559 0.22326 0.0
H1586 H 0.51709 0.97146 0.22369 0.0
H1587 H 0.53597 0.03574 0.24379 0.0
H1588 H 0.5178 0.02329 0.2441 0.0
H1589 H 0.526 0.02934 0.22784 0.0
H1590 H 0.5663 0.01435 0.15462 0.0
H1591 H 0.54433 0.0018 0.14537 0.0
H1592 H 0.55297 0.04262 0.14769 0.0
H1593 H 0.517 0.98632 0.16512 0.0
H1594 H 0.5219 0.98277 0.14874 0.0
H1595 H 0.50764 0.98538 0.14967 0.0
H1596 H 0.53645 0.0478 0.1544 0.0
H1597 H 0.52612 0.03688 0.16812 0.0
H1598 H 0.51877 0.03449 0.15106 0.0
H1599 H 0.43602 0.00696 0.15107 0.0
H1600 H 0.41112 0.99329 0.15526 0.0
H1601 H 0.41982 0.98513 0.16175 0.0
H1602 H 0.40974 0.97899 0.14587 0.0
H1603 H 0.44357 0.97388 0.14282 0.0
H1604 H 0.45806 0.01635 0.14669 0.0
H1605 H 0.4668 0.9728 0.16383 0.0
H1606 H 0.47638 0.97734 0.14822 0.0
H1607 H 0.45801 0.96532 0.14753 0.0
H1608 H 0.48025 0.03251 0.15505 0.0
H1609 H 0.49306 0.02803 0.15268 0.0
H1610 H 0.48519 0.0257 0.16914 0.0
H1611 H 0.4975 0.99783 0.23987 0.0
H1612 H 0.53137 0.00956 0.205 0.0
H1613 H 0.53191 0.01235 0.18053 0.0
H1614 H 0.4991 0.00715 0.14524 0.0
H1615 H 0.46522 0.99519 0.18022 0.0
H1616 H 0.46493 0.99304 0.20476 0.0
H1617 H 0.59053 0.04336 0.14944 0.0
H1618 H 0.59091 0.03059 0.1598 0.0
H1619 H 0.5807 0.0375 0.16502 0.0
C1620 C 0.52489 0.97075 0.7382 0.0
C1621 C 0.53482 0.98287 0.74752 0.0
C1622 C 0.52814 0.98422 0.77088 0.0
C1623 C 0.53412 0.99829 0.77259 0.0
C1624 C 0.52888 0.00355 0.78215 0.0
C1625 C 0.51731 0.99451 0.78998 0.0
C1626 C 0.51144 0.98029 0.78842 0.0
C1627 C 0.51717 0.97535 0.77909 0.0
C1628 C 0.53556 0.01875 0.78372 0.0
C1629 C 0.4989 0.97027 0.79631 0.0
C1630 C 0.44547 0.01497 0.74925 0.0
C1631 C 0.45681 0.01439 0.75638 0.0
C1632 C 0.46644 0.01479 0.77858 0.0
C1633 C 0.46184 0.0026 0.78544 0.0
C1634 C 0.47109 0.00033 0.79284 0.0
C1635 C 0.48521 0.01069 0.79366 0.0
C1636 C 0.48981 0.02322 0.78709 0.0
C1637 C 0.48034 0.02509 0.77951 0.0
C1638 C 0.46581 0.98674 0.79951 0.0
C1639 C 0.50472 0.03454 0.78795 0.0
C1640 C 0.47233 0.01828 0.8789 0.0
C1641 C 0.46768 0.00458 0.87615 0.0
C1642 C 0.47654 0.00082 0.87068 0.0
C1643 C 0.49036 0.01099 0.86811 0.0
C1644 C 0.49537 0.02465 0.87211 0.0
C1645 C 0.48625 0.02812 0.87754 0.0
C1646 C 0.47098 0.98608 0.86707 0.0
C1647 C 0.51012 0.03567 0.86982 0.0
C1648 C 0.54846 0.95974 0.86794 0.0
C1649 C 0.54992 0.97198 0.87581 0.0
C1650 C 0.53148 0.97676 0.87471 0.0
C1651 C 0.51749 0.96986 0.87118 0.0
C1652 C 0.51142 0.97681 0.86593 0.0
C1653 C 0.51953 0.9911 0.86453 0.0
C1654 C 0.53353 0.99826 0.86886 0.0
C1655 C 0.5394 0.991 0.8739 0.0
C1656 C 0.49644 0.96882 0.86149 0.0
C1657 C 0.54235 0.01351 0.86781 0.0
C1658 C 0.51085 -0.00012 0.79917 0.0
C1659 C 0.50232 0.00378 0.79298 0.0
C1660 C 0.49518 0.00813 0.80094 0.0
C1661 C 0.4967 0.00883 0.81551 0.0
C1662 C 0.48982 0.01333 0.8238 0.0
C1663 C 0.49071 0.01321 0.83815 0.0
C1664 C 0.49851 0.00857 0.84478 0.0
C1665 C 0.4988 0.00765 0.85937 0.0
C1666 C 0.50623 0.0025 0.8656 0.0
C1667 C 0.51349 0.99828 0.85761 0.0
C1668 C 0.51367 -0.00046 0.84305 0.0
C1669 C 0.52112 0.9957 0.83473 0.0
C1670 C 0.5206 0.99624 0.82037 0.0
C1671 C 0.51231 0.00029 0.81376 0.0
C1672 C 0.5051 0.00466 0.82195 0.0
C1673 C 0.50591 0.00443 0.83661 0.0
C1674 C 0.45245 0.02892 0.86595 0.0
C1675 C 0.45101 0.01788 0.8757 0.0
O1676 O 0.53262 0.97894 0.76121 0.0
O1677 O 0.53693 0.96935 0.87886 0.0
O1678 O 0.46352 0.0223 0.88243 0.0
O1679 O 0.45752 0.01633 0.77061 0.0
H1680 H 0.53244 0.99094 0.74564 0.0
H1681 H 0.51411 0.9674 0.7407 0.0
H1682 H 0.52635 0.96207 0.73974 0.0
H1683 H 0.52653 0.97366 0.72715 0.0
H1684 H 0.54286 0.00513 0.76643 0.0
H1685 H 0.51273 0.9645 0.77772 0.0
H1686 H 0.5286 0.02182 0.77925 0.0
H1687 H 0.54555 0.02437 0.77838 0.0
H1688 H 0.5373 0.02181 0.79484 0.0
H1689 H 0.49443 0.95967 0.79239 0.0
H1690 H 0.49087 0.97292 0.79562 0.0
H1691 H 0.50176 0.97067 0.8074 0.0
H1692 H 0.46707 0.0203 0.75148 0.0
H1693 H 0.43252 0.99509 0.74143 0.0
H1694 H 0.45079 0.02405 0.74237 0.0
H1695 H 0.44192 0.01993 0.75679 0.0
H1696 H 0.45105 0.99471 0.78464 0.0
H1697 H 0.48376 0.03451 0.77418 0.0
H1698 H 0.46713 0.98815 0.81091 0.0
H1699 H 0.47186 0.98227 0.79605 0.0
H1700 H 0.45476 0.97942 0.79699 0.0
H1701 H 0.50643 0.04407 0.78336 0.0
H1702 H 0.51104 0.03136 0.78237 0.0
H1703 H 0.50839 0.03662 0.79892 0.0
H1704 H 0.4479 0.00883 0.86892 0.0
H1705 H 0.45703 0.99687 0.87792 0.0
H1706 H 0.4898 0.03864 0.88003 0.0
H1707 H 0.47205 0.9849 0.85583 0.0
H1708 H 0.45997 0.97941 0.86971 0.0
H1709 H 0.47706 0.9826 0.87275 0.0
H1710 H 0.51289 0.04537 0.87516 0.0
H1711 H 0.51172 0.03753 0.85857 0.0
H1712 H 0.51716 0.03241 0.87357 0.0
H1713 H 0.5553 0.9808 0.86882 0.0
H1714 H 0.55876 0.96162 0.86535 0.0
H1715 H 0.54252 0.95801 0.85813 0.0
H1716 H 0.54297 0.95041 0.87419 0.0
H1717 H 0.51144 0.9589 0.87209 0.0
H1718 H 0.55013 0.99643 0.87718 0.0
H1719 H 0.49538 0.97039 0.85034 0.0
H1720 H 0.49074 0.97255 0.86735 0.0
H1721 H 0.49158 0.95775 0.86323 0.0
H1722 H 0.55279 0.01768 0.87249 0.0
H1723 H 0.53731 0.0183 0.87305 0.0
H1724 H 0.5434 0.01635 0.85676 0.0
H1725 H 0.50091 0.00303 0.78181 0.0
H1726 H 0.48353 0.01685 0.81928 0.0
H1727 H 0.485 0.01662 0.84395 0.0
H1728 H 0.50595 0.00132 0.87673 0.0
H1729 H 0.52741 0.99216 0.83921 0.0
H1730 H 0.52654 0.99314 0.8145 0.0
H1731 H 0.4423 0.02593 0.86119 0.0
H1732 H 0.45955 0.03027 0.85753 0.0
H1733 H 0.45677 0.03884 0.87149 0.0
C1734 C 0.99312 0.53776 0.74423 0.0
C1735 C 0.98837 0.54348 0.75574 0.0
C1736 C 0.99591 0.53766 0.77677 0.0
C1737 C 0.98326 0.52814 0.7825 0.0
C1738 C 0.98229 0.51827 0.79156 0.0
C1739 C 0.99421 0.51796 0.79496 0.0
C1740 C 0.00709 0.52794 0.78971 0.0
C1741 C 0.00778 0.5378 0.78079 0.0
C1742 C 0.96848 0.50799 0.79729 0.0
C1743 C 0.02001 0.52794 0.79318 0.0
C1744 C 0.96201 0.43655 0.74346 0.0
C1745 C 0.97354 0.43912 0.75366 0.0
C1746 C 0.97384 0.4484 0.77646 0.0
C1747 C 0.98796 0.45802 0.77806 0.0
C1748 C 0.99271 0.46919 0.78718 0.0
C1749 C 0.98312 0.4707 0.79482 0.0
C1750 C 0.96893 0.46064 0.79373 0.0
C1751 C 0.9645 0.44949 0.78466 0.0
C1752 C 0.00794 0.47953 0.78843 0.0
C1753 C 0.95843 0.46191 0.80178 0.0
C1754 C 0.99588 0.45331 0.88141 0.0
C1755 C 0.00844 0.46363 0.87621 0.0
C1756 C 0.00943 0.47496 0.86984 0.0
C1757 C 0.99765 0.47601 0.86877 0.0
C1758 C 0.98516 0.46595 0.87461 0.0
C1759 C 0.98448 0.45475 0.88098 0.0
C1760 C 0.02299 0.48572 0.86403 0.0
C1761 C 0.97247 0.46687 0.87381 0.0
C1762 C 0.01669 0.57518 0.86907 0.0
C1763 C 0.00941 0.56701 0.88188 0.0
C1764 C 0.0121 0.54748 0.88134 0.0
C1765 C 0.02268 0.5454 0.87779 0.0
C1766 C 0.01974 0.53307 0.87168 0.0
C1767 C 0.00587 0.52255 0.86934 0.0
C1768 C 0.99513 0.52428 0.87381 0.0
C1769 C -0.00163 0.53675 0.87978 0.0
C1770 C 0.03142 0.53145 0.86724 0.0
C1771 C 0.98024 0.51308 0.8719 0.0
C1772 C 0.99303 0.50662 0.8032 0.0
C1773 C 0.98919 0.49451 0.79613 0.0
C1774 C 0.98777 0.48331 0.80308 0.0
C1775 C 0.99045 0.48421 0.81749 0.0
C1776 C 0.98943 0.47324 0.82474 0.0
C1777 C 0.992 0.47421 0.83895 0.0
C1778 C 0.99563 0.48618 0.84646 0.0
C1779 C 0.99823 0.48726 0.86091 0.0
C1780 C 0.00158 0.4992 0.8681 0.0
C1781 C 0.00255 0.51023 0.86118 0.0
C1782 C 0.00025 0.50945 0.84669 0.0
C1783 C 0.00137 0.52046 0.83938 0.0
C1784 C -0.00098 0.51958 0.82514 0.0
C1785 C 0.99546 0.50765 0.81766 0.0
C1786 C 0.99423 0.49641 0.82481 0.0
C1787 C 0.99671 0.49735 0.83933 0.0
C1788 C 0.98896 0.4217 0.87499 0.0
C1789 C 0.00019 0.43471 0.88235 0.0
O1790 O 0.99694 0.54676 0.76733 0.0
O1791 O 0.01547 0.55991 0.88626 0.0
O1792 O 0.99445 0.44197 0.88713 0.0
O1793 O 0.96891 0.43804 0.76704 0.0
H1794 H 0.97763 0.53551 0.75818 0.0
H1795 H 0.99234 0.52824 0.74767 0.0
H1796 H 0.00398 0.54517 0.74162 0.0
H1797 H 0.9865 0.53537 0.73479 0.0
H1798 H 0.97415 0.52839 0.77993 0.0
H1799 H 0.01753 0.54535 0.77648 0.0
H1800 H 0.96508 0.49775 0.79293 0.0
H1801 H 0.96047 0.51041 0.79477 0.0
H1802 H 0.96933 0.50753 0.80871 0.0
H1803 H 0.02921 0.53638 0.78822 0.0
H1804 H 0.01874 0.51814 0.78975 0.0
H1805 H 0.02181 0.52886 0.80456 0.0
H1806 H 0.98233 0.44959 0.75175 0.0
H1807 H 0.96549 0.43737 0.73264 0.0
H1808 H 0.95913 0.44425 0.7452 0.0
H1809 H 0.95275 0.42628 0.74487 0.0
H1810 H 0.99526 0.45684 0.77213 0.0
H1811 H 0.95363 0.44186 0.78349 0.0
H1812 H 0.01127 0.48142 0.79949 0.0
H1813 H 0.01009 0.48932 0.78411 0.0
H1814 H 0.01415 0.47622 0.78284 0.0
H1815 H 0.94778 0.45321 0.79975 0.0
H1816 H 0.95891 0.47146 0.79901 0.0
H1817 H 0.96082 0.46251 0.81303 0.0
H1818 H 0.00825 0.44056 0.87465 0.0
H1819 H 0.0175 0.46292 0.87719 0.0
H1820 H 0.97492 0.44685 0.8853 0.0
H1821 H 0.02188 0.48611 0.85265 0.0
H1822 H 0.03136 0.48375 0.86628 0.0
H1823 H 0.02602 0.49585 0.86843 0.0
H1824 H 0.96364 0.45839 0.87919 0.0
H1825 H 0.96945 0.46669 0.86281 0.0
H1826 H 0.97473 0.47666 0.87851 0.0
H1827 H -0.00159 0.55993 0.87891 0.0
H1828 H 0.01209 0.58111 0.8656 0.0
H1829 H 0.01551 0.56816 0.86049 0.0
H1830 H 0.02785 0.58227 0.87131 0.0
H1831 H 0.03326 0.55367 0.87933 0.0
H1832 H 0.99016 0.53808 0.88321 0.0
H1833 H 0.03089 0.52995 0.85583 0.0
H1834 H 0.03041 0.52226 0.87198 0.0
H1835 H 0.04164 0.54041 0.87021 0.0
H1836 H 0.97316 0.51556 0.87702 0.0
H1837 H 0.97862 0.50345 0.87614 0.0
H1838 H 0.97753 0.5113 0.86068 0.0
H1839 H 0.98716 0.49374 0.78505 0.0
H1840 H 0.98664 0.46379 0.8195 0.0
H1841 H 0.99104 0.46543 0.84398 0.0
H1842 H 0.00345 0.49992 0.8792 0.0
H1843 H 0.00409 0.52992 0.84457 0.0
H1844 H 2e-05 0.52835 0.82006 0.0
H1845 H 0.99329 0.41569 0.87104 0.0
H1846 H 0.98461 0.42434 0.86607 0.0
H1847 H 0.9805 0.41535 0.88215 0.0
C1848 C 0.52187 0.56697 0.7449 0.0
C1849 C 0.53177 0.57774 0.7556 0.0
C1850 C 0.52185 0.56389 0.77618 0.0
C1851 C 0.51093 0.56602 0.77794 0.0
C1852 C 0.49991 0.55752 0.7864 0.0
C1853 C 0.4997 0.54656 0.79305 0.0
C1854 C 0.51083 0.54456 0.79151 0.0
C1855 C 0.5219 0.55345 0.78328 0.0
C1856 C 0.48834 0.5601 0.78803 0.0
C1857 C 0.51087 0.53285 0.79825 0.0
C1858 C 0.39755 0.47192 0.77208 0.0
C1859 C 0.40861 0.4716 0.76359 0.0
C1860 C 0.42997 0.48374 0.77792 0.0
C1861 C 0.43962 0.48196 0.78503 0.0
C1862 C 0.45111 0.4929 0.79172 0.0
C1863 C 0.45278 0.50592 0.79159 0.0
C1864 C 0.44323 0.50791 0.78413 0.0
C1865 C 0.43196 0.4968 0.77724 0.0
C1866 C 0.46129 0.49044 0.79921 0.0
C1867 C 0.44478 0.52169 0.78375 0.0
C1868 C 0.42294 0.48942 0.87484 0.0
C1869 C 0.4325 0.48561 0.87203 0.0
C1870 C 0.44572 0.49524 0.86755 0.0
C1871 C 0.44936 0.50887 0.86579 0.0
C1872 C 0.44007 0.51289 0.86959 0.0
C1873 C 0.427 0.50309 0.87421 0.0
C1874 C 0.45559 0.49073 0.8641 0.0
C1875 C 0.44372 0.52739 0.8681 0.0
C1876 C 0.55475 0.58684 0.8738 0.0
C1877 C 0.54474 0.5865 0.88447 0.0
C1878 C 0.52342 0.56438 0.88184 0.0
C1879 C 0.51988 0.55106 0.87895 0.0
C1880 C 0.50749 0.54188 0.87199 0.0
C1881 C 0.49835 0.54613 0.86811 0.0
C1882 C 0.50151 0.55936 0.87175 0.0
C1883 C 0.51404 0.56838 0.87862 0.0
C1884 C 0.50433 0.52777 0.86842 0.0
C1885 C 0.49178 0.56405 0.86811 0.0
C1886 C 0.48746 0.53676 0.80091 0.0
C1887 C 0.47604 0.52665 0.79336 0.0
C1888 C 0.46405 0.51718 0.79998 0.0
C1889 C 0.46326 0.51788 0.8145 0.0
C1890 C 0.45111 0.50889 0.82139 0.0
C1891 C 0.45061 0.50922 0.83572 0.0
C1892 C 0.46229 0.51845 0.84375 0.0
C1893 C 0.46204 0.51847 0.85837 0.0
C1894 C 0.47386 0.52766 0.86605 0.0
C1895 C 0.48596 0.53703 0.85946 0.0
C1896 C 0.48633 0.53736 0.84484 0.0
C1897 C 0.49824 0.54687 0.83788 0.0
C1898 C 0.49856 0.54692 0.82349 0.0
C1899 C 0.4871 0.53724 0.81552 0.0
C1900 C 0.47494 0.52771 0.82232 0.0
C1901 C 0.4745 0.52788 0.83698 0.0
C1902 C 0.38835 0.4643 0.86741 0.0
C1903 C 0.40192 0.46681 0.87357 0.0
O1904 O 0.53237 0.57148 0.76755 0.0
O1905 O 0.53587 0.57303 0.88792 0.0
O1906 O 0.40974 0.48026 0.87813 0.0
O1907 O 0.41885 0.47248 0.77222 0.0
H1908 H 0.5282 0.58478 0.75807 0.0
H1909 H 0.5113 0.56109 0.74896 0.0
H1910 H 0.52529 0.55981 0.74239 0.0
H1911 H 0.52139 0.57185 0.73523 0.0
H1912 H 0.51092 0.57426 0.77273 0.0
H1913 H 0.53043 0.55197 0.78192 0.0
H1914 H 0.47894 0.55187 0.78263 0.0
H1915 H 0.49084 0.56999 0.78366 0.0
H1916 H 0.48594 0.55998 0.79914 0.0
H1917 H 0.51973 0.53204 0.79506 0.0
H1918 H 0.50119 0.52314 0.79556 0.0
H1919 H 0.51139 0.53419 0.80966 0.0
H1920 H 0.41311 0.48022 0.7563 0.0
H1921 H 0.38919 0.47084 0.76512 0.0
H1922 H 0.40199 0.4817 0.77789 0.0
H1923 H 0.39308 0.46355 0.77964 0.0
H1924 H 0.43804 0.47186 0.78539 0.0
H1925 H 0.42465 0.49837 0.77164 0.0
H1926 H 0.46002 0.49074 0.81054 0.0
H1927 H 0.472 0.49852 0.79685 0.0
H1928 H 0.45979 0.4804 0.79639 0.0
H1929 H 0.43609 0.52143 0.7781 0.0
H1930 H 0.4545 0.52899 0.77861 0.0
H1931 H 0.44542 0.52558 0.79446 0.0
H1932 H 0.40716 0.46474 0.86515 0.0
H1933 H 0.42962 0.47513 0.87317 0.0
H1934 H 0.41963 0.50596 0.87674 0.0
H1935 H 0.45657 0.49061 0.8527 0.0
H1936 H 0.45207 0.4804 0.86796 0.0
H1937 H 0.46597 0.49802 0.86861 0.0
H1938 H 0.43552 0.52896 0.87191 0.0
H1939 H 0.44548 0.53023 0.85705 0.0
H1940 H 0.45343 0.53435 0.87395 0.0
H1941 H 0.53914 0.59095 0.87962 0.0
H1942 H 0.56052 0.5969 0.86882 0.0
H1943 H 0.54892 0.57918 0.86542 0.0
H1944 H 0.56208 0.58446 0.87873 0.0
H1945 H 0.5271 0.54802 0.88177 0.0
H1946 H 0.51642 0.57847 0.88151 0.0
H1947 H 0.50346 0.52625 0.857 0.0
H1948 H 0.49428 0.52008 0.87274 0.0
H1949 H 0.51237 0.52594 0.87245 0.0
H1950 H 0.49528 0.57431 0.8725 0.0
H1951 H 0.48136 0.55672 0.87196 0.0
H1952 H 0.49088 0.56435 0.85668 0.0
H1953 H 0.47655 0.52605 0.7822 0.0
H1954 H 0.44184 0.50146 0.81578 0.0
H1955 H 0.44096 0.50201 0.84041 0.0
H1956 H 0.47365 0.5275 0.87727 0.0
H1957 H 0.50747 0.5544 0.84347 0.0
H1958 H 0.50798 0.5545 0.8187 0.0
H1959 H 0.3825 0.46607 0.87537 0.0
H1960 H 0.38194 0.45371 0.86329 0.0
H1961 H 0.39045 0.47135 0.85875 0.0
C1962 C 0.62257 0.77385 0.61284 0.0
C1963 C 0.61976 0.76311 0.60166 0.0
C1964 C 0.62221 0.7767 0.58128 0.0
C1965 C 0.6087 0.774 0.58043 0.0
C1966 C 0.60545 0.7819 0.57215 0.0
C1967 C 0.61597 0.7929 0.56478 0.0
C1968 C 0.62958 0.79561 0.56559 0.0
C1969 C 0.63244 0.78727 0.57361 0.0
C1970 C 0.59077 0.77855 0.57133 0.0
C1971 C 0.64115 0.80743 0.55817 0.0
C1972 C 0.59725 0.8526 0.61618 0.0
C1973 C 0.60864 0.8593 0.60558 0.0
C1974 C 0.60429 0.84804 0.5832 0.0
C1975 C 0.61736 0.85079 0.57974 0.0
C1976 C 0.61883 0.84206 0.57073 0.0
C1977 C 0.60694 0.83022 0.56528 0.0
C1978 C 0.59372 0.82758 0.56861 0.0
C1979 C 0.59259 0.83673 0.57732 0.0
C1980 C 0.63308 0.84538 0.56721 0.0
C1981 C 0.58079 0.81493 0.56331 0.0
C1982 C 0.58887 0.84088 0.47869 0.0
C1983 C 0.60288 0.84544 0.48059 0.0
C1984 C 0.60695 0.83699 0.48647 0.0
C1985 C 0.59681 0.82376 0.49056 0.0
C1986 C 0.58273 0.81889 0.48793 0.0
C1987 C 0.57895 0.8275 0.48188 0.0
C1988 C 0.62207 0.84233 0.48868 0.0
C1989 C 0.57165 0.80476 0.49197 0.0
C1990 C 0.60748 0.73997 0.48504 0.0
C1991 C 0.60667 0.74507 0.47068 0.0
C1992 C 0.61172 0.7681 0.47653 0.0
C1993 C 0.62226 0.78177 0.4774 0.0
C1994 C 0.62038 0.79147 0.48413 0.0
C1995 C 0.60751 0.78738 0.48996 0.0
C1996 C 0.59658 0.77366 0.4886 0.0
C1997 C 0.59881 0.76413 0.482 0.0
C1998 C 0.63224 0.80602 0.48533 0.0
C1999 C 0.58263 0.76903 0.49442 0.0
C2000 C 0.61278 0.80178 0.55658 0.0
C2001 C 0.61142 0.81155 0.56374 0.0
C2002 C 0.60835 0.82024 0.5568 0.0
C2003 C 0.60662 0.81921 0.54223 0.0
C2004 C 0.60363 0.82783 0.53487 0.0
C2005 C 0.60163 0.82653 0.52057 0.0
C2006 C 0.60284 0.81675 0.51301 0.0
C2007 C 0.60084 0.81536 0.49846 0.0
C2008 C 0.6024 0.80573 0.49125 0.0
C2009 C 0.60577 0.79726 0.49821 0.0
C2010 C 0.60752 0.79831 0.51279 0.0
C2011 C 0.61062 0.78976 0.52015 0.0
C2012 C 0.61217 0.79075 0.53449 0.0
C2013 C 0.611 0.80054 0.54202 0.0
C2014 C 0.60792 0.80931 0.53483 0.0
C2015 C 0.6061 0.80813 0.5202 0.0
C2016 C 0.58036 0.86581 0.48297 0.0
C2017 C 0.59093 0.86291 0.477 0.0
O2018 O 0.62584 0.76947 0.58941 0.0
O2019 O 0.61456 0.75917 0.4705 0.0
O2020 O 0.58459 0.84913 0.47398 0.0
O2021 O 0.60275 0.85607 0.59237 0.0
H2022 H 0.60848 0.75627 0.59998 0.0
H2023 H 0.61818 0.78001 0.60955 0.0
H2024 H 0.63383 0.78076 0.6147 0.0
H2025 H 0.61771 0.76894 0.6227 0.0
H2026 H 0.60059 0.76569 0.58607 0.0
H2027 H 0.64282 0.78925 0.57429 0.0
H2028 H 0.59007 0.78671 0.57664 0.0
H2029 H 0.58353 0.76873 0.57625 0.0
H2030 H 0.58747 0.77805 0.56036 0.0
H2031 H 0.65138 0.80912 0.56118 0.0
H2032 H 0.64117 0.81688 0.56043 0.0
H2033 H 0.63962 0.80548 0.54684 0.0
H2034 H 0.61538 0.85508 0.60717 0.0
H2035 H 0.60173 0.85501 0.62686 0.0
H2036 H 0.59145 0.84138 0.6146 0.0
H2037 H 0.58994 0.85615 0.61505 0.0
H2038 H 0.62639 0.85975 0.58413 0.0
H2039 H 0.58254 0.83478 0.58003 0.0
H2040 H 0.63382 0.84434 0.55587 0.0
H2041 H 0.63518 0.83807 0.57235 0.0
H2042 H 0.64115 0.85584 0.57064 0.0
H2043 H 0.5714 0.81361 0.56813 0.0
H2044 H 0.58136 0.80579 0.56539 0.0
H2045 H 0.57977 0.81549 0.55195 0.0
H2046 H 0.59895 0.86604 0.48534 0.0
H2047 H 0.61062 0.85562 0.47759 0.0
H2048 H 0.56819 0.824 0.48012 0.0
H2049 H 0.62458 0.84354 0.49994 0.0
H2050 H 0.62868 0.85229 0.48372 0.0
H2051 H 0.62457 0.83493 0.48444 0.0
H2052 H 0.56117 0.80245 0.48908 0.0
H2053 H 0.5722 0.80366 0.50332 0.0
H2054 H 0.57336 0.79714 0.48686 0.0
H2055 H 0.59578 0.74153 0.468 0.0
H2056 H 0.60136 0.72868 0.48509 0.0
H2057 H 0.60324 0.74373 0.49293 0.0
H2058 H 0.61833 0.7436 0.48801 0.0
H2059 H 0.63214 0.78477 0.47306 0.0
H2060 H 0.59045 0.75364 0.4813 0.0
H2061 H 0.63468 0.80913 0.49641 0.0
H2062 H 0.62929 0.8128 0.48042 0.0
H2063 H 0.64164 0.80755 0.48035 0.0
H2064 H 0.57481 0.7584 0.49123 0.0
H2065 H 0.57904 0.77582 0.49097 0.0
H2066 H 0.58343 0.76966 0.50589 0.0
H2067 H 0.61274 0.81239 0.57492 0.0
H2068 H 0.60271 0.83563 0.5401 0.0
H2069 H 0.5992 0.83336 0.51551 0.0
H2070 H 0.60093 0.80478 0.48009 0.0
H2071 H 0.6118 0.78212 0.51492 0.0
H2072 H 0.61439 0.78379 0.53958 0.0
H2073 H 0.58511 0.8769 0.48495 0.0
H2074 H 0.57665 0.86051 0.49294 0.0
H2075 H 0.57132 0.86212 0.47584 0.0
C2076 C 0.149 0.74824 0.62769 0.0
C2077 C 0.13982 0.75021 0.61749 0.0
C2078 C 0.14791 0.75683 0.59422 0.0
C2079 C 0.1434 0.76575 0.59134 0.0
C2080 C 0.15048 0.7764 0.58208 0.0
C2081 C 0.16238 0.77819 0.57569 0.0
C2082 C 0.16652 0.76876 0.57806 0.0
C2083 C 0.15905 0.75802 0.58716 0.0
C2084 C 0.14556 0.78604 0.57952 0.0
C2085 C 0.1792 0.77039 0.5715 0.0
C2086 C 0.25092 0.87844 0.60994 0.0
C2087 C 0.24349 0.8653 0.60208 0.0
C2088 C 0.22002 0.8483 0.59427 0.0
C2089 C 0.22366 0.84037 0.58651 0.0
C2090 C 0.21378 0.82924 0.57844 0.0
C2091 C 0.20004 0.82621 0.57779 0.0
C2092 C 0.19636 0.83422 0.58556 0.0
C2093 C 0.20639 0.84508 0.59382 0.0
C2094 C 0.21806 0.82071 0.57064 0.0
C2095 C 0.18186 0.83136 0.58507 0.0
C2096 C 0.22512 0.85249 0.49422 0.0
C2097 C 0.22726 0.84249 0.4997 0.0
C2098 C 0.21621 0.83019 0.50439 0.0
C2099 C 0.20274 0.82785 0.50373 0.0
C2100 C 0.20046 0.83765 0.49779 0.0
C2101 C 0.21171 0.84986 0.49309 0.0
C2102 C 0.21906 0.81994 0.51061 0.0
C2103 C 0.18623 0.83546 0.49693 0.0
C2104 C 0.12983 0.71781 0.48445 0.0
C2105 C 0.1313 0.73152 0.48166 0.0
C2106 C 0.15182 0.75385 0.48652 0.0
C2107 C 0.1657 0.75968 0.4901 0.0
C2108 C 0.17298 0.77215 0.49734 0.0
C2109 C 0.16625 0.77915 0.50071 0.0
C2110 C 0.1524 0.77369 0.49634 0.0
C2111 C 0.14528 0.76103 0.48936 0.0
C2112 C 0.18781 0.77774 0.50154 0.0
C2113 C 0.14508 0.78114 0.49926 0.0
C2114 C 0.17129 0.79072 0.56785 0.0
C2115 C 0.18052 0.80244 0.57553 0.0
C2116 C 0.18957 0.81461 0.56904 0.0
C2117 C 0.18928 0.81524 0.55446 0.0
C2118 C 0.19791 0.82744 0.54763 0.0
C2119 C 0.19835 0.82775 0.53328 0.0
C2120 C 0.19016 0.81587 0.52521 0.0
C2121 C 0.19144 0.81586 0.51069 0.0
C2122 C 0.18307 0.80394 0.50291 0.0
C2123 C 0.17358 0.79182 0.50932 0.0
C2124 C 0.17231 0.7916 0.5239 0.0
C2125 C 0.16309 0.77957 0.53076 0.0
C2126 C 0.16243 0.77933 0.54515 0.0
C2127 C 0.17119 0.79102 0.55323 0.0
C2128 C 0.1803 0.80333 0.54652 0.0
C2129 C 0.18076 0.80364 0.53185 0.0
C2130 C 0.25584 0.87474 0.50488 0.0
C2131 C 0.24953 0.86953 0.49032 0.0
O2132 O 0.14201 0.74735 0.60416 0.0
O2133 O 0.14511 0.74131 0.48038 0.0
O2134 O 0.23559 0.86484 0.49017 0.0
O2135 O 0.22928 0.85908 0.6023 0.0
H2136 H 0.14312 0.76113 0.61867 0.0
H2137 H 0.15997 0.756 0.62587 0.0
H2138 H 0.14765 0.73806 0.62632 0.0
H2139 H 0.14666 0.7495 0.63852 0.0
H2140 H 0.13449 0.76452 0.59654 0.0
H2141 H 0.16232 0.75095 0.58937 0.0
H2142 H 0.15285 0.79602 0.5846 0.0
H2143 H 0.13515 0.78219 0.58366 0.0
H2144 H 0.14534 0.78776 0.56826 0.0
H2145 H 0.18128 0.76242 0.57476 0.0
H2146 H 0.1883 0.78052 0.57433 0.0
H2147 H 0.17795 0.76987 0.56007 0.0
H2148 H 0.24713 0.85824 0.60431 0.0
H2149 H 0.25652 0.87675 0.61862 0.0
H2150 H 0.24313 0.8786 0.61681 0.0
H2151 H 0.26124 0.89289 0.59461 0.0
H2152 H 0.23416 0.84271 0.58679 0.0
H2153 H 0.20368 0.85125 0.59985 0.0
H2154 H 0.21845 0.82285 0.55944 0.0
H2155 H 0.21046 0.80971 0.57197 0.0
H2156 H 0.22836 0.82291 0.57411 0.0
H2157 H 0.18102 0.83941 0.59047 0.0
H2158 H 0.17489 0.82151 0.59005 0.0
H2159 H 0.17824 0.83048 0.57416 0.0
H2160 H 0.25121 0.86117 0.48747 0.0
H2161 H 0.2375 0.84424 0.50069 0.0
H2162 H 0.21011 0.85757 0.48878 0.0
H2163 H 0.21791 0.81987 0.522 0.0
H2164 H 0.22961 0.8223 0.50847 0.0
H2165 H 0.21154 0.80957 0.50652 0.0
H2166 H 0.18608 0.84383 0.49154 0.0
H2167 H 0.1823 0.83469 0.50753 0.0
H2168 H 0.17911 0.82572 0.49137 0.0
H2169 H 0.12703 0.73386 0.49082 0.0
H2170 H 0.11881 0.70977 0.48549 0.0
H2171 H 0.13538 0.71848 0.49425 0.0
H2172 H 0.13425 0.71487 0.47593 0.0
H2173 H 0.17071 0.75416 0.48761 0.0
H2174 H 0.13465 0.75678 0.48612 0.0
H2175 H 0.18951 0.78058 0.51271 0.0
H2176 H 0.1945 0.78707 0.49563 0.0
H2177 H 0.19106 0.77036 0.49948 0.0
H2178 H 0.13489 0.77634 0.49384 0.0
H2179 H 0.15148 0.79188 0.49602 0.0
H2180 H 0.14352 0.78122 0.51055 0.0
H2181 H 0.18087 0.802 0.58672 0.0
H2182 H 0.20459 0.83686 0.55331 0.0
H2183 H 0.20537 0.83741 0.52862 0.0
H2184 H 0.18438 0.80394 0.49182 0.0
H2185 H 0.15634 0.77017 0.52511 0.0
H2186 H 0.15519 0.76979 0.54988 0.0
H2187 H 0.25283 0.88173 0.50917 0.0
H2188 H 0.26724 0.88007 0.50464 0.0
H2189 H 0.25214 0.86609 0.51202 0.0
C2190 C 0.15247 0.38553 0.61761 0.0
C2191 C 0.14352 0.38609 0.60592 0.0
C2192 C 0.15457 0.38199 0.58634 0.0
C2193 C 0.16641 0.39507 0.58584 0.0
C2194 C 0.17757 0.39753 0.57773 0.0
C2195 C 0.1769 0.38667 0.57011 0.0
C2196 C 0.1649 0.37354 0.57048 0.0
C2197 C 0.15381 0.37144 0.57844 0.0
C2198 C 0.19013 0.4117 0.5774 0.0
C2199 C 0.16389 0.36165 0.5627 0.0
C2200 C 0.24771 0.39292 0.62399 0.0
C2201 C 0.24513 0.3829 0.61216 0.0
C2202 C 0.24069 0.38985 0.59012 0.0
C2203 C 0.22939 0.37766 0.58491 0.0
C2204 C 0.21995 0.37776 0.57552 0.0
C2205 C 0.22185 0.39035 0.57135 0.0
C2206 C 0.23356 0.40266 0.5762 0.0
C2207 C 0.24297 0.40224 0.58539 0.0
C2208 C 0.20777 0.36444 0.5703 0.0
C2209 C 0.23587 0.41626 0.57205 0.0
C2210 C 0.25076 0.40399 0.48456 0.0
C2211 C 0.24059 0.39069 0.48797 0.0
C2212 C 0.22827 0.38799 0.49392 0.0
C2213 C 0.2263 0.3989 0.4968 0.0
C2214 C 0.23637 0.41223 0.49287 0.0
C2215 C 0.24837 0.41454 0.48656 0.0
C2216 C 0.21749 0.37354 0.49732 0.0
C2217 C 0.23459 0.42411 0.49553 0.0
C2218 C 0.14381 0.41172 0.48296 0.0
C2219 C 0.14799 0.40653 0.47046 0.0
C2220 C 0.16 0.39604 0.48096 0.0
C2221 C 0.15902 0.38367 0.48346 0.0
C2222 C 0.16948 0.38317 0.49072 0.0
C2223 C 0.18118 0.39538 0.49571 0.0
C2224 C 0.18234 0.40797 0.49311 0.0
C2225 C 0.17179 0.40819 0.4857 0.0
C2226 C 0.16793 0.36957 0.49327 0.0
C2227 C 0.19466 0.42118 0.49836 0.0
C2228 C 0.18893 0.38891 0.5622 0.0
C2229 C 0.1996 0.38896 0.5695 0.0
C2230 C 0.21109 0.39058 0.56275 0.0
C2231 C 0.21199 0.39216 0.54825 0.0
C2232 C 0.22336 0.39378 0.54111 0.0
C2233 C 0.22417 0.39538 0.52684 0.0
C2234 C 0.21349 0.39513 0.5191 0.0
C2235 C 0.21412 0.39654 0.50455 0.0
C2236 C 0.20337 0.39637 0.49722 0.0
C2237 C 0.192 0.39498 0.50405 0.0
C2238 C 0.19119 0.39355 0.51858 0.0
C2239 C 0.17995 0.39223 0.52578 0.0
C2240 C 0.17922 0.3908 0.54007 0.0
C2241 C 0.18968 0.39059 0.54771 0.0
C2242 C 0.20121 0.39211 0.5407 0.0
C2243 C 0.20194 0.39356 0.52611 0.0
C2244 C 0.2848 0.41374 0.48828 0.0
C2245 C 0.2708 0.40172 0.48331 0.0
O2246 O 0.14368 0.37902 0.59433 0.0
O2247 O 0.14929 0.39567 0.47413 0.0
O2248 O 0.26286 0.40695 0.47908 0.0
O2249 O 0.24938 0.3899 0.59986 0.0
H2250 H 0.14745 0.39685 0.60327 0.0
H2251 H 0.16332 0.39037 0.61443 0.0
H2252 H 0.14864 0.37481 0.62032 0.0
H2253 H 0.15234 0.39109 0.62698 0.0
H2254 H 0.16703 0.40338 0.59173 0.0
H2255 H 0.14459 0.36141 0.57884 0.0
H2256 H 0.19895 0.41181 0.58255 0.0
H2257 H 0.18851 0.4193 0.58271 0.0
H2258 H 0.19297 0.4148 0.56652 0.0
H2259 H 0.15432 0.35188 0.565 0.0
H2260 H 0.17288 0.36077 0.56537 0.0
H2261 H 0.16405 0.36335 0.55141 0.0
H2262 H 0.23384 0.37535 0.61175 0.0
H2263 H 0.2445 0.38752 0.63396 0.0
H2264 H 0.24162 0.39774 0.62206 0.0
H2265 H 0.25877 0.40106 0.62481 0.0
H2266 H 0.22791 0.36807 0.58828 0.0
H2267 H 0.25184 0.41159 0.58938 0.0
H2268 H 0.20678 0.36452 0.55886 0.0
H2269 H 0.19821 0.36306 0.57472 0.0
H2270 H 0.20863 0.35562 0.5732 0.0
H2271 H 0.24527 0.4249 0.57706 0.0
H2272 H 0.22686 0.41693 0.57489 0.0
H2273 H 0.23687 0.41726 0.56065 0.0
H2274 H 0.26613 0.39485 0.49223 0.0
H2275 H 0.24224 0.38243 0.48589 0.0
H2276 H 0.2562 0.42472 0.48359 0.0
H2277 H 0.21747 0.37222 0.50868 0.0
H2278 H 0.21944 0.36607 0.49223 0.0
H2279 H 0.2071 0.37125 0.49408 0.0
H2280 H 0.24405 0.43401 0.49333 0.0
H2281 H 0.23179 0.42426 0.50645 0.0
H2282 H 0.22608 0.423 0.48882 0.0
H2283 H 0.15795 0.41493 0.46656 0.0
H2284 H 0.15187 0.41557 0.49127 0.0
H2285 H 0.14245 0.42019 0.47989 0.0
H2286 H 0.13403 0.40343 0.48726 0.0
H2287 H 0.14993 0.37435 0.47974 0.0
H2288 H 0.17281 0.41788 0.48382 0.0
H2289 H 0.16745 0.36777 0.50456 0.0
H2290 H 0.17704 0.36959 0.48939 0.0
H2291 H 0.15851 0.36105 0.48816 0.0
H2292 H 0.19394 0.43012 0.49568 0.0
H2293 H 0.20416 0.42249 0.49388 0.0
H2294 H 0.19565 0.42093 0.50978 0.0
H2295 H 0.19891 0.38762 0.58062 0.0
H2296 H 0.23181 0.39389 0.54649 0.0
H2297 H 0.23327 0.39675 0.52196 0.0
H2298 H 0.20395 0.39753 0.48608 0.0
H2299 H 0.17156 0.39227 0.52046 0.0
H2300 H 0.17033 0.38984 0.54506 0.0
H2301 H 0.29047 0.42036 0.47948 0.0
H2302 H 0.29117 0.41022 0.49328 0.0
H2303 H 0.28327 0.41991 0.49609 0.0
H2304 H 0.96789 0.361 0.04115 0.0
H2305 H 0.97253 0.37669 0.06044 0.0
H2306 H 0.00636 0.37282 0.07428 0.0
H2307 H 0.00198 0.35722 0.05478 0.0
H2308 H 0.98698 0.37401 0.09616 0.0
H2309 H 0.01649 0.3973 0.05696 0.0
H2310 H 0.01993 0.40242 0.03211 0.0
H2311 H 0.9924 0.41718 0.03328 0.0
H2312 H 0.98864 0.41194 0.0581 0.0
H2313 H 0.02508 0.43377 0.13729 0.0
H2314 H 0.01686 0.41436 0.1216 0.0
H2315 H 0.99598 0.42908 0.09649 0.0
H2316 H 0.00498 0.44906 0.11157 0.0
H2317 H 0.00785 0.42148 0.08034 0.0
H2318 H 0.97894 0.40048 0.11867 0.0
H2319 H 0.97299 0.3944 0.14303 0.0
H2320 H 0.99586 0.37447 0.14355 0.0
H2321 H 0.00211 0.38059 0.11924 0.0
C2322 C 0.97616 0.36323 0.04842 0.0
C2323 C 0.98468 0.35797 0.04632 0.0
C2324 C 0.97876 0.37219 0.05945 0.0
C2325 C 0.98981 0.37593 0.06868 0.0
C2326 C 0.99775 0.36999 0.06724 0.0
C2327 C 0.99526 0.36113 0.05608 0.0
C2328 C 0.99401 0.38722 0.07871 0.0
C2329 C 0.99171 0.38444 0.09281 0.0
C2330 C -0.00031 0.40068 0.07417 0.0
C2331 C 0.00219 0.40411 0.05934 0.0
C2332 C 0.0111 0.40154 0.05189 0.0
C2333 C 0.01311 0.40449 0.03782 0.0
C2334 C 0.00636 0.4101 0.03111 0.0
C2335 C 0.99761 0.41283 0.03848 0.0
C2336 C 0.99554 0.40988 0.05255 0.0
C2337 C 0.01896 0.43306 0.1283 0.0
C2338 C 0.01626 0.44339 0.12545 0.0
C2339 C 0.01402 0.42176 0.11945 0.0
C2340 C 0.00571 0.42015 0.10785 0.0
C2341 C 0.00249 0.43013 0.10529 0.0
C2342 C 0.00769 0.4416 0.11396 0.0
C2343 C 0.00093 0.40844 0.09805 0.0
C2344 C 0.00311 0.41111 0.08387 0.0
C2345 C 0.99486 0.39484 0.10254 0.0
C2346 C 0.9911 0.39111 0.11716 0.0
C2347 C 0.98279 0.39489 0.12401 0.0
C2348 C 0.97934 0.39142 0.1378 0.0
C2349 C 0.98407 0.38409 0.14484 0.0
C2350 C 0.99222 0.38017 0.13809 0.0
C2351 C 0.9957 0.38362 0.12429 0.0
H2352 H 0.98139 0.38141 0.15553 0.0
H2353 H 0.00793 0.41236 0.02022 0.0
H2354 H 0.6475 0.63657 0.0593 0.0
H2355 H 0.63726 0.62189 0.07918 0.0
H2356 H 0.62559 0.58662 0.05343 0.0
H2357 H 0.63582 0.60119 0.03351 0.0
H2358 H 0.60413 0.5841 0.0685 0.0
H2359 H 0.65059 0.59622 0.07633 0.0
H2360 H 0.6757 0.61158 0.07922 0.0
H2361 H 0.66988 0.6303 0.11485 0.0
H2362 H 0.6447 0.61517 0.11205 0.0
H2363 H 0.58221 0.5362 0.12227 0.0
H2364 H 0.59549 0.55061 0.10312 0.0
H2365 H 0.60569 0.58635 0.1273 0.0
H2366 H 0.59239 0.5722 0.14635 0.0
H2367 H 0.62835 0.58824 0.11304 0.0
H2368 H 0.58176 0.57657 0.10436 0.0
H2369 H 0.55669 0.56096 0.10141 0.0
H2370 H 0.56302 0.54116 0.0671 0.0
H2371 H 0.58816 0.55654 0.06999 0.0
C2372 C 0.64286 0.6257 0.05789 0.0
C2373 C 0.64243 0.62004 0.04482 0.0
C2374 C 0.63708 0.61734 0.06927 0.0
C2375 C 0.63072 0.6032 0.06775 0.0
C2376 C 0.63046 0.59753 0.05478 0.0
C2377 C 0.63634 0.60588 0.04343 0.0
C2378 C 0.62366 0.59426 0.07951 0.0
C2379 C 0.60947 0.58486 0.07816 0.0
C2380 C 0.63061 0.59549 0.09219 0.0
C2381 C 0.64574 0.60466 0.09389 0.0
C2382 C 0.65465 0.6037 0.0847 0.0
C2383 C 0.6689 0.61235 0.08634 0.0
C2384 C 0.67438 0.62194 0.09719 0.0
C2385 C 0.66562 0.62288 0.10644 0.0
C2386 C 0.65135 0.61427 0.10484 0.0
C2387 C 0.58733 0.54714 0.12352 0.0
C2388 C 0.58616 0.55292 0.13588 0.0
C2389 C 0.5949 0.55534 0.1126 0.0
C2390 C 0.60151 0.56951 0.11383 0.0
C2391 C 0.60067 0.57541 0.12621 0.0
C2392 C 0.59298 0.56722 0.13711 0.0
C2393 C 0.60886 0.57814 0.10199 0.0
C2394 C 0.62307 0.58748 0.10334 0.0
C2395 C 0.60196 0.57685 0.08928 0.0
C2396 C 0.58684 0.5676 0.0875 0.0
C2397 C 0.57781 0.56881 0.09627 0.0
C2398 C 0.56359 0.56001 0.09459 0.0
C2399 C 0.55826 0.55004 0.0841 0.0
C2400 C 0.56716 0.54887 0.07524 0.0
C2401 C 0.5814 0.55763 0.07689 0.0
H2402 H 0.54725 0.54325 0.08281 0.0
H2403 H 0.68542 0.62862 0.09845 0.0
H2404 H 0.38317 0.99799 0.0284 0.0
H2405 H 0.39732 0.00304 0.04932 0.0
H2406 H 0.38329 0.02878 0.06457 0.0
H2407 H 0.36908 0.02386 0.04336 0.0
H2408 H 0.41462 0.03559 0.07143 0.0
H2409 H 0.36548 0.00302 0.07673 0.0
H2410 H 0.34314 0.9841 0.06776 0.0
H2411 H 0.36036 0.95901 0.06332 0.0
H2412 H 0.38286 0.97788 0.0721 0.0
H2413 H 0.42763 0.02054 0.14086 0.0
H2414 H 0.4187 0.02654 0.1207 0.0
H2415 H 0.41285 0.99123 0.09854 0.0
H2416 H 0.42133 0.98503 0.11869 0.0
H2417 H 0.39044 0.99235 0.09703 0.0
H2418 H 0.43925 0.02425 0.09137 0.0
H2419 H 0.46228 0.04311 0.09883 0.0
H2420 H 0.44656 0.06947 0.10336 0.0
H2421 H 0.42339 0.05071 0.09609 0.0
C2422 C 0.38339 0.00505 0.03601 0.0
C2423 C 0.37487 0.01036 0.03441 0.0
C2424 C 0.39157 0.00801 0.04789 0.0
C2425 C 0.39124 0.01619 0.05847 0.0
C2426 C 0.38372 0.02252 0.05642 0.0
C2427 C 0.37558 0.01966 0.04437 0.0
C2428 C 0.39644 0.01559 0.07235 0.0
C2429 C 0.40924 0.0263 0.07727 0.0
C2430 C 0.38947 0.00338 0.07976 0.0
C2431 C 0.37584 0.99186 0.07501 0.0
C2432 C 0.3645 0.99348 0.0738 0.0
C2433 C 0.35181 0.98277 0.06875 0.0
C2434 C 0.35033 0.97036 0.06496 0.0
C2435 C 0.36152 0.96862 0.06627 0.0
C2436 C 0.37423 0.97931 0.07131 0.0
C2437 C 0.42463 0.01421 0.13158 0.0
C2438 C 0.42542 0.00247 0.13125 0.0
C2439 C 0.41956 0.01766 0.12009 0.0
C2440 C 0.41522 0.0094 0.10807 0.0
C2441 C 0.41617 0.99777 0.10769 0.0
C2442 C 0.42111 0.99428 0.11917 0.0
C2443 C 0.40888 0.01224 0.09612 0.0
C2444 C 0.39577 0.00184 0.0915 0.0
C2445 C 0.41561 0.02475 0.08909 0.0
C2446 C 0.42956 0.03604 0.09334 0.0
C2447 C 0.44069 0.03404 0.09406 0.0
C2448 C 0.45377 0.04472 0.09823 0.0
C2449 C 0.45588 0.05747 0.1016 0.0
C2450 C 0.44491 0.05958 0.10076 0.0
C2451 C 0.4318 0.04894 0.09661 0.0
H2452 H 0.46601 0.06572 0.10484 0.0
H2453 H 0.34051 0.9621 0.06102 0.0
H2454 H 0.36719 0.01325 0.96401 0.0
H2455 H 0.38187 0.01604 0.94469 0.0
H2456 H 0.36758 0.97329 0.94543 0.0
H2457 H 0.35311 0.97048 0.96501 0.0
H2458 H 0.39432 0.9874 0.9453 0.0
H2459 H 0.35927 0.98714 0.91824 0.0
H2460 H 0.34238 0.99331 0.91146 0.0
H2461 H 0.37502 0.03474 0.90627 0.0
H2462 H 0.39212 0.02886 0.91322 0.0
H2463 H 0.42968 0.99245 0.88208 0.0
H2464 H 0.41136 0.98628 0.89867 0.0
H2465 H 0.42925 0.02858 0.90979 0.0
H2466 H 0.44785 0.03481 0.89363 0.0
H2467 H 0.39926 0.0127 0.9024 0.0
H2468 H 0.4339 0.01186 0.93135 0.0
H2469 H 0.44992 0.0044 0.93755 0.0
H2470 H 0.41627 0.96289 0.93793 0.0
H2471 H 0.40007 0.97009 0.93151 0.0
C2472 C 0.36693 0.00438 0.95988 0.0
C2473 C 0.35904 0.99166 0.96611 0.0
C2474 C 0.37532 0.00598 0.9488 0.0
C2475 C 0.37581 0.99486 0.94357 0.0
C2476 C 0.36741 0.98202 0.94932 0.0
C2477 C 0.3591 0.98042 0.96048 0.0
C2478 C 0.38591 0.99692 0.93292 0.0
C2479 C 0.3952 0.99269 0.93579 0.0
C2480 C 0.3872 0.00397 0.92059 0.0
C2481 C 0.37698 0.00757 0.91636 0.0
C2482 C 0.36285 0.99759 0.91576 0.0
C2483 C 0.35323 0.00103 0.91187 0.0
C2484 C 0.35762 0.01441 0.90847 0.0
C2485 C 0.37164 0.02438 0.90892 0.0
C2486 C 0.3813 0.02099 0.91282 0.0
C2487 C 0.4297 0.00043 0.88807 0.0
C2488 C 0.43997 0.01415 0.88624 0.0
C2489 C 0.41926 0.99689 0.89752 0.0
C2490 C 0.41891 0.007 0.90527 0.0
C2491 C 0.42928 0.02067 0.90373 0.0
C2492 C 0.43986 0.0242 0.89446 0.0
C2493 C 0.40767 0.00337 0.91496 0.0
C2494 C 0.39821 0.00728 0.91187 0.0
C2495 C 0.40606 0.99583 0.92696 0.0
C2496 C 0.4158 0.99149 0.93076 0.0
C2497 C 0.42994 0.00112 0.93259 0.0
C2498 C 0.43905 0.99694 0.93619 0.0
C2499 C 0.43413 0.98317 0.93808 0.0
C2500 C 0.42008 0.97355 0.93642 0.0
C2501 C 0.41093 0.97767 0.93281 0.0
H2502 H 0.44119 0.97996 0.94088 0.0
H2503 H 0.35016 0.01706 0.90545 0.0
H2504 H 0.98616 0.35741 0.96454 0.0
H2505 H 0.9956 0.37416 0.94641 0.0
H2506 H 0.03395 0.39702 0.96954 0.0
H2507 H 0.02447 0.37994 0.9879 0.0
H2508 H 0.02254 0.41252 0.96099 0.0
H2509 H 0.03576 0.38427 0.9402 0.0
H2510 H 0.03358 0.36275 0.93277 0.0
H2511 H -0.00036 0.35399 0.90567 0.0
H2512 H 0.00146 0.37534 0.91309 0.0
H2513 H 0.02339 0.43326 0.88259 0.0
H2514 H 0.03201 0.42503 0.90107 0.0
H2515 H -0.00103 0.41914 0.92702 0.0
H2516 H 0.9904 0.42736 0.90868 0.0
H2517 H 0.0188 0.40029 0.9111 0.0
H2518 H 0.00789 0.42279 0.96038 0.0
H2519 H 0.01047 0.44446 0.9679 0.0
H2520 H 0.04188 0.46581 0.93804 0.0
H2521 H 0.03966 0.44431 0.93048 0.0
C2522 C 0.99668 0.36588 0.9657 0.0
C2523 C 0.00458 0.36743 0.97762 0.0
C2524 C 0.0021 0.3754 0.95528 0.0
C2525 C 0.0155 0.38676 0.95658 0.0
C2526 C 0.02361 0.38824 0.96833 0.0
C2527 C 0.01823 0.3785 0.97875 0.0
C2528 C 0.02017 0.39745 0.94608 0.0
C2529 C 0.02201 0.41001 0.95006 0.0
C2530 C 0.01986 0.39428 0.93187 0.0
C2531 C 0.01877 0.38145 0.92721 0.0
C2532 C 0.02779 0.37773 0.9327 0.0
C2533 C 0.02662 0.36556 0.92849 0.0
C2534 C 0.01648 0.35701 0.91875 0.0
C2535 C 0.00751 0.36063 0.91319 0.0
C2536 C 0.00863 0.37279 0.91738 0.0
C2537 C 0.0182 0.43051 0.89238 0.0
C2538 C 0.00639 0.43119 0.8943 0.0
C2539 C 0.0231 0.4258 0.90289 0.0
C2540 C 0.01629 0.4217 0.91551 0.0
C2541 C 0.00463 0.4226 0.91752 0.0
C2542 C -0.0003 0.42725 0.90702 0.0
C2543 C 0.02019 0.41496 0.926 0.0
C2544 C 0.01989 0.4031 0.92199 0.0
C2545 C 0.02206 0.41887 0.94017 0.0
C2546 C 0.02357 0.43189 0.94483 0.0
C2547 C 0.01543 0.43211 0.95548 0.0
C2548 C 0.01681 0.44437 0.95974 0.0
C2549 C 0.02632 0.4565 0.95344 0.0
C2550 C 0.03449 0.4564 0.94289 0.0
C2551 C 0.03317 0.44417 0.93861 0.0
H2552 H 0.02736 0.46598 0.95675 0.0
H2553 H 0.01559 0.34758 0.91551 0.0
H2554 H 0.61278 0.63975 0.00051 0.0
H2555 H 0.59331 0.63332 0.9844 0.0
H2556 H 0.61945 0.63989 0.94988 0.0
H2557 H 0.63867 0.6457 0.96589 0.0
H2558 H 0.59693 0.6485 0.94825 0.0
H2559 H 0.60623 0.61125 0.95693 0.0
H2560 H 0.60954 0.59704 0.97351 0.0
H2561 H 0.5709 0.58517 0.9919 0.0
H2562 H 0.56749 0.5995 0.97552 0.0
H2563 H 0.56986 0.61113 0.88724 0.0
H2564 H 0.58169 0.62356 0.90828 0.0
H2565 H 0.54725 0.59475 0.9323 0.0
H2566 H 0.53544 0.58182 0.91124 0.0
H2567 H 0.56928 0.59816 0.94355 0.0
H2568 H 0.55604 0.62836 0.92947 0.0
H2569 H 0.55183 0.64272 0.91404 0.0
H2570 H 0.59522 0.66844 0.90766 0.0
H2571 H 0.5997 0.65411 0.92288 0.0
C2572 C 0.6144 0.64017 0.98947 0.0
C2573 C 0.62711 0.64312 0.98434 0.0
C2574 C 0.60334 0.63654 0.98032 0.0
C2575 C 0.60504 0.63623 0.96601 0.0
C2576 C 0.61803 0.64023 0.9609 0.0
C2577 C 0.62894 0.64345 0.97001 0.0
C2578 C 0.59305 0.6296 0.95643 0.0
C2579 C 0.59077 0.63751 0.94718 0.0
C2580 C 0.58475 0.61529 0.9555 0.0
C2581 C 0.58668 0.60653 0.96514 0.0
C2582 C 0.5985 0.60568 0.96458 0.0
C2583 C 0.60039 0.5976 0.97393 0.0
C2584 C 0.59045 0.59024 0.98378 0.0
C2585 C 0.57859 0.5909 0.98428 0.0
C2586 C 0.57668 0.599 0.97498 0.0
C2587 C 0.56477 0.60723 0.89693 0.0
C2588 C 0.55198 0.59492 0.8975 0.0
C2589 C 0.57149 0.61458 0.90902 0.0
C2590 C 0.56537 0.61011 0.92192 0.0
C2591 C 0.55224 0.59833 0.92248 0.0
C2592 C 0.54556 0.59089 0.9104 0.0
C2593 C 0.57333 0.61703 0.93481 0.0
C2594 C 0.57497 0.60915 0.94473 0.0
C2595 C 0.58077 0.63138 0.93649 0.0
C2596 C 0.5782 0.64009 0.92729 0.0
C2597 C 0.56469 0.63702 0.92471 0.0
C2598 C 0.56225 0.64516 0.916 0.0
C2599 C 0.57325 0.65648 0.90987 0.0
C2600 C 0.58671 0.65967 0.91243 0.0
C2601 C 0.58921 0.65155 0.92112 0.0
H2602 H 0.57134 0.66277 0.90313 0.0
H2603 H 0.59193 0.58399 0.99101 0.0
H2604 H 0.99789 0.64129 0.97509 0.0
H2605 H 0.99643 0.6276 0.95499 0.0
H2606 H 0.03799 0.63764 0.96329 0.0
H2607 H 0.03956 0.65137 0.98346 0.0
H2608 H 0.03204 0.63788 0.93501 0.0
H2609 H 0.01273 0.60867 0.97416 0.0
H2610 H 0.9972 0.59867 0.99382 0.0
H2611 H 0.96211 0.58312 0.96622 0.0
H2612 H 0.97744 0.59322 0.94641 0.0
H2613 H 0.03182 0.58435 0.89844 0.0
H2614 H 0.03341 0.6001 0.91656 0.0
H2615 H 0.9908 0.58689 0.90896 0.0
H2616 H 0.98914 0.57105 0.89092 0.0
H2617 H 0.9968 0.58857 0.93637 0.0
H2618 H 0.01566 0.6168 0.8971 0.0
H2619 H 0.03089 0.62662 0.87722 0.0
H2620 H 0.06634 0.64399 0.90452 0.0
H2621 H 0.05132 0.63408 0.92457 0.0
C2622 C 0.00681 0.64077 0.97254 0.0
C2623 C 0.01881 0.64733 0.98096 0.0
C2624 C 0.00593 0.6329 0.96108 0.0
C2625 C 0.01704 0.63148 0.95779 0.0
C2626 C 0.02929 0.63859 0.9657 0.0
C2627 C 0.03015 0.6464 0.97724 0.0
C2628 C 0.01561 0.62197 0.9466 0.0
C2629 C 0.02444 0.62708 0.93535 0.0
C2630 C 0.00546 0.60793 0.94693 0.0
C2631 C 0.99623 0.60184 0.95883 0.0
C2632 C 0.0017 0.60323 0.9723 0.0
C2633 C 0.99294 0.59752 0.98347 0.0
C2634 C 0.97868 0.5903 0.98128 0.0
C2635 C 0.97316 0.58874 0.96791 0.0
C2636 C 0.98188 0.59445 0.95671 0.0
C2637 C 0.02279 0.58477 0.90072 0.0
C2638 C 0.01032 0.5764 0.89339 0.0
C2639 C 0.02372 0.59381 0.91099 0.0
C2640 C 0.01225 0.59474 0.91401 0.0
C2641 C -0.00024 0.58632 0.90679 0.0
C2642 C -0.00117 0.57729 0.8965 0.0
C2643 C 0.01327 0.60445 0.92477 0.0
C2644 C 0.00436 0.59938 0.93596 0.0
C2645 C 0.02329 0.61852 0.92434 0.0
C2646 C 0.03237 0.62459 0.91233 0.0
C2647 C 0.02671 0.62262 0.89886 0.0
C2648 C 0.0353 0.62822 0.88756 0.0
C2649 C 0.04958 0.6359 0.8896 0.0
C2650 C 0.05528 0.63803 0.90295 0.0
C2651 C 0.04673 0.63243 0.91429 0.0
H2652 H 0.05621 0.64023 0.88084 0.0
H2653 H 0.97191 0.58589 0.98994 0.0
H2654 H 0.36613 0.40508 0.98686 0.0
H2655 H 0.37512 0.41849 0.96619 0.0
H2656 H 0.36132 0.38194 0.9418 0.0
H2657 H 0.35256 0.3683 0.96277 0.0
H2658 H 0.38683 0.4029 0.93401 0.0
H2659 H 0.34252 0.39689 0.94142 0.0
H2660 H 0.32456 0.39699 0.95518 0.0
H2661 H 0.35132 0.4398 0.96339 0.0
H2662 H 0.3695 0.43993 0.94982 0.0
H2663 H 0.39476 0.44027 0.87187 0.0
H2664 H 0.38708 0.42365 0.89039 0.0
H2665 H 0.39488 0.45507 0.92021 0.0
H2666 H 0.40186 0.47146 0.90174 0.0
H2667 H 0.37059 0.43421 0.92347 0.0
H2668 H 0.4154 0.44023 0.91737 0.0
H2669 H 0.43376 0.44035 0.90413 0.0
H2670 H 0.40665 0.39805 0.89367 0.0
H2671 H 0.38807 0.39772 0.9067 0.0
C2672 C 0.36495 0.39983 0.97713 0.0
C2673 C 0.35841 0.38559 0.97642 0.0
C2674 C 0.37011 0.40753 0.9653 0.0
C2675 C 0.36861 0.40119 0.95241 0.0
C2676 C 0.36249 0.38701 0.95165 0.0
C2677 C 0.35745 0.37925 0.96361 0.0
C2678 C 0.37311 0.40954 0.9398 0.0
C2679 C 0.38314 0.4096 0.93153 0.0
C2680 C 0.36842 0.4184 0.9367 0.0
C2681 C 0.35739 0.4184 0.94465 0.0
C2682 C 0.34459 0.40631 0.9462 0.0
C2683 C 0.33437 0.40633 0.95397 0.0
C2684 C 0.3368 0.41839 0.96016 0.0
C2685 C 0.34945 0.43047 0.95857 0.0
C2686 C 0.3597 0.43051 0.95083 0.0
C2687 C 0.39504 0.44363 0.88243 0.0
C2688 C 0.39909 0.4572 0.88535 0.0
C2689 C 0.39071 0.43415 0.89301 0.0
C2690 C 0.39052 0.43812 0.90673 0.0
C2691 C 0.39494 0.45176 0.9097 0.0
C2692 C 0.39904 0.46116 0.89913 0.0
C2693 C 0.38472 0.42799 0.9179 0.0
C2694 C 0.37429 0.42749 0.92585 0.0
C2695 C 0.38911 0.4188 0.92067 0.0
C2696 C 0.4003 0.41899 0.91289 0.0
C2697 C 0.41332 0.43098 0.91216 0.0
C2698 C 0.42377 0.43108 0.90471 0.0
C2699 C 0.42136 0.41923 0.89803 0.0
C2700 C 0.4085 0.40723 0.89883 0.0
C2701 C 0.39801 0.40708 0.90625 0.0
H2702 H 0.42946 0.41932 0.89227 0.0
H2703 H 0.32888 0.41838 0.96619 0.0
H2704 H 0.61799 0.98013 0.98972 0.0
H2705 H 0.60036 0.9725 0.97117 0.0
H2706 H 0.62958 0.00503 0.94557 0.0
H2707 H 0.64687 0.01292 0.96419 0.0
H2708 H 0.60722 0.00565 0.94712 0.0
H2709 H 0.61708 0.96996 0.93929 0.0
H2710 H 0.61891 0.95045 0.94617 0.0
H2711 H 0.5762 0.92815 0.95658 0.0
H2712 H 0.57416 0.94759 0.94991 0.0
H2713 H 0.5771 0.99125 0.88051 0.0
H2714 H 0.59133 0.99475 0.90113 0.0
H2715 H 0.55619 0.96197 0.92117 0.0
H2716 H 0.54194 0.9583 0.9004 0.0
H2717 H 0.57856 0.9601 0.92478 0.0
H2718 H 0.568 0.99455 0.93081 0.0
H2719 H 0.5657 0.01387 0.92436 0.0
H2720 H 0.60923 0.03848 0.91814 0.0
H2721 H 0.61177 0.01924 0.92435 0.0
C2722 C 0.62068 0.98538 0.97997 0.0
C2723 C 0.63371 0.99711 0.97833 0.0
C2724 C 0.61062 0.98104 0.9694 0.0
C2725 C 0.61362 0.98824 0.95698 0.0
C2726 C 0.62697 -0.00059 0.95509 0.0
C2727 C 0.63686 0.00387 0.96569 0.0
C2728 C 0.60277 0.98507 0.94634 0.0
C2729 C 0.60108 0.99572 0.94212 0.0
C2730 C 0.59427 0.97197 0.9403 0.0
C2731 C 0.59551 0.96028 0.94424 0.0
C2732 C 0.60811 0.96093 0.94314 0.0
C2733 C 0.60917 0.94988 0.94698 0.0
C2734 C 0.59769 0.93808 0.95184 0.0
C2735 C 0.5851 0.9373 0.95283 0.0
C2736 C 0.58398 0.94833 0.94901 0.0
C2737 C 0.57238 0.98492 0.88938 0.0
C2738 C 0.55837 0.97469 0.88897 0.0
C2739 C 0.5805 0.98691 0.90115 0.0
C2740 C 0.57476 0.97874 0.91276 0.0
C2741 C 0.56079 0.96843 0.91236 0.0
C2742 C 0.55266 0.96641 0.90055 0.0
C2743 C 0.58353 0.98086 0.92516 0.0
C2744 C 0.58469 0.97001 0.92982 0.0
C2745 C 0.59154 0.99379 0.93169 0.0
C2746 C 0.59006 0.0054 0.92794 0.0
C2747 C 0.57707 0.00404 0.92796 0.0
C2748 C 0.57573 0.01499 0.92436 0.0
C2749 C 0.58731 0.02738 0.92081 0.0
C2750 C 0.60026 0.02887 0.92088 0.0
C2751 C 0.60166 0.01795 0.92445 0.0
H2752 H 0.58624 0.03585 0.91804 0.0
H2753 H 0.59854 0.92954 0.95482 0.0
H2754 H 0.64416 0.00337 0.05825 0.0
H2755 H 0.63042 0.00208 0.07809 0.0
H2756 H 0.62059 0.02924 0.05794 0.0
H2757 H 0.63468 0.03102 0.03853 0.0
H2758 H 0.62675 0.03658 0.08329 0.0
H2759 H 0.59762 0.99319 0.05967 0.0
H2760 H 0.59192 0.97098 0.0499 0.0
H2761 H 0.59826 0.95901 0.08988 0.0
H2762 H 0.60417 0.98122 0.09985 0.0
H2763 H 0.57279 0.03047 0.12023 0.0
H2764 H 0.58395 0.02632 0.10125 0.0
H2765 H 0.59423 0.00316 0.12809 0.0
H2766 H 0.58241 0.00672 0.1471 0.0
H2767 H 0.58871 0.993 0.10114 0.0
H2768 H 0.61684 0.03639 0.12464 0.0
H2769 H 0.62116 0.05818 0.13422 0.0
H2770 H 0.6159 0.06994 0.09368 0.0
H2771 H 0.61133 0.04811 0.0839 0.0
C2772 C 0.63912 0.00912 0.05813 0.0
C2773 C 0.64057 0.01736 0.04687 0.0
C2774 C 0.63118 0.00828 0.06941 0.0
C2775 C 0.62431 0.01543 0.06944 0.0
C2776 C 0.62581 0.02366 0.0582 0.0
C2777 C 0.63391 0.02469 0.04709 0.0
C2778 C 0.61579 0.01473 0.08121 0.0
C2779 C 0.61836 0.02703 0.08706 0.0
C2780 C 0.60507 0.00227 0.08646 0.0
C2781 C 0.60149 0.98892 0.08047 0.0
C2782 C 0.5979 0.98586 0.06635 0.0
C2783 C 0.59461 0.97326 0.06078 0.0
C2784 C 0.59477 0.96361 0.06925 0.0
C2785 C 0.59817 0.96651 0.08332 0.0
C2786 C 0.60148 0.97909 0.08894 0.0
C2787 C 0.57705 0.02416 0.12205 0.0
C2788 C 0.57675 0.01893 0.13522 0.0
C2789 C 0.58349 0.02185 0.11118 0.0
C2790 C 0.59017 0.0147 0.11337 0.0
C2791 C 0.58917 0.00875 0.12621 0.0
C2792 C 0.58248 0.01083 0.13706 0.0
C2793 C 0.59945 0.01483 0.10277 0.0
C2794 C 0.59713 0.0025 0.09731 0.0
C2795 C 0.61038 0.02725 0.09777 0.0
C2796 C 0.6137 0.0406 0.10355 0.0
C2797 C 0.61659 0.04362 0.11778 0.0
C2798 C 0.61907 0.05597 0.12324 0.0
C2799 C 0.6188 0.06544 0.11456 0.0
C2800 C 0.61612 0.0626 0.10039 0.0
C2801 C 0.6136 0.05025 0.09488 0.0
H2802 H 0.62069 0.07498 0.11882 0.0
H2803 H 0.59222 0.95387 0.06493 0.0
H2804 H 0.98124 0.61904 0.03449 0.0
H2805 H 0.97335 0.60082 0.05134 0.0
H2806 H 0.00251 0.62965 0.08165 0.0
H2807 H 0.01098 0.64754 0.06451 0.0
H2808 H 0.00475 0.6092 0.08165 0.0
H2809 H 0.96506 0.61388 0.0823 0.0
H2810 H 0.94545 0.6144 0.072 0.0
H2811 H 0.92804 0.57355 0.05643 0.0
H2812 H 0.94763 0.57284 0.0665 0.0
H2813 H 0.98092 0.56991 0.14203 0.0
H2814 H 0.98696 0.58671 0.12397 0.0
H2815 H 0.96033 0.55468 0.09484 0.0
H2816 H 0.95399 0.53787 0.11301 0.0
H2817 H 0.95644 0.57542 0.09315 0.0
H2818 H 0.99577 0.57065 0.09375 0.0
H2819 H 0.01537 0.57027 0.10429 0.0
H2820 H 0.03351 0.61182 0.1179 0.0
H2821 H 0.01392 0.61238 0.10761 0.0
C2822 C 0.98572 0.62146 0.04485 0.0
C2823 C 0.99666 0.63462 0.04829 0.0
C2824 C 0.98121 0.61107 0.0545 0.0
C2825 C 0.98725 0.61383 0.06787 0.0
C2826 C 0.99773 0.6272 0.07142 0.0
C2827 C 0.00251 0.63744 0.06167 0.0
C2828 C 0.98349 0.60276 0.07789 0.0
C2829 C 0.99418 0.60197 0.0843 0.0
C2830 C 0.96968 0.59294 0.08102 0.0
C2831 C 0.95787 0.59335 0.07504 0.0
C2832 C 0.95709 0.60504 0.0766 0.0
C2833 C 0.94597 0.60536 0.07082 0.0
C2834 C 0.93552 0.59403 0.06353 0.0
C2835 C 0.93615 0.58233 0.06206 0.0
C2836 C 0.94724 0.58195 0.06781 0.0
C2837 C 0.97653 0.56645 0.13171 0.0
C2838 C 0.96725 0.55257 0.12884 0.0
C2839 C 0.97998 0.57604 0.1214 0.0
C2840 C 0.97426 0.57193 0.10798 0.0
C2841 C 0.96493 0.55807 0.10509 0.0
C2842 C 0.96141 0.54847 0.11543 0.0
C2843 C 0.97772 0.58217 0.09711 0.0
C2844 C 0.967 0.58272 0.09048 0.0
C2845 C 0.9915 0.59184 0.09384 0.0
C2846 C 0.00331 0.59151 0.10001 0.0
C2847 C 0.00388 0.57967 0.09908 0.0
C2848 C 0.015 0.57943 0.105 0.0
C2849 C 0.02566 0.591 0.11179 0.0
C2850 C 0.02524 0.60285 0.11265 0.0
C2851 C 0.01414 0.60314 0.10677 0.0
H2852 H 0.03426 0.5908 0.11635 0.0
H2853 H 0.92693 0.59431 0.05906 0.0
H2854 H 0.37436 0.35057 0.03526 0.0
H2855 H 0.39258 0.35482 0.05213 0.0
H2856 H 0.3975 0.39337 0.06336 0.0
H2857 H 0.37949 0.38927 0.04668 0.0
H2858 H 0.42222 0.39561 0.06063 0.0
H2859 H 0.37914 0.36661 0.08302 0.0
H2860 H 0.35619 0.346 0.08555 0.0
H2861 H 0.37419 0.3214 0.08587 0.0
H2862 H 0.39726 0.34188 0.08313 0.0
H2863 H 0.44121 0.40601 0.13367 0.0
H2864 H 0.42704 0.39931 0.1124 0.0
H2865 H 0.44609 0.37781 0.09791 0.0
H2866 H 0.46079 0.385 0.11888 0.0
H2867 H 0.4112 0.36503 0.10048 0.0
H2868 H 0.45523 0.39583 0.07879 0.0
H2869 H 0.47752 0.4175 0.07767 0.0
H2870 H 0.45673 0.43951 0.07744 0.0
H2871 H 0.43432 0.41795 0.07878 0.0
C2872 C 0.37939 0.35997 0.04129 0.0
C2873 C 0.37541 0.36953 0.0397 0.0
C2874 C 0.38977 0.36237 0.05092 0.0
C2875 C 0.39635 0.3744 0.05901 0.0
C2876 C 0.3926 0.38405 0.05719 0.0
C2877 C 0.38221 0.38163 0.0477 0.0
C2878 C 0.40681 0.37689 0.06981 0.0
C2879 C 0.41983 0.38886 0.06928 0.0
C2880 C 0.40373 0.36805 0.08106 0.0
C2881 C 0.38989 0.35574 0.08267 0.0
C2882 C 0.37819 0.35679 0.08349 0.0
C2883 C 0.36517 0.34514 0.08499 0.0
C2884 C 0.36373 0.33239 0.08582 0.0
C2885 C 0.37532 0.33128 0.08519 0.0
C2886 C 0.38837 0.3429 0.08366 0.0
C2887 C 0.44244 0.39992 0.12593 0.0
C2888 C 0.45191 0.3958 0.12807 0.0
C2889 C 0.43435 0.3961 0.11382 0.0
C2890 C 0.43553 0.38804 0.1037 0.0
C2891 C 0.44505 0.38402 0.10567 0.0
C2892 C 0.45337 0.38807 0.11767 0.0
C2893 C 0.42651 0.38369 0.09123 0.0
C2894 C 0.4137 0.3715 0.09156 0.0
C2895 C 0.42972 0.39236 0.07987 0.0
C2896 C 0.44314 0.40531 0.07907 0.0
C2897 C 0.45543 0.4053 0.07868 0.0
C2898 C 0.46808 0.41756 0.07796 0.0
C2899 C 0.46855 0.42988 0.07754 0.0
C2900 C 0.45636 0.42996 0.0778 0.0
C2901 C 0.44368 0.41773 0.07853 0.0
H2902 H 0.47835 0.43935 0.07697 0.0
H2903 H 0.35364 0.32338 0.08699 0.0
H2904 H 0.66502 0.7061 0.38217 0.0
H2905 H 0.65945 0.71552 0.40208 0.0
H2906 H 0.61613 0.68748 0.39358 0.0
H2907 H 0.62168 0.6786 0.3734 0.0
H2908 H 0.62056 0.71148 0.39586 0.0
H2909 H 0.63478 0.68588 0.42302 0.0
H2910 H 0.65075 0.67883 0.43083 0.0
H2911 H 0.68043 0.71992 0.44361 0.0
H2912 H 0.6647 0.72724 0.43573 0.0
H2913 H 0.59144 0.72227 0.45438 0.0
H2914 H 0.59947 0.71226 0.43747 0.0
H2915 H 0.64148 0.74422 0.44637 0.0
H2916 H 0.63347 0.75412 0.46356 0.0
H2917 H 0.6392 0.71977 0.444 0.0
H2918 H 0.62481 0.74513 0.41727 0.0
H2919 H 0.60891 0.75225 0.40945 0.0
H2920 H 0.57956 0.71139 0.39569 0.0
H2921 H 0.59521 0.70399 0.4036 0.0
C2922 C 0.65434 0.70178 0.38479 0.0
C2923 C 0.64377 0.6917 0.37624 0.0
C2924 C 0.65115 0.70714 0.39617 0.0
C2925 C 0.63734 0.70223 0.39936 0.0
C2926 C 0.62685 0.69154 0.39129 0.0
C2927 C 0.63002 0.68643 0.37979 0.0
C2928 C 0.63366 0.70892 0.41019 0.0
C2929 C 0.62449 0.71306 0.40644 0.0
C2930 C 0.63918 0.71154 0.42388 0.0
C2931 C 0.64861 0.70713 0.42866 0.0
C2932 C 0.64475 0.69343 0.42741 0.0
C2933 C 0.65375 0.68938 0.43186 0.0
C2934 C 0.66661 0.69893 0.43768 0.0
C2935 C 0.67048 0.71254 0.43909 0.0
C2936 C 0.66152 0.71664 0.43465 0.0
C2937 C 0.60237 0.72722 0.45264 0.0
C2938 C 0.61179 0.7392 0.45997 0.0
C2939 C 0.60696 0.72149 0.443 0.0
C2940 C 0.62106 0.72764 0.44046 0.0
C2941 C 0.63054 0.73937 0.44808 0.0
C2942 C 0.62596 0.74508 0.45779 0.0
C2943 C 0.62582 0.72188 0.4297 0.0
C2944 C 0.63526 0.71808 0.43342 0.0
C2945 C 0.62055 0.71953 0.41596 0.0
C2946 C 0.61114 0.72399 0.41114 0.0
C2947 C 0.61493 0.73764 0.41267 0.0
C2948 C 0.60596 0.74173 0.4082 0.0
C2949 C 0.59322 0.73227 0.40211 0.0
C2950 C 0.58943 0.71871 0.40043 0.0
C2951 C 0.59835 0.71456 0.40489 0.0
H2952 H 0.5863 0.73546 0.39866 0.0
H2953 H 0.67357 0.69578 0.44111 0.0
H2954 H 0.30609 0.9666 0.39983 0.0
H2955 H 0.29704 0.95362 0.42108 0.0
H2956 H 0.28258 0.91627 0.39792 0.0
H2957 H 0.29151 0.92903 0.3768 0.0
H2958 H 0.26306 0.91477 0.415 0.0
H2959 H 0.31081 0.92879 0.41714 0.0
H2960 H 0.33586 0.94512 0.41739 0.0
H2961 H 0.33267 0.9645 0.454 0.0
H2962 H 0.30754 0.94839 0.45385 0.0
H2963 H 0.25421 0.86585 0.46362 0.0
H2964 H 0.26378 0.88248 0.44519 0.0
H2965 H 0.26907 0.91392 0.47358 0.0
H2966 H 0.25913 0.89734 0.49199 0.0
H2967 H 0.29293 0.92044 0.45557 0.0
H2968 H 0.24459 0.9042 0.45389 0.0
H2969 H 0.21987 0.88659 0.45335 0.0
H2970 H 0.22464 0.87027 0.41525 0.0
H2971 H 0.24946 0.88766 0.41568 0.0
C2972 C 0.30096 0.95563 0.39929 0.0
C2973 C 0.29953 0.94885 0.38664 0.0
C2974 C 0.29585 0.94825 0.41142 0.0
C2975 C 0.28918 0.93401 0.41103 0.0
C2976 C 0.28766 0.92725 0.39841 0.0
C2977 C 0.29283 0.93459 0.38636 0.0
C2978 C 0.28367 0.92597 0.42369 0.0
C2979 C 0.2696 0.91599 0.42385 0.0
C2980 C 0.29218 0.92775 0.43531 0.0
C2981 C 0.30727 0.93751 0.43537 0.0
C2982 C 0.31542 0.93663 0.42515 0.0
C2983 C 0.32964 0.94582 0.4253 0.0
C2984 C 0.33585 0.95588 0.43567 0.0
C2985 C 0.32784 0.95674 0.44595 0.0
C2986 C 0.31361 0.94757 0.44584 0.0
C2987 C 0.25757 0.87634 0.466 0.0
C2988 C 0.25632 0.8803 0.47941 0.0
C2989 C 0.26299 0.8858 0.45546 0.0
C2990 C 0.26721 0.8994 0.45811 0.0
C2991 C 0.26601 0.90347 0.47144 0.0
C2992 C 0.26037 0.89396 0.48195 0.0
C2993 C 0.2724 0.90918 0.44674 0.0
C2994 C 0.28638 0.91943 0.44681 0.0
C2995 C 0.26385 0.90758 0.43524 0.0
C2996 C 0.24891 0.89716 0.43489 0.0
C2997 C 0.2404 0.89679 0.44546 0.0
C2998 C 0.22636 0.88686 0.44516 0.0
C2999 C 0.22069 0.8773 0.43429 0.0
C3000 C 0.22905 0.87767 0.42367 0.0
C3001 C 0.2431 0.88757 0.42393 0.0
H3002 H 0.20982 0.86962 0.43408 0.0
H3003 H 0.34686 0.96298 0.43578 0.0
H3004 H 0.04693 0.33525 0.39335 0.0
H3005 H 0.06501 0.35065 0.40975 0.0
H3006 H 0.07993 0.38293 0.38028 0.0
H3007 H 0.06152 0.3675 0.36373 0.0
H3008 H 0.10046 0.37794 0.39257 0.0
H3009 H 0.06641 0.38729 0.40609 0.0
H3010 H 0.04323 0.38191 0.41225 0.0
H3011 H 0.04402 0.36005 0.44759 0.0
H3012 H 0.06713 0.36512 0.44152 0.0
H3013 H 0.14925 0.41941 0.44619 0.0
H3014 H 0.13161 0.41187 0.42775 0.0
H3015 H 0.10461 0.37598 0.45077 0.0
H3016 H 0.12216 0.38349 0.46922 0.0
H3017 H 0.09098 0.38738 0.43993 0.0
H3018 H 0.12263 0.37447 0.42421 0.0
H3019 H 0.14536 0.37862 0.41792 0.0
H3020 H 0.14866 0.40629 0.38666 0.0
H3021 H 0.12601 0.40243 0.3929 0.0
C3022 C 0.05398 0.34565 0.39036 0.0
C3023 C 0.05284 0.35017 0.37724 0.0
C3024 C 0.06426 0.35445 0.39977 0.0
C3025 C 0.07374 0.36792 0.39623 0.0
C3026 C 0.07265 0.37256 0.38318 0.0
C3027 C 0.06214 0.36378 0.37379 0.0
C3028 C 0.08508 0.37672 0.40612 0.0
C3029 C 0.09849 0.38037 0.40281 0.0
C3030 C 0.08238 0.37958 0.41954 0.0
C3031 C 0.06849 0.37653 0.42329 0.0
C3032 C 0.0616 0.38124 0.41512 0.0
C3033 C 0.04848 0.37826 0.4186 0.0
C3034 C 0.04214 0.37063 0.43029 0.0
C3035 C 0.04894 0.36597 0.43853 0.0
C3036 C 0.06206 0.36891 0.43509 0.0
C3037 C 0.13956 0.40989 0.44727 0.0
C3038 C 0.13716 0.40191 0.45902 0.0
C3039 C 0.1295 0.40561 0.43675 0.0
C3040 C 0.11685 0.39331 0.43784 0.0
C3041 C 0.1143 0.3855 0.44972 0.0
C3042 C 0.12435 0.38975 0.4602 0.0
C3043 C 0.10631 0.38829 0.42651 0.0
C3044 C 0.09304 0.3853 0.42958 0.0
C3045 C 0.10912 0.38597 0.4129 0.0
C3046 C 0.12273 0.38831 0.40915 0.0
C3047 C 0.12827 0.38153 0.41608 0.0
C3048 C 0.14112 0.38381 0.41251 0.0
C3049 C 0.14847 0.39275 0.40193 0.0
C3050 C 0.14297 0.3994 0.39487 0.0
C3051 C 0.13012 0.39717 0.39842 0.0
H3052 H 0.15842 0.3945 0.39917 0.0
H3053 H 0.03198 0.36833 0.43297 0.0
H3054 H 0.0258 0.32143 0.29997 0.0
H3055 H 0.03406 0.3168 0.27855 0.0
H3056 H 0.05334 0.29957 0.30224 0.0
H3057 H 0.04487 0.30382 0.32359 0.0
H3058 H 0.07061 0.32045 0.28199 0.0
H3059 H 0.02695 0.27843 0.28672 0.0
H3060 H 0.00181 0.26445 0.28935 0.0
H3061 H 0.99577 0.27968 0.25127 0.0
H3062 H 0.02091 0.29392 0.24852 0.0
H3063 H 0.08762 0.28572 0.23356 0.0
H3064 H 0.07839 0.29181 0.25309 0.0
H3065 H 0.05611 0.30243 0.22482 0.0
H3066 H 0.06532 0.29661 0.20529 0.0
H3067 H 0.03999 0.28627 0.24629 0.0
H3068 H 0.08316 0.32704 0.24042 0.0
H3069 H 0.10822 0.34134 0.23744 0.0
H3070 H 0.11522 0.32938 0.27713 0.0
H3071 H 0.09017 0.31482 0.28026 0.0
C3072 C 0.03174 0.3166 0.30059 0.0
C3073 C 0.03467 0.31297 0.31345 0.0
C3074 C 0.03642 0.31395 0.28837 0.0
C3075 C 0.0443 0.30787 0.28888 0.0
C3076 C 0.04727 0.30428 0.30168 0.0
C3077 C 0.04238 0.30667 0.31384 0.0
C3078 C 0.04969 0.30542 0.27611 0.0
C3079 C 0.06395 0.3129 0.27423 0.0
C3080 C 0.04091 0.29586 0.26584 0.0
C3081 C 0.02581 0.28739 0.26752 0.0
C3082 C 0.02027 0.27893 0.27899 0.0
C3083 C 0.00602 0.27093 0.28049 0.0
C3084 C 0.9972 0.27122 0.27052 0.0
C3085 C 0.00261 0.2795 0.25901 0.0
C3086 C 0.01686 0.28753 0.25748 0.0
C3087 C 0.08075 0.28937 0.2315 0.0
C3088 C 0.07714 0.29044 0.21781 0.0
C3089 C 0.07553 0.29287 0.24266 0.0
C3090 C 0.06658 0.29758 0.24038 0.0
C3091 C 0.06295 0.29875 0.22678 0.0
C3092 C 0.06829 0.29538 0.21559 0.0
C3093 C 0.06096 0.30116 0.25226 0.0
C3094 C 0.04666 0.29391 0.25398 0.0
C3095 C 0.0697 0.31101 0.26234 0.0
C3096 C 0.08478 0.31972 0.26051 0.0
C3097 C 0.09004 0.32735 0.24846 0.0
C3098 C 0.10424 0.33553 0.24675 0.0
C3099 C 0.11331 0.33624 0.25707 0.0
C3100 C 0.10818 0.3288 0.26914 0.0
C3101 C 0.09398 0.32059 0.27089 0.0
H3102 H 0.12431 0.34259 0.25574 0.0
H3103 H 0.98617 0.26501 0.27168 0.0
H3104 H 0.66373 0.71865 0.30761 0.0
H3105 H 0.67732 0.73568 0.29068 0.0
H3106 H 0.71206 0.73175 0.30028 0.0
H3107 H 0.69838 0.71444 0.31749 0.0
H3108 H 0.71824 0.75971 0.29672 0.0
H3109 H 0.69602 0.71684 0.27257 0.0
H3110 H 0.67645 0.694 0.26621 0.0
H3111 H 0.65425 0.71155 0.24968 0.0
H3112 H 0.6736 0.7345 0.25613 0.0
H3113 H 0.74704 0.80024 0.2362 0.0
H3114 H 0.74024 0.78251 0.25348 0.0
H3115 H 0.69774 0.7704 0.2473 0.0
H3116 H 0.70441 0.78756 0.22967 0.0
H3117 H 0.69926 0.74897 0.24862 0.0
H3118 H 0.7192 0.79092 0.276 0.0
H3119 H 0.73786 0.81396 0.28327 0.0
H3120 H 0.76362 0.79846 0.29417 0.0
H3121 H 0.74515 0.77535 0.28682 0.0
C3122 C 0.67428 0.72139 0.30625 0.0
C3123 C 0.67991 0.71504 0.31382 0.0
C3124 C 0.68203 0.73116 0.29654 0.0
C3125 C 0.6956 0.73481 0.29409 0.0
C3126 C 0.70156 0.72899 0.302 0.0
C3127 C 0.69374 0.71911 0.3118 0.0
C3128 C 0.70309 0.74431 0.2828 0.0
C3129 C 0.71434 0.75731 0.28612 0.0
C3130 C 0.69783 0.74117 0.26904 0.0
C3131 C 0.68626 0.7274 0.26488 0.0
C3132 C 0.68694 0.71583 0.26764 0.0
C3133 C 0.67589 0.70286 0.26401 0.0
C3134 C 0.66411 0.70132 0.25755 0.0
C3135 C 0.66338 0.71276 0.25467 0.0
C3136 C 0.6744 0.72575 0.25829 0.0
C3137 C 0.73627 0.79383 0.23865 0.0
C3138 C 0.72632 0.79558 0.23189 0.0
C3139 C 0.73239 0.78373 0.24852 0.0
C3140 C 0.71849 0.77526 0.25191 0.0
C3141 C 0.70854 0.77683 0.24495 0.0
C3142 C 0.71238 0.78676 0.23496 0.0
C3143 C 0.7141 0.76466 0.26259 0.0
C3144 C 0.70342 0.75137 0.25913 0.0
C3145 C 0.71983 0.7676 0.27622 0.0
C3146 C 0.73087 0.78146 0.28072 0.0
C3147 C 0.72888 0.79245 0.27987 0.0
C3148 C 0.73941 0.80551 0.28401 0.0
C3149 C 0.75193 0.80768 0.28914 0.0
C3150 C 0.75393 0.79677 0.29017 0.0
C3151 C 0.74343 0.78369 0.28603 0.0
H3152 H 0.76007 0.8178 0.29233 0.0
H3153 H 0.65555 0.69127 0.25477 0.0
H3154 H 0.27956 0.97835 0.33279 0.0
H3155 H 0.26237 0.97486 0.31493 0.0
H3156 H 0.27766 0.95603 0.28798 0.0
H3157 H 0.29464 0.95933 0.30566 0.0
H3158 H 0.27215 0.9739 0.27426 0.0
H3159 H 0.25064 0.93652 0.30621 0.0
H3160 H 0.24323 0.92654 0.32924 0.0
H3161 H 0.21883 0.94469 0.33298 0.0
H3162 H 0.22627 0.95494 0.31003 0.0
H3163 H 0.21965 0.92944 0.22722 0.0
H3164 H 0.23726 0.9397 0.24569 0.0
H3165 H 0.21356 0.95355 0.26656 0.0
H3166 H 0.1959 0.94329 0.24806 0.0
H3167 H 0.22296 0.94169 0.28428 0.0
H3168 H 0.24169 0.97604 0.25042 0.0
H3169 H 0.24905 0.98574 0.22729 0.0
H3170 H 0.27868 0.97356 0.22696 0.0
H3171 H 0.27135 0.96357 0.25 0.0
C3172 C 0.27933 0.97361 0.32299 0.0
C3173 C 0.28834 0.96899 0.32066 0.0
C3174 C 0.26951 0.97161 0.31283 0.0
C3175 C 0.26873 0.96512 0.30018 0.0
C3176 C 0.27811 0.96106 0.29766 0.0
C3177 C 0.28775 0.96288 0.30782 0.0
C3178 C 0.25768 0.96174 0.28979 0.0
C3179 C 0.26139 0.96685 0.27641 0.0
C3180 C 0.24364 0.95281 0.29274 0.0
C3181 C 0.23915 0.94664 0.30651 0.0
C3182 C 0.2438 0.93848 0.31201 0.0
C3183 C 0.23957 0.93276 0.32503 0.0
C3184 C 0.2306 0.93502 0.3326 0.0
C3185 C 0.22581 0.94298 0.32713 0.0
C3186 C 0.23002 0.94874 0.31411 0.0
C3187 C 0.2182 0.93465 0.23576 0.0
C3188 C 0.20636 0.93546 0.23627 0.0
C3189 C 0.22829 0.94058 0.24626 0.0
C3190 C 0.22677 0.9475 0.25743 0.0
C3191 C 0.21493 0.94827 0.25802 0.0
C3192 C 0.20486 0.9424 0.24748 0.0
C3193 C 0.23744 0.9536 0.26862 0.0
C3194 C 0.23367 0.94897 0.28215 0.0
C3195 C 0.25143 0.96298 0.2658 0.0
C3196 C 0.25588 0.96896 0.25191 0.0
C3197 C 0.24969 0.97532 0.24537 0.0
C3198 C 0.25388 0.98089 0.23228 0.0
C3199 C 0.26431 0.98024 0.22565 0.0
C3200 C 0.27059 0.97404 0.2321 0.0
C3201 C 0.26644 0.96844 0.24519 0.0
H3202 H 0.26754 0.98457 0.21552 0.0
H3203 H 0.22734 0.93057 0.34267 0.0
H3204 H 0.67337 0.9623 0.31123 0.0
H3205 H 0.67907 0.95454 0.29014 0.0
H3206 H 0.7208 0.97198 0.3054 0.0
H3207 H 0.71518 0.97962 0.32657 0.0
H3208 H 0.71849 0.9776 0.27722 0.0
H3209 H 0.70044 0.93977 0.30821 0.0
H3210 H 0.68313 0.92259 0.32358 0.0
H3211 H 0.65361 0.90613 0.28986 0.0
H3212 H 0.6707 0.92336 0.27432 0.0
H3213 H 0.74433 0.946 0.23592 0.0
H3214 H 0.73646 0.95289 0.25602 0.0
H3215 H 0.69532 0.93236 0.23834 0.0
H3216 H 0.70317 0.92548 0.21814 0.0
H3217 H 0.69594 0.92817 0.26677 0.0
H3218 H 0.71382 0.96494 0.23545 0.0
H3219 H 0.73083 0.98193 0.21974 0.0
H3220 H 0.76006 0.00044 0.25353 0.0
H3221 H 0.74329 0.9834 0.26942 0.0
C3222 C 0.68379 0.96457 0.31005 0.0
C3223 C 0.69382 0.97152 0.32058 0.0
C3224 C 0.687 0.96009 0.29803 0.0
C3225 C 0.70032 0.96263 0.29629 0.0
C3226 C 0.71045 0.96992 0.30658 0.0
C3227 C 0.70721 0.97423 0.31867 0.0
C3228 C 0.70368 0.95742 0.28389 0.0
C3229 C 0.71367 0.9668 0.27499 0.0
C3230 C 0.69707 0.94333 0.28083 0.0
C3231 C 0.68679 0.93296 0.29015 0.0
C3232 C 0.69022 0.93257 0.3041 0.0
C3233 C 0.68046 0.92281 0.31284 0.0
C3234 C 0.66727 0.91331 0.30771 0.0
C3235 C 0.66382 0.91352 0.29382 0.0
C3236 C 0.67354 0.92328 0.28504 0.0
C3237 C 0.73359 0.94287 0.23639 0.0
C3238 C 0.72436 0.93525 0.22548 0.0
C3239 C 0.72911 0.94683 0.24783 0.0
C3240 C 0.71534 0.94324 0.24857 0.0
C3241 C 0.70599 0.93522 0.23794 0.0
C3242 C 0.71048 0.93133 0.22643 0.0
C3243 C 0.71091 0.94835 0.26021 0.0
C3244 C 0.70071 0.93897 0.26895 0.0
C3245 C 0.71725 0.96245 0.26308 0.0
C3246 C 0.72734 0.97281 0.2536 0.0
C3247 C 0.72391 0.97256 0.23951 0.0
C3248 C 0.73351 0.98221 0.23058 0.0
C3249 C 0.74653 0.99224 0.23563 0.0
C3250 C 0.74997 0.99265 0.24963 0.0
C3251 C 0.74042 0.98301 0.25861 0.0
H3252 H 0.75394 -0.00029 0.22869 0.0
H3253 H 0.65973 0.90575 0.31449 0.0
H3254 H 0.02006 0.71153 0.30116 0.0
H3255 H 0.028 0.72567 0.28061 0.0
H3256 H 0.05599 0.76051 0.3063 0.0
H3257 H 0.04728 0.7466 0.32685 0.0
H3258 H 0.04465 0.76806 0.28973 0.0
H3259 H 0.06576 0.74169 0.28298 0.0
H3260 H 0.06618 0.72063 0.28064 0.0
H3261 H 0.03859 0.70817 0.24539 0.0
H3262 H 0.03788 0.72907 0.24762 0.0
H3263 H 0.07759 0.81204 0.23503 0.0
H3264 H 0.07432 0.79737 0.25434 0.0
H3265 H 0.04402 0.76242 0.23029 0.0
H3266 H 0.04801 0.7769 0.21049 0.0
H3267 H 0.05759 0.75526 0.24603 0.0
H3268 H 0.03562 0.78111 0.25406 0.0
H3269 H 0.03555 0.80236 0.25641 0.0
H3270 H 0.06552 0.81589 0.28965 0.0
H3271 H 0.06587 0.79479 0.28739 0.0
C3272 C 0.02794 0.72221 0.30234 0.0
C3273 C 0.03303 0.72803 0.31553 0.0
C3274 C 0.03258 0.73027 0.29059 0.0
C3275 C 0.04281 0.74417 0.2918 0.0
C3276 C 0.04808 0.74985 0.30503 0.0
C3277 C 0.04312 0.74191 0.31678 0.0
C3278 C 0.04745 0.75304 0.2795 0.0
C3279 C 0.04772 0.76532 0.28029 0.0
C3280 C 0.05114 0.7494 0.26698 0.0
C3281 C 0.05169 0.7369 0.26554 0.0
C3282 C 0.05973 0.73443 0.27478 0.0
C3283 C 0.06003 0.72252 0.27346 0.0
C3284 C 0.05239 0.71306 0.26289 0.0
C3285 C 0.04449 0.7155 0.25358 0.0
C3286 C 0.04415 0.72738 0.25485 0.0
C3287 C 0.07028 0.80124 0.23373 0.0
C3288 C 0.06258 0.79574 0.22131 0.0
C3289 C 0.06839 0.79285 0.24486 0.0
C3290 C 0.05852 0.77886 0.24398 0.0
C3291 C 0.05153 0.77322 0.23132 0.0
C3292 C 0.05369 0.78154 0.22006 0.0
C3293 C 0.05486 0.77023 0.2564 0.0
C3294 C 0.05468 0.75799 0.25558 0.0
C3295 C 0.05131 0.77391 0.26895 0.0
C3296 C 0.05084 0.78643 0.27049 0.0
C3297 C 0.04221 0.78864 0.26185 0.0
C3298 C 0.04213 0.80066 0.26316 0.0
C3299 C 0.05054 0.81048 0.27316 0.0
C3300 C 0.05901 0.80828 0.28191 0.0
C3301 C 0.05915 0.79629 0.28063 0.0
H3302 H 0.05048 0.81978 0.27414 0.0
H3303 H 0.05262 0.70384 0.2619 0.0
H3304 H 0.27604 0.30234 0.32373 0.0
H3305 H 0.25763 0.28995 0.30619 0.0
H3306 H 0.27522 0.32593 0.2814 0.0
H3307 H 0.29328 0.33834 0.29887 0.0
H3308 H 0.24869 0.31553 0.28352 0.0
H3309 H 0.27803 0.29796 0.27342 0.0
H3310 H 0.29044 0.28634 0.27895 0.0
H3311 H 0.25239 0.25029 0.28928 0.0
H3312 H 0.23977 0.26177 0.28397 0.0
H3313 H 0.22291 0.29407 0.21545 0.0
H3314 H 0.23713 0.30227 0.23665 0.0
H3315 H 0.20981 0.26412 0.25611 0.0
H3316 H 0.19538 0.25591 0.23493 0.0
H3317 H 0.23802 0.27295 0.25929 0.0
H3318 H 0.20854 0.29006 0.26637 0.0
H3319 H 0.19645 0.30186 0.26025 0.0
H3320 H 0.23518 0.3391 0.25525 0.0
H3321 H 0.24751 0.32748 0.26112 0.0
C3322 C 0.27602 0.30753 0.31447 0.0
C3323 C 0.28606 0.32134 0.31273 0.0
C3324 C 0.26552 0.30045 0.30446 0.0
C3325 C 0.26503 0.30702 0.29248 0.0
C3326 C 0.27529 0.32068 0.29061 0.0
C3327 C 0.28565 0.32775 0.30061 0.0
C3328 C 0.25373 0.30002 0.28195 0.0
C3329 C 0.24644 0.30627 0.27817 0.0
C3330 C 0.25042 0.28767 0.27529 0.0
C3331 C 0.25799 0.28077 0.27846 0.0
C3332 C 0.27233 0.28759 0.27698 0.0
C3333 C 0.27939 0.28103 0.28005 0.0
C3334 C 0.27221 0.2676 0.28451 0.0
C3335 C 0.25794 0.2607 0.28586 0.0
C3336 C 0.25083 0.26722 0.28281 0.0
C3337 C 0.21987 0.28747 0.22428 0.0
C3338 C 0.20808 0.27433 0.22353 0.0
C3339 C 0.22799 0.29216 0.23638 0.0
C3340 C 0.22449 0.2838 0.24794 0.0
C3341 C 0.21268 0.2707 0.24728 0.0
C3342 C 0.20446 0.26605 0.23521 0.0
C3343 C 0.23342 0.28878 0.26057 0.0
C3344 C 0.24018 0.28212 0.26478 0.0
C3345 C 0.23633 0.30081 0.26759 0.0
C3346 C 0.22895 0.30786 0.26408 0.0
C3347 C 0.21448 0.30074 0.26385 0.0
C3348 C 0.20758 0.3074 0.26045 0.0
C3349 C 0.21504 0.32121 0.25734 0.0
C3350 C 0.22941 0.3284 0.25765 0.0
C3351 C 0.23636 0.32178 0.26103 0.0
H3352 H 0.20968 0.32635 0.25471 0.0
H3353 H 0.2777 0.26253 0.28688 0.0
H3354 H 0.28399 0.35315 0.36809 0.0
H3355 H 0.27578 0.35871 0.38877 0.0
H3356 H 0.30624 0.35652 0.41367 0.0
H3357 H 0.31389 0.35003 0.39296 0.0
H3358 H 0.28358 0.34758 0.4279 0.0
H3359 H 0.31166 0.38757 0.40079 0.0
H3360 H 0.31813 0.40084 0.37939 0.0
H3361 H 0.2787 0.39715 0.37744 0.0
H3362 H 0.27195 0.38374 0.39874 0.0
H3363 H 0.28631 0.38988 0.48333 0.0
H3364 H 0.2906 0.37881 0.46425 0.0
H3365 H 0.26187 0.38281 0.43832 0.0
H3366 H 0.2583 0.39479 0.45698 0.0
H3367 H 0.28346 0.39035 0.42472 0.0
H3368 H 0.25557 0.35119 0.45246 0.0
H3369 H 0.24902 0.33784 0.4738 0.0
H3370 H 0.28765 0.33984 0.47477 0.0
H3371 H 0.2945 0.35334 0.45353 0.0
C3372 C 0.2888 0.35368 0.37802 0.0
C3373 C 0.29967 0.35137 0.37897 0.0
C3374 C 0.28415 0.35692 0.38982 0.0
C3375 C 0.29069 0.35849 0.40272 0.0
C3376 C 0.30112 0.35548 0.40381 0.0
C3377 C 0.3055 0.35182 0.39201 0.0
C3378 C 0.28721 0.36408 0.4148 0.0
C3379 C 0.28368 0.357 0.42727 0.0
C3380 C 0.28708 0.37624 0.41392 0.0
C3381 C 0.29128 0.38459 0.4013 0.0
C3382 C 0.30436 0.38957 0.39577 0.0
C3383 C 0.30808 0.39711 0.38366 0.0
C3384 C 0.29882 0.39982 0.37705 0.0
C3385 C 0.28586 0.39505 0.38257 0.0
C3386 C 0.28209 0.38749 0.39467 0.0
C3387 C 0.28102 0.38857 0.47352 0.0
C3388 C 0.27238 0.39375 0.47163 0.0
C3389 C 0.2833 0.38198 0.46266 0.0
C3390 C 0.27651 0.37987 0.44981 0.0
C3391 C 0.26734 0.38442 0.44809 0.0
C3392 C 0.26531 0.3913 0.45883 0.0
C3393 C 0.27963 0.37379 0.43786 0.0
C3394 C 0.28322 0.38086 0.42539 0.0
C3395 C 0.27978 0.36163 0.43879 0.0
C3396 C 0.27559 0.35336 0.45146 0.0
C3397 C 0.2627 0.34884 0.45727 0.0
C3398 C 0.25892 0.34124 0.46934 0.0
C3399 C 0.26792 0.33802 0.47565 0.0
C3400 C 0.28069 0.34235 0.46987 0.0
C3401 C 0.28451 0.34995 0.45781 0.0
H3402 H 0.26499 0.33215 0.485 0.0
H3403 H 0.30171 0.40564 0.36766 0.0
H3404 H 0.6372 0.94533 0.37286 0.0
H3405 H 0.6225 0.92662 0.38815 0.0
H3406 H 0.65854 0.9316 0.40911 0.0
H3407 H 0.67324 0.95004 0.3938 0.0
H3408 H 0.64019 0.90545 0.40465 0.0
H3409 H 0.63982 0.94428 0.42282 0.0
H3410 H 0.63613 0.96346 0.4218 0.0
H3411 H 0.59345 0.93585 0.41127 0.0
H3412 H 0.59694 0.91652 0.41205 0.0
H3413 H 0.61826 0.88086 0.47234 0.0
H3414 H 0.62872 0.89492 0.45209 0.0
H3415 H 0.58864 0.87765 0.43254 0.0
H3416 H 0.57812 0.86312 0.45257 0.0
H3417 H 0.60609 0.90771 0.43392 0.0
H3418 H 0.6066 0.86847 0.41899 0.0
H3419 H 0.61099 0.84983 0.42115 0.0
H3420 H 0.65425 0.87884 0.42674 0.0
H3421 H 0.65009 0.89768 0.42484 0.0
C3422 C 0.64199 0.94242 0.38071 0.0
C3423 C 0.6564 0.94922 0.38213 0.0
C3424 C 0.63357 0.93174 0.38946 0.0
C3425 C 0.63942 0.92778 0.39984 0.0
C3426 C 0.65379 0.93445 0.40115 0.0
C3427 C 0.66219 0.94505 0.39241 0.0
C3428 C 0.63071 0.91687 0.40961 0.0
C3429 C 0.63278 0.90598 0.41109 0.0
C3430 C 0.6208 0.91738 0.41778 0.0
C3431 C 0.61868 0.92898 0.41732 0.0
C3432 C 0.62968 0.94232 0.42017 0.0
C3433 C 0.62762 0.95321 0.41966 0.0
C3434 C 0.61457 0.95088 0.41643 0.0
C3435 C 0.60355 0.93764 0.41374 0.0
C3436 C 0.60557 0.92672 0.41422 0.0
C3437 C 0.61169 0.87997 0.46368 0.0
C3438 C 0.59735 0.87107 0.46415 0.0
C3439 C 0.61767 0.88799 0.45214 0.0
C3440 C 0.60942 0.88734 0.44089 0.0
C3441 C 0.59514 0.87832 0.44118 0.0
C3442 C 0.58916 0.87008 0.45262 0.0
C3443 C 0.61581 0.89651 0.42912 0.0
C3444 C 0.61333 0.90707 0.4273 0.0
C3445 C 0.62545 0.89579 0.42075 0.0
C3446 C 0.62801 0.88449 0.4219 0.0
C3447 C 0.61704 0.87089 0.42082 0.0
C3448 C 0.61949 0.86028 0.42197 0.0
C3449 C 0.63289 0.86315 0.42412 0.0
C3450 C 0.64387 0.87664 0.42509 0.0
C3451 C 0.64147 0.88728 0.42396 0.0
H3452 H 0.63477 0.85493 0.425 0.0
H3453 H 0.613 0.95933 0.41604 0.0
H3454 H 0.05963 0.70463 0.36588 0.0
H3455 H 0.07773 0.70972 0.38321 0.0
H3456 H 0.05591 0.71843 0.41359 0.0
H3457 H 0.03832 0.71406 0.39622 0.0
H3458 H 0.08126 0.73715 0.41522 0.0
H3459 H 0.05717 0.68784 0.41214 0.0
H3460 H 0.04808 0.66578 0.40001 0.0
H3461 H 0.08883 0.67796 0.38742 0.0
H3462 H 0.09813 0.70016 0.39935 0.0
H3463 H 0.10696 0.73075 0.47956 0.0
H3464 H 0.09312 0.72766 0.45871 0.0
H3465 H 0.12352 0.72664 0.43366 0.0
H3466 H 0.13743 0.72973 0.45457 0.0
H3467 H 0.09705 0.70577 0.42707 0.0
H3468 H 0.12117 0.75405 0.43305 0.0
H3469 H 0.1299 0.77567 0.44593 0.0
H3470 H 0.0885 0.76501 0.45365 0.0
H3471 H 0.07951 0.74321 0.44102 0.0
C3472 C 0.05869 0.70752 0.3763 0.0
C3473 C 0.04762 0.709 0.37972 0.0
C3474 C 0.06901 0.7104 0.38621 0.0
C3475 C 0.06818 0.7144 0.39977 0.0
C3476 C 0.05689 0.71549 0.4032 0.0
C3477 C 0.0468 0.71293 0.39327 0.0
C3478 C 0.07912 0.71786 0.41043 0.0
C3479 C 0.08459 0.7302 0.41787 0.0
C3480 C 0.08391 0.70907 0.4136 0.0
C3481 C 0.07832 0.6957 0.40651 0.0
C3482 C 0.06417 0.68584 0.40671 0.0
C3483 C 0.05899 0.67331 0.39988 0.0
C3484 C 0.06786 0.67048 0.39291 0.0
C3485 C 0.08196 0.68017 0.3928 0.0
C3486 C 0.08719 0.69272 0.3996 0.0
C3487 C 0.11077 0.73003 0.46959 0.0
C3488 C 0.12332 0.73061 0.46864 0.0
C3489 C 0.10287 0.72828 0.4577 0.0
C3490 C 0.10737 0.72705 0.44464 0.0
C3491 C 0.1199 0.72761 0.44364 0.0
C3492 C 0.12785 0.72944 0.45555 0.0
C3493 C 0.09869 0.72476 0.43213 0.0
C3494 C 0.09376 0.71273 0.4243 0.0
C3495 C 0.0943 0.73377 0.42867 0.0
C3496 C 0.09967 0.74695 0.43616 0.0
C3497 C 0.11392 0.75627 0.43758 0.0
C3498 C 0.11892 0.76857 0.44482 0.0
C3499 C 0.10976 0.7717 0.45062 0.0
C3500 C 0.09558 0.76256 0.44916 0.0
C3501 C 0.09053 0.75024 0.44194 0.0
H3502 H 0.11365 0.78122 0.45623 0.0
H3503 H 0.06383 0.66078 0.38763 0.0
H3504 H 0.31703 0.02372 0.71829 0.0
H3505 H 0.31179 0.0327 0.73886 0.0
H3506 H 0.29611 0.0518 0.71267 0.0
H3507 H 0.30098 0.04266 0.69217 0.0
H3508 H 0.31572 0.06903 0.73465 0.0
H3509 H 0.27376 0.02548 0.72644 0.0
H3510 H 0.26009 0.00057 0.7231 0.0
H3511 H 0.27356 0.99561 0.76312 0.0
H3512 H 0.28748 0.02053 0.7666 0.0
H3513 H 0.27543 0.08512 0.7759 0.0
H3514 H 0.28416 0.07639 0.75829 0.0
H3515 H 0.29314 0.05571 0.78969 0.0
H3516 H 0.28472 0.06448 0.80735 0.0
H3517 H 0.27895 0.0391 0.76686 0.0
H3518 H 0.31896 0.08236 0.77633 0.0
H3519 H 0.33285 0.10722 0.77992 0.0
H3520 H 0.32382 0.11288 0.73813 0.0
H3521 H 0.30968 0.08802 0.73435 0.0
C3522 C 0.31244 0.02981 0.71694 0.0
C3523 C 0.30936 0.03244 0.70363 0.0
C3524 C 0.30945 0.03491 0.72867 0.0
C3525 C 0.30359 0.0429 0.72722 0.0
C3526 C 0.30067 0.04567 0.71396 0.0
C3527 C 0.30338 0.04037 0.70228 0.0
C3528 C 0.30038 0.04839 0.73947 0.0
C3529 C 0.30763 0.06252 0.74167 0.0
C3530 C 0.29011 0.03982 0.74879 0.0
C3531 C 0.28182 0.02486 0.74669 0.0
C3532 C 0.27394 0.01908 0.73446 0.0
C3533 C 0.26611 0.00496 0.73256 0.0
C3534 C 0.266 0.99651 0.74287 0.0
C3535 C 0.27369 0.00217 0.75512 0.0
C3536 C 0.28154 0.01629 0.75706 0.0
C3537 C 0.27928 0.07872 0.77906 0.0
C3538 C 0.27907 0.07537 0.79304 0.0
C3539 C 0.28432 0.0738 0.76901 0.0
C3540 C 0.28928 0.06541 0.77271 0.0
C3541 C 0.28928 0.06213 0.78664 0.0
C3542 C 0.28439 0.06718 0.79674 0.0
C3543 C 0.29412 0.0598 0.76193 0.0
C3544 C 0.28717 0.04564 0.75999 0.0
C3545 C 0.30473 0.06834 0.75288 0.0
C3546 C 0.31314 0.08331 0.7551 0.0
C3547 C 0.31982 0.0889 0.76795 0.0
C3548 C 0.32776 0.10299 0.77001 0.0
C3549 C 0.32919 0.11163 0.75927 0.0
C3550 C 0.32269 0.10618 0.74644 0.0
C3551 C 0.31472 0.09208 0.74433 0.0
H3552 H 0.33536 0.12254 0.76088 0.0
H3553 H 0.25992 0.98558 0.74139 0.0
H3554 H 0.97834 0.29591 0.72172 0.0
H3555 H 0.96898 0.28245 0.74258 0.0
H3556 H 0.95972 0.24626 0.71976 0.0
H3557 H 0.96914 0.25958 0.69895 0.0
H3558 H 0.93728 0.24383 0.73393 0.0
H3559 H 0.98475 0.25859 0.74229 0.0
H3560 H 0.0096 0.27536 0.74511 0.0
H3561 H 0.00182 0.29396 0.77952 0.0
H3562 H 0.97687 0.2774 0.77676 0.0
H3563 H 0.92152 0.19545 0.78581 0.0
H3564 H 0.93263 0.21141 0.76705 0.0
H3565 H 0.93792 0.24425 0.79329 0.0
H3566 H 0.92648 0.22834 0.81201 0.0
H3567 H 0.9623 0.24978 0.7784 0.0
H3568 H 0.91493 0.23451 0.77064 0.0
H3569 H 0.89009 0.21773 0.76785 0.0
H3570 H 0.89765 0.20029 0.73227 0.0
H3571 H 0.92259 0.21684 0.73499 0.0
C3572 C 0.97449 0.28512 0.72119 0.0
C3573 C 0.97444 0.2788 0.70866 0.0
C3574 C 0.96917 0.27746 0.73312 0.0
C3575 C 0.96364 0.26338 0.73265 0.0
C3576 C 0.96392 0.25712 0.72028 0.0
C3577 C 0.96936 0.26477 0.70842 0.0
C3578 C 0.95683 0.25498 0.74482 0.0
C3579 C 0.94278 0.24503 0.74361 0.0
C3580 C 0.96395 0.25688 0.75754 0.0
C3581 C 0.97893 0.26686 0.75921 0.0
C3582 C 0.98832 0.26635 0.75036 0.0
C3583 C 0.00242 0.27579 0.75197 0.0
C3584 C 0.00728 0.28575 0.76246 0.0
C3585 C 0.99804 0.28626 0.77138 0.0
C3586 C 0.98391 0.27684 0.7698 0.0
C3587 C 0.92513 0.20609 0.78763 0.0
C3588 C 0.92352 0.21065 0.80059 0.0
C3589 C 0.93143 0.21517 0.7769 0.0
C3590 C 0.93619 0.229 0.77887 0.0
C3591 C 0.93446 0.23362 0.79168 0.0
C3592 C 0.92795 0.22449 0.80238 0.0
C3593 C 0.94281 0.23851 0.7674 0.0
C3594 C 0.9568 0.24866 0.76875 0.0
C3595 C 0.93564 0.23684 0.75478 0.0
C3596 C 0.92065 0.22683 0.75311 0.0
C3597 C 0.91132 0.22701 0.76231 0.0
C3598 C 0.89721 0.21755 0.76072 0.0
C3599 C 0.8923 0.20792 0.74991 0.0
C3600 C 0.90148 0.20774 0.74065 0.0
C3601 C 0.9156 0.21716 0.7422 0.0
H3602 H 0.88137 0.20062 0.74869 0.0
H3603 H 0.0182 0.29305 0.76369 0.0
H3604 H 0.73313 0.70332 0.68998 0.0
H3605 H 0.75117 0.71719 0.70746 0.0
H3606 H 0.72088 0.7007 0.73938 0.0
H3607 H 0.70297 0.68694 0.72196 0.0
H3608 H 0.74111 0.72708 0.74542 0.0
H3609 H 0.73704 0.68493 0.73061 0.0
H3610 H 0.73686 0.66897 0.71338 0.0
H3611 H 0.77827 0.69881 0.70257 0.0
H3612 H 0.7786 0.71503 0.7196 0.0
H3613 H 0.77308 0.71986 0.80518 0.0
H3614 H 0.75878 0.71586 0.78464 0.0
H3615 H 0.79495 0.73646 0.7598 0.0
H3616 H 0.8095 0.74078 0.78042 0.0
H3617 H 0.77436 0.71178 0.7484 0.0
H3618 H 0.77919 0.75244 0.76708 0.0
H3619 H 0.77866 0.76735 0.78512 0.0
H3620 H 0.73528 0.73951 0.78956 0.0
H3621 H 0.73559 0.72429 0.77172 0.0
C3622 C 0.73032 0.70315 0.70066 0.0
C3623 C 0.71676 0.69422 0.70473 0.0
C3624 C 0.74059 0.71097 0.71063 0.0
C3625 C 0.73737 0.70981 0.72473 0.0
C3626 C 0.72359 0.70177 0.72857 0.0
C3627 C 0.71337 0.69392 0.71865 0.0
C3628 C 0.74832 0.71522 0.73564 0.0
C3629 C 0.74841 0.72378 0.74608 0.0
C3630 C 0.75793 0.711 0.7364 0.0
C3631 C 0.75777 0.70125 0.72623 0.0
C3632 C 0.74606 0.68812 0.72447 0.0
C3633 C 0.74594 0.67902 0.71476 0.0
C3634 C 0.75753 0.68289 0.70685 0.0
C3635 C 0.76928 0.69585 0.70868 0.0
C3636 C 0.76944 0.705 0.71835 0.0
C3637 C 0.77812 0.72376 0.79546 0.0
C3638 C 0.79258 0.7311 0.79457 0.0
C3639 C 0.76986 0.72143 0.78369 0.0
C3640 C 0.77583 0.72613 0.77077 0.0
C3641 C 0.79016 0.73293 0.76972 0.0
C3642 C 0.79844 0.73541 0.78149 0.0
C3643 C 0.76704 0.72349 0.7583 0.0
C3644 C 0.76731 0.71538 0.7476 0.0
C3645 C 0.75769 0.72801 0.75741 0.0
C3646 C 0.75744 0.73716 0.76813 0.0
C3647 C 0.76956 0.74943 0.77199 0.0
C3648 C 0.76929 0.75795 0.78217 0.0
C3649 C 0.75695 0.75436 0.78851 0.0
C3650 C 0.74484 0.74226 0.78465 0.0
C3651 C 0.74505 0.73369 0.7745 0.0
H3652 H 0.75676 0.76098 0.79638 0.0
H3653 H 0.75742 0.67583 0.69934 0.0
H3654 H 0.71037 0.64379 0.65408 0.0
H3655 H 0.71742 0.63798 0.63283 0.0
H3656 H 0.6962 0.65307 0.60881 0.0
H3657 H 0.6895 0.65941 0.6302 0.0
H3658 H 0.70421 0.6211 0.61286 0.0
H3659 H 0.71248 0.66504 0.5782 0.0
H3660 H 0.71844 0.68884 0.5804 0.0
H3661 H 0.74009 0.69348 0.61876 0.0
H3662 H 0.7344 0.66978 0.61669 0.0
H3663 H 0.72005 0.60711 0.54655 0.0
H3664 H 0.70928 0.61285 0.56489 0.0
H3665 H 0.74829 0.64946 0.57455 0.0
H3666 H 0.75884 0.6442 0.55577 0.0
H3667 H 0.72952 0.65495 0.57664 0.0
H3668 H 0.73489 0.61879 0.59352 0.0
H3669 H 0.73179 0.59599 0.59315 0.0
H3670 H 0.68792 0.57757 0.59355 0.0
H3671 H 0.69077 0.60027 0.59376 0.0
C3672 C 0.7072 0.6459 0.64429 0.0
C3673 C 0.69941 0.65211 0.64383 0.0
C3674 C 0.7112 0.64252 0.63212 0.0
C3675 C 0.70742 0.64514 0.6192 0.0
C3676 C 0.69944 0.65115 0.61866 0.0
C3677 C 0.69558 0.65473 0.63089 0.0
C3678 C 0.71203 0.64165 0.6064 0.0
C3679 C 0.70968 0.62849 0.60491 0.0
C3680 C 0.71929 0.6513 0.59606 0.0
C3681 C 0.72287 0.6656 0.59736 0.0
C3682 C 0.71854 0.67116 0.58708 0.0
C3683 C 0.72187 0.68463 0.58831 0.0
C3684 C 0.7296 0.69265 0.59974 0.0
C3685 C 0.73406 0.68724 0.60994 0.0
C3686 C 0.73077 0.67379 0.60875 0.0
C3687 C 0.72629 0.61638 0.55261 0.0
C3688 C 0.74037 0.62496 0.54999 0.0
C3689 C 0.72015 0.61964 0.56311 0.0
C3690 C 0.72804 0.63143 0.57134 0.0
C3691 C 0.74199 0.64026 0.56841 0.0
C3692 C 0.74806 0.63714 0.55776 0.0
C3693 C 0.72196 0.63449 0.58326 0.0
C3694 C 0.72393 0.64752 0.58453 0.0
C3695 C 0.71476 0.62486 0.59364 0.0
C3696 C 0.71304 0.61121 0.5935 0.0
C3697 C 0.72458 0.60987 0.59343 0.0
C3698 C 0.72287 0.59697 0.59326 0.0
C3699 C 0.70967 0.58534 0.59328 0.0
C3700 C 0.69814 0.58659 0.5935 0.0
C3701 C 0.6998 0.59947 0.59366 0.0
H3702 H 0.70837 0.57536 0.59315 0.0
H3703 H 0.73215 0.70307 0.60068 0.0
H3704 H 0.33311 0.04049 0.62483 0.0
H3705 H 0.34845 0.05909 0.60989 0.0
H3706 H 0.37895 0.07686 0.64295 0.0
H3707 H 0.36365 0.05799 0.65799 0.0
H3708 H 0.37162 0.09482 0.63037 0.0
H3709 H 0.38714 0.0655 0.61733 0.0
H3710 H 0.38506 0.04396 0.61018 0.0
H3711 H 0.36407 0.04313 0.57261 0.0
H3712 H 0.36582 0.06457 0.57962 0.0
H3713 H 0.41437 0.14661 0.58242 0.0
H3714 H 0.40678 0.12873 0.59965 0.0
H3715 H 0.37306 0.10101 0.57243 0.0
H3716 H 0.38055 0.11883 0.55524 0.0
H3717 H 0.38633 0.08919 0.58405 0.0
H3718 H 0.36739 0.11595 0.59875 0.0
H3719 H 0.3683 0.13695 0.60593 0.0
H3720 H 0.3949 0.14208 0.64038 0.0
H3721 H 0.39429 0.12119 0.63328 0.0
C3722 C 0.34315 0.04826 0.62888 0.0
C3723 C 0.34718 0.04784 0.64258 0.0
C3724 C 0.35192 0.05884 0.62032 0.0
C3725 C 0.36483 0.0693 0.62532 0.0
C3726 C 0.36903 0.06883 0.63891 0.0
C3727 C 0.36033 0.05805 0.64745 0.0
C3728 C 0.37331 0.08112 0.61648 0.0
C3729 C 0.37519 0.09372 0.62039 0.0
C3730 C 0.37764 0.07953 0.60336 0.0
C3731 C 0.37654 0.06661 0.59906 0.0
C3732 C 0.38197 0.06067 0.60759 0.0
C3733 C 0.38087 0.04849 0.60355 0.0
C3734 C 0.37442 0.04217 0.59096 0.0
C3735 C 0.36907 0.04804 0.58236 0.0
C3736 C 0.37013 0.06022 0.58636 0.0
C3737 C 0.40532 0.13671 0.58016 0.0
C3738 C 0.39797 0.13414 0.56755 0.0
C3739 C 0.40101 0.12652 0.58998 0.0
C3740 C 0.38933 0.11357 0.58733 0.0
C3741 C 0.38212 0.11092 0.57466 0.0
C3742 C 0.38636 0.12111 0.56489 0.0
C3743 C 0.38435 0.10279 0.59781 0.0
C3744 C 0.38308 0.09039 0.59416 0.0
C3745 C 0.38051 0.10453 0.61115 0.0
C3746 C 0.38096 0.11713 0.61538 0.0
C3747 C 0.37355 0.12164 0.60777 0.0
C3748 C 0.37398 0.1335 0.61184 0.0
C3749 C 0.3817 0.14087 0.62357 0.0
C3750 C 0.38896 0.13638 0.63127 0.0
C3751 C 0.38858 0.12453 0.62724 0.0
H3752 H 0.38201 0.15004 0.62671 0.0
H3753 H 0.37358 0.03274 0.58784 0.0
H3754 H 0.96024 0.31563 0.64234 0.0
H3755 H 0.94224 0.31057 0.62491 0.0
H3756 H 0.91797 0.26961 0.63989 0.0
H3757 H 0.93626 0.27446 0.65667 0.0
H3758 H 0.92132 0.2686 0.61414 0.0
H3759 H 0.90812 0.29429 0.64207 0.0
H3760 H 0.91145 0.31418 0.65529 0.0
H3761 H 0.92512 0.33823 0.61874 0.0
H3762 H 0.92205 0.31853 0.60533 0.0
H3763 H 0.86329 0.24485 0.57011 0.0
H3764 H 0.87802 0.253 0.59086 0.0
H3765 H 0.90441 0.29162 0.57184 0.0
H3766 H 0.88977 0.28374 0.55113 0.0
H3767 H 0.89984 0.29441 0.5994 0.0
H3768 H 0.91398 0.26886 0.57213 0.0
H3769 H 0.91057 0.24888 0.559 0.0
H3770 H 0.89486 0.22446 0.59515 0.0
H3771 H 0.89802 0.24426 0.60844 0.0
C3772 C 0.95088 0.30568 0.64209 0.0
C3773 C 0.9496 0.29537 0.65068 0.0
C3774 C 0.94057 0.3028 0.63218 0.0
C3775 C 0.92874 0.28967 0.63103 0.0
C3776 C 0.92705 0.27976 0.64046 0.0
C3777 C 0.93746 0.28253 0.65007 0.0
C3778 C 0.91907 0.2856 0.61896 0.0
C3779 C 0.91643 0.27413 0.61114 0.0
C3780 C 0.91307 0.29307 0.61466 0.0
C3781 C 0.91499 0.30495 0.62272 0.0
C3782 C 0.91196 0.30385 0.63688 0.0
C3783 C 0.91377 0.31509 0.6444 0.0
C3784 C 0.91853 0.32747 0.63787 0.0
C3785 C 0.92145 0.32863 0.62379 0.0
C3786 C 0.91966 0.31743 0.61622 0.0
C3787 C 0.87232 0.25503 0.57022 0.0
C3788 C 0.87561 0.2633 0.55854 0.0
C3789 C 0.88067 0.2597 0.58215 0.0
C3790 C 0.89245 0.27281 0.58277 0.0
C3791 C 0.89542 0.2814 0.5715 0.0
C3792 C 0.88706 0.27675 0.55954 0.0
C3793 C 0.90195 0.2773 0.59495 0.0
C3794 C 0.90466 0.28887 0.60261 0.0
C3795 C 0.90801 0.26992 0.59922 0.0
C3796 C 0.9061 0.258 0.59123 0.0
C3797 C 0.90969 0.2592 0.57724 0.0
C3798 C 0.90783 0.24791 0.56978 0.0
C3799 C 0.90247 0.2354 0.57622 0.0
C3800 C 0.89899 0.23415 0.59016 0.0
C3801 C 0.90083 0.2454 0.59766 0.0
H3802 H 0.90104 0.22667 0.57043 0.0
H3803 H 0.91992 0.33616 0.64371 0.0
H3804 H 0.34407 0.3059 0.63725 0.0
H3805 H 0.34993 0.29813 0.61631 0.0
H3806 H 0.38553 0.30234 0.63748 0.0
H3807 H 0.37987 0.31022 0.65835 0.0
H3808 H 0.39145 0.31228 0.61155 0.0
H3809 H 0.3563 0.27147 0.63338 0.0
H3810 H 0.33346 0.25646 0.64326 0.0
H3811 H 0.31407 0.25496 0.60431 0.0
H3812 H 0.33681 0.27011 0.59425 0.0
H3813 H 0.40849 0.27399 0.56911 0.0
H3814 H 0.40098 0.28172 0.58878 0.0
H3815 H 0.36537 0.27447 0.56503 0.0
H3816 H 0.37266 0.26634 0.54541 0.0
H3817 H 0.35862 0.26659 0.59118 0.0
H3818 H 0.39349 0.30638 0.56889 0.0
H3819 H 0.4162 0.32146 0.55879 0.0
H3820 H 0.43591 0.32531 0.5982 0.0
H3821 H 0.41332 0.31007 0.60849 0.0
C3822 C 0.3532 0.30526 0.63742 0.0
C3823 C 0.36146 0.30862 0.6495 0.0
C3824 C 0.35649 0.30076 0.62547 0.0
C3825 C 0.36808 0.29951 0.6254 0.0
C3826 C 0.37653 0.30321 0.63732 0.0
C3827 C 0.37325 0.30768 0.64926 0.0
C3828 C 0.37137 0.29417 0.61304 0.0
C3829 C 0.38433 0.30224 0.60717 0.0
C3830 C 0.36191 0.28123 0.6071 0.0
C3831 C 0.34825 0.27204 0.61311 0.0
C3832 C 0.34716 0.26802 0.62696 0.0
C3833 C 0.33423 0.25947 0.63258 0.0
C3834 C 0.32232 0.25479 0.62443 0.0
C3835 C 0.32331 0.25861 0.61062 0.0
C3836 C 0.33621 0.26717 0.60495 0.0
C3837 C 0.39893 0.27379 0.56818 0.0
C3838 C 0.39103 0.26935 0.55581 0.0
C3839 C 0.39471 0.27834 0.57937 0.0
C3840 C 0.38271 0.27884 0.5783 0.0
C3841 C 0.37466 0.27415 0.56607 0.0
C3842 C 0.37882 0.26951 0.5549 0.0
C3843 C 0.3788 0.28462 0.58982 0.0
C3844 C 0.36572 0.27666 0.5955 0.0
C3845 C 0.38812 0.29771 0.59556 0.0
C3846 C 0.40172 0.30699 0.58943 0.0
C3847 C 0.40267 0.31037 0.57538 0.0
C3848 C 0.41552 0.31895 0.56962 0.0
C3849 C 0.42749 0.32432 0.57784 0.0
C3850 C 0.42663 0.32113 0.59184 0.0
C3851 C 0.41381 0.31253 0.59765 0.0
H3852 H 0.43743 0.33096 0.57336 0.0
H3853 H 0.31232 0.24818 0.62881 0.0
H3854 H 0.68831 0.03867 0.62428 0.0
H3855 H 0.69548 0.05182 0.60288 0.0
H3856 H 0.72553 0.0874 0.62637 0.0
H3857 H 0.7182 0.07456 0.64757 0.0
H3858 H 0.70968 0.09276 0.61143 0.0
H3859 H 0.73442 0.06991 0.60348 0.0
H3860 H 0.73666 0.04996 0.60032 0.0
H3861 H 0.70877 0.03662 0.56525 0.0
H3862 H 0.70623 0.0564 0.56832 0.0
H3863 H 0.74271 0.14043 0.5605 0.0
H3864 H 0.73918 0.12452 0.5786 0.0
H3865 H 0.71184 0.09088 0.55139 0.0
H3866 H 0.71615 0.10675 0.53279 0.0
H3867 H 0.72514 0.08339 0.56737 0.0
H3868 H 0.69991 0.10552 0.57535 0.0
H3869 H 0.69713 0.12517 0.57831 0.0
H3870 H 0.72495 0.13918 0.61347 0.0
H3871 H 0.72804 0.11971 0.6106 0.0
C3872 C 0.69657 0.04925 0.62478 0.0
C3873 C 0.70254 0.05566 0.63759 0.0
C3874 C 0.70069 0.05673 0.61257 0.0
C3875 C 0.71101 0.07062 0.61304 0.0
C3876 C 0.71746 0.07675 0.62576 0.0
C3877 C 0.71324 0.06939 0.63788 0.0
C3878 C 0.71434 0.07928 0.60071 0.0
C3879 C 0.71324 0.09079 0.60187 0.0
C3880 C 0.71848 0.07644 0.58806 0.0
C3881 C 0.72002 0.06456 0.58623 0.0
C3882 C 0.72867 0.06266 0.59517 0.0
C3883 C 0.73001 0.05139 0.59338 0.0
C3884 C 0.72283 0.042 0.58262 0.0
C3885 C 0.71432 0.04389 0.5736 0.0
C3886 C 0.71293 0.05513 0.57535 0.0
C3887 C 0.73609 0.12967 0.55822 0.0
C3888 C 0.72938 0.12489 0.54524 0.0
C3889 C 0.73402 0.12055 0.56866 0.0
C3890 C 0.72485 0.10652 0.56653 0.0
C3891 C 0.71883 0.10166 0.55335 0.0
C3892 C 0.72119 0.11076 0.54277 0.0
C3893 C 0.72084 0.09705 0.57829 0.0
C3894 C 0.72163 0.08536 0.57697 0.0
C3895 C 0.71629 0.09961 0.59084 0.0
C3896 C 0.71428 0.11121 0.5927 0.0
C3897 C 0.70548 0.11283 0.58368 0.0
C3898 C 0.70385 0.12393 0.58534 0.0
C3899 C 0.71088 0.13343 0.59606 0.0
C3900 C 0.71952 0.13182 0.60517 0.0
C3901 C 0.7212 0.12074 0.60354 0.0
H3902 H 0.70962 0.14202 0.59732 0.0
H3903 H 0.72389 0.03329 0.58124 0.0
H3904 H 0.93278 0.63944 0.65656 0.0
H3905 H 0.91385 0.62655 0.63966 0.0
H3906 H 0.93541 0.65825 0.60997 0.0
H3907 H 0.95377 0.67137 0.62699 0.0
H3908 H 0.91047 0.65142 0.60912 0.0
H3909 H 0.933 0.62555 0.60965 0.0
H3910 H 0.94158 0.6121 0.62059 0.0
H3911 H 0.90078 0.58292 0.63367 0.0
H3912 H 0.892 0.59628 0.62293 0.0
H3913 H 0.88332 0.61962 0.54407 0.0
H3914 H 0.89745 0.63031 0.56498 0.0
H3915 H 0.86665 0.59785 0.58948 0.0
H3916 H 0.85245 0.58707 0.56849 0.0
H3917 H 0.89284 0.60346 0.59545 0.0
H3918 H 0.87029 0.62843 0.59142 0.0
H3919 H 0.86234 0.64189 0.57938 0.0
H3920 H 0.90419 0.67311 0.57186 0.0
H3921 H 0.91239 0.65974 0.58365 0.0
C3922 C 0.93344 0.64357 0.64639 0.0
C3923 C 0.9447 0.6564 0.64308 0.0
C3924 C 0.92266 0.63619 0.63672 0.0
C3925 C 0.9232 0.64135 0.62345 0.0
C3926 C 0.93463 0.65406 0.62013 0.0
C3927 C 0.94517 0.66154 0.62986 0.0
C3928 C 0.91192 0.63384 0.61293 0.0
C3929 C 0.90673 0.64096 0.60607 0.0
C3930 C 0.9066 0.62003 0.60924 0.0
C3931 C 0.91188 0.61199 0.61563 0.0
C3932 C 0.92588 0.61631 0.61493 0.0
C3933 C 0.93078 0.6087 0.62109 0.0
C3934 C 0.92174 0.59668 0.62786 0.0
C3935 C 0.90778 0.59224 0.62845 0.0
C3936 C 0.90283 0.59982 0.62232 0.0
C3937 C 0.87948 0.61487 0.55394 0.0
C3938 C 0.86673 0.60261 0.5547 0.0
C3939 C 0.88755 0.62098 0.56588 0.0
C3940 C 0.88303 0.61494 0.57881 0.0
C3941 C 0.87029 0.6027 0.57961 0.0
C3942 C 0.86217 0.5966 0.56766 0.0
C3943 C 0.89192 0.62125 0.59134 0.0
C3944 C 0.89653 0.61388 0.59862 0.0
C3945 C 0.89686 0.63489 0.59531 0.0
C3946 C 0.89195 0.64303 0.58835 0.0
C3947 C 0.8778 0.63812 0.58712 0.0
C3948 C 0.87325 0.64574 0.58035 0.0
C3949 C 0.88275 0.65834 0.57484 0.0
C3950 C 0.89683 0.66335 0.57613 0.0
C3951 C 0.90144 0.65577 0.58287 0.0
H3952 H 0.8792 0.66422 0.5696 0.0
H3953 H 0.92555 0.59081 0.63262 0.0
H3954 H 0.96124 0.67235 0.71811 0.0
H3955 H 0.95318 0.67749 0.73931 0.0
H3956 H 0.9631 0.71609 0.72276 0.0
H3957 H 0.97092 0.71098 0.70157 0.0
H3958 H 0.96491 0.69737 0.75894 0.0
H3959 H 0.93896 0.7228 0.73085 0.0
H3960 H 0.92744 0.72093 0.70841 0.0
H3961 H 0.91646 0.67939 0.70381 0.0
H3962 H 0.92774 0.68096 0.7263 0.0
H3963 H 0.95613 0.74168 0.80217 0.0
H3964 H 0.96133 0.73117 0.78333 0.0
H3965 H 0.91853 0.69948 0.77941 0.0
H3966 H 0.91315 0.70979 0.79856 0.0
H3967 H 0.92993 0.71036 0.75444 0.0
H3968 H 0.93925 0.69136 0.79301 0.0
H3969 H 0.94905 0.69109 0.81581 0.0
H3970 H 0.98988 0.71555 0.8003 0.0
H3971 H 0.98033 0.71617 0.77745 0.0
C3972 C 0.96178 0.68196 0.71903 0.0
C3973 C 0.96659 0.69119 0.70809 0.0
C3974 C 0.95718 0.68489 0.73115 0.0
C3975 C 0.95731 0.69706 0.73249 0.0
C3976 C 0.96263 0.7065 0.72182 0.0
C3977 C 0.96715 0.70357 0.70972 0.0
C3978 C 0.95165 0.69991 0.74487 0.0
C3979 C 0.95724 0.70017 0.75798 0.0
C3980 C 0.94132 0.70315 0.74365 0.0
C3981 C 0.93429 0.70204 0.73022 0.0
C3982 C 0.93402 0.71325 0.72509 0.0
C3983 C 0.92755 0.71224 0.71235 0.0
C3984 C 0.92125 0.70006 0.70468 0.0
C3985 C 0.92138 0.68884 0.70975 0.0
C3986 C 0.92782 0.68978 0.72248 0.0
C3987 C 0.94776 0.7324 0.79753 0.0
C3988 C 0.93416 0.72642 0.80217 0.0
C3989 C 0.9508 0.72639 0.7867 0.0
C3990 C 0.94035 0.71445 0.78013 0.0
C3991 C 0.92676 0.70864 0.78445 0.0
C3992 C 0.92372 0.71453 0.79539 0.0
C3993 C 0.9436 0.70836 0.76841 0.0
C3994 C 0.93754 0.70747 0.75542 0.0
C3995 C 0.95323 0.70424 0.76982 0.0
C3996 C 0.95907 0.70391 0.78354 0.0
C3997 C 0.95032 0.69679 0.79449 0.0
C3998 C 0.95583 0.69656 0.80742 0.0
C3999 C 0.97008 0.70333 0.80951 0.0
C4000 C 0.97885 0.71032 0.79867 0.0
C4001 C 0.97339 0.71061 0.78571 0.0
H4002 H 0.97433 0.70312 0.81953 0.0
H4003 H 0.91626 0.69931 0.69482 0.0
H4004 H 0.30392 0.29144 0.70665 0.0
H4005 H 0.28805 0.27345 0.72222 0.0
H4006 H 0.31651 0.25974 0.7263 0.0
H4007 H 0.33234 0.27761 0.71101 0.0
H4008 H 0.28926 0.23837 0.72319 0.0
H4009 H 0.31682 0.28012 0.75018 0.0
H4010 H 0.32569 0.30417 0.75612 0.0
H4011 H 0.28448 0.29492 0.76215 0.0
H4012 H 0.27535 0.27082 0.75604 0.0
H4013 H 0.28171 0.20696 0.78728 0.0
H4014 H 0.2893 0.22155 0.76711 0.0
H4015 H 0.25635 0.22896 0.77233 0.0
H4016 H 0.24857 0.21436 0.79233 0.0
H4017 H 0.28142 0.25259 0.76897 0.0
H4018 H 0.25431 0.20982 0.74586 0.0
H4019 H 0.24583 0.18579 0.74032 0.0
H4020 H 0.28605 0.19672 0.7271 0.0
H4021 H 0.29484 0.22082 0.73276 0.0
C4022 C 0.30668 0.28447 0.71075 0.0
C4023 C 0.31942 0.286 0.70772 0.0
C4024 C 0.29763 0.27424 0.71964 0.0
C4025 C 0.30116 0.26532 0.72544 0.0
C4026 C 0.31359 0.26649 0.72192 0.0
C4027 C 0.32266 0.27677 0.71324 0.0
C4028 C 0.29246 0.25524 0.73587 0.0
C4029 C 0.28751 0.24145 0.7332 0.0
C4030 C 0.28993 0.25925 0.7488 0.0
C4031 C 0.2954 0.27372 0.75246 0.0
C4032 C 0.30964 0.28324 0.75264 0.0
C4033 C 0.31472 0.29687 0.75606 0.0
C4034 C 0.30565 0.30108 0.75946 0.0
C4035 C 0.29149 0.29165 0.75947 0.0
C4036 C 0.28636 0.27801 0.75603 0.0
C4037 C 0.27602 0.21162 0.78408 0.0
C4038 C 0.26467 0.20954 0.79164 0.0
C4039 C 0.28032 0.21991 0.77252 0.0
C4040 C 0.27335 0.2263 0.7682 0.0
C4041 C 0.26188 0.22413 0.77552 0.0
C4042 C 0.25748 0.21574 0.78703 0.0
C4043 C 0.2785 0.23573 0.75642 0.0
C4044 C 0.28283 0.24942 0.75885 0.0
C4045 C 0.28048 0.23162 0.74328 0.0
C4046 C 0.27526 0.21713 0.73983 0.0
C4047 C 0.26138 0.2071 0.74188 0.0
C4048 C 0.25651 0.19346 0.73869 0.0
C4049 C 0.2654 0.18973 0.73338 0.0
C4050 C 0.27918 0.19963 0.73122 0.0
C4051 C 0.2841 0.21328 0.7344 0.0
H4052 H 0.26161 0.17916 0.73092 0.0
H4053 H 0.3096 0.31164 0.76211 0.0
H4054 H 0.73374 0.0541 0.69433 0.0
H4055 H 0.74949 0.05554 0.71268 0.0
H4056 H 0.7186 0.01569 0.72634 0.0
H4057 H 0.7029 0.01399 0.70755 0.0
H4058 H 0.73062 0.04094 0.74622 0.0
H4059 H 0.74286 0.01546 0.71625 0.0
H4060 H 0.75027 0.01068 0.69423 0.0
H4061 H 0.78771 0.0498 0.69674 0.0
H4062 H 0.78043 0.0549 0.71869 0.0
H4063 H 0.77249 0.04451 0.80281 0.0
H4064 H 0.75644 0.03706 0.78305 0.0
H4065 H 0.7895 0.0649 0.75698 0.0
H4066 H 0.80572 0.07165 0.77644 0.0
H4067 H 0.77505 0.04309 0.74326 0.0
H4068 H 0.76371 0.07066 0.76998 0.0
H4069 H 0.75721 0.07859 0.79057 0.0
H4070 H 0.71949 0.03986 0.79276 0.0
H4071 H 0.72585 0.03164 0.77227 0.0
C4072 C 0.73049 0.04548 0.70099 0.0
C4073 C 0.7172 0.03392 0.69957 0.0
C4074 C 0.73946 0.04632 0.71144 0.0
C4075 C 0.73516 0.03573 0.72081 0.0
C4076 C 0.72207 0.02391 0.71911 0.0
C4077 C 0.71318 0.02292 0.70839 0.0
C4078 C 0.74386 0.03784 0.73317 0.0
C4079 C 0.74019 0.04109 0.74573 0.0
C4080 C 0.75661 0.03868 0.73222 0.0
C4081 C 0.76104 0.03559 0.71907 0.0
C4082 C 0.75262 0.02309 0.71205 0.0
C4083 C 0.7568 0.02031 0.69959 0.0
C4084 C 0.76944 0.02994 0.69408 0.0
C4085 C 0.77792 0.04235 0.70103 0.0
C4086 C 0.77378 0.04518 0.71349 0.0
C4087 C 0.77631 0.04903 0.79285 0.0
C4088 C 0.79037 0.05871 0.79127 0.0
C4089 C 0.76711 0.04484 0.78157 0.0
C4090 C 0.77167 0.05056 0.76852 0.0
C4091 C 0.7857 0.06031 0.76692 0.0
C4092 C 0.79497 0.06426 0.77813 0.0
C4093 C 0.76189 0.04628 0.75649 0.0
C4094 C 0.76539 0.04273 0.74393 0.0
C4095 C 0.74916 0.0456 0.75731 0.0
C4096 C 0.74534 0.05048 0.76969 0.0
C4097 C 0.75409 0.06379 0.77493 0.0
C4098 C 0.75042 0.06835 0.78657 0.0
C4099 C 0.73797 0.05972 0.793 0.0
C4100 C 0.72915 0.04652 0.78778 0.0
C4101 C 0.73278 0.04191 0.77616 0.0
H4102 H 0.73514 0.06327 0.802 0.0
H4103 H 0.77266 0.02777 0.68443 0.0
H4104 H 0.04779 0.36184 0.03953 0.0
H4105 H 0.06076 0.3537 0.05224 0.0
H4106 H 0.03107 0.31258 0.03889 0.0
H4107 H 0.01813 0.32056 0.02615 0.0
H4108 H 0.03539 0.31535 0.06712 0.0
H4109 H 0.06224 0.32801 0.02617 0.0
H4110 H 0.07651 0.34329 0.00773 0.0
H4111 H 0.10668 0.37026 0.03804 0.0
H4112 H 0.09249 0.35522 0.05671 0.0
H4113 H 0.06442 0.27382 0.09428 0.0
H4114 H 0.05314 0.28643 0.0776 0.0
H4115 H 0.09237 0.33296 0.09103 0.0
H4116 H 0.10478 0.32158 0.10824 0.0
H4117 H 0.08421 0.32921 0.06191 0.0
H4118 H 0.05792 0.31679 0.10264 0.0
H4119 H 0.04383 0.30194 0.12142 0.0
H4120 H 0.01263 0.27514 0.09179 0.0
H4121 H 0.02663 0.28974 0.0728 0.0
C4122 C 0.04413 0.35109 0.03914 0.0
C4123 C 0.03186 0.34185 0.0319 0.0
C4124 C 0.05158 0.34647 0.04637 0.0
C4125 C 0.04686 0.33253 0.04652 0.0
C4126 C 0.03488 0.32337 0.03893 0.0
C4127 C 0.0275 0.32797 0.03163 0.0
C4128 C 0.05372 0.32731 0.05541 0.0
C4129 C 0.046 0.31821 0.06582 0.0
C4130 C 0.06771 0.33145 0.05404 0.0
C4131 C 0.07621 0.34057 0.04286 0.0
C4132 C 0.07184 0.33727 0.02892 0.0
C4133 C 0.07993 0.34587 0.01842 0.0
C4134 C 0.09247 0.35776 0.02171 0.0
C4135 C 0.09695 0.36106 0.03551 0.0
C4136 C 0.08889 0.3525 0.04606 0.0
C4137 C 0.06926 0.28476 0.09422 0.0
C4138 C 0.08709 0.29636 0.10104 0.0
C4139 C 0.06272 0.2927 0.08331 0.0
C4140 C 0.07196 0.31097 0.08178 0.0
C4141 C 0.08754 0.32206 0.09172 0.0
C4142 C 0.09496 0.31512 0.10298 0.0
C4143 C 0.06573 0.31701 0.07332 0.0
C4144 C 0.07359 0.32634 0.06313 0.0
C4145 C 0.05185 0.31312 0.07488 0.0
C4146 C 0.0434 0.30429 0.08627 0.0
C4147 C 0.04811 0.30767 0.10011 0.0
C4148 C 0.04013 0.29931 0.1108 0.0
C4149 C 0.02736 0.28758 0.1078 0.0
C4150 C 0.02253 0.28422 0.0941 0.0
C4151 C 0.03048 0.29254 0.08337 0.0
H4152 H 0.02119 0.28113 0.11609 0.0
H4153 H 0.09873 0.3644 0.01357 0.0
H4154 H 0.68577 0.7096 0.02067 0.0
H4155 H 0.69428 0.72928 0.03628 0.0
H4156 H 0.66289 0.70467 0.06537 0.0
H4157 H 0.65442 0.68476 0.04989 0.0
H4158 H 0.66771 0.73236 0.05941 0.0
H4159 H 0.69089 0.70954 0.07379 0.0
H4160 H 0.70415 0.69853 0.07002 0.0
H4161 H 0.73735 0.73555 0.05371 0.0
H4162 H 0.72418 0.74673 0.05719 0.0
H4163 H 0.69637 0.785 0.11926 0.0
H4164 H 0.68359 0.76059 0.10204 0.0
H4165 H 0.72739 0.77705 0.07662 0.0
H4166 H 0.74132 0.80184 0.09317 0.0
H4167 H 0.71441 0.75163 0.08037 0.0
H4168 H 0.6911 0.77324 0.06179 0.0
H4169 H 0.67816 0.78488 0.06298 0.0
H4170 H 0.64606 0.75128 0.08491 0.0
H4171 H 0.65889 0.7395 0.08389 0.0
C4172 C 0.68056 0.70838 0.03031 0.0
C4173 C 0.66946 0.69563 0.03409 0.0
C4174 C 0.68546 0.71962 0.03922 0.0
C4175 C 0.67925 0.71835 0.05196 0.0
C4176 C 0.66781 0.70579 0.05555 0.0
C4177 C 0.66302 0.69446 0.04673 0.0
C4178 C 0.68516 0.73007 0.06172 0.0
C4179 C 0.67781 0.73647 0.06423 0.0
C4180 C 0.69848 0.73558 0.06761 0.0
C4181 C 0.70648 0.72893 0.06562 0.0
C4182 C 0.70097 0.7153 0.06928 0.0
C4183 C 0.70848 0.70903 0.06722 0.0
C4184 C 0.72157 0.71632 0.06158 0.0
C4185 C 0.72719 0.72991 0.05805 0.0
C4186 C 0.71972 0.73622 0.06008 0.0
C4187 C 0.7022 0.78329 0.11168 0.0
C4188 C 0.71954 0.79712 0.10623 0.0
C4189 C 0.69416 0.76849 0.10042 0.0
C4190 C 0.70374 0.7666 0.08677 0.0
C4191 C 0.72186 0.7788 0.08451 0.0
C4192 C 0.73083 0.79394 0.09523 0.0
C4193 C 0.69706 0.75414 0.078 0.0
C4194 C 0.70428 0.74756 0.07566 0.0
C4195 C 0.68369 0.74855 0.07214 0.0
C4196 C 0.67606 0.75564 0.07301 0.0
C4197 C 0.68133 0.7684 0.06696 0.0
C4198 C 0.674 0.775 0.06757 0.0
C4199 C 0.66133 0.76885 0.07409 0.0
C4200 C 0.65591 0.75606 0.07993 0.0
C4201 C 0.6632 0.74941 0.07933 0.0
H4202 H 0.65568 0.77398 0.07456 0.0
H4203 H 0.72737 0.71145 0.05999 0.0
H4204 H 0.3082 0.99458 0.02396 0.0
H4205 H 0.28699 0.9854 0.03704 0.0
H4206 H 0.27687 0.94462 0.02733 0.0
H4207 H 0.29809 0.95367 0.01444 0.0
H4208 H 0.2538 0.94833 0.02627 0.0
H4209 H 0.29293 0.95782 0.0561 0.0
H4210 H 0.3161 0.97287 0.06642 0.0
H4211 H 0.30335 -0.00098 0.08307 0.0
H4212 H 0.28013 0.98419 0.07266 0.0
H4213 H 0.21772 0.9019 0.07802 0.0
H4214 H 0.23326 0.9173 0.0607 0.0
H4215 H 0.23666 0.95146 0.08304 0.0
H4216 H 0.22097 0.93597 0.10048 0.0
H4217 H 0.26158 0.95555 0.07709 0.0
H4218 H 0.22087 0.94302 0.05183 0.0
H4219 H 0.19764 0.92798 0.04166 0.0
H4220 H 0.21276 0.90806 0.01643 0.0
H4221 H 0.23605 0.92284 0.0266 0.0
C4222 C 0.30131 0.98366 0.02437 0.0
C4223 C 0.30485 0.97483 0.01827 0.0
C4224 C 0.28923 0.97845 0.03186 0.0
C4225 C 0.28045 0.96436 0.03318 0.0
C4226 C 0.28352 0.95554 0.02638 0.0
C4227 C 0.29567 0.96072 0.01908 0.0
C4228 C 0.26879 0.95868 0.04273 0.0
C4229 C 0.25543 0.9499 0.03739 0.0
C4230 C 0.27095 0.96113 0.05717 0.0
C4231 C 0.28487 0.97002 0.06344 0.0
C4232 C 0.29511 0.96685 0.06185 0.0
C4233 C 0.30824 0.97533 0.06773 0.0
C4234 C 0.31122 0.98693 0.07535 0.0
C4235 C 0.30105 0.99005 0.07713 0.0
C4236 C 0.2879 0.98162 0.07124 0.0
C4237 C 0.22156 0.91265 0.07911 0.0
C4238 C 0.21807 0.91773 0.09056 0.0
C4239 C 0.2304 0.92145 0.06918 0.0
C4240 C 0.23599 0.93551 0.07049 0.0
C4241 C 0.23237 0.94063 0.08179 0.0
C4242 C 0.22342 0.9318 0.09171 0.0
C4243 C 0.24655 0.94479 0.06069 0.0
C4244 C 0.25977 0.95425 0.06597 0.0
C4245 C 0.24423 0.943 0.04619 0.0
C4246 C 0.23022 0.93401 0.04005 0.0
C4247 C 0.21923 0.93536 0.0442 0.0
C4248 C 0.20605 0.92689 0.03842 0.0
C4249 C 0.20372 0.91706 0.02842 0.0
C4250 C 0.21458 0.91568 0.02418 0.0
C4251 C 0.22778 0.92412 0.02993 0.0
H4252 H 0.19351 0.91052 0.02396 0.0
H4253 H 0.32139 0.99348 0.0799 0.0
H4254 H 0.31964 0.03297 0.01083 0.0
H4255 H 0.31208 0.04626 -0.0017 0.0
H4256 H 0.34008 0.05271 0.96564 0.0
H4257 H 0.34776 0.03943 0.97813 0.0
H4258 H 0.33944 0.07594 0.97229 0.0
H4259 H 0.30751 0.02881 0.96111 0.0
H4260 H 0.29143 0.00469 0.96638 0.0
H4261 H 0.26578 0.0153 0.98816 0.0
H4262 H 0.28181 0.03952 0.9832 0.0
H4263 H 0.30907 0.10018 0.92544 0.0
H4264 H 0.31818 0.08717 0.93559 0.0
H4265 H 0.28676 0.07199 0.96641 0.0
H4266 H 0.27699 0.08419 0.95565 0.0
H4267 H 0.28987 0.05268 0.95919 0.0
H4268 H 0.32222 0.0998 0.97191 0.0
H4269 H 0.33837 0.12407 0.96724 0.0
H4270 H 0.36319 0.11381 0.94339 0.0
H4271 H 0.3471 0.08946 0.94779 0.0
C4272 C 0.32434 0.03735 0.00108 0.0
C4273 C 0.33424 0.03505 0.99544 0.0
C4274 C 0.31995 0.0449 0.99389 0.0
C4275 C 0.32537 0.05028 0.98095 0.0
C4276 C 0.33573 0.04858 0.97559 0.0
C4277 C 0.34009 0.04098 0.98275 0.0
C4278 C 0.31979 0.05721 0.97278 0.0
C4279 C 0.32864 0.07084 0.96926 0.0
C4280 C 0.30567 0.05057 0.96901 0.0
C4281 C 0.29593 0.03599 0.97188 0.0
C4282 C 0.29849 0.02601 0.96711 0.0
C4283 C 0.28938 0.01232 0.97003 0.0
C4284 C 0.27761 0.00847 0.97763 0.0
C4285 C 0.27491 0.0183 0.98229 0.0
C4286 C 0.284 0.03201 0.97941 0.0
C4287 C 0.30396 0.09393 0.93425 0.0
C4288 C 0.29223 0.0932 0.93973 0.0
C4289 C 0.3093 0.0866 0.94017 0.0
C4290 C 0.30338 0.0788 0.95199 0.0
C4291 C 0.29157 0.07792 0.95732 0.0
C4292 C 0.28602 0.08495 0.95121 0.0
C4293 C 0.30944 0.07161 0.95895 0.0
C4294 C 0.30068 0.05786 0.96219 0.0
C4295 C 0.32364 0.07818 0.96256 0.0
C4296 C 0.3334 0.09282 0.96008 0.0
C4297 C 0.33109 0.10273 0.96562 0.0
C4298 C 0.34023 0.11649 0.96302 0.0
C4299 C 0.35178 0.12047 0.95499 0.0
C4300 C 0.35424 0.11071 0.94959 0.0
C4301 C 0.34512 0.09693 0.95214 0.0
H4302 H 0.35884 0.13113 0.95298 0.0
H4303 H 0.27057 0.99786 0.97988 0.0
H4304 H 0.98074 0.29835 0.00026 0.0
H4305 H 0.97151 0.27691 0.98726 0.0
H4306 H 0.93624 0.2789 0.97446 0.0
H4307 H 0.94509 0.29993 0.98778 0.0
H4308 H 0.92815 0.25404 0.97946 0.0
H4309 H 0.96511 0.28943 0.9536 0.0
H4310 H 0.98885 0.30821 0.94956 0.0
H4311 H 0.00378 0.28155 0.95699 0.0
H4312 H 0.98013 0.26264 0.96125 0.0
H4313 H 0.90065 0.21237 0.91239 0.0
H4314 H 0.91292 0.23401 0.93313 0.0
H4315 H 0.94876 0.22309 0.94545 0.0
H4316 H 0.93741 0.20103 0.92516 0.0
H4317 H 0.95738 0.2511 0.94386 0.0
H4318 H 0.92007 0.21638 0.97127 0.0
H4319 H 0.89603 0.1978 0.97458 0.0
H4320 H 0.88176 0.22409 0.96251 0.0
H4321 H 0.90574 0.24281 0.95915 0.0
C4322 C 0.97091 0.29409 0.99485 0.0
C4323 C 0.96369 0.30089 0.995 0.0
C4324 C 0.9657 0.28189 0.98733 0.0
C4325 C 0.95332 0.27643 0.97963 0.0
C4326 C 0.94583 0.28291 0.98028 0.0
C4327 C 0.95092 0.29497 0.98792 0.0
C4328 C 0.94827 0.26424 0.9705 0.0
C4329 C 0.93456 0.25351 0.97163 0.0
C4330 C 0.95665 0.26331 0.96043 0.0
C4331 C 0.97088 0.27467 0.95792 0.0
C4332 C 0.97347 0.28761 0.95449 0.0
C4333 C 0.98691 0.29827 0.95214 0.0
C4334 C 0.99782 0.29609 0.95307 0.0
C4335 C 0.99532 0.28323 0.95632 0.0
C4336 C 0.98191 0.27254 0.95869 0.0
C4337 C 0.90985 0.21467 0.91816 0.0
C4338 C 0.91627 0.20281 0.91842 0.0
C4339 C 0.91713 0.22764 0.93154 0.0
C4340 C 0.93148 0.23023 0.94217 0.0
C4341 C 0.9398 0.22079 0.93926 0.0
C4342 C 0.93328 0.20753 0.92617 0.0
C4343 C 0.93729 0.24121 0.95272 0.0
C4344 C 0.9511 0.25166 0.95184 0.0
C4345 C 0.92899 0.24204 0.96285 0.0
C4346 C 0.91462 0.23088 0.96481 0.0
C4347 C 0.91178 0.21816 0.96931 0.0
C4348 C 0.89818 0.20762 0.97121 0.0
C4349 C 0.88737 0.20975 0.96871 0.0
C4350 C 0.89014 0.22245 0.9644 0.0
C4351 C 0.90372 0.23302 0.96252 0.0
H4352 H 0.87685 0.20157 0.97015 0.0
H4353 H 0.00822 0.30435 0.95124 0.0
H4354 H 0.70248 0.65392 0.00219 0.0
H4355 H 0.72524 0.66848 0.99248 0.0
H4356 H 0.71719 0.70082 0.98822 0.0
H4357 H 0.69448 0.6864 -0.00161 0.0
H4358 H 0.72426 0.69115 0.96298 0.0
H4359 H 0.74136 0.70899 0.00783 0.0
H4360 H 0.74439 0.70856 0.03307 0.0
H4361 H 0.76337 0.68521 0.02733 0.0
H4362 H 0.76024 0.68528 0.00204 0.0
H4363 H 0.78724 0.71984 0.92765 0.0
H4364 H 0.77175 0.71995 0.9449 0.0
H4365 H 0.76928 0.68531 0.96438 0.0
H4366 H 0.78468 0.68516 0.94724 0.0
H4367 H 0.76955 0.70349 0.98356 0.0
H4368 H 0.74637 0.68051 0.94015 0.0
H4369 H 0.74247 0.67948 0.91489 0.0
H4370 H 0.73409 0.71153 0.91822 0.0
H4371 H 0.73818 0.71289 0.9435 0.0
C4372 C 0.70568 0.66423 -0.00054 0.0
C4373 C 0.69675 0.66904 0.00097 0.0
C4374 C 0.71868 0.67254 0.99399 0.0
C4375 C 0.72285 0.6857 0.98971 0.0
C4376 C 0.71414 0.69071 0.99158 0.0
C4377 C 0.70123 0.68249 0.99739 0.0
C4378 C 0.7356 0.69335 0.98183 0.0
C4379 C 0.73428 0.69431 0.96752 0.0
C4380 C 0.74854 0.69718 0.98779 0.0
C4381 C 0.75049 0.69709 0.00301 0.0
C4382 C 0.74608 0.70366 0.01194 0.0
C4383 C 0.74783 0.7035 0.02626 0.0
C4384 C 0.75406 0.69685 0.0318 0.0
C4385 C 0.75855 0.69036 0.02302 0.0
C4386 C 0.75681 0.69048 0.00868 0.0
C4387 C 0.78361 0.71246 0.93582 0.0
C4388 C 0.78714 0.70249 0.93613 0.0
C4389 C 0.7748 0.71254 0.94564 0.0
C4390 C 0.76935 0.7026 0.95586 0.0
C4391 C 0.77346 0.69312 0.95663 0.0
C4392 C 0.7822 0.693 0.9468 0.0
C4393 C 0.75808 0.70086 0.96468 0.0
C4394 C 0.75966 0.70088 0.97911 0.0
C4395 C 0.74531 0.69782 0.95883 0.0
C4396 C 0.74277 0.69694 0.94366 0.0
C4397 C 0.74381 0.68742 0.93547 0.0
C4398 C 0.74156 0.68676 0.92116 0.0
C4399 C 0.73808 0.69547 0.91494 0.0
C4400 C 0.73682 0.70482 0.92304 0.0
C4401 C 0.73912 0.70555 0.93736 0.0
H4402 H 0.73632 0.69494 0.90386 0.0
H4403 H 0.75541 0.69674 0.04289 0.0
H4404 H 0.96608 0.67819 0.02107 0.0
H4405 H 0.95424 0.6867 0.00705 0.0
H4406 H 0.96374 0.67255 0.96996 0.0
H4407 H 0.97548 0.66392 0.98384 0.0
H4408 H 0.97208 0.6997 0.96925 0.0
H4409 H 0.9316 0.65731 0.97912 0.0
H4410 H 0.91466 0.6387 0.99353 0.0
H4411 H 0.90608 0.66631 0.01438 0.0
H4412 H 0.92313 0.68515 0.00023 0.0
H4413 H 0.93532 0.71578 0.92166 0.0
H4414 H 0.94238 0.7027 0.93544 0.0
H4415 H 0.93339 0.71685 0.97288 0.0
H4416 H 0.92633 0.73 0.95912 0.0
H4417 H 0.92413 0.68901 0.97312 0.0
H4418 H 0.96542 0.73154 0.96376 0.0
H4419 H 0.98204 0.74994 0.94894 0.0
H4420 H 0.98895 0.7217 0.92692 0.0
H4421 H 0.9722 0.70307 0.94149 0.0
C4422 C 0.96543 0.67666 0.00995 0.0
C4423 C 0.9718 0.67045 0.00358 0.0
C4424 C 0.95863 0.6815 0.00196 0.0
C4425 C 0.95815 0.68028 0.98747 0.0
C4426 C 0.96403 0.67361 0.98113 0.0
C4427 C 0.97069 0.66865 0.9891 0.0
C4428 C 0.95258 0.68696 0.97889 0.0
C4429 C 0.96153 0.6972 0.96994 0.0
C4430 C 0.93892 0.68394 0.98006 0.0
C4431 C 0.92878 0.67268 0.98872 0.0
C4432 C 0.92622 0.65945 0.98689 0.0
C4433 C 0.91657 0.64885 0.99498 0.0
C4434 C 0.90933 0.65133 0.0049 0.0
C4435 C 0.91172 0.66442 0.00672 0.0
C4436 C 0.92137 0.67506 -0.00135 0.0
C4437 C 0.93478 0.71603 0.93283 0.0
C4438 C 0.93026 0.7239 0.93933 0.0
C4439 C 0.93882 0.70857 0.94068 0.0
C4440 C 0.93847 0.70887 0.95518 0.0
C4441 C 0.93369 0.71646 0.9617 0.0
C4442 C 0.92971 0.72399 0.95385 0.0
C4443 C 0.94364 0.7017 0.96351 0.0
C4444 C 0.93466 0.69144 0.97243 0.0
C4445 C 0.95729 0.70468 0.96233 0.0
C4446 C 0.96745 0.71588 0.95363 0.0
C4447 C 0.9704 0.72923 0.95569 0.0
C4448 C 0.97986 0.7397 0.94734 0.0
C4449 C 0.98652 0.73698 0.93697 0.0
C4450 C 0.98377 0.72378 0.93495 0.0
C4451 C 0.9743 0.71326 0.94325 0.0
H4452 H 0.99385 0.74511 0.93052 0.0
H4453 H 0.90185 0.64311 0.01114 0.0
H4454 H 0.31131 0.29801 0.00775 0.0
H4455 H 0.3031 0.27688 0.99478 0.0
H4456 H 0.33614 0.29787 0.96613 0.0
H4457 H 0.34418 0.3193 0.97887 0.0
H4458 H 0.31344 0.28084 0.95234 0.0
H4459 H 0.33702 0.27703 0.99147 0.0
H4460 H 0.34313 0.27779 0.01618 0.0
H4461 H 0.30157 0.24627 0.02438 0.0
H4462 H 0.29517 0.24543 -0.00026 0.0
H4463 H 0.29586 0.20481 0.94914 0.0
H4464 H 0.30952 0.22837 0.95757 0.0
H4465 H 0.27791 0.23534 0.94281 0.0
H4466 H 0.26442 0.21185 0.93396 0.0
H4467 H 0.30346 0.23933 0.97714 0.0
H4468 H 0.29132 0.26885 0.93654 0.0
H4469 H 0.28744 0.26844 0.91132 0.0
H4470 H 0.3104 0.2491 0.90486 0.0
H4471 H 0.3146 0.24957 0.93 0.0
C4472 C 0.31692 0.29816 -0.00125 0.0
C4473 C 0.32849 0.31033 0.99442 0.0
C4474 C 0.31221 0.28603 0.99134 0.0
C4475 C 0.31914 0.2857 0.9796 0.0
C4476 C 0.33065 0.29786 0.97517 0.0
C4477 C 0.33527 0.31008 0.9825 0.0
C4478 C 0.31424 0.27263 0.97201 0.0
C4479 C 0.31131 0.27177 0.95774 0.0
C4480 C 0.31178 0.26084 0.97896 0.0
C4481 C 0.3156 0.26123 0.99377 0.0
C4482 C 0.32917 0.27031 -0.00144 0.0
C4483 C 0.33268 0.27075 0.01255 0.0
C4484 C 0.32274 0.2621 0.02185 0.0
C4485 C 0.30926 0.25297 0.01717 0.0
C4486 C 0.30569 0.25249 0.00319 0.0
C4487 C 0.29196 0.21146 0.94745 0.0
C4488 C 0.27908 0.20651 0.9409 0.0
C4489 C 0.29975 0.2249 0.95232 0.0
C4490 C 0.29479 0.23367 0.95081 0.0
C4491 C 0.28209 0.22887 0.9439 0.0
C4492 C 0.27434 0.21543 0.93892 0.0
C4493 C 0.30232 0.24742 0.95751 0.0
C4494 C 0.30571 0.2484 0.97167 0.0
C4495 C 0.30552 0.25934 0.95036 0.0
C4496 C 0.30316 0.25914 0.93519 0.0
C4497 C 0.29559 0.26456 0.92973 0.0
C4498 C 0.29333 0.26431 0.91545 0.0
C4499 C 0.29863 0.25871 0.9065 0.0
C4500 C 0.30625 0.25339 0.91181 0.0
C4501 C 0.30856 0.25363 0.92608 0.0
H4502 H 0.29686 0.25851 0.89544 0.0
H4503 H 0.32548 0.26246 0.03268 0.0
H4504 H 0.70021 0.01653 0.00439 0.0
H4505 H 0.72232 0.02486 0.99348 0.0
H4506 H 0.7274 0.06438 0.98925 0.0
H4507 H 0.7052 0.05607 -0.0001 0.0
H4508 H 0.73156 0.05576 0.96533 0.0
H4509 H 0.74714 0.05906 0.01231 0.0
H4510 H 0.7471 0.05097 0.03584 0.0
H4511 H 0.75395 0.02046 0.01928 0.0
H4512 H 0.75385 0.02825 0.99562 0.0
H4513 H 0.80285 0.09384 0.94889 0.0
H4514 H 0.78071 0.08453 0.96019 0.0
H4515 H 0.77359 0.04413 0.95604 0.0
H4516 H 0.7955 0.0533 0.94425 0.0
H4517 H 0.77039 0.05237 0.98384 0.0
H4518 H 0.75543 0.04982 0.9368 0.0
H4519 H 0.75567 0.05831 0.91344 0.0
H4520 H 0.74789 0.08802 0.93048 0.0
H4521 H 0.74784 0.07985 0.95399 0.0
C4522 C 0.70612 0.02705 0.00135 0.0
C4523 C 0.70087 0.0356 0.00293 0.0
C4524 C 0.71879 0.03181 0.99514 0.0
C4525 C 0.72651 0.04524 0.99053 0.0
C4526 C 0.72157 0.05395 0.99265 0.0
C4527 C 0.7089 0.0492 -0.00119 0.0
C4528 C 0.73928 0.04998 0.98274 0.0
C4529 C 0.74013 0.0552 0.96948 0.0
C4530 C 0.75029 0.04887 0.98797 0.0
C4531 C 0.75035 0.04415 0.00218 0.0
C4532 C 0.74852 0.05055 0.01367 0.0
C4533 C 0.74855 0.04603 0.02703 0.0
C4534 C 0.75048 0.03518 0.02905 0.0
C4535 C 0.75243 0.02885 0.0177 0.0
C4536 C 0.75241 0.03332 0.00431 0.0
C4537 C 0.79654 0.08296 0.95033 0.0
C4538 C 0.8011 0.07435 0.94603 0.0
C4539 C 0.78391 0.07767 0.95675 0.0
C4540 C 0.77564 0.06368 0.95904 0.0
C4541 C 0.77994 0.05498 0.95447 0.0
C4542 C 0.79247 0.06024 0.9478 0.0
C4543 C 0.76266 0.05825 0.96657 0.0
C4544 C 0.76179 0.05289 0.97974 0.0
C4545 C 0.75166 0.05931 0.9613 0.0
C4546 C 0.7518 0.06433 0.94718 0.0
C4547 C 0.75394 0.05827 0.93559 0.0
C4548 C 0.754 0.063 0.92232 0.0
C4549 C 0.75185 0.07373 0.92048 0.0
C4550 C 0.74959 0.07973 0.93192 0.0
C4551 C 0.74954 0.07505 0.94522 0.0
H4552 H 0.75188 0.07736 0.91019 0.0
H4553 H 0.7505 0.0317 0.0394 0.0
H4554 H 0.68904 0.98085 0.01133 0.0
H4555 H 0.69616 0.96735 0.02402 0.0
H4556 H 0.66314 0.95546 0.05246 0.0
H4557 H 0.65617 0.96934 0.04 0.0
H4558 H 0.68579 0.96187 0.06633 0.0
H4559 H 0.66164 0.93309 0.02717 0.0
H4560 H 0.65573 0.92719 0.00243 0.0
H4561 H 0.69686 0.93686 0.99496 0.0
H4562 H 0.70307 0.94299 0.01963 0.0
H4563 H 0.69797 0.9008 0.07172 0.0
H4564 H 0.68616 0.91159 0.06216 0.0
H4565 H 0.71952 0.95075 0.07684 0.0
H4566 H 0.73116 0.93988 0.08681 0.0
H4567 H 0.69384 0.92864 0.04229 0.0
H4568 H 0.70821 0.9724 0.08204 0.0
H4569 H 0.71225 0.97676 0.1072 0.0
H4570 H 0.68688 0.93397 0.11451 0.0
H4571 H 0.68252 0.92936 0.08941 0.0
C4572 C 0.68318 0.97526 0.02019 0.0
C4573 C 0.67197 0.97611 0.02459 0.0
C4574 C 0.68726 0.96751 0.02744 0.0
C4575 C 0.68009 0.96023 0.03911 0.0
C4576 C 0.66883 0.96098 0.04349 0.0
C4577 C 0.66481 0.96885 0.0363 0.0
C4578 C 0.68456 0.95207 0.04683 0.0
C4579 C 0.68749 0.95456 0.06109 0.0
C4580 C 0.68656 0.94234 0.04007 0.0
C4581 C 0.68284 0.93859 0.02524 0.0
C4582 C 0.66945 0.93404 0.02024 0.0
C4583 C 0.66604 0.93064 0.00623 0.0
C4584 C 0.67592 0.93167 0.99712 0.0
C4585 C 0.68922 0.93607 0.00202 0.0
C4586 C 0.69268 0.93949 0.01602 0.0
C4587 C 0.70265 0.91168 0.07312 0.0
C4588 C 0.71546 0.91951 0.08004 0.0
C4589 C 0.69593 0.91785 0.0676 0.0
C4590 C 0.7019 0.93198 0.06881 0.0
C4591 C 0.71458 0.9398 0.07596 0.0
C4592 C 0.72126 0.93361 0.0816 0.0
C4593 C 0.6953 0.93859 0.06176 0.0
C4594 C 0.69203 0.93586 0.04759 0.0
C4595 C 0.69273 0.94786 0.06868 0.0
C4596 C 0.69515 0.95053 0.08382 0.0
C4597 C 0.70344 0.96393 0.08901 0.0
C4598 C 0.7058 0.96644 0.10327 0.0
C4599 C 0.69986 0.95565 0.11244 0.0
C4600 C 0.69151 0.94232 0.10739 0.0
C4601 C 0.68911 0.93975 0.09314 0.0
H4602 H 0.7017 0.95762 0.12347 0.0
H4603 H 0.67327 0.92904 0.98628 0.0
H4604 H 0.01197 0.70033 0.0309 0.0
H4605 H 0.01999 0.72271 0.04132 0.0
H4606 H 0.06179 0.73182 0.04117 0.0
H4607 H 0.05383 0.70937 0.03113 0.0
H4608 H 0.05654 0.73842 0.06537 0.0
H4609 H 0.04926 0.74592 0.01777 0.0
H4610 H 0.03585 0.74137 0.99601 0.0
H4611 H 0.00683 0.74781 0.01704 0.0
H4612 H 0.01999 0.75224 0.03897 0.0
H4613 H 0.09597 0.81039 0.07084 0.0
H4614 H 0.08444 0.78642 0.06379 0.0
H4615 H 0.04504 0.78141 0.07205 0.0
H4616 H 0.05658 0.80539 0.07943 0.0
H4617 H 0.04668 0.77195 0.04554 0.0
H4618 H 0.05551 0.76676 0.09265 0.0
H4619 H 0.06921 0.77157 0.11423 0.0
H4620 H 0.09562 0.761 0.09396 0.0
H4621 H 0.08221 0.75633 0.07218 0.0
C4622 C 0.02289 0.70715 0.03296 0.0
C4623 C 0.03226 0.70306 0.0302 0.0
C4624 C 0.02746 0.71996 0.0389 0.0
C4625 C 0.04151 0.72898 0.04198 0.0
C4626 C 0.05089 0.72501 0.03896 0.0
C4627 C 0.04633 0.71219 0.03315 0.0
C4628 C 0.04649 0.74244 0.0487 0.0
C4629 C 0.0545 0.7458 0.06094 0.0
C4630 C 0.04343 0.7519 0.04321 0.0
C4631 C 0.03552 0.74926 0.03004 0.0
C4632 C 0.03996 0.74626 0.01777 0.0
C4633 C 0.03242 0.74372 0.00541 0.0
C4634 C 0.02047 0.74426 0.00515 0.0
C4635 C 0.01607 0.74737 0.01726 0.0
C4636 C 0.02357 0.74991 0.02966 0.0
C4637 C 0.08486 0.80414 0.07132 0.0
C4638 C 0.07715 0.80979 0.07551 0.0
C4639 C 0.07829 0.79046 0.06732 0.0
C4640 C 0.06389 0.78217 0.06738 0.0
C4641 C 0.05616 0.78767 0.07189 0.0
C4642 C 0.06275 0.80134 0.07608 0.0
C4643 C 0.05699 0.76801 0.06197 0.0
C4644 C 0.0486 0.76451 0.05001 0.0
C4645 C 0.05976 0.75844 0.06767 0.0
C4646 C 0.06792 0.76132 0.08073 0.0
C4647 C 0.06432 0.76559 0.09275 0.0
C4648 C 0.07202 0.76827 0.10503 0.0
C4649 C 0.0833 0.76662 0.10545 0.0
C4650 C 0.08689 0.76228 0.0936 0.0
C4651 C 0.07924 0.75961 0.08129 0.0
H4652 H 0.08924 0.76868 0.11498 0.0
H4653 H 0.01464 0.74229 0.99557 0.0
H4654 H 0.31175 0.3299 0.03811 0.0
H4655 H 0.28941 0.31556 0.04864 0.0
H4656 H 0.27274 0.33514 0.02445 0.0
H4657 H 0.29556 0.35036 0.01492 0.0
H4658 H 0.2631 0.332 0.0479 0.0
H4659 H 0.26684 0.30083 0.01763 0.0
H4660 H 0.27817 0.28936 0.00812 0.0
H4661 H 0.27729 0.27277 0.04792 0.0
H4662 H 0.26615 0.2843 0.05773 0.0
H4663 H 0.19282 0.28163 0.05784 0.0
H4664 H 0.21545 0.29604 0.04777 0.0
H4665 H 0.23341 0.28246 0.07823 0.0
H4666 H 0.2107 0.2679 0.08826 0.0
H4667 H 0.2421 0.28219 0.05184 0.0
H4668 H 0.23768 0.31346 0.08147 0.0
H4669 H 0.22589 0.32475 0.0902 0.0
H4670 H 0.2272 0.34066 0.0499 0.0
H4671 H 0.2388 0.32928 0.04087 0.0
C4672 C 0.30325 0.33105 0.03503 0.0
C4673 C 0.30522 0.34108 0.02567 0.0
C4674 C 0.29045 0.32278 0.04095 0.0
C4675 C 0.27918 0.32394 0.03709 0.0
C4676 C 0.28121 0.33397 0.0276 0.0
C4677 C 0.29418 0.34261 0.0221 0.0
C4678 C 0.26544 0.31503 0.04326 0.0
C4679 C 0.25845 0.32108 0.04852 0.0
C4680 C 0.2594 0.30078 0.04442 0.0
C4681 C 0.26575 0.29352 0.03843 0.0
C4682 C 0.2691 0.29477 0.02436 0.0
C4683 C 0.2755 0.28826 0.01892 0.0
C4684 C 0.27847 0.28037 0.02741 0.0
C4685 C 0.27499 0.2789 0.04135 0.0
C4686 C 0.26862 0.2854 0.04686 0.0
C4687 C 0.20163 0.28184 0.06247 0.0
C4688 C 0.20007 0.27385 0.07398 0.0
C4689 C 0.21453 0.29005 0.05671 0.0
C4690 C 0.22613 0.29043 0.06235 0.0
C4691 C 0.22459 0.28235 0.07375 0.0
C4692 C 0.21167 0.27413 0.07953 0.0
C4693 C 0.23985 0.2992 0.05627 0.0
C4694 C 0.2468 0.29311 0.0511 0.0
C4695 C 0.24576 0.31337 0.05498 0.0
C4696 C 0.23901 0.32043 0.06047 0.0
C4697 C 0.23538 0.3193 0.07445 0.0
C4698 C 0.22874 0.32572 0.07945 0.0
C4699 C 0.22578 0.3334 0.0706 0.0
C4700 C 0.22949 0.3347 0.05674 0.0
C4701 C 0.23611 0.32828 0.05168 0.0
H4702 H 0.22063 0.33835 0.07449 0.0
H4703 H 0.28346 0.27537 0.02319 0.0
H4704 H 0.70252 0.6863 0.36847 0.0
H4705 H 0.7173 0.68095 0.38217 0.0
H4706 H 0.68557 0.63837 0.38018 0.0
H4707 H 0.67072 0.64367 0.36696 0.0
H4708 H 0.69437 0.64507 0.40536 0.0
H4709 H 0.71634 0.65274 0.36145 0.0
H4710 H 0.72804 0.66563 0.34067 0.0
H4711 H 0.76068 0.69686 0.36617 0.0
H4712 H 0.74908 0.68423 0.38712 0.0
H4713 H 0.72738 0.60646 0.42973 0.0
H4714 H 0.71457 0.61785 0.41342 0.0
H4715 H 0.7528 0.66527 0.42542 0.0
H4716 H 0.76672 0.65517 0.44226 0.0
H4717 H 0.74243 0.65902 0.39509 0.0
H4718 H 0.72076 0.64996 0.43878 0.0
H4719 H 0.70909 0.63637 0.4592 0.0
H4720 H 0.67553 0.60687 0.43327 0.0
H4721 H 0.6871 0.62019 0.41265 0.0
C4722 C 0.69878 0.6758 0.37087 0.0
C4723 C 0.68542 0.66542 0.36672 0.0
C4724 C 0.70725 0.67274 0.37865 0.0
C4725 C 0.70259 0.65923 0.3822 0.0
C4726 C 0.68939 0.64887 0.37768 0.0
C4727 C 0.6809 0.65193 0.3701 0.0
C4728 C 0.71099 0.65579 0.39121 0.0
C4729 C 0.70481 0.64799 0.40295 0.0
C4730 C 0.72481 0.65998 0.38842 0.0
C4731 C 0.73176 0.66762 0.37586 0.0
C4732 C 0.72595 0.66242 0.36263 0.0
C4733 C 0.73258 0.66967 0.35082 0.0
C4734 C 0.74507 0.68208 0.35211 0.0
C4735 C 0.75099 0.68725 0.3652 0.0
C4736 C 0.7444 0.68006 0.37704 0.0
C4737 C 0.73179 0.61734 0.42945 0.0
C4738 C 0.74967 0.62962 0.43567 0.0
C4739 C 0.72431 0.62451 0.41872 0.0
C4740 C 0.73276 0.64269 0.41684 0.0
C4741 C 0.74847 0.65445 0.42625 0.0
C4742 C 0.75683 0.6483 0.43732 0.0
C4743 C 0.72555 0.64796 0.40878 0.0
C4744 C 0.73199 0.65617 0.3974 0.0
C4745 C 0.71189 0.64403 0.41176 0.0
C4746 C 0.70486 0.63602 0.42415 0.0
C4747 C 0.71094 0.64052 0.43742 0.0
C4748 C 0.70434 0.63287 0.44903 0.0
C4749 C 0.69159 0.62075 0.44753 0.0
C4750 C 0.68541 0.61626 0.43441 0.0
C4751 C 0.69198 0.62387 0.42276 0.0
H4752 H 0.6865 0.61484 0.45654 0.0
H4753 H 0.75019 0.68767 0.34295 0.0
H4754 H 0.32581 0.01587 0.38783 0.0
H4755 H 0.33614 0.038 0.3996 0.0
H4756 H 0.34205 0.05738 0.36022 0.0
H4757 H 0.33197 0.03532 0.34834 0.0
H4758 H 0.36514 0.0697 0.37575 0.0
H4759 H 0.31728 0.05398 0.38329 0.0
H4760 H 0.29387 0.03782 0.3913 0.0
H4761 H 0.3097 0.04117 0.43267 0.0
H4762 H 0.33324 0.05721 0.42488 0.0
H4763 H 0.39363 0.14301 0.40025 0.0
H4764 H 0.38017 0.11652 0.38704 0.0
H4765 H 0.36314 0.09371 0.43257 0.0
H4766 H 0.37611 0.11978 0.44699 0.0
H4767 H 0.3443 0.0818 0.41347 0.0
H4768 H 0.39118 0.096 0.40745 0.0
H4769 H 0.41536 0.11096 0.40085 0.0
H4770 H 0.40254 0.10906 0.35847 0.0
H4771 H 0.37826 0.09422 0.36484 0.0
C4772 C 0.32913 0.02481 0.38167 0.0
C4773 C 0.3281 0.02383 0.36713 0.0
C4774 C 0.335 0.03747 0.38843 0.0
C4775 C 0.33979 0.04935 0.3808 0.0
C4776 C 0.33842 0.04834 0.36631 0.0
C4777 C 0.33263 0.03572 0.35954 0.0
C4778 C 0.34705 0.06293 0.38781 0.0
C4779 C 0.36049 0.07246 0.38381 0.0
C4780 C 0.34121 0.06628 0.39878 0.0
C4781 C 0.32704 0.05671 0.40347 0.0
C4782 C 0.31578 0.0512 0.39408 0.0
C4783 C 0.30249 0.04207 0.39858 0.0
C4784 C 0.3003 0.03845 0.41248 0.0
C4785 C 0.31141 0.04397 0.42191 0.0
C4786 C 0.32472 0.0531 0.41746 0.0
C4787 C 0.38867 0.1339 0.40634 0.0
C4788 C 0.38421 0.13419 0.42471 0.0
C4789 C 0.37972 0.11732 0.39814 0.0
C4790 C 0.36963 0.1022 0.40821 0.0
C4791 C 0.36879 0.10299 0.42684 0.0
C4792 C 0.37735 0.11911 0.436 0.0
C4793 C 0.36232 0.08868 0.40123 0.0
C4794 C 0.34893 0.07912 0.40532 0.0
C4795 C 0.36829 0.08519 0.39052 0.0
C4796 C 0.38288 0.09413 0.38666 0.0
C4797 C 0.39351 0.09886 0.39674 0.0
C4798 C 0.40723 0.1073 0.39304 0.0
C4799 C 0.41048 0.111 0.37926 0.0
C4800 C 0.40001 0.10621 0.36915 0.0
C4801 C 0.38626 0.09777 0.37279 0.0
H4802 H 0.42111 0.11754 0.37642 0.0
H4803 H 0.29 0.03138 0.41594 0.0
H4804 H 0.97731 0.31634 0.34824 0.0
H4805 H 0.95378 0.30609 0.35662 0.0
H4806 H 0.96148 0.28247 0.38558 0.0
H4807 H 0.98461 0.29219 0.37694 0.0
H4808 H 0.93776 0.26705 0.37374 0.0
H4809 H 0.96109 0.31237 0.39472 0.0
H4810 H 0.97427 0.33745 0.39427 0.0
H4811 H 0.94234 0.33654 0.36934 0.0
H4812 H 0.92904 0.31145 0.36952 0.0
H4813 H 0.88377 0.24351 0.4195 0.0
H4814 H 0.90651 0.25607 0.4097 0.0
H4815 H 0.89365 0.27764 0.38352 0.0
H4816 H 0.871 0.26577 0.3941 0.0
H4817 H 0.91888 0.29421 0.39161 0.0
H4818 H 0.89492 0.24896 0.37183 0.0
H4819 H 0.88159 0.2239 0.37252 0.0
H4820 H 0.91473 0.22464 0.39494 0.0
H4821 H 0.92819 0.2497 0.39455 0.0
C4822 C 0.97394 0.30895 0.35638 0.0
C4823 C 0.9828 0.30503 0.36188 0.0
C4824 C 0.96053 0.30316 0.36122 0.0
C4825 C 0.95588 0.2936 0.37185 0.0
C4826 C 0.96477 0.28977 0.37734 0.0
C4827 C 0.97803 0.29535 0.37238 0.0
C4828 C 0.94171 0.28725 0.3772 0.0
C4829 C 0.9337 0.27302 0.37776 0.0
C4830 C 0.93619 0.29498 0.38203 0.0
C4831 C 0.94415 0.31005 0.38202 0.0
C4832 C 0.95693 0.31753 0.38907 0.0
C4833 C 0.96441 0.33174 0.38888 0.0
C4834 C 0.95916 0.33858 0.38175 0.0
C4835 C 0.9464 0.33123 0.37484 0.0
C4836 C 0.93888 0.31702 0.375 0.0
C4837 C 0.88574 0.25104 0.4118 0.0
C4838 C 0.87544 0.25353 0.40749 0.0
C4839 C 0.89878 0.25814 0.40609 0.0
C4840 C 0.90169 0.26751 0.39554 0.0
C4841 C 0.89162 0.27037 0.39154 0.0
C4842 C 0.87867 0.26353 0.39753 0.0
C4843 C 0.91513 0.27403 0.38851 0.0
C4844 C 0.92293 0.28825 0.38753 0.0
C4845 C 0.92049 0.2663 0.38325 0.0
C4846 C 0.91253 0.25121 0.38322 0.0
C4847 C 0.89934 0.24377 0.37694 0.0
C4848 C 0.89176 0.22957 0.37728 0.0
C4849 C 0.8973 0.22268 0.38378 0.0
C4850 C 0.91045 0.22998 0.38991 0.0
C4851 C 0.91807 0.24418 0.38961 0.0
H4852 H 0.89141 0.21169 0.38405 0.0
H4853 H 0.96497 0.34958 0.3816 0.0
H4854 H 0.98919 0.35109 0.32104 0.0
H4855 H 0.98991 0.36986 0.30885 0.0
H4856 H 0.03391 0.38933 0.30519 0.0
H4857 H 0.0333 0.3708 0.31783 0.0
H4858 H 0.0282 0.4074 0.31224 0.0
H4859 H 0.01064 0.37258 0.27713 0.0
H4860 H 0.99523 0.3498 0.2667 0.0
H4861 H 0.96062 0.35447 0.27161 0.0
H4862 H 0.97579 0.37721 0.28225 0.0
H4863 H 0.03304 0.45676 0.26532 0.0
H4864 H 0.03341 0.43704 0.27395 0.0
H4865 H 0.99066 0.41785 0.28444 0.0
H4866 H 0.99025 0.43749 0.27585 0.0
H4867 H 0.99679 0.39977 0.27248 0.0
H4868 H 0.01482 0.43428 0.30882 0.0
H4869 H 0.03066 0.45726 0.31861 0.0
H4870 H 0.06515 0.45311 0.31042 0.0
H4871 H 0.04951 0.43017 0.30038 0.0
C4872 C -0.00098 0.35935 0.31761 0.0
C4873 C 0.01119 0.35944 0.32039 0.0
C4874 C -0.00059 0.37004 0.31055 0.0
C4875 C 0.01194 0.38093 0.30586 0.0
C4876 C 0.02411 0.38105 0.30867 0.0
C4877 C 0.02375 0.37043 0.31589 0.0
C4878 C 0.01239 0.39238 0.29844 0.0
C4879 C 0.0215 0.40571 0.30339 0.0
C4880 C 0.0035 0.39023 0.28701 0.0
C4881 C 0.99434 0.37656 0.2806 0.0
C4882 C -0.00028 0.36871 0.27609 0.0
C4883 C 0.99104 0.35581 0.27012 0.0
C4884 C 0.97695 0.35068 0.26852 0.0
C4885 C 0.97153 0.35845 0.27286 0.0
C4886 C 0.98017 0.37135 0.27885 0.0
C4887 C 0.02369 0.44824 0.2693 0.0
C4888 C 0.0116 0.44863 0.26987 0.0
C4889 C 0.02392 0.43702 0.27426 0.0
C4890 C 0.01208 0.42604 0.27993 0.0
C4891 C -0.00011 0.4262 0.28008 0.0
C4892 C -0.00032 0.43743 0.27519 0.0
C4893 C 0.01252 0.41466 0.28636 0.0
C4894 C 0.00358 0.40139 0.28124 0.0
C4895 C 0.02163 0.41685 0.29756 0.0
C4896 C 0.03102 0.43058 0.30372 0.0
C4897 C 0.02579 0.43831 0.30901 0.0
C4898 C 0.03473 0.45132 0.31462 0.0
C4899 C 0.04891 0.45666 0.31511 0.0
C4900 C 0.05417 0.44897 0.31002 0.0
C4901 C 0.04528 0.43597 0.30438 0.0
H4902 H 0.05581 0.46673 0.31945 0.0
H4903 H 0.97024 0.34069 0.2639 0.0
H4904 H 0.61669 0.64305 0.31434 0.0
H4905 H 0.60651 0.62053 0.30383 0.0
H4906 H 0.64252 0.61944 0.31559 0.0
H4907 H 0.65275 0.64206 0.32651 0.0
H4908 H 0.61404 0.61171 0.28297 0.0
H4909 H 0.63228 0.58585 0.32082 0.0
H4910 H 0.63924 0.58742 0.3454 0.0
H4911 H 0.61419 0.60363 0.35606 0.0
H4912 H 0.60695 0.60199 0.33159 0.0
H4913 H 0.58757 0.54246 0.24715 0.0
H4914 H 0.60423 0.56949 0.25915 0.0
H4915 H 0.58296 0.55296 0.3055 0.0
H4916 H 0.56601 0.52551 0.2947 0.0
H4917 H 0.60655 0.57149 0.3086 0.0
H4918 H 0.57803 0.57809 0.2747 0.0
H4919 H 0.56826 0.57686 0.25137 0.0
H4920 H 0.60895 0.59937 0.23509 0.0
H4921 H 0.61892 0.60061 0.25832 0.0
C4922 C 0.62248 0.63806 0.31476 0.0
C4923 C 0.63555 0.64438 0.32128 0.0
C4924 C 0.61665 0.62517 0.30868 0.0
C4925 C 0.62373 0.61827 0.30892 0.0
C4926 C 0.63681 0.62452 0.3154 0.0
C4927 C 0.64265 0.63745 0.32161 0.0
C4928 C 0.61723 0.60455 0.30231 0.0
C4929 C 0.61244 0.60291 0.28856 0.0
C4930 C 0.61504 0.59305 0.3096 0.0
C4931 C 0.61922 0.59396 0.32436 0.0
C4932 C 0.62824 0.58972 0.32842 0.0
C4933 C 0.63223 0.59062 0.34233 0.0
C4934 C 0.62721 0.59567 0.35227 0.0
C4935 C 0.61812 0.59978 0.34834 0.0
C4936 C 0.61409 0.59888 0.33445 0.0
C4937 C 0.58709 0.54438 0.25803 0.0
C4938 C 0.5732 0.53162 0.26914 0.0
C4939 C 0.59685 0.56131 0.26545 0.0
C4940 C 0.59474 0.56449 0.28336 0.0
C4941 C 0.58369 0.5508 0.29475 0.0
C4942 C 0.57355 0.53353 0.28831 0.0
C4943 C 0.60282 0.57849 0.28934 0.0
C4944 C 0.6081 0.58023 0.30295 0.0
C4945 C 0.6051 0.59005 0.28207 0.0
C4946 C 0.59916 0.58914 0.26812 0.0
C4947 C 0.58486 0.58266 0.2661 0.0
C4948 C 0.5793 0.58199 0.25292 0.0
C4949 C 0.58798 0.58796 0.24174 0.0
C4950 C 0.60224 0.59468 0.24374 0.0
C4951 C 0.60784 0.59538 0.2569 0.0
H4952 H 0.58365 0.58742 0.23154 0.0
H4953 H 0.63032 0.59637 0.36303 0.0
H4954 H 0.36101 0.97737 0.34943 0.0
H4955 H 0.38163 0.98581 0.3357 0.0
H4956 H 0.37336 0.01427 0.31612 0.0
H4957 H 0.35291 0.00615 0.33027 0.0
H4958 H 0.37197 0.99351 0.29862 0.0
H4959 H 0.4031 0.0278 0.32979 0.0
H4960 H 0.4145 0.03868 0.35209 0.0
H4961 H 0.42849 0.01088 0.35632 0.0
H4962 H 0.41699 -0.00033 0.33415 0.0
H4963 H 0.42082 0.99785 0.25096 0.0
H4964 H 0.41037 0.00578 0.26748 0.0
H4965 H 0.41333 0.98125 0.29908 0.0
H4966 H 0.42384 0.97333 0.28261 0.0
H4967 H 0.42017 0.00678 0.3091 0.0
H4968 H 0.38415 0.96936 0.28168 0.0
H4969 H 0.37199 0.95737 0.26 0.0
H4970 H 0.3664 0.99025 0.24961 0.0
H4971 H 0.37872 0.00252 0.27116 0.0
C4972 C 0.36395 0.98584 0.34265 0.0
C4973 C 0.35541 0.99108 0.3408 0.0
C4974 C 0.37574 0.99069 0.33485 0.0
C4975 C 0.37897 0.00063 0.3249 0.0
C4976 C 0.37107 0.00667 0.32385 0.0
C4977 C 0.35943 0.00205 0.33193 0.0
C4978 C 0.38849 0.00227 0.31387 0.0
C4979 C 0.38266 0.99686 0.30075 0.0
C4980 C 0.40228 0.00628 0.31685 0.0
C4981 C 0.40909 0.01284 0.33031 0.0
C4982 C 0.40849 0.02391 0.33553 0.0
C4983 C 0.415 0.03016 0.34814 0.0
C4984 C 0.4222 0.02546 0.35563 0.0
C4985 C 0.4229 0.01451 0.35051 0.0
C4986 C 0.41641 0.00821 0.33791 0.0
C4987 C 0.41932 0.99424 0.26147 0.0
C4988 C 0.42311 0.98496 0.26552 0.0
C4989 C 0.4134 -0.0012 0.27088 0.0
C4990 C 0.4111 0.99409 0.28447 0.0
C4991 C 0.41515 0.98508 0.28865 0.0
C4992 C 0.42104 0.98049 0.27923 0.0
C4993 C 0.40347 0.99764 0.29407 0.0
C4994 C 0.40963 0.0039 0.30686 0.0
C4995 C 0.38989 0.99428 0.29089 0.0
C4996 C 0.38253 0.98694 0.27791 0.0
C4997 C 0.38045 0.97409 0.2747 0.0
C4998 C 0.37351 0.96724 0.26245 0.0
C4999 C 0.36847 0.97307 0.2534 0.0
C5000 C 0.37034 0.98576 0.2566 0.0
C5001 C 0.37731 0.99267 0.26883 0.0
H5002 H 0.36309 0.96774 0.24393 0.0
H5003 H 0.42725 0.03033 0.36538 0.0
H5004 H 0.62402 0.9842 0.35286 0.0
H5005 H 0.60864 0.98784 0.3382 0.0
H5006 H 0.62749 0.98352 0.30178 0.0
H5007 H 0.64297 0.97999 0.31632 0.0
H5008 H 0.62605 0.00569 0.30047 0.0
H5009 H 0.59509 0.95902 0.31 0.0
H5010 H 0.5822 0.93858 0.32411 0.0
H5011 H 0.56189 0.95629 0.34432 0.0
H5012 H 0.57482 0.97695 0.33046 0.0
H5013 H 0.57808 0.0043 0.25187 0.0
H5014 H 0.59023 0.9962 0.26603 0.0
H5015 H 0.57734 0.00704 0.30309 0.0
H5016 H 0.56538 0.01542 0.28898 0.0
H5017 H 0.57518 0.98073 0.30346 0.0
H5018 H 0.60759 0.02799 0.29388 0.0
H5019 H 0.61996 0.04758 0.27856 0.0
H5020 H 0.63721 0.0274 0.25721 0.0
H5021 H 0.62474 0.00758 0.27228 0.0
C5022 C 0.62481 0.98389 0.34173 0.0
C5023 C 0.63477 0.98186 0.33577 0.0
C5024 C 0.61596 0.98591 0.33336 0.0
C5025 C 0.61688 0.9859 0.31888 0.0
C5026 C 0.62662 0.98359 0.31292 0.0
C5027 C 0.63544 0.98154 0.32126 0.0
C5028 C 0.60827 0.9891 0.31 0.0
C5029 C 0.61492 8e-05 0.301 0.0
C5030 C 0.59375 0.98194 0.31083 0.0
C5031 C 0.58605 0.96961 0.3193 0.0
C5032 C 0.58799 0.95863 0.31756 0.0
C5033 C 0.58065 0.94698 0.32548 0.0
C5034 C 0.57127 0.94616 0.33514 0.0
C5035 C 0.56918 0.95696 0.33686 0.0
C5036 C 0.57651 0.96864 0.32896 0.0
C5037 C 0.57781 0.00491 0.26304 0.0
C5038 C 0.57089 0.0106 0.26933 0.0
C5039 C 0.5847 0.00025 0.27109 0.0
C5040 C 0.58471 0.00109 0.28557 0.0
C5041 C 0.57741 0.00629 0.29191 0.0
C5042 C 0.57064 0.01111 0.28386 0.0
C5043 C 0.59301 0.99728 0.29407 0.0
C5044 C 0.58632 0.98625 0.30297 0.0
C5045 C 0.60749 0.00428 0.29307 0.0
C5046 C 0.61512 0.01625 0.28411 0.0
C5047 C 0.61393 0.02769 0.28585 0.0
C5048 C 0.62097 0.03884 0.27722 0.0
C5049 C 0.62934 0.03872 0.26689 0.0
C5050 C 0.63071 0.02747 0.2652 0.0
C5051 C 0.62366 0.01628 0.27378 0.0
H5052 H 0.63478 0.04736 0.26023 0.0
H5053 H 0.56558 0.93713 0.34125 0.0
H5054 H 0.00706 0.6411 0.34709 0.0
H5055 H 0.00249 0.62151 0.33285 0.0
H5056 H 0.01567 0.64655 0.29672 0.0
H5057 H 0.02014 0.66616 0.31084 0.0
H5058 H 0.99159 0.62347 0.29184 0.0
H5059 H 0.03544 0.63561 0.31076 0.0
H5060 H 0.05317 0.64143 0.32892 0.0
H5061 H 0.02768 0.60236 0.34706 0.0
H5062 H 0.00969 0.59637 0.32912 0.0
H5063 H 0.99093 0.57407 0.2471 0.0
H5064 H -0.00102 0.59474 0.26115 0.0
H5065 H 0.98365 0.57058 0.29775 0.0
H5066 H 0.97558 0.54985 0.28372 0.0
H5067 H 0.00973 0.59363 0.30188 0.0
H5068 H 0.96555 0.58216 0.2829 0.0
H5069 H 0.94842 0.57658 0.26414 0.0
H5070 H 0.97549 0.61503 0.2455 0.0
H5071 H 0.99288 0.62076 0.26405 0.0
C5072 C 0.00912 0.64248 0.33614 0.0
C5073 C 0.01392 0.65519 0.3301 0.0
C5074 C 0.00655 0.63128 0.32802 0.0
C5075 C 0.00881 0.63258 0.31373 0.0
C5076 C 0.01385 0.64531 0.30772 0.0
C5077 C 0.01643 0.65652 0.31583 0.0
C5078 C 0.00521 0.62051 0.30494 0.0
C5079 C 0.99574 0.61708 0.29391 0.0
C5080 C 0.0104 0.61201 0.3078 0.0
C5081 C 0.02115 0.6156 0.31867 0.0
C5082 C 0.03355 0.6283 0.3187 0.0
C5083 C 0.04367 0.63162 0.32894 0.0
C5084 C 0.04154 0.62228 0.33917 0.0
C5085 C 0.0293 0.60959 0.33915 0.0
C5086 C 0.01915 0.60622 0.32894 0.0
C5087 C 0.98935 0.57319 0.25816 0.0
C5088 C 0.9827 0.56036 0.26434 0.0
C5089 C 0.99392 0.58498 0.26615 0.0
C5090 C 0.99184 0.58417 0.28047 0.0
C5091 C 0.98538 0.57142 0.28672 0.0
C5092 C 0.98076 0.5596 0.27871 0.0
C5093 C 0.9961 0.59661 0.28887 0.0
C5094 C 0.00565 0.60008 0.29982 0.0
C5095 C 0.99106 0.60521 0.28589 0.0
C5096 C 0.98057 0.60183 0.27479 0.0
C5097 C 0.96789 0.58938 0.27474 0.0
C5098 C 0.95813 0.5862 0.26415 0.0
C5099 C 0.96088 0.59543 0.25361 0.0
C5100 C 0.97338 0.60788 0.25366 0.0
C5101 C 0.98319 0.61111 0.26421 0.0
H5102 H 0.9533 0.59295 0.24543 0.0
H5103 H 0.04938 0.62487 0.34708 0.0
H5104 H 0.36495 0.3799 0.34581 0.0
H5105 H 0.38764 0.38892 0.33572 0.0
H5106 H 0.37006 0.35501 0.3066 0.0
H5107 H 0.34783 0.34543 0.31763 0.0
H5108 H 0.39329 0.36012 0.31174 0.0
H5109 H 0.37688 0.38969 0.29989 0.0
H5110 H 0.3684 0.40507 0.30437 0.0
H5111 H 0.40562 0.43238 0.32728 0.0
H5112 H 0.41424 0.41707 0.32306 0.0
H5113 H 0.43757 0.39242 0.25489 0.0
H5114 H 0.41798 0.3833 0.2703 0.0
H5115 H 0.44498 0.40818 0.30395 0.0
H5116 H 0.46476 0.41704 0.28871 0.0
H5117 H 0.4191 0.40856 0.2984 0.0
H5118 H 0.43556 0.37799 0.30618 0.0
H5119 H 0.44285 0.36244 0.2982 0.0
H5120 H 0.40328 0.33653 0.27852 0.0
H5121 H 0.39583 0.35203 0.28621 0.0
C5122 C 0.3661 0.37433 0.33741 0.0
C5123 C 0.35477 0.36202 0.33244 0.0
C5124 C 0.379 0.37954 0.33153 0.0
C5125 C 0.38057 0.37291 0.32007 0.0
C5126 C 0.36923 0.36039 0.3154 0.0
C5127 C 0.3565 0.35491 0.32166 0.0
C5128 C 0.39381 0.37907 0.31261 0.0
C5129 C 0.39881 0.37069 0.30877 0.0
C5130 C 0.40127 0.39294 0.30879 0.0
C5131 C 0.39613 0.40217 0.31129 0.0
C5132 C 0.38321 0.39894 0.30595 0.0
C5133 C 0.37839 0.40764 0.30843 0.0
C5134 C 0.38645 0.41967 0.31614 0.0
C5135 C 0.39938 0.42305 0.32134 0.0
C5136 C 0.40424 0.41437 0.3189 0.0
C5137 C 0.43938 0.39578 0.26563 0.0
C5138 C 0.45276 0.4052 0.27068 0.0
C5139 C 0.42818 0.39063 0.27437 0.0
C5140 C 0.43011 0.39501 0.28824 0.0
C5141 C 0.44335 0.40466 0.29327 0.0
C5142 C 0.45461 0.40966 0.28458 0.0
C5143 C 0.4182 0.38952 0.29742 0.0
C5144 C 0.41354 0.39803 0.30155 0.0
C5145 C 0.41078 0.37569 0.30107 0.0
C5146 C 0.41517 0.36622 0.2967 0.0
C5147 C 0.42844 0.36902 0.30008 0.0
C5148 C 0.4326 0.36021 0.29562 0.0
C5149 C 0.42354 0.34852 0.28784 0.0
C5150 C 0.41029 0.34559 0.28455 0.0
C5151 C 0.40609 0.35438 0.28897 0.0
H5152 H 0.42679 0.34172 0.28438 0.0
H5153 H 0.3827 0.4264 0.31806 0.0
H5154 H 0.32158 0.30895 0.37904 0.0
H5155 H 0.33168 0.29781 0.39142 0.0
H5156 H 0.33961 0.28479 0.35263 0.0
H5157 H 0.32955 0.29597 0.34009 0.0
H5158 H 0.32997 0.26469 0.37297 0.0
H5159 H 0.36498 0.31141 0.36767 0.0
H5160 H 0.3753 0.33623 0.36901 0.0
H5161 H 0.37138 0.33446 0.41316 0.0
H5162 H 0.36081 0.30957 0.41206 0.0
H5163 H 0.38176 0.25273 0.39914 0.0
H5164 H 0.36957 0.26137 0.38586 0.0
H5165 H 0.36013 0.27445 0.42375 0.0
H5166 H 0.37207 0.26561 0.4371 0.0
H5167 H 0.37075 0.29436 0.40322 0.0
H5168 H 0.33565 0.24734 0.40824 0.0
H5169 H 0.3259 0.22262 0.4066 0.0
H5170 H 0.33069 0.2251 0.36256 0.0
H5171 H 0.34068 0.24991 0.36397 0.0
C5172 C 0.32529 0.30356 0.37311 0.0
C5173 C 0.32484 0.30344 0.35856 0.0
C5174 C 0.33111 0.29725 0.38022 0.0
C5175 C 0.33655 0.29063 0.37293 0.0
C5176 C 0.3355 0.28988 0.35843 0.0
C5177 C 0.32977 0.2963 0.3513 0.0
C5178 C 0.34396 0.28515 0.38047 0.0
C5179 C 0.33898 0.27119 0.37945 0.0
C5180 C 0.35562 0.29363 0.38905 0.0
C5181 C 0.36195 0.3086 0.38976 0.0
C5182 C 0.36618 0.31629 0.37765 0.0
C5183 C 0.37211 0.33038 0.37837 0.0
C5184 C 0.37396 0.33692 0.39116 0.0
C5185 C 0.36991 0.32938 0.40326 0.0
C5186 C 0.36396 0.31528 0.40259 0.0
C5187 C 0.37703 0.2574 0.40463 0.0
C5188 C 0.3779 0.25853 0.41916 0.0
C5189 C 0.37007 0.26231 0.39704 0.0
C5190 C 0.36393 0.26851 0.40384 0.0
C5191 C 0.36483 0.26972 0.41832 0.0
C5192 C 0.37164 0.26467 0.42592 0.0
C5193 C 0.35668 0.27388 0.39585 0.0
C5194 C 0.36173 0.28785 0.39675 0.0
C5195 C 0.34515 0.26542 0.38712 0.0
C5196 C 0.33905 0.2505 0.38623 0.0
C5197 C 0.33474 0.24264 0.39822 0.0
C5198 C 0.32915 0.22861 0.39733 0.0
C5199 C 0.32771 0.2223 0.38449 0.0
C5200 C 0.33183 0.23001 0.3725 0.0
C5201 C 0.33745 0.24405 0.37334 0.0
H5202 H 0.32338 0.21143 0.38382 0.0
H5203 H 0.37856 0.34783 0.39169 0.0
H5204 H 0.67614 0.01847 0.36658 0.0
H5205 H 0.68379 0.04137 0.37535 0.0
H5206 H 0.72447 0.04867 0.38318 0.0
H5207 H 0.71677 0.02572 0.37494 0.0
H5208 H 0.71763 0.0578 0.40406 0.0
H5209 H 0.71572 0.06176 0.35446 0.0
H5210 H 0.70472 0.05606 0.33121 0.0
H5211 H 0.67514 0.0657 0.34483 0.0
H5212 H 0.68588 0.07131 0.36822 0.0
H5213 H 0.76064 0.12972 0.40201 0.0
H5214 H 0.74822 0.10512 0.39782 0.0
H5215 H 0.70957 0.10315 0.40065 0.0
H5216 H 0.72196 0.12776 0.40524 0.0
H5217 H 0.71243 0.09075 0.37621 0.0
H5218 H 0.71699 0.08975 0.42525 0.0
H5219 H 0.72909 0.0962 0.44794 0.0
H5220 H 0.75493 0.08166 0.43474 0.0
H5221 H 0.74313 0.07532 0.41188 0.0
C5222 C 0.68672 0.02498 0.37013 0.0
C5223 C 0.69585 0.02028 0.37005 0.0
C5224 C 0.6911 0.03809 0.37511 0.0
C5225 C 0.70476 0.04682 0.37982 0.0
C5226 C 0.71387 0.04213 0.37967 0.0
C5227 C 0.70946 0.029 0.3749 0.0
C5228 C 0.70969 0.06086 0.38496 0.0
C5229 C 0.71658 0.06502 0.3979 0.0
C5230 C 0.70798 0.0702 0.37716 0.0
C5231 C 0.70149 0.06679 0.36312 0.0
C5232 C 0.7068 0.06256 0.35252 0.0
C5233 C 0.70062 0.05936 0.33932 0.0
C5234 C 0.68921 0.06047 0.33655 0.0
C5235 C 0.68396 0.06481 0.34699 0.0
C5236 C 0.69009 0.06801 0.36022 0.0
C5237 C 0.7495 0.12402 0.4019 0.0
C5238 C 0.74227 0.13069 0.40371 0.0
C5239 C 0.74242 0.10998 0.39955 0.0
C5240 C 0.72799 0.10236 0.39888 0.0
C5241 C 0.72071 0.10889 0.40107 0.0
C5242 C 0.72779 0.12293 0.40365 0.0
C5243 C 0.72064 0.08771 0.39507 0.0
C5244 C 0.7133 0.08345 0.38242 0.0
C5245 C 0.72209 0.07833 0.40305 0.0
C5246 C 0.72924 0.08216 0.41679 0.0
C5247 C 0.72534 0.08804 0.42713 0.0
C5248 C 0.73213 0.09166 0.44004 0.0
C5249 C 0.7428 0.08937 0.44277 0.0
C5250 C 0.74668 0.08344 0.43261 0.0
C5251 C 0.73993 0.07982 0.41967 0.0
H5252 H 0.74803 0.09217 0.45278 0.0
H5253 H 0.68445 0.058 0.32632 0.0
H5254 H 0.97752 0.66088 0.35059 0.0
H5255 H 0.95412 0.64473 0.35808 0.0
H5256 H 0.95169 0.67781 0.37573 0.0
H5257 H 0.97485 0.69398 0.36808 0.0
H5258 H 0.94477 0.63893 0.38341 0.0
H5259 H 0.91939 0.67087 0.37513 0.0
H5260 H 0.92027 0.68745 0.35863 0.0
H5261 H 0.93412 0.67137 0.32699 0.0
H5262 H 0.93315 0.65458 0.34324 0.0
H5263 H 0.89103 0.62233 0.42914 0.0
H5264 H 0.91148 0.63333 0.4149 0.0
H5265 H 0.88576 0.61799 0.37797 0.0
H5266 H 0.86521 0.60701 0.39223 0.0
H5267 H 0.90494 0.6445 0.37589 0.0
H5268 H 0.90437 0.60445 0.38779 0.0
H5269 H 0.90292 0.58683 0.40313 0.0
H5270 H 0.93977 0.61685 0.42487 0.0
H5271 H 0.94133 0.63469 0.4098 0.0
C5272 C 0.97193 0.66473 0.3559 0.0
C5273 C 0.97807 0.67873 0.35873 0.0
C5274 C 0.95857 0.65548 0.36021 0.0
C5275 C 0.9511 0.66005 0.36736 0.0
C5276 C 0.95714 0.67404 0.37 0.0
C5277 C 0.97044 0.68328 0.36567 0.0
C5278 C 0.93732 0.65024 0.37284 0.0
C5279 C 0.93603 0.64008 0.38168 0.0
C5280 C 0.92582 0.65155 0.37036 0.0
C5281 C 0.92628 0.66152 0.36045 0.0
C5282 C 0.92255 0.67082 0.36463 0.0
C5283 C 0.92309 0.68027 0.35533 0.0
C5284 C 0.92728 0.68048 0.34178 0.0
C5285 C 0.93092 0.67123 0.3375 0.0
C5286 C 0.93039 0.66175 0.34676 0.0
C5287 C 0.88975 0.62125 0.41799 0.0
C5288 C 0.87653 0.61389 0.41178 0.0
C5289 C 0.90143 0.62747 0.40986 0.0
C5290 C 0.90014 0.62638 0.39537 0.0
C5291 C 0.88697 0.61894 0.38914 0.0
C5292 C 0.87526 0.61268 0.39728 0.0
C5293 C 0.91258 0.63354 0.38682 0.0
C5294 C 0.91362 0.64322 0.37745 0.0
C5295 C 0.92377 0.63164 0.38863 0.0
C5296 C 0.92292 0.62093 0.39771 0.0
C5297 C 0.91211 0.60732 0.39591 0.0
C5298 C 0.91128 0.59728 0.40455 0.0
C5299 C 0.92123 0.60072 0.41498 0.0
C5300 C 0.93206 0.6142 0.41678 0.0
C5301 C 0.93294 0.62428 0.40818 0.0
H5302 H 0.92057 0.59294 0.42166 0.0
H5303 H 0.9277 0.68781 0.3346 0.0
H5304 H 0.35497 0.01235 0.70924 0.0
H5305 H 0.37172 0.00958 0.72252 0.0
H5306 H 0.39794 0.02163 0.68715 0.0
H5307 H 0.38115 0.02417 0.67374 0.0
H5308 H 0.39499 -0.00066 0.69794 0.0
H5309 H 0.40557 0.04283 0.716 0.0
H5310 H 0.40048 0.059 0.72698 0.0
H5311 H 0.38675 0.03455 0.76327 0.0
H5312 H 0.39158 0.01813 0.75243 0.0
H5313 H 0.45972 0.00511 0.72818 0.0
H5314 H 0.44002 0.01007 0.71483 0.0
H5315 H 0.41201 0.9978 0.75759 0.0
H5316 H 0.43094 0.99239 0.77219 0.0
H5317 H 0.41521 0.02111 0.74369 0.0
H5318 H 0.40423 0.97792 0.72635 0.0
H5319 H 0.40848 0.96095 0.71592 0.0
H5320 H 0.42189 0.984 0.67871 0.0
H5321 H 0.4179 0.00122 0.68899 0.0
C5322 C 0.36434 0.01449 0.70431 0.0
C5323 C 0.3667 0.01844 0.6904 0.0
C5324 C 0.37395 0.01298 0.71195 0.0
C5325 C 0.38616 0.01552 0.70588 0.0
C5326 C 0.38859 0.01961 0.69205 0.0
C5327 C 0.37898 0.02107 0.6844 0.0
C5328 C 0.3961 0.01324 0.71364 0.0
C5329 C 0.39961 0.00433 0.70781 0.0
C5330 C 0.40171 0.0193 0.72681 0.0
C5331 C 0.3988 0.02917 0.73334 0.0
C5332 C 0.40135 0.04084 0.72628 0.0
C5333 C 0.39854 0.05006 0.73248 0.0
C5334 C 0.39326 0.04779 0.7458 0.0
C5335 C 0.39082 0.03629 0.75295 0.0
C5336 C 0.3936 0.02703 0.74678 0.0
C5337 C 0.45057 0.00314 0.73343 0.0
C5338 C 0.44875 0.00062 0.75242 0.0
C5339 C 0.43865 0.0069 0.72546 0.0
C5340 C 0.42444 0.00538 0.73502 0.0
C5341 C 0.42105 -0.00074 0.7525 0.0
C5342 C 0.43236 0.99521 0.76143 0.0
C5343 C 0.41433 0.00756 0.72774 0.0
C5344 C 0.41067 0.01627 0.73374 0.0
C5345 C 0.40852 0.00128 0.71475 0.0
C5346 C 0.41091 0.99094 0.70851 0.0
C5347 C 0.40819 0.97943 0.71599 0.0
C5348 C 0.41054 0.96975 0.7101 0.0
C5349 C 0.41549 0.97142 0.69668 0.0
C5350 C 0.41807 0.98274 0.68911 0.0
C5351 C 0.41576 0.99245 0.69496 0.0
H5352 H 0.4173 0.96391 0.69214 0.0
H5353 H 0.39109 0.05494 0.75059 0.0
H5354 H 0.97828 0.33542 0.71248 0.0
H5355 H 0.97638 0.35195 0.72657 0.0
H5356 H 0.00941 0.38471 0.70428 0.0
H5357 H 0.01155 0.3682 0.69022 0.0
H5358 H 0.01085 0.39071 0.7323 0.0
H5359 H 0.97673 0.37354 0.69506 0.0
H5360 H 0.95739 0.35554 0.68102 0.0
H5361 H 0.93242 0.34152 0.71705 0.0
H5362 H 0.95169 0.35934 0.73133 0.0
H5363 H 0.99585 0.4429 0.73952 0.0
H5364 H 0.00122 0.4258 0.73267 0.0
H5365 H 0.96603 0.3953 0.75467 0.0
H5366 H 0.96051 0.41236 0.76137 0.0
H5367 H 0.96569 0.38722 0.72897 0.0
H5368 H -0.0012 0.4059 0.76589 0.0
H5369 H 0.01802 0.42376 0.78013 0.0
H5370 H 0.04476 0.4349 0.74553 0.0
H5371 H 0.02565 0.41723 0.731 0.0
C5372 C 0.98522 0.34614 0.71062 0.0
C5373 C 0.99494 0.35049 0.70008 0.0
C5374 C 0.98413 0.35557 0.7187 0.0
C5375 C 0.99262 0.36954 0.71633 0.0
C5376 C 0.00275 0.37396 0.70625 0.0
C5377 C 0.0039 0.36452 0.69818 0.0
C5378 C 0.99025 0.37942 0.72364 0.0
C5379 C 0.00103 0.39005 0.73151 0.0
C5380 C 0.97731 0.37831 0.72288 0.0
C5381 C 0.96568 0.36768 0.71428 0.0
C5382 C 0.96714 0.36656 0.7 0.0
C5383 C 0.95619 0.3564 0.69199 0.0
C5384 C 0.94369 0.34737 0.69814 0.0
C5385 C 0.94211 0.34851 0.7123 0.0
C5386 C 0.95304 0.35864 0.72035 0.0
C5387 C 0.98945 0.4326 0.74314 0.0
C5388 C 0.97785 0.42897 0.75109 0.0
C5389 C 0.99255 0.42286 0.73927 0.0
C5390 C 0.98411 0.4093 0.74327 0.0
C5391 C 0.97272 0.40572 0.75153 0.0
C5392 C 0.96961 0.41547 0.75539 0.0
C5393 C 0.98631 0.39864 0.73762 0.0
C5394 C 0.97549 0.38785 0.72997 0.0
C5395 C -0.0008 0.39963 0.73863 0.0
C5396 C 0.01074 0.4103 0.74731 0.0
C5397 C 0.00874 0.41223 0.76127 0.0
C5398 C 0.01963 0.42231 0.7694 0.0
C5399 C 0.0326 0.43048 0.76373 0.0
C5400 C 0.03471 0.42857 0.74991 0.0
C5401 C 0.02385 0.41852 0.74172 0.0
H5402 H 0.04101 0.43828 0.77004 0.0
H5403 H 0.93523 0.33951 0.69193 0.0
H5404 H 0.64112 0.65013 0.68273 0.0
H5405 H 0.61852 0.63861 0.69342 0.0
H5406 H 0.63171 0.61827 0.72104 0.0
H5407 H 0.65402 0.62931 0.71016 0.0
H5408 H 0.60695 0.60109 0.71168 0.0
H5409 H 0.63004 0.64674 0.73115 0.0
H5410 H 0.64223 0.67175 0.73005 0.0
H5411 H 0.60748 0.66875 0.70865 0.0
H5412 H 0.59515 0.64372 0.70948 0.0
H5413 H 0.55527 0.57667 0.7609 0.0
H5414 H 0.57743 0.58946 0.74985 0.0
H5415 H 0.56221 0.60956 0.72449 0.0
H5416 H 0.54021 0.59743 0.73626 0.0
H5417 H 0.58746 0.62693 0.73166 0.0
H5418 H 0.56413 0.58118 0.71278 0.0
H5419 H 0.55204 0.55619 0.71394 0.0
H5420 H 0.5874 0.55936 0.73413 0.0
H5421 H 0.59963 0.58438 0.73324 0.0
C5422 C 0.63915 0.64314 0.69103 0.0
C5423 C 0.64935 0.64062 0.69558 0.0
C5424 C 0.62627 0.63664 0.69719 0.0
C5425 C 0.62348 0.62771 0.70817 0.0
C5426 C 0.63361 0.62509 0.71259 0.0
C5427 C 0.64638 0.63143 0.70634 0.0
C5428 C 0.61002 0.62095 0.71507 0.0
C5429 C 0.60276 0.60676 0.71617 0.0
C5430 C 0.60437 0.62831 0.72062 0.0
C5431 C 0.61173 0.64336 0.72026 0.0
C5432 C 0.62504 0.65142 0.72614 0.0
C5433 C 0.63197 0.66559 0.72557 0.0
C5434 C 0.62565 0.67183 0.71925 0.0
C5435 C 0.61237 0.6639 0.71353 0.0
C5436 C 0.6054 0.64973 0.71405 0.0
C5437 C 0.55665 0.58396 0.75315 0.0
C5438 C 0.54595 0.58609 0.7495 0.0
C5439 C 0.56932 0.59117 0.7467 0.0
C5440 C 0.5714 0.60024 0.73608 0.0
C5441 C 0.56085 0.60259 0.73262 0.0
C5442 C 0.54828 0.59563 0.7393 0.0
C5443 C 0.58446 0.60706 0.72841 0.0
C5444 C 0.59162 0.62125 0.72712 0.0
C5445 C 0.59004 0.5997 0.72267 0.0
C5446 C 0.58275 0.58465 0.72302 0.0
C5447 C 0.56929 0.57655 0.71752 0.0
C5448 C 0.56242 0.56238 0.71813 0.0
C5449 C 0.56894 0.55619 0.72413 0.0
C5450 C 0.58236 0.56416 0.72949 0.0
C5451 C 0.58927 0.57833 0.72892 0.0
H5452 H 0.56359 0.54522 0.7246 0.0
H5453 H 0.63104 0.68281 0.71881 0.0
H5454 H 0.68067 0.69952 0.64262 0.0
H5455 H 0.67234 0.71204 0.62966 0.0
H5456 H 0.64268 0.70361 0.66115 0.0
H5457 H 0.65094 0.69115 0.67417 0.0
H5458 H 0.63157 0.69868 0.63409 0.0
H5459 H 0.67117 0.73414 0.66032 0.0
H5460 H 0.69568 0.74708 0.66752 0.0
H5461 H 0.70723 0.75763 0.62531 0.0
H5462 H 0.68279 0.7446 0.61784 0.0
H5463 H 0.60895 0.74358 0.62118 0.0
H5464 H 0.61805 0.73028 0.63062 0.0
H5465 H 0.65179 0.74919 0.60243 0.0
H5466 H 0.64326 0.76323 0.59367 0.0
H5467 H 0.66151 0.74803 0.62549 0.0
H5468 H 0.6231 0.71458 0.59863 0.0
H5469 H 0.59904 0.70121 0.59002 0.0
H5470 H 0.58563 0.68594 0.63076 0.0
H5471 H 0.60959 0.69936 0.63966 0.0
C5472 C 0.6724 0.70035 0.64679 0.0
C5473 C 0.6665 0.69437 0.65945 0.0
C5474 C 0.66767 0.70753 0.63939 0.0
C5475 C 0.65693 0.70879 0.64448 0.0
C5476 C 0.65097 0.70274 0.65704 0.0
C5477 C 0.65575 0.69568 0.6645 0.0
C5478 C 0.65186 0.71642 0.63681 0.0
C5479 C 0.63806 0.7095 0.63228 0.0
C5480 C 0.66049 0.7304 0.63399 0.0
C5481 C 0.67517 0.73828 0.63851 0.0
C5482 C 0.67894 0.73913 0.65257 0.0
C5483 C 0.69282 0.7465 0.6567 0.0
C5484 C 0.70301 0.75314 0.64688 0.0
C5485 C 0.69934 0.75246 0.63291 0.0
C5486 C 0.68547 0.7451 0.62872 0.0
C5487 C 0.61828 0.74485 0.61696 0.0
C5488 C 0.62524 0.75435 0.60656 0.0
C5489 C 0.62342 0.73714 0.62227 0.0
C5490 C 0.63546 0.73844 0.61703 0.0
C5491 C 0.64244 0.74791 0.60661 0.0
C5492 C 0.63748 0.75588 0.60152 0.0
C5493 C 0.64104 0.73036 0.62288 0.0
C5494 C 0.65498 0.73718 0.62709 0.0
C5495 C 0.63258 0.7162 0.62515 0.0
C5496 C 0.61814 0.70807 0.61983 0.0
C5497 C 0.61501 0.70844 0.60577 0.0
C5498 C 0.60139 0.70084 0.60084 0.0
C5499 C 0.59081 0.69275 0.60984 0.0
C5500 C 0.59383 0.69222 0.6238 0.0
C5501 C 0.60744 0.6998 0.62879 0.0
H5502 H 0.58027 0.68688 0.606 0.0
H5503 H 0.71375 0.75883 0.6501 0.0
H5504 H 0.31984 0.97823 0.66011 0.0
H5505 H 0.31047 0.95564 0.64942 0.0
H5506 H 0.27185 0.95297 0.64139 0.0
H5507 H 0.28105 0.97537 0.65206 0.0
H5508 H 0.26776 0.92892 0.64998 0.0
H5509 H 0.29504 0.96266 0.6165 0.0
H5510 H 0.316 0.98248 0.60749 0.0
H5511 H 0.33745 0.96126 0.61136 0.0
H5512 H 0.31664 0.94137 0.6206 0.0
H5513 H 0.2313 0.88102 0.58808 0.0
H5514 H 0.24544 0.90424 0.60691 0.0
H5515 H 0.28552 0.89808 0.61184 0.0
H5516 H 0.27246 0.87457 0.59331 0.0
H5517 H 0.29075 0.92555 0.60831 0.0
H5518 H 0.26344 0.89199 0.64202 0.0
H5519 H 0.2422 0.87207 0.65054 0.0
H5520 H 0.22069 0.89309 0.64516 0.0
H5521 H 0.24183 0.91312 0.63656 0.0
C5522 C 0.30929 0.97273 0.65625 0.0
C5523 C 0.30123 0.97864 0.65683 0.0
C5524 C 0.30398 0.95986 0.65009 0.0
C5525 C 0.29052 0.9527 0.64447 0.0
C5526 C 0.28227 0.95832 0.64564 0.0
C5527 C 0.28757 0.97117 0.6517 0.0
C5528 C 0.28514 0.93969 0.6367 0.0
C5529 C 0.27278 0.92823 0.64084 0.0
C5530 C 0.29182 0.93866 0.62493 0.0
C5531 C 0.30435 0.95061 0.61943 0.0
C5532 C 0.30427 0.96227 0.61557 0.0
C5533 C 0.31611 0.97351 0.61039 0.0
C5534 C 0.32807 0.97315 0.60891 0.0
C5535 C 0.32819 0.96154 0.61256 0.0
C5536 C 0.31638 0.95028 0.61777 0.0
C5537 C 0.24155 0.88448 0.59208 0.0
C5538 C 0.24937 0.87384 0.59075 0.0
C5539 C 0.2501 0.89844 0.60433 0.0
C5540 C 0.26647 0.90301 0.61215 0.0
C5541 C 0.27542 0.89457 0.60741 0.0
C5542 C 0.26774 0.88042 0.59532 0.0
C5543 C 0.27334 0.91498 0.62151 0.0
C5544 C 0.28592 0.92622 0.61761 0.0
C5545 C 0.26684 0.91588 0.6334 0.0
C5546 C 0.25413 0.90395 0.63853 0.0
C5547 C 0.25415 0.89233 0.64262 0.0
C5548 C 0.24215 0.88104 0.64748 0.0
C5549 C 0.23009 0.8813 0.64835 0.0
C5550 C 0.23003 0.89289 0.64444 0.0
C5551 C 0.24202 0.90422 0.6396 0.0
H5552 H 0.2208 0.87254 0.65209 0.0
H5553 H 0.33722 0.98185 0.60488 0.0
H5554 H 0.0178 0.30919 0.6398 0.0
H5555 H 0.04061 0.32276 0.63012 0.0
H5556 H 0.05163 0.35405 0.66121 0.0
H5557 H 0.02856 0.34063 0.6708 0.0
H5558 H 0.06145 0.36479 0.63588 0.0
H5559 H 0.06182 0.33124 0.66494 0.0
H5560 H 0.05291 0.30794 0.67307 0.0
H5561 H 0.05821 0.29578 0.63271 0.0
H5562 H 0.067 0.31896 0.6243 0.0
H5563 H 0.13367 0.39709 0.62407 0.0
H5564 H 0.11071 0.3865 0.63382 0.0
H5565 H 0.09734 0.35073 0.60819 0.0
H5566 H 0.12035 0.36078 0.59924 0.0
H5567 H 0.08901 0.3431 0.63225 0.0
H5568 H 0.08777 0.37576 0.60253 0.0
H5569 H 0.09588 0.3986 0.5935 0.0
H5570 H 0.09166 0.41209 0.63361 0.0
H5571 H 0.08368 0.38937 0.64292 0.0
C5572 C 0.02505 0.31896 0.6446 0.0
C5573 C 0.02143 0.32375 0.6562 0.0
C5574 C 0.03809 0.32671 0.63905 0.0
C5575 C 0.04791 0.33928 0.64512 0.0
C5576 C 0.04422 0.34433 0.65642 0.0
C5577 C 0.03107 0.33663 0.66191 0.0
C5578 C 0.06213 0.34685 0.63991 0.0
C5579 C 0.06759 0.36015 0.63524 0.0
C5580 C 0.06999 0.34068 0.63884 0.0
C5581 C 0.06499 0.32681 0.64398 0.0
C5582 C 0.06104 0.32358 0.65779 0.0
C5583 C 0.05601 0.3104 0.66245 0.0
C5584 C 0.05498 0.30038 0.65341 0.0
C5585 C 0.05902 0.30354 0.63971 0.0
C5586 C 0.06404 0.31671 0.63499 0.0
C5587 C 0.12577 0.387 0.62047 0.0
C5588 C 0.12887 0.37989 0.61079 0.0
C5589 C 0.11262 0.38099 0.62596 0.0
C5590 C 0.10218 0.36787 0.62161 0.0
C5591 C 0.10519 0.36086 0.61174 0.0
C5592 C 0.11839 0.3667 0.60652 0.0
C5593 C 0.08833 0.36101 0.62783 0.0
C5594 C 0.08295 0.34782 0.63284 0.0
C5595 C 0.08053 0.36726 0.62905 0.0
C5596 C 0.08526 0.3809 0.62345 0.0
C5597 C 0.08866 0.38362 0.60944 0.0
C5598 C 0.09322 0.39654 0.60427 0.0
C5599 C 0.09432 0.4068 0.61298 0.0
C5600 C 0.09082 0.40414 0.62688 0.0
C5601 C 0.08627 0.39125 0.6321 0.0
H5602 H 0.09785 0.41679 0.60896 0.0
H5603 H 0.05106 0.29018 0.65703 0.0
H5604 H 0.32494 0.34127 0.6531 0.0
H5605 H 0.31391 0.35211 0.642 0.0
H5606 H 0.27399 0.31693 0.64984 0.0
H5607 H 0.28496 0.30589 0.66098 0.0
H5608 H 0.27578 0.32735 0.6234 0.0
H5609 H 0.28631 0.34392 0.67067 0.0
H5610 H 0.30147 0.35437 0.69127 0.0
H5611 H 0.32713 0.39076 0.66874 0.0
H5612 H 0.31222 0.38045 0.64793 0.0
H5613 H 0.23426 0.35627 0.6191 0.0
H5614 H 0.24648 0.34494 0.62574 0.0
H5615 H 0.28529 0.38187 0.61869 0.0
H5616 H 0.27306 0.39327 0.61199 0.0
H5617 H 0.28502 0.37106 0.64364 0.0
H5618 H 0.27428 0.35546 0.59684 0.0
H5619 H 0.25966 0.34531 0.57587 0.0
H5620 H 0.23505 0.30764 0.59682 0.0
H5621 H 0.24941 0.31763 0.61801 0.0
C5622 C 0.3138 0.33575 0.65241 0.0
C5623 C 0.30582 0.32273 0.65804 0.0
C5624 C 0.30753 0.342 0.64607 0.0
C5625 C 0.29314 0.3354 0.64525 0.0
C5626 C 0.28512 0.32221 0.6504 0.0
C5627 C 0.2914 0.31594 0.6568 0.0
C5628 C 0.28653 0.3425 0.6395 0.0
C5629 C 0.27765 0.33682 0.62791 0.0
C5630 C 0.28933 0.35508 0.64515 0.0
C5631 C 0.29823 0.36135 0.6577 0.0
C5632 C 0.29524 0.35411 0.67008 0.0
C5633 C 0.30378 0.36002 0.6818 0.0
C5634 C 0.31528 0.37321 0.6813 0.0
C5635 C 0.31823 0.38054 0.6691 0.0
C5636 C 0.30974 0.37467 0.65734 0.0
C5637 C 0.24539 0.36191 0.61877 0.0
C5638 C 0.25271 0.37563 0.61497 0.0
C5639 C 0.25236 0.35542 0.62254 0.0
C5640 C 0.26679 0.36253 0.62262 0.0
C5641 C 0.27415 0.37619 0.61867 0.0
C5642 C 0.26717 0.38267 0.61481 0.0
C5643 C 0.27415 0.35587 0.62759 0.0
C5644 C 0.28318 0.36163 0.63906 0.0
C5645 C 0.27153 0.34341 0.62178 0.0
C5646 C 0.26285 0.33734 0.60906 0.0
C5647 C 0.26568 0.34505 0.59702 0.0
C5648 C 0.25745 0.33932 0.58509 0.0
C5649 C 0.24641 0.32585 0.58502 0.0
C5650 C 0.24359 0.31808 0.59689 0.0
C5651 C 0.25179 0.32377 0.60886 0.0
H5652 H 0.24005 0.32143 0.57577 0.0
H5653 H 0.32189 0.37776 0.69039 0.0
H5654 H 0.65876 0.98567 0.64191 0.0
H5655 H 0.64668 0.96333 0.63041 0.0
H5656 H 0.67674 0.95504 0.64707 0.0
H5657 H 0.68907 0.9775 0.65838 0.0
H5658 H 0.67043 0.94646 0.62063 0.0
H5659 H 0.64486 0.94211 0.66168 0.0
H5660 H 0.63201 0.94811 0.67747 0.0
H5661 H 0.60243 0.93995 0.64499 0.0
H5662 H 0.61521 0.93406 0.62896 0.0
H5663 H 0.63412 0.87457 0.618 0.0
H5664 H 0.64673 0.89877 0.62419 0.0
H5665 H 0.61441 0.90255 0.60538 0.0
H5666 H 0.60166 0.87821 0.59927 0.0
H5667 H 0.6213 0.91411 0.63073 0.0
H5668 H 0.64555 0.91644 0.59023 0.0
H5669 H 0.6581 0.9101 0.57442 0.0
H5670 H 0.68989 0.92186 0.60544 0.0
H5671 H 0.67742 0.92809 0.62152 0.0
C5672 C 0.66285 0.97912 0.64311 0.0
C5673 C 0.67485 0.98335 0.65116 0.0
C5674 C 0.65589 0.96632 0.63654 0.0
C5675 C 0.66068 0.95741 0.63803 0.0
C5676 C 0.67284 0.96173 0.64579 0.0
C5677 C 0.67985 0.97457 0.65229 0.0
C5678 C 0.65289 0.94348 0.63177 0.0
C5679 C 0.65972 0.93934 0.62294 0.0
C5680 C 0.63879 0.93431 0.63443 0.0
C5681 C 0.63107 0.93779 0.64408 0.0
C5682 C 0.63567 0.94169 0.65788 0.0
C5683 C 0.62839 0.94505 0.66688 0.0
C5684 C 0.61643 0.94445 0.66223 0.0
C5685 C 0.61171 0.94044 0.64858 0.0
C5686 C 0.61896 0.93708 0.63953 0.0
C5687 C 0.62982 0.88062 0.61496 0.0
C5688 C 0.61701 0.87455 0.60798 0.0
C5689 C 0.63704 0.89445 0.61848 0.0
C5690 C 0.6316 0.90253 0.61511 0.0
C5691 C 0.61884 0.89653 0.60802 0.0
C5692 C 0.61161 0.88267 0.60447 0.0
C5693 C 0.63889 0.91701 0.61975 0.0
C5694 C 0.63197 0.92126 0.62829 0.0
C5695 C 0.65289 0.92627 0.6168 0.0
C5696 C 0.66049 0.92264 0.60712 0.0
C5697 C 0.65517 0.91759 0.59372 0.0
C5698 C 0.66228 0.91403 0.5847 0.0
C5699 C 0.67477 0.91555 0.58894 0.0
C5700 C 0.68021 0.92068 0.60218 0.0
C5701 C 0.67313 0.92425 0.61125 0.0
H5702 H 0.68026 0.91279 0.58194 0.0
H5703 H 0.61081 0.94706 0.66921 0.0
H5704 H 0.0164 0.67779 0.66707 0.0
H5705 H 0.03935 0.68519 0.65849 0.0
H5706 H 0.04145 0.72009 0.64011 0.0
H5707 H 0.01862 0.71279 0.64849 0.0
H5708 H 0.04961 0.70773 0.62234 0.0
H5709 H 0.05853 0.72323 0.66996 0.0
H5710 H 0.05612 0.72078 0.69524 0.0
H5711 H 0.07053 0.69313 0.69444 0.0
H5712 H 0.07285 0.69528 0.6691 0.0
H5713 H 0.12095 0.75794 0.61833 0.0
H5714 H 0.09674 0.74446 0.62456 0.0
H5715 H 0.10022 0.70943 0.63033 0.0
H5716 H 0.1243 0.72264 0.62343 0.0
H5717 H 0.08888 0.71831 0.65379 0.0
H5718 H 0.08257 0.7055 0.6059 0.0
H5719 H 0.08553 0.70919 0.5808 0.0
H5720 H 0.06665 0.73296 0.58232 0.0
H5721 H 0.06379 0.72961 0.60749 0.0
C5722 C 0.02177 0.68705 0.66122 0.0
C5723 C 0.01568 0.69471 0.65847 0.0
C5724 C 0.03488 0.69127 0.65635 0.0
C5725 C 0.0421 0.7032 0.64868 0.0
C5726 C 0.03603 0.71082 0.64595 0.0
C5727 C 0.02299 0.70666 0.65082 0.0
C5728 C 0.05601 0.7079 0.64347 0.0
C5729 C 0.05821 0.71009 0.62923 0.0
C5730 C 0.06714 0.71064 0.65241 0.0
C5731 C 0.06567 0.70926 0.66762 0.0
C5732 C 0.06105 0.71652 0.67516 0.0
C5733 C 0.05973 0.71521 0.6895 0.0
C5734 C 0.06312 0.70676 0.69644 0.0
C5735 C 0.06787 0.69964 0.68905 0.0
C5736 C 0.06919 0.7009 0.6747 0.0
C5737 C 0.11655 0.74734 0.62082 0.0
C5738 C 0.12469 0.74149 0.62079 0.0
C5739 C 0.10274 0.73967 0.62436 0.0
C5740 C 0.0968 0.72603 0.62801 0.0
C5741 C 0.10471 0.72 0.62765 0.0
C5742 C 0.11848 0.7276 0.62379 0.0
C5743 C 0.08247 0.71837 0.63276 0.0
C5744 C 0.08022 0.71568 0.6469 0.0
C5745 C 0.07131 0.71529 0.62375 0.0
C5746 C 0.0731 0.71742 0.60862 0.0
C5747 C 0.07919 0.71165 0.60092 0.0
C5748 C 0.08082 0.71365 0.58667 0.0
C5749 C 0.07632 0.72133 0.57998 0.0
C5750 C 0.07015 0.72702 0.58752 0.0
C5751 C 0.06852 0.72507 0.60178 0.0
H5752 H 0.07756 0.72285 0.56894 0.0
H5753 H 0.06211 0.70577 0.70754 0.0
H5754 H 0.96428 0.62909 0.69877 0.0
H5755 H 0.96547 0.61102 0.71053 0.0
H5756 H 0.00953 0.63726 0.71499 0.0
H5757 H 0.00844 0.65541 0.70338 0.0
H5758 H 0.00114 0.61111 0.70527 0.0
H5759 H 0.99145 0.63237 0.74221 0.0
H5760 H 0.97902 0.64145 0.7543 0.0
H5761 H 0.94221 0.6018 0.7532 0.0
H5762 H 0.95438 0.59251 0.7409 0.0
H5763 H 0.01074 0.56922 0.75177 0.0
H5764 H 0.01091 0.58888 0.74215 0.0
H5765 H 0.9666 0.56525 0.73849 0.0
H5766 H 0.96639 0.54564 0.74815 0.0
H5767 H 0.97606 0.59092 0.74849 0.0
H5768 H 0.98564 0.56988 0.71081 0.0
H5769 H 0.99821 0.5608 0.69899 0.0
H5770 H 0.03536 0.60015 0.70161 0.0
H5771 H 0.02305 0.60942 0.71366 0.0
C5772 C 0.97422 0.63101 0.70225 0.0
C5773 C 0.98626 0.64369 0.70017 0.0
C5774 C 0.97487 0.6207 0.70901 0.0
C5775 C 0.98758 0.62285 0.7137 0.0
C5776 C -0.00037 0.63542 0.71146 0.0
C5777 C -0.00103 0.64578 0.70487 0.0
C5778 C 0.9883 0.61194 0.72084 0.0
C5779 C 0.99582 0.60682 0.71483 0.0
C5780 C 0.98117 0.60622 0.73318 0.0
C5781 C 0.97379 0.61178 0.74048 0.0
C5782 C 0.98067 0.62561 0.7444 0.0
C5783 C 0.97368 0.63079 0.75133 0.0
C5784 C 0.95983 0.62222 0.75448 0.0
C5785 C 0.95294 0.60844 0.75073 0.0
C5786 C 0.95988 0.60321 0.74379 0.0
C5787 C 0.00105 0.56831 0.74905 0.0
C5788 C 0.98854 0.55595 0.75081 0.0
C5789 C 0.00116 0.57949 0.74351 0.0
C5790 C 0.98877 0.57848 0.73952 0.0
C5791 C 0.97627 0.56626 0.74154 0.0
C5792 C 0.97616 0.55507 0.74704 0.0
C5793 C 0.98879 0.59 0.73286 0.0
C5794 C 0.98141 0.59525 0.73896 0.0
C5795 C 0.99605 0.59583 0.72059 0.0
C5796 C 0.00346 0.59031 0.71327 0.0
C5797 C 0.99652 0.57657 0.70897 0.0
C5798 C 0.00359 0.57139 0.70221 0.0
C5799 C 0.01759 0.57988 0.69958 0.0
C5800 C 0.02453 0.59358 0.70368 0.0
C5801 C 0.0175 0.5988 0.71047 0.0
H5802 H 0.02305 0.57586 0.69435 0.0
H5803 H 0.95444 0.62625 0.75985 0.0
H5804 H 0.37544 0.35461 0.71966 0.0
H5805 H 0.38264 0.37707 0.72944 0.0
H5806 H 0.3653 0.38542 0.6938 0.0
H5807 H 0.35769 0.3628 0.68408 0.0
H5808 H 0.39584 0.40715 0.70599 0.0
H5809 H 0.34677 0.38003 0.71517 0.0
H5810 H 0.326 0.35942 0.72334 0.0
H5811 H 0.34507 0.36525 0.76352 0.0
H5812 H 0.36605 0.38579 0.7555 0.0
H5813 H 0.40239 0.46702 0.73564 0.0
H5814 H 0.39324 0.44561 0.7225 0.0
H5815 H 0.39164 0.4251 0.76017 0.0
H5816 H 0.40042 0.44631 0.77332 0.0
H5817 H 0.36949 0.40962 0.74508 0.0
H5818 H 0.41806 0.43555 0.73725 0.0
H5819 H 0.44006 0.45544 0.73019 0.0
H5820 H 0.42376 0.45145 0.68891 0.0
H5821 H 0.40158 0.43163 0.69579 0.0
C5822 C 0.37326 0.36127 0.71384 0.0
C5823 C 0.36597 0.35695 0.70113 0.0
C5824 C 0.37735 0.37405 0.71945 0.0
C5825 C 0.37445 0.3828 0.71231 0.0
C5826 C 0.36761 0.37875 0.69941 0.0
C5827 C 0.36325 0.36585 0.69392 0.0
C5828 C 0.37813 0.39596 0.71869 0.0
C5829 C 0.38997 0.4078 0.71436 0.0
C5830 C 0.37064 0.39661 0.72982 0.0
C5831 C 0.35802 0.38434 0.73469 0.0
C5832 C 0.34658 0.37683 0.7257 0.0
C5833 C 0.33476 0.36519 0.73032 0.0
C5834 C 0.33423 0.361 0.74393 0.0
C5835 C 0.34551 0.36849 0.75297 0.0
C5836 C 0.35735 0.38014 0.7484 0.0
C5837 C 0.40002 0.45791 0.74108 0.0
C5838 C 0.40233 0.45836 0.75545 0.0
C5839 C 0.39484 0.44571 0.73358 0.0
C5840 C 0.39197 0.4338 0.74033 0.0
C5841 C 0.39382 0.43416 0.75474 0.0
C5842 C 0.39889 0.44629 0.76223 0.0
C5843 C 0.38731 0.42098 0.73245 0.0
C5844 C 0.3753 0.40912 0.73656 0.0
C5845 C 0.3948 0.4203 0.72124 0.0
C5846 C 0.40811 0.43221 0.71708 0.0
C5847 C 0.41913 0.43898 0.7267 0.0
C5848 C 0.43163 0.45023 0.72273 0.0
C5849 C 0.43329 0.45473 0.70912 0.0
C5850 C 0.42245 0.44797 0.69946 0.0
C5851 C 0.40991 0.43672 0.70338 0.0
H5852 H 0.44299 0.46344 0.70607 0.0
H5853 H 0.32507 0.35198 0.74749 0.0
H5854 H 0.65063 0.04066 0.68849 0.0
H5855 H 0.62907 0.0323 0.70052 0.0
H5856 H 0.62642 0.99414 0.70744 0.0
H5857 H 0.64759 0.00222 0.69459 0.0
H5858 H 0.60232 0.98886 0.70263 0.0
H5859 H 0.63786 0.02047 0.7334 0.0
H5860 H 0.65853 0.04213 0.74092 0.0
H5861 H 0.63728 0.06311 0.73353 0.0
H5862 H 0.61652 0.04161 0.72579 0.0
H5863 H 0.54992 0.97086 0.75213 0.0
H5864 H 0.5728 0.97798 0.74347 0.0
H5865 H 0.5755 0.01333 0.72554 0.0
H5866 H 0.55269 0.00626 0.73412 0.0
H5867 H 0.60022 0.01875 0.7384 0.0
H5868 H 0.56491 0.9855 0.70609 0.0
H5869 H 0.54456 0.96293 0.70036 0.0
H5870 H 0.56647 0.94388 0.71344 0.0
H5871 H 0.58689 0.96634 0.71944 0.0
C5872 C 0.64536 0.03044 0.69248 0.0
C5873 C 0.65079 0.0221 0.69069 0.0
C5874 C 0.6331 0.02571 0.69947 0.0
C5875 C 0.6263 0.01273 0.70531 0.0
C5876 C 0.6315 0.00422 0.70314 0.0
C5877 C 0.64359 0.00883 0.69579 0.0
C5878 C 0.61379 0.00811 0.71365 0.0
C5879 C 0.60199 0.99534 0.71061 0.0
C5880 C 0.61325 0.01648 0.72413 0.0
C5881 C 0.62566 0.02943 0.72892 0.0
C5882 C 0.63761 0.02972 0.73331 0.0
C5883 C 0.64935 0.04197 0.73762 0.0
C5884 C 0.64923 0.05399 0.73768 0.0
C5885 C 0.63736 0.05379 0.73347 0.0
C5886 C 0.6256 0.04157 0.72914 0.0
C5887 C 0.55552 0.98025 0.74652 0.0
C5888 C 0.54955 0.98801 0.74378 0.0
C5889 C 0.56853 0.98428 0.74156 0.0
C5890 C 0.57576 0.99611 0.73376 0.0
C5891 C 0.57009 0.00417 0.73154 0.0
C5892 C 0.55706 0.00012 0.73643 0.0
C5893 C 0.58884 -0.00027 0.72712 0.0
C5894 C 0.60071 0.01229 0.73051 0.0
C5895 C 0.58954 0.99103 0.71723 0.0
C5896 C 0.57737 0.97758 0.71332 0.0
C5897 C 0.56536 0.97649 0.70781 0.0
C5898 C 0.55381 0.96372 0.70451 0.0
C5899 C 0.55421 0.95197 0.70656 0.0
C5900 C 0.56617 0.95298 0.71187 0.0
C5901 C 0.57773 0.96573 0.71521 0.0
H5902 H 0.54526 0.94209 0.70402 0.0
H5903 H 0.65832 0.06347 0.74101 0.0
loop_
_geom_bond_atom_site_label_1
_geom_bond_atom_site_label_2
_geom_bond_distance
_geom_bond_site_symmetry_2
_ccdc_geom_bond_type
Zn0 O3 2.031 1_554 S
Zn0 O5 2.049 . S
Zn0 O10 2.070 1_554 S
Zn1 O2 1.962 1_455 S
Zn1 O4 1.986 . S
Zn1 O6 1.996 1_455 S
Zn1 O9 1.943 . S
O2 Zn1 1.962 1_655 S
O2 C7 1.258 1_554 S
O3 Zn0 2.031 1_556 S
O3 C7 1.268 . S
O4 Zn1 1.986 . S
O4 C11 1.262 . S
O5 Zn0 2.049 . S
O5 C13 1.260 . S
O6 Zn1 1.996 1_655 S
O6 C13 1.257 . S
C7 O2 1.258 1_556 S
C7 O3 1.268 . S
C8 O9 1.249 1_556 S
C8 O10 1.265 1_455 S
O9 Zn1 1.943 . S
O9 C8 1.249 1_554 S
O10 Zn0 2.070 1_556 S
O10 C8 1.265 1_655 S
C11 O4 1.262 . S
C11 O12 1.232 . S
O12 C11 1.232 . S
C13 O5 1.260 . S
C13 O6 1.257 . S
Zn14 O17 2.031 . S
Zn14 O19 2.049 . S
Zn14 O24 2.067 . S
Zn15 O16 1.962 . S
Zn15 O18 1.986 . S
Zn15 O20 1.996 . S
Zn15 O23 1.943 . S
O16 Zn15 1.962 . S
O16 C21 1.254 . S
O17 Zn14 2.031 . S
O17 C21 1.269 . S
O18 Zn15 1.986 . S
O18 C25 1.262 . S
O19 Zn14 2.049 . S
O19 C27 1.260 . S
O20 Zn15 1.996 . S
O20 C27 1.257 . S
C21 O16 1.254 . S
C21 O17 1.269 . S
C22 O23 1.249 . S
C22 O24 1.270 . S
O23 Zn15 1.943 . S
O23 C22 1.249 . S
O24 Zn14 2.067 . S
O24 C22 1.270 . S
C25 O18 1.262 . S
C25 O26 1.232 . S
O26 C25 1.232 . S
C27 O19 1.260 . S
C27 O20 1.257 . S
Zn28 O31 2.031 . S
Zn28 O33 2.049 1_554 S
Zn28 O38 2.067 1_565 S
Zn29 O30 1.962 1_545 S
Zn29 O32 1.986 1_554 S
Zn29 O34 1.995 1_544 S
Zn29 O37 1.943 . S
O30 Zn29 1.962 1_565 S
O30 C35 1.254 . S
O31 Zn28 2.031 . S
O31 C35 1.269 . S
O32 Zn29 1.986 1_556 S
O32 C39 1.301 . S
O33 Zn28 2.049 1_556 S
O33 C41 1.260 . S
O34 Zn29 1.995 1_566 S
O34 C41 1.258 . S
C35 O30 1.254 . S
C35 O31 1.269 . S
C36 O37 1.249 . S
C36 O38 1.270 . S
O37 Zn29 1.943 . S
O37 C36 1.249 . S
O38 Zn28 2.067 1_545 S
O38 C36 1.270 . S
C39 O32 1.301 . S
C39 O40 1.166 1_556 S
O40 C39 1.166 1_554 S
C41 O33 1.260 . S
C41 O34 1.258 . S
Zn42 O45 2.031 . S
Zn42 O47 2.049 . S
Zn42 O52 2.067 . S
Zn43 O44 1.962 1_655 S
Zn43 O46 1.986 1_554 S
Zn43 O48 1.996 1_654 S
Zn43 O51 1.943 . S
O44 Zn43 1.962 1_455 S
O44 C49 1.254 . S
O45 Zn42 2.031 . S
O45 C49 1.269 . S
O46 Zn43 1.986 1_556 S
O46 C53 1.262 1_556 S
O47 Zn42 2.049 . S
O47 C55 1.260 1_554 S
O48 Zn43 1.996 1_456 S
O48 C55 1.257 . S
C49 O44 1.254 . S
C49 O45 1.269 . S
C50 O51 1.249 . S
C50 O52 1.270 1_655 S
O51 Zn43 1.943 . S
O51 C50 1.249 . S
O52 Zn42 2.067 . S
O52 C50 1.270 1_455 S
C53 O46 1.262 1_554 S
C53 O54 1.232 . S
O54 C53 1.232 . S
C55 O47 1.260 1_556 S
C55 O48 1.257 . S
Zn56 O59 2.031 . S
Zn56 O61 2.049 1_554 S
Zn56 O66 2.067 . S
Zn57 O58 1.962 . S
Zn57 O60 1.986 1_554 S
Zn57 O62 1.996 1_554 S
Zn57 O65 1.943 . S
O58 Zn57 1.962 . S
O58 C63 1.254 . S
O59 Zn56 2.031 . S
O59 C63 1.269 . S
O60 Zn57 1.986 1_556 S
O60 C67 1.262 . S
O61 Zn56 2.049 1_556 S
O61 C69 1.260 . S
O62 Zn57 1.996 1_556 S
O62 C69 1.257 . S
C63 O58 1.254 . S
C63 O59 1.269 . S
C64 O65 1.249 . S
C64 O66 1.270 . S
O65 Zn57 1.943 . S
O65 C64 1.249 . S
O66 Zn56 2.067 . S
O66 C64 1.270 . S
C67 O60 1.262 . S
C67 O68 1.232 1_556 S
O68 C67 1.232 1_554 S
C69 O61 1.260 . S
C69 O62 1.257 . S
Zn70 O73 2.031 . S
Zn70 O75 2.049 . S
Zn70 O80 2.067 . S
Zn71 O72 1.962 1_565 S
Zn71 O74 1.986 . S
Zn71 O76 1.996 1_565 S
Zn71 O79 1.943 . S
O72 Zn71 1.962 1_545 S
O72 C77 1.254 . S
O73 Zn70 2.031 . S
O73 C77 1.269 . S
O74 Zn71 1.986 . S
O74 C81 1.262 . S
O75 Zn70 2.049 . S
O75 C83 1.260 . S
O76 Zn71 1.996 1_545 S
O76 C83 1.257 . S
C77 O72 1.254 . S
C77 O73 1.269 . S
C78 O79 1.252 . S
C78 O80 1.272 1_565 S
O79 Zn71 1.943 . S
O79 C78 1.252 . S
O80 Zn70 2.067 . S
O80 C78 1.272 1_545 S
C81 O74 1.262 . S
C81 O82 1.232 . S
O82 C81 1.232 . S
C83 O75 1.260 . S
C83 O76 1.257 . S
Zn84 O87 2.031 . S
Zn84 O89 2.049 . S
Zn84 O94 2.067 . S
Zn85 O86 1.962 . S
Zn85 O88 1.986 . S
Zn85 O90 1.996 . S
Zn85 O93 1.943 . S
O86 Zn85 1.962 . S
O86 C91 1.254 . S
O87 Zn84 2.031 . S
O87 C91 1.269 . S
O88 Zn85 1.986 . S
O88 C95 1.262 . S
O89 Zn84 2.049 . S
O89 C97 1.260 . S
O90 Zn85 1.996 . S
O90 C97 1.257 . S
C91 O86 1.254 . S
C91 O87 1.269 . S
C92 O93 1.249 . S
C92 O94 1.270 . S
O93 Zn85 1.943 . S
O93 C92 1.249 . S
O94 Zn84 2.067 . S
O94 C92 1.270 . S
C95 O88 1.262 . S
C95 O96 1.232 . S
O96 C95 1.232 . S
C97 O89 1.260 . S
C97 O90 1.257 . S
Zn98 O101 2.031 . S
Zn98 O103 2.049 . S
Zn98 O108 2.067 . S
Zn99 O100 1.962 . S
Zn99 O102 1.986 1_565 S
Zn99 O104 1.996 . S
Zn99 O107 1.943 . S
O100 Zn99 1.962 . S
O100 C105 1.254 . S
O101 Zn98 2.031 . S
O101 C105 1.269 . S
O102 Zn99 1.986 1_545 S
O102 C109 1.262 . S
O103 Zn98 2.049 . S
O103 C111 1.260 . S
O104 Zn99 1.996 . S
O104 C111 1.257 . S
C105 O100 1.254 . S
C105 O101 1.269 . S
C106 O107 1.249 . S
C106 O108 1.270 . S
O107 Zn99 1.943 . S
O107 C106 1.249 . S
O108 Zn98 2.067 . S
O108 C106 1.270 . S
C109 O102 1.262 . S
C109 O110 1.232 . S
O110 C109 1.232 . S
C111 O103 1.260 . S
C111 O104 1.257 . S
Zn112 O115 2.031 . S
Zn112 O117 2.049 . S
Zn112 O122 2.067 . S
Zn113 O114 1.962 . S
Zn113 O116 1.986 . S
Zn113 O118 1.996 . S
Zn113 O121 1.943 . S
O114 Zn113 1.962 . S
O114 C119 1.254 . S
O115 Zn112 2.031 . S
O115 C119 1.269 . S
O116 Zn113 1.986 . S
O116 C123 1.262 . S
O117 Zn112 2.049 . S
O117 C125 1.260 . S
O118 Zn113 1.996 . S
O118 C125 1.257 . S
C119 O114 1.254 . S
C119 O115 1.269 . S
C120 O121 1.249 . S
C120 O122 1.270 . S
O121 Zn113 1.943 . S
O121 C120 1.249 . S
O122 Zn112 2.067 . S
O122 C120 1.270 . S
C123 O116 1.262 . S
C123 O124 1.232 . S
O124 C123 1.232 . S
C125 O117 1.260 . S
C125 O118 1.257 . S
Zn126 O129 2.031 . S
Zn126 O131 2.049 . S
Zn126 O136 2.067 . S
Zn127 O128 1.962 1_565 S
Zn127 O130 1.986 . S
Zn127 O132 1.996 . S
Zn127 O135 1.943 . S
O128 Zn127 1.962 1_545 S
O128 C133 1.254 . S
O129 Zn126 2.031 . S
O129 C133 1.269 1_565 S
O130 Zn127 1.986 . S
O130 C137 1.262 . S
O131 Zn126 2.049 . S
O131 C139 1.260 . S
O132 Zn127 1.996 . S
O132 C139 1.257 . S
C133 O128 1.254 . S
C133 O129 1.269 1_545 S
C134 O135 1.249 . S
C134 O136 1.270 . S
O135 Zn127 1.943 . S
O135 C134 1.249 . S
O136 Zn126 2.067 . S
O136 C134 1.270 . S
C137 O130 1.262 . S
C137 O138 1.232 . S
O138 C137 1.232 . S
C139 O131 1.260 . S
C139 O132 1.257 . S
Zn140 O143 2.031 . S
Zn140 O145 2.049 . S
Zn140 O150 2.067 . S
Zn141 O142 1.962 1_455 S
Zn141 O144 1.986 . S
Zn141 O146 1.996 . S
Zn141 O149 1.943 . S
O142 Zn141 1.962 1_655 S
O142 C147 1.254 . S
O143 Zn140 2.031 . S
O143 C147 1.269 1_455 S
O144 Zn141 1.986 . S
O144 C151 1.262 . S
O145 Zn140 2.049 . S
O145 C153 1.260 . S
O146 Zn141 1.996 . S
O146 C153 1.257 . S
C147 O142 1.254 . S
C147 O143 1.269 1_655 S
C148 O149 1.249 . S
C148 O150 1.270 . S
O149 Zn141 1.943 . S
O149 C148 1.249 . S
O150 Zn140 2.067 . S
O150 C148 1.270 . S
C151 O144 1.262 . S
C151 O152 1.232 . S
O152 C151 1.232 . S
C153 O145 1.260 . S
C153 O146 1.257 . S
Zn154 O157 2.031 . S
Zn154 O159 2.049 . S
Zn154 O164 2.067 . S
Zn155 O156 1.962 . S
Zn155 O158 1.986 . S
Zn155 O160 1.996 . S
Zn155 O163 1.943 . S
O156 Zn155 1.962 . S
O156 C161 1.254 . S
O157 Zn154 2.031 . S
O157 C161 1.269 . S
O158 Zn155 1.986 . S
O158 C165 1.262 . S
O159 Zn154 2.049 . S
O159 C167 1.260 . S
O160 Zn155 1.996 . S
O160 C167 1.257 . S
C161 O156 1.254 . S
C161 O157 1.269 . S
C162 O163 1.249 . S
C162 O164 1.270 . S
O163 Zn155 1.943 . S
O163 C162 1.249 . S
O164 Zn154 2.067 . S
O164 C162 1.270 . S
C165 O158 1.262 . S
C165 O166 1.232 . S
O166 C165 1.232 . S
C167 O159 1.260 . S
C167 O160 1.257 . S
Zn168 O171 2.031 . S
Zn168 O173 2.049 . S
Zn168 O178 2.067 . S
Zn169 O170 2.025 . S
Zn169 O172 1.986 . S
Zn169 O174 1.996 . S
Zn169 O177 1.943 . S
O170 Zn169 2.025 . S
O170 C175 1.273 . S
O171 Zn168 2.031 . S
O171 C175 1.296 . S
O172 Zn169 1.986 . S
O172 C179 1.262 . S
O173 Zn168 2.049 . S
O173 C181 1.260 . S
O174 Zn169 1.996 . S
O174 C181 1.257 . S
C175 O170 1.273 . S
C175 O171 1.296 . S
C176 O177 1.249 . S
C176 O178 1.270 . S
O177 Zn169 1.943 . S
O177 C176 1.249 . S
O178 Zn168 2.067 . S
O178 C176 1.270 . S
C179 O172 1.262 . S
C179 O180 1.232 . S
O180 C179 1.232 . S
C181 O173 1.260 . S
C181 O174 1.257 . S
Zn182 O185 2.031 . S
Zn182 O187 2.049 . S
Zn182 O192 2.067 . S
Zn183 O184 1.962 1_655 S
Zn183 O186 1.986 . S
Zn183 O188 1.996 . S
Zn183 O191 1.943 . S
O184 Zn183 1.962 1_455 S
O184 C189 1.254 . S
O185 Zn182 2.031 . S
O185 C189 1.269 1_655 S
O186 Zn183 1.986 . S
O186 C193 1.262 . S
O187 Zn182 2.049 . S
O187 C195 1.260 . S
O188 Zn183 1.996 . S
O188 C195 1.257 . S
C189 O184 1.254 . S
C189 O185 1.269 1_455 S
C190 O191 1.249 . S
C190 O192 1.270 . S
O191 Zn183 1.943 . S
O191 C190 1.249 . S
O192 Zn182 2.067 . S
O192 C190 1.270 . S
C193 O186 1.262 . S
C193 O194 1.232 . S
O194 C193 1.232 . S
C195 O187 1.260 . S
C195 O188 1.257 . S
Zn196 O199 2.031 . S
Zn196 O201 2.049 . S
Zn196 O206 2.067 . S
Zn197 O198 1.962 . S
Zn197 O200 1.986 . S
Zn197 O202 1.996 . S
Zn197 O205 1.943 . S
O198 Zn197 1.962 . S
O198 C203 1.254 . S
O199 Zn196 2.031 . S
O199 C203 1.269 . S
O200 Zn197 1.986 . S
O200 C207 1.262 . S
O201 Zn196 2.049 . S
O201 C209 1.260 . S
O202 Zn197 1.996 . S
O202 C209 1.257 . S
C203 O198 1.254 . S
C203 O199 1.269 . S
C204 O205 1.249 . S
C204 O206 1.270 . S
O205 Zn197 1.943 . S
O205 C204 1.249 . S
O206 Zn196 2.067 . S
O206 C204 1.270 . S
C207 O200 1.262 . S
C207 O208 1.232 . S
O208 C207 1.232 . S
C209 O201 1.260 . S
C209 O202 1.257 . S
Zn210 O213 2.031 . S
Zn210 O215 2.049 . S
Zn210 O220 2.067 . S
Zn211 O212 1.962 . S
Zn211 O214 1.986 . S
Zn211 O216 1.996 . S
Zn211 O219 1.943 . S
O212 Zn211 1.962 . S
O212 C217 1.254 . S
O213 Zn210 2.031 . S
O213 C217 1.269 . S
O214 Zn211 1.986 . S
O214 C221 1.262 . S
O215 Zn210 2.049 . S
O215 C223 1.260 . S
O216 Zn211 1.996 . S
O216 C223 1.257 . S
C217 O212 1.254 . S
C217 O213 1.269 . S
C218 O219 1.249 . S
C218 O220 1.270 . S
O219 Zn211 1.943 . S
O219 C218 1.249 . S
O220 Zn210 2.067 . S
O220 C218 1.270 . S
C221 O214 1.262 . S
C221 O222 1.232 . S
O222 C221 1.232 . S
C223 O215 1.260 . S
C223 O216 1.257 . S
Zn224 O227 2.031 . S
Zn224 O229 2.049 . S
Zn224 O234 2.067 . S
Zn225 O226 1.962 . S
Zn225 O228 1.986 . S
Zn225 O230 1.996 . S
Zn225 O233 1.943 . S
O226 Zn225 1.962 . S
O226 C231 1.254 . S
O227 Zn224 2.031 . S
O227 C231 1.269 . S
O228 Zn225 1.986 . S
O228 C235 1.262 1_545 S
O229 Zn224 2.049 . S
O229 C237 1.260 . S
O230 Zn225 1.996 . S
O230 C237 1.257 . S
C231 O226 1.254 . S
C231 O227 1.269 . S
C232 O233 1.249 . S
C232 O234 1.270 . S
O233 Zn225 1.943 . S
O233 C232 1.249 . S
O234 Zn224 2.067 . S
O234 C232 1.270 . S
C235 O228 1.262 1_565 S
C235 O236 1.232 . S
O236 C235 1.232 . S
C237 O229 1.260 . S
C237 O230 1.257 . S
Zn238 O241 2.031 . S
Zn238 O243 2.049 . S
Zn238 O248 2.067 . S
Zn239 O240 1.911 1_655 S
Zn239 O242 1.986 . S
Zn239 O244 1.996 . S
Zn239 O247 1.943 . S
O240 Zn239 1.911 1_455 S
O240 C245 1.236 . S
O241 Zn238 2.031 . S
O241 C245 1.269 1_655 S
O242 Zn239 1.986 . S
O242 C249 1.262 . S
O243 Zn238 2.049 . S
O243 C251 1.260 . S
O244 Zn239 1.996 . S
O244 C251 1.257 . S
C245 O240 1.236 . S
C245 O241 1.269 1_455 S
C246 O247 1.249 . S
C246 O248 1.270 . S
O247 Zn239 1.943 . S
O247 C246 1.249 . S
O248 Zn238 2.067 . S
O248 C246 1.270 . S
C249 O242 1.262 . S
C249 O250 1.232 . S
O250 C249 1.232 . S
C251 O243 1.260 . S
C251 O244 1.257 . S
C252 C253 1.560 . S
C252 H313 0.959 . S
C252 H314 0.959 . S
C252 H315 0.960 . S
C253 C252 1.560 . S
C253 O308 1.426 . S
C253 H312 0.980 . S
C254 C255 1.407 . S
C254 C259 1.418 . S
C254 O308 1.334 . S
C255 C254 1.407 . S
C255 C256 1.360 . S
C255 H316 0.929 . S
C256 C255 1.360 . S
C256 C257 1.401 . S
C256 C260 1.527 . S
C257 C256 1.401 . S
C257 C258 1.405 . S
C257 C290 1.587 . S
C258 C257 1.405 . S
C258 C259 1.332 . S
C258 C261 1.496 . S
C259 C254 1.418 . S
C259 C258 1.332 . S
C259 H317 0.929 . S
C260 C256 1.527 . S
C260 H318 0.959 . S
C260 H319 0.961 . S
C260 H320 0.961 . S
C261 C258 1.496 . S
C261 H321 0.960 . S
C261 H322 0.960 . S
C261 H323 0.961 . S
C262 C263 1.517 . S
C262 H325 0.961 . S
C262 H326 0.960 . S
C262 H327 0.959 . S
C263 C262 1.517 . S
C263 O311 1.468 . S
C263 H324 0.980 . S
C264 C265 1.349 . S
C264 C269 1.367 . S
C264 O311 1.408 . S
C265 C264 1.349 . S
C265 C266 1.407 . S
C265 H328 0.930 . S
C266 C265 1.407 . S
C266 C267 1.449 . S
C266 C270 1.535 . S
C267 C266 1.449 . S
C267 C268 1.384 . S
C267 C292 1.553 . S
C268 C267 1.384 . S
C268 C269 1.364 . S
C268 C271 1.450 . S
C269 C264 1.367 . S
C269 C268 1.364 . S
C269 H329 0.931 . S
C270 C266 1.535 . S
C270 H330 0.959 . S
C270 H331 0.961 . S
C270 H332 0.959 . S
C271 C268 1.450 . S
C271 H333 0.960 . S
C271 H334 0.960 . S
C271 H335 0.960 . S
C272 C273 1.309 . S
C272 C277 1.304 . S
C272 O310 1.435 . S
C273 C272 1.309 . S
C273 C274 1.476 . S
C273 H337 0.930 . S
C274 C273 1.476 . S
C274 C275 1.400 . S
C274 C278 1.567 . S
C275 C274 1.400 . S
C275 C276 1.373 . S
C275 C297 1.432 . S
C276 C275 1.373 . S
C276 C277 1.339 . S
C276 C279 1.530 . S
C277 C272 1.304 . S
C277 C276 1.339 . S
C277 H338 0.930 . S
C278 C274 1.567 . S
C278 H339 0.961 . S
C278 H340 0.960 . S
C278 H341 0.958 . S
C279 C276 1.530 . S
C279 H342 0.961 . S
C279 H343 0.960 . S
C279 H344 0.960 . S
C280 C281 1.530 . S
C280 H346 0.961 . S
C280 H347 0.961 . S
C280 H348 0.959 . S
C281 C280 1.530 . S
C281 O309 1.412 . S
C281 H345 0.980 . S
C282 C283 1.288 . S
C282 C287 1.377 . S
C282 O309 1.393 . S
C283 C282 1.288 . S
C283 C284 1.369 . S
C283 H349 0.932 . S
C284 C283 1.369 . S
C284 C285 1.398 . S
C284 C288 1.527 . S
C285 C284 1.398 . S
C285 C286 1.380 . S
C285 C299 1.497 . S
C286 C285 1.380 . S
C286 C287 1.383 . S
C286 C289 1.603 . S
C287 C282 1.377 . S
C287 C286 1.383 . S
C287 H350 0.929 . S
C288 C284 1.527 . S
C288 H351 0.961 . S
C288 H352 0.959 . S
C288 H353 0.959 . S
C289 C286 1.603 . S
C289 H354 0.960 . S
C289 H355 0.962 . S
C289 H356 0.961 . S
C290 C257 1.587 . S
C290 C291 1.360 . S
C290 C303 1.412 . S
C291 C290 1.360 . S
C291 C292 1.365 . S
C291 H357 0.929 . S
C292 C267 1.553 . S
C292 C291 1.365 . S
C292 C293 1.404 . S
C293 C292 1.404 . S
C293 C294 1.395 . S
C293 C304 1.451 . S
C294 C293 1.395 . S
C294 C295 1.322 . S
C294 H358 0.930 . S
C295 C294 1.322 . S
C295 C296 1.459 . S
C295 H359 0.929 . S
C296 C295 1.459 . S
C296 C297 1.445 . S
C296 C305 1.395 . S
C297 C275 1.432 . S
C297 C296 1.445 . S
C297 C298 1.370 . S
C298 C297 1.370 . S
C298 C299 1.438 . S
C298 H360 0.930 . S
C299 C285 1.497 . S
C299 C298 1.438 . S
C299 C300 1.360 . S
C300 C299 1.360 . S
C300 C301 1.401 . S
C300 C305 1.446 . S
C301 C300 1.401 . S
C301 C302 1.347 . S
C301 H361 0.929 . S
C302 C301 1.347 . S
C302 C303 1.455 . S
C302 H362 0.930 . S
C303 C290 1.412 . S
C303 C302 1.455 . S
C303 C304 1.331 . S
C304 C293 1.451 . S
C304 C303 1.331 . S
C304 C305 1.497 . S
C305 C296 1.395 . S
C305 C300 1.446 . S
C305 C304 1.497 . S
C306 C307 1.582 . S
C306 H363 0.962 . S
C306 H364 0.959 . S
C306 H365 0.958 . S
C307 C306 1.582 . S
C307 O310 1.458 . S
C307 H336 0.980 . S
O308 C253 1.426 . S
O308 C254 1.334 . S
O309 C281 1.412 . S
O309 C282 1.393 . S
O310 C272 1.435 . S
O310 C307 1.458 . S
O311 C263 1.468 . S
O311 C264 1.408 . S
H312 C253 0.980 . S
H313 C252 0.959 . S
H314 C252 0.959 . S
H315 C252 0.960 . S
H316 C255 0.929 . S
H317 C259 0.929 . S
H318 C260 0.959 . S
H319 C260 0.961 . S
H320 C260 0.961 . S
H321 C261 0.960 . S
H322 C261 0.960 . S
H323 C261 0.961 . S
H324 C263 0.980 . S
H325 C262 0.961 . S
H326 C262 0.960 . S
H327 C262 0.959 . S
H328 C265 0.930 . S
H329 C269 0.931 . S
H330 C270 0.959 . S
H331 C270 0.961 . S
H332 C270 0.959 . S
H333 C271 0.960 . S
H334 C271 0.960 . S
H335 C271 0.960 . S
H336 C307 0.980 . S
H337 C273 0.930 . S
H338 C277 0.930 . S
H339 C278 0.961 . S
H340 C278 0.960 . S
H341 C278 0.958 . S
H342 C279 0.961 . S
H343 C279 0.960 . S
H344 C279 0.960 . S
H345 C281 0.980 . S
H346 C280 0.961 . S
H347 C280 0.961 . S
H348 C280 0.959 . S
H349 C283 0.932 . S
H350 C287 0.929 . S
H351 C288 0.961 . S
H352 C288 0.959 . S
H353 C288 0.959 . S
H354 C289 0.960 . S
H355 C289 0.962 . S
H356 C289 0.961 . S
H357 C291 0.929 . S
H358 C294 0.930 . S
H359 C295 0.929 . S
H360 C298 0.930 . S
H361 C301 0.929 . S
H362 C302 0.930 . S
H363 C306 0.962 . S
H364 C306 0.959 . S
H365 C306 0.958 . S
C366 C367 1.560 . S
C366 H427 0.959 . S
C366 H428 0.959 . S
C366 H429 0.960 . S
C367 C366 1.560 . S
C367 O422 1.426 . S
C367 H426 0.980 . S
C368 C369 1.407 . S
C368 C373 1.418 . S
C368 O422 1.334 . S
C369 C368 1.407 . S
C369 C370 1.360 . S
C369 H430 0.929 . S
C370 C369 1.360 . S
C370 C371 1.401 . S
C370 C374 1.527 . S
C371 C370 1.401 . S
C371 C372 1.405 . S
C371 C404 1.587 . S
C372 C371 1.405 . S
C372 C373 1.332 . S
C372 C375 1.496 . S
C373 C368 1.418 . S
C373 C372 1.332 . S
C373 H431 0.929 . S
C374 C370 1.527 . S
C374 H432 0.959 . S
C374 H433 0.961 . S
C374 H434 0.961 . S
C375 C372 1.496 . S
C375 H435 0.960 . S
C375 H436 0.960 . S
C375 H437 0.961 . S
C376 C377 1.517 . S
C376 H439 0.961 . S
C376 H440 0.960 . S
C376 H441 0.959 . S
C377 C376 1.517 . S
C377 O425 1.468 . S
C377 H438 0.980 . S
C378 C379 1.349 . S
C378 C383 1.367 . S
C378 O425 1.408 . S
C379 C378 1.349 . S
C379 C380 1.407 . S
C379 H442 0.930 . S
C380 C379 1.407 . S
C380 C381 1.449 . S
C380 C384 1.535 . S
C381 C380 1.449 . S
C381 C382 1.384 . S
C381 C406 1.553 . S
C382 C381 1.384 . S
C382 C383 1.364 . S
C382 C385 1.450 . S
C383 C378 1.367 . S
C383 C382 1.364 . S
C383 H443 0.931 . S
C384 C380 1.535 . S
C384 H444 0.959 . S
C384 H445 0.961 . S
C384 H446 0.959 . S
C385 C382 1.450 . S
C385 H447 0.960 . S
C385 H448 0.960 . S
C385 H449 0.960 . S
C386 C387 1.309 . S
C386 C391 1.304 . S
C386 O424 1.435 . S
C387 C386 1.309 . S
C387 C388 1.476 . S
C387 H451 0.930 . S
C388 C387 1.476 . S
C388 C389 1.400 . S
C388 C392 1.567 . S
C389 C388 1.400 . S
C389 C390 1.373 . S
C389 C411 1.432 . S
C390 C389 1.373 . S
C390 C391 1.339 . S
C390 C393 1.530 . S
C391 C386 1.304 . S
C391 C390 1.339 . S
C391 H452 0.930 . S
C392 C388 1.567 . S
C392 H453 0.961 . S
C392 H454 0.960 . S
C392 H455 0.958 . S
C393 C390 1.530 . S
C393 H456 0.961 . S
C393 H457 0.960 . S
C393 H458 0.960 . S
C394 C395 1.530 . S
C394 H460 0.961 . S
C394 H461 0.961 . S
C394 H462 0.959 . S
C395 C394 1.530 . S
C395 O423 1.412 . S
C395 H459 0.980 . S
C396 C397 1.288 . S
C396 C401 1.377 . S
C396 O423 1.393 . S
C397 C396 1.288 . S
C397 C398 1.369 . S
C397 H463 0.932 . S
C398 C397 1.369 . S
C398 C399 1.398 . S
C398 C402 1.527 . S
C399 C398 1.398 . S
C399 C400 1.380 . S
C399 C413 1.497 . S
C400 C399 1.380 . S
C400 C401 1.383 . S
C400 C403 1.603 . S
C401 C396 1.377 . S
C401 C400 1.383 . S
C401 H464 0.929 . S
C402 C398 1.527 . S
C402 H465 0.961 . S
C402 H466 0.959 . S
C402 H467 0.959 . S
C403 C400 1.603 . S
C403 H468 0.960 . S
C403 H469 0.962 . S
C403 H470 0.961 . S
C404 C371 1.587 . S
C404 C405 1.360 . S
C404 C417 1.412 . S
C405 C404 1.360 . S
C405 C406 1.365 . S
C405 H471 0.929 . S
C406 C381 1.553 . S
C406 C405 1.365 . S
C406 C407 1.404 . S
C407 C406 1.404 . S
C407 C408 1.395 . S
C407 C418 1.451 . S
C408 C407 1.395 . S
C408 C409 1.322 . S
C408 H472 0.930 . S
C409 C408 1.322 . S
C409 C410 1.459 . S
C409 H473 0.929 . S
C410 C409 1.459 . S
C410 C411 1.445 . S
C410 C419 1.395 . S
C411 C389 1.432 . S
C411 C410 1.445 . S
C411 C412 1.370 . S
C412 C411 1.370 . S
C412 C413 1.438 . S
C412 H474 0.930 . S
C413 C399 1.497 . S
C413 C412 1.438 . S
C413 C414 1.360 . S
C414 C413 1.360 . S
C414 C415 1.401 . S
C414 C419 1.446 . S
C415 C414 1.401 . S
C415 C416 1.347 . S
C415 H475 0.929 . S
C416 C415 1.347 . S
C416 C417 1.455 . S
C416 H476 0.930 . S
C417 C404 1.412 . S
C417 C416 1.455 . S
C417 C418 1.331 . S
C418 C407 1.451 . S
C418 C417 1.331 . S
C418 C419 1.497 . S
C419 C410 1.395 . S
C419 C414 1.446 . S
C419 C418 1.497 . S
C420 C421 1.582 . S
C420 H477 0.962 . S
C420 H478 0.959 . S
C420 H479 0.958 . S
C421 C420 1.582 . S
C421 O424 1.458 . S
C421 H450 0.980 . S
O422 C367 1.426 . S
O422 C368 1.334 . S
O423 C395 1.412 . S
O423 C396 1.393 . S
O424 C386 1.435 . S
O424 C421 1.458 . S
O425 C377 1.468 . S
O425 C378 1.408 . S
H426 C367 0.980 . S
H427 C366 0.959 . S
H428 C366 0.959 . S
H429 C366 0.960 . S
H430 C369 0.929 . S
H431 C373 0.929 . S
H432 C374 0.959 . S
H433 C374 0.961 . S
H434 C374 0.961 . S
H435 C375 0.960 . S
H436 C375 0.960 . S
H437 C375 0.961 . S
H438 C377 0.980 . S
H439 C376 0.961 . S
H440 C376 0.960 . S
H441 C376 0.959 . S
H442 C379 0.930 . S
H443 C383 0.931 . S
H444 C384 0.959 . S
H445 C384 0.961 . S
H446 C384 0.959 . S
H447 C385 0.960 . S
H448 C385 0.960 . S
H449 C385 0.960 . S
H450 C421 0.980 . S
H451 C387 0.930 . S
H452 C391 0.930 . S
H453 C392 0.961 . S
H454 C392 0.960 . S
H455 C392 0.958 . S
H456 C393 0.961 . S
H457 C393 0.960 . S
H458 C393 0.960 . S
H459 C395 0.980 . S
H460 C394 0.961 . S
H461 C394 0.961 . S
H462 C394 0.959 . S
H463 C397 0.932 . S
H464 C401 0.929 . S
H465 C402 0.961 . S
H466 C402 0.959 . S
H467 C402 0.959 . S
H468 C403 0.960 . S
H469 C403 0.962 . S
H470 C403 0.961 . S
H471 C405 0.929 . S
H472 C408 0.930 . S
H473 C409 0.929 . S
H474 C412 0.930 . S
H475 C415 0.929 . S
H476 C416 0.930 . S
H477 C420 0.962 . S
H478 C420 0.959 . S
H479 C420 0.958 . S
C480 C481 1.560 . S
C480 H541 0.959 . S
C480 H542 0.959 . S
C480 H543 0.960 . S
C481 C480 1.560 . S
C481 O536 1.426 . S
C481 H540 0.980 . S
C482 C483 1.407 . S
C482 C487 1.418 . S
C482 O536 1.334 . S
C483 C482 1.407 . S
C483 C484 1.360 . S
C483 H544 0.929 . S
C484 C483 1.360 . S
C484 C485 1.401 . S
C484 C488 1.527 . S
C485 C484 1.401 . S
C485 C486 1.405 . S
C485 C518 1.587 . S
C486 C485 1.405 . S
C486 C487 1.332 . S
C486 C489 1.496 . S
C487 C482 1.418 . S
C487 C486 1.332 . S
C487 H545 0.929 . S
C488 C484 1.527 . S
C488 H546 0.959 . S
C488 H547 0.961 . S
C488 H548 0.961 . S
C489 C486 1.496 . S
C489 H549 0.960 . S
C489 H550 0.960 . S
C489 H551 0.961 . S
C490 C491 1.517 . S
C490 H553 0.961 . S
C490 H554 0.960 . S
C490 H555 0.959 . S
C491 C490 1.517 . S
C491 O539 1.468 . S
C491 H552 0.980 . S
C492 C493 1.349 . S
C492 C497 1.367 . S
C492 O539 1.408 . S
C493 C492 1.349 . S
C493 C494 1.407 . S
C493 H556 0.930 . S
C494 C493 1.407 . S
C494 C495 1.449 . S
C494 C498 1.535 . S
C495 C494 1.449 . S
C495 C496 1.384 . S
C495 C520 1.553 . S
C496 C495 1.384 . S
C496 C497 1.364 . S
C496 C499 1.450 . S
C497 C492 1.367 . S
C497 C496 1.364 . S
C497 H557 0.931 . S
C498 C494 1.535 . S
C498 H558 0.959 . S
C498 H559 0.961 . S
C498 H560 0.959 . S
C499 C496 1.450 . S
C499 H561 0.960 . S
C499 H562 0.960 . S
C499 H563 0.960 . S
C500 C501 1.309 . S
C500 C505 1.304 . S
C500 O538 1.435 . S
C501 C500 1.309 . S
C501 C502 1.476 . S
C501 H565 0.930 . S
C502 C501 1.476 . S
C502 C503 1.400 . S
C502 C506 1.567 . S
C503 C502 1.400 . S
C503 C504 1.373 . S
C503 C525 1.432 . S
C504 C503 1.373 . S
C504 C505 1.339 . S
C504 C507 1.530 . S
C505 C500 1.304 . S
C505 C504 1.339 . S
C505 H566 0.930 . S
C506 C502 1.567 . S
C506 H567 0.961 . S
C506 H568 0.960 . S
C506 H569 0.958 . S
C507 C504 1.530 . S
C507 H570 0.961 . S
C507 H571 0.960 . S
C507 H572 0.960 . S
C508 C509 1.530 . S
C508 H574 0.961 . S
C508 H575 0.961 . S
C508 H576 0.959 . S
C509 C508 1.530 . S
C509 O537 1.412 . S
C509 H573 0.980 . S
C510 C511 1.288 . S
C510 C515 1.377 . S
C510 O537 1.393 . S
C511 C510 1.288 . S
C511 C512 1.369 . S
C511 H577 0.932 . S
C512 C511 1.369 . S
C512 C513 1.398 . S
C512 C516 1.527 . S
C513 C512 1.398 . S
C513 C514 1.380 . S
C513 C527 1.497 . S
C514 C513 1.380 . S
C514 C515 1.383 . S
C514 C517 1.603 . S
C515 C510 1.377 . S
C515 C514 1.383 . S
C515 H578 0.929 . S
C516 C512 1.527 . S
C516 H579 0.961 . S
C516 H580 0.959 . S
C516 H581 0.959 . S
C517 C514 1.603 . S
C517 H582 0.960 . S
C517 H583 0.962 . S
C517 H584 0.961 . S
C518 C485 1.587 . S
C518 C519 1.360 . S
C518 C531 1.412 . S
C519 C518 1.360 . S
C519 C520 1.365 . S
C519 H585 0.929 . S
C520 C495 1.553 . S
C520 C519 1.365 . S
C520 C521 1.404 . S
C521 C520 1.404 . S
C521 C522 1.395 . S
C521 C532 1.451 . S
C522 C521 1.395 . S
C522 C523 1.322 . S
C522 H586 0.930 . S
C523 C522 1.322 . S
C523 C524 1.459 . S
C523 H587 0.929 . S
C524 C523 1.459 . S
C524 C525 1.445 . S
C524 C533 1.395 . S
C525 C503 1.432 . S
C525 C524 1.445 . S
C525 C526 1.370 . S
C526 C525 1.370 . S
C526 C527 1.438 . S
C526 H588 0.930 . S
C527 C513 1.497 . S
C527 C526 1.438 . S
C527 C528 1.360 . S
C528 C527 1.360 . S
C528 C529 1.401 . S
C528 C533 1.446 . S
C529 C528 1.401 . S
C529 C530 1.347 . S
C529 H589 0.929 . S
C530 C529 1.347 . S
C530 C531 1.455 . S
C530 H590 0.930 . S
C531 C518 1.412 . S
C531 C530 1.455 . S
C531 C532 1.331 . S
C532 C521 1.451 . S
C532 C531 1.331 . S
C532 C533 1.497 . S
C533 C524 1.395 . S
C533 C528 1.446 . S
C533 C532 1.497 . S
C534 C535 1.582 . S
C534 H591 0.962 . S
C534 H592 0.959 . S
C534 H593 0.958 . S
C535 C534 1.582 . S
C535 O538 1.458 . S
C535 H564 0.980 . S
O536 C481 1.426 . S
O536 C482 1.334 . S
O537 C509 1.412 . S
O537 C510 1.393 . S
O538 C500 1.435 . S
O538 C535 1.458 . S
O539 C491 1.468 . S
O539 C492 1.408 . S
H540 C481 0.980 . S
H541 C480 0.959 . S
H542 C480 0.959 . S
H543 C480 0.960 . S
H544 C483 0.929 . S
H545 C487 0.929 . S
H546 C488 0.959 . S
H547 C488 0.961 . S
H548 C488 0.961 . S
H549 C489 0.960 . S
H550 C489 0.960 . S
H551 C489 0.961 . S
H552 C491 0.980 . S
H553 C490 0.961 . S
H554 C490 0.960 . S
H555 C490 0.959 . S
H556 C493 0.930 . S
H557 C497 0.931 . S
H558 C498 0.959 . S
H559 C498 0.961 . S
H560 C498 0.959 . S
H561 C499 0.960 . S
H562 C499 0.960 . S
H563 C499 0.960 . S
H564 C535 0.980 . S
H565 C501 0.930 . S
H566 C505 0.930 . S
H567 C506 0.961 . S
H568 C506 0.960 . S
H569 C506 0.958 . S
H570 C507 0.961 . S
H571 C507 0.960 . S
H572 C507 0.960 . S
H573 C509 0.980 . S
H574 C508 0.961 . S
H575 C508 0.961 . S
H576 C508 0.959 . S
H577 C511 0.932 . S
H578 C515 0.929 . S
H579 C516 0.961 . S
H580 C516 0.959 . S
H581 C516 0.959 . S
H582 C517 0.960 . S
H583 C517 0.962 . S
H584 C517 0.961 . S
H585 C519 0.929 . S
H586 C522 0.930 . S
H587 C523 0.929 . S
H588 C526 0.930 . S
H589 C529 0.929 . S
H590 C530 0.930 . S
H591 C534 0.962 . S
H592 C534 0.959 . S
H593 C534 0.958 . S
C594 C595 1.560 . S
C594 H655 0.959 . S
C594 H656 0.959 . S
C594 H657 0.960 . S
C595 C594 1.560 . S
C595 O650 1.426 . S
C595 H654 0.980 . S
C596 C597 1.407 . S
C596 C601 1.418 . S
C596 O650 1.334 . S
C597 C596 1.407 . S
C597 C598 1.360 . S
C597 H658 0.929 . S
C598 C597 1.360 . S
C598 C599 1.401 . S
C598 C602 1.527 . S
C599 C598 1.401 . S
C599 C600 1.405 . S
C599 C632 1.587 . S
C600 C599 1.405 . S
C600 C601 1.332 . S
C600 C603 1.496 . S
C601 C596 1.418 . S
C601 C600 1.332 . S
C601 H659 0.929 . S
C602 C598 1.527 . S
C602 H660 0.959 . S
C602 H661 0.961 . S
C602 H662 0.961 . S
C603 C600 1.496 . S
C603 H663 0.960 . S
C603 H664 0.960 . S
C603 H665 0.961 . S
C604 C605 1.517 . S
C604 H667 0.961 . S
C604 H668 0.960 . S
C604 H669 0.959 . S
C605 C604 1.517 . S
C605 O653 1.468 . S
C605 H666 0.980 . S
C606 C607 1.349 . S
C606 C611 1.367 . S
C606 O653 1.408 . S
C607 C606 1.349 . S
C607 C608 1.407 . S
C607 H670 0.930 . S
C608 C607 1.407 . S
C608 C609 1.449 . S
C608 C612 1.535 . S
C609 C608 1.449 . S
C609 C610 1.384 . S
C609 C634 1.553 . S
C610 C609 1.384 . S
C610 C611 1.364 . S
C610 C613 1.450 . S
C611 C606 1.367 . S
C611 C610 1.364 . S
C611 H671 0.931 . S
C612 C608 1.535 . S
C612 H672 0.959 . S
C612 H673 0.961 . S
C612 H674 0.959 . S
C613 C610 1.450 . S
C613 H675 0.960 . S
C613 H676 0.960 . S
C613 H677 0.960 . S
C614 C615 1.309 . S
C614 C619 1.304 . S
C614 O652 1.435 . S
C615 C614 1.309 . S
C615 C616 1.476 . S
C615 H679 0.930 . S
C616 C615 1.476 . S
C616 C617 1.400 . S
C616 C620 1.567 . S
C617 C616 1.400 . S
C617 C618 1.373 . S
C617 C639 1.432 . S
C618 C617 1.373 . S
C618 C619 1.339 . S
C618 C621 1.530 . S
C619 C614 1.304 . S
C619 C618 1.339 . S
C619 H680 0.930 . S
C620 C616 1.567 . S
C620 H681 0.961 . S
C620 H682 0.960 . S
C620 H683 0.958 . S
C621 C618 1.530 . S
C621 H684 0.961 . S
C621 H685 0.960 . S
C621 H686 0.960 . S
C622 C623 1.530 . S
C622 H688 0.961 . S
C622 H689 0.961 . S
C622 H690 0.959 . S
C623 C622 1.530 . S
C623 O651 1.412 . S
C623 H687 0.980 . S
C624 C625 1.288 . S
C624 C629 1.377 . S
C624 O651 1.393 . S
C625 C624 1.288 . S
C625 C626 1.369 . S
C625 H691 0.932 . S
C626 C625 1.369 . S
C626 C627 1.398 . S
C626 C630 1.527 . S
C627 C626 1.398 . S
C627 C628 1.380 . S
C627 C641 1.497 . S
C628 C627 1.380 . S
C628 C629 1.383 . S
C628 C631 1.603 . S
C629 C624 1.377 . S
C629 C628 1.383 . S
C629 H692 0.929 . S
C630 C626 1.527 . S
C630 H693 0.961 . S
C630 H694 0.959 . S
C630 H695 0.959 . S
C631 C628 1.603 . S
C631 H696 0.960 . S
C631 H697 0.962 . S
C631 H698 0.961 . S
C632 C599 1.587 . S
C632 C633 1.360 . S
C632 C645 1.412 . S
C633 C632 1.360 . S
C633 C634 1.365 . S
C633 H699 0.929 . S
C634 C609 1.553 . S
C634 C633 1.365 . S
C634 C635 1.404 . S
C635 C634 1.404 . S
C635 C636 1.395 . S
C635 C646 1.451 . S
C636 C635 1.395 . S
C636 C637 1.322 . S
C636 H700 0.930 . S
C637 C636 1.322 . S
C637 C638 1.459 . S
C637 H701 0.929 . S
C638 C637 1.459 . S
C638 C639 1.445 . S
C638 C647 1.395 . S
C639 C617 1.432 . S
C639 C638 1.445 . S
C639 C640 1.370 . S
C640 C639 1.370 . S
C640 C641 1.438 . S
C640 H702 0.930 . S
C641 C627 1.497 . S
C641 C640 1.438 . S
C641 C642 1.360 . S
C642 C641 1.360 . S
C642 C643 1.401 . S
C642 C647 1.446 . S
C643 C642 1.401 . S
C643 C644 1.347 . S
C643 H703 0.929 . S
C644 C643 1.347 . S
C644 C645 1.455 . S
C644 H704 0.930 . S
C645 C632 1.412 . S
C645 C644 1.455 . S
C645 C646 1.331 . S
C646 C635 1.451 . S
C646 C645 1.331 . S
C646 C647 1.497 . S
C647 C638 1.395 . S
C647 C642 1.446 . S
C647 C646 1.497 . S
C648 C649 1.582 . S
C648 H705 0.962 . S
C648 H706 0.959 . S
C648 H707 0.958 . S
C649 C648 1.582 . S
C649 O652 1.458 . S
C649 H678 0.980 . S
O650 C595 1.426 . S
O650 C596 1.334 . S
O651 C623 1.412 . S
O651 C624 1.393 . S
O652 C614 1.435 . S
O652 C649 1.458 . S
O653 C605 1.468 . S
O653 C606 1.408 . S
H654 C595 0.980 . S
H655 C594 0.959 . S
H656 C594 0.959 . S
H657 C594 0.960 . S
H658 C597 0.929 . S
H659 C601 0.929 . S
H660 C602 0.959 . S
H661 C602 0.961 . S
H662 C602 0.961 . S
H663 C603 0.960 . S
H664 C603 0.960 . S
H665 C603 0.961 . S
H666 C605 0.980 . S
H667 C604 0.961 . S
H668 C604 0.960 . S
H669 C604 0.959 . S
H670 C607 0.930 . S
H671 C611 0.931 . S
H672 C612 0.959 . S
H673 C612 0.961 . S
H674 C612 0.959 . S
H675 C613 0.960 . S
H676 C613 0.960 . S
H677 C613 0.960 . S
H678 C649 0.980 . S
H679 C615 0.930 . S
H680 C619 0.930 . S
H681 C620 0.961 . S
H682 C620 0.960 . S
H683 C620 0.958 . S
H684 C621 0.961 . S
H685 C621 0.960 . S
H686 C621 0.960 . S
H687 C623 0.980 . S
H688 C622 0.961 . S
H689 C622 0.961 . S
H690 C622 0.959 . S
H691 C625 0.932 . S
H692 C629 0.929 . S
H693 C630 0.961 . S
H694 C630 0.959 . S
H695 C630 0.959 . S
H696 C631 0.960 . S
H697 C631 0.962 . S
H698 C631 0.961 . S
H699 C633 0.929 . S
H700 C636 0.930 . S
H701 C637 0.929 . S
H702 C640 0.930 . S
H703 C643 0.929 . S
H704 C644 0.930 . S
H705 C648 0.962 . S
H706 C648 0.959 . S
H707 C648 0.958 . S
C708 C709 1.560 . S
C708 H769 0.959 . S
C708 H770 0.959 . S
C708 H771 0.960 . S
C709 C708 1.560 . S
C709 O764 1.426 . S
C709 H768 0.980 . S
C710 C711 1.407 . S
C710 C715 1.418 . S
C710 O764 1.334 . S
C711 C710 1.407 . S
C711 C712 1.360 . S
C711 H772 0.929 . S
C712 C711 1.360 . S
C712 C713 1.401 . S
C712 C716 1.527 . S
C713 C712 1.401 . S
C713 C714 1.405 . S
C713 C746 1.587 . S
C714 C713 1.405 . S
C714 C715 1.332 . S
C714 C717 1.496 . S
C715 C710 1.418 . S
C715 C714 1.332 . S
C715 H773 0.929 . S
C716 C712 1.527 . S
C716 H774 0.959 . S
C716 H775 0.961 . S
C716 H776 0.961 . S
C717 C714 1.496 . S
C717 H777 0.960 . S
C717 H778 0.960 . S
C717 H779 0.961 . S
C718 C719 1.517 . S
C718 H781 0.961 . S
C718 H782 0.960 . S
C718 H783 0.959 . S
C719 C718 1.517 . S
C719 O767 1.468 . S
C719 H780 0.980 . S
C720 C721 1.349 . S
C720 C725 1.367 . S
C720 O767 1.408 . S
C721 C720 1.349 . S
C721 C722 1.407 . S
C721 H784 0.930 . S
C722 C721 1.407 . S
C722 C723 1.449 . S
C722 C726 1.535 . S
C723 C722 1.449 . S
C723 C724 1.384 . S
C723 C748 1.553 . S
C724 C723 1.384 . S
C724 C725 1.364 . S
C724 C727 1.450 . S
C725 C720 1.367 . S
C725 C724 1.364 . S
C725 H785 0.931 . S
C726 C722 1.535 . S
C726 H786 0.959 . S
C726 H787 0.961 . S
C726 H788 0.959 . S
C727 C724 1.450 . S
C727 H789 0.960 . S
C727 H790 0.960 . S
C727 H791 0.960 . S
C728 C729 1.309 . S
C728 C733 1.304 . S
C728 O766 1.435 . S
C729 C728 1.309 . S
C729 C730 1.476 . S
C729 H793 0.930 . S
C730 C729 1.476 . S
C730 C731 1.400 . S
C730 C734 1.567 . S
C731 C730 1.400 . S
C731 C732 1.373 . S
C731 C753 1.432 . S
C732 C731 1.373 . S
C732 C733 1.339 . S
C732 C735 1.530 . S
C733 C728 1.304 . S
C733 C732 1.339 . S
C733 H794 0.930 . S
C734 C730 1.567 . S
C734 H795 0.961 . S
C734 H796 0.960 . S
C734 H797 0.958 . S
C735 C732 1.530 . S
C735 H798 0.961 . S
C735 H799 0.960 . S
C735 H800 0.960 . S
C736 C737 1.530 . S
C736 H802 0.961 . S
C736 H803 0.961 . S
C736 H804 0.959 . S
C737 C736 1.530 . S
C737 O765 1.412 . S
C737 H801 0.980 . S
C738 C739 1.288 . S
C738 C743 1.377 . S
C738 O765 1.393 . S
C739 C738 1.288 . S
C739 C740 1.369 . S
C739 H805 0.932 . S
C740 C739 1.369 . S
C740 C741 1.398 . S
C740 C744 1.527 . S
C741 C740 1.398 . S
C741 C742 1.380 . S
C741 C755 1.497 . S
C742 C741 1.380 . S
C742 C743 1.383 . S
C742 C745 1.603 . S
C743 C738 1.377 . S
C743 C742 1.383 . S
C743 H806 0.929 . S
C744 C740 1.527 . S
C744 H807 0.961 . S
C744 H808 0.959 . S
C744 H809 0.959 . S
C745 C742 1.603 . S
C745 H810 0.960 . S
C745 H811 0.962 . S
C745 H812 0.961 . S
C746 C713 1.587 . S
C746 C747 1.360 . S
C746 C759 1.412 . S
C747 C746 1.360 . S
C747 C748 1.365 . S
C747 H813 0.929 . S
C748 C723 1.553 . S
C748 C747 1.365 . S
C748 C749 1.404 . S
C749 C748 1.404 . S
C749 C750 1.395 . S
C749 C760 1.451 . S
C750 C749 1.395 . S
C750 C751 1.322 . S
C750 H814 0.930 . S
C751 C750 1.322 . S
C751 C752 1.459 . S
C751 H815 0.929 . S
C752 C751 1.459 . S
C752 C753 1.445 . S
C752 C761 1.395 . S
C753 C731 1.432 . S
C753 C752 1.445 . S
C753 C754 1.370 . S
C754 C753 1.370 . S
C754 C755 1.438 . S
C754 H816 0.930 . S
C755 C741 1.497 . S
C755 C754 1.438 . S
C755 C756 1.360 . S
C756 C755 1.360 . S
C756 C757 1.401 . S
C756 C761 1.446 . S
C757 C756 1.401 . S
C757 C758 1.347 . S
C757 H817 0.929 . S
C758 C757 1.347 . S
C758 C759 1.455 . S
C758 H818 0.930 . S
C759 C746 1.412 . S
C759 C758 1.455 . S
C759 C760 1.331 . S
C760 C749 1.451 . S
C760 C759 1.331 . S
C760 C761 1.497 . S
C761 C752 1.395 . S
C761 C756 1.446 . S
C761 C760 1.497 . S
C762 C763 1.582 . S
C762 H819 0.962 . S
C762 H820 0.959 . S
C762 H821 0.958 . S
C763 C762 1.582 . S
C763 O766 1.458 . S
C763 H792 0.980 . S
O764 C709 1.426 . S
O764 C710 1.334 . S
O765 C737 1.412 . S
O765 C738 1.393 . S
O766 C728 1.435 . S
O766 C763 1.458 . S
O767 C719 1.468 . S
O767 C720 1.408 . S
H768 C709 0.980 . S
H769 C708 0.959 . S
H770 C708 0.959 . S
H771 C708 0.960 . S
H772 C711 0.929 . S
H773 C715 0.929 . S
H774 C716 0.959 . S
H775 C716 0.961 . S
H776 C716 0.961 . S
H777 C717 0.960 . S
H778 C717 0.960 . S
H779 C717 0.961 . S
H780 C719 0.980 . S
H781 C718 0.961 . S
H782 C718 0.960 . S
H783 C718 0.959 . S
H784 C721 0.930 . S
H785 C725 0.931 . S
H786 C726 0.959 . S
H787 C726 0.961 . S
H788 C726 0.959 . S
H789 C727 0.960 . S
H790 C727 0.960 . S
H791 C727 0.960 . S
H792 C763 0.980 . S
H793 C729 0.930 . S
H794 C733 0.930 . S
H795 C734 0.961 . S
H796 C734 0.960 . S
H797 C734 0.958 . S
H798 C735 0.961 . S
H799 C735 0.960 . S
H800 C735 0.960 . S
H801 C737 0.980 . S
H802 C736 0.961 . S
H803 C736 0.961 . S
H804 C736 0.959 . S
H805 C739 0.932 . S
H806 C743 0.929 . S
H807 C744 0.961 . S
H808 C744 0.959 . S
H809 C744 0.959 . S
H810 C745 0.960 . S
H811 C745 0.962 . S
H812 C745 0.961 . S
H813 C747 0.929 . S
H814 C750 0.930 . S
H815 C751 0.929 . S
H816 C754 0.930 . S
H817 C757 0.929 . S
H818 C758 0.930 . S
H819 C762 0.962 . S
H820 C762 0.959 . S
H821 C762 0.958 . S
C822 C823 1.560 . S
C822 H883 0.959 . S
C822 H884 0.959 . S
C822 H885 0.960 . S
C823 C822 1.560 . S
C823 O878 1.426 . S
C823 H882 0.980 . S
C824 C825 1.407 . S
C824 C829 1.418 . S
C824 O878 1.334 . S
C825 C824 1.407 . S
C825 C826 1.360 . S
C825 H886 0.929 . S
C826 C825 1.360 . S
C826 C827 1.401 . S
C826 C830 1.527 . S
C827 C826 1.401 . S
C827 C828 1.405 . S
C827 C860 1.587 . S
C828 C827 1.405 . S
C828 C829 1.332 . S
C828 C831 1.496 . S
C829 C824 1.418 . S
C829 C828 1.332 . S
C829 H887 0.929 . S
C830 C826 1.527 . S
C830 H888 0.959 . S
C830 H889 0.961 . S
C830 H890 0.961 . S
C831 C828 1.496 . S
C831 H891 0.960 . S
C831 H892 0.960 . S
C831 H893 0.961 . S
C832 C833 1.517 . S
C832 H895 0.961 . S
C832 H896 0.960 . S
C832 H897 0.959 . S
C833 C832 1.517 . S
C833 O881 1.468 . S
C833 H894 0.980 . S
C834 C835 1.349 . S
C834 C839 1.367 . S
C834 O881 1.408 . S
C835 C834 1.349 . S
C835 C836 1.407 . S
C835 H898 0.930 . S
C836 C835 1.407 . S
C836 C837 1.449 . S
C836 C840 1.535 . S
C837 C836 1.449 . S
C837 C838 1.384 . S
C837 C862 1.553 . S
C838 C837 1.384 . S
C838 C839 1.364 . S
C838 C841 1.450 . S
C839 C834 1.367 . S
C839 C838 1.364 . S
C839 H899 0.931 . S
C840 C836 1.535 . S
C840 H900 0.959 . S
C840 H901 0.961 . S
C840 H902 0.959 . S
C841 C838 1.450 . S
C841 H903 0.960 . S
C841 H904 0.960 . S
C841 H905 0.960 . S
C842 C843 1.309 . S
C842 C847 1.304 . S
C842 O880 1.435 . S
C843 C842 1.309 . S
C843 C844 1.476 . S
C843 H907 0.930 . S
C844 C843 1.476 . S
C844 C845 1.400 . S
C844 C848 1.567 . S
C845 C844 1.400 . S
C845 C846 1.373 . S
C845 C867 1.432 . S
C846 C845 1.373 . S
C846 C847 1.339 . S
C846 C849 1.530 . S
C847 C842 1.304 . S
C847 C846 1.339 . S
C847 H908 0.930 . S
C848 C844 1.567 . S
C848 H909 0.961 . S
C848 H910 0.960 . S
C848 H911 0.958 . S
C849 C846 1.530 . S
C849 H912 0.961 . S
C849 H913 0.960 . S
C849 H914 0.960 . S
C850 C851 1.530 . S
C850 H916 0.961 . S
C850 H917 0.961 . S
C850 H918 0.959 . S
C851 C850 1.530 . S
C851 O879 1.412 . S
C851 H915 0.980 . S
C852 C853 1.288 . S
C852 C857 1.377 . S
C852 O879 1.393 . S
C853 C852 1.288 . S
C853 C854 1.369 . S
C853 H919 0.932 . S
C854 C853 1.369 . S
C854 C855 1.398 . S
C854 C858 1.527 . S
C855 C854 1.398 . S
C855 C856 1.380 . S
C855 C869 1.497 . S
C856 C855 1.380 . S
C856 C857 1.383 . S
C856 C859 1.603 . S
C857 C852 1.377 . S
C857 C856 1.383 . S
C857 H920 0.929 . S
C858 C854 1.527 . S
C858 H921 0.961 . S
C858 H922 0.959 . S
C858 H923 0.959 . S
C859 C856 1.603 . S
C859 H924 0.960 . S
C859 H925 0.962 . S
C859 H926 0.961 . S
C860 C827 1.587 . S
C860 C861 1.360 . S
C860 C873 1.412 . S
C861 C860 1.360 . S
C861 C862 1.365 . S
C861 H927 0.929 . S
C862 C837 1.553 . S
C862 C861 1.365 . S
C862 C863 1.404 . S
C863 C862 1.404 . S
C863 C864 1.395 . S
C863 C874 1.451 . S
C864 C863 1.395 . S
C864 C865 1.322 . S
C864 H928 0.930 . S
C865 C864 1.322 . S
C865 C866 1.459 . S
C865 H929 0.929 . S
C866 C865 1.459 . S
C866 C867 1.445 . S
C866 C875 1.395 . S
C867 C845 1.432 . S
C867 C866 1.445 . S
C867 C868 1.370 . S
C868 C867 1.370 . S
C868 C869 1.438 . S
C868 H930 0.930 . S
C869 C855 1.497 . S
C869 C868 1.438 . S
C869 C870 1.360 . S
C870 C869 1.360 . S
C870 C871 1.401 . S
C870 C875 1.446 . S
C871 C870 1.401 . S
C871 C872 1.347 . S
C871 H931 0.929 . S
C872 C871 1.347 . S
C872 C873 1.455 . S
C872 H932 0.930 . S
C873 C860 1.412 . S
C873 C872 1.455 . S
C873 C874 1.331 . S
C874 C863 1.451 . S
C874 C873 1.331 . S
C874 C875 1.497 . S
C875 C866 1.395 . S
C875 C870 1.446 . S
C875 C874 1.497 . S
C876 C877 1.582 . S
C876 H933 0.962 . S
C876 H934 0.959 . S
C876 H935 0.958 . S
C877 C876 1.582 . S
C877 O880 1.458 . S
C877 H906 0.980 . S
O878 C823 1.426 . S
O878 C824 1.334 . S
O879 C851 1.412 . S
O879 C852 1.393 . S
O880 C842 1.435 . S
O880 C877 1.458 . S
O881 C833 1.468 . S
O881 C834 1.408 . S
H882 C823 0.980 . S
H883 C822 0.959 . S
H884 C822 0.959 . S
H885 C822 0.960 . S
H886 C825 0.929 . S
H887 C829 0.929 . S
H888 C830 0.959 . S
H889 C830 0.961 . S
H890 C830 0.961 . S
H891 C831 0.960 . S
H892 C831 0.960 . S
H893 C831 0.961 . S
H894 C833 0.980 . S
H895 C832 0.961 . S
H896 C832 0.960 . S
H897 C832 0.959 . S
H898 C835 0.930 . S
H899 C839 0.931 . S
H900 C840 0.959 . S
H901 C840 0.961 . S
H902 C840 0.959 . S
H903 C841 0.960 . S
H904 C841 0.960 . S
H905 C841 0.960 . S
H906 C877 0.980 . S
H907 C843 0.930 . S
H908 C847 0.930 . S
H909 C848 0.961 . S
H910 C848 0.960 . S
H911 C848 0.958 . S
H912 C849 0.961 . S
H913 C849 0.960 . S
H914 C849 0.960 . S
H915 C851 0.980 . S
H916 C850 0.961 . S
H917 C850 0.961 . S
H918 C850 0.959 . S
H919 C853 0.932 . S
H920 C857 0.929 . S
H921 C858 0.961 . S
H922 C858 0.959 . S
H923 C858 0.959 . S
H924 C859 0.960 . S
H925 C859 0.962 . S
H926 C859 0.961 . S
H927 C861 0.929 . S
H928 C864 0.930 . S
H929 C865 0.929 . S
H930 C868 0.930 . S
H931 C871 0.929 . S
H932 C872 0.930 . S
H933 C876 0.962 . S
H934 C876 0.959 . S
H935 C876 0.958 . S
C936 C937 1.560 . S
C936 H997 0.959 . S
C936 H998 0.959 . S
C936 H999 0.960 . S
C937 C936 1.560 . S
C937 O992 1.426 . S
C937 H996 0.980 . S
C938 C939 1.407 . S
C938 C943 1.418 . S
C938 O992 1.334 . S
C939 C938 1.407 . S
C939 C940 1.360 . S
C939 H1000 0.929 . S
C940 C939 1.360 . S
C940 C941 1.401 . S
C940 C944 1.527 . S
C941 C940 1.401 . S
C941 C942 1.405 . S
C941 C974 1.587 . S
C942 C941 1.405 . S
C942 C943 1.332 . S
C942 C945 1.496 . S
C943 C938 1.418 . S
C943 C942 1.332 . S
C943 H1001 0.929 . S
C944 C940 1.527 . S
C944 H1002 0.959 . S
C944 H1003 0.961 . S
C944 H1004 0.961 . S
C945 C942 1.496 . S
C945 H1005 0.960 . S
C945 H1006 0.960 . S
C945 H1007 0.961 . S
C946 C947 1.517 . S
C946 H1009 0.961 . S
C946 H1010 0.960 . S
C946 H1011 0.959 . S
C947 C946 1.517 . S
C947 O995 1.468 . S
C947 H1008 0.980 . S
C948 C949 1.349 . S
C948 C953 1.367 . S
C948 O995 1.408 . S
C949 C948 1.349 . S
C949 C950 1.407 . S
C949 H1012 0.930 . S
C950 C949 1.407 . S
C950 C951 1.449 . S
C950 C954 1.535 . S
C951 C950 1.449 . S
C951 C952 1.384 . S
C951 C976 1.553 . S
C952 C951 1.384 . S
C952 C953 1.364 . S
C952 C955 1.450 . S
C953 C948 1.367 . S
C953 C952 1.364 . S
C953 H1013 0.931 . S
C954 C950 1.535 . S
C954 H1014 0.959 . S
C954 H1015 0.961 . S
C954 H1016 0.959 . S
C955 C952 1.450 . S
C955 H1017 0.960 . S
C955 H1018 0.960 . S
C955 H1019 0.960 . S
C956 C957 1.309 . S
C956 C961 1.304 . S
C956 O994 1.435 . S
C957 C956 1.309 . S
C957 C958 1.476 . S
C957 H1021 0.930 . S
C958 C957 1.476 . S
C958 C959 1.400 . S
C958 C962 1.567 . S
C959 C958 1.400 . S
C959 C960 1.373 . S
C959 C981 1.432 . S
C960 C959 1.373 . S
C960 C961 1.339 . S
C960 C963 1.530 . S
C961 C956 1.304 . S
C961 C960 1.339 . S
C961 H1022 0.930 . S
C962 C958 1.567 . S
C962 H1023 0.961 . S
C962 H1024 0.960 . S
C962 H1025 0.958 . S
C963 C960 1.530 . S
C963 H1026 0.961 . S
C963 H1027 0.960 . S
C963 H1028 0.960 . S
C964 C965 1.530 . S
C964 H1030 0.961 . S
C964 H1031 0.961 . S
C964 H1032 0.959 . S
C965 C964 1.530 . S
C965 O993 1.412 . S
C965 H1029 0.980 . S
C966 C967 1.288 . S
C966 C971 1.377 . S
C966 O993 1.393 . S
C967 C966 1.288 . S
C967 C968 1.369 . S
C967 H1033 0.932 . S
C968 C967 1.369 . S
C968 C969 1.398 . S
C968 C972 1.527 . S
C969 C968 1.398 . S
C969 C970 1.380 . S
C969 C983 1.497 . S
C970 C969 1.380 . S
C970 C971 1.383 . S
C970 C973 1.603 . S
C971 C966 1.377 . S
C971 C970 1.383 . S
C971 H1034 0.929 . S
C972 C968 1.527 . S
C972 H1035 0.961 . S
C972 H1036 0.959 . S
C972 H1037 0.959 . S
C973 C970 1.603 . S
C973 H1038 0.960 . S
C973 H1039 0.962 . S
C973 H1040 0.961 . S
C974 C941 1.587 . S
C974 C975 1.360 . S
C974 C987 1.412 . S
C975 C974 1.360 . S
C975 C976 1.365 . S
C975 H1041 0.929 . S
C976 C951 1.553 . S
C976 C975 1.365 . S
C976 C977 1.404 . S
C977 C976 1.404 . S
C977 C978 1.395 . S
C977 C988 1.451 . S
C978 C977 1.395 . S
C978 C979 1.322 . S
C978 H1042 0.930 . S
C979 C978 1.322 . S
C979 C980 1.459 . S
C979 H1043 0.929 . S
C980 C979 1.459 . S
C980 C981 1.445 . S
C980 C989 1.395 . S
C981 C959 1.432 . S
C981 C980 1.445 . S
C981 C982 1.370 . S
C982 C981 1.370 . S
C982 C983 1.438 . S
C982 H1044 0.930 . S
C983 C969 1.497 . S
C983 C982 1.438 . S
C983 C984 1.360 . S
C984 C983 1.360 . S
C984 C985 1.401 . S
C984 C989 1.446 . S
C985 C984 1.401 . S
C985 C986 1.347 . S
C985 H1045 0.929 . S
C986 C985 1.347 . S
C986 C987 1.455 . S
C986 H1046 0.930 . S
C987 C974 1.412 . S
C987 C986 1.455 . S
C987 C988 1.331 . S
C988 C977 1.451 . S
C988 C987 1.331 . S
C988 C989 1.497 . S
C989 C980 1.395 . S
C989 C984 1.446 . S
C989 C988 1.497 . S
C990 C991 1.582 . S
C990 H1047 0.962 . S
C990 H1048 0.959 . S
C990 H1049 0.958 . S
C991 C990 1.582 . S
C991 O994 1.458 . S
C991 H1020 0.980 . S
O992 C937 1.426 . S
O992 C938 1.334 . S
O993 C965 1.412 . S
O993 C966 1.393 . S
O994 C956 1.435 . S
O994 C991 1.458 . S
O995 C947 1.468 . S
O995 C948 1.408 . S
H996 C937 0.980 . S
H997 C936 0.959 . S
H998 C936 0.959 . S
H999 C936 0.960 . S
H1000 C939 0.929 . S
H1001 C943 0.929 . S
H1002 C944 0.959 . S
H1003 C944 0.961 . S
H1004 C944 0.961 . S
H1005 C945 0.960 . S
H1006 C945 0.960 . S
H1007 C945 0.961 . S
H1008 C947 0.980 . S
H1009 C946 0.961 . S
H1010 C946 0.960 . S
H1011 C946 0.959 . S
H1012 C949 0.930 . S
H1013 C953 0.931 . S
H1014 C954 0.959 . S
H1015 C954 0.961 . S
H1016 C954 0.959 . S
H1017 C955 0.960 . S
H1018 C955 0.960 . S
H1019 C955 0.960 . S
H1020 C991 0.980 . S
H1021 C957 0.930 . S
H1022 C961 0.930 . S
H1023 C962 0.961 . S
H1024 C962 0.960 . S
H1025 C962 0.958 . S
H1026 C963 0.961 . S
H1027 C963 0.960 . S
H1028 C963 0.960 . S
H1029 C965 0.980 . S
H1030 C964 0.961 . S
H1031 C964 0.961 . S
H1032 C964 0.959 . S
H1033 C967 0.932 . S
H1034 C971 0.929 . S
H1035 C972 0.961 . S
H1036 C972 0.959 . S
H1037 C972 0.959 . S
H1038 C973 0.960 . S
H1039 C973 0.962 . S
H1040 C973 0.961 . S
H1041 C975 0.929 . S
H1042 C978 0.930 . S
H1043 C979 0.929 . S
H1044 C982 0.930 . S
H1045 C985 0.929 . S
H1046 C986 0.930 . S
H1047 C990 0.962 . S
H1048 C990 0.959 . S
H1049 C990 0.958 . S
C1050 C1051 1.560 . S
C1050 H1111 0.959 . S
C1050 H1112 0.959 . S
C1050 H1113 0.960 . S
C1051 C1050 1.560 . S
C1051 O1106 1.426 . S
C1051 H1110 0.980 . S
C1052 C1053 1.407 . S
C1052 C1057 1.418 . S
C1052 O1106 1.334 . S
C1053 C1052 1.407 . S
C1053 C1054 1.360 . S
C1053 H1114 0.929 . S
C1054 C1053 1.360 . S
C1054 C1055 1.401 . S
C1054 C1058 1.527 . S
C1055 C1054 1.401 . S
C1055 C1056 1.405 . S
C1055 C1088 1.587 . S
C1056 C1055 1.405 . S
C1056 C1057 1.332 . S
C1056 C1059 1.496 . S
C1057 C1052 1.418 . S
C1057 C1056 1.332 . S
C1057 H1115 0.929 . S
C1058 C1054 1.527 . S
C1058 H1116 0.959 . S
C1058 H1117 0.961 . S
C1058 H1118 0.961 . S
C1059 C1056 1.496 . S
C1059 H1119 0.960 . S
C1059 H1120 0.960 . S
C1059 H1121 0.961 . S
C1060 C1061 1.517 . S
C1060 H1123 0.961 . S
C1060 H1124 0.960 . S
C1060 H1125 0.959 . S
C1061 C1060 1.517 . S
C1061 O1109 1.468 . S
C1061 H1122 0.980 . S
C1062 C1063 1.349 . S
C1062 C1067 1.367 . S
C1062 O1109 1.408 . S
C1063 C1062 1.349 . S
C1063 C1064 1.407 . S
C1063 H1126 0.930 . S
C1064 C1063 1.407 . S
C1064 C1065 1.449 . S
C1064 C1068 1.535 . S
C1065 C1064 1.449 . S
C1065 C1066 1.384 . S
C1065 C1090 1.553 . S
C1066 C1065 1.384 . S
C1066 C1067 1.364 . S
C1066 C1069 1.450 . S
C1067 C1062 1.367 . S
C1067 C1066 1.364 . S
C1067 H1127 0.931 . S
C1068 C1064 1.535 . S
C1068 H1128 0.959 . S
C1068 H1129 0.961 . S
C1068 H1130 0.959 . S
C1069 C1066 1.450 . S
C1069 H1131 0.960 . S
C1069 H1132 0.960 . S
C1069 H1133 0.960 . S
C1070 C1071 1.309 . S
C1070 C1075 1.304 . S
C1070 O1108 1.435 . S
C1071 C1070 1.309 . S
C1071 C1072 1.476 . S
C1071 H1135 0.930 . S
C1072 C1071 1.476 . S
C1072 C1073 1.400 . S
C1072 C1076 1.567 . S
C1073 C1072 1.400 . S
C1073 C1074 1.373 . S
C1073 C1095 1.432 . S
C1074 C1073 1.373 . S
C1074 C1075 1.339 . S
C1074 C1077 1.530 . S
C1075 C1070 1.304 . S
C1075 C1074 1.339 . S
C1075 H1136 0.930 . S
C1076 C1072 1.567 . S
C1076 H1137 0.961 . S
C1076 H1138 0.960 . S
C1076 H1139 0.958 . S
C1077 C1074 1.530 . S
C1077 H1140 0.961 . S
C1077 H1141 0.960 . S
C1077 H1142 0.960 . S
C1078 C1079 1.530 . S
C1078 H1144 0.961 . S
C1078 H1145 0.961 . S
C1078 H1146 0.959 . S
C1079 C1078 1.530 . S
C1079 O1107 1.412 . S
C1079 H1143 0.980 . S
C1080 C1081 1.288 . S
C1080 C1085 1.377 . S
C1080 O1107 1.393 . S
C1081 C1080 1.288 . S
C1081 C1082 1.369 . S
C1081 H1147 0.932 . S
C1082 C1081 1.369 . S
C1082 C1083 1.398 . S
C1082 C1086 1.527 . S
C1083 C1082 1.398 . S
C1083 C1084 1.380 . S
C1083 C1097 1.497 . S
C1084 C1083 1.380 . S
C1084 C1085 1.383 . S
C1084 C1087 1.603 . S
C1085 C1080 1.377 . S
C1085 C1084 1.383 . S
C1085 H1148 0.929 . S
C1086 C1082 1.527 . S
C1086 H1149 0.961 . S
C1086 H1150 0.959 . S
C1086 H1151 0.959 . S
C1087 C1084 1.603 . S
C1087 H1152 0.960 . S
C1087 H1153 0.962 . S
C1087 H1154 0.961 . S
C1088 C1055 1.587 . S
C1088 C1089 1.360 . S
C1088 C1101 1.412 . S
C1089 C1088 1.360 . S
C1089 C1090 1.365 . S
C1089 H1155 0.929 . S
C1090 C1065 1.553 . S
C1090 C1089 1.365 . S
C1090 C1091 1.404 . S
C1091 C1090 1.404 . S
C1091 C1092 1.395 . S
C1091 C1102 1.451 . S
C1092 C1091 1.395 . S
C1092 C1093 1.322 . S
C1092 H1156 0.930 . S
C1093 C1092 1.322 . S
C1093 C1094 1.459 . S
C1093 H1157 0.929 . S
C1094 C1093 1.459 . S
C1094 C1095 1.445 . S
C1094 C1103 1.395 . S
C1095 C1073 1.432 . S
C1095 C1094 1.445 . S
C1095 C1096 1.370 . S
C1096 C1095 1.370 . S
C1096 C1097 1.438 . S
C1096 H1158 0.930 . S
C1097 C1083 1.497 . S
C1097 C1096 1.438 . S
C1097 C1098 1.360 . S
C1098 C1097 1.360 . S
C1098 C1099 1.401 . S
C1098 C1103 1.446 . S
C1099 C1098 1.401 . S
C1099 C1100 1.347 . S
C1099 H1159 0.929 . S
C1100 C1099 1.347 . S
C1100 C1101 1.455 . S
C1100 H1160 0.930 . S
C1101 C1088 1.412 . S
C1101 C1100 1.455 . S
C1101 C1102 1.331 . S
C1102 C1091 1.451 . S
C1102 C1101 1.331 . S
C1102 C1103 1.497 . S
C1103 C1094 1.395 . S
C1103 C1098 1.446 . S
C1103 C1102 1.497 . S
C1104 C1105 1.582 . S
C1104 H1161 0.962 . S
C1104 H1162 0.959 . S
C1104 H1163 0.958 . S
C1105 C1104 1.582 . S
C1105 O1108 1.458 . S
C1105 H1134 0.980 . S
O1106 C1051 1.426 . S
O1106 C1052 1.334 . S
O1107 C1079 1.412 . S
O1107 C1080 1.393 . S
O1108 C1070 1.435 . S
O1108 C1105 1.458 . S
O1109 C1061 1.468 . S
O1109 C1062 1.408 . S
H1110 C1051 0.980 . S
H1111 C1050 0.959 . S
H1112 C1050 0.959 . S
H1113 C1050 0.960 . S
H1114 C1053 0.929 . S
H1115 C1057 0.929 . S
H1116 C1058 0.959 . S
H1117 C1058 0.961 . S
H1118 C1058 0.961 . S
H1119 C1059 0.960 . S
H1120 C1059 0.960 . S
H1121 C1059 0.961 . S
H1122 C1061 0.980 . S
H1123 C1060 0.961 . S
H1124 C1060 0.960 . S
H1125 C1060 0.959 . S
H1126 C1063 0.930 . S
H1127 C1067 0.931 . S
H1128 C1068 0.959 . S
H1129 C1068 0.961 . S
H1130 C1068 0.959 . S
H1131 C1069 0.960 . S
H1132 C1069 0.960 . S
H1133 C1069 0.960 . S
H1134 C1105 0.980 . S
H1135 C1071 0.930 . S
H1136 C1075 0.930 . S
H1137 C1076 0.961 . S
H1138 C1076 0.960 . S
H1139 C1076 0.958 . S
H1140 C1077 0.961 . S
H1141 C1077 0.960 . S
H1142 C1077 0.960 . S
H1143 C1079 0.980 . S
H1144 C1078 0.961 . S
H1145 C1078 0.961 . S
H1146 C1078 0.959 . S
H1147 C1081 0.932 . S
H1148 C1085 0.929 . S
H1149 C1086 0.961 . S
H1150 C1086 0.959 . S
H1151 C1086 0.959 . S
H1152 C1087 0.960 . S
H1153 C1087 0.962 . S
H1154 C1087 0.961 . S
H1155 C1089 0.929 . S
H1156 C1092 0.930 . S
H1157 C1093 0.929 . S
H1158 C1096 0.930 . S
H1159 C1099 0.929 . S
H1160 C1100 0.930 . S
H1161 C1104 0.962 . S
H1162 C1104 0.959 . S
H1163 C1104 0.958 . S
C1164 C1165 1.560 . S
C1164 H1225 0.959 . S
C1164 H1226 0.959 . S
C1164 H1227 0.960 . S
C1165 C1164 1.560 . S
C1165 O1220 1.426 . S
C1165 H1224 0.980 . S
C1166 C1167 1.407 . S
C1166 C1171 1.418 . S
C1166 O1220 1.334 . S
C1167 C1166 1.407 . S
C1167 C1168 1.360 . S
C1167 H1228 0.929 . S
C1168 C1167 1.360 . S
C1168 C1169 1.401 . S
C1168 C1172 1.527 . S
C1169 C1168 1.401 . S
C1169 C1170 1.405 . S
C1169 C1202 1.587 . S
C1170 C1169 1.405 . S
C1170 C1171 1.332 . S
C1170 C1173 1.496 . S
C1171 C1166 1.418 . S
C1171 C1170 1.332 . S
C1171 H1229 0.929 . S
C1172 C1168 1.527 . S
C1172 H1230 0.959 . S
C1172 H1231 0.961 . S
C1172 H1232 0.961 . S
C1173 C1170 1.496 . S
C1173 H1233 0.960 . S
C1173 H1234 0.960 . S
C1173 H1235 0.961 . S
C1174 C1175 1.517 . S
C1174 H1237 0.961 . S
C1174 H1238 0.960 . S
C1174 H1239 0.959 . S
C1175 C1174 1.517 . S
C1175 O1223 1.468 . S
C1175 H1236 0.980 . S
C1176 C1177 1.349 . S
C1176 C1181 1.367 . S
C1176 O1223 1.408 . S
C1177 C1176 1.349 . S
C1177 C1178 1.407 . S
C1177 H1240 0.930 . S
C1178 C1177 1.407 . S
C1178 C1179 1.449 . S
C1178 C1182 1.535 . S
C1179 C1178 1.449 . S
C1179 C1180 1.384 . S
C1179 C1204 1.553 . S
C1180 C1179 1.384 . S
C1180 C1181 1.364 . S
C1180 C1183 1.450 . S
C1181 C1176 1.367 . S
C1181 C1180 1.364 . S
C1181 H1241 0.931 . S
C1182 C1178 1.535 . S
C1182 H1242 0.959 . S
C1182 H1243 0.961 . S
C1182 H1244 0.959 . S
C1183 C1180 1.450 . S
C1183 H1245 0.960 . S
C1183 H1246 0.960 . S
C1183 H1247 0.960 . S
C1184 C1185 1.309 . S
C1184 C1189 1.304 . S
C1184 O1222 1.435 . S
C1185 C1184 1.309 . S
C1185 C1186 1.476 . S
C1185 H1249 0.930 . S
C1186 C1185 1.476 . S
C1186 C1187 1.400 . S
C1186 C1190 1.567 . S
C1187 C1186 1.400 . S
C1187 C1188 1.373 . S
C1187 C1209 1.432 . S
C1188 C1187 1.373 . S
C1188 C1189 1.339 . S
C1188 C1191 1.530 . S
C1189 C1184 1.304 . S
C1189 C1188 1.339 . S
C1189 H1250 0.930 . S
C1190 C1186 1.567 . S
C1190 H1251 0.961 . S
C1190 H1252 0.960 . S
C1190 H1253 0.958 . S
C1191 C1188 1.530 . S
C1191 H1254 0.961 . S
C1191 H1255 0.960 . S
C1191 H1256 0.960 . S
C1192 C1193 1.530 . S
C1192 H1258 0.961 . S
C1192 H1259 0.961 . S
C1192 H1260 0.959 . S
C1193 C1192 1.530 . S
C1193 O1221 1.412 . S
C1193 H1257 0.980 . S
C1194 C1195 1.288 . S
C1194 C1199 1.377 . S
C1194 O1221 1.393 . S
C1195 C1194 1.288 . S
C1195 C1196 1.369 . S
C1195 H1261 0.932 . S
C1196 C1195 1.369 . S
C1196 C1197 1.398 . S
C1196 C1200 1.527 . S
C1197 C1196 1.398 . S
C1197 C1198 1.380 . S
C1197 C1211 1.497 . S
C1198 C1197 1.380 . S
C1198 C1199 1.383 . S
C1198 C1201 1.603 . S
C1199 C1194 1.377 . S
C1199 C1198 1.383 . S
C1199 H1262 0.929 . S
C1200 C1196 1.527 . S
C1200 H1263 0.961 . S
C1200 H1264 0.959 . S
C1200 H1265 0.959 . S
C1201 C1198 1.603 . S
C1201 H1266 0.960 . S
C1201 H1267 0.962 . S
C1201 H1268 0.961 . S
C1202 C1169 1.587 . S
C1202 C1203 1.360 . S
C1202 C1215 1.412 . S
C1203 C1202 1.360 . S
C1203 C1204 1.365 . S
C1203 H1269 0.929 . S
C1204 C1179 1.553 . S
C1204 C1203 1.365 . S
C1204 C1205 1.404 . S
C1205 C1204 1.404 . S
C1205 C1206 1.395 . S
C1205 C1216 1.451 . S
C1206 C1205 1.395 . S
C1206 C1207 1.322 . S
C1206 H1270 0.930 . S
C1207 C1206 1.322 . S
C1207 C1208 1.459 . S
C1207 H1271 0.929 . S
C1208 C1207 1.459 . S
C1208 C1209 1.445 . S
C1208 C1217 1.395 . S
C1209 C1187 1.432 . S
C1209 C1208 1.445 . S
C1209 C1210 1.370 . S
C1210 C1209 1.370 . S
C1210 C1211 1.438 . S
C1210 H1272 0.930 . S
C1211 C1197 1.497 . S
C1211 C1210 1.438 . S
C1211 C1212 1.360 . S
C1212 C1211 1.360 . S
C1212 C1213 1.401 . S
C1212 C1217 1.446 . S
C1213 C1212 1.401 . S
C1213 C1214 1.347 . S
C1213 H1273 0.929 . S
C1214 C1213 1.347 . S
C1214 C1215 1.455 . S
C1214 H1274 0.930 . S
C1215 C1202 1.412 . S
C1215 C1214 1.455 . S
C1215 C1216 1.331 . S
C1216 C1205 1.451 . S
C1216 C1215 1.331 . S
C1216 C1217 1.497 . S
C1217 C1208 1.395 . S
C1217 C1212 1.446 . S
C1217 C1216 1.497 . S
C1218 C1219 1.582 . S
C1218 H1275 0.962 . S
C1218 H1276 0.959 . S
C1218 H1277 0.958 . S
C1219 C1218 1.582 . S
C1219 O1222 1.458 . S
C1219 H1248 0.980 . S
O1220 C1165 1.426 . S
O1220 C1166 1.334 . S
O1221 C1193 1.412 . S
O1221 C1194 1.393 . S
O1222 C1184 1.435 . S
O1222 C1219 1.458 . S
O1223 C1175 1.468 . S
O1223 C1176 1.408 . S
H1224 C1165 0.980 . S
H1225 C1164 0.959 . S
H1226 C1164 0.959 . S
H1227 C1164 0.960 . S
H1228 C1167 0.929 . S
H1229 C1171 0.929 . S
H1230 C1172 0.959 . S
H1231 C1172 0.961 . S
H1232 C1172 0.961 . S
H1233 C1173 0.960 . S
H1234 C1173 0.960 . S
H1235 C1173 0.961 . S
H1236 C1175 0.980 . S
H1237 C1174 0.961 . S
H1238 C1174 0.960 . S
H1239 C1174 0.959 . S
H1240 C1177 0.930 . S
H1241 C1181 0.931 . S
H1242 C1182 0.959 . S
H1243 C1182 0.961 . S
H1244 C1182 0.959 . S
H1245 C1183 0.960 . S
H1246 C1183 0.960 . S
H1247 C1183 0.960 . S
H1248 C1219 0.980 . S
H1249 C1185 0.930 . S
H1250 C1189 0.930 . S
H1251 C1190 0.961 . S
H1252 C1190 0.960 . S
H1253 C1190 0.958 . S
H1254 C1191 0.961 . S
H1255 C1191 0.960 . S
H1256 C1191 0.960 . S
H1257 C1193 0.980 . S
H1258 C1192 0.961 . S
H1259 C1192 0.961 . S
H1260 C1192 0.959 . S
H1261 C1195 0.932 . S
H1262 C1199 0.929 . S
H1263 C1200 0.961 . S
H1264 C1200 0.959 . S
H1265 C1200 0.959 . S
H1266 C1201 0.960 . S
H1267 C1201 0.962 . S
H1268 C1201 0.961 . S
H1269 C1203 0.929 . S
H1270 C1206 0.930 . S
H1271 C1207 0.929 . S
H1272 C1210 0.930 . S
H1273 C1213 0.929 . S
H1274 C1214 0.930 . S
H1275 C1218 0.962 . S
H1276 C1218 0.959 . S
H1277 C1218 0.958 . S
C1278 C1279 1.560 . S
C1278 H1339 0.959 . S
C1278 H1340 0.959 . S
C1278 H1341 0.960 . S
C1279 C1278 1.560 . S
C1279 O1334 1.426 . S
C1279 H1338 0.980 . S
C1280 C1281 1.407 1_455 S
C1280 C1285 1.418 . S
C1280 O1334 1.334 . S
C1281 C1280 1.407 1_655 S
C1281 C1282 1.360 . S
C1281 H1342 0.929 . S
C1282 C1281 1.360 . S
C1282 C1283 1.401 1_655 S
C1282 C1286 1.527 . S
C1283 C1282 1.401 1_455 S
C1283 C1284 1.405 . S
C1283 C1316 1.587 1_455 S
C1284 C1283 1.405 . S
C1284 C1285 1.332 . S
C1284 C1287 1.496 . S
C1285 C1280 1.418 . S
C1285 C1284 1.332 . S
C1285 H1343 0.929 . S
C1286 C1282 1.527 . S
C1286 H1344 0.959 . S
C1286 H1345 0.961 . S
C1286 H1346 0.961 . S
C1287 C1284 1.496 . S
C1287 H1347 0.960 . S
C1287 H1348 0.960 . S
C1287 H1349 0.961 . S
C1288 C1289 1.517 . S
C1288 H1351 1.009 . S
C1288 H1352 0.960 . S
C1288 H1353 0.959 . S
C1289 C1288 1.517 . S
C1289 O1337 1.468 . S
C1289 H1350 0.980 1_655 S
C1290 C1291 1.349 . S
C1290 C1295 1.367 . S
C1290 O1337 1.408 . S
C1291 C1290 1.349 . S
C1291 C1292 1.376 1_655 S
C1291 H1354 0.930 1_655 S
C1292 C1291 1.376 1_455 S
C1292 C1293 1.424 1_455 S
C1292 C1296 1.587 . S
C1293 C1292 1.424 1_655 S
C1293 C1294 1.384 . S
C1293 C1318 1.553 . S
C1294 C1293 1.384 . S
C1294 C1295 1.364 . S
C1294 C1297 1.450 . S
C1295 C1290 1.367 . S
C1295 C1294 1.364 . S
C1295 H1355 0.931 . S
C1296 C1292 1.587 . S
C1296 H1356 0.959 . S
C1296 H1357 0.961 . S
C1296 H1358 0.959 . S
C1297 C1294 1.450 . S
C1297 H1359 0.960 . S
C1297 H1360 0.960 . S
C1297 H1361 0.960 . S
C1298 C1299 1.309 . S
C1298 C1303 1.304 . S
C1298 O1336 1.435 . S
C1299 C1298 1.309 . S
C1299 C1300 1.475 1_655 S
C1299 H1363 0.930 1_655 S
C1300 C1299 1.475 1_455 S
C1300 C1301 1.400 1_455 S
C1300 C1304 1.567 . S
C1301 C1300 1.400 1_655 S
C1301 C1302 1.373 . S
C1301 C1323 1.432 . S
C1302 C1301 1.373 . S
C1302 C1303 1.339 . S
C1302 C1305 1.530 . S
C1303 C1298 1.304 . S
C1303 C1302 1.339 . S
C1303 H1364 0.930 . S
C1304 C1300 1.567 . S
C1304 H1365 0.961 . S
C1304 H1366 0.960 . S
C1304 H1367 0.958 . S
C1305 C1302 1.530 . S
C1305 H1368 0.961 . S
C1305 H1369 0.960 . S
C1305 H1370 0.960 . S
C1306 C1307 1.547 . S
C1306 H1372 0.961 . S
C1306 H1373 0.961 . S
C1306 H1374 0.959 . S
C1307 C1306 1.547 . S
C1307 O1335 1.415 . S
C1307 H1371 0.976 1_455 S
C1308 C1309 1.288 . S
C1308 C1313 1.377 1_455 S
C1308 O1335 1.393 . S
C1309 C1308 1.288 . S
C1309 C1310 1.369 . S
C1309 H1375 0.932 . S
C1310 C1309 1.369 . S
C1310 C1311 1.398 1_455 S
C1310 C1314 1.527 . S
C1311 C1310 1.398 1_655 S
C1311 C1312 1.380 . S
C1311 C1325 1.497 . S
C1312 C1311 1.380 . S
C1312 C1313 1.383 . S
C1312 C1315 1.603 . S
C1313 C1308 1.377 1_655 S
C1313 C1312 1.383 . S
C1313 H1376 0.929 . S
C1314 C1310 1.527 . S
C1314 H1377 0.961 . S
C1314 H1378 0.959 . S
C1314 H1379 0.959 . S
C1315 C1312 1.603 . S
C1315 H1380 0.960 . S
C1315 H1381 0.962 . S
C1315 H1382 0.961 . S
C1316 C1283 1.587 1_655 S
C1316 C1317 1.360 . S
C1316 C1329 1.412 . S
C1317 C1316 1.360 . S
C1317 C1318 1.365 . S
C1317 H1383 0.929 . S
C1318 C1293 1.553 . S
C1318 C1317 1.365 . S
C1318 C1319 1.404 . S
C1319 C1318 1.404 . S
C1319 C1320 1.395 . S
C1319 C1330 1.451 . S
C1320 C1319 1.395 . S
C1320 C1321 1.322 . S
C1320 H1384 0.930 . S
C1321 C1320 1.322 . S
C1321 C1322 1.459 . S
C1321 H1385 0.929 . S
C1322 C1321 1.459 . S
C1322 C1323 1.445 . S
C1322 C1331 1.395 . S
C1323 C1301 1.432 . S
C1323 C1322 1.445 . S
C1323 C1324 1.370 . S
C1324 C1323 1.370 . S
C1324 C1325 1.438 . S
C1324 H1386 0.930 . S
C1325 C1311 1.497 . S
C1325 C1324 1.438 . S
C1325 C1326 1.360 . S
C1326 C1325 1.360 . S
C1326 C1327 1.401 . S
C1326 C1331 1.446 . S
C1327 C1326 1.401 . S
C1327 C1328 1.347 . S
C1327 H1387 0.993 . S
C1328 C1327 1.347 . S
C1328 C1329 1.455 . S
C1328 H1388 0.991 . S
C1329 C1316 1.412 . S
C1329 C1328 1.455 . S
C1329 C1330 1.331 . S
C1330 C1319 1.451 . S
C1330 C1329 1.331 . S
C1330 C1331 1.497 . S
C1331 C1322 1.395 . S
C1331 C1326 1.446 . S
C1331 C1330 1.497 . S
C1332 C1333 1.582 . S
C1332 H1389 0.962 . S
C1332 H1390 0.959 . S
C1332 H1391 0.958 . S
C1333 C1332 1.582 . S
C1333 O1336 1.458 . S
C1333 H1362 0.980 . S
O1334 C1279 1.426 . S
O1334 C1280 1.334 . S
O1335 C1307 1.415 . S
O1335 C1308 1.393 . S
O1336 C1298 1.435 . S
O1336 C1333 1.458 . S
O1337 C1289 1.468 . S
O1337 C1290 1.408 . S
H1338 C1279 0.980 . S
H1339 C1278 0.959 . S
H1340 C1278 0.959 . S
H1341 C1278 0.960 . S
H1342 C1281 0.929 . S
H1343 C1285 0.929 . S
H1344 C1286 0.959 . S
H1345 C1286 0.961 . S
H1346 C1286 0.961 . S
H1347 C1287 0.960 . S
H1348 C1287 0.960 . S
H1349 C1287 0.961 . S
H1350 C1289 0.980 1_455 S
H1351 C1288 1.009 . S
H1352 C1288 0.960 . S
H1353 C1288 0.959 . S
H1354 C1291 0.930 1_455 S
H1355 C1295 0.931 . S
H1356 C1296 0.959 . S
H1357 C1296 0.961 . S
H1358 C1296 0.959 . S
H1359 C1297 0.960 . S
H1360 C1297 0.960 . S
H1361 C1297 0.960 . S
H1362 C1333 0.980 . S
H1363 C1299 0.930 1_455 S
H1364 C1303 0.930 . S
H1365 C1304 0.961 . S
H1366 C1304 0.960 . S
H1367 C1304 0.958 . S
H1368 C1305 0.961 . S
H1369 C1305 0.960 . S
H1370 C1305 0.960 . S
H1371 C1307 0.976 1_655 S
H1372 C1306 0.961 . S
H1373 C1306 0.961 . S
H1374 C1306 0.959 . S
H1375 C1309 0.932 . S
H1376 C1313 0.929 . S
H1377 C1314 0.961 . S
H1378 C1314 0.959 . S
H1379 C1314 0.959 . S
H1380 C1315 0.960 . S
H1381 C1315 0.962 . S
H1382 C1315 0.961 . S
H1383 C1317 0.929 . S
H1384 C1320 0.930 . S
H1385 C1321 0.929 . S
H1386 C1324 0.930 . S
H1387 C1327 0.993 . S
H1388 C1328 0.991 . S
H1389 C1332 0.962 . S
H1390 C1332 0.959 . S
H1391 C1332 0.958 . S
C1392 C1393 1.560 . S
C1392 H1453 0.959 . S
C1392 H1454 0.959 . S
C1392 H1455 0.960 . S
C1393 C1392 1.560 . S
C1393 O1448 1.426 . S
C1393 H1452 0.980 . S
C1394 C1395 1.407 . S
C1394 C1399 1.418 . S
C1394 O1448 1.334 . S
C1395 C1394 1.407 . S
C1395 C1396 1.360 . S
C1395 H1456 0.929 . S
C1396 C1395 1.360 . S
C1396 C1397 1.401 . S
C1396 C1400 1.527 . S
C1397 C1396 1.401 . S
C1397 C1398 1.405 . S
C1397 C1430 1.587 . S
C1398 C1397 1.405 . S
C1398 C1399 1.332 . S
C1398 C1401 1.496 . S
C1399 C1394 1.418 . S
C1399 C1398 1.332 . S
C1399 H1457 0.929 . S
C1400 C1396 1.527 . S
C1400 H1458 0.959 . S
C1400 H1459 0.961 . S
C1400 H1460 0.961 . S
C1401 C1398 1.496 . S
C1401 H1461 0.960 . S
C1401 H1462 0.960 . S
C1401 H1463 0.961 . S
C1402 C1403 1.517 . S
C1402 H1465 0.961 . S
C1402 H1466 0.960 . S
C1402 H1467 0.959 . S
C1403 C1402 1.517 . S
C1403 O1451 1.468 . S
C1403 H1464 0.980 . S
C1404 C1405 1.349 . S
C1404 C1409 1.367 . S
C1404 O1451 1.408 . S
C1405 C1404 1.349 . S
C1405 C1406 1.407 . S
C1405 H1468 0.930 . S
C1406 C1405 1.407 . S
C1406 C1407 1.449 . S
C1406 C1410 1.535 . S
C1407 C1406 1.449 . S
C1407 C1408 1.384 . S
C1407 C1432 1.553 . S
C1408 C1407 1.384 . S
C1408 C1409 1.364 . S
C1408 C1411 1.450 . S
C1409 C1404 1.367 . S
C1409 C1408 1.364 . S
C1409 H1469 0.931 . S
C1410 C1406 1.535 . S
C1410 H1470 0.959 . S
C1410 H1471 0.961 . S
C1410 H1472 0.959 . S
C1411 C1408 1.450 . S
C1411 H1473 0.960 . S
C1411 H1474 0.960 . S
C1411 H1475 0.960 . S
C1412 C1413 1.309 . S
C1412 C1417 1.304 . S
C1412 O1450 1.435 . S
C1413 C1412 1.309 . S
C1413 C1414 1.476 . S
C1413 H1477 0.930 . S
C1414 C1413 1.476 . S
C1414 C1415 1.400 . S
C1414 C1418 1.567 . S
C1415 C1414 1.400 . S
C1415 C1416 1.373 . S
C1415 C1437 1.432 . S
C1416 C1415 1.373 . S
C1416 C1417 1.339 . S
C1416 C1419 1.530 . S
C1417 C1412 1.304 . S
C1417 C1416 1.339 . S
C1417 H1478 0.930 . S
C1418 C1414 1.567 . S
C1418 H1479 0.961 . S
C1418 H1480 0.960 . S
C1418 H1481 0.958 . S
C1419 C1416 1.530 . S
C1419 H1482 0.961 . S
C1419 H1483 0.960 . S
C1419 H1484 0.960 . S
C1420 C1421 1.530 . S
C1420 H1486 0.961 . S
C1420 H1487 0.961 . S
C1420 H1488 0.959 . S
C1421 C1420 1.530 . S
C1421 O1449 1.412 . S
C1421 H1485 0.980 . S
C1422 C1423 1.288 . S
C1422 C1427 1.377 . S
C1422 O1449 1.393 . S
C1423 C1422 1.288 . S
C1423 C1424 1.369 . S
C1423 H1489 0.932 . S
C1424 C1423 1.369 . S
C1424 C1425 1.398 . S
C1424 C1428 1.527 . S
C1425 C1424 1.398 . S
C1425 C1426 1.380 . S
C1425 C1439 1.497 . S
C1426 C1425 1.380 . S
C1426 C1427 1.383 . S
C1426 C1429 1.603 . S
C1427 C1422 1.377 . S
C1427 C1426 1.383 . S
C1427 H1490 0.929 . S
C1428 C1424 1.527 . S
C1428 H1491 0.961 . S
C1428 H1492 0.959 . S
C1428 H1493 0.959 . S
C1429 C1426 1.603 . S
C1429 H1494 0.960 . S
C1429 H1495 0.962 . S
C1429 H1496 0.961 . S
C1430 C1397 1.587 . S
C1430 C1431 1.360 . S
C1430 C1443 1.412 . S
C1431 C1430 1.360 . S
C1431 C1432 1.365 . S
C1431 H1497 0.929 . S
C1432 C1407 1.553 . S
C1432 C1431 1.365 . S
C1432 C1433 1.404 . S
C1433 C1432 1.404 . S
C1433 C1434 1.395 . S
C1433 C1444 1.451 . S
C1434 C1433 1.395 . S
C1434 C1435 1.322 . S
C1434 H1498 0.930 . S
C1435 C1434 1.322 . S
C1435 C1436 1.459 . S
C1435 H1499 0.929 . S
C1436 C1435 1.459 . S
C1436 C1437 1.445 . S
C1436 C1445 1.395 . S
C1437 C1415 1.432 . S
C1437 C1436 1.445 . S
C1437 C1438 1.370 . S
C1438 C1437 1.370 . S
C1438 C1439 1.438 . S
C1438 H1500 0.930 . S
C1439 C1425 1.497 . S
C1439 C1438 1.438 . S
C1439 C1440 1.360 . S
C1440 C1439 1.360 . S
C1440 C1441 1.401 . S
C1440 C1445 1.446 . S
C1441 C1440 1.401 . S
C1441 C1442 1.347 . S
C1441 H1501 0.929 . S
C1442 C1441 1.347 . S
C1442 C1443 1.455 . S
C1442 H1502 0.930 . S
C1443 C1430 1.412 . S
C1443 C1442 1.455 . S
C1443 C1444 1.331 . S
C1444 C1433 1.451 . S
C1444 C1443 1.331 . S
C1444 C1445 1.497 . S
C1445 C1436 1.395 . S
C1445 C1440 1.446 . S
C1445 C1444 1.497 . S
C1446 C1447 1.582 . S
C1446 H1503 0.962 . S
C1446 H1504 0.959 . S
C1446 H1505 0.958 . S
C1447 C1446 1.582 . S
C1447 O1450 1.458 . S
C1447 H1476 0.980 . S
O1448 C1393 1.426 . S
O1448 C1394 1.334 . S
O1449 C1421 1.412 . S
O1449 C1422 1.393 . S
O1450 C1412 1.435 . S
O1450 C1447 1.458 . S
O1451 C1403 1.468 . S
O1451 C1404 1.408 . S
H1452 C1393 0.980 . S
H1453 C1392 0.959 . S
H1454 C1392 0.959 . S
H1455 C1392 0.960 . S
H1456 C1395 0.929 . S
H1457 C1399 0.929 . S
H1458 C1400 0.959 . S
H1459 C1400 0.961 . S
H1460 C1400 0.961 . S
H1461 C1401 0.960 . S
H1462 C1401 0.960 . S
H1463 C1401 0.961 . S
H1464 C1403 0.980 . S
H1465 C1402 0.961 . S
H1466 C1402 0.960 . S
H1467 C1402 0.959 . S
H1468 C1405 0.930 . S
H1469 C1409 0.931 . S
H1470 C1410 0.959 . S
H1471 C1410 0.961 . S
H1472 C1410 0.959 . S
H1473 C1411 0.960 . S
H1474 C1411 0.960 . S
H1475 C1411 0.960 . S
H1476 C1447 0.980 . S
H1477 C1413 0.930 . S
H1478 C1417 0.930 . S
H1479 C1418 0.961 . S
H1480 C1418 0.960 . S
H1481 C1418 0.958 . S
H1482 C1419 0.961 . S
H1483 C1419 0.960 . S
H1484 C1419 0.960 . S
H1485 C1421 0.980 . S
H1486 C1420 0.961 . S
H1487 C1420 0.961 . S
H1488 C1420 0.959 . S
H1489 C1423 0.932 . S
H1490 C1427 0.929 . S
H1491 C1428 0.961 . S
H1492 C1428 0.959 . S
H1493 C1428 0.959 . S
H1494 C1429 0.960 . S
H1495 C1429 0.962 . S
H1496 C1429 0.961 . S
H1497 C1431 0.929 . S
H1498 C1434 0.930 . S
H1499 C1435 0.929 . S
H1500 C1438 0.930 . S
H1501 C1441 0.929 . S
H1502 C1442 0.930 . S
H1503 C1446 0.962 . S
H1504 C1446 0.959 . S
H1505 C1446 0.958 . S
C1506 C1507 1.560 . S
C1506 H1567 0.959 . S
C1506 H1568 0.959 . S
C1506 H1569 0.960 . S
C1507 C1506 1.560 . S
C1507 O1562 1.426 . S
C1507 H1566 0.980 . S
C1508 C1509 1.407 1_565 S
C1508 C1513 1.418 . S
C1508 O1562 1.334 . S
C1509 C1508 1.407 1_545 S
C1509 C1510 1.360 . S
C1509 H1570 0.929 . S
C1510 C1509 1.360 . S
C1510 C1511 1.332 1_545 S
C1510 C1514 1.527 . S
C1511 C1510 1.332 1_565 S
C1511 C1512 1.469 . S
C1511 C1544 1.601 1_565 S
C1512 C1511 1.469 . S
C1512 C1513 1.332 . S
C1512 C1515 1.496 . S
C1513 C1508 1.418 . S
C1513 C1512 1.332 . S
C1513 H1571 0.929 . S
C1514 C1510 1.527 . S
C1514 H1572 0.959 . S
C1514 H1573 0.961 . S
C1514 H1574 0.961 . S
C1515 C1512 1.496 . S
C1515 H1575 0.960 . S
C1515 H1576 0.960 . S
C1515 H1577 0.961 . S
C1516 C1517 1.517 . S
C1516 H1579 0.961 1_545 S
C1516 H1580 0.960 . S
C1516 H1581 0.959 . S
C1517 C1516 1.517 . S
C1517 O1565 1.468 . S
C1517 H1578 0.980 1_545 S
C1518 C1519 1.353 1_545 S
C1518 C1523 1.367 . S
C1518 O1565 1.408 . S
C1519 C1518 1.353 1_565 S
C1519 C1520 1.410 . S
C1519 H1582 0.923 . S
C1520 C1519 1.410 . S
C1520 C1521 1.449 1_565 S
C1520 C1524 1.535 . S
C1521 C1520 1.449 1_545 S
C1521 C1522 1.384 . S
C1521 C1546 1.553 . S
C1522 C1521 1.384 . S
C1522 C1523 1.364 . S
C1522 C1525 1.450 . S
C1523 C1518 1.367 . S
C1523 C1522 1.364 . S
C1523 H1583 0.931 . S
C1524 C1520 1.535 . S
C1524 H1584 0.959 . S
C1524 H1585 0.961 . S
C1524 H1586 0.959 . S
C1525 C1522 1.450 . S
C1525 H1587 0.960 . S
C1525 H1588 0.960 . S
C1525 H1589 0.960 . S
C1526 C1527 1.309 . S
C1526 C1531 1.304 . S
C1526 O1564 1.435 . S
C1527 C1526 1.309 . S
C1527 C1528 1.511 1_545 S
C1527 H1591 0.930 1_545 S
C1528 C1527 1.511 1_565 S
C1528 C1529 1.303 1_565 S
C1528 C1532 1.632 . S
C1529 C1528 1.303 1_545 S
C1529 C1530 1.373 . S
C1529 C1551 1.432 . S
C1530 C1529 1.373 . S
C1530 C1531 1.339 . S
C1530 C1533 1.530 . S
C1531 C1526 1.304 . S
C1531 C1530 1.339 . S
C1531 H1592 0.930 . S
C1532 C1528 1.632 . S
C1532 H1593 0.961 . S
C1532 H1594 0.960 . S
C1532 H1595 0.958 . S
C1533 C1530 1.530 . S
C1533 H1596 0.961 . S
C1533 H1597 0.960 . S
C1533 H1598 0.960 . S
C1534 C1535 1.530 1_565 S
C1534 H1600 0.961 . S
C1534 H1601 0.961 . S
C1534 H1602 0.959 . S
C1535 C1534 1.530 1_545 S
C1535 O1563 1.412 1_545 S
C1535 H1599 0.980 . S
C1536 C1537 1.288 . S
C1536 C1541 1.377 1_565 S
C1536 O1563 1.393 . S
C1537 C1536 1.288 . S
C1537 C1538 1.369 . S
C1537 H1603 0.932 . S
C1538 C1537 1.369 . S
C1538 C1539 1.398 1_565 S
C1538 C1542 1.527 . S
C1539 C1538 1.398 1_545 S
C1539 C1540 1.380 . S
C1539 C1553 1.497 . S
C1540 C1539 1.380 . S
C1540 C1541 1.383 . S
C1540 C1543 1.603 . S
C1541 C1536 1.377 1_545 S
C1541 C1540 1.383 . S
C1541 H1604 0.929 . S
C1542 C1538 1.527 . S
C1542 H1605 0.961 . S
C1542 H1606 0.959 . S
C1542 H1607 0.959 . S
C1543 C1540 1.603 . S
C1543 H1608 0.960 . S
C1543 H1609 0.962 . S
C1543 H1610 0.961 . S
C1544 C1511 1.601 1_545 S
C1544 C1545 1.360 . S
C1544 C1557 1.412 . S
C1545 C1544 1.360 . S
C1545 C1546 1.365 . S
C1545 H1611 0.929 . S
C1546 C1521 1.553 . S
C1546 C1545 1.365 . S
C1546 C1547 1.404 . S
C1547 C1546 1.404 . S
C1547 C1548 1.395 . S
C1547 C1558 1.451 . S
C1548 C1547 1.395 . S
C1548 C1549 1.322 . S
C1548 H1612 0.930 . S
C1549 C1548 1.322 . S
C1549 C1550 1.459 . S
C1549 H1613 0.929 . S
C1550 C1549 1.459 . S
C1550 C1551 1.445 . S
C1550 C1559 1.395 . S
C1551 C1529 1.432 . S
C1551 C1550 1.445 . S
C1551 C1552 1.370 . S
C1552 C1551 1.370 . S
C1552 C1553 1.438 . S
C1552 H1614 0.930 . S
C1553 C1539 1.497 . S
C1553 C1552 1.438 . S
C1553 C1554 1.360 . S
C1554 C1553 1.360 . S
C1554 C1555 1.401 . S
C1554 C1559 1.446 . S
C1555 C1554 1.401 . S
C1555 C1556 1.347 . S
C1555 H1615 0.929 . S
C1556 C1555 1.347 . S
C1556 C1557 1.455 . S
C1556 H1616 0.930 . S
C1557 C1544 1.412 . S
C1557 C1556 1.455 . S
C1557 C1558 1.331 . S
C1558 C1547 1.451 . S
C1558 C1557 1.331 . S
C1558 C1559 1.497 . S
C1559 C1550 1.395 . S
C1559 C1554 1.446 . S
C1559 C1558 1.497 . S
C1560 C1561 1.582 . S
C1560 H1617 0.962 . S
C1560 H1618 0.959 . S
C1560 H1619 0.958 . S
C1561 C1560 1.582 . S
C1561 O1564 1.458 . S
C1561 H1590 0.980 . S
O1562 C1507 1.426 . S
O1562 C1508 1.334 . S
O1563 C1535 1.412 1_565 S
O1563 C1536 1.393 . S
O1564 C1526 1.435 . S
O1564 C1561 1.458 . S
O1565 C1517 1.468 . S
O1565 C1518 1.408 . S
H1566 C1507 0.980 . S
H1567 C1506 0.959 . S
H1568 C1506 0.959 . S
H1569 C1506 0.960 . S
H1570 C1509 0.929 . S
H1571 C1513 0.929 . S
H1572 C1514 0.959 . S
H1573 C1514 0.961 . S
H1574 C1514 0.961 . S
H1575 C1515 0.960 . S
H1576 C1515 0.960 . S
H1577 C1515 0.961 . S
H1578 C1517 0.980 1_565 S
H1579 C1516 0.961 1_565 S
H1580 C1516 0.960 . S
H1581 C1516 0.959 . S
H1582 C1519 0.923 . S
H1583 C1523 0.931 . S
H1584 C1524 0.959 . S
H1585 C1524 0.961 . S
H1586 C1524 0.959 . S
H1587 C1525 0.960 . S
H1588 C1525 0.960 . S
H1589 C1525 0.960 . S
H1590 C1561 0.980 . S
H1591 C1527 0.930 1_565 S
H1592 C1531 0.930 . S
H1593 C1532 0.961 . S
H1594 C1532 0.960 . S
H1595 C1532 0.958 . S
H1596 C1533 0.961 . S
H1597 C1533 0.960 . S
H1598 C1533 0.960 . S
H1599 C1535 0.980 . S
H1600 C1534 0.961 . S
H1601 C1534 0.961 . S
H1602 C1534 0.959 . S
H1603 C1537 0.932 . S
H1604 C1541 0.929 . S
H1605 C1542 0.961 . S
H1606 C1542 0.959 . S
H1607 C1542 0.959 . S
H1608 C1543 0.960 . S
H1609 C1543 0.962 . S
H1610 C1543 0.961 . S
H1611 C1545 0.929 . S
H1612 C1548 0.930 . S
H1613 C1549 0.929 . S
H1614 C1552 0.930 . S
H1615 C1555 0.929 . S
H1616 C1556 0.930 . S
H1617 C1560 0.962 . S
H1618 C1560 0.959 . S
H1619 C1560 0.958 . S
C1620 C1621 1.560 . S
C1620 H1681 0.959 . S
C1620 H1682 0.959 . S
C1620 H1683 0.960 . S
C1621 C1620 1.560 . S
C1621 O1676 1.426 . S
C1621 H1680 0.980 1_565 S
C1622 C1623 1.407 1_565 S
C1622 C1627 1.418 . S
C1622 O1676 1.334 . S
C1623 C1622 1.407 1_545 S
C1623 C1624 1.360 . S
C1623 H1684 0.929 . S
C1624 C1623 1.360 . S
C1624 C1625 1.401 . S
C1624 C1628 1.527 . S
C1625 C1624 1.401 . S
C1625 C1626 1.405 1_545 S
C1625 C1658 1.587 . S
C1626 C1625 1.405 1_565 S
C1626 C1627 1.332 . S
C1626 C1629 1.496 . S
C1627 C1622 1.418 . S
C1627 C1626 1.332 . S
C1627 H1685 0.929 . S
C1628 C1624 1.527 . S
C1628 H1686 0.959 . S
C1628 H1687 0.961 . S
C1628 H1688 0.961 . S
C1629 C1626 1.496 . S
C1629 H1689 0.960 . S
C1629 H1690 0.960 . S
C1629 H1691 0.961 . S
C1630 C1631 1.517 . S
C1630 H1693 0.961 . S
C1630 H1694 0.960 . S
C1630 H1695 0.959 . S
C1631 C1630 1.517 . S
C1631 O1679 1.468 . S
C1631 H1692 0.980 . S
C1632 C1633 1.349 . S
C1632 C1637 1.367 . S
C1632 O1679 1.408 . S
C1633 C1632 1.349 . S
C1633 C1634 1.407 . S
C1633 H1696 0.938 . S
C1634 C1633 1.407 . S
C1634 C1635 1.449 . S
C1634 C1638 1.535 1_545 S
C1635 C1634 1.449 . S
C1635 C1636 1.384 . S
C1635 C1660 1.553 . S
C1636 C1635 1.384 . S
C1636 C1637 1.364 . S
C1636 C1639 1.450 . S
C1637 C1632 1.367 . S
C1637 C1636 1.364 . S
C1637 H1697 0.931 . S
C1638 C1634 1.535 1_565 S
C1638 H1698 0.959 . S
C1638 H1699 0.961 . S
C1638 H1700 0.959 . S
C1639 C1636 1.450 . S
C1639 H1701 0.960 . S
C1639 H1702 0.960 . S
C1639 H1703 0.960 . S
C1640 C1641 1.309 1_545 S
C1640 C1645 1.304 . S
C1640 O1678 1.435 . S
C1641 C1640 1.309 1_565 S
C1641 C1642 1.476 . S
C1641 H1705 0.930 . S
C1642 C1641 1.476 . S
C1642 C1643 1.400 1_565 S
C1642 C1646 1.567 . S
C1643 C1642 1.400 1_545 S
C1643 C1644 1.373 . S
C1643 C1665 1.432 . S
C1644 C1643 1.373 . S
C1644 C1645 1.339 . S
C1644 C1647 1.530 . S
C1645 C1640 1.304 . S
C1645 C1644 1.339 . S
C1645 H1706 0.930 . S
C1646 C1642 1.567 . S
C1646 H1707 0.961 . S
C1646 H1708 0.960 . S
C1646 H1709 0.958 . S
C1647 C1644 1.530 . S
C1647 H1710 0.961 . S
C1647 H1711 0.960 . S
C1647 H1712 0.960 . S
C1648 C1649 1.530 . S
C1648 H1714 0.961 . S
C1648 H1715 0.961 . S
C1648 H1716 0.959 . S
C1649 C1648 1.530 . S
C1649 O1677 1.412 . S
C1649 H1713 0.980 . S
C1650 C1651 1.288 . S
C1650 C1655 1.377 1_565 S
C1650 O1677 1.393 . S
C1651 C1650 1.288 . S
C1651 C1652 1.369 . S
C1651 H1717 0.932 . S
C1652 C1651 1.369 . S
C1652 C1653 1.398 . S
C1652 C1656 1.527 . S
C1653 C1652 1.398 . S
C1653 C1654 1.380 1_565 S
C1653 C1667 1.497 1_565 S
C1654 C1653 1.380 1_545 S
C1654 C1655 1.383 . S
C1654 C1657 1.603 . S
C1655 C1650 1.377 1_545 S
C1655 C1654 1.383 . S
C1655 H1718 0.929 . S
C1656 C1652 1.527 . S
C1656 H1719 0.961 . S
C1656 H1720 0.959 . S
C1656 H1721 0.959 . S
C1657 C1654 1.603 . S
C1657 H1722 0.960 . S
C1657 H1723 0.962 . S
C1657 H1724 0.961 . S
C1658 C1625 1.587 . S
C1658 C1659 1.360 . S
C1658 C1671 1.412 . S
C1659 C1658 1.360 . S
C1659 C1660 1.365 . S
C1659 H1725 0.929 . S
C1660 C1635 1.553 . S
C1660 C1659 1.365 . S
C1660 C1661 1.404 . S
C1661 C1660 1.404 . S
C1661 C1662 1.395 . S
C1661 C1672 1.451 . S
C1662 C1661 1.395 . S
C1662 C1663 1.322 . S
C1662 H1726 0.930 . S
C1663 C1662 1.322 . S
C1663 C1664 1.459 . S
C1663 H1727 0.929 . S
C1664 C1663 1.459 . S
C1664 C1665 1.445 . S
C1664 C1673 1.395 . S
C1665 C1643 1.432 . S
C1665 C1664 1.445 . S
C1665 C1666 1.370 . S
C1666 C1665 1.370 . S
C1666 C1667 1.438 . S
C1666 H1728 0.930 . S
C1667 C1653 1.497 1_545 S
C1667 C1666 1.438 . S
C1667 C1668 1.360 . S
C1668 C1667 1.360 . S
C1668 C1669 1.401 . S
C1668 C1673 1.446 . S
C1669 C1668 1.401 . S
C1669 C1670 1.347 . S
C1669 H1729 0.933 . S
C1670 C1669 1.347 . S
C1670 C1671 1.455 . S
C1670 H1730 0.930 . S
C1671 C1658 1.412 . S
C1671 C1670 1.455 . S
C1671 C1672 1.331 . S
C1672 C1661 1.451 . S
C1672 C1671 1.331 . S
C1672 C1673 1.497 . S
C1673 C1664 1.395 . S
C1673 C1668 1.446 . S
C1673 C1672 1.497 . S
C1674 C1675 1.582 . S
C1674 H1731 0.962 . S
C1674 H1732 0.959 . S
C1674 H1733 0.958 . S
C1675 C1674 1.582 . S
C1675 O1678 1.458 . S
C1675 H1704 0.980 1_545 S
O1676 C1621 1.426 . S
O1676 C1622 1.334 . S
O1677 C1649 1.412 . S
O1677 C1650 1.393 . S
O1678 C1640 1.435 . S
O1678 C1675 1.458 . S
O1679 C1631 1.468 . S
O1679 C1632 1.408 . S
H1680 C1621 0.980 1_545 S
H1681 C1620 0.959 . S
H1682 C1620 0.959 . S
H1683 C1620 0.960 . S
H1684 C1623 0.929 . S
H1685 C1627 0.929 . S
H1686 C1628 0.959 . S
H1687 C1628 0.961 . S
H1688 C1628 0.961 . S
H1689 C1629 0.960 . S
H1690 C1629 0.960 . S
H1691 C1629 0.961 . S
H1692 C1631 0.980 . S
H1693 C1630 0.961 . S
H1694 C1630 0.960 . S
H1695 C1630 0.959 . S
H1696 C1633 0.938 . S
H1697 C1637 0.931 . S
H1698 C1638 0.959 . S
H1699 C1638 0.961 . S
H1700 C1638 0.959 . S
H1701 C1639 0.960 . S
H1702 C1639 0.960 . S
H1703 C1639 0.960 . S
H1704 C1675 0.980 1_565 S
H1705 C1641 0.930 . S
H1706 C1645 0.930 . S
H1707 C1646 0.961 . S
H1708 C1646 0.960 . S
H1709 C1646 0.958 . S
H1710 C1647 0.961 . S
H1711 C1647 0.960 . S
H1712 C1647 0.960 . S
H1713 C1649 0.980 . S
H1714 C1648 0.961 . S
H1715 C1648 0.961 . S
H1716 C1648 0.959 . S
H1717 C1651 0.932 . S
H1718 C1655 0.929 . S
H1719 C1656 0.961 . S
H1720 C1656 0.959 . S
H1721 C1656 0.959 . S
H1722 C1657 0.960 . S
H1723 C1657 0.962 . S
H1724 C1657 0.961 . S
H1725 C1659 0.929 . S
H1726 C1662 0.930 . S
H1727 C1663 0.929 . S
H1728 C1666 0.930 . S
H1729 C1669 0.933 . S
H1730 C1670 0.930 . S
H1731 C1674 0.962 . S
H1732 C1674 0.959 . S
H1733 C1674 0.958 . S
C1734 C1735 1.598 . S
C1734 H1795 0.959 . S
C1734 H1796 0.959 . S
C1734 H1797 0.960 . S
C1735 C1734 1.598 . S
C1735 O1790 1.501 . S
C1735 H1794 0.965 1_455 S
C1736 C1737 1.407 1_455 S
C1736 C1741 1.418 . S
C1736 O1790 1.334 . S
C1737 C1736 1.407 1_655 S
C1737 C1738 1.360 . S
C1737 H1798 0.929 . S
C1738 C1737 1.360 . S
C1738 C1739 1.401 . S
C1738 C1742 1.527 . S
C1739 C1738 1.401 . S
C1739 C1740 1.405 1_655 S
C1739 C1772 1.587 . S
C1740 C1739 1.405 1_455 S
C1740 C1741 1.332 . S
C1740 C1743 1.496 . S
C1741 C1736 1.418 . S
C1741 C1740 1.332 . S
C1741 H1799 0.929 . S
C1742 C1738 1.527 . S
C1742 H1800 0.959 . S
C1742 H1801 0.961 . S
C1742 H1802 0.961 . S
C1743 C1740 1.496 . S
C1743 H1803 0.960 . S
C1743 H1804 0.960 . S
C1743 H1805 0.961 . S
C1744 C1745 1.517 . S
C1744 H1807 0.961 . S
C1744 H1808 0.960 . S
C1744 H1809 0.959 . S
C1745 C1744 1.517 . S
C1745 O1793 1.468 . S
C1745 H1806 0.980 . S
C1746 C1747 1.349 . S
C1746 C1751 1.367 . S
C1746 O1793 1.408 . S
C1747 C1746 1.349 . S
C1747 C1748 1.407 . S
C1747 H1810 0.911 1_655 S
C1748 C1747 1.407 . S
C1748 C1749 1.449 . S
C1748 C1752 1.535 1_655 S
C1749 C1748 1.449 . S
C1749 C1750 1.384 . S
C1749 C1774 1.553 . S
C1750 C1749 1.384 . S
C1750 C1751 1.364 . S
C1750 C1753 1.450 . S
C1751 C1746 1.367 . S
C1751 C1750 1.364 . S
C1751 H1811 0.931 . S
C1752 C1748 1.535 1_455 S
C1752 H1812 0.959 . S
C1752 H1813 0.961 . S
C1752 H1814 0.959 . S
C1753 C1750 1.450 . S
C1753 H1815 0.960 . S
C1753 H1816 0.960 . S
C1753 H1817 0.960 . S
C1754 C1755 1.309 1_655 S
C1754 C1759 1.304 . S
C1754 O1792 1.435 . S
C1755 C1754 1.309 1_455 S
C1755 C1756 1.476 . S
C1755 H1819 0.930 . S
C1756 C1755 1.476 . S
C1756 C1757 1.400 1_455 S
C1756 C1760 1.567 . S
C1757 C1756 1.400 1_655 S
C1757 C1758 1.373 . S
C1757 C1779 1.432 . S
C1758 C1757 1.373 . S
C1758 C1759 1.339 . S
C1758 C1761 1.530 . S
C1759 C1754 1.304 . S
C1759 C1758 1.339 . S
C1759 H1820 0.930 . S
C1760 C1756 1.567 . S
C1760 H1821 0.961 . S
C1760 H1822 0.960 . S
C1760 H1823 0.958 . S
C1761 C1758 1.530 . S
C1761 H1824 0.961 . S
C1761 H1825 0.960 . S
C1761 H1826 0.960 . S
C1762 C1763 1.530 . S
C1762 H1828 0.961 . S
C1762 H1829 0.961 . S
C1762 H1830 0.959 . S
C1763 C1762 1.530 . S
C1763 O1791 1.412 . S
C1763 H1827 0.976 1_455 S
C1764 C1765 1.288 . S
C1764 C1769 1.377 1_455 S
C1764 O1791 1.393 . S
C1765 C1764 1.288 . S
C1765 C1766 1.369 . S
C1765 H1831 0.932 . S
C1766 C1765 1.369 . S
C1766 C1767 1.398 . S
C1766 C1770 1.527 . S
C1767 C1766 1.398 . S
C1767 C1768 1.380 1_455 S
C1767 C1781 1.497 1_455 S
C1768 C1767 1.380 1_655 S
C1768 C1769 1.383 . S
C1768 C1771 1.603 . S
C1769 C1764 1.377 1_655 S
C1769 C1768 1.383 . S
C1769 H1832 0.929 . S
C1770 C1766 1.527 . S
C1770 H1833 0.961 . S
C1770 H1834 0.959 . S
C1770 H1835 0.959 . S
C1771 C1768 1.603 . S
C1771 H1836 0.960 . S
C1771 H1837 0.962 . S
C1771 H1838 0.961 . S
C1772 C1739 1.587 . S
C1772 C1773 1.360 . S
C1772 C1785 1.412 . S
C1773 C1772 1.360 . S
C1773 C1774 1.365 . S
C1773 H1839 0.929 . S
C1774 C1749 1.553 . S
C1774 C1773 1.365 . S
C1774 C1775 1.404 . S
C1775 C1774 1.404 . S
C1775 C1776 1.395 . S
C1775 C1786 1.451 . S
C1776 C1775 1.395 . S
C1776 C1777 1.322 . S
C1776 H1840 0.930 . S
C1777 C1776 1.322 . S
C1777 C1778 1.459 . S
C1777 H1841 0.929 . S
C1778 C1777 1.459 . S
C1778 C1779 1.445 . S
C1778 C1787 1.395 . S
C1779 C1757 1.432 . S
C1779 C1778 1.445 . S
C1779 C1780 1.370 . S
C1780 C1779 1.370 . S
C1780 C1781 1.438 . S
C1780 H1842 0.930 . S
C1781 C1767 1.497 1_655 S
C1781 C1780 1.438 . S
C1781 C1782 1.360 . S
C1782 C1781 1.360 . S
C1782 C1783 1.401 . S
C1782 C1787 1.446 . S
C1783 C1782 1.401 . S
C1783 C1784 1.347 . S
C1783 H1843 0.929 . S
C1784 C1783 1.347 . S
C1784 C1785 1.455 . S
C1784 H1844 0.930 . S
C1785 C1772 1.412 . S
C1785 C1784 1.455 . S
C1785 C1786 1.331 . S
C1786 C1775 1.451 . S
C1786 C1785 1.331 . S
C1786 C1787 1.497 . S
C1787 C1778 1.395 . S
C1787 C1782 1.446 . S
C1787 C1786 1.497 . S
C1788 C1789 1.582 1_655 S
C1788 H1845 0.927 1_655 S
C1788 H1846 0.959 . S
C1788 H1847 0.958 . S
C1789 C1788 1.582 1_455 S
C1789 O1792 1.458 1_455 S
C1789 H1818 0.980 . S
O1790 C1735 1.501 . S
O1790 C1736 1.334 . S
O1791 C1763 1.412 . S
O1791 C1764 1.393 . S
O1792 C1754 1.435 . S
O1792 C1789 1.458 1_655 S
O1793 C1745 1.468 . S
O1793 C1746 1.408 . S
H1794 C1735 0.965 1_655 S
H1795 C1734 0.959 . S
H1796 C1734 0.959 . S
H1797 C1734 0.960 . S
H1798 C1737 0.929 . S
H1799 C1741 0.929 . S
H1800 C1742 0.959 . S
H1801 C1742 0.961 . S
H1802 C1742 0.961 . S
H1803 C1743 0.960 . S
H1804 C1743 0.960 . S
H1805 C1743 0.961 . S
H1806 C1745 0.980 . S
H1807 C1744 0.961 . S
H1808 C1744 0.960 . S
H1809 C1744 0.959 . S
H1810 C1747 0.911 1_455 S
H1811 C1751 0.931 . S
H1812 C1752 0.959 . S
H1813 C1752 0.961 . S
H1814 C1752 0.959 . S
H1815 C1753 0.960 . S
H1816 C1753 0.960 . S
H1817 C1753 0.960 . S
H1818 C1789 0.980 . S
H1819 C1755 0.930 . S
H1820 C1759 0.930 . S
H1821 C1760 0.961 . S
H1822 C1760 0.960 . S
H1823 C1760 0.958 . S
H1824 C1761 0.961 . S
H1825 C1761 0.960 . S
H1826 C1761 0.960 . S
H1827 C1763 0.976 1_655 S
H1828 C1762 0.961 . S
H1829 C1762 0.961 . S
H1830 C1762 0.959 . S
H1831 C1765 0.932 . S
H1832 C1769 0.929 . S
H1833 C1770 0.961 . S
H1834 C1770 0.959 . S
H1835 C1770 0.959 . S
H1836 C1771 0.960 . S
H1837 C1771 0.962 . S
H1838 C1771 0.961 . S
H1839 C1773 0.929 . S
H1840 C1776 0.930 . S
H1841 C1777 0.929 . S
H1842 C1780 0.930 . S
H1843 C1783 0.929 . S
H1844 C1784 0.930 . S
H1845 C1788 0.927 1_455 S
H1846 C1788 0.959 . S
H1847 C1788 0.958 . S
C1848 C1849 1.560 . S
C1848 H1909 0.959 . S
C1848 H1910 0.959 . S
C1848 H1911 0.960 . S
C1849 C1848 1.560 . S
C1849 O1904 1.426 . S
C1849 H1908 0.980 . S
C1850 C1851 1.407 . S
C1850 C1855 1.418 . S
C1850 O1904 1.334 . S
C1851 C1850 1.407 . S
C1851 C1852 1.360 . S
C1851 H1912 0.929 . S
C1852 C1851 1.360 . S
C1852 C1853 1.401 . S
C1852 C1856 1.527 . S
C1853 C1852 1.401 . S
C1853 C1854 1.405 . S
C1853 C1886 1.587 . S
C1854 C1853 1.405 . S
C1854 C1855 1.332 . S
C1854 C1857 1.496 . S
C1855 C1850 1.418 . S
C1855 C1854 1.332 . S
C1855 H1913 0.929 . S
C1856 C1852 1.527 . S
C1856 H1914 0.959 . S
C1856 H1915 0.961 . S
C1856 H1916 0.961 . S
C1857 C1854 1.496 . S
C1857 H1917 0.960 . S
C1857 H1918 0.960 . S
C1857 H1919 0.961 . S
C1858 C1859 1.517 . S
C1858 H1921 0.961 . S
C1858 H1922 0.960 . S
C1858 H1923 0.959 . S
C1859 C1858 1.517 . S
C1859 O1907 1.468 . S
C1859 H1920 0.980 . S
C1860 C1861 1.349 . S
C1860 C1865 1.367 . S
C1860 O1907 1.408 . S
C1861 C1860 1.349 . S
C1861 C1862 1.407 . S
C1861 H1924 0.930 . S
C1862 C1861 1.407 . S
C1862 C1863 1.449 . S
C1862 C1866 1.535 . S
C1863 C1862 1.449 . S
C1863 C1864 1.384 . S
C1863 C1888 1.553 . S
C1864 C1863 1.384 . S
C1864 C1865 1.364 . S
C1864 C1867 1.450 . S
C1865 C1860 1.367 . S
C1865 C1864 1.364 . S
C1865 H1925 0.931 . S
C1866 C1862 1.535 . S
C1866 H1926 0.959 . S
C1866 H1927 0.961 . S
C1866 H1928 0.959 . S
C1867 C1864 1.450 . S
C1867 H1929 0.960 . S
C1867 H1930 0.960 . S
C1867 H1931 0.960 . S
C1868 C1869 1.309 . S
C1868 C1873 1.304 . S
C1868 O1906 1.435 . S
C1869 C1868 1.309 . S
C1869 C1870 1.476 . S
C1869 H1933 0.930 . S
C1870 C1869 1.476 . S
C1870 C1871 1.400 . S
C1870 C1874 1.567 . S
C1871 C1870 1.400 . S
C1871 C1872 1.373 . S
C1871 C1893 1.432 . S
C1872 C1871 1.373 . S
C1872 C1873 1.339 . S
C1872 C1875 1.530 . S
C1873 C1868 1.304 . S
C1873 C1872 1.339 . S
C1873 H1934 0.930 . S
C1874 C1870 1.567 . S
C1874 H1935 0.961 . S
C1874 H1936 0.960 . S
C1874 H1937 0.958 . S
C1875 C1872 1.530 . S
C1875 H1938 0.961 . S
C1875 H1939 0.960 . S
C1875 H1940 0.960 . S
C1876 C1877 1.530 . S
C1876 H1942 0.961 . S
C1876 H1943 0.961 . S
C1876 H1944 0.959 . S
C1877 C1876 1.530 . S
C1877 O1905 1.412 . S
C1877 H1941 0.980 . S
C1878 C1879 1.288 . S
C1878 C1883 1.377 . S
C1878 O1905 1.393 . S
C1879 C1878 1.288 . S
C1879 C1880 1.369 . S
C1879 H1945 0.932 . S
C1880 C1879 1.369 . S
C1880 C1881 1.398 . S
C1880 C1884 1.527 . S
C1881 C1880 1.398 . S
C1881 C1882 1.380 . S
C1881 C1895 1.497 . S
C1882 C1881 1.380 . S
C1882 C1883 1.383 . S
C1882 C1885 1.603 . S
C1883 C1878 1.377 . S
C1883 C1882 1.383 . S
C1883 H1946 0.929 . S
C1884 C1880 1.527 . S
C1884 H1947 0.961 . S
C1884 H1948 0.959 . S
C1884 H1949 0.959 . S
C1885 C1882 1.603 . S
C1885 H1950 0.960 . S
C1885 H1951 0.962 . S
C1885 H1952 0.961 . S
C1886 C1853 1.587 . S
C1886 C1887 1.360 . S
C1886 C1899 1.412 . S
C1887 C1886 1.360 . S
C1887 C1888 1.365 . S
C1887 H1953 0.929 . S
C1888 C1863 1.553 . S
C1888 C1887 1.365 . S
C1888 C1889 1.404 . S
C1889 C1888 1.404 . S
C1889 C1890 1.395 . S
C1889 C1900 1.451 . S
C1890 C1889 1.395 . S
C1890 C1891 1.322 . S
C1890 H1954 0.930 . S
C1891 C1890 1.322 . S
C1891 C1892 1.459 . S
C1891 H1955 0.929 . S
C1892 C1891 1.459 . S
C1892 C1893 1.445 . S
C1892 C1901 1.395 . S
C1893 C1871 1.432 . S
C1893 C1892 1.445 . S
C1893 C1894 1.370 . S
C1894 C1893 1.370 . S
C1894 C1895 1.438 . S
C1894 H1956 0.930 . S
C1895 C1881 1.497 . S
C1895 C1894 1.438 . S
C1895 C1896 1.360 . S
C1896 C1895 1.360 . S
C1896 C1897 1.401 . S
C1896 C1901 1.446 . S
C1897 C1896 1.401 . S
C1897 C1898 1.347 . S
C1897 H1957 0.929 . S
C1898 C1897 1.347 . S
C1898 C1899 1.455 . S
C1898 H1958 0.930 . S
C1899 C1886 1.412 . S
C1899 C1898 1.455 . S
C1899 C1900 1.331 . S
C1900 C1889 1.451 . S
C1900 C1899 1.331 . S
C1900 C1901 1.497 . S
C1901 C1892 1.395 . S
C1901 C1896 1.446 . S
C1901 C1900 1.497 . S
C1902 C1903 1.582 . S
C1902 H1959 0.962 . S
C1902 H1960 0.959 . S
C1902 H1961 0.958 . S
C1903 C1902 1.582 . S
C1903 O1906 1.458 . S
C1903 H1932 0.980 . S
O1904 C1849 1.426 . S
O1904 C1850 1.334 . S
O1905 C1877 1.412 . S
O1905 C1878 1.393 . S
O1906 C1868 1.435 . S
O1906 C1903 1.458 . S
O1907 C1859 1.468 . S
O1907 C1860 1.408 . S
H1908 C1849 0.980 . S
H1909 C1848 0.959 . S
H1910 C1848 0.959 . S
H1911 C1848 0.960 . S
H1912 C1851 0.929 . S
H1913 C1855 0.929 . S
H1914 C1856 0.959 . S
H1915 C1856 0.961 . S
H1916 C1856 0.961 . S
H1917 C1857 0.960 . S
H1918 C1857 0.960 . S
H1919 C1857 0.961 . S
H1920 C1859 0.980 . S
H1921 C1858 0.961 . S
H1922 C1858 0.960 . S
H1923 C1858 0.959 . S
H1924 C1861 0.930 . S
H1925 C1865 0.931 . S
H1926 C1866 0.959 . S
H1927 C1866 0.961 . S
H1928 C1866 0.959 . S
H1929 C1867 0.960 . S
H1930 C1867 0.960 . S
H1931 C1867 0.960 . S
H1932 C1903 0.980 . S
H1933 C1869 0.930 . S
H1934 C1873 0.930 . S
H1935 C1874 0.961 . S
H1936 C1874 0.960 . S
H1937 C1874 0.958 . S
H1938 C1875 0.961 . S
H1939 C1875 0.960 . S
H1940 C1875 0.960 . S
H1941 C1877 0.980 . S
H1942 C1876 0.961 . S
H1943 C1876 0.961 . S
H1944 C1876 0.959 . S
H1945 C1879 0.932 . S
H1946 C1883 0.929 . S
H1947 C1884 0.961 . S
H1948 C1884 0.959 . S
H1949 C1884 0.959 . S
H1950 C1885 0.960 . S
H1951 C1885 0.962 . S
H1952 C1885 0.961 . S
H1953 C1887 0.929 . S
H1954 C1890 0.930 . S
H1955 C1891 0.929 . S
H1956 C1894 0.930 . S
H1957 C1897 0.929 . S
H1958 C1898 0.930 . S
H1959 C1902 0.962 . S
H1960 C1902 0.959 . S
H1961 C1902 0.958 . S
C1962 C1963 1.560 . S
C1962 H2023 0.959 . S
C1962 H2024 0.959 . S
C1962 H2025 0.960 . S
C1963 C1962 1.560 . S
C1963 O2018 1.426 . S
C1963 H2022 0.980 . S
C1964 C1965 1.407 . S
C1964 C1969 1.418 . S
C1964 O2018 1.334 . S
C1965 C1964 1.407 . S
C1965 C1966 1.360 . S
C1965 H2026 0.929 . S
C1966 C1965 1.360 . S
C1966 C1967 1.401 . S
C1966 C1970 1.527 . S
C1967 C1966 1.401 . S
C1967 C1968 1.405 . S
C1967 C2000 1.587 . S
C1968 C1967 1.405 . S
C1968 C1969 1.332 . S
C1968 C1971 1.496 . S
C1969 C1964 1.418 . S
C1969 C1968 1.332 . S
C1969 H2027 0.929 . S
C1970 C1966 1.527 . S
C1970 H2028 0.959 . S
C1970 H2029 0.961 . S
C1970 H2030 0.961 . S
C1971 C1968 1.496 . S
C1971 H2031 0.960 . S
C1971 H2032 0.960 . S
C1971 H2033 0.961 . S
C1972 C1973 1.517 . S
C1972 H2035 0.961 . S
C1972 H2036 0.960 . S
C1972 H2037 0.959 . S
C1973 C1972 1.517 . S
C1973 O2021 1.468 . S
C1973 H2034 0.980 . S
C1974 C1975 1.349 . S
C1974 C1979 1.367 . S
C1974 O2021 1.408 . S
C1975 C1974 1.349 . S
C1975 C1976 1.407 . S
C1975 H2038 0.930 . S
C1976 C1975 1.407 . S
C1976 C1977 1.449 . S
C1976 C1980 1.535 . S
C1977 C1976 1.449 . S
C1977 C1978 1.384 . S
C1977 C2002 1.553 . S
C1978 C1977 1.384 . S
C1978 C1979 1.364 . S
C1978 C1981 1.450 . S
C1979 C1974 1.367 . S
C1979 C1978 1.364 . S
C1979 H2039 0.931 . S
C1980 C1976 1.535 . S
C1980 H2040 0.959 . S
C1980 H2041 0.961 . S
C1980 H2042 0.959 . S
C1981 C1978 1.450 . S
C1981 H2043 0.960 . S
C1981 H2044 0.960 . S
C1981 H2045 0.960 . S
C1982 C1983 1.309 . S
C1982 C1987 1.304 . S
C1982 O2020 1.435 . S
C1983 C1982 1.309 . S
C1983 C1984 1.476 . S
C1983 H2047 0.930 . S
C1984 C1983 1.476 . S
C1984 C1985 1.400 . S
C1984 C1988 1.567 . S
C1985 C1984 1.400 . S
C1985 C1986 1.373 . S
C1985 C2007 1.432 . S
C1986 C1985 1.373 . S
C1986 C1987 1.339 . S
C1986 C1989 1.530 . S
C1987 C1982 1.304 . S
C1987 C1986 1.339 . S
C1987 H2048 0.930 . S
C1988 C1984 1.567 . S
C1988 H2049 0.961 . S
C1988 H2050 0.960 . S
C1988 H2051 0.958 . S
C1989 C1986 1.530 . S
C1989 H2052 0.961 . S
C1989 H2053 0.960 . S
C1989 H2054 0.960 . S
C1990 C1991 1.530 . S
C1990 H2056 0.961 . S
C1990 H2057 0.961 . S
C1990 H2058 0.959 . S
C1991 C1990 1.530 . S
C1991 O2019 1.412 . S
C1991 H2055 0.980 . S
C1992 C1993 1.288 . S
C1992 C1997 1.377 . S
C1992 O2019 1.393 . S
C1993 C1992 1.288 . S
C1993 C1994 1.369 . S
C1993 H2059 0.932 . S
C1994 C1993 1.369 . S
C1994 C1995 1.398 . S
C1994 C1998 1.527 . S
C1995 C1994 1.398 . S
C1995 C1996 1.380 . S
C1995 C2009 1.497 . S
C1996 C1995 1.380 . S
C1996 C1997 1.383 . S
C1996 C1999 1.603 . S
C1997 C1992 1.377 . S
C1997 C1996 1.383 . S
C1997 H2060 0.929 . S
C1998 C1994 1.527 . S
C1998 H2061 0.961 . S
C1998 H2062 0.959 . S
C1998 H2063 0.959 . S
C1999 C1996 1.603 . S
C1999 H2064 0.960 . S
C1999 H2065 0.962 . S
C1999 H2066 0.961 . S
C2000 C1967 1.587 . S
C2000 C2001 1.360 . S
C2000 C2013 1.412 . S
C2001 C2000 1.360 . S
C2001 C2002 1.365 . S
C2001 H2067 0.929 . S
C2002 C1977 1.553 . S
C2002 C2001 1.365 . S
C2002 C2003 1.404 . S
C2003 C2002 1.404 . S
C2003 C2004 1.395 . S
C2003 C2014 1.451 . S
C2004 C2003 1.395 . S
C2004 C2005 1.322 . S
C2004 H2068 0.930 . S
C2005 C2004 1.322 . S
C2005 C2006 1.459 . S
C2005 H2069 0.929 . S
C2006 C2005 1.459 . S
C2006 C2007 1.445 . S
C2006 C2015 1.395 . S
C2007 C1985 1.432 . S
C2007 C2006 1.445 . S
C2007 C2008 1.370 . S
C2008 C2007 1.370 . S
C2008 C2009 1.438 . S
C2008 H2070 0.930 . S
C2009 C1995 1.497 . S
C2009 C2008 1.438 . S
C2009 C2010 1.360 . S
C2010 C2009 1.360 . S
C2010 C2011 1.401 . S
C2010 C2015 1.446 . S
C2011 C2010 1.401 . S
C2011 C2012 1.347 . S
C2011 H2071 0.929 . S
C2012 C2011 1.347 . S
C2012 C2013 1.455 . S
C2012 H2072 0.930 . S
C2013 C2000 1.412 . S
C2013 C2012 1.455 . S
C2013 C2014 1.331 . S
C2014 C2003 1.451 . S
C2014 C2013 1.331 . S
C2014 C2015 1.497 . S
C2015 C2006 1.395 . S
C2015 C2010 1.446 . S
C2015 C2014 1.497 . S
C2016 C2017 1.582 . S
C2016 H2073 0.962 . S
C2016 H2074 0.959 . S
C2016 H2075 0.958 . S
C2017 C2016 1.582 . S
C2017 O2020 1.458 . S
C2017 H2046 0.980 . S
O2018 C1963 1.426 . S
O2018 C1964 1.334 . S
O2019 C1991 1.412 . S
O2019 C1992 1.393 . S
O2020 C1982 1.435 . S
O2020 C2017 1.458 . S
O2021 C1973 1.468 . S
O2021 C1974 1.408 . S
H2022 C1963 0.980 . S
H2023 C1962 0.959 . S
H2024 C1962 0.959 . S
H2025 C1962 0.960 . S
H2026 C1965 0.929 . S
H2027 C1969 0.929 . S
H2028 C1970 0.959 . S
H2029 C1970 0.961 . S
H2030 C1970 0.961 . S
H2031 C1971 0.960 . S
H2032 C1971 0.960 . S
H2033 C1971 0.961 . S
H2034 C1973 0.980 . S
H2035 C1972 0.961 . S
H2036 C1972 0.960 . S
H2037 C1972 0.959 . S
H2038 C1975 0.930 . S
H2039 C1979 0.931 . S
H2040 C1980 0.959 . S
H2041 C1980 0.961 . S
H2042 C1980 0.959 . S
H2043 C1981 0.960 . S
H2044 C1981 0.960 . S
H2045 C1981 0.960 . S
H2046 C2017 0.980 . S
H2047 C1983 0.930 . S
H2048 C1987 0.930 . S
H2049 C1988 0.961 . S
H2050 C1988 0.960 . S
H2051 C1988 0.958 . S
H2052 C1989 0.961 . S
H2053 C1989 0.960 . S
H2054 C1989 0.960 . S
H2055 C1991 0.980 . S
H2056 C1990 0.961 . S
H2057 C1990 0.961 . S
H2058 C1990 0.959 . S
H2059 C1993 0.932 . S
H2060 C1997 0.929 . S
H2061 C1998 0.961 . S
H2062 C1998 0.959 . S
H2063 C1998 0.959 . S
H2064 C1999 0.960 . S
H2065 C1999 0.962 . S
H2066 C1999 0.961 . S
H2067 C2001 0.929 . S
H2068 C2004 0.930 . S
H2069 C2005 0.929 . S
H2070 C2008 0.930 . S
H2071 C2011 0.929 . S
H2072 C2012 0.930 . S
H2073 C2016 0.962 . S
H2074 C2016 0.959 . S
H2075 C2016 0.958 . S
C2076 C2077 1.560 . S
C2076 H2137 0.959 . S
C2076 H2138 0.959 . S
C2076 H2139 0.960 . S
C2077 C2076 1.560 . S
C2077 O2132 1.426 . S
C2077 H2136 0.980 . S
C2078 C2079 1.407 . S
C2078 C2083 1.418 . S
C2078 O2132 1.334 . S
C2079 C2078 1.407 . S
C2079 C2080 1.360 . S
C2079 H2140 0.929 . S
C2080 C2079 1.360 . S
C2080 C2081 1.401 . S
C2080 C2084 1.527 . S
C2081 C2080 1.401 . S
C2081 C2082 1.405 . S
C2081 C2114 1.587 . S
C2082 C2081 1.405 . S
C2082 C2083 1.332 . S
C2082 C2085 1.496 . S
C2083 C2078 1.418 . S
C2083 C2082 1.332 . S
C2083 H2141 0.929 . S
C2084 C2080 1.527 . S
C2084 H2142 0.959 . S
C2084 H2143 0.961 . S
C2084 H2144 0.961 . S
C2085 C2082 1.496 . S
C2085 H2145 0.960 . S
C2085 H2146 0.960 . S
C2085 H2147 0.961 . S
C2086 C2087 1.517 . S
C2086 H2149 0.961 . S
C2086 H2150 0.960 . S
C2086 H2151 0.959 . S
C2087 C2086 1.517 . S
C2087 O2135 1.468 . S
C2087 H2148 0.980 . S
C2088 C2089 1.349 . S
C2088 C2093 1.367 . S
C2088 O2135 1.408 . S
C2089 C2088 1.349 . S
C2089 C2090 1.407 . S
C2089 H2152 0.930 . S
C2090 C2089 1.407 . S
C2090 C2091 1.449 . S
C2090 C2094 1.535 . S
C2091 C2090 1.449 . S
C2091 C2092 1.384 . S
C2091 C2116 1.553 . S
C2092 C2091 1.384 . S
C2092 C2093 1.364 . S
C2092 C2095 1.450 . S
C2093 C2088 1.367 . S
C2093 C2092 1.364 . S
C2093 H2153 0.931 . S
C2094 C2090 1.535 . S
C2094 H2154 0.959 . S
C2094 H2155 0.961 . S
C2094 H2156 0.959 . S
C2095 C2092 1.450 . S
C2095 H2157 0.960 . S
C2095 H2158 0.960 . S
C2095 H2159 0.960 . S
C2096 C2097 1.309 . S
C2096 C2101 1.304 . S
C2096 O2134 1.435 . S
C2097 C2096 1.309 . S
C2097 C2098 1.476 . S
C2097 H2161 0.930 . S
C2098 C2097 1.476 . S
C2098 C2099 1.400 . S
C2098 C2102 1.567 . S
C2099 C2098 1.400 . S
C2099 C2100 1.373 . S
C2099 C2121 1.432 . S
C2100 C2099 1.373 . S
C2100 C2101 1.339 . S
C2100 C2103 1.530 . S
C2101 C2096 1.304 . S
C2101 C2100 1.339 . S
C2101 H2162 0.930 . S
C2102 C2098 1.567 . S
C2102 H2163 0.961 . S
C2102 H2164 0.960 . S
C2102 H2165 0.958 . S
C2103 C2100 1.530 . S
C2103 H2166 0.961 . S
C2103 H2167 0.960 . S
C2103 H2168 0.960 . S
C2104 C2105 1.530 . S
C2104 H2170 0.961 . S
C2104 H2171 0.961 . S
C2104 H2172 0.959 . S
C2105 C2104 1.530 . S
C2105 O2133 1.412 . S
C2105 H2169 0.980 . S
C2106 C2107 1.288 . S
C2106 C2111 1.377 . S
C2106 O2133 1.393 . S
C2107 C2106 1.288 . S
C2107 C2108 1.369 . S
C2107 H2173 0.932 . S
C2108 C2107 1.369 . S
C2108 C2109 1.398 . S
C2108 C2112 1.527 . S
C2109 C2108 1.398 . S
C2109 C2110 1.380 . S
C2109 C2123 1.497 . S
C2110 C2109 1.380 . S
C2110 C2111 1.383 . S
C2110 C2113 1.603 . S
C2111 C2106 1.377 . S
C2111 C2110 1.383 . S
C2111 H2174 0.929 . S
C2112 C2108 1.527 . S
C2112 H2175 0.961 . S
C2112 H2176 0.959 . S
C2112 H2177 0.959 . S
C2113 C2110 1.603 . S
C2113 H2178 0.960 . S
C2113 H2179 0.962 . S
C2113 H2180 0.961 . S
C2114 C2081 1.587 . S
C2114 C2115 1.360 . S
C2114 C2127 1.412 . S
C2115 C2114 1.360 . S
C2115 C2116 1.365 . S
C2115 H2181 0.929 . S
C2116 C2091 1.553 . S
C2116 C2115 1.365 . S
C2116 C2117 1.404 . S
C2117 C2116 1.404 . S
C2117 C2118 1.395 . S
C2117 C2128 1.451 . S
C2118 C2117 1.395 . S
C2118 C2119 1.322 . S
C2118 H2182 0.930 . S
C2119 C2118 1.322 . S
C2119 C2120 1.459 . S
C2119 H2183 0.929 . S
C2120 C2119 1.459 . S
C2120 C2121 1.445 . S
C2120 C2129 1.395 . S
C2121 C2099 1.432 . S
C2121 C2120 1.445 . S
C2121 C2122 1.370 . S
C2122 C2121 1.370 . S
C2122 C2123 1.438 . S
C2122 H2184 0.930 . S
C2123 C2109 1.497 . S
C2123 C2122 1.438 . S
C2123 C2124 1.360 . S
C2124 C2123 1.360 . S
C2124 C2125 1.401 . S
C2124 C2129 1.446 . S
C2125 C2124 1.401 . S
C2125 C2126 1.347 . S
C2125 H2185 0.929 . S
C2126 C2125 1.347 . S
C2126 C2127 1.455 . S
C2126 H2186 0.930 . S
C2127 C2114 1.412 . S
C2127 C2126 1.455 . S
C2127 C2128 1.331 . S
C2128 C2117 1.451 . S
C2128 C2127 1.331 . S
C2128 C2129 1.497 . S
C2129 C2120 1.395 . S
C2129 C2124 1.446 . S
C2129 C2128 1.497 . S
C2130 C2131 1.582 . S
C2130 H2187 0.962 . S
C2130 H2188 0.959 . S
C2130 H2189 0.958 . S
C2131 C2130 1.582 . S
C2131 O2134 1.458 . S
C2131 H2160 0.980 . S
O2132 C2077 1.426 . S
O2132 C2078 1.334 . S
O2133 C2105 1.412 . S
O2133 C2106 1.393 . S
O2134 C2096 1.435 . S
O2134 C2131 1.458 . S
O2135 C2087 1.468 . S
O2135 C2088 1.408 . S
H2136 C2077 0.980 . S
H2137 C2076 0.959 . S
H2138 C2076 0.959 . S
H2139 C2076 0.960 . S
H2140 C2079 0.929 . S
H2141 C2083 0.929 . S
H2142 C2084 0.959 . S
H2143 C2084 0.961 . S
H2144 C2084 0.961 . S
H2145 C2085 0.960 . S
H2146 C2085 0.960 . S
H2147 C2085 0.961 . S
H2148 C2087 0.980 . S
H2149 C2086 0.961 . S
H2150 C2086 0.960 . S
H2151 C2086 0.959 . S
H2152 C2089 0.930 . S
H2153 C2093 0.931 . S
H2154 C2094 0.959 . S
H2155 C2094 0.961 . S
H2156 C2094 0.959 . S
H2157 C2095 0.960 . S
H2158 C2095 0.960 . S
H2159 C2095 0.960 . S
H2160 C2131 0.980 . S
H2161 C2097 0.930 . S
H2162 C2101 0.930 . S
H2163 C2102 0.961 . S
H2164 C2102 0.960 . S
H2165 C2102 0.958 . S
H2166 C2103 0.961 . S
H2167 C2103 0.960 . S
H2168 C2103 0.960 . S
H2169 C2105 0.980 . S
H2170 C2104 0.961 . S
H2171 C2104 0.961 . S
H2172 C2104 0.959 . S
H2173 C2107 0.932 . S
H2174 C2111 0.929 . S
H2175 C2112 0.961 . S
H2176 C2112 0.959 . S
H2177 C2112 0.959 . S
H2178 C2113 0.960 . S
H2179 C2113 0.962 . S
H2180 C2113 0.961 . S
H2181 C2115 0.929 . S
H2182 C2118 0.930 . S
H2183 C2119 0.929 . S
H2184 C2122 0.930 . S
H2185 C2125 0.929 . S
H2186 C2126 0.930 . S
H2187 C2130 0.962 . S
H2188 C2130 0.959 . S
H2189 C2130 0.958 . S
C2190 C2191 1.560 . S
C2190 H2251 0.959 . S
C2190 H2252 0.959 . S
C2190 H2253 0.960 . S
C2191 C2190 1.560 . S
C2191 O2246 1.426 . S
C2191 H2250 0.980 . S
C2192 C2193 1.407 . S
C2192 C2197 1.418 . S
C2192 O2246 1.334 . S
C2193 C2192 1.407 . S
C2193 C2194 1.360 . S
C2193 H2254 0.929 . S
C2194 C2193 1.360 . S
C2194 C2195 1.401 . S
C2194 C2198 1.527 . S
C2195 C2194 1.401 . S
C2195 C2196 1.405 . S
C2195 C2228 1.587 . S
C2196 C2195 1.405 . S
C2196 C2197 1.332 . S
C2196 C2199 1.496 . S
C2197 C2192 1.418 . S
C2197 C2196 1.332 . S
C2197 H2255 0.929 . S
C2198 C2194 1.527 . S
C2198 H2256 0.959 . S
C2198 H2257 0.961 . S
C2198 H2258 0.961 . S
C2199 C2196 1.496 . S
C2199 H2259 0.960 . S
C2199 H2260 0.960 . S
C2199 H2261 0.961 . S
C2200 C2201 1.517 . S
C2200 H2263 0.961 . S
C2200 H2264 0.960 . S
C2200 H2265 0.959 . S
C2201 C2200 1.517 . S
C2201 O2249 1.468 . S
C2201 H2262 0.980 . S
C2202 C2203 1.349 . S
C2202 C2207 1.367 . S
C2202 O2249 1.408 . S
C2203 C2202 1.349 . S
C2203 C2204 1.407 . S
C2203 H2266 0.930 . S
C2204 C2203 1.407 . S
C2204 C2205 1.449 . S
C2204 C2208 1.535 . S
C2205 C2204 1.449 . S
C2205 C2206 1.384 . S
C2205 C2230 1.553 . S
C2206 C2205 1.384 . S
C2206 C2207 1.364 . S
C2206 C2209 1.450 . S
C2207 C2202 1.367 . S
C2207 C2206 1.364 . S
C2207 H2267 0.931 . S
C2208 C2204 1.535 . S
C2208 H2268 0.959 . S
C2208 H2269 0.961 . S
C2208 H2270 0.959 . S
C2209 C2206 1.450 . S
C2209 H2271 0.960 . S
C2209 H2272 0.960 . S
C2209 H2273 0.960 . S
C2210 C2211 1.309 . S
C2210 C2215 1.304 . S
C2210 O2248 1.435 . S
C2211 C2210 1.309 . S
C2211 C2212 1.476 . S
C2211 H2275 0.930 . S
C2212 C2211 1.476 . S
C2212 C2213 1.400 . S
C2212 C2216 1.567 . S
C2213 C2212 1.400 . S
C2213 C2214 1.373 . S
C2213 C2235 1.432 . S
C2214 C2213 1.373 . S
C2214 C2215 1.339 . S
C2214 C2217 1.530 . S
C2215 C2210 1.304 . S
C2215 C2214 1.339 . S
C2215 H2276 0.930 . S
C2216 C2212 1.567 . S
C2216 H2277 0.961 . S
C2216 H2278 0.960 . S
C2216 H2279 0.958 . S
C2217 C2214 1.530 . S
C2217 H2280 0.961 . S
C2217 H2281 0.960 . S
C2217 H2282 0.960 . S
C2218 C2219 1.530 . S
C2218 H2284 0.961 . S
C2218 H2285 0.961 . S
C2218 H2286 0.959 . S
C2219 C2218 1.530 . S
C2219 O2247 1.412 . S
C2219 H2283 0.980 . S
C2220 C2221 1.288 . S
C2220 C2225 1.377 . S
C2220 O2247 1.393 . S
C2221 C2220 1.288 . S
C2221 C2222 1.369 . S
C2221 H2287 0.932 . S
C2222 C2221 1.369 . S
C2222 C2223 1.398 . S
C2222 C2226 1.527 . S
C2223 C2222 1.398 . S
C2223 C2224 1.380 . S
C2223 C2237 1.497 . S
C2224 C2223 1.380 . S
C2224 C2225 1.383 . S
C2224 C2227 1.603 . S
C2225 C2220 1.377 . S
C2225 C2224 1.383 . S
C2225 H2288 0.929 . S
C2226 C2222 1.527 . S
C2226 H2289 0.961 . S
C2226 H2290 0.959 . S
C2226 H2291 0.959 . S
C2227 C2224 1.603 . S
C2227 H2292 0.960 . S
C2227 H2293 0.962 . S
C2227 H2294 0.961 . S
C2228 C2195 1.587 . S
C2228 C2229 1.360 . S
C2228 C2241 1.412 . S
C2229 C2228 1.360 . S
C2229 C2230 1.365 . S
C2229 H2295 0.929 . S
C2230 C2205 1.553 . S
C2230 C2229 1.365 . S
C2230 C2231 1.404 . S
C2231 C2230 1.404 . S
C2231 C2232 1.395 . S
C2231 C2242 1.451 . S
C2232 C2231 1.395 . S
C2232 C2233 1.322 . S
C2232 H2296 0.930 . S
C2233 C2232 1.322 . S
C2233 C2234 1.459 . S
C2233 H2297 0.929 . S
C2234 C2233 1.459 . S
C2234 C2235 1.445 . S
C2234 C2243 1.395 . S
C2235 C2213 1.432 . S
C2235 C2234 1.445 . S
C2235 C2236 1.370 . S
C2236 C2235 1.370 . S
C2236 C2237 1.438 . S
C2236 H2298 0.930 . S
C2237 C2223 1.497 . S
C2237 C2236 1.438 . S
C2237 C2238 1.360 . S
C2238 C2237 1.360 . S
C2238 C2239 1.401 . S
C2238 C2243 1.446 . S
C2239 C2238 1.401 . S
C2239 C2240 1.347 . S
C2239 H2299 0.929 . S
C2240 C2239 1.347 . S
C2240 C2241 1.455 . S
C2240 H2300 0.930 . S
C2241 C2228 1.412 . S
C2241 C2240 1.455 . S
C2241 C2242 1.331 . S
C2242 C2231 1.451 . S
C2242 C2241 1.331 . S
C2242 C2243 1.497 . S
C2243 C2234 1.395 . S
C2243 C2238 1.446 . S
C2243 C2242 1.497 . S
C2244 C2245 1.582 . S
C2244 H2301 0.962 . S
C2244 H2302 0.959 . S
C2244 H2303 0.958 . S
C2245 C2244 1.582 . S
C2245 O2248 1.458 . S
C2245 H2274 0.980 . S
O2246 C2191 1.426 . S
O2246 C2192 1.334 . S
O2247 C2219 1.412 . S
O2247 C2220 1.393 . S
O2248 C2210 1.435 . S
O2248 C2245 1.458 . S
O2249 C2201 1.468 . S
O2249 C2202 1.408 . S
H2250 C2191 0.980 . S
H2251 C2190 0.959 . S
H2252 C2190 0.959 . S
H2253 C2190 0.960 . S
H2254 C2193 0.929 . S
H2255 C2197 0.929 . S
H2256 C2198 0.959 . S
H2257 C2198 0.961 . S
H2258 C2198 0.961 . S
H2259 C2199 0.960 . S
H2260 C2199 0.960 . S
H2261 C2199 0.961 . S
H2262 C2201 0.980 . S
H2263 C2200 0.961 . S
H2264 C2200 0.960 . S
H2265 C2200 0.959 . S
H2266 C2203 0.930 . S
H2267 C2207 0.931 . S
H2268 C2208 0.959 . S
H2269 C2208 0.961 . S
H2270 C2208 0.959 . S
H2271 C2209 0.960 . S
H2272 C2209 0.960 . S
H2273 C2209 0.960 . S
H2274 C2245 0.980 . S
H2275 C2211 0.930 . S
H2276 C2215 0.930 . S
H2277 C2216 0.961 . S
H2278 C2216 0.960 . S
H2279 C2216 0.958 . S
H2280 C2217 0.961 . S
H2281 C2217 0.960 . S
H2282 C2217 0.960 . S
H2283 C2219 0.980 . S
H2284 C2218 0.961 . S
H2285 C2218 0.961 . S
H2286 C2218 0.959 . S
H2287 C2221 0.932 . S
H2288 C2225 0.929 . S
H2289 C2226 0.961 . S
H2290 C2226 0.959 . S
H2291 C2226 0.959 . S
H2292 C2227 0.960 . S
H2293 C2227 0.962 . S
H2294 C2227 0.961 . S
H2295 C2229 0.929 . S
H2296 C2232 0.930 . S
H2297 C2233 0.929 . S
H2298 C2236 0.930 . S
H2299 C2239 0.929 . S
H2300 C2240 0.930 . S
H2301 C2244 0.962 . S
H2302 C2244 0.959 . S
H2303 C2244 0.958 . S
H2304 C2322 0.951 . S
H2305 C2324 0.951 . S
H2306 C2326 0.950 . S
H2307 C2327 0.950 . S
H2308 C2329 0.950 . S
H2309 C2332 0.950 . S
H2310 C2333 0.950 . S
H2311 C2335 0.950 . S
H2312 C2336 0.950 . S
H2313 C2337 0.951 . S
H2314 C2339 0.951 . S
H2315 C2341 0.950 . S
H2316 C2342 0.950 . S
H2317 C2344 0.950 . S
H2318 C2347 0.950 . S
H2319 C2348 0.950 . S
H2320 C2350 0.899 1_455 S
H2321 C2351 0.950 . S
C2322 H2304 0.951 . S
C2322 C2323 1.366 . S
C2322 C2324 1.388 . S
C2323 C2322 1.366 . S
C2323 C2327 1.385 1_655 S
C2324 H2305 0.951 . S
C2324 C2322 1.388 . S
C2324 C2325 1.366 . S
C2325 C2324 1.366 . S
C2325 C2326 1.414 1_655 S
C2325 C2328 1.499 . S
C2326 H2306 0.950 . S
C2326 C2325 1.414 1_455 S
C2326 C2327 1.374 . S
C2327 H2307 0.950 . S
C2327 C2323 1.385 1_455 S
C2327 C2326 1.374 . S
C2328 C2325 1.499 . S
C2328 C2329 1.373 . S
C2328 C2330 1.389 . S
C2329 H2308 0.950 . S
C2329 C2328 1.373 . S
C2329 C2345 1.377 . S
C2330 C2328 1.389 . S
C2330 C2331 1.524 . S
C2330 C2344 1.377 . S
C2331 C2330 1.524 . S
C2331 C2332 1.397 1_655 S
C2331 C2336 1.363 . S
C2332 H2309 0.950 . S
C2332 C2331 1.397 1_455 S
C2332 C2333 1.334 . S
C2333 H2310 0.950 . S
C2333 C2332 1.334 . S
C2333 C2334 1.287 . S
C2334 C2333 1.287 . S
C2334 C2335 1.524 1_455 S
C2334 H2353 0.913 . S
C2335 H2311 0.950 . S
C2335 C2334 1.524 1_655 S
C2335 C2336 1.415 . S
C2336 H2312 0.950 . S
C2336 C2331 1.363 . S
C2336 C2335 1.415 . S
C2337 H2313 0.951 . S
C2337 C2338 1.366 1_455 S
C2337 C2339 1.388 . S
C2338 C2337 1.366 1_655 S
C2338 C2342 1.385 . S
C2339 H2314 0.951 . S
C2339 C2337 1.388 . S
C2339 C2340 1.366 1_455 S
C2340 C2339 1.366 1_655 S
C2340 C2341 1.414 . S
C2340 C2343 1.499 . S
C2341 H2315 0.950 . S
C2341 C2340 1.414 . S
C2341 C2342 1.374 . S
C2342 H2316 0.950 . S
C2342 C2338 1.385 . S
C2342 C2341 1.374 . S
C2343 C2340 1.499 . S
C2343 C2344 1.373 . S
C2343 C2345 1.389 . S
C2344 H2317 0.950 . S
C2344 C2330 1.377 . S
C2344 C2343 1.373 . S
C2345 C2329 1.377 . S
C2345 C2343 1.389 . S
C2345 C2346 1.524 . S
C2346 C2345 1.524 . S
C2346 C2347 1.397 . S
C2346 C2351 1.363 1_655 S
C2347 H2318 0.950 . S
C2347 C2346 1.397 . S
C2347 C2348 1.334 . S
C2348 H2319 0.950 . S
C2348 C2347 1.334 . S
C2348 C2349 1.287 . S
C2349 C2348 1.287 . S
C2349 C2350 1.581 . S
C2349 H2352 0.999 . S
C2350 H2320 0.899 1_655 S
C2350 C2349 1.581 . S
C2350 C2351 1.418 1_655 S
C2351 H2321 0.950 . S
C2351 C2346 1.363 1_455 S
C2351 C2350 1.418 1_455 S
H2352 C2349 0.999 . S
H2353 C2334 0.913 . S
H2354 C2372 0.951 . S
H2355 C2374 0.951 . S
H2356 C2376 0.950 . S
H2357 C2377 0.950 . S
H2358 C2379 0.950 . S
H2359 C2382 0.950 . S
H2360 C2383 0.950 . S
H2361 C2385 0.950 . S
H2362 C2386 0.950 . S
H2363 C2387 0.951 . S
H2364 C2389 0.951 . S
H2365 C2391 0.950 . S
H2366 C2392 0.950 . S
H2367 C2394 0.950 . S
H2368 C2397 0.950 . S
H2369 C2398 0.950 . S
H2370 C2400 0.950 . S
H2371 C2401 0.950 . S
C2372 H2354 0.951 . S
C2372 C2373 1.366 . S
C2372 C2374 1.388 . S
C2373 C2372 1.366 . S
C2373 C2377 1.385 . S
C2374 H2355 0.951 . S
C2374 C2372 1.388 . S
C2374 C2375 1.366 . S
C2375 C2374 1.366 . S
C2375 C2376 1.414 . S
C2375 C2378 1.499 . S
C2376 H2356 0.950 . S
C2376 C2375 1.414 . S
C2376 C2377 1.374 . S
C2377 H2357 0.950 . S
C2377 C2373 1.385 . S
C2377 C2376 1.374 . S
C2378 C2375 1.499 . S
C2378 C2379 1.373 . S
C2378 C2380 1.389 . S
C2379 H2358 0.950 . S
C2379 C2378 1.373 . S
C2379 C2395 1.377 . S
C2380 C2378 1.389 . S
C2380 C2381 1.524 . S
C2380 C2394 1.377 . S
C2381 C2380 1.524 . S
C2381 C2382 1.397 . S
C2381 C2386 1.363 . S
C2382 H2359 0.950 . S
C2382 C2381 1.397 . S
C2382 C2383 1.334 . S
C2383 H2360 0.950 . S
C2383 C2382 1.334 . S
C2383 C2384 1.287 . S
C2384 C2383 1.287 . S
C2384 C2385 1.524 . S
C2384 H2403 0.913 . S
C2385 H2361 0.950 . S
C2385 C2384 1.524 . S
C2385 C2386 1.415 . S
C2386 H2362 0.950 . S
C2386 C2381 1.363 . S
C2386 C2385 1.415 . S
C2387 H2363 0.951 . S
C2387 C2388 1.366 . S
C2387 C2389 1.388 . S
C2388 C2387 1.366 . S
C2388 C2392 1.385 . S
C2389 H2364 0.951 . S
C2389 C2387 1.388 . S
C2389 C2390 1.366 . S
C2390 C2389 1.366 . S
C2390 C2391 1.414 . S
C2390 C2393 1.499 . S
C2391 H2365 0.950 . S
C2391 C2390 1.414 . S
C2391 C2392 1.374 . S
C2392 H2366 0.950 . S
C2392 C2388 1.385 . S
C2392 C2391 1.374 . S
C2393 C2390 1.499 . S
C2393 C2394 1.373 . S
C2393 C2395 1.389 . S
C2394 H2367 0.950 . S
C2394 C2380 1.377 . S
C2394 C2393 1.373 . S
C2395 C2379 1.377 . S
C2395 C2393 1.389 . S
C2395 C2396 1.524 . S
C2396 C2395 1.524 . S
C2396 C2397 1.397 . S
C2396 C2401 1.363 . S
C2397 H2368 0.950 . S
C2397 C2396 1.397 . S
C2397 C2398 1.334 . S
C2398 H2369 0.950 . S
C2398 C2397 1.334 . S
C2398 C2399 1.287 . S
C2399 C2398 1.287 . S
C2399 C2400 1.524 . S
C2399 H2402 0.999 . S
C2400 H2370 0.950 . S
C2400 C2399 1.524 . S
C2400 C2401 1.415 . S
C2401 H2371 0.950 . S
C2401 C2396 1.363 . S
C2401 C2400 1.415 . S
H2402 C2399 0.999 . S
H2403 C2384 0.913 . S
H2404 C2422 0.951 . S
H2405 C2424 1.027 . S
H2406 C2426 0.950 . S
H2407 C2427 0.950 . S
H2408 C2429 0.950 . S
H2409 C2432 0.950 . S
H2410 C2433 0.950 . S
H2411 C2435 0.950 . S
H2412 C2436 0.950 . S
H2413 C2437 0.951 . S
H2414 C2439 0.951 . S
H2415 C2441 0.950 1_565 S
H2416 C2442 0.934 1_565 S
H2417 C2444 0.932 1_565 S
H2418 C2447 0.950 . S
H2419 C2448 0.950 . S
H2420 C2450 0.950 . S
H2421 C2451 0.950 . S
C2422 H2404 0.951 . S
C2422 C2423 1.366 . S
C2422 C2424 1.388 . S
C2423 C2422 1.366 . S
C2423 C2427 1.385 . S
C2424 H2405 1.027 . S
C2424 C2422 1.388 . S
C2424 C2425 1.366 . S
C2425 C2424 1.366 . S
C2425 C2426 1.414 . S
C2425 C2428 1.499 . S
C2426 H2406 0.950 . S
C2426 C2425 1.414 . S
C2426 C2427 1.374 . S
C2427 H2407 0.950 . S
C2427 C2423 1.385 . S
C2427 C2426 1.374 . S
C2428 C2425 1.499 . S
C2428 C2429 1.373 . S
C2428 C2430 1.389 . S
C2429 H2408 0.950 . S
C2429 C2428 1.373 . S
C2429 C2445 1.377 . S
C2430 C2428 1.389 . S
C2430 C2431 1.524 1_545 S
C2430 C2444 1.386 . S
C2431 C2430 1.524 1_565 S
C2431 C2432 1.397 . S
C2431 C2436 1.363 . S
C2432 H2409 0.950 . S
C2432 C2431 1.397 . S
C2432 C2433 1.334 . S
C2433 H2410 0.950 . S
C2433 C2432 1.334 . S
C2433 C2434 1.287 . S
C2434 C2433 1.287 . S
C2434 C2435 1.524 . S
C2434 H2453 0.913 . S
C2435 H2411 0.950 . S
C2435 C2434 1.524 . S
C2435 C2436 1.415 . S
C2436 H2412 0.950 . S
C2436 C2431 1.363 . S
C2436 C2435 1.415 . S
C2437 H2413 0.951 . S
C2437 C2438 1.366 . S
C2437 C2439 1.388 . S
C2438 C2437 1.366 . S
C2438 C2442 1.393 . S
C2439 H2414 0.951 . S
C2439 C2437 1.388 . S
C2439 C2440 1.366 . S
C2440 C2439 1.366 . S
C2440 C2441 1.414 . S
C2440 C2443 1.499 . S
C2441 H2415 0.950 1_545 S
C2441 C2440 1.414 . S
C2441 C2442 1.381 . S
C2442 H2416 0.934 1_545 S
C2442 C2438 1.393 . S
C2442 C2441 1.381 . S
C2443 C2440 1.499 . S
C2443 C2444 1.382 . S
C2443 C2445 1.389 . S
C2444 H2417 0.932 1_545 S
C2444 C2430 1.386 . S
C2444 C2443 1.382 . S
C2445 C2429 1.377 . S
C2445 C2443 1.389 . S
C2445 C2446 1.524 . S
C2446 C2445 1.524 . S
C2446 C2447 1.397 . S
C2446 C2451 1.363 . S
C2447 H2418 0.950 . S
C2447 C2446 1.397 . S
C2447 C2448 1.334 . S
C2448 H2419 0.950 . S
C2448 C2447 1.334 . S
C2448 C2449 1.287 . S
C2449 C2448 1.287 . S
C2449 C2450 1.524 . S
C2449 H2452 0.999 . S
C2450 H2420 0.950 . S
C2450 C2449 1.524 . S
C2450 C2451 1.415 . S
C2451 H2421 0.950 . S
C2451 C2446 1.363 . S
C2451 C2450 1.415 . S
H2452 C2449 0.999 . S
H2453 C2434 0.913 . S
H2454 C2472 0.951 . S
H2455 C2474 0.951 . S
H2456 C2476 0.950 . S
H2457 C2477 0.950 . S
H2458 C2479 0.950 . S
H2459 C2482 0.950 . S
H2460 C2483 0.950 . S
H2461 C2485 0.950 . S
H2462 C2486 0.950 . S
H2463 C2487 0.951 . S
H2464 C2489 0.951 . S
H2465 C2491 0.950 . S
H2466 C2492 0.950 . S
H2467 C2494 0.950 . S
H2468 C2497 0.950 1_545 S
H2469 C2498 0.950 1_545 S
H2470 C2500 0.950 . S
H2471 C2501 0.950 . S
C2472 H2454 0.951 . S
C2472 C2473 1.312 1_545 S
C2472 C2474 1.388 . S
C2473 C2472 1.312 1_565 S
C2473 C2477 1.482 . S
C2474 H2455 0.951 . S
C2474 C2472 1.388 . S
C2474 C2475 1.366 1_545 S
C2475 C2474 1.366 1_565 S
C2475 C2476 1.414 . S
C2475 C2478 1.499 . S
C2476 H2456 0.950 . S
C2476 C2475 1.414 . S
C2476 C2477 1.374 . S
C2477 H2457 0.950 . S
C2477 C2473 1.482 . S
C2477 C2476 1.374 . S
C2478 C2475 1.499 . S
C2478 C2479 1.373 . S
C2478 C2480 1.389 1_565 S
C2479 H2458 0.950 . S
C2479 C2478 1.373 . S
C2479 C2495 1.377 . S
C2480 C2478 1.389 1_545 S
C2480 C2481 1.524 . S
C2480 C2494 1.377 . S
C2481 C2480 1.524 . S
C2481 C2482 1.397 1_545 S
C2481 C2486 1.363 . S
C2482 H2459 0.950 . S
C2482 C2481 1.397 1_565 S
C2482 C2483 1.334 . S
C2483 H2460 0.950 . S
C2483 C2482 1.334 . S
C2483 C2484 1.287 1_565 S
C2484 C2483 1.287 1_545 S
C2484 C2485 1.524 . S
C2484 H2503 0.913 . S
C2485 H2461 0.950 . S
C2485 C2484 1.524 . S
C2485 C2486 1.415 . S
C2486 H2462 0.950 . S
C2486 C2481 1.363 . S
C2486 C2485 1.415 . S
C2487 H2463 0.951 . S
C2487 C2488 1.366 . S
C2487 C2489 1.388 . S
C2488 C2487 1.366 . S
C2488 C2492 1.385 1_565 S
C2489 H2464 0.951 . S
C2489 C2487 1.388 . S
C2489 C2490 1.366 . S
C2490 C2489 1.366 . S
C2490 C2491 1.414 1_565 S
C2490 C2493 1.499 . S
C2491 H2465 0.950 . S
C2491 C2490 1.414 1_545 S
C2491 C2492 1.374 . S
C2492 H2466 0.950 . S
C2492 C2488 1.385 1_545 S
C2492 C2491 1.374 . S
C2493 C2490 1.499 . S
C2493 C2494 1.373 1_565 S
C2493 C2495 1.389 . S
C2494 H2467 0.950 . S
C2494 C2480 1.377 . S
C2494 C2493 1.373 1_545 S
C2495 C2479 1.377 . S
C2495 C2493 1.389 . S
C2495 C2496 1.524 . S
C2496 C2495 1.524 . S
C2496 C2497 1.397 . S
C2496 C2501 1.363 . S
C2497 H2468 0.950 1_565 S
C2497 C2496 1.397 . S
C2497 C2498 1.334 . S
C2498 H2469 0.950 1_565 S
C2498 C2497 1.334 . S
C2498 C2499 1.287 . S
C2499 C2498 1.287 . S
C2499 C2500 1.524 . S
C2499 H2502 0.999 . S
C2500 H2470 0.950 . S
C2500 C2499 1.524 . S
C2500 C2501 1.415 . S
C2501 H2471 0.950 . S
C2501 C2496 1.363 . S
C2501 C2500 1.415 . S
H2502 C2499 0.999 . S
H2503 C2484 0.913 . S
H2504 C2522 0.951 1_655 S
H2505 C2524 0.888 1_655 S
H2506 C2526 0.950 . S
H2507 C2527 0.950 . S
H2508 C2529 0.950 . S
H2509 C2532 0.950 . S
H2510 C2533 0.950 . S
H2511 C2535 0.950 . S
H2512 C2536 0.950 . S
H2513 C2537 0.951 . S
H2514 C2539 0.951 . S
H2515 C2541 0.950 . S
H2516 C2542 0.950 . S
H2517 C2544 0.950 1_655 S
H2518 C2547 0.950 . S
H2519 C2548 0.950 . S
H2520 C2550 0.950 . S
H2521 C2551 0.950 . S
C2522 H2504 0.951 1_455 S
C2522 C2523 1.366 . S
C2522 C2524 1.420 . S
C2523 C2522 1.366 . S
C2523 C2527 1.385 . S
C2524 H2505 0.888 1_455 S
C2524 C2522 1.420 . S
C2524 C2525 1.399 . S
C2525 C2524 1.399 . S
C2525 C2526 1.414 . S
C2525 C2528 1.499 . S
C2526 H2506 0.950 . S
C2526 C2525 1.414 . S
C2526 C2527 1.374 . S
C2527 H2507 0.950 . S
C2527 C2523 1.385 . S
C2527 C2526 1.374 . S
C2528 C2525 1.499 . S
C2528 C2529 1.373 . S
C2528 C2530 1.389 . S
C2529 H2508 0.950 . S
C2529 C2528 1.373 . S
C2529 C2545 1.377 . S
C2530 C2528 1.389 . S
C2530 C2531 1.508 . S
C2530 C2544 1.377 . S
C2531 C2530 1.508 . S
C2531 C2532 1.481 . S
C2531 C2536 1.303 1_455 S
C2532 H2509 0.950 . S
C2532 C2531 1.481 . S
C2532 C2533 1.334 . S
C2533 H2510 0.950 . S
C2533 C2532 1.334 . S
C2533 C2534 1.287 1_455 S
C2534 C2533 1.287 1_655 S
C2534 C2535 1.524 . S
C2534 H2553 0.913 . S
C2535 H2511 0.950 . S
C2535 C2534 1.524 . S
C2535 C2536 1.415 . S
C2536 H2512 0.950 . S
C2536 C2531 1.303 1_655 S
C2536 C2535 1.415 . S
C2537 H2513 0.951 . S
C2537 C2538 1.366 . S
C2537 C2539 1.388 . S
C2538 C2537 1.366 . S
C2538 C2542 1.385 1_455 S
C2539 H2514 0.951 . S
C2539 C2537 1.388 . S
C2539 C2540 1.366 . S
C2540 C2539 1.366 . S
C2540 C2541 1.414 1_455 S
C2540 C2543 1.499 . S
C2541 H2515 0.950 . S
C2541 C2540 1.414 1_655 S
C2541 C2542 1.374 . S
C2542 H2516 0.950 . S
C2542 C2538 1.385 1_655 S
C2542 C2541 1.374 . S
C2543 C2540 1.499 . S
C2543 C2544 1.373 . S
C2543 C2545 1.389 . S
C2544 H2517 0.950 1_455 S
C2544 C2530 1.377 . S
C2544 C2543 1.373 . S
C2545 C2529 1.377 . S
C2545 C2543 1.389 . S
C2545 C2546 1.524 . S
C2546 C2545 1.524 . S
C2546 C2547 1.397 . S
C2546 C2551 1.363 . S
C2547 H2518 0.950 . S
C2547 C2546 1.397 . S
C2547 C2548 1.334 . S
C2548 H2519 0.950 . S
C2548 C2547 1.334 . S
C2548 C2549 1.287 . S
C2549 C2548 1.287 . S
C2549 C2550 1.524 . S
C2549 H2552 0.999 . S
C2550 H2520 0.950 . S
C2550 C2549 1.524 . S
C2550 C2551 1.415 . S
C2551 H2521 0.950 . S
C2551 C2546 1.363 . S
C2551 C2550 1.415 . S
H2552 C2549 0.999 . S
H2553 C2534 0.913 . S
H2554 C2572 0.951 1_554 S
H2555 C2574 0.951 . S
H2556 C2576 0.950 . S
H2557 C2577 0.950 . S
H2558 C2579 0.950 . S
H2559 C2582 0.950 . S
H2560 C2583 0.950 . S
H2561 C2585 0.950 . S
H2562 C2586 0.950 . S
H2563 C2587 0.951 . S
H2564 C2589 0.951 . S
H2565 C2591 0.950 . S
H2566 C2592 0.950 . S
H2567 C2594 0.950 . S
H2568 C2597 0.950 . S
H2569 C2598 0.950 . S
H2570 C2600 0.950 . S
H2571 C2601 0.950 . S
C2572 H2554 0.951 1_556 S
C2572 C2573 1.366 . S
C2572 C2574 1.388 . S
C2573 C2572 1.366 . S
C2573 C2577 1.385 . S
C2574 H2555 0.951 . S
C2574 C2572 1.388 . S
C2574 C2575 1.366 . S
C2575 C2574 1.366 . S
C2575 C2576 1.414 . S
C2575 C2578 1.499 . S
C2576 H2556 0.950 . S
C2576 C2575 1.414 . S
C2576 C2577 1.374 . S
C2577 H2557 0.950 . S
C2577 C2573 1.385 . S
C2577 C2576 1.374 . S
C2578 C2575 1.499 . S
C2578 C2579 1.373 . S
C2578 C2580 1.389 . S
C2579 H2558 0.950 . S
C2579 C2578 1.373 . S
C2579 C2595 1.377 . S
C2580 C2578 1.389 . S
C2580 C2581 1.524 . S
C2580 C2594 1.377 . S
C2581 C2580 1.524 . S
C2581 C2582 1.397 . S
C2581 C2586 1.363 . S
C2582 H2559 0.950 . S
C2582 C2581 1.397 . S
C2582 C2583 1.334 . S
C2583 H2560 0.950 . S
C2583 C2582 1.334 . S
C2583 C2584 1.287 . S
C2584 C2583 1.287 . S
C2584 C2585 1.524 . S
C2584 H2603 0.913 . S
C2585 H2561 0.950 . S
C2585 C2584 1.524 . S
C2585 C2586 1.415 . S
C2586 H2562 0.950 . S
C2586 C2581 1.363 . S
C2586 C2585 1.415 . S
C2587 H2563 0.951 . S
C2587 C2588 1.366 . S
C2587 C2589 1.388 . S
C2588 C2587 1.366 . S
C2588 C2592 1.385 . S
C2589 H2564 0.951 . S
C2589 C2587 1.388 . S
C2589 C2590 1.366 . S
C2590 C2589 1.366 . S
C2590 C2591 1.414 . S
C2590 C2593 1.499 . S
C2591 H2565 0.950 . S
C2591 C2590 1.414 . S
C2591 C2592 1.374 . S
C2592 H2566 0.950 . S
C2592 C2588 1.385 . S
C2592 C2591 1.374 . S
C2593 C2590 1.499 . S
C2593 C2594 1.373 . S
C2593 C2595 1.389 . S
C2594 H2567 0.950 . S
C2594 C2580 1.377 . S
C2594 C2593 1.373 . S
C2595 C2579 1.377 . S
C2595 C2593 1.389 . S
C2595 C2596 1.524 . S
C2596 C2595 1.524 . S
C2596 C2597 1.397 . S
C2596 C2601 1.363 . S
C2597 H2568 0.950 . S
C2597 C2596 1.397 . S
C2597 C2598 1.334 . S
C2598 H2569 0.950 . S
C2598 C2597 1.334 . S
C2598 C2599 1.287 . S
C2599 C2598 1.287 . S
C2599 C2600 1.524 . S
C2599 H2602 0.999 . S
C2600 H2570 0.950 . S
C2600 C2599 1.524 . S
C2600 C2601 1.415 . S
C2601 H2571 0.950 . S
C2601 C2596 1.363 . S
C2601 C2600 1.415 . S
H2602 C2599 0.999 . S
H2603 C2584 0.913 . S
H2604 C2622 0.951 . S
H2605 C2624 0.951 . S
H2606 C2626 0.950 . S
H2607 C2627 0.950 . S
H2608 C2629 0.950 . S
H2609 C2632 0.950 1_455 S
H2610 C2633 0.950 1_554 S
H2611 C2635 0.950 . S
H2612 C2636 0.950 . S
H2613 C2637 0.951 . S
H2614 C2639 0.951 . S
H2615 C2641 0.950 . S
H2616 C2642 0.950 . S
H2617 C2644 0.950 . S
H2618 C2647 0.950 . S
H2619 C2648 0.950 . S
H2620 C2650 0.950 . S
H2621 C2651 0.950 . S
C2622 H2604 0.951 . S
C2622 C2623 1.366 1_655 S
C2622 C2624 1.388 . S
C2623 C2622 1.366 1_455 S
C2623 C2627 1.385 . S
C2624 H2605 0.951 . S
C2624 C2622 1.388 . S
C2624 C2625 1.366 1_655 S
C2625 C2624 1.366 1_455 S
C2625 C2626 1.414 . S
C2625 C2628 1.499 . S
C2626 H2606 0.950 . S
C2626 C2625 1.414 . S
C2626 C2627 1.374 . S
C2627 H2607 0.950 . S
C2627 C2623 1.385 . S
C2627 C2626 1.374 . S
C2628 C2625 1.499 . S
C2628 C2629 1.373 . S
C2628 C2630 1.389 1_455 S
C2629 H2608 0.950 . S
C2629 C2628 1.373 . S
C2629 C2645 1.377 . S
C2630 C2628 1.389 1_655 S
C2630 C2631 1.524 . S
C2630 C2644 1.377 . S
C2631 C2630 1.524 . S
C2631 C2632 1.397 . S
C2631 C2636 1.363 . S
C2632 H2609 0.950 1_655 S
C2632 C2631 1.397 . S
C2632 C2633 1.334 . S
C2633 H2610 0.950 1_556 S
C2633 C2632 1.334 . S
C2633 C2634 1.287 . S
C2634 C2633 1.287 . S
C2634 C2635 1.524 . S
C2634 H2653 0.913 1_556 S
C2635 H2611 0.950 . S
C2635 C2634 1.524 . S
C2635 C2636 1.415 . S
C2636 H2612 0.950 . S
C2636 C2631 1.363 . S
C2636 C2635 1.415 . S
C2637 H2613 0.951 . S
C2637 C2638 1.366 . S
C2637 C2639 1.388 . S
C2638 C2637 1.366 . S
C2638 C2642 1.385 1_455 S
C2639 H2614 0.951 . S
C2639 C2637 1.388 . S
C2639 C2640 1.366 . S
C2640 C2639 1.366 . S
C2640 C2641 1.414 1_455 S
C2640 C2643 1.499 . S
C2641 H2615 0.950 . S
C2641 C2640 1.414 1_655 S
C2641 C2642 1.374 . S
C2642 H2616 0.950 . S
C2642 C2638 1.385 1_655 S
C2642 C2641 1.374 . S
C2643 C2640 1.499 . S
C2643 C2644 1.373 1_455 S
C2643 C2645 1.389 . S
C2644 H2617 0.950 . S
C2644 C2630 1.377 . S
C2644 C2643 1.373 1_655 S
C2645 C2629 1.377 . S
C2645 C2643 1.389 . S
C2645 C2646 1.524 . S
C2646 C2645 1.524 . S
C2646 C2647 1.397 . S
C2646 C2651 1.363 . S
C2647 H2618 0.950 . S
C2647 C2646 1.397 . S
C2647 C2648 1.334 . S
C2648 H2619 0.950 . S
C2648 C2647 1.334 . S
C2648 C2649 1.287 . S
C2649 C2648 1.287 . S
C2649 C2650 1.524 . S
C2649 H2652 0.999 . S
C2650 H2620 0.950 . S
C2650 C2649 1.524 . S
C2650 C2651 1.415 . S
C2651 H2621 0.950 . S
C2651 C2646 1.363 . S
C2651 C2650 1.415 . S
H2652 C2649 0.999 . S
H2653 C2634 0.913 1_554 S
H2654 C2672 0.951 . S
H2655 C2674 0.951 . S
H2656 C2676 0.950 . S
H2657 C2677 0.950 . S
H2658 C2679 0.950 . S
H2659 C2682 0.950 . S
H2660 C2683 0.950 . S
H2661 C2685 0.950 . S
H2662 C2686 0.950 . S
H2663 C2687 0.951 . S
H2664 C2689 0.951 . S
H2665 C2691 0.950 . S
H2666 C2692 0.950 . S
H2667 C2694 0.950 . S
H2668 C2697 0.950 . S
H2669 C2698 0.950 . S
H2670 C2700 0.950 . S
H2671 C2701 0.950 . S
C2672 H2654 0.951 . S
C2672 C2673 1.366 . S
C2672 C2674 1.388 . S
C2673 C2672 1.366 . S
C2673 C2677 1.385 . S
C2674 H2655 0.951 . S
C2674 C2672 1.388 . S
C2674 C2675 1.366 . S
C2675 C2674 1.366 . S
C2675 C2676 1.414 . S
C2675 C2678 1.499 . S
C2676 H2656 0.950 . S
C2676 C2675 1.414 . S
C2676 C2677 1.374 . S
C2677 H2657 0.950 . S
C2677 C2673 1.385 . S
C2677 C2676 1.374 . S
C2678 C2675 1.499 . S
C2678 C2679 1.373 . S
C2678 C2680 1.389 . S
C2679 H2658 0.950 . S
C2679 C2678 1.373 . S
C2679 C2695 1.377 . S
C2680 C2678 1.389 . S
C2680 C2681 1.524 . S
C2680 C2694 1.377 . S
C2681 C2680 1.524 . S
C2681 C2682 1.397 . S
C2681 C2686 1.363 . S
C2682 H2659 0.950 . S
C2682 C2681 1.397 . S
C2682 C2683 1.334 . S
C2683 H2660 0.950 . S
C2683 C2682 1.334 . S
C2683 C2684 1.287 . S
C2684 C2683 1.287 . S
C2684 C2685 1.524 . S
C2684 H2703 0.913 . S
C2685 H2661 0.950 . S
C2685 C2684 1.524 . S
C2685 C2686 1.415 . S
C2686 H2662 0.950 . S
C2686 C2681 1.363 . S
C2686 C2685 1.415 . S
C2687 H2663 0.951 . S
C2687 C2688 1.366 . S
C2687 C2689 1.388 . S
C2688 C2687 1.366 . S
C2688 C2692 1.385 . S
C2689 H2664 0.951 . S
C2689 C2687 1.388 . S
C2689 C2690 1.366 . S
C2690 C2689 1.366 . S
C2690 C2691 1.414 . S
C2690 C2693 1.499 . S
C2691 H2665 0.950 . S
C2691 C2690 1.414 . S
C2691 C2692 1.374 . S
C2692 H2666 0.950 . S
C2692 C2688 1.385 . S
C2692 C2691 1.374 . S
C2693 C2690 1.499 . S
C2693 C2694 1.373 . S
C2693 C2695 1.389 . S
C2694 H2667 0.950 . S
C2694 C2680 1.377 . S
C2694 C2693 1.373 . S
C2695 C2679 1.377 . S
C2695 C2693 1.389 . S
C2695 C2696 1.524 . S
C2696 C2695 1.524 . S
C2696 C2697 1.397 . S
C2696 C2701 1.363 . S
C2697 H2668 0.950 . S
C2697 C2696 1.397 . S
C2697 C2698 1.334 . S
C2698 H2669 0.950 . S
C2698 C2697 1.334 . S
C2698 C2699 1.287 . S
C2699 C2698 1.287 . S
C2699 C2700 1.524 . S
C2699 H2702 0.999 . S
C2700 H2670 0.950 . S
C2700 C2699 1.524 . S
C2700 C2701 1.415 . S
C2701 H2671 0.950 . S
C2701 C2696 1.363 . S
C2701 C2700 1.415 . S
H2702 C2699 0.999 . S
H2703 C2684 0.913 . S
H2704 C2722 0.951 . S
H2705 C2724 0.951 . S
H2706 C2726 0.950 . S
H2707 C2727 0.956 . S
H2708 C2729 0.950 . S
H2709 C2732 0.950 . S
H2710 C2733 0.950 . S
H2711 C2735 0.950 . S
H2712 C2736 0.950 . S
H2713 C2737 0.951 . S
H2714 C2739 0.951 . S
H2715 C2741 0.950 . S
H2716 C2742 0.950 . S
H2717 C2744 0.950 . S
H2718 C2747 0.950 . S
H2719 C2748 0.950 . S
H2720 C2750 0.950 . S
H2721 C2751 0.950 . S
C2722 H2704 0.951 . S
C2722 C2723 1.366 . S
C2722 C2724 1.388 . S
C2723 C2722 1.366 . S
C2723 C2727 1.356 1_565 S
C2724 H2705 0.951 . S
C2724 C2722 1.388 . S
C2724 C2725 1.366 . S
C2725 C2724 1.366 . S
C2725 C2726 1.414 1_565 S
C2725 C2728 1.499 . S
C2726 H2706 0.950 . S
C2726 C2725 1.414 1_545 S
C2726 C2727 1.401 . S
C2727 H2707 0.956 . S
C2727 C2723 1.356 1_545 S
C2727 C2726 1.401 . S
C2728 C2725 1.499 . S
C2728 C2729 1.373 1_565 S
C2728 C2730 1.389 . S
C2729 H2708 0.950 . S
C2729 C2728 1.373 1_545 S
C2729 C2745 1.377 . S
C2730 C2728 1.389 . S
C2730 C2731 1.524 . S
C2730 C2744 1.377 . S
C2731 C2730 1.524 . S
C2731 C2732 1.397 . S
C2731 C2736 1.363 . S
C2732 H2709 0.950 . S
C2732 C2731 1.397 . S
C2732 C2733 1.334 . S
C2733 H2710 0.950 . S
C2733 C2732 1.334 . S
C2733 C2734 1.287 . S
C2734 C2733 1.287 . S
C2734 C2735 1.524 . S
C2734 H2753 0.913 . S
C2735 H2711 0.950 . S
C2735 C2734 1.524 . S
C2735 C2736 1.415 . S
C2736 H2712 0.950 . S
C2736 C2731 1.363 . S
C2736 C2735 1.415 . S
C2737 H2713 0.951 . S
C2737 C2738 1.366 1_545 S
C2737 C2739 1.388 . S
C2738 C2737 1.366 1_565 S
C2738 C2742 1.385 . S
C2739 H2714 0.951 . S
C2739 C2737 1.388 . S
C2739 C2740 1.366 1_545 S
C2740 C2739 1.366 1_565 S
C2740 C2741 1.414 . S
C2740 C2743 1.499 . S
C2741 H2715 0.950 . S
C2741 C2740 1.414 . S
C2741 C2742 1.374 . S
C2742 H2716 0.950 . S
C2742 C2738 1.385 . S
C2742 C2741 1.374 . S
C2743 C2740 1.499 . S
C2743 C2744 1.373 . S
C2743 C2745 1.389 1_565 S
C2744 H2717 0.950 . S
C2744 C2730 1.377 . S
C2744 C2743 1.373 . S
C2745 C2729 1.377 . S
C2745 C2743 1.389 1_545 S
C2745 C2746 1.524 . S
C2746 C2745 1.524 . S
C2746 C2747 1.397 . S
C2746 C2751 1.363 . S
C2747 H2718 0.950 . S
C2747 C2746 1.397 . S
C2747 C2748 1.334 . S
C2748 H2719 0.950 . S
C2748 C2747 1.334 . S
C2748 C2749 1.287 . S
C2749 C2748 1.287 . S
C2749 C2750 1.524 . S
C2749 H2752 0.999 . S
C2750 H2720 0.950 . S
C2750 C2749 1.524 . S
C2750 C2751 1.415 . S
C2751 H2721 0.950 . S
C2751 C2746 1.363 . S
C2751 C2750 1.415 . S
H2752 C2749 0.999 . S
H2753 C2734 0.913 . S
H2754 C2772 0.951 . S
H2755 C2774 0.950 . S
H2756 C2776 0.950 . S
H2757 C2777 0.950 . S
H2758 C2779 0.950 . S
H2759 C2782 0.950 . S
H2760 C2783 0.950 . S
H2761 C2785 0.950 . S
H2762 C2786 0.950 . S
H2763 C2787 0.951 . S
H2764 C2789 0.951 . S
H2765 C2791 0.950 . S
H2766 C2792 0.950 . S
H2767 C2794 0.950 . S
H2768 C2797 0.950 . S
H2769 C2798 0.950 . S
H2770 C2800 0.950 . S
H2771 C2801 0.950 . S
C2772 H2754 0.951 . S
C2772 C2773 1.366 . S
C2772 C2774 1.388 . S
C2773 C2772 1.366 . S
C2773 C2777 1.385 . S
C2774 H2755 0.950 . S
C2774 C2772 1.388 . S
C2774 C2775 1.366 . S
C2775 C2774 1.366 . S
C2775 C2776 1.414 . S
C2775 C2778 1.499 . S
C2776 H2756 0.950 . S
C2776 C2775 1.414 . S
C2776 C2777 1.374 . S
C2777 H2757 0.950 . S
C2777 C2773 1.385 . S
C2777 C2776 1.374 . S
C2778 C2775 1.499 . S
C2778 C2779 1.373 . S
C2778 C2780 1.389 1_545 S
C2779 H2758 0.950 . S
C2779 C2778 1.373 . S
C2779 C2795 1.377 . S
C2780 C2778 1.389 1_565 S
C2780 C2781 1.524 . S
C2780 C2794 1.377 . S
C2781 C2780 1.524 . S
C2781 C2782 1.397 . S
C2781 C2786 1.363 . S
C2782 H2759 0.950 . S
C2782 C2781 1.397 . S
C2782 C2783 1.334 . S
C2783 H2760 0.950 . S
C2783 C2782 1.334 . S
C2783 C2784 1.287 . S
C2784 C2783 1.287 . S
C2784 C2785 1.524 . S
C2784 H2803 0.913 . S
C2785 H2761 0.950 . S
C2785 C2784 1.524 . S
C2785 C2786 1.415 . S
C2786 H2762 0.950 . S
C2786 C2781 1.363 . S
C2786 C2785 1.415 . S
C2787 H2763 0.951 . S
C2787 C2788 1.382 . S
C2787 C2789 1.388 . S
C2788 C2787 1.382 . S
C2788 C2792 1.356 1_545 S
C2789 H2764 0.951 . S
C2789 C2787 1.388 . S
C2789 C2790 1.366 . S
C2790 C2789 1.366 . S
C2790 C2791 1.414 1_545 S
C2790 C2793 1.499 . S
C2791 H2765 0.950 . S
C2791 C2790 1.414 1_565 S
C2791 C2792 1.374 . S
C2792 H2766 0.950 . S
C2792 C2788 1.356 1_565 S
C2792 C2791 1.374 . S
C2793 C2790 1.499 . S
C2793 C2794 1.373 1_545 S
C2793 C2795 1.389 . S
C2794 H2767 0.950 . S
C2794 C2780 1.377 . S
C2794 C2793 1.373 1_565 S
C2795 C2779 1.377 . S
C2795 C2793 1.389 . S
C2795 C2796 1.524 . S
C2796 C2795 1.524 . S
C2796 C2797 1.397 . S
C2796 C2801 1.363 . S
C2797 H2768 0.950 . S
C2797 C2796 1.397 . S
C2797 C2798 1.334 . S
C2798 H2769 0.950 . S
C2798 C2797 1.334 . S
C2798 C2799 1.287 . S
C2799 C2798 1.287 . S
C2799 C2800 1.524 . S
C2799 H2802 0.999 . S
C2800 H2770 0.950 . S
C2800 C2799 1.524 . S
C2800 C2801 1.415 . S
C2801 H2771 0.950 . S
C2801 C2796 1.363 . S
C2801 C2800 1.415 . S
H2802 C2799 0.999 . S
H2803 C2784 0.913 . S
H2804 C2822 0.951 . S
H2805 C2824 0.951 . S
H2806 C2826 0.950 1_455 S
H2807 C2827 0.950 1_455 S
H2808 C2829 0.950 . S
H2809 C2832 0.950 . S
H2810 C2833 0.950 . S
H2811 C2835 0.950 . S
H2812 C2836 0.950 . S
H2813 C2837 0.951 . S
H2814 C2839 0.951 . S
H2815 C2841 0.950 . S
H2816 C2842 0.950 . S
H2817 C2844 0.950 . S
H2818 C2847 0.950 . S
H2819 C2848 0.950 . S
H2820 C2850 0.950 . S
H2821 C2851 0.950 . S
C2822 H2804 0.951 . S
C2822 C2823 1.366 . S
C2822 C2824 1.388 . S
C2823 C2822 1.366 . S
C2823 C2827 1.385 . S
C2824 H2805 0.951 . S
C2824 C2822 1.388 . S
C2824 C2825 1.366 . S
C2825 C2824 1.366 . S
C2825 C2826 1.414 . S
C2825 C2828 1.499 . S
C2826 H2806 0.950 1_655 S
C2826 C2825 1.414 . S
C2826 C2827 1.374 . S
C2827 H2807 0.950 1_655 S
C2827 C2823 1.385 . S
C2827 C2826 1.374 . S
C2828 C2825 1.499 . S
C2828 C2829 1.373 1_655 S
C2828 C2830 1.389 . S
C2829 H2808 0.950 . S
C2829 C2828 1.373 1_455 S
C2829 C2845 1.377 . S
C2830 C2828 1.389 . S
C2830 C2831 1.524 . S
C2830 C2844 1.377 . S
C2831 C2830 1.524 . S
C2831 C2832 1.397 . S
C2831 C2836 1.363 . S
C2832 H2809 0.950 . S
C2832 C2831 1.397 . S
C2832 C2833 1.334 . S
C2833 H2810 0.950 . S
C2833 C2832 1.334 . S
C2833 C2834 1.287 . S
C2834 C2833 1.287 . S
C2834 C2835 1.524 . S
C2834 H2853 0.913 . S
C2835 H2811 0.950 . S
C2835 C2834 1.524 . S
C2835 C2836 1.415 . S
C2836 H2812 0.950 . S
C2836 C2831 1.363 . S
C2836 C2835 1.415 . S
C2837 H2813 0.951 . S
C2837 C2838 1.366 1_455 S
C2837 C2839 1.388 . S
C2838 C2837 1.366 1_655 S
C2838 C2842 1.385 . S
C2839 H2814 0.951 . S
C2839 C2837 1.388 . S
C2839 C2840 1.366 1_455 S
C2840 C2839 1.366 1_655 S
C2840 C2841 1.414 . S
C2840 C2843 1.499 . S
C2841 H2815 0.950 . S
C2841 C2840 1.414 . S
C2841 C2842 1.374 . S
C2842 H2816 0.950 . S
C2842 C2838 1.385 . S
C2842 C2841 1.374 . S
C2843 C2840 1.499 . S
C2843 C2844 1.373 . S
C2843 C2845 1.389 1_655 S
C2844 H2817 0.950 . S
C2844 C2830 1.377 . S
C2844 C2843 1.373 . S
C2845 C2829 1.377 . S
C2845 C2843 1.389 1_455 S
C2845 C2846 1.524 . S
C2846 C2845 1.524 . S
C2846 C2847 1.397 . S
C2846 C2851 1.363 . S
C2847 H2818 0.950 . S
C2847 C2846 1.397 . S
C2847 C2848 1.334 . S
C2848 H2819 0.950 . S
C2848 C2847 1.334 . S
C2848 C2849 1.287 . S
C2849 C2848 1.287 . S
C2849 C2850 1.524 . S
C2849 H2852 0.999 . S
C2850 H2820 0.950 . S
C2850 C2849 1.524 . S
C2850 C2851 1.415 . S
C2851 H2821 0.950 . S
C2851 C2846 1.363 . S
C2851 C2850 1.415 . S
H2852 C2849 0.999 . S
H2853 C2834 0.913 . S
H2854 C2872 0.951 . S
H2855 C2874 0.951 . S
H2856 C2876 0.950 . S
H2857 C2877 0.950 . S
H2858 C2879 0.950 . S
H2859 C2882 0.950 . S
H2860 C2883 0.950 . S
H2861 C2885 0.950 . S
H2862 C2886 0.950 . S
H2863 C2887 0.951 . S
H2864 C2889 0.951 . S
H2865 C2891 0.950 . S
H2866 C2892 0.950 . S
H2867 C2894 0.950 . S
H2868 C2897 0.950 . S
H2869 C2898 0.950 . S
H2870 C2900 0.950 . S
H2871 C2901 0.950 . S
C2872 H2854 0.951 . S
C2872 C2873 1.366 . S
C2872 C2874 1.388 . S
C2873 C2872 1.366 . S
C2873 C2877 1.385 . S
C2874 H2855 0.951 . S
C2874 C2872 1.388 . S
C2874 C2875 1.366 . S
C2875 C2874 1.366 . S
C2875 C2876 1.414 . S
C2875 C2878 1.499 . S
C2876 H2856 0.950 . S
C2876 C2875 1.414 . S
C2876 C2877 1.374 . S
C2877 H2857 0.950 . S
C2877 C2873 1.385 . S
C2877 C2876 1.374 . S
C2878 C2875 1.499 . S
C2878 C2879 1.373 . S
C2878 C2880 1.389 . S
C2879 H2858 0.950 . S
C2879 C2878 1.373 . S
C2879 C2895 1.377 . S
C2880 C2878 1.389 . S
C2880 C2881 1.524 . S
C2880 C2894 1.377 . S
C2881 C2880 1.524 . S
C2881 C2882 1.397 . S
C2881 C2886 1.363 . S
C2882 H2859 0.950 . S
C2882 C2881 1.397 . S
C2882 C2883 1.334 . S
C2883 H2860 0.950 . S
C2883 C2882 1.334 . S
C2883 C2884 1.287 . S
C2884 C2883 1.287 . S
C2884 C2885 1.524 . S
C2884 H2903 0.913 . S
C2885 H2861 0.950 . S
C2885 C2884 1.524 . S
C2885 C2886 1.415 . S
C2886 H2862 0.950 . S
C2886 C2881 1.363 . S
C2886 C2885 1.415 . S
C2887 H2863 0.951 . S
C2887 C2888 1.366 . S
C2887 C2889 1.388 . S
C2888 C2887 1.366 . S
C2888 C2892 1.385 . S
C2889 H2864 0.951 . S
C2889 C2887 1.388 . S
C2889 C2890 1.366 . S
C2890 C2889 1.366 . S
C2890 C2891 1.414 . S
C2890 C2893 1.499 . S
C2891 H2865 0.950 . S
C2891 C2890 1.414 . S
C2891 C2892 1.374 . S
C2892 H2866 0.950 . S
C2892 C2888 1.385 . S
C2892 C2891 1.374 . S
C2893 C2890 1.499 . S
C2893 C2894 1.373 . S
C2893 C2895 1.389 . S
C2894 H2867 0.950 . S
C2894 C2880 1.377 . S
C2894 C2893 1.373 . S
C2895 C2879 1.377 . S
C2895 C2893 1.389 . S
C2895 C2896 1.524 . S
C2896 C2895 1.524 . S
C2896 C2897 1.397 . S
C2896 C2901 1.363 . S
C2897 H2868 0.950 . S
C2897 C2896 1.397 . S
C2897 C2898 1.334 . S
C2898 H2869 0.950 . S
C2898 C2897 1.334 . S
C2898 C2899 1.287 . S
C2899 C2898 1.287 . S
C2899 C2900 1.524 . S
C2899 H2902 0.999 . S
C2900 H2870 0.950 . S
C2900 C2899 1.524 . S
C2900 C2901 1.415 . S
C2901 H2871 0.950 . S
C2901 C2896 1.363 . S
C2901 C2900 1.415 . S
H2902 C2899 0.999 . S
H2903 C2884 0.913 . S
H2904 C2922 0.951 . S
H2905 C2924 0.951 . S
H2906 C2926 0.950 . S
H2907 C2927 0.950 . S
H2908 C2929 0.950 . S
H2909 C2932 0.950 . S
H2910 C2933 0.950 . S
H2911 C2935 0.950 . S
H2912 C2936 0.950 . S
H2913 C2937 0.951 . S
H2914 C2939 0.951 . S
H2915 C2941 0.950 . S
H2916 C2942 0.950 . S
H2917 C2944 0.950 . S
H2918 C2947 0.950 . S
H2919 C2948 0.950 . S
H2920 C2950 0.950 . S
H2921 C2951 0.950 . S
C2922 H2904 0.951 . S
C2922 C2923 1.366 . S
C2922 C2924 1.388 . S
C2923 C2922 1.366 . S
C2923 C2927 1.385 . S
C2924 H2905 0.951 . S
C2924 C2922 1.388 . S
C2924 C2925 1.366 . S
C2925 C2924 1.366 . S
C2925 C2926 1.414 . S
C2925 C2928 1.499 . S
C2926 H2906 0.950 . S
C2926 C2925 1.414 . S
C2926 C2927 1.374 . S
C2927 H2907 0.950 . S
C2927 C2923 1.385 . S
C2927 C2926 1.374 . S
C2928 C2925 1.499 . S
C2928 C2929 1.373 . S
C2928 C2930 1.389 . S
C2929 H2908 0.950 . S
C2929 C2928 1.373 . S
C2929 C2945 1.377 . S
C2930 C2928 1.389 . S
C2930 C2931 1.524 . S
C2930 C2944 1.377 . S
C2931 C2930 1.524 . S
C2931 C2932 1.397 . S
C2931 C2936 1.363 . S
C2932 H2909 0.950 . S
C2932 C2931 1.397 . S
C2932 C2933 1.334 . S
C2933 H2910 0.950 . S
C2933 C2932 1.334 . S
C2933 C2934 1.287 . S
C2934 C2933 1.287 . S
C2934 C2935 1.524 . S
C2934 H2953 0.913 . S
C2935 H2911 0.950 . S
C2935 C2934 1.524 . S
C2935 C2936 1.415 . S
C2936 H2912 0.950 . S
C2936 C2931 1.363 . S
C2936 C2935 1.415 . S
C2937 H2913 0.951 . S
C2937 C2938 1.366 . S
C2937 C2939 1.388 . S
C2938 C2937 1.366 . S
C2938 C2942 1.385 . S
C2939 H2914 0.951 . S
C2939 C2937 1.388 . S
C2939 C2940 1.366 . S
C2940 C2939 1.366 . S
C2940 C2941 1.414 . S
C2940 C2943 1.499 . S
C2941 H2915 0.950 . S
C2941 C2940 1.414 . S
C2941 C2942 1.374 . S
C2942 H2916 0.950 . S
C2942 C2938 1.385 . S
C2942 C2941 1.374 . S
C2943 C2940 1.499 . S
C2943 C2944 1.373 . S
C2943 C2945 1.389 . S
C2944 H2917 0.950 . S
C2944 C2930 1.377 . S
C2944 C2943 1.373 . S
C2945 C2929 1.377 . S
C2945 C2943 1.389 . S
C2945 C2946 1.524 . S
C2946 C2945 1.524 . S
C2946 C2947 1.397 . S
C2946 C2951 1.363 . S
C2947 H2918 0.950 . S
C2947 C2946 1.397 . S
C2947 C2948 1.334 . S
C2948 H2919 0.950 . S
C2948 C2947 1.334 . S
C2948 C2949 1.287 . S
C2949 C2948 1.287 . S
C2949 C2950 1.524 . S
C2949 H2952 0.999 . S
C2950 H2920 0.950 . S
C2950 C2949 1.524 . S
C2950 C2951 1.415 . S
C2951 H2921 0.950 . S
C2951 C2946 1.363 . S
C2951 C2950 1.415 . S
H2952 C2949 0.999 . S
H2953 C2934 0.913 . S
H2954 C2972 0.951 . S
H2955 C2974 0.951 . S
H2956 C2976 0.950 . S
H2957 C2977 0.950 . S
H2958 C2979 0.950 . S
H2959 C2982 0.950 . S
H2960 C2983 0.950 . S
H2961 C2985 0.950 . S
H2962 C2986 0.950 . S
H2963 C2987 0.951 . S
H2964 C2989 0.951 . S
H2965 C2991 0.950 . S
H2966 C2992 0.950 . S
H2967 C2994 0.950 . S
H2968 C2997 0.950 . S
H2969 C2998 0.950 . S
H2970 C3000 0.950 . S
H2971 C3001 0.950 . S
C2972 H2954 0.951 . S
C2972 C2973 1.366 . S
C2972 C2974 1.388 . S
C2973 C2972 1.366 . S
C2973 C2977 1.385 . S
C2974 H2955 0.951 . S
C2974 C2972 1.388 . S
C2974 C2975 1.366 . S
C2975 C2974 1.366 . S
C2975 C2976 1.414 . S
C2975 C2978 1.499 . S
C2976 H2956 0.950 . S
C2976 C2975 1.414 . S
C2976 C2977 1.374 . S
C2977 H2957 0.950 . S
C2977 C2973 1.385 . S
C2977 C2976 1.374 . S
C2978 C2975 1.499 . S
C2978 C2979 1.373 . S
C2978 C2980 1.389 . S
C2979 H2958 0.950 . S
C2979 C2978 1.373 . S
C2979 C2995 1.377 . S
C2980 C2978 1.389 . S
C2980 C2981 1.524 . S
C2980 C2994 1.377 . S
C2981 C2980 1.524 . S
C2981 C2982 1.397 . S
C2981 C2986 1.363 . S
C2982 H2959 0.950 . S
C2982 C2981 1.397 . S
C2982 C2983 1.334 . S
C2983 H2960 0.950 . S
C2983 C2982 1.334 . S
C2983 C2984 1.287 . S
C2984 C2983 1.287 . S
C2984 C2985 1.524 . S
C2984 H3003 0.913 . S
C2985 H2961 0.950 . S
C2985 C2984 1.524 . S
C2985 C2986 1.415 . S
C2986 H2962 0.950 . S
C2986 C2981 1.363 . S
C2986 C2985 1.415 . S
C2987 H2963 0.951 . S
C2987 C2988 1.366 . S
C2987 C2989 1.388 . S
C2988 C2987 1.366 . S
C2988 C2992 1.385 . S
C2989 H2964 0.951 . S
C2989 C2987 1.388 . S
C2989 C2990 1.366 . S
C2990 C2989 1.366 . S
C2990 C2991 1.414 . S
C2990 C2993 1.499 . S
C2991 H2965 0.950 . S
C2991 C2990 1.414 . S
C2991 C2992 1.374 . S
C2992 H2966 0.950 . S
C2992 C2988 1.385 . S
C2992 C2991 1.374 . S
C2993 C2990 1.499 . S
C2993 C2994 1.373 . S
C2993 C2995 1.389 . S
C2994 H2967 0.950 . S
C2994 C2980 1.377 . S
C2994 C2993 1.373 . S
C2995 C2979 1.377 . S
C2995 C2993 1.389 . S
C2995 C2996 1.524 . S
C2996 C2995 1.524 . S
C2996 C2997 1.397 . S
C2996 C3001 1.363 . S
C2997 H2968 0.950 . S
C2997 C2996 1.397 . S
C2997 C2998 1.334 . S
C2998 H2969 0.950 . S
C2998 C2997 1.334 . S
C2998 C2999 1.287 . S
C2999 C2998 1.287 . S
C2999 C3000 1.524 . S
C2999 H3002 0.999 . S
C3000 H2970 0.950 . S
C3000 C2999 1.524 . S
C3000 C3001 1.415 . S
C3001 H2971 0.950 . S
C3001 C2996 1.363 . S
C3001 C3000 1.415 . S
H3002 C2999 0.999 . S
H3003 C2984 0.913 . S
H3004 C3022 0.951 . S
H3005 C3024 0.951 . S
H3006 C3026 0.950 . S
H3007 C3027 0.950 . S
H3008 C3029 0.950 . S
H3009 C3032 0.950 . S
H3010 C3033 0.950 . S
H3011 C3035 0.950 . S
H3012 C3036 0.950 . S
H3013 C3037 0.951 . S
H3014 C3039 0.951 . S
H3015 C3041 0.950 . S
H3016 C3042 0.950 . S
H3017 C3044 0.950 . S
H3018 C3047 0.950 . S
H3019 C3048 0.950 . S
H3020 C3050 0.950 . S
H3021 C3051 0.950 . S
C3022 H3004 0.951 . S
C3022 C3023 1.366 . S
C3022 C3024 1.388 . S
C3023 C3022 1.366 . S
C3023 C3027 1.385 . S
C3024 H3005 0.951 . S
C3024 C3022 1.388 . S
C3024 C3025 1.366 . S
C3025 C3024 1.366 . S
C3025 C3026 1.414 . S
C3025 C3028 1.499 . S
C3026 H3006 0.950 . S
C3026 C3025 1.414 . S
C3026 C3027 1.374 . S
C3027 H3007 0.950 . S
C3027 C3023 1.385 . S
C3027 C3026 1.374 . S
C3028 C3025 1.499 . S
C3028 C3029 1.373 . S
C3028 C3030 1.389 . S
C3029 H3008 0.950 . S
C3029 C3028 1.373 . S
C3029 C3045 1.377 . S
C3030 C3028 1.389 . S
C3030 C3031 1.524 . S
C3030 C3044 1.377 . S
C3031 C3030 1.524 . S
C3031 C3032 1.397 . S
C3031 C3036 1.363 . S
C3032 H3009 0.950 . S
C3032 C3031 1.397 . S
C3032 C3033 1.334 . S
C3033 H3010 0.950 . S
C3033 C3032 1.334 . S
C3033 C3034 1.287 . S
C3034 C3033 1.287 . S
C3034 C3035 1.524 . S
C3034 H3053 0.913 . S
C3035 H3011 0.950 . S
C3035 C3034 1.524 . S
C3035 C3036 1.415 . S
C3036 H3012 0.950 . S
C3036 C3031 1.363 . S
C3036 C3035 1.415 . S
C3037 H3013 0.951 . S
C3037 C3038 1.366 . S
C3037 C3039 1.388 . S
C3038 C3037 1.366 . S
C3038 C3042 1.385 . S
C3039 H3014 0.951 . S
C3039 C3037 1.388 . S
C3039 C3040 1.366 . S
C3040 C3039 1.366 . S
C3040 C3041 1.414 . S
C3040 C3043 1.499 . S
C3041 H3015 0.950 . S
C3041 C3040 1.414 . S
C3041 C3042 1.374 . S
C3042 H3016 0.950 . S
C3042 C3038 1.385 . S
C3042 C3041 1.374 . S
C3043 C3040 1.499 . S
C3043 C3044 1.373 . S
C3043 C3045 1.389 . S
C3044 H3017 0.950 . S
C3044 C3030 1.377 . S
C3044 C3043 1.373 . S
C3045 C3029 1.377 . S
C3045 C3043 1.389 . S
C3045 C3046 1.524 . S
C3046 C3045 1.524 . S
C3046 C3047 1.397 . S
C3046 C3051 1.363 . S
C3047 H3018 0.950 . S
C3047 C3046 1.397 . S
C3047 C3048 1.334 . S
C3048 H3019 0.950 . S
C3048 C3047 1.334 . S
C3048 C3049 1.287 . S
C3049 C3048 1.287 . S
C3049 C3050 1.524 . S
C3049 H3052 0.999 . S
C3050 H3020 0.950 . S
C3050 C3049 1.524 . S
C3050 C3051 1.415 . S
C3051 H3021 0.950 . S
C3051 C3046 1.363 . S
C3051 C3050 1.415 . S
H3052 C3049 0.999 . S
H3053 C3034 0.913 . S
H3054 C3072 0.951 . S
H3055 C3074 0.951 . S
H3056 C3076 0.950 . S
H3057 C3077 0.950 . S
H3058 C3079 0.950 . S
H3059 C3082 0.950 . S
H3060 C3083 0.950 . S
H3061 C3085 0.952 1_655 S
H3062 C3086 0.950 . S
H3063 C3087 0.951 . S
H3064 C3089 0.951 . S
H3065 C3091 0.950 . S
H3066 C3092 0.950 . S
H3067 C3094 0.950 . S
H3068 C3097 0.950 . S
H3069 C3098 0.950 . S
H3070 C3100 0.950 . S
H3071 C3101 0.950 . S
C3072 H3054 0.951 . S
C3072 C3073 1.366 . S
C3072 C3074 1.388 . S
C3073 C3072 1.366 . S
C3073 C3077 1.385 . S
C3074 H3055 0.951 . S
C3074 C3072 1.388 . S
C3074 C3075 1.366 . S
C3075 C3074 1.366 . S
C3075 C3076 1.414 . S
C3075 C3078 1.499 . S
C3076 H3056 0.950 . S
C3076 C3075 1.414 . S
C3076 C3077 1.374 . S
C3077 H3057 0.950 . S
C3077 C3073 1.385 . S
C3077 C3076 1.374 . S
C3078 C3075 1.499 . S
C3078 C3079 1.373 . S
C3078 C3080 1.389 . S
C3079 H3058 0.950 . S
C3079 C3078 1.373 . S
C3079 C3095 1.377 . S
C3080 C3078 1.389 . S
C3080 C3081 1.524 . S
C3080 C3094 1.377 . S
C3081 C3080 1.524 . S
C3081 C3082 1.397 . S
C3081 C3086 1.363 . S
C3082 H3059 0.950 . S
C3082 C3081 1.397 . S
C3082 C3083 1.334 . S
C3083 H3060 0.950 . S
C3083 C3082 1.334 . S
C3083 C3084 1.287 . S
C3084 C3083 1.287 . S
C3084 C3085 1.524 . S
C3084 H3103 0.913 1_455 S
C3085 H3061 0.952 1_455 S
C3085 C3084 1.524 . S
C3085 C3086 1.415 . S
C3086 H3062 0.950 . S
C3086 C3081 1.363 . S
C3086 C3085 1.415 . S
C3087 H3063 0.951 . S
C3087 C3088 1.366 . S
C3087 C3089 1.388 . S
C3088 C3087 1.366 . S
C3088 C3092 1.385 . S
C3089 H3064 0.951 . S
C3089 C3087 1.388 . S
C3089 C3090 1.366 . S
C3090 C3089 1.366 . S
C3090 C3091 1.414 . S
C3090 C3093 1.499 . S
C3091 H3065 0.950 . S
C3091 C3090 1.414 . S
C3091 C3092 1.374 . S
C3092 H3066 0.950 . S
C3092 C3088 1.385 . S
C3092 C3091 1.374 . S
C3093 C3090 1.499 . S
C3093 C3094 1.373 . S
C3093 C3095 1.389 . S
C3094 H3067 0.950 . S
C3094 C3080 1.377 . S
C3094 C3093 1.373 . S
C3095 C3079 1.377 . S
C3095 C3093 1.389 . S
C3095 C3096 1.524 . S
C3096 C3095 1.524 . S
C3096 C3097 1.397 . S
C3096 C3101 1.363 . S
C3097 H3068 0.950 . S
C3097 C3096 1.397 . S
C3097 C3098 1.334 . S
C3098 H3069 0.950 . S
C3098 C3097 1.334 . S
C3098 C3099 1.287 . S
C3099 C3098 1.287 . S
C3099 C3100 1.524 . S
C3099 H3102 0.999 . S
C3100 H3070 0.950 . S
C3100 C3099 1.524 . S
C3100 C3101 1.415 . S
C3101 H3071 0.950 . S
C3101 C3096 1.363 . S
C3101 C3100 1.415 . S
H3102 C3099 0.999 . S
H3103 C3084 0.913 1_655 S
H3104 C3122 0.951 . S
H3105 C3124 0.951 . S
H3106 C3126 0.950 . S
H3107 C3127 0.950 . S
H3108 C3129 0.950 . S
H3109 C3132 0.950 . S
H3110 C3133 0.950 . S
H3111 C3135 0.950 . S
H3112 C3136 0.950 . S
H3113 C3137 0.951 . S
H3114 C3139 0.951 . S
H3115 C3141 0.950 . S
H3116 C3142 0.950 . S
H3117 C3144 0.950 . S
H3118 C3147 0.950 . S
H3119 C3148 0.950 . S
H3120 C3150 0.950 . S
H3121 C3151 0.950 . S
C3122 H3104 0.951 . S
C3122 C3123 1.366 . S
C3122 C3124 1.388 . S
C3123 C3122 1.366 . S
C3123 C3127 1.385 . S
C3124 H3105 0.951 . S
C3124 C3122 1.388 . S
C3124 C3125 1.366 . S
C3125 C3124 1.366 . S
C3125 C3126 1.414 . S
C3125 C3128 1.499 . S
C3126 H3106 0.950 . S
C3126 C3125 1.414 . S
C3126 C3127 1.374 . S
C3127 H3107 0.950 . S
C3127 C3123 1.385 . S
C3127 C3126 1.374 . S
C3128 C3125 1.499 . S
C3128 C3129 1.373 . S
C3128 C3130 1.389 . S
C3129 H3108 0.950 . S
C3129 C3128 1.373 . S
C3129 C3145 1.377 . S
C3130 C3128 1.389 . S
C3130 C3131 1.524 . S
C3130 C3144 1.377 . S
C3131 C3130 1.524 . S
C3131 C3132 1.397 . S
C3131 C3136 1.363 . S
C3132 H3109 0.950 . S
C3132 C3131 1.397 . S
C3132 C3133 1.334 . S
C3133 H3110 0.950 . S
C3133 C3132 1.334 . S
C3133 C3134 1.287 . S
C3134 C3133 1.287 . S
C3134 C3135 1.524 . S
C3134 H3153 0.913 . S
C3135 H3111 0.950 . S
C3135 C3134 1.524 . S
C3135 C3136 1.415 . S
C3136 H3112 0.950 . S
C3136 C3131 1.363 . S
C3136 C3135 1.415 . S
C3137 H3113 0.951 . S
C3137 C3138 1.366 . S
C3137 C3139 1.388 . S
C3138 C3137 1.366 . S
C3138 C3142 1.385 . S
C3139 H3114 0.951 . S
C3139 C3137 1.388 . S
C3139 C3140 1.366 . S
C3140 C3139 1.366 . S
C3140 C3141 1.414 . S
C3140 C3143 1.499 . S
C3141 H3115 0.950 . S
C3141 C3140 1.414 . S
C3141 C3142 1.374 . S
C3142 H3116 0.950 . S
C3142 C3138 1.385 . S
C3142 C3141 1.374 . S
C3143 C3140 1.499 . S
C3143 C3144 1.373 . S
C3143 C3145 1.389 . S
C3144 H3117 0.950 . S
C3144 C3130 1.377 . S
C3144 C3143 1.373 . S
C3145 C3129 1.377 . S
C3145 C3143 1.389 . S
C3145 C3146 1.524 . S
C3146 C3145 1.524 . S
C3146 C3147 1.397 . S
C3146 C3151 1.363 . S
C3147 H3118 0.950 . S
C3147 C3146 1.397 . S
C3147 C3148 1.334 . S
C3148 H3119 0.950 . S
C3148 C3147 1.334 . S
C3148 C3149 1.287 . S
C3149 C3148 1.287 . S
C3149 C3150 1.524 . S
C3149 H3152 0.999 . S
C3150 H3120 0.950 . S
C3150 C3149 1.524 . S
C3150 C3151 1.415 . S
C3151 H3121 0.950 . S
C3151 C3146 1.363 . S
C3151 C3150 1.415 . S
H3152 C3149 0.999 . S
H3153 C3134 0.913 . S
H3154 C3172 0.951 . S
H3155 C3174 0.951 . S
H3156 C3176 0.950 . S
H3157 C3177 0.950 . S
H3158 C3179 0.950 . S
H3159 C3182 0.950 . S
H3160 C3183 0.950 . S
H3161 C3185 0.950 . S
H3162 C3186 0.950 . S
H3163 C3187 0.951 . S
H3164 C3189 0.951 . S
H3165 C3191 0.950 . S
H3166 C3192 0.950 . S
H3167 C3194 0.950 . S
H3168 C3197 0.950 . S
H3169 C3198 0.950 . S
H3170 C3200 0.950 . S
H3171 C3201 0.950 . S
C3172 H3154 0.951 . S
C3172 C3173 1.366 . S
C3172 C3174 1.388 . S
C3173 C3172 1.366 . S
C3173 C3177 1.385 . S
C3174 H3155 0.951 . S
C3174 C3172 1.388 . S
C3174 C3175 1.366 . S
C3175 C3174 1.366 . S
C3175 C3176 1.414 . S
C3175 C3178 1.499 . S
C3176 H3156 0.950 . S
C3176 C3175 1.414 . S
C3176 C3177 1.374 . S
C3177 H3157 0.950 . S
C3177 C3173 1.385 . S
C3177 C3176 1.374 . S
C3178 C3175 1.499 . S
C3178 C3179 1.373 . S
C3178 C3180 1.389 . S
C3179 H3158 0.950 . S
C3179 C3178 1.373 . S
C3179 C3195 1.377 . S
C3180 C3178 1.389 . S
C3180 C3181 1.524 . S
C3180 C3194 1.377 . S
C3181 C3180 1.524 . S
C3181 C3182 1.397 . S
C3181 C3186 1.363 . S
C3182 H3159 0.950 . S
C3182 C3181 1.397 . S
C3182 C3183 1.334 . S
C3183 H3160 0.950 . S
C3183 C3182 1.334 . S
C3183 C3184 1.287 . S
C3184 C3183 1.287 . S
C3184 C3185 1.524 . S
C3184 H3203 0.913 . S
C3185 H3161 0.950 . S
C3185 C3184 1.524 . S
C3185 C3186 1.415 . S
C3186 H3162 0.950 . S
C3186 C3181 1.363 . S
C3186 C3185 1.415 . S
C3187 H3163 0.951 . S
C3187 C3188 1.366 . S
C3187 C3189 1.388 . S
C3188 C3187 1.366 . S
C3188 C3192 1.385 . S
C3189 H3164 0.951 . S
C3189 C3187 1.388 . S
C3189 C3190 1.366 . S
C3190 C3189 1.366 . S
C3190 C3191 1.414 . S
C3190 C3193 1.499 . S
C3191 H3165 0.950 . S
C3191 C3190 1.414 . S
C3191 C3192 1.374 . S
C3192 H3166 0.950 . S
C3192 C3188 1.385 . S
C3192 C3191 1.374 . S
C3193 C3190 1.499 . S
C3193 C3194 1.373 . S
C3193 C3195 1.389 . S
C3194 H3167 0.950 . S
C3194 C3180 1.377 . S
C3194 C3193 1.373 . S
C3195 C3179 1.377 . S
C3195 C3193 1.389 . S
C3195 C3196 1.524 . S
C3196 C3195 1.524 . S
C3196 C3197 1.397 . S
C3196 C3201 1.363 . S
C3197 H3168 0.950 . S
C3197 C3196 1.397 . S
C3197 C3198 1.334 . S
C3198 H3169 0.950 . S
C3198 C3197 1.334 . S
C3198 C3199 1.287 . S
C3199 C3198 1.287 . S
C3199 C3200 1.524 . S
C3199 H3202 0.999 . S
C3200 H3170 0.950 . S
C3200 C3199 1.524 . S
C3200 C3201 1.415 . S
C3201 H3171 0.950 . S
C3201 C3196 1.363 . S
C3201 C3200 1.415 . S
H3202 C3199 0.999 . S
H3203 C3184 0.913 . S
H3204 C3222 0.951 . S
H3205 C3224 0.951 . S
H3206 C3226 0.950 . S
H3207 C3227 0.950 . S
H3208 C3229 0.950 . S
H3209 C3232 0.950 . S
H3210 C3233 0.950 . S
H3211 C3235 0.950 . S
H3212 C3236 0.950 . S
H3213 C3237 0.951 . S
H3214 C3239 0.951 . S
H3215 C3241 0.950 . S
H3216 C3242 0.950 . S
H3217 C3244 0.950 . S
H3218 C3247 0.950 . S
H3219 C3248 0.950 . S
H3220 C3250 0.950 . S
H3221 C3251 0.950 . S
C3222 H3204 0.951 . S
C3222 C3223 1.366 . S
C3222 C3224 1.388 . S
C3223 C3222 1.366 . S
C3223 C3227 1.385 . S
C3224 H3205 0.951 . S
C3224 C3222 1.388 . S
C3224 C3225 1.366 . S
C3225 C3224 1.366 . S
C3225 C3226 1.414 . S
C3225 C3228 1.499 . S
C3226 H3206 0.950 . S
C3226 C3225 1.414 . S
C3226 C3227 1.374 . S
C3227 H3207 0.950 . S
C3227 C3223 1.385 . S
C3227 C3226 1.374 . S
C3228 C3225 1.499 . S
C3228 C3229 1.373 . S
C3228 C3230 1.389 . S
C3229 H3208 0.950 . S
C3229 C3228 1.373 . S
C3229 C3245 1.377 . S
C3230 C3228 1.389 . S
C3230 C3231 1.524 . S
C3230 C3244 1.377 . S
C3231 C3230 1.524 . S
C3231 C3232 1.397 . S
C3231 C3236 1.363 . S
C3232 H3209 0.950 . S
C3232 C3231 1.397 . S
C3232 C3233 1.334 . S
C3233 H3210 0.950 . S
C3233 C3232 1.334 . S
C3233 C3234 1.287 . S
C3234 C3233 1.287 . S
C3234 C3235 1.524 . S
C3234 H3253 0.913 . S
C3235 H3211 0.950 . S
C3235 C3234 1.524 . S
C3235 C3236 1.415 . S
C3236 H3212 0.950 . S
C3236 C3231 1.363 . S
C3236 C3235 1.415 . S
C3237 H3213 0.951 . S
C3237 C3238 1.366 . S
C3237 C3239 1.388 . S
C3238 C3237 1.366 . S
C3238 C3242 1.385 . S
C3239 H3214 0.951 . S
C3239 C3237 1.388 . S
C3239 C3240 1.366 . S
C3240 C3239 1.366 . S
C3240 C3241 1.414 . S
C3240 C3243 1.499 . S
C3241 H3215 0.950 . S
C3241 C3240 1.414 . S
C3241 C3242 1.374 . S
C3242 H3216 0.950 . S
C3242 C3238 1.385 . S
C3242 C3241 1.374 . S
C3243 C3240 1.499 . S
C3243 C3244 1.373 . S
C3243 C3245 1.389 . S
C3244 H3217 0.950 . S
C3244 C3230 1.377 . S
C3244 C3243 1.373 . S
C3245 C3229 1.377 . S
C3245 C3243 1.389 . S
C3245 C3246 1.524 . S
C3246 C3245 1.524 . S
C3246 C3247 1.397 . S
C3246 C3251 1.363 . S
C3247 H3218 0.950 . S
C3247 C3246 1.397 . S
C3247 C3248 1.334 . S
C3248 H3219 0.950 . S
C3248 C3247 1.334 . S
C3248 C3249 1.287 . S
C3249 C3248 1.287 . S
C3249 C3250 1.524 . S
C3249 H3252 0.999 . S
C3250 H3220 0.950 . S
C3250 C3249 1.524 . S
C3250 C3251 1.415 . S
C3251 H3221 0.950 . S
C3251 C3246 1.363 . S
C3251 C3250 1.415 . S
H3252 C3249 0.999 . S
H3253 C3234 0.913 . S
H3254 C3272 0.951 . S
H3255 C3274 0.951 . S
H3256 C3276 0.950 . S
H3257 C3277 0.950 . S
H3258 C3279 0.950 . S
H3259 C3282 0.950 . S
H3260 C3283 0.950 . S
H3261 C3285 0.950 . S
H3262 C3286 0.950 . S
H3263 C3287 0.951 . S
H3264 C3289 0.951 . S
H3265 C3291 0.950 . S
H3266 C3292 0.950 . S
H3267 C3294 0.950 . S
H3268 C3297 0.950 . S
H3269 C3298 0.950 . S
H3270 C3300 0.950 . S
H3271 C3301 0.950 . S
C3272 H3254 0.951 . S
C3272 C3273 1.366 . S
C3272 C3274 1.388 . S
C3273 C3272 1.366 . S
C3273 C3277 1.385 . S
C3274 H3255 0.951 . S
C3274 C3272 1.388 . S
C3274 C3275 1.366 . S
C3275 C3274 1.366 . S
C3275 C3276 1.414 . S
C3275 C3278 1.499 . S
C3276 H3256 0.950 . S
C3276 C3275 1.414 . S
C3276 C3277 1.374 . S
C3277 H3257 0.950 . S
C3277 C3273 1.385 . S
C3277 C3276 1.374 . S
C3278 C3275 1.499 . S
C3278 C3279 1.373 . S
C3278 C3280 1.389 . S
C3279 H3258 0.950 . S
C3279 C3278 1.373 . S
C3279 C3295 1.377 . S
C3280 C3278 1.389 . S
C3280 C3281 1.524 . S
C3280 C3294 1.377 . S
C3281 C3280 1.524 . S
C3281 C3282 1.397 . S
C3281 C3286 1.363 . S
C3282 H3259 0.950 . S
C3282 C3281 1.397 . S
C3282 C3283 1.334 . S
C3283 H3260 0.950 . S
C3283 C3282 1.334 . S
C3283 C3284 1.287 . S
C3284 C3283 1.287 . S
C3284 C3285 1.524 . S
C3284 H3303 0.913 . S
C3285 H3261 0.950 . S
C3285 C3284 1.524 . S
C3285 C3286 1.415 . S
C3286 H3262 0.950 . S
C3286 C3281 1.363 . S
C3286 C3285 1.415 . S
C3287 H3263 0.951 . S
C3287 C3288 1.366 . S
C3287 C3289 1.388 . S
C3288 C3287 1.366 . S
C3288 C3292 1.385 . S
C3289 H3264 0.951 . S
C3289 C3287 1.388 . S
C3289 C3290 1.366 . S
C3290 C3289 1.366 . S
C3290 C3291 1.414 . S
C3290 C3293 1.499 . S
C3291 H3265 0.950 . S
C3291 C3290 1.414 . S
C3291 C3292 1.374 . S
C3292 H3266 0.950 . S
C3292 C3288 1.385 . S
C3292 C3291 1.374 . S
C3293 C3290 1.499 . S
C3293 C3294 1.373 . S
C3293 C3295 1.389 . S
C3294 H3267 0.950 . S
C3294 C3280 1.377 . S
C3294 C3293 1.373 . S
C3295 C3279 1.377 . S
C3295 C3293 1.389 . S
C3295 C3296 1.524 . S
C3296 C3295 1.524 . S
C3296 C3297 1.397 . S
C3296 C3301 1.363 . S
C3297 H3268 0.950 . S
C3297 C3296 1.397 . S
C3297 C3298 1.334 . S
C3298 H3269 0.950 . S
C3298 C3297 1.334 . S
C3298 C3299 1.287 . S
C3299 C3298 1.287 . S
C3299 C3300 1.524 . S
C3299 H3302 0.999 . S
C3300 H3270 0.950 . S
C3300 C3299 1.524 . S
C3300 C3301 1.415 . S
C3301 H3271 0.950 . S
C3301 C3296 1.363 . S
C3301 C3300 1.415 . S
H3302 C3299 0.999 . S
H3303 C3284 0.913 . S
H3304 C3322 0.951 . S
H3305 C3324 0.951 . S
H3306 C3326 0.950 . S
H3307 C3327 0.950 . S
H3308 C3329 0.950 . S
H3309 C3332 0.950 . S
H3310 C3333 0.950 . S
H3311 C3335 0.950 . S
H3312 C3336 0.950 . S
H3313 C3337 0.951 . S
H3314 C3339 0.951 . S
H3315 C3341 0.950 . S
H3316 C3342 0.950 . S
H3317 C3344 0.950 . S
H3318 C3347 0.950 . S
H3319 C3348 0.950 . S
H3320 C3350 0.950 . S
H3321 C3351 0.950 . S
C3322 H3304 0.951 . S
C3322 C3323 1.366 . S
C3322 C3324 1.388 . S
C3323 C3322 1.366 . S
C3323 C3327 1.385 . S
C3324 H3305 0.951 . S
C3324 C3322 1.388 . S
C3324 C3325 1.366 . S
C3325 C3324 1.366 . S
C3325 C3326 1.414 . S
C3325 C3328 1.499 . S
C3326 H3306 0.950 . S
C3326 C3325 1.414 . S
C3326 C3327 1.374 . S
C3327 H3307 0.950 . S
C3327 C3323 1.385 . S
C3327 C3326 1.374 . S
C3328 C3325 1.499 . S
C3328 C3329 1.373 . S
C3328 C3330 1.389 . S
C3329 H3308 0.950 . S
C3329 C3328 1.373 . S
C3329 C3345 1.377 . S
C3330 C3328 1.389 . S
C3330 C3331 1.524 . S
C3330 C3344 1.377 . S
C3331 C3330 1.524 . S
C3331 C3332 1.397 . S
C3331 C3336 1.363 . S
C3332 H3309 0.950 . S
C3332 C3331 1.397 . S
C3332 C3333 1.334 . S
C3333 H3310 0.950 . S
C3333 C3332 1.334 . S
C3333 C3334 1.287 . S
C3334 C3333 1.287 . S
C3334 C3335 1.524 . S
C3334 H3353 0.913 . S
C3335 H3311 0.950 . S
C3335 C3334 1.524 . S
C3335 C3336 1.415 . S
C3336 H3312 0.950 . S
C3336 C3331 1.363 . S
C3336 C3335 1.415 . S
C3337 H3313 0.951 . S
C3337 C3338 1.366 . S
C3337 C3339 1.388 . S
C3338 C3337 1.366 . S
C3338 C3342 1.385 . S
C3339 H3314 0.951 . S
C3339 C3337 1.388 . S
C3339 C3340 1.366 . S
C3340 C3339 1.366 . S
C3340 C3341 1.414 . S
C3340 C3343 1.499 . S
C3341 H3315 0.950 . S
C3341 C3340 1.414 . S
C3341 C3342 1.374 . S
C3342 H3316 0.950 . S
C3342 C3338 1.385 . S
C3342 C3341 1.374 . S
C3343 C3340 1.499 . S
C3343 C3344 1.373 . S
C3343 C3345 1.389 . S
C3344 H3317 0.950 . S
C3344 C3330 1.377 . S
C3344 C3343 1.373 . S
C3345 C3329 1.377 . S
C3345 C3343 1.389 . S
C3345 C3346 1.524 . S
C3346 C3345 1.524 . S
C3346 C3347 1.397 . S
C3346 C3351 1.363 . S
C3347 H3318 0.950 . S
C3347 C3346 1.397 . S
C3347 C3348 1.334 . S
C3348 H3319 0.950 . S
C3348 C3347 1.334 . S
C3348 C3349 1.287 . S
C3349 C3348 1.287 . S
C3349 C3350 1.524 . S
C3349 H3352 0.999 . S
C3350 H3320 0.950 . S
C3350 C3349 1.524 . S
C3350 C3351 1.415 . S
C3351 H3321 0.950 . S
C3351 C3346 1.363 . S
C3351 C3350 1.415 . S
H3352 C3349 0.999 . S
H3353 C3334 0.913 . S
H3354 C3372 0.951 . S
H3355 C3374 0.951 . S
H3356 C3376 0.950 . S
H3357 C3377 0.950 . S
H3358 C3379 0.950 . S
H3359 C3382 0.950 . S
H3360 C3383 0.950 . S
H3361 C3385 0.950 . S
H3362 C3386 0.950 . S
H3363 C3387 0.951 . S
H3364 C3389 0.951 . S
H3365 C3391 0.950 . S
H3366 C3392 0.950 . S
H3367 C3394 0.950 . S
H3368 C3397 0.950 . S
H3369 C3398 0.950 . S
H3370 C3400 0.950 . S
H3371 C3401 0.950 . S
C3372 H3354 0.951 . S
C3372 C3373 1.366 . S
C3372 C3374 1.388 . S
C3373 C3372 1.366 . S
C3373 C3377 1.385 . S
C3374 H3355 0.951 . S
C3374 C3372 1.388 . S
C3374 C3375 1.366 . S
C3375 C3374 1.366 . S
C3375 C3376 1.414 . S
C3375 C3378 1.499 . S
C3376 H3356 0.950 . S
C3376 C3375 1.414 . S
C3376 C3377 1.374 . S
C3377 H3357 0.950 . S
C3377 C3373 1.385 . S
C3377 C3376 1.374 . S
C3378 C3375 1.499 . S
C3378 C3379 1.373 . S
C3378 C3380 1.389 . S
C3379 H3358 0.950 . S
C3379 C3378 1.373 . S
C3379 C3395 1.377 . S
C3380 C3378 1.389 . S
C3380 C3381 1.524 . S
C3380 C3394 1.377 . S
C3381 C3380 1.524 . S
C3381 C3382 1.397 . S
C3381 C3386 1.363 . S
C3382 H3359 0.950 . S
C3382 C3381 1.397 . S
C3382 C3383 1.334 . S
C3383 H3360 0.950 . S
C3383 C3382 1.334 . S
C3383 C3384 1.287 . S
C3384 C3383 1.287 . S
C3384 C3385 1.524 . S
C3384 H3403 0.913 . S
C3385 H3361 0.950 . S
C3385 C3384 1.524 . S
C3385 C3386 1.415 . S
C3386 H3362 0.950 . S
C3386 C3381 1.363 . S
C3386 C3385 1.415 . S
C3387 H3363 0.951 . S
C3387 C3388 1.366 . S
C3387 C3389 1.388 . S
C3388 C3387 1.366 . S
C3388 C3392 1.385 . S
C3389 H3364 0.951 . S
C3389 C3387 1.388 . S
C3389 C3390 1.366 . S
C3390 C3389 1.366 . S
C3390 C3391 1.414 . S
C3390 C3393 1.499 . S
C3391 H3365 0.950 . S
C3391 C3390 1.414 . S
C3391 C3392 1.374 . S
C3392 H3366 0.950 . S
C3392 C3388 1.385 . S
C3392 C3391 1.374 . S
C3393 C3390 1.499 . S
C3393 C3394 1.373 . S
C3393 C3395 1.389 . S
C3394 H3367 0.950 . S
C3394 C3380 1.377 . S
C3394 C3393 1.373 . S
C3395 C3379 1.377 . S
C3395 C3393 1.389 . S
C3395 C3396 1.524 . S
C3396 C3395 1.524 . S
C3396 C3397 1.397 . S
C3396 C3401 1.363 . S
C3397 H3368 0.950 . S
C3397 C3396 1.397 . S
C3397 C3398 1.334 . S
C3398 H3369 0.950 . S
C3398 C3397 1.334 . S
C3398 C3399 1.287 . S
C3399 C3398 1.287 . S
C3399 C3400 1.524 . S
C3399 H3402 0.999 . S
C3400 H3370 0.950 . S
C3400 C3399 1.524 . S
C3400 C3401 1.415 . S
C3401 H3371 0.950 . S
C3401 C3396 1.363 . S
C3401 C3400 1.415 . S
H3402 C3399 0.999 . S
H3403 C3384 0.913 . S
H3404 C3422 0.951 . S
H3405 C3424 0.951 . S
H3406 C3426 0.950 . S
H3407 C3427 0.950 . S
H3408 C3429 0.950 . S
H3409 C3432 0.950 . S
H3410 C3433 0.950 . S
H3411 C3435 0.950 . S
H3412 C3436 0.950 . S
H3413 C3437 0.951 . S
H3414 C3439 0.951 . S
H3415 C3441 0.950 . S
H3416 C3442 0.950 . S
H3417 C3444 0.950 . S
H3418 C3447 0.950 . S
H3419 C3448 0.950 . S
H3420 C3450 0.950 . S
H3421 C3451 0.950 . S
C3422 H3404 0.951 . S
C3422 C3423 1.366 . S
C3422 C3424 1.388 . S
C3423 C3422 1.366 . S
C3423 C3427 1.385 . S
C3424 H3405 0.951 . S
C3424 C3422 1.388 . S
C3424 C3425 1.366 . S
C3425 C3424 1.366 . S
C3425 C3426 1.414 . S
C3425 C3428 1.499 . S
C3426 H3406 0.950 . S
C3426 C3425 1.414 . S
C3426 C3427 1.374 . S
C3427 H3407 0.950 . S
C3427 C3423 1.385 . S
C3427 C3426 1.374 . S
C3428 C3425 1.499 . S
C3428 C3429 1.373 . S
C3428 C3430 1.389 . S
C3429 H3408 0.950 . S
C3429 C3428 1.373 . S
C3429 C3445 1.377 . S
C3430 C3428 1.389 . S
C3430 C3431 1.524 . S
C3430 C3444 1.377 . S
C3431 C3430 1.524 . S
C3431 C3432 1.397 . S
C3431 C3436 1.363 . S
C3432 H3409 0.950 . S
C3432 C3431 1.397 . S
C3432 C3433 1.334 . S
C3433 H3410 0.950 . S
C3433 C3432 1.334 . S
C3433 C3434 1.287 . S
C3434 C3433 1.287 . S
C3434 C3435 1.524 . S
C3434 H3453 0.913 . S
C3435 H3411 0.950 . S
C3435 C3434 1.524 . S
C3435 C3436 1.415 . S
C3436 H3412 0.950 . S
C3436 C3431 1.363 . S
C3436 C3435 1.415 . S
C3437 H3413 0.951 . S
C3437 C3438 1.366 . S
C3437 C3439 1.388 . S
C3438 C3437 1.366 . S
C3438 C3442 1.385 . S
C3439 H3414 0.951 . S
C3439 C3437 1.388 . S
C3439 C3440 1.366 . S
C3440 C3439 1.366 . S
C3440 C3441 1.414 . S
C3440 C3443 1.499 . S
C3441 H3415 0.950 . S
C3441 C3440 1.414 . S
C3441 C3442 1.374 . S
C3442 H3416 0.950 . S
C3442 C3438 1.385 . S
C3442 C3441 1.374 . S
C3443 C3440 1.499 . S
C3443 C3444 1.373 . S
C3443 C3445 1.389 . S
C3444 H3417 0.950 . S
C3444 C3430 1.377 . S
C3444 C3443 1.373 . S
C3445 C3429 1.377 . S
C3445 C3443 1.389 . S
C3445 C3446 1.524 . S
C3446 C3445 1.524 . S
C3446 C3447 1.397 . S
C3446 C3451 1.363 . S
C3447 H3418 0.950 . S
C3447 C3446 1.397 . S
C3447 C3448 1.334 . S
C3448 H3419 0.950 . S
C3448 C3447 1.334 . S
C3448 C3449 1.287 . S
C3449 C3448 1.287 . S
C3449 C3450 1.524 . S
C3449 H3452 0.999 . S
C3450 H3420 0.950 . S
C3450 C3449 1.524 . S
C3450 C3451 1.415 . S
C3451 H3421 0.950 . S
C3451 C3446 1.363 . S
C3451 C3450 1.415 . S
H3452 C3449 0.999 . S
H3453 C3434 0.913 . S
H3454 C3472 0.951 . S
H3455 C3474 0.951 . S
H3456 C3476 0.950 . S
H3457 C3477 0.950 . S
H3458 C3479 0.950 . S
H3459 C3482 0.950 . S
H3460 C3483 0.950 . S
H3461 C3485 0.950 . S
H3462 C3486 0.950 . S
H3463 C3487 0.951 . S
H3464 C3489 0.951 . S
H3465 C3491 0.950 . S
H3466 C3492 0.950 . S
H3467 C3494 0.950 . S
H3468 C3497 0.950 . S
H3469 C3498 0.950 . S
H3470 C3500 0.950 . S
H3471 C3501 0.950 . S
C3472 H3454 0.951 . S
C3472 C3473 1.366 . S
C3472 C3474 1.388 . S
C3473 C3472 1.366 . S
C3473 C3477 1.385 . S
C3474 H3455 0.951 . S
C3474 C3472 1.388 . S
C3474 C3475 1.366 . S
C3475 C3474 1.366 . S
C3475 C3476 1.414 . S
C3475 C3478 1.499 . S
C3476 H3456 0.950 . S
C3476 C3475 1.414 . S
C3476 C3477 1.374 . S
C3477 H3457 0.950 . S
C3477 C3473 1.385 . S
C3477 C3476 1.374 . S
C3478 C3475 1.499 . S
C3478 C3479 1.373 . S
C3478 C3480 1.389 . S
C3479 H3458 0.950 . S
C3479 C3478 1.373 . S
C3479 C3495 1.377 . S
C3480 C3478 1.389 . S
C3480 C3481 1.524 . S
C3480 C3494 1.377 . S
C3481 C3480 1.524 . S
C3481 C3482 1.397 . S
C3481 C3486 1.363 . S
C3482 H3459 0.950 . S
C3482 C3481 1.397 . S
C3482 C3483 1.334 . S
C3483 H3460 0.950 . S
C3483 C3482 1.334 . S
C3483 C3484 1.287 . S
C3484 C3483 1.287 . S
C3484 C3485 1.524 . S
C3484 H3503 0.913 . S
C3485 H3461 0.950 . S
C3485 C3484 1.524 . S
C3485 C3486 1.415 . S
C3486 H3462 0.950 . S
C3486 C3481 1.363 . S
C3486 C3485 1.415 . S
C3487 H3463 0.951 . S
C3487 C3488 1.366 . S
C3487 C3489 1.388 . S
C3488 C3487 1.366 . S
C3488 C3492 1.385 . S
C3489 H3464 0.951 . S
C3489 C3487 1.388 . S
C3489 C3490 1.366 . S
C3490 C3489 1.366 . S
C3490 C3491 1.414 . S
C3490 C3493 1.499 . S
C3491 H3465 0.950 . S
C3491 C3490 1.414 . S
C3491 C3492 1.374 . S
C3492 H3466 0.950 . S
C3492 C3488 1.385 . S
C3492 C3491 1.374 . S
C3493 C3490 1.499 . S
C3493 C3494 1.373 . S
C3493 C3495 1.389 . S
C3494 H3467 0.950 . S
C3494 C3480 1.377 . S
C3494 C3493 1.373 . S
C3495 C3479 1.377 . S
C3495 C3493 1.389 . S
C3495 C3496 1.524 . S
C3496 C3495 1.524 . S
C3496 C3497 1.397 . S
C3496 C3501 1.363 . S
C3497 H3468 0.950 . S
C3497 C3496 1.397 . S
C3497 C3498 1.334 . S
C3498 H3469 0.950 . S
C3498 C3497 1.334 . S
C3498 C3499 1.287 . S
C3499 C3498 1.287 . S
C3499 C3500 1.524 . S
C3499 H3502 0.999 . S
C3500 H3470 0.950 . S
C3500 C3499 1.524 . S
C3500 C3501 1.415 . S
C3501 H3471 0.950 . S
C3501 C3496 1.363 . S
C3501 C3500 1.415 . S
H3502 C3499 0.999 . S
H3503 C3484 0.913 . S
H3504 C3522 0.951 . S
H3505 C3524 0.951 . S
H3506 C3526 0.950 . S
H3507 C3527 0.950 . S
H3508 C3529 0.950 . S
H3509 C3532 0.950 . S
H3510 C3533 0.950 . S
H3511 C3535 0.957 . S
H3512 C3536 0.950 . S
H3513 C3537 0.951 . S
H3514 C3539 0.951 . S
H3515 C3541 0.950 . S
H3516 C3542 0.950 . S
H3517 C3544 0.950 . S
H3518 C3547 0.950 . S
H3519 C3548 0.950 . S
H3520 C3550 0.950 . S
H3521 C3551 0.950 . S
C3522 H3504 0.951 . S
C3522 C3523 1.366 . S
C3522 C3524 1.388 . S
C3523 C3522 1.366 . S
C3523 C3527 1.385 . S
C3524 H3505 0.951 . S
C3524 C3522 1.388 . S
C3524 C3525 1.366 . S
C3525 C3524 1.366 . S
C3525 C3526 1.414 . S
C3525 C3528 1.499 . S
C3526 H3506 0.950 . S
C3526 C3525 1.414 . S
C3526 C3527 1.374 . S
C3527 H3507 0.950 . S
C3527 C3523 1.385 . S
C3527 C3526 1.374 . S
C3528 C3525 1.499 . S
C3528 C3529 1.373 . S
C3528 C3530 1.389 . S
C3529 H3508 0.950 . S
C3529 C3528 1.373 . S
C3529 C3545 1.377 . S
C3530 C3528 1.389 . S
C3530 C3531 1.524 . S
C3530 C3544 1.377 . S
C3531 C3530 1.524 . S
C3531 C3532 1.397 . S
C3531 C3536 1.363 . S
C3532 H3509 0.950 . S
C3532 C3531 1.397 . S
C3532 C3533 1.334 . S
C3533 H3510 0.950 . S
C3533 C3532 1.334 . S
C3533 C3534 1.287 . S
C3534 C3533 1.287 . S
C3534 C3535 1.524 . S
C3534 H3553 0.913 1_545 S
C3535 H3511 0.957 . S
C3535 C3534 1.524 . S
C3535 C3536 1.415 . S
C3536 H3512 0.950 . S
C3536 C3531 1.363 . S
C3536 C3535 1.415 . S
C3537 H3513 0.951 . S
C3537 C3538 1.366 . S
C3537 C3539 1.388 . S
C3538 C3537 1.366 . S
C3538 C3542 1.385 . S
C3539 H3514 0.951 . S
C3539 C3537 1.388 . S
C3539 C3540 1.366 . S
C3540 C3539 1.366 . S
C3540 C3541 1.414 . S
C3540 C3543 1.499 . S
C3541 H3515 0.950 . S
C3541 C3540 1.414 . S
C3541 C3542 1.374 . S
C3542 H3516 0.950 . S
C3542 C3538 1.385 . S
C3542 C3541 1.374 . S
C3543 C3540 1.499 . S
C3543 C3544 1.373 . S
C3543 C3545 1.389 . S
C3544 H3517 0.950 . S
C3544 C3530 1.377 . S
C3544 C3543 1.373 . S
C3545 C3529 1.377 . S
C3545 C3543 1.389 . S
C3545 C3546 1.524 . S
C3546 C3545 1.524 . S
C3546 C3547 1.397 . S
C3546 C3551 1.363 . S
C3547 H3518 0.950 . S
C3547 C3546 1.397 . S
C3547 C3548 1.334 . S
C3548 H3519 0.950 . S
C3548 C3547 1.334 . S
C3548 C3549 1.287 . S
C3549 C3548 1.287 . S
C3549 C3550 1.524 . S
C3549 H3552 0.999 . S
C3550 H3520 0.950 . S
C3550 C3549 1.524 . S
C3550 C3551 1.415 . S
C3551 H3521 0.950 . S
C3551 C3546 1.363 . S
C3551 C3550 1.415 . S
H3552 C3549 0.999 . S
H3553 C3534 0.913 1_565 S
H3554 C3572 0.951 . S
H3555 C3574 0.951 . S
H3556 C3576 0.950 . S
H3557 C3577 0.950 . S
H3558 C3579 0.950 . S
H3559 C3582 0.950 . S
H3560 C3583 0.950 1_455 S
H3561 C3585 0.950 1_455 S
H3562 C3586 0.950 . S
H3563 C3587 0.951 . S
H3564 C3589 0.951 . S
H3565 C3591 0.950 . S
H3566 C3592 0.950 . S
H3567 C3594 0.950 . S
H3568 C3597 0.950 . S
H3569 C3598 0.950 . S
H3570 C3600 0.950 . S
H3571 C3601 0.950 . S
C3572 H3554 0.951 . S
C3572 C3573 1.366 . S
C3572 C3574 1.388 . S
C3573 C3572 1.366 . S
C3573 C3577 1.385 . S
C3574 H3555 0.951 . S
C3574 C3572 1.388 . S
C3574 C3575 1.366 . S
C3575 C3574 1.366 . S
C3575 C3576 1.414 . S
C3575 C3578 1.499 . S
C3576 H3556 0.950 . S
C3576 C3575 1.414 . S
C3576 C3577 1.374 . S
C3577 H3557 0.950 . S
C3577 C3573 1.385 . S
C3577 C3576 1.374 . S
C3578 C3575 1.499 . S
C3578 C3579 1.373 . S
C3578 C3580 1.389 . S
C3579 H3558 0.950 . S
C3579 C3578 1.373 . S
C3579 C3595 1.377 . S
C3580 C3578 1.389 . S
C3580 C3581 1.524 . S
C3580 C3594 1.377 . S
C3581 C3580 1.524 . S
C3581 C3582 1.397 . S
C3581 C3586 1.363 . S
C3582 H3559 0.950 . S
C3582 C3581 1.397 . S
C3582 C3583 1.334 . S
C3583 H3560 0.950 1_655 S
C3583 C3582 1.334 . S
C3583 C3584 1.287 1_655 S
C3584 C3583 1.287 1_455 S
C3584 C3585 1.524 1_455 S
C3584 H3603 0.913 . S
C3585 H3561 0.950 1_655 S
C3585 C3584 1.524 1_655 S
C3585 C3586 1.415 . S
C3586 H3562 0.950 . S
C3586 C3581 1.363 . S
C3586 C3585 1.415 . S
C3587 H3563 0.951 . S
C3587 C3588 1.366 . S
C3587 C3589 1.388 . S
C3588 C3587 1.366 . S
C3588 C3592 1.385 . S
C3589 H3564 0.951 . S
C3589 C3587 1.388 . S
C3589 C3590 1.366 . S
C3590 C3589 1.366 . S
C3590 C3591 1.414 . S
C3590 C3593 1.499 . S
C3591 H3565 0.950 . S
C3591 C3590 1.414 . S
C3591 C3592 1.374 . S
C3592 H3566 0.950 . S
C3592 C3588 1.385 . S
C3592 C3591 1.374 . S
C3593 C3590 1.499 . S
C3593 C3594 1.373 . S
C3593 C3595 1.389 . S
C3594 H3567 0.950 . S
C3594 C3580 1.377 . S
C3594 C3593 1.373 . S
C3595 C3579 1.377 . S
C3595 C3593 1.389 . S
C3595 C3596 1.524 . S
C3596 C3595 1.524 . S
C3596 C3597 1.397 . S
C3596 C3601 1.363 . S
C3597 H3568 0.950 . S
C3597 C3596 1.397 . S
C3597 C3598 1.334 . S
C3598 H3569 0.950 . S
C3598 C3597 1.334 . S
C3598 C3599 1.287 . S
C3599 C3598 1.287 . S
C3599 C3600 1.524 . S
C3599 H3602 0.999 . S
C3600 H3570 0.950 . S
C3600 C3599 1.524 . S
C3600 C3601 1.415 . S
C3601 H3571 0.950 . S
C3601 C3596 1.363 . S
C3601 C3600 1.415 . S
H3602 C3599 0.999 . S
H3603 C3584 0.913 . S
H3604 C3622 0.951 . S
H3605 C3624 0.951 . S
H3606 C3626 0.950 . S
H3607 C3627 0.950 . S
H3608 C3629 0.950 . S
H3609 C3632 0.950 . S
H3610 C3633 0.950 . S
H3611 C3635 0.950 . S
H3612 C3636 0.950 . S
H3613 C3637 0.951 . S
H3614 C3639 0.951 . S
H3615 C3641 0.950 . S
H3616 C3642 0.950 . S
H3617 C3644 0.950 . S
H3618 C3647 0.950 . S
H3619 C3648 0.950 . S
H3620 C3650 0.950 . S
H3621 C3651 0.950 . S
C3622 H3604 0.951 . S
C3622 C3623 1.366 . S
C3622 C3624 1.388 . S
C3623 C3622 1.366 . S
C3623 C3627 1.385 . S
C3624 H3605 0.951 . S
C3624 C3622 1.388 . S
C3624 C3625 1.366 . S
C3625 C3624 1.366 . S
C3625 C3626 1.414 . S
C3625 C3628 1.499 . S
C3626 H3606 0.950 . S
C3626 C3625 1.414 . S
C3626 C3627 1.374 . S
C3627 H3607 0.950 . S
C3627 C3623 1.385 . S
C3627 C3626 1.374 . S
C3628 C3625 1.499 . S
C3628 C3629 1.373 . S
C3628 C3630 1.389 . S
C3629 H3608 0.950 . S
C3629 C3628 1.373 . S
C3629 C3645 1.377 . S
C3630 C3628 1.389 . S
C3630 C3631 1.524 . S
C3630 C3644 1.377 . S
C3631 C3630 1.524 . S
C3631 C3632 1.397 . S
C3631 C3636 1.363 . S
C3632 H3609 0.950 . S
C3632 C3631 1.397 . S
C3632 C3633 1.334 . S
C3633 H3610 0.950 . S
C3633 C3632 1.334 . S
C3633 C3634 1.287 . S
C3634 C3633 1.287 . S
C3634 C3635 1.524 . S
C3634 H3653 0.913 . S
C3635 H3611 0.950 . S
C3635 C3634 1.524 . S
C3635 C3636 1.415 . S
C3636 H3612 0.950 . S
C3636 C3631 1.363 . S
C3636 C3635 1.415 . S
C3637 H3613 0.951 . S
C3637 C3638 1.366 . S
C3637 C3639 1.388 . S
C3638 C3637 1.366 . S
C3638 C3642 1.385 . S
C3639 H3614 0.951 . S
C3639 C3637 1.388 . S
C3639 C3640 1.366 . S
C3640 C3639 1.366 . S
C3640 C3641 1.414 . S
C3640 C3643 1.499 . S
C3641 H3615 0.950 . S
C3641 C3640 1.414 . S
C3641 C3642 1.374 . S
C3642 H3616 0.950 . S
C3642 C3638 1.385 . S
C3642 C3641 1.374 . S
C3643 C3640 1.499 . S
C3643 C3644 1.373 . S
C3643 C3645 1.389 . S
C3644 H3617 0.950 . S
C3644 C3630 1.377 . S
C3644 C3643 1.373 . S
C3645 C3629 1.377 . S
C3645 C3643 1.389 . S
C3645 C3646 1.524 . S
C3646 C3645 1.524 . S
C3646 C3647 1.397 . S
C3646 C3651 1.363 . S
C3647 H3618 0.950 . S
C3647 C3646 1.397 . S
C3647 C3648 1.334 . S
C3648 H3619 0.950 . S
C3648 C3647 1.334 . S
C3648 C3649 1.287 . S
C3649 C3648 1.287 . S
C3649 C3650 1.524 . S
C3649 H3652 0.999 . S
C3650 H3620 0.950 . S
C3650 C3649 1.524 . S
C3650 C3651 1.415 . S
C3651 H3621 0.950 . S
C3651 C3646 1.363 . S
C3651 C3650 1.415 . S
H3652 C3649 0.999 . S
H3653 C3634 0.913 . S
H3654 C3672 0.951 . S
H3655 C3674 0.951 . S
H3656 C3676 0.950 . S
H3657 C3677 0.950 . S
H3658 C3679 0.950 . S
H3659 C3682 0.950 . S
H3660 C3683 0.950 . S
H3661 C3685 0.950 . S
H3662 C3686 0.950 . S
H3663 C3687 0.951 . S
H3664 C3689 0.951 . S
H3665 C3691 0.950 . S
H3666 C3692 0.950 . S
H3667 C3694 0.950 . S
H3668 C3697 0.950 . S
H3669 C3698 0.950 . S
H3670 C3700 0.950 . S
H3671 C3701 0.950 . S
C3672 H3654 0.951 . S
C3672 C3673 1.366 . S
C3672 C3674 1.388 . S
C3673 C3672 1.366 . S
C3673 C3677 1.385 . S
C3674 H3655 0.951 . S
C3674 C3672 1.388 . S
C3674 C3675 1.366 . S
C3675 C3674 1.366 . S
C3675 C3676 1.414 . S
C3675 C3678 1.499 . S
C3676 H3656 0.950 . S
C3676 C3675 1.414 . S
C3676 C3677 1.374 . S
C3677 H3657 0.950 . S
C3677 C3673 1.385 . S
C3677 C3676 1.374 . S
C3678 C3675 1.499 . S
C3678 C3679 1.373 . S
C3678 C3680 1.389 . S
C3679 H3658 0.950 . S
C3679 C3678 1.373 . S
C3679 C3695 1.377 . S
C3680 C3678 1.389 . S
C3680 C3681 1.524 . S
C3680 C3694 1.377 . S
C3681 C3680 1.524 . S
C3681 C3682 1.397 . S
C3681 C3686 1.363 . S
C3682 H3659 0.950 . S
C3682 C3681 1.397 . S
C3682 C3683 1.334 . S
C3683 H3660 0.950 . S
C3683 C3682 1.334 . S
C3683 C3684 1.287 . S
C3684 C3683 1.287 . S
C3684 C3685 1.524 . S
C3684 H3703 0.913 . S
C3685 H3661 0.950 . S
C3685 C3684 1.524 . S
C3685 C3686 1.415 . S
C3686 H3662 0.950 . S
C3686 C3681 1.363 . S
C3686 C3685 1.415 . S
C3687 H3663 0.951 . S
C3687 C3688 1.366 . S
C3687 C3689 1.388 . S
C3688 C3687 1.366 . S
C3688 C3692 1.385 . S
C3689 H3664 0.951 . S
C3689 C3687 1.388 . S
C3689 C3690 1.366 . S
C3690 C3689 1.366 . S
C3690 C3691 1.414 . S
C3690 C3693 1.499 . S
C3691 H3665 0.950 . S
C3691 C3690 1.414 . S
C3691 C3692 1.374 . S
C3692 H3666 0.950 . S
C3692 C3688 1.385 . S
C3692 C3691 1.374 . S
C3693 C3690 1.499 . S
C3693 C3694 1.373 . S
C3693 C3695 1.389 . S
C3694 H3667 0.950 . S
C3694 C3680 1.377 . S
C3694 C3693 1.373 . S
C3695 C3679 1.377 . S
C3695 C3693 1.389 . S
C3695 C3696 1.524 . S
C3696 C3695 1.524 . S
C3696 C3697 1.397 . S
C3696 C3701 1.363 . S
C3697 H3668 0.950 . S
C3697 C3696 1.397 . S
C3697 C3698 1.334 . S
C3698 H3669 0.950 . S
C3698 C3697 1.334 . S
C3698 C3699 1.287 . S
C3699 C3698 1.287 . S
C3699 C3700 1.524 . S
C3699 H3702 0.999 . S
C3700 H3670 0.950 . S
C3700 C3699 1.524 . S
C3700 C3701 1.415 . S
C3701 H3671 0.950 . S
C3701 C3696 1.363 . S
C3701 C3700 1.415 . S
H3702 C3699 0.999 . S
H3703 C3684 0.913 . S
H3704 C3722 0.951 . S
H3705 C3724 0.951 . S
H3706 C3726 0.950 . S
H3707 C3727 0.950 . S
H3708 C3729 0.950 . S
H3709 C3732 0.950 . S
H3710 C3733 0.950 . S
H3711 C3735 0.950 . S
H3712 C3736 0.950 . S
H3713 C3737 0.951 . S
H3714 C3739 0.951 . S
H3715 C3741 0.950 . S
H3716 C3742 0.950 . S
H3717 C3744 0.950 . S
H3718 C3747 0.950 . S
H3719 C3748 0.950 . S
H3720 C3750 0.950 . S
H3721 C3751 0.950 . S
C3722 H3704 0.951 . S
C3722 C3723 1.366 . S
C3722 C3724 1.388 . S
C3723 C3722 1.366 . S
C3723 C3727 1.385 . S
C3724 H3705 0.951 . S
C3724 C3722 1.388 . S
C3724 C3725 1.366 . S
C3725 C3724 1.366 . S
C3725 C3726 1.414 . S
C3725 C3728 1.499 . S
C3726 H3706 0.950 . S
C3726 C3725 1.414 . S
C3726 C3727 1.374 . S
C3727 H3707 0.950 . S
C3727 C3723 1.385 . S
C3727 C3726 1.374 . S
C3728 C3725 1.499 . S
C3728 C3729 1.373 . S
C3728 C3730 1.389 . S
C3729 H3708 0.950 . S
C3729 C3728 1.373 . S
C3729 C3745 1.377 . S
C3730 C3728 1.389 . S
C3730 C3731 1.524 . S
C3730 C3744 1.377 . S
C3731 C3730 1.524 . S
C3731 C3732 1.397 . S
C3731 C3736 1.363 . S
C3732 H3709 0.950 . S
C3732 C3731 1.397 . S
C3732 C3733 1.334 . S
C3733 H3710 0.950 . S
C3733 C3732 1.334 . S
C3733 C3734 1.287 . S
C3734 C3733 1.287 . S
C3734 C3735 1.524 . S
C3734 H3753 0.913 . S
C3735 H3711 0.950 . S
C3735 C3734 1.524 . S
C3735 C3736 1.415 . S
C3736 H3712 0.950 . S
C3736 C3731 1.363 . S
C3736 C3735 1.415 . S
C3737 H3713 0.951 . S
C3737 C3738 1.366 . S
C3737 C3739 1.388 . S
C3738 C3737 1.366 . S
C3738 C3742 1.385 . S
C3739 H3714 0.951 . S
C3739 C3737 1.388 . S
C3739 C3740 1.366 . S
C3740 C3739 1.366 . S
C3740 C3741 1.414 . S
C3740 C3743 1.499 . S
C3741 H3715 0.950 . S
C3741 C3740 1.414 . S
C3741 C3742 1.374 . S
C3742 H3716 0.950 . S
C3742 C3738 1.385 . S
C3742 C3741 1.374 . S
C3743 C3740 1.499 . S
C3743 C3744 1.373 . S
C3743 C3745 1.389 . S
C3744 H3717 0.950 . S
C3744 C3730 1.377 . S
C3744 C3743 1.373 . S
C3745 C3729 1.377 . S
C3745 C3743 1.389 . S
C3745 C3746 1.524 . S
C3746 C3745 1.524 . S
C3746 C3747 1.397 . S
C3746 C3751 1.363 . S
C3747 H3718 0.950 . S
C3747 C3746 1.397 . S
C3747 C3748 1.334 . S
C3748 H3719 0.950 . S
C3748 C3747 1.334 . S
C3748 C3749 1.287 . S
C3749 C3748 1.287 . S
C3749 C3750 1.524 . S
C3749 H3752 0.999 . S
C3750 H3720 0.950 . S
C3750 C3749 1.524 . S
C3750 C3751 1.415 . S
C3751 H3721 0.950 . S
C3751 C3746 1.363 . S
C3751 C3750 1.415 . S
H3752 C3749 0.999 . S
H3753 C3734 0.913 . S
H3754 C3772 0.951 . S
H3755 C3774 0.951 . S
H3756 C3776 0.950 . S
H3757 C3777 0.950 . S
H3758 C3779 0.950 . S
H3759 C3782 0.950 . S
H3760 C3783 0.950 . S
H3761 C3785 0.950 . S
H3762 C3786 0.950 . S
H3763 C3787 0.951 . S
H3764 C3789 0.951 . S
H3765 C3791 0.950 . S
H3766 C3792 0.950 . S
H3767 C3794 0.950 . S
H3768 C3797 0.950 . S
H3769 C3798 0.950 . S
H3770 C3800 0.950 . S
H3771 C3801 0.950 . S
C3772 H3754 0.951 . S
C3772 C3773 1.366 . S
C3772 C3774 1.388 . S
C3773 C3772 1.366 . S
C3773 C3777 1.385 . S
C3774 H3755 0.951 . S
C3774 C3772 1.388 . S
C3774 C3775 1.366 . S
C3775 C3774 1.366 . S
C3775 C3776 1.414 . S
C3775 C3778 1.499 . S
C3776 H3756 0.950 . S
C3776 C3775 1.414 . S
C3776 C3777 1.374 . S
C3777 H3757 0.950 . S
C3777 C3773 1.385 . S
C3777 C3776 1.374 . S
C3778 C3775 1.499 . S
C3778 C3779 1.373 . S
C3778 C3780 1.389 . S
C3779 H3758 0.950 . S
C3779 C3778 1.373 . S
C3779 C3795 1.377 . S
C3780 C3778 1.389 . S
C3780 C3781 1.524 . S
C3780 C3794 1.377 . S
C3781 C3780 1.524 . S
C3781 C3782 1.397 . S
C3781 C3786 1.363 . S
C3782 H3759 0.950 . S
C3782 C3781 1.397 . S
C3782 C3783 1.334 . S
C3783 H3760 0.950 . S
C3783 C3782 1.334 . S
C3783 C3784 1.287 . S
C3784 C3783 1.287 . S
C3784 C3785 1.524 . S
C3784 H3803 0.913 . S
C3785 H3761 0.950 . S
C3785 C3784 1.524 . S
C3785 C3786 1.415 . S
C3786 H3762 0.950 . S
C3786 C3781 1.363 . S
C3786 C3785 1.415 . S
C3787 H3763 0.951 . S
C3787 C3788 1.366 . S
C3787 C3789 1.388 . S
C3788 C3787 1.366 . S
C3788 C3792 1.385 . S
C3789 H3764 0.951 . S
C3789 C3787 1.388 . S
C3789 C3790 1.366 . S
C3790 C3789 1.366 . S
C3790 C3791 1.414 . S
C3790 C3793 1.499 . S
C3791 H3765 0.950 . S
C3791 C3790 1.414 . S
C3791 C3792 1.374 . S
C3792 H3766 0.950 . S
C3792 C3788 1.385 . S
C3792 C3791 1.374 . S
C3793 C3790 1.499 . S
C3793 C3794 1.373 . S
C3793 C3795 1.389 . S
C3794 H3767 0.950 . S
C3794 C3780 1.377 . S
C3794 C3793 1.373 . S
C3795 C3779 1.377 . S
C3795 C3793 1.389 . S
C3795 C3796 1.524 . S
C3796 C3795 1.524 . S
C3796 C3797 1.397 . S
C3796 C3801 1.363 . S
C3797 H3768 0.950 . S
C3797 C3796 1.397 . S
C3797 C3798 1.334 . S
C3798 H3769 0.950 . S
C3798 C3797 1.334 . S
C3798 C3799 1.287 . S
C3799 C3798 1.287 . S
C3799 C3800 1.524 . S
C3799 H3802 0.999 . S
C3800 H3770 0.950 . S
C3800 C3799 1.524 . S
C3800 C3801 1.415 . S
C3801 H3771 0.950 . S
C3801 C3796 1.363 . S
C3801 C3800 1.415 . S
H3802 C3799 0.999 . S
H3803 C3784 0.913 . S
H3804 C3822 0.951 . S
H3805 C3824 0.951 . S
H3806 C3826 0.950 . S
H3807 C3827 0.950 . S
H3808 C3829 0.950 . S
H3809 C3832 0.950 . S
H3810 C3833 0.950 . S
H3811 C3835 0.950 . S
H3812 C3836 0.950 . S
H3813 C3837 0.951 . S
H3814 C3839 0.951 . S
H3815 C3841 0.950 . S
H3816 C3842 0.950 . S
H3817 C3844 0.950 . S
H3818 C3847 0.950 . S
H3819 C3848 0.950 . S
H3820 C3850 0.950 . S
H3821 C3851 0.950 . S
C3822 H3804 0.951 . S
C3822 C3823 1.366 . S
C3822 C3824 1.388 . S
C3823 C3822 1.366 . S
C3823 C3827 1.385 . S
C3824 H3805 0.951 . S
C3824 C3822 1.388 . S
C3824 C3825 1.366 . S
C3825 C3824 1.366 . S
C3825 C3826 1.414 . S
C3825 C3828 1.499 . S
C3826 H3806 0.950 . S
C3826 C3825 1.414 . S
C3826 C3827 1.374 . S
C3827 H3807 0.950 . S
C3827 C3823 1.385 . S
C3827 C3826 1.374 . S
C3828 C3825 1.499 . S
C3828 C3829 1.373 . S
C3828 C3830 1.389 . S
C3829 H3808 0.950 . S
C3829 C3828 1.373 . S
C3829 C3845 1.377 . S
C3830 C3828 1.389 . S
C3830 C3831 1.524 . S
C3830 C3844 1.377 . S
C3831 C3830 1.524 . S
C3831 C3832 1.397 . S
C3831 C3836 1.363 . S
C3832 H3809 0.950 . S
C3832 C3831 1.397 . S
C3832 C3833 1.334 . S
C3833 H3810 0.950 . S
C3833 C3832 1.334 . S
C3833 C3834 1.287 . S
C3834 C3833 1.287 . S
C3834 C3835 1.524 . S
C3834 H3853 0.913 . S
C3835 H3811 0.950 . S
C3835 C3834 1.524 . S
C3835 C3836 1.415 . S
C3836 H3812 0.950 . S
C3836 C3831 1.363 . S
C3836 C3835 1.415 . S
C3837 H3813 0.951 . S
C3837 C3838 1.366 . S
C3837 C3839 1.388 . S
C3838 C3837 1.366 . S
C3838 C3842 1.385 . S
C3839 H3814 0.951 . S
C3839 C3837 1.388 . S
C3839 C3840 1.366 . S
C3840 C3839 1.366 . S
C3840 C3841 1.414 . S
C3840 C3843 1.499 . S
C3841 H3815 0.950 . S
C3841 C3840 1.414 . S
C3841 C3842 1.374 . S
C3842 H3816 0.950 . S
C3842 C3838 1.385 . S
C3842 C3841 1.374 . S
C3843 C3840 1.499 . S
C3843 C3844 1.373 . S
C3843 C3845 1.389 . S
C3844 H3817 0.950 . S
C3844 C3830 1.377 . S
C3844 C3843 1.373 . S
C3845 C3829 1.377 . S
C3845 C3843 1.389 . S
C3845 C3846 1.524 . S
C3846 C3845 1.524 . S
C3846 C3847 1.397 . S
C3846 C3851 1.363 . S
C3847 H3818 0.950 . S
C3847 C3846 1.397 . S
C3847 C3848 1.334 . S
C3848 H3819 0.950 . S
C3848 C3847 1.334 . S
C3848 C3849 1.287 . S
C3849 C3848 1.287 . S
C3849 C3850 1.524 . S
C3849 H3852 0.999 . S
C3850 H3820 0.950 . S
C3850 C3849 1.524 . S
C3850 C3851 1.415 . S
C3851 H3821 0.950 . S
C3851 C3846 1.363 . S
C3851 C3850 1.415 . S
H3852 C3849 0.999 . S
H3853 C3834 0.913 . S
H3854 C3872 0.951 . S
H3855 C3874 0.951 . S
H3856 C3876 0.950 . S
H3857 C3877 0.950 . S
H3858 C3879 0.950 . S
H3859 C3882 0.950 . S
H3860 C3883 0.950 . S
H3861 C3885 0.950 . S
H3862 C3886 0.950 . S
H3863 C3887 0.951 . S
H3864 C3889 0.951 . S
H3865 C3891 0.950 . S
H3866 C3892 0.950 . S
H3867 C3894 0.950 . S
H3868 C3897 0.950 . S
H3869 C3898 0.950 . S
H3870 C3900 0.950 . S
H3871 C3901 0.950 . S
C3872 H3854 0.951 . S
C3872 C3873 1.366 . S
C3872 C3874 1.388 . S
C3873 C3872 1.366 . S
C3873 C3877 1.385 . S
C3874 H3855 0.951 . S
C3874 C3872 1.388 . S
C3874 C3875 1.366 . S
C3875 C3874 1.366 . S
C3875 C3876 1.414 . S
C3875 C3878 1.499 . S
C3876 H3856 0.950 . S
C3876 C3875 1.414 . S
C3876 C3877 1.374 . S
C3877 H3857 0.950 . S
C3877 C3873 1.385 . S
C3877 C3876 1.374 . S
C3878 C3875 1.499 . S
C3878 C3879 1.373 . S
C3878 C3880 1.389 . S
C3879 H3858 0.950 . S
C3879 C3878 1.373 . S
C3879 C3895 1.377 . S
C3880 C3878 1.389 . S
C3880 C3881 1.524 . S
C3880 C3894 1.377 . S
C3881 C3880 1.524 . S
C3881 C3882 1.397 . S
C3881 C3886 1.363 . S
C3882 H3859 0.950 . S
C3882 C3881 1.397 . S
C3882 C3883 1.334 . S
C3883 H3860 0.950 . S
C3883 C3882 1.334 . S
C3883 C3884 1.287 . S
C3884 C3883 1.287 . S
C3884 C3885 1.524 . S
C3884 H3903 0.913 . S
C3885 H3861 0.950 . S
C3885 C3884 1.524 . S
C3885 C3886 1.415 . S
C3886 H3862 0.950 . S
C3886 C3881 1.363 . S
C3886 C3885 1.415 . S
C3887 H3863 0.951 . S
C3887 C3888 1.366 . S
C3887 C3889 1.388 . S
C3888 C3887 1.366 . S
C3888 C3892 1.385 . S
C3889 H3864 0.951 . S
C3889 C3887 1.388 . S
C3889 C3890 1.366 . S
C3890 C3889 1.366 . S
C3890 C3891 1.414 . S
C3890 C3893 1.499 . S
C3891 H3865 0.950 . S
C3891 C3890 1.414 . S
C3891 C3892 1.374 . S
C3892 H3866 0.950 . S
C3892 C3888 1.385 . S
C3892 C3891 1.374 . S
C3893 C3890 1.499 . S
C3893 C3894 1.373 . S
C3893 C3895 1.389 . S
C3894 H3867 0.950 . S
C3894 C3880 1.377 . S
C3894 C3893 1.373 . S
C3895 C3879 1.377 . S
C3895 C3893 1.389 . S
C3895 C3896 1.524 . S
C3896 C3895 1.524 . S
C3896 C3897 1.397 . S
C3896 C3901 1.363 . S
C3897 H3868 0.950 . S
C3897 C3896 1.397 . S
C3897 C3898 1.334 . S
C3898 H3869 0.950 . S
C3898 C3897 1.334 . S
C3898 C3899 1.287 . S
C3899 C3898 1.287 . S
C3899 C3900 1.524 . S
C3899 H3902 0.999 . S
C3900 H3870 0.950 . S
C3900 C3899 1.524 . S
C3900 C3901 1.415 . S
C3901 H3871 0.950 . S
C3901 C3896 1.363 . S
C3901 C3900 1.415 . S
H3902 C3899 0.999 . S
H3903 C3884 0.913 . S
H3904 C3922 0.951 . S
H3905 C3924 0.951 . S
H3906 C3926 0.950 . S
H3907 C3927 0.950 . S
H3908 C3929 0.950 . S
H3909 C3932 0.950 . S
H3910 C3933 0.950 . S
H3911 C3935 0.950 . S
H3912 C3936 0.950 . S
H3913 C3937 0.951 . S
H3914 C3939 0.951 . S
H3915 C3941 0.950 . S
H3916 C3942 0.950 . S
H3917 C3944 0.950 . S
H3918 C3947 0.950 . S
H3919 C3948 0.950 . S
H3920 C3950 0.950 . S
H3921 C3951 0.950 . S
C3922 H3904 0.951 . S
C3922 C3923 1.366 . S
C3922 C3924 1.388 . S
C3923 C3922 1.366 . S
C3923 C3927 1.385 . S
C3924 H3905 0.951 . S
C3924 C3922 1.388 . S
C3924 C3925 1.366 . S
C3925 C3924 1.366 . S
C3925 C3926 1.414 . S
C3925 C3928 1.499 . S
C3926 H3906 0.950 . S
C3926 C3925 1.414 . S
C3926 C3927 1.374 . S
C3927 H3907 0.950 . S
C3927 C3923 1.385 . S
C3927 C3926 1.374 . S
C3928 C3925 1.499 . S
C3928 C3929 1.373 . S
C3928 C3930 1.389 . S
C3929 H3908 0.950 . S
C3929 C3928 1.373 . S
C3929 C3945 1.377 . S
C3930 C3928 1.389 . S
C3930 C3931 1.524 . S
C3930 C3944 1.377 . S
C3931 C3930 1.524 . S
C3931 C3932 1.397 . S
C3931 C3936 1.363 . S
C3932 H3909 0.950 . S
C3932 C3931 1.397 . S
C3932 C3933 1.334 . S
C3933 H3910 0.950 . S
C3933 C3932 1.334 . S
C3933 C3934 1.287 . S
C3934 C3933 1.287 . S
C3934 C3935 1.524 . S
C3934 H3953 0.913 . S
C3935 H3911 0.950 . S
C3935 C3934 1.524 . S
C3935 C3936 1.415 . S
C3936 H3912 0.950 . S
C3936 C3931 1.363 . S
C3936 C3935 1.415 . S
C3937 H3913 0.951 . S
C3937 C3938 1.366 . S
C3937 C3939 1.388 . S
C3938 C3937 1.366 . S
C3938 C3942 1.385 . S
C3939 H3914 0.951 . S
C3939 C3937 1.388 . S
C3939 C3940 1.366 . S
C3940 C3939 1.366 . S
C3940 C3941 1.414 . S
C3940 C3943 1.499 . S
C3941 H3915 0.950 . S
C3941 C3940 1.414 . S
C3941 C3942 1.374 . S
C3942 H3916 0.950 . S
C3942 C3938 1.385 . S
C3942 C3941 1.374 . S
C3943 C3940 1.499 . S
C3943 C3944 1.373 . S
C3943 C3945 1.389 . S
C3944 H3917 0.950 . S
C3944 C3930 1.377 . S
C3944 C3943 1.373 . S
C3945 C3929 1.377 . S
C3945 C3943 1.389 . S
C3945 C3946 1.524 . S
C3946 C3945 1.524 . S
C3946 C3947 1.397 . S
C3946 C3951 1.363 . S
C3947 H3918 0.950 . S
C3947 C3946 1.397 . S
C3947 C3948 1.334 . S
C3948 H3919 0.950 . S
C3948 C3947 1.334 . S
C3948 C3949 1.287 . S
C3949 C3948 1.287 . S
C3949 C3950 1.524 . S
C3949 H3952 0.999 . S
C3950 H3920 0.950 . S
C3950 C3949 1.524 . S
C3950 C3951 1.415 . S
C3951 H3921 0.950 . S
C3951 C3946 1.363 . S
C3951 C3950 1.415 . S
H3952 C3949 0.999 . S
H3953 C3934 0.913 . S
H3954 C3972 0.951 . S
H3955 C3974 0.951 . S
H3956 C3976 0.950 . S
H3957 C3977 0.950 . S
H3958 C3979 0.950 . S
H3959 C3982 0.950 . S
H3960 C3983 0.950 . S
H3961 C3985 0.950 . S
H3962 C3986 0.950 . S
H3963 C3987 0.951 . S
H3964 C3989 0.951 . S
H3965 C3991 0.950 . S
H3966 C3992 0.950 . S
H3967 C3994 0.950 . S
H3968 C3997 0.950 . S
H3969 C3998 0.950 . S
H3970 C4000 0.950 . S
H3971 C4001 0.950 . S
C3972 H3954 0.951 . S
C3972 C3973 1.366 . S
C3972 C3974 1.388 . S
C3973 C3972 1.366 . S
C3973 C3977 1.385 . S
C3974 H3955 0.951 . S
C3974 C3972 1.388 . S
C3974 C3975 1.366 . S
C3975 C3974 1.366 . S
C3975 C3976 1.414 . S
C3975 C3978 1.499 . S
C3976 H3956 0.950 . S
C3976 C3975 1.414 . S
C3976 C3977 1.374 . S
C3977 H3957 0.950 . S
C3977 C3973 1.385 . S
C3977 C3976 1.374 . S
C3978 C3975 1.499 . S
C3978 C3979 1.373 . S
C3978 C3980 1.389 . S
C3979 H3958 0.950 . S
C3979 C3978 1.373 . S
C3979 C3995 1.377 . S
C3980 C3978 1.389 . S
C3980 C3981 1.524 . S
C3980 C3994 1.377 . S
C3981 C3980 1.524 . S
C3981 C3982 1.397 . S
C3981 C3986 1.363 . S
C3982 H3959 0.950 . S
C3982 C3981 1.397 . S
C3982 C3983 1.334 . S
C3983 H3960 0.950 . S
C3983 C3982 1.334 . S
C3983 C3984 1.287 . S
C3984 C3983 1.287 . S
C3984 C3985 1.524 . S
C3984 H4003 0.913 . S
C3985 H3961 0.950 . S
C3985 C3984 1.524 . S
C3985 C3986 1.415 . S
C3986 H3962 0.950 . S
C3986 C3981 1.363 . S
C3986 C3985 1.415 . S
C3987 H3963 0.951 . S
C3987 C3988 1.366 . S
C3987 C3989 1.388 . S
C3988 C3987 1.366 . S
C3988 C3992 1.385 . S
C3989 H3964 0.951 . S
C3989 C3987 1.388 . S
C3989 C3990 1.366 . S
C3990 C3989 1.366 . S
C3990 C3991 1.414 . S
C3990 C3993 1.499 . S
C3991 H3965 0.950 . S
C3991 C3990 1.414 . S
C3991 C3992 1.374 . S
C3992 H3966 0.950 . S
C3992 C3988 1.385 . S
C3992 C3991 1.374 . S
C3993 C3990 1.499 . S
C3993 C3994 1.373 . S
C3993 C3995 1.389 . S
C3994 H3967 0.950 . S
C3994 C3980 1.377 . S
C3994 C3993 1.373 . S
C3995 C3979 1.377 . S
C3995 C3993 1.389 . S
C3995 C3996 1.524 . S
C3996 C3995 1.524 . S
C3996 C3997 1.397 . S
C3996 C4001 1.363 . S
C3997 H3968 0.950 . S
C3997 C3996 1.397 . S
C3997 C3998 1.334 . S
C3998 H3969 0.950 . S
C3998 C3997 1.334 . S
C3998 C3999 1.287 . S
C3999 C3998 1.287 . S
C3999 C4000 1.524 . S
C3999 H4002 0.999 . S
C4000 H3970 0.950 . S
C4000 C3999 1.524 . S
C4000 C4001 1.415 . S
C4001 H3971 0.950 . S
C4001 C3996 1.363 . S
C4001 C4000 1.415 . S
H4002 C3999 0.999 . S
H4003 C3984 0.913 . S
H4004 C4022 0.951 . S
H4005 C4024 0.951 . S
H4006 C4026 0.950 . S
H4007 C4027 0.950 . S
H4008 C4029 0.950 . S
H4009 C4032 0.950 . S
H4010 C4033 0.950 . S
H4011 C4035 0.950 . S
H4012 C4036 0.950 . S
H4013 C4037 0.951 . S
H4014 C4039 0.951 . S
H4015 C4041 0.950 . S
H4016 C4042 0.950 . S
H4017 C4044 0.950 . S
H4018 C4047 0.950 . S
H4019 C4048 0.950 . S
H4020 C4050 0.950 . S
H4021 C4051 0.950 . S
C4022 H4004 0.951 . S
C4022 C4023 1.366 . S
C4022 C4024 1.388 . S
C4023 C4022 1.366 . S
C4023 C4027 1.385 . S
C4024 H4005 0.951 . S
C4024 C4022 1.388 . S
C4024 C4025 1.366 . S
C4025 C4024 1.366 . S
C4025 C4026 1.414 . S
C4025 C4028 1.499 . S
C4026 H4006 0.950 . S
C4026 C4025 1.414 . S
C4026 C4027 1.374 . S
C4027 H4007 0.950 . S
C4027 C4023 1.385 . S
C4027 C4026 1.374 . S
C4028 C4025 1.499 . S
C4028 C4029 1.373 . S
C4028 C4030 1.389 . S
C4029 H4008 0.950 . S
C4029 C4028 1.373 . S
C4029 C4045 1.377 . S
C4030 C4028 1.389 . S
C4030 C4031 1.524 . S
C4030 C4044 1.377 . S
C4031 C4030 1.524 . S
C4031 C4032 1.397 . S
C4031 C4036 1.363 . S
C4032 H4009 0.950 . S
C4032 C4031 1.397 . S
C4032 C4033 1.334 . S
C4033 H4010 0.950 . S
C4033 C4032 1.334 . S
C4033 C4034 1.287 . S
C4034 C4033 1.287 . S
C4034 C4035 1.524 . S
C4034 H4053 0.913 . S
C4035 H4011 0.950 . S
C4035 C4034 1.524 . S
C4035 C4036 1.415 . S
C4036 H4012 0.950 . S
C4036 C4031 1.363 . S
C4036 C4035 1.415 . S
C4037 H4013 0.951 . S
C4037 C4038 1.366 . S
C4037 C4039 1.388 . S
C4038 C4037 1.366 . S
C4038 C4042 1.385 . S
C4039 H4014 0.951 . S
C4039 C4037 1.388 . S
C4039 C4040 1.366 . S
C4040 C4039 1.366 . S
C4040 C4041 1.414 . S
C4040 C4043 1.499 . S
C4041 H4015 0.950 . S
C4041 C4040 1.414 . S
C4041 C4042 1.374 . S
C4042 H4016 0.950 . S
C4042 C4038 1.385 . S
C4042 C4041 1.374 . S
C4043 C4040 1.499 . S
C4043 C4044 1.373 . S
C4043 C4045 1.389 . S
C4044 H4017 0.950 . S
C4044 C4030 1.377 . S
C4044 C4043 1.373 . S
C4045 C4029 1.377 . S
C4045 C4043 1.389 . S
C4045 C4046 1.524 . S
C4046 C4045 1.524 . S
C4046 C4047 1.397 . S
C4046 C4051 1.363 . S
C4047 H4018 0.950 . S
C4047 C4046 1.397 . S
C4047 C4048 1.334 . S
C4048 H4019 0.950 . S
C4048 C4047 1.334 . S
C4048 C4049 1.287 . S
C4049 C4048 1.287 . S
C4049 C4050 1.524 . S
C4049 H4052 0.999 . S
C4050 H4020 0.950 . S
C4050 C4049 1.524 . S
C4050 C4051 1.415 . S
C4051 H4021 0.950 . S
C4051 C4046 1.363 . S
C4051 C4050 1.415 . S
H4052 C4049 0.999 . S
H4053 C4034 0.913 . S
H4054 C4072 0.951 . S
H4055 C4074 0.951 . S
H4056 C4076 0.950 . S
H4057 C4077 0.950 . S
H4058 C4079 0.950 . S
H4059 C4082 0.950 . S
H4060 C4083 0.950 . S
H4061 C4085 0.950 . S
H4062 C4086 0.950 . S
H4063 C4087 0.951 . S
H4064 C4089 0.951 . S
H4065 C4091 0.950 . S
H4066 C4092 0.950 . S
H4067 C4094 0.950 . S
H4068 C4097 0.950 . S
H4069 C4098 0.950 . S
H4070 C4100 0.950 . S
H4071 C4101 0.950 . S
C4072 H4054 0.951 . S
C4072 C4073 1.366 . S
C4072 C4074 1.388 . S
C4073 C4072 1.366 . S
C4073 C4077 1.385 . S
C4074 H4055 0.951 . S
C4074 C4072 1.388 . S
C4074 C4075 1.366 . S
C4075 C4074 1.366 . S
C4075 C4076 1.414 . S
C4075 C4078 1.499 . S
C4076 H4056 0.950 . S
C4076 C4075 1.414 . S
C4076 C4077 1.374 . S
C4077 H4057 0.950 . S
C4077 C4073 1.385 . S
C4077 C4076 1.374 . S
C4078 C4075 1.499 . S
C4078 C4079 1.373 . S
C4078 C4080 1.389 . S
C4079 H4058 0.950 . S
C4079 C4078 1.373 . S
C4079 C4095 1.377 . S
C4080 C4078 1.389 . S
C4080 C4081 1.524 . S
C4080 C4094 1.377 . S
C4081 C4080 1.524 . S
C4081 C4082 1.397 . S
C4081 C4086 1.363 . S
C4082 H4059 0.950 . S
C4082 C4081 1.397 . S
C4082 C4083 1.334 . S
C4083 H4060 0.950 . S
C4083 C4082 1.334 . S
C4083 C4084 1.287 . S
C4084 C4083 1.287 . S
C4084 C4085 1.524 . S
C4084 H4103 0.913 . S
C4085 H4061 0.950 . S
C4085 C4084 1.524 . S
C4085 C4086 1.415 . S
C4086 H4062 0.950 . S
C4086 C4081 1.363 . S
C4086 C4085 1.415 . S
C4087 H4063 0.951 . S
C4087 C4088 1.366 . S
C4087 C4089 1.388 . S
C4088 C4087 1.366 . S
C4088 C4092 1.385 . S
C4089 H4064 0.951 . S
C4089 C4087 1.388 . S
C4089 C4090 1.366 . S
C4090 C4089 1.366 . S
C4090 C4091 1.414 . S
C4090 C4093 1.499 . S
C4091 H4065 0.950 . S
C4091 C4090 1.414 . S
C4091 C4092 1.374 . S
C4092 H4066 0.950 . S
C4092 C4088 1.385 . S
C4092 C4091 1.374 . S
C4093 C4090 1.499 . S
C4093 C4094 1.373 . S
C4093 C4095 1.389 . S
C4094 H4067 0.950 . S
C4094 C4080 1.377 . S
C4094 C4093 1.373 . S
C4095 C4079 1.377 . S
C4095 C4093 1.389 . S
C4095 C4096 1.524 . S
C4096 C4095 1.524 . S
C4096 C4097 1.397 . S
C4096 C4101 1.363 . S
C4097 H4068 0.950 . S
C4097 C4096 1.397 . S
C4097 C4098 1.334 . S
C4098 H4069 0.950 . S
C4098 C4097 1.334 . S
C4098 C4099 1.287 . S
C4099 C4098 1.287 . S
C4099 C4100 1.524 . S
C4099 H4102 0.999 . S
C4100 H4070 0.950 . S
C4100 C4099 1.524 . S
C4100 C4101 1.415 . S
C4101 H4071 0.950 . S
C4101 C4096 1.363 . S
C4101 C4100 1.415 . S
H4102 C4099 0.999 . S
H4103 C4084 0.913 . S
H4104 C4122 0.951 . S
H4105 C4124 0.951 . S
H4106 C4126 0.950 . S
H4107 C4127 0.950 . S
H4108 C4129 0.950 . S
H4109 C4132 0.950 . S
H4110 C4133 0.950 . S
H4111 C4135 0.950 . S
H4112 C4136 0.950 . S
H4113 C4137 0.951 . S
H4114 C4139 0.951 . S
H4115 C4141 0.950 . S
H4116 C4142 0.950 . S
H4117 C4144 0.950 . S
H4118 C4147 0.950 . S
H4119 C4148 0.950 . S
H4120 C4150 0.950 . S
H4121 C4151 0.950 . S
C4122 H4104 0.951 . S
C4122 C4123 1.366 . S
C4122 C4124 1.388 . S
C4123 C4122 1.366 . S
C4123 C4127 1.385 . S
C4124 H4105 0.951 . S
C4124 C4122 1.388 . S
C4124 C4125 1.366 . S
C4125 C4124 1.366 . S
C4125 C4126 1.414 . S
C4125 C4128 1.499 . S
C4126 H4106 0.950 . S
C4126 C4125 1.414 . S
C4126 C4127 1.374 . S
C4127 H4107 0.950 . S
C4127 C4123 1.385 . S
C4127 C4126 1.374 . S
C4128 C4125 1.499 . S
C4128 C4129 1.373 . S
C4128 C4130 1.389 . S
C4129 H4108 0.950 . S
C4129 C4128 1.373 . S
C4129 C4145 1.377 . S
C4130 C4128 1.389 . S
C4130 C4131 1.524 . S
C4130 C4144 1.377 . S
C4131 C4130 1.524 . S
C4131 C4132 1.397 . S
C4131 C4136 1.363 . S
C4132 H4109 0.950 . S
C4132 C4131 1.397 . S
C4132 C4133 1.334 . S
C4133 H4110 0.950 . S
C4133 C4132 1.334 . S
C4133 C4134 1.287 . S
C4134 C4133 1.287 . S
C4134 C4135 1.524 . S
C4134 H4153 0.913 . S
C4135 H4111 0.950 . S
C4135 C4134 1.524 . S
C4135 C4136 1.415 . S
C4136 H4112 0.950 . S
C4136 C4131 1.363 . S
C4136 C4135 1.415 . S
C4137 H4113 0.951 . S
C4137 C4138 1.366 . S
C4137 C4139 1.388 . S
C4138 C4137 1.366 . S
C4138 C4142 1.385 . S
C4139 H4114 0.951 . S
C4139 C4137 1.388 . S
C4139 C4140 1.366 . S
C4140 C4139 1.366 . S
C4140 C4141 1.414 . S
C4140 C4143 1.499 . S
C4141 H4115 0.950 . S
C4141 C4140 1.414 . S
C4141 C4142 1.374 . S
C4142 H4116 0.950 . S
C4142 C4138 1.385 . S
C4142 C4141 1.374 . S
C4143 C4140 1.499 . S
C4143 C4144 1.373 . S
C4143 C4145 1.389 . S
C4144 H4117 0.950 . S
C4144 C4130 1.377 . S
C4144 C4143 1.373 . S
C4145 C4129 1.377 . S
C4145 C4143 1.389 . S
C4145 C4146 1.524 . S
C4146 C4145 1.524 . S
C4146 C4147 1.397 . S
C4146 C4151 1.363 . S
C4147 H4118 0.950 . S
C4147 C4146 1.397 . S
C4147 C4148 1.334 . S
C4148 H4119 0.950 . S
C4148 C4147 1.334 . S
C4148 C4149 1.287 . S
C4149 C4148 1.287 . S
C4149 C4150 1.524 . S
C4149 H4152 0.999 . S
C4150 H4120 0.950 . S
C4150 C4149 1.524 . S
C4150 C4151 1.415 . S
C4151 H4121 0.950 . S
C4151 C4146 1.363 . S
C4151 C4150 1.415 . S
H4152 C4149 0.999 . S
H4153 C4134 0.913 . S
H4154 C4172 0.951 . S
H4155 C4174 0.951 . S
H4156 C4176 0.950 . S
H4157 C4177 0.950 . S
H4158 C4179 0.950 . S
H4159 C4182 0.950 . S
H4160 C4183 0.950 . S
H4161 C4185 0.950 . S
H4162 C4186 0.950 . S
H4163 C4187 0.951 . S
H4164 C4189 0.951 . S
H4165 C4191 0.950 . S
H4166 C4192 0.950 . S
H4167 C4194 0.950 . S
H4168 C4197 0.950 . S
H4169 C4198 0.950 . S
H4170 C4200 0.950 . S
H4171 C4201 0.950 . S
C4172 H4154 0.951 . S
C4172 C4173 1.366 . S
C4172 C4174 1.388 . S
C4173 C4172 1.366 . S
C4173 C4177 1.385 . S
C4174 H4155 0.951 . S
C4174 C4172 1.388 . S
C4174 C4175 1.366 . S
C4175 C4174 1.366 . S
C4175 C4176 1.414 . S
C4175 C4178 1.499 . S
C4176 H4156 0.950 . S
C4176 C4175 1.414 . S
C4176 C4177 1.374 . S
C4177 H4157 0.950 . S
C4177 C4173 1.385 . S
C4177 C4176 1.374 . S
C4178 C4175 1.499 . S
C4178 C4179 1.373 . S
C4178 C4180 1.389 . S
C4179 H4158 0.950 . S
C4179 C4178 1.373 . S
C4179 C4195 1.377 . S
C4180 C4178 1.389 . S
C4180 C4181 1.524 . S
C4180 C4194 1.377 . S
C4181 C4180 1.524 . S
C4181 C4182 1.397 . S
C4181 C4186 1.363 . S
C4182 H4159 0.950 . S
C4182 C4181 1.397 . S
C4182 C4183 1.334 . S
C4183 H4160 0.950 . S
C4183 C4182 1.334 . S
C4183 C4184 1.287 . S
C4184 C4183 1.287 . S
C4184 C4185 1.524 . S
C4184 H4203 0.913 . S
C4185 H4161 0.950 . S
C4185 C4184 1.524 . S
C4185 C4186 1.415 . S
C4186 H4162 0.950 . S
C4186 C4181 1.363 . S
C4186 C4185 1.415 . S
C4187 H4163 0.951 . S
C4187 C4188 1.366 . S
C4187 C4189 1.388 . S
C4188 C4187 1.366 . S
C4188 C4192 1.385 . S
C4189 H4164 0.951 . S
C4189 C4187 1.388 . S
C4189 C4190 1.366 . S
C4190 C4189 1.366 . S
C4190 C4191 1.414 . S
C4190 C4193 1.499 . S
C4191 H4165 0.950 . S
C4191 C4190 1.414 . S
C4191 C4192 1.374 . S
C4192 H4166 0.950 . S
C4192 C4188 1.385 . S
C4192 C4191 1.374 . S
C4193 C4190 1.499 . S
C4193 C4194 1.373 . S
C4193 C4195 1.389 . S
C4194 H4167 0.950 . S
C4194 C4180 1.377 . S
C4194 C4193 1.373 . S
C4195 C4179 1.377 . S
C4195 C4193 1.389 . S
C4195 C4196 1.524 . S
C4196 C4195 1.524 . S
C4196 C4197 1.397 . S
C4196 C4201 1.363 . S
C4197 H4168 0.950 . S
C4197 C4196 1.397 . S
C4197 C4198 1.334 . S
C4198 H4169 0.950 . S
C4198 C4197 1.334 . S
C4198 C4199 1.287 . S
C4199 C4198 1.287 . S
C4199 C4200 1.524 . S
C4199 H4202 0.999 . S
C4200 H4170 0.950 . S
C4200 C4199 1.524 . S
C4200 C4201 1.415 . S
C4201 H4171 0.950 . S
C4201 C4196 1.363 . S
C4201 C4200 1.415 . S
H4202 C4199 0.999 . S
H4203 C4184 0.913 . S
H4204 C4222 0.951 . S
H4205 C4224 0.951 . S
H4206 C4226 0.950 . S
H4207 C4227 0.950 . S
H4208 C4229 0.950 . S
H4209 C4232 0.950 . S
H4210 C4233 0.950 . S
H4211 C4235 0.950 . S
H4212 C4236 0.950 . S
H4213 C4237 0.951 . S
H4214 C4239 0.951 . S
H4215 C4241 0.950 . S
H4216 C4242 0.950 . S
H4217 C4244 0.950 . S
H4218 C4247 0.950 . S
H4219 C4248 0.950 . S
H4220 C4250 0.950 . S
H4221 C4251 0.950 . S
C4222 H4204 0.951 . S
C4222 C4223 1.366 . S
C4222 C4224 1.388 . S
C4223 C4222 1.366 . S
C4223 C4227 1.385 . S
C4224 H4205 0.951 . S
C4224 C4222 1.388 . S
C4224 C4225 1.366 . S
C4225 C4224 1.366 . S
C4225 C4226 1.414 . S
C4225 C4228 1.499 . S
C4226 H4206 0.950 . S
C4226 C4225 1.414 . S
C4226 C4227 1.374 . S
C4227 H4207 0.950 . S
C4227 C4223 1.385 . S
C4227 C4226 1.374 . S
C4228 C4225 1.499 . S
C4228 C4229 1.373 . S
C4228 C4230 1.389 . S
C4229 H4208 0.950 . S
C4229 C4228 1.373 . S
C4229 C4245 1.377 . S
C4230 C4228 1.389 . S
C4230 C4231 1.524 . S
C4230 C4244 1.377 . S
C4231 C4230 1.524 . S
C4231 C4232 1.397 . S
C4231 C4236 1.363 . S
C4232 H4209 0.950 . S
C4232 C4231 1.397 . S
C4232 C4233 1.334 . S
C4233 H4210 0.950 . S
C4233 C4232 1.334 . S
C4233 C4234 1.287 . S
C4234 C4233 1.287 . S
C4234 C4235 1.524 . S
C4234 H4253 0.913 . S
C4235 H4211 0.950 . S
C4235 C4234 1.524 . S
C4235 C4236 1.415 . S
C4236 H4212 0.950 . S
C4236 C4231 1.363 . S
C4236 C4235 1.415 . S
C4237 H4213 0.951 . S
C4237 C4238 1.366 . S
C4237 C4239 1.388 . S
C4238 C4237 1.366 . S
C4238 C4242 1.385 . S
C4239 H4214 0.951 . S
C4239 C4237 1.388 . S
C4239 C4240 1.366 . S
C4240 C4239 1.366 . S
C4240 C4241 1.414 . S
C4240 C4243 1.499 . S
C4241 H4215 0.950 . S
C4241 C4240 1.414 . S
C4241 C4242 1.374 . S
C4242 H4216 0.950 . S
C4242 C4238 1.385 . S
C4242 C4241 1.374 . S
C4243 C4240 1.499 . S
C4243 C4244 1.373 . S
C4243 C4245 1.389 . S
C4244 H4217 0.950 . S
C4244 C4230 1.377 . S
C4244 C4243 1.373 . S
C4245 C4229 1.377 . S
C4245 C4243 1.389 . S
C4245 C4246 1.524 . S
C4246 C4245 1.524 . S
C4246 C4247 1.397 . S
C4246 C4251 1.363 . S
C4247 H4218 0.950 . S
C4247 C4246 1.397 . S
C4247 C4248 1.334 . S
C4248 H4219 0.950 . S
C4248 C4247 1.334 . S
C4248 C4249 1.287 . S
C4249 C4248 1.287 . S
C4249 C4250 1.524 . S
C4249 H4252 0.999 . S
C4250 H4220 0.950 . S
C4250 C4249 1.524 . S
C4250 C4251 1.415 . S
C4251 H4221 0.950 . S
C4251 C4246 1.363 . S
C4251 C4250 1.415 . S
H4252 C4249 0.999 . S
H4253 C4234 0.913 . S
H4254 C4272 0.951 1_554 S
H4255 C4274 0.951 . S
H4256 C4276 0.950 . S
H4257 C4277 0.950 . S
H4258 C4279 0.950 . S
H4259 C4282 0.950 . S
H4260 C4283 0.950 . S
H4261 C4285 0.950 . S
H4262 C4286 0.950 . S
H4263 C4287 0.951 . S
H4264 C4289 0.951 . S
H4265 C4291 0.950 . S
H4266 C4292 0.950 . S
H4267 C4294 0.950 . S
H4268 C4297 0.950 . S
H4269 C4298 0.950 . S
H4270 C4300 0.950 . S
H4271 C4301 0.950 . S
C4272 H4254 0.951 1_556 S
C4272 C4273 1.366 . S
C4272 C4274 1.388 . S
C4273 C4272 1.366 . S
C4273 C4277 1.385 . S
C4274 H4255 0.951 . S
C4274 C4272 1.388 . S
C4274 C4275 1.366 . S
C4275 C4274 1.366 . S
C4275 C4276 1.414 . S
C4275 C4278 1.499 . S
C4276 H4256 0.950 . S
C4276 C4275 1.414 . S
C4276 C4277 1.374 . S
C4277 H4257 0.950 . S
C4277 C4273 1.385 . S
C4277 C4276 1.374 . S
C4278 C4275 1.499 . S
C4278 C4279 1.373 . S
C4278 C4280 1.389 . S
C4279 H4258 0.950 . S
C4279 C4278 1.373 . S
C4279 C4295 1.377 . S
C4280 C4278 1.389 . S
C4280 C4281 1.524 . S
C4280 C4294 1.377 . S
C4281 C4280 1.524 . S
C4281 C4282 1.397 . S
C4281 C4286 1.363 . S
C4282 H4259 0.950 . S
C4282 C4281 1.397 . S
C4282 C4283 1.334 . S
C4283 H4260 0.950 . S
C4283 C4282 1.334 . S
C4283 C4284 1.287 . S
C4284 C4283 1.287 . S
C4284 C4285 1.524 . S
C4284 H4303 0.976 . S
C4285 H4261 0.950 . S
C4285 C4284 1.524 . S
C4285 C4286 1.415 . S
C4286 H4262 0.950 . S
C4286 C4281 1.363 . S
C4286 C4285 1.415 . S
C4287 H4263 0.951 . S
C4287 C4288 1.366 . S
C4287 C4289 1.388 . S
C4288 C4287 1.366 . S
C4288 C4292 1.385 . S
C4289 H4264 0.951 . S
C4289 C4287 1.388 . S
C4289 C4290 1.366 . S
C4290 C4289 1.366 . S
C4290 C4291 1.414 . S
C4290 C4293 1.499 . S
C4291 H4265 0.950 . S
C4291 C4290 1.414 . S
C4291 C4292 1.374 . S
C4292 H4266 0.950 . S
C4292 C4288 1.385 . S
C4292 C4291 1.374 . S
C4293 C4290 1.499 . S
C4293 C4294 1.373 . S
C4293 C4295 1.389 . S
C4294 H4267 0.950 . S
C4294 C4280 1.377 . S
C4294 C4293 1.373 . S
C4295 C4279 1.377 . S
C4295 C4293 1.389 . S
C4295 C4296 1.524 . S
C4296 C4295 1.524 . S
C4296 C4297 1.397 . S
C4296 C4301 1.363 . S
C4297 H4268 0.950 . S
C4297 C4296 1.397 . S
C4297 C4298 1.334 . S
C4298 H4269 0.950 . S
C4298 C4297 1.334 . S
C4298 C4299 1.287 . S
C4299 C4298 1.287 . S
C4299 C4300 1.524 . S
C4299 H4302 0.999 . S
C4300 H4270 0.950 . S
C4300 C4299 1.524 . S
C4300 C4301 1.415 . S
C4301 H4271 0.950 . S
C4301 C4296 1.363 . S
C4301 C4300 1.415 . S
H4302 C4299 0.999 . S
H4303 C4284 0.976 . S
H4304 C4322 0.951 . S
H4305 C4324 0.951 . S
H4306 C4326 0.950 . S
H4307 C4327 0.950 . S
H4308 C4329 0.950 . S
H4309 C4332 0.950 . S
H4310 C4333 0.950 . S
H4311 C4335 1.016 . S
H4312 C4336 0.950 . S
H4313 C4337 0.951 . S
H4314 C4339 0.951 . S
H4315 C4341 0.950 . S
H4316 C4342 0.950 . S
H4317 C4344 0.950 . S
H4318 C4347 0.950 . S
H4319 C4348 0.950 . S
H4320 C4350 0.950 . S
H4321 C4351 0.950 . S
C4322 H4304 0.951 . S
C4322 C4323 1.366 . S
C4322 C4324 1.388 . S
C4323 C4322 1.366 . S
C4323 C4327 1.385 . S
C4324 H4305 0.951 . S
C4324 C4322 1.388 . S
C4324 C4325 1.366 . S
C4325 C4324 1.366 . S
C4325 C4326 1.414 . S
C4325 C4328 1.499 . S
C4326 H4306 0.950 . S
C4326 C4325 1.414 . S
C4326 C4327 1.374 . S
C4327 H4307 0.950 . S
C4327 C4323 1.385 . S
C4327 C4326 1.374 . S
C4328 C4325 1.499 . S
C4328 C4329 1.373 . S
C4328 C4330 1.389 . S
C4329 H4308 0.950 . S
C4329 C4328 1.373 . S
C4329 C4345 1.377 . S
C4330 C4328 1.389 . S
C4330 C4331 1.524 . S
C4330 C4344 1.377 . S
C4331 C4330 1.524 . S
C4331 C4332 1.397 . S
C4331 C4336 1.363 . S
C4332 H4309 0.950 . S
C4332 C4331 1.397 . S
C4332 C4333 1.334 . S
C4333 H4310 0.950 . S
C4333 C4332 1.334 . S
C4333 C4334 1.287 1_655 S
C4334 C4333 1.287 1_455 S
C4334 C4335 1.498 . S
C4334 H4353 0.913 . S
C4335 H4311 1.016 . S
C4335 C4334 1.498 . S
C4335 C4336 1.367 1_455 S
C4336 H4312 0.950 . S
C4336 C4331 1.363 . S
C4336 C4335 1.367 1_655 S
C4337 H4313 0.951 . S
C4337 C4338 1.366 . S
C4337 C4339 1.388 . S
C4338 C4337 1.366 . S
C4338 C4342 1.385 . S
C4339 H4314 0.951 . S
C4339 C4337 1.388 . S
C4339 C4340 1.366 . S
C4340 C4339 1.366 . S
C4340 C4341 1.414 . S
C4340 C4343 1.499 . S
C4341 H4315 0.950 . S
C4341 C4340 1.414 . S
C4341 C4342 1.374 . S
C4342 H4316 0.950 . S
C4342 C4338 1.385 . S
C4342 C4341 1.374 . S
C4343 C4340 1.499 . S
C4343 C4344 1.373 . S
C4343 C4345 1.389 . S
C4344 H4317 0.950 . S
C4344 C4330 1.377 . S
C4344 C4343 1.373 . S
C4345 C4329 1.377 . S
C4345 C4343 1.389 . S
C4345 C4346 1.524 . S
C4346 C4345 1.524 . S
C4346 C4347 1.397 . S
C4346 C4351 1.363 . S
C4347 H4318 0.950 . S
C4347 C4346 1.397 . S
C4347 C4348 1.334 . S
C4348 H4319 0.950 . S
C4348 C4347 1.334 . S
C4348 C4349 1.287 . S
C4349 C4348 1.287 . S
C4349 C4350 1.524 . S
C4349 H4352 0.999 . S
C4350 H4320 0.950 . S
C4350 C4349 1.524 . S
C4350 C4351 1.415 . S
C4351 H4321 0.950 . S
C4351 C4346 1.363 . S
C4351 C4350 1.415 . S
H4352 C4349 0.999 . S
H4353 C4334 0.913 . S
H4354 C4372 0.960 . S
H4355 C4374 0.951 . S
H4356 C4376 0.950 . S
H4357 C4377 0.950 . S
H4358 C4379 0.950 . S
H4359 C4382 0.936 1_556 S
H4360 C4383 0.950 . S
H4361 C4385 0.950 . S
H4362 C4386 0.950 1_556 S
H4363 C4387 0.951 . S
H4364 C4389 0.951 . S
H4365 C4391 0.950 . S
H4366 C4392 0.950 . S
H4367 C4394 0.950 . S
H4368 C4397 0.950 . S
H4369 C4398 0.950 . S
H4370 C4400 0.950 . S
H4371 C4401 0.950 . S
C4372 H4354 0.960 . S
C4372 C4373 1.364 1_554 S
C4372 C4374 1.380 1_554 S
C4373 C4372 1.364 1_556 S
C4373 C4377 1.385 . S
C4374 H4355 0.951 . S
C4374 C4372 1.380 1_556 S
C4374 C4375 1.366 . S
C4375 C4374 1.366 . S
C4375 C4376 1.414 . S
C4375 C4378 1.499 . S
C4376 H4356 0.950 . S
C4376 C4375 1.414 . S
C4376 C4377 1.374 . S
C4377 H4357 0.950 . S
C4377 C4373 1.385 . S
C4377 C4376 1.374 . S
C4378 C4375 1.499 . S
C4378 C4379 1.373 . S
C4378 C4380 1.389 . S
C4379 H4358 0.950 . S
C4379 C4378 1.373 . S
C4379 C4395 1.377 . S
C4380 C4378 1.389 . S
C4380 C4381 1.524 . S
C4380 C4394 1.377 . S
C4381 C4380 1.524 . S
C4381 C4382 1.397 1_556 S
C4381 C4386 1.363 1_556 S
C4382 H4359 0.936 1_554 S
C4382 C4381 1.397 1_554 S
C4382 C4383 1.334 . S
C4383 H4360 0.950 . S
C4383 C4382 1.334 . S
C4383 C4384 1.287 . S
C4384 C4383 1.287 . S
C4384 C4385 1.524 . S
C4384 H4403 0.913 . S
C4385 H4361 0.950 . S
C4385 C4384 1.524 . S
C4385 C4386 1.415 . S
C4386 H4362 0.950 1_554 S
C4386 C4381 1.363 1_554 S
C4386 C4385 1.415 . S
C4387 H4363 0.951 . S
C4387 C4388 1.366 . S
C4387 C4389 1.388 . S
C4388 C4387 1.366 . S
C4388 C4392 1.385 . S
C4389 H4364 0.951 . S
C4389 C4387 1.388 . S
C4389 C4390 1.366 . S
C4390 C4389 1.366 . S
C4390 C4391 1.414 . S
C4390 C4393 1.499 . S
C4391 H4365 0.950 . S
C4391 C4390 1.414 . S
C4391 C4392 1.374 . S
C4392 H4366 0.950 . S
C4392 C4388 1.385 . S
C4392 C4391 1.374 . S
C4393 C4390 1.499 . S
C4393 C4394 1.373 . S
C4393 C4395 1.389 . S
C4394 H4367 0.950 . S
C4394 C4380 1.377 . S
C4394 C4393 1.373 . S
C4395 C4379 1.377 . S
C4395 C4393 1.389 . S
C4395 C4396 1.524 . S
C4396 C4395 1.524 . S
C4396 C4397 1.397 . S
C4396 C4401 1.363 . S
C4397 H4368 0.950 . S
C4397 C4396 1.397 . S
C4397 C4398 1.334 . S
C4398 H4369 0.950 . S
C4398 C4397 1.334 . S
C4398 C4399 1.287 . S
C4399 C4398 1.287 . S
C4399 C4400 1.524 . S
C4399 H4402 0.999 . S
C4400 H4370 0.950 . S
C4400 C4399 1.524 . S
C4400 C4401 1.415 . S
C4401 H4371 0.950 . S
C4401 C4396 1.363 . S
C4401 C4400 1.415 . S
H4402 C4399 0.999 . S
H4403 C4384 0.913 . S
H4404 C4422 0.951 1_554 S
H4405 C4424 0.951 . S
H4406 C4426 0.950 . S
H4407 C4427 0.950 . S
H4408 C4429 0.950 . S
H4409 C4432 0.950 . S
H4410 C4433 0.950 . S
H4411 C4435 0.992 . S
H4412 C4436 0.950 . S
H4413 C4437 0.951 . S
H4414 C4439 0.951 . S
H4415 C4441 0.950 . S
H4416 C4442 0.950 . S
H4417 C4444 0.950 . S
H4418 C4447 0.950 . S
H4419 C4448 0.950 . S
H4420 C4450 0.950 . S
H4421 C4451 0.950 . S
C4422 H4404 0.951 1_556 S
C4422 C4423 1.366 . S
C4422 C4424 1.388 . S
C4423 C4422 1.366 . S
C4423 C4427 1.385 . S
C4424 H4405 0.951 . S
C4424 C4422 1.388 . S
C4424 C4425 1.366 . S
C4425 C4424 1.366 . S
C4425 C4426 1.414 . S
C4425 C4428 1.499 . S
C4426 H4406 0.950 . S
C4426 C4425 1.414 . S
C4426 C4427 1.374 . S
C4427 H4407 0.950 . S
C4427 C4423 1.385 . S
C4427 C4426 1.374 . S
C4428 C4425 1.499 . S
C4428 C4429 1.373 . S
C4428 C4430 1.389 . S
C4429 H4408 0.950 . S
C4429 C4428 1.373 . S
C4429 C4445 1.377 . S
C4430 C4428 1.389 . S
C4430 C4431 1.524 . S
C4430 C4444 1.377 . S
C4431 C4430 1.524 . S
C4431 C4432 1.397 . S
C4431 C4436 1.363 . S
C4432 H4409 0.950 . S
C4432 C4431 1.397 . S
C4432 C4433 1.334 . S
C4433 H4410 0.950 . S
C4433 C4432 1.334 . S
C4433 C4434 1.287 . S
C4434 C4433 1.287 . S
C4434 C4435 1.524 . S
C4434 H4453 0.913 . S
C4435 H4411 0.992 . S
C4435 C4434 1.524 . S
C4435 C4436 1.415 . S
C4436 H4412 0.950 . S
C4436 C4431 1.363 . S
C4436 C4435 1.415 . S
C4437 H4413 0.951 . S
C4437 C4438 1.366 . S
C4437 C4439 1.388 . S
C4438 C4437 1.366 . S
C4438 C4442 1.385 . S
C4439 H4414 0.951 . S
C4439 C4437 1.388 . S
C4439 C4440 1.366 . S
C4440 C4439 1.366 . S
C4440 C4441 1.414 . S
C4440 C4443 1.499 . S
C4441 H4415 0.950 . S
C4441 C4440 1.414 . S
C4441 C4442 1.374 . S
C4442 H4416 0.950 . S
C4442 C4438 1.385 . S
C4442 C4441 1.374 . S
C4443 C4440 1.499 . S
C4443 C4444 1.373 . S
C4443 C4445 1.389 . S
C4444 H4417 0.950 . S
C4444 C4430 1.377 . S
C4444 C4443 1.373 . S
C4445 C4429 1.377 . S
C4445 C4443 1.389 . S
C4445 C4446 1.524 . S
C4446 C4445 1.524 . S
C4446 C4447 1.397 . S
C4446 C4451 1.363 . S
C4447 H4418 0.950 . S
C4447 C4446 1.397 . S
C4447 C4448 1.334 . S
C4448 H4419 0.950 . S
C4448 C4447 1.334 . S
C4448 C4449 1.287 . S
C4449 C4448 1.287 . S
C4449 C4450 1.524 . S
C4449 H4452 0.999 . S
C4450 H4420 0.950 . S
C4450 C4449 1.524 . S
C4450 C4451 1.415 . S
C4451 H4421 0.950 . S
C4451 C4446 1.363 . S
C4451 C4450 1.415 . S
H4452 C4449 0.999 . S
H4453 C4434 0.913 . S
H4454 C4472 0.951 . S
H4455 C4474 0.951 . S
H4456 C4476 0.950 . S
H4457 C4477 0.950 . S
H4458 C4479 0.950 . S
H4459 C4482 0.950 . S
H4460 C4483 0.950 . S
H4461 C4485 0.950 . S
H4462 C4486 0.950 . S
H4463 C4487 0.951 . S
H4464 C4489 0.951 . S
H4465 C4491 0.950 . S
H4466 C4492 0.950 . S
H4467 C4494 0.950 . S
H4468 C4497 0.950 . S
H4469 C4498 0.950 . S
H4470 C4500 0.950 . S
H4471 C4501 0.950 . S
C4472 H4454 0.951 . S
C4472 C4473 1.366 . S
C4472 C4474 1.388 . S
C4473 C4472 1.366 . S
C4473 C4477 1.385 . S
C4474 H4455 0.951 . S
C4474 C4472 1.388 . S
C4474 C4475 1.366 . S
C4475 C4474 1.366 . S
C4475 C4476 1.414 . S
C4475 C4478 1.499 . S
C4476 H4456 0.950 . S
C4476 C4475 1.414 . S
C4476 C4477 1.374 . S
C4477 H4457 0.950 . S
C4477 C4473 1.385 . S
C4477 C4476 1.374 . S
C4478 C4475 1.499 . S
C4478 C4479 1.373 . S
C4478 C4480 1.389 . S
C4479 H4458 0.950 . S
C4479 C4478 1.373 . S
C4479 C4495 1.377 . S
C4480 C4478 1.389 . S
C4480 C4481 1.524 . S
C4480 C4494 1.377 . S
C4481 C4480 1.524 . S
C4481 C4482 1.397 . S
C4481 C4486 1.363 . S
C4482 H4459 0.950 . S
C4482 C4481 1.397 . S
C4482 C4483 1.334 1_556 S
C4483 H4460 0.950 . S
C4483 C4482 1.334 1_554 S
C4483 C4484 1.287 . S
C4484 C4483 1.287 . S
C4484 C4485 1.524 . S
C4484 H4503 0.913 . S
C4485 H4461 0.950 . S
C4485 C4484 1.524 . S
C4485 C4486 1.415 1_554 S
C4486 H4462 0.950 . S
C4486 C4481 1.363 . S
C4486 C4485 1.415 1_556 S
C4487 H4463 0.951 . S
C4487 C4488 1.366 . S
C4487 C4489 1.388 . S
C4488 C4487 1.366 . S
C4488 C4492 1.385 . S
C4489 H4464 0.951 . S
C4489 C4487 1.388 . S
C4489 C4490 1.366 . S
C4490 C4489 1.366 . S
C4490 C4491 1.414 . S
C4490 C4493 1.499 . S
C4491 H4465 0.950 . S
C4491 C4490 1.414 . S
C4491 C4492 1.374 . S
C4492 H4466 0.950 . S
C4492 C4488 1.385 . S
C4492 C4491 1.374 . S
C4493 C4490 1.499 . S
C4493 C4494 1.373 . S
C4493 C4495 1.389 . S
C4494 H4467 0.950 . S
C4494 C4480 1.377 . S
C4494 C4493 1.373 . S
C4495 C4479 1.377 . S
C4495 C4493 1.389 . S
C4495 C4496 1.524 . S
C4496 C4495 1.524 . S
C4496 C4497 1.397 . S
C4496 C4501 1.363 . S
C4497 H4468 0.950 . S
C4497 C4496 1.397 . S
C4497 C4498 1.334 . S
C4498 H4469 0.950 . S
C4498 C4497 1.334 . S
C4498 C4499 1.287 . S
C4499 C4498 1.287 . S
C4499 C4500 1.524 . S
C4499 H4502 0.999 . S
C4500 H4470 0.950 . S
C4500 C4499 1.524 . S
C4500 C4501 1.415 . S
C4501 H4471 0.950 . S
C4501 C4496 1.363 . S
C4501 C4500 1.415 . S
H4502 C4499 0.999 . S
H4503 C4484 0.913 . S
H4504 C4522 0.951 1_554 S
H4505 C4524 0.951 . S
H4506 C4526 0.950 . S
H4507 C4527 0.950 . S
H4508 C4529 0.950 . S
H4509 C4532 0.972 . S
H4510 C4533 0.950 . S
H4511 C4535 0.950 . S
H4512 C4536 0.950 . S
H4513 C4537 0.951 . S
H4514 C4539 0.951 . S
H4515 C4541 0.950 . S
H4516 C4542 0.950 . S
H4517 C4544 0.950 . S
H4518 C4547 0.950 . S
H4519 C4548 0.950 . S
H4520 C4550 0.950 . S
H4521 C4551 0.950 . S
C4522 H4504 0.951 1_556 S
C4522 C4523 1.366 . S
C4522 C4524 1.388 . S
C4523 C4522 1.366 . S
C4523 C4527 1.385 . S
C4524 H4505 0.951 . S
C4524 C4522 1.388 . S
C4524 C4525 1.366 . S
C4525 C4524 1.366 . S
C4525 C4526 1.414 . S
C4525 C4528 1.499 . S
C4526 H4506 0.950 . S
C4526 C4525 1.414 . S
C4526 C4527 1.374 . S
C4527 H4507 0.950 . S
C4527 C4523 1.385 . S
C4527 C4526 1.374 . S
C4528 C4525 1.499 . S
C4528 C4529 1.373 . S
C4528 C4530 1.389 . S
C4529 H4508 0.950 . S
C4529 C4528 1.373 . S
C4529 C4545 1.377 . S
C4530 C4528 1.389 . S
C4530 C4531 1.524 . S
C4530 C4544 1.377 . S
C4531 C4530 1.524 . S
C4531 C4532 1.397 1_556 S
C4531 C4536 1.363 . S
C4532 H4509 0.972 . S
C4532 C4531 1.397 1_554 S
C4532 C4533 1.334 . S
C4533 H4510 0.950 . S
C4533 C4532 1.334 . S
C4533 C4534 1.287 . S
C4534 C4533 1.287 . S
C4534 C4535 1.524 . S
C4534 H4553 0.913 . S
C4535 H4511 0.950 . S
C4535 C4534 1.524 . S
C4535 C4536 1.415 1_554 S
C4536 H4512 0.950 . S
C4536 C4531 1.363 . S
C4536 C4535 1.415 1_556 S
C4537 H4513 0.951 . S
C4537 C4538 1.366 . S
C4537 C4539 1.388 . S
C4538 C4537 1.366 . S
C4538 C4542 1.385 . S
C4539 H4514 0.951 . S
C4539 C4537 1.388 . S
C4539 C4540 1.366 . S
C4540 C4539 1.366 . S
C4540 C4541 1.414 . S
C4540 C4543 1.499 . S
C4541 H4515 0.950 . S
C4541 C4540 1.414 . S
C4541 C4542 1.374 . S
C4542 H4516 0.950 . S
C4542 C4538 1.385 . S
C4542 C4541 1.374 . S
C4543 C4540 1.499 . S
C4543 C4544 1.373 . S
C4543 C4545 1.389 . S
C4544 H4517 0.950 . S
C4544 C4530 1.377 . S
C4544 C4543 1.373 . S
C4545 C4529 1.377 . S
C4545 C4543 1.389 . S
C4545 C4546 1.524 . S
C4546 C4545 1.524 . S
C4546 C4547 1.397 . S
C4546 C4551 1.363 . S
C4547 H4518 0.950 . S
C4547 C4546 1.397 . S
C4547 C4548 1.334 . S
C4548 H4519 0.950 . S
C4548 C4547 1.334 . S
C4548 C4549 1.287 . S
C4549 C4548 1.287 . S
C4549 C4550 1.524 . S
C4549 H4552 0.999 . S
C4550 H4520 0.950 . S
C4550 C4549 1.524 . S
C4550 C4551 1.415 . S
C4551 H4521 0.950 . S
C4551 C4546 1.363 . S
C4551 C4550 1.415 . S
H4552 C4549 0.999 . S
H4553 C4534 0.913 . S
H4554 C4572 0.951 . S
H4555 C4574 0.951 . S
H4556 C4576 0.950 . S
H4557 C4577 0.950 . S
H4558 C4579 0.950 . S
H4559 C4582 0.950 . S
H4560 C4583 0.950 . S
H4561 C4585 0.950 . S
H4562 C4586 0.950 . S
H4563 C4587 0.951 . S
H4564 C4589 0.951 . S
H4565 C4591 0.950 . S
H4566 C4592 0.950 . S
H4567 C4594 0.950 . S
H4568 C4597 0.950 . S
H4569 C4598 0.950 . S
H4570 C4600 0.950 . S
H4571 C4601 0.950 . S
C4572 H4554 0.951 . S
C4572 C4573 1.366 . S
C4572 C4574 1.388 . S
C4573 C4572 1.366 . S
C4573 C4577 1.385 . S
C4574 H4555 0.951 . S
C4574 C4572 1.388 . S
C4574 C4575 1.366 . S
C4575 C4574 1.366 . S
C4575 C4576 1.414 . S
C4575 C4578 1.499 . S
C4576 H4556 0.950 . S
C4576 C4575 1.414 . S
C4576 C4577 1.374 . S
C4577 H4557 0.950 . S
C4577 C4573 1.385 . S
C4577 C4576 1.374 . S
C4578 C4575 1.499 . S
C4578 C4579 1.373 . S
C4578 C4580 1.389 . S
C4579 H4558 0.950 . S
C4579 C4578 1.373 . S
C4579 C4595 1.377 . S
C4580 C4578 1.389 . S
C4580 C4581 1.524 . S
C4580 C4594 1.377 . S
C4581 C4580 1.524 . S
C4581 C4582 1.397 . S
C4581 C4586 1.363 . S
C4582 H4559 0.950 . S
C4582 C4581 1.397 . S
C4582 C4583 1.334 . S
C4583 H4560 0.950 . S
C4583 C4582 1.334 . S
C4583 C4584 1.287 . S
C4584 C4583 1.287 . S
C4584 C4585 1.524 . S
C4584 H4603 0.913 . S
C4585 H4561 0.950 . S
C4585 C4584 1.524 . S
C4585 C4586 1.415 . S
C4586 H4562 0.950 . S
C4586 C4581 1.363 . S
C4586 C4585 1.415 . S
C4587 H4563 0.951 . S
C4587 C4588 1.366 . S
C4587 C4589 1.388 . S
C4588 C4587 1.366 . S
C4588 C4592 1.385 . S
C4589 H4564 0.951 . S
C4589 C4587 1.388 . S
C4589 C4590 1.366 . S
C4590 C4589 1.366 . S
C4590 C4591 1.414 . S
C4590 C4593 1.499 . S
C4591 H4565 0.950 . S
C4591 C4590 1.414 . S
C4591 C4592 1.374 . S
C4592 H4566 0.950 . S
C4592 C4588 1.385 . S
C4592 C4591 1.374 . S
C4593 C4590 1.499 . S
C4593 C4594 1.373 . S
C4593 C4595 1.389 . S
C4594 H4567 0.950 . S
C4594 C4580 1.377 . S
C4594 C4593 1.373 . S
C4595 C4579 1.377 . S
C4595 C4593 1.389 . S
C4595 C4596 1.524 . S
C4596 C4595 1.524 . S
C4596 C4597 1.397 . S
C4596 C4601 1.363 . S
C4597 H4568 0.950 . S
C4597 C4596 1.397 . S
C4597 C4598 1.334 . S
C4598 H4569 0.950 . S
C4598 C4597 1.334 . S
C4598 C4599 1.287 . S
C4599 C4598 1.287 . S
C4599 C4600 1.524 . S
C4599 H4602 0.999 . S
C4600 H4570 0.950 . S
C4600 C4599 1.524 . S
C4600 C4601 1.415 . S
C4601 H4571 0.950 . S
C4601 C4596 1.363 . S
C4601 C4600 1.415 . S
H4602 C4599 0.999 . S
H4603 C4584 0.913 . S
H4604 C4622 0.951 . S
H4605 C4624 0.951 . S
H4606 C4626 0.950 . S
H4607 C4627 0.950 . S
H4608 C4629 0.950 . S
H4609 C4632 0.950 . S
H4610 C4633 0.950 . S
H4611 C4635 0.950 . S
H4612 C4636 0.950 . S
H4613 C4637 0.951 . S
H4614 C4639 0.951 . S
H4615 C4641 0.950 . S
H4616 C4642 0.950 . S
H4617 C4644 0.950 . S
H4618 C4647 0.950 . S
H4619 C4648 0.950 . S
H4620 C4650 0.950 . S
H4621 C4651 0.950 . S
C4622 H4604 0.951 . S
C4622 C4623 1.366 . S
C4622 C4624 1.388 . S
C4623 C4622 1.366 . S
C4623 C4627 1.385 . S
C4624 H4605 0.951 . S
C4624 C4622 1.388 . S
C4624 C4625 1.366 . S
C4625 C4624 1.366 . S
C4625 C4626 1.414 . S
C4625 C4628 1.499 . S
C4626 H4606 0.950 . S
C4626 C4625 1.414 . S
C4626 C4627 1.374 . S
C4627 H4607 0.950 . S
C4627 C4623 1.385 . S
C4627 C4626 1.374 . S
C4628 C4625 1.499 . S
C4628 C4629 1.373 . S
C4628 C4630 1.389 . S
C4629 H4608 0.950 . S
C4629 C4628 1.373 . S
C4629 C4645 1.377 . S
C4630 C4628 1.389 . S
C4630 C4631 1.524 . S
C4630 C4644 1.377 . S
C4631 C4630 1.524 . S
C4631 C4632 1.397 . S
C4631 C4636 1.363 . S
C4632 H4609 0.950 . S
C4632 C4631 1.397 . S
C4632 C4633 1.334 . S
C4633 H4610 0.950 . S
C4633 C4632 1.334 . S
C4633 C4634 1.287 . S
C4634 C4633 1.287 . S
C4634 C4635 1.524 . S
C4634 H4653 0.913 . S
C4635 H4611 0.950 . S
C4635 C4634 1.524 . S
C4635 C4636 1.415 . S
C4636 H4612 0.950 . S
C4636 C4631 1.363 . S
C4636 C4635 1.415 . S
C4637 H4613 0.951 . S
C4637 C4638 1.366 . S
C4637 C4639 1.388 . S
C4638 C4637 1.366 . S
C4638 C4642 1.385 . S
C4639 H4614 0.951 . S
C4639 C4637 1.388 . S
C4639 C4640 1.366 . S
C4640 C4639 1.366 . S
C4640 C4641 1.414 . S
C4640 C4643 1.499 . S
C4641 H4615 0.950 . S
C4641 C4640 1.414 . S
C4641 C4642 1.374 . S
C4642 H4616 0.950 . S
C4642 C4638 1.385 . S
C4642 C4641 1.374 . S
C4643 C4640 1.499 . S
C4643 C4644 1.373 . S
C4643 C4645 1.389 . S
C4644 H4617 0.950 . S
C4644 C4630 1.377 . S
C4644 C4643 1.373 . S
C4645 C4629 1.377 . S
C4645 C4643 1.389 . S
C4645 C4646 1.524 . S
C4646 C4645 1.524 . S
C4646 C4647 1.397 . S
C4646 C4651 1.363 . S
C4647 H4618 0.950 . S
C4647 C4646 1.397 . S
C4647 C4648 1.334 . S
C4648 H4619 0.950 . S
C4648 C4647 1.334 . S
C4648 C4649 1.287 . S
C4649 C4648 1.287 . S
C4649 C4650 1.524 . S
C4649 H4652 0.999 . S
C4650 H4620 0.950 . S
C4650 C4649 1.524 . S
C4650 C4651 1.415 . S
C4651 H4621 0.950 . S
C4651 C4646 1.363 . S
C4651 C4650 1.415 . S
H4652 C4649 0.999 . S
H4653 C4634 0.913 . S
H4654 C4672 0.951 . S
H4655 C4674 0.951 . S
H4656 C4676 0.950 . S
H4657 C4677 0.950 . S
H4658 C4679 0.950 . S
H4659 C4682 0.950 . S
H4660 C4683 0.950 . S
H4661 C4685 0.950 . S
H4662 C4686 0.950 . S
H4663 C4687 0.951 . S
H4664 C4689 0.951 . S
H4665 C4691 0.950 . S
H4666 C4692 0.950 . S
H4667 C4694 0.950 . S
H4668 C4697 0.950 . S
H4669 C4698 0.950 . S
H4670 C4700 0.950 . S
H4671 C4701 0.950 . S
C4672 H4654 0.951 . S
C4672 C4673 1.366 . S
C4672 C4674 1.388 . S
C4673 C4672 1.366 . S
C4673 C4677 1.385 . S
C4674 H4655 0.951 . S
C4674 C4672 1.388 . S
C4674 C4675 1.366 . S
C4675 C4674 1.366 . S
C4675 C4676 1.414 . S
C4675 C4678 1.499 . S
C4676 H4656 0.950 . S
C4676 C4675 1.414 . S
C4676 C4677 1.374 . S
C4677 H4657 0.950 . S
C4677 C4673 1.385 . S
C4677 C4676 1.374 . S
C4678 C4675 1.499 . S
C4678 C4679 1.373 . S
C4678 C4680 1.389 . S
C4679 H4658 0.950 . S
C4679 C4678 1.373 . S
C4679 C4695 1.377 . S
C4680 C4678 1.389 . S
C4680 C4681 1.524 . S
C4680 C4694 1.377 . S
C4681 C4680 1.524 . S
C4681 C4682 1.397 . S
C4681 C4686 1.363 . S
C4682 H4659 0.950 . S
C4682 C4681 1.397 . S
C4682 C4683 1.334 . S
C4683 H4660 0.950 . S
C4683 C4682 1.334 . S
C4683 C4684 1.287 . S
C4684 C4683 1.287 . S
C4684 C4685 1.524 . S
C4684 H4703 0.913 . S
C4685 H4661 0.950 . S
C4685 C4684 1.524 . S
C4685 C4686 1.415 . S
C4686 H4662 0.950 . S
C4686 C4681 1.363 . S
C4686 C4685 1.415 . S
C4687 H4663 0.951 . S
C4687 C4688 1.366 . S
C4687 C4689 1.388 . S
C4688 C4687 1.366 . S
C4688 C4692 1.385 . S
C4689 H4664 0.951 . S
C4689 C4687 1.388 . S
C4689 C4690 1.366 . S
C4690 C4689 1.366 . S
C4690 C4691 1.414 . S
C4690 C4693 1.499 . S
C4691 H4665 0.950 . S
C4691 C4690 1.414 . S
C4691 C4692 1.374 . S
C4692 H4666 0.950 . S
C4692 C4688 1.385 . S
C4692 C4691 1.374 . S
C4693 C4690 1.499 . S
C4693 C4694 1.373 . S
C4693 C4695 1.389 . S
C4694 H4667 0.950 . S
C4694 C4680 1.377 . S
C4694 C4693 1.373 . S
C4695 C4679 1.377 . S
C4695 C4693 1.389 . S
C4695 C4696 1.524 . S
C4696 C4695 1.524 . S
C4696 C4697 1.397 . S
C4696 C4701 1.363 . S
C4697 H4668 0.950 . S
C4697 C4696 1.397 . S
C4697 C4698 1.334 . S
C4698 H4669 0.950 . S
C4698 C4697 1.334 . S
C4698 C4699 1.287 . S
C4699 C4698 1.287 . S
C4699 C4700 1.524 . S
C4699 H4702 0.999 . S
C4700 H4670 0.950 . S
C4700 C4699 1.524 . S
C4700 C4701 1.415 . S
C4701 H4671 0.950 . S
C4701 C4696 1.363 . S
C4701 C4700 1.415 . S
H4702 C4699 0.999 . S
H4703 C4684 0.913 . S
H4704 C4722 0.951 . S
H4705 C4724 0.951 . S
H4706 C4726 0.950 . S
H4707 C4727 0.950 . S
H4708 C4729 0.950 . S
H4709 C4732 0.950 . S
H4710 C4733 0.950 . S
H4711 C4735 0.950 . S
H4712 C4736 0.950 . S
H4713 C4737 0.951 . S
H4714 C4739 0.951 . S
H4715 C4741 0.950 . S
H4716 C4742 0.950 . S
H4717 C4744 0.950 . S
H4718 C4747 0.950 . S
H4719 C4748 0.950 . S
H4720 C4750 0.950 . S
H4721 C4751 0.950 . S
C4722 H4704 0.951 . S
C4722 C4723 1.366 . S
C4722 C4724 1.388 . S
C4723 C4722 1.366 . S
C4723 C4727 1.385 . S
C4724 H4705 0.951 . S
C4724 C4722 1.388 . S
C4724 C4725 1.366 . S
C4725 C4724 1.366 . S
C4725 C4726 1.414 . S
C4725 C4728 1.499 . S
C4726 H4706 0.950 . S
C4726 C4725 1.414 . S
C4726 C4727 1.374 . S
C4727 H4707 0.950 . S
C4727 C4723 1.385 . S
C4727 C4726 1.374 . S
C4728 C4725 1.499 . S
C4728 C4729 1.373 . S
C4728 C4730 1.389 . S
C4729 H4708 0.950 . S
C4729 C4728 1.373 . S
C4729 C4745 1.377 . S
C4730 C4728 1.389 . S
C4730 C4731 1.524 . S
C4730 C4744 1.377 . S
C4731 C4730 1.524 . S
C4731 C4732 1.397 . S
C4731 C4736 1.363 . S
C4732 H4709 0.950 . S
C4732 C4731 1.397 . S
C4732 C4733 1.334 . S
C4733 H4710 0.950 . S
C4733 C4732 1.334 . S
C4733 C4734 1.287 . S
C4734 C4733 1.287 . S
C4734 C4735 1.524 . S
C4734 H4753 0.913 . S
C4735 H4711 0.950 . S
C4735 C4734 1.524 . S
C4735 C4736 1.415 . S
C4736 H4712 0.950 . S
C4736 C4731 1.363 . S
C4736 C4735 1.415 . S
C4737 H4713 0.951 . S
C4737 C4738 1.366 . S
C4737 C4739 1.388 . S
C4738 C4737 1.366 . S
C4738 C4742 1.385 . S
C4739 H4714 0.951 . S
C4739 C4737 1.388 . S
C4739 C4740 1.366 . S
C4740 C4739 1.366 . S
C4740 C4741 1.414 . S
C4740 C4743 1.499 . S
C4741 H4715 0.950 . S
C4741 C4740 1.414 . S
C4741 C4742 1.374 . S
C4742 H4716 0.950 . S
C4742 C4738 1.385 . S
C4742 C4741 1.374 . S
C4743 C4740 1.499 . S
C4743 C4744 1.373 . S
C4743 C4745 1.389 . S
C4744 H4717 0.950 . S
C4744 C4730 1.377 . S
C4744 C4743 1.373 . S
C4745 C4729 1.377 . S
C4745 C4743 1.389 . S
C4745 C4746 1.524 . S
C4746 C4745 1.524 . S
C4746 C4747 1.397 . S
C4746 C4751 1.363 . S
C4747 H4718 0.950 . S
C4747 C4746 1.397 . S
C4747 C4748 1.334 . S
C4748 H4719 0.950 . S
C4748 C4747 1.334 . S
C4748 C4749 1.287 . S
C4749 C4748 1.287 . S
C4749 C4750 1.524 . S
C4749 H4752 0.999 . S
C4750 H4720 0.950 . S
C4750 C4749 1.524 . S
C4750 C4751 1.415 . S
C4751 H4721 0.950 . S
C4751 C4746 1.363 . S
C4751 C4750 1.415 . S
H4752 C4749 0.999 . S
H4753 C4734 0.913 . S
H4754 C4772 0.951 . S
H4755 C4774 0.951 . S
H4756 C4776 0.950 . S
H4757 C4777 0.950 . S
H4758 C4779 0.950 . S
H4759 C4782 0.950 . S
H4760 C4783 0.950 . S
H4761 C4785 0.950 . S
H4762 C4786 0.950 . S
H4763 C4787 0.951 . S
H4764 C4789 0.951 . S
H4765 C4791 0.950 . S
H4766 C4792 0.950 . S
H4767 C4794 0.950 . S
H4768 C4797 0.950 . S
H4769 C4798 0.950 . S
H4770 C4800 0.950 . S
H4771 C4801 0.950 . S
C4772 H4754 0.951 . S
C4772 C4773 1.366 . S
C4772 C4774 1.388 . S
C4773 C4772 1.366 . S
C4773 C4777 1.385 . S
C4774 H4755 0.951 . S
C4774 C4772 1.388 . S
C4774 C4775 1.366 . S
C4775 C4774 1.366 . S
C4775 C4776 1.414 . S
C4775 C4778 1.499 . S
C4776 H4756 0.950 . S
C4776 C4775 1.414 . S
C4776 C4777 1.374 . S
C4777 H4757 0.950 . S
C4777 C4773 1.385 . S
C4777 C4776 1.374 . S
C4778 C4775 1.499 . S
C4778 C4779 1.373 . S
C4778 C4780 1.389 . S
C4779 H4758 0.950 . S
C4779 C4778 1.373 . S
C4779 C4795 1.377 . S
C4780 C4778 1.389 . S
C4780 C4781 1.524 . S
C4780 C4794 1.377 . S
C4781 C4780 1.524 . S
C4781 C4782 1.397 . S
C4781 C4786 1.363 . S
C4782 H4759 0.950 . S
C4782 C4781 1.397 . S
C4782 C4783 1.334 . S
C4783 H4760 0.950 . S
C4783 C4782 1.334 . S
C4783 C4784 1.287 . S
C4784 C4783 1.287 . S
C4784 C4785 1.524 . S
C4784 H4803 0.913 . S
C4785 H4761 0.950 . S
C4785 C4784 1.524 . S
C4785 C4786 1.415 . S
C4786 H4762 0.950 . S
C4786 C4781 1.363 . S
C4786 C4785 1.415 . S
C4787 H4763 0.951 . S
C4787 C4788 1.366 . S
C4787 C4789 1.388 . S
C4788 C4787 1.366 . S
C4788 C4792 1.385 . S
C4789 H4764 0.951 . S
C4789 C4787 1.388 . S
C4789 C4790 1.366 . S
C4790 C4789 1.366 . S
C4790 C4791 1.414 . S
C4790 C4793 1.499 . S
C4791 H4765 0.950 . S
C4791 C4790 1.414 . S
C4791 C4792 1.374 . S
C4792 H4766 0.950 . S
C4792 C4788 1.385 . S
C4792 C4791 1.374 . S
C4793 C4790 1.499 . S
C4793 C4794 1.373 . S
C4793 C4795 1.389 . S
C4794 H4767 0.950 . S
C4794 C4780 1.377 . S
C4794 C4793 1.373 . S
C4795 C4779 1.377 . S
C4795 C4793 1.389 . S
C4795 C4796 1.524 . S
C4796 C4795 1.524 . S
C4796 C4797 1.397 . S
C4796 C4801 1.363 . S
C4797 H4768 0.950 . S
C4797 C4796 1.397 . S
C4797 C4798 1.334 . S
C4798 H4769 0.950 . S
C4798 C4797 1.334 . S
C4798 C4799 1.287 . S
C4799 C4798 1.287 . S
C4799 C4800 1.524 . S
C4799 H4802 0.999 . S
C4800 H4770 0.950 . S
C4800 C4799 1.524 . S
C4800 C4801 1.415 . S
C4801 H4771 0.950 . S
C4801 C4796 1.363 . S
C4801 C4800 1.415 . S
H4802 C4799 0.999 . S
H4803 C4784 0.913 . S
H4804 C4822 0.951 . S
H4805 C4824 0.951 . S
H4806 C4826 0.950 . S
H4807 C4827 0.950 . S
H4808 C4829 0.950 . S
H4809 C4832 0.950 . S
H4810 C4833 0.950 . S
H4811 C4835 0.950 . S
H4812 C4836 0.950 . S
H4813 C4837 0.951 . S
H4814 C4839 0.951 . S
H4815 C4841 0.950 . S
H4816 C4842 0.950 . S
H4817 C4844 0.950 . S
H4818 C4847 0.950 . S
H4819 C4848 0.950 . S
H4820 C4850 0.950 . S
H4821 C4851 0.950 . S
C4822 H4804 0.951 . S
C4822 C4823 1.366 . S
C4822 C4824 1.388 . S
C4823 C4822 1.366 . S
C4823 C4827 1.385 . S
C4824 H4805 0.951 . S
C4824 C4822 1.388 . S
C4824 C4825 1.366 . S
C4825 C4824 1.366 . S
C4825 C4826 1.414 . S
C4825 C4828 1.499 . S
C4826 H4806 0.950 . S
C4826 C4825 1.414 . S
C4826 C4827 1.374 . S
C4827 H4807 0.950 . S
C4827 C4823 1.385 . S
C4827 C4826 1.374 . S
C4828 C4825 1.499 . S
C4828 C4829 1.373 . S
C4828 C4830 1.389 . S
C4829 H4808 0.950 . S
C4829 C4828 1.373 . S
C4829 C4845 1.377 . S
C4830 C4828 1.389 . S
C4830 C4831 1.524 . S
C4830 C4844 1.377 . S
C4831 C4830 1.524 . S
C4831 C4832 1.397 . S
C4831 C4836 1.363 . S
C4832 H4809 0.950 . S
C4832 C4831 1.397 . S
C4832 C4833 1.334 . S
C4833 H4810 0.950 . S
C4833 C4832 1.334 . S
C4833 C4834 1.287 . S
C4834 C4833 1.287 . S
C4834 C4835 1.524 . S
C4834 H4853 0.913 . S
C4835 H4811 0.950 . S
C4835 C4834 1.524 . S
C4835 C4836 1.415 . S
C4836 H4812 0.950 . S
C4836 C4831 1.363 . S
C4836 C4835 1.415 . S
C4837 H4813 0.951 . S
C4837 C4838 1.366 . S
C4837 C4839 1.388 . S
C4838 C4837 1.366 . S
C4838 C4842 1.385 . S
C4839 H4814 0.951 . S
C4839 C4837 1.388 . S
C4839 C4840 1.366 . S
C4840 C4839 1.366 . S
C4840 C4841 1.414 . S
C4840 C4843 1.499 . S
C4841 H4815 0.950 . S
C4841 C4840 1.414 . S
C4841 C4842 1.374 . S
C4842 H4816 0.950 . S
C4842 C4838 1.385 . S
C4842 C4841 1.374 . S
C4843 C4840 1.499 . S
C4843 C4844 1.373 . S
C4843 C4845 1.389 . S
C4844 H4817 0.950 . S
C4844 C4830 1.377 . S
C4844 C4843 1.373 . S
C4845 C4829 1.377 . S
C4845 C4843 1.389 . S
C4845 C4846 1.524 . S
C4846 C4845 1.524 . S
C4846 C4847 1.397 . S
C4846 C4851 1.363 . S
C4847 H4818 0.950 . S
C4847 C4846 1.397 . S
C4847 C4848 1.334 . S
C4848 H4819 0.950 . S
C4848 C4847 1.334 . S
C4848 C4849 1.287 . S
C4849 C4848 1.287 . S
C4849 C4850 1.524 . S
C4849 H4852 0.999 . S
C4850 H4820 0.950 . S
C4850 C4849 1.524 . S
C4850 C4851 1.415 . S
C4851 H4821 0.950 . S
C4851 C4846 1.363 . S
C4851 C4850 1.415 . S
H4852 C4849 0.999 . S
H4853 C4834 0.913 . S
H4854 C4872 0.929 1_655 S
H4855 C4874 0.951 1_655 S
H4856 C4876 0.950 . S
H4857 C4877 0.950 . S
H4858 C4879 0.950 . S
H4859 C4882 0.950 . S
H4860 C4883 0.950 1_455 S
H4861 C4885 0.950 . S
H4862 C4886 0.950 . S
H4863 C4887 0.951 . S
H4864 C4889 0.951 . S
H4865 C4891 0.950 . S
H4866 C4892 0.950 . S
H4867 C4894 0.950 1_655 S
H4868 C4897 0.950 . S
H4869 C4898 0.950 . S
H4870 C4900 0.950 . S
H4871 C4901 0.950 . S
C4872 H4854 0.929 1_455 S
C4872 C4873 1.366 . S
C4872 C4874 1.388 . S
C4873 C4872 1.366 . S
C4873 C4877 1.385 . S
C4874 H4855 0.951 1_455 S
C4874 C4872 1.388 . S
C4874 C4875 1.366 . S
C4875 C4874 1.366 . S
C4875 C4876 1.414 . S
C4875 C4878 1.499 . S
C4876 H4856 0.950 . S
C4876 C4875 1.414 . S
C4876 C4877 1.374 . S
C4877 H4857 0.950 . S
C4877 C4873 1.385 . S
C4877 C4876 1.374 . S
C4878 C4875 1.499 . S
C4878 C4879 1.373 . S
C4878 C4880 1.389 . S
C4879 H4858 0.950 . S
C4879 C4878 1.373 . S
C4879 C4895 1.377 . S
C4880 C4878 1.389 . S
C4880 C4881 1.524 1_455 S
C4880 C4894 1.377 . S
C4881 C4880 1.524 1_655 S
C4881 C4882 1.397 1_655 S
C4881 C4886 1.363 . S
C4882 H4859 0.950 . S
C4882 C4881 1.397 1_455 S
C4882 C4883 1.334 1_455 S
C4883 H4860 0.950 1_655 S
C4883 C4882 1.334 1_655 S
C4883 C4884 1.287 . S
C4884 C4883 1.287 . S
C4884 C4885 1.524 . S
C4884 H4903 0.913 . S
C4885 H4861 0.950 . S
C4885 C4884 1.524 . S
C4885 C4886 1.415 . S
C4886 H4862 0.950 . S
C4886 C4881 1.363 . S
C4886 C4885 1.415 . S
C4887 H4863 0.951 . S
C4887 C4888 1.366 . S
C4887 C4889 1.388 . S
C4888 C4887 1.366 . S
C4888 C4892 1.385 1_455 S
C4889 H4864 0.951 . S
C4889 C4887 1.388 . S
C4889 C4890 1.366 . S
C4890 C4889 1.366 . S
C4890 C4891 1.414 1_455 S
C4890 C4893 1.499 . S
C4891 H4865 0.950 . S
C4891 C4890 1.414 1_655 S
C4891 C4892 1.374 . S
C4892 H4866 0.950 . S
C4892 C4888 1.385 1_655 S
C4892 C4891 1.374 . S
C4893 C4890 1.499 . S
C4893 C4894 1.373 . S
C4893 C4895 1.389 . S
C4894 H4867 0.950 1_455 S
C4894 C4880 1.377 . S
C4894 C4893 1.373 . S
C4895 C4879 1.377 . S
C4895 C4893 1.389 . S
C4895 C4896 1.524 . S
C4896 C4895 1.524 . S
C4896 C4897 1.397 . S
C4896 C4901 1.363 . S
C4897 H4868 0.950 . S
C4897 C4896 1.397 . S
C4897 C4898 1.334 . S
C4898 H4869 0.950 . S
C4898 C4897 1.334 . S
C4898 C4899 1.287 . S
C4899 C4898 1.287 . S
C4899 C4900 1.524 . S
C4899 H4902 0.999 . S
C4900 H4870 0.950 . S
C4900 C4899 1.524 . S
C4900 C4901 1.415 . S
C4901 H4871 0.950 . S
C4901 C4896 1.363 . S
C4901 C4900 1.415 . S
H4902 C4899 0.999 . S
H4903 C4884 0.913 . S
H4904 C4922 0.951 . S
H4905 C4924 0.951 . S
H4906 C4926 0.950 . S
H4907 C4927 0.950 . S
H4908 C4929 0.950 . S
H4909 C4932 0.950 . S
H4910 C4933 0.950 . S
H4911 C4935 0.950 . S
H4912 C4936 0.950 . S
H4913 C4937 0.951 . S
H4914 C4939 0.951 . S
H4915 C4941 0.950 . S
H4916 C4942 0.950 . S
H4917 C4944 0.950 . S
H4918 C4947 0.950 . S
H4919 C4948 0.950 . S
H4920 C4950 0.950 . S
H4921 C4951 0.950 . S
C4922 H4904 0.951 . S
C4922 C4923 1.366 . S
C4922 C4924 1.388 . S
C4923 C4922 1.366 . S
C4923 C4927 1.385 . S
C4924 H4905 0.951 . S
C4924 C4922 1.388 . S
C4924 C4925 1.366 . S
C4925 C4924 1.366 . S
C4925 C4926 1.414 . S
C4925 C4928 1.499 . S
C4926 H4906 0.950 . S
C4926 C4925 1.414 . S
C4926 C4927 1.374 . S
C4927 H4907 0.950 . S
C4927 C4923 1.385 . S
C4927 C4926 1.374 . S
C4928 C4925 1.499 . S
C4928 C4929 1.373 . S
C4928 C4930 1.389 . S
C4929 H4908 0.950 . S
C4929 C4928 1.373 . S
C4929 C4945 1.377 . S
C4930 C4928 1.389 . S
C4930 C4931 1.524 . S
C4930 C4944 1.377 . S
C4931 C4930 1.524 . S
C4931 C4932 1.397 . S
C4931 C4936 1.363 . S
C4932 H4909 0.950 . S
C4932 C4931 1.397 . S
C4932 C4933 1.334 . S
C4933 H4910 0.950 . S
C4933 C4932 1.334 . S
C4933 C4934 1.287 . S
C4934 C4933 1.287 . S
C4934 C4935 1.524 . S
C4934 H4953 0.913 . S
C4935 H4911 0.950 . S
C4935 C4934 1.524 . S
C4935 C4936 1.415 . S
C4936 H4912 0.950 . S
C4936 C4931 1.363 . S
C4936 C4935 1.415 . S
C4937 H4913 0.951 . S
C4937 C4938 1.366 . S
C4937 C4939 1.388 . S
C4938 C4937 1.366 . S
C4938 C4942 1.385 . S
C4939 H4914 0.951 . S
C4939 C4937 1.388 . S
C4939 C4940 1.366 . S
C4940 C4939 1.366 . S
C4940 C4941 1.414 . S
C4940 C4943 1.499 . S
C4941 H4915 0.950 . S
C4941 C4940 1.414 . S
C4941 C4942 1.374 . S
C4942 H4916 0.950 . S
C4942 C4938 1.385 . S
C4942 C4941 1.374 . S
C4943 C4940 1.499 . S
C4943 C4944 1.373 . S
C4943 C4945 1.389 . S
C4944 H4917 0.950 . S
C4944 C4930 1.377 . S
C4944 C4943 1.373 . S
C4945 C4929 1.377 . S
C4945 C4943 1.389 . S
C4945 C4946 1.524 . S
C4946 C4945 1.524 . S
C4946 C4947 1.397 . S
C4946 C4951 1.363 . S
C4947 H4918 0.950 . S
C4947 C4946 1.397 . S
C4947 C4948 1.334 . S
C4948 H4919 0.950 . S
C4948 C4947 1.334 . S
C4948 C4949 1.287 . S
C4949 C4948 1.287 . S
C4949 C4950 1.524 . S
C4949 H4952 0.999 . S
C4950 H4920 0.950 . S
C4950 C4949 1.524 . S
C4950 C4951 1.415 . S
C4951 H4921 0.950 . S
C4951 C4946 1.363 . S
C4951 C4950 1.415 . S
H4952 C4949 0.999 . S
H4953 C4934 0.913 . S
H4954 C4972 0.951 . S
H4955 C4974 0.951 . S
H4956 C4976 0.950 . S
H4957 C4977 0.950 . S
H4958 C4979 0.950 . S
H4959 C4982 0.950 . S
H4960 C4983 0.950 . S
H4961 C4985 0.950 . S
H4962 C4986 0.950 1_565 S
H4963 C4987 0.935 1_545 S
H4964 C4989 0.951 . S
H4965 C4991 0.950 . S
H4966 C4992 0.950 . S
H4967 C4994 0.950 1_545 S
H4968 C4997 0.950 . S
H4969 C4998 0.950 . S
H4970 C5000 0.950 . S
H4971 C5001 0.950 . S
C4972 H4954 0.951 . S
C4972 C4973 1.366 . S
C4972 C4974 1.388 . S
C4973 C4972 1.366 . S
C4973 C4977 1.385 . S
C4974 H4955 0.951 . S
C4974 C4972 1.388 . S
C4974 C4975 1.366 . S
C4975 C4974 1.366 . S
C4975 C4976 1.414 . S
C4975 C4978 1.499 . S
C4976 H4956 0.950 . S
C4976 C4975 1.414 . S
C4976 C4977 1.374 . S
C4977 H4957 0.950 . S
C4977 C4973 1.385 . S
C4977 C4976 1.374 . S
C4978 C4975 1.499 . S
C4978 C4979 1.373 . S
C4978 C4980 1.389 . S
C4979 H4958 0.950 . S
C4979 C4978 1.373 . S
C4979 C4995 1.377 . S
C4980 C4978 1.389 . S
C4980 C4981 1.524 1_565 S
C4980 C4994 1.377 . S
C4981 C4980 1.524 1_545 S
C4981 C4982 1.397 . S
C4981 C4986 1.363 . S
C4982 H4959 0.950 . S
C4982 C4981 1.397 . S
C4982 C4983 1.334 . S
C4983 H4960 0.950 . S
C4983 C4982 1.334 . S
C4983 C4984 1.287 . S
C4984 C4983 1.287 . S
C4984 C4985 1.524 . S
C4984 H5003 0.913 . S
C4985 H4961 0.950 . S
C4985 C4984 1.524 . S
C4985 C4986 1.415 . S
C4986 H4962 0.950 1_545 S
C4986 C4981 1.363 . S
C4986 C4985 1.415 . S
C4987 H4963 0.935 1_565 S
C4987 C4988 1.366 . S
C4987 C4989 1.388 . S
C4988 C4987 1.366 . S
C4988 C4992 1.385 . S
C4989 H4964 0.951 . S
C4989 C4987 1.388 . S
C4989 C4990 1.366 . S
C4990 C4989 1.366 . S
C4990 C4991 1.414 . S
C4990 C4993 1.499 . S
C4991 H4965 0.950 . S
C4991 C4990 1.414 . S
C4991 C4992 1.374 . S
C4992 H4966 0.950 . S
C4992 C4988 1.385 . S
C4992 C4991 1.374 . S
C4993 C4990 1.499 . S
C4993 C4994 1.373 . S
C4993 C4995 1.389 . S
C4994 H4967 0.950 1_565 S
C4994 C4980 1.377 . S
C4994 C4993 1.373 . S
C4995 C4979 1.377 . S
C4995 C4993 1.389 . S
C4995 C4996 1.524 . S
C4996 C4995 1.524 . S
C4996 C4997 1.397 . S
C4996 C5001 1.363 . S
C4997 H4968 0.950 . S
C4997 C4996 1.397 . S
C4997 C4998 1.334 . S
C4998 H4969 0.950 . S
C4998 C4997 1.334 . S
C4998 C4999 1.287 . S
C4999 C4998 1.287 . S
C4999 C5000 1.524 . S
C4999 H5002 0.999 . S
C5000 H4970 0.950 . S
C5000 C4999 1.524 . S
C5000 C5001 1.415 . S
C5001 H4971 0.950 . S
C5001 C4996 1.363 . S
C5001 C5000 1.415 . S
H5002 C4999 0.999 . S
H5003 C4984 0.913 . S
H5004 C5022 0.951 . S
H5005 C5024 0.951 . S
H5006 C5026 0.950 . S
H5007 C5027 0.950 . S
H5008 C5029 0.948 1_545 S
H5009 C5032 0.950 . S
H5010 C5033 0.950 . S
H5011 C5035 0.950 . S
H5012 C5036 0.950 . S
H5013 C5037 0.951 . S
H5014 C5039 0.951 . S
H5015 C5041 0.950 . S
H5016 C5042 0.950 . S
H5017 C5044 0.950 . S
H5018 C5047 0.950 . S
H5019 C5048 0.950 . S
H5020 C5050 0.950 . S
H5021 C5051 0.950 . S
C5022 H5004 0.951 . S
C5022 C5023 1.366 . S
C5022 C5024 1.388 . S
C5023 C5022 1.366 . S
C5023 C5027 1.385 . S
C5024 H5005 0.951 . S
C5024 C5022 1.388 . S
C5024 C5025 1.366 . S
C5025 C5024 1.366 . S
C5025 C5026 1.414 . S
C5025 C5028 1.499 . S
C5026 H5006 0.950 . S
C5026 C5025 1.414 . S
C5026 C5027 1.374 . S
C5027 H5007 0.950 . S
C5027 C5023 1.385 . S
C5027 C5026 1.374 . S
C5028 C5025 1.499 . S
C5028 C5029 1.404 . S
C5028 C5030 1.389 . S
C5029 H5008 0.948 1_565 S
C5029 C5028 1.404 . S
C5029 C5045 1.351 1_565 S
C5030 C5028 1.389 . S
C5030 C5031 1.524 . S
C5030 C5044 1.377 . S
C5031 C5030 1.524 . S
C5031 C5032 1.397 . S
C5031 C5036 1.363 . S
C5032 H5009 0.950 . S
C5032 C5031 1.397 . S
C5032 C5033 1.334 . S
C5033 H5010 0.950 . S
C5033 C5032 1.334 . S
C5033 C5034 1.287 . S
C5034 C5033 1.287 . S
C5034 C5035 1.524 . S
C5034 H5053 0.913 . S
C5035 H5011 0.950 . S
C5035 C5034 1.524 . S
C5035 C5036 1.415 . S
C5036 H5012 0.950 . S
C5036 C5031 1.363 . S
C5036 C5035 1.415 . S
C5037 H5013 0.951 . S
C5037 C5038 1.366 . S
C5037 C5039 1.388 . S
C5038 C5037 1.366 . S
C5038 C5042 1.385 . S
C5039 H5014 0.951 . S
C5039 C5037 1.388 . S
C5039 C5040 1.366 . S
C5040 C5039 1.366 . S
C5040 C5041 1.414 . S
C5040 C5043 1.499 . S
C5041 H5015 0.950 . S
C5041 C5040 1.414 . S
C5041 C5042 1.374 . S
C5042 H5016 0.950 . S
C5042 C5038 1.385 . S
C5042 C5041 1.374 . S
C5043 C5040 1.499 . S
C5043 C5044 1.373 . S
C5043 C5045 1.389 1_565 S
C5044 H5017 0.950 . S
C5044 C5030 1.377 . S
C5044 C5043 1.373 . S
C5045 C5029 1.351 1_545 S
C5045 C5043 1.389 1_545 S
C5045 C5046 1.524 . S
C5046 C5045 1.524 . S
C5046 C5047 1.397 . S
C5046 C5051 1.363 . S
C5047 H5018 0.950 . S
C5047 C5046 1.397 . S
C5047 C5048 1.334 . S
C5048 H5019 0.950 . S
C5048 C5047 1.334 . S
C5048 C5049 1.287 . S
C5049 C5048 1.287 . S
C5049 C5050 1.524 . S
C5049 H5052 0.999 . S
C5050 H5020 0.950 . S
C5050 C5049 1.524 . S
C5050 C5051 1.415 . S
C5051 H5021 0.950 . S
C5051 C5046 1.363 . S
C5051 C5050 1.415 . S
H5052 C5049 0.999 . S
H5053 C5034 0.913 . S
H5054 C5072 0.951 . S
H5055 C5074 0.951 . S
H5056 C5076 0.950 . S
H5057 C5077 0.950 . S
H5058 C5079 0.950 1_655 S
H5059 C5082 0.950 . S
H5060 C5083 0.950 . S
H5061 C5085 0.950 . S
H5062 C5086 0.950 . S
H5063 C5087 0.951 . S
H5064 C5089 0.951 . S
H5065 C5091 0.957 . S
H5066 C5092 0.950 . S
H5067 C5094 0.950 . S
H5068 C5097 0.950 . S
H5069 C5098 0.950 . S
H5070 C5100 0.950 . S
H5071 C5101 0.950 . S
C5072 H5054 0.951 . S
C5072 C5073 1.366 . S
C5072 C5074 1.388 . S
C5073 C5072 1.366 . S
C5073 C5077 1.385 . S
C5074 H5055 0.951 . S
C5074 C5072 1.388 . S
C5074 C5075 1.366 . S
C5075 C5074 1.366 . S
C5075 C5076 1.414 . S
C5075 C5078 1.499 . S
C5076 H5056 0.950 . S
C5076 C5075 1.414 . S
C5076 C5077 1.374 . S
C5077 H5057 0.950 . S
C5077 C5073 1.385 . S
C5077 C5076 1.374 . S
C5078 C5075 1.499 . S
C5078 C5079 1.373 . S
C5078 C5080 1.389 . S
C5079 H5058 0.950 1_455 S
C5079 C5078 1.373 . S
C5079 C5095 1.377 1_455 S
C5080 C5078 1.389 . S
C5080 C5081 1.524 . S
C5080 C5094 1.377 . S
C5081 C5080 1.524 . S
C5081 C5082 1.397 . S
C5081 C5086 1.363 . S
C5082 H5059 0.950 . S
C5082 C5081 1.397 . S
C5082 C5083 1.334 . S
C5083 H5060 0.950 . S
C5083 C5082 1.334 . S
C5083 C5084 1.287 . S
C5084 C5083 1.287 . S
C5084 C5085 1.524 . S
C5084 H5103 0.913 . S
C5085 H5061 0.950 . S
C5085 C5084 1.524 . S
C5085 C5086 1.415 . S
C5086 H5062 0.950 . S
C5086 C5081 1.363 . S
C5086 C5085 1.415 . S
C5087 H5063 0.951 . S
C5087 C5088 1.367 . S
C5087 C5089 1.388 . S
C5088 C5087 1.367 . S
C5088 C5092 1.385 1_455 S
C5089 H5064 0.951 . S
C5089 C5087 1.388 . S
C5089 C5090 1.366 . S
C5090 C5089 1.366 . S
C5090 C5091 1.432 1_455 S
C5090 C5093 1.499 . S
C5091 H5065 0.957 . S
C5091 C5090 1.432 1_655 S
C5091 C5092 1.354 . S
C5092 H5066 0.950 . S
C5092 C5088 1.385 1_655 S
C5092 C5091 1.354 . S
C5093 C5090 1.499 . S
C5093 C5094 1.373 . S
C5093 C5095 1.389 1_455 S
C5094 H5067 0.950 . S
C5094 C5080 1.377 . S
C5094 C5093 1.373 . S
C5095 C5079 1.377 1_655 S
C5095 C5093 1.389 1_655 S
C5095 C5096 1.524 . S
C5096 C5095 1.524 . S
C5096 C5097 1.397 . S
C5096 C5101 1.363 . S
C5097 H5068 0.950 . S
C5097 C5096 1.397 . S
C5097 C5098 1.334 . S
C5098 H5069 0.950 . S
C5098 C5097 1.334 . S
C5098 C5099 1.287 . S
C5099 C5098 1.287 . S
C5099 C5100 1.524 . S
C5099 H5102 0.999 . S
C5100 H5070 0.950 . S
C5100 C5099 1.524 . S
C5100 C5101 1.415 . S
C5101 H5071 0.950 . S
C5101 C5096 1.363 . S
C5101 C5100 1.415 . S
H5102 C5099 0.999 . S
H5103 C5084 0.913 . S
H5104 C5122 0.951 . S
H5105 C5124 0.951 . S
H5106 C5126 0.950 . S
H5107 C5127 0.950 . S
H5108 C5129 0.950 . S
H5109 C5132 0.950 . S
H5110 C5133 0.950 . S
H5111 C5135 0.950 . S
H5112 C5136 0.950 . S
H5113 C5137 0.951 . S
H5114 C5139 0.951 . S
H5115 C5141 0.950 . S
H5116 C5142 0.950 . S
H5117 C5144 0.950 . S
H5118 C5147 0.950 . S
H5119 C5148 0.950 . S
H5120 C5150 0.950 . S
H5121 C5151 0.950 . S
C5122 H5104 0.951 . S
C5122 C5123 1.366 . S
C5122 C5124 1.388 . S
C5123 C5122 1.366 . S
C5123 C5127 1.385 . S
C5124 H5105 0.951 . S
C5124 C5122 1.388 . S
C5124 C5125 1.366 . S
C5125 C5124 1.366 . S
C5125 C5126 1.414 . S
C5125 C5128 1.499 . S
C5126 H5106 0.950 . S
C5126 C5125 1.414 . S
C5126 C5127 1.374 . S
C5127 H5107 0.950 . S
C5127 C5123 1.385 . S
C5127 C5126 1.374 . S
C5128 C5125 1.499 . S
C5128 C5129 1.373 . S
C5128 C5130 1.389 . S
C5129 H5108 0.950 . S
C5129 C5128 1.373 . S
C5129 C5145 1.377 . S
C5130 C5128 1.389 . S
C5130 C5131 1.524 . S
C5130 C5144 1.377 . S
C5131 C5130 1.524 . S
C5131 C5132 1.397 . S
C5131 C5136 1.363 . S
C5132 H5109 0.950 . S
C5132 C5131 1.397 . S
C5132 C5133 1.334 . S
C5133 H5110 0.950 . S
C5133 C5132 1.334 . S
C5133 C5134 1.287 . S
C5134 C5133 1.287 . S
C5134 C5135 1.524 . S
C5134 H5153 0.913 . S
C5135 H5111 0.950 . S
C5135 C5134 1.524 . S
C5135 C5136 1.415 . S
C5136 H5112 0.950 . S
C5136 C5131 1.363 . S
C5136 C5135 1.415 . S
C5137 H5113 0.951 . S
C5137 C5138 1.366 . S
C5137 C5139 1.388 . S
C5138 C5137 1.366 . S
C5138 C5142 1.385 . S
C5139 H5114 0.951 . S
C5139 C5137 1.388 . S
C5139 C5140 1.366 . S
C5140 C5139 1.366 . S
C5140 C5141 1.414 . S
C5140 C5143 1.499 . S
C5141 H5115 0.950 . S
C5141 C5140 1.414 . S
C5141 C5142 1.374 . S
C5142 H5116 0.950 . S
C5142 C5138 1.385 . S
C5142 C5141 1.374 . S
C5143 C5140 1.499 . S
C5143 C5144 1.373 . S
C5143 C5145 1.389 . S
C5144 H5117 0.950 . S
C5144 C5130 1.377 . S
C5144 C5143 1.373 . S
C5145 C5129 1.377 . S
C5145 C5143 1.389 . S
C5145 C5146 1.524 . S
C5146 C5145 1.524 . S
C5146 C5147 1.397 . S
C5146 C5151 1.363 . S
C5147 H5118 0.950 . S
C5147 C5146 1.397 . S
C5147 C5148 1.334 . S
C5148 H5119 0.950 . S
C5148 C5147 1.334 . S
C5148 C5149 1.287 . S
C5149 C5148 1.287 . S
C5149 C5150 1.524 . S
C5149 H5152 0.999 . S
C5150 H5120 0.950 . S
C5150 C5149 1.524 . S
C5150 C5151 1.415 . S
C5151 H5121 0.950 . S
C5151 C5146 1.363 . S
C5151 C5150 1.415 . S
H5152 C5149 0.999 . S
H5153 C5134 0.913 . S
H5154 C5172 0.951 . S
H5155 C5174 0.951 . S
H5156 C5176 0.950 . S
H5157 C5177 0.950 . S
H5158 C5179 0.950 . S
H5159 C5182 0.950 . S
H5160 C5183 0.950 . S
H5161 C5185 0.950 . S
H5162 C5186 0.950 . S
H5163 C5187 0.951 . S
H5164 C5189 0.951 . S
H5165 C5191 0.950 . S
H5166 C5192 0.950 . S
H5167 C5194 0.950 . S
H5168 C5197 0.950 . S
H5169 C5198 0.950 . S
H5170 C5200 0.950 . S
H5171 C5201 0.950 . S
C5172 H5154 0.951 . S
C5172 C5173 1.366 . S
C5172 C5174 1.388 . S
C5173 C5172 1.366 . S
C5173 C5177 1.385 . S
C5174 H5155 0.951 . S
C5174 C5172 1.388 . S
C5174 C5175 1.366 . S
C5175 C5174 1.366 . S
C5175 C5176 1.414 . S
C5175 C5178 1.499 . S
C5176 H5156 0.950 . S
C5176 C5175 1.414 . S
C5176 C5177 1.374 . S
C5177 H5157 0.950 . S
C5177 C5173 1.385 . S
C5177 C5176 1.374 . S
C5178 C5175 1.499 . S
C5178 C5179 1.373 . S
C5178 C5180 1.389 . S
C5179 H5158 0.950 . S
C5179 C5178 1.373 . S
C5179 C5195 1.377 . S
C5180 C5178 1.389 . S
C5180 C5181 1.524 . S
C5180 C5194 1.377 . S
C5181 C5180 1.524 . S
C5181 C5182 1.397 . S
C5181 C5186 1.363 . S
C5182 H5159 0.950 . S
C5182 C5181 1.397 . S
C5182 C5183 1.334 . S
C5183 H5160 0.950 . S
C5183 C5182 1.334 . S
C5183 C5184 1.287 . S
C5184 C5183 1.287 . S
C5184 C5185 1.524 . S
C5184 H5203 0.913 . S
C5185 H5161 0.950 . S
C5185 C5184 1.524 . S
C5185 C5186 1.415 . S
C5186 H5162 0.950 . S
C5186 C5181 1.363 . S
C5186 C5185 1.415 . S
C5187 H5163 0.951 . S
C5187 C5188 1.366 . S
C5187 C5189 1.388 . S
C5188 C5187 1.366 . S
C5188 C5192 1.385 . S
C5189 H5164 0.951 . S
C5189 C5187 1.388 . S
C5189 C5190 1.366 . S
C5190 C5189 1.366 . S
C5190 C5191 1.414 . S
C5190 C5193 1.499 . S
C5191 H5165 0.950 . S
C5191 C5190 1.414 . S
C5191 C5192 1.374 . S
C5192 H5166 0.950 . S
C5192 C5188 1.385 . S
C5192 C5191 1.374 . S
C5193 C5190 1.499 . S
C5193 C5194 1.373 . S
C5193 C5195 1.389 . S
C5194 H5167 0.950 . S
C5194 C5180 1.377 . S
C5194 C5193 1.373 . S
C5195 C5179 1.377 . S
C5195 C5193 1.389 . S
C5195 C5196 1.524 . S
C5196 C5195 1.524 . S
C5196 C5197 1.397 . S
C5196 C5201 1.363 . S
C5197 H5168 0.950 . S
C5197 C5196 1.397 . S
C5197 C5198 1.334 . S
C5198 H5169 0.950 . S
C5198 C5197 1.334 . S
C5198 C5199 1.287 . S
C5199 C5198 1.287 . S
C5199 C5200 1.524 . S
C5199 H5202 0.999 . S
C5200 H5170 0.950 . S
C5200 C5199 1.524 . S
C5200 C5201 1.415 . S
C5201 H5171 0.950 . S
C5201 C5196 1.363 . S
C5201 C5200 1.415 . S
H5202 C5199 0.999 . S
H5203 C5184 0.913 . S
H5204 C5222 0.951 . S
H5205 C5224 0.951 . S
H5206 C5226 0.950 . S
H5207 C5227 0.950 . S
H5208 C5229 0.950 . S
H5209 C5232 0.950 . S
H5210 C5233 0.950 . S
H5211 C5235 0.950 . S
H5212 C5236 0.950 . S
H5213 C5237 0.951 . S
H5214 C5239 0.951 . S
H5215 C5241 0.950 . S
H5216 C5242 0.950 . S
H5217 C5244 0.950 . S
H5218 C5247 0.950 . S
H5219 C5248 0.950 . S
H5220 C5250 0.950 . S
H5221 C5251 0.950 . S
C5222 H5204 0.951 . S
C5222 C5223 1.366 . S
C5222 C5224 1.388 . S
C5223 C5222 1.366 . S
C5223 C5227 1.385 . S
C5224 H5205 0.951 . S
C5224 C5222 1.388 . S
C5224 C5225 1.366 . S
C5225 C5224 1.366 . S
C5225 C5226 1.414 . S
C5225 C5228 1.499 . S
C5226 H5206 0.950 . S
C5226 C5225 1.414 . S
C5226 C5227 1.374 . S
C5227 H5207 0.950 . S
C5227 C5223 1.385 . S
C5227 C5226 1.374 . S
C5228 C5225 1.499 . S
C5228 C5229 1.373 . S
C5228 C5230 1.389 . S
C5229 H5208 0.950 . S
C5229 C5228 1.373 . S
C5229 C5245 1.377 . S
C5230 C5228 1.389 . S
C5230 C5231 1.524 . S
C5230 C5244 1.377 . S
C5231 C5230 1.524 . S
C5231 C5232 1.397 . S
C5231 C5236 1.363 . S
C5232 H5209 0.950 . S
C5232 C5231 1.397 . S
C5232 C5233 1.334 . S
C5233 H5210 0.950 . S
C5233 C5232 1.334 . S
C5233 C5234 1.287 . S
C5234 C5233 1.287 . S
C5234 C5235 1.524 . S
C5234 H5253 0.913 . S
C5235 H5211 0.950 . S
C5235 C5234 1.524 . S
C5235 C5236 1.415 . S
C5236 H5212 0.950 . S
C5236 C5231 1.363 . S
C5236 C5235 1.415 . S
C5237 H5213 0.951 . S
C5237 C5238 1.366 . S
C5237 C5239 1.388 . S
C5238 C5237 1.366 . S
C5238 C5242 1.385 . S
C5239 H5214 0.951 . S
C5239 C5237 1.388 . S
C5239 C5240 1.366 . S
C5240 C5239 1.366 . S
C5240 C5241 1.414 . S
C5240 C5243 1.499 . S
C5241 H5215 0.950 . S
C5241 C5240 1.414 . S
C5241 C5242 1.374 . S
C5242 H5216 0.950 . S
C5242 C5238 1.385 . S
C5242 C5241 1.374 . S
C5243 C5240 1.499 . S
C5243 C5244 1.373 . S
C5243 C5245 1.389 . S
C5244 H5217 0.950 . S
C5244 C5230 1.377 . S
C5244 C5243 1.373 . S
C5245 C5229 1.377 . S
C5245 C5243 1.389 . S
C5245 C5246 1.524 . S
C5246 C5245 1.524 . S
C5246 C5247 1.397 . S
C5246 C5251 1.363 . S
C5247 H5218 0.950 . S
C5247 C5246 1.397 . S
C5247 C5248 1.334 . S
C5248 H5219 0.950 . S
C5248 C5247 1.334 . S
C5248 C5249 1.287 . S
C5249 C5248 1.287 . S
C5249 C5250 1.524 . S
C5249 H5252 0.999 . S
C5250 H5220 0.950 . S
C5250 C5249 1.524 . S
C5250 C5251 1.415 . S
C5251 H5221 0.950 . S
C5251 C5246 1.363 . S
C5251 C5250 1.415 . S
H5252 C5249 0.999 . S
H5253 C5234 0.913 . S
H5254 C5272 0.951 . S
H5255 C5274 0.951 . S
H5256 C5276 0.950 . S
H5257 C5277 0.950 . S
H5258 C5279 0.950 . S
H5259 C5282 0.950 . S
H5260 C5283 0.950 . S
H5261 C5285 0.950 . S
H5262 C5286 0.950 . S
H5263 C5287 0.951 . S
H5264 C5289 0.951 . S
H5265 C5291 0.950 . S
H5266 C5292 0.950 . S
H5267 C5294 0.950 . S
H5268 C5297 0.950 . S
H5269 C5298 0.950 . S
H5270 C5300 0.950 . S
H5271 C5301 0.950 . S
C5272 H5254 0.951 . S
C5272 C5273 1.366 . S
C5272 C5274 1.388 . S
C5273 C5272 1.366 . S
C5273 C5277 1.385 . S
C5274 H5255 0.951 . S
C5274 C5272 1.388 . S
C5274 C5275 1.366 . S
C5275 C5274 1.366 . S
C5275 C5276 1.414 . S
C5275 C5278 1.499 . S
C5276 H5256 0.950 . S
C5276 C5275 1.414 . S
C5276 C5277 1.374 . S
C5277 H5257 0.950 . S
C5277 C5273 1.385 . S
C5277 C5276 1.374 . S
C5278 C5275 1.499 . S
C5278 C5279 1.373 . S
C5278 C5280 1.389 . S
C5279 H5258 0.950 . S
C5279 C5278 1.373 . S
C5279 C5295 1.377 . S
C5280 C5278 1.389 . S
C5280 C5281 1.524 . S
C5280 C5294 1.377 . S
C5281 C5280 1.524 . S
C5281 C5282 1.397 . S
C5281 C5286 1.363 . S
C5282 H5259 0.950 . S
C5282 C5281 1.397 . S
C5282 C5283 1.334 . S
C5283 H5260 0.950 . S
C5283 C5282 1.334 . S
C5283 C5284 1.287 . S
C5284 C5283 1.287 . S
C5284 C5285 1.524 . S
C5284 H5303 0.913 . S
C5285 H5261 0.950 . S
C5285 C5284 1.524 . S
C5285 C5286 1.415 . S
C5286 H5262 0.950 . S
C5286 C5281 1.363 . S
C5286 C5285 1.415 . S
C5287 H5263 0.951 . S
C5287 C5288 1.366 . S
C5287 C5289 1.388 . S
C5288 C5287 1.366 . S
C5288 C5292 1.385 . S
C5289 H5264 0.951 . S
C5289 C5287 1.388 . S
C5289 C5290 1.366 . S
C5290 C5289 1.366 . S
C5290 C5291 1.414 . S
C5290 C5293 1.499 . S
C5291 H5265 0.950 . S
C5291 C5290 1.414 . S
C5291 C5292 1.374 . S
C5292 H5266 0.950 . S
C5292 C5288 1.385 . S
C5292 C5291 1.374 . S
C5293 C5290 1.499 . S
C5293 C5294 1.373 . S
C5293 C5295 1.389 . S
C5294 H5267 0.950 . S
C5294 C5280 1.377 . S
C5294 C5293 1.373 . S
C5295 C5279 1.377 . S
C5295 C5293 1.389 . S
C5295 C5296 1.524 . S
C5296 C5295 1.524 . S
C5296 C5297 1.397 . S
C5296 C5301 1.363 . S
C5297 H5268 0.950 . S
C5297 C5296 1.397 . S
C5297 C5298 1.334 . S
C5298 H5269 0.950 . S
C5298 C5297 1.334 . S
C5298 C5299 1.287 . S
C5299 C5298 1.287 . S
C5299 C5300 1.524 . S
C5299 H5302 0.999 . S
C5300 H5270 0.950 . S
C5300 C5299 1.524 . S
C5300 C5301 1.415 . S
C5301 H5271 0.950 . S
C5301 C5296 1.363 . S
C5301 C5300 1.415 . S
H5302 C5299 0.999 . S
H5303 C5284 0.913 . S
H5304 C5322 0.951 . S
H5305 C5324 0.951 . S
H5306 C5326 0.950 . S
H5307 C5327 0.950 . S
H5308 C5329 0.950 . S
H5309 C5332 0.950 . S
H5310 C5333 0.950 . S
H5311 C5335 0.950 . S
H5312 C5336 0.950 . S
H5313 C5337 0.951 . S
H5314 C5339 0.951 . S
H5315 C5341 0.950 . S
H5316 C5342 0.944 1_565 S
H5317 C5344 0.950 . S
H5318 C5347 0.950 . S
H5319 C5348 0.950 . S
H5320 C5350 0.950 . S
H5321 C5351 0.950 . S
C5322 H5304 0.951 . S
C5322 C5323 1.366 . S
C5322 C5324 1.388 . S
C5323 C5322 1.366 . S
C5323 C5327 1.385 . S
C5324 H5305 0.951 . S
C5324 C5322 1.388 . S
C5324 C5325 1.366 . S
C5325 C5324 1.366 . S
C5325 C5326 1.414 . S
C5325 C5328 1.499 . S
C5326 H5306 0.950 . S
C5326 C5325 1.414 . S
C5326 C5327 1.374 . S
C5327 H5307 0.950 . S
C5327 C5323 1.385 . S
C5327 C5326 1.374 . S
C5328 C5325 1.499 . S
C5328 C5329 1.373 . S
C5328 C5330 1.389 . S
C5329 H5308 0.950 . S
C5329 C5328 1.373 . S
C5329 C5345 1.377 . S
C5330 C5328 1.389 . S
C5330 C5331 1.524 . S
C5330 C5344 1.377 . S
C5331 C5330 1.524 . S
C5331 C5332 1.397 . S
C5331 C5336 1.363 . S
C5332 H5309 0.950 . S
C5332 C5331 1.397 . S
C5332 C5333 1.334 . S
C5333 H5310 0.950 . S
C5333 C5332 1.334 . S
C5333 C5334 1.287 . S
C5334 C5333 1.287 . S
C5334 C5335 1.524 . S
C5334 H5353 0.913 . S
C5335 H5311 0.950 . S
C5335 C5334 1.524 . S
C5335 C5336 1.415 . S
C5336 H5312 0.950 . S
C5336 C5331 1.363 . S
C5336 C5335 1.415 . S
C5337 H5313 0.951 . S
C5337 C5338 1.366 . S
C5337 C5339 1.388 . S
C5338 C5337 1.366 . S
C5338 C5342 1.385 . S
C5339 H5314 0.951 . S
C5339 C5337 1.388 . S
C5339 C5340 1.366 . S
C5340 C5339 1.366 . S
C5340 C5341 1.414 . S
C5340 C5343 1.499 . S
C5341 H5315 0.950 . S
C5341 C5340 1.414 . S
C5341 C5342 1.374 . S
C5342 H5316 0.944 1_545 S
C5342 C5338 1.385 . S
C5342 C5341 1.374 . S
C5343 C5340 1.499 . S
C5343 C5344 1.373 . S
C5343 C5345 1.389 . S
C5344 H5317 0.950 . S
C5344 C5330 1.377 . S
C5344 C5343 1.373 . S
C5345 C5329 1.377 . S
C5345 C5343 1.389 . S
C5345 C5346 1.524 1_545 S
C5346 C5345 1.524 1_565 S
C5346 C5347 1.397 . S
C5346 C5351 1.363 1_565 S
C5347 H5318 0.950 . S
C5347 C5346 1.397 . S
C5347 C5348 1.334 . S
C5348 H5319 0.950 . S
C5348 C5347 1.334 . S
C5348 C5349 1.287 . S
C5349 C5348 1.287 . S
C5349 C5350 1.524 . S
C5349 H5352 0.999 . S
C5350 H5320 0.950 . S
C5350 C5349 1.524 . S
C5350 C5351 1.415 1_565 S
C5351 H5321 0.950 . S
C5351 C5346 1.363 1_545 S
C5351 C5350 1.415 1_545 S
H5352 C5349 0.999 . S
H5353 C5334 0.913 . S
H5354 C5372 0.951 . S
H5355 C5374 0.951 . S
H5356 C5376 0.936 1_455 S
H5357 C5377 0.950 1_455 S
H5358 C5379 0.950 . S
H5359 C5382 0.950 . S
H5360 C5383 0.950 . S
H5361 C5385 0.950 . S
H5362 C5386 0.950 . S
H5363 C5387 0.951 . S
H5364 C5389 0.951 . S
H5365 C5391 0.950 . S
H5366 C5392 0.950 . S
H5367 C5394 0.950 . S
H5368 C5397 0.950 . S
H5369 C5398 0.950 . S
H5370 C5400 0.950 . S
H5371 C5401 0.950 . S
C5372 H5354 0.951 . S
C5372 C5373 1.366 . S
C5372 C5374 1.388 . S
C5373 C5372 1.366 . S
C5373 C5377 1.385 . S
C5374 H5355 0.951 . S
C5374 C5372 1.388 . S
C5374 C5375 1.366 . S
C5375 C5374 1.366 . S
C5375 C5376 1.449 . S
C5375 C5378 1.499 . S
C5376 H5356 0.936 1_655 S
C5376 C5375 1.449 . S
C5376 C5377 1.355 . S
C5377 H5357 0.950 1_655 S
C5377 C5373 1.385 . S
C5377 C5376 1.355 . S
C5378 C5375 1.499 . S
C5378 C5379 1.373 1_655 S
C5378 C5380 1.389 . S
C5379 H5358 0.950 . S
C5379 C5378 1.373 1_455 S
C5379 C5395 1.377 . S
C5380 C5378 1.389 . S
C5380 C5381 1.524 . S
C5380 C5394 1.377 . S
C5381 C5380 1.524 . S
C5381 C5382 1.397 . S
C5381 C5386 1.363 . S
C5382 H5359 0.950 . S
C5382 C5381 1.397 . S
C5382 C5383 1.334 . S
C5383 H5360 0.950 . S
C5383 C5382 1.334 . S
C5383 C5384 1.287 . S
C5384 C5383 1.287 . S
C5384 C5385 1.524 . S
C5384 H5403 0.913 . S
C5385 H5361 0.950 . S
C5385 C5384 1.524 . S
C5385 C5386 1.415 . S
C5386 H5362 0.950 . S
C5386 C5381 1.363 . S
C5386 C5385 1.415 . S
C5387 H5363 0.951 . S
C5387 C5388 1.366 1_455 S
C5387 C5389 1.388 . S
C5388 C5387 1.366 1_655 S
C5388 C5392 1.385 . S
C5389 H5364 0.951 . S
C5389 C5387 1.388 . S
C5389 C5390 1.366 1_455 S
C5390 C5389 1.366 1_655 S
C5390 C5391 1.414 . S
C5390 C5393 1.499 . S
C5391 H5365 0.950 . S
C5391 C5390 1.414 . S
C5391 C5392 1.374 . S
C5392 H5366 0.950 . S
C5392 C5388 1.385 . S
C5392 C5391 1.374 . S
C5393 C5390 1.499 . S
C5393 C5394 1.373 . S
C5393 C5395 1.389 1_655 S
C5394 H5367 0.950 . S
C5394 C5380 1.377 . S
C5394 C5393 1.373 . S
C5395 C5379 1.377 . S
C5395 C5393 1.389 1_455 S
C5395 C5396 1.524 . S
C5396 C5395 1.524 . S
C5396 C5397 1.397 . S
C5396 C5401 1.363 . S
C5397 H5368 0.950 . S
C5397 C5396 1.397 . S
C5397 C5398 1.334 . S
C5398 H5369 0.950 . S
C5398 C5397 1.334 . S
C5398 C5399 1.287 . S
C5399 C5398 1.287 . S
C5399 C5400 1.524 . S
C5399 H5402 0.999 . S
C5400 H5370 0.950 . S
C5400 C5399 1.524 . S
C5400 C5401 1.415 . S
C5401 H5371 0.950 . S
C5401 C5396 1.363 . S
C5401 C5400 1.415 . S
H5402 C5399 0.999 . S
H5403 C5384 0.913 . S
H5404 C5422 0.951 . S
H5405 C5424 0.951 . S
H5406 C5426 0.950 . S
H5407 C5427 0.950 . S
H5408 C5429 0.950 . S
H5409 C5432 0.950 . S
H5410 C5433 0.950 . S
H5411 C5435 0.950 . S
H5412 C5436 0.950 . S
H5413 C5437 0.951 . S
H5414 C5439 0.951 . S
H5415 C5441 0.950 . S
H5416 C5442 0.950 . S
H5417 C5444 0.950 . S
H5418 C5447 0.950 . S
H5419 C5448 0.950 . S
H5420 C5450 0.950 . S
H5421 C5451 0.950 . S
C5422 H5404 0.951 . S
C5422 C5423 1.366 . S
C5422 C5424 1.388 . S
C5423 C5422 1.366 . S
C5423 C5427 1.385 . S
C5424 H5405 0.951 . S
C5424 C5422 1.388 . S
C5424 C5425 1.366 . S
C5425 C5424 1.366 . S
C5425 C5426 1.414 . S
C5425 C5428 1.499 . S
C5426 H5406 0.950 . S
C5426 C5425 1.414 . S
C5426 C5427 1.374 . S
C5427 H5407 0.950 . S
C5427 C5423 1.385 . S
C5427 C5426 1.374 . S
C5428 C5425 1.499 . S
C5428 C5429 1.373 . S
C5428 C5430 1.389 . S
C5429 H5408 0.950 . S
C5429 C5428 1.373 . S
C5429 C5445 1.377 . S
C5430 C5428 1.389 . S
C5430 C5431 1.524 . S
C5430 C5444 1.377 . S
C5431 C5430 1.524 . S
C5431 C5432 1.397 . S
C5431 C5436 1.363 . S
C5432 H5409 0.950 . S
C5432 C5431 1.397 . S
C5432 C5433 1.334 . S
C5433 H5410 0.950 . S
C5433 C5432 1.334 . S
C5433 C5434 1.287 . S
C5434 C5433 1.287 . S
C5434 C5435 1.524 . S
C5434 H5453 0.913 . S
C5435 H5411 0.950 . S
C5435 C5434 1.524 . S
C5435 C5436 1.415 . S
C5436 H5412 0.950 . S
C5436 C5431 1.363 . S
C5436 C5435 1.415 . S
C5437 H5413 0.951 . S
C5437 C5438 1.366 . S
C5437 C5439 1.388 . S
C5438 C5437 1.366 . S
C5438 C5442 1.385 . S
C5439 H5414 0.951 . S
C5439 C5437 1.388 . S
C5439 C5440 1.366 . S
C5440 C5439 1.366 . S
C5440 C5441 1.414 . S
C5440 C5443 1.499 . S
C5441 H5415 0.950 . S
C5441 C5440 1.414 . S
C5441 C5442 1.374 . S
C5442 H5416 0.950 . S
C5442 C5438 1.385 . S
C5442 C5441 1.374 . S
C5443 C5440 1.499 . S
C5443 C5444 1.373 . S
C5443 C5445 1.389 . S
C5444 H5417 0.950 . S
C5444 C5430 1.377 . S
C5444 C5443 1.373 . S
C5445 C5429 1.377 . S
C5445 C5443 1.389 . S
C5445 C5446 1.524 . S
C5446 C5445 1.524 . S
C5446 C5447 1.397 . S
C5446 C5451 1.363 . S
C5447 H5418 0.950 . S
C5447 C5446 1.397 . S
C5447 C5448 1.334 . S
C5448 H5419 0.950 . S
C5448 C5447 1.334 . S
C5448 C5449 1.287 . S
C5449 C5448 1.287 . S
C5449 C5450 1.524 . S
C5449 H5452 0.999 . S
C5450 H5420 0.950 . S
C5450 C5449 1.524 . S
C5450 C5451 1.415 . S
C5451 H5421 0.950 . S
C5451 C5446 1.363 . S
C5451 C5450 1.415 . S
H5452 C5449 0.999 . S
H5453 C5434 0.913 . S
H5454 C5472 0.951 . S
H5455 C5474 0.951 . S
H5456 C5476 0.950 . S
H5457 C5477 0.950 . S
H5458 C5479 0.950 . S
H5459 C5482 0.950 . S
H5460 C5483 0.950 . S
H5461 C5485 0.950 . S
H5462 C5486 0.950 . S
H5463 C5487 0.951 . S
H5464 C5489 0.951 . S
H5465 C5491 0.950 . S
H5466 C5492 0.950 . S
H5467 C5494 0.950 . S
H5468 C5497 0.950 . S
H5469 C5498 0.950 . S
H5470 C5500 0.950 . S
H5471 C5501 0.950 . S
C5472 H5454 0.951 . S
C5472 C5473 1.366 . S
C5472 C5474 1.388 . S
C5473 C5472 1.366 . S
C5473 C5477 1.385 . S
C5474 H5455 0.951 . S
C5474 C5472 1.388 . S
C5474 C5475 1.366 . S
C5475 C5474 1.366 . S
C5475 C5476 1.414 . S
C5475 C5478 1.499 . S
C5476 H5456 0.950 . S
C5476 C5475 1.414 . S
C5476 C5477 1.374 . S
C5477 H5457 0.950 . S
C5477 C5473 1.385 . S
C5477 C5476 1.374 . S
C5478 C5475 1.499 . S
C5478 C5479 1.373 . S
C5478 C5480 1.389 . S
C5479 H5458 0.950 . S
C5479 C5478 1.373 . S
C5479 C5495 1.377 . S
C5480 C5478 1.389 . S
C5480 C5481 1.524 . S
C5480 C5494 1.377 . S
C5481 C5480 1.524 . S
C5481 C5482 1.397 . S
C5481 C5486 1.363 . S
C5482 H5459 0.950 . S
C5482 C5481 1.397 . S
C5482 C5483 1.334 . S
C5483 H5460 0.950 . S
C5483 C5482 1.334 . S
C5483 C5484 1.287 . S
C5484 C5483 1.287 . S
C5484 C5485 1.524 . S
C5484 H5503 0.913 . S
C5485 H5461 0.950 . S
C5485 C5484 1.524 . S
C5485 C5486 1.415 . S
C5486 H5462 0.950 . S
C5486 C5481 1.363 . S
C5486 C5485 1.415 . S
C5487 H5463 0.951 . S
C5487 C5488 1.366 . S
C5487 C5489 1.388 . S
C5488 C5487 1.366 . S
C5488 C5492 1.385 . S
C5489 H5464 0.951 . S
C5489 C5487 1.388 . S
C5489 C5490 1.366 . S
C5490 C5489 1.366 . S
C5490 C5491 1.414 . S
C5490 C5493 1.499 . S
C5491 H5465 0.950 . S
C5491 C5490 1.414 . S
C5491 C5492 1.374 . S
C5492 H5466 0.950 . S
C5492 C5488 1.385 . S
C5492 C5491 1.374 . S
C5493 C5490 1.499 . S
C5493 C5494 1.373 . S
C5493 C5495 1.389 . S
C5494 H5467 0.950 . S
C5494 C5480 1.377 . S
C5494 C5493 1.373 . S
C5495 C5479 1.377 . S
C5495 C5493 1.389 . S
C5495 C5496 1.524 . S
C5496 C5495 1.524 . S
C5496 C5497 1.397 . S
C5496 C5501 1.363 . S
C5497 H5468 0.950 . S
C5497 C5496 1.397 . S
C5497 C5498 1.334 . S
C5498 H5469 0.950 . S
C5498 C5497 1.334 . S
C5498 C5499 1.287 . S
C5499 C5498 1.287 . S
C5499 C5500 1.524 . S
C5499 H5502 0.999 . S
C5500 H5470 0.950 . S
C5500 C5499 1.524 . S
C5500 C5501 1.415 . S
C5501 H5471 0.950 . S
C5501 C5496 1.363 . S
C5501 C5500 1.415 . S
H5502 C5499 0.999 . S
H5503 C5484 0.913 . S
H5504 C5522 0.951 . S
H5505 C5524 0.951 . S
H5506 C5526 0.950 . S
H5507 C5527 0.950 . S
H5508 C5529 0.950 . S
H5509 C5532 0.950 . S
H5510 C5533 0.950 . S
H5511 C5535 0.950 . S
H5512 C5536 0.950 . S
H5513 C5537 0.951 . S
H5514 C5539 0.951 . S
H5515 C5541 0.950 . S
H5516 C5542 0.950 . S
H5517 C5544 0.950 . S
H5518 C5547 0.950 . S
H5519 C5548 0.950 . S
H5520 C5550 0.950 . S
H5521 C5551 0.950 . S
C5522 H5504 0.951 . S
C5522 C5523 1.366 . S
C5522 C5524 1.388 . S
C5523 C5522 1.366 . S
C5523 C5527 1.385 . S
C5524 H5505 0.951 . S
C5524 C5522 1.388 . S
C5524 C5525 1.366 . S
C5525 C5524 1.366 . S
C5525 C5526 1.414 . S
C5525 C5528 1.499 . S
C5526 H5506 0.950 . S
C5526 C5525 1.414 . S
C5526 C5527 1.374 . S
C5527 H5507 0.950 . S
C5527 C5523 1.385 . S
C5527 C5526 1.374 . S
C5528 C5525 1.499 . S
C5528 C5529 1.373 . S
C5528 C5530 1.389 . S
C5529 H5508 0.950 . S
C5529 C5528 1.373 . S
C5529 C5545 1.377 . S
C5530 C5528 1.389 . S
C5530 C5531 1.524 . S
C5530 C5544 1.377 . S
C5531 C5530 1.524 . S
C5531 C5532 1.397 . S
C5531 C5536 1.363 . S
C5532 H5509 0.950 . S
C5532 C5531 1.397 . S
C5532 C5533 1.334 . S
C5533 H5510 0.950 . S
C5533 C5532 1.334 . S
C5533 C5534 1.287 . S
C5534 C5533 1.287 . S
C5534 C5535 1.524 . S
C5534 H5553 0.913 . S
C5535 H5511 0.950 . S
C5535 C5534 1.524 . S
C5535 C5536 1.415 . S
C5536 H5512 0.950 . S
C5536 C5531 1.363 . S
C5536 C5535 1.415 . S
C5537 H5513 0.951 . S
C5537 C5538 1.366 . S
C5537 C5539 1.388 . S
C5538 C5537 1.366 . S
C5538 C5542 1.385 . S
C5539 H5514 0.951 . S
C5539 C5537 1.388 . S
C5539 C5540 1.366 . S
C5540 C5539 1.366 . S
C5540 C5541 1.414 . S
C5540 C5543 1.499 . S
C5541 H5515 0.950 . S
C5541 C5540 1.414 . S
C5541 C5542 1.374 . S
C5542 H5516 0.950 . S
C5542 C5538 1.385 . S
C5542 C5541 1.374 . S
C5543 C5540 1.499 . S
C5543 C5544 1.373 . S
C5543 C5545 1.389 . S
C5544 H5517 0.950 . S
C5544 C5530 1.377 . S
C5544 C5543 1.373 . S
C5545 C5529 1.377 . S
C5545 C5543 1.389 . S
C5545 C5546 1.524 . S
C5546 C5545 1.524 . S
C5546 C5547 1.397 . S
C5546 C5551 1.363 . S
C5547 H5518 0.950 . S
C5547 C5546 1.397 . S
C5547 C5548 1.334 . S
C5548 H5519 0.950 . S
C5548 C5547 1.334 . S
C5548 C5549 1.287 . S
C5549 C5548 1.287 . S
C5549 C5550 1.524 . S
C5549 H5552 0.999 . S
C5550 H5520 0.950 . S
C5550 C5549 1.524 . S
C5550 C5551 1.415 . S
C5551 H5521 0.950 . S
C5551 C5546 1.363 . S
C5551 C5550 1.415 . S
H5552 C5549 0.999 . S
H5553 C5534 0.913 . S
H5554 C5572 0.951 . S
H5555 C5574 0.951 . S
H5556 C5576 0.950 . S
H5557 C5577 0.950 . S
H5558 C5579 0.950 . S
H5559 C5582 0.950 . S
H5560 C5583 0.950 . S
H5561 C5585 0.950 . S
H5562 C5586 0.950 . S
H5563 C5587 0.951 . S
H5564 C5589 0.951 . S
H5565 C5591 0.950 . S
H5566 C5592 0.950 . S
H5567 C5594 0.950 . S
H5568 C5597 0.950 . S
H5569 C5598 0.950 . S
H5570 C5600 0.950 . S
H5571 C5601 0.950 . S
C5572 H5554 0.951 . S
C5572 C5573 1.366 . S
C5572 C5574 1.388 . S
C5573 C5572 1.366 . S
C5573 C5577 1.385 . S
C5574 H5555 0.951 . S
C5574 C5572 1.388 . S
C5574 C5575 1.366 . S
C5575 C5574 1.366 . S
C5575 C5576 1.414 . S
C5575 C5578 1.499 . S
C5576 H5556 0.950 . S
C5576 C5575 1.414 . S
C5576 C5577 1.374 . S
C5577 H5557 0.950 . S
C5577 C5573 1.385 . S
C5577 C5576 1.374 . S
C5578 C5575 1.499 . S
C5578 C5579 1.373 . S
C5578 C5580 1.389 . S
C5579 H5558 0.950 . S
C5579 C5578 1.373 . S
C5579 C5595 1.377 . S
C5580 C5578 1.389 . S
C5580 C5581 1.524 . S
C5580 C5594 1.377 . S
C5581 C5580 1.524 . S
C5581 C5582 1.397 . S
C5581 C5586 1.363 . S
C5582 H5559 0.950 . S
C5582 C5581 1.397 . S
C5582 C5583 1.334 . S
C5583 H5560 0.950 . S
C5583 C5582 1.334 . S
C5583 C5584 1.287 . S
C5584 C5583 1.287 . S
C5584 C5585 1.524 . S
C5584 H5603 0.913 . S
C5585 H5561 0.950 . S
C5585 C5584 1.524 . S
C5585 C5586 1.415 . S
C5586 H5562 0.950 . S
C5586 C5581 1.363 . S
C5586 C5585 1.415 . S
C5587 H5563 0.951 . S
C5587 C5588 1.366 . S
C5587 C5589 1.388 . S
C5588 C5587 1.366 . S
C5588 C5592 1.385 . S
C5589 H5564 0.951 . S
C5589 C5587 1.388 . S
C5589 C5590 1.366 . S
C5590 C5589 1.366 . S
C5590 C5591 1.414 . S
C5590 C5593 1.499 . S
C5591 H5565 0.950 . S
C5591 C5590 1.414 . S
C5591 C5592 1.374 . S
C5592 H5566 0.950 . S
C5592 C5588 1.385 . S
C5592 C5591 1.374 . S
C5593 C5590 1.499 . S
C5593 C5594 1.373 . S
C5593 C5595 1.389 . S
C5594 H5567 0.950 . S
C5594 C5580 1.377 . S
C5594 C5593 1.373 . S
C5595 C5579 1.377 . S
C5595 C5593 1.389 . S
C5595 C5596 1.524 . S
C5596 C5595 1.524 . S
C5596 C5597 1.397 . S
C5596 C5601 1.363 . S
C5597 H5568 0.950 . S
C5597 C5596 1.397 . S
C5597 C5598 1.334 . S
C5598 H5569 0.950 . S
C5598 C5597 1.334 . S
C5598 C5599 1.287 . S
C5599 C5598 1.287 . S
C5599 C5600 1.524 . S
C5599 H5602 0.999 . S
C5600 H5570 0.950 . S
C5600 C5599 1.524 . S
C5600 C5601 1.415 . S
C5601 H5571 0.950 . S
C5601 C5596 1.363 . S
C5601 C5600 1.415 . S
H5602 C5599 0.999 . S
H5603 C5584 0.913 . S
H5604 C5622 0.951 . S
H5605 C5624 0.951 . S
H5606 C5626 0.950 . S
H5607 C5627 0.950 . S
H5608 C5629 0.950 . S
H5609 C5632 0.950 . S
H5610 C5633 0.950 . S
H5611 C5635 0.950 . S
H5612 C5636 0.950 . S
H5613 C5637 0.951 . S
H5614 C5639 0.951 . S
H5615 C5641 0.950 . S
H5616 C5642 0.950 . S
H5617 C5644 0.950 . S
H5618 C5647 0.950 . S
H5619 C5648 0.950 . S
H5620 C5650 0.950 . S
H5621 C5651 0.950 . S
C5622 H5604 0.951 . S
C5622 C5623 1.366 . S
C5622 C5624 1.388 . S
C5623 C5622 1.366 . S
C5623 C5627 1.385 . S
C5624 H5605 0.951 . S
C5624 C5622 1.388 . S
C5624 C5625 1.366 . S
C5625 C5624 1.366 . S
C5625 C5626 1.414 . S
C5625 C5628 1.499 . S
C5626 H5606 0.950 . S
C5626 C5625 1.414 . S
C5626 C5627 1.374 . S
C5627 H5607 0.950 . S
C5627 C5623 1.385 . S
C5627 C5626 1.374 . S
C5628 C5625 1.499 . S
C5628 C5629 1.373 . S
C5628 C5630 1.389 . S
C5629 H5608 0.950 . S
C5629 C5628 1.373 . S
C5629 C5645 1.377 . S
C5630 C5628 1.389 . S
C5630 C5631 1.524 . S
C5630 C5644 1.377 . S
C5631 C5630 1.524 . S
C5631 C5632 1.397 . S
C5631 C5636 1.363 . S
C5632 H5609 0.950 . S
C5632 C5631 1.397 . S
C5632 C5633 1.334 . S
C5633 H5610 0.950 . S
C5633 C5632 1.334 . S
C5633 C5634 1.287 . S
C5634 C5633 1.287 . S
C5634 C5635 1.524 . S
C5634 H5653 0.913 . S
C5635 H5611 0.950 . S
C5635 C5634 1.524 . S
C5635 C5636 1.415 . S
C5636 H5612 0.950 . S
C5636 C5631 1.363 . S
C5636 C5635 1.415 . S
C5637 H5613 0.951 . S
C5637 C5638 1.366 . S
C5637 C5639 1.388 . S
C5638 C5637 1.366 . S
C5638 C5642 1.385 . S
C5639 H5614 0.951 . S
C5639 C5637 1.388 . S
C5639 C5640 1.366 . S
C5640 C5639 1.366 . S
C5640 C5641 1.414 . S
C5640 C5643 1.499 . S
C5641 H5615 0.950 . S
C5641 C5640 1.414 . S
C5641 C5642 1.374 . S
C5642 H5616 0.950 . S
C5642 C5638 1.385 . S
C5642 C5641 1.374 . S
C5643 C5640 1.499 . S
C5643 C5644 1.373 . S
C5643 C5645 1.389 . S
C5644 H5617 0.950 . S
C5644 C5630 1.377 . S
C5644 C5643 1.373 . S
C5645 C5629 1.377 . S
C5645 C5643 1.389 . S
C5645 C5646 1.524 . S
C5646 C5645 1.524 . S
C5646 C5647 1.397 . S
C5646 C5651 1.363 . S
C5647 H5618 0.950 . S
C5647 C5646 1.397 . S
C5647 C5648 1.334 . S
C5648 H5619 0.950 . S
C5648 C5647 1.334 . S
C5648 C5649 1.287 . S
C5649 C5648 1.287 . S
C5649 C5650 1.524 . S
C5649 H5652 0.999 . S
C5650 H5620 0.950 . S
C5650 C5649 1.524 . S
C5650 C5651 1.415 . S
C5651 H5621 0.950 . S
C5651 C5646 1.363 . S
C5651 C5650 1.415 . S
H5652 C5649 0.999 . S
H5653 C5634 0.913 . S
H5654 C5672 0.951 . S
H5655 C5674 0.951 . S
H5656 C5676 0.950 . S
H5657 C5677 0.950 . S
H5658 C5679 0.950 . S
H5659 C5682 0.950 . S
H5660 C5683 0.950 . S
H5661 C5685 0.950 . S
H5662 C5686 0.950 . S
H5663 C5687 0.951 . S
H5664 C5689 0.951 . S
H5665 C5691 0.950 . S
H5666 C5692 0.950 . S
H5667 C5694 0.950 . S
H5668 C5697 0.950 . S
H5669 C5698 0.950 . S
H5670 C5700 0.950 . S
H5671 C5701 0.950 . S
C5672 H5654 0.951 . S
C5672 C5673 1.366 . S
C5672 C5674 1.388 . S
C5673 C5672 1.366 . S
C5673 C5677 1.385 . S
C5674 H5655 0.951 . S
C5674 C5672 1.388 . S
C5674 C5675 1.366 . S
C5675 C5674 1.366 . S
C5675 C5676 1.414 . S
C5675 C5678 1.499 . S
C5676 H5656 0.950 . S
C5676 C5675 1.414 . S
C5676 C5677 1.374 . S
C5677 H5657 0.950 . S
C5677 C5673 1.385 . S
C5677 C5676 1.374 . S
C5678 C5675 1.499 . S
C5678 C5679 1.373 . S
C5678 C5680 1.389 . S
C5679 H5658 0.950 . S
C5679 C5678 1.373 . S
C5679 C5695 1.377 . S
C5680 C5678 1.389 . S
C5680 C5681 1.524 . S
C5680 C5694 1.377 . S
C5681 C5680 1.524 . S
C5681 C5682 1.397 . S
C5681 C5686 1.363 . S
C5682 H5659 0.950 . S
C5682 C5681 1.397 . S
C5682 C5683 1.334 . S
C5683 H5660 0.950 . S
C5683 C5682 1.334 . S
C5683 C5684 1.287 . S
C5684 C5683 1.287 . S
C5684 C5685 1.524 . S
C5684 H5703 0.913 . S
C5685 H5661 0.950 . S
C5685 C5684 1.524 . S
C5685 C5686 1.415 . S
C5686 H5662 0.950 . S
C5686 C5681 1.363 . S
C5686 C5685 1.415 . S
C5687 H5663 0.951 . S
C5687 C5688 1.366 . S
C5687 C5689 1.388 . S
C5688 C5687 1.366 . S
C5688 C5692 1.385 . S
C5689 H5664 0.951 . S
C5689 C5687 1.388 . S
C5689 C5690 1.366 . S
C5690 C5689 1.366 . S
C5690 C5691 1.414 . S
C5690 C5693 1.499 . S
C5691 H5665 0.950 . S
C5691 C5690 1.414 . S
C5691 C5692 1.374 . S
C5692 H5666 0.950 . S
C5692 C5688 1.385 . S
C5692 C5691 1.374 . S
C5693 C5690 1.499 . S
C5693 C5694 1.373 . S
C5693 C5695 1.389 . S
C5694 H5667 0.950 . S
C5694 C5680 1.377 . S
C5694 C5693 1.373 . S
C5695 C5679 1.377 . S
C5695 C5693 1.389 . S
C5695 C5696 1.524 . S
C5696 C5695 1.524 . S
C5696 C5697 1.397 . S
C5696 C5701 1.363 . S
C5697 H5668 0.950 . S
C5697 C5696 1.397 . S
C5697 C5698 1.334 . S
C5698 H5669 0.950 . S
C5698 C5697 1.334 . S
C5698 C5699 1.287 . S
C5699 C5698 1.287 . S
C5699 C5700 1.524 . S
C5699 H5702 0.999 . S
C5700 H5670 0.950 . S
C5700 C5699 1.524 . S
C5700 C5701 1.415 . S
C5701 H5671 0.950 . S
C5701 C5696 1.363 . S
C5701 C5700 1.415 . S
H5702 C5699 0.999 . S
H5703 C5684 0.913 . S
H5704 C5722 0.951 . S
H5705 C5724 0.951 . S
H5706 C5726 0.950 . S
H5707 C5727 0.950 . S
H5708 C5729 0.950 . S
H5709 C5732 0.950 . S
H5710 C5733 0.950 . S
H5711 C5735 0.950 . S
H5712 C5736 0.950 . S
H5713 C5737 0.951 . S
H5714 C5739 0.951 . S
H5715 C5741 0.950 . S
H5716 C5742 0.950 . S
H5717 C5744 0.950 . S
H5718 C5747 0.950 . S
H5719 C5748 0.950 . S
H5720 C5750 0.950 . S
H5721 C5751 0.950 . S
C5722 H5704 0.951 . S
C5722 C5723 1.366 . S
C5722 C5724 1.388 . S
C5723 C5722 1.366 . S
C5723 C5727 1.385 . S
C5724 H5705 0.951 . S
C5724 C5722 1.388 . S
C5724 C5725 1.366 . S
C5725 C5724 1.366 . S
C5725 C5726 1.414 . S
C5725 C5728 1.499 . S
C5726 H5706 0.950 . S
C5726 C5725 1.414 . S
C5726 C5727 1.374 . S
C5727 H5707 0.950 . S
C5727 C5723 1.385 . S
C5727 C5726 1.374 . S
C5728 C5725 1.499 . S
C5728 C5729 1.373 . S
C5728 C5730 1.389 . S
C5729 H5708 0.950 . S
C5729 C5728 1.373 . S
C5729 C5745 1.377 . S
C5730 C5728 1.389 . S
C5730 C5731 1.524 . S
C5730 C5744 1.377 . S
C5731 C5730 1.524 . S
C5731 C5732 1.397 . S
C5731 C5736 1.363 . S
C5732 H5709 0.950 . S
C5732 C5731 1.397 . S
C5732 C5733 1.334 . S
C5733 H5710 0.950 . S
C5733 C5732 1.334 . S
C5733 C5734 1.287 . S
C5734 C5733 1.287 . S
C5734 C5735 1.524 . S
C5734 H5753 0.913 . S
C5735 H5711 0.950 . S
C5735 C5734 1.524 . S
C5735 C5736 1.415 . S
C5736 H5712 0.950 . S
C5736 C5731 1.363 . S
C5736 C5735 1.415 . S
C5737 H5713 0.951 . S
C5737 C5738 1.366 . S
C5737 C5739 1.388 . S
C5738 C5737 1.366 . S
C5738 C5742 1.385 . S
C5739 H5714 0.951 . S
C5739 C5737 1.388 . S
C5739 C5740 1.366 . S
C5740 C5739 1.366 . S
C5740 C5741 1.414 . S
C5740 C5743 1.499 . S
C5741 H5715 0.950 . S
C5741 C5740 1.414 . S
C5741 C5742 1.374 . S
C5742 H5716 0.950 . S
C5742 C5738 1.385 . S
C5742 C5741 1.374 . S
C5743 C5740 1.499 . S
C5743 C5744 1.373 . S
C5743 C5745 1.389 . S
C5744 H5717 0.950 . S
C5744 C5730 1.377 . S
C5744 C5743 1.373 . S
C5745 C5729 1.377 . S
C5745 C5743 1.389 . S
C5745 C5746 1.524 . S
C5746 C5745 1.524 . S
C5746 C5747 1.397 . S
C5746 C5751 1.363 . S
C5747 H5718 0.950 . S
C5747 C5746 1.397 . S
C5747 C5748 1.334 . S
C5748 H5719 0.950 . S
C5748 C5747 1.334 . S
C5748 C5749 1.287 . S
C5749 C5748 1.287 . S
C5749 C5750 1.524 . S
C5749 H5752 0.999 . S
C5750 H5720 0.950 . S
C5750 C5749 1.524 . S
C5750 C5751 1.415 . S
C5751 H5721 0.950 . S
C5751 C5746 1.363 . S
C5751 C5750 1.415 . S
H5752 C5749 0.999 . S
H5753 C5734 0.913 . S
H5754 C5772 0.951 . S
H5755 C5774 0.951 . S
H5756 C5776 0.950 1_455 S
H5757 C5777 0.950 1_455 S
H5758 C5779 0.950 . S
H5759 C5782 0.950 . S
H5760 C5783 0.950 . S
H5761 C5785 0.950 . S
H5762 C5786 0.950 . S
H5763 C5787 0.951 . S
H5764 C5789 0.951 . S
H5765 C5791 0.950 . S
H5766 C5792 0.950 . S
H5767 C5794 0.950 . S
H5768 C5797 0.950 . S
H5769 C5798 0.950 . S
H5770 C5800 0.950 . S
H5771 C5801 0.950 . S
C5772 H5754 0.951 . S
C5772 C5773 1.366 . S
C5772 C5774 1.388 . S
C5773 C5772 1.366 . S
C5773 C5777 1.385 . S
C5774 H5755 0.951 . S
C5774 C5772 1.388 . S
C5774 C5775 1.366 . S
C5775 C5774 1.366 . S
C5775 C5776 1.414 . S
C5775 C5778 1.499 . S
C5776 H5756 0.950 1_655 S
C5776 C5775 1.414 . S
C5776 C5777 1.374 . S
C5777 H5757 0.950 1_655 S
C5777 C5773 1.385 . S
C5777 C5776 1.374 . S
C5778 C5775 1.499 . S
C5778 C5779 1.373 . S
C5778 C5780 1.389 . S
C5779 H5758 0.950 . S
C5779 C5778 1.373 . S
C5779 C5795 1.377 . S
C5780 C5778 1.389 . S
C5780 C5781 1.524 . S
C5780 C5794 1.377 . S
C5781 C5780 1.524 . S
C5781 C5782 1.397 . S
C5781 C5786 1.363 . S
C5782 H5759 0.950 . S
C5782 C5781 1.397 . S
C5782 C5783 1.334 . S
C5783 H5760 0.950 . S
C5783 C5782 1.334 . S
C5783 C5784 1.287 . S
C5784 C5783 1.287 . S
C5784 C5785 1.524 . S
C5784 H5803 0.913 . S
C5785 H5761 0.950 . S
C5785 C5784 1.524 . S
C5785 C5786 1.415 . S
C5786 H5762 0.950 . S
C5786 C5781 1.363 . S
C5786 C5785 1.415 . S
C5787 H5763 0.951 . S
C5787 C5788 1.366 1_455 S
C5787 C5789 1.388 . S
C5788 C5787 1.366 1_655 S
C5788 C5792 1.385 . S
C5789 H5764 0.951 . S
C5789 C5787 1.388 . S
C5789 C5790 1.366 1_455 S
C5790 C5789 1.366 1_655 S
C5790 C5791 1.414 . S
C5790 C5793 1.499 . S
C5791 H5765 0.950 . S
C5791 C5790 1.414 . S
C5791 C5792 1.374 . S
C5792 H5766 0.950 . S
C5792 C5788 1.385 . S
C5792 C5791 1.374 . S
C5793 C5790 1.499 . S
C5793 C5794 1.373 . S
C5793 C5795 1.389 . S
C5794 H5767 0.950 . S
C5794 C5780 1.377 . S
C5794 C5793 1.373 . S
C5795 C5779 1.377 . S
C5795 C5793 1.389 . S
C5795 C5796 1.524 1_655 S
C5796 C5795 1.524 1_455 S
C5796 C5797 1.397 1_455 S
C5796 C5801 1.363 . S
C5797 H5768 0.950 . S
C5797 C5796 1.397 1_655 S
C5797 C5798 1.334 . S
C5798 H5769 0.950 . S
C5798 C5797 1.334 . S
C5798 C5799 1.287 1_655 S
C5799 C5798 1.287 1_455 S
C5799 C5800 1.524 . S
C5799 H5802 0.999 . S
C5800 H5770 0.950 . S
C5800 C5799 1.524 . S
C5800 C5801 1.415 . S
C5801 H5771 0.950 . S
C5801 C5796 1.363 . S
C5801 C5800 1.415 . S
H5802 C5799 0.999 . S
H5803 C5784 0.913 . S
H5804 C5822 0.951 . S
H5805 C5824 0.951 . S
H5806 C5826 0.950 . S
H5807 C5827 0.950 . S
H5808 C5829 0.950 . S
H5809 C5832 0.950 . S
H5810 C5833 0.950 . S
H5811 C5835 0.950 . S
H5812 C5836 0.950 . S
H5813 C5837 0.951 . S
H5814 C5839 0.951 . S
H5815 C5841 0.950 . S
H5816 C5842 0.950 . S
H5817 C5844 0.950 . S
H5818 C5847 0.950 . S
H5819 C5848 0.950 . S
H5820 C5850 0.950 . S
H5821 C5851 0.950 . S
C5822 H5804 0.951 . S
C5822 C5823 1.366 . S
C5822 C5824 1.388 . S
C5823 C5822 1.366 . S
C5823 C5827 1.385 . S
C5824 H5805 0.951 . S
C5824 C5822 1.388 . S
C5824 C5825 1.366 . S
C5825 C5824 1.366 . S
C5825 C5826 1.414 . S
C5825 C5828 1.499 . S
C5826 H5806 0.950 . S
C5826 C5825 1.414 . S
C5826 C5827 1.374 . S
C5827 H5807 0.950 . S
C5827 C5823 1.385 . S
C5827 C5826 1.374 . S
C5828 C5825 1.499 . S
C5828 C5829 1.373 . S
C5828 C5830 1.389 . S
C5829 H5808 0.950 . S
C5829 C5828 1.373 . S
C5829 C5845 1.377 . S
C5830 C5828 1.389 . S
C5830 C5831 1.524 . S
C5830 C5844 1.377 . S
C5831 C5830 1.524 . S
C5831 C5832 1.397 . S
C5831 C5836 1.363 . S
C5832 H5809 0.950 . S
C5832 C5831 1.397 . S
C5832 C5833 1.334 . S
C5833 H5810 0.950 . S
C5833 C5832 1.334 . S
C5833 C5834 1.287 . S
C5834 C5833 1.287 . S
C5834 C5835 1.524 . S
C5834 H5853 0.913 . S
C5835 H5811 0.950 . S
C5835 C5834 1.524 . S
C5835 C5836 1.415 . S
C5836 H5812 0.950 . S
C5836 C5831 1.363 . S
C5836 C5835 1.415 . S
C5837 H5813 0.951 . S
C5837 C5838 1.366 . S
C5837 C5839 1.388 . S
C5838 C5837 1.366 . S
C5838 C5842 1.385 . S
C5839 H5814 0.951 . S
C5839 C5837 1.388 . S
C5839 C5840 1.366 . S
C5840 C5839 1.366 . S
C5840 C5841 1.414 . S
C5840 C5843 1.499 . S
C5841 H5815 0.950 . S
C5841 C5840 1.414 . S
C5841 C5842 1.374 . S
C5842 H5816 0.950 . S
C5842 C5838 1.385 . S
C5842 C5841 1.374 . S
C5843 C5840 1.499 . S
C5843 C5844 1.373 . S
C5843 C5845 1.389 . S
C5844 H5817 0.950 . S
C5844 C5830 1.377 . S
C5844 C5843 1.373 . S
C5845 C5829 1.377 . S
C5845 C5843 1.389 . S
C5845 C5846 1.524 . S
C5846 C5845 1.524 . S
C5846 C5847 1.397 . S
C5846 C5851 1.363 . S
C5847 H5818 0.950 . S
C5847 C5846 1.397 . S
C5847 C5848 1.334 . S
C5848 H5819 0.950 . S
C5848 C5847 1.334 . S
C5848 C5849 1.287 . S
C5849 C5848 1.287 . S
C5849 C5850 1.524 . S
C5849 H5852 0.999 . S
C5850 H5820 0.950 . S
C5850 C5849 1.524 . S
C5850 C5851 1.415 . S
C5851 H5821 0.950 . S
C5851 C5846 1.363 . S
C5851 C5850 1.415 . S
H5852 C5849 0.999 . S
H5853 C5834 0.913 . S
H5854 C5872 0.951 . S
H5855 C5874 0.951 . S
H5856 C5876 0.950 1_565 S
H5857 C5877 0.938 1_565 S
H5858 C5879 0.950 . S
H5859 C5882 0.950 . S
H5860 C5883 0.950 . S
H5861 C5885 0.950 . S
H5862 C5886 0.950 . S
H5863 C5887 0.951 . S
H5864 C5889 0.951 . S
H5865 C5891 0.950 . S
H5866 C5892 0.950 . S
H5867 C5894 0.950 . S
H5868 C5897 0.950 . S
H5869 C5898 0.950 . S
H5870 C5900 0.950 . S
H5871 C5901 0.950 . S
C5872 H5854 0.951 . S
C5872 C5873 1.366 . S
C5872 C5874 1.388 . S
C5873 C5872 1.366 . S
C5873 C5877 1.385 . S
C5874 H5855 0.951 . S
C5874 C5872 1.388 . S
C5874 C5875 1.366 . S
C5875 C5874 1.366 . S
C5875 C5876 1.414 . S
C5875 C5878 1.499 . S
C5876 H5856 0.950 1_545 S
C5876 C5875 1.414 . S
C5876 C5877 1.374 . S
C5877 H5857 0.938 1_545 S
C5877 C5873 1.385 . S
C5877 C5876 1.374 . S
C5878 C5875 1.499 . S
C5878 C5879 1.373 1_545 S
C5878 C5880 1.389 . S
C5879 H5858 0.950 . S
C5879 C5878 1.373 1_565 S
C5879 C5895 1.377 . S
C5880 C5878 1.389 . S
C5880 C5881 1.524 . S
C5880 C5894 1.377 . S
C5881 C5880 1.524 . S
C5881 C5882 1.397 . S
C5881 C5886 1.363 . S
C5882 H5859 0.950 . S
C5882 C5881 1.397 . S
C5882 C5883 1.334 . S
C5883 H5860 0.950 . S
C5883 C5882 1.334 . S
C5883 C5884 1.287 . S
C5884 C5883 1.287 . S
C5884 C5885 1.524 . S
C5884 H5903 0.913 . S
C5885 H5861 0.950 . S
C5885 C5884 1.524 . S
C5885 C5886 1.415 . S
C5886 H5862 0.950 . S
C5886 C5881 1.363 . S
C5886 C5885 1.415 . S
C5887 H5863 0.951 . S
C5887 C5888 1.364 . S
C5887 C5889 1.388 . S
C5888 C5887 1.364 . S
C5888 C5892 1.386 1_565 S
C5889 H5864 0.951 . S
C5889 C5887 1.388 . S
C5889 C5890 1.366 1_565 S
C5890 C5889 1.366 1_545 S
C5890 C5891 1.414 . S
C5890 C5893 1.499 . S
C5891 H5865 0.950 . S
C5891 C5890 1.414 . S
C5891 C5892 1.374 . S
C5892 H5866 0.950 . S
C5892 C5888 1.386 1_545 S
C5892 C5891 1.374 . S
C5893 C5890 1.499 . S
C5893 C5894 1.373 . S
C5893 C5895 1.389 1_545 S
C5894 H5867 0.950 . S
C5894 C5880 1.377 . S
C5894 C5893 1.373 . S
C5895 C5879 1.377 . S
C5895 C5893 1.389 1_565 S
C5895 C5896 1.524 . S
C5896 C5895 1.524 . S
C5896 C5897 1.397 . S
C5896 C5901 1.363 . S
C5897 H5868 0.950 . S
C5897 C5896 1.397 . S
C5897 C5898 1.334 . S
C5898 H5869 0.950 . S
C5898 C5897 1.334 . S
C5898 C5899 1.287 . S
C5899 C5898 1.287 . S
C5899 C5900 1.524 . S
C5899 H5902 0.999 . S
C5900 H5870 0.950 . S
C5900 C5899 1.524 . S
C5900 C5901 1.415 . S
C5901 H5871 0.950 . S
C5901 C5896 1.363 . S
C5901 C5900 1.415 . S
H5902 C5899 0.999 . S
H5903 C5884 0.913 . S
C2323 C13 1.227 . S
C2338 C1307 1.044 1_655 S
C2373 C27 1.361 . S
C2388 C1447 0.961 . S
C2438 C1535 1.057 . S
C2423 C36 1.167 . S
C2473 C41 1.341 . S
C2488 C1675 1.036 1_565 S
C2523 C8 1.323 . S
C2538 C1789 1.068 . S
C2573 C22 1.495 1_556 S
C2588 C1877 1.184 . S
C2623 C55 1.223 . S
C2638 C1763 1.026 . S
C2688 C1903 1.108 . S
C2673 C69 1.296 . S
C2738 C1649 1.077 . S
C2723 C78 1.196 1_556 S
C2773 C83 1.337 . S
C2788 C1561 1.024 . S
C2838 C1333 1.082 . S
C2823 C50 1.345 . S
C2873 C64 1.412 . S
C2888 C1421 1.296 . S
C2923 C97 1.626 . S
C2938 C1991 1.290 . S
C2973 C111 1.456 . S
C2988 C2131 1.028 . S
C3038 C2219 1.232 . S
C3023 C120 1.577 . S
C3073 C125 1.586 . S
C3088 C307 1.098 . S
C3123 C92 1.844 . S
C3138 C421 1.260 . S
C3173 C106 1.598 . S
C3188 C509 1.249 . S
C3223 C139 1.398 . S
C3238 C395 1.320 . S
C3273 C153 1.380 . S
C3288 C535 1.207 . S
C3338 C281 1.418 . S
C3323 C162 1.531 . S
C3388 C2245 1.472 . S
C3373 C167 1.663 . S
C3438 C2017 1.478 . S
C3423 C134 1.702 . S
C3488 C2105 1.426 . S
C3473 C148 1.544 . S
C3523 C181 1.489 . S
C3538 C623 1.167 . S
C3573 C195 1.441 . S
C3588 C763 1.000 . S
C3623 C204 1.615 . S
C3638 C851 1.270 . S
C3673 C209 1.727 . S
C3688 C991 1.221 . S
C3738 C1105 1.237 . S
C3723 C176 1.822 . S
C3788 C1193 1.280 . S
C3773 C190 1.636 . S
C3838 C1079 1.478 . S
C3823 C223 1.559 . S
C3888 C1219 1.240 . S
C3873 C237 1.400 . S
C3923 C246 1.472 . S
C3938 C965 1.357 . S
C3988 C877 1.320 . S
C3973 C251 1.500 . S
C4023 C218 1.749 . S
C4038 C649 1.525 . S
C4088 C737 1.406 . S
C4073 C232 1.516 . S
C4138 C263 0.941 . S
C4123 C11 1.666 . S
C4173 C25 1.391 . S
C4188 C377 0.767 . S
C4238 C481 1.140 . S
C4223 C35 1.591 . S
C4288 C595 1.108 . S
C4273 C39 1.524 . S
C4338 C719 0.990 . S
C4323 C7 1.749 . S
C4388 C823 1.080 . S
C4373 C21 1.523 1_556 S
C4423 C53 1.767 1_556 S
C4438 C833 1.351 . S
C4473 C67 1.472 . S
C4488 C605 1.122 . S
C4523 C77 1.661 1_556 S
C4538 C709 1.417 . S
C4573 C81 1.618 . S
C4588 C367 1.465 . S
C4638 C491 1.382 . S
C4623 C49 1.842 . S
C4673 C63 1.618 . S
C4688 C253 1.382 . S
C4738 C947 0.907 . S
C4723 C95 1.580 . S
C4773 C109 1.552 . S
C4788 C1061 0.867 . S
C4823 C119 1.635 1_655 S
C4838 C1165 1.209 . S
C4888 C1279 0.872 . S
C4873 C123 1.019 . S
C4923 C91 1.605 . S
C4938 C1403 0.914 . S
C4973 C105 1.112 . S
C4988 C1507 0.916 . S
C5023 C137 1.295 . S
C5038 C1517 0.850 1_565 S
C5073 C151 1.004 . S
C5088 C1289 0.759 1_455 S
C5138 C1393 1.302 . S
C5123 C161 1.544 . S
C5173 C165 1.539 . S
C5188 C1051 1.384 . S
C5223 C133 1.855 . S
C5238 C1175 1.398 . S
C5288 C937 1.526 . S
C5273 C147 1.778 . S
C5338 C1631 0.834 . S
C5323 C179 1.306 . S
C5373 C193 0.979 . S
C5388 C1745 0.744 . S
C5423 C203 1.446 . S
C5438 C1849 1.055 . S
C5488 C1963 1.061 . S
C5473 C207 1.409 . S
C5538 C2087 1.052 . S
C5523 C175 1.755 1_565 S
C5573 C189 1.685 . S
C5588 C2191 1.223 . S
C5623 C221 1.683 . S
C5638 C2201 1.270 . S
C5673 C235 1.640 . S
C5688 C1973 1.240 . S
C5738 C2077 1.461 . S
C5723 C245 1.701 . S
C5788 C1735 0.799 1_655 S
C5773 C249 1.007 . S
C5838 C1859 1.245 . S
C5823 C217 1.702 . S
C5873 C231 1.158 . S
C5888 C1621 0.959 . S
