# Generated by pormake.
# Topology tsx, (6,3)-cn, num edge types: 1
# Building blocks:
#     Node 0, Type 0, BuildingBlock: JUFBIX_clean_sbu_0, # of connection points: 6
#     Node 1, Type 0, BuildingBlock: JUFBIX_clean_sbu_0, # of connection points: 6
#     Node 2, Type 1, BuildingBlock: ESEHIV_clean_linker_0, # of connection points: 3
#     Node 3, Type 1, BuildingBlock: ESEHIV_clean_linker_0, # of connection points: 3
#     Node 4, Type 1, BuildingBlock: ESEHIV_clean_linker_0, # of connection points: 3
#     Node 5, Type 1, BuildingBlock: ESEHIV_clean_linker_0, # of connection points: 3
#     Edge 6, Type (0, 1), BuildingBlock: XUDNAN_clean_linker_2, # of connection points: 2
#     Edge 7, Type (0, 1), BuildingBlock: XUDNAN_clean_linker_2, # of connection points: 2
#     Edge 8, Type (0, 1), BuildingBlock: XUDNAN_clean_linker_2, # of connection points: 2
#     Edge 9, Type (0, 1), BuildingBlock: XUDNAN_clean_linker_2, # of connection points: 2
#     Edge 10, Type (0, 1), BuildingBlock: XUDNAN_clean_linker_2, # of connection points: 2
#     Edge 11, Type (0, 1), BuildingBlock: XUDNAN_clean_linker_2, # of connection points: 2
#     Edge 12, Type (0, 1), BuildingBlock: XUDNAN_clean_linker_2, # of connection points: 2
#     Edge 13, Type (0, 1), BuildingBlock: XUDNAN_clean_linker_2, # of connection points: 2
#     Edge 14, Type (0, 1), BuildingBlock: XUDNAN_clean_linker_2, # of connection points: 2
#     Edge 15, Type (0, 1), BuildingBlock: XUDNAN_clean_linker_2, # of connection points: 2
#     Edge 16, Type (0, 1), BuildingBlock: XUDNAN_clean_linker_2, # of connection points: 2
#     Edge 17, Type (0, 1), BuildingBlock: XUDNAN_clean_linker_2, # of connection points: 2
# Relax obj value: 0.160
# Max RMSD: 0.169
# Mean RMSD: 0.137
data_MOF--net-tsx--node1-JUFBIX_clean_sbu_0--node2-ESEHIV_clean_linker_0--edge1-XUDNAN_clean_linker_2
_symmetry_space_group_name_H-M    P1
_symmetry_Int_Tables_number       1
_symmetry_cell_setting            triclinic
loop_
_symmetry_equiv_pos_as_xyz
'x, y, z'
_cell_length_a     18.552796
_cell_length_b     21.845816
_cell_length_c     33.903772
_cell_angle_alpha  92.377198
_cell_angle_beta   89.725044
_cell_angle_gamma 99.868493
loop_
_atom_site_label
_atom_site_type_symbol
_atom_site_fract_x
_atom_site_fract_y
_atom_site_fract_z
_atom_type_partial_charge
Co0 Co 0.02534 0.99424 0.00037 0.0
C1 C 0.95115 0.02607 0.9342 0.0
Co2 Co 0.93556 0.04652 0.01377 0.0
C3 C 0.1228 0.90247 0.00018 0.0
C4 C 0.14505 0.96738 0.95413 0.0
N5 N 0.10135 0.95318 0.98557 0.0
N6 N 0.17724 0.88433 0.97852 0.0
C7 C 0.19127 0.9249 0.94957 0.0
H8 H 0.09738 0.87811 0.02518 0.0
H9 H 0.14233 1.00551 0.93513 0.0
C10 C 1.01084 0.01659 0.07971 0.0
N11 N 0.85968 0.08788 0.02798 0.0
C12 C 0.84058 0.13858 0.01223 0.0
C13 C 0.81351 0.07493 0.05855 0.0
N14 N 0.78495 0.1581 0.03212 0.0
C15 C 0.76782 0.11826 0.06131 0.0
C16 C 0.89351 0.91684 0.01081 0.0
O17 O 0.0491 0.99087 0.05494 0.0
O18 O 0.95919 0.04239 0.06767 0.0
O19 O 0.8702 0.96816 0.01578 0.0
O20 O 0.96087 0.91774 0.00332 0.0
O21 O 0.91348 0.05156 0.95934 0.0
H22 H 0.81394 0.03699 0.07802 0.0
H23 H 0.86846 0.16191 0.98747 0.0
O24 O 1.00077 0.99787 0.94622 0.0
O25 O 0.08977 0.07162 -0.00241 0.0
O26 O 1.00144 0.12377 0.01226 0.0
C27 C 0.06835 0.12327 0.00422 0.0
H28 H 0.23181 0.92349 0.92661 0.0
H29 H 0.72541 0.12045 0.08311 0.0
Co30 Co 0.60107 0.48928 0.51556 0.0
C31 C 0.55327 0.50556 0.4396 0.0
Co32 Co 0.52779 0.55984 0.51169 0.0
C33 C 0.65649 0.37131 0.50278 0.0
C34 C 0.72354 0.43791 0.54086 0.0
N35 N 0.66222 0.42984 0.51877 0.0
N36 N 0.71194 0.34254 0.51417 0.0
C37 C 0.75385 0.38486 0.53824 0.0
H38 H 0.61235 0.35054 0.4832 0.0
H39 H 0.74446 0.47966 0.55836 0.0
C40 C 0.57625 0.54466 0.58757 0.0
N41 N 0.46907 0.62167 0.51075 0.0
C42 C 0.40378 0.62428 0.49363 0.0
C43 C 0.48682 0.67672 0.53087 0.0
N44 N 0.3806 0.67904 0.50236 0.0
C45 C 0.43314 0.71163 0.52591 0.0
C46 C 0.45323 0.44117 0.52284 0.0
O47 O 0.60931 0.50441 0.57095 0.0
O48 O 0.53655 0.57314 0.56713 0.0
O49 O 0.4445 0.49694 0.51798 0.0
O50 O 0.51734 0.42778 0.52328 0.0
O51 O 0.52071 0.54618 0.45657 0.0
H52 H 0.53558 0.69044 0.54868 0.0
H53 H 0.37415 0.58681 0.47516 0.0
O54 O 0.59134 0.47494 0.45994 0.0
O55 O 0.68463 0.55252 0.50803 0.0
O56 O 0.6117 0.62119 0.5052 0.0
C57 C 0.676 0.60859 0.50471 0.0
H58 H 0.80251 0.3781 0.5537 0.0
H59 H 0.43249 0.75714 0.5396 0.0
H60 H 0.90826 0.03089 0.37173 0.0
H61 H 0.05376 0.89734 0.36461 0.0
H62 H 0.94379 0.92945 0.47376 0.0
C63 C 0.93426 0.99621 0.38537 0.0
C64 C 0.91924 0.98307 0.42497 0.0
C65 C 0.98332 0.96622 0.36344 0.0
C66 C 0.01541 0.92059 0.38119 0.0
C67 C 1.00108 0.90678 0.42087 0.0
C68 C 0.95372 0.93885 0.44299 0.0
H69 H 0.95131 0.95114 0.63881 0.0
H70 H 0.08546 0.13226 0.64757 0.0
H71 H 0.06881 0.02578 0.53699 0.0
C72 C 0.98848 0.98829 0.62539 0.0
C73 C 1.00713 0.98232 0.58545 0.0
C74 C 0.01651 0.04224 0.64792 0.0
C75 C 0.064 0.09029 0.63025 0.0
C76 C 0.08356 0.0846 0.59031 0.0
C77 C 0.05467 0.03042 0.56792 0.0
H78 H 0.49856 0.63108 0.87601 0.0
H79 H 0.64174 0.49703 0.88181 0.0
H80 H 0.49395 0.52063 0.9775 0.0
C81 C 0.51928 0.59569 0.89188 0.0
C82 C 0.49234 0.58127 0.92965 0.0
C83 C 0.57159 0.56428 0.87405 0.0
C84 C 0.59903 0.51915 0.89503 0.0
C85 C 0.57242 0.50332 0.93289 0.0
C86 C 0.51797 0.53416 0.94951 0.0
H87 H 0.39736 0.43382 0.14372 0.0
H88 H 0.57589 0.58733 0.15424 0.0
H89 H 0.47373 0.536 0.0416 0.0
C90 C 0.43255 0.47228 0.13041 0.0
C91 C 0.42734 0.48125 0.08982 0.0
C92 C 0.48534 0.51083 0.15372 0.0
C93 C 0.53316 0.55905 0.13652 0.0
C94 C 0.52938 0.5681 0.09601 0.0
C95 C 0.47602 0.52957 0.07287 0.0
H96 H 0.07088 0.22607 0.05327 0.0
H97 H 0.18936 0.14941 0.95815 0.0
H98 H 0.28732 0.24165 0.9639 0.0
H99 H 0.12807 0.39407 0.03284 0.0
H100 H 0.13735 0.41606 0.08464 0.0
H101 H 0.07069 0.34987 0.0684 0.0
H102 H 0.1274 0.28041 0.11547 0.0
H103 H 0.19415 0.34619 0.13174 0.0
H104 H 0.22357 0.27678 0.11181 0.0
H105 H 0.37736 0.33687 0.98396 0.0
H106 H 0.45678 0.42291 0.02018 0.0
H107 H 0.28301 0.43535 0.10455 0.0
C108 C 0.11637 0.22985 0.03286 0.0
C109 C 0.12219 0.18143 0.00476 0.0
C110 C 0.18377 0.1865 0.97957 0.0
C111 C 0.23942 0.23878 0.98252 0.0
C112 C 0.23298 0.28525 0.01111 0.0
C113 C 0.17319 0.28113 0.03601 0.0
C114 C 0.18383 0.33338 0.06739 0.0
C115 C 0.12658 0.37586 0.06304 0.0
C116 C 0.18216 0.30763 0.10905 0.0
C117 C 0.25963 0.3665 0.05689 0.0
C118 C 0.28635 0.33886 0.0238 0.0
C119 C 0.35661 0.3594 0.00958 0.0
C120 C 0.40128 0.40856 0.03022 0.0
C121 C 0.37597 0.43606 0.065 0.0
C122 C 0.30369 0.41533 0.07795 0.0
H123 H 0.19293 0.79782 0.92226 0.0
H124 H 0.24189 0.8534 0.0444 0.0
H125 H 0.3196 0.77166 0.04833 0.0
H126 H 0.19009 0.62717 0.93349 0.0
H127 H 0.23016 0.61932 0.88541 0.0
H128 H 0.17155 0.67617 0.8946 0.0
H129 H 0.2745 0.76258 0.87105 0.0
H130 H 0.33354 0.70632 0.86218 0.0
H131 H 0.36307 0.77346 0.8945 0.0
H132 H 0.40798 0.69608 0.03438 0.0
H133 H 0.49067 0.62853 0.00567 0.0
H134 H 0.37407 0.61645 0.89447 0.0
C135 C 0.21855 0.79136 0.95006 0.0
C136 C 0.21178 0.83117 0.9831 0.0
C137 C 0.24615 0.82244 0.01905 0.0
C138 C 0.29032 0.7764 0.0214 0.0
C139 C 0.29768 0.73883 0.98777 0.0
C140 C 0.26131 0.74506 0.95302 0.0
C141 C 0.2811 0.70174 0.92037 0.0
C142 C 0.21424 0.65321 0.90774 0.0
C143 C 0.31508 0.73822 0.88497 0.0
C144 C 0.33697 0.67211 0.94149 0.0
C145 C 0.34573 0.69367 0.9804 0.0
C146 C 0.39981 0.6774 0.00436 0.0
C147 C 0.44623 0.63864 0.98796 0.0
C148 C 0.43809 0.61632 0.94813 0.0
C149 C 0.38162 0.63249 0.92506 0.0
H150 H 0.74648 0.89598 0.02987 0.0
H151 H 0.9301 0.8011 0.00465 0.0
H152 H 0.85344 0.70124 0.01932 0.0
H153 H 0.67863 0.8101 0.11059 0.0
H154 H 0.58306 0.80634 0.09937 0.0
H155 H 0.64932 0.87024 0.08296 0.0
H156 H 0.60508 0.84548 0.01061 0.0
H157 H 0.53802 0.78206 0.02716 0.0
H158 H 0.60246 0.76809 0.98933 0.0
H159 H 0.76297 0.61388 0.04342 0.0
H160 H 0.66028 0.54274 0.0725 0.0
H161 H 0.53224 0.69094 0.08011 0.0
C162 C 0.77012 0.85403 0.02671 0.0
C163 C 0.84445 0.85655 0.01603 0.0
C164 C 0.87341 0.80059 0.01266 0.0
C165 C 0.83025 0.74348 0.02089 0.0
C166 C 0.75784 0.74274 0.03207 0.0
C167 C 0.72748 0.79628 0.03457 0.0
C168 C 0.64896 0.78252 0.04905 0.0
C169 C 0.63948 0.8195 0.08779 0.0
C170 C 0.59548 0.79531 0.01713 0.0
C171 C 0.64107 0.71341 0.05562 0.0
C172 C 0.70448 0.69146 0.04526 0.0
C173 C 0.71247 0.63014 0.05078 0.0
C174 C 0.65405 0.59011 0.0672 0.0
C175 C 0.58829 0.61122 0.07732 0.0
C176 C 0.58166 0.67365 0.07165 0.0
H177 H 0.75412 0.20023 0.96109 0.0
H178 H 0.74277 0.23722 0.08732 0.0
H179 H 0.68697 0.32995 0.07572 0.0
H180 H 0.79632 0.35915 0.93245 0.0
H181 H 0.73958 0.34652 0.88887 0.0
H182 H 0.77997 0.28384 0.90711 0.0
H183 H 0.65158 0.21532 0.91073 0.0
H184 H 0.61087 0.27776 0.89242 0.0
H185 H 0.58015 0.24389 0.93844 0.0
H186 H 0.63646 0.42009 0.0503 0.0
H187 H 0.58879 0.49873 0.01311 0.0
H188 H 0.62318 0.39821 0.90333 0.0
C189 C 0.74022 0.22823 0.98616 0.0
C190 C 0.75283 0.21201 0.02509 0.0
C191 C 0.733 0.2489 0.05732 0.0
C192 C 0.70164 0.30165 0.051 0.0
C193 C 0.68964 0.31631 0.01225 0.0
C194 C 0.70764 0.28042 0.98037 0.0
C195 C 0.68682 0.3054 0.94177 0.0
C196 C 0.75473 0.32489 0.91604 0.0
C197 C 0.6289 0.25775 0.91954 0.0
C198 C 0.65515 0.36134 0.95697 0.0
C199 C 0.65775 0.36696 -0.00234 0.0
C200 C 0.63353 0.41582 0.01841 0.0
C201 C 0.60603 0.4602 -0.00305 0.0
C202 C 0.60164 0.45523 0.95516 0.0
C203 C 0.62642 0.40454 0.93513 0.0
H204 H 0.67297 0.73262 0.51208 0.0
H205 H 0.82237 0.60057 0.49898 0.0
H206 H 0.92722 0.68678 0.5085 0.0
H207 H 0.79362 0.86844 0.46757 0.0
H208 H 0.76289 0.92182 0.50321 0.0
H209 H 0.70182 0.85226 0.48675 0.0
H210 H 0.68129 0.82152 0.55961 0.0
H211 H 0.7428 0.89041 0.57604 0.0
H212 H 0.75917 0.81515 0.58982 0.0
H213 H 0.01431 0.78567 0.52863 0.0
H214 H 0.07437 0.88707 0.55868 0.0
H215 H 0.86606 0.95087 0.56212 0.0
C216 C 0.72773 0.72186 0.50995 0.0
C217 C 0.7395 0.65989 0.50447 0.0
C218 C 0.81208 0.64777 0.50287 0.0
C219 C 0.87194 0.69647 0.50812 0.0
C220 C 0.85814 0.75685 0.51492 0.0
C221 C 0.78764 0.76959 0.51559 0.0
C222 C 0.78628 0.8366 0.52824 0.0
C223 C 0.75958 0.87184 0.49441 0.0
C224 C 0.73967 0.84112 0.56564 0.0
C225 C 0.86655 0.85895 0.5365 0.0
C226 C 0.90764 0.81299 0.52763 0.0
C227 C 0.98281 0.82226 0.5349 0.0
C228 C 0.01648 0.87971 0.55193 0.0
C229 C 0.97448 0.92612 0.56224 0.0
C230 C 0.89904 0.91592 0.55399 0.0
H231 H 0.83792 0.29529 0.52463 0.0
H232 H 0.61637 0.24667 0.47861 0.0
H233 H 0.64079 0.14234 0.45873 0.0
H234 H 0.92336 0.22323 0.45116 0.0
H235 H 0.98852 0.19542 0.48188 0.0
H236 H 0.95258 0.26389 0.49724 0.0
H237 H 0.90847 0.21584 0.56271 0.0
H238 H 0.94193 0.14503 0.54949 0.0
H239 H 0.84751 0.1421 0.56259 0.0
H240 H 0.69373 0.04651 0.43802 0.0
H241 H 0.7721 0.97061 0.41602 0.0
H242 H 0.95624 0.07972 0.4786 0.0
C243 C 0.79347 0.2628 0.51125 0.0
C244 C 0.72481 0.28021 0.50347 0.0
C245 C 0.66961 0.23551 0.4848 0.0
C246 C 0.68276 0.1756 0.4737 0.0
C247 C 0.75107 0.16042 0.48186 0.0
C248 C 0.80536 0.20279 0.50037 0.0
C249 C 0.87562 0.17663 0.50366 0.0
C250 C 0.93871 0.21718 0.48224 0.0
C251 C 0.89455 0.16954 0.54717 0.0
C252 C 0.85353 0.11369 0.48262 0.0
C253 C 0.78103 0.10478 0.47079 0.0
C254 C 0.74997 0.05246 0.44789 0.0
C255 C 0.79465 0.00944 0.4357 0.0
C256 C 0.86937 0.01867 0.44661 0.0
C257 C 0.89858 0.0706 0.47118 0.0
H258 H 0.43602 0.34909 0.57545 0.0
H259 H 0.32763 0.42237 0.47953 0.0
H260 H 0.22329 0.3352 0.48387 0.0
H261 H 0.37761 0.18644 0.55245 0.0
H262 H 0.36296 0.16606 0.60319 0.0
H263 H 0.43042 0.23222 0.59116 0.0
H264 H 0.36755 0.30313 0.6384 0.0
H265 H 0.30028 0.23713 0.65081 0.0
H266 H 0.27154 0.30525 0.63224 0.0
H267 H 0.13509 0.23585 0.49621 0.0
H268 H 0.05947 0.1422 0.52304 0.0
H269 H 0.21862 0.14212 0.61603 0.0
C270 C 0.39022 0.34653 0.55539 0.0
C271 C 0.38957 0.39164 0.52692 0.0
C272 C 0.3286 0.38792 0.50152 0.0
C273 C 0.26957 0.33851 0.50363 0.0
C274 C 0.272 0.29429 0.53189 0.0
C275 C 0.32999 0.29869 0.55792 0.0
C276 C 0.31705 0.24762 0.58727 0.0
C277 C 0.37549 0.20561 0.58326 0.0
C278 C 0.3139 0.27493 0.62969 0.0
C279 C 0.2429 0.21353 0.57357 0.0
C280 C 0.21855 0.24033 0.54105 0.0
C281 C 0.15297 0.2152 0.52211 0.0
C282 C 0.11038 0.16222 0.53747 0.0
C283 C 0.13246 0.13631 0.57202 0.0
C284 C 0.19999 0.16189 0.58995 0.0
H285 H 0.35576 0.79854 0.50162 0.0
H286 H 0.25332 0.60731 0.47525 0.0
H287 H 0.13963 0.64396 0.45643 0.0
H288 H 0.1957 0.84946 0.54434 0.0
H289 H 0.21611 0.92552 0.52413 0.0
H290 H 0.28934 0.88481 0.53606 0.0
H291 H 0.33887 0.89373 0.46472 0.0
H292 H 0.26746 0.93599 0.4525 0.0
H293 H 0.27824 0.86675 0.42388 0.0
H294 H 0.03768 0.70365 0.43803 0.0
H295 H 0.96131 0.78057 0.41882 0.0
H296 H 0.13042 0.93076 0.46031 0.0
C297 C 0.30943 0.76382 0.49258 0.0
C298 C 0.31401 0.69966 0.49034 0.0
C299 C 0.25188 0.65663 0.47709 0.0
C300 C 0.18671 0.67704 0.46665 0.0
C301 C 0.1842 0.74062 0.46981 0.0
C302 C 0.2442 0.78324 0.48244 0.0
C303 C 0.22897 0.84918 0.48218 0.0
C304 C 0.23275 0.879 0.52417 0.0
C305 C 0.28148 0.88871 0.45414 0.0
C306 C 0.15139 0.83743 0.46658 0.0
C307 C 0.12602 0.77449 0.45989 0.0
C308 C 0.05692 0.75286 0.44356 0.0
C309 C 0.01378 0.79668 0.43292 0.0
C310 C 0.03982 0.86114 0.43886 0.0
C311 C 0.10885 0.88157 0.45644 0.0
H312 H 0.01433 0.92078 0.12906 0.0
H313 H 0.03896 0.12131 0.12553 0.0
H314 H 0.04897 0.13015 0.19822 0.0
H315 H 0.8975 0.90739 0.20949 0.0
H316 H 0.93217 0.84477 0.23179 0.0
H317 H 0.94036 0.8539 0.17939 0.0
H318 H 0.08057 0.85878 0.18403 0.0
H319 H 0.07277 0.84915 0.23653 0.0
H320 H 0.13347 0.91484 0.21772 0.0
H321 H 0.04262 0.11753 0.27017 0.0
H322 H 0.01842 0.08429 0.33822 0.0
H323 H 0.99216 0.89109 0.29676 0.0
C324 C 0.02444 0.96643 0.14375 0.0
C325 C 0.02748 0.02057 0.12208 0.0
C326 C 0.0376 0.07958 0.14193 0.0
C327 C 0.04346 0.08499 0.18309 0.0
C328 C 0.03833 0.0308 0.20391 0.0
C329 C 0.02912 0.97256 0.18508 0.0
C330 C 0.01709 0.92175 0.21482 0.0
C331 C 0.94234 0.87949 0.20848 0.0
C332 C 0.07972 0.8839 0.21317 0.0
C333 C 0.01893 0.96056 0.25309 0.0
C334 C 0.03237 0.02333 0.24601 0.0
C335 C 0.03277 0.06854 0.27619 0.0
C336 C 0.01835 0.0492 0.31469 0.0
C337 C 1.00308 0.98516 0.32272 0.0
C338 C 1.00456 0.94034 0.29152 0.0
H339 H 0.99747 0.95579 0.87388 0.0
H340 H 0.88777 0.11348 0.89793 0.0
H341 H 0.88869 0.13322 0.82654 0.0
H342 H 0.11541 0.02135 0.80058 0.0
H343 H 0.10979 0.95102 0.77017 0.0
H344 H 0.09562 0.94661 0.8226 0.0
H345 H 0.96893 0.87733 0.81074 0.0
H346 H 0.98298 0.88096 0.7582 0.0
H347 H 0.90257 0.90415 0.78007 0.0
H348 H 0.91435 0.14222 0.75329 0.0
H349 H 0.95042 0.1327 0.68303 0.0
H350 H 0.03676 0.96585 0.70696 0.0
C351 C 0.9725 0.99386 0.86407 0.0
C352 C 0.94252 0.03314 0.89139 0.0
C353 C 0.91051 0.08253 0.87744 0.0
C354 C 0.9111 0.09425 0.83699 0.0
C355 C 0.9428 0.0555 0.81094 0.0
C356 C 0.97166 1.00559 0.82388 0.0
C357 C 1.00359 0.97151 0.79009 0.0
C358 C 0.08598 0.97273 0.79624 0.0
C359 C 0.96201 0.90452 0.78444 0.0
C360 C 0.98971 0.0108 0.75614 0.0
C361 C 0.95496 0.05927 0.76874 0.0
C362 C 0.94045 0.10388 0.743 0.0
C363 C 0.96141 0.09838 0.70333 0.0
C364 C 0.99563 0.04833 0.68984 0.0
C365 C 1.00966 1.00401 0.71658 0.0
H366 H 0.59066 0.46653 0.64674 0.0
H367 H 0.5841 0.65908 0.62317 0.0
H368 H 0.60091 0.68734 0.69428 0.0
H369 H 0.48258 0.46413 0.73202 0.0
H370 H 0.52995 0.41253 0.75801 0.0
H371 H 0.52838 0.40929 0.70493 0.0
H372 H 0.6702 0.42691 0.70404 0.0
H373 H 0.67209 0.43086 0.75725 0.0
H374 H 0.72124 0.49401 0.73008 0.0
H375 H 0.61222 0.69391 0.76746 0.0
H376 H 0.60035 0.67671 0.83877 0.0
H377 H 0.58929 0.47842 0.81522 0.0
C378 C 0.59408 0.51473 0.65665 0.0
C379 C 0.58684 0.56087 0.62981 0.0
C380 C 0.58957 0.62323 0.64356 0.0
C381 C 0.59981 0.63975 0.68373 0.0
C382 C 0.60636 0.59316 0.70963 0.0
C383 C 0.60257 0.53177 0.69678 0.0
C384 C 0.60226 0.48971 0.73118 0.0
C385 C 0.53159 0.44108 0.73155 0.0
C386 C 0.67053 0.45854 0.73059 0.0
C387 C 0.60482 0.5369 0.76536 0.0
C388 C 0.60904 0.59645 0.75223 0.0
C389 C 0.609 0.64753 0.77815 0.0
C390 C 0.60182 0.63724 0.81856 0.0
C391 C 0.59325 0.57616 0.83254 0.0
C392 C 0.59694 0.52572 0.80556 0.0
H393 H 0.50947 0.58134 0.38582 0.0
H394 H 0.58215 0.40407 0.39625 0.0
H395 H 0.56875 0.38458 0.32406 0.0
H396 H 0.37624 0.53326 0.30882 0.0
H397 H 0.39696 0.60561 0.28406 0.0
H398 H 0.40983 0.60447 0.33664 0.0
H399 H 0.54521 0.65695 0.32908 0.0
H400 H 0.53276 0.65838 0.27651 0.0
H401 H 0.60412 0.62166 0.29601 0.0
H402 H 0.5448 0.3837 0.25107 0.0
H403 H 0.52176 0.40545 0.18152 0.0
H404 H 0.47187 0.58566 0.21875 0.0
C405 C 0.52227 0.53828 0.37295 0.0
C406 C 0.54644 0.494 0.39655 0.0
C407 C 0.56357 0.43859 0.37862 0.0
C408 C 0.55586 0.42703 0.33773 0.0
C409 C 0.53169 0.47164 0.31532 0.0
C410 C 0.51587 0.52642 0.33224 0.0
C411 C 0.49353 0.56782 0.30147 0.0
C412 C 0.41444 0.57839 0.30816 0.0
C413 C 0.54713 0.62986 0.30073 0.0
C414 C 0.49961 0.52792 0.26451 0.0
C415 C 0.52067 0.47222 0.27318 0.0
C416 C 0.52856 0.4272 0.2439 0.0
C417 C 0.51519 0.43976 0.20466 0.0
C418 C 0.49527 0.49709 0.19525 0.0
C419 C 0.48735 0.54162 0.22547 0.0
loop_
_geom_bond_atom_site_label_1
_geom_bond_atom_site_label_2
_geom_bond_distance
_geom_bond_site_symmetry_2
_ccdc_geom_bond_type
Co0 N5 2.057 . S
Co0 O17 2.021 . S
Co0 O20 2.062 1_455 S
Co0 O24 2.117 1_554 S
Co0 O25 2.020 1_565 S
C1 O21 1.259 1_455 S
C1 O24 1.258 1_545 S
Co2 N11 2.057 . S
Co2 O18 2.117 . S
Co2 O19 2.020 1_545 S
Co2 O21 2.021 1_554 S
Co2 O26 2.062 1_655 S
C3 N5 1.316 . S
C3 N6 1.347 . S
C3 H8 0.931 . S
C4 N5 1.375 1_556 S
C4 C7 1.350 . S
C4 H9 0.930 . S
N5 Co0 2.057 . S
N5 C3 1.316 . S
N5 C4 1.375 1_554 S
N6 C3 1.347 . S
N6 C7 1.373 1_554 S
C7 C4 1.350 . S
C7 N6 1.373 1_556 S
C7 H28 0.931 . S
H8 C3 0.931 . S
H9 C4 0.930 . S
C10 O17 1.259 1_545 S
C10 O18 1.258 1_455 S
N11 Co2 2.057 . S
N11 C12 1.316 . S
N11 C13 1.375 . S
C12 N11 1.316 . S
C12 N14 1.347 . S
C12 H23 0.931 1_554 S
C13 N11 1.375 . S
C13 C15 1.350 . S
C13 H22 0.930 . S
N14 C12 1.347 . S
N14 C15 1.373 . S
C15 C13 1.350 . S
C15 N14 1.373 . S
C15 H29 0.931 . S
C16 O19 1.256 . S
C16 O20 1.255 . S
O17 Co0 2.021 . S
O17 C10 1.259 1_565 S
O18 Co2 2.117 . S
O18 C10 1.258 1_655 S
O19 Co2 2.020 1_565 S
O19 C16 1.256 . S
O20 Co0 2.062 1_655 S
O20 C16 1.255 . S
O21 C1 1.259 1_655 S
O21 Co2 2.021 1_556 S
H22 C13 0.930 . S
H23 C12 0.931 1_556 S
O24 Co0 2.117 1_556 S
O24 C1 1.258 1_565 S
O25 Co0 2.020 1_545 S
O25 C27 1.256 . S
O26 Co2 2.062 1_455 S
O26 C27 1.255 . S
C27 O25 1.256 . S
C27 O26 1.255 . S
H28 C7 0.931 . S
H29 C15 0.931 . S
Co30 N35 2.057 . S
Co30 O47 2.021 . S
Co30 O50 2.062 . S
Co30 O54 2.117 . S
Co30 O55 2.020 . S
C31 O51 1.259 . S
C31 O54 1.258 . S
Co32 N41 2.057 . S
Co32 O48 2.117 . S
Co32 O49 2.020 . S
Co32 O51 2.021 . S
Co32 O56 2.062 . S
C33 N35 1.316 . S
C33 N36 1.347 . S
C33 H38 0.931 . S
C34 N35 1.375 . S
C34 C37 1.350 . S
C34 H39 0.930 . S
N35 Co30 2.057 . S
N35 C33 1.316 . S
N35 C34 1.375 . S
N36 C33 1.347 . S
N36 C37 1.373 . S
C37 C34 1.350 . S
C37 N36 1.373 . S
C37 H58 0.931 . S
H38 C33 0.931 . S
H39 C34 0.930 . S
C40 O47 1.259 . S
C40 O48 1.258 . S
N41 Co32 2.057 . S
N41 C42 1.316 . S
N41 C43 1.375 . S
C42 N41 1.316 . S
C42 N44 1.347 . S
C42 H53 0.931 . S
C43 N41 1.375 . S
C43 C45 1.350 . S
C43 H52 0.930 . S
N44 C42 1.347 . S
N44 C45 1.373 . S
C45 C43 1.350 . S
C45 N44 1.373 . S
C45 H59 0.931 . S
C46 O49 1.256 . S
C46 O50 1.255 . S
O47 Co30 2.021 . S
O47 C40 1.259 . S
O48 Co32 2.117 . S
O48 C40 1.258 . S
O49 Co32 2.020 . S
O49 C46 1.256 . S
O50 Co30 2.062 . S
O50 C46 1.255 . S
O51 C31 1.259 . S
O51 Co32 2.021 . S
H52 C43 0.930 . S
H53 C42 0.931 . S
O54 Co30 2.117 . S
O54 C31 1.258 . S
O55 Co30 2.020 . S
O55 C57 1.256 . S
O56 Co32 2.062 . S
O56 C57 1.255 . S
C57 O55 1.256 . S
C57 O56 1.255 . S
H58 C37 0.931 . S
H59 C45 0.931 . S
H60 C63 0.931 . S
H61 C66 0.928 . S
H62 C68 0.931 . S
C63 H60 0.931 . S
C63 C64 1.413 . S
C63 C65 1.359 . S
C64 C63 1.413 . S
C64 C68 1.421 1_655 S
C65 C63 1.359 . S
C65 C66 1.372 1_645 S
C66 H61 0.928 . S
C66 C65 1.372 1_465 S
C66 C67 1.404 . S
C67 C66 1.404 . S
C67 C68 1.399 1_565 S
C68 H62 0.931 . S
C68 C64 1.421 1_455 S
C68 C67 1.399 1_545 S
H69 C72 0.931 . S
H70 C75 0.928 . S
H71 C77 0.930 . S
C72 H69 0.931 . S
C72 C73 1.413 . S
C72 C74 1.360 1_665 S
C73 C72 1.413 . S
C73 C77 1.429 1_665 S
C74 C72 1.360 1_445 S
C74 C75 1.372 . S
C75 H70 0.928 . S
C75 C74 1.372 . S
C75 C76 1.404 . S
C76 C75 1.404 . S
C76 C77 1.391 . S
C77 H71 0.930 . S
C77 C73 1.429 1_445 S
C77 C76 1.391 . S
H78 C81 0.931 . S
H79 C84 0.928 . S
H80 C86 0.930 . S
C81 H78 0.931 . S
C81 C82 1.413 . S
C81 C83 1.360 . S
C82 C81 1.413 . S
C82 C86 1.429 . S
C83 C81 1.360 . S
C83 C84 1.372 . S
C84 H79 0.928 . S
C84 C83 1.372 . S
C84 C85 1.404 . S
C85 C84 1.404 . S
C85 C86 1.391 . S
C86 H80 0.930 . S
C86 C82 1.429 . S
C86 C85 1.391 . S
H87 C90 0.931 . S
H88 C93 0.928 . S
H89 C95 0.930 . S
C90 H87 0.931 . S
C90 C91 1.413 . S
C90 C92 1.360 . S
C91 C90 1.413 . S
C91 C95 1.429 . S
C92 C90 1.360 . S
C92 C93 1.372 . S
C93 H88 0.928 . S
C93 C92 1.372 . S
C93 C94 1.404 . S
C94 C93 1.404 . S
C94 C95 1.391 . S
C95 H89 0.930 . S
C95 C91 1.429 . S
C95 C94 1.391 . S
H96 C108 0.930 . S
H97 C110 0.938 . S
H98 C111 0.930 1_556 S
H99 C115 0.959 . S
H100 C115 0.959 . S
H101 C115 0.961 . S
H102 C116 0.960 . S
H103 C116 0.961 . S
H104 C116 0.959 . S
H105 C119 0.929 . S
H106 C120 0.931 . S
H107 C122 0.930 . S
C108 H96 0.930 . S
C108 C109 1.399 . S
C108 C113 1.399 . S
C109 C108 1.399 . S
C109 C110 1.370 1_554 S
C110 H97 0.938 . S
C110 C109 1.370 1_556 S
C110 C111 1.387 1_556 S
C111 H98 0.930 1_554 S
C111 C110 1.387 1_554 S
C111 C112 1.390 . S
C112 C111 1.390 . S
C112 C113 1.394 . S
C112 C118 1.465 . S
C113 C108 1.399 . S
C113 C112 1.394 . S
C113 C114 1.516 . S
C114 C113 1.516 . S
C114 C115 1.502 . S
C114 C116 1.561 . S
C114 C117 1.526 . S
C115 H99 0.959 . S
C115 H100 0.959 . S
C115 H101 0.961 . S
C115 C114 1.502 . S
C116 H102 0.960 . S
C116 H103 0.961 . S
C116 H104 0.959 . S
C116 C114 1.561 . S
C117 C114 1.526 . S
C117 C118 1.396 . S
C117 C122 1.390 . S
C118 C112 1.465 . S
C118 C117 1.396 . S
C118 C119 1.399 . S
C119 H105 0.929 . S
C119 C118 1.399 . S
C119 C120 1.385 . S
C120 H106 0.931 . S
C120 C119 1.385 . S
C120 C121 1.389 . S
C121 C120 1.389 . S
C121 C122 1.387 . S
C122 H107 0.930 . S
C122 C117 1.390 . S
C122 C121 1.387 . S
H123 C135 0.930 . S
H124 C137 0.930 . S
H125 C138 0.930 . S
H126 C142 0.959 . S
H127 C142 0.959 . S
H128 C142 0.961 . S
H129 C143 0.960 . S
H130 C143 0.961 . S
H131 C143 0.959 . S
H132 C146 0.929 . S
H133 C147 0.931 . S
H134 C149 0.930 . S
C135 H123 0.930 . S
C135 C136 1.399 1_556 S
C135 C140 1.399 . S
C136 C135 1.399 1_554 S
C136 C137 1.376 . S
C137 H124 0.930 . S
C137 C136 1.376 . S
C137 C138 1.388 . S
C138 H125 0.930 . S
C138 C137 1.388 . S
C138 C139 1.390 . S
C139 C138 1.390 . S
C139 C140 1.394 1_554 S
C139 C145 1.465 1_554 S
C140 C135 1.399 . S
C140 C139 1.394 1_556 S
C140 C141 1.516 . S
C141 C140 1.516 . S
C141 C142 1.502 . S
C141 C143 1.561 . S
C141 C144 1.526 . S
C142 H126 0.959 . S
C142 H127 0.959 . S
C142 H128 0.961 . S
C142 C141 1.502 . S
C143 H129 0.960 . S
C143 H130 0.961 . S
C143 H131 0.959 . S
C143 C141 1.561 . S
C144 C141 1.526 . S
C144 C145 1.396 . S
C144 C149 1.390 . S
C145 C139 1.465 1_556 S
C145 C144 1.396 . S
C145 C146 1.399 1_556 S
C146 H132 0.929 . S
C146 C145 1.399 1_554 S
C146 C147 1.385 . S
C147 H133 0.931 . S
C147 C146 1.385 . S
C147 C148 1.389 1_554 S
C148 C147 1.389 1_556 S
C148 C149 1.387 . S
C149 H134 0.930 . S
C149 C144 1.390 . S
C149 C148 1.387 . S
H150 C162 0.945 . S
H151 C164 0.930 . S
H152 C165 0.930 . S
H153 C169 0.959 . S
H154 C169 0.959 . S
H155 C169 0.961 . S
H156 C170 0.960 . S
H157 C170 0.961 . S
H158 C170 0.959 . S
H159 C173 0.929 . S
H160 C174 0.931 . S
H161 C176 0.930 . S
C162 H150 0.945 . S
C162 C163 1.390 1_556 S
C162 C167 1.392 1_556 S
C163 C162 1.390 1_554 S
C163 C164 1.376 . S
C164 H151 0.930 . S
C164 C163 1.376 . S
C164 C165 1.388 . S
C165 H152 0.930 . S
C165 C164 1.388 . S
C165 C166 1.390 . S
C166 C165 1.390 . S
C166 C167 1.394 . S
C166 C172 1.465 . S
C167 C162 1.392 1_554 S
C167 C166 1.394 . S
C167 C168 1.516 1_554 S
C168 C167 1.516 1_556 S
C168 C169 1.502 . S
C168 C170 1.561 . S
C168 C171 1.526 1_556 S
C169 H153 0.959 . S
C169 H154 0.959 . S
C169 H155 0.961 . S
C169 C168 1.502 . S
C170 H156 0.960 . S
C170 H157 0.961 . S
C170 H158 0.959 . S
C170 C168 1.561 . S
C171 C168 1.526 1_554 S
C171 C172 1.396 . S
C171 C176 1.390 . S
C172 C166 1.465 . S
C172 C171 1.396 . S
C172 C173 1.399 . S
C173 H159 0.929 . S
C173 C172 1.399 . S
C173 C174 1.385 . S
C174 H160 0.931 . S
C174 C173 1.385 . S
C174 C175 1.389 . S
C175 C174 1.389 . S
C175 C176 1.387 . S
C176 H161 0.930 . S
C176 C171 1.390 . S
C176 C175 1.387 . S
H177 C189 0.930 . S
H178 C191 0.930 . S
H179 C192 0.930 . S
H180 C196 0.959 . S
H181 C196 0.959 . S
H182 C196 0.961 . S
H183 C197 0.960 . S
H184 C197 0.961 . S
H185 C197 0.959 . S
H186 C200 0.929 . S
H187 C201 0.931 . S
H188 C203 0.930 . S
C189 H177 0.930 . S
C189 C190 1.399 1_556 S
C189 C194 1.399 . S
C190 C189 1.399 1_554 S
C190 C191 1.376 . S
C191 H178 0.930 . S
C191 C190 1.376 . S
C191 C192 1.388 . S
C192 H179 0.930 . S
C192 C191 1.388 . S
C192 C193 1.390 . S
C193 C192 1.390 . S
C193 C194 1.394 1_554 S
C193 C199 1.465 1_554 S
C194 C189 1.399 . S
C194 C193 1.394 1_556 S
C194 C195 1.516 . S
C195 C194 1.516 . S
C195 C196 1.502 . S
C195 C197 1.561 . S
C195 C198 1.526 . S
C196 H180 0.959 . S
C196 H181 0.959 . S
C196 H182 0.961 . S
C196 C195 1.502 . S
C197 H183 0.960 . S
C197 H184 0.961 . S
C197 H185 0.959 . S
C197 C195 1.561 . S
C198 C195 1.526 . S
C198 C199 1.396 . S
C198 C203 1.390 . S
C199 C193 1.465 1_556 S
C199 C198 1.396 . S
C199 C200 1.399 1_556 S
C200 H186 0.929 . S
C200 C199 1.399 1_554 S
C200 C201 1.385 . S
C201 H187 0.931 . S
C201 C200 1.385 . S
C201 C202 1.389 1_554 S
C202 C201 1.389 1_556 S
C202 C203 1.387 . S
C203 H188 0.930 . S
C203 C198 1.390 . S
C203 C202 1.387 . S
H204 C216 0.930 . S
H205 C218 0.930 . S
H206 C219 0.930 . S
H207 C223 0.959 . S
H208 C223 0.959 . S
H209 C223 0.961 . S
H210 C224 0.960 . S
H211 C224 0.961 . S
H212 C224 0.959 . S
H213 C227 0.929 . S
H214 C228 0.931 . S
H215 C230 0.930 . S
C216 H204 0.930 . S
C216 C217 1.399 . S
C216 C221 1.399 . S
C217 C216 1.399 . S
C217 C218 1.376 . S
C218 H205 0.930 . S
C218 C217 1.376 . S
C218 C219 1.388 . S
C219 H206 0.930 . S
C219 C218 1.388 . S
C219 C220 1.390 . S
C220 C219 1.390 . S
C220 C221 1.394 . S
C220 C226 1.465 . S
C221 C216 1.399 . S
C221 C220 1.394 . S
C221 C222 1.516 . S
C222 C221 1.516 . S
C222 C223 1.502 . S
C222 C224 1.561 . S
C222 C225 1.526 . S
C223 H207 0.959 . S
C223 H208 0.959 . S
C223 H209 0.961 . S
C223 C222 1.502 . S
C224 H210 0.960 . S
C224 H211 0.961 . S
C224 H212 0.959 . S
C224 C222 1.561 . S
C225 C222 1.526 . S
C225 C226 1.396 . S
C225 C230 1.390 . S
C226 C220 1.465 . S
C226 C225 1.396 . S
C226 C227 1.399 . S
C227 H213 0.929 . S
C227 C226 1.399 . S
C227 C228 1.385 . S
C228 H214 0.931 . S
C228 C227 1.385 . S
C228 C229 1.389 . S
C229 C228 1.389 . S
C229 C230 1.387 . S
C230 H215 0.930 . S
C230 C225 1.390 . S
C230 C229 1.387 . S
H231 C243 0.930 . S
H232 C245 0.930 . S
H233 C246 0.930 . S
H234 C250 0.959 . S
H235 C250 0.959 . S
H236 C250 0.961 . S
H237 C251 0.960 . S
H238 C251 0.961 . S
H239 C251 0.959 . S
H240 C254 0.929 . S
H241 C255 0.931 . S
H242 C257 0.930 . S
C243 H231 0.930 . S
C243 C244 1.399 . S
C243 C248 1.399 . S
C244 C243 1.399 . S
C244 C245 1.376 . S
C245 H232 0.930 . S
C245 C244 1.376 . S
C245 C246 1.388 . S
C246 H233 0.930 . S
C246 C245 1.388 . S
C246 C247 1.390 . S
C247 C246 1.390 . S
C247 C248 1.394 . S
C247 C253 1.465 . S
C248 C243 1.399 . S
C248 C247 1.394 . S
C248 C249 1.516 . S
C249 C248 1.516 . S
C249 C250 1.502 . S
C249 C251 1.561 . S
C249 C252 1.526 . S
C250 H234 0.959 . S
C250 H235 0.959 . S
C250 H236 0.961 . S
C250 C249 1.502 . S
C251 H237 0.960 . S
C251 H238 0.961 . S
C251 H239 0.959 . S
C251 C249 1.561 . S
C252 C249 1.526 . S
C252 C253 1.396 . S
C252 C257 1.390 . S
C253 C247 1.465 . S
C253 C252 1.396 . S
C253 C254 1.399 . S
C254 H240 0.929 . S
C254 C253 1.399 . S
C254 C255 1.385 . S
C255 H241 0.931 . S
C255 C254 1.385 . S
C255 C256 1.389 . S
C256 C255 1.389 . S
C256 C257 1.387 . S
C257 H242 0.930 . S
C257 C252 1.390 . S
C257 C256 1.387 . S
H258 C270 0.930 . S
H259 C272 0.930 . S
H260 C273 0.930 . S
H261 C277 0.959 . S
H262 C277 0.959 . S
H263 C277 0.961 . S
H264 C278 0.960 . S
H265 C278 0.961 . S
H266 C278 0.959 . S
H267 C281 0.929 . S
H268 C282 0.931 . S
H269 C284 0.930 . S
C270 H258 0.930 . S
C270 C271 1.399 . S
C270 C275 1.399 . S
C271 C270 1.399 . S
C271 C272 1.376 . S
C272 H259 0.930 . S
C272 C271 1.376 . S
C272 C273 1.388 . S
C273 H260 0.930 . S
C273 C272 1.388 . S
C273 C274 1.390 . S
C274 C273 1.390 . S
C274 C275 1.394 . S
C274 C280 1.465 . S
C275 C270 1.399 . S
C275 C274 1.394 . S
C275 C276 1.516 . S
C276 C275 1.516 . S
C276 C277 1.502 . S
C276 C278 1.561 . S
C276 C279 1.526 . S
C277 H261 0.959 . S
C277 H262 0.959 . S
C277 H263 0.961 . S
C277 C276 1.502 . S
C278 H264 0.960 . S
C278 H265 0.961 . S
C278 H266 0.959 . S
C278 C276 1.561 . S
C279 C276 1.526 . S
C279 C280 1.396 . S
C279 C284 1.390 . S
C280 C274 1.465 . S
C280 C279 1.396 . S
C280 C281 1.399 . S
C281 H267 0.929 . S
C281 C280 1.399 . S
C281 C282 1.385 . S
C282 H268 0.931 . S
C282 C281 1.385 . S
C282 C283 1.389 . S
C283 C282 1.389 . S
C283 C284 1.387 . S
C284 H269 0.930 . S
C284 C279 1.390 . S
C284 C283 1.387 . S
H285 C297 0.930 . S
H286 C299 0.930 . S
H287 C300 0.930 . S
H288 C304 0.959 . S
H289 C304 0.959 . S
H290 C304 0.961 . S
H291 C305 0.960 . S
H292 C305 0.961 . S
H293 C305 0.959 . S
H294 C308 0.929 . S
H295 C309 0.931 . S
H296 C311 0.930 . S
C297 H285 0.930 . S
C297 C298 1.399 . S
C297 C302 1.399 . S
C298 C297 1.399 . S
C298 C299 1.376 . S
C299 H286 0.930 . S
C299 C298 1.376 . S
C299 C300 1.388 . S
C300 H287 0.930 . S
C300 C299 1.388 . S
C300 C301 1.390 . S
C301 C300 1.390 . S
C301 C302 1.394 . S
C301 C307 1.465 . S
C302 C297 1.399 . S
C302 C301 1.394 . S
C302 C303 1.516 . S
C303 C302 1.516 . S
C303 C304 1.502 . S
C303 C305 1.561 . S
C303 C306 1.526 . S
C304 H288 0.959 . S
C304 H289 0.959 . S
C304 H290 0.961 . S
C304 C303 1.502 . S
C305 H291 0.960 . S
C305 H292 0.961 . S
C305 H293 0.959 . S
C305 C303 1.561 . S
C306 C303 1.526 . S
C306 C307 1.396 . S
C306 C311 1.390 . S
C307 C301 1.465 . S
C307 C306 1.396 . S
C307 C308 1.399 . S
C308 H294 0.929 . S
C308 C307 1.399 . S
C308 C309 1.385 . S
C309 H295 0.931 . S
C309 C308 1.385 . S
C309 C310 1.389 . S
C310 C309 1.389 . S
C310 C311 1.387 . S
C311 H296 0.930 . S
C311 C306 1.390 . S
C311 C310 1.387 . S
H312 C324 0.930 . S
H313 C326 0.930 . S
H314 C327 0.930 . S
H315 C331 0.959 . S
H316 C331 0.959 . S
H317 C331 0.961 . S
H318 C332 0.960 . S
H319 C332 0.961 . S
H320 C332 0.959 . S
H321 C335 0.929 . S
H322 C336 0.931 . S
H323 C338 0.930 . S
C324 H312 0.930 . S
C324 C325 1.399 1_665 S
C324 C329 1.399 . S
C325 C324 1.399 1_445 S
C325 C326 1.376 . S
C326 H313 0.930 . S
C326 C325 1.376 . S
C326 C327 1.388 . S
C327 H314 0.930 . S
C327 C326 1.388 . S
C327 C328 1.390 . S
C328 C327 1.390 . S
C328 C329 1.394 1_445 S
C328 C334 1.465 . S
C329 C324 1.399 . S
C329 C328 1.394 1_665 S
C329 C330 1.516 . S
C330 C329 1.516 . S
C330 C331 1.502 . S
C330 C332 1.561 1_655 S
C330 C333 1.526 . S
C331 H315 0.959 . S
C331 H316 0.959 . S
C331 H317 0.961 . S
C331 C330 1.502 . S
C332 H318 0.960 . S
C332 H319 0.961 . S
C332 H320 0.959 . S
C332 C330 1.561 1_455 S
C333 C330 1.526 . S
C333 C334 1.396 1_665 S
C333 C338 1.390 . S
C334 C328 1.465 . S
C334 C333 1.396 1_445 S
C334 C335 1.399 . S
C335 H321 0.929 . S
C335 C334 1.399 . S
C335 C336 1.385 . S
C336 H322 0.931 . S
C336 C335 1.385 . S
C336 C337 1.389 . S
C337 C336 1.389 . S
C337 C338 1.387 1_445 S
C338 H323 0.930 . S
C338 C333 1.390 . S
C338 C337 1.387 1_665 S
H339 C351 0.930 . S
H340 C353 0.930 . S
H341 C354 0.930 . S
H342 C358 0.959 . S
H343 C358 0.959 . S
H344 C358 0.961 . S
H345 C359 0.960 . S
H346 C359 0.961 . S
H347 C359 0.959 . S
H348 C362 0.929 . S
H349 C363 0.931 . S
H350 C365 0.930 . S
C351 H339 0.930 . S
C351 C352 1.399 1_565 S
C351 C356 1.399 . S
C352 C351 1.399 1_545 S
C352 C353 1.376 1_455 S
C353 H340 0.930 . S
C353 C352 1.376 1_655 S
C353 C354 1.388 . S
C354 H341 0.930 . S
C354 C353 1.388 . S
C354 C355 1.390 . S
C355 C354 1.390 . S
C355 C356 1.394 1_645 S
C355 C361 1.465 . S
C356 C351 1.399 . S
C356 C355 1.394 1_465 S
C356 C357 1.516 . S
C357 C356 1.516 . S
C357 C358 1.502 . S
C357 C359 1.561 1_455 S
C357 C360 1.526 . S
C358 H342 0.959 . S
C358 H343 0.959 . S
C358 H344 0.961 . S
C358 C357 1.502 . S
C359 H345 0.960 . S
C359 H346 0.961 . S
C359 H347 0.959 . S
C359 C357 1.561 1_655 S
C360 C357 1.526 . S
C360 C361 1.396 1_465 S
C360 C365 1.390 . S
C361 C355 1.465 . S
C361 C360 1.396 1_645 S
C361 C362 1.399 . S
C362 H348 0.929 . S
C362 C361 1.399 . S
C362 C363 1.385 . S
C363 H349 0.931 . S
C363 C362 1.385 . S
C363 C364 1.389 1_655 S
C364 C363 1.389 1_455 S
C364 C365 1.387 1_545 S
C365 H350 0.930 . S
C365 C360 1.390 . S
C365 C364 1.387 1_565 S
H366 C378 0.930 . S
H367 C380 0.930 . S
H368 C381 0.930 . S
H369 C385 0.959 . S
H370 C385 0.959 . S
H371 C385 0.961 . S
H372 C386 0.960 . S
H373 C386 0.961 . S
H374 C386 0.959 . S
H375 C389 0.929 . S
H376 C390 0.931 . S
H377 C392 0.930 . S
C378 H366 0.930 . S
C378 C379 1.399 . S
C378 C383 1.399 . S
C379 C378 1.399 . S
C379 C380 1.376 . S
C380 H367 0.930 . S
C380 C379 1.376 . S
C380 C381 1.388 . S
C381 H368 0.930 . S
C381 C380 1.388 . S
C381 C382 1.390 . S
C382 C381 1.390 . S
C382 C383 1.394 . S
C382 C388 1.465 . S
C383 C378 1.399 . S
C383 C382 1.394 . S
C383 C384 1.516 . S
C384 C383 1.516 . S
C384 C385 1.502 . S
C384 C386 1.561 . S
C384 C387 1.526 . S
C385 H369 0.959 . S
C385 H370 0.959 . S
C385 H371 0.961 . S
C385 C384 1.502 . S
C386 H372 0.960 . S
C386 H373 0.961 . S
C386 H374 0.959 . S
C386 C384 1.561 . S
C387 C384 1.526 . S
C387 C388 1.396 . S
C387 C392 1.390 . S
C388 C382 1.465 . S
C388 C387 1.396 . S
C388 C389 1.399 . S
C389 H375 0.929 . S
C389 C388 1.399 . S
C389 C390 1.385 . S
C390 H376 0.931 . S
C390 C389 1.385 . S
C390 C391 1.389 . S
C391 C390 1.389 . S
C391 C392 1.387 . S
C392 H377 0.930 . S
C392 C387 1.390 . S
C392 C391 1.387 . S
H393 C405 0.930 . S
H394 C407 0.930 . S
H395 C408 0.930 . S
H396 C412 0.959 . S
H397 C412 0.959 . S
H398 C412 0.961 . S
H399 C413 0.960 . S
H400 C413 0.961 . S
H401 C413 0.959 . S
H402 C416 0.929 . S
H403 C417 0.931 . S
H404 C419 0.930 . S
C405 H393 0.930 . S
C405 C406 1.399 . S
C405 C410 1.399 . S
C406 C405 1.399 . S
C406 C407 1.376 . S
C407 H394 0.930 . S
C407 C406 1.376 . S
C407 C408 1.388 . S
C408 H395 0.930 . S
C408 C407 1.388 . S
C408 C409 1.390 . S
C409 C408 1.390 . S
C409 C410 1.394 . S
C409 C415 1.465 . S
C410 C405 1.399 . S
C410 C409 1.394 . S
C410 C411 1.516 . S
C411 C410 1.516 . S
C411 C412 1.502 . S
C411 C413 1.561 . S
C411 C414 1.526 . S
C412 H396 0.959 . S
C412 H397 0.959 . S
C412 H398 0.961 . S
C412 C411 1.502 . S
C413 H399 0.960 . S
C413 H400 0.961 . S
C413 H401 0.959 . S
C413 C411 1.561 . S
C414 C411 1.526 . S
C414 C415 1.396 . S
C414 C419 1.390 . S
C415 C409 1.465 . S
C415 C414 1.396 . S
C415 C416 1.399 . S
C416 H402 0.929 . S
C416 C415 1.399 . S
C416 C417 1.385 . S
C417 H403 0.931 . S
C417 C416 1.385 . S
C417 C418 1.389 . S
C418 C417 1.389 . S
C418 C419 1.387 . S
C419 H404 0.930 . S
C419 C414 1.390 . S
C419 C418 1.387 . S
C121 C91 1.393 . S
C109 C27 1.394 . S
C136 N6 1.335 . S
C148 C82 1.381 . S
C163 C16 1.366 . S
C175 C94 1.355 . S
C190 N14 1.345 . S
C202 C85 1.378 . S
C217 C57 1.373 . S
C229 C73 1.360 . S
C244 N36 1.264 . S
C256 C64 1.344 . S
C283 C76 1.398 . S
C271 C46 1.396 . S
C310 C67 1.336 . S
C298 N44 1.371 . S
C325 C10 1.382 . S
C337 C65 1.391 1_455 S
C352 C1 1.520 . S
C364 C74 1.533 . S
C391 C83 1.391 . S
C379 C40 1.382 . S
C406 C31 1.535 . S
C418 C92 1.535 . S
