# Generated by pormake.
# Topology pto, (3,4)-cn, num edge types: 1
# Building blocks:
#     Node 0, Type 0, BuildingBlock: BETDIP_clean_linker_0, # of connection points: 3
#     Node 1, Type 0, BuildingBlock: BETDIP_clean_linker_0, # of connection points: 3
#     Node 2, Type 0, BuildingBlock: BETDIP_clean_linker_0, # of connection points: 3
#     Node 3, Type 0, BuildingBlock: BETDIP_clean_linker_0, # of connection points: 3
#     Node 4, Type 0, BuildingBlock: BETDIP_clean_linker_0, # of connection points: 3
#     Node 5, Type 0, BuildingBlock: BETDIP_clean_linker_0, # of connection points: 3
#     Node 6, Type 0, BuildingBlock: BETDIP_clean_linker_0, # of connection points: 3
#     Node 7, Type 0, BuildingBlock: BETDIP_clean_linker_0, # of connection points: 3
#     Node 8, Type 1, BuildingBlock: KOZSID_clean_sbu_0, # of connection points: 4
#     Node 9, Type 1, BuildingBlock: KOZSID_clean_sbu_0, # of connection points: 4
#     Node 10, Type 1, BuildingBlock: KOZSID_clean_sbu_0, # of connection points: 4
#     Node 11, Type 1, BuildingBlock: KOZSID_clean_sbu_0, # of connection points: 4
#     Node 12, Type 1, BuildingBlock: KOZSID_clean_sbu_0, # of connection points: 4
#     Node 13, Type 1, BuildingBlock: KOZSID_clean_sbu_0, # of connection points: 4
#     Edge 14, Type (0, 1), BuildingBlock: UVAHIK_clean_linker_0, # of connection points: 2
#     Edge 15, Type (0, 1), BuildingBlock: UVAHIK_clean_linker_0, # of connection points: 2
#     Edge 16, Type (0, 1), BuildingBlock: UVAHIK_clean_linker_0, # of connection points: 2
#     Edge 17, Type (0, 1), BuildingBlock: UVAHIK_clean_linker_0, # of connection points: 2
#     Edge 18, Type (0, 1), BuildingBlock: UVAHIK_clean_linker_0, # of connection points: 2
#     Edge 19, Type (0, 1), BuildingBlock: UVAHIK_clean_linker_0, # of connection points: 2
#     Edge 20, Type (0, 1), BuildingBlock: UVAHIK_clean_linker_0, # of connection points: 2
#     Edge 21, Type (0, 1), BuildingBlock: UVAHIK_clean_linker_0, # of connection points: 2
#     Edge 22, Type (0, 1), BuildingBlock: UVAHIK_clean_linker_0, # of connection points: 2
#     Edge 23, Type (0, 1), BuildingBlock: UVAHIK_clean_linker_0, # of connection points: 2
#     Edge 24, Type (0, 1), BuildingBlock: UVAHIK_clean_linker_0, # of connection points: 2
#     Edge 25, Type (0, 1), BuildingBlock: UVAHIK_clean_linker_0, # of connection points: 2
#     Edge 26, Type (0, 1), BuildingBlock: UVAHIK_clean_linker_0, # of connection points: 2
#     Edge 27, Type (0, 1), BuildingBlock: UVAHIK_clean_linker_0, # of connection points: 2
#     Edge 28, Type (0, 1), BuildingBlock: UVAHIK_clean_linker_0, # of connection points: 2
#     Edge 29, Type (0, 1), BuildingBlock: UVAHIK_clean_linker_0, # of connection points: 2
#     Edge 30, Type (0, 1), BuildingBlock: UVAHIK_clean_linker_0, # of connection points: 2
#     Edge 31, Type (0, 1), BuildingBlock: UVAHIK_clean_linker_0, # of connection points: 2
#     Edge 32, Type (0, 1), BuildingBlock: UVAHIK_clean_linker_0, # of connection points: 2
#     Edge 33, Type (0, 1), BuildingBlock: UVAHIK_clean_linker_0, # of connection points: 2
#     Edge 34, Type (0, 1), BuildingBlock: UVAHIK_clean_linker_0, # of connection points: 2
#     Edge 35, Type (0, 1), BuildingBlock: UVAHIK_clean_linker_0, # of connection points: 2
#     Edge 36, Type (0, 1), BuildingBlock: UVAHIK_clean_linker_0, # of connection points: 2
#     Edge 37, Type (0, 1), BuildingBlock: UVAHIK_clean_linker_0, # of connection points: 2
# Relax obj value: 0.010
# Max RMSD: 0.132
# Mean RMSD: 0.060
data_MOF--net-pto--node1-KOZSID_clean_sbu_0--node2-BETDIP_clean_linker_0--edge1-UVAHIK_clean_linker_0
_symmetry_space_group_name_H-M    P1
_symmetry_Int_Tables_number       1
_symmetry_cell_setting            triclinic
loop_
_symmetry_equiv_pos_as_xyz
'x, y, z'
_cell_length_a     46.808183
_cell_length_b     65.127427
_cell_length_c     57.105514
_cell_angle_alpha  96.21573
_cell_angle_beta   103.27548
_cell_angle_gamma 106.37714
loop_
_atom_site_label
_atom_site_type_symbol
_atom_site_fract_x
_atom_site_fract_y
_atom_site_fract_z
_atom_type_partial_charge
H0 H 0.18299 0.29728 0.34214 0.0
H1 H 0.22405 0.26959 0.2921 0.0
H2 H 0.23398 0.3377 0.30083 0.0
H3 H 0.18988 0.23821 0.29353 0.0
C4 C 0.18723 0.24002 0.31196 0.0
C5 C 0.19622 0.29922 0.32878 0.0
C6 C 0.2077 0.3198 0.32285 0.0
C7 C 0.2015 0.28097 0.31761 0.0
C8 C 0.21896 0.28336 0.30048 0.0
C9 C 0.23095 0.30385 0.29461 0.0
C10 C 0.22542 0.32202 0.30593 0.0
N11 N 0.1898 0.26071 0.32474 0.0
H12 H 0.2249 0.7746 0.65352 0.0
H13 H 0.305 0.82542 0.69921 0.0
H14 H 0.2796 0.76233 0.7189 0.0
H15 H 0.27507 0.84617 0.68586 0.0
C16 C 0.26383 0.83881 0.66674 0.0
C17 C 0.24469 0.78 0.66952 0.0
C18 C 0.25008 0.76561 0.68539 0.0
C19 C 0.26382 0.80167 0.67466 0.0
C20 C 0.28954 0.80885 0.69538 0.0
C21 C 0.29562 0.79461 0.71122 0.0
C22 C 0.27586 0.77302 0.70604 0.0
N23 N 0.25596 0.81595 0.65905 0.0
H24 H 0.85988 0.80661 0.32151 0.0
H25 H 0.87312 0.8293 0.39815 0.0
H26 H 0.82928 0.85989 0.34405 0.0
H27 H 0.88131 0.7979 0.4029 0.0
C28 C 0.88987 0.79275 0.38791 0.0
C29 C 0.85726 0.81763 0.33593 0.0
C30 C 0.84329 0.83348 0.32994 0.0
C31 C 0.86811 0.81591 0.3604 0.0
C32 C 0.86478 0.83028 0.37916 0.0
C33 C 0.85037 0.84604 0.37336 0.0
C34 C 0.84011 0.84765 0.34872 0.0
N35 N 0.88278 0.79985 0.36523 0.0
H36 H 0.69578 0.25944 0.83901 0.0
H37 H 0.73318 0.32928 0.85892 0.0
H38 H 0.74939 0.29598 0.79657 0.0
H39 H 0.73425 0.32004 0.89771 0.0
C40 C 0.71077 0.30887 0.89305 0.0
C41 C 0.70906 0.27488 0.83571 0.0
C42 C 0.7221 0.27542 0.81588 0.0
C43 C 0.71319 0.29418 0.85144 0.0
C44 C 0.7302 0.31425 0.84705 0.0
C45 C 0.74348 0.31501 0.82735 0.0
C46 C 0.73918 0.29553 0.81181 0.0
N47 N 0.69928 0.29306 0.8711 0.0
H48 H 0.81264 0.8054 0.81594 0.0
H49 H 0.83591 0.82982 0.7534 0.0
H50 H 0.79673 0.86456 0.79868 0.0
H51 H 0.83757 0.79695 0.74165 0.0
C52 C 0.84108 0.78911 0.75741 0.0
C53 C 0.81349 0.81754 0.80431 0.0
C54 C 0.80374 0.83549 0.81004 0.0
C55 C 0.82455 0.81504 0.78374 0.0
C56 C 0.8264 0.831 0.76885 0.0
C57 C 0.81673 0.8491 0.77433 0.0
C58 C 0.80527 0.85108 0.79485 0.0
N59 N 0.83412 0.79648 0.77913 0.0
H60 H 0.71237 0.29241 0.4084 0.0
H61 H 0.80491 0.32881 0.4517 0.0
H62 H 0.75621 0.35652 0.39698 0.0
H63 H 0.78985 0.30737 0.47952 0.0
C64 C 0.77688 0.29172 0.46762 0.0
C65 C 0.73203 0.30718 0.4132 0.0
C66 C 0.73106 0.32442 0.40064 0.0
C67 C 0.75806 0.3089 0.43218 0.0
C68 C 0.78404 0.32781 0.43803 0.0
C69 C 0.78371 0.34497 0.42508 0.0
C70 C 0.7568 0.34329 0.4069 0.0
N71 N 0.75788 0.29077 0.44398 0.0
H72 H 0.11247 0.27571 0.71797 0.0
H73 H 0.18403 0.25687 0.76313 0.0
H74 H 0.16261 0.3135 0.78977 0.0
H75 H 0.19237 0.25075 0.72338 0.0
C76 C 0.16865 0.24102 0.71383 0.0
C77 C 0.13005 0.27851 0.7351 0.0
C78 C 0.13492 0.29608 0.75375 0.0
C79 C 0.14833 0.26478 0.73815 0.0
C80 C 0.17086 0.26809 0.76044 0.0
C81 C 0.17596 0.28547 0.7794 0.0
C82 C 0.15798 0.29946 0.77575 0.0
N83 N 0.1439 0.24785 0.71849 0.0
H84 H 0.29373 0.83283 0.2418 0.0
H85 H 0.29146 0.76602 0.23841 0.0
H86 H 0.23841 0.7912 0.27929 0.0
H87 H 0.29816 0.77213 0.19943 0.0
C88 C 0.31638 0.78777 0.20492 0.0
C89 C 0.28531 0.81714 0.2469 0.0
C90 C 0.2642 0.81399 0.26113 0.0
C91 C 0.29481 0.79988 0.2383 0.0
C92 C 0.28383 0.77934 0.24462 0.0
C93 C 0.26305 0.77606 0.25915 0.0
C94 C 0.25361 0.7935 0.26738 0.0
N95 N 0.31564 0.80379 0.22351 0.0
C96 C 0.13787 0.59859 0.39468 0.0
C97 C 0.16537 0.61238 0.41067 0.0
C98 C 0.16413 0.60916 0.43367 0.0
C99 C 0.136 0.59376 0.43046 0.0
N100 N 0.11936 0.58666 0.40675 0.0
Co101 Co 0.07616 0.56571 0.39401 0.0
N102 N 0.07369 0.56182 0.42796 0.0
C103 C 0.09612 0.5711 0.44912 0.0
C104 C 0.08827 0.56445 0.46941 0.0
C105 C 0.05925 0.54976 0.46066 0.0
C106 C 0.0511 0.54835 0.43546 0.0
N107 N 0.03259 0.54541 0.38125 0.0
C108 C 0.01343 0.53426 0.39334 0.0
C109 C 0.98489 0.52194 0.37749 0.0
C110 C 0.98618 0.52527 0.35454 0.0
C111 C 0.01525 0.53937 0.35764 0.0
N112 N 0.07899 0.56889 0.36001 0.0
C113 C 0.05748 0.55831 0.33873 0.0
C114 C 0.06632 0.56357 0.3183 0.0
C115 C 0.09506 0.57859 0.32703 0.0
C116 C 0.10197 0.58173 0.35239 0.0
N117 N 0.09244 0.54073 0.3917 0.0
C118 C 0.11437 0.50474 0.3886 0.0
C119 C 0.08864 0.50531 0.37095 0.0
C120 C 0.07826 0.52331 0.37277 0.0
C121 C 0.12919 0.52255 0.40778 0.0
C122 C 0.1178 0.5402 0.40906 0.0
N123 N 0.05983 0.59066 0.39628 0.0
C124 C 0.02798 0.61106 0.37733 0.0
C125 C 0.03699 0.62631 0.39896 0.0
C126 C 0.05756 0.62335 0.4193 0.0
C127 C 0.06867 0.60559 0.41756 0.0
C128 C 0.03955 0.59355 0.3764 0.0
H129 H 0.0845 0.60436 0.43362 0.0
H130 H 0.03171 0.58257 0.35935 0.0
H131 H 0.05865 0.52268 0.35861 0.0
H132 H 0.12979 0.55313 0.42432 0.0
C133 C 0.12435 0.5859 0.4493 0.0
C134 C 0.12968 0.59816 0.36836 0.0
C135 C 0.02189 0.53369 0.41942 0.0
C136 C 0.02806 0.5453 0.3386 0.0
H137 H 0.18417 0.62389 0.40626 0.0
H138 H 0.1814 0.61738 0.45074 0.0
H139 H 0.10215 0.56948 0.48827 0.0
H140 H 0.04571 0.5409 0.47153 0.0
H141 H 0.96546 0.51112 0.38192 0.0
H142 H 0.96848 0.51764 0.33752 0.0
H143 H 0.053 0.55777 0.29934 0.0
H144 H 0.10901 0.58682 0.31604 0.0
H145 H 0.07672 0.49201 0.35552 0.0
H146 H 0.14916 0.52272 0.42195 0.0
H147 H 0.01172 0.61243 0.36116 0.0
H148 H 0.06548 0.63486 0.43642 0.0
C149 C 0.04557 0.57094 0.74417 0.0
C150 C 0.07268 0.58377 0.76145 0.0
C151 C 0.06896 0.58022 0.78381 0.0
C152 C 0.0399 0.56558 0.77899 0.0
N153 N 0.02491 0.55931 0.75484 0.0
Co154 Co 0.98159 0.53911 0.73975 0.0
N155 N 0.97545 0.5351 0.77281 0.0
C156 C 0.99583 0.54459 0.79491 0.0
C157 C 0.98532 0.53806 0.81427 0.0
C158 C 0.95669 0.52324 0.80393 0.0
C159 C 0.95146 0.5216 0.77877 0.0
N160 N 0.93826 0.51896 0.72469 0.0
C161 C 0.91784 0.50711 0.73537 0.0
C162 C 0.89047 0.49456 0.71826 0.0
C163 C 0.89388 0.49837 0.69588 0.0
C164 C 0.923 0.51296 0.70059 0.0
N165 N 0.98777 0.54304 0.7067 0.0
C166 C 0.96734 0.53351 0.68462 0.0
C167 C 0.97808 0.53963 0.66521 0.0
C168 C 0.00693 0.55417 0.67549 0.0
C169 C 0.01205 0.55614 0.70067 0.0
N170 N 0.99726 0.5138 0.73856 0.0
C171 C 0.01775 0.47704 0.7377 0.0
C172 C 0.99645 0.4793 0.71739 0.0
C173 C 0.98665 0.49767 0.71819 0.0
C174 C 0.02883 0.49359 0.75835 0.0
C175 C 0.0184 0.51166 0.75838 0.0
N176 N 0.96586 0.56443 0.74095 0.0
C177 C 0.93421 0.5847 0.72132 0.0
C178 C 0.94428 0.60072 0.7424 0.0
C179 C 0.96532 0.59824 0.76274 0.0
C180 C 0.97572 0.58017 0.76162 0.0
C181 C 0.94518 0.56686 0.721 0.0
H182 H 0.99188 0.5794 0.77769 0.0
H183 H 0.9366 0.55528 0.70438 0.0
H184 H 0.97034 0.49837 0.70216 0.0
H185 H 0.02752 0.52355 0.77476 0.0
C186 C 0.02542 0.55844 0.79681 0.0
C187 C 0.03974 0.57142 0.71804 0.0
C188 C 0.92415 0.50613 0.76132 0.0
C189 C 0.93756 0.51992 0.68275 0.0
H190 H 0.09281 0.59501 0.75837 0.0
H191 H 0.08515 0.5879 0.80152 0.0
H192 H 0.99742 0.54299 0.83356 0.0
H193 H 0.94163 0.51423 0.81371 0.0
H194 H 0.87048 0.48335 0.72159 0.0
H195 H 0.87751 0.49082 0.67821 0.0
H196 H 0.96604 0.53455 0.64592 0.0
H197 H 0.02226 0.56275 0.66563 0.0
H198 H 0.98748 0.46704 0.70083 0.0
H199 H 0.04508 0.49247 0.77468 0.0
H200 H 0.91763 0.58575 0.70516 0.0
H201 H 0.97417 0.61038 0.77941 0.0
C202 C 0.20187 0.99509 0.50604 0.0
C203 C 0.23136 0.99634 0.51937 0.0
C204 C 0.25153 0.01373 0.51425 0.0
C205 C 0.23336 0.02199 0.49804 0.0
N206 N 0.20272 0.01094 0.49244 0.0
Co207 Co 0.16822 0.01691 0.46887 0.0
N208 N 0.19801 0.04269 0.46165 0.0
C209 C 0.22908 0.05043 0.47133 0.0
C210 C 0.24324 0.06862 0.46319 0.0
C211 C 0.21984 0.07288 0.44747 0.0
C212 C 0.19264 0.05696 0.44695 0.0
N213 N 0.1338 0.02274 0.44508 0.0
C214 C 0.13465 0.03875 0.43171 0.0
C215 C 0.1054 0.03694 0.41744 0.0
C216 C 0.08528 0.01917 0.42204 0.0
C217 C 0.10331 0.0112 0.43875 0.0
N218 N 0.13844 0.99127 0.47636 0.0
C219 C 0.10733 0.98376 0.46694 0.0
C220 C 0.09301 0.96608 0.4758 0.0
C221 C 0.11633 0.96202 0.49188 0.0
C222 C 0.14366 0.97748 0.49181 0.0
N223 N 0.16311 0.03634 0.49579 0.0
C224 C 0.15661 0.06712 0.53124 0.0
C225 C 0.13064 0.05196 0.51442 0.0
C226 C 0.13439 0.0367 0.49715 0.0
C227 C 0.18575 0.06579 0.53071 0.0
C228 C 0.18844 0.05055 0.51296 0.0
N229 N 0.17338 0.99761 0.44183 0.0
C230 C 0.15165 0.9689 0.40602 0.0
C231 C 0.18113 0.9703 0.40349 0.0
C232 C 0.20657 0.98571 0.42049 0.0
C233 C 0.2022 0.99916 0.43913 0.0
C234 C 0.14836 0.98245 0.42526 0.0
H235 H 0.22259 0.01058 0.4512 0.0
H236 H 0.12535 0.98035 0.42633 0.0
H237 H 0.11374 0.02565 0.48481 0.0
H238 H 0.21135 0.05084 0.5133 0.0
C239 C 0.24436 0.04026 0.48799 0.0
C240 C 0.17389 0.97851 0.50691 0.0
C241 C 0.16233 0.05628 0.43238 0.0
C242 C 0.09223 0.99345 0.44955 0.0
H243 H 0.23772 0.98575 0.53153 0.0
H244 H 0.27646 0.01964 0.52146 0.0
H245 H 0.26767 0.07773 0.46817 0.0
H246 H 0.22246 0.08626 0.43758 0.0
H247 H 0.09924 0.04753 0.4052 0.0
H248 H 0.06041 0.01299 0.41438 0.0
H249 H 0.06852 0.9572 0.47111 0.0
H250 H 0.11354 0.94915 0.50249 0.0
H251 H 0.1075 0.05221 0.51403 0.0
H252 H 0.20661 0.07662 0.54382 0.0
H253 H 0.13106 0.95746 0.39321 0.0
H254 H 0.23 0.98725 0.41981 0.0
C255 C 0.54482 0.85997 0.05349 0.0
C256 C 0.53937 0.87884 0.06229 0.0
C257 C 0.55958 0.89571 0.05634 0.0
C258 C 0.57594 0.88623 0.04408 0.0
N259 N 0.56745 0.86431 0.04183 0.0
Co260 Co 0.58379 0.84405 0.02377 0.0
N261 N 0.6146 0.86901 0.01617 0.0
C262 C 0.61995 0.89047 0.02386 0.0
C263 C 0.64325 0.9038 0.01647 0.0
C264 C 0.65349 0.89004 0.0033 0.0
C265 C 0.63559 0.86903 0.00329 0.0
N266 N 0.59895 0.82371 0.0046 0.0
C267 C 0.62034 0.828 0.99182 0.0
C268 C 0.6224 0.80899 0.97975 0.0
C269 C 0.60176 0.7921 0.98524 0.0
C270 C 0.58814 0.80169 9e-05 0.0
N271 N 0.55417 0.81913 0.03248 0.0
C272 C 0.55123 0.79776 0.02703 0.0
C273 C 0.53084 0.78453 0.03702 0.0
C274 C 0.52014 0.79823 0.04975 0.0
C275 C 0.53438 0.81914 0.04649 0.0
N276 N 0.55227 0.8428 0.99325 0.0
C277 C 0.51015 0.84058 0.94832 0.0
C278 C 0.51033 0.82184 0.95803 0.0
C279 C 0.53147 0.82328 0.98028 0.0
C280 C 0.53085 0.86053 0.96173 0.0
C281 C 0.55134 0.86129 0.9841 0.0
N282 N 0.61543 0.84528 0.05419 0.0
C283 C 0.64676 0.82788 0.07954 0.0
C284 C 0.66006 0.84676 0.0974 0.0
C285 C 0.65078 0.86494 0.09329 0.0
C286 C 0.62875 0.86391 0.07165 0.0
C287 C 0.62456 0.82745 0.05833 0.0
H288 H 0.6229 0.87839 0.06947 0.0
H289 H 0.61505 0.81244 0.04565 0.0
H290 H 0.53078 0.80833 0.98641 0.0
H291 H 0.56637 0.87703 0.99353 0.0
C292 C 0.60088 0.89755 0.03609 0.0
C293 C 0.52823 0.8384 0.05696 0.0
C294 C 0.63908 0.84968 0.99046 0.0
C295 C 0.56673 0.79051 0.01142 0.0
H296 H 0.52269 0.8803 0.07218 0.0
H297 H 0.56237 0.91287 0.06078 0.0
H298 H 0.65136 0.92143 0.01981 0.0
H299 H 0.6718 0.8949 0.99444 0.0
H300 H 0.63733 0.80744 0.96819 0.0
H301 H 0.59742 0.77487 0.97932 0.0
H302 H 0.52441 0.76699 0.03517 0.0
H303 H 0.50367 0.79329 0.06024 0.0
H304 H 0.49477 0.80599 0.94817 0.0
H305 H 0.53116 0.87551 0.95504 0.0
H306 H 0.65298 0.81331 0.08211 0.0
H307 H 0.6607 0.87999 0.1066 0.0
C308 C 0.81567 0.03534 0.6379 0.0
C309 C 0.84494 0.03723 0.65225 0.0
C310 C 0.86504 0.05511 0.64788 0.0
C311 C 0.84708 0.06301 0.63107 0.0
N312 N 0.81658 0.05143 0.6246 0.0
Co313 Co 0.78273 0.05626 0.59925 0.0
N314 N 0.81259 0.08218 0.59234 0.0
C315 C 0.84345 0.09046 0.60291 0.0
C316 C 0.8577 0.10869 0.59489 0.0
C317 C 0.83449 0.1126 0.57856 0.0
C318 C 0.80729 0.0965 0.57769 0.0
N319 N 0.74905 0.06082 0.57345 0.0
C320 C 0.74985 0.07715 0.56048 0.0
C321 C 0.72092 0.07454 0.54507 0.0
C322 C 0.70111 0.05599 0.5485 0.0
C323 C 0.71892 0.04839 0.5658 0.0
N324 N 0.75272 0.03069 0.6066 0.0
C325 C 0.72174 0.02284 0.59648 0.0
C326 C 0.70723 0.0052 0.6053 0.0
C327 C 0.73033 0.00141 0.62191 0.0
C328 C 0.75774 0.01694 0.62211 0.0
N329 N 0.77503 0.0759 0.62446 0.0
C330 C 0.7641 0.10507 0.65898 0.0
C331 C 0.7396 0.08978 0.64104 0.0
C332 C 0.74552 0.07544 0.62421 0.0
C333 C 0.79419 0.10519 0.65959 0.0
C334 C 0.79908 0.09064 0.64227 0.0
N335 N 0.79043 0.03651 0.57406 0.0
C336 C 0.77191 0.00397 0.54286 0.0
C337 C 0.80188 0.00633 0.54101 0.0
C338 C 0.82588 0.02442 0.55552 0.0
C339 C 0.8197 0.03916 0.57175 0.0
C340 C 0.76675 0.01916 0.55921 0.0
H341 H 0.83908 0.05243 0.58237 0.0
H342 H 0.74342 0.01628 0.55976 0.0
H343 H 0.72581 0.06433 0.61096 0.0
H344 H 0.82255 0.09176 0.64354 0.0
C345 C 0.85827 0.08097 0.62065 0.0
C346 C 0.78798 0.0175 0.63677 0.0
C347 C 0.77692 0.09609 0.56344 0.0
C348 C 0.70735 0.0313 0.57736 0.0
H349 H 0.85134 0.02658 0.66429 0.0
H350 H 0.88988 0.06135 0.65566 0.0
H351 H 0.88199 0.11821 0.60056 0.0
H352 H 0.83717 0.12602 0.56873 0.0
H353 H 0.71445 0.08528 0.53318 0.0
H354 H 0.67638 0.04942 0.54024 0.0
H355 H 0.68287 0.99586 0.59984 0.0
H356 H 0.72742 0.98842 0.63236 0.0
H357 H 0.71586 0.08916 0.63952 0.0
H358 H 0.81399 0.11645 0.67336 0.0
H359 H 0.75248 0.99017 0.53217 0.0
H360 H 0.84943 0.02729 0.5544 0.0
C361 C 0.42792 0.33958 0.11571 0.0
C362 C 0.42497 0.35936 0.12466 0.0
C363 C 0.44753 0.37523 0.11957 0.0
C364 C 0.46281 0.36429 0.10778 0.0
N365 N 0.45101 0.34236 0.10456 0.0
Co366 Co 0.46703 0.32029 0.0893 0.0
N367 N 0.50115 0.34367 0.08279 0.0
C368 C 0.50625 0.36541 0.08755 0.0
C369 C 0.52993 0.37735 0.07945 0.0
C370 C 0.54035 0.36236 0.06849 0.0
C371 C 0.52248 0.34204 0.07074 0.0
N372 N 0.48381 0.29823 0.07503 0.0
C373 C 0.50781 0.30099 0.06492 0.0
C374 C 0.5124 0.28133 0.05796 0.0
C375 C 0.48998 0.26551 0.06327 0.0
C376 C 0.47325 0.27638 0.07334 0.0
N377 N 0.43218 0.29686 0.09487 0.0
C378 C 0.42556 0.27509 0.08822 0.0
C379 C 0.40066 0.26304 0.09492 0.0
C380 C 0.3909 0.27796 0.10674 0.0
C381 C 0.41042 0.29839 0.10648 0.0
N382 N 0.44033 0.31931 0.0564 0.0
C383 C 0.4021 0.31759 0.00982 0.0
C384 C 0.40848 0.29903 0.01645 0.0
C385 C 0.42729 0.3002 0.03968 0.0
C386 C 0.41528 0.33708 0.02677 0.0
C387 C 0.43443 0.33762 0.0497 0.0
N388 N 0.49358 0.32119 0.12219 0.0
C389 C 0.50957 0.30266 0.15479 0.0
C390 C 0.52948 0.3223 0.16957 0.0
C391 C 0.53121 0.34142 0.16014 0.0
C392 C 0.51319 0.3405 0.1366 0.0
C393 C 0.49214 0.30247 0.13139 0.0
H394 H 0.51541 0.35563 0.13049 0.0
H395 H 0.47743 0.28695 0.12123 0.0
H396 H 0.4308 0.28537 0.04365 0.0
H397 H 0.44417 0.35305 0.06162 0.0
C398 C 0.48812 0.37409 0.09935 0.0
C399 C 0.40886 0.31869 0.11893 0.0
C400 C 0.52566 0.32163 0.06022 0.0
C401 C 0.44569 0.26645 0.07894 0.0
H402 H 0.40844 0.36202 0.13416 0.0
H403 H 0.45241 0.39267 0.12412 0.0
H404 H 0.53822 0.39485 0.08089 0.0
H405 H 0.55863 0.36603 0.05946 0.0
H406 H 0.52966 0.27865 0.0493 0.0
H407 H 0.48571 0.2481 0.05945 0.0
H408 H 0.39167 0.24549 0.09263 0.0
H409 H 0.37222 0.27406 0.11533 0.0
H410 H 0.39846 0.28352 0.00393 0.0
H411 H 0.41111 0.3519 0.02225 0.0
H412 H 0.50697 0.28742 0.16134 0.0
H413 H 0.54658 0.35704 0.17074 0.0
C414 C 0.22206 0.35946 0.34113 0.0
C415 C 0.19983 0.33866 0.33337 0.0
C416 C 0.21396 0.37735 0.34977 0.0
C417 C 0.14621 0.39603 0.34458 0.0
H418 H 0.1982 0.4403 0.40098 0.0
C419 C 0.1044 0.46451 0.38053 0.0
C420 C 0.12558 0.48567 0.38663 0.0
C421 C 0.11436 0.44651 0.3765 0.0
C422 C 0.18358 0.42816 0.38507 0.0
H423 H 0.15176 0.32031 0.32884 0.0
H424 H 0.13777 0.35141 0.34419 0.0
H425 H 0.21419 0.40891 0.38919 0.0
H426 H 0.17394 0.5046 0.3941 0.0
H427 H 0.19141 0.47308 0.38673 0.0
H428 H 0.11585 0.41523 0.3401 0.0
C429 C 0.16141 0.35392 0.34343 0.0
C430 C 0.19273 0.4102 0.37834 0.0
C431 C 0.16951 0.33607 0.33489 0.0
C432 C 0.15715 0.48844 0.38955 0.0
C433 C 0.16713 0.4704 0.38536 0.0
C434 C 0.13715 0.41394 0.35123 0.0
C435 C 0.18341 0.3748 0.35066 0.0
C436 C 0.17404 0.39391 0.35807 0.0
C437 C 0.14573 0.44925 0.3783 0.0
C438 C 0.15562 0.43018 0.37161 0.0
H439 H 0.24569 0.36191 0.34039 0.0
H440 H 0.23137 0.39327 0.35509 0.0
H441 H 0.13163 0.38399 0.32856 0.0
H442 H 0.08 0.46188 0.37862 0.0
H443 H 0.09738 0.43041 0.37167 0.0
C444 C 0.23692 0.72561 0.68669 0.0
C445 C 0.2272 0.74368 0.68197 0.0
C446 C 0.21537 0.70565 0.68639 0.0
C447 C 0.13895 0.68452 0.69659 0.0
H448 H 0.14309 0.62796 0.67159 0.0
C449 C 0.04849 0.60605 0.7019 0.0
C450 C 0.05971 0.58938 0.7095 0.0
C451 C 0.06767 0.62377 0.69528 0.0
C452 C 0.14179 0.64365 0.67882 0.0
H453 H 0.18709 0.75469 0.67241 0.0
H454 H 0.14958 0.71983 0.67146 0.0
H455 H 0.17915 0.66099 0.66545 0.0
H456 H 0.09887 0.57734 0.71527 0.0
H457 H 0.13296 0.60867 0.70427 0.0
H458 H 0.10231 0.66746 0.71052 0.0
C459 C 0.17388 0.72116 0.67565 0.0
C460 C 0.16239 0.66253 0.67525 0.0
C461 C 0.19537 0.74107 0.6759 0.0
C462 C 0.08998 0.5902 0.70958 0.0
C463 C 0.1093 0.60802 0.70311 0.0
C464 C 0.11852 0.66572 0.70023 0.0
C465 C 0.18369 0.70339 0.68147 0.0
C466 C 0.1612 0.68317 0.68415 0.0
C467 C 0.09851 0.6252 0.69627 0.0
C468 C 0.1197 0.64505 0.69145 0.0
H469 H 0.26126 0.72706 0.69118 0.0
H470 H 0.22365 0.69227 0.69105 0.0
H471 H 0.13787 0.70019 0.70414 0.0
H472 H 0.02505 0.60554 0.70155 0.0
H473 H 0.05843 0.63649 0.68964 0.0
C474 C 0.91888 0.76991 0.37195 0.0
C475 C 0.90703 0.77685 0.39075 0.0
C476 C 0.93482 0.75476 0.37474 0.0
C477 C 0.94438 0.71132 0.40901 0.0
H478 H 0.01738 0.71827 0.38553 0.0
C479 C 0.01562 0.65167 0.4207 0.0
C480 C 0.02486 0.64506 0.40016 0.0
C481 C 0.00305 0.66876 0.42129 0.0
C482 C 0.99689 0.71601 0.39201 0.0
H483 H 0.90269 0.77356 0.4272 0.0
H484 H 0.93068 0.74703 0.43216 0.0
H485 H 0.99193 0.74619 0.38334 0.0
H486 H 0.029 0.65168 0.36446 0.0
H487 H 0.00661 0.68116 0.36529 0.0
H488 H 0.94909 0.68097 0.41735 0.0
C489 C 0.92741 0.75318 0.41519 0.0
C490 C 0.98231 0.73201 0.39076 0.0
C491 C 0.91154 0.76841 0.41242 0.0
C492 C 0.02176 0.65618 0.38043 0.0
C493 C 0.00926 0.67327 0.38104 0.0
C494 C 0.95895 0.69529 0.41023 0.0
C495 C 0.93923 0.74618 0.39637 0.0
C496 C 0.95568 0.72973 0.39898 0.0
C497 C -0.00044 0.67968 0.4014 0.0
C498 C 0.98517 0.69733 0.40149 0.0
H499 H 0.91579 0.77609 0.355 0.0
H500 H 0.94324 0.74948 0.35976 0.0
H501 H 0.9237 0.70896 0.41524 0.0
H502 H 0.0175 0.64333 0.43612 0.0
H503 H 0.99609 0.67345 0.43735 0.0
C504 C 0.79064 0.33787 0.81782 0.0
C505 C 0.76224 0.33604 0.82308 0.0
C506 C 0.80808 0.35741 0.81312 0.0
C507 C 0.80103 0.40732 0.79179 0.0
H508 H 0.89032 0.42805 0.81803 0.0
C509 C 0.87758 0.48817 0.77492 0.0
C510 C 0.90512 0.48758 0.76958 0.0
C511 C 0.85993 0.4706 0.78293 0.0
C512 C 0.86543 0.42239 0.81038 0.0
H513 H 0.72988 0.35326 0.82768 0.0
H514 H 0.76053 0.38758 0.81956 0.0
H515 H 0.85992 0.39576 0.82968 0.0
H516 H 0.9362 0.46873 0.76823 0.0
H517 H 0.90525 0.43777 0.78188 0.0
H518 H 0.80658 0.43372 0.77214 0.0
C519 C 0.76917 0.37381 0.81896 0.0
C520 C 0.84803 0.40391 0.8171 0.0
C521 C 0.75178 0.35426 0.82381 0.0
C522 C 0.91495 0.46937 0.77235 0.0
C523 C 0.89736 0.4518 0.78031 0.0
C524 C 0.81846 0.42579 0.78501 0.0
C525 C 0.79747 0.37556 0.81351 0.0
C526 C 0.81568 0.39602 0.80765 0.0
C527 C 0.86965 0.45221 0.78574 0.0
C528 C 0.8509 0.43336 0.79399 0.0
H529 H 0.79944 0.32417 0.81737 0.0
H530 H 0.82962 0.35817 0.80872 0.0
H531 H 0.77616 0.40149 0.784 0.0
H532 H 0.86985 0.50224 0.77295 0.0
H533 H 0.83889 0.47151 0.7872 0.0
C534 C 0.17915 0.20041 0.31103 0.0
C535 C 0.18058 0.22061 0.3235 0.0
C536 C 0.17418 0.18211 0.32215 0.0
C537 C 0.18294 0.16713 0.3831 0.0
H538 H 0.13037 0.10987 0.34703 0.0
C539 C 0.15791 0.09336 0.43088 0.0
C540 C 0.15974 0.07406 0.41885 0.0
C541 C 0.15771 0.11081 0.41871 0.0
C542 C 0.1453 0.12573 0.35728 0.0
H543 H 0.17716 0.23746 0.35719 0.0
H544 H 0.16821 0.20553 0.37647 0.0
H545 H 0.13513 0.14127 0.32662 0.0
H546 H 0.16231 0.0573 0.38499 0.0
H547 H 0.16224 0.08793 0.36353 0.0
H548 H 0.19342 0.15166 0.41366 0.0
C549 C 0.17139 0.20386 0.35824 0.0
C550 C 0.14804 0.1437 0.3456 0.0
C551 C 0.17637 0.22214 0.34713 0.0
C552 C 0.16072 0.07213 0.39441 0.0
C553 C 0.16054 0.08958 0.3822 0.0
C554 C 0.18022 0.1492 0.39476 0.0
C555 C 0.17056 0.18369 0.34599 0.0
C556 C 0.16696 0.16459 0.35838 0.0
C557 C 0.15944 0.10922 0.39433 0.0
C558 C 0.16143 0.12829 0.38198 0.0
H559 H 0.18237 0.19886 0.2928 0.0
H560 H 0.17398 0.16685 0.31232 0.0
H561 H 0.19815 0.18293 0.39334 0.0
H562 H 0.15714 0.09501 0.44979 0.0
H563 H 0.15641 0.1256 0.42843 0.0
C564 C 0.32517 0.82215 0.74952 0.0
C565 C 0.32119 0.8026 0.73415 0.0
C566 C 0.34747 0.82876 0.77216 0.0
C567 C 0.41869 0.82117 0.80791 0.0
H568 H 0.39069 0.83684 0.86416 0.0
C569 C 0.50016 0.84992 0.9064 0.0
C570 C 0.48898 0.83916 0.92409 0.0
C571 C 0.48061 0.84752 0.88304 0.0
C572 C 0.39882 0.83254 0.84861 0.0
H573 H 0.33816 0.77509 0.72993 0.0
H574 H 0.37729 0.78671 0.7695 0.0
H575 H 0.35559 0.82891 0.82303 0.0
H576 H 0.44847 0.81805 0.93155 0.0
H577 H 0.41421 0.81399 0.89079 0.0
H578 H 0.46178 0.82447 0.83359 0.0
C579 C 0.36315 0.79689 0.76403 0.0
C580 C 0.37886 0.82818 0.82508 0.0
C581 C 0.34063 0.79016 0.7415 0.0
C582 C 0.45772 0.8264 0.91819 0.0
C583 C 0.43809 0.82422 0.89496 0.0
C584 C 0.43878 0.82577 0.83145 0.0
C585 C 0.36643 0.81607 0.77976 0.0
C586 C 0.38845 0.82218 0.80452 0.0
C587 C 0.44942 0.83456 0.87707 0.0
C588 C 0.42889 0.8312 0.85205 0.0
H589 H 0.31034 0.83196 0.74442 0.0
H590 H 0.34967 0.84369 0.78385 0.0
H591 H 0.42673 0.81671 0.79237 0.0
H592 H 0.52423 0.85973 0.91042 0.0
H593 H 0.48987 0.85577 0.86963 0.0
C594 C 0.81756 0.86561 0.38899 0.0
C595 C 0.84559 0.86086 0.39272 0.0
C596 C 0.81366 0.8809 0.40599 0.0
C597 C 0.84209 0.90978 0.46971 0.0
H598 H 0.80821 0.95292 0.44311 0.0
C599 C 0.83474 0.9837 0.53142 0.0
C600 C 0.80803 0.98992 0.52432 0.0
C601 C 0.84026 0.96803 0.51587 0.0
C602 C 0.81732 0.94086 0.45086 0.0
H603 H 0.8911 0.86788 0.41777 0.0
H604 H 0.88404 0.89451 0.44781 0.0
H605 H 0.81567 0.92485 0.41561 0.0
H606 H 0.76638 0.98463 0.49509 0.0
H607 H 0.77546 0.95687 0.4684 0.0
H608 H 0.84324 0.92557 0.50497 0.0
C609 C 0.86518 0.88636 0.43159 0.0
C610 C 0.82167 0.9248 0.43508 0.0
C611 C 0.86918 0.8711 0.41443 0.0
C612 C 0.78701 0.98008 0.50129 0.0
C613 C 0.79244 0.96435 0.48582 0.0
C614 C 0.83751 0.92578 0.48553 0.0
C615 C 0.83758 0.89172 0.42726 0.0
C616 C 0.83389 0.90901 0.44431 0.0
C617 C 0.81916 0.95814 0.49288 0.0
C618 C 0.82487 0.94143 0.47626 0.0
H619 H 0.79863 0.85761 0.37276 0.0
H620 H 0.7919 0.88437 0.40243 0.0
H621 H 0.85136 0.89771 0.47729 0.0
H622 H 0.85123 0.99072 0.54916 0.0
H623 H 0.86123 0.96382 0.52181 0.0
C624 C 0.66017 0.29801 0.90374 0.0
C625 C 0.6919 0.3097 0.91039 0.0
C626 C 0.64247 0.29953 0.92013 0.0
C627 C 0.64306 0.33416 0.97658 0.0
H628 H 0.5769 0.28336 0.97874 0.0
C629 C 0.57751 0.33012 0.05154 0.0
C630 C 0.54517 0.32148 0.0431 0.0
C631 C 0.59571 0.32917 0.03542 0.0
C632 C 0.59517 0.29771 0.9782 0.0
H633 H 0.73013 0.33191 0.93926 0.0
H634 H 0.69956 0.33404 0.96825 0.0
H635 H 0.60843 0.28039 0.95079 0.0
H636 H 0.50627 0.30501 0.01159 0.0
H637 H 0.53808 0.30302 0.98334 0.0
H638 H 0.63001 0.35129 0.00446 0.0
C639 C 0.68807 0.32411 0.95022 0.0
C640 C 0.61319 0.29606 0.96212 0.0
C641 C 0.70566 0.32277 0.93373 0.0
C642 C 0.53123 0.3118 0.01839 0.0
C643 C 0.54939 0.3106 0.00234 0.0
C644 C 0.62524 0.33573 0.99286 0.0
C645 C 0.65618 0.31259 0.9436 0.0
C646 C 0.63729 0.31429 0.96101 0.0
C647 C 0.58181 0.31923 0.0107 0.0
C648 C 0.60103 0.31755 0.99372 0.0
H649 H 0.64885 0.28796 0.88576 0.0
H650 H 0.61791 0.29073 0.91419 0.0
H651 H 0.66102 0.34864 0.97595 0.0
H652 H 0.58864 0.33741 0.07064 0.0
H653 H 0.62066 0.33576 0.04237 0.0
C654 C 0.25609 0.874 0.65923 0.0
C655 C 0.25295 0.85242 0.64993 0.0
C656 C 0.24541 0.88706 0.6438 0.0
C657 C 0.193 0.88443 0.58319 0.0
H658 H 0.24163 0.94525 0.59303 0.0
C659 C 0.17366 0.94115 0.51357 0.0
C660 C 0.17665 0.96259 0.52329 0.0
C661 C 0.18014 0.92694 0.52917 0.0
C662 C 0.22758 0.92837 0.59025 0.0
H663 H 0.23655 0.82754 0.61712 0.0
H664 H 0.21853 0.85049 0.59001 0.0
H665 H 0.25949 0.92205 0.61964 0.0
H666 H 0.18743 0.986 0.55648 0.0
H667 H 0.19875 0.96118 0.58392 0.0
H668 H 0.16144 0.89081 0.55336 0.0
C669 C 0.22861 0.85722 0.60934 0.0
C670 C 0.2378 0.91505 0.60551 0.0
C671 C 0.23913 0.84411 0.62484 0.0
C672 C 0.18504 0.96947 0.54873 0.0
C673 C 0.19168 0.95534 0.56432 0.0
C674 C 0.18287 0.89775 0.56778 0.0
C675 C 0.23159 0.87886 0.61865 0.0
C676 C 0.22062 0.89293 0.60223 0.0
C677 C 0.18992 0.93407 0.5547 0.0
C678 C 0.20004 0.91987 0.57122 0.0
H679 H 0.26654 0.88073 0.67854 0.0
H680 H 0.24766 0.90352 0.65168 0.0
H681 H 0.17897 0.86754 0.58035 0.0
H682 H 0.16739 0.93567 0.49393 0.0
H683 H 0.17878 0.91069 0.52124 0.0
C684 C 0.81004 0.8165 0.28741 0.0
C685 C 0.83085 0.83495 0.30412 0.0
C686 C 0.79529 0.81843 0.26389 0.0
C687 C 0.77386 0.85978 0.23029 0.0
H688 H 0.74892 0.81328 0.17408 0.0
C689 C 0.68016 0.85571 0.14309 0.0
C690 C 0.68294 0.84724 0.12036 0.0
C691 C 0.70075 0.85512 0.16481 0.0
C692 C 0.75604 0.82659 0.18948 0.0
H693 H 0.85407 0.86958 0.30909 0.0
H694 H 0.8292 0.87291 0.26781 0.0
H695 H 0.78191 0.8105 0.2125 0.0
H696 H 0.71001 0.83219 0.10242 0.0
H697 H 0.74649 0.83163 0.14031 0.0
H698 H 0.74867 0.87613 0.20716 0.0
C699 C 0.82339 0.85706 0.273 0.0
C700 C 0.77464 0.82484 0.21164 0.0
C701 C 0.83781 0.85516 0.29658 0.0
C702 C 0.70712 0.83859 0.11973 0.0
C703 C 0.72793 0.8382 0.14145 0.0
C704 C 0.75553 0.86162 0.20809 0.0
C705 C 0.80135 0.83882 0.25655 0.0
C706 C 0.78346 0.84129 0.23243 0.0
C707 C 0.72482 0.84626 0.16429 0.0
C708 C 0.74599 0.84491 0.18748 0.0
H709 H 0.80409 0.80077 0.29289 0.0
H710 H 0.77819 0.80407 0.25188 0.0
H711 H 0.7798 0.87267 0.24594 0.0
H712 H 0.66149 0.86222 0.14411 0.0
H713 H 0.69725 0.86111 0.18203 0.0
C714 C 0.72793 0.23833 0.80971 0.0
C715 C 0.71917 0.25513 0.79975 0.0
C716 C 0.72932 0.22055 0.7944 0.0
C717 C 0.7383 0.20648 0.73262 0.0
H718 H 0.72248 0.14824 0.74728 0.0
C719 C 0.77824 0.1428 0.68316 0.0
C720 C 0.75832 0.12119 0.67634 0.0
C721 C 0.77217 0.15822 0.69857 0.0
C722 C 0.72672 0.16437 0.74278 0.0
H723 H 0.70295 0.26593 0.76611 0.0
H724 H 0.70433 0.23464 0.73931 0.0
H725 H 0.71131 0.17604 0.77258 0.0
H726 H 0.71678 0.09878 0.68108 0.0
H727 H 0.70562 0.12587 0.70729 0.0
H728 H 0.75292 0.1948 0.7025 0.0
C729 C 0.71118 0.23544 0.75892 0.0
C730 C 0.72064 0.18037 0.75746 0.0
C731 C 0.71017 0.25329 0.77422 0.0
C732 C 0.73239 0.11534 0.68565 0.0
C733 C 0.7262 0.13082 0.70096 0.0
C734 C 0.74417 0.19049 0.71789 0.0
C735 C 0.72167 0.21916 0.76883 0.0
C736 C 0.72654 0.20168 0.75265 0.0
C737 C 0.74586 0.15251 0.70742 0.0
C738 C 0.73876 0.16928 0.7229 0.0
H739 H 0.73519 0.23947 0.82937 0.0
H740 H 0.73776 0.20846 0.80271 0.0
H741 H 0.74363 0.22277 0.72854 0.0
H742 H 0.79824 0.14799 0.67616 0.0
H743 H 0.78814 0.17467 0.70351 0.0
C744 C 0.2361 0.29308 0.25287 0.0
C745 C 0.24877 0.30617 0.27625 0.0
C746 C 0.25282 0.29522 0.23544 0.0
C747 C 0.32161 0.33223 0.22182 0.0
H748 H 0.3124 0.28069 0.17608 0.0
C749 C 0.4043 0.32633 0.16151 0.0
C750 C 0.38982 0.31823 0.13649 0.0
C751 C 0.38663 0.3258 0.17823 0.0
C752 C 0.31499 0.29522 0.18866 0.0
H753 H 0.28875 0.33154 0.30003 0.0
H754 H 0.31872 0.33467 0.27006 0.0
H755 H 0.28306 0.27761 0.20639 0.0
H756 H 0.34586 0.3039 0.10905 0.0
H757 H 0.3148 0.30216 0.13853 0.0
H758 H 0.3547 0.34952 0.20451 0.0
C759 C 0.29549 0.32325 0.26473 0.0
C760 C 0.29807 0.29354 0.20596 0.0
C761 C 0.27847 0.32139 0.282 0.0
C762 C 0.35742 0.3099 0.12835 0.0
C763 C 0.33977 0.30895 0.14513 0.0
C764 C 0.33898 0.3338 0.2048 0.0
C765 C 0.28288 0.3102 0.24117 0.0
C766 C 0.30103 0.31204 0.22275 0.0
C767 C 0.35426 0.31686 0.1702 0.0
C768 C 0.3357 0.31532 0.18804 0.0
H769 H 0.21305 0.2814 0.24798 0.0
H770 H 0.24197 0.28524 0.21738 0.0
H771 H 0.32413 0.34693 0.23405 0.0
H772 H 0.42929 0.33293 0.16809 0.0
H773 H 0.39827 0.33192 0.1975 0.0
C774 C 0.85745 0.76214 0.73369 0.0
C775 C 0.8514 0.76967 0.75542 0.0
C776 C 0.86702 0.74369 0.73153 0.0
C777 C 0.8668 0.69446 0.75815 0.0
H778 H 0.93325 0.69418 0.72831 0.0
C779 C 0.92565 0.62776 0.76421 0.0
C780 C 0.93297 0.61986 0.7432 0.0
C781 C 0.91517 0.64582 0.76505 0.0
C782 C 0.9144 0.69389 0.73641 0.0
H783 H 0.85079 0.7639 0.79207 0.0
H784 H 0.86764 0.73187 0.78837 0.0
H785 H 0.91588 0.72613 0.73085 0.0
H786 H 0.93526 0.6249 0.70666 0.0
H787 H 0.91642 0.65621 0.70796 0.0
H788 H 0.86533 0.66227 0.76376 0.0
C789 C 0.86464 0.74002 0.77285 0.0
C790 C 0.90446 0.7122 0.73787 0.0
C791 C 0.85515 0.75847 0.77502 0.0
C792 C 0.92952 0.63044 0.72303 0.0
C793 C 0.91906 0.64853 0.72388 0.0
C794 C 0.87671 0.67616 0.75667 0.0
C795 C 0.87063 0.73239 0.75108 0.0
C796 C 0.88068 0.71274 0.74889 0.0
C797 C 0.91176 0.65643 0.7449 0.0
C798 C 0.90075 0.6757 0.74591 0.0
H799 H 0.85467 0.77049 0.71832 0.0
H800 H 0.87117 0.7381 0.71444 0.0
H801 H 0.84806 0.69421 0.76637 0.0
H802 H 0.92775 0.61985 0.77997 0.0
H803 H 0.91008 0.65163 0.78163 0.0
C804 C 0.81961 0.37266 0.40919 0.0
C805 C 0.81162 0.36428 0.42931 0.0
C806 C 0.84398 0.39182 0.41268 0.0
C807 C 0.91557 0.4284 0.45481 0.0
H808 H 0.89691 0.47045 0.41559 0.0
C809 C 0.00746 0.49718 0.43124 0.0
C810 C 0.00152 0.5169 0.42906 0.0
C811 C 0.98586 0.47998 0.43669 0.0
C812 C 0.90246 0.45908 0.42698 0.0
H813 H 0.82412 0.36888 0.46895 0.0
H814 H 0.86749 0.4025 0.47506 0.0
H815 H 0.85618 0.43714 0.4143 0.0
H816 H 0.96975 0.5349 0.43201 0.0
H817 H 0.93184 0.50488 0.44172 0.0
H818 H 0.96219 0.45026 0.46702 0.0
C819 C 0.85443 0.39418 0.45659 0.0
C820 C 0.87918 0.43989 0.42603 0.0
C821 C 0.82971 0.37496 0.45309 0.0
C822 C 0.9746 0.51972 0.43364 0.0
C823 C 0.95296 0.50255 0.43904 0.0
C824 C 0.93906 0.44761 0.45562 0.0
C825 C 0.86126 0.40302 0.43638 0.0
C826 C 0.8856 0.42417 0.43954 0.0
C827 C 0.95794 0.48228 0.43992 0.0
C828 C 0.93279 0.46301 0.44142 0.0
H829 H 0.80676 0.36449 0.39062 0.0
H830 H 0.84923 0.39799 0.39676 0.0
H831 H 0.92111 0.41651 0.46538 0.0
H832 H 0.02813 0.49477 0.42762 0.0
H833 H 0.99024 0.46454 0.437 0.0
C834 C 0.10644 0.31959 0.76903 0.0
C835 C 0.11726 0.31169 0.75005 0.0
C836 C 0.0927 0.33597 0.7666 0.0
C837 C 0.05739 0.36506 0.72191 0.0
H838 H 0.08578 0.41207 0.77805 0.0
C839 C 0.00688 0.4366 0.72719 0.0
C840 C 0.02809 0.45747 0.73754 0.0
C841 C 0.01648 0.41815 0.72784 0.0
C842 C 0.07776 0.39914 0.76216 0.0
H843 H 0.12127 0.31428 0.71333 0.0
H844 H 0.09727 0.34293 0.70907 0.0
H845 H 0.10376 0.38057 0.78055 0.0
H846 H 0.07622 0.47535 0.75594 0.0
H847 H 0.09293 0.44319 0.75712 0.0
H848 H 0.0319 0.38398 0.70337 0.0
C849 C 0.09915 0.33631 0.72575 0.0
C850 C 0.08774 0.38095 0.7637 0.0
C851 C 0.11289 0.31989 0.72818 0.0
C852 C 0.05919 0.45949 0.74821 0.0
C853 C 0.06877 0.44106 0.74888 0.0
C854 C 0.04731 0.38328 0.72039 0.0
C855 C 0.0895 0.34484 0.74514 0.0
C856 C 0.07777 0.36373 0.74357 0.0
C857 C 0.04748 0.42017 0.7389 0.0
C858 C 0.05757 0.40058 0.74047 0.0
H859 H 0.10902 0.31332 0.78594 0.0
H860 H 0.08493 0.34189 0.78167 0.0
H861 H 0.04915 0.35199 0.70614 0.0
H862 H 0.98268 0.43447 0.71911 0.0
H863 H -0.00054 0.40226 0.72023 0.0
C864 C 0.27113 0.74343 0.27623 0.0
C865 C 0.25109 0.75475 0.26637 0.0
C866 C 0.26021 0.72522 0.2866 0.0
C867 C 0.20146 0.70475 0.31776 0.0
H868 H 0.21355 0.64852 0.30532 0.0
C869 C 0.13204 0.63104 0.34946 0.0
C870 C 0.14664 0.61622 0.35807 0.0
C871 C 0.14705 0.64766 0.33883 0.0
C872 C 0.21041 0.66425 0.30929 0.0
H873 H 0.20353 0.75484 0.25769 0.0
H874 H 0.18469 0.72336 0.27592 0.0
H875 H 0.23588 0.67755 0.28455 0.0
H876 H 0.18793 0.60669 0.36224 0.0
H877 H 0.21485 0.63627 0.34412 0.0
H878 H 0.17642 0.69188 0.34259 0.0
C879 C 0.20887 0.72873 0.27607 0.0
C880 C 0.2231 0.68079 0.29733 0.0
C881 C 0.21965 0.74672 0.26564 0.0
C882 C 0.17648 0.61817 0.35587 0.0
C883 C 0.19167 0.63493 0.34533 0.0
C884 C 0.1891 0.68839 0.32984 0.0
C885 C 0.22919 0.71821 0.28731 0.0
C886 C 0.2181 0.70102 0.30108 0.0
C887 C 0.17711 0.6499 0.33671 0.0
C888 C 0.19278 0.66777 0.32536 0.0
H889 H 0.29548 0.7493 0.27709 0.0
H890 H 0.27631 0.71733 0.29513 0.0
H891 H 0.19786 0.72038 0.3214 0.0
H892 H 0.10884 0.6296 0.35078 0.0
H893 H 0.13484 0.65857 0.33192 0.0
C894 C 0.82741 0.88806 0.76935 0.0
C895 C 0.81804 0.86592 0.75864 0.0
C896 C 0.82623 0.90385 0.75481 0.0
C897 C 0.78687 0.91031 0.69357 0.0
H898 H 0.84752 0.968 0.71287 0.0
C899 C 0.78615 0.97872 0.6364 0.0
C900 C 0.79084 0.99934 0.64973 0.0
C901 C 0.7901 0.96181 0.6486 0.0
C902 C 0.83032 0.95199 0.70735 0.0
H903 H 0.801 0.84307 0.72417 0.0
H904 H 0.79972 0.87076 0.69867 0.0
H905 H 0.85507 0.93951 0.73564 0.0
H906 H 0.80246 0.0186 0.6859 0.0
H907 H 0.80965 0.98907 0.70742 0.0
H908 H 0.76223 0.92292 0.6652 0.0
C909 C 0.80743 0.87584 0.71838 0.0
C910 C 0.83461 0.93567 0.72039 0.0
C911 C 0.80851 0.86 0.73298 0.0
C912 C 0.79899 0.00279 0.67537 0.0
C913 C 0.80323 0.98598 0.68759 0.0
C914 C 0.78272 0.92662 0.6804 0.0
C915 C 0.81586 0.89793 0.72915 0.0
C916 C 0.81268 0.91472 0.71393 0.0
C917 C 0.79903 0.96536 0.67433 0.0
C918 C 0.80416 0.94771 0.68741 0.0
H919 H 0.83529 0.8932 0.78906 0.0
H920 H 0.83258 0.92064 0.76378 0.0
H921 H 0.76931 0.89446 0.68828 0.0
H922 H 0.77985 0.97582 0.61657 0.0
H923 H 0.78684 0.94612 0.63795 0.0
C924 C 0.69197 0.33981 0.37786 0.0
C925 C 0.70419 0.3225 0.37991 0.0
C926 C 0.6694 0.33927 0.35681 0.0
C927 C 0.61422 0.303 0.29984 0.0
H928 H 0.62706 0.35679 0.27442 0.0
C929 C 0.56099 0.30599 0.19927 0.0
C930 C 0.54805 0.32268 0.19462 0.0
C931 C 0.57768 0.30591 0.22288 0.0
C932 C 0.62291 0.34172 0.28143 0.0
H933 H 0.70169 0.29074 0.36196 0.0
H934 H 0.66261 0.28987 0.325 0.0
H935 H 0.65943 0.3563 0.31424 0.0
H936 H 0.54253 0.35238 0.2113 0.0
H937 H 0.57227 0.35243 0.25251 0.0
H938 H 0.57826 0.28835 0.26655 0.0
C939 C 0.67002 0.30373 0.33979 0.0
C940 C 0.64139 0.34143 0.3043 0.0
C941 C 0.69244 0.30421 0.36096 0.0
C942 C 0.55255 0.33945 0.21415 0.0
C943 C 0.56946 0.33944 0.23777 0.0
C944 C 0.59588 0.30328 0.27688 0.0
C945 C 0.65873 0.32148 0.33724 0.0
C946 C 0.63749 0.32202 0.3137 0.0
C947 C 0.58206 0.3226 0.24238 0.0
C948 C 0.60027 0.32259 0.26733 0.0
H949 H 0.70038 0.35399 0.39237 0.0
H950 H 0.66072 0.35299 0.35569 0.0
H951 H 0.61024 0.28787 0.30668 0.0
H952 H 0.55853 0.29306 0.1846 0.0
H953 H 0.58763 0.29295 0.22579 0.0
C954 C 0.18784 0.22114 0.68455 0.0
C955 C 0.16319 0.2228 0.69386 0.0
C956 C 0.1833 0.20415 0.66556 0.0
C957 C 0.13839 0.14849 0.63856 0.0
H958 H 0.16455 0.16201 0.58079 0.0
C959 C 0.12897 0.0809 0.55948 0.0
C960 C 0.15369 0.08465 0.54867 0.0
C961 C 0.12662 0.09757 0.57586 0.0
C962 C 0.15745 0.15789 0.5969 0.0
H963 H 0.11459 0.20785 0.69116 0.0
H964 H 0.10686 0.17761 0.65822 0.0
H965 H 0.1675 0.19145 0.61237 0.0
H966 H 0.19484 0.10919 0.54626 0.0
H967 H 0.19171 0.13762 0.57556 0.0
H968 H 0.1298 0.115 0.62383 0.0
C969 C 0.12953 0.1897 0.66543 0.0
C970 C 0.15895 0.17478 0.61487 0.0
C971 C 0.13393 0.207 0.68414 0.0
C972 C 0.17581 0.1055 0.55454 0.0
C973 C 0.17367 0.12201 0.57107 0.0
C974 C 0.13737 0.13155 0.62075 0.0
C975 C 0.15415 0.18827 0.65589 0.0
C976 C 0.14987 0.17024 0.63599 0.0
C977 C 0.14904 0.11834 0.58193 0.0
C978 C 0.14741 0.13607 0.59988 0.0
H979 H 0.21061 0.23311 0.69183 0.0
H980 H 0.20269 0.20325 0.65863 0.0
H981 H 0.13142 0.14464 0.65481 0.0
H982 H 0.11162 0.06502 0.55555 0.0
H983 H 0.10716 0.09418 0.58367 0.0
C984 C 0.33198 0.78118 0.16666 0.0
C985 C 0.3384 0.7935 0.19003 0.0
C986 C 0.35206 0.78688 0.15201 0.0
C987 C 0.41752 0.83279 0.14611 0.0
H988 H 0.42772 0.78746 0.10194 0.0
C989 C 0.51528 0.84437 0.09684 0.0
C990 C 0.50544 0.83593 0.07162 0.0
C991 C 0.49425 0.84053 0.11098 0.0
C992 C 0.42489 0.80028 0.11409 0.0
H993 H 0.37123 0.82103 0.21687 0.0
H994 H 0.40705 0.83044 0.19189 0.0
H995 H 0.39323 0.77756 0.12786 0.0
H996 H 0.46616 0.81755 0.04114 0.0
H997 H 0.42939 0.81023 0.06605 0.0
H998 H 0.4504 0.85536 0.13282 0.0
C999 C 0.38597 0.81686 0.18433 0.0
C1000 C 0.405 0.79465 0.12888 0.0
C1001 C 0.36556 0.81139 0.19877 0.0
C1002 C 0.47417 0.82408 0.06061 0.0
C1003 C 0.45328 0.81988 0.07481 0.0
C1004 C 0.43788 0.83836 0.13162 0.0
C1005 C 0.3794 0.80479 0.16064 0.0
C1006 C 0.4009 0.81083 0.14503 0.0
C1007 C 0.46322 0.82787 0.10015 0.0
C1008 C 0.44158 0.82215 0.11541 0.0
H1009 H 0.31107 0.76738 0.1595 0.0
H1010 H 0.34581 0.7774 0.13376 0.0
H1011 H 0.4146 0.84576 0.15792 0.0
H1012 H 0.53936 0.8535 0.10564 0.0
H1013 H 0.50244 0.84677 0.13051 0.0
C1014 C 0.7884 0.27259 0.50245 0.0
C1015 C 0.77623 0.2715 0.47734 0.0
C1016 C 0.78745 0.25355 0.5119 0.0
C1017 C 0.7487 0.19344 0.49643 0.0
H1018 H 0.81676 0.19338 0.54997 0.0
C1019 C 0.7665 0.11511 0.52798 0.0
C1020 C 0.77369 0.11564 0.55332 0.0
C1021 C 0.76541 0.13399 0.51873 0.0
C1022 C 0.79748 0.19322 0.53514 0.0
H1023 H 0.75418 0.24973 0.44224 0.0
H1024 H 0.75343 0.21661 0.45849 0.0
H1025 H 0.81825 0.2266 0.53365 0.0
H1026 H 0.7855 0.13596 0.58893 0.0
H1027 H 0.7841 0.16915 0.57281 0.0
H1028 H 0.72846 0.15978 0.49762 0.0
C1029 C 0.76284 0.23205 0.47113 0.0
C1030 C 0.79824 0.21228 0.52582 0.0
C1031 C 0.76345 0.25107 0.46175 0.0
C1032 C 0.77977 0.13525 0.5693 0.0
C1033 C 0.77911 0.15418 0.56009 0.0
C1034 C 0.74815 0.1743 0.50556 0.0
C1035 C 0.77469 0.233 0.49636 0.0
C1036 C 0.77383 0.21268 0.50635 0.0
C1037 C 0.77207 0.15376 0.53473 0.0
C1038 C 0.7725 0.17403 0.52504 0.0
H1039 H 0.79828 0.28817 0.51484 0.0
H1040 H 0.79636 0.25497 0.53146 0.0
H1041 H 0.7292 0.19317 0.48176 0.0
H1042 H 0.76219 0.10018 0.51541 0.0
H1043 H 0.76022 0.13327 0.49912 0.0
C1044 C 0.22869 0.28577 0.80291 0.0
C1045 C 0.20037 0.28933 0.80279 0.0
C1046 C 0.25164 0.28956 0.82487 0.0
C1047 C 0.27993 0.32081 0.8873 0.0
H1048 H 0.31747 0.27615 0.90248 0.0
C1049 C 0.35673 0.32502 0.98363 0.0
C1050 C 0.38129 0.31639 0.98555 0.0
C1051 C 0.33589 0.32267 0.96088 0.0
C1052 C 0.3077 0.28899 0.8984 0.0
H1053 H 0.17397 0.29939 0.82591 0.0
H1054 H 0.21444 0.30657 0.86409 0.0
H1055 H 0.27896 0.27023 0.86349 0.0
H1056 H 0.40419 0.29935 0.96525 0.0
H1057 H 0.3685 0.29583 0.9254 0.0
H1058 H 0.30893 0.33979 0.92191 0.0
C1059 C 0.21878 0.30092 0.84711 0.0
C1060 C 0.28552 0.28552 0.87609 0.0
C1061 C 0.19567 0.29685 0.82521 0.0
C1062 C 0.38518 0.3059 0.96426 0.0
C1063 C 0.36461 0.3038 0.94147 0.0
C1064 C 0.30242 0.32443 0.90949 0.0
C1065 C 0.24695 0.29727 0.84714 0.0
C1066 C 0.27123 0.3013 0.87043 0.0
C1067 C 0.33942 0.31187 0.93951 0.0
C1068 C 0.31642 0.30848 0.91544 0.0
H1069 H 0.23339 0.28037 0.78599 0.0
H1070 H 0.2733 0.28681 0.8244 0.0
H1071 H 0.2695 0.33335 0.88323 0.0
H1072 H 0.35306 0.33299 -0.00018 0.0
H1073 H 0.31654 0.32879 0.9602 0.0
C1074 C 0.22198 0.82729 0.2703 0.0
C1075 C 0.25303 0.83186 0.26978 0.0
C1076 C 0.21203 0.84321 0.28114 0.0
C1077 C 0.22799 0.90136 0.30121 0.0
H1078 H 0.1911 0.88342 0.35297 0.0
C1079 C 0.21024 0.96248 0.37341 0.0
C1080 C 0.18559 0.95541 0.38392 0.0
C1081 C 0.21626 0.94796 0.3568 0.0
C1082 C 0.20068 0.88865 0.33826 0.0
H1083 H 0.2975 0.85721 0.27894 0.0
H1084 H 0.27974 0.8853 0.29748 0.0
H1085 H 0.20548 0.85748 0.32805 0.0
H1086 H 0.14706 0.92752 0.3841 0.0
H1087 H 0.15637 0.90267 0.35416 0.0
H1088 H 0.22272 0.93246 0.31107 0.0
C1089 C 0.26332 0.86924 0.2896 0.0
C1090 C 0.20911 0.87378 0.32409 0.0
C1091 C 0.27343 0.85318 0.27896 0.0
C1092 C 0.16616 0.93368 0.37637 0.0
C1093 C 0.17184 0.91927 0.35944 0.0
C1094 C 0.21905 0.91622 0.31515 0.0
C1095 C 0.23275 0.86417 0.29137 0.0
C1096 C 0.22301 0.88001 0.30556 0.0
C1097 C 0.19745 0.92605 0.34991 0.0
C1098 C 0.20547 0.91009 0.33401 0.0
H1099 H 0.20545 0.8112 0.26279 0.0
H1100 H 0.18822 0.83902 0.28197 0.0
H1101 H 0.23853 0.90648 0.2869 0.0
H1102 H 0.2253 0.97921 0.37827 0.0
H1103 H 0.2363 0.95383 0.35004 0.0
C1104 C 0.77035 0.81991 0.8366 0.0
C1105 C 0.79133 0.83788 0.83152 0.0
C1106 C 0.75726 0.82248 0.85594 0.0
C1107 C 0.73901 0.86407 0.89336 0.0
H1108 H 0.72422 0.82023 0.93386 0.0
C1109 C 0.65279 0.85784 0.95202 0.0
C1110 C 0.66067 0.8519 0.97489 0.0
C1111 C 0.67168 0.85798 0.93629 0.0
C1112 C 0.72851 0.83277 0.92291 0.0
H1113 H 0.81603 0.87244 0.84337 0.0
H1114 H 0.79317 0.87692 0.87714 0.0
H1115 H 0.75248 0.81656 0.90354 0.0
H1116 H 0.69441 0.84208 -0.00011 0.0
H1117 H 0.72784 0.84247 0.97248 0.0
H1118 H 0.71506 0.88029 0.91274 0.0
C1119 C 0.78643 0.86093 0.8659 0.0
C1120 C 0.74438 0.83052 0.90535 0.0
C1121 C 0.79952 0.85836 0.84657 0.0
C1122 C 0.68807 0.84669 0.98223 0.0
C1123 C 0.70696 0.84678 0.96651 0.0
C1124 C 0.72309 0.8663 0.91089 0.0
C1125 C 0.76488 0.84307 0.87063 0.0
C1126 C 0.74954 0.84603 0.89021 0.0
C1127 C 0.69873 0.85211 0.94321 0.0
C1128 C 0.71739 0.85056 0.92569 0.0
H1129 H 0.7633 0.80398 0.82515 0.0
H1130 H 0.74042 0.80846 0.8589 0.0
H1131 H 0.74236 0.87621 0.88183 0.0
H1132 H 0.63158 0.86178 0.94608 0.0
H1133 H 0.6645 0.86192 0.91837 0.0
loop_
_geom_bond_atom_site_label_1
_geom_bond_atom_site_label_2
_geom_bond_distance
_geom_bond_site_symmetry_2
_ccdc_geom_bond_type
H0 C5 0.930 . S
H1 C8 0.930 . S
H2 C10 0.930 . S
H3 C4 1.016 . S
C4 H3 1.016 . S
C4 N11 1.286 . S
C5 H0 0.930 . S
C5 C6 1.397 . S
C5 C7 1.361 . S
C6 C5 1.397 . S
C6 C10 1.390 . S
C7 C5 1.361 . S
C7 C8 1.393 . S
C7 N11 1.413 . S
C8 H1 0.930 . S
C8 C7 1.393 . S
C8 C9 1.399 . S
C9 C8 1.399 . S
C9 C10 1.381 . S
C10 H2 0.930 . S
C10 C6 1.390 . S
C10 C9 1.381 . S
N11 C4 1.286 . S
N11 C7 1.413 . S
H12 C17 0.930 . S
H13 C20 0.930 . S
H14 C22 0.930 . S
H15 C16 1.016 . S
C16 H15 1.016 . S
C16 N23 1.286 . S
C17 H12 0.930 . S
C17 C18 1.397 . S
C17 C19 1.361 . S
C18 C17 1.397 . S
C18 C22 1.390 . S
C19 C17 1.361 . S
C19 C20 1.393 . S
C19 N23 1.413 . S
C20 H13 0.930 . S
C20 C19 1.393 . S
C20 C21 1.399 . S
C21 C20 1.399 . S
C21 C22 1.381 . S
C22 H14 0.930 . S
C22 C18 1.390 . S
C22 C21 1.381 . S
N23 C16 1.286 . S
N23 C19 1.413 . S
H24 C29 0.930 . S
H25 C32 0.930 . S
H26 C34 0.930 . S
H27 C28 1.016 . S
C28 H27 1.016 . S
C28 N35 1.286 . S
C29 H24 0.930 . S
C29 C30 1.397 . S
C29 C31 1.361 . S
C30 C29 1.397 . S
C30 C34 1.390 . S
C31 C29 1.361 . S
C31 C32 1.393 . S
C31 N35 1.413 . S
C32 H25 0.930 . S
C32 C31 1.393 . S
C32 C33 1.399 . S
C33 C32 1.399 . S
C33 C34 1.381 . S
C34 H26 0.930 . S
C34 C30 1.390 . S
C34 C33 1.381 . S
N35 C28 1.286 . S
N35 C31 1.413 . S
H36 C41 0.930 . S
H37 C44 0.930 . S
H38 C46 0.930 . S
H39 C40 1.016 . S
C40 H39 1.016 . S
C40 N47 1.286 . S
C41 H36 0.930 . S
C41 C42 1.397 . S
C41 C43 1.361 . S
C42 C41 1.397 . S
C42 C46 1.390 . S
C43 C41 1.361 . S
C43 C44 1.393 . S
C43 N47 1.413 . S
C44 H37 0.930 . S
C44 C43 1.393 . S
C44 C45 1.399 . S
C45 C44 1.399 . S
C45 C46 1.381 . S
C46 H38 0.930 . S
C46 C42 1.390 . S
C46 C45 1.381 . S
N47 C40 1.286 . S
N47 C43 1.413 . S
H48 C53 0.930 . S
H49 C56 0.930 . S
H50 C58 0.930 . S
H51 C52 1.016 . S
C52 H51 1.016 . S
C52 N59 1.286 . S
C53 H48 0.930 . S
C53 C54 1.397 . S
C53 C55 1.361 . S
C54 C53 1.397 . S
C54 C58 1.390 . S
C55 C53 1.361 . S
C55 C56 1.393 . S
C55 N59 1.413 . S
C56 H49 0.930 . S
C56 C55 1.393 . S
C56 C57 1.399 . S
C57 C56 1.399 . S
C57 C58 1.381 . S
C58 H50 0.930 . S
C58 C54 1.390 . S
C58 C57 1.381 . S
N59 C52 1.286 . S
N59 C55 1.413 . S
H60 C65 0.930 . S
H61 C68 0.930 . S
H62 C70 0.930 . S
H63 C64 1.016 . S
C64 H63 1.016 . S
C64 N71 1.286 . S
C65 H60 0.930 . S
C65 C66 1.397 . S
C65 C67 1.361 . S
C66 C65 1.397 . S
C66 C70 1.390 . S
C67 C65 1.361 . S
C67 C68 1.393 . S
C67 N71 1.413 . S
C68 H61 0.930 . S
C68 C67 1.393 . S
C68 C69 1.399 . S
C69 C68 1.399 . S
C69 C70 1.381 . S
C70 H62 0.930 . S
C70 C66 1.390 . S
C70 C69 1.381 . S
N71 C64 1.286 . S
N71 C67 1.413 . S
H72 C77 0.930 . S
H73 C80 0.930 . S
H74 C82 0.930 . S
H75 C76 1.016 . S
C76 H75 1.016 . S
C76 N83 1.286 . S
C77 H72 0.930 . S
C77 C78 1.397 . S
C77 C79 1.361 . S
C78 C77 1.397 . S
C78 C82 1.390 . S
C79 C77 1.361 . S
C79 C80 1.393 . S
C79 N83 1.413 . S
C80 H73 0.930 . S
C80 C79 1.393 . S
C80 C81 1.399 . S
C81 C80 1.399 . S
C81 C82 1.381 . S
C82 H74 0.930 . S
C82 C78 1.390 . S
C82 C81 1.381 . S
N83 C76 1.286 . S
N83 C79 1.413 . S
H84 C89 0.930 . S
H85 C92 0.930 . S
H86 C94 0.930 . S
H87 C88 1.016 . S
C88 H87 1.016 . S
C88 N95 1.286 . S
C89 H84 0.930 . S
C89 C90 1.397 . S
C89 C91 1.361 . S
C90 C89 1.397 . S
C90 C94 1.390 . S
C91 C89 1.361 . S
C91 C92 1.393 . S
C91 N95 1.413 . S
C92 H85 0.930 . S
C92 C91 1.393 . S
C92 C93 1.399 . S
C93 C92 1.399 . S
C93 C94 1.381 . S
C94 H86 0.930 . S
C94 C90 1.390 . S
C94 C93 1.381 . S
N95 C88 1.286 . S
N95 C91 1.413 . S
C96 C97 1.443 . S
C96 N100 1.376 . S
C96 C134 1.389 . S
C97 C96 1.443 . S
C97 C98 1.340 . S
C97 H137 0.951 . S
C98 C97 1.340 . S
C98 C99 1.439 . S
C98 H138 0.950 . S
C99 C98 1.439 . S
C99 N100 1.374 . S
C99 C133 1.395 . S
N100 C96 1.376 . S
N100 C99 1.374 . S
N100 Co101 2.008 . S
Co101 N100 2.008 . S
Co101 N102 1.995 . S
Co101 N107 2.008 . S
Co101 N112 1.995 . S
Co101 N117 2.282 . S
Co101 N123 2.282 . S
N102 Co101 1.995 . S
N102 C103 1.376 . S
N102 C106 1.383 . S
C103 N102 1.376 . S
C103 C104 1.446 . S
C103 C133 1.391 . S
C104 C103 1.446 . S
C104 C105 1.339 . S
C104 H139 0.949 . S
C105 C104 1.339 . S
C105 C106 1.439 . S
C105 H140 0.950 . S
C106 N102 1.383 . S
C106 C105 1.439 . S
C106 C135 1.392 . S
N107 Co101 2.008 . S
N107 C108 1.376 . S
N107 C111 1.374 . S
C108 N107 1.376 . S
C108 C109 1.443 . S
C108 C135 1.389 . S
C109 C108 1.443 . S
C109 C110 1.340 . S
C109 H141 0.951 1_455 S
C110 C109 1.340 . S
C110 C111 1.439 . S
C110 H142 0.950 . S
C111 N107 1.374 . S
C111 C110 1.439 . S
C111 C136 1.395 . S
N112 Co101 1.995 . S
N112 C113 1.376 . S
N112 C116 1.383 . S
C113 N112 1.376 . S
C113 C114 1.446 . S
C113 C136 1.391 . S
C114 C113 1.446 . S
C114 C115 1.339 . S
C114 H143 0.949 . S
C115 C114 1.339 . S
C115 C116 1.439 . S
C115 H144 0.950 . S
C116 N112 1.383 . S
C116 C115 1.439 . S
C116 C134 1.392 . S
N117 Co101 2.282 . S
N117 C120 1.332 . S
N117 C122 1.332 . S
C118 C119 1.386 . S
C118 C121 1.388 . S
C119 C118 1.386 . S
C119 C120 1.382 . S
C119 H145 0.950 . S
C120 N117 1.332 . S
C120 C119 1.382 . S
C120 H131 0.952 . S
C121 C118 1.388 . S
C121 C122 1.382 . S
C121 H146 0.950 . S
C122 N117 1.332 . S
C122 C121 1.382 . S
C122 H132 0.948 . S
N123 Co101 2.282 . S
N123 C127 1.332 . S
N123 C128 1.332 . S
C124 C125 1.388 . S
C124 C128 1.382 . S
C124 H147 0.950 . S
C125 C124 1.388 . S
C125 C126 1.386 . S
C126 C125 1.386 . S
C126 C127 1.382 . S
C126 H148 0.950 . S
C127 N123 1.332 . S
C127 C126 1.382 . S
C127 H129 0.952 . S
C128 N123 1.332 . S
C128 C124 1.382 . S
C128 H130 0.948 . S
H129 C127 0.952 . S
H130 C128 0.948 . S
H131 C120 0.952 . S
H132 C122 0.948 . S
C133 C99 1.395 . S
C133 C103 1.391 . S
C134 C96 1.389 . S
C134 C116 1.392 . S
C135 C106 1.392 . S
C135 C108 1.389 . S
C136 C111 1.395 . S
C136 C113 1.391 . S
H137 C97 0.951 . S
H138 C98 0.950 . S
H139 C104 0.949 . S
H140 C105 0.950 . S
H141 C109 0.951 1_655 S
H142 C110 0.950 . S
H143 C114 0.949 . S
H144 C115 0.950 . S
H145 C119 0.950 . S
H146 C121 0.950 . S
H147 C124 0.950 . S
H148 C126 0.950 . S
C149 C150 1.443 . S
C149 N153 1.376 . S
C149 C187 1.389 . S
C150 C149 1.443 . S
C150 C151 1.340 . S
C150 H190 0.951 . S
C151 C150 1.340 . S
C151 C152 1.439 . S
C151 H191 0.950 . S
C152 C151 1.439 . S
C152 N153 1.374 . S
C152 C186 1.395 . S
N153 C149 1.376 . S
N153 C152 1.374 . S
N153 Co154 2.008 . S
Co154 N153 2.008 . S
Co154 N155 1.995 1_455 S
Co154 N160 2.008 1_455 S
Co154 N165 1.995 . S
Co154 N170 2.282 . S
Co154 N176 2.282 1_455 S
N155 Co154 1.995 1_655 S
N155 C156 1.376 1_655 S
N155 C159 1.383 . S
C156 N155 1.376 1_455 S
C156 C157 1.459 . S
C156 C186 1.391 . S
C157 C156 1.459 . S
C157 C158 1.322 1_455 S
C157 H192 0.953 . S
C158 C157 1.322 1_655 S
C158 C159 1.439 . S
C158 H193 0.950 . S
C159 N155 1.383 . S
C159 C158 1.439 . S
C159 C188 1.392 . S
N160 Co154 2.008 1_655 S
N160 C161 1.376 . S
N160 C164 1.374 . S
C161 N160 1.376 . S
C161 C162 1.443 . S
C161 C188 1.389 . S
C162 C161 1.443 . S
C162 C163 1.340 . S
C162 H194 0.951 . S
C163 C162 1.340 . S
C163 C164 1.439 . S
C163 H195 0.950 . S
C164 N160 1.374 . S
C164 C163 1.439 . S
C164 C189 1.395 . S
N165 Co154 1.995 . S
N165 C166 1.376 1_455 S
N165 C169 1.383 . S
C166 N165 1.376 1_655 S
C166 C167 1.456 . S
C166 C189 1.391 . S
C167 C166 1.456 . S
C167 C168 1.327 1_655 S
C167 H196 0.952 . S
C168 C167 1.327 1_455 S
C168 C169 1.439 . S
C168 H197 0.950 . S
C169 N165 1.383 . S
C169 C168 1.439 . S
C169 C187 1.392 . S
N170 Co154 2.282 . S
N170 C173 1.332 . S
N170 C175 1.332 . S
C171 C172 1.386 . S
C171 C174 1.388 . S
C172 C171 1.386 . S
C172 C173 1.382 . S
C172 H198 0.950 . S
C173 N170 1.332 . S
C173 C172 1.382 . S
C173 H184 0.952 . S
C174 C171 1.388 . S
C174 C175 1.382 . S
C174 H199 0.950 . S
C175 N170 1.332 . S
C175 C174 1.382 . S
C175 H185 0.948 . S
N176 Co154 2.282 1_655 S
N176 C180 1.332 . S
N176 C181 1.332 . S
C177 C178 1.388 . S
C177 C181 1.382 . S
C177 H200 0.950 . S
C178 C177 1.388 . S
C178 C179 1.386 . S
C179 C178 1.386 . S
C179 C180 1.382 . S
C179 H201 0.950 . S
C180 N176 1.332 . S
C180 C179 1.382 . S
C180 H182 0.952 . S
C181 N176 1.332 . S
C181 C177 1.382 . S
C181 H183 0.948 . S
H182 C180 0.952 . S
H183 C181 0.948 . S
H184 C173 0.952 . S
H185 C175 0.948 . S
C186 C152 1.395 . S
C186 C156 1.391 . S
C187 C149 1.389 . S
C187 C169 1.392 . S
C188 C159 1.392 . S
C188 C161 1.389 . S
C189 C164 1.395 . S
C189 C166 1.391 . S
H190 C150 0.951 . S
H191 C151 0.950 . S
H192 C157 0.953 . S
H193 C158 0.950 . S
H194 C162 0.951 . S
H195 C163 0.950 . S
H196 C167 0.952 . S
H197 C168 0.950 . S
H198 C172 0.950 . S
H199 C174 0.950 . S
H200 C177 0.950 . S
H201 C179 0.950 . S
C202 C203 1.443 . S
C202 N206 1.376 . S
C202 C240 1.389 . S
C203 C202 1.443 . S
C203 C204 1.340 . S
C203 H243 0.951 . S
C204 C203 1.340 . S
C204 C205 1.439 1_565 S
C204 H244 0.950 . S
C205 C204 1.439 1_545 S
C205 N206 1.374 1_545 S
C205 C239 1.395 . S
N206 C202 1.376 . S
N206 C205 1.374 1_565 S
N206 Co207 2.008 1_565 S
Co207 N206 2.008 1_545 S
Co207 N208 1.995 . S
Co207 N213 2.008 . S
Co207 N218 1.995 1_545 S
Co207 N223 2.282 . S
Co207 N229 2.282 1_545 S
N208 Co207 1.995 . S
N208 C209 1.376 . S
N208 C212 1.383 . S
C209 N208 1.376 . S
C209 C210 1.446 . S
C209 C239 1.391 . S
C210 C209 1.446 . S
C210 C211 1.339 . S
C210 H245 0.949 . S
C211 C210 1.339 . S
C211 C212 1.439 . S
C211 H246 0.950 . S
C212 N208 1.383 . S
C212 C211 1.439 . S
C212 C241 1.392 . S
N213 Co207 2.008 . S
N213 C214 1.376 . S
N213 C217 1.374 1_545 S
C214 N213 1.376 . S
C214 C215 1.443 . S
C214 C241 1.389 . S
C215 C214 1.443 . S
C215 C216 1.340 . S
C215 H247 0.951 . S
C216 C215 1.340 . S
C216 C217 1.439 1_545 S
C216 H248 0.950 . S
C217 N213 1.374 1_565 S
C217 C216 1.439 1_565 S
C217 C242 1.395 . S
N218 Co207 1.995 1_565 S
N218 C219 1.376 . S
N218 C222 1.383 . S
C219 N218 1.376 . S
C219 C220 1.446 . S
C219 C242 1.391 . S
C220 C219 1.446 . S
C220 C221 1.339 . S
C220 H249 0.949 . S
C221 C220 1.339 . S
C221 C222 1.439 . S
C221 H250 0.950 . S
C222 N218 1.383 . S
C222 C221 1.439 . S
C222 C240 1.392 . S
N223 Co207 2.282 . S
N223 C226 1.332 . S
N223 C228 1.332 . S
C224 C225 1.386 . S
C224 C227 1.388 . S
C225 C224 1.386 . S
C225 C226 1.382 . S
C225 H251 0.950 . S
C226 N223 1.332 . S
C226 C225 1.382 . S
C226 H237 0.952 . S
C227 C224 1.388 . S
C227 C228 1.382 . S
C227 H252 0.950 . S
C228 N223 1.332 . S
C228 C227 1.382 . S
C228 H238 0.948 . S
N229 Co207 2.282 1_565 S
N229 C233 1.332 . S
N229 C234 1.332 . S
C230 C231 1.388 . S
C230 C234 1.382 . S
C230 H253 0.950 . S
C231 C230 1.388 . S
C231 C232 1.386 . S
C232 C231 1.386 . S
C232 C233 1.382 . S
C232 H254 0.950 . S
C233 N229 1.332 . S
C233 C232 1.382 . S
C233 H235 0.952 . S
C234 N229 1.332 . S
C234 C230 1.382 . S
C234 H236 0.948 . S
H235 C233 0.952 . S
H236 C234 0.948 . S
H237 C226 0.952 . S
H238 C228 0.948 . S
C239 C205 1.395 . S
C239 C209 1.391 . S
C240 C202 1.389 . S
C240 C222 1.392 . S
C241 C212 1.392 . S
C241 C214 1.389 . S
C242 C217 1.395 . S
C242 C219 1.391 . S
H243 C203 0.951 . S
H244 C204 0.950 . S
H245 C210 0.949 . S
H246 C211 0.950 . S
H247 C215 0.951 . S
H248 C216 0.950 . S
H249 C220 0.949 . S
H250 C221 0.950 . S
H251 C225 0.950 . S
H252 C227 0.950 . S
H253 C230 0.950 . S
H254 C232 0.950 . S
C255 C256 1.443 . S
C255 N259 1.376 . S
C255 C293 1.389 . S
C256 C255 1.443 . S
C256 C257 1.340 . S
C256 H296 0.951 . S
C257 C256 1.340 . S
C257 C258 1.439 . S
C257 H297 0.950 . S
C258 C257 1.439 . S
C258 N259 1.374 . S
C258 C292 1.395 . S
N259 C255 1.376 . S
N259 C258 1.374 . S
N259 Co260 2.008 . S
Co260 N259 2.008 . S
Co260 N261 1.995 . S
Co260 N266 2.015 . S
Co260 N271 1.995 . S
Co260 N276 2.282 1_554 S
Co260 N282 2.282 . S
N261 Co260 1.995 . S
N261 C262 1.376 . S
N261 C265 1.383 1_554 S
C262 N261 1.376 . S
C262 C263 1.446 . S
C262 C292 1.391 . S
C263 C262 1.446 . S
C263 C264 1.339 1_554 S
C263 H298 0.949 . S
C264 C263 1.339 1_556 S
C264 C265 1.439 . S
C264 H299 0.950 . S
C265 N261 1.383 1_556 S
C265 C264 1.439 . S
C265 C294 1.392 . S
N266 Co260 2.015 . S
N266 C267 1.366 1_554 S
N266 C270 1.374 1_554 S
C267 N266 1.366 1_556 S
C267 C268 1.443 . S
C267 C294 1.389 . S
C268 C267 1.443 . S
C268 C269 1.340 . S
C268 H300 0.951 . S
C269 C268 1.340 . S
C269 C270 1.439 . S
C269 H301 0.950 . S
C270 N266 1.374 1_556 S
C270 C269 1.439 . S
C270 C295 1.395 1_556 S
N271 Co260 1.995 . S
N271 C272 1.376 . S
N271 C275 1.383 . S
C272 N271 1.376 . S
C272 C273 1.446 . S
C272 C295 1.391 . S
C273 C272 1.446 . S
C273 C274 1.339 . S
C273 H302 0.949 . S
C274 C273 1.339 . S
C274 C275 1.439 . S
C274 H303 0.950 . S
C275 N271 1.383 . S
C275 C274 1.439 . S
C275 C293 1.392 . S
N276 Co260 2.282 1_556 S
N276 C279 1.332 . S
N276 C281 1.332 . S
C277 C278 1.386 . S
C277 C280 1.388 . S
C278 C277 1.386 . S
C278 C279 1.382 . S
C278 H304 0.950 . S
C279 N276 1.332 . S
C279 C278 1.382 . S
C279 H290 0.952 . S
C280 C277 1.388 . S
C280 C281 1.382 . S
C280 H305 0.950 . S
C281 N276 1.332 . S
C281 C280 1.382 . S
C281 H291 0.948 . S
N282 Co260 2.282 . S
N282 C286 1.332 . S
N282 C287 1.332 . S
C283 C284 1.388 . S
C283 C287 1.382 . S
C283 H306 0.950 . S
C284 C283 1.388 . S
C284 C285 1.386 . S
C285 C284 1.386 . S
C285 C286 1.382 . S
C285 H307 0.950 . S
C286 N282 1.332 . S
C286 C285 1.382 . S
C286 H288 0.952 . S
C287 N282 1.332 . S
C287 C283 1.382 . S
C287 H289 0.948 . S
H288 C286 0.952 . S
H289 C287 0.948 . S
H290 C279 0.952 . S
H291 C281 0.948 . S
C292 C258 1.395 . S
C292 C262 1.391 . S
C293 C255 1.389 . S
C293 C275 1.392 . S
C294 C265 1.392 . S
C294 C267 1.389 . S
C295 C270 1.395 1_554 S
C295 C272 1.391 . S
H296 C256 0.951 . S
H297 C257 0.950 . S
H298 C263 0.949 . S
H299 C264 0.950 . S
H300 C268 0.951 . S
H301 C269 0.950 . S
H302 C273 0.949 . S
H303 C274 0.950 . S
H304 C278 0.950 . S
H305 C280 0.950 . S
H306 C283 0.950 . S
H307 C285 0.950 . S
C308 C309 1.443 . S
C308 N312 1.376 . S
C308 C346 1.389 . S
C309 C308 1.443 . S
C309 C310 1.340 . S
C309 H349 0.951 . S
C310 C309 1.340 . S
C310 C311 1.439 . S
C310 H350 0.950 . S
C311 C310 1.439 . S
C311 N312 1.374 . S
C311 C345 1.395 . S
N312 C308 1.376 . S
N312 C311 1.374 . S
N312 Co313 2.008 . S
Co313 N312 2.008 . S
Co313 N314 1.995 . S
Co313 N319 2.008 . S
Co313 N324 1.995 . S
Co313 N329 2.282 . S
Co313 N335 2.282 . S
N314 Co313 1.995 . S
N314 C315 1.376 . S
N314 C318 1.383 . S
C315 N314 1.376 . S
C315 C316 1.446 . S
C315 C345 1.391 . S
C316 C315 1.446 . S
C316 C317 1.339 . S
C316 H351 0.949 . S
C317 C316 1.339 . S
C317 C318 1.439 . S
C317 H352 0.950 . S
C318 N314 1.383 . S
C318 C317 1.439 . S
C318 C347 1.392 . S
N319 Co313 2.008 . S
N319 C320 1.376 . S
N319 C323 1.374 . S
C320 N319 1.376 . S
C320 C321 1.443 . S
C320 C347 1.389 . S
C321 C320 1.443 . S
C321 C322 1.340 . S
C321 H353 0.951 . S
C322 C321 1.340 . S
C322 C323 1.439 . S
C322 H354 0.950 . S
C323 N319 1.374 . S
C323 C322 1.439 . S
C323 C348 1.395 . S
N324 Co313 1.995 . S
N324 C325 1.376 . S
N324 C328 1.383 . S
C325 N324 1.376 . S
C325 C326 1.422 1_545 S
C325 C348 1.391 . S
C326 C325 1.422 1_565 S
C326 C327 1.355 . S
C326 H355 0.956 . S
C327 C326 1.355 . S
C327 C328 1.439 1_565 S
C327 H356 0.950 . S
C328 N324 1.383 . S
C328 C327 1.439 1_545 S
C328 C346 1.392 . S
N329 Co313 2.282 . S
N329 C332 1.332 . S
N329 C334 1.332 . S
C330 C331 1.386 . S
C330 C333 1.388 . S
C331 C330 1.386 . S
C331 C332 1.382 . S
C331 H357 0.950 . S
C332 N329 1.332 . S
C332 C331 1.382 . S
C332 H343 0.952 . S
C333 C330 1.388 . S
C333 C334 1.382 . S
C333 H358 0.950 . S
C334 N329 1.332 . S
C334 C333 1.382 . S
C334 H344 0.948 . S
N335 Co313 2.282 . S
N335 C339 1.332 . S
N335 C340 1.332 . S
C336 C337 1.388 . S
C336 C340 1.382 1_565 S
C336 H359 0.950 . S
C337 C336 1.388 . S
C337 C338 1.386 1_565 S
C338 C337 1.386 1_545 S
C338 C339 1.382 . S
C338 H360 0.950 . S
C339 N335 1.332 . S
C339 C338 1.382 . S
C339 H341 0.952 . S
C340 N335 1.332 . S
C340 C336 1.382 1_545 S
C340 H342 0.948 . S
H341 C339 0.952 . S
H342 C340 0.948 . S
H343 C332 0.952 . S
H344 C334 0.948 . S
C345 C311 1.395 . S
C345 C315 1.391 . S
C346 C308 1.389 . S
C346 C328 1.392 . S
C347 C318 1.392 . S
C347 C320 1.389 . S
C348 C323 1.395 . S
C348 C325 1.391 . S
H349 C309 0.951 . S
H350 C310 0.950 . S
H351 C316 0.949 . S
H352 C317 0.950 . S
H353 C321 0.951 . S
H354 C322 0.950 . S
H355 C326 0.956 . S
H356 C327 0.950 . S
H357 C331 0.950 . S
H358 C333 0.950 . S
H359 C336 0.950 . S
H360 C338 0.950 . S
C361 C362 1.443 . S
C361 N365 1.376 . S
C361 C399 1.389 . S
C362 C361 1.443 . S
C362 C363 1.340 . S
C362 H402 0.951 . S
C363 C362 1.340 . S
C363 C364 1.439 . S
C363 H403 0.950 . S
C364 C363 1.439 . S
C364 N365 1.374 . S
C364 C398 1.395 . S
N365 C361 1.376 . S
N365 C364 1.374 . S
N365 Co366 2.008 . S
Co366 N365 2.008 . S
Co366 N367 1.995 . S
Co366 N372 2.008 . S
Co366 N377 1.995 . S
Co366 N382 2.282 . S
Co366 N388 2.282 . S
N367 Co366 1.995 . S
N367 C368 1.376 . S
N367 C371 1.383 . S
C368 N367 1.376 . S
C368 C369 1.446 . S
C368 C398 1.391 . S
C369 C368 1.446 . S
C369 C370 1.339 . S
C369 H404 0.949 . S
C370 C369 1.339 . S
C370 C371 1.439 . S
C370 H405 0.950 . S
C371 N367 1.383 . S
C371 C370 1.439 . S
C371 C400 1.392 . S
N372 Co366 2.008 . S
N372 C373 1.376 . S
N372 C376 1.374 . S
C373 N372 1.376 . S
C373 C374 1.443 . S
C373 C400 1.389 . S
C374 C373 1.443 . S
C374 C375 1.340 . S
C374 H406 0.951 . S
C375 C374 1.340 . S
C375 C376 1.439 . S
C375 H407 0.950 . S
C376 N372 1.374 . S
C376 C375 1.439 . S
C376 C401 1.395 . S
N377 Co366 1.995 . S
N377 C378 1.376 . S
N377 C381 1.383 . S
C378 N377 1.376 . S
C378 C379 1.446 . S
C378 C401 1.391 . S
C379 C378 1.446 . S
C379 C380 1.339 . S
C379 H408 0.949 . S
C380 C379 1.339 . S
C380 C381 1.439 . S
C380 H409 0.950 . S
C381 N377 1.383 . S
C381 C380 1.439 . S
C381 C399 1.392 . S
N382 Co366 2.282 . S
N382 C385 1.332 . S
N382 C387 1.332 . S
C383 C384 1.386 . S
C383 C386 1.388 . S
C384 C383 1.386 . S
C384 C385 1.382 . S
C384 H410 0.950 . S
C385 N382 1.332 . S
C385 C384 1.382 . S
C385 H396 0.952 . S
C386 C383 1.388 . S
C386 C387 1.382 . S
C386 H411 0.950 . S
C387 N382 1.332 . S
C387 C386 1.382 . S
C387 H397 0.948 . S
N388 Co366 2.282 . S
N388 C392 1.332 . S
N388 C393 1.332 . S
C389 C390 1.388 . S
C389 C393 1.382 . S
C389 H412 0.950 . S
C390 C389 1.388 . S
C390 C391 1.386 . S
C391 C390 1.386 . S
C391 C392 1.382 . S
C391 H413 0.950 . S
C392 N388 1.332 . S
C392 C391 1.382 . S
C392 H394 0.952 . S
C393 N388 1.332 . S
C393 C389 1.382 . S
C393 H395 0.948 . S
H394 C392 0.952 . S
H395 C393 0.948 . S
H396 C385 0.952 . S
H397 C387 0.948 . S
C398 C364 1.395 . S
C398 C368 1.391 . S
C399 C361 1.389 . S
C399 C381 1.392 . S
C400 C371 1.392 . S
C400 C373 1.389 . S
C401 C376 1.395 . S
C401 C378 1.391 . S
H402 C362 0.951 . S
H403 C363 0.950 . S
H404 C369 0.949 . S
H405 C370 0.950 . S
H406 C374 0.951 . S
H407 C375 0.950 . S
H408 C379 0.949 . S
H409 C380 0.950 . S
H410 C384 0.950 . S
H411 C386 0.950 . S
H412 C389 0.950 . S
H413 C391 0.950 . S
C414 C415 1.349 . S
C414 C416 1.327 . S
C414 H439 0.950 . S
C415 C414 1.349 . S
C415 C431 1.349 . S
C416 C414 1.327 . S
C416 C435 1.429 . S
C416 H440 0.950 . S
C417 C434 1.574 . S
C417 C436 1.368 . S
C417 H441 0.949 . S
H418 C422 0.949 . S
C419 C420 1.349 . S
C419 C421 1.327 . S
C419 H442 0.950 . S
C420 C419 1.349 . S
C420 C432 1.349 . S
C421 C419 1.327 . S
C421 C437 1.429 . S
C421 H443 0.950 . S
C422 H418 0.949 . S
C422 C430 1.574 . S
C422 C438 1.368 . S
H423 C431 0.950 . S
H424 C429 0.950 . S
H425 C430 0.949 . S
H426 C432 0.950 . S
H427 C433 0.950 . S
H428 C434 0.949 . S
C429 H424 0.950 . S
C429 C431 1.327 . S
C429 C435 1.429 . S
C430 C422 1.574 . S
C430 H425 0.949 . S
C430 C436 1.368 . S
C431 C415 1.349 . S
C431 H423 0.950 . S
C431 C429 1.327 . S
C432 C420 1.349 . S
C432 H426 0.950 . S
C432 C433 1.327 . S
C433 H427 0.950 . S
C433 C432 1.327 . S
C433 C437 1.429 . S
C434 C417 1.574 . S
C434 H428 0.949 . S
C434 C438 1.368 . S
C435 C416 1.429 . S
C435 C429 1.429 . S
C435 C436 1.523 . S
C436 C417 1.368 . S
C436 C430 1.368 . S
C436 C435 1.523 . S
C437 C421 1.429 . S
C437 C433 1.429 . S
C437 C438 1.523 . S
C438 C422 1.368 . S
C438 C434 1.368 . S
C438 C437 1.523 . S
H439 C414 0.950 . S
H440 C416 0.950 . S
H441 C417 0.949 . S
H442 C419 0.950 . S
H443 C421 0.950 . S
C444 C445 1.349 . S
C444 C446 1.327 . S
C444 H469 0.950 . S
C445 C444 1.349 . S
C445 C461 1.349 . S
C446 C444 1.327 . S
C446 C465 1.429 . S
C446 H470 0.950 . S
C447 C464 1.574 . S
C447 C466 1.368 . S
C447 H471 0.949 . S
H448 C452 0.949 . S
C449 C450 1.349 . S
C449 C451 1.327 . S
C449 H472 0.950 . S
C450 C449 1.349 . S
C450 C462 1.349 . S
C451 C449 1.327 . S
C451 C467 1.429 . S
C451 H473 0.950 . S
C452 H448 0.949 . S
C452 C460 1.574 . S
C452 C468 1.368 . S
H453 C461 0.950 . S
H454 C459 0.950 . S
H455 C460 0.949 . S
H456 C462 0.950 . S
H457 C463 0.950 . S
H458 C464 0.949 . S
C459 H454 0.950 . S
C459 C461 1.327 . S
C459 C465 1.429 . S
C460 C452 1.574 . S
C460 H455 0.949 . S
C460 C466 1.368 . S
C461 C445 1.349 . S
C461 H453 0.950 . S
C461 C459 1.327 . S
C462 C450 1.349 . S
C462 H456 0.950 . S
C462 C463 1.327 . S
C463 H457 0.950 . S
C463 C462 1.327 . S
C463 C467 1.429 . S
C464 C447 1.574 . S
C464 H458 0.949 . S
C464 C468 1.368 . S
C465 C446 1.429 . S
C465 C459 1.429 . S
C465 C466 1.523 . S
C466 C447 1.368 . S
C466 C460 1.368 . S
C466 C465 1.523 . S
C467 C451 1.429 . S
C467 C463 1.429 . S
C467 C468 1.523 . S
C468 C452 1.368 . S
C468 C464 1.368 . S
C468 C467 1.523 . S
H469 C444 0.950 . S
H470 C446 0.950 . S
H471 C447 0.949 . S
H472 C449 0.950 . S
H473 C451 0.950 . S
C474 C475 1.349 . S
C474 C476 1.327 . S
C474 H499 0.950 . S
C475 C474 1.349 . S
C475 C491 1.349 . S
C476 C474 1.327 . S
C476 C495 1.429 . S
C476 H500 0.950 . S
C477 C494 1.574 . S
C477 C496 1.368 . S
C477 H501 0.949 . S
H478 C482 0.949 1_455 S
C479 C480 1.349 . S
C479 C481 1.327 1_455 S
C479 H502 0.950 . S
C480 C479 1.349 . S
C480 C492 1.349 . S
C481 C479 1.327 1_655 S
C481 C497 1.425 1_655 S
C481 H503 0.950 . S
C482 H478 0.949 1_655 S
C482 C490 1.574 . S
C482 C498 1.368 . S
H483 C491 0.950 . S
H484 C489 0.950 . S
H485 C490 0.949 . S
H486 C492 0.950 . S
H487 C493 0.950 . S
H488 C494 0.949 . S
C489 H484 0.950 . S
C489 C491 1.327 . S
C489 C495 1.429 . S
C490 C482 1.574 . S
C490 H485 0.949 . S
C490 C496 1.368 . S
C491 C475 1.349 . S
C491 H483 0.950 . S
C491 C489 1.327 . S
C492 C480 1.349 . S
C492 H486 0.950 . S
C492 C493 1.327 . S
C493 H487 0.950 . S
C493 C492 1.327 . S
C493 C497 1.461 . S
C494 C477 1.574 . S
C494 H488 0.949 . S
C494 C498 1.368 . S
C495 C476 1.429 . S
C495 C489 1.429 . S
C495 C496 1.523 . S
C496 C477 1.368 . S
C496 C490 1.368 . S
C496 C495 1.523 . S
C497 C481 1.425 1_455 S
C497 C493 1.461 . S
C497 C498 1.497 1_455 S
C498 C482 1.368 . S
C498 C494 1.368 . S
C498 C497 1.497 1_655 S
H499 C474 0.950 . S
H500 C476 0.950 . S
H501 C477 0.949 . S
H502 C479 0.950 . S
H503 C481 0.950 . S
C504 C505 1.349 . S
C504 C506 1.327 . S
C504 H529 0.950 . S
C505 C504 1.349 . S
C505 C521 1.349 . S
C506 C504 1.327 . S
C506 C525 1.429 . S
C506 H530 0.950 . S
C507 C524 1.574 . S
C507 C526 1.368 . S
C507 H531 0.949 . S
H508 C512 0.949 . S
C509 C510 1.349 . S
C509 C511 1.327 . S
C509 H532 0.950 . S
C510 C509 1.349 . S
C510 C522 1.349 . S
C511 C509 1.327 . S
C511 C527 1.429 . S
C511 H533 0.950 . S
C512 H508 0.949 . S
C512 C520 1.574 . S
C512 C528 1.368 . S
H513 C521 0.950 . S
H514 C519 0.950 . S
H515 C520 0.949 . S
H516 C522 0.950 . S
H517 C523 0.950 . S
H518 C524 0.949 . S
C519 H514 0.950 . S
C519 C521 1.327 . S
C519 C525 1.429 . S
C520 C512 1.574 . S
C520 H515 0.949 . S
C520 C526 1.368 . S
C521 C505 1.349 . S
C521 H513 0.950 . S
C521 C519 1.327 . S
C522 C510 1.349 . S
C522 H516 0.950 . S
C522 C523 1.327 . S
C523 H517 0.950 . S
C523 C522 1.327 . S
C523 C527 1.429 . S
C524 C507 1.574 . S
C524 H518 0.949 . S
C524 C528 1.368 . S
C525 C506 1.429 . S
C525 C519 1.429 . S
C525 C526 1.523 . S
C526 C507 1.368 . S
C526 C520 1.368 . S
C526 C525 1.523 . S
C527 C511 1.429 . S
C527 C523 1.429 . S
C527 C528 1.523 . S
C528 C512 1.368 . S
C528 C524 1.368 . S
C528 C527 1.523 . S
H529 C504 0.950 . S
H530 C506 0.950 . S
H531 C507 0.949 . S
H532 C509 0.950 . S
H533 C511 0.950 . S
C534 C535 1.349 . S
C534 C536 1.327 . S
C534 H559 0.950 . S
C535 C534 1.349 . S
C535 C551 1.349 . S
C536 C534 1.327 . S
C536 C555 1.429 . S
C536 H560 0.950 . S
C537 C554 1.574 . S
C537 C556 1.368 . S
C537 H561 0.949 . S
H538 C542 0.949 . S
C539 C540 1.349 . S
C539 C541 1.327 . S
C539 H562 0.950 . S
C540 C539 1.349 . S
C540 C552 1.349 . S
C541 C539 1.327 . S
C541 C557 1.429 . S
C541 H563 0.950 . S
C542 H538 0.949 . S
C542 C550 1.574 . S
C542 C558 1.368 . S
H543 C551 0.950 . S
H544 C549 0.950 . S
H545 C550 0.949 . S
H546 C552 0.950 . S
H547 C553 0.950 . S
H548 C554 0.949 . S
C549 H544 0.950 . S
C549 C551 1.327 . S
C549 C555 1.429 . S
C550 C542 1.574 . S
C550 H545 0.949 . S
C550 C556 1.368 . S
C551 C535 1.349 . S
C551 H543 0.950 . S
C551 C549 1.327 . S
C552 C540 1.349 . S
C552 H546 0.950 . S
C552 C553 1.327 . S
C553 H547 0.950 . S
C553 C552 1.327 . S
C553 C557 1.429 . S
C554 C537 1.574 . S
C554 H548 0.949 . S
C554 C558 1.368 . S
C555 C536 1.429 . S
C555 C549 1.429 . S
C555 C556 1.523 . S
C556 C537 1.368 . S
C556 C550 1.368 . S
C556 C555 1.523 . S
C557 C541 1.429 . S
C557 C553 1.429 . S
C557 C558 1.523 . S
C558 C542 1.368 . S
C558 C554 1.368 . S
C558 C557 1.523 . S
H559 C534 0.950 . S
H560 C536 0.950 . S
H561 C537 0.949 . S
H562 C539 0.950 . S
H563 C541 0.950 . S
C564 C565 1.349 . S
C564 C566 1.327 . S
C564 H589 0.950 . S
C565 C564 1.349 . S
C565 C581 1.349 . S
C566 C564 1.327 . S
C566 C585 1.429 . S
C566 H590 0.950 . S
C567 C584 1.574 . S
C567 C586 1.368 . S
C567 H591 0.949 . S
H568 C572 0.949 . S
C569 C570 1.349 . S
C569 C571 1.327 . S
C569 H592 0.950 . S
C570 C569 1.349 . S
C570 C582 1.349 . S
C571 C569 1.327 . S
C571 C587 1.429 . S
C571 H593 0.950 . S
C572 H568 0.949 . S
C572 C580 1.574 . S
C572 C588 1.368 . S
H573 C581 0.950 . S
H574 C579 0.950 . S
H575 C580 0.949 . S
H576 C582 0.950 . S
H577 C583 0.950 . S
H578 C584 0.949 . S
C579 H574 0.950 . S
C579 C581 1.327 . S
C579 C585 1.429 . S
C580 C572 1.574 . S
C580 H575 0.949 . S
C580 C586 1.368 . S
C581 C565 1.349 . S
C581 H573 0.950 . S
C581 C579 1.327 . S
C582 C570 1.349 . S
C582 H576 0.950 . S
C582 C583 1.327 . S
C583 H577 0.950 . S
C583 C582 1.327 . S
C583 C587 1.429 . S
C584 C567 1.574 . S
C584 H578 0.949 . S
C584 C588 1.368 . S
C585 C566 1.429 . S
C585 C579 1.429 . S
C585 C586 1.523 . S
C586 C567 1.368 . S
C586 C580 1.368 . S
C586 C585 1.523 . S
C587 C571 1.429 . S
C587 C583 1.429 . S
C587 C588 1.523 . S
C588 C572 1.368 . S
C588 C584 1.368 . S
C588 C587 1.523 . S
H589 C564 0.950 . S
H590 C566 0.950 . S
H591 C567 0.949 . S
H592 C569 0.950 . S
H593 C571 0.950 . S
C594 C595 1.349 . S
C594 C596 1.327 . S
C594 H619 0.950 . S
C595 C594 1.349 . S
C595 C611 1.349 . S
C596 C594 1.327 . S
C596 C615 1.429 . S
C596 H620 0.950 . S
C597 C614 1.574 . S
C597 C616 1.368 . S
C597 H621 0.949 . S
H598 C602 0.949 . S
C599 C600 1.349 . S
C599 C601 1.327 . S
C599 H622 0.950 . S
C600 C599 1.349 . S
C600 C612 1.349 . S
C601 C599 1.327 . S
C601 C617 1.429 . S
C601 H623 0.950 . S
C602 H598 0.949 . S
C602 C610 1.574 . S
C602 C618 1.368 . S
H603 C611 0.950 . S
H604 C609 0.950 . S
H605 C610 0.949 . S
H606 C612 0.950 . S
H607 C613 0.950 . S
H608 C614 0.949 . S
C609 H604 0.950 . S
C609 C611 1.327 . S
C609 C615 1.429 . S
C610 C602 1.574 . S
C610 H605 0.949 . S
C610 C616 1.368 . S
C611 C595 1.349 . S
C611 H603 0.950 . S
C611 C609 1.327 . S
C612 C600 1.349 . S
C612 H606 0.950 . S
C612 C613 1.327 . S
C613 H607 0.950 . S
C613 C612 1.327 . S
C613 C617 1.429 . S
C614 C597 1.574 . S
C614 H608 0.949 . S
C614 C618 1.368 . S
C615 C596 1.429 . S
C615 C609 1.429 . S
C615 C616 1.523 . S
C616 C597 1.368 . S
C616 C610 1.368 . S
C616 C615 1.523 . S
C617 C601 1.429 . S
C617 C613 1.429 . S
C617 C618 1.523 . S
C618 C602 1.368 . S
C618 C614 1.368 . S
C618 C617 1.523 . S
H619 C594 0.950 . S
H620 C596 0.950 . S
H621 C597 0.949 . S
H622 C599 0.950 . S
H623 C601 0.950 . S
C624 C625 1.349 . S
C624 C626 1.327 . S
C624 H649 0.950 . S
C625 C624 1.349 . S
C625 C641 1.349 . S
C626 C624 1.327 . S
C626 C645 1.429 . S
C626 H650 0.950 . S
C627 C644 1.574 . S
C627 C646 1.368 . S
C627 H651 0.949 . S
H628 C632 0.949 . S
C629 C630 1.349 . S
C629 C631 1.327 . S
C629 H652 0.950 . S
C630 C629 1.349 . S
C630 C642 1.349 . S
C631 C629 1.327 . S
C631 C647 1.429 . S
C631 H653 0.950 . S
C632 H628 0.949 . S
C632 C640 1.574 . S
C632 C648 1.368 . S
H633 C641 0.950 . S
H634 C639 0.950 . S
H635 C640 0.949 . S
H636 C642 0.950 . S
H637 C643 0.950 . S
H638 C644 0.949 . S
C639 H634 0.950 . S
C639 C641 1.327 . S
C639 C645 1.429 . S
C640 C632 1.574 . S
C640 H635 0.949 . S
C640 C646 1.368 . S
C641 C625 1.349 . S
C641 H633 0.950 . S
C641 C639 1.327 . S
C642 C630 1.349 . S
C642 H636 0.950 . S
C642 C643 1.327 . S
C643 H637 0.950 . S
C643 C642 1.327 . S
C643 C647 1.429 . S
C644 C627 1.574 . S
C644 H638 0.949 . S
C644 C648 1.368 . S
C645 C626 1.429 . S
C645 C639 1.429 . S
C645 C646 1.523 . S
C646 C627 1.368 . S
C646 C640 1.368 . S
C646 C645 1.523 . S
C647 C631 1.429 . S
C647 C643 1.429 . S
C647 C648 1.523 1_554 S
C648 C632 1.368 . S
C648 C644 1.368 . S
C648 C647 1.523 1_556 S
H649 C624 0.950 . S
H650 C626 0.950 . S
H651 C627 0.949 . S
H652 C629 0.950 . S
H653 C631 0.950 . S
C654 C655 1.349 . S
C654 C656 1.327 . S
C654 H679 0.950 . S
C655 C654 1.349 . S
C655 C671 1.349 . S
C656 C654 1.327 . S
C656 C675 1.429 . S
C656 H680 0.950 . S
C657 C674 1.574 . S
C657 C676 1.368 . S
C657 H681 0.949 . S
H658 C662 0.949 . S
C659 C660 1.349 . S
C659 C661 1.327 . S
C659 H682 0.950 . S
C660 C659 1.349 . S
C660 C672 1.349 . S
C661 C659 1.327 . S
C661 C677 1.429 . S
C661 H683 0.950 . S
C662 H658 0.949 . S
C662 C670 1.574 . S
C662 C678 1.368 . S
H663 C671 0.950 . S
H664 C669 0.950 . S
H665 C670 0.949 . S
H666 C672 0.950 . S
H667 C673 0.950 . S
H668 C674 0.949 . S
C669 H664 0.950 . S
C669 C671 1.327 . S
C669 C675 1.429 . S
C670 C662 1.574 . S
C670 H665 0.949 . S
C670 C676 1.368 . S
C671 C655 1.349 . S
C671 H663 0.950 . S
C671 C669 1.327 . S
C672 C660 1.349 . S
C672 H666 0.950 . S
C672 C673 1.327 . S
C673 H667 0.950 . S
C673 C672 1.327 . S
C673 C677 1.429 . S
C674 C657 1.574 . S
C674 H668 0.949 . S
C674 C678 1.368 . S
C675 C656 1.429 . S
C675 C669 1.429 . S
C675 C676 1.523 . S
C676 C657 1.368 . S
C676 C670 1.368 . S
C676 C675 1.523 . S
C677 C661 1.429 . S
C677 C673 1.429 . S
C677 C678 1.523 . S
C678 C662 1.368 . S
C678 C674 1.368 . S
C678 C677 1.523 . S
H679 C654 0.950 . S
H680 C656 0.950 . S
H681 C657 0.949 . S
H682 C659 0.950 . S
H683 C661 0.950 . S
C684 C685 1.349 . S
C684 C686 1.327 . S
C684 H709 0.950 . S
C685 C684 1.349 . S
C685 C701 1.349 . S
C686 C684 1.327 . S
C686 C705 1.429 . S
C686 H710 0.950 . S
C687 C704 1.574 . S
C687 C706 1.368 . S
C687 H711 0.949 . S
H688 C692 0.949 . S
C689 C690 1.349 . S
C689 C691 1.327 . S
C689 H712 0.950 . S
C690 C689 1.349 . S
C690 C702 1.349 . S
C691 C689 1.327 . S
C691 C707 1.429 . S
C691 H713 0.950 . S
C692 H688 0.949 . S
C692 C700 1.574 . S
C692 C708 1.368 . S
H693 C701 0.950 . S
H694 C699 0.950 . S
H695 C700 0.949 . S
H696 C702 0.950 . S
H697 C703 0.950 . S
H698 C704 0.949 . S
C699 H694 0.950 . S
C699 C701 1.327 . S
C699 C705 1.429 . S
C700 C692 1.574 . S
C700 H695 0.949 . S
C700 C706 1.368 . S
C701 C685 1.349 . S
C701 H693 0.950 . S
C701 C699 1.327 . S
C702 C690 1.349 . S
C702 H696 0.950 . S
C702 C703 1.327 . S
C703 H697 0.950 . S
C703 C702 1.327 . S
C703 C707 1.429 . S
C704 C687 1.574 . S
C704 H698 0.949 . S
C704 C708 1.368 . S
C705 C686 1.429 . S
C705 C699 1.429 . S
C705 C706 1.523 . S
C706 C687 1.368 . S
C706 C700 1.368 . S
C706 C705 1.523 . S
C707 C691 1.429 . S
C707 C703 1.429 . S
C707 C708 1.523 . S
C708 C692 1.368 . S
C708 C704 1.368 . S
C708 C707 1.523 . S
H709 C684 0.950 . S
H710 C686 0.950 . S
H711 C687 0.949 . S
H712 C689 0.950 . S
H713 C691 0.950 . S
C714 C715 1.349 . S
C714 C716 1.327 . S
C714 H739 0.950 . S
C715 C714 1.349 . S
C715 C731 1.349 . S
C716 C714 1.327 . S
C716 C735 1.429 . S
C716 H740 0.950 . S
C717 C734 1.574 . S
C717 C736 1.368 . S
C717 H741 0.949 . S
H718 C722 0.949 . S
C719 C720 1.349 . S
C719 C721 1.327 . S
C719 H742 0.950 . S
C720 C719 1.349 . S
C720 C732 1.349 . S
C721 C719 1.327 . S
C721 C737 1.429 . S
C721 H743 0.950 . S
C722 H718 0.949 . S
C722 C730 1.574 . S
C722 C738 1.368 . S
H723 C731 0.950 . S
H724 C729 0.950 . S
H725 C730 0.949 . S
H726 C732 0.950 . S
H727 C733 0.950 . S
H728 C734 0.949 . S
C729 H724 0.950 . S
C729 C731 1.327 . S
C729 C735 1.429 . S
C730 C722 1.574 . S
C730 H725 0.949 . S
C730 C736 1.368 . S
C731 C715 1.349 . S
C731 H723 0.950 . S
C731 C729 1.327 . S
C732 C720 1.349 . S
C732 H726 0.950 . S
C732 C733 1.327 . S
C733 H727 0.950 . S
C733 C732 1.327 . S
C733 C737 1.429 . S
C734 C717 1.574 . S
C734 H728 0.949 . S
C734 C738 1.368 . S
C735 C716 1.429 . S
C735 C729 1.429 . S
C735 C736 1.523 . S
C736 C717 1.368 . S
C736 C730 1.368 . S
C736 C735 1.523 . S
C737 C721 1.429 . S
C737 C733 1.429 . S
C737 C738 1.523 . S
C738 C722 1.368 . S
C738 C734 1.368 . S
C738 C737 1.523 . S
H739 C714 0.950 . S
H740 C716 0.950 . S
H741 C717 0.949 . S
H742 C719 0.950 . S
H743 C721 0.950 . S
C744 C745 1.349 . S
C744 C746 1.327 . S
C744 H769 0.950 . S
C745 C744 1.349 . S
C745 C761 1.349 . S
C746 C744 1.327 . S
C746 C765 1.429 . S
C746 H770 0.950 . S
C747 C764 1.574 . S
C747 C766 1.368 . S
C747 H771 0.949 . S
H748 C752 0.949 . S
C749 C750 1.349 . S
C749 C751 1.327 . S
C749 H772 0.950 . S
C750 C749 1.349 . S
C750 C762 1.349 . S
C751 C749 1.327 . S
C751 C767 1.429 . S
C751 H773 0.950 . S
C752 H748 0.949 . S
C752 C760 1.574 . S
C752 C768 1.368 . S
H753 C761 0.950 . S
H754 C759 0.950 . S
H755 C760 0.949 . S
H756 C762 0.950 . S
H757 C763 0.950 . S
H758 C764 0.949 . S
C759 H754 0.950 . S
C759 C761 1.327 . S
C759 C765 1.429 . S
C760 C752 1.574 . S
C760 H755 0.949 . S
C760 C766 1.368 . S
C761 C745 1.349 . S
C761 H753 0.950 . S
C761 C759 1.327 . S
C762 C750 1.349 . S
C762 H756 0.950 . S
C762 C763 1.327 . S
C763 H757 0.950 . S
C763 C762 1.327 . S
C763 C767 1.429 . S
C764 C747 1.574 . S
C764 H758 0.949 . S
C764 C768 1.368 . S
C765 C746 1.429 . S
C765 C759 1.429 . S
C765 C766 1.523 . S
C766 C747 1.368 . S
C766 C760 1.368 . S
C766 C765 1.523 . S
C767 C751 1.429 . S
C767 C763 1.429 . S
C767 C768 1.523 . S
C768 C752 1.368 . S
C768 C764 1.368 . S
C768 C767 1.523 . S
H769 C744 0.950 . S
H770 C746 0.950 . S
H771 C747 0.949 . S
H772 C749 0.950 . S
H773 C751 0.950 . S
C774 C775 1.349 . S
C774 C776 1.327 . S
C774 H799 0.950 . S
C775 C774 1.349 . S
C775 C791 1.349 . S
C776 C774 1.327 . S
C776 C795 1.429 . S
C776 H800 0.950 . S
C777 C794 1.574 . S
C777 C796 1.368 . S
C777 H801 0.949 . S
H778 C782 0.949 . S
C779 C780 1.349 . S
C779 C781 1.327 . S
C779 H802 0.950 . S
C780 C779 1.349 . S
C780 C792 1.349 . S
C781 C779 1.327 . S
C781 C797 1.429 . S
C781 H803 0.950 . S
C782 H778 0.949 . S
C782 C790 1.574 . S
C782 C798 1.368 . S
H783 C791 0.950 . S
H784 C789 0.950 . S
H785 C790 0.949 . S
H786 C792 0.950 . S
H787 C793 0.950 . S
H788 C794 0.949 . S
C789 H784 0.950 . S
C789 C791 1.327 . S
C789 C795 1.429 . S
C790 C782 1.574 . S
C790 H785 0.949 . S
C790 C796 1.368 . S
C791 C775 1.349 . S
C791 H783 0.950 . S
C791 C789 1.327 . S
C792 C780 1.349 . S
C792 H786 0.950 . S
C792 C793 1.327 . S
C793 H787 0.950 . S
C793 C792 1.327 . S
C793 C797 1.429 . S
C794 C777 1.574 . S
C794 H788 0.949 . S
C794 C798 1.368 . S
C795 C776 1.429 . S
C795 C789 1.429 . S
C795 C796 1.523 . S
C796 C777 1.368 . S
C796 C790 1.368 . S
C796 C795 1.523 . S
C797 C781 1.429 . S
C797 C793 1.429 . S
C797 C798 1.523 . S
C798 C782 1.368 . S
C798 C794 1.368 . S
C798 C797 1.523 . S
H799 C774 0.950 . S
H800 C776 0.950 . S
H801 C777 0.949 . S
H802 C779 0.950 . S
H803 C781 0.950 . S
C804 C805 1.349 . S
C804 C806 1.327 . S
C804 H829 0.950 . S
C805 C804 1.349 . S
C805 C821 1.349 . S
C806 C804 1.327 . S
C806 C825 1.429 . S
C806 H830 0.950 . S
C807 C824 1.574 . S
C807 C826 1.368 . S
C807 H831 0.949 . S
H808 C812 0.949 . S
C809 C810 1.349 . S
C809 C811 1.327 1_455 S
C809 H832 0.950 . S
C810 C809 1.349 . S
C810 C822 1.349 1_455 S
C811 C809 1.327 1_655 S
C811 C827 1.429 . S
C811 H833 0.950 . S
C812 H808 0.949 . S
C812 C820 1.574 . S
C812 C828 1.368 . S
H813 C821 0.950 . S
H814 C819 0.950 . S
H815 C820 0.949 . S
H816 C822 0.950 . S
H817 C823 0.950 . S
H818 C824 0.949 . S
C819 H814 0.950 . S
C819 C821 1.327 . S
C819 C825 1.429 . S
C820 C812 1.574 . S
C820 H815 0.949 . S
C820 C826 1.368 . S
C821 C805 1.349 . S
C821 H813 0.950 . S
C821 C819 1.327 . S
C822 C810 1.349 1_655 S
C822 H816 0.950 . S
C822 C823 1.327 . S
C823 H817 0.950 . S
C823 C822 1.327 . S
C823 C827 1.429 . S
C824 C807 1.574 . S
C824 H818 0.949 . S
C824 C828 1.368 . S
C825 C806 1.429 . S
C825 C819 1.429 . S
C825 C826 1.523 . S
C826 C807 1.368 . S
C826 C820 1.368 . S
C826 C825 1.523 . S
C827 C811 1.429 . S
C827 C823 1.429 . S
C827 C828 1.523 . S
C828 C812 1.368 . S
C828 C824 1.368 . S
C828 C827 1.523 . S
H829 C804 0.950 . S
H830 C806 0.950 . S
H831 C807 0.949 . S
H832 C809 0.950 . S
H833 C811 0.950 . S
C834 C835 1.349 . S
C834 C836 1.327 . S
C834 H859 0.950 . S
C835 C834 1.349 . S
C835 C851 1.349 . S
C836 C834 1.327 . S
C836 C855 1.429 . S
C836 H860 0.950 . S
C837 C854 1.574 . S
C837 C856 1.368 . S
C837 H861 0.949 . S
H838 C842 0.949 . S
C839 C840 1.349 . S
C839 C841 1.327 . S
C839 H862 0.950 . S
C840 C839 1.349 . S
C840 C852 1.349 . S
C841 C839 1.327 . S
C841 C857 1.429 . S
C841 H863 0.950 . S
C842 H838 0.949 . S
C842 C850 1.574 . S
C842 C858 1.368 . S
H843 C851 0.950 . S
H844 C849 0.950 . S
H845 C850 0.949 . S
H846 C852 0.950 . S
H847 C853 0.950 . S
H848 C854 0.949 . S
C849 H844 0.950 . S
C849 C851 1.327 . S
C849 C855 1.429 . S
C850 C842 1.574 . S
C850 H845 0.949 . S
C850 C856 1.368 . S
C851 C835 1.349 . S
C851 H843 0.950 . S
C851 C849 1.327 . S
C852 C840 1.349 . S
C852 H846 0.950 . S
C852 C853 1.327 . S
C853 H847 0.950 . S
C853 C852 1.327 . S
C853 C857 1.429 . S
C854 C837 1.574 . S
C854 H848 0.949 . S
C854 C858 1.368 . S
C855 C836 1.429 . S
C855 C849 1.429 . S
C855 C856 1.523 . S
C856 C837 1.368 . S
C856 C850 1.368 . S
C856 C855 1.523 . S
C857 C841 1.429 . S
C857 C853 1.429 . S
C857 C858 1.523 . S
C858 C842 1.368 . S
C858 C854 1.368 . S
C858 C857 1.523 . S
H859 C834 0.950 . S
H860 C836 0.950 . S
H861 C837 0.949 . S
H862 C839 0.950 . S
H863 C841 0.950 . S
C864 C865 1.349 . S
C864 C866 1.327 . S
C864 H889 0.950 . S
C865 C864 1.349 . S
C865 C881 1.349 . S
C866 C864 1.327 . S
C866 C885 1.429 . S
C866 H890 0.950 . S
C867 C884 1.574 . S
C867 C886 1.368 . S
C867 H891 0.949 . S
H868 C872 0.949 . S
C869 C870 1.349 . S
C869 C871 1.327 . S
C869 H892 0.950 . S
C870 C869 1.349 . S
C870 C882 1.349 . S
C871 C869 1.327 . S
C871 C887 1.429 . S
C871 H893 0.950 . S
C872 H868 0.949 . S
C872 C880 1.574 . S
C872 C888 1.368 . S
H873 C881 0.950 . S
H874 C879 0.950 . S
H875 C880 0.949 . S
H876 C882 0.950 . S
H877 C883 0.950 . S
H878 C884 0.949 . S
C879 H874 0.950 . S
C879 C881 1.327 . S
C879 C885 1.429 . S
C880 C872 1.574 . S
C880 H875 0.949 . S
C880 C886 1.368 . S
C881 C865 1.349 . S
C881 H873 0.950 . S
C881 C879 1.327 . S
C882 C870 1.349 . S
C882 H876 0.950 . S
C882 C883 1.327 . S
C883 H877 0.950 . S
C883 C882 1.327 . S
C883 C887 1.429 . S
C884 C867 1.574 . S
C884 H878 0.949 . S
C884 C888 1.368 . S
C885 C866 1.429 . S
C885 C879 1.429 . S
C885 C886 1.523 . S
C886 C867 1.368 . S
C886 C880 1.368 . S
C886 C885 1.523 . S
C887 C871 1.429 . S
C887 C883 1.429 . S
C887 C888 1.523 . S
C888 C872 1.368 . S
C888 C884 1.368 . S
C888 C887 1.523 . S
H889 C864 0.950 . S
H890 C866 0.950 . S
H891 C867 0.949 . S
H892 C869 0.950 . S
H893 C871 0.950 . S
C894 C895 1.349 . S
C894 C896 1.327 . S
C894 H919 0.950 . S
C895 C894 1.349 . S
C895 C911 1.349 . S
C896 C894 1.327 . S
C896 C915 1.429 . S
C896 H920 0.950 . S
C897 C914 1.574 . S
C897 C916 1.368 . S
C897 H921 0.949 . S
H898 C902 0.949 . S
C899 C900 1.349 . S
C899 C901 1.327 . S
C899 H922 0.950 . S
C900 C899 1.349 . S
C900 C912 1.349 . S
C901 C899 1.327 . S
C901 C917 1.429 . S
C901 H923 0.950 . S
C902 H898 0.949 . S
C902 C910 1.574 . S
C902 C918 1.368 . S
H903 C911 0.950 . S
H904 C909 0.950 . S
H905 C910 0.949 . S
H906 C912 0.950 1_545 S
H907 C913 0.950 . S
H908 C914 0.949 . S
C909 H904 0.950 . S
C909 C911 1.327 . S
C909 C915 1.429 . S
C910 C902 1.574 . S
C910 H905 0.949 . S
C910 C916 1.368 . S
C911 C895 1.349 . S
C911 H903 0.950 . S
C911 C909 1.327 . S
C912 C900 1.349 . S
C912 H906 0.950 1_565 S
C912 C913 1.327 . S
C913 H907 0.950 . S
C913 C912 1.327 . S
C913 C917 1.429 . S
C914 C897 1.574 . S
C914 H908 0.949 . S
C914 C918 1.368 . S
C915 C896 1.429 . S
C915 C909 1.429 . S
C915 C916 1.523 . S
C916 C897 1.368 . S
C916 C910 1.368 . S
C916 C915 1.523 . S
C917 C901 1.429 . S
C917 C913 1.429 . S
C917 C918 1.523 . S
C918 C902 1.368 . S
C918 C914 1.368 . S
C918 C917 1.523 . S
H919 C894 0.950 . S
H920 C896 0.950 . S
H921 C897 0.949 . S
H922 C899 0.950 . S
H923 C901 0.950 . S
C924 C925 1.349 . S
C924 C926 1.327 . S
C924 H949 0.950 . S
C925 C924 1.349 . S
C925 C941 1.349 . S
C926 C924 1.327 . S
C926 C945 1.429 . S
C926 H950 0.950 . S
C927 C944 1.574 . S
C927 C946 1.368 . S
C927 H951 0.949 . S
H928 C932 0.949 . S
C929 C930 1.349 . S
C929 C931 1.327 . S
C929 H952 0.950 . S
C930 C929 1.349 . S
C930 C942 1.349 . S
C931 C929 1.327 . S
C931 C947 1.429 . S
C931 H953 0.950 . S
C932 H928 0.949 . S
C932 C940 1.574 . S
C932 C948 1.368 . S
H933 C941 0.950 . S
H934 C939 0.950 . S
H935 C940 0.949 . S
H936 C942 0.950 . S
H937 C943 0.950 . S
H938 C944 0.949 . S
C939 H934 0.950 . S
C939 C941 1.327 . S
C939 C945 1.429 . S
C940 C932 1.574 . S
C940 H935 0.949 . S
C940 C946 1.368 . S
C941 C925 1.349 . S
C941 H933 0.950 . S
C941 C939 1.327 . S
C942 C930 1.349 . S
C942 H936 0.950 . S
C942 C943 1.327 . S
C943 H937 0.950 . S
C943 C942 1.327 . S
C943 C947 1.429 . S
C944 C927 1.574 . S
C944 H938 0.949 . S
C944 C948 1.368 . S
C945 C926 1.429 . S
C945 C939 1.429 . S
C945 C946 1.523 . S
C946 C927 1.368 . S
C946 C940 1.368 . S
C946 C945 1.523 . S
C947 C931 1.429 . S
C947 C943 1.429 . S
C947 C948 1.523 . S
C948 C932 1.368 . S
C948 C944 1.368 . S
C948 C947 1.523 . S
H949 C924 0.950 . S
H950 C926 0.950 . S
H951 C927 0.949 . S
H952 C929 0.950 . S
H953 C931 0.950 . S
C954 C955 1.349 . S
C954 C956 1.327 . S
C954 H979 0.950 . S
C955 C954 1.349 . S
C955 C971 1.349 . S
C956 C954 1.327 . S
C956 C975 1.429 . S
C956 H980 0.950 . S
C957 C974 1.574 . S
C957 C976 1.368 . S
C957 H981 0.949 . S
H958 C962 0.949 . S
C959 C960 1.349 . S
C959 C961 1.327 . S
C959 H982 0.950 . S
C960 C959 1.349 . S
C960 C972 1.349 . S
C961 C959 1.327 . S
C961 C977 1.429 . S
C961 H983 0.950 . S
C962 H958 0.949 . S
C962 C970 1.574 . S
C962 C978 1.368 . S
H963 C971 0.950 . S
H964 C969 0.950 . S
H965 C970 0.949 . S
H966 C972 0.950 . S
H967 C973 0.950 . S
H968 C974 0.949 . S
C969 H964 0.950 . S
C969 C971 1.327 . S
C969 C975 1.429 . S
C970 C962 1.574 . S
C970 H965 0.949 . S
C970 C976 1.368 . S
C971 C955 1.349 . S
C971 H963 0.950 . S
C971 C969 1.327 . S
C972 C960 1.349 . S
C972 H966 0.950 . S
C972 C973 1.327 . S
C973 H967 0.950 . S
C973 C972 1.327 . S
C973 C977 1.429 . S
C974 C957 1.574 . S
C974 H968 0.949 . S
C974 C978 1.368 . S
C975 C956 1.429 . S
C975 C969 1.429 . S
C975 C976 1.523 . S
C976 C957 1.368 . S
C976 C970 1.368 . S
C976 C975 1.523 . S
C977 C961 1.429 . S
C977 C973 1.429 . S
C977 C978 1.523 . S
C978 C962 1.368 . S
C978 C974 1.368 . S
C978 C977 1.523 . S
H979 C954 0.950 . S
H980 C956 0.950 . S
H981 C957 0.949 . S
H982 C959 0.950 . S
H983 C961 0.950 . S
C984 C985 1.349 . S
C984 C986 1.327 . S
C984 H1009 0.950 . S
C985 C984 1.349 . S
C985 C1001 1.349 . S
C986 C984 1.327 . S
C986 C1005 1.429 . S
C986 H1010 0.950 . S
C987 C1004 1.574 . S
C987 C1006 1.368 . S
C987 H1011 0.949 . S
H988 C992 0.949 . S
C989 C990 1.349 . S
C989 C991 1.327 . S
C989 H1012 0.950 . S
C990 C989 1.349 . S
C990 C1002 1.349 . S
C991 C989 1.327 . S
C991 C1007 1.429 . S
C991 H1013 0.950 . S
C992 H988 0.949 . S
C992 C1000 1.574 . S
C992 C1008 1.368 . S
H993 C1001 0.950 . S
H994 C999 0.950 . S
H995 C1000 0.949 . S
H996 C1002 0.950 . S
H997 C1003 0.950 . S
H998 C1004 0.949 . S
C999 H994 0.950 . S
C999 C1001 1.327 . S
C999 C1005 1.429 . S
C1000 C992 1.574 . S
C1000 H995 0.949 . S
C1000 C1006 1.368 . S
C1001 C985 1.349 . S
C1001 H993 0.950 . S
C1001 C999 1.327 . S
C1002 C990 1.349 . S
C1002 H996 0.950 . S
C1002 C1003 1.327 . S
C1003 H997 0.950 . S
C1003 C1002 1.327 . S
C1003 C1007 1.429 . S
C1004 C987 1.574 . S
C1004 H998 0.949 . S
C1004 C1008 1.368 . S
C1005 C986 1.429 . S
C1005 C999 1.429 . S
C1005 C1006 1.523 . S
C1006 C987 1.368 . S
C1006 C1000 1.368 . S
C1006 C1005 1.523 . S
C1007 C991 1.429 . S
C1007 C1003 1.429 . S
C1007 C1008 1.523 . S
C1008 C992 1.368 . S
C1008 C1004 1.368 . S
C1008 C1007 1.523 . S
H1009 C984 0.950 . S
H1010 C986 0.950 . S
H1011 C987 0.949 . S
H1012 C989 0.950 . S
H1013 C991 0.950 . S
C1014 C1015 1.349 . S
C1014 C1016 1.327 . S
C1014 H1039 0.950 . S
C1015 C1014 1.349 . S
C1015 C1031 1.349 . S
C1016 C1014 1.327 . S
C1016 C1035 1.429 . S
C1016 H1040 0.950 . S
C1017 C1034 1.574 . S
C1017 C1036 1.368 . S
C1017 H1041 0.949 . S
H1018 C1022 0.949 . S
C1019 C1020 1.349 . S
C1019 C1021 1.327 . S
C1019 H1042 0.950 . S
C1020 C1019 1.349 . S
C1020 C1032 1.349 . S
C1021 C1019 1.327 . S
C1021 C1037 1.429 . S
C1021 H1043 0.950 . S
C1022 H1018 0.949 . S
C1022 C1030 1.574 . S
C1022 C1038 1.368 . S
H1023 C1031 0.950 . S
H1024 C1029 0.950 . S
H1025 C1030 0.949 . S
H1026 C1032 0.950 . S
H1027 C1033 0.950 . S
H1028 C1034 0.949 . S
C1029 H1024 0.950 . S
C1029 C1031 1.327 . S
C1029 C1035 1.429 . S
C1030 C1022 1.574 . S
C1030 H1025 0.949 . S
C1030 C1036 1.368 . S
C1031 C1015 1.349 . S
C1031 H1023 0.950 . S
C1031 C1029 1.327 . S
C1032 C1020 1.349 . S
C1032 H1026 0.950 . S
C1032 C1033 1.327 . S
C1033 H1027 0.950 . S
C1033 C1032 1.327 . S
C1033 C1037 1.429 . S
C1034 C1017 1.574 . S
C1034 H1028 0.949 . S
C1034 C1038 1.368 . S
C1035 C1016 1.429 . S
C1035 C1029 1.429 . S
C1035 C1036 1.523 . S
C1036 C1017 1.368 . S
C1036 C1030 1.368 . S
C1036 C1035 1.523 . S
C1037 C1021 1.429 . S
C1037 C1033 1.429 . S
C1037 C1038 1.523 . S
C1038 C1022 1.368 . S
C1038 C1034 1.368 . S
C1038 C1037 1.523 . S
H1039 C1014 0.950 . S
H1040 C1016 0.950 . S
H1041 C1017 0.949 . S
H1042 C1019 0.950 . S
H1043 C1021 0.950 . S
C1044 C1045 1.349 . S
C1044 C1046 1.327 . S
C1044 H1069 0.950 . S
C1045 C1044 1.349 . S
C1045 C1061 1.349 . S
C1046 C1044 1.327 . S
C1046 C1065 1.429 . S
C1046 H1070 0.950 . S
C1047 C1064 1.574 . S
C1047 C1066 1.368 . S
C1047 H1071 0.949 . S
H1048 C1052 0.949 . S
C1049 C1050 1.349 . S
C1049 C1051 1.327 . S
C1049 H1072 0.950 . S
C1050 C1049 1.349 . S
C1050 C1062 1.349 . S
C1051 C1049 1.327 . S
C1051 C1067 1.429 . S
C1051 H1073 0.950 . S
C1052 H1048 0.949 . S
C1052 C1060 1.574 . S
C1052 C1068 1.368 . S
H1053 C1061 0.950 . S
H1054 C1059 0.950 . S
H1055 C1060 0.949 . S
H1056 C1062 0.950 . S
H1057 C1063 0.950 . S
H1058 C1064 0.949 . S
C1059 H1054 0.950 . S
C1059 C1061 1.327 . S
C1059 C1065 1.429 . S
C1060 C1052 1.574 . S
C1060 H1055 0.949 . S
C1060 C1066 1.368 . S
C1061 C1045 1.349 . S
C1061 H1053 0.950 . S
C1061 C1059 1.327 . S
C1062 C1050 1.349 . S
C1062 H1056 0.950 . S
C1062 C1063 1.327 . S
C1063 H1057 0.950 . S
C1063 C1062 1.327 . S
C1063 C1067 1.429 . S
C1064 C1047 1.574 . S
C1064 H1058 0.949 . S
C1064 C1068 1.368 . S
C1065 C1046 1.429 . S
C1065 C1059 1.429 . S
C1065 C1066 1.523 . S
C1066 C1047 1.368 . S
C1066 C1060 1.368 . S
C1066 C1065 1.523 . S
C1067 C1051 1.429 . S
C1067 C1063 1.429 . S
C1067 C1068 1.523 . S
C1068 C1052 1.368 . S
C1068 C1064 1.368 . S
C1068 C1067 1.523 . S
H1069 C1044 0.950 . S
H1070 C1046 0.950 . S
H1071 C1047 0.949 . S
H1072 C1049 0.950 . S
H1073 C1051 0.950 . S
C1074 C1075 1.349 . S
C1074 C1076 1.327 . S
C1074 H1099 0.950 . S
C1075 C1074 1.349 . S
C1075 C1091 1.349 . S
C1076 C1074 1.327 . S
C1076 C1095 1.429 . S
C1076 H1100 0.950 . S
C1077 C1094 1.574 . S
C1077 C1096 1.368 . S
C1077 H1101 0.949 . S
H1078 C1082 0.949 . S
C1079 C1080 1.349 . S
C1079 C1081 1.327 . S
C1079 H1102 0.950 . S
C1080 C1079 1.349 . S
C1080 C1092 1.349 . S
C1081 C1079 1.327 . S
C1081 C1097 1.429 . S
C1081 H1103 0.950 . S
C1082 H1078 0.949 . S
C1082 C1090 1.574 . S
C1082 C1098 1.368 . S
H1083 C1091 0.950 . S
H1084 C1089 0.950 . S
H1085 C1090 0.949 . S
H1086 C1092 0.950 . S
H1087 C1093 0.950 . S
H1088 C1094 0.949 . S
C1089 H1084 0.950 . S
C1089 C1091 1.327 . S
C1089 C1095 1.429 . S
C1090 C1082 1.574 . S
C1090 H1085 0.949 . S
C1090 C1096 1.368 . S
C1091 C1075 1.349 . S
C1091 H1083 0.950 . S
C1091 C1089 1.327 . S
C1092 C1080 1.349 . S
C1092 H1086 0.950 . S
C1092 C1093 1.327 . S
C1093 H1087 0.950 . S
C1093 C1092 1.327 . S
C1093 C1097 1.429 . S
C1094 C1077 1.574 . S
C1094 H1088 0.949 . S
C1094 C1098 1.368 . S
C1095 C1076 1.429 . S
C1095 C1089 1.429 . S
C1095 C1096 1.523 . S
C1096 C1077 1.368 . S
C1096 C1090 1.368 . S
C1096 C1095 1.523 . S
C1097 C1081 1.429 . S
C1097 C1093 1.429 . S
C1097 C1098 1.523 . S
C1098 C1082 1.368 . S
C1098 C1094 1.368 . S
C1098 C1097 1.523 . S
H1099 C1074 0.950 . S
H1100 C1076 0.950 . S
H1101 C1077 0.949 . S
H1102 C1079 0.950 . S
H1103 C1081 0.950 . S
C1104 C1105 1.349 . S
C1104 C1106 1.327 . S
C1104 H1129 0.950 . S
C1105 C1104 1.349 . S
C1105 C1121 1.349 . S
C1106 C1104 1.327 . S
C1106 C1125 1.429 . S
C1106 H1130 0.950 . S
C1107 C1124 1.574 . S
C1107 C1126 1.368 . S
C1107 H1131 0.949 . S
H1108 C1112 0.949 . S
C1109 C1110 1.349 . S
C1109 C1111 1.327 . S
C1109 H1132 0.950 . S
C1110 C1109 1.349 . S
C1110 C1122 1.349 . S
C1111 C1109 1.327 . S
C1111 C1127 1.429 . S
C1111 H1133 0.950 . S
C1112 H1108 0.949 . S
C1112 C1120 1.574 . S
C1112 C1128 1.368 . S
H1113 C1121 0.950 . S
H1114 C1119 0.950 . S
H1115 C1120 0.949 . S
H1116 C1122 0.950 . S
H1117 C1123 0.950 . S
H1118 C1124 0.949 . S
C1119 H1114 0.950 . S
C1119 C1121 1.327 . S
C1119 C1125 1.429 . S
C1120 C1112 1.574 . S
C1120 H1115 0.949 . S
C1120 C1126 1.368 . S
C1121 C1105 1.349 . S
C1121 H1113 0.950 . S
C1121 C1119 1.327 . S
C1122 C1110 1.349 . S
C1122 H1116 0.950 . S
C1122 C1123 1.327 . S
C1123 H1117 0.950 . S
C1123 C1122 1.327 . S
C1123 C1127 1.429 . S
C1124 C1107 1.574 . S
C1124 H1118 0.949 . S
C1124 C1128 1.368 . S
C1125 C1106 1.429 . S
C1125 C1119 1.429 . S
C1125 C1126 1.523 . S
C1126 C1107 1.368 . S
C1126 C1120 1.368 . S
C1126 C1125 1.523 . S
C1127 C1111 1.429 . S
C1127 C1123 1.429 . S
C1127 C1128 1.523 . S
C1128 C1112 1.368 . S
C1128 C1124 1.368 . S
C1128 C1127 1.523 . S
H1129 C1104 0.950 . S
H1130 C1106 0.950 . S
H1131 C1107 0.949 . S
H1132 C1109 0.950 . S
H1133 C1111 0.950 . S
C420 C118 1.605 . S
C415 C6 1.606 . S
C450 C187 1.407 . S
C445 C18 1.395 . S
C480 C125 1.627 . S
C475 C28 1.632 . S
C510 C188 1.542 . S
C505 C45 1.534 . S
C540 C241 1.455 . S
C535 C4 1.456 . S
C570 C277 1.711 . S
C565 C21 1.707 . S
C595 C33 1.692 . S
C600 C337 1.711 . S
C630 C400 1.722 . S
C625 C40 1.714 . S
C660 C240 1.580 . S
C655 C16 1.572 . S
C685 C30 1.737 . S
C690 C284 1.724 . S
C720 C330 1.651 . S
C715 C42 1.643 . S
C750 C399 1.669 . S
C745 C9 1.664 . S
C775 C52 1.573 . S
C780 C178 1.577 . S
C810 C135 1.724 . S
C805 C69 1.713 . S
C835 C78 1.408 . S
C840 C171 1.408 . S
C865 C93 1.432 . S
C870 C134 1.463 . S
C900 C346 1.726 1_565 S
C895 C57 1.707 . S
C930 C390 1.710 . S
C925 C66 1.716 . S
C960 C224 1.463 . S
C955 C76 1.468 . S
C985 C88 1.533 . S
C990 C293 1.519 . S
C1020 C347 1.681 . S
C1015 C64 1.665 . S
C1050 C383 1.642 1_556 S
C1045 C81 1.636 . S
C1080 C231 1.432 . S
C1075 C90 1.435 . S
C1105 C54 1.702 . S
C1110 C294 1.689 . S
