# Generated by pormake.
# Topology hwx, (6,3)-cn, num edge types: 1
# Building blocks:
#     Node 0, Type 0, BuildingBlock: IZENUY_clean_sbu_0, # of connection points: 6
#     Node 1, Type 0, BuildingBlock: IZENUY_clean_sbu_0, # of connection points: 6
#     Node 2, Type 0, BuildingBlock: IZENUY_clean_sbu_0, # of connection points: 6
#     Node 3, Type 0, BuildingBlock: IZENUY_clean_sbu_0, # of connection points: 6
#     Node 4, Type 1, BuildingBlock: CUQRIR_clean_linker_1, # of connection points: 3
#     Node 5, Type 1, BuildingBlock: CUQRIR_clean_linker_1, # of connection points: 3
#     Node 6, Type 1, BuildingBlock: CUQRIR_clean_linker_1, # of connection points: 3
#     Node 7, Type 1, BuildingBlock: CUQRIR_clean_linker_1, # of connection points: 3
#     Node 8, Type 1, BuildingBlock: CUQRIR_clean_linker_1, # of connection points: 3
#     Node 9, Type 1, BuildingBlock: CUQRIR_clean_linker_1, # of connection points: 3
#     Node 10, Type 1, BuildingBlock: CUQRIR_clean_linker_1, # of connection points: 3
#     Node 11, Type 1, BuildingBlock: CUQRIR_clean_linker_1, # of connection points: 3
#     Edge 12, Type (0, 1), BuildingBlock: AJUNOK_clean_linker_0, # of connection points: 2
#     Edge 13, Type (0, 1), BuildingBlock: AJUNOK_clean_linker_0, # of connection points: 2
#     Edge 14, Type (0, 1), BuildingBlock: AJUNOK_clean_linker_0, # of connection points: 2
#     Edge 15, Type (0, 1), BuildingBlock: AJUNOK_clean_linker_0, # of connection points: 2
#     Edge 16, Type (0, 1), BuildingBlock: AJUNOK_clean_linker_0, # of connection points: 2
#     Edge 17, Type (0, 1), BuildingBlock: AJUNOK_clean_linker_0, # of connection points: 2
#     Edge 18, Type (0, 1), BuildingBlock: AJUNOK_clean_linker_0, # of connection points: 2
#     Edge 19, Type (0, 1), BuildingBlock: AJUNOK_clean_linker_0, # of connection points: 2
#     Edge 20, Type (0, 1), BuildingBlock: AJUNOK_clean_linker_0, # of connection points: 2
#     Edge 21, Type (0, 1), BuildingBlock: AJUNOK_clean_linker_0, # of connection points: 2
#     Edge 22, Type (0, 1), BuildingBlock: AJUNOK_clean_linker_0, # of connection points: 2
#     Edge 23, Type (0, 1), BuildingBlock: AJUNOK_clean_linker_0, # of connection points: 2
#     Edge 24, Type (0, 1), BuildingBlock: AJUNOK_clean_linker_0, # of connection points: 2
#     Edge 25, Type (0, 1), BuildingBlock: AJUNOK_clean_linker_0, # of connection points: 2
#     Edge 26, Type (0, 1), BuildingBlock: AJUNOK_clean_linker_0, # of connection points: 2
#     Edge 27, Type (0, 1), BuildingBlock: AJUNOK_clean_linker_0, # of connection points: 2
#     Edge 28, Type (0, 1), BuildingBlock: AJUNOK_clean_linker_0, # of connection points: 2
#     Edge 29, Type (0, 1), BuildingBlock: AJUNOK_clean_linker_0, # of connection points: 2
#     Edge 30, Type (0, 1), BuildingBlock: AJUNOK_clean_linker_0, # of connection points: 2
#     Edge 31, Type (0, 1), BuildingBlock: AJUNOK_clean_linker_0, # of connection points: 2
#     Edge 32, Type (0, 1), BuildingBlock: AJUNOK_clean_linker_0, # of connection points: 2
#     Edge 33, Type (0, 1), BuildingBlock: AJUNOK_clean_linker_0, # of connection points: 2
#     Edge 34, Type (0, 1), BuildingBlock: AJUNOK_clean_linker_0, # of connection points: 2
#     Edge 35, Type (0, 1), BuildingBlock: AJUNOK_clean_linker_0, # of connection points: 2
# Relax obj value: 0.001
# Max RMSD: 0.068
# Mean RMSD: 0.051
data_MOF--net-hwx--node1-IZENUY_clean_sbu_0--node2-CUQRIR_clean_linker_1--edge1-AJUNOK_clean_linker_0
_symmetry_space_group_name_H-M    P1
_symmetry_Int_Tables_number       1
_symmetry_cell_setting            triclinic
loop_
_symmetry_equiv_pos_as_xyz
'x, y, z'
_cell_length_a     34.293522
_cell_length_b     34.26661
_cell_length_c     13.051416
_cell_angle_alpha  90.300675
_cell_angle_beta   89.719754
_cell_angle_gamma 89.838987
loop_
_atom_site_label
_atom_site_type_symbol
_atom_site_fract_x
_atom_site_fract_y
_atom_site_fract_z
_atom_type_partial_charge
Fe0 Fe 0.25531 0.25953 0.14911 0.0
Fe1 Fe 0.25636 0.25954 0.91362 0.0
O2 O 0.23717 0.24154 0.03075 0.0
Fe3 Fe 0.19996 0.20574 0.02945 0.0
O4 O 0.17614 0.223 0.14782 0.0
O5 O 0.20728 0.27683 0.18929 0.0
O6 O 0.26505 0.30903 0.10191 0.0
C7 C 0.25119 0.32706 1.0259 0.0
C8 C 0.24455 0.17885 0.18722 0.0
O9 O 0.24135 0.30894 0.94588 0.0
C10 C 0.24904 0.18261 0.8625 0.0
O11 O 0.30425 0.24301 0.11808 0.0
O12 O 0.3059 0.26737 0.96288 0.0
O13 O 0.22981 0.17158 0.10068 0.0
O14 O 0.24914 0.21355 0.21816 0.0
C15 C 0.17562 0.25246 0.87276 0.0
O16 O 0.27213 0.21104 0.87242 0.0
O17 O 0.21693 0.18184 0.91088 0.0
C18 C 0.32308 0.25244 0.03892 0.0
O19 O 0.2106 0.25529 0.84276 0.0
O20 O 0.16734 0.23732 0.95819 0.0
C21 C 0.17799 0.25479 0.19748 0.0
Fe22 Fe 0.27403 0.75867 0.64328 0.0
Fe23 Fe 0.32802 0.70431 0.51871 0.0
O24 O 0.29143 0.74091 0.52329 0.0
Fe25 Fe 0.27214 0.75982 0.40736 0.0
O26 O 0.28791 0.80884 0.43963 0.0
O27 O 0.2658 0.80869 0.59833 0.0
O28 O 0.32242 0.77419 0.68307 0.0
C29 C 0.35141 0.75149 0.68848 0.0
C30 C 0.20577 0.75423 0.53567 0.0
O31 O 0.35253 0.72037 0.63594 0.0
C32 C 0.27752 0.68275 0.35482 0.0
O33 O 0.27908 0.71211 0.70979 0.0
O34 O 0.29805 0.67026 0.59064 0.0
O35 O 0.22303 0.7689 0.45921 0.0
O36 O 0.22458 0.7439 0.61362 0.0
C37 C 0.35251 0.75148 0.36304 0.0
O38 O 0.3101 0.6813 0.40019 0.0
O39 O 0.25525 0.71189 0.36651 0.0
C40 C 0.28328 0.67749 0.67768 0.0
O41 O 0.36085 0.73584 0.44745 0.0
O42 O 0.31758 0.75442 0.33367 0.0
C43 C 0.27967 0.82655 0.52186 0.0
Fe44 Fe 0.77329 0.77718 0.9116 0.0
Fe45 Fe 0.77157 0.77864 0.14793 0.0
O46 O 0.79069 0.7962 0.02987 0.0
Fe47 Fe 0.82731 0.83286 0.03015 0.0
O48 O 0.79675 0.86622 0.9583 0.0
O49 O 0.77793 0.82343 0.84196 0.0
O50 O 0.72366 0.79183 0.94058 0.0
C51 C 0.70505 0.78349 1.02079 0.0
C52 C 0.85056 0.78365 0.86405 0.0
O53 O 0.72203 0.7706 0.0995 0.0
C54 C 0.85256 0.78683 0.18771 0.0
O55 O 0.76532 0.72752 0.95967 0.0
O56 O 0.78617 0.72903 0.11895 0.0
O57 O 0.85153 0.81589 0.91176 0.0
O58 O 0.82173 0.76118 0.87284 0.0
C59 C 0.77804 0.85579 0.19691 0.0
O60 O 0.81761 0.78337 0.2179 0.0
O61 O 0.86054 0.8021 0.10215 0.0
C62 C 0.77789 0.71044 0.03865 0.0
O63 O 0.7556 0.82697 0.1871 0.0
O64 O 0.81009 0.85695 0.14838 0.0
C65 C 0.78164 0.85836 0.87255 0.0
Fe66 Fe 0.69895 0.33034 0.52823 0.0
Fe67 Fe 0.75596 0.27762 0.64612 0.0
O68 O 0.73722 0.29549 0.52844 0.0
Fe69 Fe 0.75666 0.27805 0.41021 0.0
O70 O 0.7717 0.32668 0.37238 0.0
O71 O 0.7159 0.35513 0.41103 0.0
O72 O 0.72738 0.36516 0.60191 0.0
C73 C 0.74273 0.35814 0.68775 0.0
C74 C 0.67613 0.28385 0.36882 0.0
O75 O 0.74916 0.32354 0.71661 0.0
C76 C 0.7524 0.2103 0.52 0.0
O77 O 0.6753 0.3121 0.64496 0.0
O78 O 0.70848 0.25974 0.68731 0.0
O79 O 0.71107 0.28248 0.33834 0.0
O80 O 0.66738 0.29795 0.45539 0.0
C81 C 0.82326 0.28561 0.53486 0.0
O82 O 0.76619 0.22832 0.59659 0.0
O83 O 0.74231 0.22839 0.4404 0.0
C84 C 0.67821 0.28062 0.69493 0.0
O85 O 0.80471 0.29438 0.61524 0.0
O86 O 0.80626 0.27055 0.45869 0.0
C87 C 0.74843 0.35511 0.3641 0.0
C88 C 0.24843 0.51731 0.94056 0.0
N89 N 0.25169 0.55543 0.96724 0.0
N90 N 0.24157 0.49514 1.02421 0.0
C91 C 0.25363 0.50127 0.83368 0.0
C92 C 0.2402 0.52127 0.10252 0.0
N93 N 0.24585 0.55798 0.06781 0.0
C94 C 0.23514 0.51093 0.21352 0.0
H95 H 0.23094 0.47924 0.8168 0.0
H96 H 0.28239 0.48648 0.828 0.0
H97 H 0.25192 0.52447 0.77499 0.0
H98 H 0.22369 0.48089 0.22251 0.0
H99 H 0.215 0.53199 0.25133 0.0
H100 H 0.26375 0.51316 0.25242 0.0
C101 C 1.01212 0.75044 0.60984 0.0
N102 N 0.97507 0.75409 0.57572 0.0
N103 N 0.03754 0.74856 0.53011 0.0
C104 C 0.02353 0.75249 0.72095 0.0
C105 C 0.01454 0.75163 0.44642 0.0
N106 N 0.97657 0.7554 0.47393 0.0
C107 C 0.02911 0.74915 0.33764 0.0
H108 H 0.05396 0.76279 0.73005 0.0
H109 H 0.02101 0.72295 0.75468 0.0
H110 H 1.00367 0.77225 0.76424 0.0
H111 H 0.05625 0.73149 0.33292 0.0
H112 H 0.03563 0.77894 0.30965 0.0
H113 H 1.00671 0.73605 0.28703 0.0
C114 C 0.78206 0.51704 0.11289 0.0
N115 N 0.77635 0.48022 0.07838 0.0
N116 N 0.78122 0.54272 0.03439 0.0
C117 C 0.78712 0.52788 0.22373 0.0
C118 C 0.77469 0.52016 0.95077 0.0
N119 N 0.77112 0.48217 0.97769 0.0
C120 C 0.77056 0.53566 0.8436 0.0
H121 H 0.75837 0.5265 0.26292 0.0
H122 H 0.79916 0.55773 0.23229 0.0
H123 H 0.80674 0.50664 0.26162 0.0
H124 H 0.79319 0.55785 0.82774 0.0
H125 H 0.74172 0.55012 0.83639 0.0
H126 H 0.77312 0.51217 0.78521 0.0
C127 C 0.01583 0.28805 0.45249 0.0
N128 N 0.05318 0.28493 0.48497 0.0
N129 N 0.99097 0.29038 0.53335 0.0
C130 C 1.00336 0.28567 0.34233 0.0
C131 C 0.01457 0.28877 0.61602 0.0
N132 N 0.05229 0.28479 0.58687 0.0
C133 C 1.00106 0.2936 0.72529 0.0
H134 H 1.00054 0.31571 0.31192 0.0
H135 H 0.97462 0.27112 0.3356 0.0
H136 H 0.02513 0.26967 0.29491 0.0
H137 H 0.99761 0.26452 0.76097 0.0
H138 H 0.97264 0.30913 0.72915 0.0
H139 H 0.02303 0.31005 0.77019 0.0
C140 C 0.74126 0.01899 0.61601 0.0
N141 N 0.74519 0.98112 0.58777 0.0
N142 N 0.74035 0.04246 0.53277 0.0
C143 C 0.73844 0.03301 0.72517 0.0
C144 C 0.74367 0.01741 0.45263 0.0
N145 N 0.74653 0.98016 0.48598 0.0
C146 C 0.74827 0.02964 0.34268 0.0
H147 H 0.72411 0.06205 0.72971 0.0
H148 H 0.76812 0.03538 0.75791 0.0
H149 H 0.72187 1.01172 0.77201 0.0
H150 H 0.77859 0.03988 0.33033 0.0
H151 H 0.72832 0.05411 0.32465 0.0
H152 H 0.74239 1.0051 0.28924 0.0
C153 C 0.51568 0.24454 0.95265 0.0
N154 N 0.55322 0.24855 0.98276 0.0
N155 N 0.49131 0.24391 0.03458 0.0
C156 C 0.50285 0.24047 0.84309 0.0
C157 C 0.51536 0.24787 0.11598 0.0
N158 N 0.55306 0.25007 0.08469 0.0
C159 C 0.50164 0.25515 0.22431 0.0
H160 H 0.4972 0.26988 0.81121 0.0
H161 H 0.47559 0.2232 0.83805 0.0
H162 H 0.52594 0.22622 0.79607 0.0
H163 H 0.49983 0.22693 0.26526 0.0
H164 H 0.47229 0.26885 0.22554 0.0
H165 H 0.52223 0.27429 0.26622 0.0
C166 C 0.27713 0.01749 0.44506 0.0
N167 N 0.27336 0.05527 0.47402 0.0
N168 N 0.28142 0.99429 0.52773 0.0
C169 C 0.27898 1.00335 0.33572 0.0
C170 C 0.28095 0.01945 0.60822 0.0
N171 N 0.27644 0.05667 0.57548 0.0
C172 C 0.28186 1.00748 0.7188 0.0
H173 H 0.24922 0.99617 0.30887 0.0
H174 H 0.29715 0.97658 0.32944 0.0
H175 H 0.29112 0.02624 0.28499 0.0
H176 H 0.31232 1.00939 0.74657 0.0
H177 H 0.27164 0.97702 0.7284 0.0
H178 H 0.26359 0.02732 0.76649 0.0
C179 C 0.51378 0.78797 0.10567 0.0
N180 N 0.47604 0.78405 0.07675 0.0
N181 N 0.53755 0.78901 1.02257 0.0
C182 C 0.52796 0.78629 0.21455 0.0
C183 C 0.51311 0.7851 0.94225 0.0
N184 N 0.47576 0.78201 0.97496 0.0
C185 C 0.52585 0.78384 0.8319 0.0
H186 H 0.52951 0.81639 0.24587 0.0
H187 H 0.55757 0.77326 0.21826 0.0
H188 H 0.50783 0.76911 0.26337 0.0
H189 H 0.53215 0.75315 0.80982 0.0
H190 H 0.55282 0.80116 0.82065 0.0
H191 H 0.50253 0.7951 0.78124 0.0
C192 C 0.13257 0.30081 0.2898 0.0
C193 C 0.14791 0.26298 0.27665 0.0
C194 C 0.10206 0.30804 0.3599 0.0
C195 C 0.08689 0.27799 0.42112 0.0
H196 H 0.14327 0.3246 0.24319 0.0
H197 H 0.08981 0.33713 0.36566 0.0
S198 S 0.11864 0.17479 0.42176 0.0
N199 N 0.14658 0.19554 0.33429 0.0
N200 N 0.09003 0.20974 0.46725 0.0
C201 C 0.10283 0.24053 0.41144 0.0
C202 C 0.1332 0.23289 0.33892 0.0
C203 C 0.24168 0.64663 0.81184 0.0
C204 C 0.27551 0.64557 0.75022 0.0
C205 C 0.23453 0.61765 0.88514 0.0
C206 C 0.26131 0.58723 0.90024 0.0
H207 H 0.22038 0.66972 0.80225 0.0
H208 H 0.20759 0.61846 0.92869 0.0
S209 S 0.35664 0.57442 0.76965 0.0
N210 N 0.3374 0.61338 0.7153 0.0
N211 N 0.32445 0.55974 0.8557 0.0
C212 C 0.29599 0.58688 0.84269 0.0
C213 C 0.30293 0.61581 0.76673 0.0
C214 C 0.9176 0.8015 0.26457 0.0
C215 C 0.88427 0.77776 0.26048 0.0
C216 C 0.94696 0.79471 0.33678 0.0
C217 C 0.94449 0.76349 0.40605 0.0
H218 H 0.92067 0.826 0.21303 0.0
H219 H 0.97194 0.81394 0.33845 0.0
S220 S 0.86445 0.69153 0.42335 0.0
N221 N 0.85074 0.72147 0.33138 0.0
N222 N 0.90706 0.70778 0.46351 0.0
C223 C 0.91161 0.73935 0.40229 0.0
C224 C 0.88127 0.74667 0.33019 0.0
C225 C 0.78238 0.38949 0.82556 0.0
C226 C 0.74936 0.3902 0.76179 0.0
C227 C 0.78885 0.41909 0.89827 0.0
C228 C 0.76216 0.44989 0.91079 0.0
H229 H 0.80372 0.36627 0.81779 0.0
H230 H 0.81528 0.4185 0.94319 0.0
S231 S 0.66874 0.46241 0.77354 0.0
N232 N 0.68829 0.42278 0.72181 0.0
N233 N 0.69989 0.47748 0.86131 0.0
C234 C 0.72823 0.44996 0.85111 0.0
C235 C 0.72201 0.42039 0.77567 0.0
C236 C 0.63819 0.299 0.2117 0.0
C237 C 0.64517 0.27433 0.2955 0.0
C238 C 0.60883 0.29037 0.14046 0.0
C239 C 0.58624 0.25644 0.15001 0.0
H240 H 0.65501 0.32549 0.2025 0.0
H241 H 0.603 0.31082 0.07943 0.0
S242 S 0.59624 0.18056 0.34948 0.0
N243 N 0.62898 0.21379 0.38082 0.0
N244 N 0.57485 0.19673 0.24467 0.0
C245 C 0.59418 0.23086 0.2311 0.0
C246 C 0.62343 0.24001 0.30453 0.0
C247 C 0.29422 0.13665 0.76844 0.0
C248 C 0.25659 0.15226 0.78323 0.0
C249 C 0.30081 0.10589 0.69843 0.0
C250 C 0.27023 0.09058 0.63931 0.0
H251 H 0.31839 0.14735 0.81366 0.0
H252 H 0.32979 0.09351 0.69133 0.0
S253 S 0.16728 0.12295 0.64292 0.0
N254 N 0.18881 0.15115 0.72854 0.0
N255 N 0.20171 0.0939 0.59673 0.0
C256 C 0.23296 0.10678 0.65058 0.0
C257 C 0.22602 0.13751 0.72262 0.0
C258 C 0.39341 0.73373 0.21188 0.0
C259 C 0.38382 0.76057 0.28987 0.0
C260 C 0.4229 0.74199 0.14028 0.0
C261 C 0.4432 0.77754 0.14378 0.0
H262 H 0.37838 0.70601 0.20718 0.0
H263 H 0.43061 0.72008 0.08369 0.0
S264 S 0.42694 0.85834 0.32888 0.0
N265 N 0.39557 0.82441 0.36444 0.0
N266 N 0.45043 0.84035 0.22825 0.0
C267 C 0.43305 0.80493 0.21983 0.0
C268 C 0.40342 0.79635 0.29332 0.0
C269 C 0.73711 0.89015 0.74661 0.0
C270 C 0.77259 0.89018 0.80047 0.0
C271 C 0.72832 0.91973 0.67608 0.0
C272 C 0.75523 0.94945 0.65491 0.0
H273 H 0.71573 0.86756 0.7607 0.0
H274 H 0.70008 0.91984 0.63967 0.0
S275 S 0.8532 0.96096 0.76874 0.0
N276 N 0.8352 0.9218 0.82496 0.0
N277 N 0.81918 0.97629 0.68915 0.0
C278 C 0.79106 0.94923 0.70621 0.0
C279 C 0.79966 0.91981 0.77973 0.0
C280 C 0.89712 0.80542 0.72764 0.0
C281 C 0.88109 0.77495 0.78646 0.0
C282 C 0.92647 0.79812 0.65448 0.0
C283 C 0.94116 0.7603 0.63915 0.0
H284 H 0.88692 0.83513 0.73824 0.0
H285 H 0.93872 0.82226 0.612 0.0
S286 S 0.90974 0.67066 0.77269 0.0
N287 N 0.88185 0.70542 0.82221 0.0
N288 N 0.93821 0.69226 0.68779 0.0
C289 C 0.92544 0.72967 0.69672 0.0
C290 C 0.89499 0.73684 0.76942 0.0
C291 C 0.72544 0.40843 0.2478 0.0
C292 C 0.75654 0.38625 0.28784 0.0
C293 C 0.73199 0.438 0.17576 0.0
C294 C 0.76978 0.44662 0.14163 0.0
H295 H 0.69573 0.40297 0.27218 0.0
H296 H 0.70753 0.45495 0.1482 0.0
S297 S 0.86121 0.39827 0.22116 0.0
N298 N 0.82675 0.3753 0.28582 0.0
N299 N 0.83863 0.43161 0.15209 0.0
C300 C 0.80105 0.42484 0.1798 0.0
C301 C 0.79452 0.39442 0.25236 0.0
C302 C 0.11085 0.23808 0.79521 0.0
C303 C 0.14423 0.26169 0.79961 0.0
C304 C 0.08166 0.24507 0.72292 0.0
C305 C 0.08441 0.27632 0.65389 0.0
H306 H 0.10759 0.21358 0.84666 0.0
H307 H 0.05656 0.22599 0.72098 0.0
S308 S 0.16516 0.34734 0.63563 0.0
N309 N 0.17845 0.31752 0.72832 0.0
N310 N 0.12245 0.33142 0.59524 0.0
C311 C 0.11751 0.3001 0.65718 0.0
C312 C 0.14766 0.29264 0.7296 0.0
C313 C 0.2988 0.62977 0.23346 0.0
C314 C 0.26829 0.65217 0.27716 0.0
C315 C 0.29135 0.6002 0.16145 0.0
C316 C 0.25318 0.59172 0.1309 0.0
H317 H 0.32879 0.63498 0.25521 0.0
H318 H 0.31541 0.58306 0.13129 0.0
S319 S 0.16298 0.641 0.21979 0.0
N320 N 0.19821 0.66371 0.28195 0.0
N321 N 0.18459 0.60745 0.14778 0.0
C322 C 0.22247 0.61388 0.17225 0.0
C323 C 0.22993 0.64433 0.24494 0.0
C324 C 0.38497 0.79466 0.81816 0.0
C325 C 0.38262 0.75866 0.76543 0.0
C326 C 0.41461 0.80178 0.8901 0.0
C327 C 0.44272 0.77318 0.91153 0.0
H328 H 0.36419 0.81773 0.80266 0.0
H329 H 0.41629 0.83008 0.92713 0.0
S330 S 0.44845 0.67342 0.8034 0.0
N331 N 0.41041 0.69327 0.7466 0.0
N332 N 0.46574 0.70744 0.88059 0.0
C333 C 0.44024 0.73698 0.86225 0.0
C334 C 0.41029 0.72952 0.78952 0.0
C335 C 0.79844 0.91375 0.30165 0.0
C336 C 0.76937 0.88647 0.27511 0.0
C337 C 0.79137 0.94317 0.37449 0.0
C338 C 0.755 0.94657 0.4232 0.0
H339 H 0.82693 0.91263 0.26556 0.0
H340 H 0.81408 0.96412 0.39116 0.0
S341 S 0.66903 0.88349 0.38366 0.0
N342 N 0.7028 0.86473 0.30714 0.0
N343 N 0.68951 0.92135 0.44047 0.0
C344 C 0.72583 0.91965 0.39887 0.0
C345 C 0.73301 0.88927 0.32572 0.0
C346 C 0.61406 0.29571 0.77886 0.0
C347 C 0.64695 0.27102 0.77077 0.0
C348 C 0.58429 0.28861 0.84999 0.0
C349 C 0.5859 0.25654 0.91616 0.0
H350 H 0.61106 0.3209 0.72972 0.0
H351 H 0.55955 0.30828 0.85315 0.0
S352 S 0.665 0.18316 0.92987 0.0
N353 N 0.67924 0.21316 0.83834 0.0
N354 N 0.62258 0.20003 0.97148 0.0
C355 C 0.61847 0.23182 0.9108 0.0
C356 C 0.64907 0.23893 0.83808 0.0
C357 C 0.28394 0.14832 0.3262 0.0
C358 C 0.25154 0.14692 0.26027 0.0
C359 C 0.29048 0.11882 0.39846 0.0
C360 C 0.26453 0.08746 0.40772 0.0
H361 H 0.30466 0.17203 0.32066 0.0
H362 H 0.31631 0.11996 0.44575 0.0
S363 S 0.17249 0.07343 0.26515 0.0
N364 N 0.19155 0.1134 0.2158 0.0
N365 N 0.20338 0.05875 0.35376 0.0
C366 C 0.23121 0.08671 0.34582 0.0
C367 C 0.22485 0.11624 0.27134 0.0
C368 C 0.21832 0.38948 0.9774 0.0
C369 C 0.24886 0.37018 0.02826 0.0
C370 C 0.21537 0.43034 0.97899 0.0
C371 C 0.24327 0.45323 0.0296 0.0
H372 H 0.19632 0.37287 0.93699 0.0
H373 H 0.19132 0.44424 0.93986 0.0
S374 S 0.32984 0.4174 0.16937 0.0
N375 N 0.30781 0.37732 0.12953 0.0
N376 N 0.30291 0.45414 0.12846 0.0
C377 C 0.27399 0.43443 0.08002 0.0
C378 C 0.27666 0.39288 0.08025 0.0
C379 C 0.14081 0.78045 0.48357 0.0
C380 C 0.16267 0.7523 0.53665 0.0
C381 C 0.09998 0.77919 0.48265 0.0
C382 C 0.07954 0.74936 0.53302 0.0
H383 H 0.15533 0.80397 0.44358 0.0
H384 H 0.08417 0.80184 0.44278 0.0
S385 S 0.12287 0.66738 0.67751 0.0
N386 N 0.16077 0.69321 0.63902 0.0
N387 N 0.08392 0.69022 0.63369 0.0
C388 C 0.10093 0.72078 0.58518 0.0
C389 C 0.14252 0.72239 0.58781 0.0
C390 C 0.80911 0.64728 0.99042 0.0
C391 C 0.77891 0.66762 0.04059 0.0
C392 C 0.81027 0.60633 0.9906 0.0
C393 C 0.78093 0.58466 0.03957 0.0
H394 H 0.83198 0.66311 0.95128 0.0
H395 H 0.83405 0.59142 0.95191 0.0
S396 S 0.69532 0.62442 0.17952 0.0
N397 N 0.71927 0.66348 0.14066 0.0
N398 N 0.72072 0.58642 0.13791 0.0
C399 C 0.75067 0.60477 0.08994 0.0
C400 C 0.7498 0.64636 0.09106 0.0
C401 C 0.88614 0.31632 0.48286 0.0
C402 C 0.86607 0.28685 0.53572 0.0
C403 C 0.92711 0.31735 0.48173 0.0
C404 C 0.94901 0.2887 0.53258 0.0
H405 H 0.87007 0.33881 0.44304 0.0
H406 H 0.94182 0.34074 0.44182 0.0
S407 S 0.90994 0.20373 0.67401 0.0
N408 N 0.87077 0.22781 0.6365 0.0
N409 N 0.94765 0.22868 0.63056 0.0
C410 C 0.92912 0.25859 0.58319 0.0
C411 C 0.8876 0.25794 0.58574 0.0
C412 C 0.71859 0.1478 0.47617 0.0
C413 C 0.75018 0.1672 0.52214 0.0
C414 C 0.71515 0.10701 0.48115 0.0
C415 C 0.7436 0.08432 0.5302 0.0
H416 H 0.69598 0.1643 0.43802 0.0
H417 H 0.69007 0.09306 0.44687 0.0
S418 S 0.83336 0.12042 0.65496 0.0
N419 N 0.81096 0.16032 0.61562 0.0
N420 N 0.8053 0.08365 0.62 0.0
C421 C 0.77566 0.10321 0.5743 0.0
C422 C 0.77877 0.14467 0.5714 0.0
C423 C 0.38852 0.27555 0.97969 0.0
C424 C 0.36617 0.24936 0.03826 0.0
C425 C 0.42936 0.27353 0.97859 0.0
C426 C 0.44929 0.24485 0.03449 0.0
H427 H 0.37441 0.29829 0.93586 0.0
H428 H 0.44555 0.29488 0.93493 0.0
S429 S 0.40468 0.1677 0.19403 0.0
N430 N 0.36717 0.19304 0.15103 0.0
N431 N 0.44397 0.18865 0.14576 0.0
C432 C 0.42742 0.21806 0.09166 0.0
C433 C 0.38586 0.22044 0.09428 0.0
C434 C 0.3119 0.88977 0.56379 0.0
C435 C 0.27993 0.86938 0.52325 0.0
C436 C 0.31212 0.9308 0.56664 0.0
C437 C 0.28035 0.95233 0.52923 0.0
H438 H 0.33685 0.87392 0.59292 0.0
H439 H 0.33731 0.94585 0.59691 0.0
S440 S 0.18878 0.9123 0.42265 0.0
N441 N 0.21533 0.87335 0.44911 0.0
N442 N 0.21543 0.95034 0.45618 0.0
C443 C 0.24798 0.93211 0.49074 0.0
C444 C 0.24785 0.89057 0.48733 0.0
C445 C 0.64044 0.75431 0.98119 0.0
C446 C 0.6623 0.78564 1.01996 0.0
C447 C 0.59953 0.75569 0.98142 0.0
C448 C 0.57946 0.78838 1.02062 0.0
H449 H 0.65507 0.72856 0.95129 0.0
H450 H 0.58339 0.73096 0.95211 0.0
S451 S 0.62343 0.87843 0.12566 0.0
N452 N 0.66121 0.85059 0.09499 0.0
N453 N 0.58418 0.853 0.09575 0.0
C454 C 0.60103 0.8199 0.05857 0.0
C455 C 0.64258 0.81859 0.05807 0.0
loop_
_geom_bond_atom_site_label_1
_geom_bond_atom_site_label_2
_geom_bond_distance
_geom_bond_site_symmetry_2
_ccdc_geom_bond_type
Fe0 O2 1.921 . S
Fe0 O5 1.997 . S
Fe0 O6 2.002 . S
Fe0 O11 1.976 . S
Fe0 O14 1.996 . S
Fe1 O2 1.915 1_556 S
Fe1 O9 1.997 . S
Fe1 O12 1.996 . S
Fe1 O16 1.976 . S
Fe1 O19 2.002 . S
O2 Fe0 1.921 . S
O2 Fe1 1.915 1_554 S
O2 Fe3 1.918 1_554 S
Fe3 O2 1.918 1_556 S
Fe3 O4 1.997 1_556 S
Fe3 O13 1.970 1_556 S
Fe3 O17 2.001 . S
Fe3 O20 2.002 . S
O4 Fe3 1.997 1_554 S
O4 C21 1.295 . S
O5 Fe0 1.997 . S
O5 C21 1.235 . S
O6 Fe0 2.002 . S
O6 C7 1.295 . S
C7 O6 1.295 . S
C7 O9 1.235 1_554 S
C8 O13 1.287 . S
C8 O14 1.255 . S
O9 Fe1 1.997 . S
O9 C7 1.235 1_556 S
C10 O16 1.287 . S
C10 O17 1.255 . S
O11 Fe0 1.976 . S
O11 C18 1.287 1_554 S
O12 Fe1 1.996 . S
O12 C18 1.255 . S
O13 Fe3 1.970 1_554 S
O13 C8 1.287 . S
O14 Fe0 1.996 . S
O14 C8 1.255 . S
C15 O19 1.295 . S
C15 O20 1.235 . S
O16 Fe1 1.976 . S
O16 C10 1.287 . S
O17 Fe3 2.001 . S
O17 C10 1.255 . S
C18 O11 1.287 1_556 S
C18 O12 1.255 . S
O19 Fe1 2.002 . S
O19 C15 1.295 . S
O20 Fe3 2.002 . S
O20 C15 1.235 . S
C21 O4 1.295 . S
C21 O5 1.235 . S
Fe22 O24 1.918 . S
Fe22 O27 1.997 . S
Fe22 O28 2.002 . S
Fe22 O33 1.976 . S
Fe22 O36 1.996 . S
Fe23 O24 1.918 . S
Fe23 O31 1.997 . S
Fe23 O34 1.996 . S
Fe23 O38 1.976 . S
Fe23 O41 2.002 . S
O24 Fe22 1.918 . S
O24 Fe23 1.918 . S
O24 Fe25 1.918 . S
Fe25 O24 1.918 . S
Fe25 O26 2.002 . S
Fe25 O35 1.976 . S
Fe25 O39 1.996 . S
Fe25 O42 1.997 . S
O26 Fe25 2.002 . S
O26 C43 1.295 . S
O27 Fe22 1.997 . S
O27 C43 1.235 . S
O28 Fe22 2.002 . S
O28 C29 1.295 . S
C29 O28 1.295 . S
C29 O31 1.235 . S
C30 O35 1.287 . S
C30 O36 1.255 . S
O31 Fe23 1.997 . S
O31 C29 1.235 . S
C32 O38 1.287 . S
C32 O39 1.255 . S
O33 Fe22 1.976 . S
O33 C40 1.287 . S
O34 Fe23 1.996 . S
O34 C40 1.255 . S
O35 Fe25 1.976 . S
O35 C30 1.287 . S
O36 Fe22 1.996 . S
O36 C30 1.255 . S
C37 O41 1.295 . S
C37 O42 1.235 . S
O38 Fe23 1.976 . S
O38 C32 1.287 . S
O39 Fe25 1.996 . S
O39 C32 1.255 . S
C40 O33 1.287 . S
C40 O34 1.255 . S
O41 Fe23 2.002 . S
O41 C37 1.295 . S
O42 Fe25 1.997 . S
O42 C37 1.235 . S
C43 O26 1.295 . S
C43 O27 1.235 . S
Fe44 O46 1.911 1_556 S
Fe44 O49 1.997 . S
Fe44 O50 2.002 . S
Fe44 O55 1.976 . S
Fe44 O58 1.996 . S
Fe45 O46 1.926 . S
Fe45 O53 1.997 . S
Fe45 O56 1.996 . S
Fe45 O60 1.976 . S
Fe45 O63 2.002 . S
O46 Fe44 1.911 1_554 S
O46 Fe45 1.926 . S
O46 Fe47 1.918 . S
Fe47 O46 1.918 . S
Fe47 O48 2.002 1_554 S
Fe47 O57 1.976 1_554 S
Fe47 O61 1.996 . S
Fe47 O64 1.997 . S
O48 Fe47 2.002 1_556 S
O48 C65 1.295 . S
O49 Fe44 1.997 . S
O49 C65 1.235 . S
O50 Fe44 2.002 . S
O50 C51 1.295 . S
C51 O50 1.295 . S
C51 O53 1.235 1_556 S
C52 O57 1.287 . S
C52 O58 1.255 . S
O53 Fe45 1.997 . S
O53 C51 1.235 1_554 S
C54 O60 1.287 . S
C54 O61 1.255 . S
O55 Fe44 1.976 . S
O55 C62 1.287 1_556 S
O56 Fe45 1.996 . S
O56 C62 1.255 . S
O57 Fe47 1.976 1_556 S
O57 C52 1.287 . S
O58 Fe44 1.996 . S
O58 C52 1.255 . S
C59 O63 1.295 . S
C59 O64 1.235 . S
O60 Fe45 1.976 . S
O60 C54 1.287 . S
O61 Fe47 1.996 . S
O61 C54 1.255 . S
C62 O55 1.287 1_554 S
C62 O56 1.255 . S
O63 Fe45 2.002 . S
O63 C59 1.295 . S
O64 Fe47 1.997 . S
O64 C59 1.235 . S
C65 O48 1.295 . S
C65 O49 1.235 . S
Fe66 O68 1.918 . S
Fe66 O71 1.997 . S
Fe66 O72 2.002 . S
Fe66 O77 1.976 . S
Fe66 O80 1.996 . S
Fe67 O68 1.918 . S
Fe67 O75 1.997 . S
Fe67 O78 1.996 . S
Fe67 O82 1.976 . S
Fe67 O85 2.002 . S
O68 Fe66 1.918 . S
O68 Fe67 1.918 . S
O68 Fe69 1.918 . S
Fe69 O68 1.918 . S
Fe69 O70 2.002 . S
Fe69 O79 1.976 . S
Fe69 O83 1.996 . S
Fe69 O86 1.997 . S
O70 Fe69 2.002 . S
O70 C87 1.295 . S
O71 Fe66 1.997 . S
O71 C87 1.235 . S
O72 Fe66 2.002 . S
O72 C73 1.295 . S
C73 O72 1.295 . S
C73 O75 1.235 . S
C74 O79 1.287 . S
C74 O80 1.255 . S
O75 Fe67 1.997 . S
O75 C73 1.235 . S
C76 O82 1.287 . S
C76 O83 1.255 . S
O77 Fe66 1.976 . S
O77 C84 1.287 . S
O78 Fe67 1.996 . S
O78 C84 1.255 . S
O79 Fe69 1.976 . S
O79 C74 1.287 . S
O80 Fe66 1.996 . S
O80 C74 1.255 . S
C81 O85 1.295 . S
C81 O86 1.235 . S
O82 Fe67 1.976 . S
O82 C76 1.287 . S
O83 Fe69 1.996 . S
O83 C76 1.255 . S
C84 O77 1.287 . S
C84 O78 1.255 . S
O85 Fe67 2.002 . S
O85 C81 1.295 . S
O86 Fe69 1.997 . S
O86 C81 1.235 . S
C87 O70 1.295 . S
C87 O71 1.235 . S
C88 N89 1.317 . S
C88 N90 1.348 . S
C88 C91 1.485 . S
N89 C88 1.317 . S
N89 N93 1.370 1_556 S
N90 C88 1.348 . S
N90 C92 1.346 1_556 S
C91 C88 1.485 . S
C91 H95 0.960 . S
C91 H96 0.961 . S
C91 H97 0.960 . S
C92 N90 1.346 1_554 S
C92 N93 1.307 . S
C92 C94 1.486 . S
N93 N89 1.370 1_554 S
N93 C92 1.307 . S
C94 C92 1.486 . S
C94 H98 0.960 . S
C94 H99 0.960 . S
C94 H100 0.959 . S
H95 C91 0.960 . S
H96 C91 0.961 . S
H97 C91 0.960 . S
H98 C94 0.960 . S
H99 C94 0.960 . S
H100 C94 0.959 . S
C101 N102 1.317 1_455 S
C101 N103 1.348 . S
C101 C104 1.485 . S
N102 C101 1.317 1_655 S
N102 N106 1.370 . S
N103 C101 1.348 . S
N103 C105 1.346 . S
C104 C101 1.485 . S
C104 H108 0.960 . S
C104 H109 0.961 . S
C104 H110 0.960 1_455 S
C105 N103 1.346 . S
C105 N106 1.307 1_455 S
C105 C107 1.486 . S
N106 N102 1.370 . S
N106 C105 1.307 1_655 S
C107 C105 1.486 . S
C107 H111 0.960 . S
C107 H112 0.960 . S
C107 H113 0.959 . S
H108 C104 0.960 . S
H109 C104 0.961 . S
H110 C104 0.960 1_655 S
H111 C107 0.960 . S
H112 C107 0.960 . S
H113 C107 0.959 . S
C114 N115 1.317 . S
C114 N116 1.348 . S
C114 C117 1.485 . S
N115 C114 1.317 . S
N115 N119 1.370 1_554 S
N116 C114 1.348 . S
N116 C118 1.346 1_554 S
C117 C114 1.485 . S
C117 H121 0.960 . S
C117 H122 0.961 . S
C117 H123 0.960 . S
C118 N116 1.346 1_556 S
C118 N119 1.307 . S
C118 C120 1.486 . S
N119 N115 1.370 1_556 S
N119 C118 1.307 . S
C120 C118 1.486 . S
C120 H124 0.960 . S
C120 H125 0.960 . S
C120 H126 0.959 . S
H121 C117 0.960 . S
H122 C117 0.961 . S
H123 C117 0.960 . S
H124 C120 0.960 . S
H125 C120 0.960 . S
H126 C120 0.959 . S
C127 N128 1.317 1_655 S
C127 N129 1.348 . S
C127 C130 1.485 . S
N128 C127 1.317 1_455 S
N128 N132 1.370 . S
N129 C127 1.348 . S
N129 C131 1.346 . S
C130 C127 1.485 . S
C130 H134 0.960 . S
C130 H135 0.961 . S
C130 H136 0.960 . S
C131 N129 1.346 . S
C131 N132 1.307 1_655 S
C131 C133 1.486 . S
N132 N128 1.370 . S
N132 C131 1.307 1_455 S
C133 C131 1.486 . S
C133 H137 0.960 . S
C133 H138 0.960 . S
C133 H139 0.973 . S
H134 C130 0.960 . S
H135 C130 0.961 . S
H136 C130 0.960 . S
H137 C133 0.960 . S
H138 C133 0.960 . S
H139 C133 0.973 . S
C140 N141 1.317 1_545 S
C140 N142 1.348 . S
C140 C143 1.485 . S
N141 C140 1.317 1_565 S
N141 N145 1.370 . S
N142 C140 1.348 . S
N142 C144 1.346 . S
C143 C140 1.485 . S
C143 H147 0.960 . S
C143 H148 0.961 . S
C143 H149 0.960 . S
C144 N142 1.346 . S
C144 N145 1.307 1_545 S
C144 C146 1.486 . S
N145 N141 1.370 . S
N145 C144 1.307 1_565 S
C146 C144 1.486 . S
C146 H150 0.960 . S
C146 H151 0.960 . S
C146 H152 0.959 . S
H147 C143 0.960 . S
H148 C143 0.961 . S
H149 C143 0.960 . S
H150 C146 0.960 . S
H151 C146 0.960 . S
H152 C146 0.959 . S
C153 N154 1.317 . S
C153 N155 1.348 . S
C153 C156 1.485 . S
N154 C153 1.317 . S
N154 N158 1.370 1_556 S
N155 C153 1.348 . S
N155 C157 1.346 1_556 S
C156 C153 1.485 . S
C156 H160 0.960 . S
C156 H161 0.961 . S
C156 H162 0.960 . S
C157 N155 1.346 1_554 S
C157 N158 1.307 . S
C157 C159 1.486 . S
N158 N154 1.370 1_554 S
N158 C157 1.307 . S
C159 C157 1.486 . S
C159 H163 0.960 . S
C159 H164 0.960 . S
C159 H165 0.959 . S
H160 C156 0.960 . S
H161 C156 0.961 . S
H162 C156 0.960 . S
H163 C159 0.960 . S
H164 C159 0.960 . S
H165 C159 0.959 . S
C166 N167 1.317 1_565 S
C166 N168 1.348 . S
C166 C169 1.485 . S
N167 C166 1.317 1_545 S
N167 N171 1.370 . S
N168 C166 1.348 . S
N168 C170 1.346 . S
C169 C166 1.485 . S
C169 H173 0.960 . S
C169 H174 0.961 . S
C169 H175 0.960 1_565 S
C170 N168 1.346 . S
C170 N171 1.307 1_565 S
C170 C172 1.486 . S
N171 N167 1.370 . S
N171 C170 1.307 1_545 S
C172 C170 1.486 . S
C172 H176 0.960 . S
C172 H177 0.960 . S
C172 H178 0.953 1_565 S
H173 C169 0.960 . S
H174 C169 0.961 . S
H175 C169 0.960 1_545 S
H176 C172 0.960 . S
H177 C172 0.960 . S
H178 C172 0.953 1_545 S
C179 N180 1.317 . S
C179 N181 1.348 . S
C179 C182 1.485 . S
N180 C179 1.317 . S
N180 N184 1.370 1_554 S
N181 C179 1.348 . S
N181 C183 1.346 1_554 S
C182 C179 1.485 . S
C182 H186 0.960 . S
C182 H187 0.961 . S
C182 H188 0.960 . S
C183 N181 1.346 1_556 S
C183 N184 1.307 . S
C183 C185 1.486 . S
N184 N180 1.370 1_556 S
N184 C183 1.307 . S
C185 C183 1.486 . S
C185 H189 0.960 . S
C185 H190 0.960 . S
C185 H191 0.959 . S
H186 C182 0.960 . S
H187 C182 0.961 . S
H188 C182 0.960 . S
H189 C185 0.960 . S
H190 C185 0.960 . S
H191 C185 0.959 . S
C192 C193 1.369 . S
C192 C194 1.419 . S
C192 H196 0.930 . S
C193 C192 1.369 . S
C193 C202 1.429 . S
C194 C192 1.419 . S
C194 C195 1.363 . S
C194 H197 0.929 . S
C195 C194 1.363 . S
C195 C201 1.428 . S
H196 C192 0.930 . S
H197 C194 0.929 . S
S198 N199 1.613 . S
S198 N200 1.610 . S
N199 S198 1.613 . S
N199 C202 1.350 . S
N200 S198 1.610 . S
N200 C201 1.351 . S
C201 C195 1.428 . S
C201 N200 1.351 . S
C201 C202 1.434 . S
C202 C193 1.429 . S
C202 N199 1.350 . S
C202 C201 1.434 . S
C203 C204 1.369 . S
C203 C205 1.419 . S
C203 H207 0.930 . S
C204 C203 1.369 . S
C204 C213 1.429 . S
C205 C203 1.419 . S
C205 C206 1.363 . S
C205 H208 0.929 . S
C206 C205 1.363 . S
C206 C212 1.428 . S
H207 C203 0.930 . S
H208 C205 0.929 . S
S209 N210 1.613 . S
S209 N211 1.610 . S
N210 S209 1.613 . S
N210 C213 1.350 . S
N211 S209 1.610 . S
N211 C212 1.351 . S
C212 C206 1.428 . S
C212 N211 1.351 . S
C212 C213 1.434 . S
C213 C204 1.429 . S
C213 N210 1.350 . S
C213 C212 1.434 . S
C214 C215 1.369 . S
C214 C216 1.419 . S
C214 H218 0.930 . S
C215 C214 1.369 . S
C215 C224 1.429 . S
C216 C214 1.419 . S
C216 C217 1.363 . S
C216 H219 0.929 . S
C217 C216 1.363 . S
C217 C223 1.428 . S
H218 C214 0.930 . S
H219 C216 0.929 . S
S220 N221 1.613 . S
S220 N222 1.610 . S
N221 S220 1.613 . S
N221 C224 1.350 . S
N222 S220 1.610 . S
N222 C223 1.351 . S
C223 C217 1.428 . S
C223 N222 1.351 . S
C223 C224 1.434 . S
C224 C215 1.429 . S
C224 N221 1.350 . S
C224 C223 1.434 . S
C225 C226 1.369 . S
C225 C227 1.419 . S
C225 H229 0.930 . S
C226 C225 1.369 . S
C226 C235 1.429 . S
C227 C225 1.419 . S
C227 C228 1.363 . S
C227 H230 0.929 . S
C228 C227 1.363 . S
C228 C234 1.428 . S
H229 C225 0.930 . S
H230 C227 0.929 . S
S231 N232 1.613 . S
S231 N233 1.610 . S
N232 S231 1.613 . S
N232 C235 1.350 . S
N233 S231 1.610 . S
N233 C234 1.351 . S
C234 C228 1.428 . S
C234 N233 1.351 . S
C234 C235 1.434 . S
C235 C226 1.429 . S
C235 N232 1.350 . S
C235 C234 1.434 . S
C236 C237 1.369 . S
C236 C238 1.419 . S
C236 H240 0.930 . S
C237 C236 1.369 . S
C237 C246 1.429 . S
C238 C236 1.419 . S
C238 C239 1.363 . S
C238 H241 0.929 . S
C239 C238 1.363 . S
C239 C245 1.428 . S
H240 C236 0.930 . S
H241 C238 0.929 . S
S242 N243 1.613 . S
S242 N244 1.610 . S
N243 S242 1.613 . S
N243 C246 1.350 . S
N244 S242 1.610 . S
N244 C245 1.351 . S
C245 C239 1.428 . S
C245 N244 1.351 . S
C245 C246 1.434 . S
C246 C237 1.429 . S
C246 N243 1.350 . S
C246 C245 1.434 . S
C247 C248 1.369 . S
C247 C249 1.419 . S
C247 H251 0.930 . S
C248 C247 1.369 . S
C248 C257 1.429 . S
C249 C247 1.419 . S
C249 C250 1.363 . S
C249 H252 0.929 . S
C250 C249 1.363 . S
C250 C256 1.428 . S
H251 C247 0.930 . S
H252 C249 0.929 . S
S253 N254 1.613 . S
S253 N255 1.610 . S
N254 S253 1.613 . S
N254 C257 1.350 . S
N255 S253 1.610 . S
N255 C256 1.351 . S
C256 C250 1.428 . S
C256 N255 1.351 . S
C256 C257 1.434 . S
C257 C248 1.429 . S
C257 N254 1.350 . S
C257 C256 1.434 . S
C258 C259 1.369 . S
C258 C260 1.419 . S
C258 H262 0.930 . S
C259 C258 1.369 . S
C259 C268 1.429 . S
C260 C258 1.419 . S
C260 C261 1.363 . S
C260 H263 0.929 . S
C261 C260 1.363 . S
C261 C267 1.428 . S
H262 C258 0.930 . S
H263 C260 0.929 . S
S264 N265 1.613 . S
S264 N266 1.610 . S
N265 S264 1.613 . S
N265 C268 1.350 . S
N266 S264 1.610 . S
N266 C267 1.351 . S
C267 C261 1.428 . S
C267 N266 1.351 . S
C267 C268 1.434 . S
C268 C259 1.429 . S
C268 N265 1.350 . S
C268 C267 1.434 . S
C269 C270 1.369 . S
C269 C271 1.419 . S
C269 H273 0.930 . S
C270 C269 1.369 . S
C270 C279 1.429 . S
C271 C269 1.419 . S
C271 C272 1.363 . S
C271 H274 0.929 . S
C272 C271 1.363 . S
C272 C278 1.428 . S
H273 C269 0.930 . S
H274 C271 0.929 . S
S275 N276 1.613 . S
S275 N277 1.610 . S
N276 S275 1.613 . S
N276 C279 1.350 . S
N277 S275 1.610 . S
N277 C278 1.351 . S
C278 C272 1.428 . S
C278 N277 1.351 . S
C278 C279 1.434 . S
C279 C270 1.429 . S
C279 N276 1.350 . S
C279 C278 1.434 . S
C280 C281 1.369 . S
C280 C282 1.419 . S
C280 H284 0.930 . S
C281 C280 1.369 . S
C281 C290 1.429 . S
C282 C280 1.419 . S
C282 C283 1.363 . S
C282 H285 0.929 . S
C283 C282 1.363 . S
C283 C289 1.428 . S
H284 C280 0.930 . S
H285 C282 0.929 . S
S286 N287 1.613 . S
S286 N288 1.610 . S
N287 S286 1.613 . S
N287 C290 1.350 . S
N288 S286 1.610 . S
N288 C289 1.351 . S
C289 C283 1.428 . S
C289 N288 1.351 . S
C289 C290 1.434 . S
C290 C281 1.429 . S
C290 N287 1.350 . S
C290 C289 1.434 . S
C291 C292 1.369 . S
C291 C293 1.419 . S
C291 H295 0.930 . S
C292 C291 1.369 . S
C292 C301 1.429 . S
C293 C291 1.419 . S
C293 C294 1.363 . S
C293 H296 0.929 . S
C294 C293 1.363 . S
C294 C300 1.428 . S
H295 C291 0.930 . S
H296 C293 0.929 . S
S297 N298 1.613 . S
S297 N299 1.610 . S
N298 S297 1.613 . S
N298 C301 1.350 . S
N299 S297 1.610 . S
N299 C300 1.351 . S
C300 C294 1.428 . S
C300 N299 1.351 . S
C300 C301 1.434 . S
C301 C292 1.429 . S
C301 N298 1.350 . S
C301 C300 1.434 . S
C302 C303 1.369 . S
C302 C304 1.419 . S
C302 H306 0.930 . S
C303 C302 1.369 . S
C303 C312 1.429 . S
C304 C302 1.419 . S
C304 C305 1.363 . S
C304 H307 0.929 . S
C305 C304 1.363 . S
C305 C311 1.428 . S
H306 C302 0.930 . S
H307 C304 0.929 . S
S308 N309 1.613 . S
S308 N310 1.610 . S
N309 S308 1.613 . S
N309 C312 1.350 . S
N310 S308 1.610 . S
N310 C311 1.351 . S
C311 C305 1.428 . S
C311 N310 1.351 . S
C311 C312 1.434 . S
C312 C303 1.429 . S
C312 N309 1.350 . S
C312 C311 1.434 . S
C313 C314 1.369 . S
C313 C315 1.419 . S
C313 H317 0.930 . S
C314 C313 1.369 . S
C314 C323 1.429 . S
C315 C313 1.419 . S
C315 C316 1.363 . S
C315 H318 0.929 . S
C316 C315 1.363 . S
C316 C322 1.428 . S
H317 C313 0.930 . S
H318 C315 0.929 . S
S319 N320 1.613 . S
S319 N321 1.610 . S
N320 S319 1.613 . S
N320 C323 1.350 . S
N321 S319 1.610 . S
N321 C322 1.351 . S
C322 C316 1.428 . S
C322 N321 1.351 . S
C322 C323 1.434 . S
C323 C314 1.429 . S
C323 N320 1.350 . S
C323 C322 1.434 . S
C324 C325 1.369 . S
C324 C326 1.419 . S
C324 H328 0.930 . S
C325 C324 1.369 . S
C325 C334 1.429 . S
C326 C324 1.419 . S
C326 C327 1.363 . S
C326 H329 0.929 . S
C327 C326 1.363 . S
C327 C333 1.428 . S
H328 C324 0.930 . S
H329 C326 0.929 . S
S330 N331 1.613 . S
S330 N332 1.610 . S
N331 S330 1.613 . S
N331 C334 1.350 . S
N332 S330 1.610 . S
N332 C333 1.351 . S
C333 C327 1.428 . S
C333 N332 1.351 . S
C333 C334 1.434 . S
C334 C325 1.429 . S
C334 N331 1.350 . S
C334 C333 1.434 . S
C335 C336 1.369 . S
C335 C337 1.419 . S
C335 H339 0.930 . S
C336 C335 1.369 . S
C336 C345 1.429 . S
C337 C335 1.419 . S
C337 C338 1.363 . S
C337 H340 0.929 . S
C338 C337 1.363 . S
C338 C344 1.428 . S
H339 C335 0.930 . S
H340 C337 0.929 . S
S341 N342 1.613 . S
S341 N343 1.610 . S
N342 S341 1.613 . S
N342 C345 1.350 . S
N343 S341 1.610 . S
N343 C344 1.351 . S
C344 C338 1.428 . S
C344 N343 1.351 . S
C344 C345 1.434 . S
C345 C336 1.429 . S
C345 N342 1.350 . S
C345 C344 1.434 . S
C346 C347 1.369 . S
C346 C348 1.419 . S
C346 H350 0.930 . S
C347 C346 1.369 . S
C347 C356 1.429 . S
C348 C346 1.419 . S
C348 C349 1.363 . S
C348 H351 0.929 . S
C349 C348 1.363 . S
C349 C355 1.428 . S
H350 C346 0.930 . S
H351 C348 0.929 . S
S352 N353 1.613 . S
S352 N354 1.610 . S
N353 S352 1.613 . S
N353 C356 1.350 . S
N354 S352 1.610 . S
N354 C355 1.351 . S
C355 C349 1.428 . S
C355 N354 1.351 . S
C355 C356 1.434 . S
C356 C347 1.429 . S
C356 N353 1.350 . S
C356 C355 1.434 . S
C357 C358 1.369 . S
C357 C359 1.419 . S
C357 H361 0.930 . S
C358 C357 1.369 . S
C358 C367 1.429 . S
C359 C357 1.419 . S
C359 C360 1.363 . S
C359 H362 0.929 . S
C360 C359 1.363 . S
C360 C366 1.428 . S
H361 C357 0.930 . S
H362 C359 0.929 . S
S363 N364 1.613 . S
S363 N365 1.610 . S
N364 S363 1.613 . S
N364 C367 1.350 . S
N365 S363 1.610 . S
N365 C366 1.351 . S
C366 C360 1.428 . S
C366 N365 1.351 . S
C366 C367 1.434 . S
C367 C358 1.429 . S
C367 N364 1.350 . S
C367 C366 1.434 . S
C368 C369 1.369 1_556 S
C368 C370 1.419 . S
C368 H372 0.930 . S
C369 C368 1.369 1_554 S
C369 C378 1.429 . S
C370 C368 1.419 . S
C370 C371 1.363 1_556 S
C370 H373 0.929 . S
C371 C370 1.363 1_554 S
C371 C377 1.428 . S
H372 C368 0.930 . S
H373 C370 0.929 . S
S374 N375 1.613 . S
S374 N376 1.610 . S
N375 S374 1.613 . S
N375 C378 1.350 . S
N376 S374 1.610 . S
N376 C377 1.351 . S
C377 C371 1.428 . S
C377 N376 1.351 . S
C377 C378 1.434 . S
C378 C369 1.429 . S
C378 N375 1.350 . S
C378 C377 1.434 . S
C379 C380 1.369 . S
C379 C381 1.419 . S
C379 H383 0.930 . S
C380 C379 1.369 . S
C380 C389 1.429 . S
C381 C379 1.419 . S
C381 C382 1.363 . S
C381 H384 0.929 . S
C382 C381 1.363 . S
C382 C388 1.428 . S
H383 C379 0.930 . S
H384 C381 0.929 . S
S385 N386 1.613 . S
S385 N387 1.610 . S
N386 S385 1.613 . S
N386 C389 1.350 . S
N387 S385 1.610 . S
N387 C388 1.351 . S
C388 C382 1.428 . S
C388 N387 1.351 . S
C388 C389 1.434 . S
C389 C380 1.429 . S
C389 N386 1.350 . S
C389 C388 1.434 . S
C390 C391 1.369 1_556 S
C390 C392 1.419 . S
C390 H394 0.930 . S
C391 C390 1.369 1_554 S
C391 C400 1.429 . S
C392 C390 1.419 . S
C392 C393 1.363 1_556 S
C392 H395 0.929 . S
C393 C392 1.363 1_554 S
C393 C399 1.428 . S
H394 C390 0.930 . S
H395 C392 0.929 . S
S396 N397 1.613 . S
S396 N398 1.610 . S
N397 S396 1.613 . S
N397 C400 1.350 . S
N398 S396 1.610 . S
N398 C399 1.351 . S
C399 C393 1.428 . S
C399 N398 1.351 . S
C399 C400 1.434 . S
C400 C391 1.429 . S
C400 N397 1.350 . S
C400 C399 1.434 . S
C401 C402 1.369 . S
C401 C403 1.419 . S
C401 H405 0.930 . S
C402 C401 1.369 . S
C402 C411 1.429 . S
C403 C401 1.419 . S
C403 C404 1.363 . S
C403 H406 0.929 . S
C404 C403 1.363 . S
C404 C410 1.428 . S
H405 C401 0.930 . S
H406 C403 0.929 . S
S407 N408 1.613 . S
S407 N409 1.610 . S
N408 S407 1.613 . S
N408 C411 1.350 . S
N409 S407 1.610 . S
N409 C410 1.351 . S
C410 C404 1.428 . S
C410 N409 1.351 . S
C410 C411 1.434 . S
C411 C402 1.429 . S
C411 N408 1.350 . S
C411 C410 1.434 . S
C412 C413 1.369 . S
C412 C414 1.419 . S
C412 H416 0.930 . S
C413 C412 1.369 . S
C413 C422 1.429 . S
C414 C412 1.419 . S
C414 C415 1.363 . S
C414 H417 0.929 . S
C415 C414 1.363 . S
C415 C421 1.428 . S
H416 C412 0.930 . S
H417 C414 0.929 . S
S418 N419 1.613 . S
S418 N420 1.610 . S
N419 S418 1.613 . S
N419 C422 1.350 . S
N420 S418 1.610 . S
N420 C421 1.351 . S
C421 C415 1.428 . S
C421 N420 1.351 . S
C421 C422 1.434 . S
C422 C413 1.429 . S
C422 N419 1.350 . S
C422 C421 1.434 . S
C423 C424 1.364 1_556 S
C423 C425 1.419 . S
C423 H427 0.930 . S
C424 C423 1.364 1_554 S
C424 C433 1.433 . S
C425 C423 1.419 . S
C425 C426 1.363 1_556 S
C425 H428 0.929 . S
C426 C425 1.363 1_554 S
C426 C432 1.428 . S
H427 C423 0.930 . S
H428 C425 0.929 . S
S429 N430 1.613 . S
S429 N431 1.610 . S
N430 S429 1.613 . S
N430 C433 1.350 . S
N431 S429 1.610 . S
N431 C432 1.351 . S
C432 C426 1.428 . S
C432 N431 1.351 . S
C432 C433 1.434 . S
C433 C424 1.433 . S
C433 N430 1.350 . S
C433 C432 1.434 . S
C434 C435 1.369 . S
C434 C436 1.419 . S
C434 H438 0.930 . S
C435 C434 1.369 . S
C435 C444 1.429 . S
C436 C434 1.419 . S
C436 C437 1.363 . S
C436 H439 0.929 . S
C437 C436 1.363 . S
C437 C443 1.428 . S
H438 C434 0.930 . S
H439 C436 0.929 . S
S440 N441 1.613 . S
S440 N442 1.610 . S
N441 S440 1.613 . S
N441 C444 1.350 . S
N442 S440 1.610 . S
N442 C443 1.351 . S
C443 C437 1.428 . S
C443 N442 1.351 . S
C443 C444 1.434 . S
C444 C435 1.429 . S
C444 N441 1.350 . S
C444 C443 1.434 . S
C445 C446 1.368 1_556 S
C445 C447 1.419 . S
C445 H449 0.930 . S
C446 C445 1.368 1_554 S
C446 C455 1.430 . S
C447 C445 1.419 . S
C447 C448 1.362 1_556 S
C447 H450 0.929 . S
C448 C447 1.362 1_554 S
C448 C454 1.430 . S
H449 C445 0.930 . S
H450 C447 0.929 . S
S451 N452 1.613 . S
S451 N453 1.610 . S
N452 S451 1.613 . S
N452 C455 1.350 . S
N453 S451 1.610 . S
N453 C454 1.351 . S
C454 C448 1.430 . S
C454 N453 1.351 . S
C454 C455 1.434 . S
C455 C446 1.430 . S
C455 N452 1.350 . S
C455 C454 1.434 . S
C193 C21 1.507 . S
C195 N128 1.512 . S
C204 C40 1.489 . S
C206 N89 1.478 . S
C217 N106 1.467 . S
C215 C54 1.470 . S
C226 C73 1.505 . S
C228 N119 1.510 . S
C239 N158 1.467 . S
C237 C74 1.470 . S
C250 N171 1.486 . S
C248 C10 1.489 . S
C261 N180 1.512 . S
C259 C37 1.508 . S
C272 N141 1.503 . S
C270 C65 1.506 . S
C281 C52 1.469 . S
C283 N102 1.464 . S
C292 C87 1.505 . S
C294 N115 1.512 . S
C303 C15 1.505 . S
C305 N132 1.516 . S
C316 N93 1.484 . S
C314 C32 1.489 . S
C325 C29 1.503 . S
C327 N184 1.515 . S
C338 N145 1.511 . S
C336 C59 1.503 . S
C349 N154 1.464 . S
C347 C84 1.469 . S
C358 C8 1.489 . S
C360 N167 1.486 . S
C371 N90 1.511 1_554 S
C369 C7 1.504 . S
C382 N103 1.483 . S
C380 C30 1.483 . S
C391 C62 1.505 . S
C393 N116 1.504 . S
C402 C81 1.502 . S
C404 N129 1.512 . S
C415 N142 1.498 . S
C413 C76 1.504 . S
C424 C18 1.483 1_554 S
C426 N155 1.484 1_554 S
C435 C43 1.504 . S
C437 N168 1.514 . S
C446 C51 1.503 1_554 S
C448 N181 1.512 . S
