# Generated by pormake.
# Topology apo, (3,6)-cn, num edge types: 1
# Building blocks:
#     Node 0, Type 0, BuildingBlock: BELTOD_clean_linker_0, # of connection points: 3
#     Node 1, Type 0, BuildingBlock: BELTOD_clean_linker_0, # of connection points: 3
#     Node 2, Type 0, BuildingBlock: BELTOD_clean_linker_0, # of connection points: 3
#     Node 3, Type 0, BuildingBlock: BELTOD_clean_linker_0, # of connection points: 3
#     Node 4, Type 0, BuildingBlock: BELTOD_clean_linker_0, # of connection points: 3
#     Node 5, Type 0, BuildingBlock: BELTOD_clean_linker_0, # of connection points: 3
#     Node 6, Type 0, BuildingBlock: BELTOD_clean_linker_0, # of connection points: 3
#     Node 7, Type 0, BuildingBlock: BELTOD_clean_linker_0, # of connection points: 3
#     Node 8, Type 1, BuildingBlock: KUMBUR_clean_sbu_1, # of connection points: 6
#     Node 9, Type 1, BuildingBlock: KUMBUR_clean_sbu_1, # of connection points: 6
#     Node 10, Type 1, BuildingBlock: KUMBUR_clean_sbu_1, # of connection points: 6
#     Node 11, Type 1, BuildingBlock: KUMBUR_clean_sbu_1, # of connection points: 6
#     Edge 12, Type (0, 1), None
#     Edge 13, Type (0, 1), None
#     Edge 14, Type (0, 1), None
#     Edge 15, Type (0, 1), None
#     Edge 16, Type (0, 1), None
#     Edge 17, Type (0, 1), None
#     Edge 18, Type (0, 1), None
#     Edge 19, Type (0, 1), None
#     Edge 20, Type (0, 1), None
#     Edge 21, Type (0, 1), None
#     Edge 22, Type (0, 1), None
#     Edge 23, Type (0, 1), None
#     Edge 24, Type (0, 1), None
#     Edge 25, Type (0, 1), None
#     Edge 26, Type (0, 1), None
#     Edge 27, Type (0, 1), None
#     Edge 28, Type (0, 1), None
#     Edge 29, Type (0, 1), None
#     Edge 30, Type (0, 1), None
#     Edge 31, Type (0, 1), None
#     Edge 32, Type (0, 1), None
#     Edge 33, Type (0, 1), None
#     Edge 34, Type (0, 1), None
#     Edge 35, Type (0, 1), None
# Relax obj value: 0.005
# Max RMSD: 0.164
# Mean RMSD: 0.117
data_MOF--net-apo--node1-KUMBUR_clean_sbu_1--node2-BELTOD_clean_linker_0--edge1-none
_symmetry_space_group_name_H-M    P1
_symmetry_Int_Tables_number       1
_symmetry_cell_setting            triclinic
loop_
_symmetry_equiv_pos_as_xyz
'x, y, z'
_cell_length_a     14.453824
_cell_length_b     24.354384
_cell_length_c     34.4458
_cell_angle_alpha  89.608005
_cell_angle_beta   89.948851
_cell_angle_gamma 90.138932
loop_
_atom_site_label
_atom_site_type_symbol
_atom_site_fract_x
_atom_site_fract_y
_atom_site_fract_z
_atom_type_partial_charge
P0 P 0.36355 0.35148 0.39295 0.0
H1 H 0.37408 0.29066 0.46643 0.0
H2 H 0.33145 0.31411 0.53328 0.0
H3 H 0.24011 0.47371 0.49325 0.0
H4 H 0.27556 0.44841 0.42697 0.0
H5 H 0.37134 0.23552 0.37327 0.0
H6 H 0.26606 0.17436 0.33983 0.0
H7 H 0.06581 0.30495 0.32945 0.0
H8 H 0.17133 0.36621 0.36526 0.0
H9 H 0.46223 0.45252 0.4103 0.0
H10 H 0.31496 0.38507 0.3127 0.0
O11 O 0.46527 0.31947 0.39547 0.0
H12 H 0.48925 0.53732 0.37391 0.0
H13 H 0.34525 0.46865 0.27567 0.0
C14 C 0.32916 0.36803 0.44179 0.0
C15 C 0.34418 0.33052 0.47222 0.0
C16 C 0.32078 0.34423 0.51046 0.0
C17 C 0.2821 0.39585 0.51882 0.0
C18 C 0.26793 0.4332 0.48801 0.0
C19 C 0.28932 0.419 0.44991 0.0
C20 C 0.28025 0.30588 0.37094 0.0
C21 C 0.30473 0.25124 0.36419 0.0
C22 C 0.24445 0.21629 0.3447 0.0
C23 C 0.15873 0.23529 0.33084 0.0
C24 C 0.13174 0.28929 0.33946 0.0
C25 C 0.19209 0.32431 0.35967 0.0
C26 C 0.38318 0.4133 0.36492 0.0
C27 C 0.43485 0.45618 0.38115 0.0
C28 C 0.45068 0.50461 0.36021 0.0
C29 C 0.41786 0.51041 0.32204 0.0
C30 C 0.36928 0.46636 0.30529 0.0
C31 C 0.35196 0.41826 0.32654 0.0
P32 P 0.32096 0.09242 0.89619 0.0
H33 H 0.35668 0.98226 0.86846 0.0
H34 H 0.26421 0.91663 0.83327 0.0
H35 H 0.04431 0.03553 0.82222 0.0
H36 H 0.13576 0.10083 0.86062 0.0
H37 H 0.50202 0.13432 0.87502 0.0
H38 H 0.55385 0.21189 0.83706 0.0
H39 H 0.27079 0.2652 0.82294 0.0
H40 H 0.21835 0.18561 0.86107 0.0
H41 H 0.18366 0.02992 0.93994 0.0
H42 H 0.34181 0.17908 0.95337 0.0
O43 O 0.41716 0.05894 0.90885 0.0
H44 H 0.16624 0.02291 1.01004 0.0
H45 H 0.32396 0.17185 0.02385 0.0
C46 C 0.25398 0.04698 0.8665 0.0
C47 C 0.28897 0.99478 0.85844 0.0
C48 C 0.23616 0.95722 0.83792 0.0
C49 C 0.14819 0.97148 0.82404 0.0
C50 C 0.11234 0.02367 0.83239 0.0
C51 C 0.16496 0.06121 0.85376 0.0
C52 C 0.35605 0.15334 0.87027 0.0
C53 C 0.45043 0.16228 0.86372 0.0
C54 C 0.48016 0.20703 0.84178 0.0
C55 C 0.41618 0.24414 0.82569 0.0
C56 C 0.32154 0.23655 0.83371 0.0
C57 C 0.29153 0.19116 0.85571 0.0
C58 C 0.26389 0.10521 0.94136 0.0
C59 C 0.20941 0.06319 0.95763 0.0
C60 C 0.19935 0.05906 0.99779 0.0
C61 C 0.24393 0.09682 0.02194 0.0
C62 C 0.28801 0.14279 1.00553 0.0
C63 C 0.29814 0.1469 0.96527 0.0
P64 P 0.87461 0.15279 0.63396 0.0
H65 H 0.97471 0.19677 0.56659 0.0
H66 H 0.93033 0.20789 0.49847 0.0
H67 H 0.68073 0.11515 0.52017 0.0
H68 H 0.72583 0.10344 0.58848 0.0
H69 H 0.84154 0.27042 0.63532 0.0
H70 H 0.72722 0.32696 0.66873 0.0
H71 H 0.59205 0.18138 0.71243 0.0
H72 H 0.70411 0.12427 0.67745 0.0
H73 H 0.90959 0.03938 0.60698 0.0
H74 H 0.8725 0.12388 0.71544 0.0
O75 O 0.97391 0.18629 0.64118 0.0
H76 H 0.94445 0.95417 0.6427 0.0
H77 H 0.90579 0.03981 0.751 0.0
C78 C 0.85355 0.14906 0.58256 0.0
C79 C 0.91185 0.17727 0.55655 0.0
C80 C 0.88667 0.18359 0.51759 0.0
C81 C 0.80216 0.16248 0.5043 0.0
C82 C 0.74621 0.13182 0.52991 0.0
C83 C 0.77194 0.125 0.56878 0.0
C84 C 0.78314 0.19323 0.65492 0.0
C85 C 0.78616 0.25053 0.65133 0.0
C86 C 0.72012 0.28288 0.66993 0.0
C87 C 0.65083 0.25847 0.69275 0.0
C88 C 0.64515 0.20101 0.69493 0.0
C89 C 0.70972 0.16851 0.67534 0.0
C90 C 0.88603 0.08762 0.65858 0.0
C91 C 0.90675 0.03932 0.63839 0.0
C92 C 0.92703 0.99075 0.65882 0.0
C93 C 0.9277 0.99012 0.6997 0.0
C94 C 0.90511 0.0385 0.71958 0.0
C95 C 0.88562 0.08674 0.69923 0.0
P96 P 0.81994 0.40379 0.12576 0.0
H97 H 0.79212 0.52191 0.12514 0.0
H98 H 0.69427 0.5825 0.16377 0.0
H99 H 0.57248 0.44188 0.22106 0.0
H100 H 0.66734 0.38062 0.18067 0.0
H101 H 0.88722 0.29335 0.10642 0.0
H102 H 0.943 0.21694 0.14604 0.0
H103 H 0.89857 0.31271 0.24951 0.0
H104 H 0.84175 0.38863 0.20977 0.0
H105 H 0.8379 0.45071 0.04767 0.0
H106 H 0.70091 0.31227 0.10141 0.0
O107 O 0.91569 0.44065 0.11785 0.0
H108 H 0.808 0.41199 0.9834 0.0
H109 H 0.67254 0.27286 0.03719 0.0
C110 C 0.73867 0.44689 0.15079 0.0
C111 C 0.74347 0.50391 0.14552 0.0
C112 C 0.68771 0.53848 0.16753 0.0
C113 C 0.62761 0.51654 0.19559 0.0
C114 C 0.61979 0.45942 0.1999 0.0
C115 C 0.67375 0.42464 0.17692 0.0
C116 C 0.85528 0.34581 0.15517 0.0
C117 C 0.88685 0.29746 0.13767 0.0
C118 C 0.91986 0.2539 0.16037 0.0
C119 C 0.92425 0.25842 0.201 0.0
C120 C 0.89471 0.30747 0.21835 0.0
C121 C 0.86143 0.35086 0.19562 0.0
C122 C 0.775 0.38311 0.07925 0.0
C123 C 0.79974 0.41253 0.04562 0.0
C124 C 0.78204 0.39064 1.00888 0.0
C125 C 0.73974 0.33894 1.00547 0.0
C126 C 0.70644 0.31247 0.03914 0.0
C127 C 0.72287 0.33482 0.07579 0.0
P128 P 0.81508 0.59683 0.62385 0.0
H129 H 0.88931 0.63967 0.55085 0.0
H130 H 0.84145 0.62 0.48411 0.0
H131 H 0.58025 0.55828 0.52685 0.0
H132 H 0.62773 0.57819 0.59317 0.0
H133 H 0.96091 0.6108 0.67905 0.0
H134 H 0.01104 0.68625 0.71932 0.0
H135 H 0.78466 0.78548 0.67701 0.0
H136 H 0.73421 0.70819 0.6356 0.0
H137 H 0.78072 0.48038 0.61672 0.0
H138 H 0.69512 0.61103 0.69279 0.0
O139 O 0.91321 0.56343 0.61435 0.0
H140 H 0.69202 0.41469 0.65578 0.0
H141 H 0.60753 0.5445 0.73231 0.0
C142 C 0.76299 0.60934 0.57707 0.0
C143 C 0.81993 0.62446 0.54571 0.0
C144 C 0.79262 0.61309 0.50753 0.0
C145 C 0.70802 0.5864 0.50047 0.0
C146 C 0.64641 0.57814 0.53159 0.0
C147 C 0.67356 0.58969 0.5696 0.0
C148 C 0.8467 0.6549 0.65295 0.0
C149 C 0.92227 0.64883 0.67789 0.0
C150 C 0.95041 0.69194 0.70124 0.0
C151 C 0.9028 0.7421 0.70067 0.0
C152 C 0.82289 0.74729 0.67766 0.0
C153 C 0.79491 0.70365 0.65372 0.0
C154 C 0.74581 0.55027 0.65225 0.0
C155 C 0.74327 0.49481 0.64191 0.0
C156 C 0.69319 0.45727 0.66425 0.0
C157 C 0.64452 0.47476 0.69701 0.0
C158 C 0.64459 0.5305 0.7069 0.0
C159 C 0.69499 0.56826 0.68451 0.0
P160 P 0.84609 0.85691 0.1345 0.0
H161 H 0.92602 0.87321 0.2101 0.0
H162 H 0.96434 0.95514 0.24733 0.0
H163 H 0.82506 0.05629 0.16247 0.0
H164 H 0.78752 0.97346 0.12454 0.0
H165 H 0.84879 0.73834 0.14532 0.0
H166 H 0.74945 0.67487 0.18091 0.0
H167 H 0.56403 0.80762 0.20883 0.0
H168 H 0.66509 0.87186 0.17289 0.0
H169 H 0.96209 0.89722 0.07101 0.0
H170 H 0.67797 0.84732 0.08654 0.0
O171 O 0.94965 0.82672 0.13563 0.0
H172 H 0.93185 0.91699 1.00211 0.0
H173 H 0.64749 0.8673 0.01792 0.0
C174 C 0.85628 0.91744 0.16411 0.0
C175 C 0.90221 0.91281 0.19974 0.0
C176 C 0.92361 0.95956 0.22109 0.0
C177 C 0.89798 0.0118 0.20755 0.0
C178 C 0.84494 0.01628 0.17352 0.0
C179 C 0.82438 0.96914 0.15173 0.0
C180 C 0.765 0.80994 0.15684 0.0
C181 C 0.78655 0.75398 0.15876 0.0
C182 C 0.72971 0.71766 0.17926 0.0
C183 C 0.64954 0.73639 0.198 0.0
C184 C 0.62545 0.79211 0.19461 0.0
C185 C 0.68313 0.82876 0.17422 0.0
C186 C 0.82215 0.87101 0.08394 0.0
C187 C 0.8934 0.8901 0.05952 0.0
C188 C 0.87649 0.90079 0.02009 0.0
C189 C 0.78755 0.89327 1.00463 0.0
C190 C 0.71678 0.8733 0.02911 0.0
C191 C 0.73392 0.86224 0.06839 0.0
P192 P 0.32748 0.90374 0.39585 0.0
H193 H 0.41023 0.91216 0.4732 0.0
H194 H 0.36632 0.87343 0.53632 0.0
H195 H 0.11604 0.80827 0.48604 0.0
H196 H 0.15916 0.84842 0.4229 0.0
H197 H 0.41122 0.8944 0.31929 0.0
H198 H 0.45938 0.81565 0.28008 0.0
H199 H 0.37187 0.70537 0.37156 0.0
H200 H 0.32171 0.78346 0.41025 0.0
H201 H 0.24627 0.00985 0.4133 0.0
H202 H 0.21822 0.88724 0.32417 0.0
O203 O 0.42086 0.9435 0.40079 0.0
H204 H 0.14667 0.072 0.37586 0.0
H205 H 0.12202 0.94987 0.28621 0.0
C206 C 0.28782 0.88314 0.44339 0.0
C207 C 0.3449 0.89063 0.47585 0.0
C208 C 0.31985 0.86848 0.51193 0.0
C209 C 0.23827 0.83748 0.51585 0.0
C210 C 0.17966 0.83164 0.4836 0.0
C211 C 0.2039 0.85476 0.44769 0.0
C212 C 0.36179 0.84505 0.36753 0.0
C213 C 0.40148 0.85325 0.33075 0.0
C214 C 0.4286 0.8084 0.30835 0.0
C215 C 0.41887 0.75475 0.32294 0.0
C216 C 0.38022 0.7465 0.35988 0.0
C217 C 0.35123 0.79129 0.38192 0.0
C218 C 0.24108 0.94431 0.3713 0.0
C219 C 0.21765 0.996 0.38601 0.0
C220 C 0.16065 0.03138 0.36469 0.0
C221 C 0.12744 0.01571 0.32811 0.0
C222 C 0.14748 0.96298 0.31424 0.0
C223 C 0.203 0.92728 0.3359 0.0
P224 P 0.36786 0.64931 0.88553 0.0
H225 H 0.42157 0.62797 0.80657 0.0
H226 H 0.45644 0.54435 0.7709 0.0
H227 H 0.4054 0.44767 0.87429 0.0
H228 H 0.36724 0.53205 0.90989 0.0
H229 H 0.29668 0.75939 0.89717 0.0
H230 H 0.18065 0.81459 0.86283 0.0
H231 H 0.11892 0.67698 0.78893 0.0
H232 H 0.23158 0.62104 0.82436 0.0
H233 H 0.48433 0.65372 0.955 0.0
H234 H 0.19591 0.62912 0.92816 0.0
O235 O 0.46254 0.6882 0.8811 0.0
H236 H 0.44496 0.66735 0.02345 0.0
H237 H 0.15625 0.64221 0.99647 0.0
C238 C 0.39124 0.58612 0.86069 0.0
C239 C 0.41692 0.58876 0.82152 0.0
C240 C 0.43658 0.54099 0.80115 0.0
C241 C 0.4335 0.4897 0.8199 0.0
C242 C 0.40837 0.48689 0.85931 0.0
C243 C 0.38664 0.53494 0.87958 0.0
C244 C 0.27456 0.68659 0.86276 0.0
C245 C 0.2569 0.74075 0.87409 0.0
C246 C 0.19016 0.77206 0.85474 0.0
C247 C 0.14128 0.7498 0.82334 0.0
C248 C 0.15618 0.69489 0.81303 0.0
C249 C 0.22138 0.66318 0.83303 0.0
C250 C 0.34265 0.64199 0.93647 0.0
C251 C 0.41282 0.6498 0.96402 0.0
C252 C 0.39034 0.65736 1.00316 0.0
C253 C 0.29732 0.6572 0.01505 0.0
C254 C 0.22835 0.64375 0.9879 0.0
C255 C 0.25092 0.63605 0.9489 0.0
Tb256 Tb 0.13052 0.1269 0.2289 0.0
C257 C 0.72 0.09438 0.26518 0.0
N258 N 0.7699 0.14181 0.26418 0.0
C259 C 0.65301 0.18444 0.22494 0.0
C260 C 0.63557 0.0897 0.24505 0.0
C261 C 0.73626 0.18717 0.24553 0.0
C262 C 0.60299 0.1353 0.22429 0.0
C263 C 0.70427 0.00087 0.28861 0.0
C264 C 0.75571 0.04992 0.28563 0.0
C265 C 0.61989 0.9959 0.26869 0.0
C266 C 0.58634 0.03994 0.24648 0.0
Tb267 Tb 0.90721 0.14001 0.29695 0.0
N268 N 0.83982 0.05522 0.30313 0.0
C269 C 0.73801 0.95873 0.31229 0.0
C270 C 0.87103 0.01487 0.32753 0.0
C271 C 0.82118 0.96603 0.3322 0.0
H272 H 0.77257 0.22574 0.24702 0.0
H273 H 0.84612 0.93458 0.35188 0.0
H274 H 0.27002 0.03978 0.27436 0.0
H275 H 0.18378 0.33574 0.17881 0.0
H276 H 0.93186 0.02064 0.34504 0.0
H277 H 0.69857 0.92131 0.31631 0.0
H278 H 0.10535 0.24662 0.18173 0.0
H279 H 0.62699 0.22038 0.20991 0.0
H280 H 0.5799 0.95826 0.27042 0.0
H281 H 0.52133 0.03548 0.23116 0.0
H282 H 0.41942 0.04354 0.30874 0.0
H283 H 0.53835 0.13337 0.20843 0.0
H284 H 0.32948 0.35013 0.21522 0.0
N285 N 0.27146 0.12439 0.25873 0.0
C286 C 0.32064 0.172 0.25827 0.0
C287 C 0.39207 0.08011 0.29494 0.0
C288 C 0.40716 0.17583 0.27687 0.0
C289 C 0.30681 0.07826 0.27586 0.0
C290 C 0.44214 0.12923 0.29575 0.0
N291 N 0.197 0.21221 0.22351 0.0
C292 C 0.16438 0.25313 0.20001 0.0
C293 C 0.3312 0.26746 0.2386 0.0
C294 C 0.28189 0.21747 0.24024 0.0
C295 C 0.29344 0.31119 0.21748 0.0
C296 C 0.21074 0.30349 0.19731 0.0
H297 H 0.50817 0.13055 0.31059 0.0
H298 H 0.52166 0.22988 0.29064 0.0
H299 H 0.45605 0.30989 0.25643 0.0
O300 O 0.13819 0.13303 0.16734 0.0
O301 O 0.14749 0.16027 0.28721 0.0
O302 O 0.0126 0.20522 0.3028 0.0
O303 O 0.22779 0.0782 0.20049 0.0
O304 O 0.00856 0.17324 0.20838 0.0
O305 O 0.94208 0.21247 0.26251 0.0
O306 O 0.89502 0.13226 0.35781 0.0
O307 O 0.89384 0.10064 0.23918 0.0
O308 O 0.03319 0.05881 0.22723 0.0
O309 O 0.80646 0.18825 0.32508 0.0
O310 O 0.02639 0.09318 0.31924 0.0
O311 O 0.09934 0.0555 0.26569 0.0
C312 C 0.10296 0.19914 0.30544 0.0
C313 C 0.25207 0.07894 0.13124 0.0
C314 C 0.27019 0.07901 0.06117 0.0
C315 C 0.34555 0.04313 0.06493 0.0
C316 C 0.3279 0.0431 0.13447 0.0
C317 C 0.37426 0.02537 0.10143 0.0
C318 C 0.22333 0.09713 0.09432 0.0
C319 C 0.96113 0.2128 0.22518 0.0
C320 C 0.20539 0.09752 0.16668 0.0
C321 C 0.45512 0.22605 0.27644 0.0
C322 C 0.4175 0.27168 0.25714 0.0
C323 C 0.94278 0.0601 0.22498 0.0
C324 C 0.78082 0.1834 0.39505 0.0
C325 C 0.76664 0.17866 0.46566 0.0
C326 C 0.68362 0.20824 0.46323 0.0
C327 C 0.69809 0.21345 0.39337 0.0
C328 C 0.81561 0.16659 0.43146 0.0
C329 C 0.65 0.22575 0.42732 0.0
C330 C 0.07947 0.05577 0.30305 0.0
C331 C 0.82747 0.16739 0.35877 0.0
H332 H 0.38249 0.0291 0.03947 0.0
H333 H 0.35188 0.02889 0.16257 0.0
H334 H 0.4327 -0.00209 0.10413 0.0
H335 H 0.16531 0.12497 0.09132 0.0
H336 H 0.64543 0.2185 0.48927 0.0
H337 H 0.6697 0.22672 0.36577 0.0
H338 H 0.87954 0.14352 0.43325 0.0
H339 H 0.58611 0.24864 0.42584 0.0
Tb340 Tb 0.40724 0.36645 0.72643 0.0
C341 C 0.81991 0.40747 0.76962 0.0
N342 N 0.77505 0.35844 0.7691 0.0
C343 C 0.89851 0.31941 0.73198 0.0
C344 C 0.9052 0.41487 0.7505 0.0
C345 C 0.8147 0.31393 0.75202 0.0
C346 C 0.94328 0.37033 0.73068 0.0
C347 C 0.82467 0.50114 0.79217 0.0
C348 C 0.77845 0.45051 0.78886 0.0
C349 C 0.90972 0.50918 0.77311 0.0
C350 C 0.94941 0.46628 0.7519 0.0
Tb351 Tb 0.631 0.35686 0.7964 0.0
N352 N 0.69434 0.44189 0.80558 0.0
C353 C 0.78553 0.5414 0.81561 0.0
C354 C 0.65966 0.47949 0.83085 0.0
C355 C 0.70343 0.53025 0.83563 0.0
H356 H 0.78131 0.27427 0.75346 0.0
H357 H 0.67501 0.56011 0.85546 0.0
H358 H 0.27226 0.45187 0.77663 0.0
H359 H 0.35911 0.15804 0.67863 0.0
H360 H 0.60089 0.46973 0.84879 0.0
H361 H 0.82082 0.57996 0.81978 0.0
H362 H 0.44388 0.24481 0.68525 0.0
H363 H 0.92864 0.28433 0.71762 0.0
H364 H 0.94572 0.54816 0.77493 0.0
H365 H 0.01509 0.4729 0.7374 0.0
H366 H 0.12464 0.44592 0.81216 0.0
H367 H 0.00829 0.37442 0.71522 0.0
H368 H 0.20663 0.14627 0.71112 0.0
N369 N 0.26921 0.36842 0.75852 0.0
C370 C 0.219 0.32122 0.7569 0.0
C371 C 0.15092 0.41038 0.79705 0.0
C372 C 0.13346 0.31632 0.77629 0.0
C373 C 0.23531 0.41337 0.77725 0.0
C374 C 0.10036 0.36144 0.79702 0.0
N375 N 0.34329 0.28124 0.72216 0.0
C376 C 0.37947 0.23973 0.70056 0.0
C377 C 0.20678 0.22706 0.73538 0.0
C378 C 0.25684 0.27648 0.73776 0.0
C379 C 0.24462 0.18405 0.71418 0.0
C380 C 0.33072 0.19054 0.69624 0.0
H381 H 0.0352 0.35921 0.81254 0.0
H382 H 0.01909 0.2617 0.78981 0.0
H383 H 0.08152 0.18419 0.75269 0.0
O384 O 0.39206 0.35764 0.66527 0.0
O385 O 0.39411 0.3238 0.78343 0.0
O386 O 0.53799 0.28789 0.79056 0.0
O387 O 0.30661 0.41411 0.6984 0.0
O388 O 0.5323 0.32642 0.70269 0.0
O389 O 0.6079 0.28867 0.75601 0.0
O390 O 0.62174 0.35737 0.85793 0.0
O391 O 0.64816 0.39877 0.74027 0.0
O392 O 0.50596 0.43475 0.72203 0.0
O393 O 0.72522 0.30828 0.82776 0.0
O394 O 0.50489 0.40031 0.81559 0.0
O395 O 0.43675 0.43864 0.76112 0.0
C396 C 0.45081 0.28883 0.80009 0.0
C397 C 0.27388 0.40997 0.62947 0.0
C398 C 0.25209 0.41042 0.5589 0.0
C399 C 0.17049 0.44102 0.56408 0.0
C400 C 0.1929 0.44118 0.63348 0.0
C401 C 0.14169 0.45644 0.60099 0.0
C402 C 0.3034 0.39455 0.59204 0.0
C403 C 0.59372 0.29281 0.71824 0.0
C404 C 0.32497 0.39319 0.66473 0.0
C405 C 0.08477 0.26641 0.77496 0.0
C406 C 0.12058 0.22217 0.754 0.0
C407 C 0.59694 0.43432 0.72139 0.0
C408 C 0.7262 0.30193 0.8981 0.0
C409 C 0.74545 0.30848 0.96842 0.0
C410 C 0.78909 0.25697 0.9684 0.0
C411 C 0.77097 0.25086 0.89889 0.0
C412 C 0.71403 0.33103 0.93302 0.0
C413 C 0.80199 0.22857 0.93386 0.0
C414 C 0.45933 0.44016 0.79806 0.0
C415 C 0.69043 0.32313 0.86085 0.0
H416 H 0.12787 0.45269 0.53956 0.0
H417 H 0.16832 0.45338 0.66186 0.0
H418 H 0.07893 0.48008 0.60445 0.0
H419 H 0.36652 0.37112 0.58874 0.0
H420 H 0.81531 0.23919 0.99512 0.0
H421 H 0.781 0.22773 0.87246 0.0
H422 H 0.6804 0.37078 0.9327 0.0
H423 H 0.83641 0.18915 0.93419 0.0
Tb424 Tb 0.13092 0.85821 0.72496 0.0
C425 C 0.71973 0.8202 0.76475 0.0
N426 N 0.7686 0.86792 0.76328 0.0
C427 C 0.65033 0.90922 0.72409 0.0
C428 C 0.6352 0.8146 0.74485 0.0
C429 C 0.73387 0.91282 0.74439 0.0
C430 C 0.60141 0.85967 0.72384 0.0
C431 C 0.70589 0.72722 0.78932 0.0
C432 C 0.75665 0.77634 0.7854 0.0
C433 C 0.6214 0.72124 0.76961 0.0
C434 C 0.58715 0.76445 0.74676 0.0
Tb435 Tb 0.90712 0.86702 0.79499 0.0
N436 N 0.84126 0.78236 0.80229 0.0
C437 C 0.7405 0.68611 0.81367 0.0
C438 C 0.87435 0.74276 0.82679 0.0
C439 C 0.82453 0.69419 0.83287 0.0
H440 H 0.76969 0.95166 0.74522 0.0
H441 H 0.85038 0.66348 0.85292 0.0
H442 H 0.26999 0.76438 0.7644 0.0
H443 H 0.19458 0.06644 0.68043 0.0
H444 H 0.9369 0.74911 0.84317 0.0
H445 H 0.70133 0.64883 0.8186 0.0
H446 H 0.10807 0.98057 0.68412 0.0
H447 H 0.62335 0.94476 0.70889 0.0
H448 H 0.58199 0.68343 0.77191 0.0
H449 H 0.52235 0.75915 0.73143 0.0
H450 H 0.41567 0.76412 0.80167 0.0
H451 H 0.53662 0.85706 0.70815 0.0
H452 H 0.34145 0.07673 0.71759 0.0
N453 N 0.27166 0.85063 0.75452 0.0
C454 C 0.32187 0.89773 0.75673 0.0
C455 C 0.38972 0.80212 0.78941 0.0
C456 C 0.40764 0.89914 0.77606 0.0
C457 C 0.30627 0.80255 0.76889 0.0
C458 C 0.44013 0.85079 0.79343 0.0
N459 N 0.19965 0.94249 0.72406 0.0
C460 C 0.16844 0.98508 0.70189 0.0
C461 C 0.33692 0.99403 0.74014 0.0
C462 C 0.2852 0.94503 0.74044 0.0
C463 C 0.30224 0.03899 0.71945 0.0
C464 C 0.21896 0.03381 0.69919 0.0
H465 H 0.50503 0.8503 0.80915 0.0
H466 H 0.52351 0.9507 0.79241 0.0
H467 H 0.46313 0.03341 0.75965 0.0
O468 O 0.14003 0.87535 0.66521 0.0
O469 O 0.14439 0.89347 0.78291 0.0
O470 O 0.00628 0.93508 0.79796 0.0
O471 O 0.22702 0.81395 0.69154 0.0
O472 O 0.00587 0.90236 0.70486 0.0
O473 O 0.93648 0.93916 0.75934 0.0
O474 O 0.90066 0.86133 0.85679 0.0
O475 O 0.89322 0.8268 0.73748 0.0
O476 O 0.03558 0.78959 0.72224 0.0
O477 O 0.80764 0.91418 0.82396 0.0
O478 O 0.0305 0.82229 0.81542 0.0
O479 O 0.10177 0.7856 0.76099 0.0
C480 C 0.09678 0.93187 0.80021 0.0
C481 C 0.20098 0.80837 0.62331 0.0
C482 C 0.21763 0.80829 0.55276 0.0
C483 C 0.20193 0.75135 0.55286 0.0
C484 C 0.18557 0.75148 0.62295 0.0
C485 C 0.18636 0.72318 0.58779 0.0
C486 C 0.21736 0.8365 0.58817 0.0
C487 C 0.95692 0.94086 0.72209 0.0
C488 C 0.20522 0.8396 0.65961 0.0
C489 C 0.45743 0.94869 0.77765 0.0
C490 C 0.42278 0.99587 0.75922 0.0
C491 C 0.94479 0.78893 0.72114 0.0
C492 C 0.78669 0.91491 0.89413 0.0
C493 C 0.7646 0.91305 0.96484 0.0
C494 C 0.69321 0.95164 0.9607 0.0
C495 C 0.715 0.95363 0.89121 0.0
C496 C 0.81229 0.89502 0.93135 0.0
C497 C 0.66905 0.97187 0.92423 0.0
C498 C 0.08427 0.78572 0.79861 0.0
C499 C 0.83276 0.89629 0.85796 0.0
H500 H 0.20359 0.72852 0.52599 0.0
H501 H 0.17375 0.72895 0.64973 0.0
H502 H 0.17553 0.6792 0.5876 0.0
H503 H 0.23015 0.88042 0.5884 0.0
H504 H 0.65656 0.9667 0.98592 0.0
H505 H 0.69406 0.97 0.86326 0.0
H506 H 0.86755 0.86527 0.93424 0.0
H507 H 0.6142 0.00184 0.92152 0.0
Tb508 Tb 0.40224 0.63611 0.22458 0.0
C509 C 0.80581 0.67858 0.26756 0.0
N510 N 0.76056 0.62979 0.26543 0.0
C511 C 0.88567 0.59177 0.22874 0.0
C512 C 0.89154 0.68662 0.24883 0.0
C513 C 0.8012 0.58571 0.24815 0.0
C514 C 0.93057 0.64265 0.22866 0.0
C515 C 0.81114 0.77114 0.29229 0.0
C516 C 0.76517 0.72042 0.28853 0.0
C517 C 0.89561 0.78006 0.27295 0.0
C518 C 0.93556 0.73793 0.25112 0.0
Tb519 Tb 0.62282 0.62428 0.29738 0.0
N520 N 0.6832 0.71034 0.30685 0.0
C521 C 0.77275 0.81064 0.31656 0.0
C522 C 0.64905 0.7476 0.33263 0.0
C523 C 0.69185 0.79872 0.33714 0.0
H524 H 0.76888 0.54577 0.24939 0.0
H525 H 0.66388 0.82826 0.35731 0.0
H526 H 0.27213 0.727 0.27441 0.0
H527 H 0.31724 0.43682 0.1683 0.0
H528 H 0.59143 0.73745 0.35119 0.0
H529 H 0.80775 0.84928 0.32092 0.0
H530 H 0.41221 0.52067 0.17575 0.0
H531 H 0.91667 0.55702 0.21431 0.0
H532 H 0.93146 0.81902 0.27534 0.0
H533 H 0.00127 0.74511 0.23677 0.0
H534 H 0.129 0.72492 0.31256 0.0
H535 H 0.99634 0.64713 0.21385 0.0
H536 H 0.17077 0.42675 0.20516 0.0
N537 N 0.26824 0.64173 0.26046 0.0
C538 C 0.21347 0.59612 0.25956 0.0
C539 C 0.1531 0.68795 0.29856 0.0
C540 C 0.12863 0.5938 0.2798 0.0
C541 C 0.23624 0.68845 0.27769 0.0
C542 C 0.09993 0.64011 0.30027 0.0
N543 N 0.32217 0.55629 0.21739 0.0
C544 C 0.34918 0.51616 0.19233 0.0
C545 C 0.1839 0.50549 0.23325 0.0
C546 C 0.24023 0.55251 0.23656 0.0
C547 C 0.21256 0.46331 0.20863 0.0
C548 C 0.29525 0.46884 0.18787 0.0
H549 H 0.03492 0.64014 0.31598 0.0
H550 H 0.00864 0.54356 0.2934 0.0
H551 H 0.05692 0.4663 0.25245 0.0
O552 O 0.41002 0.63713 0.1628 0.0
O553 O 0.41576 0.56363 0.2626 0.0
O554 O 0.48339 0.60128 0.31573 0.0
O555 O 0.29734 0.67657 0.19405 0.0
O556 O 0.52404 0.59138 0.20375 0.0
O557 O 0.59849 0.55412 0.25826 0.0
O558 O 0.69373 0.63067 0.35055 0.0
O559 O 0.63775 0.65585 0.23795 0.0
O560 O 0.50457 0.70322 0.22442 0.0
O561 O 0.67567 0.55248 0.32326 0.0
O562 O 0.50019 0.66924 0.318 0.0
O563 O 0.43031 0.70614 0.26293 0.0
C564 C 0.43674 0.56139 0.29959 0.0
C565 C 0.29009 0.68349 0.12409 0.0
C566 C 0.27074 0.67843 0.05375 0.0
C567 C 0.20057 0.71822 0.0561 0.0
C568 C 0.21956 0.72305 0.12555 0.0
C569 C 0.17548 0.74036 0.09173 0.0
C570 C 0.31629 0.66155 0.08797 0.0
C571 C 0.57645 0.55395 0.22089 0.0
C572 C 0.33333 0.66486 0.1606 0.0
C573 C 0.07366 0.5462 0.27779 0.0
C574 C 0.10095 0.50226 0.25438 0.0
C575 C 0.59495 0.69784 0.22224 0.0
C576 C 0.69131 0.55246 0.39229 0.0
C577 C 0.69243 0.55695 0.46338 0.0
C578 C 0.67508 0.50014 0.4649 0.0
C579 C 0.67544 0.49559 0.39491 0.0
C580 C 0.70128 0.583 0.42688 0.0
C581 C 0.667 0.46982 0.43095 0.0
C582 C 0.45153 0.70767 0.30014 0.0
C583 C 0.70671 0.57814 0.35366 0.0
H584 H 0.166 0.733 0.03018 0.0
H585 H 0.19836 0.74079 0.15289 0.0
H586 H 0.12167 0.77113 0.09312 0.0
H587 H 0.37039 0.63088 0.08654 0.0
H588 H 0.67048 0.47876 0.49253 0.0
H589 H 0.67038 0.47073 0.36905 0.0
H590 H 0.71675 0.62654 0.42551 0.0
H591 H 0.6553 0.42595 0.43258 0.0
loop_
_geom_bond_atom_site_label_1
_geom_bond_atom_site_label_2
_geom_bond_distance
_geom_bond_site_symmetry_2
_ccdc_geom_bond_type
P0 O11 1.490 . S
P0 C14 1.812 . S
P0 C20 1.803 . S
P0 C26 1.819 . S
H1 C15 0.941 . S
H2 C16 0.939 . S
H3 C18 0.940 . S
H4 C19 0.940 . S
H5 C21 0.939 . S
H6 C22 0.942 . S
H7 C24 0.940 . S
H8 C25 0.939 . S
H9 C27 0.941 . S
H10 C31 0.939 . S
O11 P0 1.490 . S
H12 C28 0.939 . S
H13 C30 0.940 . S
C14 P0 1.812 . S
C14 C15 1.389 . S
C14 C19 1.391 . S
C15 H1 0.941 . S
C15 C14 1.389 . S
C15 C16 1.397 . S
C16 H2 0.939 . S
C16 C15 1.397 . S
C16 C17 1.378 . S
C17 C16 1.378 . S
C17 C18 1.378 . S
C18 H3 0.940 . S
C18 C17 1.378 . S
C18 C19 1.396 . S
C19 H4 0.940 . S
C19 C14 1.391 . S
C19 C18 1.396 . S
C20 P0 1.803 . S
C20 C21 1.378 . S
C20 C25 1.400 . S
C21 H5 0.939 . S
C21 C20 1.378 . S
C21 C22 1.361 . S
C22 H6 0.942 . S
C22 C21 1.361 . S
C22 C23 1.369 . S
C23 C22 1.369 . S
C23 C24 1.404 . S
C24 H7 0.940 . S
C24 C23 1.404 . S
C24 C25 1.389 . S
C25 H8 0.939 . S
C25 C20 1.400 . S
C25 C24 1.389 . S
C26 P0 1.819 . S
C26 C27 1.391 . S
C26 C31 1.391 . S
C27 H9 0.941 . S
C27 C26 1.391 . S
C27 C28 1.396 . S
C28 H12 0.939 . S
C28 C27 1.396 . S
C28 C29 1.397 . S
C29 C28 1.397 . S
C29 C30 1.385 . S
C30 H13 0.940 . S
C30 C29 1.385 . S
C30 C31 1.388 . S
C31 H10 0.939 . S
C31 C26 1.391 . S
C31 C30 1.388 . S
P32 O43 1.490 . S
P32 C46 1.812 . S
P32 C52 1.803 . S
P32 C58 1.819 . S
H33 C47 0.941 . S
H34 C48 0.939 . S
H35 C50 0.940 . S
H36 C51 0.940 . S
H37 C53 0.939 . S
H38 C54 0.942 . S
H39 C56 0.940 . S
H40 C57 0.939 . S
H41 C59 0.941 . S
H42 C63 0.939 . S
O43 P32 1.490 . S
H44 C60 0.939 1_554 S
H45 C62 0.940 . S
C46 P32 1.812 . S
C46 C47 1.389 1_545 S
C46 C51 1.391 . S
C47 H33 0.941 . S
C47 C46 1.389 1_565 S
C47 C48 1.397 . S
C48 H34 0.939 . S
C48 C47 1.397 . S
C48 C49 1.378 . S
C49 C48 1.378 . S
C49 C50 1.378 1_565 S
C50 H35 0.940 . S
C50 C49 1.378 1_545 S
C50 C51 1.396 . S
C51 H36 0.940 . S
C51 C46 1.391 . S
C51 C50 1.396 . S
C52 P32 1.803 . S
C52 C53 1.378 . S
C52 C57 1.400 . S
C53 H37 0.939 . S
C53 C52 1.378 . S
C53 C54 1.361 . S
C54 H38 0.942 . S
C54 C53 1.361 . S
C54 C55 1.369 . S
C55 C54 1.369 . S
C55 C56 1.404 . S
C56 H39 0.940 . S
C56 C55 1.404 . S
C56 C57 1.389 . S
C57 H40 0.939 . S
C57 C52 1.400 . S
C57 C56 1.389 . S
C58 P32 1.819 . S
C58 C59 1.391 . S
C58 C63 1.391 . S
C59 H41 0.941 . S
C59 C58 1.391 . S
C59 C60 1.396 . S
C60 H44 0.939 1_556 S
C60 C59 1.396 . S
C60 C61 1.398 . S
C61 C60 1.398 . S
C61 C62 1.388 . S
C62 H45 0.940 . S
C62 C61 1.388 . S
C62 C63 1.388 . S
C63 H42 0.939 . S
C63 C58 1.391 . S
C63 C62 1.388 . S
P64 O75 1.490 . S
P64 C78 1.812 . S
P64 C84 1.803 . S
P64 C90 1.819 . S
H65 C79 0.941 . S
H66 C80 0.939 . S
H67 C82 0.940 . S
H68 C83 0.940 . S
H69 C85 0.939 . S
H70 C86 0.942 . S
H71 C88 0.940 . S
H72 C89 0.939 . S
H73 C91 0.941 1_455 S
H74 C95 0.939 . S
O75 P64 1.490 . S
H76 C92 0.939 1_465 S
H77 C94 0.940 . S
C78 P64 1.812 . S
C78 C79 1.389 . S
C78 C83 1.391 . S
C79 H65 0.941 . S
C79 C78 1.389 . S
C79 C80 1.397 . S
C80 H66 0.939 . S
C80 C79 1.397 . S
C80 C81 1.378 . S
C81 C80 1.378 . S
C81 C82 1.378 . S
C82 H67 0.940 . S
C82 C81 1.378 . S
C82 C83 1.396 . S
C83 H68 0.940 . S
C83 C78 1.391 . S
C83 C82 1.396 . S
C84 P64 1.803 . S
C84 C85 1.378 . S
C84 C89 1.400 . S
C85 H69 0.939 . S
C85 C84 1.378 . S
C85 C86 1.361 . S
C86 H70 0.942 . S
C86 C85 1.361 . S
C86 C87 1.369 . S
C87 C86 1.369 . S
C87 C88 1.404 . S
C88 H71 0.940 . S
C88 C87 1.404 . S
C88 C89 1.389 . S
C89 H72 0.939 . S
C89 C84 1.400 . S
C89 C88 1.389 . S
C90 P64 1.819 . S
C90 C91 1.391 . S
C90 C95 1.391 . S
C91 H73 0.941 1_655 S
C91 C90 1.391 . S
C91 C92 1.396 . S
C92 H76 0.939 1_645 S
C92 C91 1.396 . S
C92 C93 1.397 1_545 S
C93 C92 1.397 1_565 S
C93 C94 1.385 1_565 S
C94 H77 0.940 . S
C94 C93 1.385 1_545 S
C94 C95 1.388 . S
C95 H74 0.939 . S
C95 C90 1.391 . S
C95 C94 1.388 . S
P96 O107 1.490 . S
P96 C110 1.812 . S
P96 C116 1.803 . S
P96 C122 1.819 . S
H97 C111 0.941 . S
H98 C112 0.939 . S
H99 C114 0.940 . S
H100 C115 0.940 . S
H101 C117 0.939 1_455 S
H102 C118 0.942 1_455 S
H103 C120 0.940 . S
H104 C121 0.939 . S
H105 C123 0.941 . S
H106 C127 0.939 . S
O107 P96 1.490 . S
H108 C124 0.939 1_556 S
H109 C126 0.940 . S
C110 P96 1.812 . S
C110 C111 1.389 . S
C110 C115 1.391 . S
C111 H97 0.941 . S
C111 C110 1.389 . S
C111 C112 1.397 . S
C112 H98 0.939 . S
C112 C111 1.397 . S
C112 C113 1.378 . S
C113 C112 1.378 . S
C113 C114 1.378 . S
C114 H99 0.940 . S
C114 C113 1.378 . S
C114 C115 1.396 . S
C115 H100 0.940 . S
C115 C110 1.391 . S
C115 C114 1.396 . S
C116 P96 1.803 . S
C116 C117 1.378 . S
C116 C121 1.400 . S
C117 H101 0.939 1_655 S
C117 C116 1.378 . S
C117 C118 1.361 . S
C118 H102 0.942 1_655 S
C118 C117 1.361 . S
C118 C119 1.369 . S
C119 C118 1.369 . S
C119 C120 1.404 . S
C120 H103 0.940 . S
C120 C119 1.404 . S
C120 C121 1.389 . S
C121 H104 0.939 . S
C121 C116 1.400 . S
C121 C120 1.389 . S
C122 P96 1.819 . S
C122 C123 1.391 . S
C122 C127 1.391 . S
C123 H105 0.941 . S
C123 C122 1.391 . S
C123 C124 1.396 . S
C124 H108 0.939 1_554 S
C124 C123 1.396 . S
C124 C125 1.397 . S
C125 C124 1.397 . S
C125 C126 1.385 . S
C126 H109 0.940 . S
C126 C125 1.385 . S
C126 C127 1.388 . S
C127 H106 0.939 . S
C127 C122 1.391 . S
C127 C126 1.388 . S
P128 O139 1.490 . S
P128 C142 1.812 . S
P128 C148 1.803 . S
P128 C154 1.819 . S
H129 C143 0.941 . S
H130 C144 0.939 . S
H131 C146 0.940 . S
H132 C147 0.940 . S
H133 C149 0.939 . S
H134 C150 0.942 1_455 S
H135 C152 0.940 . S
H136 C153 0.939 . S
H137 C155 0.941 . S
H138 C159 0.939 . S
O139 P128 1.490 . S
H140 C156 0.939 . S
H141 C158 0.940 . S
C142 P128 1.812 . S
C142 C143 1.389 . S
C142 C147 1.391 . S
C143 H129 0.941 . S
C143 C142 1.389 . S
C143 C144 1.397 . S
C144 H130 0.939 . S
C144 C143 1.397 . S
C144 C145 1.378 . S
C145 C144 1.378 . S
C145 C146 1.378 . S
C146 H131 0.940 . S
C146 C145 1.378 . S
C146 C147 1.396 . S
C147 H132 0.940 . S
C147 C142 1.391 . S
C147 C146 1.396 . S
C148 P128 1.803 . S
C148 C149 1.378 . S
C148 C153 1.400 . S
C149 H133 0.939 . S
C149 C148 1.378 . S
C149 C150 1.361 . S
C150 H134 0.942 1_655 S
C150 C149 1.361 . S
C150 C151 1.369 . S
C151 C150 1.369 . S
C151 C152 1.404 . S
C152 H135 0.940 . S
C152 C151 1.404 . S
C152 C153 1.389 . S
C153 H136 0.939 . S
C153 C148 1.400 . S
C153 C152 1.389 . S
C154 P128 1.819 . S
C154 C155 1.391 . S
C154 C159 1.391 . S
C155 H137 0.941 . S
C155 C154 1.391 . S
C155 C156 1.396 . S
C156 H140 0.939 . S
C156 C155 1.396 . S
C156 C157 1.397 . S
C157 C156 1.397 . S
C157 C158 1.385 . S
C158 H141 0.940 . S
C158 C157 1.385 . S
C158 C159 1.388 . S
C159 H138 0.939 . S
C159 C154 1.391 . S
C159 C158 1.388 . S
P160 O171 1.490 . S
P160 C174 1.812 . S
P160 C180 1.803 . S
P160 C186 1.819 . S
H161 C175 0.941 . S
H162 C176 0.939 . S
H163 C178 0.940 . S
H164 C179 0.940 . S
H165 C181 0.939 . S
H166 C182 0.942 . S
H167 C184 0.940 . S
H168 C185 0.939 . S
H169 C187 0.941 . S
H170 C191 0.939 . S
O171 P160 1.490 . S
H172 C188 0.939 . S
H173 C190 0.940 . S
C174 P160 1.812 . S
C174 C175 1.389 . S
C174 C179 1.391 . S
C175 H161 0.941 . S
C175 C174 1.389 . S
C175 C176 1.397 . S
C176 H162 0.939 . S
C176 C175 1.397 . S
C176 C177 1.378 1_565 S
C177 C176 1.378 1_545 S
C177 C178 1.378 . S
C178 H163 0.940 . S
C178 C177 1.378 . S
C178 C179 1.396 1_545 S
C179 H164 0.940 . S
C179 C174 1.391 . S
C179 C178 1.396 1_565 S
C180 P160 1.803 . S
C180 C181 1.378 . S
C180 C185 1.400 . S
C181 H165 0.939 . S
C181 C180 1.378 . S
C181 C182 1.361 . S
C182 H166 0.942 . S
C182 C181 1.361 . S
C182 C183 1.369 . S
C183 C182 1.369 . S
C183 C184 1.404 . S
C184 H167 0.940 . S
C184 C183 1.404 . S
C184 C185 1.389 . S
C185 H168 0.939 . S
C185 C180 1.400 . S
C185 C184 1.389 . S
C186 P160 1.819 . S
C186 C187 1.391 . S
C186 C191 1.391 . S
C187 H169 0.941 . S
C187 C186 1.391 . S
C187 C188 1.396 . S
C188 H172 0.939 . S
C188 C187 1.396 . S
C188 C189 1.397 . S
C189 C188 1.397 . S
C189 C190 1.385 . S
C190 H173 0.940 . S
C190 C189 1.385 . S
C190 C191 1.388 . S
C191 H170 0.939 . S
C191 C186 1.391 . S
C191 C190 1.388 . S
P192 O203 1.490 . S
P192 C206 1.812 . S
P192 C212 1.803 . S
P192 C218 1.819 . S
H193 C207 0.941 . S
H194 C208 0.939 . S
H195 C210 0.940 . S
H196 C211 0.940 . S
H197 C213 0.939 . S
H198 C214 0.942 . S
H199 C216 0.940 . S
H200 C217 0.939 . S
H201 C219 0.941 . S
H202 C223 0.939 . S
O203 P192 1.490 . S
H204 C220 0.939 . S
H205 C222 0.940 . S
C206 P192 1.812 . S
C206 C207 1.389 . S
C206 C211 1.391 . S
C207 H193 0.941 . S
C207 C206 1.389 . S
C207 C208 1.397 . S
C208 H194 0.939 . S
C208 C207 1.397 . S
C208 C209 1.378 . S
C209 C208 1.378 . S
C209 C210 1.378 . S
C210 H195 0.940 . S
C210 C209 1.378 . S
C210 C211 1.396 . S
C211 H196 0.940 . S
C211 C206 1.391 . S
C211 C210 1.396 . S
C212 P192 1.803 . S
C212 C213 1.378 . S
C212 C217 1.400 . S
C213 H197 0.939 . S
C213 C212 1.378 . S
C213 C214 1.361 . S
C214 H198 0.942 . S
C214 C213 1.361 . S
C214 C215 1.369 . S
C215 C214 1.369 . S
C215 C216 1.404 . S
C216 H199 0.940 . S
C216 C215 1.404 . S
C216 C217 1.389 . S
C217 H200 0.939 . S
C217 C212 1.400 . S
C217 C216 1.389 . S
C218 P192 1.819 . S
C218 C219 1.391 1_565 S
C218 C223 1.391 . S
C219 H201 0.941 . S
C219 C218 1.391 1_545 S
C219 C220 1.396 . S
C220 H204 0.939 . S
C220 C219 1.396 . S
C220 C221 1.397 . S
C221 C220 1.397 . S
C221 C222 1.385 1_545 S
C222 H205 0.940 . S
C222 C221 1.385 1_565 S
C222 C223 1.388 . S
C223 H202 0.939 . S
C223 C218 1.391 . S
C223 C222 1.388 . S
P224 O235 1.490 . S
P224 C238 1.812 . S
P224 C244 1.803 . S
P224 C250 1.819 . S
H225 C239 0.941 . S
H226 C240 0.939 . S
H227 C242 0.940 . S
H228 C243 0.940 . S
H229 C245 0.939 . S
H230 C246 0.942 . S
H231 C248 0.940 . S
H232 C249 0.939 . S
H233 C251 0.941 . S
H234 C255 0.939 . S
O235 P224 1.490 . S
H236 C252 0.939 . S
H237 C254 0.940 . S
C238 P224 1.812 . S
C238 C239 1.389 . S
C238 C243 1.391 . S
C239 H225 0.941 . S
C239 C238 1.389 . S
C239 C240 1.397 . S
C240 H226 0.939 . S
C240 C239 1.397 . S
C240 C241 1.378 . S
C241 C240 1.378 . S
C241 C242 1.378 . S
C242 H227 0.940 . S
C242 C241 1.378 . S
C242 C243 1.396 . S
C243 H228 0.940 . S
C243 C238 1.391 . S
C243 C242 1.396 . S
C244 P224 1.803 . S
C244 C245 1.378 . S
C244 C249 1.400 . S
C245 H229 0.939 . S
C245 C244 1.378 . S
C245 C246 1.361 . S
C246 H230 0.942 . S
C246 C245 1.361 . S
C246 C247 1.369 . S
C247 C246 1.369 . S
C247 C248 1.404 . S
C248 H231 0.940 . S
C248 C247 1.404 . S
C248 C249 1.389 . S
C249 H232 0.939 . S
C249 C244 1.400 . S
C249 C248 1.389 . S
C250 P224 1.819 . S
C250 C251 1.391 . S
C250 C255 1.391 . S
C251 H233 0.941 . S
C251 C250 1.391 . S
C251 C252 1.396 . S
C252 H236 0.939 . S
C252 C251 1.396 . S
C252 C253 1.397 . S
C253 C252 1.397 . S
C253 C254 1.385 . S
C254 H237 0.940 . S
C254 C253 1.385 . S
C254 C255 1.388 . S
C255 H234 0.939 . S
C255 C250 1.391 . S
C255 C254 1.388 . S
Tb256 N285 2.617 . S
Tb256 N291 2.572 . S
Tb256 O300 2.465 . S
Tb256 O301 2.387 . S
Tb256 O303 2.428 . S
Tb256 O304 2.308 . S
Tb256 O308 2.349 . S
Tb256 O311 2.393 . S
Tb256 C320 2.802 . S
C257 N258 1.379 . S
C257 C260 1.416 . S
C257 C264 1.424 . S
N258 C257 1.379 . S
N258 C261 1.334 . S
N258 Tb267 2.617 . S
C259 C261 1.390 . S
C259 C262 1.339 . S
C259 H279 0.930 . S
C260 C257 1.416 . S
C260 C262 1.416 . S
C260 C266 1.448 . S
C261 N258 1.334 . S
C261 C259 1.390 . S
C261 H272 0.930 . S
C262 C259 1.339 . S
C262 C260 1.416 . S
C262 H283 0.930 . S
C263 C264 1.413 1_565 S
C263 C265 1.427 . S
C263 C269 1.416 . S
C264 C257 1.424 . S
C264 C263 1.413 1_545 S
C264 N268 1.361 . S
C265 C263 1.427 . S
C265 C266 1.328 1_565 S
C265 H280 0.929 . S
C266 C260 1.448 . S
C266 C265 1.328 1_545 S
C266 H281 0.930 . S
Tb267 N258 2.617 . S
Tb267 N268 2.572 . S
Tb267 O302 2.349 1_655 S
Tb267 O305 2.393 . S
Tb267 O306 2.465 . S
Tb267 O307 2.387 . S
Tb267 O309 2.428 . S
Tb267 O310 2.308 1_655 S
Tb267 C331 2.802 . S
N268 C264 1.361 . S
N268 Tb267 2.572 . S
N268 C270 1.340 . S
C269 C263 1.416 . S
C269 C271 1.332 . S
C269 H277 0.931 . S
C270 N268 1.340 . S
C270 C271 1.407 1_545 S
C270 H276 0.930 . S
C271 C269 1.332 . S
C271 C270 1.407 1_565 S
C271 H273 0.929 . S
H272 C261 0.930 . S
H273 C271 0.929 . S
H274 C289 0.930 . S
H275 C296 0.929 . S
H276 C270 0.930 . S
H277 C269 0.931 . S
H278 C292 0.930 . S
H279 C259 0.930 . S
H280 C265 0.929 . S
H281 C266 0.930 . S
H282 C287 0.930 . S
H283 C262 0.930 . S
H284 C295 0.931 . S
N285 Tb256 2.617 . S
N285 C286 1.379 . S
N285 C289 1.334 . S
C286 N285 1.379 . S
C286 C288 1.416 . S
C286 C294 1.424 . S
C287 H282 0.930 . S
C287 C289 1.390 . S
C287 C290 1.339 . S
C288 C286 1.416 . S
C288 C290 1.416 . S
C288 C321 1.448 . S
C289 H274 0.930 . S
C289 N285 1.334 . S
C289 C287 1.390 . S
C290 C287 1.339 . S
C290 C288 1.416 . S
C290 H297 0.930 . S
N291 Tb256 2.572 . S
N291 C292 1.340 . S
N291 C294 1.361 . S
C292 H278 0.930 . S
C292 N291 1.340 . S
C292 C296 1.407 . S
C293 C294 1.413 . S
C293 C295 1.416 . S
C293 C322 1.427 . S
C294 C286 1.424 . S
C294 N291 1.361 . S
C294 C293 1.413 . S
C295 H284 0.931 . S
C295 C293 1.416 . S
C295 C296 1.332 . S
C296 H275 0.929 . S
C296 C292 1.407 . S
C296 C295 1.332 . S
H297 C290 0.930 . S
H298 C321 0.930 . S
H299 C322 0.929 . S
O300 Tb256 2.465 . S
O300 C320 1.264 . S
O301 Tb256 2.387 . S
O301 C312 1.264 . S
O302 Tb267 2.349 1_455 S
O302 C312 1.243 . S
O303 Tb256 2.428 . S
O303 C320 1.256 . S
O304 Tb256 2.308 . S
O304 C319 1.266 1_455 S
O305 Tb267 2.393 . S
O305 C319 1.248 . S
O306 Tb267 2.465 . S
O306 C331 1.264 . S
O307 Tb267 2.387 . S
O307 C323 1.264 . S
O308 Tb256 2.349 . S
O308 C323 1.243 1_455 S
O309 Tb267 2.428 . S
O309 C331 1.256 . S
O310 Tb267 2.308 1_455 S
O310 C330 1.266 . S
O311 Tb256 2.393 . S
O311 C330 1.248 . S
C312 O301 1.264 . S
C312 O302 1.243 . S
C313 C316 1.399 . S
C313 C318 1.383 . S
C313 C320 1.496 . S
C314 C315 1.399 . S
C314 C318 1.389 . S
C315 C314 1.399 . S
C315 C317 1.380 . S
C315 H332 0.929 1_554 S
C316 C313 1.399 . S
C316 C317 1.392 . S
C316 H333 0.929 . S
C317 C315 1.380 . S
C317 C316 1.392 . S
C317 H334 0.929 . S
C318 C313 1.383 . S
C318 C314 1.389 . S
C318 H335 0.931 . S
C319 O304 1.266 1_655 S
C319 O305 1.248 . S
C320 Tb256 2.802 . S
C320 O300 1.264 . S
C320 O303 1.256 . S
C320 C313 1.496 . S
C321 C288 1.448 . S
C321 H298 0.930 . S
C321 C322 1.328 . S
C322 C293 1.427 . S
C322 H299 0.929 . S
C322 C321 1.328 . S
C323 O307 1.264 . S
C323 O308 1.243 1_655 S
C324 C327 1.399 . S
C324 C328 1.383 . S
C324 C331 1.496 . S
C325 C326 1.399 . S
C325 C328 1.389 . S
C326 C325 1.399 . S
C326 C329 1.380 . S
C326 H336 0.929 . S
C327 C324 1.399 . S
C327 C329 1.392 . S
C327 H337 0.929 . S
C328 C324 1.383 . S
C328 C325 1.389 . S
C328 H338 0.931 . S
C329 C326 1.380 . S
C329 C327 1.392 . S
C329 H339 0.929 . S
C330 O310 1.266 . S
C330 O311 1.248 . S
C331 Tb267 2.802 . S
C331 O306 1.264 . S
C331 O309 1.256 . S
C331 C324 1.496 . S
H332 C315 0.929 1_556 S
H333 C316 0.929 . S
H334 C317 0.929 . S
H335 C318 0.931 . S
H336 C326 0.929 . S
H337 C327 0.929 . S
H338 C328 0.931 . S
H339 C329 0.929 . S
Tb340 N369 2.617 . S
Tb340 N375 2.572 . S
Tb340 O384 2.465 . S
Tb340 O385 2.387 . S
Tb340 O387 2.428 . S
Tb340 O388 2.308 . S
Tb340 O392 2.349 . S
Tb340 O395 2.393 . S
Tb340 C404 2.802 . S
C341 N342 1.379 . S
C341 C344 1.416 . S
C341 C348 1.424 . S
N342 C341 1.379 . S
N342 C345 1.334 . S
N342 Tb351 2.617 . S
C343 C345 1.390 . S
C343 C346 1.339 . S
C343 H363 0.930 . S
C344 C341 1.416 . S
C344 C346 1.416 . S
C344 C350 1.449 1_655 S
C345 N342 1.334 . S
C345 C343 1.390 . S
C345 H356 0.930 . S
C346 C343 1.339 . S
C346 C344 1.416 . S
C346 H367 0.930 1_655 S
C347 C348 1.413 . S
C347 C349 1.427 . S
C347 C353 1.416 . S
C348 C341 1.424 . S
C348 C347 1.413 . S
C348 N352 1.361 . S
C349 C347 1.427 . S
C349 C350 1.329 1_655 S
C349 H364 0.929 . S
C350 C344 1.449 1_455 S
C350 C349 1.329 1_455 S
C350 H365 0.929 . S
Tb351 N342 2.617 . S
Tb351 N352 2.572 . S
Tb351 O386 2.349 . S
Tb351 O389 2.393 . S
Tb351 O390 2.465 . S
Tb351 O391 2.387 . S
Tb351 O393 2.428 . S
Tb351 O394 2.308 . S
Tb351 C415 2.802 . S
N352 C348 1.361 . S
N352 Tb351 2.572 . S
N352 C354 1.340 . S
C353 C347 1.416 . S
C353 C355 1.332 . S
C353 H361 0.931 . S
C354 N352 1.340 . S
C354 C355 1.407 . S
C354 H360 0.930 . S
C355 C353 1.332 . S
C355 C354 1.407 . S
C355 H357 0.929 . S
H356 C345 0.930 . S
H357 C355 0.929 . S
H358 C373 0.930 . S
H359 C380 0.929 . S
H360 C354 0.930 . S
H361 C353 0.931 . S
H362 C376 0.930 . S
H363 C343 0.930 . S
H364 C349 0.929 . S
H365 C350 0.929 . S
H366 C371 0.930 . S
H367 C346 0.930 1_455 S
H368 C379 0.931 . S
N369 Tb340 2.617 . S
N369 C370 1.379 . S
N369 C373 1.334 . S
C370 N369 1.379 . S
C370 C372 1.416 . S
C370 C378 1.424 . S
C371 H366 0.930 . S
C371 C373 1.390 . S
C371 C374 1.339 . S
C372 C370 1.416 . S
C372 C374 1.416 . S
C372 C405 1.448 . S
C373 H358 0.930 . S
C373 N369 1.334 . S
C373 C371 1.390 . S
C374 C371 1.339 . S
C374 C372 1.416 . S
C374 H381 0.930 1_455 S
N375 Tb340 2.572 . S
N375 C376 1.340 . S
N375 C378 1.361 . S
C376 H362 0.930 . S
C376 N375 1.340 . S
C376 C380 1.407 . S
C377 C378 1.413 . S
C377 C379 1.416 . S
C377 C406 1.427 . S
C378 C370 1.424 . S
C378 N375 1.361 . S
C378 C377 1.413 . S
C379 H368 0.931 . S
C379 C377 1.416 . S
C379 C380 1.332 . S
C380 H359 0.929 . S
C380 C376 1.407 . S
C380 C379 1.332 . S
H381 C374 0.930 1_655 S
H382 C405 0.930 1_655 S
H383 C406 0.929 . S
O384 Tb340 2.465 . S
O384 C404 1.264 . S
O385 Tb340 2.387 . S
O385 C396 1.264 . S
O386 Tb351 2.349 . S
O386 C396 1.243 . S
O387 Tb340 2.428 . S
O387 C404 1.256 . S
O388 Tb340 2.308 . S
O388 C403 1.266 . S
O389 Tb351 2.393 . S
O389 C403 1.248 . S
O390 Tb351 2.465 . S
O390 C415 1.264 . S
O391 Tb351 2.387 . S
O391 C407 1.264 . S
O392 Tb340 2.349 . S
O392 C407 1.243 . S
O393 Tb351 2.428 . S
O393 C415 1.256 . S
O394 Tb351 2.308 . S
O394 C414 1.266 . S
O395 Tb340 2.393 . S
O395 C414 1.248 . S
C396 O385 1.264 . S
C396 O386 1.243 . S
C397 C400 1.399 . S
C397 C402 1.383 . S
C397 C404 1.496 . S
C398 C399 1.399 . S
C398 C402 1.389 . S
C399 C398 1.399 . S
C399 C401 1.380 . S
C399 H416 0.929 . S
C400 C397 1.399 . S
C400 C401 1.392 . S
C400 H417 0.929 . S
C401 C399 1.380 . S
C401 C400 1.392 . S
C401 H418 0.929 . S
C402 C397 1.383 . S
C402 C398 1.389 . S
C402 H419 0.931 . S
C403 O388 1.266 . S
C403 O389 1.248 . S
C404 Tb340 2.802 . S
C404 O384 1.264 . S
C404 O387 1.256 . S
C404 C397 1.496 . S
C405 C372 1.448 . S
C405 H382 0.930 1_455 S
C405 C406 1.328 . S
C406 C377 1.427 . S
C406 H383 0.929 . S
C406 C405 1.328 . S
C407 O391 1.264 . S
C407 O392 1.243 . S
C408 C411 1.399 . S
C408 C412 1.383 . S
C408 C415 1.496 . S
C409 C410 1.399 . S
C409 C412 1.389 . S
C410 C409 1.399 . S
C410 C413 1.380 . S
C410 H420 0.929 1_556 S
C411 C408 1.399 . S
C411 C413 1.392 . S
C411 H421 0.929 . S
C412 C408 1.383 . S
C412 C409 1.389 . S
C412 H422 0.931 . S
C413 C410 1.380 . S
C413 C411 1.392 . S
C413 H423 0.929 . S
C414 O394 1.266 . S
C414 O395 1.248 . S
C415 Tb351 2.802 . S
C415 O390 1.264 . S
C415 O393 1.256 . S
C415 C408 1.496 . S
H416 C399 0.929 . S
H417 C400 0.929 . S
H418 C401 0.929 . S
H419 C402 0.931 . S
H420 C410 0.929 1_554 S
H421 C411 0.929 . S
H422 C412 0.931 . S
H423 C413 0.929 . S
Tb424 N453 2.617 . S
Tb424 N459 2.572 . S
Tb424 O468 2.465 . S
Tb424 O469 2.387 . S
Tb424 O471 2.428 . S
Tb424 O472 2.308 1_455 S
Tb424 O476 2.349 1_455 S
Tb424 O479 2.393 . S
Tb424 C488 2.802 . S
C425 N426 1.379 . S
C425 C428 1.416 . S
C425 C432 1.424 . S
N426 C425 1.379 . S
N426 C429 1.334 . S
N426 Tb435 2.617 . S
C427 C429 1.390 . S
C427 C430 1.339 . S
C427 H447 0.930 . S
C428 C425 1.416 . S
C428 C430 1.416 . S
C428 C434 1.448 . S
C429 N426 1.334 . S
C429 C427 1.390 . S
C429 H440 0.930 . S
C430 C427 1.339 . S
C430 C428 1.416 . S
C430 H451 0.930 . S
C431 C432 1.413 . S
C431 C433 1.427 . S
C431 C437 1.416 . S
C432 C425 1.424 . S
C432 C431 1.413 . S
C432 N436 1.361 . S
C433 C431 1.427 . S
C433 C434 1.328 . S
C433 H448 0.929 . S
C434 C428 1.448 . S
C434 C433 1.328 . S
C434 H449 0.930 . S
Tb435 N426 2.617 . S
Tb435 N436 2.572 . S
Tb435 O470 2.349 1_655 S
Tb435 O473 2.393 . S
Tb435 O474 2.465 . S
Tb435 O475 2.387 . S
Tb435 O477 2.428 . S
Tb435 O478 2.308 1_655 S
Tb435 C499 2.802 . S
N436 C432 1.361 . S
N436 Tb435 2.572 . S
N436 C438 1.340 . S
C437 C431 1.416 . S
C437 C439 1.332 . S
C437 H445 0.931 . S
C438 N436 1.340 . S
C438 C439 1.407 . S
C438 H444 0.930 . S
C439 C437 1.332 . S
C439 C438 1.407 . S
C439 H441 0.929 . S
H440 C429 0.930 . S
H441 C439 0.929 . S
H442 C457 0.930 . S
H443 C464 0.929 . S
H444 C438 0.930 . S
H445 C437 0.931 . S
H446 C460 0.930 . S
H447 C427 0.930 . S
H448 C433 0.929 . S
H449 C434 0.930 . S
H450 C455 0.930 . S
H451 C430 0.930 . S
H452 C463 0.931 . S
N453 Tb424 2.617 . S
N453 C454 1.379 . S
N453 C457 1.334 . S
C454 N453 1.379 . S
C454 C456 1.416 . S
C454 C462 1.424 . S
C455 H450 0.930 . S
C455 C457 1.390 . S
C455 C458 1.339 . S
C456 C454 1.416 . S
C456 C458 1.416 . S
C456 C489 1.448 . S
C457 H442 0.930 . S
C457 N453 1.334 . S
C457 C455 1.390 . S
C458 C455 1.339 . S
C458 C456 1.416 . S
C458 H465 0.930 . S
N459 Tb424 2.572 . S
N459 C460 1.340 . S
N459 C462 1.361 . S
C460 H446 0.930 . S
C460 N459 1.340 . S
C460 C464 1.407 1_565 S
C461 C462 1.413 1_545 S
C461 C463 1.416 . S
C461 C490 1.427 . S
C462 C454 1.424 . S
C462 N459 1.361 . S
C462 C461 1.413 1_565 S
C463 H452 0.931 . S
C463 C461 1.416 . S
C463 C464 1.332 . S
C464 H443 0.929 . S
C464 C460 1.407 1_545 S
C464 C463 1.332 . S
H465 C458 0.930 . S
H466 C489 0.930 . S
H467 C490 0.929 . S
O468 Tb424 2.465 . S
O468 C488 1.264 . S
O469 Tb424 2.387 . S
O469 C480 1.264 . S
O470 Tb435 2.349 1_455 S
O470 C480 1.243 . S
O471 Tb424 2.428 . S
O471 C488 1.256 . S
O472 Tb424 2.308 1_655 S
O472 C487 1.266 . S
O473 Tb435 2.393 . S
O473 C487 1.248 . S
O474 Tb435 2.465 . S
O474 C499 1.264 . S
O475 Tb435 2.387 . S
O475 C491 1.264 . S
O476 Tb424 2.349 1_655 S
O476 C491 1.243 . S
O477 Tb435 2.428 . S
O477 C499 1.256 . S
O478 Tb435 2.308 1_455 S
O478 C498 1.266 . S
O479 Tb424 2.393 . S
O479 C498 1.248 . S
C480 O469 1.264 . S
C480 O470 1.243 . S
C481 C484 1.399 . S
C481 C486 1.383 . S
C481 C488 1.496 . S
C482 C483 1.399 . S
C482 C486 1.389 . S
C483 C482 1.399 . S
C483 C485 1.380 . S
C483 H500 0.929 . S
C484 C481 1.399 . S
C484 C485 1.392 . S
C484 H501 0.929 . S
C485 C483 1.380 . S
C485 C484 1.392 . S
C485 H502 0.929 . S
C486 C481 1.383 . S
C486 C482 1.389 . S
C486 H503 0.931 . S
C487 O472 1.266 . S
C487 O473 1.248 . S
C488 Tb424 2.802 . S
C488 O468 1.264 . S
C488 O471 1.256 . S
C488 C481 1.496 . S
C489 C456 1.448 . S
C489 H466 0.930 . S
C489 C490 1.328 1_565 S
C490 C461 1.427 . S
C490 H467 0.929 . S
C490 C489 1.328 1_545 S
C491 O475 1.264 . S
C491 O476 1.243 . S
C492 C495 1.399 . S
C492 C496 1.383 . S
C492 C499 1.496 . S
C493 C494 1.399 . S
C493 C496 1.389 . S
C494 C493 1.399 . S
C494 C497 1.380 . S
C494 H504 0.929 1_556 S
C495 C492 1.399 . S
C495 C497 1.392 . S
C495 H505 0.929 . S
C496 C492 1.383 . S
C496 C493 1.389 . S
C496 H506 0.931 . S
C497 C494 1.380 . S
C497 C495 1.392 . S
C497 H507 0.929 . S
C498 O478 1.266 . S
C498 O479 1.248 . S
C499 Tb435 2.802 . S
C499 O474 1.264 . S
C499 O477 1.256 . S
C499 C492 1.496 . S
H500 C483 0.929 . S
H501 C484 0.929 . S
H502 C485 0.929 . S
H503 C486 0.931 . S
H504 C494 0.929 1_554 S
H505 C495 0.929 . S
H506 C496 0.931 . S
H507 C497 0.929 . S
Tb508 N537 2.617 . S
Tb508 N543 2.572 . S
Tb508 O552 2.465 . S
Tb508 O553 2.387 . S
Tb508 O555 2.428 . S
Tb508 O556 2.308 . S
Tb508 O560 2.349 . S
Tb508 O563 2.393 . S
Tb508 C572 2.802 . S
C509 N510 1.379 . S
C509 C512 1.416 . S
C509 C516 1.424 . S
N510 C509 1.379 . S
N510 C513 1.334 . S
N510 Tb519 2.617 . S
C511 C513 1.390 . S
C511 C514 1.339 . S
C511 H531 0.930 . S
C512 C509 1.416 . S
C512 C514 1.416 . S
C512 C518 1.448 . S
C513 N510 1.334 . S
C513 C511 1.390 . S
C513 H524 0.930 . S
C514 C511 1.339 . S
C514 C512 1.416 . S
C514 H535 0.930 1_655 S
C515 C516 1.413 . S
C515 C517 1.427 . S
C515 C521 1.416 . S
C516 C509 1.424 . S
C516 C515 1.413 . S
C516 N520 1.361 . S
C517 C515 1.427 . S
C517 C518 1.328 . S
C517 H532 0.929 . S
C518 C512 1.448 . S
C518 C517 1.328 . S
C518 H533 0.930 1_655 S
Tb519 N510 2.617 . S
Tb519 N520 2.572 . S
Tb519 O554 2.349 . S
Tb519 O557 2.393 . S
Tb519 O558 2.465 . S
Tb519 O559 2.387 . S
Tb519 O561 2.428 . S
Tb519 O562 2.308 . S
Tb519 C583 2.802 . S
N520 C516 1.361 . S
N520 Tb519 2.572 . S
N520 C522 1.340 . S
C521 C515 1.416 . S
C521 C523 1.332 . S
C521 H529 0.931 . S
C522 N520 1.340 . S
C522 C523 1.407 . S
C522 H528 0.930 . S
C523 C521 1.332 . S
C523 C522 1.407 . S
C523 H525 0.929 . S
H524 C513 0.930 . S
H525 C523 0.929 . S
H526 C541 0.930 . S
H527 C548 0.929 . S
H528 C522 0.930 . S
H529 C521 0.931 . S
H530 C544 0.930 . S
H531 C511 0.930 . S
H532 C517 0.929 . S
H533 C518 0.930 1_455 S
H534 C539 0.930 . S
H535 C514 0.930 1_455 S
H536 C547 0.931 . S
N537 Tb508 2.617 . S
N537 C538 1.379 . S
N537 C541 1.334 . S
C538 N537 1.379 . S
C538 C540 1.416 . S
C538 C546 1.424 . S
C539 H534 0.930 . S
C539 C541 1.390 . S
C539 C542 1.339 . S
C540 C538 1.416 . S
C540 C542 1.416 . S
C540 C573 1.448 . S
C541 H526 0.930 . S
C541 N537 1.334 . S
C541 C539 1.390 . S
C542 C539 1.339 . S
C542 C540 1.416 . S
C542 H549 0.930 1_455 S
N543 Tb508 2.572 . S
N543 C544 1.340 . S
N543 C546 1.361 . S
C544 H530 0.930 . S
C544 N543 1.340 . S
C544 C548 1.407 . S
C545 C546 1.413 . S
C545 C547 1.416 . S
C545 C574 1.427 . S
C546 C538 1.424 . S
C546 N543 1.361 . S
C546 C545 1.413 . S
C547 H536 0.931 . S
C547 C545 1.416 . S
C547 C548 1.332 . S
C548 H527 0.929 . S
C548 C544 1.407 . S
C548 C547 1.332 . S
H549 C542 0.930 1_655 S
H550 C573 0.930 1_655 S
H551 C574 0.929 . S
O552 Tb508 2.465 . S
O552 C572 1.264 . S
O553 Tb508 2.387 . S
O553 C564 1.264 . S
O554 Tb519 2.349 . S
O554 C564 1.243 . S
O555 Tb508 2.428 . S
O555 C572 1.256 . S
O556 Tb508 2.308 . S
O556 C571 1.266 . S
O557 Tb519 2.393 . S
O557 C571 1.248 . S
O558 Tb519 2.465 . S
O558 C583 1.264 . S
O559 Tb519 2.387 . S
O559 C575 1.264 . S
O560 Tb508 2.349 . S
O560 C575 1.243 . S
O561 Tb519 2.428 . S
O561 C583 1.256 . S
O562 Tb519 2.308 . S
O562 C582 1.266 . S
O563 Tb508 2.393 . S
O563 C582 1.248 . S
C564 O553 1.264 . S
C564 O554 1.243 . S
C565 C568 1.399 . S
C565 C570 1.383 . S
C565 C572 1.496 . S
C566 C567 1.399 . S
C566 C570 1.389 . S
C567 C566 1.399 . S
C567 C569 1.380 . S
C567 H584 0.929 1_554 S
C568 C565 1.399 . S
C568 C569 1.392 . S
C568 H585 0.929 . S
C569 C567 1.380 . S
C569 C568 1.392 . S
C569 H586 0.929 . S
C570 C565 1.383 . S
C570 C566 1.389 . S
C570 H587 0.931 . S
C571 O556 1.266 . S
C571 O557 1.248 . S
C572 Tb508 2.802 . S
C572 O552 1.264 . S
C572 O555 1.256 . S
C572 C565 1.496 . S
C573 C540 1.448 . S
C573 H550 0.930 1_455 S
C573 C574 1.328 . S
C574 C545 1.427 . S
C574 H551 0.929 . S
C574 C573 1.328 . S
C575 O559 1.264 . S
C575 O560 1.243 . S
C576 C579 1.399 . S
C576 C580 1.383 . S
C576 C583 1.496 . S
C577 C578 1.399 . S
C577 C580 1.389 . S
C578 C577 1.399 . S
C578 C581 1.380 . S
C578 H588 0.929 . S
C579 C576 1.399 . S
C579 C581 1.392 . S
C579 H589 0.929 . S
C580 C576 1.383 . S
C580 C577 1.389 . S
C580 H590 0.931 . S
C581 C578 1.380 . S
C581 C579 1.392 . S
C581 H591 0.929 . S
C582 O562 1.266 . S
C582 O563 1.248 . S
C583 Tb519 2.802 . S
C583 O558 1.264 . S
C583 O561 1.256 . S
C583 C576 1.496 . S
H584 C567 0.929 1_556 S
H585 C568 0.929 . S
H586 C569 0.929 . S
H587 C570 0.931 . S
H588 C578 0.929 . S
H589 C579 0.929 . S
H590 C580 0.931 . S
H591 C581 0.929 . S
C221 C330 1.498 . S
C414 C241 1.405 . S
C407 C157 1.498 . S
C177 C323 1.403 . S
C487 C93 1.396 . S
C571 C113 1.550 . S
C29 C564 1.398 . S
C49 C480 1.546 . S
C314 C61 1.187 1_554 S
C398 C17 1.247 . S
C409 C125 1.468 1_556 S
C325 C81 1.402 . S
C493 C189 1.204 1_556 S
C145 C577 1.184 . S
C566 C253 1.366 1_554 S
C209 C482 1.444 . S
C312 C23 1.486 . S
C396 C55 1.708 . S
C87 C403 1.523 . S
C319 C119 1.675 . S
C491 C151 1.681 . S
C183 C575 1.491 . S
C215 C582 1.662 . S
C247 C498 1.514 . S
