# Generated by pormake.
# Topology ctn, (3,4)-cn, num edge types: 1
# Building blocks:
#     Node 0, Type 0, BuildingBlock: BETDIP_clean_linker_0, # of connection points: 3
#     Node 1, Type 0, BuildingBlock: BETDIP_clean_linker_0, # of connection points: 3
#     Node 2, Type 0, BuildingBlock: BETDIP_clean_linker_0, # of connection points: 3
#     Node 3, Type 0, BuildingBlock: BETDIP_clean_linker_0, # of connection points: 3
#     Node 4, Type 0, BuildingBlock: BETDIP_clean_linker_0, # of connection points: 3
#     Node 5, Type 0, BuildingBlock: BETDIP_clean_linker_0, # of connection points: 3
#     Node 6, Type 0, BuildingBlock: BETDIP_clean_linker_0, # of connection points: 3
#     Node 7, Type 0, BuildingBlock: BETDIP_clean_linker_0, # of connection points: 3
#     Node 8, Type 0, BuildingBlock: BETDIP_clean_linker_0, # of connection points: 3
#     Node 9, Type 0, BuildingBlock: BETDIP_clean_linker_0, # of connection points: 3
#     Node 10, Type 0, BuildingBlock: BETDIP_clean_linker_0, # of connection points: 3
#     Node 11, Type 0, BuildingBlock: BETDIP_clean_linker_0, # of connection points: 3
#     Node 12, Type 0, BuildingBlock: BETDIP_clean_linker_0, # of connection points: 3
#     Node 13, Type 0, BuildingBlock: BETDIP_clean_linker_0, # of connection points: 3
#     Node 14, Type 0, BuildingBlock: BETDIP_clean_linker_0, # of connection points: 3
#     Node 15, Type 0, BuildingBlock: BETDIP_clean_linker_0, # of connection points: 3
#     Node 16, Type 1, BuildingBlock: UXUYUI_clean_sbu_0, # of connection points: 4
#     Node 17, Type 1, BuildingBlock: UXUYUI_clean_sbu_0, # of connection points: 4
#     Node 18, Type 1, BuildingBlock: UXUYUI_clean_sbu_0, # of connection points: 4
#     Node 19, Type 1, BuildingBlock: UXUYUI_clean_sbu_0, # of connection points: 4
#     Node 20, Type 1, BuildingBlock: UXUYUI_clean_sbu_0, # of connection points: 4
#     Node 21, Type 1, BuildingBlock: UXUYUI_clean_sbu_0, # of connection points: 4
#     Node 22, Type 1, BuildingBlock: UXUYUI_clean_sbu_0, # of connection points: 4
#     Node 23, Type 1, BuildingBlock: UXUYUI_clean_sbu_0, # of connection points: 4
#     Node 24, Type 1, BuildingBlock: UXUYUI_clean_sbu_0, # of connection points: 4
#     Node 25, Type 1, BuildingBlock: UXUYUI_clean_sbu_0, # of connection points: 4
#     Node 26, Type 1, BuildingBlock: UXUYUI_clean_sbu_0, # of connection points: 4
#     Node 27, Type 1, BuildingBlock: UXUYUI_clean_sbu_0, # of connection points: 4
#     Edge 28, Type (0, 1), BuildingBlock: XUDNAN_clean_linker_2, # of connection points: 2
#     Edge 29, Type (0, 1), BuildingBlock: XUDNAN_clean_linker_2, # of connection points: 2
#     Edge 30, Type (0, 1), BuildingBlock: XUDNAN_clean_linker_2, # of connection points: 2
#     Edge 31, Type (0, 1), BuildingBlock: XUDNAN_clean_linker_2, # of connection points: 2
#     Edge 32, Type (0, 1), BuildingBlock: XUDNAN_clean_linker_2, # of connection points: 2
#     Edge 33, Type (0, 1), BuildingBlock: XUDNAN_clean_linker_2, # of connection points: 2
#     Edge 34, Type (0, 1), BuildingBlock: XUDNAN_clean_linker_2, # of connection points: 2
#     Edge 35, Type (0, 1), BuildingBlock: XUDNAN_clean_linker_2, # of connection points: 2
#     Edge 36, Type (0, 1), BuildingBlock: XUDNAN_clean_linker_2, # of connection points: 2
#     Edge 37, Type (0, 1), BuildingBlock: XUDNAN_clean_linker_2, # of connection points: 2
#     Edge 38, Type (0, 1), BuildingBlock: XUDNAN_clean_linker_2, # of connection points: 2
#     Edge 39, Type (0, 1), BuildingBlock: XUDNAN_clean_linker_2, # of connection points: 2
#     Edge 40, Type (0, 1), BuildingBlock: XUDNAN_clean_linker_2, # of connection points: 2
#     Edge 41, Type (0, 1), BuildingBlock: XUDNAN_clean_linker_2, # of connection points: 2
#     Edge 42, Type (0, 1), BuildingBlock: XUDNAN_clean_linker_2, # of connection points: 2
#     Edge 43, Type (0, 1), BuildingBlock: XUDNAN_clean_linker_2, # of connection points: 2
#     Edge 44, Type (0, 1), BuildingBlock: XUDNAN_clean_linker_2, # of connection points: 2
#     Edge 45, Type (0, 1), BuildingBlock: XUDNAN_clean_linker_2, # of connection points: 2
#     Edge 46, Type (0, 1), BuildingBlock: XUDNAN_clean_linker_2, # of connection points: 2
#     Edge 47, Type (0, 1), BuildingBlock: XUDNAN_clean_linker_2, # of connection points: 2
#     Edge 48, Type (0, 1), BuildingBlock: XUDNAN_clean_linker_2, # of connection points: 2
#     Edge 49, Type (0, 1), BuildingBlock: XUDNAN_clean_linker_2, # of connection points: 2
#     Edge 50, Type (0, 1), BuildingBlock: XUDNAN_clean_linker_2, # of connection points: 2
#     Edge 51, Type (0, 1), BuildingBlock: XUDNAN_clean_linker_2, # of connection points: 2
#     Edge 52, Type (0, 1), BuildingBlock: XUDNAN_clean_linker_2, # of connection points: 2
#     Edge 53, Type (0, 1), BuildingBlock: XUDNAN_clean_linker_2, # of connection points: 2
#     Edge 54, Type (0, 1), BuildingBlock: XUDNAN_clean_linker_2, # of connection points: 2
#     Edge 55, Type (0, 1), BuildingBlock: XUDNAN_clean_linker_2, # of connection points: 2
#     Edge 56, Type (0, 1), BuildingBlock: XUDNAN_clean_linker_2, # of connection points: 2
#     Edge 57, Type (0, 1), BuildingBlock: XUDNAN_clean_linker_2, # of connection points: 2
#     Edge 58, Type (0, 1), BuildingBlock: XUDNAN_clean_linker_2, # of connection points: 2
#     Edge 59, Type (0, 1), BuildingBlock: XUDNAN_clean_linker_2, # of connection points: 2
#     Edge 60, Type (0, 1), BuildingBlock: XUDNAN_clean_linker_2, # of connection points: 2
#     Edge 61, Type (0, 1), BuildingBlock: XUDNAN_clean_linker_2, # of connection points: 2
#     Edge 62, Type (0, 1), BuildingBlock: XUDNAN_clean_linker_2, # of connection points: 2
#     Edge 63, Type (0, 1), BuildingBlock: XUDNAN_clean_linker_2, # of connection points: 2
#     Edge 64, Type (0, 1), BuildingBlock: XUDNAN_clean_linker_2, # of connection points: 2
#     Edge 65, Type (0, 1), BuildingBlock: XUDNAN_clean_linker_2, # of connection points: 2
#     Edge 66, Type (0, 1), BuildingBlock: XUDNAN_clean_linker_2, # of connection points: 2
#     Edge 67, Type (0, 1), BuildingBlock: XUDNAN_clean_linker_2, # of connection points: 2
#     Edge 68, Type (0, 1), BuildingBlock: XUDNAN_clean_linker_2, # of connection points: 2
#     Edge 69, Type (0, 1), BuildingBlock: XUDNAN_clean_linker_2, # of connection points: 2
#     Edge 70, Type (0, 1), BuildingBlock: XUDNAN_clean_linker_2, # of connection points: 2
#     Edge 71, Type (0, 1), BuildingBlock: XUDNAN_clean_linker_2, # of connection points: 2
#     Edge 72, Type (0, 1), BuildingBlock: XUDNAN_clean_linker_2, # of connection points: 2
#     Edge 73, Type (0, 1), BuildingBlock: XUDNAN_clean_linker_2, # of connection points: 2
#     Edge 74, Type (0, 1), BuildingBlock: XUDNAN_clean_linker_2, # of connection points: 2
#     Edge 75, Type (0, 1), BuildingBlock: XUDNAN_clean_linker_2, # of connection points: 2
# Relax obj value: 0.068
# Max RMSD: 0.193
# Mean RMSD: 0.117
data_MOF--net-ctn--node1-UXUYUI_clean_sbu_0--node2-BETDIP_clean_linker_0--edge1-XUDNAN_clean_linker_2
_symmetry_space_group_name_H-M    P1
_symmetry_Int_Tables_number       1
_symmetry_cell_setting            triclinic
loop_
_symmetry_equiv_pos_as_xyz
'x, y, z'
_cell_length_a     64.586024
_cell_length_b     65.122117
_cell_length_c     71.225103
_cell_angle_alpha  93.316668
_cell_angle_beta   93.583346
_cell_angle_gamma 92.660835
loop_
_atom_site_label
_atom_site_type_symbol
_atom_site_fract_x
_atom_site_fract_y
_atom_site_fract_z
_atom_type_partial_charge
H0 H 0.04266 0.07265 0.05855 0.0
H1 H 0.09159 0.04319 0.03107 0.0
H2 H 0.0763 0.02609 0.08617 0.0
H3 H 0.07096 0.05027 1.00479 0.0
C4 C 0.06682 0.06589 0.00854 0.0
C5 C 0.05461 0.0615 0.05866 0.0
C6 C 0.05798 0.04965 0.07436 0.0
C7 C 0.06618 0.05886 0.04281 0.0
C8 C 0.08181 0.04452 0.04283 0.0
C9 C 0.08567 0.03265 0.05845 0.0
C10 C 0.07347 0.03515 0.07407 0.0
N11 N 0.06227 0.0714 0.02739 0.0
H12 H 0.28126 0.69854 0.19532 0.0
H13 H 0.34085 0.7261 0.21458 0.0
H14 H 0.30835 0.68529 0.24966 0.0
H15 H 0.32343 0.75443 0.19682 0.0
C16 C 0.31867 0.74446 0.18439 0.0
C17 C 0.29362 0.7008 0.20636 0.0
C18 C 0.29261 0.69028 0.22294 0.0
C19 C 0.31049 0.71428 0.20367 0.0
C20 C 0.32729 0.71659 0.21729 0.0
C21 C 0.32704 0.70551 0.23373 0.0
C22 C 0.30926 0.693 0.23665 0.0
N23 N 0.31064 0.7241 0.18642 0.0
H24 H 0.97164 0.49147 0.01694 0.0
H25 H 1.00278 0.46057 0.0612 0.0
H26 H 0.97364 0.51704 0.07446 0.0
H27 H 0.02389 0.45304 0.03781 0.0
C28 C 0.01241 0.44818 0.02643 0.0
C29 C 0.97654 0.49094 0.03172 0.0
C30 C 0.97108 0.50645 0.04493 0.0
C31 C 0.98848 0.47473 0.03736 0.0
C32 C 0.99415 0.47342 0.05658 0.0
C33 C 0.98884 0.48853 0.07004 0.0
C34 C 0.9775 0.50519 0.06413 0.0
N35 N 0.99442 0.45973 0.0236 0.0
H36 H 0.72538 0.77923 0.20362 0.0
H37 H 0.74922 0.83153 0.23904 0.0
H38 H 0.78508 0.80823 0.19441 0.0
H39 H 0.71429 0.83675 0.23927 0.0
C40 C 0.7085 0.82131 0.24191 0.0
C41 C 0.73759 0.79101 0.20732 0.0
C42 C 0.75553 0.79189 0.19704 0.0
C43 C 0.73495 0.80548 0.22215 0.0
C44 C 0.75078 0.82068 0.22717 0.0
C45 C 0.76887 0.82184 0.21723 0.0
C46 C 0.771 0.80761 0.20192 0.0
N47 N 0.71659 0.80408 0.23218 0.0
H48 H 0.04589 0.95679 0.44552 0.0
H49 H 0.08931 0.98247 0.48966 0.0
H50 H 0.07988 0.01391 0.43854 0.0
H51 H 0.07641 0.95944 0.5072 0.0
C52 C 0.0666 0.94798 0.49877 0.0
C53 C 0.05715 0.96891 0.45092 0.0
C54 C 0.062 0.98531 0.43975 0.0
C55 C 0.06644 0.96795 0.46907 0.0
C56 C 0.08123 0.98351 0.47605 0.0
C57 C 0.0862 1.00028 0.4652 0.0
C58 C 0.0763 1.00113 0.44707 0.0
N59 N 0.06059 0.9509 0.47958 0.0
H60 H 0.23161 0.74997 0.80532 0.0
H61 H 0.26018 0.69958 0.77741 0.0
H62 H 0.28883 0.72836 0.82915 0.0
H63 H 0.22871 0.69264 0.76334 0.0
C64 C 0.22108 0.70711 0.76272 0.0
C65 C 0.24407 0.73939 0.80487 0.0
C66 C 0.26035 0.74107 0.81894 0.0
C67 C 0.24349 0.72415 0.7902 0.0
C68 C 0.2598 0.71061 0.7893 0.0
C69 C 0.27632 0.71194 0.80328 0.0
C70 C 0.27628 0.7271 0.81826 0.0
N71 N 0.22667 0.72362 0.77628 0.0
H72 H 1.00218 0.57746 0.47684 0.0
H73 H 0.97031 0.5194 0.45904 0.0
H74 H 0.9624 0.54715 0.51411 0.0
H75 H 1.00474 0.51673 0.44642 0.0
C76 C 1.00443 0.53107 0.43932 0.0
C77 C 0.99154 0.56482 0.47967 0.0
C78 C 0.983 0.56421 0.4973 0.0
C79 C 0.98743 0.54851 0.46599 0.0
C80 C 0.97381 0.5319 0.46963 0.0
C81 C 0.96486 0.53135 0.48705 0.0
C82 C 0.96952 0.54751 0.50073 0.0
N83 N 0.99741 0.54898 0.44881 0.0
H84 H 0.81305 0.82317 0.77702 0.0
H85 H 0.82829 0.78042 0.81876 0.0
H86 H 0.77991 0.82249 0.82757 0.0
H87 H 0.84566 0.76515 0.79679 0.0
C88 C 0.84952 0.77617 0.78654 0.0
C89 C 0.81024 0.8168 0.79041 0.0
C90 C 0.79513 0.82499 0.80165 0.0
C91 C 0.82201 0.80056 0.79618 0.0
C92 C 0.81864 0.79227 0.81363 0.0
C93 C 0.80338 0.79998 0.82508 0.0
C94 C 0.79156 0.81626 0.81884 0.0
N95 N 0.83772 0.79387 0.78439 0.0
H96 H 0.3048 0.31942 0.27236 0.0
H97 H 0.32636 0.27368 0.30883 0.0
H98 H 0.269 0.30224 0.31867 0.0
H99 H 0.33647 0.2601 0.28128 0.0
C100 C 0.34308 0.27335 0.27475 0.0
C101 C 0.3029 0.31059 0.28464 0.0
C102 C 0.28541 0.31303 0.29526 0.0
C103 C 0.31745 0.29612 0.28911 0.0
C104 C 0.31489 0.28453 0.30489 0.0
C105 C 0.2974 0.28641 0.31554 0.0
C106 C 0.28285 0.30106 0.31091 0.0
N107 N 0.33385 0.29269 0.27699 0.0
H108 H 0.46323 0.99836 0.51879 0.0
H109 H 0.49565 0.96262 0.55881 0.0
H110 H 0.47231 0.02085 0.57697 0.0
H111 H 0.48602 0.9362 0.53709 0.0
C112 C 0.48704 0.9432 0.52369 0.0
C113 C 0.4692 0.9965 0.53313 0.0
C114 C 0.46638 0.01176 0.54737 0.0
C115 C 0.47929 0.9786 0.53712 0.0
C116 C 0.48709 0.97603 0.55564 0.0
C117 C 0.48472 0.99125 0.57008 0.0
C118 C 0.47422 0.00908 0.56591 0.0
N119 N 0.4821 0.96407 0.52194 0.0
H120 H 0.22782 0.28412 0.69614 0.0
H121 H 0.24473 0.33688 0.73432 0.0
H122 H 0.26688 0.33388 0.67873 0.0
H123 H 0.21353 0.32815 0.74566 0.0
C124 C 0.21212 0.31144 0.74447 0.0
C125 C 0.23618 0.29887 0.69918 0.0
C126 C 0.24748 0.30775 0.68522 0.0
C127 C 0.2346 0.30943 0.71675 0.0
C128 C 0.24538 0.32869 0.72072 0.0
C129 C 0.25687 0.33762 0.70691 0.0
C130 C 0.25783 0.32705 0.6893 0.0
N131 N 0.22176 0.30035 0.72987 0.0
H132 H 0.7806 0.20832 0.70096 0.0
H133 H 0.83813 0.23568 0.72636 0.0
H134 H 0.81081 0.181 0.74807 0.0
H135 H 0.77646 0.24018 0.69069 0.0
C136 C 0.7921 0.24547 0.68791 0.0
C137 C 0.79316 0.20868 0.71178 0.0
C138 C 0.79378 0.19295 0.72447 0.0
C139 C 0.80896 0.22439 0.71275 0.0
C140 C 0.8256 0.22401 0.72627 0.0
C141 C 0.82651 0.20845 0.73914 0.0
C142 C 0.8103 0.19314 0.7383 0.0
N143 N 0.80938 0.24002 0.69962 0.0
H144 H 0.54304 0.57323 0.57115 0.0
H145 H 0.57761 0.545 0.52794 0.0
H146 H 0.57296 0.51672 0.58082 0.0
H147 H 0.58077 0.57825 0.51918 0.0
C148 C 0.56535 0.58363 0.52119 0.0
C149 C 0.5525 0.56091 0.56631 0.0
C150 C 0.5572 0.54503 0.57815 0.0
C151 C 0.55993 0.56116 0.54831 0.0
C152 C 0.57201 0.54509 0.54195 0.0
C153 C 0.57685 0.52896 0.55355 0.0
C154 C 0.56935 0.52903 0.57171 0.0
N155 N 0.55434 0.57739 0.53675 0.0
H156 H 0.54602 0.46265 0.96018 0.0
H157 H 0.60298 0.48785 0.98864 0.0
H158 H 0.58413 0.50704 0.93369 0.0
H159 H 0.58514 0.48062 0.01463 0.0
C160 C 0.57735 0.46579 0.0104 0.0
C161 C 0.5598 0.47283 0.96035 0.0
C162 C 0.56329 0.48475 0.94492 0.0
C163 C 0.57368 0.47421 0.97634 0.0
C164 C 0.59166 0.48738 0.97674 0.0
C165 C 0.59561 0.49921 0.96132 0.0
C166 C 0.58121 0.49793 0.9456 0.0
N167 N 0.56944 0.46159 0.99143 0.0
H168 H 0.74546 0.25932 0.30545 0.0
H169 H 0.7584 0.20168 0.27749 0.0
H170 H 0.78795 0.21969 0.33242 0.0
H171 H 0.72554 0.20619 0.26232 0.0
C172 C 0.72557 0.22272 0.26102 0.0
C173 C 0.75353 0.24508 0.30543 0.0
C174 C 0.76687 0.24106 0.32091 0.0
C175 C 0.75008 0.2309 0.28999 0.0
C176 C 0.76063 0.2125 0.28965 0.0
C177 C 0.77447 0.20827 0.30491 0.0
C178 C 0.77717 0.22253 0.32069 0.0
N179 N 0.73661 0.23639 0.27479 0.0
H180 H 0.49883 0.08341 0.97235 0.0
H181 H 0.47664 0.02019 0.96092 0.0
H182 H 0.45674 0.05527 0.00882 0.0
H183 H 0.50273 0.01845 0.94183 0.0
C184 C 0.50673 0.03384 0.93771 0.0
C185 C 0.48968 0.07008 0.97616 0.0
C186 C 0.47775 0.07156 0.99191 0.0
C187 C 0.48962 0.05166 0.96493 0.0
C188 C 0.47729 0.03445 0.96955 0.0
C189 C 0.46562 0.03565 0.98556 0.0
C190 C 0.46592 0.05424 0.99659 0.0
N191 N 0.50169 0.05148 0.9489 0.0
Li192 Li 0.28908 0.89706 0.00836 0.0
Li193 Li 0.27309 0.86989 0.02643 0.0
Li194 Li 0.2648 0.87114 0.99141 0.0
Li195 Li 0.25174 0.89796 0.01539 0.0
C196 C 0.31141 0.86273 1.00191 0.0
N197 N 0.35218 0.8556 0.99513 0.0
C198 C 0.32436 0.85446 0.01569 0.0
C199 C 0.31911 0.86719 0.98463 0.0
C200 C 0.34495 0.85102 0.01201 0.0
C201 C 0.33979 0.86353 0.98149 0.0
C202 C 0.27548 0.90706 0.05124 0.0
C203 C 0.25802 0.90728 0.08018 0.0
N204 N 0.27244 0.92162 0.0881 0.0
C205 C 0.29014 0.92178 0.05965 0.0
C206 C 0.25931 0.89971 0.06156 0.0
C207 C 0.28833 0.92895 0.07831 0.0
C208 C 0.31556 0.92948 0.99522 0.0
N209 N 0.31425 0.9136 1.00675 0.0
C210 C 0.34991 0.91989 0.01764 0.0
C211 C 0.33088 0.90891 0.01808 0.0
C212 C 0.35179 0.93633 1.00579 0.0
C213 C 0.33421 0.94109 0.99453 0.0
H214 H 0.30212 0.93347 0.98673 0.0
H215 H 0.32935 0.8966 0.02752 0.0
C216 C 0.26976 0.83229 0.04461 0.0
N217 N 0.27836 0.8518 0.04631 0.0
C218 C 0.27423 0.81846 0.05837 0.0
C219 C 0.29674 0.84482 0.07532 0.0
C220 C 0.29169 0.85823 0.06127 0.0
C221 C 0.28809 0.82453 0.07392 0.0
H222 H 0.25978 0.82724 0.03238 0.0
H223 H 0.29886 0.87361 0.06206 0.0
C224 C 0.26584 0.91376 0.97607 0.0
N225 N 0.2685 0.93849 0.94601 0.0
C226 C 0.25718 0.93304 0.97671 0.0
C227 C 0.27574 0.90699 0.96012 0.0
C228 C 0.25873 0.94533 0.96137 0.0
C229 C 0.27695 0.91973 0.94507 0.0
C230 C 0.23114 0.85275 0.01632 0.0
C231 C 0.22927 0.83395 1.00568 0.0
C232 C 0.21834 0.85617 0.03118 0.0
C233 C 0.2149 0.8187 0.01037 0.0
C234 C 0.20415 0.84053 0.03542 0.0
N235 N 0.20276 0.82227 0.02503 0.0
C236 C 0.27205 0.83887 0.96537 0.0
C237 C 0.24579 0.86042 0.95462 0.0
C238 C 0.27091 0.8277 0.94798 0.0
N239 N 0.25986 0.85508 0.96824 0.0
C240 C 0.24405 0.84959 0.937 0.0
C241 C 0.257 0.83319 0.93336 0.0
H242 H 0.28308 0.83494 0.97647 0.0
H243 H 0.23631 0.8734 0.95729 0.0
C244 C 0.23589 0.93405 0.03101 0.0
N245 N 0.23013 0.91569 0.02166 0.0
C246 C 0.2209 0.94716 0.03723 0.0
C247 C 0.19419 0.9227 0.02333 0.0
C248 C 0.20976 0.90992 0.01754 0.0
C249 C 0.19972 0.94145 0.0336 0.0
H250 H 0.25219 0.9384 0.03388 0.0
H251 H 0.2056 0.89525 0.01003 0.0
O252 O 0.29127 0.86638 1.00535 0.0
O253 O 0.2771 0.89989 0.033 0.0
O254 O 0.26445 0.90157 0.99097 0.0
O255 O 0.24504 0.86788 0.01183 0.0
H256 H 0.31861 0.85085 0.02912 0.0
H257 H 0.30926 0.8735 0.9738 0.0
H258 H 0.35518 0.84471 0.02257 0.0
H259 H 0.34599 0.86701 0.96821 0.0
H260 H 0.24558 0.90173 0.08834 0.0
H261 H 0.30278 0.92757 0.05182 0.0
H262 H 0.24797 0.88823 0.05526 0.0
H263 H 0.29957 0.94035 0.08501 0.0
H264 H 0.36299 0.91546 0.02649 0.0
H265 H 0.33466 0.95393 0.98554 0.0
H266 H 0.26695 0.80309 0.05673 0.0
H267 H 0.3078 0.85012 0.08683 0.0
H268 H 0.24942 0.93845 0.98895 0.0
H269 H 0.28242 0.89207 0.95935 0.0
H270 H 0.25216 0.96032 0.96168 0.0
H271 H 0.2846 0.91472 0.93264 0.0
H272 H 0.23895 0.83111 0.99404 0.0
H273 H 0.21922 0.87077 0.03929 0.0
H274 H 0.21339 0.80402 1.00235 0.0
H275 H 0.1942 0.84294 0.04693 0.0
H276 H 0.28137 0.81539 0.94584 0.0
H277 H 0.23285 0.85418 0.92629 0.0
H278 H 0.22584 0.96161 0.04484 0.0
H279 H 0.17804 0.91771 0.0203 0.0
Li280 Li 0.12537 0.50224 0.27599 0.0
Li281 Li 0.14914 0.47991 0.26036 0.0
Li282 Li 0.15122 0.51848 0.25676 0.0
Li283 Li 0.12204 0.49554 0.24134 0.0
C284 C 0.16567 0.51154 0.29609 0.0
N285 N 0.18482 0.52915 0.32933 0.0
C286 C 0.17621 0.49934 0.30868 0.0
C287 C 0.16504 0.53271 0.30033 0.0
C288 C 0.18574 0.50853 0.32544 0.0
C289 C 0.17477 0.54132 0.31723 0.0
C290 C 0.11572 0.45591 0.26532 0.0
C291 C 0.11381 0.41973 0.25571 0.0
N292 N 0.1114 0.41517 0.27387 0.0
C293 C 0.11307 0.4509 0.28386 0.0
C294 C 0.11595 0.44025 0.25109 0.0
C295 C 0.11095 0.4302 0.2879 0.0
C296 C 0.08809 0.50598 0.29361 0.0
N297 N 0.109 0.50607 0.29746 0.0
C298 C 0.10473 0.51311 0.33031 0.0
C299 C 0.11742 0.50905 0.31548 0.0
C300 C 0.08327 0.51433 0.32649 0.0
C301 C 0.07491 0.5105 0.30792 0.0
H302 H 0.08169 0.50285 0.27929 0.0
H303 H 0.13393 0.50846 0.31844 0.0
C304 C 0.17713 0.45011 0.24872 0.0
N305 N 0.16556 0.45627 0.26311 0.0
C306 C 0.18919 0.43295 0.25015 0.0
C307 C 0.17763 0.42891 0.28137 0.0
C308 C 0.1658 0.44622 0.27935 0.0
C309 C 0.18944 0.42194 0.26658 0.0
H310 H 0.1771 0.4586 0.23613 0.0
H311 H 0.15675 0.4516 0.29074 0.0
C312 C 0.10516 0.53419 0.2611 0.0
N313 N 0.07274 0.55732 0.27228 0.0
C314 C 0.08575 0.53193 0.25114 0.0
C315 C 0.10809 0.54838 0.27667 0.0
C316 C 0.06957 0.54374 0.25703 0.0
C317 C 0.0915 0.55986 0.28213 0.0
C318 C 0.15342 0.49232 0.21821 0.0
C319 C 0.16029 0.50851 0.20773 0.0
C320 C 0.14726 0.47326 0.20905 0.0
C321 C 0.16072 0.50538 0.18819 0.0
C322 C 0.14789 0.47075 0.18949 0.0
N323 N 0.15455 0.48673 0.17955 0.0
C324 C 0.18852 0.5406 0.24883 0.0
C325 C 0.15993 0.56087 0.25506 0.0
C326 C 0.20054 0.55817 0.24512 0.0
N327 N 0.16855 0.54228 0.2535 0.0
C328 C 0.17142 0.5788 0.25177 0.0
C329 C 0.19192 0.57763 0.24638 0.0
H330 H 0.19491 0.52556 0.2475 0.0
H331 H 0.14401 0.56179 0.25868 0.0
C332 C 0.08601 0.47861 0.22057 0.0
N333 N 0.1026 0.49206 0.2198 0.0
C334 C 0.07079 0.47626 0.20568 0.0
C335 C 0.09013 0.50145 0.18927 0.0
C336 C 0.1047 0.50368 0.20471 0.0
C337 C 0.07276 0.4876 0.18956 0.0
H338 H 0.08438 0.46997 0.23296 0.0
H339 H 0.11764 0.51479 0.20467 0.0
O340 O 0.15623 0.50275 0.27966 0.0
O341 O 0.11813 0.47606 0.26112 0.0
O342 O 0.12114 0.52255 0.25566 0.0
O343 O 0.15275 0.49513 0.23733 0.0
H344 H 0.17698 0.48295 0.30558 0.0
H345 H 0.15713 0.54239 0.29072 0.0
H346 H 0.19388 0.49926 0.33534 0.0
H347 H 0.17433 0.55768 0.3207 0.0
H348 H 0.11408 0.40743 0.24486 0.0
H349 H 0.11287 0.46286 0.29504 0.0
H350 H 0.11783 0.44389 0.23665 0.0
H351 H 0.10902 0.42607 0.30221 0.0
H352 H 0.11166 0.51586 0.34454 0.0
H353 H 0.05836 0.511 0.30453 0.0
H354 H 0.1984 0.42848 0.23853 0.0
H355 H 0.17724 0.42089 0.29426 0.0
H356 H 0.08313 0.52112 0.23905 0.0
H357 H 0.12289 0.55029 0.28465 0.0
H358 H 0.05446 0.54207 0.24948 0.0
H359 H 0.09352 0.57074 0.29424 0.0
H360 H 0.16504 0.52339 0.21459 0.0
H361 H 0.14193 0.46058 0.21696 0.0
H362 H 0.16591 0.51779 0.17989 0.0
H363 H 0.14308 0.45611 0.1822 0.0
H364 H 0.21616 0.55641 0.24079 0.0
H365 H 0.1642 0.59342 0.25334 0.0
H366 H 0.05748 0.46585 0.207 0.0
H367 H 0.09264 0.51042 0.17722 0.0
Li368 Li 0.77169 0.64621 0.99939 0.0
Li369 Li 0.7867 0.67315 0.02266 0.0
Li370 Li 0.79239 0.67545 0.98796 0.0
Li371 Li 0.81064 0.65052 0.00744 0.0
C372 C 0.74619 0.67854 0.99397 0.0
N373 N 0.70618 0.68324 0.9793 0.0
C374 C 0.73091 0.68486 1.00579 0.0
C375 C 0.74119 0.67489 0.97466 0.0
C376 C 0.71075 0.68707 0.99811 0.0
C377 C 0.72086 0.67728 0.96752 0.0
C378 C 0.78499 0.63879 0.04183 0.0
C379 C 0.79798 0.63895 0.07432 0.0
N380 N 0.77899 0.6318 0.07903 0.0
C381 C 0.76566 0.63124 0.04694 0.0
C382 C 0.80135 0.64249 0.05557 0.0
C383 C 0.76292 0.62787 0.06584 0.0
C384 C 0.75335 0.60949 0.98199 0.0
N385 N 0.74924 0.62632 0.99304 0.0
C386 C 0.71382 0.61409 0.99417 0.0
C387 C 0.73003 0.6287 0.99944 0.0
C388 C 0.71748 0.59679 0.98232 0.0
C389 C 0.73766 0.59451 0.97642 0.0
H390 H 0.76887 0.6077 0.97746 0.0
H391 H 0.72724 0.64192 0.00863 0.0
C392 C 0.79566 0.70266 0.05383 0.0
N393 N 0.78154 0.68812 0.04574 0.0
C394 C 0.79235 0.71257 0.07128 0.0
C395 C 0.75982 0.69274 0.07149 0.0
C396 C 0.76369 0.68334 0.05403 0.0
C397 C 0.77438 0.70739 0.08049 0.0
H398 H 0.80961 0.7064 0.04687 0.0
H399 H 0.75257 0.67196 0.04719 0.0
C400 C 0.7986 0.64076 0.96398 0.0
N401 N 0.80577 0.63132 0.92668 0.0
C402 C 0.8188 0.63793 0.9587 0.0
C403 C 0.78201 0.63844 0.95033 0.0
C404 C 0.82212 0.63326 0.93976 0.0
C405 C 0.78596 0.63377 0.93154 0.0
C406 C 0.83302 0.68718 0.01382 0.0
C407 C 0.84406 0.69607 0.99982 0.0
C408 C 0.84311 0.68431 0.03134 0.0
C409 C 0.86513 0.7017 1.00353 0.0
C410 C 0.86419 0.69012 0.03449 0.0
N411 N 0.87467 0.69861 0.02063 0.0
C412 C 0.78101 0.7098 0.96798 0.0
C413 C 0.80755 0.69157 0.95403 0.0
C414 C 0.78101 0.72375 0.9538 0.0
N415 N 0.79401 0.69396 0.9678 0.0
C416 C 0.8081 0.70521 0.93956 0.0
C417 C 0.7947 0.72162 0.93929 0.0
H418 H 0.7706 0.71164 0.9792 0.0
H419 H 0.8182 0.67931 0.9544 0.0
C420 C 0.83272 0.61712 0.02007 0.0
N421 N 0.83506 0.63498 0.01125 0.0
C422 C 0.84944 0.60447 0.02273 0.0
C423 C 0.87087 0.62892 0.0074 0.0
C424 C 0.85367 0.64097 1.00487 0.0
C425 C 0.86889 0.61022 0.01627 0.0
H426 H 0.8177 0.61247 0.02476 0.0
H427 H 0.85517 0.65494 0.99752 0.0
O428 O 0.76595 0.67606 1.00127 0.0
O429 O 0.78786 0.64255 0.02346 0.0
O430 O 0.79508 0.64528 0.98247 0.0
O431 O 0.81241 0.68153 0.01041 0.0
H432 H 0.73455 0.68796 0.02074 0.0
H433 H 0.75291 0.6704 0.96528 0.0
H434 H 0.69874 0.69184 1.00711 0.0
H435 H 0.71677 0.67444 0.9526 0.0
H436 H 0.81047 0.64188 0.08512 0.0
H437 H 0.75287 0.62821 0.03646 0.0
H438 H 0.81646 0.64808 0.05179 0.0
H439 H 0.748 0.62218 0.07003 0.0
H440 H 0.69853 0.61655 0.99904 0.0
H441 H 0.74137 0.58121 0.96766 0.0
H442 H 0.80401 0.72373 0.07773 0.0
H443 H 0.74558 0.68854 0.07789 0.0
H444 H 0.83181 0.63952 0.96906 0.0
H445 H 0.76622 0.64004 0.95419 0.0
H446 H 0.8377 0.63119 0.93546 0.0
H447 H 0.77327 0.632 0.92083 0.0
H448 H 0.83648 0.69853 0.98624 0.0
H449 H 0.83477 0.6776 0.04236 0.0
H450 H 0.87388 0.70851 0.99281 0.0
H451 H 0.87221 0.68789 0.04795 0.0
H452 H 0.77024 0.73601 0.95415 0.0
H453 H 0.81921 0.70316 0.92892 0.0
H454 H 0.84695 0.59007 0.02931 0.0
H455 H 0.88553 0.63422 1.00237 0.0
Li456 Li 0.90887 0.04232 0.25762 0.0
Li457 Li 0.93636 0.02052 0.26973 0.0
Li458 Li 0.93261 0.02874 0.23534 0.0
Li459 Li 0.90779 1.00417 0.248 0.0
C460 C 0.94254 0.06781 0.26431 0.0
N461 N 0.94774 0.1088 0.27681 0.0
C462 C 0.95064 0.07326 0.28267 0.0
C463 C 0.93735 0.08321 0.25223 0.0
C464 C 0.95309 0.09407 0.28875 0.0
C465 C 0.94001 0.10384 0.25884 0.0
C466 C 0.90211 0.0103 0.29032 0.0
C467 C 0.90095 0.98164 0.31031 0.0
N468 N 0.89418 0.99414 0.32436 0.0
C469 C 0.89485 0.02279 0.30488 0.0
C470 C 0.90496 0.9895 0.29299 0.0
C471 C 0.89104 0.01436 0.32201 0.0
C472 C 0.87611 0.07014 0.2533 0.0
N473 N 0.89218 0.0647 0.26493 0.0
C474 C 0.88345 0.0894 0.28897 0.0
C475 C 0.89612 0.07412 0.28241 0.0
C476 C 0.8664 0.09504 0.27749 0.0
C477 C 0.863 0.08541 0.2593 0.0
H478 H 0.87314 0.06228 0.23954 0.0
H479 H 0.90887 0.06942 0.29147 0.0
C480 C 0.97308 0.00635 0.28707 0.0
N481 N 0.95546 0.01611 0.29063 0.0
C482 C 0.98684 1.0015 0.30188 0.0
C483 C 0.9647 0.01782 0.32379 0.0
C484 C 0.95133 0.02231 0.30853 0.0
C485 C 0.98256 0.00693 0.32058 0.0
H486 H 0.97628 1.00202 0.27269 0.0
H487 H 0.93758 0.0306 0.311 0.0
C488 C 0.89752 0.031 0.21378 0.0
N489 N 0.89013 0.0371 0.17594 0.0
C490 C 0.89103 0.01441 0.20113 0.0
C491 C 0.89997 0.05073 0.20724 0.0
C492 C 0.88743 0.0178 0.18203 0.0
C493 C 0.89625 0.05348 0.18804 0.0
C494 C 0.94364 0.98208 0.2436 0.0
C495 C 0.9481 0.97451 0.22561 0.0
C496 C 0.94501 0.96918 0.2586 0.0
C497 C 0.95332 0.95403 0.22284 0.0
C498 C 0.9503 0.9488 0.25527 0.0
N499 N 0.95427 0.94169 0.2376 0.0
C500 C 0.96296 0.05031 0.21618 0.0
C501 C 0.94504 0.02316 0.19735 0.0
C502 C 0.97511 0.05511 0.20131 0.0
N503 N 0.9482 0.03464 0.21396 0.0
C504 C 0.95691 0.02737 0.18212 0.0
C505 C 0.97217 0.04358 0.18397 0.0
H506 H 0.96548 0.05901 0.22957 0.0
H507 H 0.93336 0.01066 0.19591 0.0
C508 C 0.87353 0.97793 0.25431 0.0
N509 N 0.88984 0.97976 0.24325 0.0
C510 C 0.86082 0.95992 0.2531 0.0
C511 C 0.88081 0.94646 0.22805 0.0
C512 C 0.89334 0.96469 0.22991 0.0
C513 C 0.86462 0.94374 0.24008 0.0
H514 H 0.87062 0.99033 0.2644 0.0
H515 H 0.90596 0.96669 0.22084 0.0
O516 O 0.9398 0.04751 0.25819 0.0
O517 O 0.90609 0.01835 0.27349 0.0
O518 O 0.90133 0.02793 0.23249 0.0
O519 O 0.93845 1.00212 0.24655 0.0
H520 H 0.95488 0.06156 0.29216 0.0
H521 H 0.93129 0.07926 0.23793 0.0
H522 H 0.95922 0.09851 0.30296 0.0
H523 H 0.93594 0.11591 0.24967 0.0
H524 H 0.90314 0.96557 0.31255 0.0
H525 H 0.89224 0.03882 0.30304 0.0
H526 H 0.90988 0.97945 0.28173 0.0
H527 H 0.88556 0.0239 0.33343 0.0
H528 H 0.88689 0.09659 0.30297 0.0
H529 H 0.84994 0.08912 0.25003 0.0
H530 H 1.00064 0.99348 0.29873 0.0
H531 H 0.96077 0.02231 0.33795 0.0
H532 H 0.88894 0.99907 0.20597 0.0
H533 H 0.90475 0.06376 0.21688 0.0
H534 H 0.88253 1.00508 0.17206 0.0
H535 H 0.89822 0.06865 0.18277 0.0
H536 H 0.9474 0.98427 0.21387 0.0
H537 H 0.94231 0.97488 0.27273 0.0
H538 H 0.95663 0.94794 0.20895 0.0
H539 H 0.95134 0.93866 0.26677 0.0
H540 H 0.98691 0.06753 0.2035 0.0
H541 H 0.95398 0.01818 0.16898 0.0
H542 H 0.84822 0.9586 0.26238 0.0
H543 H 0.88416 0.93437 0.21775 0.0
Li544 Li 0.27956 0.1756 0.51959 0.0
Li545 Li 0.26328 0.1467 0.49928 0.0
Li546 Li 0.30236 0.14969 0.50601 0.0
Li547 Li 0.28414 0.17247 0.4844 0.0
C548 C 0.28221 0.14086 0.54202 0.0
N549 N 0.28688 0.13096 0.5792 0.0
C550 C 0.26557 0.13168 0.55063 0.0
C551 C 0.30131 0.1447 0.55223 0.0
C552 C 0.26821 0.12689 0.56947 0.0
C553 C 0.30334 0.13966 0.57104 0.0
C554 C 0.23767 0.17789 0.49477 0.0
C555 C 0.20653 0.17249 0.47424 0.0
N556 N 0.19516 0.17963 0.48845 0.0
C557 C 0.22572 0.18535 0.50913 0.0
C558 C 0.22805 0.17157 0.47713 0.0
C559 C 0.20423 0.18605 0.50567 0.0
C560 C 0.28433 0.21363 0.54078 0.0
N561 N 0.27566 0.1942 0.54062 0.0
C562 C 0.25994 0.20228 0.56951 0.0
C563 C 0.26358 0.18835 0.55455 0.0
C564 C 0.26858 0.22251 0.56998 0.0
C565 C 0.28105 0.22807 0.55542 0.0
H566 H 0.29359 0.21799 0.52937 0.0
H567 H 0.25628 0.17305 0.5538 0.0
C568 C 0.23782 0.11207 0.48348 0.0
N569 N 0.2393 0.12818 0.49659 0.0
C570 C 0.2203 0.09844 0.48198 0.0
C571 C 0.20609 0.1185 0.50726 0.0
C572 C 0.22397 0.13148 0.50845 0.0
C573 C 0.20409 0.10151 0.49403 0.0
H574 H 0.25035 0.10962 0.47435 0.0
H575 H 0.22567 0.14421 0.51895 0.0
C576 C 0.32387 0.18964 0.51159 0.0
N577 N 0.36203 0.20845 0.52358 0.0
C578 C 0.3368 0.19778 0.49854 0.0
C579 C 0.33022 0.19137 0.53076 0.0
C580 C 0.35607 0.20714 0.50487 0.0
C581 C 0.34959 0.20086 0.53654 0.0
C582 C 0.28978 0.13721 0.46359 0.0
C583 C 0.30978 0.13226 0.45909 0.0
C584 C 0.27403 0.13759 0.44926 0.0
C585 C 0.31377 0.12812 0.44023 0.0
C586 C 0.27866 0.13339 0.43057 0.0
N587 N 0.29827 0.1288 0.42648 0.0
C588 C 0.32463 0.11581 0.5181 0.0
C589 C 0.34573 0.1424 0.50667 0.0
C590 C 0.34199 0.10416 0.5216 0.0
N591 N 0.32679 0.13458 0.5108 0.0
C592 C 0.36348 0.1314 0.51009 0.0
C593 C 0.36181 0.11188 0.51752 0.0
H594 H 0.30936 0.10979 0.52107 0.0
H595 H 0.3471 0.15708 0.50048 0.0
C596 C 0.27148 0.20036 0.45689 0.0
N597 N 0.28652 0.18746 0.46209 0.0
C598 C 0.27229 0.21031 0.44002 0.0
C599 C 0.30432 0.19393 0.43441 0.0
C600 C 0.30303 0.18456 0.45147 0.0
C601 C 0.28865 0.20677 0.42836 0.0
H602 H 0.25864 0.20268 0.46569 0.0
H603 H 0.31508 0.17468 0.45609 0.0
O604 O 0.27986 0.14563 0.52357 0.0
O605 O 0.25868 0.17684 0.49798 0.0
O606 O 0.30498 0.18037 0.50559 0.0
O607 O 0.28564 0.14155 0.48196 0.0
H608 H 0.25073 0.12839 0.54288 0.0
H609 H 0.3145 0.15128 0.54568 0.0
H610 H 0.25542 0.1199 0.57634 0.0
H611 H 0.31804 0.1426 0.57911 0.0
H612 H 0.19887 0.16753 0.46069 0.0
H613 H 0.23293 0.19042 0.52283 0.0
H614 H 0.2371 0.16594 0.46584 0.0
H615 H 0.19477 0.19166 0.51668 0.0
H616 H 0.24993 0.19746 0.58025 0.0
H617 H 0.28814 0.24346 0.55529 0.0
H618 H 0.21971 0.08542 0.47177 0.0
H619 H 0.19396 0.12185 0.51663 0.0
H620 H 0.33207 0.19676 0.48368 0.0
H621 H 0.32021 0.18568 0.54111 0.0
H622 H 0.36629 0.21337 0.49492 0.0
H623 H 0.35471 0.20226 0.55133 0.0
H624 H 0.32212 0.1318 0.47002 0.0
H625 H 0.25843 0.14117 0.45253 0.0
H626 H 0.32921 0.1244 0.43652 0.0
H627 H 0.26666 0.13378 0.41932 0.0
H628 H 0.33979 0.08908 0.52703 0.0
H629 H 0.37838 0.13818 0.5069 0.0
H630 H 0.2599 0.22008 0.43583 0.0
H631 H 0.31736 0.19104 0.42595 0.0
Li632 Li 0.43449 0.52068 0.77648 0.0
Li633 Li 0.41179 0.54492 0.76269 0.0
Li634 Li 0.40653 0.50815 0.75436 0.0
Li635 Li 0.43627 0.52821 0.74194 0.0
C636 C 0.4034 0.51988 0.79803 0.0
N637 N 0.4029 0.51428 0.8362 0.0
C638 C 0.40097 0.53662 0.81077 0.0
C639 C 0.40554 0.50028 0.80475 0.0
C640 C 0.40073 0.53347 0.82999 0.0
C641 C 0.40528 0.49777 0.82408 0.0
C642 C 0.44852 0.56684 0.77054 0.0
C643 C 0.46498 0.59961 0.76453 0.0
N644 N 0.45973 0.60742 0.78161 0.0
C645 C 0.44328 0.5752 0.78802 0.0
C646 C 0.45943 0.57914 0.75866 0.0
C647 C 0.44907 0.59575 0.79336 0.0
C648 C 0.46193 0.49632 0.79692 0.0
N649 N 0.45165 0.51404 0.79817 0.0
C650 C 0.46466 0.52064 0.83027 0.0
C651 C 0.4531 0.52635 0.81434 0.0
C652 C 0.47506 0.50216 0.82954 0.0
C653 C 0.47375 0.49005 0.81247 0.0
H654 H 0.4609 0.48695 0.78385 0.0
H655 H 0.44493 0.5404 0.8151 0.0
C656 C 0.37835 0.56723 0.77513 0.0
N657 N 0.39655 0.56951 0.76666 0.0
C658 C 0.36686 0.58433 0.77953 0.0
C659 C 0.39237 0.60576 0.76542 0.0
C660 C 0.40334 0.58823 0.76126 0.0
C661 C 0.37402 0.60401 0.77497 0.0
H662 H 0.37292 0.55212 0.77881 0.0
H663 H 0.41736 0.58969 0.75387 0.0
C664 C 0.43375 0.48124 0.74671 0.0
N665 N 0.42701 0.44128 0.73154 0.0
C666 C 0.43584 0.47671 0.72752 0.0
C667 C 0.42839 0.4654 0.75821 0.0
C668 C 0.43234 0.45642 0.72011 0.0
C669 C 0.42499 0.44531 0.75027 0.0
C670 C 0.39804 0.54517 0.72571 0.0
C671 C 0.37696 0.54361 0.71984 0.0
C672 C 0.41066 0.56143 0.72013 0.0
C673 C 0.36882 0.55839 0.70838 0.0
C674 C 0.40193 0.57592 0.70871 0.0
N675 N 0.38137 0.5741 0.7031 0.0
C676 C 0.37444 0.47798 0.76035 0.0
C677 C 0.38241 0.481 0.72858 0.0
C678 C 0.35891 0.46275 0.75493 0.0
N679 N 0.38582 0.48672 0.74721 0.0
C680 C 0.367 0.4659 0.72252 0.0
C681 C 0.35489 0.45666 0.73576 0.0
H682 H 0.37712 0.48307 0.77502 0.0
H683 H 0.39159 0.48832 0.71841 0.0
C684 C 0.47458 0.53576 0.72612 0.0
N685 N 0.45411 0.53091 0.72164 0.0
C686 C 0.48825 0.53857 0.71194 0.0
C687 C 0.45972 0.53052 0.6887 0.0
C688 C 0.44653 0.52808 0.70337 0.0
C689 C 0.48085 0.5361 0.69292 0.0
H690 H 0.48024 0.53769 0.74077 0.0
H691 H 0.43019 0.52406 0.70019 0.0
O692 O 0.40388 0.52266 0.77913 0.0
O693 O 0.44296 0.54676 0.76503 0.0
O694 O 0.43656 0.50111 0.75411 0.0
O695 O 0.40627 0.53085 0.73691 0.0
H696 H 0.39959 0.55196 0.80596 0.0
H697 H 0.40773 0.48719 0.79519 0.0
H698 H 0.39895 0.54631 0.83999 0.0
H699 H 0.40707 0.48271 0.82945 0.0
H700 H 0.47341 0.6093 0.75547 0.0
H701 H 0.43436 0.56612 0.79715 0.0
H702 H 0.46345 0.57302 0.74501 0.0
H703 H 0.44498 0.60245 0.8068 0.0
H704 H 0.46502 0.53039 0.84314 0.0
H705 H 0.48185 0.47591 0.8111 0.0
H706 H 0.35282 0.5822 0.78689 0.0
H707 H 0.3982 0.62052 0.76117 0.0
H708 H 0.43993 0.48874 0.7184 0.0
H709 H 0.4267 0.4686 0.77308 0.0
H710 H 0.43379 0.45272 0.70526 0.0
H711 H 0.42072 0.43294 0.75899 0.0
H712 H 0.36701 0.53108 0.72406 0.0
H713 H 0.42696 0.56299 0.72475 0.0
H714 H 0.35254 0.55737 0.70367 0.0
H715 H 0.4115 0.58863 0.70434 0.0
H716 H 0.34975 0.45626 0.76557 0.0
H717 H 0.36457 0.46153 0.70761 0.0
H718 H 0.50448 0.54261 0.71581 0.0
H719 H 0.45335 0.52859 0.67424 0.0
Li720 Li 0.78422 0.39708 0.50998 0.0
Li721 Li 0.76814 0.37149 0.52714 0.0
Li722 Li 0.76192 0.36884 0.49373 0.0
Li723 Li 0.74552 0.39624 0.51514 0.0
C724 C 0.80355 0.36336 0.49533 0.0
N725 N 0.83263 0.35598 0.46913 0.0
C726 C 0.81777 0.34804 0.49789 0.0
C727 C 0.80418 0.37488 0.4794 0.0
C728 C 0.83234 0.34456 0.4845 0.0
C729 C 0.81896 0.37095 0.46633 0.0
C730 C 0.77563 0.40323 0.55212 0.0
C731 C 0.76779 0.40945 0.58456 0.0
N732 N 0.78763 0.40537 0.59014 0.0
C733 C 0.79597 0.39923 0.55816 0.0
C734 C 0.76142 0.40846 0.56541 0.0
C735 C 0.80172 0.40031 0.57744 0.0
C736 C 0.80938 0.43317 0.50137 0.0
N737 N 0.8092 0.41415 0.50836 0.0
C738 C 0.8462 0.41669 0.51372 0.0
C739 C 0.82715 0.40594 0.51462 0.0
C740 C 0.8469 0.43631 0.50652 0.0
C741 C 0.82813 0.44454 0.50028 0.0
H742 H 0.79508 0.43969 0.49677 0.0
H743 H 0.82674 0.3909 0.52029 0.0
C744 C 0.7887 0.34233 0.54804 0.0
N745 N 0.77269 0.35511 0.54857 0.0
C746 C 0.79366 0.33052 0.56324 0.0
C747 C 0.76536 0.34494 0.57933 0.0
C748 C 0.76091 0.35646 0.56374 0.0
C749 C 0.78209 0.33189 0.57928 0.0
H750 H 0.79772 0.34142 0.53583 0.0
H751 H 0.74821 0.36668 0.56388 0.0
C752 C 0.76003 0.41616 0.48056 0.0
N753 N 0.75934 0.45055 0.45952 0.0
C754 C 0.75445 0.43504 0.4886 0.0
C755 C 0.76517 0.41479 0.46175 0.0
C756 C 0.75421 0.45223 0.47775 0.0
C757 C 0.76478 0.43235 0.45138 0.0
C758 C 0.73221 0.35053 0.52239 0.0
C759 C 0.73879 0.33046 0.52002 0.0
C760 C 0.717 0.35492 0.53496 0.0
C761 C 0.73024 0.31511 0.53053 0.0
C762 C 0.70881 0.33912 0.54518 0.0
N763 N 0.71556 0.31972 0.54279 0.0
C764 C 0.76775 0.33325 0.47031 0.0
C765 C 0.74898 0.35889 0.45541 0.0
C766 C 0.7687 0.32197 0.45311 0.0
N767 N 0.75851 0.35161 0.47103 0.0
C768 C 0.7496 0.34814 0.43791 0.0
C769 C 0.76006 0.3297 0.43652 0.0
H770 H 0.77524 0.32783 0.48297 0.0
H771 H 0.74156 0.37342 0.45642 0.0
C772 C 0.72284 0.42974 0.52944 0.0
N773 N 0.72144 0.41175 0.51864 0.0
C774 C 0.70526 0.44115 0.53177 0.0
C775 C 0.685 0.41501 0.51224 0.0
C776 C 0.703 0.40421 0.51018 0.0
C777 C 0.68596 0.43389 0.52302 0.0
H778 H 0.73773 0.43544 0.53599 0.0
H779 H 0.70229 0.38975 0.50181 0.0
O780 O 0.78902 0.36678 0.50827 0.0
O781 O 0.76967 0.40204 0.5333 0.0
O782 O 0.75995 0.39904 0.49089 0.0
O783 O 0.74063 0.36583 0.51248 0.0
H784 H 0.81759 0.33884 0.51003 0.0
H785 H 0.79349 0.38682 0.47718 0.0
H786 H 0.8434 0.33274 0.48633 0.0
H787 H 0.81958 0.37981 0.45397 0.0
H788 H 0.75693 0.41337 0.59501 0.0
H789 H 0.8071 0.395 0.5481 0.0
H790 H 0.74557 0.41143 0.56101 0.0
H791 H 0.81737 0.39709 0.58232 0.0
H792 H 0.86026 0.40959 0.51851 0.0
H793 H 0.82787 0.45976 0.49493 0.0
H794 H 0.80643 0.32037 0.5624 0.0
H795 H 0.75611 0.34662 0.59144 0.0
H796 H 0.75085 0.43653 0.50317 0.0
H797 H 0.76943 0.40035 0.45517 0.0
H798 H 0.75005 0.46695 0.48387 0.0
H799 H 0.76877 0.43149 0.43683 0.0
H800 H 0.75056 0.32686 0.51035 0.0
H801 H 0.71178 0.3704 0.53696 0.0
H802 H 0.7353 0.29953 0.52897 0.0
H803 H 0.69714 0.3423 0.55506 0.0
H804 H 0.777 0.3079 0.45269 0.0
H805 H 0.74238 0.35446 0.42553 0.0
H806 H 0.70691 0.45571 0.53998 0.0
H807 H 0.67046 0.40855 0.50551 0.0
Li808 Li 0.65118 0.98366 0.75857 0.0
Li809 Li 0.62703 1.00567 0.77357 0.0
Li810 Li 0.62265 0.99642 0.73833 0.0
Li811 Li 0.65089 0.0205 0.75257 0.0
C812 C 0.61733 0.95834 0.7646 0.0
N813 N 0.61099 0.91808 0.7741 0.0
C814 C 0.62526 0.95221 0.78199 0.0
C815 C 0.60614 0.94399 0.75205 0.0
C816 C 0.62191 0.93179 0.78653 0.0
C817 C 0.60311 0.92371 0.75711 0.0
C818 C 0.66183 0.01188 0.79549 0.0
C819 C 0.66422 0.03566 0.82289 0.0
N820 N 0.66925 0.02001 0.8339 0.0
C821 C 0.66717 0.99607 0.80707 0.0
C822 C 0.6605 0.03187 0.80344 0.0
C823 C 0.67082 1.00049 0.82645 0.0
C824 C 0.68941 0.969 0.76901 0.0
N825 N 0.67021 0.96207 0.76179 0.0
C826 C 0.68101 0.92732 0.76034 0.0
C827 C 0.66585 0.94168 0.75717 0.0
C828 C 0.70091 0.9341 0.76799 0.0
C829 C 0.70497 0.95528 0.77233 0.0
H830 H 0.69262 0.9853 0.77227 0.0
H831 H 0.65072 0.93649 0.7509 0.0
C832 C 0.5977 0.02643 0.79405 0.0
N833 N 0.61158 0.01142 0.7953 0.0
C834 C 0.58616 0.03188 0.80933 0.0
C835 C 0.60293 1.00596 0.82689 0.0
C836 C 0.61417 1.00103 0.81125 0.0
C837 C 0.58879 0.02169 0.8261 0.0
H838 H 0.59551 0.03419 0.78113 0.0
H839 H 0.62508 0.98903 0.81198 0.0
C840 C 0.65797 0.98288 0.72021 0.0
N841 N 0.66891 0.95465 0.69259 0.0
C842 C 0.67515 0.98714 0.70984 0.0
C843 C 0.64635 0.9643 0.71655 0.0
C844 C 0.68043 0.97266 0.69592 0.0
C845 C 0.65213 0.95021 0.70253 0.0
C846 C 0.61819 0.04347 0.74803 0.0
C847 C 0.61028 0.04793 0.73009 0.0
C848 C 0.62401 0.05956 0.76143 0.0
C849 C 0.60866 0.06847 0.72575 0.0
C850 C 0.62217 0.0799 0.75654 0.0
N851 N 0.61462 0.0839 0.73895 0.0
C852 C 0.58352 0.98449 0.72006 0.0
C853 C 0.60846 0.99661 0.69975 0.0
C854 C 0.56841 0.98198 0.70507 0.0
N855 N 0.60309 0.99163 0.71714 0.0
C856 C 0.59379 0.99451 0.68438 0.0
C857 C 0.57343 0.98711 0.68694 0.0
H858 H 0.57958 0.98103 0.73411 0.0
H859 H 0.62407 1.00257 0.69788 0.0
C860 C 0.68382 0.05126 0.7594 0.0
N861 N 0.66795 0.04381 0.74709 0.0
C862 C 0.69695 0.06765 0.75479 0.0
C863 C 0.67693 0.06854 0.72507 0.0
C864 C 0.66444 0.05196 0.73012 0.0
C865 C 0.69367 0.0765 0.73735 0.0
H866 H 0.6866 0.04418 0.77262 0.0
H867 H 0.65203 0.04542 0.7204 0.0
O868 O 0.62046 0.97826 0.75987 0.0
O869 O 0.65806 0.00786 0.77647 0.0
O870 O 0.65265 0.99688 0.7339 0.0
O871 O 0.62019 0.02345 0.75246 0.0
H872 H 0.63428 0.96297 0.79169 0.0
H873 H 0.59991 0.94843 0.73851 0.0
H874 H 0.62809 0.92682 0.79989 0.0
H875 H 0.59451 0.91245 0.74752 0.0
H876 H 0.66314 0.05104 0.82923 0.0
H877 H 0.66828 0.9805 0.80122 0.0
H878 H 0.65662 0.04433 0.79469 0.0
H879 H 0.67483 0.98837 0.83559 0.0
H880 H 0.67733 0.91117 0.7565 0.0
H881 H 0.72001 0.96121 0.77838 0.0
H882 H 0.57514 0.04382 0.80795 0.0
H883 H 0.60556 0.99779 0.83958 0.0
H884 H 0.6843 1.00149 0.71253 0.0
H885 H 0.63303 0.96078 0.72445 0.0
H886 H 0.69368 0.97575 0.68776 0.0
H887 H 0.64329 0.93574 0.69957 0.0
H888 H 0.60556 0.0357 0.71958 0.0
H889 H 0.62992 0.05639 0.77543 0.0
H890 H 0.60269 0.07215 0.71188 0.0
H891 H 0.62674 0.0925 0.76675 0.0
H892 H 0.55285 0.9765 0.70774 0.0
H893 H 0.59837 0.9985 0.67063 0.0
H894 H 0.70985 0.07291 0.7646 0.0
H895 H 0.67349 0.07496 0.7116 0.0
Li896 Li 0.0487 0.25952 0.86706 0.0
Li897 Li 0.02697 0.27471 0.89108 0.0
Li898 Li 0.03412 0.23692 0.88989 0.0
Li899 Li 0.00996 0.25052 0.86622 0.0
C900 C 0.07384 0.26844 0.89952 0.0
N901 N 0.11427 0.2832 0.90844 0.0
C902 C 0.07809 0.28929 0.9048 0.0
C903 C 0.09012 0.25505 0.89898 0.0
C904 C 0.09864 0.29646 0.90922 0.0
C905 C 0.11046 0.26283 0.90347 0.0
C906 C 0.02036 0.2969 0.85834 0.0
C907 C 0.99568 0.32287 0.85262 0.0
N908 N 0.01142 0.33606 0.84839 0.0
C909 C 0.03628 0.31066 0.85382 0.0
C910 C 0.99987 0.30298 0.85763 0.0
C911 C 0.03145 0.33041 0.84886 0.0
C912 C 0.07216 0.2508 0.83586 0.0
N913 N 0.0715 0.2639 0.85136 0.0
C914 C 0.10261 0.28203 0.84353 0.0
C915 C 0.08618 0.27949 0.85522 0.0
C916 C 0.10388 0.26852 0.82755 0.0
C917 C 0.08825 0.25281 0.82376 0.0
H918 H 0.06009 0.23881 0.83279 0.0
H919 H 0.08513 0.29009 0.86729 0.0
C920 C 0.02156 0.29194 0.92665 0.0
N921 N 0.02343 0.29748 0.90871 0.0
C922 C 0.02032 0.30691 0.94132 0.0
C923 C 0.02229 0.33312 0.91876 0.0
C924 C 0.02369 0.31763 0.90452 0.0
C925 C 0.02093 0.32783 0.93749 0.0
H926 H 0.02147 0.27583 0.9296 0.0
H927 H 0.02556 0.32185 0.89032 0.0
C928 C 0.03926 0.21268 0.85873 0.0
N929 N 0.05119 0.17275 0.85289 0.0
C930 C 0.02476 0.19719 0.85148 0.0
C931 C 0.05987 0.20794 0.86277 0.0
C932 C 0.03109 0.17707 0.84869 0.0
C933 C 0.06559 0.18764 0.85979 0.0
C934 C 0.98747 0.25087 0.89813 0.0
C935 C 0.97726 0.23328 0.90414 0.0
C936 C 0.97684 0.26896 0.89656 0.0
C937 C 0.95641 0.23399 0.90819 0.0
C938 C 0.95601 0.26906 0.90076 0.0
N939 N 0.9463 0.25171 0.90642 0.0
C940 C 0.05354 0.21391 0.91853 0.0
C941 C 0.02551 0.19649 0.90016 0.0
C942 C 0.0567 0.19644 0.9287 0.0
N943 N 0.0383 0.21352 0.90442 0.0
C944 C 0.02834 0.17862 0.90971 0.0
C945 C 0.04419 0.17841 0.92411 0.0
H946 H 0.06332 0.22774 0.92181 0.0
H947 H 0.01318 0.19676 0.8892 0.0
C948 C 0.98037 0.25413 0.83524 0.0
N949 N 0.98545 0.24331 0.85049 0.0
C950 C 0.96276 0.24812 0.82342 0.0
C951 C 0.95614 0.21984 0.8431 0.0
C952 C 0.9738 0.22642 0.85453 0.0
C953 C 0.95046 0.23066 0.82722 0.0
H954 H 0.99019 0.26719 0.83204 0.0
H955 H 0.97848 0.2178 0.86647 0.0
O956 O 0.05382 0.26112 0.89522 0.0
O957 O 0.02482 0.27748 0.86313 0.0
O958 O 0.03329 0.23239 0.86188 0.0
O959 O 1.00782 0.25038 0.89394 0.0
H960 H 0.0657 0.29987 0.90533 0.0
H961 H 0.08709 0.23883 0.89517 0.0
H962 H 0.10217 0.31258 0.91323 0.0
H963 H 0.12322 0.25266 0.90303 0.0
H964 H 0.9799 0.3278 0.85207 0.0
H965 H 0.0522 0.30619 0.85423 0.0
H966 H 0.98732 0.29247 0.86086 0.0
H967 H 0.04363 0.34125 0.84541 0.0
H968 H 0.1143 0.29432 0.84711 0.0
H969 H 0.08824 0.24231 0.8114 0.0
H970 H 0.01914 0.30217 0.95556 0.0
H971 H 0.02309 0.3491 0.91527 0.0
H972 H 1.00876 0.20062 0.84817 0.0
H973 H 0.0713 0.2198 0.8682 0.0
H974 H 0.02001 0.16489 0.84321 0.0
H975 H 0.08147 0.18373 0.86296 0.0
H976 H 0.98532 0.21919 0.90553 0.0
H977 H 0.98461 0.28278 0.89221 0.0
H978 H 0.94826 0.22045 0.91274 0.0
H979 H 0.94757 0.28293 0.89956 0.0
H980 H 0.0691 0.19684 0.9397 0.0
H981 H 0.01818 0.16511 0.90594 0.0
H982 H 0.95917 0.2567 0.81115 0.0
H983 H 0.94705 0.20638 0.84665 0.0
Li984 Li 0.54624 0.76319 0.36379 0.0
Li985 Li 0.52274 0.7766 0.38757 0.0
Li986 Li 0.53242 0.74118 0.38772 0.0
Li987 Li 0.50866 0.75288 0.36241 0.0
C988 C 0.57126 0.76316 0.39752 0.0
N989 N 0.61229 0.75721 0.40824 0.0
C990 C 0.58127 0.77497 0.41272 0.0
C991 C 0.58215 0.74843 0.38767 0.0
C992 C 0.602 0.77169 0.41796 0.0
C993 C 0.60287 0.74562 0.39333 0.0
C994 C 0.51158 0.78834 0.34516 0.0
C995 C 0.48019 0.80041 0.33032 0.0
N996 N 0.49013 0.80284 0.31425 0.0
C997 C 0.52151 0.79104 0.32853 0.0
C998 C 0.49078 0.79316 0.34611 0.0
C999 C 0.51039 0.79836 0.31305 0.0
C1000 C 0.57219 0.76011 0.33274 0.0
N1001 N 0.56909 0.77036 0.34943 0.0
C1002 C 0.59737 0.79432 0.3455 0.0
C1003 C 0.5814 0.78701 0.35603 0.0
C1004 C 0.60053 0.78461 0.32782 0.0
C1005 C 0.58793 0.76701 0.32163 0.0
H1006 H 0.56201 0.74699 0.32779 0.0
H1007 H 0.57852 0.79488 0.36933 0.0
C1008 C 0.52558 0.80136 0.42172 0.0
N1009 N 0.51782 0.80022 0.40348 0.0
C1010 C 0.5226 0.8187 0.43357 0.0
C1011 C 0.50359 0.83325 0.40765 0.0
C1012 C 0.50697 0.81568 0.39633 0.0
C1013 C 0.51159 0.83504 0.42652 0.0
H1014 H 0.5342 0.78883 0.42702 0.0
H1015 H 0.50105 0.81446 0.38179 0.0
C1016 C 0.53266 0.71446 0.35591 0.0
N1017 N 0.53209 0.6723 0.34857 0.0
C1018 C 0.51412 0.70259 0.35626 0.0
C1019 C 0.55087 0.70492 0.35162 0.0
C1020 C 0.51416 0.68129 0.35258 0.0
C1021 C 0.55027 0.68358 0.348 0.0
C1022 C 0.49314 0.75842 0.40396 0.0
C1023 C 0.49948 0.75446 0.42247 0.0
C1024 C 0.47576 0.76998 0.40051 0.0
C1025 C 0.48832 0.76223 0.43726 0.0
C1026 C 0.46505 0.77751 0.41568 0.0
N1027 N 0.4715 0.77351 0.43359 0.0
C1028 C 0.55346 0.71724 0.41583 0.0
C1029 C 0.51981 0.70503 0.40396 0.0
C1030 C 0.55429 0.70159 0.42846 0.0
N1031 N 0.53638 0.71869 0.40385 0.0
C1032 C 0.51998 0.68917 0.41635 0.0
C1033 C 0.5373 0.68741 0.42899 0.0
H1034 H 0.5662 0.72853 0.41619 0.0
H1035 H 0.50613 0.70683 0.3948 0.0
C1036 C 0.4859 0.74558 0.32667 0.0
N1037 N 0.48491 0.74496 0.34567 0.0
C1038 C 0.46845 0.73979 0.31459 0.0
C1039 C 0.44962 0.73187 0.34178 0.0
C1040 C 0.46725 0.73828 0.35334 0.0
C1041 C 0.45012 0.73266 0.32217 0.0
H1042 H 0.50027 0.75052 0.3209 0.0
H1043 H 0.46697 0.73759 0.36845 0.0
O1044 O 0.55113 0.76655 0.39195 0.0
O1045 O 0.52221 0.78112 0.36044 0.0
O1046 O 0.53296 0.73535 0.35951 0.0
O1047 O 0.50419 0.75143 0.38933 0.0
H1048 H 0.57311 0.78659 0.42036 0.0
H1049 H 0.57465 0.73925 0.37585 0.0
H1050 H 0.60994 0.7807 0.42972 0.0
H1051 H 0.61147 0.73424 0.38587 0.0
H1052 H 0.46405 0.80403 0.33081 0.0
H1053 H 0.53761 0.78751 0.32756 0.0
H1054 H 0.48278 0.79097 0.35879 0.0
H1055 H 0.51787 0.80048 0.30008 0.0
H1056 H 0.60692 0.80766 0.35105 0.0
H1057 H 0.58966 0.75915 0.30805 0.0
H1058 H 0.52925 0.81947 0.44794 0.0
H1059 H 0.49473 0.84529 0.40168 0.0
H1060 H 0.49988 0.70968 0.35956 0.0
H1061 H 0.56531 0.71389 0.35099 0.0
H1062 H 0.49994 0.6719 0.35293 0.0
H1063 H 0.56426 0.67599 0.34471 0.0
H1064 H 0.51301 0.7457 0.42541 0.0
H1065 H 0.47073 0.77329 0.38627 0.0
H1066 H 0.4931 0.75936 0.45166 0.0
H1067 H 0.45163 0.78658 0.41323 0.0
H1068 H 0.5678 0.70111 0.4382 0.0
H1069 H 0.50656 0.67854 0.41617 0.0
H1070 H 0.46942 0.7403 0.2995 0.0
H1071 H 0.43574 0.72631 0.34806 0.0
Li1072 Li 0.02528 0.78392 0.62303 0.0
Li1073 Li 1.00625 0.76869 0.64895 0.0
Li1074 Li 0.04365 0.76195 0.64443 0.0
Li1075 Li 0.01673 0.7482 0.62218 0.0
C1076 C 0.02606 0.80783 0.65781 0.0
N1077 N 0.01539 0.84629 0.67126 0.0
C1078 C 1.00624 0.81465 0.65338 0.0
C1079 C 0.04044 0.82054 0.66909 0.0
C1080 C 1.00114 0.83414 0.66033 0.0
C1081 C 0.03476 0.83995 0.67574 0.0
C1082 C 0.98121 0.76099 0.61058 0.0
C1083 C 0.95052 0.73825 0.60609 0.0
N1084 N 0.95052 0.74009 0.58717 0.0
C1085 C 0.98085 0.76274 0.5911 0.0
C1086 C 0.9659 0.7487 0.61816 0.0
C1087 C 0.96523 0.75202 0.57949 0.0
C1088 C 0.0296 0.79972 0.58837 0.0
N1089 N 0.0286 0.8062 0.60676 0.0
C1090 C 0.03274 0.84137 0.59896 0.0
C1091 C 0.03042 0.8266 0.6123 0.0
C1092 C 0.0334 0.83508 0.57979 0.0
C1093 C 0.03204 0.81389 0.57464 0.0
H1094 H 0.02866 0.78341 0.58438 0.0
H1095 H 0.03013 0.83154 0.62698 0.0
C1096 C 0.99343 0.76544 0.68523 0.0
N1097 N 0.9868 0.7712 0.66793 0.0
C1098 C 0.97982 0.76477 0.69967 0.0
C1099 C 0.95288 0.77661 0.67843 0.0
C1100 C 0.96708 0.77709 0.66437 0.0
C1101 C 0.9591 0.76999 0.69629 0.0
H1102 H 0.00923 0.76089 0.68765 0.0
H1103 H 0.9622 0.78164 0.65048 0.0
C1104 C 0.06233 0.76976 0.61201 0.0
N1105 N 0.10006 0.78687 0.60279 0.0
C1106 C 0.07252 0.76108 0.59697 0.0
C1107 C 0.07136 0.78716 0.62237 0.0
C1108 C 0.09158 0.76994 0.59253 0.0
C1109 C 0.09042 0.79558 0.61748 0.0
C1110 C 0.02162 0.72238 0.65178 0.0
C1111 C 0.03671 0.71106 0.64324 0.0
C1112 C 1.00744 0.71254 0.66274 0.0
C1113 C 0.03736 0.68999 0.64583 0.0
C1114 C 1.00861 0.69145 0.66499 0.0
N1115 N 0.02342 0.68071 0.65656 0.0
C1116 C 0.0718 0.76102 0.67655 0.0
C1117 C 0.08275 0.74444 0.64864 0.0
C1118 C 0.08907 0.75441 0.68698 0.0
N1119 N 0.06888 0.75574 0.65779 0.0
C1120 C 0.10018 0.73756 0.65847 0.0
C1121 C 0.10333 0.74216 0.67798 0.0
H1122 H 0.06037 0.76981 0.68351 0.0
H1123 H 0.07997 0.74017 0.63379 0.0
C1124 C 0.01857 0.72187 0.58949 0.0
N1125 N 0.00913 0.72423 0.60595 0.0
C1126 C 0.01546 0.70353 0.57826 0.0
C1127 C 0.99233 0.69076 0.60081 0.0
C1128 C 0.99577 0.70936 0.6115 0.0
C1129 C 1.00262 0.6875 0.58418 0.0
H1130 H 0.02901 0.73402 0.58536 0.0
H1131 H 0.98823 0.71167 0.62452 0.0
O1132 O 0.03141 0.78874 0.65137 0.0
O1133 O 0.99663 0.77101 0.62215 0.0
O1134 O 0.04362 0.76115 0.61641 0.0
O1135 O 0.02035 0.74291 0.64907 0.0
H1136 H 0.99498 0.80512 0.64452 0.0
H1137 H 0.05584 0.81544 0.67266 0.0
H1138 H 0.98587 0.83964 0.65699 0.0
H1139 H 0.04574 0.84997 0.68446 0.0
H1140 H 0.93867 0.72856 0.61176 0.0
H1141 H 0.99253 0.77219 0.58498 0.0
H1142 H 0.96613 0.74688 0.63317 0.0
H1143 H 0.96482 0.75316 0.56439 0.0
H1144 H 0.03369 0.85754 0.60361 0.0
H1145 H 0.03303 0.80823 0.56014 0.0
H1146 H 0.98544 0.75996 0.71329 0.0
H1147 H 0.93705 0.78066 0.67514 0.0
H1148 H 0.06581 0.74759 0.58882 0.0
H1149 H 0.06382 0.79417 0.63405 0.0
H1150 H 0.09963 0.76336 0.58093 0.0
H1151 H 0.09756 0.80904 0.62537 0.0
H1152 H 0.04749 0.71836 0.63437 0.0
H1153 H 0.99555 0.72108 0.66931 0.0
H1154 H 0.04888 0.681 0.63921 0.0
H1155 H 0.9977 0.6836 0.6734 0.0
H1156 H 0.09078 0.75816 0.70203 0.0
H1157 H 0.11091 0.72843 0.65089 0.0
H1158 H 0.02372 0.70159 0.56555 0.0
H1159 H 0.98203 0.67888 0.60569 0.0
Li1160 Li 0.52841 0.29231 0.12176 0.0
Li1161 Li 0.50772 0.27407 0.14435 0.0
Li1162 Li 0.5459 0.26851 0.1419 0.0
Li1163 Li 0.52029 0.25384 0.1174 0.0
C1164 C 0.53429 0.31432 0.15571 0.0
N1165 N 0.53886 0.35561 0.16727 0.0
C1166 C 0.51779 0.32434 0.16334 0.0
C1167 C 0.5532 0.32524 0.15416 0.0
C1168 C 0.52039 0.34524 0.16906 0.0
C1169 C 0.55517 0.34613 0.16002 0.0
C1170 C 0.48034 0.28034 0.11378 0.0
C1171 C 0.44446 0.26786 0.11047 0.0
N1172 N 0.43864 0.28729 0.1076 0.0
C1173 C 0.47401 0.30015 0.11063 0.0
C1174 C 0.46546 0.26401 0.11353 0.0
C1175 C 0.45286 0.30337 0.10758 0.0
C1176 C 0.54432 0.31612 0.09353 0.0
N1177 N 0.53247 0.31705 0.10867 0.0
C1178 C 0.52867 0.35311 0.10569 0.0
C1179 C 0.52426 0.33498 0.11456 0.0
C1180 C 0.54136 0.35272 0.09037 0.0
C1181 C 0.54893 0.33384 0.08409 0.0
H1182 H 0.55045 0.30164 0.08892 0.0
H1183 H 0.5144 0.33532 0.12625 0.0
C1184 C 0.48977 0.26332 0.177 0.0
N1185 N 0.4864 0.27495 0.16197 0.0
C1186 C 0.47486 0.26138 0.19021 0.0
C1187 C 0.45353 0.28422 0.17284 0.0
C1188 C 0.46894 0.28575 0.15994 0.0
C1189 C 0.45623 0.27155 0.18804 0.0
H1190 H 0.50397 0.25524 0.17856 0.0
H1191 H 0.46679 0.29543 0.14826 0.0
C1192 C 0.56721 0.26774 0.11116 0.0
N1193 N 0.60885 0.26331 0.10603 0.0
C1194 C 0.57391 0.2492 0.10339 0.0
C1195 C 0.58163 0.28412 0.11608 0.0
C1196 C 0.59504 0.24724 0.10096 0.0
C1197 C 0.60263 0.28156 0.11345 0.0
C1198 C 0.51603 0.22807 0.14624 0.0
C1199 C 0.5303 0.21308 0.14989 0.0
C1200 C 0.4948 0.22258 0.14457 0.0
C1201 C 0.52309 0.19272 0.15141 0.0
C1202 C 0.48819 0.20207 0.1462 0.0
N1203 N 0.50236 0.18767 0.14952 0.0
C1204 C 0.57727 0.27789 0.17061 0.0
C1205 C 0.58246 0.24731 0.1522 0.0
C1206 C 0.59576 0.27578 0.18135 0.0
N1207 N 0.57112 0.26392 0.1562 0.0
C1208 C 0.60109 0.24455 0.16265 0.0
C1209 C 0.60805 0.25903 0.17734 0.0
H1210 H 0.56777 0.29069 0.17381 0.0
H1211 H 0.57713 0.23627 0.14082 0.0
C1212 C 0.498 0.23336 0.08596 0.0
N1213 N 0.51336 0.2312 0.09953 0.0
C1214 C 0.4915 0.21685 0.07327 0.0
C1215 C 0.51743 0.19643 0.08813 0.0
C1216 C 0.52335 0.21333 0.10062 0.0
C1217 C 0.50108 0.19799 0.07441 0.0
H1218 H 0.49068 0.24787 0.08506 0.0
H1219 H 0.53581 0.21212 0.11128 0.0
O1220 O 0.53201 0.29387 0.15001 0.0
O1221 O 0.501 0.27693 0.11679 0.0
O1222 O 0.54663 0.26985 0.11393 0.0
O1223 O 0.52283 0.24805 0.14452 0.0
H1224 H 0.50309 0.31613 0.16473 0.0
H1225 H 0.5662 0.3177 0.14847 0.0
H1226 H 0.50771 0.35321 0.1749 0.0
H1227 H 0.56968 0.35479 0.1588 0.0
H1228 H 0.43279 0.25537 0.11031 0.0
H1229 H 0.48528 0.31292 0.11059 0.0
H1230 H 0.47006 0.24852 0.11557 0.0
H1231 H 0.44774 0.31864 0.10522 0.0
H1232 H 0.52223 0.36729 0.11077 0.0
H1233 H 0.55881 0.33288 0.07237 0.0
H1234 H 0.47788 0.25186 0.20196 0.0
H1235 H 0.43944 0.29238 0.17062 0.0
H1236 H 0.56294 0.23642 0.09937 0.0
H1237 H 0.57666 0.29863 0.12191 0.0
H1238 H 0.60047 0.23294 0.09507 0.0
H1239 H 0.61398 0.29407 0.1173 0.0
H1240 H 0.54678 0.21708 0.1514 0.0
H1241 H 0.48353 0.23405 0.14217 0.0
H1242 H 0.53397 0.18093 0.15409 0.0
H1243 H 0.4718 0.1976 0.14486 0.0
H1244 H 0.6003 0.28708 0.19281 0.0
H1245 H 0.61011 0.23145 0.15905 0.0
H1246 H 0.47911 0.21883 0.06267 0.0
H1247 H 0.5252 0.18216 0.08951 0.0
H1248 H 0.26556 0.73843 0.8574 0.0
H1249 H 0.25575 0.78176 0.81408 0.0
H1250 H 0.25413 0.80995 0.83858 0.0
H1251 H 0.23054 0.76005 0.88905 0.0
H1252 H 0.24626 0.75576 0.91014 0.0
H1253 H 0.24778 0.73906 0.88927 0.0
H1254 H 0.28753 0.74692 0.8901 0.0
H1255 H 0.28615 0.76356 0.91105 0.0
H1256 H 0.29749 0.77329 0.89063 0.0
H1257 H 0.25285 0.83324 0.86752 0.0
H1258 H 0.25234 0.85042 0.8992 0.0
H1259 H 0.2616 0.79189 0.92407 0.0
C1260 C 0.26337 0.75392 0.85314 0.0
C1261 C 0.26079 0.75798 0.83387 0.0
C1262 C 0.25763 0.77836 0.82878 0.0
C1263 C 0.25674 0.79445 0.84258 0.0
C1264 C 0.25897 0.78992 0.86144 0.0
C1265 C 0.26225 0.77019 0.86678 0.0
C1266 C 0.26349 0.76948 0.88807 0.0
C1267 C 0.24597 0.75525 0.8945 0.0
C1268 C 0.28494 0.76293 0.89539 0.0
C1269 C 0.26036 0.79187 0.8938 0.0
C1270 C 0.25785 0.80337 0.87821 0.0
C1271 C 0.25472 0.82439 0.87986 0.0
C1272 C 0.25425 0.83398 0.89795 0.0
C1273 C 0.25677 0.82256 0.91423 0.0
C1274 C 0.25981 0.80116 0.91199 0.0
H1275 H 0.03133 0.50459 0.42464 0.0
H1276 H 0.99974 0.56033 0.41336 0.0
H1277 H 0.01617 0.56183 0.38295 0.0
H1278 H 0.07958 0.5207 0.40573 0.0
H1279 H 0.08459 0.4953 0.39621 0.0
H1280 H 0.06979 0.49829 0.41672 0.0
H1281 H 0.03954 0.47545 0.39974 0.0
H1282 H 0.05424 0.47242 0.37917 0.0
H1283 H 0.02863 0.48228 0.37716 0.0
H1284 H 0.03515 0.55646 0.3533 0.0
H1285 H 0.05751 0.54619 0.32768 0.0
H1286 H 0.07854 0.49537 0.35935 0.0
C1287 C 0.02787 0.51707 0.41571 0.0
C1288 C 0.01426 0.5323 0.42122 0.0
C1289 C 0.01019 0.54854 0.40936 0.0
C1290 C 0.01939 0.54947 0.39207 0.0
C1291 C 0.0328 0.5342 0.38703 0.0
C1292 C 0.03722 0.51844 0.3986 0.0
C1293 C 0.05273 0.50437 0.39021 0.0
C1294 C 0.07286 0.5047 0.40298 0.0
C1295 C 0.04321 0.48233 0.38634 0.0
C1296 C 0.05625 0.5146 0.37205 0.0
C1297 C 0.04443 0.53166 0.37038 0.0
C1298 C 0.04458 0.54323 0.35452 0.0
C1299 C 0.05722 0.53728 0.34005 0.0
C1300 C 0.06972 0.52011 0.34169 0.0
C1301 C 0.06924 0.50869 0.35791 0.0
H1302 H 0.804 0.75955 0.83483 0.0
H1303 H 0.79692 0.82172 0.85821 0.0
H1304 H 0.79339 0.80837 0.88961 0.0
H1305 H 0.76792 0.73381 0.86354 0.0
H1306 H 0.78344 0.71173 0.86623 0.0
H1307 H 0.78474 0.72608 0.84542 0.0
H1308 H 0.82461 0.73149 0.85175 0.0
H1309 H 0.82343 0.71722 0.87261 0.0
H1310 H 0.83506 0.74301 0.87418 0.0
H1311 H 0.79164 0.7885 0.91869 0.0
H1312 H 0.79127 0.76346 0.94333 0.0
H1313 H 0.79959 0.71407 0.90126 0.0
C1314 C 0.80176 0.77039 0.84655 0.0
C1315 C 0.80061 0.79173 0.84394 0.0
C1316 C 0.79747 0.8053 0.85969 0.0
C1317 C 0.7956 0.79787 0.87765 0.0
C1318 C 0.79694 0.77682 0.87971 0.0
C1319 C 0.79991 0.76325 0.8646 0.0
C1320 C 0.80102 0.74137 0.87071 0.0
C1321 C 0.78322 0.72743 0.86089 0.0
C1322 C 0.8223 0.73277 0.8671 0.0
C1323 C 0.79829 0.74478 0.89163 0.0
C1324 C 0.79594 0.76534 0.89651 0.0
C1325 C 0.79332 0.77233 0.91502 0.0
C1326 C 0.793 0.75794 0.92892 0.0
C1327 C 0.79525 0.73671 0.9243 0.0
C1328 C 0.798 0.73016 0.90534 0.0
H1329 H 0.04247 0.01697 0.42308 0.0
H1330 H 0.05945 0.95384 0.41271 0.0
H1331 H 0.04195 0.95299 0.38083 0.0
H1332 H 0.99193 0.01048 0.39975 0.0
H1333 H 0.99251 0.03546 0.39007 0.0
H1334 H 1.00738 0.03164 0.41172 0.0
H1335 H 0.04088 0.04506 0.39727 0.0
H1336 H 0.02609 0.04901 0.37559 0.0
H1337 H 0.04826 0.0332 0.37535 0.0
H1338 H 0.02193 0.95849 0.35061 0.0
H1339 H 1.00002 0.96978 0.32394 0.0
H1340 H 0.99561 0.0294 0.35364 0.0
C1341 C 0.04272 1.00309 0.41396 0.0
C1342 C 0.05233 0.98546 0.42031 0.0
C1343 C 0.05206 0.96745 0.40813 0.0
C1344 C 0.04225 0.96686 0.39 0.0
C1345 C 0.0327 0.98438 0.38424 0.0
C1346 C 0.03281 1.00217 0.39582 0.0
C1347 C 0.02065 0.01855 0.38637 0.0
C1348 C 1.00201 0.02436 0.39765 0.0
C1349 C 0.03482 0.03758 0.38347 0.0
C1350 C 0.01363 0.00712 0.36773 0.0
C1351 C 0.02088 0.98749 0.36678 0.0
C1352 C 0.01628 0.97389 0.35111 0.0
C1353 C 1.00391 0.98049 0.33598 0.0
C1354 C 0.99618 1.00052 0.3366 0.0
C1355 C 1.00118 0.01397 0.35275 0.0
H1356 H 0.25438 0.2671 0.6755 0.0
H1357 H 0.24182 0.32546 0.65169 0.0
H1358 H 0.24508 0.30972 0.61977 0.0
H1359 H 0.29252 0.25239 0.64426 0.0
H1360 H 0.28453 0.22542 0.64227 0.0
H1361 H 0.28012 0.24083 0.66332 0.0
H1362 H 0.24086 0.23023 0.65934 0.0
H1363 H 0.24517 0.21469 0.63831 0.0
H1364 H 0.22645 0.23435 0.63749 0.0
H1365 H 0.25123 0.28848 0.59074 0.0
H1366 H 0.25889 0.26247 0.56593 0.0
H1367 H 0.2675 0.21755 0.60812 0.0
C1368 C 0.252 0.27644 0.66352 0.0
C1369 C 0.24797 0.29754 0.66607 0.0
C1370 C 0.2452 0.30934 0.65008 0.0
C1371 C 0.24692 0.30052 0.63189 0.0
C1372 C 0.25131 0.27983 0.62987 0.0
C1373 C 0.2537 0.26785 0.64519 0.0
C1374 C 0.25893 0.24611 0.63902 0.0
C1375 C 0.28029 0.24089 0.64773 0.0
C1376 C 0.24183 0.23042 0.64383 0.0
C1377 C 0.25931 0.24787 0.61789 0.0
C1378 C 0.25483 0.26746 0.61297 0.0
C1379 C 0.2547 0.27305 0.59439 0.0
C1380 C 0.25924 0.25821 0.58042 0.0
C1381 C 0.26388 0.238 0.58507 0.0
C1382 C 0.26382 0.2328 0.60409 0.0
H1383 H 0.53038 0.51732 0.59306 0.0
H1384 H 0.56629 0.57481 0.60601 0.0
H1385 H 0.55171 0.57799 0.63729 0.0
H1386 H 0.48478 0.53346 0.61388 0.0
H1387 H 0.47796 0.50889 0.62283 0.0
H1388 H 0.49256 0.51004 0.60216 0.0
H1389 H 0.52145 0.48947 0.6181 0.0
H1390 H 0.50686 0.48812 0.63879 0.0
H1391 H 0.53326 0.49867 0.64082 0.0
H1392 H 0.53251 0.5756 0.66651 0.0
H1393 H 0.50916 0.56836 0.69171 0.0
H1394 H 0.48437 0.513 0.65963 0.0
C1395 C 0.53541 0.53033 0.60269 0.0
C1396 C 0.54963 0.54572 0.59735 0.0
C1397 C 0.55552 0.56283 0.61001 0.0
C1398 C 0.54733 0.56474 0.62775 0.0
C1399 C 0.5331 0.54949 0.63255 0.0
C1400 C 0.52711 0.53262 0.6204 0.0
C1401 C 0.51064 0.5191 0.62866 0.0
C1402 C 0.49028 0.51781 0.61613 0.0
C1403 C 0.51853 0.49756 0.63178 0.0
C1404 C 0.50824 0.53106 0.64726 0.0
C1405 C 0.52151 0.54843 0.64926 0.0
C1406 C 0.52213 0.56199 0.66516 0.0
C1407 C 0.50886 0.55771 0.67943 0.0
C1408 C 0.495 0.54009 0.67769 0.0
C1409 C 0.49472 0.52664 0.66132 0.0
H1410 H 0.76195 0.26129 0.66536 0.0
H1411 H 0.82889 0.26058 0.67536 0.0
H1412 H 0.83344 0.28302 0.64902 0.0
H1413 H 0.7608 0.25981 0.61503 0.0
H1414 H 0.73984 0.27699 0.61259 0.0
H1415 H 0.7418 0.26121 0.6325 0.0
H1416 H 0.74174 0.29378 0.6552 0.0
H1417 H 0.73979 0.30967 0.63534 0.0
H1418 H 0.76069 0.31464 0.65324 0.0
H1419 H 0.83078 0.30505 0.62138 0.0
H1420 H 0.82114 0.32538 0.59431 0.0
H1421 H 0.75587 0.31159 0.60194 0.0
C1422 C 0.77755 0.26595 0.66201 0.0
C1423 C 0.79505 0.25926 0.6724 0.0
C1424 C 0.81524 0.26559 0.66765 0.0
C1425 C 0.81799 0.27833 0.6527 0.0
C1426 C 0.8004 0.28465 0.64271 0.0
C1427 C 0.78057 0.27873 0.64717 0.0
C1428 C 0.76431 0.28759 0.63411 0.0
C1429 C 0.75091 0.27037 0.62289 0.0
C1430 C 0.75084 0.30229 0.64513 0.0
C1431 C 0.77812 0.29921 0.62147 0.0
C1432 C 0.79887 0.29736 0.62672 0.0
C1433 C 0.81458 0.30659 0.6171 0.0
C1434 C 0.80893 0.31799 0.60166 0.0
C1435 C 0.78775 0.32002 0.5959 0.0
C1436 C 0.77219 0.31053 0.60607 0.0
H1437 H 0.51262 0.0172 0.59161 0.0
H1438 H 0.47814 0.95846 0.59135 0.0
H1439 H 0.496 0.95172 0.62195 0.0
H1440 H 0.5603 0.99955 0.60962 0.0
H1441 H 0.56803 0.02271 0.6239 0.0
H1442 H 0.5511 0.024 0.60299 0.0
H1443 H 0.52382 0.04176 0.62263 0.0
H1444 H 0.54076 0.04071 0.6436 0.0
H1445 H 0.5146 0.02964 0.64287 0.0
H1446 H 0.51876 0.95055 0.65162 0.0
H1447 H 0.54518 0.9548 0.67832 0.0
H1448 H 0.56573 0.01395 0.65909 0.0
C1449 C 0.50853 1.00316 0.59827 0.0
C1450 C 0.49385 0.98842 0.58931 0.0
C1451 C 0.48926 0.96996 0.59811 0.0
C1452 C 0.49931 0.96602 0.61546 0.0
C1453 C 0.51402 0.98066 0.62377 0.0
C1454 C 0.51863 0.99887 0.61551 0.0
C1455 C 0.53599 0.01141 0.62685 0.0
C1456 C 0.55498 0.01459 0.61514 0.0
C1457 C 0.52833 0.03211 0.63444 0.0
C1458 C 0.54052 0.99731 0.64266 0.0
C1459 C 0.52754 0.97975 0.64068 0.0
C1460 C 0.52892 0.96431 0.65339 0.0
C1461 C 0.54393 0.96689 0.66855 0.0
C1462 C 0.5575 0.98471 0.67084 0.0
C1463 C 0.5557 1.00008 0.65765 0.0
H1464 H 0.84837 0.24077 0.75934 0.0
H1465 H 0.84657 0.17424 0.74952 0.0
H1466 H 0.87742 0.17273 0.77148 0.0
H1467 H 0.90389 0.24808 0.76076 0.0
H1468 H 0.90519 0.26863 0.77893 0.0
H1469 H 0.88235 0.26449 0.76306 0.0
H1470 H 0.85949 0.26135 0.79149 0.0
H1471 H 0.88226 0.2655 0.80745 0.0
H1472 H 0.86542 0.24282 0.80864 0.0
H1473 H 0.90887 0.17838 0.79386 0.0
H1474 H 0.93898 0.19086 0.81514 0.0
H1475 H 0.92088 0.25378 0.81008 0.0
C1476 C 0.85448 0.22588 0.76174 0.0
C1477 C 0.84486 0.2076 0.75277 0.0
C1478 C 0.85332 0.18843 0.75648 0.0
C1479 C 0.87096 0.18741 0.76883 0.0
C1480 C 0.88006 0.2057 0.77734 0.0
C1481 C 0.87215 0.22458 0.77396 0.0
C1482 C 0.88515 0.24196 0.78466 0.0
C1483 C 0.89471 0.25666 0.77104 0.0
C1484 C 0.87231 0.25359 0.79891 0.0
C1485 C 0.90164 0.22988 0.79453 0.0
C1486 C 0.89836 0.20899 0.79015 0.0
C1487 C 0.91155 0.1947 0.79748 0.0
C1488 C 0.92855 0.20193 0.80965 0.0
C1489 C 0.93226 0.22329 0.81438 0.0
C1490 C 0.91857 0.23739 0.80664 0.0
H1491 H 0.48974 0.90147 0.52084 0.0
H1492 H 0.49456 0.95577 0.48851 0.0
H1493 H 0.50183 0.934 0.46043 0.0
H1494 H 0.53038 0.87397 0.49936 0.0
H1495 H 0.51684 0.84913 0.49937 0.0
H1496 H 0.51239 0.869 0.51712 0.0
H1497 H 0.47291 0.86565 0.50775 0.0
H1498 H 0.47723 0.84575 0.49 0.0
H1499 H 0.4639 0.86828 0.48357 0.0
H1500 H 0.50858 0.9065 0.4359 0.0
H1501 H 0.51374 0.87496 0.41627 0.0
H1502 H 0.50338 0.83818 0.4641 0.0
C1503 C 0.4924 0.90873 0.50784 0.0
C1504 C 0.49158 0.93026 0.50683 0.0
C1505 C 0.49504 0.93928 0.4896 0.0
C1506 C 0.49923 0.92705 0.47357 0.0
C1507 C 0.49983 0.90585 0.47499 0.0
C1508 C 0.49646 0.89672 0.49165 0.0
C1509 C 0.49757 0.87352 0.48924 0.0
C1510 C 0.51536 0.86597 0.50203 0.0
C1511 C 0.47666 0.86267 0.49285 0.0
C1512 C 0.50214 0.87106 0.46864 0.0
C1513 C 0.50342 0.88991 0.46073 0.0
C1514 C 0.5075 0.89163 0.4419 0.0
C1515 C 0.51026 0.87359 0.43084 0.0
C1516 C 0.50883 0.85403 0.43856 0.0
C1517 C 0.50477 0.85287 0.45778 0.0
H1518 H 0.18626 0.32913 0.76873 0.0
H1519 H 0.20508 0.2697 0.74706 0.0
H1520 H 0.18003 0.25233 0.7665 0.0
H1521 H 0.1785 0.31493 0.81636 0.0
H1522 H 0.15606 0.3301 0.81867 0.0
H1523 H 0.17595 0.33784 0.80352 0.0
H1524 H 0.14839 0.33788 0.77547 0.0
H1525 H 0.12843 0.33016 0.79054 0.0
H1526 H 0.1321 0.31499 0.76914 0.0
H1527 H 0.1526 0.24145 0.78808 0.0
H1528 H 0.12452 0.23781 0.80977 0.0
H1529 H 0.12271 0.3044 0.81657 0.0
C1530 C 0.18517 0.31246 0.76819 0.0
C1531 C 0.19761 0.30076 0.75643 0.0
C1532 C 0.1957 0.27898 0.75596 0.0
C1533 C 0.18153 0.26897 0.76698 0.0
C1534 C 0.16938 0.28096 0.77835 0.0
C1535 C 0.17103 0.30223 0.77901 0.0
C1536 C 0.15579 0.31152 0.79202 0.0
C1537 C 0.16727 0.32435 0.80863 0.0
C1538 C 0.14026 0.32439 0.78114 0.0
C1539 C 0.14526 0.29216 0.79854 0.0
C1540 C 0.15338 0.2747 0.79055 0.0
C1541 C 0.14608 0.25502 0.79437 0.0
C1542 C 0.13 0.25312 0.80662 0.0
C1543 C 0.12126 0.2708 0.81487 0.0
C1544 C 0.12916 0.29055 0.81074 0.0
H1545 H 0.58569 0.60365 0.49472 0.0
H1546 H 0.52597 0.59808 0.51917 0.0
H1547 H 0.5122 0.62353 0.49785 0.0
H1548 H 0.5854 0.65834 0.48957 0.0
H1549 H 0.59785 0.65719 0.4676 0.0
H1550 H 0.60287 0.63823 0.48453 0.0
H1551 H 0.59148 0.60907 0.45917 0.0
H1552 H 0.58641 0.62794 0.44216 0.0
H1553 H 0.56623 0.60924 0.44688 0.0
H1554 H 0.50496 0.6496 0.47387 0.0
H1555 H 0.50501 0.67521 0.44967 0.0
H1556 H 0.56952 0.66397 0.44083 0.0
C1557 C 0.5697 0.6078 0.49554 0.0
C1558 C 0.5569 0.59894 0.50857 0.0
C1559 C 0.53609 0.60474 0.50934 0.0
C1560 C 0.52811 0.61915 0.49725 0.0
C1561 C 0.54117 0.62765 0.48456 0.0
C1562 C 0.56155 0.62227 0.48368 0.0
C1563 C 0.57242 0.63398 0.46903 0.0
C1564 C 0.59071 0.64775 0.47824 0.0
C1565 C 0.57955 0.61917 0.45338 0.0
C1566 C 0.55495 0.64672 0.46176 0.0
C1567 C 0.53704 0.6428 0.47086 0.0
C1568 C 0.51887 0.65275 0.4666 0.0
C1569 C 0.51902 0.66718 0.45272 0.0
C1570 C 0.53723 0.67157 0.44325 0.0
C1571 C 0.55539 0.6611 0.44789 0.0
H1572 H 0.86379 0.79914 0.75804 0.0
H1573 H 0.87423 0.74372 0.78758 0.0
H1574 H 0.90331 0.7361 0.76771 0.0
H1575 H 0.8747 0.7781 0.71191 0.0
H1576 H 0.88747 0.80152 0.70523 0.0
H1577 H 0.86748 0.80268 0.72175 0.0
H1578 H 0.89291 0.82358 0.74605 0.0
H1579 H 0.91297 0.82251 0.72961 0.0
H1580 H 0.91754 0.81332 0.75282 0.0
H1581 H 0.93107 0.73447 0.74478 0.0
H1582 H 0.95583 0.73875 0.7202 0.0
H1583 H 0.92781 0.79555 0.70564 0.0
C1584 C 0.87218 0.78539 0.76032 0.0
C1585 C 0.86678 0.77195 0.77435 0.0
C1586 C 0.87814 0.75416 0.77689 0.0
C1587 C 0.89466 0.74972 0.76568 0.0
C1588 C 0.8996 0.76324 0.75198 0.0
C1589 C 0.88871 0.78071 0.74923 0.0
C1590 C 0.89725 0.79268 0.73351 0.0
C1591 C 0.88074 0.7938 0.71713 0.0
C1592 C 0.90567 0.8143 0.74095 0.0
C1593 C 0.91467 0.77922 0.72791 0.0
C1594 C 0.91571 0.76234 0.73875 0.0
C1595 C 0.93047 0.74768 0.73626 0.0
C1596 C 0.94459 0.75035 0.72233 0.0
C1597 C 0.94395 0.76759 0.71105 0.0
C1598 C 0.92867 0.78215 0.71391 0.0
H1599 H 0.07606 0.93754 0.53472 0.0
H1600 H 0.03983 0.91657 0.48323 0.0
H1601 H 0.02709 0.88589 0.49861 0.0
H1602 H 0.09136 0.88753 0.54754 0.0
H1603 H 0.08953 0.89305 0.57246 0.0
H1604 H 0.09556 0.91359 0.5575 0.0
H1605 H 0.06433 0.93323 0.56913 0.0
H1606 H 0.05816 0.91271 0.58408 0.0
H1607 H 0.03877 0.92063 0.56705 0.0
H1608 H 0.01809 0.85765 0.51952 0.0
H1609 H 0.01409 0.83317 0.54429 0.0
H1610 H 0.05701 0.87174 0.58207 0.0
C1611 C 0.06542 0.92647 0.52673 0.0
C1612 C 0.05892 0.92945 0.50782 0.0
C1613 C 0.04504 0.91465 0.49774 0.0
C1614 C 0.03769 0.89716 0.50636 0.0
C1615 C 0.04438 0.89469 0.52504 0.0
C1616 C 0.05798 0.90889 0.5351 0.0
C1617 C 0.06293 0.90239 0.55492 0.0
C1618 C 0.08623 0.89893 0.55829 0.0
C1619 C 0.05561 0.91818 0.56966 0.0
C1620 C 0.05003 0.88229 0.55439 0.0
C1621 C 0.0394 0.87821 0.53704 0.0
C1622 C 0.02644 0.86061 0.53313 0.0
C1623 C 0.02438 0.84671 0.54728 0.0
C1624 C 0.03535 0.85037 0.56514 0.0
C1625 C 0.04825 0.86853 0.56868 0.0
H1626 H 0.19732 0.74057 0.75661 0.0
H1627 H 0.20559 0.67742 0.73671 0.0
H1628 H 0.17635 0.67948 0.71283 0.0
H1629 H 0.14156 0.73826 0.75134 0.0
H1630 H 0.13999 0.76404 0.74359 0.0
H1631 H 0.16161 0.75766 0.75901 0.0
H1632 H 0.18722 0.77044 0.73512 0.0
H1633 H 0.16569 0.7769 0.71964 0.0
H1634 H 0.18466 0.75982 0.7111 0.0
H1635 H 0.14621 0.68829 0.69147 0.0
H1636 H 0.11719 0.70321 0.6737 0.0
H1637 H 0.12883 0.76094 0.70716 0.0
C1638 C 0.19299 0.72717 0.74724 0.0
C1639 C 0.20366 0.70877 0.74847 0.0
C1640 C 0.19756 0.69162 0.73594 0.0
C1641 C 0.181 0.69265 0.72237 0.0
C1642 C 0.17076 0.71099 0.72154 0.0
C1643 C 0.17652 0.72795 0.7336 0.0
C1644 C 0.16294 0.7458 0.72971 0.0
C1645 C 0.1508 0.75178 0.74694 0.0
C1646 C 0.1759 0.76433 0.72352 0.0
C1647 C 0.14861 0.7362 0.71359 0.0
C1648 C 0.15342 0.71612 0.70912 0.0
C1649 C 0.14237 0.70404 0.69477 0.0
C1650 C 0.126 0.71271 0.68467 0.0
C1651 C 0.12081 0.73332 0.6889 0.0
C1652 C 0.1323 0.74513 0.70364 0.0
H1653 H 0.98561 0.60642 0.49486 0.0
H1654 H 0.9929 0.55847 0.53432 0.0
H1655 H 0.99936 0.58486 0.56046 0.0
H1656 H 0.02601 0.64249 0.51839 0.0
H1657 H 0.01165 0.66487 0.51353 0.0
H1658 H 1.00851 0.64223 0.49763 0.0
H1659 H 0.9688 0.64119 0.50116 0.0
H1660 H 0.97182 0.66373 0.51716 0.0
H1661 H 0.95913 0.64049 0.52433 0.0
H1662 H 1.00296 0.61584 0.5825 0.0
H1663 H 1.00533 0.65017 0.59923 0.0
H1664 H 0.99654 0.67858 0.54584 0.0
C1665 C 0.9889 0.60152 0.50896 0.0
C1666 C 0.98854 0.58038 0.51258 0.0
C1667 C 0.99273 0.57457 0.53126 0.0
C1668 C 0.99654 0.58943 0.5462 0.0
C1669 C 0.99631 0.61009 0.54224 0.0
C1670 C 0.99281 0.61621 0.52411 0.0
C1671 C 0.99301 0.63951 0.52392 0.0
C1672 C 0.01086 0.64776 0.5127 0.0
C1673 C 0.97194 0.64664 0.51618 0.0
C1674 C 0.99683 0.64542 0.54481 0.0
C1675 C 0.99869 0.62816 0.55507 0.0
C1676 C 1.00164 0.6295 0.57464 0.0
C1677 C 1.0028 0.64905 0.58401 0.0
C1678 C 1.00103 0.667 0.57384 0.0
C1679 C 0.9981 0.66512 0.55396 0.0
H1680 H 0.78992 0.84894 0.19587 0.0
H1681 H 0.78543 0.83034 0.25305 0.0
H1682 H 0.81077 0.85839 0.26465 0.0
H1683 H 0.84597 0.86453 0.20065 0.0
H1684 H 0.84284 0.88619 0.18626 0.0
H1685 H 0.82555 0.86362 0.18212 0.0
H1686 H 0.79397 0.88626 0.18591 0.0
H1687 H 0.81113 0.90885 0.19017 0.0
H1688 H 0.79267 0.90249 0.20715 0.0
H1689 H 0.83417 0.88966 0.27053 0.0
H1690 H 0.85554 0.92202 0.27025 0.0
H1691 H 0.84577 0.92077 0.20935 0.0
C1692 C 0.79464 0.85056 0.21076 0.0
C1693 C 0.78568 0.83751 0.22359 0.0
C1694 C 0.79196 0.84028 0.24302 0.0
C1695 C 0.80641 0.85611 0.24973 0.0
C1696 C 0.81457 0.86901 0.23683 0.0
C1697 C 0.80908 0.86639 0.21774 0.0
C1698 C 0.81955 0.8831 0.2071 0.0
C1699 C 0.83436 0.8738 0.19321 0.0
C1700 C 0.80336 0.89593 0.19699 0.0
C1701 C 0.83145 0.89566 0.22325 0.0
C1702 C 0.82836 0.88717 0.24025 0.0
C1703 C 0.83688 0.89638 0.2573 0.0
C1704 C 0.84887 0.91482 0.25701 0.0
C1705 C 0.85229 0.92389 0.2398 0.0
C1706 C 0.84361 0.91403 0.22269 0.0
H1707 H 0.79415 0.19172 0.2748 0.0
H1708 H 0.78286 0.18244 0.33322 0.0
H1709 H 0.80464 0.15224 0.33235 0.0
H1710 H 0.79324 0.13738 0.25912 0.0
H1711 H 0.81361 0.14107 0.24328 0.0
H1712 H 0.79665 0.1616 0.24836 0.0
H1713 H 0.82859 0.18596 0.25904 0.0
H1714 H 0.84564 0.16551 0.25406 0.0
H1715 H 0.84695 0.17848 0.27719 0.0
H1716 H 0.82826 0.12361 0.32537 0.0
H1717 H 0.85186 0.09829 0.31278 0.0
H1718 H 0.84791 0.12613 0.25882 0.0
C1719 C 0.79597 0.18315 0.28733 0.0
C1720 C 0.78674 0.18946 0.30409 0.0
C1721 C 0.7899 0.17804 0.32028 0.0
C1722 C 0.80217 0.1608 0.31989 0.0
C1723 C 0.81115 0.15513 0.30319 0.0
C1724 C 0.80817 0.16591 0.28719 0.0
C1725 C 0.81997 0.15685 0.27118 0.0
C1726 C 0.80497 0.14874 0.2545 0.0
C1727 C 0.83625 0.17264 0.26501 0.0
C1728 C 0.83017 0.13936 0.28073 0.0
C1729 C 0.82484 0.13863 0.29918 0.0
C1730 C 0.83255 0.12403 0.31094 0.0
C1731 C 0.84608 0.1098 0.30369 0.0
C1732 C 0.85188 0.11025 0.28483 0.0
C1733 C 0.84366 0.12523 0.27323 0.0
H1734 H 0.4358 0.0122 0.96369 0.0
H1735 H 0.46599 0.01955 0.01994 0.0
H1736 H 0.44164 0.99297 0.03061 0.0
H1737 H 0.38516 0.00747 0.97775 0.0
H1738 H 0.37565 0.98844 0.95949 0.0
H1739 H 0.39697 1.00607 0.95546 0.0
H1740 H 0.41974 0.9755 0.94729 0.0
H1741 H 0.39838 0.95773 0.95108 0.0
H1742 H 0.42316 0.95577 0.9638 0.0
H1743 H 0.41206 0.96873 0.03604 0.0
H1744 H 0.3797 0.94726 0.0358 0.0
H1745 H 0.36884 0.95447 0.97574 0.0
C1746 C 0.4376 0.00774 0.97809 0.0
C1747 C 0.4528 0.01778 0.991 0.0
C1748 C 0.45442 0.01199 0.00987 0.0
C1749 C 0.44071 0.9969 0.01603 0.0
C1750 C 0.42549 0.98769 1.00313 0.0
C1751 C 0.42393 0.99272 0.98451 0.0
C1752 C 0.40524 0.98149 0.97392 0.0
C1753 C 0.38985 0.99678 0.96621 0.0
C1754 C 0.41204 0.96674 0.95809 0.0
C1755 C 0.39634 0.96977 0.9896 0.0
C1756 C 0.40836 0.97349 1.00628 0.0
C1757 C 0.40273 0.96534 0.02298 0.0
C1758 C 0.38432 0.95303 0.02266 0.0
C1759 C 0.3717 0.94887 1.00572 0.0
C1760 C 0.378 0.95733 0.98897 0.0
H1761 H 0.26807 0.34517 0.31472 0.0
H1762 H 0.26587 0.31121 0.26037 0.0
H1763 H 0.23994 0.33437 0.24775 0.0
H1764 H 0.21286 0.35691 0.31356 0.0
H1765 H 0.21797 0.38247 0.32446 0.0
H1766 H 0.23528 0.36236 0.32976 0.0
H1767 H 0.26628 0.38491 0.31969 0.0
H1768 H 0.24907 0.40506 0.31432 0.0
H1769 H 0.26509 0.39482 0.29654 0.0
H1770 H 0.21548 0.36159 0.24056 0.0
H1771 H 0.19409 0.39184 0.23893 0.0
H1772 H 0.21268 0.4095 0.29753 0.0
C1773 C 0.26184 0.3425 0.30027 0.0
C1774 C 0.2689 0.32642 0.28848 0.0
C1775 C 0.2607 0.32352 0.26956 0.0
C1776 C 0.24593 0.33653 0.2623 0.0
C1777 C 0.23952 0.35245 0.27412 0.0
C1778 C 0.24717 0.35556 0.29269 0.0
C1779 C 0.23835 0.37453 0.30199 0.0
C1780 C 0.22534 0.36871 0.31842 0.0
C1781 C 0.25574 0.39079 0.30851 0.0
C1782 C 0.22474 0.38163 0.28568 0.0
C1783 C 0.22558 0.36855 0.26981 0.0
C1784 C 0.21469 0.37198 0.25288 0.0
C1785 C 0.20271 0.38933 0.25207 0.0
C1786 C 0.20176 0.40321 0.26804 0.0
C1787 C 0.21286 0.39912 0.28511 0.0
H1788 H 0.11611 0.02073 0.44613 0.0
H1789 H 0.09213 0.01693 0.50155 0.0
H1790 H 0.11962 0.04209 0.51474 0.0
H1791 H 0.16963 0.02564 0.46083 0.0
H1792 H 0.17629 0.04411 0.44401 0.0
H1793 H 0.15458 0.02591 0.43867 0.0
H1794 H 0.1303 0.0558 0.4329 0.0
H1795 H 0.15198 0.0741 0.43806 0.0
H1796 H 0.12899 0.07614 0.45101 0.0
H1797 H 0.15068 0.06611 0.52232 0.0
H1798 H 0.18186 0.08938 0.52351 0.0
H1799 H 0.18413 0.08007 0.46275 0.0
C1800 C 0.11638 0.02541 0.46099 0.0
C1801 C 0.10199 0.01659 0.47281 0.0
C1802 C 0.10319 0.02304 0.49223 0.0
C1803 C 0.11868 0.03745 0.49986 0.0
C1804 C 0.13276 0.04554 0.48788 0.0
C1805 C 0.13163 0.03997 0.46883 0.0
C1806 C 0.14868 0.05112 0.45908 0.0
C1807 C 0.16315 0.03578 0.45012 0.0
C1808 C 0.13943 0.06513 0.44439 0.0
C1809 C 0.15969 0.06363 0.47569 0.0
C1810 C 0.15028 0.06009 0.49216 0.0
C1811 C 0.15798 0.0693 0.50946 0.0
C1812 C 0.17568 0.08265 0.50995 0.0
C1813 C 0.18544 0.08695 0.4932 0.0
C1814 C 0.17724 0.07715 0.47586 0.0
H1815 H 0.77256 0.17572 0.75248 0.0
H1816 H 0.77943 0.1708 0.69219 0.0
H1817 H 0.75415 0.14099 0.6889 0.0
H1818 H 0.76861 0.12174 0.759 0.0
H1819 H 0.74941 0.12362 0.77624 0.0
H1820 H 0.76758 0.14499 0.77386 0.0
H1821 H 0.7371 0.16893 0.76846 0.0
H1822 H 0.71882 0.14765 0.77091 0.0
H1823 H 0.71721 0.16198 0.75 0.0
H1824 H 0.72975 0.1107 0.69235 0.0
H1825 H 0.7064 0.08286 0.70194 0.0
H1826 H 0.71387 0.10829 0.75989 0.0
C1827 C 0.76869 0.16837 0.7386 0.0
C1828 C 0.77789 0.17561 0.72257 0.0
C1829 C 0.77236 0.16568 0.70461 0.0
C1830 C 0.75811 0.14867 0.70262 0.0
C1831 C 0.74943 0.14185 0.7187 0.0
C1832 C 0.75436 0.15146 0.73633 0.0
C1833 C 0.74278 0.14099 0.75131 0.0
C1834 C 0.75801 0.13232 0.76596 0.0
C1835 C 0.7281 0.15577 0.76072 0.0
C1836 C 0.73076 0.12386 0.73936 0.0
C1837 C 0.73489 0.12463 0.72062 0.0
C1838 C 0.72614 0.11011 0.70695 0.0
C1839 C 0.71273 0.09441 0.71256 0.0
C1840 C 0.70795 0.09339 0.73168 0.0
C1841 C 0.71719 0.10843 0.74519 0.0
H1842 H 0.43289 0.02789 0.56401 0.0
H1843 H 0.47408 0.03675 0.51904 0.0
H1844 H 0.4528 0.06459 0.50767 0.0
H1845 H 0.38658 0.03424 0.53716 0.0
H1846 H 0.37374 0.04787 0.55549 0.0
H1847 H 0.39335 0.0302 0.56157 0.0
H1848 H 0.41408 0.05904 0.58236 0.0
H1849 H 0.39439 0.07676 0.57652 0.0
H1850 H 0.42112 0.08295 0.5723 0.0
H1851 H 0.42556 0.08882 0.4993 0.0
H1852 H 0.39475 0.10929 0.49512 0.0
H1853 H 0.37112 0.08578 0.54594 0.0
C1854 C 0.43769 0.03612 0.5521 0.0
C1855 C 0.45517 0.03029 0.54244 0.0
C1856 C 0.46073 0.04101 0.52661 0.0
C1857 C 0.44876 0.05684 0.52008 0.0
C1858 C 0.43128 0.06183 0.52954 0.0
C1859 C 0.42581 0.05196 0.54531 0.0
C1860 C 0.40557 0.05959 0.55215 0.0
C1861 C 0.38882 0.04192 0.55155 0.0
C1862 C 0.409 0.07022 0.57201 0.0
C1863 C 0.40037 0.07496 0.53755 0.0
C1864 C 0.4155 0.07605 0.52472 0.0
C1865 C 0.41379 0.08842 0.50946 0.0
C1866 C 0.39622 0.1001 0.50728 0.0
C1867 C 0.3805 0.09947 0.52032 0.0
C1868 C 0.38274 0.08666 0.53567 0.0
H1869 H 0.61058 0.51263 0.57183 0.0
H1870 H 0.57265 0.50787 0.51915 0.0
H1871 H 0.59578 0.48232 0.50609 0.0
H1872 H 0.65915 0.50965 0.55164 0.0
H1873 H 0.67079 0.49446 0.56946 0.0
H1874 H 0.65057 0.51141 0.57526 0.0
H1875 H 0.62896 0.48086 0.58717 0.0
H1876 H 0.64921 0.46384 0.58155 0.0
H1877 H 0.62301 0.45809 0.5718 0.0
H1878 H 0.62395 0.45898 0.49805 0.0
H1879 H 0.65493 0.43858 0.49571 0.0
H1880 H 0.67438 0.45744 0.5539 0.0
C1881 C 0.60695 0.5059 0.55768 0.0
C1882 C 0.58982 0.51225 0.54649 0.0
C1883 C 0.58578 0.50337 0.52791 0.0
C1884 C 0.59878 0.48879 0.5204 0.0
C1885 C 0.61576 0.48317 0.53164 0.0
C1886 C 0.61984 0.49132 0.54992 0.0
C1887 C 0.63957 0.48313 0.55871 0.0
C1888 C 0.65599 0.50071 0.56408 0.0
C1889 C 0.6349 0.47074 0.57582 0.0
C1890 C 0.64601 0.46927 0.54246 0.0
C1891 C 0.63201 0.4695 0.52701 0.0
C1892 C 0.63489 0.45845 0.51013 0.0
C1893 C 0.65252 0.44678 0.50899 0.0
C1894 C 0.66711 0.44614 0.52466 0.0
C1895 C 0.66367 0.4576 0.54161 0.0
H1896 H 0.76283 0.2359 0.35862 0.0
H1897 H 0.77755 0.28168 0.31899 0.0
H1898 H 0.77885 0.30899 0.3446 0.0
H1899 H 0.72911 0.26579 0.38428 0.0
H1900 H 0.73698 0.25703 0.40707 0.0
H1901 H 0.73927 0.24062 0.38616 0.0
H1902 H 0.77846 0.2375 0.39501 0.0
H1903 H 0.77626 0.25376 0.41607 0.0
H1904 H 0.79505 0.26053 0.3995 0.0
H1905 H 0.77593 0.33153 0.37355 0.0
H1906 H 0.77039 0.34809 0.4047 0.0
H1907 H 0.75706 0.28808 0.42601 0.0
C1908 C 0.76682 0.25162 0.3555 0.0
C1909 C 0.77017 0.25674 0.33688 0.0
C1910 C 0.77491 0.27751 0.33318 0.0
C1911 C 0.77571 0.29309 0.34762 0.0
C1912 C 0.77177 0.28767 0.36573 0.0
C1913 C 0.76757 0.26745 0.3698 0.0
C1914 C 0.76285 0.26608 0.39032 0.0
C1915 C 0.74074 0.25683 0.39205 0.0
C1916 C 0.77913 0.25374 0.40085 0.0
C1917 C 0.7647 0.28868 0.39699 0.0
C1918 C 0.76995 0.30082 0.38256 0.0
C1919 C 0.77192 0.3222 0.38501 0.0
C1920 C 0.76854 0.33147 0.40271 0.0
C1921 C 0.76316 0.31942 0.41778 0.0
C1922 C 0.76132 0.2977 0.41483 0.0
H1923 H 0.522 1.00344 0.91529 0.0
H1924 H 0.51918 0.06987 0.9225 0.0
H1925 H 0.5399 0.0738 0.8949 0.0
H1926 H 0.57466 1.00315 0.90124 0.0
H1927 H 0.56964 0.98165 0.88421 0.0
H1928 H 0.55441 0.98393 0.9045 0.0
H1929 H 0.52065 0.98215 0.88267 0.0
H1930 H 0.53578 0.97981 0.86232 0.0
H1931 H 0.51786 1.0001 0.86444 0.0
H1932 H 0.56089 0.07067 0.86661 0.0
H1933 H 0.58087 0.06061 0.83943 0.0
H1934 H 0.57007 0.9962 0.85029 0.0
C1935 C 0.52575 0.01879 0.91101 0.0
C1936 C 0.51901 0.03632 0.92104 0.0
C1937 C 0.5242 0.05619 0.91508 0.0
C1938 C 0.53597 0.0586 0.8994 0.0
C1939 C 0.54244 0.04101 0.88985 0.0
C1940 C 0.53755 0.02148 0.8954 0.0
C1941 C 0.54651 1.00515 0.88267 0.0
C1942 C 0.56224 0.99274 0.89382 0.0
C1943 C 0.52916 0.99097 0.87242 0.0
C1944 C 0.55718 0.01857 0.86911 0.0
C1945 C 0.55461 0.0392 0.8735 0.0
C1946 C 0.56296 0.05456 0.86298 0.0
C1947 C 0.57418 0.04868 0.84751 0.0
C1948 C 0.57699 0.02762 0.84267 0.0
C1949 C 0.56838 0.01243 0.85372 0.0
H1950 H 0.28753 0.29376 0.35263 0.0
H1951 H 0.29924 0.24496 0.31111 0.0
H1952 H 0.29683 0.21949 0.33518 0.0
H1953 H 0.31728 0.27463 0.39065 0.0
H1954 H 0.29982 0.28147 0.40851 0.0
H1955 H 0.30084 0.29602 0.38782 0.0
H1956 H 0.26127 0.28899 0.38061 0.0
H1957 H 0.2601 0.27452 0.40137 0.0
H1958 H 0.25059 0.26283 0.37872 0.0
H1959 H 0.29602 0.19966 0.36365 0.0
H1960 H 0.29494 0.18602 0.39518 0.0
H1961 H 0.28298 0.24684 0.41898 0.0
C1962 C 0.28919 0.27766 0.34861 0.0
C1963 C 0.29373 0.27134 0.33003 0.0
C1964 C 0.29601 0.25016 0.32531 0.0
C1965 C 0.29459 0.23555 0.33886 0.0
C1966 C 0.2907 0.24227 0.35713 0.0
C1967 C 0.28782 0.26274 0.36207 0.0
C1968 C 0.28454 0.26572 0.38299 0.0
C1969 C 0.30164 0.28033 0.39308 0.0
C1970 C 0.26283 0.27347 0.3861 0.0
C1971 C 0.28639 0.2438 0.38896 0.0
C1972 C 0.28993 0.23059 0.37375 0.0
C1973 C 0.29307 0.20979 0.37567 0.0
C1974 C 0.29257 0.20221 0.39364 0.0
C1975 C 0.2889 0.21535 0.40949 0.0
C1976 C 0.2856 0.23641 0.40706 0.0
H1977 H 0.54989 0.51612 0.92363 0.0
H1978 H 0.54337 0.44988 0.92759 0.0
H1979 H 0.51955 0.44721 0.89897 0.0
H1980 H 0.49716 0.52356 0.90664 0.0
H1981 H 0.50449 0.54297 0.89092 0.0
H1982 H 0.52041 0.53975 0.91212 0.0
H1983 H 0.55236 0.53467 0.89238 0.0
H1984 H 0.53655 0.5379 0.87113 0.0
H1985 H 0.55095 0.51501 0.87339 0.0
H1986 H 0.49701 0.45168 0.86951 0.0
H1987 H 0.47722 0.46296 0.84151 0.0
H1988 H 0.4997 0.52611 0.85609 0.0
C1989 C 0.54355 0.50102 0.91846 0.0
C1990 C 0.5485 0.4832 0.92794 0.0
C1991 C 0.53959 0.46379 0.92078 0.0
C1992 C 0.52614 0.4621 0.90446 0.0
C1993 C 0.52174 0.47995 0.89542 0.0
C1994 C 0.53017 0.49904 0.90217 0.0
C1995 C 0.52321 0.5158 0.88965 0.0
C1996 C 0.51056 0.53144 0.90048 0.0
C1997 C 0.54188 0.52647 0.88113 0.0
C1998 C 0.50964 0.50312 0.87473 0.0
C1999 C 0.50896 0.4825 0.87835 0.0
C2000 C 0.49748 0.46779 0.8665 0.0
C2001 C 0.48641 0.47434 0.85055 0.0
C2002 C 0.48694 0.49542 0.84649 0.0
C2003 C 0.49875 0.50993 0.85885 0.0
H2004 H 0.77019 0.79726 0.16194 0.0
H2005 H 0.74689 0.75042 0.1973 0.0
H2006 H 0.74968 0.72394 0.17156 0.0
H2007 H 0.7441 0.77671 0.1188 0.0
H2008 H 0.76523 0.78291 0.1044 0.0
H2009 H 0.76198 0.79828 0.12577 0.0
H2010 H 0.7996 0.79162 0.13783 0.0
H2011 H 0.80299 0.77626 0.11648 0.0
H2012 H 0.80748 0.7655 0.13904 0.0
H2013 H 0.75404 0.70264 0.14197 0.0
H2014 H 0.76026 0.68765 0.11036 0.0
H2015 H 0.78102 0.74798 0.09388 0.0
C2016 C 0.76592 0.7814 0.16434 0.0
C2017 C 0.75818 0.77596 0.18164 0.0
C2018 C 0.75253 0.75504 0.1841 0.0
C2019 C 0.75418 0.73984 0.1696 0.0
C2020 C 0.7616 0.74575 0.15268 0.0
C2021 C 0.76746 0.76598 0.14996 0.0
C2022 C 0.77461 0.76815 0.13024 0.0
C2023 C 0.76064 0.78235 0.11915 0.0
C2024 C 0.79753 0.77584 0.13095 0.0
C2025 C 0.77173 0.746 0.12232 0.0
C2026 C 0.76422 0.73336 0.13554 0.0
C2027 C 0.75994 0.71236 0.1315 0.0
C2028 C 0.76339 0.70402 0.11345 0.0
C2029 C 0.77104 0.71663 0.09959 0.0
C2030 C 0.77536 0.7379 0.1042 0.0
H2031 H 0.0401 0.02017 0.0954 0.0
H2032 H 0.04788 0.08629 0.09132 0.0
H2033 H 0.02677 0.09182 0.11871 0.0
H2034 H 0.98732 0.01944 0.10837 0.0
H2035 H 0.99045 0.99939 0.12458 0.0
H2036 H 1.00641 1.00051 0.10478 0.0
H2037 H 0.03955 1.00149 0.12733 0.0
H2038 H 0.02369 1.00027 0.1472 0.0
H2039 H 0.04306 0.02099 0.14643 0.0
H2040 H 1.00483 0.09029 0.14644 0.0
H2041 H 0.9833 0.08177 0.17261 0.0
H2042 H 0.9899 0.01664 0.15907 0.0
C2043 C 0.03751 0.03581 0.10038 0.0
C2044 C 0.0456 0.0528 0.09115 0.0
C2045 C 0.04162 0.07302 0.09798 0.0
C2046 C 0.02974 0.07633 0.11359 0.0
C2047 C 0.0219 0.05926 0.12227 0.0
C2048 C 0.0256 0.0394 0.11594 0.0
C2049 C 0.01516 0.02377 0.12773 0.0
C2050 C 0.99887 0.00997 0.11564 0.0
C2051 C 0.03133 0.01087 0.13777 0.0
C2052 C 1.005 0.03797 0.14164 0.0
C2053 C 0.00914 0.05838 0.13826 0.0
C2054 C 1.00153 0.07436 0.14926 0.0
C2055 C 0.98939 0.06936 0.16417 0.0
C2056 C 0.98492 0.04855 0.16796 0.0
C2057 C 0.99284 0.03269 0.15644 0.0
H2058 H 0.31495 0.78494 0.1769 0.0
H2059 H 0.31648 0.72363 0.14991 0.0
H2060 H 0.31025 0.7378 0.11878 0.0
H2061 H 0.27326 0.80101 0.1469 0.0
H2062 H 0.28334 0.82723 0.14637 0.0
H2063 H 0.28955 0.81264 0.16651 0.0
H2064 H 0.32882 0.81971 0.16263 0.0
H2065 H 0.32271 0.83437 0.14249 0.0
H2066 H 0.33936 0.813 0.14037 0.0
H2067 H 0.3031 0.7582 0.09079 0.0
H2068 H 0.29445 0.78346 0.0675 0.0
H2069 H 0.29538 0.83155 0.1125 0.0
C2070 C 0.31428 0.77461 0.16437 0.0
C2071 C 0.3163 0.75324 0.16574 0.0
C2072 C 0.31496 0.74006 0.14915 0.0
C2073 C 0.31148 0.74796 0.13141 0.0
C2074 C 0.30922 0.76906 0.13052 0.0
C2075 C 0.31048 0.78223 0.14652 0.0
C2076 C 0.30633 0.8041 0.14163 0.0
C2077 C 0.28697 0.81168 0.1509 0.0
C2078 C 0.32545 0.81865 0.1471 0.0
C2079 C 0.3025 0.8011 0.12039 0.0
C2080 C 0.3044 0.78079 0.11431 0.0
C2081 C 0.30148 0.77415 0.09537 0.0
C2082 C 0.29637 0.78862 0.08226 0.0
C2083 C 0.29398 0.80952 0.0881 0.0
C2084 C 0.29724 0.81577 0.10749 0.0
H2085 H 0.01073 0.51721 0.09449 0.0
H2086 H 0.98338 0.45489 0.0904 0.0
H2087 H 1.00013 0.44872 0.1215 0.0
H2088 H 0.05883 0.50567 0.11441 0.0
H2089 H 0.06277 0.52831 0.13025 0.0
H2090 H 0.04658 0.52908 0.10882 0.0
H2091 H 0.01595 0.54097 0.12785 0.0
H2092 H 0.03217 0.54058 0.14936 0.0
H2093 H 1.00761 0.52604 0.1468 0.0
H2094 H 0.02351 0.44754 0.15039 0.0
H2095 H 0.04951 0.45234 0.17708 0.0
H2096 H 0.06029 0.51631 0.16423 0.0
C2097 C 1.00774 0.50253 0.10048 0.0
C2098 C 0.99573 0.48652 0.0901 0.0
C2099 C 0.99256 0.46733 0.09814 0.0
C2100 C 1.00199 0.46368 0.11579 0.0
C2101 C 0.01441 0.47946 0.12535 0.0
C2102 C 0.01705 0.49864 0.11819 0.0
C2103 C 0.03218 0.51246 0.13096 0.0
C2104 C 0.05121 0.51928 0.12048 0.0
C2105 C 0.02132 0.53112 0.13924 0.0
C2106 C 0.03801 0.49786 0.14607 0.0
C2107 C 0.02755 0.47894 0.14252 0.0
C2108 C 0.03139 0.46247 0.15364 0.0
C2109 C 0.04618 0.46544 0.16892 0.0
C2110 C 0.05692 0.48483 0.17321 0.0
C2111 C 0.05258 0.50123 0.16151 0.0
H2112 H 0.35515 0.73819 0.24504 0.0
H2113 H 0.34148 0.67342 0.25316 0.0
H2114 H 0.371 0.67373 0.27661 0.0
H2115 H 0.41136 0.73446 0.24812 0.0
H2116 H 0.41626 0.7595 0.26015 0.0
H2117 H 0.39359 0.75456 0.24417 0.0
H2118 H 0.37017 0.76606 0.27067 0.0
H2119 H 0.39275 0.77098 0.28674 0.0
H2120 H 0.37184 0.75375 0.29271 0.0
H2121 H 0.40085 0.68101 0.30011 0.0
H2122 H 0.4313 0.69447 0.32069 0.0
H2123 H 0.42797 0.75356 0.29586 0.0
C2124 C 0.35844 0.72401 0.25159 0.0
C2125 C 0.34555 0.7059 0.24743 0.0
C2126 C 0.35055 0.68772 0.25646 0.0
C2127 C 0.36746 0.68764 0.26972 0.0
C2128 C 0.37958 0.70576 0.27365 0.0
C2129 C 0.37552 0.72355 0.26472 0.0
C2130 C 0.3914 0.74078 0.27136 0.0
C2131 C 0.40389 0.74773 0.25497 0.0
C2132 C 0.38091 0.75896 0.28094 0.0
C2133 C 0.40485 0.72987 0.2855 0.0
C2134 C 0.39759 0.70971 0.28667 0.0
C2135 C 0.40683 0.6967 0.29922 0.0
C2136 C 0.42402 0.70446 0.31087 0.0
C2137 C 0.43193 0.72493 0.30971 0.0
C2138 C 0.42229 0.73776 0.2968 0.0
H2139 H 0.99298 0.43338 0.99206 0.0
H2140 H 0.0393 0.41961 0.0357 0.0
H2141 H 0.04569 0.38702 0.0181 0.0
H2142 H 0.97235 0.38101 0.98086 0.0
H2143 H 0.96926 0.38394 0.95585 0.0
H2144 H 0.96757 0.40592 0.97214 0.0
H2145 H 0.99653 0.42544 0.95571 0.0
H2146 H 0.99831 0.40352 0.93938 0.0
H2147 H 0.02112 0.4139 0.95321 0.0
H2148 H 0.04708 0.35613 0.99633 0.0
H2149 H 0.04489 0.32919 0.97039 0.0
H2150 H 0.99876 0.36304 0.93977 0.0
C2151 C 1.00436 0.42341 0.99791 0.0
C2152 C 0.01559 0.42886 0.0153 0.0
C2153 C 0.03055 0.41562 0.02241 0.0
C2154 C 0.03425 0.39708 0.01255 0.0
C2155 C 0.02301 0.3921 0.99546 0.0
C2156 C 1.00849 0.40489 0.98806 0.0
C2157 C 0.99922 0.39608 0.969 0.0
C2158 C 0.9757 0.39146 0.9695 0.0
C2159 C 1.00409 0.4106 0.95341 0.0
C2160 C 0.01079 0.37639 0.96696 0.0
C2161 C 0.02428 0.37438 0.98249 0.0
C2162 C 0.03657 0.35748 0.98407 0.0
C2163 C 0.03513 0.34222 0.96932 0.0
C2164 C 0.02161 0.34398 0.95313 0.0
C2165 C 0.00931 0.36135 0.95195 0.0
H2166 H 0.68972 0.78554 0.25393 0.0
H2167 H 0.68957 0.85225 0.25947 0.0
H2168 H 0.66193 0.84998 0.28177 0.0
H2169 H 0.63421 0.77594 0.25613 0.0
H2170 H 0.63668 0.75361 0.26977 0.0
H2171 H 0.65634 0.76028 0.254 0.0
H2172 H 0.68451 0.76101 0.28159 0.0
H2173 H 0.66494 0.75434 0.29744 0.0
H2174 H 0.68165 0.77718 0.3026 0.0
H2175 H 0.63459 0.84086 0.30315 0.0
H2176 H 0.60897 0.82539 0.32296 0.0
H2177 H 0.62694 0.76433 0.30464 0.0
C2178 C 0.68378 0.79964 0.25978 0.0
C2179 C 0.69168 0.81913 0.25494 0.0
C2180 C 0.68365 0.83721 0.26298 0.0
C2181 C 0.66797 0.83608 0.27564 0.0
C2182 C 0.66051 0.81671 0.28017 0.0
C2183 C 0.6681 0.79878 0.27255 0.0
C2184 C 0.65738 0.77999 0.28007 0.0
C2185 C 0.64544 0.76667 0.26404 0.0
C2186 C 0.67306 0.76739 0.29108 0.0
C2187 C 0.64264 0.79021 0.29308 0.0
C2188 C 0.64475 0.8114 0.29285 0.0
C2189 C 0.63287 0.82428 0.30357 0.0
C2190 C 0.61845 0.81532 0.31491 0.0
C2191 C 0.61604 0.79362 0.3156 0.0
C2192 C 0.62831 0.78095 0.3044 0.0
H2193 H 0.06106 0.10777 0.01176 0.0
H2194 H 0.06578 0.0563 0.97105 0.0
H2195 H 0.06044 0.07946 0.94505 0.0
H2196 H 0.02157 0.13372 0.98563 0.0
H2197 H 0.03266 0.1592 0.99237 0.0
H2198 H 0.03653 0.13857 0.00781 0.0
H2199 H 0.07637 0.14544 0.008 0.0
H2200 H 0.07262 0.16607 0.99255 0.0
H2201 H 0.08868 0.14526 0.98597 0.0
H2202 H 0.05375 0.10778 0.92357 0.0
H2203 H 0.04781 0.14 0.90779 0.0
H2204 H 0.04886 0.1736 0.96227 0.0
C2205 C 0.06089 0.10139 0.99737 0.0
C2206 C 0.06366 0.08021 0.99333 0.0
C2207 C 0.0636 0.07247 0.97437 0.0
C2208 C 0.06057 0.08549 0.95954 0.0
C2209 C 0.05784 0.10627 0.96394 0.0
C2210 C 0.05812 0.11424 0.98237 0.0
C2211 C 0.05522 0.13726 0.98317 0.0
C2212 C 0.03531 0.14249 0.99281 0.0
C2213 C 0.07437 0.14921 0.993 0.0
C2214 C 0.05319 0.14093 0.96231 0.0
C2215 C 0.05461 0.12279 0.95149 0.0
C2216 C 0.0527 0.1221 0.93188 0.0
C2217 C 0.04925 0.14043 0.92305 0.0
C2218 C 0.04793 0.15924 0.93381 0.0
C2219 C 0.05003 0.15946 0.9537 0.0
H2220 H 0.36413 0.30142 0.25385 0.0
H2221 H 0.36055 0.2373 0.26746 0.0
H2222 H 0.38878 0.22998 0.24667 0.0
H2223 H 0.37445 0.29214 0.20484 0.0
H2224 H 0.3924 0.31412 0.20446 0.0
H2225 H 0.37184 0.31456 0.22043 0.0
H2226 H 0.39886 0.32277 0.2486 0.0
H2227 H 0.4195 0.3224 0.23271 0.0
H2228 H 0.41999 0.30599 0.25225 0.0
H2229 H 0.41686 0.22929 0.22455 0.0
H2230 H 0.44396 0.23531 0.20243 0.0
H2231 H 0.43039 0.30006 0.20317 0.0
C2232 C 0.36931 0.28587 0.25243 0.0
C2233 C 0.36016 0.26985 0.26222 0.0
C2234 C 0.36737 0.24973 0.26005 0.0
C2235 C 0.38337 0.24542 0.24828 0.0
C2236 C 0.39205 0.26144 0.23877 0.0
C2237 C 0.38537 0.28127 0.24069 0.0
C2238 C 0.39757 0.29559 0.22885 0.0
C2239 C 0.3832 0.30463 0.21375 0.0
C2240 C 0.4097 0.3127 0.24136 0.0
C2241 C 0.41209 0.28067 0.22005 0.0
C2242 C 0.40856 0.26107 0.22599 0.0
C2243 C 0.41989 0.24459 0.21987 0.0
C2244 C 0.43537 0.24822 0.20739 0.0
C2245 C 0.43951 0.2682 0.20117 0.0
C2246 C 0.42756 0.28459 0.20756 0.0
H2247 H 0.56214 0.4253 1.00574 0.0
H2248 H 0.58279 0.47362 0.04817 0.0
H2249 H 0.57534 0.45015 0.07326 0.0
H2250 H 0.52039 0.40326 0.0306 0.0
H2251 H 0.52499 0.37707 0.02304 0.0
H2252 H 0.53157 0.39775 0.0084 0.0
H2253 H 0.56938 0.38613 0.0082 0.0
H2254 H 0.56292 0.36541 0.02283 0.0
H2255 H 0.58407 0.38369 0.03027 0.0
H2256 H 0.56515 0.42177 0.09366 0.0
H2257 H 0.55461 0.38967 0.10815 0.0
H2258 H 0.54156 0.35931 0.05254 0.0
C2259 C 0.56501 0.43095 0.02031 0.0
C2260 C 0.5729 0.45133 0.0251 0.0
C2261 C 0.5767 0.45808 0.04428 0.0
C2262 C 0.57249 0.44488 0.0586 0.0
C2263 C 0.56467 0.42491 0.05346 0.0
C2264 C 0.5611 0.41789 0.0348 0.0
C2265 C 0.55311 0.39554 0.03314 0.0
C2266 C 0.53121 0.39328 0.02321 0.0
C2267 C 0.56828 0.38189 0.02301 0.0
C2268 C 0.55268 0.39114 0.05379 0.0
C2269 C 0.55927 0.40834 0.06525 0.0
C2270 C 0.55998 0.40818 0.08483 0.0
C2271 C 0.55386 0.38993 0.09293 0.0
C2272 C 0.54725 0.37203 0.08148 0.0
C2273 C 0.5467 0.37271 0.06164 0.0
H2274 H 0.69305 0.20257 0.23992 0.0
H2275 H 0.72531 0.26247 0.2506 0.0
H2276 H 0.69978 0.27759 0.22902 0.0
H2277 H 0.67766 0.20837 0.18988 0.0
H2278 H 0.65261 0.19531 0.19118 0.0
H2279 H 0.67435 0.18867 0.20637 0.0
H2280 H 0.65324 0.19598 0.23557 0.0
H2281 H 0.63149 0.20268 0.2205 0.0
H2282 H 0.64222 0.22073 0.23911 0.0
H2283 H 0.66999 0.28679 0.20794 0.0
H2284 H 0.63752 0.28951 0.18833 0.0
H2285 H 0.62376 0.22394 0.19138 0.0
C2286 C 0.69486 0.21879 0.23744 0.0
C2287 C 0.71113 0.23133 0.24691 0.0
C2288 C 0.71293 0.25256 0.24355 0.0
C2289 C 0.69854 0.2613 0.23126 0.0
C2290 C 0.68245 0.24863 0.2224 0.0
C2291 C 0.68051 0.22782 0.22525 0.0
C2292 C 0.66113 0.21795 0.21463 0.0
C2293 C 0.66678 0.20161 0.19962 0.0
C2294 C 0.64614 0.2088 0.22827 0.0
C2295 C 0.65238 0.23653 0.20564 0.0
C2296 C 0.66503 0.25402 0.21024 0.0
C2297 C 0.65998 0.2732 0.20415 0.0
C2298 C 0.64144 0.27461 0.19314 0.0
C2299 C 0.62806 0.25697 0.18836 0.0
C2300 C 0.63378 0.23765 0.19459 0.0
H2301 H 0.51076 0.09673 1.00679 0.0
H2302 H 0.44344 0.09054 1.00302 0.0
H2303 H 0.44215 0.1226 0.02313 0.0
H2304 H 0.51633 0.11511 0.05513 0.0
H2305 H 0.53803 0.13282 0.05224 0.0
H2306 H 0.53374 0.10993 0.0368 0.0
H2307 H 0.53302 0.13215 0.00776 0.0
H2308 H 0.53741 0.15512 0.02311 0.0
H2309 H 0.51525 0.15263 1.00631 0.0
H2310 H 0.44807 0.1548 0.04392 0.0
H2311 H 0.46083 0.18492 0.06475 0.0
H2312 H 0.52441 0.17018 0.0555 0.0
C2313 C 0.49578 0.1023 0.01004 0.0
C2314 C 0.47718 0.09123 1.00337 0.0
C2315 C 0.45785 0.09876 0.00812 0.0
C2316 C 0.45696 0.11697 0.01945 0.0
C2317 C 0.47556 0.12742 0.02598 0.0
C2318 C 0.49462 0.12038 0.0215 0.0
C2319 C 0.51227 0.1342 0.03091 0.0
C2320 C 0.52589 0.1223 0.04458 0.0
C2321 C 0.52525 0.14411 0.01614 0.0
C2322 C 0.50014 0.15005 0.0414 0.0
C2323 C 0.47899 0.14589 0.03825 0.0
C2324 C 0.46459 0.15828 0.04643 0.0
C2325 C 0.47199 0.17541 0.05817 0.0
C2326 C 0.4936 0.17995 0.06169 0.0
C2327 C 0.50781 0.16703 0.05318 0.0
H2328 H 0.28564 0.35117 0.73562 0.0
H2329 H 0.25252 0.37024 0.68523 0.0
H2330 H 0.27285 0.40345 0.68814 0.0
H2331 H 0.29128 0.40263 0.76102 0.0
H2332 H 0.31707 0.39842 0.77073 0.0
H2333 H 0.29852 0.37695 0.7658 0.0
H2334 H 0.32445 0.35879 0.74491 0.0
H2335 H 0.343 0.38024 0.74964 0.0
H2336 H 0.33472 0.37194 0.72566 0.0
H2337 H 0.29821 0.4332 0.69493 0.0
H2338 H 0.32664 0.4585 0.70578 0.0
H2339 H 0.34412 0.42032 0.75161 0.0
C2340 C 0.28238 0.36259 0.72551 0.0
C2341 C 0.26747 0.35828 0.71025 0.0
C2342 C 0.2639 0.37333 0.69701 0.0
C2343 C 0.27533 0.39221 0.69856 0.0
C2344 C 0.29029 0.39583 0.71346 0.0
C2345 C 0.29381 0.38154 0.72679 0.0
C2346 C 0.31167 0.38893 0.74077 0.0
C2347 C 0.30418 0.39191 0.76077 0.0
C2348 C 0.32951 0.37409 0.7402 0.0
C2349 C 0.31779 0.4094 0.73302 0.0
C2350 C 0.30517 0.41307 0.71732 0.0
C2351 C 0.30814 0.43058 0.70728 0.0
C2352 C 0.32445 0.44477 0.71346 0.0
C2353 C 0.33765 0.44139 0.72951 0.0
C2354 C 0.33415 0.42347 0.73943 0.0
H2355 H 0.27498 0.67074 0.79158 0.0
H2356 H 0.31791 0.72207 0.81068 0.0
H2357 H 0.34738 0.6999 0.80622 0.0
H2358 H 0.30412 0.63057 0.81232 0.0
H2359 H 0.29782 0.61218 0.79266 0.0
H2360 H 0.28005 0.63181 0.79827 0.0
H2361 H 0.28075 0.64384 0.76426 0.0
H2362 H 0.29855 0.62428 0.75856 0.0
H2363 H 0.3053 0.6509 0.75508 0.0
H2364 H 0.3723 0.67252 0.79849 0.0
H2365 H 0.39079 0.64168 0.78892 0.0
H2366 H 0.33168 0.60849 0.77382 0.0
C2367 C 0.29057 0.67736 0.79484 0.0
C2368 C 0.29405 0.6982 0.80158 0.0
C2369 C 0.31475 0.70611 0.80583 0.0
C2370 C 0.33163 0.69366 0.8032 0.0
C2371 C 0.32761 0.67331 0.79631 0.0
C2372 C 0.30759 0.66518 0.79224 0.0
C2373 C 0.30754 0.64294 0.78462 0.0
C2374 C 0.29674 0.62853 0.79776 0.0
C2375 C 0.29744 0.64035 0.76443 0.0
C2376 C 0.33067 0.63987 0.78494 0.0
C2377 C 0.34197 0.65758 0.79174 0.0
C2378 C 0.36361 0.65858 0.79315 0.0
C2379 C 0.37398 0.64101 0.78753 0.0
C2380 C 0.36274 0.62263 0.78054 0.0
C2381 C 0.34076 0.62218 0.77928 0.0
H2382 H 0.92952 0.51565 0.46678 0.0
H2383 H 0.96837 0.50837 0.51761 0.0
H2384 H 0.94318 0.48193 0.52724 0.0
H2385 H 0.8819 0.5122 0.48787 0.0
H2386 H 0.86767 0.49804 0.46831 0.0
H2387 H 0.88969 0.51478 0.46422 0.0
H2388 H 0.90694 0.48448 0.44713 0.0
H2389 H 0.88484 0.46767 0.45098 0.0
H2390 H 0.91058 0.46104 0.45894 0.0
H2391 H 0.91285 0.45865 0.53265 0.0
H2392 H 0.87942 0.43901 0.53325 0.0
H2393 H 0.85989 0.4609 0.47878 0.0
C2394 C 0.93289 0.50808 0.47968 0.0
C2395 C 0.95087 0.51389 0.49144 0.0
C2396 C 0.95463 0.50407 0.50846 0.0
C2397 C 0.94046 0.48904 0.51401 0.0
C2398 C 0.9226 0.48401 0.50238 0.0
C2399 C 0.91878 0.49311 0.48552 0.0
C2400 C 0.89777 0.48573 0.47625 0.0
C2401 C 0.88342 0.50376 0.47404 0.0
C2402 C 0.90018 0.47403 0.4572 0.0
C2403 C 0.89028 0.47136 0.49069 0.0
C2404 C 0.90493 0.47053 0.50557 0.0
C2405 C 0.90136 0.45891 0.52095 0.0
C2406 C 0.88233 0.44773 0.52112 0.0
C2407 C 0.86705 0.44822 0.50599 0.0
C2408 C 0.87118 0.46024 0.49059 0.0
H2409 H 0.75335 0.83239 0.80321 0.0
H2410 H 0.81183 0.85921 0.78679 0.0
H2411 H 0.79386 0.88925 0.77582 0.0
H2412 H 0.72123 0.84933 0.76453 0.0
H2413 H 0.6996 0.85493 0.77848 0.0
H2414 H 0.7169 0.83529 0.78514 0.0
H2415 H 0.72397 0.85374 0.81828 0.0
H2416 H 0.7066 0.87336 0.81176 0.0
H2417 H 0.73296 0.88045 0.82033 0.0
H2418 H 0.77 0.91621 0.76646 0.0
H2419 H 0.74156 0.93925 0.76002 0.0
H2420 H 0.69819 0.89587 0.78293 0.0
C2421 C 0.76237 0.84465 0.79742 0.0
C2422 C 0.784 0.8433 0.79568 0.0
C2423 C 0.79521 0.85966 0.78794 0.0
C2424 C 0.78516 0.87686 0.78174 0.0
C2425 C 0.76386 0.8776 0.78342 0.0
C2426 C 0.75255 0.86202 0.79113 0.0
C2427 C 0.72978 0.86685 0.79134 0.0
C2428 C 0.71607 0.85063 0.77914 0.0
C2429 C 0.72293 0.86872 0.81163 0.0
C2430 C 0.73013 0.88755 0.78255 0.0
C2431 C 0.74998 0.89338 0.7781 0.0
C2432 C 0.7544 0.91187 0.76996 0.0
C2433 C 0.73814 0.9249 0.76643 0.0
C2434 C 0.71765 0.91947 0.77108 0.0
C2435 C 0.71363 0.9004 0.77909 0.0
H2436 H 0.61456 0.52475 0.99032 0.0
H2437 H 0.62074 0.50348 0.93212 0.0
H2438 H 0.65225 0.52615 0.93127 0.0
H2439 H 0.63141 0.57728 0.98582 0.0
H2440 H 0.64556 0.58017 0.00852 0.0
H2441 H 0.62349 0.56213 1.00477 0.0
H2442 H 0.64622 0.53272 0.0156 0.0
H2443 H 0.66834 0.55069 0.01948 0.0
H2444 H 0.66978 0.52785 1.00416 0.0
H2445 H 0.68259 0.5514 0.93635 0.0
H2446 H 0.71042 0.57727 0.94726 0.0
H2447 H 0.68562 0.58153 1.00258 0.0
C2448 C 0.62266 0.52472 0.97746 0.0
C2449 C 0.61504 0.51244 0.96123 0.0
C2450 C 0.62602 0.51301 0.94463 0.0
C2451 C 0.64402 0.52574 0.94403 0.0
C2452 C 0.65096 0.53779 0.96017 0.0
C2453 C 0.64072 0.53736 0.97661 0.0
C2454 C 0.65152 0.55194 0.99193 0.0
C2455 C 0.63713 0.56888 0.99812 0.0
C2456 C 0.65944 0.54009 0.00879 0.0
C2457 C 0.66937 0.56066 0.98148 0.0
C2458 C 0.66871 0.55226 0.96318 0.0
C2459 C 0.68337 0.55798 0.95069 0.0
C2460 C 0.69922 0.57261 0.95708 0.0
C2461 C 0.70039 0.58137 0.97584 0.0
C2462 C 0.68513 0.57528 0.98813 0.0
H2463 H 0.29248 0.65267 0.23887 0.0
H2464 H 0.25151 0.69567 0.21315 0.0
H2465 H 0.22157 0.67148 0.21619 0.0
H2466 H 0.26702 0.60658 0.21812 0.0
H2467 H 0.27053 0.59219 0.23885 0.0
H2468 H 0.28887 0.61288 0.23478 0.0
H2469 H 0.28278 0.63049 0.2674 0.0
H2470 H 0.26454 0.60976 0.27164 0.0
H2471 H 0.25673 0.636 0.27312 0.0
H2472 H 0.19634 0.64222 0.22088 0.0
H2473 H 0.17706 0.61058 0.22832 0.0
H2474 H 0.23397 0.58752 0.25312 0.0
C2475 C 0.27719 0.65718 0.23412 0.0
C2476 C 0.27443 0.67609 0.22565 0.0
C2477 C 0.25413 0.68116 0.21937 0.0
C2478 C 0.23699 0.66757 0.22114 0.0
C2479 C 0.24033 0.64903 0.22937 0.0
C2480 C 0.25987 0.64388 0.23592 0.0
C2481 C 0.25915 0.623 0.24428 0.0
C2482 C 0.27216 0.60776 0.23335 0.0
C2483 C 0.26622 0.62494 0.26536 0.0
C2484 C 0.23615 0.61715 0.24128 0.0
C2485 C 0.22562 0.63237 0.2326 0.0
C2486 C 0.20436 0.63032 0.22792 0.0
C2487 C 0.19351 0.6123 0.23236 0.0
C2488 C 0.20386 0.59656 0.24158 0.0
C2489 C 0.22553 0.59912 0.246 0.0
H2490 H 0.93856 0.52461 0.06183 0.0
H2491 H 0.97582 0.52775 0.0133 0.0
H2492 H 0.9543 0.55499 1.00124 0.0
H2493 H 0.88993 0.53191 0.03788 0.0
H2494 H 0.8802 0.54777 0.05662 0.0
H2495 H 0.89899 0.52902 0.062 0.0
H2496 H 0.92343 0.55754 0.0795 0.0
H2497 H 0.90464 0.57637 0.07429 0.0
H2498 H 0.93089 0.58005 0.06744 0.0
H2499 H 0.92779 0.58046 0.99349 0.0
H2500 H 0.89865 0.60338 0.991 0.0
H2501 H 0.87941 0.58535 0.04534 0.0
C2502 C 0.94241 0.53125 0.04883 0.0
C2503 C 0.95883 0.52387 0.03846 0.0
C2504 C 0.96313 0.53284 0.02136 0.0
C2505 C 0.95107 0.54843 0.01443 0.0
C2506 C 0.93482 0.55508 0.02481 0.0
C2507 C 0.93054 0.54692 0.04171 0.0
C2508 C 0.91189 0.55664 0.04987 0.0
C2509 C 0.89421 0.54036 0.05169 0.0
C2510 C 0.91809 0.56835 0.0689 0.0
C2511 C 0.90624 0.57131 0.03479 0.0
C2512 C 0.9197 0.57017 0.02049 0.0
C2513 C 0.91731 0.58173 1.00473 0.0
C2514 C 0.90074 0.59485 1.00353 0.0
C2515 C 0.88672 0.59648 0.01805 0.0
C2516 C 0.88967 0.58449 0.0339 0.0
H2517 H 0.09723 1.00625 0.02969 0.0
H2518 H 0.11399 0.02735 0.08782 0.0
H2519 H 0.14407 1.00534 0.08805 0.0
H2520 H 0.11239 0.95339 0.03361 0.0
H2521 H 0.12237 0.95163 0.01052 0.0
H2522 H 0.10153 0.96828 0.01517 0.0
H2523 H 0.12318 0.9992 1.00398 0.0
H2524 H 0.14409 0.98267 0.99932 0.0
H2525 H 0.14884 1.00551 0.01481 0.0
H2526 H 0.17338 0.98265 0.08153 0.0
H2527 H 0.19938 0.95981 0.069 0.0
H2528 H 0.16383 0.95324 0.01506 0.0
C2529 C 0.1072 1.0062 0.04249 0.0
C2530 C 0.10315 0.01848 0.05878 0.0
C2531 C 0.11652 0.01785 0.07527 0.0
C2532 C 0.13374 1.00548 0.07551 0.0
C2533 C 0.13737 0.99374 0.05917 0.0
C2534 C 0.12443 0.99388 0.04299 0.0
C2535 C 0.13209 0.98011 0.02723 0.0
C2536 C 0.11614 0.96229 0.02129 0.0
C2537 C 0.13736 0.99262 0.01034 0.0
C2538 C 0.1515 0.97239 0.03703 0.0
C2539 C 0.15423 0.98047 0.05544 0.0
C2540 C 0.17135 0.97615 0.06717 0.0
C2541 C 0.18609 0.96326 0.05989 0.0
C2542 C 0.18365 0.95476 0.04106 0.0
C2543 C 0.166 0.95932 0.02957 0.0
loop_
_geom_bond_atom_site_label_1
_geom_bond_atom_site_label_2
_geom_bond_distance
_geom_bond_site_symmetry_2
_ccdc_geom_bond_type
H0 C5 0.930 . S
H1 C8 0.930 . S
H2 C10 0.930 . S
H3 C4 0.997 1_556 S
C4 H3 0.997 1_554 S
C4 N11 1.322 . S
C5 H0 0.930 . S
C5 C6 1.397 . S
C5 C7 1.361 . S
C6 C5 1.397 . S
C6 C10 1.390 . S
C7 C5 1.361 . S
C7 C8 1.393 . S
C7 N11 1.413 . S
C8 H1 0.930 . S
C8 C7 1.393 . S
C8 C9 1.399 . S
C9 C8 1.399 . S
C9 C10 1.381 . S
C10 H2 0.930 . S
C10 C6 1.390 . S
C10 C9 1.381 . S
N11 C4 1.322 . S
N11 C7 1.413 . S
H12 C17 0.930 . S
H13 C20 0.930 . S
H14 C22 0.930 . S
H15 C16 1.016 . S
C16 H15 1.016 . S
C16 N23 1.286 . S
C17 H12 0.930 . S
C17 C18 1.397 . S
C17 C19 1.361 . S
C18 C17 1.397 . S
C18 C22 1.390 . S
C19 C17 1.361 . S
C19 C20 1.393 . S
C19 N23 1.413 . S
C20 H13 0.930 . S
C20 C19 1.393 . S
C20 C21 1.399 . S
C21 C20 1.399 . S
C21 C22 1.381 . S
C22 H14 0.930 . S
C22 C18 1.390 . S
C22 C21 1.381 . S
N23 C16 1.286 . S
N23 C19 1.413 . S
H24 C29 0.930 . S
H25 C32 0.930 . S
H26 C34 0.930 . S
H27 C28 1.016 1_455 S
C28 H27 1.016 1_655 S
C28 N35 1.286 . S
C29 H24 0.930 . S
C29 C30 1.397 . S
C29 C31 1.361 . S
C30 C29 1.397 . S
C30 C34 1.390 . S
C31 C29 1.361 . S
C31 C32 1.393 . S
C31 N35 1.413 . S
C32 H25 0.930 . S
C32 C31 1.393 . S
C32 C33 1.399 . S
C33 C32 1.399 . S
C33 C34 1.381 . S
C34 H26 0.930 . S
C34 C30 1.390 . S
C34 C33 1.381 . S
N35 C28 1.286 . S
N35 C31 1.413 . S
H36 C41 0.930 . S
H37 C44 0.930 . S
H38 C46 0.930 . S
H39 C40 1.016 . S
C40 H39 1.016 . S
C40 N47 1.286 . S
C41 H36 0.930 . S
C41 C42 1.397 . S
C41 C43 1.361 . S
C42 C41 1.397 . S
C42 C46 1.390 . S
C43 C41 1.361 . S
C43 C44 1.393 . S
C43 N47 1.413 . S
C44 H37 0.930 . S
C44 C43 1.393 . S
C44 C45 1.399 . S
C45 C44 1.399 . S
C45 C46 1.381 . S
C46 H38 0.930 . S
C46 C42 1.390 . S
C46 C45 1.381 . S
N47 C40 1.286 . S
N47 C43 1.413 . S
H48 C53 0.930 . S
H49 C56 0.930 . S
H50 C58 0.930 1_545 S
H51 C52 1.016 . S
C52 H51 1.016 . S
C52 N59 1.286 . S
C53 H48 0.930 . S
C53 C54 1.397 . S
C53 C55 1.361 . S
C54 C53 1.397 . S
C54 C58 1.390 . S
C55 C53 1.361 . S
C55 C56 1.393 . S
C55 N59 1.413 . S
C56 H49 0.930 . S
C56 C55 1.393 . S
C56 C57 1.399 . S
C57 C56 1.399 . S
C57 C58 1.381 . S
C58 H50 0.930 1_565 S
C58 C54 1.390 . S
C58 C57 1.381 . S
N59 C52 1.286 . S
N59 C55 1.413 . S
H60 C65 0.930 . S
H61 C68 0.930 . S
H62 C70 0.930 . S
H63 C64 1.016 . S
C64 H63 1.016 . S
C64 N71 1.286 . S
C65 H60 0.930 . S
C65 C66 1.397 . S
C65 C67 1.361 . S
C66 C65 1.397 . S
C66 C70 1.390 . S
C67 C65 1.361 . S
C67 C68 1.393 . S
C67 N71 1.413 . S
C68 H61 0.930 . S
C68 C67 1.393 . S
C68 C69 1.399 . S
C69 C68 1.399 . S
C69 C70 1.381 . S
C70 H62 0.930 . S
C70 C66 1.390 . S
C70 C69 1.381 . S
N71 C64 1.286 . S
N71 C67 1.413 . S
H72 C77 0.902 1_455 S
H73 C80 0.930 . S
H74 C82 0.930 . S
H75 C76 1.016 . S
C76 H75 1.016 . S
C76 N83 1.286 . S
C77 H72 0.902 1_655 S
C77 C78 1.422 . S
C77 C79 1.365 . S
C78 C77 1.422 . S
C78 C82 1.390 . S
C79 C77 1.365 . S
C79 C80 1.393 . S
C79 N83 1.413 1_655 S
C80 H73 0.930 . S
C80 C79 1.393 . S
C80 C81 1.399 . S
C81 C80 1.399 . S
C81 C82 1.381 . S
C82 H74 0.930 . S
C82 C78 1.390 . S
C82 C81 1.381 . S
N83 C76 1.286 . S
N83 C79 1.413 1_455 S
H84 C89 0.930 . S
H85 C92 0.930 . S
H86 C94 0.930 . S
H87 C88 1.016 . S
C88 H87 1.016 . S
C88 N95 1.286 . S
C89 H84 0.930 . S
C89 C90 1.397 . S
C89 C91 1.361 . S
C90 C89 1.397 . S
C90 C94 1.390 . S
C91 C89 1.361 . S
C91 C92 1.393 . S
C91 N95 1.413 . S
C92 H85 0.930 . S
C92 C91 1.393 . S
C92 C93 1.399 . S
C93 C92 1.399 . S
C93 C94 1.381 . S
C94 H86 0.930 . S
C94 C90 1.390 . S
C94 C93 1.381 . S
N95 C88 1.286 . S
N95 C91 1.413 . S
H96 C101 0.930 . S
H97 C104 0.930 . S
H98 C106 0.930 . S
H99 C100 1.016 . S
C100 H99 1.016 . S
C100 N107 1.286 . S
C101 H96 0.930 . S
C101 C102 1.397 . S
C101 C103 1.361 . S
C102 C101 1.397 . S
C102 C106 1.390 . S
C103 C101 1.361 . S
C103 C104 1.393 . S
C103 N107 1.413 . S
C104 H97 0.930 . S
C104 C103 1.393 . S
C104 C105 1.399 . S
C105 C104 1.399 . S
C105 C106 1.381 . S
C106 H98 0.930 . S
C106 C102 1.390 . S
C106 C105 1.381 . S
N107 C100 1.286 . S
N107 C103 1.413 . S
H108 C113 0.930 . S
H109 C116 0.930 . S
H110 C118 0.906 1_545 S
H111 C112 1.016 . S
C112 H111 1.016 . S
C112 N119 1.286 . S
C113 H108 0.930 . S
C113 C114 1.397 . S
C113 C115 1.361 . S
C114 C113 1.397 . S
C114 C118 1.391 . S
C115 C113 1.361 . S
C115 C116 1.393 . S
C115 N119 1.413 . S
C116 H109 0.930 . S
C116 C115 1.393 . S
C116 C117 1.399 . S
C117 C116 1.399 . S
C117 C118 1.406 . S
C118 H110 0.906 1_565 S
C118 C114 1.391 . S
C118 C117 1.406 . S
N119 C112 1.286 . S
N119 C115 1.413 . S
H120 C125 0.930 . S
H121 C128 0.930 . S
H122 C130 0.930 . S
H123 C124 1.016 . S
C124 H123 1.016 . S
C124 N131 1.286 . S
C125 H120 0.930 . S
C125 C126 1.397 . S
C125 C127 1.361 . S
C126 C125 1.397 . S
C126 C130 1.390 . S
C127 C125 1.361 . S
C127 C128 1.393 . S
C127 N131 1.413 . S
C128 H121 0.930 . S
C128 C127 1.393 . S
C128 C129 1.399 . S
C129 C128 1.399 . S
C129 C130 1.381 . S
C130 H122 0.930 . S
C130 C126 1.390 . S
C130 C129 1.381 . S
N131 C124 1.286 . S
N131 C127 1.413 . S
H132 C137 0.930 . S
H133 C140 0.930 . S
H134 C142 0.930 . S
H135 C136 1.016 . S
C136 H135 1.016 . S
C136 N143 1.286 . S
C137 H132 0.930 . S
C137 C138 1.397 . S
C137 C139 1.361 . S
C138 C137 1.397 . S
C138 C142 1.390 . S
C139 C137 1.361 . S
C139 C140 1.393 . S
C139 N143 1.413 . S
C140 H133 0.930 . S
C140 C139 1.393 . S
C140 C141 1.399 . S
C141 C140 1.399 . S
C141 C142 1.381 . S
C142 H134 0.930 . S
C142 C138 1.390 . S
C142 C141 1.381 . S
N143 C136 1.286 . S
N143 C139 1.413 . S
H144 C149 0.930 . S
H145 C152 0.930 . S
H146 C154 0.930 . S
H147 C148 1.016 . S
C148 H147 1.016 . S
C148 N155 1.286 . S
C149 H144 0.930 . S
C149 C150 1.397 . S
C149 C151 1.361 . S
C150 C149 1.397 . S
C150 C154 1.390 . S
C151 C149 1.361 . S
C151 C152 1.393 . S
C151 N155 1.413 . S
C152 H145 0.930 . S
C152 C151 1.393 . S
C152 C153 1.399 . S
C153 C152 1.399 . S
C153 C154 1.381 . S
C154 H146 0.930 . S
C154 C150 1.390 . S
C154 C153 1.381 . S
N155 C148 1.286 . S
N155 C151 1.413 . S
H156 C161 0.930 . S
H157 C164 0.930 . S
H158 C166 0.930 . S
H159 C160 1.008 1_554 S
C160 H159 1.008 1_556 S
C160 N167 1.302 . S
C161 H156 0.930 . S
C161 C162 1.397 . S
C161 C163 1.361 . S
C162 C161 1.397 . S
C162 C166 1.390 . S
C163 C161 1.361 . S
C163 C164 1.393 . S
C163 N167 1.413 . S
C164 H157 0.930 . S
C164 C163 1.393 . S
C164 C165 1.399 . S
C165 C164 1.399 . S
C165 C166 1.381 . S
C166 H158 0.930 . S
C166 C162 1.390 . S
C166 C165 1.381 . S
N167 C160 1.302 . S
N167 C163 1.413 . S
H168 C173 0.930 . S
H169 C176 0.930 . S
H170 C178 0.930 . S
H171 C172 1.016 . S
C172 H171 1.016 . S
C172 N179 1.286 . S
C173 H168 0.930 . S
C173 C174 1.397 . S
C173 C175 1.361 . S
C174 C173 1.397 . S
C174 C178 1.390 . S
C175 C173 1.361 . S
C175 C176 1.393 . S
C175 N179 1.413 . S
C176 H169 0.930 . S
C176 C175 1.393 . S
C176 C177 1.399 . S
C177 C176 1.399 . S
C177 C178 1.381 . S
C178 H170 0.930 . S
C178 C174 1.390 . S
C178 C177 1.381 . S
N179 C172 1.286 . S
N179 C175 1.413 . S
H180 C185 0.930 . S
H181 C188 0.930 . S
H182 C190 0.930 . S
H183 C184 1.016 . S
C184 H183 1.016 . S
C184 N191 1.286 . S
C185 H180 0.930 . S
C185 C186 1.397 . S
C185 C187 1.361 . S
C186 C185 1.397 . S
C186 C190 1.390 . S
C187 C185 1.361 . S
C187 C188 1.393 . S
C187 N191 1.413 . S
C188 H181 0.930 . S
C188 C187 1.393 . S
C188 C189 1.399 . S
C189 C188 1.399 . S
C189 C190 1.381 . S
C190 H182 0.930 . S
C190 C186 1.390 . S
C190 C189 1.381 . S
N191 C184 1.286 . S
N191 C187 1.413 . S
Li192 N209 1.990 . S
Li192 O252 1.956 . S
Li192 O253 1.970 . S
Li192 O254 1.961 1_554 S
Li193 N217 1.990 . S
Li193 O252 1.970 . S
Li193 O253 1.956 . S
Li193 O255 1.961 . S
Li194 N239 1.990 . S
Li194 O252 1.961 1_556 S
Li194 O254 1.956 . S
Li194 O255 1.970 1_556 S
Li195 N245 1.990 . S
Li195 O253 1.961 . S
Li195 O254 1.970 1_554 S
Li195 O255 1.956 . S
C196 C198 1.348 . S
C196 C199 1.356 1_554 S
C196 O252 1.325 . S
N197 C200 1.368 . S
N197 C201 1.236 1_554 S
C198 C196 1.348 . S
C198 C200 1.353 . S
C198 H256 0.929 . S
C199 C196 1.356 1_556 S
C199 C201 1.358 . S
C199 H257 0.930 . S
C200 N197 1.368 . S
C200 C198 1.353 . S
C200 H258 0.930 . S
C201 N197 1.236 1_556 S
C201 C199 1.358 . S
C201 H259 0.930 . S
C202 C205 1.348 . S
C202 C206 1.356 . S
C202 O253 1.325 . S
C203 N204 1.279 . S
C203 C206 1.358 . S
C203 H260 0.930 . S
N204 C203 1.279 . S
N204 C207 1.314 . S
C205 C202 1.348 . S
C205 C207 1.353 . S
C205 H261 0.929 . S
C206 C202 1.356 . S
C206 C203 1.358 . S
C206 H262 0.930 . S
C207 N204 1.314 . S
C207 C205 1.353 . S
C207 H263 0.930 . S
C208 N209 1.314 . S
C208 C213 1.358 . S
C208 H214 0.929 1_554 S
N209 Li192 1.990 . S
N209 C208 1.314 . S
N209 C211 1.279 . S
C210 C211 1.358 . S
C210 C212 1.356 . S
C210 H264 0.930 . S
C211 N209 1.279 . S
C211 C210 1.358 . S
C211 H215 0.930 . S
C212 C210 1.356 . S
C212 C213 1.352 . S
C213 C208 1.358 . S
C213 C212 1.352 . S
C213 H265 0.921 1_554 S
H214 C208 0.929 1_556 S
H215 C211 0.930 . S
C216 N217 1.314 . S
C216 C218 1.353 . S
C216 H222 0.930 . S
N217 Li193 1.990 . S
N217 C216 1.314 . S
N217 C220 1.279 . S
C218 C216 1.353 . S
C218 C221 1.348 . S
C218 H266 0.929 . S
C219 C220 1.358 . S
C219 C221 1.356 . S
C219 H267 0.930 . S
C220 N217 1.279 . S
C220 C219 1.358 . S
C220 H223 0.930 . S
C221 C218 1.348 . S
C221 C219 1.356 . S
H222 C216 0.930 . S
H223 C220 0.930 . S
C224 C226 1.348 . S
C224 C227 1.356 . S
C224 O254 1.325 . S
N225 C228 1.314 . S
N225 C229 1.279 . S
C226 C224 1.348 . S
C226 C228 1.353 . S
C226 H268 0.929 . S
C227 C224 1.356 . S
C227 C229 1.358 . S
C227 H269 0.930 . S
C228 N225 1.314 . S
C228 C226 1.353 . S
C228 H270 0.930 . S
C229 N225 1.279 . S
C229 C227 1.358 . S
C229 H271 0.930 . S
C230 C231 1.348 1_554 S
C230 C232 1.356 . S
C230 O255 1.325 . S
C231 C230 1.348 1_556 S
C231 C233 1.345 1_556 S
C231 H272 0.929 . S
C232 C230 1.356 . S
C232 C234 1.358 . S
C232 H273 0.930 . S
C233 C231 1.345 1_554 S
C233 N235 1.349 . S
C233 H274 0.901 1_554 S
C234 C232 1.358 . S
C234 N235 1.279 . S
C234 H275 0.930 . S
N235 C233 1.349 . S
N235 C234 1.279 . S
C236 C238 1.353 . S
C236 N239 1.314 . S
C236 H242 0.930 . S
C237 N239 1.279 . S
C237 C240 1.358 . S
C237 H243 0.930 . S
C238 C236 1.353 . S
C238 C241 1.348 . S
C238 H276 0.929 . S
N239 Li194 1.990 . S
N239 C236 1.314 . S
N239 C237 1.279 . S
C240 C237 1.358 . S
C240 C241 1.356 . S
C240 H277 0.930 . S
C241 C238 1.348 . S
C241 C240 1.356 . S
H242 C236 0.930 . S
H243 C237 0.930 . S
C244 N245 1.314 . S
C244 C246 1.353 . S
C244 H250 0.930 . S
N245 Li195 1.990 . S
N245 C244 1.314 . S
N245 C248 1.279 . S
C246 C244 1.353 . S
C246 C249 1.348 . S
C246 H278 0.929 . S
C247 C248 1.358 . S
C247 C249 1.356 . S
C247 H279 0.930 . S
C248 N245 1.279 . S
C248 C247 1.358 . S
C248 H251 0.930 . S
C249 C246 1.348 . S
C249 C247 1.356 . S
H250 C244 0.930 . S
H251 C248 0.930 . S
O252 Li192 1.956 . S
O252 Li193 1.970 . S
O252 Li194 1.961 1_554 S
O252 C196 1.325 . S
O253 Li192 1.970 . S
O253 Li193 1.956 . S
O253 Li195 1.961 . S
O253 C202 1.325 . S
O254 Li192 1.961 1_556 S
O254 Li194 1.956 . S
O254 Li195 1.970 1_556 S
O254 C224 1.325 . S
O255 Li193 1.961 . S
O255 Li194 1.970 1_554 S
O255 Li195 1.956 . S
O255 C230 1.325 . S
H256 C198 0.929 . S
H257 C199 0.930 . S
H258 C200 0.930 . S
H259 C201 0.930 . S
H260 C203 0.930 . S
H261 C205 0.929 . S
H262 C206 0.930 . S
H263 C207 0.930 . S
H264 C210 0.930 . S
H265 C213 0.921 1_556 S
H266 C218 0.929 . S
H267 C219 0.930 . S
H268 C226 0.929 . S
H269 C227 0.930 . S
H270 C228 0.930 . S
H271 C229 0.930 . S
H272 C231 0.929 . S
H273 C232 0.930 . S
H274 C233 0.901 1_556 S
H275 C234 0.930 . S
H276 C238 0.929 . S
H277 C240 0.930 . S
H278 C246 0.929 . S
H279 C247 0.930 . S
Li280 N297 1.990 . S
Li280 O340 1.956 . S
Li280 O341 1.970 . S
Li280 O342 1.961 . S
Li281 N305 1.990 . S
Li281 O340 1.970 . S
Li281 O341 1.956 . S
Li281 O343 1.961 . S
Li282 N327 1.990 . S
Li282 O340 1.961 . S
Li282 O342 1.956 . S
Li282 O343 1.970 . S
Li283 N333 1.990 . S
Li283 O341 1.961 . S
Li283 O342 1.970 . S
Li283 O343 1.956 . S
C284 C286 1.348 . S
C284 C287 1.356 . S
C284 O340 1.325 . S
N285 C288 1.314 . S
N285 C289 1.279 . S
C286 C284 1.348 . S
C286 C288 1.353 . S
C286 H344 0.929 . S
C287 C284 1.356 . S
C287 C289 1.358 . S
C287 H345 0.930 . S
C288 N285 1.314 . S
C288 C286 1.353 . S
C288 H346 0.930 . S
C289 N285 1.279 . S
C289 C287 1.358 . S
C289 H347 0.930 . S
C290 C293 1.348 . S
C290 C294 1.356 . S
C290 O341 1.325 . S
C291 N292 1.279 . S
C291 C294 1.358 . S
C291 H348 0.930 . S
N292 C291 1.279 . S
N292 C295 1.314 . S
C293 C290 1.348 . S
C293 C295 1.353 . S
C293 H349 0.929 . S
C294 C290 1.356 . S
C294 C291 1.358 . S
C294 H350 0.930 . S
C295 N292 1.314 . S
C295 C293 1.353 . S
C295 H351 0.930 . S
C296 N297 1.314 . S
C296 C301 1.353 . S
C296 H302 0.930 . S
N297 Li280 1.990 . S
N297 C296 1.314 . S
N297 C299 1.279 . S
C298 C299 1.358 . S
C298 C300 1.356 . S
C298 H352 0.930 . S
C299 N297 1.279 . S
C299 C298 1.358 . S
C299 H303 0.930 . S
C300 C298 1.356 . S
C300 C301 1.348 . S
C301 C296 1.353 . S
C301 C300 1.348 . S
C301 H353 0.929 . S
H302 C296 0.930 . S
H303 C299 0.930 . S
C304 N305 1.314 . S
C304 C306 1.353 . S
C304 H310 0.930 . S
N305 Li281 1.990 . S
N305 C304 1.314 . S
N305 C308 1.279 . S
C306 C304 1.353 . S
C306 C309 1.348 . S
C306 H354 0.929 . S
C307 C308 1.358 . S
C307 C309 1.356 . S
C307 H355 0.930 . S
C308 N305 1.279 . S
C308 C307 1.358 . S
C308 H311 0.930 . S
C309 C306 1.348 . S
C309 C307 1.356 . S
H310 C304 0.930 . S
H311 C308 0.930 . S
C312 C314 1.348 . S
C312 C315 1.356 . S
C312 O342 1.325 . S
N313 C316 1.314 . S
N313 C317 1.279 . S
C314 C312 1.348 . S
C314 C316 1.353 . S
C314 H356 0.929 . S
C315 C312 1.356 . S
C315 C317 1.358 . S
C315 H357 0.930 . S
C316 N313 1.314 . S
C316 C314 1.353 . S
C316 H358 0.930 . S
C317 N313 1.279 . S
C317 C315 1.358 . S
C317 H359 0.930 . S
C318 C319 1.348 . S
C318 C320 1.356 . S
C318 O343 1.325 . S
C319 C318 1.348 . S
C319 C321 1.353 . S
C319 H360 0.929 . S
C320 C318 1.356 . S
C320 C322 1.358 . S
C320 H361 0.930 . S
C321 C319 1.353 . S
C321 N323 1.314 . S
C321 H362 0.930 . S
C322 C320 1.358 . S
C322 N323 1.279 . S
C322 H363 0.930 . S
N323 C321 1.314 . S
N323 C322 1.279 . S
C324 C326 1.353 . S
C324 N327 1.314 . S
C324 H330 0.930 . S
C325 N327 1.279 . S
C325 C328 1.358 . S
C325 H331 0.930 . S
C326 C324 1.353 . S
C326 C329 1.348 . S
C326 H364 0.929 . S
N327 Li282 1.990 . S
N327 C324 1.314 . S
N327 C325 1.279 . S
C328 C325 1.358 . S
C328 C329 1.356 . S
C328 H365 0.930 . S
C329 C326 1.348 . S
C329 C328 1.356 . S
H330 C324 0.930 . S
H331 C325 0.930 . S
C332 N333 1.314 . S
C332 C334 1.353 . S
C332 H338 0.930 . S
N333 Li283 1.990 . S
N333 C332 1.314 . S
N333 C336 1.279 . S
C334 C332 1.353 . S
C334 C337 1.348 . S
C334 H366 0.929 . S
C335 C336 1.358 . S
C335 C337 1.356 . S
C335 H367 0.930 . S
C336 N333 1.279 . S
C336 C335 1.358 . S
C336 H339 0.930 . S
C337 C334 1.348 . S
C337 C335 1.356 . S
H338 C332 0.930 . S
H339 C336 0.930 . S
O340 Li280 1.956 . S
O340 Li281 1.970 . S
O340 Li282 1.961 . S
O340 C284 1.325 . S
O341 Li280 1.970 . S
O341 Li281 1.956 . S
O341 Li283 1.961 . S
O341 C290 1.325 . S
O342 Li280 1.961 . S
O342 Li282 1.956 . S
O342 Li283 1.970 . S
O342 C312 1.325 . S
O343 Li281 1.961 . S
O343 Li282 1.970 . S
O343 Li283 1.956 . S
O343 C318 1.325 . S
H344 C286 0.929 . S
H345 C287 0.930 . S
H346 C288 0.930 . S
H347 C289 0.930 . S
H348 C291 0.930 . S
H349 C293 0.929 . S
H350 C294 0.930 . S
H351 C295 0.930 . S
H352 C298 0.930 . S
H353 C301 0.929 . S
H354 C306 0.929 . S
H355 C307 0.930 . S
H356 C314 0.929 . S
H357 C315 0.930 . S
H358 C316 0.930 . S
H359 C317 0.930 . S
H360 C319 0.929 . S
H361 C320 0.930 . S
H362 C321 0.930 . S
H363 C322 0.930 . S
H364 C326 0.929 . S
H365 C328 0.930 . S
H366 C334 0.929 . S
H367 C335 0.930 . S
Li368 N385 1.990 . S
Li368 O428 1.956 . S
Li368 O429 1.970 1_556 S
Li368 O430 1.961 . S
Li369 N393 1.990 . S
Li369 O428 1.970 1_554 S
Li369 O429 1.956 . S
Li369 O431 1.961 . S
Li370 N415 1.990 . S
Li370 O428 1.961 . S
Li370 O430 1.956 . S
Li370 O431 1.970 1_556 S
Li371 N421 1.990 . S
Li371 O429 1.961 . S
Li371 O430 1.970 1_554 S
Li371 O431 1.956 . S
C372 C374 1.348 1_556 S
C372 C375 1.356 . S
C372 O428 1.325 . S
N373 C376 1.314 1_556 S
N373 C377 1.279 . S
C374 C372 1.348 1_554 S
C374 C376 1.353 . S
C374 H432 0.929 . S
C375 C372 1.356 . S
C375 C377 1.358 . S
C375 H433 0.930 . S
C376 N373 1.314 1_554 S
C376 C374 1.353 . S
C376 H434 0.930 . S
C377 N373 1.279 . S
C377 C375 1.358 . S
C377 H435 0.930 . S
C378 C381 1.348 . S
C378 C382 1.356 . S
C378 O429 1.325 . S
C379 N380 1.279 . S
C379 C382 1.358 . S
C379 H436 0.930 . S
N380 C379 1.279 . S
N380 C383 1.314 . S
C381 C378 1.348 . S
C381 C383 1.353 . S
C381 H437 0.929 . S
C382 C378 1.356 . S
C382 C379 1.358 . S
C382 H438 0.930 . S
C383 N380 1.314 . S
C383 C381 1.353 . S
C383 H439 0.930 . S
C384 N385 1.314 . S
C384 C389 1.353 . S
C384 H390 0.930 . S
N385 Li368 1.990 . S
N385 C384 1.314 . S
N385 C387 1.279 . S
C386 C387 1.358 . S
C386 C388 1.356 . S
C386 H440 0.930 . S
C387 N385 1.279 . S
C387 C386 1.358 . S
C387 H391 0.930 . S
C388 C386 1.356 . S
C388 C389 1.348 . S
C389 C384 1.353 . S
C389 C388 1.348 . S
C389 H441 0.929 . S
H390 C384 0.930 . S
H391 C387 0.930 . S
C392 N393 1.314 . S
C392 C394 1.353 . S
C392 H398 0.930 . S
N393 Li369 1.990 . S
N393 C392 1.314 . S
N393 C396 1.279 . S
C394 C392 1.353 . S
C394 C397 1.348 . S
C394 H442 0.929 . S
C395 C396 1.358 . S
C395 C397 1.356 . S
C395 H443 0.930 . S
C396 N393 1.279 . S
C396 C395 1.358 . S
C396 H399 0.930 . S
C397 C394 1.348 . S
C397 C395 1.356 . S
H398 C392 0.930 . S
H399 C396 0.930 . S
C400 C402 1.348 . S
C400 C403 1.356 . S
C400 O430 1.325 . S
N401 C404 1.314 . S
N401 C405 1.279 . S
C402 C400 1.348 . S
C402 C404 1.353 . S
C402 H444 0.929 . S
C403 C400 1.356 . S
C403 C405 1.358 . S
C403 H445 0.930 . S
C404 N401 1.314 . S
C404 C402 1.353 . S
C404 H446 0.930 . S
C405 N401 1.279 . S
C405 C403 1.358 . S
C405 H447 0.930 . S
C406 C407 1.348 1_554 S
C406 C408 1.356 . S
C406 O431 1.325 . S
C407 C406 1.348 1_556 S
C407 C409 1.353 . S
C407 H448 0.929 . S
C408 C406 1.356 . S
C408 C410 1.358 . S
C408 H449 0.930 . S
C409 C407 1.353 . S
C409 N411 1.314 1_556 S
C409 H450 0.930 . S
C410 C408 1.358 . S
C410 N411 1.279 . S
C410 H451 0.930 . S
N411 C409 1.314 1_554 S
N411 C410 1.279 . S
C412 C414 1.353 . S
C412 N415 1.314 . S
C412 H418 0.930 . S
C413 N415 1.279 . S
C413 C416 1.358 . S
C413 H419 0.930 . S
C414 C412 1.353 . S
C414 C417 1.348 . S
C414 H452 0.929 . S
N415 Li370 1.990 . S
N415 C412 1.314 . S
N415 C413 1.279 . S
C416 C413 1.358 . S
C416 C417 1.356 . S
C416 H453 0.930 . S
C417 C414 1.348 . S
C417 C416 1.356 . S
H418 C412 0.930 . S
H419 C413 0.930 . S
C420 N421 1.314 . S
C420 C422 1.353 . S
C420 H426 0.930 . S
N421 Li371 1.990 . S
N421 C420 1.314 . S
N421 C424 1.279 . S
C422 C420 1.353 . S
C422 C425 1.348 . S
C422 H454 0.929 . S
C423 C424 1.358 . S
C423 C425 1.356 . S
C423 H455 0.930 . S
C424 N421 1.279 . S
C424 C423 1.358 . S
C424 H427 0.930 . S
C425 C422 1.348 . S
C425 C423 1.356 . S
H426 C420 0.930 . S
H427 C424 0.930 . S
O428 Li368 1.956 . S
O428 Li369 1.970 1_556 S
O428 Li370 1.961 . S
O428 C372 1.325 . S
O429 Li368 1.970 1_554 S
O429 Li369 1.956 . S
O429 Li371 1.961 . S
O429 C378 1.325 . S
O430 Li368 1.961 . S
O430 Li370 1.956 . S
O430 Li371 1.970 1_556 S
O430 C400 1.325 . S
O431 Li369 1.961 . S
O431 Li370 1.970 1_554 S
O431 Li371 1.956 . S
O431 C406 1.325 . S
H432 C374 0.929 . S
H433 C375 0.930 . S
H434 C376 0.930 . S
H435 C377 0.930 . S
H436 C379 0.930 . S
H437 C381 0.929 . S
H438 C382 0.930 . S
H439 C383 0.930 . S
H440 C386 0.930 . S
H441 C389 0.929 . S
H442 C394 0.929 . S
H443 C395 0.930 . S
H444 C402 0.929 . S
H445 C403 0.930 . S
H446 C404 0.930 . S
H447 C405 0.930 . S
H448 C407 0.929 . S
H449 C408 0.930 . S
H450 C409 0.930 . S
H451 C410 0.930 . S
H452 C414 0.929 . S
H453 C416 0.930 . S
H454 C422 0.929 . S
H455 C423 0.930 . S
Li456 N473 1.990 . S
Li456 O516 1.956 . S
Li456 O517 1.970 . S
Li456 O518 1.961 . S
Li457 N481 1.990 . S
Li457 O516 1.970 . S
Li457 O517 1.956 . S
Li457 O519 1.961 1_545 S
Li458 N503 1.990 . S
Li458 O516 1.961 . S
Li458 O518 1.956 . S
Li458 O519 1.970 1_545 S
Li459 N509 1.990 . S
Li459 O517 1.961 1_565 S
Li459 O518 1.970 1_565 S
Li459 O519 1.956 . S
C460 C462 1.348 . S
C460 C463 1.356 . S
C460 O516 1.325 . S
N461 C464 1.314 . S
N461 C465 1.279 . S
C462 C460 1.348 . S
C462 C464 1.353 . S
C462 H520 0.929 . S
C463 C460 1.356 . S
C463 C465 1.358 . S
C463 H521 0.930 . S
C464 N461 1.314 . S
C464 C462 1.353 . S
C464 H522 0.930 . S
C465 N461 1.279 . S
C465 C463 1.358 . S
C465 H523 0.930 . S
C466 C469 1.348 . S
C466 C470 1.356 1_545 S
C466 O517 1.325 . S
C467 N468 1.279 1_565 S
C467 C470 1.358 . S
C467 H524 0.930 . S
N468 C467 1.279 1_545 S
N468 C471 1.314 . S
C469 C466 1.348 . S
C469 C471 1.353 . S
C469 H525 0.929 . S
C470 C466 1.356 1_565 S
C470 C467 1.358 . S
C470 H526 0.930 . S
C471 N468 1.314 . S
C471 C469 1.353 . S
C471 H527 0.930 . S
C472 N473 1.314 . S
C472 C477 1.353 . S
C472 H478 0.930 . S
N473 Li456 1.990 . S
N473 C472 1.314 . S
N473 C475 1.279 . S
C474 C475 1.358 . S
C474 C476 1.356 . S
C474 H528 0.930 . S
C475 N473 1.279 . S
C475 C474 1.358 . S
C475 H479 0.930 . S
C476 C474 1.356 . S
C476 C477 1.348 . S
C477 C472 1.353 . S
C477 C476 1.348 . S
C477 H529 0.929 . S
H478 C472 0.930 . S
H479 C475 0.930 . S
C480 N481 1.314 . S
C480 C482 1.353 . S
C480 H486 0.930 . S
N481 Li457 1.990 . S
N481 C480 1.314 . S
N481 C484 1.279 . S
C482 C480 1.353 . S
C482 C485 1.348 . S
C482 H530 0.929 1_655 S
C483 C484 1.358 . S
C483 C485 1.356 . S
C483 H531 0.930 . S
C484 N481 1.279 . S
C484 C483 1.358 . S
C484 H487 0.930 . S
C485 C482 1.348 . S
C485 C483 1.356 . S
H486 C480 0.930 . S
H487 C484 0.930 . S
C488 C490 1.348 . S
C488 C491 1.356 . S
C488 O518 1.325 . S
N489 C492 1.314 . S
N489 C493 1.279 . S
C490 C488 1.348 . S
C490 C492 1.353 . S
C490 H532 0.929 1_545 S
C491 C488 1.356 . S
C491 C493 1.358 . S
C491 H533 0.930 . S
C492 N489 1.314 . S
C492 C490 1.353 . S
C492 H534 0.894 1_545 S
C493 N489 1.279 . S
C493 C491 1.358 . S
C493 H535 0.930 . S
C494 C495 1.348 . S
C494 C496 1.356 . S
C494 O519 1.325 . S
C495 C494 1.348 . S
C495 C497 1.353 . S
C495 H536 0.929 . S
C496 C494 1.356 . S
C496 C498 1.358 . S
C496 H537 0.930 . S
C497 C495 1.353 . S
C497 N499 1.314 . S
C497 H538 0.930 . S
C498 C496 1.358 . S
C498 N499 1.279 . S
C498 H539 0.930 . S
N499 C497 1.314 . S
N499 C498 1.279 . S
C500 C502 1.353 . S
C500 N503 1.314 . S
C500 H506 0.930 . S
C501 N503 1.279 . S
C501 C504 1.358 . S
C501 H507 0.930 . S
C502 C500 1.353 . S
C502 C505 1.348 . S
C502 H540 0.929 . S
N503 Li458 1.990 . S
N503 C500 1.314 . S
N503 C501 1.279 . S
C504 C501 1.358 . S
C504 C505 1.356 . S
C504 H541 0.930 . S
C505 C502 1.348 . S
C505 C504 1.356 . S
H506 C500 0.930 . S
H507 C501 0.930 . S
C508 N509 1.314 . S
C508 C510 1.353 . S
C508 H514 0.930 . S
N509 Li459 1.990 . S
N509 C508 1.314 . S
N509 C512 1.279 . S
C510 C508 1.353 . S
C510 C513 1.348 . S
C510 H542 0.929 . S
C511 C512 1.358 . S
C511 C513 1.356 . S
C511 H543 0.930 . S
C512 N509 1.279 . S
C512 C511 1.358 . S
C512 H515 0.930 . S
C513 C510 1.348 . S
C513 C511 1.356 . S
H514 C508 0.930 . S
H515 C512 0.930 . S
O516 Li456 1.956 . S
O516 Li457 1.970 . S
O516 Li458 1.961 . S
O516 C460 1.325 . S
O517 Li456 1.970 . S
O517 Li457 1.956 . S
O517 Li459 1.961 1_545 S
O517 C466 1.325 . S
O518 Li456 1.961 . S
O518 Li458 1.956 . S
O518 Li459 1.970 1_545 S
O518 C488 1.325 . S
O519 Li457 1.961 1_565 S
O519 Li458 1.970 1_565 S
O519 Li459 1.956 . S
O519 C494 1.325 . S
H520 C462 0.929 . S
H521 C463 0.930 . S
H522 C464 0.930 . S
H523 C465 0.930 . S
H524 C467 0.930 . S
H525 C469 0.929 . S
H526 C470 0.930 . S
H527 C471 0.930 . S
H528 C474 0.930 . S
H529 C477 0.929 . S
H530 C482 0.929 1_455 S
H531 C483 0.930 . S
H532 C490 0.929 1_565 S
H533 C491 0.930 . S
H534 C492 0.894 1_565 S
H535 C493 0.930 . S
H536 C495 0.929 . S
H537 C496 0.930 . S
H538 C497 0.930 . S
H539 C498 0.930 . S
H540 C502 0.929 . S
H541 C504 0.930 . S
H542 C510 0.929 . S
H543 C511 0.930 . S
Li544 N561 1.990 . S
Li544 O604 1.956 . S
Li544 O605 1.970 . S
Li544 O606 1.961 . S
Li545 N569 1.990 . S
Li545 O604 1.970 . S
Li545 O605 1.956 . S
Li545 O607 1.961 . S
Li546 N591 1.990 . S
Li546 O604 1.961 . S
Li546 O606 1.956 . S
Li546 O607 1.970 . S
Li547 N597 1.990 . S
Li547 O605 1.961 . S
Li547 O606 1.970 . S
Li547 O607 1.956 . S
C548 C550 1.348 . S
C548 C551 1.356 . S
C548 O604 1.325 . S
N549 C552 1.314 . S
N549 C553 1.279 . S
C550 C548 1.348 . S
C550 C552 1.353 . S
C550 H608 0.929 . S
C551 C548 1.356 . S
C551 C553 1.358 . S
C551 H609 0.930 . S
C552 N549 1.314 . S
C552 C550 1.353 . S
C552 H610 0.930 . S
C553 N549 1.279 . S
C553 C551 1.358 . S
C553 H611 0.930 . S
C554 C557 1.348 . S
C554 C558 1.356 . S
C554 O605 1.325 . S
C555 N556 1.279 . S
C555 C558 1.358 . S
C555 H612 0.930 . S
N556 C555 1.279 . S
N556 C559 1.314 . S
C557 C554 1.348 . S
C557 C559 1.353 . S
C557 H613 0.929 . S
C558 C554 1.356 . S
C558 C555 1.358 . S
C558 H614 0.930 . S
C559 N556 1.314 . S
C559 C557 1.353 . S
C559 H615 0.930 . S
C560 N561 1.314 . S
C560 C565 1.353 . S
C560 H566 0.930 . S
N561 Li544 1.990 . S
N561 C560 1.314 . S
N561 C563 1.279 . S
C562 C563 1.358 . S
C562 C564 1.356 . S
C562 H616 0.930 . S
C563 N561 1.279 . S
C563 C562 1.358 . S
C563 H567 0.930 . S
C564 C562 1.356 . S
C564 C565 1.348 . S
C565 C560 1.353 . S
C565 C564 1.348 . S
C565 H617 0.929 . S
H566 C560 0.930 . S
H567 C563 0.930 . S
C568 N569 1.314 . S
C568 C570 1.353 . S
C568 H574 0.930 . S
N569 Li545 1.990 . S
N569 C568 1.314 . S
N569 C572 1.279 . S
C570 C568 1.353 . S
C570 C573 1.348 . S
C570 H618 0.929 . S
C571 C572 1.358 . S
C571 C573 1.356 . S
C571 H619 0.930 . S
C572 N569 1.279 . S
C572 C571 1.358 . S
C572 H575 0.930 . S
C573 C570 1.348 . S
C573 C571 1.356 . S
H574 C568 0.930 . S
H575 C572 0.930 . S
C576 C578 1.348 . S
C576 C579 1.356 . S
C576 O606 1.325 . S
N577 C580 1.314 . S
N577 C581 1.279 . S
C578 C576 1.348 . S
C578 C580 1.353 . S
C578 H620 0.929 . S
C579 C576 1.356 . S
C579 C581 1.358 . S
C579 H621 0.930 . S
C580 N577 1.314 . S
C580 C578 1.353 . S
C580 H622 0.930 . S
C581 N577 1.279 . S
C581 C579 1.358 . S
C581 H623 0.930 . S
C582 C583 1.348 . S
C582 C584 1.356 . S
C582 O607 1.325 . S
C583 C582 1.348 . S
C583 C585 1.353 . S
C583 H624 0.929 . S
C584 C582 1.356 . S
C584 C586 1.358 . S
C584 H625 0.930 . S
C585 C583 1.353 . S
C585 N587 1.314 . S
C585 H626 0.930 . S
C586 C584 1.358 . S
C586 N587 1.279 . S
C586 H627 0.930 . S
N587 C585 1.314 . S
N587 C586 1.279 . S
C588 C590 1.353 . S
C588 N591 1.314 . S
C588 H594 0.930 . S
C589 N591 1.279 . S
C589 C592 1.358 . S
C589 H595 0.930 . S
C590 C588 1.353 . S
C590 C593 1.348 . S
C590 H628 0.929 . S
N591 Li546 1.990 . S
N591 C588 1.314 . S
N591 C589 1.279 . S
C592 C589 1.358 . S
C592 C593 1.356 . S
C592 H629 0.930 . S
C593 C590 1.348 . S
C593 C592 1.356 . S
H594 C588 0.930 . S
H595 C589 0.930 . S
C596 N597 1.314 . S
C596 C598 1.353 . S
C596 H602 0.930 . S
N597 Li547 1.990 . S
N597 C596 1.314 . S
N597 C600 1.279 . S
C598 C596 1.353 . S
C598 C601 1.348 . S
C598 H630 0.929 . S
C599 C600 1.358 . S
C599 C601 1.356 . S
C599 H631 0.930 . S
C600 N597 1.279 . S
C600 C599 1.358 . S
C600 H603 0.930 . S
C601 C598 1.348 . S
C601 C599 1.356 . S
H602 C596 0.930 . S
H603 C600 0.930 . S
O604 Li544 1.956 . S
O604 Li545 1.970 . S
O604 Li546 1.961 . S
O604 C548 1.325 . S
O605 Li544 1.970 . S
O605 Li545 1.956 . S
O605 Li547 1.961 . S
O605 C554 1.325 . S
O606 Li544 1.961 . S
O606 Li546 1.956 . S
O606 Li547 1.970 . S
O606 C576 1.325 . S
O607 Li545 1.961 . S
O607 Li546 1.970 . S
O607 Li547 1.956 . S
O607 C582 1.325 . S
H608 C550 0.929 . S
H609 C551 0.930 . S
H610 C552 0.930 . S
H611 C553 0.930 . S
H612 C555 0.930 . S
H613 C557 0.929 . S
H614 C558 0.930 . S
H615 C559 0.930 . S
H616 C562 0.930 . S
H617 C565 0.929 . S
H618 C570 0.929 . S
H619 C571 0.930 . S
H620 C578 0.929 . S
H621 C579 0.930 . S
H622 C580 0.930 . S
H623 C581 0.930 . S
H624 C583 0.929 . S
H625 C584 0.930 . S
H626 C585 0.930 . S
H627 C586 0.930 . S
H628 C590 0.929 . S
H629 C592 0.930 . S
H630 C598 0.929 . S
H631 C599 0.930 . S
Li632 N649 1.990 . S
Li632 O692 1.956 . S
Li632 O693 1.970 . S
Li632 O694 1.961 . S
Li633 N657 1.990 . S
Li633 O692 1.970 . S
Li633 O693 1.956 . S
Li633 O695 1.961 . S
Li634 N679 1.990 . S
Li634 O692 1.961 . S
Li634 O694 1.956 . S
Li634 O695 1.970 . S
Li635 N685 1.990 . S
Li635 O693 1.961 . S
Li635 O694 1.970 . S
Li635 O695 1.956 . S
C636 C638 1.348 . S
C636 C639 1.356 . S
C636 O692 1.325 . S
N637 C640 1.314 . S
N637 C641 1.279 . S
C638 C636 1.348 . S
C638 C640 1.353 . S
C638 H696 0.929 . S
C639 C636 1.356 . S
C639 C641 1.358 . S
C639 H697 0.930 . S
C640 N637 1.314 . S
C640 C638 1.353 . S
C640 H698 0.930 . S
C641 N637 1.279 . S
C641 C639 1.358 . S
C641 H699 0.930 . S
C642 C645 1.348 . S
C642 C646 1.356 . S
C642 O693 1.325 . S
C643 N644 1.279 . S
C643 C646 1.358 . S
C643 H700 0.930 . S
N644 C643 1.279 . S
N644 C647 1.314 . S
C645 C642 1.348 . S
C645 C647 1.353 . S
C645 H701 0.929 . S
C646 C642 1.356 . S
C646 C643 1.358 . S
C646 H702 0.930 . S
C647 N644 1.314 . S
C647 C645 1.353 . S
C647 H703 0.930 . S
C648 N649 1.314 . S
C648 C653 1.353 . S
C648 H654 0.930 . S
N649 Li632 1.990 . S
N649 C648 1.314 . S
N649 C651 1.279 . S
C650 C651 1.358 . S
C650 C652 1.356 . S
C650 H704 0.930 . S
C651 N649 1.279 . S
C651 C650 1.358 . S
C651 H655 0.930 . S
C652 C650 1.356 . S
C652 C653 1.348 . S
C653 C648 1.353 . S
C653 C652 1.348 . S
C653 H705 0.929 . S
H654 C648 0.930 . S
H655 C651 0.930 . S
C656 N657 1.314 . S
C656 C658 1.353 . S
C656 H662 0.930 . S
N657 Li633 1.990 . S
N657 C656 1.314 . S
N657 C660 1.279 . S
C658 C656 1.353 . S
C658 C661 1.348 . S
C658 H706 0.929 . S
C659 C660 1.358 . S
C659 C661 1.356 . S
C659 H707 0.930 . S
C660 N657 1.279 . S
C660 C659 1.358 . S
C660 H663 0.930 . S
C661 C658 1.348 . S
C661 C659 1.356 . S
H662 C656 0.930 . S
H663 C660 0.930 . S
C664 C666 1.348 . S
C664 C667 1.356 . S
C664 O694 1.325 . S
N665 C668 1.314 . S
N665 C669 1.279 . S
C666 C664 1.348 . S
C666 C668 1.353 . S
C666 H708 0.929 . S
C667 C664 1.356 . S
C667 C669 1.358 . S
C667 H709 0.930 . S
C668 N665 1.314 . S
C668 C666 1.353 . S
C668 H710 0.930 . S
C669 N665 1.279 . S
C669 C667 1.358 . S
C669 H711 0.930 . S
C670 C671 1.348 . S
C670 C672 1.356 . S
C670 O695 1.325 . S
C671 C670 1.348 . S
C671 C673 1.353 . S
C671 H712 0.929 . S
C672 C670 1.356 . S
C672 C674 1.358 . S
C672 H713 0.930 . S
C673 C671 1.353 . S
C673 N675 1.314 . S
C673 H714 0.930 . S
C674 C672 1.358 . S
C674 N675 1.279 . S
C674 H715 0.930 . S
N675 C673 1.314 . S
N675 C674 1.279 . S
C676 C678 1.353 . S
C676 N679 1.314 . S
C676 H682 0.930 . S
C677 N679 1.279 . S
C677 C680 1.358 . S
C677 H683 0.930 . S
C678 C676 1.353 . S
C678 C681 1.348 . S
C678 H716 0.929 . S
N679 Li634 1.990 . S
N679 C676 1.314 . S
N679 C677 1.279 . S
C680 C677 1.358 . S
C680 C681 1.356 . S
C680 H717 0.930 . S
C681 C678 1.348 . S
C681 C680 1.356 . S
H682 C676 0.930 . S
H683 C677 0.930 . S
C684 N685 1.314 . S
C684 C686 1.353 . S
C684 H690 0.930 . S
N685 Li635 1.990 . S
N685 C684 1.314 . S
N685 C688 1.279 . S
C686 C684 1.353 . S
C686 C689 1.348 . S
C686 H718 0.929 . S
C687 C688 1.358 . S
C687 C689 1.356 . S
C687 H719 0.930 . S
C688 N685 1.279 . S
C688 C687 1.358 . S
C688 H691 0.930 . S
C689 C686 1.348 . S
C689 C687 1.356 . S
H690 C684 0.930 . S
H691 C688 0.930 . S
O692 Li632 1.956 . S
O692 Li633 1.970 . S
O692 Li634 1.961 . S
O692 C636 1.325 . S
O693 Li632 1.970 . S
O693 Li633 1.956 . S
O693 Li635 1.961 . S
O693 C642 1.325 . S
O694 Li632 1.961 . S
O694 Li634 1.956 . S
O694 Li635 1.970 . S
O694 C664 1.325 . S
O695 Li633 1.961 . S
O695 Li634 1.970 . S
O695 Li635 1.956 . S
O695 C670 1.325 . S
H696 C638 0.929 . S
H697 C639 0.930 . S
H698 C640 0.930 . S
H699 C641 0.930 . S
H700 C643 0.930 . S
H701 C645 0.929 . S
H702 C646 0.930 . S
H703 C647 0.930 . S
H704 C650 0.930 . S
H705 C653 0.929 . S
H706 C658 0.929 . S
H707 C659 0.930 . S
H708 C666 0.929 . S
H709 C667 0.930 . S
H710 C668 0.930 . S
H711 C669 0.930 . S
H712 C671 0.929 . S
H713 C672 0.930 . S
H714 C673 0.930 . S
H715 C674 0.930 . S
H716 C678 0.929 . S
H717 C680 0.930 . S
H718 C686 0.929 . S
H719 C687 0.930 . S
Li720 N737 1.990 . S
Li720 O780 1.956 . S
Li720 O781 1.970 . S
Li720 O782 1.961 . S
Li721 N745 1.990 . S
Li721 O780 1.970 . S
Li721 O781 1.956 . S
Li721 O783 1.961 . S
Li722 N767 1.990 . S
Li722 O780 1.961 . S
Li722 O782 1.956 . S
Li722 O783 1.970 . S
Li723 N773 1.990 . S
Li723 O781 1.961 . S
Li723 O782 1.970 . S
Li723 O783 1.956 . S
C724 C726 1.348 . S
C724 C727 1.356 . S
C724 O780 1.325 . S
N725 C728 1.314 . S
N725 C729 1.279 . S
C726 C724 1.348 . S
C726 C728 1.353 . S
C726 H784 0.929 . S
C727 C724 1.356 . S
C727 C729 1.358 . S
C727 H785 0.930 . S
C728 N725 1.314 . S
C728 C726 1.353 . S
C728 H786 0.930 . S
C729 N725 1.279 . S
C729 C727 1.358 . S
C729 H787 0.930 . S
C730 C733 1.348 . S
C730 C734 1.356 . S
C730 O781 1.325 . S
C731 N732 1.279 . S
C731 C734 1.358 . S
C731 H788 0.930 . S
N732 C731 1.279 . S
N732 C735 1.314 . S
C733 C730 1.348 . S
C733 C735 1.353 . S
C733 H789 0.929 . S
C734 C730 1.356 . S
C734 C731 1.358 . S
C734 H790 0.930 . S
C735 N732 1.314 . S
C735 C733 1.353 . S
C735 H791 0.930 . S
C736 N737 1.314 . S
C736 C741 1.353 . S
C736 H742 0.930 . S
N737 Li720 1.990 . S
N737 C736 1.314 . S
N737 C739 1.279 . S
C738 C739 1.358 . S
C738 C740 1.356 . S
C738 H792 0.930 . S
C739 N737 1.279 . S
C739 C738 1.358 . S
C739 H743 0.930 . S
C740 C738 1.356 . S
C740 C741 1.348 . S
C741 C736 1.353 . S
C741 C740 1.348 . S
C741 H793 0.929 . S
H742 C736 0.930 . S
H743 C739 0.930 . S
C744 N745 1.314 . S
C744 C746 1.353 . S
C744 H750 0.930 . S
N745 Li721 1.990 . S
N745 C744 1.314 . S
N745 C748 1.279 . S
C746 C744 1.353 . S
C746 C749 1.348 . S
C746 H794 0.929 . S
C747 C748 1.358 . S
C747 C749 1.356 . S
C747 H795 0.930 . S
C748 N745 1.279 . S
C748 C747 1.358 . S
C748 H751 0.930 . S
C749 C746 1.348 . S
C749 C747 1.356 . S
H750 C744 0.930 . S
H751 C748 0.930 . S
C752 C754 1.348 . S
C752 C755 1.356 . S
C752 O782 1.325 . S
N753 C756 1.314 . S
N753 C757 1.279 . S
C754 C752 1.348 . S
C754 C756 1.353 . S
C754 H796 0.929 . S
C755 C752 1.356 . S
C755 C757 1.358 . S
C755 H797 0.930 . S
C756 N753 1.314 . S
C756 C754 1.353 . S
C756 H798 0.930 . S
C757 N753 1.279 . S
C757 C755 1.358 . S
C757 H799 0.930 . S
C758 C759 1.348 . S
C758 C760 1.356 . S
C758 O783 1.325 . S
C759 C758 1.348 . S
C759 C761 1.353 . S
C759 H800 0.929 . S
C760 C758 1.356 . S
C760 C762 1.358 . S
C760 H801 0.930 . S
C761 C759 1.353 . S
C761 N763 1.314 . S
C761 H802 0.930 . S
C762 C760 1.358 . S
C762 N763 1.279 . S
C762 H803 0.930 . S
N763 C761 1.314 . S
N763 C762 1.279 . S
C764 C766 1.353 . S
C764 N767 1.314 . S
C764 H770 0.930 . S
C765 N767 1.279 . S
C765 C768 1.358 . S
C765 H771 0.930 . S
C766 C764 1.353 . S
C766 C769 1.348 . S
C766 H804 0.929 . S
N767 Li722 1.990 . S
N767 C764 1.314 . S
N767 C765 1.279 . S
C768 C765 1.358 . S
C768 C769 1.356 . S
C768 H805 0.930 . S
C769 C766 1.348 . S
C769 C768 1.356 . S
H770 C764 0.930 . S
H771 C765 0.930 . S
C772 N773 1.314 . S
C772 C774 1.353 . S
C772 H778 0.930 . S
N773 Li723 1.990 . S
N773 C772 1.314 . S
N773 C776 1.279 . S
C774 C772 1.353 . S
C774 C777 1.348 . S
C774 H806 0.929 . S
C775 C776 1.358 . S
C775 C777 1.356 . S
C775 H807 0.930 . S
C776 N773 1.279 . S
C776 C775 1.358 . S
C776 H779 0.930 . S
C777 C774 1.348 . S
C777 C775 1.356 . S
H778 C772 0.930 . S
H779 C776 0.930 . S
O780 Li720 1.956 . S
O780 Li721 1.970 . S
O780 Li722 1.961 . S
O780 C724 1.325 . S
O781 Li720 1.970 . S
O781 Li721 1.956 . S
O781 Li723 1.961 . S
O781 C730 1.325 . S
O782 Li720 1.961 . S
O782 Li722 1.956 . S
O782 Li723 1.970 . S
O782 C752 1.325 . S
O783 Li721 1.961 . S
O783 Li722 1.970 . S
O783 Li723 1.956 . S
O783 C758 1.325 . S
H784 C726 0.929 . S
H785 C727 0.930 . S
H786 C728 0.930 . S
H787 C729 0.930 . S
H788 C731 0.930 . S
H789 C733 0.929 . S
H790 C734 0.930 . S
H791 C735 0.930 . S
H792 C738 0.930 . S
H793 C741 0.929 . S
H794 C746 0.929 . S
H795 C747 0.930 . S
H796 C754 0.929 . S
H797 C755 0.930 . S
H798 C756 0.930 . S
H799 C757 0.930 . S
H800 C759 0.929 . S
H801 C760 0.930 . S
H802 C761 0.930 . S
H803 C762 0.930 . S
H804 C766 0.929 . S
H805 C768 0.930 . S
H806 C774 0.929 . S
H807 C775 0.930 . S
Li808 N825 1.990 . S
Li808 O868 1.956 . S
Li808 O869 1.970 1_565 S
Li808 O870 1.961 . S
Li809 N833 1.990 . S
Li809 O868 1.970 1_545 S
Li809 O869 1.956 . S
Li809 O871 1.961 . S
Li810 N855 1.990 . S
Li810 O868 1.961 . S
Li810 O870 1.956 . S
Li810 O871 1.970 1_565 S
Li811 N861 1.990 . S
Li811 O869 1.961 . S
Li811 O870 1.970 1_545 S
Li811 O871 1.956 . S
C812 C814 1.348 . S
C812 C815 1.356 . S
C812 O868 1.325 . S
N813 C816 1.314 . S
N813 C817 1.279 . S
C814 C812 1.348 . S
C814 C816 1.353 . S
C814 H872 0.929 . S
C815 C812 1.356 . S
C815 C817 1.358 . S
C815 H873 0.930 . S
C816 N813 1.314 . S
C816 C814 1.353 . S
C816 H874 0.930 . S
C817 N813 1.279 . S
C817 C815 1.358 . S
C817 H875 0.930 . S
C818 C821 1.348 1_545 S
C818 C822 1.356 . S
C818 O869 1.325 . S
C819 N820 1.279 . S
C819 C822 1.358 . S
C819 H876 0.930 . S
N820 C819 1.279 . S
N820 C823 1.314 1_545 S
C821 C818 1.348 1_565 S
C821 C823 1.353 . S
C821 H877 0.929 . S
C822 C818 1.356 . S
C822 C819 1.358 . S
C822 H878 0.930 . S
C823 N820 1.314 1_565 S
C823 C821 1.353 . S
C823 H879 0.930 . S
C824 N825 1.314 . S
C824 C829 1.353 . S
C824 H830 0.930 . S
N825 Li808 1.990 . S
N825 C824 1.314 . S
N825 C827 1.279 . S
C826 C827 1.358 . S
C826 C828 1.356 . S
C826 H880 0.930 . S
C827 N825 1.279 . S
C827 C826 1.358 . S
C827 H831 0.930 . S
C828 C826 1.356 . S
C828 C829 1.348 . S
C829 C824 1.353 . S
C829 C828 1.348 . S
C829 H881 0.929 . S
H830 C824 0.930 . S
H831 C827 0.930 . S
C832 N833 1.314 . S
C832 C834 1.353 . S
C832 H838 0.930 . S
N833 Li809 1.990 . S
N833 C832 1.314 . S
N833 C836 1.279 . S
C834 C832 1.353 . S
C834 C837 1.348 . S
C834 H882 0.929 . S
C835 C836 1.358 . S
C835 C837 1.356 . S
C835 H883 0.930 . S
C836 N833 1.279 . S
C836 C835 1.358 . S
C836 H839 0.930 . S
C837 C834 1.348 . S
C837 C835 1.356 . S
H838 C832 0.930 . S
H839 C836 0.930 . S
C840 C842 1.348 1_565 S
C840 C843 1.356 . S
C840 O870 1.325 . S
N841 C844 1.314 1_565 S
N841 C845 1.279 . S
C842 C840 1.348 1_545 S
C842 C844 1.353 . S
C842 H884 0.929 . S
C843 C840 1.356 . S
C843 C845 1.358 . S
C843 H885 0.930 . S
C844 N841 1.314 1_545 S
C844 C842 1.353 . S
C844 H886 0.930 . S
C845 N841 1.279 . S
C845 C843 1.358 . S
C845 H887 0.930 . S
C846 C847 1.348 . S
C846 C848 1.356 . S
C846 O871 1.325 . S
C847 C846 1.348 . S
C847 C849 1.353 . S
C847 H888 0.929 . S
C848 C846 1.356 . S
C848 C850 1.358 . S
C848 H889 0.930 . S
C849 C847 1.353 . S
C849 N851 1.314 . S
C849 H890 0.930 . S
C850 C848 1.358 . S
C850 N851 1.279 . S
C850 H891 0.930 . S
N851 C849 1.314 . S
N851 C850 1.279 . S
C852 C854 1.353 . S
C852 N855 1.314 . S
C852 H858 0.930 . S
C853 N855 1.279 . S
C853 C856 1.358 . S
C853 H859 0.930 . S
C854 C852 1.353 . S
C854 C857 1.348 . S
C854 H892 0.929 . S
N855 Li810 1.990 . S
N855 C852 1.314 . S
N855 C853 1.279 . S
C856 C853 1.358 . S
C856 C857 1.356 . S
C856 H893 0.930 . S
C857 C854 1.348 . S
C857 C856 1.356 . S
H858 C852 0.930 . S
H859 C853 0.930 . S
C860 N861 1.314 . S
C860 C862 1.353 . S
C860 H866 0.930 . S
N861 Li811 1.990 . S
N861 C860 1.314 . S
N861 C864 1.279 . S
C862 C860 1.353 . S
C862 C865 1.348 . S
C862 H894 0.929 . S
C863 C864 1.358 . S
C863 C865 1.356 . S
C863 H895 0.930 . S
C864 N861 1.279 . S
C864 C863 1.358 . S
C864 H867 0.930 . S
C865 C862 1.348 . S
C865 C863 1.356 . S
H866 C860 0.930 . S
H867 C864 0.930 . S
O868 Li808 1.956 . S
O868 Li809 1.970 1_565 S
O868 Li810 1.961 . S
O868 C812 1.325 . S
O869 Li808 1.970 1_545 S
O869 Li809 1.956 . S
O869 Li811 1.961 . S
O869 C818 1.325 . S
O870 Li808 1.961 . S
O870 Li810 1.956 . S
O870 Li811 1.970 1_565 S
O870 C840 1.325 . S
O871 Li809 1.961 . S
O871 Li810 1.970 1_545 S
O871 Li811 1.956 . S
O871 C846 1.325 . S
H872 C814 0.929 . S
H873 C815 0.930 . S
H874 C816 0.930 . S
H875 C817 0.930 . S
H876 C819 0.930 . S
H877 C821 0.929 . S
H878 C822 0.930 . S
H879 C823 0.930 . S
H880 C826 0.930 . S
H881 C829 0.929 . S
H882 C834 0.929 . S
H883 C835 0.930 . S
H884 C842 0.929 . S
H885 C843 0.930 . S
H886 C844 0.930 . S
H887 C845 0.930 . S
H888 C847 0.929 . S
H889 C848 0.930 . S
H890 C849 0.930 . S
H891 C850 0.930 . S
H892 C854 0.929 . S
H893 C856 0.930 . S
H894 C862 0.929 . S
H895 C863 0.930 . S
Li896 N913 1.990 . S
Li896 O956 1.956 . S
Li896 O957 1.970 . S
Li896 O958 1.961 . S
Li897 N921 1.984 1_455 S
Li897 O956 1.970 . S
Li897 O957 1.956 . S
Li897 O959 1.961 1_455 S
Li898 N943 1.990 . S
Li898 O956 1.961 . S
Li898 O958 1.956 . S
Li898 O959 1.970 1_455 S
Li899 N949 1.990 . S
Li899 O957 1.961 1_655 S
Li899 O958 1.970 1_655 S
Li899 O959 1.956 . S
C900 C902 1.348 . S
C900 C903 1.356 . S
C900 O956 1.325 . S
N901 C904 1.314 . S
N901 C905 1.279 . S
C902 C900 1.348 . S
C902 C904 1.353 . S
C902 H960 0.929 . S
C903 C900 1.356 . S
C903 C905 1.358 . S
C903 H961 0.930 . S
C904 N901 1.314 . S
C904 C902 1.353 . S
C904 H962 0.930 . S
C905 N901 1.279 . S
C905 C903 1.358 . S
C905 H963 0.930 . S
C906 C909 1.363 . S
C906 C910 1.337 1_455 S
C906 O957 1.328 . S
C907 N908 1.279 . S
C907 C910 1.358 . S
C907 H964 0.930 . S
N908 C907 1.279 . S
N908 C911 1.314 1_655 S
C909 C906 1.363 . S
C909 C911 1.353 . S
C909 H965 0.929 . S
C910 C906 1.337 1_655 S
C910 C907 1.358 . S
C910 H966 0.930 . S
C911 N908 1.314 1_455 S
C911 C909 1.353 . S
C911 H967 0.930 . S
C912 N913 1.314 . S
C912 C917 1.353 . S
C912 H918 0.930 . S
N913 Li896 1.990 . S
N913 C912 1.314 . S
N913 C915 1.279 . S
C914 C915 1.358 . S
C914 C916 1.356 . S
C914 H968 0.930 . S
C915 N913 1.279 . S
C915 C914 1.358 . S
C915 H919 0.930 . S
C916 C914 1.356 . S
C916 C917 1.348 . S
C917 C912 1.353 . S
C917 C916 1.348 . S
C917 H969 0.929 . S
H918 C912 0.930 . S
H919 C915 0.930 . S
C920 N921 1.322 . S
C920 C922 1.353 . S
C920 H926 0.930 . S
N921 Li897 1.984 1_655 S
N921 C920 1.322 . S
N921 C924 1.277 1_655 S
C922 C920 1.353 . S
C922 C925 1.348 . S
C922 H970 0.929 . S
C923 C924 1.358 . S
C923 C925 1.357 1_455 S
C923 H971 0.929 . S
C924 N921 1.277 1_455 S
C924 C923 1.358 . S
C924 H927 0.930 . S
C925 C922 1.348 . S
C925 C923 1.357 1_655 S
H926 C920 0.930 . S
H927 C924 0.930 . S
C928 C930 1.348 1_455 S
C928 C931 1.356 . S
C928 O958 1.325 . S
N929 C932 1.314 1_455 S
N929 C933 1.279 . S
C930 C928 1.348 1_655 S
C930 C932 1.353 . S
C930 H972 0.929 . S
C931 C928 1.356 . S
C931 C933 1.358 . S
C931 H973 0.930 . S
C932 N929 1.314 1_655 S
C932 C930 1.353 . S
C932 H974 0.930 . S
C933 N929 1.279 . S
C933 C931 1.358 . S
C933 H975 0.930 . S
C934 C935 1.348 . S
C934 C936 1.356 . S
C934 O959 1.325 . S
C935 C934 1.348 . S
C935 C937 1.353 . S
C935 H976 0.929 . S
C936 C934 1.356 . S
C936 C938 1.358 . S
C936 H977 0.930 . S
C937 C935 1.353 . S
C937 N939 1.314 . S
C937 H978 0.930 . S
C938 C936 1.358 . S
C938 N939 1.279 . S
C938 H979 0.930 . S
N939 C937 1.314 . S
N939 C938 1.279 . S
C940 C942 1.353 . S
C940 N943 1.314 . S
C940 H946 0.930 . S
C941 N943 1.279 . S
C941 C944 1.358 . S
C941 H947 0.930 . S
C942 C940 1.353 . S
C942 C945 1.348 . S
C942 H980 0.929 . S
N943 Li898 1.990 . S
N943 C940 1.314 . S
N943 C941 1.279 . S
C944 C941 1.358 . S
C944 C945 1.356 . S
C944 H981 0.930 . S
C945 C942 1.348 . S
C945 C944 1.356 . S
H946 C940 0.930 . S
H947 C941 0.930 . S
C948 N949 1.314 . S
C948 C950 1.353 . S
C948 H954 0.930 . S
N949 Li899 1.990 . S
N949 C948 1.314 . S
N949 C952 1.279 . S
C950 C948 1.353 . S
C950 C953 1.348 . S
C950 H982 0.929 . S
C951 C952 1.358 . S
C951 C953 1.356 . S
C951 H983 0.930 . S
C952 N949 1.279 . S
C952 C951 1.358 . S
C952 H955 0.930 . S
C953 C950 1.348 . S
C953 C951 1.356 . S
H954 C948 0.930 . S
H955 C952 0.930 . S
O956 Li896 1.956 . S
O956 Li897 1.970 . S
O956 Li898 1.961 . S
O956 C900 1.325 . S
O957 Li896 1.970 . S
O957 Li897 1.956 . S
O957 Li899 1.961 1_455 S
O957 C906 1.328 . S
O958 Li896 1.961 . S
O958 Li898 1.956 . S
O958 Li899 1.970 1_455 S
O958 C928 1.325 . S
O959 Li897 1.961 1_655 S
O959 Li898 1.970 1_655 S
O959 Li899 1.956 . S
O959 C934 1.325 . S
H960 C902 0.929 . S
H961 C903 0.930 . S
H962 C904 0.930 . S
H963 C905 0.930 . S
H964 C907 0.930 . S
H965 C909 0.929 . S
H966 C910 0.930 . S
H967 C911 0.930 . S
H968 C914 0.930 . S
H969 C917 0.929 . S
H970 C922 0.929 . S
H971 C923 0.929 . S
H972 C930 0.929 . S
H973 C931 0.930 . S
H974 C932 0.930 . S
H975 C933 0.930 . S
H976 C935 0.929 . S
H977 C936 0.930 . S
H978 C937 0.930 . S
H979 C938 0.930 . S
H980 C942 0.929 . S
H981 C944 0.930 . S
H982 C950 0.929 . S
H983 C951 0.930 . S
Li984 N1001 1.990 . S
Li984 O1044 1.956 . S
Li984 O1045 1.970 . S
Li984 O1046 1.961 . S
Li985 N1009 1.990 . S
Li985 O1044 1.970 . S
Li985 O1045 1.956 . S
Li985 O1047 1.961 . S
Li986 N1031 1.990 . S
Li986 O1044 1.961 . S
Li986 O1046 1.956 . S
Li986 O1047 1.970 . S
Li987 N1037 1.990 . S
Li987 O1045 1.961 . S
Li987 O1046 1.970 . S
Li987 O1047 1.956 . S
C988 C990 1.348 . S
C988 C991 1.356 . S
C988 O1044 1.325 . S
N989 C992 1.314 . S
N989 C993 1.279 . S
C990 C988 1.348 . S
C990 C992 1.353 . S
C990 H1048 0.929 . S
C991 C988 1.356 . S
C991 C993 1.358 . S
C991 H1049 0.930 . S
C992 N989 1.314 . S
C992 C990 1.353 . S
C992 H1050 0.930 . S
C993 N989 1.279 . S
C993 C991 1.358 . S
C993 H1051 0.930 . S
C994 C997 1.348 . S
C994 C998 1.356 . S
C994 O1045 1.325 . S
C995 N996 1.279 . S
C995 C998 1.358 . S
C995 H1052 0.930 . S
N996 C995 1.279 . S
N996 C999 1.314 . S
C997 C994 1.348 . S
C997 C999 1.353 . S
C997 H1053 0.929 . S
C998 C994 1.356 . S
C998 C995 1.358 . S
C998 H1054 0.930 . S
C999 N996 1.314 . S
C999 C997 1.353 . S
C999 H1055 0.930 . S
C1000 N1001 1.314 . S
C1000 C1005 1.353 . S
C1000 H1006 0.930 . S
N1001 Li984 1.990 . S
N1001 C1000 1.314 . S
N1001 C1003 1.279 . S
C1002 C1003 1.358 . S
C1002 C1004 1.356 . S
C1002 H1056 0.930 . S
C1003 N1001 1.279 . S
C1003 C1002 1.358 . S
C1003 H1007 0.930 . S
C1004 C1002 1.356 . S
C1004 C1005 1.348 . S
C1005 C1000 1.353 . S
C1005 C1004 1.348 . S
C1005 H1057 0.929 . S
H1006 C1000 0.930 . S
H1007 C1003 0.930 . S
C1008 N1009 1.314 . S
C1008 C1010 1.353 . S
C1008 H1014 0.930 . S
N1009 Li985 1.990 . S
N1009 C1008 1.314 . S
N1009 C1012 1.279 . S
C1010 C1008 1.353 . S
C1010 C1013 1.348 . S
C1010 H1058 0.929 . S
C1011 C1012 1.358 . S
C1011 C1013 1.356 . S
C1011 H1059 0.930 . S
C1012 N1009 1.279 . S
C1012 C1011 1.358 . S
C1012 H1015 0.930 . S
C1013 C1010 1.348 . S
C1013 C1011 1.356 . S
H1014 C1008 0.930 . S
H1015 C1012 0.930 . S
C1016 C1018 1.348 . S
C1016 C1019 1.356 . S
C1016 O1046 1.325 . S
N1017 C1020 1.314 . S
N1017 C1021 1.279 . S
C1018 C1016 1.348 . S
C1018 C1020 1.353 . S
C1018 H1060 0.929 . S
C1019 C1016 1.356 . S
C1019 C1021 1.358 . S
C1019 H1061 0.930 . S
C1020 N1017 1.314 . S
C1020 C1018 1.353 . S
C1020 H1062 0.930 . S
C1021 N1017 1.279 . S
C1021 C1019 1.358 . S
C1021 H1063 0.930 . S
C1022 C1023 1.348 . S
C1022 C1024 1.356 . S
C1022 O1047 1.325 . S
C1023 C1022 1.348 . S
C1023 C1025 1.353 . S
C1023 H1064 0.929 . S
C1024 C1022 1.356 . S
C1024 C1026 1.358 . S
C1024 H1065 0.930 . S
C1025 C1023 1.353 . S
C1025 N1027 1.314 . S
C1025 H1066 0.930 . S
C1026 C1024 1.358 . S
C1026 N1027 1.279 . S
C1026 H1067 0.930 . S
N1027 C1025 1.314 . S
N1027 C1026 1.279 . S
C1028 C1030 1.353 . S
C1028 N1031 1.314 . S
C1028 H1034 0.930 . S
C1029 N1031 1.279 . S
C1029 C1032 1.358 . S
C1029 H1035 0.930 . S
C1030 C1028 1.353 . S
C1030 C1033 1.348 . S
C1030 H1068 0.929 . S
N1031 Li986 1.990 . S
N1031 C1028 1.314 . S
N1031 C1029 1.279 . S
C1032 C1029 1.358 . S
C1032 C1033 1.356 . S
C1032 H1069 0.930 . S
C1033 C1030 1.348 . S
C1033 C1032 1.356 . S
H1034 C1028 0.930 . S
H1035 C1029 0.930 . S
C1036 N1037 1.314 . S
C1036 C1038 1.353 . S
C1036 H1042 0.930 . S
N1037 Li987 1.990 . S
N1037 C1036 1.314 . S
N1037 C1040 1.279 . S
C1038 C1036 1.353 . S
C1038 C1041 1.348 . S
C1038 H1070 0.929 . S
C1039 C1040 1.358 . S
C1039 C1041 1.356 . S
C1039 H1071 0.930 . S
C1040 N1037 1.279 . S
C1040 C1039 1.358 . S
C1040 H1043 0.930 . S
C1041 C1038 1.348 . S
C1041 C1039 1.356 . S
H1042 C1036 0.930 . S
H1043 C1040 0.930 . S
O1044 Li984 1.956 . S
O1044 Li985 1.970 . S
O1044 Li986 1.961 . S
O1044 C988 1.325 . S
O1045 Li984 1.970 . S
O1045 Li985 1.956 . S
O1045 Li987 1.961 . S
O1045 C994 1.325 . S
O1046 Li984 1.961 . S
O1046 Li986 1.956 . S
O1046 Li987 1.970 . S
O1046 C1016 1.325 . S
O1047 Li985 1.961 . S
O1047 Li986 1.970 . S
O1047 Li987 1.956 . S
O1047 C1022 1.325 . S
H1048 C990 0.929 . S
H1049 C991 0.930 . S
H1050 C992 0.930 . S
H1051 C993 0.930 . S
H1052 C995 0.930 . S
H1053 C997 0.929 . S
H1054 C998 0.930 . S
H1055 C999 0.930 . S
H1056 C1002 0.930 . S
H1057 C1005 0.929 . S
H1058 C1010 0.929 . S
H1059 C1011 0.930 . S
H1060 C1018 0.929 . S
H1061 C1019 0.930 . S
H1062 C1020 0.930 . S
H1063 C1021 0.930 . S
H1064 C1023 0.929 . S
H1065 C1024 0.930 . S
H1066 C1025 0.930 . S
H1067 C1026 0.930 . S
H1068 C1030 0.929 . S
H1069 C1032 0.930 . S
H1070 C1038 0.929 . S
H1071 C1039 0.930 . S
Li1072 N1089 1.990 . S
Li1072 O1132 1.956 . S
Li1072 O1133 1.970 1_455 S
Li1072 O1134 1.961 . S
Li1073 N1097 1.990 . S
Li1073 O1132 1.970 1_655 S
Li1073 O1133 1.956 . S
Li1073 O1135 1.961 1_655 S
Li1074 N1119 1.990 . S
Li1074 O1132 1.961 . S
Li1074 O1134 1.956 . S
Li1074 O1135 1.970 . S
Li1075 N1125 1.997 . S
Li1075 O1133 1.961 1_455 S
Li1075 O1134 1.970 . S
Li1075 O1135 1.956 . S
C1076 C1078 1.348 . S
C1076 C1079 1.356 . S
C1076 O1132 1.325 . S
N1077 C1080 1.314 . S
N1077 C1081 1.279 . S
C1078 C1076 1.348 . S
C1078 C1080 1.353 . S
C1078 H1136 0.929 1_455 S
C1079 C1076 1.356 . S
C1079 C1081 1.358 . S
C1079 H1137 0.930 . S
C1080 N1077 1.314 . S
C1080 C1078 1.353 . S
C1080 H1138 0.930 1_455 S
C1081 N1077 1.279 . S
C1081 C1079 1.358 . S
C1081 H1139 0.930 . S
C1082 C1085 1.348 . S
C1082 C1086 1.356 . S
C1082 O1133 1.325 . S
C1083 N1084 1.279 . S
C1083 C1086 1.358 . S
C1083 H1140 0.930 . S
N1084 C1083 1.279 . S
N1084 C1087 1.314 . S
C1085 C1082 1.348 . S
C1085 C1087 1.353 . S
C1085 H1141 0.929 . S
C1086 C1082 1.356 . S
C1086 C1083 1.358 . S
C1086 H1142 0.930 . S
C1087 N1084 1.314 . S
C1087 C1085 1.353 . S
C1087 H1143 0.930 . S
C1088 N1089 1.314 . S
C1088 C1093 1.353 . S
C1088 H1094 0.930 . S
N1089 Li1072 1.990 . S
N1089 C1088 1.314 . S
N1089 C1091 1.279 . S
C1090 C1091 1.358 . S
C1090 C1092 1.356 . S
C1090 H1144 0.930 . S
C1091 N1089 1.279 . S
C1091 C1090 1.358 . S
C1091 H1095 0.930 . S
C1092 C1090 1.356 . S
C1092 C1093 1.348 . S
C1093 C1088 1.353 . S
C1093 C1092 1.348 . S
C1093 H1145 0.929 . S
H1094 C1088 0.930 . S
H1095 C1091 0.930 . S
C1096 N1097 1.314 . S
C1096 C1098 1.353 . S
C1096 H1102 0.930 . S
N1097 Li1073 1.990 . S
N1097 C1096 1.314 . S
N1097 C1100 1.279 . S
C1098 C1096 1.353 . S
C1098 C1101 1.348 . S
C1098 H1146 0.929 . S
C1099 C1100 1.358 . S
C1099 C1101 1.356 . S
C1099 H1147 0.930 . S
C1100 N1097 1.279 . S
C1100 C1099 1.358 . S
C1100 H1103 0.930 . S
C1101 C1098 1.348 . S
C1101 C1099 1.356 . S
H1102 C1096 0.930 . S
H1103 C1100 0.930 . S
C1104 C1106 1.348 . S
C1104 C1107 1.356 . S
C1104 O1134 1.325 . S
N1105 C1108 1.314 . S
N1105 C1109 1.279 . S
C1106 C1104 1.348 . S
C1106 C1108 1.353 . S
C1106 H1148 0.929 . S
C1107 C1104 1.356 . S
C1107 C1109 1.358 . S
C1107 H1149 0.930 . S
C1108 N1105 1.314 . S
C1108 C1106 1.353 . S
C1108 H1150 0.930 . S
C1109 N1105 1.279 . S
C1109 C1107 1.358 . S
C1109 H1151 0.930 . S
C1110 C1111 1.348 . S
C1110 C1112 1.356 1_455 S
C1110 O1135 1.325 . S
C1111 C1110 1.348 . S
C1111 C1113 1.353 . S
C1111 H1152 0.929 . S
C1112 C1110 1.356 1_655 S
C1112 C1114 1.358 . S
C1112 H1153 0.930 . S
C1113 C1111 1.353 . S
C1113 N1115 1.314 1_455 S
C1113 H1154 0.930 . S
C1114 C1112 1.358 . S
C1114 N1115 1.279 . S
C1114 H1155 0.930 . S
N1115 C1113 1.314 1_655 S
N1115 C1114 1.279 . S
C1116 C1118 1.353 . S
C1116 N1119 1.314 . S
C1116 H1122 0.930 . S
C1117 N1119 1.279 . S
C1117 C1120 1.358 . S
C1117 H1123 0.930 . S
C1118 C1116 1.353 . S
C1118 C1121 1.348 . S
C1118 H1156 0.929 . S
N1119 Li1074 1.990 . S
N1119 C1116 1.314 . S
N1119 C1117 1.279 . S
C1120 C1117 1.358 . S
C1120 C1121 1.356 . S
C1120 H1157 0.930 . S
C1121 C1118 1.348 . S
C1121 C1120 1.356 . S
H1122 C1116 0.930 . S
H1123 C1117 0.930 . S
C1124 N1125 1.307 1_655 S
C1124 C1126 1.353 . S
C1124 H1130 0.930 . S
N1125 Li1075 1.997 . S
N1125 C1124 1.307 1_455 S
N1125 C1128 1.287 . S
C1126 C1124 1.353 . S
C1126 C1129 1.348 . S
C1126 H1158 0.929 . S
C1127 C1128 1.358 . S
C1127 C1129 1.356 1_455 S
C1127 H1159 0.927 . S
C1128 N1125 1.287 . S
C1128 C1127 1.358 . S
C1128 H1131 0.930 . S
C1129 C1126 1.348 . S
C1129 C1127 1.356 1_655 S
H1130 C1124 0.930 . S
H1131 C1128 0.930 . S
O1132 Li1072 1.956 . S
O1132 Li1073 1.970 1_455 S
O1132 Li1074 1.961 . S
O1132 C1076 1.325 . S
O1133 Li1072 1.970 1_655 S
O1133 Li1073 1.956 . S
O1133 Li1075 1.961 1_655 S
O1133 C1082 1.325 . S
O1134 Li1072 1.961 . S
O1134 Li1074 1.956 . S
O1134 Li1075 1.970 . S
O1134 C1104 1.325 . S
O1135 Li1073 1.961 1_455 S
O1135 Li1074 1.970 . S
O1135 Li1075 1.956 . S
O1135 C1110 1.325 . S
H1136 C1078 0.929 1_655 S
H1137 C1079 0.930 . S
H1138 C1080 0.930 1_655 S
H1139 C1081 0.930 . S
H1140 C1083 0.930 . S
H1141 C1085 0.929 . S
H1142 C1086 0.930 . S
H1143 C1087 0.930 . S
H1144 C1090 0.930 . S
H1145 C1093 0.929 . S
H1146 C1098 0.929 . S
H1147 C1099 0.930 . S
H1148 C1106 0.929 . S
H1149 C1107 0.930 . S
H1150 C1108 0.930 . S
H1151 C1109 0.930 . S
H1152 C1111 0.929 . S
H1153 C1112 0.930 . S
H1154 C1113 0.930 . S
H1155 C1114 0.930 . S
H1156 C1118 0.929 . S
H1157 C1120 0.930 . S
H1158 C1126 0.929 . S
H1159 C1127 0.927 . S
Li1160 N1177 1.990 . S
Li1160 O1220 1.956 . S
Li1160 O1221 1.970 . S
Li1160 O1222 1.961 . S
Li1161 N1185 1.990 . S
Li1161 O1220 1.970 . S
Li1161 O1221 1.956 . S
Li1161 O1223 1.961 . S
Li1162 N1207 1.990 . S
Li1162 O1220 1.961 . S
Li1162 O1222 1.956 . S
Li1162 O1223 1.970 . S
Li1163 N1213 1.990 . S
Li1163 O1221 1.961 . S
Li1163 O1222 1.970 . S
Li1163 O1223 1.956 . S
C1164 C1166 1.348 . S
C1164 C1167 1.356 . S
C1164 O1220 1.325 . S
N1165 C1168 1.314 . S
N1165 C1169 1.279 . S
C1166 C1164 1.348 . S
C1166 C1168 1.353 . S
C1166 H1224 0.929 . S
C1167 C1164 1.356 . S
C1167 C1169 1.358 . S
C1167 H1225 0.930 . S
C1168 N1165 1.314 . S
C1168 C1166 1.353 . S
C1168 H1226 0.930 . S
C1169 N1165 1.279 . S
C1169 C1167 1.358 . S
C1169 H1227 0.930 . S
C1170 C1173 1.348 . S
C1170 C1174 1.356 . S
C1170 O1221 1.325 . S
C1171 N1172 1.279 . S
C1171 C1174 1.358 . S
C1171 H1228 0.930 . S
N1172 C1171 1.279 . S
N1172 C1175 1.314 . S
C1173 C1170 1.348 . S
C1173 C1175 1.353 . S
C1173 H1229 0.929 . S
C1174 C1170 1.356 . S
C1174 C1171 1.358 . S
C1174 H1230 0.930 . S
C1175 N1172 1.314 . S
C1175 C1173 1.353 . S
C1175 H1231 0.930 . S
C1176 N1177 1.314 . S
C1176 C1181 1.353 . S
C1176 H1182 0.930 . S
N1177 Li1160 1.990 . S
N1177 C1176 1.314 . S
N1177 C1179 1.279 . S
C1178 C1179 1.358 . S
C1178 C1180 1.356 . S
C1178 H1232 0.930 . S
C1179 N1177 1.279 . S
C1179 C1178 1.358 . S
C1179 H1183 0.930 . S
C1180 C1178 1.356 . S
C1180 C1181 1.348 . S
C1181 C1176 1.353 . S
C1181 C1180 1.348 . S
C1181 H1233 0.929 . S
H1182 C1176 0.930 . S
H1183 C1179 0.930 . S
C1184 N1185 1.314 . S
C1184 C1186 1.353 . S
C1184 H1190 0.930 . S
N1185 Li1161 1.990 . S
N1185 C1184 1.314 . S
N1185 C1188 1.279 . S
C1186 C1184 1.353 . S
C1186 C1189 1.348 . S
C1186 H1234 0.929 . S
C1187 C1188 1.358 . S
C1187 C1189 1.356 . S
C1187 H1235 0.930 . S
C1188 N1185 1.279 . S
C1188 C1187 1.358 . S
C1188 H1191 0.930 . S
C1189 C1186 1.348 . S
C1189 C1187 1.356 . S
H1190 C1184 0.930 . S
H1191 C1188 0.930 . S
C1192 C1194 1.348 . S
C1192 C1195 1.356 . S
C1192 O1222 1.325 . S
N1193 C1196 1.314 . S
N1193 C1197 1.279 . S
C1194 C1192 1.348 . S
C1194 C1196 1.353 . S
C1194 H1236 0.929 . S
C1195 C1192 1.356 . S
C1195 C1197 1.358 . S
C1195 H1237 0.930 . S
C1196 N1193 1.314 . S
C1196 C1194 1.353 . S
C1196 H1238 0.930 . S
C1197 N1193 1.279 . S
C1197 C1195 1.358 . S
C1197 H1239 0.930 . S
C1198 C1199 1.348 . S
C1198 C1200 1.356 . S
C1198 O1223 1.325 . S
C1199 C1198 1.348 . S
C1199 C1201 1.353 . S
C1199 H1240 0.929 . S
C1200 C1198 1.356 . S
C1200 C1202 1.358 . S
C1200 H1241 0.930 . S
C1201 C1199 1.353 . S
C1201 N1203 1.314 . S
C1201 H1242 0.930 . S
C1202 C1200 1.358 . S
C1202 N1203 1.279 . S
C1202 H1243 0.930 . S
N1203 C1201 1.314 . S
N1203 C1202 1.279 . S
C1204 C1206 1.353 . S
C1204 N1207 1.314 . S
C1204 H1210 0.930 . S
C1205 N1207 1.279 . S
C1205 C1208 1.358 . S
C1205 H1211 0.930 . S
C1206 C1204 1.353 . S
C1206 C1209 1.348 . S
C1206 H1244 0.929 . S
N1207 Li1162 1.990 . S
N1207 C1204 1.314 . S
N1207 C1205 1.279 . S
C1208 C1205 1.358 . S
C1208 C1209 1.356 . S
C1208 H1245 0.930 . S
C1209 C1206 1.348 . S
C1209 C1208 1.356 . S
H1210 C1204 0.930 . S
H1211 C1205 0.930 . S
C1212 N1213 1.314 . S
C1212 C1214 1.353 . S
C1212 H1218 0.930 . S
N1213 Li1163 1.990 . S
N1213 C1212 1.314 . S
N1213 C1216 1.279 . S
C1214 C1212 1.353 . S
C1214 C1217 1.348 . S
C1214 H1246 0.929 . S
C1215 C1216 1.358 . S
C1215 C1217 1.356 . S
C1215 H1247 0.930 . S
C1216 N1213 1.279 . S
C1216 C1215 1.358 . S
C1216 H1219 0.930 . S
C1217 C1214 1.348 . S
C1217 C1215 1.356 . S
H1218 C1212 0.930 . S
H1219 C1216 0.930 . S
O1220 Li1160 1.956 . S
O1220 Li1161 1.970 . S
O1220 Li1162 1.961 . S
O1220 C1164 1.325 . S
O1221 Li1160 1.970 . S
O1221 Li1161 1.956 . S
O1221 Li1163 1.961 . S
O1221 C1170 1.325 . S
O1222 Li1160 1.961 . S
O1222 Li1162 1.956 . S
O1222 Li1163 1.970 . S
O1222 C1192 1.325 . S
O1223 Li1161 1.961 . S
O1223 Li1162 1.970 . S
O1223 Li1163 1.956 . S
O1223 C1198 1.325 . S
H1224 C1166 0.929 . S
H1225 C1167 0.930 . S
H1226 C1168 0.930 . S
H1227 C1169 0.930 . S
H1228 C1171 0.930 . S
H1229 C1173 0.929 . S
H1230 C1174 0.930 . S
H1231 C1175 0.930 . S
H1232 C1178 0.930 . S
H1233 C1181 0.929 . S
H1234 C1186 0.929 . S
H1235 C1187 0.930 . S
H1236 C1194 0.929 . S
H1237 C1195 0.930 . S
H1238 C1196 0.930 . S
H1239 C1197 0.930 . S
H1240 C1199 0.929 . S
H1241 C1200 0.930 . S
H1242 C1201 0.930 . S
H1243 C1202 0.930 . S
H1244 C1206 0.929 . S
H1245 C1208 0.930 . S
H1246 C1214 0.929 . S
H1247 C1215 0.930 . S
H1248 C1260 0.930 . S
H1249 C1262 0.930 . S
H1250 C1263 0.930 . S
H1251 C1267 0.959 . S
H1252 C1267 0.959 . S
H1253 C1267 0.961 . S
H1254 C1268 0.960 . S
H1255 C1268 0.961 . S
H1256 C1268 0.959 . S
H1257 C1271 0.929 . S
H1258 C1272 0.931 . S
H1259 C1274 0.930 . S
C1260 H1248 0.930 . S
C1260 C1261 1.399 . S
C1260 C1265 1.399 . S
C1261 C1260 1.399 . S
C1261 C1262 1.376 . S
C1262 H1249 0.930 . S
C1262 C1261 1.376 . S
C1262 C1263 1.388 . S
C1263 H1250 0.930 . S
C1263 C1262 1.388 . S
C1263 C1264 1.390 . S
C1264 C1263 1.390 . S
C1264 C1265 1.394 . S
C1264 C1270 1.465 . S
C1265 C1260 1.399 . S
C1265 C1264 1.394 . S
C1265 C1266 1.516 . S
C1266 C1265 1.516 . S
C1266 C1267 1.502 . S
C1266 C1268 1.561 . S
C1266 C1269 1.526 . S
C1267 H1251 0.959 . S
C1267 H1252 0.959 . S
C1267 H1253 0.961 . S
C1267 C1266 1.502 . S
C1268 H1254 0.960 . S
C1268 H1255 0.961 . S
C1268 H1256 0.959 . S
C1268 C1266 1.561 . S
C1269 C1266 1.526 . S
C1269 C1270 1.396 . S
C1269 C1274 1.390 . S
C1270 C1264 1.465 . S
C1270 C1269 1.396 . S
C1270 C1271 1.399 . S
C1271 H1257 0.929 . S
C1271 C1270 1.399 . S
C1271 C1272 1.385 . S
C1272 H1258 0.931 . S
C1272 C1271 1.385 . S
C1272 C1273 1.389 . S
C1273 C1272 1.389 . S
C1273 C1274 1.387 . S
C1274 H1259 0.930 . S
C1274 C1269 1.390 . S
C1274 C1273 1.387 . S
H1275 C1287 0.930 . S
H1276 C1289 0.930 . S
H1277 C1290 0.930 . S
H1278 C1294 0.959 . S
H1279 C1294 0.959 . S
H1280 C1294 0.961 . S
H1281 C1295 0.960 . S
H1282 C1295 0.961 . S
H1283 C1295 0.959 . S
H1284 C1298 0.929 . S
H1285 C1299 0.931 . S
H1286 C1301 0.930 . S
C1287 H1275 0.930 . S
C1287 C1288 1.399 . S
C1287 C1292 1.399 . S
C1288 C1287 1.399 . S
C1288 C1289 1.376 . S
C1289 H1276 0.930 . S
C1289 C1288 1.376 . S
C1289 C1290 1.388 . S
C1290 H1277 0.930 . S
C1290 C1289 1.388 . S
C1290 C1291 1.390 . S
C1291 C1290 1.390 . S
C1291 C1292 1.394 . S
C1291 C1297 1.465 . S
C1292 C1287 1.399 . S
C1292 C1291 1.394 . S
C1292 C1293 1.516 . S
C1293 C1292 1.516 . S
C1293 C1294 1.502 . S
C1293 C1295 1.561 . S
C1293 C1296 1.526 . S
C1294 H1278 0.959 . S
C1294 H1279 0.959 . S
C1294 H1280 0.961 . S
C1294 C1293 1.502 . S
C1295 H1281 0.960 . S
C1295 H1282 0.961 . S
C1295 H1283 0.959 . S
C1295 C1293 1.561 . S
C1296 C1293 1.526 . S
C1296 C1297 1.396 . S
C1296 C1301 1.390 . S
C1297 C1291 1.465 . S
C1297 C1296 1.396 . S
C1297 C1298 1.399 . S
C1298 H1284 0.929 . S
C1298 C1297 1.399 . S
C1298 C1299 1.385 . S
C1299 H1285 0.931 . S
C1299 C1298 1.385 . S
C1299 C1300 1.389 . S
C1300 C1299 1.389 . S
C1300 C1301 1.387 . S
C1301 H1286 0.930 . S
C1301 C1296 1.390 . S
C1301 C1300 1.387 . S
H1302 C1314 0.930 . S
H1303 C1316 0.930 . S
H1304 C1317 0.930 . S
H1305 C1321 0.959 . S
H1306 C1321 0.959 . S
H1307 C1321 0.961 . S
H1308 C1322 0.960 . S
H1309 C1322 0.961 . S
H1310 C1322 0.959 . S
H1311 C1325 0.929 . S
H1312 C1326 0.931 . S
H1313 C1328 0.930 . S
C1314 H1302 0.930 . S
C1314 C1315 1.399 . S
C1314 C1319 1.399 . S
C1315 C1314 1.399 . S
C1315 C1316 1.376 . S
C1316 H1303 0.930 . S
C1316 C1315 1.376 . S
C1316 C1317 1.388 . S
C1317 H1304 0.930 . S
C1317 C1316 1.388 . S
C1317 C1318 1.390 . S
C1318 C1317 1.390 . S
C1318 C1319 1.394 . S
C1318 C1324 1.465 . S
C1319 C1314 1.399 . S
C1319 C1318 1.394 . S
C1319 C1320 1.516 . S
C1320 C1319 1.516 . S
C1320 C1321 1.502 . S
C1320 C1322 1.561 . S
C1320 C1323 1.526 . S
C1321 H1305 0.959 . S
C1321 H1306 0.959 . S
C1321 H1307 0.961 . S
C1321 C1320 1.502 . S
C1322 H1308 0.960 . S
C1322 H1309 0.961 . S
C1322 H1310 0.959 . S
C1322 C1320 1.561 . S
C1323 C1320 1.526 . S
C1323 C1324 1.396 . S
C1323 C1328 1.390 . S
C1324 C1318 1.465 . S
C1324 C1323 1.396 . S
C1324 C1325 1.399 . S
C1325 H1311 0.929 . S
C1325 C1324 1.399 . S
C1325 C1326 1.385 . S
C1326 H1312 0.931 . S
C1326 C1325 1.385 . S
C1326 C1327 1.389 . S
C1327 C1326 1.389 . S
C1327 C1328 1.387 . S
C1328 H1313 0.930 . S
C1328 C1323 1.390 . S
C1328 C1327 1.387 . S
H1329 C1341 0.919 1_545 S
H1330 C1343 0.930 . S
H1331 C1344 0.930 . S
H1332 C1348 0.959 1_565 S
H1333 C1348 0.959 . S
H1334 C1348 0.961 . S
H1335 C1349 0.960 . S
H1336 C1349 0.961 . S
H1337 C1349 0.959 1_455 S
H1338 C1352 0.929 . S
H1339 C1353 0.929 1_565 S
H1340 C1355 0.930 . S
C1341 H1329 0.919 1_565 S
C1341 C1342 1.424 . S
C1341 C1346 1.389 1_565 S
C1342 C1341 1.424 . S
C1342 C1343 1.376 . S
C1343 H1330 0.930 . S
C1343 C1342 1.376 . S
C1343 C1344 1.388 . S
C1344 H1331 0.930 . S
C1344 C1343 1.388 . S
C1344 C1345 1.390 . S
C1345 C1344 1.390 . S
C1345 C1346 1.394 1_565 S
C1345 C1351 1.468 . S
C1346 C1341 1.389 1_545 S
C1346 C1345 1.394 1_545 S
C1346 C1347 1.516 1_455 S
C1347 C1346 1.516 1_655 S
C1347 C1348 1.502 . S
C1347 C1349 1.561 . S
C1347 C1350 1.526 1_655 S
C1348 H1332 0.959 1_545 S
C1348 H1333 0.959 . S
C1348 H1334 0.961 . S
C1348 C1347 1.502 . S
C1349 H1335 0.960 . S
C1349 H1336 0.961 . S
C1349 H1337 0.959 1_655 S
C1349 C1347 1.561 . S
C1350 C1347 1.526 1_455 S
C1350 C1351 1.390 1_545 S
C1350 C1355 1.390 1_455 S
C1351 C1345 1.468 . S
C1351 C1350 1.390 1_565 S
C1351 C1352 1.401 . S
C1352 H1338 0.929 . S
C1352 C1351 1.401 . S
C1352 C1353 1.382 1_565 S
C1353 H1339 0.929 1_545 S
C1353 C1352 1.382 1_545 S
C1353 C1354 1.394 1_455 S
C1354 C1353 1.394 1_655 S
C1354 C1355 1.387 . S
C1355 H1340 0.930 . S
C1355 C1350 1.390 1_655 S
C1355 C1354 1.387 . S
H1356 C1368 0.930 . S
H1357 C1370 0.930 . S
H1358 C1371 0.930 . S
H1359 C1375 0.959 . S
H1360 C1375 0.959 . S
H1361 C1375 0.961 . S
H1362 C1376 0.960 . S
H1363 C1376 0.961 . S
H1364 C1376 0.959 . S
H1365 C1379 0.929 . S
H1366 C1380 0.931 . S
H1367 C1382 0.930 . S
C1368 H1356 0.930 . S
C1368 C1369 1.399 . S
C1368 C1373 1.399 . S
C1369 C1368 1.399 . S
C1369 C1370 1.376 . S
C1370 H1357 0.930 . S
C1370 C1369 1.376 . S
C1370 C1371 1.388 . S
C1371 H1358 0.930 . S
C1371 C1370 1.388 . S
C1371 C1372 1.390 . S
C1372 C1371 1.390 . S
C1372 C1373 1.394 . S
C1372 C1378 1.465 . S
C1373 C1368 1.399 . S
C1373 C1372 1.394 . S
C1373 C1374 1.516 . S
C1374 C1373 1.516 . S
C1374 C1375 1.502 . S
C1374 C1376 1.561 . S
C1374 C1377 1.526 . S
C1375 H1359 0.959 . S
C1375 H1360 0.959 . S
C1375 H1361 0.961 . S
C1375 C1374 1.502 . S
C1376 H1362 0.960 . S
C1376 H1363 0.961 . S
C1376 H1364 0.959 . S
C1376 C1374 1.561 . S
C1377 C1374 1.526 . S
C1377 C1378 1.396 . S
C1377 C1382 1.390 . S
C1378 C1372 1.465 . S
C1378 C1377 1.396 . S
C1378 C1379 1.399 . S
C1379 H1365 0.929 . S
C1379 C1378 1.399 . S
C1379 C1380 1.385 . S
C1380 H1366 0.931 . S
C1380 C1379 1.385 . S
C1380 C1381 1.389 . S
C1381 C1380 1.389 . S
C1381 C1382 1.387 . S
C1382 H1367 0.930 . S
C1382 C1377 1.390 . S
C1382 C1381 1.387 . S
H1383 C1395 0.930 . S
H1384 C1397 0.930 . S
H1385 C1398 0.930 . S
H1386 C1402 0.959 . S
H1387 C1402 0.959 . S
H1388 C1402 0.961 . S
H1389 C1403 0.960 . S
H1390 C1403 0.961 . S
H1391 C1403 0.959 . S
H1392 C1406 0.929 . S
H1393 C1407 0.931 . S
H1394 C1409 0.930 . S
C1395 H1383 0.930 . S
C1395 C1396 1.399 . S
C1395 C1400 1.399 . S
C1396 C1395 1.399 . S
C1396 C1397 1.376 . S
C1397 H1384 0.930 . S
C1397 C1396 1.376 . S
C1397 C1398 1.388 . S
C1398 H1385 0.930 . S
C1398 C1397 1.388 . S
C1398 C1399 1.390 . S
C1399 C1398 1.390 . S
C1399 C1400 1.394 . S
C1399 C1405 1.465 . S
C1400 C1395 1.399 . S
C1400 C1399 1.394 . S
C1400 C1401 1.516 . S
C1401 C1400 1.516 . S
C1401 C1402 1.502 . S
C1401 C1403 1.561 . S
C1401 C1404 1.526 . S
C1402 H1386 0.959 . S
C1402 H1387 0.959 . S
C1402 H1388 0.961 . S
C1402 C1401 1.502 . S
C1403 H1389 0.960 . S
C1403 H1390 0.961 . S
C1403 H1391 0.959 . S
C1403 C1401 1.561 . S
C1404 C1401 1.526 . S
C1404 C1405 1.396 . S
C1404 C1409 1.390 . S
C1405 C1399 1.465 . S
C1405 C1404 1.396 . S
C1405 C1406 1.399 . S
C1406 H1392 0.929 . S
C1406 C1405 1.399 . S
C1406 C1407 1.385 . S
C1407 H1393 0.931 . S
C1407 C1406 1.385 . S
C1407 C1408 1.389 . S
C1408 C1407 1.389 . S
C1408 C1409 1.387 . S
C1409 H1394 0.930 . S
C1409 C1404 1.390 . S
C1409 C1408 1.387 . S
H1410 C1422 0.930 . S
H1411 C1424 0.930 . S
H1412 C1425 0.930 . S
H1413 C1429 0.959 . S
H1414 C1429 0.959 . S
H1415 C1429 0.961 . S
H1416 C1430 0.960 . S
H1417 C1430 0.961 . S
H1418 C1430 0.959 . S
H1419 C1433 0.929 . S
H1420 C1434 0.931 . S
H1421 C1436 0.930 . S
C1422 H1410 0.930 . S
C1422 C1423 1.399 . S
C1422 C1427 1.399 . S
C1423 C1422 1.399 . S
C1423 C1424 1.376 . S
C1424 H1411 0.930 . S
C1424 C1423 1.376 . S
C1424 C1425 1.388 . S
C1425 H1412 0.930 . S
C1425 C1424 1.388 . S
C1425 C1426 1.390 . S
C1426 C1425 1.390 . S
C1426 C1427 1.394 . S
C1426 C1432 1.465 . S
C1427 C1422 1.399 . S
C1427 C1426 1.394 . S
C1427 C1428 1.516 . S
C1428 C1427 1.516 . S
C1428 C1429 1.502 . S
C1428 C1430 1.561 . S
C1428 C1431 1.526 . S
C1429 H1413 0.959 . S
C1429 H1414 0.959 . S
C1429 H1415 0.961 . S
C1429 C1428 1.502 . S
C1430 H1416 0.960 . S
C1430 H1417 0.961 . S
C1430 H1418 0.959 . S
C1430 C1428 1.561 . S
C1431 C1428 1.526 . S
C1431 C1432 1.396 . S
C1431 C1436 1.390 . S
C1432 C1426 1.465 . S
C1432 C1431 1.396 . S
C1432 C1433 1.399 . S
C1433 H1419 0.929 . S
C1433 C1432 1.399 . S
C1433 C1434 1.385 . S
C1434 H1420 0.931 . S
C1434 C1433 1.385 . S
C1434 C1435 1.389 . S
C1435 C1434 1.389 . S
C1435 C1436 1.387 . S
C1436 H1421 0.930 . S
C1436 C1431 1.390 . S
C1436 C1435 1.387 . S
H1437 C1449 0.930 1_545 S
H1438 C1451 0.930 . S
H1439 C1452 0.930 . S
H1440 C1456 0.991 . S
H1441 C1456 0.959 . S
H1442 C1456 0.961 . S
H1443 C1457 0.960 . S
H1444 C1457 0.961 . S
H1445 C1457 0.959 . S
H1446 C1460 0.929 . S
H1447 C1461 0.931 . S
H1448 C1463 0.930 1_545 S
C1449 H1437 0.930 1_565 S
C1449 C1450 1.399 . S
C1449 C1454 1.399 . S
C1450 C1449 1.399 . S
C1450 C1451 1.376 . S
C1451 H1438 0.930 . S
C1451 C1450 1.376 . S
C1451 C1452 1.388 . S
C1452 H1439 0.930 . S
C1452 C1451 1.388 . S
C1452 C1453 1.390 . S
C1453 C1452 1.390 . S
C1453 C1454 1.394 . S
C1453 C1459 1.465 . S
C1454 C1449 1.399 . S
C1454 C1453 1.394 . S
C1454 C1455 1.516 1_565 S
C1455 C1454 1.516 1_545 S
C1455 C1456 1.502 . S
C1455 C1457 1.561 . S
C1455 C1458 1.526 1_545 S
C1456 H1440 0.991 . S
C1456 H1441 0.959 . S
C1456 H1442 0.961 . S
C1456 C1455 1.502 . S
C1457 H1443 0.960 . S
C1457 H1444 0.961 . S
C1457 H1445 0.959 . S
C1457 C1455 1.561 . S
C1458 C1455 1.526 1_565 S
C1458 C1459 1.396 . S
C1458 C1463 1.390 . S
C1459 C1453 1.465 . S
C1459 C1458 1.396 . S
C1459 C1460 1.399 . S
C1460 H1446 0.929 . S
C1460 C1459 1.399 . S
C1460 C1461 1.385 . S
C1461 H1447 0.931 . S
C1461 C1460 1.385 . S
C1461 C1462 1.389 . S
C1462 C1461 1.389 . S
C1462 C1463 1.387 . S
C1463 H1448 0.930 1_565 S
C1463 C1458 1.390 . S
C1463 C1462 1.387 . S
H1464 C1476 0.930 . S
H1465 C1478 0.930 . S
H1466 C1479 0.930 . S
H1467 C1483 0.959 . S
H1468 C1483 0.959 . S
H1469 C1483 0.961 . S
H1470 C1484 0.960 . S
H1471 C1484 0.961 . S
H1472 C1484 0.959 . S
H1473 C1487 0.929 . S
H1474 C1488 0.931 . S
H1475 C1490 0.930 . S
C1476 H1464 0.930 . S
C1476 C1477 1.399 . S
C1476 C1481 1.399 . S
C1477 C1476 1.399 . S
C1477 C1478 1.376 . S
C1478 H1465 0.930 . S
C1478 C1477 1.376 . S
C1478 C1479 1.388 . S
C1479 H1466 0.930 . S
C1479 C1478 1.388 . S
C1479 C1480 1.390 . S
C1480 C1479 1.390 . S
C1480 C1481 1.394 . S
C1480 C1486 1.465 . S
C1481 C1476 1.399 . S
C1481 C1480 1.394 . S
C1481 C1482 1.516 . S
C1482 C1481 1.516 . S
C1482 C1483 1.502 . S
C1482 C1484 1.561 . S
C1482 C1485 1.526 . S
C1483 H1467 0.959 . S
C1483 H1468 0.959 . S
C1483 H1469 0.961 . S
C1483 C1482 1.502 . S
C1484 H1470 0.960 . S
C1484 H1471 0.961 . S
C1484 H1472 0.959 . S
C1484 C1482 1.561 . S
C1485 C1482 1.526 . S
C1485 C1486 1.396 . S
C1485 C1490 1.390 . S
C1486 C1480 1.465 . S
C1486 C1485 1.396 . S
C1486 C1487 1.399 . S
C1487 H1473 0.929 . S
C1487 C1486 1.399 . S
C1487 C1488 1.385 . S
C1488 H1474 0.931 . S
C1488 C1487 1.385 . S
C1488 C1489 1.389 . S
C1489 C1488 1.389 . S
C1489 C1490 1.387 . S
C1490 H1475 0.930 . S
C1490 C1485 1.390 . S
C1490 C1489 1.387 . S
H1491 C1503 0.930 . S
H1492 C1505 0.930 . S
H1493 C1506 0.930 . S
H1494 C1510 0.959 . S
H1495 C1510 0.959 . S
H1496 C1510 0.961 . S
H1497 C1511 0.960 . S
H1498 C1511 0.961 . S
H1499 C1511 0.959 . S
H1500 C1514 0.929 . S
H1501 C1515 0.931 . S
H1502 C1517 0.930 . S
C1503 H1491 0.930 . S
C1503 C1504 1.399 . S
C1503 C1508 1.399 . S
C1504 C1503 1.399 . S
C1504 C1505 1.376 . S
C1505 H1492 0.930 . S
C1505 C1504 1.376 . S
C1505 C1506 1.388 . S
C1506 H1493 0.930 . S
C1506 C1505 1.388 . S
C1506 C1507 1.390 . S
C1507 C1506 1.390 . S
C1507 C1508 1.394 . S
C1507 C1513 1.465 . S
C1508 C1503 1.399 . S
C1508 C1507 1.394 . S
C1508 C1509 1.516 . S
C1509 C1508 1.516 . S
C1509 C1510 1.502 . S
C1509 C1511 1.561 . S
C1509 C1512 1.526 . S
C1510 H1494 0.959 . S
C1510 H1495 0.959 . S
C1510 H1496 0.961 . S
C1510 C1509 1.502 . S
C1511 H1497 0.960 . S
C1511 H1498 0.961 . S
C1511 H1499 0.959 . S
C1511 C1509 1.561 . S
C1512 C1509 1.526 . S
C1512 C1513 1.396 . S
C1512 C1517 1.390 . S
C1513 C1507 1.465 . S
C1513 C1512 1.396 . S
C1513 C1514 1.399 . S
C1514 H1500 0.929 . S
C1514 C1513 1.399 . S
C1514 C1515 1.385 . S
C1515 H1501 0.931 . S
C1515 C1514 1.385 . S
C1515 C1516 1.389 . S
C1516 C1515 1.389 . S
C1516 C1517 1.387 . S
C1517 H1502 0.930 . S
C1517 C1512 1.390 . S
C1517 C1516 1.387 . S
H1518 C1530 0.930 . S
H1519 C1532 0.930 . S
H1520 C1533 0.930 . S
H1521 C1537 0.959 . S
H1522 C1537 0.959 . S
H1523 C1537 0.961 . S
H1524 C1538 0.960 . S
H1525 C1538 0.961 . S
H1526 C1538 0.959 . S
H1527 C1541 0.929 . S
H1528 C1542 0.931 . S
H1529 C1544 0.930 . S
C1530 H1518 0.930 . S
C1530 C1531 1.399 . S
C1530 C1535 1.399 . S
C1531 C1530 1.399 . S
C1531 C1532 1.376 . S
C1532 H1519 0.930 . S
C1532 C1531 1.376 . S
C1532 C1533 1.388 . S
C1533 H1520 0.930 . S
C1533 C1532 1.388 . S
C1533 C1534 1.390 . S
C1534 C1533 1.390 . S
C1534 C1535 1.394 . S
C1534 C1540 1.465 . S
C1535 C1530 1.399 . S
C1535 C1534 1.394 . S
C1535 C1536 1.516 . S
C1536 C1535 1.516 . S
C1536 C1537 1.502 . S
C1536 C1538 1.561 . S
C1536 C1539 1.526 . S
C1537 H1521 0.959 . S
C1537 H1522 0.959 . S
C1537 H1523 0.961 . S
C1537 C1536 1.502 . S
C1538 H1524 0.960 . S
C1538 H1525 0.961 . S
C1538 H1526 0.959 . S
C1538 C1536 1.561 . S
C1539 C1536 1.526 . S
C1539 C1540 1.396 . S
C1539 C1544 1.390 . S
C1540 C1534 1.465 . S
C1540 C1539 1.396 . S
C1540 C1541 1.399 . S
C1541 H1527 0.929 . S
C1541 C1540 1.399 . S
C1541 C1542 1.385 . S
C1542 H1528 0.931 . S
C1542 C1541 1.385 . S
C1542 C1543 1.389 . S
C1543 C1542 1.389 . S
C1543 C1544 1.387 . S
C1544 H1529 0.930 . S
C1544 C1539 1.390 . S
C1544 C1543 1.387 . S
H1545 C1557 0.930 . S
H1546 C1559 0.930 . S
H1547 C1560 0.930 . S
H1548 C1564 0.959 . S
H1549 C1564 0.959 . S
H1550 C1564 0.961 . S
H1551 C1565 0.960 . S
H1552 C1565 0.961 . S
H1553 C1565 0.959 . S
H1554 C1568 0.929 . S
H1555 C1569 0.931 . S
H1556 C1571 0.930 . S
C1557 H1545 0.930 . S
C1557 C1558 1.399 . S
C1557 C1562 1.399 . S
C1558 C1557 1.399 . S
C1558 C1559 1.376 . S
C1559 H1546 0.930 . S
C1559 C1558 1.376 . S
C1559 C1560 1.388 . S
C1560 H1547 0.930 . S
C1560 C1559 1.388 . S
C1560 C1561 1.390 . S
C1561 C1560 1.390 . S
C1561 C1562 1.394 . S
C1561 C1567 1.465 . S
C1562 C1557 1.399 . S
C1562 C1561 1.394 . S
C1562 C1563 1.516 . S
C1563 C1562 1.516 . S
C1563 C1564 1.502 . S
C1563 C1565 1.561 . S
C1563 C1566 1.526 . S
C1564 H1548 0.959 . S
C1564 H1549 0.959 . S
C1564 H1550 0.961 . S
C1564 C1563 1.502 . S
C1565 H1551 0.960 . S
C1565 H1552 0.961 . S
C1565 H1553 0.959 . S
C1565 C1563 1.561 . S
C1566 C1563 1.526 . S
C1566 C1567 1.396 . S
C1566 C1571 1.390 . S
C1567 C1561 1.465 . S
C1567 C1566 1.396 . S
C1567 C1568 1.399 . S
C1568 H1554 0.929 . S
C1568 C1567 1.399 . S
C1568 C1569 1.385 . S
C1569 H1555 0.931 . S
C1569 C1568 1.385 . S
C1569 C1570 1.389 . S
C1570 C1569 1.389 . S
C1570 C1571 1.387 . S
C1571 H1556 0.930 . S
C1571 C1566 1.390 . S
C1571 C1570 1.387 . S
H1572 C1584 0.930 . S
H1573 C1586 0.930 . S
H1574 C1587 0.930 . S
H1575 C1591 0.959 . S
H1576 C1591 0.959 . S
H1577 C1591 0.961 . S
H1578 C1592 0.960 . S
H1579 C1592 0.961 . S
H1580 C1592 0.959 . S
H1581 C1595 0.929 . S
H1582 C1596 0.931 . S
H1583 C1598 0.930 . S
C1584 H1572 0.930 . S
C1584 C1585 1.399 . S
C1584 C1589 1.399 . S
C1585 C1584 1.399 . S
C1585 C1586 1.376 . S
C1586 H1573 0.930 . S
C1586 C1585 1.376 . S
C1586 C1587 1.388 . S
C1587 H1574 0.930 . S
C1587 C1586 1.388 . S
C1587 C1588 1.390 . S
C1588 C1587 1.390 . S
C1588 C1589 1.394 . S
C1588 C1594 1.465 . S
C1589 C1584 1.399 . S
C1589 C1588 1.394 . S
C1589 C1590 1.516 . S
C1590 C1589 1.516 . S
C1590 C1591 1.502 . S
C1590 C1592 1.561 . S
C1590 C1593 1.526 . S
C1591 H1575 0.959 . S
C1591 H1576 0.959 . S
C1591 H1577 0.961 . S
C1591 C1590 1.502 . S
C1592 H1578 0.960 . S
C1592 H1579 0.961 . S
C1592 H1580 0.959 . S
C1592 C1590 1.561 . S
C1593 C1590 1.526 . S
C1593 C1594 1.396 . S
C1593 C1598 1.390 . S
C1594 C1588 1.465 . S
C1594 C1593 1.396 . S
C1594 C1595 1.399 . S
C1595 H1581 0.929 . S
C1595 C1594 1.399 . S
C1595 C1596 1.385 . S
C1596 H1582 0.931 . S
C1596 C1595 1.385 . S
C1596 C1597 1.389 . S
C1597 C1596 1.389 . S
C1597 C1598 1.387 . S
C1598 H1583 0.930 . S
C1598 C1593 1.390 . S
C1598 C1597 1.387 . S
H1599 C1611 0.930 . S
H1600 C1613 0.930 . S
H1601 C1614 0.930 . S
H1602 C1618 0.959 . S
H1603 C1618 0.959 . S
H1604 C1618 0.961 . S
H1605 C1619 0.960 . S
H1606 C1619 0.961 . S
H1607 C1619 0.959 . S
H1608 C1622 0.929 . S
H1609 C1623 0.931 . S
H1610 C1625 0.930 . S
C1611 H1599 0.930 . S
C1611 C1612 1.399 . S
C1611 C1616 1.399 . S
C1612 C1611 1.399 . S
C1612 C1613 1.376 . S
C1613 H1600 0.930 . S
C1613 C1612 1.376 . S
C1613 C1614 1.388 . S
C1614 H1601 0.930 . S
C1614 C1613 1.388 . S
C1614 C1615 1.390 . S
C1615 C1614 1.390 . S
C1615 C1616 1.394 . S
C1615 C1621 1.465 . S
C1616 C1611 1.399 . S
C1616 C1615 1.394 . S
C1616 C1617 1.516 . S
C1617 C1616 1.516 . S
C1617 C1618 1.502 . S
C1617 C1619 1.561 . S
C1617 C1620 1.526 . S
C1618 H1602 0.959 . S
C1618 H1603 0.959 . S
C1618 H1604 0.961 . S
C1618 C1617 1.502 . S
C1619 H1605 0.960 . S
C1619 H1606 0.961 . S
C1619 H1607 0.959 . S
C1619 C1617 1.561 . S
C1620 C1617 1.526 . S
C1620 C1621 1.396 . S
C1620 C1625 1.390 . S
C1621 C1615 1.465 . S
C1621 C1620 1.396 . S
C1621 C1622 1.399 . S
C1622 H1608 0.929 . S
C1622 C1621 1.399 . S
C1622 C1623 1.385 . S
C1623 H1609 0.931 . S
C1623 C1622 1.385 . S
C1623 C1624 1.389 . S
C1624 C1623 1.389 . S
C1624 C1625 1.387 . S
C1625 H1610 0.930 . S
C1625 C1620 1.390 . S
C1625 C1624 1.387 . S
H1626 C1638 0.930 . S
H1627 C1640 0.930 . S
H1628 C1641 0.930 . S
H1629 C1645 0.959 . S
H1630 C1645 0.959 . S
H1631 C1645 0.961 . S
H1632 C1646 0.960 . S
H1633 C1646 0.961 . S
H1634 C1646 0.959 . S
H1635 C1649 0.929 . S
H1636 C1650 0.931 . S
H1637 C1652 0.930 . S
C1638 H1626 0.930 . S
C1638 C1639 1.399 . S
C1638 C1643 1.399 . S
C1639 C1638 1.399 . S
C1639 C1640 1.376 . S
C1640 H1627 0.930 . S
C1640 C1639 1.376 . S
C1640 C1641 1.388 . S
C1641 H1628 0.930 . S
C1641 C1640 1.388 . S
C1641 C1642 1.390 . S
C1642 C1641 1.390 . S
C1642 C1643 1.394 . S
C1642 C1648 1.465 . S
C1643 C1638 1.399 . S
C1643 C1642 1.394 . S
C1643 C1644 1.516 . S
C1644 C1643 1.516 . S
C1644 C1645 1.502 . S
C1644 C1646 1.561 . S
C1644 C1647 1.526 . S
C1645 H1629 0.959 . S
C1645 H1630 0.959 . S
C1645 H1631 0.961 . S
C1645 C1644 1.502 . S
C1646 H1632 0.960 . S
C1646 H1633 0.961 . S
C1646 H1634 0.959 . S
C1646 C1644 1.561 . S
C1647 C1644 1.526 . S
C1647 C1648 1.396 . S
C1647 C1652 1.390 . S
C1648 C1642 1.465 . S
C1648 C1647 1.396 . S
C1648 C1649 1.399 . S
C1649 H1635 0.929 . S
C1649 C1648 1.399 . S
C1649 C1650 1.385 . S
C1650 H1636 0.931 . S
C1650 C1649 1.385 . S
C1650 C1651 1.389 . S
C1651 C1650 1.389 . S
C1651 C1652 1.387 . S
C1652 H1637 0.930 . S
C1652 C1647 1.390 . S
C1652 C1651 1.387 . S
H1653 C1665 0.930 . S
H1654 C1667 0.930 . S
H1655 C1668 0.940 . S
H1656 C1672 0.959 1_455 S
H1657 C1672 0.959 . S
H1658 C1672 0.961 . S
H1659 C1673 0.960 . S
H1660 C1673 0.961 . S
H1661 C1673 0.959 . S
H1662 C1676 0.929 1_455 S
H1663 C1677 0.925 1_455 S
H1664 C1679 0.930 . S
C1665 H1653 0.930 . S
C1665 C1666 1.399 . S
C1665 C1670 1.399 . S
C1666 C1665 1.399 . S
C1666 C1667 1.376 . S
C1667 H1654 0.930 . S
C1667 C1666 1.376 . S
C1667 C1668 1.388 . S
C1668 H1655 0.940 . S
C1668 C1667 1.388 . S
C1668 C1669 1.390 . S
C1669 C1668 1.390 . S
C1669 C1670 1.394 . S
C1669 C1675 1.465 . S
C1670 C1665 1.399 . S
C1670 C1669 1.394 . S
C1670 C1671 1.516 . S
C1671 C1670 1.516 . S
C1671 C1672 1.502 . S
C1671 C1673 1.561 . S
C1671 C1674 1.526 . S
C1672 H1656 0.959 1_655 S
C1672 H1657 0.959 . S
C1672 H1658 0.961 . S
C1672 C1671 1.502 . S
C1673 H1659 0.960 . S
C1673 H1660 0.961 . S
C1673 H1661 0.959 . S
C1673 C1671 1.561 . S
C1674 C1671 1.526 . S
C1674 C1675 1.396 . S
C1674 C1679 1.390 . S
C1675 C1669 1.465 . S
C1675 C1674 1.396 . S
C1675 C1676 1.399 . S
C1676 H1662 0.929 1_655 S
C1676 C1675 1.399 . S
C1676 C1677 1.384 . S
C1677 H1663 0.925 1_655 S
C1677 C1676 1.384 . S
C1677 C1678 1.399 . S
C1678 C1677 1.399 . S
C1678 C1679 1.387 . S
C1679 H1664 0.930 . S
C1679 C1674 1.390 . S
C1679 C1678 1.387 . S
H1680 C1692 0.930 . S
H1681 C1694 0.930 . S
H1682 C1695 0.930 . S
H1683 C1699 0.959 . S
H1684 C1699 0.959 . S
H1685 C1699 0.961 . S
H1686 C1700 0.960 . S
H1687 C1700 0.961 . S
H1688 C1700 0.959 . S
H1689 C1703 0.929 . S
H1690 C1704 0.931 . S
H1691 C1706 0.930 . S
C1692 H1680 0.930 . S
C1692 C1693 1.399 . S
C1692 C1697 1.399 . S
C1693 C1692 1.399 . S
C1693 C1694 1.376 . S
C1694 H1681 0.930 . S
C1694 C1693 1.376 . S
C1694 C1695 1.388 . S
C1695 H1682 0.930 . S
C1695 C1694 1.388 . S
C1695 C1696 1.390 . S
C1696 C1695 1.390 . S
C1696 C1697 1.394 . S
C1696 C1702 1.465 . S
C1697 C1692 1.399 . S
C1697 C1696 1.394 . S
C1697 C1698 1.516 . S
C1698 C1697 1.516 . S
C1698 C1699 1.502 . S
C1698 C1700 1.561 . S
C1698 C1701 1.526 . S
C1699 H1683 0.959 . S
C1699 H1684 0.959 . S
C1699 H1685 0.961 . S
C1699 C1698 1.502 . S
C1700 H1686 0.960 . S
C1700 H1687 0.961 . S
C1700 H1688 0.959 . S
C1700 C1698 1.561 . S
C1701 C1698 1.526 . S
C1701 C1702 1.396 . S
C1701 C1706 1.390 . S
C1702 C1696 1.465 . S
C1702 C1701 1.396 . S
C1702 C1703 1.399 . S
C1703 H1689 0.929 . S
C1703 C1702 1.399 . S
C1703 C1704 1.385 . S
C1704 H1690 0.931 . S
C1704 C1703 1.385 . S
C1704 C1705 1.389 . S
C1705 C1704 1.389 . S
C1705 C1706 1.387 . S
C1706 H1691 0.930 . S
C1706 C1701 1.390 . S
C1706 C1705 1.387 . S
H1707 C1719 0.930 . S
H1708 C1721 0.930 . S
H1709 C1722 0.930 . S
H1710 C1726 0.959 . S
H1711 C1726 0.959 . S
H1712 C1726 0.961 . S
H1713 C1727 0.960 . S
H1714 C1727 0.961 . S
H1715 C1727 0.959 . S
H1716 C1730 0.929 . S
H1717 C1731 0.931 . S
H1718 C1733 0.930 . S
C1719 H1707 0.930 . S
C1719 C1720 1.399 . S
C1719 C1724 1.399 . S
C1720 C1719 1.399 . S
C1720 C1721 1.376 . S
C1721 H1708 0.930 . S
C1721 C1720 1.376 . S
C1721 C1722 1.388 . S
C1722 H1709 0.930 . S
C1722 C1721 1.388 . S
C1722 C1723 1.390 . S
C1723 C1722 1.390 . S
C1723 C1724 1.394 . S
C1723 C1729 1.465 . S
C1724 C1719 1.399 . S
C1724 C1723 1.394 . S
C1724 C1725 1.516 . S
C1725 C1724 1.516 . S
C1725 C1726 1.502 . S
C1725 C1727 1.561 . S
C1725 C1728 1.526 . S
C1726 H1710 0.959 . S
C1726 H1711 0.959 . S
C1726 H1712 0.961 . S
C1726 C1725 1.502 . S
C1727 H1713 0.960 . S
C1727 H1714 0.961 . S
C1727 H1715 0.959 . S
C1727 C1725 1.561 . S
C1728 C1725 1.526 . S
C1728 C1729 1.396 . S
C1728 C1733 1.390 . S
C1729 C1723 1.465 . S
C1729 C1728 1.396 . S
C1729 C1730 1.399 . S
C1730 H1716 0.929 . S
C1730 C1729 1.399 . S
C1730 C1731 1.385 . S
C1731 H1717 0.931 . S
C1731 C1730 1.385 . S
C1731 C1732 1.389 . S
C1732 C1731 1.389 . S
C1732 C1733 1.387 . S
C1733 H1718 0.930 . S
C1733 C1728 1.390 . S
C1733 C1732 1.387 . S
H1734 C1746 0.930 . S
H1735 C1748 0.944 1_554 S
H1736 C1749 0.930 . S
H1737 C1753 0.959 . S
H1738 C1753 0.959 . S
H1739 C1753 0.961 . S
H1740 C1754 0.960 . S
H1741 C1754 0.961 . S
H1742 C1754 0.959 . S
H1743 C1757 0.929 . S
H1744 C1758 0.931 . S
H1745 C1760 0.930 . S
C1746 H1734 0.930 . S
C1746 C1747 1.399 1_565 S
C1746 C1751 1.399 . S
C1747 C1746 1.399 1_545 S
C1747 C1748 1.384 . S
C1748 H1735 0.944 1_556 S
C1748 C1747 1.384 . S
C1748 C1749 1.369 1_546 S
C1749 H1736 0.930 . S
C1749 C1748 1.369 1_564 S
C1749 C1750 1.390 1_554 S
C1750 C1749 1.390 1_556 S
C1750 C1751 1.394 . S
C1750 C1756 1.455 1_556 S
C1751 C1746 1.399 . S
C1751 C1750 1.394 . S
C1751 C1752 1.516 . S
C1752 C1751 1.516 . S
C1752 C1753 1.502 . S
C1752 C1754 1.561 . S
C1752 C1755 1.526 . S
C1753 H1737 0.959 . S
C1753 H1738 0.959 . S
C1753 H1739 0.961 . S
C1753 C1752 1.502 . S
C1754 H1740 0.960 . S
C1754 H1741 0.961 . S
C1754 H1742 0.959 . S
C1754 C1752 1.561 . S
C1755 C1752 1.526 . S
C1755 C1756 1.372 1_556 S
C1755 C1760 1.390 . S
C1756 C1750 1.455 1_554 S
C1756 C1755 1.372 1_554 S
C1756 C1757 1.428 . S
C1757 H1743 0.929 . S
C1757 C1756 1.428 . S
C1757 C1758 1.385 . S
C1758 H1744 0.931 . S
C1758 C1757 1.385 . S
C1758 C1759 1.389 . S
C1759 C1758 1.389 . S
C1759 C1760 1.387 1_554 S
C1760 H1745 0.930 . S
C1760 C1755 1.390 . S
C1760 C1759 1.387 1_556 S
H1761 C1773 0.930 . S
H1762 C1775 0.930 . S
H1763 C1776 0.930 . S
H1764 C1780 0.959 . S
H1765 C1780 0.959 . S
H1766 C1780 0.961 . S
H1767 C1781 0.960 . S
H1768 C1781 0.961 . S
H1769 C1781 0.959 . S
H1770 C1784 0.929 . S
H1771 C1785 0.931 . S
H1772 C1787 0.930 . S
C1773 H1761 0.930 . S
C1773 C1774 1.399 . S
C1773 C1778 1.399 . S
C1774 C1773 1.399 . S
C1774 C1775 1.376 . S
C1775 H1762 0.930 . S
C1775 C1774 1.376 . S
C1775 C1776 1.388 . S
C1776 H1763 0.930 . S
C1776 C1775 1.388 . S
C1776 C1777 1.390 . S
C1777 C1776 1.390 . S
C1777 C1778 1.394 . S
C1777 C1783 1.465 . S
C1778 C1773 1.399 . S
C1778 C1777 1.394 . S
C1778 C1779 1.516 . S
C1779 C1778 1.516 . S
C1779 C1780 1.502 . S
C1779 C1781 1.561 . S
C1779 C1782 1.526 . S
C1780 H1764 0.959 . S
C1780 H1765 0.959 . S
C1780 H1766 0.961 . S
C1780 C1779 1.502 . S
C1781 H1767 0.960 . S
C1781 H1768 0.961 . S
C1781 H1769 0.959 . S
C1781 C1779 1.561 . S
C1782 C1779 1.526 . S
C1782 C1783 1.396 . S
C1782 C1787 1.390 . S
C1783 C1777 1.465 . S
C1783 C1782 1.396 . S
C1783 C1784 1.399 . S
C1784 H1770 0.929 . S
C1784 C1783 1.399 . S
C1784 C1785 1.385 . S
C1785 H1771 0.931 . S
C1785 C1784 1.385 . S
C1785 C1786 1.389 . S
C1786 C1785 1.389 . S
C1786 C1787 1.387 . S
C1787 H1772 0.930 . S
C1787 C1782 1.390 . S
C1787 C1786 1.387 . S
H1788 C1800 0.930 . S
H1789 C1802 0.930 . S
H1790 C1803 0.930 . S
H1791 C1807 0.959 . S
H1792 C1807 0.959 . S
H1793 C1807 0.961 . S
H1794 C1808 0.960 . S
H1795 C1808 0.961 . S
H1796 C1808 0.959 . S
H1797 C1811 0.929 . S
H1798 C1812 0.931 . S
H1799 C1814 0.930 . S
C1800 H1788 0.930 . S
C1800 C1801 1.399 . S
C1800 C1805 1.399 . S
C1801 C1800 1.399 . S
C1801 C1802 1.376 . S
C1802 H1789 0.930 . S
C1802 C1801 1.376 . S
C1802 C1803 1.388 . S
C1803 H1790 0.930 . S
C1803 C1802 1.388 . S
C1803 C1804 1.390 . S
C1804 C1803 1.390 . S
C1804 C1805 1.394 . S
C1804 C1810 1.465 . S
C1805 C1800 1.399 . S
C1805 C1804 1.394 . S
C1805 C1806 1.516 . S
C1806 C1805 1.516 . S
C1806 C1807 1.502 . S
C1806 C1808 1.561 . S
C1806 C1809 1.526 . S
C1807 H1791 0.959 . S
C1807 H1792 0.959 . S
C1807 H1793 0.961 . S
C1807 C1806 1.502 . S
C1808 H1794 0.960 . S
C1808 H1795 0.961 . S
C1808 H1796 0.959 . S
C1808 C1806 1.561 . S
C1809 C1806 1.526 . S
C1809 C1810 1.396 . S
C1809 C1814 1.390 . S
C1810 C1804 1.465 . S
C1810 C1809 1.396 . S
C1810 C1811 1.399 . S
C1811 H1797 0.929 . S
C1811 C1810 1.399 . S
C1811 C1812 1.385 . S
C1812 H1798 0.931 . S
C1812 C1811 1.385 . S
C1812 C1813 1.389 . S
C1813 C1812 1.389 . S
C1813 C1814 1.387 . S
C1814 H1799 0.930 . S
C1814 C1809 1.390 . S
C1814 C1813 1.387 . S
H1815 C1827 0.930 . S
H1816 C1829 0.930 . S
H1817 C1830 0.930 . S
H1818 C1834 0.959 . S
H1819 C1834 0.959 . S
H1820 C1834 0.961 . S
H1821 C1835 0.960 . S
H1822 C1835 0.961 . S
H1823 C1835 0.959 . S
H1824 C1838 0.929 . S
H1825 C1839 0.931 . S
H1826 C1841 0.930 . S
C1827 H1815 0.930 . S
C1827 C1828 1.399 . S
C1827 C1832 1.399 . S
C1828 C1827 1.399 . S
C1828 C1829 1.376 . S
C1829 H1816 0.930 . S
C1829 C1828 1.376 . S
C1829 C1830 1.388 . S
C1830 H1817 0.930 . S
C1830 C1829 1.388 . S
C1830 C1831 1.390 . S
C1831 C1830 1.390 . S
C1831 C1832 1.394 . S
C1831 C1837 1.465 . S
C1832 C1827 1.399 . S
C1832 C1831 1.394 . S
C1832 C1833 1.516 . S
C1833 C1832 1.516 . S
C1833 C1834 1.502 . S
C1833 C1835 1.561 . S
C1833 C1836 1.526 . S
C1834 H1818 0.959 . S
C1834 H1819 0.959 . S
C1834 H1820 0.961 . S
C1834 C1833 1.502 . S
C1835 H1821 0.960 . S
C1835 H1822 0.961 . S
C1835 H1823 0.959 . S
C1835 C1833 1.561 . S
C1836 C1833 1.526 . S
C1836 C1837 1.396 . S
C1836 C1841 1.390 . S
C1837 C1831 1.465 . S
C1837 C1836 1.396 . S
C1837 C1838 1.399 . S
C1838 H1824 0.929 . S
C1838 C1837 1.399 . S
C1838 C1839 1.385 . S
C1839 H1825 0.931 . S
C1839 C1838 1.385 . S
C1839 C1840 1.389 . S
C1840 C1839 1.389 . S
C1840 C1841 1.387 . S
C1841 H1826 0.930 . S
C1841 C1836 1.390 . S
C1841 C1840 1.387 . S
H1842 C1854 0.930 . S
H1843 C1856 0.930 . S
H1844 C1857 0.930 . S
H1845 C1861 0.959 . S
H1846 C1861 0.959 . S
H1847 C1861 0.961 . S
H1848 C1862 0.960 . S
H1849 C1862 0.961 . S
H1850 C1862 0.959 . S
H1851 C1865 0.929 . S
H1852 C1866 0.931 . S
H1853 C1868 0.930 . S
C1854 H1842 0.930 . S
C1854 C1855 1.399 . S
C1854 C1859 1.399 . S
C1855 C1854 1.399 . S
C1855 C1856 1.376 . S
C1856 H1843 0.930 . S
C1856 C1855 1.376 . S
C1856 C1857 1.388 . S
C1857 H1844 0.930 . S
C1857 C1856 1.388 . S
C1857 C1858 1.390 . S
C1858 C1857 1.390 . S
C1858 C1859 1.394 . S
C1858 C1864 1.465 . S
C1859 C1854 1.399 . S
C1859 C1858 1.394 . S
C1859 C1860 1.516 . S
C1860 C1859 1.516 . S
C1860 C1861 1.502 . S
C1860 C1862 1.561 . S
C1860 C1863 1.526 . S
C1861 H1845 0.959 . S
C1861 H1846 0.959 . S
C1861 H1847 0.961 . S
C1861 C1860 1.502 . S
C1862 H1848 0.960 . S
C1862 H1849 0.961 . S
C1862 H1850 0.959 . S
C1862 C1860 1.561 . S
C1863 C1860 1.526 . S
C1863 C1864 1.396 . S
C1863 C1868 1.390 . S
C1864 C1858 1.465 . S
C1864 C1863 1.396 . S
C1864 C1865 1.399 . S
C1865 H1851 0.929 . S
C1865 C1864 1.399 . S
C1865 C1866 1.385 . S
C1866 H1852 0.931 . S
C1866 C1865 1.385 . S
C1866 C1867 1.389 . S
C1867 C1866 1.389 . S
C1867 C1868 1.387 . S
C1868 H1853 0.930 . S
C1868 C1863 1.390 . S
C1868 C1867 1.387 . S
H1869 C1881 0.930 . S
H1870 C1883 0.930 . S
H1871 C1884 0.930 . S
H1872 C1888 0.959 . S
H1873 C1888 0.959 . S
H1874 C1888 0.961 . S
H1875 C1889 0.960 . S
H1876 C1889 0.961 . S
H1877 C1889 0.959 . S
H1878 C1892 0.929 . S
H1879 C1893 0.931 . S
H1880 C1895 0.930 . S
C1881 H1869 0.930 . S
C1881 C1882 1.399 . S
C1881 C1886 1.399 . S
C1882 C1881 1.399 . S
C1882 C1883 1.376 . S
C1883 H1870 0.930 . S
C1883 C1882 1.376 . S
C1883 C1884 1.388 . S
C1884 H1871 0.930 . S
C1884 C1883 1.388 . S
C1884 C1885 1.390 . S
C1885 C1884 1.390 . S
C1885 C1886 1.394 . S
C1885 C1891 1.465 . S
C1886 C1881 1.399 . S
C1886 C1885 1.394 . S
C1886 C1887 1.516 . S
C1887 C1886 1.516 . S
C1887 C1888 1.502 . S
C1887 C1889 1.561 . S
C1887 C1890 1.526 . S
C1888 H1872 0.959 . S
C1888 H1873 0.959 . S
C1888 H1874 0.961 . S
C1888 C1887 1.502 . S
C1889 H1875 0.960 . S
C1889 H1876 0.961 . S
C1889 H1877 0.959 . S
C1889 C1887 1.561 . S
C1890 C1887 1.526 . S
C1890 C1891 1.396 . S
C1890 C1895 1.390 . S
C1891 C1885 1.465 . S
C1891 C1890 1.396 . S
C1891 C1892 1.399 . S
C1892 H1878 0.929 . S
C1892 C1891 1.399 . S
C1892 C1893 1.385 . S
C1893 H1879 0.931 . S
C1893 C1892 1.385 . S
C1893 C1894 1.389 . S
C1894 C1893 1.389 . S
C1894 C1895 1.387 . S
C1895 H1880 0.930 . S
C1895 C1890 1.390 . S
C1895 C1894 1.387 . S
H1896 C1908 0.930 . S
H1897 C1910 0.930 . S
H1898 C1911 0.930 . S
H1899 C1915 0.959 . S
H1900 C1915 0.959 . S
H1901 C1915 0.961 . S
H1902 C1916 0.960 . S
H1903 C1916 0.961 . S
H1904 C1916 0.959 . S
H1905 C1919 0.929 . S
H1906 C1920 0.931 . S
H1907 C1922 0.930 . S
C1908 H1896 0.930 . S
C1908 C1909 1.399 . S
C1908 C1913 1.399 . S
C1909 C1908 1.399 . S
C1909 C1910 1.376 . S
C1910 H1897 0.930 . S
C1910 C1909 1.376 . S
C1910 C1911 1.388 . S
C1911 H1898 0.930 . S
C1911 C1910 1.388 . S
C1911 C1912 1.390 . S
C1912 C1911 1.390 . S
C1912 C1913 1.394 . S
C1912 C1918 1.465 . S
C1913 C1908 1.399 . S
C1913 C1912 1.394 . S
C1913 C1914 1.516 . S
C1914 C1913 1.516 . S
C1914 C1915 1.502 . S
C1914 C1916 1.561 . S
C1914 C1917 1.526 . S
C1915 H1899 0.959 . S
C1915 H1900 0.959 . S
C1915 H1901 0.961 . S
C1915 C1914 1.502 . S
C1916 H1902 0.960 . S
C1916 H1903 0.961 . S
C1916 H1904 0.959 . S
C1916 C1914 1.561 . S
C1917 C1914 1.526 . S
C1917 C1918 1.396 . S
C1917 C1922 1.390 . S
C1918 C1912 1.465 . S
C1918 C1917 1.396 . S
C1918 C1919 1.399 . S
C1919 H1905 0.929 . S
C1919 C1918 1.399 . S
C1919 C1920 1.385 . S
C1920 H1906 0.931 . S
C1920 C1919 1.385 . S
C1920 C1921 1.389 . S
C1921 C1920 1.389 . S
C1921 C1922 1.387 . S
C1922 H1907 0.930 . S
C1922 C1917 1.390 . S
C1922 C1921 1.387 . S
H1923 C1935 0.930 1_565 S
H1924 C1937 0.930 . S
H1925 C1938 0.930 . S
H1926 C1942 0.959 . S
H1927 C1942 0.959 . S
H1928 C1942 0.961 . S
H1929 C1943 0.960 . S
H1930 C1943 0.961 . S
H1931 C1943 0.959 . S
H1932 C1946 0.929 . S
H1933 C1947 0.931 . S
H1934 C1949 0.947 . S
C1935 H1923 0.930 1_545 S
C1935 C1936 1.399 . S
C1935 C1940 1.399 . S
C1936 C1935 1.399 . S
C1936 C1937 1.376 . S
C1937 H1924 0.930 . S
C1937 C1936 1.376 . S
C1937 C1938 1.388 . S
C1938 H1925 0.930 . S
C1938 C1937 1.388 . S
C1938 C1939 1.390 . S
C1939 C1938 1.390 . S
C1939 C1940 1.394 . S
C1939 C1945 1.465 . S
C1940 C1935 1.399 . S
C1940 C1939 1.394 . S
C1940 C1941 1.516 1_545 S
C1941 C1940 1.516 1_565 S
C1941 C1942 1.502 . S
C1941 C1943 1.561 . S
C1941 C1944 1.526 1_565 S
C1942 H1926 0.959 . S
C1942 H1927 0.959 . S
C1942 H1928 0.961 . S
C1942 C1941 1.502 . S
C1943 H1929 0.960 . S
C1943 H1930 0.961 . S
C1943 H1931 0.959 . S
C1943 C1941 1.561 . S
C1944 C1941 1.526 1_545 S
C1944 C1945 1.396 . S
C1944 C1949 1.386 1_545 S
C1945 C1939 1.465 . S
C1945 C1944 1.396 . S
C1945 C1946 1.399 . S
C1946 H1932 0.929 . S
C1946 C1945 1.399 . S
C1946 C1947 1.385 . S
C1947 H1933 0.931 . S
C1947 C1946 1.385 . S
C1947 C1948 1.389 . S
C1948 C1947 1.389 . S
C1948 C1949 1.373 1_545 S
C1949 H1934 0.947 . S
C1949 C1944 1.386 1_565 S
C1949 C1948 1.373 1_565 S
H1950 C1962 0.930 . S
H1951 C1964 0.930 . S
H1952 C1965 0.930 . S
H1953 C1969 0.959 . S
H1954 C1969 0.959 . S
H1955 C1969 0.961 . S
H1956 C1970 0.960 . S
H1957 C1970 0.961 . S
H1958 C1970 0.959 . S
H1959 C1973 0.929 . S
H1960 C1974 0.931 . S
H1961 C1976 0.930 . S
C1962 H1950 0.930 . S
C1962 C1963 1.399 . S
C1962 C1967 1.399 . S
C1963 C1962 1.399 . S
C1963 C1964 1.376 . S
C1964 H1951 0.930 . S
C1964 C1963 1.376 . S
C1964 C1965 1.388 . S
C1965 H1952 0.930 . S
C1965 C1964 1.388 . S
C1965 C1966 1.390 . S
C1966 C1965 1.390 . S
C1966 C1967 1.394 . S
C1966 C1972 1.465 . S
C1967 C1962 1.399 . S
C1967 C1966 1.394 . S
C1967 C1968 1.516 . S
C1968 C1967 1.516 . S
C1968 C1969 1.502 . S
C1968 C1970 1.561 . S
C1968 C1971 1.526 . S
C1969 H1953 0.959 . S
C1969 H1954 0.959 . S
C1969 H1955 0.961 . S
C1969 C1968 1.502 . S
C1970 H1956 0.960 . S
C1970 H1957 0.961 . S
C1970 H1958 0.959 . S
C1970 C1968 1.561 . S
C1971 C1968 1.526 . S
C1971 C1972 1.396 . S
C1971 C1976 1.390 . S
C1972 C1966 1.465 . S
C1972 C1971 1.396 . S
C1972 C1973 1.399 . S
C1973 H1959 0.929 . S
C1973 C1972 1.399 . S
C1973 C1974 1.385 . S
C1974 H1960 0.931 . S
C1974 C1973 1.385 . S
C1974 C1975 1.389 . S
C1975 C1974 1.389 . S
C1975 C1976 1.387 . S
C1976 H1961 0.930 . S
C1976 C1971 1.390 . S
C1976 C1975 1.387 . S
H1977 C1989 0.930 . S
H1978 C1991 0.930 . S
H1979 C1992 0.930 . S
H1980 C1996 0.959 . S
H1981 C1996 0.959 . S
H1982 C1996 0.961 . S
H1983 C1997 0.960 . S
H1984 C1997 0.961 . S
H1985 C1997 0.959 . S
H1986 C2000 0.929 . S
H1987 C2001 0.931 . S
H1988 C2003 0.930 . S
C1989 H1977 0.930 . S
C1989 C1990 1.399 . S
C1989 C1994 1.399 . S
C1990 C1989 1.399 . S
C1990 C1991 1.376 . S
C1991 H1978 0.930 . S
C1991 C1990 1.376 . S
C1991 C1992 1.388 . S
C1992 H1979 0.930 . S
C1992 C1991 1.388 . S
C1992 C1993 1.390 . S
C1993 C1992 1.390 . S
C1993 C1994 1.394 . S
C1993 C1999 1.465 . S
C1994 C1989 1.399 . S
C1994 C1993 1.394 . S
C1994 C1995 1.516 . S
C1995 C1994 1.516 . S
C1995 C1996 1.502 . S
C1995 C1997 1.561 . S
C1995 C1998 1.526 . S
C1996 H1980 0.959 . S
C1996 H1981 0.959 . S
C1996 H1982 0.961 . S
C1996 C1995 1.502 . S
C1997 H1983 0.960 . S
C1997 H1984 0.961 . S
C1997 H1985 0.959 . S
C1997 C1995 1.561 . S
C1998 C1995 1.526 . S
C1998 C1999 1.396 . S
C1998 C2003 1.390 . S
C1999 C1993 1.465 . S
C1999 C1998 1.396 . S
C1999 C2000 1.399 . S
C2000 H1986 0.929 . S
C2000 C1999 1.399 . S
C2000 C2001 1.385 . S
C2001 H1987 0.931 . S
C2001 C2000 1.385 . S
C2001 C2002 1.389 . S
C2002 C2001 1.389 . S
C2002 C2003 1.387 . S
C2003 H1988 0.930 . S
C2003 C1998 1.390 . S
C2003 C2002 1.387 . S
H2004 C2016 0.930 . S
H2005 C2018 0.930 . S
H2006 C2019 0.930 . S
H2007 C2023 0.959 . S
H2008 C2023 0.959 . S
H2009 C2023 0.961 . S
H2010 C2024 0.960 . S
H2011 C2024 0.961 . S
H2012 C2024 0.959 . S
H2013 C2027 0.929 . S
H2014 C2028 0.931 . S
H2015 C2030 0.930 . S
C2016 H2004 0.930 . S
C2016 C2017 1.399 . S
C2016 C2021 1.399 . S
C2017 C2016 1.399 . S
C2017 C2018 1.376 . S
C2018 H2005 0.930 . S
C2018 C2017 1.376 . S
C2018 C2019 1.388 . S
C2019 H2006 0.930 . S
C2019 C2018 1.388 . S
C2019 C2020 1.390 . S
C2020 C2019 1.390 . S
C2020 C2021 1.394 . S
C2020 C2026 1.465 . S
C2021 C2016 1.399 . S
C2021 C2020 1.394 . S
C2021 C2022 1.516 . S
C2022 C2021 1.516 . S
C2022 C2023 1.502 . S
C2022 C2024 1.561 . S
C2022 C2025 1.526 . S
C2023 H2007 0.959 . S
C2023 H2008 0.959 . S
C2023 H2009 0.961 . S
C2023 C2022 1.502 . S
C2024 H2010 0.960 . S
C2024 H2011 0.961 . S
C2024 H2012 0.959 . S
C2024 C2022 1.561 . S
C2025 C2022 1.526 . S
C2025 C2026 1.396 . S
C2025 C2030 1.390 . S
C2026 C2020 1.465 . S
C2026 C2025 1.396 . S
C2026 C2027 1.399 . S
C2027 H2013 0.929 . S
C2027 C2026 1.399 . S
C2027 C2028 1.385 . S
C2028 H2014 0.931 . S
C2028 C2027 1.385 . S
C2028 C2029 1.389 . S
C2029 C2028 1.389 . S
C2029 C2030 1.387 . S
C2030 H2015 0.930 . S
C2030 C2025 1.390 . S
C2030 C2029 1.387 . S
H2031 C2043 0.930 . S
H2032 C2045 0.930 . S
H2033 C2046 0.930 . S
H2034 C2050 0.959 . S
H2035 C2050 0.959 1_565 S
H2036 C2050 0.961 1_565 S
H2037 C2051 0.960 . S
H2038 C2051 0.981 . S
H2039 C2051 0.959 . S
H2040 C2054 0.929 . S
H2041 C2055 0.931 . S
H2042 C2057 0.930 . S
C2043 H2031 0.930 . S
C2043 C2044 1.399 . S
C2043 C2048 1.399 . S
C2044 C2043 1.399 . S
C2044 C2045 1.376 . S
C2045 H2032 0.930 . S
C2045 C2044 1.376 . S
C2045 C2046 1.388 . S
C2046 H2033 0.930 . S
C2046 C2045 1.388 . S
C2046 C2047 1.390 . S
C2047 C2046 1.390 . S
C2047 C2048 1.394 . S
C2047 C2053 1.465 . S
C2048 C2043 1.399 . S
C2048 C2047 1.394 . S
C2048 C2049 1.516 1_455 S
C2049 C2048 1.516 1_655 S
C2049 C2050 1.502 . S
C2049 C2051 1.561 1_645 S
C2049 C2052 1.526 . S
C2050 H2034 0.959 . S
C2050 H2035 0.959 1_545 S
C2050 H2036 0.961 1_545 S
C2050 C2049 1.502 . S
C2051 H2037 0.960 . S
C2051 H2038 0.981 . S
C2051 H2039 0.959 . S
C2051 C2049 1.561 1_465 S
C2052 C2049 1.526 . S
C2052 C2053 1.396 1_655 S
C2052 C2057 1.390 . S
C2053 C2047 1.465 . S
C2053 C2052 1.396 1_455 S
C2053 C2054 1.399 . S
C2054 H2040 0.929 . S
C2054 C2053 1.399 . S
C2054 C2055 1.385 . S
C2055 H2041 0.931 . S
C2055 C2054 1.385 . S
C2055 C2056 1.389 1_455 S
C2056 C2055 1.389 1_655 S
C2056 C2057 1.387 . S
C2057 H2042 0.930 . S
C2057 C2052 1.390 . S
C2057 C2056 1.387 . S
H2058 C2070 0.930 . S
H2059 C2072 0.930 . S
H2060 C2073 0.930 . S
H2061 C2077 0.959 . S
H2062 C2077 0.959 . S
H2063 C2077 0.961 . S
H2064 C2078 0.960 . S
H2065 C2078 0.961 . S
H2066 C2078 0.959 . S
H2067 C2081 0.929 . S
H2068 C2082 0.931 . S
H2069 C2084 0.930 . S
C2070 H2058 0.930 . S
C2070 C2071 1.399 . S
C2070 C2075 1.399 . S
C2071 C2070 1.399 . S
C2071 C2072 1.376 . S
C2072 H2059 0.930 . S
C2072 C2071 1.376 . S
C2072 C2073 1.388 . S
C2073 H2060 0.930 . S
C2073 C2072 1.388 . S
C2073 C2074 1.390 . S
C2074 C2073 1.390 . S
C2074 C2075 1.394 . S
C2074 C2080 1.465 . S
C2075 C2070 1.399 . S
C2075 C2074 1.394 . S
C2075 C2076 1.516 . S
C2076 C2075 1.516 . S
C2076 C2077 1.502 . S
C2076 C2078 1.561 . S
C2076 C2079 1.526 . S
C2077 H2061 0.959 . S
C2077 H2062 0.959 . S
C2077 H2063 0.961 . S
C2077 C2076 1.502 . S
C2078 H2064 0.960 . S
C2078 H2065 0.961 . S
C2078 H2066 0.959 . S
C2078 C2076 1.561 . S
C2079 C2076 1.526 . S
C2079 C2080 1.396 . S
C2079 C2084 1.390 . S
C2080 C2074 1.465 . S
C2080 C2079 1.396 . S
C2080 C2081 1.399 . S
C2081 H2067 0.929 . S
C2081 C2080 1.399 . S
C2081 C2082 1.385 . S
C2082 H2068 0.931 . S
C2082 C2081 1.385 . S
C2082 C2083 1.389 . S
C2083 C2082 1.389 . S
C2083 C2084 1.387 . S
C2084 H2069 0.930 . S
C2084 C2079 1.390 . S
C2084 C2083 1.387 . S
H2085 C2097 0.930 . S
H2086 C2099 0.928 . S
H2087 C2100 0.930 . S
H2088 C2104 0.959 . S
H2089 C2104 0.959 . S
H2090 C2104 0.961 . S
H2091 C2105 0.960 . S
H2092 C2105 0.961 . S
H2093 C2105 0.959 . S
H2094 C2108 0.929 . S
H2095 C2109 0.931 . S
H2096 C2111 0.930 . S
C2097 H2085 0.930 . S
C2097 C2098 1.399 . S
C2097 C2102 1.399 . S
C2098 C2097 1.399 . S
C2098 C2099 1.377 1_455 S
C2099 H2086 0.928 . S
C2099 C2098 1.377 1_655 S
C2099 C2100 1.390 1_655 S
C2100 H2087 0.930 . S
C2100 C2099 1.390 1_455 S
C2100 C2101 1.390 . S
C2101 C2100 1.390 . S
C2101 C2102 1.394 . S
C2101 C2107 1.465 . S
C2102 C2097 1.399 . S
C2102 C2101 1.394 . S
C2102 C2103 1.516 . S
C2103 C2102 1.516 . S
C2103 C2104 1.502 . S
C2103 C2105 1.561 . S
C2103 C2106 1.526 . S
C2104 H2088 0.959 . S
C2104 H2089 0.959 . S
C2104 H2090 0.961 . S
C2104 C2103 1.502 . S
C2105 H2091 0.960 . S
C2105 H2092 0.961 . S
C2105 H2093 0.959 . S
C2105 C2103 1.561 . S
C2106 C2103 1.526 . S
C2106 C2107 1.396 . S
C2106 C2111 1.390 . S
C2107 C2101 1.465 . S
C2107 C2106 1.396 . S
C2107 C2108 1.399 . S
C2108 H2094 0.929 . S
C2108 C2107 1.399 . S
C2108 C2109 1.385 . S
C2109 H2095 0.931 . S
C2109 C2108 1.385 . S
C2109 C2110 1.389 . S
C2110 C2109 1.389 . S
C2110 C2111 1.387 . S
C2111 H2096 0.930 . S
C2111 C2106 1.390 . S
C2111 C2110 1.387 . S
H2112 C2124 0.930 . S
H2113 C2126 0.930 . S
H2114 C2127 0.930 . S
H2115 C2131 0.959 . S
H2116 C2131 0.959 . S
H2117 C2131 0.961 . S
H2118 C2132 0.960 . S
H2119 C2132 0.961 . S
H2120 C2132 0.959 . S
H2121 C2135 0.929 . S
H2122 C2136 0.931 . S
H2123 C2138 0.930 . S
C2124 H2112 0.930 . S
C2124 C2125 1.399 . S
C2124 C2129 1.399 . S
C2125 C2124 1.399 . S
C2125 C2126 1.376 . S
C2126 H2113 0.930 . S
C2126 C2125 1.376 . S
C2126 C2127 1.388 . S
C2127 H2114 0.930 . S
C2127 C2126 1.388 . S
C2127 C2128 1.390 . S
C2128 C2127 1.390 . S
C2128 C2129 1.394 . S
C2128 C2134 1.465 . S
C2129 C2124 1.399 . S
C2129 C2128 1.394 . S
C2129 C2130 1.516 . S
C2130 C2129 1.516 . S
C2130 C2131 1.502 . S
C2130 C2132 1.561 . S
C2130 C2133 1.526 . S
C2131 H2115 0.959 . S
C2131 H2116 0.959 . S
C2131 H2117 0.961 . S
C2131 C2130 1.502 . S
C2132 H2118 0.960 . S
C2132 H2119 0.961 . S
C2132 H2120 0.959 . S
C2132 C2130 1.561 . S
C2133 C2130 1.526 . S
C2133 C2134 1.396 . S
C2133 C2138 1.390 . S
C2134 C2128 1.465 . S
C2134 C2133 1.396 . S
C2134 C2135 1.399 . S
C2135 H2121 0.929 . S
C2135 C2134 1.399 . S
C2135 C2136 1.385 . S
C2136 H2122 0.931 . S
C2136 C2135 1.385 . S
C2136 C2137 1.389 . S
C2137 C2136 1.389 . S
C2137 C2138 1.387 . S
C2138 H2123 0.930 . S
C2138 C2133 1.390 . S
C2138 C2137 1.387 . S
H2139 C2151 0.930 . S
H2140 C2153 0.933 . S
H2141 C2154 0.932 . S
H2142 C2158 0.959 . S
H2143 C2158 0.959 . S
H2144 C2158 0.961 . S
H2145 C2159 0.960 . S
H2146 C2159 0.961 . S
H2147 C2159 0.959 1_455 S
H2148 C2162 0.929 . S
H2149 C2163 0.931 . S
H2150 C2165 0.930 . S
C2151 H2139 0.930 . S
C2151 C2152 1.399 . S
C2151 C2156 1.399 . S
C2152 C2151 1.399 . S
C2152 C2153 1.372 1_656 S
C2153 H2140 0.933 . S
C2153 C2152 1.372 1_454 S
C2153 C2154 1.391 1_554 S
C2154 H2141 0.932 . S
C2154 C2153 1.391 1_556 S
C2154 C2155 1.390 1_455 S
C2155 C2154 1.390 1_655 S
C2155 C2156 1.394 . S
C2155 C2161 1.473 . S
C2156 C2151 1.399 . S
C2156 C2155 1.394 . S
C2156 C2157 1.516 . S
C2157 C2156 1.516 . S
C2157 C2158 1.502 . S
C2157 C2159 1.561 . S
C2157 C2160 1.526 . S
C2158 H2142 0.959 . S
C2158 H2143 0.959 . S
C2158 H2144 0.961 . S
C2158 C2157 1.502 . S
C2159 H2145 0.960 . S
C2159 H2146 0.961 . S
C2159 H2147 0.959 1_655 S
C2159 C2157 1.561 . S
C2160 C2157 1.526 . S
C2160 C2161 1.414 . S
C2160 C2165 1.390 . S
C2161 C2155 1.473 . S
C2161 C2160 1.414 . S
C2161 C2162 1.380 1_655 S
C2162 H2148 0.929 . S
C2162 C2161 1.380 1_455 S
C2162 C2163 1.385 . S
C2163 H2149 0.931 . S
C2163 C2162 1.385 . S
C2163 C2164 1.389 1_455 S
C2164 C2163 1.389 1_655 S
C2164 C2165 1.387 . S
C2165 H2150 0.930 . S
C2165 C2160 1.390 . S
C2165 C2164 1.387 . S
H2166 C2178 0.930 . S
H2167 C2180 0.930 . S
H2168 C2181 0.930 . S
H2169 C2185 0.959 . S
H2170 C2185 0.959 . S
H2171 C2185 0.961 . S
H2172 C2186 0.960 . S
H2173 C2186 0.961 . S
H2174 C2186 0.959 . S
H2175 C2189 0.929 . S
H2176 C2190 0.931 . S
H2177 C2192 0.930 . S
C2178 H2166 0.930 . S
C2178 C2179 1.399 . S
C2178 C2183 1.399 . S
C2179 C2178 1.399 . S
C2179 C2180 1.376 . S
C2180 H2167 0.930 . S
C2180 C2179 1.376 . S
C2180 C2181 1.388 . S
C2181 H2168 0.930 . S
C2181 C2180 1.388 . S
C2181 C2182 1.390 . S
C2182 C2181 1.390 . S
C2182 C2183 1.394 . S
C2182 C2188 1.465 . S
C2183 C2178 1.399 . S
C2183 C2182 1.394 . S
C2183 C2184 1.516 . S
C2184 C2183 1.516 . S
C2184 C2185 1.502 . S
C2184 C2186 1.561 . S
C2184 C2187 1.526 . S
C2185 H2169 0.959 . S
C2185 H2170 0.959 . S
C2185 H2171 0.961 . S
C2185 C2184 1.502 . S
C2186 H2172 0.960 . S
C2186 H2173 0.961 . S
C2186 H2174 0.959 . S
C2186 C2184 1.561 . S
C2187 C2184 1.526 . S
C2187 C2188 1.396 . S
C2187 C2192 1.390 . S
C2188 C2182 1.465 . S
C2188 C2187 1.396 . S
C2188 C2189 1.399 . S
C2189 H2175 0.929 . S
C2189 C2188 1.399 . S
C2189 C2190 1.385 . S
C2190 H2176 0.931 . S
C2190 C2189 1.385 . S
C2190 C2191 1.389 . S
C2191 C2190 1.389 . S
C2191 C2192 1.387 . S
C2192 H2177 0.930 . S
C2192 C2187 1.390 . S
C2192 C2191 1.387 . S
H2193 C2205 0.930 1_554 S
H2194 C2207 0.930 . S
H2195 C2208 0.930 . S
H2196 C2212 0.959 . S
H2197 C2212 0.959 . S
H2198 C2212 0.961 . S
H2199 C2213 0.960 . S
H2200 C2213 0.961 . S
H2201 C2213 0.959 . S
H2202 C2216 0.929 . S
H2203 C2217 0.931 . S
H2204 C2219 0.930 . S
C2205 H2193 0.930 1_556 S
C2205 C2206 1.399 . S
C2205 C2210 1.399 . S
C2206 C2205 1.399 . S
C2206 C2207 1.376 . S
C2207 H2194 0.930 . S
C2207 C2206 1.376 . S
C2207 C2208 1.388 . S
C2208 H2195 0.930 . S
C2208 C2207 1.388 . S
C2208 C2209 1.390 . S
C2209 C2208 1.390 . S
C2209 C2210 1.394 . S
C2209 C2215 1.465 . S
C2210 C2205 1.399 . S
C2210 C2209 1.394 . S
C2210 C2211 1.516 . S
C2211 C2210 1.516 . S
C2211 C2212 1.502 1_455 S
C2211 C2213 1.561 . S
C2211 C2214 1.526 . S
C2212 H2196 0.959 . S
C2212 H2197 0.959 . S
C2212 H2198 0.961 . S
C2212 C2211 1.502 1_655 S
C2213 H2199 0.960 . S
C2213 H2200 0.961 . S
C2213 H2201 0.959 . S
C2213 C2211 1.561 . S
C2214 C2211 1.526 . S
C2214 C2215 1.396 . S
C2214 C2219 1.390 . S
C2215 C2209 1.465 . S
C2215 C2214 1.396 . S
C2215 C2216 1.399 . S
C2216 H2202 0.929 . S
C2216 C2215 1.399 . S
C2216 C2217 1.385 . S
C2217 H2203 0.931 . S
C2217 C2216 1.385 . S
C2217 C2218 1.389 . S
C2218 C2217 1.389 . S
C2218 C2219 1.387 . S
C2219 H2204 0.930 . S
C2219 C2214 1.390 . S
C2219 C2218 1.387 . S
H2220 C2232 0.930 . S
H2221 C2234 0.930 . S
H2222 C2235 0.930 . S
H2223 C2239 0.959 . S
H2224 C2239 0.959 . S
H2225 C2239 0.961 . S
H2226 C2240 0.960 . S
H2227 C2240 0.961 . S
H2228 C2240 0.959 . S
H2229 C2243 0.929 . S
H2230 C2244 0.931 . S
H2231 C2246 0.930 . S
C2232 H2220 0.930 . S
C2232 C2233 1.399 . S
C2232 C2237 1.399 . S
C2233 C2232 1.399 . S
C2233 C2234 1.376 . S
C2234 H2221 0.930 . S
C2234 C2233 1.376 . S
C2234 C2235 1.388 . S
C2235 H2222 0.930 . S
C2235 C2234 1.388 . S
C2235 C2236 1.390 . S
C2236 C2235 1.390 . S
C2236 C2237 1.394 . S
C2236 C2242 1.465 . S
C2237 C2232 1.399 . S
C2237 C2236 1.394 . S
C2237 C2238 1.516 . S
C2238 C2237 1.516 . S
C2238 C2239 1.502 . S
C2238 C2240 1.561 . S
C2238 C2241 1.526 . S
C2239 H2223 0.959 . S
C2239 H2224 0.959 . S
C2239 H2225 0.961 . S
C2239 C2238 1.502 . S
C2240 H2226 0.960 . S
C2240 H2227 0.961 . S
C2240 H2228 0.959 . S
C2240 C2238 1.561 . S
C2241 C2238 1.526 . S
C2241 C2242 1.396 . S
C2241 C2246 1.390 . S
C2242 C2236 1.465 . S
C2242 C2241 1.396 . S
C2242 C2243 1.399 . S
C2243 H2229 0.929 . S
C2243 C2242 1.399 . S
C2243 C2244 1.385 . S
C2244 H2230 0.931 . S
C2244 C2243 1.385 . S
C2244 C2245 1.389 . S
C2245 C2244 1.389 . S
C2245 C2246 1.387 . S
C2246 H2231 0.930 . S
C2246 C2241 1.390 . S
C2246 C2245 1.387 . S
H2247 C2259 0.930 1_556 S
H2248 C2261 0.930 . S
H2249 C2262 0.930 . S
H2250 C2266 0.959 . S
H2251 C2266 0.959 . S
H2252 C2266 0.961 1_556 S
H2253 C2267 0.960 1_556 S
H2254 C2267 0.961 . S
H2255 C2267 0.959 . S
H2256 C2270 0.929 . S
H2257 C2271 0.931 . S
H2258 C2273 0.930 . S
C2259 H2247 0.930 1_554 S
C2259 C2260 1.399 . S
C2259 C2264 1.399 . S
C2260 C2259 1.399 . S
C2260 C2261 1.376 . S
C2261 H2248 0.930 . S
C2261 C2260 1.376 . S
C2261 C2262 1.388 . S
C2262 H2249 0.930 . S
C2262 C2261 1.388 . S
C2262 C2263 1.390 . S
C2263 C2262 1.390 . S
C2263 C2264 1.394 . S
C2263 C2269 1.465 . S
C2264 C2259 1.399 . S
C2264 C2263 1.394 . S
C2264 C2265 1.516 . S
C2265 C2264 1.516 . S
C2265 C2266 1.502 . S
C2265 C2267 1.561 . S
C2265 C2268 1.526 . S
C2266 H2250 0.959 . S
C2266 H2251 0.959 . S
C2266 H2252 0.961 1_554 S
C2266 C2265 1.502 . S
C2267 H2253 0.960 1_554 S
C2267 H2254 0.961 . S
C2267 H2255 0.959 . S
C2267 C2265 1.561 . S
C2268 C2265 1.526 . S
C2268 C2269 1.396 . S
C2268 C2273 1.390 . S
C2269 C2263 1.465 . S
C2269 C2268 1.396 . S
C2269 C2270 1.399 . S
C2270 H2256 0.929 . S
C2270 C2269 1.399 . S
C2270 C2271 1.385 . S
C2271 H2257 0.931 . S
C2271 C2270 1.385 . S
C2271 C2272 1.389 . S
C2272 C2271 1.389 . S
C2272 C2273 1.387 . S
C2273 H2258 0.930 . S
C2273 C2268 1.390 . S
C2273 C2272 1.387 . S
H2274 C2286 0.930 . S
H2275 C2288 0.930 . S
H2276 C2289 0.930 . S
H2277 C2293 0.959 . S
H2278 C2293 0.959 . S
H2279 C2293 0.961 . S
H2280 C2294 0.960 . S
H2281 C2294 0.961 . S
H2282 C2294 0.959 . S
H2283 C2297 0.929 . S
H2284 C2298 0.931 . S
H2285 C2300 0.930 . S
C2286 H2274 0.930 . S
C2286 C2287 1.399 . S
C2286 C2291 1.399 . S
C2287 C2286 1.399 . S
C2287 C2288 1.376 . S
C2288 H2275 0.930 . S
C2288 C2287 1.376 . S
C2288 C2289 1.388 . S
C2289 H2276 0.930 . S
C2289 C2288 1.388 . S
C2289 C2290 1.390 . S
C2290 C2289 1.390 . S
C2290 C2291 1.394 . S
C2290 C2296 1.465 . S
C2291 C2286 1.399 . S
C2291 C2290 1.394 . S
C2291 C2292 1.516 . S
C2292 C2291 1.516 . S
C2292 C2293 1.502 . S
C2292 C2294 1.561 . S
C2292 C2295 1.526 . S
C2293 H2277 0.959 . S
C2293 H2278 0.959 . S
C2293 H2279 0.961 . S
C2293 C2292 1.502 . S
C2294 H2280 0.960 . S
C2294 H2281 0.961 . S
C2294 H2282 0.959 . S
C2294 C2292 1.561 . S
C2295 C2292 1.526 . S
C2295 C2296 1.396 . S
C2295 C2300 1.390 . S
C2296 C2290 1.465 . S
C2296 C2295 1.396 . S
C2296 C2297 1.399 . S
C2297 H2283 0.929 . S
C2297 C2296 1.399 . S
C2297 C2298 1.385 . S
C2298 H2284 0.931 . S
C2298 C2297 1.385 . S
C2298 C2299 1.389 . S
C2299 C2298 1.389 . S
C2299 C2300 1.387 . S
C2300 H2285 0.930 . S
C2300 C2295 1.390 . S
C2300 C2299 1.387 . S
H2301 C2313 0.930 . S
H2302 C2315 0.930 . S
H2303 C2316 0.930 . S
H2304 C2320 0.959 . S
H2305 C2320 0.959 . S
H2306 C2320 0.961 . S
H2307 C2321 0.960 . S
H2308 C2321 0.959 1_554 S
H2309 C2321 0.959 . S
H2310 C2324 0.929 . S
H2311 C2325 0.931 . S
H2312 C2327 0.930 . S
C2313 H2301 0.930 . S
C2313 C2314 1.399 . S
C2313 C2318 1.399 1_556 S
C2314 C2313 1.399 . S
C2314 C2315 1.376 1_556 S
C2315 H2302 0.930 . S
C2315 C2314 1.376 1_554 S
C2315 C2316 1.388 . S
C2316 H2303 0.930 . S
C2316 C2315 1.388 . S
C2316 C2317 1.390 . S
C2317 C2316 1.390 . S
C2317 C2318 1.394 . S
C2317 C2323 1.465 . S
C2318 C2313 1.399 1_554 S
C2318 C2317 1.394 . S
C2318 C2319 1.516 . S
C2319 C2318 1.516 . S
C2319 C2320 1.502 . S
C2319 C2321 1.561 1_554 S
C2319 C2322 1.526 . S
C2320 H2304 0.959 . S
C2320 H2305 0.959 . S
C2320 H2306 0.961 . S
C2320 C2319 1.502 . S
C2321 H2307 0.960 . S
C2321 H2308 0.959 1_556 S
C2321 H2309 0.959 . S
C2321 C2319 1.561 1_556 S
C2322 C2319 1.526 . S
C2322 C2323 1.396 . S
C2322 C2327 1.390 . S
C2323 C2317 1.465 . S
C2323 C2322 1.396 . S
C2323 C2324 1.399 . S
C2324 H2310 0.929 . S
C2324 C2323 1.399 . S
C2324 C2325 1.385 . S
C2325 H2311 0.931 . S
C2325 C2324 1.385 . S
C2325 C2326 1.389 . S
C2326 C2325 1.389 . S
C2326 C2327 1.387 . S
C2327 H2312 0.930 . S
C2327 C2322 1.390 . S
C2327 C2326 1.387 . S
H2328 C2340 0.930 . S
H2329 C2342 0.930 . S
H2330 C2343 0.930 . S
H2331 C2347 0.959 . S
H2332 C2347 0.959 . S
H2333 C2347 0.961 . S
H2334 C2348 0.960 . S
H2335 C2348 0.961 . S
H2336 C2348 0.959 . S
H2337 C2351 0.929 . S
H2338 C2352 0.931 . S
H2339 C2354 0.930 . S
C2340 H2328 0.930 . S
C2340 C2341 1.399 . S
C2340 C2345 1.399 . S
C2341 C2340 1.399 . S
C2341 C2342 1.376 . S
C2342 H2329 0.930 . S
C2342 C2341 1.376 . S
C2342 C2343 1.388 . S
C2343 H2330 0.930 . S
C2343 C2342 1.388 . S
C2343 C2344 1.390 . S
C2344 C2343 1.390 . S
C2344 C2345 1.394 . S
C2344 C2350 1.465 . S
C2345 C2340 1.399 . S
C2345 C2344 1.394 . S
C2345 C2346 1.516 . S
C2346 C2345 1.516 . S
C2346 C2347 1.502 . S
C2346 C2348 1.561 . S
C2346 C2349 1.526 . S
C2347 H2331 0.959 . S
C2347 H2332 0.959 . S
C2347 H2333 0.961 . S
C2347 C2346 1.502 . S
C2348 H2334 0.960 . S
C2348 H2335 0.961 . S
C2348 H2336 0.959 . S
C2348 C2346 1.561 . S
C2349 C2346 1.526 . S
C2349 C2350 1.396 . S
C2349 C2354 1.390 . S
C2350 C2344 1.465 . S
C2350 C2349 1.396 . S
C2350 C2351 1.399 . S
C2351 H2337 0.929 . S
C2351 C2350 1.399 . S
C2351 C2352 1.385 . S
C2352 H2338 0.931 . S
C2352 C2351 1.385 . S
C2352 C2353 1.389 . S
C2353 C2352 1.389 . S
C2353 C2354 1.387 . S
C2354 H2339 0.930 . S
C2354 C2349 1.390 . S
C2354 C2353 1.387 . S
H2355 C2367 0.930 . S
H2356 C2369 0.930 . S
H2357 C2370 0.930 . S
H2358 C2374 0.959 . S
H2359 C2374 0.959 . S
H2360 C2374 0.961 . S
H2361 C2375 0.960 . S
H2362 C2375 0.961 . S
H2363 C2375 0.959 . S
H2364 C2378 0.929 . S
H2365 C2379 0.931 . S
H2366 C2381 0.930 . S
C2367 H2355 0.930 . S
C2367 C2368 1.399 . S
C2367 C2372 1.399 . S
C2368 C2367 1.399 . S
C2368 C2369 1.376 . S
C2369 H2356 0.930 . S
C2369 C2368 1.376 . S
C2369 C2370 1.388 . S
C2370 H2357 0.930 . S
C2370 C2369 1.388 . S
C2370 C2371 1.390 . S
C2371 C2370 1.390 . S
C2371 C2372 1.394 . S
C2371 C2377 1.465 . S
C2372 C2367 1.399 . S
C2372 C2371 1.394 . S
C2372 C2373 1.516 . S
C2373 C2372 1.516 . S
C2373 C2374 1.502 . S
C2373 C2375 1.561 . S
C2373 C2376 1.526 . S
C2374 H2358 0.959 . S
C2374 H2359 0.959 . S
C2374 H2360 0.961 . S
C2374 C2373 1.502 . S
C2375 H2361 0.960 . S
C2375 H2362 0.961 . S
C2375 H2363 0.959 . S
C2375 C2373 1.561 . S
C2376 C2373 1.526 . S
C2376 C2377 1.396 . S
C2376 C2381 1.390 . S
C2377 C2371 1.465 . S
C2377 C2376 1.396 . S
C2377 C2378 1.399 . S
C2378 H2364 0.929 . S
C2378 C2377 1.399 . S
C2378 C2379 1.385 . S
C2379 H2365 0.931 . S
C2379 C2378 1.385 . S
C2379 C2380 1.389 . S
C2380 C2379 1.389 . S
C2380 C2381 1.387 . S
C2381 H2366 0.930 . S
C2381 C2376 1.390 . S
C2381 C2380 1.387 . S
H2382 C2394 0.930 . S
H2383 C2396 0.930 . S
H2384 C2397 0.930 . S
H2385 C2401 0.959 . S
H2386 C2401 0.959 . S
H2387 C2401 0.961 . S
H2388 C2402 0.960 . S
H2389 C2402 0.961 . S
H2390 C2402 0.959 . S
H2391 C2405 0.929 . S
H2392 C2406 0.931 . S
H2393 C2408 0.930 . S
C2394 H2382 0.930 . S
C2394 C2395 1.399 . S
C2394 C2399 1.399 . S
C2395 C2394 1.399 . S
C2395 C2396 1.376 . S
C2396 H2383 0.930 . S
C2396 C2395 1.376 . S
C2396 C2397 1.388 . S
C2397 H2384 0.930 . S
C2397 C2396 1.388 . S
C2397 C2398 1.390 . S
C2398 C2397 1.390 . S
C2398 C2399 1.394 . S
C2398 C2404 1.465 . S
C2399 C2394 1.399 . S
C2399 C2398 1.394 . S
C2399 C2400 1.516 . S
C2400 C2399 1.516 . S
C2400 C2401 1.502 . S
C2400 C2402 1.561 . S
C2400 C2403 1.526 . S
C2401 H2385 0.959 . S
C2401 H2386 0.959 . S
C2401 H2387 0.961 . S
C2401 C2400 1.502 . S
C2402 H2388 0.960 . S
C2402 H2389 0.961 . S
C2402 H2390 0.959 . S
C2402 C2400 1.561 . S
C2403 C2400 1.526 . S
C2403 C2404 1.396 . S
C2403 C2408 1.390 . S
C2404 C2398 1.465 . S
C2404 C2403 1.396 . S
C2404 C2405 1.399 . S
C2405 H2391 0.929 . S
C2405 C2404 1.399 . S
C2405 C2406 1.385 . S
C2406 H2392 0.931 . S
C2406 C2405 1.385 . S
C2406 C2407 1.389 . S
C2407 C2406 1.389 . S
C2407 C2408 1.387 . S
C2408 H2393 0.930 . S
C2408 C2403 1.390 . S
C2408 C2407 1.387 . S
H2409 C2421 0.930 . S
H2410 C2423 0.930 . S
H2411 C2424 0.930 . S
H2412 C2428 0.959 . S
H2413 C2428 0.959 . S
H2414 C2428 0.961 . S
H2415 C2429 0.960 . S
H2416 C2429 0.961 . S
H2417 C2429 0.959 . S
H2418 C2432 0.929 . S
H2419 C2433 0.931 . S
H2420 C2435 0.930 . S
C2421 H2409 0.930 . S
C2421 C2422 1.399 . S
C2421 C2426 1.399 . S
C2422 C2421 1.399 . S
C2422 C2423 1.376 . S
C2423 H2410 0.930 . S
C2423 C2422 1.376 . S
C2423 C2424 1.388 . S
C2424 H2411 0.930 . S
C2424 C2423 1.388 . S
C2424 C2425 1.390 . S
C2425 C2424 1.390 . S
C2425 C2426 1.394 . S
C2425 C2431 1.465 . S
C2426 C2421 1.399 . S
C2426 C2425 1.394 . S
C2426 C2427 1.516 . S
C2427 C2426 1.516 . S
C2427 C2428 1.502 . S
C2427 C2429 1.561 . S
C2427 C2430 1.526 . S
C2428 H2412 0.959 . S
C2428 H2413 0.959 . S
C2428 H2414 0.961 . S
C2428 C2427 1.502 . S
C2429 H2415 0.960 . S
C2429 H2416 0.961 . S
C2429 H2417 0.959 . S
C2429 C2427 1.561 . S
C2430 C2427 1.526 . S
C2430 C2431 1.396 . S
C2430 C2435 1.390 . S
C2431 C2425 1.465 . S
C2431 C2430 1.396 . S
C2431 C2432 1.399 . S
C2432 H2418 0.929 . S
C2432 C2431 1.399 . S
C2432 C2433 1.385 . S
C2433 H2419 0.931 . S
C2433 C2432 1.385 . S
C2433 C2434 1.389 . S
C2434 C2433 1.389 . S
C2434 C2435 1.387 . S
C2435 H2420 0.930 . S
C2435 C2430 1.390 . S
C2435 C2434 1.387 . S
H2436 C2448 0.930 1_554 S
H2437 C2450 0.930 . S
H2438 C2451 0.930 . S
H2439 C2455 0.959 . S
H2440 C2455 0.959 . S
H2441 C2455 0.961 . S
H2442 C2456 0.960 . S
H2443 C2456 0.961 . S
H2444 C2456 0.959 . S
H2445 C2459 0.929 . S
H2446 C2460 0.931 . S
H2447 C2462 0.930 1_554 S
C2448 H2436 0.930 1_556 S
C2448 C2449 1.399 . S
C2448 C2453 1.399 . S
C2449 C2448 1.399 . S
C2449 C2450 1.376 . S
C2450 H2437 0.930 . S
C2450 C2449 1.376 . S
C2450 C2451 1.388 . S
C2451 H2438 0.930 . S
C2451 C2450 1.388 . S
C2451 C2452 1.390 . S
C2452 C2451 1.390 . S
C2452 C2453 1.394 . S
C2452 C2458 1.465 . S
C2453 C2448 1.399 . S
C2453 C2452 1.394 . S
C2453 C2454 1.516 1_556 S
C2454 C2453 1.516 1_554 S
C2454 C2455 1.502 . S
C2454 C2456 1.561 . S
C2454 C2457 1.526 1_554 S
C2455 H2439 0.959 . S
C2455 H2440 0.959 . S
C2455 H2441 0.961 . S
C2455 C2454 1.502 . S
C2456 H2442 0.960 . S
C2456 H2443 0.961 . S
C2456 H2444 0.959 . S
C2456 C2454 1.561 . S
C2457 C2454 1.526 1_556 S
C2457 C2458 1.396 . S
C2457 C2462 1.390 . S
C2458 C2452 1.465 . S
C2458 C2457 1.396 . S
C2458 C2459 1.399 . S
C2459 H2445 0.929 . S
C2459 C2458 1.399 . S
C2459 C2460 1.385 . S
C2460 H2446 0.931 . S
C2460 C2459 1.385 . S
C2460 C2461 1.389 . S
C2461 C2460 1.389 . S
C2461 C2462 1.387 . S
C2462 H2447 0.930 1_556 S
C2462 C2457 1.390 . S
C2462 C2461 1.387 . S
H2463 C2475 0.930 . S
H2464 C2477 0.930 . S
H2465 C2478 0.930 . S
H2466 C2482 0.959 . S
H2467 C2482 0.959 . S
H2468 C2482 0.961 . S
H2469 C2483 0.960 . S
H2470 C2483 0.961 . S
H2471 C2483 0.959 . S
H2472 C2486 0.929 . S
H2473 C2487 0.931 . S
H2474 C2489 0.930 . S
C2475 H2463 0.930 . S
C2475 C2476 1.399 . S
C2475 C2480 1.399 . S
C2476 C2475 1.399 . S
C2476 C2477 1.376 . S
C2477 H2464 0.930 . S
C2477 C2476 1.376 . S
C2477 C2478 1.388 . S
C2478 H2465 0.930 . S
C2478 C2477 1.388 . S
C2478 C2479 1.390 . S
C2479 C2478 1.390 . S
C2479 C2480 1.394 . S
C2479 C2485 1.465 . S
C2480 C2475 1.399 . S
C2480 C2479 1.394 . S
C2480 C2481 1.516 . S
C2481 C2480 1.516 . S
C2481 C2482 1.502 . S
C2481 C2483 1.561 . S
C2481 C2484 1.526 . S
C2482 H2466 0.959 . S
C2482 H2467 0.959 . S
C2482 H2468 0.961 . S
C2482 C2481 1.502 . S
C2483 H2469 0.960 . S
C2483 H2470 0.961 . S
C2483 H2471 0.959 . S
C2483 C2481 1.561 . S
C2484 C2481 1.526 . S
C2484 C2485 1.396 . S
C2484 C2489 1.390 . S
C2485 C2479 1.465 . S
C2485 C2484 1.396 . S
C2485 C2486 1.399 . S
C2486 H2472 0.929 . S
C2486 C2485 1.399 . S
C2486 C2487 1.385 . S
C2487 H2473 0.931 . S
C2487 C2486 1.385 . S
C2487 C2488 1.389 . S
C2488 C2487 1.389 . S
C2488 C2489 1.387 . S
C2489 H2474 0.930 . S
C2489 C2484 1.390 . S
C2489 C2488 1.387 . S
H2490 C2502 0.930 . S
H2491 C2504 0.930 . S
H2492 C2505 0.930 1_556 S
H2493 C2509 0.959 . S
H2494 C2509 0.959 . S
H2495 C2509 0.961 . S
H2496 C2510 0.960 . S
H2497 C2510 0.961 . S
H2498 C2510 0.959 . S
H2499 C2513 0.929 . S
H2500 C2514 0.931 . S
H2501 C2516 0.930 . S
C2502 H2490 0.930 . S
C2502 C2503 1.399 . S
C2502 C2507 1.399 . S
C2503 C2502 1.399 . S
C2503 C2504 1.376 . S
C2504 H2491 0.930 . S
C2504 C2503 1.376 . S
C2504 C2505 1.388 . S
C2505 H2492 0.930 1_554 S
C2505 C2504 1.388 . S
C2505 C2506 1.390 . S
C2506 C2505 1.390 . S
C2506 C2507 1.394 . S
C2506 C2512 1.465 . S
C2507 C2502 1.399 . S
C2507 C2506 1.394 . S
C2507 C2508 1.516 . S
C2508 C2507 1.516 . S
C2508 C2509 1.502 . S
C2508 C2510 1.561 . S
C2508 C2511 1.526 . S
C2509 H2493 0.959 . S
C2509 H2494 0.959 . S
C2509 H2495 0.961 . S
C2509 C2508 1.502 . S
C2510 H2496 0.960 . S
C2510 H2497 0.961 . S
C2510 H2498 0.959 . S
C2510 C2508 1.561 . S
C2511 C2508 1.526 . S
C2511 C2512 1.396 . S
C2511 C2516 1.390 . S
C2512 C2506 1.465 . S
C2512 C2511 1.396 . S
C2512 C2513 1.399 1_554 S
C2513 H2499 0.929 . S
C2513 C2512 1.399 1_556 S
C2513 C2514 1.385 . S
C2514 H2500 0.931 . S
C2514 C2513 1.385 . S
C2514 C2515 1.389 1_556 S
C2515 C2514 1.389 1_554 S
C2515 C2516 1.387 . S
C2516 H2501 0.930 . S
C2516 C2511 1.390 . S
C2516 C2515 1.387 . S
H2517 C2529 0.930 . S
H2518 C2531 0.930 . S
H2519 C2532 0.930 . S
H2520 C2536 0.959 . S
H2521 C2536 0.959 . S
H2522 C2536 0.961 . S
H2523 C2537 0.960 . S
H2524 C2537 0.961 . S
H2525 C2537 0.959 . S
H2526 C2540 0.929 1_545 S
H2527 C2541 0.931 . S
H2528 C2543 0.930 . S
C2529 H2517 0.930 . S
C2529 C2530 1.399 1_565 S
C2529 C2534 1.399 . S
C2530 C2529 1.399 1_545 S
C2530 C2531 1.376 . S
C2531 H2518 0.930 . S
C2531 C2530 1.376 . S
C2531 C2532 1.388 . S
C2532 H2519 0.930 . S
C2532 C2531 1.388 . S
C2532 C2533 1.390 1_545 S
C2533 C2532 1.390 1_565 S
C2533 C2534 1.394 . S
C2533 C2539 1.465 . S
C2534 C2529 1.399 . S
C2534 C2533 1.394 . S
C2534 C2535 1.516 . S
C2535 C2534 1.516 . S
C2535 C2536 1.502 . S
C2535 C2537 1.561 1_554 S
C2535 C2538 1.526 . S
C2536 H2520 0.959 . S
C2536 H2521 0.959 . S
C2536 H2522 0.961 . S
C2536 C2535 1.502 . S
C2537 H2523 0.960 . S
C2537 H2524 0.961 . S
C2537 H2525 0.959 . S
C2537 C2535 1.561 1_556 S
C2538 C2535 1.526 . S
C2538 C2539 1.396 . S
C2538 C2543 1.390 . S
C2539 C2533 1.465 . S
C2539 C2538 1.396 . S
C2539 C2540 1.399 . S
C2540 H2526 0.929 1_565 S
C2540 C2539 1.399 . S
C2540 C2541 1.385 . S
C2541 H2527 0.931 . S
C2541 C2540 1.385 . S
C2541 C2542 1.389 . S
C2542 C2541 1.389 . S
C2542 C2543 1.387 . S
C2543 H2528 0.930 . S
C2543 C2538 1.390 . S
C2543 C2542 1.387 . S
C1273 C241 1.757 . S
C1261 C66 1.783 . S
C1300 C300 1.110 . S
C1288 C76 1.084 . S
C1315 C93 1.876 . S
C1327 C417 1.895 . S
C1354 C485 1.514 . S
C1342 C54 1.503 . S
C1381 C564 1.525 . S
C1369 C126 1.512 . S
C1408 C689 1.874 . S
C1396 C150 1.868 . S
C1423 C136 1.090 . S
C1435 C749 1.125 . S
C1462 C857 1.824 . S
C1450 C117 1.801 . S
C1477 C141 1.266 . S
C1489 C953 1.295 . S
C1516 C1013 1.311 . S
C1504 C112 1.316 . S
C1531 C124 1.559 . S
C1543 C916 1.559 . S
C1570 C1033 1.265 . S
C1558 C148 1.246 . S
C1585 C88 1.247 . S
C1597 C1101 1.254 . S
C1612 C52 1.623 . S
C1624 C1092 1.627 . S
C1639 C64 1.204 . S
C1651 C1121 1.224 . S
C1666 C78 1.190 . S
C1678 C1129 1.181 . S
C1693 C45 1.764 . S
C1705 C513 1.755 . S
C1720 C177 1.922 . S
C1732 C476 1.928 . S
C1759 C212 1.393 . S
C1747 C189 1.373 . S
C1786 C309 1.624 . S
C1774 C102 1.616 . S
C1801 C57 1.773 1_545 S
C1813 C573 1.781 . S
C1840 C865 1.439 . S
C1828 C138 1.448 . S
C1867 C593 1.852 . S
C1855 C114 1.857 1_545 S
C1894 C777 1.742 . S
C1882 C153 1.748 . S
C1921 C769 1.757 . S
C1909 C174 1.783 . S
C1936 C184 1.090 . S
C1948 C837 1.107 . S
C1963 C105 1.893 . S
C1975 C601 1.862 . S
C2002 C652 1.502 . S
C1990 C162 1.506 . S
C2017 C42 1.538 . S
C2029 C397 1.496 . S
C2056 C505 1.875 . S
C2044 C6 1.868 . S
C2083 C221 1.122 . S
C2071 C16 1.099 . S
C2110 C337 1.823 . S
C2098 C33 1.802 1_455 S
C2125 C21 1.271 . S
C2137 C1041 1.292 . S
C2152 C28 1.290 1_556 S
C2164 C925 1.311 . S
C2179 C40 1.545 . S
C2191 C1004 1.550 . S
C2206 C4 1.186 1_556 S
C2218 C945 1.258 . S
C2245 C1189 1.257 . S
C2233 C100 1.249 . S
C2272 C1180 1.620 . S
C2260 C160 1.594 1_554 S
C2299 C1209 1.219 . S
C2287 C172 1.231 . S
C2314 C186 1.167 . S
C2326 C1217 1.189 . S
C2341 C129 1.736 . S
C2353 C681 1.763 . S
C2380 C661 1.936 . S
C2368 C69 1.925 . S
C2407 C740 1.393 . S
C2395 C81 1.373 . S
C2434 C828 1.626 . S
C2422 C90 1.616 . S
C2449 C165 1.765 . S
C2461 C388 1.780 . S
C2488 C329 1.439 . S
C2476 C18 1.450 . S
C2503 C30 1.858 . S
C2515 C425 1.855 . S
C2542 C249 1.749 . S
C2530 C9 1.743 . S
