# Generated by pormake.
# Topology zzz, (3,6)-cn, num edge types: 1
# Building blocks:
#     Node 0, Type 0, BuildingBlock: BETDAH_clean_linker_0, # of connection points: 3
#     Node 1, Type 0, BuildingBlock: BETDAH_clean_linker_0, # of connection points: 3
#     Node 2, Type 0, BuildingBlock: BETDAH_clean_linker_0, # of connection points: 3
#     Node 3, Type 0, BuildingBlock: BETDAH_clean_linker_0, # of connection points: 3
#     Node 4, Type 0, BuildingBlock: BETDAH_clean_linker_0, # of connection points: 3
#     Node 5, Type 0, BuildingBlock: BETDAH_clean_linker_0, # of connection points: 3
#     Node 6, Type 0, BuildingBlock: BETDAH_clean_linker_0, # of connection points: 3
#     Node 7, Type 0, BuildingBlock: BETDAH_clean_linker_0, # of connection points: 3
#     Node 8, Type 1, BuildingBlock: PAMTUU_clean_sbu_0, # of connection points: 6
#     Node 9, Type 1, BuildingBlock: PAMTUU_clean_sbu_0, # of connection points: 6
#     Node 10, Type 1, BuildingBlock: PAMTUU_clean_sbu_0, # of connection points: 6
#     Node 11, Type 1, BuildingBlock: PAMTUU_clean_sbu_0, # of connection points: 6
#     Edge 12, Type (0, 1), BuildingBlock: TEMPAE_clean_linker_10, # of connection points: 2
#     Edge 13, Type (0, 1), BuildingBlock: TEMPAE_clean_linker_10, # of connection points: 2
#     Edge 14, Type (0, 1), BuildingBlock: TEMPAE_clean_linker_10, # of connection points: 2
#     Edge 15, Type (0, 1), BuildingBlock: TEMPAE_clean_linker_10, # of connection points: 2
#     Edge 16, Type (0, 1), BuildingBlock: TEMPAE_clean_linker_10, # of connection points: 2
#     Edge 17, Type (0, 1), BuildingBlock: TEMPAE_clean_linker_10, # of connection points: 2
#     Edge 18, Type (0, 1), BuildingBlock: TEMPAE_clean_linker_10, # of connection points: 2
#     Edge 19, Type (0, 1), BuildingBlock: TEMPAE_clean_linker_10, # of connection points: 2
#     Edge 20, Type (0, 1), BuildingBlock: TEMPAE_clean_linker_10, # of connection points: 2
#     Edge 21, Type (0, 1), BuildingBlock: TEMPAE_clean_linker_10, # of connection points: 2
#     Edge 22, Type (0, 1), BuildingBlock: TEMPAE_clean_linker_10, # of connection points: 2
#     Edge 23, Type (0, 1), BuildingBlock: TEMPAE_clean_linker_10, # of connection points: 2
#     Edge 24, Type (0, 1), BuildingBlock: TEMPAE_clean_linker_10, # of connection points: 2
#     Edge 25, Type (0, 1), BuildingBlock: TEMPAE_clean_linker_10, # of connection points: 2
#     Edge 26, Type (0, 1), BuildingBlock: TEMPAE_clean_linker_10, # of connection points: 2
#     Edge 27, Type (0, 1), BuildingBlock: TEMPAE_clean_linker_10, # of connection points: 2
#     Edge 28, Type (0, 1), BuildingBlock: TEMPAE_clean_linker_10, # of connection points: 2
#     Edge 29, Type (0, 1), BuildingBlock: TEMPAE_clean_linker_10, # of connection points: 2
#     Edge 30, Type (0, 1), BuildingBlock: TEMPAE_clean_linker_10, # of connection points: 2
#     Edge 31, Type (0, 1), BuildingBlock: TEMPAE_clean_linker_10, # of connection points: 2
#     Edge 32, Type (0, 1), BuildingBlock: TEMPAE_clean_linker_10, # of connection points: 2
#     Edge 33, Type (0, 1), BuildingBlock: TEMPAE_clean_linker_10, # of connection points: 2
#     Edge 34, Type (0, 1), BuildingBlock: TEMPAE_clean_linker_10, # of connection points: 2
#     Edge 35, Type (0, 1), BuildingBlock: TEMPAE_clean_linker_10, # of connection points: 2
# Relax obj value: 0.215
# Max RMSD: 0.225
# Mean RMSD: 0.121
data_MOF--net-zzz--node1-PAMTUU_clean_sbu_0--node2-BETDAH_clean_linker_0--edge1-TEMPAE_clean_linker_10
_symmetry_space_group_name_H-M    P1
_symmetry_Int_Tables_number       1
_symmetry_cell_setting            triclinic
loop_
_symmetry_equiv_pos_as_xyz
'x, y, z'
_cell_length_a     51.96369
_cell_length_b     55.228983
_cell_length_c     15.836089
_cell_angle_alpha  101.27765
_cell_angle_beta   89.956929
_cell_angle_gamma 91.012969
loop_
_atom_site_label
_atom_site_type_symbol
_atom_site_fract_x
_atom_site_fract_y
_atom_site_fract_z
_atom_type_partial_charge
H0 H 0.81619 0.54306 0.45775 0.0
H1 H 0.74519 0.52877 0.31706 0.0
H2 H 0.76523 0.48559 0.50652 0.0
C3 C 0.79776 0.5335 0.44742 0.0
C4 C 0.79286 0.51425 0.49112 0.0
C5 C 0.78133 0.53821 0.38227 0.0
C6 C 0.75777 0.52524 0.36763 0.0
C7 C 0.75133 0.50666 0.41388 0.0
C8 C 0.76939 0.50071 0.47392 0.0
N9 N 0.72761 0.49291 0.39803 0.0
C10 C 0.70857 0.49635 0.33857 0.0
H11 H 0.99242 0.80036 0.35508 0.0
H12 H 0.97144 0.72604 0.23725 0.0
H13 H 0.95476 0.75361 0.50611 0.0
C14 C 0.98438 0.78246 0.36082 0.0
C15 C 0.97427 0.77911 0.4395 0.0
C16 C 0.9832 0.76361 0.28801 0.0
C17 C 0.97245 0.74056 0.29411 0.0
C18 C 0.96237 0.73679 0.37372 0.0
C19 C 0.96284 0.75633 0.44548 0.0
N20 N 0.9514 0.71379 0.38361 0.0
C21 C 0.95572 0.69182 0.32621 0.0
H22 H 0.71832 0.94781 0.41564 0.0
H23 H 0.78751 0.96242 0.28381 0.0
H24 H 0.76425 0.01216 0.51549 0.0
C25 C 0.73589 0.95851 0.41322 0.0
C26 C 0.73927 0.98016 0.47485 0.0
C27 C 0.7524 0.95259 0.342 0.0
C28 C 0.77484 0.96696 0.33874 0.0
C29 C 0.77977 0.9882 0.40211 0.0
C30 C 0.76142 0.99512 0.46903 0.0
N31 N 0.80202 0.00361 0.39714 0.0
C32 C 0.82105 0.99973 0.33263 0.0
H33 H 0.51834 0.69201 0.17214 0.0
H34 H 0.52878 0.75288 0.04253 0.0
H35 H 0.55024 0.7605 0.31043 0.0
C36 C 0.52368 0.71125 0.17464 0.0
C37 C 0.53381 0.72515 0.25075 0.0
C38 C 0.52198 0.7209 0.09968 0.0
C39 C 0.52976 0.74551 0.10095 0.0
C40 C 0.53952 0.76014 0.17809 0.0
C41 C 0.54205 0.74959 0.25198 0.0
N42 N 0.54791 0.7851 0.18372 0.0
C43 C 0.54237 0.80024 0.12529 0.0
H44 H 0.20564 0.5275 0.31439 0.0
H45 H 0.27934 0.51454 0.41596 0.0
H46 H 0.25968 0.48202 0.15233 0.0
C47 C 0.22416 0.51864 0.30496 0.0
C48 C 0.22966 0.50357 0.22529 0.0
C49 C 0.24145 0.52187 0.37439 0.0
C50 C 0.26606 0.51194 0.36212 0.0
C51 C 0.27312 0.49793 0.28157 0.0
C52 C 0.2547 0.49359 0.21332 0.0
N53 N 0.29814 0.48738 0.26872 0.0
C54 C 0.31757 0.48968 0.33177 0.0
H55 H 0.07138 0.18747 0.22365 0.0
H56 H 0.06217 0.26384 0.33939 0.0
H57 H 0.07405 0.24215 0.06526 0.0
C58 C 0.07187 0.20679 0.21829 0.0
C59 C 0.07391 0.21277 0.13689 0.0
C60 C 0.06736 0.225 0.2913 0.0
C61 C 0.06617 0.24983 0.28308 0.0
C62 C 0.06954 0.25619 0.20142 0.0
C63 C 0.07294 0.23749 0.12857 0.0
N64 N 0.06849 0.28094 0.18926 0.0
C65 C 0.06335 0.30099 0.25443 0.0
H66 H 0.30731 0.04278 0.23729 0.0
H67 H 0.2333 0.0267 0.33496 0.0
H68 H 0.2575 0.98887 0.08321 0.0
C69 C 0.28872 0.03349 0.2272 0.0
C70 C 0.28471 0.01621 0.15069 0.0
C71 C 0.27076 0.03674 0.2948 0.0
C72 C 0.24706 0.02409 0.28269 0.0
C73 C 0.24182 0.00689 0.2066 0.0
C74 C 0.261 0.00266 0.14097 0.0
N75 N 0.21807 0.99295 0.19705 0.0
C76 C 0.19876 0.99442 0.26045 0.0
H77 H 0.49239 0.30754 0.51491 0.0
H78 H 0.50546 0.24356 0.62493 0.0
H79 H 0.48146 0.23539 0.35895 0.0
C80 C 0.49239 0.28758 0.50833 0.0
C81 C 0.48571 0.27281 0.42944 0.0
C82 C 0.49951 0.27732 0.57864 0.0
C83 C 0.49993 0.2515 0.57042 0.0
C84 C 0.49318 0.23616 0.49073 0.0
C85 C 0.4865 0.24703 0.42023 0.0
N86 N 0.49296 0.2099 0.47802 0.0
C87 C 0.49536 0.19575 0.54154 0.0
Tb88 Tb 0.99232 0.00773 0.73342 0.0
Tb89 Tb 0.02981 0.98752 0.8701 0.0
C90 C 0.97106 0.9972 0.91224 0.0
C91 C 0.97398 0.05114 0.59941 0.0
C92 C 0.99335 0.09455 0.55157 0.0
C93 C 1.00451 0.07164 0.5189 0.0
C94 C 0.99505 0.05014 0.54304 0.0
C95 C 0.96212 0.07391 0.62874 0.0
C96 C 0.97184 0.09545 0.60564 0.0
C97 C 0.96657 0.02973 0.63801 0.0
O98 O 0.02092 0.03617 0.77851 0.0
O99 O 0.02891 0.0275 0.91098 0.0
O100 O 0.05576 0.99654 0.77041 0.0
O101 O 0.02688 0.99468 0.65954 0.0
O102 O 0.04004 0.98599 0.99744 0.0
O103 O 0.06158 0.96636 0.89007 0.0
O104 O 1.01428 0.95497 0.78495 0.0
O105 O 0.97944 0.96966 0.72083 0.0
O106 O 0.97072 0.01156 0.85486 0.0
O107 O 0.99079 0.98298 0.91743 0.0
C108 C 0.02901 0.04298 0.85778 0.0
O109 O 0.97807 0.00887 0.60972 0.0
O110 O 0.96536 0.03463 0.72174 0.0
C111 C 0.05079 0.99506 0.68781 0.0
C112 C 0.05222 0.94545 1.00082 0.0
C113 C 0.04399 0.89821 0.03816 0.0
C114 C 0.06699 0.91141 0.06374 0.0
C115 C 0.07121 0.93487 0.04425 0.0
C116 C 0.02895 0.93256 0.97822 0.0
C117 C 0.02495 0.90907 0.99605 0.0
C118 C 0.05688 0.96886 0.9721 0.0
C119 C 0.99269 0.95152 0.74075 0.0
H120 H 0.02118 0.0705 0.47729 0.0
H121 H 1.00484 0.03297 0.52003 0.0
H122 H 0.94596 0.07521 0.67256 0.0
H123 H 0.96273 0.11286 0.63082 0.0
H124 H 0.0818 0.90335 0.09706 0.0
H125 H 0.08932 0.94454 0.06189 0.0
H126 H 1.01402 0.94061 0.9456 0.0
H127 H 1.00689 0.89942 0.97754 0.0
Tb128 Tb 0.50333 0.98184 0.73011 0.0
Tb129 Tb 0.52362 0.00929 0.91561 0.0
C130 C 0.52249 0.95178 0.86504 0.0
C131 C 0.46297 0.97601 0.54805 0.0
C132 C 0.41757 1.00022 0.52219 0.0
C133 C 0.41849 0.97431 0.50141 0.0
C134 C 0.44108 0.96223 0.51492 0.0
C135 C 0.46238 0.00195 0.56312 0.0
C136 C 0.43983 0.01395 0.55076 0.0
C137 C 0.48375 0.96415 0.5865 0.0
O138 O 0.46876 0.99805 0.79677 0.0
O139 O 0.4828 1.00057 0.93455 0.0
O140 O 0.50697 0.03939 0.86468 0.0
O141 O 0.50971 0.02059 0.72282 0.0
O142 O 0.52341 0.00918 0.04802 0.0
O143 O 0.54622 0.03606 0.99722 0.0
O144 O 0.5565 0.00952 0.82764 0.0
O145 O 0.54504 0.97663 0.7218 0.0
O146 O 0.50495 0.9531 0.80676 0.0
O147 O 0.53632 0.97132 0.89862 0.0
C148 C 0.46379 1.0 0.87926 0.0
O149 O 0.50581 0.97602 0.59513 0.0
O150 O 0.47709 0.9569 0.657 0.0
C151 C 0.50687 0.04053 0.7826 0.0
C152 C 0.56617 0.01349 0.09028 0.0
C153 C 0.60385 0.9808 0.12492 0.0
C154 C 0.58458 0.98893 0.18581 0.0
C155 C 0.56576 0.00508 0.16833 0.0
C156 C 0.58612 0.00612 0.03132 0.0
C157 C 0.60472 0.98994 0.04842 0.0
C158 C 0.54307 0.02441 0.06088 0.0
C159 C 0.56252 0.99275 0.75938 0.0
H160 H 0.40141 0.96342 0.47898 0.0
H161 H 0.441 0.94225 0.50458 0.0
H162 H 0.47888 0.01305 0.58947 0.0
H163 H 0.4396 0.03396 0.56575 0.0
H164 H 0.58364 0.9822 0.24558 0.0
H165 H 0.55019 0.01 0.21364 0.0
H166 H 0.58672 0.01189 0.96987 0.0
H167 H 0.61973 0.98446 1.00138 0.0
Tb168 Tb 0.49515 0.49358 0.91667 0.0
Tb169 Tb 0.5322 0.50297 0.75678 0.0
C170 C 0.47178 0.49563 0.73395 0.0
C171 C 0.46974 0.45903 0.07278 0.0
C172 C 0.47227 0.41348 0.1285 0.0
C173 C 0.44836 0.42353 0.11407 0.0
C174 C 0.44712 0.44613 0.08674 0.0
C175 C 0.49367 0.44897 0.0871 0.0
C176 C 0.4949 0.42654 0.11529 0.0
C177 C 0.46828 0.48136 0.03453 0.0
O178 O 0.5035 0.45753 0.84099 0.0
O179 O 0.53912 0.46443 0.7608 0.0
O180 O 0.55602 0.51004 0.87426 0.0
O181 O 0.53416 0.48631 0.95453 0.0
O182 O 0.54063 0.50014 0.62488 0.0
O183 O 0.56479 0.52176 0.72215 0.0
O184 O 0.50968 0.53573 0.79848 0.0
O185 O 0.50277 0.53342 0.93927 0.0
O186 O 0.46898 0.50204 0.81809 0.0
O187 O 0.49465 0.4905 0.69966 0.0
C188 C 0.52352 0.44968 0.79361 0.0
O189 O 0.48766 0.49701 0.04908 0.0
O190 O 0.46125 0.47722 0.95398 0.0
C191 C 0.55514 0.49828 0.93904 0.0
C192 C 0.55719 0.53832 0.59987 0.0
C193 C 0.55595 0.58321 0.54001 0.0
C194 C 0.57634 0.56678 0.51724 0.0
C195 C 0.57707 0.54459 0.54771 0.0
C196 C 0.53637 0.55427 0.61976 0.0
C197 C 0.53585 0.57659 0.59084 0.0
C198 C 0.55921 0.51657 0.64053 0.0
C199 C 0.50479 0.54635 0.87798 0.0
H200 H 0.43061 0.41395 0.12436 0.0
H201 H 0.42848 0.45332 0.0749 0.0
H202 H 0.51146 0.4582 0.07496 0.0
H203 H 0.5136 0.41912 0.125 0.0
H204 H 0.59205 0.57142 0.47795 0.0
H205 H 0.59338 0.53261 0.53203 0.0
H206 H 0.5207 0.54967 0.65892 0.0
H207 H 0.51968 0.58866 0.60805 0.0
Tb208 Tb 0.02723 0.51329 0.74386 0.0
Tb209 Tb 1.00861 0.47945 0.87737 0.0
C210 C 1.00422 0.53652 0.92005 0.0
C211 C 0.0675 0.56071 0.67737 0.0
C212 C 0.1152 0.58573 0.71114 0.0
C213 C 0.1005 0.57975 0.77904 0.0
C214 C 0.07685 0.56725 0.76219 0.0
C215 C 0.08089 0.5685 0.61083 0.0
C216 C 0.10447 0.58095 0.62743 0.0
C217 C 0.04627 0.5427 0.65643 0.0
O218 O 0.05731 0.51408 0.84221 0.0
O219 O 0.05028 0.47538 0.86645 0.0
O220 O 1.01451 0.45188 0.76251 0.0
O221 O 0.03383 0.47577 0.67486 0.0
O222 O 0.01457 0.46966 0.99751 0.0
O223 O 0.9818 0.45535 0.91878 0.0
O224 O 0.97353 0.49176 0.82105 0.0
O225 O 0.98931 0.49988 0.6939 0.0
O226 O 1.00342 0.53638 0.83769 0.0
O227 O 1.01242 0.51729 0.94802 0.0
C228 C 0.06581 0.49446 0.86815 0.0
O229 O 0.05301 0.51978 0.64837 0.0
O230 O 0.02558 0.54719 0.7027 0.0
C231 C 0.02617 0.45425 0.69089 0.0
C232 C 0.97378 0.47216 0.06308 0.0
C233 C 0.93361 0.50093 0.14498 0.0
C234 C 0.92981 0.47545 0.11466 0.0
C235 C 0.94976 0.46116 0.07334 0.0
C236 C 0.97812 0.49717 0.10111 0.0
C237 C 0.95809 0.51153 0.14071 0.0
C238 C 0.99151 0.4599 0.99632 0.0
C239 C 0.96975 0.49532 0.7419 0.0
H240 H 0.10796 0.58332 0.84422 0.0
H241 H 0.06664 0.56139 0.8146 0.0
H242 H 0.07402 0.56348 0.54503 0.0
H243 H 0.11523 0.58477 0.5728 0.0
H244 H 0.91096 0.46696 0.11763 0.0
H245 H 0.94589 0.44204 0.04385 0.0
H246 H 0.9965 0.50614 0.09508 0.0
H247 H 0.96143 0.53109 0.16482 0.0
C248 C 0.16821 0.01704 0.36896 0.0
C249 C 0.17793 0.99471 0.32357 0.0
C250 C 0.14775 0.01745 0.42843 0.0
C251 C 0.1366 0.99497 0.44335 0.0
C252 C 0.14656 0.97237 0.39755 0.0
C253 C 0.16699 0.97253 0.33846 0.0
C254 C 0.13796 0.04201 0.47506 0.0
C255 C 0.13553 0.94792 0.41071 0.0
C256 C 0.09855 0.99486 0.65243 0.0
C257 C 0.07277 0.99482 0.62512 0.0
C258 C 0.11932 0.99495 0.59452 0.0
C259 C 0.11453 0.99505 0.50629 0.0
C260 C 0.08857 0.99505 0.47832 0.0
C261 C 0.06816 0.99492 0.53757 0.0
C262 C 0.1465 0.99491 0.62796 0.0
C263 C 0.08228 0.99519 0.3854 0.0
H264 H 0.17655 0.03426 0.35767 0.0
H265 H 0.17438 0.9552 0.30347 0.0
H266 H 0.11726 0.04359 0.46032 0.0
H267 H 0.13966 0.04332 0.54565 0.0
H268 H 0.14867 0.05783 0.45705 0.0
H269 H 0.1455 0.93198 0.37126 0.0
H270 H 0.13706 0.94661 0.47954 0.0
H271 H 0.11479 0.94655 0.39361 0.0
H272 H 0.10259 0.99482 0.71952 0.0
H273 H 0.04849 0.995 0.515 0.0
H274 H 0.15728 0.0114 0.61576 0.0
H275 H 0.15662 0.97841 0.59314 0.0
H276 H 0.14715 0.99489 0.69806 0.0
H277 H 0.09132 0.01162 0.36608 0.0
H278 H 0.06122 0.99541 0.3736 0.0
H279 H 0.09034 0.97863 0.3433 0.0
C280 C 0.47409 0.16458 0.6114 0.0
C281 C 0.49662 0.17694 0.59387 0.0
C282 C 0.47511 0.14369 0.64998 0.0
C283 C 0.49929 0.13492 0.67117 0.0
C284 C 0.52205 0.14807 0.65652 0.0
C285 C 0.52044 0.16889 0.61769 0.0
C286 C 0.45037 0.1303 0.66402 0.0
C287 C 0.54821 0.13945 0.67804 0.0
C288 C 0.50196 0.08694 0.81595 0.0
C289 C 0.50445 0.06483 0.75538 0.0
C290 C 0.50024 0.10988 0.78982 0.0
C291 C 0.50092 0.11082 0.70098 0.0
C292 C 0.50323 0.08855 0.63969 0.0
C293 C 0.50507 0.06599 0.66752 0.0
C294 C 0.49782 0.13315 0.85727 0.0
C295 C 0.50389 0.08853 0.54431 0.0
H296 H 0.45568 0.1707 0.59195 0.0
H297 H 0.53787 0.17833 0.60314 0.0
H298 H 0.44973 0.11194 0.62039 0.0
H299 H 0.44946 0.1271 0.73097 0.0
H300 H 0.43311 0.14067 0.65156 0.0
H301 H 0.56377 0.15291 0.6704 0.0
H302 H 0.54854 0.13638 0.74519 0.0
H303 H 0.55237 0.12155 0.63512 0.0
H304 H 0.5015 0.08638 0.88396 0.0
H305 H 0.50718 0.04919 0.61982 0.0
H306 H 0.47995 0.1428 0.84634 0.0
H307 H 0.5142 0.14593 0.85209 0.0
H308 H 0.49743 0.12937 0.92364 0.0
H309 H 0.48624 0.09706 0.52485 0.0
H310 H 0.50537 0.06963 0.50483 0.0
H311 H 0.52056 0.09979 0.52933 0.0
C312 C 0.3528 0.51301 0.42091 0.0
C313 C 0.33888 0.49092 0.39311 0.0
C314 C 0.37412 0.51413 0.47715 0.0
C315 C 0.38181 0.49263 0.50654 0.0
C316 C 0.36753 0.47031 0.47886 0.0
C317 C 0.34632 0.46974 0.42256 0.0
C318 C 0.38861 0.53831 0.50443 0.0
C319 C 0.3748 0.44693 0.50809 0.0
C320 C 0.4513 0.48897 0.58575 0.0
C321 C 0.44869 0.49471 0.67589 0.0
C322 C 0.42986 0.48826 0.53034 0.0
C323 C 0.40491 0.49337 0.56513 0.0
C324 C 0.40213 0.49913 0.65601 0.0
C325 C 0.42391 0.49975 0.70995 0.0
C326 C 0.43396 0.48204 0.4342 0.0
C327 C 0.37604 0.50465 0.69645 0.0
H328 H 0.34716 0.52941 0.39801 0.0
H329 H 0.33565 0.4526 0.40092 0.0
H330 H 0.3888 0.54375 0.57568 0.0
H331 H 0.40893 0.53619 0.48309 0.0
H332 H 0.38004 0.55344 0.47734 0.0
H333 H 0.36151 0.43124 0.48251 0.0
H334 H 0.39463 0.44174 0.48661 0.0
H335 H 0.37472 0.44999 0.57945 0.0
H336 H 0.47021 0.48507 0.55806 0.0
H337 H 0.42145 0.50421 0.77918 0.0
H338 H 0.42725 0.49739 0.40434 0.0
H339 H 0.42239 0.46537 0.40574 0.0
H340 H 0.45448 0.47859 0.41698 0.0
H341 H 0.36766 0.52069 0.6744 0.0
H342 H 0.37696 0.50877 0.76792 0.0
H343 H 0.36274 0.48866 0.67561 0.0
C344 C 0.07538 0.3311 0.38467 0.0
C345 C 0.05773 0.32246 0.31874 0.0
C346 C 0.07046 0.35253 0.44604 0.0
C347 C 0.04735 0.36541 0.44063 0.0
C348 C 0.02942 0.35648 0.37397 0.0
C349 C 0.03488 0.33503 0.31355 0.0
C350 C 0.09 0.36147 0.5162 0.0
C351 C 1.00458 0.36967 0.36621 0.0
C352 C 0.02342 0.40834 0.6411 0.0
C353 C 0.03138 0.43157 0.62622 0.0
C354 C 0.02852 0.38667 0.58129 0.0
C355 C 0.04191 0.38822 0.50467 0.0
C356 C 0.04997 0.41156 0.48901 0.0
C357 C 0.0446 0.43296 0.54993 0.0
C358 C 0.01959 0.3621 0.60013 0.0
C359 C 0.0643 0.41392 0.40794 0.0
H360 H 0.09308 0.32119 0.38785 0.0
H361 H 0.02136 0.32815 0.2619 0.0
H362 H 0.09683 0.38039 0.51258 0.0
H363 H 0.08097 0.36248 0.58028 0.0
H364 H 0.10691 0.34925 0.51161 0.0
H365 H 0.99263 0.3602 0.311 0.0
H366 H 0.99319 0.37091 0.42614 0.0
H367 H 1.00879 0.38883 0.35793 0.0
H368 H 1.01319 0.407 0.69972 0.0
H369 H 0.05087 0.45077 0.53773 0.0
H370 H 0.03632 0.34995 0.60119 0.0
H371 H 1.00644 0.35267 0.54838 0.0
H372 H 1.00941 0.36406 0.66275 0.0
H373 H 0.08232 0.40326 0.40345 0.0
H374 H 0.06928 0.43342 0.40551 0.0
H375 H 0.05246 0.406 0.35059 0.0
C376 C 0.84169 0.98224 0.19115 0.0
C377 C 0.84243 0.99853 0.2711 0.0
C378 C 0.8622 0.98143 0.13162 0.0
C379 C 0.88409 0.99734 0.15209 0.0
C380 C 0.88478 0.01378 0.2332 0.0
C381 C 0.86404 0.01416 0.29135 0.0
C382 C 0.86042 0.96356 0.04654 0.0
C383 C 0.90747 0.03111 0.25861 0.0
C384 C 0.94828 0.98152 0.03363 0.0
C385 C 0.94864 0.99705 0.97291 0.0
C386 C 0.92747 0.98125 0.09125 0.0
C387 C 0.90618 0.9969 0.08908 0.0
C388 C 0.90636 0.01252 0.02767 0.0
C389 C 0.92741 0.0124 0.97073 0.0
C390 C 0.92837 0.96425 0.15503 0.0
C391 C 0.8843 0.02957 0.02242 0.0
H392 H 0.82502 0.97014 0.17497 0.0
H393 H 0.86471 0.02684 0.35299 0.0
H394 H 0.86139 0.9738 0.9929 0.0
H395 H 0.877 0.95095 0.03929 0.0
H396 H 0.84233 0.95232 0.04021 0.0
H397 H 0.90522 0.04272 0.32381 0.0
H398 H 0.92537 0.02041 0.25757 0.0
H399 H 0.90992 0.04341 0.21144 0.0
H400 H 0.96438 0.96948 0.03645 0.0
H401 H 0.92722 0.0245 0.9245 0.0
H402 H 0.9112 0.95178 0.14687 0.0
H403 H 0.92788 0.97523 0.22163 0.0
H404 H 0.94592 0.95283 0.1477 0.0
H405 H 0.86601 0.01876 0.01065 0.0
H406 H 0.88698 0.04029 0.97046 0.0
H407 H 0.88228 0.04271 0.08464 0.0
C408 C 0.55381 0.82227 0.00793 0.0
C409 C 0.53808 0.81975 0.07757 0.0
C410 C 0.5517 0.84285 0.96795 0.0
C411 C 0.53355 0.86137 0.99899 0.0
C412 C 0.51733 0.85852 0.0686 0.0
C413 C 0.51982 0.83774 0.10701 0.0
C414 C 0.56931 0.84506 0.89392 0.0
C415 C 0.49784 0.87779 0.10423 0.0
C416 C 0.54411 0.92709 0.96159 0.0
C417 C 0.52643 0.92815 0.89532 0.0
C418 C 0.54695 0.90542 0.99475 0.0
C419 C 0.5319 0.88408 0.96064 0.0
C420 C 0.5145 0.88484 0.89234 0.0
C421 C 0.51193 0.90682 0.86073 0.0
C422 C 0.56581 0.90553 0.06736 0.0
C423 C 0.4982 0.86254 0.8537 0.0
H424 H 0.56817 0.80845 0.98598 0.0
H425 H 0.50789 0.83589 0.16171 0.0
H426 H 0.55788 0.84793 0.83766 0.0
H427 H 0.58228 0.86141 0.91258 0.0
H428 H 0.58127 0.82845 0.87409 0.0
H429 H 0.48616 0.8725 0.15676 0.0
H430 H 0.50785 0.89564 0.12965 0.0
H431 H 0.48469 0.88083 0.0523 0.0
H432 H 0.5555 0.94337 0.98888 0.0
H433 H 0.49827 0.90735 0.80947 0.0
H434 H 0.58089 0.89169 0.0464 0.0
H435 H 0.55581 0.90025 0.1232 0.0
H436 H 0.5753 0.92388 0.08899 0.0
H437 H 0.5106 0.84637 0.83195 0.0
H438 H 0.48655 0.86567 0.79815 0.0
H439 H 0.48498 0.85776 0.90324 0.0
C440 C 0.66844 0.51579 0.29983 0.0
C441 C 0.68752 0.49801 0.27853 0.0
C442 C 0.64721 0.51661 0.24463 0.0
C443 C 0.64488 0.49917 0.16597 0.0
C444 C 0.66439 0.48134 0.14411 0.0
C445 C 0.68539 0.48098 0.20054 0.0
C446 C 0.62705 0.53595 0.27116 0.0
C447 C 0.66286 0.46233 0.06161 0.0
C448 C 0.57794 0.48502 0.06328 0.0
C449 C 0.5782 0.4986 0.99676 0.0
C450 C 0.59932 0.48509 0.11841 0.0
C451 C 0.6218 0.49915 0.10775 0.0
C452 C 0.6222 0.51294 0.04089 0.0
C453 C 0.60054 0.51247 0.98641 0.0
C454 C 0.59784 0.47 0.18816 0.0
C455 C 0.64557 0.52826 0.02687 0.0
H456 H 0.66994 0.5289 0.36035 0.0
H457 H 0.70003 0.46711 0.18408 0.0
H458 H 0.62468 0.54698 0.22026 0.0
H459 H 0.60819 0.52689 0.27877 0.0
H460 H 0.63198 0.54866 0.33268 0.0
H461 H 0.67979 0.4501 0.05271 0.0
H462 H 0.6452 0.45073 0.06152 0.0
H463 H 0.66151 0.4716 0.00567 0.0
H464 H 0.56096 0.47416 0.0724 0.0
H465 H 0.60114 0.52309 0.93568 0.0
H466 H 0.60078 0.48216 0.25213 0.0
H467 H 0.61343 0.45626 0.17939 0.0
H468 H 0.57907 0.46007 0.18833 0.0
H469 H 0.64993 0.54206 0.08629 0.0
H470 H 0.64289 0.53812 0.97281 0.0
H471 H 0.66257 0.51627 0.01304 0.0
C472 C 0.98511 0.66702 0.22499 0.0
C473 C 0.96163 0.66912 0.26846 0.0
C474 C 0.99156 0.64493 0.16962 0.0
C475 C 0.974 0.62461 0.15785 0.0
C476 C 0.9502 0.62675 0.20219 0.0
C477 C 0.94428 0.64911 0.25729 0.0
C478 C 0.01714 0.64332 0.1237 0.0
C479 C 0.93101 0.6055 0.19103 0.0
C480 C 0.98199 0.57697 0.95238 0.0
C481 C 0.99581 0.55862 0.98164 0.0
C482 C 0.9742 0.59826 0.0095 0.0
C483 C 0.98049 0.60133 0.09791 0.0
C484 C 0.99404 0.58268 0.12814 0.0
C485 C 1.00158 0.56155 0.06955 0.0
C486 C 0.95956 0.61764 0.97499 0.0
C487 C 1.00105 0.5853 0.22203 0.0
H488 H 0.99845 0.68265 0.23451 0.0
H489 H 0.92614 0.65096 0.29169 0.0
H490 H 0.02842 0.62798 0.13996 0.0
H491 H 1.01401 0.63921 0.05301 0.0
H492 H 0.02873 0.66069 0.14084 0.0
H493 H 0.91356 0.61004 0.2312 0.0
H494 H 0.92505 0.60033 0.12253 0.0
H495 H 0.93998 0.58904 0.20827 0.0
H496 H 0.97726 0.57473 0.88461 0.0
H497 H 1.01243 0.54756 0.09251 0.0
H498 H 0.97094 0.63516 0.98534 0.0
H499 H 0.94118 0.6215 0.01033 0.0
H500 H 0.95523 0.61196 0.90516 0.0
H501 H 1.01437 0.60135 0.24144 0.0
H502 H 1.01044 0.56856 0.2358 0.0
H503 H 0.9836 0.58888 0.26261 0.0
C504 C 0.07567 0.20064 0.40413 0.0
C505 C 0.05955 0.21652 0.37052 0.0
C506 C 0.06554 0.18407 0.45277 0.0
C507 C 0.03866 0.1833 0.46705 0.0
C508 C 0.0229 0.20146 0.44254 0.0
C509 C 0.03361 0.21799 0.39461 0.0
C510 C 0.08315 0.1654 0.47922 0.0
C511 C 0.9942 0.20143 0.457 0.0
C512 C 1.00964 0.11889 0.44494 0.0
C513 C 1.0045 0.11752 0.53061 0.0
C514 C 0.02046 0.14035 0.42379 0.0
C515 C 0.02662 0.16085 0.49022 0.0
C516 C 0.02159 0.15952 0.57708 0.0
C517 C 1.0104 0.13787 0.59623 0.0
C518 C 0.0254 0.14098 0.33013 0.0
C519 C 0.02831 0.18077 0.64961 0.0
H520 H 0.09573 0.19948 0.38505 0.0
H521 H 0.02111 0.23011 0.36786 0.0
H522 H 0.07797 0.16193 0.54381 0.0
H523 H 0.08112 0.14763 0.43265 0.0
H524 H 0.10363 0.17156 0.48009 0.0
H525 H 0.98562 0.21922 0.44996 0.0
H526 H 0.98507 0.18643 0.40886 0.0
H527 H 0.98953 0.19786 0.52185 0.0
H528 H 1.00495 0.10319 0.39427 0.0
H529 H 1.00673 0.13666 0.6627 0.0
H530 H 0.04631 0.14344 0.31951 0.0
H531 H 0.01554 0.1569 0.31207 0.0
H532 H 0.01862 0.12383 0.28637 0.0
H533 H 0.04931 0.18478 0.64959 0.0
H534 H 0.02289 0.17687 0.71359 0.0
H535 H 0.01843 0.19768 0.64017 0.0
C536 C 0.27832 0.03321 0.4459 0.0
C537 C 0.28002 0.04782 0.38276 0.0
C538 C 0.29887 0.03295 0.50282 0.0
C539 C 0.32097 0.04759 0.49497 0.0
C540 C 0.31927 0.06706 0.44929 0.0
C541 C 0.29836 0.06716 0.3935 0.0
C542 C 0.29908 0.01348 0.5575 0.0
C543 C 0.34162 0.0846 0.4461 0.0
C544 C 0.38399 0.02997 0.58649 0.0
C545 C 0.39328 0.01297 0.51593 0.0
C546 C 0.36066 0.04198 0.58106 0.0
C547 C 0.34649 0.0367 0.50319 0.0
C548 C 0.35626 0.01979 0.43131 0.0
C549 C 0.37947 0.00809 0.43898 0.0
C550 C 0.35123 0.05964 0.65953 0.0
C551 C 0.34246 0.01405 0.34551 0.0
H552 H 0.26348 0.01897 0.44146 0.0
H553 H 0.29886 0.07955 0.34817 0.0
H554 H 0.30908 0.99695 0.52217 0.0
H555 H 0.30958 0.02028 0.61874 0.0
H556 H 0.27922 0.0078 0.57223 0.0
H557 H 0.33509 0.10212 0.42933 0.0
H558 H 0.35196 0.08876 0.50872 0.0
H559 H 0.35537 0.07594 0.39594 0.0
H560 H 0.39476 0.03356 0.64642 0.0
H561 H 0.38704 0.99521 0.38437 0.0
H562 H 0.33749 0.07318 0.64321 0.0
H563 H 0.36767 0.06985 0.69583 0.0
H564 H 0.34145 0.04892 0.70305 0.0
H565 H 0.32245 0.00759 0.35358 0.0
H566 H 0.35221 0.99964 0.29802 0.0
H567 H 0.34172 0.03102 0.31817 0.0
C568 C 0.53263 0.30239 0.66998 0.0
C569 C 0.50673 0.29509 0.65764 0.0
C570 C 0.53937 0.32663 0.71081 0.0
C571 C 0.51969 0.34387 0.73738 0.0
C572 C 0.49372 0.33552 0.73552 0.0
C573 C 0.48761 0.31104 0.69678 0.0
C574 C 0.56736 0.33445 0.71696 0.0
C575 C 0.47207 0.35313 0.76382 0.0
C576 C 0.52851 0.41096 0.84845 0.0
C577 C 0.52787 0.42292 0.77813 0.0
C578 C 0.52791 0.38509 0.83636 0.0
C579 C 0.52546 0.37092 0.75192 0.0
C580 C 0.52577 0.38302 0.68045 0.0
C581 C 0.52739 0.40894 0.69453 0.0
C582 C 0.52842 0.37324 0.91453 0.0
C583 C 0.52251 0.36873 0.58933 0.0
H584 H 0.54743 0.29012 0.6393 0.0
H585 H 0.46758 0.30539 0.68647 0.0
H586 H 0.57212 0.3443 0.66409 0.0
H587 H 0.57136 0.34733 0.77887 0.0
H588 H 0.58015 0.31832 0.71146 0.0
H589 H 0.45328 0.34332 0.76547 0.0
H590 H 0.47604 0.36433 0.82868 0.0
H591 H 0.47046 0.36604 0.71851 0.0
H592 H 0.52877 0.4219 0.91332 0.0
H593 H 0.52646 0.41831 0.64049 0.0
H594 H 0.53734 0.35478 0.90012 0.0
H595 H 0.50845 0.37096 0.93689 0.0
H596 H 0.53915 0.38505 0.96841 0.0
H597 H 0.52391 0.38082 0.54103 0.0
H598 H 0.50343 0.35917 0.58229 0.0
H599 H 0.53736 0.35435 0.57451 0.0
C600 C 0.24621 0.55303 0.51369 0.0
C601 C 0.23216 0.53408 0.4605 0.0
C602 C 0.23486 0.56711 0.58775 0.0
C603 C 0.20876 0.56246 0.6067 0.0
C604 C 0.1954 0.54194 0.55642 0.0
C605 C 0.20757 0.52774 0.48578 0.0
C606 C 0.2507 0.58741 0.64236 0.0
C607 C 0.16748 0.53584 0.57217 0.0
C608 C 0.15857 0.57807 0.76842 0.0
C609 C 0.14325 0.59162 0.72167 0.0
C610 C 0.18416 0.57286 0.74383 0.0
C611 C 0.1936 0.58032 0.66905 0.0
C612 C 0.1806 0.59898 0.63715 0.0
C613 C 0.1555 0.60484 0.66543 0.0
C614 C 0.19919 0.55569 0.78746 0.0
C615 C 0.19108 0.60933 0.56246 0.0
H616 H 0.26555 0.55761 0.49555 0.0
H617 H 0.19714 0.51237 0.44667 0.0
H618 H 0.25423 0.60242 0.60611 0.0
H619 H 0.24138 0.59519 0.70458 0.0
H620 H 0.26981 0.58025 0.65567 0.0
H621 H 0.15985 0.52002 0.52377 0.0
H622 H 0.16528 0.53105 0.63655 0.0
H623 H 0.15533 0.552 0.56982 0.0
H624 H 0.14993 0.56867 0.81567 0.0
H625 H 0.14428 0.61687 0.63382 0.0
H626 H 0.19437 0.55858 0.85704 0.0
H627 H 0.22023 0.5585 0.78006 0.0
H628 H 0.19416 0.53626 0.75813 0.0
H629 H 0.2115 0.61509 0.57427 0.0
H630 H 0.18002 0.62547 0.55143 0.0
H631 H 0.19015 0.59486 0.50294 0.0
C632 C 0.01806 0.77014 0.18823 0.0
C633 C 0.9917 0.77011 0.20648 0.0
C634 C 0.0286 0.78686 0.14065 0.0
C635 C 1.01237 0.8042 0.11329 0.0
C636 C 0.98536 0.80198 0.12228 0.0
C637 C 0.97532 0.78469 0.16817 0.0
C638 C 0.05737 0.78791 0.12892 0.0
C639 C 0.96729 0.82008 0.09457 0.0
C640 C 0.03684 0.8704 0.14214 0.0
C641 C 0.03917 0.87339 0.05687 0.0
C642 C 0.02875 0.8477 0.1611 0.0
C643 C 0.02356 0.82736 0.09286 0.0
C644 C 0.02726 0.83001 0.00654 0.0
C645 C 0.0346 0.85318 0.98952 0.0
C646 C 0.02457 0.84587 0.25415 0.0
C647 C 0.02261 0.80873 0.93214 0.0
H648 H 0.03074 0.75903 0.21882 0.0
H649 H 0.95497 0.78486 0.18362 0.0
H650 H 0.0623 0.7921 0.06504 0.0
H651 H 0.06579 0.80285 0.1789 0.0
H652 H 0.06639 0.77025 0.1352 0.0
H653 H 0.94692 0.81358 0.09378 0.0
H654 H 0.969 0.83807 0.14019 0.0
H655 H 0.97234 0.82333 0.02966 0.0
H656 H 0.04016 0.88618 0.19388 0.0
H657 H 0.03645 0.85564 0.92349 0.0
H658 H 0.0363 0.83085 0.27061 0.0
H659 H 1.00407 0.84123 0.26438 0.0
H660 H 0.02969 0.86333 0.29935 0.0
H661 H 0.03045 0.7914 0.94641 0.0
H662 H 0.03143 0.81229 0.8717 0.0
H663 H 1.00161 0.80581 0.92116 0.0
C664 C 0.73881 0.94799 0.19089 0.0
C665 C 0.74154 0.93687 0.26269 0.0
C666 C 0.71582 0.94487 0.14368 0.0
C667 C 0.69592 0.92995 0.16873 0.0
C668 C 0.70182 0.91348 0.22355 0.0
C669 C 0.72502 0.91697 0.27005 0.0
C670 C 0.71108 0.96123 0.07955 0.0
C671 C 0.68199 0.89535 0.24453 0.0
C672 C 0.63747 0.96942 0.22024 0.0
C673 C 0.62408 0.96399 0.14232 0.0
C674 C 0.65994 0.95695 0.23197 0.0
C675 C 0.66904 0.93828 0.16412 0.0
C676 C 0.65403 0.93098 0.08868 0.0
C677 C 0.63181 0.94417 0.07818 0.0
C678 C 0.67476 0.96514 0.31505 0.0
C679 C 0.66183 0.91031 0.01667 0.0
H680 H 0.75219 0.9625 0.18132 0.0
H681 H 0.72785 0.90721 0.32235 0.0
H682 H 0.70048 0.9509 0.02269 0.0
H683 H 0.69912 0.97703 0.1099 0.0
H684 H 0.72935 0.96867 0.05748 0.0
H685 H 0.69133 0.87937 0.26418 0.0
H686 H 0.66996 0.90457 0.29895 0.0
H687 H 0.66915 0.88859 0.18855 0.0
H688 H 0.63136 0.98463 0.26994 0.0
H689 H 0.62098 0.93952 0.01852 0.0
H690 H 0.69426 0.9719 0.30143 0.0
H691 H 0.67689 0.94933 0.34793 0.0
H692 H 0.66511 0.98017 0.36018 0.0
H693 H 0.67624 0.89806 0.03734 0.0
H694 H 0.67003 0.91826 0.96313 0.0
H695 H 0.64466 0.89901 0.99077 0.0
C696 C 0.53463 0.68942 0.97546 0.0
C697 C 0.51479 0.70302 0.02095 0.0
C698 C 0.53064 0.66454 0.93621 0.0
C699 C 0.50616 0.65328 0.94214 0.0
C700 C 0.48521 0.66806 0.97653 0.0
C701 C 0.4898 0.69284 0.01578 0.0
C702 C 0.55342 0.64962 0.8985 0.0
C703 C 0.45861 0.65705 0.98152 0.0
C704 C 0.49721 0.58617 0.82986 0.0
C705 C 0.50235 0.5736 0.89697 0.0
C706 C 0.49761 0.61208 0.84373 0.0
C707 C 0.50361 0.62582 0.92659 0.0
C708 C 0.50807 0.61327 0.99527 0.0
C709 C 0.50721 0.5873 0.97971 0.0
C710 C 0.49236 0.62465 0.76911 0.0
C711 C 0.51461 0.62724 0.08478 0.0
H712 H 0.55402 0.69718 0.98041 0.0
H713 H 0.47451 0.70328 0.05184 0.0
H714 H 0.55984 0.63802 0.94412 0.0
H715 H 0.5481 0.63706 0.83723 0.0
H716 H 0.56985 0.66161 0.88637 0.0
H717 H 0.44373 0.67152 0.9936 0.0
H718 H 0.45373 0.64382 0.92122 0.0
H719 H 0.45798 0.64674 0.03506 0.0
H720 H 0.49311 0.57573 0.7658 0.0
H721 H 0.51133 0.57774 0.03164 0.0
H722 H 0.51059 0.63248 0.74859 0.0
H723 H 0.47898 0.64018 0.78844 0.0
H724 H 0.48404 0.61166 0.7129 0.0
H725 H 0.53278 0.63802 0.08317 0.0
H726 H 0.51695 0.61477 0.13134 0.0
H727 H 0.49928 0.64057 0.10866 0.0
C728 C 0.81056 0.57042 0.34355 0.0
C729 C 0.79278 0.55099 0.31659 0.0
C730 C 0.83421 0.57067 0.30097 0.0
C731 C 0.83897 0.55194 0.22827 0.0
C732 C 0.81811 0.53729 0.18792 0.0
C733 C 0.79488 0.53713 0.23279 0.0
C734 C 0.85543 0.58771 0.34351 0.0
C735 C 0.82183 0.51798 0.10738 0.0
C736 C 0.90485 0.53567 0.13184 0.0
C737 C 0.91148 0.51659 0.17421 0.0
C738 C 0.88168 0.54829 0.1507 0.0
C739 C 0.86525 0.54186 0.21441 0.0
C740 C 0.87291 0.52363 0.26107 0.0
C741 C 0.89584 0.5111 0.23971 0.0
C742 C 0.87446 0.56785 0.10084 0.0
C743 C 0.85671 0.51681 0.33251 0.0
H744 H 0.80827 0.58218 0.40641 0.0
H745 H 0.78062 0.52284 0.20909 0.0
H746 H 0.86566 0.5787 0.39027 0.0
H747 H 0.86965 0.59185 0.29587 0.0
H748 H 0.84749 0.6053 0.3794 0.0
H749 H 0.80329 0.51292 0.07301 0.0
H750 H 0.83568 0.52443 0.06291 0.0
H751 H 0.82964 0.50109 0.12537 0.0
H752 H 0.91721 0.53989 0.08125 0.0
H753 H 0.90139 0.4966 0.27307 0.0
H754 H 0.8734 0.58601 0.14517 0.0
H755 H 0.85514 0.56378 0.07122 0.0
H756 H 0.88855 0.56939 0.0493 0.0
H757 H 0.85557 0.53301 0.38607 0.0
H758 H 0.86478 0.50125 0.35842 0.0
H759 H 0.83689 0.51146 0.30944 0.0
C760 C 0.09174 0.17511 0.04611 0.0
C761 C 0.07207 0.19237 0.06194 0.0
C762 C 0.08694 0.15141 0.99726 0.0
C763 C 0.0617 0.14481 0.96651 0.0
C764 C 0.04244 0.16296 0.97581 0.0
C765 C 0.04799 0.1867 0.02298 0.0
C766 C 0.10821 0.13281 0.98592 0.0
C767 C 0.01522 0.15666 0.94486 0.0
C768 C 0.04615 0.08257 0.82465 0.0
C769 C 0.03861 0.0686 0.88602 0.0
C770 C 0.05426 0.10729 0.84966 0.0
C771 C 0.05439 0.11837 0.93802 0.0
C772 C 0.0469 0.10433 1.0003 0.0
C773 C 0.03936 0.0795 0.97351 0.0
C774 C 0.06258 0.12153 0.78168 0.0
C775 C 0.04624 0.11569 0.0952 0.0
H776 H 0.11027 0.17955 0.07728 0.0
H777 H 0.03272 0.20003 0.03681 0.0
H778 H 0.10536 0.12017 0.03178 0.0
H779 H 0.10787 0.12143 0.9199 0.0
H780 H 0.12746 0.14188 0.99824 0.0
H781 H 1.00371 0.17346 0.94557 0.0
H782 H 0.01499 0.14542 0.87868 0.0
H783 H 1.00571 0.14549 0.98752 0.0
H784 H 0.04576 0.07415 0.75679 0.0
H785 H 0.03337 0.06883 0.02096 0.0
H786 H 0.08252 0.12876 0.795 0.0
H787 H 0.05006 0.13767 0.78334 0.0
H788 H 0.06181 0.11001 0.71578 0.0
H789 H 0.06567 0.12272 0.11767 0.0
H790 H 0.03963 0.10231 0.13503 0.0
H791 H 0.03315 0.13166 0.10647 0.0
C792 C 0.3176 0.98831 0.0618 0.0
C793 C 0.307 0.01183 0.08806 0.0
C794 C 0.34195 0.98519 0.02044 0.0
C795 C 0.35639 0.00605 0.00498 0.0
C796 C 0.34508 0.02963 0.02734 0.0
C797 C 0.32075 0.03216 0.06779 0.0
C798 C 0.35281 0.95963 0.99704 0.0
C799 C 0.35933 0.05253 0.013 0.0
C800 C 0.43057 0.00418 0.99914 0.0
C801 C 0.43622 0.0014 0.91081 0.0
C802 C 0.40492 0.00539 0.02996 0.0
C803 C 0.3839 0.00366 0.97159 0.0
C804 C 0.38943 1.00072 0.88224 0.0
C805 C 0.41531 0.99968 0.85317 0.0
C806 C 0.40034 0.00885 0.12572 0.0
C807 C 0.36797 0.99879 0.81701 0.0
H808 H 0.30756 0.97246 0.07789 0.0
H809 H 0.31291 0.05046 0.08754 0.0
H810 H 0.35995 0.95611 0.92977 0.0
H811 H 0.36944 0.95812 0.03948 0.0
H812 H 0.33833 0.9451 0.0039 0.0
H813 H 0.34731 0.06925 0.02796 0.0
H814 H 0.37674 0.05562 0.05455 0.0
H815 H 0.36589 0.05016 0.94527 0.0
H816 H 0.44629 0.00555 0.04485 0.0
H817 H 0.41913 0.99748 0.78482 0.0
H818 H 0.38809 0.99351 0.14004 0.0
H819 H 0.38985 0.02623 0.14856 0.0
H820 H 0.41855 0.00959 0.16289 0.0
H821 H 0.35449 0.9835 0.82399 0.0
H822 H 0.37523 0.99553 0.74978 0.0
H823 H 0.35679 0.01605 0.82871 0.0
C824 C 0.49494 0.28574 0.28949 0.0
C825 C 0.47836 0.28555 0.35912 0.0
C826 C 0.49279 0.30387 0.23852 0.0
C827 C 0.47379 0.32224 0.25854 0.0
C828 C 0.45566 0.32069 0.32417 0.0
C829 C 0.45814 0.30234 0.3734 0.0
C830 C 0.5122 0.30458 0.16815 0.0
C831 C 0.43512 0.33981 0.34807 0.0
C832 C 0.4891 0.38765 0.22901 0.0
C833 C 0.47363 0.3896 0.15832 0.0
C834 C 0.48977 0.36563 0.26073 0.0
C835 C 0.47488 0.34485 0.21996 0.0
C836 C 0.45985 0.34647 0.14675 0.0
C837 C 0.45922 0.3689 0.11726 0.0
C838 C 0.5058 0.36487 0.33972 0.0
C839 C 0.44404 0.32468 0.1007 0.0
H840 H 0.51078 0.27299 0.27914 0.0
H841 H 0.44546 0.30229 0.42782 0.0
H842 H 0.50272 0.30861 0.1098 0.0
H843 H 0.52655 0.31959 0.19041 0.0
H844 H 0.52258 0.2869 0.15049 0.0
H845 H 0.42073 0.33434 0.39309 0.0
H846 H 0.44424 0.35763 0.37951 0.0
H847 H 0.42495 0.34299 0.28979 0.0
H848 H 0.50014 0.40364 0.26122 0.0
H849 H 0.44749 0.37026 0.06184 0.0
H850 H 0.51947 0.34941 0.32605 0.0
H851 H 0.49313 0.36153 0.3929 0.0
H852 H 0.5169 0.38232 0.36216 0.0
H853 H 0.45616 0.30807 0.08498 0.0
H854 H 0.43532 0.3282 0.0403 0.0
H855 H 0.42837 0.32042 0.14341 0.0
C856 C 0.18282 0.49453 0.18863 0.0
C857 C 0.20805 0.49804 0.15988 0.0
C858 C 0.16126 0.49349 0.13429 0.0
C859 C 0.16459 0.49483 0.04657 0.0
C860 C 0.19008 0.49671 0.0151 0.0
C861 C 0.21146 0.49851 0.07211 0.0
C862 C 0.13472 0.49185 0.17212 0.0
C863 C 0.19471 0.49725 0.92148 0.0
C864 C 0.10436 0.47232 0.91184 0.0
C865 C 0.09232 0.49454 0.90606 0.0
C866 C 0.12866 0.47215 0.95179 0.0
C867 C 0.14114 0.49472 0.98982 0.0
C868 C 0.12938 0.51722 0.98198 0.0
C869 C 0.10542 0.51685 0.93938 0.0
C870 C 0.14064 0.44768 0.95539 0.0
C871 C 0.14144 0.54179 0.02256 0.0
H872 H 0.17976 0.4933 0.25539 0.0
H873 H 0.2307 0.50108 0.04852 0.0
H874 H 0.12316 0.50778 0.16223 0.0
H875 H 0.12455 0.47483 0.13893 0.0
H876 H 0.13532 0.49171 0.24216 0.0
H877 H 0.21554 0.49726 0.90561 0.0
H878 H 0.18519 0.48101 0.88024 0.0
H879 H 0.18607 0.51397 0.90511 0.0
H880 H 0.09469 0.45495 0.88539 0.0
H881 H 0.09643 0.53415 0.93533 0.0
H882 H 0.13955 0.44425 0.02202 0.0
H883 H 0.1613 0.44793 0.93765 0.0
H884 H 0.13077 0.43209 0.91176 0.0
H885 H 0.14164 0.54366 0.09363 0.0
H886 H 0.13088 0.55759 0.00619 0.0
H887 H 0.1617 0.54291 1.00145 0.0
C888 C 0.99802 0.81376 0.53136 0.0
C889 C 0.97489 0.80043 0.51212 0.0
C890 C 0.99822 0.8377 0.58064 0.0
C891 C 0.9747 0.84839 0.61228 0.0
C892 C 0.95164 0.83406 0.60059 0.0
C893 C 0.95196 0.81015 0.54991 0.0
C894 C 0.02333 0.85219 0.59306 0.0
C895 C 0.92647 0.84456 0.63696 0.0
C896 C 0.98543 0.90906 0.76688 0.0
C897 C 0.98367 0.92587 0.71142 0.0
C898 C 0.9804 0.88382 0.73742 0.0
C899 C 0.97425 0.8752 0.64963 0.0
C900 C 0.97106 0.89232 0.59442 0.0
C901 C 0.97551 0.91759 0.62646 0.0
C902 C 0.98342 0.86646 0.79939 0.0
C903 C 0.96484 0.8838 0.50003 0.0
H904 H 0.01577 0.80604 0.50265 0.0
H905 H 0.93407 0.7998 0.53492 0.0
H906 H 0.02246 0.86796 0.55921 0.0
H907 H 0.0266 0.85989 0.66237 0.0
H908 H 0.04005 0.84072 0.56798 0.0
H909 H 0.91113 0.8301 0.63255 0.0
H910 H 0.92893 0.85379 0.70539 0.0
H911 H 0.92006 0.85872 0.60098 0.0
H912 H 0.99125 0.91556 0.8331 0.0
H913 H 0.9742 0.93065 0.58372 0.0
H914 H 1.00385 0.86099 0.80023 0.0
H915 H 0.97137 0.84947 0.78095 0.0
H916 H 0.97823 0.87565 0.86585 0.0
H917 H 0.98128 0.87333 0.46722 0.0
H918 H 0.96096 0.89948 0.4676 0.0
H919 H 0.94781 0.87116 0.49176 0.0
C920 C 0.70996 0.97206 0.59347 0.0
C921 C 0.71728 0.98738 0.53604 0.0
C922 C 0.68572 0.97413 0.6348 0.0
C923 C 0.66777 0.99165 0.61746 0.0
C924 C 0.67543 0.00775 0.56167 0.0
C925 C 0.69997 0.00545 0.52199 0.0
C926 C 0.67882 0.95662 0.69379 0.0
C927 C 0.65712 0.02651 0.53981 0.0
C928 C 0.59564 0.97718 0.64399 0.0
C929 C 0.58951 0.99234 0.72343 0.0
C930 C 0.62074 0.97698 0.60878 0.0
C931 C 0.64067 0.99214 0.65386 0.0
C932 C 0.63464 0.00741 0.7342 0.0
C933 C 0.60932 0.00743 0.76753 0.0
C934 C 0.62588 0.96057 0.52259 0.0
C935 C 0.65503 0.02377 0.78532 0.0
H936 H 0.72283 0.95758 0.60296 0.0
H937 H 0.70497 0.01678 0.47548 0.0
H938 H 0.67148 0.967 0.75601 0.0
H939 H 0.66321 0.94378 0.66416 0.0
H940 H 0.6955 0.94557 0.70674 0.0
H941 H 0.66666 0.03928 0.50287 0.0
H942 H 0.64096 0.01682 0.50062 0.0
H943 H 0.64876 0.03751 0.59931 0.0
H944 H 0.5807 0.96553 0.6085 0.0
H945 H 0.60509 0.01931 0.82869 0.0
H946 H 0.64194 0.948 0.52813 0.0
H947 H 0.63183 0.97205 0.47554 0.0
H948 H 0.60871 0.94928 0.49666 0.0
H949 H 0.67119 0.01239 0.80012 0.0
H950 H 0.64747 0.03451 0.84674 0.0
H951 H 0.663 0.03685 0.74661 0.0
C952 C 0.56176 0.70947 0.35645 0.0
C953 C 0.53713 0.71244 0.32438 0.0
C954 C 0.56626 0.69117 0.40519 0.0
C955 C 0.5457 0.67543 0.42109 0.0
C956 C 0.52043 0.67996 0.39542 0.0
C957 C 0.51645 0.69854 0.3481 0.0
C958 C 0.59337 0.68739 0.43339 0.0
C959 C 0.49792 0.66365 0.41033 0.0
C960 C 0.55878 0.60805 0.42374 0.0
C961 C 0.55537 0.60719 0.51084 0.0
C962 C 0.55632 0.6303 0.39426 0.0
C963 C 0.55084 0.65236 0.45365 0.0
C964 C 0.54839 0.65175 0.54229 0.0
C965 C 0.55044 0.62913 0.56969 0.0
C966 C 0.55865 0.63001 0.29897 0.0
C967 C 0.54301 0.67485 0.60786 0.0
H968 H 0.57781 0.72005 0.33778 0.0
H969 H 0.49738 0.70087 0.32345 0.0
H970 H 0.59356 0.68385 0.5 0.0
H971 H 0.60148 0.67098 0.39057 0.0
H972 H 0.60607 0.7036 0.43052 0.0
H973 H 0.47921 0.67137 0.39569 0.0
H974 H 0.49989 0.64517 0.36835 0.0
H975 H 0.49762 0.66101 0.47794 0.0
H976 H 0.56245 0.5911 0.37811 0.0
H977 H 0.54812 0.62854 0.63731 0.0
H978 H 0.57415 0.64302 0.28734 0.0
H979 H 0.54045 0.6363 0.27442 0.0
H980 H 0.56292 0.61135 0.26128 0.0
H981 H 0.557 0.68973 0.60078 0.0
H982 H 0.54399 0.67167 0.67494 0.0
H983 H 0.52354 0.68155 0.59676 0.0
C984 C 0.82663 0.52643 0.60609 0.0
C985 C 0.81437 0.50769 0.54581 0.0
C986 C 0.85093 0.52306 0.64139 0.0
C987 C 0.86363 0.50025 0.61674 0.0
C988 C 0.85068 0.48073 0.55978 0.0
C989 C 0.82634 0.48469 0.52487 0.0
C990 C 0.86371 0.54455 0.70116 0.0
C991 C 0.86314 0.456 0.53199 0.0
C992 C 0.93762 0.50249 0.62889 0.0
C993 C 0.94263 0.49558 0.70815 0.0
C994 C 0.91222 0.50368 0.59804 0.0
C995 C 0.89093 0.49755 0.6467 0.0
C996 C 0.89587 0.49008 0.7259 0.0
C997 C 0.92147 0.48931 0.75567 0.0
C998 C 0.90816 0.51174 0.51333 0.0
C999 C 0.87404 0.48315 0.77991 0.0
H1000 H 0.81775 0.54437 0.62204 0.0
H1001 H 0.81743 0.47024 0.47707 0.0
H1002 H 0.87013 0.53887 0.76109 0.0
H1003 H 0.88109 0.55065 0.66969 0.0
H1004 H 0.85073 0.56051 0.71865 0.0
H1005 H 0.84943 0.44181 0.49748 0.0
H1006 H 0.87947 0.45786 0.48842 0.0
H1007 H 0.87101 0.44946 0.58852 0.0
H1008 H 0.95361 0.50735 0.5911 0.0
H1009 H 0.92486 0.48383 0.81674 0.0
H1010 H 0.89476 0.52746 0.52167 0.0
H1011 H 0.89923 0.49636 0.46636 0.0
H1012 H 0.92645 0.51736 0.48564 0.0
H1013 H 0.86171 0.46855 0.74075 0.0
H1014 H 0.86176 0.49939 0.80187 0.0
H1015 H 0.88098 0.47641 0.83737 0.0
loop_
_geom_bond_atom_site_label_1
_geom_bond_atom_site_label_2
_geom_bond_distance
_geom_bond_site_symmetry_2
_ccdc_geom_bond_type
H0 C3 0.929 . S
H1 C6 0.929 . S
H2 C8 0.930 . S
C3 H0 0.929 . S
C3 C4 1.398 . S
C3 C5 1.396 . S
C4 C3 1.398 . S
C4 C8 1.407 . S
C5 C3 1.396 . S
C5 C6 1.394 . S
C6 H1 0.929 . S
C6 C5 1.394 . S
C6 C7 1.382 . S
C7 C6 1.382 . S
C7 C8 1.392 . S
C7 N9 1.420 . S
C8 H2 0.930 . S
C8 C4 1.407 . S
C8 C7 1.392 . S
N9 C7 1.420 . S
N9 C10 1.244 . S
C10 N9 1.244 . S
H11 C14 0.929 . S
H12 C17 0.929 . S
H13 C19 0.930 . S
C14 H11 0.929 . S
C14 C15 1.398 . S
C14 C16 1.398 . S
C15 C14 1.398 . S
C15 C19 1.407 1_655 S
C16 C14 1.398 . S
C16 C17 1.391 1_655 S
C17 H12 0.929 . S
C17 C16 1.391 1_455 S
C17 C18 1.382 . S
C18 C17 1.382 . S
C18 C19 1.392 . S
C18 N20 1.420 . S
C19 H13 0.930 . S
C19 C15 1.407 1_455 S
C19 C18 1.392 . S
N20 C18 1.420 . S
N20 C21 1.244 1_455 S
C21 N20 1.244 1_655 S
H22 C25 0.929 . S
H23 C28 0.929 . S
H24 C30 0.930 . S
C25 H22 0.929 . S
C25 C26 1.401 1_565 S
C25 C27 1.392 1_565 S
C26 C25 1.401 1_545 S
C26 C30 1.414 . S
C27 C25 1.392 1_545 S
C27 C28 1.397 . S
C28 H23 0.929 . S
C28 C27 1.397 . S
C28 C29 1.382 . S
C29 C28 1.382 . S
C29 C30 1.392 . S
C29 N31 1.420 . S
C30 H24 0.930 . S
C30 C26 1.414 . S
C30 C29 1.392 . S
N31 C29 1.420 . S
N31 C32 1.236 1_545 S
C32 N31 1.236 1_565 S
H33 C36 0.929 . S
H34 C39 0.929 . S
H35 C41 0.930 . S
C36 H33 0.929 . S
C36 C37 1.398 . S
C36 C38 1.396 1_554 S
C37 C36 1.398 . S
C37 C41 1.407 . S
C38 C36 1.396 1_556 S
C38 C39 1.394 . S
C39 H34 0.929 . S
C39 C38 1.394 . S
C39 C40 1.382 1_556 S
C40 C39 1.382 1_554 S
C40 C41 1.392 . S
C40 N42 1.420 . S
C41 H35 0.930 . S
C41 C37 1.407 . S
C41 C40 1.392 . S
N42 C40 1.420 . S
N42 C43 1.244 1_554 S
C43 N42 1.244 1_556 S
H44 C47 0.929 . S
H45 C50 0.929 . S
H46 C52 0.930 . S
C47 H44 0.929 . S
C47 C48 1.398 . S
C47 C49 1.396 . S
C48 C47 1.398 . S
C48 C52 1.407 . S
C49 C47 1.396 . S
C49 C50 1.394 . S
C50 H45 0.929 . S
C50 C49 1.394 . S
C50 C51 1.382 . S
C51 C50 1.382 . S
C51 C52 1.392 . S
C51 N53 1.420 . S
C52 H46 0.930 . S
C52 C48 1.407 . S
C52 C51 1.392 . S
N53 C51 1.420 . S
N53 C54 1.244 . S
C54 N53 1.244 . S
H55 C58 0.925 1_655 S
H56 C61 0.929 . S
H57 C63 0.930 . S
C58 H55 0.925 1_455 S
C58 C59 1.402 . S
C58 C60 1.399 . S
C59 C58 1.402 . S
C59 C63 1.407 . S
C60 C58 1.399 . S
C60 C61 1.394 . S
C61 H56 0.929 . S
C61 C60 1.394 . S
C61 C62 1.382 . S
C62 C61 1.382 . S
C62 C63 1.392 . S
C62 N64 1.420 . S
C63 H57 0.930 . S
C63 C59 1.407 . S
C63 C62 1.392 . S
N64 C62 1.420 . S
N64 C65 1.244 . S
C65 N64 1.244 . S
H66 C69 0.929 . S
H67 C72 0.929 . S
H68 C74 0.930 . S
C69 H66 0.929 . S
C69 C70 1.387 1_565 S
C69 C71 1.398 1_565 S
C70 C69 1.387 1_545 S
C70 C74 1.415 . S
C71 C69 1.398 1_545 S
C71 C72 1.398 . S
C72 H67 0.929 . S
C72 C71 1.398 . S
C72 C73 1.382 . S
C73 C72 1.382 . S
C73 C74 1.392 . S
C73 N75 1.420 . S
C74 H68 0.930 . S
C74 C70 1.415 . S
C74 C73 1.392 . S
N75 C73 1.420 . S
N75 C76 1.234 1_545 S
C76 N75 1.234 1_565 S
H77 C80 0.929 . S
H78 C83 0.929 . S
H79 C85 0.930 . S
C80 H77 0.929 . S
C80 C81 1.398 . S
C80 C82 1.396 . S
C81 C80 1.398 . S
C81 C85 1.407 . S
C82 C80 1.396 . S
C82 C83 1.394 . S
C83 H78 0.929 . S
C83 C82 1.394 . S
C83 C84 1.382 . S
C84 C83 1.382 . S
C84 C85 1.392 . S
C84 N86 1.420 . S
C85 H79 0.930 . S
C85 C81 1.407 . S
C85 C84 1.392 . S
N86 C84 1.420 . S
N86 C87 1.244 . S
C87 N86 1.244 . S
Tb88 C97 2.764 . S
Tb88 O98 2.325 . S
Tb88 O101 2.303 1_655 S
Tb88 O105 2.322 1_545 S
Tb88 O106 2.349 . S
Tb88 O109 2.415 . S
Tb88 O110 2.399 . S
Tb89 O99 2.322 1_565 S
Tb89 O100 2.349 . S
Tb89 O102 2.415 . S
Tb89 O103 2.399 . S
Tb89 O104 2.325 . S
Tb89 O107 2.303 1_455 S
Tb89 C118 2.764 . S
C90 O106 1.266 . S
C90 O107 1.255 1_545 S
C91 C94 1.358 . S
C91 C95 1.332 . S
C91 C97 1.504 . S
C92 C93 1.373 . S
C92 C96 1.308 . S
C93 C92 1.373 . S
C93 C94 1.429 . S
C93 H120 0.932 . S
C94 C91 1.358 . S
C94 C93 1.429 . S
C94 H121 0.930 . S
C95 C91 1.332 . S
C95 C96 1.394 . S
C95 H122 0.932 1_655 S
C96 C92 1.308 . S
C96 C95 1.394 . S
C96 H123 0.929 1_655 S
C97 Tb88 2.764 . S
C97 C91 1.504 . S
C97 O109 1.239 . S
C97 O110 1.263 . S
O98 Tb88 2.325 . S
O98 C108 1.236 1_655 S
O99 Tb89 2.322 1_545 S
O99 C108 1.257 . S
O100 Tb89 2.349 . S
O100 C111 1.260 . S
O101 Tb88 2.303 1_455 S
O101 C111 1.257 1_545 S
O102 Tb89 2.415 . S
O102 C118 1.239 . S
O103 Tb89 2.399 . S
O103 C118 1.263 . S
O104 Tb89 2.325 . S
O104 C119 1.236 1_455 S
O105 Tb88 2.322 1_565 S
O105 C119 1.257 . S
O106 Tb88 2.349 . S
O106 C90 1.266 . S
O107 Tb89 2.303 1_655 S
O107 C90 1.255 1_565 S
C108 O98 1.236 1_455 S
C108 O99 1.257 . S
O109 Tb88 2.415 . S
O109 C97 1.239 . S
O110 Tb88 2.399 . S
O110 C97 1.263 . S
C111 O100 1.260 . S
C111 O101 1.257 1_565 S
C112 C115 1.358 . S
C112 C116 1.332 . S
C112 C118 1.504 1_554 S
C113 C114 1.373 . S
C113 C117 1.308 . S
C114 C113 1.373 . S
C114 C115 1.429 . S
C114 H124 0.932 . S
C115 C112 1.358 . S
C115 C114 1.429 . S
C115 H125 0.930 . S
C116 C112 1.332 . S
C116 C117 1.394 . S
C116 H126 0.932 1_455 S
C117 C113 1.308 . S
C117 C116 1.394 . S
C117 H127 0.929 1_455 S
C118 Tb89 2.764 . S
C118 O102 1.239 . S
C118 O103 1.263 . S
C118 C112 1.504 1_556 S
C119 O104 1.236 1_655 S
C119 O105 1.257 . S
H120 C93 0.932 . S
H121 C94 0.930 . S
H122 C95 0.932 1_455 S
H123 C96 0.929 1_455 S
H124 C114 0.932 . S
H125 C115 0.930 . S
H126 C116 0.932 1_655 S
H127 C117 0.929 1_655 S
Tb128 C137 2.764 . S
Tb128 O138 2.325 . S
Tb128 O141 2.303 1_565 S
Tb128 O145 2.322 . S
Tb128 O146 2.349 . S
Tb128 O149 2.415 1_565 S
Tb128 O150 2.399 . S
Tb129 O139 2.322 . S
Tb129 O140 2.349 . S
Tb129 O142 2.415 1_545 S
Tb129 O143 2.399 1_556 S
Tb129 O144 2.325 . S
Tb129 O147 2.303 1_545 S
Tb129 C158 2.764 1_556 S
C130 O146 1.261 . S
C130 O147 1.257 . S
C131 C134 1.358 . S
C131 C135 1.332 1_565 S
C131 C137 1.504 . S
C132 C133 1.373 . S
C132 C136 1.308 1_565 S
C133 C132 1.373 . S
C133 C134 1.429 . S
C133 H160 0.932 . S
C134 C131 1.358 . S
C134 C133 1.429 . S
C134 H161 0.930 . S
C135 C131 1.332 1_545 S
C135 C136 1.394 . S
C135 H162 0.932 . S
C136 C132 1.308 1_545 S
C136 C135 1.394 . S
C136 H163 0.929 . S
C137 Tb128 2.764 . S
C137 C131 1.504 . S
C137 O149 1.239 1_565 S
C137 O150 1.263 . S
O138 Tb128 2.325 . S
O138 C148 1.236 1_565 S
O139 Tb129 2.322 . S
O139 C148 1.257 . S
O140 Tb129 2.349 . S
O140 C151 1.261 . S
O141 Tb128 2.303 1_545 S
O141 C151 1.257 . S
O142 Tb129 2.415 1_565 S
O142 C158 1.239 1_566 S
O143 Tb129 2.399 1_554 S
O143 C158 1.263 . S
O144 Tb129 2.325 . S
O144 C159 1.236 1_545 S
O145 Tb128 2.322 . S
O145 C159 1.257 . S
O146 Tb128 2.349 . S
O146 C130 1.261 . S
O147 Tb129 2.303 1_565 S
O147 C130 1.257 . S
C148 O138 1.236 1_545 S
C148 O139 1.257 . S
O149 Tb128 2.415 1_545 S
O149 C137 1.239 1_545 S
O150 Tb128 2.399 . S
O150 C137 1.263 . S
C151 O140 1.261 . S
C151 O141 1.257 . S
C152 C155 1.358 . S
C152 C156 1.332 1_545 S
C152 C158 1.504 . S
C153 C154 1.373 . S
C153 C157 1.308 1_545 S
C154 C153 1.373 . S
C154 C155 1.429 . S
C154 H164 0.932 . S
C155 C152 1.358 . S
C155 C154 1.429 . S
C155 H165 0.930 . S
C156 C152 1.332 1_565 S
C156 C157 1.394 . S
C156 H166 0.932 . S
C157 C153 1.308 1_565 S
C157 C156 1.394 . S
C157 H167 0.929 . S
C158 Tb129 2.764 1_554 S
C158 O142 1.239 1_544 S
C158 O143 1.263 . S
C158 C152 1.504 . S
C159 O144 1.236 1_565 S
C159 O145 1.257 . S
H160 C133 0.932 . S
H161 C134 0.930 . S
H162 C135 0.932 . S
H163 C136 0.929 . S
H164 C154 0.932 . S
H165 C155 0.930 . S
H166 C156 0.932 . S
H167 C157 0.929 . S
Tb168 C177 2.764 1_556 S
Tb168 O178 2.325 . S
Tb168 O181 2.303 . S
Tb168 O185 2.322 . S
Tb168 O186 2.349 . S
Tb168 O189 2.415 1_556 S
Tb168 O190 2.399 . S
Tb169 O179 2.322 . S
Tb169 O180 2.349 . S
Tb169 O182 2.415 . S
Tb169 O183 2.399 . S
Tb169 O184 2.325 . S
Tb169 O187 2.303 . S
Tb169 C198 2.764 . S
C170 O186 1.261 . S
C170 O187 1.257 . S
C171 C174 1.358 . S
C171 C175 1.332 . S
C171 C177 1.504 . S
C172 C173 1.373 . S
C172 C176 1.308 . S
C173 C172 1.373 . S
C173 C174 1.429 . S
C173 H200 0.932 . S
C174 C171 1.358 . S
C174 C173 1.429 . S
C174 H201 0.930 . S
C175 C171 1.332 . S
C175 C176 1.394 . S
C175 H202 0.932 . S
C176 C172 1.308 . S
C176 C175 1.394 . S
C176 H203 0.929 . S
C177 Tb168 2.764 1_554 S
C177 C171 1.504 . S
C177 O189 1.239 . S
C177 O190 1.263 1_554 S
O178 Tb168 2.325 . S
O178 C188 1.236 . S
O179 Tb169 2.322 . S
O179 C188 1.257 . S
O180 Tb169 2.349 . S
O180 C191 1.261 . S
O181 Tb168 2.303 . S
O181 C191 1.257 . S
O182 Tb169 2.415 . S
O182 C198 1.239 . S
O183 Tb169 2.399 . S
O183 C198 1.263 . S
O184 Tb169 2.325 . S
O184 C199 1.236 . S
O185 Tb168 2.322 . S
O185 C199 1.257 . S
O186 Tb168 2.349 . S
O186 C170 1.261 . S
O187 Tb169 2.303 . S
O187 C170 1.257 . S
C188 O178 1.236 . S
C188 O179 1.257 . S
O189 Tb168 2.415 1_554 S
O189 C177 1.239 . S
O190 Tb168 2.399 . S
O190 C177 1.263 1_556 S
C191 O180 1.261 . S
C191 O181 1.257 . S
C192 C195 1.358 . S
C192 C196 1.332 . S
C192 C198 1.504 . S
C193 C194 1.373 . S
C193 C197 1.308 . S
C194 C193 1.373 . S
C194 C195 1.429 . S
C194 H204 0.932 . S
C195 C192 1.358 . S
C195 C194 1.429 . S
C195 H205 0.930 . S
C196 C192 1.332 . S
C196 C197 1.394 . S
C196 H206 0.932 . S
C197 C193 1.308 . S
C197 C196 1.394 . S
C197 H207 0.929 . S
C198 Tb169 2.764 . S
C198 O182 1.239 . S
C198 O183 1.263 . S
C198 C192 1.504 . S
C199 O184 1.236 . S
C199 O185 1.257 . S
H200 C173 0.932 . S
H201 C174 0.930 . S
H202 C175 0.932 . S
H203 C176 0.929 . S
H204 C194 0.932 . S
H205 C195 0.930 . S
H206 C196 0.932 . S
H207 C197 0.929 . S
Tb208 C217 2.764 . S
Tb208 O218 2.325 . S
Tb208 O221 2.303 . S
Tb208 O225 2.322 1_455 S
Tb208 O226 2.349 . S
Tb208 O229 2.415 . S
Tb208 O230 2.399 . S
Tb209 O219 2.322 1_655 S
Tb209 O220 2.349 . S
Tb209 O222 2.415 1_556 S
Tb209 O223 2.399 . S
Tb209 O224 2.325 . S
Tb209 O227 2.303 . S
Tb209 C238 2.765 . S
C210 O226 1.261 . S
C210 O227 1.257 1_455 S
C211 C214 1.358 . S
C211 C215 1.332 . S
C211 C217 1.504 . S
C212 C213 1.373 . S
C212 C216 1.308 . S
C213 C212 1.373 . S
C213 C214 1.429 . S
C213 H240 0.932 . S
C214 C211 1.358 . S
C214 C213 1.429 . S
C214 H241 0.930 . S
C215 C211 1.332 . S
C215 C216 1.394 . S
C215 H242 0.932 . S
C216 C212 1.308 . S
C216 C215 1.394 . S
C216 H243 0.929 . S
C217 Tb208 2.764 . S
C217 C211 1.504 . S
C217 O229 1.239 . S
C217 O230 1.263 . S
O218 Tb208 2.325 . S
O218 C228 1.236 . S
O219 Tb209 2.322 1_455 S
O219 C228 1.257 . S
O220 Tb209 2.349 . S
O220 C231 1.261 . S
O221 Tb208 2.303 . S
O221 C231 1.257 1_455 S
O222 Tb209 2.415 1_554 S
O222 C238 1.239 1_554 S
O223 Tb209 2.399 . S
O223 C238 1.263 . S
O224 Tb209 2.325 . S
O224 C239 1.236 . S
O225 Tb208 2.322 1_655 S
O225 C239 1.257 . S
O226 Tb208 2.349 . S
O226 C210 1.261 . S
O227 Tb209 2.303 . S
O227 C210 1.257 1_655 S
C228 O218 1.236 . S
C228 O219 1.257 . S
O229 Tb208 2.415 . S
O229 C217 1.239 . S
O230 Tb208 2.399 . S
O230 C217 1.263 . S
C231 O220 1.261 . S
C231 O221 1.257 1_655 S
C232 C235 1.358 . S
C232 C236 1.332 . S
C232 C238 1.503 1_554 S
C233 C234 1.373 . S
C233 C237 1.308 . S
C234 C233 1.373 . S
C234 C235 1.429 . S
C234 H244 0.932 . S
C235 C232 1.358 . S
C235 C234 1.429 . S
C235 H245 0.930 . S
C236 C232 1.332 . S
C236 C237 1.394 . S
C236 H246 0.932 . S
C237 C233 1.308 . S
C237 C236 1.394 . S
C237 H247 0.929 . S
C238 Tb209 2.765 . S
C238 O222 1.239 1_556 S
C238 O223 1.263 . S
C238 C232 1.503 1_556 S
C239 O224 1.236 . S
C239 O225 1.257 . S
H240 C213 0.932 . S
H241 C214 0.930 . S
H242 C215 0.932 . S
H243 C216 0.929 . S
H244 C234 0.932 . S
H245 C235 0.930 . S
H246 C236 0.932 . S
H247 C237 0.929 . S
C248 C249 1.391 . S
C248 C250 1.394 . S
C248 H264 0.931 . S
C249 C248 1.391 . S
C249 C253 1.376 1_545 S
C250 C248 1.394 . S
C250 C251 1.369 . S
C250 C254 1.531 . S
C251 C250 1.369 . S
C251 C252 1.410 . S
C251 C259 1.503 . S
C252 C251 1.410 . S
C252 C253 1.392 1_545 S
C252 C255 1.511 1_545 S
C253 C249 1.376 1_565 S
C253 C252 1.392 1_565 S
C253 H265 0.929 . S
C254 C250 1.531 . S
C254 H266 0.960 . S
C254 H267 0.962 . S
C254 H268 0.960 . S
C255 C252 1.511 1_565 S
C255 H269 0.961 . S
C255 H270 0.961 . S
C255 H271 0.961 1_565 S
C256 C257 1.370 1_565 S
C256 C258 1.363 . S
C256 H272 0.931 . S
C257 C256 1.370 1_545 S
C257 C261 1.408 . S
C258 C256 1.363 . S
C258 C259 1.370 1_565 S
C258 C262 1.524 . S
C259 C251 1.503 . S
C259 C258 1.370 1_545 S
C259 C260 1.403 . S
C260 C259 1.403 . S
C260 C261 1.404 . S
C260 C263 1.539 . S
C261 C257 1.408 . S
C261 C260 1.404 . S
C261 H273 0.930 . S
C262 C258 1.524 . S
C262 H274 0.956 . S
C262 H275 0.961 . S
C262 H276 0.961 . S
C263 C260 1.539 . S
C263 H277 0.958 . S
C263 H278 0.961 . S
C263 H279 0.960 . S
H264 C248 0.931 . S
H265 C253 0.929 . S
H266 C254 0.960 . S
H267 C254 0.962 . S
H268 C254 0.960 . S
H269 C255 0.961 . S
H270 C255 0.961 . S
H271 C255 0.961 1_545 S
H272 C256 0.931 . S
H273 C261 0.930 . S
H274 C262 0.956 . S
H275 C262 0.961 . S
H276 C262 0.961 . S
H277 C263 0.958 . S
H278 C263 0.961 . S
H279 C263 0.960 . S
C280 C281 1.391 . S
C280 C282 1.394 . S
C280 H296 0.931 . S
C281 C280 1.391 . S
C281 C285 1.376 . S
C282 C280 1.394 . S
C282 C283 1.369 . S
C282 C286 1.531 . S
C283 C282 1.369 . S
C283 C284 1.410 . S
C283 C291 1.503 . S
C284 C283 1.410 . S
C284 C285 1.392 . S
C284 C287 1.511 . S
C285 C281 1.376 . S
C285 C284 1.392 . S
C285 H297 0.929 . S
C286 C282 1.531 . S
C286 H298 0.960 . S
C286 H299 0.962 . S
C286 H300 0.960 . S
C287 C284 1.511 . S
C287 H301 0.961 . S
C287 H302 0.961 . S
C287 H303 0.961 . S
C288 C289 1.370 . S
C288 C290 1.363 . S
C288 H304 0.931 . S
C289 C288 1.370 . S
C289 C293 1.408 . S
C290 C288 1.363 . S
C290 C291 1.370 . S
C290 C294 1.524 . S
C291 C283 1.503 . S
C291 C290 1.370 . S
C291 C292 1.403 . S
C292 C291 1.403 . S
C292 C293 1.404 . S
C292 C295 1.539 . S
C293 C289 1.408 . S
C293 C292 1.404 . S
C293 H305 0.930 . S
C294 C290 1.524 . S
C294 H306 0.956 . S
C294 H307 0.961 . S
C294 H308 0.961 . S
C295 C292 1.539 . S
C295 H309 0.958 . S
C295 H310 0.961 . S
C295 H311 0.960 . S
H296 C280 0.931 . S
H297 C285 0.929 . S
H298 C286 0.960 . S
H299 C286 0.962 . S
H300 C286 0.960 . S
H301 C287 0.961 . S
H302 C287 0.961 . S
H303 C287 0.961 . S
H304 C288 0.931 . S
H305 C293 0.930 . S
H306 C294 0.956 . S
H307 C294 0.961 . S
H308 C294 0.961 . S
H309 C295 0.958 . S
H310 C295 0.961 . S
H311 C295 0.960 . S
C312 C313 1.391 . S
C312 C314 1.394 . S
C312 H328 0.931 . S
C313 C312 1.391 . S
C313 C317 1.376 . S
C314 C312 1.394 . S
C314 C315 1.369 . S
C314 C318 1.531 . S
C315 C314 1.369 . S
C315 C316 1.410 . S
C315 C323 1.503 . S
C316 C315 1.410 . S
C316 C317 1.392 . S
C316 C319 1.511 . S
C317 C313 1.376 . S
C317 C316 1.392 . S
C317 H329 0.929 . S
C318 C314 1.531 . S
C318 H330 0.960 . S
C318 H331 0.962 . S
C318 H332 0.960 . S
C319 C316 1.511 . S
C319 H333 0.961 . S
C319 H334 0.961 . S
C319 H335 0.961 . S
C320 C321 1.370 . S
C320 C322 1.363 . S
C320 H336 0.931 . S
C321 C320 1.370 . S
C321 C325 1.408 . S
C322 C320 1.363 . S
C322 C323 1.370 . S
C322 C326 1.524 . S
C323 C315 1.503 . S
C323 C322 1.370 . S
C323 C324 1.403 . S
C324 C323 1.403 . S
C324 C325 1.404 . S
C324 C327 1.539 . S
C325 C321 1.408 . S
C325 C324 1.404 . S
C325 H337 0.930 . S
C326 C322 1.524 . S
C326 H338 0.956 . S
C326 H339 0.961 . S
C326 H340 0.961 . S
C327 C324 1.539 . S
C327 H341 0.958 . S
C327 H342 0.961 . S
C327 H343 0.960 . S
H328 C312 0.931 . S
H329 C317 0.929 . S
H330 C318 0.960 . S
H331 C318 0.962 . S
H332 C318 0.960 . S
H333 C319 0.961 . S
H334 C319 0.961 . S
H335 C319 0.961 . S
H336 C320 0.931 . S
H337 C325 0.930 . S
H338 C326 0.956 . S
H339 C326 0.961 . S
H340 C326 0.961 . S
H341 C327 0.958 . S
H342 C327 0.961 . S
H343 C327 0.960 . S
C344 C345 1.391 . S
C344 C346 1.394 . S
C344 H360 0.931 . S
C345 C344 1.391 . S
C345 C349 1.376 1_455 S
C346 C344 1.394 . S
C346 C347 1.369 . S
C346 C350 1.531 . S
C347 C346 1.369 . S
C347 C348 1.410 1_455 S
C347 C355 1.503 . S
C348 C347 1.410 1_655 S
C348 C349 1.392 . S
C348 C351 1.511 . S
C349 C345 1.376 1_655 S
C349 C348 1.392 . S
C349 H361 0.929 . S
C350 C346 1.531 . S
C350 H362 0.960 . S
C350 H363 0.962 . S
C350 H364 0.960 . S
C351 C348 1.511 . S
C351 H365 0.961 . S
C351 H366 0.961 . S
C351 H367 0.961 . S
C352 C353 1.370 . S
C352 C354 1.363 . S
C352 H368 0.931 . S
C353 C352 1.370 . S
C353 C357 1.408 . S
C354 C352 1.363 . S
C354 C355 1.370 . S
C354 C358 1.524 . S
C355 C347 1.503 . S
C355 C354 1.370 . S
C355 C356 1.403 . S
C356 C355 1.403 . S
C356 C357 1.404 . S
C356 C359 1.539 . S
C357 C353 1.408 . S
C357 C356 1.404 . S
C357 H369 0.930 . S
C358 C354 1.524 . S
C358 H370 0.956 . S
C358 H371 0.961 1_455 S
C358 H372 0.958 1_455 S
C359 C356 1.539 . S
C359 H373 0.958 . S
C359 H374 0.961 1_455 S
C359 H375 0.960 1_455 S
H360 C344 0.931 . S
H361 C349 0.929 . S
H362 C350 0.960 . S
H363 C350 0.962 . S
H364 C350 0.960 . S
H365 C351 0.961 . S
H366 C351 0.961 . S
H367 C351 0.961 . S
H368 C352 0.931 . S
H369 C357 0.930 . S
H370 C358 0.956 . S
H371 C358 0.961 1_655 S
H372 C358 0.958 1_655 S
H373 C359 0.958 . S
H374 C359 0.961 1_655 S
H375 C359 0.960 1_655 S
C376 C377 1.370 1_565 S
C376 C378 1.394 . S
C376 H392 0.931 . S
C377 C376 1.370 1_545 S
C377 C381 1.404 . S
C378 C376 1.394 . S
C378 C379 1.369 1_565 S
C378 C382 1.531 . S
C379 C378 1.369 1_545 S
C379 C380 1.410 . S
C379 C387 1.504 . S
C380 C379 1.410 . S
C380 C381 1.392 . S
C380 C383 1.511 . S
C381 C377 1.404 . S
C381 C380 1.392 . S
C381 H393 0.929 . S
C382 C378 1.531 . S
C382 H394 0.960 . S
C382 H395 0.962 . S
C382 H396 0.960 . S
C383 C380 1.511 . S
C383 H397 0.961 . S
C383 H398 0.961 . S
C383 H399 0.961 . S
C384 C385 1.370 1_554 S
C384 C386 1.363 . S
C384 H400 0.931 . S
C385 C384 1.370 1_556 S
C385 C389 1.408 1_565 S
C386 C384 1.363 . S
C386 C387 1.372 1_565 S
C386 C390 1.524 . S
C387 C379 1.504 . S
C387 C386 1.372 1_545 S
C387 C388 1.401 . S
C388 C387 1.401 . S
C388 C389 1.404 1_554 S
C388 C391 1.539 . S
C389 C385 1.408 1_545 S
C389 C388 1.404 1_556 S
C389 H401 0.930 . S
C390 C386 1.524 . S
C390 H402 0.956 . S
C390 H403 0.961 . S
C390 H404 0.961 . S
C391 C388 1.539 . S
C391 H405 0.958 . S
C391 H406 0.961 . S
C391 H407 0.960 . S
H392 C376 0.931 . S
H393 C381 0.929 . S
H394 C382 0.960 . S
H395 C382 0.962 . S
H396 C382 0.960 . S
H397 C383 0.961 . S
H398 C383 0.961 . S
H399 C383 0.961 . S
H400 C384 0.931 . S
H401 C389 0.930 . S
H402 C390 0.956 . S
H403 C390 0.961 . S
H404 C390 0.961 . S
H405 C391 0.958 . S
H406 C391 0.961 . S
H407 C391 0.960 . S
C408 C409 1.391 . S
C408 C410 1.394 . S
C408 H424 0.931 . S
C409 C408 1.391 . S
C409 C413 1.376 . S
C410 C408 1.394 . S
C410 C411 1.369 . S
C410 C414 1.531 . S
C411 C410 1.369 . S
C411 C412 1.410 . S
C411 C419 1.503 . S
C412 C411 1.410 . S
C412 C413 1.392 . S
C412 C415 1.511 1_556 S
C413 C409 1.376 . S
C413 C412 1.392 . S
C413 H425 0.929 1_556 S
C414 C410 1.531 . S
C414 H426 0.960 . S
C414 H427 0.962 . S
C414 H428 0.960 . S
C415 C412 1.511 1_554 S
C415 H429 0.961 . S
C415 H430 0.961 . S
C415 H431 0.961 1_554 S
C416 C417 1.370 . S
C416 C418 1.363 . S
C416 H432 0.931 . S
C417 C416 1.370 . S
C417 C421 1.408 . S
C418 C416 1.363 . S
C418 C419 1.370 . S
C418 C422 1.524 . S
C419 C411 1.503 . S
C419 C418 1.370 . S
C419 C420 1.403 . S
C420 C419 1.403 . S
C420 C421 1.404 . S
C420 C423 1.539 . S
C421 C417 1.408 . S
C421 C420 1.404 . S
C421 H433 0.930 . S
C422 C418 1.524 . S
C422 H434 0.956 . S
C422 H435 0.961 1_556 S
C422 H436 0.961 1_556 S
C423 C420 1.539 . S
C423 H437 0.958 . S
C423 H438 0.961 . S
C423 H439 0.960 . S
H424 C408 0.931 . S
H425 C413 0.929 1_554 S
H426 C414 0.960 . S
H427 C414 0.962 . S
H428 C414 0.960 . S
H429 C415 0.961 . S
H430 C415 0.961 . S
H431 C415 0.961 1_556 S
H432 C416 0.931 . S
H433 C421 0.930 . S
H434 C422 0.956 . S
H435 C422 0.961 1_554 S
H436 C422 0.961 1_554 S
H437 C423 0.958 . S
H438 C423 0.961 . S
H439 C423 0.960 . S
C440 C441 1.391 . S
C440 C442 1.394 . S
C440 H456 0.931 . S
C441 C440 1.391 . S
C441 C445 1.376 . S
C442 C440 1.394 . S
C442 C443 1.369 . S
C442 C446 1.531 . S
C443 C442 1.369 . S
C443 C444 1.410 . S
C443 C451 1.503 . S
C444 C443 1.410 . S
C444 C445 1.392 . S
C444 C447 1.511 . S
C445 C441 1.376 . S
C445 C444 1.392 . S
C445 H457 0.929 . S
C446 C442 1.531 . S
C446 H458 0.960 . S
C446 H459 0.962 . S
C446 H460 0.960 . S
C447 C444 1.511 . S
C447 H461 0.961 . S
C447 H462 0.961 . S
C447 H463 0.961 . S
C448 C449 1.370 1_554 S
C448 C450 1.363 . S
C448 H464 0.931 . S
C449 C448 1.370 1_556 S
C449 C453 1.408 1_556 S
C450 C448 1.363 . S
C450 C451 1.370 . S
C450 C454 1.524 . S
C451 C443 1.503 . S
C451 C450 1.370 . S
C451 C452 1.403 . S
C452 C451 1.403 . S
C452 C453 1.404 . S
C452 C455 1.539 . S
C453 C449 1.408 1_554 S
C453 C452 1.404 . S
C453 H465 0.930 1_554 S
C454 C450 1.524 . S
C454 H466 0.956 . S
C454 H467 0.961 . S
C454 H468 0.961 . S
C455 C452 1.539 . S
C455 H469 0.958 . S
C455 H470 0.961 . S
C455 H471 0.960 . S
H456 C440 0.931 . S
H457 C445 0.929 . S
H458 C446 0.960 . S
H459 C446 0.962 . S
H460 C446 0.960 . S
H461 C447 0.961 . S
H462 C447 0.961 . S
H463 C447 0.961 . S
H464 C448 0.931 . S
H465 C453 0.930 1_556 S
H466 C454 0.956 . S
H467 C454 0.961 . S
H468 C454 0.961 . S
H469 C455 0.958 . S
H470 C455 0.961 . S
H471 C455 0.960 . S
C472 C473 1.391 1_455 S
C472 C474 1.394 . S
C472 H488 0.931 . S
C473 C472 1.391 1_655 S
C473 C477 1.376 . S
C474 C472 1.394 . S
C474 C475 1.369 . S
C474 C478 1.531 . S
C475 C474 1.369 . S
C475 C476 1.410 1_455 S
C475 C483 1.505 . S
C476 C475 1.410 1_655 S
C476 C477 1.392 . S
C476 C479 1.511 . S
C477 C473 1.376 . S
C477 C476 1.392 . S
C477 H489 0.929 . S
C478 C474 1.531 . S
C478 H490 0.960 . S
C478 H491 0.962 . S
C478 H492 0.960 . S
C479 C476 1.511 . S
C479 H493 0.961 . S
C479 H494 0.961 . S
C479 H495 0.961 . S
C480 C481 1.377 . S
C480 C482 1.363 1_556 S
C480 H496 0.931 . S
C481 C480 1.377 . S
C481 C485 1.401 1_656 S
C482 C480 1.363 1_554 S
C482 C483 1.356 1_655 S
C482 C486 1.524 . S
C483 C475 1.505 . S
C483 C482 1.356 1_455 S
C483 C484 1.419 . S
C484 C483 1.419 . S
C484 C485 1.404 . S
C484 C487 1.539 . S
C485 C481 1.401 1_454 S
C485 C484 1.404 . S
C485 H497 0.930 . S
C486 C482 1.524 . S
C486 H498 0.956 . S
C486 H499 0.961 . S
C486 H500 0.961 1_554 S
C487 C484 1.539 . S
C487 H501 0.958 . S
C487 H502 0.961 . S
C487 H503 0.960 . S
H488 C472 0.931 . S
H489 C477 0.929 . S
H490 C478 0.960 . S
H491 C478 0.962 . S
H492 C478 0.960 . S
H493 C479 0.961 . S
H494 C479 0.961 . S
H495 C479 0.961 . S
H496 C480 0.931 . S
H497 C485 0.930 . S
H498 C486 0.956 . S
H499 C486 0.961 . S
H500 C486 0.961 1_556 S
H501 C487 0.958 . S
H502 C487 0.961 . S
H503 C487 0.960 . S
C504 C505 1.391 1_655 S
C504 C506 1.394 . S
C504 H520 0.931 . S
C505 C504 1.391 1_455 S
C505 C509 1.376 . S
C506 C504 1.394 . S
C506 C507 1.369 . S
C506 C510 1.531 . S
C507 C506 1.369 . S
C507 C508 1.415 . S
C507 C515 1.503 . S
C508 C507 1.415 . S
C508 C509 1.388 1_655 S
C508 C511 1.510 1_655 S
C509 C505 1.376 . S
C509 C508 1.388 1_455 S
C509 H521 0.929 . S
C510 C506 1.531 . S
C510 H522 0.960 . S
C510 H523 0.962 . S
C510 H524 0.960 . S
C511 C508 1.510 1_455 S
C511 H525 0.954 1_455 S
C511 H526 0.934 1_455 S
C511 H527 0.998 . S
C512 C513 1.370 . S
C512 C514 1.363 . S
C512 H528 0.931 . S
C513 C512 1.370 . S
C513 C517 1.408 . S
C514 C512 1.363 . S
C514 C515 1.370 . S
C514 C518 1.524 . S
C515 C507 1.503 . S
C515 C514 1.370 . S
C515 C516 1.418 . S
C516 C515 1.418 . S
C516 C517 1.412 . S
C516 C519 1.516 1_655 S
C517 C513 1.408 . S
C517 C516 1.412 . S
C517 H529 0.930 1_655 S
C518 C514 1.524 . S
C518 H530 0.956 . S
C518 H531 0.961 . S
C518 H532 0.961 . S
C519 C516 1.516 1_455 S
C519 H533 0.958 . S
C519 H534 0.961 . S
C519 H535 0.960 . S
H520 C504 0.931 . S
H521 C509 0.929 . S
H522 C510 0.960 . S
H523 C510 0.962 . S
H524 C510 0.960 . S
H525 C511 0.954 1_655 S
H526 C511 0.934 1_655 S
H527 C511 0.998 . S
H528 C512 0.931 . S
H529 C517 0.930 1_455 S
H530 C518 0.956 . S
H531 C518 0.961 . S
H532 C518 0.961 . S
H533 C519 0.958 . S
H534 C519 0.961 . S
H535 C519 0.960 . S
C536 C537 1.356 1_565 S
C536 C538 1.394 . S
C536 H552 0.931 . S
C537 C536 1.356 1_545 S
C537 C541 1.399 . S
C538 C536 1.394 . S
C538 C539 1.369 . S
C538 C542 1.531 . S
C539 C538 1.369 . S
C539 C540 1.410 1_565 S
C539 C547 1.503 . S
C540 C539 1.410 1_545 S
C540 C541 1.392 . S
C540 C543 1.511 . S
C541 C537 1.399 . S
C541 C540 1.392 . S
C541 H553 0.929 . S
C542 C538 1.531 . S
C542 H554 0.960 . S
C542 H555 0.962 . S
C542 H556 0.960 . S
C543 C540 1.511 . S
C543 H557 0.961 . S
C543 H558 0.961 . S
C543 H559 0.961 . S
C544 C545 1.370 . S
C544 C546 1.363 . S
C544 H560 0.931 . S
C545 C544 1.370 . S
C545 C549 1.408 . S
C546 C544 1.363 . S
C546 C547 1.370 . S
C546 C550 1.524 1_565 S
C547 C539 1.503 . S
C547 C546 1.370 . S
C547 C548 1.403 . S
C548 C547 1.403 . S
C548 C549 1.404 . S
C548 C551 1.539 . S
C549 C545 1.408 . S
C549 C548 1.404 . S
C549 H561 0.930 . S
C550 C546 1.524 1_545 S
C550 H562 0.956 1_545 S
C550 H563 0.961 . S
C550 H564 0.961 . S
C551 C548 1.539 . S
C551 H565 0.958 . S
C551 H566 0.961 . S
C551 H567 0.960 . S
H552 C536 0.931 . S
H553 C541 0.929 . S
H554 C542 0.960 . S
H555 C542 0.962 . S
H556 C542 0.960 . S
H557 C543 0.961 . S
H558 C543 0.961 . S
H559 C543 0.961 . S
H560 C544 0.931 . S
H561 C549 0.930 . S
H562 C550 0.956 1_565 S
H563 C550 0.961 . S
H564 C550 0.961 . S
H565 C551 0.958 . S
H566 C551 0.961 . S
H567 C551 0.960 . S
C568 C569 1.391 . S
C568 C570 1.394 . S
C568 H584 0.931 . S
C569 C568 1.391 . S
C569 C573 1.376 . S
C570 C568 1.394 . S
C570 C571 1.369 . S
C570 C574 1.531 . S
C571 C570 1.369 . S
C571 C572 1.410 . S
C571 C579 1.503 . S
C572 C571 1.410 . S
C572 C573 1.392 . S
C572 C575 1.511 . S
C573 C569 1.376 . S
C573 C572 1.392 . S
C573 H585 0.929 . S
C574 C570 1.531 . S
C574 H586 0.960 . S
C574 H587 0.962 . S
C574 H588 0.960 . S
C575 C572 1.511 . S
C575 H589 0.961 . S
C575 H590 0.961 . S
C575 H591 0.961 . S
C576 C577 1.370 . S
C576 C578 1.363 . S
C576 H592 0.931 . S
C577 C576 1.370 . S
C577 C581 1.408 . S
C578 C576 1.363 . S
C578 C579 1.370 . S
C578 C582 1.524 . S
C579 C571 1.503 . S
C579 C578 1.370 . S
C579 C580 1.403 . S
C580 C579 1.403 . S
C580 C581 1.404 . S
C580 C583 1.539 . S
C581 C577 1.408 . S
C581 C580 1.404 . S
C581 H593 0.930 . S
C582 C578 1.524 . S
C582 H594 0.956 . S
C582 H595 0.961 . S
C582 H596 0.961 . S
C583 C580 1.539 . S
C583 H597 0.958 . S
C583 H598 0.961 . S
C583 H599 0.960 . S
H584 C568 0.931 . S
H585 C573 0.929 . S
H586 C574 0.960 . S
H587 C574 0.962 . S
H588 C574 0.960 . S
H589 C575 0.961 . S
H590 C575 0.961 . S
H591 C575 0.961 . S
H592 C576 0.931 . S
H593 C581 0.930 . S
H594 C582 0.956 . S
H595 C582 0.961 . S
H596 C582 0.961 . S
H597 C583 0.958 . S
H598 C583 0.961 . S
H599 C583 0.960 . S
C600 C601 1.391 . S
C600 C602 1.394 . S
C600 H616 0.931 . S
C601 C600 1.391 . S
C601 C605 1.376 . S
C602 C600 1.394 . S
C602 C603 1.369 . S
C602 C606 1.531 . S
C603 C602 1.369 . S
C603 C604 1.410 . S
C603 C611 1.503 . S
C604 C603 1.410 . S
C604 C605 1.392 . S
C604 C607 1.511 . S
C605 C601 1.376 . S
C605 C604 1.392 . S
C605 H617 0.929 . S
C606 C602 1.531 . S
C606 H618 0.960 . S
C606 H619 0.962 . S
C606 H620 0.960 . S
C607 C604 1.511 . S
C607 H621 0.961 . S
C607 H622 0.961 . S
C607 H623 0.961 . S
C608 C609 1.370 . S
C608 C610 1.363 . S
C608 H624 0.931 . S
C609 C608 1.370 . S
C609 C613 1.408 . S
C610 C608 1.363 . S
C610 C611 1.370 . S
C610 C614 1.524 . S
C611 C603 1.503 . S
C611 C610 1.370 . S
C611 C612 1.403 . S
C612 C611 1.403 . S
C612 C613 1.404 . S
C612 C615 1.539 . S
C613 C609 1.408 . S
C613 C612 1.404 . S
C613 H625 0.930 . S
C614 C610 1.524 . S
C614 H626 0.956 . S
C614 H627 0.961 . S
C614 H628 0.961 . S
C615 C612 1.539 . S
C615 H629 0.958 . S
C615 H630 0.961 . S
C615 H631 0.960 . S
H616 C600 0.931 . S
H617 C605 0.929 . S
H618 C606 0.960 . S
H619 C606 0.962 . S
H620 C606 0.960 . S
H621 C607 0.961 . S
H622 C607 0.961 . S
H623 C607 0.961 . S
H624 C608 0.931 . S
H625 C613 0.930 . S
H626 C614 0.956 . S
H627 C614 0.961 . S
H628 C614 0.961 . S
H629 C615 0.958 . S
H630 C615 0.961 . S
H631 C615 0.960 . S
C632 C633 1.378 1_455 S
C632 C634 1.394 . S
C632 H648 0.931 . S
C633 C632 1.378 1_655 S
C633 C637 1.385 . S
C634 C632 1.394 . S
C634 C635 1.369 . S
C634 C638 1.531 . S
C635 C634 1.369 . S
C635 C636 1.410 1_455 S
C635 C643 1.503 . S
C636 C635 1.410 1_655 S
C636 C637 1.392 . S
C636 C639 1.511 . S
C637 C633 1.385 . S
C637 C636 1.392 . S
C637 H649 0.929 . S
C638 C634 1.531 . S
C638 H650 0.960 . S
C638 H651 0.962 . S
C638 H652 0.960 . S
C639 C636 1.511 . S
C639 H653 0.961 . S
C639 H654 0.961 . S
C639 H655 0.961 . S
C640 C641 1.370 . S
C640 C642 1.363 . S
C640 H656 0.931 . S
C641 C640 1.370 . S
C641 C645 1.408 . S
C642 C640 1.363 . S
C642 C643 1.370 . S
C642 C646 1.524 . S
C643 C635 1.503 . S
C643 C642 1.370 . S
C643 C644 1.403 . S
C644 C643 1.403 . S
C644 C645 1.404 . S
C644 C647 1.539 . S
C645 C641 1.408 . S
C645 C644 1.404 . S
C645 H657 0.930 . S
C646 C642 1.524 . S
C646 H658 0.956 . S
C646 H659 0.961 . S
C646 H660 0.961 . S
C647 C644 1.539 . S
C647 H661 0.958 . S
C647 H662 0.961 1_554 S
C647 H663 0.960 . S
H648 C632 0.931 . S
H649 C637 0.929 . S
H650 C638 0.960 . S
H651 C638 0.962 . S
H652 C638 0.960 . S
H653 C639 0.961 . S
H654 C639 0.961 . S
H655 C639 0.961 . S
H656 C640 0.931 . S
H657 C645 0.930 . S
H658 C646 0.956 . S
H659 C646 0.961 . S
H660 C646 0.961 . S
H661 C647 0.958 . S
H662 C647 0.961 1_556 S
H663 C647 0.960 . S
C664 C665 1.391 . S
C664 C666 1.397 . S
C664 H680 0.931 . S
C665 C664 1.391 . S
C665 C669 1.376 . S
C666 C664 1.397 . S
C666 C667 1.369 1_565 S
C666 C670 1.526 1_565 S
C667 C666 1.369 1_545 S
C667 C668 1.420 . S
C667 C675 1.503 . S
C668 C667 1.420 . S
C668 C669 1.384 1_545 S
C668 C671 1.511 . S
C669 C665 1.376 . S
C669 C668 1.384 1_565 S
C669 H681 0.929 . S
C670 C666 1.526 1_545 S
C670 H682 0.958 1_545 S
C670 H683 0.969 . S
C670 H684 0.957 1_545 S
C671 C668 1.511 . S
C671 H685 0.961 . S
C671 H686 0.961 . S
C671 H687 0.961 1_545 S
C672 C673 1.370 . S
C672 C674 1.363 . S
C672 H688 0.931 . S
C673 C672 1.370 . S
C673 C677 1.408 1_545 S
C674 C672 1.363 . S
C674 C675 1.370 . S
C674 C678 1.524 . S
C675 C667 1.503 . S
C675 C674 1.370 . S
C675 C676 1.403 1_545 S
C676 C675 1.403 1_565 S
C676 C677 1.404 . S
C676 C679 1.539 . S
C677 C673 1.408 1_565 S
C677 C676 1.404 . S
C677 H689 0.930 . S
C678 C674 1.524 . S
C678 H690 0.956 . S
C678 H691 0.961 . S
C678 H692 0.961 . S
C679 C676 1.539 . S
C679 H693 0.958 . S
C679 H694 0.961 . S
C679 H695 0.960 . S
H680 C664 0.931 . S
H681 C669 0.929 . S
H682 C670 0.958 1_565 S
H683 C670 0.969 . S
H684 C670 0.957 1_565 S
H685 C671 0.961 . S
H686 C671 0.961 . S
H687 C671 0.961 1_565 S
H688 C672 0.931 . S
H689 C677 0.930 . S
H690 C678 0.956 . S
H691 C678 0.961 . S
H692 C678 0.961 . S
H693 C679 0.958 . S
H694 C679 0.961 . S
H695 C679 0.960 . S
C696 C697 1.391 . S
C696 C698 1.394 . S
C696 H712 0.931 . S
C697 C696 1.391 . S
C697 C701 1.376 . S
C698 C696 1.394 . S
C698 C699 1.369 . S
C698 C702 1.531 . S
C699 C698 1.369 . S
C699 C700 1.410 . S
C699 C707 1.503 . S
C700 C699 1.410 . S
C700 C701 1.392 . S
C700 C703 1.511 . S
C701 C697 1.376 . S
C701 C700 1.392 . S
C701 H713 0.929 . S
C702 C698 1.531 . S
C702 H714 0.960 . S
C702 H715 0.962 . S
C702 H716 0.960 . S
C703 C700 1.511 . S
C703 H717 0.961 . S
C703 H718 0.961 . S
C703 H719 0.961 . S
C704 C705 1.370 . S
C704 C706 1.363 . S
C704 H720 0.931 . S
C705 C704 1.370 . S
C705 C709 1.408 . S
C706 C704 1.363 . S
C706 C707 1.370 . S
C706 C710 1.524 . S
C707 C699 1.503 . S
C707 C706 1.370 . S
C707 C708 1.403 . S
C708 C707 1.403 . S
C708 C709 1.404 . S
C708 C711 1.539 1_556 S
C709 C705 1.408 . S
C709 C708 1.404 . S
C709 H721 0.930 1_556 S
C710 C706 1.524 . S
C710 H722 0.956 . S
C710 H723 0.961 . S
C710 H724 0.961 . S
C711 C708 1.539 1_554 S
C711 H725 0.958 . S
C711 H726 0.961 . S
C711 H727 0.960 . S
H712 C696 0.931 . S
H713 C701 0.929 . S
H714 C702 0.960 . S
H715 C702 0.962 . S
H716 C702 0.960 . S
H717 C703 0.961 . S
H718 C703 0.961 . S
H719 C703 0.961 . S
H720 C704 0.931 . S
H721 C709 0.930 1_554 S
H722 C710 0.956 . S
H723 C710 0.961 . S
H724 C710 0.961 . S
H725 C711 0.958 . S
H726 C711 0.961 . S
H727 C711 0.960 . S
C728 C729 1.391 . S
C728 C730 1.394 . S
C728 H744 0.931 . S
C729 C728 1.391 . S
C729 C733 1.376 . S
C730 C728 1.394 . S
C730 C731 1.369 . S
C730 C734 1.531 . S
C731 C730 1.369 . S
C731 C732 1.410 . S
C731 C739 1.503 . S
C732 C731 1.410 . S
C732 C733 1.392 . S
C732 C735 1.511 . S
C733 C729 1.376 . S
C733 C732 1.392 . S
C733 H745 0.929 . S
C734 C730 1.531 . S
C734 H746 0.960 . S
C734 H747 0.962 . S
C734 H748 0.960 . S
C735 C732 1.511 . S
C735 H749 0.961 . S
C735 H750 0.961 . S
C735 H751 0.961 . S
C736 C737 1.370 . S
C736 C738 1.363 . S
C736 H752 0.931 . S
C737 C736 1.370 . S
C737 C741 1.408 . S
C738 C736 1.363 . S
C738 C739 1.370 . S
C738 C742 1.524 . S
C739 C731 1.503 . S
C739 C738 1.370 . S
C739 C740 1.403 . S
C740 C739 1.403 . S
C740 C741 1.404 . S
C740 C743 1.539 . S
C741 C737 1.408 . S
C741 C740 1.404 . S
C741 H753 0.930 . S
C742 C738 1.524 . S
C742 H754 0.956 . S
C742 H755 0.961 . S
C742 H756 0.961 . S
C743 C740 1.539 . S
C743 H757 0.958 . S
C743 H758 0.961 . S
C743 H759 0.960 . S
H744 C728 0.931 . S
H745 C733 0.929 . S
H746 C734 0.960 . S
H747 C734 0.962 . S
H748 C734 0.960 . S
H749 C735 0.961 . S
H750 C735 0.961 . S
H751 C735 0.961 . S
H752 C736 0.931 . S
H753 C741 0.930 . S
H754 C742 0.956 . S
H755 C742 0.961 . S
H756 C742 0.961 . S
H757 C743 0.958 . S
H758 C743 0.961 . S
H759 C743 0.960 . S
C760 C761 1.391 . S
C760 C762 1.394 . S
C760 H776 0.931 . S
C761 C760 1.391 . S
C761 C765 1.376 1_455 S
C762 C760 1.394 . S
C762 C763 1.369 . S
C762 C766 1.531 . S
C763 C762 1.369 . S
C763 C764 1.410 1_455 S
C763 C771 1.503 1_554 S
C764 C763 1.410 1_655 S
C764 C765 1.392 . S
C764 C767 1.511 1_554 S
C765 C761 1.376 1_655 S
C765 C764 1.392 . S
C765 H777 0.929 . S
C766 C762 1.531 . S
C766 H778 0.960 . S
C766 H779 0.962 . S
C766 H780 0.960 . S
C767 C764 1.511 1_556 S
C767 H781 0.961 . S
C767 H782 0.961 . S
C767 H783 0.961 1_556 S
C768 C769 1.370 . S
C768 C770 1.363 . S
C768 H784 0.931 . S
C769 C768 1.370 . S
C769 C773 1.408 1_556 S
C770 C768 1.363 . S
C770 C771 1.370 . S
C770 C774 1.524 . S
C771 C763 1.503 1_556 S
C771 C770 1.370 . S
C771 C772 1.403 1_556 S
C772 C771 1.403 1_554 S
C772 C773 1.404 . S
C772 C775 1.539 1_455 S
C773 C769 1.408 1_554 S
C773 C772 1.404 . S
C773 H785 0.930 . S
C774 C770 1.524 . S
C774 H786 0.956 . S
C774 H787 0.961 . S
C774 H788 0.961 . S
C775 C772 1.539 1_655 S
C775 H789 0.958 1_655 S
C775 H790 0.961 . S
C775 H791 0.960 . S
H776 C760 0.931 . S
H777 C765 0.929 . S
H778 C766 0.960 . S
H779 C766 0.962 . S
H780 C766 0.960 . S
H781 C767 0.961 . S
H782 C767 0.961 . S
H783 C767 0.961 1_554 S
H784 C768 0.931 . S
H785 C773 0.930 . S
H786 C774 0.956 . S
H787 C774 0.961 . S
H788 C774 0.961 . S
H789 C775 0.958 1_455 S
H790 C775 0.961 . S
H791 C775 0.960 . S
C792 C793 1.389 1_565 S
C792 C794 1.394 . S
C792 H808 0.931 . S
C793 C792 1.389 1_545 S
C793 C797 1.378 1_554 S
C794 C792 1.394 . S
C794 C795 1.369 1_554 S
C794 C798 1.531 . S
C795 C794 1.369 1_556 S
C795 C796 1.409 1_565 S
C795 C803 1.503 1_565 S
C796 C795 1.409 1_545 S
C796 C797 1.392 . S
C796 C799 1.511 . S
C797 C793 1.378 1_556 S
C797 C796 1.392 . S
C797 H809 0.929 . S
C798 C794 1.531 . S
C798 H810 0.960 1_554 S
C798 H811 0.962 . S
C798 H812 0.960 . S
C799 C796 1.511 . S
C799 H813 0.961 . S
C799 H814 0.961 . S
C799 H815 0.961 . S
C800 C801 1.370 1_554 S
C800 C802 1.363 . S
C800 H816 0.931 . S
C801 C800 1.370 1_556 S
C801 C805 1.408 1_545 S
C802 C800 1.363 . S
C802 C803 1.370 1_554 S
C802 C806 1.524 . S
C803 C795 1.503 1_545 S
C803 C802 1.370 1_556 S
C803 C804 1.403 1_545 S
C804 C803 1.403 1_565 S
C804 C805 1.404 . S
C804 C807 1.539 . S
C805 C801 1.408 1_565 S
C805 C804 1.404 . S
C805 H817 0.930 . S
C806 C802 1.524 . S
C806 H818 0.956 . S
C806 H819 0.961 . S
C806 H820 0.961 . S
C807 C804 1.539 . S
C807 H821 0.958 . S
C807 H822 0.961 . S
C807 H823 0.960 . S
H808 C792 0.931 . S
H809 C797 0.929 . S
H810 C798 0.960 1_556 S
H811 C798 0.962 . S
H812 C798 0.960 . S
H813 C799 0.961 . S
H814 C799 0.961 . S
H815 C799 0.961 . S
H816 C800 0.931 . S
H817 C805 0.930 . S
H818 C806 0.956 . S
H819 C806 0.961 . S
H820 C806 0.961 . S
H821 C807 0.958 . S
H822 C807 0.961 . S
H823 C807 0.960 . S
C824 C825 1.391 . S
C824 C826 1.394 . S
C824 H840 0.931 . S
C825 C824 1.391 . S
C825 C829 1.376 . S
C826 C824 1.394 . S
C826 C827 1.369 . S
C826 C830 1.531 . S
C827 C826 1.369 . S
C827 C828 1.410 . S
C827 C835 1.503 . S
C828 C827 1.410 . S
C828 C829 1.392 . S
C828 C831 1.511 . S
C829 C825 1.376 . S
C829 C828 1.392 . S
C829 H841 0.929 . S
C830 C826 1.531 . S
C830 H842 0.960 . S
C830 H843 0.962 . S
C830 H844 0.960 . S
C831 C828 1.511 . S
C831 H845 0.961 . S
C831 H846 0.961 . S
C831 H847 0.961 . S
C832 C833 1.370 . S
C832 C834 1.363 . S
C832 H848 0.931 . S
C833 C832 1.370 . S
C833 C837 1.408 . S
C834 C832 1.363 . S
C834 C835 1.370 . S
C834 C838 1.524 . S
C835 C827 1.503 . S
C835 C834 1.370 . S
C835 C836 1.403 . S
C836 C835 1.403 . S
C836 C837 1.404 . S
C836 C839 1.539 . S
C837 C833 1.408 . S
C837 C836 1.404 . S
C837 H849 0.930 . S
C838 C834 1.524 . S
C838 H850 0.956 . S
C838 H851 0.961 . S
C838 H852 0.961 . S
C839 C836 1.539 . S
C839 H853 0.958 . S
C839 H854 0.961 . S
C839 H855 0.960 . S
H840 C824 0.931 . S
H841 C829 0.929 . S
H842 C830 0.960 . S
H843 C830 0.962 . S
H844 C830 0.960 . S
H845 C831 0.961 . S
H846 C831 0.961 . S
H847 C831 0.961 . S
H848 C832 0.931 . S
H849 C837 0.930 . S
H850 C838 0.956 . S
H851 C838 0.961 . S
H852 C838 0.961 . S
H853 C839 0.958 . S
H854 C839 0.961 . S
H855 C839 0.960 . S
C856 C857 1.391 . S
C856 C858 1.394 . S
C856 H872 0.931 . S
C857 C856 1.391 . S
C857 C861 1.376 1_554 S
C858 C856 1.394 . S
C858 C859 1.369 1_554 S
C858 C862 1.531 . S
C859 C858 1.369 1_556 S
C859 C860 1.410 . S
C859 C867 1.503 . S
C860 C859 1.410 . S
C860 C861 1.392 . S
C860 C863 1.511 . S
C861 C857 1.376 1_556 S
C861 C860 1.392 . S
C861 H873 0.929 . S
C862 C858 1.531 . S
C862 H874 0.960 . S
C862 H875 0.962 . S
C862 H876 0.960 . S
C863 C860 1.511 . S
C863 H877 0.961 . S
C863 H878 0.961 . S
C863 H879 0.961 . S
C864 C865 1.370 . S
C864 C866 1.363 . S
C864 H880 0.931 . S
C865 C864 1.370 . S
C865 C869 1.408 . S
C866 C864 1.363 . S
C866 C867 1.370 . S
C866 C870 1.524 . S
C867 C859 1.503 . S
C867 C866 1.370 . S
C867 C868 1.403 . S
C868 C867 1.403 . S
C868 C869 1.404 . S
C868 C871 1.539 . S
C869 C865 1.408 . S
C869 C868 1.404 . S
C869 H881 0.930 . S
C870 C866 1.524 . S
C870 H882 0.956 . S
C870 H883 0.961 . S
C870 H884 0.961 . S
C871 C868 1.539 . S
C871 H885 0.958 1_556 S
C871 H886 0.961 . S
C871 H887 0.960 . S
H872 C856 0.931 . S
H873 C861 0.929 . S
H874 C862 0.960 . S
H875 C862 0.962 . S
H876 C862 0.960 . S
H877 C863 0.961 . S
H878 C863 0.961 . S
H879 C863 0.961 . S
H880 C864 0.931 . S
H881 C869 0.930 . S
H882 C870 0.956 . S
H883 C870 0.961 . S
H884 C870 0.961 . S
H885 C871 0.958 1_554 S
H886 C871 0.961 . S
H887 C871 0.960 . S
C888 C889 1.391 1_455 S
C888 C890 1.394 . S
C888 H904 0.931 . S
C889 C888 1.391 1_655 S
C889 C893 1.376 . S
C890 C888 1.394 . S
C890 C891 1.369 1_455 S
C890 C894 1.531 . S
C891 C890 1.369 1_655 S
C891 C892 1.410 . S
C891 C899 1.503 . S
C892 C891 1.410 . S
C892 C893 1.392 . S
C892 C895 1.511 . S
C893 C889 1.376 . S
C893 C892 1.392 . S
C893 H905 0.929 . S
C894 C890 1.531 . S
C894 H906 0.960 . S
C894 H907 0.962 . S
C894 H908 0.960 . S
C895 C892 1.511 . S
C895 H909 0.961 . S
C895 H910 0.961 . S
C895 H911 0.961 . S
C896 C897 1.370 1_455 S
C896 C898 1.363 . S
C896 H912 0.931 . S
C897 C896 1.370 1_655 S
C897 C901 1.408 . S
C898 C896 1.363 . S
C898 C899 1.370 1_455 S
C898 C902 1.524 . S
C899 C891 1.503 . S
C899 C898 1.370 1_655 S
C899 C900 1.403 . S
C900 C899 1.403 . S
C900 C901 1.404 . S
C900 C903 1.539 . S
C901 C897 1.408 . S
C901 C900 1.404 . S
C901 H913 0.930 . S
C902 C898 1.524 . S
C902 H914 0.956 . S
C902 H915 0.961 . S
C902 H916 0.961 . S
C903 C900 1.539 . S
C903 H917 0.958 . S
C903 H918 0.961 . S
C903 H919 0.960 . S
H904 C888 0.931 . S
H905 C893 0.929 . S
H906 C894 0.960 . S
H907 C894 0.962 . S
H908 C894 0.960 . S
H909 C895 0.961 . S
H910 C895 0.961 . S
H911 C895 0.961 . S
H912 C896 0.931 . S
H913 C901 0.930 . S
H914 C902 0.956 . S
H915 C902 0.961 . S
H916 C902 0.961 . S
H917 C903 0.958 . S
H918 C903 0.961 . S
H919 C903 0.960 . S
C920 C921 1.375 1_565 S
C920 C922 1.394 . S
C920 H936 0.931 . S
C921 C920 1.375 1_545 S
C921 C925 1.392 . S
C922 C920 1.394 . S
C922 C923 1.342 1_565 S
C922 C926 1.531 . S
C923 C922 1.342 1_545 S
C923 C924 1.439 . S
C923 C931 1.501 1_545 S
C924 C923 1.439 . S
C924 C925 1.392 . S
C924 C927 1.511 . S
C925 C921 1.392 . S
C925 C924 1.392 . S
C925 H937 0.929 . S
C926 C922 1.531 . S
C926 H938 0.960 . S
C926 H939 0.962 . S
C926 H940 0.960 . S
C927 C924 1.511 . S
C927 H941 0.961 . S
C927 H942 0.961 . S
C927 H943 0.961 . S
C928 C929 1.370 . S
C928 C930 1.363 . S
C928 H944 0.931 . S
C929 C928 1.370 . S
C929 C933 1.408 1_565 S
C930 C928 1.363 . S
C930 C931 1.370 . S
C930 C934 1.524 . S
C931 C923 1.501 1_565 S
C931 C930 1.370 . S
C931 C932 1.403 1_565 S
C932 C931 1.403 1_545 S
C932 C933 1.404 . S
C932 C935 1.539 . S
C933 C929 1.408 1_545 S
C933 C932 1.404 . S
C933 H945 0.930 . S
C934 C930 1.524 . S
C934 H946 0.956 . S
C934 H947 0.961 . S
C934 H948 0.961 . S
C935 C932 1.539 . S
C935 H949 0.958 . S
C935 H950 0.961 . S
C935 H951 0.960 . S
H936 C920 0.931 . S
H937 C925 0.929 . S
H938 C926 0.960 . S
H939 C926 0.962 . S
H940 C926 0.960 . S
H941 C927 0.961 . S
H942 C927 0.961 . S
H943 C927 0.961 . S
H944 C928 0.931 . S
H945 C933 0.930 . S
H946 C934 0.956 . S
H947 C934 0.961 . S
H948 C934 0.961 . S
H949 C935 0.958 . S
H950 C935 0.961 . S
H951 C935 0.960 . S
C952 C953 1.391 . S
C952 C954 1.394 . S
C952 H968 0.931 . S
C953 C952 1.391 . S
C953 C957 1.376 . S
C954 C952 1.394 . S
C954 C955 1.369 . S
C954 C958 1.531 . S
C955 C954 1.369 . S
C955 C956 1.410 . S
C955 C963 1.503 . S
C956 C955 1.410 . S
C956 C957 1.392 . S
C956 C959 1.511 . S
C957 C953 1.376 . S
C957 C956 1.392 . S
C957 H969 0.929 . S
C958 C954 1.531 . S
C958 H970 0.960 . S
C958 H971 0.962 . S
C958 H972 0.960 . S
C959 C956 1.511 . S
C959 H973 0.961 . S
C959 H974 0.961 . S
C959 H975 0.961 . S
C960 C961 1.370 . S
C960 C962 1.363 . S
C960 H976 0.931 . S
C961 C960 1.370 . S
C961 C965 1.408 . S
C962 C960 1.363 . S
C962 C963 1.370 . S
C962 C966 1.524 . S
C963 C955 1.503 . S
C963 C962 1.370 . S
C963 C964 1.403 . S
C964 C963 1.403 . S
C964 C965 1.404 . S
C964 C967 1.539 . S
C965 C961 1.408 . S
C965 C964 1.404 . S
C965 H977 0.930 . S
C966 C962 1.524 . S
C966 H978 0.956 . S
C966 H979 0.961 . S
C966 H980 0.961 . S
C967 C964 1.539 . S
C967 H981 0.958 . S
C967 H982 0.961 . S
C967 H983 0.960 . S
H968 C952 0.931 . S
H969 C957 0.929 . S
H970 C958 0.960 . S
H971 C958 0.962 . S
H972 C958 0.960 . S
H973 C959 0.961 . S
H974 C959 0.961 . S
H975 C959 0.961 . S
H976 C960 0.931 . S
H977 C965 0.930 . S
H978 C966 0.956 . S
H979 C966 0.961 . S
H980 C966 0.961 . S
H981 C967 0.958 . S
H982 C967 0.961 . S
H983 C967 0.960 . S
C984 C985 1.391 . S
C984 C986 1.394 . S
C984 H1000 0.931 . S
C985 C984 1.391 . S
C985 C989 1.376 . S
C986 C984 1.394 . S
C986 C987 1.369 . S
C986 C990 1.531 . S
C987 C986 1.369 . S
C987 C988 1.410 . S
C987 C995 1.503 . S
C988 C987 1.410 . S
C988 C989 1.392 . S
C988 C991 1.511 . S
C989 C985 1.376 . S
C989 C988 1.392 . S
C989 H1001 0.929 . S
C990 C986 1.531 . S
C990 H1002 0.960 . S
C990 H1003 0.962 . S
C990 H1004 0.960 . S
C991 C988 1.511 . S
C991 H1005 0.961 . S
C991 H1006 0.961 . S
C991 H1007 0.961 . S
C992 C993 1.370 . S
C992 C994 1.363 . S
C992 H1008 0.931 . S
C993 C992 1.370 . S
C993 C997 1.408 . S
C994 C992 1.363 . S
C994 C995 1.370 . S
C994 C998 1.524 . S
C995 C987 1.503 . S
C995 C994 1.370 . S
C995 C996 1.403 . S
C996 C995 1.403 . S
C996 C997 1.404 . S
C996 C999 1.539 . S
C997 C993 1.408 . S
C997 C996 1.404 . S
C997 H1009 0.930 . S
C998 C994 1.524 . S
C998 H1010 0.956 . S
C998 H1011 0.961 . S
C998 H1012 0.961 . S
C999 C996 1.539 . S
C999 H1013 0.958 . S
C999 H1014 0.961 . S
C999 H1015 0.960 . S
H1000 C984 0.931 . S
H1001 C989 0.929 . S
H1002 C990 0.960 . S
H1003 C990 0.962 . S
H1004 C990 0.960 . S
H1005 C991 0.961 . S
H1006 C991 0.961 . S
H1007 C991 0.961 . S
H1008 C992 0.931 . S
H1009 C997 0.930 . S
H1010 C998 0.956 . S
H1011 C998 0.961 . S
H1012 C998 0.961 . S
H1013 C999 0.958 . S
H1014 C999 0.961 . S
H1015 C999 0.960 . S
C249 C76 1.882 1_545 S
C257 C111 2.017 1_545 S
C289 C151 1.729 . S
C281 C87 1.729 . S
C321 C170 2.021 . S
C313 C54 1.845 . S
C353 C231 1.420 1_455 S
C345 C65 1.385 . S
C385 C90 2.007 1_565 S
C377 C32 1.835 1_545 S
C409 C43 1.723 . S
C417 C130 1.726 . S
C441 C10 1.873 . S
C449 C191 2.016 . S
C473 C21 1.383 . S
C481 C210 1.417 1_655 S
C513 C92 0.838 . S
C505 C60 0.879 . S
C545 C132 0.384 . S
C537 C71 0.292 . S
C577 C188 0.923 . S
C569 C82 0.786 . S
C601 C49 0.360 . S
C609 C212 0.459 . S
C633 C16 0.903 . S
C641 C113 0.858 . S
C673 C153 0.331 . S
C665 C27 0.438 1_565 S
C705 C199 0.933 . S
C697 C38 0.780 . S
C729 C5 0.376 . S
C737 C233 0.476 . S
C761 C59 1.409 . S
C769 C108 1.600 . S
C793 C70 2.176 . S
C801 C148 2.354 . S
C833 C172 1.517 . S
C825 C81 1.516 . S
C865 C228 2.340 . S
C857 C48 2.141 . S
C889 C15 1.436 . S
C897 C119 1.622 . S
C929 C159 2.353 . S
C921 C26 2.165 . S
C961 C193 1.501 . S
C953 C37 1.526 . S
C985 C4 2.166 . S
C993 C239 2.344 . S
