# Generated by pormake.
# Topology pth, (4,4)-cn, num edge types: 1
# Building blocks:
#     Node 0, Type 0, BuildingBlock: KUFVIS_clean_sbu_0, # of connection points: 4
#     Node 1, Type 0, BuildingBlock: KUFVIS_clean_sbu_0, # of connection points: 4
#     Node 2, Type 0, BuildingBlock: KUFVIS_clean_sbu_0, # of connection points: 4
#     Node 3, Type 1, BuildingBlock: NAHDIM_clean_linker_0, # of connection points: 4
#     Node 4, Type 1, BuildingBlock: NAHDIM_clean_linker_0, # of connection points: 4
#     Node 5, Type 1, BuildingBlock: NAHDIM_clean_linker_0, # of connection points: 4
#     Edge 6, Type (0, 1), BuildingBlock: UVAHIK_clean_linker_0, # of connection points: 2
#     Edge 7, Type (0, 1), BuildingBlock: UVAHIK_clean_linker_0, # of connection points: 2
#     Edge 8, Type (0, 1), BuildingBlock: UVAHIK_clean_linker_0, # of connection points: 2
#     Edge 9, Type (0, 1), BuildingBlock: UVAHIK_clean_linker_0, # of connection points: 2
#     Edge 10, Type (0, 1), BuildingBlock: UVAHIK_clean_linker_0, # of connection points: 2
#     Edge 11, Type (0, 1), BuildingBlock: UVAHIK_clean_linker_0, # of connection points: 2
#     Edge 12, Type (0, 1), BuildingBlock: UVAHIK_clean_linker_0, # of connection points: 2
#     Edge 13, Type (0, 1), BuildingBlock: UVAHIK_clean_linker_0, # of connection points: 2
#     Edge 14, Type (0, 1), BuildingBlock: UVAHIK_clean_linker_0, # of connection points: 2
#     Edge 15, Type (0, 1), BuildingBlock: UVAHIK_clean_linker_0, # of connection points: 2
#     Edge 16, Type (0, 1), BuildingBlock: UVAHIK_clean_linker_0, # of connection points: 2
#     Edge 17, Type (0, 1), BuildingBlock: UVAHIK_clean_linker_0, # of connection points: 2
# Relax obj value: 0.013
# Max RMSD: 0.083
# Mean RMSD: 0.064
data_MOF--net-pth--node1-KUFVIS_clean_sbu_0--node2-NAHDIM_clean_linker_0--edge1-UVAHIK_clean_linker_0
_symmetry_space_group_name_H-M    P1
_symmetry_Int_Tables_number       1
_symmetry_cell_setting            triclinic
loop_
_symmetry_equiv_pos_as_xyz
'x, y, z'
_cell_length_a     38.130364
_cell_length_b     38.179385
_cell_length_c     98.744553
_cell_angle_alpha  90.203031
_cell_angle_beta   92.254172
_cell_angle_gamma 120.25569
loop_
_atom_site_label
_atom_site_type_symbol
_atom_site_fract_x
_atom_site_fract_y
_atom_site_fract_z
_atom_type_partial_charge
Mn0 Mn 0.06166 0.09996 0.0739 0.0
Mn1 Mn 0.01091 0.1384 0.05677 0.0
C2 C 0.02118 0.06563 0.05503 0.0
C3 C 0.0638 0.06104 0.09164 0.0
C4 C 0.10133 0.17067 0.05479 0.0
O5 O 0.06446 0.14251 0.08702 0.0
O6 O 0.02508 0.16197 0.07554 0.0
C7 C 0.93578 0.10129 0.07204 0.0
N8 N 0.95433 0.10715 0.06008 0.0
C9 C 0.89021 0.06562 0.04789 0.0
C10 C 0.87037 0.05939 0.06006 0.0
C11 C 0.89328 0.07724 0.0722 0.0
C12 C 0.93261 0.09004 0.04835 0.0
H13 H 0.95333 0.1148 0.0814 0.0
C14 C 0.04655 0.16307 0.08604 0.0
O15 O 0.09702 0.08865 0.08643 0.0
O16 O 0.02983 0.05671 0.08668 0.0
N17 N 0.99521 0.11822 0.03845 0.0
C18 C 0.01914 0.1257 0.0277 0.0
C19 C 0.001 0.10919 0.01484 0.0
C20 C 0.9585 0.08545 0.01316 0.0
C21 C 0.93448 0.07864 0.02433 0.0
C22 C 0.95424 0.09617 0.03687 0.0
H23 H 0.05182 0.1439 0.02893 0.0
O24 O 0.04923 0.05823 0.05945 0.0
O25 O 0.01716 0.09232 0.06197 0.0
O26 O 0.10366 0.14444 0.06216 0.0
O27 O 0.06863 0.17171 0.05255 0.0
C28 C 0.89177 0.05449 0.02358 0.0
C29 C 0.86965 0.04793 0.03535 0.0
H30 H 0.83762 0.04068 0.06023 0.0
H31 H 0.87821 0.07237 0.08164 0.0
H32 H 0.01975 0.11459 0.00626 0.0
H33 H 0.94465 0.0724 0.00326 0.0
H34 H 0.87567 0.04035 0.01403 0.0
H35 H 0.83687 0.02886 0.03468 0.0
Mn36 Mn 0.03191 0.08809 0.40727 0.0
Mn37 Mn 0.08786 0.17825 0.42388 0.0
C38 C 0.07082 0.09284 0.42638 0.0
C39 C 0.02624 0.04378 0.38991 0.0
C40 C 0.99632 0.12564 0.4254 0.0
O41 O 0.03283 0.12878 0.39387 0.0
O42 O 0.07689 0.18774 0.40481 0.0
C43 C 0.16438 0.2107 0.40953 0.0
N44 N 0.14435 0.19959 0.42127 0.0
C45 C 0.20639 0.21912 0.43433 0.0
C46 C 0.22774 0.231 0.42239 0.0
C47 C 0.20662 0.2267 0.40994 0.0
C48 C 0.16436 0.20359 0.43331 0.0
H49 H 0.14819 0.20732 0.39995 0.0
C50 C 0.05404 0.16745 0.39448 0.0
O51 O 0.99418 0.0416 0.3949 0.0
O52 O 0.06129 0.07218 0.3948 0.0
N53 N 0.10061 0.17341 0.44248 0.0
C54 C 0.07523 0.15872 0.45295 0.0
C55 C 0.0914 0.15974 0.46607 0.0
C56 C 0.13346 0.1761 0.4683 0.0
C57 C 0.15902 0.19147 0.45739 0.0
C58 C 0.14121 0.18992 0.44456 0.0
H59 H 0.04288 0.14611 0.45131 0.0
O60 O 0.0411 0.05781 0.42209 0.0
O61 O 0.07733 0.12382 0.41918 0.0
O62 O 0.99185 0.09495 0.41867 0.0
O63 O 0.03037 0.15843 0.4274 0.0
C64 C 0.20138 0.20758 0.45869 0.0
C65 C 0.22504 0.22137 0.44717 0.0
H66 H 0.26029 0.24315 0.42265 0.0
H67 H 0.22287 0.23564 0.40067 0.0
H68 H 0.07146 0.1478 0.47444 0.0
H69 H 0.14577 0.17645 0.47841 0.0
H70 H 0.21598 0.209 0.46848 0.0
H71 H 0.2575 0.23321 0.44828 0.0
Mn72 Mn 0.04219 0.09822 0.74084 0.0
Mn73 Mn 0.00936 0.15095 0.75868 0.0
C74 C 0.0767 0.1322 0.76073 0.0
C75 C 0.08065 0.0955 0.72356 0.0
C76 C 0.97 0.05926 0.75914 0.0
O77 O 0.00315 0.10277 0.72732 0.0
O78 O 0.98744 0.14231 0.73962 0.0
C79 C 0.05304 0.22863 0.74449 0.0
N80 N 0.0445 0.20768 0.75619 0.0
C81 C 0.0874 0.26874 0.76944 0.0
C82 C 0.09634 0.29104 0.75754 0.0
C83 C 0.07921 0.27086 0.74501 0.0
C84 C 0.06118 0.22672 0.76828 0.0
H85 H 0.04005 0.21323 0.73484 0.0
C86 C 0.98553 0.12337 0.72864 0.0
O87 O 0.05005 0.06269 0.72794 0.0
O88 O 0.08816 0.12967 0.72902 0.0
N89 N 0.02843 0.16222 0.77728 0.0
C90 C 0.01785 0.13613 0.78775 0.0
C91 C 0.03315 0.1514 0.80095 0.0
C92 C 0.05868 0.19333 0.80329 0.0
C93 C 0.06854 0.21965 0.7924 0.0
C94 C 0.05232 0.20269 0.77947 0.0
H95 H 0.99807 0.1039 0.78603 0.0
O96 O 0.08119 0.10319 0.75585 0.0
O97 O 0.05295 0.14118 0.75367 0.0
O98 O 0.99442 0.05629 0.75138 0.0
O99 O 0.97222 0.09296 0.76214 0.0
C100 C 0.09417 0.26199 0.79385 0.0
C101 C 0.10382 0.2865 0.78237 0.0
H102 H 0.11653 0.32362 0.7579 0.0
H103 H 0.08616 0.28782 0.73577 0.0
H104 H 0.02531 0.1309 0.80931 0.0
H105 H 0.07063 0.20498 0.81348 0.0
H106 H 0.10704 0.27597 0.80374 0.0
H107 H 0.12408 0.31895 0.78359 0.0
C108 C 0.96518 0.66803 0.32523 0.0
C109 C 0.99571 0.70339 0.31694 0.0
C110 C 0.99672 0.68029 0.29414 0.0
C111 C 0.03841 0.6954 0.29289 0.0
C112 C 0.05208 0.67653 0.28402 0.0
C113 C 0.02339 0.64197 0.27622 0.0
C114 C 0.98136 0.62784 0.27701 0.0
C115 C 0.96858 0.64761 0.28587 0.0
C116 C 0.09712 0.69291 0.28318 0.0
C117 C 0.94996 0.59113 0.26883 0.0
C118 C 0.0266 0.3682 0.30315 0.0
C119 C 0.02281 0.3932 0.29232 0.0
C120 C 0.0536 0.46475 0.28668 0.0
C121 C 0.02101 0.45922 0.27799 0.0
C122 C 0.02114 0.49237 0.27192 0.0
C123 C 0.05492 0.53183 0.27434 0.0
C124 C 0.08788 0.53755 0.28302 0.0
C125 C 0.0867 0.50383 0.28912 0.0
C126 C 0.98515 0.48513 0.26284 0.0
C127 C 0.1244 0.57919 0.28572 0.0
C128 C 0.1229 0.5168 0.19186 0.0
C129 C 0.0819 0.4991 0.19488 0.0
C130 C 0.06703 0.52261 0.20051 0.0
C131 C 0.09406 0.56442 0.20343 0.0
C132 C 0.13498 0.5826 0.19976 0.0
C133 C 0.14871 0.55854 0.19381 0.0
C134 C 0.02274 0.50251 0.2037 0.0
C135 C 0.16454 0.62711 0.20257 0.0
C136 C 0.96428 0.76267 0.19636 0.0
C137 C 0.00313 0.76612 0.19117 0.0
C138 C 0.01131 0.70663 0.1916 0.0
C139 C 0.98662 0.66463 0.19225 0.0
C140 C 0.00136 0.64106 0.19825 0.0
C141 C 0.04214 0.66011 0.20342 0.0
C142 C 0.06811 0.70228 0.20192 0.0
C143 C 0.05236 0.72522 0.19604 0.0
C144 C 0.97296 0.59605 0.19952 0.0
C145 C 0.11207 0.72319 0.20692 0.0
C146 C 0.0373 0.61905 0.268 0.0
C147 C 0.04292 0.58967 0.27451 0.0
C148 C 0.05575 0.56667 0.26747 0.0
C149 C 0.06471 0.57399 0.25368 0.0
C150 C 0.08 0.55304 0.24654 0.0
C151 C 0.08642 0.55862 0.23277 0.0
C152 C 0.07682 0.5846 0.22553 0.0
C153 C 0.08046 0.58825 0.21133 0.0
C154 C 0.07005 0.6139 0.20443 0.0
C155 C 0.05632 0.63636 0.21138 0.0
C156 C 0.05326 0.63371 0.22561 0.0
C157 C 0.04012 0.65636 0.23295 0.0
C158 C 0.03593 0.65248 0.2469 0.0
C159 C 0.04363 0.62502 0.25397 0.0
C160 C 0.05745 0.60237 0.2468 0.0
C161 C 0.06286 0.60718 0.23266 0.0
C162 C 0.17283 0.4662 0.19888 0.0
C163 C 0.13245 0.45841 0.19228 0.0
O164 O 0.98292 0.69636 0.30336 0.0
O165 O 0.99451 0.72812 0.18657 0.0
O166 O 0.13827 0.49441 0.18693 0.0
O167 O 0.05403 0.43336 0.29298 0.0
H168 H 0.0253 0.70445 0.31857 0.0
H169 H 0.96437 0.63969 0.32204 0.0
H170 H 0.93409 0.66335 0.32364 0.0
H171 H 0.97432 0.67383 0.3362 0.0
H172 H 0.06024 0.72177 0.29892 0.0
H173 H 0.93647 0.63662 0.28679 0.0
H174 H 0.10479 0.67035 0.28721 0.0
H175 H 0.11556 0.72192 0.28904 0.0
H176 H 0.10562 0.69782 0.27244 0.0
H177 H 0.91846 0.58394 0.27062 0.0
H178 H 0.95286 0.56441 0.27145 0.0
H179 H 0.95528 0.59636 0.25786 0.0
H180 H 0.01621 0.37959 0.28186 0.0
H181 H 0.97613 0.35225 0.31486 0.0
H182 H 0.05887 0.38572 0.30748 0.0
H183 H 0.03106 0.34499 0.29762 0.0
H184 H 0.9953 0.42913 0.27591 0.0
H185 H 0.1117 0.50781 0.29583 0.0
H186 H 0.99435 0.49095 0.25218 0.0
H187 H 0.97461 0.50636 0.26569 0.0
H188 H 0.95928 0.45356 0.26333 0.0
H189 H 0.14837 0.57834 0.29224 0.0
H190 H 0.11491 0.59889 0.29079 0.0
H191 H 0.13748 0.59326 0.27599 0.0
H192 H 0.10989 0.44786 0.20033 0.0
H193 H 0.06162 0.46696 0.19285 0.0
H194 H 0.18015 0.57191 0.19116 0.0
H195 H 0.01981 0.4985 0.21481 0.0
H196 H 0.00447 0.47222 0.19858 0.0
H197 H 0.00987 0.52181 0.20058 0.0
H198 H 0.19564 0.63635 0.19943 0.0
H199 H 0.16602 0.63419 0.21357 0.0
H200 H 0.15377 0.64549 0.19706 0.0
H201 H 0.02591 0.77729 0.19988 0.0
H202 H 0.97029 0.79255 0.20035 0.0
H203 H 0.95302 0.74076 0.20471 0.0
H204 H 0.94019 0.75183 0.1881 0.0
H205 H 0.95521 0.65057 0.18852 0.0
H206 H 0.07205 0.75757 0.19495 0.0
H207 H 0.97006 0.58814 0.21039 0.0
H208 H 0.9857 0.57909 0.19452 0.0
H209 H 0.94218 0.58586 0.19489 0.0
H210 H 0.1293 0.75523 0.20376 0.0
H211 H 0.12685 0.70671 0.20303 0.0
H212 H 0.11381 0.72269 0.21816 0.0
H213 H 0.03619 0.5839 0.28512 0.0
H214 H 0.08708 0.53199 0.25153 0.0
H215 H 0.09824 0.54161 0.22784 0.0
H216 H 0.07194 0.61583 0.19349 0.0
H217 H 0.03284 0.67731 0.22801 0.0
H218 H 0.0257 0.67062 0.25201 0.0
H219 H 0.19627 0.47574 0.19119 0.0
H220 H 0.16912 0.43849 0.2038 0.0
H221 H 0.18363 0.49066 0.20679 0.0
C222 C 0.4106 0.06892 0.66159 0.0
C223 C 0.39691 0.09034 0.65141 0.0
C224 C 0.41617 0.08105 0.62926 0.0
C225 C 0.43862 0.121 0.62488 0.0
C226 C 0.46995 0.13201 0.61591 0.0
C227 C 0.4789 0.10238 0.6113 0.0
C228 C 0.45488 0.0616 0.61518 0.0
C229 C 0.42335 0.05135 0.62402 0.0
C230 C 0.49423 0.17552 0.61167 0.0
C231 C 0.46354 0.02924 0.61042 0.0
C232 C 0.74405 0.2449 0.66227 0.0
C233 C 0.72717 0.20757 0.65281 0.0
C234 C 0.69562 0.2 0.63031 0.0
C235 C 0.67146 0.15757 0.62963 0.0
C236 C 0.6375 0.13836 0.62054 0.0
C237 C 0.62724 0.1622 0.61216 0.0
C238 C 0.65236 0.20499 0.61258 0.0
C239 C 0.68682 0.22324 0.62147 0.0
C240 C 0.61206 0.09267 0.62012 0.0
C241 C 0.64206 0.2316 0.60403 0.0
C242 C 0.69309 0.15961 0.52743 0.0
C243 C 0.66528 0.11872 0.52986 0.0
C244 C 0.62827 0.10751 0.53573 0.0
C245 C 0.61865 0.13772 0.53899 0.0
C246 C 0.64549 0.17856 0.53577 0.0
C247 C 0.68238 0.18893 0.52997 0.0
C248 C 0.5998 0.06354 0.53872 0.0
C249 C 0.63576 0.21139 0.53887 0.0
C250 C 0.29388 0.02057 0.53731 0.0
C251 C 0.32543 0.0547 0.52892 0.0
C252 C 0.39089 0.05845 0.52751 0.0
C253 C 0.40593 0.03208 0.52927 0.0
C254 C 0.44562 0.04632 0.53458 0.0
C255 C 0.47082 0.08807 0.53793 0.0
C256 C 0.45689 0.11539 0.53502 0.0
C257 C 0.41693 0.10026 0.52983 0.0
C258 C 0.45989 0.01654 0.5373 0.0
C259 C 0.48357 0.16029 0.53801 0.0
C260 C 0.51534 0.11467 0.60334 0.0
C261 C 0.55277 0.13078 0.6105 0.0
C262 C 0.58857 0.14275 0.60383 0.0
C263 C 0.5871 0.13783 0.58959 0.0
C264 C 0.62222 0.14782 0.58261 0.0
C265 C 0.6206 0.14399 0.56855 0.0
C266 C 0.58379 0.13017 0.56093 0.0
C267 C 0.58195 0.12699 0.54661 0.0
C268 C 0.54493 0.11331 0.53934 0.0
C269 C 0.50935 0.10226 0.54605 0.0
C270 C 0.51047 0.10483 0.56037 0.0
C271 C 0.47506 0.09346 0.56743 0.0
C272 C 0.47652 0.09651 0.5815 0.0
C273 C 0.51342 0.11107 0.58906 0.0
C274 C 0.54946 0.12258 0.58216 0.0
C275 C 0.5479 0.11915 0.56781 0.0
C276 C 0.79049 0.18543 0.53497 0.0
C277 C 0.75492 0.15576 0.5255 0.0
O278 O 0.3883 0.07081 0.63883 0.0
O279 O 0.35107 0.04259 0.52373 0.0
O280 O 0.73013 0.17186 0.52249 0.0
O281 O 0.72704 0.21942 0.63958 0.0
H282 H 0.42258 0.12213 0.65091 0.0
H283 H 0.43909 0.0709 0.65834 0.0
H284 H 0.38711 0.03637 0.66223 0.0
H285 H 0.41665 0.08369 0.6718 0.0
H286 H 0.43194 0.14363 0.62861 0.0
H287 H 0.40538 0.02048 0.62736 0.0
H288 H 0.52556 0.18954 0.6163 0.0
H289 H 0.48054 0.19376 0.61486 0.0
H290 H 0.49658 0.17679 0.60049 0.0
H291 H 0.44224 0.99901 0.61445 0.0
H292 H 0.4951 0.03766 0.61367 0.0
H293 H 0.46119 0.02698 0.59917 0.0
H294 H 0.69548 0.18641 0.65577 0.0
H295 H 0.74393 0.23616 0.673 0.0
H296 H 0.72481 0.25903 0.66115 0.0
H297 H 0.77563 0.2677 0.6598 0.0
H298 H 0.67901 0.13951 0.63624 0.0
H299 H 0.70601 0.25597 0.62203 0.0
H300 H 0.60469 0.08096 0.60946 0.0
H301 H 0.58297 0.08321 0.62499 0.0
H302 H 0.62767 0.07847 0.62552 0.0
H303 H 0.66198 0.26431 0.60675 0.0
H304 H 0.60994 0.22325 0.60522 0.0
H305 H 0.64557 0.22699 0.59318 0.0
H306 H 0.73854 0.12693 0.53101 0.0
H307 H 0.67223 0.09546 0.52717 0.0
H308 H 0.70365 0.22027 0.52776 0.0
H309 H 0.5949 0.06026 0.54977 0.0
H310 H 0.61163 0.04365 0.53552 0.0
H311 H 0.5698 0.05297 0.53342 0.0
H312 H 0.65798 0.24097 0.53464 0.0
H313 H 0.63592 0.21531 0.55002 0.0
H314 H 0.60483 0.20244 0.53468 0.0
H315 H 0.34243 0.08155 0.53592 0.0
H316 H 0.27287 0.02956 0.54153 0.0
H317 H 0.30943 0.01425 0.54589 0.0
H318 H 0.27594 0.99231 0.53103 0.0
H319 H 0.38578 -3e-05 0.52711 0.0
H320 H 0.4059 0.12098 0.52779 0.0
H321 H 0.4655 0.01564 0.54838 0.0
H322 H 0.48908 0.02658 0.53241 0.0
H323 H 0.43738 0.9854 0.53349 0.0
H324 H 0.47027 0.17801 0.5336 0.0
H325 H 0.51408 0.17148 0.53396 0.0
H326 H 0.48775 0.16591 0.54916 0.0
H327 H 0.55411 0.13444 0.62145 0.0
H328 H 0.65137 0.15878 0.58795 0.0
H329 H 0.64867 0.15229 0.56373 0.0
H330 H 0.54378 0.11115 0.52835 0.0
H331 H 0.44573 0.08208 0.56218 0.0
H332 H 0.44838 0.08751 0.58639 0.0
H333 H 0.81101 0.17331 0.53741 0.0
H334 H 0.7788 0.18976 0.54458 0.0
H335 H 0.80818 0.21543 0.53023 0.0
C336 C 0.69605 0.66782 0.82433 0.0
C337 C 0.69029 0.70203 0.8298 0.0
C338 C 0.66803 0.691 0.85274 0.0
C339 C 0.6389 0.70304 0.85269 0.0
C340 C 0.60666 0.68553 0.86147 0.0
C341 C 0.60332 0.65494 0.87029 0.0
C342 C 0.6335 0.6436 0.87058 0.0
C343 C 0.66604 0.66254 0.86196 0.0
C344 C 0.57559 0.69896 0.86106 0.0
C345 C 0.63077 0.61053 0.87959 0.0
C346 C 0.33485 0.37007 0.8397 0.0
C347 C 0.37129 0.40109 0.84768 0.0
C348 C 0.40363 0.47136 0.85583 0.0
C349 C 0.43302 0.46899 0.86421 0.0
C350 C 0.46313 0.5031 0.87154 0.0
C351 C 0.4637 0.54035 0.87062 0.0
C352 C 0.43393 0.54285 0.86237 0.0
C353 C 0.40421 0.50819 0.85505 0.0
C354 C 0.49463 0.49932 0.88016 0.0
C355 C 0.43368 0.5821 0.86127 0.0
C356 C 0.38698 0.50834 0.95375 0.0
C357 C 0.41651 0.49765 0.95141 0.0
C358 C 0.45345 0.52543 0.94585 0.0
C359 C 0.46115 0.56481 0.94279 0.0
C360 C 0.43259 0.57647 0.94601 0.0
C361 C 0.39587 0.54804 0.95154 0.0
C362 C 0.48372 0.51235 0.94287 0.0
C363 C 0.44018 0.61842 0.94309 0.0
C364 C 0.78558 0.76953 0.94469 0.0
C365 C 0.75536 0.77479 0.95296 0.0
C366 C 0.68793 0.71529 0.95408 0.0
C367 C 0.67104 0.67357 0.95213 0.0
C368 C 0.63129 0.64951 0.94665 0.0
C369 C 0.60772 0.66775 0.94339 0.0
C370 C 0.62357 0.70944 0.94641 0.0
C371 C 0.66371 0.73291 0.9517 0.0
C372 C 0.61507 0.60495 0.94383 0.0
C373 C 0.59871 0.72943 0.94349 0.0
C374 C 0.5664 0.63215 0.8782 0.0
C375 C 0.53142 0.60185 0.87127 0.0
C376 C 0.49634 0.57664 0.8781 0.0
C377 C 0.49533 0.58253 0.89217 0.0
C378 C 0.46006 0.55841 0.89924 0.0
C379 C 0.46022 0.56234 0.91325 0.0
C380 C 0.49583 0.59015 0.92074 0.0
C381 C 0.49713 0.59231 0.93507 0.0
C382 C 0.53349 0.61906 0.94223 0.0
C383 C 0.56872 0.64417 0.9354 0.0
C384 C 0.56762 0.6435 0.92105 0.0
C385 C 0.60227 0.66912 0.91386 0.0
C386 C 0.60151 0.66661 0.89978 0.0
C387 C 0.5665 0.63751 0.89239 0.0
C388 C 0.53085 0.61237 0.89939 0.0
C389 C 0.53127 0.61576 0.91373 0.0
C390 C 0.28849 0.43074 0.94688 0.0
C391 C 0.32764 0.44014 0.95484 0.0
O392 O 0.69776 0.70583 0.84373 0.0
O393 O 0.72771 0.73771 0.95814 0.0
O394 O 0.34971 0.4813 0.95812 0.0
O395 O 0.37462 0.43895 0.84835 0.0
H396 H 0.65823 0.69366 0.82719 0.0
H397 H 0.67437 0.6388 0.829 0.0
H398 H 0.72747 0.67421 0.82675 0.0
H399 H 0.69008 0.6642 0.81315 0.0
H400 H 0.64126 0.72583 0.84568 0.0
H401 H 0.68906 0.65384 0.86194 0.0
H402 H 0.54672 0.67463 0.85617 0.0
H403 H 0.5858 0.72713 0.85527 0.0
H404 H 0.56916 0.70423 0.87151 0.0
H405 H 0.65336 0.60147 0.87718 0.0
H406 H 0.5999 0.58332 0.87859 0.0
H407 H 0.63638 0.62131 0.89033 0.0
H408 H 0.4003 0.40262 0.84514 0.0
H409 H 0.34715 0.36206 0.83076 0.0
H410 H 0.32291 0.38698 0.83355 0.0
H411 H 0.30074 0.32773 0.85417 0.0
H412 H 0.43287 0.44068 0.86506 0.0
H413 H 0.38137 0.50976 0.84862 0.0
H414 H 0.49145 0.50448 0.891 0.0
H415 H 0.52564 0.52276 0.87743 0.0
H416 H 0.49171 0.469 0.879 0.0
H417 H 0.40714 0.57854 0.85503 0.0
H418 H 0.46197 0.60522 0.85665 0.0
H419 H 0.43319 0.59373 0.87155 0.0
H420 H 0.34446 0.4311 0.94803 0.0
H421 H 0.41077 0.46762 0.95382 0.0
H422 H 0.37323 0.55624 0.95369 0.0
H423 H 0.48792 0.51315 0.93179 0.0
H424 H 0.47394 0.48125 0.94636 0.0
H425 H 0.51365 0.53379 0.94791 0.0
H426 H 0.41614 0.62359 0.94695 0.0
H427 H 0.44144 0.62285 0.93197 0.0
H428 H 0.47004 0.64157 0.94777 0.0
H429 H 0.73995 0.78602 0.94588 0.0
H430 H 0.80823 0.79899 0.9405 0.0
H431 H 0.76912 0.74771 0.9361 0.0
H432 H 0.80178 0.75768 0.95106 0.0
H433 H 0.68982 0.66024 0.95432 0.0
H434 H 0.67629 0.765 0.95383 0.0
H435 H 0.60689 0.5978 0.93285 0.0
H436 H 0.58703 0.58678 0.94942 0.0
H437 H 0.63739 0.59552 0.94689 0.0
H438 H 0.61338 0.76068 0.94794 0.0
H439 H 0.56801 0.7111 0.94754 0.0
H440 H 0.59468 0.73094 0.93235 0.0
H441 H 0.53215 0.5965 0.86051 0.0
H442 H 0.43205 0.53595 0.89402 0.0
H443 H 0.43225 0.54263 0.91814 0.0
H444 H 0.53469 0.61946 0.95323 0.0
H445 H 0.63053 0.69128 0.91901 0.0
H446 H 0.62906 0.68702 0.89478 0.0
H447 H 0.27006 0.43975 0.95285 0.0
H448 H 0.27006 0.3978 0.94425 0.0
H449 H 0.29608 0.44775 0.93731 0.0
C450 C 0.05919 0.18231 0.11079 0.0
C451 C 0.05131 0.19034 0.0975 0.0
C452 C 0.06389 0.20846 0.12156 0.0
C453 C 0.04776 0.29472 0.13039 0.0
H454 H 0.12561 0.31301 0.15996 0.0
C455 C 0.12023 0.43388 0.1675 0.0
C456 C 0.11746 0.42519 0.1814 0.0
C457 C 0.10825 0.40289 0.15773 0.0
C458 C 0.10354 0.30787 0.1518 0.0
H459 H 0.0428 0.23229 0.08501 0.0
H460 H 0.05295 0.2788 0.10356 0.0
H461 H 0.11296 0.2636 0.14195 0.0
H462 H 0.10022 0.3773 0.19586 0.0
H463 H 0.0806 0.32328 0.17869 0.0
H464 H 0.04028 0.34084 0.14002 0.0
C465 C 0.05393 0.25161 0.10587 0.0
C466 C 0.09603 0.27938 0.14151 0.0
C467 C 0.0484 0.22506 0.09517 0.0
C468 C 0.10252 0.38483 0.18524 0.0
C469 C 0.09141 0.35402 0.17546 0.0
C470 C 0.05596 0.32379 0.14054 0.0
C471 C 0.06165 0.24368 0.11924 0.0
C472 C 0.06823 0.2726 0.13059 0.0
C473 C 0.09425 0.36285 0.16164 0.0
C474 C 0.08405 0.33072 0.15128 0.0
H475 H 0.06123 0.15554 0.11289 0.0
H476 H 0.06901 0.2008 0.13171 0.0
H477 H 0.02539 0.28973 0.12238 0.0
H478 H 0.13204 0.4646 0.16413 0.0
H479 H 0.11102 0.41039 0.14711 0.0
C480 C 0.95752 0.15815 0.43258 0.0
C481 C 0.9611 0.1234 0.43183 0.0
C482 C 0.92819 0.15871 0.44041 0.0
C483 C 0.83778 0.09516 0.46074 0.0
H484 H 0.88045 0.19583 0.48161 0.0
C485 C 0.77183 0.11264 0.51064 0.0
C486 C 0.77047 0.14841 0.51258 0.0
C487 C 0.78953 0.10737 0.49925 0.0
C488 C 0.86778 0.16772 0.47573 0.0
H489 H 0.93584 0.06134 0.43811 0.0
H490 H 0.88536 0.06265 0.45232 0.0
H491 H 0.92083 0.19025 0.46432 0.0
H492 H 0.78598 0.20643 0.50407 0.0
H493 H 0.81684 0.19725 0.48416 0.0
H494 H 0.78524 0.07238 0.47272 0.0
C495 C 0.90451 0.08922 0.44659 0.0
C496 C 0.89089 0.16449 0.46575 0.0
C497 C 0.93345 0.08842 0.43849 0.0
C498 C 0.78643 0.17847 0.50278 0.0
C499 C 0.80424 0.17329 0.49144 0.0
C500 C 0.81472 0.09831 0.47086 0.0
C501 C 0.90242 0.12486 0.44798 0.0
C502 C 0.8763 0.1282 0.45812 0.0
C503 C 0.80659 0.13799 0.48967 0.0
C504 C 0.82959 0.13464 0.47847 0.0
H505 H 0.97818 0.18534 0.42737 0.0
H506 H 0.92663 0.18623 0.44088 0.0
H507 H 0.82544 0.06688 0.45499 0.0
H508 H 0.76009 0.08916 0.5181 0.0
H509 H 0.79135 0.08008 0.49824 0.0
C510 C 0.91353 0.02466 0.77515 0.0
C511 C 0.9387 0.02216 0.76561 0.0
C512 C 0.88586 0.99029 0.78193 0.0
C513 C 0.86607 0.88895 0.79164 0.0
H514 H 0.75917 0.87094 0.79906 0.0
C515 C 0.76 0.76399 0.82729 0.0
C516 C 0.71862 0.74142 0.82315 0.0
C517 C 0.78652 0.79888 0.82046 0.0
C518 C 0.78881 0.87539 0.797 0.0
H519 H 0.95365 0.98105 0.75553 0.0
H520 H 0.90492 0.92101 0.76722 0.0
H521 H 0.80503 0.92943 0.78611 0.0
H522 H 0.67281 0.73704 0.80845 0.0
H523 H 0.71908 0.79777 0.79646 0.0
H524 H 0.84954 0.83445 0.80228 0.0
C525 C 0.90715 0.94979 0.76961 0.0
C526 C 0.81526 0.90914 0.78969 0.0
C527 C 0.93489 0.9842 0.76283 0.0
C528 C 0.70439 0.75431 0.81201 0.0
C529 C 0.73088 0.78913 0.80518 0.0
C530 C 0.83962 0.85519 0.79894 0.0
C531 C 0.88258 0.95252 0.77933 0.0
C532 C 0.8542 0.91631 0.78692 0.0
C533 C 0.77231 0.81172 0.80928 0.0
C534 C 0.80067 0.848 0.8017 0.0
H535 H 0.91568 0.05337 0.77761 0.0
H536 H 0.86775 0.99356 0.78946 0.0
H537 H 0.89603 0.89386 0.78984 0.0
H538 H 0.77188 0.75437 0.83572 0.0
H539 H 0.81817 0.81579 0.82396 0.0
C540 C 0.09826 0.03078 0.10541 0.0
C541 C 0.0638 0.03415 0.10234 0.0
C542 C 0.09636 0.00228 0.11471 0.0
C543 C 0.02069 0.90678 0.13006 0.0
H544 H 0.10821 0.92893 0.15629 0.0
C545 C 0.00601 0.78389 0.16631 0.0
C546 C 0.01882 0.79628 0.17991 0.0
C547 C 0.0169 0.81254 0.1562 0.0
C548 C 0.08344 0.92233 0.14905 0.0
H549 H 0.00106 0.01192 0.10706 0.0
H550 H 0.99808 0.96335 0.12343 0.0
H551 H 0.11623 0.98104 0.14037 0.0
H552 H 0.05281 0.84821 0.19356 0.0
H553 H 0.07086 0.89843 0.17598 0.0
H554 H 0.98706 0.84905 0.13903 0.0
C555 C 0.0262 0.98161 0.1184 0.0
C556 C 0.08822 0.95205 0.13983 0.0
C557 C 0.02801 0.00971 0.10909 0.0
C558 C 0.04314 0.83787 0.18313 0.0
C559 C 0.05362 0.86658 0.17303 0.0
C560 C 0.01582 0.8773 0.13929 0.0
C561 C 0.06002 0.97688 0.12112 0.0
C562 C 0.05657 0.94481 0.13039 0.0
C563 C 0.03998 0.85429 0.15947 0.0
C564 C 0.04691 0.8848 0.14901 0.0
H565 H 0.12624 0.0492 0.10033 0.0
H566 H 0.12292 0.99931 0.11654 0.0
H567 H 0.996 0.89985 0.12274 0.0
H568 H 0.98676 0.7521 0.16351 0.0
H569 H 0.0064 0.80192 0.14583 0.0
C570 C 0.1408 0.11112 0.43409 0.0
C571 C 0.09982 0.09476 0.43695 0.0
C572 C 0.16832 0.11126 0.44386 0.0
C573 C 0.18224 0.10172 0.48064 0.0
H574 H 0.25998 0.07139 0.4695 0.0
C575 C 0.29991 0.0987 0.51855 0.0
C576 C 0.30468 0.06464 0.51748 0.0
C577 C 0.27825 0.10639 0.50841 0.0
C578 C 0.23839 0.07982 0.47278 0.0
H579 H 0.05447 0.06335 0.45171 0.0
H580 H 0.10255 0.06345 0.46892 0.0
H581 H 0.21482 0.07653 0.45251 0.0
H582 H 0.29023 0.01171 0.50508 0.0
H583 H 0.25216 0.02489 0.48741 0.0
H584 H 0.20484 0.10357 0.50097 0.0
C585 C 0.11379 0.07737 0.45931 0.0
C586 C 0.21282 0.08321 0.46303 0.0
C587 C 0.08626 0.07707 0.44949 0.0
C588 C 0.28752 0.03852 0.50605 0.0
C589 C 0.26588 0.04619 0.49592 0.0
C590 C 0.20782 0.09831 0.4904 0.0
C591 C 0.15514 0.09452 0.45661 0.0
C592 C 0.18407 0.09361 0.46688 0.0
C593 C 0.26073 0.08004 0.49703 0.0
C594 C 0.23577 0.08673 0.48659 0.0
H595 H 0.15149 0.12371 0.42427 0.0
H596 H 0.19996 0.12478 0.44148 0.0
H597 H 0.16078 0.11036 0.48388 0.0
H598 H 0.31255 0.11911 0.52732 0.0
H599 H 0.27511 0.1329 0.5095 0.0
C600 C 0.12891 0.19911 0.77066 0.0
C601 C 0.10311 0.15739 0.77218 0.0
C602 C 0.15535 0.22304 0.78136 0.0
C603 C 0.20548 0.21617 0.81326 0.0
H604 H 0.2252 0.32493 0.81985 0.0
C605 C 0.35308 0.33132 0.85303 0.0
C606 C 0.35088 0.37669 0.85857 0.0
C607 C 0.31349 0.29855 0.84086 0.0
C608 C 0.21962 0.29444 0.81827 0.0
H609 H 0.0858 0.10714 0.78556 0.0
H610 H 0.13102 0.14897 0.80453 0.0
H611 H 0.17679 0.28259 0.80178 0.0
H612 H 0.30132 0.40364 0.86236 0.0
H613 H 0.23834 0.34694 0.84329 0.0
H614 H 0.24798 0.22787 0.82982 0.0
C615 C 0.13113 0.16343 0.7951 0.0
C616 C 0.19218 0.27029 0.8078 0.0
C617 C 0.10505 0.1395 0.78432 0.0
C618 C 0.303 0.37867 0.85786 0.0
C619 C 0.26492 0.34434 0.84551 0.0
C620 C 0.23291 0.24034 0.82372 0.0
C621 C 0.15659 0.20552 0.79375 0.0
C622 C 0.18491 0.2309 0.80512 0.0
C623 C 0.27101 0.30599 0.83683 0.0
C624 C 0.24046 0.27978 0.82625 0.0
H625 H 0.12877 0.21315 0.76115 0.0
H626 H 0.17516 0.25514 0.77985 0.0
H627 H 0.20105 0.1862 0.8114 0.0
H628 H 0.38041 0.32955 0.85451 0.0
H629 H 0.31602 0.27497 0.8357 0.0
C630 C 0.95438 0.15898 0.71659 0.0
C631 C 0.96255 0.12697 0.71683 0.0
C632 C 0.93253 0.16288 0.70567 0.0
C633 C 0.85405 0.10547 0.67997 0.0
H634 H 0.88667 0.21299 0.66706 0.0
C635 C 0.74168 0.15658 0.66389 0.0
C636 C 0.75261 0.1876 0.65454 0.0
C637 C 0.76814 0.14246 0.66735 0.0
C638 C 0.8773 0.18251 0.67024 0.0
H639 H 0.95422 0.07395 0.70574 0.0
H640 H 0.91478 0.0804 0.68662 0.0
H641 H 0.9343 0.20234 0.68095 0.0
H642 H 0.79904 0.22703 0.64102 0.0
H643 H 0.84507 0.20181 0.64685 0.0
H644 H 0.79636 0.08597 0.66968 0.0
C645 C 0.92589 0.10258 0.69492 0.0
C646 C 0.90454 0.17655 0.67832 0.0
C647 C 0.94845 0.09897 0.70582 0.0
C648 C 0.78971 0.20286 0.64819 0.0
C649 C 0.81613 0.18859 0.6516 0.0
C650 C 0.82665 0.11144 0.67187 0.0
C651 C 0.9179 0.13471 0.69476 0.0
C652 C 0.89258 0.13842 0.68375 0.0
C653 C 0.80625 0.15921 0.66156 0.0
C654 C 0.83744 0.15042 0.6674 0.0
H655 H 0.9649 0.1812 0.72485 0.0
H656 H 0.92622 0.18755 0.70593 0.0
H657 H 0.8441 0.07574 0.68402 0.0
H658 H 0.71347 0.14465 0.66904 0.0
H659 H 0.75976 0.12031 0.67522 0.0
C660 C 0.94997 0.0163 0.04748 0.0
C661 C 0.99117 0.03874 0.04459 0.0
C662 C 0.92146 0.98893 0.03783 0.0
C663 C 0.90645 0.96331 0.00119 0.0
H664 H 0.82356 0.85724 0.01248 0.0
C665 C 0.78485 0.84525 0.96332 0.0
C666 C 0.77743 0.80544 0.96441 0.0
C667 C 0.8076 0.8744 0.97349 0.0
C668 C 0.84658 0.88671 0.00917 0.0
H669 H 0.03577 0.04861 0.02996 0.0
H670 H 0.98598 0.00077 0.01295 0.0
H671 H 0.87063 0.90711 0.02943 0.0
H672 H 0.7882 0.76491 0.97688 0.0
H673 H 0.82823 0.81584 0.99462 0.0
H674 H 0.88335 0.94246 0.98088 0.0
C675 C 0.97539 0.00517 0.02248 0.0
C676 C 0.87326 0.91542 0.01889 0.0
C677 C 0.00387 0.03233 0.03218 0.0
C678 C 0.793 0.79526 0.9759 0.0
C679 C 0.81576 0.82438 0.98606 0.0
C680 C 0.87978 0.93461 0.99147 0.0
C681 C 0.93386 0.98327 0.02518 0.0
C682 C 0.90385 0.9538 0.01498 0.0
C683 C 0.82361 0.86437 0.98492 0.0
C684 C 0.84991 0.8958 0.99533 0.0
H685 H 0.93987 0.01989 0.05722 0.0
H686 H 0.88971 0.97253 0.04021 0.0
H687 H 0.92938 0.99285 0.99789 0.0
H688 H 0.77343 0.85393 0.95451 0.0
H689 H 0.81282 0.90486 0.97238 0.0
C690 C 0.98559 0.98303 0.37434 0.0
C691 C 0.02344 0.01371 0.37979 0.0
C692 C 0.98322 0.95253 0.36576 0.0
C693 C 0.03784 0.89901 0.35961 0.0
H694 H 0.97104 0.85899 0.32629 0.0
C695 C 0.0379 0.77389 0.32743 0.0
C696 C 0.00034 0.74318 0.32185 0.0
C697 C 0.0417 0.80936 0.333 0.0
C698 C 0.98951 0.86952 0.33564 0.0
H699 H 0.08854 0.03743 0.38011 0.0
H700 H 0.08427 0.98419 0.36528 0.0
H701 H 0.97498 0.91635 0.33883 0.0
H702 H 0.93782 0.7265 0.31703 0.0
H703 H 0.94391 0.78777 0.32724 0.0
H704 H 0.05144 0.85178 0.35684 0.0
C705 C 0.05648 0.98355 0.36768 0.0
C706 C 0.99182 0.90243 0.34279 0.0
C707 C 0.05888 0.01412 0.37613 0.0
C708 C 0.96702 0.74946 0.32144 0.0
C709 C 0.97067 0.78478 0.32717 0.0
C710 C 0.0352 0.86596 0.35258 0.0
C711 C 0.01861 0.95204 0.36261 0.0
C712 C 0.01613 0.91754 0.35482 0.0
C713 C 0.0079 0.81485 0.33327 0.0
C714 C 0.01112 0.85078 0.34048 0.0
H715 H 0.95777 0.98198 0.37695 0.0
H716 H 0.95362 0.92849 0.36203 0.0
H717 H 0.05623 0.90954 0.36899 0.0
H718 H 0.06427 0.77017 0.32771 0.0
H719 H 0.07113 0.8323 0.33725 0.0
C720 C 0.10226 0.05719 0.70857 0.0
C721 C 0.10763 0.09429 0.71345 0.0
C722 C 0.13054 0.05651 0.70011 0.0
C723 C 0.23814 0.11833 0.69292 0.0
H724 H 0.21093 0.04601 0.66165 0.0
C725 C 0.36311 0.12761 0.66026 0.0
C726 C 0.35993 0.09085 0.65614 0.0
C727 C 0.3302 0.12807 0.66578 0.0
C728 C 0.21899 0.06613 0.67043 0.0
H729 H 0.14565 0.15974 0.71275 0.0
H730 H 0.19466 0.15849 0.698 0.0
H731 H 0.15659 0.04625 0.67399 0.0
H732 H 0.31937 0.02589 0.65406 0.0
H733 H 0.262 0.02644 0.66406 0.0
H734 H 0.30022 0.13764 0.6897 0.0
C735 C 0.16902 0.12995 0.70086 0.0
C736 C 0.18789 0.06629 0.67747 0.0
C737 C 0.14081 0.13063 0.70926 0.0
C738 C 0.32265 0.05463 0.65722 0.0
C739 C 0.28976 0.05503 0.66285 0.0
C740 C 0.2691 0.11802 0.68597 0.0
C741 C 0.16472 0.09291 0.69643 0.0
C742 C 0.19721 0.09255 0.68875 0.0
C743 C 0.29342 0.09171 0.66744 0.0
C744 C 0.26 0.09206 0.67461 0.0
H745 H 0.07695 0.02868 0.71162 0.0
H746 H 0.12655 0.02751 0.6969 0.0
H747 H 0.24628 0.13827 0.70176 0.0
H748 H 0.39136 0.15603 0.65946 0.0
H749 H 0.33381 0.15696 0.66891 0.0
C750 C 0.14256 0.23935 0.0454 0.0
C751 C 0.13769 0.20105 0.04799 0.0
C752 C 0.17407 0.26686 0.03763 0.0
C753 C 0.23154 0.26862 0.00942 0.0
H754 H 0.29253 0.38445 0.01731 0.0
C755 C 0.32286 0.38189 0.96845 0.0
C756 C 0.31785 0.41585 0.96761 0.0
C757 C 0.31031 0.35724 0.97975 0.0
C758 C 0.27567 0.3522 0.01493 0.0
H759 H 0.16257 0.16179 0.04483 0.0
H760 H 0.21747 0.20988 0.03083 0.0
H761 H 0.2536 0.33797 0.03495 0.0
H762 H 0.29636 0.45102 0.97798 0.0
H763 H 0.27361 0.40772 0.99754 0.0
H764 H 0.25134 0.28272 0.98919 0.0
C765 C 0.19703 0.21859 0.03501 0.0
C766 C 0.25362 0.32563 0.02506 0.0
C767 C 0.16583 0.19125 0.04304 0.0
C768 C 0.30089 0.42521 0.97843 0.0
C769 C 0.28814 0.4005 0.98968 0.0
C770 C 0.25326 0.29522 -0.00077 0.0
C771 C 0.20103 0.25643 0.03209 0.0
C772 C 0.2304 0.2837 0.02228 0.0
C773 C 0.29216 0.36586 0.99041 0.0
C774 C 0.27456 0.33744 0.00175 0.0
H775 H 0.12138 0.24774 0.04914 0.0
H776 H 0.17612 0.29559 0.03542 0.0
H777 H 0.21356 0.23644 0.00697 0.0
H778 H 0.33576 0.37395 0.96022 0.0
H779 H 0.31429 0.3311 0.98004 0.0
C780 C 0.06648 0.23245 0.38432 0.0
C781 C 0.0507 0.1904 0.38293 0.0
C782 C 0.06076 0.25385 0.37389 0.0
C783 C 0.99355 0.23863 0.34377 0.0
H784 H 0.07492 0.35028 0.3374 0.0
C785 C 0.95828 0.3304 0.29654 0.0
C786 C 0.98888 0.38628 0.29949 0.0
C787 C 0.97052 0.30156 0.30817 0.0
C788 C 0.05182 0.31921 0.33915 0.0
H789 H 0.01779 0.13816 0.36921 0.0
H790 H 0.00871 0.1758 0.35085 0.0
H791 H 0.0904 0.31133 0.35357 0.0
H792 H 0.02751 0.44259 0.31821 0.0
H793 H 0.04218 0.39192 0.33651 0.0
H794 H 0.95514 0.24668 0.32928 0.0
C795 C 0.02467 0.19202 0.36017 0.0
C796 C 0.06065 0.29686 0.3484 0.0
C797 C 0.0301 0.17048 0.37067 0.0
C798 C 0.01335 0.41025 0.31628 0.0
C799 C 0.02386 0.37883 0.32725 0.0
C800 C 0.98493 0.2609 0.33439 0.0
C801 C 0.03947 0.23388 0.36173 0.0
C802 C 0.03138 0.2565 0.35101 0.0
C803 C 0.00395 0.32585 0.32295 0.0
C804 C 0.01378 0.30154 0.33218 0.0
H805 H 0.08231 0.24881 0.39364 0.0
H806 H 0.07199 0.28589 0.37556 0.0
H807 H 0.97003 0.20786 0.34567 0.0
H808 H 0.94153 0.31703 0.28703 0.0
H809 H 0.95818 0.26953 0.30612 0.0
loop_
_geom_bond_atom_site_label_1
_geom_bond_atom_site_label_2
_geom_bond_distance
_geom_bond_site_symmetry_2
_ccdc_geom_bond_type
Mn0 O5 2.095 . S
Mn0 O15 2.162 . S
Mn0 O16 2.297 . S
Mn0 O24 2.385 . S
Mn0 O25 2.209 . S
Mn0 O26 2.094 . S
Mn1 O6 2.121 . S
Mn1 N8 2.257 1_455 S
Mn1 N17 2.282 . S
Mn1 O25 2.215 . S
Mn1 O27 2.117 . S
C2 O24 1.234 . S
C2 O25 1.283 . S
C3 O15 1.281 . S
C3 O16 1.236 . S
C4 O26 1.240 . S
C4 O27 1.264 . S
O5 Mn0 2.095 . S
O5 C14 1.250 . S
O6 Mn1 2.121 . S
O6 C14 1.258 . S
C7 N8 1.326 . S
C7 C11 1.460 . S
C7 H13 0.929 . S
N8 Mn1 2.257 1_655 S
N8 C7 1.326 . S
N8 C12 1.362 . S
C9 C10 1.258 . S
C9 C12 1.431 . S
C9 C29 1.449 . S
C10 C9 1.258 . S
C10 C11 1.477 . S
C10 H30 0.931 . S
C11 C7 1.460 . S
C11 C10 1.477 . S
C11 H31 0.930 . S
C12 N8 1.362 . S
C12 C9 1.431 . S
C12 C22 1.476 . S
H13 C7 0.929 . S
C14 O5 1.250 . S
C14 O6 1.258 . S
O15 Mn0 2.162 . S
O15 C3 1.281 . S
O16 Mn0 2.297 . S
O16 C3 1.236 . S
N17 Mn1 2.282 . S
N17 C18 1.328 . S
N17 C22 1.318 1_455 S
C18 N17 1.328 . S
C18 C19 1.457 . S
C18 H23 0.929 . S
C19 C18 1.457 . S
C19 C20 1.291 1_455 S
C19 H32 0.931 . S
C20 C19 1.291 1_655 S
C20 C21 1.373 . S
C20 H33 0.929 . S
C21 C20 1.373 . S
C21 C22 1.396 . S
C21 C28 1.403 . S
C22 C12 1.476 . S
C22 N17 1.318 1_655 S
C22 C21 1.396 . S
H23 C18 0.929 . S
O24 Mn0 2.385 . S
O24 C2 1.234 . S
O25 Mn0 2.209 . S
O25 Mn1 2.215 . S
O25 C2 1.283 . S
O26 Mn0 2.094 . S
O26 C4 1.240 . S
O27 Mn1 2.117 . S
O27 C4 1.264 . S
C28 C21 1.403 . S
C28 C29 1.399 . S
C28 H34 0.929 . S
C29 C9 1.449 . S
C29 C28 1.399 . S
C29 H35 0.930 . S
H30 C10 0.931 . S
H31 C11 0.930 . S
H32 C19 0.931 . S
H33 C20 0.929 . S
H34 C28 0.929 . S
H35 C29 0.930 . S
Mn36 O41 2.095 . S
Mn36 O51 2.162 1_455 S
Mn36 O52 2.297 . S
Mn36 O60 2.385 . S
Mn36 O61 2.209 . S
Mn36 O62 2.094 1_455 S
Mn37 O42 2.121 . S
Mn37 N44 2.257 . S
Mn37 N53 2.282 . S
Mn37 O61 2.215 . S
Mn37 O63 2.117 . S
C38 O60 1.234 . S
C38 O61 1.283 . S
C39 O51 1.281 1_455 S
C39 O52 1.236 . S
C40 O62 1.240 . S
C40 O63 1.264 1_655 S
O41 Mn36 2.095 . S
O41 C50 1.250 . S
O42 Mn37 2.121 . S
O42 C50 1.258 . S
C43 N44 1.326 . S
C43 C47 1.460 . S
C43 H49 0.929 . S
N44 Mn37 2.257 . S
N44 C43 1.326 . S
N44 C48 1.362 . S
C45 C46 1.258 . S
C45 C48 1.431 . S
C45 C65 1.449 . S
C46 C45 1.258 . S
C46 C47 1.477 . S
C46 H66 0.931 . S
C47 C43 1.460 . S
C47 C46 1.477 . S
C47 H67 0.930 . S
C48 N44 1.362 . S
C48 C45 1.431 . S
C48 C58 1.476 . S
H49 C43 0.929 . S
C50 O41 1.250 . S
C50 O42 1.258 . S
O51 Mn36 2.162 1_655 S
O51 C39 1.281 1_655 S
O52 Mn36 2.297 . S
O52 C39 1.236 . S
N53 Mn37 2.282 . S
N53 C54 1.328 . S
N53 C58 1.318 . S
C54 N53 1.328 . S
C54 C55 1.457 . S
C54 H59 0.929 . S
C55 C54 1.457 . S
C55 C56 1.291 . S
C55 H68 0.931 . S
C56 C55 1.291 . S
C56 C57 1.373 . S
C56 H69 0.929 . S
C57 C56 1.373 . S
C57 C58 1.396 . S
C57 C64 1.403 . S
C58 C48 1.476 . S
C58 N53 1.318 . S
C58 C57 1.396 . S
H59 C54 0.929 . S
O60 Mn36 2.385 . S
O60 C38 1.234 . S
O61 Mn36 2.209 . S
O61 Mn37 2.215 . S
O61 C38 1.283 . S
O62 Mn36 2.094 1_655 S
O62 C40 1.240 . S
O63 Mn37 2.117 . S
O63 C40 1.264 1_455 S
C64 C57 1.403 . S
C64 C65 1.399 . S
C64 H70 0.929 . S
C65 C45 1.449 . S
C65 C64 1.399 . S
C65 H71 0.930 . S
H66 C46 0.931 . S
H67 C47 0.930 . S
H68 C55 0.931 . S
H69 C56 0.929 . S
H70 C64 0.929 . S
H71 C65 0.930 . S
Mn72 O77 2.095 1_455 S
Mn72 O87 2.162 . S
Mn72 O88 2.297 . S
Mn72 O96 2.385 . S
Mn72 O97 2.209 . S
Mn72 O98 2.094 . S
Mn73 O78 2.121 . S
Mn73 N80 2.257 1_655 S
Mn73 N89 2.282 1_655 S
Mn73 O97 2.215 1_655 S
Mn73 O99 2.117 . S
C74 O96 1.234 . S
C74 O97 1.283 . S
C75 O87 1.281 . S
C75 O88 1.236 . S
C76 O98 1.240 1_655 S
C76 O99 1.264 . S
O77 Mn72 2.095 1_655 S
O77 C86 1.250 . S
O78 Mn73 2.121 . S
O78 C86 1.258 . S
C79 N80 1.326 . S
C79 C83 1.460 . S
C79 H85 0.929 . S
N80 Mn73 2.257 1_455 S
N80 C79 1.326 . S
N80 C84 1.362 . S
C81 C82 1.258 . S
C81 C84 1.431 . S
C81 C101 1.449 . S
C82 C81 1.258 . S
C82 C83 1.477 . S
C82 H102 0.931 . S
C83 C79 1.460 . S
C83 C82 1.477 . S
C83 H103 0.930 . S
C84 N80 1.362 . S
C84 C81 1.431 . S
C84 C94 1.476 . S
H85 C79 0.929 . S
C86 O77 1.250 . S
C86 O78 1.258 . S
O87 Mn72 2.162 . S
O87 C75 1.281 . S
O88 Mn72 2.297 . S
O88 C75 1.236 . S
N89 Mn73 2.282 1_455 S
N89 C90 1.328 . S
N89 C94 1.318 . S
C90 N89 1.328 . S
C90 C91 1.457 . S
C90 H95 0.929 . S
C91 C90 1.457 . S
C91 C92 1.291 . S
C91 H104 0.931 . S
C92 C91 1.291 . S
C92 C93 1.373 . S
C92 H105 0.929 . S
C93 C92 1.373 . S
C93 C94 1.396 . S
C93 C100 1.403 . S
C94 C84 1.476 . S
C94 N89 1.318 . S
C94 C93 1.396 . S
H95 C90 0.929 . S
O96 Mn72 2.385 . S
O96 C74 1.234 . S
O97 Mn72 2.209 . S
O97 Mn73 2.215 1_455 S
O97 C74 1.283 . S
O98 Mn72 2.094 . S
O98 C76 1.240 1_455 S
O99 Mn73 2.117 . S
O99 C76 1.264 . S
C100 C93 1.403 . S
C100 C101 1.399 . S
C100 H106 0.929 . S
C101 C81 1.449 . S
C101 C100 1.399 . S
C101 H107 0.930 . S
H102 C82 0.931 . S
H103 C83 0.930 . S
H104 C91 0.931 . S
H105 C92 0.929 . S
H106 C100 0.929 . S
H107 C101 0.930 . S
C108 C109 1.560 1_655 S
C108 H169 0.959 . S
C108 H170 0.959 . S
C108 H171 0.960 . S
C109 C108 1.560 1_455 S
C109 O164 1.426 1_455 S
C109 H168 0.980 . S
C110 C111 1.407 . S
C110 C115 1.418 1_455 S
C110 O164 1.334 1_455 S
C111 C110 1.407 . S
C111 C112 1.360 . S
C111 H172 0.929 . S
C112 C111 1.360 . S
C112 C113 1.401 . S
C112 C116 1.527 . S
C113 C112 1.401 . S
C113 C114 1.405 1_455 S
C113 C146 1.587 . S
C114 C113 1.405 1_655 S
C114 C115 1.332 . S
C114 C117 1.496 . S
C115 C110 1.418 1_655 S
C115 C114 1.332 . S
C115 H173 0.929 . S
C116 C112 1.527 . S
C116 H174 0.959 . S
C116 H175 0.961 . S
C116 H176 0.961 . S
C117 C114 1.496 . S
C117 H177 0.960 . S
C117 H178 0.960 . S
C117 H179 0.961 . S
C118 C119 1.517 . S
C118 H181 0.961 . S
C118 H182 0.960 . S
C118 H183 0.959 . S
C119 C118 1.517 . S
C119 O167 1.468 . S
C119 H180 0.980 . S
C120 C121 1.349 . S
C120 C125 1.367 . S
C120 O167 1.408 . S
C121 C120 1.349 . S
C121 C122 1.407 . S
C121 H184 0.930 . S
C122 C121 1.407 . S
C122 C123 1.449 . S
C122 C126 1.535 1_455 S
C123 C122 1.449 . S
C123 C124 1.384 . S
C123 C148 1.553 . S
C124 C123 1.384 . S
C124 C125 1.364 . S
C124 C127 1.450 . S
C125 C120 1.367 . S
C125 C124 1.364 . S
C125 H185 0.931 . S
C126 C122 1.535 1_655 S
C126 H186 0.964 1_655 S
C126 H187 0.961 . S
C126 H188 0.959 . S
C127 C124 1.450 . S
C127 H189 0.960 . S
C127 H190 0.960 . S
C127 H191 0.960 . S
C128 C129 1.309 . S
C128 C133 1.304 . S
C128 O166 1.435 . S
C129 C128 1.309 . S
C129 C130 1.476 . S
C129 H193 0.930 . S
C130 C129 1.476 . S
C130 C131 1.400 . S
C130 C134 1.567 1_455 S
C131 C130 1.400 . S
C131 C132 1.373 . S
C131 C153 1.432 . S
C132 C131 1.373 . S
C132 C133 1.339 . S
C132 C135 1.530 . S
C133 C128 1.304 . S
C133 C132 1.339 . S
C133 H194 0.930 . S
C134 C130 1.567 1_655 S
C134 H195 0.961 . S
C134 H196 0.960 . S
C134 H197 0.958 . S
C135 C132 1.530 . S
C135 H198 0.961 . S
C135 H199 0.960 . S
C135 H200 0.960 . S
C136 C137 1.530 . S
C136 H202 0.961 . S
C136 H203 0.961 1_455 S
C136 H204 0.959 1_455 S
C137 C136 1.530 . S
C137 O165 1.412 . S
C137 H201 0.980 . S
C138 C139 1.288 1_455 S
C138 C143 1.377 . S
C138 O165 1.393 . S
C139 C138 1.288 1_655 S
C139 C140 1.369 1_655 S
C139 H205 0.932 . S
C140 C139 1.369 1_455 S
C140 C141 1.398 . S
C140 C144 1.527 1_455 S
C141 C140 1.398 . S
C141 C142 1.380 . S
C141 C155 1.497 . S
C142 C141 1.380 . S
C142 C143 1.383 . S
C142 C145 1.603 . S
C143 C138 1.377 . S
C143 C142 1.383 . S
C143 H206 0.929 . S
C144 C140 1.527 1_655 S
C144 H207 0.961 . S
C144 H208 0.959 . S
C144 H209 0.959 . S
C145 C142 1.603 . S
C145 H210 0.960 . S
C145 H211 0.962 . S
C145 H212 0.961 . S
C146 C113 1.587 . S
C146 C147 1.360 . S
C146 C159 1.412 . S
C147 C146 1.360 . S
C147 C148 1.365 . S
C147 H213 0.929 . S
C148 C123 1.553 . S
C148 C147 1.365 . S
C148 C149 1.404 . S
C149 C148 1.404 . S
C149 C150 1.395 . S
C149 C160 1.451 . S
C150 C149 1.395 . S
C150 C151 1.322 . S
C150 H214 0.930 . S
C151 C150 1.322 . S
C151 C152 1.459 . S
C151 H215 0.929 . S
C152 C151 1.459 . S
C152 C153 1.445 . S
C152 C161 1.395 . S
C153 C131 1.432 . S
C153 C152 1.445 . S
C153 C154 1.370 . S
C154 C153 1.370 . S
C154 C155 1.438 . S
C154 H216 0.930 . S
C155 C141 1.497 . S
C155 C154 1.438 . S
C155 C156 1.360 . S
C156 C155 1.360 . S
C156 C157 1.401 . S
C156 C161 1.446 . S
C157 C156 1.401 . S
C157 C158 1.347 . S
C157 H217 0.929 . S
C158 C157 1.347 . S
C158 C159 1.455 . S
C158 H218 0.930 . S
C159 C146 1.412 . S
C159 C158 1.455 . S
C159 C160 1.331 . S
C160 C149 1.451 . S
C160 C159 1.331 . S
C160 C161 1.497 . S
C161 C152 1.395 . S
C161 C156 1.446 . S
C161 C160 1.497 . S
C162 C163 1.582 . S
C162 H219 0.962 . S
C162 H220 0.959 . S
C162 H221 0.958 . S
C163 C162 1.582 . S
C163 O166 1.458 . S
C163 H192 0.980 . S
O164 C109 1.426 1_655 S
O164 C110 1.334 1_655 S
O165 C137 1.412 . S
O165 C138 1.393 . S
O166 C128 1.435 . S
O166 C163 1.458 . S
O167 C119 1.468 . S
O167 C120 1.408 . S
H168 C109 0.980 . S
H169 C108 0.959 . S
H170 C108 0.959 . S
H171 C108 0.960 . S
H172 C111 0.929 . S
H173 C115 0.929 . S
H174 C116 0.959 . S
H175 C116 0.961 . S
H176 C116 0.961 . S
H177 C117 0.960 . S
H178 C117 0.960 . S
H179 C117 0.961 . S
H180 C119 0.980 . S
H181 C118 0.961 . S
H182 C118 0.960 . S
H183 C118 0.959 . S
H184 C121 0.930 . S
H185 C125 0.931 . S
H186 C126 0.964 1_455 S
H187 C126 0.961 . S
H188 C126 0.959 . S
H189 C127 0.960 . S
H190 C127 0.960 . S
H191 C127 0.960 . S
H192 C163 0.980 . S
H193 C129 0.930 . S
H194 C133 0.930 . S
H195 C134 0.961 . S
H196 C134 0.960 . S
H197 C134 0.958 . S
H198 C135 0.961 . S
H199 C135 0.960 . S
H200 C135 0.960 . S
H201 C137 0.980 . S
H202 C136 0.961 . S
H203 C136 0.961 1_655 S
H204 C136 0.959 1_655 S
H205 C139 0.932 . S
H206 C143 0.929 . S
H207 C144 0.961 . S
H208 C144 0.959 . S
H209 C144 0.959 . S
H210 C145 0.960 . S
H211 C145 0.962 . S
H212 C145 0.961 . S
H213 C147 0.929 . S
H214 C150 0.930 . S
H215 C151 0.929 . S
H216 C154 0.930 . S
H217 C157 0.929 . S
H218 C158 0.930 . S
H219 C162 0.962 . S
H220 C162 0.959 . S
H221 C162 0.958 . S
C222 C223 1.560 . S
C222 H283 0.959 . S
C222 H284 0.959 . S
C222 H285 0.960 . S
C223 C222 1.560 . S
C223 O278 1.426 . S
C223 H282 0.980 . S
C224 C225 1.407 . S
C224 C229 1.418 . S
C224 O278 1.334 . S
C225 C224 1.407 . S
C225 C226 1.360 . S
C225 H286 0.929 . S
C226 C225 1.360 . S
C226 C227 1.401 . S
C226 C230 1.527 . S
C227 C226 1.401 . S
C227 C228 1.405 . S
C227 C260 1.587 . S
C228 C227 1.405 . S
C228 C229 1.332 . S
C228 C231 1.496 . S
C229 C224 1.418 . S
C229 C228 1.332 . S
C229 H287 0.929 . S
C230 C226 1.527 . S
C230 H288 0.959 . S
C230 H289 0.961 . S
C230 H290 0.961 . S
C231 C228 1.496 . S
C231 H291 0.960 . S
C231 H292 0.960 . S
C231 H293 0.961 . S
C232 C233 1.517 . S
C232 H295 0.961 . S
C232 H296 0.960 . S
C232 H297 0.959 . S
C233 C232 1.517 . S
C233 O281 1.468 . S
C233 H294 0.980 . S
C234 C235 1.349 . S
C234 C239 1.367 . S
C234 O281 1.408 . S
C235 C234 1.349 . S
C235 C236 1.407 . S
C235 H298 0.930 . S
C236 C235 1.407 . S
C236 C237 1.449 . S
C236 C240 1.535 . S
C237 C236 1.449 . S
C237 C238 1.384 . S
C237 C262 1.553 . S
C238 C237 1.384 . S
C238 C239 1.364 . S
C238 C241 1.450 . S
C239 C234 1.367 . S
C239 C238 1.364 . S
C239 H299 0.931 . S
C240 C236 1.535 . S
C240 H300 0.959 . S
C240 H301 0.961 . S
C240 H302 0.959 . S
C241 C238 1.450 . S
C241 H303 0.960 . S
C241 H304 0.960 . S
C241 H305 0.960 . S
C242 C243 1.309 . S
C242 C247 1.304 . S
C242 O280 1.435 . S
C243 C242 1.309 . S
C243 C244 1.476 . S
C243 H307 0.930 . S
C244 C243 1.476 . S
C244 C245 1.400 . S
C244 C248 1.567 . S
C245 C244 1.400 . S
C245 C246 1.373 . S
C245 C267 1.432 . S
C246 C245 1.373 . S
C246 C247 1.339 . S
C246 C249 1.530 . S
C247 C242 1.304 . S
C247 C246 1.339 . S
C247 H308 0.930 . S
C248 C244 1.567 . S
C248 H309 0.961 . S
C248 H310 0.960 . S
C248 H311 0.958 . S
C249 C246 1.530 . S
C249 H312 0.961 . S
C249 H313 0.960 . S
C249 H314 0.960 . S
C250 C251 1.530 . S
C250 H316 0.961 . S
C250 H317 0.961 . S
C250 H318 0.959 . S
C251 C250 1.530 . S
C251 O279 1.412 . S
C251 H315 0.980 . S
C252 C253 1.288 . S
C252 C257 1.377 . S
C252 O279 1.393 . S
C253 C252 1.288 . S
C253 C254 1.369 . S
C253 H319 0.932 . S
C254 C253 1.369 . S
C254 C255 1.398 . S
C254 C258 1.527 . S
C255 C254 1.398 . S
C255 C256 1.380 . S
C255 C269 1.497 . S
C256 C255 1.380 . S
C256 C257 1.383 . S
C256 C259 1.603 . S
C257 C252 1.377 . S
C257 C256 1.383 . S
C257 H320 0.929 . S
C258 C254 1.527 . S
C258 H321 0.961 . S
C258 H322 0.959 . S
C258 H323 0.959 . S
C259 C256 1.603 . S
C259 H324 0.960 . S
C259 H325 0.962 . S
C259 H326 0.961 . S
C260 C227 1.587 . S
C260 C261 1.360 . S
C260 C273 1.412 . S
C261 C260 1.360 . S
C261 C262 1.365 . S
C261 H327 0.929 . S
C262 C237 1.553 . S
C262 C261 1.365 . S
C262 C263 1.404 . S
C263 C262 1.404 . S
C263 C264 1.395 . S
C263 C274 1.451 . S
C264 C263 1.395 . S
C264 C265 1.322 . S
C264 H328 0.930 . S
C265 C264 1.322 . S
C265 C266 1.459 . S
C265 H329 0.929 . S
C266 C265 1.459 . S
C266 C267 1.445 . S
C266 C275 1.395 . S
C267 C245 1.432 . S
C267 C266 1.445 . S
C267 C268 1.370 . S
C268 C267 1.370 . S
C268 C269 1.438 . S
C268 H330 0.930 . S
C269 C255 1.497 . S
C269 C268 1.438 . S
C269 C270 1.360 . S
C270 C269 1.360 . S
C270 C271 1.401 . S
C270 C275 1.446 . S
C271 C270 1.401 . S
C271 C272 1.347 . S
C271 H331 0.929 . S
C272 C271 1.347 . S
C272 C273 1.455 . S
C272 H332 0.930 . S
C273 C260 1.412 . S
C273 C272 1.455 . S
C273 C274 1.331 . S
C274 C263 1.451 . S
C274 C273 1.331 . S
C274 C275 1.497 . S
C275 C266 1.395 . S
C275 C270 1.446 . S
C275 C274 1.497 . S
C276 C277 1.582 . S
C276 H333 0.962 . S
C276 H334 0.959 . S
C276 H335 0.958 . S
C277 C276 1.582 . S
C277 O280 1.458 . S
C277 H306 0.980 . S
O278 C223 1.426 . S
O278 C224 1.334 . S
O279 C251 1.412 . S
O279 C252 1.393 . S
O280 C242 1.435 . S
O280 C277 1.458 . S
O281 C233 1.468 . S
O281 C234 1.408 . S
H282 C223 0.980 . S
H283 C222 0.959 . S
H284 C222 0.959 . S
H285 C222 0.960 . S
H286 C225 0.929 . S
H287 C229 0.929 . S
H288 C230 0.959 . S
H289 C230 0.961 . S
H290 C230 0.961 . S
H291 C231 0.960 . S
H292 C231 0.960 . S
H293 C231 0.961 . S
H294 C233 0.980 . S
H295 C232 0.961 . S
H296 C232 0.960 . S
H297 C232 0.959 . S
H298 C235 0.930 . S
H299 C239 0.931 . S
H300 C240 0.959 . S
H301 C240 0.961 . S
H302 C240 0.959 . S
H303 C241 0.960 . S
H304 C241 0.960 . S
H305 C241 0.960 . S
H306 C277 0.980 . S
H307 C243 0.930 . S
H308 C247 0.930 . S
H309 C248 0.961 . S
H310 C248 0.960 . S
H311 C248 0.958 . S
H312 C249 0.961 . S
H313 C249 0.960 . S
H314 C249 0.960 . S
H315 C251 0.980 . S
H316 C250 0.961 . S
H317 C250 0.961 . S
H318 C250 0.959 . S
H319 C253 0.932 . S
H320 C257 0.929 . S
H321 C258 0.961 . S
H322 C258 0.959 . S
H323 C258 0.959 . S
H324 C259 0.960 . S
H325 C259 0.962 . S
H326 C259 0.961 . S
H327 C261 0.929 . S
H328 C264 0.930 . S
H329 C265 0.929 . S
H330 C268 0.930 . S
H331 C271 0.929 . S
H332 C272 0.930 . S
H333 C276 0.962 . S
H334 C276 0.959 . S
H335 C276 0.958 . S
C336 C337 1.560 . S
C336 H397 0.959 . S
C336 H398 0.959 . S
C336 H399 0.960 . S
C337 C336 1.560 . S
C337 O392 1.426 . S
C337 H396 0.980 . S
C338 C339 1.407 . S
C338 C343 1.418 . S
C338 O392 1.334 . S
C339 C338 1.407 . S
C339 C340 1.360 . S
C339 H400 0.929 . S
C340 C339 1.360 . S
C340 C341 1.401 . S
C340 C344 1.527 . S
C341 C340 1.401 . S
C341 C342 1.405 . S
C341 C374 1.587 . S
C342 C341 1.405 . S
C342 C343 1.332 . S
C342 C345 1.496 . S
C343 C338 1.418 . S
C343 C342 1.332 . S
C343 H401 0.929 . S
C344 C340 1.527 . S
C344 H402 0.959 . S
C344 H403 0.961 . S
C344 H404 0.961 . S
C345 C342 1.496 . S
C345 H405 0.960 . S
C345 H406 0.960 . S
C345 H407 0.961 . S
C346 C347 1.517 . S
C346 H409 0.961 . S
C346 H410 0.960 . S
C346 H411 0.959 . S
C347 C346 1.517 . S
C347 O395 1.468 . S
C347 H408 0.980 . S
C348 C349 1.349 . S
C348 C353 1.367 . S
C348 O395 1.408 . S
C349 C348 1.349 . S
C349 C350 1.407 . S
C349 H412 0.930 . S
C350 C349 1.407 . S
C350 C351 1.449 . S
C350 C354 1.535 . S
C351 C350 1.449 . S
C351 C352 1.384 . S
C351 C376 1.553 . S
C352 C351 1.384 . S
C352 C353 1.364 . S
C352 C355 1.450 . S
C353 C348 1.367 . S
C353 C352 1.364 . S
C353 H413 0.931 . S
C354 C350 1.535 . S
C354 H414 0.959 . S
C354 H415 0.961 . S
C354 H416 0.959 . S
C355 C352 1.450 . S
C355 H417 0.960 . S
C355 H418 0.960 . S
C355 H419 0.960 . S
C356 C357 1.309 . S
C356 C361 1.304 . S
C356 O394 1.435 . S
C357 C356 1.309 . S
C357 C358 1.476 . S
C357 H421 0.930 . S
C358 C357 1.476 . S
C358 C359 1.400 . S
C358 C362 1.567 . S
C359 C358 1.400 . S
C359 C360 1.373 . S
C359 C381 1.432 . S
C360 C359 1.373 . S
C360 C361 1.339 . S
C360 C363 1.530 . S
C361 C356 1.304 . S
C361 C360 1.339 . S
C361 H422 0.930 . S
C362 C358 1.567 . S
C362 H423 0.961 . S
C362 H424 0.960 . S
C362 H425 0.958 . S
C363 C360 1.530 . S
C363 H426 0.961 . S
C363 H427 0.960 . S
C363 H428 0.960 . S
C364 C365 1.530 . S
C364 H430 0.961 . S
C364 H431 0.961 . S
C364 H432 0.959 . S
C365 C364 1.530 . S
C365 O393 1.412 . S
C365 H429 0.980 . S
C366 C367 1.288 . S
C366 C371 1.377 . S
C366 O393 1.393 . S
C367 C366 1.288 . S
C367 C368 1.369 . S
C367 H433 0.932 . S
C368 C367 1.369 . S
C368 C369 1.398 . S
C368 C372 1.527 . S
C369 C368 1.398 . S
C369 C370 1.380 . S
C369 C383 1.497 . S
C370 C369 1.380 . S
C370 C371 1.383 . S
C370 C373 1.603 . S
C371 C366 1.377 . S
C371 C370 1.383 . S
C371 H434 0.929 . S
C372 C368 1.527 . S
C372 H435 0.961 . S
C372 H436 0.959 . S
C372 H437 0.959 . S
C373 C370 1.603 . S
C373 H438 0.960 . S
C373 H439 0.962 . S
C373 H440 0.961 . S
C374 C341 1.587 . S
C374 C375 1.360 . S
C374 C387 1.412 . S
C375 C374 1.360 . S
C375 C376 1.365 . S
C375 H441 0.929 . S
C376 C351 1.553 . S
C376 C375 1.365 . S
C376 C377 1.404 . S
C377 C376 1.404 . S
C377 C378 1.395 . S
C377 C388 1.451 . S
C378 C377 1.395 . S
C378 C379 1.322 . S
C378 H442 0.930 . S
C379 C378 1.322 . S
C379 C380 1.459 . S
C379 H443 0.929 . S
C380 C379 1.459 . S
C380 C381 1.445 . S
C380 C389 1.395 . S
C381 C359 1.432 . S
C381 C380 1.445 . S
C381 C382 1.370 . S
C382 C381 1.370 . S
C382 C383 1.438 . S
C382 H444 0.930 . S
C383 C369 1.497 . S
C383 C382 1.438 . S
C383 C384 1.360 . S
C384 C383 1.360 . S
C384 C385 1.401 . S
C384 C389 1.446 . S
C385 C384 1.401 . S
C385 C386 1.347 . S
C385 H445 0.929 . S
C386 C385 1.347 . S
C386 C387 1.455 . S
C386 H446 0.930 . S
C387 C374 1.412 . S
C387 C386 1.455 . S
C387 C388 1.331 . S
C388 C377 1.451 . S
C388 C387 1.331 . S
C388 C389 1.497 . S
C389 C380 1.395 . S
C389 C384 1.446 . S
C389 C388 1.497 . S
C390 C391 1.582 . S
C390 H447 0.962 . S
C390 H448 0.959 . S
C390 H449 0.958 . S
C391 C390 1.582 . S
C391 O394 1.458 . S
C391 H420 0.980 . S
O392 C337 1.426 . S
O392 C338 1.334 . S
O393 C365 1.412 . S
O393 C366 1.393 . S
O394 C356 1.435 . S
O394 C391 1.458 . S
O395 C347 1.468 . S
O395 C348 1.408 . S
H396 C337 0.980 . S
H397 C336 0.959 . S
H398 C336 0.959 . S
H399 C336 0.960 . S
H400 C339 0.929 . S
H401 C343 0.929 . S
H402 C344 0.959 . S
H403 C344 0.961 . S
H404 C344 0.961 . S
H405 C345 0.960 . S
H406 C345 0.960 . S
H407 C345 0.961 . S
H408 C347 0.980 . S
H409 C346 0.961 . S
H410 C346 0.960 . S
H411 C346 0.959 . S
H412 C349 0.930 . S
H413 C353 0.931 . S
H414 C354 0.959 . S
H415 C354 0.961 . S
H416 C354 0.959 . S
H417 C355 0.960 . S
H418 C355 0.960 . S
H419 C355 0.960 . S
H420 C391 0.980 . S
H421 C357 0.930 . S
H422 C361 0.930 . S
H423 C362 0.961 . S
H424 C362 0.960 . S
H425 C362 0.958 . S
H426 C363 0.961 . S
H427 C363 0.960 . S
H428 C363 0.960 . S
H429 C365 0.980 . S
H430 C364 0.961 . S
H431 C364 0.961 . S
H432 C364 0.959 . S
H433 C367 0.932 . S
H434 C371 0.929 . S
H435 C372 0.961 . S
H436 C372 0.959 . S
H437 C372 0.959 . S
H438 C373 0.960 . S
H439 C373 0.962 . S
H440 C373 0.961 . S
H441 C375 0.929 . S
H442 C378 0.930 . S
H443 C379 0.929 . S
H444 C382 0.930 . S
H445 C385 0.929 . S
H446 C386 0.930 . S
H447 C390 0.962 . S
H448 C390 0.959 . S
H449 C390 0.958 . S
C450 C451 1.349 . S
C450 C452 1.327 . S
C450 H475 0.950 . S
C451 C450 1.349 . S
C451 C467 1.349 . S
C452 C450 1.327 . S
C452 C471 1.429 . S
C452 H476 0.950 . S
C453 C470 1.574 . S
C453 C472 1.368 . S
C453 H477 0.949 . S
H454 C458 0.949 . S
C455 C456 1.349 . S
C455 C457 1.327 . S
C455 H478 0.950 . S
C456 C455 1.349 . S
C456 C468 1.349 . S
C457 C455 1.327 . S
C457 C473 1.429 . S
C457 H479 0.950 . S
C458 H454 0.949 . S
C458 C466 1.574 . S
C458 C474 1.368 . S
H459 C467 0.950 . S
H460 C465 0.950 . S
H461 C466 0.949 . S
H462 C468 0.950 . S
H463 C469 0.950 . S
H464 C470 0.949 . S
C465 H460 0.950 . S
C465 C467 1.327 . S
C465 C471 1.429 . S
C466 C458 1.574 . S
C466 H461 0.949 . S
C466 C472 1.368 . S
C467 C451 1.349 . S
C467 H459 0.950 . S
C467 C465 1.327 . S
C468 C456 1.349 . S
C468 H462 0.950 . S
C468 C469 1.327 . S
C469 H463 0.950 . S
C469 C468 1.327 . S
C469 C473 1.429 . S
C470 C453 1.574 . S
C470 H464 0.949 . S
C470 C474 1.368 . S
C471 C452 1.429 . S
C471 C465 1.429 . S
C471 C472 1.523 . S
C472 C453 1.368 . S
C472 C466 1.368 . S
C472 C471 1.523 . S
C473 C457 1.429 . S
C473 C469 1.429 . S
C473 C474 1.523 . S
C474 C458 1.368 . S
C474 C470 1.368 . S
C474 C473 1.523 . S
H475 C450 0.950 . S
H476 C452 0.950 . S
H477 C453 0.949 . S
H478 C455 0.950 . S
H479 C457 0.950 . S
C480 C481 1.349 . S
C480 C482 1.327 . S
C480 H505 0.950 . S
C481 C480 1.349 . S
C481 C497 1.349 . S
C482 C480 1.327 . S
C482 C501 1.429 . S
C482 H506 0.950 . S
C483 C500 1.574 . S
C483 C502 1.368 . S
C483 H507 0.949 . S
H484 C488 0.949 . S
C485 C486 1.349 . S
C485 C487 1.327 . S
C485 H508 0.950 . S
C486 C485 1.349 . S
C486 C498 1.349 . S
C487 C485 1.327 . S
C487 C503 1.429 . S
C487 H509 0.950 . S
C488 H484 0.949 . S
C488 C496 1.574 . S
C488 C504 1.368 . S
H489 C497 0.950 . S
H490 C495 0.950 . S
H491 C496 0.949 . S
H492 C498 0.950 . S
H493 C499 0.950 . S
H494 C500 0.949 . S
C495 H490 0.950 . S
C495 C497 1.327 . S
C495 C501 1.429 . S
C496 C488 1.574 . S
C496 H491 0.949 . S
C496 C502 1.368 . S
C497 C481 1.349 . S
C497 H489 0.950 . S
C497 C495 1.327 . S
C498 C486 1.349 . S
C498 H492 0.950 . S
C498 C499 1.327 . S
C499 H493 0.950 . S
C499 C498 1.327 . S
C499 C503 1.429 . S
C500 C483 1.574 . S
C500 H494 0.949 . S
C500 C504 1.368 . S
C501 C482 1.429 . S
C501 C495 1.429 . S
C501 C502 1.523 . S
C502 C483 1.368 . S
C502 C496 1.368 . S
C502 C501 1.523 . S
C503 C487 1.429 . S
C503 C499 1.429 . S
C503 C504 1.523 . S
C504 C488 1.368 . S
C504 C500 1.368 . S
C504 C503 1.523 . S
H505 C480 0.950 . S
H506 C482 0.950 . S
H507 C483 0.949 . S
H508 C485 0.950 . S
H509 C487 0.950 . S
C510 C511 1.349 . S
C510 C512 1.327 1_545 S
C510 H535 0.950 . S
C511 C510 1.349 . S
C511 C527 1.349 1_545 S
C512 C510 1.327 1_565 S
C512 C531 1.429 . S
C512 H536 0.950 1_565 S
C513 C530 1.574 . S
C513 C532 1.368 . S
C513 H537 0.949 . S
H514 C518 0.949 . S
C515 C516 1.349 . S
C515 C517 1.327 . S
C515 H538 0.950 . S
C516 C515 1.349 . S
C516 C528 1.349 . S
C517 C515 1.327 . S
C517 C533 1.429 . S
C517 H539 0.950 . S
C518 H514 0.949 . S
C518 C526 1.574 . S
C518 C534 1.368 . S
H519 C527 0.950 . S
H520 C525 0.950 . S
H521 C526 0.949 . S
H522 C528 0.950 . S
H523 C529 0.950 . S
H524 C530 0.949 . S
C525 H520 0.950 . S
C525 C527 1.327 . S
C525 C531 1.429 . S
C526 C518 1.574 . S
C526 H521 0.949 . S
C526 C532 1.368 . S
C527 C511 1.349 1_565 S
C527 H519 0.950 . S
C527 C525 1.327 . S
C528 C516 1.349 . S
C528 H522 0.950 . S
C528 C529 1.327 . S
C529 H523 0.950 . S
C529 C528 1.327 . S
C529 C533 1.429 . S
C530 C513 1.574 . S
C530 H524 0.949 . S
C530 C534 1.368 . S
C531 C512 1.429 . S
C531 C525 1.429 . S
C531 C532 1.523 . S
C532 C513 1.368 . S
C532 C526 1.368 . S
C532 C531 1.523 . S
C533 C517 1.429 . S
C533 C529 1.429 . S
C533 C534 1.523 . S
C534 C518 1.368 . S
C534 C530 1.368 . S
C534 C533 1.523 . S
H535 C510 0.950 . S
H536 C512 0.950 1_545 S
H537 C513 0.949 . S
H538 C515 0.950 . S
H539 C517 0.950 . S
C540 C541 1.349 . S
C540 C542 1.327 1_545 S
C540 H565 0.950 . S
C541 C540 1.349 . S
C541 C557 1.349 1_545 S
C542 C540 1.327 1_565 S
C542 C561 1.429 . S
C542 H566 0.950 1_565 S
C543 C560 1.574 . S
C543 C562 1.368 . S
C543 H567 0.949 . S
H544 C548 0.949 . S
C545 C546 1.349 . S
C545 C547 1.327 . S
C545 H568 0.950 . S
C546 C545 1.349 . S
C546 C558 1.349 . S
C547 C545 1.327 . S
C547 C563 1.429 . S
C547 H569 0.950 . S
C548 H544 0.949 . S
C548 C556 1.574 . S
C548 C564 1.368 . S
H549 C557 0.950 . S
H550 C555 0.950 . S
H551 C556 0.949 . S
H552 C558 0.950 . S
H553 C559 0.950 . S
H554 C560 0.949 . S
C555 H550 0.950 . S
C555 C557 1.327 . S
C555 C561 1.429 . S
C556 C548 1.574 . S
C556 H551 0.949 . S
C556 C562 1.368 . S
C557 C541 1.349 1_565 S
C557 H549 0.950 . S
C557 C555 1.327 . S
C558 C546 1.349 . S
C558 H552 0.950 . S
C558 C559 1.327 . S
C559 H553 0.950 . S
C559 C558 1.327 . S
C559 C563 1.429 . S
C560 C543 1.574 . S
C560 H554 0.949 . S
C560 C564 1.368 . S
C561 C542 1.429 . S
C561 C555 1.429 . S
C561 C562 1.523 . S
C562 C543 1.368 . S
C562 C556 1.368 . S
C562 C561 1.523 . S
C563 C547 1.429 . S
C563 C559 1.429 . S
C563 C564 1.523 . S
C564 C548 1.368 . S
C564 C560 1.368 . S
C564 C563 1.523 . S
H565 C540 0.950 . S
H566 C542 0.950 1_545 S
H567 C543 0.949 . S
H568 C545 0.950 . S
H569 C547 0.950 . S
C570 C571 1.349 . S
C570 C572 1.327 . S
C570 H595 0.950 . S
C571 C570 1.349 . S
C571 C587 1.349 . S
C572 C570 1.327 . S
C572 C591 1.429 . S
C572 H596 0.950 . S
C573 C590 1.574 . S
C573 C592 1.368 . S
C573 H597 0.949 . S
H574 C578 0.949 . S
C575 C576 1.349 . S
C575 C577 1.327 . S
C575 H598 0.950 . S
C576 C575 1.349 . S
C576 C588 1.349 . S
C577 C575 1.327 . S
C577 C593 1.429 . S
C577 H599 0.950 . S
C578 H574 0.949 . S
C578 C586 1.574 . S
C578 C594 1.368 . S
H579 C587 0.950 . S
H580 C585 0.950 . S
H581 C586 0.949 . S
H582 C588 0.950 . S
H583 C589 0.950 . S
H584 C590 0.949 . S
C585 H580 0.950 . S
C585 C587 1.327 . S
C585 C591 1.429 . S
C586 C578 1.574 . S
C586 H581 0.949 . S
C586 C592 1.368 . S
C587 C571 1.349 . S
C587 H579 0.950 . S
C587 C585 1.327 . S
C588 C576 1.349 . S
C588 H582 0.950 . S
C588 C589 1.327 . S
C589 H583 0.950 . S
C589 C588 1.327 . S
C589 C593 1.429 . S
C590 C573 1.574 . S
C590 H584 0.949 . S
C590 C594 1.368 . S
C591 C572 1.429 . S
C591 C585 1.429 . S
C591 C592 1.523 . S
C592 C573 1.368 . S
C592 C586 1.368 . S
C592 C591 1.523 . S
C593 C577 1.429 . S
C593 C589 1.429 . S
C593 C594 1.523 . S
C594 C578 1.368 . S
C594 C590 1.368 . S
C594 C593 1.523 . S
H595 C570 0.950 . S
H596 C572 0.950 . S
H597 C573 0.949 . S
H598 C575 0.950 . S
H599 C577 0.950 . S
C600 C601 1.349 . S
C600 C602 1.327 . S
C600 H625 0.950 . S
C601 C600 1.349 . S
C601 C617 1.349 . S
C602 C600 1.327 . S
C602 C621 1.429 . S
C602 H626 0.950 . S
C603 C620 1.574 . S
C603 C622 1.368 . S
C603 H627 0.949 . S
H604 C608 0.949 . S
C605 C606 1.349 . S
C605 C607 1.327 . S
C605 H628 0.950 . S
C606 C605 1.349 . S
C606 C618 1.349 . S
C607 C605 1.327 . S
C607 C623 1.429 . S
C607 H629 0.950 . S
C608 H604 0.949 . S
C608 C616 1.574 . S
C608 C624 1.368 . S
H609 C617 0.950 . S
H610 C615 0.950 . S
H611 C616 0.949 . S
H612 C618 0.950 . S
H613 C619 0.950 . S
H614 C620 0.949 . S
C615 H610 0.950 . S
C615 C617 1.327 . S
C615 C621 1.429 . S
C616 C608 1.574 . S
C616 H611 0.949 . S
C616 C622 1.368 . S
C617 C601 1.349 . S
C617 H609 0.950 . S
C617 C615 1.327 . S
C618 C606 1.349 . S
C618 H612 0.950 . S
C618 C619 1.327 . S
C619 H613 0.950 . S
C619 C618 1.327 . S
C619 C623 1.429 . S
C620 C603 1.574 . S
C620 H614 0.949 . S
C620 C624 1.368 . S
C621 C602 1.429 . S
C621 C615 1.429 . S
C621 C622 1.523 . S
C622 C603 1.368 . S
C622 C616 1.368 . S
C622 C621 1.523 . S
C623 C607 1.429 . S
C623 C619 1.429 . S
C623 C624 1.523 . S
C624 C608 1.368 . S
C624 C620 1.368 . S
C624 C623 1.523 . S
H625 C600 0.950 . S
H626 C602 0.950 . S
H627 C603 0.949 . S
H628 C605 0.950 . S
H629 C607 0.950 . S
C630 C631 1.349 . S
C630 C632 1.327 . S
C630 H655 0.950 1_655 S
C631 C630 1.349 . S
C631 C647 1.349 . S
C632 C630 1.327 . S
C632 C651 1.429 . S
C632 H656 0.950 . S
C633 C650 1.574 . S
C633 C652 1.368 . S
C633 H657 0.949 . S
H634 C638 0.949 . S
C635 C636 1.349 . S
C635 C637 1.327 . S
C635 H658 0.950 . S
C636 C635 1.349 . S
C636 C648 1.349 . S
C637 C635 1.327 . S
C637 C653 1.429 . S
C637 H659 0.950 . S
C638 H634 0.949 . S
C638 C646 1.574 . S
C638 C654 1.368 . S
H639 C647 0.950 . S
H640 C645 0.950 . S
H641 C646 0.949 . S
H642 C648 0.950 . S
H643 C649 0.950 . S
H644 C650 0.949 . S
C645 H640 0.950 . S
C645 C647 1.327 . S
C645 C651 1.429 . S
C646 C638 1.574 . S
C646 H641 0.949 . S
C646 C652 1.368 . S
C647 C631 1.349 . S
C647 H639 0.950 . S
C647 C645 1.327 . S
C648 C636 1.349 . S
C648 H642 0.950 . S
C648 C649 1.327 . S
C649 H643 0.950 . S
C649 C648 1.327 . S
C649 C653 1.429 . S
C650 C633 1.574 . S
C650 H644 0.949 . S
C650 C654 1.368 . S
C651 C632 1.429 . S
C651 C645 1.429 . S
C651 C652 1.523 . S
C652 C633 1.368 . S
C652 C646 1.368 . S
C652 C651 1.523 . S
C653 C637 1.429 . S
C653 C649 1.429 . S
C653 C654 1.523 . S
C654 C638 1.368 . S
C654 C650 1.368 . S
C654 C653 1.523 . S
H655 C630 0.950 1_455 S
H656 C632 0.950 . S
H657 C633 0.949 . S
H658 C635 0.950 . S
H659 C637 0.950 . S
C660 C661 1.349 1_565 S
C660 C662 1.327 . S
C660 H685 0.950 . S
C661 C660 1.349 1_545 S
C661 C677 1.349 . S
C662 C660 1.327 . S
C662 C681 1.429 . S
C662 H686 0.950 . S
C663 C680 1.623 . S
C663 C682 1.368 . S
C663 H687 0.949 . S
H664 C668 0.949 . S
C665 C666 1.349 . S
C665 C667 1.327 . S
C665 H688 0.950 . S
C666 C665 1.349 . S
C666 C678 1.349 . S
C667 C665 1.327 . S
C667 C683 1.429 . S
C667 H689 0.950 . S
C668 H664 0.949 . S
C668 C676 1.574 . S
C668 C684 1.368 . S
H669 C677 0.950 . S
H670 C675 0.950 . S
H671 C676 0.949 . S
H672 C678 0.950 . S
H673 C679 0.950 . S
H674 C680 0.869 1_556 S
C675 H670 0.950 . S
C675 C677 1.327 . S
C675 C681 1.429 1_545 S
C676 C668 1.574 . S
C676 H671 0.949 . S
C676 C682 1.368 . S
C677 C661 1.349 . S
C677 H669 0.950 . S
C677 C675 1.327 . S
C678 C666 1.349 . S
C678 H672 0.950 . S
C678 C679 1.327 1_556 S
C679 H673 0.950 . S
C679 C678 1.327 1_554 S
C679 C683 1.429 1_554 S
C680 C663 1.623 . S
C680 H674 0.869 1_554 S
C680 C684 1.410 . S
C681 C662 1.429 . S
C681 C675 1.429 1_565 S
C681 C682 1.523 . S
C682 C663 1.368 . S
C682 C676 1.368 . S
C682 C681 1.523 . S
C683 C667 1.429 . S
C683 C679 1.429 1_556 S
C683 C684 1.523 1_556 S
C684 C668 1.368 . S
C684 C680 1.410 . S
C684 C683 1.523 1_554 S
H685 C660 0.950 . S
H686 C662 0.950 . S
H687 C663 0.949 . S
H688 C665 0.950 . S
H689 C667 0.950 . S
C690 C691 1.351 . S
C690 C692 1.327 1_545 S
C690 H715 0.950 . S
C691 C690 1.351 . S
C691 C707 1.338 1_545 S
C692 C690 1.327 1_565 S
C692 C711 1.429 . S
C692 H716 0.950 . S
C693 C710 1.574 . S
C693 C712 1.368 . S
C693 H717 0.949 . S
H694 C698 0.949 . S
C695 C696 1.349 . S
C695 C697 1.327 . S
C695 H718 0.950 . S
C696 C695 1.349 . S
C696 C708 1.349 . S
C697 C695 1.327 . S
C697 C713 1.429 . S
C697 H719 0.950 . S
C698 H694 0.949 . S
C698 C706 1.574 . S
C698 C714 1.368 . S
H699 C707 0.950 . S
H700 C705 0.950 . S
H701 C706 0.949 . S
H702 C708 0.950 . S
H703 C709 0.950 . S
H704 C710 0.949 . S
C705 H700 0.950 . S
C705 C707 1.327 . S
C705 C711 1.429 . S
C706 C698 1.574 . S
C706 H701 0.949 . S
C706 C712 1.368 . S
C707 C691 1.338 1_565 S
C707 H699 0.950 . S
C707 C705 1.327 . S
C708 C696 1.349 . S
C708 H702 0.950 . S
C708 C709 1.327 . S
C709 H703 0.950 . S
C709 C708 1.327 . S
C709 C713 1.429 . S
C710 C693 1.574 . S
C710 H704 0.949 . S
C710 C714 1.368 . S
C711 C692 1.429 . S
C711 C705 1.429 . S
C711 C712 1.523 . S
C712 C693 1.368 . S
C712 C706 1.368 . S
C712 C711 1.523 . S
C713 C697 1.429 . S
C713 C709 1.429 . S
C713 C714 1.523 . S
C714 C698 1.368 . S
C714 C710 1.368 . S
C714 C713 1.523 . S
H715 C690 0.950 . S
H716 C692 0.950 . S
H717 C693 0.949 . S
H718 C695 0.950 . S
H719 C697 0.950 . S
C720 C721 1.349 . S
C720 C722 1.327 . S
C720 H745 0.950 . S
C721 C720 1.349 . S
C721 C737 1.349 . S
C722 C720 1.327 . S
C722 C741 1.429 . S
C722 H746 0.950 . S
C723 C740 1.574 . S
C723 C742 1.368 . S
C723 H747 0.949 . S
H724 C728 0.949 . S
C725 C726 1.349 . S
C725 C727 1.327 . S
C725 H748 0.950 . S
C726 C725 1.349 . S
C726 C738 1.349 . S
C727 C725 1.327 . S
C727 C743 1.429 . S
C727 H749 0.950 . S
C728 H724 0.949 . S
C728 C736 1.574 . S
C728 C744 1.368 . S
H729 C737 0.950 . S
H730 C735 0.950 . S
H731 C736 0.949 . S
H732 C738 0.950 . S
H733 C739 0.950 . S
H734 C740 0.949 . S
C735 H730 0.950 . S
C735 C737 1.327 . S
C735 C741 1.429 . S
C736 C728 1.574 . S
C736 H731 0.949 . S
C736 C742 1.368 . S
C737 C721 1.349 . S
C737 H729 0.950 . S
C737 C735 1.327 . S
C738 C726 1.349 . S
C738 H732 0.950 . S
C738 C739 1.327 . S
C739 H733 0.950 . S
C739 C738 1.327 . S
C739 C743 1.429 . S
C740 C723 1.574 . S
C740 H734 0.949 . S
C740 C744 1.368 . S
C741 C722 1.429 . S
C741 C735 1.429 . S
C741 C742 1.523 . S
C742 C723 1.368 . S
C742 C736 1.368 . S
C742 C741 1.523 . S
C743 C727 1.429 . S
C743 C739 1.429 . S
C743 C744 1.523 . S
C744 C728 1.368 . S
C744 C740 1.368 . S
C744 C743 1.523 . S
H745 C720 0.950 . S
H746 C722 0.950 . S
H747 C723 0.949 . S
H748 C725 0.950 . S
H749 C727 0.950 . S
C750 C751 1.349 . S
C750 C752 1.327 . S
C750 H775 0.950 . S
C751 C750 1.349 . S
C751 C767 1.349 . S
C752 C750 1.327 . S
C752 C771 1.429 . S
C752 H776 0.950 . S
C753 C770 1.574 1_554 S
C753 C772 1.368 . S
C753 H777 0.949 . S
H754 C758 0.949 . S
C755 C756 1.349 . S
C755 C757 1.327 . S
C755 H778 0.950 . S
C756 C755 1.349 . S
C756 C768 1.349 . S
C757 C755 1.327 . S
C757 C773 1.429 . S
C757 H779 0.950 . S
C758 H754 0.949 . S
C758 C766 1.574 . S
C758 C774 1.368 . S
H759 C767 0.950 . S
H760 C765 0.950 . S
H761 C766 0.949 . S
H762 C768 0.950 . S
H763 C769 0.950 1_554 S
H764 C770 0.949 . S
C765 H760 0.950 . S
C765 C767 1.327 . S
C765 C771 1.429 . S
C766 C758 1.574 . S
C766 H761 0.949 . S
C766 C772 1.368 . S
C767 C751 1.349 . S
C767 H759 0.950 . S
C767 C765 1.327 . S
C768 C756 1.349 . S
C768 H762 0.950 . S
C768 C769 1.327 . S
C769 H763 0.950 1_556 S
C769 C768 1.327 . S
C769 C773 1.429 . S
C770 C753 1.574 1_556 S
C770 H764 0.949 . S
C770 C774 1.368 1_556 S
C771 C752 1.429 . S
C771 C765 1.429 . S
C771 C772 1.523 . S
C772 C753 1.368 . S
C772 C766 1.368 . S
C772 C771 1.523 . S
C773 C757 1.429 . S
C773 C769 1.429 . S
C773 C774 1.523 1_556 S
C774 C758 1.368 . S
C774 C770 1.368 1_554 S
C774 C773 1.523 1_554 S
H775 C750 0.950 . S
H776 C752 0.950 . S
H777 C753 0.949 . S
H778 C755 0.950 . S
H779 C757 0.950 . S
C780 C781 1.349 . S
C780 C782 1.327 . S
C780 H805 0.950 . S
C781 C780 1.349 . S
C781 C797 1.349 . S
C782 C780 1.327 . S
C782 C801 1.429 . S
C782 H806 0.950 . S
C783 C800 1.574 . S
C783 C802 1.368 . S
C783 H807 0.949 1_455 S
H784 C788 0.949 . S
C785 C786 1.349 . S
C785 C787 1.327 . S
C785 H808 0.950 1_455 S
C786 C785 1.349 . S
C786 C798 1.349 . S
C787 C785 1.327 . S
C787 C803 1.429 . S
C787 H809 0.950 1_455 S
C788 H784 0.949 . S
C788 C796 1.574 . S
C788 C804 1.368 . S
H789 C797 0.950 1_655 S
H790 C795 0.950 1_655 S
H791 C796 0.949 . S
H792 C798 0.950 . S
H793 C799 0.950 . S
H794 C800 0.949 1_655 S
C795 H790 0.950 1_455 S
C795 C797 1.327 . S
C795 C801 1.429 . S
C796 C788 1.574 . S
C796 H791 0.949 . S
C796 C802 1.368 . S
C797 C781 1.349 . S
C797 H789 0.950 1_455 S
C797 C795 1.327 . S
C798 C786 1.349 . S
C798 H792 0.950 . S
C798 C799 1.327 . S
C799 H793 0.950 . S
C799 C798 1.327 . S
C799 C803 1.429 . S
C800 C783 1.574 . S
C800 H794 0.949 1_455 S
C800 C804 1.368 . S
C801 C782 1.429 . S
C801 C795 1.429 . S
C801 C802 1.523 . S
C802 C783 1.368 . S
C802 C796 1.368 . S
C802 C801 1.523 . S
C803 C787 1.429 . S
C803 C799 1.429 . S
C803 C804 1.523 . S
C804 C788 1.368 . S
C804 C800 1.368 . S
C804 C803 1.523 . S
H805 C780 0.950 . S
H806 C782 0.950 . S
H807 C783 0.949 1_655 S
H808 C785 0.950 1_655 S
H809 C787 0.950 1_655 S
C456 C163 1.155 . S
C451 C14 1.526 . S
C481 C40 1.560 . S
C486 C277 1.194 . S
C511 C76 1.279 . S
C516 C337 1.010 . S
C541 C3 1.352 . S
C546 C137 1.093 . S
C576 C251 1.126 . S
C571 C38 1.413 . S
C601 C74 1.465 . S
C606 C347 0.915 . S
C636 C233 0.911 . S
C631 C86 1.420 . S
C661 C2 1.379 1_655 S
C666 C365 1.108 . S
C696 C109 1.004 . S
C691 C39 1.272 . S
C726 C223 0.995 . S
C721 C75 1.278 . S
C756 C391 1.165 . S
C751 C4 1.535 . S
C781 C50 1.441 . S
C786 C119 0.893 . S
