# Generated by pormake.
# Topology cml, (3,6)-cn, num edge types: 1
# Building blocks:
#     Node 0, Type 0, BuildingBlock: MIDCAF_clean_linker_0, # of connection points: 3
#     Node 1, Type 0, BuildingBlock: MIDCAF_clean_linker_0, # of connection points: 3
#     Node 2, Type 0, BuildingBlock: MIDCAF_clean_linker_0, # of connection points: 3
#     Node 3, Type 0, BuildingBlock: MIDCAF_clean_linker_0, # of connection points: 3
#     Node 4, Type 0, BuildingBlock: MIDCAF_clean_linker_0, # of connection points: 3
#     Node 5, Type 0, BuildingBlock: MIDCAF_clean_linker_0, # of connection points: 3
#     Node 6, Type 0, BuildingBlock: MIDCAF_clean_linker_0, # of connection points: 3
#     Node 7, Type 0, BuildingBlock: MIDCAF_clean_linker_0, # of connection points: 3
#     Node 8, Type 1, BuildingBlock: OJICUG_clean_sbu_0, # of connection points: 6
#     Node 9, Type 1, BuildingBlock: OJICUG_clean_sbu_0, # of connection points: 6
#     Node 10, Type 1, BuildingBlock: OJICUG_clean_sbu_0, # of connection points: 6
#     Node 11, Type 1, BuildingBlock: OJICUG_clean_sbu_0, # of connection points: 6
#     Edge 12, Type (0, 1), None
#     Edge 13, Type (0, 1), None
#     Edge 14, Type (0, 1), None
#     Edge 15, Type (0, 1), None
#     Edge 16, Type (0, 1), None
#     Edge 17, Type (0, 1), None
#     Edge 18, Type (0, 1), None
#     Edge 19, Type (0, 1), None
#     Edge 20, Type (0, 1), None
#     Edge 21, Type (0, 1), None
#     Edge 22, Type (0, 1), None
#     Edge 23, Type (0, 1), None
#     Edge 24, Type (0, 1), None
#     Edge 25, Type (0, 1), None
#     Edge 26, Type (0, 1), None
#     Edge 27, Type (0, 1), None
#     Edge 28, Type (0, 1), None
#     Edge 29, Type (0, 1), None
#     Edge 30, Type (0, 1), None
#     Edge 31, Type (0, 1), None
#     Edge 32, Type (0, 1), None
#     Edge 33, Type (0, 1), None
#     Edge 34, Type (0, 1), None
#     Edge 35, Type (0, 1), None
# Relax obj value: 0.074
# Max RMSD: 0.087
# Mean RMSD: 0.082
data_MOF--net-cml--node1-OJICUG_clean_sbu_0--node2-MIDCAF_clean_linker_0--edge1-none
_symmetry_space_group_name_H-M    P1
_symmetry_Int_Tables_number       1
_symmetry_cell_setting            triclinic
loop_
_symmetry_equiv_pos_as_xyz
'x, y, z'
_cell_length_a     26.297562
_cell_length_b     26.478058
_cell_length_c     25.141378
_cell_angle_alpha  90.000001
_cell_angle_beta   90.000013
_cell_angle_gamma 89.987137
loop_
_atom_site_label
_atom_site_type_symbol
_atom_site_fract_x
_atom_site_fract_y
_atom_site_fract_z
_atom_type_partial_charge
C0 C 0.3705 0.39212 0.18027 0.0
C1 C 0.38362 0.3412 0.18796 0.0
C2 C 0.35872 0.3039 0.15789 0.0
C3 C 0.32416 0.31784 0.11799 0.0
H4 H 0.19617 0.27706 0.02002 0.0
H5 H 0.13104 0.22592 0.97797 0.0
H6 H 0.11867 0.3353 0.85079 0.0
H7 H 0.18389 0.38641 0.89274 0.0
H8 H 0.2803 0.46652 0.88519 0.0
H9 H 0.33228 0.53089 0.84238 0.0
H10 H 0.36988 0.59315 -0.00354 0.0
H11 H 0.3184 0.52858 0.03909 0.0
H12 H 0.3287 0.44572 0.13472 0.0
H13 H 0.38796 0.42176 0.20372 0.0
H14 H 0.36782 0.26433 0.16332 0.0
H15 H 0.30759 0.28871 0.09321 0.0
N16 N 0.25359 0.35448 0.03431 0.0
N17 N 0.24435 0.41462 0.96619 0.0
N18 N 0.29797 0.43105 0.03823 0.0
C19 C 0.23181 0.36919 0.98766 0.0
C20 C 0.27721 0.44583 0.99152 0.0
C21 C 0.28656 0.38557 0.05987 0.0
C22 C 0.19487 0.33619 0.9602 0.0
C23 C 0.17989 0.29008 0.98291 0.0
C24 C 0.1425 0.26069 0.95868 0.0
C25 C 0.11924 0.27675 0.91121 0.0
C26 C 0.13561 0.32189 0.88744 0.0
C27 C 0.17299 0.35131 0.91167 0.0
C28 C 0.29637 0.49189 0.96549 0.0
C29 C 0.29842 0.49489 0.90978 0.0
C30 C 0.32841 0.53163 0.88527 0.0
C31 C 0.35622 0.56626 0.91611 0.0
C32 C 0.34942 0.56668 0.97154 0.0
C33 C 0.32003 0.52956 -0.00396 0.0
C34 C 0.31423 0.36918 0.10791 0.0
C35 C 0.3363 0.40591 0.1408 0.0
C36 C 0.61696 0.59519 0.68027 0.0
C37 C 0.60384 0.64611 0.68796 0.0
C38 C 0.62874 0.68341 0.65789 0.0
C39 C 0.6633 0.66947 0.61799 0.0
H40 H 0.79129 0.71025 0.52002 0.0
H41 H 0.85643 0.76138 0.47797 0.0
H42 H 0.86879 0.65201 0.35079 0.0
H43 H 0.80357 0.6009 0.39274 0.0
H44 H 0.70716 0.52079 0.38519 0.0
H45 H 0.65518 0.45642 0.34238 0.0
H46 H 0.61758 0.39416 0.49646 0.0
H47 H 0.66906 0.45872 0.53909 0.0
H48 H 0.65877 0.54158 0.63472 0.0
H49 H 0.5995 0.56554 0.70372 0.0
H50 H 0.61964 0.72298 0.66332 0.0
H51 H 0.67987 0.6986 0.59321 0.0
N52 N 0.73387 0.63283 0.53431 0.0
N53 N 0.74311 0.57268 0.46619 0.0
N54 N 0.68949 0.55626 0.53823 0.0
C55 C 0.75566 0.61812 0.48766 0.0
C56 C 0.71026 0.54147 0.49152 0.0
C57 C 0.7009 0.60174 0.55987 0.0
C58 C 0.79259 0.65112 0.4602 0.0
C59 C 0.80757 0.69723 0.48291 0.0
C60 C 0.84497 0.72662 0.45868 0.0
C61 C 0.86822 0.71056 0.41121 0.0
C62 C 0.85185 0.66542 0.38744 0.0
C63 C 0.81447 0.636 0.41167 0.0
C64 C 0.69109 0.49542 0.46549 0.0
C65 C 0.68904 0.49242 0.40978 0.0
C66 C 0.65905 0.45568 0.38527 0.0
C67 C 0.63124 0.42104 0.41611 0.0
C68 C 0.63804 0.42063 0.47154 0.0
C69 C 0.66743 0.45775 0.49604 0.0
C70 C 0.67323 0.61813 0.60791 0.0
C71 C 0.65116 0.5814 0.6408 0.0
C72 C 0.65656 0.32816 0.17792 0.0
C73 C 0.6098 0.30252 0.17618 0.0
C74 C 0.59231 0.28304 0.12757 0.0
C75 C 0.61841 0.29387 0.08061 0.0
H76 H 0.82681 0.32461 0.02408 0.0
H77 H 0.90452 0.28916 0.98854 0.0
H78 H 0.85542 0.32597 0.82894 0.0
H79 H 0.77726 0.36267 0.86523 0.0
H80 H 0.66556 0.44016 0.86254 0.0
H81 H 0.61212 0.50872 0.82787 0.0
H82 H 0.55374 0.53541 0.98613 0.0
H83 H 0.60581 0.46713 0.02016 0.0
H84 H 0.71744 0.3607 0.13267 0.0
H85 H 0.67065 0.34358 0.21502 0.0
H86 H 0.5561 0.26365 0.12517 0.0
H87 H 0.60205 0.28255 0.04289 0.0
N88 N 0.72834 0.33522 0.01364 0.0
N89 N 0.71601 0.39433 0.94486 0.0
N90 N 0.65298 0.38192 0.00953 0.0
C91 C 0.74546 0.35883 0.96902 0.0
C92 C 0.66989 0.40642 0.96566 0.0
C93 C 0.68172 0.34614 0.03324 0.0
C94 C 0.79557 0.34521 0.94728 0.0
C95 C 0.83286 0.32582 0.98146 0.0
C96 C 0.87753 0.30564 0.96099 0.0
C97 C 0.88567 0.30372 0.90575 0.0
C98 C 0.85015 0.32672 0.87166 0.0
C99 C 0.80539 0.34756 0.89238 0.0
C100 C 0.63942 0.44816 0.94384 0.0
C101 C 0.64131 0.4609 0.88967 0.0
C102 C 0.61071 0.49988 0.86992 0.0
C103 C 0.57888 0.52731 0.90439 0.0
C104 C 0.57806 0.51513 0.95866 0.0
C105 C 0.60764 0.47573 0.97807 0.0
C106 C 0.66304 0.32275 0.08208 0.0
C107 C 0.68334 0.33778 0.13106 0.0
C108 C 0.33091 0.65915 0.67792 0.0
C109 C 0.37766 0.68479 0.67618 0.0
C110 C 0.39515 0.70427 0.62757 0.0
C111 C 0.36905 0.69344 0.58061 0.0
H112 H 0.16065 0.6627 0.52408 0.0
H113 H 0.08294 0.69815 0.48854 0.0
H114 H 0.13204 0.66134 0.32894 0.0
H115 H 0.2102 0.62463 0.36523 0.0
H116 H 0.3219 0.54715 0.36254 0.0
H117 H 0.37534 0.47859 0.32787 0.0
H118 H 0.43373 0.4519 0.48613 0.0
H119 H 0.38165 0.52018 0.52016 0.0
H120 H 0.27002 0.62661 0.63267 0.0
H121 H 0.31681 0.64373 0.71502 0.0
H122 H 0.43136 0.72366 0.62517 0.0
H123 H 0.38541 0.70476 0.54289 0.0
N124 N 0.25912 0.65209 0.51364 0.0
N125 N 0.27145 0.59298 0.44486 0.0
N126 N 0.33449 0.60538 0.50953 0.0
C127 C 0.242 0.62848 0.46902 0.0
C128 C 0.31757 0.58089 0.46566 0.0
C129 C 0.30574 0.64117 0.53324 0.0
C130 C 0.19189 0.6421 0.44728 0.0
C131 C 0.1546 0.66149 0.48146 0.0
C132 C 0.10993 0.68167 0.46099 0.0
C133 C 0.10179 0.68359 0.40575 0.0
C134 C 0.13731 0.66059 0.37166 0.0
C135 C 0.18207 0.63975 0.39238 0.0
C136 C 0.34804 0.53915 0.44384 0.0
C137 C 0.34616 0.52641 0.38967 0.0
C138 C 0.37675 0.48743 0.36992 0.0
C139 C 0.40858 0.46 0.40439 0.0
C140 C 0.4094 0.47218 0.45866 0.0
C141 C 0.37982 0.51158 0.47807 0.0
C142 C 0.32442 0.66456 0.58208 0.0
C143 C 0.30412 0.64953 0.63106 0.0
C144 C 0.8705 0.89212 0.18027 0.0
C145 C 0.88362 0.8412 0.18796 0.0
C146 C 0.85872 0.8039 0.15789 0.0
C147 C 0.82416 0.81784 0.11799 0.0
H148 H 0.69617 0.77706 0.02002 0.0
H149 H 0.63104 0.72592 0.97797 0.0
H150 H 0.61867 0.8353 0.85079 0.0
H151 H 0.68389 0.88641 0.89274 0.0
H152 H 0.7803 0.96652 0.88519 0.0
H153 H 0.83228 0.03089 0.84238 0.0
H154 H 0.86988 0.09315 -0.00354 0.0
H155 H 0.8184 0.02858 0.03909 0.0
H156 H 0.8287 0.94572 0.13472 0.0
H157 H 0.88796 0.92176 0.20372 0.0
H158 H 0.86782 0.76433 0.16332 0.0
H159 H 0.80759 0.78871 0.09321 0.0
N160 N 0.75359 0.85448 0.03431 0.0
N161 N 0.74435 0.91462 0.96619 0.0
N162 N 0.79797 0.93105 0.03823 0.0
C163 C 0.73181 0.86919 0.98766 0.0
C164 C 0.77721 0.94583 0.99152 0.0
C165 C 0.78656 0.88557 0.05987 0.0
C166 C 0.69487 0.83619 0.9602 0.0
C167 C 0.67989 0.79008 0.98291 0.0
C168 C 0.6425 0.76069 0.95868 0.0
C169 C 0.61924 0.77675 0.91121 0.0
C170 C 0.63561 0.82189 0.88744 0.0
C171 C 0.67299 0.85131 0.91167 0.0
C172 C 0.79637 0.99189 0.96549 0.0
C173 C 0.79842 -0.00511 0.90978 0.0
C174 C 0.82841 0.03163 0.88527 0.0
C175 C 0.85622 0.06626 0.91611 0.0
C176 C 0.84942 0.06668 0.97154 0.0
C177 C 0.82003 0.02956 -0.00396 0.0
C178 C 0.81423 0.86918 0.10791 0.0
C179 C 0.8363 0.90591 0.1408 0.0
C180 C 0.11696 0.09519 0.68027 0.0
C181 C 0.10384 0.14611 0.68796 0.0
C182 C 0.12874 0.18341 0.65789 0.0
C183 C 0.1633 0.16947 0.61799 0.0
H184 H 0.29129 0.21025 0.52002 0.0
H185 H 0.35643 0.26138 0.47797 0.0
H186 H 0.36879 0.15201 0.35079 0.0
H187 H 0.30357 0.1009 0.39274 0.0
H188 H 0.20716 0.02079 0.38519 0.0
H189 H 0.15518 0.95642 0.34238 0.0
H190 H 0.11758 0.89416 0.49646 0.0
H191 H 0.16906 0.95872 0.53909 0.0
H192 H 0.15877 0.04158 0.63472 0.0
H193 H 0.0995 0.06554 0.70372 0.0
H194 H 0.11964 0.22298 0.66332 0.0
H195 H 0.17987 0.1986 0.59321 0.0
N196 N 0.23387 0.13283 0.53431 0.0
N197 N 0.24311 0.07268 0.46619 0.0
N198 N 0.18949 0.05626 0.53823 0.0
C199 C 0.25566 0.11812 0.48766 0.0
C200 C 0.21026 0.04147 0.49152 0.0
C201 C 0.2009 0.10174 0.55987 0.0
C202 C 0.29259 0.15112 0.4602 0.0
C203 C 0.30757 0.19723 0.48291 0.0
C204 C 0.34497 0.22662 0.45868 0.0
C205 C 0.36822 0.21056 0.41121 0.0
C206 C 0.35185 0.16542 0.38744 0.0
C207 C 0.31447 0.136 0.41167 0.0
C208 C 0.19109 -0.00458 0.46549 0.0
C209 C 0.18904 0.99242 0.40978 0.0
C210 C 0.15905 0.95568 0.38527 0.0
C211 C 0.13124 0.92104 0.41611 0.0
C212 C 0.13804 0.92063 0.47154 0.0
C213 C 0.16743 0.95775 0.49604 0.0
C214 C 0.17323 0.11813 0.60791 0.0
C215 C 0.15116 0.0814 0.6408 0.0
C216 C 0.15656 0.82816 0.17792 0.0
C217 C 0.1098 0.80252 0.17618 0.0
C218 C 0.09231 0.78304 0.12757 0.0
C219 C 0.11841 0.79387 0.08061 0.0
H220 H 0.32681 0.82461 0.02408 0.0
H221 H 0.40452 0.78916 0.98854 0.0
H222 H 0.35542 0.82597 0.82894 0.0
H223 H 0.27726 0.86267 0.86523 0.0
H224 H 0.16556 0.94016 0.86254 0.0
H225 H 0.11212 0.00872 0.82787 0.0
H226 H 0.05374 0.03541 0.98613 0.0
H227 H 0.10581 0.96713 0.02016 0.0
H228 H 0.21744 0.8607 0.13267 0.0
H229 H 0.17065 0.84358 0.21502 0.0
H230 H 0.0561 0.76365 0.12517 0.0
H231 H 0.10205 0.78255 0.04289 0.0
N232 N 0.22834 0.83522 0.01364 0.0
N233 N 0.21601 0.89433 0.94486 0.0
N234 N 0.15298 0.88193 0.00953 0.0
C235 C 0.24546 0.85883 0.96902 0.0
C236 C 0.16989 0.90642 0.96566 0.0
C237 C 0.18172 0.84614 0.03324 0.0
C238 C 0.29558 0.84521 0.94728 0.0
C239 C 0.33286 0.82582 0.98146 0.0
C240 C 0.37753 0.80564 0.96099 0.0
C241 C 0.38567 0.80372 0.90575 0.0
C242 C 0.35015 0.82672 0.87166 0.0
C243 C 0.30539 0.84756 0.89238 0.0
C244 C 0.13942 0.94816 0.94384 0.0
C245 C 0.14131 0.9609 0.88967 0.0
C246 C 0.11071 -0.00012 0.86992 0.0
C247 C 0.07888 0.02731 0.90439 0.0
C248 C 0.07806 0.01513 0.95866 0.0
C249 C 0.10764 0.97573 0.97807 0.0
C250 C 0.16304 0.82275 0.08208 0.0
C251 C 0.18334 0.83778 0.13106 0.0
C252 C 0.83091 0.15915 0.67792 0.0
C253 C 0.87766 0.18479 0.67618 0.0
C254 C 0.89515 0.20427 0.62757 0.0
C255 C 0.86905 0.19344 0.58061 0.0
H256 H 0.66065 0.1627 0.52408 0.0
H257 H 0.58294 0.19815 0.48854 0.0
H258 H 0.63204 0.16134 0.32894 0.0
H259 H 0.7102 0.12463 0.36523 0.0
H260 H 0.8219 0.04715 0.36254 0.0
H261 H 0.87534 0.97859 0.32787 0.0
H262 H 0.93373 0.9519 0.48613 0.0
H263 H 0.88165 0.02018 0.52016 0.0
H264 H 0.77002 0.12661 0.63267 0.0
H265 H 0.81681 0.14373 0.71502 0.0
H266 H 0.93136 0.22366 0.62517 0.0
H267 H 0.88541 0.20476 0.54289 0.0
N268 N 0.75912 0.15209 0.51364 0.0
N269 N 0.77145 0.09298 0.44486 0.0
N270 N 0.83449 0.10538 0.50953 0.0
C271 C 0.742 0.12848 0.46902 0.0
C272 C 0.81757 0.08089 0.46566 0.0
C273 C 0.80574 0.14117 0.53324 0.0
C274 C 0.69189 0.1421 0.44728 0.0
C275 C 0.6546 0.16149 0.48146 0.0
C276 C 0.60993 0.18167 0.46099 0.0
C277 C 0.60179 0.18359 0.40575 0.0
C278 C 0.63731 0.16059 0.37166 0.0
C279 C 0.68207 0.13975 0.39238 0.0
C280 C 0.84804 0.03915 0.44384 0.0
C281 C 0.84616 0.02641 0.38967 0.0
C282 C 0.87675 0.98743 0.36992 0.0
C283 C 0.90858 0.96 0.40439 0.0
C284 C 0.9094 0.97218 0.45866 0.0
C285 C 0.87982 0.01158 0.47807 0.0
C286 C 0.82442 0.16456 0.58208 0.0
C287 C 0.80412 0.14953 0.63106 0.0
Sc288 Sc 0.98918 0.75097 0.29132 0.0
Sc289 Sc 0.01425 0.88093 0.29315 0.0
Sc290 Sc -0.00138 0.81635 0.41264 0.0
O291 O 0.00055 0.8161 0.33242 0.0
C292 C 0.9115 0.73904 0.38877 0.0
C293 C 0.92545 0.82887 0.22494 0.0
C294 C 0.94197 0.91962 0.38437 0.0
C295 C 0.07498 0.80509 0.22181 0.0
C296 C 0.06038 0.71559 0.38475 0.0
C297 C 0.08988 0.8912 0.39189 0.0
O298 O 0.9324 0.72328 0.34626 0.0
O299 O 0.95678 0.86415 0.23527 0.0
O300 O 0.95621 0.88562 0.4168 0.0
O301 O 0.04382 0.76918 0.22979 0.0
O302 O 0.04106 0.74735 0.4169 0.0
O303 O 0.07265 0.90538 0.34712 0.0
O304 O 0.04913 0.71407 0.33547 0.0
O305 O 0.07287 0.8467 0.24663 0.0
O306 O 0.06908 0.85669 0.41939 0.0
O307 O 0.92892 0.78478 0.24489 0.0
O308 O 0.92815 0.77658 0.41474 0.0
O309 O 0.95694 0.92152 0.33641 0.0
Sc310 Sc -0.00172 0.23633 0.79132 0.0
Sc311 Sc 0.97321 0.10637 0.79315 0.0
Sc312 Sc 0.98884 0.17096 0.91264 0.0
O313 O 0.98691 0.17121 0.83242 0.0
C314 C 0.07596 0.24826 0.88877 0.0
C315 C 0.06201 0.15844 0.72494 0.0
C316 C 0.0455 0.06768 0.88437 0.0
C317 C 0.91248 0.18221 0.72181 0.0
C318 C 0.92708 0.27172 0.88475 0.0
C319 C 0.89759 0.09611 0.89189 0.0
O320 O 0.05506 0.26403 0.84626 0.0
O321 O 0.03068 0.12316 0.73527 0.0
O322 O 0.03125 0.10169 0.9168 0.0
O323 O 0.94364 0.21813 0.72979 0.0
O324 O 0.9464 0.23996 0.9169 0.0
O325 O 0.91482 0.08193 0.84712 0.0
O326 O 0.93834 0.27324 0.83547 0.0
O327 O 0.9146 0.14061 0.74663 0.0
O328 O 0.91838 0.13062 0.91939 0.0
O329 O 0.05854 0.20253 0.74489 0.0
O330 O 0.05931 0.21073 0.91474 0.0
O331 O 0.03052 0.06578 0.83641 0.0
Sc332 Sc 0.48918 0.25097 0.29132 0.0
Sc333 Sc 0.51425 0.38093 0.29315 0.0
Sc334 Sc 0.49862 0.31635 0.41264 0.0
O335 O 0.50055 0.3161 0.33242 0.0
C336 C 0.4115 0.23904 0.38877 0.0
C337 C 0.42545 0.32887 0.22494 0.0
C338 C 0.44197 0.41962 0.38437 0.0
C339 C 0.57498 0.30509 0.22181 0.0
C340 C 0.56038 0.21559 0.38475 0.0
C341 C 0.58988 0.3912 0.39189 0.0
O342 O 0.4324 0.22328 0.34626 0.0
O343 O 0.45678 0.36415 0.23527 0.0
O344 O 0.45621 0.38562 0.4168 0.0
O345 O 0.54382 0.26918 0.22979 0.0
O346 O 0.54106 0.24735 0.4169 0.0
O347 O 0.57265 0.40538 0.34712 0.0
O348 O 0.54913 0.21407 0.33547 0.0
O349 O 0.57287 0.3467 0.24663 0.0
O350 O 0.56908 0.35669 0.41939 0.0
O351 O 0.42892 0.28478 0.24489 0.0
O352 O 0.42815 0.27658 0.41474 0.0
O353 O 0.45694 0.42152 0.33641 0.0
Sc354 Sc 0.49828 0.73633 0.79132 0.0
Sc355 Sc 0.47321 0.60637 0.79315 0.0
Sc356 Sc 0.48884 0.67096 0.91264 0.0
O357 O 0.48691 0.67121 0.83242 0.0
C358 C 0.57596 0.74826 0.88877 0.0
C359 C 0.56201 0.65844 0.72494 0.0
C360 C 0.5455 0.56768 0.88437 0.0
C361 C 0.41248 0.68222 0.72181 0.0
C362 C 0.42708 0.77172 0.88475 0.0
C363 C 0.39759 0.59611 0.89189 0.0
O364 O 0.55506 0.76403 0.84626 0.0
O365 O 0.53068 0.62316 0.73527 0.0
O366 O 0.53125 0.60169 0.9168 0.0
O367 O 0.44364 0.71813 0.72979 0.0
O368 O 0.4464 0.73996 0.9169 0.0
O369 O 0.41482 0.58193 0.84712 0.0
O370 O 0.43834 0.77324 0.83547 0.0
O371 O 0.41459 0.64061 0.74663 0.0
O372 O 0.41838 0.63062 0.91939 0.0
O373 O 0.55854 0.70253 0.74489 0.0
O374 O 0.55931 0.71073 0.91474 0.0
O375 O 0.53052 0.56578 0.83641 0.0
loop_
_geom_bond_atom_site_label_1
_geom_bond_atom_site_label_2
_geom_bond_distance
_geom_bond_site_symmetry_2
_ccdc_geom_bond_type
C0 C1 1.384 . S
C0 H13 0.947 . S
C0 C35 1.382 . S
C1 C0 1.384 . S
C1 C2 1.378 . S
C2 C1 1.378 . S
C2 C3 1.378 . S
C2 H14 0.952 . S
C3 C2 1.378 . S
C3 H15 0.950 . S
C3 C34 1.383 . S
H4 C23 0.947 1_554 S
H5 C24 0.946 . S
H6 C26 0.953 . S
H7 C27 0.945 . S
H8 C29 0.952 . S
H9 C30 0.949 . S
H10 C32 0.950 . S
H11 C33 0.948 . S
H12 C35 0.951 . S
H13 C0 0.947 . S
H14 C2 0.952 . S
H15 C3 0.950 . S
N16 C19 1.382 1_554 S
N16 C21 1.363 . S
N17 C19 1.371 . S
N17 C20 1.372 . S
N18 C20 1.361 1_554 S
N18 C21 1.377 . S
C19 N16 1.382 1_556 S
C19 N17 1.371 . S
C19 C22 1.480 . S
C20 N17 1.372 . S
C20 N18 1.361 1_556 S
C20 C28 1.457 . S
C21 N16 1.363 . S
C21 N18 1.377 . S
C21 C34 1.479 . S
C22 C19 1.480 . S
C22 C23 1.383 . S
C22 C27 1.385 . S
C23 H4 0.947 1_556 S
C23 C22 1.383 . S
C23 C24 1.388 . S
C24 H5 0.946 . S
C24 C23 1.388 . S
C24 C25 1.384 . S
C25 C24 1.384 . S
C25 C26 1.377 . S
C26 H6 0.953 . S
C26 C25 1.377 . S
C26 C27 1.369 . S
C27 H7 0.945 . S
C27 C22 1.385 . S
C27 C26 1.369 . S
C28 C20 1.457 . S
C28 C29 1.372 . S
C28 C33 1.364 . S
C29 H8 0.952 . S
C29 C28 1.372 . S
C29 C30 1.389 . S
C30 H9 0.949 . S
C30 C29 1.389 . S
C30 C31 1.387 . S
C31 C30 1.387 . S
C31 C32 1.372 . S
C32 H10 0.950 . S
C32 C31 1.372 . S
C32 C33 1.379 . S
C33 H11 0.948 . S
C33 C28 1.364 . S
C33 C32 1.379 . S
C34 C3 1.383 . S
C34 C21 1.479 . S
C34 C35 1.398 . S
C35 C0 1.382 . S
C35 H12 0.951 . S
C35 C34 1.398 . S
C36 C37 1.384 . S
C36 H49 0.947 . S
C36 C71 1.382 . S
C37 C36 1.384 . S
C37 C38 1.378 . S
C38 C37 1.378 . S
C38 C39 1.378 . S
C38 H50 0.952 . S
C39 C38 1.378 . S
C39 H51 0.950 . S
C39 C70 1.383 . S
H40 C59 0.947 . S
H41 C60 0.946 . S
H42 C62 0.953 . S
H43 C63 0.945 . S
H44 C65 0.952 . S
H45 C66 0.949 . S
H46 C68 0.950 . S
H47 C69 0.948 . S
H48 C71 0.951 . S
H49 C36 0.947 . S
H50 C38 0.952 . S
H51 C39 0.950 . S
N52 C55 1.382 . S
N52 C57 1.363 . S
N53 C55 1.371 . S
N53 C56 1.372 . S
N54 C56 1.361 . S
N54 C57 1.377 . S
C55 N52 1.382 . S
C55 N53 1.371 . S
C55 C58 1.480 . S
C56 N53 1.372 . S
C56 N54 1.361 . S
C56 C64 1.457 . S
C57 N52 1.363 . S
C57 N54 1.377 . S
C57 C70 1.479 . S
C58 C55 1.480 . S
C58 C59 1.383 . S
C58 C63 1.385 . S
C59 H40 0.947 . S
C59 C58 1.383 . S
C59 C60 1.388 . S
C60 H41 0.946 . S
C60 C59 1.388 . S
C60 C61 1.384 . S
C61 C60 1.384 . S
C61 C62 1.377 . S
C62 H42 0.953 . S
C62 C61 1.377 . S
C62 C63 1.369 . S
C63 H43 0.945 . S
C63 C58 1.385 . S
C63 C62 1.369 . S
C64 C56 1.457 . S
C64 C65 1.372 . S
C64 C69 1.364 . S
C65 H44 0.952 . S
C65 C64 1.372 . S
C65 C66 1.389 . S
C66 H45 0.949 . S
C66 C65 1.389 . S
C66 C67 1.387 . S
C67 C66 1.387 . S
C67 C68 1.372 . S
C68 H46 0.950 . S
C68 C67 1.372 . S
C68 C69 1.379 . S
C69 H47 0.948 . S
C69 C64 1.364 . S
C69 C68 1.379 . S
C70 C39 1.383 . S
C70 C57 1.479 . S
C70 C71 1.398 . S
C71 C36 1.382 . S
C71 H48 0.951 . S
C71 C70 1.398 . S
C72 C73 1.384 . S
C72 H85 0.947 . S
C72 C107 1.382 . S
C73 C72 1.384 . S
C73 C74 1.378 . S
C74 C73 1.378 . S
C74 C75 1.378 . S
C74 H86 0.952 . S
C75 C74 1.378 . S
C75 H87 0.950 . S
C75 C106 1.383 . S
H76 C95 0.947 1_554 S
H77 C96 0.946 . S
H78 C98 0.953 . S
H79 C99 0.945 . S
H80 C101 0.952 . S
H81 C102 0.949 . S
H82 C104 0.950 . S
H83 C105 0.948 1_554 S
H84 C107 0.951 . S
H85 C72 0.947 . S
H86 C74 0.952 . S
H87 C75 0.950 . S
N88 C91 1.382 1_554 S
N88 C93 1.363 . S
N89 C91 1.371 . S
N89 C92 1.372 . S
N90 C92 1.361 1_554 S
N90 C93 1.377 . S
C91 N88 1.382 1_556 S
C91 N89 1.371 . S
C91 C94 1.480 . S
C92 N89 1.372 . S
C92 N90 1.361 1_556 S
C92 C100 1.457 . S
C93 N88 1.363 . S
C93 N90 1.377 . S
C93 C106 1.479 . S
C94 C91 1.480 . S
C94 C95 1.383 . S
C94 C99 1.385 . S
C95 H76 0.947 1_556 S
C95 C94 1.383 . S
C95 C96 1.388 . S
C96 H77 0.946 . S
C96 C95 1.388 . S
C96 C97 1.384 . S
C97 C96 1.384 . S
C97 C98 1.377 . S
C98 H78 0.953 . S
C98 C97 1.377 . S
C98 C99 1.369 . S
C99 H79 0.945 . S
C99 C94 1.385 . S
C99 C98 1.369 . S
C100 C92 1.457 . S
C100 C101 1.372 . S
C100 C105 1.364 . S
C101 H80 0.952 . S
C101 C100 1.372 . S
C101 C102 1.389 . S
C102 H81 0.949 . S
C102 C101 1.389 . S
C102 C103 1.387 . S
C103 C102 1.387 . S
C103 C104 1.372 . S
C104 H82 0.950 . S
C104 C103 1.372 . S
C104 C105 1.379 . S
C105 H83 0.948 1_556 S
C105 C100 1.364 . S
C105 C104 1.379 . S
C106 C75 1.383 . S
C106 C93 1.479 . S
C106 C107 1.398 . S
C107 C72 1.382 . S
C107 H84 0.951 . S
C107 C106 1.398 . S
C108 C109 1.384 . S
C108 H121 0.947 . S
C108 C143 1.382 . S
C109 C108 1.384 . S
C109 C110 1.378 . S
C110 C109 1.378 . S
C110 C111 1.378 . S
C110 H122 0.952 . S
C111 C110 1.378 . S
C111 H123 0.950 . S
C111 C142 1.383 . S
H112 C131 0.947 . S
H113 C132 0.946 . S
H114 C134 0.953 . S
H115 C135 0.945 . S
H116 C137 0.952 . S
H117 C138 0.949 . S
H118 C140 0.950 . S
H119 C141 0.948 . S
H120 C143 0.951 . S
H121 C108 0.947 . S
H122 C110 0.952 . S
H123 C111 0.950 . S
N124 C127 1.382 . S
N124 C129 1.363 . S
N125 C127 1.371 . S
N125 C128 1.372 . S
N126 C128 1.361 . S
N126 C129 1.377 . S
C127 N124 1.382 . S
C127 N125 1.371 . S
C127 C130 1.480 . S
C128 N125 1.372 . S
C128 N126 1.361 . S
C128 C136 1.457 . S
C129 N124 1.363 . S
C129 N126 1.377 . S
C129 C142 1.479 . S
C130 C127 1.480 . S
C130 C131 1.383 . S
C130 C135 1.385 . S
C131 H112 0.947 . S
C131 C130 1.383 . S
C131 C132 1.388 . S
C132 H113 0.946 . S
C132 C131 1.388 . S
C132 C133 1.384 . S
C133 C132 1.384 . S
C133 C134 1.377 . S
C134 H114 0.953 . S
C134 C133 1.377 . S
C134 C135 1.369 . S
C135 H115 0.945 . S
C135 C130 1.385 . S
C135 C134 1.369 . S
C136 C128 1.457 . S
C136 C137 1.372 . S
C136 C141 1.364 . S
C137 H116 0.952 . S
C137 C136 1.372 . S
C137 C138 1.389 . S
C138 H117 0.949 . S
C138 C137 1.389 . S
C138 C139 1.387 . S
C139 C138 1.387 . S
C139 C140 1.372 . S
C140 H118 0.950 . S
C140 C139 1.372 . S
C140 C141 1.379 . S
C141 H119 0.948 . S
C141 C136 1.364 . S
C141 C140 1.379 . S
C142 C111 1.383 . S
C142 C129 1.479 . S
C142 C143 1.398 . S
C143 C108 1.382 . S
C143 H120 0.951 . S
C143 C142 1.398 . S
C144 C145 1.384 . S
C144 H157 0.947 . S
C144 C179 1.382 . S
C145 C144 1.384 . S
C145 C146 1.378 . S
C146 C145 1.378 . S
C146 C147 1.378 . S
C146 H158 0.952 . S
C147 C146 1.378 . S
C147 H159 0.950 . S
C147 C178 1.383 . S
H148 C167 0.947 1_554 S
H149 C168 0.946 . S
H150 C170 0.953 . S
H151 C171 0.945 . S
H152 C173 0.952 1_565 S
H153 C174 0.949 . S
H154 C176 0.950 . S
H155 C177 0.948 1_565 S
H156 C179 0.951 . S
H157 C144 0.947 . S
H158 C146 0.952 . S
H159 C147 0.950 . S
N160 C163 1.382 1_554 S
N160 C165 1.363 . S
N161 C163 1.371 . S
N161 C164 1.372 . S
N162 C164 1.361 1_554 S
N162 C165 1.377 . S
C163 N160 1.382 1_556 S
C163 N161 1.371 . S
C163 C166 1.480 . S
C164 N161 1.372 . S
C164 N162 1.361 1_556 S
C164 C172 1.457 . S
C165 N160 1.363 . S
C165 N162 1.377 . S
C165 C178 1.479 . S
C166 C163 1.480 . S
C166 C167 1.383 . S
C166 C171 1.385 . S
C167 H148 0.947 1_556 S
C167 C166 1.383 . S
C167 C168 1.388 . S
C168 H149 0.946 . S
C168 C167 1.388 . S
C168 C169 1.384 . S
C169 C168 1.384 . S
C169 C170 1.377 . S
C170 H150 0.953 . S
C170 C169 1.377 . S
C170 C171 1.369 . S
C171 H151 0.945 . S
C171 C166 1.385 . S
C171 C170 1.369 . S
C172 C164 1.457 . S
C172 C173 1.372 1_565 S
C172 C177 1.364 1_565 S
C173 H152 0.952 1_545 S
C173 C172 1.372 1_545 S
C173 C174 1.389 . S
C174 H153 0.949 . S
C174 C173 1.389 . S
C174 C175 1.387 . S
C175 C174 1.387 . S
C175 C176 1.372 . S
C176 H154 0.950 . S
C176 C175 1.372 . S
C176 C177 1.379 . S
C177 H155 0.948 1_545 S
C177 C172 1.364 1_545 S
C177 C176 1.379 . S
C178 C147 1.383 . S
C178 C165 1.479 . S
C178 C179 1.398 . S
C179 C144 1.382 . S
C179 H156 0.951 . S
C179 C178 1.398 . S
C180 C181 1.384 . S
C180 H193 0.947 . S
C180 C215 1.382 . S
C181 C180 1.384 . S
C181 C182 1.378 . S
C182 C181 1.378 . S
C182 C183 1.378 . S
C182 H194 0.952 . S
C183 C182 1.378 . S
C183 H195 0.950 . S
C183 C214 1.383 . S
H184 C203 0.947 . S
H185 C204 0.946 . S
H186 C206 0.953 . S
H187 C207 0.945 . S
H188 C209 0.952 1_545 S
H189 C210 0.949 . S
H190 C212 0.950 . S
H191 C213 0.948 1_545 S
H192 C215 0.951 . S
H193 C180 0.947 . S
H194 C182 0.952 . S
H195 C183 0.950 . S
N196 C199 1.382 . S
N196 C201 1.363 . S
N197 C199 1.371 . S
N197 C200 1.372 . S
N198 C200 1.361 . S
N198 C201 1.377 . S
C199 N196 1.382 . S
C199 N197 1.371 . S
C199 C202 1.480 . S
C200 N197 1.372 . S
C200 N198 1.361 . S
C200 C208 1.457 . S
C201 N196 1.363 . S
C201 N198 1.377 . S
C201 C214 1.479 . S
C202 C199 1.480 . S
C202 C203 1.383 . S
C202 C207 1.385 . S
C203 H184 0.947 . S
C203 C202 1.383 . S
C203 C204 1.388 . S
C204 H185 0.946 . S
C204 C203 1.388 . S
C204 C205 1.384 . S
C205 C204 1.384 . S
C205 C206 1.377 . S
C206 H186 0.953 . S
C206 C205 1.377 . S
C206 C207 1.369 . S
C207 H187 0.945 . S
C207 C202 1.385 . S
C207 C206 1.369 . S
C208 C200 1.457 . S
C208 C209 1.372 1_545 S
C208 C213 1.364 1_545 S
C209 H188 0.952 1_565 S
C209 C208 1.372 1_565 S
C209 C210 1.389 . S
C210 H189 0.949 . S
C210 C209 1.389 . S
C210 C211 1.387 . S
C211 C210 1.387 . S
C211 C212 1.372 . S
C212 H190 0.950 . S
C212 C211 1.372 . S
C212 C213 1.379 . S
C213 H191 0.948 1_565 S
C213 C208 1.364 1_565 S
C213 C212 1.379 . S
C214 C183 1.383 . S
C214 C201 1.479 . S
C214 C215 1.398 . S
C215 C180 1.382 . S
C215 H192 0.951 . S
C215 C214 1.398 . S
C216 C217 1.384 . S
C216 H229 0.947 . S
C216 C251 1.382 . S
C217 C216 1.384 . S
C217 C218 1.378 . S
C218 C217 1.378 . S
C218 C219 1.378 . S
C218 H230 0.952 . S
C219 C218 1.378 . S
C219 H231 0.950 . S
C219 C250 1.383 . S
H220 C239 0.947 1_554 S
H221 C240 0.946 . S
H222 C242 0.953 . S
H223 C243 0.945 . S
H224 C245 0.952 1_565 S
H225 C246 0.949 . S
H226 C248 0.950 . S
H227 C249 0.948 1_554 S
H228 C251 0.951 . S
H229 C216 0.947 . S
H230 C218 0.952 . S
H231 C219 0.950 . S
N232 C235 1.382 1_554 S
N232 C237 1.363 . S
N233 C235 1.371 . S
N233 C236 1.372 . S
N234 C236 1.361 1_554 S
N234 C237 1.377 . S
C235 N232 1.382 1_556 S
C235 N233 1.371 . S
C235 C238 1.480 . S
C236 N233 1.372 . S
C236 N234 1.361 1_556 S
C236 C244 1.457 . S
C237 N232 1.363 . S
C237 N234 1.377 . S
C237 C250 1.479 . S
C238 C235 1.480 . S
C238 C239 1.383 . S
C238 C243 1.385 . S
C239 H220 0.947 1_556 S
C239 C238 1.383 . S
C239 C240 1.388 . S
C240 H221 0.946 . S
C240 C239 1.388 . S
C240 C241 1.384 . S
C241 C240 1.384 . S
C241 C242 1.377 . S
C242 H222 0.953 . S
C242 C241 1.377 . S
C242 C243 1.369 . S
C243 H223 0.945 . S
C243 C238 1.385 . S
C243 C242 1.369 . S
C244 C236 1.457 . S
C244 C245 1.372 1_565 S
C244 C249 1.364 1_565 S
C245 H224 0.952 1_545 S
C245 C244 1.372 1_545 S
C245 C246 1.389 . S
C246 H225 0.949 . S
C246 C245 1.389 . S
C246 C247 1.387 . S
C247 C246 1.387 . S
C247 C248 1.372 . S
C248 H226 0.950 . S
C248 C247 1.372 . S
C248 C249 1.379 . S
C249 H227 0.948 1_556 S
C249 C244 1.364 1_545 S
C249 C248 1.379 . S
C250 C219 1.383 . S
C250 C237 1.479 . S
C250 C251 1.398 . S
C251 C216 1.382 . S
C251 H228 0.951 . S
C251 C250 1.398 . S
C252 C253 1.384 . S
C252 H265 0.947 . S
C252 C287 1.382 . S
C253 C252 1.384 . S
C253 C254 1.378 . S
C254 C253 1.378 . S
C254 C255 1.378 . S
C254 H266 0.952 . S
C255 C254 1.378 . S
C255 H267 0.950 . S
C255 C286 1.383 . S
H256 C275 0.947 . S
H257 C276 0.946 . S
H258 C278 0.953 . S
H259 C279 0.945 . S
H260 C281 0.952 1_545 S
H261 C282 0.949 . S
H262 C284 0.950 . S
H263 C285 0.948 . S
H264 C287 0.951 . S
H265 C252 0.947 . S
H266 C254 0.952 . S
H267 C255 0.950 . S
N268 C271 1.382 . S
N268 C273 1.363 . S
N269 C271 1.371 . S
N269 C272 1.372 . S
N270 C272 1.361 . S
N270 C273 1.377 . S
C271 N268 1.382 . S
C271 N269 1.371 . S
C271 C274 1.480 . S
C272 N269 1.372 . S
C272 N270 1.361 . S
C272 C280 1.457 . S
C273 N268 1.363 . S
C273 N270 1.377 . S
C273 C286 1.479 . S
C274 C271 1.480 . S
C274 C275 1.383 . S
C274 C279 1.385 . S
C275 H256 0.947 . S
C275 C274 1.383 . S
C275 C276 1.388 . S
C276 H257 0.946 . S
C276 C275 1.388 . S
C276 C277 1.384 . S
C277 C276 1.384 . S
C277 C278 1.377 . S
C278 H258 0.953 . S
C278 C277 1.377 . S
C278 C279 1.369 . S
C279 H259 0.945 . S
C279 C274 1.385 . S
C279 C278 1.369 . S
C280 C272 1.457 . S
C280 C281 1.372 1_545 S
C280 C285 1.364 1_545 S
C281 H260 0.952 1_565 S
C281 C280 1.372 1_565 S
C281 C282 1.389 . S
C282 H261 0.949 . S
C282 C281 1.389 . S
C282 C283 1.387 . S
C283 C282 1.387 . S
C283 C284 1.372 . S
C284 H262 0.950 . S
C284 C283 1.372 . S
C284 C285 1.379 . S
C285 H263 0.948 . S
C285 C280 1.364 1_565 S
C285 C284 1.379 . S
C286 C255 1.383 . S
C286 C273 1.479 . S
C286 C287 1.398 . S
C287 C252 1.382 . S
C287 H264 0.951 . S
C287 C286 1.398 . S
Sc288 O291 2.025 . S
Sc288 O298 2.104 1_455 S
Sc288 O301 2.105 . S
Sc288 O304 2.105 . S
Sc288 O307 2.104 1_455 S
Sc289 O291 2.025 . S
Sc289 O299 2.104 1_455 S
Sc289 O303 2.105 . S
Sc289 O305 2.105 . S
Sc289 O309 2.104 1_455 S
Sc290 O291 2.025 . S
Sc290 O300 2.104 1_455 S
Sc290 O302 2.105 . S
Sc290 O306 2.105 . S
Sc290 O308 2.104 1_455 S
O291 Sc288 2.025 . S
O291 Sc289 2.025 . S
O291 Sc290 2.025 . S
C292 O298 1.268 . S
C292 O308 1.268 . S
C293 O299 1.268 . S
C293 O307 1.268 . S
C294 O300 1.268 . S
C294 O309 1.268 . S
C295 O301 1.268 . S
C295 O305 1.268 . S
C296 O302 1.268 . S
C296 O304 1.268 . S
C297 O303 1.268 . S
C297 O306 1.268 . S
O298 Sc288 2.104 1_655 S
O298 C292 1.268 . S
O299 Sc289 2.104 1_655 S
O299 C293 1.268 . S
O300 Sc290 2.104 1_655 S
O300 C294 1.268 . S
O301 Sc288 2.105 . S
O301 C295 1.268 . S
O302 Sc290 2.105 . S
O302 C296 1.268 . S
O303 Sc289 2.105 . S
O303 C297 1.268 . S
O304 Sc288 2.105 . S
O304 C296 1.268 . S
O305 Sc289 2.105 . S
O305 C295 1.268 . S
O306 Sc290 2.105 . S
O306 C297 1.268 . S
O307 Sc288 2.104 1_655 S
O307 C293 1.268 . S
O308 Sc290 2.104 1_655 S
O308 C292 1.268 . S
O309 Sc289 2.104 1_655 S
O309 C294 1.268 . S
Sc310 O313 2.025 . S
Sc310 O320 2.105 . S
Sc310 O323 2.104 1_455 S
Sc310 O326 2.104 1_455 S
Sc310 O329 2.105 . S
Sc311 O313 2.025 . S
Sc311 O321 2.105 . S
Sc311 O325 2.104 1_455 S
Sc311 O327 2.104 1_455 S
Sc311 O331 2.105 . S
Sc312 O313 2.025 . S
Sc312 O322 2.105 . S
Sc312 O324 2.104 1_455 S
Sc312 O328 2.104 1_455 S
Sc312 O330 2.105 . S
O313 Sc310 2.025 . S
O313 Sc311 2.025 . S
O313 Sc312 2.025 . S
C314 O320 1.268 . S
C314 O330 1.268 . S
C315 O321 1.268 . S
C315 O329 1.268 . S
C316 O322 1.268 . S
C316 O331 1.268 . S
C317 O323 1.268 . S
C317 O327 1.268 . S
C318 O324 1.268 . S
C318 O326 1.268 . S
C319 O325 1.268 . S
C319 O328 1.268 . S
O320 Sc310 2.105 . S
O320 C314 1.268 . S
O321 Sc311 2.105 . S
O321 C315 1.268 . S
O322 Sc312 2.105 . S
O322 C316 1.268 . S
O323 Sc310 2.104 1_655 S
O323 C317 1.268 . S
O324 Sc312 2.104 1_655 S
O324 C318 1.268 . S
O325 Sc311 2.104 1_655 S
O325 C319 1.268 . S
O326 Sc310 2.104 1_655 S
O326 C318 1.268 . S
O327 Sc311 2.104 1_655 S
O327 C317 1.268 . S
O328 Sc312 2.104 1_655 S
O328 C319 1.268 . S
O329 Sc310 2.105 . S
O329 C315 1.268 . S
O330 Sc312 2.105 . S
O330 C314 1.268 . S
O331 Sc311 2.105 . S
O331 C316 1.268 . S
Sc332 O335 2.025 . S
Sc332 O342 2.105 . S
Sc332 O345 2.105 . S
Sc332 O348 2.105 . S
Sc332 O351 2.105 . S
Sc333 O335 2.025 . S
Sc333 O343 2.105 . S
Sc333 O347 2.105 . S
Sc333 O349 2.105 . S
Sc333 O353 2.105 . S
Sc334 O335 2.025 . S
Sc334 O344 2.105 . S
Sc334 O346 2.105 . S
Sc334 O350 2.105 . S
Sc334 O352 2.105 . S
O335 Sc332 2.025 . S
O335 Sc333 2.025 . S
O335 Sc334 2.025 . S
C336 O342 1.268 . S
C336 O352 1.268 . S
C337 O343 1.268 . S
C337 O351 1.268 . S
C338 O344 1.268 . S
C338 O353 1.268 . S
C339 O345 1.268 . S
C339 O349 1.268 . S
C340 O346 1.268 . S
C340 O348 1.268 . S
C341 O347 1.268 . S
C341 O350 1.268 . S
O342 Sc332 2.105 . S
O342 C336 1.268 . S
O343 Sc333 2.105 . S
O343 C337 1.268 . S
O344 Sc334 2.105 . S
O344 C338 1.268 . S
O345 Sc332 2.105 . S
O345 C339 1.268 . S
O346 Sc334 2.105 . S
O346 C340 1.268 . S
O347 Sc333 2.105 . S
O347 C341 1.268 . S
O348 Sc332 2.105 . S
O348 C340 1.268 . S
O349 Sc333 2.105 . S
O349 C339 1.268 . S
O350 Sc334 2.105 . S
O350 C341 1.268 . S
O351 Sc332 2.105 . S
O351 C337 1.268 . S
O352 Sc334 2.105 . S
O352 C336 1.268 . S
O353 Sc333 2.105 . S
O353 C338 1.268 . S
Sc354 O357 2.025 . S
Sc354 O364 2.105 . S
Sc354 O367 2.105 . S
Sc354 O370 2.105 . S
Sc354 O373 2.105 . S
Sc355 O357 2.025 . S
Sc355 O365 2.105 . S
Sc355 O369 2.105 . S
Sc355 O371 2.105 . S
Sc355 O375 2.105 . S
Sc356 O357 2.025 . S
Sc356 O366 2.105 . S
Sc356 O368 2.105 . S
Sc356 O372 2.105 . S
Sc356 O374 2.105 . S
O357 Sc354 2.025 . S
O357 Sc355 2.025 . S
O357 Sc356 2.025 . S
C358 O364 1.268 . S
C358 O374 1.268 . S
C359 O365 1.268 . S
C359 O373 1.268 . S
C360 O366 1.268 . S
C360 O375 1.268 . S
C361 O367 1.268 . S
C361 O371 1.268 . S
C362 O368 1.268 . S
C362 O370 1.268 . S
C363 O369 1.268 . S
C363 O372 1.268 . S
O364 Sc354 2.105 . S
O364 C358 1.268 . S
O365 Sc355 2.105 . S
O365 C359 1.268 . S
O366 Sc356 2.105 . S
O366 C360 1.268 . S
O367 Sc354 2.105 . S
O367 C361 1.268 . S
O368 Sc356 2.105 . S
O368 C362 1.268 . S
O369 Sc355 2.105 . S
O369 C363 1.268 . S
O370 Sc354 2.105 . S
O370 C362 1.268 . S
O371 Sc355 2.105 . S
O371 C361 1.268 . S
O372 Sc356 2.105 . S
O372 C363 1.268 . S
O373 Sc354 2.105 . S
O373 C359 1.268 . S
O374 Sc356 2.105 . S
O374 C358 1.268 . S
O375 Sc355 2.105 . S
O375 C360 1.268 . S
C25 C314 1.645 . S
C292 C61 1.645 . S
C318 C97 1.754 . S
C296 C133 1.754 . S
C358 C169 1.645 . S
C336 C205 1.645 . S
C241 C362 1.754 . S
C340 C277 1.754 . S
C31 C363 1.952 . S
C341 C67 1.952 . S
C103 C360 2.058 . S
C139 C338 2.058 . S
C319 C175 1.952 . S
C211 C297 1.952 . S
C316 C247 2.058 . S
C294 C283 2.058 . S
C337 C1 2.006 . S
C359 C37 2.005 . S
C73 C339 2.112 . S
C361 C109 2.113 . S
C293 C145 2.005 . S
C181 C315 2.006 . S
C217 C295 2.113 . S
C253 C317 2.112 . S
