# Generated by pormake.
# Topology llj, (12,3)-cn, num edge types: 1
# Building blocks:
#     Node 0, Type 0, BuildingBlock: QEWDON_clean_sbu_0, # of connection points: 12
#     Node 1, Type 0, BuildingBlock: QEWDON_clean_sbu_0, # of connection points: 12
#     Node 2, Type 1, BuildingBlock: INOVEN_clean_linker_0, # of connection points: 3
#     Node 3, Type 1, BuildingBlock: INOVEN_clean_linker_0, # of connection points: 3
#     Node 4, Type 1, BuildingBlock: INOVEN_clean_linker_0, # of connection points: 3
#     Node 5, Type 1, BuildingBlock: INOVEN_clean_linker_0, # of connection points: 3
#     Node 6, Type 1, BuildingBlock: INOVEN_clean_linker_0, # of connection points: 3
#     Node 7, Type 1, BuildingBlock: INOVEN_clean_linker_0, # of connection points: 3
#     Node 8, Type 1, BuildingBlock: INOVEN_clean_linker_0, # of connection points: 3
#     Node 9, Type 1, BuildingBlock: INOVEN_clean_linker_0, # of connection points: 3
#     Edge 10, Type (0, 1), BuildingBlock: AJUNOK_clean_linker_0, # of connection points: 2
#     Edge 11, Type (0, 1), BuildingBlock: AJUNOK_clean_linker_0, # of connection points: 2
#     Edge 12, Type (0, 1), BuildingBlock: AJUNOK_clean_linker_0, # of connection points: 2
#     Edge 13, Type (0, 1), BuildingBlock: AJUNOK_clean_linker_0, # of connection points: 2
#     Edge 14, Type (0, 1), BuildingBlock: AJUNOK_clean_linker_0, # of connection points: 2
#     Edge 15, Type (0, 1), BuildingBlock: AJUNOK_clean_linker_0, # of connection points: 2
#     Edge 16, Type (0, 1), BuildingBlock: AJUNOK_clean_linker_0, # of connection points: 2
#     Edge 17, Type (0, 1), BuildingBlock: AJUNOK_clean_linker_0, # of connection points: 2
#     Edge 18, Type (0, 1), BuildingBlock: AJUNOK_clean_linker_0, # of connection points: 2
#     Edge 19, Type (0, 1), BuildingBlock: AJUNOK_clean_linker_0, # of connection points: 2
#     Edge 20, Type (0, 1), BuildingBlock: AJUNOK_clean_linker_0, # of connection points: 2
#     Edge 21, Type (0, 1), BuildingBlock: AJUNOK_clean_linker_0, # of connection points: 2
#     Edge 22, Type (0, 1), BuildingBlock: AJUNOK_clean_linker_0, # of connection points: 2
#     Edge 23, Type (0, 1), BuildingBlock: AJUNOK_clean_linker_0, # of connection points: 2
#     Edge 24, Type (0, 1), BuildingBlock: AJUNOK_clean_linker_0, # of connection points: 2
#     Edge 25, Type (0, 1), BuildingBlock: AJUNOK_clean_linker_0, # of connection points: 2
#     Edge 26, Type (0, 1), BuildingBlock: AJUNOK_clean_linker_0, # of connection points: 2
#     Edge 27, Type (0, 1), BuildingBlock: AJUNOK_clean_linker_0, # of connection points: 2
#     Edge 28, Type (0, 1), BuildingBlock: AJUNOK_clean_linker_0, # of connection points: 2
#     Edge 29, Type (0, 1), BuildingBlock: AJUNOK_clean_linker_0, # of connection points: 2
#     Edge 30, Type (0, 1), BuildingBlock: AJUNOK_clean_linker_0, # of connection points: 2
#     Edge 31, Type (0, 1), BuildingBlock: AJUNOK_clean_linker_0, # of connection points: 2
#     Edge 32, Type (0, 1), BuildingBlock: AJUNOK_clean_linker_0, # of connection points: 2
#     Edge 33, Type (0, 1), BuildingBlock: AJUNOK_clean_linker_0, # of connection points: 2
# Relax obj value: 0.009
# Max RMSD: 0.087
# Mean RMSD: 0.076
data_MOF--net-llj--node1-QEWDON_clean_sbu_0--node2-INOVEN_clean_linker_0--edge1-AJUNOK_clean_linker_0
_symmetry_space_group_name_H-M    P1
_symmetry_Int_Tables_number       1
_symmetry_cell_setting            triclinic
loop_
_symmetry_equiv_pos_as_xyz
'x, y, z'
_cell_length_a     30.395761
_cell_length_b     30.432141
_cell_length_c     18.554624
_cell_angle_alpha  91.44958
_cell_angle_beta   91.310755
_cell_angle_gamma 89.998113
loop_
_atom_site_label
_atom_site_type_symbol
_atom_site_fract_x
_atom_site_fract_y
_atom_site_fract_z
_atom_type_partial_charge
Zn0 Zn 0.93921 0.08264 0.92722 0.0
Zn1 Zn 0.94704 0.09571 0.08872 0.0
O2 O 0.98643 0.09221 0.0045 0.0
H3 H 0.01264 0.10946 -0.00236 0.0
C4 C 0.86898 0.01113 0.80595 0.0
O5 O 0.87229 0.03359 0.8672 0.0
Zn6 Zn 0.06402 0.90252 0.06971 0.0
Zn7 Zn 0.07038 0.90337 0.89753 0.0
O8 O 0.02905 0.91439 0.97969 0.0
H9 H 0.00451 0.93442 0.97594 0.0
Zn10 Zn 0.89261 0.93977 0.90159 0.0
O11 O 0.91856 0.9772 0.9832 0.0
Zn12 Zn 0.91224 0.94102 0.07092 0.0
H13 H 0.94121 -0.00111 0.9764 0.0
Zn14 Zn 0.09419 0.05061 0.91637 0.0
O15 O 0.07271 0.01819 0.00236 0.0
H16 H 0.046 0.00104 -0.00097 0.0
Zn17 Zn 0.09057 0.05369 0.09074 0.0
C18 C 0.1368 0.98862 0.81798 0.0
O19 O 0.16194 0.98436 0.87592 0.0
O20 O 0.88593 0.12284 0.94734 0.0
O21 O 0.89579 0.13567 0.0651 0.0
O22 O 0.12454 0.86757 0.92869 0.0
O23 O 0.11593 0.86298 0.04721 0.0
O24 O 0.85628 0.88737 0.93477 0.0
O25 O 0.8689 0.89046 0.0533 0.0
C26 C 0.02171 0.10417 0.17733 0.0
O27 O 0.13348 0.10372 0.94498 0.0
O28 O 0.13229 0.10268 0.06498 0.0
O29 O 0.04159 0.89002 0.79665 0.0
C30 C 0.87469 0.14207 0.00596 0.0
O31 O 0.96531 0.08476 0.82582 0.0
C32 C 0.98469 0.89124 0.1426 0.0
O33 O 0.87575 0.96995 0.80592 0.0
C34 C 0.13703 0.85355 0.99005 0.0
O35 O 0.10462 0.01525 0.82048 0.0
C36 C 0.90331 0.02002 0.15418 0.0
O37 O 0.98209 0.1174 0.17631 0.0
O38 O 0.03428 0.08012 0.1249 0.0
C39 C 0.85015 0.87271 -0.00247 0.0
O40 O 0.02433 0.87799 0.14452 0.0
O41 O 0.97237 0.91673 0.09307 0.0
C42 C 0.10779 0.97431 0.1617 0.0
O43 O 0.892 0.97989 0.15299 0.0
O44 O 0.92556 0.03443 0.10289 0.0
C45 C 0.14544 0.11943 0.00674 0.0
O46 O 0.11655 0.01499 0.16787 0.0
O47 O 0.08679 0.96069 0.10568 0.0
C48 C -0.00016 0.89091 0.79165 0.0
O49 O 0.97745 0.90077 0.84956 0.0
C50 C 0.97901 0.12298 0.81212 0.0
O51 O 0.97251 0.15482 0.85982 0.0
Zn52 Zn 0.44415 0.57715 0.4687 0.0
Zn53 Zn 0.44098 0.58135 0.6379 0.0
O54 O 0.48009 0.56463 0.55811 0.0
H55 H 0.49979 0.53985 0.56061 0.0
C56 C 0.37672 0.50657 0.36183 0.0
O57 O 0.37466 0.52684 0.42489 0.0
Zn58 Zn 0.56189 0.41467 0.61121 0.0
Zn59 Zn 0.54703 0.39949 0.43945 0.0
O60 O 0.52343 0.4319 0.52692 0.0
H61 H 0.50364 0.45674 0.52534 0.0
Zn62 Zn 0.39576 0.43449 0.45428 0.0
O63 O 0.4012 0.47554 0.5393 0.0
Zn64 Zn 0.40166 0.43394 0.61918 0.0
H65 H 0.41971 0.50119 0.53694 0.0
Zn66 Zn 0.59835 0.57132 0.4474 0.0
O67 O 0.583 0.53434 0.5323 0.0
H68 H 0.56948 0.50568 0.52895 0.0
Zn69 Zn 0.5983 0.56862 0.62234 0.0
C70 C 0.61582 0.49702 0.34908 0.0
O71 O 0.60155 0.47507 0.4039 0.0
O72 O 0.39314 0.62055 0.48556 0.0
O73 O 0.39349 0.62505 0.60522 0.0
O74 O 0.59956 0.3587 0.45995 0.0
O75 O 0.60623 0.36755 0.57906 0.0
O76 O 0.36256 0.37786 0.47588 0.0
O77 O 0.36422 0.37913 0.59555 0.0
C78 C 0.52074 0.60553 0.72129 0.0
O79 O 0.63601 0.62472 0.47745 0.0
O80 O 0.63893 0.62035 0.59714 0.0
O81 O 0.50945 0.3906 0.34512 0.0
C82 C 0.37779 0.63647 0.54393 0.0
O83 O 0.48046 0.58315 0.37746 0.0
C84 C 0.48184 0.40027 0.68736 0.0
O85 O 0.38495 0.46566 0.35865 0.0
C86 C 0.61841 0.3497 0.51974 0.0
O87 O 0.61727 0.53869 0.3539 0.0
C88 C 0.38975 0.50737 0.71312 0.0
O89 O 0.47886 0.6069 0.71961 0.0
O90 O 0.53994 0.58861 0.6666 0.0
C91 C 0.35238 0.36099 0.53531 0.0
O92 O 0.52297 0.39339 0.69057 0.0
O93 O 0.46504 0.41837 0.63268 0.0
C94 C 0.62077 0.48658 0.69472 0.0
O95 O 0.37983 0.46687 0.7064 0.0
O96 O 0.41316 0.52381 0.66472 0.0
C97 C 0.65018 0.6387 0.53896 0.0
O98 O 0.629 0.52745 0.6914 0.0
O99 O 0.59432 0.46983 0.64718 0.0
C100 C 0.47008 0.37662 0.344 0.0
O101 O 0.45144 0.36781 0.40513 0.0
C102 C 0.51087 0.61173 0.38117 0.0
O103 O 0.51623 0.63552 0.44081 0.0
H104 H 0.3262 0.31948 0.87676 0.0
H105 H 0.42888 0.38143 0.00652 0.0
H106 H 0.33368 0.29849 0.10387 0.0
N107 N 0.28933 0.27756 0.98055 0.0
N108 N 0.27367 0.25806 0.03236 0.0
C109 C 0.34236 0.32595 0.92861 0.0
C110 C 0.38107 0.35106 0.93358 0.0
C111 C 0.32517 0.30712 0.98967 0.0
C112 C 0.34559 0.31521 0.0574 0.0
C113 C 0.38214 0.34341 0.06473 0.0
C114 C 0.39974 0.361 0.00214 0.0
H115 H 0.71164 0.35691 0.14606 0.0
H116 H 0.64831 0.45541 0.01782 0.0
H117 H 0.71722 0.34837 0.91491 0.0
N118 N 0.74175 0.30893 0.03942 0.0
N119 N 0.75335 0.28599 0.98664 0.0
C120 C 0.70289 0.37 0.09385 0.0
C121 C 0.678 0.40867 0.08934 0.0
C122 C 0.71672 0.34787 0.03155 0.0
C123 C 0.70612 0.36495 0.96354 0.0
C124 C 0.68175 0.40403 0.95841 0.0
C125 C 0.66798 0.42578 0.02155 0.0
H126 H 0.66304 0.68816 0.18041 0.0
H127 H 0.55865 0.62377 0.05675 0.0
H128 H 0.65533 0.69946 0.95039 0.0
N129 N 0.70104 0.72484 0.07021 0.0
N130 N 0.71759 0.73886 0.01436 0.0
C131 C 0.64693 0.67976 0.1292 0.0
C132 C 0.60878 0.65342 0.12672 0.0
C133 C 0.66403 0.69624 0.06592 0.0
C134 C 0.64318 0.68563 -0.00069 0.0
C135 C 0.60609 0.65821 -0.00457 0.0
C136 C 0.58857 0.64308 0.05947 0.0
H137 H 0.31509 0.65969 0.15656 0.0
H138 H 0.38234 0.5592 0.03494 0.0
H139 H 0.31389 0.6619 0.92479 0.0
N140 N 0.28693 0.7046 0.04628 0.0
N141 N 0.2739 0.72405 0.99155 0.0
C142 C 0.32611 0.64609 0.1055 0.0
C143 C 0.34957 0.60647 0.10327 0.0
C144 C 0.31414 0.66693 0.04165 0.0
C145 C 0.32522 0.64752 0.9747 0.0
C146 C 0.34865 0.60785 0.97237 0.0
C147 C 0.36286 0.58906 0.0368 0.0
H148 H 0.83356 0.81275 0.35334 0.0
H149 H 0.94294 0.88179 0.45427 0.0
H150 H 0.85261 0.81103 0.58347 0.0
N151 N 0.80006 0.78283 0.47232 0.0
N152 N 0.78884 0.76655 0.5301 0.0
C153 C 0.85199 0.82301 0.40152 0.0
C154 C 0.89017 0.84843 0.39603 0.0
C155 C 0.83791 0.80994 0.46892 0.0
C156 C 0.86261 0.82217 0.53132 0.0
C157 C 0.90086 0.84776 0.5266 0.0
C158 C 0.91381 0.86157 0.45873 0.0
H159 H 0.19337 0.82676 0.36943 0.0
H160 H 0.13774 0.93744 0.48396 0.0
H161 H 0.20377 0.83535 0.60051 0.0
N162 N 0.22989 0.78943 0.48245 0.0
N163 N 0.24768 0.7746 0.53804 0.0
C164 C 0.18633 0.84408 0.41962 0.0
C165 C 0.16179 0.88319 0.41894 0.0
C166 C 0.20235 0.82721 0.48467 0.0
C167 C 0.19282 0.84925 0.55008 0.0
C168 C 0.16969 0.88932 0.55056 0.0
C169 C 0.15438 0.90595 0.48454 0.0
H170 H 0.14363 0.18366 0.6421 0.0
H171 H 0.05426 0.11795 0.49196 0.0
H172 H 0.17057 0.18031 0.41541 0.0
N173 N 0.19919 0.21114 0.54772 0.0
N174 N 0.22538 0.22222 0.50081 0.0
C175 C 0.13504 0.1726 0.58755 0.0
C176 C 0.09587 0.14918 0.57378 0.0
C177 C 0.1624 0.18364 0.53131 0.0
C178 C 0.15062 0.17062 0.45998 0.0
C179 C 0.11193 0.14631 0.44594 0.0
C180 C 0.08503 0.13515 0.50311 0.0
H181 H 0.81301 0.16701 0.36244 0.0
H182 H 0.8727 0.05965 0.47545 0.0
H183 H 0.7922 0.1529 0.58909 0.0
N184 N 0.77104 0.2011 0.47245 0.0
N185 N 0.75036 0.21438 0.52602 0.0
C186 C 0.81924 0.14948 0.41178 0.0
C187 C 0.84582 0.11174 0.41111 0.0
C188 C 0.7998 0.16445 0.47546 0.0
C189 C 0.80751 0.14179 0.53972 0.0
C190 C 0.8339 0.10394 0.54001 0.0
C191 C 0.8529 0.08922 0.47556 0.0
C192 C 0.19563 0.16985 0.07847 0.0
C193 C 0.17619 0.15732 0.01141 0.0
C194 C 0.22662 0.20381 0.08418 0.0
C195 C 0.23936 0.2266 0.02351 0.0
H196 H 0.18764 0.15273 0.12696 0.0
H197 H 0.24164 0.21176 0.1364 0.0
S198 S 0.19554 0.20989 0.83613 0.0
N199 N 0.16991 0.17284 0.88328 0.0
N200 N 0.22828 0.23659 0.89435 0.0
C201 C 0.21922 0.21573 0.95624 0.0
C202 C 0.18759 0.18107 0.95025 0.0
C203 C 0.82482 0.19163 0.93641 0.0
C204 C 0.83927 0.17556 0.00348 0.0
C205 C 0.79555 0.22702 0.93227 0.0
C206 C 0.77955 0.24766 0.9946 0.0
H207 H 0.83737 0.17791 0.88652 0.0
H208 H 0.78633 0.23935 0.87979 0.0
S209 S 0.80206 0.21447 0.18344 0.0
N210 N 0.83167 0.18034 0.13384 0.0
N211 N 0.77665 0.24691 0.12591 0.0
C212 C 0.7917 0.23059 0.0622 0.0
C213 C 0.82157 0.19448 0.06653 0.0
C214 C 0.79798 0.81718 0.94291 0.0
C215 C 0.81896 0.83556 0.00512 0.0
C216 C 0.76585 0.78463 0.94765 0.0
C217 C 0.75316 0.76908 0.01433 0.0
H218 H 0.80566 0.82854 0.8898 0.0
H219 H 0.7498 0.77213 0.89856 0.0
S220 S 0.80044 0.80268 0.19364 0.0
N221 N 0.82672 0.83311 0.13606 0.0
N222 N 0.76582 0.77191 0.1445 0.0
C223 C 0.77476 0.78562 0.07728 0.0
C224 C 0.80783 0.81886 0.07261 0.0
C225 C 0.1939 0.80748 0.92923 0.0
C226 C 0.17556 0.82377 0.99367 0.0
C227 C 0.22746 0.77611 0.93015 0.0
C228 C 0.24404 0.75982 0.99511 0.0
H229 H 0.18141 0.81792 0.87727 0.0
H230 H 0.23959 0.7632 0.87941 0.0
S231 S 0.21193 0.79582 0.17954 0.0
N232 N 0.17981 0.82427 0.12503 0.0
N233 N 0.24292 0.7651 0.1265 0.0
C234 C 0.2279 0.77736 0.06043 0.0
C235 C 0.19362 0.80942 0.05962 0.0
C236 C 0.68778 0.70108 0.47982 0.0
C237 C 0.68298 0.67498 0.54099 0.0
C238 C 0.72177 0.73206 0.47631 0.0
C239 C 0.75201 0.73821 0.5342 0.0
H240 H 0.66571 0.69691 0.43346 0.0
H241 H 0.72477 0.75065 0.42767 0.0
S242 S 0.75445 0.6797 0.70611 0.0
N243 N 0.71206 0.65821 0.66043 0.0
N244 N 0.77489 0.71746 0.65403 0.0
C245 C 0.74686 0.71378 0.59609 0.0
C246 C 0.71264 0.68191 0.59957 0.0
C247 C 0.32843 0.69184 0.60396 0.0
C248 C 0.34205 0.66996 0.54044 0.0
C249 C 0.29672 0.72529 0.60186 0.0
C250 C 0.27721 0.73824 0.53659 0.0
H251 H 0.34293 0.68372 0.65581 0.0
H252 H 0.28786 0.7419 0.65177 0.0
S253 S 0.29866 0.68975 0.35488 0.0
N254 N 0.33145 0.6625 0.41 0.0
N255 N 0.27208 0.72532 0.4065 0.0
C256 C 0.28938 0.71599 0.47256 0.0
C257 C 0.32173 0.68187 0.47453 0.0
C258 C 0.31708 0.29854 0.466 0.0
C259 C 0.324 0.32117 0.53252 0.0
C260 C 0.2859 0.26492 0.45785 0.0
C261 C 0.26049 0.25225 0.51564 0.0
H262 H 0.33502 0.30759 0.41891 0.0
H263 H 0.2804 0.24964 0.40504 0.0
S264 S 0.26996 0.29619 0.70428 0.0
N265 N 0.30581 0.32514 0.65965 0.0
N266 N 0.24725 0.26153 0.6444 0.0
C267 C 0.26883 0.27239 0.58402 0.0
C268 C 0.30072 0.30687 0.59237 0.0
C269 C 0.66275 0.29238 0.58269 0.0
C270 C 0.65451 0.317 0.52067 0.0
C271 C 0.69502 0.25953 0.58364 0.0
C272 C 0.72023 0.25005 0.52291 0.0
H273 H 0.64332 0.29762 0.63026 0.0
H274 H 0.69975 0.24059 0.63186 0.0
S275 S 0.71493 0.30825 0.34918 0.0
N276 N 0.67678 0.33203 0.39861 0.0
N277 N 0.73706 0.26999 0.40004 0.0
C278 C 0.71349 0.27535 0.46102 0.0
C279 C 0.68064 0.30888 0.4601 0.0
C280 C 0.07167 0.08318 0.27899 0.0
C281 C 0.0513 0.11622 0.23855 0.0
C282 C 0.09342 0.09328 0.34486 0.0
C283 C 0.09615 0.13688 0.37134 0.0
H284 H 0.06774 0.04904 0.26261 0.0
H285 H 0.1065 0.06672 0.37672 0.0
S286 S 0.05031 0.23543 0.28384 0.0
N287 N 0.03642 0.1942 0.22828 0.0
N288 N 0.07835 0.21341 0.35118 0.0
C289 C 0.07768 0.17038 0.3298 0.0
C290 C 0.0549 0.15998 0.26357 0.0
C291 C 0.84946 0.06712 0.21837 0.0
C292 C 0.89159 0.04852 0.21551 0.0
C293 C 0.83558 0.08947 0.28082 0.0
C294 C 0.86343 0.09369 0.34241 0.0
H295 H 0.82662 0.06308 0.17299 0.0
H296 H 0.80213 0.10169 0.28192 0.0
S297 S 0.97811 0.05287 0.35908 0.0
N298 N 0.96165 0.03679 0.27715 0.0
N299 N 0.93642 0.08019 0.39383 0.0
C300 C 0.90646 0.07681 0.33849 0.0
C301 C 0.92032 0.05378 0.27517 0.0
C302 C 0.94054 0.9131 0.24776 0.0
C303 C 0.95484 0.87987 0.20008 0.0
C304 C 0.91746 0.9029 0.30951 0.0
C305 C 0.90769 0.85905 0.32501 0.0
H306 H 0.94968 0.94694 0.23964 0.0
H307 H 0.90871 0.92927 0.34682 0.0
S308 S 0.93573 0.76039 0.21409 0.0
N309 N 0.95624 0.80189 0.16996 0.0
N310 N 0.91226 0.78233 0.28594 0.0
C311 C 0.92012 0.82566 0.27585 0.0
C312 C 0.94407 0.83615 0.21343 0.0
C313 C 0.16124 0.92743 0.22864 0.0
C314 C 0.1188 0.94523 0.22155 0.0
C315 C 0.17443 0.90574 0.29151 0.0
C316 C 0.14572 0.90169 0.34961 0.0
H317 H 0.18481 0.93163 0.18642 0.0
H318 H 0.20792 0.89378 0.29588 0.0
S319 S 0.03019 0.94059 0.35479 0.0
N320 N 0.04756 0.95598 0.27555 0.0
N321 N 0.07191 0.91475 0.39325 0.0
C322 C 0.10261 0.91798 0.34154 0.0
C323 C 0.08927 0.93992 0.27762 0.0
C324 C 0.11331 0.95858 0.69591 0.0
C325 C 0.14593 0.96301 0.7507 0.0
C326 C 0.12122 0.93475 0.63176 0.0
C327 C 0.16212 0.91438 0.61952 0.0
H328 H 0.08118 0.97334 0.70272 0.0
H329 H 0.09484 0.932 0.5917 0.0
S330 S 0.25987 0.91933 0.74346 0.0
N331 N 0.22139 0.94657 0.78719 0.0
N332 N 0.23667 0.90306 0.66607 0.0
C333 C 0.1953 0.9193 0.67341 0.0
C334 C 0.1871 0.94322 0.73903 0.0
C335 C 0.02038 0.09473 0.70511 0.0
C336 C 0.00596 0.13057 0.74805 0.0
C337 C 0.04905 0.10089 0.64802 0.0
C338 C 0.06443 0.14302 0.6323 0.0
H339 H 0.0103 0.06153 0.71655 0.0
H340 H 0.06005 0.07245 0.61708 0.0
S341 S 0.03313 0.24813 0.72252 0.0
N342 N 0.00686 0.21012 0.76665 0.0
N343 N 0.06064 0.22135 0.65959 0.0
C344 C 0.04914 0.1792 0.6729 0.0
C345 C 0.0199 0.17306 0.73069 0.0
C346 C 0.86224 0.07995 0.73562 0.0
C347 C 0.85881 0.03386 0.73783 0.0
C348 C 0.85383 0.10232 0.67167 0.0
C349 C 0.84141 0.07953 0.60753 0.0
H350 H 0.87212 0.09899 0.78339 0.0
H351 H 0.85779 0.13771 0.67221 0.0
S352 S 0.82426 0.95911 0.58552 0.0
N353 N 0.84022 0.96638 0.67064 0.0
N354 N 0.82347 0.00858 0.55106 0.0
C355 C 0.83691 0.03355 0.60926 0.0
C356 C 0.84581 0.0107 0.67421 0.0
C357 C 0.93001 0.88387 0.71902 0.0
C358 C 0.97618 0.88037 0.72256 0.0
C359 C 0.90618 0.87364 0.65548 0.0
C360 C 0.92741 0.85932 0.59265 0.0
H361 H 0.91184 0.89426 0.76592 0.0
H362 H 0.87072 0.87697 0.6557 0.0
S363 S 0.04755 0.84136 0.57416 0.0
N364 N 0.04225 0.85988 0.65793 0.0
N365 N 0.99724 0.83982 0.53873 0.0
C366 C 0.97357 0.85512 0.59536 0.0
C367 C -0.00202 0.86578 0.6602 0.0
C368 C 0.51931 0.63408 0.84887 0.0
C369 C 0.5443 0.6207 0.78889 0.0
C370 C 0.53934 0.64653 0.91496 0.0
C371 C 0.58531 0.6457 0.9245 0.0
H372 H 0.48369 0.63475 0.84531 0.0
H373 H 0.51856 0.65698 0.95884 0.0
S374 S 0.66603 0.61412 0.78628 0.0
N375 N 0.61791 0.61024 0.7437 0.0
N376 N 0.65532 0.62954 0.86966 0.0
C377 C 0.61074 0.63253 0.86553 0.0
C378 C 0.59035 0.62108 0.79748 0.0
C379 C 0.38397 0.57901 0.7825 0.0
C380 C 0.37531 0.53358 0.77667 0.0
C381 C 0.37433 0.60342 0.84519 0.0
C382 C 0.35498 0.58326 0.90373 0.0
H383 H 0.39855 0.59597 0.73882 0.0
H384 H 0.38307 0.63794 0.84854 0.0
S385 S 0.31754 0.46739 0.91118 0.0
N386 N 0.34106 0.47079 0.83227 0.0
N387 N 0.32157 0.51702 0.94857 0.0
C388 C 0.3431 0.53868 0.89673 0.0
C389 C 0.35344 0.51376 0.83352 0.0
C390 C 0.4489 0.41764 0.8056 0.0
C391 C 0.45422 0.38822 0.74713 0.0
C392 C 0.42398 0.40595 0.8647 0.0
C393 C 0.40397 0.36425 0.86747 0.0
H394 H 0.46424 0.44979 0.80571 0.0
H395 H 0.42058 0.42971 0.90867 0.0
S396 S 0.40954 0.27557 0.72618 0.0
N397 N 0.43781 0.31659 0.69354 0.0
N398 N 0.39245 0.29325 0.80561 0.0
C399 C 0.40911 0.33472 0.8083 0.0
C400 C 0.43399 0.34704 0.7479 0.0
C401 C 0.6639 0.48604 0.81089 0.0
C402 C 0.63968 0.46216 0.75714 0.0
C403 C 0.6784 0.46672 0.8747 0.0
C404 C 0.66984 0.42238 0.8875 0.0
H405 H 0.67097 0.52051 0.80493 0.0
H406 H 0.6959 0.48688 0.9149 0.0
S407 S 0.61141 0.3436 0.764 0.0
N408 N 0.61103 0.39029 0.72061 0.0
N409 N 0.63764 0.35418 0.84125 0.0
C410 C 0.64751 0.39736 0.83377 0.0
C411 C 0.63262 0.41716 0.7685 0.0
C412 C 0.65326 0.49713 0.23033 0.0
C413 C 0.63102 0.47375 0.28306 0.0
C414 C 0.66823 0.47597 0.16761 0.0
C415 C 0.66159 0.43067 0.15541 0.0
H416 H 0.65938 0.53205 0.23753 0.0
H417 H 0.68558 0.49508 0.12878 0.0
S418 S 0.60228 0.35506 0.27275 0.0
N419 N 0.60165 0.40292 0.31664 0.0
N420 N 0.62901 0.36362 0.19806 0.0
C421 C 0.63877 0.40707 0.20668 0.0
C422 C 0.62371 0.42848 0.27067 0.0
C423 C 0.56032 0.66024 0.31331 0.0
C424 C 0.53842 0.6198 0.31831 0.0
C425 C 0.58418 0.67018 0.25223 0.0
C426 C 0.58782 0.63973 0.19429 0.0
H427 H 0.55776 0.68516 0.35573 0.0
H428 H 0.59845 0.70269 0.24943 0.0
S429 S 0.54171 0.52655 0.18571 0.0
N430 N 0.52447 0.54771 0.26283 0.0
N431 N 0.57156 0.56532 0.14982 0.0
C432 C 0.56815 0.59809 0.20057 0.0
C433 C 0.5429 0.5884 0.26206 0.0
C434 C 0.37856 0.57671 0.29567 0.0
C435 C 0.36966 0.53134 0.2956 0.0
C436 C 0.37221 0.60098 0.23323 0.0
C437 C 0.35631 0.58068 0.16901 0.0
H438 H 0.39106 0.59353 0.34397 0.0
H439 H 0.38014 0.63571 0.23507 0.0
S440 S 0.32353 0.46365 0.14309 0.0
N441 N 0.34212 0.46756 0.22726 0.0
N442 N 0.32823 0.51339 0.11088 0.0
C443 C 0.34609 0.53555 0.16898 0.0
C444 C 0.35331 0.51079 0.23204 0.0
C445 C 0.47072 0.3635 0.21055 0.0
C446 C 0.44657 0.36858 0.27397 0.0
C447 C 0.44973 0.3551 0.14368 0.0
C448 C 0.40352 0.35248 0.13688 0.0
H449 H 0.50631 0.3652 0.21254 0.0
H450 H 0.47018 0.34994 0.09721 0.0
S451 S 0.3249 0.36576 0.28643 0.0
N452 N 0.37393 0.37064 0.32579 0.0
N453 N 0.33418 0.35773 0.19987 0.0
C454 C 0.37891 0.35828 0.1999 0.0
C455 C 0.40046 0.36569 0.26832 0.0
loop_
_geom_bond_atom_site_label_1
_geom_bond_atom_site_label_2
_geom_bond_distance
_geom_bond_site_symmetry_2
_ccdc_geom_bond_type
Zn0 O2 1.933 1_556 S
Zn0 O20 1.985 . S
Zn0 O31 1.955 . S
Zn1 O2 1.911 . S
Zn1 O21 1.970 . S
Zn1 O37 1.945 . S
Zn1 O44 1.981 . S
O2 Zn0 1.933 1_554 S
O2 Zn1 1.911 . S
O2 H3 0.841 1_655 S
H3 O2 0.841 1_455 S
C4 O5 1.246 . S
C4 O33 1.276 1_545 S
O5 C4 1.246 . S
Zn6 O8 1.911 . S
Zn6 O23 1.970 . S
Zn6 O40 1.945 . S
Zn6 O47 1.981 . S
Zn7 O8 1.933 1_556 S
Zn7 O22 1.985 . S
Zn7 O29 1.955 . S
O8 Zn6 1.911 . S
O8 Zn7 1.933 1_554 S
O8 H9 0.841 1_455 S
H9 O8 0.841 1_655 S
Zn10 O11 1.933 1_556 S
Zn10 O24 1.985 . S
Zn10 O33 1.955 . S
O11 Zn10 1.933 1_554 S
O11 Zn12 1.911 . S
O11 H13 0.841 1_565 S
Zn12 O11 1.911 . S
Zn12 O25 1.970 . S
Zn12 O41 1.981 . S
Zn12 O43 1.945 . S
H13 O11 0.841 1_545 S
Zn14 O15 1.933 1_556 S
Zn14 O27 1.985 . S
Zn14 O35 1.955 . S
O15 Zn14 1.933 1_554 S
O15 H16 0.841 1_545 S
O15 Zn17 1.911 . S
H16 O15 0.841 1_565 S
Zn17 O15 1.911 . S
Zn17 O28 1.970 . S
Zn17 O38 1.981 . S
Zn17 O46 1.945 . S
C18 O19 1.246 . S
C18 O35 1.276 1_565 S
O19 C18 1.246 . S
O20 Zn0 1.985 . S
O20 C30 1.245 1_556 S
O21 Zn1 1.970 . S
O21 C30 1.263 . S
O22 Zn7 1.985 . S
O22 C34 1.245 1_556 S
O23 Zn6 1.970 . S
O23 C34 1.263 . S
O24 Zn10 1.985 . S
O24 C39 1.245 1_556 S
O25 Zn12 1.970 . S
O25 C39 1.263 . S
C26 O37 1.262 1_455 S
C26 O38 1.245 . S
O27 Zn14 1.985 . S
O27 C45 1.245 1_556 S
O28 Zn17 1.970 . S
O28 C45 1.263 . S
O29 Zn7 1.955 . S
O29 C48 1.276 1_455 S
C30 O20 1.245 1_554 S
C30 O21 1.263 . S
O31 Zn0 1.955 . S
O31 C50 1.276 1_655 S
C32 O40 1.262 1_655 S
C32 O41 1.245 . S
O33 C4 1.276 1_565 S
O33 Zn10 1.955 . S
C34 O22 1.245 1_554 S
C34 O23 1.263 . S
O35 Zn14 1.955 . S
O35 C18 1.276 1_545 S
C36 O43 1.262 1_545 S
C36 O44 1.245 . S
O37 Zn1 1.945 . S
O37 C26 1.262 1_655 S
O38 Zn17 1.981 . S
O38 C26 1.245 . S
C39 O24 1.245 1_554 S
C39 O25 1.263 . S
O40 Zn6 1.945 . S
O40 C32 1.262 1_455 S
O41 Zn12 1.981 . S
O41 C32 1.245 . S
C42 O46 1.262 1_565 S
C42 O47 1.245 . S
O43 Zn12 1.945 . S
O43 C36 1.262 1_565 S
O44 Zn1 1.981 . S
O44 C36 1.245 . S
C45 O27 1.245 1_554 S
C45 O28 1.263 . S
O46 Zn17 1.945 . S
O46 C42 1.262 1_545 S
O47 Zn6 1.981 . S
O47 C42 1.245 . S
C48 O29 1.276 1_655 S
C48 O49 1.246 . S
O49 C48 1.246 . S
C50 O31 1.276 1_455 S
C50 O51 1.246 . S
O51 C50 1.246 . S
Zn52 O54 1.933 . S
Zn52 O72 1.985 . S
Zn52 O83 1.955 . S
Zn53 O54 1.911 . S
Zn53 O73 1.970 . S
Zn53 O89 1.945 . S
Zn53 O96 1.981 . S
O54 Zn52 1.933 . S
O54 Zn53 1.911 . S
O54 H55 0.841 . S
H55 O54 0.841 . S
C56 O57 1.246 . S
C56 O85 1.276 . S
O57 C56 1.246 . S
Zn58 O60 1.911 . S
Zn58 O75 1.970 . S
Zn58 O92 1.945 . S
Zn58 O99 1.981 . S
Zn59 O60 1.933 . S
Zn59 O74 1.985 . S
Zn59 O81 1.955 . S
O60 Zn58 1.911 . S
O60 Zn59 1.933 . S
O60 H61 0.841 . S
H61 O60 0.841 . S
Zn62 O63 1.933 . S
Zn62 O76 1.985 . S
Zn62 O85 1.955 . S
O63 Zn62 1.933 . S
O63 Zn64 1.911 . S
O63 H65 0.841 . S
Zn64 O63 1.911 . S
Zn64 O77 1.970 . S
Zn64 O93 1.981 . S
Zn64 O95 1.945 . S
H65 O63 0.841 . S
Zn66 O67 1.933 . S
Zn66 O79 1.985 . S
Zn66 O87 1.955 . S
O67 Zn66 1.933 . S
O67 H68 0.841 . S
O67 Zn69 1.911 . S
H68 O67 0.841 . S
Zn69 O67 1.911 . S
Zn69 O80 1.970 . S
Zn69 O90 1.981 . S
Zn69 O98 1.945 . S
C70 O71 1.246 . S
C70 O87 1.276 . S
O71 C70 1.246 . S
O72 Zn52 1.985 . S
O72 C82 1.245 . S
O73 Zn53 1.970 . S
O73 C82 1.263 . S
O74 Zn59 1.985 . S
O74 C86 1.245 . S
O75 Zn58 1.970 . S
O75 C86 1.263 . S
O76 Zn62 1.985 . S
O76 C91 1.245 . S
O77 Zn64 1.970 . S
O77 C91 1.263 . S
C78 O89 1.262 . S
C78 O90 1.245 . S
O79 Zn66 1.985 . S
O79 C97 1.245 . S
O80 Zn69 1.970 . S
O80 C97 1.263 . S
O81 Zn59 1.955 . S
O81 C100 1.276 . S
C82 O72 1.245 . S
C82 O73 1.263 . S
O83 Zn52 1.955 . S
O83 C102 1.276 . S
C84 O92 1.262 . S
C84 O93 1.245 . S
O85 C56 1.276 . S
O85 Zn62 1.955 . S
C86 O74 1.245 . S
C86 O75 1.263 . S
O87 Zn66 1.955 . S
O87 C70 1.276 . S
C88 O95 1.262 . S
C88 O96 1.245 . S
O89 Zn53 1.945 . S
O89 C78 1.262 . S
O90 Zn69 1.981 . S
O90 C78 1.245 . S
C91 O76 1.245 . S
C91 O77 1.263 . S
O92 Zn58 1.945 . S
O92 C84 1.262 . S
O93 Zn64 1.981 . S
O93 C84 1.245 . S
C94 O98 1.262 . S
C94 O99 1.245 . S
O95 Zn64 1.945 . S
O95 C88 1.262 . S
O96 Zn53 1.981 . S
O96 C88 1.245 . S
C97 O79 1.245 . S
C97 O80 1.263 . S
O98 Zn69 1.945 . S
O98 C94 1.262 . S
O99 Zn58 1.981 . S
O99 C94 1.245 . S
C100 O81 1.276 . S
C100 O101 1.246 . S
O101 C100 1.246 . S
C102 O83 1.276 . S
C102 O103 1.246 . S
O103 C102 1.246 . S
H104 C109 0.929 . S
H105 C114 0.931 . S
H106 C112 0.930 . S
N107 N108 1.234 1_556 S
N107 C111 1.453 . S
N108 N107 1.234 1_554 S
C109 H104 0.929 . S
C109 C110 1.373 . S
C109 C111 1.368 . S
C110 C109 1.373 . S
C110 C114 1.397 1_556 S
C111 N107 1.453 . S
C111 C109 1.368 . S
C111 C112 1.373 1_556 S
C112 H106 0.930 . S
C112 C111 1.373 1_554 S
C112 C113 1.371 . S
C113 C112 1.371 . S
C113 C114 1.383 . S
C114 H105 0.931 . S
C114 C110 1.397 1_554 S
C114 C113 1.383 . S
H115 C120 0.929 . S
H116 C125 0.931 . S
H117 C123 0.930 . S
N118 N119 1.234 1_554 S
N118 C122 1.453 . S
N119 N118 1.234 1_556 S
C120 H115 0.929 . S
C120 C121 1.373 . S
C120 C122 1.368 . S
C121 C120 1.373 . S
C121 C125 1.397 . S
C122 N118 1.453 . S
C122 C120 1.368 . S
C122 C123 1.373 1_554 S
C123 H117 0.930 . S
C123 C122 1.373 1_556 S
C123 C124 1.371 . S
C124 C123 1.371 . S
C124 C125 1.383 1_556 S
C125 H116 0.931 . S
C125 C121 1.397 . S
C125 C124 1.383 1_554 S
H126 C131 0.929 . S
H127 C136 0.931 . S
H128 C134 0.930 . S
N129 N130 1.231 1_554 S
N129 C133 1.453 . S
N130 N129 1.231 1_556 S
C131 H126 0.929 . S
C131 C132 1.373 . S
C131 C133 1.368 . S
C132 C131 1.373 . S
C132 C136 1.397 . S
C133 N129 1.453 . S
C133 C131 1.368 . S
C133 C134 1.373 1_554 S
C134 H128 0.930 . S
C134 C133 1.373 1_556 S
C134 C135 1.371 . S
C135 C134 1.371 . S
C135 C136 1.383 1_556 S
C136 H127 0.931 . S
C136 C132 1.397 . S
C136 C135 1.383 1_554 S
H137 C142 0.929 . S
H138 C147 0.931 . S
H139 C145 0.930 . S
N140 N141 1.234 1_554 S
N140 C144 1.453 . S
N141 N140 1.234 1_556 S
C142 H137 0.929 . S
C142 C143 1.373 . S
C142 C144 1.368 . S
C143 C142 1.373 . S
C143 C147 1.397 . S
C144 N140 1.453 . S
C144 C142 1.368 . S
C144 C145 1.373 1_554 S
C145 H139 0.930 . S
C145 C144 1.373 1_556 S
C145 C146 1.371 . S
C146 C145 1.371 . S
C146 C147 1.383 1_556 S
C147 H138 0.931 . S
C147 C143 1.397 . S
C147 C146 1.383 1_554 S
H148 C153 0.929 . S
H149 C158 0.931 . S
H150 C156 0.930 . S
N151 N152 1.234 . S
N151 C155 1.453 . S
N152 N151 1.234 . S
C153 H148 0.929 . S
C153 C154 1.373 . S
C153 C155 1.368 . S
C154 C153 1.373 . S
C154 C158 1.397 . S
C155 N151 1.453 . S
C155 C153 1.368 . S
C155 C156 1.373 . S
C156 H150 0.930 . S
C156 C155 1.373 . S
C156 C157 1.371 . S
C157 C156 1.371 . S
C157 C158 1.383 . S
C158 H149 0.931 . S
C158 C154 1.397 . S
C158 C157 1.383 . S
H159 C164 0.929 . S
H160 C169 0.931 . S
H161 C167 0.930 . S
N162 N163 1.234 . S
N162 C166 1.453 . S
N163 N162 1.234 . S
C164 H159 0.929 . S
C164 C165 1.373 . S
C164 C166 1.368 . S
C165 C164 1.373 . S
C165 C169 1.397 . S
C166 N162 1.453 . S
C166 C164 1.368 . S
C166 C167 1.373 . S
C167 H161 0.930 . S
C167 C166 1.373 . S
C167 C168 1.371 . S
C168 C167 1.371 . S
C168 C169 1.383 . S
C169 H160 0.931 . S
C169 C165 1.397 . S
C169 C168 1.383 . S
H170 C175 0.929 . S
H171 C180 0.931 . S
H172 C178 0.930 . S
N173 N174 1.234 . S
N173 C177 1.453 . S
N174 N173 1.234 . S
C175 H170 0.929 . S
C175 C176 1.373 . S
C175 C177 1.368 . S
C176 C175 1.373 . S
C176 C180 1.397 . S
C177 N173 1.453 . S
C177 C175 1.368 . S
C177 C178 1.373 . S
C178 H172 0.930 . S
C178 C177 1.373 . S
C178 C179 1.371 . S
C179 C178 1.371 . S
C179 C180 1.383 . S
C180 H171 0.931 . S
C180 C176 1.397 . S
C180 C179 1.383 . S
H181 C186 0.929 . S
H182 C191 0.931 . S
H183 C189 0.930 . S
N184 N185 1.234 . S
N184 C188 1.453 . S
N185 N184 1.234 . S
C186 H181 0.929 . S
C186 C187 1.373 . S
C186 C188 1.368 . S
C187 C186 1.373 . S
C187 C191 1.397 . S
C188 N184 1.453 . S
C188 C186 1.368 . S
C188 C189 1.373 . S
C189 H183 0.930 . S
C189 C188 1.373 . S
C189 C190 1.371 . S
C190 C189 1.371 . S
C190 C191 1.383 . S
C191 H182 0.931 . S
C191 C187 1.397 . S
C191 C190 1.383 . S
C192 C193 1.369 . S
C192 C194 1.419 . S
C192 H196 0.930 . S
C193 C192 1.369 . S
C193 C202 1.429 . S
C194 C192 1.419 . S
C194 C195 1.363 . S
C194 H197 0.929 . S
C195 C194 1.363 . S
C195 C201 1.428 . S
H196 C192 0.930 . S
H197 C194 0.929 . S
S198 N199 1.613 . S
S198 N200 1.610 . S
N199 S198 1.613 . S
N199 C202 1.350 . S
N200 S198 1.610 . S
N200 C201 1.351 . S
C201 C195 1.428 . S
C201 N200 1.351 . S
C201 C202 1.434 . S
C202 C193 1.429 . S
C202 N199 1.350 . S
C202 C201 1.434 . S
C203 C204 1.369 1_556 S
C203 C205 1.419 . S
C203 H207 0.930 . S
C204 C203 1.369 1_554 S
C204 C213 1.429 . S
C205 C203 1.419 . S
C205 C206 1.363 1_556 S
C205 H208 0.929 . S
C206 C205 1.363 1_554 S
C206 C212 1.428 . S
H207 C203 0.930 . S
H208 C205 0.929 . S
S209 N210 1.613 . S
S209 N211 1.610 . S
N210 S209 1.613 . S
N210 C213 1.350 . S
N211 S209 1.610 . S
N211 C212 1.351 . S
C212 C206 1.428 . S
C212 N211 1.351 . S
C212 C213 1.434 . S
C213 C204 1.429 . S
C213 N210 1.350 . S
C213 C212 1.434 . S
C214 C215 1.369 1_556 S
C214 C216 1.419 . S
C214 H218 0.930 . S
C215 C214 1.369 1_554 S
C215 C224 1.429 . S
C216 C214 1.419 . S
C216 C217 1.363 1_556 S
C216 H219 0.929 . S
C217 C216 1.363 1_554 S
C217 C223 1.428 . S
H218 C214 0.930 . S
H219 C216 0.929 . S
S220 N221 1.613 . S
S220 N222 1.610 . S
N221 S220 1.613 . S
N221 C224 1.350 . S
N222 S220 1.610 . S
N222 C223 1.351 . S
C223 C217 1.428 . S
C223 N222 1.351 . S
C223 C224 1.434 . S
C224 C215 1.429 . S
C224 N221 1.350 . S
C224 C223 1.434 . S
C225 C226 1.369 1_556 S
C225 C227 1.419 . S
C225 H229 0.930 . S
C226 C225 1.369 1_554 S
C226 C235 1.429 . S
C227 C225 1.419 . S
C227 C228 1.363 . S
C227 H230 0.929 . S
C228 C227 1.363 . S
C228 C234 1.429 1_556 S
H229 C225 0.930 . S
H230 C227 0.929 . S
S231 N232 1.613 . S
S231 N233 1.610 . S
N232 S231 1.613 . S
N232 C235 1.350 . S
N233 S231 1.610 . S
N233 C234 1.351 . S
C234 C228 1.429 1_554 S
C234 N233 1.351 . S
C234 C235 1.434 . S
C235 C226 1.429 . S
C235 N232 1.350 . S
C235 C234 1.434 . S
C236 C237 1.369 . S
C236 C238 1.419 . S
C236 H240 0.930 . S
C237 C236 1.369 . S
C237 C246 1.429 . S
C238 C236 1.419 . S
C238 C239 1.363 . S
C238 H241 0.929 . S
C239 C238 1.363 . S
C239 C245 1.428 . S
H240 C236 0.930 . S
H241 C238 0.929 . S
S242 N243 1.613 . S
S242 N244 1.610 . S
N243 S242 1.613 . S
N243 C246 1.350 . S
N244 S242 1.610 . S
N244 C245 1.351 . S
C245 C239 1.428 . S
C245 N244 1.351 . S
C245 C246 1.434 . S
C246 C237 1.429 . S
C246 N243 1.350 . S
C246 C245 1.434 . S
C247 C248 1.369 . S
C247 C249 1.419 . S
C247 H251 0.930 . S
C248 C247 1.369 . S
C248 C257 1.429 . S
C249 C247 1.419 . S
C249 C250 1.363 . S
C249 H252 0.929 . S
C250 C249 1.363 . S
C250 C256 1.428 . S
H251 C247 0.930 . S
H252 C249 0.929 . S
S253 N254 1.613 . S
S253 N255 1.610 . S
N254 S253 1.613 . S
N254 C257 1.350 . S
N255 S253 1.610 . S
N255 C256 1.351 . S
C256 C250 1.428 . S
C256 N255 1.351 . S
C256 C257 1.434 . S
C257 C248 1.429 . S
C257 N254 1.350 . S
C257 C256 1.434 . S
C258 C259 1.369 . S
C258 C260 1.419 . S
C258 H262 0.930 . S
C259 C258 1.369 . S
C259 C268 1.429 . S
C260 C258 1.419 . S
C260 C261 1.363 . S
C260 H263 0.929 . S
C261 C260 1.363 . S
C261 C267 1.428 . S
H262 C258 0.930 . S
H263 C260 0.929 . S
S264 N265 1.613 . S
S264 N266 1.610 . S
N265 S264 1.613 . S
N265 C268 1.350 . S
N266 S264 1.610 . S
N266 C267 1.351 . S
C267 C261 1.428 . S
C267 N266 1.351 . S
C267 C268 1.434 . S
C268 C259 1.429 . S
C268 N265 1.350 . S
C268 C267 1.434 . S
C269 C270 1.369 . S
C269 C271 1.419 . S
C269 H273 0.930 . S
C270 C269 1.369 . S
C270 C279 1.429 . S
C271 C269 1.419 . S
C271 C272 1.363 . S
C271 H274 0.929 . S
C272 C271 1.363 . S
C272 C278 1.428 . S
H273 C269 0.930 . S
H274 C271 0.929 . S
S275 N276 1.613 . S
S275 N277 1.610 . S
N276 S275 1.613 . S
N276 C279 1.350 . S
N277 S275 1.610 . S
N277 C278 1.351 . S
C278 C272 1.428 . S
C278 N277 1.351 . S
C278 C279 1.434 . S
C279 C270 1.429 . S
C279 N276 1.350 . S
C279 C278 1.434 . S
C280 C281 1.369 . S
C280 C282 1.419 . S
C280 H284 0.930 . S
C281 C280 1.369 . S
C281 C290 1.429 . S
C282 C280 1.419 . S
C282 C283 1.363 . S
C282 H285 0.929 . S
C283 C282 1.363 . S
C283 C289 1.428 . S
H284 C280 0.930 . S
H285 C282 0.929 . S
S286 N287 1.613 . S
S286 N288 1.610 . S
N287 S286 1.613 . S
N287 C290 1.350 . S
N288 S286 1.610 . S
N288 C289 1.351 . S
C289 C283 1.428 . S
C289 N288 1.351 . S
C289 C290 1.434 . S
C290 C281 1.429 . S
C290 N287 1.350 . S
C290 C289 1.434 . S
C291 C292 1.369 . S
C291 C293 1.419 . S
C291 H295 0.930 . S
C292 C291 1.369 . S
C292 C301 1.429 . S
C293 C291 1.419 . S
C293 C294 1.363 . S
C293 H296 0.929 . S
C294 C293 1.363 . S
C294 C300 1.428 . S
H295 C291 0.930 . S
H296 C293 0.929 . S
S297 N298 1.613 . S
S297 N299 1.610 . S
N298 S297 1.613 . S
N298 C301 1.350 . S
N299 S297 1.610 . S
N299 C300 1.351 . S
C300 C294 1.428 . S
C300 N299 1.351 . S
C300 C301 1.434 . S
C301 C292 1.429 . S
C301 N298 1.350 . S
C301 C300 1.434 . S
C302 C303 1.369 . S
C302 C304 1.419 . S
C302 H306 0.930 . S
C303 C302 1.369 . S
C303 C312 1.429 . S
C304 C302 1.419 . S
C304 C305 1.363 . S
C304 H307 0.929 . S
C305 C304 1.363 . S
C305 C311 1.428 . S
H306 C302 0.930 . S
H307 C304 0.929 . S
S308 N309 1.613 . S
S308 N310 1.610 . S
N309 S308 1.613 . S
N309 C312 1.350 1_455 S
N310 S308 1.610 . S
N310 C311 1.351 1_455 S
C311 C305 1.428 . S
C311 N310 1.351 1_655 S
C311 C312 1.434 . S
C312 C303 1.429 . S
C312 N309 1.350 1_655 S
C312 C311 1.434 . S
C313 C314 1.369 . S
C313 C315 1.419 . S
C313 H317 0.930 . S
C314 C313 1.369 . S
C314 C323 1.429 . S
C315 C313 1.419 . S
C315 C316 1.363 . S
C315 H318 0.929 . S
C316 C315 1.363 . S
C316 C322 1.428 . S
H317 C313 0.930 . S
H318 C315 0.929 . S
S319 N320 1.613 . S
S319 N321 1.610 . S
N320 S319 1.613 . S
N320 C323 1.350 . S
N321 S319 1.610 . S
N321 C322 1.351 . S
C322 C316 1.428 . S
C322 N321 1.351 . S
C322 C323 1.434 . S
C323 C314 1.429 . S
C323 N320 1.350 . S
C323 C322 1.434 . S
C324 C325 1.369 . S
C324 C326 1.419 . S
C324 H328 0.930 . S
C325 C324 1.369 . S
C325 C334 1.429 . S
C326 C324 1.419 . S
C326 C327 1.363 . S
C326 H329 0.929 . S
C327 C326 1.363 . S
C327 C333 1.428 . S
H328 C324 0.930 . S
H329 C326 0.929 . S
S330 N331 1.613 . S
S330 N332 1.610 . S
N331 S330 1.613 . S
N331 C334 1.350 . S
N332 S330 1.610 . S
N332 C333 1.351 . S
C333 C327 1.428 . S
C333 N332 1.351 . S
C333 C334 1.434 . S
C334 C325 1.429 . S
C334 N331 1.350 . S
C334 C333 1.434 . S
C335 C336 1.369 . S
C335 C337 1.419 . S
C335 H339 0.930 . S
C336 C335 1.369 . S
C336 C345 1.429 . S
C337 C335 1.419 . S
C337 C338 1.363 . S
C337 H340 0.929 . S
C338 C337 1.363 . S
C338 C344 1.428 . S
H339 C335 0.930 . S
H340 C337 0.929 . S
S341 N342 1.613 . S
S341 N343 1.610 1_655 S
N342 S341 1.613 . S
N342 C345 1.350 1_655 S
N343 S341 1.610 1_455 S
N343 C344 1.351 . S
C344 C338 1.428 . S
C344 N343 1.351 . S
C344 C345 1.434 . S
C345 C336 1.429 . S
C345 N342 1.350 1_455 S
C345 C344 1.434 . S
C346 C347 1.369 . S
C346 C348 1.419 . S
C346 H350 0.930 . S
C347 C346 1.369 . S
C347 C356 1.429 . S
C348 C346 1.419 . S
C348 C349 1.363 . S
C348 H351 0.929 . S
C349 C348 1.363 . S
C349 C355 1.428 . S
H350 C346 0.930 . S
H351 C348 0.929 . S
S352 N353 1.613 . S
S352 N354 1.610 1_565 S
N353 S352 1.613 . S
N353 C356 1.350 1_565 S
N354 S352 1.610 1_545 S
N354 C355 1.351 . S
C355 C349 1.428 . S
C355 N354 1.351 . S
C355 C356 1.434 . S
C356 C347 1.429 . S
C356 N353 1.350 1_545 S
C356 C355 1.434 . S
C357 C358 1.369 . S
C357 C359 1.419 . S
C357 H361 0.930 . S
C358 C357 1.369 . S
C358 C367 1.429 . S
C359 C357 1.419 . S
C359 C360 1.363 . S
C359 H362 0.929 . S
C360 C359 1.363 . S
C360 C366 1.428 . S
H361 C357 0.930 . S
H362 C359 0.929 . S
S363 N364 1.613 . S
S363 N365 1.610 . S
N364 S363 1.613 . S
N364 C367 1.350 1_455 S
N365 S363 1.610 . S
N365 C366 1.351 1_455 S
C366 C360 1.428 . S
C366 N365 1.351 1_655 S
C366 C367 1.434 . S
C367 C358 1.429 . S
C367 N364 1.350 1_655 S
C367 C366 1.434 . S
C368 C369 1.369 . S
C368 C370 1.419 . S
C368 H372 0.930 . S
C369 C368 1.369 . S
C369 C378 1.429 . S
C370 C368 1.419 . S
C370 C371 1.363 . S
C370 H373 0.929 . S
C371 C370 1.363 . S
C371 C377 1.428 . S
H372 C368 0.930 . S
H373 C370 0.929 . S
S374 N375 1.613 . S
S374 N376 1.610 . S
N375 S374 1.613 . S
N375 C378 1.350 . S
N376 S374 1.610 . S
N376 C377 1.351 . S
C377 C371 1.428 . S
C377 N376 1.351 . S
C377 C378 1.434 . S
C378 C369 1.429 . S
C378 N375 1.350 . S
C378 C377 1.434 . S
C379 C380 1.369 . S
C379 C381 1.419 . S
C379 H383 0.930 . S
C380 C379 1.369 . S
C380 C389 1.429 . S
C381 C379 1.419 . S
C381 C382 1.363 . S
C381 H384 0.929 . S
C382 C381 1.363 . S
C382 C388 1.428 . S
H383 C379 0.930 . S
H384 C381 0.929 . S
S385 N386 1.613 . S
S385 N387 1.610 . S
N386 S385 1.613 . S
N386 C389 1.350 . S
N387 S385 1.610 . S
N387 C388 1.351 . S
C388 C382 1.428 . S
C388 N387 1.351 . S
C388 C389 1.434 . S
C389 C380 1.429 . S
C389 N386 1.350 . S
C389 C388 1.434 . S
C390 C391 1.369 . S
C390 C392 1.419 . S
C390 H394 0.930 . S
C391 C390 1.369 . S
C391 C400 1.429 . S
C392 C390 1.419 . S
C392 C393 1.363 . S
C392 H395 0.929 . S
C393 C392 1.363 . S
C393 C399 1.428 . S
H394 C390 0.930 . S
H395 C392 0.929 . S
S396 N397 1.613 . S
S396 N398 1.610 . S
N397 S396 1.613 . S
N397 C400 1.350 . S
N398 S396 1.610 . S
N398 C399 1.351 . S
C399 C393 1.428 . S
C399 N398 1.351 . S
C399 C400 1.434 . S
C400 C391 1.429 . S
C400 N397 1.350 . S
C400 C399 1.434 . S
C401 C402 1.369 . S
C401 C403 1.419 . S
C401 H405 0.930 . S
C402 C401 1.369 . S
C402 C411 1.429 . S
C403 C401 1.419 . S
C403 C404 1.363 . S
C403 H406 0.929 . S
C404 C403 1.363 . S
C404 C410 1.428 . S
H405 C401 0.930 . S
H406 C403 0.929 . S
S407 N408 1.613 . S
S407 N409 1.610 . S
N408 S407 1.613 . S
N408 C411 1.350 . S
N409 S407 1.610 . S
N409 C410 1.351 . S
C410 C404 1.428 . S
C410 N409 1.351 . S
C410 C411 1.434 . S
C411 C402 1.429 . S
C411 N408 1.350 . S
C411 C410 1.434 . S
C412 C413 1.369 . S
C412 C414 1.419 . S
C412 H416 0.930 . S
C413 C412 1.369 . S
C413 C422 1.429 . S
C414 C412 1.419 . S
C414 C415 1.363 . S
C414 H417 0.929 . S
C415 C414 1.363 . S
C415 C421 1.428 . S
H416 C412 0.930 . S
H417 C414 0.929 . S
S418 N419 1.613 . S
S418 N420 1.610 . S
N419 S418 1.613 . S
N419 C422 1.350 . S
N420 S418 1.610 . S
N420 C421 1.351 . S
C421 C415 1.428 . S
C421 N420 1.351 . S
C421 C422 1.434 . S
C422 C413 1.429 . S
C422 N419 1.350 . S
C422 C421 1.434 . S
C423 C424 1.369 . S
C423 C425 1.419 . S
C423 H427 0.930 . S
C424 C423 1.369 . S
C424 C433 1.429 . S
C425 C423 1.419 . S
C425 C426 1.363 . S
C425 H428 0.929 . S
C426 C425 1.363 . S
C426 C432 1.428 . S
H427 C423 0.930 . S
H428 C425 0.929 . S
S429 N430 1.613 . S
S429 N431 1.610 . S
N430 S429 1.613 . S
N430 C433 1.350 . S
N431 S429 1.610 . S
N431 C432 1.351 . S
C432 C426 1.428 . S
C432 N431 1.351 . S
C432 C433 1.434 . S
C433 C424 1.429 . S
C433 N430 1.350 . S
C433 C432 1.434 . S
C434 C435 1.369 . S
C434 C436 1.419 . S
C434 H438 0.930 . S
C435 C434 1.369 . S
C435 C444 1.429 . S
C436 C434 1.419 . S
C436 C437 1.363 . S
C436 H439 0.929 . S
C437 C436 1.363 . S
C437 C443 1.428 . S
H438 C434 0.930 . S
H439 C436 0.929 . S
S440 N441 1.613 . S
S440 N442 1.610 . S
N441 S440 1.613 . S
N441 C444 1.350 . S
N442 S440 1.610 . S
N442 C443 1.351 . S
C443 C437 1.428 . S
C443 N442 1.351 . S
C443 C444 1.434 . S
C444 C435 1.429 . S
C444 N441 1.350 . S
C444 C443 1.434 . S
C445 C446 1.369 . S
C445 C447 1.419 . S
C445 H449 0.930 . S
C446 C445 1.369 . S
C446 C455 1.429 . S
C447 C445 1.419 . S
C447 C448 1.363 . S
C447 H450 0.929 . S
C448 C447 1.363 . S
C448 C454 1.428 . S
H449 C445 0.930 . S
H450 C447 0.929 . S
S451 N452 1.613 . S
S451 N453 1.610 . S
N452 S451 1.613 . S
N452 C455 1.350 . S
N453 S451 1.610 . S
N453 C454 1.351 . S
C454 C448 1.428 . S
C454 N453 1.351 . S
C454 C455 1.434 . S
C455 C446 1.429 . S
C455 N452 1.350 . S
C455 C454 1.434 . S
C193 C45 1.555 . S
C195 N108 1.562 . S
C204 C30 1.550 . S
C206 N119 1.558 1_554 S
C215 C39 1.553 . S
C217 N130 1.547 1_554 S
C228 N141 1.552 . S
C226 C34 1.555 . S
C237 C97 1.549 . S
C239 N152 1.560 . S
C250 N163 1.565 . S
C248 C82 1.548 . S
C261 N174 1.558 . S
C259 C91 1.551 . S
C272 N185 1.564 . S
C270 C86 1.553 . S
C283 C179 1.562 . S
C281 C26 1.519 . S
C294 C187 1.487 . S
C292 C36 1.452 . S
C305 C154 1.548 . S
C303 C32 1.503 . S
C316 C165 1.485 . S
C314 C42 1.458 . S
C325 C18 1.571 . S
C327 C168 1.631 . S
C338 C176 1.584 . S
C336 C50 1.500 . S
C347 C4 1.581 . S
C349 C190 1.622 . S
C358 C48 1.517 . S
C360 C157 1.566 . S
C371 C135 1.509 . S
C369 C78 1.471 . S
C380 C88 1.523 . S
C382 C146 1.570 . S
C393 C110 1.497 . S
C391 C84 1.454 . S
C404 C124 1.567 . S
C402 C94 1.534 . S
C415 C121 1.573 . S
C413 C70 1.500 . S
C426 C132 1.629 . S
C424 C102 1.558 . S
C435 C56 1.497 . S
C437 C143 1.570 . S
C446 C100 1.566 . S
C448 C113 1.617 . S
