# Generated by pormake.
# Topology anh, (6,3)-cn, num edge types: 1
# Building blocks:
#     Node 0, Type 0, BuildingBlock: GEDQOX_clean_sbu_0, # of connection points: 6
#     Node 1, Type 0, BuildingBlock: GEDQOX_clean_sbu_0, # of connection points: 6
#     Node 2, Type 0, BuildingBlock: GEDQOX_clean_sbu_0, # of connection points: 6
#     Node 3, Type 1, BuildingBlock: INOVEN_clean_linker_0, # of connection points: 3
#     Node 4, Type 1, BuildingBlock: INOVEN_clean_linker_0, # of connection points: 3
#     Node 5, Type 1, BuildingBlock: INOVEN_clean_linker_0, # of connection points: 3
#     Node 6, Type 1, BuildingBlock: INOVEN_clean_linker_0, # of connection points: 3
#     Node 7, Type 1, BuildingBlock: INOVEN_clean_linker_0, # of connection points: 3
#     Node 8, Type 1, BuildingBlock: INOVEN_clean_linker_0, # of connection points: 3
#     Edge 9, Type (0, 1), BuildingBlock: EYOCIG_clean_linker_4, # of connection points: 2
#     Edge 10, Type (0, 1), BuildingBlock: EYOCIG_clean_linker_4, # of connection points: 2
#     Edge 11, Type (0, 1), BuildingBlock: EYOCIG_clean_linker_4, # of connection points: 2
#     Edge 12, Type (0, 1), BuildingBlock: EYOCIG_clean_linker_4, # of connection points: 2
#     Edge 13, Type (0, 1), BuildingBlock: EYOCIG_clean_linker_4, # of connection points: 2
#     Edge 14, Type (0, 1), BuildingBlock: EYOCIG_clean_linker_4, # of connection points: 2
#     Edge 15, Type (0, 1), BuildingBlock: EYOCIG_clean_linker_4, # of connection points: 2
#     Edge 16, Type (0, 1), BuildingBlock: EYOCIG_clean_linker_4, # of connection points: 2
#     Edge 17, Type (0, 1), BuildingBlock: EYOCIG_clean_linker_4, # of connection points: 2
#     Edge 18, Type (0, 1), BuildingBlock: EYOCIG_clean_linker_4, # of connection points: 2
#     Edge 19, Type (0, 1), BuildingBlock: EYOCIG_clean_linker_4, # of connection points: 2
#     Edge 20, Type (0, 1), BuildingBlock: EYOCIG_clean_linker_4, # of connection points: 2
#     Edge 21, Type (0, 1), BuildingBlock: EYOCIG_clean_linker_4, # of connection points: 2
#     Edge 22, Type (0, 1), BuildingBlock: EYOCIG_clean_linker_4, # of connection points: 2
#     Edge 23, Type (0, 1), BuildingBlock: EYOCIG_clean_linker_4, # of connection points: 2
#     Edge 24, Type (0, 1), BuildingBlock: EYOCIG_clean_linker_4, # of connection points: 2
#     Edge 25, Type (0, 1), BuildingBlock: EYOCIG_clean_linker_4, # of connection points: 2
#     Edge 26, Type (0, 1), BuildingBlock: EYOCIG_clean_linker_4, # of connection points: 2
# Relax obj value: 0.188
# Max RMSD: 0.204
# Mean RMSD: 0.113
data_MOF--net-anh--node1-GEDQOX_clean_sbu_0--node2-INOVEN_clean_linker_0--edge1-EYOCIG_clean_linker_4
_symmetry_space_group_name_H-M    P1
_symmetry_Int_Tables_number       1
_symmetry_cell_setting            triclinic
loop_
_symmetry_equiv_pos_as_xyz
'x, y, z'
_cell_length_a     24.469761
_cell_length_b     23.575753
_cell_length_c     39.148257
_cell_angle_alpha  95.949698
_cell_angle_beta   94.685033
_cell_angle_gamma 96.604466
loop_
_atom_site_label
_atom_site_type_symbol
_atom_site_fract_x
_atom_site_fract_y
_atom_site_fract_z
_atom_type_partial_charge
Nd0 Nd 0.14211 0.63051 0.15992 0.0
Nd1 Nd 0.11282 0.50258 0.14838 0.0
C2 C 0.19245 0.73391 0.15479 0.0
C3 C 0.25054 0.7615 0.15812 0.0
C4 C 0.28285 0.75809 0.12989 0.0
C5 C 0.33505 0.79003 0.13196 0.0
C6 C 0.35539 0.82533 0.16224 0.0
C7 C 0.32516 0.82638 0.19105 0.0
C8 C 0.27305 0.79469 0.18905 0.0
C9 C 0.12775 0.58283 0.21921 0.0
C10 C 0.24616 0.54632 0.15137 0.0
C11 C 1.0595 0.3997 0.15025 0.0
C12 C 1.0003 0.37531 0.14546 0.0
C13 C 0.96683 0.38048 0.17292 0.0
C14 C 0.91447 0.34914 0.17038 0.0
C15 C 0.89467 0.31274 0.14035 0.0
C16 C 0.9251 0.31161 0.11164 0.0
C17 C 0.97779 0.34284 0.11417 0.0
C18 C 0.12586 0.55337 0.09083 0.0
C19 C 1.00795 0.58509 0.14989 0.0
O20 O 0.1769 0.69553 0.12812 0.0
O21 O 0.17166 0.71989 0.18298 0.0
O22 O 0.11333 0.63259 0.21373 0.0
O23 O 0.15272 0.56107 0.19495 0.0
O24 O 0.22904 0.59797 0.15245 0.0
O25 O 0.20945 0.50011 0.15247 0.0
O26 O 1.07614 0.43539 0.17809 0.0
O27 O 1.082 0.41498 0.12289 0.0
O28 O 0.14138 0.50343 0.09448 0.0
O29 O 1.10069 0.57237 0.1153 0.0
O30 O 1.02504 0.53393 0.15134 0.0
O31 O 1.04521 0.63134 0.15002 0.0
H32 H 0.26717 0.73231 0.10584 0.0
H33 H 0.35863 0.78851 0.10969 0.0
H34 H 0.34108 0.85319 0.21477 0.0
H35 H 0.24967 0.79773 0.21135 0.0
H36 H 0.9821 0.40613 0.19709 0.0
H37 H 0.8909 0.35062 0.19267 0.0
H38 H 0.9099 0.28377 0.08819 0.0
H39 H 1.00204 0.33901 0.09231 0.0
Nd40 Nd 0.53886 0.0404 0.50195 0.0
Nd41 Nd 0.65893 0.07641 0.51004 0.0
C42 C 0.44348 0.9809 0.50909 0.0
C43 C 0.42137 0.91914 0.50511 0.0
C44 C 0.42476 0.88657 0.53332 0.0
C45 C 0.39502 0.8318 0.53126 0.0
C46 C 0.36212 0.80935 0.50097 0.0
C47 C 0.36273 0.83901 0.47186 0.0
C48 C 0.39222 0.89358 0.47386 0.0
C49 C 0.5815 0.05543 0.44064 0.0
C50 C 0.62413 0.94008 0.50209 0.0
C51 C 0.75405 0.13745 0.50467 0.0
C52 C 0.77463 0.19964 0.50967 0.0
C53 C 0.77081 0.23285 0.48189 0.0
C54 C 0.80071 0.28736 0.48431 0.0
C55 C 0.83419 0.30929 0.51452 0.0
C56 C 0.83294 0.27978 0.54365 0.0
C57 C 0.80325 0.22501 0.54124 0.0
C58 C 0.61765 0.05895 0.57097 0.0
C59 C 0.57291 0.17622 0.50771 0.0
O60 O 0.48071 0.99907 0.53499 0.0
O61 O 0.45357 1.00442 0.48103 0.0
O62 O 0.53359 0.06931 0.44778 0.0
O63 O 0.60405 0.03124 0.46444 0.0
O64 O 0.57438 0.95445 0.50573 0.0
O65 O 0.66641 0.97934 0.49954 0.0
O66 O 0.71793 0.11923 0.47816 0.0
O67 O 0.7436 0.11257 0.53219 0.0
O68 O 0.66524 0.04534 0.56312 0.0
O69 O 0.59427 0.08444 0.54797 0.0
O70 O 0.62285 0.16179 0.50512 0.0
O71 O 0.5306 0.13731 0.51056 0.0
H72 H 0.44791 0.90448 0.55754 0.0
H73 H 0.39538 0.80856 0.55374 0.0
H74 H 0.33792 0.82135 0.4481 0.0
H75 H 0.38968 0.91686 0.45146 0.0
H76 H 0.74805 0.2153 0.45747 0.0
H77 H 0.80127 0.31021 0.46165 0.0
H78 H 0.85874 0.29658 0.56716 0.0
H79 H 0.80597 0.20106 0.56333 0.0
Nd80 Nd 0.60241 0.51219 0.82266 0.0
Nd81 Nd 0.70782 0.53747 0.81837 0.0
C82 C 0.49878 0.48612 0.80517 0.0
C83 C 0.46491 0.53261 0.80227 0.0
C84 C 0.46637 0.56472 0.77383 0.0
C85 C 0.4357 0.61079 0.77234 0.0
C86 C 0.40412 0.62485 0.7993 0.0
C87 C 0.41109 0.59971 0.83015 0.0
C88 C 0.43898 0.55209 0.83102 0.0
C89 C 0.6436 0.53418 0.8903 0.0
C90 C 0.64432 0.64793 0.82605 0.0
C91 C 0.8136 0.55821 0.82759 0.0
C92 C 0.84544 0.51013 0.82091 0.0
C93 C 0.84832 0.469 0.84437 0.0
C94 C 0.87521 0.42101 0.83665 0.0
C95 C 0.90284 0.41626 0.80662 0.0
C96 C 0.8893 0.44976 0.78035 0.0
C97 C 0.86381 0.49862 0.78815 0.0
C98 C 0.65949 0.52327 0.75173 0.0
C99 C 0.66633 0.40162 0.81524 0.0
O100 O 0.53442 0.48107 0.7822 0.0
O101 O 0.51957 0.48262 0.83658 0.0
O102 O 0.59567 0.54554 0.8783 0.0
O103 O 0.66934 0.50934 0.86683 0.0
O104 O 0.59984 0.61017 0.82377 0.0
O105 O 0.69314 0.63096 0.82664 0.0
O106 O 0.78395 0.55595 0.85383 0.0
O107 O 0.78667 0.57227 0.80022 0.0
O108 O 0.70633 0.50607 0.76072 0.0
O109 O 0.63996 0.54857 0.77733 0.0
O110 O 0.70977 0.43898 0.81341 0.0
O111 O 0.61848 0.419 0.81877 0.0
H112 H 0.48912 0.55293 0.75213 0.0
H113 H 0.43119 0.63018 0.74852 0.0
H114 H 0.38778 0.611 0.85172 0.0
H115 H 0.43936 0.53005 0.854 0.0
H116 H 0.8316 0.47463 0.86911 0.0
H117 H 0.88379 0.39465 0.85708 0.0
H118 H 0.90913 0.44597 0.75658 0.0
H119 H 0.85965 0.52793 0.76879 0.0
H120 H 0.60509 0.03163 0.17418 0.0
H121 H 0.54471 0.99511 0.27051 0.0
H122 H 0.68754 0.12012 0.26947 0.0
N123 N 0.68459 0.1103 0.1988 0.0
N124 N 0.71588 0.15441 0.2105 0.0
C125 C 0.6085 0.03891 0.20215 0.0
C126 C 0.57043 1.00946 0.22042 0.0
C127 C 0.65005 0.07932 0.2194 0.0
C128 C 0.65488 0.08909 0.25581 0.0
C129 C 0.61722 0.05799 0.27439 0.0
C130 C 0.5745 0.01868 0.25647 0.0
H131 H 0.59399 0.50443 0.4804 0.0
H132 H 0.60143 0.43352 0.57777 0.0
H133 H 0.61082 0.61552 0.57693 0.0
N134 N 0.60467 0.61688 0.50796 0.0
N135 N 0.60315 0.6654 0.52406 0.0
C136 C 0.5975 0.51039 0.50834 0.0
C137 C 0.59626 0.46189 0.52715 0.0
C138 C 0.60237 0.56679 0.52612 0.0
C139 C 0.60655 0.57316 0.56259 0.0
C140 C 0.60659 0.52539 0.58097 0.0
C141 C 0.6016 0.47033 0.56324 0.0
H142 H 0.11587 0.52868 0.8351 0.0
H143 H 1.06006 0.60162 0.9293 0.0
H144 H 0.21376 0.52841 0.93042 0.0
N145 N 0.20476 0.49786 0.86141 0.0
N146 N 0.25353 0.51963 0.86463 0.0
C147 C 0.12232 0.54075 0.86284 0.0
C148 C 1.08302 0.56747 0.88006 0.0
C149 C 0.16705 0.52364 0.88095 0.0
C150 C 0.17747 0.54006 0.91634 0.0
C151 C 0.14022 0.57115 0.93327 0.0
C152 C 1.09198 0.5838 0.91543 0.0
H153 H 0.14245 0.57008 0.48536 0.0
H154 H 0.1888 0.62691 0.38977 0.0
H155 H 1.05772 0.48814 0.38917 0.0
N156 N 1.06031 0.49496 0.45944 0.0
N157 N 1.01623 0.46682 0.4465 0.0
C158 C 0.13728 0.56609 0.45737 0.0
C159 C 0.17002 0.60264 0.43957 0.0
C160 C 1.09623 0.52572 0.43959 0.0
C161 C 1.08923 0.52002 0.40324 0.0
C162 C 0.12308 0.55616 0.38522 0.0
C163 C 0.16296 0.59826 0.40351 0.0
H164 H 0.66406 0.07702 0.83805 0.0
H165 H 0.62905 0.14506 0.74165 0.0
H166 H 0.63012 0.96397 0.74242 0.0
N167 N 0.65308 0.96564 0.81129 0.0
N168 N 0.64778 0.91638 0.79528 0.0
C169 C 0.65395 0.07033 0.81034 0.0
C170 C 0.64737 0.11766 0.79172 0.0
C171 C 0.64774 1.01417 0.79278 0.0
C172 C 0.63487 1.00649 0.75661 0.0
C173 C 0.62758 0.05345 0.73848 0.0
C174 C 0.63404 0.10867 0.75601 0.0
H175 H 0.67755 0.56642 0.16594 0.0
H176 H 0.75165 0.5555 0.06923 0.0
H177 H 0.57535 0.54286 0.06833 0.0
N178 N 0.56732 0.55376 0.13725 0.0
N179 N 0.51983 0.54863 0.1207 0.0
C180 C 0.67334 0.56121 0.138 0.0
C181 C 0.72272 0.56202 0.11978 0.0
C182 C 0.61839 0.55413 0.1197 0.0
C183 C 0.6153 0.54789 0.08315 0.0
C184 C 0.66306 0.54847 0.06522 0.0
C185 C 0.71549 0.55506 0.08358 0.0
C186 C 0.35784 0.54293 0.14587 0.0
C187 C 0.30698 0.54199 0.14836 0.0
C188 C 0.41805 0.5456 0.14164 0.0
C189 C 0.4675 0.54762 0.13507 0.0
C190 C 0.91148 0.38983 0.5042 0.0
C191 C 0.87805 0.35398 0.51256 0.0
C192 C 0.9503 0.42041 0.48654 0.0
C193 C 0.98132 0.44158 0.46796 0.0
C194 C 0.64418 0.75979 0.8245 0.0
C195 C 0.64081 0.70833 0.82517 0.0
C196 C 0.64912 0.81908 0.82017 0.0
C197 C 0.65033 0.86686 0.81141 0.0
C198 C 0.89489 0.58421 0.14476 0.0
C199 C 0.94648 0.58797 0.14704 0.0
C200 C 0.83356 0.5772 0.14113 0.0
C201 C 0.78206 0.57085 0.13541 0.0
C202 C 0.28754 0.71962 0.49195 0.0
C203 C 0.32324 0.75904 0.49989 0.0
C204 C 0.24544 0.6782 0.47572 0.0
C205 C 0.2112 0.64394 0.45889 0.0
C206 C 0.66654 0.28926 0.81492 0.0
C207 C 0.67001 0.3409 0.81484 0.0
C208 C 0.66037 0.2284 0.81343 0.0
C209 C 0.65567 0.17657 0.80757 0.0
C210 C 0.62523 0.82699 0.50004 0.0
C211 C 0.6298 0.87911 0.50056 0.0
C212 C 0.6161 0.76641 0.50238 0.0
C213 C 0.60906 0.71703 0.50927 0.0
C214 C 0.99249 0.46068 0.82655 0.0
C215 C 0.96079 0.42018 0.81408 0.0
C216 C 1.00502 0.51619 0.84366 0.0
C217 C 1.029 0.55437 0.86354 0.0
C218 C 0.44645 0.89699 0.17101 0.0
C219 C 0.40598 0.86278 0.16395 0.0
C220 C 0.49075 0.93707 0.18578 0.0
C221 C 0.52708 0.97008 0.20163 0.0
C222 C 0.57109 0.28864 0.50599 0.0
C223 C 0.56692 0.23683 0.50704 0.0
C224 C 0.58003 0.34991 0.5065 0.0
C225 C 0.58723 0.40226 0.51139 0.0
C226 C 0.30452 0.61822 0.79648 0.0
C227 C 0.34952 0.63717 0.79031 0.0
C228 C 0.28056 0.57641 0.81533 0.0
C229 C 0.27143 0.54558 0.83713 0.0
C230 C 0.80996 0.24043 0.15034 0.0
C231 C 0.84796 0.27079 0.14174 0.0
C232 C 0.77345 0.20801 0.16875 0.0
C233 C 0.74658 0.18303 0.18812 0.0
C234 C 0.14609 0.59746 0.03476 0.0
C235 C 0.13471 0.58207 0.06157 0.0
C236 C 0.15199 0.59735 -0.00012 0.0
C237 C 0.14819 0.58467 0.96949 0.0
C238 C 0.61266 0.0626 0.37787 0.0
C239 C 0.60098 0.05806 0.40699 0.0
C240 C 0.62019 0.0659 0.34255 0.0
C241 C 0.6218 0.06494 0.3117 0.0
C242 C 0.62983 0.53185 0.68555 0.0
C243 C 0.64194 0.52882 0.71597 0.0
C244 C 0.61911 0.53367 0.64942 0.0
C245 C 0.61349 0.53227 0.61831 0.0
C246 C 0.59767 0.05036 0.63524 0.0
C247 C 0.6015 0.05665 0.6053 0.0
C248 C 0.60369 0.04546 0.67097 0.0
C249 C 0.61449 0.046 0.70162 0.0
C250 C 0.65895 0.53606 0.95912 0.0
C251 C 0.65567 0.5335 0.9276 0.0
C252 C 0.65905 0.53971 -0.00392 0.0
C253 C 0.65923 0.54356 0.02745 0.0
C254 C 0.12091 0.55244 0.28164 0.0
C255 C 0.12587 0.56248 0.25241 0.0
C256 C 0.11733 0.54866 0.31716 0.0
C257 C 0.11797 0.55 0.34806 0.0
loop_
_geom_bond_atom_site_label_1
_geom_bond_atom_site_label_2
_geom_bond_distance
_geom_bond_site_symmetry_2
_ccdc_geom_bond_type
Nd0 C2 2.836 . S
Nd0 O20 2.500 . S
Nd0 O21 2.492 . S
Nd0 O22 2.487 . S
Nd0 O23 2.682 . S
Nd0 O24 2.410 . S
Nd0 O29 2.414 . S
Nd0 O31 2.424 1_455 S
Nd1 C11 2.844 . S
Nd1 O23 2.415 1_655 S
Nd1 O25 2.414 1_655 S
Nd1 O26 2.508 . S
Nd1 O27 2.499 . S
Nd1 O28 2.487 . S
Nd1 O29 2.680 1_655 S
Nd1 O30 2.419 . S
C2 Nd0 2.836 . S
C2 C3 1.498 . S
C2 O20 1.258 . S
C2 O21 1.239 . S
C3 C2 1.498 . S
C3 C4 1.366 . S
C3 C8 1.407 . S
C4 C3 1.366 . S
C4 C5 1.392 . S
C4 H32 0.930 . S
C5 C4 1.392 . S
C5 C6 1.398 . S
C5 H33 0.929 . S
C6 C5 1.398 . S
C6 C7 1.352 . S
C7 C6 1.352 . S
C7 C8 1.384 . S
C7 H34 0.930 . S
C8 C3 1.407 . S
C8 C7 1.384 . S
C8 H35 0.929 . S
C9 O22 1.241 . S
C9 O23 1.273 . S
C10 O24 1.251 . S
C10 O25 1.268 . S
C11 Nd1 2.844 . S
C11 C12 1.498 . S
C11 O26 1.258 . S
C11 O27 1.239 . S
C12 C11 1.498 . S
C12 C13 1.366 . S
C12 C17 1.407 . S
C13 C12 1.366 . S
C13 C14 1.392 . S
C13 H36 0.930 . S
C14 C13 1.392 . S
C14 C15 1.398 . S
C14 H37 0.929 . S
C15 C14 1.398 . S
C15 C16 1.352 . S
C16 C15 1.352 . S
C16 C17 1.384 . S
C16 H38 0.930 . S
C17 C12 1.407 . S
C17 C16 1.384 . S
C17 H39 0.929 . S
C18 O28 1.237 1_455 S
C18 O29 1.273 . S
C19 O30 1.251 . S
C19 O31 1.268 . S
O20 Nd0 2.500 . S
O20 C2 1.258 . S
O21 Nd0 2.492 . S
O21 C2 1.239 . S
O22 Nd0 2.487 . S
O22 C9 1.241 . S
O23 Nd0 2.682 . S
O23 Nd1 2.415 1_455 S
O23 C9 1.273 . S
O24 Nd0 2.410 . S
O24 C10 1.251 . S
O25 Nd1 2.414 1_455 S
O25 C10 1.268 . S
O26 Nd1 2.508 . S
O26 C11 1.258 . S
O27 Nd1 2.499 . S
O27 C11 1.239 . S
O28 Nd1 2.487 . S
O28 C18 1.237 1_655 S
O29 Nd0 2.414 . S
O29 Nd1 2.680 1_455 S
O29 C18 1.273 . S
O30 Nd1 2.419 . S
O30 C19 1.251 . S
O31 Nd0 2.424 1_655 S
O31 C19 1.268 . S
H32 C4 0.930 . S
H33 C5 0.929 . S
H34 C7 0.930 . S
H35 C8 0.929 . S
H36 C13 0.930 . S
H37 C14 0.929 . S
H38 C16 0.930 . S
H39 C17 0.929 . S
Nd40 C42 2.836 1_545 S
Nd40 O60 2.500 1_545 S
Nd40 O61 2.492 1_545 S
Nd40 O62 2.487 . S
Nd40 O63 2.682 . S
Nd40 O64 2.410 1_545 S
Nd40 O69 2.414 . S
Nd40 O71 2.424 . S
Nd41 C51 2.836 . S
Nd41 O63 2.414 . S
Nd41 O65 2.424 1_545 S
Nd41 O66 2.500 . S
Nd41 O67 2.492 . S
Nd41 O68 2.487 . S
Nd41 O69 2.682 . S
Nd41 O70 2.410 . S
C42 Nd40 2.836 1_565 S
C42 C43 1.498 . S
C42 O60 1.258 . S
C42 O61 1.239 . S
C43 C42 1.498 . S
C43 C44 1.366 . S
C43 C48 1.407 . S
C44 C43 1.366 . S
C44 C45 1.392 . S
C44 H72 0.930 . S
C45 C44 1.392 . S
C45 C46 1.398 . S
C45 H73 0.929 . S
C46 C45 1.398 . S
C46 C47 1.352 . S
C47 C46 1.352 . S
C47 C48 1.384 . S
C47 H74 0.930 . S
C48 C43 1.407 . S
C48 C47 1.384 . S
C48 H75 0.929 . S
C49 O62 1.241 . S
C49 O63 1.273 . S
C50 O64 1.251 . S
C50 O65 1.268 . S
C51 Nd41 2.836 . S
C51 C52 1.498 . S
C51 O66 1.258 . S
C51 O67 1.239 . S
C52 C51 1.498 . S
C52 C53 1.366 . S
C52 C57 1.407 . S
C53 C52 1.366 . S
C53 C54 1.392 . S
C53 H76 0.930 . S
C54 C53 1.392 . S
C54 C55 1.398 . S
C54 H77 0.929 . S
C55 C54 1.398 . S
C55 C56 1.352 . S
C56 C55 1.352 . S
C56 C57 1.384 . S
C56 H78 0.930 . S
C57 C52 1.407 . S
C57 C56 1.384 . S
C57 H79 0.929 . S
C58 O68 1.241 . S
C58 O69 1.273 . S
C59 O70 1.251 . S
C59 O71 1.268 . S
O60 Nd40 2.500 1_565 S
O60 C42 1.258 . S
O61 Nd40 2.492 1_565 S
O61 C42 1.239 . S
O62 Nd40 2.487 . S
O62 C49 1.241 . S
O63 Nd40 2.682 . S
O63 Nd41 2.414 . S
O63 C49 1.273 . S
O64 Nd40 2.410 1_565 S
O64 C50 1.251 . S
O65 Nd41 2.424 1_565 S
O65 C50 1.268 . S
O66 Nd41 2.500 . S
O66 C51 1.258 . S
O67 Nd41 2.492 . S
O67 C51 1.239 . S
O68 Nd41 2.487 . S
O68 C58 1.241 . S
O69 Nd40 2.414 . S
O69 Nd41 2.682 . S
O69 C58 1.273 . S
O70 Nd41 2.410 . S
O70 C59 1.251 . S
O71 Nd40 2.424 . S
O71 C59 1.268 . S
H72 C44 0.930 . S
H73 C45 0.929 . S
H74 C47 0.930 . S
H75 C48 0.929 . S
H76 C53 0.930 . S
H77 C54 0.929 . S
H78 C56 0.930 . S
H79 C57 0.929 . S
Nd80 C82 2.836 . S
Nd80 O100 2.500 . S
Nd80 O101 2.492 . S
Nd80 O102 2.487 . S
Nd80 O103 2.682 . S
Nd80 O104 2.410 . S
Nd80 O109 2.414 . S
Nd80 O111 2.424 . S
Nd81 C91 2.836 . S
Nd81 O103 2.414 . S
Nd81 O105 2.424 . S
Nd81 O106 2.500 . S
Nd81 O107 2.492 . S
Nd81 O108 2.487 . S
Nd81 O109 2.682 . S
Nd81 O110 2.410 . S
C82 Nd80 2.836 . S
C82 C83 1.498 . S
C82 O100 1.258 . S
C82 O101 1.239 . S
C83 C82 1.498 . S
C83 C84 1.366 . S
C83 C88 1.407 . S
C84 C83 1.366 . S
C84 C85 1.392 . S
C84 H112 0.930 . S
C85 C84 1.392 . S
C85 C86 1.398 . S
C85 H113 0.929 . S
C86 C85 1.398 . S
C86 C87 1.352 . S
C87 C86 1.352 . S
C87 C88 1.384 . S
C87 H114 0.930 . S
C88 C83 1.407 . S
C88 C87 1.384 . S
C88 H115 0.929 . S
C89 O102 1.241 . S
C89 O103 1.273 . S
C90 O104 1.251 . S
C90 O105 1.268 . S
C91 Nd81 2.836 . S
C91 C92 1.498 . S
C91 O106 1.258 . S
C91 O107 1.239 . S
C92 C91 1.498 . S
C92 C93 1.366 . S
C92 C97 1.407 . S
C93 C92 1.366 . S
C93 C94 1.392 . S
C93 H116 0.930 . S
C94 C93 1.392 . S
C94 C95 1.398 . S
C94 H117 0.929 . S
C95 C94 1.398 . S
C95 C96 1.352 . S
C96 C95 1.352 . S
C96 C97 1.384 . S
C96 H118 0.930 . S
C97 C92 1.407 . S
C97 C96 1.384 . S
C97 H119 0.929 . S
C98 O108 1.241 . S
C98 O109 1.273 . S
C99 O110 1.251 . S
C99 O111 1.268 . S
O100 Nd80 2.500 . S
O100 C82 1.258 . S
O101 Nd80 2.492 . S
O101 C82 1.239 . S
O102 Nd80 2.487 . S
O102 C89 1.241 . S
O103 Nd80 2.682 . S
O103 Nd81 2.414 . S
O103 C89 1.273 . S
O104 Nd80 2.410 . S
O104 C90 1.251 . S
O105 Nd81 2.424 . S
O105 C90 1.268 . S
O106 Nd81 2.500 . S
O106 C91 1.258 . S
O107 Nd81 2.492 . S
O107 C91 1.239 . S
O108 Nd81 2.487 . S
O108 C98 1.241 . S
O109 Nd80 2.414 . S
O109 Nd81 2.682 . S
O109 C98 1.273 . S
O110 Nd81 2.410 . S
O110 C99 1.251 . S
O111 Nd80 2.424 . S
O111 C99 1.268 . S
H112 C84 0.930 . S
H113 C85 0.929 . S
H114 C87 0.930 . S
H115 C88 0.929 . S
H116 C93 0.930 . S
H117 C94 0.929 . S
H118 C96 0.930 . S
H119 C97 0.929 . S
H120 C125 0.929 . S
H121 C130 0.931 1_565 S
H122 C128 0.930 . S
N123 N124 1.234 . S
N123 C127 1.453 . S
N124 N123 1.234 . S
C125 H120 0.929 . S
C125 C126 1.373 1_545 S
C125 C127 1.368 . S
C126 C125 1.373 1_565 S
C126 C130 1.397 1_565 S
C127 N123 1.453 . S
C127 C125 1.368 . S
C127 C128 1.373 . S
C128 H122 0.930 . S
C128 C127 1.373 . S
C128 C129 1.371 . S
C129 C128 1.371 . S
C129 C130 1.383 . S
C130 H121 0.931 1_545 S
C130 C126 1.397 1_545 S
C130 C129 1.383 . S
H131 C136 0.929 . S
H132 C141 0.931 . S
H133 C139 0.930 . S
N134 N135 1.234 . S
N134 C138 1.453 . S
N135 N134 1.234 . S
C136 H131 0.929 . S
C136 C137 1.373 . S
C136 C138 1.368 . S
C137 C136 1.373 . S
C137 C141 1.397 . S
C138 N134 1.453 . S
C138 C136 1.368 . S
C138 C139 1.373 . S
C139 H133 0.930 . S
C139 C138 1.373 . S
C139 C140 1.371 . S
C140 C139 1.371 . S
C140 C141 1.383 . S
C141 H132 0.931 . S
C141 C137 1.397 . S
C141 C140 1.383 . S
H142 C147 0.929 . S
H143 C152 0.931 . S
H144 C150 0.930 . S
N145 N146 1.234 . S
N145 C149 1.453 . S
N146 N145 1.234 . S
C147 H142 0.929 . S
C147 C148 1.373 1_455 S
C147 C149 1.368 . S
C148 C147 1.373 1_655 S
C148 C152 1.397 . S
C149 N145 1.453 . S
C149 C147 1.368 . S
C149 C150 1.373 . S
C150 H144 0.930 . S
C150 C149 1.373 . S
C150 C151 1.371 . S
C151 C150 1.371 . S
C151 C152 1.383 1_455 S
C152 H143 0.931 . S
C152 C148 1.397 . S
C152 C151 1.383 1_655 S
H153 C158 0.929 . S
H154 C163 0.931 . S
H155 C161 0.930 . S
N156 N157 1.234 . S
N156 C160 1.453 . S
N157 N156 1.234 . S
C158 H153 0.929 . S
C158 C159 1.373 . S
C158 C160 1.368 1_455 S
C159 C158 1.373 . S
C159 C163 1.397 . S
C160 N156 1.453 . S
C160 C158 1.368 1_655 S
C160 C161 1.373 . S
C161 H155 0.930 . S
C161 C160 1.373 . S
C161 C162 1.371 1_655 S
C162 C161 1.371 1_455 S
C162 C163 1.383 . S
C163 H154 0.931 . S
C163 C159 1.397 . S
C163 C162 1.383 . S
H164 C169 0.929 . S
H165 C174 0.931 . S
H166 C172 0.930 . S
N167 N168 1.234 . S
N167 C171 1.453 1_565 S
N168 N167 1.234 . S
C169 H164 0.929 . S
C169 C170 1.373 . S
C169 C171 1.368 . S
C170 C169 1.373 . S
C170 C174 1.397 . S
C171 N167 1.453 1_545 S
C171 C169 1.368 . S
C171 C172 1.373 1_545 S
C172 H166 0.930 . S
C172 C171 1.373 1_565 S
C172 C173 1.371 1_565 S
C173 C172 1.371 1_545 S
C173 C174 1.383 . S
C174 H165 0.931 . S
C174 C170 1.397 . S
C174 C173 1.383 . S
H175 C180 0.929 . S
H176 C185 0.931 . S
H177 C183 0.930 . S
N178 N179 1.234 . S
N178 C182 1.453 . S
N179 N178 1.234 . S
C180 H175 0.929 . S
C180 C181 1.373 . S
C180 C182 1.368 . S
C181 C180 1.373 . S
C181 C185 1.397 . S
C182 N178 1.453 . S
C182 C180 1.368 . S
C182 C183 1.373 . S
C183 H177 0.930 . S
C183 C182 1.373 . S
C183 C184 1.371 . S
C184 C183 1.371 . S
C184 C185 1.383 . S
C185 H176 0.931 . S
C185 C181 1.397 . S
C185 C184 1.383 . S
C186 C187 1.170 . S
C186 C188 1.380 . S
C187 C186 1.170 . S
C188 C186 1.380 . S
C188 C189 1.170 . S
C189 C188 1.170 . S
C190 C191 1.170 . S
C190 C192 1.380 . S
C191 C190 1.170 . S
C192 C190 1.380 . S
C192 C193 1.170 . S
C193 C192 1.170 . S
C194 C195 1.170 . S
C194 C196 1.380 . S
C195 C194 1.170 . S
C196 C194 1.380 . S
C196 C197 1.170 . S
C197 C196 1.170 . S
C198 C199 1.170 . S
C198 C200 1.380 . S
C199 C198 1.170 . S
C200 C198 1.380 . S
C200 C201 1.170 . S
C201 C200 1.170 . S
C202 C203 1.170 . S
C202 C204 1.380 . S
C203 C202 1.170 . S
C204 C202 1.380 . S
C204 C205 1.170 . S
C205 C204 1.170 . S
C206 C207 1.170 . S
C206 C208 1.380 . S
C207 C206 1.170 . S
C208 C206 1.380 . S
C208 C209 1.170 . S
C209 C208 1.170 . S
C210 C211 1.170 . S
C210 C212 1.380 . S
C211 C210 1.170 . S
C212 C210 1.380 . S
C212 C213 1.170 . S
C213 C212 1.170 . S
C214 C215 1.170 . S
C214 C216 1.380 . S
C215 C214 1.170 . S
C216 C214 1.380 . S
C216 C217 1.170 . S
C217 C216 1.170 . S
C218 C219 1.170 . S
C218 C220 1.380 . S
C219 C218 1.170 . S
C220 C218 1.380 . S
C220 C221 1.170 . S
C221 C220 1.170 . S
C222 C223 1.170 . S
C222 C224 1.380 . S
C223 C222 1.170 . S
C224 C222 1.380 . S
C224 C225 1.170 . S
C225 C224 1.170 . S
C226 C227 1.170 . S
C226 C228 1.380 . S
C227 C226 1.170 . S
C228 C226 1.380 . S
C228 C229 1.170 . S
C229 C228 1.170 . S
C230 C231 1.170 . S
C230 C232 1.380 . S
C231 C230 1.170 . S
C232 C230 1.380 . S
C232 C233 1.170 . S
C233 C232 1.170 . S
C234 C235 1.170 . S
C234 C236 1.380 1_554 S
C235 C234 1.170 . S
C236 C234 1.380 1_556 S
C236 C237 1.170 . S
C237 C236 1.170 . S
C238 C239 1.170 . S
C238 C240 1.380 . S
C239 C238 1.170 . S
C240 C238 1.380 . S
C240 C241 1.170 . S
C241 C240 1.170 . S
C242 C243 1.170 . S
C242 C244 1.380 . S
C243 C242 1.170 . S
C244 C242 1.380 . S
C244 C245 1.170 . S
C245 C244 1.170 . S
C246 C247 1.170 . S
C246 C248 1.380 . S
C247 C246 1.170 . S
C248 C246 1.380 . S
C248 C249 1.170 . S
C249 C248 1.170 . S
C250 C251 1.170 . S
C250 C252 1.360 1_556 S
C251 C250 1.170 . S
C252 C250 1.360 1_554 S
C252 C253 1.190 . S
C253 C252 1.190 . S
C254 C255 1.170 . S
C254 C256 1.380 . S
C255 C254 1.170 . S
C256 C254 1.380 . S
C256 C257 1.170 . S
C257 C256 1.170 . S
C187 C10 3.170 . S
C189 N179 3.072 . S
C191 C55 1.343 . S
C193 N157 1.336 . S
C195 C90 1.956 . S
C197 N168 1.915 . S
C199 C19 2.990 . S
C201 C181 2.980 . S
C205 C159 1.243 . S
C203 C46 1.201 . S
C209 C170 1.942 . S
C207 C99 1.951 . S
C211 C50 1.956 . S
C213 N135 1.896 . S
C215 C95 0.723 . S
C217 C148 0.804 . S
C219 C6 1.209 . S
C221 C126 1.231 . S
C225 C137 1.890 . S
C223 C59 1.915 . S
C229 N146 0.664 . S
C227 C86 0.780 . S
C231 C15 1.375 . S
C233 N124 1.395 . S
C237 C151 1.163 . S
C235 C18 1.155 . S
C239 C49 1.496 . S
C241 C129 1.503 . S
C243 C98 1.417 . S
C245 C140 1.436 . S
C249 C173 1.444 . S
C247 C58 1.412 . S
C253 C184 1.777 . S
C251 C89 1.678 . S
C255 C9 1.519 . S
C257 C162 1.529 . S
