# Generated by pormake.
# Topology zzz, (3,6)-cn, num edge types: 1
# Building blocks:
#     Node 0, Type 0, BuildingBlock: BETDAH_clean_linker_0, # of connection points: 3
#     Node 1, Type 0, BuildingBlock: BETDAH_clean_linker_0, # of connection points: 3
#     Node 2, Type 0, BuildingBlock: BETDAH_clean_linker_0, # of connection points: 3
#     Node 3, Type 0, BuildingBlock: BETDAH_clean_linker_0, # of connection points: 3
#     Node 4, Type 0, BuildingBlock: BETDAH_clean_linker_0, # of connection points: 3
#     Node 5, Type 0, BuildingBlock: BETDAH_clean_linker_0, # of connection points: 3
#     Node 6, Type 0, BuildingBlock: BETDAH_clean_linker_0, # of connection points: 3
#     Node 7, Type 0, BuildingBlock: BETDAH_clean_linker_0, # of connection points: 3
#     Node 8, Type 1, BuildingBlock: FUNLAD_clean_sbu_0, # of connection points: 6
#     Node 9, Type 1, BuildingBlock: FUNLAD_clean_sbu_0, # of connection points: 6
#     Node 10, Type 1, BuildingBlock: FUNLAD_clean_sbu_0, # of connection points: 6
#     Node 11, Type 1, BuildingBlock: FUNLAD_clean_sbu_0, # of connection points: 6
#     Edge 12, Type (0, 1), BuildingBlock: OJICUG_clean_linker_0, # of connection points: 2
#     Edge 13, Type (0, 1), BuildingBlock: OJICUG_clean_linker_0, # of connection points: 2
#     Edge 14, Type (0, 1), BuildingBlock: OJICUG_clean_linker_0, # of connection points: 2
#     Edge 15, Type (0, 1), BuildingBlock: OJICUG_clean_linker_0, # of connection points: 2
#     Edge 16, Type (0, 1), BuildingBlock: OJICUG_clean_linker_0, # of connection points: 2
#     Edge 17, Type (0, 1), BuildingBlock: OJICUG_clean_linker_0, # of connection points: 2
#     Edge 18, Type (0, 1), BuildingBlock: OJICUG_clean_linker_0, # of connection points: 2
#     Edge 19, Type (0, 1), BuildingBlock: OJICUG_clean_linker_0, # of connection points: 2
#     Edge 20, Type (0, 1), BuildingBlock: OJICUG_clean_linker_0, # of connection points: 2
#     Edge 21, Type (0, 1), BuildingBlock: OJICUG_clean_linker_0, # of connection points: 2
#     Edge 22, Type (0, 1), BuildingBlock: OJICUG_clean_linker_0, # of connection points: 2
#     Edge 23, Type (0, 1), BuildingBlock: OJICUG_clean_linker_0, # of connection points: 2
#     Edge 24, Type (0, 1), BuildingBlock: OJICUG_clean_linker_0, # of connection points: 2
#     Edge 25, Type (0, 1), BuildingBlock: OJICUG_clean_linker_0, # of connection points: 2
#     Edge 26, Type (0, 1), BuildingBlock: OJICUG_clean_linker_0, # of connection points: 2
#     Edge 27, Type (0, 1), BuildingBlock: OJICUG_clean_linker_0, # of connection points: 2
#     Edge 28, Type (0, 1), BuildingBlock: OJICUG_clean_linker_0, # of connection points: 2
#     Edge 29, Type (0, 1), BuildingBlock: OJICUG_clean_linker_0, # of connection points: 2
#     Edge 30, Type (0, 1), BuildingBlock: OJICUG_clean_linker_0, # of connection points: 2
#     Edge 31, Type (0, 1), BuildingBlock: OJICUG_clean_linker_0, # of connection points: 2
#     Edge 32, Type (0, 1), BuildingBlock: OJICUG_clean_linker_0, # of connection points: 2
#     Edge 33, Type (0, 1), BuildingBlock: OJICUG_clean_linker_0, # of connection points: 2
#     Edge 34, Type (0, 1), BuildingBlock: OJICUG_clean_linker_0, # of connection points: 2
#     Edge 35, Type (0, 1), BuildingBlock: OJICUG_clean_linker_0, # of connection points: 2
# Relax obj value: 0.112
# Max RMSD: 0.175
# Mean RMSD: 0.094
data_MOF--net-zzz--node1-FUNLAD_clean_sbu_0--node2-BETDAH_clean_linker_0--edge1-OJICUG_clean_linker_0
_symmetry_space_group_name_H-M    P1
_symmetry_Int_Tables_number       1
_symmetry_cell_setting            triclinic
loop_
_symmetry_equiv_pos_as_xyz
'x, y, z'
_cell_length_a     37.801349
_cell_length_b     43.38102
_cell_length_c     13.206617
_cell_angle_alpha  83.793331
_cell_angle_beta   82.736716
_cell_angle_gamma 89.8636
loop_
_atom_site_label
_atom_site_type_symbol
_atom_site_fract_x
_atom_site_fract_y
_atom_site_fract_z
_atom_type_partial_charge
H0 H 0.91259 0.47184 0.32159 0.0
H1 H 0.82222 0.49126 0.16041 0.0
H2 H 0.82024 0.51356 0.47156 0.0
C3 C 0.885 0.47888 0.32183 0.0
C4 C 0.86784 0.49151 0.40753 0.0
C5 C 0.86908 0.47929 0.23199 0.0
C6 C 0.83425 0.49047 0.23081 0.0
C7 C 0.81614 0.50232 0.31819 0.0
C8 C 0.83332 0.50313 0.40598 0.0
N9 N 0.7817 0.51534 0.31782 0.0
C10 C 0.76391 0.51849 0.23161 0.0
H11 H 0.99932 0.87621 0.16643 0.0
H12 H 1.00719 0.79674 -0.00268 0.0
H13 H 0.93475 0.79585 0.27892 0.0
C14 C 0.99154 0.85259 0.15856 0.0
C15 C 0.96529 0.83794 0.23107 0.0
C16 C 1.0072 0.83799 0.0751 0.0
C17 C 0.996 0.80779 0.06367 0.0
C18 C 0.96984 0.79234 0.1379 0.0
C19 C 0.95475 0.80757 0.22176 0.0
N20 N 0.95741 0.76191 0.13006 0.0
C21 C 0.97274 0.74213 0.06103 0.0
H22 H 0.66384 0.02524 0.16677 0.0
H23 H 0.76547 1.00701 -0.00094 0.0
H24 H 0.7499 0.99296 0.33072 0.0
C25 C 0.69176 0.01918 0.16628 0.0
C26 C 0.70443 0.00993 0.25909 0.0
C27 C 0.71312 0.01785 0.07261 0.0
C28 C 0.74901 0.00871 0.07153 0.0
C29 C 0.76281 1.00061 0.16552 0.0
C30 C 0.73992 1.00037 0.25869 0.0
N31 N 0.79862 0.99086 0.1706 0.0
C32 C 0.82759 0.99641 0.09397 0.0
H33 H 0.52039 0.61166 0.17369 0.0
H34 H 0.54 0.70061 -0.00149 0.0
H35 H 0.57834 0.68144 0.29293 0.0
C36 C 0.53033 0.63533 0.16739 0.0
C37 C 0.54872 0.64437 0.24482 0.0
C38 C 0.52696 0.65526 0.07864 0.0
C39 C 0.54168 0.68535 0.06826 0.0
C40 C 0.55996 0.69499 0.14647 0.0
C41 C 0.56396 0.67417 0.23345 0.0
N42 N 0.57568 0.72498 0.13889 0.0
C43 C 0.56626 0.75046 0.07491 0.0
H44 H 0.16071 0.53841 0.18975 0.0
H45 H 0.25085 0.51886 0.3518 0.0
H46 H 0.25233 0.49494 0.04267 0.0
C47 C 0.18818 0.53108 0.19 0.0
C48 C 0.20515 0.51793 0.10508 0.0
C49 C 0.20409 0.53087 0.27979 0.0
C50 C 0.23881 0.51947 0.28143 0.0
C51 C 0.2567 0.507 0.19496 0.0
C52 C 0.23942 0.5058 0.10754 0.0
N53 N 0.29105 0.49384 0.19608 0.0
C54 C 0.3108 0.49501 0.27734 0.0
H55 H 0.07462 0.13635 0.33736 0.0
H56 H 0.06766 0.21545 0.5082 0.0
H57 H 0.14049 0.21612 0.22745 0.0
C58 C 0.08268 0.15985 0.34581 0.0
C59 C 0.10925 0.17435 0.27394 0.0
C60 C 0.06715 0.17442 0.42951 0.0
C61 C 0.07876 0.20443 0.44167 0.0
C62 C 0.10522 0.21973 0.36809 0.0
C63 C 0.12022 0.20453 0.28407 0.0
N64 N 0.11805 0.24996 0.37688 0.0
C65 C 0.10271 0.26972 0.44595 0.0
H66 H 0.41007 0.99102 0.33738 0.0
H67 H 0.30802 0.00798 0.50511 0.0
H68 H 0.32354 0.02203 0.1734 0.0
C69 C 0.38205 0.99676 0.33788 0.0
C70 C 0.36926 1.00575 0.24508 0.0
C71 C 0.36061 0.99784 0.43153 0.0
C72 C 0.32456 1.00649 0.43263 0.0
C73 C 0.31068 0.01437 0.33863 0.0
C74 C 0.33361 0.01484 0.24545 0.0
N75 N 0.2747 0.0236 0.33353 0.0
C76 C 0.2458 0.01775 0.41023 0.0
H77 H 0.55563 0.40508 0.33485 0.0
H78 H 0.53569 0.31605 0.50919 0.0
H79 H 0.4979 0.33547 0.21411 0.0
C80 C 0.54571 0.38142 0.34074 0.0
C81 C 0.52744 0.37247 0.26291 0.0
C82 C 0.54892 0.36143 0.42946 0.0
C83 C 0.53416 0.33135 0.43945 0.0
C84 C 0.51603 0.32179 0.36082 0.0
C85 C 0.51219 0.34268 0.27386 0.0
N86 N 0.50022 0.29185 0.36796 0.0
C87 C 0.50944 0.26625 0.43181 0.0
C88 C 0.04998 0.94761 0.83981 0.0
N89 N 1.00547 0.97581 0.57672 0.0
C90 C 0.02656 0.95281 0.54153 0.0
C91 C 1.01228 0.92927 0.4952 0.0
C92 C 0.97585 0.92918 0.48451 0.0
C93 C 0.9551 0.95439 0.51391 0.0
C94 C 0.97053 0.97758 0.56093 0.0
Zn95 Zn 0.02536 0.99874 0.68547 0.0
C96 C 0.9685 1.00399 0.86404 0.0
N97 N 0.06813 0.03684 0.9282 0.0
C98 C 0.10303 0.03486 0.94421 0.0
C99 C 0.04719 0.05996 0.96324 0.0
C100 C 0.06164 0.08342 0.00958 0.0
C101 C 0.09806 0.0833 0.02046 0.0
C102 C 0.11862 0.05796 -0.00875 0.0
Zn103 Zn 0.04818 0.01395 0.81949 0.0
O104 O 0.03618 0.9546 0.75784 0.0
C105 C 0.10504 0.00882 0.6409 0.0
O106 O 0.05903 0.96921 0.8898 0.0
H107 H 0.01977 0.06167 0.94833 0.0
H108 H 0.05399 0.95124 0.55634 0.0
H109 H 0.11939 0.01653 0.91479 0.0
O110 O 0.07819 1.00099 0.59968 0.0
O111 O 0.10008 0.01562 0.73277 0.0
H112 H 0.95403 0.9958 0.59052 0.0
O113 O 0.03738 0.05808 0.74706 0.0
O114 O 0.01449 0.04347 0.61518 0.0
O115 O 0.99536 0.0118 0.90521 0.0
O116 O 0.97344 0.99709 0.77227 0.0
C117 C 0.02357 0.06507 0.6651 0.0
H118 H 0.02948 0.91075 0.47059 0.0
H119 H 0.92699 0.95534 0.50534 0.0
H120 H 0.04457 0.10204 0.03408 0.0
H121 H 0.14671 0.05684 -2e-05 0.0
C122 C 0.47734 0.99925 0.65639 0.0
N123 N 0.53243 0.0805 0.69244 0.0
C124 C 0.52992 0.08864 0.5912 0.0
C125 C 0.52835 0.11974 0.55254 0.0
C126 C 0.5291 0.14296 0.61849 0.0
C127 C 0.53123 0.13401 0.7231 0.0
C128 C 0.53307 0.10245 0.75858 0.0
Zn129 Zn 0.53522 0.03385 0.73887 0.0
C130 C 0.48758 0.01243 0.92261 0.0
N131 N 0.54131 0.93558 0.81189 0.0
C132 C 0.54086 0.91355 0.74596 0.0
C133 C 0.5438 0.92756 0.91321 0.0
C134 C 0.54557 0.89652 0.95216 0.0
C135 C 0.54506 0.87321 0.88643 0.0
C136 C 0.54292 0.88203 0.78175 0.0
Zn137 Zn 0.53846 0.98221 0.76525 0.0
O138 O 0.49038 0.02583 0.6632 0.0
C139 C 0.5861 1.0036 0.58152 0.0
O140 O 0.49364 0.97507 0.68789 0.0
H141 H 0.54454 0.94535 0.9643 0.0
H142 H 0.52905 0.07092 0.53994 0.0
H143 H 0.53889 0.92041 0.66567 0.0
O144 O 0.5722 0.02883 0.60678 0.0
O145 O 0.57525 0.97812 0.63265 0.0
H146 H 0.53507 0.09549 0.8388 0.0
O147 O 0.58328 0.99022 0.84084 0.0
O148 O 0.58006 0.04097 0.8163 0.0
O149 O 0.50151 0.98722 0.89728 0.0
O150 O 0.4984 0.03793 0.87153 0.0
C151 C 0.59635 0.01678 0.84772 0.0
H152 H 0.52602 0.12551 0.47181 0.0
H153 H 0.53194 0.1512 0.7765 0.0
H154 H 0.54791 0.89085 0.03293 0.0
H155 H 0.54241 0.86477 0.72853 0.0
C156 C 0.56127 0.45505 0.67355 0.0
N157 N 0.46282 0.49859 0.69038 0.0
C158 C 0.46878 0.49245 0.59075 0.0
C159 C 0.44088 0.49182 0.53239 0.0
C160 C 0.40622 0.49746 0.57634 0.0
C161 C 0.40005 0.50227 0.68057 0.0
C162 C 0.42917 0.50299 0.73675 0.0
Zn163 Zn 0.5089 0.50504 0.75198 0.0
C164 C 0.52014 0.46946 0.93072 0.0
N165 N 0.61327 0.51871 0.81653 0.0
C166 C 0.64665 0.51282 0.77125 0.0
C167 C 0.60791 0.52759 0.91299 0.0
C168 C 0.63635 0.53102 0.96767 0.0
C169 C 0.67094 0.52469 0.9243 0.0
C170 C 0.67615 0.51544 0.82469 0.0
Zn171 Zn 0.56707 0.51181 0.75593 0.0
O172 O 0.52961 0.4649 0.68901 0.0
C173 C 0.55591 0.54753 0.5774 0.0
O174 O 0.58707 0.47164 0.69068 0.0
H175 H 0.58126 0.53105 0.94987 0.0
H176 H 0.49558 0.48935 0.55429 0.0
H177 H 0.65028 0.50533 0.69515 0.0
O178 O 0.52626 0.53504 0.61673 0.0
O179 O 0.58373 0.54072 0.61962 0.0
H180 H 0.42506 0.50812 0.81571 0.0
O181 O 0.54622 0.55228 0.81683 0.0
O182 O 0.48871 0.54484 0.81902 0.0
O183 O 0.54971 0.48241 0.89256 0.0
O184 O 0.49247 0.47568 0.88709 0.0
C185 C 0.51449 0.5618 0.83403 0.0
H186 H 0.4465 0.48777 0.4524 0.0
H187 H 0.37343 0.5067 0.71651 0.0
H188 H 0.63106 0.53732 0.04531 0.0
H189 H 0.70254 0.51007 0.78931 0.0
C190 C 0.08796 0.52435 0.59718 0.0
N191 N 0.04933 0.4356 0.71351 0.0
C192 C 0.04843 0.43211 0.61268 0.0
C193 C 0.05418 0.40326 0.57669 0.0
C194 C 0.06125 0.37748 0.64456 0.0
C195 C 0.06223 0.38161 0.7484 0.0
C196 C 0.05598 0.41104 0.78156 0.0
Zn197 Zn 0.04112 0.47986 0.754 0.0
C198 C 0.09204 0.50199 0.87033 0.0
N199 N 0.0239 0.57518 0.79733 0.0
C200 C 0.01751 0.59972 0.72888 0.0
C201 C 0.02485 0.5788 0.89805 0.0
C202 C 0.01944 0.60776 0.93349 0.0
C203 C 1.01266 0.63354 0.86517 0.0
C204 C 1.0116 0.62926 0.76148 0.0
Zn205 Zn 0.03201 0.53087 0.75714 0.0
O206 O 0.07947 0.49648 0.63116 0.0
C207 C 0.98108 0.5086 0.64087 0.0
O208 O 0.07009 0.54652 0.63247 0.0
H209 H 0.02952 0.55903 0.95175 0.0
H210 H 0.04362 0.4519 0.55925 0.0
H211 H 0.01681 0.59638 0.64916 0.0
O212 O 0.99894 0.48459 0.66395 0.0
O213 O 0.9902 0.53462 0.66594 0.0
H214 H 0.05667 0.41429 0.86135 0.0
O215 O 0.99373 0.51427 0.88027 0.0
O216 O 1.00296 0.46421 0.87845 0.0
O217 O 0.07435 0.52611 0.84712 0.0
O218 O 0.08274 0.47602 0.84532 0.0
C219 C 0.98517 0.48639 0.91404 0.0
H220 H 0.05393 0.40138 0.49567 0.0
H221 H 0.06758 0.36232 0.80333 0.0
H222 H 0.01974 0.60975 0.01443 0.0
H223 H 1.00649 0.64853 0.70618 0.0
C224 C 0.18198 1.00369 0.42724 0.0
C225 C 0.21114 0.0136 0.47191 0.0
H226 H 0.12571 0.99439 0.44498 0.0
C227 C 0.20559 0.02149 0.57281 0.0
H228 H 0.18564 0.99777 0.34897 0.0
C229 C 0.17121 0.01967 0.62804 0.0
C230 C 0.14169 0.01008 0.5831 0.0
H231 H 0.22767 0.02948 0.60841 0.0
H232 H 0.16771 0.02613 0.70561 0.0
C233 C 0.14764 1.0019 0.48213 0.0
C234 C 0.54185 0.21719 0.4371 0.0
C235 C 0.51765 0.23696 0.4861 0.0
H236 H 0.56494 0.17204 0.44161 0.0
C237 C 0.49912 0.22677 0.58262 0.0
H238 H 0.55629 0.22468 0.36229 0.0
C239 C 0.50392 0.19658 0.62823 0.0
C240 C 0.52705 0.17613 0.57719 0.0
H241 H 0.48007 0.24173 0.62108 0.0
H242 H 0.48835 0.1888 0.70106 0.0
C243 C 0.54656 0.18705 0.48219 0.0
C244 C 0.32635 0.4774 0.45011 0.0
C245 C 0.33199 0.49758 0.35901 0.0
H246 H 0.34563 0.46192 0.5933 0.0
C247 C 0.35934 0.51981 0.34535 0.0
H248 H 0.30509 0.46018 0.46155 0.0
C249 C 0.38215 0.52091 0.41993 0.0
C250 C 0.37778 0.49982 0.5093 0.0
H251 H 0.36379 0.53569 0.27561 0.0
H252 H 0.4041 0.53748 0.40618 0.0
C253 C 0.34917 0.47856 0.5254 0.0
C254 C 0.10814 0.30281 0.58412 0.0
C255 C 0.08916 0.29374 0.50748 0.0
H256 H 0.11404 0.33651 0.68853 0.0
C257 C 0.05914 0.31046 0.48283 0.0
H258 H 0.13162 0.29026 0.6034 0.0
C259 C 0.04905 0.33683 0.53113 0.0
C260 C 0.06893 0.347 0.60475 0.0
H261 H 0.04425 0.30382 0.42349 0.0
H262 H 0.02623 0.34978 0.50876 0.0
C263 C 0.09801 0.32919 0.63285 0.0
C264 C 0.89153 0.01002 0.07699 0.0
C265 C 0.86231 1.00018 0.03243 0.0
H266 H 0.94788 0.01893 0.05936 0.0
C267 C 0.86784 0.99201 0.93187 0.0
H268 H 0.8879 0.01615 0.155 0.0
C269 C 0.90225 0.99347 0.87686 0.0
C270 C 0.93182 1.00299 0.92169 0.0
H271 H 0.8457 0.98407 0.89639 0.0
H272 H 0.90572 0.98681 0.79954 0.0
C273 C 0.92591 0.01144 0.02232 0.0
C274 C 0.53312 0.79915 0.06868 0.0
C275 C 0.55768 0.77956 0.02017 0.0
H276 H 0.50936 0.84403 0.06332 0.0
C277 C 0.57616 0.78978 0.92358 0.0
H278 H 0.5187 0.79162 0.14351 0.0
C279 C 0.57095 0.81984 0.87746 0.0
C280 C 0.54746 0.84011 0.92806 0.0
H281 H 0.59546 0.77496 0.88548 0.0
H282 H 0.58648 0.82766 0.80462 0.0
C283 C 0.52801 0.82914 0.02308 0.0
C284 C 0.72501 0.5486 0.1242 0.0
C285 C 0.74471 0.5218 0.14393 0.0
H286 H 0.68667 0.57088 0.03569 0.0
C287 C 0.74389 0.49759 0.08205 0.0
H288 H 0.7256 0.56755 0.17115 0.0
C289 C 0.72181 0.49948 0.0042 0.0
C290 C 0.70024 0.52554 -0.01167 0.0
H291 H 0.75915 0.47675 0.09656 0.0
H292 H 0.71993 0.47982 0.961 0.0
C293 C 0.70293 0.55049 0.04679 0.0
C294 C 0.96696 0.70892 0.92339 0.0
C295 C 0.98603 0.71791 -2e-05 0.0
H296 H 0.96058 0.67509 0.81979 0.0
C297 C 0.01574 0.70086 0.02536 0.0
H298 H 0.9437 0.72172 0.90358 0.0
C299 C 0.02542 0.67426 0.97783 0.0
C300 C 1.00543 0.66418 0.90429 0.0
H301 H 0.03067 0.70741 0.08471 0.0
H302 H 0.048 0.66106 0.00075 0.0
C303 C 0.97668 0.68232 0.87545 0.0
C304 C 0.05354 0.14827 0.60632 0.0
C305 C 0.04307 0.15516 0.5085 0.0
H306 H 0.05501 0.11395 0.73413 0.0
C307 C 0.01767 0.13579 0.47666 0.0
H308 H 0.07293 0.1628 0.633 0.0
C309 C 1.0085 0.10708 0.53232 0.0
C310 C 0.02359 0.09801 0.62237 0.0
H311 H 1.00876 0.14093 0.4019 0.0
H312 H 0.99218 0.09106 0.50031 0.0
C313 C 0.04367 0.11991 0.66331 0.0
C314 C 0.39881 0.96776 0.54502 0.0
C315 C 0.37973 0.99504 0.52276 0.0
H316 H 0.44515 0.94771 0.60315 0.0
C317 C 0.39016 0.02254 0.55801 0.0
H318 H 0.39171 0.94642 0.51643 0.0
C319 C 0.42134 0.02357 0.6043 0.0
C320 C 0.44246 0.99699 0.61729 0.0
H321 H 0.37642 0.04399 0.53978 0.0
H322 H 0.42977 0.0456 0.6253 0.0
C323 C 0.42988 0.9687 0.59226 0.0
C324 C 0.53693 0.37737 0.60409 0.0
C325 C 0.56141 0.37531 0.51626 0.0
H326 H 0.51798 0.40497 0.72367 0.0
C327 C 0.59165 0.39508 0.4983 0.0
H328 H 0.51342 0.36253 0.61977 0.0
C329 C 0.59412 0.41974 0.55733 0.0
C330 C 0.5664 0.42461 0.63468 0.0
H331 H 0.61098 0.39379 0.43098 0.0
H332 H 0.61544 0.4367 0.53524 0.0
C333 C 0.53929 0.40201 0.66251 0.0
C334 C 0.17777 0.51045 0.4546 0.0
C335 C 0.18068 0.53494 0.37555 0.0
H336 H 0.14563 0.48785 0.58552 0.0
C337 C 0.15517 0.55868 0.37818 0.0
H338 H 0.19675 0.49169 0.45421 0.0
C339 C 0.12543 0.55632 0.45345 0.0
C340 C 0.12085 0.53002 0.52562 0.0
H341 H 0.15694 0.57782 0.31779 0.0
H342 H 0.1051 0.57393 0.45122 0.0
C343 C 0.14803 0.50792 0.52847 0.0
C344 C 0.05646 0.87677 0.02745 0.0
C345 C 0.03108 0.85734 -0.00416 0.0
H346 H 0.08172 0.9216 0.00389 0.0
C347 C 0.02034 0.86429 0.89837 0.0
H348 H 0.06554 0.8716 0.10199 0.0
C349 C 0.02997 0.89274 0.84159 0.0
C350 C 0.05008 0.91466 0.88237 0.0
H351 H 1.00094 0.84972 0.87192 0.0
H352 H 0.01845 0.89873 0.77108 0.0
C353 C 0.06539 0.90556 0.97201 0.0
C354 C 0.67492 0.04807 0.95936 0.0
C355 C 0.69396 0.02075 0.98143 0.0
H356 H 0.62861 0.06823 0.90136 0.0
C357 C 0.6835 0.99331 0.94589 0.0
H358 H 0.68205 0.06938 -0.01187 0.0
C359 C 0.65233 0.99237 0.89955 0.0
C360 C 0.63123 0.01897 0.88679 0.0
H361 H 0.69721 0.97183 0.96391 0.0
H362 H 0.64388 0.97037 0.87834 0.0
C363 C 0.64386 0.04722 0.91207 0.0
C364 C 0.53853 0.63953 0.9036 0.0
C365 C 0.5143 0.64134 -0.00786 0.0
H366 H 0.55727 0.6122 0.7831 0.0
C367 C 0.48421 0.6214 0.01065 0.0
H368 H 0.56191 0.65451 0.88745 0.0
C369 C 0.48171 0.59681 0.95137 0.0
C370 C 0.50924 0.59219 0.8732 0.0
H371 H 0.46506 0.62252 0.07848 0.0
H372 H 0.46055 0.57971 0.97385 0.0
C373 C 0.53613 0.61497 0.84489 0.0
C374 C 0.89553 0.50028 0.05789 0.0
C375 C 0.89252 0.47553 0.13604 0.0
H376 H 0.92773 0.52318 0.9276 0.0
C377 C 0.91795 0.45175 0.13255 0.0
H378 H 0.87661 0.51908 0.05906 0.0
C379 C 0.94767 0.45423 0.05721 0.0
C380 C 0.95233 0.48072 -0.01414 0.0
H381 H 0.91612 0.43242 0.19231 0.0
H382 H 0.96791 0.43653 0.05872 0.0
C383 C 0.92526 0.50295 -0.01603 0.0
C384 C 0.13759 0.12772 0.2088 0.0
C385 C 0.12262 0.15706 0.18706 0.0
H386 H 0.14112 0.08075 0.17254 0.0
C387 C 0.10807 0.16377 0.09491 0.0
H388 H 0.14861 0.12202 0.28028 0.0
C389 C 0.10349 0.14011 0.03377 0.0
C390 C 0.11342 0.10953 0.06423 0.0
H391 H 0.0961 0.1861 0.07709 0.0
H392 H 0.08915 0.14511 0.96795 0.0
C393 C 0.13294 0.10401 0.14778 0.0
C394 C 0.40576 0.03571 0.09528 0.0
C395 C 0.39514 1.0071 0.15087 0.0
H396 H 0.444 0.06012 0.9806 0.0
C397 C 0.41464 0.98048 0.12976 0.0
H398 H 0.39158 0.05666 0.11209 0.0
C399 C 0.44481 0.98245 0.05676 0.0
C400 C 0.45634 0.01116 0.00307 0.0
H401 H 0.40727 0.95825 0.17294 0.0
H402 H 0.45935 0.96141 0.04345 0.0
C403 C 0.43616 0.03774 0.02184 0.0
C404 C 0.55537 0.41204 0.1271 0.0
C405 C 0.52474 0.3952 0.17217 0.0
H406 H 0.57765 0.4489 0.01949 0.0
C407 C 0.49184 0.40271 0.13704 0.0
H408 H 0.58114 0.40659 0.15191 0.0
C409 C 0.48969 0.42728 0.05951 0.0
C410 C 0.52042 0.44465 0.01682 0.0
H411 H 0.46776 0.39021 0.1714 0.0
H412 H 0.46414 0.43272 0.03338 0.0
C413 C 0.55323 0.43651 0.05139 0.0
C414 C 0.16735 0.53915 0.97582 0.0
C415 C 0.18371 0.51337 0.02258 0.0
H416 H 0.12521 0.55569 0.89256 0.0
C417 C 0.17214 0.48339 0.01067 0.0
H418 H 0.17571 0.56244 -0.01475 0.0
C419 C 0.14273 0.47936 0.95868 0.0
C420 C 0.12459 0.50531 0.91894 0.0
H421 H 0.18408 0.46322 0.04805 0.0
H422 H 0.13327 0.45608 0.9538 0.0
C423 C 0.13804 0.53519 0.92464 0.0
C424 C 0.96647 0.84864 0.41001 0.0
C425 C 0.95187 0.85524 0.3179 0.0
H426 H 0.98523 0.86743 0.53695 0.0
C427 C 0.93667 0.88449 0.29621 0.0
H428 H 0.97861 0.82638 0.4278 0.0
C429 C 0.94113 0.90824 0.35726 0.0
C430 C 0.96068 0.90284 0.44077 0.0
H431 H 0.92559 0.89011 0.22478 0.0
H432 H 0.93276 0.93144 0.33255 0.0
C433 C 0.97086 0.87233 0.47117 0.0
C434 C 0.65913 0.03536 0.37431 0.0
C435 C 0.67853 0.00868 0.35326 0.0
H436 H 0.61449 0.05455 0.46058 0.0
C437 C 0.66782 0.98011 0.40897 0.0
H438 H 0.66658 0.05756 0.33109 0.0
C439 C 0.63743 0.97816 0.4824 0.0
C440 C 0.61734 1.0048 0.50109 0.0
H441 H 0.68193 0.95912 0.39225 0.0
H442 H 0.62952 0.95581 0.5237 0.0
C443 C 0.62896 0.03348 0.44732 0.0
C444 C 0.52072 0.60522 0.38178 0.0
C445 C 0.55145 0.62175 0.33577 0.0
H446 H 0.49831 0.56863 0.49022 0.0
C447 C 0.58442 0.61398 0.37009 0.0
H448 H 0.49492 0.61087 0.35749 0.0
C449 C 0.58652 0.58944 0.44776 0.0
C450 C 0.55568 0.57238 0.49141 0.0
H451 H 0.60856 0.62624 0.33494 0.0
H452 H 0.61211 0.58377 0.47321 0.0
C453 C 0.52281 0.5808 0.45766 0.0
C454 C 0.90051 0.52638 0.50166 0.0
C455 C 0.88933 0.49628 0.48975 0.0
H456 H 0.9391 0.55411 0.55814 0.0
C457 C 0.90613 0.47068 0.536 0.0
H458 H 0.88823 0.54641 0.46459 0.0
C459 C 0.93546 0.47497 0.58679 0.0
C460 C 0.94851 0.50498 0.59255 0.0
H461 H 0.89809 0.44731 0.52649 0.0
H462 H 0.9486 0.4546 0.61853 0.0
C463 C 0.92995 0.53074 0.55323 0.0
loop_
_geom_bond_atom_site_label_1
_geom_bond_atom_site_label_2
_geom_bond_distance
_geom_bond_site_symmetry_2
_ccdc_geom_bond_type
H0 C3 0.929 . S
H1 C6 0.929 . S
H2 C8 0.930 . S
C3 H0 0.929 . S
C3 C4 1.398 . S
C3 C5 1.396 . S
C4 C3 1.398 . S
C4 C8 1.407 . S
C5 C3 1.396 . S
C5 C6 1.394 . S
C6 H1 0.929 . S
C6 C5 1.394 . S
C6 C7 1.382 . S
C7 C6 1.382 . S
C7 C8 1.392 . S
C7 N9 1.420 . S
C8 H2 0.930 . S
C8 C4 1.407 . S
C8 C7 1.392 . S
N9 C7 1.420 . S
N9 C10 1.244 . S
C10 N9 1.244 . S
H11 C14 0.929 . S
H12 C17 0.929 . S
H13 C19 0.930 . S
C14 H11 0.929 . S
C14 C15 1.398 . S
C14 C16 1.396 1_554 S
C15 C14 1.398 . S
C15 C19 1.407 . S
C16 C14 1.396 1_556 S
C16 C17 1.394 . S
C17 H12 0.929 . S
C17 C16 1.394 . S
C17 C18 1.382 1_556 S
C18 C17 1.382 1_554 S
C18 C19 1.392 . S
C18 N20 1.420 . S
C19 H13 0.930 . S
C19 C15 1.407 . S
C19 C18 1.392 . S
N20 C18 1.420 . S
N20 C21 1.244 1_554 S
C21 N20 1.244 1_556 S
H22 C25 0.929 . S
H23 C28 0.929 1_556 S
H24 C30 0.930 . S
C25 H22 0.929 . S
C25 C26 1.392 1_565 S
C25 C27 1.396 1_565 S
C26 C25 1.392 1_545 S
C26 C30 1.413 . S
C27 C25 1.396 1_545 S
C27 C28 1.397 . S
C28 H23 0.929 1_554 S
C28 C27 1.397 . S
C28 C29 1.382 . S
C29 C28 1.382 . S
C29 C30 1.392 . S
C29 N31 1.420 . S
C30 H24 0.930 . S
C30 C26 1.413 . S
C30 C29 1.392 . S
N31 C29 1.420 . S
N31 C32 1.229 1_545 S
C32 N31 1.229 1_565 S
H33 C36 0.929 . S
H34 C39 0.929 1_556 S
H35 C41 0.930 . S
C36 H33 0.929 . S
C36 C37 1.398 . S
C36 C38 1.396 . S
C37 C36 1.398 . S
C37 C41 1.407 . S
C38 C36 1.396 . S
C38 C39 1.394 . S
C39 H34 0.929 1_554 S
C39 C38 1.394 . S
C39 C40 1.382 . S
C40 C39 1.382 . S
C40 C41 1.392 . S
C40 N42 1.420 . S
C41 H35 0.930 . S
C41 C37 1.407 . S
C41 C40 1.392 . S
N42 C40 1.420 . S
N42 C43 1.244 . S
C43 N42 1.244 . S
H44 C47 0.929 . S
H45 C50 0.929 . S
H46 C52 0.930 . S
C47 H44 0.929 . S
C47 C48 1.398 . S
C47 C49 1.396 . S
C48 C47 1.398 . S
C48 C52 1.407 . S
C49 C47 1.396 . S
C49 C50 1.394 . S
C50 H45 0.929 . S
C50 C49 1.394 . S
C50 C51 1.382 . S
C51 C50 1.382 . S
C51 C52 1.392 . S
C51 N53 1.420 . S
C52 H46 0.930 . S
C52 C48 1.407 . S
C52 C51 1.392 . S
N53 C51 1.420 . S
N53 C54 1.244 . S
C54 N53 1.244 . S
H55 C58 0.929 . S
H56 C61 0.929 . S
H57 C63 0.930 . S
C58 H55 0.929 . S
C58 C59 1.398 . S
C58 C60 1.396 . S
C59 C58 1.398 . S
C59 C63 1.407 . S
C60 C58 1.396 . S
C60 C61 1.394 . S
C61 H56 0.929 . S
C61 C60 1.394 . S
C61 C62 1.382 . S
C62 C61 1.382 . S
C62 C63 1.392 . S
C62 N64 1.420 . S
C63 H57 0.930 . S
C63 C59 1.407 . S
C63 C62 1.392 . S
N64 C62 1.420 . S
N64 C65 1.244 . S
C65 N64 1.244 . S
H66 C69 0.929 . S
H67 C72 0.929 . S
H68 C74 0.930 . S
C69 H66 0.929 . S
C69 C70 1.398 1_565 S
C69 C71 1.391 1_565 S
C70 C69 1.398 1_545 S
C70 C74 1.407 . S
C71 C69 1.391 1_545 S
C71 C72 1.399 . S
C72 H67 0.929 . S
C72 C71 1.399 . S
C72 C73 1.382 . S
C73 C72 1.382 . S
C73 C74 1.392 . S
C73 N75 1.420 . S
C74 H68 0.930 . S
C74 C70 1.407 . S
C74 C73 1.392 . S
N75 C73 1.420 . S
N75 C76 1.237 1_545 S
C76 N75 1.237 1_565 S
H77 C80 0.929 . S
H78 C83 0.929 . S
H79 C85 0.930 . S
C80 H77 0.929 . S
C80 C81 1.398 . S
C80 C82 1.396 . S
C81 C80 1.398 . S
C81 C85 1.407 . S
C82 C80 1.396 . S
C82 C83 1.394 . S
C83 H78 0.929 . S
C83 C82 1.394 . S
C83 C84 1.382 . S
C84 C83 1.382 . S
C84 C85 1.392 . S
C84 N86 1.420 . S
C85 H79 0.930 . S
C85 C81 1.407 . S
C85 C84 1.392 . S
N86 C84 1.420 . S
N86 C87 1.244 . S
C87 N86 1.244 . S
C88 O104 1.251 . S
C88 O106 1.254 . S
N89 C90 1.333 . S
N89 C94 1.307 1_455 S
N89 Zn95 2.020 . S
C90 N89 1.333 . S
C90 C91 1.379 . S
C90 H108 0.952 . S
C91 C90 1.379 . S
C91 C92 1.390 1_455 S
C91 H118 0.949 . S
C92 C91 1.390 1_655 S
C92 C93 1.357 . S
C93 C92 1.357 . S
C93 C94 1.370 . S
C93 H119 0.950 . S
C94 N89 1.307 1_655 S
C94 C93 1.370 . S
C94 H112 0.948 1_565 S
Zn95 N89 2.020 . S
Zn95 O104 2.039 . S
Zn95 O110 2.034 . S
Zn95 O114 2.025 1_565 S
Zn95 O116 2.024 1_455 S
C96 O115 1.246 . S
C96 O116 1.249 1_545 S
N97 C98 1.307 . S
N97 C99 1.333 . S
N97 Zn103 2.020 1_554 S
C98 N97 1.307 . S
C98 C102 1.370 . S
C98 H109 0.948 1_545 S
C99 N97 1.333 . S
C99 C100 1.379 . S
C99 H107 0.952 1_554 S
C100 C99 1.379 . S
C100 C101 1.390 . S
C100 H120 0.949 . S
C101 C100 1.390 . S
C101 C102 1.357 . S
C102 C98 1.370 . S
C102 C101 1.357 . S
C102 H121 0.950 . S
Zn103 N97 2.020 1_556 S
Zn103 O106 2.025 1_545 S
Zn103 O111 2.024 . S
Zn103 O113 2.039 . S
Zn103 O115 2.034 1_455 S
O104 C88 1.251 . S
O104 Zn95 2.039 . S
C105 O110 1.246 . S
C105 O111 1.249 1_565 S
O106 C88 1.254 . S
O106 Zn103 2.025 1_565 S
H107 C99 0.952 1_556 S
H108 C90 0.952 . S
H109 C98 0.948 1_565 S
O110 Zn95 2.034 . S
O110 C105 1.246 . S
O111 Zn103 2.024 . S
O111 C105 1.249 1_545 S
H112 C94 0.948 1_545 S
O113 Zn103 2.039 . S
O113 C117 1.251 . S
O114 Zn95 2.025 1_545 S
O114 C117 1.254 . S
O115 C96 1.246 . S
O115 Zn103 2.034 1_655 S
O116 Zn95 2.024 1_655 S
O116 C96 1.249 1_565 S
C117 O113 1.251 . S
C117 O114 1.254 . S
H118 C91 0.949 . S
H119 C93 0.950 . S
H120 C100 0.949 . S
H121 C102 0.950 . S
C122 O138 1.251 1_565 S
C122 O140 1.254 . S
N123 C124 1.333 . S
N123 C128 1.307 . S
N123 Zn129 2.020 . S
C124 N123 1.333 . S
C124 C125 1.379 . S
C124 H142 0.952 . S
C125 C124 1.379 . S
C125 C126 1.390 . S
C125 H152 0.949 . S
C126 C125 1.390 . S
C126 C127 1.357 . S
C127 C126 1.357 . S
C127 C128 1.370 . S
C127 H153 0.950 . S
C128 N123 1.307 . S
C128 C127 1.370 . S
C128 H146 0.948 . S
Zn129 N123 2.020 . S
Zn129 O138 2.039 . S
Zn129 O144 2.034 . S
Zn129 O148 2.025 . S
Zn129 O150 2.024 . S
C130 O149 1.246 1_545 S
C130 O150 1.249 . S
N131 C132 1.307 . S
N131 C133 1.333 . S
N131 Zn137 2.020 . S
C132 N131 1.307 . S
C132 C136 1.370 . S
C132 H143 0.948 . S
C133 N131 1.333 . S
C133 C134 1.379 . S
C133 H141 0.952 . S
C134 C133 1.379 . S
C134 C135 1.390 . S
C134 H154 0.949 1_556 S
C135 C134 1.390 . S
C135 C136 1.357 . S
C136 C132 1.370 . S
C136 C135 1.357 . S
C136 H155 0.950 . S
Zn137 N131 2.020 . S
Zn137 O140 2.025 . S
Zn137 O145 2.024 . S
Zn137 O147 2.039 . S
Zn137 O149 2.034 . S
O138 C122 1.251 1_545 S
O138 Zn129 2.039 . S
C139 O144 1.246 1_565 S
C139 O145 1.249 . S
O140 C122 1.254 . S
O140 Zn137 2.025 . S
H141 C133 0.952 . S
H142 C124 0.952 . S
H143 C132 0.948 . S
O144 Zn129 2.034 . S
O144 C139 1.246 1_545 S
O145 Zn137 2.024 . S
O145 C139 1.249 . S
H146 C128 0.948 . S
O147 Zn137 2.039 . S
O147 C151 1.251 1_565 S
O148 Zn129 2.025 . S
O148 C151 1.254 . S
O149 C130 1.246 1_565 S
O149 Zn137 2.034 . S
O150 Zn129 2.024 . S
O150 C130 1.249 . S
C151 O147 1.251 1_545 S
C151 O148 1.254 . S
H152 C125 0.949 . S
H153 C127 0.950 . S
H154 C134 0.949 1_554 S
H155 C136 0.950 . S
C156 O172 1.251 . S
C156 O174 1.254 . S
N157 C158 1.333 . S
N157 C162 1.307 . S
N157 Zn163 2.020 . S
C158 N157 1.333 . S
C158 C159 1.379 . S
C158 H176 0.952 . S
C159 C158 1.379 . S
C159 C160 1.390 . S
C159 H186 0.949 . S
C160 C159 1.390 . S
C160 C161 1.357 . S
C161 C160 1.357 . S
C161 C162 1.370 . S
C161 H187 0.950 . S
C162 N157 1.307 . S
C162 C161 1.370 . S
C162 H180 0.948 . S
Zn163 N157 2.020 . S
Zn163 O172 2.039 . S
Zn163 O178 2.034 . S
Zn163 O182 2.025 . S
Zn163 O184 2.024 . S
C164 O183 1.246 . S
C164 O184 1.249 . S
N165 C166 1.307 . S
N165 C167 1.333 . S
N165 Zn171 2.020 . S
C166 N165 1.307 . S
C166 C170 1.370 . S
C166 H177 0.948 . S
C167 N165 1.333 . S
C167 C168 1.379 . S
C167 H175 0.952 . S
C168 C167 1.379 . S
C168 C169 1.390 . S
C168 H188 0.949 . S
C169 C168 1.390 . S
C169 C170 1.357 . S
C170 C166 1.370 . S
C170 C169 1.357 . S
C170 H189 0.950 . S
Zn171 N165 2.020 . S
Zn171 O174 2.025 . S
Zn171 O179 2.024 . S
Zn171 O181 2.039 . S
Zn171 O183 2.034 . S
O172 C156 1.251 . S
O172 Zn163 2.039 . S
C173 O178 1.246 . S
C173 O179 1.249 . S
O174 C156 1.254 . S
O174 Zn171 2.025 . S
H175 C167 0.952 . S
H176 C158 0.952 . S
H177 C166 0.948 . S
O178 Zn163 2.034 . S
O178 C173 1.246 . S
O179 Zn171 2.024 . S
O179 C173 1.249 . S
H180 C162 0.948 . S
O181 Zn171 2.039 . S
O181 C185 1.251 . S
O182 Zn163 2.025 . S
O182 C185 1.254 . S
O183 C164 1.246 . S
O183 Zn171 2.034 . S
O184 Zn163 2.024 . S
O184 C164 1.249 . S
C185 O181 1.251 . S
C185 O182 1.254 . S
H186 C159 0.949 . S
H187 C161 0.950 . S
H188 C168 0.949 . S
H189 C170 0.950 . S
C190 O206 1.251 . S
C190 O208 1.254 . S
N191 C192 1.333 . S
N191 C196 1.307 . S
N191 Zn197 2.020 . S
C192 N191 1.333 . S
C192 C193 1.379 . S
C192 H210 0.952 . S
C193 C192 1.379 . S
C193 C194 1.390 . S
C193 H220 0.949 . S
C194 C193 1.390 . S
C194 C195 1.357 . S
C195 C194 1.357 . S
C195 C196 1.370 . S
C195 H221 0.950 . S
C196 N191 1.307 . S
C196 C195 1.370 . S
C196 H214 0.948 . S
Zn197 N191 2.020 . S
Zn197 O206 2.039 . S
Zn197 O212 2.034 1_455 S
Zn197 O216 2.025 1_455 S
Zn197 O218 2.024 . S
C198 O217 1.246 . S
C198 O218 1.249 . S
N199 C200 1.307 . S
N199 C201 1.333 . S
N199 Zn205 2.020 . S
C200 N199 1.307 . S
C200 C204 1.370 . S
C200 H211 0.948 . S
C201 N199 1.333 . S
C201 C202 1.378 1_455 S
C201 H209 0.952 1_455 S
C202 C201 1.378 1_655 S
C202 C203 1.386 1_655 S
C202 H222 0.955 . S
C203 C202 1.386 1_455 S
C203 C204 1.357 . S
C204 C200 1.370 . S
C204 C203 1.357 . S
C204 H223 0.950 . S
Zn205 N199 2.020 . S
Zn205 O208 2.025 . S
Zn205 O213 2.024 1_455 S
Zn205 O215 2.039 1_455 S
Zn205 O217 2.034 . S
O206 C190 1.251 . S
O206 Zn197 2.039 . S
C207 O212 1.246 . S
C207 O213 1.249 . S
O208 C190 1.254 . S
O208 Zn205 2.025 . S
H209 C201 0.952 1_655 S
H210 C192 0.952 . S
H211 C200 0.948 . S
O212 Zn197 2.034 1_655 S
O212 C207 1.246 . S
O213 Zn205 2.024 1_655 S
O213 C207 1.249 . S
H214 C196 0.948 . S
O215 Zn205 2.039 1_655 S
O215 C219 1.251 . S
O216 Zn197 2.025 1_655 S
O216 C219 1.254 . S
O217 C198 1.246 . S
O217 Zn205 2.034 . S
O218 Zn197 2.024 . S
O218 C198 1.249 . S
C219 O215 1.251 . S
C219 O216 1.254 . S
H220 C193 0.949 . S
H221 C195 0.950 . S
H222 C202 0.955 . S
H223 C204 0.950 . S
C224 C225 1.421 . S
C224 H228 0.950 . S
C224 C233 1.390 . S
C225 C224 1.421 . S
C225 C227 1.354 1_565 S
H226 C233 0.950 . S
C227 C225 1.354 1_545 S
C227 C229 1.390 . S
C227 H231 0.950 . S
H228 C224 0.950 . S
C229 C227 1.390 . S
C229 C230 1.387 1_545 S
C229 H232 0.950 . S
C230 C229 1.387 1_565 S
C230 C233 1.387 . S
H231 C227 0.950 . S
H232 C229 0.950 . S
C233 C224 1.390 . S
C233 H226 0.950 . S
C233 C230 1.387 . S
C234 C235 1.387 . S
C234 H238 0.950 . S
C234 C243 1.390 . S
C235 C234 1.387 . S
C235 C237 1.387 . S
H236 C243 0.950 . S
C237 C235 1.387 . S
C237 C239 1.390 . S
C237 H241 0.950 . S
H238 C234 0.950 . S
C239 C237 1.390 . S
C239 C240 1.387 . S
C239 H242 0.950 . S
C240 C239 1.387 . S
C240 C243 1.387 . S
H241 C237 0.950 . S
H242 C239 0.950 . S
C243 C234 1.390 . S
C243 H236 0.950 . S
C243 C240 1.387 . S
C244 C245 1.387 . S
C244 H248 0.950 . S
C244 C253 1.390 . S
C245 C244 1.387 . S
C245 C247 1.387 . S
H246 C253 0.950 . S
C247 C245 1.387 . S
C247 C249 1.390 . S
C247 H251 0.950 . S
H248 C244 0.950 . S
C249 C247 1.390 . S
C249 C250 1.387 . S
C249 H252 0.950 . S
C250 C249 1.387 . S
C250 C253 1.387 . S
H251 C247 0.950 . S
H252 C249 0.950 . S
C253 C244 1.390 . S
C253 H246 0.950 . S
C253 C250 1.387 . S
C254 C255 1.387 . S
C254 H258 0.950 . S
C254 C263 1.390 . S
C255 C254 1.387 . S
C255 C257 1.387 . S
H256 C263 0.950 . S
C257 C255 1.387 . S
C257 C259 1.390 . S
C257 H261 0.950 . S
H258 C254 0.950 . S
C259 C257 1.390 . S
C259 C260 1.387 . S
C259 H262 0.950 1_455 S
C260 C259 1.387 . S
C260 C263 1.387 . S
H261 C257 0.950 . S
H262 C259 0.950 1_655 S
C263 C254 1.390 . S
C263 H256 0.950 . S
C263 C260 1.387 . S
C264 C265 1.387 . S
C264 H268 0.950 . S
C264 C273 1.390 . S
C265 C264 1.387 . S
C265 C267 1.387 1_545 S
H266 C273 0.950 . S
C267 C265 1.387 1_565 S
C267 C269 1.390 . S
C267 H271 0.950 . S
H268 C264 0.950 . S
C269 C267 1.390 . S
C269 C270 1.387 1_565 S
C269 H272 0.950 . S
C270 C269 1.387 1_545 S
C270 C273 1.387 . S
H271 C267 0.950 . S
H272 C269 0.950 . S
C273 C264 1.390 . S
C273 H266 0.950 . S
C273 C270 1.387 . S
C274 C275 1.387 . S
C274 H278 0.950 . S
C274 C283 1.390 . S
C275 C274 1.387 . S
C275 C277 1.387 1_554 S
H276 C283 0.950 . S
C277 C275 1.387 1_556 S
C277 C279 1.390 . S
C277 H281 0.950 . S
H278 C274 0.950 . S
C279 C277 1.390 . S
C279 C280 1.387 . S
C279 H282 0.950 . S
C280 C279 1.387 . S
C280 C283 1.387 1_556 S
H281 C277 0.950 . S
H282 C279 0.950 . S
C283 C274 1.390 . S
C283 H276 0.950 . S
C283 C280 1.387 1_554 S
C284 C285 1.387 . S
C284 H288 0.950 . S
C284 C293 1.390 1_554 S
C285 C284 1.387 . S
C285 C287 1.387 . S
H286 C293 0.950 . S
C287 C285 1.387 . S
C287 C289 1.390 1_554 S
C287 H291 0.950 . S
H288 C284 0.950 . S
C289 C287 1.390 1_556 S
C289 C290 1.387 . S
C289 H292 0.950 . S
C290 C289 1.387 . S
C290 C293 1.387 . S
H291 C287 0.950 . S
H292 C289 0.950 . S
C293 C284 1.390 1_556 S
C293 H286 0.950 . S
C293 C290 1.387 . S
C294 C295 1.387 . S
C294 H298 0.950 . S
C294 C303 1.390 . S
C295 C294 1.387 . S
C295 C297 1.387 1_655 S
H296 C303 0.950 . S
C297 C295 1.387 1_455 S
C297 C299 1.390 . S
C297 H301 0.950 1_556 S
H298 C294 0.950 . S
C299 C297 1.390 . S
C299 C300 1.387 . S
C299 H302 0.950 . S
C300 C299 1.387 . S
C300 C303 1.387 1_455 S
H301 C297 0.950 1_554 S
H302 C299 0.950 . S
C303 C294 1.390 . S
C303 H296 0.950 . S
C303 C300 1.387 1_655 S
C304 C305 1.387 . S
C304 H308 0.950 . S
C304 C313 1.390 . S
C305 C304 1.387 . S
C305 C307 1.387 . S
H306 C313 0.950 . S
C307 C305 1.387 . S
C307 C309 1.390 . S
C307 H311 0.950 . S
H308 C304 0.950 . S
C309 C307 1.390 . S
C309 C310 1.387 . S
C309 H312 0.950 . S
C310 C309 1.387 . S
C310 C313 1.387 . S
H311 C307 0.950 . S
H312 C309 0.950 . S
C313 C304 1.390 . S
C313 H306 0.950 . S
C313 C310 1.387 . S
C314 C315 1.406 . S
C314 H318 0.950 . S
C314 C323 1.390 . S
C315 C314 1.406 . S
C315 C317 1.370 1_565 S
H316 C323 0.950 . S
C317 C315 1.370 1_545 S
C317 C319 1.390 . S
C317 H321 0.950 . S
H318 C314 0.950 . S
C319 C317 1.390 . S
C319 C320 1.387 1_545 S
C319 H322 0.950 . S
C320 C319 1.387 1_565 S
C320 C323 1.387 . S
H321 C317 0.950 . S
H322 C319 0.950 . S
C323 C314 1.390 . S
C323 H316 0.950 . S
C323 C320 1.387 . S
C324 C325 1.387 . S
C324 H328 0.950 . S
C324 C333 1.390 . S
C325 C324 1.387 . S
C325 C327 1.387 . S
H326 C333 0.950 . S
C327 C325 1.387 . S
C327 C329 1.390 . S
C327 H331 0.950 . S
H328 C324 0.950 . S
C329 C327 1.390 . S
C329 C330 1.387 . S
C329 H332 0.950 . S
C330 C329 1.387 . S
C330 C333 1.387 . S
H331 C327 0.950 . S
H332 C329 0.950 . S
C333 C324 1.390 . S
C333 H326 0.950 . S
C333 C330 1.387 . S
C334 C335 1.387 . S
C334 H338 0.950 . S
C334 C343 1.390 . S
C335 C334 1.387 . S
C335 C337 1.387 . S
H336 C343 0.950 . S
C337 C335 1.387 . S
C337 C339 1.390 . S
C337 H341 0.950 . S
H338 C334 0.950 . S
C339 C337 1.390 . S
C339 C340 1.387 . S
C339 H342 0.950 . S
C340 C339 1.387 . S
C340 C343 1.387 . S
H341 C337 0.950 . S
H342 C339 0.950 . S
C343 C334 1.390 . S
C343 H336 0.950 . S
C343 C340 1.387 . S
C344 C345 1.387 1_455 S
C344 H348 0.950 . S
C344 C353 1.390 . S
C345 C344 1.387 1_655 S
C345 C347 1.387 . S
H346 C353 0.950 . S
C347 C345 1.387 . S
C347 C349 1.390 . S
C347 H351 0.950 1_556 S
H348 C344 0.950 . S
C349 C347 1.390 . S
C349 C350 1.387 1_655 S
C349 H352 0.950 1_556 S
C350 C349 1.387 1_455 S
C350 C353 1.387 . S
H351 C347 0.950 1_554 S
H352 C349 0.950 1_554 S
C353 C344 1.390 . S
C353 H346 0.950 . S
C353 C350 1.387 . S
C354 C355 1.412 1_556 S
C354 H358 0.950 . S
C354 C363 1.390 . S
C355 C354 1.412 1_554 S
C355 C357 1.363 1_544 S
H356 C363 0.950 . S
C357 C355 1.363 1_566 S
C357 C359 1.390 . S
C357 H361 0.950 1_556 S
H358 C354 0.950 . S
C359 C357 1.390 . S
C359 C360 1.387 1_565 S
C359 H362 0.950 . S
C360 C359 1.387 1_545 S
C360 C363 1.387 . S
H361 C357 0.950 1_554 S
H362 C359 0.950 . S
C363 C354 1.390 . S
C363 H356 0.950 . S
C363 C360 1.387 . S
C364 C365 1.387 1_556 S
C364 H368 0.950 . S
C364 C373 1.390 . S
C365 C364 1.387 1_554 S
C365 C367 1.387 . S
H366 C373 0.950 . S
C367 C365 1.387 . S
C367 C369 1.390 . S
C367 H371 0.950 . S
H368 C364 0.950 . S
C369 C367 1.390 . S
C369 C370 1.387 1_554 S
C369 H372 0.950 . S
C370 C369 1.387 1_556 S
C370 C373 1.387 . S
H371 C367 0.950 . S
H372 C369 0.950 . S
C373 C364 1.390 . S
C373 H366 0.950 . S
C373 C370 1.387 . S
C374 C375 1.387 . S
C374 H378 0.950 . S
C374 C383 1.390 1_554 S
C375 C374 1.387 . S
C375 C377 1.387 . S
H376 C383 0.950 . S
C377 C375 1.387 . S
C377 C379 1.390 . S
C377 H381 0.950 . S
H378 C374 0.950 . S
C379 C377 1.390 . S
C379 C380 1.387 1_554 S
C379 H382 0.950 1_554 S
C380 C379 1.387 1_556 S
C380 C383 1.387 . S
H381 C377 0.950 . S
H382 C379 0.950 1_556 S
C383 C374 1.390 1_556 S
C383 H376 0.950 . S
C383 C380 1.387 . S
C384 C385 1.387 . S
C384 H388 0.950 . S
C384 C393 1.390 . S
C385 C384 1.387 . S
C385 C387 1.387 . S
H386 C393 0.950 . S
C387 C385 1.387 . S
C387 C389 1.390 . S
C387 H391 0.950 . S
H388 C384 0.950 . S
C389 C387 1.390 . S
C389 C390 1.387 . S
C389 H392 0.950 . S
C390 C389 1.387 . S
C390 C393 1.387 . S
H391 C387 0.950 . S
H392 C389 0.950 . S
C393 C384 1.390 . S
C393 H386 0.950 . S
C393 C390 1.387 . S
C394 C395 1.418 . S
C394 H398 0.950 . S
C394 C403 1.390 . S
C395 C394 1.418 . S
C395 C397 1.356 1_545 S
H396 C403 0.950 . S
C397 C395 1.356 1_565 S
C397 C399 1.390 . S
C397 H401 0.950 . S
H398 C394 0.950 . S
C399 C397 1.390 . S
C399 C400 1.387 1_565 S
C399 H402 0.950 . S
C400 C399 1.387 1_545 S
C400 C403 1.387 . S
H401 C397 0.950 . S
H402 C399 0.950 . S
C403 C394 1.390 . S
C403 H396 0.950 . S
C403 C400 1.387 . S
C404 C405 1.387 . S
C404 H408 0.950 . S
C404 C413 1.390 . S
C405 C404 1.387 . S
C405 C407 1.387 . S
H406 C413 0.950 . S
C407 C405 1.387 . S
C407 C409 1.390 . S
C407 H411 0.950 . S
H408 C404 0.950 . S
C409 C407 1.390 . S
C409 C410 1.387 . S
C409 H412 0.950 . S
C410 C409 1.387 . S
C410 C413 1.387 . S
H411 C407 0.950 . S
H412 C409 0.950 . S
C413 C404 1.390 . S
C413 H406 0.950 . S
C413 C410 1.387 . S
C414 C415 1.387 . S
C414 H418 0.950 . S
C414 C423 1.390 . S
C415 C414 1.387 . S
C415 C417 1.387 . S
H416 C423 0.950 . S
C417 C415 1.387 . S
C417 C419 1.390 . S
C417 H421 0.950 . S
H418 C414 0.950 . S
C419 C417 1.390 . S
C419 C420 1.387 1_554 S
C419 H422 0.950 1_554 S
C420 C419 1.387 1_556 S
C420 C423 1.387 1_556 S
H421 C417 0.950 . S
H422 C419 0.950 1_556 S
C423 C414 1.390 . S
C423 H416 0.950 . S
C423 C420 1.387 1_554 S
C424 C425 1.387 1_455 S
C424 H428 0.950 . S
C424 C433 1.390 . S
C425 C424 1.387 1_655 S
C425 C427 1.387 . S
H426 C433 0.950 . S
C427 C425 1.387 . S
C427 C429 1.390 . S
C427 H431 0.950 . S
H428 C424 0.950 . S
C429 C427 1.390 . S
C429 C430 1.387 . S
C429 H432 0.950 . S
C430 C429 1.387 . S
C430 C433 1.387 1_655 S
H431 C427 0.950 . S
H432 C429 0.950 . S
C433 C424 1.390 . S
C433 H426 0.950 . S
C433 C430 1.387 1_455 S
C434 C435 1.364 1_545 S
C434 H438 0.950 . S
C434 C443 1.390 . S
C435 C434 1.364 1_565 S
C435 C437 1.410 . S
H436 C443 0.950 . S
C437 C435 1.410 . S
C437 C439 1.390 . S
C437 H441 0.950 . S
H438 C434 0.950 . S
C439 C437 1.390 . S
C439 C440 1.387 . S
C439 H442 0.950 . S
C440 C439 1.387 . S
C440 C443 1.387 1_565 S
H441 C437 0.950 . S
H442 C439 0.950 . S
C443 C434 1.390 . S
C443 H436 0.950 . S
C443 C440 1.387 1_545 S
C444 C445 1.387 . S
C444 H448 0.950 . S
C444 C453 1.390 . S
C445 C444 1.387 . S
C445 C447 1.387 . S
H446 C453 0.950 . S
C447 C445 1.387 . S
C447 C449 1.390 . S
C447 H451 0.950 . S
H448 C444 0.950 . S
C449 C447 1.390 . S
C449 C450 1.387 . S
C449 H452 0.950 . S
C450 C449 1.387 . S
C450 C453 1.387 . S
H451 C447 0.950 . S
H452 C449 0.950 . S
C453 C444 1.390 . S
C453 H446 0.950 . S
C453 C450 1.387 . S
C454 C455 1.387 . S
C454 H458 0.950 . S
C454 C463 1.390 . S
C455 C454 1.387 . S
C455 C457 1.387 . S
H456 C463 0.950 . S
C457 C455 1.387 . S
C457 C459 1.390 . S
C457 H461 0.950 . S
H458 C454 0.950 . S
C459 C457 1.390 . S
C459 C460 1.387 . S
C459 H462 0.950 . S
C460 C459 1.387 . S
C460 C463 1.387 . S
H461 C457 0.950 . S
H462 C459 0.950 . S
C463 C454 1.390 . S
C463 H456 0.950 . S
C463 C460 1.387 . S
C225 C76 1.851 . S
C230 C105 1.876 . S
C240 C126 1.534 . S
C235 C87 1.508 . S
C250 C160 1.474 . S
C245 C54 1.428 . S
C260 C194 1.554 . S
C255 C65 1.532 . S
C270 C96 1.875 . S
C265 C32 1.850 1_546 S
C275 C43 1.514 . S
C280 C135 1.537 . S
C285 C10 1.434 . S
C290 C169 1.478 . S
C295 C21 1.542 . S
C300 C203 1.555 . S
C310 C117 0.884 . S
C305 C60 0.827 . S
C320 C122 1.279 . S
C315 C71 1.246 1_565 S
C330 C156 1.187 . S
C325 C82 1.170 . S
C335 C49 0.624 . S
C340 C190 0.627 . S
C345 C16 0.824 . S
C350 C88 0.886 . S
C360 C151 1.278 . S
C355 C27 1.239 . S
C370 C185 1.187 . S
C365 C38 1.165 . S
C375 C5 0.627 . S
C380 C219 0.625 . S
C385 C59 1.347 . S
C390 C101 1.388 . S
C395 C70 1.718 . S
C400 C130 1.767 1_554 S
C410 C164 1.546 1_554 S
C405 C81 1.513 . S
C420 C198 1.609 . S
C415 C48 1.556 . S
C425 C15 1.342 . S
C430 C92 1.395 . S
C440 C139 1.767 . S
C435 C26 1.720 1_565 S
C450 C173 1.546 . S
C445 C37 1.514 . S
C455 C4 1.559 . S
C460 C207 1.609 . S
