# Generated by pormake.
# Topology dag, (6,3)-cn, num edge types: 1
# Building blocks:
#     Node 0, Type 0, BuildingBlock: MIDCAF_clean_sbu_0, # of connection points: 6
#     Node 1, Type 0, BuildingBlock: MIDCAF_clean_sbu_0, # of connection points: 6
#     Node 2, Type 0, BuildingBlock: MIDCAF_clean_sbu_0, # of connection points: 6
#     Node 3, Type 0, BuildingBlock: MIDCAF_clean_sbu_0, # of connection points: 6
#     Node 4, Type 1, BuildingBlock: VETTIZ_charged_linker_0, # of connection points: 3
#     Node 5, Type 1, BuildingBlock: VETTIZ_charged_linker_0, # of connection points: 3
#     Node 6, Type 1, BuildingBlock: VETTIZ_charged_linker_0, # of connection points: 3
#     Node 7, Type 1, BuildingBlock: VETTIZ_charged_linker_0, # of connection points: 3
#     Node 8, Type 1, BuildingBlock: VETTIZ_charged_linker_0, # of connection points: 3
#     Node 9, Type 1, BuildingBlock: VETTIZ_charged_linker_0, # of connection points: 3
#     Node 10, Type 1, BuildingBlock: VETTIZ_charged_linker_0, # of connection points: 3
#     Node 11, Type 1, BuildingBlock: VETTIZ_charged_linker_0, # of connection points: 3
#     Edge 12, Type (0, 1), BuildingBlock: AJUNOK_clean_linker_0, # of connection points: 2
#     Edge 13, Type (0, 1), BuildingBlock: AJUNOK_clean_linker_0, # of connection points: 2
#     Edge 14, Type (0, 1), BuildingBlock: AJUNOK_clean_linker_0, # of connection points: 2
#     Edge 15, Type (0, 1), BuildingBlock: AJUNOK_clean_linker_0, # of connection points: 2
#     Edge 16, Type (0, 1), BuildingBlock: AJUNOK_clean_linker_0, # of connection points: 2
#     Edge 17, Type (0, 1), BuildingBlock: AJUNOK_clean_linker_0, # of connection points: 2
#     Edge 18, Type (0, 1), BuildingBlock: AJUNOK_clean_linker_0, # of connection points: 2
#     Edge 19, Type (0, 1), BuildingBlock: AJUNOK_clean_linker_0, # of connection points: 2
#     Edge 20, Type (0, 1), BuildingBlock: AJUNOK_clean_linker_0, # of connection points: 2
#     Edge 21, Type (0, 1), BuildingBlock: AJUNOK_clean_linker_0, # of connection points: 2
#     Edge 22, Type (0, 1), BuildingBlock: AJUNOK_clean_linker_0, # of connection points: 2
#     Edge 23, Type (0, 1), BuildingBlock: AJUNOK_clean_linker_0, # of connection points: 2
#     Edge 24, Type (0, 1), BuildingBlock: AJUNOK_clean_linker_0, # of connection points: 2
#     Edge 25, Type (0, 1), BuildingBlock: AJUNOK_clean_linker_0, # of connection points: 2
#     Edge 26, Type (0, 1), BuildingBlock: AJUNOK_clean_linker_0, # of connection points: 2
#     Edge 27, Type (0, 1), BuildingBlock: AJUNOK_clean_linker_0, # of connection points: 2
#     Edge 28, Type (0, 1), BuildingBlock: AJUNOK_clean_linker_0, # of connection points: 2
#     Edge 29, Type (0, 1), BuildingBlock: AJUNOK_clean_linker_0, # of connection points: 2
#     Edge 30, Type (0, 1), BuildingBlock: AJUNOK_clean_linker_0, # of connection points: 2
#     Edge 31, Type (0, 1), BuildingBlock: AJUNOK_clean_linker_0, # of connection points: 2
#     Edge 32, Type (0, 1), BuildingBlock: AJUNOK_clean_linker_0, # of connection points: 2
#     Edge 33, Type (0, 1), BuildingBlock: AJUNOK_clean_linker_0, # of connection points: 2
#     Edge 34, Type (0, 1), BuildingBlock: AJUNOK_clean_linker_0, # of connection points: 2
#     Edge 35, Type (0, 1), BuildingBlock: AJUNOK_clean_linker_0, # of connection points: 2
# Relax obj value: 0.316
# Max RMSD: 0.190
# Mean RMSD: 0.180
data_MOF--net-dag--node1-MIDCAF_clean_sbu_0--node2-VETTIZ_charged_linker_0--edge1-AJUNOK_clean_linker_0
_symmetry_space_group_name_H-M    P1
_symmetry_Int_Tables_number       1
_symmetry_cell_setting            triclinic
loop_
_symmetry_equiv_pos_as_xyz
'x, y, z'
_cell_length_a     38.293578
_cell_length_b     38.513007
_cell_length_c     29.603335
_cell_angle_alpha  90.116951
_cell_angle_beta   89.765813
_cell_angle_gamma 90.145187
loop_
_atom_site_label
_atom_site_type_symbol
_atom_site_fract_x
_atom_site_fract_y
_atom_site_fract_z
_atom_type_partial_charge
Zn0 Zn 0.17142 0.82766 0.08672 0.0
Zn1 Zn 0.16362 0.82779 0.92552 0.0
Zn2 Zn 0.17029 0.82458 0.0051 0.0
C3 C 0.16268 0.89539 0.94853 0.0
C4 C 0.10896 0.78716 0.95071 0.0
O5 O 0.20776 0.78335 0.02474 0.0
O6 O 0.18763 0.77986 0.09442 0.0
C7 C 0.20737 0.88513 0.06115 0.0
O8 O 0.17533 0.88024 0.98373 0.0
O9 O 0.15038 0.87707 0.91698 0.0
O10 O 0.12788 0.7912 0.91617 0.0
O11 O 0.11823 0.80191 0.98803 0.0
O12 O 0.20585 0.86565 0.09531 0.0
O13 O 0.19144 0.87605 0.02464 0.0
O14 O 0.11611 0.81651 0.03091 0.0
O15 O 0.12173 0.83663 0.10041 0.0
C16 C 0.10232 0.82638 0.06873 0.0
O17 O 0.21232 0.79044 0.9781 0.0
O18 O 0.21231 0.81553 0.91137 0.0
C19 C 0.2059 0.76736 0.06283 0.0
C20 C 0.22686 0.79569 0.93939 0.0
Zn21 Zn 0.69273 0.66895 0.37651 0.0
Zn22 Zn 0.62957 0.65078 0.55385 0.0
Zn23 Zn 0.67154 0.66326 0.50559 0.0
C24 C 0.65353 0.58961 0.5362 0.0
C25 C 0.62206 0.71819 0.52876 0.0
O26 O 0.70187 0.71122 0.5064 0.0
O27 O 0.70026 0.68514 0.44176 0.0
C28 C 0.71755 0.62041 0.46045 0.0
O29 O 0.67944 0.61079 0.53421 0.0
O30 O 0.62283 0.60139 0.53447 0.0
O31 O 0.60343 0.69104 0.52638 0.0
O32 O 0.65532 0.71461 0.53168 0.0
O33 O 0.70623 0.6452 0.43641 0.0
O34 O 0.70952 0.62231 0.50216 0.0
O35 O 0.63388 0.66387 0.45089 0.0
O36 O 0.639 0.66839 0.37536 0.0
C37 C 0.62047 0.66537 0.41131 0.0
O38 O 0.68678 0.69973 0.55765 0.0
O39 O 0.66538 0.66158 0.60529 0.0
C40 C 0.70908 0.71174 0.46425 0.0
C41 C 0.68605 0.68678 0.5978 0.0
Zn42 Zn 0.85691 0.15552 0.94021 0.0
Zn43 Zn 0.82897 0.18178 0.08675 0.0
Zn44 Zn 0.8347 0.17108 0.00878 0.0
C45 C 0.89962 0.16904 0.07335 0.0
C46 C 0.7835 0.12609 0.06849 0.0
O47 O 0.81053 0.20823 0.96044 0.0
O48 O 0.81603 0.17211 0.90307 0.0
C49 C 0.88227 0.21869 0.9572 0.0
O50 O 0.88827 0.16687 0.03291 0.0
O51 O 0.87835 0.17514 0.10507 0.0
O52 O 0.79404 0.14509 0.10049 0.0
O53 O 0.79611 0.13102 0.02861 0.0
O54 O 0.89518 0.18962 0.94633 0.0
O55 O 0.85144 0.21983 0.97479 0.0
O56 O 0.81627 0.119 0.98723 0.0
O57 O 0.86222 0.10531 0.94551 0.0
C58 C 0.83406 0.0965 0.96463 0.0
O59 O 0.80893 0.22234 0.00675 0.0
O60 O 0.81074 0.22937 0.08084 0.0
C61 C 0.80182 0.19869 0.92012 0.0
C62 C 0.80253 0.2406 0.04229 0.0
Zn63 Zn 0.3774 0.33656 0.56984 0.0
Zn64 Zn 0.31083 0.32731 0.38209 0.0
Zn65 Zn 0.34409 0.32686 0.50855 0.0
C66 C 0.38756 0.3234 0.4064 0.0
C67 C 0.29665 0.37449 0.47111 0.0
O68 O 0.32013 0.28853 0.55521 0.0
O69 O 0.3353 0.32319 0.6107 0.0
C70 C 0.39077 0.27242 0.54141 0.0
O71 O 0.38025 0.32452 0.44914 0.0
O72 O 0.3638 0.32384 0.37595 0.0
O73 O 0.30538 0.35031 0.4443 0.0
O74 O 0.30976 0.37205 0.51056 0.0
O75 O 0.409 0.29959 0.5458 0.0
O76 O 0.35767 0.27558 0.53679 0.0
O77 O 0.33918 0.38086 0.5391 0.0
O78 O 0.3911 0.38587 0.57029 0.0
C79 C 0.3628 0.39968 0.55822 0.0
O80 O 0.31042 0.28018 0.50715 0.0
O81 O 0.30899 0.31063 0.4466 0.0
C82 C 0.31542 0.29929 0.59623 0.0
C83 C 0.29961 0.28323 0.46664 0.0
C84 C 0.25323 0.04524 0.12187 0.0
C85 C 0.24104 0.02933 0.08193 0.0
C86 C 0.21906 0.04837 0.0531 0.0
C87 C 0.21251 0.09225 0.1107 0.0
C88 C 0.23853 0.07687 0.13569 0.0
C89 C 0.24462 0.09579 0.1797 0.0
H90 H 0.18541 0.21131 0.33502 0.0
C91 C 0.1957 0.11891 0.13893 0.0
C92 C 0.21492 0.12202 0.17897 0.0
H93 H 0.28562 0.15977 0.33183 0.0
H94 H 0.26951 0.13038 0.26281 0.0
H95 H 0.18647 0.23379 0.23473 0.0
H96 H 0.13867 0.14357 0.29527 0.0
H97 H 0.10895 0.16166 0.25695 0.0
H98 H 0.12291 0.18682 0.30497 0.0
H99 H 0.14765 0.23677 0.26874 0.0
H100 H 0.14561 0.22749 0.20905 0.0
C101 C 0.2809 0.11368 0.17738 0.0
C102 C 0.24065 0.06977 0.2192 0.0
C103 C 0.07218 0.15439 0.09905 0.0
C104 C 0.04651 0.173 0.1227 0.0
C105 C 0.05603 0.19127 0.16215 0.0
C106 C 0.08996 0.18893 0.17957 0.0
C107 C 0.1147 0.16803 0.15737 0.0
C108 C 0.10595 0.15214 0.11698 0.0
C109 C 0.13517 0.13025 0.09858 0.0
C110 C 0.16261 0.13507 0.13507 0.0
C111 C 0.15038 0.15683 0.16974 0.0
C112 C 0.1474 0.1455 0.05271 0.0
C113 C 0.12168 0.09229 0.09571 0.0
C114 C 0.20374 0.19333 0.31983 0.0
C115 C 0.23667 0.18756 0.33956 0.0
C116 C 0.25975 0.16405 0.31834 0.0
C117 C 0.25066 0.14752 0.27771 0.0
C118 C 0.21824 0.15463 0.25773 0.0
C119 C 0.19533 0.17712 0.27884 0.0
C120 C 0.16286 0.1831 0.25135 0.0
C121 C 0.17079 0.16172 0.20937 0.0
C122 C 0.20296 0.14454 0.21379 0.0
C123 C 0.16013 0.22232 0.24048 0.0
C124 C 0.13149 0.16831 0.27835 0.0
H125 H 0.18678 0.09231 0.04516 0.0
H126 H 0.27106 0.03164 0.14389 0.0
H127 H 0.2165 0.05398 0.21505 0.0
H128 H 0.23846 0.0826 0.25241 0.0
H129 H 0.26322 0.05175 0.22045 0.0
H130 H 0.28991 0.11731 0.14191 0.0
H131 H 0.30108 0.09813 0.19498 0.0
H132 H 0.28043 0.14021 0.19191 0.0
H133 H 0.06552 0.14005 0.06878 0.0
H134 H 0.03679 0.20645 0.18039 0.0
H135 H 0.09532 0.20266 0.21035 0.0
H136 H 0.1368 0.17195 0.04673 0.0
H137 H 0.13915 0.12868 0.0242 0.0
H138 H 0.17621 0.14861 0.05108 0.0
H139 H 0.10833 0.08479 0.1277 0.0
H140 H 0.14239 0.07298 0.09044 0.0
H141 H 0.10269 0.08927 0.0677 0.0
H142 H 0.20957 0.03724 0.02187 0.0
C143 C 0.20507 0.08005 0.06716 0.0
C144 C 0.3467 0.56326 0.63445 0.0
C145 C 0.36212 0.54716 0.59659 0.0
C146 C 0.3853 0.56656 0.5694 0.0
C147 C 0.38141 0.61516 0.62141 0.0
C148 C 0.357 0.59698 0.64653 0.0
C149 C 0.34557 0.61673 0.68801 0.0
H150 H 0.37213 0.75112 0.83158 0.0
C151 C 0.38956 0.64773 0.64585 0.0
C152 C 0.36881 0.64872 0.68506 0.0
H153 H 0.28663 0.67738 0.83229 0.0
H154 H 0.31151 0.64835 0.7676 0.0
H155 H 0.4364 0.69932 0.7931 0.0
H156 H 0.36137 0.76762 0.73177 0.0
H157 H 0.40002 0.77127 0.70019 0.0
H158 H 0.39983 0.78403 0.75892 0.0
H159 H 0.43693 0.74564 0.8004 0.0
H160 H 0.45796 0.72533 0.7527 0.0
C161 C 0.35391 0.59448 0.73009 0.0
C162 C 0.30638 0.62592 0.68298 0.0
C163 C 0.48739 0.72527 0.58863 0.0
C164 C 0.50502 0.7541 0.60703 0.0
C165 C 0.49258 0.76867 0.6477 0.0
C166 C 0.46394 0.75383 0.67052 0.0
C167 C 0.44758 0.72408 0.65249 0.0
C168 C 0.45909 0.71069 0.61178 0.0
C169 C 0.44011 0.67798 0.59862 0.0
C170 C 0.41486 0.67409 0.6379 0.0
C171 C 0.41935 0.70108 0.6694 0.0
C172 C 0.467 0.64788 0.59632 0.0
C173 C 0.42074 0.68484 0.5537 0.0
C174 C 0.35853 0.72882 0.8179 0.0
C175 C 0.32689 0.71708 0.83708 0.0
C176 C 0.31109 0.68705 0.81872 0.0
C177 C 0.32524 0.67051 0.78055 0.0
C178 C 0.35526 0.68434 0.75984 0.0
C179 C 0.37129 0.71314 0.77845 0.0
C180 C 0.40001 0.72713 0.74871 0.0
C181 C 0.39871 0.70182 0.70938 0.0
C182 C 0.3731 0.67622 0.71668 0.0
C183 C 0.43477 0.72453 0.77492 0.0
C184 C 0.39018 0.76454 0.7342 0.0
H185 H 0.41344 0.61344 0.56011 0.0
H186 H 0.32803 0.54937 0.65525 0.0
H187 H 0.29843 0.62678 0.64688 0.0
H188 H 0.30026 0.65213 0.69621 0.0
H189 H 0.28946 0.6065 0.70015 0.0
H190 H 0.38085 0.58385 0.72772 0.0
H191 H 0.33552 0.57223 0.73299 0.0
H192 H 0.35286 0.60933 0.76193 0.0
H193 H 0.49679 0.71278 0.5581 0.0
H194 H 0.50563 0.79091 0.66249 0.0
H195 H 0.45622 0.76556 0.7019 0.0
H196 H 0.48971 0.65286 0.61876 0.0
H197 H 0.47728 0.64436 0.56147 0.0
H198 H 0.45619 0.62293 0.60842 0.0
H199 H 0.4084 0.71096 0.55413 0.0
H200 H 0.39917 0.66637 0.54756 0.0
H201 H 0.43909 0.68396 0.52455 0.0
H202 H 0.39741 0.55488 0.53994 0.0
C203 C 0.39489 0.60047 0.58148 0.0
C204 C 0.76299 0.8327 0.31777 0.0
C205 C 0.77722 0.8036 0.33947 0.0
C206 C 0.80907 0.78986 0.32342 0.0
C207 C 0.81069 0.83263 0.26332 0.0
C208 C 0.7798 0.84642 0.27969 0.0
C209 C 0.76669 0.8758 0.25114 0.0
H210 H 0.79231 0.98388 0.0755 0.0
C211 C 0.82069 0.85224 0.22225 0.0
C212 C 0.79471 0.87739 0.2149 0.0
H213 H 0.70807 0.9869 0.17219 0.0
H214 H 0.72984 0.93429 0.207 0.0
H215 H 0.84645 0.97617 0.12921 0.0
H216 H 0.79469 0.88955 0.06591 0.0
H217 H 0.84014 0.89031 0.05423 0.0
H218 H 0.81328 0.92647 0.03827 0.0
H219 H 0.86287 0.95841 0.07749 0.0
H220 H 0.87668 0.94213 0.13171 0.0
C221 C 0.76608 0.90908 0.28061 0.0
C222 C 0.73072 0.86529 0.23153 0.0
C223 C 0.93582 0.82772 0.14009 0.0
C224 C 0.9537 0.84541 0.10505 0.0
C225 C 0.93659 0.87338 0.08383 0.0
C226 C 0.90267 0.88291 0.0961 0.0
C227 C 0.88583 0.86588 0.13194 0.0
C228 C 0.90238 0.83884 0.15354 0.0
C229 C 0.88142 0.82586 0.19348 0.0
C230 C 0.8499 0.84992 0.19235 0.0
C231 C 0.85258 0.87289 0.15577 0.0
C232 C 0.90354 0.83119 0.23664 0.0
C233 C 0.87103 0.78768 0.18426 0.0
C234 C 0.77759 0.97245 0.10274 0.0
C235 C 0.74863 0.98974 0.12092 0.0
C236 C 0.73088 0.97447 0.15779 0.0
C237 C 0.74369 0.94399 0.17804 0.0
C238 C 0.77454 0.92868 0.16119 0.0
C239 C 0.79026 0.94253 0.12332 0.0
C240 C 0.82367 0.92459 0.11094 0.0
C241 C 0.82618 0.89799 0.14829 0.0
C242 C 0.7972 0.9001 0.17736 0.0
C243 C 0.85401 0.95156 0.1121 0.0
C244 C 0.81804 0.90679 0.06473 0.0
H245 H 0.84961 0.79214 0.27435 0.0
H246 H 0.73876 0.84409 0.32954 0.0
H247 H 0.73014 0.83716 0.22292 0.0
H248 H 0.72463 0.87872 0.19962 0.0
H249 H 0.70941 0.87025 0.25627 0.0
H250 H 0.78885 0.90979 0.30383 0.0
H251 H 0.742 0.91021 0.30162 0.0
H252 H 0.7682 0.93314 0.26061 0.0
H253 H 0.94789 0.80627 0.15762 0.0
H254 H 0.94967 0.88908 0.05867 0.0
H255 H 0.89142 0.90399 0.07791 0.0
H256 H 0.91836 0.85604 0.2349 0.0
H257 H 0.92273 0.80986 0.24077 0.0
H258 H 0.88761 0.83322 0.26764 0.0
H259 H 0.86376 0.78401 0.14821 0.0
H260 H 0.84788 0.77937 0.2038 0.0
H261 H 0.89304 0.76986 0.19164 0.0
H262 H 0.82037 0.76722 0.33928 0.0
C263 C 0.82583 0.80417 0.28547 0.0
C264 C 0.68419 0.25542 0.7759 0.0
C265 C 0.71471 0.27163 0.79207 0.0
C266 C 0.72593 0.30292 0.77221 0.0
C267 C 0.67694 0.30145 0.72069 0.0
C268 C 0.66586 0.27066 0.74004 0.0
C269 C 0.63364 0.25644 0.71725 0.0
H270 H 0.51097 0.27543 0.55383 0.0
C271 C 0.6526 0.31031 0.68392 0.0
C272 C 0.62718 0.28392 0.68141 0.0
H273 H 0.51653 0.19303 0.65205 0.0
H274 H 0.56964 0.21856 0.68301 0.0
H275 H 0.5202 0.33064 0.61969 0.0
H276 H 0.59616 0.2849 0.53095 0.0
H277 H 0.59951 0.33055 0.52729 0.0
H278 H 0.55897 0.30968 0.51325 0.0
H279 H 0.52691 0.347 0.56375 0.0
H280 H 0.55136 0.36345 0.61137 0.0
C281 C 0.60377 0.25504 0.75253 0.0
C282 C 0.6428 0.22082 0.69616 0.0
C283 C 0.66792 0.42404 0.59836 0.0
C284 C 0.64611 0.44206 0.5681 0.0
C285 C 0.61527 0.42544 0.5532 0.0
C286 C 0.60679 0.39179 0.56712 0.0
C287 C 0.62832 0.3747 0.59812 0.0
C288 C 0.65807 0.39097 0.61373 0.0
C289 C 0.67547 0.37046 0.65058 0.0
C290 C 0.65123 0.33921 0.6542 0.0
C291 C 0.6242 0.34158 0.62266 0.0
C292 C 0.67525 0.3928 0.69428 0.0
C293 C 0.71231 0.36 0.63373 0.0
C294 C 0.52437 0.26199 0.58081 0.0
C295 C 0.51044 0.23142 0.59934 0.0
C296 C 0.52738 0.2161 0.63648 0.0
C297 C 0.55796 0.23115 0.65452 0.0
C298 C 0.57113 0.26225 0.63585 0.0
C299 C 0.5541 0.27702 0.59961 0.0
C300 C 0.56887 0.31166 0.58655 0.0
C301 C 0.59902 0.31467 0.61922 0.0
C302 C 0.60038 0.28584 0.64828 0.0
C303 C 0.5405 0.33974 0.59542 0.0
C304 C 0.58147 0.3094 0.53683 0.0
H305 H 0.71728 0.34168 0.72303 0.0
H306 H 0.67542 0.23094 0.78993 0.0
H307 H 0.66909 0.22167 0.68004 0.0
H308 H 0.6247 0.21302 0.66908 0.0
H309 H 0.64313 0.20018 0.72232 0.0
H310 H 0.60438 0.2784 0.77469 0.0
H311 H 0.60622 0.2318 0.77445 0.0
H312 H 0.57763 0.25507 0.73701 0.0
H313 H 0.69163 0.43576 0.61115 0.0
H314 H 0.59657 0.43879 0.53227 0.0
H315 H 0.58313 0.38086 0.55414 0.0
H316 H 0.65202 0.41008 0.69555 0.0
H317 H 0.69884 0.40957 0.69625 0.0
H318 H 0.67325 0.37711 0.72538 0.0
H319 H 0.71171 0.3529 0.59729 0.0
H320 H 0.72263 0.33682 0.65098 0.0
H321 H 0.73114 0.38177 0.63775 0.0
H322 H 0.74944 0.31569 0.78401 0.0
C323 C 0.70723 0.31793 0.73676 0.0
C324 C 0.72694 0.4735 0.34279 0.0
C325 C 0.72106 0.48293 0.3881 0.0
C326 C 0.70071 0.46083 0.41561 0.0
C327 C 0.68662 0.42529 0.35094 0.0
C328 C 0.70973 0.44442 0.3251 0.0
C329 C 0.71204 0.43122 0.27737 0.0
H330 H 0.68351 0.29891 0.13563 0.0
C331 C 0.67001 0.39927 0.3216 0.0
C332 C 0.68546 0.40182 0.27871 0.0
H333 H 0.7436 0.39245 0.11133 0.0
H334 H 0.72087 0.41755 0.17987 0.0
H335 H 0.68474 0.28929 0.24345 0.0
H336 H 0.61578 0.3446 0.15625 0.0
H337 H 0.59271 0.34161 0.20773 0.0
H338 H 0.6043 0.30263 0.17732 0.0
H339 H 0.6563 0.27113 0.20124 0.0
H340 H 0.64008 0.28081 0.2568 0.0
C341 C 0.74975 0.418 0.26984 0.0
C342 C 0.70096 0.46065 0.24474 0.0
C343 C 0.55714 0.34183 0.37058 0.0
C344 C 0.53364 0.32012 0.34751 0.0
C345 C 0.54494 0.30345 0.3075 0.0
C346 C 0.57783 0.31086 0.2886 0.0
C347 C 0.59963 0.33513 0.30992 0.0
C348 C 0.58978 0.3492 0.35111 0.0
C349 C 0.61637 0.37464 0.36876 0.0
C350 C 0.64171 0.37612 0.32904 0.0
C351 C 0.63197 0.35273 0.29485 0.0
C352 C 0.63336 0.35908 0.41175 0.0
C353 C 0.5982 0.40998 0.37705 0.0
C354 C 0.69158 0.32495 0.14466 0.0
C355 C 0.7179 0.34249 0.11983 0.0
C356 C 0.72578 0.37712 0.13166 0.0
C357 C 0.7125 0.39176 0.17141 0.0
C358 C 0.69006 0.3721 0.19885 0.0
C359 C 0.67742 0.34067 0.18351 0.0
C360 C 0.64855 0.32693 0.21373 0.0
C361 C 0.65005 0.35284 0.2527 0.0
C362 C 0.67522 0.37855 0.24401 0.0
C363 C 0.65777 0.28993 0.22968 0.0
C364 C 0.61352 0.32885 0.18759 0.0
H365 H 0.66697 0.41722 0.41928 0.0
H366 H 0.74319 0.48938 0.32101 0.0
H367 H 0.68368 0.47986 0.26179 0.0
H368 H 0.68533 0.45084 0.21601 0.0
H369 H 0.72404 0.47497 0.23151 0.0
H370 H 0.75749 0.40023 0.29763 0.0
H371 H 0.7685 0.44006 0.26934 0.0
H372 H 0.75319 0.40322 0.23832 0.0
H373 H 0.54932 0.35467 0.40158 0.0
H374 H 0.52771 0.28572 0.28987 0.0
H375 H 0.58485 0.29814 0.25759 0.0
H376 H 0.62755 0.33092 0.41564 0.0
H377 H 0.62384 0.37222 0.4429 0.0
H378 H 0.66227 0.36085 0.41056 0.0
H379 H 0.58286 0.41772 0.34689 0.0
H380 H 0.61674 0.43127 0.38375 0.0
H381 H 0.58009 0.40851 0.40639 0.0
H382 H 0.69612 0.467 0.45073 0.0
C383 C 0.6834 0.43211 0.39724 0.0
C384 C 0.19064 0.24512 0.74115 0.0
C385 C 0.22095 0.22993 0.72259 0.0
C386 C 0.23117 0.19683 0.73764 0.0
C387 C 0.18225 0.19508 0.78999 0.0
C388 C 0.17177 0.2273 0.77473 0.0
C389 C 0.13902 0.23959 0.7983 0.0
H390 H 0.00989 0.20758 0.95114 0.0
C391 C 0.15744 0.18372 0.82552 0.0
C392 C 0.13199 0.20972 0.83069 0.0
H393 H 0.01913 0.2962 0.8629 0.0
H394 H 0.07441 0.27416 0.83403 0.0
H395 H 0.03331 0.15246 0.87156 0.0
H396 H 0.08275 0.20076 0.98494 0.0
H397 H 0.10656 0.16238 0.97543 0.0
H398 H 0.061 0.15965 0.99019 0.0
H399 H 0.02274 0.1446 0.92983 0.0
H400 H 0.05665 0.12059 0.9016 0.0
C401 C 0.10989 0.2431 0.7625 0.0
C402 C 0.14751 0.2737 0.82369 0.0
C403 C 0.17225 0.0651 0.89823 0.0
C404 C 0.15149 0.04581 0.92856 0.0
C405 C 0.12327 0.0625 0.95026 0.0
C406 C 0.11438 0.09686 0.93942 0.0
C407 C 0.13368 0.11472 0.9062 0.0
C408 C 0.16259 0.09909 0.88705 0.0
C409 C 0.1797 0.12166 0.85184 0.0
C410 C 0.15593 0.15319 0.85241 0.0
C411 C 0.12903 0.14898 0.88426 0.0
C412 C 0.17843 0.10216 0.80595 0.0
C413 C 0.21697 0.13069 0.86835 0.0
C414 C 0.02433 0.22276 0.92652 0.0
C415 C 0.0108 0.25416 0.91021 0.0
C416 C 0.02952 0.27232 0.87662 0.0
C417 C 0.06135 0.25926 0.85965 0.0
C418 C 0.07403 0.2272 0.87554 0.0
C419 C 0.05542 0.20963 0.90849 0.0
C420 C 0.07105 0.17495 0.91946 0.0
C421 C 0.10303 0.175 0.88912 0.0
C422 C 0.10454 0.20539 0.86285 0.0
C423 C 0.04464 0.14645 0.9052 0.0
C424 C 0.08069 0.17424 0.97019 0.0
H425 H 0.22158 0.15448 0.78148 0.0
H426 H 0.18183 0.27033 0.72981 0.0
H427 H 0.17349 0.27201 0.84023 0.0
H428 H 0.12883 0.27937 0.85117 0.0
H429 H 0.14821 0.29609 0.8001 0.0
H430 H 0.11181 0.22203 0.73685 0.0
H431 H 0.11191 0.26829 0.74446 0.0
H432 H 0.08341 0.2405 0.77696 0.0
H433 H 0.19479 0.05351 0.882 0.0
H434 H 0.10704 0.04846 0.9741 0.0
H435 H 0.09224 0.10791 0.95642 0.0
H436 H 0.15445 0.08591 0.80336 0.0
H437 H 0.20126 0.0847 0.80181 0.0
H438 H 0.17709 0.11981 0.77665 0.0
H439 H 0.21721 0.1349 0.90556 0.0
H440 H 0.22716 0.15511 0.85389 0.0
H441 H 0.23551 0.10933 0.86062 0.0
H442 H 0.25449 0.18472 0.7241 0.0
C443 C 0.21213 0.17943 0.77124 0.0
C444 C 0.28451 0.64511 0.18306 0.0
C445 C 0.29362 0.67615 0.16071 0.0
C446 C 0.32239 0.6954 0.17723 0.0
C447 C 0.32833 0.6559 0.24034 0.0
C448 C 0.30061 0.63677 0.22396 0.0
C449 C 0.28752 0.6106 0.25775 0.0
H450 H 0.31407 0.52271 0.45036 0.0
C451 C 0.33704 0.64257 0.2856 0.0
C452 C 0.31234 0.61697 0.2968 0.0
H453 H 0.23075 0.50871 0.3541 0.0
H454 H 0.24963 0.56007 0.31407 0.0
H455 H 0.37266 0.53997 0.38086 0.0
H456 H 0.30597 0.60589 0.46037 0.0
H457 H 0.34541 0.62882 0.45415 0.0
H458 H 0.34505 0.58761 0.4833 0.0
H459 H 0.3743 0.54316 0.44138 0.0
H460 H 0.39862 0.57223 0.40621 0.0
C461 C 0.29223 0.57405 0.2369 0.0
C462 C 0.24921 0.61965 0.27045 0.0
C463 C 0.45387 0.67169 0.35638 0.0
C464 C 0.4697 0.66121 0.39699 0.0
C465 C 0.4492 0.6442 0.42989 0.0
C466 C 0.41452 0.63511 0.42098 0.0
C467 C 0.40021 0.64284 0.3786 0.0
C468 C 0.419 0.66264 0.34816 0.0
C469 C 0.39803 0.67115 0.30665 0.0
C470 C 0.36512 0.6499 0.31531 0.0
C471 C 0.3669 0.63301 0.35723 0.0
C472 C 0.41809 0.65829 0.26437 0.0
C473 C 0.39057 0.71075 0.3064 0.0
C474 C 0.29914 0.53131 0.42157 0.0
C475 C 0.27152 0.5111 0.40469 0.0
C476 C 0.25283 0.52323 0.36697 0.0
C477 C 0.26387 0.55305 0.34377 0.0
C478 C 0.29366 0.57106 0.35874 0.0
C479 C 0.30979 0.561 0.39821 0.0
C480 C 0.34126 0.58283 0.409 0.0
C481 C 0.34175 0.60738 0.36888 0.0
C482 C 0.31423 0.59987 0.33916 0.0
C483 C 0.37353 0.55853 0.40969 0.0
C484 C 0.3344 0.60221 0.45414 0.0
H485 H 0.361 0.70131 0.22803 0.0
H486 H 0.2636 0.62869 0.17093 0.0
H487 H 0.24352 0.64763 0.26486 0.0
H488 H 0.24356 0.61552 0.30675 0.0
H489 H 0.23037 0.60441 0.24994 0.0
H490 H 0.31877 0.57137 0.22188 0.0
H491 H 0.27286 0.56946 0.20966 0.0
H492 H 0.28975 0.55296 0.26182 0.0
H493 H 0.46874 0.68499 0.3305 0.0
H494 H 0.46043 0.63675 0.46198 0.0
H495 H 0.40064 0.6211 0.44669 0.0
H496 H 0.42566 0.63061 0.26838 0.0
H497 H 0.44225 0.67377 0.25895 0.0
H498 H 0.40248 0.66002 0.23324 0.0
H499 H 0.39569 0.72301 0.3398 0.0
H500 H 0.36274 0.7164 0.29929 0.0
H501 H 0.40714 0.72444 0.28119 0.0
H502 H 0.33012 0.71958 0.16146 0.0
C503 C 0.33998 0.6852 0.21651 0.0
C504 C 0.80209 0.92946 0.91155 0.0
C505 C 0.82371 0.9493 0.94025 0.0
C506 C 0.85178 0.93286 0.96205 0.0
C507 C 0.83752 0.8785 0.92584 0.0
C508 C 0.80991 0.89424 0.90424 0.0
C509 C 0.79241 0.86991 0.87129 0.0
H510 H 0.79716 0.71787 0.75525 0.0
C511 C 0.8409 0.84284 0.90841 0.0
C512 C 0.81485 0.83749 0.8761 0.0
H513 H 0.72097 0.80003 0.74545 0.0
H514 H 0.7495 0.83134 0.80587 0.0
H515 H 0.86272 0.76741 0.76407 0.0
H516 H 0.80163 0.71696 0.86788 0.0
H517 H 0.84649 0.71097 0.87893 0.0
H518 H 0.82798 0.69349 0.82786 0.0
H519 H 0.86644 0.72175 0.77499 0.0
H520 H 0.89149 0.75339 0.80617 0.0
C521 C 0.79548 0.88616 0.82359 0.0
C522 C 0.75444 0.8636 0.88748 0.0
C523 C 0.94805 0.77556 0.95254 0.0
C524 C 0.96534 0.74739 0.93277 0.0
C525 C 0.94708 0.7264 0.90159 0.0
C526 C 0.91312 0.73537 0.88774 0.0
C527 C 0.89782 0.76611 0.90438 0.0
C528 C 0.91525 0.78522 0.93679 0.0
C529 C 0.89788 0.81914 0.94701 0.0
C530 C 0.86655 0.81715 0.91621 0.0
C531 C 0.8664 0.78615 0.89123 0.0
C532 C 0.92312 0.84921 0.93324 0.0
C533 C 0.88702 0.81891 0.99746 0.0
C534 C 0.78654 0.74247 0.76653 0.0
C535 C 0.75683 0.75661 0.74585 0.0
C536 C 0.744 0.78889 0.7608 0.0
C537 C 0.76055 0.80694 0.79586 0.0
C538 C 0.79064 0.79286 0.81565 0.0
C539 C 0.80294 0.76094 0.80132 0.0
C540 C 0.83544 0.75022 0.82603 0.0
C541 C 0.84009 0.78054 0.85828 0.0
C542 C 0.81407 0.80576 0.85145 0.0
C543 C 0.86572 0.74775 0.79127 0.0
C544 C 0.8278 0.71597 0.85144 0.0
H545 H 0.8793 0.88693 0.97462 0.0
H546 H 0.78006 0.94109 0.89458 0.0
H547 H 0.75275 0.8639 0.92502 0.0
H548 H 0.74436 0.8378 0.8775 0.0
H549 H 0.73662 0.88401 0.87462 0.0
H550 H 0.82182 0.89781 0.81848 0.0
H551 H 0.77588 0.90706 0.81898 0.0
H552 H 0.79256 0.86713 0.79602 0.0
H553 H 0.96143 0.79231 0.97613 0.0
H554 H 0.9598 0.70425 0.88614 0.0
H555 H 0.90088 0.71912 0.86288 0.0
H556 H 0.91071 0.86798 0.90996 0.0
H557 H 0.94656 0.83995 0.91453 0.0
H558 H 0.93252 0.86373 0.96315 0.0
H559 H 0.87559 0.79335 0.00695 0.0
H560 H 0.86666 0.83823 0.00563 0.0
H561 H 0.91 0.82351 0.01941 0.0
H562 H 0.86924 0.94734 0.98382 0.0
C563 C 0.8581 0.89761 0.95601 0.0
C564 C 0.2234 0.93572 0.10879 0.0
C565 C 0.2233 0.91994 0.06594 0.0
C566 C 0.23268 0.97053 0.11411 0.0
C567 C 0.24239 0.99103 0.07681 0.0
H568 H 0.21404 0.92179 0.13822 0.0
H569 H 0.22941 0.98204 0.14729 0.0
S570 S 0.25465 0.95975 0.95922 0.0
N571 N 0.23995 0.92545 0.9869 0.0
N572 N 0.25699 0.99147 0.99677 0.0
C573 C 0.24569 0.97469 0.03443 0.0
C574 C 0.23626 0.93901 0.02904 0.0
C575 C 0.57403 0.75857 0.51788 0.0
C576 C 0.60352 0.74958 0.54343 0.0
C577 C 0.54211 0.7658 0.5392 0.0
C578 C 0.53902 0.76451 0.5866 0.0
H579 H 0.574 0.75408 0.48171 0.0
H580 H 0.51893 0.76773 0.5185 0.0
S581 S 0.61209 0.75532 0.66756 0.0
N582 N 0.63036 0.75036 0.61737 0.0
N583 N 0.57039 0.76316 0.65793 0.0
C584 C 0.56995 0.76279 0.61203 0.0
C585 C 0.60249 0.75591 0.59009 0.0
C586 C 0.75564 0.06909 0.04732 0.0
C587 C 0.76191 0.095 0.07982 0.0
C588 C 0.74634 0.03525 0.0604 0.0
C589 C 0.7427 0.02629 0.10641 0.0
H590 H 0.7607 0.0741 0.01197 0.0
H591 H 0.74528 0.01524 0.03465 0.0
S592 S 0.74458 0.0876 0.20318 0.0
N593 N 0.7545 0.11161 0.15885 0.0
N594 N 0.73813 0.04808 0.18329 0.0
C595 C 0.74331 0.05329 0.13835 0.0
C596 C 0.75263 0.0877 0.12506 0.0
C597 C 0.41375 0.23307 0.598 0.0
C598 C 0.4084 0.23964 0.55179 0.0
C599 C 0.44699 0.2239 0.61397 0.0
C600 C 0.47527 0.22037 0.58385 0.0
H601 H 0.39425 0.24117 0.62246 0.0
H602 H 0.45157 0.22482 0.65004 0.0
S603 S 0.47058 0.2214 0.45898 0.0
N604 N 0.43085 0.23211 0.47584 0.0
N605 N 0.49301 0.21382 0.50546 0.0
C606 C 0.46798 0.21928 0.53735 0.0
C607 C 0.43433 0.22895 0.5213 0.0
C608 C 0.72149 0.5807 0.39432 0.0
C609 C 0.72822 0.58696 0.44025 0.0
C610 C 0.72224 0.54699 0.37676 0.0
C611 C 0.73012 0.51832 0.40432 0.0
H612 H 0.71288 0.60149 0.3725 0.0
H613 H 0.7138 0.54324 0.34219 0.0
S614 S 0.75767 0.52203 0.52422 0.0
N615 N 0.74852 0.56267 0.51123 0.0
N616 N 0.75087 0.49927 0.47774 0.0
C617 C 0.7406 0.52475 0.44906 0.0
C618 C 0.73949 0.5591 0.4671 0.0
C619 C 0.91352 0.25484 0.90305 0.0
C620 C 0.90437 0.24921 0.94857 0.0
C621 C 0.94824 0.26183 0.89054 0.0
C622 C 0.97461 0.26379 0.92335 0.0
H623 H 0.89513 0.2482 0.87663 0.0
H624 H 0.95508 0.26105 0.855 0.0
S625 S 0.96134 0.26413 0.04737 0.0
N626 N 0.9222 0.25578 0.02658 0.0
N627 N 0.98754 0.26907 1.00332 0.0
C628 C 0.96446 0.26472 0.96903 0.0
C629 C 0.92909 0.25777 0.98161 0.0
C630 C 0.27578 0.43506 0.48479 0.0
C631 C 0.28045 0.40703 0.45488 0.0
C632 C 0.26932 0.4686 0.46859 0.0
C633 C 0.267 0.47518 0.42193 0.0
H634 H 0.27956 0.43163 0.52075 0.0
H635 H 0.26852 0.48989 0.49257 0.0
S636 S 0.26965 0.40921 0.33033 0.0
N637 N 0.27591 0.38694 0.37712 0.0
N638 N 0.26486 0.44992 0.34656 0.0
C639 C 0.26768 0.44668 0.39213 0.0
C640 C 0.27409 0.41256 0.40867 0.0
C641 C 0.0544 0.76096 0.9844 0.0
C642 C 0.07483 0.7688 0.94612 0.0
C643 C 0.01947 0.75025 0.98011 0.0
C644 C 0.00395 0.74617 0.93733 0.0
H645 H 0.06475 0.76499 0.01796 0.0
H646 H 0.00381 0.74742 0.01045 0.0
S647 S 0.04794 0.75694 0.8264 0.0
N648 N 0.0782 0.76676 0.86383 0.0
N649 N 0.01295 0.74654 0.85611 0.0
C650 C 0.02517 0.75028 0.89892 0.0
C651 C 0.06053 0.76154 0.9032 0.0
C652 C 0.82619 0.03777 0.99649 0.0
C653 C 0.82267 0.0604 0.95995 0.0
C654 C 0.82434 0.00186 0.98999 0.0
C655 C 0.8188 0.98726 0.9469 0.0
H656 H 0.83261 0.04776 0.0297 0.0
H657 H 0.82948 0.98535 0.0185 0.0
S658 S 0.80708 0.03653 0.84048 0.0
N659 N 0.81241 0.06669 0.8796 0.0
N660 N 0.80891 -0.00102 0.86719 0.0
C661 C 0.8136 0.00995 0.9104 0.0
C662 C 0.81569 0.04659 0.91702 0.0
C663 C 0.45187 0.31446 0.42171 0.0
C664 C 0.42476 0.32171 0.39105 0.0
C665 C 0.48698 0.31305 0.40745 0.0
C666 C 0.49633 0.31865 0.36195 0.0
H667 H 0.44601 0.30985 0.45702 0.0
H668 H 0.50697 0.30766 0.43225 0.0
S669 S 0.43607 0.34085 0.26858 0.0
N670 N 0.41042 0.33584 0.31299 0.0
N671 N 0.47596 0.33341 0.28687 0.0
C672 C 0.46961 0.32606 0.33108 0.0
C673 C 0.43402 0.32755 0.34543 0.0
C674 C 0.15839 0.95561 0.98176 0.0
C675 C 0.16246 0.93381 0.94388 0.0
C676 C 0.15554 0.99187 0.97688 0.0
C677 C 0.15694 0.00766 0.93396 0.0
H678 H 0.15651 0.94455 0.0153 0.0
H679 H 0.1519 0.0076 0.00688 0.0
S680 S 0.16733 0.96195 0.8241 0.0
N681 N 0.16833 0.93075 0.86216 0.0
N682 N 0.16212 -0.00171 0.85291 0.0
C683 C 0.16136 0.98605 0.89596 0.0
C684 C 0.16427 0.94933 0.90093 0.0
C685 C 0.56337 0.63621 0.4224 0.0
C686 C 0.58233 0.66527 0.40781 0.0
C687 C 0.52691 0.63552 0.41957 0.0
C688 C 0.50811 0.66423 0.40301 0.0
H689 H 0.57688 0.61359 0.43521 0.0
H690 H 0.51346 0.61193 0.42941 0.0
S691 S 0.54625 0.74849 0.36698 0.0
N692 N 0.58039 0.72433 0.37971 0.0
N693 N 0.51155 0.72388 0.37617 0.0
C694 C 0.52698 0.69408 0.39022 0.0
C695 C 0.56419 0.69442 0.39226 0.0
C696 C 0.35132 0.46098 0.53448 0.0
C697 C 0.35705 0.43662 0.56889 0.0
C698 C 0.35152 0.49679 0.5439 0.0
C699 C 0.35728 0.50934 0.58802 0.0
H700 H 0.34843 0.4524 0.49982 0.0
H701 H 0.3482 0.51485 0.51632 0.0
S702 S 0.37315 0.4555 0.68979 0.0
N703 N 0.3679 0.42708 0.64855 0.0
N704 N 0.36862 0.49408 0.66635 0.0
C705 C 0.36206 0.48496 0.62281 0.0
C706 C 0.36196 0.44869 0.61315 0.0
C707 C 0.05003 0.82295 0.11916 0.0
C708 C 0.06402 0.82752 0.07555 0.0
C709 C 0.01434 0.82759 0.12791 0.0
C710 C 0.99093 0.83695 0.09341 0.0
H711 H 0.06697 0.81651 0.14709 0.0
H712 H 0.00546 0.82519 0.16255 0.0
S713 S 0.01494 0.8517 0.97288 0.0
N714 N 0.05224 0.84251 0.99764 0.0
N715 N 0.985 0.84911 0.01299 0.0
C716 C 0.00471 0.84059 0.04924 0.0
C717 C 0.0412 0.83639 0.04059 0.0
C718 C 0.67044 0.5377 0.58042 0.0
C719 C 0.65855 0.55201 0.5399 0.0
C720 C 0.66776 0.50191 0.58842 0.0
C721 C 0.65341 0.4791 0.55589 0.0
H722 H 0.67981 0.55449 0.6072 0.0
H723 H 0.67514 0.49257 0.62147 0.0
S724 S 0.62312 0.50465 0.44133 0.0
N725 N 0.63488 0.54152 0.46541 0.0
N726 N 0.6309 0.4741 0.47902 0.0
C727 C 0.64365 0.49333 0.51382 0.0
C728 C 0.646 0.52981 0.50617 0.0
C729 C 0.9632 0.17509 0.05224 0.0
C730 C 0.93732 0.1663 0.0842 0.0
C731 C 0.99861 0.17723 0.06463 0.0
C732 C 0.00928 0.17029 0.10921 0.0
H733 H 0.95594 0.18181 0.01802 0.0
H734 H 0.01758 0.18534 0.03958 0.0
S735 S 0.95266 0.14012 0.20323 0.0
N736 N 0.92556 0.14668 0.16092 0.0
N737 N 0.99179 0.15009 0.18359 0.0
C738 C 0.98391 0.15953 0.14058 0.0
C739 C 0.94806 0.15758 0.1282 0.0
C740 C 0.26249 0.73507 0.06565 0.0
C741 C 0.22635 0.73605 0.07357 0.0
C742 C 0.28404 0.71297 0.09108 0.0
C743 C 0.27018 0.69165 0.1257 0.0
H744 H 0.2745 0.75357 0.04282 0.0
H745 H 0.31199 0.71439 0.08564 0.0
S746 S 0.17562 0.68116 0.15289 0.0
N747 N 0.17679 0.70991 0.11176 0.0
N748 N 0.2167 0.67068 0.16196 0.0
C749 C 0.23347 0.69017 0.1303 0.0
C750 C 0.21174 0.71179 0.10352 0.0
C751 C 0.71709 0.73798 0.63108 0.0
C752 C 0.70492 0.70363 0.63554 0.0
C753 C 0.73372 0.75498 0.667 0.0
C754 C 0.73935 0.73804 0.70835 0.0
H755 H 0.71321 0.75211 0.59991 0.0
H756 H 0.74246 0.78151 0.6623 0.0
S757 S 0.71338 0.648 0.73722 0.0
N758 N 0.70018 0.65317 0.68464 0.0
N759 N 0.73176 0.68516 0.75184 0.0
C760 C 0.72782 0.70362 0.71312 0.0
C761 C 0.71051 0.68642 0.6768 0.0
C762 C 0.7468 0.27228 0.03736 0.0
C763 C 0.7833 0.27353 0.0415 0.0
C764 C 0.72552 0.29693 0.05911 0.0
C765 C 0.74009 0.3233 0.08637 0.0
H766 H 0.73445 0.24996 0.0219 0.0
H767 H 0.69747 0.2936 0.05745 0.0
S768 S 0.83516 0.3399 0.10193 0.0
N769 N 0.83339 0.30548 0.06878 0.0
N770 N 0.79417 0.3509 0.11147 0.0
C771 C 0.77687 0.32669 0.0866 0.0
C772 C 0.79827 0.30202 0.06362 0.0
C773 C 0.27674 0.24911 0.61839 0.0
C774 C 0.28982 0.28261 0.62733 0.0
C775 C 0.25402 0.23243 0.64893 0.0
C776 C 0.24301 0.24885 0.68912 0.0
H777 H 0.28474 0.23532 0.58816 0.0
H778 H 0.24511 0.20638 0.64115 0.0
S779 S 0.26841 0.33705 0.72748 0.0
N780 N 0.289 0.33201 0.67883 0.0
N781 N 0.24647 0.30066 0.73576 0.0
C782 C 0.25518 0.28263 0.69785 0.0
C783 C 0.27853 0.29947 0.66711 0.0
C784 C 0.7573 0.75345 0.44746 0.0
C785 C 0.72291 0.74215 0.4401 0.0
C786 C 0.77439 0.77477 0.41572 0.0
C787 C 0.75747 0.78555 0.37592 0.0
H788 H 0.77184 0.74381 0.47612 0.0
H789 H 0.80143 0.78175 0.42148 0.0
S790 S 0.66629 0.7645 0.34332 0.0
N791 N 0.67176 0.74481 0.39224 0.0
N792 N 0.70361 0.78444 0.33252 0.0
C793 C 0.72234 0.77589 0.36979 0.0
C794 C 0.70514 0.75427 0.40193 0.0
C795 C 0.79317 0.23117 0.84889 0.0
C796 C 0.7799 0.22046 0.89093 0.0
C797 C 0.77201 0.24838 0.81769 0.0
C798 C 0.73658 0.25488 0.82703 0.0
H799 H 0.82006 0.22572 0.8398 0.0
H800 H 0.78323 0.25577 0.78544 0.0
S801 S 0.68938 0.23212 0.93254 0.0
N802 N 0.72949 0.21774 0.94069 0.0
N803 N 0.68935 0.24994 0.88179 0.0
C804 C 0.72307 0.24463 0.86922 0.0
C805 C 0.74486 0.22752 0.90131 0.0
C806 C 0.25747 0.26877 0.40655 0.0
C807 C 0.27925 0.25695 0.44141 0.0
C808 C 0.24263 0.24588 0.37543 0.0
C809 C 0.24878 0.20995 0.37767 0.0
H810 H 0.25291 0.29631 0.40208 0.0
H811 H 0.22769 0.25682 0.34793 0.0
S812 S 0.30056 0.1652 0.46593 0.0
N813 N 0.30403 0.20682 0.47895 0.0
N814 N 0.27558 0.16321 0.42058 0.0
C815 C 0.26888 0.19744 0.41405 0.0
C816 C 0.28407 0.22103 0.44604 0.0
C817 C 0.26347 0.74194 0.93168 0.0
C818 C 0.25887 0.77763 0.92415 0.0
C819 C 0.28751 0.72273 0.90561 0.0
C820 C 0.30759 0.73857 0.87112 0.0
H821 H 0.24663 0.72833 0.95526 0.0
H822 H 0.28904 0.69497 0.91093 0.0
S823 S 0.30811 0.83278 0.84331 0.0
N824 N 0.27951 0.82901 0.88479 0.0
N825 N 0.32283 0.79317 0.83424 0.0
C826 C 0.30499 0.77488 0.86615 0.0
C827 C 0.28112 0.79431 0.89311 0.0
loop_
_geom_bond_atom_site_label_1
_geom_bond_atom_site_label_2
_geom_bond_distance
_geom_bond_site_symmetry_2
_ccdc_geom_bond_type
Zn0 O6 1.920 . S
Zn0 O12 1.898 . S
Zn0 O15 1.905 . S
Zn1 O9 1.905 . S
Zn1 O10 1.898 . S
Zn1 O18 1.920 . S
Zn2 O5 2.080 . S
Zn2 O8 2.114 1_554 S
Zn2 O11 2.120 1_554 S
Zn2 O13 2.120 . S
Zn2 O14 2.114 . S
Zn2 O17 2.080 1_554 S
C3 O8 1.166 . S
C3 O9 1.182 . S
C4 O10 1.167 . S
C4 O11 1.299 . S
O5 Zn2 2.080 . S
O5 C19 1.305 . S
O6 Zn0 1.920 . S
O6 C19 1.234 . S
C7 O12 1.167 . S
C7 O13 1.299 . S
O8 Zn2 2.114 1_556 S
O8 C3 1.166 . S
O9 Zn1 1.905 . S
O9 C3 1.182 . S
O10 Zn1 1.898 . S
O10 C4 1.167 . S
O11 Zn2 2.120 1_556 S
O11 C4 1.299 . S
O12 Zn0 1.898 . S
O12 C7 1.167 . S
O13 Zn2 2.120 . S
O13 C7 1.299 . S
O14 Zn2 2.114 . S
O14 C16 1.166 . S
O15 Zn0 1.905 . S
O15 C16 1.182 . S
C16 O14 1.166 . S
C16 O15 1.182 . S
O17 Zn2 2.080 1_556 S
O17 C20 1.305 . S
O18 Zn1 1.920 . S
O18 C20 1.234 . S
C19 O5 1.305 . S
C19 O6 1.234 . S
C20 O17 1.305 . S
C20 O18 1.234 . S
Zn21 O27 1.920 . S
Zn21 O33 1.898 . S
Zn21 O36 1.905 . S
Zn22 O30 1.905 . S
Zn22 O31 1.898 . S
Zn22 O39 1.920 . S
Zn23 O26 2.080 . S
Zn23 O29 2.114 . S
Zn23 O32 2.120 . S
Zn23 O34 2.120 . S
Zn23 O35 2.114 . S
Zn23 O38 2.080 . S
C24 O29 1.166 . S
C24 O30 1.182 . S
C25 O31 1.167 . S
C25 O32 1.299 . S
O26 Zn23 2.080 . S
O26 C40 1.305 . S
O27 Zn21 1.920 . S
O27 C40 1.234 . S
C28 O33 1.167 . S
C28 O34 1.299 . S
O29 Zn23 2.114 . S
O29 C24 1.166 . S
O30 Zn22 1.905 . S
O30 C24 1.182 . S
O31 Zn22 1.898 . S
O31 C25 1.167 . S
O32 Zn23 2.120 . S
O32 C25 1.299 . S
O33 Zn21 1.898 . S
O33 C28 1.167 . S
O34 Zn23 2.120 . S
O34 C28 1.299 . S
O35 Zn23 2.114 . S
O35 C37 1.166 . S
O36 Zn21 1.905 . S
O36 C37 1.182 . S
C37 O35 1.166 . S
C37 O36 1.182 . S
O38 Zn23 2.080 . S
O38 C41 1.305 . S
O39 Zn22 1.920 . S
O39 C41 1.234 . S
C40 O26 1.305 . S
C40 O27 1.234 . S
C41 O38 1.305 . S
C41 O39 1.234 . S
Zn42 O48 1.920 . S
Zn42 O54 1.898 . S
Zn42 O57 1.905 . S
Zn43 O51 1.905 . S
Zn43 O52 1.898 . S
Zn43 O60 1.920 . S
Zn44 O47 2.080 1_554 S
Zn44 O50 2.114 . S
Zn44 O53 2.120 . S
Zn44 O55 2.120 1_554 S
Zn44 O56 2.114 1_554 S
Zn44 O59 2.080 . S
C45 O50 1.166 . S
C45 O51 1.182 . S
C46 O52 1.167 . S
C46 O53 1.299 . S
O47 Zn44 2.080 1_556 S
O47 C61 1.305 . S
O48 Zn42 1.920 . S
O48 C61 1.234 . S
C49 O54 1.167 . S
C49 O55 1.299 . S
O50 Zn44 2.114 . S
O50 C45 1.166 . S
O51 Zn43 1.905 . S
O51 C45 1.182 . S
O52 Zn43 1.898 . S
O52 C46 1.167 . S
O53 Zn44 2.120 . S
O53 C46 1.299 . S
O54 Zn42 1.898 . S
O54 C49 1.167 . S
O55 Zn44 2.120 1_556 S
O55 C49 1.299 . S
O56 Zn44 2.114 1_556 S
O56 C58 1.166 . S
O57 Zn42 1.905 . S
O57 C58 1.182 . S
C58 O56 1.166 . S
C58 O57 1.182 . S
O59 Zn44 2.080 . S
O59 C62 1.305 . S
O60 Zn43 1.920 . S
O60 C62 1.234 . S
C61 O47 1.305 . S
C61 O48 1.234 . S
C62 O59 1.305 . S
C62 O60 1.234 . S
Zn63 O69 1.920 . S
Zn63 O75 1.898 . S
Zn63 O78 1.905 . S
Zn64 O72 1.905 . S
Zn64 O73 1.898 . S
Zn64 O81 1.920 . S
Zn65 O68 2.080 . S
Zn65 O71 2.114 . S
Zn65 O74 2.120 . S
Zn65 O76 2.120 . S
Zn65 O77 2.114 . S
Zn65 O80 2.080 . S
C66 O71 1.166 . S
C66 O72 1.182 . S
C67 O73 1.167 . S
C67 O74 1.299 . S
O68 Zn65 2.080 . S
O68 C82 1.305 . S
O69 Zn63 1.920 . S
O69 C82 1.234 . S
C70 O75 1.167 . S
C70 O76 1.299 . S
O71 Zn65 2.114 . S
O71 C66 1.166 . S
O72 Zn64 1.905 . S
O72 C66 1.182 . S
O73 Zn64 1.898 . S
O73 C67 1.167 . S
O74 Zn65 2.120 . S
O74 C67 1.299 . S
O75 Zn63 1.898 . S
O75 C70 1.167 . S
O76 Zn65 2.120 . S
O76 C70 1.299 . S
O77 Zn65 2.114 . S
O77 C79 1.166 . S
O78 Zn63 1.905 . S
O78 C79 1.182 . S
C79 O77 1.166 . S
C79 O78 1.182 . S
O80 Zn65 2.080 . S
O80 C83 1.305 . S
O81 Zn64 1.920 . S
O81 C83 1.234 . S
C82 O68 1.305 . S
C82 O69 1.234 . S
C83 O80 1.305 . S
C83 O81 1.234 . S
C84 C85 1.391 1_545 S
C84 C88 1.391 . S
C84 H126 0.948 . S
C85 C84 1.391 1_565 S
C85 C86 1.391 1_565 S
C86 C85 1.391 1_545 S
C86 H142 0.947 1_545 S
C86 C143 1.392 . S
C87 C88 1.391 . S
C87 C91 1.397 . S
C87 C143 1.419 . S
C88 C84 1.391 . S
C88 C87 1.391 . S
C88 C89 1.399 . S
C89 C88 1.399 . S
C89 C92 1.396 . S
C89 C101 1.453 . S
C89 C102 1.684 . S
H90 C114 0.948 . S
C91 C87 1.397 . S
C91 C92 1.394 . S
C91 C110 1.723 . S
C92 C89 1.396 . S
C92 C91 1.394 . S
C92 C122 1.723 . S
H93 C116 0.947 . S
H94 C117 0.948 . S
H95 C123 0.982 . S
H96 C124 0.979 . S
H97 C124 0.980 . S
H98 C124 0.983 . S
H99 C123 0.979 . S
H100 C123 0.977 . S
C101 C89 1.453 . S
C101 H130 0.982 . S
C101 H131 0.979 . S
C101 H132 0.977 . S
C102 C89 1.684 . S
C102 H127 0.979 . S
C102 H128 0.980 . S
C102 H129 0.983 . S
C103 C104 1.391 . S
C103 C108 1.391 . S
C103 H133 0.948 . S
C104 C103 1.391 . S
C104 C105 1.391 . S
C105 C104 1.391 . S
C105 C106 1.392 . S
C105 H134 0.947 . S
C106 C105 1.392 . S
C106 C107 1.419 . S
C106 H135 0.948 . S
C107 C106 1.419 . S
C107 C108 1.391 . S
C107 C111 1.397 . S
C108 C103 1.391 . S
C108 C107 1.391 . S
C108 C109 1.399 . S
C109 C108 1.399 . S
C109 C110 1.396 . S
C109 C112 1.453 . S
C109 C113 1.684 . S
C110 C91 1.723 . S
C110 C109 1.396 . S
C110 C111 1.394 . S
C111 C107 1.397 . S
C111 C110 1.394 . S
C111 C121 1.723 . S
C112 C109 1.453 . S
C112 H136 0.982 . S
C112 H137 0.979 . S
C112 H138 0.977 . S
C113 C109 1.684 . S
C113 H139 0.979 . S
C113 H140 0.980 . S
C113 H141 0.983 . S
C114 H90 0.948 . S
C114 C115 1.391 . S
C114 C119 1.391 . S
C115 C114 1.391 . S
C115 C116 1.391 . S
C116 H93 0.947 . S
C116 C115 1.391 . S
C116 C117 1.392 . S
C117 H94 0.948 . S
C117 C116 1.392 . S
C117 C118 1.419 . S
C118 C117 1.419 . S
C118 C119 1.391 . S
C118 C122 1.397 . S
C119 C114 1.391 . S
C119 C118 1.391 . S
C119 C120 1.399 . S
C120 C119 1.399 . S
C120 C121 1.396 . S
C120 C123 1.453 . S
C120 C124 1.684 . S
C121 C111 1.723 . S
C121 C120 1.396 . S
C121 C122 1.394 . S
C122 C92 1.723 . S
C122 C118 1.397 . S
C122 C121 1.394 . S
C123 H95 0.982 . S
C123 H99 0.979 . S
C123 H100 0.977 . S
C123 C120 1.453 . S
C124 H96 0.979 . S
C124 H97 0.980 . S
C124 H98 0.983 . S
C124 C120 1.684 . S
H125 C143 0.948 . S
H126 C84 0.948 . S
H127 C102 0.979 . S
H128 C102 0.980 . S
H129 C102 0.983 . S
H130 C101 0.982 . S
H131 C101 0.979 . S
H132 C101 0.977 . S
H133 C103 0.948 . S
H134 C105 0.947 . S
H135 C106 0.948 . S
H136 C112 0.982 . S
H137 C112 0.979 . S
H138 C112 0.977 . S
H139 C113 0.979 . S
H140 C113 0.980 . S
H141 C113 0.983 . S
H142 C86 0.947 1_565 S
C143 C86 1.392 . S
C143 C87 1.419 . S
C143 H125 0.948 . S
C144 C145 1.391 . S
C144 C148 1.391 . S
C144 H186 0.948 . S
C145 C144 1.391 . S
C145 C146 1.391 . S
C146 C145 1.391 . S
C146 H202 0.947 . S
C146 C203 1.392 . S
C147 C148 1.391 . S
C147 C151 1.397 . S
C147 C203 1.419 . S
C148 C144 1.391 . S
C148 C147 1.391 . S
C148 C149 1.399 . S
C149 C148 1.399 . S
C149 C152 1.396 . S
C149 C161 1.453 . S
C149 C162 1.684 . S
H150 C174 0.948 . S
C151 C147 1.397 . S
C151 C152 1.394 . S
C151 C170 1.723 . S
C152 C149 1.396 . S
C152 C151 1.394 . S
C152 C182 1.723 . S
H153 C176 0.947 . S
H154 C177 0.948 . S
H155 C183 0.982 . S
H156 C184 0.979 . S
H157 C184 0.980 . S
H158 C184 0.983 . S
H159 C183 0.979 . S
H160 C183 0.977 . S
C161 C149 1.453 . S
C161 H190 0.982 . S
C161 H191 0.979 . S
C161 H192 0.977 . S
C162 C149 1.684 . S
C162 H187 0.979 . S
C162 H188 0.980 . S
C162 H189 0.983 . S
C163 C164 1.391 . S
C163 C168 1.391 . S
C163 H193 0.948 . S
C164 C163 1.391 . S
C164 C165 1.391 . S
C165 C164 1.391 . S
C165 C166 1.392 . S
C165 H194 0.947 . S
C166 C165 1.392 . S
C166 C167 1.419 . S
C166 H195 0.948 . S
C167 C166 1.419 . S
C167 C168 1.391 . S
C167 C171 1.397 . S
C168 C163 1.391 . S
C168 C167 1.391 . S
C168 C169 1.399 . S
C169 C168 1.399 . S
C169 C170 1.396 . S
C169 C172 1.453 . S
C169 C173 1.684 . S
C170 C151 1.723 . S
C170 C169 1.396 . S
C170 C171 1.394 . S
C171 C167 1.397 . S
C171 C170 1.394 . S
C171 C181 1.723 . S
C172 C169 1.453 . S
C172 H196 0.982 . S
C172 H197 0.979 . S
C172 H198 0.977 . S
C173 C169 1.684 . S
C173 H199 0.979 . S
C173 H200 0.980 . S
C173 H201 0.983 . S
C174 H150 0.948 . S
C174 C175 1.391 . S
C174 C179 1.391 . S
C175 C174 1.391 . S
C175 C176 1.391 . S
C176 H153 0.947 . S
C176 C175 1.391 . S
C176 C177 1.392 . S
C177 H154 0.948 . S
C177 C176 1.392 . S
C177 C178 1.419 . S
C178 C177 1.419 . S
C178 C179 1.391 . S
C178 C182 1.397 . S
C179 C174 1.391 . S
C179 C178 1.391 . S
C179 C180 1.399 . S
C180 C179 1.399 . S
C180 C181 1.396 . S
C180 C183 1.453 . S
C180 C184 1.684 . S
C181 C171 1.723 . S
C181 C180 1.396 . S
C181 C182 1.394 . S
C182 C152 1.723 . S
C182 C178 1.397 . S
C182 C181 1.394 . S
C183 H155 0.982 . S
C183 H159 0.979 . S
C183 H160 0.977 . S
C183 C180 1.453 . S
C184 H156 0.979 . S
C184 H157 0.980 . S
C184 H158 0.983 . S
C184 C180 1.684 . S
H185 C203 0.948 . S
H186 C144 0.948 . S
H187 C162 0.979 . S
H188 C162 0.980 . S
H189 C162 0.983 . S
H190 C161 0.982 . S
H191 C161 0.979 . S
H192 C161 0.977 . S
H193 C163 0.948 . S
H194 C165 0.947 . S
H195 C166 0.948 . S
H196 C172 0.982 . S
H197 C172 0.979 . S
H198 C172 0.977 . S
H199 C173 0.979 . S
H200 C173 0.980 . S
H201 C173 0.983 . S
H202 C146 0.947 . S
C203 C146 1.392 . S
C203 C147 1.419 . S
C203 H185 0.948 . S
C204 C205 1.391 . S
C204 C208 1.391 . S
C204 H246 0.948 . S
C205 C204 1.391 . S
C205 C206 1.391 . S
C206 C205 1.391 . S
C206 H262 0.947 . S
C206 C263 1.392 . S
C207 C208 1.391 . S
C207 C211 1.397 . S
C207 C263 1.419 . S
C208 C204 1.391 . S
C208 C207 1.391 . S
C208 C209 1.399 . S
C209 C208 1.399 . S
C209 C212 1.396 . S
C209 C221 1.453 . S
C209 C222 1.684 . S
H210 C234 0.956 . S
C211 C207 1.397 . S
C211 C212 1.394 . S
C211 C230 1.723 . S
C212 C209 1.396 . S
C212 C211 1.394 . S
C212 C242 1.723 . S
H213 C236 0.947 . S
H214 C237 0.948 . S
H215 C243 0.982 . S
H216 C244 0.979 . S
H217 C244 0.980 . S
H218 C244 0.983 . S
H219 C243 0.979 . S
H220 C243 0.977 . S
C221 C209 1.453 . S
C221 H250 0.982 . S
C221 H251 0.979 . S
C221 H252 0.977 . S
C222 C209 1.684 . S
C222 H247 0.979 . S
C222 H248 0.980 . S
C222 H249 0.983 . S
C223 C224 1.391 . S
C223 C228 1.391 . S
C223 H253 0.948 . S
C224 C223 1.391 . S
C224 C225 1.391 . S
C225 C224 1.391 . S
C225 C226 1.392 . S
C225 H254 0.947 . S
C226 C225 1.392 . S
C226 C227 1.419 . S
C226 H255 0.948 . S
C227 C226 1.419 . S
C227 C228 1.391 . S
C227 C231 1.397 . S
C228 C223 1.391 . S
C228 C227 1.391 . S
C228 C229 1.399 . S
C229 C228 1.399 . S
C229 C230 1.396 . S
C229 C232 1.453 . S
C229 C233 1.684 . S
C230 C211 1.723 . S
C230 C229 1.396 . S
C230 C231 1.394 . S
C231 C227 1.397 . S
C231 C230 1.394 . S
C231 C241 1.723 . S
C232 C229 1.453 . S
C232 H256 0.982 . S
C232 H257 0.979 . S
C232 H258 0.977 . S
C233 C229 1.684 . S
C233 H259 0.979 . S
C233 H260 0.980 . S
C233 H261 0.983 . S
C234 H210 0.956 . S
C234 C235 1.391 1_565 S
C234 C239 1.391 . S
C235 C234 1.391 1_545 S
C235 C236 1.391 1_545 S
C236 H213 0.947 . S
C236 C235 1.391 1_565 S
C236 C237 1.392 . S
C237 H214 0.948 . S
C237 C236 1.392 . S
C237 C238 1.419 . S
C238 C237 1.419 . S
C238 C239 1.391 . S
C238 C242 1.397 . S
C239 C234 1.391 . S
C239 C238 1.391 . S
C239 C240 1.399 . S
C240 C239 1.399 . S
C240 C241 1.396 . S
C240 C243 1.453 . S
C240 C244 1.684 . S
C241 C231 1.723 . S
C241 C240 1.396 . S
C241 C242 1.394 . S
C242 C212 1.723 . S
C242 C238 1.397 . S
C242 C241 1.394 . S
C243 H215 0.982 . S
C243 H219 0.979 . S
C243 H220 0.977 . S
C243 C240 1.453 . S
C244 H216 0.979 . S
C244 H217 0.980 . S
C244 H218 0.983 . S
C244 C240 1.684 . S
H245 C263 0.948 . S
H246 C204 0.948 . S
H247 C222 0.979 . S
H248 C222 0.980 . S
H249 C222 0.983 . S
H250 C221 0.982 . S
H251 C221 0.979 . S
H252 C221 0.977 . S
H253 C223 0.948 . S
H254 C225 0.947 . S
H255 C226 0.948 . S
H256 C232 0.982 . S
H257 C232 0.979 . S
H258 C232 0.977 . S
H259 C233 0.979 . S
H260 C233 0.980 . S
H261 C233 0.983 . S
H262 C206 0.947 . S
C263 C206 1.392 . S
C263 C207 1.419 . S
C263 H245 0.948 . S
C264 C265 1.391 . S
C264 C268 1.391 . S
C264 H306 0.948 . S
C265 C264 1.391 . S
C265 C266 1.391 . S
C266 C265 1.391 . S
C266 H322 0.947 . S
C266 C323 1.392 . S
C267 C268 1.391 . S
C267 C271 1.397 . S
C267 C323 1.419 . S
C268 C264 1.391 . S
C268 C267 1.391 . S
C268 C269 1.399 . S
C269 C268 1.399 . S
C269 C272 1.396 . S
C269 C281 1.453 . S
C269 C282 1.684 . S
H270 C294 0.948 . S
C271 C267 1.397 . S
C271 C272 1.394 . S
C271 C290 1.723 . S
C272 C269 1.396 . S
C272 C271 1.394 . S
C272 C302 1.723 . S
H273 C296 0.947 . S
H274 C297 0.948 . S
H275 C303 0.982 . S
H276 C304 0.979 . S
H277 C304 0.980 . S
H278 C304 0.983 . S
H279 C303 0.979 . S
H280 C303 0.977 . S
C281 C269 1.453 . S
C281 H310 0.982 . S
C281 H311 0.979 . S
C281 H312 0.977 . S
C282 C269 1.684 . S
C282 H307 0.979 . S
C282 H308 0.980 . S
C282 H309 0.983 . S
C283 C284 1.391 . S
C283 C288 1.391 . S
C283 H313 0.948 . S
C284 C283 1.391 . S
C284 C285 1.391 . S
C285 C284 1.391 . S
C285 C286 1.392 . S
C285 H314 0.947 . S
C286 C285 1.392 . S
C286 C287 1.419 . S
C286 H315 0.948 . S
C287 C286 1.419 . S
C287 C288 1.391 . S
C287 C291 1.397 . S
C288 C283 1.391 . S
C288 C287 1.391 . S
C288 C289 1.399 . S
C289 C288 1.399 . S
C289 C290 1.396 . S
C289 C292 1.453 . S
C289 C293 1.684 . S
C290 C271 1.723 . S
C290 C289 1.396 . S
C290 C291 1.394 . S
C291 C287 1.397 . S
C291 C290 1.394 . S
C291 C301 1.723 . S
C292 C289 1.453 . S
C292 H316 0.982 . S
C292 H317 0.979 . S
C292 H318 0.977 . S
C293 C289 1.684 . S
C293 H319 0.979 . S
C293 H320 0.980 . S
C293 H321 0.983 . S
C294 H270 0.948 . S
C294 C295 1.391 . S
C294 C299 1.391 . S
C295 C294 1.391 . S
C295 C296 1.391 . S
C296 H273 0.947 . S
C296 C295 1.391 . S
C296 C297 1.392 . S
C297 H274 0.948 . S
C297 C296 1.392 . S
C297 C298 1.419 . S
C298 C297 1.419 . S
C298 C299 1.391 . S
C298 C302 1.397 . S
C299 C294 1.391 . S
C299 C298 1.391 . S
C299 C300 1.399 . S
C300 C299 1.399 . S
C300 C301 1.396 . S
C300 C303 1.453 . S
C300 C304 1.684 . S
C301 C291 1.723 . S
C301 C300 1.396 . S
C301 C302 1.394 . S
C302 C272 1.723 . S
C302 C298 1.397 . S
C302 C301 1.394 . S
C303 H275 0.982 . S
C303 H279 0.979 . S
C303 H280 0.977 . S
C303 C300 1.453 . S
C304 H276 0.979 . S
C304 H277 0.980 . S
C304 H278 0.983 . S
C304 C300 1.684 . S
H305 C323 0.948 . S
H306 C264 0.948 . S
H307 C282 0.979 . S
H308 C282 0.980 . S
H309 C282 0.983 . S
H310 C281 0.982 . S
H311 C281 0.979 . S
H312 C281 0.977 . S
H313 C283 0.948 . S
H314 C285 0.947 . S
H315 C286 0.948 . S
H316 C292 0.982 . S
H317 C292 0.979 . S
H318 C292 0.977 . S
H319 C293 0.979 . S
H320 C293 0.980 . S
H321 C293 0.983 . S
H322 C266 0.947 . S
C323 C266 1.392 . S
C323 C267 1.419 . S
C323 H305 0.948 . S
C324 C325 1.391 . S
C324 C328 1.391 . S
C324 H366 0.948 . S
C325 C324 1.391 . S
C325 C326 1.391 . S
C326 C325 1.391 . S
C326 H382 0.947 . S
C326 C383 1.392 . S
C327 C328 1.391 . S
C327 C331 1.397 . S
C327 C383 1.419 . S
C328 C324 1.391 . S
C328 C327 1.391 . S
C328 C329 1.399 . S
C329 C328 1.399 . S
C329 C332 1.396 . S
C329 C341 1.453 . S
C329 C342 1.684 . S
H330 C354 0.948 . S
C331 C327 1.397 . S
C331 C332 1.394 . S
C331 C350 1.723 . S
C332 C329 1.396 . S
C332 C331 1.394 . S
C332 C362 1.723 . S
H333 C356 0.947 . S
H334 C357 0.948 . S
H335 C363 0.982 . S
H336 C364 0.979 . S
H337 C364 0.980 . S
H338 C364 0.983 . S
H339 C363 0.979 . S
H340 C363 0.977 . S
C341 C329 1.453 . S
C341 H370 0.982 . S
C341 H371 0.979 . S
C341 H372 0.977 . S
C342 C329 1.684 . S
C342 H367 0.979 . S
C342 H368 0.980 . S
C342 H369 0.983 . S
C343 C344 1.391 . S
C343 C348 1.391 . S
C343 H373 0.948 . S
C344 C343 1.391 . S
C344 C345 1.391 . S
C345 C344 1.391 . S
C345 C346 1.392 . S
C345 H374 0.947 . S
C346 C345 1.392 . S
C346 C347 1.419 . S
C346 H375 0.948 . S
C347 C346 1.419 . S
C347 C348 1.391 . S
C347 C351 1.397 . S
C348 C343 1.391 . S
C348 C347 1.391 . S
C348 C349 1.399 . S
C349 C348 1.399 . S
C349 C350 1.396 . S
C349 C352 1.453 . S
C349 C353 1.684 . S
C350 C331 1.723 . S
C350 C349 1.396 . S
C350 C351 1.394 . S
C351 C347 1.397 . S
C351 C350 1.394 . S
C351 C361 1.723 . S
C352 C349 1.453 . S
C352 H376 0.982 . S
C352 H377 0.979 . S
C352 H378 0.977 . S
C353 C349 1.684 . S
C353 H379 0.979 . S
C353 H380 0.980 . S
C353 H381 0.983 . S
C354 H330 0.948 . S
C354 C355 1.391 . S
C354 C359 1.391 . S
C355 C354 1.391 . S
C355 C356 1.391 . S
C356 H333 0.947 . S
C356 C355 1.391 . S
C356 C357 1.392 . S
C357 H334 0.948 . S
C357 C356 1.392 . S
C357 C358 1.419 . S
C358 C357 1.419 . S
C358 C359 1.391 . S
C358 C362 1.397 . S
C359 C354 1.391 . S
C359 C358 1.391 . S
C359 C360 1.399 . S
C360 C359 1.399 . S
C360 C361 1.396 . S
C360 C363 1.453 . S
C360 C364 1.684 . S
C361 C351 1.723 . S
C361 C360 1.396 . S
C361 C362 1.394 . S
C362 C332 1.723 . S
C362 C358 1.397 . S
C362 C361 1.394 . S
C363 H335 0.982 . S
C363 H339 0.979 . S
C363 H340 0.977 . S
C363 C360 1.453 . S
C364 H336 0.979 . S
C364 H337 0.980 . S
C364 H338 0.983 . S
C364 C360 1.684 . S
H365 C383 0.948 . S
H366 C324 0.948 . S
H367 C342 0.979 . S
H368 C342 0.980 . S
H369 C342 0.983 . S
H370 C341 0.982 . S
H371 C341 0.979 . S
H372 C341 0.977 . S
H373 C343 0.948 . S
H374 C345 0.947 . S
H375 C346 0.948 . S
H376 C352 0.982 . S
H377 C352 0.979 . S
H378 C352 0.977 . S
H379 C353 0.979 . S
H380 C353 0.980 . S
H381 C353 0.983 . S
H382 C326 0.947 . S
C383 C326 1.392 . S
C383 C327 1.419 . S
C383 H365 0.948 . S
C384 C385 1.391 . S
C384 C388 1.391 . S
C384 H426 0.948 . S
C385 C384 1.391 . S
C385 C386 1.391 . S
C386 C385 1.391 . S
C386 H442 0.947 . S
C386 C443 1.392 . S
C387 C388 1.391 . S
C387 C391 1.397 . S
C387 C443 1.419 . S
C388 C384 1.391 . S
C388 C387 1.391 . S
C388 C389 1.399 . S
C389 C388 1.399 . S
C389 C392 1.396 . S
C389 C401 1.453 . S
C389 C402 1.684 . S
H390 C414 0.956 . S
C391 C387 1.397 . S
C391 C392 1.394 . S
C391 C410 1.723 . S
C392 C389 1.396 . S
C392 C391 1.394 . S
C392 C422 1.723 . S
H393 C416 0.947 . S
H394 C417 0.948 . S
H395 C423 0.982 . S
H396 C424 0.979 . S
H397 C424 0.980 . S
H398 C424 0.983 . S
H399 C423 0.979 . S
H400 C423 0.977 . S
C401 C389 1.453 . S
C401 H430 0.982 . S
C401 H431 0.979 . S
C401 H432 0.977 . S
C402 C389 1.684 . S
C402 H427 0.979 . S
C402 H428 0.980 . S
C402 H429 0.983 . S
C403 C404 1.391 . S
C403 C408 1.391 . S
C403 H433 0.948 . S
C404 C403 1.391 . S
C404 C405 1.391 . S
C405 C404 1.391 . S
C405 C406 1.392 . S
C405 H434 0.947 . S
C406 C405 1.392 . S
C406 C407 1.419 . S
C406 H435 0.948 . S
C407 C406 1.419 . S
C407 C408 1.391 . S
C407 C411 1.397 . S
C408 C403 1.391 . S
C408 C407 1.391 . S
C408 C409 1.399 . S
C409 C408 1.399 . S
C409 C410 1.396 . S
C409 C412 1.453 . S
C409 C413 1.684 . S
C410 C391 1.723 . S
C410 C409 1.396 . S
C410 C411 1.394 . S
C411 C407 1.397 . S
C411 C410 1.394 . S
C411 C421 1.723 . S
C412 C409 1.453 . S
C412 H436 0.982 . S
C412 H437 0.979 . S
C412 H438 0.977 . S
C413 C409 1.684 . S
C413 H439 0.979 . S
C413 H440 0.980 . S
C413 H441 0.983 . S
C414 H390 0.956 . S
C414 C415 1.391 1_455 S
C414 C419 1.391 . S
C415 C414 1.391 1_655 S
C415 C416 1.391 1_655 S
C416 H393 0.947 . S
C416 C415 1.391 1_455 S
C416 C417 1.392 . S
C417 H394 0.948 . S
C417 C416 1.392 . S
C417 C418 1.419 . S
C418 C417 1.419 . S
C418 C419 1.391 . S
C418 C422 1.397 . S
C419 C414 1.391 . S
C419 C418 1.391 . S
C419 C420 1.399 . S
C420 C419 1.399 . S
C420 C421 1.396 . S
C420 C423 1.453 . S
C420 C424 1.684 . S
C421 C411 1.723 . S
C421 C420 1.396 . S
C421 C422 1.394 . S
C422 C392 1.723 . S
C422 C418 1.397 . S
C422 C421 1.394 . S
C423 H395 0.982 . S
C423 H399 0.979 . S
C423 H400 0.977 . S
C423 C420 1.453 . S
C424 H396 0.979 . S
C424 H397 0.980 . S
C424 H398 0.983 . S
C424 C420 1.684 . S
H425 C443 0.948 . S
H426 C384 0.948 . S
H427 C402 0.979 . S
H428 C402 0.980 . S
H429 C402 0.983 . S
H430 C401 0.982 . S
H431 C401 0.979 . S
H432 C401 0.977 . S
H433 C403 0.948 . S
H434 C405 0.947 . S
H435 C406 0.948 . S
H436 C412 0.982 . S
H437 C412 0.979 . S
H438 C412 0.977 . S
H439 C413 0.979 . S
H440 C413 0.980 . S
H441 C413 0.983 . S
H442 C386 0.947 . S
C443 C386 1.392 . S
C443 C387 1.419 . S
C443 H425 0.948 . S
C444 C445 1.391 . S
C444 C448 1.391 . S
C444 H486 0.948 . S
C445 C444 1.391 . S
C445 C446 1.391 . S
C446 C445 1.391 . S
C446 H502 0.947 . S
C446 C503 1.392 . S
C447 C448 1.391 . S
C447 C451 1.397 . S
C447 C503 1.419 . S
C448 C444 1.391 . S
C448 C447 1.391 . S
C448 C449 1.399 . S
C449 C448 1.399 . S
C449 C452 1.396 . S
C449 C461 1.453 . S
C449 C462 1.684 . S
H450 C474 0.948 . S
C451 C447 1.397 . S
C451 C452 1.394 . S
C451 C470 1.723 . S
C452 C449 1.396 . S
C452 C451 1.394 . S
C452 C482 1.723 . S
H453 C476 0.947 . S
H454 C477 0.948 . S
H455 C483 0.982 . S
H456 C484 0.979 . S
H457 C484 0.980 . S
H458 C484 0.983 . S
H459 C483 0.979 . S
H460 C483 0.977 . S
C461 C449 1.453 . S
C461 H490 0.982 . S
C461 H491 0.979 . S
C461 H492 0.977 . S
C462 C449 1.684 . S
C462 H487 0.979 . S
C462 H488 0.980 . S
C462 H489 0.983 . S
C463 C464 1.391 . S
C463 C468 1.391 . S
C463 H493 0.948 . S
C464 C463 1.391 . S
C464 C465 1.391 . S
C465 C464 1.391 . S
C465 C466 1.392 . S
C465 H494 0.947 . S
C466 C465 1.392 . S
C466 C467 1.419 . S
C466 H495 0.948 . S
C467 C466 1.419 . S
C467 C468 1.391 . S
C467 C471 1.397 . S
C468 C463 1.391 . S
C468 C467 1.391 . S
C468 C469 1.399 . S
C469 C468 1.399 . S
C469 C470 1.396 . S
C469 C472 1.453 . S
C469 C473 1.684 . S
C470 C451 1.723 . S
C470 C469 1.396 . S
C470 C471 1.394 . S
C471 C467 1.397 . S
C471 C470 1.394 . S
C471 C481 1.723 . S
C472 C469 1.453 . S
C472 H496 0.982 . S
C472 H497 0.979 . S
C472 H498 0.977 . S
C473 C469 1.684 . S
C473 H499 0.979 . S
C473 H500 0.980 . S
C473 H501 0.983 . S
C474 H450 0.948 . S
C474 C475 1.391 . S
C474 C479 1.391 . S
C475 C474 1.391 . S
C475 C476 1.391 . S
C476 H453 0.947 . S
C476 C475 1.391 . S
C476 C477 1.392 . S
C477 H454 0.948 . S
C477 C476 1.392 . S
C477 C478 1.419 . S
C478 C477 1.419 . S
C478 C479 1.391 . S
C478 C482 1.397 . S
C479 C474 1.391 . S
C479 C478 1.391 . S
C479 C480 1.399 . S
C480 C479 1.399 . S
C480 C481 1.396 . S
C480 C483 1.453 . S
C480 C484 1.684 . S
C481 C471 1.723 . S
C481 C480 1.396 . S
C481 C482 1.394 . S
C482 C452 1.723 . S
C482 C478 1.397 . S
C482 C481 1.394 . S
C483 H455 0.982 . S
C483 H459 0.979 . S
C483 H460 0.977 . S
C483 C480 1.453 . S
C484 H456 0.979 . S
C484 H457 0.980 . S
C484 H458 0.983 . S
C484 C480 1.684 . S
H485 C503 0.948 . S
H486 C444 0.948 . S
H487 C462 0.979 . S
H488 C462 0.980 . S
H489 C462 0.983 . S
H490 C461 0.982 . S
H491 C461 0.979 . S
H492 C461 0.977 . S
H493 C463 0.948 . S
H494 C465 0.947 . S
H495 C466 0.948 . S
H496 C472 0.982 . S
H497 C472 0.979 . S
H498 C472 0.977 . S
H499 C473 0.979 . S
H500 C473 0.980 . S
H501 C473 0.983 . S
H502 C446 0.947 . S
C503 C446 1.392 . S
C503 C447 1.419 . S
C503 H485 0.948 . S
C504 C505 1.391 . S
C504 C508 1.391 . S
C504 H546 0.948 . S
C505 C504 1.391 . S
C505 C506 1.391 . S
C506 C505 1.391 . S
C506 H562 0.947 . S
C506 C563 1.392 . S
C507 C508 1.391 . S
C507 C511 1.397 . S
C507 C563 1.419 . S
C508 C504 1.391 . S
C508 C507 1.391 . S
C508 C509 1.399 . S
C509 C508 1.399 . S
C509 C512 1.396 . S
C509 C521 1.453 . S
C509 C522 1.684 . S
H510 C534 0.948 . S
C511 C507 1.397 . S
C511 C512 1.394 . S
C511 C530 1.723 . S
C512 C509 1.396 . S
C512 C511 1.394 . S
C512 C542 1.723 . S
H513 C536 0.947 . S
H514 C537 0.948 . S
H515 C543 0.982 . S
H516 C544 0.979 . S
H517 C544 0.980 . S
H518 C544 0.983 . S
H519 C543 0.979 . S
H520 C543 0.977 . S
C521 C509 1.453 . S
C521 H550 0.982 . S
C521 H551 0.979 . S
C521 H552 0.977 . S
C522 C509 1.684 . S
C522 H547 0.979 . S
C522 H548 0.980 . S
C522 H549 0.983 . S
C523 C524 1.391 1_655 S
C523 C528 1.391 . S
C523 H553 0.956 . S
C524 C523 1.391 1_455 S
C524 C525 1.391 1_455 S
C525 C524 1.391 1_655 S
C525 C526 1.392 . S
C525 H554 0.947 . S
C526 C525 1.392 . S
C526 C527 1.419 . S
C526 H555 0.948 . S
C527 C526 1.419 . S
C527 C528 1.391 . S
C527 C531 1.397 . S
C528 C523 1.391 . S
C528 C527 1.391 . S
C528 C529 1.399 . S
C529 C528 1.399 . S
C529 C530 1.396 . S
C529 C532 1.453 . S
C529 C533 1.684 . S
C530 C511 1.723 . S
C530 C529 1.396 . S
C530 C531 1.394 . S
C531 C527 1.397 . S
C531 C530 1.394 . S
C531 C541 1.723 . S
C532 C529 1.453 . S
C532 H556 0.982 . S
C532 H557 0.979 . S
C532 H558 0.977 . S
C533 C529 1.684 . S
C533 H559 0.979 . S
C533 H560 0.980 . S
C533 H561 0.983 . S
C534 H510 0.948 . S
C534 C535 1.391 . S
C534 C539 1.391 . S
C535 C534 1.391 . S
C535 C536 1.391 . S
C536 H513 0.947 . S
C536 C535 1.391 . S
C536 C537 1.392 . S
C537 H514 0.948 . S
C537 C536 1.392 . S
C537 C538 1.419 . S
C538 C537 1.419 . S
C538 C539 1.391 . S
C538 C542 1.397 . S
C539 C534 1.391 . S
C539 C538 1.391 . S
C539 C540 1.399 . S
C540 C539 1.399 . S
C540 C541 1.396 . S
C540 C543 1.453 . S
C540 C544 1.684 . S
C541 C531 1.723 . S
C541 C540 1.396 . S
C541 C542 1.394 . S
C542 C512 1.723 . S
C542 C538 1.397 . S
C542 C541 1.394 . S
C543 H515 0.982 . S
C543 H519 0.979 . S
C543 H520 0.977 . S
C543 C540 1.453 . S
C544 H516 0.979 . S
C544 H517 0.980 . S
C544 H518 0.983 . S
C544 C540 1.684 . S
H545 C563 0.948 . S
H546 C504 0.948 . S
H547 C522 0.979 . S
H548 C522 0.980 . S
H549 C522 0.983 . S
H550 C521 0.982 . S
H551 C521 0.979 . S
H552 C521 0.977 . S
H553 C523 0.956 . S
H554 C525 0.947 . S
H555 C526 0.948 . S
H556 C532 0.982 . S
H557 C532 0.979 . S
H558 C532 0.977 . S
H559 C533 0.979 . S
H560 C533 0.980 . S
H561 C533 0.983 . S
H562 C506 0.947 . S
C563 C506 1.392 . S
C563 C507 1.419 . S
C563 H545 0.948 . S
C564 C565 1.369 . S
C564 C566 1.419 . S
C564 H568 0.930 . S
C565 C564 1.369 . S
C565 C574 1.429 . S
C566 C564 1.419 . S
C566 C567 1.363 . S
C566 H569 0.929 . S
C567 C566 1.363 . S
C567 C573 1.428 . S
H568 C564 0.930 . S
H569 C566 0.929 . S
S570 N571 1.613 1_545 S
S570 N572 1.610 . S
N571 S570 1.613 1_565 S
N571 C574 1.350 . S
N572 S570 1.610 . S
N572 C573 1.351 1_545 S
C573 C567 1.428 . S
C573 N572 1.351 1_565 S
C573 C574 1.434 . S
C574 C565 1.429 . S
C574 N571 1.350 . S
C574 C573 1.434 . S
C575 C576 1.369 . S
C575 C577 1.419 . S
C575 H579 0.930 . S
C576 C575 1.369 . S
C576 C585 1.429 . S
C577 C575 1.419 . S
C577 C578 1.363 . S
C577 H580 0.929 . S
C578 C577 1.363 . S
C578 C584 1.428 . S
H579 C575 0.930 . S
H580 C577 0.929 . S
S581 N582 1.613 . S
S581 N583 1.610 . S
N582 S581 1.613 . S
N582 C585 1.350 . S
N583 S581 1.610 . S
N583 C584 1.351 . S
C584 C578 1.428 . S
C584 N583 1.351 . S
C584 C585 1.434 . S
C585 C576 1.429 . S
C585 N582 1.350 . S
C585 C584 1.434 . S
C586 C587 1.369 . S
C586 C588 1.419 . S
C586 H590 0.930 . S
C587 C586 1.369 . S
C587 C596 1.429 . S
C588 C586 1.419 . S
C588 C589 1.363 . S
C588 H591 0.929 . S
C589 C588 1.363 . S
C589 C595 1.428 . S
H590 C586 0.930 . S
H591 C588 0.929 . S
S592 N593 1.613 . S
S592 N594 1.610 . S
N593 S592 1.613 . S
N593 C596 1.350 . S
N594 S592 1.610 . S
N594 C595 1.351 . S
C595 C589 1.428 . S
C595 N594 1.351 . S
C595 C596 1.434 . S
C596 C587 1.429 . S
C596 N593 1.350 . S
C596 C595 1.434 . S
C597 C598 1.369 . S
C597 C599 1.419 . S
C597 H601 0.930 . S
C598 C597 1.369 . S
C598 C607 1.429 . S
C599 C597 1.419 . S
C599 C600 1.363 . S
C599 H602 0.929 . S
C600 C599 1.363 . S
C600 C606 1.428 . S
H601 C597 0.930 . S
H602 C599 0.929 . S
S603 N604 1.613 . S
S603 N605 1.610 . S
N604 S603 1.613 . S
N604 C607 1.350 . S
N605 S603 1.610 . S
N605 C606 1.351 . S
C606 C600 1.428 . S
C606 N605 1.351 . S
C606 C607 1.434 . S
C607 C598 1.429 . S
C607 N604 1.350 . S
C607 C606 1.434 . S
C608 C609 1.369 . S
C608 C610 1.419 . S
C608 H612 0.930 . S
C609 C608 1.369 . S
C609 C618 1.429 . S
C610 C608 1.419 . S
C610 C611 1.363 . S
C610 H613 0.929 . S
C611 C610 1.363 . S
C611 C617 1.428 . S
H612 C608 0.930 . S
H613 C610 0.929 . S
S614 N615 1.613 . S
S614 N616 1.610 . S
N615 S614 1.613 . S
N615 C618 1.350 . S
N616 S614 1.610 . S
N616 C617 1.351 . S
C617 C611 1.428 . S
C617 N616 1.351 . S
C617 C618 1.434 . S
C618 C609 1.429 . S
C618 N615 1.350 . S
C618 C617 1.434 . S
C619 C620 1.369 . S
C619 C621 1.419 . S
C619 H623 0.930 . S
C620 C619 1.369 . S
C620 C629 1.429 . S
C621 C619 1.419 . S
C621 C622 1.363 . S
C621 H624 0.929 . S
C622 C621 1.363 . S
C622 C628 1.428 . S
H623 C619 0.930 . S
H624 C621 0.929 . S
S625 N626 1.613 1_455 S
S625 N627 1.610 . S
N626 S625 1.613 1_655 S
N626 C629 1.350 . S
N627 S625 1.610 . S
N627 C628 1.351 1_455 S
C628 C622 1.428 . S
C628 N627 1.351 1_655 S
C628 C629 1.434 . S
C629 C620 1.429 . S
C629 N626 1.350 . S
C629 C628 1.434 . S
C630 C631 1.369 . S
C630 C632 1.419 . S
C630 H634 0.930 . S
C631 C630 1.369 . S
C631 C640 1.429 . S
C632 C630 1.419 . S
C632 C633 1.363 . S
C632 H635 0.929 . S
C633 C632 1.363 . S
C633 C639 1.428 . S
H634 C630 0.930 . S
H635 C632 0.929 . S
S636 N637 1.613 . S
S636 N638 1.610 . S
N637 S636 1.613 . S
N637 C640 1.350 . S
N638 S636 1.610 . S
N638 C639 1.351 . S
C639 C633 1.428 . S
C639 N638 1.351 . S
C639 C640 1.434 . S
C640 C631 1.429 . S
C640 N637 1.350 . S
C640 C639 1.434 . S
C641 C642 1.369 . S
C641 C643 1.419 . S
C641 H645 0.930 . S
C642 C641 1.369 . S
C642 C651 1.429 . S
C643 C641 1.419 . S
C643 C644 1.363 . S
C643 H646 0.929 . S
C644 C643 1.363 . S
C644 C650 1.428 . S
H645 C641 0.930 . S
H646 C643 0.929 . S
S647 N648 1.613 . S
S647 N649 1.610 . S
N648 S647 1.613 . S
N648 C651 1.350 . S
N649 S647 1.610 . S
N649 C650 1.351 . S
C650 C644 1.428 . S
C650 N649 1.351 . S
C650 C651 1.434 . S
C651 C642 1.429 . S
C651 N648 1.350 . S
C651 C650 1.434 . S
C652 C653 1.369 . S
C652 C654 1.419 1_545 S
C652 H656 0.930 . S
C653 C652 1.369 . S
C653 C662 1.429 . S
C654 C652 1.419 1_565 S
C654 C655 1.363 . S
C654 H657 0.929 . S
C655 C654 1.363 . S
C655 C661 1.428 1_565 S
H656 C652 0.930 . S
H657 C654 0.929 . S
S658 N659 1.613 . S
S658 N660 1.610 . S
N659 S658 1.613 . S
N659 C662 1.350 . S
N660 S658 1.610 . S
N660 C661 1.351 . S
C661 C655 1.428 1_545 S
C661 N660 1.351 . S
C661 C662 1.434 . S
C662 C653 1.429 . S
C662 N659 1.350 . S
C662 C661 1.434 . S
C663 C664 1.369 . S
C663 C665 1.419 . S
C663 H667 0.930 . S
C664 C663 1.369 . S
C664 C673 1.429 . S
C665 C663 1.419 . S
C665 C666 1.363 . S
C665 H668 0.929 . S
C666 C665 1.363 . S
C666 C672 1.428 . S
H667 C663 0.930 . S
H668 C665 0.929 . S
S669 N670 1.613 . S
S669 N671 1.610 . S
N670 S669 1.613 . S
N670 C673 1.350 . S
N671 S669 1.610 . S
N671 C672 1.351 . S
C672 C666 1.428 . S
C672 N671 1.351 . S
C672 C673 1.434 . S
C673 C664 1.429 . S
C673 N670 1.350 . S
C673 C672 1.434 . S
C674 C675 1.369 . S
C674 C676 1.419 1_565 S
C674 H678 0.930 . S
C675 C674 1.369 . S
C675 C684 1.429 . S
C676 C674 1.419 1_545 S
C676 C677 1.363 . S
C676 H679 0.929 . S
C677 C676 1.363 . S
C677 C683 1.428 1_545 S
H678 C674 0.930 . S
H679 C676 0.929 . S
S680 N681 1.613 . S
S680 N682 1.610 . S
N681 S680 1.613 . S
N681 C684 1.350 . S
N682 S680 1.610 . S
N682 C683 1.351 . S
C683 C677 1.428 1_565 S
C683 N682 1.351 . S
C683 C684 1.434 . S
C684 C675 1.429 . S
C684 N681 1.350 . S
C684 C683 1.434 . S
C685 C686 1.369 . S
C685 C687 1.419 . S
C685 H689 0.930 . S
C686 C685 1.369 . S
C686 C695 1.429 . S
C687 C685 1.419 . S
C687 C688 1.363 . S
C687 H690 0.929 . S
C688 C687 1.363 . S
C688 C694 1.428 . S
H689 C685 0.930 . S
H690 C687 0.929 . S
S691 N692 1.613 . S
S691 N693 1.610 . S
N692 S691 1.613 . S
N692 C695 1.350 . S
N693 S691 1.610 . S
N693 C694 1.351 . S
C694 C688 1.428 . S
C694 N693 1.351 . S
C694 C695 1.434 . S
C695 C686 1.429 . S
C695 N692 1.350 . S
C695 C694 1.434 . S
C696 C697 1.369 . S
C696 C698 1.419 . S
C696 H700 0.930 . S
C697 C696 1.369 . S
C697 C706 1.429 . S
C698 C696 1.419 . S
C698 C699 1.363 . S
C698 H701 0.929 . S
C699 C698 1.363 . S
C699 C705 1.428 . S
H700 C696 0.930 . S
H701 C698 0.929 . S
S702 N703 1.613 . S
S702 N704 1.610 . S
N703 S702 1.613 . S
N703 C706 1.350 . S
N704 S702 1.610 . S
N704 C705 1.351 . S
C705 C699 1.428 . S
C705 N704 1.351 . S
C705 C706 1.434 . S
C706 C697 1.429 . S
C706 N703 1.350 . S
C706 C705 1.434 . S
C707 C708 1.369 . S
C707 C709 1.419 . S
C707 H711 0.930 . S
C708 C707 1.369 . S
C708 C717 1.429 . S
C709 C707 1.419 . S
C709 C710 1.363 1_455 S
C709 H712 0.929 . S
C710 C709 1.363 1_655 S
C710 C716 1.428 . S
H711 C707 0.930 . S
H712 C709 0.929 . S
S713 N714 1.613 1_655 S
S713 N715 1.610 . S
N714 S713 1.613 1_455 S
N714 C717 1.350 . S
N715 S713 1.610 . S
N715 C716 1.351 . S
C716 C710 1.428 . S
C716 N715 1.351 . S
C716 C717 1.434 1_655 S
C717 C708 1.429 . S
C717 N714 1.350 . S
C717 C716 1.434 1_455 S
C718 C719 1.369 . S
C718 C720 1.419 . S
C718 H722 0.930 . S
C719 C718 1.369 . S
C719 C728 1.429 . S
C720 C718 1.419 . S
C720 C721 1.363 . S
C720 H723 0.929 . S
C721 C720 1.363 . S
C721 C727 1.428 . S
H722 C718 0.930 . S
H723 C720 0.929 . S
S724 N725 1.613 . S
S724 N726 1.610 . S
N725 S724 1.613 . S
N725 C728 1.350 . S
N726 S724 1.610 . S
N726 C727 1.351 . S
C727 C721 1.428 . S
C727 N726 1.351 . S
C727 C728 1.434 . S
C728 C719 1.429 . S
C728 N725 1.350 . S
C728 C727 1.434 . S
C729 C730 1.369 . S
C729 C731 1.419 1_655 S
C729 H733 0.930 . S
C730 C729 1.369 . S
C730 C739 1.429 . S
C731 C729 1.419 1_455 S
C731 C732 1.363 . S
C731 H734 0.929 . S
C732 C731 1.363 . S
C732 C738 1.428 1_455 S
H733 C729 0.930 . S
H734 C731 0.929 . S
S735 N736 1.613 . S
S735 N737 1.610 . S
N736 S735 1.613 . S
N736 C739 1.350 . S
N737 S735 1.610 . S
N737 C738 1.351 . S
C738 C732 1.428 1_655 S
C738 N737 1.351 . S
C738 C739 1.434 . S
C739 C730 1.429 . S
C739 N736 1.350 . S
C739 C738 1.434 . S
C740 C741 1.369 . S
C740 C742 1.419 . S
C740 H744 0.930 . S
C741 C740 1.369 . S
C741 C750 1.429 . S
C742 C740 1.419 . S
C742 C743 1.363 . S
C742 H745 0.929 . S
C743 C742 1.363 . S
C743 C749 1.428 . S
H744 C740 0.930 . S
H745 C742 0.929 . S
S746 N747 1.613 . S
S746 N748 1.610 . S
N747 S746 1.613 . S
N747 C750 1.350 . S
N748 S746 1.610 . S
N748 C749 1.351 . S
C749 C743 1.428 . S
C749 N748 1.351 . S
C749 C750 1.434 . S
C750 C741 1.429 . S
C750 N747 1.350 . S
C750 C749 1.434 . S
C751 C752 1.369 . S
C751 C753 1.419 . S
C751 H755 0.930 . S
C752 C751 1.369 . S
C752 C761 1.429 . S
C753 C751 1.419 . S
C753 C754 1.363 . S
C753 H756 0.929 . S
C754 C753 1.363 . S
C754 C760 1.428 . S
H755 C751 0.930 . S
H756 C753 0.929 . S
S757 N758 1.613 . S
S757 N759 1.610 . S
N758 S757 1.613 . S
N758 C761 1.350 . S
N759 S757 1.610 . S
N759 C760 1.351 . S
C760 C754 1.428 . S
C760 N759 1.351 . S
C760 C761 1.434 . S
C761 C752 1.429 . S
C761 N758 1.350 . S
C761 C760 1.434 . S
C762 C763 1.369 . S
C762 C764 1.419 . S
C762 H766 0.930 . S
C763 C762 1.369 . S
C763 C772 1.429 . S
C764 C762 1.419 . S
C764 C765 1.363 . S
C764 H767 0.929 . S
C765 C764 1.363 . S
C765 C771 1.428 . S
H766 C762 0.930 . S
H767 C764 0.929 . S
S768 N769 1.613 . S
S768 N770 1.610 . S
N769 S768 1.613 . S
N769 C772 1.350 . S
N770 S768 1.610 . S
N770 C771 1.351 . S
C771 C765 1.428 . S
C771 N770 1.351 . S
C771 C772 1.434 . S
C772 C763 1.429 . S
C772 N769 1.350 . S
C772 C771 1.434 . S
C773 C774 1.369 . S
C773 C775 1.419 . S
C773 H777 0.930 . S
C774 C773 1.369 . S
C774 C783 1.429 . S
C775 C773 1.419 . S
C775 C776 1.363 . S
C775 H778 0.929 . S
C776 C775 1.363 . S
C776 C782 1.428 . S
H777 C773 0.930 . S
H778 C775 0.929 . S
S779 N780 1.613 . S
S779 N781 1.610 . S
N780 S779 1.613 . S
N780 C783 1.350 . S
N781 S779 1.610 . S
N781 C782 1.351 . S
C782 C776 1.428 . S
C782 N781 1.351 . S
C782 C783 1.434 . S
C783 C774 1.429 . S
C783 N780 1.350 . S
C783 C782 1.434 . S
C784 C785 1.369 . S
C784 C786 1.419 . S
C784 H788 0.930 . S
C785 C784 1.369 . S
C785 C794 1.429 . S
C786 C784 1.419 . S
C786 C787 1.363 . S
C786 H789 0.929 . S
C787 C786 1.363 . S
C787 C793 1.428 . S
H788 C784 0.930 . S
H789 C786 0.929 . S
S790 N791 1.613 . S
S790 N792 1.610 . S
N791 S790 1.613 . S
N791 C794 1.350 . S
N792 S790 1.610 . S
N792 C793 1.351 . S
C793 C787 1.428 . S
C793 N792 1.351 . S
C793 C794 1.434 . S
C794 C785 1.429 . S
C794 N791 1.350 . S
C794 C793 1.434 . S
C795 C796 1.369 . S
C795 C797 1.419 . S
C795 H799 0.930 . S
C796 C795 1.369 . S
C796 C805 1.429 . S
C797 C795 1.419 . S
C797 C798 1.363 . S
C797 H800 0.929 . S
C798 C797 1.363 . S
C798 C804 1.428 . S
H799 C795 0.930 . S
H800 C797 0.929 . S
S801 N802 1.613 . S
S801 N803 1.610 . S
N802 S801 1.613 . S
N802 C805 1.350 . S
N803 S801 1.610 . S
N803 C804 1.351 . S
C804 C798 1.428 . S
C804 N803 1.351 . S
C804 C805 1.434 . S
C805 C796 1.429 . S
C805 N802 1.350 . S
C805 C804 1.434 . S
C806 C807 1.369 . S
C806 C808 1.419 . S
C806 H810 0.930 . S
C807 C806 1.369 . S
C807 C816 1.429 . S
C808 C806 1.419 . S
C808 C809 1.363 . S
C808 H811 0.929 . S
C809 C808 1.363 . S
C809 C815 1.428 . S
H810 C806 0.930 . S
H811 C808 0.929 . S
S812 N813 1.613 . S
S812 N814 1.610 . S
N813 S812 1.613 . S
N813 C816 1.350 . S
N814 S812 1.610 . S
N814 C815 1.351 . S
C815 C809 1.428 . S
C815 N814 1.351 . S
C815 C816 1.434 . S
C816 C807 1.429 . S
C816 N813 1.350 . S
C816 C815 1.434 . S
C817 C818 1.369 . S
C817 C819 1.419 . S
C817 H821 0.930 . S
C818 C817 1.369 . S
C818 C827 1.429 . S
C819 C817 1.419 . S
C819 C820 1.363 . S
C819 H822 0.929 . S
C820 C819 1.363 . S
C820 C826 1.428 . S
H821 C817 0.930 . S
H822 C819 0.929 . S
S823 N824 1.613 . S
S823 N825 1.610 . S
N824 S823 1.613 . S
N824 C827 1.350 . S
N825 S823 1.610 . S
N825 C826 1.351 . S
C826 C820 1.428 . S
C826 N825 1.351 . S
C826 C827 1.434 . S
C827 C818 1.429 . S
C827 N824 1.350 . S
C827 C826 1.434 . S
C565 C7 1.075 . S
C567 C85 0.966 . S
C576 C25 1.058 . S
C578 C164 1.116 . S
C587 C46 1.058 . S
C589 C235 1.111 . S
C600 C295 1.117 . S
C598 C70 1.062 . S
C611 C325 0.974 . S
C609 C28 1.072 . S
C620 C49 1.074 . S
C622 C415 1.109 . S
C631 C67 1.070 . S
C633 C475 1.107 . S
C642 C4 1.057 . S
C644 C524 1.115 . S
C653 C58 1.712 . S
C655 C505 1.679 . S
C666 C344 1.791 . S
C664 C66 1.713 . S
C677 C404 1.676 . S
C675 C3 1.711 . S
C686 C37 1.718 . S
C688 C464 1.676 . S
C699 C145 1.672 . S
C697 C79 1.714 . S
C708 C16 1.719 . S
C710 C224 1.669 . S
C721 C284 1.671 . S
C719 C24 1.721 . S
C732 C104 1.793 . S
C730 C45 1.711 . S
C743 C445 1.207 . S
C741 C19 1.056 . S
C754 C535 1.207 . S
C752 C41 1.055 . S
C763 C62 1.053 . S
C765 C355 1.222 . S
C776 C385 1.212 . S
C774 C82 1.056 . S
C787 C205 1.210 . S
C785 C40 1.053 . S
C796 C61 1.066 . S
C798 C265 1.216 . S
C809 C115 1.217 . S
C807 C83 1.074 . S
C820 C175 1.210 . S
C818 C20 1.054 . S
