# Generated by pormake.
# Topology zzz, (3,6)-cn, num edge types: 1
# Building blocks:
#     Node 0, Type 0, BuildingBlock: KAKCAD_clean_linker_0, # of connection points: 3
#     Node 1, Type 0, BuildingBlock: KAKCAD_clean_linker_0, # of connection points: 3
#     Node 2, Type 0, BuildingBlock: KAKCAD_clean_linker_0, # of connection points: 3
#     Node 3, Type 0, BuildingBlock: KAKCAD_clean_linker_0, # of connection points: 3
#     Node 4, Type 0, BuildingBlock: KAKCAD_clean_linker_0, # of connection points: 3
#     Node 5, Type 0, BuildingBlock: KAKCAD_clean_linker_0, # of connection points: 3
#     Node 6, Type 0, BuildingBlock: KAKCAD_clean_linker_0, # of connection points: 3
#     Node 7, Type 0, BuildingBlock: KAKCAD_clean_linker_0, # of connection points: 3
#     Node 8, Type 1, BuildingBlock: BETGAK_clean_sbu_0, # of connection points: 6
#     Node 9, Type 1, BuildingBlock: BETGAK_clean_sbu_0, # of connection points: 6
#     Node 10, Type 1, BuildingBlock: BETGAK_clean_sbu_0, # of connection points: 6
#     Node 11, Type 1, BuildingBlock: BETGAK_clean_sbu_0, # of connection points: 6
#     Edge 12, Type (0, 1), BuildingBlock: KIFKEQ_clean_linker_1, # of connection points: 2
#     Edge 13, Type (0, 1), BuildingBlock: KIFKEQ_clean_linker_1, # of connection points: 2
#     Edge 14, Type (0, 1), BuildingBlock: KIFKEQ_clean_linker_1, # of connection points: 2
#     Edge 15, Type (0, 1), BuildingBlock: KIFKEQ_clean_linker_1, # of connection points: 2
#     Edge 16, Type (0, 1), BuildingBlock: KIFKEQ_clean_linker_1, # of connection points: 2
#     Edge 17, Type (0, 1), BuildingBlock: KIFKEQ_clean_linker_1, # of connection points: 2
#     Edge 18, Type (0, 1), BuildingBlock: KIFKEQ_clean_linker_1, # of connection points: 2
#     Edge 19, Type (0, 1), BuildingBlock: KIFKEQ_clean_linker_1, # of connection points: 2
#     Edge 20, Type (0, 1), BuildingBlock: KIFKEQ_clean_linker_1, # of connection points: 2
#     Edge 21, Type (0, 1), BuildingBlock: KIFKEQ_clean_linker_1, # of connection points: 2
#     Edge 22, Type (0, 1), BuildingBlock: KIFKEQ_clean_linker_1, # of connection points: 2
#     Edge 23, Type (0, 1), BuildingBlock: KIFKEQ_clean_linker_1, # of connection points: 2
#     Edge 24, Type (0, 1), BuildingBlock: KIFKEQ_clean_linker_1, # of connection points: 2
#     Edge 25, Type (0, 1), BuildingBlock: KIFKEQ_clean_linker_1, # of connection points: 2
#     Edge 26, Type (0, 1), BuildingBlock: KIFKEQ_clean_linker_1, # of connection points: 2
#     Edge 27, Type (0, 1), BuildingBlock: KIFKEQ_clean_linker_1, # of connection points: 2
#     Edge 28, Type (0, 1), BuildingBlock: KIFKEQ_clean_linker_1, # of connection points: 2
#     Edge 29, Type (0, 1), BuildingBlock: KIFKEQ_clean_linker_1, # of connection points: 2
#     Edge 30, Type (0, 1), BuildingBlock: KIFKEQ_clean_linker_1, # of connection points: 2
#     Edge 31, Type (0, 1), BuildingBlock: KIFKEQ_clean_linker_1, # of connection points: 2
#     Edge 32, Type (0, 1), BuildingBlock: KIFKEQ_clean_linker_1, # of connection points: 2
#     Edge 33, Type (0, 1), BuildingBlock: KIFKEQ_clean_linker_1, # of connection points: 2
#     Edge 34, Type (0, 1), BuildingBlock: KIFKEQ_clean_linker_1, # of connection points: 2
#     Edge 35, Type (0, 1), BuildingBlock: KIFKEQ_clean_linker_1, # of connection points: 2
# Relax obj value: 0.447
# Max RMSD: 0.269
# Mean RMSD: 0.253
data_MOF--net-zzz--node1-BETGAK_clean_sbu_0--node2-KAKCAD_clean_linker_0--edge1-KIFKEQ_clean_linker_1
_symmetry_space_group_name_H-M    P1
_symmetry_Int_Tables_number       1
_symmetry_cell_setting            triclinic
loop_
_symmetry_equiv_pos_as_xyz
'x, y, z'
_cell_length_a     60.925909
_cell_length_b     60.906537
_cell_length_c     18.652624
_cell_angle_alpha  90.093818
_cell_angle_beta   89.815779
_cell_angle_gamma 90.071724
loop_
_atom_site_label
_atom_site_type_symbol
_atom_site_fract_x
_atom_site_fract_y
_atom_site_fract_z
_atom_type_partial_charge
C0 C 0.76172 0.43915 0.98256 0.0
C1 C 0.77813 0.42359 0.99714 0.0
C2 C 0.75081 0.44983 0.03852 0.0
C3 C 0.75583 0.44491 0.11029 0.0
C4 C 0.77038 0.42758 0.12454 0.0
C5 C 0.7815 0.41711 0.06861 0.0
C6 C 0.74811 0.45955 0.16906 0.0
C7 C 0.72722 0.46899 0.16694 0.0
C8 C 0.721 0.48527 0.21622 0.0
C9 C 0.7359 0.49193 0.27009 0.0
C10 C 0.75668 0.48168 0.2752 0.0
C11 C 0.76256 0.46582 0.2238 0.0
C12 C 0.77318 0.48729 0.33145 0.0
C13 C 0.78047 0.50895 0.34209 0.0
C14 C 0.78421 0.47023 0.36707 0.0
C15 C 0.80286 0.47444 0.40835 0.0
C16 C 0.81107 0.49593 0.41602 0.0
C17 C 0.69918 0.4955 0.20561 0.0
C18 C 0.69764 0.51558 0.16917 0.0
C19 C 0.68022 0.48254 0.21317 0.0
C20 C 0.66049 0.48874 0.1806 0.0
C21 C 0.65936 0.50793 0.13885 0.0
C22 C 0.67793 0.52174 0.13609 0.0
C23 C 0.79922 0.51322 0.38386 0.0
H24 H 0.75839 0.44419 0.92801 0.0
H25 H 0.73967 0.46305 0.02531 0.0
H26 H 0.77416 0.42297 0.17918 0.0
H27 H 0.79401 0.40521 0.0821 0.0
H28 H 0.71584 0.46415 0.12518 0.0
H29 H 0.779 0.45905 0.2247 0.0
H30 H 0.73126 0.5046 0.30802 0.0
H31 H 0.77242 0.52243 0.31504 0.0
H32 H 0.77899 0.45335 0.36009 0.0
H33 H 0.81145 0.46057 0.43108 0.0
H34 H 0.71213 0.52563 0.16127 0.0
H35 H 0.68113 0.46674 0.23961 0.0
H36 H 0.80472 0.53004 0.38943 0.0
H37 H 0.67757 0.53677 0.10521 0.0
H38 H 0.64665 0.4776 0.18355 0.0
C39 C 0.08086 0.75489 0.01433 0.0
C40 C 0.09597 0.77123 0.03443 0.0
C41 C 0.06812 0.74425 0.06603 0.0
C42 C 0.07063 0.74928 0.13922 0.0
C43 C 0.08774 0.76345 0.15963 0.0
C44 C 0.10014 0.77446 0.10787 0.0
C45 C 0.05389 0.74196 0.1925 0.0
C46 C 0.04334 0.72168 0.18512 0.0
C47 C 0.0254 0.71602 0.2286 0.0
C48 C 0.01829 0.73068 0.28284 0.0
C49 C 0.02951 0.75081 0.29349 0.0
C50 C 0.0469 0.75627 0.24702 0.0
C51 C 0.02351 0.76704 0.35065 0.0
C52 C 1.00196 0.77486 0.35899 0.0
C53 C 0.04029 0.77717 0.39052 0.0
C54 C 0.03602 0.79546 0.43371 0.0
C55 C 0.0147 0.8042 0.43946 0.0
C56 C 0.01425 0.69498 0.21172 0.0
C57 C 0.99773 0.69468 0.1594 0.0
C58 C 0.02438 0.67512 0.23045 0.0
C59 C 0.01912 0.6556 0.19439 0.0
C60 C 1.00381 0.65552 0.1379 0.0
C61 C 0.99252 0.67519 0.12302 0.0
C62 C 0.9976 0.79323 0.40287 0.0
H63 H 0.07767 0.75149 0.95832 0.0
H64 H 0.05523 0.73336 0.04784 0.0
H65 H 0.09069 0.76712 0.21561 0.0
H66 H 0.11166 0.78683 0.12585 0.0
H67 H 0.04869 0.71031 0.14384 0.0
H68 H 0.05444 0.77234 0.25169 0.0
H69 H 1.00446 0.72637 0.31663 0.0
H70 H 0.98867 0.76752 0.32884 0.0
H71 H 0.05709 0.77151 0.3857 0.0
H72 H 0.04979 0.80335 0.45973 0.0
H73 H 0.99016 0.70989 0.14241 0.0
H74 H 0.03754 0.67501 0.2694 0.0
H75 H 0.98087 0.79909 0.40675 0.0
H76 H 0.9808 0.67596 0.0796 0.0
H77 H 0.02786 0.64076 0.20851 0.0
C78 C 0.75131 0.07661 0.03074 0.0
C79 C 0.73463 0.09095 0.05402 0.0
C80 C 0.76224 0.06319 0.07966 0.0
C81 C 0.75728 0.06436 0.15329 0.0
C82 C 0.74312 0.08105 0.17728 0.0
C83 C 0.73171 0.09398 0.12832 0.0
C84 C 0.76431 0.04657 0.20299 0.0
C85 C 0.78434 0.0357 0.19357 0.0
C86 C 0.78957 0.01703 0.23404 0.0
C87 C 0.77472 1.00941 0.28693 0.0
C88 C 0.75483 0.0208 0.29926 0.0
C89 C 0.7498 0.03896 0.25602 0.0
C90 C 0.73829 0.0142 0.35458 0.0
C91 C 0.72926 0.99293 0.35636 0.0
C92 C 0.72867 0.03057 0.3978 0.0
C93 C 0.70948 0.0264 0.43665 0.0
C94 C 0.6995 1.00563 0.43449 0.0
C95 C 0.81038 1.0057 0.216 0.0
C96 C 0.8107 0.99045 0.15953 0.0
C97 C 0.83035 0.01437 0.24053 0.0
C98 C 0.85016 1.00884 0.2066 0.0
C99 C 0.85042 0.99474 0.14658 0.0
C100 C 0.83049 0.98497 0.12531 0.0
C101 C 0.71004 0.98865 0.39631 0.0
H102 H 0.75476 0.07445 0.9742 0.0
H103 H 0.77325 0.05078 0.05879 0.0
H104 H 0.73962 0.08312 0.23384 0.0
H105 H 0.71924 0.1049 0.14924 0.0
H106 H 0.79586 0.04144 0.1533 0.0
H107 H 0.73386 0.04664 0.26197 0.0
H108 H 0.77868 0.995 0.31829 0.0
H109 H 0.73616 0.98003 0.32325 0.0
H110 H 0.73533 0.04708 0.39821 0.0
H111 H 0.70192 0.03971 0.46634 0.0
H112 H 0.79544 0.98405 0.13828 0.0
H113 H 0.83046 0.02656 0.28292 0.0
H114 H 0.70269 0.97247 0.39377 0.0
H115 H 0.82987 0.97426 0.07898 0.0
H116 H 0.86517 0.0164 0.22549 0.0
C117 C 0.47602 0.70917 0.43776 0.0
C118 C 0.49681 0.69909 0.43818 0.0
C119 C 0.47195 0.72754 0.3949 0.0
C120 C 0.48841 0.73635 0.35028 0.0
C121 C 0.5096 0.72733 0.35406 0.0
C122 C 0.51376 0.70895 0.39754 0.0
C123 C 0.48225 0.7519 0.29172 0.0
C124 C 0.49489 0.77063 0.27334 0.0
C125 C 0.48898 0.78355 0.21339 0.0
C126 C 0.47085 0.77743 0.17175 0.0
C127 C 0.45828 0.75908 0.1896 0.0
C128 C 0.46385 0.74661 0.2497 0.0
C129 C 0.44118 0.75095 0.1405 0.0
C130 C 0.41983 0.74684 0.16528 0.0
C131 C 0.44714 0.74434 0.07125 0.0
C132 C 0.43275 0.73181 0.03006 0.0
C133 C 0.41188 0.72592 0.05684 0.0
C134 C 0.50129 0.80334 0.19036 0.0
C135 C 0.49672 0.82376 0.22202 0.0
C136 C 0.51288 0.80283 0.12517 0.0
C137 C 0.51856 0.82232 0.08997 0.0
C138 C 0.51259 0.84285 0.1188 0.0
C139 C 0.50234 0.84332 0.18669 0.0
C140 C 0.40514 0.73479 0.12323 0.0
H141 H 0.4624 0.7022 0.46734 0.0
H142 H 0.45546 0.73416 0.39365 0.0
H143 H 0.52263 0.73362 0.32017 0.0
H144 H 0.53013 0.70207 0.39747 0.0
H145 H 0.50919 0.77499 0.30469 0.0
H146 H 0.45453 0.73182 0.261 0.0
H147 H 0.46661 0.78691 0.12457 0.0
H148 H 0.41487 0.75206 0.21847 0.0
H149 H 0.46361 0.74728 0.05131 0.0
H150 H 0.43893 0.72527 0.97998 0.0
H151 H 0.48738 0.82459 0.27148 0.0
H152 H 0.51611 0.78728 0.09885 0.0
H153 H 0.389 0.73134 0.14487 0.0
H154 H 0.49776 0.85881 0.21108 0.0
H155 H 0.52621 0.82118 0.03763 0.0
C156 C 0.24601 0.58424 0.35757 0.0
C157 C 0.22742 0.57541 0.3918 0.0
C158 C 0.25642 0.57252 0.30234 0.0
C159 C 0.24794 0.5522 0.27968 0.0
C160 C 0.22949 0.54342 0.31427 0.0
C161 C 0.2194 0.55484 0.36982 0.0
C162 C 0.25817 0.53965 0.22071 0.0
C163 C 0.28006 0.53311 0.22538 0.0
C164 C 0.28891 0.51805 0.17613 0.0
C165 C 0.27565 0.51004 0.11957 0.0
C166 C 0.2537 0.51732 0.11311 0.0
C167 C 0.24522 0.53196 0.16416 0.0
C168 C 0.23841 0.5094 0.05678 0.0
C169 C 0.23796 0.51958 0.98932 0.0
C170 C 0.22088 0.49565 0.07638 0.0
C171 C 0.20279 0.49292 0.03107 0.0
C172 C 0.20162 0.50404 0.96499 0.0
C173 C 0.31122 0.50955 0.19152 0.0
C174 C 0.32915 0.5241 0.19182 0.0
C175 C 0.31359 0.48892 0.22406 0.0
C176 C 0.33292 0.48362 0.26086 0.0
C177 C 0.35034 0.49878 0.26536 0.0
C178 C 0.34857 0.5187 0.22775 0.0
C179 C 0.21979 0.5169 0.94383 0.0
H180 H 0.25236 0.60015 0.37326 0.0
H181 H 0.27073 0.5795 0.27631 0.0
H182 H 0.22283 0.52766 0.29819 0.0
H183 H 0.20482 0.54783 0.39415 0.0
H184 H 0.28986 0.5386 0.27049 0.0
H185 H 0.22819 0.53705 0.16074 0.0
H186 H 0.28216 0.49809 0.08209 0.0
H187 H 0.25102 0.53068 0.97367 0.0
H188 H 0.22056 0.48809 0.12893 0.0
H189 H 0.18912 0.48313 0.05006 0.0
H190 H 0.32754 0.5403 0.16852 0.0
H191 H 0.29985 0.47762 0.22599 0.0
H192 H 0.21967 0.5255 0.89308 0.0
H193 H 0.36156 0.53083 0.23051 0.0
H194 H 0.33383 0.46805 0.28869 0.0
C195 C 0.98867 0.25666 0.4404 0.0
C196 C 1.00288 0.24089 0.46934 0.0
C197 C 0.99172 0.26409 0.37024 0.0
C198 C 1.00887 0.25565 0.32777 0.0
C199 C 0.02361 0.24064 0.3577 0.0
C200 C 0.02071 0.2334 0.42785 0.0
C201 C 0.0114 0.26246 0.25225 0.0
C202 C 0.01102 0.28464 0.23503 0.0
C203 C 0.0139 0.29177 0.16434 0.0
C204 C 0.01707 0.27606 0.109 0.0
C205 C 0.01741 0.2533 0.1259 0.0
C206 C 0.01455 0.24691 0.19785 0.0
C207 C 0.02066 0.23548 0.07133 0.0
C208 C 1.0069 0.23338 0.01128 0.0
C209 C 0.03545 0.21833 0.0859 0.0
C210 C 0.03563 0.19911 0.04466 0.0
C211 C 0.02113 0.19632 0.98666 0.0
C212 C 0.01448 0.31597 0.15463 0.0
C213 C 0.99558 0.32796 0.17317 0.0
C214 C 0.03484 0.32678 0.15609 0.0
C215 C 0.03654 0.34822 0.18349 0.0
C216 C 0.01794 0.35922 0.21111 0.0
C217 C 0.99727 0.34923 0.20142 0.0
C218 C 1.00712 0.21404 0.9695 0.0
H219 H 0.97474 0.26257 0.47103 0.0
H220 H 0.98018 0.27578 0.34823 0.0
H221 H 0.03716 0.23419 0.32635 0.0
H222 H 0.0317 0.22089 0.44797 0.0
H223 H 1.00908 0.29664 0.2777 0.0
H224 H 0.01438 0.22962 0.21166 0.0
H225 H 0.0195 0.28143 0.05422 0.0
H226 H 0.9952 0.24617 0.99885 0.0
H227 H 0.04629 0.21937 0.13172 0.0
H228 H 0.0465 0.18601 0.06089 0.0
H229 H 0.97972 0.3199 0.17412 0.0
H230 H 0.04973 0.31786 0.14335 0.0
H231 H 0.99594 0.21282 0.92467 0.0
H232 H 0.98248 0.35684 0.22182 0.0
H233 H 0.05269 0.35552 0.18753 0.0
C234 C 0.26437 0.08442 0.38944 0.0
C235 C 0.28477 0.09397 0.37243 0.0
C236 C 0.25084 0.07633 0.33521 0.0
C237 C 0.25692 0.07861 0.26267 0.0
C238 C 0.27491 0.09221 0.24617 0.0
C239 C 0.28891 0.09948 0.30031 0.0
C240 C 0.24741 0.06373 0.20706 0.0
C241 C 0.22605 0.05544 0.21402 0.0
C242 C 0.21886 0.03752 0.17277 0.0
C243 C 0.23304 0.0284 0.12036 0.0
C244 C 0.25399 0.0378 0.10862 0.0
C245 C 0.26097 0.05506 0.15293 0.0
C246 C 0.26985 0.02977 0.05347 0.0
C247 C 0.27968 1.009 0.05931 0.0
C248 C 0.27871 0.04485 1.00421 0.0
C249 C 0.29768 0.03988 0.96491 0.0
C250 C 0.30847 0.01964 0.97371 0.0
C251 C 0.19724 0.02782 0.19219 0.0
C252 C 0.19634 1.00767 0.22853 0.0
C253 C 0.17842 0.04116 0.19168 0.0
C254 C 0.1597 0.03531 0.2311 0.0
C255 C 0.15941 0.01606 0.27269 0.0
C256 C 0.17764 1.00186 0.26848 0.0
C257 C 0.29878 1.00399 0.01987 0.0
H258 H 0.25989 0.08104 0.44454 0.0
H259 H 0.23688 0.06646 0.35107 0.0
H260 H 0.27943 0.0955 0.19104 0.0
H261 H 0.30408 0.10731 0.28414 0.0
H262 H 0.21521 0.06214 0.25468 0.0
H263 H 0.27772 0.06079 0.14737 0.0
H264 H 0.22777 0.01443 0.08879 0.0
H265 H 0.27344 0.99719 0.09767 0.0
H266 H 0.27167 0.06111 0.99938 0.0
H267 H 0.30458 0.05253 0.93091 0.0
H268 H 0.21072 0.99725 0.23088 0.0
H269 H 0.17881 0.05696 0.16509 0.0
H270 H 0.30634 0.98808 0.02737 0.0
H271 H 0.17788 0.98674 0.29893 0.0
H272 H 0.14612 0.04675 0.23324 0.0
C273 C 0.49385 0.29718 0.02535 0.0
C274 C 0.50984 0.30677 0.98 0.0
C275 C 0.49887 0.27875 0.06781 0.0
C276 C 0.51995 0.26945 0.06562 0.0
C277 C 0.53534 0.27805 0.01684 0.0
C278 C 0.53044 0.29641 0.97503 0.0
C279 C 0.52778 0.25425 0.12275 0.0
C280 C 0.51852 0.23335 0.13625 0.0
C281 C 0.52813 0.21937 0.18803 0.0
C282 C 0.54658 0.22675 0.2264 0.0
C283 C 0.55518 0.24787 0.21645 0.0
C284 C 0.54553 0.26139 0.16451 0.0
C285 C 0.57308 0.25657 0.26334 0.0
C286 C 0.57495 0.24991 0.33529 0.0
C287 C 0.58719 0.27319 0.23859 0.0
C288 C 0.60024 0.28501 0.28629 0.0
C289 C 0.60036 0.27998 0.36015 0.0
C290 C 0.51925 0.19722 0.20649 0.0
C291 C 0.49759 0.19459 0.23101 0.0
C292 C 0.53383 0.17949 0.21343 0.0
C293 C 0.52764 0.16042 0.2498 0.0
C294 C 0.50646 0.15822 0.27952 0.0
C295 C 0.49123 0.17527 0.26688 0.0
C296 C 0.58884 0.26107 0.38243 0.0
H297 H 0.47764 0.3043 0.02987 0.0
H298 H 0.48674 0.27263 0.1054 0.0
H299 H 0.5518 0.27133 0.01435 0.0
H300 H 0.54342 0.3032 0.94206 0.0
H301 H 0.50447 0.22781 0.10568 0.0
H302 H 0.5514 0.27803 0.15721 0.0
H303 H 0.55397 0.21598 0.26561 0.0
H304 H 0.56476 0.23698 0.35707 0.0
H305 H 0.5873 0.27805 0.18279 0.0
H306 H 0.60887 0.29903 0.26477 0.0
H307 H 0.48599 0.20798 0.22674 0.0
H308 H 0.55064 0.18099 0.1949 0.0
H309 H 0.58933 0.25548 0.43734 0.0
H310 H 0.47459 0.17411 0.28699 0.0
H311 H 0.54008 0.14805 0.25836 0.0
La312 La 0.02358 0.99208 0.78285 0.0
La313 La 0.99476 1.00568 0.66927 0.0
C314 C 0.04255 0.97248 0.88373 0.0
C315 C 0.05777 0.95389 0.88384 0.0
C316 C 0.06839 0.94745 0.8203 0.0
C317 C 0.0821 0.92909 0.81965 0.0
C318 C 0.08525 0.91676 0.88243 0.0
C319 C 0.07483 0.92361 0.94624 0.0
C320 C 0.06124 0.94205 0.94688 0.0
C321 C 0.04499 1.00662 0.66795 0.0
C322 C 1.00628 0.9563 0.6675 0.0
C323 C 0.97824 0.02805 0.57078 0.0
C324 C 0.98085 0.05191 0.56221 0.0
C325 C 0.9623 0.0655 0.56103 0.0
C326 C 0.96449 0.08812 0.57168 0.0
C327 C 0.98527 0.09747 0.58443 0.0
C328 C 1.00388 0.08388 0.58176 0.0
C329 C 1.00172 0.06143 0.57028 0.0
C330 C 0.97368 0.99011 0.78263 0.0
C331 C 0.01195 0.04099 0.78274 0.0
O332 O 0.05008 0.99034 0.85379 0.0
O333 O 0.02252 0.96798 0.86332 0.0
O334 O 0.05109 1.00962 0.73342 0.0
O335 O 0.02803 0.99482 0.66866 0.0
O336 O 0.01576 0.96027 0.73029 0.0
O337 O 0.99796 0.97244 0.62911 0.0
O338 O 0.96733 0.02227 0.62817 0.0
O339 O 0.99605 0.01631 0.56228 0.0
O340 O 0.96821 0.9864 0.71658 0.0
O341 O 0.99021 1.00265 0.78342 0.0
O342 O 1.00659 0.03706 0.71527 0.0
O343 O 0.01596 0.02442 0.82608 0.0
H344 H 0.06582 0.95645 0.77096 0.0
H345 H 0.08995 0.92437 0.7698 0.0
H346 H 0.07644 0.91424 0.99523 0.0
H347 H 0.05305 0.94676 0.9962 0.0
H348 H 0.94604 0.05847 0.55553 0.0
H349 H 0.94985 0.09818 0.57143 0.0
H350 H 0.02012 0.09032 0.5924 0.0
H351 H 0.01637 0.0514 0.57264 0.0
La352 La 0.51304 0.01582 0.77229 0.0
La353 La 0.49642 0.99103 0.64967 0.0
C354 C 0.53373 0.03072 0.87823 0.0
C355 C 0.55351 0.04454 0.88401 0.0
C356 C 0.55288 0.06378 0.92542 0.0
C357 C 0.57112 0.07771 0.92836 0.0
C358 C 0.59037 0.07259 0.88999 0.0
C359 C 0.59086 0.05332 0.8483 0.0
C360 C 0.57262 0.03951 0.84512 0.0
C361 C 0.49983 0.04099 0.66429 0.0
C362 C 0.5469 0.99817 0.65206 0.0
C363 C 0.47341 0.98145 0.54297 0.0
C364 C 0.45381 0.99358 0.51812 0.0
C365 C 0.43298 0.98856 0.54617 0.0
C366 C 0.41562 1.00331 0.53847 0.0
C367 C 0.41875 0.02339 0.50269 0.0
C368 C 0.43909 0.02757 0.46972 0.0
C369 C 0.45635 0.01271 0.4767 0.0
C370 C 0.51038 0.96587 0.75566 0.0
C371 C 0.46343 1.00861 0.76785 0.0
O372 O 0.51669 0.04042 0.85027 0.0
O373 O 0.53638 0.01077 0.85317 0.0
O374 O 0.4982 0.04614 0.73124 0.0
O375 O 0.50997 0.02308 0.66001 0.0
O376 O 0.54391 1.00658 0.71706 0.0
O377 O 0.53012 0.99208 0.61203 0.0
O378 O 0.47151 0.97144 0.60476 0.0
O379 O 0.49195 0.99219 0.53838 0.0
O380 O 0.51194 0.96093 0.68817 0.0
O381 O 0.49977 0.98355 0.76179 0.0
O382 O 0.46702 1.00636 0.69822 0.0
O383 O 0.48023 1.00865 0.81227 0.0
H384 H 0.53819 0.06812 0.95511 0.0
H385 H 0.57014 0.09248 0.9606 0.0
H386 H 0.60554 0.04856 0.81932 0.0
H387 H 0.57355 0.02488 0.81228 0.0
H388 H 0.43038 0.97384 0.57761 0.0
H389 H 0.39992 0.99927 0.56249 0.0
H390 H 0.44206 0.0428 0.44141 0.0
H391 H 0.47207 0.01693 0.45322 0.0
La392 La 0.4874 0.50853 0.76435 0.0
La393 La 0.51824 0.4976 0.65632 0.0
C394 C 0.46501 0.52512 0.86474 0.0
C395 C 0.44947 0.54333 0.87272 0.0
C396 C 0.43405 0.54273 0.92846 0.0
C397 C 0.41989 0.56042 0.93962 0.0
C398 C 0.42104 0.57907 0.89532 0.0
C399 C 0.43586 0.57912 0.83731 0.0
C400 C 0.44993 0.56135 0.82599 0.0
C401 C 0.4687 0.49365 0.64473 0.0
C402 C 0.50285 0.54559 0.65398 0.0
C403 C 0.54144 0.47999 0.55985 0.0
C404 C 0.55581 0.46072 0.56085 0.0
C405 C 0.56749 0.4546 0.49923 0.0
C406 C 0.58015 0.43545 0.49922 0.0
C407 C 0.58103 0.42215 0.56067 0.0
C408 C 0.56995 0.42881 0.6231 0.0
C409 C 0.55759 0.44806 0.62336 0.0
C410 C 0.53677 0.51286 0.77554 0.0
C411 C 0.5026 0.46055 0.76594 0.0
O412 O 0.45834 0.50877 0.82516 0.0
O413 O 0.48542 0.53039 0.85121 0.0
O414 O 0.46261 0.48876 0.70901 0.0
O415 O 0.48455 0.50684 0.64879 0.0
O416 O 0.49571 0.54129 0.71967 0.0
O417 O 0.5093 0.52934 0.61218 0.0
O418 O 0.54797 0.4964 0.59934 0.0
O419 O 0.52053 0.47597 0.56874 0.0
O420 O 0.54256 0.51796 0.71115 0.0
O421 O 0.52117 0.49934 0.77183 0.0
O422 O 0.50922 0.46487 0.69982 0.0
O423 O 0.49666 0.47684 0.80818 0.0
H424 H 0.43327 0.52878 0.96436 0.0
H425 H 0.40846 0.55977 0.98415 0.0
H426 H 0.43734 0.59331 0.80271 0.0
H427 H 0.46155 0.56197 0.78201 0.0
H428 H 0.56639 0.4643 0.45075 0.0
H429 H 0.58834 0.43048 0.45019 0.0
H430 H 0.57043 0.41882 0.67109 0.0
H431 H 0.54905 0.4528 0.67192 0.0
La432 La 1.00219 0.48987 0.73148 0.0
La433 La 0.01319 0.5221 0.6277 0.0
C434 C 0.98402 0.46682 0.82674 0.0
C435 C 0.96427 0.45308 0.82572 0.0
C436 C 0.95529 0.44605 0.76035 0.0
C437 C 0.93554 0.4344 0.75932 0.0
C438 C 0.92435 0.42976 0.82362 0.0
C439 C 0.93379 0.43645 0.88903 0.0
C440 C 0.9536 0.44797 0.88998 0.0
C441 C 0.01718 0.47245 0.60983 0.0
C442 C 0.96516 0.50636 0.62386 0.0
C443 C 0.03083 0.54569 0.53286 0.0
C444 C 0.04927 0.56115 0.53503 0.0
C445 C 0.05538 0.57133 0.59961 0.0
C446 C 0.07409 0.5846 0.60245 0.0
C447 C 0.08716 0.58768 0.54095 0.0
C448 C 0.08052 0.57784 0.47602 0.0
C449 C 0.06173 0.56476 0.47315 0.0
C450 C 0.99833 0.53939 0.74978 0.0
C451 C 0.05034 0.50521 0.73581 0.0
O452 O 1.00025 0.45998 0.78677 0.0
O453 O 0.98059 0.48787 0.81928 0.0
O454 O 0.02162 0.46548 0.67343 0.0
O455 O 1.00415 0.48842 0.61549 0.0
O456 O 0.96956 0.49846 0.6882 0.0
O457 O 0.98133 0.51354 0.5829 0.0
O458 O 0.01344 0.55146 0.56929 0.0
O459 O 0.03593 0.52509 0.54325 0.0
O460 O 0.99362 0.54631 0.68636 0.0
O461 O 0.01146 0.52354 0.74343 0.0
O462 O 0.04595 0.51405 0.67255 0.0
O463 O 0.03424 0.49736 0.7756 0.0
H464 H 0.96333 0.44998 0.71006 0.0
H465 H 0.92884 0.42938 0.70813 0.0
H466 H 0.92543 0.43363 0.93951 0.0
H467 H 0.96025 0.45345 0.94078 0.0
H468 H 0.04598 0.56859 0.64821 0.0
H469 H 0.07858 0.59201 0.65314 0.0
H470 H 0.09039 0.5793 0.4279 0.0
H471 H 0.05733 0.55687 0.42309 0.0
H472 H 0.16319 1.00147 0.41077 0.0
H473 H 0.11484 0.02265 0.25698 0.0
H474 H 0.13478 0.99886 0.5024 0.0
H475 H 0.08635 0.02048 0.34969 0.0
H476 H 0.03872 0.99363 0.52815 0.0
H477 H 0.06552 0.9947 0.42957 0.0
H478 H 0.11262 0.02533 0.57049 0.0
H479 H 0.08601 0.02422 0.66823 0.0
C480 C 0.14644 1.00524 0.39603 0.0
C481 C 0.14139 0.01226 0.32614 0.0
C482 C 0.13015 1.00404 0.44903 0.0
C483 C 0.10827 1.00972 0.43382 0.0
C484 C 0.103 0.01595 0.36332 0.0
C485 C 0.11938 0.01732 0.31026 0.0
C486 C 0.05475 1.00074 0.53769 0.0
C487 C 0.06029 1.00872 0.6061 0.0
C488 C 0.0701 1.00138 0.48124 0.0
C489 C 0.09136 1.00984 0.49224 0.0
C490 C 0.09659 0.01829 0.56034 0.0
C491 C 0.08126 0.0178 0.61634 0.0
H492 H 0.52238 0.1157 0.27453 0.0
H493 H 0.47869 0.15728 0.39708 0.0
H494 H 0.51914 0.08746 0.36469 0.0
H495 H 0.4735 0.12806 0.48331 0.0
H496 H 0.49063 0.08468 0.67391 0.0
H497 H 0.48983 0.11164 0.57829 0.0
H498 H 0.50137 0.06003 0.42289 0.0
H499 H 0.50411 0.03355 0.52013 0.0
C500 C 0.51184 0.11884 0.3202 0.0
C501 C 0.50124 0.13926 0.32845 0.0
C502 C 0.50962 0.10228 0.37183 0.0
C503 C 0.49626 0.10527 0.43289 0.0
C504 C 0.48451 0.12514 0.43868 0.0
C505 C 0.48713 0.14191 0.38784 0.0
C506 C 0.49294 0.07912 0.61922 0.0
C507 C 0.49744 0.05695 0.60465 0.0
C508 C 0.49225 0.09461 0.5638 0.0
C509 C 0.49554 0.08833 0.49169 0.0
C510 C 0.49925 0.06586 0.47728 0.0
C511 C 0.50051 0.05049 0.53307 0.0
H512 H 0.34853 0.48396 0.40316 0.0
H513 H 0.39445 0.50585 0.24188 0.0
H514 H 0.37808 0.48125 0.48959 0.0
H515 H 0.42446 0.50233 0.32772 0.0
H516 H 0.4678 0.51896 0.52332 0.0
H517 H 0.44025 0.51854 0.42865 0.0
H518 H 0.40878 0.46283 0.52954 0.0
H519 H 0.43568 0.4642 0.62581 0.0
C520 C 0.36509 0.48767 0.38561 0.0
C521 C 0.36909 0.49503 0.31537 0.0
C522 C 0.38217 0.48607 0.43535 0.0
C523 C 0.40392 0.49151 0.41628 0.0
C524 C 0.40798 0.49835 0.34525 0.0
C525 C 0.39078 0.50024 0.29567 0.0
C526 C 0.45508 0.50652 0.52472 0.0
C527 C 0.45379 0.49172 0.58229 0.0
C528 C 0.43927 0.50617 0.47013 0.0
C529 C 0.42192 0.49079 0.47117 0.0
C530 C 0.4214 0.47534 0.52738 0.0
C531 C 0.43698 0.47594 0.58242 0.0
H532 H 0.98908 0.39405 0.22951 0.0
H533 H 0.05186 0.3699 0.30214 0.0
H534 H 0.99016 0.42252 0.32107 0.0
H535 H 0.05371 0.3993 0.38922 0.0
H536 H 0.03691 0.43256 0.60097 0.0
H537 H 0.03828 0.40756 0.49974 0.0
H538 H 1.00467 0.45539 0.36904 0.0
H539 H 1.00255 0.48018 0.47254 0.0
C540 C 1.00328 0.3949 0.26408 0.0
C541 C 0.02023 0.37922 0.25818 0.0
C542 C 1.00404 0.41154 0.31633 0.0
C543 C 0.02187 0.4132 0.36398 0.0
C544 C 0.03939 0.39835 0.35514 0.0
C545 C 0.03851 0.38159 0.30366 0.0
C546 C 0.02993 0.43784 0.55052 0.0
C547 C 0.01955 0.45835 0.54501 0.0
C548 C 0.03087 0.42351 0.49187 0.0
C549 C 0.02168 0.42929 0.42529 0.0
C550 C 0.0117 0.45012 0.41937 0.0
C551 C 0.01062 0.46445 0.47855 0.0
H552 H 0.88158 0.02578 0.11379 0.0
H553 H 0.86539 0.95764 0.07666 0.0
H554 H 0.91278 0.02255 0.033 0.0
H555 H 0.89666 0.95448 0.99505 0.0
H556 H 0.97667 1.00729 0.91831 0.0
H557 H 0.9487 1.00653 0.01282 0.0
H558 H 0.90682 0.96734 0.87669 0.0
H559 H 0.93487 0.96786 0.78315 0.0
C560 C 0.8849 0.00993 0.08973 0.0
C561 C 0.87081 0.99197 0.10218 0.0
C562 C 0.90287 1.0081 0.04304 0.0
C563 C 0.9073 0.98827 1.00705 0.0
C564 C 0.89359 0.97012 0.02088 0.0
C565 C 0.87562 0.97193 0.0678 0.0
C566 C 0.9616 0.99827 0.90908 0.0
C567 C 0.95793 0.98774 0.8431 0.0
C568 C 0.94548 0.99796 0.96304 0.0
C569 C 0.92535 0.987 0.95245 0.0
C570 C 0.92213 0.97576 0.8873 0.0
C571 C 0.93819 0.97615 0.83338 0.0
H572 H 0.54676 0.85488 0.02987 0.0
H573 H 0.48352 0.87699 0.10606 0.0
H574 H 0.54836 0.88593 0.94745 0.0
H575 H 0.48512 0.90794 0.02389 0.0
H576 H 0.52811 0.92496 0.74547 0.0
H577 H 0.53056 0.89698 0.83837 0.0
H578 H 0.5025 0.94224 0.99184 0.0
H579 H 0.4997 0.97014 0.89796 0.0
C580 C 0.53323 0.8664 0.02941 0.0
C581 C 0.51498 0.86328 0.07473 0.0
C582 C 0.53413 0.88422 0.98194 0.0
C583 C 0.51679 0.89945 0.97834 0.0
C584 C 0.49893 0.89678 0.02559 0.0
C585 C 0.49803 0.87897 0.07303 0.0
C586 C 0.52262 0.929 0.7992 0.0
C587 C 0.51356 0.94971 0.81422 0.0
C588 C 0.52416 0.91298 0.85275 0.0
C589 C 0.51667 0.91723 0.92291 0.0
C590 C 0.50815 0.93823 0.93831 0.0
C591 C 0.50665 0.95429 0.88463 0.0
H592 H 0.61537 0.50286 0.1706 0.0
H593 H 0.65938 0.52143 0.99931 0.0
H594 H 0.58419 0.50629 0.08915 0.0
H595 H 0.62858 0.5244 0.91792 0.0
H596 H 0.56954 0.54263 0.7912 0.0
H597 H 0.59746 0.54419 0.88423 0.0
H598 H 0.56715 0.48874 0.99005 0.0
H599 H 0.53864 0.48792 0.89804 0.0
C600 C 0.61839 0.50777 0.11567 0.0
C601 C 0.63993 0.51201 0.09183 0.0
C602 C 0.60051 0.50963 0.06874 0.0
C603 C 0.60369 0.51564 0.9965 0.0
C604 C 0.62524 0.52022 0.97328 0.0
C605 C 0.64303 0.51852 0.0202 0.0
C606 C 0.56868 0.53098 0.83497 0.0
C607 C 0.55199 0.51509 0.83709 0.0
C608 C 0.58483 0.53172 0.88812 0.0
C609 C 0.58494 0.51635 0.9445 0.0
C610 C 0.56763 0.50098 0.94806 0.0
C611 C 0.55128 0.50043 0.89514 0.0
H612 H 0.0358 0.627 0.09194 0.0
H613 H 0.96628 0.6395 0.07342 0.0
H614 H 0.03272 0.59722 1.00568 0.0
H615 H 0.96325 0.60967 0.9864 0.0
H616 H 0.01883 0.53485 0.87995 0.0
H617 H 0.0186 0.56081 0.98045 0.0
H618 H 0.97405 0.60265 0.86385 0.0
H619 H 0.97408 0.5766 0.76454 0.0
C620 C 0.01972 0.62313 0.07081 0.0
C621 C 1.00129 0.63582 0.09013 0.0
C622 C 0.01797 0.60598 0.02095 0.0
C623 C 0.99775 0.60098 0.98852 0.0
C624 C 0.97917 0.61323 0.00927 0.0
C625 C 0.98091 0.63038 0.05933 0.0
C626 C 1.00877 0.54945 0.87638 0.0
C627 C 0.99655 0.55372 0.81416 0.0
C628 C 1.00875 0.56444 0.93374 0.0
C629 C 0.9964 0.58398 0.93041 0.0
C630 C 0.98357 0.58774 0.869 0.0
C631 C 0.98368 0.57283 0.81172 0.0
H632 H 0.96287 0.22483 0.50722 0.0
H633 H 0.02997 0.22915 0.57981 0.0
H634 H 0.95763 0.1919 0.57773 0.0
H635 H 0.02466 0.19595 0.65082 0.0
H636 H 0.01864 0.12479 0.54416 0.0
H637 H 0.02184 0.16373 0.56402 0.0
H638 H 0.96033 0.1638 0.6797 0.0
H639 H 0.95754 0.12401 0.66301 0.0
C640 C 0.97613 0.21954 0.54167 0.0
C641 C 0.99713 0.22892 0.53572 0.0
C642 C 0.97308 0.2006 0.58244 0.0
C643 C 0.99104 0.19094 0.61718 0.0
C644 C 0.01073 0.20285 0.62286 0.0
C645 C 0.01379 0.22178 0.58202 0.0
C646 C 1.00612 0.13277 0.57617 0.0
C647 C 0.98769 0.12119 0.60114 0.0
C648 C 1.00805 0.1552 0.58808 0.0
C649 C 0.99142 0.16679 0.62414 0.0
C650 C 0.97342 0.1552 0.65208 0.0
C651 C 0.97165 0.13253 0.6412 0.0
H652 H 0.29081 0.06406 0.4806 0.0
H653 H 0.32164 0.12068 0.38226 0.0
H654 H 0.32524 0.05369 0.53225 0.0
H655 H 0.35679 0.10923 0.43207 0.0
H656 H 0.40698 0.04992 0.39101 0.0
H657 H 0.37603 0.07497 0.38524 0.0
H658 H 0.35919 0.05963 0.60462 0.0
H659 H 0.39059 0.03483 0.61119 0.0
C660 C 0.30458 0.07497 0.47209 0.0
C661 C 0.30334 0.09287 0.4244 0.0
C662 C 0.32456 0.06883 0.50194 0.0
C663 C 0.3438 0.08027 0.4844 0.0
C664 C 0.34221 0.09982 0.44494 0.0
C665 C 0.32206 0.10625 0.41602 0.0
C666 C 0.39707 0.0523 0.43869 0.0
C667 C 0.40101 0.04004 0.50107 0.0
C668 C 0.37941 0.0668 0.43556 0.0
C669 C 0.36522 0.06928 0.49457 0.0
C670 C 0.36983 0.05796 0.55828 0.0
C671 C 0.38761 0.04355 0.56161 0.0
H672 H 0.58995 0.2842 0.50523 0.0
H673 H 0.6312 0.31351 0.34146 0.0
H674 H 0.59402 0.31639 0.57736 0.0
H675 H 0.63195 0.34712 0.40886 0.0
H676 H 0.62233 0.41086 0.51486 0.0
H677 H 0.63606 0.37382 0.49191 0.0
H678 H 0.57426 0.34729 0.56864 0.0
H679 H 0.56169 0.38381 0.59565 0.0
C680 C 0.60005 0.29721 0.48377 0.0
C681 C 0.60883 0.29639 0.4137 0.0
C682 C 0.60199 0.31614 0.5254 0.0
C683 C 0.61178 0.33516 0.49705 0.0
C684 C 0.62352 0.33322 0.43227 0.0
C685 C 0.62254 0.31386 0.39211 0.0
C686 C 0.61208 0.3969 0.52832 0.0
C687 C 0.59095 0.40008 0.55656 0.0
C688 C 0.61983 0.37566 0.51478 0.0
C689 C 0.60629 0.35724 0.5272 0.0
C690 C 0.58559 0.36068 0.5594 0.0
C691 C 0.57815 0.38178 0.57447 0.0
H692 H 0.21271 0.56109 0.52103 0.0
H693 H 0.213 0.61781 0.38298 0.0
H694 H 0.18082 0.57498 0.58296 0.0
H695 H 0.18153 0.63273 0.44795 0.0
H696 H 0.10697 0.61398 0.44058 0.0
H697 H 0.14584 0.62104 0.43045 0.0
H698 H 0.15553 0.59569 0.64455 0.0
H699 H 0.11682 0.58667 0.6517 0.0
C700 C 0.20647 0.57711 0.50623 0.0
C701 C 0.2147 0.58797 0.44561 0.0
C702 C 0.18818 0.5853 0.54227 0.0
C703 C 0.17786 0.60465 0.51863 0.0
C704 C 0.1885 0.61734 0.46575 0.0
C705 C 0.20671 0.60895 0.42898 0.0
C706 C 0.11735 0.61012 0.48588 0.0
C707 C 0.1089 0.59874 0.54533 0.0
C708 C 0.13975 0.61459 0.48075 0.0
C709 C 0.15417 0.60812 0.53566 0.0
C710 C 0.14509 0.60008 0.59997 0.0
C711 C 0.12273 0.59512 0.60441 0.0
H712 H 0.07327 0.78753 0.92059 0.0
H713 H 0.13572 0.79319 0.02875 0.0
H714 H 0.07993 0.82159 0.86003 0.0
H715 H 0.14232 0.82803 0.96763 0.0
H716 H 0.11284 0.90001 0.98427 0.0
H717 H 0.12406 0.862 0.99606 0.0
H718 H 0.09774 0.84784 0.78605 0.0
H719 H 0.08522 0.88558 0.77631 0.0
C720 C 0.08895 0.79547 0.92921 0.0
C721 C 0.10368 0.78778 0.98134 0.0
C722 C 0.0928 0.81524 0.89404 0.0
C723 C 0.11144 0.8279 0.91022 0.0
C724 C 0.12753 0.81891 0.9554 0.0
C725 C 0.1237 0.79898 0.99055 0.0
C726 C 0.10973 0.88886 0.94014 0.0
C727 C 0.09744 0.89566 0.88059 0.0
C728 C 0.11654 0.86709 0.94628 0.0
C729 C 0.11133 0.85169 0.89264 0.0
C730 C 0.10155 0.85919 0.82904 0.0
C731 C 0.09451 0.88092 0.82326 0.0
H732 H 0.70954 0.12889 0.06077 0.0
H733 H 0.72009 0.0707 0.93157 0.0
H734 H 0.6738 0.13376 1.00425 0.0
H735 H 0.68543 0.07638 0.87364 0.0
H736 H 0.60613 0.09222 0.01133 0.0
H737 H 0.64267 0.10697 0.02976 0.0
H738 H 0.6574 0.09788 0.8051 0.0
H739 H 0.62043 0.08351 0.78594 0.0
C740 C 0.70469 0.11752 0.01906 0.0
C741 C 0.71752 0.0989 1.00312 0.0
C742 C 0.68428 0.12048 0.98628 0.0
C743 C 0.67666 0.10521 0.93564 0.0
C744 C 0.69084 0.0885 0.91234 0.0
C745 C 0.71095 0.08529 0.94592 0.0
C746 C 0.61676 0.09417 0.96514 0.0
C747 C 0.61053 0.08615 0.8975 0.0
C748 C 0.63775 0.10275 0.9757 0.0
C749 C 0.65298 0.10333 0.91898 0.0
C750 C 0.64605 0.09738 0.84989 0.0
C751 C 0.62497 0.08895 0.83918 0.0
H752 H 0.40987 0.71438 0.91334 0.0
H753 H 0.38533 0.69508 0.12196 0.0
H754 H 0.40307 0.67763 0.8691 0.0
H755 H 0.37616 0.65936 0.07516 0.0
H756 H 0.41565 0.59629 0.02839 0.0
H757 H 0.40249 0.63226 0.05981 0.0
H758 H 0.38585 0.64446 0.83806 0.0
H759 H 0.39969 0.60802 0.8063 0.0
C760 C 0.4024 0.7026 0.94935 0.0
C761 C 0.39949 0.70751 0.02258 0.0
C762 C 0.39807 0.68151 0.92339 0.0
C763 C 0.39004 0.66513 0.96966 0.0
C764 C 0.38334 0.67128 0.03899 0.0
C765 C 0.38832 0.69211 0.06561 0.0
C766 C 0.40853 0.60628 0.9865 0.0
C767 C 0.40893 0.59935 0.91475 0.0
C768 C 0.4008 0.62705 1.00459 0.0
C769 C 0.39312 0.64151 0.95147 0.0
C770 C 0.39198 0.63394 0.88022 0.0
C771 C 0.3999 0.61309 0.86199 0.0
H772 H 0.79542 0.4501 0.89411 0.0
H773 H 0.79851 0.3837 0.97493 0.0
H774 H 0.82881 0.44434 0.82779 0.0
H775 H 0.83244 0.37782 0.90734 0.0
H776 H 0.89119 0.43764 0.72808 0.0
H777 H 0.85263 0.42839 0.7424 0.0
H778 H 0.86797 0.39207 0.93474 0.0
H779 H 0.90664 0.40001 0.91754 0.0
C780 C 0.80267 0.43388 0.89532 0.0
C781 C 0.79445 0.4175 0.94117 0.0
C782 C 0.822 0.43054 0.85687 0.0
C783 C 0.83364 0.41073 0.86324 0.0
C784 C 0.82414 0.39346 0.90266 0.0
C785 C 0.80471 0.39683 0.94137 0.0
C786 C 0.8865 0.42692 0.77176 0.0
C787 C 0.90196 0.42007 0.82289 0.0
C788 C 0.8643 0.42178 0.78035 0.0
C789 C 0.85707 0.41001 0.8408 0.0
C790 C 0.87284 0.4012 0.88753 0.0
C791 C 0.89505 0.40609 0.87841 0.0
H792 H 0.98492 0.17551 0.9279 0.0
H793 H 0.05478 0.16729 0.95661 0.0
H794 H 0.98277 0.13882 0.87533 0.0
H795 H 0.05237 0.13047 0.90645 0.0
H796 H 0.03456 0.05669 0.89891 0.0
H797 H 0.03685 0.09451 0.94245 0.0
H798 H 0.99417 0.11554 0.77171 0.0
H799 H 0.99168 0.07758 0.72879 0.0
C800 C 0.99991 0.16612 0.92231 0.0
C801 C 0.02 0.17459 0.94774 0.0
C802 C 0.99862 0.14494 0.89234 0.0
C803 C 0.01733 0.13144 0.88752 0.0
C804 C 0.03751 0.14013 0.91073 0.0
C805 C 0.03885 0.16135 0.93982 0.0
C806 C 0.02566 0.06936 0.8706 0.0
C807 C 0.01315 0.06408 0.80971 0.0
C808 C 0.0271 0.09113 0.89526 0.0
C809 C 0.01583 0.10823 0.86039 0.0
C810 C 1.00305 0.10287 0.80004 0.0
C811 C 1.00181 0.08112 0.77491 0.0
H812 H 0.32309 0.03294 0.84034 0.0
H813 H 0.34428 0.99797 0.02907 0.0
H814 H 0.36001 0.03049 0.79084 0.0
H815 H 0.38086 0.99441 0.97777 0.0
H816 H 0.45002 0.01359 0.9075 0.0
H817 H 0.4127 0.01529 0.95425 0.0
H818 H 0.38735 1.00794 0.73939 0.0
H819 H 0.42476 1.00699 0.6927 0.0
C820 C 0.33554 0.02456 0.87122 0.0
C821 C 0.3305 0.01581 0.93926 0.0
C822 C 0.35678 0.02292 0.84228 0.0
C823 C 0.37371 0.01239 0.88024 0.0
C824 C 0.3685 1.00303 0.94725 0.0
C825 C 0.34728 1.00475 0.97631 0.0
C826 C 0.4365 0.01241 0.87011 0.0
C827 C 0.44051 0.01013 0.79616 0.0
C828 C 0.41499 0.01318 0.89707 0.0
C829 C 0.39675 0.01159 0.85099 0.0
C830 C 0.40081 1.00945 0.77683 0.0
C831 C 0.42236 1.00878 0.74988 0.0
H832 H 0.48484 0.34203 0.02498 0.0
H833 H 0.52624 0.32094 0.84948 0.0
H834 H 0.48141 0.37793 0.97009 0.0
H835 H 0.52442 0.35739 0.79796 0.0
H836 H 0.50619 0.42181 0.69072 0.0
H837 H 0.50554 0.38445 0.73777 0.0
H838 H 0.50014 0.41031 0.95318 0.0
H839 H 0.4996 0.44737 0.90558 0.0
C840 C 0.49313 0.34488 0.97443 0.0
C841 C 0.50599 0.32831 0.94249 0.0
C842 C 0.49151 0.3658 0.9434 0.0
C843 C 0.50295 0.37104 0.87979 0.0
C844 C 0.51521 0.35424 0.84658 0.0
C845 C 0.51655 0.33323 0.87703 0.0
C846 C 0.50477 0.41946 0.7481 0.0
C847 C 0.50282 0.43765 0.7942 0.0
C848 C 0.50453 0.39796 0.77538 0.0
C849 C 0.50268 0.39401 0.84975 0.0
C850 C 0.50101 0.41236 0.89562 0.0
C851 C 0.5009 0.43378 0.86827 0.0
H852 H 0.17366 0.46915 0.94219 0.0
H853 H 0.18212 0.53771 0.89002 0.0
H854 H 0.13811 0.46924 0.88278 0.0
H855 H 0.1466 0.5377 0.82999 0.0
H856 H 0.08754 0.52476 0.67987 0.0
H857 H 0.12486 0.52395 0.7285 0.0
H858 H 0.10201 0.48435 0.90553 0.0
H859 H 0.06506 0.48495 0.85692 0.0
C860 C 0.16801 0.48426 0.91802 0.0
C861 C 0.18087 0.50345 0.92168 0.0
C862 C 0.14754 0.48431 0.88386 0.0
C863 C 0.13926 0.50354 0.85206 0.0
C864 C 0.15245 0.52253 0.85326 0.0
C865 C 0.17293 0.5225 0.88767 0.0
C866 C 0.09052 0.51582 0.72902 0.0
C867 C 0.07321 0.50489 0.76428 0.0
C868 C 0.11192 0.51544 0.75714 0.0
C869 C 0.11659 0.50396 0.82088 0.0
C870 C 0.09923 0.49304 0.85579 0.0
C871 C 0.0779 0.49353 0.82806 0.0
H872 H 0.03555 0.81945 0.56125 0.0
H873 H 0.98531 0.83744 0.40944 0.0
H874 H 0.03297 0.85542 0.61626 0.0
H875 H 0.98139 0.87281 0.46839 0.0
H876 H 0.99721 0.94343 0.53005 0.0
H877 H 0.99798 0.9067 0.47948 0.0
H878 H 0.01452 0.88036 0.68754 0.0
H879 H 0.01482 0.91744 0.7371 0.0
C880 C 0.02378 0.83096 0.53969 0.0
C881 C 0.0109 0.82535 0.47967 0.0
C882 C 0.02204 0.85166 0.57231 0.0
C883 C 1.00709 0.86745 0.54691 0.0
C884 C 0.99351 0.86148 0.4889 0.0
C885 C 0.99547 0.84086 0.45563 0.0
C886 C 1.00096 0.92981 0.56519 0.0
C887 C 1.00597 0.93351 0.6378 0.0
C888 C 1.00123 0.90856 0.53617 0.0
C889 C 1.00622 0.89018 0.57898 0.0
C890 C 0.01095 0.89392 0.65206 0.0
C891 C 0.01098 0.91527 0.68087 0.0
H892 H 0.68561 0.97502 0.53361 0.0
H893 H 0.66306 0.02972 0.40724 0.0
H894 H 0.64884 0.97177 0.58818 0.0
H895 H 0.62649 0.02622 0.46016 0.0
H896 H 0.55859 0.99656 0.51064 0.0
H897 H 0.59545 0.99685 0.45883 0.0
H898 H 0.62342 0.99723 0.67096 0.0
H899 H 0.5864 0.99725 0.72325 0.0
C900 C 0.67277 0.98621 0.51721 0.0
C901 C 0.67721 1.00267 0.46639 0.0
C902 C 0.6518 0.98444 0.54863 0.0
C903 C 0.63476 0.99873 0.52838 0.0
C904 C 0.6392 0.01489 0.4766 0.0
C905 C 0.66017 0.01695 0.44653 0.0
C906 C 0.57255 0.99655 0.54644 0.0
C907 C 0.56948 0.99701 0.62123 0.0
C908 C 0.59369 0.9968 0.51664 0.0
C909 C 0.61236 0.99709 0.56075 0.0
C910 C 0.60936 0.99689 0.63558 0.0
C911 C 0.58815 0.99706 0.66549 0.0
H912 H 0.52311 0.66426 0.39859 0.0
H913 H 0.47776 0.68458 0.56439 0.0
H914 H 0.52604 0.62841 0.45418 0.0
H915 H 0.47931 0.64814 0.61665 0.0
H916 H 0.49783 0.58431 0.72846 0.0
H917 H 0.49841 0.62166 0.68115 0.0
H918 H 0.5069 0.59578 0.46687 0.0
H919 H 0.50734 0.55874 0.51471 0.0
C920 C 0.51385 0.66125 0.44721 0.0
C921 C 0.50008 0.67758 0.47629 0.0
C922 C 0.51521 0.64038 0.47857 0.0
C923 C 0.50263 0.63495 0.53964 0.0
C924 C 0.48939 0.65149 0.57005 0.0
C925 C 0.48824 0.67246 0.53919 0.0
C926 C 0.49988 0.58664 0.67127 0.0
C927 C 0.50263 0.56846 0.62554 0.0
C928 C 0.50009 0.60813 0.64388 0.0
C929 C 0.50281 0.61204 0.5698 0.0
C930 C 0.50532 0.59371 0.52428 0.0
C931 C 0.50538 0.57232 0.55174 0.0
H932 H 0.8281 0.47435 0.53336 0.0
H933 H 0.84337 0.52607 0.38296 0.0
H934 H 0.86472 0.47722 0.58319 0.0
H935 H 0.87948 0.5301 0.43648 0.0
H936 H 0.95104 0.51471 0.48723 0.0
H937 H 0.91376 0.5133 0.4411 0.0
H938 H 0.88975 0.4966 0.6525 0.0
H939 H 0.92723 0.49706 0.69762 0.0
C940 C 0.83916 0.48651 0.51112 0.0
C941 C 0.83261 0.49977 0.45315 0.0
C942 C 0.86022 0.48838 0.54063 0.0
C943 C 0.87542 0.5038 0.51387 0.0
C944 C 0.86856 0.51768 0.45783 0.0
C945 C 0.84756 0.51564 0.42778 0.0
C946 C 0.9378 0.51075 0.52394 0.0
C947 C 0.94222 0.50599 0.5962 0.0
C948 C 0.91628 0.51012 0.49755 0.0
C949 C 0.89843 0.50492 0.54278 0.0
C950 C 0.90292 0.50034 0.61537 0.0
C951 C 0.92449 0.50074 0.64156 0.0
loop_
_geom_bond_atom_site_label_1
_geom_bond_atom_site_label_2
_geom_bond_distance
_geom_bond_site_symmetry_2
_ccdc_geom_bond_type
C0 C1 1.386 . S
C0 C2 1.397 . S
C0 H24 0.931 . S
C1 C0 1.386 . S
C1 C5 1.397 . S
C2 C0 1.397 . S
C2 C3 1.384 . S
C2 H25 0.930 . S
C3 C2 1.384 . S
C3 C4 1.377 . S
C3 C6 1.481 . S
C4 C3 1.377 . S
C4 C5 1.389 . S
C4 H26 0.929 . S
C5 C1 1.397 . S
C5 C4 1.389 . S
C5 H27 0.931 . S
C6 C3 1.481 . S
C6 C7 1.387 . S
C6 C11 1.390 . S
C7 C6 1.387 . S
C7 C8 1.401 . S
C7 H28 0.930 . S
C8 C7 1.401 . S
C8 C9 1.376 . S
C8 C17 1.511 . S
C9 C8 1.376 . S
C9 C10 1.392 . S
C9 H30 0.931 . S
C10 C9 1.392 . S
C10 C11 1.361 . S
C10 C12 1.500 . S
C11 C6 1.390 . S
C11 C10 1.361 . S
C11 H29 0.931 . S
C12 C10 1.500 . S
C12 C13 1.371 . S
C12 C14 1.365 . S
C13 C12 1.371 . S
C13 C23 1.386 . S
C13 H31 0.931 . S
C14 C12 1.365 . S
C14 C15 1.409 . S
C14 H32 0.929 . S
C15 C14 1.409 . S
C15 C16 1.380 . S
C15 H33 0.930 . S
C16 C15 1.380 . S
C16 C23 1.357 . S
C17 C8 1.511 . S
C17 C18 1.341 . S
C17 C19 1.371 . S
C18 C17 1.341 . S
C18 C22 1.394 . S
C18 H34 0.930 . S
C19 C17 1.371 . S
C19 C20 1.392 . S
C19 H35 0.931 . S
C20 C19 1.392 . S
C20 C21 1.331 . S
C20 H38 0.932 . S
C21 C20 1.331 . S
C21 C22 1.336 . S
C22 C18 1.394 . S
C22 C21 1.336 . S
C22 H37 0.929 . S
C23 C13 1.386 . S
C23 C16 1.357 . S
C23 H36 0.928 . S
H24 C0 0.931 . S
H25 C2 0.930 . S
H26 C4 0.929 . S
H27 C5 0.931 . S
H28 C7 0.930 . S
H29 C11 0.931 . S
H30 C9 0.931 . S
H31 C13 0.931 . S
H32 C14 0.929 . S
H33 C15 0.930 . S
H34 C18 0.930 . S
H35 C19 0.931 . S
H36 C23 0.928 . S
H37 C22 0.929 . S
H38 C20 0.932 . S
C39 C40 1.394 . S
C39 C41 1.397 . S
C39 H63 0.931 . S
C40 C39 1.394 . S
C40 C44 1.389 1_655 S
C41 C39 1.397 . S
C41 C42 1.389 . S
C41 H64 0.930 . S
C42 C41 1.389 . S
C42 C43 1.373 1_655 S
C42 C45 1.480 . S
C43 C42 1.373 1_455 S
C43 C44 1.389 . S
C43 H65 0.929 . S
C44 C40 1.389 1_455 S
C44 C43 1.389 . S
C44 H66 0.931 . S
C45 C42 1.480 . S
C45 C46 1.388 . S
C45 C50 1.390 . S
C46 C45 1.388 . S
C46 C47 1.402 . S
C46 H67 0.930 . S
C47 C46 1.402 . S
C47 C48 1.376 . S
C47 C56 1.513 . S
C48 C47 1.376 . S
C48 C49 1.392 . S
C48 H69 0.934 . S
C49 C48 1.392 . S
C49 C50 1.361 . S
C49 C51 1.499 1_655 S
C50 C45 1.390 . S
C50 C49 1.361 . S
C50 H68 0.931 . S
C51 C49 1.499 1_455 S
C51 C52 1.362 1_455 S
C51 C53 1.374 . S
C52 C51 1.362 1_655 S
C52 C62 1.386 . S
C52 H70 0.931 . S
C53 C51 1.374 . S
C53 C54 1.409 . S
C53 H71 0.929 . S
C54 C53 1.409 . S
C54 C55 1.379 . S
C54 H72 0.930 . S
C55 C54 1.379 . S
C55 C62 1.359 1_455 S
C56 C47 1.513 . S
C56 C57 1.341 . S
C56 C58 1.371 1_655 S
C57 C56 1.341 . S
C57 C61 1.394 . S
C57 H73 0.930 . S
C58 C56 1.371 1_455 S
C58 C59 1.392 . S
C58 H74 0.931 . S
C59 C58 1.392 . S
C59 C60 1.322 1_455 S
C59 H77 0.932 . S
C60 C59 1.322 1_655 S
C60 C61 1.345 . S
C61 C57 1.394 . S
C61 C60 1.345 . S
C61 H76 0.929 . S
C62 C52 1.386 . S
C62 C55 1.359 1_655 S
C62 H75 0.928 . S
H63 C39 0.931 . S
H64 C41 0.930 . S
H65 C43 0.929 . S
H66 C44 0.931 . S
H67 C46 0.930 . S
H68 C50 0.931 . S
H69 C48 0.934 . S
H70 C52 0.931 . S
H71 C53 0.929 . S
H72 C54 0.930 . S
H73 C57 0.930 . S
H74 C58 0.931 . S
H75 C62 0.928 . S
H76 C61 0.929 . S
H77 C59 0.932 . S
C78 C79 1.394 . S
C78 C80 1.397 . S
C78 H102 0.931 . S
C79 C78 1.394 . S
C79 C83 1.389 1_565 S
C80 C78 1.397 . S
C80 C81 1.389 . S
C80 H103 0.930 . S
C81 C80 1.389 . S
C81 C82 1.373 1_565 S
C81 C84 1.480 . S
C82 C81 1.373 1_545 S
C82 C83 1.389 . S
C82 H104 0.929 . S
C83 C79 1.389 1_545 S
C83 C82 1.389 . S
C83 H105 0.931 . S
C84 C81 1.480 . S
C84 C85 1.388 . S
C84 C89 1.390 . S
C85 C84 1.388 . S
C85 C86 1.402 . S
C85 H106 0.930 . S
C86 C85 1.402 . S
C86 C87 1.376 . S
C86 C95 1.513 . S
C87 C86 1.376 . S
C87 C88 1.392 . S
C87 H108 0.934 . S
C88 C87 1.392 . S
C88 C89 1.361 . S
C88 C90 1.499 1_565 S
C89 C84 1.390 . S
C89 C88 1.361 . S
C89 H107 0.931 . S
C90 C88 1.499 1_545 S
C90 C91 1.362 1_545 S
C90 C92 1.374 . S
C91 C90 1.362 1_565 S
C91 C101 1.386 . S
C91 H109 0.931 . S
C92 C90 1.374 . S
C92 C93 1.409 . S
C92 H110 0.929 . S
C93 C92 1.409 . S
C93 C94 1.379 . S
C93 H111 0.930 . S
C94 C93 1.379 . S
C94 C101 1.359 1_545 S
C95 C86 1.513 . S
C95 C96 1.341 . S
C95 C97 1.371 1_565 S
C96 C95 1.341 . S
C96 C100 1.394 . S
C96 H112 0.930 . S
C97 C95 1.371 1_545 S
C97 C98 1.392 . S
C97 H113 0.931 . S
C98 C97 1.392 . S
C98 C99 1.322 1_545 S
C98 H116 0.932 . S
C99 C98 1.322 1_565 S
C99 C100 1.345 . S
C100 C96 1.394 . S
C100 C99 1.345 . S
C100 H115 0.929 . S
C101 C91 1.386 . S
C101 C94 1.359 1_565 S
C101 H114 0.928 . S
H102 C78 0.931 . S
H103 C80 0.930 . S
H104 C82 0.929 . S
H105 C83 0.931 . S
H106 C85 0.930 . S
H107 C89 0.931 . S
H108 C87 0.934 . S
H109 C91 0.931 . S
H110 C92 0.929 . S
H111 C93 0.930 . S
H112 C96 0.930 . S
H113 C97 0.931 . S
H114 C101 0.928 . S
H115 C100 0.929 . S
H116 C98 0.932 . S
C117 C118 1.386 . S
C117 C119 1.397 . S
C117 H141 0.931 . S
C118 C117 1.386 . S
C118 C122 1.397 . S
C119 C117 1.397 . S
C119 C120 1.384 . S
C119 H142 0.930 . S
C120 C119 1.384 . S
C120 C121 1.377 . S
C120 C123 1.481 . S
C121 C120 1.377 . S
C121 C122 1.389 . S
C121 H143 0.929 . S
C122 C118 1.397 . S
C122 C121 1.389 . S
C122 H144 0.931 . S
C123 C120 1.481 . S
C123 C124 1.387 . S
C123 C128 1.390 . S
C124 C123 1.387 . S
C124 C125 1.401 . S
C124 H145 0.930 . S
C125 C124 1.401 . S
C125 C126 1.376 . S
C125 C134 1.511 . S
C126 C125 1.376 . S
C126 C127 1.392 . S
C126 H147 0.931 . S
C127 C126 1.392 . S
C127 C128 1.361 . S
C127 C129 1.500 . S
C128 C123 1.390 . S
C128 C127 1.361 . S
C128 H146 0.931 . S
C129 C127 1.500 . S
C129 C130 1.371 . S
C129 C131 1.365 . S
C130 C129 1.371 . S
C130 C140 1.386 . S
C130 H148 0.931 . S
C131 C129 1.365 . S
C131 C132 1.409 . S
C131 H149 0.929 . S
C132 C131 1.409 . S
C132 C133 1.380 . S
C132 H150 0.930 . S
C133 C132 1.380 . S
C133 C140 1.357 . S
C134 C125 1.511 . S
C134 C135 1.341 . S
C134 C136 1.371 . S
C135 C134 1.341 . S
C135 C139 1.394 . S
C135 H151 0.930 . S
C136 C134 1.371 . S
C136 C137 1.392 . S
C136 H152 0.931 . S
C137 C136 1.392 . S
C137 C138 1.331 . S
C137 H155 0.932 . S
C138 C137 1.331 . S
C138 C139 1.336 . S
C139 C135 1.394 . S
C139 C138 1.336 . S
C139 H154 0.929 . S
C140 C130 1.386 . S
C140 C133 1.357 . S
C140 H153 0.928 . S
H141 C117 0.931 . S
H142 C119 0.930 . S
H143 C121 0.929 . S
H144 C122 0.931 . S
H145 C124 0.930 . S
H146 C128 0.931 . S
H147 C126 0.931 . S
H148 C130 0.931 . S
H149 C131 0.929 . S
H150 C132 0.930 . S
H151 C135 0.930 . S
H152 C136 0.931 . S
H153 C140 0.928 . S
H154 C139 0.929 . S
H155 C137 0.932 . S
C156 C157 1.386 . S
C156 C158 1.397 . S
C156 H180 0.931 . S
C157 C156 1.386 . S
C157 C161 1.397 . S
C158 C156 1.397 . S
C158 C159 1.384 . S
C158 H181 0.930 . S
C159 C158 1.384 . S
C159 C160 1.377 . S
C159 C162 1.481 . S
C160 C159 1.377 . S
C160 C161 1.389 . S
C160 H182 0.929 . S
C161 C157 1.397 . S
C161 C160 1.389 . S
C161 H183 0.931 . S
C162 C159 1.481 . S
C162 C163 1.387 . S
C162 C167 1.390 . S
C163 C162 1.387 . S
C163 C164 1.401 . S
C163 H184 0.930 . S
C164 C163 1.401 . S
C164 C165 1.376 1_554 S
C164 C173 1.511 . S
C165 C164 1.376 1_556 S
C165 C166 1.392 . S
C165 H186 0.931 . S
C166 C165 1.392 . S
C166 C167 1.361 1_556 S
C166 C168 1.500 . S
C167 C162 1.390 . S
C167 C166 1.361 1_554 S
C167 H185 0.931 . S
C168 C166 1.500 . S
C168 C169 1.371 . S
C168 C170 1.365 . S
C169 C168 1.371 . S
C169 C179 1.386 . S
C169 H187 0.931 . S
C170 C168 1.365 . S
C170 C171 1.409 . S
C170 H188 0.929 . S
C171 C170 1.409 . S
C171 C172 1.380 . S
C171 H189 0.930 . S
C172 C171 1.380 . S
C172 C179 1.357 . S
C173 C164 1.511 . S
C173 C174 1.341 . S
C173 C175 1.371 . S
C174 C173 1.341 . S
C174 C178 1.394 . S
C174 H190 0.930 . S
C175 C173 1.371 . S
C175 C176 1.392 . S
C175 H191 0.931 1_554 S
C176 C175 1.392 . S
C176 C177 1.331 . S
C176 H194 0.932 . S
C177 C176 1.331 . S
C177 C178 1.336 . S
C178 C174 1.394 . S
C178 C177 1.336 . S
C178 H193 0.929 . S
C179 C169 1.386 . S
C179 C172 1.357 . S
C179 H192 0.928 . S
H180 C156 0.931 . S
H181 C158 0.930 . S
H182 C160 0.929 . S
H183 C161 0.931 . S
H184 C163 0.930 . S
H185 C167 0.931 . S
H186 C165 0.931 . S
H187 C169 0.931 . S
H188 C170 0.929 . S
H189 C171 0.930 . S
H190 C174 0.930 . S
H191 C175 0.931 1_556 S
H192 C179 0.928 . S
H193 C178 0.929 . S
H194 C176 0.932 . S
C195 C196 1.387 . S
C195 C197 1.397 . S
C195 H219 0.931 . S
C196 C195 1.387 . S
C196 C200 1.396 1_655 S
C197 C195 1.397 . S
C197 C198 1.381 . S
C197 H220 0.930 . S
C198 C197 1.381 . S
C198 C199 1.380 1_655 S
C198 C201 1.480 . S
C199 C198 1.380 1_455 S
C199 C200 1.389 . S
C199 H221 0.929 . S
C200 C196 1.396 1_455 S
C200 C199 1.389 . S
C200 H222 0.931 . S
C201 C198 1.480 . S
C201 C202 1.388 . S
C201 C206 1.390 . S
C202 C201 1.388 . S
C202 C203 1.402 . S
C202 H223 0.930 . S
C203 C202 1.402 . S
C203 C204 1.376 1_554 S
C203 C212 1.512 . S
C204 C203 1.376 1_556 S
C204 C205 1.392 1_655 S
C204 H225 0.933 . S
C205 C204 1.392 1_455 S
C205 C206 1.361 1_456 S
C205 C207 1.499 . S
C206 C201 1.390 . S
C206 C205 1.361 1_654 S
C206 H224 0.931 . S
C207 C205 1.499 . S
C207 C208 1.357 1_455 S
C207 C209 1.380 . S
C208 C207 1.357 1_655 S
C208 C218 1.386 . S
C208 H226 0.931 . S
C209 C207 1.380 . S
C209 C210 1.409 . S
C209 H227 0.929 . S
C210 C209 1.409 . S
C210 C211 1.384 . S
C210 H228 0.930 . S
C211 C210 1.384 . S
C211 C218 1.353 1_455 S
C212 C203 1.512 . S
C212 C213 1.341 . S
C212 C214 1.371 1_655 S
C213 C212 1.341 . S
C213 C217 1.394 . S
C213 H229 0.930 . S
C214 C212 1.371 1_455 S
C214 C215 1.392 . S
C214 H230 0.931 1_554 S
C215 C214 1.392 . S
C215 C216 1.326 1_455 S
C215 H233 0.932 . S
C216 C215 1.326 1_655 S
C216 C217 1.341 . S
C217 C213 1.394 . S
C217 C216 1.341 . S
C217 H232 0.929 . S
C218 C208 1.386 . S
C218 C211 1.353 1_655 S
C218 H231 0.928 . S
H219 C195 0.931 . S
H220 C197 0.930 . S
H221 C199 0.929 . S
H222 C200 0.931 . S
H223 C202 0.930 . S
H224 C206 0.931 . S
H225 C204 0.933 . S
H226 C208 0.931 . S
H227 C209 0.929 . S
H228 C210 0.930 . S
H229 C213 0.930 . S
H230 C214 0.931 1_556 S
H231 C218 0.928 . S
H232 C217 0.929 . S
H233 C215 0.932 . S
C234 C235 1.387 . S
C234 C236 1.397 . S
C234 H258 0.931 . S
C235 C234 1.387 . S
C235 C239 1.396 1_565 S
C236 C234 1.397 . S
C236 C237 1.381 . S
C236 H259 0.930 . S
C237 C236 1.381 . S
C237 C238 1.380 1_565 S
C237 C240 1.480 . S
C238 C237 1.380 1_545 S
C238 C239 1.389 . S
C238 H260 0.929 . S
C239 C235 1.396 1_545 S
C239 C238 1.389 . S
C239 H261 0.931 . S
C240 C237 1.480 . S
C240 C241 1.388 . S
C240 C245 1.390 . S
C241 C240 1.388 . S
C241 C242 1.402 . S
C241 H262 0.930 . S
C242 C241 1.402 . S
C242 C243 1.376 1_554 S
C242 C251 1.512 . S
C243 C242 1.376 1_556 S
C243 C244 1.392 1_565 S
C243 H264 0.933 . S
C244 C243 1.392 1_545 S
C244 C245 1.361 1_546 S
C244 C246 1.499 . S
C245 C240 1.390 . S
C245 C244 1.361 1_564 S
C245 H263 0.931 . S
C246 C244 1.499 . S
C246 C247 1.357 1_545 S
C246 C248 1.380 . S
C247 C246 1.357 1_565 S
C247 C257 1.386 . S
C247 H265 0.931 . S
C248 C246 1.380 . S
C248 C249 1.409 . S
C248 H266 0.929 . S
C249 C248 1.409 . S
C249 C250 1.384 . S
C249 H267 0.930 . S
C250 C249 1.384 . S
C250 C257 1.353 1_545 S
C251 C242 1.512 . S
C251 C252 1.341 . S
C251 C253 1.371 1_565 S
C252 C251 1.341 . S
C252 C256 1.394 . S
C252 H268 0.930 . S
C253 C251 1.371 1_545 S
C253 C254 1.392 . S
C253 H269 0.931 1_554 S
C254 C253 1.392 . S
C254 C255 1.326 1_545 S
C254 H272 0.932 . S
C255 C254 1.326 1_565 S
C255 C256 1.341 . S
C256 C252 1.394 . S
C256 C255 1.341 . S
C256 H271 0.929 . S
C257 C247 1.386 . S
C257 C250 1.353 1_565 S
C257 H270 0.928 . S
H258 C234 0.931 . S
H259 C236 0.930 . S
H260 C238 0.929 . S
H261 C239 0.931 . S
H262 C241 0.930 . S
H263 C245 0.931 . S
H264 C243 0.933 . S
H265 C247 0.931 . S
H266 C248 0.929 . S
H267 C249 0.930 . S
H268 C252 0.930 . S
H269 C253 0.931 1_556 S
H270 C257 0.928 . S
H271 C256 0.929 . S
H272 C254 0.932 . S
C273 C274 1.386 . S
C273 C275 1.397 . S
C273 H297 0.931 . S
C274 C273 1.386 . S
C274 C278 1.397 . S
C275 C273 1.397 . S
C275 C276 1.384 . S
C275 H298 0.930 . S
C276 C275 1.384 . S
C276 C277 1.377 . S
C276 C279 1.481 . S
C277 C276 1.377 . S
C277 C278 1.389 . S
C277 H299 0.929 . S
C278 C274 1.397 . S
C278 C277 1.389 . S
C278 H300 0.931 . S
C279 C276 1.481 . S
C279 C280 1.387 . S
C279 C284 1.390 1_556 S
C280 C279 1.387 . S
C280 C281 1.401 1_556 S
C280 H301 0.930 . S
C281 C280 1.401 1_554 S
C281 C282 1.376 . S
C281 C290 1.511 . S
C282 C281 1.376 . S
C282 C283 1.392 . S
C282 H303 0.931 . S
C283 C282 1.392 . S
C283 C284 1.361 . S
C283 C285 1.500 . S
C284 C279 1.390 1_554 S
C284 C283 1.361 . S
C284 H302 0.931 . S
C285 C283 1.500 . S
C285 C286 1.371 . S
C285 C287 1.365 . S
C286 C285 1.371 . S
C286 C296 1.386 . S
C286 H304 0.931 . S
C287 C285 1.365 . S
C287 C288 1.409 . S
C287 H305 0.929 . S
C288 C287 1.409 . S
C288 C289 1.380 . S
C288 H306 0.930 . S
C289 C288 1.380 . S
C289 C296 1.357 . S
C290 C281 1.511 . S
C290 C291 1.341 . S
C290 C292 1.371 . S
C291 C290 1.341 . S
C291 C295 1.394 . S
C291 H307 0.930 1_554 S
C292 C290 1.371 . S
C292 C293 1.392 . S
C292 H308 0.931 . S
C293 C292 1.392 . S
C293 C294 1.331 . S
C293 H311 0.932 . S
C294 C293 1.331 . S
C294 C295 1.336 . S
C295 C291 1.394 . S
C295 C294 1.336 . S
C295 H310 0.929 . S
C296 C286 1.386 . S
C296 C289 1.357 . S
C296 H309 0.928 . S
H297 C273 0.931 . S
H298 C275 0.930 . S
H299 C277 0.929 . S
H300 C278 0.931 . S
H301 C280 0.930 . S
H302 C284 0.931 . S
H303 C282 0.931 . S
H304 C286 0.931 . S
H305 C287 0.929 . S
H306 C288 0.930 . S
H307 C291 0.930 1_556 S
H308 C292 0.931 . S
H309 C296 0.928 . S
H310 C295 0.929 . S
H311 C293 0.932 . S
La312 C314 2.928 . S
La312 O332 2.521 . S
La312 O333 2.628 . S
La312 O334 2.554 . S
La312 O335 2.757 1_565 S
La312 O336 2.470 . S
La312 O341 2.482 1_455 S
La312 O343 2.503 1_565 S
La313 C323 2.928 . S
La313 O335 2.482 1_655 S
La313 O337 2.503 1_545 S
La313 O338 2.521 . S
La313 O339 2.628 . S
La313 O340 2.554 . S
La313 O341 2.757 1_545 S
La313 O342 2.470 . S
C314 La312 2.928 . S
C314 C315 1.503 . S
C314 O332 1.261 . S
C314 O333 1.243 . S
C315 C314 1.503 . S
C315 C316 1.394 . S
C315 C320 1.373 . S
C316 C315 1.394 . S
C316 C317 1.380 . S
C316 H344 0.930 . S
C317 C316 1.380 . S
C317 C318 1.376 . S
C317 H345 0.930 . S
C318 C317 1.376 . S
C318 C319 1.370 . S
C319 C318 1.370 . S
C319 C320 1.396 . S
C319 H346 0.921 1_455 S
C320 C315 1.373 . S
C320 C319 1.396 . S
C320 H347 0.929 1_455 S
C321 O334 1.269 . S
C321 O335 1.272 1_565 S
C322 O336 1.258 1_655 S
C322 O337 1.256 . S
C323 La313 2.928 . S
C323 C324 1.503 . S
C323 O338 1.261 . S
C323 O339 1.243 . S
C324 C323 1.503 . S
C324 C325 1.394 . S
C324 C329 1.373 . S
C325 C324 1.394 . S
C325 C326 1.380 . S
C325 H348 0.930 . S
C326 C325 1.380 . S
C326 C327 1.376 . S
C326 H349 0.930 . S
C327 C326 1.376 . S
C327 C328 1.370 . S
C328 C327 1.370 . S
C328 C329 1.396 . S
C328 H350 0.912 1_655 S
C329 C324 1.373 . S
C329 C328 1.396 . S
C329 H351 0.929 1_655 S
C330 O340 1.240 . S
C330 O341 1.289 1_545 S
C331 O342 1.258 1_455 S
C331 O343 1.256 . S
O332 La312 2.521 . S
O332 C314 1.261 . S
O333 La312 2.628 . S
O333 C314 1.243 . S
O334 La312 2.554 . S
O334 C321 1.269 . S
O335 La312 2.757 1_545 S
O335 La313 2.482 1_455 S
O335 C321 1.272 1_545 S
O336 La312 2.470 . S
O336 C322 1.258 1_455 S
O337 La313 2.503 1_565 S
O337 C322 1.256 . S
O338 La313 2.521 . S
O338 C323 1.261 . S
O339 La313 2.628 . S
O339 C323 1.243 . S
O340 La313 2.554 . S
O340 C330 1.240 . S
O341 La312 2.482 1_655 S
O341 La313 2.757 1_565 S
O341 C330 1.289 1_565 S
O342 La313 2.470 . S
O342 C331 1.258 1_655 S
O343 La312 2.503 1_545 S
O343 C331 1.256 . S
H344 C316 0.930 . S
H345 C317 0.930 . S
H346 C319 0.921 1_655 S
H347 C320 0.929 1_655 S
H348 C325 0.930 . S
H349 C326 0.930 . S
H350 C328 0.912 1_455 S
H351 C329 0.929 1_455 S
La352 C354 2.928 . S
La352 O372 2.521 . S
La352 O373 2.628 . S
La352 O374 2.554 . S
La352 O375 2.757 . S
La352 O376 2.470 . S
La352 O381 2.482 1_545 S
La352 O383 2.503 . S
La353 C363 2.928 . S
La353 O375 2.482 1_565 S
La353 O377 2.503 . S
La353 O378 2.521 . S
La353 O379 2.628 . S
La353 O380 2.554 . S
La353 O381 2.757 . S
La353 O382 2.470 . S
C354 La352 2.928 . S
C354 C355 1.503 . S
C354 O372 1.261 . S
C354 O373 1.243 . S
C355 C354 1.503 . S
C355 C356 1.394 . S
C355 C360 1.373 . S
C356 C355 1.394 . S
C356 C357 1.380 . S
C356 H384 0.930 . S
C357 C356 1.380 . S
C357 C358 1.376 . S
C357 H385 0.930 . S
C358 C357 1.376 . S
C358 C359 1.370 . S
C359 C358 1.370 . S
C359 C360 1.396 . S
C359 H386 0.903 1_545 S
C360 C355 1.373 . S
C360 C359 1.396 . S
C360 H387 0.929 1_545 S
C361 O374 1.240 . S
C361 O375 1.289 . S
C362 O376 1.258 1_565 S
C362 O377 1.256 . S
C363 La353 2.928 . S
C363 C364 1.503 . S
C363 O378 1.261 . S
C363 O379 1.243 . S
C364 C363 1.503 . S
C364 C365 1.394 . S
C364 C369 1.373 . S
C365 C364 1.394 . S
C365 C366 1.380 . S
C365 H388 0.930 . S
C366 C365 1.380 . S
C366 C367 1.376 . S
C366 H389 0.930 . S
C367 C366 1.376 . S
C367 C368 1.370 . S
C368 C367 1.370 . S
C368 C369 1.396 . S
C368 H390 0.894 1_565 S
C369 C364 1.373 . S
C369 C368 1.396 . S
C369 H391 0.929 1_565 S
C370 O380 1.240 . S
C370 O381 1.289 . S
C371 O382 1.258 1_545 S
C371 O383 1.256 . S
O372 La352 2.521 . S
O372 C354 1.261 . S
O373 La352 2.628 . S
O373 C354 1.243 . S
O374 La352 2.554 . S
O374 C361 1.240 . S
O375 La352 2.757 . S
O375 La353 2.482 1_545 S
O375 C361 1.289 . S
O376 La352 2.470 . S
O376 C362 1.258 1_545 S
O377 La353 2.503 . S
O377 C362 1.256 . S
O378 La353 2.521 . S
O378 C363 1.261 . S
O379 La353 2.628 . S
O379 C363 1.243 . S
O380 La353 2.554 . S
O380 C370 1.240 . S
O381 La352 2.482 1_565 S
O381 La353 2.757 . S
O381 C370 1.289 . S
O382 La353 2.470 . S
O382 C371 1.258 1_565 S
O383 La352 2.503 . S
O383 C371 1.256 . S
H384 C356 0.930 . S
H385 C357 0.930 . S
H386 C359 0.903 1_565 S
H387 C360 0.929 1_565 S
H388 C365 0.930 . S
H389 C366 0.930 . S
H390 C368 0.894 1_545 S
H391 C369 0.929 1_545 S
La392 C394 2.928 . S
La392 O412 2.521 . S
La392 O413 2.628 . S
La392 O414 2.554 . S
La392 O415 2.757 . S
La392 O416 2.470 . S
La392 O421 2.482 . S
La392 O423 2.503 . S
La393 C403 2.928 . S
La393 O415 2.482 . S
La393 O417 2.503 . S
La393 O418 2.521 . S
La393 O419 2.628 . S
La393 O420 2.554 . S
La393 O421 2.757 . S
La393 O422 2.470 . S
C394 La392 2.928 . S
C394 C395 1.503 . S
C394 O412 1.261 . S
C394 O413 1.243 . S
C395 C394 1.503 . S
C395 C396 1.394 . S
C395 C400 1.373 . S
C396 C395 1.394 . S
C396 C397 1.380 . S
C396 H424 0.930 . S
C397 C396 1.380 . S
C397 C398 1.376 . S
C397 H425 0.930 . S
C398 C397 1.376 . S
C398 C399 1.370 . S
C399 C398 1.370 . S
C399 C400 1.396 . S
C399 H426 0.929 . S
C400 C395 1.373 . S
C400 C399 1.396 . S
C400 H427 0.929 . S
C401 O414 1.240 . S
C401 O415 1.289 . S
C402 O416 1.258 . S
C402 O417 1.256 . S
C403 La393 2.928 . S
C403 C404 1.503 . S
C403 O418 1.261 . S
C403 O419 1.243 . S
C404 C403 1.503 . S
C404 C405 1.394 . S
C404 C409 1.373 . S
C405 C404 1.394 . S
C405 C406 1.380 . S
C405 H428 0.930 . S
C406 C405 1.380 . S
C406 C407 1.376 . S
C406 H429 0.930 . S
C407 C406 1.376 . S
C407 C408 1.370 . S
C408 C407 1.370 . S
C408 C409 1.396 . S
C408 H430 0.929 . S
C409 C404 1.373 . S
C409 C408 1.396 . S
C409 H431 0.929 . S
C410 O420 1.240 . S
C410 O421 1.289 . S
C411 O422 1.258 . S
C411 O423 1.256 . S
O412 La392 2.521 . S
O412 C394 1.261 . S
O413 La392 2.628 . S
O413 C394 1.243 . S
O414 La392 2.554 . S
O414 C401 1.240 . S
O415 La392 2.757 . S
O415 La393 2.482 . S
O415 C401 1.289 . S
O416 La392 2.470 . S
O416 C402 1.258 . S
O417 La393 2.503 . S
O417 C402 1.256 . S
O418 La393 2.521 . S
O418 C403 1.261 . S
O419 La393 2.628 . S
O419 C403 1.243 . S
O420 La393 2.554 . S
O420 C410 1.240 . S
O421 La392 2.482 . S
O421 La393 2.757 . S
O421 C410 1.289 . S
O422 La393 2.470 . S
O422 C411 1.258 . S
O423 La392 2.503 . S
O423 C411 1.256 . S
H424 C396 0.930 . S
H425 C397 0.930 . S
H426 C399 0.929 . S
H427 C400 0.929 . S
H428 C405 0.930 . S
H429 C406 0.930 . S
H430 C408 0.929 . S
H431 C409 0.929 . S
La432 C434 2.928 . S
La432 O452 2.521 . S
La432 O453 2.628 . S
La432 O454 2.554 . S
La432 O455 2.757 1_655 S
La432 O456 2.470 . S
La432 O461 2.482 . S
La432 O463 2.503 1_655 S
La433 C443 2.928 . S
La433 O455 2.482 . S
La433 O457 2.503 1_455 S
La433 O458 2.521 . S
La433 O459 2.628 . S
La433 O460 2.554 . S
La433 O461 2.757 1_455 S
La433 O462 2.470 . S
C434 La432 2.928 . S
C434 C435 1.503 . S
C434 O452 1.261 . S
C434 O453 1.243 . S
C435 C434 1.503 . S
C435 C436 1.394 . S
C435 C440 1.373 . S
C436 C435 1.394 . S
C436 C437 1.380 . S
C436 H464 0.930 . S
C437 C436 1.380 . S
C437 C438 1.376 . S
C437 H465 0.930 . S
C438 C437 1.376 . S
C438 C439 1.370 . S
C439 C438 1.370 . S
C439 C440 1.396 . S
C439 H466 0.929 . S
C440 C435 1.373 . S
C440 C439 1.396 . S
C440 H467 0.929 . S
C441 O454 1.258 . S
C441 O455 1.279 1_655 S
C442 O456 1.258 . S
C442 O457 1.256 . S
C443 La433 2.928 . S
C443 C444 1.503 . S
C443 O458 1.261 . S
C443 O459 1.243 . S
C444 C443 1.503 . S
C444 C445 1.394 . S
C444 C449 1.373 . S
C445 C444 1.394 . S
C445 C446 1.380 . S
C445 H468 0.930 . S
C446 C445 1.380 . S
C446 C447 1.376 . S
C446 H469 0.930 . S
C447 C446 1.376 . S
C447 C448 1.370 . S
C448 C447 1.370 . S
C448 C449 1.396 . S
C448 H470 0.929 . S
C449 C444 1.373 . S
C449 C448 1.396 . S
C449 H471 0.929 . S
C450 O460 1.264 . S
C450 O461 1.275 1_455 S
C451 O462 1.258 . S
C451 O463 1.256 . S
O452 La432 2.521 . S
O452 C434 1.261 . S
O453 La432 2.628 . S
O453 C434 1.243 . S
O454 La432 2.554 . S
O454 C441 1.258 . S
O455 La432 2.757 1_455 S
O455 La433 2.482 . S
O455 C441 1.279 1_455 S
O456 La432 2.470 . S
O456 C442 1.258 . S
O457 La433 2.503 1_655 S
O457 C442 1.256 . S
O458 La433 2.521 . S
O458 C443 1.261 . S
O459 La433 2.628 . S
O459 C443 1.243 . S
O460 La433 2.554 . S
O460 C450 1.264 . S
O461 La432 2.482 . S
O461 La433 2.757 1_655 S
O461 C450 1.275 1_655 S
O462 La433 2.470 . S
O462 C451 1.258 . S
O463 La432 2.503 1_455 S
O463 C451 1.256 . S
H464 C436 0.930 . S
H465 C437 0.930 . S
H466 C439 0.929 . S
H467 C440 0.929 . S
H468 C445 0.930 . S
H469 C446 0.930 . S
H470 C448 0.929 . S
H471 C449 0.929 . S
H472 C480 0.950 . S
H473 C485 0.950 . S
H474 C482 0.950 . S
H475 C484 0.950 . S
H476 C486 0.950 . S
H477 C488 0.950 . S
H478 C490 0.950 . S
H479 C491 0.950 . S
C480 H472 0.950 . S
C480 C481 1.355 1_565 S
C480 C482 1.391 . S
C481 C480 1.355 1_545 S
C481 C485 1.426 . S
C482 H474 0.950 . S
C482 C480 1.391 . S
C482 C483 1.367 1_565 S
C483 C482 1.367 1_545 S
C483 C484 1.434 . S
C483 C489 1.490 . S
C484 H475 0.950 . S
C484 C483 1.434 . S
C484 C485 1.391 . S
C485 H473 0.950 . S
C485 C481 1.426 . S
C485 C484 1.391 . S
C486 H476 0.950 . S
C486 C487 1.406 . S
C486 C488 1.391 . S
C487 C486 1.406 . S
C487 C491 1.372 1_545 S
C488 H477 0.950 . S
C488 C486 1.391 . S
C488 C489 1.418 . S
C489 C483 1.490 . S
C489 C488 1.418 . S
C489 C490 1.380 1_545 S
C490 H478 0.950 . S
C490 C489 1.380 1_565 S
C490 C491 1.391 . S
C491 H479 0.950 . S
C491 C487 1.372 1_565 S
C491 C490 1.391 . S
H492 C500 0.950 . S
H493 C505 0.950 . S
H494 C502 0.950 . S
H495 C504 0.950 . S
H496 C506 0.950 . S
H497 C508 0.950 . S
H498 C510 0.950 . S
H499 C511 0.950 . S
C500 H492 0.950 . S
C500 C501 1.386 . S
C500 C502 1.391 . S
C501 C500 1.386 . S
C501 C505 1.393 . S
C502 H494 0.950 . S
C502 C500 1.391 . S
C502 C503 1.400 . S
C503 C502 1.400 . S
C503 C504 1.398 . S
C503 C509 1.491 . S
C504 H495 0.950 . S
C504 C503 1.398 . S
C504 C505 1.391 . S
C505 H493 0.950 . S
C505 C501 1.393 . S
C505 C504 1.391 . S
C506 H496 0.950 . S
C506 C507 1.386 . S
C506 C508 1.391 . S
C507 C506 1.386 . S
C507 C511 1.393 . S
C508 H497 0.950 . S
C508 C506 1.391 . S
C508 C509 1.400 . S
C509 C503 1.491 . S
C509 C508 1.400 . S
C509 C510 1.398 . S
C510 H498 0.950 . S
C510 C509 1.398 . S
C510 C511 1.391 . S
C511 H499 0.950 . S
C511 C507 1.393 . S
C511 C510 1.391 . S
H512 C520 0.950 . S
H513 C525 0.950 . S
H514 C522 0.950 . S
H515 C524 0.950 . S
H516 C526 0.950 . S
H517 C528 0.950 . S
H518 C530 0.950 . S
H519 C531 0.950 . S
C520 H512 0.950 . S
C520 C521 1.386 . S
C520 C522 1.391 . S
C521 C520 1.386 . S
C521 C525 1.393 . S
C522 H514 0.950 . S
C522 C520 1.391 . S
C522 C523 1.400 . S
C523 C522 1.400 . S
C523 C524 1.398 . S
C523 C529 1.491 . S
C524 H515 0.950 . S
C524 C523 1.398 . S
C524 C525 1.391 . S
C525 H513 0.950 . S
C525 C521 1.393 . S
C525 C524 1.391 . S
C526 H516 0.950 . S
C526 C527 1.386 . S
C526 C528 1.391 . S
C527 C526 1.386 . S
C527 C531 1.393 . S
C528 H517 0.950 . S
C528 C526 1.391 . S
C528 C529 1.400 . S
C529 C523 1.491 . S
C529 C528 1.400 . S
C529 C530 1.398 . S
C530 H518 0.950 . S
C530 C529 1.398 . S
C530 C531 1.391 . S
C531 H519 0.950 . S
C531 C527 1.393 . S
C531 C530 1.391 . S
H532 C540 0.950 . S
H533 C545 0.950 . S
H534 C542 0.950 . S
H535 C544 0.950 . S
H536 C546 0.950 . S
H537 C548 0.950 . S
H538 C550 0.950 . S
H539 C551 0.950 . S
C540 H532 0.950 . S
C540 C541 1.389 1_655 S
C540 C542 1.391 . S
C541 C540 1.389 1_455 S
C541 C545 1.389 . S
C542 H534 0.950 . S
C542 C540 1.391 . S
C542 C543 1.377 1_655 S
C543 C542 1.377 1_455 S
C543 C544 1.421 . S
C543 C549 1.492 . S
C544 H535 0.950 . S
C544 C543 1.421 . S
C544 C545 1.391 . S
C545 H533 0.950 . S
C545 C541 1.389 . S
C545 C544 1.391 . S
C546 H536 0.950 . S
C546 C547 1.386 . S
C546 C548 1.391 . S
C547 C546 1.386 . S
C547 C551 1.393 1_455 S
C548 H537 0.950 . S
C548 C546 1.391 . S
C548 C549 1.400 . S
C549 C543 1.492 . S
C549 C548 1.400 . S
C549 C550 1.398 1_455 S
C550 H538 0.950 . S
C550 C549 1.398 1_655 S
C550 C551 1.391 . S
C551 H539 0.950 . S
C551 C547 1.393 1_655 S
C551 C550 1.391 . S
H552 C560 0.950 . S
H553 C565 0.950 . S
H554 C562 0.950 . S
H555 C564 0.950 . S
H556 C566 0.950 . S
H557 C568 0.950 . S
H558 C570 0.950 . S
H559 C571 0.950 . S
C560 H552 0.950 . S
C560 C561 1.387 1_545 S
C560 C562 1.391 . S
C561 C560 1.387 1_565 S
C561 C565 1.392 . S
C562 H554 0.950 . S
C562 C560 1.391 . S
C562 C563 1.382 1_545 S
C563 C562 1.382 1_565 S
C563 C564 1.416 . S
C563 C569 1.490 1_554 S
C564 H555 0.950 . S
C564 C563 1.416 . S
C564 C565 1.391 . S
C565 H553 0.950 . S
C565 C561 1.392 . S
C565 C564 1.391 . S
C566 H556 0.950 . S
C566 C567 1.386 . S
C566 C568 1.391 . S
C567 C566 1.386 . S
C567 C571 1.393 1_565 S
C568 H557 0.950 . S
C568 C566 1.391 . S
C568 C569 1.432 . S
C569 C563 1.490 1_556 S
C569 C568 1.432 . S
C569 C570 1.367 1_565 S
C570 H558 0.950 . S
C570 C569 1.367 1_545 S
C570 C571 1.391 . S
C571 H559 0.950 . S
C571 C567 1.393 1_545 S
C571 C570 1.391 . S
H572 C580 0.950 . S
H573 C585 0.950 . S
H574 C582 0.950 . S
H575 C584 0.950 . S
H576 C586 0.950 . S
H577 C588 0.950 . S
H578 C590 0.950 1_554 S
H579 C591 0.950 . S
C580 H572 0.950 . S
C580 C581 1.386 . S
C580 C582 1.391 . S
C581 C580 1.386 . S
C581 C585 1.393 . S
C582 H574 0.950 . S
C582 C580 1.391 . S
C582 C583 1.400 . S
C583 C582 1.400 . S
C583 C584 1.398 . S
C583 C589 1.505 . S
C584 H575 0.950 . S
C584 C583 1.398 . S
C584 C585 1.391 . S
C585 H573 0.950 . S
C585 C581 1.393 . S
C585 C584 1.391 . S
C586 H576 0.950 . S
C586 C587 1.386 . S
C586 C588 1.391 . S
C587 C586 1.386 . S
C587 C591 1.393 . S
C588 H577 0.950 . S
C588 C586 1.391 . S
C588 C589 1.388 1_556 S
C589 C583 1.505 . S
C589 C588 1.388 1_554 S
C589 C590 1.396 1_554 S
C590 H578 0.950 1_556 S
C590 C589 1.396 1_556 S
C590 C591 1.391 . S
C591 H579 0.950 . S
C591 C587 1.393 . S
C591 C590 1.391 . S
H592 C600 0.950 . S
H593 C605 0.950 . S
H594 C602 0.950 . S
H595 C604 0.950 . S
H596 C606 0.950 . S
H597 C608 0.950 . S
H598 C610 0.950 1_554 S
H599 C611 0.950 . S
C600 H592 0.950 . S
C600 C601 1.386 . S
C600 C602 1.391 . S
C601 C600 1.386 . S
C601 C605 1.393 . S
C602 H594 0.950 . S
C602 C600 1.391 . S
C602 C603 1.400 . S
C603 C602 1.400 . S
C603 C604 1.398 . S
C603 C609 1.483 1_554 S
C604 H595 0.950 . S
C604 C603 1.398 . S
C604 C605 1.391 . S
C605 H593 0.950 . S
C605 C601 1.393 . S
C605 C604 1.391 . S
C606 H596 0.950 . S
C606 C607 1.386 . S
C606 C608 1.391 . S
C607 C606 1.386 . S
C607 C611 1.393 . S
C608 H597 0.950 . S
C608 C606 1.391 . S
C608 C609 1.407 . S
C609 C603 1.483 1_556 S
C609 C608 1.407 . S
C609 C610 1.399 . S
C610 H598 0.950 1_556 S
C610 C609 1.399 . S
C610 C611 1.391 . S
C611 H599 0.950 . S
C611 C607 1.393 . S
C611 C610 1.391 . S
H612 C620 0.950 . S
H613 C625 0.950 . S
H614 C622 0.950 . S
H615 C624 0.950 . S
H616 C626 0.950 . S
H617 C628 0.950 1_554 S
H618 C630 0.950 . S
H619 C631 0.950 . S
C620 H612 0.950 . S
C620 C621 1.390 . S
C620 C622 1.391 . S
C621 C620 1.390 . S
C621 C625 1.389 1_455 S
C622 H614 0.950 . S
C622 C620 1.391 . S
C622 C623 1.395 1_455 S
C623 C622 1.395 1_655 S
C623 C624 1.402 . S
C623 C629 1.492 1_554 S
C624 H615 0.950 . S
C624 C623 1.402 . S
C624 C625 1.391 . S
C625 H613 0.950 . S
C625 C621 1.389 1_655 S
C625 C624 1.391 . S
C626 H616 0.950 . S
C626 C627 1.386 . S
C626 C628 1.391 . S
C627 C626 1.386 . S
C627 C631 1.393 1_655 S
C628 H617 0.950 1_556 S
C628 C626 1.391 . S
C628 C629 1.400 . S
C629 C623 1.492 1_556 S
C629 C628 1.400 . S
C629 C630 1.398 1_655 S
C630 H618 0.950 . S
C630 C629 1.398 1_455 S
C630 C631 1.391 . S
C631 H619 0.950 . S
C631 C627 1.393 1_455 S
C631 C630 1.391 . S
H632 C640 0.950 . S
H633 C645 0.950 . S
H634 C642 0.950 . S
H635 C644 0.950 . S
H636 C646 0.950 . S
H637 C648 0.950 1_455 S
H638 C650 0.950 . S
H639 C651 0.950 . S
C640 H632 0.950 . S
C640 C641 1.386 1_655 S
C640 C642 1.391 . S
C641 C640 1.386 1_455 S
C641 C645 1.393 . S
C642 H634 0.950 . S
C642 C640 1.391 . S
C642 C643 1.400 . S
C643 C642 1.400 . S
C643 C644 1.398 1_655 S
C643 C649 1.491 . S
C644 H635 0.950 . S
C644 C643 1.398 1_455 S
C644 C645 1.391 . S
C645 H633 0.950 . S
C645 C641 1.393 . S
C645 C644 1.391 . S
C646 H636 0.950 . S
C646 C647 1.386 . S
C646 C648 1.391 . S
C647 C646 1.386 . S
C647 C651 1.393 . S
C648 H637 0.950 1_655 S
C648 C646 1.391 . S
C648 C649 1.400 . S
C649 C643 1.491 . S
C649 C648 1.400 . S
C649 C650 1.398 . S
C650 H638 0.950 . S
C650 C649 1.398 . S
C650 C651 1.391 . S
C651 H639 0.950 . S
C651 C647 1.393 . S
C651 C650 1.391 . S
H652 C660 0.950 . S
H653 C665 0.950 . S
H654 C662 0.950 . S
H655 C664 0.950 . S
H656 C666 0.950 . S
H657 C668 0.950 1_545 S
H658 C670 0.950 . S
H659 C671 0.950 . S
C660 H652 0.950 . S
C660 C661 1.386 1_565 S
C660 C662 1.391 . S
C661 C660 1.386 1_545 S
C661 C665 1.393 . S
C662 H654 0.950 . S
C662 C660 1.391 . S
C662 C663 1.400 . S
C663 C662 1.400 . S
C663 C664 1.398 1_565 S
C663 C669 1.491 . S
C664 H655 0.950 . S
C664 C663 1.398 1_545 S
C664 C665 1.391 . S
C665 H653 0.950 . S
C665 C661 1.393 . S
C665 C664 1.391 . S
C666 H656 0.950 . S
C666 C667 1.386 . S
C666 C668 1.391 . S
C667 C666 1.386 . S
C667 C671 1.393 . S
C668 H657 0.950 1_565 S
C668 C666 1.391 . S
C668 C669 1.400 . S
C669 C663 1.491 . S
C669 C668 1.400 . S
C669 C670 1.398 . S
C670 H658 0.950 . S
C670 C669 1.398 . S
C670 C671 1.391 . S
C671 H659 0.950 . S
C671 C667 1.393 . S
C671 C670 1.391 . S
H672 C680 0.950 . S
H673 C685 0.950 . S
H674 C682 0.950 . S
H675 C684 0.950 . S
H676 C686 0.950 . S
H677 C688 0.950 . S
H678 C690 0.950 . S
H679 C691 0.950 . S
C680 H672 0.950 . S
C680 C681 1.386 . S
C680 C682 1.391 . S
C681 C680 1.386 . S
C681 C685 1.393 . S
C682 H674 0.950 . S
C682 C680 1.391 . S
C682 C683 1.400 . S
C683 C682 1.400 . S
C683 C684 1.398 . S
C683 C689 1.491 . S
C684 H675 0.950 . S
C684 C683 1.398 . S
C684 C685 1.391 . S
C685 H673 0.950 . S
C685 C681 1.393 . S
C685 C684 1.391 . S
C686 H676 0.950 . S
C686 C687 1.386 . S
C686 C688 1.391 . S
C687 C686 1.386 . S
C687 C691 1.393 . S
C688 H677 0.950 . S
C688 C686 1.391 . S
C688 C689 1.400 . S
C689 C683 1.491 . S
C689 C688 1.400 . S
C689 C690 1.398 . S
C690 H678 0.950 . S
C690 C689 1.398 . S
C690 C691 1.391 . S
C691 H679 0.950 . S
C691 C687 1.393 . S
C691 C690 1.391 . S
H692 C700 0.950 . S
H693 C705 0.950 . S
H694 C702 0.950 . S
H695 C704 0.950 . S
H696 C706 0.950 . S
H697 C708 0.950 . S
H698 C710 0.950 . S
H699 C711 0.950 . S
C700 H692 0.950 . S
C700 C701 1.386 . S
C700 C702 1.391 . S
C701 C700 1.386 . S
C701 C705 1.393 . S
C702 H694 0.950 . S
C702 C700 1.391 . S
C702 C703 1.400 . S
C703 C702 1.400 . S
C703 C704 1.398 . S
C703 C709 1.491 . S
C704 H695 0.950 . S
C704 C703 1.398 . S
C704 C705 1.391 . S
C705 H693 0.950 . S
C705 C701 1.393 . S
C705 C704 1.391 . S
C706 H696 0.950 . S
C706 C707 1.386 . S
C706 C708 1.391 . S
C707 C706 1.386 . S
C707 C711 1.393 . S
C708 H697 0.950 . S
C708 C706 1.391 . S
C708 C709 1.400 . S
C709 C703 1.491 . S
C709 C708 1.400 . S
C709 C710 1.398 . S
C710 H698 0.950 . S
C710 C709 1.398 . S
C710 C711 1.391 . S
C711 H699 0.950 . S
C711 C707 1.393 . S
C711 C710 1.391 . S
H712 C720 0.950 . S
H713 C725 0.950 . S
H714 C722 0.950 . S
H715 C724 0.950 . S
H716 C726 0.950 . S
H717 C728 0.950 . S
H718 C730 0.950 1_655 S
H719 C731 0.950 . S
C720 H712 0.950 . S
C720 C721 1.386 . S
C720 C722 1.391 . S
C721 C720 1.386 . S
C721 C725 1.393 1_655 S
C722 H714 0.950 . S
C722 C720 1.391 . S
C722 C723 1.400 1_655 S
C723 C722 1.400 1_455 S
C723 C724 1.398 . S
C723 C729 1.491 . S
C724 H715 0.950 . S
C724 C723 1.398 . S
C724 C725 1.391 . S
C725 H713 0.950 . S
C725 C721 1.393 1_455 S
C725 C724 1.391 . S
C726 H716 0.950 . S
C726 C727 1.386 . S
C726 C728 1.391 1_556 S
C727 C726 1.386 . S
C727 C731 1.393 . S
C728 H717 0.950 . S
C728 C726 1.391 1_554 S
C728 C729 1.400 . S
C729 C723 1.491 . S
C729 C728 1.400 . S
C729 C730 1.398 1_554 S
C730 H718 0.950 1_455 S
C730 C729 1.398 1_556 S
C730 C731 1.391 . S
C731 H719 0.950 . S
C731 C727 1.393 . S
C731 C730 1.391 . S
H732 C740 0.962 . S
H733 C745 0.954 . S
H734 C742 0.950 1_556 S
H735 C744 0.950 . S
H736 C746 0.950 . S
H737 C748 0.950 . S
H738 C750 0.950 . S
H739 C751 0.950 . S
C740 H732 0.962 . S
C740 C741 1.391 . S
C740 C742 1.376 1_565 S
C741 C740 1.391 . S
C741 C745 1.393 1_565 S
C742 H734 0.950 1_554 S
C742 C740 1.376 1_545 S
C742 C743 1.400 . S
C743 C742 1.400 . S
C743 C744 1.398 . S
C743 C749 1.491 . S
C744 H735 0.950 . S
C744 C743 1.398 . S
C744 C745 1.391 . S
C745 H733 0.954 . S
C745 C741 1.393 1_545 S
C745 C744 1.391 . S
C746 H736 0.950 . S
C746 C747 1.386 1_554 S
C746 C748 1.391 . S
C747 C746 1.386 1_556 S
C747 C751 1.393 . S
C748 H737 0.950 . S
C748 C746 1.391 . S
C748 C749 1.400 . S
C749 C743 1.491 . S
C749 C748 1.400 . S
C749 C750 1.398 1_554 S
C750 H738 0.950 . S
C750 C749 1.398 1_556 S
C750 C751 1.391 . S
C751 H739 0.950 . S
C751 C747 1.393 . S
C751 C750 1.391 . S
H752 C760 0.950 . S
H753 C765 0.950 . S
H754 C762 0.950 1_556 S
H755 C764 0.950 . S
H756 C766 0.950 . S
H757 C768 0.950 . S
H758 C770 0.950 . S
H759 C771 0.950 . S
C760 H752 0.950 . S
C760 C761 1.386 . S
C760 C762 1.391 . S
C761 C760 1.386 . S
C761 C765 1.393 . S
C762 H754 0.950 1_554 S
C762 C760 1.391 . S
C762 C763 1.400 . S
C763 C762 1.400 . S
C763 C764 1.398 . S
C763 C769 1.491 . S
C764 H755 0.950 . S
C764 C763 1.398 . S
C764 C765 1.391 . S
C765 H753 0.950 . S
C765 C761 1.393 . S
C765 C764 1.391 . S
C766 H756 0.950 . S
C766 C767 1.386 1_554 S
C766 C768 1.391 . S
C767 C766 1.386 1_556 S
C767 C771 1.393 . S
C768 H757 0.950 . S
C768 C766 1.391 . S
C768 C769 1.400 . S
C769 C763 1.491 . S
C769 C768 1.400 . S
C769 C770 1.398 1_554 S
C770 H758 0.950 . S
C770 C769 1.398 1_556 S
C770 C771 1.391 . S
C771 H759 0.950 . S
C771 C767 1.393 . S
C771 C770 1.391 . S
H772 C780 0.950 . S
H773 C785 0.950 . S
H774 C782 0.950 . S
H775 C784 0.950 1_556 S
H776 C786 0.950 . S
H777 C788 0.950 . S
H778 C790 0.950 . S
H779 C791 0.950 . S
C780 H772 0.950 . S
C780 C781 1.386 . S
C780 C782 1.391 . S
C781 C780 1.386 . S
C781 C785 1.393 . S
C782 H774 0.950 . S
C782 C780 1.391 . S
C782 C783 1.400 . S
C783 C782 1.400 . S
C783 C784 1.398 . S
C783 C789 1.491 . S
C784 H775 0.950 1_554 S
C784 C783 1.398 . S
C784 C785 1.391 . S
C785 H773 0.950 . S
C785 C781 1.393 . S
C785 C784 1.391 . S
C786 H776 0.950 . S
C786 C787 1.386 . S
C786 C788 1.391 . S
C787 C786 1.386 . S
C787 C791 1.393 1_556 S
C788 H777 0.950 . S
C788 C786 1.391 . S
C788 C789 1.400 1_556 S
C789 C783 1.491 . S
C789 C788 1.400 1_554 S
C789 C790 1.398 . S
C790 H778 0.950 . S
C790 C789 1.398 . S
C790 C791 1.391 . S
C791 H779 0.950 . S
C791 C787 1.393 1_554 S
C791 C790 1.391 . S
H792 C800 0.950 . S
H793 C805 0.950 . S
H794 C802 0.950 . S
H795 C804 0.950 . S
H796 C806 0.950 . S
H797 C808 0.950 . S
H798 C810 0.950 . S
H799 C811 0.950 . S
C800 H792 0.950 . S
C800 C801 1.386 1_655 S
C800 C802 1.391 . S
C801 C800 1.386 1_455 S
C801 C805 1.393 . S
C802 H794 0.950 . S
C802 C800 1.391 . S
C802 C803 1.400 1_655 S
C803 C802 1.400 1_455 S
C803 C804 1.398 . S
C803 C809 1.491 . S
C804 H795 0.950 . S
C804 C803 1.398 . S
C804 C805 1.391 . S
C805 H793 0.950 . S
C805 C801 1.393 . S
C805 C804 1.391 . S
C806 H796 0.950 . S
C806 C807 1.386 . S
C806 C808 1.391 . S
C807 C806 1.386 . S
C807 C811 1.393 1_455 S
C808 H797 0.950 . S
C808 C806 1.391 . S
C808 C809 1.400 . S
C809 C803 1.491 . S
C809 C808 1.400 . S
C809 C810 1.398 1_455 S
C810 H798 0.950 . S
C810 C809 1.398 1_655 S
C810 C811 1.391 . S
C811 H799 0.950 . S
C811 C807 1.393 1_655 S
C811 C810 1.391 . S
H812 C820 0.950 . S
H813 C825 0.950 . S
H814 C822 0.950 . S
H815 C824 0.962 . S
H816 C826 0.950 1_565 S
H817 C828 0.941 1_565 S
H818 C830 0.950 . S
H819 C831 0.950 . S
C820 H812 0.950 . S
C820 C821 1.386 . S
C820 C822 1.391 . S
C821 C820 1.386 . S
C821 C825 1.393 1_545 S
C822 H814 0.950 . S
C822 C820 1.391 . S
C822 C823 1.400 . S
C823 C822 1.400 . S
C823 C824 1.385 1_545 S
C823 C829 1.491 . S
C824 H815 0.962 . S
C824 C823 1.385 1_565 S
C824 C825 1.395 . S
C825 H813 0.950 . S
C825 C821 1.393 1_565 S
C825 C824 1.395 . S
C826 H816 0.950 1_545 S
C826 C827 1.386 . S
C826 C828 1.393 . S
C827 C826 1.386 . S
C827 C831 1.393 . S
C828 H817 0.941 1_545 S
C828 C826 1.393 . S
C828 C829 1.407 . S
C829 C823 1.491 . S
C829 C828 1.407 . S
C829 C830 1.398 . S
C830 H818 0.950 . S
C830 C829 1.398 . S
C830 C831 1.391 . S
C831 H819 0.950 . S
C831 C827 1.393 . S
C831 C830 1.391 . S
H832 C840 0.950 . S
H833 C845 0.950 . S
H834 C842 0.950 . S
H835 C844 0.950 . S
H836 C846 0.950 . S
H837 C848 0.950 . S
H838 C850 0.950 . S
H839 C851 0.950 . S
C840 H832 0.950 . S
C840 C841 1.386 . S
C840 C842 1.391 . S
C841 C840 1.386 . S
C841 C845 1.393 . S
C842 H834 0.950 . S
C842 C840 1.391 . S
C842 C843 1.400 . S
C843 C842 1.400 . S
C843 C844 1.398 . S
C843 C849 1.491 . S
C844 H835 0.950 . S
C844 C843 1.398 . S
C844 C845 1.391 . S
C845 H833 0.950 . S
C845 C841 1.393 . S
C845 C844 1.391 . S
C846 H836 0.950 . S
C846 C847 1.386 . S
C846 C848 1.391 . S
C847 C846 1.386 . S
C847 C851 1.393 . S
C848 H837 0.950 . S
C848 C846 1.391 . S
C848 C849 1.400 . S
C849 C843 1.491 . S
C849 C848 1.400 . S
C849 C850 1.398 . S
C850 H838 0.950 . S
C850 C849 1.398 . S
C850 C851 1.391 . S
C851 H839 0.950 . S
C851 C847 1.393 . S
C851 C850 1.391 . S
H852 C860 0.950 . S
H853 C865 0.950 . S
H854 C862 0.950 . S
H855 C864 0.950 . S
H856 C866 0.950 . S
H857 C868 0.950 . S
H858 C870 0.950 . S
H859 C871 0.950 . S
C860 H852 0.950 . S
C860 C861 1.386 . S
C860 C862 1.391 . S
C861 C860 1.386 . S
C861 C865 1.393 . S
C862 H854 0.950 . S
C862 C860 1.391 . S
C862 C863 1.400 . S
C863 C862 1.400 . S
C863 C864 1.398 . S
C863 C869 1.491 . S
C864 H855 0.950 . S
C864 C863 1.398 . S
C864 C865 1.391 . S
C865 H853 0.950 . S
C865 C861 1.393 . S
C865 C864 1.391 . S
C866 H856 0.950 . S
C866 C867 1.386 . S
C866 C868 1.391 . S
C867 C866 1.386 . S
C867 C871 1.393 . S
C868 H857 0.950 . S
C868 C866 1.391 . S
C868 C869 1.400 . S
C869 C863 1.491 . S
C869 C868 1.400 . S
C869 C870 1.398 . S
C870 H858 0.950 . S
C870 C869 1.398 . S
C870 C871 1.391 . S
C871 H859 0.950 . S
C871 C867 1.393 . S
C871 C870 1.391 . S
H872 C880 0.950 . S
H873 C885 0.950 . S
H874 C882 0.950 . S
H875 C884 0.950 . S
H876 C886 0.950 . S
H877 C888 0.950 . S
H878 C890 0.954 . S
H879 C891 0.932 1_455 S
C880 H872 0.950 . S
C880 C881 1.386 1_455 S
C880 C882 1.391 . S
C881 C880 1.386 1_655 S
C881 C885 1.393 . S
C882 H874 0.950 . S
C882 C880 1.391 . S
C882 C883 1.400 1_455 S
C883 C882 1.400 1_655 S
C883 C884 1.398 . S
C883 C889 1.491 . S
C884 H875 0.950 . S
C884 C883 1.398 . S
C884 C885 1.391 . S
C885 H873 0.950 . S
C885 C881 1.393 . S
C885 C884 1.391 . S
C886 H876 0.950 . S
C886 C887 1.386 . S
C886 C888 1.391 . S
C887 C886 1.386 . S
C887 C891 1.415 . S
C888 H877 0.950 . S
C888 C886 1.391 . S
C888 C889 1.400 . S
C889 C883 1.491 . S
C889 C888 1.400 . S
C889 C890 1.395 1_655 S
C890 H878 0.954 . S
C890 C889 1.395 1_455 S
C890 C891 1.389 1_455 S
C891 H879 0.932 1_655 S
C891 C887 1.415 . S
C891 C890 1.389 1_655 S
H892 C900 0.950 . S
H893 C905 0.950 . S
H894 C902 0.950 . S
H895 C904 0.950 . S
H896 C906 0.950 . S
H897 C908 0.950 . S
H898 C910 0.950 . S
H899 C911 0.950 . S
C900 H892 0.950 . S
C900 C901 1.386 . S
C900 C902 1.391 . S
C901 C900 1.386 . S
C901 C905 1.393 1_565 S
C902 H894 0.950 . S
C902 C900 1.391 . S
C902 C903 1.400 . S
C903 C902 1.400 . S
C903 C904 1.398 1_565 S
C903 C909 1.491 . S
C904 H895 0.950 . S
C904 C903 1.398 1_545 S
C904 C905 1.391 . S
C905 H893 0.950 . S
C905 C901 1.393 1_545 S
C905 C904 1.391 . S
C906 H896 0.950 . S
C906 C907 1.386 1_545 S
C906 C908 1.391 . S
C907 C906 1.386 1_565 S
C907 C911 1.393 . S
C908 H897 0.950 . S
C908 C906 1.391 . S
C908 C909 1.400 1_545 S
C909 C903 1.491 . S
C909 C908 1.400 1_565 S
C909 C910 1.398 . S
C910 H898 0.950 . S
C910 C909 1.398 . S
C910 C911 1.391 . S
C911 H899 0.950 . S
C911 C907 1.393 . S
C911 C910 1.391 . S
H912 C920 0.950 . S
H913 C925 0.950 . S
H914 C922 0.950 . S
H915 C924 0.950 . S
H916 C926 0.950 . S
H917 C928 0.950 . S
H918 C930 0.950 . S
H919 C931 0.950 . S
C920 H912 0.950 . S
C920 C921 1.386 . S
C920 C922 1.391 . S
C921 C920 1.386 . S
C921 C925 1.393 . S
C922 H914 0.950 . S
C922 C920 1.391 . S
C922 C923 1.400 . S
C923 C922 1.400 . S
C923 C924 1.398 . S
C923 C929 1.491 . S
C924 H915 0.950 . S
C924 C923 1.398 . S
C924 C925 1.391 . S
C925 H913 0.950 . S
C925 C921 1.393 . S
C925 C924 1.391 . S
C926 H916 0.950 . S
C926 C927 1.386 . S
C926 C928 1.391 . S
C927 C926 1.386 . S
C927 C931 1.393 . S
C928 H917 0.950 . S
C928 C926 1.391 . S
C928 C929 1.400 . S
C929 C923 1.491 . S
C929 C928 1.400 . S
C929 C930 1.398 . S
C930 H918 0.950 . S
C930 C929 1.398 . S
C930 C931 1.391 . S
C931 H919 0.950 . S
C931 C927 1.393 . S
C931 C930 1.391 . S
H932 C940 0.950 . S
H933 C945 0.950 . S
H934 C942 0.950 . S
H935 C944 0.950 . S
H936 C946 0.950 . S
H937 C948 0.950 . S
H938 C950 0.950 . S
H939 C951 0.950 . S
C940 H932 0.950 . S
C940 C941 1.386 . S
C940 C942 1.391 . S
C941 C940 1.386 . S
C941 C945 1.393 . S
C942 H934 0.950 . S
C942 C940 1.391 . S
C942 C943 1.400 . S
C943 C942 1.400 . S
C943 C944 1.398 . S
C943 C949 1.491 . S
C944 H935 0.950 . S
C944 C943 1.398 . S
C944 C945 1.391 . S
C945 H933 0.950 . S
C945 C941 1.393 . S
C945 C944 1.391 . S
C946 H936 0.950 . S
C946 C947 1.386 . S
C946 C948 1.391 . S
C947 C946 1.386 . S
C947 C951 1.393 . S
C948 H937 0.950 . S
C948 C946 1.391 . S
C948 C949 1.400 . S
C949 C943 1.491 . S
C949 C948 1.400 . S
C949 C950 1.398 . S
C950 H938 0.950 . S
C950 C949 1.398 . S
C950 C951 1.391 . S
C951 H939 0.950 . S
C951 C947 1.393 . S
C951 C950 1.391 . S
C481 C255 2.156 1_545 S
C487 C321 2.340 1_545 S
C507 C361 2.365 . S
C501 C294 2.137 . S
C527 C401 2.359 . S
C521 C177 2.187 . S
C547 C441 2.354 1_455 S
C541 C216 2.162 1_455 S
C567 C330 2.350 1_565 S
C561 C99 2.182 . S
C581 C138 2.145 . S
C587 C370 2.364 . S
C601 C21 2.169 . S
C607 C410 2.352 . S
C621 C60 2.178 1_455 S
C627 C450 2.357 1_655 S
C647 C327 0.425 . S
C641 C196 0.381 1_455 S
C667 C367 0.423 . S
C661 C235 0.384 1_545 S
C687 C407 0.448 . S
C681 C289 0.447 . S
C701 C157 0.380 . S
C707 C447 0.383 . S
C721 C40 0.385 . S
C727 C318 0.431 . S
C747 C358 0.476 . S
C741 C79 0.432 . S
C767 C398 0.441 . S
C761 C133 0.388 . S
C781 C1 0.369 . S
C787 C438 0.391 . S
C801 C211 2.835 . S
C807 C331 3.204 . S
C821 C250 2.797 . S
C827 C371 3.184 . S
C847 C411 3.194 . S
C841 C274 2.805 . S
C867 C451 3.195 . S
C861 C172 2.793 . S
C881 C55 2.817 1_655 S
C887 C322 3.217 . S
C907 C362 3.193 . S
C901 C94 2.812 1_565 S
C927 C402 3.189 . S
C921 C118 2.824 . S
C941 C16 2.799 . S
C947 C442 3.200 . S
