# Generated by pormake.
# Topology apo, (3,6)-cn, num edge types: 1
# Building blocks:
#     Node 0, Type 0, BuildingBlock: BELTOD_clean_linker_0, # of connection points: 3
#     Node 1, Type 0, BuildingBlock: BELTOD_clean_linker_0, # of connection points: 3
#     Node 2, Type 0, BuildingBlock: BELTOD_clean_linker_0, # of connection points: 3
#     Node 3, Type 0, BuildingBlock: BELTOD_clean_linker_0, # of connection points: 3
#     Node 4, Type 0, BuildingBlock: BELTOD_clean_linker_0, # of connection points: 3
#     Node 5, Type 0, BuildingBlock: BELTOD_clean_linker_0, # of connection points: 3
#     Node 6, Type 0, BuildingBlock: BELTOD_clean_linker_0, # of connection points: 3
#     Node 7, Type 0, BuildingBlock: BELTOD_clean_linker_0, # of connection points: 3
#     Node 8, Type 1, BuildingBlock: KUMBOL_clean_sbu_1, # of connection points: 6
#     Node 9, Type 1, BuildingBlock: KUMBOL_clean_sbu_1, # of connection points: 6
#     Node 10, Type 1, BuildingBlock: KUMBOL_clean_sbu_1, # of connection points: 6
#     Node 11, Type 1, BuildingBlock: KUMBOL_clean_sbu_1, # of connection points: 6
#     Edge 12, Type (0, 1), BuildingBlock: ZUJKAS_clean_linker_0, # of connection points: 2
#     Edge 13, Type (0, 1), BuildingBlock: ZUJKAS_clean_linker_0, # of connection points: 2
#     Edge 14, Type (0, 1), BuildingBlock: ZUJKAS_clean_linker_0, # of connection points: 2
#     Edge 15, Type (0, 1), BuildingBlock: ZUJKAS_clean_linker_0, # of connection points: 2
#     Edge 16, Type (0, 1), BuildingBlock: ZUJKAS_clean_linker_0, # of connection points: 2
#     Edge 17, Type (0, 1), BuildingBlock: ZUJKAS_clean_linker_0, # of connection points: 2
#     Edge 18, Type (0, 1), BuildingBlock: ZUJKAS_clean_linker_0, # of connection points: 2
#     Edge 19, Type (0, 1), BuildingBlock: ZUJKAS_clean_linker_0, # of connection points: 2
#     Edge 20, Type (0, 1), BuildingBlock: ZUJKAS_clean_linker_0, # of connection points: 2
#     Edge 21, Type (0, 1), BuildingBlock: ZUJKAS_clean_linker_0, # of connection points: 2
#     Edge 22, Type (0, 1), BuildingBlock: ZUJKAS_clean_linker_0, # of connection points: 2
#     Edge 23, Type (0, 1), BuildingBlock: ZUJKAS_clean_linker_0, # of connection points: 2
#     Edge 24, Type (0, 1), BuildingBlock: ZUJKAS_clean_linker_0, # of connection points: 2
#     Edge 25, Type (0, 1), BuildingBlock: ZUJKAS_clean_linker_0, # of connection points: 2
#     Edge 26, Type (0, 1), BuildingBlock: ZUJKAS_clean_linker_0, # of connection points: 2
#     Edge 27, Type (0, 1), BuildingBlock: ZUJKAS_clean_linker_0, # of connection points: 2
#     Edge 28, Type (0, 1), BuildingBlock: ZUJKAS_clean_linker_0, # of connection points: 2
#     Edge 29, Type (0, 1), BuildingBlock: ZUJKAS_clean_linker_0, # of connection points: 2
#     Edge 30, Type (0, 1), BuildingBlock: ZUJKAS_clean_linker_0, # of connection points: 2
#     Edge 31, Type (0, 1), BuildingBlock: ZUJKAS_clean_linker_0, # of connection points: 2
#     Edge 32, Type (0, 1), BuildingBlock: ZUJKAS_clean_linker_0, # of connection points: 2
#     Edge 33, Type (0, 1), BuildingBlock: ZUJKAS_clean_linker_0, # of connection points: 2
#     Edge 34, Type (0, 1), BuildingBlock: ZUJKAS_clean_linker_0, # of connection points: 2
#     Edge 35, Type (0, 1), BuildingBlock: ZUJKAS_clean_linker_0, # of connection points: 2
# Relax obj value: 0.010
# Max RMSD: 0.099
# Mean RMSD: 0.074
data_MOF--net-apo--node1-KUMBOL_clean_sbu_1--node2-BELTOD_clean_linker_0--edge1-ZUJKAS_clean_linker_0
_symmetry_space_group_name_H-M    P1
_symmetry_Int_Tables_number       1
_symmetry_cell_setting            triclinic
loop_
_symmetry_equiv_pos_as_xyz
'x, y, z'
_cell_length_a     34.588477
_cell_length_b     61.303674
_cell_length_c     73.342299
_cell_angle_alpha  89.709153
_cell_angle_beta   89.960395
_cell_angle_gamma 90.206877
loop_
_atom_site_label
_atom_site_type_symbol
_atom_site_fract_x
_atom_site_fract_y
_atom_site_fract_z
_atom_type_partial_charge
P0 P 0.3453 0.35613 0.41081 0.0
H1 H 0.37362 0.3273 0.43948 0.0
H2 H 0.37319 0.32967 0.4727 0.0
H3 H 0.30418 0.3882 0.46921 0.0
H4 H 0.30549 0.3859 0.43589 0.0
H5 H 0.34378 0.33567 0.37537 0.0
H6 H 0.29549 0.31396 0.35927 0.0
H7 H 0.21951 0.31779 0.40591 0.0
H8 H 0.2682 0.33975 0.422 0.0
H9 H 0.39203 0.39461 0.41816 0.0
H10 H 0.29797 0.37751 0.38229 0.0
O11 O 0.38866 0.34569 0.40613 0.0
H12 H 0.39763 0.43019 0.40304 0.0
H13 H 0.30361 0.41287 0.36713 0.0
C14 C 0.34032 0.35668 0.43525 0.0
C15 C 0.3582 0.34057 0.44588 0.0
C16 C 0.3577 0.34187 0.4649 0.0
C17 C 0.33901 0.35927 0.47366 0.0
C18 C 0.31954 0.37484 0.46291 0.0
C19 C 0.32008 0.3735 0.44386 0.0
C20 C 0.30977 0.33905 0.39994 0.0
C21 C 0.31686 0.33171 0.3822 0.0
C22 C 0.28909 0.31947 0.37296 0.0
C23 C 0.25365 0.31425 0.3813 0.0
C24 C 0.24669 0.32146 0.3992 0.0
C25 C 0.27446 0.33398 0.40839 0.0
C26 C 0.34482 0.38333 0.40132 0.0
C27 C 0.37222 0.39863 0.40723 0.0
C28 C 0.3753 0.41897 0.39861 0.0
C29 C 0.35123 0.42425 0.3838 0.0
C30 C 0.32289 0.40914 0.37834 0.0
C31 C 0.31963 0.38889 0.38707 0.0
P32 P 0.26987 0.10486 0.92157 0.0
H33 H 0.2969 0.06845 0.89973 0.0
H34 H 0.26438 0.04316 0.87919 0.0
H35 H 0.15604 0.07607 0.88886 0.0
H36 H 0.18888 0.10119 0.90969 0.0
H37 H 0.3454 0.12523 0.91534 0.0
H38 H 0.3664 0.15595 0.89653 0.0
H39 H 0.24815 0.167 0.87997 0.0
H40 H 0.22721 0.13639 0.89925 0.0
H41 H 0.21198 0.08103 0.94296 0.0
H42 H 0.26742 0.14412 0.9441 0.0
O43 O 0.30907 0.09227 0.92961 0.0
H44 H 0.18085 0.08865 0.97214 0.0
H45 H 0.23639 0.15185 0.97334 0.0
C46 C 0.24511 0.08633 0.90657 0.0
C47 C 0.26609 0.07014 0.89753 0.0
C48 C 0.24751 0.05581 0.88564 0.0
C49 C 0.20756 0.05753 0.88242 0.0
C50 C 0.18672 0.07409 0.89127 0.0
C51 C 0.20543 0.08847 0.90315 0.0
C52 C 0.28478 0.1284 0.90854 0.0
C53 C 0.32392 0.13428 0.90774 0.0
C54 C 0.33595 0.15181 0.89687 0.0
C55 C 0.30903 0.16381 0.88657 0.0
C56 C 0.26961 0.15819 0.8878 0.0
C57 C 0.25761 0.14062 0.89872 0.0
C58 C 0.24121 0.11224 0.94109 0.0
C59 C 0.21653 0.0968 0.94921 0.0
C60 C 0.19877 0.10116 0.96592 0.0
C61 C 0.20609 0.12088 0.97504 0.0
C62 C 0.23029 0.13649 0.96668 0.0
C63 C 0.24778 0.13216 0.94989 0.0
P64 P 0.84833 0.14545 0.59518 0.0
H65 H 0.84103 0.17828 0.56668 0.0
H66 H 0.83943 0.17611 0.5334 0.0
H67 H 0.8381 0.10575 0.537 0.0
H68 H 0.83979 0.10803 0.57022 0.0
H69 H 0.84593 0.16405 0.63133 0.0
H70 H 0.7989 0.18651 0.64737 0.0
H71 H 0.72291 0.18358 0.60069 0.0
H72 H 0.77044 0.16111 0.58465 0.0
H73 H 0.91226 0.11486 0.59648 0.0
H74 H 0.79529 0.11765 0.61667 0.0
O75 O 0.89019 0.15865 0.59792 0.0
H76 H 0.92122 0.07963 0.61159 0.0
H77 H 0.80394 0.08227 0.63179 0.0
C78 C 0.8405 0.14337 0.57095 0.0
C79 C 0.83969 0.16239 0.5603 0.0
C80 C 0.8387 0.16112 0.54127 0.0
C81 C 0.83886 0.14074 0.53254 0.0
C82 C 0.83846 0.12168 0.54331 0.0
C83 C 0.83921 0.12299 0.56235 0.0
C84 C 0.81195 0.1612 0.60674 0.0
C85 C 0.81911 0.16821 0.62456 0.0
C86 C 0.79205 0.18093 0.63376 0.0
C87 C 0.75712 0.18689 0.62531 0.0
C88 C 0.74974 0.17951 0.60749 0.0
C89 C 0.77686 0.16663 0.59832 0.0
C90 C 0.85342 0.11903 0.60576 0.0
C91 C 0.88848 0.10784 0.60415 0.0
C92 C 0.89344 0.08762 0.61268 0.0
C93 C 0.86334 0.07818 0.62297 0.0
C94 C 0.82785 0.08925 0.62418 0.0
C95 C 0.82285 0.10946 0.61552 0.0
P96 P 0.77019 0.3985 0.08616 0.0
H97 H 0.79583 0.42643 0.11568 0.0
H98 H 0.76196 0.45085 0.13648 0.0
H99 H 0.6531 0.4327 0.11189 0.0
H100 H 0.68728 0.40822 0.09112 0.0
H101 H 0.83526 0.36894 0.0817 0.0
H102 H 0.85637 0.33658 0.09849 0.0
H103 H 0.75469 0.34053 0.13258 0.0
H104 H 0.73397 0.37306 0.11578 0.0
H105 H 0.72993 0.42768 0.06124 0.0
H106 H 0.75448 0.35888 0.06469 0.0
O107 O 0.81086 0.4115 0.08033 0.0
H108 H 0.69978 0.42233 0.03148 0.0
H109 H 0.72567 0.35348 0.03471 0.0
C110 C 0.74419 0.41597 0.10156 0.0
C111 C 0.76467 0.42774 0.11474 0.0
C112 C 0.74524 0.44157 0.12672 0.0
C113 C 0.70485 0.44383 0.12575 0.0
C114 C 0.68428 0.43158 0.11277 0.0
C115 C 0.70379 0.41759 0.10088 0.0
C116 C 0.7835 0.37364 0.09773 0.0
C117 C 0.81746 0.36279 0.09275 0.0
C118 C 0.82935 0.34419 0.10229 0.0
C119 C 0.80738 0.33605 0.11699 0.0
C120 C 0.77261 0.3466 0.12153 0.0
C121 C 0.76066 0.36516 0.11191 0.0
C122 C 0.74388 0.39366 0.06534 0.0
C123 C 0.7284 0.41137 0.05568 0.0
C124 C 0.71154 0.40831 0.03855 0.0
C125 C 0.71035 0.38747 0.0306 0.0
C126 C 0.72547 0.36969 0.04049 0.0
C127 C 0.74215 0.37278 0.05767 0.0
P128 P 0.77936 0.60547 0.58603 0.0
H129 H 0.78515 0.64035 0.55896 0.0
H130 H 0.75249 0.64672 0.52986 0.0
H131 H 0.68076 0.58993 0.53953 0.0
H132 H 0.7127 0.58409 0.56871 0.0
H133 H 0.84655 0.61601 0.60811 0.0
H134 H 0.86404 0.6476 0.62649 0.0
H135 H 0.75668 0.67876 0.61151 0.0
H136 H 0.73912 0.64678 0.59328 0.0
H137 H 0.77899 0.55793 0.58683 0.0
H138 H 0.72547 0.61007 0.6168 0.0
O139 O 0.82027 0.59425 0.57856 0.0
H140 H 0.74703 0.53114 0.60649 0.0
H141 H 0.69427 0.58342 0.63692 0.0
C142 C 0.75093 0.61201 0.56618 0.0
C143 C 0.76175 0.6296 0.55499 0.0
C144 C 0.74332 0.63307 0.53826 0.0
C145 C 0.71401 0.61881 0.53229 0.0
C146 C 0.70272 0.60147 0.54379 0.0
C147 C 0.72112 0.59806 0.56052 0.0
C148 C 0.79201 0.62931 0.59899 0.0
C149 C 0.82693 0.62973 0.60863 0.0
C150 C 0.83694 0.64783 0.61911 0.0
C151 C 0.81196 0.66583 0.6203 0.0
C152 C 0.77652 0.66515 0.61089 0.0
C153 C 0.76659 0.64699 0.60035 0.0
C154 C 0.75526 0.58598 0.6006 0.0
C155 C 0.76065 0.56361 0.59778 0.0
C156 C 0.74246 0.54831 0.60909 0.0
C157 C 0.7184 0.5551 0.62345 0.0
C158 C 0.71241 0.5776 0.62595 0.0
C159 C 0.73052 0.59289 0.61455 0.0
P160 P 0.83031 0.86172 0.09722 0.0
H161 H 0.83669 0.87237 0.13559 0.0
H162 H 0.84208 0.90684 0.1521 0.0
H163 H 0.83252 0.9423 0.1013 0.0
H164 H 0.82618 0.90781 0.08487 0.0
H165 H 0.81414 0.81544 0.09317 0.0
H166 H 0.76614 0.79112 0.10696 0.0
H167 H 0.71262 0.84644 0.13307 0.0
H168 H 0.75944 0.87065 0.11847 0.0
H169 H 0.88812 0.87958 0.07267 0.0
H170 H 0.77453 0.85096 0.06795 0.0
O171 O 0.87101 0.84884 0.10287 0.0
H172 H 0.8923 0.88271 0.03949 0.0
H173 H 0.77858 0.85396 0.03466 0.0
C174 C 0.83121 0.88748 0.10901 0.0
C175 C 0.8353 0.88758 0.12802 0.0
C176 C 0.83824 0.90726 0.13745 0.0
C177 C 0.83779 0.92723 0.12797 0.0
C178 C 0.83323 0.92712 0.10892 0.0
C179 C 0.82963 0.90739 0.09952 0.0
C180 C 0.79089 0.84477 0.10509 0.0
C181 C 0.79165 0.82233 0.10164 0.0
C182 C 0.76435 0.80843 0.10968 0.0
C183 C 0.73587 0.8167 0.12148 0.0
C184 C 0.73396 0.83942 0.12405 0.0
C185 C 0.76107 0.85333 0.11583 0.0
C186 C 0.83111 0.86501 0.07277 0.0
C187 C 0.86397 0.87409 0.06447 0.0
C188 C 0.86625 0.87594 0.04551 0.0
C189 C 0.83578 0.86856 0.03444 0.0
C190 C 0.80268 0.85959 0.04282 0.0
C191 C 0.80027 0.85795 0.06186 0.0
P192 P 0.26666 0.8966 0.42142 0.0
H193 H 0.29996 0.89157 0.45773 0.0
H194 H 0.27174 0.88437 0.48766 0.0
H195 H 0.15862 0.87905 0.46309 0.0
H196 H 0.18731 0.88612 0.43301 0.0
H197 H 0.29893 0.89302 0.38518 0.0
H198 H 0.31726 0.86214 0.36625 0.0
H199 H 0.27547 0.81777 0.40787 0.0
H200 H 0.25788 0.84891 0.42693 0.0
H201 H 0.25789 0.94371 0.42372 0.0
H202 H 0.20728 0.89103 0.39307 0.0
O203 O 0.30882 0.90914 0.42512 0.0
H204 H 0.22007 0.97005 0.40618 0.0
H205 H 0.16897 0.91727 0.37553 0.0
C206 C 0.24562 0.88975 0.4432 0.0
C207 C 0.26908 0.88887 0.45875 0.0
C208 C 0.25287 0.88486 0.47589 0.0
C209 C 0.21284 0.88146 0.47782 0.0
C210 C 0.18954 0.8816 0.46208 0.0
C211 C 0.20585 0.88572 0.44489 0.0
C212 C 0.27687 0.87327 0.40738 0.0
C213 C 0.29341 0.87663 0.39016 0.0
C214 C 0.30368 0.85893 0.3793 0.0
C215 C 0.29772 0.83741 0.38548 0.0
C216 C 0.28078 0.83411 0.40276 0.0
C217 C 0.27046 0.85191 0.41363 0.0
C218 C 0.23606 0.91551 0.40939 0.0
C219 C 0.23845 0.93782 0.41326 0.0
C220 C 0.21659 0.95284 0.4033 0.0
C221 C 0.19174 0.94578 0.38933 0.0
C222 C 0.18837 0.92327 0.38597 0.0
C223 C 0.21018 0.90825 0.39601 0.0
P224 P 0.34049 0.6436 0.90797 0.0
H225 H 0.34571 0.63215 0.86979 0.0
H226 H 0.355 0.5976 0.85396 0.0
H227 H 0.34937 0.56327 0.90552 0.0
H228 H 0.33894 0.59785 0.92118 0.0
H229 H 0.32778 0.69037 0.90812 0.0
H230 H 0.27751 0.71354 0.89513 0.0
H231 H 0.21448 0.65614 0.8781 0.0
H232 H 0.26542 0.63305 0.89094 0.0
H233 H 0.40074 0.63007 0.93295 0.0
H234 H 0.28229 0.65123 0.93681 0.0
O235 O 0.38093 0.65672 0.90198 0.0
H236 H 0.40539 0.62916 0.96617 0.0
H237 H 0.28695 0.65086 0.97014 0.0
C238 C 0.34186 0.61761 0.89663 0.0
C239 C 0.34593 0.61714 0.87764 0.0
C240 C 0.35157 0.59738 0.86864 0.0
C241 C 0.35348 0.57766 0.87849 0.0
C242 C 0.34785 0.57812 0.8975 0.0
C243 C 0.3421 0.59794 0.9065 0.0
C244 C 0.3007 0.66005 0.90015 0.0
C245 C 0.303 0.68278 0.90169 0.0
C246 C 0.27405 0.69601 0.89437 0.0
C247 C 0.24203 0.68672 0.88543 0.0
C248 C 0.23907 0.66383 0.8846 0.0
C249 C 0.26811 0.6506 0.89199 0.0
C250 C 0.34142 0.64101 0.93244 0.0
C251 C 0.37569 0.63447 0.94099 0.0
C252 C 0.37835 0.63407 0.95997 0.0
C253 C 0.34672 0.64025 0.97083 0.0
C254 C 0.3118 0.64594 0.96219 0.0
C255 C 0.30917 0.64629 0.94312 0.0
C256 C 0.87321 0.12014 0.25018 0.0
C257 C 0.87081 0.08273 0.26107 0.0
C258 C 0.88944 0.10324 0.26029 0.0
C259 C 0.83658 0.0793 0.25118 0.0
C260 C 0.83858 0.11684 0.24042 0.0
C261 C 0.82048 0.09632 0.24091 0.0
N262 N 0.89214 0.13961 0.24933 0.0
C263 C 0.87738 0.15667 0.23962 0.0
C264 C 0.82356 0.13419 0.23017 0.0
C265 C 0.84297 0.15421 0.22984 0.0
Gd266 Gd 0.04886 0.13664 0.2369 0.0
Gd267 Gd 0.94967 0.14222 0.26599 0.0
N268 N 0.92303 0.10691 0.26952 0.0
C269 C 0.88672 0.06636 0.27206 0.0
C270 C 0.9365 0.09159 0.28149 0.0
C271 C 0.91927 0.07096 0.28258 0.0
H272 H 0.95959 0.09526 0.29077 0.0
H273 H 0.93069 0.05877 0.29182 0.0
H274 H 0.03637 0.18179 0.2102 0.0
H275 H 0.89191 0.17225 0.23963 0.0
H276 H 0.06271 0.2188 0.20774 0.0
H277 H 0.8733 0.05039 0.27301 0.0
H278 H 0.8221 0.0636 0.25153 0.0
H279 H 0.10754 0.10962 0.26504 0.0
H280 H 0.79703 0.13229 0.22248 0.0
H281 H 0.83142 0.16776 0.22209 0.0
H282 H 0.17023 0.21889 0.24879 0.0
H283 H 0.79402 0.09342 0.23339 0.0
H284 H 0.19908 0.15275 0.28096 0.0
H285 H 0.16744 0.11651 0.28256 0.0
N286 N 0.10511 0.14172 0.25412 0.0
C287 C 0.12242 0.16162 0.2527 0.0
C288 C 0.12104 0.12551 0.26445 0.0
C289 C 0.17282 0.14981 0.27329 0.0
C290 C 0.155 0.12934 0.27427 0.0
C291 C 0.15666 0.16623 0.26239 0.0
H292 H 0.19984 0.19086 0.26831 0.0
N293 N 0.07223 0.17253 0.23253 0.0
C294 C 0.10516 0.17754 0.24187 0.0
C295 C 0.10613 0.21356 0.22828 0.0
C296 C 0.12262 0.19831 0.24017 0.0
C297 C 0.0585 0.18666 0.21963 0.0
C298 C 0.07437 0.20755 0.21772 0.0
O299 O 0.94687 0.12617 0.23814 0.0
O300 O 0.0056 0.10918 0.23495 0.0
O301 O 0.06466 0.13568 0.20784 0.0
O302 O 0.09395 0.11496 0.22778 0.0
O303 O 0.99969 0.12381 0.27901 0.0
O304 O 0.03309 0.10816 0.25502 0.0
O305 O 0.05111 0.15109 0.26526 0.0
O306 O 0.99384 0.1694 0.2676 0.0
O307 O 0.93698 0.1429 0.29539 0.0
O308 O 0.90613 0.16413 0.27631 0.0
O309 O 0.99769 0.1537 0.2236 0.0
O310 O 0.96677 0.17026 0.24771 0.0
C311 C 0.96829 0.11025 0.23184 0.0
C312 C 0.02313 0.10885 0.27234 0.0
C313 C 0.11636 0.11174 0.19663 0.0
C314 C 0.1394 0.11015 0.16514 0.0
C315 C 0.16976 0.08795 0.1886 0.0
C316 C 0.14455 0.09634 0.20159 0.0
C317 C 0.1674 0.09485 0.17051 0.0
C318 C 0.1136 0.11844 0.17825 0.0
C319 C 0.09129 0.12115 0.21089 0.0
C320 C 0.15657 0.203 0.2499 0.0
C321 C 0.17353 0.18701 0.26097 0.0
H322 H 0.11868 0.22966 0.22659 0.0
C323 C 0.03039 0.16705 0.27187 0.0
C324 C 0.97459 0.16883 0.23021 0.0
C325 C 0.88778 0.1675 0.30804 0.0
C326 C 0.87086 0.17045 0.34033 0.0
C327 C 0.84091 0.19441 0.31798 0.0
C328 C 0.86196 0.18454 0.30409 0.0
C329 C 0.84538 0.18751 0.33597 0.0
C330 C 0.89188 0.16033 0.32624 0.0
C331 C 0.91077 0.1579 0.2931 0.0
H332 H 0.19138 0.07612 0.19258 0.0
H333 H 0.1474 0.09087 0.21559 0.0
H334 H 0.18729 0.08808 0.16065 0.0
H335 H 0.09216 0.13038 0.17423 0.0
H336 H 0.82113 0.20753 0.31478 0.0
H337 H 0.85813 0.1904 0.29026 0.0
H338 H 0.82856 0.19539 0.34651 0.0
H339 H 0.9118 0.14727 0.3295 0.0
C340 C 0.62948 0.38041 0.75705 0.0
C341 C 0.63128 0.41763 0.76809 0.0
C342 C 0.6123 0.39729 0.76668 0.0
C343 C 0.66685 0.42095 0.75922 0.0
C344 C 0.66538 0.3836 0.74829 0.0
C345 C 0.68384 0.40399 0.74935 0.0
N346 N 0.61035 0.36107 0.75572 0.0
C347 C 0.62606 0.34401 0.74649 0.0
C348 C 0.68138 0.36627 0.73851 0.0
C349 C 0.66171 0.34635 0.73769 0.0
Gd350 Gd 0.45467 0.36536 0.73886 0.0
Gd351 Gd 0.5504 0.35871 0.77049 0.0
N352 N 0.57741 0.39374 0.77485 0.0
C353 C 0.61431 0.43394 0.77866 0.0
C354 C 0.56259 0.40899 0.78639 0.0
C355 C 0.58019 0.42944 0.78812 0.0
H356 H 0.53809 0.40536 0.79486 0.0
H357 H 0.56779 0.44157 0.79704 0.0
H358 H 0.47121 0.32185 0.71101 0.0
H359 H 0.61131 0.3285 0.74615 0.0
H360 H 0.44683 0.28461 0.70721 0.0
H361 H 0.62799 0.44976 0.78011 0.0
H362 H 0.68164 0.43652 0.76005 0.0
H363 H 0.39176 0.39039 0.76602 0.0
H364 H 0.7089 0.36808 0.73158 0.0
H365 H 0.67402 0.33279 0.73031 0.0
H366 H 0.33655 0.28078 0.74662 0.0
H367 H 0.71132 0.40679 0.74262 0.0
H368 H 0.30087 0.34526 0.77913 0.0
H369 H 0.33041 0.38191 0.78202 0.0
N370 N 0.39659 0.35886 0.7544 0.0
C371 C 0.38038 0.3388 0.7522 0.0
C372 C 0.37893 0.37438 0.76473 0.0
C373 C 0.3276 0.34894 0.77202 0.0
C374 C 0.34424 0.36964 0.77373 0.0
C375 C 0.34564 0.33321 0.76117 0.0
H376 H 0.30377 0.30748 0.76613 0.0
N377 N 0.43285 0.32957 0.73281 0.0
C378 C 0.39942 0.32362 0.7414 0.0
C379 C 0.40156 0.28821 0.7271 0.0
C380 C 0.38333 0.30264 0.73902 0.0
C381 C 0.44838 0.31625 0.71986 0.0
C382 C 0.43375 0.29522 0.7172 0.0
O383 O 0.55704 0.37587 0.74318 0.0
O384 O 0.49851 0.39271 0.73881 0.0
O385 O 0.44202 0.36817 0.70948 0.0
O386 O 0.41103 0.38781 0.72945 0.0
O387 O 0.4989 0.37676 0.78252 0.0
O388 O 0.4683 0.39302 0.7579 0.0
O389 O 0.44918 0.34972 0.76687 0.0
O390 O 0.50639 0.33155 0.76955 0.0
O391 O 0.55834 0.35727 0.80025 0.0
O392 O 0.59152 0.33615 0.78212 0.0
O393 O 0.50751 0.3491 0.72644 0.0
O394 O 0.53554 0.33159 0.75101 0.0
C395 C 0.53594 0.3915 0.73609 0.0
C396 C 0.47598 0.39179 0.77545 0.0
C397 C 0.39266 0.39367 0.69799 0.0
C398 C 0.3739 0.39842 0.66605 0.0
C399 C 0.34653 0.42173 0.68944 0.0
C400 C 0.36795 0.4109 0.70273 0.0
C401 C 0.34947 0.41561 0.67123 0.0
C402 C 0.39536 0.38735 0.67957 0.0
C403 C 0.41572 0.3829 0.71241 0.0
C404 C 0.34907 0.29689 0.74819 0.0
C405 C 0.33028 0.31213 0.75923 0.0
H406 H 0.39009 0.27197 0.72488 0.0
C407 C 0.46967 0.33359 0.77349 0.0
C408 C 0.53018 0.33387 0.73333 0.0
C409 C 0.60413 0.33159 0.81436 0.0
C410 C 0.62163 0.33022 0.84667 0.0
C411 C 0.64188 0.30133 0.82621 0.0
C412 C 0.62369 0.31181 0.81168 0.0
C413 C 0.64086 0.31041 0.84358 0.0
C414 C 0.60331 0.34084 0.83192 0.0
C415 C 0.58426 0.342 0.79876 0.0
H416 H 0.32757 0.43496 0.69326 0.0
H417 H 0.36524 0.41614 0.71676 0.0
H418 H 0.33219 0.42418 0.6612 0.0
H419 H 0.41443 0.37416 0.67572 0.0
H420 H 0.65688 0.2861 0.82399 0.0
H421 H 0.62471 0.30429 0.79836 0.0
H422 H 0.65568 0.30205 0.85457 0.0
H423 H 0.58824 0.35606 0.83414 0.0
C424 C 0.87385 0.83891 0.75416 0.0
C425 C 0.87771 0.80251 0.7671 0.0
C426 C 0.89279 0.82382 0.76518 0.0
C427 C 0.84476 0.79634 0.75716 0.0
C428 C 0.8403 0.83293 0.74446 0.0
C429 C 0.82612 0.81151 0.74588 0.0
N430 N 0.88912 0.8593 0.75243 0.0
C431 C 0.87146 0.87478 0.74195 0.0
C432 C 0.82231 0.84862 0.73345 0.0
C433 C 0.83783 0.86967 0.73228 0.0
Gd434 Gd 0.04328 0.85803 0.73837 0.0
Gd435 Gd 0.94603 0.86629 0.76871 0.0
N436 N 0.92506 0.83016 0.77445 0.0
C437 C 0.89553 0.78819 0.77936 0.0
C438 C 0.93976 0.81698 0.78781 0.0
C439 C 0.92611 0.79564 0.79007 0.0
H440 H 0.96112 0.82292 0.79723 0.0
H441 H 0.93866 0.78511 0.80035 0.0
H442 H 0.03825 0.90781 0.71789 0.0
H443 H 0.88366 0.891 0.74095 0.0
H444 H 0.07541 0.94188 0.71711 0.0
H445 H 0.88482 0.7717 0.78125 0.0
H446 H 0.8331 0.77996 0.75833 0.0
H447 H 0.09802 0.82211 0.76088 0.0
H448 H 0.79648 0.84465 0.72578 0.0
H449 H 0.82405 0.8819 0.72384 0.0
H450 H 0.18904 0.92606 0.75208 0.0
H451 H 0.8006 0.80654 0.73839 0.0
H452 H 0.20212 0.85429 0.77748 0.0
H453 H 0.16061 0.82132 0.77708 0.0
N454 N 0.10321 0.85534 0.75308 0.0
C455 C 0.12601 0.87344 0.75266 0.0
C456 C 0.11545 0.83669 0.76145 0.0
C457 C 0.17452 0.85475 0.7705 0.0
C458 C 0.15112 0.83613 0.77038 0.0
C459 C 0.16219 0.87368 0.76151 0.0
H460 H 0.21248 0.89331 0.76805 0.0
N461 N 0.07706 0.89138 0.73571 0.0
C462 C 0.11255 0.892 0.74375 0.0
C463 C 0.12132 0.92938 0.73394 0.0
C464 C 0.13531 0.91114 0.74333 0.0
C465 C 0.06438 0.90876 0.72569 0.0
C466 C 0.08593 0.92808 0.72489 0.0
O467 O 0.94244 0.85173 0.74038 0.0
O468 O 0.99767 0.83184 0.73987 0.0
O469 O 0.04819 0.85723 0.7083 0.0
O470 O 0.08206 0.83537 0.7257 0.0
O471 O 0.99845 0.8507 0.78214 0.0
O472 O 0.02532 0.83181 0.75831 0.0
O473 O 0.04958 0.87719 0.76459 0.0
O474 O 0.99032 0.89339 0.76968 0.0
O475 O 0.93053 0.86838 0.79773 0.0
O476 O 0.90199 0.88897 0.77748 0.0
O477 O 0.99492 0.87833 0.72583 0.0
O478 O 0.96039 0.89403 0.74962 0.0
C479 C 0.9621 0.83498 0.73451 0.0
C480 C 0.02082 0.83506 0.77588 0.0
C481 C 0.091 0.83039 0.69343 0.0
C482 C 0.10583 0.82811 0.66089 0.0
C483 C 0.12265 0.79824 0.68126 0.0
C484 C 0.10736 0.80963 0.69596 0.0
C485 C 0.12179 0.80734 0.66384 0.0
C486 C 0.09057 0.83972 0.67581 0.0
C487 C 0.07335 0.84146 0.70924 0.0
C488 C 0.17129 0.91146 0.7522 0.0
C489 C 0.18468 0.8928 0.76127 0.0
H490 H 0.13794 0.94438 0.73329 0.0
C491 C 0.02808 0.89266 0.77163 0.0
C492 C 0.97142 0.89336 0.73242 0.0
C493 C 0.88082 0.89367 0.80875 0.0
C494 C 0.86212 0.89836 0.84068 0.0
C495 C 0.83245 0.92055 0.817 0.0
C496 C 0.85459 0.91013 0.80379 0.0
C497 C 0.83622 0.9148 0.83531 0.0
C498 C 0.88423 0.88768 0.82727 0.0
C499 C 0.90491 0.88341 0.79451 0.0
H500 H 0.1351 0.78225 0.68337 0.0
H501 H 0.10794 0.802 0.70931 0.0
H502 H 0.13406 0.79821 0.65264 0.0
H503 H 0.078 0.85569 0.67365 0.0
H504 H 0.81233 0.9332 0.81302 0.0
H505 H 0.85125 0.91507 0.78968 0.0
H506 H 0.81853 0.92308 0.84529 0.0
H507 H 0.9045 0.8751 0.83129 0.0
C508 C 0.61625 0.6648 0.25287 0.0
C509 C 0.60906 0.7036 0.25815 0.0
C510 C 0.59554 0.68199 0.26031 0.0
C511 C 0.64269 0.70769 0.24791 0.0
C512 C 0.65028 0.6688 0.24278 0.0
C513 C 0.66324 0.69034 0.24026 0.0
N514 N 0.60223 0.64419 0.25493 0.0
C515 C 0.62135 0.62679 0.2478 0.0
C516 C 0.66988 0.65104 0.23525 0.0
C517 C 0.65543 0.62994 0.23785 0.0
Gd518 Gd 0.4464 0.63782 0.24068 0.0
Gd519 Gd 0.5439 0.64048 0.27089 0.0
N520 N 0.56245 0.67758 0.26975 0.0
C521 C 0.58874 0.72044 0.26661 0.0
C522 C 0.54477 0.69373 0.27937 0.0
C523 C 0.55694 0.71541 0.27758 0.0
H524 H 0.5222 0.69004 0.28897 0.0
H525 H 0.5422 0.72818 0.28495 0.0
H526 H 0.46254 0.58497 0.22927 0.0
H527 H 0.61038 0.61047 0.24987 0.0
H528 H 0.43341 0.54909 0.23515 0.0
H529 H 0.59819 0.73724 0.2653 0.0
H530 H 0.65324 0.7242 0.24597 0.0
H531 H 0.38374 0.6744 0.25673 0.0
H532 H 0.69611 0.65344 0.2274 0.0
H533 H 0.67046 0.6161 0.23215 0.0
H534 H 0.31703 0.56503 0.26798 0.0
H535 H 0.68914 0.69376 0.23242 0.0
H536 H 0.28776 0.63993 0.28009 0.0
H537 H 0.32141 0.67471 0.27322 0.0
N538 N 0.38595 0.6399 0.25499 0.0
C539 C 0.36747 0.62064 0.25814 0.0
C540 C 0.36965 0.65917 0.26003 0.0
C541 C 0.3152 0.63972 0.27295 0.0
C542 C 0.33416 0.65938 0.26915 0.0
C543 C 0.33172 0.62002 0.26738 0.0
H544 H 0.2864 0.59904 0.27807 0.0
N545 N 0.41998 0.60251 0.24406 0.0
C546 C 0.38487 0.6014 0.25247 0.0
C547 C 0.38487 0.56212 0.24985 0.0
C548 C 0.36674 0.58114 0.25587 0.0
C549 C 0.43663 0.58411 0.23729 0.0
C550 C 0.41971 0.56366 0.24031 0.0
O551 O 0.5448 0.65155 0.2414 0.0
O552 O 0.48552 0.66721 0.23785 0.0
O553 O 0.44376 0.63146 0.21156 0.0
O554 O 0.40145 0.65247 0.22406 0.0
O555 O 0.48884 0.65591 0.28186 0.0
O556 O 0.45676 0.66871 0.25643 0.0
O557 O 0.44516 0.62344 0.26927 0.0
O558 O 0.5066 0.61054 0.2741 0.0
O559 O 0.55241 0.64579 0.29991 0.0
O560 O 0.59103 0.62461 0.28527 0.0
O561 O 0.49894 0.61933 0.23032 0.0
O562 O 0.53666 0.60919 0.25517 0.0
C563 C 0.52238 0.66616 0.23382 0.0
C564 C 0.46375 0.66916 0.27406 0.0
C565 C 0.4216 0.66127 0.19421 0.0
C566 C 0.41989 0.67109 0.16189 0.0
C567 C 0.44425 0.69691 0.18427 0.0
C568 C 0.43704 0.68189 0.19821 0.0
C569 C 0.43579 0.69159 0.16623 0.0
C570 C 0.41293 0.65594 0.17605 0.0
C571 C 0.41549 0.64508 0.20884 0.0
C572 C 0.33124 0.58046 0.26517 0.0
C573 C 0.31379 0.59984 0.2709 0.0
H574 H 0.37192 0.54624 0.25222 0.0
C575 C 0.46916 0.60953 0.27677 0.0
C576 C 0.52555 0.60694 0.23806 0.0
C577 C 0.57551 0.61501 0.31561 0.0
C578 C 0.57904 0.60467 0.34779 0.0
C579 C 0.55329 0.57924 0.32547 0.0
C580 C 0.55971 0.59447 0.31159 0.0
C581 C 0.56279 0.58427 0.34345 0.0
C582 C 0.5853 0.62002 0.33371 0.0
C583 C 0.58017 0.6316 0.30117 0.0
H584 H 0.45626 0.71276 0.18746 0.0
H585 H 0.44344 0.68638 0.21213 0.0
H586 H 0.44111 0.70369 0.1557 0.0
H587 H 0.40132 0.63993 0.17296 0.0
H588 H 0.54098 0.56345 0.32226 0.0
H589 H 0.55229 0.59023 0.29774 0.0
H590 H 0.558 0.57205 0.35394 0.0
H591 H 0.59716 0.63596 0.33685 0.0
H592 H 0.18165 0.94539 0.35232 0.0
H593 H 0.15047 0.97308 0.33329 0.0
H594 H 0.12327 0.01044 0.38124 0.0
H595 H 0.15435 0.9828 0.4004 0.0
H596 H 0.07502 0.98919 0.33337 0.0
H597 H 0.18128 0.05452 0.34925 0.0
H598 H 0.18981 0.0262 0.35469 0.0
H599 H 0.15874 0.04232 0.36889 0.0
C600 C 0.16864 0.95936 0.35885 0.0
C601 C 0.1707 0.96195 0.37788 0.0
C602 C 0.151 0.97523 0.34794 0.0
C603 C 0.13519 0.99401 0.35582 0.0
C604 C 0.13613 0.99633 0.37484 0.0
H605 H 0.02481 0.10927 0.30967 0.0
H606 H 0.05045 0.08113 0.33013 0.0
C607 C 0.15385 0.98051 0.38577 0.0
C608 C 0.11794 0.01118 0.34407 0.0
H609 H 0.12699 0.06472 0.33157 0.0
C610 C 0.08639 0.00569 0.33294 0.0
C611 C 0.13285 0.03271 0.34355 0.0
C612 C 0.16775 0.03932 0.3546 0.0
C613 C 0.0691 0.02123 0.32144 0.0
C614 C 0.08415 0.0427 0.32086 0.0
C615 C 0.11548 0.04824 0.33208 0.0
C616 C 0.06826 0.05958 0.30845 0.0
C617 C 0.03452 0.01462 0.31018 0.0
C618 C 0.07027 0.0569 0.28949 0.0
C619 C 0.05566 0.07292 0.27777 0.0
C620 C 0.03884 0.09197 0.2848 0.0
C621 C 0.03728 0.09471 0.30382 0.0
C622 C 0.05198 0.07869 0.31553 0.0
H623 H 0.02064 0.99953 0.31557 0.0
H624 H 0.01266 0.02783 0.30979 0.0
H625 H 0.044 0.01141 0.29599 0.0
H626 H 0.08341 0.04247 0.28374 0.0
H627 H 0.05744 0.07031 0.2632 0.0
H628 H 0.40706 0.57167 0.85163 0.0
H629 H 0.42374 0.5379 0.83607 0.0
H630 H 0.3407 0.50271 0.86889 0.0
H631 H 0.32283 0.53669 0.8842 0.0
H632 H 0.45299 0.49957 0.85111 0.0
H633 H 0.31217 0.48512 0.81658 0.0
H634 H 0.32477 0.51101 0.82662 0.0
H635 H 0.30984 0.48861 0.84087 0.0
C636 C 0.39182 0.55684 0.85536 0.0
C637 C 0.36327 0.55696 0.86904 0.0
C638 C 0.40167 0.5375 0.84656 0.0
C639 C 0.38319 0.51784 0.85117 0.0
C640 C 0.35491 0.51777 0.86492 0.0
H641 H 0.47308 0.39205 0.81287 0.0
H642 H 0.44882 0.42117 0.83253 0.0
C643 C 0.345 0.53717 0.87377 0.0
C644 C 0.3942 0.49748 0.84165 0.0
H645 H 0.36058 0.45858 0.81242 0.0
C646 C 0.43275 0.49049 0.84275 0.0
C647 C 0.36778 0.48582 0.83064 0.0
C648 C 0.32638 0.49304 0.82842 0.0
C649 C 0.44576 0.47234 0.83292 0.0
C650 C 0.41934 0.46067 0.82191 0.0
C651 C 0.38066 0.46746 0.821 0.0
C652 C 0.43196 0.44234 0.81023 0.0
C653 C 0.488 0.46632 0.83383 0.0
C654 C 0.42946 0.44431 0.79122 0.0
C655 C 0.44319 0.42773 0.77997 0.0
C656 C 0.45967 0.40879 0.78752 0.0
C657 C 0.46102 0.40655 0.80661 0.0
C658 C 0.44726 0.42318 0.81787 0.0
H659 H 0.50585 0.47956 0.83984 0.0
H660 H 0.49138 0.45154 0.84247 0.0
H661 H 0.4994 0.46256 0.82005 0.0
H662 H 0.41765 0.45893 0.78505 0.0
H663 H 0.44153 0.43001 0.76534 0.0
H664 H 0.64496 0.5556 0.63767 0.0
H665 H 0.61491 0.52866 0.65797 0.0
H666 H 0.71901 0.49019 0.65674 0.0
H667 H 0.74984 0.51745 0.63712 0.0
H668 H 0.6005 0.48542 0.65148 0.0
H669 H 0.69805 0.49396 0.71102 0.0
H670 H 0.69715 0.51356 0.69258 0.0
H671 H 0.7231 0.48837 0.69013 0.0
C672 C 0.66172 0.5416 0.64196 0.0
C673 C 0.6999 0.53876 0.6358 0.0
C674 C 0.64439 0.52614 0.65346 0.0
C675 C 0.66492 0.50759 0.65911 0.0
C676 C 0.70289 0.50461 0.65289 0.0
H677 H 0.60723 0.39018 0.71992 0.0
H678 H 0.63857 0.41874 0.7017 0.0
C679 C 0.72028 0.52008 0.64144 0.0
C680 C 0.6461 0.49093 0.67092 0.0
H681 H 0.65483 0.46361 0.71144 0.0
C682 C 0.61222 0.48077 0.66465 0.0
C683 C 0.66149 0.48484 0.68808 0.0
C684 C 0.69674 0.49589 0.69596 0.0
C685 C 0.59372 0.4644 0.67491 0.0
C686 C 0.60928 0.45822 0.69199 0.0
C687 C 0.64309 0.46837 0.6983 0.0
C688 C 0.59073 0.44126 0.70352 0.0
C689 C 0.55812 0.4535 0.66724 0.0
C690 C 0.55376 0.44464 0.71082 0.0
C691 C 0.53599 0.42847 0.72142 0.0
C692 C 0.555 0.40866 0.725 0.0
C693 C 0.59217 0.4054 0.71775 0.0
C694 C 0.61 0.42164 0.70722 0.0
H695 H 0.55505 0.45652 0.65236 0.0
H696 H 0.55889 0.43561 0.66969 0.0
H697 H 0.53211 0.46006 0.67413 0.0
H698 H 0.53867 0.45981 0.70833 0.0
H699 H 0.50744 0.43155 0.72689 0.0
H700 H 0.80149 0.94098 0.15895 0.0
H701 H 0.81466 0.97417 0.17639 0.0
H702 H 0.90264 0.9926 0.13745 0.0
H703 H 0.88851 0.95991 0.11968 0.0
H704 H 0.87666 0.98548 0.19361 0.0
H705 H 0.84877 0.04939 0.14209 0.0
H706 H 0.8348 0.02133 0.13866 0.0
H707 H 0.88345 0.03026 0.13372 0.0
C708 C 0.82325 0.95231 0.15402 0.0
C709 C 0.84381 0.94798 0.13791 0.0
C710 C 0.83076 0.97127 0.16397 0.0
C711 C 0.85919 0.98617 0.1581 0.0
C712 C 0.87968 0.98182 0.14198 0.0
H713 H 0.99705 0.06972 0.22527 0.0
H714 H 0.9671 0.04031 0.20799 0.0
C715 C 0.87176 0.96305 0.13187 0.0
C716 C 0.86948 0.00534 0.16951 0.0
H717 H 0.88875 0.06 0.16756 0.0
C718 C 0.87875 0.00182 0.18794 0.0
C719 C 0.87148 0.02681 0.16232 0.0
C720 C 0.85865 0.03221 0.14317 0.0
C721 C 0.89156 0.01891 0.19911 0.0
C722 C 0.8966 0.03999 0.19149 0.0
C723 C 0.88561 0.04376 0.17332 0.0
C724 C 0.91462 0.05808 0.20193 0.0
C725 C 0.89938 0.01417 0.21898 0.0
C726 C 0.8959 0.07826 0.20362 0.0
C727 C 0.91349 0.09536 0.21313 0.0
C728 C 0.94989 0.09251 0.2213 0.0
C729 C 0.96883 0.07242 0.21929 0.0
C730 C 0.9515 0.05546 0.2096 0.0
H731 H 0.8819 1.00009 0.22392 0.0
H732 H 0.93031 0.0099 0.22072 0.0
H733 H 0.89291 0.02851 0.22764 0.0
H734 H 0.86768 0.08079 0.19759 0.0
H735 H 0.89878 0.11087 0.2139 0.0
H736 H 0.89971 0.04149 0.61059 0.0
H737 H 0.91393 0.00806 0.62766 0.0
H738 H 0.85625 0.0343 0.67482 0.0
H739 H 0.8418 0.06769 0.65783 0.0
H740 H 0.95747 0.00458 0.65849 0.0
H741 H 0.80942 0.9737 0.67212 0.0
H742 H 0.81933 0.99475 0.65544 0.0
H743 H 0.81647 0.00138 0.67927 0.0
C744 C 0.88986 0.04008 0.62457 0.0
C745 C 0.86957 0.05724 0.63285 0.0
C746 C 0.89789 0.02094 0.63428 0.0
C747 C 0.88571 0.01853 0.65244 0.0
C748 C 0.86509 0.03554 0.66069 0.0
H749 H 0.93037 0.9299 0.74133 0.0
H750 H 0.90913 0.9592 0.72106 0.0
C751 C 0.8569 0.05465 0.65096 0.0
C752 C 0.89677 0.99888 0.66311 0.0
H753 H 0.86044 0.95736 0.68933 0.0
C754 C 0.93624 0.99411 0.66507 0.0
C755 C 0.86903 0.98526 0.67172 0.0
C756 C 0.82619 0.98888 0.66941 0.0
C757 C 0.94878 0.97649 0.67582 0.0
C758 C 0.92107 0.96311 0.68465 0.0
C759 C 0.88159 0.96768 0.68254 0.0
C760 C 0.93265 0.94473 0.69664 0.0
C761 C 0.99161 0.97274 0.67811 0.0
C762 C 0.95231 0.92668 0.68955 0.0
C763 C 0.96448 0.90982 0.7011 0.0
C764 C 0.95724 0.91074 0.71997 0.0
C765 C 0.93665 0.92864 0.72691 0.0
C766 C 0.92441 0.94543 0.71534 0.0
H767 H 0.00897 0.98707 0.67361 0.0
H768 H 0.9987 0.96905 0.69256 0.0
H769 H 0.00038 0.95853 0.66977 0.0
H770 H 0.95838 0.92567 0.67509 0.0
H771 H 0.97987 0.89618 0.69525 0.0
H772 H 0.64784 0.47283 0.11687 0.0
H773 H 0.61696 0.49962 0.13674 0.0
H774 H 0.68468 0.47641 0.18217 0.0
H775 H 0.71594 0.44975 0.16235 0.0
H776 H 0.57367 0.49487 0.16779 0.0
H777 H 0.70791 0.5412 0.18289 0.0
H778 H 0.70537 0.52105 0.16507 0.0
H779 H 0.7109 0.51272 0.18848 0.0
C780 C 0.65594 0.47333 0.13113 0.0
C781 C 0.68456 0.45928 0.13801 0.0
C782 C 0.63838 0.4887 0.14245 0.0
C783 C 0.64907 0.49033 0.16086 0.0
C784 C 0.67674 0.47587 0.1679 0.0
H785 H 0.57324 0.57395 0.24962 0.0
H786 H 0.60246 0.54523 0.23115 0.0
C787 C 0.6945 0.4606 0.15657 0.0
C788 C 0.63115 0.50713 0.17267 0.0
H789 H 0.65191 0.55096 0.19962 0.0
C790 C 0.59077 0.50717 0.1747 0.0
C791 C 0.65349 0.5232 0.18168 0.0
C792 C 0.69677 0.52474 0.17932 0.0
C793 C 0.57219 0.52267 0.18566 0.0
C794 C 0.59455 0.53868 0.19467 0.0
C795 C 0.6349 0.53859 0.19274 0.0
C796 C 0.57654 0.55598 0.20584 0.0
C797 C 0.52881 0.52166 0.18772 0.0
C798 C 0.55267 0.57167 0.19767 0.0
C799 C 0.53617 0.5882 0.20814 0.0
C800 C 0.54327 0.58939 0.227 0.0
C801 C 0.56731 0.57363 0.23513 0.0
C802 C 0.58397 0.55716 0.22461 0.0
H803 H 0.51696 0.50558 0.18352 0.0
H804 H 0.52015 0.52481 0.20205 0.0
H805 H 0.51551 0.53441 0.17898 0.0
H806 H 0.5471 0.57125 0.18315 0.0
H807 H 0.51797 0.60009 0.20139 0.0
H808 H 0.35389 0.42936 0.34685 0.0
H809 H 0.36925 0.46245 0.32956 0.0
H810 H 0.37754 0.4987 0.37967 0.0
H811 H 0.36285 0.46547 0.3971 0.0
H812 H 0.33562 0.50214 0.32637 0.0
H813 H 0.4818 0.51056 0.35682 0.0
H814 H 0.45241 0.4865 0.36002 0.0
H815 H 0.44337 0.51058 0.37326 0.0
C816 C 0.35854 0.44443 0.35419 0.0
C817 C 0.35741 0.44479 0.37335 0.0
C818 C 0.36741 0.46333 0.34429 0.0
C819 C 0.37526 0.48298 0.35332 0.0
C820 C 0.37258 0.4836 0.37243 0.0
H821 H 0.40149 0.60836 0.29605 0.0
H822 H 0.37647 0.57822 0.31476 0.0
C823 C 0.36408 0.46464 0.38237 0.0
C824 C 0.38737 0.50253 0.34269 0.0
H825 H 0.46171 0.53872 0.33693 0.0
C826 C 0.36313 0.5102 0.3287 0.0
C827 C 0.42356 0.51281 0.34556 0.0
C828 C 0.45199 0.5046 0.3596 0.0
C829 C 0.37415 0.52781 0.31748 0.0
C830 C 0.41 0.53831 0.32061 0.0
C831 C 0.43409 0.53074 0.33465 0.0
C832 C 0.42415 0.55652 0.30896 0.0
C833 C 0.34798 0.5345 0.30198 0.0
C834 C 0.45947 0.55447 0.29971 0.0
C835 C 0.47391 0.57168 0.28919 0.0
C836 C 0.45339 0.59133 0.28776 0.0
C837 C 0.41783 0.59335 0.29687 0.0
C838 C 0.40343 0.57611 0.30748 0.0
H839 H 0.32664 0.52153 0.29865 0.0
H840 H 0.33174 0.54932 0.30591 0.0
H841 H 0.365 0.53838 0.28953 0.0
H842 H 0.47589 0.53948 0.30062 0.0
H843 H 0.50101 0.5695 0.28203 0.0
H844 H 0.23314 0.04206 0.84959 0.0
H845 H 0.20226 0.01482 0.83013 0.0
H846 H 0.10631 0.01055 0.86756 0.0
H847 H 0.13753 0.03736 0.88739 0.0
H848 H 0.13576 0.96999 0.85736 0.0
H849 H 0.10801 0.02225 0.79677 0.0
H850 H 0.15724 0.02261 0.80454 0.0
H851 H 0.11973 0.03336 0.81885 0.0
C852 C 0.20549 0.03531 0.8537 0.0
C853 C 0.18781 0.04189 0.87006 0.0
C854 C 0.18769 0.01992 0.84246 0.0
C855 C 0.15177 0.01087 0.84728 0.0
C856 C 0.13393 0.01745 0.86353 0.0
H857 H 0.99807 0.93212 0.78129 0.0
H858 H 0.02877 0.96059 0.79953 0.0
C859 C 0.15168 0.03288 0.87478 0.0
C860 C 0.13357 0.99388 0.83577 0.0
H861 H 0.09771 0.98416 0.79318 0.0
C862 C 0.12734 0.97309 0.84335 0.0
C863 C 0.12234 0.99803 0.81754 0.0
C864 C 0.1268 0.02032 0.80895 0.0
C865 C 0.11058 0.95624 0.83311 0.0
C866 C 0.10028 0.96023 0.81473 0.0
C867 C 0.10603 0.9811 0.80722 0.0
C868 C 0.08241 0.9431 0.80326 0.0
C869 C 0.1034 0.93442 0.84214 0.0
C870 C 0.10262 0.92395 0.79911 0.0
C871 C 0.08507 0.90756 0.78878 0.0
C872 C 0.04712 0.91014 0.78226 0.0
C873 C 0.02724 0.92954 0.78619 0.0
C874 C 0.04479 0.94588 0.79654 0.0
H875 H 0.10439 0.93557 0.85725 0.0
H876 H 0.07486 0.92766 0.83809 0.0
H877 H 0.12606 0.92279 0.83778 0.0
H878 H 0.1319 0.92161 0.80394 0.0
H879 H 0.10103 0.89275 0.7862 0.0
H880 H 0.24552 0.13652 0.00443 0.0
H881 H 0.22324 0.1389 0.03595 0.0
H882 H 0.11071 0.11544 0.01979 0.0
H883 H 0.13313 0.11266 0.98817 0.0
H884 H 0.16554 0.1611 0.05292 0.0
H885 H 0.1398 0.07173 0.05875 0.0
H886 H 0.16472 0.08379 0.03958 0.0
H887 H 0.11287 0.08506 0.04103 0.0
C888 C 0.21585 0.13216 0.00752 0.0
C889 C 0.19114 0.12428 0.99382 0.0
C890 C 0.20318 0.13346 0.02557 0.0
C891 C 0.16552 0.12697 0.03032 0.0
C892 C 0.14019 0.12001 0.01654 0.0
H893 H 0.07682 0.11031 0.1423 0.0
H894 H 0.07699 0.11725 0.10922 0.0
C895 C 0.15298 0.1185 0.99848 0.0
C896 C 0.15368 0.12679 0.04981 0.0
H897 H 0.12721 0.09278 0.08475 0.0
C898 C 0.15682 0.14619 0.05983 0.0
C899 C 0.14226 0.10733 0.05886 0.0
C900 C 0.13999 0.08574 0.04908 0.0
C901 C 0.14982 0.14654 0.0787 0.0
C902 C 0.13957 0.12697 0.08778 0.0
C903 C 0.13485 0.10778 0.07769 0.0
C904 C 0.13783 0.12545 0.10794 0.0
C905 C 0.15411 0.16773 0.08886 0.0
C906 C 0.17186 0.12794 0.11812 0.0
C907 C 0.17187 0.12382 0.13685 0.0
C908 C 0.13781 0.11721 0.14579 0.0
C909 C 0.10335 0.11557 0.13574 0.0
C910 C 0.10346 0.11945 0.11689 0.0
H911 H 0.15172 0.18203 0.07957 0.0
H912 H 0.1319 0.1691 0.09974 0.0
H913 H 0.18301 0.16828 0.09541 0.0
H914 H 0.1988 0.13223 0.11144 0.0
H915 H 0.19879 0.12525 0.14431 0.0
H916 H 0.34981 0.39678 0.49313 0.0
H917 H 0.35657 0.40065 0.52612 0.0
H918 H 0.34143 0.33126 0.53297 0.0
H919 H 0.33415 0.32722 0.49994 0.0
H920 H 0.30386 0.38875 0.55388 0.0
H921 H 0.44276 0.34401 0.56064 0.0
H922 H 0.42479 0.35365 0.53894 0.0
H923 H 0.40445 0.32959 0.54928 0.0
C924 C 0.34744 0.38235 0.50163 0.0
C925 C 0.34146 0.36168 0.49384 0.0
C926 C 0.3516 0.38458 0.52049 0.0
C927 C 0.35014 0.36621 0.53196 0.0
C928 C 0.34353 0.3456 0.52432 0.0
H929 H 0.37003 0.35748 0.65114 0.0
H930 H 0.36501 0.34831 0.61862 0.0
C931 C 0.33932 0.34333 0.50544 0.0
C932 C 0.35482 0.36886 0.55195 0.0
H933 H 0.41397 0.35656 0.58787 0.0
C934 C 0.3279 0.38169 0.56131 0.0
C935 C 0.38608 0.35949 0.56163 0.0
C936 C 0.41641 0.34604 0.55215 0.0
C937 C 0.33144 0.38551 0.58008 0.0
C938 C 0.36325 0.37664 0.5897 0.0
C939 C 0.38972 0.36339 0.58044 0.0
C940 C 0.37001 0.38171 0.60921 0.0
C941 C 0.3009 0.39892 0.58949 0.0
C942 C 0.37603 0.40337 0.61459 0.0
C943 C 0.3789 0.40861 0.63304 0.0
C944 C 0.3761 0.39227 0.6465 0.0
C945 C 0.37234 0.3704 0.64106 0.0
C946 C 0.36931 0.36516 0.62252 0.0
H947 H 0.2735 0.39924 0.5816 0.0
H948 H 0.29474 0.39248 0.60337 0.0
H949 H 0.31137 0.41597 0.5908 0.0
H950 H 0.37767 0.41633 0.60452 0.0
H951 H 0.38254 0.42556 0.6368 0.0
H952 H 0.71962 0.41453 1.00101 0.0
H953 H 0.69693 0.40891 0.96986 0.0
H954 H 0.64606 0.34743 0.98592 0.0
H955 H 0.6671 0.35337 0.01731 0.0
H956 H 0.71732 0.37659 0.94717 0.0
H957 H 0.55869 0.37421 0.95711 0.0
H958 H 0.5914 0.38407 0.97441 0.0
H959 H 0.58357 0.35524 0.9716 0.0
C960 C 0.70279 0.40005 0.99806 0.0
C961 C 0.69506 0.38445 0.01176 0.0
C962 C 0.69008 0.39679 0.98018 0.0
C963 C 0.66926 0.37792 0.97557 0.0
C964 C 0.66129 0.36237 0.9892 0.0
H965 H 0.60681 0.30928 0.87883 0.0
H966 H 0.61575 0.32333 0.90971 0.0
C967 C 0.67385 0.36564 0.00712 0.0
C968 C 0.65831 0.37379 0.95629 0.0
H969 H 0.58234 0.36045 0.92866 0.0
C970 C 0.68772 0.37337 0.94308 0.0
C971 C 0.61966 0.36961 0.95094 0.0
C972 C 0.58647 0.37101 0.96423 0.0
C973 C 0.67981 0.36806 0.92486 0.0
C974 C 0.64136 0.36328 0.91963 0.0
C975 C 0.61178 0.36414 0.93271 0.0
C976 C 0.63195 0.35583 0.90094 0.0
C977 C 0.71287 0.36674 0.91147 0.0
C978 C 0.63692 0.36967 0.88578 0.0
C979 C 0.6318 0.36167 0.86808 0.0
C980 C 0.62181 0.33969 0.86529 0.0
C981 C 0.61504 0.32621 0.88055 0.0
C982 C 0.61995 0.33423 0.8982 0.0
H983 H 0.74146 0.36718 0.91836 0.0
H984 H 0.71084 0.35155 0.90333 0.0
H985 H 0.71138 0.38079 0.90189 0.0
H986 H 0.64575 0.38648 0.88764 0.0
H987 H 0.63731 0.37241 0.85659 0.0
H988 H 0.79976 0.16503 0.50712 0.0
H989 H 0.80804 0.16472 0.47397 0.0
H990 H 0.89232 0.11341 0.47904 0.0
H991 H 0.88472 0.11387 0.51224 0.0
H992 H 0.91667 0.1492 0.45734 0.0
H993 H 0.77215 0.11906 0.4363 0.0
H994 H 0.77054 0.14151 0.45193 0.0
H995 H 0.79039 0.11585 0.45923 0.0
C996 C 0.81992 0.15361 0.50118 0.0
C997 C 0.84152 0.13945 0.51232 0.0
C998 C 0.82435 0.1533 0.48223 0.0
C999 C 0.85045 0.13885 0.47404 0.0
C1000 C 0.8718 0.12456 0.48508 0.0
H1001 H 0.86662 0.12906 0.35448 0.0
H1002 H 0.86585 0.11854 0.3869 0.0
C1003 C 0.86723 0.12476 0.50404 0.0
C1004 C 0.85709 0.13966 0.45406 0.0
H1005 H 0.81104 0.13566 0.41303 0.0
C1006 C 0.89373 0.14597 0.44763 0.0
C1007 C 0.82729 0.13517 0.44142 0.0
C1008 C 0.78796 0.12731 0.44752 0.0
C1009 C 0.90079 0.14894 0.42892 0.0
C1010 C 0.87037 0.14563 0.41636 0.0
C1011 C 0.83427 0.1383 0.42271 0.0
C1012 C 0.87443 0.1514 0.39679 0.0
C1013 C 0.94057 0.15591 0.42274 0.0
C1014 C 0.87978 0.17327 0.39168 0.0
C1015 C 0.88002 0.17928 0.3733 0.0
C1016 C 0.87498 0.16352 0.35964 0.0
C1017 C 0.87089 0.14149 0.36473 0.0
C1018 C 0.87026 0.1355 0.3832 0.0
H1019 H 0.96289 0.15199 0.43313 0.0
H1020 H 0.94847 0.14792 0.40971 0.0
H1021 H 0.94086 0.17382 0.42048 0.0
H1022 H 0.88253 0.18583 0.40194 0.0
H1023 H 0.88339 0.19636 0.36975 0.0
H1024 H 0.81729 0.83727 0.00932 0.0
H1025 H 0.82572 0.83907 0.97616 0.0
H1026 H 0.86944 0.90479 0.9808 0.0
H1027 H 0.86163 0.90296 0.0139 0.0
H1028 H 0.79454 0.86554 0.95075 0.0
H1029 H 0.95326 0.87711 0.95076 0.0
H1030 H 0.92681 0.86913 0.97095 0.0
H1031 H 0.92911 0.89737 0.9641 0.0
C1032 C 0.82855 0.85213 1.00325 0.0
C1033 C 0.83909 0.86992 0.01424 0.0
C1034 C 0.83353 0.8531 0.98431 0.0
C1035 C 0.84911 0.87187 0.976 0.0
C1036 C 0.85857 0.88987 0.98692 0.0
H1037 H 0.87092 0.92618 0.86922 0.0
H1038 H 0.86985 0.91738 0.9018 0.0
C1039 C 0.8539 0.88885 0.00584 0.0
C1040 C 0.85446 0.87294 0.95589 0.0
H1041 H 0.92061 0.88513 0.92266 0.0
C1042 C 0.82223 0.86951 0.9446 0.0
C1043 C 0.89068 0.87798 0.94783 0.0
C1044 C 0.927 0.88038 0.95904 0.0
C1045 C 0.82489 0.87192 0.92557 0.0
C1046 C 0.8607 0.87781 0.91764 0.0
C1047 C 0.89316 0.88067 0.92883 0.0
C1048 C 0.86424 0.88258 0.89789 0.0
C1049 C 0.78912 0.86895 0.91408 0.0
C1050 C 0.86238 0.86584 0.88492 0.0
C1051 C 0.86322 0.87082 0.86624 0.0
C1052 C 0.86556 0.89264 0.86032 0.0
C1053 C 0.86866 0.90925 0.87339 0.0
C1054 C 0.86819 0.90425 0.89199 0.0
H1055 H 0.76267 0.86673 0.9225 0.0
H1056 H 0.78507 0.88329 0.90497 0.0
H1057 H 0.79261 0.85438 0.90532 0.0
H1058 H 0.85959 0.84898 0.88925 0.0
H1059 H 0.86062 0.85771 0.85647 0.0
H1060 H 0.63835 0.613 0.52198 0.0
H1061 H 0.61194 0.6135 0.49101 0.0
H1062 H 0.72429 0.63042 0.46965 0.0
H1063 H 0.75116 0.62957 0.50046 0.0
H1064 H 0.65895 0.65481 0.45437 0.0
H1065 H 0.63832 0.56476 0.45346 0.0
H1066 H 0.61745 0.57884 0.47251 0.0
H1067 H 0.66904 0.57818 0.46987 0.0
C1068 C 0.65748 0.6168 0.5107 0.0
C1069 C 0.69697 0.62109 0.51373 0.0
C1070 C 0.64231 0.61714 0.49303 0.0
C1071 C 0.66629 0.62175 0.47806 0.0
C1072 C 0.70532 0.62683 0.48104 0.0
H1073 H 0.64554 0.62381 0.36021 0.0
H1074 H 0.66497 0.62958 0.39191 0.0
C1075 C 0.72056 0.62644 0.49869 0.0
C1076 C 0.65114 0.62042 0.4592 0.0
H1077 H 0.61712 0.58437 0.42768 0.0
C1078 C 0.64972 0.63944 0.4485 0.0
C1079 C 0.63914 0.60034 0.45163 0.0
C1080 C 0.64125 0.57929 0.46235 0.0
C1081 C 0.63619 0.63895 0.43044 0.0
C1082 C 0.62466 0.61879 0.42278 0.0
C1083 C 0.62588 0.59982 0.43356 0.0
C1084 C 0.61191 0.61679 0.40351 0.0
C1085 C 0.63374 0.66007 0.41986 0.0
C1086 C 0.57587 0.60739 0.39946 0.0
C1087 C 0.56488 0.60389 0.38137 0.0
C1088 C 0.58974 0.60969 0.36695 0.0
C1089 C 0.62553 0.61946 0.37101 0.0
C1090 C 0.63662 0.62283 0.38913 0.0
H1091 H 0.63231 0.67437 0.42908 0.0
H1092 H 0.65997 0.66191 0.41126 0.0
H1093 H 0.60803 0.66026 0.4108 0.0
H1094 H 0.55637 0.60255 0.41033 0.0
H1095 H 0.53695 0.59654 0.37868 0.0
H1096 H 0.40804 0.65663 0.98979 0.0
H1097 H 0.41548 0.65969 0.02275 0.0
H1098 H 0.30229 0.63148 0.03061 0.0
H1099 H 0.29492 0.62782 0.99747 0.0
H1100 H 0.36654 0.68335 0.04658 0.0
H1101 H 0.37286 0.5952 0.0649 0.0
H1102 H 0.38046 0.60494 0.04188 0.0
H1103 H 0.3325 0.60376 0.05119 0.0
C1104 C 0.38493 0.65072 0.99849 0.0
C1105 C 0.35101 0.64179 0.99097 0.0
C1106 C 0.38914 0.65264 0.01734 0.0
C1107 C 0.35965 0.64559 0.02913 0.0
C1108 C 0.32565 0.63671 0.02175 0.0
H1109 H 0.35526 0.65039 0.14873 0.0
H1110 H 0.33828 0.64374 0.11676 0.0
C1111 C 0.32134 0.63483 1.00282 0.0
C1112 C 0.3644 0.64837 0.04908 0.0
H1113 H 0.3768 0.62038 0.08905 0.0
C1114 C 0.36863 0.66959 0.05588 0.0
C1115 C 0.36681 0.63039 0.06118 0.0
C1116 C 0.3632 0.60724 0.0545 0.0
C1117 C 0.37572 0.67334 0.07443 0.0
C1118 C 0.3795 0.65535 0.08645 0.0
C1119 C 0.37411 0.63413 0.07977 0.0
C1120 C 0.39048 0.65831 0.10584 0.0
C1121 C 0.37897 0.69656 0.08101 0.0
C1122 C 0.4259 0.66816 0.11029 0.0
C1123 C 0.4357 0.67192 0.12848 0.0
C1124 C 0.41039 0.66578 0.14263 0.0
C1125 C 0.37548 0.65521 0.13816 0.0
C1126 C 0.36565 0.65148 0.11991 0.0
H1127 H 0.36456 0.70814 0.07151 0.0
H1128 H 0.366 0.69838 0.09477 0.0
H1129 H 0.40996 0.7012 0.08183 0.0
H1130 H 0.44592 0.67305 0.09966 0.0
H1131 H 0.46316 0.67966 0.13146 0.0
H1132 H 0.22938 0.90338 0.50927 0.0
H1133 H 0.20415 0.89623 0.53992 0.0
H1134 H 0.13186 0.84486 0.51874 0.0
H1135 H 0.15746 0.85164 0.48804 0.0
H1136 H 0.12434 0.89553 0.55339 0.0
H1137 H 0.19898 0.81558 0.55926 0.0
H1138 H 0.21218 0.83576 0.54234 0.0
H1139 H 0.16961 0.81934 0.53928 0.0
C1140 C 0.20821 0.8905 0.51113 0.0
C1141 C 0.19574 0.87791 0.49623 0.0
C1142 C 0.1936 0.88657 0.52863 0.0
C1143 C 0.16646 0.86989 0.53162 0.0
C1144 C 0.1531 0.85768 0.51673 0.0
H1145 H 0.07868 0.80898 0.6301 0.0
H1146 H 0.08869 0.82092 0.59858 0.0
C1147 C 0.16756 0.86166 0.49919 0.0
C1148 C 0.15334 0.86475 0.55042 0.0
H1149 H 0.1585 0.82564 0.58358 0.0
C1150 C 0.13168 0.88025 0.56003 0.0
C1151 C 0.16311 0.84484 0.55902 0.0
C1152 C 0.1875 0.82794 0.54956 0.0
C1153 C 0.11896 0.87619 0.57797 0.0
C1154 C 0.12895 0.85629 0.58662 0.0
C1155 C 0.15065 0.84084 0.57694 0.0
C1156 C 0.11781 0.851 0.60573 0.0
C1157 C 0.09436 0.89304 0.58732 0.0
C1158 C 0.12989 0.86419 0.62031 0.0
C1159 C 0.12374 0.85747 0.63839 0.0
C1160 C 0.10602 0.83729 0.64214 0.0
C1161 C 0.09255 0.82457 0.62756 0.0
C1162 C 0.09831 0.83138 0.60956 0.0
H1163 H 0.0799 0.90395 0.57731 0.0
H1164 H 0.07193 0.88523 0.59603 0.0
H1165 H 0.11303 0.9033 0.59612 0.0
H1166 H 0.14575 0.87916 0.61775 0.0
H1167 H 0.13482 0.86742 0.64939 0.0
H1168 H 0.22956 0.32023 0.34625 0.0
H1169 H 0.18573 0.29717 0.32862 0.0
H1170 H 0.16865 0.25563 0.37562 0.0
H1171 H 0.2121 0.27892 0.39342 0.0
H1172 H 0.19702 0.25536 0.3204 0.0
H1173 H 0.05872 0.26291 0.35798 0.0
H1174 H 0.09902 0.28116 0.36164 0.0
H1175 H 0.09821 0.25464 0.37225 0.0
C1176 C 0.21616 0.30629 0.35287 0.0
C1177 C 0.22436 0.30132 0.3712 0.0
C1178 C 0.19103 0.29317 0.3428 0.0
C1179 C 0.17355 0.27477 0.35081 0.0
C1180 C 0.18103 0.27001 0.36924 0.0
H1181 H 0.09487 0.16084 0.29249 0.0
H1182 H 0.12839 0.18741 0.31153 0.0
C1183 C 0.20598 0.28328 0.37939 0.0
C1184 C 0.1502 0.25969 0.33942 0.0
H1185 H 0.06237 0.23428 0.33601 0.0
C1186 C 0.1675 0.25088 0.32378 0.0
C1187 C 0.11151 0.25401 0.34368 0.0
C1188 C 0.0906 0.26384 0.3597 0.0
C1189 C 0.14751 0.23629 0.31251 0.0
C1190 C 0.10944 0.22988 0.31718 0.0
C1191 C 0.09173 0.23902 0.33258 0.0
C1192 C 0.08791 0.21353 0.30628 0.0
C1193 C 0.16716 0.22808 0.29552 0.0
C1194 C 0.05331 0.21916 0.29745 0.0
C1195 C 0.03408 0.20396 0.28648 0.0
C1196 C 0.04919 0.18288 0.2842 0.0
C1197 C 0.08309 0.17711 0.29358 0.0
C1198 C 0.10224 0.19227 0.3045 0.0
H1199 H 0.19175 0.23872 0.29138 0.0
H1200 H 0.17866 0.21149 0.29815 0.0
H1201 H 0.14638 0.22713 0.28403 0.0
H1202 H 0.04165 0.23546 0.29873 0.0
H1203 H 0.00793 0.20885 0.27948 0.0
H1204 H 0.27562 0.20387 0.88095 0.0
H1205 H 0.29819 0.23327 0.86075 0.0
H1206 H 0.39555 0.19398 0.8448 0.0
H1207 H 0.37267 0.16436 0.86443 0.0
H1208 H 0.36905 0.2555 0.86196 0.0
H1209 H 0.3507 0.21335 0.79582 0.0
H1210 H 0.32837 0.20367 0.81661 0.0
H1211 H 0.37845 0.19802 0.81207 0.0
C1212 C 0.30154 0.20138 0.87295 0.0
C1213 C 0.32232 0.18174 0.8743 0.0
C1214 C 0.3145 0.21823 0.8615 0.0
C1215 C 0.34823 0.21568 0.85108 0.0
C1216 C 0.36906 0.19615 0.85245 0.0
H1217 H 0.49468 0.29227 0.78071 0.0
H1218 H 0.46304 0.26447 0.79962 0.0
C1219 C 0.35618 0.17934 0.86387 0.0
C1220 C 0.36261 0.23366 0.83926 0.0
H1221 H 0.38872 0.24592 0.79546 0.0
C1222 C 0.37296 0.25352 0.84738 0.0
C1223 C 0.36768 0.23102 0.82025 0.0
C1224 C 0.35538 0.21044 0.81062 0.0
C1225 C 0.38962 0.27054 0.83712 0.0
C1226 C 0.39546 0.2677 0.81818 0.0
C1227 C 0.38436 0.24801 0.81 0.0
C1228 C 0.41419 0.28468 0.80671 0.0
C1229 C 0.4021 0.2911 0.84673 0.0
C1230 C 0.39707 0.30522 0.80433 0.0
C1231 C 0.41525 0.32119 0.79366 0.0
C1232 C 0.45058 0.31681 0.78496 0.0
C1233 C 0.46753 0.29618 0.78728 0.0
C1234 C 0.44941 0.28024 0.798 0.0
H1235 H 0.40366 0.28877 0.86174 0.0
H1236 H 0.43081 0.29669 0.84173 0.0
H1237 H 0.38087 0.3042 0.84387 0.0
H1238 H 0.36963 0.30889 0.81072 0.0
H1239 H 0.40181 0.33703 0.79236 0.0
H1240 H 0.73485 0.18453 0.66108 0.0
H1241 H 0.69286 0.20957 0.67765 0.0
H1242 H 0.67447 0.24667 0.62833 0.0
H1243 H 0.71656 0.22167 0.61163 0.0
H1244 H 0.70509 0.25392 0.682 0.0
H1245 H 0.56446 0.23858 0.64772 0.0
H1246 H 0.60508 0.22035 0.64557 0.0
H1247 H 0.60374 0.24531 0.63264 0.0
C1248 C 0.72177 0.19797 0.65373 0.0
C1249 C 0.72915 0.20112 0.63503 0.0
C1250 C 0.69766 0.21222 0.66321 0.0
C1251 C 0.68021 0.22988 0.65421 0.0
C1252 C 0.68696 0.2329 0.63548 0.0
H1253 H 0.54369 0.33852 0.69666 0.0
H1254 H 0.57954 0.31366 0.67675 0.0
C1255 C 0.71105 0.2186 0.62595 0.0
C1256 C 0.65687 0.24574 0.66474 0.0
H1257 H 0.56651 0.2676 0.66896 0.0
C1258 C 0.67477 0.25687 0.67916 0.0
C1259 C 0.61739 0.24971 0.66093 0.0
C1260 C 0.59633 0.23775 0.64598 0.0
C1261 C 0.65431 0.27181 0.68988 0.0
C1262 C 0.6147 0.27549 0.68629 0.0
C1263 C 0.59688 0.26469 0.67168 0.0
C1264 C 0.5912 0.28998 0.69799 0.0
C1265 C 0.67533 0.28372 0.70489 0.0
C1266 C 0.58511 0.28461 0.71638 0.0
C1267 C 0.56462 0.29868 0.72773 0.0
C1268 C 0.54979 0.31843 0.72092 0.0
C1269 C 0.55485 0.32346 0.70233 0.0
C1270 C 0.57532 0.3093 0.69094 0.0
H1271 H 0.70719 0.28321 0.703 0.0
H1272 H 0.66609 0.30103 0.70553 0.0
H1273 H 0.66842 0.2759 0.71818 0.0
H1274 H 0.59652 0.26958 0.722 0.0
H1275 H 0.56079 0.29417 0.74192 0.0
H1276 H 0.8407 0.29834 0.10466 0.0
H1277 H 0.86696 0.26825 0.12287 0.0
H1278 H 0.83316 0.30119 0.17215 0.0
H1279 H 0.80682 0.33125 0.15408 0.0
H1280 H 0.92529 0.26963 0.14811 0.0
H1281 H 0.79011 0.24042 0.18081 0.0
H1282 H 0.79013 0.25875 0.16148 0.0
H1283 H 0.79855 0.26902 0.18408 0.0
C1284 C 0.83875 0.29913 0.11938 0.0
C1285 C 0.82149 0.31716 0.12791 0.0
C1286 C 0.85366 0.2819 0.12976 0.0
C1287 C 0.8515 0.28229 0.14887 0.0
C1288 C 0.83425 0.30024 0.15742 0.0
H1289 H 0.94126 0.20771 0.23906 0.0
H1290 H 0.91183 0.23439 0.21851 0.0
C1291 C 0.81922 0.31743 0.14706 0.0
C1292 C 0.86893 0.26447 0.15991 0.0
H1293 H 0.84921 0.22723 0.1935 0.0
C1294 C 0.90858 0.2602 0.1579 0.0
C1295 C 0.84709 0.25216 0.17267 0.0
C1296 C 0.80404 0.25514 0.17479 0.0
C1297 C 0.92722 0.24445 0.16872 0.0
C1298 C 0.90552 0.23249 0.18173 0.0
C1299 C 0.86578 0.2365 0.18355 0.0
C1300 C 0.92371 0.21618 0.19398 0.0
C1301 C 0.9702 0.24119 0.16657 0.0
C1302 C 0.93996 0.19701 0.18698 0.0
C1303 C 0.95672 0.18164 0.19871 0.0
C1304 C 0.95743 0.18517 0.21765 0.0
C1305 C 0.9411 0.20443 0.22456 0.0
C1306 C 0.92426 0.21971 0.21285 0.0
H1307 H 0.98395 0.25468 0.15871 0.0
H1308 H 0.98446 0.23996 0.1801 0.0
H1309 H 0.97546 0.22573 0.15919 0.0
H1310 H 0.93932 0.19383 0.17247 0.0
H1311 H 0.9688 0.16692 0.19297 0.0
H1312 H 0.76648 0.68947 0.64359 0.0
H1313 H 0.78586 0.7205 0.66253 0.0
H1314 H 0.90201 0.71618 0.6415 0.0
H1315 H 0.88273 0.68565 0.62224 0.0
H1316 H 0.84273 0.72111 0.68966 0.0
H1317 H 0.87646 0.78089 0.63496 0.0
H1318 H 0.84858 0.75643 0.63092 0.0
H1319 H 0.90049 0.75524 0.632 0.0
C1320 C 0.79599 0.69537 0.64279 0.0
C1321 C 0.82306 0.6851 0.63139 0.0
C1322 C 0.80706 0.71299 0.6537 0.0
C1323 C 0.84524 0.72081 0.65324 0.0
C1324 C 0.87223 0.71066 0.64183 0.0
H1325 H 0.98187 0.79234 0.72997 0.0
H1326 H 0.94975 0.76524 0.71076 0.0
C1327 C 0.86125 0.69305 0.63098 0.0
C1328 C 0.85754 0.73895 0.66524 0.0
H1329 H 0.90093 0.78907 0.66469 0.0
C1330 C 0.85507 0.73607 0.68421 0.0
C1331 C 0.87312 0.75859 0.65811 0.0
C1332 C 0.87451 0.76312 0.63788 0.0
C1333 C 0.86933 0.75194 0.69623 0.0
C1334 C 0.8869 0.77099 0.68906 0.0
C1335 C 0.88786 0.7743 0.67013 0.0
C1336 C 0.90565 0.78733 0.70097 0.0
C1337 C 0.86564 0.74819 0.71651 0.0
C1338 C 0.89195 0.80883 0.70151 0.0
C1339 C 0.9104 0.82436 0.71238 0.0
C1340 C 0.94292 0.81867 0.72282 0.0
C1341 C 0.95685 0.79719 0.72208 0.0
C1342 C 0.93833 0.78166 0.71125 0.0
H1343 H 0.84308 0.73582 0.71976 0.0
H1344 H 0.89362 0.74219 0.72194 0.0
H1345 H 0.85849 0.76361 0.72364 0.0
H1346 H 0.86697 0.81356 0.69354 0.0
H1347 H 0.89943 0.84088 0.71248 0.0
H1348 H 0.65914 0.82212 0.13063 0.0
H1349 H 0.61915 0.79842 0.14998 0.0
H1350 H 0.71363 0.75308 0.15485 0.0
H1351 H 0.7543 0.77704 0.13643 0.0
H1352 H 0.59506 0.75606 0.14633 0.0
H1353 H 0.6872 0.76372 0.20766 0.0
H1354 H 0.69285 0.78129 0.18802 0.0
H1355 H 0.71398 0.75448 0.18825 0.0
C1356 C 0.67156 0.80721 0.13595 0.0
C1357 C 0.71014 0.80163 0.13201 0.0
C1358 C 0.64854 0.7936 0.14692 0.0
C1359 C 0.66365 0.7742 0.15419 0.0
C1360 C 0.70162 0.76823 0.14976 0.0
H1361 H 0.58799 0.66174 0.21379 0.0
H1362 H 0.61971 0.68926 0.19466 0.0
C1363 C 0.72468 0.78184 0.13894 0.0
C1364 C 0.63995 0.76009 0.1664 0.0
H1365 H 0.64085 0.73461 0.20796 0.0
C1366 C 0.60481 0.75159 0.15989 0.0
C1367 C 0.65251 0.75441 0.18418 0.0
C1368 C 0.68849 0.76414 0.19252 0.0
C1369 C 0.58281 0.73682 0.17039 0.0
C1370 C 0.59634 0.7305 0.18779 0.0
C1371 C 0.63082 0.73942 0.19451 0.0
C1372 C 0.57607 0.71388 0.19896 0.0
C1373 C 0.54591 0.72749 0.16266 0.0
C1374 C 0.54115 0.71872 0.20777 0.0
C1375 C 0.52321 0.70311 0.21894 0.0
C1376 C 0.53991 0.68243 0.22137 0.0
C1377 C 0.57461 0.6776 0.2123 0.0
C1378 C 0.59268 0.69324 0.20131 0.0
H1379 H 0.54162 0.73215 0.14815 0.0
H1380 H 0.54603 0.70942 0.16379 0.0
H1381 H 0.52092 0.73352 0.17067 0.0
H1382 H 0.52818 0.73468 0.20626 0.0
H1383 H 0.49683 0.7074 0.226 0.0
H1384 H 0.33311 0.79963 0.39667 0.0
H1385 H 0.35806 0.77017 0.37759 0.0
H1386 H 0.31676 0.8034 0.32951 0.0
H1387 H 0.29115 0.83273 0.34845 0.0
H1388 H 0.31908 0.74276 0.35089 0.0
H1389 H 0.43443 0.79479 0.32043 0.0
H1390 H 0.40887 0.80226 0.34093 0.0
H1391 H 0.38631 0.80563 0.31906 0.0
C1392 C 0.32877 0.80053 0.38206 0.0
C1393 C 0.31039 0.81868 0.37409 0.0
C1394 C 0.34324 0.78373 0.37118 0.0
C1395 C 0.33981 0.7848 0.35213 0.0
C1396 C 0.32037 0.80248 0.34417 0.0
H1397 H 0.4278 0.70661 0.26282 0.0
H1398 H 0.39572 0.73386 0.28177 0.0
C1399 C 0.30583 0.81924 0.35502 0.0
C1400 C 0.35729 0.76769 0.34055 0.0
H1401 H 0.42727 0.75928 0.3085 0.0
C1402 C 0.34279 0.74631 0.34165 0.0
C1403 C 0.38815 0.77243 0.32848 0.0
C1404 C 0.40567 0.79496 0.32719 0.0
C1405 C 0.35795 0.72958 0.33075 0.0
C1406 C 0.38901 0.73429 0.31875 0.0
C1407 C 0.40343 0.7557 0.31767 0.0
C1408 C 0.40727 0.71727 0.30729 0.0
C1409 C 0.33998 0.70715 0.33187 0.0
C1410 C 0.42478 0.69898 0.31534 0.0
C1411 C 0.44284 0.68328 0.30453 0.0
C1412 C 0.44399 0.68564 0.28546 0.0
C1413 C 0.42687 0.70412 0.27745 0.0
C1414 C 0.40868 0.71976 0.28826 0.0
H1415 H 0.31024 0.70771 0.33759 0.0
H1416 H 0.33879 0.69938 0.31824 0.0
H1417 H 0.35773 0.69671 0.34097 0.0
H1418 H 0.42493 0.69697 0.33002 0.0
H1419 H 0.45601 0.66933 0.31114 0.0
H1420 H 0.21122 0.72519 0.89766 0.0
H1421 H 0.16836 0.7501 0.88117 0.0
H1422 H 0.16498 0.70565 0.83583 0.0
H1423 H 0.20807 0.68078 0.8521 0.0
H1424 H 0.18441 0.76983 0.84759 0.0
H1425 H 0.05064 0.71994 0.84359 0.0
H1426 H 0.08935 0.71378 0.85929 0.0
H1427 H 0.09314 0.70613 0.83572 0.0
C1428 C 0.20122 0.72066 0.88421 0.0
C1429 C 0.21312 0.70096 0.87622 0.0
C1430 C 0.1766 0.73487 0.87484 0.0
C1431 C 0.1631 0.72962 0.85736 0.0
C1432 C 0.17432 0.70982 0.84947 0.0
H1433 H 0.04306 0.79318 0.76945 0.0
H1434 H 0.07627 0.76828 0.79031 0.0
C1435 C 0.19896 0.6956 0.85881 0.0
C1436 C 0.13946 0.74547 0.84687 0.0
H1437 H 0.05362 0.75147 0.82443 0.0
C1438 C 0.15562 0.76594 0.8427 0.0
C1439 C 0.10199 0.7403 0.84045 0.0
C1440 C 0.08254 0.71892 0.84511 0.0
C1441 C 0.13586 0.78111 0.83176 0.0
C1442 C 0.0986 0.77582 0.82514 0.0
C1443 C 0.08217 0.75549 0.82955 0.0
C1444 C 0.07699 0.7908 0.81292 0.0
C1445 C 0.15562 0.80233 0.82682 0.0
C1446 C 0.06568 0.81158 0.81884 0.0
C1447 C 0.04683 0.8259 0.8069 0.0
C1448 C 0.03902 0.81965 0.78886 0.0
C1449 C 0.04924 0.79857 0.78319 0.0
C1450 C 0.06804 0.78429 0.79511 0.0
H1451 H 0.18721 0.80178 0.82954 0.0
H1452 H 0.15108 0.8064 0.81221 0.0
H1453 H 0.14313 0.81567 0.8351 0.0
H1454 H 0.07166 0.81676 0.83265 0.0
H1455 H 0.03904 0.84199 0.81167 0.0
loop_
_geom_bond_atom_site_label_1
_geom_bond_atom_site_label_2
_geom_bond_distance
_geom_bond_site_symmetry_2
_ccdc_geom_bond_type
P0 O11 1.490 . S
P0 C14 1.812 . S
P0 C20 1.803 . S
P0 C26 1.819 . S
H1 C15 0.941 . S
H2 C16 0.939 . S
H3 C18 0.940 . S
H4 C19 0.940 . S
H5 C21 0.939 . S
H6 C22 0.942 . S
H7 C24 0.940 . S
H8 C25 0.939 . S
H9 C27 0.941 . S
H10 C31 0.939 . S
O11 P0 1.490 . S
H12 C28 0.939 . S
H13 C30 0.940 . S
C14 P0 1.812 . S
C14 C15 1.389 . S
C14 C19 1.391 . S
C15 H1 0.941 . S
C15 C14 1.389 . S
C15 C16 1.397 . S
C16 H2 0.939 . S
C16 C15 1.397 . S
C16 C17 1.378 . S
C17 C16 1.378 . S
C17 C18 1.378 . S
C18 H3 0.940 . S
C18 C17 1.378 . S
C18 C19 1.396 . S
C19 H4 0.940 . S
C19 C14 1.391 . S
C19 C18 1.396 . S
C20 P0 1.803 . S
C20 C21 1.378 . S
C20 C25 1.400 . S
C21 H5 0.939 . S
C21 C20 1.378 . S
C21 C22 1.361 . S
C22 H6 0.942 . S
C22 C21 1.361 . S
C22 C23 1.369 . S
C23 C22 1.369 . S
C23 C24 1.404 . S
C24 H7 0.940 . S
C24 C23 1.404 . S
C24 C25 1.389 . S
C25 H8 0.939 . S
C25 C20 1.400 . S
C25 C24 1.389 . S
C26 P0 1.819 . S
C26 C27 1.391 . S
C26 C31 1.391 . S
C27 H9 0.941 . S
C27 C26 1.391 . S
C27 C28 1.396 . S
C28 H12 0.939 . S
C28 C27 1.396 . S
C28 C29 1.397 . S
C29 C28 1.397 . S
C29 C30 1.385 . S
C30 H13 0.940 . S
C30 C29 1.385 . S
C30 C31 1.388 . S
C31 H10 0.939 . S
C31 C26 1.391 . S
C31 C30 1.388 . S
P32 O43 1.490 . S
P32 C46 1.812 . S
P32 C52 1.803 . S
P32 C58 1.819 . S
H33 C47 0.941 . S
H34 C48 0.939 . S
H35 C50 0.940 . S
H36 C51 0.940 . S
H37 C53 0.939 . S
H38 C54 0.942 . S
H39 C56 0.940 . S
H40 C57 0.939 . S
H41 C59 0.941 . S
H42 C63 0.939 . S
O43 P32 1.490 . S
H44 C60 0.939 . S
H45 C62 0.940 . S
C46 P32 1.812 . S
C46 C47 1.389 . S
C46 C51 1.391 . S
C47 H33 0.941 . S
C47 C46 1.389 . S
C47 C48 1.397 . S
C48 H34 0.939 . S
C48 C47 1.397 . S
C48 C49 1.378 . S
C49 C48 1.378 . S
C49 C50 1.378 . S
C50 H35 0.940 . S
C50 C49 1.378 . S
C50 C51 1.396 . S
C51 H36 0.940 . S
C51 C46 1.391 . S
C51 C50 1.396 . S
C52 P32 1.803 . S
C52 C53 1.378 . S
C52 C57 1.400 . S
C53 H37 0.939 . S
C53 C52 1.378 . S
C53 C54 1.361 . S
C54 H38 0.942 . S
C54 C53 1.361 . S
C54 C55 1.369 . S
C55 C54 1.369 . S
C55 C56 1.404 . S
C56 H39 0.940 . S
C56 C55 1.404 . S
C56 C57 1.389 . S
C57 H40 0.939 . S
C57 C52 1.400 . S
C57 C56 1.389 . S
C58 P32 1.819 . S
C58 C59 1.391 . S
C58 C63 1.391 . S
C59 H41 0.941 . S
C59 C58 1.391 . S
C59 C60 1.396 . S
C60 H44 0.939 . S
C60 C59 1.396 . S
C60 C61 1.397 . S
C61 C60 1.397 . S
C61 C62 1.385 . S
C62 H45 0.940 . S
C62 C61 1.385 . S
C62 C63 1.388 . S
C63 H42 0.939 . S
C63 C58 1.391 . S
C63 C62 1.388 . S
P64 O75 1.490 . S
P64 C78 1.812 . S
P64 C84 1.803 . S
P64 C90 1.819 . S
H65 C79 0.941 . S
H66 C80 0.939 . S
H67 C82 0.940 . S
H68 C83 0.940 . S
H69 C85 0.939 . S
H70 C86 0.942 . S
H71 C88 0.940 . S
H72 C89 0.939 . S
H73 C91 0.941 . S
H74 C95 0.939 . S
O75 P64 1.490 . S
H76 C92 0.939 . S
H77 C94 0.940 . S
C78 P64 1.812 . S
C78 C79 1.389 . S
C78 C83 1.391 . S
C79 H65 0.941 . S
C79 C78 1.389 . S
C79 C80 1.397 . S
C80 H66 0.939 . S
C80 C79 1.397 . S
C80 C81 1.378 . S
C81 C80 1.378 . S
C81 C82 1.378 . S
C82 H67 0.940 . S
C82 C81 1.378 . S
C82 C83 1.396 . S
C83 H68 0.940 . S
C83 C78 1.391 . S
C83 C82 1.396 . S
C84 P64 1.803 . S
C84 C85 1.378 . S
C84 C89 1.400 . S
C85 H69 0.939 . S
C85 C84 1.378 . S
C85 C86 1.361 . S
C86 H70 0.942 . S
C86 C85 1.361 . S
C86 C87 1.369 . S
C87 C86 1.369 . S
C87 C88 1.404 . S
C88 H71 0.940 . S
C88 C87 1.404 . S
C88 C89 1.389 . S
C89 H72 0.939 . S
C89 C84 1.400 . S
C89 C88 1.389 . S
C90 P64 1.819 . S
C90 C91 1.391 . S
C90 C95 1.391 . S
C91 H73 0.941 . S
C91 C90 1.391 . S
C91 C92 1.396 . S
C92 H76 0.939 . S
C92 C91 1.396 . S
C92 C93 1.397 . S
C93 C92 1.397 . S
C93 C94 1.385 . S
C94 H77 0.940 . S
C94 C93 1.385 . S
C94 C95 1.388 . S
C95 H74 0.939 . S
C95 C90 1.391 . S
C95 C94 1.388 . S
P96 O107 1.490 . S
P96 C110 1.812 . S
P96 C116 1.803 . S
P96 C122 1.819 . S
H97 C111 0.941 . S
H98 C112 0.939 . S
H99 C114 0.940 . S
H100 C115 0.940 . S
H101 C117 0.939 . S
H102 C118 0.942 . S
H103 C120 0.940 . S
H104 C121 0.939 . S
H105 C123 0.941 . S
H106 C127 0.939 . S
O107 P96 1.490 . S
H108 C124 0.939 . S
H109 C126 0.940 . S
C110 P96 1.812 . S
C110 C111 1.389 . S
C110 C115 1.391 . S
C111 H97 0.941 . S
C111 C110 1.389 . S
C111 C112 1.397 . S
C112 H98 0.939 . S
C112 C111 1.397 . S
C112 C113 1.378 . S
C113 C112 1.378 . S
C113 C114 1.378 . S
C114 H99 0.940 . S
C114 C113 1.378 . S
C114 C115 1.396 . S
C115 H100 0.940 . S
C115 C110 1.391 . S
C115 C114 1.396 . S
C116 P96 1.803 . S
C116 C117 1.378 . S
C116 C121 1.400 . S
C117 H101 0.939 . S
C117 C116 1.378 . S
C117 C118 1.361 . S
C118 H102 0.942 . S
C118 C117 1.361 . S
C118 C119 1.369 . S
C119 C118 1.369 . S
C119 C120 1.404 . S
C120 H103 0.940 . S
C120 C119 1.404 . S
C120 C121 1.389 . S
C121 H104 0.939 . S
C121 C116 1.400 . S
C121 C120 1.389 . S
C122 P96 1.819 . S
C122 C123 1.391 . S
C122 C127 1.391 . S
C123 H105 0.941 . S
C123 C122 1.391 . S
C123 C124 1.396 . S
C124 H108 0.939 . S
C124 C123 1.396 . S
C124 C125 1.397 . S
C125 C124 1.397 . S
C125 C126 1.385 . S
C126 H109 0.940 . S
C126 C125 1.385 . S
C126 C127 1.388 . S
C127 H106 0.939 . S
C127 C122 1.391 . S
C127 C126 1.388 . S
P128 O139 1.490 . S
P128 C142 1.812 . S
P128 C148 1.803 . S
P128 C154 1.819 . S
H129 C143 0.941 . S
H130 C144 0.939 . S
H131 C146 0.940 . S
H132 C147 0.940 . S
H133 C149 0.939 . S
H134 C150 0.942 . S
H135 C152 0.940 . S
H136 C153 0.939 . S
H137 C155 0.941 . S
H138 C159 0.939 . S
O139 P128 1.490 . S
H140 C156 0.939 . S
H141 C158 0.940 . S
C142 P128 1.812 . S
C142 C143 1.389 . S
C142 C147 1.391 . S
C143 H129 0.941 . S
C143 C142 1.389 . S
C143 C144 1.397 . S
C144 H130 0.939 . S
C144 C143 1.397 . S
C144 C145 1.378 . S
C145 C144 1.378 . S
C145 C146 1.378 . S
C146 H131 0.940 . S
C146 C145 1.378 . S
C146 C147 1.396 . S
C147 H132 0.940 . S
C147 C142 1.391 . S
C147 C146 1.396 . S
C148 P128 1.803 . S
C148 C149 1.378 . S
C148 C153 1.400 . S
C149 H133 0.939 . S
C149 C148 1.378 . S
C149 C150 1.361 . S
C150 H134 0.942 . S
C150 C149 1.361 . S
C150 C151 1.369 . S
C151 C150 1.369 . S
C151 C152 1.404 . S
C152 H135 0.940 . S
C152 C151 1.404 . S
C152 C153 1.389 . S
C153 H136 0.939 . S
C153 C148 1.400 . S
C153 C152 1.389 . S
C154 P128 1.819 . S
C154 C155 1.391 . S
C154 C159 1.391 . S
C155 H137 0.941 . S
C155 C154 1.391 . S
C155 C156 1.396 . S
C156 H140 0.939 . S
C156 C155 1.396 . S
C156 C157 1.397 . S
C157 C156 1.397 . S
C157 C158 1.385 . S
C158 H141 0.940 . S
C158 C157 1.385 . S
C158 C159 1.388 . S
C159 H138 0.939 . S
C159 C154 1.391 . S
C159 C158 1.388 . S
P160 O171 1.490 . S
P160 C174 1.812 . S
P160 C180 1.803 . S
P160 C186 1.819 . S
H161 C175 0.941 . S
H162 C176 0.939 . S
H163 C178 0.940 . S
H164 C179 0.940 . S
H165 C181 0.939 . S
H166 C182 0.942 . S
H167 C184 0.940 . S
H168 C185 0.939 . S
H169 C187 0.941 . S
H170 C191 0.939 . S
O171 P160 1.490 . S
H172 C188 0.939 . S
H173 C190 0.940 . S
C174 P160 1.812 . S
C174 C175 1.389 . S
C174 C179 1.391 . S
C175 H161 0.941 . S
C175 C174 1.389 . S
C175 C176 1.397 . S
C176 H162 0.939 . S
C176 C175 1.397 . S
C176 C177 1.378 . S
C177 C176 1.378 . S
C177 C178 1.378 . S
C178 H163 0.940 . S
C178 C177 1.378 . S
C178 C179 1.396 . S
C179 H164 0.940 . S
C179 C174 1.391 . S
C179 C178 1.396 . S
C180 P160 1.803 . S
C180 C181 1.378 . S
C180 C185 1.400 . S
C181 H165 0.939 . S
C181 C180 1.378 . S
C181 C182 1.361 . S
C182 H166 0.942 . S
C182 C181 1.361 . S
C182 C183 1.369 . S
C183 C182 1.369 . S
C183 C184 1.404 . S
C184 H167 0.940 . S
C184 C183 1.404 . S
C184 C185 1.389 . S
C185 H168 0.939 . S
C185 C180 1.400 . S
C185 C184 1.389 . S
C186 P160 1.819 . S
C186 C187 1.391 . S
C186 C191 1.391 . S
C187 H169 0.941 . S
C187 C186 1.391 . S
C187 C188 1.396 . S
C188 H172 0.939 . S
C188 C187 1.396 . S
C188 C189 1.397 . S
C189 C188 1.397 . S
C189 C190 1.385 . S
C190 H173 0.940 . S
C190 C189 1.385 . S
C190 C191 1.388 . S
C191 H170 0.939 . S
C191 C186 1.391 . S
C191 C190 1.388 . S
P192 O203 1.490 . S
P192 C206 1.812 . S
P192 C212 1.803 . S
P192 C218 1.819 . S
H193 C207 0.941 . S
H194 C208 0.939 . S
H195 C210 0.940 . S
H196 C211 0.940 . S
H197 C213 0.939 . S
H198 C214 0.942 . S
H199 C216 0.940 . S
H200 C217 0.939 . S
H201 C219 0.941 . S
H202 C223 0.939 . S
O203 P192 1.490 . S
H204 C220 0.939 . S
H205 C222 0.940 . S
C206 P192 1.812 . S
C206 C207 1.389 . S
C206 C211 1.391 . S
C207 H193 0.941 . S
C207 C206 1.389 . S
C207 C208 1.397 . S
C208 H194 0.939 . S
C208 C207 1.397 . S
C208 C209 1.378 . S
C209 C208 1.378 . S
C209 C210 1.378 . S
C210 H195 0.940 . S
C210 C209 1.378 . S
C210 C211 1.396 . S
C211 H196 0.940 . S
C211 C206 1.391 . S
C211 C210 1.396 . S
C212 P192 1.803 . S
C212 C213 1.378 . S
C212 C217 1.400 . S
C213 H197 0.939 . S
C213 C212 1.378 . S
C213 C214 1.361 . S
C214 H198 0.942 . S
C214 C213 1.361 . S
C214 C215 1.369 . S
C215 C214 1.369 . S
C215 C216 1.404 . S
C216 H199 0.940 . S
C216 C215 1.404 . S
C216 C217 1.389 . S
C217 H200 0.939 . S
C217 C212 1.400 . S
C217 C216 1.389 . S
C218 P192 1.819 . S
C218 C219 1.391 . S
C218 C223 1.391 . S
C219 H201 0.941 . S
C219 C218 1.391 . S
C219 C220 1.396 . S
C220 H204 0.939 . S
C220 C219 1.396 . S
C220 C221 1.397 . S
C221 C220 1.397 . S
C221 C222 1.385 . S
C222 H205 0.940 . S
C222 C221 1.385 . S
C222 C223 1.388 . S
C223 H202 0.939 . S
C223 C218 1.391 . S
C223 C222 1.388 . S
P224 O235 1.490 . S
P224 C238 1.812 . S
P224 C244 1.803 . S
P224 C250 1.819 . S
H225 C239 0.941 . S
H226 C240 0.939 . S
H227 C242 0.940 . S
H228 C243 0.940 . S
H229 C245 0.939 . S
H230 C246 0.942 . S
H231 C248 0.940 . S
H232 C249 0.939 . S
H233 C251 0.941 . S
H234 C255 0.939 . S
O235 P224 1.490 . S
H236 C252 0.939 . S
H237 C254 0.940 . S
C238 P224 1.812 . S
C238 C239 1.389 . S
C238 C243 1.391 . S
C239 H225 0.941 . S
C239 C238 1.389 . S
C239 C240 1.397 . S
C240 H226 0.939 . S
C240 C239 1.397 . S
C240 C241 1.378 . S
C241 C240 1.378 . S
C241 C242 1.378 . S
C242 H227 0.940 . S
C242 C241 1.378 . S
C242 C243 1.396 . S
C243 H228 0.940 . S
C243 C238 1.391 . S
C243 C242 1.396 . S
C244 P224 1.803 . S
C244 C245 1.378 . S
C244 C249 1.400 . S
C245 H229 0.939 . S
C245 C244 1.378 . S
C245 C246 1.361 . S
C246 H230 0.942 . S
C246 C245 1.361 . S
C246 C247 1.369 . S
C247 C246 1.369 . S
C247 C248 1.404 . S
C248 H231 0.940 . S
C248 C247 1.404 . S
C248 C249 1.389 . S
C249 H232 0.939 . S
C249 C244 1.400 . S
C249 C248 1.389 . S
C250 P224 1.819 . S
C250 C251 1.391 . S
C250 C255 1.391 . S
C251 H233 0.941 . S
C251 C250 1.391 . S
C251 C252 1.396 . S
C252 H236 0.939 . S
C252 C251 1.396 . S
C252 C253 1.397 . S
C253 C252 1.397 . S
C253 C254 1.385 . S
C254 H237 0.940 . S
C254 C253 1.385 . S
C254 C255 1.388 . S
C255 H234 0.939 . S
C255 C250 1.391 . S
C255 C254 1.388 . S
C256 C258 1.422 . S
C256 C260 1.415 . S
C256 N262 1.369 . S
C257 C258 1.421 . S
C257 C259 1.417 . S
C257 C269 1.422 . S
C258 C256 1.422 . S
C258 C257 1.421 . S
C258 N268 1.359 . S
C259 C257 1.417 . S
C259 C261 1.329 . S
C259 H278 0.930 . S
C260 C256 1.415 . S
C260 C261 1.437 . S
C260 C264 1.413 . S
C261 C259 1.329 . S
C261 C260 1.437 . S
C261 H283 0.929 . S
N262 C256 1.369 . S
N262 C263 1.338 . S
N262 Gd267 2.622 . S
C263 N262 1.338 . S
C263 C265 1.378 . S
C263 H275 0.929 . S
C264 C260 1.413 . S
C264 C265 1.348 . S
C264 H280 0.931 . S
C265 C263 1.378 . S
C265 C264 1.348 . S
C265 H281 0.930 . S
Gd266 N286 2.622 . S
Gd266 N293 2.570 . S
Gd266 O300 2.353 . S
Gd266 O301 2.468 . S
Gd266 O302 2.427 . S
Gd266 O304 2.388 . S
Gd266 O305 2.386 . S
Gd266 O309 2.307 . S
Gd266 C319 2.805 . S
Gd267 N262 2.622 . S
Gd267 N268 2.570 . S
Gd267 O299 2.386 . S
Gd267 O303 2.307 1_655 S
Gd267 O306 2.353 1_655 S
Gd267 O307 2.468 . S
Gd267 O308 2.427 . S
Gd267 O310 2.388 . S
Gd267 C331 2.805 . S
N268 C258 1.359 . S
N268 Gd267 2.570 . S
N268 C270 1.343 . S
C269 C257 1.422 . S
C269 C271 1.321 . S
C269 H277 0.931 . S
C270 N268 1.343 . S
C270 C271 1.390 . S
C270 H272 0.931 . S
C271 C269 1.321 . S
C271 C270 1.390 . S
C271 H273 0.930 . S
H272 C270 0.931 . S
H273 C271 0.930 . S
H274 C297 0.931 . S
H275 C263 0.929 . S
H276 C298 0.930 . S
H277 C269 0.931 . S
H278 C259 0.930 . S
H279 C288 0.929 . S
H280 C264 0.931 . S
H281 C265 0.930 . S
H282 C320 0.930 . S
H283 C261 0.929 . S
H284 C289 0.931 . S
H285 C290 0.930 . S
N286 Gd266 2.622 . S
N286 C287 1.369 . S
N286 C288 1.338 . S
C287 N286 1.369 . S
C287 C291 1.415 . S
C287 C294 1.422 . S
C288 H279 0.929 . S
C288 N286 1.338 . S
C288 C290 1.378 . S
C289 H284 0.931 . S
C289 C290 1.348 . S
C289 C291 1.413 . S
C290 H285 0.930 . S
C290 C288 1.378 . S
C290 C289 1.348 . S
C291 C287 1.415 . S
C291 C289 1.413 . S
C291 C321 1.437 . S
H292 C321 0.929 . S
N293 Gd266 2.570 . S
N293 C294 1.359 . S
N293 C297 1.343 . S
C294 C287 1.422 . S
C294 N293 1.359 . S
C294 C296 1.421 . S
C295 C296 1.422 . S
C295 C298 1.321 . S
C295 H322 0.931 . S
C296 C294 1.421 . S
C296 C295 1.422 . S
C296 C320 1.417 . S
C297 H274 0.931 . S
C297 N293 1.343 . S
C297 C298 1.390 . S
C298 H276 0.930 . S
C298 C295 1.321 . S
C298 C297 1.390 . S
O299 Gd267 2.386 . S
O299 C311 1.265 . S
O300 Gd266 2.353 . S
O300 C311 1.242 1_455 S
O301 Gd266 2.468 . S
O301 C319 1.263 . S
O302 Gd266 2.427 . S
O302 C319 1.252 . S
O303 Gd267 2.307 1_455 S
O303 C312 1.261 . S
O304 Gd266 2.388 . S
O304 C312 1.252 . S
O305 Gd266 2.386 . S
O305 C323 1.265 . S
O306 Gd267 2.353 1_455 S
O306 C323 1.242 . S
O307 Gd267 2.468 . S
O307 C331 1.263 . S
O308 Gd267 2.427 . S
O308 C331 1.252 . S
O309 Gd266 2.307 . S
O309 C324 1.261 1_455 S
O310 Gd267 2.388 . S
O310 C324 1.252 . S
C311 O299 1.265 . S
C311 O300 1.242 1_655 S
C312 O303 1.261 . S
C312 O304 1.252 . S
C313 C316 1.394 . S
C313 C318 1.370 . S
C313 C319 1.500 . S
C314 C317 1.383 . S
C314 C318 1.395 . S
C315 C316 1.396 . S
C315 C317 1.365 . S
C315 H332 0.929 . S
C316 C313 1.394 . S
C316 C315 1.396 . S
C316 H333 0.930 . S
C317 C314 1.383 . S
C317 C315 1.365 . S
C317 H334 0.931 . S
C318 C313 1.370 . S
C318 C314 1.395 . S
C318 H335 0.930 . S
C319 Gd266 2.805 . S
C319 O301 1.263 . S
C319 O302 1.252 . S
C319 C313 1.500 . S
C320 H282 0.930 . S
C320 C296 1.417 . S
C320 C321 1.329 . S
C321 C291 1.437 . S
C321 H292 0.929 . S
C321 C320 1.329 . S
H322 C295 0.931 . S
C323 O305 1.265 . S
C323 O306 1.242 . S
C324 O309 1.261 1_655 S
C324 O310 1.252 . S
C325 C328 1.394 . S
C325 C330 1.370 . S
C325 C331 1.500 . S
C326 C329 1.383 . S
C326 C330 1.395 . S
C327 C328 1.396 . S
C327 C329 1.365 . S
C327 H336 0.929 . S
C328 C325 1.394 . S
C328 C327 1.396 . S
C328 H337 0.930 . S
C329 C326 1.383 . S
C329 C327 1.365 . S
C329 H338 0.931 . S
C330 C325 1.370 . S
C330 C326 1.395 . S
C330 H339 0.930 . S
C331 Gd267 2.805 . S
C331 O307 1.263 . S
C331 O308 1.252 . S
C331 C325 1.500 . S
H332 C315 0.929 . S
H333 C316 0.930 . S
H334 C317 0.931 . S
H335 C318 0.930 . S
H336 C327 0.929 . S
H337 C328 0.930 . S
H338 C329 0.931 . S
H339 C330 0.930 . S
C340 C342 1.422 . S
C340 C344 1.415 . S
C340 N346 1.369 . S
C341 C342 1.421 . S
C341 C343 1.417 . S
C341 C353 1.422 . S
C342 C340 1.422 . S
C342 C341 1.421 . S
C342 N352 1.359 . S
C343 C341 1.417 . S
C343 C345 1.329 . S
C343 H362 0.930 . S
C344 C340 1.415 . S
C344 C345 1.437 . S
C344 C348 1.413 . S
C345 C343 1.329 . S
C345 C344 1.437 . S
C345 H367 0.929 . S
N346 C340 1.369 . S
N346 C347 1.338 . S
N346 Gd351 2.622 . S
C347 N346 1.338 . S
C347 C349 1.378 . S
C347 H359 0.929 . S
C348 C344 1.413 . S
C348 C349 1.348 . S
C348 H364 0.931 . S
C349 C347 1.378 . S
C349 C348 1.348 . S
C349 H365 0.930 . S
Gd350 N370 2.622 . S
Gd350 N377 2.570 . S
Gd350 O384 2.353 . S
Gd350 O385 2.468 . S
Gd350 O386 2.427 . S
Gd350 O388 2.388 . S
Gd350 O389 2.386 . S
Gd350 O393 2.307 . S
Gd350 C403 2.805 . S
Gd351 N346 2.622 . S
Gd351 N352 2.570 . S
Gd351 O383 2.386 . S
Gd351 O387 2.307 . S
Gd351 O390 2.353 . S
Gd351 O391 2.468 . S
Gd351 O392 2.427 . S
Gd351 O394 2.388 . S
Gd351 C415 2.805 . S
N352 C342 1.359 . S
N352 Gd351 2.570 . S
N352 C354 1.343 . S
C353 C341 1.422 . S
C353 C355 1.321 . S
C353 H361 0.931 . S
C354 N352 1.343 . S
C354 C355 1.390 . S
C354 H356 0.931 . S
C355 C353 1.321 . S
C355 C354 1.390 . S
C355 H357 0.930 . S
H356 C354 0.931 . S
H357 C355 0.930 . S
H358 C381 0.931 . S
H359 C347 0.929 . S
H360 C382 0.930 . S
H361 C353 0.931 . S
H362 C343 0.930 . S
H363 C372 0.929 . S
H364 C348 0.931 . S
H365 C349 0.930 . S
H366 C404 0.930 . S
H367 C345 0.929 . S
H368 C373 0.931 . S
H369 C374 0.930 . S
N370 Gd350 2.622 . S
N370 C371 1.369 . S
N370 C372 1.338 . S
C371 N370 1.369 . S
C371 C375 1.415 . S
C371 C378 1.422 . S
C372 H363 0.929 . S
C372 N370 1.338 . S
C372 C374 1.378 . S
C373 H368 0.931 . S
C373 C374 1.348 . S
C373 C375 1.413 . S
C374 H369 0.930 . S
C374 C372 1.378 . S
C374 C373 1.348 . S
C375 C371 1.415 . S
C375 C373 1.413 . S
C375 C405 1.437 . S
H376 C405 0.929 . S
N377 Gd350 2.570 . S
N377 C378 1.359 . S
N377 C381 1.343 . S
C378 C371 1.422 . S
C378 N377 1.359 . S
C378 C380 1.421 . S
C379 C380 1.422 . S
C379 C382 1.321 . S
C379 H406 0.931 . S
C380 C378 1.421 . S
C380 C379 1.422 . S
C380 C404 1.417 . S
C381 H358 0.931 . S
C381 N377 1.343 . S
C381 C382 1.390 . S
C382 H360 0.930 . S
C382 C379 1.321 . S
C382 C381 1.390 . S
O383 Gd351 2.386 . S
O383 C395 1.265 . S
O384 Gd350 2.353 . S
O384 C395 1.242 . S
O385 Gd350 2.468 . S
O385 C403 1.263 . S
O386 Gd350 2.427 . S
O386 C403 1.252 . S
O387 Gd351 2.307 . S
O387 C396 1.261 . S
O388 Gd350 2.388 . S
O388 C396 1.252 . S
O389 Gd350 2.386 . S
O389 C407 1.265 . S
O390 Gd351 2.353 . S
O390 C407 1.242 . S
O391 Gd351 2.468 . S
O391 C415 1.263 . S
O392 Gd351 2.427 . S
O392 C415 1.252 . S
O393 Gd350 2.307 . S
O393 C408 1.261 . S
O394 Gd351 2.388 . S
O394 C408 1.252 . S
C395 O383 1.265 . S
C395 O384 1.242 . S
C396 O387 1.261 . S
C396 O388 1.252 . S
C397 C400 1.394 . S
C397 C402 1.370 . S
C397 C403 1.500 . S
C398 C401 1.383 . S
C398 C402 1.395 . S
C399 C400 1.396 . S
C399 C401 1.365 . S
C399 H416 0.929 . S
C400 C397 1.394 . S
C400 C399 1.396 . S
C400 H417 0.930 . S
C401 C398 1.383 . S
C401 C399 1.365 . S
C401 H418 0.931 . S
C402 C397 1.370 . S
C402 C398 1.395 . S
C402 H419 0.930 . S
C403 Gd350 2.805 . S
C403 O385 1.263 . S
C403 O386 1.252 . S
C403 C397 1.500 . S
C404 H366 0.930 . S
C404 C380 1.417 . S
C404 C405 1.329 . S
C405 C375 1.437 . S
C405 H376 0.929 . S
C405 C404 1.329 . S
H406 C379 0.931 . S
C407 O389 1.265 . S
C407 O390 1.242 . S
C408 O393 1.261 . S
C408 O394 1.252 . S
C409 C412 1.394 . S
C409 C414 1.370 . S
C409 C415 1.500 . S
C410 C413 1.383 . S
C410 C414 1.395 . S
C411 C412 1.396 . S
C411 C413 1.365 . S
C411 H420 0.929 . S
C412 C409 1.394 . S
C412 C411 1.396 . S
C412 H421 0.930 . S
C413 C410 1.383 . S
C413 C411 1.365 . S
C413 H422 0.931 . S
C414 C409 1.370 . S
C414 C410 1.395 . S
C414 H423 0.930 . S
C415 Gd351 2.805 . S
C415 O391 1.263 . S
C415 O392 1.252 . S
C415 C409 1.500 . S
H416 C399 0.929 . S
H417 C400 0.930 . S
H418 C401 0.931 . S
H419 C402 0.930 . S
H420 C411 0.929 . S
H421 C412 0.930 . S
H422 C413 0.931 . S
H423 C414 0.930 . S
C424 C426 1.422 . S
C424 C428 1.415 . S
C424 N430 1.369 . S
C425 C426 1.421 . S
C425 C427 1.417 . S
C425 C437 1.422 . S
C426 C424 1.422 . S
C426 C425 1.421 . S
C426 N436 1.359 . S
C427 C425 1.417 . S
C427 C429 1.329 . S
C427 H446 0.930 . S
C428 C424 1.415 . S
C428 C429 1.437 . S
C428 C432 1.413 . S
C429 C427 1.329 . S
C429 C428 1.437 . S
C429 H451 0.929 . S
N430 C424 1.369 . S
N430 C431 1.338 . S
N430 Gd435 2.622 . S
C431 N430 1.338 . S
C431 C433 1.378 . S
C431 H443 0.929 . S
C432 C428 1.413 . S
C432 C433 1.348 . S
C432 H448 0.931 . S
C433 C431 1.378 . S
C433 C432 1.348 . S
C433 H449 0.930 . S
Gd434 N454 2.622 . S
Gd434 N461 2.570 . S
Gd434 O468 2.353 . S
Gd434 O469 2.468 . S
Gd434 O470 2.427 . S
Gd434 O472 2.388 . S
Gd434 O473 2.386 . S
Gd434 O477 2.307 . S
Gd434 C487 2.805 . S
Gd435 N430 2.622 . S
Gd435 N436 2.570 . S
Gd435 O467 2.386 . S
Gd435 O471 2.307 1_655 S
Gd435 O474 2.353 1_655 S
Gd435 O475 2.468 . S
Gd435 O476 2.427 . S
Gd435 O478 2.388 . S
Gd435 C499 2.805 . S
N436 C426 1.359 . S
N436 Gd435 2.570 . S
N436 C438 1.343 . S
C437 C425 1.422 . S
C437 C439 1.321 . S
C437 H445 0.931 . S
C438 N436 1.343 . S
C438 C439 1.390 . S
C438 H440 0.931 . S
C439 C437 1.321 . S
C439 C438 1.390 . S
C439 H441 0.930 . S
H440 C438 0.931 . S
H441 C439 0.930 . S
H442 C465 0.931 . S
H443 C431 0.929 . S
H444 C466 0.930 . S
H445 C437 0.931 . S
H446 C427 0.930 . S
H447 C456 0.929 . S
H448 C432 0.931 . S
H449 C433 0.930 . S
H450 C488 0.930 . S
H451 C429 0.929 . S
H452 C457 0.931 . S
H453 C458 0.930 . S
N454 Gd434 2.622 . S
N454 C455 1.369 . S
N454 C456 1.338 . S
C455 N454 1.369 . S
C455 C459 1.415 . S
C455 C462 1.422 . S
C456 H447 0.929 . S
C456 N454 1.338 . S
C456 C458 1.378 . S
C457 H452 0.931 . S
C457 C458 1.348 . S
C457 C459 1.413 . S
C458 H453 0.930 . S
C458 C456 1.378 . S
C458 C457 1.348 . S
C459 C455 1.415 . S
C459 C457 1.413 . S
C459 C489 1.437 . S
H460 C489 0.929 . S
N461 Gd434 2.570 . S
N461 C462 1.359 . S
N461 C465 1.343 . S
C462 C455 1.422 . S
C462 N461 1.359 . S
C462 C464 1.421 . S
C463 C464 1.422 . S
C463 C466 1.321 . S
C463 H490 0.931 . S
C464 C462 1.421 . S
C464 C463 1.422 . S
C464 C488 1.417 . S
C465 H442 0.931 . S
C465 N461 1.343 . S
C465 C466 1.390 . S
C466 H444 0.930 . S
C466 C463 1.321 . S
C466 C465 1.390 . S
O467 Gd435 2.386 . S
O467 C479 1.265 . S
O468 Gd434 2.353 . S
O468 C479 1.242 1_455 S
O469 Gd434 2.468 . S
O469 C487 1.263 . S
O470 Gd434 2.427 . S
O470 C487 1.252 . S
O471 Gd435 2.307 1_455 S
O471 C480 1.261 . S
O472 Gd434 2.388 . S
O472 C480 1.252 . S
O473 Gd434 2.386 . S
O473 C491 1.265 . S
O474 Gd435 2.353 1_455 S
O474 C491 1.242 . S
O475 Gd435 2.468 . S
O475 C499 1.263 . S
O476 Gd435 2.427 . S
O476 C499 1.252 . S
O477 Gd434 2.307 . S
O477 C492 1.261 1_455 S
O478 Gd435 2.388 . S
O478 C492 1.252 . S
C479 O467 1.265 . S
C479 O468 1.242 1_655 S
C480 O471 1.261 . S
C480 O472 1.252 . S
C481 C484 1.394 . S
C481 C486 1.370 . S
C481 C487 1.500 . S
C482 C485 1.383 . S
C482 C486 1.395 . S
C483 C484 1.396 . S
C483 C485 1.365 . S
C483 H500 0.929 . S
C484 C481 1.394 . S
C484 C483 1.396 . S
C484 H501 0.930 . S
C485 C482 1.383 . S
C485 C483 1.365 . S
C485 H502 0.931 . S
C486 C481 1.370 . S
C486 C482 1.395 . S
C486 H503 0.930 . S
C487 Gd434 2.805 . S
C487 O469 1.263 . S
C487 O470 1.252 . S
C487 C481 1.500 . S
C488 H450 0.930 . S
C488 C464 1.417 . S
C488 C489 1.329 . S
C489 C459 1.437 . S
C489 H460 0.929 . S
C489 C488 1.329 . S
H490 C463 0.931 . S
C491 O473 1.265 . S
C491 O474 1.242 . S
C492 O477 1.261 1_655 S
C492 O478 1.252 . S
C493 C496 1.394 . S
C493 C498 1.370 . S
C493 C499 1.500 . S
C494 C497 1.383 . S
C494 C498 1.395 . S
C495 C496 1.396 . S
C495 C497 1.365 . S
C495 H504 0.929 . S
C496 C493 1.394 . S
C496 C495 1.396 . S
C496 H505 0.930 . S
C497 C494 1.383 . S
C497 C495 1.365 . S
C497 H506 0.931 . S
C498 C493 1.370 . S
C498 C494 1.395 . S
C498 H507 0.930 . S
C499 Gd435 2.805 . S
C499 O475 1.263 . S
C499 O476 1.252 . S
C499 C493 1.500 . S
H500 C483 0.929 . S
H501 C484 0.930 . S
H502 C485 0.931 . S
H503 C486 0.930 . S
H504 C495 0.929 . S
H505 C496 0.930 . S
H506 C497 0.931 . S
H507 C498 0.930 . S
C508 C510 1.422 . S
C508 C512 1.415 . S
C508 N514 1.369 . S
C509 C510 1.421 . S
C509 C511 1.417 . S
C509 C521 1.422 . S
C510 C508 1.422 . S
C510 C509 1.421 . S
C510 N520 1.359 . S
C511 C509 1.417 . S
C511 C513 1.329 . S
C511 H530 0.930 . S
C512 C508 1.415 . S
C512 C513 1.437 . S
C512 C516 1.413 . S
C513 C511 1.329 . S
C513 C512 1.437 . S
C513 H535 0.929 . S
N514 C508 1.369 . S
N514 C515 1.338 . S
N514 Gd519 2.622 . S
C515 N514 1.338 . S
C515 C517 1.378 . S
C515 H527 0.929 . S
C516 C512 1.413 . S
C516 C517 1.348 . S
C516 H532 0.931 . S
C517 C515 1.378 . S
C517 C516 1.348 . S
C517 H533 0.930 . S
Gd518 N538 2.622 . S
Gd518 N545 2.570 . S
Gd518 O552 2.353 . S
Gd518 O553 2.468 . S
Gd518 O554 2.427 . S
Gd518 O556 2.388 . S
Gd518 O557 2.386 . S
Gd518 O561 2.307 . S
Gd518 C571 2.805 . S
Gd519 N514 2.622 . S
Gd519 N520 2.570 . S
Gd519 O551 2.386 . S
Gd519 O555 2.307 . S
Gd519 O558 2.353 . S
Gd519 O559 2.468 . S
Gd519 O560 2.427 . S
Gd519 O562 2.388 . S
Gd519 C583 2.805 . S
N520 C510 1.359 . S
N520 Gd519 2.570 . S
N520 C522 1.343 . S
C521 C509 1.422 . S
C521 C523 1.321 . S
C521 H529 0.931 . S
C522 N520 1.343 . S
C522 C523 1.390 . S
C522 H524 0.931 . S
C523 C521 1.321 . S
C523 C522 1.390 . S
C523 H525 0.930 . S
H524 C522 0.931 . S
H525 C523 0.930 . S
H526 C549 0.931 . S
H527 C515 0.929 . S
H528 C550 0.930 . S
H529 C521 0.931 . S
H530 C511 0.930 . S
H531 C540 0.929 . S
H532 C516 0.931 . S
H533 C517 0.930 . S
H534 C572 0.930 . S
H535 C513 0.929 . S
H536 C541 0.931 . S
H537 C542 0.930 . S
N538 Gd518 2.622 . S
N538 C539 1.369 . S
N538 C540 1.338 . S
C539 N538 1.369 . S
C539 C543 1.415 . S
C539 C546 1.422 . S
C540 H531 0.929 . S
C540 N538 1.338 . S
C540 C542 1.378 . S
C541 H536 0.931 . S
C541 C542 1.348 . S
C541 C543 1.413 . S
C542 H537 0.930 . S
C542 C540 1.378 . S
C542 C541 1.348 . S
C543 C539 1.415 . S
C543 C541 1.413 . S
C543 C573 1.437 . S
H544 C573 0.929 . S
N545 Gd518 2.570 . S
N545 C546 1.359 . S
N545 C549 1.343 . S
C546 C539 1.422 . S
C546 N545 1.359 . S
C546 C548 1.421 . S
C547 C548 1.422 . S
C547 C550 1.321 . S
C547 H574 0.931 . S
C548 C546 1.421 . S
C548 C547 1.422 . S
C548 C572 1.417 . S
C549 H526 0.931 . S
C549 N545 1.343 . S
C549 C550 1.390 . S
C550 H528 0.930 . S
C550 C547 1.321 . S
C550 C549 1.390 . S
O551 Gd519 2.386 . S
O551 C563 1.265 . S
O552 Gd518 2.353 . S
O552 C563 1.242 . S
O553 Gd518 2.468 . S
O553 C571 1.263 . S
O554 Gd518 2.427 . S
O554 C571 1.252 . S
O555 Gd519 2.307 . S
O555 C564 1.261 . S
O556 Gd518 2.388 . S
O556 C564 1.252 . S
O557 Gd518 2.386 . S
O557 C575 1.265 . S
O558 Gd519 2.353 . S
O558 C575 1.242 . S
O559 Gd519 2.468 . S
O559 C583 1.263 . S
O560 Gd519 2.427 . S
O560 C583 1.252 . S
O561 Gd518 2.307 . S
O561 C576 1.261 . S
O562 Gd519 2.388 . S
O562 C576 1.252 . S
C563 O551 1.265 . S
C563 O552 1.242 . S
C564 O555 1.261 . S
C564 O556 1.252 . S
C565 C568 1.394 . S
C565 C570 1.370 . S
C565 C571 1.500 . S
C566 C569 1.383 . S
C566 C570 1.395 . S
C567 C568 1.396 . S
C567 C569 1.365 . S
C567 H584 0.929 . S
C568 C565 1.394 . S
C568 C567 1.396 . S
C568 H585 0.930 . S
C569 C566 1.383 . S
C569 C567 1.365 . S
C569 H586 0.931 . S
C570 C565 1.370 . S
C570 C566 1.395 . S
C570 H587 0.930 . S
C571 Gd518 2.805 . S
C571 O553 1.263 . S
C571 O554 1.252 . S
C571 C565 1.500 . S
C572 H534 0.930 . S
C572 C548 1.417 . S
C572 C573 1.329 . S
C573 C543 1.437 . S
C573 H544 0.929 . S
C573 C572 1.329 . S
H574 C547 0.931 . S
C575 O557 1.265 . S
C575 O558 1.242 . S
C576 O561 1.261 . S
C576 O562 1.252 . S
C577 C580 1.394 . S
C577 C582 1.370 . S
C577 C583 1.500 . S
C578 C581 1.383 . S
C578 C582 1.395 . S
C579 C580 1.396 . S
C579 C581 1.365 . S
C579 H588 0.929 . S
C580 C577 1.394 . S
C580 C579 1.396 . S
C580 H589 0.930 . S
C581 C578 1.383 . S
C581 C579 1.365 . S
C581 H590 0.931 . S
C582 C577 1.370 . S
C582 C578 1.395 . S
C582 H591 0.930 . S
C583 Gd519 2.805 . S
C583 O559 1.263 . S
C583 O560 1.252 . S
C583 C577 1.500 . S
H584 C567 0.929 . S
H585 C568 0.930 . S
H586 C569 0.931 . S
H587 C570 0.930 . S
H588 C579 0.929 . S
H589 C580 0.930 . S
H590 C581 0.931 . S
H591 C582 0.930 . S
H592 C600 0.929 . S
H593 C602 0.930 . S
H594 C604 0.930 . S
H595 C607 0.929 . S
H596 C610 0.930 . S
H597 C612 0.960 . S
H598 C612 0.960 . S
H599 C612 0.960 . S
C600 H592 0.929 . S
C600 C601 1.377 . S
C600 C602 1.384 . S
C601 C600 1.377 . S
C601 C607 1.390 . S
C602 H593 0.930 . S
C602 C600 1.384 . S
C602 C603 1.372 . S
C603 C602 1.372 . S
C603 C604 1.400 . S
C603 C608 1.490 1_565 S
C604 H594 0.930 . S
C604 C603 1.400 . S
C604 C607 1.386 . S
H605 C621 0.930 . S
H606 C622 0.931 . S
C607 H595 0.929 . S
C607 C601 1.390 . S
C607 C604 1.386 . S
C608 C603 1.490 1_545 S
C608 C610 1.395 1_545 S
C608 C611 1.403 . S
H609 C615 0.930 . S
C610 H596 0.930 . S
C610 C608 1.395 1_565 S
C610 C613 1.403 1_565 S
C611 C608 1.403 . S
C611 C612 1.524 . S
C611 C615 1.400 . S
C612 H597 0.960 . S
C612 H598 0.960 . S
C612 H599 0.960 . S
C612 C611 1.524 . S
C613 C610 1.403 1_545 S
C613 C614 1.392 . S
C613 C617 1.495 . S
C614 C613 1.392 . S
C614 C615 1.385 . S
C614 C616 1.478 . S
C615 H609 0.930 . S
C615 C611 1.400 . S
C615 C614 1.385 . S
C616 C614 1.478 . S
C616 C618 1.381 . S
C616 C622 1.383 . S
C617 C613 1.495 . S
C617 H623 0.959 1_545 S
C617 H624 0.961 . S
C617 H625 0.960 . S
C618 C616 1.381 . S
C618 C619 1.394 . S
C618 H626 0.930 . S
C619 C618 1.394 . S
C619 C620 1.383 . S
C619 H627 0.929 . S
C620 C619 1.383 . S
C620 C621 1.377 . S
C621 H605 0.930 . S
C621 C620 1.377 . S
C621 C622 1.379 . S
C622 H606 0.931 . S
C622 C616 1.383 . S
C622 C621 1.379 . S
H623 C617 0.959 1_565 S
H624 C617 0.961 . S
H625 C617 0.960 . S
H626 C618 0.930 . S
H627 C619 0.929 . S
H628 C636 0.929 . S
H629 C638 0.930 . S
H630 C640 0.930 . S
H631 C643 0.929 . S
H632 C646 0.930 . S
H633 C648 0.960 . S
H634 C648 0.960 . S
H635 C648 0.960 . S
C636 H628 0.929 . S
C636 C637 1.377 . S
C636 C638 1.384 . S
C637 C636 1.377 . S
C637 C643 1.390 . S
C638 H629 0.930 . S
C638 C636 1.384 . S
C638 C639 1.372 . S
C639 C638 1.372 . S
C639 C640 1.400 . S
C639 C644 1.490 . S
C640 H630 0.930 . S
C640 C639 1.400 . S
C640 C643 1.386 . S
H641 C657 0.930 . S
H642 C658 0.931 . S
C643 H631 0.929 . S
C643 C637 1.390 . S
C643 C640 1.386 . S
C644 C639 1.490 . S
C644 C646 1.395 . S
C644 C647 1.403 . S
H645 C651 0.930 . S
C646 H632 0.930 . S
C646 C644 1.395 . S
C646 C649 1.403 . S
C647 C644 1.403 . S
C647 C648 1.524 . S
C647 C651 1.400 . S
C648 H633 0.960 . S
C648 H634 0.960 . S
C648 H635 0.960 . S
C648 C647 1.524 . S
C649 C646 1.403 . S
C649 C650 1.392 . S
C649 C653 1.495 . S
C650 C649 1.392 . S
C650 C651 1.385 . S
C650 C652 1.478 . S
C651 H645 0.930 . S
C651 C647 1.400 . S
C651 C650 1.385 . S
C652 C650 1.478 . S
C652 C654 1.381 . S
C652 C658 1.383 . S
C653 C649 1.495 . S
C653 H659 0.959 . S
C653 H660 0.961 . S
C653 H661 0.960 . S
C654 C652 1.381 . S
C654 C655 1.394 . S
C654 H662 0.930 . S
C655 C654 1.394 . S
C655 C656 1.383 . S
C655 H663 0.929 . S
C656 C655 1.383 . S
C656 C657 1.377 . S
C657 H641 0.930 . S
C657 C656 1.377 . S
C657 C658 1.379 . S
C658 H642 0.931 . S
C658 C652 1.383 . S
C658 C657 1.379 . S
H659 C653 0.959 . S
H660 C653 0.961 . S
H661 C653 0.960 . S
H662 C654 0.930 . S
H663 C655 0.929 . S
H664 C672 0.929 . S
H665 C674 0.930 . S
H666 C676 0.930 . S
H667 C679 0.929 . S
H668 C682 0.930 . S
H669 C684 0.960 . S
H670 C684 0.960 . S
H671 C684 0.960 . S
C672 H664 0.929 . S
C672 C673 1.377 . S
C672 C674 1.384 . S
C673 C672 1.377 . S
C673 C679 1.390 . S
C674 H665 0.930 . S
C674 C672 1.384 . S
C674 C675 1.372 . S
C675 C674 1.372 . S
C675 C676 1.400 . S
C675 C680 1.490 . S
C676 H666 0.930 . S
C676 C675 1.400 . S
C676 C679 1.386 . S
H677 C693 0.930 . S
H678 C694 0.931 . S
C679 H667 0.929 . S
C679 C673 1.390 . S
C679 C676 1.386 . S
C680 C675 1.490 . S
C680 C682 1.395 . S
C680 C683 1.403 . S
H681 C687 0.930 . S
C682 H668 0.930 . S
C682 C680 1.395 . S
C682 C685 1.403 . S
C683 C680 1.403 . S
C683 C684 1.524 . S
C683 C687 1.400 . S
C684 H669 0.960 . S
C684 H670 0.960 . S
C684 H671 0.960 . S
C684 C683 1.524 . S
C685 C682 1.403 . S
C685 C686 1.392 . S
C685 C689 1.495 . S
C686 C685 1.392 . S
C686 C687 1.385 . S
C686 C688 1.478 . S
C687 H681 0.930 . S
C687 C683 1.400 . S
C687 C686 1.385 . S
C688 C686 1.478 . S
C688 C690 1.381 . S
C688 C694 1.383 . S
C689 C685 1.495 . S
C689 H695 0.959 . S
C689 H696 0.961 . S
C689 H697 0.960 . S
C690 C688 1.381 . S
C690 C691 1.394 . S
C690 H698 0.930 . S
C691 C690 1.394 . S
C691 C692 1.383 . S
C691 H699 0.929 . S
C692 C691 1.383 . S
C692 C693 1.377 . S
C693 H677 0.930 . S
C693 C692 1.377 . S
C693 C694 1.379 . S
C694 H678 0.931 . S
C694 C688 1.383 . S
C694 C693 1.379 . S
H695 C689 0.959 . S
H696 C689 0.961 . S
H697 C689 0.960 . S
H698 C690 0.930 . S
H699 C691 0.929 . S
H700 C708 0.929 . S
H701 C710 0.930 . S
H702 C712 0.930 . S
H703 C715 0.929 . S
H704 C718 0.930 1_565 S
H705 C720 0.960 . S
H706 C720 0.960 . S
H707 C720 0.960 . S
C708 H700 0.929 . S
C708 C709 1.377 . S
C708 C710 1.384 . S
C709 C708 1.377 . S
C709 C715 1.390 . S
C710 H701 0.930 . S
C710 C708 1.384 . S
C710 C711 1.372 . S
C711 C710 1.372 . S
C711 C712 1.400 . S
C711 C716 1.490 1_565 S
C712 H702 0.930 . S
C712 C711 1.400 . S
C712 C715 1.386 . S
H713 C729 0.930 1_455 S
H714 C730 0.931 . S
C715 H703 0.929 . S
C715 C709 1.390 . S
C715 C712 1.386 . S
C716 C711 1.490 1_545 S
C716 C718 1.395 . S
C716 C719 1.403 . S
H717 C723 0.930 . S
C718 H704 0.930 1_545 S
C718 C716 1.395 . S
C718 C721 1.403 . S
C719 C716 1.403 . S
C719 C720 1.524 . S
C719 C723 1.400 . S
C720 H705 0.960 . S
C720 H706 0.960 . S
C720 H707 0.960 . S
C720 C719 1.524 . S
C721 C718 1.403 . S
C721 C722 1.392 . S
C721 C725 1.495 . S
C722 C721 1.392 . S
C722 C723 1.385 . S
C722 C724 1.478 . S
C723 H717 0.930 . S
C723 C719 1.400 . S
C723 C722 1.385 . S
C724 C722 1.478 . S
C724 C726 1.381 . S
C724 C730 1.383 . S
C725 C721 1.495 . S
C725 H731 0.959 1_545 S
C725 H732 0.961 . S
C725 H733 0.960 . S
C726 C724 1.381 . S
C726 C727 1.394 . S
C726 H734 0.930 . S
C727 C726 1.394 . S
C727 C728 1.383 . S
C727 H735 0.929 . S
C728 C727 1.383 . S
C728 C729 1.377 . S
C729 H713 0.930 1_655 S
C729 C728 1.377 . S
C729 C730 1.379 . S
C730 H714 0.931 . S
C730 C724 1.383 . S
C730 C729 1.379 . S
H731 C725 0.959 1_565 S
H732 C725 0.961 . S
H733 C725 0.960 . S
H734 C726 0.930 . S
H735 C727 0.929 . S
H736 C744 0.929 . S
H737 C746 0.930 1_565 S
H738 C748 0.930 . S
H739 C751 0.929 . S
H740 C754 0.930 . S
H741 C756 0.960 . S
H742 C756 0.960 . S
H743 C756 0.960 1_545 S
C744 H736 0.929 . S
C744 C745 1.377 . S
C744 C746 1.384 . S
C745 C744 1.377 . S
C745 C751 1.390 . S
C746 H737 0.930 1_545 S
C746 C744 1.384 . S
C746 C747 1.372 . S
C747 C746 1.372 . S
C747 C748 1.400 . S
C747 C752 1.490 1_545 S
C748 H738 0.930 . S
C748 C747 1.400 . S
C748 C751 1.386 . S
H749 C765 0.930 . S
H750 C766 0.931 . S
C751 H739 0.929 . S
C751 C745 1.390 . S
C751 C748 1.386 . S
C752 C747 1.490 1_565 S
C752 C754 1.395 . S
C752 C755 1.403 . S
H753 C759 0.930 . S
C754 H740 0.930 . S
C754 C752 1.395 . S
C754 C757 1.403 . S
C755 C752 1.403 . S
C755 C756 1.524 . S
C755 C759 1.400 . S
C756 H741 0.960 . S
C756 H742 0.960 . S
C756 H743 0.960 1_565 S
C756 C755 1.524 . S
C757 C754 1.403 . S
C757 C758 1.392 . S
C757 C761 1.495 . S
C758 C757 1.392 . S
C758 C759 1.385 . S
C758 C760 1.478 . S
C759 H753 0.930 . S
C759 C755 1.400 . S
C759 C758 1.385 . S
C760 C758 1.478 . S
C760 C762 1.381 . S
C760 C766 1.383 . S
C761 C757 1.495 . S
C761 H767 0.959 . S
C761 H768 0.961 . S
C761 H769 0.960 . S
C762 C760 1.381 . S
C762 C763 1.394 . S
C762 H770 0.930 . S
C763 C762 1.394 . S
C763 C764 1.383 . S
C763 H771 0.929 . S
C764 C763 1.383 . S
C764 C765 1.377 . S
C765 H749 0.930 . S
C765 C764 1.377 . S
C765 C766 1.379 . S
C766 H750 0.931 . S
C766 C760 1.383 . S
C766 C765 1.379 . S
H767 C761 0.959 . S
H768 C761 0.961 . S
H769 C761 0.960 . S
H770 C762 0.930 . S
H771 C763 0.929 . S
H772 C780 0.929 . S
H773 C782 0.930 . S
H774 C784 0.930 . S
H775 C787 0.929 . S
H776 C790 0.930 . S
H777 C792 0.960 . S
H778 C792 0.960 . S
H779 C792 0.960 . S
C780 H772 0.929 . S
C780 C781 1.377 . S
C780 C782 1.384 . S
C781 C780 1.377 . S
C781 C787 1.390 . S
C782 H773 0.930 . S
C782 C780 1.384 . S
C782 C783 1.372 . S
C783 C782 1.372 . S
C783 C784 1.400 . S
C783 C788 1.490 . S
C784 H774 0.930 . S
C784 C783 1.400 . S
C784 C787 1.386 . S
H785 C801 0.930 . S
H786 C802 0.931 . S
C787 H775 0.929 . S
C787 C781 1.390 . S
C787 C784 1.386 . S
C788 C783 1.490 . S
C788 C790 1.395 . S
C788 C791 1.403 . S
H789 C795 0.930 . S
C790 H776 0.930 . S
C790 C788 1.395 . S
C790 C793 1.403 . S
C791 C788 1.403 . S
C791 C792 1.524 . S
C791 C795 1.400 . S
C792 H777 0.960 . S
C792 H778 0.960 . S
C792 H779 0.960 . S
C792 C791 1.524 . S
C793 C790 1.403 . S
C793 C794 1.392 . S
C793 C797 1.495 . S
C794 C793 1.392 . S
C794 C795 1.385 . S
C794 C796 1.478 . S
C795 H789 0.930 . S
C795 C791 1.400 . S
C795 C794 1.385 . S
C796 C794 1.478 . S
C796 C798 1.381 . S
C796 C802 1.383 . S
C797 C793 1.495 . S
C797 H803 0.959 . S
C797 H804 0.961 . S
C797 H805 0.960 . S
C798 C796 1.381 . S
C798 C799 1.394 . S
C798 H806 0.930 . S
C799 C798 1.394 . S
C799 C800 1.383 . S
C799 H807 0.929 . S
C800 C799 1.383 . S
C800 C801 1.377 . S
C801 H785 0.930 . S
C801 C800 1.377 . S
C801 C802 1.379 . S
C802 H786 0.931 . S
C802 C796 1.383 . S
C802 C801 1.379 . S
H803 C797 0.959 . S
H804 C797 0.961 . S
H805 C797 0.960 . S
H806 C798 0.930 . S
H807 C799 0.929 . S
H808 C816 0.929 . S
H809 C818 0.930 . S
H810 C820 0.930 . S
H811 C823 0.929 . S
H812 C826 0.930 . S
H813 C828 0.960 . S
H814 C828 0.960 . S
H815 C828 0.960 . S
C816 H808 0.929 . S
C816 C817 1.377 . S
C816 C818 1.384 . S
C817 C816 1.377 . S
C817 C823 1.390 . S
C818 H809 0.930 . S
C818 C816 1.384 . S
C818 C819 1.372 . S
C819 C818 1.372 . S
C819 C820 1.400 . S
C819 C824 1.490 . S
C820 H810 0.930 . S
C820 C819 1.400 . S
C820 C823 1.386 . S
H821 C837 0.930 . S
H822 C838 0.931 . S
C823 H811 0.929 . S
C823 C817 1.390 . S
C823 C820 1.386 . S
C824 C819 1.490 . S
C824 C826 1.395 . S
C824 C827 1.403 . S
H825 C831 0.930 . S
C826 H812 0.930 . S
C826 C824 1.395 . S
C826 C829 1.403 . S
C827 C824 1.403 . S
C827 C828 1.524 . S
C827 C831 1.400 . S
C828 H813 0.960 . S
C828 H814 0.960 . S
C828 H815 0.960 . S
C828 C827 1.524 . S
C829 C826 1.403 . S
C829 C830 1.392 . S
C829 C833 1.495 . S
C830 C829 1.392 . S
C830 C831 1.385 . S
C830 C832 1.478 . S
C831 H825 0.930 . S
C831 C827 1.400 . S
C831 C830 1.385 . S
C832 C830 1.478 . S
C832 C834 1.381 . S
C832 C838 1.383 . S
C833 C829 1.495 . S
C833 H839 0.959 . S
C833 H840 0.961 . S
C833 H841 0.960 . S
C834 C832 1.381 . S
C834 C835 1.394 . S
C834 H842 0.930 . S
C835 C834 1.394 . S
C835 C836 1.383 . S
C835 H843 0.929 . S
C836 C835 1.383 . S
C836 C837 1.377 . S
C837 H821 0.930 . S
C837 C836 1.377 . S
C837 C838 1.379 . S
C838 H822 0.931 . S
C838 C832 1.383 . S
C838 C837 1.379 . S
H839 C833 0.959 . S
H840 C833 0.961 . S
H841 C833 0.960 . S
H842 C834 0.930 . S
H843 C835 0.929 . S
H844 C852 0.929 . S
H845 C854 0.930 . S
H846 C856 0.930 . S
H847 C859 0.929 . S
H848 C862 0.930 . S
H849 C864 0.960 . S
H850 C864 0.960 . S
H851 C864 0.960 . S
C852 H844 0.929 . S
C852 C853 1.377 . S
C852 C854 1.384 . S
C853 C852 1.377 . S
C853 C859 1.390 . S
C854 H845 0.930 . S
C854 C852 1.384 . S
C854 C855 1.372 . S
C855 C854 1.372 . S
C855 C856 1.400 . S
C855 C860 1.490 1_545 S
C856 H846 0.930 . S
C856 C855 1.400 . S
C856 C859 1.386 . S
H857 C873 0.930 . S
H858 C874 0.931 . S
C859 H847 0.929 . S
C859 C853 1.390 . S
C859 C856 1.386 . S
C860 C855 1.490 1_565 S
C860 C862 1.395 . S
C860 C863 1.403 . S
H861 C867 0.930 . S
C862 H848 0.930 . S
C862 C860 1.395 . S
C862 C865 1.403 . S
C863 C860 1.403 . S
C863 C864 1.524 1_565 S
C863 C867 1.400 . S
C864 H849 0.960 . S
C864 H850 0.960 . S
C864 H851 0.960 . S
C864 C863 1.524 1_545 S
C865 C862 1.403 . S
C865 C866 1.392 . S
C865 C869 1.495 . S
C866 C865 1.392 . S
C866 C867 1.385 . S
C866 C868 1.478 . S
C867 H861 0.930 . S
C867 C863 1.400 . S
C867 C866 1.385 . S
C868 C866 1.478 . S
C868 C870 1.381 . S
C868 C874 1.383 . S
C869 C865 1.495 . S
C869 H875 0.959 . S
C869 H876 0.961 . S
C869 H877 0.960 . S
C870 C868 1.381 . S
C870 C871 1.394 . S
C870 H878 0.930 . S
C871 C870 1.394 . S
C871 C872 1.383 . S
C871 H879 0.929 . S
C872 C871 1.383 . S
C872 C873 1.377 . S
C873 H857 0.930 . S
C873 C872 1.377 . S
C873 C874 1.379 . S
C874 H858 0.931 . S
C874 C868 1.383 . S
C874 C873 1.379 . S
H875 C869 0.959 . S
H876 C869 0.961 . S
H877 C869 0.960 . S
H878 C870 0.930 . S
H879 C871 0.929 . S
H880 C888 0.936 . S
H881 C890 0.930 . S
H882 C892 0.930 . S
H883 C895 0.929 . S
H884 C898 0.930 . S
H885 C900 0.960 . S
H886 C900 0.960 . S
H887 C900 0.960 . S
C888 H880 0.936 . S
C888 C889 1.399 . S
C888 C890 1.357 1_556 S
C889 C888 1.399 . S
C889 C895 1.390 . S
C890 H881 0.930 . S
C890 C888 1.357 1_554 S
C890 C891 1.372 . S
C891 C890 1.372 . S
C891 C892 1.400 . S
C891 C896 1.490 . S
C892 H882 0.930 . S
C892 C891 1.400 . S
C892 C895 1.386 1_554 S
H893 C909 0.930 . S
H894 C910 0.931 . S
C895 H883 0.929 . S
C895 C889 1.390 . S
C895 C892 1.386 1_556 S
C896 C891 1.490 . S
C896 C898 1.395 . S
C896 C899 1.403 . S
H897 C903 0.930 . S
C898 H884 0.930 . S
C898 C896 1.395 . S
C898 C901 1.403 . S
C899 C896 1.403 . S
C899 C900 1.524 . S
C899 C903 1.400 . S
C900 H885 0.960 . S
C900 H886 0.960 . S
C900 H887 0.960 . S
C900 C899 1.524 . S
C901 C898 1.403 . S
C901 C902 1.392 . S
C901 C905 1.495 . S
C902 C901 1.392 . S
C902 C903 1.385 . S
C902 C904 1.478 . S
C903 H897 0.930 . S
C903 C899 1.400 . S
C903 C902 1.385 . S
C904 C902 1.478 . S
C904 C906 1.381 . S
C904 C910 1.383 . S
C905 C901 1.495 . S
C905 H911 0.959 . S
C905 H912 0.961 . S
C905 H913 0.960 . S
C906 C904 1.381 . S
C906 C907 1.394 . S
C906 H914 0.930 . S
C907 C906 1.394 . S
C907 C908 1.383 . S
C907 H915 0.929 . S
C908 C907 1.383 . S
C908 C909 1.377 . S
C909 H893 0.930 . S
C909 C908 1.377 . S
C909 C910 1.379 . S
C910 H894 0.931 . S
C910 C904 1.383 . S
C910 C909 1.379 . S
H911 C905 0.959 . S
H912 C905 0.961 . S
H913 C905 0.960 . S
H914 C906 0.930 . S
H915 C907 0.929 . S
H916 C924 0.929 . S
H917 C926 0.930 . S
H918 C928 0.930 . S
H919 C931 0.929 . S
H920 C934 0.930 . S
H921 C936 0.960 . S
H922 C936 0.960 . S
H923 C936 0.960 . S
C924 H916 0.929 . S
C924 C925 1.377 . S
C924 C926 1.384 . S
C925 C924 1.377 . S
C925 C931 1.390 . S
C926 H917 0.930 . S
C926 C924 1.384 . S
C926 C927 1.372 . S
C927 C926 1.372 . S
C927 C928 1.400 . S
C927 C932 1.490 . S
C928 H918 0.930 . S
C928 C927 1.400 . S
C928 C931 1.386 . S
H929 C945 0.930 . S
H930 C946 0.931 . S
C931 H919 0.929 . S
C931 C925 1.390 . S
C931 C928 1.386 . S
C932 C927 1.490 . S
C932 C934 1.395 . S
C932 C935 1.403 . S
H933 C939 0.930 . S
C934 H920 0.930 . S
C934 C932 1.395 . S
C934 C937 1.403 . S
C935 C932 1.403 . S
C935 C936 1.524 . S
C935 C939 1.400 . S
C936 H921 0.960 . S
C936 H922 0.960 . S
C936 H923 0.960 . S
C936 C935 1.524 . S
C937 C934 1.403 . S
C937 C938 1.392 . S
C937 C941 1.495 . S
C938 C937 1.392 . S
C938 C939 1.385 . S
C938 C940 1.478 . S
C939 H933 0.930 . S
C939 C935 1.400 . S
C939 C938 1.385 . S
C940 C938 1.478 . S
C940 C942 1.381 . S
C940 C946 1.383 . S
C941 C937 1.495 . S
C941 H947 0.959 . S
C941 H948 0.961 . S
C941 H949 0.960 . S
C942 C940 1.381 . S
C942 C943 1.394 . S
C942 H950 0.930 . S
C943 C942 1.394 . S
C943 C944 1.383 . S
C943 H951 0.929 . S
C944 C943 1.383 . S
C944 C945 1.377 . S
C945 H929 0.930 . S
C945 C944 1.377 . S
C945 C946 1.379 . S
C946 H930 0.931 . S
C946 C940 1.383 . S
C946 C945 1.379 . S
H947 C941 0.959 . S
H948 C941 0.961 . S
H949 C941 0.960 . S
H950 C942 0.930 . S
H951 C943 0.929 . S
H952 C960 0.929 . S
H953 C962 0.930 . S
H954 C964 0.930 . S
H955 C967 0.929 . S
H956 C970 0.930 . S
H957 C972 0.960 . S
H958 C972 0.960 . S
H959 C972 0.960 . S
C960 H952 0.929 . S
C960 C961 1.377 . S
C960 C962 1.384 1_554 S
C961 C960 1.377 . S
C961 C967 1.390 . S
C962 H953 0.930 . S
C962 C960 1.384 1_556 S
C962 C963 1.372 . S
C963 C962 1.372 . S
C963 C964 1.400 . S
C963 C968 1.490 . S
C964 H954 0.930 . S
C964 C963 1.400 . S
C964 C967 1.386 1_556 S
H965 C981 0.930 . S
H966 C982 0.931 . S
C967 H955 0.929 . S
C967 C961 1.390 . S
C967 C964 1.386 1_554 S
C968 C963 1.490 . S
C968 C970 1.395 . S
C968 C971 1.403 . S
H969 C975 0.930 . S
C970 H956 0.930 . S
C970 C968 1.395 . S
C970 C973 1.403 . S
C971 C968 1.403 . S
C971 C972 1.524 . S
C971 C975 1.400 . S
C972 H957 0.960 . S
C972 H958 0.960 . S
C972 H959 0.960 . S
C972 C971 1.524 . S
C973 C970 1.403 . S
C973 C974 1.392 . S
C973 C977 1.495 . S
C974 C973 1.392 . S
C974 C975 1.385 . S
C974 C976 1.478 . S
C975 H969 0.930 . S
C975 C971 1.400 . S
C975 C974 1.385 . S
C976 C974 1.478 . S
C976 C978 1.381 . S
C976 C982 1.383 . S
C977 C973 1.495 . S
C977 H983 0.959 . S
C977 H984 0.961 . S
C977 H985 0.960 . S
C978 C976 1.381 . S
C978 C979 1.394 . S
C978 H986 0.930 . S
C979 C978 1.394 . S
C979 C980 1.383 . S
C979 H987 0.929 . S
C980 C979 1.383 . S
C980 C981 1.377 . S
C981 H965 0.930 . S
C981 C980 1.377 . S
C981 C982 1.379 . S
C982 H966 0.931 . S
C982 C976 1.383 . S
C982 C981 1.379 . S
H983 C977 0.959 . S
H984 C977 0.961 . S
H985 C977 0.960 . S
H986 C978 0.930 . S
H987 C979 0.929 . S
H988 C996 0.929 . S
H989 C998 0.930 . S
H990 C1000 0.930 . S
H991 C1003 0.929 . S
H992 C1006 0.930 . S
H993 C1008 0.960 . S
H994 C1008 0.960 . S
H995 C1008 0.960 . S
C996 H988 0.929 . S
C996 C997 1.377 . S
C996 C998 1.384 . S
C997 C996 1.377 . S
C997 C1003 1.390 . S
C998 H989 0.930 . S
C998 C996 1.384 . S
C998 C999 1.372 . S
C999 C998 1.372 . S
C999 C1000 1.400 . S
C999 C1004 1.490 . S
C1000 H990 0.930 . S
C1000 C999 1.400 . S
C1000 C1003 1.386 . S
H1001 C1017 0.930 . S
H1002 C1018 0.931 . S
C1003 H991 0.929 . S
C1003 C997 1.390 . S
C1003 C1000 1.386 . S
C1004 C999 1.490 . S
C1004 C1006 1.395 . S
C1004 C1007 1.403 . S
H1005 C1011 0.930 . S
C1006 H992 0.930 . S
C1006 C1004 1.395 . S
C1006 C1009 1.403 . S
C1007 C1004 1.403 . S
C1007 C1008 1.524 . S
C1007 C1011 1.400 . S
C1008 H993 0.960 . S
C1008 H994 0.960 . S
C1008 H995 0.960 . S
C1008 C1007 1.524 . S
C1009 C1006 1.403 . S
C1009 C1010 1.392 . S
C1009 C1013 1.495 . S
C1010 C1009 1.392 . S
C1010 C1011 1.385 . S
C1010 C1012 1.478 . S
C1011 H1005 0.930 . S
C1011 C1007 1.400 . S
C1011 C1010 1.385 . S
C1012 C1010 1.478 . S
C1012 C1014 1.381 . S
C1012 C1018 1.383 . S
C1013 C1009 1.495 . S
C1013 H1019 0.959 . S
C1013 H1020 0.961 . S
C1013 H1021 0.960 . S
C1014 C1012 1.381 . S
C1014 C1015 1.394 . S
C1014 H1022 0.930 . S
C1015 C1014 1.394 . S
C1015 C1016 1.383 . S
C1015 H1023 0.929 . S
C1016 C1015 1.383 . S
C1016 C1017 1.377 . S
C1017 H1001 0.930 . S
C1017 C1016 1.377 . S
C1017 C1018 1.379 . S
C1018 H1002 0.931 . S
C1018 C1012 1.383 . S
C1018 C1017 1.379 . S
H1019 C1013 0.959 . S
H1020 C1013 0.961 . S
H1021 C1013 0.960 . S
H1022 C1014 0.930 . S
H1023 C1015 0.929 . S
H1024 C1032 0.929 . S
H1025 C1034 0.930 . S
H1026 C1036 0.930 . S
H1027 C1039 0.929 . S
H1028 C1042 0.930 . S
H1029 C1044 0.960 . S
H1030 C1044 0.960 . S
H1031 C1044 0.960 . S
C1032 H1024 0.929 . S
C1032 C1033 1.377 . S
C1032 C1034 1.384 1_554 S
C1033 C1032 1.377 . S
C1033 C1039 1.390 . S
C1034 H1025 0.930 . S
C1034 C1032 1.384 1_556 S
C1034 C1035 1.372 . S
C1035 C1034 1.372 . S
C1035 C1036 1.400 . S
C1035 C1040 1.490 . S
C1036 H1026 0.930 . S
C1036 C1035 1.400 . S
C1036 C1039 1.386 1_556 S
H1037 C1053 0.930 . S
H1038 C1054 0.931 . S
C1039 H1027 0.929 . S
C1039 C1033 1.390 . S
C1039 C1036 1.386 1_554 S
C1040 C1035 1.490 . S
C1040 C1042 1.395 . S
C1040 C1043 1.403 . S
H1041 C1047 0.930 . S
C1042 H1028 0.930 . S
C1042 C1040 1.395 . S
C1042 C1045 1.403 . S
C1043 C1040 1.403 . S
C1043 C1044 1.524 . S
C1043 C1047 1.400 . S
C1044 H1029 0.960 . S
C1044 H1030 0.960 . S
C1044 H1031 0.960 . S
C1044 C1043 1.524 . S
C1045 C1042 1.403 . S
C1045 C1046 1.392 . S
C1045 C1049 1.495 . S
C1046 C1045 1.392 . S
C1046 C1047 1.385 . S
C1046 C1048 1.478 . S
C1047 H1041 0.930 . S
C1047 C1043 1.400 . S
C1047 C1046 1.385 . S
C1048 C1046 1.478 . S
C1048 C1050 1.381 . S
C1048 C1054 1.383 . S
C1049 C1045 1.495 . S
C1049 H1055 0.959 . S
C1049 H1056 0.961 . S
C1049 H1057 0.960 . S
C1050 C1048 1.381 . S
C1050 C1051 1.394 . S
C1050 H1058 0.930 . S
C1051 C1050 1.394 . S
C1051 C1052 1.383 . S
C1051 H1059 0.929 . S
C1052 C1051 1.383 . S
C1052 C1053 1.377 . S
C1053 H1037 0.930 . S
C1053 C1052 1.377 . S
C1053 C1054 1.379 . S
C1054 H1038 0.931 . S
C1054 C1048 1.383 . S
C1054 C1053 1.379 . S
H1055 C1049 0.959 . S
H1056 C1049 0.961 . S
H1057 C1049 0.960 . S
H1058 C1050 0.930 . S
H1059 C1051 0.929 . S
H1060 C1068 0.929 . S
H1061 C1070 0.930 . S
H1062 C1072 0.930 . S
H1063 C1075 0.929 . S
H1064 C1078 0.930 . S
H1065 C1080 0.960 . S
H1066 C1080 0.960 . S
H1067 C1080 0.960 . S
C1068 H1060 0.929 . S
C1068 C1069 1.377 . S
C1068 C1070 1.384 . S
C1069 C1068 1.377 . S
C1069 C1075 1.390 . S
C1070 H1061 0.930 . S
C1070 C1068 1.384 . S
C1070 C1071 1.372 . S
C1071 C1070 1.372 . S
C1071 C1072 1.400 . S
C1071 C1076 1.490 . S
C1072 H1062 0.930 . S
C1072 C1071 1.400 . S
C1072 C1075 1.386 . S
H1073 C1089 0.930 . S
H1074 C1090 0.931 . S
C1075 H1063 0.929 . S
C1075 C1069 1.390 . S
C1075 C1072 1.386 . S
C1076 C1071 1.490 . S
C1076 C1078 1.395 . S
C1076 C1079 1.403 . S
H1077 C1083 0.930 . S
C1078 H1064 0.930 . S
C1078 C1076 1.395 . S
C1078 C1081 1.403 . S
C1079 C1076 1.403 . S
C1079 C1080 1.524 . S
C1079 C1083 1.400 . S
C1080 H1065 0.960 . S
C1080 H1066 0.960 . S
C1080 H1067 0.960 . S
C1080 C1079 1.524 . S
C1081 C1078 1.403 . S
C1081 C1082 1.392 . S
C1081 C1085 1.495 . S
C1082 C1081 1.392 . S
C1082 C1083 1.385 . S
C1082 C1084 1.478 . S
C1083 H1077 0.930 . S
C1083 C1079 1.400 . S
C1083 C1082 1.385 . S
C1084 C1082 1.478 . S
C1084 C1086 1.381 . S
C1084 C1090 1.383 . S
C1085 C1081 1.495 . S
C1085 H1091 0.959 . S
C1085 H1092 0.961 . S
C1085 H1093 0.960 . S
C1086 C1084 1.381 . S
C1086 C1087 1.394 . S
C1086 H1094 0.930 . S
C1087 C1086 1.394 . S
C1087 C1088 1.383 . S
C1087 H1095 0.929 . S
C1088 C1087 1.383 . S
C1088 C1089 1.377 . S
C1089 H1073 0.930 . S
C1089 C1088 1.377 . S
C1089 C1090 1.379 . S
C1090 H1074 0.931 . S
C1090 C1084 1.383 . S
C1090 C1089 1.379 . S
H1091 C1085 0.959 . S
H1092 C1085 0.961 . S
H1093 C1085 0.960 . S
H1094 C1086 0.930 . S
H1095 C1087 0.929 . S
H1096 C1104 0.929 . S
H1097 C1106 0.930 . S
H1098 C1108 0.930 . S
H1099 C1111 0.929 . S
H1100 C1114 0.930 . S
H1101 C1116 0.960 . S
H1102 C1116 0.960 . S
H1103 C1116 0.960 . S
C1104 H1096 0.929 . S
C1104 C1105 1.377 . S
C1104 C1106 1.384 1_556 S
C1105 C1104 1.377 . S
C1105 C1111 1.390 . S
C1106 H1097 0.930 . S
C1106 C1104 1.384 1_554 S
C1106 C1107 1.372 . S
C1107 C1106 1.372 . S
C1107 C1108 1.400 . S
C1107 C1112 1.490 . S
C1108 H1098 0.930 . S
C1108 C1107 1.400 . S
C1108 C1111 1.386 1_554 S
H1109 C1125 0.930 . S
H1110 C1126 0.931 . S
C1111 H1099 0.929 . S
C1111 C1105 1.390 . S
C1111 C1108 1.386 1_556 S
C1112 C1107 1.490 . S
C1112 C1114 1.395 . S
C1112 C1115 1.403 . S
H1113 C1119 0.930 . S
C1114 H1100 0.930 . S
C1114 C1112 1.395 . S
C1114 C1117 1.403 . S
C1115 C1112 1.403 . S
C1115 C1116 1.524 . S
C1115 C1119 1.400 . S
C1116 H1101 0.960 . S
C1116 H1102 0.960 . S
C1116 H1103 0.960 . S
C1116 C1115 1.524 . S
C1117 C1114 1.403 . S
C1117 C1118 1.392 . S
C1117 C1121 1.495 . S
C1118 C1117 1.392 . S
C1118 C1119 1.385 . S
C1118 C1120 1.478 . S
C1119 H1113 0.930 . S
C1119 C1115 1.400 . S
C1119 C1118 1.385 . S
C1120 C1118 1.478 . S
C1120 C1122 1.381 . S
C1120 C1126 1.383 . S
C1121 C1117 1.495 . S
C1121 H1127 0.959 . S
C1121 H1128 0.961 . S
C1121 H1129 0.960 . S
C1122 C1120 1.381 . S
C1122 C1123 1.394 . S
C1122 H1130 0.930 . S
C1123 C1122 1.394 . S
C1123 C1124 1.383 . S
C1123 H1131 0.929 . S
C1124 C1123 1.383 . S
C1124 C1125 1.377 . S
C1125 H1109 0.930 . S
C1125 C1124 1.377 . S
C1125 C1126 1.379 . S
C1126 H1110 0.931 . S
C1126 C1120 1.383 . S
C1126 C1125 1.379 . S
H1127 C1121 0.959 . S
H1128 C1121 0.961 . S
H1129 C1121 0.960 . S
H1130 C1122 0.930 . S
H1131 C1123 0.929 . S
H1132 C1140 0.929 . S
H1133 C1142 0.930 . S
H1134 C1144 0.930 . S
H1135 C1147 0.929 . S
H1136 C1150 0.930 . S
H1137 C1152 0.960 . S
H1138 C1152 0.960 . S
H1139 C1152 0.960 . S
C1140 H1132 0.929 . S
C1140 C1141 1.377 . S
C1140 C1142 1.384 . S
C1141 C1140 1.377 . S
C1141 C1147 1.390 . S
C1142 H1133 0.930 . S
C1142 C1140 1.384 . S
C1142 C1143 1.372 . S
C1143 C1142 1.372 . S
C1143 C1144 1.400 . S
C1143 C1148 1.490 . S
C1144 H1134 0.930 . S
C1144 C1143 1.400 . S
C1144 C1147 1.386 . S
H1145 C1161 0.930 . S
H1146 C1162 0.931 . S
C1147 H1135 0.929 . S
C1147 C1141 1.390 . S
C1147 C1144 1.386 . S
C1148 C1143 1.490 . S
C1148 C1150 1.395 . S
C1148 C1151 1.403 . S
H1149 C1155 0.930 . S
C1150 H1136 0.930 . S
C1150 C1148 1.395 . S
C1150 C1153 1.403 . S
C1151 C1148 1.403 . S
C1151 C1152 1.524 . S
C1151 C1155 1.400 . S
C1152 H1137 0.960 . S
C1152 H1138 0.960 . S
C1152 H1139 0.960 . S
C1152 C1151 1.524 . S
C1153 C1150 1.403 . S
C1153 C1154 1.392 . S
C1153 C1157 1.495 . S
C1154 C1153 1.392 . S
C1154 C1155 1.385 . S
C1154 C1156 1.478 . S
C1155 H1149 0.930 . S
C1155 C1151 1.400 . S
C1155 C1154 1.385 . S
C1156 C1154 1.478 . S
C1156 C1158 1.381 . S
C1156 C1162 1.383 . S
C1157 C1153 1.495 . S
C1157 H1163 0.959 . S
C1157 H1164 0.961 . S
C1157 H1165 0.960 . S
C1158 C1156 1.381 . S
C1158 C1159 1.394 . S
C1158 H1166 0.930 . S
C1159 C1158 1.394 . S
C1159 C1160 1.383 . S
C1159 H1167 0.929 . S
C1160 C1159 1.383 . S
C1160 C1161 1.377 . S
C1161 H1145 0.930 . S
C1161 C1160 1.377 . S
C1161 C1162 1.379 . S
C1162 H1146 0.931 . S
C1162 C1156 1.383 . S
C1162 C1161 1.379 . S
H1163 C1157 0.959 . S
H1164 C1157 0.961 . S
H1165 C1157 0.960 . S
H1166 C1158 0.930 . S
H1167 C1159 0.929 . S
H1168 C1176 0.929 . S
H1169 C1178 0.930 . S
H1170 C1180 0.930 . S
H1171 C1183 0.929 . S
H1172 C1186 0.930 . S
H1173 C1188 0.960 . S
H1174 C1188 0.960 . S
H1175 C1188 0.960 . S
C1176 H1168 0.929 . S
C1176 C1177 1.377 . S
C1176 C1178 1.384 . S
C1177 C1176 1.377 . S
C1177 C1183 1.390 . S
C1178 H1169 0.930 . S
C1178 C1176 1.384 . S
C1178 C1179 1.372 . S
C1179 C1178 1.372 . S
C1179 C1180 1.400 . S
C1179 C1184 1.490 . S
C1180 H1170 0.930 . S
C1180 C1179 1.400 . S
C1180 C1183 1.386 . S
H1181 C1197 0.930 . S
H1182 C1198 0.931 . S
C1183 H1171 0.929 . S
C1183 C1177 1.390 . S
C1183 C1180 1.386 . S
C1184 C1179 1.490 . S
C1184 C1186 1.395 . S
C1184 C1187 1.403 . S
H1185 C1191 0.930 . S
C1186 H1172 0.930 . S
C1186 C1184 1.395 . S
C1186 C1189 1.403 . S
C1187 C1184 1.403 . S
C1187 C1188 1.524 . S
C1187 C1191 1.400 . S
C1188 H1173 0.960 . S
C1188 H1174 0.960 . S
C1188 H1175 0.960 . S
C1188 C1187 1.524 . S
C1189 C1186 1.403 . S
C1189 C1190 1.392 . S
C1189 C1193 1.495 . S
C1190 C1189 1.392 . S
C1190 C1191 1.385 . S
C1190 C1192 1.478 . S
C1191 H1185 0.930 . S
C1191 C1187 1.400 . S
C1191 C1190 1.385 . S
C1192 C1190 1.478 . S
C1192 C1194 1.381 . S
C1192 C1198 1.383 . S
C1193 C1189 1.495 . S
C1193 H1199 0.959 . S
C1193 H1200 0.961 . S
C1193 H1201 0.960 . S
C1194 C1192 1.381 . S
C1194 C1195 1.394 . S
C1194 H1202 0.930 . S
C1195 C1194 1.394 . S
C1195 C1196 1.383 . S
C1195 H1203 0.929 . S
C1196 C1195 1.383 . S
C1196 C1197 1.377 . S
C1197 H1181 0.930 . S
C1197 C1196 1.377 . S
C1197 C1198 1.379 . S
C1198 H1182 0.931 . S
C1198 C1192 1.383 . S
C1198 C1197 1.379 . S
H1199 C1193 0.959 . S
H1200 C1193 0.961 . S
H1201 C1193 0.960 . S
H1202 C1194 0.930 . S
H1203 C1195 0.929 . S
H1204 C1212 0.929 . S
H1205 C1214 0.930 . S
H1206 C1216 0.930 . S
H1207 C1219 0.929 . S
H1208 C1222 0.930 . S
H1209 C1224 0.960 . S
H1210 C1224 0.960 . S
H1211 C1224 0.960 . S
C1212 H1204 0.929 . S
C1212 C1213 1.377 . S
C1212 C1214 1.384 . S
C1213 C1212 1.377 . S
C1213 C1219 1.390 . S
C1214 H1205 0.930 . S
C1214 C1212 1.384 . S
C1214 C1215 1.372 . S
C1215 C1214 1.372 . S
C1215 C1216 1.400 . S
C1215 C1220 1.490 . S
C1216 H1206 0.930 . S
C1216 C1215 1.400 . S
C1216 C1219 1.386 . S
H1217 C1233 0.930 . S
H1218 C1234 0.931 . S
C1219 H1207 0.929 . S
C1219 C1213 1.390 . S
C1219 C1216 1.386 . S
C1220 C1215 1.490 . S
C1220 C1222 1.395 . S
C1220 C1223 1.403 . S
H1221 C1227 0.930 . S
C1222 H1208 0.930 . S
C1222 C1220 1.395 . S
C1222 C1225 1.403 . S
C1223 C1220 1.403 . S
C1223 C1224 1.524 . S
C1223 C1227 1.400 . S
C1224 H1209 0.960 . S
C1224 H1210 0.960 . S
C1224 H1211 0.960 . S
C1224 C1223 1.524 . S
C1225 C1222 1.403 . S
C1225 C1226 1.392 . S
C1225 C1229 1.495 . S
C1226 C1225 1.392 . S
C1226 C1227 1.385 . S
C1226 C1228 1.478 . S
C1227 H1221 0.930 . S
C1227 C1223 1.400 . S
C1227 C1226 1.385 . S
C1228 C1226 1.478 . S
C1228 C1230 1.381 . S
C1228 C1234 1.383 . S
C1229 C1225 1.495 . S
C1229 H1235 0.959 . S
C1229 H1236 0.961 . S
C1229 H1237 0.960 . S
C1230 C1228 1.381 . S
C1230 C1231 1.394 . S
C1230 H1238 0.930 . S
C1231 C1230 1.394 . S
C1231 C1232 1.383 . S
C1231 H1239 0.929 . S
C1232 C1231 1.383 . S
C1232 C1233 1.377 . S
C1233 H1217 0.930 . S
C1233 C1232 1.377 . S
C1233 C1234 1.379 . S
C1234 H1218 0.931 . S
C1234 C1228 1.383 . S
C1234 C1233 1.379 . S
H1235 C1229 0.959 . S
H1236 C1229 0.961 . S
H1237 C1229 0.960 . S
H1238 C1230 0.930 . S
H1239 C1231 0.929 . S
H1240 C1248 0.929 . S
H1241 C1250 0.930 . S
H1242 C1252 0.930 . S
H1243 C1255 0.929 . S
H1244 C1258 0.930 . S
H1245 C1260 0.960 . S
H1246 C1260 0.960 . S
H1247 C1260 0.960 . S
C1248 H1240 0.929 . S
C1248 C1249 1.377 . S
C1248 C1250 1.384 . S
C1249 C1248 1.377 . S
C1249 C1255 1.390 . S
C1250 H1241 0.930 . S
C1250 C1248 1.384 . S
C1250 C1251 1.372 . S
C1251 C1250 1.372 . S
C1251 C1252 1.400 . S
C1251 C1256 1.490 . S
C1252 H1242 0.930 . S
C1252 C1251 1.400 . S
C1252 C1255 1.386 . S
H1253 C1269 0.930 . S
H1254 C1270 0.931 . S
C1255 H1243 0.929 . S
C1255 C1249 1.390 . S
C1255 C1252 1.386 . S
C1256 C1251 1.490 . S
C1256 C1258 1.395 . S
C1256 C1259 1.403 . S
H1257 C1263 0.930 . S
C1258 H1244 0.930 . S
C1258 C1256 1.395 . S
C1258 C1261 1.403 . S
C1259 C1256 1.403 . S
C1259 C1260 1.524 . S
C1259 C1263 1.400 . S
C1260 H1245 0.960 . S
C1260 H1246 0.960 . S
C1260 H1247 0.960 . S
C1260 C1259 1.524 . S
C1261 C1258 1.403 . S
C1261 C1262 1.392 . S
C1261 C1265 1.495 . S
C1262 C1261 1.392 . S
C1262 C1263 1.385 . S
C1262 C1264 1.478 . S
C1263 H1257 0.930 . S
C1263 C1259 1.400 . S
C1263 C1262 1.385 . S
C1264 C1262 1.478 . S
C1264 C1266 1.381 . S
C1264 C1270 1.383 . S
C1265 C1261 1.495 . S
C1265 H1271 0.959 . S
C1265 H1272 0.961 . S
C1265 H1273 0.960 . S
C1266 C1264 1.381 . S
C1266 C1267 1.394 . S
C1266 H1274 0.930 . S
C1267 C1266 1.394 . S
C1267 C1268 1.383 . S
C1267 H1275 0.929 . S
C1268 C1267 1.383 . S
C1268 C1269 1.377 . S
C1269 H1253 0.930 . S
C1269 C1268 1.377 . S
C1269 C1270 1.379 . S
C1270 H1254 0.931 . S
C1270 C1264 1.383 . S
C1270 C1269 1.379 . S
H1271 C1265 0.959 . S
H1272 C1265 0.961 . S
H1273 C1265 0.960 . S
H1274 C1266 0.930 . S
H1275 C1267 0.929 . S
H1276 C1284 0.929 . S
H1277 C1286 0.930 . S
H1278 C1288 0.930 . S
H1279 C1291 0.929 . S
H1280 C1294 0.930 . S
H1281 C1296 0.960 . S
H1282 C1296 0.960 . S
H1283 C1296 0.960 . S
C1284 H1276 0.929 . S
C1284 C1285 1.377 . S
C1284 C1286 1.384 . S
C1285 C1284 1.377 . S
C1285 C1291 1.390 . S
C1286 H1277 0.930 . S
C1286 C1284 1.384 . S
C1286 C1287 1.372 . S
C1287 C1286 1.372 . S
C1287 C1288 1.400 . S
C1287 C1292 1.490 . S
C1288 H1278 0.930 . S
C1288 C1287 1.400 . S
C1288 C1291 1.386 . S
H1289 C1305 0.930 . S
H1290 C1306 0.931 . S
C1291 H1279 0.929 . S
C1291 C1285 1.390 . S
C1291 C1288 1.386 . S
C1292 C1287 1.490 . S
C1292 C1294 1.395 . S
C1292 C1295 1.403 . S
H1293 C1299 0.930 . S
C1294 H1280 0.930 . S
C1294 C1292 1.395 . S
C1294 C1297 1.403 . S
C1295 C1292 1.403 . S
C1295 C1296 1.524 . S
C1295 C1299 1.400 . S
C1296 H1281 0.960 . S
C1296 H1282 0.960 . S
C1296 H1283 0.960 . S
C1296 C1295 1.524 . S
C1297 C1294 1.403 . S
C1297 C1298 1.392 . S
C1297 C1301 1.495 . S
C1298 C1297 1.392 . S
C1298 C1299 1.385 . S
C1298 C1300 1.478 . S
C1299 H1293 0.930 . S
C1299 C1295 1.400 . S
C1299 C1298 1.385 . S
C1300 C1298 1.478 . S
C1300 C1302 1.381 . S
C1300 C1306 1.383 . S
C1301 C1297 1.495 . S
C1301 H1307 0.959 . S
C1301 H1308 0.961 . S
C1301 H1309 0.960 . S
C1302 C1300 1.381 . S
C1302 C1303 1.394 . S
C1302 H1310 0.930 . S
C1303 C1302 1.394 . S
C1303 C1304 1.383 . S
C1303 H1311 0.929 . S
C1304 C1303 1.383 . S
C1304 C1305 1.377 . S
C1305 H1289 0.930 . S
C1305 C1304 1.377 . S
C1305 C1306 1.379 . S
C1306 H1290 0.931 . S
C1306 C1300 1.383 . S
C1306 C1305 1.379 . S
H1307 C1301 0.959 . S
H1308 C1301 0.961 . S
H1309 C1301 0.960 . S
H1310 C1302 0.930 . S
H1311 C1303 0.929 . S
H1312 C1320 0.929 . S
H1313 C1322 0.930 . S
H1314 C1324 0.930 . S
H1315 C1327 0.929 . S
H1316 C1330 0.930 . S
H1317 C1332 0.960 . S
H1318 C1332 0.960 . S
H1319 C1332 0.960 . S
C1320 H1312 0.929 . S
C1320 C1321 1.377 . S
C1320 C1322 1.384 . S
C1321 C1320 1.377 . S
C1321 C1327 1.390 . S
C1322 H1313 0.930 . S
C1322 C1320 1.384 . S
C1322 C1323 1.372 . S
C1323 C1322 1.372 . S
C1323 C1324 1.400 . S
C1323 C1328 1.490 . S
C1324 H1314 0.930 . S
C1324 C1323 1.400 . S
C1324 C1327 1.386 . S
H1325 C1341 0.930 . S
H1326 C1342 0.931 . S
C1327 H1315 0.929 . S
C1327 C1321 1.390 . S
C1327 C1324 1.386 . S
C1328 C1323 1.490 . S
C1328 C1330 1.395 . S
C1328 C1331 1.403 . S
H1329 C1335 0.930 . S
C1330 H1316 0.930 . S
C1330 C1328 1.395 . S
C1330 C1333 1.403 . S
C1331 C1328 1.403 . S
C1331 C1332 1.524 . S
C1331 C1335 1.400 . S
C1332 H1317 0.960 . S
C1332 H1318 0.960 . S
C1332 H1319 0.960 . S
C1332 C1331 1.524 . S
C1333 C1330 1.403 . S
C1333 C1334 1.392 . S
C1333 C1337 1.495 . S
C1334 C1333 1.392 . S
C1334 C1335 1.385 . S
C1334 C1336 1.478 . S
C1335 H1329 0.930 . S
C1335 C1331 1.400 . S
C1335 C1334 1.385 . S
C1336 C1334 1.478 . S
C1336 C1338 1.381 . S
C1336 C1342 1.383 . S
C1337 C1333 1.495 . S
C1337 H1343 0.959 . S
C1337 H1344 0.961 . S
C1337 H1345 0.960 . S
C1338 C1336 1.381 . S
C1338 C1339 1.394 . S
C1338 H1346 0.930 . S
C1339 C1338 1.394 . S
C1339 C1340 1.383 . S
C1339 H1347 0.929 . S
C1340 C1339 1.383 . S
C1340 C1341 1.377 . S
C1341 H1325 0.930 . S
C1341 C1340 1.377 . S
C1341 C1342 1.379 . S
C1342 H1326 0.931 . S
C1342 C1336 1.383 . S
C1342 C1341 1.379 . S
H1343 C1337 0.959 . S
H1344 C1337 0.961 . S
H1345 C1337 0.960 . S
H1346 C1338 0.930 . S
H1347 C1339 0.929 . S
H1348 C1356 0.929 . S
H1349 C1358 0.930 . S
H1350 C1360 0.930 . S
H1351 C1363 0.929 . S
H1352 C1366 0.930 . S
H1353 C1368 0.960 . S
H1354 C1368 0.960 . S
H1355 C1368 0.960 . S
C1356 H1348 0.929 . S
C1356 C1357 1.377 . S
C1356 C1358 1.384 . S
C1357 C1356 1.377 . S
C1357 C1363 1.390 . S
C1358 H1349 0.930 . S
C1358 C1356 1.384 . S
C1358 C1359 1.372 . S
C1359 C1358 1.372 . S
C1359 C1360 1.400 . S
C1359 C1364 1.490 . S
C1360 H1350 0.930 . S
C1360 C1359 1.400 . S
C1360 C1363 1.386 . S
H1361 C1377 0.930 . S
H1362 C1378 0.931 . S
C1363 H1351 0.929 . S
C1363 C1357 1.390 . S
C1363 C1360 1.386 . S
C1364 C1359 1.490 . S
C1364 C1366 1.395 . S
C1364 C1367 1.403 . S
H1365 C1371 0.930 . S
C1366 H1352 0.930 . S
C1366 C1364 1.395 . S
C1366 C1369 1.403 . S
C1367 C1364 1.403 . S
C1367 C1368 1.524 . S
C1367 C1371 1.400 . S
C1368 H1353 0.960 . S
C1368 H1354 0.960 . S
C1368 H1355 0.960 . S
C1368 C1367 1.524 . S
C1369 C1366 1.403 . S
C1369 C1370 1.392 . S
C1369 C1373 1.495 . S
C1370 C1369 1.392 . S
C1370 C1371 1.385 . S
C1370 C1372 1.478 . S
C1371 H1365 0.930 . S
C1371 C1367 1.400 . S
C1371 C1370 1.385 . S
C1372 C1370 1.478 . S
C1372 C1374 1.381 . S
C1372 C1378 1.383 . S
C1373 C1369 1.495 . S
C1373 H1379 0.959 . S
C1373 H1380 0.961 . S
C1373 H1381 0.960 . S
C1374 C1372 1.381 . S
C1374 C1375 1.394 . S
C1374 H1382 0.930 . S
C1375 C1374 1.394 . S
C1375 C1376 1.383 . S
C1375 H1383 0.929 . S
C1376 C1375 1.383 . S
C1376 C1377 1.377 . S
C1377 H1361 0.930 . S
C1377 C1376 1.377 . S
C1377 C1378 1.379 . S
C1378 H1362 0.931 . S
C1378 C1372 1.383 . S
C1378 C1377 1.379 . S
H1379 C1373 0.959 . S
H1380 C1373 0.961 . S
H1381 C1373 0.960 . S
H1382 C1374 0.930 . S
H1383 C1375 0.929 . S
H1384 C1392 0.929 . S
H1385 C1394 0.930 . S
H1386 C1396 0.930 . S
H1387 C1399 0.929 . S
H1388 C1402 0.930 . S
H1389 C1404 0.960 . S
H1390 C1404 0.960 . S
H1391 C1404 0.960 . S
C1392 H1384 0.929 . S
C1392 C1393 1.377 . S
C1392 C1394 1.384 . S
C1393 C1392 1.377 . S
C1393 C1399 1.390 . S
C1394 H1385 0.930 . S
C1394 C1392 1.384 . S
C1394 C1395 1.372 . S
C1395 C1394 1.372 . S
C1395 C1396 1.400 . S
C1395 C1400 1.490 . S
C1396 H1386 0.930 . S
C1396 C1395 1.400 . S
C1396 C1399 1.386 . S
H1397 C1413 0.930 . S
H1398 C1414 0.931 . S
C1399 H1387 0.929 . S
C1399 C1393 1.390 . S
C1399 C1396 1.386 . S
C1400 C1395 1.490 . S
C1400 C1402 1.395 . S
C1400 C1403 1.403 . S
H1401 C1407 0.930 . S
C1402 H1388 0.930 . S
C1402 C1400 1.395 . S
C1402 C1405 1.403 . S
C1403 C1400 1.403 . S
C1403 C1404 1.524 . S
C1403 C1407 1.400 . S
C1404 H1389 0.960 . S
C1404 H1390 0.960 . S
C1404 H1391 0.960 . S
C1404 C1403 1.524 . S
C1405 C1402 1.403 . S
C1405 C1406 1.392 . S
C1405 C1409 1.495 . S
C1406 C1405 1.392 . S
C1406 C1407 1.385 . S
C1406 C1408 1.478 . S
C1407 H1401 0.930 . S
C1407 C1403 1.400 . S
C1407 C1406 1.385 . S
C1408 C1406 1.478 . S
C1408 C1410 1.381 . S
C1408 C1414 1.383 . S
C1409 C1405 1.495 . S
C1409 H1415 0.959 . S
C1409 H1416 0.961 . S
C1409 H1417 0.960 . S
C1410 C1408 1.381 . S
C1410 C1411 1.394 . S
C1410 H1418 0.930 . S
C1411 C1410 1.394 . S
C1411 C1412 1.383 . S
C1411 H1419 0.929 . S
C1412 C1411 1.383 . S
C1412 C1413 1.377 . S
C1413 H1397 0.930 . S
C1413 C1412 1.377 . S
C1413 C1414 1.379 . S
C1414 H1398 0.931 . S
C1414 C1408 1.383 . S
C1414 C1413 1.379 . S
H1415 C1409 0.959 . S
H1416 C1409 0.961 . S
H1417 C1409 0.960 . S
H1418 C1410 0.930 . S
H1419 C1411 0.929 . S
H1420 C1428 0.929 . S
H1421 C1430 0.930 . S
H1422 C1432 0.930 . S
H1423 C1435 0.929 . S
H1424 C1438 0.930 . S
H1425 C1440 0.960 . S
H1426 C1440 0.960 . S
H1427 C1440 0.960 . S
C1428 H1420 0.929 . S
C1428 C1429 1.377 . S
C1428 C1430 1.384 . S
C1429 C1428 1.377 . S
C1429 C1435 1.390 . S
C1430 H1421 0.930 . S
C1430 C1428 1.384 . S
C1430 C1431 1.372 . S
C1431 C1430 1.372 . S
C1431 C1432 1.400 . S
C1431 C1436 1.490 . S
C1432 H1422 0.930 . S
C1432 C1431 1.400 . S
C1432 C1435 1.386 . S
H1433 C1449 0.930 . S
H1434 C1450 0.931 . S
C1435 H1423 0.929 . S
C1435 C1429 1.390 . S
C1435 C1432 1.386 . S
C1436 C1431 1.490 . S
C1436 C1438 1.395 . S
C1436 C1439 1.403 . S
H1437 C1443 0.930 . S
C1438 H1424 0.930 . S
C1438 C1436 1.395 . S
C1438 C1441 1.403 . S
C1439 C1436 1.403 . S
C1439 C1440 1.524 . S
C1439 C1443 1.400 . S
C1440 H1425 0.960 . S
C1440 H1426 0.960 . S
C1440 H1427 0.960 . S
C1440 C1439 1.524 . S
C1441 C1438 1.403 . S
C1441 C1442 1.392 . S
C1441 C1445 1.495 . S
C1442 C1441 1.392 . S
C1442 C1443 1.385 . S
C1442 C1444 1.478 . S
C1443 H1437 0.930 . S
C1443 C1439 1.400 . S
C1443 C1442 1.385 . S
C1444 C1442 1.478 . S
C1444 C1446 1.381 . S
C1444 C1450 1.383 . S
C1445 C1441 1.495 . S
C1445 H1451 0.959 . S
C1445 H1452 0.961 . S
C1445 H1453 0.960 . S
C1446 C1444 1.381 . S
C1446 C1447 1.394 . S
C1446 H1454 0.930 . S
C1447 C1446 1.394 . S
C1447 C1448 1.383 . S
C1447 H1455 0.929 . S
C1448 C1447 1.383 . S
C1448 C1449 1.377 . S
C1449 H1433 0.930 . S
C1449 C1448 1.377 . S
C1449 C1450 1.379 . S
C1450 H1434 0.931 . S
C1450 C1444 1.383 . S
C1450 C1449 1.379 . S
H1451 C1445 0.959 . S
H1452 C1445 0.961 . S
H1453 C1445 0.960 . S
H1454 C1446 0.930 . S
H1455 C1447 0.929 . S
C601 C221 1.464 . S
C620 C312 1.448 . S
C656 C396 1.481 . S
C637 C241 1.440 . S
C692 C395 1.463 . S
C673 C157 1.458 . S
C709 C177 1.436 . S
C728 C311 1.479 . S
C764 C492 1.475 . S
C745 C93 1.443 . S
C800 C576 1.465 . S
C781 C113 1.476 . S
C817 C29 1.415 . S
C836 C575 1.469 . S
C853 C49 1.465 . S
C872 C491 1.464 . S
C908 C314 1.368 . S
C889 C61 1.499 . S
C944 C398 1.297 . S
C925 C17 1.469 . S
C980 C410 1.362 . S
C961 C125 1.526 . S
C1016 C326 1.419 . S
C997 C81 1.502 . S
C1052 C494 1.301 . S
C1033 C189 1.453 . S
C1069 C145 1.507 . S
C1088 C578 1.370 . S
C1124 C566 1.368 . S
C1105 C253 1.484 . S
C1141 C209 1.527 . S
C1160 C482 1.439 . S
C1196 C323 1.574 . S
C1177 C23 1.533 . S
C1232 C407 1.579 . S
C1213 C55 1.574 . S
C1249 C87 1.526 . S
C1268 C408 1.533 . S
C1304 C324 1.568 . S
C1285 C119 1.562 . S
C1340 C479 1.578 . S
C1321 C151 1.569 . S
C1357 C183 1.533 . S
C1376 C563 1.581 . S
C1393 C215 1.552 . S
C1412 C564 1.553 . S
C1429 C247 1.527 . S
C1448 C480 1.558 . S
