# Generated by pormake.
# Topology dag, (6,3)-cn, num edge types: 1
# Building blocks:
#     Node 0, Type 0, BuildingBlock: OJICUG_clean_sbu_0, # of connection points: 6
#     Node 1, Type 0, BuildingBlock: OJICUG_clean_sbu_0, # of connection points: 6
#     Node 2, Type 0, BuildingBlock: OJICUG_clean_sbu_0, # of connection points: 6
#     Node 3, Type 0, BuildingBlock: OJICUG_clean_sbu_0, # of connection points: 6
#     Node 4, Type 1, BuildingBlock: INOVEN_clean_linker_0, # of connection points: 3
#     Node 5, Type 1, BuildingBlock: INOVEN_clean_linker_0, # of connection points: 3
#     Node 6, Type 1, BuildingBlock: INOVEN_clean_linker_0, # of connection points: 3
#     Node 7, Type 1, BuildingBlock: INOVEN_clean_linker_0, # of connection points: 3
#     Node 8, Type 1, BuildingBlock: INOVEN_clean_linker_0, # of connection points: 3
#     Node 9, Type 1, BuildingBlock: INOVEN_clean_linker_0, # of connection points: 3
#     Node 10, Type 1, BuildingBlock: INOVEN_clean_linker_0, # of connection points: 3
#     Node 11, Type 1, BuildingBlock: INOVEN_clean_linker_0, # of connection points: 3
#     Edge 12, Type (0, 1), BuildingBlock: XIVTED_clean_linker_0, # of connection points: 2
#     Edge 13, Type (0, 1), BuildingBlock: XIVTED_clean_linker_0, # of connection points: 2
#     Edge 14, Type (0, 1), BuildingBlock: XIVTED_clean_linker_0, # of connection points: 2
#     Edge 15, Type (0, 1), BuildingBlock: XIVTED_clean_linker_0, # of connection points: 2
#     Edge 16, Type (0, 1), BuildingBlock: XIVTED_clean_linker_0, # of connection points: 2
#     Edge 17, Type (0, 1), BuildingBlock: XIVTED_clean_linker_0, # of connection points: 2
#     Edge 18, Type (0, 1), BuildingBlock: XIVTED_clean_linker_0, # of connection points: 2
#     Edge 19, Type (0, 1), BuildingBlock: XIVTED_clean_linker_0, # of connection points: 2
#     Edge 20, Type (0, 1), BuildingBlock: XIVTED_clean_linker_0, # of connection points: 2
#     Edge 21, Type (0, 1), BuildingBlock: XIVTED_clean_linker_0, # of connection points: 2
#     Edge 22, Type (0, 1), BuildingBlock: XIVTED_clean_linker_0, # of connection points: 2
#     Edge 23, Type (0, 1), BuildingBlock: XIVTED_clean_linker_0, # of connection points: 2
#     Edge 24, Type (0, 1), BuildingBlock: XIVTED_clean_linker_0, # of connection points: 2
#     Edge 25, Type (0, 1), BuildingBlock: XIVTED_clean_linker_0, # of connection points: 2
#     Edge 26, Type (0, 1), BuildingBlock: XIVTED_clean_linker_0, # of connection points: 2
#     Edge 27, Type (0, 1), BuildingBlock: XIVTED_clean_linker_0, # of connection points: 2
#     Edge 28, Type (0, 1), BuildingBlock: XIVTED_clean_linker_0, # of connection points: 2
#     Edge 29, Type (0, 1), BuildingBlock: XIVTED_clean_linker_0, # of connection points: 2
#     Edge 30, Type (0, 1), BuildingBlock: XIVTED_clean_linker_0, # of connection points: 2
#     Edge 31, Type (0, 1), BuildingBlock: XIVTED_clean_linker_0, # of connection points: 2
#     Edge 32, Type (0, 1), BuildingBlock: XIVTED_clean_linker_0, # of connection points: 2
#     Edge 33, Type (0, 1), BuildingBlock: XIVTED_clean_linker_0, # of connection points: 2
#     Edge 34, Type (0, 1), BuildingBlock: XIVTED_clean_linker_0, # of connection points: 2
#     Edge 35, Type (0, 1), BuildingBlock: XIVTED_clean_linker_0, # of connection points: 2
# Relax obj value: 0.100
# Max RMSD: 0.115
# Mean RMSD: 0.097
data_MOF--net-dag--node1-OJICUG_clean_sbu_0--node2-INOVEN_clean_linker_0--edge1-XIVTED_clean_linker_0
_symmetry_space_group_name_H-M    P1
_symmetry_Int_Tables_number       1
_symmetry_cell_setting            triclinic
loop_
_symmetry_equiv_pos_as_xyz
'x, y, z'
_cell_length_a     36.326635
_cell_length_b     39.309224
_cell_length_c     38.75411
_cell_angle_alpha  93.958371
_cell_angle_beta   90.14778
_cell_angle_gamma 90.009282
loop_
_atom_site_label
_atom_site_type_symbol
_atom_site_fract_x
_atom_site_fract_y
_atom_site_fract_z
_atom_type_partial_charge
Sc0 Sc 0.10498 0.86893 0.03657 0.0
Sc1 Sc 0.12145 0.78208 0.0433 0.0
Sc2 Sc 0.18558 0.8437 0.07604 0.0
O3 O 0.13746 0.83139 0.05206 0.0
C4 C 0.18452 0.90118 0.02467 0.0
C5 C 0.10069 0.81638 0.97251 0.0
C6 C 0.20697 0.77891 0.02545 0.0
C7 C 0.04472 0.81508 0.0589 0.0
C8 C 0.1278 0.89763 0.11108 0.0
C9 C 0.15769 0.7826 0.1188 0.0
O10 O 0.14962 0.90246 0.02497 0.0
O11 O 0.10144 0.79094 0.99137 0.0
O12 O 0.21532 0.80452 0.04589 0.0
O13 O 0.05446 0.84234 0.04569 0.0
O14 O 0.15999 0.88461 0.10838 0.0
O15 O 0.13913 0.76791 0.09409 0.0
O16 O 0.10275 0.89188 0.08835 0.0
O17 O 0.06732 0.79153 0.06487 0.0
O18 O 0.1744 0.81064 0.11614 0.0
O19 O 0.10627 0.84695 0.98444 0.0
O20 O 0.20252 0.87808 0.0384 0.0
O21 O 0.17406 0.76832 0.02092 0.0
Sc22 Sc 0.69124 0.65124 0.46911 0.0
Sc23 Sc 0.62271 0.70944 0.5018 0.0
Sc24 Sc 0.61672 0.62208 0.51566 0.0
O25 O 0.64358 0.66103 0.49548 0.0
C26 C 0.64015 0.58974 0.44086 0.0
C27 C 0.6557 0.70876 0.42542 0.0
C28 C 0.55082 0.66557 0.48504 0.0
C29 C 0.70889 0.71869 0.51748 0.0
C30 C 0.6997 0.60035 0.52894 0.0
C31 C 0.60486 0.68029 0.57525 0.0
O32 O 0.6674 0.60954 0.43732 0.0
O33 O 0.63541 0.72184 0.44948 0.0
O34 O 0.56471 0.63939 0.49753 0.0
O35 O 0.71851 0.69211 0.49901 0.0
O36 O 0.66566 0.60025 0.53614 0.0
O37 O 0.60632 0.70451 0.55513 0.0
O38 O 0.71295 0.6169 0.50493 0.0
O39 O 0.67547 0.72838 0.52087 0.0
O40 O 0.61019 0.64934 0.56498 0.0
O41 O 0.67647 0.68342 0.42923 0.0
O42 O 0.62018 0.59103 0.46784 0.0
O43 O 0.56839 0.69349 0.48341 0.0
Sc44 Sc 0.87803 0.22353 0.00269 0.0
Sc45 Sc 0.80831 0.16304 0.97735 0.0
Sc46 Sc 0.88942 0.13665 0.01642 0.0
O47 O 0.85851 0.17452 0.99882 0.0
C48 C 0.95042 0.18233 0.98173 0.0
C49 C 0.8389 0.21865 0.92849 0.0
C50 C 0.85857 0.10224 0.94542 0.0
C51 C 0.79326 0.23227 0.02314 0.0
C52 C 0.90171 0.19589 0.07517 0.0
C53 C 0.80916 0.11305 0.03833 0.0
O54 O 0.93164 0.20963 0.9822 0.0
O55 O 0.81854 0.19379 0.93526 0.0
O56 O 0.88248 0.10537 0.9694 0.0
O57 O 0.82665 0.24204 0.02397 0.0
O58 O 0.89878 0.16472 0.06472 0.0
O59 O 0.7919 0.12993 0.01669 0.0
O60 O 0.89726 0.22029 0.0556 0.0
O61 O 0.78229 0.2048 0.00701 0.0
O62 O 0.84399 0.11307 0.04081 0.0
O63 O 0.86134 0.23284 0.9503 0.0
O64 O 0.93879 0.15524 0.99407 0.0
O65 O 0.82958 0.1204 0.9451 0.0
Sc66 Sc 0.38473 0.35976 0.53052 0.0
Sc67 Sc 0.30939 0.33195 0.57691 0.0
Sc68 Sc 0.37934 0.27324 0.54813 0.0
O69 O 0.3578 0.32155 0.5519 0.0
C70 C 0.39441 0.29904 0.47298 0.0
C71 C 0.30162 0.38023 0.51482 0.0
C72 C 0.29326 0.26111 0.53395 0.0
C73 C 0.35959 0.39508 0.60319 0.0
C74 C 0.45166 0.31769 0.56106 0.0
C75 C 0.34735 0.27878 0.62482 0.0
O76 O 0.39081 0.33038 0.48255 0.0
O77 O 0.28757 0.36392 0.53866 0.0
O78 O 0.32684 0.25185 0.53215 0.0
O79 O 0.38082 0.39233 0.57712 0.0
O80 O 0.43419 0.28991 0.56349 0.0
O81 O 0.3248 0.30231 0.61884 0.0
O82 O 0.4372 0.34375 0.54892 0.0
O83 O 0.33195 0.3757 0.60667 0.0
O84 O 0.36871 0.26512 0.6019 0.0
O85 O 0.33594 0.38079 0.50904 0.0
O86 O 0.39302 0.27534 0.49374 0.0
O87 O 0.28285 0.28918 0.54923 0.0
H88 H 0.04935 0.18558 0.31539 0.0
H89 H 0.02835 0.10207 0.24062 0.0
H90 H 0.11027 0.09185 0.31946 0.0
N91 N 0.101 0.15543 0.35015 0.0
N92 N 0.12624 0.1402 0.36457 0.0
C93 C 0.05476 0.15962 0.30541 0.0
C94 C 0.03512 0.14564 0.27669 0.0
C95 C 0.08155 0.14026 0.32125 0.0
C96 C 0.08924 0.1068 0.30767 0.0
C97 C 0.06991 0.09268 0.27868 0.0
C98 C 0.04263 0.11222 0.26369 0.0
H99 H 0.37659 0.59237 0.80655 0.0
H100 H 0.46527 0.60196 0.73453 0.0
H101 H 0.44258 0.68362 0.81081 0.0
N102 N 0.38434 0.65182 0.83966 0.0
N103 N 0.38944 0.67987 0.856 0.0
C104 C 0.39932 0.60669 0.79673 0.0
C105 C 0.42013 0.59283 0.76876 0.0
C106 C 0.40729 0.63912 0.8122 0.0
C107 C 0.43655 0.65825 0.79952 0.0
C108 C 0.4579 0.64435 0.77189 0.0
C109 C 0.44958 0.61181 0.75681 0.0
H110 H 0.70704 0.90297 0.17851 0.0
H111 H 0.79338 0.89599 0.10294 0.0
H112 H 0.77512 0.81314 0.16766 0.0
N113 N 0.71817 0.84266 0.20312 0.0
N114 N 0.72101 0.81207 0.20929 0.0
C115 C 0.72896 0.88856 0.16542 0.0
C116 C 0.74837 0.90252 0.13859 0.0
C117 C 0.73785 0.856 0.17549 0.0
C118 C 0.76737 0.83789 0.15931 0.0
C119 C 0.78767 0.8521 0.13308 0.0
C120 C 0.77737 0.88417 0.12244 0.0
H121 H 0.81168 0.38907 0.66063 0.0
H122 H 0.72012 0.39517 0.59109 0.0
H123 H 0.72239 0.3172 0.66337 0.0
N124 N 0.78804 0.33582 0.692 0.0
N125 N 0.7773 0.30851 0.70306 0.0
C126 C 0.78616 0.37863 0.64988 0.0
C127 C 0.76834 0.39456 0.62329 0.0
C128 C 0.77046 0.34993 0.66357 0.0
C129 C 0.73585 0.33791 0.65131 0.0
C130 C 0.71716 0.35461 0.62564 0.0
C131 C 0.73446 0.38191 0.61076 0.0
H132 H 0.54684 0.30565 0.23909 0.0
H133 H 0.52135 0.39216 0.30847 0.0
H134 H 0.60728 0.39907 0.23293 0.0
N135 N 0.60104 0.3344 0.20657 0.0
N136 N 0.61473 0.34999 0.18277 0.0
C137 C 0.55126 0.33215 0.24778 0.0
C138 C 0.52967 0.34745 0.27436 0.0
C139 C 0.57846 0.35101 0.23216 0.0
C140 C 0.58525 0.38501 0.24425 0.0
C141 C 0.56506 0.40012 0.27216 0.0
C142 C 0.53664 0.38131 0.28638 0.0
H143 H 0.30893 0.11148 0.89728 0.0
H144 H 0.20497 0.11201 0.9502 0.0
H145 H 0.22605 0.18632 0.87703 0.0
N146 N 0.2941 0.16392 0.85956 0.0
N147 N 0.28952 0.1932 0.84985 0.0
C148 C 0.28228 0.12298 0.90276 0.0
C149 C 0.2589 0.1094 0.92711 0.0
C150 C 0.27111 0.15148 0.88541 0.0
C151 C 0.23576 0.16553 0.89161 0.0
C152 C 0.21176 0.15088 0.91451 0.0
C153 C 0.22384 0.12353 0.93272 0.0
H154 H 0.19802 0.58705 0.3689 0.0
H155 H 0.28925 0.58252 0.43913 0.0
H156 H 0.28375 0.66298 0.36981 0.0
N157 N 0.21908 0.64302 0.34006 0.0
N158 N 0.22786 0.6719 0.33146 0.0
C159 C 0.22312 0.59803 0.37999 0.0
C160 C 0.2414 0.58207 0.40637 0.0
C161 C 0.23751 0.62795 0.36753 0.0
C162 C 0.27133 0.64108 0.3807 0.0
C163 C 0.29055 0.62434 0.406 0.0
C164 C 0.27459 0.59567 0.41956 0.0
H165 H 0.87414 0.9086 0.73907 0.0
H166 H 0.9642 0.90023 0.81013 0.0
H167 H 0.94041 0.81752 0.73513 0.0
N168 N 0.8819 0.84906 0.7061 0.0
N169 N 0.88767 0.82148 0.68915 0.0
C170 C 0.89714 0.89445 0.74874 0.0
C171 C 0.91848 0.90867 0.77623 0.0
C172 C 0.90503 0.86195 0.73347 0.0
C173 C 0.93454 0.84301 0.74616 0.0
C174 C 0.95631 0.85724 0.77348 0.0
C175 C 0.94821 0.88998 0.78813 0.0
H176 H 0.06004 0.9189 0.13419 0.0
H177 H 0.13862 0.06571 0.26567 0.0
H178 H 0.17597 0.93077 0.15684 0.0
H179 H 0.02306 0.04239 0.25331 0.0
H180 H 0.15338 0.01369 0.23003 0.0
H181 H 0.04633 0.9616 0.18088 0.0
C182 C 0.08266 0.93038 0.1491 0.0
C183 C 0.11926 0.92148 0.14127 0.0
C184 C 0.12481 0.01972 0.23551 0.0
C185 C 0.10369 0.97071 0.1949 0.0
C186 C 0.11637 0.0493 0.25606 0.0
C187 C 0.07952 0.05865 0.2621 0.0
C188 C 0.09618 -0.00052 0.22077 0.0
C189 C 0.05183 0.03655 0.24871 0.0
C190 C 0.07478 0.95471 0.1759 0.0
C191 C 0.14735 0.93694 0.16184 0.0
N192 N 0.06071 0.00826 0.22838 0.0
N193 N 0.139 0.96112 0.18746 0.0
H194 H 0.55853 0.73052 0.60222 0.0
H195 H 0.53074 0.62948 0.77099 0.0
H196 H 0.62422 0.64543 0.63076 0.0
H197 H 0.45181 0.70093 0.7353 0.0
H198 H 0.57564 0.64912 0.72991 0.0
H199 H 0.52968 0.733 0.65959 0.0
C200 C 0.56759 0.71299 0.62087 0.0
C201 C 0.59328 0.68733 0.61158 0.0
C202 C 0.54886 0.66122 0.73159 0.0
C203 C 0.56051 0.68997 0.67694 0.0
C204 C 0.52342 0.65021 0.75526 0.0
C205 C 0.4877 0.66362 0.7563 0.0
C206 C 0.53818 0.68527 0.70829 0.0
C207 C 0.47924 0.69014 0.73523 0.0
C208 C 0.551 0.7143 0.65352 0.0
C209 C 0.604 0.66521 0.63666 0.0
N210 N 0.50408 0.69965 0.71147 0.0
N211 N 0.58728 0.66679 0.66799 0.0
H212 H 0.82607 0.09488 0.10307 0.0
H213 H 0.72385 0.92262 0.07686 0.0
H214 H 0.7462 0.07762 0.02117 0.0
H215 H 0.7597 0.96142 0.17806 0.0
H216 H 0.72741 0.98039 0.05702 0.0
H217 H 0.79892 0.04818 0.13285 0.0
C218 C 0.80235 0.08162 0.09171 0.0
C219 C 0.78857 0.08978 0.05948 0.0
C220 C 0.73349 0.9765 0.08384 0.0
C221 C 0.7579 0.03597 0.09297 0.0
C222 C 0.7314 0.94361 0.0951 0.0
C223 C 0.74147 0.93758 0.12904 0.0
C224 C 0.74684 0.00317 0.10645 0.0
C225 C 0.75155 0.96531 0.15173 0.0
C226 C 0.78677 0.05508 0.10876 0.0
C227 C 0.75766 0.07203 0.04597 0.0
N228 N 0.7548 0.99689 0.13981 0.0
N229 N 0.74387 0.04535 0.0624 0.0
H230 H 0.50036 0.26661 0.57645 0.0
H231 H 0.66221 0.40083 0.62146 0.0
H232 H 0.49151 0.37589 0.57281 0.0
H233 H 0.682 0.29233 0.6135 0.0
H234 H 0.59795 0.3905 0.60775 0.0
H235 H 0.56526 0.27383 0.594 0.0
C236 C 0.51192 0.29204 0.57946 0.0
C237 C 0.49044 0.32065 0.5729 0.0
C238 C 0.61617 0.36879 0.60879 0.0
C239 C 0.56425 0.329 0.59296 0.0
C240 C 0.65306 0.37472 0.61641 0.0
C241 C 0.67775 0.34743 0.61783 0.0
C242 C 0.60338 0.33523 0.60259 0.0
C243 C 0.6639 0.31409 0.61236 0.0
C244 C 0.54893 0.2961 0.58936 0.0
C245 C 0.50689 0.35298 0.57719 0.0
N246 N 0.62755 0.30888 0.60474 0.0
N247 N 0.54261 0.35619 0.58688 0.0
H248 H 0.68383 0.56275 0.3879 0.0
H249 H 0.52029 0.45143 0.29941 0.0
H250 H 0.57303 0.56065 0.42774 0.0
H251 H 0.63485 0.42501 0.28483 0.0
H252 H 0.53884 0.50097 0.33697 0.0
H253 H 0.66566 0.52066 0.34112 0.0
C254 C 0.65571 0.55357 0.38673 0.0
C255 C 0.63003 0.56488 0.412 0.0
C256 C 0.5599 0.4845 0.32521 0.0
C257 C 0.60903 0.51744 0.35843 0.0
C258 C 0.54935 0.45621 0.30378 0.0
C259 C 0.57599 0.43363 0.28934 0.0
C260 C 0.59737 0.49049 0.3321 0.0
C261 C 0.6133 0.44169 0.29526 0.0
C262 C 0.6454 0.5296 0.36009 0.0
C263 C 0.5939 0.55225 0.40916 0.0
N264 N 0.6229 0.46929 0.31647 0.0
N265 N 0.5845 0.52927 0.38289 0.0
H266 H 0.98348 0.12704 0.95004 0.0
H267 H 0.18104 0.21285 0.93595 0.0
H268 H 0.0007 0.23435 0.97624 0.0
H269 H 0.15375 0.11027 0.89811 0.0
H270 H 0.11509 0.22404 0.94688 0.0
H271 H 0.04547 0.12273 0.92717 0.0
C272 C 0.00041 0.14979 0.95091 0.0
C273 C 0.98713 0.181 0.96547 0.0
C274 C 0.12357 0.19929 0.9357 0.0
C275 C 0.05872 0.17626 0.93941 0.0
C276 C 0.16104 0.19299 0.92941 0.0
C277 C 0.17254 0.16051 0.91659 0.0
C278 C 0.09789 0.17282 0.92901 0.0
C279 C 0.14588 0.13551 0.90848 0.0
C280 C 0.03586 0.14737 0.93767 0.0
C281 C 0.01005 0.20977 0.96533 0.0
N282 N 0.10992 0.1421 0.9151 0.0
N283 N 0.04506 0.20664 0.95292 0.0
H284 H 0.24104 0.41678 0.53693 0.0
H285 H 0.24061 0.52178 0.3679 0.0
H286 H 0.30901 0.39386 0.44723 0.0
H287 H 0.21897 0.56651 0.47044 0.0
H288 H 0.24211 0.4652 0.39098 0.0
H289 H 0.21063 0.46189 0.50649 0.0
C290 C 0.24878 0.42058 0.51049 0.0
C291 C 0.27789 0.40202 0.49467 0.0
C292 C 0.23579 0.4873 0.40819 0.0
C293 C 0.24316 0.45299 0.45985 0.0
C294 C 0.23457 0.51945 0.395 0.0
C295 C 0.22974 0.54859 0.41742 0.0
C296 C 0.23195 0.4845 0.44393 0.0
C297 C 0.22274 0.54447 0.45244 0.0
C298 C 0.23156 0.44634 0.49325 0.0
C299 C 0.28703 0.40801 0.46048 0.0
N300 N 0.22455 0.51298 0.46478 0.0
N301 N 0.26994 0.43319 0.44429 0.0
H302 H 0.05573 0.76653 0.94231 0.0
H303 H 0.02885 0.87347 0.77702 0.0
H304 H 0.11914 0.85496 0.91941 0.0
H305 H 0.9505 0.79941 0.80827 0.0
H306 H 0.07299 0.85363 0.81887 0.0
H307 H 0.0277 0.76607 0.88455 0.0
C308 C 0.06445 0.78529 0.92483 0.0
C309 C 0.08932 0.81118 0.93584 0.0
C310 C 0.04652 0.84105 0.81605 0.0
C311 C 0.05747 0.81079 0.86997 0.0
C312 C 0.02152 0.85216 0.79193 0.0
C313 C 0.9861 0.83809 0.78944 0.0
C314 C 0.03576 0.8161 0.83828 0.0
C315 C 0.97767 0.81077 0.80947 0.0
C316 C 0.04833 0.78511 0.89196 0.0
C317 C 0.09959 0.8349 0.91219 0.0
N318 N 0.00208 0.80109 0.83366 0.0
N319 N 0.08335 0.83434 0.88058 0.0
H320 H 0.80912 0.07182 0.89897 0.0
H321 H 0.96495 0.96012 0.79929 0.0
H322 H 0.92472 0.07537 0.92522 0.0
H323 H 0.84984 0.93288 0.79454 0.0
H324 H 0.94946 0.01068 0.83648 0.0
H325 H 0.82272 0.02825 0.85219 0.0
C326 C 0.83731 0.06359 0.89479 0.0
C327 C 0.86576 0.07688 0.91629 0.0
C328 C 0.92754 0.99379 0.82706 0.0
C329 C 0.88145 0.02771 0.86281 0.0
C330 C 0.93637 0.96492 0.80588 0.0
C331 C 0.90872 0.94195 0.79427 0.0
C332 C 0.89078 -0.00014 0.83669 0.0
C333 C 0.87202 0.94991 0.8029 0.0
C334 C 0.84501 0.03877 0.86817 0.0
C335 C 0.90182 0.06545 0.90967 0.0
N336 N 0.86412 0.97808 0.82392 0.0
N337 N 0.9086 0.04155 0.88357 0.0
H338 H 0.44463 0.25295 0.44509 0.0
H339 H 0.45702 0.36204 0.28201 0.0
H340 H 0.36526 0.32817 0.41791 0.0
H341 H 0.53951 0.2892 0.30778 0.0
H342 H 0.41463 0.33749 0.32229 0.0
H343 H 0.47077 0.25322 0.38673 0.0
C344 C 0.43195 0.26861 0.42643 0.0
C345 C 0.40333 0.29108 0.43631 0.0
C346 C 0.44171 0.3263 0.31874 0.0
C347 C 0.43312 0.29193 0.37013 0.0
C348 C 0.4658 0.34031 0.29569 0.0
C349 C 0.50175 0.32782 0.2921 0.0
C350 C 0.45406 0.30024 0.33901 0.0
C351 C 0.51194 0.29955 0.31011 0.0
C352 C 0.44699 0.26896 0.39324 0.0
C353 C 0.38786 0.31096 0.41137 0.0
N354 N 0.48846 0.28714 0.33347 0.0
N355 N 0.40332 0.31133 0.37963 0.0
H356 H 0.24604 0.89971 0.98332 0.0
H357 H 0.25918 0.10217 0.9961 0.0
H358 H 0.16915 0.96792 0.03711 0.0
H359 H 0.27661 0.04611 0.89797 0.0
H360 H 0.25063 0.04832 0.02308 0.0
H361 H 0.27803 0.94967 0.96188 0.0
C362 C 0.23615 0.92516 0.99072 0.0
C363 C 0.20472 0.92995 0.01149 0.0
C364 C 0.25752 0.0478 0.99586 0.0
C365 C 0.24168 0.98633 0.98869 0.0
C366 C 0.26269 0.0784 0.98056 0.0
C367 C 0.26805 0.0784 0.94477 0.0
C368 C 0.25785 0.01709 0.97523 0.0
C369 C 0.2724 0.04701 0.92567 0.0
C370 C 0.25436 0.95342 0.97865 0.0
C371 C 0.19293 0.96324 0.02067 0.0
N372 N 0.2664 0.01738 0.94103 0.0
N373 N 0.21154 0.99016 0.00937 0.0
H374 H 0.51621 0.60658 0.46468 0.0
H375 H 0.32079 0.68811 0.42277 0.0
H376 H 0.4995 0.7156 0.47221 0.0
H377 H 0.34848 0.5813 0.40921 0.0
H378 H 0.38519 0.70061 0.4397 0.0
H379 H 0.45412 0.59863 0.44346 0.0
C380 C 0.49938 0.629 0.46197 0.0
C381 C 0.51308 0.66184 0.47068 0.0
C382 C 0.37701 0.67451 0.43295 0.0
C383 C 0.44102 0.6528 0.44599 0.0
C384 C 0.34038 0.66739 0.42327 0.0
C385 C 0.32914 0.63354 0.41527 0.0
C386 C 0.40231 0.64756 0.43431 0.0
C387 C 0.3556 0.60766 0.41608 0.0
C388 C 0.46374 0.62441 0.44963 0.0
C389 C 0.48997 0.68983 0.4659 0.0
N390 N 0.39069 0.61521 0.42554 0.0
N391 N 0.45482 0.68467 0.45408 0.0
H392 H 0.42597 0.42522 0.61697 0.0
H393 H 0.351 0.56772 0.753 0.0
H394 H 0.31351 0.42494 0.65274 0.0
H395 H 0.46627 0.54243 0.7423 0.0
H396 H 0.33568 0.5164 0.71647 0.0
H397 H 0.44043 0.46982 0.66165 0.0
C398 C 0.40426 0.43459 0.63422 0.0
C399 C 0.36837 0.42154 0.63093 0.0
C400 C 0.36427 0.52193 0.72249 0.0
C401 C 0.38483 0.47274 0.68226 0.0
C402 C 0.37307 0.55112 0.74351 0.0
C403 C 0.41005 0.55968 0.75041 0.0
C404 C 0.39266 0.50143 0.708 0.0
C405 C 0.43745 0.53735 0.73701 0.0
C406 C 0.41263 0.4599 0.65992 0.0
C407 C 0.34151 0.43435 0.65436 0.0
N408 N 0.42822 0.50951 0.71613 0.0
N409 N 0.35019 0.45958 0.67886 0.0
H410 H 0.0132 0.78142 0.11147 0.0
H411 H 0.81111 0.84653 0.06579 0.0
H412 H 0.98664 0.84032 0.02486 0.0
H413 H 0.84226 0.82049 0.16823 0.0
H414 H 0.8722 0.82938 0.04501 0.0
H415 H 0.94754 0.78163 0.12728 0.0
C416 C 0.99351 0.79391 0.09554 0.0
C417 C 0.00532 0.81128 0.06712 0.0
C418 C 0.8655 0.827 0.07196 0.0
C419 C 0.93069 0.81126 0.08467 0.0
C420 C 0.83065 0.8368 0.08383 0.0
C421 C 0.82175 0.83555 0.11894 0.0
C422 C 0.89175 0.8158 0.09529 0.0
C423 C 0.84791 0.82194 0.14097 0.0
C424 C 0.95619 0.79412 0.10461 0.0
C425 C 0.97877 0.82709 0.04731 0.0
N426 N 0.88195 0.813 0.12888 0.0
N427 N 0.9428 0.82678 0.05651 0.0
H428 H 0.6943 0.58357 0.59579 0.0
H429 H 0.78722 0.41149 0.55862 0.0
H430 H 0.76018 0.56562 0.50389 0.0
H431 H 0.77353 0.45354 0.66341 0.0
H432 H 0.78477 0.46916 0.53858 0.0
H433 H 0.72808 0.53856 0.62265 0.0
C434 C 0.71636 0.57051 0.58154 0.0
C435 C 0.72417 0.57788 0.54747 0.0
C436 C 0.78367 0.46595 0.56609 0.0
C437 C 0.76242 0.52605 0.57767 0.0
C438 C 0.78524 0.43308 0.57747 0.0
C439 C 0.78042 0.42801 0.6126 0.0
C440 C 0.776 0.49355 0.58995 0.0
C441 C 0.77743 0.45659 0.6361 0.0
C442 C 0.73581 0.545 0.59692 0.0
C443 C 0.75323 0.5605 0.53019 0.0
N444 N 0.77417 0.48817 0.62426 0.0
N445 N 0.77072 0.53471 0.54516 0.0
H446 H 0.86969 0.16928 0.12991 0.0
H447 H 0.04716 0.20508 0.24586 0.0
H448 H 0.95662 0.23715 0.10311 0.0
H449 H 0.96303 0.13127 0.26424 0.0
H450 H 0.00688 0.2296 0.20299 0.0
H451 H 0.895 0.1686 0.18815 0.0
C452 C 0.89371 0.18471 0.1367 0.0
C453 C 0.91144 0.20297 0.11179 0.0
C454 C 0.99686 0.20862 0.21706 0.0
C455 C 0.94144 0.20138 0.17795 0.0
C456 C 0.01972 0.19481 0.24163 0.0
C457 C 0.00835 0.16599 0.25815 0.0
C458 C 0.96257 0.19337 0.20919 0.0
C459 C 0.9728 0.15333 0.2517 0.0
C460 C 0.90827 0.18424 0.16988 0.0
C461 C 0.9423 0.2227 0.12173 0.0
N462 N 0.95137 0.16682 0.22741 0.0
N463 N 0.95693 0.22076 0.15394 0.0
H464 H 0.18135 0.81267 0.1802 0.0
H465 H 0.18198 0.64234 0.28183 0.0
H466 H 0.14224 0.71627 0.13378 0.0
H467 H 0.2373 0.73561 0.31609 0.0
H468 H 0.15915 0.66991 0.23087 0.0
H469 H 0.19311 0.78596 0.23365 0.0
C470 C 0.17511 0.78581 0.18122 0.0
C471 C 0.1613 0.76658 0.15215 0.0
C472 C 0.17601 0.68439 0.2497 0.0
C473 C 0.17495 0.73563 0.21379 0.0
C474 C 0.18891 0.66875 0.27878 0.0
C475 C 0.2115 0.68705 0.30303 0.0
C476 C 0.18568 0.71842 0.24517 0.0
C477 C 0.21992 0.72093 0.29786 0.0
C478 C 0.18186 0.77055 0.21189 0.0
C479 C 0.15314 0.73201 0.15546 0.0
N480 N 0.20709 0.73554 0.26951 0.0
N481 N 0.16042 0.71751 0.18569 0.0
H482 H 0.78183 0.702 0.52366 0.0
H483 H 0.82346 0.85074 0.6698 0.0
H484 H 0.70178 0.77759 0.55952 0.0
H485 H 0.89597 0.76529 0.64734 0.0
H486 H 0.78168 0.82812 0.62448 0.0
H487 H 0.82704 0.72908 0.56323 0.0
C488 C 0.77378 0.72452 0.53953 0.0
C489 C 0.7377 0.73735 0.53834 0.0
C490 C 0.80676 0.81431 0.62932 0.0
C491 C 0.78954 0.76835 0.58395 0.0
C492 C 0.83067 0.82722 0.65519 0.0
C493 C 0.86321 0.8096 0.66229 0.0
C494 C 0.8154 0.78367 0.61032 0.0
C495 C 0.8711 0.77938 0.64256 0.0
C496 C 0.79965 0.73986 0.56227 0.0
C497 C 0.72911 0.76664 0.55961 0.0
N498 N 0.84733 0.76726 0.61745 0.0
N499 N 0.75478 0.78103 0.58164 0.0
H500 H 0.7211 0.2454 0.00822 0.0
H501 H 0.66418 0.3016 0.1966 0.0
H502 H 0.80478 0.26422 0.08645 0.0
H503 H 0.62259 0.36145 0.11601 0.0
H504 H 0.70852 0.27475 0.15555 0.0
H505 H 0.67651 0.27657 0.04646 0.0
C506 C 0.73002 0.25623 0.03332 0.0
C507 C 0.76653 0.25247 0.0443 0.0
C508 C 0.68953 0.29367 0.14691 0.0
C509 C 0.71602 0.28682 0.08788 0.0
C510 C 0.66421 0.30873 0.17011 0.0
C511 C 0.63974 0.33345 0.15926 0.0
C512 C 0.68962 0.30278 0.1126 0.0
C513 C 0.64112 0.34236 0.12495 0.0
C514 C 0.70476 0.27399 0.05489 0.0
C515 C 0.77691 0.26687 0.07699 0.0
N516 N 0.66544 0.32665 0.10247 0.0
N517 N 0.75158 0.28296 0.09794 0.0
H518 H 0.32871 0.31576 0.68381 0.0
H519 H 0.33146 0.15728 0.80146 0.0
H520 H 0.36845 0.21641 0.64686 0.0
H521 H 0.29008 0.25714 0.8335 0.0
H522 H 0.35455 0.17967 0.74797 0.0
H523 H 0.32398 0.29622 0.74167 0.0
C524 C 0.33656 0.28976 0.68793 0.0
C525 C 0.34833 0.26746 0.66035 0.0
C526 C 0.34102 0.19681 0.76698 0.0
C527 C 0.34269 0.24469 0.72684 0.0
C528 C 0.32802 0.1841 0.79753 0.0
C529 C 0.30882 0.20567 0.82166 0.0
C530 C 0.33461 0.23113 0.76077 0.0
C531 C 0.30476 0.23996 0.81534 0.0
C532 C 0.33397 0.27861 0.72108 0.0
C533 C 0.35895 0.23431 0.66739 0.0
N534 N 0.31724 0.25161 0.78541 0.0
N535 N 0.35534 0.2237 0.69995 0.0
H536 H 0.67318 0.67624 0.36365 0.0
H537 H 0.68339 0.84601 0.26225 0.0
H538 H 0.63983 0.77454 0.40955 0.0
H539 H 0.71947 0.74691 0.22143 0.0
H540 H 0.65962 0.82015 0.31364 0.0
H541 H 0.68186 0.7012 0.30869 0.0
C542 C 0.66748 0.70315 0.36209 0.0
C543 C 0.65634 0.72348 0.39137 0.0
C544 C 0.67233 0.80401 0.29325 0.0
C545 C 0.66661 0.75247 0.32827 0.0
C546 C 0.68582 0.81873 0.26395 0.0
C547 C 0.70348 0.79828 0.2378 0.0
C548 C 0.67664 0.7688 0.29622 0.0
C549 C 0.70606 0.76327 0.24121 0.0
C550 C 0.67241 0.71741 0.33062 0.0
C551 C 0.64867 0.75803 0.38763 0.0
N552 N 0.69301 0.74963 0.26995 0.0
N553 N 0.65445 0.77161 0.35669 0.0
H554 H 0.80872 0.18483 0.87181 0.0
H555 H 0.82656 0.33899 0.74891 0.0
H556 H 0.86234 0.27973 0.90464 0.0
H557 H 0.76254 0.24804 0.72528 0.0
H558 H 0.84711 0.31574 0.80292 0.0
H559 H 0.79923 0.20544 0.81503 0.0
C560 C 0.81854 0.21012 0.86711 0.0
C561 C 0.83584 0.23082 0.89332 0.0
C562 C 0.82886 0.30075 0.78575 0.0
C563 C 0.8249 0.25471 0.8278 0.0
C564 C 0.81725 0.31392 0.75493 0.0
C565 C 0.7928 0.29513 0.73283 0.0
C566 C 0.81595 0.2687 0.79425 0.0
C567 C 0.78139 0.26305 0.7418 0.0
C568 C 0.81315 0.22185 0.83451 0.0
C569 C 0.84863 0.26304 0.88528 0.0
N570 N 0.79293 0.25086 0.77186 0.0
N571 N 0.84258 0.27418 0.85322 0.0
H572 H 0.30199 0.19656 0.50335 0.0
H573 H 0.11282 0.2016 0.39947 0.0
H574 H 0.22126 0.27661 0.52037 0.0
H575 H 0.1848 0.11427 0.39431 0.0
H576 H 0.1509 0.22836 0.4458 0.0
H577 H 0.25824 0.16462 0.46582 0.0
C578 C 0.27495 0.2073 0.49953 0.0
C579 C 0.26549 0.23954 0.51484 0.0
C580 C 0.15828 0.20323 0.4348 0.0
C581 C 0.21534 0.20315 0.47156 0.0
C582 C 0.13659 0.18799 0.40828 0.0
C583 C 0.14611 0.15577 0.393 0.0
C584 C 0.1898 0.18628 0.44584 0.0
C585 C 0.17691 0.13919 0.4055 0.0
C586 C 0.24996 0.18901 0.47807 0.0
C587 C 0.2299 0.25196 0.50906 0.0
N588 N 0.19794 0.15474 0.43101 0.0
N589 N 0.20631 0.23393 0.48758 0.0
H590 H 0.27822 0.80038 0.01755 0.0
H591 H 0.32752 0.64841 0.87736 0.0
H592 H 0.20318 0.71915 0.98471 0.0
H593 H 0.39537 0.7379 0.89558 0.0
H594 H 0.28511 0.67091 0.92187 0.0
H595 H 0.32477 0.77464 0.97852 0.0
C596 C 0.2716 0.77696 0.00244 0.0
C597 C 0.23656 0.76202 0.00433 0.0
C598 C 0.3093 0.68566 0.9163 0.0
C599 C 0.28979 0.73257 0.95951 0.0
C600 C 0.33359 0.6728 0.89089 0.0
C601 C 0.36496 0.69158 0.88278 0.0
C602 C 0.31634 0.71745 0.93382 0.0
C603 C 0.3714 0.72289 0.90117 0.0
C604 C 0.29818 0.76239 0.98003 0.0
C605 C 0.22966 0.73173 0.984 0.0
N606 N 0.34723 0.73498 0.92584 0.0
N607 N 0.25597 0.71809 0.9624 0.0
loop_
_geom_bond_atom_site_label_1
_geom_bond_atom_site_label_2
_geom_bond_distance
_geom_bond_site_symmetry_2
_ccdc_geom_bond_type
Sc0 O3 2.025 . S
Sc0 O10 2.105 . S
Sc0 O13 2.105 . S
Sc0 O16 2.105 . S
Sc0 O19 2.105 1_554 S
Sc1 O3 2.025 . S
Sc1 O11 2.105 1_554 S
Sc1 O15 2.105 . S
Sc1 O17 2.105 . S
Sc1 O21 2.105 . S
Sc2 O3 2.025 . S
Sc2 O12 2.105 . S
Sc2 O14 2.105 . S
Sc2 O18 2.105 . S
Sc2 O20 2.105 . S
O3 Sc0 2.025 . S
O3 Sc1 2.025 . S
O3 Sc2 2.025 . S
C4 O10 1.268 . S
C4 O20 1.268 . S
C5 O11 1.268 . S
C5 O19 1.268 . S
C6 O12 1.268 . S
C6 O21 1.268 . S
C7 O13 1.268 . S
C7 O17 1.268 . S
C8 O14 1.268 . S
C8 O16 1.268 . S
C9 O15 1.268 . S
C9 O18 1.268 . S
O10 Sc0 2.105 . S
O10 C4 1.268 . S
O11 Sc1 2.105 1_556 S
O11 C5 1.268 . S
O12 Sc2 2.105 . S
O12 C6 1.268 . S
O13 Sc0 2.105 . S
O13 C7 1.268 . S
O14 Sc2 2.105 . S
O14 C8 1.268 . S
O15 Sc1 2.105 . S
O15 C9 1.268 . S
O16 Sc0 2.105 . S
O16 C8 1.268 . S
O17 Sc1 2.105 . S
O17 C7 1.268 . S
O18 Sc2 2.105 . S
O18 C9 1.268 . S
O19 Sc0 2.105 1_556 S
O19 C5 1.268 . S
O20 Sc2 2.105 . S
O20 C4 1.268 . S
O21 Sc1 2.105 . S
O21 C6 1.268 . S
Sc22 O25 2.025 . S
Sc22 O32 2.105 . S
Sc22 O35 2.105 . S
Sc22 O38 2.105 . S
Sc22 O41 2.105 . S
Sc23 O25 2.025 . S
Sc23 O33 2.105 . S
Sc23 O37 2.105 . S
Sc23 O39 2.105 . S
Sc23 O43 2.105 . S
Sc24 O25 2.025 . S
Sc24 O34 2.105 . S
Sc24 O36 2.105 . S
Sc24 O40 2.105 . S
Sc24 O42 2.105 . S
O25 Sc22 2.025 . S
O25 Sc23 2.025 . S
O25 Sc24 2.025 . S
C26 O32 1.268 . S
C26 O42 1.268 . S
C27 O33 1.268 . S
C27 O41 1.268 . S
C28 O34 1.268 . S
C28 O43 1.268 . S
C29 O35 1.268 . S
C29 O39 1.268 . S
C30 O36 1.268 . S
C30 O38 1.268 . S
C31 O37 1.268 . S
C31 O40 1.268 . S
O32 Sc22 2.105 . S
O32 C26 1.268 . S
O33 Sc23 2.105 . S
O33 C27 1.268 . S
O34 Sc24 2.105 . S
O34 C28 1.268 . S
O35 Sc22 2.105 . S
O35 C29 1.268 . S
O36 Sc24 2.105 . S
O36 C30 1.268 . S
O37 Sc23 2.105 . S
O37 C31 1.268 . S
O38 Sc22 2.105 . S
O38 C30 1.268 . S
O39 Sc23 2.105 . S
O39 C29 1.268 . S
O40 Sc24 2.105 . S
O40 C31 1.268 . S
O41 Sc22 2.105 . S
O41 C27 1.268 . S
O42 Sc24 2.105 . S
O42 C26 1.268 . S
O43 Sc23 2.105 . S
O43 C28 1.268 . S
Sc44 O47 2.025 . S
Sc44 O54 2.105 1_554 S
Sc44 O57 2.105 . S
Sc44 O60 2.105 . S
Sc44 O63 2.105 1_554 S
Sc45 O47 2.025 1_556 S
Sc45 O55 2.105 . S
Sc45 O59 2.105 1_556 S
Sc45 O61 2.105 1_556 S
Sc45 O65 2.105 . S
Sc46 O47 2.025 . S
Sc46 O56 2.105 1_554 S
Sc46 O58 2.105 . S
Sc46 O62 2.105 . S
Sc46 O64 2.105 1_554 S
O47 Sc44 2.025 . S
O47 Sc45 2.025 1_554 S
O47 Sc46 2.025 . S
C48 O54 1.268 . S
C48 O64 1.268 . S
C49 O55 1.268 . S
C49 O63 1.268 . S
C50 O56 1.268 . S
C50 O65 1.268 . S
C51 O57 1.268 . S
C51 O61 1.268 . S
C52 O58 1.268 . S
C52 O60 1.268 . S
C53 O59 1.268 . S
C53 O62 1.268 . S
O54 Sc44 2.105 1_556 S
O54 C48 1.268 . S
O55 Sc45 2.105 . S
O55 C49 1.268 . S
O56 Sc46 2.105 1_556 S
O56 C50 1.268 . S
O57 Sc44 2.105 . S
O57 C51 1.268 . S
O58 Sc46 2.105 . S
O58 C52 1.268 . S
O59 Sc45 2.105 1_554 S
O59 C53 1.268 . S
O60 Sc44 2.105 . S
O60 C52 1.268 . S
O61 Sc45 2.105 1_554 S
O61 C51 1.268 . S
O62 Sc46 2.105 . S
O62 C53 1.268 . S
O63 Sc44 2.105 1_556 S
O63 C49 1.268 . S
O64 Sc46 2.105 1_556 S
O64 C48 1.268 . S
O65 Sc45 2.105 . S
O65 C50 1.268 . S
Sc66 O69 2.025 . S
Sc66 O76 2.105 . S
Sc66 O79 2.105 . S
Sc66 O82 2.105 . S
Sc66 O85 2.105 . S
Sc67 O69 2.025 . S
Sc67 O77 2.105 . S
Sc67 O81 2.105 . S
Sc67 O83 2.105 . S
Sc67 O87 2.105 . S
Sc68 O69 2.025 . S
Sc68 O78 2.105 . S
Sc68 O80 2.105 . S
Sc68 O84 2.105 . S
Sc68 O86 2.105 . S
O69 Sc66 2.025 . S
O69 Sc67 2.025 . S
O69 Sc68 2.025 . S
C70 O76 1.268 . S
C70 O86 1.268 . S
C71 O77 1.268 . S
C71 O85 1.268 . S
C72 O78 1.268 . S
C72 O87 1.268 . S
C73 O79 1.268 . S
C73 O83 1.268 . S
C74 O80 1.268 . S
C74 O82 1.268 . S
C75 O81 1.268 . S
C75 O84 1.268 . S
O76 Sc66 2.105 . S
O76 C70 1.268 . S
O77 Sc67 2.105 . S
O77 C71 1.268 . S
O78 Sc68 2.105 . S
O78 C72 1.268 . S
O79 Sc66 2.105 . S
O79 C73 1.268 . S
O80 Sc68 2.105 . S
O80 C74 1.268 . S
O81 Sc67 2.105 . S
O81 C75 1.268 . S
O82 Sc66 2.105 . S
O82 C74 1.268 . S
O83 Sc67 2.105 . S
O83 C73 1.268 . S
O84 Sc68 2.105 . S
O84 C75 1.268 . S
O85 Sc66 2.105 . S
O85 C71 1.268 . S
O86 Sc68 2.105 . S
O86 C70 1.268 . S
O87 Sc67 2.105 . S
O87 C72 1.268 . S
H88 C93 0.929 . S
H89 C98 0.931 . S
H90 C96 0.930 . S
N91 N92 1.234 . S
N91 C95 1.453 . S
N92 N91 1.234 . S
C93 H88 0.929 . S
C93 C94 1.373 . S
C93 C95 1.368 . S
C94 C93 1.373 . S
C94 C98 1.397 . S
C95 N91 1.453 . S
C95 C93 1.368 . S
C95 C96 1.373 . S
C96 H90 0.930 . S
C96 C95 1.373 . S
C96 C97 1.371 . S
C97 C96 1.371 . S
C97 C98 1.383 . S
C98 H89 0.931 . S
C98 C94 1.397 . S
C98 C97 1.383 . S
H99 C104 0.929 . S
H100 C109 0.931 . S
H101 C107 0.930 . S
N102 N103 1.234 . S
N102 C106 1.453 . S
N103 N102 1.234 . S
C104 H99 0.929 . S
C104 C105 1.373 . S
C104 C106 1.368 . S
C105 C104 1.373 . S
C105 C109 1.397 . S
C106 N102 1.453 . S
C106 C104 1.368 . S
C106 C107 1.373 . S
C107 H101 0.930 . S
C107 C106 1.373 . S
C107 C108 1.371 . S
C108 C107 1.371 . S
C108 C109 1.383 . S
C109 H100 0.931 . S
C109 C105 1.397 . S
C109 C108 1.383 . S
H110 C115 0.929 . S
H111 C120 0.931 . S
H112 C118 0.930 . S
N113 N114 1.234 . S
N113 C117 1.453 . S
N114 N113 1.234 . S
C115 H110 0.929 . S
C115 C116 1.373 . S
C115 C117 1.368 . S
C116 C115 1.373 . S
C116 C120 1.397 . S
C117 N113 1.453 . S
C117 C115 1.368 . S
C117 C118 1.373 . S
C118 H112 0.930 . S
C118 C117 1.373 . S
C118 C119 1.371 . S
C119 C118 1.371 . S
C119 C120 1.383 . S
C120 H111 0.931 . S
C120 C116 1.397 . S
C120 C119 1.383 . S
H121 C126 0.929 . S
H122 C131 0.931 . S
H123 C129 0.930 . S
N124 N125 1.234 . S
N124 C128 1.453 . S
N125 N124 1.234 . S
C126 H121 0.929 . S
C126 C127 1.373 . S
C126 C128 1.368 . S
C127 C126 1.373 . S
C127 C131 1.397 . S
C128 N124 1.453 . S
C128 C126 1.368 . S
C128 C129 1.373 . S
C129 H123 0.930 . S
C129 C128 1.373 . S
C129 C130 1.371 . S
C130 C129 1.371 . S
C130 C131 1.383 . S
C131 H122 0.931 . S
C131 C127 1.397 . S
C131 C130 1.383 . S
H132 C137 0.929 . S
H133 C142 0.931 . S
H134 C140 0.930 . S
N135 N136 1.234 . S
N135 C139 1.453 . S
N136 N135 1.234 . S
C137 H132 0.929 . S
C137 C138 1.373 . S
C137 C139 1.368 . S
C138 C137 1.373 . S
C138 C142 1.397 . S
C139 N135 1.453 . S
C139 C137 1.368 . S
C139 C140 1.373 . S
C140 H134 0.930 . S
C140 C139 1.373 . S
C140 C141 1.371 . S
C141 C140 1.371 . S
C141 C142 1.383 . S
C142 H133 0.931 . S
C142 C138 1.397 . S
C142 C141 1.383 . S
H143 C148 0.929 . S
H144 C153 0.931 . S
H145 C151 0.930 . S
N146 N147 1.234 . S
N146 C150 1.453 . S
N147 N146 1.234 . S
C148 H143 0.929 . S
C148 C149 1.373 . S
C148 C150 1.368 . S
C149 C148 1.373 . S
C149 C153 1.397 . S
C150 N146 1.453 . S
C150 C148 1.368 . S
C150 C151 1.373 . S
C151 H145 0.930 . S
C151 C150 1.373 . S
C151 C152 1.371 . S
C152 C151 1.371 . S
C152 C153 1.383 . S
C153 H144 0.931 . S
C153 C149 1.397 . S
C153 C152 1.383 . S
H154 C159 0.929 . S
H155 C164 0.931 . S
H156 C162 0.930 . S
N157 N158 1.234 . S
N157 C161 1.453 . S
N158 N157 1.234 . S
C159 H154 0.929 . S
C159 C160 1.373 . S
C159 C161 1.368 . S
C160 C159 1.373 . S
C160 C164 1.397 . S
C161 N157 1.453 . S
C161 C159 1.368 . S
C161 C162 1.373 . S
C162 H156 0.930 . S
C162 C161 1.373 . S
C162 C163 1.371 . S
C163 C162 1.371 . S
C163 C164 1.383 . S
C164 H155 0.931 . S
C164 C160 1.397 . S
C164 C163 1.383 . S
H165 C170 0.929 . S
H166 C175 0.931 . S
H167 C173 0.930 . S
N168 N169 1.234 . S
N168 C172 1.453 . S
N169 N168 1.234 . S
C170 H165 0.929 . S
C170 C171 1.373 . S
C170 C172 1.368 . S
C171 C170 1.373 . S
C171 C175 1.397 . S
C172 N168 1.453 . S
C172 C170 1.368 . S
C172 C173 1.373 . S
C173 H167 0.930 . S
C173 C172 1.373 . S
C173 C174 1.371 . S
C174 C173 1.371 . S
C174 C175 1.383 . S
C175 H166 0.931 . S
C175 C171 1.397 . S
C175 C174 1.383 . S
H176 C182 0.930 . S
H177 C186 0.930 . S
H178 C191 0.929 . S
H179 C189 0.929 . S
H180 C184 0.929 . S
H181 C190 0.929 1_545 S
C182 H176 0.930 . S
C182 C183 1.367 . S
C182 C190 1.378 . S
C183 C182 1.367 . S
C183 C191 1.433 . S
C184 H180 0.929 . S
C184 C186 1.378 . S
C184 C188 1.350 . S
C185 C188 1.463 1_565 S
C185 C190 1.350 . S
C185 N193 1.427 . S
C186 H177 0.930 . S
C186 C184 1.378 . S
C186 C187 1.367 . S
C187 C186 1.367 . S
C187 C189 1.433 . S
C188 C184 1.350 . S
C188 C185 1.463 1_545 S
C188 N192 1.427 . S
C189 H179 0.929 . S
C189 C187 1.433 . S
C189 N192 1.384 . S
C190 H181 0.929 1_565 S
C190 C182 1.378 . S
C190 C185 1.350 . S
C191 H178 0.929 . S
C191 C183 1.433 . S
C191 N193 1.384 . S
N192 C188 1.427 . S
N192 C189 1.384 . S
N193 C185 1.427 . S
N193 C191 1.384 . S
H194 C200 0.930 . S
H195 C204 0.930 . S
H196 C209 0.929 . S
H197 C207 0.929 . S
H198 C202 0.929 . S
H199 C208 0.929 . S
C200 H194 0.930 . S
C200 C201 1.367 . S
C200 C208 1.378 . S
C201 C200 1.367 . S
C201 C209 1.433 . S
C202 H198 0.929 . S
C202 C204 1.378 . S
C202 C206 1.350 . S
C203 C206 1.463 . S
C203 C208 1.350 . S
C203 N211 1.427 . S
C204 H195 0.930 . S
C204 C202 1.378 . S
C204 C205 1.367 . S
C205 C204 1.367 . S
C205 C207 1.433 . S
C206 C202 1.350 . S
C206 C203 1.463 . S
C206 N210 1.427 . S
C207 H197 0.929 . S
C207 C205 1.433 . S
C207 N210 1.384 . S
C208 H199 0.929 . S
C208 C200 1.378 . S
C208 C203 1.350 . S
C209 H196 0.929 . S
C209 C201 1.433 . S
C209 N211 1.384 . S
N210 C206 1.427 . S
N210 C207 1.384 . S
N211 C203 1.427 . S
N211 C209 1.384 . S
H212 C218 0.930 . S
H213 C222 0.930 . S
H214 C227 0.929 . S
H215 C225 0.929 . S
H216 C220 0.929 . S
H217 C226 0.929 . S
C218 H212 0.930 . S
C218 C219 1.367 . S
C218 C226 1.378 . S
C219 C218 1.367 . S
C219 C227 1.433 . S
C220 H216 0.929 . S
C220 C222 1.378 . S
C220 C224 1.350 . S
C221 C224 1.463 1_545 S
C221 C226 1.350 . S
C221 N229 1.427 . S
C222 H213 0.930 . S
C222 C220 1.378 . S
C222 C223 1.367 . S
C223 C222 1.367 . S
C223 C225 1.433 . S
C224 C220 1.350 . S
C224 C221 1.463 1_565 S
C224 N228 1.427 . S
C225 H215 0.929 . S
C225 C223 1.433 . S
C225 N228 1.384 . S
C226 H217 0.929 . S
C226 C218 1.378 . S
C226 C221 1.350 . S
C227 H214 0.929 . S
C227 C219 1.433 . S
C227 N229 1.384 . S
N228 C224 1.427 . S
N228 C225 1.384 . S
N229 C221 1.427 . S
N229 C227 1.384 . S
H230 C236 0.930 . S
H231 C240 0.930 . S
H232 C245 0.929 . S
H233 C243 0.929 . S
H234 C238 0.929 . S
H235 C244 0.929 . S
C236 H230 0.930 . S
C236 C237 1.367 . S
C236 C244 1.378 . S
C237 C236 1.367 . S
C237 C245 1.433 . S
C238 H234 0.929 . S
C238 C240 1.378 . S
C238 C242 1.350 . S
C239 C242 1.463 . S
C239 C244 1.350 . S
C239 N247 1.427 . S
C240 H231 0.930 . S
C240 C238 1.378 . S
C240 C241 1.367 . S
C241 C240 1.367 . S
C241 C243 1.433 . S
C242 C238 1.350 . S
C242 C239 1.463 . S
C242 N246 1.427 . S
C243 H233 0.929 . S
C243 C241 1.433 . S
C243 N246 1.384 . S
C244 H235 0.929 . S
C244 C236 1.378 . S
C244 C239 1.350 . S
C245 H232 0.929 . S
C245 C237 1.433 . S
C245 N247 1.384 . S
N246 C242 1.427 . S
N246 C243 1.384 . S
N247 C239 1.427 . S
N247 C245 1.384 . S
H248 C254 0.930 . S
H249 C258 0.930 . S
H250 C263 0.929 . S
H251 C261 0.929 . S
H252 C256 0.929 . S
H253 C262 0.929 . S
C254 H248 0.930 . S
C254 C255 1.367 . S
C254 C262 1.378 . S
C255 C254 1.367 . S
C255 C263 1.433 . S
C256 H252 0.929 . S
C256 C258 1.378 . S
C256 C260 1.350 . S
C257 C260 1.463 . S
C257 C262 1.350 . S
C257 N265 1.427 . S
C258 H249 0.930 . S
C258 C256 1.378 . S
C258 C259 1.367 . S
C259 C258 1.367 . S
C259 C261 1.433 . S
C260 C256 1.350 . S
C260 C257 1.463 . S
C260 N264 1.427 . S
C261 H251 0.929 . S
C261 C259 1.433 . S
C261 N264 1.384 . S
C262 H253 0.929 . S
C262 C254 1.378 . S
C262 C257 1.350 . S
C263 H250 0.929 . S
C263 C255 1.433 . S
C263 N265 1.384 . S
N264 C260 1.427 . S
N264 C261 1.384 . S
N265 C257 1.427 . S
N265 C263 1.384 . S
H266 C272 0.930 . S
H267 C276 0.930 . S
H268 C281 0.938 . S
H269 C279 0.929 . S
H270 C274 0.929 . S
H271 C280 0.929 . S
C272 H266 0.930 . S
C272 C273 1.367 . S
C272 C280 1.378 1_655 S
C273 C272 1.367 . S
C273 C281 1.433 1_655 S
C274 H270 0.929 . S
C274 C276 1.378 . S
C274 C278 1.350 . S
C275 C278 1.463 . S
C275 C280 1.350 . S
C275 N283 1.427 . S
C276 H267 0.930 . S
C276 C274 1.378 . S
C276 C277 1.367 . S
C277 C276 1.367 . S
C277 C279 1.433 . S
C278 C274 1.350 . S
C278 C275 1.463 . S
C278 N282 1.427 . S
C279 H269 0.929 . S
C279 C277 1.433 . S
C279 N282 1.384 . S
C280 H271 0.929 . S
C280 C272 1.378 1_455 S
C280 C275 1.350 . S
C281 H268 0.938 . S
C281 C273 1.433 1_455 S
C281 N283 1.384 . S
N282 C278 1.427 . S
N282 C279 1.384 . S
N283 C275 1.427 . S
N283 C281 1.384 . S
H284 C290 0.930 . S
H285 C294 0.930 . S
H286 C299 0.929 . S
H287 C297 0.929 . S
H288 C292 0.929 . S
H289 C298 0.929 . S
C290 H284 0.930 . S
C290 C291 1.367 . S
C290 C298 1.378 . S
C291 C290 1.367 . S
C291 C299 1.433 . S
C292 H288 0.929 . S
C292 C294 1.378 . S
C292 C296 1.350 . S
C293 C296 1.463 . S
C293 C298 1.350 . S
C293 N301 1.427 . S
C294 H285 0.930 . S
C294 C292 1.378 . S
C294 C295 1.367 . S
C295 C294 1.367 . S
C295 C297 1.433 . S
C296 C292 1.350 . S
C296 C293 1.463 . S
C296 N300 1.427 . S
C297 H287 0.929 . S
C297 C295 1.433 . S
C297 N300 1.384 . S
C298 H289 0.929 . S
C298 C290 1.378 . S
C298 C293 1.350 . S
C299 H286 0.929 . S
C299 C291 1.433 . S
C299 N301 1.384 . S
N300 C296 1.427 . S
N300 C297 1.384 . S
N301 C293 1.427 . S
N301 C299 1.384 . S
H302 C308 0.930 . S
H303 C312 0.925 1_455 S
H304 C317 0.929 . S
H305 C315 0.929 . S
H306 C310 0.929 . S
H307 C316 0.929 1_655 S
C308 H302 0.930 . S
C308 C309 1.367 . S
C308 C316 1.378 . S
C309 C308 1.367 . S
C309 C317 1.433 . S
C310 H306 0.929 . S
C310 C312 1.371 1_455 S
C310 C314 1.350 . S
C311 C314 1.463 . S
C311 C316 1.350 . S
C311 N319 1.427 . S
C312 H303 0.925 1_655 S
C312 C310 1.371 1_655 S
C312 C313 1.380 . S
C313 C312 1.380 . S
C313 C315 1.433 . S
C314 C310 1.350 . S
C314 C311 1.463 . S
C314 N318 1.427 1_455 S
C315 H305 0.929 . S
C315 C313 1.433 . S
C315 N318 1.384 . S
C316 H307 0.929 1_455 S
C316 C308 1.378 . S
C316 C311 1.350 . S
C317 H304 0.929 . S
C317 C309 1.433 . S
C317 N319 1.384 . S
N318 C314 1.427 1_655 S
N318 C315 1.384 . S
N319 C311 1.427 . S
N319 C317 1.384 . S
H320 C326 0.930 . S
H321 C330 0.930 . S
H322 C335 0.929 . S
H323 C333 0.929 . S
H324 C328 0.929 . S
H325 C334 0.929 . S
C326 H320 0.930 . S
C326 C327 1.367 . S
C326 C334 1.378 . S
C327 C326 1.367 . S
C327 C335 1.433 . S
C328 H324 0.929 . S
C328 C330 1.378 . S
C328 C332 1.350 . S
C329 C332 1.463 1_545 S
C329 C334 1.350 . S
C329 N337 1.427 . S
C330 H321 0.930 . S
C330 C328 1.378 . S
C330 C331 1.367 . S
C331 C330 1.367 . S
C331 C333 1.433 . S
C332 C328 1.350 . S
C332 C329 1.463 1_565 S
C332 N336 1.427 . S
C333 H323 0.929 . S
C333 C331 1.433 . S
C333 N336 1.384 . S
C334 H325 0.929 . S
C334 C326 1.378 . S
C334 C329 1.350 . S
C335 H322 0.929 . S
C335 C327 1.433 . S
C335 N337 1.384 . S
N336 C332 1.427 . S
N336 C333 1.384 . S
N337 C329 1.427 . S
N337 C335 1.384 . S
H338 C344 0.930 . S
H339 C348 0.930 . S
H340 C353 0.929 . S
H341 C351 0.929 . S
H342 C346 0.929 . S
H343 C352 0.929 . S
C344 H338 0.930 . S
C344 C345 1.367 . S
C344 C352 1.378 . S
C345 C344 1.367 . S
C345 C353 1.433 . S
C346 H342 0.929 . S
C346 C348 1.378 . S
C346 C350 1.350 . S
C347 C350 1.463 . S
C347 C352 1.350 . S
C347 N355 1.427 . S
C348 H339 0.930 . S
C348 C346 1.378 . S
C348 C349 1.367 . S
C349 C348 1.367 . S
C349 C351 1.433 . S
C350 C346 1.350 . S
C350 C347 1.463 . S
C350 N354 1.427 . S
C351 H341 0.929 . S
C351 C349 1.433 . S
C351 N354 1.384 . S
C352 H343 0.929 . S
C352 C344 1.378 . S
C352 C347 1.350 . S
C353 H340 0.929 . S
C353 C345 1.433 . S
C353 N355 1.384 . S
N354 C350 1.427 . S
N354 C351 1.384 . S
N355 C347 1.427 . S
N355 C353 1.384 . S
H356 C362 0.930 . S
H357 C366 0.930 . S
H358 C371 0.938 . S
H359 C369 0.929 . S
H360 C364 0.929 . S
H361 C370 0.929 . S
C362 H356 0.930 . S
C362 C363 1.367 . S
C362 C370 1.378 . S
C363 C362 1.367 . S
C363 C371 1.429 1_556 S
C364 H360 0.929 . S
C364 C366 1.378 . S
C364 C368 1.350 . S
C365 C368 1.442 1_565 S
C365 C370 1.371 . S
C365 N373 1.425 1_565 S
C366 H357 0.930 . S
C366 C364 1.378 . S
C366 C367 1.367 . S
C367 C366 1.367 . S
C367 C369 1.433 . S
C368 C364 1.350 . S
C368 C365 1.442 1_545 S
C368 N372 1.427 . S
C369 H359 0.929 . S
C369 C367 1.433 . S
C369 N372 1.384 . S
C370 H361 0.929 . S
C370 C362 1.378 . S
C370 C365 1.371 . S
C371 H358 0.938 . S
C371 C363 1.429 1_554 S
C371 N373 1.378 1_564 S
N372 C368 1.427 . S
N372 C369 1.384 . S
N373 C365 1.425 1_545 S
N373 C371 1.378 1_546 S
H374 C380 0.930 . S
H375 C384 0.930 . S
H376 C389 0.929 . S
H377 C387 0.929 . S
H378 C382 0.929 . S
H379 C388 0.929 . S
C380 H374 0.930 . S
C380 C381 1.367 . S
C380 C388 1.378 . S
C381 C380 1.367 . S
C381 C389 1.433 . S
C382 H378 0.929 . S
C382 C384 1.378 . S
C382 C386 1.350 . S
C383 C386 1.463 . S
C383 C388 1.350 . S
C383 N391 1.427 . S
C384 H375 0.930 . S
C384 C382 1.378 . S
C384 C385 1.367 . S
C385 C384 1.367 . S
C385 C387 1.433 . S
C386 C382 1.350 . S
C386 C383 1.463 . S
C386 N390 1.427 . S
C387 H377 0.929 . S
C387 C385 1.433 . S
C387 N390 1.384 . S
C388 H379 0.929 . S
C388 C380 1.378 . S
C388 C383 1.350 . S
C389 H376 0.929 . S
C389 C381 1.433 . S
C389 N391 1.384 . S
N390 C386 1.427 . S
N390 C387 1.384 . S
N391 C383 1.427 . S
N391 C389 1.384 . S
H392 C398 0.930 . S
H393 C402 0.930 . S
H394 C407 0.929 . S
H395 C405 0.929 . S
H396 C400 0.929 . S
H397 C406 0.929 . S
C398 H392 0.930 . S
C398 C399 1.367 . S
C398 C406 1.378 . S
C399 C398 1.367 . S
C399 C407 1.433 . S
C400 H396 0.929 . S
C400 C402 1.378 . S
C400 C404 1.350 . S
C401 C404 1.463 . S
C401 C406 1.350 . S
C401 N409 1.427 . S
C402 H393 0.930 . S
C402 C400 1.378 . S
C402 C403 1.367 . S
C403 C402 1.367 . S
C403 C405 1.433 . S
C404 C400 1.350 . S
C404 C401 1.463 . S
C404 N408 1.427 . S
C405 H395 0.929 . S
C405 C403 1.433 . S
C405 N408 1.384 . S
C406 H397 0.929 . S
C406 C398 1.378 . S
C406 C401 1.350 . S
C407 H394 0.929 . S
C407 C399 1.433 . S
C407 N409 1.384 . S
N408 C404 1.427 . S
N408 C405 1.384 . S
N409 C401 1.427 . S
N409 C407 1.384 . S
H410 C416 0.930 . S
H411 C420 0.930 . S
H412 C425 0.929 . S
H413 C423 0.929 . S
H414 C418 0.929 . S
H415 C424 0.929 . S
C416 H410 0.930 . S
C416 C417 1.367 . S
C416 C424 1.378 1_455 S
C417 C416 1.367 . S
C417 C425 1.433 1_455 S
C418 H414 0.929 . S
C418 C420 1.378 . S
C418 C422 1.350 . S
C419 C422 1.463 . S
C419 C424 1.350 . S
C419 N427 1.427 . S
C420 H411 0.930 . S
C420 C418 1.378 . S
C420 C421 1.367 . S
C421 C420 1.367 . S
C421 C423 1.433 . S
C422 C418 1.350 . S
C422 C419 1.463 . S
C422 N426 1.427 . S
C423 H413 0.929 . S
C423 C421 1.433 . S
C423 N426 1.384 . S
C424 H415 0.929 . S
C424 C416 1.378 1_655 S
C424 C419 1.350 . S
C425 H412 0.929 . S
C425 C417 1.433 1_655 S
C425 N427 1.384 . S
N426 C422 1.427 . S
N426 C423 1.384 . S
N427 C419 1.427 . S
N427 C425 1.384 . S
H428 C434 0.930 . S
H429 C438 0.930 . S
H430 C443 0.929 . S
H431 C441 0.929 . S
H432 C436 0.929 . S
H433 C442 0.929 . S
C434 H428 0.930 . S
C434 C435 1.367 . S
C434 C442 1.378 . S
C435 C434 1.367 . S
C435 C443 1.433 . S
C436 H432 0.929 . S
C436 C438 1.378 . S
C436 C440 1.350 . S
C437 C440 1.463 . S
C437 C442 1.350 . S
C437 N445 1.427 . S
C438 H429 0.930 . S
C438 C436 1.378 . S
C438 C439 1.367 . S
C439 C438 1.367 . S
C439 C441 1.433 . S
C440 C436 1.350 . S
C440 C437 1.463 . S
C440 N444 1.427 . S
C441 H431 0.929 . S
C441 C439 1.433 . S
C441 N444 1.384 . S
C442 H433 0.929 . S
C442 C434 1.378 . S
C442 C437 1.350 . S
C443 H430 0.929 . S
C443 C435 1.433 . S
C443 N445 1.384 . S
N444 C440 1.427 . S
N444 C441 1.384 . S
N445 C437 1.427 . S
N445 C443 1.384 . S
H446 C452 0.930 . S
H447 C456 0.930 . S
H448 C461 0.929 . S
H449 C459 0.929 . S
H450 C454 0.929 . S
H451 C460 0.929 . S
C452 H446 0.930 . S
C452 C453 1.367 . S
C452 C460 1.378 . S
C453 C452 1.367 . S
C453 C461 1.433 . S
C454 H450 0.929 . S
C454 C456 1.378 . S
C454 C458 1.350 1_455 S
C455 C458 1.463 . S
C455 C460 1.350 . S
C455 N463 1.427 . S
C456 H447 0.930 . S
C456 C454 1.378 . S
C456 C457 1.367 . S
C457 C456 1.367 . S
C457 C459 1.433 . S
C458 C454 1.350 1_655 S
C458 C455 1.463 . S
C458 N462 1.427 . S
C459 H449 0.929 . S
C459 C457 1.433 . S
C459 N462 1.384 1_455 S
C460 H451 0.929 . S
C460 C452 1.378 . S
C460 C455 1.350 . S
C461 H448 0.929 . S
C461 C453 1.433 . S
C461 N463 1.384 . S
N462 C458 1.427 . S
N462 C459 1.384 1_655 S
N463 C455 1.427 . S
N463 C461 1.384 . S
H464 C470 0.930 . S
H465 C474 0.930 . S
H466 C479 0.929 . S
H467 C477 0.929 . S
H468 C472 0.929 . S
H469 C478 0.929 . S
C470 H464 0.930 . S
C470 C471 1.367 . S
C470 C478 1.378 . S
C471 C470 1.367 . S
C471 C479 1.433 . S
C472 H468 0.929 . S
C472 C474 1.378 . S
C472 C476 1.350 . S
C473 C476 1.463 . S
C473 C478 1.350 . S
C473 N481 1.427 . S
C474 H465 0.930 . S
C474 C472 1.378 . S
C474 C475 1.367 . S
C475 C474 1.367 . S
C475 C477 1.433 . S
C476 C472 1.350 . S
C476 C473 1.463 . S
C476 N480 1.427 . S
C477 H467 0.929 . S
C477 C475 1.433 . S
C477 N480 1.384 . S
C478 H469 0.929 . S
C478 C470 1.378 . S
C478 C473 1.350 . S
C479 H466 0.929 . S
C479 C471 1.433 . S
C479 N481 1.384 . S
N480 C476 1.427 . S
N480 C477 1.384 . S
N481 C473 1.427 . S
N481 C479 1.384 . S
H482 C488 0.930 . S
H483 C492 0.930 . S
H484 C497 0.929 . S
H485 C495 0.929 . S
H486 C490 0.929 . S
H487 C496 0.929 . S
C488 H482 0.930 . S
C488 C489 1.367 . S
C488 C496 1.378 . S
C489 C488 1.367 . S
C489 C497 1.433 . S
C490 H486 0.929 . S
C490 C492 1.378 . S
C490 C494 1.350 . S
C491 C494 1.463 . S
C491 C496 1.350 . S
C491 N499 1.427 . S
C492 H483 0.930 . S
C492 C490 1.378 . S
C492 C493 1.367 . S
C493 C492 1.367 . S
C493 C495 1.433 . S
C494 C490 1.350 . S
C494 C491 1.463 . S
C494 N498 1.427 . S
C495 H485 0.929 . S
C495 C493 1.433 . S
C495 N498 1.384 . S
C496 H487 0.929 . S
C496 C488 1.378 . S
C496 C491 1.350 . S
C497 H484 0.929 . S
C497 C489 1.433 . S
C497 N499 1.384 . S
N498 C494 1.427 . S
N498 C495 1.384 . S
N499 C491 1.427 . S
N499 C497 1.384 . S
H500 C506 0.930 . S
H501 C510 0.930 . S
H502 C515 0.929 . S
H503 C513 0.929 . S
H504 C508 0.929 . S
H505 C514 0.929 . S
C506 H500 0.930 . S
C506 C507 1.367 . S
C506 C514 1.378 . S
C507 C506 1.367 . S
C507 C515 1.433 . S
C508 H504 0.929 . S
C508 C510 1.378 . S
C508 C512 1.350 . S
C509 C512 1.463 . S
C509 C514 1.350 . S
C509 N517 1.427 . S
C510 H501 0.930 . S
C510 C508 1.378 . S
C510 C511 1.367 . S
C511 C510 1.367 . S
C511 C513 1.433 . S
C512 C508 1.350 . S
C512 C509 1.463 . S
C512 N516 1.427 . S
C513 H503 0.929 . S
C513 C511 1.433 . S
C513 N516 1.384 . S
C514 H505 0.929 . S
C514 C506 1.378 . S
C514 C509 1.350 . S
C515 H502 0.929 . S
C515 C507 1.433 . S
C515 N517 1.384 . S
N516 C512 1.427 . S
N516 C513 1.384 . S
N517 C509 1.427 . S
N517 C515 1.384 . S
H518 C524 0.930 . S
H519 C528 0.930 . S
H520 C533 0.929 . S
H521 C531 0.929 . S
H522 C526 0.929 . S
H523 C532 0.929 . S
C524 H518 0.930 . S
C524 C525 1.367 . S
C524 C532 1.378 . S
C525 C524 1.367 . S
C525 C533 1.433 . S
C526 H522 0.929 . S
C526 C528 1.378 . S
C526 C530 1.350 . S
C527 C530 1.463 . S
C527 C532 1.350 . S
C527 N535 1.427 . S
C528 H519 0.930 . S
C528 C526 1.378 . S
C528 C529 1.367 . S
C529 C528 1.367 . S
C529 C531 1.433 . S
C530 C526 1.350 . S
C530 C527 1.463 . S
C530 N534 1.427 . S
C531 H521 0.929 . S
C531 C529 1.433 . S
C531 N534 1.384 . S
C532 H523 0.929 . S
C532 C524 1.378 . S
C532 C527 1.350 . S
C533 H520 0.929 . S
C533 C525 1.433 . S
C533 N535 1.384 . S
N534 C530 1.427 . S
N534 C531 1.384 . S
N535 C527 1.427 . S
N535 C533 1.384 . S
H536 C542 0.930 . S
H537 C546 0.930 . S
H538 C551 0.929 . S
H539 C549 0.929 . S
H540 C544 0.929 . S
H541 C550 0.929 . S
C542 H536 0.930 . S
C542 C543 1.367 . S
C542 C550 1.378 . S
C543 C542 1.367 . S
C543 C551 1.433 . S
C544 H540 0.929 . S
C544 C546 1.378 . S
C544 C548 1.350 . S
C545 C548 1.463 . S
C545 C550 1.350 . S
C545 N553 1.427 . S
C546 H537 0.930 . S
C546 C544 1.378 . S
C546 C547 1.367 . S
C547 C546 1.367 . S
C547 C549 1.433 . S
C548 C544 1.350 . S
C548 C545 1.463 . S
C548 N552 1.427 . S
C549 H539 0.929 . S
C549 C547 1.433 . S
C549 N552 1.384 . S
C550 H541 0.929 . S
C550 C542 1.378 . S
C550 C545 1.350 . S
C551 H538 0.929 . S
C551 C543 1.433 . S
C551 N553 1.384 . S
N552 C548 1.427 . S
N552 C549 1.384 . S
N553 C545 1.427 . S
N553 C551 1.384 . S
H554 C560 0.930 . S
H555 C564 0.930 . S
H556 C569 0.929 . S
H557 C567 0.929 . S
H558 C562 0.929 . S
H559 C568 0.929 . S
C560 H554 0.930 . S
C560 C561 1.367 . S
C560 C568 1.378 . S
C561 C560 1.367 . S
C561 C569 1.433 . S
C562 H558 0.929 . S
C562 C564 1.378 . S
C562 C566 1.350 . S
C563 C566 1.463 . S
C563 C568 1.350 . S
C563 N571 1.427 . S
C564 H555 0.930 . S
C564 C562 1.378 . S
C564 C565 1.367 . S
C565 C564 1.367 . S
C565 C567 1.433 . S
C566 C562 1.350 . S
C566 C563 1.463 . S
C566 N570 1.427 . S
C567 H557 0.929 . S
C567 C565 1.433 . S
C567 N570 1.384 . S
C568 H559 0.929 . S
C568 C560 1.378 . S
C568 C563 1.350 . S
C569 H556 0.929 . S
C569 C561 1.433 . S
C569 N571 1.384 . S
N570 C566 1.427 . S
N570 C567 1.384 . S
N571 C563 1.427 . S
N571 C569 1.384 . S
H572 C578 0.930 . S
H573 C582 0.930 . S
H574 C587 0.929 . S
H575 C585 0.929 . S
H576 C580 0.929 . S
H577 C586 0.929 . S
C578 H572 0.930 . S
C578 C579 1.367 . S
C578 C586 1.378 . S
C579 C578 1.367 . S
C579 C587 1.433 . S
C580 H576 0.929 . S
C580 C582 1.378 . S
C580 C584 1.350 . S
C581 C584 1.463 . S
C581 C586 1.350 . S
C581 N589 1.427 . S
C582 H573 0.930 . S
C582 C580 1.378 . S
C582 C583 1.367 . S
C583 C582 1.367 . S
C583 C585 1.433 . S
C584 C580 1.350 . S
C584 C581 1.463 . S
C584 N588 1.427 . S
C585 H575 0.929 . S
C585 C583 1.433 . S
C585 N588 1.384 . S
C586 H577 0.929 . S
C586 C578 1.378 . S
C586 C581 1.350 . S
C587 H574 0.929 . S
C587 C579 1.433 . S
C587 N589 1.384 . S
N588 C584 1.427 . S
N588 C585 1.384 . S
N589 C581 1.427 . S
N589 C587 1.384 . S
H590 C596 0.930 1_554 S
H591 C600 0.930 . S
H592 C605 0.929 . S
H593 C603 0.929 . S
H594 C598 0.929 . S
H595 C604 0.929 . S
C596 H590 0.930 1_556 S
C596 C597 1.367 . S
C596 C604 1.378 . S
C597 C596 1.367 . S
C597 C605 1.433 . S
C598 H594 0.929 . S
C598 C600 1.378 . S
C598 C602 1.350 . S
C599 C602 1.463 . S
C599 C604 1.350 . S
C599 N607 1.427 . S
C600 H591 0.930 . S
C600 C598 1.378 . S
C600 C601 1.367 . S
C601 C600 1.367 . S
C601 C603 1.433 . S
C602 C598 1.350 . S
C602 C599 1.463 . S
C602 N606 1.427 . S
C603 H593 0.929 . S
C603 C601 1.433 . S
C603 N606 1.384 . S
C604 H595 0.929 . S
C604 C596 1.378 . S
C604 C599 1.350 . S
C605 H592 0.929 . S
C605 C597 1.433 . S
C605 N607 1.384 . S
N606 C602 1.427 . S
N606 C603 1.384 . S
N607 C599 1.427 . S
N607 C605 1.384 . S
C183 C8 1.442 . S
C187 C97 1.399 . S
C201 C31 1.391 . S
C205 C108 1.310 . S
C219 C53 1.381 . S
C223 C116 1.342 . S
C241 C130 1.351 . S
C237 C74 1.367 . S
C259 C141 1.385 . S
C255 C26 1.447 . S
C273 C48 1.369 . S
C277 C152 1.362 . S
C291 C71 1.372 . S
C295 C160 1.333 . S
C309 C5 1.386 . S
C313 C174 1.321 . S
C327 C50 1.297 . S
C331 C171 1.273 . S
C349 C138 1.176 . S
C345 C70 1.191 . S
C367 C149 1.305 . S
C363 C4 1.341 1_556 S
C381 C28 1.376 . S
C385 C163 1.371 . S
C403 C105 1.274 . S
C399 C73 1.296 . S
C417 C7 1.384 . S
C421 C119 1.363 . S
C439 C127 1.317 . S
C435 C30 1.336 . S
C457 C94 1.158 . S
C453 C52 1.200 . S
C475 N158 1.434 . S
C471 C9 1.454 . S
C493 N169 1.433 . S
C489 C29 1.424 . S
C507 C51 1.363 . S
C511 N136 1.368 . S
C529 N147 1.371 . S
C525 C75 1.408 . S
C547 N114 1.428 . S
C543 C27 1.457 . S
C561 C49 1.408 . S
C565 N125 1.368 . S
C583 N92 1.370 . S
C579 C72 1.362 . S
C601 N103 1.430 . S
C597 C6 1.418 1_556 S
