# Generated by pormake.
# Topology pto, (3,4)-cn, num edge types: 1
# Building blocks:
#     Node 0, Type 0, BuildingBlock: OLANEW_clean_sbu_2, # of connection points: 3
#     Node 1, Type 0, BuildingBlock: OLANEW_clean_sbu_2, # of connection points: 3
#     Node 2, Type 0, BuildingBlock: OLANEW_clean_sbu_2, # of connection points: 3
#     Node 3, Type 0, BuildingBlock: OLANEW_clean_sbu_2, # of connection points: 3
#     Node 4, Type 0, BuildingBlock: OLANEW_clean_sbu_2, # of connection points: 3
#     Node 5, Type 0, BuildingBlock: OLANEW_clean_sbu_2, # of connection points: 3
#     Node 6, Type 0, BuildingBlock: OLANEW_clean_sbu_2, # of connection points: 3
#     Node 7, Type 0, BuildingBlock: OLANEW_clean_sbu_2, # of connection points: 3
#     Node 8, Type 1, BuildingBlock: NAWXER_clean_linker_0, # of connection points: 4
#     Node 9, Type 1, BuildingBlock: NAWXER_clean_linker_0, # of connection points: 4
#     Node 10, Type 1, BuildingBlock: NAWXER_clean_linker_0, # of connection points: 4
#     Node 11, Type 1, BuildingBlock: NAWXER_clean_linker_0, # of connection points: 4
#     Node 12, Type 1, BuildingBlock: NAWXER_clean_linker_0, # of connection points: 4
#     Node 13, Type 1, BuildingBlock: NAWXER_clean_linker_0, # of connection points: 4
#     Edge 14, Type (0, 1), BuildingBlock: TEMPAE_clean_linker_10, # of connection points: 2
#     Edge 15, Type (0, 1), BuildingBlock: TEMPAE_clean_linker_10, # of connection points: 2
#     Edge 16, Type (0, 1), BuildingBlock: TEMPAE_clean_linker_10, # of connection points: 2
#     Edge 17, Type (0, 1), BuildingBlock: TEMPAE_clean_linker_10, # of connection points: 2
#     Edge 18, Type (0, 1), BuildingBlock: TEMPAE_clean_linker_10, # of connection points: 2
#     Edge 19, Type (0, 1), BuildingBlock: TEMPAE_clean_linker_10, # of connection points: 2
#     Edge 20, Type (0, 1), BuildingBlock: TEMPAE_clean_linker_10, # of connection points: 2
#     Edge 21, Type (0, 1), BuildingBlock: TEMPAE_clean_linker_10, # of connection points: 2
#     Edge 22, Type (0, 1), BuildingBlock: TEMPAE_clean_linker_10, # of connection points: 2
#     Edge 23, Type (0, 1), BuildingBlock: TEMPAE_clean_linker_10, # of connection points: 2
#     Edge 24, Type (0, 1), BuildingBlock: TEMPAE_clean_linker_10, # of connection points: 2
#     Edge 25, Type (0, 1), BuildingBlock: TEMPAE_clean_linker_10, # of connection points: 2
#     Edge 26, Type (0, 1), BuildingBlock: TEMPAE_clean_linker_10, # of connection points: 2
#     Edge 27, Type (0, 1), BuildingBlock: TEMPAE_clean_linker_10, # of connection points: 2
#     Edge 28, Type (0, 1), BuildingBlock: TEMPAE_clean_linker_10, # of connection points: 2
#     Edge 29, Type (0, 1), BuildingBlock: TEMPAE_clean_linker_10, # of connection points: 2
#     Edge 30, Type (0, 1), BuildingBlock: TEMPAE_clean_linker_10, # of connection points: 2
#     Edge 31, Type (0, 1), BuildingBlock: TEMPAE_clean_linker_10, # of connection points: 2
#     Edge 32, Type (0, 1), BuildingBlock: TEMPAE_clean_linker_10, # of connection points: 2
#     Edge 33, Type (0, 1), BuildingBlock: TEMPAE_clean_linker_10, # of connection points: 2
#     Edge 34, Type (0, 1), BuildingBlock: TEMPAE_clean_linker_10, # of connection points: 2
#     Edge 35, Type (0, 1), BuildingBlock: TEMPAE_clean_linker_10, # of connection points: 2
#     Edge 36, Type (0, 1), BuildingBlock: TEMPAE_clean_linker_10, # of connection points: 2
#     Edge 37, Type (0, 1), BuildingBlock: TEMPAE_clean_linker_10, # of connection points: 2
# Relax obj value: 0.008
# Max RMSD: 0.126
# Mean RMSD: 0.054
data_MOF--net-pto--node1-OLANEW_clean_sbu_2--node2-NAWXER_clean_linker_0--edge1-TEMPAE_clean_linker_10
_symmetry_space_group_name_H-M    P1
_symmetry_Int_Tables_number       1
_symmetry_cell_setting            triclinic
loop_
_symmetry_equiv_pos_as_xyz
'x, y, z'
_cell_length_a     42.912786
_cell_length_b     61.403957
_cell_length_c     52.037202
_cell_angle_alpha  92.518173
_cell_angle_beta   89.735501
_cell_angle_gamma 105.2411
loop_
_atom_site_label
_atom_site_type_symbol
_atom_site_fract_x
_atom_site_fract_y
_atom_site_fract_z
_atom_type_partial_charge
O0 O 0.36415 0.34227 0.2914 0.0
Cd1 Cd 0.34049 0.34914 0.33271 0.0
O2 O 0.3211 0.34359 0.26938 0.0
Cd3 Cd 0.29441 0.3536 0.30156 0.0
O4 O 0.25873 0.37113 0.31467 0.0
C5 C 0.23804 0.37213 0.29767 0.0
O6 O 0.23926 0.36209 0.27499 0.0
C7 C 0.34929 0.34061 0.27003 0.0
C8 C 0.33737 0.31278 0.36377 0.0
O9 O 0.31375 0.31318 0.34898 0.0
O10 O 0.36228 0.32976 0.36415 0.0
O11 O 0.28654 0.85662 0.7707 0.0
Cd12 Cd 0.24794 0.85347 0.73532 0.0
O13 O 0.32026 0.84244 0.74774 0.0
Cd14 Cd 0.28553 0.83149 0.71628 0.0
O15 O 0.2471 0.80458 0.69841 0.0
C16 C 0.25407 0.78602 0.69312 0.0
O17 O 0.28382 0.78489 0.69708 0.0
C18 C 0.31321 0.85131 0.76878 0.0
C19 C 0.26359 0.8905 0.7039 0.0
O20 O 0.24648 0.89065 0.72414 0.0
O21 O 0.27348 0.87287 0.69859 0.0
O22 O 0.77342 0.77004 0.32618 0.0
Cd23 Cd 0.75512 0.73633 0.29772 0.0
O24 O 0.79789 0.79048 0.29471 0.0
Cd25 Cd 0.77578 0.76507 0.26504 0.0
O26 O 0.73692 0.75696 0.23656 0.0
C27 C 0.74304 0.75988 0.21287 0.0
O28 O 0.77332 0.76584 0.20551 0.0
C29 C 0.79097 0.78863 0.31843 0.0
C30 C 0.79616 0.70798 0.2998 0.0
O31 O 0.80196 0.72452 0.28472 0.0
O32 O 0.77092 0.70487 0.31389 0.0
O33 O 0.76937 0.28869 0.67077 0.0
Cd34 Cd 0.72982 0.25325 0.67973 0.0
O35 O 0.78186 0.29526 0.71182 0.0
Cd36 Cd 0.74311 0.26779 0.72574 0.0
O37 O 0.7034 0.25673 0.75248 0.0
C38 C 0.67625 0.26048 0.74789 0.0
O39 O 0.67201 0.26921 0.72599 0.0
C40 C 0.78656 0.30084 0.68859 0.0
C41 C 0.7405 0.21718 0.64977 0.0
O42 O 0.71983 0.22756 0.64283 0.0
O43 O 0.75603 0.22384 0.67089 0.0
O44 O 0.76572 0.78112 0.65231 0.0
Cd45 Cd 0.75833 0.75189 0.68394 0.0
O46 O 0.74235 0.80154 0.67785 0.0
Cd47 Cd 0.7275 0.77832 0.70882 0.0
O48 O 0.7002 0.77371 0.74457 0.0
C49 C 0.69773 0.79209 0.75555 0.0
O50 O 0.71212 0.81121 0.7451 0.0
C51 C 0.75679 0.79907 0.65697 0.0
C52 C 0.79767 0.72259 0.67521 0.0
O53 O 0.76849 0.71746 0.66681 0.0
O54 O 0.80831 0.74163 0.68753 0.0
O55 O 0.80205 0.27882 0.29485 0.0
Cd56 Cd 0.76959 0.24213 0.27799 0.0
O57 O 0.76076 0.29234 0.30499 0.0
Cd58 Cd 0.72519 0.2641 0.28628 0.0
O59 O 0.68886 0.2536 0.25581 0.0
C60 C 0.69793 0.25043 0.23299 0.0
O61 O 0.72858 0.2517 0.22888 0.0
C62 C 0.79107 0.29464 0.30457 0.0
C63 C 0.77406 0.20759 0.30969 0.0
O64 O 0.79577 0.21506 0.29293 0.0
O65 O 0.7501 0.21637 0.31142 0.0
O66 O 0.2751 0.34378 0.76417 0.0
Cd67 Cd 0.24876 0.34206 0.72207 0.0
O68 O 0.32044 0.36747 0.75264 0.0
Cd69 Cd 0.30569 0.36171 0.71236 0.0
O70 O 0.29892 0.335 0.68219 0.0
C71 C 0.2937 0.31525 0.69065 0.0
O72 O 0.29186 0.31294 0.71564 0.0
C73 C 0.30327 0.35604 0.76988 0.0
C74 C 0.21364 0.37395 0.71609 0.0
O75 O 0.20004 0.35425 0.72402 0.0
O76 O 0.24399 0.3787 0.71145 0.0
O77 O 0.41924 0.85044 0.31127 0.0
Cd78 Cd 0.40782 0.84982 0.35736 0.0
O79 O 0.36867 0.83196 0.30523 0.0
Cd80 Cd 0.32624 0.81098 0.28471 0.0
O81 O 0.28183 0.78437 0.27736 0.0
C82 C 0.28395 0.76418 0.27417 0.0
O83 O 0.31272 0.76043 0.27409 0.0
C84 C 0.39641 0.84061 0.29594 0.0
C85 C 0.3945 0.88889 0.3785 0.0
O86 O 0.42337 0.88664 0.37821 0.0
O87 O 0.37202 0.8728 0.36835 0.0
C88 C 0.96364 0.45598 0.30049 0.0
C89 C 0.94113 0.45042 0.32044 0.0
C90 C 0.98325 0.47794 0.29896 0.0
C91 C 0.98108 0.49478 0.31753 0.0
C92 C 0.93901 0.46726 0.33907 0.0
C93 C 0.95865 0.48931 0.33749 0.0
C94 C 0.00074 0.51831 0.31512 0.0
C95 C 0.07114 0.47808 0.33251 0.0
C96 C 0.09315 0.47707 0.31267 0.0
C97 C 0.05178 0.49314 0.33172 0.0
C98 C 0.05384 0.50731 0.31094 0.0
C99 C 0.09523 0.49137 0.29199 0.0
C100 C 0.07592 0.50643 0.29123 0.0
C101 C 0.03422 0.52382 0.31011 0.0
C102 C 0.07373 0.62509 0.31031 0.0
C103 C 0.09545 0.6278 0.28963 0.0
C104 C 0.05299 0.6039 0.31483 0.0
C105 C 0.05341 0.58508 0.29862 0.0
C106 C 0.09536 0.60899 0.27319 0.0
C107 C 0.07467 0.58785 0.27773 0.0
C108 C 0.03401 0.56211 0.30439 0.0
C109 C 0.9612 0.60026 0.28569 0.0
C110 C 0.94244 0.60371 0.30693 0.0
C111 C 0.98052 0.58521 0.28679 0.0
C112 C 0.98131 0.57331 0.30911 0.0
C113 C 0.94329 0.59179 0.32924 0.0
C114 C 0.96232 0.57654 0.33021 0.0
C115 C 0.00074 0.55676 0.31014 0.0
H116 H 0.96597 0.44335 0.28594 0.0
H117 H -0.00028 0.48185 0.28297 0.0
H118 H 0.92161 0.46353 0.35447 0.0
H119 H 0.9563 0.50211 0.35182 0.0
H120 H 0.06933 0.46755 0.3489 0.0
H121 H 0.03557 0.49395 0.34753 0.0
H122 H 0.11159 0.4908 0.27622 0.0
H123 H 0.07803 0.51726 0.27508 0.0
H124 H 0.07316 0.63928 0.32326 0.0
H125 H 0.03739 0.60213 0.33146 0.0
H126 H 0.11213 0.61041 0.25735 0.0
H127 H 0.07565 0.57353 0.26512 0.0
H128 H 0.96102 0.60928 0.26829 0.0
H129 H -0.00547 0.58264 0.2701 0.0
H130 H 0.92877 0.59396 0.34576 0.0
H131 H 0.96236 0.56734 0.3475 0.0
N132 N 0.98534 0.53505 0.31526 0.0
N133 N 0.04943 0.54543 0.30467 0.0
C134 C 0.95915 0.46179 0.647 0.0
C135 C 0.93254 0.45585 0.66355 0.0
C136 C 0.9784 0.48404 0.64708 0.0
C137 C 0.97156 0.50071 0.66387 0.0
C138 C 0.92562 0.47267 0.68012 0.0
C139 C 0.9448 0.49488 0.68014 0.0
C140 C 0.99144 0.5244 0.66407 0.0
C141 C 0.05566 0.48477 0.69558 0.0
C142 C 0.08205 0.48383 0.67988 0.0
C143 C 0.03709 0.49972 0.69064 0.0
C144 C 0.04442 0.51397 0.66982 0.0
C145 C 0.08945 0.49818 0.6591 0.0
C146 C 0.07096 0.51326 0.65427 0.0
C147 C 0.02552 0.53044 0.66518 0.0
C148 C 0.06102 0.63069 0.68443 0.0
C149 C 0.08673 0.63738 0.66716 0.0
C150 C 0.0411 0.60864 0.68303 0.0
C151 C 0.04626 0.59295 0.66412 0.0
C152 C 0.09189 0.62158 0.64834 0.0
C153 C 0.07196 0.59954 0.64695 0.0
C154 C 0.0262 0.56932 0.66301 0.0
C155 C 0.96141 0.61388 0.64583 0.0
C156 C 0.93457 0.61141 0.66217 0.0
C157 C 0.97986 0.59816 0.64542 0.0
C158 C 0.97242 0.57996 0.66187 0.0
C159 C 0.92645 0.59263 0.67779 0.0
C160 C 0.94518 0.57716 0.67766 0.0
C161 C 0.99202 0.56332 0.66248 0.0
H162 H 0.96482 0.44933 0.63371 0.0
H163 H -0.00159 0.48826 0.63383 0.0
H164 H 0.9056 0.46861 0.69338 0.0
H165 H 0.939 0.50748 0.69318 0.0
H166 H 0.04929 0.47387 0.71165 0.0
H167 H 0.01721 0.50034 0.70331 0.0
H168 H 0.10988 0.49801 0.64687 0.0
H169 H 0.0773 0.52432 0.63833 0.0
H170 H 0.05635 0.64249 0.69909 0.0
H171 H 0.02189 0.60378 0.69689 0.0
H172 H 0.11184 0.62608 0.63506 0.0
H173 H 0.07663 0.5876 0.63246 0.0
H174 H 0.9685 0.62812 0.63356 0.0
H175 H -3e-05 0.60031 0.63229 0.0
H176 H 0.90548 0.58975 0.69009 0.0
H177 H 0.93851 0.56306 0.6902 0.0
N178 N 0.97606 0.54107 0.66303 0.0
N179 N 0.04159 0.55264 0.66428 0.0
C180 C 0.30097 0.16685 0.48189 0.0
C181 C 0.32843 0.17579 0.46704 0.0
C182 C 0.29908 0.14796 0.49638 0.0
C183 C 0.32477 0.13775 0.49656 0.0
C184 C 0.35369 0.16508 0.4666 0.0
C185 C 0.35178 0.14615 0.48114 0.0
C186 C 0.32337 0.1183 0.51276 0.0
C187 C 0.33257 0.17879 0.56573 0.0
C188 C 0.30537 0.17813 0.58114 0.0
C189 C 0.33581 0.15937 0.55224 0.0
C190 C 0.3117 0.13893 0.55353 0.0
C191 C 0.28152 0.15755 0.58277 0.0
C192 C 0.28476 0.1381 0.5692 0.0
C193 C 0.31495 0.11836 0.53903 0.0
C194 C 0.33344 0.03072 0.57454 0.0
C195 C 0.30438 0.02252 0.5878 0.0
C196 C 0.33753 0.04935 0.55913 0.0
C197 C 0.31258 0.06006 0.55667 0.0
C198 C 0.27965 0.03348 0.58554 0.0
C199 C 0.28383 0.05217 0.57028 0.0
C200 C 0.31646 0.0799 0.54065 0.0
C201 C 0.316 0.02032 0.48701 0.0
C202 C 0.34417 0.02293 0.47225 0.0
C203 C 0.30983 0.03882 0.50071 0.0
C204 C 0.33204 0.06019 0.50032 0.0
C205 C 0.36597 0.04443 0.47143 0.0
C206 C 0.3599 0.06288 0.48527 0.0
C207 C 0.32596 0.08007 0.51457 0.0
H208 H 0.28078 0.17437 0.48218 0.0
H209 H 0.27755 0.14136 0.50753 0.0
H210 H 0.37523 0.17162 0.45544 0.0
H211 H 0.37175 0.13841 0.48085 0.0
H212 H 0.3513 0.19437 0.56396 0.0
H213 H 0.35726 0.16032 0.54081 0.0
H214 H 0.26055 0.1564 0.59483 0.0
H215 H 0.26607 0.12245 0.57073 0.0
H216 H 0.35289 0.02259 0.5759 0.0
H217 H 0.3602 0.05545 0.54921 0.0
H218 H 0.25719 0.02777 0.59585 0.0
H219 H 0.26442 0.06034 0.56888 0.0
H220 H 0.29848 0.00404 0.48763 0.0
H221 H 0.28757 0.03644 0.51141 0.0
H222 H 0.38797 0.04693 0.46036 0.0
H223 H 0.37722 0.07924 0.48447 0.0
N224 N 0.32902 0.09928 0.50163 0.0
N225 N 0.31134 0.09907 0.55187 0.0
C226 C 0.47306 0.84486 0.92871 0.0
C227 C 0.43973 0.83482 0.92583 0.0
C228 C 0.49009 0.84004 0.94959 0.0
C229 C 0.47432 0.82474 0.96778 0.0
C230 C 0.42379 0.82015 0.94461 0.0
C231 C 0.44091 0.81522 0.96539 0.0
C232 C 0.49225 0.81909 0.98969 0.0
C233 C 0.5361 0.79323 0.91899 0.0
C234 C 0.56921 0.80357 0.91592 0.0
C235 C 0.52041 0.79686 0.94178 0.0
C236 C 0.5375 0.81108 0.96179 0.0
C237 C 0.58608 0.81795 0.93592 0.0
C238 C 0.57043 0.82153 0.95864 0.0
C239 C 0.52225 0.81377 0.98686 0.0
C240 C 0.54898 0.78292 0.08968 0.0
C241 C 0.58215 0.79368 0.09191 0.0
C242 C 0.53018 0.78908 0.07083 0.0
C243 C 0.54432 0.80604 0.05389 0.0
C244 C 0.59606 0.81086 0.07517 0.0
C245 C 0.57737 0.81685 0.05621 0.0
C246 C 0.52569 0.81125 0.03226 0.0
C247 C 0.48746 0.83731 0.10373 0.0
C248 C 0.45605 0.82491 0.10983 0.0
C249 C 0.50023 0.83467 0.07943 0.0
C250 C 0.48186 0.81956 0.06074 0.0
C251 C 0.43747 0.81007 0.09095 0.0
C252 C 0.45019 0.80759 0.0665 0.0
C253 C 0.4957 0.81642 0.0352 0.0
H254 H 0.48616 0.85616 0.9146 0.0
H255 H 0.51565 0.84827 0.95144 0.0
H256 H 0.39803 0.8125 0.9433 0.0
H257 H 0.4281 0.80369 0.97943 0.0
H258 H 0.52253 0.78185 0.90406 0.0
H259 H 0.49517 0.78814 0.94402 0.0
H260 H 0.61145 0.82648 0.93402 0.0
H261 H 0.58413 0.83248 0.97387 0.0
H262 H 0.53768 0.76965 0.10239 0.0
H263 H 0.50485 0.78018 0.06903 0.0
H264 H 0.62164 0.81923 0.07625 0.0
H265 H 0.58881 0.82979 0.04314 0.0
H266 H 0.50241 0.84876 0.11793 0.0
H267 H 0.52453 0.8444 0.07524 0.0
H268 H 0.41309 0.80046 0.09508 0.0
H269 H 0.43554 0.796 0.05226 0.0
N270 N 0.47998 0.82004 0.01379 0.0
N271 N 0.53781 0.81022 0.00827 0.0
C272 C 0.76763 0.07622 0.44364 0.0
C273 C 0.79021 0.08242 0.42393 0.0
C274 C 0.76832 0.05822 0.45895 0.0
C275 C 0.79239 0.04662 0.45546 0.0
C276 C 0.81368 0.07047 0.41988 0.0
C277 C 0.81482 0.05278 0.43557 0.0
C278 C 0.793 0.02707 0.4711 0.0
C279 C 0.8038 0.08574 0.52851 0.0
C280 C 0.77603 0.08407 0.54364 0.0
C281 C 0.80764 0.06713 0.5136 0.0
C282 C 0.7839 0.04647 0.51364 0.0
C283 C 0.75244 0.06322 0.54368 0.0
C284 C 0.75654 0.04456 0.52906 0.0
C285 C 0.78754 0.02667 0.49795 0.0
C286 C 0.81234 0.93811 0.52484 0.0
C287 C 0.78531 0.92915 0.54013 0.0
C288 C 0.81425 0.95754 0.51124 0.0
C289 C 0.78913 0.9683 0.51263 0.0
C290 C 0.7605 0.94022 0.54184 0.0
C291 C 0.76251 0.95971 0.52835 0.0
C292 C 0.79036 0.98843 0.49764 0.0
C293 C 0.77495 0.92927 0.4418 0.0
C294 C 0.80235 0.92941 0.42686 0.0
C295 C 0.77282 0.94865 0.45594 0.0
C296 C 0.79808 0.9685 0.45548 0.0
C297 C 0.8275 0.94938 0.4262 0.0
C298 C 0.82523 0.96886 0.44024 0.0
C299 C 0.79603 0.98882 0.47093 0.0
H300 H 0.74891 0.08492 0.44674 0.0
H301 H 0.74959 0.05317 0.47313 0.0
H302 H 0.83126 0.07494 0.40469 0.0
H303 H 0.83328 0.0439 0.43216 0.0
H304 H 0.82279 0.10134 0.52838 0.0
H305 H 0.82924 0.06881 0.50216 0.0
H306 H 0.7305 0.06134 0.5547 0.0
H307 H 0.73796 0.02873 0.52935 0.0
H308 H 0.83181 0.92994 0.52316 0.0
H309 H 0.83533 0.96413 0.4996 0.0
H310 H 0.73964 0.93391 0.55383 0.0
H311 H 0.743 0.96786 0.52984 0.0
H312 H 0.75528 0.9141 0.44274 0.0
H313 H 0.75142 0.94813 0.46729 0.0
H314 H 0.84871 0.94999 0.4146 0.0
H315 H 0.84485 0.98409 0.43952 0.0
N316 N 0.79728 0.00812 0.45866 0.0
N317 N 0.78615 0.00731 0.51014 0.0
C318 C 0.45879 0.3283 0.92061 0.0
C319 C 0.42489 0.32272 0.92084 0.0
C320 C 0.4758 0.32102 0.93986 0.0
C321 C 0.45919 0.30733 0.9592 0.0
C322 C 0.4083 0.30978 0.94066 0.0
C323 C 0.42529 0.30212 0.95961 0.0
C324 C 0.47671 0.29956 0.98 0.0
C325 C 0.51064 0.27137 0.90636 0.0
C326 C 0.54404 0.27942 0.9022 0.0
C327 C 0.49739 0.27531 0.93019 0.0
C328 C 0.51729 0.28754 0.95016 0.0
C329 C 0.56384 0.29138 0.92238 0.0
C330 C 0.55062 0.29532 0.94609 0.0
C331 C 0.50424 0.29126 0.97587 0.0
C332 C 0.52928 0.26101 0.08087 0.0
C333 C 0.56288 0.27025 0.08283 0.0
C334 C 0.5118 0.26656 0.06069 0.0
C335 C 0.52758 0.28154 0.0422 0.0
C336 C 0.57869 0.28472 0.06387 0.0
C337 C 0.56122 0.2902 0.04367 0.0
C338 C 0.50937 0.28811 0.0211 0.0
C339 C 0.47935 0.31788 0.09428 0.0
C340 C 0.44683 0.30847 0.10053 0.0
C341 C 0.49079 0.31397 0.06981 0.0
C342 C 0.46997 0.30045 0.0512 0.0
C343 C 0.42595 0.29519 0.08173 0.0
C344 C 0.43739 0.29136 0.05722 0.0
C345 C 0.48183 0.29623 0.02525 0.0
H346 H 0.4721 0.33857 0.90572 0.0
H347 H 0.50193 0.3263 0.93969 0.0
H348 H 0.38215 0.30525 0.9412 0.0
H349 H 0.41188 0.29192 0.97452 0.0
H350 H 0.49477 0.26211 0.89118 0.0
H351 H 0.47169 0.26864 0.93308 0.0
H352 H 0.58973 0.29739 0.92 0.0
H353 H 0.5665 0.3045 0.96133 0.0
H354 H 0.51643 0.24985 0.09521 0.0
H355 H 0.48594 0.25924 0.0596 0.0
H356 H 0.60462 0.29181 0.06464 0.0
H357 H 0.57393 0.30156 0.02944 0.0
H358 H 0.496 0.32814 0.10838 0.0
H359 H 0.51588 0.32158 0.06539 0.0
H360 H 0.40066 0.28803 0.08588 0.0
H361 H 0.42087 0.28111 0.04302 0.0
N362 N 0.46647 0.30151 0.00457 0.0
N363 N 0.51958 0.28607 -0.00339 0.0
C364 C 0.21379 0.39733 0.32612 0.0
C365 C 0.21456 0.38573 0.30238 0.0
C366 C 0.19312 0.41153 0.32997 0.0
C367 C 0.17293 0.41422 0.30957 0.0
C368 C 0.17295 0.40205 0.28584 0.0
C369 C 0.19369 0.38793 0.28256 0.0
C370 C 0.19354 0.42411 0.35561 0.0
C371 C 0.15181 0.40451 0.2636 0.0
C372 C 0.10144 0.439 0.32101 0.0
C373 C 0.11402 0.46124 0.31345 0.0
C374 C 0.12061 0.42364 0.32063 0.0
C375 C 0.15305 0.43069 0.31237 0.0
C376 C 0.1661 0.45326 0.30533 0.0
C377 C 0.14647 0.46827 0.30603 0.0
C378 C 0.10591 0.39973 0.32836 0.0
C379 C 0.2006 0.46143 0.29642 0.0
H380 H 0.22974 0.39566 0.34157 0.0
H381 H 0.19402 0.37899 0.26418 0.0
H382 H 0.20285 0.44253 0.35314 0.0
H383 H 0.16867 0.42116 0.36324 0.0
H384 H 0.2089 0.41896 0.37005 0.0
H385 H 0.15355 0.39305 0.24683 0.0
H386 H 0.12621 0.40087 0.26966 0.0
H387 H 0.15895 0.42217 0.25736 0.0
H388 H 0.07632 0.4334 0.32657 0.0
H389 H 0.15653 0.48555 0.30065 0.0
H390 H 0.12124 0.39499 0.3431 0.0
H391 H 0.10473 0.38789 0.31144 0.0
H392 H 0.08115 0.3974 0.33614 0.0
H393 H 0.21737 0.4583 0.31111 0.0
H394 H 0.20742 0.47973 0.2926 0.0
H395 H 0.20401 0.45185 0.27851 0.0
C396 C 0.23663 0.74484 0.68062 0.0
C397 C 0.22858 0.76535 0.68543 0.0
C398 C 0.21263 0.72461 0.67592 0.0
C399 C 0.17975 0.72487 0.676 0.0
C400 C 0.17148 0.74562 0.67983 0.0
C401 C 0.19601 0.76564 0.6845 0.0
C402 C 0.22245 0.70283 0.67182 0.0
C403 C 0.13668 0.74656 0.67993 0.0
C404 C 0.1198 0.67252 0.64735 0.0
C405 C 0.10896 0.66046 0.6694 0.0
C406 C 0.14222 0.6938 0.64921 0.0
C407 C 0.15412 0.7032 0.67369 0.0
C408 C 0.14271 0.69135 0.69605 0.0
C409 C 0.12029 0.67013 0.69363 0.0
C410 C 0.1537 0.706 0.62496 0.0
C411 C 0.15489 0.70078 0.7225 0.0
H412 H 0.26172 0.74445 0.68116 0.0
H413 H 0.18957 0.78142 0.68813 0.0
H414 H 0.21332 0.69158 0.68785 0.0
H415 H 0.21151 0.69379 0.65378 0.0
H416 H 0.24907 0.70568 0.67079 0.0
H417 H 0.13439 0.76418 0.6811 0.0
H418 H 0.12403 0.73784 0.66231 0.0
H419 H 0.12412 0.73759 0.69663 0.0
H420 H 0.11079 0.66525 0.6286 0.0
H421 H 0.11235 0.66079 0.71072 0.0
H422 H 0.17993 0.70778 0.6225 0.0
H423 H 0.15024 0.7233 0.62639 0.0
H424 H 0.14077 0.69698 0.60755 0.0
H425 H 0.18118 0.70235 0.72397 0.0
H426 H 0.14245 0.68996 0.73801 0.0
H427 H 0.15139 0.71795 0.7258 0.0
C428 C 0.84856 0.69898 0.28955 0.0
C429 C 0.81793 0.69291 0.30085 0.0
C430 C 0.86948 0.68488 0.29051 0.0
C431 C 0.85933 0.66407 0.30274 0.0
C432 C 0.82837 0.65779 0.31405 0.0
C433 C 0.80812 0.67236 0.31314 0.0
C434 C 0.90249 0.69229 0.27852 0.0
C435 C 0.81653 0.63559 0.32697 0.0
C436 C 0.90089 0.61812 0.28457 0.0
C437 C 0.92158 0.61943 0.30567 0.0
C438 C 0.88044 0.63253 0.28338 0.0
C439 C 0.88106 0.64881 0.30363 0.0
C440 C 0.90221 0.65038 0.32484 0.0
C441 C 0.92207 0.63554 0.32569 0.0
C442 C 0.8579 0.63013 0.26062 0.0
C443 C 0.90389 0.66774 0.34662 0.0
H444 H 0.85635 0.71489 0.28013 0.0
H445 H 0.78443 0.66751 0.32181 0.0
H446 H 0.92145 0.69294 0.29318 0.0
H447 H 0.90509 0.67984 0.26311 0.0
H448 H 0.90693 0.70916 0.27015 0.0
H449 H 0.79166 0.63309 0.33457 0.0
H450 H 0.81681 0.62138 0.31311 0.0
H451 H 0.83292 0.63479 0.34312 0.0
H452 H 0.90026 0.6055 0.2692 0.0
H453 H 0.93829 0.6367 0.34191 0.0
H454 H 0.86278 0.64629 0.25069 0.0
H455 H 0.83252 0.62624 0.2673 0.0
H456 H 0.86035 0.61658 0.24651 0.0
H457 H 0.90995 0.68495 0.33902 0.0
H458 H 0.92217 0.66709 0.36141 0.0
H459 H 0.87999 0.665 0.35601 0.0
C460 C 0.81644 0.32886 0.65737 0.0
C461 C 0.8108 0.32212 0.68277 0.0
C462 C 0.83764 0.34983 0.65203 0.0
C463 C 0.85335 0.3644 0.67258 0.0
C464 C 0.84848 0.35741 0.69817 0.0
C465 C 0.82738 0.33635 0.70294 0.0
C466 C 0.84254 0.35665 0.62447 0.0
C467 C 0.86471 0.37249 0.72064 0.0
C468 C 0.9262 0.41398 0.66267 0.0
C469 C 0.91211 0.4322 0.66378 0.0
C470 C 0.90724 0.39167 0.6645 0.0
C471 C 0.87344 0.38753 0.66769 0.0
C472 C 0.85897 0.40577 0.66804 0.0
C473 C 0.87846 0.42785 0.66598 0.0
C474 C 0.92349 0.37263 0.6639 0.0
C475 C 0.823 0.40205 0.67144 0.0
H476 H 0.80387 0.31794 0.64166 0.0
H477 H 0.8233 0.33131 0.72263 0.0
H478 H 0.83262 0.37133 0.62158 0.0
H479 H 0.8687 0.362 0.62005 0.0
H480 H 0.83057 0.34273 0.6106 0.0
H481 H 0.85952 0.36412 0.73926 0.0
H482 H 0.89124 0.37764 0.7179 0.0
H483 H 0.85632 0.38813 0.72175 0.0
H484 H 0.9522 0.4172 0.66118 0.0
H485 H 0.86733 0.44179 0.66632 0.0
H486 H 0.91128 0.35907 0.64975 0.0
H487 H 0.92148 0.3651 0.68303 0.0
H488 H 0.94947 0.37842 0.6589 0.0
H489 H 0.80968 0.3895 0.65669 0.0
H490 H 0.81536 0.4179 0.67002 0.0
H491 H 0.81581 0.39509 0.69054 0.0
C492 C 0.30868 0.27467 0.37908 0.0
C493 C 0.33618 0.29308 0.37957 0.0
C494 C 0.3075 0.25566 0.39346 0.0
C495 C 0.33449 0.25504 0.40867 0.0
C496 C 0.36225 0.27361 0.40938 0.0
C497 C 0.36276 0.29242 0.39483 0.0
C498 C 0.27742 0.2362 0.39229 0.0
C499 C 0.3915 0.27354 0.42538 0.0
C500 C 0.32058 0.21454 0.46321 0.0
C501 C 0.33065 0.19627 0.4522 0.0
C502 C 0.32189 0.23382 0.44932 0.0
C503 C 0.33363 0.23491 0.42382 0.0
C504 C 0.34416 0.21664 0.41268 0.0
C505 C 0.34253 0.19753 0.42701 0.0
C506 C 0.31056 0.253 0.46189 0.0
C507 C 0.35683 0.21719 0.38553 0.0
H508 H 0.28803 0.27504 0.36735 0.0
H509 H 0.38412 0.30656 0.39531 0.0
H510 H 0.28347 0.22057 0.38502 0.0
H511 H 0.26738 0.23305 0.41187 0.0
H512 H 0.25844 0.23939 0.37965 0.0
H513 H 0.41109 0.28938 0.42397 0.0
H514 H 0.38462 0.27133 0.44586 0.0
H515 H 0.40106 0.25907 0.41904 0.0
H516 H 0.31186 0.21382 0.48282 0.0
H517 H 0.35003 0.18338 0.4183 0.0
H518 H 0.29029 0.25597 0.45062 0.0
H519 H 0.33036 0.26881 0.46211 0.0
H520 H 0.30237 0.24959 0.48195 0.0
H521 H 0.33781 0.21868 0.37187 0.0
H522 H 0.36472 0.20182 0.37989 0.0
H523 H 0.37758 0.23222 0.38353 0.0
C524 C 0.3646 0.8485 0.78932 0.0
C525 C 0.33449 0.85333 0.79162 0.0
C526 C 0.38317 0.84751 0.81115 0.0
C527 C 0.37124 0.85127 0.8359 0.0
C528 C 0.34156 0.85714 0.83832 0.0
C529 C 0.32361 0.8582 0.81614 0.0
C530 C 0.41491 0.84148 0.80778 0.0
C531 C 0.32799 0.86121 0.86438 0.0
C532 C 0.39835 0.82167 0.89075 0.0
C533 C 0.4218 0.83929 0.90309 0.0
C534 C 0.38156 0.82544 0.86905 0.0
C535 C 0.38855 0.84733 0.85924 0.0
C536 C 0.41213 0.86522 0.87156 0.0
C537 C 0.42839 0.86101 0.89341 0.0
C538 C 0.35649 0.80591 0.85648 0.0
C539 C 0.42029 0.88876 0.86159 0.0
H540 H 0.37332 0.84486 0.77045 0.0
H541 H 0.30039 0.86196 0.81814 0.0
H542 H 0.43432 0.85379 0.81882 0.0
H543 H 0.41294 0.8246 0.81545 0.0
H544 H 0.42217 0.84109 0.78728 0.0
H545 H 0.30601 0.86743 0.86293 0.0
H546 H 0.32168 0.84522 0.87473 0.0
H547 H 0.34631 0.87368 0.87621 0.0
H548 H 0.39347 0.80476 0.89779 0.0
H549 H 0.44614 0.8748 0.90301 0.0
H550 H 0.36354 0.80285 0.83638 0.0
H551 H 0.33286 0.81004 0.85571 0.0
H552 H 0.35335 0.79006 0.86687 0.0
H553 H 0.42879 0.88844 0.84145 0.0
H554 H 0.43929 0.90082 0.87336 0.0
H555 H 0.39839 0.89513 0.86147 0.0
C556 C 0.79174 0.80732 0.36231 0.0
C557 C 0.80018 0.80883 0.33625 0.0
C558 C 0.79569 0.82685 0.37838 0.0
C559 C 0.80814 0.84834 0.36807 0.0
C560 C 0.81851 0.84991 0.34221 0.0
C561 C 0.81454 0.83013 0.32664 0.0
C562 C 0.78479 0.8245 0.40599 0.0
C563 C 0.83186 0.87252 0.33048 0.0
C564 C 0.77779 0.8967 0.39675 0.0
C565 C 0.80426 0.9088 0.41171 0.0
C566 C 0.77884 0.87702 0.38249 0.0
C567 C 0.80699 0.86913 0.38337 0.0
C568 C 0.83382 0.88125 0.39849 0.0
C569 C 0.8322 0.90106 0.41239 0.0
C570 C 0.74983 0.86472 0.36637 0.0
C571 C 0.86409 0.87322 0.40006 0.0
H572 H 0.78087 0.79094 0.36997 0.0
H573 H 0.82131 0.83149 0.30657 0.0
H574 H 0.80347 0.83525 0.41909 0.0
H575 H 0.76255 0.83035 0.40845 0.0
H576 H 0.77954 0.80674 0.41191 0.0
H577 H 0.84194 0.87082 0.31102 0.0
H578 H 0.81235 0.8812 0.32889 0.0
H579 H 0.85107 0.8835 0.34295 0.0
H580 H 0.75631 0.90281 0.39596 0.0
H581 H 0.85258 0.91029 0.42416 0.0
H582 H 0.74064 0.84715 0.37262 0.0
H583 H 0.75689 0.86372 0.3459 0.0
H584 H 0.72989 0.87314 0.36773 0.0
H585 H 0.85818 0.85592 0.4074 0.0
H586 H 0.88274 0.88449 0.41283 0.0
H587 H 0.87446 0.8723 0.3806 0.0
C588 C 0.65868 0.25266 0.79323 0.0
C589 C 0.6518 0.25842 0.76848 0.0
C590 C 0.63803 0.25397 0.81388 0.0
C591 C 0.6097 0.26106 0.80966 0.0
C592 C 0.60156 0.26549 0.78445 0.0
C593 C 0.62276 0.26417 0.76415 0.0
C594 C 0.64756 0.24907 0.84049 0.0
C595 C 0.57135 0.2728 0.77913 0.0
C596 C 0.54947 0.25368 0.86451 0.0
C597 C 0.55864 0.27508 0.87718 0.0
C598 C 0.56514 0.249 0.84197 0.0
C599 C 0.59062 0.26608 0.83201 0.0
C600 C 0.5992 0.2879 0.84425 0.0
C601 C 0.58303 0.29214 0.86659 0.0
C602 C 0.55518 0.22559 0.82933 0.0
C603 C 0.62616 0.30663 0.83418 0.0
H604 H 0.68095 0.24806 0.79676 0.0
H605 H 0.61709 0.26846 0.74505 0.0
H606 H 0.65373 0.26494 0.85265 0.0
H607 H 0.62709 0.23714 0.84976 0.0
H608 H 0.66869 0.2418 0.84018 0.0
H609 H 0.56638 0.2728 0.7582 0.0
H610 H 0.55015 0.26154 0.78836 0.0
H611 H 0.57404 0.29013 0.78751 0.0
H612 H 0.53079 0.24037 0.87268 0.0
H613 H 0.58979 0.30883 0.87601 0.0
H614 H 0.57497 0.21722 0.83126 0.0
H615 H 0.55081 0.22653 0.80846 0.0
H616 H 0.53302 0.21487 0.83801 0.0
H617 H 0.6493 0.3018 0.83497 0.0
H618 H 0.62903 0.32286 0.8454 0.0
H619 H 0.62152 0.3093 0.81376 0.0
C620 C 0.26288 0.92996 0.69428 0.0
C621 C 0.27126 0.90998 0.68698 0.0
C622 C 0.26931 0.94837 0.67819 0.0
C623 C 0.28426 0.94671 0.65414 0.0
C624 C 0.29301 0.92667 0.64673 0.0
C625 C 0.28652 0.90857 0.66329 0.0
C626 C 0.25981 0.96952 0.68685 0.0
C627 C 0.30882 0.92422 0.62117 0.0
C628 C 0.27084 0.98554 0.60287 0.0
C629 C 0.2998 0.00272 0.60417 0.0
C630 C 0.26569 0.96705 0.61875 0.0
C631 C 0.29 0.96578 0.63649 0.0
C632 C 0.31943 0.98295 0.63771 0.0
C633 C 0.32403 0.00118 0.62145 0.0
C634 C 0.2341 0.94897 0.61668 0.0
C635 C 0.34582 0.98227 0.6565 0.0
H636 H 0.2512 0.93123 0.71258 0.0
H637 H 0.29304 0.89319 0.65748 0.0
H638 H 0.2812 0.98434 0.68675 0.0
H639 H 0.24182 0.97268 0.67324 0.0
H640 H 0.24932 0.96838 0.70645 0.0
H641 H 0.31465 0.90768 0.61847 0.0
H642 H 0.29257 0.92591 0.60528 0.0
H643 H 0.33142 0.9379 0.61954 0.0
H644 H 0.25222 0.98652 0.58929 0.0
H645 H 0.34632 0.01453 0.62269 0.0
H646 H 0.22119 0.94806 0.63528 0.0
H647 H 0.23873 0.93223 0.61249 0.0
H648 H 0.21806 0.95215 0.60139 0.0
H649 H 0.33674 0.98268 0.67647 0.0
H650 H 0.36756 -0.00334 0.65463 0.0
H651 H 0.35302 0.96627 0.65347 0.0
C652 C 0.72334 0.76342 0.16847 0.0
C653 C 0.71672 0.76006 0.19463 0.0
C654 C 0.69969 0.76668 0.15162 0.0
C655 C 0.66878 0.76675 0.16121 0.0
C656 C 0.66145 0.76227 0.1873 0.0
C657 C 0.68547 0.75888 0.20368 0.0
C658 C 0.70827 0.77111 0.12381 0.0
C659 C 0.62879 0.76224 0.19825 0.0
C660 C 0.62487 0.80281 0.12608 0.0
C661 C 0.60267 0.78655 0.11093 0.0
C662 C 0.64603 0.79649 0.14291 0.0
C663 C 0.64514 0.77337 0.14447 0.0
C664 C 0.62234 0.75682 0.12958 0.0
C665 C 0.60124 0.76362 0.11304 0.0
C666 C 0.66971 0.81463 0.15872 0.0
C667 C 0.62085 0.73204 0.13061 0.0
H668 H 0.74733 0.76419 0.16127 0.0
H669 H 0.68008 0.75623 0.22386 0.0
H670 H 0.6897 0.75997 0.11092 0.0
H671 H 0.70877 0.78882 0.11991 0.0
H672 H 0.73221 0.76838 0.11884 0.0
H673 H 0.62597 0.75647 0.21827 0.0
H674 H 0.62551 0.77958 0.19821 0.0
H675 H 0.60924 0.75116 0.18615 0.0
H676 H 0.62575 0.82052 0.12465 0.0
H677 H 0.58431 0.75105 0.10114 0.0
H678 H 0.69478 0.81469 0.15332 0.0
H679 H 0.66694 0.81105 0.17944 0.0
H680 H 0.66643 0.83173 0.15599 0.0
H681 H 0.64392 0.72908 0.12361 0.0
H682 H 0.60075 0.72124 0.11873 0.0
H683 H 0.61778 0.72667 0.15075 0.0
C684 C 0.77434 0.19092 0.63748 0.0
C685 C 0.74622 0.19803 0.63392 0.0
C686 C 0.7801 0.17279 0.62257 0.0
C687 C 0.75688 0.16121 0.60404 0.0
C688 C 0.72838 0.16825 0.60045 0.0
C689 C 0.72354 0.18673 0.61527 0.0
C690 C 0.81106 0.16603 0.62661 0.0
C691 C 0.70279 0.15607 0.5812 0.0
C692 C 0.78161 0.12578 0.5499 0.0
C693 C 0.77159 0.10395 0.55928 0.0
C694 C 0.77737 0.14461 0.5644 0.0
C695 C 0.76218 0.14151 0.58866 0.0
C696 C 0.75187 0.11957 0.59821 0.0
C697 C 0.757 0.10111 0.58355 0.0
C698 C 0.78906 0.1678 0.55372 0.0
C699 C 0.73526 0.11556 0.62389 0.0
H700 H 0.79206 0.1997 0.65175 0.0
H701 H 0.70169 0.19209 0.61254 0.0
H702 H 0.80552 0.14841 0.63291 0.0
H703 H 0.82437 0.16657 0.60822 0.0
H704 H 0.8271 0.17722 0.64123 0.0
H705 H 0.68193 0.1636 0.58083 0.0
H706 H 0.71324 0.15649 0.56164 0.0
H707 H 0.69386 0.13805 0.58591 0.0
H708 H 0.79242 0.12818 0.53103 0.0
H709 H 0.74972 0.08443 0.59125 0.0
H710 H 0.80602 0.17924 0.56753 0.0
H711 H 0.76836 0.17516 0.55105 0.0
H712 H 0.80145 0.16744 0.53497 0.0
H713 H 0.75151 0.125 0.63945 0.0
H714 H 0.72803 0.09738 0.62829 0.0
H715 H 0.71336 0.12196 0.62409 0.0
C716 C 0.39456 0.33014 0.24613 0.0
C717 C 0.36471 0.33547 0.24579 0.0
C718 C 0.40929 0.32537 0.22316 0.0
C719 C 0.39389 0.3261 0.19933 0.0
C720 C 0.36381 0.33149 0.19886 0.0
C721 C 0.34955 0.33604 0.22207 0.0
C722 C 0.44132 0.31957 0.22437 0.0
C723 C 0.34672 0.33255 0.17381 0.0
C724 C 0.44258 0.33468 0.13781 0.0
C725 C 0.43453 0.31278 0.12641 0.0
C726 C 0.43007 0.33917 0.16183 0.0
C727 C 0.40914 0.32132 0.17477 0.0
C728 C 0.40152 0.29909 0.16363 0.0
C729 C 0.41424 0.2951 0.13953 0.0
C730 C 0.43856 0.36313 0.17302 0.0
C731 C 0.37947 0.2796 0.17696 0.0
H732 H 0.40641 0.32962 0.26435 0.0
H733 H 0.32654 0.3402 0.22158 0.0
H734 H 0.43919 0.30268 0.21493 0.0
H735 H 0.45981 0.33195 0.21371 0.0
H736 H 0.44997 0.31949 0.24444 0.0
H737 H 0.3235 0.33707 0.17678 0.0
H738 H 0.36242 0.34523 0.16155 0.0
H739 H 0.34177 0.31597 0.16307 0.0
H740 H 0.45801 0.34843 0.12762 0.0
H741 H 0.40834 0.2781 0.13093 0.0
H742 H 0.4487 0.36379 0.1927 0.0
H743 H 0.41642 0.36919 0.17466 0.0
H744 H 0.45634 0.37489 0.16109 0.0
H745 H 0.38862 0.27855 0.19665 0.0
H746 H 0.37725 0.26317 0.16632 0.0
H747 H 0.35504 0.28239 0.17892 0.0
C748 C 0.80432 0.68391 0.66469 0.0
C749 C 0.81824 0.70678 0.67138 0.0
C750 C 0.82333 0.66849 0.66233 0.0
C751 C 0.85715 0.6762 0.66629 0.0
C752 C 0.87144 0.69938 0.67234 0.0
C753 C 0.85178 0.71435 0.67505 0.0
C754 C 0.80711 0.64384 0.65627 0.0
C755 C 0.90747 0.70832 0.67625 0.0
C756 C 0.90237 0.63419 0.68655 0.0
C757 C 0.91511 0.62832 0.66312 0.0
C758 C 0.88335 0.64961 0.68778 0.0
C759 C 0.87738 0.65985 0.66514 0.0
C760 C 0.89057 0.65437 0.6415 0.0
C761 C 0.90903 0.63854 0.64073 0.0
C762 C 0.86948 0.65485 0.71334 0.0
C763 C 0.88508 0.66517 0.617 0.0
H764 H 0.77839 0.67793 0.66194 0.0
H765 H 0.86271 0.73204 0.68005 0.0
H766 H 0.81781 0.63784 0.63878 0.0
H767 H 0.81123 0.6336 0.67233 0.0
H768 H 0.78067 0.64066 0.65316 0.0
H769 H 0.915 0.72699 0.67939 0.0
H770 H 0.91524 0.7006 0.69313 0.0
H771 H 0.92041 0.70359 0.65927 0.0
H772 H 0.90744 0.62683 0.70408 0.0
H773 H 0.91831 0.63395 0.62246 0.0
H774 H 0.84278 0.65099 0.71186 0.0
H775 H 0.87854 0.67311 0.71865 0.0
H776 H 0.87579 0.64506 0.72905 0.0
H777 H 0.8589 0.66076 0.61238 0.0
H778 H 0.89799 0.65973 0.60038 0.0
H779 H 0.89334 0.68384 0.61959 0.0
C780 C 0.80156 0.33502 0.32048 0.0
C781 C 0.81356 0.31654 0.31298 0.0
C782 C 0.82242 0.35667 0.32477 0.0
C783 C 0.85608 0.35992 0.32158 0.0
C784 C 0.8685 0.34112 0.31559 0.0
C785 C 0.84709 0.31965 0.31133 0.0
C786 C 0.80824 0.37629 0.3312 0.0
C787 C 0.90428 0.34387 0.31223 0.0
C788 C 0.90401 0.41657 0.29842 0.0
C789 C 0.91919 0.42731 0.3211 0.0
C790 C 0.88342 0.39469 0.29841 0.0
C791 C 0.87784 0.38319 0.32168 0.0
C792 C 0.89294 0.39395 0.34471 0.0
C793 C 0.9134 0.41595 0.34416 0.0
C794 C 0.86758 0.38388 0.27346 0.0
C795 C 0.88765 0.38216 0.36983 0.0
H796 H 0.77572 0.33279 0.32197 0.0
H797 H 0.85663 0.30547 0.30575 0.0
H798 H 0.82117 0.38665 0.34782 0.0
H799 H 0.81125 0.38737 0.31459 0.0
H800 H 0.78212 0.37064 0.33578 0.0
H801 H 0.91033 0.32736 0.31056 0.0
H802 H 0.91251 0.35314 0.29457 0.0
H803 H 0.918 0.35399 0.32867 0.0
H804 H 0.90798 0.42542 0.28063 0.0
H805 H 0.92529 0.42414 0.3617 0.0
H806 H 0.84092 0.37939 0.27544 0.0
H807 H 0.87456 0.368 0.26882 0.0
H808 H 0.87439 0.39515 0.25708 0.0
H809 H 0.86153 0.37726 0.37444 0.0
H810 H 0.90095 0.39293 0.38607 0.0
H811 H 0.89565 0.36639 0.36811 0.0
C812 C 0.16087 0.38398 0.71325 0.0
C813 C 0.19469 0.39049 0.71176 0.0
C814 C 0.14251 0.3992 0.70821 0.0
C815 C 0.15835 0.42154 0.70175 0.0
C816 C 0.1925 0.42831 0.70056 0.0
C817 C 0.21025 0.41268 0.70547 0.0
C818 C 0.10613 0.39129 0.70953 0.0
C819 C 0.21028 0.45205 0.69397 0.0
C820 C 0.11078 0.4548 0.66549 0.0
C821 C 0.10197 0.46809 0.68539 0.0
C822 C 0.12913 0.43958 0.67053 0.0
C823 C 0.13915 0.43776 0.69607 0.0
C824 C 0.1306 0.45131 0.7162 0.0
C825 C 0.11201 0.46624 0.71063 0.0
C826 C 0.13751 0.42528 0.64858 0.0
C827 C 0.1411 0.45004 0.74363 0.0
H828 H 0.14863 0.36685 0.71801 0.0
H829 H 0.23637 0.41788 0.70433 0.0
H830 H 0.09698 0.402 0.72383 0.0
H831 H 0.09542 0.39306 0.69062 0.0
H832 H 0.09752 0.3734 0.71488 0.0
H833 H 0.23692 0.45479 0.6944 0.0
H834 H 0.20299 0.45562 0.67451 0.0
H835 H 0.20376 0.46443 0.70773 0.0
H836 H 0.1028 0.45602 0.64599 0.0
H837 H 0.1056 0.47669 0.72603 0.0
H838 H 0.12753 0.40711 0.65225 0.0
H839 H 0.16411 0.4284 0.64716 0.0
H840 H 0.12797 0.42877 0.62983 0.0
H841 H 0.13136 0.43264 0.75025 0.0
H842 H 0.13284 0.46195 0.757 0.0
H843 H 0.16782 0.45392 0.74477 0.0
C844 C 0.22374 0.74881 0.27543 0.0
C845 C 0.25451 0.74501 0.27309 0.0
C846 C 0.19594 0.7307 0.27668 0.0
C847 C 0.19901 0.70828 0.27559 0.0
C848 C 0.22987 0.70433 0.27234 0.0
C849 C 0.25722 0.72273 0.27111 0.0
C850 C 0.16341 0.73555 0.28 0.0
C851 C 0.23413 0.68066 0.27102 0.0
C852 C 0.13697 0.6617 0.30742 0.0
C853 C 0.11973 0.64968 0.28614 0.0
C854 C 0.16216 0.68123 0.30429 0.0
C855 C 0.17033 0.68893 0.27926 0.0
C856 C 0.1523 0.67735 0.25778 0.0
C857 C 0.12722 0.65783 0.26148 0.0
C858 C 0.18084 0.69311 0.32769 0.0
C859 C 0.16015 0.68515 0.23083 0.0
H860 H 0.2214 0.76597 0.27688 0.0
H861 H 0.28086 0.71961 0.26918 0.0
H862 H 0.14613 0.7258 0.26523 0.0
H863 H 0.15343 0.7301 0.29908 0.0
H864 H 0.16483 0.75379 0.27859 0.0
H865 H 0.25953 0.68042 0.26717 0.0
H866 H 0.22665 0.67251 0.28948 0.0
H867 H 0.21845 0.67028 0.25569 0.0
H868 H 0.13161 0.65535 0.32649 0.0
H869 H 0.1137 0.64876 0.245 0.0
H870 H 0.18161 0.71132 0.32833 0.0
H871 H 0.20615 0.69187 0.32655 0.0
H872 H 0.1702 0.68578 0.3459 0.0
H873 H 0.16081 0.70328 0.22987 0.0
H874 H 0.14236 0.67527 0.21643 0.0
H875 H 0.18447 0.68344 0.22547 0.0
C876 C 0.75666 0.83807 0.64546 0.0
C877 C 0.76293 0.81732 0.63837 0.0
C878 C 0.76166 0.85556 0.62827 0.0
C879 C 0.77305 0.85225 0.60323 0.0
C880 C 0.77965 0.83143 0.59591 0.0
C881 C 0.77462 0.8142 0.61362 0.0
C882 C 0.75453 0.87757 0.63689 0.0
C883 C 0.79167 0.82729 0.56931 0.0
C884 C 0.75411 0.89138 0.55476 0.0
C885 C 0.78309 0.9085 0.55458 0.0
C886 C 0.75099 0.87241 0.56961 0.0
C887 C 0.77743 0.87062 0.58478 0.0
C888 C 0.8071 0.88748 0.58401 0.0
C889 C 0.8096 0.90621 0.56886 0.0
C890 C 0.71904 0.85469 0.56975 0.0
C891 C 0.83575 0.88625 0.60007 0.0
H892 H 0.7478 0.84073 0.66456 0.0
H893 H 0.77948 0.79822 0.60798 0.0
H894 H 0.77637 0.8918 0.63482 0.0
H895 H 0.73535 0.88077 0.62453 0.0
H896 H 0.74651 0.8776 0.65722 0.0
H897 H 0.79619 0.81033 0.56675 0.0
H898 H 0.77369 0.82879 0.5547 0.0
H899 H 0.81439 0.8403 0.56546 0.0
H900 H 0.73374 0.89292 0.54341 0.0
H901 H 0.83198 0.91949 0.56891 0.0
H902 H 0.70792 0.85479 0.58903 0.0
H903 H 0.72272 0.83763 0.56591 0.0
H904 H 0.70182 0.85758 0.55523 0.0
H905 H 0.83018 0.88809 0.62076 0.0
H906 H 0.85784 0.89966 0.59563 0.0
H907 H 0.84087 0.86954 0.59691 0.0
C908 C 0.64436 0.25161 0.21504 0.0
C909 C 0.6754 0.24869 0.21102 0.0
C910 C 0.62441 0.25307 0.19423 0.0
C911 C 0.63569 0.25143 0.1688 0.0
C912 C 0.66627 0.24726 0.1646 0.0
C913 C 0.68578 0.24598 0.18576 0.0
C914 C 0.59194 0.2575 0.19951 0.0
C915 C 0.67902 0.24521 0.13775 0.0
C916 C 0.57599 0.2431 0.11309 0.0
C917 C 0.58137 0.26523 0.10484 0.0
C918 C 0.59352 0.23828 0.13386 0.0
C919 C 0.61679 0.25603 0.14674 0.0
C920 C 0.62216 0.27841 0.13856 0.0
C921 C 0.60444 0.28271 0.1177 0.0
C922 C 0.58729 0.21421 0.14194 0.0
C923 C 0.64658 0.29785 0.15192 0.0
H924 H 0.63606 0.25364 0.23448 0.0
H925 H 0.70963 0.24356 0.18245 0.0
H926 H 0.59226 0.27467 0.19346 0.0
H927 H 0.57275 0.2453 0.18815 0.0
H928 H 0.58551 0.25635 0.2202 0.0
H929 H 0.70177 0.23979 0.13769 0.0
H930 H 0.66081 0.2329 0.12565 0.0
H931 H 0.68375 0.26177 0.12868 0.0
H932 H 0.55838 0.2295 0.10304 0.0
H933 H 0.60833 0.29989 0.11165 0.0
H934 H 0.57975 0.21309 0.16237 0.0
H935 H 0.60985 0.20864 0.14044 0.0
H936 H 0.56828 0.20235 0.13 0.0
H937 H 0.64041 0.29916 0.17255 0.0
H938 H 0.64775 0.31425 0.14325 0.0
H939 H 0.67093 0.29479 0.15095 0.0
C940 C 0.29836 0.29775 0.64677 0.0
C941 C 0.29193 0.2953 0.6731 0.0
C942 C 0.29908 0.279 0.63051 0.0
C943 C 0.29315 0.25734 0.64083 0.0
C944 C 0.28566 0.25468 0.66721 0.0
C945 C 0.28516 0.27368 0.683 0.0
C946 C 0.30713 0.28247 0.60245 0.0
C947 C 0.27906 0.23185 0.67893 0.0
C948 C 0.27252 0.20421 0.59712 0.0
C949 C 0.30227 0.19875 0.59583 0.0
C950 C 0.26928 0.22348 0.6113 0.0
C951 C 0.29643 0.2376 0.62449 0.0
C952 C 0.3266 0.23232 0.62299 0.0
C953 C 0.32914 0.21296 0.60872 0.0
C954 C 0.23674 0.22859 0.61243 0.0
C955 C 0.3561 0.24691 0.63687 0.0
H956 H 0.30357 0.31439 0.63896 0.0
H957 H 0.27998 0.27158 0.70329 0.0
H958 H 0.33041 0.27844 0.59818 0.0
H959 H 0.28838 0.27082 0.59015 0.0
H960 H 0.30911 0.30009 0.59708 0.0
H961 H 0.27196 0.23246 0.69945 0.0
H962 H 0.25952 0.21946 0.66811 0.0
H963 H 0.30098 0.2255 0.67762 0.0
H964 H 0.25178 0.19347 0.58691 0.0
H965 H 0.35209 0.20869 0.6081 0.0
H966 H 0.23881 0.24586 0.60587 0.0
H967 H 0.22816 0.22815 0.63259 0.0
H968 H 0.2183 0.21636 0.60038 0.0
H969 H 0.36074 0.26464 0.63106 0.0
H970 H 0.37805 0.24098 0.63291 0.0
H971 H 0.35187 0.24691 0.65792 0.0
C972 C 0.4336 0.83691 0.2601 0.0
C973 C 0.4029 0.83817 0.26817 0.0
C974 C 0.44046 0.83444 0.23392 0.0
C975 C 0.41614 0.83353 0.21531 0.0
C976 C 0.38514 0.83501 0.22331 0.0
C977 C 0.37888 0.8373 0.24969 0.0
C978 C 0.47376 0.83276 0.22619 0.0
C979 C 0.35875 0.83442 0.20401 0.0
C980 C 0.4471 0.84855 0.14819 0.0
C981 C 0.44323 0.82714 0.13608 0.0
C982 C 0.43725 0.85089 0.17368 0.0
C983 C 0.42351 0.83134 0.18748 0.0
C984 C 0.41873 0.80968 0.17513 0.0
C985 C 0.42853 0.80785 0.14951 0.0
C986 C 0.4424 0.87428 0.18607 0.0
C987 C 0.4044 0.78844 0.18926 0.0
H988 H 0.45224 0.83756 0.27433 0.0
H989 H 0.35542 0.83895 0.2558 0.0
H990 H 0.47195 0.81678 0.21478 0.0
H991 H 0.48526 0.84686 0.21379 0.0
H992 H 0.48975 0.83331 0.24307 0.0
H993 H 0.33581 0.83538 0.21339 0.0
H994 H 0.36654 0.84877 0.19115 0.0
H995 H 0.35409 0.81866 0.19172 0.0
H996 H 0.45809 0.8635 0.13773 0.0
H997 H 0.42576 0.79127 0.14028 0.0
H998 H 0.46038 0.87673 0.2019 0.0
H999 H 0.41956 0.87632 0.19464 0.0
H1000 H 0.45115 0.88773 0.17216 0.0
H1001 H 0.42077 0.78713 0.20523 0.0
H1002 H 0.4005 0.77297 0.17648 0.0
H1003 H 0.38097 0.78907 0.19793 0.0
C1004 C 0.80678 0.18533 0.33114 0.0
C1005 C 0.77666 0.18937 0.32656 0.0
C1006 C 0.80969 0.16825 0.34732 0.0
C1007 C 0.7817 0.15454 0.35864 0.0
C1008 C 0.75117 0.1584 0.35385 0.0
C1009 C 0.74907 0.17597 0.33811 0.0
C1010 C 0.84275 0.16499 0.35243 0.0
C1011 C 0.72069 0.14381 0.36511 0.0
C1012 C 0.78578 0.09711 0.38051 0.0
C1013 C 0.78869 0.10098 0.40722 0.0
C1014 C 0.78319 0.11435 0.36447 0.0
C1015 C 0.78433 0.13608 0.37541 0.0
C1016 C 0.78782 0.14014 0.40239 0.0
C1017 C 0.78956 0.12243 0.41802 0.0
C1018 C 0.77877 0.10923 0.33586 0.0
C1019 C 0.78987 0.1632 0.41473 0.0
H1020 H 0.8282 0.19577 0.3224 0.0
H1021 H 0.72572 0.17895 0.33448 0.0
H1022 H 0.84776 0.16649 0.37343 0.0
H1023 H 0.84361 0.14779 0.34564 0.0
H1024 H 0.8622 0.17752 0.34277 0.0
H1025 H 0.69876 0.1487 0.35905 0.0
H1026 H 0.71793 0.12584 0.35908 0.0
H1027 H 0.72221 0.14505 0.38642 0.0
H1028 H 0.78481 0.08042 0.37225 0.0
H1029 H 0.79199 0.12538 0.4387 0.0
H1030 H 0.79892 0.12032 0.32534 0.0
H1031 H 0.7561 0.11278 0.32933 0.0
H1032 H 0.7778 0.09135 0.33048 0.0
H1033 H 0.81006 0.17598 0.40623 0.0
H1034 H 0.79365 0.16372 0.43588 0.0
H1035 H 0.76735 0.16817 0.41086 0.0
C1036 C 0.34596 0.37064 0.80366 0.0
C1037 C 0.3177 0.3546 0.79535 0.0
C1038 C 0.36259 0.36753 0.82582 0.0
C1039 C 0.35107 0.34766 0.83961 0.0
C1040 C 0.32177 0.33192 0.83197 0.0
C1041 C 0.30526 0.33571 0.8101 0.0
C1042 C 0.39327 0.385 0.83377 0.0
C1043 C 0.3089 0.31036 0.84592 0.0
C1044 C 0.41259 0.32485 0.87438 0.0
C1045 C 0.40683 0.32999 0.90015 0.0
C1046 C 0.3947 0.33064 0.85452 0.0
C1047 C 0.37097 0.3423 0.86058 0.0
C1048 C 0.36566 0.34805 0.88659 0.0
C1049 C 0.38342 0.34157 0.90612 0.0
C1050 C 0.40069 0.32382 0.82708 0.0
C1051 C 0.34114 0.36092 0.89375 0.0
H1052 H 0.35559 0.38536 0.79245 0.0
H1053 H 0.28353 0.32317 0.80374 0.0
H1054 H 0.39308 0.38931 0.85469 0.0
H1055 H 0.41432 0.37804 0.83005 0.0
H1056 H 0.39672 0.40073 0.8231 0.0
H1057 H 0.28472 0.30063 0.83866 0.0
H1058 H 0.32584 0.29954 0.84348 0.0
H1059 H 0.30718 0.31412 0.86684 0.0
H1060 H 0.43053 0.31574 0.86983 0.0
H1061 H 0.37919 0.34568 0.92609 0.0
H1062 H 0.40774 0.33897 0.81534 0.0
H1063 H 0.37815 0.31265 0.81854 0.0
H1064 H 0.41998 0.3148 0.82564 0.0
H1065 H 0.34607 0.37677 0.8832 0.0
H1066 H 0.34125 0.36522 0.91472 0.0
H1067 H 0.31659 0.35073 0.88804 0.0
C1068 C 0.41121 0.92524 0.40475 0.0
C1069 C 0.38719 0.90915 0.3909 0.0
C1070 C 0.40428 0.94398 0.4176 0.0
C1071 C 0.37262 0.94678 0.41643 0.0
C1072 C 0.34839 0.93081 0.40211 0.0
C1073 C 0.35594 0.91214 0.38959 0.0
C1074 C 0.43073 0.96061 0.43277 0.0
C1075 C 0.31441 0.93333 0.40026 0.0
C1076 C 0.34669 0.98262 0.46949 0.0
C1077 C 0.35086 0.00331 0.45777 0.0
C1078 C 0.35359 0.96406 0.45623 0.0
C1079 C 0.36473 0.96621 0.43057 0.0
C1080 C 0.36869 0.98699 0.41854 0.0
C1081 C 0.3618 0.00532 0.43233 0.0
C1082 C 0.3493 0.94222 0.46976 0.0
C1083 C 0.38025 0.98988 0.39114 0.0
H1084 H 0.43541 0.92304 0.40591 0.0
H1085 H 0.33725 0.89982 0.37887 0.0
H1086 H 0.43401 0.97784 0.42569 0.0
H1087 H 0.42383 0.96118 0.45331 0.0
H1088 H 0.45419 0.95618 0.43146 0.0
H1089 H 0.29862 0.91982 0.38771 0.0
H1090 H 0.30359 0.93283 0.4197 0.0
H1091 H 0.31477 0.94995 0.39255 0.0
H1092 H 0.33858 0.98107 0.48926 0.0
H1093 H 0.36468 0.02121 0.4231 0.0
H1094 H 0.3727 0.93776 0.47061 0.0
H1095 H 0.33213 0.92826 0.45882 0.0
H1096 H 0.34017 0.94326 0.48967 0.0
H1097 H 0.40455 0.98683 0.38941 0.0
H1098 H 0.38157 0.00704 0.38447 0.0
H1099 H 0.36377 0.97724 0.37812 0.0
C1100 C 0.65962 0.77198 0.78887 0.0
C1101 C 0.67832 0.7922 0.77915 0.0
C1102 C 0.64059 0.77217 0.8109 0.0
C1103 C 0.64045 0.79305 0.82352 0.0
C1104 C 0.65938 0.81347 0.81385 0.0
C1105 C 0.678 0.8128 0.79178 0.0
C1106 C 0.62059 0.75007 0.82063 0.0
C1107 C 0.66006 0.83608 0.82687 0.0
C1108 C 0.57227 0.79893 0.86786 0.0
C1109 C 0.58644 0.79927 0.89217 0.0
C1110 C 0.58917 0.79614 0.84531 0.0
C1111 C 0.621 0.79371 0.84713 0.0
C1112 C 0.63504 0.79338 0.8716 0.0
C1113 C 0.61757 0.79609 0.8938 0.0
C1114 C 0.57337 0.79652 0.81953 0.0
C1115 C 0.66891 0.79081 0.87436 0.0
H1116 H 0.65965 0.756 0.77917 0.0
H1117 H 0.6924 0.82851 0.78444 0.0
H1118 H 0.62793 0.74804 0.84061 0.0
H1119 H 0.59473 0.75004 0.82113 0.0
H1120 H 0.62311 0.7353 0.80848 0.0
H1121 H 0.67598 0.85041 0.81685 0.0
H1122 H 0.63532 0.83845 0.82758 0.0
H1123 H 0.66869 0.83665 0.84702 0.0
H1124 H 0.54832 0.80152 0.86644 0.0
H1125 H 0.6284 0.79586 0.91253 0.0
H1126 H 0.57457 0.7815 0.80731 0.0
H1127 H 0.58657 0.81169 0.80937 0.0
H1128 H 0.54768 0.79683 0.8214 0.0
H1129 H 0.67129 0.77543 0.8634 0.0
H1130 H 0.67567 0.7897 0.89475 0.0
H1131 H 0.6864 0.80547 0.86616 0.0
loop_
_geom_bond_atom_site_label_1
_geom_bond_atom_site_label_2
_geom_bond_distance
_geom_bond_site_symmetry_2
_ccdc_geom_bond_type
O0 Cd1 2.300 . S
O0 C7 1.275 . S
Cd1 O0 2.300 . S
Cd1 O9 2.381 . S
Cd1 O10 2.378 . S
O2 Cd3 2.385 . S
O2 C7 1.255 . S
Cd3 O2 2.385 . S
Cd3 O4 2.317 . S
O4 Cd3 2.317 . S
O4 C5 1.232 . S
C5 O4 1.232 . S
C5 O6 1.218 . S
O6 C5 1.218 . S
C7 O0 1.275 . S
C7 O2 1.255 . S
C8 O9 1.258 . S
C8 O10 1.256 . S
O9 Cd1 2.381 . S
O9 C8 1.258 . S
O10 Cd1 2.378 . S
O10 C8 1.256 . S
O11 Cd12 2.300 . S
O11 C18 1.275 . S
Cd12 O11 2.300 . S
Cd12 O20 2.381 . S
Cd12 O21 2.378 . S
O13 Cd14 2.385 . S
O13 C18 1.255 . S
Cd14 O13 2.385 . S
Cd14 O15 2.317 . S
O15 Cd14 2.317 . S
O15 C16 1.232 . S
C16 O15 1.232 . S
C16 O17 1.218 . S
O17 C16 1.218 . S
C18 O11 1.275 . S
C18 O13 1.255 . S
C19 O20 1.258 . S
C19 O21 1.256 . S
O20 Cd12 2.381 . S
O20 C19 1.258 . S
O21 Cd12 2.378 . S
O21 C19 1.256 . S
O22 Cd23 2.300 . S
O22 C29 1.275 . S
Cd23 O22 2.300 . S
Cd23 O31 2.381 . S
Cd23 O32 2.378 . S
O24 Cd25 2.385 . S
O24 C29 1.255 . S
Cd25 O24 2.385 . S
Cd25 O26 2.317 . S
O26 Cd25 2.317 . S
O26 C27 1.232 . S
C27 O26 1.232 . S
C27 O28 1.218 . S
O28 C27 1.218 . S
C29 O22 1.275 . S
C29 O24 1.255 . S
C30 O31 1.258 . S
C30 O32 1.256 . S
O31 Cd23 2.381 . S
O31 C30 1.258 . S
O32 Cd23 2.378 . S
O32 C30 1.256 . S
O33 Cd34 2.300 . S
O33 C40 1.275 . S
Cd34 O33 2.300 . S
Cd34 O42 2.381 . S
Cd34 O43 2.378 . S
O35 Cd36 2.385 . S
O35 C40 1.255 . S
Cd36 O35 2.385 . S
Cd36 O37 2.317 . S
O37 Cd36 2.317 . S
O37 C38 1.232 . S
C38 O37 1.232 . S
C38 O39 1.218 . S
O39 C38 1.218 . S
C40 O33 1.275 . S
C40 O35 1.255 . S
C41 O42 1.258 . S
C41 O43 1.256 . S
O42 Cd34 2.381 . S
O42 C41 1.258 . S
O43 Cd34 2.378 . S
O43 C41 1.256 . S
O44 Cd45 2.300 . S
O44 C51 1.275 . S
Cd45 O44 2.300 . S
Cd45 O53 2.381 . S
Cd45 O54 2.378 . S
O46 Cd47 2.385 . S
O46 C51 1.255 . S
Cd47 O46 2.385 . S
Cd47 O48 2.317 . S
O48 Cd47 2.317 . S
O48 C49 1.232 . S
C49 O48 1.232 . S
C49 O50 1.218 . S
O50 C49 1.218 . S
C51 O44 1.275 . S
C51 O46 1.255 . S
C52 O53 1.258 . S
C52 O54 1.256 . S
O53 Cd45 2.381 . S
O53 C52 1.258 . S
O54 Cd45 2.378 . S
O54 C52 1.256 . S
O55 Cd56 2.300 . S
O55 C62 1.275 . S
Cd56 O55 2.300 . S
Cd56 O64 2.381 . S
Cd56 O65 2.378 . S
O57 Cd58 2.385 . S
O57 C62 1.255 . S
Cd58 O57 2.385 . S
Cd58 O59 2.317 . S
O59 Cd58 2.317 . S
O59 C60 1.232 . S
C60 O59 1.232 . S
C60 O61 1.218 . S
O61 C60 1.218 . S
C62 O55 1.275 . S
C62 O57 1.255 . S
C63 O64 1.258 . S
C63 O65 1.256 . S
O64 Cd56 2.381 . S
O64 C63 1.258 . S
O65 Cd56 2.378 . S
O65 C63 1.256 . S
O66 Cd67 2.300 . S
O66 C73 1.275 . S
Cd67 O66 2.300 . S
Cd67 O75 2.381 . S
Cd67 O76 2.378 . S
O68 Cd69 2.385 . S
O68 C73 1.255 . S
Cd69 O68 2.385 . S
Cd69 O70 2.317 . S
O70 Cd69 2.317 . S
O70 C71 1.232 . S
C71 O70 1.232 . S
C71 O72 1.218 . S
O72 C71 1.218 . S
C73 O66 1.275 . S
C73 O68 1.255 . S
C74 O75 1.258 . S
C74 O76 1.256 . S
O75 Cd67 2.381 . S
O75 C74 1.258 . S
O76 Cd67 2.378 . S
O76 C74 1.256 . S
O77 Cd78 2.300 . S
O77 C84 1.275 . S
Cd78 O77 2.300 . S
Cd78 O86 2.381 . S
Cd78 O87 2.378 . S
O79 Cd80 2.385 . S
O79 C84 1.255 . S
Cd80 O79 2.385 . S
Cd80 O81 2.317 . S
O81 Cd80 2.317 . S
O81 C82 1.232 . S
C82 O81 1.232 . S
C82 O83 1.218 . S
O83 C82 1.218 . S
C84 O77 1.275 . S
C84 O79 1.255 . S
C85 O86 1.258 . S
C85 O87 1.256 . S
O86 Cd78 2.381 . S
O86 C85 1.258 . S
O87 Cd78 2.378 . S
O87 C85 1.256 . S
C88 C89 1.384 . S
C88 C90 1.384 1_655 S
C88 H116 0.931 . S
C89 C88 1.384 . S
C89 C92 1.382 . S
C90 C88 1.384 1_455 S
C90 C91 1.381 . S
C90 H117 0.930 . S
C91 C90 1.381 . S
C91 C93 1.381 1_455 S
C91 C94 1.487 . S
C92 C89 1.382 . S
C92 C93 1.387 . S
C92 H118 0.930 . S
C93 C91 1.381 1_655 S
C93 C92 1.387 . S
C93 H119 0.931 . S
C94 C91 1.487 . S
C94 C101 1.399 . S
C94 N132 1.343 . S
C95 C96 1.384 . S
C95 C97 1.384 . S
C95 H120 0.931 . S
C96 C95 1.384 . S
C96 C99 1.382 . S
C97 C95 1.384 . S
C97 C98 1.381 . S
C97 H121 0.930 . S
C98 C97 1.381 . S
C98 C100 1.381 . S
C98 C101 1.487 . S
C99 C96 1.382 . S
C99 C100 1.387 . S
C99 H122 0.930 . S
C100 C98 1.381 . S
C100 C99 1.387 . S
C100 H123 0.931 . S
C101 C94 1.399 . S
C101 C98 1.487 . S
C101 N133 1.343 . S
C102 C103 1.384 . S
C102 C104 1.384 . S
C102 H124 0.931 . S
C103 C102 1.384 . S
C103 C106 1.382 . S
C104 C102 1.384 . S
C104 C105 1.381 . S
C104 H125 0.930 . S
C105 C104 1.381 . S
C105 C107 1.381 . S
C105 C108 1.487 . S
C106 C103 1.382 . S
C106 C107 1.387 . S
C106 H126 0.930 . S
C107 C105 1.381 . S
C107 C106 1.387 . S
C107 H127 0.931 . S
C108 C105 1.487 . S
C108 C115 1.399 . S
C108 N133 1.343 . S
C109 C110 1.384 . S
C109 C111 1.384 1_655 S
C109 H128 0.931 . S
C110 C109 1.384 . S
C110 C113 1.382 . S
C111 C109 1.384 1_455 S
C111 C112 1.381 . S
C111 H129 0.930 . S
C112 C111 1.381 . S
C112 C114 1.381 1_455 S
C112 C115 1.487 . S
C113 C110 1.382 . S
C113 C114 1.387 . S
C113 H130 0.930 . S
C114 C112 1.381 1_655 S
C114 C113 1.387 . S
C114 H131 0.931 . S
C115 C108 1.399 . S
C115 C112 1.487 . S
C115 N132 1.343 . S
H116 C88 0.931 . S
H117 C90 0.930 . S
H118 C92 0.930 . S
H119 C93 0.931 . S
H120 C95 0.931 . S
H121 C97 0.930 . S
H122 C99 0.930 . S
H123 C100 0.931 . S
H124 C102 0.931 . S
H125 C104 0.930 . S
H126 C106 0.930 . S
H127 C107 0.931 . S
H128 C109 0.931 . S
H129 C111 0.930 . S
H130 C113 0.930 . S
H131 C114 0.931 . S
N132 C94 1.343 . S
N132 C115 1.343 . S
N133 C101 1.343 . S
N133 C108 1.343 . S
C134 C135 1.384 . S
C134 C136 1.384 . S
C134 H162 0.931 . S
C135 C134 1.384 . S
C135 C138 1.382 . S
C136 C134 1.384 . S
C136 C137 1.381 . S
C136 H163 0.930 . S
C137 C136 1.381 . S
C137 C139 1.381 . S
C137 C140 1.487 . S
C138 C135 1.382 . S
C138 C139 1.387 . S
C138 H164 0.930 . S
C139 C137 1.381 . S
C139 C138 1.387 . S
C139 H165 0.931 . S
C140 C137 1.487 . S
C140 C147 1.399 1_655 S
C140 N178 1.343 . S
C141 C142 1.384 . S
C141 C143 1.384 . S
C141 H166 0.931 . S
C142 C141 1.384 . S
C142 C145 1.382 . S
C143 C141 1.384 . S
C143 C144 1.381 . S
C143 H167 0.930 . S
C144 C143 1.381 . S
C144 C146 1.381 . S
C144 C147 1.487 . S
C145 C142 1.382 . S
C145 C146 1.387 . S
C145 H168 0.930 . S
C146 C144 1.381 . S
C146 C145 1.387 . S
C146 H169 0.931 . S
C147 C140 1.399 1_455 S
C147 C144 1.487 . S
C147 N179 1.343 . S
C148 C149 1.384 . S
C148 C150 1.384 . S
C148 H170 0.931 . S
C149 C148 1.384 . S
C149 C152 1.382 . S
C150 C148 1.384 . S
C150 C151 1.381 . S
C150 H171 0.930 . S
C151 C150 1.381 . S
C151 C153 1.381 . S
C151 C154 1.487 . S
C152 C149 1.382 . S
C152 C153 1.387 . S
C152 H172 0.930 . S
C153 C151 1.381 . S
C153 C152 1.387 . S
C153 H173 0.931 . S
C154 C151 1.487 . S
C154 C161 1.399 1_455 S
C154 N179 1.343 . S
C155 C156 1.384 . S
C155 C157 1.384 . S
C155 H174 0.931 . S
C156 C155 1.384 . S
C156 C159 1.382 . S
C157 C155 1.384 . S
C157 C158 1.381 . S
C157 H175 0.930 . S
C158 C157 1.381 . S
C158 C160 1.381 . S
C158 C161 1.487 . S
C159 C156 1.382 . S
C159 C160 1.387 . S
C159 H176 0.930 . S
C160 C158 1.381 . S
C160 C159 1.387 . S
C160 H177 0.931 . S
C161 C154 1.399 1_655 S
C161 C158 1.487 . S
C161 N178 1.343 . S
H162 C134 0.931 . S
H163 C136 0.930 . S
H164 C138 0.930 . S
H165 C139 0.931 . S
H166 C141 0.931 . S
H167 C143 0.930 . S
H168 C145 0.930 . S
H169 C146 0.931 . S
H170 C148 0.931 . S
H171 C150 0.930 . S
H172 C152 0.930 . S
H173 C153 0.931 . S
H174 C155 0.931 . S
H175 C157 0.930 . S
H176 C159 0.930 . S
H177 C160 0.931 . S
N178 C140 1.343 . S
N178 C161 1.343 . S
N179 C147 1.343 . S
N179 C154 1.343 . S
C180 C181 1.384 . S
C180 C182 1.384 . S
C180 H208 0.931 . S
C181 C180 1.384 . S
C181 C184 1.382 . S
C182 C180 1.384 . S
C182 C183 1.381 . S
C182 H209 0.930 . S
C183 C182 1.381 . S
C183 C185 1.381 . S
C183 C186 1.487 . S
C184 C181 1.382 . S
C184 C185 1.387 . S
C184 H210 0.930 . S
C185 C183 1.381 . S
C185 C184 1.387 . S
C185 H211 0.931 . S
C186 C183 1.487 . S
C186 C193 1.399 . S
C186 N224 1.343 . S
C187 C188 1.384 . S
C187 C189 1.384 . S
C187 H212 0.931 . S
C188 C187 1.384 . S
C188 C191 1.382 . S
C189 C187 1.384 . S
C189 C190 1.381 . S
C189 H213 0.930 . S
C190 C189 1.381 . S
C190 C192 1.381 . S
C190 C193 1.487 . S
C191 C188 1.382 . S
C191 C192 1.387 . S
C191 H214 0.930 . S
C192 C190 1.381 . S
C192 C191 1.387 . S
C192 H215 0.931 . S
C193 C186 1.399 . S
C193 C190 1.487 . S
C193 N225 1.343 . S
C194 C195 1.384 . S
C194 C196 1.384 . S
C194 H216 0.931 . S
C195 C194 1.384 . S
C195 C198 1.382 . S
C196 C194 1.384 . S
C196 C197 1.381 . S
C196 H217 0.930 . S
C197 C196 1.381 . S
C197 C199 1.381 . S
C197 C200 1.487 . S
C198 C195 1.382 . S
C198 C199 1.387 . S
C198 H218 0.930 . S
C199 C197 1.381 . S
C199 C198 1.387 . S
C199 H219 0.931 . S
C200 C197 1.487 . S
C200 C207 1.399 . S
C200 N225 1.343 . S
C201 C202 1.384 . S
C201 C203 1.384 . S
C201 H220 0.931 . S
C202 C201 1.384 . S
C202 C205 1.382 . S
C203 C201 1.384 . S
C203 C204 1.381 . S
C203 H221 0.930 . S
C204 C203 1.381 . S
C204 C206 1.381 . S
C204 C207 1.487 . S
C205 C202 1.382 . S
C205 C206 1.387 . S
C205 H222 0.930 . S
C206 C204 1.381 . S
C206 C205 1.387 . S
C206 H223 0.931 . S
C207 C200 1.399 . S
C207 C204 1.487 . S
C207 N224 1.343 . S
H208 C180 0.931 . S
H209 C182 0.930 . S
H210 C184 0.930 . S
H211 C185 0.931 . S
H212 C187 0.931 . S
H213 C189 0.930 . S
H214 C191 0.930 . S
H215 C192 0.931 . S
H216 C194 0.931 . S
H217 C196 0.930 . S
H218 C198 0.930 . S
H219 C199 0.931 . S
H220 C201 0.931 . S
H221 C203 0.930 . S
H222 C205 0.930 . S
H223 C206 0.931 . S
N224 C186 1.343 . S
N224 C207 1.343 . S
N225 C193 1.343 . S
N225 C200 1.343 . S
C226 C227 1.384 . S
C226 C228 1.384 . S
C226 H254 0.931 . S
C227 C226 1.384 . S
C227 C230 1.382 . S
C228 C226 1.384 . S
C228 C229 1.381 . S
C228 H255 0.930 . S
C229 C228 1.381 . S
C229 C231 1.381 . S
C229 C232 1.487 . S
C230 C227 1.382 . S
C230 C231 1.387 . S
C230 H256 0.930 . S
C231 C229 1.381 . S
C231 C230 1.387 . S
C231 H257 0.931 . S
C232 C229 1.487 . S
C232 C239 1.399 . S
C232 N270 1.343 1_556 S
C233 C234 1.384 . S
C233 C235 1.384 . S
C233 H258 0.931 . S
C234 C233 1.384 . S
C234 C237 1.382 . S
C235 C233 1.384 . S
C235 C236 1.381 . S
C235 H259 0.930 . S
C236 C235 1.381 . S
C236 C238 1.381 . S
C236 C239 1.487 . S
C237 C234 1.382 . S
C237 C238 1.387 . S
C237 H260 0.930 . S
C238 C236 1.381 . S
C238 C237 1.387 . S
C238 H261 0.931 . S
C239 C232 1.399 . S
C239 C236 1.487 . S
C239 N271 1.343 1_556 S
C240 C241 1.384 . S
C240 C242 1.384 . S
C240 H262 0.931 . S
C241 C240 1.384 . S
C241 C244 1.382 . S
C242 C240 1.384 . S
C242 C243 1.381 . S
C242 H263 0.930 . S
C243 C242 1.381 . S
C243 C245 1.381 . S
C243 C246 1.487 . S
C244 C241 1.382 . S
C244 C245 1.387 . S
C244 H264 0.930 . S
C245 C243 1.381 . S
C245 C244 1.387 . S
C245 H265 0.931 . S
C246 C243 1.487 . S
C246 C253 1.399 . S
C246 N271 1.343 . S
C247 C248 1.384 . S
C247 C249 1.384 . S
C247 H266 0.931 . S
C248 C247 1.384 . S
C248 C251 1.382 . S
C249 C247 1.384 . S
C249 C250 1.381 . S
C249 H267 0.930 . S
C250 C249 1.381 . S
C250 C252 1.381 . S
C250 C253 1.487 . S
C251 C248 1.382 . S
C251 C252 1.387 . S
C251 H268 0.930 . S
C252 C250 1.381 . S
C252 C251 1.387 . S
C252 H269 0.931 . S
C253 C246 1.399 . S
C253 C250 1.487 . S
C253 N270 1.343 . S
H254 C226 0.931 . S
H255 C228 0.930 . S
H256 C230 0.930 . S
H257 C231 0.931 . S
H258 C233 0.931 . S
H259 C235 0.930 . S
H260 C237 0.930 . S
H261 C238 0.931 . S
H262 C240 0.931 . S
H263 C242 0.930 . S
H264 C244 0.930 . S
H265 C245 0.931 . S
H266 C247 0.931 . S
H267 C249 0.930 . S
H268 C251 0.930 . S
H269 C252 0.931 . S
N270 C232 1.343 1_554 S
N270 C253 1.343 . S
N271 C239 1.343 1_554 S
N271 C246 1.343 . S
C272 C273 1.384 . S
C272 C274 1.384 . S
C272 H300 0.931 . S
C273 C272 1.384 . S
C273 C276 1.382 . S
C274 C272 1.384 . S
C274 C275 1.381 . S
C274 H301 0.930 . S
C275 C274 1.381 . S
C275 C277 1.381 . S
C275 C278 1.487 . S
C276 C273 1.382 . S
C276 C277 1.387 . S
C276 H302 0.930 . S
C277 C275 1.381 . S
C277 C276 1.387 . S
C277 H303 0.931 . S
C278 C275 1.487 . S
C278 C285 1.399 . S
C278 N316 1.343 . S
C279 C280 1.384 . S
C279 C281 1.384 . S
C279 H304 0.931 . S
C280 C279 1.384 . S
C280 C283 1.382 . S
C281 C279 1.384 . S
C281 C282 1.381 . S
C281 H305 0.930 . S
C282 C281 1.381 . S
C282 C284 1.381 . S
C282 C285 1.487 . S
C283 C280 1.382 . S
C283 C284 1.387 . S
C283 H306 0.930 . S
C284 C282 1.381 . S
C284 C283 1.387 . S
C284 H307 0.931 . S
C285 C278 1.399 . S
C285 C282 1.487 . S
C285 N317 1.343 . S
C286 C287 1.384 . S
C286 C288 1.384 . S
C286 H308 0.931 . S
C287 C286 1.384 . S
C287 C290 1.382 . S
C288 C286 1.384 . S
C288 C289 1.381 . S
C288 H309 0.930 . S
C289 C288 1.381 . S
C289 C291 1.381 . S
C289 C292 1.487 . S
C290 C287 1.382 . S
C290 C291 1.387 . S
C290 H310 0.930 . S
C291 C289 1.381 . S
C291 C290 1.387 . S
C291 H311 0.931 . S
C292 C289 1.487 . S
C292 C299 1.399 . S
C292 N317 1.343 1_565 S
C293 C294 1.384 . S
C293 C295 1.384 . S
C293 H312 0.931 . S
C294 C293 1.384 . S
C294 C297 1.382 . S
C295 C293 1.384 . S
C295 C296 1.381 . S
C295 H313 0.930 . S
C296 C295 1.381 . S
C296 C298 1.381 . S
C296 C299 1.487 . S
C297 C294 1.382 . S
C297 C298 1.387 . S
C297 H314 0.930 . S
C298 C296 1.381 . S
C298 C297 1.387 . S
C298 H315 0.931 . S
C299 C292 1.399 . S
C299 C296 1.487 . S
C299 N316 1.343 1_565 S
H300 C272 0.931 . S
H301 C274 0.930 . S
H302 C276 0.930 . S
H303 C277 0.931 . S
H304 C279 0.931 . S
H305 C281 0.930 . S
H306 C283 0.930 . S
H307 C284 0.931 . S
H308 C286 0.931 . S
H309 C288 0.930 . S
H310 C290 0.930 . S
H311 C291 0.931 . S
H312 C293 0.931 . S
H313 C295 0.930 . S
H314 C297 0.930 . S
H315 C298 0.931 . S
N316 C278 1.343 . S
N316 C299 1.343 1_545 S
N317 C285 1.343 . S
N317 C292 1.343 1_545 S
C318 C319 1.384 . S
C318 C320 1.384 . S
C318 H346 0.931 . S
C319 C318 1.384 . S
C319 C322 1.382 . S
C320 C318 1.384 . S
C320 C321 1.381 . S
C320 H347 0.930 . S
C321 C320 1.381 . S
C321 C323 1.381 . S
C321 C324 1.487 . S
C322 C319 1.382 . S
C322 C323 1.387 . S
C322 H348 0.930 . S
C323 C321 1.381 . S
C323 C322 1.387 . S
C323 H349 0.931 . S
C324 C321 1.487 . S
C324 C331 1.399 . S
C324 N362 1.343 1_556 S
C325 C326 1.384 . S
C325 C327 1.384 . S
C325 H350 0.931 . S
C326 C325 1.384 . S
C326 C329 1.382 . S
C327 C325 1.384 . S
C327 C328 1.381 . S
C327 H351 0.930 . S
C328 C327 1.381 . S
C328 C330 1.381 . S
C328 C331 1.487 . S
C329 C326 1.382 . S
C329 C330 1.387 . S
C329 H352 0.930 . S
C330 C328 1.381 . S
C330 C329 1.387 . S
C330 H353 0.931 . S
C331 C324 1.399 . S
C331 C328 1.487 . S
C331 N363 1.343 1_556 S
C332 C333 1.384 . S
C332 C334 1.384 . S
C332 H354 0.931 . S
C333 C332 1.384 . S
C333 C336 1.382 . S
C334 C332 1.384 . S
C334 C335 1.381 . S
C334 H355 0.930 . S
C335 C334 1.381 . S
C335 C337 1.381 . S
C335 C338 1.487 . S
C336 C333 1.382 . S
C336 C337 1.387 . S
C336 H356 0.930 . S
C337 C335 1.381 . S
C337 C336 1.387 . S
C337 H357 0.931 . S
C338 C335 1.487 . S
C338 C345 1.399 . S
C338 N363 1.343 . S
C339 C340 1.384 . S
C339 C341 1.384 . S
C339 H358 0.931 . S
C340 C339 1.384 . S
C340 C343 1.382 . S
C341 C339 1.384 . S
C341 C342 1.381 . S
C341 H359 0.930 . S
C342 C341 1.381 . S
C342 C344 1.381 . S
C342 C345 1.487 . S
C343 C340 1.382 . S
C343 C344 1.387 . S
C343 H360 0.930 . S
C344 C342 1.381 . S
C344 C343 1.387 . S
C344 H361 0.931 . S
C345 C338 1.399 . S
C345 C342 1.487 . S
C345 N362 1.343 . S
H346 C318 0.931 . S
H347 C320 0.930 . S
H348 C322 0.930 . S
H349 C323 0.931 . S
H350 C325 0.931 . S
H351 C327 0.930 . S
H352 C329 0.930 . S
H353 C330 0.931 . S
H354 C332 0.931 . S
H355 C334 0.930 . S
H356 C336 0.930 . S
H357 C337 0.931 . S
H358 C339 0.931 . S
H359 C341 0.930 . S
H360 C343 0.930 . S
H361 C344 0.931 . S
N362 C324 1.343 1_554 S
N362 C345 1.343 . S
N363 C331 1.343 1_554 S
N363 C338 1.343 . S
C364 C365 1.391 . S
C364 C366 1.394 . S
C364 H380 0.931 . S
C365 C364 1.391 . S
C365 C369 1.376 . S
C366 C364 1.394 . S
C366 C367 1.369 . S
C366 C370 1.531 . S
C367 C366 1.369 . S
C367 C368 1.410 . S
C367 C375 1.503 . S
C368 C367 1.410 . S
C368 C369 1.392 . S
C368 C371 1.511 . S
C369 C365 1.376 . S
C369 C368 1.392 . S
C369 H381 0.929 . S
C370 C366 1.531 . S
C370 H382 0.960 . S
C370 H383 0.962 . S
C370 H384 0.960 . S
C371 C368 1.511 . S
C371 H385 0.961 . S
C371 H386 0.961 . S
C371 H387 0.961 . S
C372 C373 1.370 . S
C372 C374 1.363 . S
C372 H388 0.931 . S
C373 C372 1.370 . S
C373 C377 1.408 . S
C374 C372 1.363 . S
C374 C375 1.370 . S
C374 C378 1.524 . S
C375 C367 1.503 . S
C375 C374 1.370 . S
C375 C376 1.403 . S
C376 C375 1.403 . S
C376 C377 1.404 . S
C376 C379 1.539 . S
C377 C373 1.408 . S
C377 C376 1.404 . S
C377 H389 0.930 . S
C378 C374 1.524 . S
C378 H390 0.956 . S
C378 H391 0.961 . S
C378 H392 0.961 . S
C379 C376 1.539 . S
C379 H393 0.958 . S
C379 H394 0.961 . S
C379 H395 0.960 . S
H380 C364 0.931 . S
H381 C369 0.929 . S
H382 C370 0.960 . S
H383 C370 0.962 . S
H384 C370 0.960 . S
H385 C371 0.961 . S
H386 C371 0.961 . S
H387 C371 0.961 . S
H388 C372 0.931 . S
H389 C377 0.930 . S
H390 C378 0.956 . S
H391 C378 0.961 . S
H392 C378 0.961 . S
H393 C379 0.958 . S
H394 C379 0.961 . S
H395 C379 0.960 . S
C396 C397 1.391 . S
C396 C398 1.394 . S
C396 H412 0.931 . S
C397 C396 1.391 . S
C397 C401 1.376 . S
C398 C396 1.394 . S
C398 C399 1.369 . S
C398 C402 1.531 . S
C399 C398 1.369 . S
C399 C400 1.410 . S
C399 C407 1.503 . S
C400 C399 1.410 . S
C400 C401 1.392 . S
C400 C403 1.511 . S
C401 C397 1.376 . S
C401 C400 1.392 . S
C401 H413 0.929 . S
C402 C398 1.531 . S
C402 H414 0.960 . S
C402 H415 0.962 . S
C402 H416 0.960 . S
C403 C400 1.511 . S
C403 H417 0.961 . S
C403 H418 0.961 . S
C403 H419 0.961 . S
C404 C405 1.370 . S
C404 C406 1.363 . S
C404 H420 0.931 . S
C405 C404 1.370 . S
C405 C409 1.408 . S
C406 C404 1.363 . S
C406 C407 1.370 . S
C406 C410 1.524 . S
C407 C399 1.503 . S
C407 C406 1.370 . S
C407 C408 1.403 . S
C408 C407 1.403 . S
C408 C409 1.404 . S
C408 C411 1.539 . S
C409 C405 1.408 . S
C409 C408 1.404 . S
C409 H421 0.930 . S
C410 C406 1.524 . S
C410 H422 0.956 . S
C410 H423 0.961 . S
C410 H424 0.961 . S
C411 C408 1.539 . S
C411 H425 0.958 . S
C411 H426 0.961 . S
C411 H427 0.960 . S
H412 C396 0.931 . S
H413 C401 0.929 . S
H414 C402 0.960 . S
H415 C402 0.962 . S
H416 C402 0.960 . S
H417 C403 0.961 . S
H418 C403 0.961 . S
H419 C403 0.961 . S
H420 C404 0.931 . S
H421 C409 0.930 . S
H422 C410 0.956 . S
H423 C410 0.961 . S
H424 C410 0.961 . S
H425 C411 0.958 . S
H426 C411 0.961 . S
H427 C411 0.960 . S
C428 C429 1.391 . S
C428 C430 1.394 . S
C428 H444 0.931 . S
C429 C428 1.391 . S
C429 C433 1.376 . S
C430 C428 1.394 . S
C430 C431 1.369 . S
C430 C434 1.531 . S
C431 C430 1.369 . S
C431 C432 1.410 . S
C431 C439 1.503 . S
C432 C431 1.410 . S
C432 C433 1.392 . S
C432 C435 1.511 . S
C433 C429 1.376 . S
C433 C432 1.392 . S
C433 H445 0.929 . S
C434 C430 1.531 . S
C434 H446 0.960 . S
C434 H447 0.962 . S
C434 H448 0.960 . S
C435 C432 1.511 . S
C435 H449 0.961 . S
C435 H450 0.961 . S
C435 H451 0.961 . S
C436 C437 1.370 . S
C436 C438 1.363 . S
C436 H452 0.931 . S
C437 C436 1.370 . S
C437 C441 1.408 . S
C438 C436 1.363 . S
C438 C439 1.370 . S
C438 C442 1.524 . S
C439 C431 1.503 . S
C439 C438 1.370 . S
C439 C440 1.403 . S
C440 C439 1.403 . S
C440 C441 1.404 . S
C440 C443 1.539 . S
C441 C437 1.408 . S
C441 C440 1.404 . S
C441 H453 0.930 . S
C442 C438 1.524 . S
C442 H454 0.956 . S
C442 H455 0.961 . S
C442 H456 0.961 . S
C443 C440 1.539 . S
C443 H457 0.958 . S
C443 H458 0.961 . S
C443 H459 0.960 . S
H444 C428 0.931 . S
H445 C433 0.929 . S
H446 C434 0.960 . S
H447 C434 0.962 . S
H448 C434 0.960 . S
H449 C435 0.961 . S
H450 C435 0.961 . S
H451 C435 0.961 . S
H452 C436 0.931 . S
H453 C441 0.930 . S
H454 C442 0.956 . S
H455 C442 0.961 . S
H456 C442 0.961 . S
H457 C443 0.958 . S
H458 C443 0.961 . S
H459 C443 0.960 . S
C460 C461 1.391 . S
C460 C462 1.394 . S
C460 H476 0.931 . S
C461 C460 1.391 . S
C461 C465 1.376 . S
C462 C460 1.394 . S
C462 C463 1.369 . S
C462 C466 1.531 . S
C463 C462 1.369 . S
C463 C464 1.410 . S
C463 C471 1.503 . S
C464 C463 1.410 . S
C464 C465 1.392 . S
C464 C467 1.511 . S
C465 C461 1.376 . S
C465 C464 1.392 . S
C465 H477 0.929 . S
C466 C462 1.531 . S
C466 H478 0.960 . S
C466 H479 0.962 . S
C466 H480 0.960 . S
C467 C464 1.511 . S
C467 H481 0.961 . S
C467 H482 0.961 . S
C467 H483 0.961 . S
C468 C469 1.370 . S
C468 C470 1.363 . S
C468 H484 0.931 . S
C469 C468 1.370 . S
C469 C473 1.408 . S
C470 C468 1.363 . S
C470 C471 1.370 . S
C470 C474 1.524 . S
C471 C463 1.503 . S
C471 C470 1.370 . S
C471 C472 1.403 . S
C472 C471 1.403 . S
C472 C473 1.404 . S
C472 C475 1.539 . S
C473 C469 1.408 . S
C473 C472 1.404 . S
C473 H485 0.930 . S
C474 C470 1.524 . S
C474 H486 0.956 . S
C474 H487 0.961 . S
C474 H488 0.961 . S
C475 C472 1.539 . S
C475 H489 0.958 . S
C475 H490 0.961 . S
C475 H491 0.960 . S
H476 C460 0.931 . S
H477 C465 0.929 . S
H478 C466 0.960 . S
H479 C466 0.962 . S
H480 C466 0.960 . S
H481 C467 0.961 . S
H482 C467 0.961 . S
H483 C467 0.961 . S
H484 C468 0.931 . S
H485 C473 0.930 . S
H486 C474 0.956 . S
H487 C474 0.961 . S
H488 C474 0.961 . S
H489 C475 0.958 . S
H490 C475 0.961 . S
H491 C475 0.960 . S
C492 C493 1.391 . S
C492 C494 1.394 . S
C492 H508 0.931 . S
C493 C492 1.391 . S
C493 C497 1.376 . S
C494 C492 1.394 . S
C494 C495 1.369 . S
C494 C498 1.531 . S
C495 C494 1.369 . S
C495 C496 1.410 . S
C495 C503 1.503 . S
C496 C495 1.410 . S
C496 C497 1.392 . S
C496 C499 1.511 . S
C497 C493 1.376 . S
C497 C496 1.392 . S
C497 H509 0.929 . S
C498 C494 1.531 . S
C498 H510 0.960 . S
C498 H511 0.962 . S
C498 H512 0.960 . S
C499 C496 1.511 . S
C499 H513 0.961 . S
C499 H514 0.961 . S
C499 H515 0.961 . S
C500 C501 1.370 . S
C500 C502 1.363 . S
C500 H516 0.931 . S
C501 C500 1.370 . S
C501 C505 1.408 . S
C502 C500 1.363 . S
C502 C503 1.370 . S
C502 C506 1.524 . S
C503 C495 1.503 . S
C503 C502 1.370 . S
C503 C504 1.403 . S
C504 C503 1.403 . S
C504 C505 1.404 . S
C504 C507 1.539 . S
C505 C501 1.408 . S
C505 C504 1.404 . S
C505 H517 0.930 . S
C506 C502 1.524 . S
C506 H518 0.956 . S
C506 H519 0.961 . S
C506 H520 0.961 . S
C507 C504 1.539 . S
C507 H521 0.958 . S
C507 H522 0.961 . S
C507 H523 0.960 . S
H508 C492 0.931 . S
H509 C497 0.929 . S
H510 C498 0.960 . S
H511 C498 0.962 . S
H512 C498 0.960 . S
H513 C499 0.961 . S
H514 C499 0.961 . S
H515 C499 0.961 . S
H516 C500 0.931 . S
H517 C505 0.930 . S
H518 C506 0.956 . S
H519 C506 0.961 . S
H520 C506 0.961 . S
H521 C507 0.958 . S
H522 C507 0.961 . S
H523 C507 0.960 . S
C524 C525 1.391 . S
C524 C526 1.394 . S
C524 H540 0.931 . S
C525 C524 1.391 . S
C525 C529 1.376 . S
C526 C524 1.394 . S
C526 C527 1.369 . S
C526 C530 1.531 . S
C527 C526 1.369 . S
C527 C528 1.410 . S
C527 C535 1.503 . S
C528 C527 1.410 . S
C528 C529 1.392 . S
C528 C531 1.511 . S
C529 C525 1.376 . S
C529 C528 1.392 . S
C529 H541 0.929 . S
C530 C526 1.531 . S
C530 H542 0.960 . S
C530 H543 0.962 . S
C530 H544 0.960 . S
C531 C528 1.511 . S
C531 H545 0.961 . S
C531 H546 0.961 . S
C531 H547 0.961 . S
C532 C533 1.370 . S
C532 C534 1.363 . S
C532 H548 0.931 . S
C533 C532 1.370 . S
C533 C537 1.408 . S
C534 C532 1.363 . S
C534 C535 1.370 . S
C534 C538 1.524 . S
C535 C527 1.503 . S
C535 C534 1.370 . S
C535 C536 1.403 . S
C536 C535 1.403 . S
C536 C537 1.404 . S
C536 C539 1.539 . S
C537 C533 1.408 . S
C537 C536 1.404 . S
C537 H549 0.930 . S
C538 C534 1.524 . S
C538 H550 0.956 . S
C538 H551 0.961 . S
C538 H552 0.961 . S
C539 C536 1.539 . S
C539 H553 0.958 . S
C539 H554 0.961 . S
C539 H555 0.960 . S
H540 C524 0.931 . S
H541 C529 0.929 . S
H542 C530 0.960 . S
H543 C530 0.962 . S
H544 C530 0.960 . S
H545 C531 0.961 . S
H546 C531 0.961 . S
H547 C531 0.961 . S
H548 C532 0.931 . S
H549 C537 0.930 . S
H550 C538 0.956 . S
H551 C538 0.961 . S
H552 C538 0.961 . S
H553 C539 0.958 . S
H554 C539 0.961 . S
H555 C539 0.960 . S
C556 C557 1.391 . S
C556 C558 1.394 . S
C556 H572 0.931 . S
C557 C556 1.391 . S
C557 C561 1.376 . S
C558 C556 1.394 . S
C558 C559 1.369 . S
C558 C562 1.531 . S
C559 C558 1.369 . S
C559 C560 1.410 . S
C559 C567 1.503 . S
C560 C559 1.410 . S
C560 C561 1.392 . S
C560 C563 1.511 . S
C561 C557 1.376 . S
C561 C560 1.392 . S
C561 H573 0.929 . S
C562 C558 1.531 . S
C562 H574 0.960 . S
C562 H575 0.962 . S
C562 H576 0.960 . S
C563 C560 1.511 . S
C563 H577 0.961 . S
C563 H578 0.961 . S
C563 H579 0.961 . S
C564 C565 1.370 . S
C564 C566 1.363 . S
C564 H580 0.931 . S
C565 C564 1.370 . S
C565 C569 1.408 . S
C566 C564 1.363 . S
C566 C567 1.370 . S
C566 C570 1.524 . S
C567 C559 1.503 . S
C567 C566 1.370 . S
C567 C568 1.403 . S
C568 C567 1.403 . S
C568 C569 1.404 . S
C568 C571 1.539 . S
C569 C565 1.408 . S
C569 C568 1.404 . S
C569 H581 0.930 . S
C570 C566 1.524 . S
C570 H582 0.956 . S
C570 H583 0.961 . S
C570 H584 0.961 . S
C571 C568 1.539 . S
C571 H585 0.958 . S
C571 H586 0.961 . S
C571 H587 0.960 . S
H572 C556 0.931 . S
H573 C561 0.929 . S
H574 C562 0.960 . S
H575 C562 0.962 . S
H576 C562 0.960 . S
H577 C563 0.961 . S
H578 C563 0.961 . S
H579 C563 0.961 . S
H580 C564 0.931 . S
H581 C569 0.930 . S
H582 C570 0.956 . S
H583 C570 0.961 . S
H584 C570 0.961 . S
H585 C571 0.958 . S
H586 C571 0.961 . S
H587 C571 0.960 . S
C588 C589 1.391 . S
C588 C590 1.394 . S
C588 H604 0.931 . S
C589 C588 1.391 . S
C589 C593 1.376 . S
C590 C588 1.394 . S
C590 C591 1.369 . S
C590 C594 1.531 . S
C591 C590 1.369 . S
C591 C592 1.410 . S
C591 C599 1.503 . S
C592 C591 1.410 . S
C592 C593 1.392 . S
C592 C595 1.511 . S
C593 C589 1.376 . S
C593 C592 1.392 . S
C593 H605 0.929 . S
C594 C590 1.531 . S
C594 H606 0.960 . S
C594 H607 0.962 . S
C594 H608 0.960 . S
C595 C592 1.511 . S
C595 H609 0.961 . S
C595 H610 0.961 . S
C595 H611 0.961 . S
C596 C597 1.370 . S
C596 C598 1.363 . S
C596 H612 0.931 . S
C597 C596 1.370 . S
C597 C601 1.408 . S
C598 C596 1.363 . S
C598 C599 1.370 . S
C598 C602 1.524 . S
C599 C591 1.503 . S
C599 C598 1.370 . S
C599 C600 1.403 . S
C600 C599 1.403 . S
C600 C601 1.404 . S
C600 C603 1.539 . S
C601 C597 1.408 . S
C601 C600 1.404 . S
C601 H613 0.930 . S
C602 C598 1.524 . S
C602 H614 0.956 . S
C602 H615 0.961 . S
C602 H616 0.961 . S
C603 C600 1.539 . S
C603 H617 0.958 . S
C603 H618 0.961 . S
C603 H619 0.960 . S
H604 C588 0.931 . S
H605 C593 0.929 . S
H606 C594 0.960 . S
H607 C594 0.962 . S
H608 C594 0.960 . S
H609 C595 0.961 . S
H610 C595 0.961 . S
H611 C595 0.961 . S
H612 C596 0.931 . S
H613 C601 0.930 . S
H614 C602 0.956 . S
H615 C602 0.961 . S
H616 C602 0.961 . S
H617 C603 0.958 . S
H618 C603 0.961 . S
H619 C603 0.960 . S
C620 C621 1.391 . S
C620 C622 1.394 . S
C620 H636 0.931 . S
C621 C620 1.391 . S
C621 C625 1.376 . S
C622 C620 1.394 . S
C622 C623 1.369 . S
C622 C626 1.531 . S
C623 C622 1.369 . S
C623 C624 1.410 . S
C623 C631 1.503 . S
C624 C623 1.410 . S
C624 C625 1.392 . S
C624 C627 1.511 . S
C625 C621 1.376 . S
C625 C624 1.392 . S
C625 H637 0.929 . S
C626 C622 1.531 . S
C626 H638 0.960 . S
C626 H639 0.962 . S
C626 H640 0.960 . S
C627 C624 1.511 . S
C627 H641 0.961 . S
C627 H642 0.961 . S
C627 H643 0.961 . S
C628 C629 1.370 1_565 S
C628 C630 1.363 . S
C628 H644 0.931 . S
C629 C628 1.370 1_545 S
C629 C633 1.408 . S
C630 C628 1.363 . S
C630 C631 1.370 . S
C630 C634 1.524 . S
C631 C623 1.503 . S
C631 C630 1.370 . S
C631 C632 1.403 . S
C632 C631 1.403 . S
C632 C633 1.404 1_565 S
C632 C635 1.539 . S
C633 C629 1.408 . S
C633 C632 1.404 1_545 S
C633 H645 0.930 . S
C634 C630 1.524 . S
C634 H646 0.956 . S
C634 H647 0.961 . S
C634 H648 0.961 . S
C635 C632 1.539 . S
C635 H649 0.958 1_565 S
C635 H650 0.961 1_565 S
C635 H651 0.960 . S
H636 C620 0.931 . S
H637 C625 0.929 . S
H638 C626 0.960 . S
H639 C626 0.962 . S
H640 C626 0.960 . S
H641 C627 0.961 . S
H642 C627 0.961 . S
H643 C627 0.961 . S
H644 C628 0.931 . S
H645 C633 0.930 . S
H646 C634 0.956 . S
H647 C634 0.961 . S
H648 C634 0.961 . S
H649 C635 0.958 1_545 S
H650 C635 0.961 1_545 S
H651 C635 0.960 . S
C652 C653 1.391 . S
C652 C654 1.394 . S
C652 H668 0.931 . S
C653 C652 1.391 . S
C653 C657 1.376 . S
C654 C652 1.394 . S
C654 C655 1.369 . S
C654 C658 1.531 . S
C655 C654 1.369 . S
C655 C656 1.410 . S
C655 C663 1.503 . S
C656 C655 1.410 . S
C656 C657 1.392 . S
C656 C659 1.511 . S
C657 C653 1.376 . S
C657 C656 1.392 . S
C657 H669 0.929 . S
C658 C654 1.531 . S
C658 H670 0.960 . S
C658 H671 0.962 . S
C658 H672 0.960 . S
C659 C656 1.511 . S
C659 H673 0.961 . S
C659 H674 0.961 . S
C659 H675 0.961 . S
C660 C661 1.370 . S
C660 C662 1.363 . S
C660 H676 0.931 . S
C661 C660 1.370 . S
C661 C665 1.408 . S
C662 C660 1.363 . S
C662 C663 1.370 . S
C662 C666 1.524 . S
C663 C655 1.503 . S
C663 C662 1.370 . S
C663 C664 1.403 . S
C664 C663 1.403 . S
C664 C665 1.404 . S
C664 C667 1.539 . S
C665 C661 1.408 . S
C665 C664 1.404 . S
C665 H677 0.930 . S
C666 C662 1.524 . S
C666 H678 0.956 . S
C666 H679 0.961 . S
C666 H680 0.961 . S
C667 C664 1.539 . S
C667 H681 0.958 . S
C667 H682 0.961 . S
C667 H683 0.960 . S
H668 C652 0.931 . S
H669 C657 0.929 . S
H670 C658 0.960 . S
H671 C658 0.962 . S
H672 C658 0.960 . S
H673 C659 0.961 . S
H674 C659 0.961 . S
H675 C659 0.961 . S
H676 C660 0.931 . S
H677 C665 0.930 . S
H678 C666 0.956 . S
H679 C666 0.961 . S
H680 C666 0.961 . S
H681 C667 0.958 . S
H682 C667 0.961 . S
H683 C667 0.960 . S
C684 C685 1.391 . S
C684 C686 1.394 . S
C684 H700 0.931 . S
C685 C684 1.391 . S
C685 C689 1.376 . S
C686 C684 1.394 . S
C686 C687 1.369 . S
C686 C690 1.531 . S
C687 C686 1.369 . S
C687 C688 1.410 . S
C687 C695 1.503 . S
C688 C687 1.410 . S
C688 C689 1.392 . S
C688 C691 1.511 . S
C689 C685 1.376 . S
C689 C688 1.392 . S
C689 H701 0.929 . S
C690 C686 1.531 . S
C690 H702 0.960 . S
C690 H703 0.962 . S
C690 H704 0.960 . S
C691 C688 1.511 . S
C691 H705 0.961 . S
C691 H706 0.961 . S
C691 H707 0.961 . S
C692 C693 1.370 . S
C692 C694 1.363 . S
C692 H708 0.931 . S
C693 C692 1.370 . S
C693 C697 1.408 . S
C694 C692 1.363 . S
C694 C695 1.370 . S
C694 C698 1.524 . S
C695 C687 1.503 . S
C695 C694 1.370 . S
C695 C696 1.403 . S
C696 C695 1.403 . S
C696 C697 1.404 . S
C696 C699 1.539 . S
C697 C693 1.408 . S
C697 C696 1.404 . S
C697 H709 0.930 . S
C698 C694 1.524 . S
C698 H710 0.956 . S
C698 H711 0.961 . S
C698 H712 0.961 . S
C699 C696 1.539 . S
C699 H713 0.958 . S
C699 H714 0.961 . S
C699 H715 0.960 . S
H700 C684 0.931 . S
H701 C689 0.929 . S
H702 C690 0.960 . S
H703 C690 0.962 . S
H704 C690 0.960 . S
H705 C691 0.961 . S
H706 C691 0.961 . S
H707 C691 0.961 . S
H708 C692 0.931 . S
H709 C697 0.930 . S
H710 C698 0.956 . S
H711 C698 0.961 . S
H712 C698 0.961 . S
H713 C699 0.958 . S
H714 C699 0.961 . S
H715 C699 0.960 . S
C716 C717 1.391 . S
C716 C718 1.394 . S
C716 H732 0.931 . S
C717 C716 1.391 . S
C717 C721 1.376 . S
C718 C716 1.394 . S
C718 C719 1.369 . S
C718 C722 1.531 . S
C719 C718 1.369 . S
C719 C720 1.410 . S
C719 C727 1.503 . S
C720 C719 1.410 . S
C720 C721 1.392 . S
C720 C723 1.511 . S
C721 C717 1.376 . S
C721 C720 1.392 . S
C721 H733 0.929 . S
C722 C718 1.531 . S
C722 H734 0.960 . S
C722 H735 0.962 . S
C722 H736 0.960 . S
C723 C720 1.511 . S
C723 H737 0.961 . S
C723 H738 0.961 . S
C723 H739 0.961 . S
C724 C725 1.370 . S
C724 C726 1.363 . S
C724 H740 0.931 . S
C725 C724 1.370 . S
C725 C729 1.408 . S
C726 C724 1.363 . S
C726 C727 1.370 . S
C726 C730 1.524 . S
C727 C719 1.503 . S
C727 C726 1.370 . S
C727 C728 1.403 . S
C728 C727 1.403 . S
C728 C729 1.404 . S
C728 C731 1.539 . S
C729 C725 1.408 . S
C729 C728 1.404 . S
C729 H741 0.930 . S
C730 C726 1.524 . S
C730 H742 0.956 . S
C730 H743 0.961 . S
C730 H744 0.961 . S
C731 C728 1.539 . S
C731 H745 0.958 . S
C731 H746 0.961 . S
C731 H747 0.960 . S
H732 C716 0.931 . S
H733 C721 0.929 . S
H734 C722 0.960 . S
H735 C722 0.962 . S
H736 C722 0.960 . S
H737 C723 0.961 . S
H738 C723 0.961 . S
H739 C723 0.961 . S
H740 C724 0.931 . S
H741 C729 0.930 . S
H742 C730 0.956 . S
H743 C730 0.961 . S
H744 C730 0.961 . S
H745 C731 0.958 . S
H746 C731 0.961 . S
H747 C731 0.960 . S
C748 C749 1.391 . S
C748 C750 1.394 . S
C748 H764 0.931 . S
C749 C748 1.391 . S
C749 C753 1.376 . S
C750 C748 1.394 . S
C750 C751 1.369 . S
C750 C754 1.531 . S
C751 C750 1.369 . S
C751 C752 1.410 . S
C751 C759 1.503 . S
C752 C751 1.410 . S
C752 C753 1.392 . S
C752 C755 1.511 . S
C753 C749 1.376 . S
C753 C752 1.392 . S
C753 H765 0.929 . S
C754 C750 1.531 . S
C754 H766 0.960 . S
C754 H767 0.962 . S
C754 H768 0.960 . S
C755 C752 1.511 . S
C755 H769 0.961 . S
C755 H770 0.961 . S
C755 H771 0.961 . S
C756 C757 1.370 . S
C756 C758 1.363 . S
C756 H772 0.931 . S
C757 C756 1.370 . S
C757 C761 1.408 . S
C758 C756 1.363 . S
C758 C759 1.370 . S
C758 C762 1.524 . S
C759 C751 1.503 . S
C759 C758 1.370 . S
C759 C760 1.403 . S
C760 C759 1.403 . S
C760 C761 1.404 . S
C760 C763 1.539 . S
C761 C757 1.408 . S
C761 C760 1.404 . S
C761 H773 0.930 . S
C762 C758 1.524 . S
C762 H774 0.956 . S
C762 H775 0.961 . S
C762 H776 0.961 . S
C763 C760 1.539 . S
C763 H777 0.958 . S
C763 H778 0.961 . S
C763 H779 0.960 . S
H764 C748 0.931 . S
H765 C753 0.929 . S
H766 C754 0.960 . S
H767 C754 0.962 . S
H768 C754 0.960 . S
H769 C755 0.961 . S
H770 C755 0.961 . S
H771 C755 0.961 . S
H772 C756 0.931 . S
H773 C761 0.930 . S
H774 C762 0.956 . S
H775 C762 0.961 . S
H776 C762 0.961 . S
H777 C763 0.958 . S
H778 C763 0.961 . S
H779 C763 0.960 . S
C780 C781 1.391 . S
C780 C782 1.394 . S
C780 H796 0.931 . S
C781 C780 1.391 . S
C781 C785 1.376 . S
C782 C780 1.394 . S
C782 C783 1.369 . S
C782 C786 1.531 . S
C783 C782 1.369 . S
C783 C784 1.410 . S
C783 C791 1.503 . S
C784 C783 1.410 . S
C784 C785 1.392 . S
C784 C787 1.511 . S
C785 C781 1.376 . S
C785 C784 1.392 . S
C785 H797 0.929 . S
C786 C782 1.531 . S
C786 H798 0.960 . S
C786 H799 0.962 . S
C786 H800 0.960 . S
C787 C784 1.511 . S
C787 H801 0.961 . S
C787 H802 0.961 . S
C787 H803 0.961 . S
C788 C789 1.370 . S
C788 C790 1.363 . S
C788 H804 0.931 . S
C789 C788 1.370 . S
C789 C793 1.408 . S
C790 C788 1.363 . S
C790 C791 1.370 . S
C790 C794 1.524 . S
C791 C783 1.503 . S
C791 C790 1.370 . S
C791 C792 1.403 . S
C792 C791 1.403 . S
C792 C793 1.404 . S
C792 C795 1.539 . S
C793 C789 1.408 . S
C793 C792 1.404 . S
C793 H805 0.930 . S
C794 C790 1.524 . S
C794 H806 0.956 . S
C794 H807 0.961 . S
C794 H808 0.961 . S
C795 C792 1.539 . S
C795 H809 0.958 . S
C795 H810 0.961 . S
C795 H811 0.960 . S
H796 C780 0.931 . S
H797 C785 0.929 . S
H798 C786 0.960 . S
H799 C786 0.962 . S
H800 C786 0.960 . S
H801 C787 0.961 . S
H802 C787 0.961 . S
H803 C787 0.961 . S
H804 C788 0.931 . S
H805 C793 0.930 . S
H806 C794 0.956 . S
H807 C794 0.961 . S
H808 C794 0.961 . S
H809 C795 0.958 . S
H810 C795 0.961 . S
H811 C795 0.960 . S
C812 C813 1.391 . S
C812 C814 1.394 . S
C812 H828 0.931 . S
C813 C812 1.391 . S
C813 C817 1.376 . S
C814 C812 1.394 . S
C814 C815 1.369 . S
C814 C818 1.531 . S
C815 C814 1.369 . S
C815 C816 1.410 . S
C815 C823 1.503 . S
C816 C815 1.410 . S
C816 C817 1.392 . S
C816 C819 1.511 . S
C817 C813 1.376 . S
C817 C816 1.392 . S
C817 H829 0.929 . S
C818 C814 1.531 . S
C818 H830 0.960 . S
C818 H831 0.962 . S
C818 H832 0.960 . S
C819 C816 1.511 . S
C819 H833 0.961 . S
C819 H834 0.961 . S
C819 H835 0.961 . S
C820 C821 1.370 . S
C820 C822 1.363 . S
C820 H836 0.931 . S
C821 C820 1.370 . S
C821 C825 1.408 . S
C822 C820 1.363 . S
C822 C823 1.370 . S
C822 C826 1.524 . S
C823 C815 1.503 . S
C823 C822 1.370 . S
C823 C824 1.403 . S
C824 C823 1.403 . S
C824 C825 1.404 . S
C824 C827 1.539 . S
C825 C821 1.408 . S
C825 C824 1.404 . S
C825 H837 0.930 . S
C826 C822 1.524 . S
C826 H838 0.956 . S
C826 H839 0.961 . S
C826 H840 0.961 . S
C827 C824 1.539 . S
C827 H841 0.958 . S
C827 H842 0.961 . S
C827 H843 0.960 . S
H828 C812 0.931 . S
H829 C817 0.929 . S
H830 C818 0.960 . S
H831 C818 0.962 . S
H832 C818 0.960 . S
H833 C819 0.961 . S
H834 C819 0.961 . S
H835 C819 0.961 . S
H836 C820 0.931 . S
H837 C825 0.930 . S
H838 C826 0.956 . S
H839 C826 0.961 . S
H840 C826 0.961 . S
H841 C827 0.958 . S
H842 C827 0.961 . S
H843 C827 0.960 . S
C844 C845 1.391 . S
C844 C846 1.394 . S
C844 H860 0.931 . S
C845 C844 1.391 . S
C845 C849 1.376 . S
C846 C844 1.394 . S
C846 C847 1.369 . S
C846 C850 1.531 . S
C847 C846 1.369 . S
C847 C848 1.410 . S
C847 C855 1.503 . S
C848 C847 1.410 . S
C848 C849 1.392 . S
C848 C851 1.511 . S
C849 C845 1.376 . S
C849 C848 1.392 . S
C849 H861 0.929 . S
C850 C846 1.531 . S
C850 H862 0.960 . S
C850 H863 0.962 . S
C850 H864 0.960 . S
C851 C848 1.511 . S
C851 H865 0.961 . S
C851 H866 0.961 . S
C851 H867 0.961 . S
C852 C853 1.370 . S
C852 C854 1.363 . S
C852 H868 0.931 . S
C853 C852 1.370 . S
C853 C857 1.408 . S
C854 C852 1.363 . S
C854 C855 1.370 . S
C854 C858 1.524 . S
C855 C847 1.503 . S
C855 C854 1.370 . S
C855 C856 1.403 . S
C856 C855 1.403 . S
C856 C857 1.404 . S
C856 C859 1.539 . S
C857 C853 1.408 . S
C857 C856 1.404 . S
C857 H869 0.930 . S
C858 C854 1.524 . S
C858 H870 0.956 . S
C858 H871 0.961 . S
C858 H872 0.961 . S
C859 C856 1.539 . S
C859 H873 0.958 . S
C859 H874 0.961 . S
C859 H875 0.960 . S
H860 C844 0.931 . S
H861 C849 0.929 . S
H862 C850 0.960 . S
H863 C850 0.962 . S
H864 C850 0.960 . S
H865 C851 0.961 . S
H866 C851 0.961 . S
H867 C851 0.961 . S
H868 C852 0.931 . S
H869 C857 0.930 . S
H870 C858 0.956 . S
H871 C858 0.961 . S
H872 C858 0.961 . S
H873 C859 0.958 . S
H874 C859 0.961 . S
H875 C859 0.960 . S
C876 C877 1.391 . S
C876 C878 1.394 . S
C876 H892 0.931 . S
C877 C876 1.391 . S
C877 C881 1.376 . S
C878 C876 1.394 . S
C878 C879 1.369 . S
C878 C882 1.531 . S
C879 C878 1.369 . S
C879 C880 1.410 . S
C879 C887 1.503 . S
C880 C879 1.410 . S
C880 C881 1.392 . S
C880 C883 1.511 . S
C881 C877 1.376 . S
C881 C880 1.392 . S
C881 H893 0.929 . S
C882 C878 1.531 . S
C882 H894 0.960 . S
C882 H895 0.962 . S
C882 H896 0.960 . S
C883 C880 1.511 . S
C883 H897 0.961 . S
C883 H898 0.961 . S
C883 H899 0.961 . S
C884 C885 1.370 . S
C884 C886 1.363 . S
C884 H900 0.931 . S
C885 C884 1.370 . S
C885 C889 1.408 . S
C886 C884 1.363 . S
C886 C887 1.370 . S
C886 C890 1.524 . S
C887 C879 1.503 . S
C887 C886 1.370 . S
C887 C888 1.403 . S
C888 C887 1.403 . S
C888 C889 1.404 . S
C888 C891 1.539 . S
C889 C885 1.408 . S
C889 C888 1.404 . S
C889 H901 0.930 . S
C890 C886 1.524 . S
C890 H902 0.956 . S
C890 H903 0.961 . S
C890 H904 0.961 . S
C891 C888 1.539 . S
C891 H905 0.958 . S
C891 H906 0.961 . S
C891 H907 0.960 . S
H892 C876 0.931 . S
H893 C881 0.929 . S
H894 C882 0.960 . S
H895 C882 0.962 . S
H896 C882 0.960 . S
H897 C883 0.961 . S
H898 C883 0.961 . S
H899 C883 0.961 . S
H900 C884 0.931 . S
H901 C889 0.930 . S
H902 C890 0.956 . S
H903 C890 0.961 . S
H904 C890 0.961 . S
H905 C891 0.958 . S
H906 C891 0.961 . S
H907 C891 0.960 . S
C908 C909 1.391 . S
C908 C910 1.394 . S
C908 H924 0.931 . S
C909 C908 1.391 . S
C909 C913 1.376 . S
C910 C908 1.394 . S
C910 C911 1.369 . S
C910 C914 1.531 . S
C911 C910 1.369 . S
C911 C912 1.410 . S
C911 C919 1.503 . S
C912 C911 1.410 . S
C912 C913 1.392 . S
C912 C915 1.511 . S
C913 C909 1.376 . S
C913 C912 1.392 . S
C913 H925 0.929 . S
C914 C910 1.531 . S
C914 H926 0.960 . S
C914 H927 0.962 . S
C914 H928 0.960 . S
C915 C912 1.511 . S
C915 H929 0.961 . S
C915 H930 0.961 . S
C915 H931 0.961 . S
C916 C917 1.370 . S
C916 C918 1.363 . S
C916 H932 0.931 . S
C917 C916 1.370 . S
C917 C921 1.408 . S
C918 C916 1.363 . S
C918 C919 1.370 . S
C918 C922 1.524 . S
C919 C911 1.503 . S
C919 C918 1.370 . S
C919 C920 1.403 . S
C920 C919 1.403 . S
C920 C921 1.404 . S
C920 C923 1.539 . S
C921 C917 1.408 . S
C921 C920 1.404 . S
C921 H933 0.930 . S
C922 C918 1.524 . S
C922 H934 0.956 . S
C922 H935 0.961 . S
C922 H936 0.961 . S
C923 C920 1.539 . S
C923 H937 0.958 . S
C923 H938 0.961 . S
C923 H939 0.960 . S
H924 C908 0.931 . S
H925 C913 0.929 . S
H926 C914 0.960 . S
H927 C914 0.962 . S
H928 C914 0.960 . S
H929 C915 0.961 . S
H930 C915 0.961 . S
H931 C915 0.961 . S
H932 C916 0.931 . S
H933 C921 0.930 . S
H934 C922 0.956 . S
H935 C922 0.961 . S
H936 C922 0.961 . S
H937 C923 0.958 . S
H938 C923 0.961 . S
H939 C923 0.960 . S
C940 C941 1.391 . S
C940 C942 1.394 . S
C940 H956 0.931 . S
C941 C940 1.391 . S
C941 C945 1.376 . S
C942 C940 1.394 . S
C942 C943 1.369 . S
C942 C946 1.531 . S
C943 C942 1.369 . S
C943 C944 1.410 . S
C943 C951 1.503 . S
C944 C943 1.410 . S
C944 C945 1.392 . S
C944 C947 1.511 . S
C945 C941 1.376 . S
C945 C944 1.392 . S
C945 H957 0.929 . S
C946 C942 1.531 . S
C946 H958 0.960 . S
C946 H959 0.962 . S
C946 H960 0.960 . S
C947 C944 1.511 . S
C947 H961 0.961 . S
C947 H962 0.961 . S
C947 H963 0.961 . S
C948 C949 1.370 . S
C948 C950 1.363 . S
C948 H964 0.931 . S
C949 C948 1.370 . S
C949 C953 1.408 . S
C950 C948 1.363 . S
C950 C951 1.370 . S
C950 C954 1.524 . S
C951 C943 1.503 . S
C951 C950 1.370 . S
C951 C952 1.403 . S
C952 C951 1.403 . S
C952 C953 1.404 . S
C952 C955 1.539 . S
C953 C949 1.408 . S
C953 C952 1.404 . S
C953 H965 0.930 . S
C954 C950 1.524 . S
C954 H966 0.956 . S
C954 H967 0.961 . S
C954 H968 0.961 . S
C955 C952 1.539 . S
C955 H969 0.958 . S
C955 H970 0.961 . S
C955 H971 0.960 . S
H956 C940 0.931 . S
H957 C945 0.929 . S
H958 C946 0.960 . S
H959 C946 0.962 . S
H960 C946 0.960 . S
H961 C947 0.961 . S
H962 C947 0.961 . S
H963 C947 0.961 . S
H964 C948 0.931 . S
H965 C953 0.930 . S
H966 C954 0.956 . S
H967 C954 0.961 . S
H968 C954 0.961 . S
H969 C955 0.958 . S
H970 C955 0.961 . S
H971 C955 0.960 . S
C972 C973 1.391 . S
C972 C974 1.394 . S
C972 H988 0.931 . S
C973 C972 1.391 . S
C973 C977 1.376 . S
C974 C972 1.394 . S
C974 C975 1.369 . S
C974 C978 1.531 . S
C975 C974 1.369 . S
C975 C976 1.410 . S
C975 C983 1.503 . S
C976 C975 1.410 . S
C976 C977 1.392 . S
C976 C979 1.511 . S
C977 C973 1.376 . S
C977 C976 1.392 . S
C977 H989 0.929 . S
C978 C974 1.531 . S
C978 H990 0.960 . S
C978 H991 0.962 . S
C978 H992 0.960 . S
C979 C976 1.511 . S
C979 H993 0.961 . S
C979 H994 0.961 . S
C979 H995 0.961 . S
C980 C981 1.370 . S
C980 C982 1.363 . S
C980 H996 0.931 . S
C981 C980 1.370 . S
C981 C985 1.408 . S
C982 C980 1.363 . S
C982 C983 1.370 . S
C982 C986 1.524 . S
C983 C975 1.503 . S
C983 C982 1.370 . S
C983 C984 1.403 . S
C984 C983 1.403 . S
C984 C985 1.404 . S
C984 C987 1.539 . S
C985 C981 1.408 . S
C985 C984 1.404 . S
C985 H997 0.930 . S
C986 C982 1.524 . S
C986 H998 0.956 . S
C986 H999 0.961 . S
C986 H1000 0.961 . S
C987 C984 1.539 . S
C987 H1001 0.958 . S
C987 H1002 0.961 . S
C987 H1003 0.960 . S
H988 C972 0.931 . S
H989 C977 0.929 . S
H990 C978 0.960 . S
H991 C978 0.962 . S
H992 C978 0.960 . S
H993 C979 0.961 . S
H994 C979 0.961 . S
H995 C979 0.961 . S
H996 C980 0.931 . S
H997 C985 0.930 . S
H998 C986 0.956 . S
H999 C986 0.961 . S
H1000 C986 0.961 . S
H1001 C987 0.958 . S
H1002 C987 0.961 . S
H1003 C987 0.960 . S
C1004 C1005 1.391 . S
C1004 C1006 1.394 . S
C1004 H1020 0.931 . S
C1005 C1004 1.391 . S
C1005 C1009 1.376 . S
C1006 C1004 1.394 . S
C1006 C1007 1.369 . S
C1006 C1010 1.531 . S
C1007 C1006 1.369 . S
C1007 C1008 1.410 . S
C1007 C1015 1.503 . S
C1008 C1007 1.410 . S
C1008 C1009 1.392 . S
C1008 C1011 1.511 . S
C1009 C1005 1.376 . S
C1009 C1008 1.392 . S
C1009 H1021 0.929 . S
C1010 C1006 1.531 . S
C1010 H1022 0.960 . S
C1010 H1023 0.962 . S
C1010 H1024 0.960 . S
C1011 C1008 1.511 . S
C1011 H1025 0.961 . S
C1011 H1026 0.961 . S
C1011 H1027 0.961 . S
C1012 C1013 1.370 . S
C1012 C1014 1.363 . S
C1012 H1028 0.931 . S
C1013 C1012 1.370 . S
C1013 C1017 1.408 . S
C1014 C1012 1.363 . S
C1014 C1015 1.370 . S
C1014 C1018 1.524 . S
C1015 C1007 1.503 . S
C1015 C1014 1.370 . S
C1015 C1016 1.403 . S
C1016 C1015 1.403 . S
C1016 C1017 1.404 . S
C1016 C1019 1.539 . S
C1017 C1013 1.408 . S
C1017 C1016 1.404 . S
C1017 H1029 0.930 . S
C1018 C1014 1.524 . S
C1018 H1030 0.956 . S
C1018 H1031 0.961 . S
C1018 H1032 0.961 . S
C1019 C1016 1.539 . S
C1019 H1033 0.958 . S
C1019 H1034 0.961 . S
C1019 H1035 0.960 . S
H1020 C1004 0.931 . S
H1021 C1009 0.929 . S
H1022 C1010 0.960 . S
H1023 C1010 0.962 . S
H1024 C1010 0.960 . S
H1025 C1011 0.961 . S
H1026 C1011 0.961 . S
H1027 C1011 0.961 . S
H1028 C1012 0.931 . S
H1029 C1017 0.930 . S
H1030 C1018 0.956 . S
H1031 C1018 0.961 . S
H1032 C1018 0.961 . S
H1033 C1019 0.958 . S
H1034 C1019 0.961 . S
H1035 C1019 0.960 . S
C1036 C1037 1.391 . S
C1036 C1038 1.394 . S
C1036 H1052 0.931 . S
C1037 C1036 1.391 . S
C1037 C1041 1.376 . S
C1038 C1036 1.394 . S
C1038 C1039 1.369 . S
C1038 C1042 1.531 . S
C1039 C1038 1.369 . S
C1039 C1040 1.410 . S
C1039 C1047 1.503 . S
C1040 C1039 1.410 . S
C1040 C1041 1.392 . S
C1040 C1043 1.511 . S
C1041 C1037 1.376 . S
C1041 C1040 1.392 . S
C1041 H1053 0.929 . S
C1042 C1038 1.531 . S
C1042 H1054 0.960 . S
C1042 H1055 0.962 . S
C1042 H1056 0.960 . S
C1043 C1040 1.511 . S
C1043 H1057 0.961 . S
C1043 H1058 0.961 . S
C1043 H1059 0.961 . S
C1044 C1045 1.370 . S
C1044 C1046 1.363 . S
C1044 H1060 0.931 . S
C1045 C1044 1.370 . S
C1045 C1049 1.408 . S
C1046 C1044 1.363 . S
C1046 C1047 1.370 . S
C1046 C1050 1.524 . S
C1047 C1039 1.503 . S
C1047 C1046 1.370 . S
C1047 C1048 1.403 . S
C1048 C1047 1.403 . S
C1048 C1049 1.404 . S
C1048 C1051 1.539 . S
C1049 C1045 1.408 . S
C1049 C1048 1.404 . S
C1049 H1061 0.930 . S
C1050 C1046 1.524 . S
C1050 H1062 0.956 . S
C1050 H1063 0.961 . S
C1050 H1064 0.961 . S
C1051 C1048 1.539 . S
C1051 H1065 0.958 . S
C1051 H1066 0.961 . S
C1051 H1067 0.960 . S
H1052 C1036 0.931 . S
H1053 C1041 0.929 . S
H1054 C1042 0.960 . S
H1055 C1042 0.962 . S
H1056 C1042 0.960 . S
H1057 C1043 0.961 . S
H1058 C1043 0.961 . S
H1059 C1043 0.961 . S
H1060 C1044 0.931 . S
H1061 C1049 0.930 . S
H1062 C1050 0.956 . S
H1063 C1050 0.961 . S
H1064 C1050 0.961 . S
H1065 C1051 0.958 . S
H1066 C1051 0.961 . S
H1067 C1051 0.960 . S
C1068 C1069 1.391 . S
C1068 C1070 1.394 . S
C1068 H1084 0.931 . S
C1069 C1068 1.391 . S
C1069 C1073 1.376 . S
C1070 C1068 1.394 . S
C1070 C1071 1.369 . S
C1070 C1074 1.531 . S
C1071 C1070 1.369 . S
C1071 C1072 1.410 . S
C1071 C1079 1.503 . S
C1072 C1071 1.410 . S
C1072 C1073 1.392 . S
C1072 C1075 1.511 . S
C1073 C1069 1.376 . S
C1073 C1072 1.392 . S
C1073 H1085 0.929 . S
C1074 C1070 1.531 . S
C1074 H1086 0.960 . S
C1074 H1087 0.962 . S
C1074 H1088 0.960 . S
C1075 C1072 1.511 . S
C1075 H1089 0.961 . S
C1075 H1090 0.961 . S
C1075 H1091 0.961 . S
C1076 C1077 1.370 1_565 S
C1076 C1078 1.363 . S
C1076 H1092 0.931 . S
C1077 C1076 1.370 1_545 S
C1077 C1081 1.408 . S
C1078 C1076 1.363 . S
C1078 C1079 1.370 . S
C1078 C1082 1.524 . S
C1079 C1071 1.503 . S
C1079 C1078 1.370 . S
C1079 C1080 1.403 . S
C1080 C1079 1.403 . S
C1080 C1081 1.404 1_565 S
C1080 C1083 1.539 . S
C1081 C1077 1.408 . S
C1081 C1080 1.404 1_545 S
C1081 H1093 0.930 . S
C1082 C1078 1.524 . S
C1082 H1094 0.956 . S
C1082 H1095 0.961 . S
C1082 H1096 0.961 . S
C1083 C1080 1.539 . S
C1083 H1097 0.958 1_565 S
C1083 H1098 0.961 1_565 S
C1083 H1099 0.960 . S
H1084 C1068 0.931 . S
H1085 C1073 0.929 . S
H1086 C1074 0.960 . S
H1087 C1074 0.962 . S
H1088 C1074 0.960 . S
H1089 C1075 0.961 . S
H1090 C1075 0.961 . S
H1091 C1075 0.961 . S
H1092 C1076 0.931 . S
H1093 C1081 0.930 . S
H1094 C1082 0.956 . S
H1095 C1082 0.961 . S
H1096 C1082 0.961 . S
H1097 C1083 0.958 1_545 S
H1098 C1083 0.961 1_545 S
H1099 C1083 0.960 . S
C1100 C1101 1.391 . S
C1100 C1102 1.394 . S
C1100 H1116 0.931 . S
C1101 C1100 1.391 . S
C1101 C1105 1.376 . S
C1102 C1100 1.394 . S
C1102 C1103 1.369 . S
C1102 C1106 1.531 . S
C1103 C1102 1.369 . S
C1103 C1104 1.410 . S
C1103 C1111 1.503 . S
C1104 C1103 1.410 . S
C1104 C1105 1.392 . S
C1104 C1107 1.511 . S
C1105 C1101 1.376 . S
C1105 C1104 1.392 . S
C1105 H1117 0.929 . S
C1106 C1102 1.531 . S
C1106 H1118 0.960 . S
C1106 H1119 0.962 . S
C1106 H1120 0.960 . S
C1107 C1104 1.511 . S
C1107 H1121 0.961 . S
C1107 H1122 0.961 . S
C1107 H1123 0.961 . S
C1108 C1109 1.370 . S
C1108 C1110 1.363 . S
C1108 H1124 0.931 . S
C1109 C1108 1.370 . S
C1109 C1113 1.408 . S
C1110 C1108 1.363 . S
C1110 C1111 1.370 . S
C1110 C1114 1.524 . S
C1111 C1103 1.503 . S
C1111 C1110 1.370 . S
C1111 C1112 1.403 . S
C1112 C1111 1.403 . S
C1112 C1113 1.404 . S
C1112 C1115 1.539 . S
C1113 C1109 1.408 . S
C1113 C1112 1.404 . S
C1113 H1125 0.930 . S
C1114 C1110 1.524 . S
C1114 H1126 0.956 . S
C1114 H1127 0.961 . S
C1114 H1128 0.961 . S
C1115 C1112 1.539 . S
C1115 H1129 0.958 . S
C1115 H1130 0.961 . S
C1115 H1131 0.960 . S
H1116 C1100 0.931 . S
H1117 C1105 0.929 . S
H1118 C1106 0.960 . S
H1119 C1106 0.962 . S
H1120 C1106 0.960 . S
H1121 C1107 0.961 . S
H1122 C1107 0.961 . S
H1123 C1107 0.961 . S
H1124 C1108 0.931 . S
H1125 C1113 0.930 . S
H1126 C1114 0.956 . S
H1127 C1114 0.961 . S
H1128 C1114 0.961 . S
H1129 C1115 0.958 . S
H1130 C1115 0.961 . S
H1131 C1115 0.960 . S
C373 C96 1.538 . S
C365 C5 1.328 . S
C405 C149 1.512 . S
C397 C16 1.317 . S
C437 C110 1.712 . S
C429 C30 1.709 . S
C469 C135 1.618 . S
C461 C40 1.591 . S
C501 C181 1.482 . S
C493 C8 1.463 . S
C533 C227 1.487 . S
C525 C18 1.385 . S
C557 C29 1.745 . S
C565 C294 1.770 . S
C597 C326 1.560 . S
C589 C38 1.279 . S
C629 C195 1.449 . S
C621 C19 1.420 . S
C653 C27 1.501 . S
C661 C241 1.647 . S
C693 C280 1.577 . S
C685 C41 1.545 . S
C725 C340 1.534 . S
C717 C7 1.507 . S
C749 C52 1.574 . S
C757 C156 1.596 . S
C789 C89 1.597 . S
C781 C62 1.544 . S
C813 C74 1.388 . S
C821 C142 1.384 . S
C845 C82 1.191 . S
C853 C103 1.412 . S
C885 C287 1.829 . S
C877 C51 1.689 . S
C917 C333 1.623 . S
C909 C60 1.303 . S
C949 C188 1.517 . S
C941 C71 1.201 . S
C973 C84 1.489 . S
C981 C248 1.506 . S
C1013 C273 1.696 . S
C1005 C63 1.678 . S
C1045 C319 1.483 . S
C1037 C73 1.417 . S
C1077 C202 1.560 . S
C1069 C85 1.555 . S
C1101 C49 1.314 . S
C1109 C234 1.677 . S
