# Generated by pormake.
# Topology wbl, (4,4)-cn, num edge types: 1
# Building blocks:
#     Node 0, Type 0, BuildingBlock: MUDLON_clean_linker_0, # of connection points: 4
#     Node 1, Type 0, BuildingBlock: MUDLON_clean_linker_0, # of connection points: 4
#     Node 2, Type 0, BuildingBlock: MUDLON_clean_linker_0, # of connection points: 4
#     Node 3, Type 0, BuildingBlock: MUDLON_clean_linker_0, # of connection points: 4
#     Node 4, Type 0, BuildingBlock: MUDLON_clean_linker_0, # of connection points: 4
#     Node 5, Type 0, BuildingBlock: MUDLON_clean_linker_0, # of connection points: 4
#     Node 6, Type 0, BuildingBlock: MUDLON_clean_linker_0, # of connection points: 4
#     Node 7, Type 0, BuildingBlock: MUDLON_clean_linker_0, # of connection points: 4
#     Node 8, Type 1, BuildingBlock: QUQFOY_clean_sbu_1, # of connection points: 4
#     Node 9, Type 1, BuildingBlock: QUQFOY_clean_sbu_1, # of connection points: 4
#     Node 10, Type 1, BuildingBlock: QUQFOY_clean_sbu_1, # of connection points: 4
#     Node 11, Type 1, BuildingBlock: QUQFOY_clean_sbu_1, # of connection points: 4
#     Node 12, Type 1, BuildingBlock: QUQFOY_clean_sbu_1, # of connection points: 4
#     Node 13, Type 1, BuildingBlock: QUQFOY_clean_sbu_1, # of connection points: 4
#     Node 14, Type 1, BuildingBlock: QUQFOY_clean_sbu_1, # of connection points: 4
#     Node 15, Type 1, BuildingBlock: QUQFOY_clean_sbu_1, # of connection points: 4
#     Edge 16, Type (0, 1), BuildingBlock: ZUJKAS_clean_linker_0, # of connection points: 2
#     Edge 17, Type (0, 1), BuildingBlock: ZUJKAS_clean_linker_0, # of connection points: 2
#     Edge 18, Type (0, 1), BuildingBlock: ZUJKAS_clean_linker_0, # of connection points: 2
#     Edge 19, Type (0, 1), BuildingBlock: ZUJKAS_clean_linker_0, # of connection points: 2
#     Edge 20, Type (0, 1), BuildingBlock: ZUJKAS_clean_linker_0, # of connection points: 2
#     Edge 21, Type (0, 1), BuildingBlock: ZUJKAS_clean_linker_0, # of connection points: 2
#     Edge 22, Type (0, 1), BuildingBlock: ZUJKAS_clean_linker_0, # of connection points: 2
#     Edge 23, Type (0, 1), BuildingBlock: ZUJKAS_clean_linker_0, # of connection points: 2
#     Edge 24, Type (0, 1), BuildingBlock: ZUJKAS_clean_linker_0, # of connection points: 2
#     Edge 25, Type (0, 1), BuildingBlock: ZUJKAS_clean_linker_0, # of connection points: 2
#     Edge 26, Type (0, 1), BuildingBlock: ZUJKAS_clean_linker_0, # of connection points: 2
#     Edge 27, Type (0, 1), BuildingBlock: ZUJKAS_clean_linker_0, # of connection points: 2
#     Edge 28, Type (0, 1), BuildingBlock: ZUJKAS_clean_linker_0, # of connection points: 2
#     Edge 29, Type (0, 1), BuildingBlock: ZUJKAS_clean_linker_0, # of connection points: 2
#     Edge 30, Type (0, 1), BuildingBlock: ZUJKAS_clean_linker_0, # of connection points: 2
#     Edge 31, Type (0, 1), BuildingBlock: ZUJKAS_clean_linker_0, # of connection points: 2
#     Edge 32, Type (0, 1), BuildingBlock: ZUJKAS_clean_linker_0, # of connection points: 2
#     Edge 33, Type (0, 1), BuildingBlock: ZUJKAS_clean_linker_0, # of connection points: 2
#     Edge 34, Type (0, 1), BuildingBlock: ZUJKAS_clean_linker_0, # of connection points: 2
#     Edge 35, Type (0, 1), BuildingBlock: ZUJKAS_clean_linker_0, # of connection points: 2
#     Edge 36, Type (0, 1), BuildingBlock: ZUJKAS_clean_linker_0, # of connection points: 2
#     Edge 37, Type (0, 1), BuildingBlock: ZUJKAS_clean_linker_0, # of connection points: 2
#     Edge 38, Type (0, 1), BuildingBlock: ZUJKAS_clean_linker_0, # of connection points: 2
#     Edge 39, Type (0, 1), BuildingBlock: ZUJKAS_clean_linker_0, # of connection points: 2
#     Edge 40, Type (0, 1), BuildingBlock: ZUJKAS_clean_linker_0, # of connection points: 2
#     Edge 41, Type (0, 1), BuildingBlock: ZUJKAS_clean_linker_0, # of connection points: 2
#     Edge 42, Type (0, 1), BuildingBlock: ZUJKAS_clean_linker_0, # of connection points: 2
#     Edge 43, Type (0, 1), BuildingBlock: ZUJKAS_clean_linker_0, # of connection points: 2
#     Edge 44, Type (0, 1), BuildingBlock: ZUJKAS_clean_linker_0, # of connection points: 2
#     Edge 45, Type (0, 1), BuildingBlock: ZUJKAS_clean_linker_0, # of connection points: 2
#     Edge 46, Type (0, 1), BuildingBlock: ZUJKAS_clean_linker_0, # of connection points: 2
#     Edge 47, Type (0, 1), BuildingBlock: ZUJKAS_clean_linker_0, # of connection points: 2
# Relax obj value: 0.144
# Max RMSD: 0.208
# Mean RMSD: 0.160
data_MOF--net-wbl--node1-QUQFOY_clean_sbu_1--node2-MUDLON_clean_linker_0--edge1-ZUJKAS_clean_linker_0
_symmetry_space_group_name_H-M    P1
_symmetry_Int_Tables_number       1
_symmetry_cell_setting            triclinic
loop_
_symmetry_equiv_pos_as_xyz
'x, y, z'
_cell_length_a     65.157579
_cell_length_b     65.148491
_cell_length_c     96.247858
_cell_angle_alpha  93.387221
_cell_angle_beta   93.390229
_cell_angle_gamma 90.19233
loop_
_atom_site_label
_atom_site_type_symbol
_atom_site_fract_x
_atom_site_fract_y
_atom_site_fract_z
_atom_type_partial_charge
H0 H 0.19197 0.99712 0.3487 0.0
N1 N 0.15455 0.9882 0.33506 0.0
H2 H 0.20261 0.98948 0.37255 0.0
H3 H 0.1322 0.97074 0.35344 0.0
H4 H 0.1428 0.96293 0.37743 0.0
H5 H 0.15843 0.94996 0.32464 0.0
H6 H 0.18576 0.93603 0.31067 0.0
H7 H 0.1836 0.01097 0.32274 0.0
H8 H 0.2103 0.99738 0.3083 0.0
H9 H 0.16961 0.02655 0.34376 0.0
H10 H 0.1175 0.99428 0.32305 0.0
H11 H 0.15133 0.05896 0.34239 0.0
H12 H 0.09874 0.02672 0.32196 0.0
H13 H 0.08247 0.15944 0.34309 0.0
H14 H 0.07047 0.17623 0.36455 0.0
H15 H 0.04735 0.11783 0.37623 0.0
H16 H 0.05906 0.10133 0.35475 0.0
H17 H 0.04446 0.09247 0.33219 0.0
H18 H 0.01053 0.09641 0.32053 0.0
H19 H 0.03079 0.1528 0.30401 0.0
H20 H 0.06483 0.14861 0.31564 0.0
H21 H 0.10403 0.1075 0.35354 0.0
H22 H 0.12335 0.07587 0.35304 0.0
H23 H 0.09748 0.05971 0.3115 0.0
N24 N 0.07609 0.12056 0.33356 0.0
H25 H 0.07756 0.0911 0.31205 0.0
C26 C 0.16124 0.98432 0.34923 0.0
C27 C 0.18112 0.98966 0.35485 0.0
C28 C 0.18723 0.98521 0.3685 0.0
C29 C 0.17358 0.97551 0.37684 0.0
C30 C 0.15361 0.97055 0.37129 0.0
C31 C 0.14755 0.97489 0.35761 0.0
C32 C 0.16881 0.98144 0.32482 0.0
C33 C 0.1695 0.96041 0.32086 0.0
C34 C 0.18511 0.95251 0.31281 0.0
C35 C 0.2004 0.96555 0.30841 0.0
C36 C 0.19903 0.98682 0.31172 0.0
C37 C 0.18353 0.99468 0.31991 0.0
C38 C 0.14488 0.00789 0.33346 0.0
C39 C 0.15426 0.02642 0.33884 0.0
C40 C 0.14369 0.04498 0.33815 0.0
C41 C 0.12347 0.04546 0.33217 0.0
C42 C 0.11435 0.02698 0.3265 0.0
C43 C 0.12499 0.00842 0.32714 0.0
C44 C 0.07169 0.12921 0.34727 0.0
C45 C 0.07515 0.15026 0.35043 0.0
C46 C 0.06829 0.15979 0.36269 0.0
C47 C 0.05776 0.1484 0.37203 0.0
C48 C 0.05505 0.12712 0.36913 0.0
C49 C 0.06184 0.11763 0.35687 0.0
C50 C 0.05723 0.12036 0.32482 0.0
C51 C 0.04173 0.10551 0.32589 0.0
C52 C 0.02229 0.10783 0.31926 0.0
C53 C 0.0179 0.12505 0.31148 0.0
C54 C 0.03372 0.13927 0.30982 0.0
C55 C 0.05316 0.13693 0.31645 0.0
C56 C 0.08762 0.10134 0.33333 0.0
C57 C 0.10181 0.09701 0.34442 0.0
C58 C 0.11332 0.07896 0.34404 0.0
C59 C 0.11167 0.06499 0.33234 0.0
C60 C 0.09858 0.06978 0.32088 0.0
C61 C 0.08701 0.08782 0.32127 0.0
H62 H 0.97142 0.52562 0.58398 0.0
N63 N 0.96467 0.56131 0.57064 0.0
H64 H 0.95444 0.51472 0.60415 0.0
H65 H 0.9373 0.58227 0.58535 0.0
H66 H 0.92015 0.57134 0.6058 0.0
H67 H 0.93266 0.54754 0.55434 0.0
H68 H 0.93027 0.51573 0.53969 0.0
H69 H 0.9976 0.53756 0.56249 0.0
H70 H 0.9956 0.50666 0.54723 0.0
H71 H 0.99735 0.55396 0.58915 0.0
H72 H 0.97496 0.59494 0.55815 0.0
H73 H 0.02852 0.5743 0.59328 0.0
H74 H 0.00687 0.6151 0.56184 0.0
H75 H 0.1261 0.63302 0.60916 0.0
H76 H 0.13317 0.64576 0.63341 0.0
H77 H 0.07531 0.67801 0.63215 0.0
H78 H 0.06854 0.66549 0.60795 0.0
H79 H 0.08256 0.68225 0.58878 0.0
H80 H 0.10156 0.70821 0.57762 0.0
H81 H 0.14527 0.66223 0.56469 0.0
H82 H 0.12607 0.63619 0.57607 0.0
H83 H 0.09069 0.60203 0.58892 0.0
H84 H 0.05939 0.58196 0.58268 0.0
H85 H 0.02523 0.63829 0.57864 0.0
N86 N 0.09463 0.64244 0.59204 0.0
H87 H 0.05671 0.65809 0.58428 0.0
C88 C 0.95547 0.55479 0.583 0.0
C89 C 0.96022 0.53574 0.58858 0.0
C90 C 0.95042 0.52945 0.60011 0.0
C91 C 0.93578 0.54206 0.60645 0.0
C92 C 0.93138 0.56131 0.60113 0.0
C93 C 0.94111 0.56755 0.58947 0.0
C94 C 0.96513 0.54506 0.5597 0.0
C95 C 0.94653 0.5389 0.55257 0.0
C96 C 0.94524 0.5207 0.54412 0.0
C97 C 0.9627 0.50834 0.54241 0.0
C98 C 0.98172 0.51545 0.5486 0.0
C99 C 0.98291 0.53342 0.55728 0.0
C100 C 0.9835 0.57308 0.57341 0.0
C101 C 0.99903 0.56738 0.58323 0.0
C102 C 0.01711 0.57893 0.58546 0.0
C103 C 0.02031 0.59632 0.57785 0.0
C104 C 0.00483 0.60195 0.568 0.0
C105 C 0.98664 0.59042 0.56583 0.0
C106 C 0.09687 0.64822 0.60673 0.0
C107 C 0.11482 0.64256 0.61423 0.0
C108 C 0.11879 0.64981 0.62807 0.0
C109 C 0.10482 0.66297 0.63469 0.0
C110 C 0.08648 0.66812 0.62729 0.0
C111 C 0.08253 0.66082 0.61344 0.0
C112 C 0.10287 0.65714 0.58321 0.0
C113 C 0.09579 0.67751 0.58318 0.0
C114 C 0.10675 0.69243 0.57678 0.0
C115 C 0.12503 0.68731 0.57036 0.0
C116 C 0.13138 0.66669 0.5697 0.0
C117 C 0.12036 0.65178 0.57607 0.0
C118 C 0.07611 0.63149 0.58717 0.0
C119 C 0.07646 0.60998 0.5865 0.0
C120 C 0.05852 0.59858 0.58307 0.0
C121 C 0.03969 0.60851 0.58035 0.0
C122 C 0.03947 0.63013 0.58058 0.0
C123 C 0.05752 0.64153 0.58392 0.0
H124 H 0.61063 0.51375 0.84417 0.0
N125 N 0.57928 0.50552 0.82583 0.0
H126 H 0.62136 0.49456 0.86451 0.0
H127 H 0.55994 0.47156 0.83472 0.0
H128 H 0.57036 0.45256 0.85504 0.0
H129 H 0.57365 0.46852 0.81117 0.0
H130 H 0.59421 0.4553 0.79213 0.0
H131 H 0.60601 0.5264 0.81245 0.0
H132 H 0.62673 0.51339 0.79353 0.0
H133 H 0.57163 0.54495 0.83126 0.0
H134 H 0.54227 0.48751 0.81727 0.0
H135 H 0.53825 0.56181 0.83115 0.0
H136 H 0.50865 0.50356 0.81839 0.0
H137 H 0.44931 0.60401 0.84862 0.0
H138 H 0.43947 0.61478 0.87181 0.0
H139 H 0.41119 0.55543 0.87553 0.0
H140 H 0.42154 0.5445 0.8521 0.0
H141 H 0.40173 0.56536 0.82342 0.0
H142 H 0.38285 0.59252 0.81198 0.0
H143 H 0.43894 0.62817 0.81208 0.0
H144 H 0.45765 0.6009 0.82374 0.0
H145 H 0.47719 0.57929 0.84797 0.0
H146 H 0.51032 0.56455 0.84435 0.0
H147 H 0.48379 0.52552 0.80994 0.0
N148 N 0.44005 0.56721 0.83425 0.0
H149 H 0.44987 0.53944 0.81442 0.0
C150 C 0.5844 0.49433 0.83802 0.0
C151 C 0.60174 0.50047 0.84656 0.0
C152 C 0.6079 0.48943 0.85808 0.0
C153 C 0.59668 0.47206 0.86133 0.0
C154 C 0.57916 0.46601 0.85285 0.0
C155 C 0.57317 0.47693 0.84121 0.0
C156 C 0.58849 0.49843 0.81324 0.0
C157 C 0.58489 0.47851 0.80716 0.0
C158 C 0.59671 0.47096 0.79632 0.0
C159 C 0.6122 0.48325 0.79136 0.0
C160 C 0.61479 0.50359 0.79695 0.0
C161 C 0.60306 0.51105 0.8078 0.0
C162 C 0.55939 0.51496 0.82466 0.0
C163 C 0.55788 0.53597 0.82827 0.0
C164 C 0.53872 0.54549 0.82835 0.0
C165 C 0.52051 0.53403 0.82511 0.0
C166 C 0.5222 0.51302 0.82092 0.0
C167 C 0.54147 0.50364 0.8205 0.0
C168 C 0.43612 0.57333 0.84854 0.0
C169 C 0.44111 0.59319 0.85436 0.0
C170 C 0.43534 0.59941 0.86766 0.0
C171 C 0.42428 0.58607 0.87544 0.0
C172 C 0.41978 0.56603 0.86981 0.0
C173 C 0.42565 0.55976 0.85645 0.0
C174 C 0.43098 0.5811 0.82452 0.0
C175 C 0.41005 0.57874 0.82055 0.0
C176 C 0.39931 0.59431 0.81399 0.0
C177 C 0.40935 0.61266 0.81124 0.0
C178 C 0.43071 0.61436 0.81425 0.0
C179 C 0.44147 0.59869 0.8208 0.0
C180 C 0.46062 0.56023 0.83161 0.0
C181 C 0.47817 0.56756 0.83965 0.0
C182 C 0.49747 0.5592 0.83742 0.0
C183 C 0.49997 0.54369 0.82684 0.0
C184 C 0.48254 0.53705 0.8184 0.0
C185 C 0.46312 0.54513 0.82085 0.0
H186 H 0.57147 0.94476 0.11303 0.0
N187 N 0.55274 0.95856 0.09021 0.0
H188 H 0.55764 0.94349 0.13603 0.0
H189 H 0.5183 0.97839 0.09869 0.0
H190 H 0.50462 0.97785 0.12172 0.0
H191 H 0.52027 0.97068 0.07341 0.0
H192 H 0.49399 0.94774 0.06136 0.0
H193 H 0.55429 0.91806 0.08675 0.0
H194 H 0.52843 0.89509 0.07464 0.0
H195 H 0.58393 0.95375 0.07393 0.0
H196 H 0.54577 0.00034 0.09268 0.0
H197 H 0.60485 0.98037 0.06476 0.0
H198 H 0.56732 0.02702 0.08441 0.0
H199 H 0.68509 0.07204 0.07518 0.0
H200 H 0.69853 0.08622 0.09808 0.0
H201 H 0.63667 0.10111 0.10893 0.0
H202 H 0.62347 0.08714 0.086 0.0
H203 H 0.62192 0.10413 0.06441 0.0
H204 H 0.62424 0.13118 0.04814 0.0
H205 H 0.66917 0.09574 0.02597 0.0
H206 H 0.66678 0.06861 0.04242 0.0
H207 H 0.65418 0.03087 0.06941 0.0
H208 H 0.63003 0.0037 0.07366 0.0
H209 H 0.57943 0.04519 0.06611 0.0
N210 N 0.64615 0.0698 0.06538 0.0
H211 H 0.60386 0.07253 0.06257 0.0
C212 C 0.54605 0.9617 0.10418 0.0
C213 C 0.55712 0.95244 0.115 0.0
C214 C 0.54917 0.95177 0.12814 0.0
C215 C 0.5299 0.96044 0.13072 0.0
C216 C 0.51933 0.97072 0.12004 0.0
C217 C 0.52725 0.97125 0.10688 0.0
C218 C 0.5391 0.94593 0.08102 0.0
C219 C 0.52226 0.95419 0.07348 0.0
C220 C 0.50733 0.9411 0.0666 0.0
C221 C 0.50904 0.91966 0.06727 0.0
C222 C 0.52653 0.91156 0.07416 0.0
C223 C 0.54138 0.92459 0.08096 0.0
C224 C 0.56354 0.97491 0.08421 0.0
C225 C 0.58009 0.96974 0.07606 0.0
C226 C 0.59213 0.98502 0.07094 0.0
C227 C 0.5881 0.00595 0.07405 0.0
C228 C 0.57088 0.01112 0.0817 0.0
C229 C 0.55859 0.99576 0.08661 0.0
C230 C 0.65339 0.07851 0.0789 0.0
C231 C 0.67451 0.07842 0.08252 0.0
C232 C 0.6821 0.08642 0.09561 0.0
C233 C 0.66864 0.09473 0.10533 0.0
C234 C 0.64745 0.09502 0.10161 0.0
C235 C 0.63987 0.08696 0.08852 0.0
C236 C 0.64419 0.08423 0.0546 0.0
C237 C 0.63182 0.10183 0.05584 0.0
C238 C 0.63315 0.11734 0.04649 0.0
C239 C 0.64699 0.11565 0.03582 0.0
C240 C 0.65851 0.09756 0.03417 0.0
C241 C 0.65706 0.08201 0.04347 0.0
C242 C 0.63097 0.05368 0.06559 0.0
C243 C 0.63785 0.03395 0.06843 0.0
C244 C 0.62394 0.0184 0.0708 0.0
C245 C 0.60265 0.02215 0.07023 0.0
C246 C 0.59569 0.04179 0.06684 0.0
C247 C 0.60971 0.05746 0.06464 0.0
H248 H 0.10136 0.59836 0.94749 0.0
N249 N 0.08098 0.61268 0.96906 0.0
H250 H 0.11129 0.61727 0.92757 0.0
H251 H 0.07047 0.65217 0.96378 0.0
H252 H 0.07974 0.67089 0.94374 0.0
H253 H 0.08007 0.64565 0.98776 0.0
H254 H 0.10774 0.6559 0.00526 0.0
H255 H 0.1121 0.58961 0.97751 0.0
H256 H 0.13945 0.59928 0.99522 0.0
H257 H 0.07131 0.57312 0.96897 0.0
H258 H 0.04535 0.63371 0.97277 0.0
H259 H 0.03708 0.55788 0.9694 0.0
H260 H 0.01095 0.61891 0.97197 0.0
H261 H 0.94007 0.51782 0.94646 0.0
H262 H 0.93066 0.50851 0.92225 0.0
H263 H 0.91797 0.57227 0.91508 0.0
H264 H 0.9264 0.58136 0.93986 0.0
H265 H 0.90059 0.55944 0.9684 0.0
H266 H 0.8818 0.53402 0.98041 0.0
H267 H 0.93667 0.49716 0.98398 0.0
H268 H 0.95526 0.52257 0.97178 0.0
H269 H 0.97377 0.53852 0.95065 0.0
H270 H 0.00829 0.5522 0.95476 0.0
H271 H 0.98555 0.60107 0.98205 0.0
N272 N 0.93831 0.55631 0.95969 0.0
H273 H 0.95053 0.58798 0.97691 0.0
C274 C 0.08491 0.62368 0.95696 0.0
C275 C 0.09642 0.61411 0.94662 0.0
C276 C 0.10216 0.62494 0.93535 0.0
C277 C 0.09623 0.64551 0.93415 0.0
C278 C 0.0843 0.65498 0.94436 0.0
C279 C 0.07889 0.64423 0.95577 0.0
C280 C 0.09434 0.61701 0.98126 0.0
C281 C 0.09281 0.63534 0.98955 0.0
C282 C 0.10855 0.64109 -0.0004 0.0
C283 C 0.12593 0.62854 0.00144 0.0
C284 C 0.12645 0.60945 0.99385 0.0
C285 C 0.11082 0.60381 0.98383 0.0
C286 C 0.06081 0.60445 0.97051 0.0
C287 C 0.05813 0.5831 0.96984 0.0
C288 C 0.0385 0.57447 0.96993 0.0
C289 C 0.02101 0.58709 0.9704 0.0
C290 C 0.02392 0.60859 0.97168 0.0
C291 C 0.04365 0.61718 0.97191 0.0
C292 C 0.93363 0.55038 0.94512 0.0
C293 C 0.93509 0.52986 0.93982 0.0
C294 C 0.92995 0.52456 0.9258 0.0
C295 C 0.92359 0.53962 0.91662 0.0
C296 C 0.9225 0.5602 0.92187 0.0
C297 C 0.92744 0.56547 0.93599 0.0
C298 C 0.92924 0.54298 0.96914 0.0
C299 C 0.90868 0.54615 0.97212 0.0
C300 C 0.898 0.5316 0.97901 0.0
C301 C 0.90771 0.51348 0.98308 0.0
C302 C 0.9287 0.51085 0.98083 0.0
C303 C 0.93941 0.52549 0.97396 0.0
C304 C 0.95936 0.56257 0.96322 0.0
C305 C 0.97608 0.55222 0.95747 0.0
C306 C 0.99603 0.55997 0.96002 0.0
C307 C 0.9999 0.57793 0.96868 0.0
C308 C 0.98323 0.58754 0.97503 0.0
C309 C 0.9632 0.57999 0.97224 0.0
H310 H 0.5846 0.39861 0.19686 0.0
N311 N 0.59419 0.43185 0.21337 0.0
H312 H 0.59625 0.38982 0.17346 0.0
H313 H 0.61972 0.45503 0.19873 0.0
H314 H 0.63124 0.44645 0.17548 0.0
H315 H 0.63573 0.43698 0.21902 0.0
H316 H 0.65735 0.41636 0.23421 0.0
H317 H 0.58165 0.40706 0.2321 0.0
H318 H 0.60319 0.38672 0.24776 0.0
H319 H 0.55569 0.44289 0.20784 0.0
H320 H 0.61453 0.46686 0.22421 0.0
H321 H 0.54189 0.47779 0.2081 0.0
H322 H 0.60098 0.50177 0.22432 0.0
H323 H 0.50707 0.564 0.2007 0.0
H324 H 0.48412 0.57316 0.18108 0.0
H325 H 0.534 0.60602 0.16442 0.0
H326 H 0.55691 0.59647 0.18403 0.0
H327 H 0.56485 0.61223 0.21288 0.0
H328 H 0.55199 0.63958 0.22844 0.0
H329 H 0.50437 0.59868 0.24002 0.0
H330 H 0.51745 0.57136 0.22441 0.0
H331 H 0.53973 0.54097 0.18873 0.0
H332 H 0.54943 0.50631 0.1933 0.0
H333 H 0.57583 0.52693 0.2339 0.0
N334 N 0.5473 0.57602 0.20587 0.0
H335 H 0.566 0.56213 0.22946 0.0
C336 C 0.60102 0.42751 0.1995 0.0
C337 C 0.59471 0.40911 0.19219 0.0
C338 C 0.60146 0.40409 0.1789 0.0
C339 C 0.61458 0.4175 0.17264 0.0
C340 C 0.62089 0.43596 0.17997 0.0
C341 C 0.61431 0.44087 0.1933 0.0
C342 C 0.60699 0.42335 0.2243 0.0
C343 C 0.62843 0.42641 0.22547 0.0
C344 C 0.64082 0.41463 0.23425 0.0
C345 C 0.63204 0.39964 0.24207 0.0
C346 C 0.61048 0.39783 0.24168 0.0
C347 C 0.59813 0.40954 0.23284 0.0
C348 C 0.58606 0.45219 0.21595 0.0
C349 C 0.56548 0.45566 0.21176 0.0
C350 C 0.5577 0.47559 0.21182 0.0
C351 C 0.57041 0.49254 0.21609 0.0
C352 C 0.59076 0.48901 0.22107 0.0
C353 C 0.59855 0.46901 0.22098 0.0
C354 C 0.53378 0.57956 0.19379 0.0
C355 C 0.51307 0.57311 0.19281 0.0
C356 C 0.49995 0.57842 0.18159 0.0
C357 C 0.50719 0.59038 0.17119 0.0
C358 C 0.52797 0.59653 0.17212 0.0
C359 C 0.54109 0.59116 0.18332 0.0
C360 C 0.54205 0.5899 0.21737 0.0
C361 C 0.55204 0.60902 0.2191 0.0
C362 C 0.54465 0.6246 0.22802 0.0
C363 C 0.52702 0.62136 0.23536 0.0
C364 C 0.51781 0.60172 0.23434 0.0
C365 C 0.52529 0.58608 0.22545 0.0
C366 C 0.55081 0.55465 0.20907 0.0
C367 C 0.5468 0.53835 0.19891 0.0
C368 C 0.55252 0.51826 0.20148 0.0
C369 C 0.56304 0.51378 0.21407 0.0
C370 C 0.56753 0.52988 0.22414 0.0
C371 C 0.56163 0.55004 0.22164 0.0
H372 H 0.50087 0.04475 0.44737 0.0
N373 N 0.51284 0.02989 0.47168 0.0
H374 H 0.49215 0.02535 0.42514 0.0
H375 H 0.51367 0.98787 0.46687 0.0
H376 H 0.50504 0.96861 0.44491 0.0
H377 H 0.52297 0.00037 0.49007 0.0
H378 H 0.49987 0.98644 0.50632 0.0
H379 H 0.47844 0.0467 0.47998 0.0
H380 H 0.45579 0.03388 0.49689 0.0
H381 H 0.52663 0.06789 0.47771 0.0
H382 H 0.54707 0.00551 0.47072 0.0
H383 H 0.56211 0.08017 0.47772 0.0
H384 H 0.58224 0.01758 0.46974 0.0
H385 H 0.6469 0.11248 0.44756 0.0
H386 H 0.65366 0.12123 0.42419 0.0
H387 H 0.67712 0.06012 0.41554 0.0
H388 H 0.6693 0.05108 0.43902 0.0
H389 H 0.69281 0.06612 0.46929 0.0
H390 H 0.71781 0.08903 0.48249 0.0
H391 H 0.67208 0.13673 0.48451 0.0
H392 H 0.64688 0.11343 0.47186 0.0
H393 H 0.61893 0.09622 0.45494 0.0
H394 H 0.58528 0.08486 0.46064 0.0
H395 H 0.6126 0.03244 0.48003 0.0
N396 N 0.65552 0.07575 0.45938 0.0
H397 H 0.64644 0.04345 0.47343 0.0
C398 C 0.50768 0.0179 0.45884 0.0
C399 C 0.50173 0.02813 0.44687 0.0
C400 C 0.49688 0.01705 0.4342 0.0
C401 C 0.49782 0.99546 0.43332 0.0
C402 C 0.50385 0.98522 0.44532 0.0
C403 C 0.50883 0.99629 0.45793 0.0
C404 C 0.50209 0.02426 0.48355 0.0
C405 C 0.50842 0.00787 0.49162 0.0
C406 C 0.49523 1.00003 0.50102 0.0
C407 C 0.47569 0.0087 0.50268 0.0
C408 C 0.47041 0.02637 0.49556 0.0
C409 C 0.4834 0.0339 0.48601 0.0
C410 C 0.53412 0.03592 0.47399 0.0
C411 C 0.53884 0.05684 0.47634 0.0
C412 C 0.55911 0.06382 0.47614 0.0
C413 C 0.57509 0.04996 0.47337 0.0
C414 C 0.57045 0.02877 0.47195 0.0
C415 C 0.5502 0.0218 0.47239 0.0
C416 C 0.65739 0.0809 0.4451 0.0
C417 C 0.65303 0.1007 0.44065 0.0
C418 C 0.6572 0.10584 0.42723 0.0
C419 C 0.66617 0.09149 0.41798 0.0
C420 C 0.67001 0.07152 0.42231 0.0
C421 C 0.66561 0.06632 0.43573 0.0
C422 C 0.66818 0.08814 0.4694 0.0
C423 C 0.68803 0.08129 0.47299 0.0
C424 C 0.70223 0.09435 0.48051 0.0
C425 C 0.69684 0.11465 0.48438 0.0
C426 C 0.67658 0.12116 0.48154 0.0
C427 C 0.66223 0.10789 0.47428 0.0
C428 C 0.63533 0.0704 0.46348 0.0
C429 C 0.61787 0.08226 0.46035 0.0
C430 C 0.59846 0.07583 0.46384 0.0
C431 C 0.59605 0.05763 0.47079 0.0
C432 C 0.61372 0.04629 0.47444 0.0
C433 C 0.63309 0.05261 0.47075 0.0
H434 H 0.10429 0.0108 0.69977 0.0
N435 N 0.1103 0.03914 0.72051 0.0
H436 H 0.12498 0.00459 0.67953 0.0
H437 H 0.14443 0.06096 0.71482 0.0
H438 H 0.16533 0.05485 0.6946 0.0
H439 H 0.14684 0.04299 0.73609 0.0
H440 H 0.159 0.02049 0.75423 0.0
H441 H 0.08865 0.01095 0.73212 0.0
H442 H 0.10071 0.98821 0.75019 0.0
H443 H 0.07586 0.05051 0.70739 0.0
H444 H 0.12383 0.07262 0.7373 0.0
H445 H 0.06013 0.08435 0.70815 0.0
H446 H 0.10759 0.10637 0.73883 0.0
H447 H 0.01174 0.16556 0.70277 0.0
H448 H 0.0004 0.16995 0.67862 0.0
H449 H 0.05859 0.19874 0.67195 0.0
H450 H 0.07014 0.19353 0.69618 0.0
H451 H 0.0562 0.21709 0.72374 0.0
H452 H 0.03255 0.24159 0.73428 0.0
H453 H 0.98978 0.19207 0.7391 0.0
H454 H 0.01324 0.16786 0.72843 0.0
H455 H 0.02709 0.14175 0.71661 0.0
H456 H 0.04154 0.10839 0.72069 0.0
H457 H 0.10228 0.13575 0.72616 0.0
N458 N 0.04856 0.17816 0.71577 0.0
H459 H 0.08723 0.16962 0.72315 0.0
C460 C 0.12283 0.03622 0.70875 0.0
C461 C 0.11757 0.02047 0.69865 0.0
C462 C 0.12934 0.01704 0.6871 0.0
C463 C 0.14673 0.0293 0.68545 0.0
C464 C 0.1521 0.04508 0.69565 0.0
C465 C 0.14017 0.0486 0.70718 0.0
C466 C 0.11681 0.02851 0.73269 0.0
C467 C 0.13653 0.03136 0.73929 0.0
C468 C 0.14351 0.01841 0.74963 0.0
C469 C 0.13089 0.00245 0.75358 0.0
C470 C 0.11076 0.00047 0.74751 0.0
C471 C 0.10384 0.01337 0.73716 0.0
C472 C 0.10082 0.05896 0.72234 0.0
C473 C 0.08271 0.06264 0.71437 0.0
C474 C 0.07366 0.08201 0.71493 0.0
C475 C 0.08241 0.09822 0.72367 0.0
C476 C 0.10049 0.09438 0.73188 0.0
C477 C 0.10972 0.07498 0.73113 0.0
C478 C 0.04193 0.17913 0.70128 0.0
C479 C 0.02226 0.17243 0.69611 0.0
C480 C 0.01567 0.17519 0.68228 0.0
C481 C 0.02852 0.18485 0.67336 0.0
C482 C 0.04839 0.19104 0.67848 0.0
C483 C 0.05499 0.18818 0.69231 0.0
C484 C 0.03664 0.19063 0.72517 0.0
C485 C 0.04201 0.21145 0.7275 0.0
C486 C 0.02844 0.22543 0.73352 0.0
C487 C 0.00912 0.21883 0.73736 0.0
C488 C 0.00439 0.1977 0.73601 0.0
C489 C 0.01799 0.18373 0.72997 0.0
C490 C 0.05604 0.15847 0.71984 0.0
C491 C 0.04336 0.1409 0.71923 0.0
C492 C 0.0518 0.12156 0.72129 0.0
C493 C 0.07319 0.11916 0.72356 0.0
C494 C 0.08574 0.13689 0.72463 0.0
C495 C 0.07719 0.1563 0.72286 0.0
O496 O 0.36264 0.69421 0.00795 0.0
Cd497 Cd 0.35466 0.7126 0.02497 0.0
Cd498 Cd 0.39067 0.69774 0.03663 0.0
O499 O 0.39033 0.68071 0.01791 0.0
O500 O 0.325 0.71814 0.02116 0.0
O501 O 0.33685 0.70059 0.03889 0.0
C502 C 0.32134 0.70774 0.03174 0.0
C503 C 0.40134 0.6804 0.05635 0.0
C504 C 0.37773 0.68194 0.00742 0.0
C505 C 0.38746 0.74366 0.03346 0.0
O506 O 0.39844 0.72849 0.03694 0.0
O507 O 0.36898 0.74085 0.02874 0.0
O508 O 0.41407 0.68564 0.04744 0.0
O509 O 0.38223 0.6851 0.05412 0.0
O510 O 0.43241 0.86492 0.30407 0.0
Cd511 Cd 0.41919 0.85084 0.28599 0.0
Cd512 Cd 0.4534 0.86507 0.27469 0.0
O513 O 0.4575 0.88015 0.29414 0.0
O514 O 0.38952 0.84787 0.28925 0.0
O515 O 0.40122 0.86843 0.27393 0.0
C516 C 0.38588 0.86151 0.28024 0.0
C517 C 0.45953 0.88389 0.25541 0.0
C518 C 0.44766 0.87721 0.30487 0.0
C519 C 0.44725 0.81895 0.27456 0.0
O520 O 0.45908 0.83387 0.27245 0.0
O521 O 0.42977 0.82232 0.2794 0.0
O522 O 0.47434 0.87772 0.26356 0.0
O523 O 0.44094 0.87951 0.25827 0.0
O524 O 0.25442 0.90804 0.5164 0.0
Cd525 Cd 0.2663 0.8978 0.53506 0.0
Cd526 Cd 0.23314 0.91655 0.54535 0.0
O527 O 0.22927 0.9261 0.52528 0.0
O528 O 0.29598 0.89237 0.53286 0.0
O529 O 0.28468 0.91738 0.54699 0.0
C530 C 0.29994 0.90795 0.54151 0.0
C531 C 0.22837 0.94041 0.56398 0.0
C532 C 0.23931 0.92014 0.51487 0.0
C533 C 0.23591 0.87049 0.54691 0.0
O534 O 0.22525 0.88662 0.5487 0.0
O535 O 0.25357 0.87154 0.54205 0.0
O536 O 0.21315 0.93318 0.556 0.0
O537 O 0.24663 0.93439 0.56121 0.0
O538 O 0.19639 0.7653 0.76795 0.0
Cd539 Cd 0.21174 0.77762 0.78587 0.0
Cd540 Cd 0.19407 0.74527 0.79785 0.0
O541 O 0.17904 0.74218 0.77837 0.0
O542 O 0.21786 0.80668 0.78231 0.0
O543 O 0.19658 0.79778 0.79807 0.0
C544 C 0.20508 0.81208 0.79157 0.0
C545 C 0.17456 0.73766 0.81656 0.0
C546 C 0.18292 0.75109 0.76742 0.0
C547 C 0.24058 0.7465 0.79713 0.0
O548 O 0.22454 0.73661 0.79974 0.0
O549 O 0.23906 0.76408 0.7921 0.0
O550 O 0.17981 0.72366 0.80749 0.0
O551 O 0.18034 0.75634 0.81508 0.0
O552 O 0.93067 0.25215 0.53918 0.0
Cd553 Cd 0.91358 0.26184 0.52219 0.0
Cd554 Cd 0.92975 0.22818 0.50872 0.0
O555 O 0.94353 0.22477 0.52836 0.0
O556 O 0.906 0.29077 0.52696 0.0
O557 O 0.92638 0.28184 0.51002 0.0
C558 C 0.91727 0.29612 0.51719 0.0
C559 C 0.95058 0.2224 0.48995 0.0
C560 C 0.94192 0.23627 0.53938 0.0
C561 C 0.88363 0.23008 0.50966 0.0
O562 O 0.89904 0.22045 0.50513 0.0
O563 O 0.88605 0.24698 0.51684 0.0
O564 O 0.94397 0.20753 0.49675 0.0
O565 O 0.94533 0.24088 0.49382 0.0
O566 O 0.85137 0.43351 0.78033 0.0
Cd567 Cd 0.84093 0.4168 0.76246 0.0
Cd568 Cd 0.87083 0.43778 0.75079 0.0
O569 O 0.87167 0.45408 0.7699 0.0
O570 O 0.81249 0.40799 0.76577 0.0
O571 O 0.81964 0.42962 0.74978 0.0
C572 C 0.80607 0.41998 0.75625 0.0
C573 C 0.87425 0.45687 0.73121 0.0
C574 C 0.86336 0.44897 0.78081 0.0
C575 C 0.87519 0.39151 0.75208 0.0
O576 O 0.88336 0.40857 0.7496 0.0
O577 O 0.8573 0.39105 0.75664 0.0
O578 O 0.88951 0.45403 0.73999 0.0
O579 O 0.85669 0.44893 0.73357 0.0
O580 O 0.70308 0.35726 0.03525 0.0
Cd581 Cd 0.71536 0.34794 0.01666 0.0
Cd582 Cd 0.69507 0.38102 0.0074 0.0
O583 O 0.68293 0.38115 0.02673 0.0
O584 O 0.72213 0.31838 0.01808 0.0
O585 O 0.69771 0.32945 0.00341 0.0
C586 C 0.70738 0.31424 0.00878 0.0
C587 C 0.67362 0.38739 0.98782 0.0
C588 C 0.68923 0.37073 0.03687 0.0
C589 C 0.74151 0.38158 0.00768 0.0
O590 O 0.72479 0.39146 0.00636 0.0
O591 O 0.74133 0.36301 0.01106 0.0
O592 O 0.67839 0.40161 0.99734 0.0
O593 O 0.6805 0.3691 0.98962 0.0
O594 O 0.761 0.1845 0.2431 0.0
Cd595 Cd 0.77314 0.19783 0.26181 0.0
Cd596 Cd 0.76305 0.16088 0.2713 0.0
O597 O 0.74962 0.15608 0.25143 0.0
O598 O 0.77395 0.22785 0.25908 0.0
O599 O 0.75393 0.21399 0.27384 0.0
C600 C 0.75997 0.23012 0.26797 0.0
C601 C 0.74423 0.15272 0.29013 0.0
C602 C 0.75135 0.16748 0.2413 0.0
C603 C 0.80794 0.17237 0.27279 0.0
O604 O 0.79456 0.15846 0.27406 0.0
O605 O 0.8025 0.18982 0.26866 0.0
O606 O 0.75183 0.13863 0.28202 0.0
O607 O 0.74707 0.17168 0.28743 0.0
H608 H 0.2405 0.97824 0.31246 0.0
H609 H 0.27085 0.96167 0.30352 0.0
H610 H 0.23252 0.91536 0.28093 0.0
H611 H 0.20186 0.93252 0.28924 0.0
H612 H 0.28223 0.9238 0.30964 0.0
H613 H 0.27329 0.92731 0.25219 0.0
H614 H 0.25833 0.94298 0.2639 0.0
H615 H 0.25136 0.91652 0.25964 0.0
C616 C 0.23837 0.96496 0.30521 0.0
C617 C 0.21864 0.95676 0.30159 0.0
C618 C 0.25582 0.95538 0.30019 0.0
C619 C 0.25399 0.93735 0.29147 0.0
C620 C 0.23432 0.92946 0.28744 0.0
H621 H 0.35007 0.84629 0.28886 0.0
H622 H 0.31709 0.86386 0.2898 0.0
C623 C 0.2168 0.93915 0.29237 0.0
C624 C 0.27273 0.92572 0.28795 0.0
H625 H 0.29922 0.90479 0.261 0.0
C626 C 0.28597 0.91976 0.299 0.0
C627 C 0.27767 0.92054 0.27405 0.0
C628 C 0.26453 0.92733 0.26175 0.0
C629 C 0.3039 0.90864 0.29658 0.0
C630 C 0.30851 0.90284 0.28272 0.0
C631 C 0.29548 0.90902 0.27162 0.0
C632 C 0.32709 0.89068 0.27975 0.0
C633 C 0.31793 0.90349 0.30893 0.0
C634 C 0.34324 0.89941 0.27303 0.0
C635 C 0.36211 0.88928 0.27233 0.0
C636 C 0.36507 0.87032 0.2784 0.0
C637 C 0.34836 0.86099 0.28423 0.0
C638 C 0.32951 0.87103 0.28481 0.0
H639 H 0.31495 0.91338 0.31839 0.0
H640 H 0.31529 0.88727 0.31132 0.0
H641 H 0.33432 0.90527 0.30665 0.0
H642 H 0.34162 0.91453 0.26899 0.0
H643 H 0.37468 0.89684 0.26775 0.0
H644 H 0.11362 0.72089 0.55589 0.0
H645 H 0.13538 0.74996 0.55086 0.0
H646 H 0.18829 0.72016 0.56947 0.0
H647 H 0.16664 0.69127 0.57478 0.0
H648 H 0.18213 0.76097 0.58003 0.0
H649 H 0.1798 0.75515 0.52217 0.0
H650 H 0.15507 0.75413 0.52944 0.0
H651 H 0.1732 0.73388 0.53232 0.0
C652 C 0.12993 0.72044 0.55877 0.0
C653 C 0.13841 0.70376 0.5657 0.0
C654 C 0.14236 0.73697 0.55579 0.0
C655 C 0.16347 0.73708 0.55968 0.0
C656 C 0.17206 0.72026 0.5663 0.0
H657 H 0.25076 0.8321 0.54007 0.0
H658 H 0.23474 0.79887 0.54362 0.0
C659 C 0.15968 0.70371 0.56923 0.0
C660 C 0.17623 0.75546 0.55786 0.0
H661 H 0.19309 0.78642 0.53344 0.0
C662 C 0.18469 0.76645 0.56984 0.0
C663 C 0.17968 0.76243 0.54456 0.0
C664 C 0.17163 0.75071 0.53136 0.0
C665 C 0.19597 0.78464 0.56888 0.0
C666 C 0.1987 0.79205 0.55561 0.0
C667 C 0.19084 0.78072 0.5436 0.0
C668 C 0.2089 0.81202 0.55402 0.0
C669 C 0.20479 0.79586 0.58206 0.0
C670 C 0.19964 0.83033 0.55871 0.0
C671 C 0.20866 0.8493 0.55666 0.0
C672 C 0.22716 0.85031 0.54988 0.0
C673 C 0.23657 0.83187 0.54538 0.0
C674 C 0.22743 0.81288 0.54735 0.0
H675 H 0.20563 0.78578 0.591 0.0
H676 H 0.22043 0.8019 0.5806 0.0
H677 H 0.19482 0.80911 0.58475 0.0
H678 H 0.1852 0.82996 0.56372 0.0
H679 H 0.20099 0.86318 0.56024 0.0
H680 H 0.3762 0.61312 0.7923 0.0
H681 H 0.35218 0.64131 0.78888 0.0
H682 H 0.39048 0.68117 0.81695 0.0
H683 H 0.41413 0.65282 0.82088 0.0
H684 H 0.35164 0.6806 0.82448 0.0
H685 H 0.35116 0.69345 0.76822 0.0
H686 H 0.34712 0.66686 0.77118 0.0
H687 H 0.37116 0.67911 0.77705 0.0
C688 C 0.37968 0.62797 0.79758 0.0
C689 C 0.39704 0.63065 0.80692 0.0
C690 C 0.36605 0.64417 0.79548 0.0
C691 C 0.36962 0.66344 0.80255 0.0
C692 C 0.38749 0.66647 0.81132 0.0
H693 H 0.27807 0.76084 0.79013 0.0
H694 H 0.31128 0.74337 0.79223 0.0
C695 C 0.4011 0.65026 0.81346 0.0
C696 C 0.35348 0.67944 0.80215 0.0
H697 H 0.3211 0.70493 0.78001 0.0
C698 C 0.34522 0.6862 0.81476 0.0
C699 C 0.34524 0.68698 0.78952 0.0
C700 C 0.35429 0.68138 0.77575 0.0
C701 C 0.32825 0.69937 0.81502 0.0
C702 C 0.31906 0.70565 0.8023 0.0
C703 C 0.32801 0.69988 0.78975 0.0
C704 C 0.29933 0.7169 0.80173 0.0
C705 C 0.32011 0.70617 0.82889 0.0
C706 C 0.28164 0.70778 0.80636 0.0
C707 C 0.26271 0.71767 0.80519 0.0
C708 C 0.26102 0.73687 0.79928 0.0
C709 C 0.27884 0.74612 0.7948 0.0
C710 C 0.29781 0.73615 0.79595 0.0
H711 H 0.33225 0.70561 0.83747 0.0
H712 H 0.31396 0.72204 0.82878 0.0
H713 H 0.30748 0.69566 0.8312 0.0
H714 H 0.28238 0.69274 0.8106 0.0
H715 H 0.24932 0.71005 0.8087 0.0
H716 H 0.48771 0.91905 0.04174 0.0
H717 H 0.46089 0.89427 0.03261 0.0
H718 H 0.46582 0.86406 0.07135 0.0
H719 H 0.49217 0.8887 0.0805 0.0
H720 H 0.46611 0.85154 0.02939 0.0
H721 H 0.40366 0.87008 0.06436 0.0
H722 H 0.42452 0.88774 0.06218 0.0
H723 H 0.42785 0.86737 0.07396 0.0
C724 C 0.48279 0.90728 0.04833 0.0
C725 C 0.49211 0.90566 0.06177 0.0
C726 C 0.46754 0.89317 0.04312 0.0
C727 C 0.46116 0.87755 0.0514 0.0
C728 C 0.47019 0.87624 0.0649 0.0
H729 H 0.42719 0.7544 0.04116 0.0
H730 H 0.44252 0.78867 0.04303 0.0
C731 C 0.48545 0.89016 0.07004 0.0
C732 C 0.44648 0.86134 0.04573 0.0
H733 H 0.40405 0.83505 0.05421 0.0
C734 C 0.45225 0.8482 0.03458 0.0
C735 C 0.42825 0.85717 0.05236 0.0
C736 C 0.42058 0.87149 0.06379 0.0
C737 C 0.44118 0.83006 0.03066 0.0
C738 C 0.42411 0.8249 0.03822 0.0
C739 C 0.41734 0.83889 0.04857 0.0
C740 C 0.41455 0.80419 0.03656 0.0
C741 C 0.44828 0.81623 0.01879 0.0
C742 C 0.39357 0.80161 0.03266 0.0
C743 C 0.38467 0.78195 0.03163 0.0
C744 C 0.39658 0.7646 0.03465 0.0
C745 C 0.41754 0.76737 0.03871 0.0
C746 C 0.4264 0.78695 0.03967 0.0
H747 H 0.45681 0.82504 0.01142 0.0
H748 H 0.45883 0.80449 0.02304 0.0
H749 H 0.4351 0.80816 0.01297 0.0
H750 H 0.38413 0.81479 0.03038 0.0
H751 H 0.36847 0.78035 0.02851 0.0
H752 H 0.12854 0.64857 0.02756 0.0
H753 H 0.15974 0.66264 0.0404 0.0
H754 H 0.19605 0.64062 0.0066 0.0
H755 H 0.16535 0.62644 0.99397 0.0
H756 H 0.21427 0.63294 0.03187 0.0
H757 H 0.18928 0.71459 0.03102 0.0
H758 H 0.17317 0.69713 0.03931 0.0
H759 H 0.17562 0.69422 0.02082 0.0
C760 C 0.14324 0.6467 0.02295 0.0
C761 C 0.14452 0.63627 0.00981 0.0
C762 C 0.16101 0.65478 0.03026 0.0
C763 C 0.18021 0.65282 0.02441 0.0
C764 C 0.18144 0.64219 0.01139 0.0
H765 H 0.28659 0.71667 0.01632 0.0
H766 H 0.25187 0.70439 0.01895 0.0
C767 C 0.16385 0.63401 0.00418 0.0
C768 C 0.19924 0.66224 0.03129 0.0
H769 H 0.22359 0.70855 0.03796 0.0
C770 C 0.21629 0.64946 0.03349 0.0
C771 C 0.20173 0.68379 0.03342 0.0
C772 C 0.18407 0.69833 0.03097 0.0
C773 C 0.2361 0.65765 0.03654 0.0
C774 C 0.2388 0.67927 0.03791 0.0
C775 C 0.22146 0.69199 0.0369 0.0
C776 C 0.25949 0.68891 0.03786 0.0
C777 C 0.25407 0.64308 0.03708 0.0
C778 C 0.27531 0.68492 0.04789 0.0
C779 C 0.29543 0.69167 0.04626 0.0
C780 C 0.29991 0.70284 0.03473 0.0
C781 C 0.28374 0.708 0.02529 0.0
C782 C 0.2638 0.70105 0.02681 0.0
H783 H 0.24954 0.62713 0.03339 0.0
H784 H 0.26639 0.64826 0.03059 0.0
H785 H 0.2605 0.6427 0.048 0.0
H786 H 0.27225 0.67604 0.0567 0.0
H787 H 0.30754 0.68766 0.0538 0.0
H788 H 0.48616 0.63066 0.23467 0.0
H789 H 0.47043 0.66249 0.24349 0.0
H790 H 0.52957 0.68438 0.26079 0.0
H791 H 0.54544 0.65237 0.25224 0.0
H792 H 0.49386 0.693 0.27811 0.0
H793 H 0.4834 0.71625 0.22341 0.0
H794 H 0.47326 0.69145 0.22682 0.0
H795 H 0.50053 0.69587 0.22839 0.0
C796 C 0.49575 0.64198 0.24069 0.0
C797 C 0.51709 0.63905 0.24269 0.0
C798 C 0.48675 0.66022 0.24561 0.0
C799 C 0.49891 0.67583 0.2526 0.0
C800 C 0.51997 0.6725 0.25535 0.0
H801 H 0.48206 0.80635 0.26214 0.0
H802 H 0.49368 0.77116 0.25743 0.0
C803 C 0.52901 0.65428 0.25041 0.0
C804 C 0.49004 0.69626 0.256 0.0
H805 H 0.47129 0.73905 0.24094 0.0
C806 C 0.4888 0.70306 0.27002 0.0
C807 C 0.4837 0.70936 0.24537 0.0
C808 C 0.48538 0.70302 0.23014 0.0
C809 C 0.48131 0.72272 0.2737 0.0
C810 C 0.47489 0.73576 0.26306 0.0
C811 C 0.47612 0.72892 0.24905 0.0
C812 C 0.46773 0.75697 0.2662 0.0
C813 C 0.4808 0.72965 0.28891 0.0
C814 C 0.44916 0.76059 0.27256 0.0
C815 C 0.44238 0.78073 0.27522 0.0
C816 C 0.45411 0.79756 0.27156 0.0
C817 C 0.47267 0.79378 0.26512 0.0
C818 C 0.47935 0.77368 0.26242 0.0
H819 H 0.48963 0.71923 0.29574 0.0
H820 H 0.48715 0.74547 0.2908 0.0
H821 H 0.46463 0.72989 0.29193 0.0
H822 H 0.43984 0.74785 0.27537 0.0
H823 H 0.42801 0.78308 0.28017 0.0
H824 H 0.48112 0.98842 0.52707 0.0
H825 H 0.45532 0.96833 0.53816 0.0
H826 H 0.40911 0.9855 0.50715 0.0
H827 H 0.43461 0.00463 0.49572 0.0
H828 H 0.41661 0.97894 0.54913 0.0
H829 H 0.40763 0.92253 0.50394 0.0
H830 H 0.42896 0.94041 0.50633 0.0
H831 H 0.40453 0.94843 0.49883 0.0
C832 C 0.46546 0.98788 0.52261 0.0
C833 C 0.46001 0.99817 0.51047 0.0
C834 C 0.45074 0.97651 0.52901 0.0
C835 C 0.43041 0.97518 0.52332 0.0
C836 C 0.42479 0.98607 0.51158 0.0
H837 H 0.31231 0.94729 0.549 0.0
H838 H 0.34672 0.96166 0.54761 0.0
C839 C 0.43941 0.99727 0.50516 0.0
C840 C 0.41492 0.96199 0.52919 0.0
H841 H 0.37985 0.92428 0.51926 0.0
C842 C 0.40876 0.96672 0.54273 0.0
C843 C 0.40507 0.9457 0.52098 0.0
C844 C 0.41204 0.93881 0.50677 0.0
C845 C 0.39205 0.95644 0.54792 0.0
C846 C 0.38099 0.94145 0.53917 0.0
C847 C 0.38809 0.93589 0.52598 0.0
C848 C 0.36116 0.93237 0.54282 0.0
C849 C 0.3864 0.9619 0.56264 0.0
C850 C 0.35767 0.91108 0.54069 0.0
C851 C 0.33787 0.90294 0.54108 0.0
C852 C 0.3212 0.91587 0.54383 0.0
C853 C 0.3249 0.93693 0.54699 0.0
C854 C 0.34466 0.94515 0.54631 0.0
H855 H 0.40019 0.96684 0.56937 0.0
H856 H 0.37554 0.97499 0.56261 0.0
H857 H 0.37901 0.94876 0.56728 0.0
H858 H 0.3701 0.90087 0.538 0.0
H859 H 0.33546 0.88662 0.53866 0.0
H860 H 0.1684 0.98405 0.75307 0.0
H861 H 0.18037 0.95465 0.7658 0.0
H862 H 0.12438 0.95516 0.78756 0.0
H863 H 0.11218 0.98465 0.77477 0.0
H864 H 0.18674 0.94653 0.79403 0.0
H865 H 0.12377 0.89808 0.76752 0.0
H866 H 0.12977 0.92332 0.7621 0.0
H867 H 0.11588 0.92057 0.77747 0.0
C868 C 0.1588 0.97825 0.76079 0.0
C869 C 0.13925 0.9866 0.76283 0.0
C870 C 0.16565 0.96138 0.76803 0.0
C871 C 0.15311 0.95249 0.77744 0.0
C872 C 0.13411 0.96151 0.78012 0.0
H873 H 0.17306 0.82808 0.80589 0.0
H874 H 0.16044 0.86352 0.80608 0.0
C875 C 0.12718 0.97836 0.77282 0.0
C876 C 0.15946 0.93293 0.78351 0.0
H877 H 0.14809 0.88162 0.78177 0.0
C878 C 0.17816 0.93236 0.79152 0.0
C879 C 0.14821 0.91447 0.78025 0.0
C880 C 0.12837 0.91397 0.77129 0.0
C881 C 0.18623 0.91372 0.79596 0.0
C882 C 0.17546 0.89518 0.79212 0.0
C883 C 0.15628 0.89588 0.78474 0.0
C884 C 0.18477 0.87473 0.79411 0.0
C885 C 0.20641 0.91401 0.8045 0.0
C886 C 0.20277 0.86936 0.78749 0.0
C887 C 0.20993 0.84919 0.78731 0.0
C888 C 0.1992 0.83392 0.79371 0.0
C889 C 0.18171 0.83951 0.80091 0.0
C890 C 0.17447 0.85973 0.80101 0.0
H891 H 0.20904 0.92903 0.81043 0.0
H892 H 0.20703 0.90159 0.81193 0.0
H893 H 0.21914 0.91167 0.79741 0.0
H894 H 0.21072 0.88054 0.78182 0.0
H895 H 0.22345 0.84541 0.78167 0.0
H896 H 0.62827 0.50102 0.76919 0.0
H897 H 0.65753 0.48889 0.7562 0.0
H898 H 0.65974 0.43379 0.77895 0.0
H899 H 0.63065 0.44575 0.79192 0.0
H900 H 0.69471 0.48318 0.76902 0.0
H901 H 0.6702 0.41059 0.7402 0.0
H902 H 0.65205 0.42887 0.74709 0.0
H903 H 0.66433 0.41062 0.75816 0.0
C904 C 0.63474 0.48612 0.7712 0.0
C905 C 0.62717 0.47439 0.78162 0.0
C906 C 0.65139 0.47918 0.76373 0.0
C907 C 0.66071 0.46032 0.76648 0.0
C908 C 0.6525 0.44812 0.77636 0.0
H909 H 0.77445 0.40127 0.76798 0.0
H910 H 0.73839 0.41128 0.7671 0.0
C911 C 0.63584 0.45502 0.78381 0.0
C912 C 0.68068 0.45477 0.76065 0.0
H913 H 0.70688 0.41474 0.7457 0.0
C914 C 0.69729 0.46842 0.7636 0.0
C915 C 0.68403 0.4355 0.75362 0.0
C916 C 0.66663 0.42066 0.74946 0.0
C917 C 0.71738 0.4628 0.76059 0.0
C918 C 0.7209 0.4431 0.75421 0.0
C919 C 0.70415 0.42983 0.7506 0.0
C920 C 0.74204 0.43522 0.75278 0.0
C921 C 0.73482 0.47749 0.76509 0.0
C922 C 0.75593 0.44486 0.7446 0.0
C923 C 0.77668 0.43923 0.74513 0.0
C924 C 0.78379 0.42381 0.75382 0.0
C925 C 0.76953 0.41331 0.76127 0.0
C926 C 0.74887 0.41896 0.76074 0.0
H927 H 0.72982 0.49054 0.77202 0.0
H928 H 0.74751 0.46938 0.77066 0.0
H929 H 0.741 0.4839 0.75574 0.0
H930 H 0.75088 0.45723 0.73821 0.0
H931 H 0.78725 0.44752 0.7392 0.0
H932 H 0.61892 0.14141 0.02361 0.0
H933 H 0.62607 0.17342 0.01255 0.0
H934 H 0.69118 0.16287 0.01897 0.0
H935 H 0.68415 0.13088 0.02973 0.0
H936 H 0.64463 0.20582 0.02519 0.0
H937 H 0.6895 0.18187 0.98026 0.0
H938 H 0.675 0.16374 0.98932 0.0
H939 H 0.70051 0.1716 0.99585 0.0
C940 C 0.63474 0.14576 0.0224 0.0
C941 C 0.65097 0.13358 0.02748 0.0
C942 C 0.63881 0.164 0.01605 0.0
C943 C 0.65918 0.17042 0.01469 0.0
C944 C 0.67536 0.15798 0.01945 0.0
H945 H 0.72778 0.27942 0.0155 0.0
H946 H 0.71424 0.24429 0.01384 0.0
C947 C 0.6713 0.13968 0.02567 0.0
C948 C 0.66365 0.19121 0.00998 0.0
H949 H 0.695 0.21712 0.98967 0.0
C950 C 0.65524 0.20828 0.01717 0.0
C951 C 0.67749 0.19446 -0.00049 0.0
C952 C 0.68595 0.1769 0.99071 0.0
C953 C 0.66127 0.2284 0.0148 0.0
C954 C 0.67602 0.23155 0.00494 0.0
C955 C 0.68374 0.21461 0.99727 0.0
C956 C 0.68511 0.25215 0.00364 0.0
C957 C 0.65273 0.24612 0.02344 0.0
C958 C 0.67345 0.26804 0.99799 0.0
C959 C 0.68119 0.28819 0.99886 0.0
C960 C 0.70063 0.2927 0.0055 0.0
C961 C 0.7127 0.27648 0.0104 0.0
C962 C 0.70502 0.25638 0.00943 0.0
H963 H 0.6431 0.24087 0.03171 0.0
H964 H 0.66545 0.25588 0.02841 0.0
H965 H 0.64314 0.25584 0.01657 0.0
H966 H 0.65806 0.265 0.99342 0.0
H967 H 0.67152 0.30035 0.99499 0.0
H968 H 0.00493 0.13914 0.28611 0.0
H969 H 0.96977 0.14816 0.27824 0.0
H970 H 0.94758 0.12895 0.31678 0.0
H971 H 0.98256 0.12035 0.32484 0.0
H972 H 0.93302 0.12293 0.27537 0.0
H973 H 0.9273 0.189 0.31407 0.0
H974 H 0.95155 0.17757 0.30987 0.0
H975 H 0.93528 0.16541 0.32144 0.0
C976 C 0.99254 0.13687 0.2929 0.0
C977 C 0.99653 0.12906 0.30611 0.0
C978 C 0.9725 0.14194 0.28837 0.0
C979 C 0.95618 0.13949 0.29703 0.0
C980 C 0.96003 0.13122 0.31004 0.0
H981 H 0.82501 0.13632 0.28083 0.0
H982 H 0.86135 0.12899 0.28576 0.0
C983 C 0.98 0.12609 0.31455 0.0
C984 C 0.9351 0.14567 0.29257 0.0
H985 H 0.89622 0.17785 0.30162 0.0
C986 C 0.92499 0.13503 0.28103 0.0
C987 C 0.92482 0.16165 0.29987 0.0
C988 C 0.93532 0.17423 0.31193 0.0
C989 C 0.90455 0.1395 0.27688 0.0
C990 C 0.89397 0.15485 0.28458 0.0
C991 C 0.90432 0.16596 0.29582 0.0
C992 C 0.87198 0.1593 0.28136 0.0
C993 C 0.89446 0.12781 0.26428 0.0
C994 C 0.86588 0.17894 0.27759 0.0
C995 C 0.84507 0.18324 0.27483 0.0
C996 C 0.82999 0.168 0.2759 0.0
C997 C 0.8362 0.1484 0.27984 0.0
C998 C 0.85699 0.14412 0.28257 0.0
H999 H 0.90602 0.12075 0.25746 0.0
H1000 H 0.8848 0.11527 0.26777 0.0
H1001 H 0.8844 0.13801 0.25806 0.0
H1002 H 0.87724 0.1909 0.27671 0.0
H1003 H 0.84084 0.1985 0.27185 0.0
H1004 H 0.93698 0.49457 0.51992 0.0
H1005 H 0.92935 0.45877 0.51208 0.0
H1006 H 0.97648 0.43839 0.54135 0.0
H1007 H 0.98335 0.47372 0.54986 0.0
H1008 H 0.95164 0.42472 0.50153 0.0
H1009 H 0.92418 0.4123 0.55384 0.0
H1010 H 0.92968 0.43755 0.54822 0.0
H1011 H 0.95023 0.42146 0.55445 0.0
C1012 C 0.94576 0.48248 0.52469 0.0
C1013 C 0.96057 0.48715 0.53571 0.0
C1014 C 0.94151 0.46204 0.52009 0.0
C1015 C 0.95206 0.44594 0.52636 0.0
C1016 C 0.9679 0.45059 0.53656 0.0
H1017 H 0.95012 0.31432 0.50628 0.0
H1018 H 0.95749 0.35125 0.5065 0.0
C1019 C 0.97199 0.47092 0.54128 0.0
C1020 C 0.94538 0.42432 0.52323 0.0
H1021 H 0.92775 0.3826 0.53879 0.0
C1022 C 0.94628 0.41548 0.50962 0.0
C1023 C 0.93799 0.41247 0.53375 0.0
C1024 C 0.93524 0.42146 0.54835 0.0
C1025 C 0.94049 0.39484 0.50635 0.0
C1026 C 0.93403 0.38274 0.51705 0.0
C1027 C 0.93278 0.3918 0.53058 0.0
C1028 C 0.9285 0.36061 0.51474 0.0
C1029 C 0.94105 0.38635 0.49146 0.0
C1030 C 0.90978 0.35353 0.51924 0.0
C1031 C 0.90581 0.33251 0.51946 0.0
C1032 C 0.92036 0.31811 0.51499 0.0
C1033 C 0.93858 0.32512 0.50968 0.0
C1034 C 0.94274 0.34623 0.50972 0.0
H1035 H 0.93992 0.39879 0.48404 0.0
H1036 H 0.95588 0.37838 0.49008 0.0
H1037 H 0.92837 0.37514 0.48874 0.0
H1038 H 0.89854 0.3643 0.52314 0.0
H1039 H 0.89157 0.32753 0.52351 0.0
H1040 H 0.70627 0.15063 0.47347 0.0
H1041 H 0.73667 0.17221 0.47934 0.0
H1042 H 0.75416 0.134 0.51317 0.0
H1043 H 0.72423 0.11172 0.50679 0.0
H1044 H 0.75209 0.19524 0.50056 0.0
H1045 H 0.80427 0.12937 0.49155 0.0
H1046 H 0.77694 0.12745 0.48761 0.0
H1047 H 0.78742 0.12552 0.50523 0.0
C1048 C 0.71645 0.14706 0.4823 0.0
C1049 C 0.71306 0.1295 0.48964 0.0
C1050 C 0.73384 0.15935 0.48563 0.0
C1051 C 0.74803 0.15442 0.49646 0.0
C1052 C 0.74382 0.13771 0.50447 0.0
H1053 H 0.8506 0.23611 0.52551 0.0
H1054 H 0.8173 0.21854 0.52257 0.0
C1055 C 0.72665 0.12513 0.50093 0.0
C1056 C 0.76763 0.16615 0.4988 0.0
H1057 H 0.81977 0.1607 0.50034 0.0
C1058 C 0.76691 0.1877 0.50049 0.0
C1059 C 0.78698 0.15635 0.49841 0.0
C1060 C 0.789 0.13344 0.49545 0.0
C1061 C 0.78495 0.1997 0.50178 0.0
C1062 C 0.80428 0.18983 0.50192 0.0
C1063 C 0.80497 0.16829 0.50031 0.0
C1064 C 0.82408 0.20137 0.50344 0.0
C1065 C 0.78299 0.22282 0.50248 0.0
C1066 C 0.83925 0.19723 0.49389 0.0
C1067 C 0.85851 0.2068 0.49578 0.0
C1068 C 0.86287 0.22095 0.50715 0.0
C1069 C 0.84755 0.22547 0.51654 0.0
C1070 C 0.82844 0.21554 0.51481 0.0
H1071 H 0.76795 0.22766 0.49774 0.0
H1072 H 0.78395 0.22869 0.51356 0.0
H1073 H 0.79543 0.23012 0.49706 0.0
H1074 H 0.83629 0.18635 0.48503 0.0
H1075 H 0.87002 0.20305 0.48838 0.0
H1076 H 0.014 0.25435 0.75413 0.0
H1077 H 0.98875 0.28162 0.7576 0.0
H1078 H 0.94314 0.24539 0.73269 0.0
H1079 H 0.96839 0.21837 0.72881 0.0
H1080 H 0.94726 0.28486 0.72411 0.0
H1081 H 0.93831 0.28618 0.78111 0.0
H1082 H 0.96456 0.28752 0.77647 0.0
H1083 H 0.94956 0.26476 0.77156 0.0
C1084 C 0.99854 0.25209 0.74952 0.0
C1085 C 0.99323 0.23415 0.74121 0.0
C1086 C 0.98406 0.26761 0.75162 0.0
C1087 C 0.96401 0.26544 0.74552 0.0
C1088 C 0.9585 0.24731 0.73757 0.0
H1089 H 0.86437 0.35275 0.75878 0.0
H1090 H 0.88483 0.32136 0.75673 0.0
C1091 C 0.97293 0.2318 0.73547 0.0
C1092 C 0.94933 0.28274 0.7464 0.0
H1093 H 0.92487 0.31488 0.76926 0.0
C1094 C 0.94223 0.29132 0.73397 0.0
C1095 C 0.94262 0.291 0.75926 0.0
C1096 C 0.94898 0.28179 0.77286 0.0
C1097 C 0.92907 0.30832 0.73409 0.0
C1098 C 0.92308 0.31712 0.74699 0.0
C1099 C 0.92965 0.30818 0.7594 0.0
C1100 C 0.91044 0.33596 0.74784 0.0
C1101 C 0.92167 0.3167 0.72041 0.0
C1102 C 0.91811 0.35455 0.74354 0.0
C1103 C 0.9065 0.3725 0.74469 0.0
C1104 C 0.88699 0.37222 0.75021 0.0
C1105 C 0.87929 0.3535 0.75442 0.0
C1106 C 0.89097 0.33556 0.75331 0.0
H1107 H 0.92315 0.3052 0.71154 0.0
H1108 H 0.90536 0.32154 0.72064 0.0
H1109 H 0.93108 0.33036 0.7185 0.0
H1110 H 0.93324 0.35525 0.73949 0.0
H1111 H 0.91295 0.38663 0.74139 0.0
H1112 H 0.90968 0.47228 0.97597 0.0
H1113 H 0.88583 0.44538 0.98165 0.0
H1114 H 0.8533 0.48968 0.00697 0.0
H1115 H 0.87746 0.51659 0.0017 0.0
H1116 H 0.8576 0.44994 0.01828 0.0
H1117 H 0.82707 0.44606 0.96291 0.0
H1118 H 0.8542 0.44187 0.96576 0.0
H1119 H 0.84366 0.46666 0.97023 0.0
C1120 C 0.89782 0.47621 0.98306 0.0
C1121 C 0.89535 0.49664 0.98828 0.0
C1122 C 0.88408 0.46084 0.98618 0.0
C1123 C 0.86761 0.46565 0.99451 0.0
C1124 C 0.86586 0.48571 0.00044 0.0
H1125 H 0.74666 0.41993 0.99849 0.0
H1126 H 0.7788 0.43792 0.99551 0.0
C1127 C 0.87958 0.50108 0.99735 0.0
C1128 C 0.85118 0.45036 0.99611 0.0
H1129 H 0.8111 0.42498 0.97809 0.0
C1130 C 0.84756 0.44425 0.0095 0.0
C1131 C 0.83802 0.44318 0.98461 0.0
C1132 C 0.84074 0.44984 0.97007 0.0
C1133 C 0.83083 0.43143 0.01173 0.0
C1134 C 0.81753 0.42451 0.00025 0.0
C1135 C 0.82145 0.43023 0.98684 0.0
C1136 C 0.7983 0.41306 0.00207 0.0
C1137 C 0.82694 0.42609 0.02639 0.0
C1138 C 0.79864 0.39298 0.00661 0.0
C1139 C 0.7802 0.38255 0.00831 0.0
C1140 C 0.76117 0.39208 0.00551 0.0
C1141 C 0.761 0.41212 0.0008 0.0
C1142 C 0.77937 0.42245 0.99907 0.0
H1143 H 0.83689 0.43512 0.03431 0.0
H1144 H 0.8106 0.42887 0.02858 0.0
H1145 H 0.83006 0.40952 0.02752 0.0
H1146 H 0.81314 0.38539 0.0088 0.0
H1147 H 0.78087 0.36712 0.01192 0.0
H1148 H 0.66898 0.40622 0.25719 0.0
H1149 H 0.69285 0.37998 0.2656 0.0
H1150 H 0.64911 0.33249 0.2513 0.0
H1151 H 0.62545 0.35832 0.24262 0.0
H1152 H 0.68574 0.34254 0.2843 0.0
H1153 H 0.70456 0.32461 0.22928 0.0
H1154 H 0.69363 0.34886 0.23506 0.0
H1155 H 0.67766 0.32629 0.23247 0.0
C1156 C 0.66436 0.3902 0.25598 0.0
C1157 C 0.64531 0.3844 0.24917 0.0
C1158 C 0.67794 0.37528 0.26088 0.0
C1159 C 0.6727 0.35436 0.259 0.0
C1160 C 0.65336 0.34859 0.25286 0.0
H1161 H 0.72428 0.23861 0.28081 0.0
H1162 H 0.705 0.27079 0.28071 0.0
C1163 C 0.6398 0.36343 0.24798 0.0
C1164 C 0.68805 0.33835 0.2621 0.0
H1165 H 0.71724 0.30192 0.24594 0.0
C1166 C 0.69282 0.33373 0.27597 0.0
C1167 C 0.69738 0.32712 0.25119 0.0
C1168 C 0.69324 0.33199 0.23615 0.0
C1169 C 0.7063 0.31761 0.27917 0.0
C1170 C 0.71494 0.30579 0.26819 0.0
C1171 C 0.71059 0.31093 0.25437 0.0
C1172 C 0.72801 0.28755 0.27054 0.0
C1173 C 0.71119 0.31341 0.29424 0.0
C1174 C 0.74743 0.28631 0.26499 0.0
C1175 C 0.75833 0.26789 0.26486 0.0
C1176 C 0.75003 0.25032 0.2703 0.0
C1177 C 0.73112 0.2519 0.2766 0.0
C1178 C 0.72013 0.27034 0.27663 0.0
H1179 H 0.70852 0.32719 0.30126 0.0
H1180 H 0.70102 0.30088 0.29718 0.0
H1181 H 0.72739 0.30848 0.29598 0.0
H1182 H 0.75379 0.29937 0.26021 0.0
H1183 H 0.7729 0.26722 0.26 0.0
H1184 H 0.20995 0.95849 0.3857 0.0
H1185 H 0.22087 0.94967 0.40935 0.0
H1186 H 0.16346 0.97227 0.42413 0.0
H1187 H 0.15236 0.98097 0.40047 0.0
H1188 H 0.22625 0.97427 0.43336 0.0
H1189 H 0.16611 0.9153 0.43898 0.0
H1190 H 0.17104 0.92531 0.42241 0.0
H1191 H 0.15602 0.93983 0.43458 0.0
C1192 C 0.19968 0.96165 0.394 0.0
C1193 C 0.18026 0.97035 0.39122 0.0
C1194 C 0.20591 0.95654 0.40749 0.0
C1195 C 0.19285 0.96 0.41846 0.0
C1196 C 0.17357 0.96898 0.41576 0.0
H1197 H 0.20544 0.94254 0.50726 0.0
H1198 H 0.19466 0.95294 0.48395 0.0
C1199 C 0.16727 0.97399 0.40225 0.0
C1200 C 0.19959 0.95452 0.43274 0.0
H1201 H 0.18701 0.92527 0.45933 0.0
C1202 C 0.21772 0.96349 0.43902 0.0
C1203 C 0.18844 0.94044 0.44009 0.0
C1204 C 0.16943 0.9295 0.43364 0.0
C1205 C 0.22486 0.95897 0.45254 0.0
C1206 C 0.21365 0.94498 0.45989 0.0
C1207 C 0.1955 0.93605 0.45365 0.0
C1208 C 0.22061 0.9392 0.47402 0.0
C1209 C 0.24416 0.96938 0.45896 0.0
C1210 C 0.23873 0.92795 0.4761 0.0
C1211 C 0.24492 0.9219 0.48939 0.0
C1212 C 0.23307 0.92701 0.50084 0.0
C1213 C 0.21497 0.9384 0.4987 0.0
C1214 C 0.20875 0.94434 0.48539 0.0
H1215 H 0.24845 0.98292 0.45322 0.0
H1216 H 0.24222 0.97445 0.47002 0.0
H1217 H 0.25705 0.95831 0.4587 0.0
H1218 H 0.24794 0.92359 0.4674 0.0
H1219 H 0.25892 0.91311 0.49066 0.0
H1220 H 0.1222 0.64406 0.65713 0.0
H1221 H 0.13305 0.65996 0.68008 0.0
H1222 H 0.11023 0.71846 0.6674 0.0
H1223 H 0.09945 0.70274 0.64442 0.0
H1224 H 0.16134 0.69207 0.68507 0.0
H1225 H 0.08579 0.71335 0.70539 0.0
H1226 H 0.08829 0.69511 0.69072 0.0
H1227 H 0.08994 0.72224 0.68845 0.0
C1228 C 0.11941 0.66029 0.65925 0.0
C1229 C 0.10994 0.67213 0.64897 0.0
C1230 C 0.12554 0.66932 0.67237 0.0
C1231 C 0.12223 0.69032 0.67547 0.0
C1232 C 0.11252 0.70214 0.66532 0.0
H1233 H 0.18863 0.76501 0.74159 0.0
H1234 H 0.17316 0.7513 0.71915 0.0
C1235 C 0.10636 0.69311 0.6522 0.0
C1236 C 0.1301 0.7001 0.68902 0.0
H1237 H 0.11552 0.72658 0.71846 0.0
C1238 C 0.15133 0.69959 0.69239 0.0
C1239 C 0.11696 0.70976 0.69856 0.0
C1240 C 0.09395 0.71004 0.6957 0.0
C1241 C 0.15983 0.70861 0.70503 0.0
C1242 C 0.14676 0.71869 0.71443 0.0
C1243 C 0.1255 0.71905 0.71113 0.0
C1244 C 0.15487 0.72816 0.72801 0.0
C1245 C 0.18268 0.70692 0.70834 0.0
C1246 C 0.14912 0.72015 0.74042 0.0
C1247 C 0.15784 0.72798 0.75325 0.0
C1248 C 0.17243 0.74404 0.75391 0.0
C1249 C 0.17755 0.75256 0.74146 0.0
C1250 C 0.16881 0.74469 0.72862 0.0
H1251 H 0.18973 0.69485 0.70155 0.0
H1252 H 0.19018 0.72182 0.70668 0.0
H1253 H 0.18595 0.70338 0.71939 0.0
H1254 H 0.1383 0.70744 0.74015 0.0
H1255 H 0.15345 0.72113 0.76263 0.0
H1256 H 0.42472 0.56555 0.89959 0.0
H1257 H 0.41488 0.57902 0.9226 0.0
H1258 H 0.39818 0.63668 0.90538 0.0
H1259 H 0.40762 0.62333 0.88242 0.0
H1260 H 0.42657 0.63925 0.92961 0.0
H1261 H 0.35649 0.59288 0.93685 0.0
H1262 H 0.37883 0.57905 0.93146 0.0
H1263 H 0.3661 0.59617 0.91988 0.0
C1264 C 0.41862 0.58096 0.90067 0.0
C1265 C 0.41714 0.59344 0.88922 0.0
C1266 C 0.41301 0.58862 0.9138 0.0
C1267 C 0.40576 0.6088 0.91563 0.0
C1268 C 0.4038 0.62108 0.90416 0.0
H1269 H 0.35339 0.67955 0.98315 0.0
H1270 H 0.36012 0.66034 0.96128 0.0
C1271 C 0.40933 0.61346 0.89108 0.0
C1272 C 0.40141 0.61776 0.92961 0.0
H1273 H 0.3682 0.6158 0.95565 0.0
C1274 C 0.41387 0.63408 0.93535 0.0
C1275 C 0.38473 0.61103 0.93695 0.0
C1276 C 0.37062 0.59391 0.93099 0.0
C1277 C 0.41007 0.64395 0.94826 0.0
C1278 C 0.39348 0.63715 0.95567 0.0
C1279 C 0.38098 0.62083 0.94995 0.0
C1280 C 0.38865 0.64733 0.9692 0.0
C1281 C 0.42354 0.66187 0.95377 0.0
C1282 C 0.4023 0.646 0.98092 0.0
C1283 C 0.39854 0.65693 0.99342 0.0
C1284 C 0.38103 0.66941 0.99441 0.0
C1285 C 0.36707 0.67019 0.98273 0.0
C1286 C 0.37083 0.65918 0.97024 0.0
H1287 H 0.43309 0.66764 0.94562 0.0
H1288 H 0.41406 0.67471 0.9579 0.0
H1289 H 0.43399 0.65695 0.96245 0.0
H1290 H 0.41604 0.63675 0.98032 0.0
H1291 H 0.40955 0.65587 0.00222 0.0
H1292 H 0.48952 0.95175 0.13443 0.0
H1293 H 0.47412 0.94348 0.15594 0.0
H1294 H 0.53299 0.952 0.17851 0.0
H1295 H 0.54835 0.96126 0.15717 0.0
H1296 H 0.48406 0.91114 0.17103 0.0
H1297 H 0.49582 0.98273 0.2045 0.0
H1298 H 0.4986 0.9818 0.18592 0.0
H1299 H 0.51923 0.97354 0.19751 0.0
C1300 C 0.49911 0.95249 0.14404 0.0
C1301 C 0.5202 0.95727 0.14406 0.0
C1302 C 0.49028 0.94757 0.15631 0.0
C1303 C 0.50232 0.94736 0.16888 0.0
C1304 C 0.52328 0.95249 0.16901 0.0
H1305 H 0.49673 0.89802 0.2485 0.0
H1306 H 0.5048 0.91472 0.22743 0.0
C1307 C 0.53211 0.95752 0.15675 0.0
C1308 C 0.49338 0.94007 0.18155 0.0
H1309 H 0.48823 0.95224 0.21617 0.0
C1310 C 0.48467 0.92025 0.18085 0.0
C1311 C 0.49418 0.95198 0.19436 0.0
C1312 C 0.50227 0.97377 0.19561 0.0
C1313 C 0.47753 0.9117 0.19272 0.0
C1314 C 0.47897 0.92336 0.20561 0.0
C1315 C 0.48717 0.94336 0.20626 0.0
C1316 C 0.47345 0.91444 0.21869 0.0
C1317 C 0.46932 0.88994 0.19154 0.0
C1318 C 0.45305 0.90907 0.22085 0.0
C1319 C 0.44834 0.89951 0.23294 0.0
C1320 C 0.46399 0.89515 0.24301 0.0
C1321 C 0.48432 0.90105 0.24093 0.0
C1322 C 0.48897 0.91066 0.22891 0.0
H1323 H 0.47238 0.88189 0.18138 0.0
H1324 H 0.47627 0.88097 0.20006 0.0
H1325 H 0.45244 0.89019 0.19255 0.0
H1326 H 0.44083 0.91208 0.21313 0.0
H1327 H 0.43253 0.89521 0.23427 0.0
H1328 H 0.07273 0.66803 0.91625 0.0
H1329 H 0.0841 0.68591 0.89628 0.0
H1330 H 0.14666 0.66806 0.90648 0.0
H1331 H 0.13522 0.64955 0.92604 0.0
H1332 H 0.10996 0.71705 0.89335 0.0
H1333 H 0.13975 0.64668 0.86672 0.0
H1334 H 0.12461 0.64584 0.88175 0.0
H1335 H 0.15177 0.65137 0.88385 0.0
C1336 C 0.08889 0.66796 0.91418 0.0
C1337 C 0.10307 0.65717 0.92251 0.0
C1338 C 0.09538 0.67818 0.90281 0.0
C1339 C 0.11617 0.67792 0.89968 0.0
C1340 C 0.13045 0.66792 0.9084 0.0
H1341 H 0.17586 0.75574 0.84301 0.0
H1342 H 0.16014 0.74264 0.8633 0.0
C1343 C 0.12393 0.65741 0.9196 0.0
C1344 C 0.12293 0.68778 0.88717 0.0
H1345 H 0.14928 0.67847 0.85791 0.0
C1346 C 0.11842 0.7086 0.88552 0.0
C1347 C 0.13364 0.67666 0.87683 0.0
C1348 C 0.13753 0.65386 0.87728 0.0
C1349 C 0.12468 0.7187 0.87394 0.0
C1350 C 0.13628 0.70781 0.86397 0.0
C1351 C 0.14052 0.68692 0.86558 0.0
C1352 C 0.14405 0.71738 0.85163 0.0
C1353 C 0.11838 0.74075 0.8724 0.0
C1354 C 0.14041 0.70755 0.83832 0.0
C1355 C 0.14984 0.71464 0.82688 0.0
C1356 C 0.16283 0.73196 0.82841 0.0
C1357 C 0.16572 0.74248 0.84155 0.0
C1358 C 0.15663 0.73506 0.85312 0.0
H1359 H 0.10442 0.74454 0.87811 0.0
H1360 H 0.13098 0.75107 0.87687 0.0
H1361 H 0.11528 0.74398 0.86128 0.0
H1362 H 0.13073 0.69395 0.83686 0.0
H1363 H 0.14726 0.70632 0.81684 0.0
H1364 H 0.4674 0.60354 0.17256 0.0
H1365 H 0.44464 0.61558 0.15364 0.0
H1366 H 0.4925 0.60526 0.12498 0.0
H1367 H 0.51503 0.59243 0.14366 0.0
H1368 H 0.45054 0.64859 0.13826 0.0
H1369 H 0.44361 0.57803 0.10337 0.0
H1370 H 0.45356 0.57778 0.12127 0.0
H1371 H 0.46994 0.58491 0.10789 0.0
C1372 C 0.47293 0.6034 0.16216 0.0
C1373 C 0.49303 0.59694 0.15961 0.0
C1374 C 0.45994 0.61042 0.15139 0.0
C1375 C 0.46674 0.611 0.13786 0.0
C1376 C 0.48675 0.6045 0.13527 0.0
H1377 H 0.4396 0.66514 0.06165 0.0
H1378 H 0.45247 0.64754 0.08203 0.0
C1379 C 0.49972 0.59743 0.14601 0.0
C1380 C 0.45349 0.61961 0.12659 0.0
H1381 H 0.43498 0.60982 0.09292 0.0
C1382 C 0.44679 0.64 0.12843 0.0
C1383 C 0.44851 0.60833 0.11381 0.0
C1384 C 0.4541 0.58598 0.11151 0.0
C1385 C 0.43626 0.64979 0.11755 0.0
C1386 C 0.43225 0.63882 0.10456 0.0
C1387 C 0.43817 0.61818 0.1029 0.0
C1388 C 0.42376 0.64906 0.0922 0.0
C1389 C 0.4304 0.67208 0.11974 0.0
C1390 C 0.40325 0.65558 0.09114 0.0
C1391 C 0.39575 0.66564 0.07943 0.0
C1392 C 0.40873 0.66937 0.06867 0.0
C1393 C 0.4292 0.6626 0.06977 0.0
C1394 C 0.4366 0.65248 0.08139 0.0
H1395 H 0.43661 0.67902 0.12995 0.0
H1396 H 0.43612 0.6811 0.1113 0.0
H1397 H 0.41339 0.67335 0.11929 0.0
H1398 H 0.39309 0.6529 0.09937 0.0
H1399 H 0.3799 0.67064 0.07886 0.0
H1400 H 0.47408 0.96078 0.42911 0.0
H1401 H 0.46619 0.94061 0.40715 0.0
H1402 H 0.50159 0.98314 0.38541 0.0
H1403 H 0.50977 0.0033 0.40737 0.0
H1404 H 0.44667 0.95598 0.38136 0.0
H1405 H 0.52509 0.92441 0.3752 0.0
H1406 H 0.51671 0.93461 0.39177 0.0
H1407 H 0.52336 0.95175 0.37879 0.0
C1408 C 0.48029 0.96576 0.41967 0.0
C1409 C 0.49261 0.98356 0.41996 0.0
C1410 C 0.4757 0.95429 0.40715 0.0
C1411 C 0.48351 0.9603 0.39474 0.0
C1412 C 0.49563 0.97816 0.39493 0.0
H1413 H 0.47613 0.90818 0.30962 0.0
H1414 H 0.4845 0.92836 0.33145 0.0
C1415 C 0.50013 0.98973 0.40745 0.0
C1416 C 0.4787 0.948 0.38155 0.0
H1417 H 0.5002 0.91675 0.35676 0.0
C1418 C 0.45833 0.94735 0.37596 0.0
C1419 C 0.49401 0.93688 0.37458 0.0
C1420 C 0.51602 0.93674 0.38039 0.0
C1421 C 0.45286 0.93605 0.36342 0.0
C1422 C 0.46813 0.9247 0.35651 0.0
C1423 C 0.48853 0.92542 0.3621 0.0
C1424 C 0.46327 0.91209 0.3434 0.0
C1425 C 0.4309 0.93679 0.35753 0.0
C1426 C 0.44886 0.89597 0.34295 0.0
C1427 C 0.44393 0.88449 0.33047 0.0
C1428 C 0.45354 0.88874 0.31824 0.0
C1429 C 0.46841 0.90452 0.31884 0.0
C1430 C 0.47323 0.91607 0.3313 0.0
H1431 H 0.42273 0.95046 0.36186 0.0
H1432 H 0.43019 0.93713 0.34599 0.0
H1433 H 0.42257 0.92287 0.36031 0.0
H1434 H 0.44139 0.89229 0.35226 0.0
H1435 H 0.43255 0.87233 0.33042 0.0
H1436 H 0.18869 0.0274 0.68478 0.0
H1437 H 0.2088 0.01836 0.66454 0.0
H1438 H 0.15284 0.01281 0.6383 0.0
H1439 H 0.13278 0.02213 0.65833 0.0
H1440 H 0.20497 0.98125 0.64832 0.0
H1441 H 0.18984 0.04715 0.61561 0.0
H1442 H 0.18555 0.04823 0.63402 0.0
H1443 H 0.16669 0.03657 0.62155 0.0
C1444 C 0.18075 0.02465 0.67463 0.0
C1445 C 0.15916 0.02542 0.67314 0.0
C1446 C 0.19223 0.01942 0.66311 0.0
C1447 C 0.18233 0.0152 0.64989 0.0
C1448 C 0.16083 0.0164 0.64834 0.0
H1449 H 0.19186 0.95687 0.57107 0.0
H1450 H 0.18463 0.97724 0.59224 0.0
C1451 C 0.14937 0.0215 0.65983 0.0
C1452 C 0.19406 0.00777 0.63787 0.0
H1453 H 0.20026 0.01564 0.60363 0.0
C1454 C 0.20439 0.98896 0.63863 0.0
C1455 C 0.19331 0.01792 0.62527 0.0
C1456 C 0.18342 0.0387 0.62408 0.0
C1457 C 0.21268 0.97929 0.62681 0.0
C1458 C 0.21085 0.9889 0.61399 0.0
C1459 C 0.20158 0.00827 0.61346 0.0
C1460 C 0.21613 0.978 0.60073 0.0
C1461 C 0.22213 0.95829 0.62791 0.0
C1462 C 0.23637 0.97204 0.59833 0.0
C1463 C 0.24059 0.96028 0.58617 0.0
C1464 C 0.22461 0.95437 0.57625 0.0
C1465 C 0.20452 0.96105 0.57851 0.0
C1466 C 0.20035 0.97276 0.5906 0.0
H1467 H 0.21944 0.95166 0.63803 0.0
H1468 H 0.21578 0.94752 0.61934 0.0
H1469 H 0.23898 0.95947 0.62697 0.0
H1470 H 0.24882 0.9762 0.60594 0.0
H1471 H 0.25624 0.95544 0.5847 0.0
H1472 H 0.6354 0.45907 0.86851 0.0
H1473 H 0.64684 0.44082 0.88904 0.0
H1474 H 0.58475 0.44074 0.90233 0.0
H1475 H 0.57317 0.45857 0.88161 0.0
H1476 H 0.646 0.45408 0.91535 0.0
H1477 H 0.60041 0.38201 0.90773 0.0
H1478 H 0.60263 0.39956 0.89406 0.0
H1479 H 0.58462 0.40449 0.90732 0.0
C1480 C 0.62418 0.45503 0.87577 0.0
C1481 C 0.6034 0.46025 0.87349 0.0
C1482 C 0.63071 0.44453 0.88747 0.0
C1483 C 0.61662 0.43912 0.89715 0.0
C1484 C 0.59582 0.44422 0.89483 0.0
H1485 H 0.65095 0.42167 0.98355 0.0
H1486 H 0.63588 0.43279 0.96144 0.0
C1487 C 0.58923 0.45452 0.88304 0.0
C1488 C 0.62405 0.42962 0.91016 0.0
H1489 H 0.61671 0.38923 0.93048 0.0
C1490 C 0.63967 0.43982 0.91859 0.0
C1491 C 0.616 0.41086 0.91431 0.0
C1492 C 0.60014 0.39848 0.90531 0.0
C1493 C 0.64719 0.43205 0.93115 0.0
C1494 C 0.63843 0.41386 0.93567 0.0
C1495 C 0.62316 0.40334 0.92711 0.0
C1496 C 0.64504 0.40572 0.94928 0.0
C1497 C 0.66467 0.44329 0.93939 0.0
C1498 C 0.65411 0.38624 0.94991 0.0
C1499 C 0.66249 0.37967 0.96262 0.0
C1500 C 0.66199 0.39256 0.97485 0.0
C1501 C 0.65183 0.41151 0.97428 0.0
C1502 C 0.64329 0.41794 0.96164 0.0
H1503 H 0.6734 0.45312 0.93271 0.0
H1504 H 0.65836 0.45343 0.94775 0.0
H1505 H 0.6755 0.43237 0.94431 0.0
H1506 H 0.65546 0.37651 0.9405 0.0
H1507 H 0.67021 0.36498 0.96275 0.0
H1508 H 0.69797 0.07774 0.12251 0.0
H1509 H 0.71126 0.09102 0.1456 0.0
H1510 H 0.67096 0.1432 0.14296 0.0
H1511 H 0.65758 0.13002 0.11982 0.0
H1512 H 0.73088 0.12815 0.15323 0.0
H1513 H 0.65863 0.12087 0.18046 0.0
H1514 H 0.66212 0.10852 0.16348 0.0
H1515 H 0.65627 0.13546 0.16519 0.0
C1516 C 0.69201 0.0921 0.12681 0.0
C1517 C 0.67669 0.10282 0.11935 0.0
C1518 C 0.69955 0.09962 0.14002 0.0
C1519 C 0.6919 0.11794 0.14606 0.0
C1520 C 0.67675 0.1288 0.13861 0.0
H1521 H 0.75082 0.18842 0.21742 0.0
H1522 H 0.73619 0.17699 0.19426 0.0
C1523 C 0.66914 0.12126 0.12539 0.0
C1524 C 0.70012 0.12582 0.16004 0.0
H1525 H 0.68658 0.13786 0.19326 0.0
C1526 C 0.72121 0.13028 0.16199 0.0
C1527 C 0.68748 0.12835 0.17147 0.0
C1528 C 0.6649 0.12289 0.17014 0.0
C1529 C 0.73003 0.13733 0.17506 0.0
C1530 C 0.71732 0.1403 0.18642 0.0
C1531 C 0.69624 0.13573 0.18449 0.0
C1532 C 0.72572 0.14754 0.20049 0.0
C1533 C 0.75294 0.14106 0.17668 0.0
C1534 C 0.72417 0.135 0.21175 0.0
C1535 C 0.73238 0.14153 0.22501 0.0
C1536 C 0.74226 0.16077 0.22729 0.0
C1537 C 0.74347 0.17345 0.21602 0.0
C1538 C 0.7352 0.16691 0.20276 0.0
H1539 H 0.76105 0.1333 0.16801 0.0
H1540 H 0.75606 0.15781 0.17666 0.0
H1541 H 0.75947 0.13554 0.1867 0.0
H1542 H 0.71682 0.12003 0.21022 0.0
H1543 H 0.73111 0.1314 0.23345 0.0
H1544 H 0.07463 0.17909 0.39005 0.0
H1545 H 0.05891 0.19637 0.41007 0.0
H1546 H 0.00473 0.15836 0.40191 0.0
H1547 H 0.01997 0.14152 0.38171 0.0
H1548 H 0.99631 0.20042 0.40717 0.0
H1549 H 0.05122 0.17054 0.44754 0.0
H1550 H 0.06232 0.18377 0.4339 0.0
H1551 H 0.04916 0.15973 0.42981 0.0
C1552 C 0.05933 0.17449 0.39249 0.0
C1553 C 0.04864 0.15878 0.38436 0.0
C1554 C 0.05044 0.18427 0.40399 0.0
C1555 C 0.03076 0.17847 0.40755 0.0
C1556 C 0.01998 0.163 0.39937 0.0
H1557 H 0.96422 0.18512 0.48032 0.0
H1558 H 0.98491 0.17739 0.46042 0.0
C1559 C 0.02881 0.15324 0.38791 0.0
C1560 C 0.02121 0.18828 0.41984 0.0
H1561 H 0.02456 0.19162 0.45543 0.0
C1562 C 0.00258 0.19874 0.41773 0.0
C1563 C 0.02941 0.18591 0.43358 0.0
C1564 C 0.04904 0.17426 0.43644 0.0
C1565 C 0.99159 0.20637 0.42902 0.0
C1566 C 0.99962 0.20368 0.44276 0.0
C1567 C 0.01855 0.19377 0.44486 0.0
C1568 C 0.9876 0.20902 0.45505 0.0
C1569 C 0.97102 0.21634 0.42617 0.0
C1570 C 0.9824 0.22945 0.45871 0.0
C1571 C 0.97045 0.23396 0.47013 0.0
C1572 C 0.96361 0.21809 0.47805 0.0
C1573 C 0.96917 0.19772 0.47443 0.0
C1574 C 0.98106 0.19326 0.46308 0.0
H1575 H 0.96544 0.21406 0.41505 0.0
H1576 H 0.95932 0.21006 0.43274 0.0
H1577 H 0.97241 0.23312 0.42882 0.0
H1578 H 0.98755 0.24187 0.45274 0.0
H1579 H 0.9665 0.24981 0.47269 0.0
H1580 H 0.92892 0.56388 0.63095 0.0
H1581 H 0.91481 0.55085 0.65183 0.0
H1582 H 0.90485 0.49144 0.63024 0.0
H1583 H 0.91902 0.50427 0.60942 0.0
H1584 H 0.87686 0.53171 0.65718 0.0
H1585 H 0.9434 0.47947 0.66406 0.0
H1586 H 0.94313 0.49995 0.65224 0.0
H1587 H 0.92969 0.47624 0.64733 0.0
C1588 C 0.92345 0.54813 0.63061 0.0
C1589 C 0.92535 0.535 0.61863 0.0
C1590 C 0.91542 0.54071 0.64253 0.0
C1591 C 0.90915 0.52009 0.64264 0.0
C1592 C 0.91001 0.50728 0.63046 0.0
H1593 H 0.84786 0.46 0.70809 0.0
H1594 H 0.85484 0.4765 0.68657 0.0
C1595 C 0.91813 0.51463 0.61859 0.0
C1596 C 0.90288 0.51159 0.65571 0.0
H1597 H 0.91649 0.47608 0.67918 0.0
C1598 C 0.88549 0.51956 0.66203 0.0
C1599 C 0.91435 0.49592 0.66207 0.0
C1600 C 0.93379 0.48749 0.65617 0.0
C1601 C 0.87915 0.51209 0.67452 0.0
C1602 C 0.8904 0.49611 0.6807 0.0
C1603 C 0.90781 0.48825 0.67438 0.0
C1604 C 0.88506 0.48772 0.69403 0.0
C1605 C 0.8608 0.52167 0.68116 0.0
C1606 C 0.89972 0.48847 0.70532 0.0
C1607 C 0.89589 0.4789 0.71749 0.0
C1608 C 0.87728 0.46835 0.71866 0.0
C1609 C 0.8623 0.46809 0.70751 0.0
C1610 C 0.86622 0.47761 0.69525 0.0
H1611 H 0.85697 0.53683 0.677 0.0
H1612 H 0.84727 0.51136 0.67893 0.0
H1613 H 0.86361 0.52373 0.69265 0.0
H1614 H 0.91436 0.49617 0.70461 0.0
H1615 H 0.90772 0.47948 0.7259 0.0
H1616 H 0.66369 0.06885 0.39287 0.0
H1617 H 0.67507 0.07905 0.37044 0.0
H1618 H 0.69361 0.13837 0.38929 0.0
H1619 H 0.68295 0.12821 0.4118 0.0
H1620 H 0.66803 0.13713 0.36192 0.0
H1621 H 0.73797 0.08819 0.36249 0.0
H1622 H 0.71412 0.07627 0.36626 0.0
H1623 H 0.72543 0.09589 0.37819 0.0
C1624 C 0.67034 0.08401 0.39229 0.0
C1625 C 0.67236 0.0977 0.40417 0.0
C1626 C 0.67672 0.08983 0.37945 0.0
C1627 C 0.6852 0.10943 0.37827 0.0
C1628 C 0.68701 0.12322 0.39001 0.0
H1629 H 0.73334 0.17784 0.31231 0.0
H1630 H 0.71776 0.16758 0.3334 0.0
C1631 C 0.68077 0.11739 0.40285 0.0
C1632 C 0.69258 0.11551 0.36486 0.0
H1633 H 0.73107 0.1072 0.34274 0.0
C1634 C 0.68178 0.13059 0.35766 0.0
C1635 C 0.71049 0.10691 0.35942 0.0
C1636 C 0.72284 0.09099 0.36697 0.0
C1637 C 0.68833 0.13716 0.34499 0.0
C1638 C 0.70646 0.12877 0.33962 0.0
C1639 C 0.71718 0.11361 0.34685 0.0
C1640 C 0.71472 0.1354 0.32653 0.0
C1641 C 0.67554 0.15267 0.33737 0.0
C1642 C 0.71851 0.1207 0.31575 0.0
C1643 C 0.72769 0.12647 0.30382 0.0
C1644 C 0.73323 0.14707 0.30238 0.0
C1645 C 0.72907 0.16188 0.31306 0.0
C1646 C 0.72006 0.15605 0.32508 0.0
H1647 H 0.65942 0.15282 0.34055 0.0
H1648 H 0.68215 0.16825 0.3399 0.0
H1649 H 0.6754 0.14945 0.3259 0.0
H1650 H 0.71458 0.10468 0.31664 0.0
H1651 H 0.73064 0.11469 0.29577 0.0
H1652 H 0.04935 0.18172 0.64935 0.0
H1653 H 0.03663 0.18992 0.62586 0.0
H1654 H 0.9777 0.20588 0.6414 0.0
H1655 H 0.99031 0.19814 0.66489 0.0
H1656 H 0.97643 0.17889 0.61646 0.0
H1657 H 0.02446 0.24897 0.61282 0.0
H1658 H 0.03782 0.22615 0.61777 0.0
H1659 H 0.02007 0.23813 0.62924 0.0
C1660 C 0.03374 0.18714 0.64778 0.0
C1661 C 0.02084 0.18925 0.659 0.0
C1662 C 0.02651 0.19178 0.63437 0.0
C1663 C 0.0063 0.19865 0.63196 0.0
C1664 C 0.99334 0.20057 0.64307 0.0
H1665 H 0.94355 0.25822 0.56455 0.0
H1666 H 0.96024 0.24845 0.58659 0.0
C1667 C 0.00055 0.19601 0.65647 0.0
C1668 C 0.99845 0.20373 0.61786 0.0
H1669 H 0.00305 0.23848 0.59301 0.0
C1670 C 0.98231 0.19183 0.61127 0.0
C1671 C 0.00607 0.22076 0.61125 0.0
C1672 C 0.02296 0.23439 0.61812 0.0
C1673 C 0.97348 0.19656 0.59821 0.0
C1674 C 0.98116 0.21352 0.59156 0.0
C1675 C 0.99734 0.2254 0.59813 0.0
C1676 C 0.97195 0.21967 0.57804 0.0
C1677 C 0.95564 0.18375 0.59179 0.0
C1678 C 0.97333 0.20684 0.56592 0.0
C1679 C 0.96383 0.21236 0.5533 0.0
C1680 C 0.95279 0.23083 0.55259 0.0
C1681 C 0.95184 0.24385 0.56473 0.0
C1682 C 0.9614 0.23833 0.57733 0.0
H1683 H 0.94905 0.17382 0.59942 0.0
H1684 H 0.9433 0.19373 0.58754 0.0
H1685 H 0.96097 0.17369 0.58304 0.0
H1686 H 0.98165 0.19249 0.56626 0.0
H1687 H 0.96495 0.20202 0.54414 0.0
H1688 H 0.89269 0.55531 0.89969 0.0
H1689 H 0.88216 0.54387 0.87569 0.0
H1690 H 0.92989 0.49815 0.87611 0.0
H1691 H 0.94147 0.51044 0.89965 0.0
H1692 H 0.92737 0.51509 0.85202 0.0
H1693 H 0.84884 0.49305 0.86522 0.0
H1694 H 0.8547 0.51976 0.8691 0.0
H1695 H 0.86872 0.50055 0.87837 0.0
C1696 C 0.90121 0.54307 0.8946 0.0
C1697 C 0.91778 0.53362 0.90173 0.0
C1698 C 0.89493 0.53633 0.88094 0.0
C1699 C 0.90485 0.51976 0.87422 0.0
C1700 C 0.92183 0.51081 0.88112 0.0
H1701 H 0.85859 0.43652 0.80701 0.0
H1702 H 0.86846 0.45512 0.82918 0.0
C1703 C 0.9283 0.51773 0.89467 0.0
C1704 C 0.89754 0.51141 0.8601 0.0
H1705 H 0.85602 0.48963 0.84143 0.0
C1706 C 0.91175 0.50956 0.84969 0.0
C1707 C 0.87723 0.50394 0.85713 0.0
C1708 C 0.86154 0.50421 0.86807 0.0
C1709 C 0.90636 0.50014 0.83649 0.0
C1710 C 0.88593 0.49306 0.83342 0.0
C1711 C 0.87162 0.49522 0.84375 0.0
C1712 C 0.87936 0.48226 0.81986 0.0
C1713 C 0.92288 0.49711 0.82621 0.0
C1714 C 0.88183 0.49146 0.80723 0.0
C1715 C 0.87655 0.48069 0.79452 0.0
C1716 C 0.8682 0.46072 0.79422 0.0
C1717 C 0.86498 0.45187 0.80689 0.0
C1718 C 0.87061 0.4625 0.81957 0.0
H1719 H 0.93852 0.49801 0.83148 0.0
H1720 H 0.92114 0.48201 0.82027 0.0
H1721 H 0.92172 0.5094 0.81871 0.0
H1722 H 0.88795 0.50692 0.80718 0.0
H1723 H 0.87895 0.48802 0.78492 0.0
H1724 H 0.62948 0.3807 0.16265 0.0
H1725 H 0.64224 0.37232 0.13957 0.0
H1726 H 0.62834 0.43382 0.12774 0.0
H1727 H 0.61591 0.44236 0.15085 0.0
H1728 H 0.62315 0.37229 0.11381 0.0
H1729 H 0.68751 0.4286 0.11799 0.0
H1730 H 0.67352 0.42233 0.13282 0.0
H1731 H 0.66312 0.44031 0.12081 0.0
C1732 C 0.62911 0.3924 0.1551 0.0
C1733 C 0.62184 0.41223 0.15857 0.0
C1734 C 0.63645 0.38762 0.14195 0.0
C1735 C 0.63662 0.40257 0.13203 0.0
C1736 C 0.62891 0.42223 0.13536 0.0
H1737 H 0.66431 0.40223 0.04524 0.0
H1738 H 0.6512 0.40922 0.06835 0.0
C1739 C 0.62175 0.42707 0.14854 0.0
C1740 C 0.64453 0.39748 0.11811 0.0
H1741 H 0.67936 0.41244 0.09546 0.0
C1742 C 0.63553 0.38097 0.10984 0.0
C1743 C 0.66077 0.40878 0.11297 0.0
C1744 C 0.67194 0.42585 0.12166 0.0
C1745 C 0.64205 0.37576 0.09645 0.0
C1746 C 0.65794 0.38734 0.09125 0.0
C1747 C 0.66705 0.40373 0.09951 0.0
C1748 C 0.66539 0.38265 0.07723 0.0
C1749 C 0.63175 0.35815 0.08781 0.0
C1750 C 0.67773 0.36542 0.07466 0.0
C1751 C 0.68538 0.36144 0.06151 0.0
C1752 C 0.68071 0.3746 0.0507 0.0
C1753 C 0.66814 0.39175 0.05332 0.0
C1754 C 0.66066 0.3958 0.0665 0.0
H1755 H 0.61791 0.35241 0.09262 0.0
H1756 H 0.6272 0.36296 0.07719 0.0
H1757 H 0.64277 0.34528 0.08668 0.0
H1758 H 0.68164 0.35521 0.08289 0.0
H1759 H 0.69499 0.3481 0.05985 0.0
loop_
_geom_bond_atom_site_label_1
_geom_bond_atom_site_label_2
_geom_bond_distance
_geom_bond_site_symmetry_2
_ccdc_geom_bond_type
H0 C27 0.929 . S
N1 C26 1.433 . S
N1 C32 1.435 . S
N1 C38 1.423 1_565 S
H2 C28 0.930 . S
H3 C31 0.931 . S
H4 C30 0.929 . S
H5 C33 0.930 . S
H6 C34 0.932 . S
H7 C37 0.929 . S
H8 C36 0.931 . S
H9 C39 0.929 . S
H10 C43 0.932 . S
H11 C40 0.931 . S
H12 C42 0.929 . S
H13 C45 0.929 . S
H14 C46 0.930 1_655 S
H15 C48 0.929 . S
H16 C49 0.931 . S
H17 C51 0.930 . S
H18 C52 0.932 . S
H19 C54 0.931 . S
H20 C55 0.929 . S
H21 C57 0.929 . S
H22 C58 0.931 . S
H23 C60 0.929 . S
N24 C44 1.433 . S
N24 C50 1.435 . S
N24 C56 1.423 . S
H25 C61 0.932 . S
C26 N1 1.433 . S
C26 C27 1.363 . S
C26 C31 1.370 . S
C27 H0 0.929 . S
C27 C26 1.363 . S
C27 C28 1.385 . S
C28 H2 0.930 . S
C28 C27 1.385 . S
C28 C29 1.357 . S
C29 C28 1.357 . S
C29 C30 1.406 . S
C30 H4 0.929 . S
C30 C29 1.406 . S
C30 C31 1.391 . S
C31 H3 0.931 . S
C31 C26 1.370 . S
C31 C30 1.391 . S
C32 N1 1.435 . S
C32 C33 1.358 . S
C32 C37 1.371 . S
C33 H5 0.930 . S
C33 C32 1.358 . S
C33 C34 1.405 . S
C34 H6 0.932 . S
C34 C33 1.405 . S
C34 C35 1.383 . S
C35 C34 1.383 . S
C35 C36 1.393 . S
C36 H8 0.931 . S
C36 C35 1.393 . S
C36 C37 1.382 . S
C37 H7 0.929 . S
C37 C32 1.371 . S
C37 C36 1.382 . S
C38 N1 1.423 1_545 S
C38 C39 1.362 . S
C38 C43 1.388 1_545 S
C39 H9 0.929 . S
C39 C38 1.362 . S
C39 C40 1.376 . S
C40 H11 0.931 . S
C40 C39 1.376 . S
C40 C41 1.396 . S
C41 C40 1.396 . S
C41 C42 1.348 . S
C41 C59 1.472 . S
C42 H12 0.929 . S
C42 C41 1.348 . S
C42 C43 1.443 1_545 S
C43 H10 0.932 . S
C43 C38 1.388 1_565 S
C43 C42 1.443 1_565 S
C44 N24 1.433 . S
C44 C45 1.363 . S
C44 C49 1.370 . S
C45 H13 0.929 . S
C45 C44 1.363 . S
C45 C46 1.385 . S
C46 H14 0.930 1_455 S
C46 C45 1.385 . S
C46 C47 1.357 . S
C47 C46 1.357 . S
C47 C48 1.406 . S
C48 H15 0.929 . S
C48 C47 1.406 . S
C48 C49 1.391 . S
C49 H16 0.931 . S
C49 C44 1.370 . S
C49 C48 1.391 . S
C50 N24 1.435 . S
C50 C51 1.358 1_455 S
C50 C55 1.371 . S
C51 H17 0.930 . S
C51 C50 1.358 1_655 S
C51 C52 1.405 . S
C52 H18 0.932 . S
C52 C51 1.405 . S
C52 C53 1.383 . S
C53 C52 1.383 . S
C53 C54 1.393 1_655 S
C54 H19 0.931 . S
C54 C53 1.393 1_455 S
C54 C55 1.382 . S
C55 H20 0.929 . S
C55 C50 1.371 . S
C55 C54 1.382 . S
C56 N24 1.423 . S
C56 C57 1.362 . S
C56 C61 1.388 . S
C57 H21 0.929 . S
C57 C56 1.362 . S
C57 C58 1.376 . S
C58 H22 0.931 . S
C58 C57 1.376 . S
C58 C59 1.396 . S
C59 C41 1.472 . S
C59 C58 1.396 . S
C59 C60 1.348 . S
C60 H23 0.929 . S
C60 C59 1.348 . S
C60 C61 1.443 . S
C61 H25 0.932 . S
C61 C56 1.388 . S
C61 C60 1.443 . S
H62 C89 0.929 . S
N63 C88 1.428 1_455 S
N63 C94 1.432 1_455 S
N63 C100 1.430 . S
H64 C90 0.930 . S
H65 C93 0.931 . S
H66 C92 0.929 . S
H67 C95 0.930 . S
H68 C96 0.932 . S
H69 C99 0.929 . S
H70 C98 0.903 1_455 S
H71 C101 0.929 . S
H72 C105 0.932 . S
H73 C102 0.931 . S
H74 C104 0.929 . S
H75 C107 0.929 . S
H76 C108 0.930 . S
H77 C110 0.929 . S
H78 C111 0.931 . S
H79 C113 0.930 . S
H80 C114 0.932 . S
H81 C116 0.931 . S
H82 C117 0.929 . S
H83 C119 0.929 . S
H84 C120 0.931 . S
H85 C122 0.929 . S
N86 C106 1.433 . S
N86 C112 1.435 . S
N86 C118 1.423 . S
H87 C123 0.932 . S
C88 N63 1.428 1_655 S
C88 C89 1.363 . S
C88 C93 1.370 . S
C89 H62 0.929 . S
C89 C88 1.363 . S
C89 C90 1.385 . S
C90 H64 0.930 . S
C90 C89 1.385 . S
C90 C91 1.357 . S
C91 C90 1.357 . S
C91 C92 1.406 . S
C92 H66 0.929 . S
C92 C91 1.406 . S
C92 C93 1.391 . S
C93 H65 0.931 . S
C93 C88 1.370 . S
C93 C92 1.391 . S
C94 N63 1.432 1_655 S
C94 C95 1.358 . S
C94 C99 1.371 1_655 S
C95 H67 0.930 . S
C95 C94 1.358 . S
C95 C96 1.405 . S
C96 H68 0.932 . S
C96 C95 1.405 . S
C96 C97 1.383 . S
C97 C96 1.383 . S
C97 C98 1.434 . S
C98 H70 0.903 1_655 S
C98 C97 1.434 . S
C98 C99 1.370 1_655 S
C99 H69 0.929 . S
C99 C94 1.371 1_455 S
C99 C98 1.370 1_455 S
C100 N63 1.430 . S
C100 C101 1.362 . S
C100 C105 1.388 . S
C101 H71 0.929 . S
C101 C100 1.362 . S
C101 C102 1.376 . S
C102 H73 0.931 . S
C102 C101 1.376 . S
C102 C103 1.396 . S
C103 C102 1.396 . S
C103 C104 1.348 . S
C103 C121 1.472 . S
C104 H74 0.929 . S
C104 C103 1.348 . S
C104 C105 1.443 . S
C105 H72 0.932 . S
C105 C100 1.388 . S
C105 C104 1.443 . S
C106 N86 1.433 . S
C106 C107 1.363 . S
C106 C111 1.370 . S
C107 H75 0.929 . S
C107 C106 1.363 . S
C107 C108 1.385 . S
C108 H76 0.930 . S
C108 C107 1.385 . S
C108 C109 1.357 . S
C109 C108 1.357 . S
C109 C110 1.406 . S
C110 H77 0.929 . S
C110 C109 1.406 . S
C110 C111 1.391 . S
C111 H78 0.931 . S
C111 C106 1.370 . S
C111 C110 1.391 . S
C112 N86 1.435 . S
C112 C113 1.358 . S
C112 C117 1.371 . S
C113 H79 0.930 . S
C113 C112 1.358 . S
C113 C114 1.405 . S
C114 H80 0.932 . S
C114 C113 1.405 . S
C114 C115 1.383 . S
C115 C114 1.383 . S
C115 C116 1.393 . S
C116 H81 0.931 . S
C116 C115 1.393 . S
C116 C117 1.382 . S
C117 H82 0.929 . S
C117 C112 1.371 . S
C117 C116 1.382 . S
C118 N86 1.423 . S
C118 C119 1.362 . S
C118 C123 1.388 . S
C119 H83 0.929 . S
C119 C118 1.362 . S
C119 C120 1.376 . S
C120 H84 0.931 . S
C120 C119 1.376 . S
C120 C121 1.396 . S
C121 C103 1.472 . S
C121 C120 1.396 . S
C121 C122 1.348 . S
C122 H85 0.929 . S
C122 C121 1.348 . S
C122 C123 1.443 . S
C123 H87 0.932 . S
C123 C118 1.388 . S
C123 C122 1.443 . S
H124 C151 0.929 . S
N125 C150 1.433 . S
N125 C156 1.435 . S
N125 C162 1.423 . S
H126 C152 0.930 . S
H127 C155 0.931 . S
H128 C154 0.929 . S
H129 C157 0.930 . S
H130 C158 0.932 . S
H131 C161 0.929 . S
H132 C160 0.931 . S
H133 C163 0.929 . S
H134 C167 0.932 . S
H135 C164 0.931 . S
H136 C166 0.929 . S
H137 C169 0.929 . S
H138 C170 0.930 . S
H139 C172 0.929 . S
H140 C173 0.931 . S
H141 C175 0.930 . S
H142 C176 0.932 . S
H143 C178 0.931 . S
H144 C179 0.929 . S
H145 C181 0.929 . S
H146 C182 0.931 . S
H147 C184 0.929 . S
N148 C168 1.433 . S
N148 C174 1.435 . S
N148 C180 1.423 . S
H149 C185 0.932 . S
C150 N125 1.433 . S
C150 C151 1.363 . S
C150 C155 1.370 . S
C151 H124 0.929 . S
C151 C150 1.363 . S
C151 C152 1.385 . S
C152 H126 0.930 . S
C152 C151 1.385 . S
C152 C153 1.357 . S
C153 C152 1.357 . S
C153 C154 1.406 . S
C154 H128 0.929 . S
C154 C153 1.406 . S
C154 C155 1.391 . S
C155 H127 0.931 . S
C155 C150 1.370 . S
C155 C154 1.391 . S
C156 N125 1.435 . S
C156 C157 1.358 . S
C156 C161 1.371 . S
C157 H129 0.930 . S
C157 C156 1.358 . S
C157 C158 1.405 . S
C158 H130 0.932 . S
C158 C157 1.405 . S
C158 C159 1.383 . S
C159 C158 1.383 . S
C159 C160 1.393 . S
C160 H132 0.931 . S
C160 C159 1.393 . S
C160 C161 1.382 . S
C161 H131 0.929 . S
C161 C156 1.371 . S
C161 C160 1.382 . S
C162 N125 1.423 . S
C162 C163 1.362 . S
C162 C167 1.388 . S
C163 H133 0.929 . S
C163 C162 1.362 . S
C163 C164 1.376 . S
C164 H135 0.931 . S
C164 C163 1.376 . S
C164 C165 1.396 . S
C165 C164 1.396 . S
C165 C166 1.348 . S
C165 C183 1.472 . S
C166 H136 0.929 . S
C166 C165 1.348 . S
C166 C167 1.443 . S
C167 H134 0.932 . S
C167 C162 1.388 . S
C167 C166 1.443 . S
C168 N148 1.433 . S
C168 C169 1.363 . S
C168 C173 1.370 . S
C169 H137 0.929 . S
C169 C168 1.363 . S
C169 C170 1.385 . S
C170 H138 0.930 . S
C170 C169 1.385 . S
C170 C171 1.357 . S
C171 C170 1.357 . S
C171 C172 1.406 . S
C172 H139 0.929 . S
C172 C171 1.406 . S
C172 C173 1.391 . S
C173 H140 0.931 . S
C173 C168 1.370 . S
C173 C172 1.391 . S
C174 N148 1.435 . S
C174 C175 1.358 . S
C174 C179 1.371 . S
C175 H141 0.930 . S
C175 C174 1.358 . S
C175 C176 1.405 . S
C176 H142 0.932 . S
C176 C175 1.405 . S
C176 C177 1.383 . S
C177 C176 1.383 . S
C177 C178 1.393 . S
C178 H143 0.931 . S
C178 C177 1.393 . S
C178 C179 1.382 . S
C179 H144 0.929 . S
C179 C174 1.371 . S
C179 C178 1.382 . S
C180 N148 1.423 . S
C180 C181 1.362 . S
C180 C185 1.388 . S
C181 H145 0.929 . S
C181 C180 1.362 . S
C181 C182 1.376 . S
C182 H146 0.931 . S
C182 C181 1.376 . S
C182 C183 1.396 . S
C183 C165 1.472 . S
C183 C182 1.396 . S
C183 C184 1.348 . S
C184 H147 0.929 . S
C184 C183 1.348 . S
C184 C185 1.443 . S
C185 H149 0.932 . S
C185 C180 1.388 . S
C185 C184 1.443 . S
H186 C213 0.929 . S
N187 C212 1.433 . S
N187 C218 1.435 . S
N187 C224 1.423 . S
H188 C214 0.930 . S
H189 C217 0.931 . S
H190 C216 0.929 . S
H191 C219 0.930 . S
H192 C220 0.932 . S
H193 C223 0.929 . S
H194 C222 0.931 . S
H195 C225 0.929 . S
H196 C229 0.932 . S
H197 C226 0.931 . S
H198 C228 0.929 . S
H199 C231 0.929 . S
H200 C232 0.930 . S
H201 C234 0.929 . S
H202 C235 0.931 . S
H203 C237 0.930 . S
H204 C238 0.932 . S
H205 C240 0.931 . S
H206 C241 0.929 . S
H207 C243 0.929 . S
H208 C244 0.931 1_565 S
H209 C246 0.929 . S
N210 C230 1.433 . S
N210 C236 1.435 . S
N210 C242 1.423 . S
H211 C247 0.932 . S
C212 N187 1.433 . S
C212 C213 1.363 . S
C212 C217 1.370 . S
C213 H186 0.929 . S
C213 C212 1.363 . S
C213 C214 1.385 . S
C214 H188 0.930 . S
C214 C213 1.385 . S
C214 C215 1.357 . S
C215 C214 1.357 . S
C215 C216 1.406 . S
C216 H190 0.929 . S
C216 C215 1.406 . S
C216 C217 1.391 . S
C217 H189 0.931 . S
C217 C212 1.370 . S
C217 C216 1.391 . S
C218 N187 1.435 . S
C218 C219 1.358 . S
C218 C223 1.371 . S
C219 H191 0.930 . S
C219 C218 1.358 . S
C219 C220 1.405 . S
C220 H192 0.932 . S
C220 C219 1.405 . S
C220 C221 1.383 . S
C221 C220 1.383 . S
C221 C222 1.393 . S
C222 H194 0.931 . S
C222 C221 1.393 . S
C222 C223 1.382 . S
C223 H193 0.929 . S
C223 C218 1.371 . S
C223 C222 1.382 . S
C224 N187 1.423 . S
C224 C225 1.362 . S
C224 C229 1.388 . S
C225 H195 0.929 . S
C225 C224 1.362 . S
C225 C226 1.376 . S
C226 H197 0.931 . S
C226 C225 1.376 . S
C226 C227 1.396 . S
C227 C226 1.396 . S
C227 C228 1.348 . S
C227 C245 1.472 1_565 S
C228 H198 0.929 . S
C228 C227 1.348 . S
C228 C229 1.443 . S
C229 H196 0.932 . S
C229 C224 1.388 . S
C229 C228 1.443 . S
C230 N210 1.433 . S
C230 C231 1.363 . S
C230 C235 1.370 . S
C231 H199 0.929 . S
C231 C230 1.363 . S
C231 C232 1.385 . S
C232 H200 0.930 . S
C232 C231 1.385 . S
C232 C233 1.357 . S
C233 C232 1.357 . S
C233 C234 1.406 . S
C234 H201 0.929 . S
C234 C233 1.406 . S
C234 C235 1.391 . S
C235 H202 0.931 . S
C235 C230 1.370 . S
C235 C234 1.391 . S
C236 N210 1.435 . S
C236 C237 1.358 . S
C236 C241 1.371 . S
C237 H203 0.930 . S
C237 C236 1.358 . S
C237 C238 1.405 . S
C238 H204 0.932 . S
C238 C237 1.405 . S
C238 C239 1.383 . S
C239 C238 1.383 . S
C239 C240 1.393 . S
C240 H205 0.931 . S
C240 C239 1.393 . S
C240 C241 1.382 . S
C241 H206 0.929 . S
C241 C236 1.371 . S
C241 C240 1.382 . S
C242 N210 1.423 . S
C242 C243 1.362 . S
C242 C247 1.388 . S
C243 H207 0.929 . S
C243 C242 1.362 . S
C243 C244 1.376 . S
C244 H208 0.931 1_545 S
C244 C243 1.376 . S
C244 C245 1.396 . S
C245 C227 1.472 1_545 S
C245 C244 1.396 . S
C245 C246 1.348 . S
C246 H209 0.929 . S
C246 C245 1.348 . S
C246 C247 1.443 . S
C247 H211 0.932 . S
C247 C242 1.388 . S
C247 C246 1.443 . S
H248 C275 0.929 . S
N249 C274 1.433 . S
N249 C280 1.435 . S
N249 C286 1.423 . S
H250 C276 0.930 . S
H251 C279 0.931 . S
H252 C278 0.929 . S
H253 C281 0.930 . S
H254 C282 0.932 . S
H255 C285 0.929 . S
H256 C284 0.931 . S
H257 C287 0.929 . S
H258 C291 0.932 . S
H259 C288 0.931 . S
H260 C290 0.929 . S
H261 C293 0.929 . S
H262 C294 0.930 . S
H263 C296 0.929 . S
H264 C297 0.931 . S
H265 C299 0.930 . S
H266 C300 0.932 . S
H267 C302 0.931 . S
H268 C303 0.929 . S
H269 C305 0.929 . S
H270 C306 0.931 . S
H271 C308 0.929 . S
N272 C292 1.433 . S
N272 C298 1.435 . S
N272 C304 1.423 . S
H273 C309 0.932 . S
C274 N249 1.433 . S
C274 C275 1.363 . S
C274 C279 1.370 . S
C275 H248 0.929 . S
C275 C274 1.363 . S
C275 C276 1.385 . S
C276 H250 0.930 . S
C276 C275 1.385 . S
C276 C277 1.357 . S
C277 C276 1.357 . S
C277 C278 1.406 . S
C278 H252 0.929 . S
C278 C277 1.406 . S
C278 C279 1.391 . S
C279 H251 0.931 . S
C279 C274 1.370 . S
C279 C278 1.391 . S
C280 N249 1.435 . S
C280 C281 1.358 . S
C280 C285 1.371 . S
C281 H253 0.930 . S
C281 C280 1.358 . S
C281 C282 1.405 . S
C282 H254 0.932 . S
C282 C281 1.405 . S
C282 C283 1.383 1_556 S
C283 C282 1.383 1_554 S
C283 C284 1.393 . S
C284 H256 0.931 . S
C284 C283 1.393 . S
C284 C285 1.382 1_554 S
C285 H255 0.929 . S
C285 C280 1.371 . S
C285 C284 1.382 1_556 S
C286 N249 1.423 . S
C286 C287 1.362 . S
C286 C291 1.388 . S
C287 H257 0.929 . S
C287 C286 1.362 . S
C287 C288 1.376 . S
C288 H259 0.931 . S
C288 C287 1.376 . S
C288 C289 1.396 . S
C289 C288 1.396 . S
C289 C290 1.348 . S
C289 C307 1.472 . S
C290 H260 0.929 . S
C290 C289 1.348 . S
C290 C291 1.443 . S
C291 H258 0.932 . S
C291 C286 1.388 . S
C291 C290 1.443 . S
C292 N272 1.433 . S
C292 C293 1.363 . S
C292 C297 1.370 . S
C293 H261 0.929 . S
C293 C292 1.363 . S
C293 C294 1.385 . S
C294 H262 0.930 . S
C294 C293 1.385 . S
C294 C295 1.357 . S
C295 C294 1.357 . S
C295 C296 1.406 . S
C296 H263 0.929 . S
C296 C295 1.406 . S
C296 C297 1.391 . S
C297 H264 0.931 . S
C297 C292 1.370 . S
C297 C296 1.391 . S
C298 N272 1.435 . S
C298 C299 1.358 . S
C298 C303 1.371 . S
C299 H265 0.930 . S
C299 C298 1.358 . S
C299 C300 1.405 . S
C300 H266 0.932 . S
C300 C299 1.405 . S
C300 C301 1.383 . S
C301 C300 1.383 . S
C301 C302 1.393 . S
C302 H267 0.931 . S
C302 C301 1.393 . S
C302 C303 1.382 . S
C303 H268 0.929 . S
C303 C298 1.371 . S
C303 C302 1.382 . S
C304 N272 1.423 . S
C304 C305 1.362 . S
C304 C309 1.388 . S
C305 H269 0.929 . S
C305 C304 1.362 . S
C305 C306 1.376 1_655 S
C306 H270 0.931 . S
C306 C305 1.376 1_455 S
C306 C307 1.396 . S
C307 C289 1.472 . S
C307 C306 1.396 . S
C307 C308 1.348 1_455 S
C308 H271 0.929 . S
C308 C307 1.348 1_655 S
C308 C309 1.443 . S
C309 H273 0.932 . S
C309 C304 1.388 . S
C309 C308 1.443 . S
H310 C337 0.929 . S
N311 C336 1.433 . S
N311 C342 1.435 . S
N311 C348 1.423 . S
H312 C338 0.930 . S
H313 C341 0.931 . S
H314 C340 0.929 . S
H315 C343 0.930 . S
H316 C344 0.932 . S
H317 C347 0.929 . S
H318 C346 0.931 . S
H319 C349 0.929 . S
H320 C353 0.932 . S
H321 C350 0.931 . S
H322 C352 0.929 . S
H323 C355 0.929 . S
H324 C356 0.930 . S
H325 C358 0.929 . S
H326 C359 0.931 . S
H327 C361 0.930 . S
H328 C362 0.932 . S
H329 C364 0.931 . S
H330 C365 0.929 . S
H331 C367 0.929 . S
H332 C368 0.931 . S
H333 C370 0.929 . S
N334 C354 1.433 . S
N334 C360 1.435 . S
N334 C366 1.423 . S
H335 C371 0.932 . S
C336 N311 1.433 . S
C336 C337 1.363 . S
C336 C341 1.370 . S
C337 H310 0.929 . S
C337 C336 1.363 . S
C337 C338 1.385 . S
C338 H312 0.930 . S
C338 C337 1.385 . S
C338 C339 1.357 . S
C339 C338 1.357 . S
C339 C340 1.406 . S
C340 H314 0.929 . S
C340 C339 1.406 . S
C340 C341 1.391 . S
C341 H313 0.931 . S
C341 C336 1.370 . S
C341 C340 1.391 . S
C342 N311 1.435 . S
C342 C343 1.358 . S
C342 C347 1.371 . S
C343 H315 0.930 . S
C343 C342 1.358 . S
C343 C344 1.405 . S
C344 H316 0.932 . S
C344 C343 1.405 . S
C344 C345 1.383 . S
C345 C344 1.383 . S
C345 C346 1.393 . S
C346 H318 0.931 . S
C346 C345 1.393 . S
C346 C347 1.382 . S
C347 H317 0.929 . S
C347 C342 1.371 . S
C347 C346 1.382 . S
C348 N311 1.423 . S
C348 C349 1.362 . S
C348 C353 1.388 . S
C349 H319 0.929 . S
C349 C348 1.362 . S
C349 C350 1.376 . S
C350 H321 0.931 . S
C350 C349 1.376 . S
C350 C351 1.396 . S
C351 C350 1.396 . S
C351 C352 1.348 . S
C351 C369 1.472 . S
C352 H322 0.929 . S
C352 C351 1.348 . S
C352 C353 1.443 . S
C353 H320 0.932 . S
C353 C348 1.388 . S
C353 C352 1.443 . S
C354 N334 1.433 . S
C354 C355 1.363 . S
C354 C359 1.370 . S
C355 H323 0.929 . S
C355 C354 1.363 . S
C355 C356 1.385 . S
C356 H324 0.930 . S
C356 C355 1.385 . S
C356 C357 1.357 . S
C357 C356 1.357 . S
C357 C358 1.406 . S
C358 H325 0.929 . S
C358 C357 1.406 . S
C358 C359 1.391 . S
C359 H326 0.931 . S
C359 C354 1.370 . S
C359 C358 1.391 . S
C360 N334 1.435 . S
C360 C361 1.358 . S
C360 C365 1.371 . S
C361 H327 0.930 . S
C361 C360 1.358 . S
C361 C362 1.405 . S
C362 H328 0.932 . S
C362 C361 1.405 . S
C362 C363 1.383 . S
C363 C362 1.383 . S
C363 C364 1.393 . S
C364 H329 0.931 . S
C364 C363 1.393 . S
C364 C365 1.382 . S
C365 H330 0.929 . S
C365 C360 1.371 . S
C365 C364 1.382 . S
C366 N334 1.423 . S
C366 C367 1.362 . S
C366 C371 1.388 . S
C367 H331 0.929 . S
C367 C366 1.362 . S
C367 C368 1.376 . S
C368 H332 0.931 . S
C368 C367 1.376 . S
C368 C369 1.396 . S
C369 C351 1.472 . S
C369 C368 1.396 . S
C369 C370 1.348 . S
C370 H333 0.929 . S
C370 C369 1.348 . S
C370 C371 1.443 . S
C371 H335 0.932 . S
C371 C366 1.388 . S
C371 C370 1.443 . S
H372 C399 0.929 . S
N373 C398 1.433 . S
N373 C404 1.435 . S
N373 C410 1.423 1_565 S
H374 C400 0.930 . S
H375 C403 0.931 . S
H376 C402 0.929 . S
H377 C405 0.930 . S
H378 C406 0.932 . S
H379 C409 0.929 1_545 S
H380 C408 0.931 . S
H381 C411 0.929 . S
H382 C415 0.932 1_565 S
H383 C412 0.931 . S
H384 C414 0.929 . S
H385 C417 0.929 . S
H386 C418 0.930 . S
H387 C420 0.929 . S
H388 C421 0.931 . S
H389 C423 0.930 . S
H390 C424 0.932 . S
H391 C426 0.931 . S
H392 C427 0.929 . S
H393 C429 0.929 . S
H394 C430 0.931 . S
H395 C432 0.929 . S
N396 C416 1.433 . S
N396 C422 1.435 . S
N396 C428 1.423 . S
H397 C433 0.932 . S
C398 N373 1.433 . S
C398 C399 1.363 . S
C398 C403 1.370 . S
C399 H372 0.929 . S
C399 C398 1.363 . S
C399 C400 1.385 . S
C400 H374 0.930 . S
C400 C399 1.385 . S
C400 C401 1.357 . S
C401 C400 1.357 . S
C401 C402 1.406 . S
C402 H376 0.929 . S
C402 C401 1.406 . S
C402 C403 1.391 . S
C403 H375 0.931 . S
C403 C398 1.370 . S
C403 C402 1.391 . S
C404 N373 1.435 . S
C404 C405 1.358 . S
C404 C409 1.371 . S
C405 H377 0.930 . S
C405 C404 1.358 . S
C405 C406 1.405 . S
C406 H378 0.932 . S
C406 C405 1.405 . S
C406 C407 1.383 . S
C407 C406 1.383 . S
C407 C408 1.393 . S
C408 H380 0.931 . S
C408 C407 1.393 . S
C408 C409 1.382 . S
C409 H379 0.929 1_565 S
C409 C404 1.371 . S
C409 C408 1.382 . S
C410 N373 1.423 1_545 S
C410 C411 1.362 . S
C410 C415 1.388 . S
C411 H381 0.929 . S
C411 C410 1.362 . S
C411 C412 1.376 . S
C412 H383 0.931 . S
C412 C411 1.376 . S
C412 C413 1.396 . S
C413 C412 1.396 . S
C413 C414 1.348 . S
C413 C431 1.472 . S
C414 H384 0.929 . S
C414 C413 1.348 . S
C414 C415 1.443 . S
C415 H382 0.932 1_545 S
C415 C410 1.388 . S
C415 C414 1.443 . S
C416 N396 1.433 . S
C416 C417 1.363 . S
C416 C421 1.370 . S
C417 H385 0.929 . S
C417 C416 1.363 . S
C417 C418 1.385 . S
C418 H386 0.930 . S
C418 C417 1.385 . S
C418 C419 1.357 . S
C419 C418 1.357 . S
C419 C420 1.406 . S
C420 H387 0.929 . S
C420 C419 1.406 . S
C420 C421 1.391 . S
C421 H388 0.931 . S
C421 C416 1.370 . S
C421 C420 1.391 . S
C422 N396 1.435 . S
C422 C423 1.358 . S
C422 C427 1.371 . S
C423 H389 0.930 . S
C423 C422 1.358 . S
C423 C424 1.405 . S
C424 H390 0.932 . S
C424 C423 1.405 . S
C424 C425 1.383 . S
C425 C424 1.383 . S
C425 C426 1.393 . S
C426 H391 0.931 . S
C426 C425 1.393 . S
C426 C427 1.382 . S
C427 H392 0.929 . S
C427 C422 1.371 . S
C427 C426 1.382 . S
C428 N396 1.423 . S
C428 C429 1.362 . S
C428 C433 1.388 . S
C429 H393 0.929 . S
C429 C428 1.362 . S
C429 C430 1.376 . S
C430 H394 0.931 . S
C430 C429 1.376 . S
C430 C431 1.396 . S
C431 C413 1.472 . S
C431 C430 1.396 . S
C431 C432 1.348 . S
C432 H395 0.929 . S
C432 C431 1.348 . S
C432 C433 1.443 . S
C433 H397 0.932 . S
C433 C428 1.388 . S
C433 C432 1.443 . S
H434 C461 0.929 . S
N435 C460 1.433 . S
N435 C466 1.435 . S
N435 C472 1.423 . S
H436 C462 0.930 . S
H437 C465 0.931 . S
H438 C464 0.929 . S
H439 C467 0.930 . S
H440 C468 0.932 . S
H441 C471 0.929 . S
H442 C470 0.931 . S
H443 C473 0.929 . S
H444 C477 0.932 . S
H445 C474 0.931 . S
H446 C476 0.929 . S
H447 C479 0.929 1_655 S
H448 C480 0.930 1_655 S
H449 C482 0.929 . S
H450 C483 0.931 . S
H451 C485 0.930 . S
H452 C486 0.932 . S
H453 C488 0.931 . S
H454 C489 0.929 . S
H455 C491 0.929 . S
H456 C492 0.931 . S
H457 C494 0.929 . S
N458 C478 1.433 . S
N458 C484 1.435 . S
N458 C490 1.423 . S
H459 C495 0.932 . S
C460 N435 1.433 . S
C460 C461 1.363 . S
C460 C465 1.370 . S
C461 H434 0.929 . S
C461 C460 1.363 . S
C461 C462 1.385 . S
C462 H436 0.930 . S
C462 C461 1.385 . S
C462 C463 1.357 . S
C463 C462 1.357 . S
C463 C464 1.406 . S
C464 H438 0.929 . S
C464 C463 1.406 . S
C464 C465 1.391 . S
C465 H437 0.931 . S
C465 C460 1.370 . S
C465 C464 1.391 . S
C466 N435 1.435 . S
C466 C467 1.358 . S
C466 C471 1.371 . S
C467 H439 0.930 . S
C467 C466 1.358 . S
C467 C468 1.405 . S
C468 H440 0.932 . S
C468 C467 1.405 . S
C468 C469 1.383 . S
C469 C468 1.383 . S
C469 C470 1.393 . S
C470 H442 0.931 . S
C470 C469 1.393 . S
C470 C471 1.382 . S
C471 H441 0.929 . S
C471 C466 1.371 . S
C471 C470 1.382 . S
C472 N435 1.423 . S
C472 C473 1.362 . S
C472 C477 1.388 . S
C473 H443 0.929 . S
C473 C472 1.362 . S
C473 C474 1.376 . S
C474 H445 0.931 . S
C474 C473 1.376 . S
C474 C475 1.396 . S
C475 C474 1.396 . S
C475 C476 1.348 . S
C475 C493 1.472 . S
C476 H446 0.929 . S
C476 C475 1.348 . S
C476 C477 1.443 . S
C477 H444 0.932 . S
C477 C472 1.388 . S
C477 C476 1.443 . S
C478 N458 1.433 . S
C478 C479 1.363 . S
C478 C483 1.370 . S
C479 H447 0.929 1_455 S
C479 C478 1.363 . S
C479 C480 1.385 . S
C480 H448 0.930 1_455 S
C480 C479 1.385 . S
C480 C481 1.357 . S
C481 C480 1.357 . S
C481 C482 1.406 . S
C482 H449 0.929 . S
C482 C481 1.406 . S
C482 C483 1.391 . S
C483 H450 0.931 . S
C483 C478 1.370 . S
C483 C482 1.391 . S
C484 N458 1.435 . S
C484 C485 1.358 . S
C484 C489 1.371 . S
C485 H451 0.930 . S
C485 C484 1.358 . S
C485 C486 1.405 . S
C486 H452 0.932 . S
C486 C485 1.405 . S
C486 C487 1.383 1_455 S
C487 C486 1.383 1_655 S
C487 C488 1.393 . S
C488 H453 0.931 . S
C488 C487 1.393 . S
C488 C489 1.382 1_655 S
C489 H454 0.929 . S
C489 C484 1.371 . S
C489 C488 1.382 1_455 S
C490 N458 1.423 . S
C490 C491 1.362 . S
C490 C495 1.388 . S
C491 H455 0.929 . S
C491 C490 1.362 . S
C491 C492 1.376 . S
C492 H456 0.931 . S
C492 C491 1.376 . S
C492 C493 1.396 . S
C493 C475 1.472 . S
C493 C492 1.396 . S
C493 C494 1.348 . S
C494 H457 0.929 . S
C494 C493 1.348 . S
C494 C495 1.443 . S
C495 H459 0.932 . S
C495 C490 1.388 . S
C495 C494 1.443 . S
O496 Cd497 2.223 . S
O496 C504 1.315 . S
Cd497 O496 2.223 . S
Cd497 O500 2.297 . S
Cd497 O501 2.439 . S
Cd497 O507 2.240 . S
Cd498 O499 2.240 . S
Cd498 O506 2.223 . S
Cd498 O508 2.297 . S
Cd498 O509 2.439 . S
O499 Cd498 2.240 . S
O499 C504 1.279 . S
O500 Cd497 2.297 . S
O500 C502 1.247 . S
O501 Cd497 2.439 . S
O501 C502 1.208 . S
C502 O500 1.247 . S
C502 O501 1.208 . S
C503 O508 1.247 . S
C503 O509 1.208 . S
C504 O496 1.315 . S
C504 O499 1.279 . S
C505 O506 1.315 . S
C505 O507 1.279 . S
O506 Cd498 2.223 . S
O506 C505 1.315 . S
O507 Cd497 2.240 . S
O507 C505 1.279 . S
O508 Cd498 2.297 . S
O508 C503 1.247 . S
O509 Cd498 2.439 . S
O509 C503 1.208 . S
O510 Cd511 2.223 . S
O510 C518 1.315 . S
Cd511 O510 2.223 . S
Cd511 O514 2.297 . S
Cd511 O515 2.439 . S
Cd511 O521 2.240 . S
Cd512 O513 2.240 . S
Cd512 O520 2.223 . S
Cd512 O522 2.297 . S
Cd512 O523 2.439 . S
O513 Cd512 2.240 . S
O513 C518 1.279 . S
O514 Cd511 2.297 . S
O514 C516 1.247 . S
O515 Cd511 2.439 . S
O515 C516 1.208 . S
C516 O514 1.247 . S
C516 O515 1.208 . S
C517 O522 1.247 . S
C517 O523 1.208 . S
C518 O510 1.315 . S
C518 O513 1.279 . S
C519 O520 1.315 . S
C519 O521 1.279 . S
O520 Cd512 2.223 . S
O520 C519 1.315 . S
O521 Cd511 2.240 . S
O521 C519 1.279 . S
O522 Cd512 2.297 . S
O522 C517 1.247 . S
O523 Cd512 2.439 . S
O523 C517 1.208 . S
O524 Cd525 2.223 . S
O524 C532 1.315 . S
Cd525 O524 2.223 . S
Cd525 O528 2.297 . S
Cd525 O529 2.439 . S
Cd525 O535 2.240 . S
Cd526 O527 2.240 . S
Cd526 O534 2.223 . S
Cd526 O536 2.297 . S
Cd526 O537 2.439 . S
O527 Cd526 2.240 . S
O527 C532 1.279 . S
O528 Cd525 2.297 . S
O528 C530 1.247 . S
O529 Cd525 2.439 . S
O529 C530 1.208 . S
C530 O528 1.247 . S
C530 O529 1.208 . S
C531 O536 1.247 . S
C531 O537 1.208 . S
C532 O524 1.315 . S
C532 O527 1.279 . S
C533 O534 1.315 . S
C533 O535 1.279 . S
O534 Cd526 2.223 . S
O534 C533 1.315 . S
O535 Cd525 2.240 . S
O535 C533 1.279 . S
O536 Cd526 2.297 . S
O536 C531 1.247 . S
O537 Cd526 2.439 . S
O537 C531 1.208 . S
O538 Cd539 2.223 . S
O538 C546 1.315 . S
Cd539 O538 2.223 . S
Cd539 O542 2.297 . S
Cd539 O543 2.439 . S
Cd539 O549 2.240 . S
Cd540 O541 2.240 . S
Cd540 O548 2.223 . S
Cd540 O550 2.297 . S
Cd540 O551 2.439 . S
O541 Cd540 2.240 . S
O541 C546 1.279 . S
O542 Cd539 2.297 . S
O542 C544 1.247 . S
O543 Cd539 2.439 . S
O543 C544 1.208 . S
C544 O542 1.247 . S
C544 O543 1.208 . S
C545 O550 1.247 . S
C545 O551 1.208 . S
C546 O538 1.315 . S
C546 O541 1.279 . S
C547 O548 1.315 . S
C547 O549 1.279 . S
O548 Cd540 2.223 . S
O548 C547 1.315 . S
O549 Cd539 2.240 . S
O549 C547 1.279 . S
O550 Cd540 2.297 . S
O550 C545 1.247 . S
O551 Cd540 2.439 . S
O551 C545 1.208 . S
O552 Cd553 2.223 . S
O552 C560 1.315 . S
Cd553 O552 2.223 . S
Cd553 O556 2.297 . S
Cd553 O557 2.439 . S
Cd553 O563 2.240 . S
Cd554 O555 2.240 . S
Cd554 O562 2.223 . S
Cd554 O564 2.297 . S
Cd554 O565 2.439 . S
O555 Cd554 2.240 . S
O555 C560 1.279 . S
O556 Cd553 2.297 . S
O556 C558 1.247 . S
O557 Cd553 2.439 . S
O557 C558 1.208 . S
C558 O556 1.247 . S
C558 O557 1.208 . S
C559 O564 1.247 . S
C559 O565 1.208 . S
C560 O552 1.315 . S
C560 O555 1.279 . S
C561 O562 1.315 . S
C561 O563 1.279 . S
O562 Cd554 2.223 . S
O562 C561 1.315 . S
O563 Cd553 2.240 . S
O563 C561 1.279 . S
O564 Cd554 2.297 . S
O564 C559 1.247 . S
O565 Cd554 2.439 . S
O565 C559 1.208 . S
O566 Cd567 2.223 . S
O566 C574 1.315 . S
Cd567 O566 2.223 . S
Cd567 O570 2.297 . S
Cd567 O571 2.439 . S
Cd567 O577 2.240 . S
Cd568 O569 2.240 . S
Cd568 O576 2.223 . S
Cd568 O578 2.297 . S
Cd568 O579 2.439 . S
O569 Cd568 2.240 . S
O569 C574 1.279 . S
O570 Cd567 2.297 . S
O570 C572 1.247 . S
O571 Cd567 2.439 . S
O571 C572 1.208 . S
C572 O570 1.247 . S
C572 O571 1.208 . S
C573 O578 1.247 . S
C573 O579 1.208 . S
C574 O566 1.315 . S
C574 O569 1.279 . S
C575 O576 1.315 . S
C575 O577 1.279 . S
O576 Cd568 2.223 . S
O576 C575 1.315 . S
O577 Cd567 2.240 . S
O577 C575 1.279 . S
O578 Cd568 2.297 . S
O578 C573 1.247 . S
O579 Cd568 2.439 . S
O579 C573 1.208 . S
O580 Cd581 2.223 . S
O580 C588 1.315 . S
Cd581 O580 2.223 . S
Cd581 O584 2.297 . S
Cd581 O585 2.451 . S
Cd581 O591 2.240 1_554 S
Cd582 O583 2.240 1_556 S
Cd582 O590 2.225 . S
Cd582 O592 2.297 . S
Cd582 O593 2.439 . S
O583 Cd582 2.240 1_554 S
O583 C588 1.279 . S
O584 Cd581 2.297 . S
O584 C586 1.247 . S
O585 Cd581 2.451 . S
O585 C586 1.251 . S
C586 O584 1.247 . S
C586 O585 1.251 . S
C587 O592 1.247 . S
C587 O593 1.208 . S
C588 O580 1.315 . S
C588 O583 1.279 . S
C589 O590 1.319 . S
C589 O591 1.279 . S
O590 Cd582 2.225 . S
O590 C589 1.319 . S
O591 Cd581 2.240 1_556 S
O591 C589 1.279 . S
O592 Cd582 2.297 . S
O592 C587 1.247 . S
O593 Cd582 2.439 . S
O593 C587 1.208 . S
O594 Cd595 2.223 . S
O594 C602 1.315 . S
Cd595 O594 2.223 . S
Cd595 O598 2.297 . S
Cd595 O599 2.439 . S
Cd595 O605 2.240 . S
Cd596 O597 2.240 . S
Cd596 O604 2.223 . S
Cd596 O606 2.297 . S
Cd596 O607 2.439 . S
O597 Cd596 2.240 . S
O597 C602 1.279 . S
O598 Cd595 2.297 . S
O598 C600 1.247 . S
O599 Cd595 2.439 . S
O599 C600 1.208 . S
C600 O598 1.247 . S
C600 O599 1.208 . S
C601 O606 1.247 . S
C601 O607 1.208 . S
C602 O594 1.315 . S
C602 O597 1.279 . S
C603 O604 1.315 . S
C603 O605 1.279 . S
O604 Cd596 2.223 . S
O604 C603 1.315 . S
O605 Cd595 2.240 . S
O605 C603 1.279 . S
O606 Cd596 2.297 . S
O606 C601 1.247 . S
O607 Cd596 2.439 . S
O607 C601 1.208 . S
H608 C616 0.929 . S
H609 C618 0.930 . S
H610 C620 0.930 . S
H611 C623 0.929 . S
H612 C626 0.930 . S
H613 C628 0.960 . S
H614 C628 0.960 . S
H615 C628 0.960 . S
C616 H608 0.929 . S
C616 C617 1.377 . S
C616 C618 1.384 . S
C617 C616 1.377 . S
C617 C623 1.390 . S
C618 H609 0.930 . S
C618 C616 1.384 . S
C618 C619 1.372 . S
C619 C618 1.372 . S
C619 C620 1.400 . S
C619 C624 1.490 . S
C620 H610 0.930 . S
C620 C619 1.400 . S
C620 C623 1.386 . S
H621 C637 0.930 . S
H622 C638 0.931 . S
C623 H611 0.929 . S
C623 C617 1.390 . S
C623 C620 1.386 . S
C624 C619 1.490 . S
C624 C626 1.395 . S
C624 C627 1.403 . S
H625 C631 0.930 . S
C626 H612 0.930 . S
C626 C624 1.395 . S
C626 C629 1.403 . S
C627 C624 1.403 . S
C627 C628 1.524 . S
C627 C631 1.400 . S
C628 H613 0.960 . S
C628 H614 0.960 . S
C628 H615 0.960 . S
C628 C627 1.524 . S
C629 C626 1.403 . S
C629 C630 1.392 . S
C629 C633 1.495 . S
C630 C629 1.392 . S
C630 C631 1.385 . S
C630 C632 1.478 . S
C631 H625 0.930 . S
C631 C627 1.400 . S
C631 C630 1.385 . S
C632 C630 1.478 . S
C632 C634 1.381 . S
C632 C638 1.383 . S
C633 C629 1.495 . S
C633 H639 0.959 . S
C633 H640 0.961 . S
C633 H641 0.960 . S
C634 C632 1.381 . S
C634 C635 1.394 . S
C634 H642 0.930 . S
C635 C634 1.394 . S
C635 C636 1.383 . S
C635 H643 0.929 . S
C636 C635 1.383 . S
C636 C637 1.377 . S
C637 H621 0.930 . S
C637 C636 1.377 . S
C637 C638 1.379 . S
C638 H622 0.931 . S
C638 C632 1.383 . S
C638 C637 1.379 . S
H639 C633 0.959 . S
H640 C633 0.961 . S
H641 C633 0.960 . S
H642 C634 0.930 . S
H643 C635 0.929 . S
H644 C652 0.929 . S
H645 C654 0.930 . S
H646 C656 0.930 . S
H647 C659 0.929 . S
H648 C662 0.930 . S
H649 C664 0.960 . S
H650 C664 0.960 . S
H651 C664 0.960 . S
C652 H644 0.929 . S
C652 C653 1.377 . S
C652 C654 1.384 . S
C653 C652 1.377 . S
C653 C659 1.390 . S
C654 H645 0.930 . S
C654 C652 1.384 . S
C654 C655 1.372 . S
C655 C654 1.372 . S
C655 C656 1.400 . S
C655 C660 1.490 . S
C656 H646 0.930 . S
C656 C655 1.400 . S
C656 C659 1.386 . S
H657 C673 0.930 . S
H658 C674 0.931 . S
C659 H647 0.929 . S
C659 C653 1.390 . S
C659 C656 1.386 . S
C660 C655 1.490 . S
C660 C662 1.395 . S
C660 C663 1.403 . S
H661 C667 0.930 . S
C662 H648 0.930 . S
C662 C660 1.395 . S
C662 C665 1.403 . S
C663 C660 1.403 . S
C663 C664 1.524 . S
C663 C667 1.400 . S
C664 H649 0.960 . S
C664 H650 0.960 . S
C664 H651 0.960 . S
C664 C663 1.524 . S
C665 C662 1.403 . S
C665 C666 1.392 . S
C665 C669 1.495 . S
C666 C665 1.392 . S
C666 C667 1.385 . S
C666 C668 1.478 . S
C667 H661 0.930 . S
C667 C663 1.400 . S
C667 C666 1.385 . S
C668 C666 1.478 . S
C668 C670 1.381 . S
C668 C674 1.383 . S
C669 C665 1.495 . S
C669 H675 0.959 . S
C669 H676 0.961 . S
C669 H677 0.960 . S
C670 C668 1.381 . S
C670 C671 1.394 . S
C670 H678 0.930 . S
C671 C670 1.394 . S
C671 C672 1.383 . S
C671 H679 0.929 . S
C672 C671 1.383 . S
C672 C673 1.377 . S
C673 H657 0.930 . S
C673 C672 1.377 . S
C673 C674 1.379 . S
C674 H658 0.931 . S
C674 C668 1.383 . S
C674 C673 1.379 . S
H675 C669 0.959 . S
H676 C669 0.961 . S
H677 C669 0.960 . S
H678 C670 0.930 . S
H679 C671 0.929 . S
H680 C688 0.929 . S
H681 C690 0.930 . S
H682 C692 0.930 . S
H683 C695 0.929 . S
H684 C698 0.930 . S
H685 C700 0.960 . S
H686 C700 0.960 . S
H687 C700 0.960 . S
C688 H680 0.929 . S
C688 C689 1.377 . S
C688 C690 1.384 . S
C689 C688 1.377 . S
C689 C695 1.390 . S
C690 H681 0.930 . S
C690 C688 1.384 . S
C690 C691 1.372 . S
C691 C690 1.372 . S
C691 C692 1.400 . S
C691 C696 1.490 . S
C692 H682 0.930 . S
C692 C691 1.400 . S
C692 C695 1.386 . S
H693 C709 0.930 . S
H694 C710 0.931 . S
C695 H683 0.929 . S
C695 C689 1.390 . S
C695 C692 1.386 . S
C696 C691 1.490 . S
C696 C698 1.395 . S
C696 C699 1.403 . S
H697 C703 0.930 . S
C698 H684 0.930 . S
C698 C696 1.395 . S
C698 C701 1.403 . S
C699 C696 1.403 . S
C699 C700 1.524 . S
C699 C703 1.400 . S
C700 H685 0.960 . S
C700 H686 0.960 . S
C700 H687 0.960 . S
C700 C699 1.524 . S
C701 C698 1.403 . S
C701 C702 1.392 . S
C701 C705 1.495 . S
C702 C701 1.392 . S
C702 C703 1.385 . S
C702 C704 1.478 . S
C703 H697 0.930 . S
C703 C699 1.400 . S
C703 C702 1.385 . S
C704 C702 1.478 . S
C704 C706 1.381 . S
C704 C710 1.383 . S
C705 C701 1.495 . S
C705 H711 0.959 . S
C705 H712 0.961 . S
C705 H713 0.960 . S
C706 C704 1.381 . S
C706 C707 1.394 . S
C706 H714 0.930 . S
C707 C706 1.394 . S
C707 C708 1.383 . S
C707 H715 0.929 . S
C708 C707 1.383 . S
C708 C709 1.377 . S
C709 H693 0.930 . S
C709 C708 1.377 . S
C709 C710 1.379 . S
C710 H694 0.931 . S
C710 C704 1.383 . S
C710 C709 1.379 . S
H711 C705 0.959 . S
H712 C705 0.961 . S
H713 C705 0.960 . S
H714 C706 0.930 . S
H715 C707 0.929 . S
H716 C724 0.929 . S
H717 C726 0.930 . S
H718 C728 0.930 . S
H719 C731 0.929 . S
H720 C734 0.930 . S
H721 C736 0.960 . S
H722 C736 0.960 . S
H723 C736 0.960 . S
C724 H716 0.929 . S
C724 C725 1.377 . S
C724 C726 1.384 . S
C725 C724 1.377 . S
C725 C731 1.390 . S
C726 H717 0.930 . S
C726 C724 1.384 . S
C726 C727 1.372 . S
C727 C726 1.372 . S
C727 C728 1.400 . S
C727 C732 1.490 . S
C728 H718 0.930 . S
C728 C727 1.400 . S
C728 C731 1.386 . S
H729 C745 0.930 . S
H730 C746 0.931 . S
C731 H719 0.929 . S
C731 C725 1.390 . S
C731 C728 1.386 . S
C732 C727 1.490 . S
C732 C734 1.395 . S
C732 C735 1.403 . S
H733 C739 0.930 . S
C734 H720 0.930 . S
C734 C732 1.395 . S
C734 C737 1.403 . S
C735 C732 1.403 . S
C735 C736 1.524 . S
C735 C739 1.400 . S
C736 H721 0.960 . S
C736 H722 0.960 . S
C736 H723 0.960 . S
C736 C735 1.524 . S
C737 C734 1.403 . S
C737 C738 1.392 . S
C737 C741 1.495 . S
C738 C737 1.392 . S
C738 C739 1.385 . S
C738 C740 1.478 . S
C739 H733 0.930 . S
C739 C735 1.400 . S
C739 C738 1.385 . S
C740 C738 1.478 . S
C740 C742 1.381 . S
C740 C746 1.383 . S
C741 C737 1.495 . S
C741 H747 0.959 . S
C741 H748 0.961 . S
C741 H749 0.960 . S
C742 C740 1.381 . S
C742 C743 1.394 . S
C742 H750 0.930 . S
C743 C742 1.394 . S
C743 C744 1.383 . S
C743 H751 0.929 . S
C744 C743 1.383 . S
C744 C745 1.377 . S
C745 H729 0.930 . S
C745 C744 1.377 . S
C745 C746 1.379 . S
C746 H730 0.931 . S
C746 C740 1.383 . S
C746 C745 1.379 . S
H747 C741 0.959 . S
H748 C741 0.961 . S
H749 C741 0.960 . S
H750 C742 0.930 . S
H751 C743 0.929 . S
H752 C760 0.929 . S
H753 C762 0.930 . S
H754 C764 0.871 1_556 S
H755 C767 0.929 1_556 S
H756 C770 0.930 . S
H757 C772 0.960 . S
H758 C772 0.960 . S
H759 C772 0.980 . S
C760 H752 0.929 . S
C760 C761 1.377 . S
C760 C762 1.384 . S
C761 C760 1.377 . S
C761 C767 1.390 . S
C762 H753 0.930 . S
C762 C760 1.384 . S
C762 C763 1.372 . S
C763 C762 1.372 . S
C763 C764 1.400 . S
C763 C768 1.490 . S
C764 H754 0.871 1_554 S
C764 C763 1.400 . S
C764 C767 1.386 . S
H765 C781 0.930 . S
H766 C782 0.931 . S
C767 H755 0.929 1_554 S
C767 C761 1.390 . S
C767 C764 1.386 . S
C768 C763 1.490 . S
C768 C770 1.395 . S
C768 C771 1.403 . S
H769 C775 0.930 . S
C770 H756 0.930 . S
C770 C768 1.395 . S
C770 C773 1.403 . S
C771 C768 1.403 . S
C771 C772 1.524 . S
C771 C775 1.400 . S
C772 H757 0.960 . S
C772 H758 0.960 . S
C772 H759 0.980 . S
C772 C771 1.524 . S
C773 C770 1.403 . S
C773 C774 1.392 . S
C773 C777 1.495 . S
C774 C773 1.392 . S
C774 C775 1.385 . S
C774 C776 1.478 . S
C775 H769 0.930 . S
C775 C771 1.400 . S
C775 C774 1.385 . S
C776 C774 1.478 . S
C776 C778 1.381 . S
C776 C782 1.383 . S
C777 C773 1.495 . S
C777 H783 0.959 . S
C777 H784 0.961 . S
C777 H785 0.960 . S
C778 C776 1.381 . S
C778 C779 1.394 . S
C778 H786 0.930 . S
C779 C778 1.394 . S
C779 C780 1.383 . S
C779 H787 0.929 . S
C780 C779 1.383 . S
C780 C781 1.377 . S
C781 H765 0.930 . S
C781 C780 1.377 . S
C781 C782 1.379 . S
C782 H766 0.931 . S
C782 C776 1.383 . S
C782 C781 1.379 . S
H783 C777 0.959 . S
H784 C777 0.961 . S
H785 C777 0.960 . S
H786 C778 0.930 . S
H787 C779 0.929 . S
H788 C796 0.929 . S
H789 C798 0.930 . S
H790 C800 0.930 . S
H791 C803 0.929 . S
H792 C806 0.930 . S
H793 C808 0.960 . S
H794 C808 0.960 . S
H795 C808 0.960 . S
C796 H788 0.929 . S
C796 C797 1.377 . S
C796 C798 1.384 . S
C797 C796 1.377 . S
C797 C803 1.390 . S
C798 H789 0.930 . S
C798 C796 1.384 . S
C798 C799 1.372 . S
C799 C798 1.372 . S
C799 C800 1.400 . S
C799 C804 1.490 . S
C800 H790 0.930 . S
C800 C799 1.400 . S
C800 C803 1.386 . S
H801 C817 0.930 . S
H802 C818 0.931 . S
C803 H791 0.929 . S
C803 C797 1.390 . S
C803 C800 1.386 . S
C804 C799 1.490 . S
C804 C806 1.395 . S
C804 C807 1.403 . S
H805 C811 0.930 . S
C806 H792 0.930 . S
C806 C804 1.395 . S
C806 C809 1.403 . S
C807 C804 1.403 . S
C807 C808 1.524 . S
C807 C811 1.400 . S
C808 H793 0.960 . S
C808 H794 0.960 . S
C808 H795 0.960 . S
C808 C807 1.524 . S
C809 C806 1.403 . S
C809 C810 1.392 . S
C809 C813 1.495 . S
C810 C809 1.392 . S
C810 C811 1.385 . S
C810 C812 1.478 . S
C811 H805 0.930 . S
C811 C807 1.400 . S
C811 C810 1.385 . S
C812 C810 1.478 . S
C812 C814 1.381 . S
C812 C818 1.383 . S
C813 C809 1.495 . S
C813 H819 0.959 . S
C813 H820 0.961 . S
C813 H821 0.960 . S
C814 C812 1.381 . S
C814 C815 1.394 . S
C814 H822 0.930 . S
C815 C814 1.394 . S
C815 C816 1.383 . S
C815 H823 0.929 . S
C816 C815 1.383 . S
C816 C817 1.377 . S
C817 H801 0.930 . S
C817 C816 1.377 . S
C817 C818 1.379 . S
C818 H802 0.931 . S
C818 C812 1.383 . S
C818 C817 1.379 . S
H819 C813 0.959 . S
H820 C813 0.961 . S
H821 C813 0.960 . S
H822 C814 0.930 . S
H823 C815 0.929 . S
H824 C832 0.929 . S
H825 C834 0.930 . S
H826 C836 0.930 . S
H827 C839 0.929 . S
H828 C842 0.930 . S
H829 C844 0.960 . S
H830 C844 0.960 . S
H831 C844 0.960 . S
C832 H824 0.929 . S
C832 C833 1.377 . S
C832 C834 1.384 . S
C833 C832 1.377 . S
C833 C839 1.390 . S
C834 H825 0.930 . S
C834 C832 1.384 . S
C834 C835 1.372 . S
C835 C834 1.372 . S
C835 C836 1.400 . S
C835 C840 1.490 . S
C836 H826 0.930 . S
C836 C835 1.400 . S
C836 C839 1.386 . S
H837 C853 0.930 . S
H838 C854 0.931 . S
C839 H827 0.929 . S
C839 C833 1.390 . S
C839 C836 1.386 . S
C840 C835 1.490 . S
C840 C842 1.395 . S
C840 C843 1.403 . S
H841 C847 0.930 . S
C842 H828 0.930 . S
C842 C840 1.395 . S
C842 C845 1.403 . S
C843 C840 1.403 . S
C843 C844 1.524 . S
C843 C847 1.400 . S
C844 H829 0.960 . S
C844 H830 0.960 . S
C844 H831 0.960 . S
C844 C843 1.524 . S
C845 C842 1.403 . S
C845 C846 1.392 . S
C845 C849 1.495 . S
C846 C845 1.392 . S
C846 C847 1.385 . S
C846 C848 1.478 . S
C847 H841 0.930 . S
C847 C843 1.400 . S
C847 C846 1.385 . S
C848 C846 1.478 . S
C848 C850 1.381 . S
C848 C854 1.383 . S
C849 C845 1.495 . S
C849 H855 0.959 . S
C849 H856 0.961 . S
C849 H857 0.960 . S
C850 C848 1.381 . S
C850 C851 1.394 . S
C850 H858 0.930 . S
C851 C850 1.394 . S
C851 C852 1.383 . S
C851 H859 0.929 . S
C852 C851 1.383 . S
C852 C853 1.377 . S
C853 H837 0.930 . S
C853 C852 1.377 . S
C853 C854 1.379 . S
C854 H838 0.931 . S
C854 C848 1.383 . S
C854 C853 1.379 . S
H855 C849 0.959 . S
H856 C849 0.961 . S
H857 C849 0.960 . S
H858 C850 0.930 . S
H859 C851 0.929 . S
H860 C868 0.929 . S
H861 C870 0.930 . S
H862 C872 0.930 . S
H863 C875 0.929 . S
H864 C878 0.930 . S
H865 C880 0.960 . S
H866 C880 0.960 . S
H867 C880 0.960 . S
C868 H860 0.929 . S
C868 C869 1.377 . S
C868 C870 1.384 1_545 S
C869 C868 1.377 . S
C869 C875 1.390 . S
C870 H861 0.930 . S
C870 C868 1.384 1_565 S
C870 C871 1.372 . S
C871 C870 1.372 . S
C871 C872 1.400 . S
C871 C876 1.490 . S
C872 H862 0.930 . S
C872 C871 1.400 . S
C872 C875 1.386 1_565 S
H873 C889 0.930 . S
H874 C890 0.931 . S
C875 H863 0.929 . S
C875 C869 1.390 . S
C875 C872 1.386 1_545 S
C876 C871 1.490 . S
C876 C878 1.395 . S
C876 C879 1.403 . S
H877 C883 0.930 . S
C878 H864 0.930 . S
C878 C876 1.395 . S
C878 C881 1.403 . S
C879 C876 1.403 . S
C879 C880 1.524 . S
C879 C883 1.400 . S
C880 H865 0.960 . S
C880 H866 0.960 . S
C880 H867 0.960 . S
C880 C879 1.524 . S
C881 C878 1.403 . S
C881 C882 1.392 . S
C881 C885 1.495 . S
C882 C881 1.392 . S
C882 C883 1.385 . S
C882 C884 1.478 . S
C883 H877 0.930 . S
C883 C879 1.400 . S
C883 C882 1.385 . S
C884 C882 1.478 . S
C884 C886 1.381 . S
C884 C890 1.383 . S
C885 C881 1.495 . S
C885 H891 0.959 . S
C885 H892 0.961 . S
C885 H893 0.960 . S
C886 C884 1.381 . S
C886 C887 1.394 . S
C886 H894 0.930 . S
C887 C886 1.394 . S
C887 C888 1.383 . S
C887 H895 0.929 . S
C888 C887 1.383 . S
C888 C889 1.377 . S
C889 H873 0.930 . S
C889 C888 1.377 . S
C889 C890 1.379 . S
C890 H874 0.931 . S
C890 C884 1.383 . S
C890 C889 1.379 . S
H891 C885 0.959 . S
H892 C885 0.961 . S
H893 C885 0.960 . S
H894 C886 0.930 . S
H895 C887 0.929 . S
H896 C904 0.929 . S
H897 C906 0.930 . S
H898 C908 0.930 . S
H899 C911 0.929 . S
H900 C914 0.930 . S
H901 C916 0.960 . S
H902 C916 0.960 . S
H903 C916 0.960 . S
C904 H896 0.929 . S
C904 C905 1.377 . S
C904 C906 1.384 . S
C905 C904 1.377 . S
C905 C911 1.390 . S
C906 H897 0.930 . S
C906 C904 1.384 . S
C906 C907 1.372 . S
C907 C906 1.372 . S
C907 C908 1.400 . S
C907 C912 1.490 . S
C908 H898 0.930 . S
C908 C907 1.400 . S
C908 C911 1.386 . S
H909 C925 0.930 . S
H910 C926 0.931 . S
C911 H899 0.929 . S
C911 C905 1.390 . S
C911 C908 1.386 . S
C912 C907 1.490 . S
C912 C914 1.395 . S
C912 C915 1.403 . S
H913 C919 0.930 . S
C914 H900 0.930 . S
C914 C912 1.395 . S
C914 C917 1.403 . S
C915 C912 1.403 . S
C915 C916 1.524 . S
C915 C919 1.400 . S
C916 H901 0.960 . S
C916 H902 0.960 . S
C916 H903 0.960 . S
C916 C915 1.524 . S
C917 C914 1.403 . S
C917 C918 1.392 . S
C917 C921 1.495 . S
C918 C917 1.392 . S
C918 C919 1.385 . S
C918 C920 1.478 . S
C919 H913 0.930 . S
C919 C915 1.400 . S
C919 C918 1.385 . S
C920 C918 1.478 . S
C920 C922 1.381 . S
C920 C926 1.383 . S
C921 C917 1.495 . S
C921 H927 0.959 . S
C921 H928 0.961 . S
C921 H929 0.960 . S
C922 C920 1.381 . S
C922 C923 1.394 . S
C922 H930 0.930 . S
C923 C922 1.394 . S
C923 C924 1.383 . S
C923 H931 0.929 . S
C924 C923 1.383 . S
C924 C925 1.377 . S
C925 H909 0.930 . S
C925 C924 1.377 . S
C925 C926 1.379 . S
C926 H910 0.931 . S
C926 C920 1.383 . S
C926 C925 1.379 . S
H927 C921 0.959 . S
H928 C921 0.961 . S
H929 C921 0.960 . S
H930 C922 0.930 . S
H931 C923 0.929 . S
H932 C940 0.929 . S
H933 C942 0.930 . S
H934 C944 0.930 . S
H935 C947 0.929 . S
H936 C950 0.930 . S
H937 C952 0.960 . S
H938 C952 0.960 . S
H939 C952 0.960 . S
C940 H932 0.929 . S
C940 C941 1.377 . S
C940 C942 1.384 . S
C941 C940 1.377 . S
C941 C947 1.390 . S
C942 H933 0.930 . S
C942 C940 1.384 . S
C942 C943 1.372 . S
C943 C942 1.372 . S
C943 C944 1.400 . S
C943 C948 1.490 . S
C944 H934 0.930 . S
C944 C943 1.400 . S
C944 C947 1.386 . S
H945 C961 0.930 . S
H946 C962 0.931 . S
C947 H935 0.929 . S
C947 C941 1.390 . S
C947 C944 1.386 . S
C948 C943 1.490 . S
C948 C950 1.395 . S
C948 C951 1.403 . S
H949 C955 0.930 . S
C950 H936 0.930 . S
C950 C948 1.395 . S
C950 C953 1.403 . S
C951 C948 1.403 . S
C951 C952 1.524 . S
C951 C955 1.400 . S
C952 H937 0.960 . S
C952 H938 0.960 . S
C952 H939 0.960 . S
C952 C951 1.524 . S
C953 C950 1.403 . S
C953 C954 1.392 . S
C953 C957 1.495 . S
C954 C953 1.392 . S
C954 C955 1.385 . S
C954 C956 1.478 . S
C955 H949 0.930 . S
C955 C951 1.400 . S
C955 C954 1.385 . S
C956 C954 1.478 . S
C956 C958 1.381 . S
C956 C962 1.383 . S
C957 C953 1.495 . S
C957 H963 0.959 . S
C957 H964 0.961 . S
C957 H965 0.960 . S
C958 C956 1.381 . S
C958 C959 1.394 . S
C958 H966 0.930 . S
C959 C958 1.394 . S
C959 C960 1.383 . S
C959 H967 0.929 1_554 S
C960 C959 1.383 . S
C960 C961 1.377 . S
C961 H945 0.930 . S
C961 C960 1.377 . S
C961 C962 1.379 . S
C962 H946 0.931 . S
C962 C956 1.383 . S
C962 C961 1.379 . S
H963 C957 0.959 . S
H964 C957 0.961 . S
H965 C957 0.960 . S
H966 C958 0.930 . S
H967 C959 0.929 1_556 S
H968 C976 0.929 . S
H969 C978 0.930 . S
H970 C980 0.930 . S
H971 C983 0.929 . S
H972 C986 0.930 . S
H973 C988 0.960 . S
H974 C988 0.960 . S
H975 C988 0.960 . S
C976 H968 0.929 . S
C976 C977 1.377 . S
C976 C978 1.384 . S
C977 C976 1.377 . S
C977 C983 1.390 . S
C978 H969 0.930 . S
C978 C976 1.384 . S
C978 C979 1.372 . S
C979 C978 1.372 . S
C979 C980 1.400 . S
C979 C984 1.490 . S
C980 H970 0.930 . S
C980 C979 1.400 . S
C980 C983 1.386 . S
H981 C997 0.930 . S
H982 C998 0.931 . S
C983 H971 0.929 . S
C983 C977 1.390 . S
C983 C980 1.386 . S
C984 C979 1.490 . S
C984 C986 1.395 . S
C984 C987 1.403 . S
H985 C991 0.930 . S
C986 H972 0.930 . S
C986 C984 1.395 . S
C986 C989 1.403 . S
C987 C984 1.403 . S
C987 C988 1.524 . S
C987 C991 1.400 . S
C988 H973 0.960 . S
C988 H974 0.960 . S
C988 H975 0.960 . S
C988 C987 1.524 . S
C989 C986 1.403 . S
C989 C990 1.392 . S
C989 C993 1.495 . S
C990 C989 1.392 . S
C990 C991 1.385 . S
C990 C992 1.478 . S
C991 H985 0.930 . S
C991 C987 1.400 . S
C991 C990 1.385 . S
C992 C990 1.478 . S
C992 C994 1.381 . S
C992 C998 1.383 . S
C993 C989 1.495 . S
C993 H999 0.959 . S
C993 H1000 0.961 . S
C993 H1001 0.960 . S
C994 C992 1.381 . S
C994 C995 1.394 . S
C994 H1002 0.930 . S
C995 C994 1.394 . S
C995 C996 1.383 . S
C995 H1003 0.929 . S
C996 C995 1.383 . S
C996 C997 1.377 . S
C997 H981 0.930 . S
C997 C996 1.377 . S
C997 C998 1.379 . S
C998 H982 0.931 . S
C998 C992 1.383 . S
C998 C997 1.379 . S
H999 C993 0.959 . S
H1000 C993 0.961 . S
H1001 C993 0.960 . S
H1002 C994 0.930 . S
H1003 C995 0.929 . S
H1004 C1012 0.929 . S
H1005 C1014 0.930 . S
H1006 C1016 0.930 . S
H1007 C1019 0.979 . S
H1008 C1022 0.930 . S
H1009 C1024 0.960 . S
H1010 C1024 0.960 . S
H1011 C1024 0.960 . S
C1012 H1004 0.929 . S
C1012 C1013 1.377 . S
C1012 C1014 1.384 . S
C1013 C1012 1.377 . S
C1013 C1019 1.390 . S
C1014 H1005 0.930 . S
C1014 C1012 1.384 . S
C1014 C1015 1.372 . S
C1015 C1014 1.372 . S
C1015 C1016 1.400 . S
C1015 C1020 1.490 . S
C1016 H1006 0.930 . S
C1016 C1015 1.400 . S
C1016 C1019 1.386 . S
H1017 C1033 0.930 . S
H1018 C1034 0.931 . S
C1019 H1007 0.979 . S
C1019 C1013 1.390 . S
C1019 C1016 1.386 . S
C1020 C1015 1.490 . S
C1020 C1022 1.395 . S
C1020 C1023 1.403 . S
H1021 C1027 0.930 . S
C1022 H1008 0.930 . S
C1022 C1020 1.395 . S
C1022 C1025 1.403 . S
C1023 C1020 1.403 . S
C1023 C1024 1.524 . S
C1023 C1027 1.400 . S
C1024 H1009 0.960 . S
C1024 H1010 0.960 . S
C1024 H1011 0.960 . S
C1024 C1023 1.524 . S
C1025 C1022 1.403 . S
C1025 C1026 1.392 . S
C1025 C1029 1.495 . S
C1026 C1025 1.392 . S
C1026 C1027 1.385 . S
C1026 C1028 1.478 . S
C1027 H1021 0.930 . S
C1027 C1023 1.400 . S
C1027 C1026 1.385 . S
C1028 C1026 1.478 . S
C1028 C1030 1.381 . S
C1028 C1034 1.383 . S
C1029 C1025 1.495 . S
C1029 H1035 0.959 . S
C1029 H1036 0.961 . S
C1029 H1037 0.960 . S
C1030 C1028 1.381 . S
C1030 C1031 1.394 . S
C1030 H1038 0.930 . S
C1031 C1030 1.394 . S
C1031 C1032 1.383 . S
C1031 H1039 0.929 . S
C1032 C1031 1.383 . S
C1032 C1033 1.377 . S
C1033 H1017 0.930 . S
C1033 C1032 1.377 . S
C1033 C1034 1.379 . S
C1034 H1018 0.931 . S
C1034 C1028 1.383 . S
C1034 C1033 1.379 . S
H1035 C1029 0.959 . S
H1036 C1029 0.961 . S
H1037 C1029 0.960 . S
H1038 C1030 0.930 . S
H1039 C1031 0.929 . S
H1040 C1048 0.929 . S
H1041 C1050 0.930 . S
H1042 C1052 0.930 . S
H1043 C1055 0.929 . S
H1044 C1058 0.930 . S
H1045 C1060 0.960 . S
H1046 C1060 0.960 . S
H1047 C1060 0.960 . S
C1048 H1040 0.929 . S
C1048 C1049 1.377 . S
C1048 C1050 1.384 . S
C1049 C1048 1.377 . S
C1049 C1055 1.390 . S
C1050 H1041 0.930 . S
C1050 C1048 1.384 . S
C1050 C1051 1.372 . S
C1051 C1050 1.372 . S
C1051 C1052 1.400 . S
C1051 C1056 1.490 . S
C1052 H1042 0.930 . S
C1052 C1051 1.400 . S
C1052 C1055 1.386 . S
H1053 C1069 0.930 . S
H1054 C1070 0.931 . S
C1055 H1043 0.929 . S
C1055 C1049 1.390 . S
C1055 C1052 1.386 . S
C1056 C1051 1.490 . S
C1056 C1058 1.395 . S
C1056 C1059 1.403 . S
H1057 C1063 0.930 . S
C1058 H1044 0.930 . S
C1058 C1056 1.395 . S
C1058 C1061 1.403 . S
C1059 C1056 1.403 . S
C1059 C1060 1.524 . S
C1059 C1063 1.400 . S
C1060 H1045 0.960 . S
C1060 H1046 0.960 . S
C1060 H1047 0.960 . S
C1060 C1059 1.524 . S
C1061 C1058 1.403 . S
C1061 C1062 1.392 . S
C1061 C1065 1.495 . S
C1062 C1061 1.392 . S
C1062 C1063 1.385 . S
C1062 C1064 1.478 . S
C1063 H1057 0.930 . S
C1063 C1059 1.400 . S
C1063 C1062 1.385 . S
C1064 C1062 1.478 . S
C1064 C1066 1.381 . S
C1064 C1070 1.383 . S
C1065 C1061 1.495 . S
C1065 H1071 0.959 . S
C1065 H1072 0.961 . S
C1065 H1073 0.960 . S
C1066 C1064 1.381 . S
C1066 C1067 1.394 . S
C1066 H1074 0.930 . S
C1067 C1066 1.394 . S
C1067 C1068 1.383 . S
C1067 H1075 0.929 . S
C1068 C1067 1.383 . S
C1068 C1069 1.377 . S
C1069 H1053 0.930 . S
C1069 C1068 1.377 . S
C1069 C1070 1.379 . S
C1070 H1054 0.931 . S
C1070 C1064 1.383 . S
C1070 C1069 1.379 . S
H1071 C1065 0.959 . S
H1072 C1065 0.961 . S
H1073 C1065 0.960 . S
H1074 C1066 0.930 . S
H1075 C1067 0.929 . S
H1076 C1084 0.929 1_455 S
H1077 C1086 0.930 . S
H1078 C1088 0.930 . S
H1079 C1091 0.929 . S
H1080 C1094 0.930 . S
H1081 C1096 0.960 . S
H1082 C1096 0.960 . S
H1083 C1096 0.960 . S
C1084 H1076 0.929 1_655 S
C1084 C1085 1.377 . S
C1084 C1086 1.384 . S
C1085 C1084 1.377 . S
C1085 C1091 1.390 . S
C1086 H1077 0.930 . S
C1086 C1084 1.384 . S
C1086 C1087 1.372 . S
C1087 C1086 1.372 . S
C1087 C1088 1.400 . S
C1087 C1092 1.490 . S
C1088 H1078 0.930 . S
C1088 C1087 1.400 . S
C1088 C1091 1.386 . S
H1089 C1105 0.930 . S
H1090 C1106 0.931 . S
C1091 H1079 0.929 . S
C1091 C1085 1.390 . S
C1091 C1088 1.386 . S
C1092 C1087 1.490 . S
C1092 C1094 1.395 . S
C1092 C1095 1.403 . S
H1093 C1099 0.930 . S
C1094 H1080 0.930 . S
C1094 C1092 1.395 . S
C1094 C1097 1.403 . S
C1095 C1092 1.403 . S
C1095 C1096 1.524 . S
C1095 C1099 1.400 . S
C1096 H1081 0.960 . S
C1096 H1082 0.960 . S
C1096 H1083 0.960 . S
C1096 C1095 1.524 . S
C1097 C1094 1.403 . S
C1097 C1098 1.392 . S
C1097 C1101 1.495 . S
C1098 C1097 1.392 . S
C1098 C1099 1.385 . S
C1098 C1100 1.478 . S
C1099 H1093 0.930 . S
C1099 C1095 1.400 . S
C1099 C1098 1.385 . S
C1100 C1098 1.478 . S
C1100 C1102 1.381 . S
C1100 C1106 1.383 . S
C1101 C1097 1.495 . S
C1101 H1107 0.959 . S
C1101 H1108 0.961 . S
C1101 H1109 0.960 . S
C1102 C1100 1.381 . S
C1102 C1103 1.394 . S
C1102 H1110 0.930 . S
C1103 C1102 1.394 . S
C1103 C1104 1.383 . S
C1103 H1111 0.929 . S
C1104 C1103 1.383 . S
C1104 C1105 1.377 . S
C1105 H1089 0.930 . S
C1105 C1104 1.377 . S
C1105 C1106 1.379 . S
C1106 H1090 0.931 . S
C1106 C1100 1.383 . S
C1106 C1105 1.379 . S
H1107 C1101 0.959 . S
H1108 C1101 0.961 . S
H1109 C1101 0.960 . S
H1110 C1102 0.930 . S
H1111 C1103 0.929 . S
H1112 C1120 0.929 . S
H1113 C1122 0.930 . S
H1114 C1124 0.930 . S
H1115 C1127 0.929 . S
H1116 C1130 0.930 . S
H1117 C1132 0.960 . S
H1118 C1132 0.960 . S
H1119 C1132 0.960 . S
C1120 H1112 0.929 . S
C1120 C1121 1.377 . S
C1120 C1122 1.384 . S
C1121 C1120 1.377 . S
C1121 C1127 1.390 . S
C1122 H1113 0.930 . S
C1122 C1120 1.384 . S
C1122 C1123 1.372 . S
C1123 C1122 1.372 . S
C1123 C1124 1.400 . S
C1123 C1128 1.490 . S
C1124 H1114 0.930 . S
C1124 C1123 1.400 . S
C1124 C1127 1.386 . S
H1125 C1141 0.936 . S
H1126 C1142 0.938 . S
C1127 H1115 0.929 . S
C1127 C1121 1.390 . S
C1127 C1124 1.386 . S
C1128 C1123 1.490 . S
C1128 C1130 1.395 1_556 S
C1128 C1131 1.403 . S
H1129 C1135 0.930 . S
C1130 H1116 0.930 . S
C1130 C1128 1.395 1_554 S
C1130 C1133 1.403 . S
C1131 C1128 1.403 . S
C1131 C1132 1.524 . S
C1131 C1135 1.400 . S
C1132 H1117 0.960 . S
C1132 H1118 0.960 . S
C1132 H1119 0.960 . S
C1132 C1131 1.524 . S
C1133 C1130 1.403 . S
C1133 C1134 1.392 1_554 S
C1133 C1137 1.495 . S
C1134 C1133 1.392 1_556 S
C1134 C1135 1.385 . S
C1134 C1136 1.478 . S
C1135 H1129 0.930 . S
C1135 C1131 1.400 . S
C1135 C1134 1.385 . S
C1136 C1134 1.478 . S
C1136 C1138 1.381 . S
C1136 C1142 1.375 1_556 S
C1137 C1133 1.495 . S
C1137 H1143 0.959 . S
C1137 H1144 0.961 . S
C1137 H1145 0.960 . S
C1138 C1136 1.381 . S
C1138 C1139 1.394 . S
C1138 H1146 0.930 . S
C1139 C1138 1.394 . S
C1139 C1140 1.383 . S
C1139 H1147 0.929 . S
C1140 C1139 1.383 . S
C1140 C1141 1.374 1_556 S
C1141 H1125 0.936 . S
C1141 C1140 1.374 1_554 S
C1141 C1142 1.381 . S
C1142 H1126 0.938 . S
C1142 C1136 1.375 1_554 S
C1142 C1141 1.381 . S
H1143 C1137 0.959 . S
H1144 C1137 0.961 . S
H1145 C1137 0.960 . S
H1146 C1138 0.930 . S
H1147 C1139 0.929 . S
H1148 C1156 0.929 . S
H1149 C1158 0.930 . S
H1150 C1160 0.930 . S
H1151 C1163 0.929 . S
H1152 C1166 0.930 . S
H1153 C1168 0.960 . S
H1154 C1168 0.960 . S
H1155 C1168 0.960 . S
C1156 H1148 0.929 . S
C1156 C1157 1.377 . S
C1156 C1158 1.384 . S
C1157 C1156 1.377 . S
C1157 C1163 1.390 . S
C1158 H1149 0.930 . S
C1158 C1156 1.384 . S
C1158 C1159 1.372 . S
C1159 C1158 1.372 . S
C1159 C1160 1.400 . S
C1159 C1164 1.490 . S
C1160 H1150 0.930 . S
C1160 C1159 1.400 . S
C1160 C1163 1.386 . S
H1161 C1177 0.930 . S
H1162 C1178 0.931 . S
C1163 H1151 0.929 . S
C1163 C1157 1.390 . S
C1163 C1160 1.386 . S
C1164 C1159 1.490 . S
C1164 C1166 1.395 . S
C1164 C1167 1.403 . S
H1165 C1171 0.930 . S
C1166 H1152 0.930 . S
C1166 C1164 1.395 . S
C1166 C1169 1.403 . S
C1167 C1164 1.403 . S
C1167 C1168 1.524 . S
C1167 C1171 1.400 . S
C1168 H1153 0.960 . S
C1168 H1154 0.960 . S
C1168 H1155 0.960 . S
C1168 C1167 1.524 . S
C1169 C1166 1.403 . S
C1169 C1170 1.392 . S
C1169 C1173 1.495 . S
C1170 C1169 1.392 . S
C1170 C1171 1.385 . S
C1170 C1172 1.478 . S
C1171 H1165 0.930 . S
C1171 C1167 1.400 . S
C1171 C1170 1.385 . S
C1172 C1170 1.478 . S
C1172 C1174 1.381 . S
C1172 C1178 1.383 . S
C1173 C1169 1.495 . S
C1173 H1179 0.959 . S
C1173 H1180 0.961 . S
C1173 H1181 0.960 . S
C1174 C1172 1.381 . S
C1174 C1175 1.394 . S
C1174 H1182 0.930 . S
C1175 C1174 1.394 . S
C1175 C1176 1.383 . S
C1175 H1183 0.929 . S
C1176 C1175 1.383 . S
C1176 C1177 1.377 . S
C1177 H1161 0.930 . S
C1177 C1176 1.377 . S
C1177 C1178 1.379 . S
C1178 H1162 0.931 . S
C1178 C1172 1.383 . S
C1178 C1177 1.379 . S
H1179 C1173 0.959 . S
H1180 C1173 0.961 . S
H1181 C1173 0.960 . S
H1182 C1174 0.930 . S
H1183 C1175 0.929 . S
H1184 C1192 0.929 . S
H1185 C1194 0.930 . S
H1186 C1196 0.930 . S
H1187 C1199 0.929 . S
H1188 C1202 0.930 . S
H1189 C1204 0.960 . S
H1190 C1204 0.960 . S
H1191 C1204 0.960 . S
C1192 H1184 0.929 . S
C1192 C1193 1.377 . S
C1192 C1194 1.384 . S
C1193 C1192 1.377 . S
C1193 C1199 1.390 . S
C1194 H1185 0.930 . S
C1194 C1192 1.384 . S
C1194 C1195 1.372 . S
C1195 C1194 1.372 . S
C1195 C1196 1.400 . S
C1195 C1200 1.490 . S
C1196 H1186 0.930 . S
C1196 C1195 1.400 . S
C1196 C1199 1.386 . S
H1197 C1213 0.930 . S
H1198 C1214 0.931 . S
C1199 H1187 0.929 . S
C1199 C1193 1.390 . S
C1199 C1196 1.386 . S
C1200 C1195 1.490 . S
C1200 C1202 1.395 . S
C1200 C1203 1.403 . S
H1201 C1207 0.930 . S
C1202 H1188 0.930 . S
C1202 C1200 1.395 . S
C1202 C1205 1.403 . S
C1203 C1200 1.403 . S
C1203 C1204 1.524 . S
C1203 C1207 1.400 . S
C1204 H1189 0.960 . S
C1204 H1190 0.960 . S
C1204 H1191 0.960 . S
C1204 C1203 1.524 . S
C1205 C1202 1.403 . S
C1205 C1206 1.392 . S
C1205 C1209 1.495 . S
C1206 C1205 1.392 . S
C1206 C1207 1.385 . S
C1206 C1208 1.478 . S
C1207 H1201 0.930 . S
C1207 C1203 1.400 . S
C1207 C1206 1.385 . S
C1208 C1206 1.478 . S
C1208 C1210 1.381 . S
C1208 C1214 1.383 . S
C1209 C1205 1.495 . S
C1209 H1215 0.959 . S
C1209 H1216 0.961 . S
C1209 H1217 0.960 . S
C1210 C1208 1.381 . S
C1210 C1211 1.394 . S
C1210 H1218 0.930 . S
C1211 C1210 1.394 . S
C1211 C1212 1.383 . S
C1211 H1219 0.929 . S
C1212 C1211 1.383 . S
C1212 C1213 1.377 . S
C1213 H1197 0.930 . S
C1213 C1212 1.377 . S
C1213 C1214 1.379 . S
C1214 H1198 0.931 . S
C1214 C1208 1.383 . S
C1214 C1213 1.379 . S
H1215 C1209 0.959 . S
H1216 C1209 0.961 . S
H1217 C1209 0.960 . S
H1218 C1210 0.930 . S
H1219 C1211 0.929 . S
H1220 C1228 0.929 . S
H1221 C1230 0.930 . S
H1222 C1232 0.930 . S
H1223 C1235 0.929 . S
H1224 C1238 0.930 . S
H1225 C1240 0.960 . S
H1226 C1240 0.960 . S
H1227 C1240 0.960 . S
C1228 H1220 0.929 . S
C1228 C1229 1.377 . S
C1228 C1230 1.384 . S
C1229 C1228 1.377 . S
C1229 C1235 1.390 . S
C1230 H1221 0.930 . S
C1230 C1228 1.384 . S
C1230 C1231 1.372 . S
C1231 C1230 1.372 . S
C1231 C1232 1.400 . S
C1231 C1236 1.490 . S
C1232 H1222 0.930 . S
C1232 C1231 1.400 . S
C1232 C1235 1.386 . S
H1233 C1249 0.930 . S
H1234 C1250 0.931 . S
C1235 H1223 0.929 . S
C1235 C1229 1.390 . S
C1235 C1232 1.386 . S
C1236 C1231 1.490 . S
C1236 C1238 1.395 . S
C1236 C1239 1.403 . S
H1237 C1243 0.930 . S
C1238 H1224 0.930 . S
C1238 C1236 1.395 . S
C1238 C1241 1.403 . S
C1239 C1236 1.403 . S
C1239 C1240 1.524 . S
C1239 C1243 1.400 . S
C1240 H1225 0.960 . S
C1240 H1226 0.960 . S
C1240 H1227 0.960 . S
C1240 C1239 1.524 . S
C1241 C1238 1.403 . S
C1241 C1242 1.392 . S
C1241 C1245 1.495 . S
C1242 C1241 1.392 . S
C1242 C1243 1.385 . S
C1242 C1244 1.478 . S
C1243 H1237 0.930 . S
C1243 C1239 1.400 . S
C1243 C1242 1.385 . S
C1244 C1242 1.478 . S
C1244 C1246 1.381 . S
C1244 C1250 1.383 . S
C1245 C1241 1.495 . S
C1245 H1251 0.959 . S
C1245 H1252 0.961 . S
C1245 H1253 0.960 . S
C1246 C1244 1.381 . S
C1246 C1247 1.394 . S
C1246 H1254 0.930 . S
C1247 C1246 1.394 . S
C1247 C1248 1.383 . S
C1247 H1255 0.929 . S
C1248 C1247 1.383 . S
C1248 C1249 1.377 . S
C1249 H1233 0.930 . S
C1249 C1248 1.377 . S
C1249 C1250 1.379 . S
C1250 H1234 0.931 . S
C1250 C1244 1.383 . S
C1250 C1249 1.379 . S
H1251 C1245 0.959 . S
H1252 C1245 0.961 . S
H1253 C1245 0.960 . S
H1254 C1246 0.930 . S
H1255 C1247 0.929 . S
H1256 C1264 0.929 . S
H1257 C1266 0.930 . S
H1258 C1268 0.930 . S
H1259 C1271 0.929 . S
H1260 C1274 0.930 . S
H1261 C1276 0.960 . S
H1262 C1276 0.960 . S
H1263 C1276 0.960 . S
C1264 H1256 0.929 . S
C1264 C1265 1.377 . S
C1264 C1266 1.384 . S
C1265 C1264 1.377 . S
C1265 C1271 1.390 . S
C1266 H1257 0.930 . S
C1266 C1264 1.384 . S
C1266 C1267 1.372 . S
C1267 C1266 1.372 . S
C1267 C1268 1.400 . S
C1267 C1272 1.490 . S
C1268 H1258 0.930 . S
C1268 C1267 1.400 . S
C1268 C1271 1.386 . S
H1269 C1285 0.930 . S
H1270 C1286 0.931 . S
C1271 H1259 0.929 . S
C1271 C1265 1.390 . S
C1271 C1268 1.386 . S
C1272 C1267 1.490 . S
C1272 C1274 1.395 . S
C1272 C1275 1.403 . S
H1273 C1279 0.930 . S
C1274 H1260 0.930 . S
C1274 C1272 1.395 . S
C1274 C1277 1.403 . S
C1275 C1272 1.403 . S
C1275 C1276 1.524 . S
C1275 C1279 1.400 . S
C1276 H1261 0.960 . S
C1276 H1262 0.960 . S
C1276 H1263 0.960 . S
C1276 C1275 1.524 . S
C1277 C1274 1.403 . S
C1277 C1278 1.392 . S
C1277 C1281 1.495 . S
C1278 C1277 1.392 . S
C1278 C1279 1.385 . S
C1278 C1280 1.478 . S
C1279 H1273 0.930 . S
C1279 C1275 1.400 . S
C1279 C1278 1.385 . S
C1280 C1278 1.478 . S
C1280 C1282 1.381 . S
C1280 C1286 1.383 . S
C1281 C1277 1.495 . S
C1281 H1287 0.959 . S
C1281 H1288 0.961 . S
C1281 H1289 0.960 . S
C1282 C1280 1.381 . S
C1282 C1283 1.464 . S
C1282 H1290 0.930 . S
C1283 C1282 1.464 . S
C1283 C1284 1.391 . S
C1283 H1291 0.856 1_556 S
C1284 C1283 1.391 . S
C1284 C1285 1.377 . S
C1285 H1269 0.930 . S
C1285 C1284 1.377 . S
C1285 C1286 1.379 . S
C1286 H1270 0.931 . S
C1286 C1280 1.383 . S
C1286 C1285 1.379 . S
H1287 C1281 0.959 . S
H1288 C1281 0.961 . S
H1289 C1281 0.960 . S
H1290 C1282 0.930 . S
H1291 C1283 0.856 1_554 S
H1292 C1300 0.929 . S
H1293 C1302 0.930 . S
H1294 C1304 0.930 . S
H1295 C1307 0.929 . S
H1296 C1310 0.930 . S
H1297 C1312 0.960 . S
H1298 C1312 0.960 . S
H1299 C1312 0.960 . S
C1300 H1292 0.929 . S
C1300 C1301 1.377 . S
C1300 C1302 1.384 . S
C1301 C1300 1.377 . S
C1301 C1307 1.390 . S
C1302 H1293 0.930 . S
C1302 C1300 1.384 . S
C1302 C1303 1.372 . S
C1303 C1302 1.372 . S
C1303 C1304 1.400 . S
C1303 C1308 1.490 . S
C1304 H1294 0.930 . S
C1304 C1303 1.400 . S
C1304 C1307 1.386 . S
H1305 C1321 0.930 . S
H1306 C1322 0.931 . S
C1307 H1295 0.929 . S
C1307 C1301 1.390 . S
C1307 C1304 1.386 . S
C1308 C1303 1.490 . S
C1308 C1310 1.395 . S
C1308 C1311 1.403 . S
H1309 C1315 0.930 . S
C1310 H1296 0.930 . S
C1310 C1308 1.395 . S
C1310 C1313 1.403 . S
C1311 C1308 1.403 . S
C1311 C1312 1.524 . S
C1311 C1315 1.400 . S
C1312 H1297 0.960 . S
C1312 H1298 0.960 . S
C1312 H1299 0.960 . S
C1312 C1311 1.524 . S
C1313 C1310 1.403 . S
C1313 C1314 1.392 . S
C1313 C1317 1.495 . S
C1314 C1313 1.392 . S
C1314 C1315 1.385 . S
C1314 C1316 1.478 . S
C1315 H1309 0.930 . S
C1315 C1311 1.400 . S
C1315 C1314 1.385 . S
C1316 C1314 1.478 . S
C1316 C1318 1.381 . S
C1316 C1322 1.383 . S
C1317 C1313 1.495 . S
C1317 H1323 0.959 . S
C1317 H1324 0.961 . S
C1317 H1325 0.960 . S
C1318 C1316 1.381 . S
C1318 C1319 1.394 . S
C1318 H1326 0.930 . S
C1319 C1318 1.394 . S
C1319 C1320 1.383 . S
C1319 H1327 0.929 . S
C1320 C1319 1.383 . S
C1320 C1321 1.377 . S
C1321 H1305 0.930 . S
C1321 C1320 1.377 . S
C1321 C1322 1.379 . S
C1322 H1306 0.931 . S
C1322 C1316 1.383 . S
C1322 C1321 1.379 . S
H1323 C1317 0.959 . S
H1324 C1317 0.961 . S
H1325 C1317 0.960 . S
H1326 C1318 0.930 . S
H1327 C1319 0.929 . S
H1328 C1336 0.929 . S
H1329 C1338 0.930 . S
H1330 C1340 0.930 . S
H1331 C1343 0.929 . S
H1332 C1346 0.930 . S
H1333 C1348 0.960 . S
H1334 C1348 0.960 . S
H1335 C1348 0.960 . S
C1336 H1328 0.929 . S
C1336 C1337 1.377 . S
C1336 C1338 1.384 . S
C1337 C1336 1.377 . S
C1337 C1343 1.390 . S
C1338 H1329 0.930 . S
C1338 C1336 1.384 . S
C1338 C1339 1.372 . S
C1339 C1338 1.372 . S
C1339 C1340 1.400 . S
C1339 C1344 1.490 . S
C1340 H1330 0.930 . S
C1340 C1339 1.400 . S
C1340 C1343 1.386 . S
H1341 C1357 0.930 . S
H1342 C1358 0.931 . S
C1343 H1331 0.929 . S
C1343 C1337 1.390 . S
C1343 C1340 1.386 . S
C1344 C1339 1.490 . S
C1344 C1346 1.395 . S
C1344 C1347 1.403 . S
H1345 C1351 0.930 . S
C1346 H1332 0.930 . S
C1346 C1344 1.395 . S
C1346 C1349 1.403 . S
C1347 C1344 1.403 . S
C1347 C1348 1.524 . S
C1347 C1351 1.400 . S
C1348 H1333 0.960 . S
C1348 H1334 0.960 . S
C1348 H1335 0.960 . S
C1348 C1347 1.524 . S
C1349 C1346 1.403 . S
C1349 C1350 1.392 . S
C1349 C1353 1.495 . S
C1350 C1349 1.392 . S
C1350 C1351 1.385 . S
C1350 C1352 1.478 . S
C1351 H1345 0.930 . S
C1351 C1347 1.400 . S
C1351 C1350 1.385 . S
C1352 C1350 1.478 . S
C1352 C1354 1.381 . S
C1352 C1358 1.383 . S
C1353 C1349 1.495 . S
C1353 H1359 0.959 . S
C1353 H1360 0.961 . S
C1353 H1361 0.960 . S
C1354 C1352 1.381 . S
C1354 C1355 1.394 . S
C1354 H1362 0.930 . S
C1355 C1354 1.394 . S
C1355 C1356 1.383 . S
C1355 H1363 0.929 . S
C1356 C1355 1.383 . S
C1356 C1357 1.377 . S
C1357 H1341 0.930 . S
C1357 C1356 1.377 . S
C1357 C1358 1.379 . S
C1358 H1342 0.931 . S
C1358 C1352 1.383 . S
C1358 C1357 1.379 . S
H1359 C1353 0.959 . S
H1360 C1353 0.961 . S
H1361 C1353 0.960 . S
H1362 C1354 0.930 . S
H1363 C1355 0.929 . S
H1364 C1372 0.929 . S
H1365 C1374 0.930 . S
H1366 C1376 0.930 . S
H1367 C1379 0.929 . S
H1368 C1382 0.930 . S
H1369 C1384 0.960 . S
H1370 C1384 0.960 . S
H1371 C1384 0.960 . S
C1372 H1364 0.929 . S
C1372 C1373 1.377 . S
C1372 C1374 1.384 . S
C1373 C1372 1.377 . S
C1373 C1379 1.390 . S
C1374 H1365 0.930 . S
C1374 C1372 1.384 . S
C1374 C1375 1.372 . S
C1375 C1374 1.372 . S
C1375 C1376 1.400 . S
C1375 C1380 1.490 . S
C1376 H1366 0.930 . S
C1376 C1375 1.400 . S
C1376 C1379 1.386 . S
H1377 C1393 0.930 . S
H1378 C1394 0.931 . S
C1379 H1367 0.929 . S
C1379 C1373 1.390 . S
C1379 C1376 1.386 . S
C1380 C1375 1.490 . S
C1380 C1382 1.395 . S
C1380 C1383 1.403 . S
H1381 C1387 0.930 . S
C1382 H1368 0.930 . S
C1382 C1380 1.395 . S
C1382 C1385 1.403 . S
C1383 C1380 1.403 . S
C1383 C1384 1.524 . S
C1383 C1387 1.400 . S
C1384 H1369 0.960 . S
C1384 H1370 0.960 . S
C1384 H1371 0.960 . S
C1384 C1383 1.524 . S
C1385 C1382 1.403 . S
C1385 C1386 1.392 . S
C1385 C1389 1.495 . S
C1386 C1385 1.392 . S
C1386 C1387 1.385 . S
C1386 C1388 1.478 . S
C1387 H1381 0.930 . S
C1387 C1383 1.400 . S
C1387 C1386 1.385 . S
C1388 C1386 1.478 . S
C1388 C1390 1.381 . S
C1388 C1394 1.383 . S
C1389 C1385 1.495 . S
C1389 H1395 0.959 . S
C1389 H1396 0.961 . S
C1389 H1397 0.960 . S
C1390 C1388 1.381 . S
C1390 C1391 1.394 . S
C1390 H1398 0.930 . S
C1391 C1390 1.394 . S
C1391 C1392 1.383 . S
C1391 H1399 0.929 . S
C1392 C1391 1.383 . S
C1392 C1393 1.377 . S
C1393 H1377 0.930 . S
C1393 C1392 1.377 . S
C1393 C1394 1.379 . S
C1394 H1378 0.931 . S
C1394 C1388 1.383 . S
C1394 C1393 1.379 . S
H1395 C1389 0.959 . S
H1396 C1389 0.961 . S
H1397 C1389 0.960 . S
H1398 C1390 0.930 . S
H1399 C1391 0.929 . S
H1400 C1408 0.929 . S
H1401 C1410 0.930 . S
H1402 C1412 0.930 . S
H1403 C1415 0.929 . S
H1404 C1418 0.930 . S
H1405 C1420 0.960 . S
H1406 C1420 0.960 . S
H1407 C1420 0.960 . S
C1408 H1400 0.929 . S
C1408 C1409 1.377 . S
C1408 C1410 1.384 . S
C1409 C1408 1.377 . S
C1409 C1415 1.390 . S
C1410 H1401 0.930 . S
C1410 C1408 1.384 . S
C1410 C1411 1.372 . S
C1411 C1410 1.372 . S
C1411 C1412 1.400 . S
C1411 C1416 1.490 . S
C1412 H1402 0.930 . S
C1412 C1411 1.400 . S
C1412 C1415 1.386 . S
H1413 C1429 0.930 . S
H1414 C1430 0.931 . S
C1415 H1403 0.929 . S
C1415 C1409 1.390 . S
C1415 C1412 1.386 . S
C1416 C1411 1.490 . S
C1416 C1418 1.395 . S
C1416 C1419 1.403 . S
H1417 C1423 0.930 . S
C1418 H1404 0.930 . S
C1418 C1416 1.395 . S
C1418 C1421 1.403 . S
C1419 C1416 1.403 . S
C1419 C1420 1.524 . S
C1419 C1423 1.400 . S
C1420 H1405 0.960 . S
C1420 H1406 0.960 . S
C1420 H1407 0.960 . S
C1420 C1419 1.524 . S
C1421 C1418 1.403 . S
C1421 C1422 1.392 . S
C1421 C1425 1.495 . S
C1422 C1421 1.392 . S
C1422 C1423 1.385 . S
C1422 C1424 1.478 . S
C1423 H1417 0.930 . S
C1423 C1419 1.400 . S
C1423 C1422 1.385 . S
C1424 C1422 1.478 . S
C1424 C1426 1.381 . S
C1424 C1430 1.383 . S
C1425 C1421 1.495 . S
C1425 H1431 0.959 . S
C1425 H1432 0.961 . S
C1425 H1433 0.960 . S
C1426 C1424 1.381 . S
C1426 C1427 1.394 . S
C1426 H1434 0.930 . S
C1427 C1426 1.394 . S
C1427 C1428 1.383 . S
C1427 H1435 0.929 . S
C1428 C1427 1.383 . S
C1428 C1429 1.377 . S
C1429 H1413 0.930 . S
C1429 C1428 1.377 . S
C1429 C1430 1.379 . S
C1430 H1414 0.931 . S
C1430 C1424 1.383 . S
C1430 C1429 1.379 . S
H1431 C1425 0.959 . S
H1432 C1425 0.961 . S
H1433 C1425 0.960 . S
H1434 C1426 0.930 . S
H1435 C1427 0.929 . S
H1436 C1444 0.929 . S
H1437 C1446 0.930 . S
H1438 C1448 0.930 . S
H1439 C1451 0.929 . S
H1440 C1454 0.930 . S
H1441 C1456 0.960 . S
H1442 C1456 0.960 . S
H1443 C1456 0.960 . S
C1444 H1436 0.929 . S
C1444 C1445 1.377 . S
C1444 C1446 1.384 . S
C1445 C1444 1.377 . S
C1445 C1451 1.390 . S
C1446 H1437 0.930 . S
C1446 C1444 1.384 . S
C1446 C1447 1.372 . S
C1447 C1446 1.372 . S
C1447 C1448 1.400 . S
C1447 C1452 1.490 1_545 S
C1448 H1438 0.930 . S
C1448 C1447 1.400 . S
C1448 C1451 1.386 . S
H1449 C1465 0.930 . S
H1450 C1466 0.931 . S
C1451 H1439 0.929 . S
C1451 C1445 1.390 . S
C1451 C1448 1.386 . S
C1452 C1447 1.490 1_565 S
C1452 C1454 1.395 . S
C1452 C1455 1.403 1_565 S
H1453 C1459 0.930 . S
C1454 H1440 0.930 . S
C1454 C1452 1.395 . S
C1454 C1457 1.403 . S
C1455 C1452 1.403 1_545 S
C1455 C1456 1.524 . S
C1455 C1459 1.400 1_545 S
C1456 H1441 0.960 . S
C1456 H1442 0.960 . S
C1456 H1443 0.960 . S
C1456 C1455 1.524 . S
C1457 C1454 1.403 . S
C1457 C1458 1.392 . S
C1457 C1461 1.495 . S
C1458 C1457 1.392 . S
C1458 C1459 1.385 . S
C1458 C1460 1.478 . S
C1459 H1453 0.930 . S
C1459 C1455 1.400 1_565 S
C1459 C1458 1.385 . S
C1460 C1458 1.478 . S
C1460 C1462 1.381 . S
C1460 C1466 1.383 . S
C1461 C1457 1.495 . S
C1461 H1467 0.959 . S
C1461 H1468 0.961 . S
C1461 H1469 0.960 . S
C1462 C1460 1.381 . S
C1462 C1463 1.394 . S
C1462 H1470 0.930 . S
C1463 C1462 1.394 . S
C1463 C1464 1.383 . S
C1463 H1471 0.929 . S
C1464 C1463 1.383 . S
C1464 C1465 1.377 . S
C1465 H1449 0.930 . S
C1465 C1464 1.377 . S
C1465 C1466 1.379 . S
C1466 H1450 0.931 . S
C1466 C1460 1.383 . S
C1466 C1465 1.379 . S
H1467 C1461 0.959 . S
H1468 C1461 0.961 . S
H1469 C1461 0.960 . S
H1470 C1462 0.930 . S
H1471 C1463 0.929 . S
H1472 C1480 0.929 . S
H1473 C1482 0.930 . S
H1474 C1484 0.930 . S
H1475 C1487 0.929 . S
H1476 C1490 0.930 . S
H1477 C1492 0.960 . S
H1478 C1492 0.960 . S
H1479 C1492 0.960 . S
C1480 H1472 0.929 . S
C1480 C1481 1.377 . S
C1480 C1482 1.384 . S
C1481 C1480 1.377 . S
C1481 C1487 1.390 . S
C1482 H1473 0.930 . S
C1482 C1480 1.384 . S
C1482 C1483 1.372 . S
C1483 C1482 1.372 . S
C1483 C1484 1.400 . S
C1483 C1488 1.490 . S
C1484 H1474 0.930 . S
C1484 C1483 1.400 . S
C1484 C1487 1.386 . S
H1485 C1501 0.930 . S
H1486 C1502 0.931 . S
C1487 H1475 0.929 . S
C1487 C1481 1.390 . S
C1487 C1484 1.386 . S
C1488 C1483 1.490 . S
C1488 C1490 1.395 . S
C1488 C1491 1.403 . S
H1489 C1495 0.930 . S
C1490 H1476 0.930 . S
C1490 C1488 1.395 . S
C1490 C1493 1.403 . S
C1491 C1488 1.403 . S
C1491 C1492 1.524 . S
C1491 C1495 1.400 . S
C1492 H1477 0.960 . S
C1492 H1478 0.960 . S
C1492 H1479 0.960 . S
C1492 C1491 1.524 . S
C1493 C1490 1.403 . S
C1493 C1494 1.392 . S
C1493 C1497 1.495 . S
C1494 C1493 1.392 . S
C1494 C1495 1.385 . S
C1494 C1496 1.478 . S
C1495 H1489 0.930 . S
C1495 C1491 1.400 . S
C1495 C1494 1.385 . S
C1496 C1494 1.478 . S
C1496 C1498 1.381 . S
C1496 C1502 1.383 . S
C1497 C1493 1.495 . S
C1497 H1503 0.959 . S
C1497 H1504 0.961 . S
C1497 H1505 0.960 . S
C1498 C1496 1.381 . S
C1498 C1499 1.394 . S
C1498 H1506 0.930 . S
C1499 C1498 1.394 . S
C1499 C1500 1.383 . S
C1499 H1507 0.929 . S
C1500 C1499 1.383 . S
C1500 C1501 1.377 . S
C1501 H1485 0.930 . S
C1501 C1500 1.377 . S
C1501 C1502 1.379 . S
C1502 H1486 0.931 . S
C1502 C1496 1.383 . S
C1502 C1501 1.379 . S
H1503 C1497 0.959 . S
H1504 C1497 0.961 . S
H1505 C1497 0.960 . S
H1506 C1498 0.930 . S
H1507 C1499 0.929 . S
H1508 C1516 0.929 . S
H1509 C1518 0.930 . S
H1510 C1520 0.930 . S
H1511 C1523 0.929 . S
H1512 C1526 0.930 . S
H1513 C1528 0.960 . S
H1514 C1528 0.960 . S
H1515 C1528 0.960 . S
C1516 H1508 0.929 . S
C1516 C1517 1.377 . S
C1516 C1518 1.384 . S
C1517 C1516 1.377 . S
C1517 C1523 1.390 . S
C1518 H1509 0.930 . S
C1518 C1516 1.384 . S
C1518 C1519 1.372 . S
C1519 C1518 1.372 . S
C1519 C1520 1.400 . S
C1519 C1524 1.490 . S
C1520 H1510 0.930 . S
C1520 C1519 1.400 . S
C1520 C1523 1.386 . S
H1521 C1537 0.930 . S
H1522 C1538 0.931 . S
C1523 H1511 0.929 . S
C1523 C1517 1.390 . S
C1523 C1520 1.386 . S
C1524 C1519 1.490 . S
C1524 C1526 1.395 . S
C1524 C1527 1.403 . S
H1525 C1531 0.930 . S
C1526 H1512 0.930 . S
C1526 C1524 1.395 . S
C1526 C1529 1.403 . S
C1527 C1524 1.403 . S
C1527 C1528 1.524 . S
C1527 C1531 1.400 . S
C1528 H1513 0.960 . S
C1528 H1514 0.960 . S
C1528 H1515 0.960 . S
C1528 C1527 1.524 . S
C1529 C1526 1.403 . S
C1529 C1530 1.392 . S
C1529 C1533 1.495 . S
C1530 C1529 1.392 . S
C1530 C1531 1.385 . S
C1530 C1532 1.478 . S
C1531 H1525 0.930 . S
C1531 C1527 1.400 . S
C1531 C1530 1.385 . S
C1532 C1530 1.478 . S
C1532 C1534 1.381 . S
C1532 C1538 1.383 . S
C1533 C1529 1.495 . S
C1533 H1539 0.959 . S
C1533 H1540 0.961 . S
C1533 H1541 0.960 . S
C1534 C1532 1.381 . S
C1534 C1535 1.394 . S
C1534 H1542 0.930 . S
C1535 C1534 1.394 . S
C1535 C1536 1.383 . S
C1535 H1543 0.929 . S
C1536 C1535 1.383 . S
C1536 C1537 1.377 . S
C1537 H1521 0.930 . S
C1537 C1536 1.377 . S
C1537 C1538 1.379 . S
C1538 H1522 0.931 . S
C1538 C1532 1.383 . S
C1538 C1537 1.379 . S
H1539 C1533 0.959 . S
H1540 C1533 0.961 . S
H1541 C1533 0.960 . S
H1542 C1534 0.930 . S
H1543 C1535 0.929 . S
H1544 C1552 0.929 . S
H1545 C1554 0.930 . S
H1546 C1556 0.930 . S
H1547 C1559 0.929 . S
H1548 C1562 0.930 . S
H1549 C1564 0.960 . S
H1550 C1564 0.960 . S
H1551 C1564 0.960 . S
C1552 H1544 0.929 . S
C1552 C1553 1.377 . S
C1552 C1554 1.384 . S
C1553 C1552 1.377 . S
C1553 C1559 1.390 . S
C1554 H1545 0.930 . S
C1554 C1552 1.384 . S
C1554 C1555 1.372 . S
C1555 C1554 1.372 . S
C1555 C1556 1.400 . S
C1555 C1560 1.490 . S
C1556 H1546 0.930 . S
C1556 C1555 1.400 . S
C1556 C1559 1.386 . S
H1557 C1573 0.930 . S
H1558 C1574 0.931 . S
C1559 H1547 0.929 . S
C1559 C1553 1.390 . S
C1559 C1556 1.386 . S
C1560 C1555 1.490 . S
C1560 C1562 1.395 . S
C1560 C1563 1.403 . S
H1561 C1567 0.930 . S
C1562 H1548 0.930 . S
C1562 C1560 1.395 . S
C1562 C1565 1.403 . S
C1563 C1560 1.403 . S
C1563 C1564 1.524 1_655 S
C1563 C1567 1.400 . S
C1564 H1549 0.960 . S
C1564 H1550 0.960 . S
C1564 H1551 0.960 . S
C1564 C1563 1.524 1_455 S
C1565 C1562 1.403 . S
C1565 C1566 1.392 . S
C1565 C1569 1.495 . S
C1566 C1565 1.392 . S
C1566 C1567 1.385 . S
C1566 C1568 1.478 . S
C1567 H1561 0.930 . S
C1567 C1563 1.400 . S
C1567 C1566 1.385 . S
C1568 C1566 1.478 . S
C1568 C1570 1.381 . S
C1568 C1574 1.383 . S
C1569 C1565 1.495 . S
C1569 H1575 0.959 . S
C1569 H1576 0.961 . S
C1569 H1577 0.960 . S
C1570 C1568 1.381 . S
C1570 C1571 1.394 . S
C1570 H1578 0.930 . S
C1571 C1570 1.394 . S
C1571 C1572 1.383 . S
C1571 H1579 0.929 . S
C1572 C1571 1.383 . S
C1572 C1573 1.377 . S
C1573 H1557 0.930 . S
C1573 C1572 1.377 . S
C1573 C1574 1.379 . S
C1574 H1558 0.931 . S
C1574 C1568 1.383 . S
C1574 C1573 1.379 . S
H1575 C1569 0.959 . S
H1576 C1569 0.961 . S
H1577 C1569 0.960 . S
H1578 C1570 0.930 . S
H1579 C1571 0.929 . S
H1580 C1588 0.929 . S
H1581 C1590 0.930 . S
H1582 C1592 0.930 . S
H1583 C1595 0.929 . S
H1584 C1598 0.930 . S
H1585 C1600 0.960 . S
H1586 C1600 0.960 . S
H1587 C1600 0.960 . S
C1588 H1580 0.929 . S
C1588 C1589 1.377 . S
C1588 C1590 1.384 . S
C1589 C1588 1.377 . S
C1589 C1595 1.390 . S
C1590 H1581 0.930 . S
C1590 C1588 1.384 . S
C1590 C1591 1.372 . S
C1591 C1590 1.372 . S
C1591 C1592 1.400 . S
C1591 C1596 1.490 . S
C1592 H1582 0.930 . S
C1592 C1591 1.400 . S
C1592 C1595 1.386 . S
H1593 C1609 0.930 . S
H1594 C1610 0.931 . S
C1595 H1583 0.929 . S
C1595 C1589 1.390 . S
C1595 C1592 1.386 . S
C1596 C1591 1.490 . S
C1596 C1598 1.395 . S
C1596 C1599 1.403 . S
H1597 C1603 0.930 . S
C1598 H1584 0.930 . S
C1598 C1596 1.395 . S
C1598 C1601 1.403 . S
C1599 C1596 1.403 . S
C1599 C1600 1.524 . S
C1599 C1603 1.400 . S
C1600 H1585 0.960 . S
C1600 H1586 0.960 . S
C1600 H1587 0.960 . S
C1600 C1599 1.524 . S
C1601 C1598 1.403 . S
C1601 C1602 1.392 . S
C1601 C1605 1.495 . S
C1602 C1601 1.392 . S
C1602 C1603 1.385 . S
C1602 C1604 1.478 . S
C1603 H1597 0.930 . S
C1603 C1599 1.400 . S
C1603 C1602 1.385 . S
C1604 C1602 1.478 . S
C1604 C1606 1.381 . S
C1604 C1610 1.383 . S
C1605 C1601 1.495 . S
C1605 H1611 0.959 . S
C1605 H1612 0.961 . S
C1605 H1613 0.960 . S
C1606 C1604 1.381 . S
C1606 C1607 1.394 . S
C1606 H1614 0.930 . S
C1607 C1606 1.394 . S
C1607 C1608 1.383 . S
C1607 H1615 0.929 . S
C1608 C1607 1.383 . S
C1608 C1609 1.377 . S
C1609 H1593 0.930 . S
C1609 C1608 1.377 . S
C1609 C1610 1.379 . S
C1610 H1594 0.931 . S
C1610 C1604 1.383 . S
C1610 C1609 1.379 . S
H1611 C1605 0.959 . S
H1612 C1605 0.961 . S
H1613 C1605 0.960 . S
H1614 C1606 0.930 . S
H1615 C1607 0.929 . S
H1616 C1624 0.929 . S
H1617 C1626 0.930 . S
H1618 C1628 0.930 . S
H1619 C1631 0.929 . S
H1620 C1634 0.930 . S
H1621 C1636 0.960 . S
H1622 C1636 0.960 . S
H1623 C1636 0.960 . S
C1624 H1616 0.929 . S
C1624 C1625 1.377 . S
C1624 C1626 1.384 . S
C1625 C1624 1.377 . S
C1625 C1631 1.390 . S
C1626 H1617 0.930 . S
C1626 C1624 1.384 . S
C1626 C1627 1.372 . S
C1627 C1626 1.372 . S
C1627 C1628 1.400 . S
C1627 C1632 1.490 . S
C1628 H1618 0.930 . S
C1628 C1627 1.400 . S
C1628 C1631 1.386 . S
H1629 C1645 0.930 . S
H1630 C1646 0.931 . S
C1631 H1619 0.929 . S
C1631 C1625 1.390 . S
C1631 C1628 1.386 . S
C1632 C1627 1.490 . S
C1632 C1634 1.395 . S
C1632 C1635 1.403 . S
H1633 C1639 0.930 . S
C1634 H1620 0.930 . S
C1634 C1632 1.395 . S
C1634 C1637 1.403 . S
C1635 C1632 1.403 . S
C1635 C1636 1.524 . S
C1635 C1639 1.400 . S
C1636 H1621 0.960 . S
C1636 H1622 0.960 . S
C1636 H1623 0.960 . S
C1636 C1635 1.524 . S
C1637 C1634 1.403 . S
C1637 C1638 1.392 . S
C1637 C1641 1.495 . S
C1638 C1637 1.392 . S
C1638 C1639 1.385 . S
C1638 C1640 1.478 . S
C1639 H1633 0.930 . S
C1639 C1635 1.400 . S
C1639 C1638 1.385 . S
C1640 C1638 1.478 . S
C1640 C1642 1.381 . S
C1640 C1646 1.383 . S
C1641 C1637 1.495 . S
C1641 H1647 0.959 . S
C1641 H1648 0.961 . S
C1641 H1649 0.960 . S
C1642 C1640 1.381 . S
C1642 C1643 1.394 . S
C1642 H1650 0.930 . S
C1643 C1642 1.394 . S
C1643 C1644 1.383 . S
C1643 H1651 0.929 . S
C1644 C1643 1.383 . S
C1644 C1645 1.377 . S
C1645 H1629 0.930 . S
C1645 C1644 1.377 . S
C1645 C1646 1.379 . S
C1646 H1630 0.931 . S
C1646 C1640 1.383 . S
C1646 C1645 1.379 . S
H1647 C1641 0.959 . S
H1648 C1641 0.961 . S
H1649 C1641 0.960 . S
H1650 C1642 0.930 . S
H1651 C1643 0.929 . S
H1652 C1660 0.929 . S
H1653 C1662 0.930 . S
H1654 C1664 0.930 . S
H1655 C1667 0.929 . S
H1656 C1670 0.930 . S
H1657 C1672 0.960 . S
H1658 C1672 0.960 . S
H1659 C1672 0.960 . S
C1660 H1652 0.929 . S
C1660 C1661 1.377 . S
C1660 C1662 1.384 1_455 S
C1661 C1660 1.377 . S
C1661 C1667 1.390 . S
C1662 H1653 0.930 . S
C1662 C1660 1.384 1_655 S
C1662 C1663 1.372 . S
C1663 C1662 1.372 . S
C1663 C1664 1.400 . S
C1663 C1668 1.490 . S
C1664 H1654 0.930 . S
C1664 C1663 1.400 . S
C1664 C1667 1.386 1_655 S
H1665 C1681 0.930 . S
H1666 C1682 0.931 . S
C1667 H1655 0.929 . S
C1667 C1661 1.390 . S
C1667 C1664 1.386 1_455 S
C1668 C1663 1.490 . S
C1668 C1670 1.395 . S
C1668 C1671 1.403 . S
H1669 C1675 0.930 . S
C1670 H1656 0.930 . S
C1670 C1668 1.395 . S
C1670 C1673 1.403 . S
C1671 C1668 1.403 . S
C1671 C1672 1.524 1_655 S
C1671 C1675 1.400 . S
C1672 H1657 0.960 . S
C1672 H1658 0.960 . S
C1672 H1659 0.960 . S
C1672 C1671 1.524 1_455 S
C1673 C1670 1.403 . S
C1673 C1674 1.392 . S
C1673 C1677 1.495 . S
C1674 C1673 1.392 . S
C1674 C1675 1.385 . S
C1674 C1676 1.478 . S
C1675 H1669 0.930 . S
C1675 C1671 1.400 . S
C1675 C1674 1.385 . S
C1676 C1674 1.478 . S
C1676 C1678 1.381 . S
C1676 C1682 1.383 . S
C1677 C1673 1.495 . S
C1677 H1683 0.959 . S
C1677 H1684 0.961 . S
C1677 H1685 0.960 . S
C1678 C1676 1.381 . S
C1678 C1679 1.394 . S
C1678 H1686 0.930 . S
C1679 C1678 1.394 . S
C1679 C1680 1.383 . S
C1679 H1687 0.929 . S
C1680 C1679 1.383 . S
C1680 C1681 1.377 . S
C1681 H1665 0.930 . S
C1681 C1680 1.377 . S
C1681 C1682 1.379 . S
C1682 H1666 0.931 . S
C1682 C1676 1.383 . S
C1682 C1681 1.379 . S
H1683 C1677 0.959 . S
H1684 C1677 0.961 . S
H1685 C1677 0.960 . S
H1686 C1678 0.930 . S
H1687 C1679 0.929 . S
H1688 C1696 0.929 . S
H1689 C1698 0.930 . S
H1690 C1700 0.930 . S
H1691 C1703 0.929 . S
H1692 C1706 0.930 . S
H1693 C1708 0.960 . S
H1694 C1708 0.960 . S
H1695 C1708 0.960 . S
C1696 H1688 0.929 . S
C1696 C1697 1.377 . S
C1696 C1698 1.384 . S
C1697 C1696 1.377 . S
C1697 C1703 1.390 . S
C1698 H1689 0.930 . S
C1698 C1696 1.384 . S
C1698 C1699 1.372 . S
C1699 C1698 1.372 . S
C1699 C1700 1.400 . S
C1699 C1704 1.490 . S
C1700 H1690 0.930 . S
C1700 C1699 1.400 . S
C1700 C1703 1.386 . S
H1701 C1717 0.930 . S
H1702 C1718 0.931 . S
C1703 H1691 0.929 . S
C1703 C1697 1.390 . S
C1703 C1700 1.386 . S
C1704 C1699 1.490 . S
C1704 C1706 1.395 . S
C1704 C1707 1.403 . S
H1705 C1711 0.930 . S
C1706 H1692 0.930 . S
C1706 C1704 1.395 . S
C1706 C1709 1.403 . S
C1707 C1704 1.403 . S
C1707 C1708 1.524 . S
C1707 C1711 1.400 . S
C1708 H1693 0.960 . S
C1708 H1694 0.960 . S
C1708 H1695 0.960 . S
C1708 C1707 1.524 . S
C1709 C1706 1.403 . S
C1709 C1710 1.392 . S
C1709 C1713 1.495 . S
C1710 C1709 1.392 . S
C1710 C1711 1.385 . S
C1710 C1712 1.478 . S
C1711 H1705 0.930 . S
C1711 C1707 1.400 . S
C1711 C1710 1.385 . S
C1712 C1710 1.478 . S
C1712 C1714 1.381 . S
C1712 C1718 1.383 . S
C1713 C1709 1.495 . S
C1713 H1719 0.959 . S
C1713 H1720 0.961 . S
C1713 H1721 0.960 . S
C1714 C1712 1.381 . S
C1714 C1715 1.394 . S
C1714 H1722 0.930 . S
C1715 C1714 1.394 . S
C1715 C1716 1.383 . S
C1715 H1723 0.929 . S
C1716 C1715 1.383 . S
C1716 C1717 1.377 . S
C1717 H1701 0.930 . S
C1717 C1716 1.377 . S
C1717 C1718 1.379 . S
C1718 H1702 0.931 . S
C1718 C1712 1.383 . S
C1718 C1717 1.379 . S
H1719 C1713 0.959 . S
H1720 C1713 0.961 . S
H1721 C1713 0.960 . S
H1722 C1714 0.930 . S
H1723 C1715 0.929 . S
H1724 C1732 0.929 . S
H1725 C1734 0.930 . S
H1726 C1736 0.930 . S
H1727 C1739 0.929 . S
H1728 C1742 0.930 . S
H1729 C1744 0.960 . S
H1730 C1744 0.960 . S
H1731 C1744 0.960 . S
C1732 H1724 0.929 . S
C1732 C1733 1.377 . S
C1732 C1734 1.384 . S
C1733 C1732 1.377 . S
C1733 C1739 1.390 . S
C1734 H1725 0.930 . S
C1734 C1732 1.384 . S
C1734 C1735 1.372 . S
C1735 C1734 1.372 . S
C1735 C1736 1.400 . S
C1735 C1740 1.490 . S
C1736 H1726 0.930 . S
C1736 C1735 1.400 . S
C1736 C1739 1.386 . S
H1737 C1753 0.930 . S
H1738 C1754 0.931 . S
C1739 H1727 0.929 . S
C1739 C1733 1.390 . S
C1739 C1736 1.386 . S
C1740 C1735 1.490 . S
C1740 C1742 1.395 . S
C1740 C1743 1.403 . S
H1741 C1747 0.930 . S
C1742 H1728 0.930 . S
C1742 C1740 1.395 . S
C1742 C1745 1.403 . S
C1743 C1740 1.403 . S
C1743 C1744 1.524 . S
C1743 C1747 1.400 . S
C1744 H1729 0.960 . S
C1744 H1730 0.960 . S
C1744 H1731 0.960 . S
C1744 C1743 1.524 . S
C1745 C1742 1.403 . S
C1745 C1746 1.392 . S
C1745 C1749 1.495 . S
C1746 C1745 1.392 . S
C1746 C1747 1.385 . S
C1746 C1748 1.478 . S
C1747 H1741 0.930 . S
C1747 C1743 1.400 . S
C1747 C1746 1.385 . S
C1748 C1746 1.478 . S
C1748 C1750 1.381 . S
C1748 C1754 1.383 . S
C1749 C1745 1.495 . S
C1749 H1755 0.959 . S
C1749 H1756 0.961 . S
C1749 H1757 0.960 . S
C1750 C1748 1.381 . S
C1750 C1751 1.394 . S
C1750 H1758 0.930 . S
C1751 C1750 1.394 . S
C1751 C1752 1.383 . S
C1751 H1759 0.929 . S
C1752 C1751 1.383 . S
C1752 C1753 1.377 . S
C1753 H1737 0.930 . S
C1753 C1752 1.377 . S
C1753 C1754 1.379 . S
C1754 H1738 0.931 . S
C1754 C1748 1.383 . S
C1754 C1753 1.379 . S
H1755 C1749 0.959 . S
H1756 C1749 0.961 . S
H1757 C1749 0.960 . S
H1758 C1750 0.930 . S
H1759 C1751 0.929 . S
C636 C516 1.350 . S
C617 C35 1.256 . S
C672 C533 1.373 . S
C653 C115 1.312 . S
C708 C547 1.494 . S
C689 C177 1.433 . S
C725 C221 1.236 . S
C744 C505 1.325 . S
C761 C283 1.287 . S
C780 C502 1.426 . S
C797 C363 1.134 . S
C816 C519 1.255 . S
C852 C530 1.606 . S
C833 C407 1.491 . S
C888 C544 1.467 . S
C869 C469 1.356 . S
C905 C159 1.372 . S
C924 C572 1.487 . S
C960 C586 1.610 . S
C941 C239 1.526 . S
C977 C53 1.145 . S
C996 C603 1.221 . S
C1032 C558 1.413 . S
C1013 C97 1.276 . S
C1049 C425 1.225 . S
C1068 C561 1.353 . S
C1085 C487 1.431 . S
C1104 C575 1.503 . S
C1140 C589 1.388 . S
C1121 C301 1.302 . S
C1157 C345 1.241 . S
C1176 C600 1.332 . S
C1212 C532 2.216 . S
C1193 C29 2.222 . S
C1248 C546 2.285 . S
C1229 C109 2.212 . S
C1265 C171 2.104 . S
C1284 C504 2.184 1_556 S
C1301 C215 2.009 . S
C1320 C517 1.951 . S
C1337 C277 1.821 . S
C1356 C545 1.741 . S
C1392 C503 1.672 . S
C1373 C357 1.730 . S
C1428 C518 2.067 . S
C1409 C401 2.065 . S
C1464 C531 1.878 . S
C1445 C463 1.950 . S
C1500 C587 1.868 . S
C1481 C153 1.948 . S
C1536 C602 2.079 . S
C1517 C233 2.068 . S
C1553 C47 1.731 1_655 S
C1572 C559 1.687 . S
C1608 C573 1.735 . S
C1589 C91 1.820 . S
C1644 C601 1.930 . S
C1625 C419 1.952 . S
C1661 C481 2.104 . S
C1680 C560 2.184 . S
C1716 C574 2.283 . S
C1697 C295 2.213 . S
C1752 C588 2.216 . S
C1733 C339 2.222 . S
