# Generated by pormake.
# Topology the, (3,8)-cn, num edge types: 1
# Building blocks:
#     Node 0, Type 0, BuildingBlock: BETDIP_clean_linker_0, # of connection points: 3
#     Node 1, Type 0, BuildingBlock: BETDIP_clean_linker_0, # of connection points: 3
#     Node 2, Type 0, BuildingBlock: BETDIP_clean_linker_0, # of connection points: 3
#     Node 3, Type 0, BuildingBlock: BETDIP_clean_linker_0, # of connection points: 3
#     Node 4, Type 0, BuildingBlock: BETDIP_clean_linker_0, # of connection points: 3
#     Node 5, Type 0, BuildingBlock: BETDIP_clean_linker_0, # of connection points: 3
#     Node 6, Type 0, BuildingBlock: BETDIP_clean_linker_0, # of connection points: 3
#     Node 7, Type 0, BuildingBlock: BETDIP_clean_linker_0, # of connection points: 3
#     Node 8, Type 1, BuildingBlock: GIZVER_clean_sbu_0, # of connection points: 8
#     Node 9, Type 1, BuildingBlock: GIZVER_clean_sbu_0, # of connection points: 8
#     Node 10, Type 1, BuildingBlock: GIZVER_clean_sbu_0, # of connection points: 8
#     Edge 11, Type (0, 1), BuildingBlock: XUDNAN_clean_linker_2, # of connection points: 2
#     Edge 12, Type (0, 1), BuildingBlock: XUDNAN_clean_linker_2, # of connection points: 2
#     Edge 13, Type (0, 1), BuildingBlock: XUDNAN_clean_linker_2, # of connection points: 2
#     Edge 14, Type (0, 1), BuildingBlock: XUDNAN_clean_linker_2, # of connection points: 2
#     Edge 15, Type (0, 1), BuildingBlock: XUDNAN_clean_linker_2, # of connection points: 2
#     Edge 16, Type (0, 1), BuildingBlock: XUDNAN_clean_linker_2, # of connection points: 2
#     Edge 17, Type (0, 1), BuildingBlock: XUDNAN_clean_linker_2, # of connection points: 2
#     Edge 18, Type (0, 1), BuildingBlock: XUDNAN_clean_linker_2, # of connection points: 2
#     Edge 19, Type (0, 1), BuildingBlock: XUDNAN_clean_linker_2, # of connection points: 2
#     Edge 20, Type (0, 1), BuildingBlock: XUDNAN_clean_linker_2, # of connection points: 2
#     Edge 21, Type (0, 1), BuildingBlock: XUDNAN_clean_linker_2, # of connection points: 2
#     Edge 22, Type (0, 1), BuildingBlock: XUDNAN_clean_linker_2, # of connection points: 2
#     Edge 23, Type (0, 1), BuildingBlock: XUDNAN_clean_linker_2, # of connection points: 2
#     Edge 24, Type (0, 1), BuildingBlock: XUDNAN_clean_linker_2, # of connection points: 2
#     Edge 25, Type (0, 1), BuildingBlock: XUDNAN_clean_linker_2, # of connection points: 2
#     Edge 26, Type (0, 1), BuildingBlock: XUDNAN_clean_linker_2, # of connection points: 2
#     Edge 27, Type (0, 1), BuildingBlock: XUDNAN_clean_linker_2, # of connection points: 2
#     Edge 28, Type (0, 1), BuildingBlock: XUDNAN_clean_linker_2, # of connection points: 2
#     Edge 29, Type (0, 1), BuildingBlock: XUDNAN_clean_linker_2, # of connection points: 2
#     Edge 30, Type (0, 1), BuildingBlock: XUDNAN_clean_linker_2, # of connection points: 2
#     Edge 31, Type (0, 1), BuildingBlock: XUDNAN_clean_linker_2, # of connection points: 2
#     Edge 32, Type (0, 1), BuildingBlock: XUDNAN_clean_linker_2, # of connection points: 2
#     Edge 33, Type (0, 1), BuildingBlock: XUDNAN_clean_linker_2, # of connection points: 2
#     Edge 34, Type (0, 1), BuildingBlock: XUDNAN_clean_linker_2, # of connection points: 2
# Relax obj value: 0.085
# Max RMSD: 0.192
# Mean RMSD: 0.139
data_MOF--net-the--node1-GIZVER_clean_sbu_0--node2-BETDIP_clean_linker_0--edge1-XUDNAN_clean_linker_2
_symmetry_space_group_name_H-M    P1
_symmetry_Int_Tables_number       1
_symmetry_cell_setting            triclinic
loop_
_symmetry_equiv_pos_as_xyz
'x, y, z'
_cell_length_a     40.56296
_cell_length_b     38.075894
_cell_length_c     36.112049
_cell_angle_alpha  90.064123
_cell_angle_beta   91.010166
_cell_angle_gamma 109.59159
loop_
_atom_site_label
_atom_site_type_symbol
_atom_site_fract_x
_atom_site_fract_y
_atom_site_fract_z
_atom_type_partial_charge
H0 H 0.28826 0.3216 0.45846 0.0
H1 H 0.36379 0.34424 0.37177 0.0
H2 H 0.28091 0.39062 0.36651 0.0
H3 H 0.30243 0.26605 0.46044 0.0
C4 C 0.33072 0.27847 0.45913 0.0
C5 C 0.2976 0.33415 0.43208 0.0
C6 C 0.28086 0.35667 0.41446 0.0
C7 C 0.32738 0.32936 0.4165 0.0
C8 C 0.34041 0.34732 0.38334 0.0
C9 C 0.3238 0.36964 0.36543 0.0
C10 C 0.29402 0.37394 0.38095 0.0
N11 N 0.34589 0.30834 0.43447 0.0
H12 H 0.74516 0.39515 0.3157 0.0
H13 H 0.66245 0.29045 0.29463 0.0
H14 H 0.73212 0.30166 0.38779 0.0
H15 H 0.67544 0.30989 0.23477 0.0
C16 C 0.6751 0.33822 0.23722 0.0
C17 C 0.73174 0.36626 0.32266 0.0
C18 C 0.7421 0.35095 0.35457 0.0
C19 C 0.70343 0.34439 0.30016 0.0
C20 C 0.68512 0.30722 0.31057 0.0
C21 C 0.69568 0.2915 0.34183 0.0
C22 C 0.72429 0.31349 0.36324 0.0
N23 N 0.6927 0.36036 0.26819 0.0
H24 H 0.72399 0.67639 0.31796 0.0
H25 H 0.73505 0.76978 0.38917 0.0
H26 H 0.65258 0.73813 0.30618 0.0
H27 H 0.78754 0.76509 0.40334 0.0
C28 C 0.78549 0.73619 0.39925 0.0
C29 C 0.71497 0.69892 0.32632 0.0
C30 C 0.68577 0.70389 0.30835 0.0
C31 C 0.7329 0.7222 0.35527 0.0
C32 C 0.72205 0.752 0.36618 0.0
C33 C 0.69329 0.75825 0.3484 0.0
C34 C 0.67509 0.73392 0.31952 0.0
N35 N 0.76044 0.71324 0.37361 0.0
H36 H 0.24841 0.682 0.28195 0.0
H37 H 0.34431 0.77062 0.30785 0.0
H38 H 0.25391 0.75586 0.37409 0.0
H39 H 0.28063 0.66114 0.24367 0.0
C40 C 0.30721 0.68056 0.24305 0.0
C41 C 0.26314 0.7057 0.29885 0.0
C42 C 0.24659 0.71692 0.32839 0.0
C43 C 0.29847 0.72526 0.29145 0.0
C44 C 0.31697 0.75592 0.31351 0.0
C45 C 0.30114 0.7671 0.34332 0.0
C46 C 0.26582 0.74787 0.35033 0.0
N47 N 0.31734 0.71459 0.26339 0.0
H48 H 0.30963 0.63068 0.74325 0.0
H49 H 0.39561 0.73381 0.75341 0.0
H50 H 0.31498 0.72106 0.66984 0.0
H51 H 0.37572 0.70811 0.82153 0.0
C52 C 0.3816 0.68308 0.81463 0.0
C53 C 0.32302 0.65879 0.7338 0.0
C54 C 0.30844 0.67358 0.70468 0.0
C55 C 0.35438 0.68036 0.75146 0.0
C56 C 0.3715 0.71713 0.73962 0.0
C57 C 0.35755 0.73222 0.71001 0.0
C58 C 0.32614 0.70994 0.69259 0.0
N59 N 0.36859 0.66431 0.78058 0.0
H60 H 0.32659 0.35795 0.74941 0.0
H61 H 0.31989 0.27866 0.66246 0.0
H62 H 0.38444 0.28176 0.75923 0.0
H63 H 0.26562 0.34516 0.72443 0.0
C64 C 0.27252 0.34801 0.69539 0.0
C65 C 0.3336 0.33498 0.73843 0.0
C66 C 0.35707 0.3217 0.75848 0.0
C67 C 0.31986 0.31902 0.70392 0.0
C68 C 0.33001 0.29018 0.68946 0.0
C69 C 0.353 0.27618 0.70918 0.0
C70 C 0.36653 0.29218 0.74378 0.0
N71 N 0.29746 0.33261 0.68182 0.0
H72 H 0.70553 0.26201 0.74871 0.0
H73 H 0.80331 0.3468 0.77726 0.0
H74 H 0.79428 0.2819 0.67806 0.0
H75 H 0.78133 0.33585 0.83599 0.0
C76 C 0.75454 0.33426 0.82991 0.0
C77 C 0.73293 0.27624 0.74306 0.0
C78 C 0.74759 0.26798 0.71056 0.0
C79 C 0.75295 0.30404 0.76768 0.0
C80 C 0.78797 0.32417 0.7594 0.0
C81 C 0.80305 0.31623 0.72716 0.0
C82 C 0.78287 0.28772 0.70326 0.0
N83 N 0.73634 0.31346 0.79866 0.0
H84 H 0.67736 0.69066 0.68586 0.0
H85 H 0.75852 0.72083 0.60455 0.0
H86 H 0.75611 0.63776 0.68497 0.0
H87 H 0.75019 0.77504 0.60779 0.0
C88 C 0.72189 0.76737 0.60833 0.0
C89 C 0.70042 0.68725 0.67389 0.0
C90 C 0.71442 0.66091 0.68866 0.0
C91 C 0.71635 0.70948 0.64382 0.0
C92 C 0.74628 0.70491 0.6284 0.0
C93 C 0.76067 0.67934 0.6433 0.0
C94 C 0.74445 0.65706 0.67301 0.0
N95 N 0.70201 0.73617 0.62946 0.0
Co96 Co 0.08939 0.48833 0.54026 0.0
Co97 Co 0.049 0.46893 0.48053 0.0
Co98 Co 0.02223 0.52309 0.52927 0.0
O99 O 0.04002 0.47979 0.52867 0.0
H100 H 0.02447 0.45786 0.54046 0.0
O101 O 1.00633 0.56725 0.53134 0.0
Co102 Co 0.95959 0.56425 0.51902 0.0
Co103 Co 0.998 0.57749 0.58041 0.0
H104 H 0.02328 0.58909 0.52086 0.0
O105 O 0.05252 0.42282 0.46873 0.0
O106 O 0.09562 0.47442 0.48873 0.0
O107 O 0.04885 0.50471 0.44314 0.0
O108 O 0.04908 0.54836 0.48449 0.0
O109 O 0.9807 0.49451 0.49652 0.0
O110 O 0.91728 0.56607 0.50609 0.0
O111 O 0.96917 0.61268 0.50712 0.0
O112 O 0.94386 0.51298 0.52917 0.0
O113 O 0.99525 0.49739 0.57358 0.0
O114 O 0.99448 0.53922 0.61646 0.0
O115 O 0.95253 0.57499 0.57104 0.0
O116 O 0.99577 0.62395 0.5949 0.0
C117 C 0.11884 0.45772 0.56075 0.0
C118 C 0.09423 0.55712 0.55414 0.0
C119 C 0.05399 0.53848 0.45175 0.0
C120 C 0.08535 0.44026 0.4764 0.0
C121 C 0.93543 0.60096 0.50059 0.0
C122 C 0.94935 0.49113 0.50535 0.0
C123 C 0.98959 0.50587 0.60653 0.0
C124 C 0.96306 0.60815 0.58564 0.0
O125 O 0.1332 0.4924 0.55154 0.0
O126 O 0.08502 0.44149 0.5564 0.0
O127 O 0.06244 0.55122 0.56232 0.0
O128 O 0.10066 0.53877 0.5275 0.0
Co129 Co 0.5547 0.95156 0.49165 0.0
Co130 Co 0.57269 0.97483 0.55958 0.0
Co131 Co 0.52324 0.01734 0.52979 0.0
O132 O 0.56176 0.99768 0.51819 0.0
H133 H 0.58254 0.01718 0.51021 0.0
O134 O 0.48461 0.03721 0.54057 0.0
Co135 Co 0.49197 0.0833 0.5667 0.0
Co136 Co 0.47327 0.06004 0.49847 0.0
H137 H 0.46391 0.01779 0.54884 0.0
O138 O 0.61614 0.97042 0.56485 0.0
O139 O 0.56784 0.92968 0.53731 0.0
O140 O 0.54109 0.9637 0.59995 0.0
O141 O 0.49991 0.97726 0.56744 0.0
O142 O 0.55418 0.04984 0.56909 0.0
O143 O 0.49401 0.12437 0.59219 0.0
O144 O 0.44723 0.07305 0.58108 0.0
O145 O 0.54027 0.10009 0.55577 0.0
O146 O 0.54642 0.05713 0.49203 0.0
O147 O 0.50544 0.06986 0.45823 0.0
O148 O 0.48207 0.10613 0.52071 0.0
O149 O 0.43159 0.07119 0.4935 0.0
C150 C 0.58538 0.92884 0.46089 0.0
C151 C 0.48538 0.94956 0.48992 0.0
C152 C 0.50942 0.96114 0.59472 0.0
C153 C 0.60008 0.93824 0.54941 0.0
C154 C 0.46069 0.10638 0.59562 0.0
C155 C 0.56157 0.08513 0.56899 0.0
C156 C 0.53706 0.07228 0.46393 0.0
C157 C 0.45077 0.10245 0.50863 0.0
O158 O 0.55241 0.91051 0.46605 0.0
O159 O 0.59906 0.96238 0.47501 0.0
O160 O 0.49261 0.98485 0.49086 0.0
O161 O 0.50642 0.93436 0.50376 0.0
Co162 Co 0.48584 0.53125 0.10218 0.0
Co163 Co 0.4677 0.46233 0.08797 0.0
Co164 Co 0.52781 0.51161 0.03137 0.0
O165 O 0.48323 0.50335 0.0585 0.0
H166 H 0.46451 0.50428 0.04203 0.0
O167 O 0.57213 0.52008 1.00353 0.0
Co168 Co 0.57553 0.48659 0.96541 0.0
Co169 Co 0.5816 0.55323 0.96568 0.0
H170 H 0.59203 0.52611 0.02041 0.0
O171 O 0.42109 0.44001 0.1004 0.0
O172 O 0.46254 0.48601 0.13139 0.0
O173 O 0.50031 0.43632 0.09434 0.0
O174 O 0.54437 0.47485 0.0619 0.0
O175 O 0.49911 0.4696 0.99776 0.0
O176 O 0.58256 0.455 0.93291 0.0
O177 O 0.61914 0.48795 0.97785 0.0
O178 O 0.53044 0.48105 0.9469 0.0
O179 O 0.51087 0.54806 1.00081 0.0
O180 O 0.54351 0.56826 0.9508 0.0
O181 O 0.59331 0.52695 0.92869 0.0
O182 O 0.62629 0.5825 0.95373 0.0
C183 C 0.45775 0.56097 0.12427 0.0
C184 C 0.55485 0.5485 0.10145 0.0
C185 C 0.53166 0.44668 0.08329 0.0
C186 C 0.43108 0.46178 0.12916 0.0
C187 C 0.61246 0.46383 0.95065 0.0
C188 C 0.50147 0.467 0.96279 0.0
C189 C 0.51665 0.5652 0.96962 0.0
C190 C 0.62047 0.55732 0.92777 0.0
O191 O 0.48607 0.55968 0.14073 0.0
O192 O 0.44547 0.54068 0.09474 0.0
O193 O 0.55624 0.5533 0.06641 0.0
O194 O 0.52799 0.52529 0.11518 0.0
H195 H 0.26609 0.42173 0.4167 0.0
H196 H 0.22533 0.30536 0.44859 0.0
H197 H 0.17173 0.31493 0.4711 0.0
H198 H 0.23124 0.46049 0.49046 0.0
H199 H 0.21951 0.49336 0.46185 0.0
H200 H 0.256 0.47894 0.44987 0.0
H201 H 0.22952 0.45729 0.38518 0.0
H202 H 0.19324 0.47261 0.39554 0.0
H203 H 0.18536 0.42522 0.38069 0.0
H204 H 0.12051 0.3359 0.48474 0.0
H205 H 0.07679 0.36778 0.49171 0.0
H206 H 0.15132 0.46994 0.45035 0.0
C207 C 0.24597 0.39819 0.42847 0.0
C208 C 0.24986 0.36273 0.43078 0.0
C209 C 0.2231 0.33287 0.44692 0.0
C210 C 0.1925 0.33799 0.45957 0.0
C211 C 0.18918 0.37309 0.45588 0.0
C212 C 0.21528 0.40271 0.44086 0.0
C213 C 0.20466 0.4371 0.43811 0.0
C214 C 0.22928 0.46936 0.46149 0.0
C215 C 0.2031 0.44871 0.39747 0.0
C216 C 0.16848 0.42228 0.45416 0.0
C217 C 0.15991 0.38524 0.46402 0.0
C218 C 0.12706 0.36499 0.47751 0.0
C219 C 0.10239 0.38316 0.48113 0.0
C220 C 0.111 0.42118 0.47174 0.0
C221 C 0.1444 0.44093 0.45814 0.0
H222 H 0.62453 0.25774 0.34886 0.0
H223 H 0.72332 0.23815 0.36296 0.0
H224 H 0.69253 0.17685 0.39058 0.0
H225 H 0.58942 0.22012 0.43308 0.0
H226 H 0.54504 0.19915 0.41614 0.0
H227 H 0.57408 0.23944 0.39348 0.0
H228 H 0.5628 0.20339 0.33103 0.0
H229 H 0.53354 0.16296 0.35353 0.0
H230 H 0.57004 0.15928 0.328 0.0
H231 H 0.65221 0.12127 0.42325 0.0
H232 H 0.60488 0.07448 0.45663 0.0
H233 H 0.53181 0.12893 0.4198 0.0
C234 C 0.6395 0.24004 0.35675 0.0
C235 C 0.67633 0.25267 0.35363 0.0
C236 C 0.69512 0.22909 0.36521 0.0
C237 C 0.67784 0.19416 0.3808 0.0
C238 C 0.64165 0.18295 0.38442 0.0
C239 C 0.62261 0.20501 0.37243 0.0
C240 C 0.58429 0.18749 0.38185 0.0
C241 C 0.57254 0.21307 0.40767 0.0
C242 C 0.56131 0.17769 0.34649 0.0
C243 C 0.58493 0.15263 0.4017 0.0
C244 C 0.61825 0.15046 0.40275 0.0
C245 C 0.62587 0.12228 0.42199 0.0
C246 C 0.59882 0.09584 0.44093 0.0
C247 C 0.56449 0.09761 0.44042 0.0
C248 C 0.55753 0.12618 0.42001 0.0
H249 H 0.78666 0.664 0.40124 0.0
H250 H 0.84258 0.77649 0.44007 0.0
H251 H 0.88678 0.75425 0.47105 0.0
H252 H 0.79943 0.61813 0.48269 0.0
H253 H 0.8064 0.57888 0.4603 0.0
H254 H 0.7791 0.60194 0.43838 0.0
H255 H 0.81553 0.6157 0.37966 0.0
H256 H 0.84229 0.59059 0.39887 0.0
H257 H 0.86234 0.6378 0.38322 0.0
H258 H 0.92658 0.72016 0.4949 0.0
H259 H 0.95701 0.67619 0.51309 0.0
H260 H 0.87316 0.58526 0.46211 0.0
C261 C 0.80821 0.68399 0.41621 0.0
C262 C 0.81138 0.72211 0.41809 0.0
C263 C 0.83979 0.74723 0.43825 0.0
C264 C 0.86499 0.73485 0.45589 0.0
C265 C 0.86124 0.69714 0.45337 0.0
C266 C 0.83345 0.67204 0.43422 0.0
C267 C 0.83529 0.63295 0.43604 0.0
C268 C 0.80319 0.60639 0.45554 0.0
C269 C 0.8391 0.61842 0.39714 0.0
C270 C 0.86853 0.63999 0.45913 0.0
C271 C 0.8833 0.67727 0.4685 0.0
C272 C 0.9151 0.69086 0.48797 0.0
C273 C 0.9323 0.66573 0.49802 0.0
C274 C 0.91743 0.62735 0.4891 0.0
C275 C 0.88499 0.61441 0.46963 0.0
H276 H 0.36381 0.7735 0.37621 0.0
H277 H 0.2863 0.82861 0.36668 0.0
H278 H 0.32386 0.88062 0.40603 0.0
H279 H 0.38928 0.80027 0.47235 0.0
H280 H 0.43461 0.80602 0.46489 0.0
H281 H 0.40085 0.77279 0.43745 0.0
H282 H 0.4304 0.80459 0.37743 0.0
H283 H 0.46418 0.83788 0.40468 0.0
H284 H 0.43889 0.85381 0.37129 0.0
H285 H 0.37243 0.92872 0.44226 0.0
H286 H 0.42637 0.96738 0.47531 0.0
H287 H 0.47041 0.87879 0.46284 0.0
C288 C 0.35473 0.7965 0.38253 0.0
C289 C 0.32238 0.79737 0.36831 0.0
C290 C 0.31104 0.82756 0.37747 0.0
C291 C 0.33219 0.85714 0.39969 0.0
C292 C 0.36424 0.85566 0.41287 0.0
C293 C 0.37524 0.82587 0.40494 0.0
C294 C 0.41088 0.83103 0.42203 0.0
C295 C 0.40876 0.80073 0.4509 0.0
C296 C 0.43766 0.83189 0.39207 0.0
C297 C 0.41866 0.8688 0.44019 0.0
C298 C 0.39151 0.88262 0.43462 0.0
C299 C 0.39365 0.91796 0.4472 0.0
C300 C 0.4244 0.93974 0.46581 0.0
C301 C 0.45243 0.92595 0.47187 0.0
C302 C 0.44922 0.88987 0.45915 0.0
H303 H 0.29076 0.6539 0.63174 0.0
H304 H 0.24728 0.64651 0.74139 0.0
H305 H 0.18774 0.61673 0.71469 0.0
H306 H 0.22309 0.67396 0.58196 0.0
H307 H 0.22326 0.6452 0.54232 0.0
H308 H 0.2626 0.66522 0.56987 0.0
H309 H 0.26683 0.59953 0.5804 0.0
H310 H 0.2277 0.57938 0.55252 0.0
H311 H 0.22999 0.56321 0.59906 0.0
H312 H 0.13284 0.59242 0.67564 0.0
H313 H 0.08645 0.5675 0.62803 0.0
H314 H 0.16535 0.58613 0.5437 0.0
C315 C 0.26865 0.64559 0.65005 0.0
C316 C 0.27345 0.65241 0.68862 0.0
C317 C 0.24406 0.6412 0.71184 0.0
C318 C 0.21019 0.6245 0.69689 0.0
C319 C 0.20622 0.61861 0.65871 0.0
C320 C 0.23467 0.62809 0.63564 0.0
C321 C 0.22312 0.61787 0.59567 0.0
C322 C 0.23364 0.65264 0.57101 0.0
C323 C 0.23778 0.58823 0.58106 0.0
C324 C 0.18371 0.60194 0.59979 0.0
C325 C 0.17456 0.60296 0.63636 0.0
C326 C 0.13971 0.59108 0.64697 0.0
C327 C 0.11351 0.57718 0.61964 0.0
C328 C 0.12222 0.57474 0.58209 0.0
C329 C 0.15787 0.58746 0.57217 0.0
H330 H 0.41882 0.27152 0.70088 0.0
H331 H 0.30872 0.21075 0.68027 0.0
H332 H 0.32401 0.1601 0.6501 0.0
H333 H 0.448 0.2474 0.61386 0.0
H334 H 0.48811 0.24392 0.63301 0.0
H335 H 0.4684 0.27474 0.65406 0.0
H336 H 0.46737 0.24178 0.7171 0.0
H337 H 0.48704 0.21087 0.69612 0.0
H338 H 0.44621 0.19201 0.71989 0.0
H339 H 0.35139 0.11629 0.62133 0.0
H340 H 0.3889 0.08316 0.59551 0.0
H341 H 0.48125 0.17294 0.63375 0.0
C342 C 0.39796 0.24728 0.69048 0.0
C343 C 0.36255 0.24493 0.69313 0.0
C344 C 0.33601 0.21312 0.67848 0.0
C345 C 0.34443 0.18419 0.66137 0.0
C346 C 0.37958 0.1875 0.65887 0.0
C347 C 0.40595 0.21828 0.6729 0.0
C348 C 0.44167 0.21552 0.6654 0.0
C349 C 0.46278 0.24728 0.64008 0.0
C350 C 0.46175 0.21501 0.7018 0.0
C351 C 0.43126 0.17817 0.64553 0.0
C352 C 0.39533 0.16248 0.64196 0.0
C353 C 0.37957 0.12822 0.62419 0.0
C354 C 0.4011 0.10951 0.60974 0.0
C355 C 0.43804 0.12516 0.61295 0.0
C356 C 0.45313 0.16001 0.63109 0.0
H357 H 0.83015 0.39231 0.72777 0.0
H358 H 0.85549 0.2935 0.70046 0.0
H359 H 0.91158 0.33315 0.67449 0.0
H360 H 0.85945 0.43922 0.64766 0.0
H361 H 0.87676 0.48511 0.66815 0.0
H362 H 0.84175 0.44962 0.69012 0.0
H363 H 0.87882 0.45871 0.75083 0.0
H364 H 0.91404 0.4944 0.72897 0.0
H365 H 0.92192 0.45491 0.74987 0.0
H366 H 0.95967 0.38221 0.64314 0.0
H367 H 0.99659 0.43719 0.60913 0.0
H368 H 0.94121 0.50452 0.65858 0.0
C369 C 0.84811 0.37911 0.71758 0.0
C370 C 0.83869 0.33987 0.71641 0.0
C371 C 0.86227 0.32352 0.70161 0.0
C372 C 0.89424 0.34582 0.68705 0.0
C373 C 0.90234 0.38441 0.68776 0.0
C374 C 0.88007 0.40096 0.70292 0.0
C375 C 0.89312 0.44269 0.69679 0.0
C376 C 0.86618 0.45484 0.67434 0.0
C377 C 0.90254 0.46393 0.73383 0.0
C378 C 0.92551 0.44686 0.6746 0.0
C379 C 0.93059 0.41297 0.67006 0.0
C380 C 0.95652 0.40905 0.64726 0.0
C381 C 0.97729 0.44037 0.628 0.0
C382 C 0.97208 0.47513 0.63178 0.0
C383 C 0.94648 0.47855 0.65614 0.0
H384 H 0.65286 0.76493 0.60822 0.0
H385 H 0.7552 0.82489 0.56452 0.0
H386 H 0.73152 0.86982 0.53481 0.0
H387 H 0.60051 0.78366 0.52707 0.0
H388 H 0.56749 0.78904 0.55711 0.0
H389 H 0.59053 0.75749 0.5694 0.0
H390 H 0.60909 0.7916 0.63247 0.0
H391 H 0.58609 0.82304 0.62044 0.0
H392 H 0.6319 0.84121 0.63318 0.0
H393 H 0.70087 0.91373 0.52002 0.0
H394 H 0.66414 0.95393 0.52021 0.0
H395 H 0.58003 0.8653 0.56991 0.0
C396 C 0.66997 0.78699 0.5916 0.0
C397 C 0.70584 0.79158 0.58852 0.0
C398 C 0.72763 0.82102 0.5671 0.0
C399 C 0.71437 0.84648 0.54992 0.0
C400 C 0.67913 0.84184 0.5541 0.0
C401 C 0.65705 0.8127 0.57411 0.0
C402 C 0.62117 0.8165 0.57743 0.0
C403 C 0.59328 0.78478 0.5565 0.0
C404 C 0.61153 0.81821 0.6183 0.0
C405 C 0.62734 0.85351 0.55828 0.0
C406 C 0.6608 0.86722 0.54442 0.0
C407 C 0.6743 0.90292 0.52977 0.0
C408 C 0.65342 0.92559 0.53017 0.0
C409 C 0.61934 0.91224 0.54452 0.0
C410 C 0.60571 0.87548 0.55777 0.0
H411 H 0.31188 0.20505 0.47681 0.0
H412 H 0.39973 0.30841 0.47936 0.0
H413 H 0.43834 0.27472 0.50255 0.0
H414 H 0.34149 0.15949 0.55831 0.0
H415 H 0.32637 0.11447 0.53585 0.0
H416 H 0.30386 0.14738 0.52746 0.0
H417 H 0.31217 0.14273 0.4568 0.0
H418 H 0.33457 0.10989 0.46486 0.0
H419 H 0.35563 0.1519 0.43937 0.0
H420 H 0.46853 0.22947 0.5185 0.0
H421 H 0.4893 0.17559 0.52038 0.0
H422 H 0.38272 0.10078 0.50321 0.0
C423 C 0.33904 0.22061 0.48338 0.0
C424 C 0.35292 0.25921 0.47665 0.0
C425 C 0.3887 0.27876 0.48445 0.0
C426 C 0.41072 0.25993 0.49791 0.0
C427 C 0.39652 0.22157 0.50327 0.0
C428 C 0.3615 0.20205 0.49619 0.0
C429 C 0.35388 0.1604 0.49932 0.0
C430 C 0.32998 0.1445 0.53219 0.0
C431 C 0.33816 0.14006 0.46292 0.0
C432 C 0.39042 0.1595 0.50685 0.0
C433 C 0.41437 0.19509 0.51049 0.0
C434 C 0.44998 0.20146 0.51602 0.0
C435 C 0.46153 0.17068 0.51692 0.0
C436 C 0.43763 0.1341 0.51146 0.0
C437 C 0.40157 0.12848 0.50718 0.0
H438 H 0.81135 0.39446 0.34137 0.0
H439 H 0.7351 0.35745 0.42828 0.0
H440 H 0.78107 0.38541 0.47532 0.0
H441 H 0.88279 0.37894 0.38991 0.0
H442 H 0.91614 0.42032 0.37383 0.0
H443 H 0.87737 0.39869 0.34581 0.0
H444 H 0.86425 0.46071 0.34398 0.0
H445 H 0.90338 0.4827 0.37132 0.0
H446 H 0.8618 0.48398 0.38683 0.0
H447 H 0.83417 0.41405 0.51325 0.0
H448 H 0.89148 0.45028 0.54067 0.0
H449 H 0.93576 0.47111 0.43106 0.0
C450 C 0.80437 0.39295 0.37026 0.0
C451 C 0.76961 0.3735 0.3812 0.0
C452 C 0.76153 0.37188 0.41931 0.0
C453 C 0.7875 0.38757 0.44627 0.0
C454 C 0.82162 0.4052 0.43486 0.0
C455 C 0.83021 0.40875 0.39786 0.0
C456 C 0.86919 0.42988 0.39375 0.0
C457 C 0.88744 0.40549 0.37469 0.0
C458 C 0.87499 0.46649 0.37273 0.0
C459 C 0.88095 0.43725 0.43418 0.0
C460 C 0.85288 0.4224 0.45721 0.0
C461 C 0.85637 0.42587 0.49556 0.0
C462 C 0.8891 0.4463 0.51089 0.0
C463 C 0.91814 0.46308 0.4881 0.0
C464 C 0.91422 0.45779 0.44919 0.0
H465 H 0.62784 0.75694 0.36959 0.0
H466 H 0.73462 0.83095 0.35712 0.0
H467 H 0.7186 0.88314 0.38286 0.0
H468 H 0.58409 0.82379 0.34763 0.0
H469 H 0.55125 0.80654 0.38233 0.0
H470 H 0.57075 0.77555 0.36118 0.0
H471 H 0.58886 0.75854 0.42612 0.0
H472 H 0.56968 0.78968 0.44749 0.0
H473 H 0.61494 0.79515 0.45673 0.0
H474 H 0.69128 0.92704 0.41217 0.0
H475 H 0.65467 0.95896 0.44222 0.0
H476 H 0.5659 0.85621 0.43647 0.0
C477 C 0.64763 0.78431 0.37167 0.0
C478 C 0.68243 0.79 0.36101 0.0
C479 C 0.70781 0.82602 0.36503 0.0
C480 C 0.69895 0.85582 0.37962 0.0
C481 C 0.66457 0.84923 0.39038 0.0
C482 C 0.6393 0.81435 0.38663 0.0
C483 C 0.60467 0.81438 0.40187 0.0
C484 C 0.576 0.80448 0.37143 0.0
C485 C 0.59391 0.78786 0.43501 0.0
C486 C 0.61427 0.85476 0.41417 0.0
C487 C 0.64898 0.87439 0.40747 0.0
C488 C 0.66399 0.91196 0.41731 0.0
C489 C 0.64297 0.9299 0.43434 0.0
C490 C 0.60729 0.91033 0.44146 0.0
C491 C 0.59295 0.87222 0.43109 0.0
H492 H 0.21705 0.64092 0.33119 0.0
H493 H 0.19451 0.74305 0.35 0.0
H494 H 0.13736 0.70656 0.37585 0.0
H495 H 0.12445 0.58035 0.30827 0.0
H496 H 0.13038 0.54113 0.33186 0.0
H497 H 0.16684 0.57469 0.30947 0.0
H498 H 0.20259 0.58525 0.37116 0.0
H499 H 0.16633 0.55193 0.39365 0.0
H500 H 0.18474 0.5986 0.4121 0.0
H501 H 0.08814 0.66064 0.40924 0.0
H502 H 0.04948 0.60823 0.44534 0.0
H503 H 0.10213 0.53559 0.40142 0.0
C504 C 0.19955 0.65551 0.33941 0.0
C505 C 0.2102 0.69483 0.33849 0.0
C506 C 0.18697 0.71295 0.35068 0.0
C507 C 0.15435 0.69245 0.36513 0.0
C508 C 0.14511 0.65379 0.36672 0.0
C509 C 0.16685 0.63544 0.35373 0.0
C510 C 0.15232 0.59412 0.36179 0.0
C511 C 0.14293 0.57122 0.32569 0.0
C512 C 0.17802 0.58179 0.38612 0.0
C513 C 0.11981 0.59235 0.3827 0.0
C514 C 0.11592 0.627 0.385 0.0
C515 C 0.09027 0.63316 0.40674 0.0
C516 C 0.0685 0.60332 0.42719 0.0
C517 C 0.07238 0.5678 0.42547 0.0
C518 C 0.09777 0.56214 0.40218 0.0
H519 H 0.42814 0.76855 0.70017 0.0
H520 H 0.3271 0.78399 0.69022 0.0
H521 H 0.35547 0.84641 0.66394 0.0
H522 H 0.47867 0.86609 0.72509 0.0
H523 H 0.516 0.8659 0.69885 0.0
H524 H 0.48802 0.82338 0.71918 0.0
H525 H 0.47832 0.79104 0.65476 0.0
H526 H 0.50625 0.83341 0.63433 0.0
H527 H 0.46223 0.81166 0.61665 0.0
H528 H 0.39416 0.90496 0.63343 0.0
H529 H 0.44054 0.95547 0.60265 0.0
H530 H 0.51659 0.90329 0.63532 0.0
C531 C 0.41206 0.78536 0.69322 0.0
C532 C 0.3753 0.77114 0.69713 0.0
C533 C 0.35521 0.79392 0.687 0.0
C534 C 0.37113 0.82959 0.67229 0.0
C535 C 0.40729 0.84245 0.66816 0.0
C536 C 0.42756 0.82115 0.67859 0.0
C537 C 0.46571 0.84086 0.66977 0.0
C538 C 0.48844 0.84958 0.70535 0.0
C539 C 0.47888 0.81788 0.64224 0.0
C540 C 0.46358 0.8762 0.65216 0.0
C541 C 0.42968 0.87665 0.65153 0.0
C542 C 0.42092 0.90523 0.63433 0.0
C543 C 0.44743 0.93381 0.61691 0.0
C544 C 0.48234 0.93378 0.61703 0.0
C545 C 0.49039 0.90476 0.63548 0.0
H546 H 0.2083 0.35595 0.70514 0.0
H547 H 0.29151 0.37437 0.6259 0.0
H548 H 0.25878 0.40012 0.58169 0.0
H549 H 0.13629 0.32817 0.63612 0.0
H550 H 0.11033 0.3508 0.66025 0.0
H551 H 0.13978 0.33295 0.68585 0.0
H552 H 0.17025 0.39814 0.71532 0.0
H553 H 0.14081 0.41609 0.68998 0.0
H554 H 0.18743 0.43797 0.6857 0.0
H555 H 0.22083 0.42947 0.5491 0.0
H556 H 0.17757 0.45789 0.52758 0.0
H557 H 0.11444 0.41478 0.62345 0.0
C558 C 0.21945 0.36531 0.67839 0.0
C559 C 0.25244 0.36318 0.66891 0.0
C560 C 0.26623 0.37554 0.63368 0.0
C561 C 0.24783 0.39022 0.60836 0.0
C562 C 0.21536 0.39182 0.61842 0.0
C563 C 0.20101 0.37942 0.65238 0.0
C564 C 0.16563 0.38465 0.65601 0.0
C565 C 0.13627 0.34689 0.65978 0.0
C566 C 0.16607 0.41077 0.68869 0.0
C567 C 0.1628 0.40272 0.61913 0.0
C568 C 0.19198 0.40667 0.5981 0.0
C569 C 0.19737 0.42565 0.56467 0.0
C570 C 0.17255 0.44141 0.55253 0.0
C571 C 0.14204 0.43708 0.57296 0.0
C572 C 0.13687 0.41713 0.60658 0.0
H573 H 0.69771 0.19918 0.72257 0.0
H574 H 0.74675 0.27665 0.6355 0.0
H575 H 0.70892 0.2339 0.58895 0.0
H576 H 0.6842 0.11283 0.66856 0.0
H577 H 0.64222 0.08923 0.6886 0.0
H578 H 0.67552 0.12411 0.71508 0.0
H579 H 0.63269 0.16051 0.72547 0.0
H580 H 0.59928 0.12568 0.69928 0.0
H581 H 0.61193 0.17394 0.68598 0.0
H582 H 0.66195 0.18698 0.5527 0.0
H583 H 0.60846 0.13811 0.52914 0.0
H584 H 0.59037 0.08935 0.63842 0.0
C585 C 0.70068 0.20694 0.69366 0.0
C586 C 0.72554 0.2411 0.68268 0.0
C587 C 0.7285 0.2503 0.64457 0.0
C588 C 0.70704 0.22624 0.61788 0.0
C589 C 0.6828 0.1929 0.62961 0.0
C590 C 0.67952 0.18309 0.66654 0.0
C591 C 0.64988 0.1466 0.67184 0.0
C592 C 0.6638 0.1164 0.68691 0.0
C593 C 0.62179 0.15203 0.69713 0.0
C594 C 0.63641 0.13805 0.63226 0.0
C595 C 0.65598 0.16507 0.60834 0.0
C596 C 0.64688 0.16521 0.57096 0.0
C597 C 0.61658 0.13743 0.55781 0.0
C598 C 0.59608 0.10976 0.58188 0.0
C599 C 0.60643 0.10959 0.61935 0.0
H600 H 0.77378 0.61796 0.61798 0.0
H601 H 0.82226 0.73656 0.63815 0.0
H602 H 0.87975 0.73263 0.62095 0.0
H603 H 0.83885 0.58917 0.6548 0.0
H604 H 0.83618 0.55387 0.62047 0.0
H605 H 0.79832 0.56672 0.62979 0.0
H606 H 0.79322 0.58281 0.56007 0.0
H607 H 0.8305 0.56859 0.55096 0.0
H608 H 0.83113 0.61441 0.53792 0.0
H609 H 0.93264 0.71398 0.60917 0.0
H610 H 0.97635 0.68264 0.59936 0.0
H611 H 0.89225 0.57695 0.58462 0.0
C612 C 0.79647 0.64312 0.61809 0.0
C613 C 0.79394 0.67752 0.62932 0.0
C614 C 0.82393 0.71003 0.62929 0.0
C615 C 0.85656 0.70805 0.61961 0.0
C616 C 0.85841 0.67349 0.60938 0.0
C617 C 0.82904 0.64173 0.60786 0.0
C618 C 0.83826 0.60779 0.59737 0.0
C619 C 0.82726 0.57763 0.62741 0.0
C620 C 0.82227 0.59246 0.55933 0.0
C621 C 0.87754 0.62499 0.5954 0.0
C622 C 0.88873 0.66297 0.60188 0.0
C623 C 0.92416 0.68435 0.60344 0.0
C624 C 0.94875 0.66632 0.59814 0.0
C625 C 0.9376 0.62746 0.59121 0.0
C626 C 0.90155 0.60677 0.58956 0.0
H627 H 0.33769 0.34044 0.30047 0.0
H628 H 0.34133 0.44396 0.35346 0.0
H629 H 0.36452 0.47834 0.29628 0.0
H630 H 0.41598 0.37635 0.24999 0.0
H631 H 0.39929 0.34824 0.20919 0.0
H632 H 0.38183 0.33176 0.25383 0.0
H633 H 0.31939 0.32397 0.22905 0.0
H634 H 0.33675 0.34077 0.18437 0.0
H635 H 0.31077 0.36328 0.20862 0.0
H636 H 0.39217 0.50191 0.23626 0.0
H637 H 0.42119 0.51315 0.17604 0.0
H638 H 0.39524 0.39423 0.15906 0.0
C639 C 0.3434 0.37033 0.29985 0.0
C640 C 0.33795 0.38975 0.33117 0.0
C641 C 0.34533 0.42875 0.32954 0.0
C642 C 0.3584 0.44843 0.29726 0.0
C643 C 0.36335 0.42852 0.26673 0.0
C644 C 0.35588 0.39034 0.26756 0.0
C645 C 0.36414 0.37589 0.23099 0.0
C646 C 0.39197 0.35696 0.23634 0.0
C647 C 0.33077 0.34941 0.21215 0.0
C648 C 0.3784 0.41207 0.2099 0.0
C649 C 0.37764 0.44205 0.23109 0.0
C650 C 0.3922 0.47863 0.21905 0.0
C651 C 0.40857 0.4848 0.18473 0.0
C652 C 0.40959 0.45459 0.16253 0.0
C653 C 0.39373 0.41774 0.175 0.0
H654 H 0.42393 0.6405 0.80569 0.0
H655 H 0.37509 0.6874 0.88911 0.0
H656 H 0.40122 0.65927 0.93847 0.0
H657 H 0.41894 0.55393 0.85212 0.0
H658 H 0.46185 0.55623 0.83736 0.0
H659 H 0.43607 0.57684 0.80944 0.0
H660 H 0.48776 0.63969 0.81199 0.0
H661 H 0.51289 0.61885 0.84057 0.0
H662 H 0.50485 0.6601 0.85637 0.0
H663 H 0.43266 0.62471 0.97894 0.0
H664 H 0.47189 0.59343 1.00665 0.0
H665 H 0.50386 0.57436 0.89657 0.0
C666 C 0.41838 0.64434 0.83435 0.0
C667 C 0.39701 0.6655 0.84372 0.0
C668 C 0.39118 0.67096 0.88149 0.0
C669 C 0.40581 0.655 0.90965 0.0
C670 C 0.42688 0.63429 0.8996 0.0
C671 C 0.43359 0.62946 0.86282 0.0
C672 C 0.45946 0.60878 0.85945 0.0
C673 C 0.44305 0.57173 0.83835 0.0
C674 C 0.49324 0.63332 0.84101 0.0
C675 C 0.46592 0.6023 0.89994 0.0
C676 C 0.44659 0.61673 0.92276 0.0
C677 C 0.44809 0.61353 0.96128 0.0
C678 C 0.47032 0.59564 0.97681 0.0
C679 C 0.49123 0.58186 0.95386 0.0
C680 C 0.48857 0.58505 0.91495 0.0
H681 H 0.40187 0.3926 0.77114 0.0
H682 H 0.34707 0.28926 0.82661 0.0
H683 H 0.37335 0.31755 0.88678 0.0
H684 H 0.48125 0.41128 0.82226 0.0
H685 H 0.49133 0.46112 0.8233 0.0
H686 H 0.46522 0.43397 0.7858 0.0
H687 H 0.41624 0.46135 0.79977 0.0
H688 H 0.44206 0.48815 0.83773 0.0
H689 H 0.39836 0.45688 0.84558 0.0
H690 H 0.40697 0.35745 0.94101 0.0
H691 H 0.45036 0.40211 0.98273 0.0
H692 H 0.48611 0.47748 0.89067 0.0
C693 C 0.39508 0.37623 0.79612 0.0
C694 C 0.37214 0.33898 0.79454 0.0
C695 C 0.36442 0.31796 0.82749 0.0
C696 C 0.37909 0.33386 0.86172 0.0
C697 C 0.40176 0.37072 0.86243 0.0
C698 C 0.41004 0.39147 0.83037 0.0
C699 C 0.43738 0.42928 0.83805 0.0
C700 C 0.47077 0.43417 0.81606 0.0
C701 C 0.4226 0.46077 0.82977 0.0
C702 C 0.44367 0.4264 0.87926 0.0
C703 C 0.42232 0.3928 0.89307 0.0
C704 C 0.42376 0.38386 0.93045 0.0
C705 C 0.44831 0.40946 0.95402 0.0
C706 C 0.47156 0.44318 0.93993 0.0
C707 C 0.46865 0.45188 0.9022 0.0
H708 H 0.68949 0.34152 0.82138 0.0
H709 H 0.78232 0.37346 0.8924 0.0
H710 H 0.75619 0.40997 0.93198 0.0
H711 H 0.67541 0.42922 0.82486 0.0
H712 H 0.62838 0.40891 0.82487 0.0
H713 H 0.65405 0.38458 0.80295 0.0
H714 H 0.6251 0.32673 0.84368 0.0
H715 H 0.59928 0.35088 0.86562 0.0
H716 H 0.62655 0.3319 0.89338 0.0
H717 H 0.72007 0.44414 0.96293 0.0
H718 H 0.67654 0.4724 0.98317 0.0
H719 H 0.60796 0.41775 0.8913 0.0
C720 C 0.70424 0.35592 0.84541 0.0
C721 C 0.73787 0.35458 0.85406 0.0
C722 C 0.75643 0.3741 0.88551 0.0
C723 C 0.74184 0.39489 0.90807 0.0
C724 C 0.70869 0.39588 0.89867 0.0
C725 C 0.69012 0.37686 0.8681 0.0
C726 C 0.65526 0.38291 0.86363 0.0
C727 C 0.65318 0.40257 0.8269 0.0
C728 C 0.62475 0.3459 0.86678 0.0
C729 C 0.65705 0.40819 0.89649 0.0
C730 C 0.68805 0.41546 0.91637 0.0
C731 C 0.69564 0.43854 0.94764 0.0
C732 C 0.6708 0.45449 0.9589 0.0
C733 C 0.63879 0.4472 0.93895 0.0
C734 C 0.63205 0.42376 0.90734 0.0
H735 H 0.69806 0.68573 0.75481 0.0
H736 H 0.69771 0.58579 0.69685 0.0
H737 H 0.67734 0.54882 0.75337 0.0
H738 H 0.72978 0.66371 0.84217 0.0
H739 H 0.70306 0.68285 0.86955 0.0
H740 H 0.71685 0.70147 0.82438 0.0
H741 H 0.65227 0.68883 0.80397 0.0
H742 H 0.63837 0.67081 0.84927 0.0
H743 H 0.6209 0.64263 0.80872 0.0
H744 H 0.6557 0.52259 0.81556 0.0
H745 H 0.63242 0.50866 0.87867 0.0
H746 H 0.64977 0.62616 0.89713 0.0
C747 C 0.69321 0.65598 0.75395 0.0
C748 C 0.6992 0.63847 0.72151 0.0
C749 C 0.69323 0.59962 0.72152 0.0
C750 C 0.68178 0.57847 0.75346 0.0
C751 C 0.67675 0.59667 0.78523 0.0
C752 C 0.68216 0.63451 0.78574 0.0
C753 C 0.6749 0.64724 0.82354 0.0
C754 C 0.70813 0.67549 0.84093 0.0
C755 C 0.64482 0.66331 0.82123 0.0
C756 C 0.66422 0.61059 0.8441 0.0
C757 C 0.66547 0.58176 0.82149 0.0
C758 C 0.65494 0.54498 0.83365 0.0
C759 C 0.64189 0.53734 0.86954 0.0
C760 C 0.63985 0.56639 0.89291 0.0
C761 C 0.65191 0.60354 0.88022 0.0
H762 H 0.65755 0.71581 0.24003 0.0
H763 H 0.66928 0.62858 0.31111 0.0
H764 H 0.64425 0.58232 0.26204 0.0
H765 H 0.57294 0.65795 0.2006 0.0
H766 H 0.58139 0.67823 0.15519 0.0
H767 H 0.60158 0.70542 0.19548 0.0
H768 H 0.66245 0.71824 0.16654 0.0
H769 H 0.64242 0.69039 0.12652 0.0
H770 H 0.67585 0.67956 0.15294 0.0
H771 H 0.61793 0.54506 0.20765 0.0
H772 H 0.58317 0.51628 0.15257 0.0
H773 H 0.58607 0.62477 0.11356 0.0
C774 C 0.65457 0.68693 0.24529 0.0
C775 C 0.66642 0.67617 0.2793 0.0
C776 C 0.66161 0.63793 0.28506 0.0
C777 C 0.64732 0.6113 0.25731 0.0
C778 C 0.63726 0.62292 0.2238 0.0
C779 C 0.63983 0.65953 0.21772 0.0
C780 C 0.62481 0.66345 0.17952 0.0
C781 C 0.59331 0.67706 0.18291 0.0
C782 C 0.65308 0.68946 0.15493 0.0
C783 C 0.61349 0.62331 0.16538 0.0
C784 C 0.62147 0.60076 0.19152 0.0
C785 C 0.61213 0.56244 0.18659 0.0
C786 C 0.5929 0.54634 0.15479 0.0
C787 C 0.58345 0.56829 0.12777 0.0
C788 C 0.59443 0.60751 0.13281 0.0
H789 H 0.29857 0.6185 0.19997 0.0
H790 H 0.37764 0.7189 0.24281 0.0
H791 H 0.42353 0.70006 0.21416 0.0
H792 H 0.34792 0.55782 0.21338 0.0
H793 H 0.33313 0.53152 0.17119 0.0
H794 H 0.30557 0.55332 0.19354 0.0
H795 H 0.30183 0.58838 0.13294 0.0
H796 H 0.32935 0.56658 0.1104 0.0
H797 H 0.34159 0.61667 0.11134 0.0
H798 H 0.46128 0.66879 0.18645 0.0
H799 H 0.48917 0.62788 0.15687 0.0
H800 H 0.38693 0.54885 0.12773 0.0
C801 C 0.32553 0.63663 0.20286 0.0
C802 C 0.33443 0.67014 0.22359 0.0
C803 C 0.36999 0.69314 0.22701 0.0
C804 C 0.39638 0.68271 0.21083 0.0
C805 C 0.38684 0.64941 0.19094 0.0
C806 C 0.35235 0.62679 0.18647 0.0
C807 C 0.34968 0.59208 0.16415 0.0
C808 C 0.33309 0.5566 0.18694 0.0
C809 C 0.32941 0.59087 0.12753 0.0
C810 C 0.38809 0.5986 0.15742 0.0
C811 C 0.40894 0.63183 0.17336 0.0
C812 C 0.44529 0.64301 0.17329 0.0
C813 C 0.46086 0.61956 0.15657 0.0
C814 C 0.44013 0.58558 0.13974 0.0
C815 C 0.40328 0.57513 0.13974 0.0
H816 H 0.67646 0.4099 0.21712 0.0
H817 H 0.62276 0.29209 0.19615 0.0
H818 H 0.58337 0.30733 0.15112 0.0
H819 H 0.60148 0.43965 0.20977 0.0
H820 H 0.62365 0.48223 0.18567 0.0
H821 H 0.64798 0.46236 0.21637 0.0
H822 H 0.6896 0.46177 0.16293 0.0
H823 H 0.665 0.48134 0.13212 0.0
H824 H 0.67161 0.43826 0.12005 0.0
H825 H 0.54647 0.33417 0.11295 0.0
H826 H 0.51576 0.37189 0.08102 0.0
H827 H 0.59645 0.47297 0.11871 0.0
C828 C 0.6564 0.38745 0.20298 0.0
C829 C 0.65244 0.3497 0.21035 0.0
C830 C 0.62617 0.32112 0.19098 0.0
C831 C 0.60369 0.32949 0.16529 0.0
C832 C 0.60814 0.36674 0.15848 0.0
C833 C 0.63403 0.39539 0.17631 0.0
C834 C 0.63293 0.43301 0.1632 0.0
C835 C 0.62609 0.45563 0.1957 0.0
C836 C 0.66681 0.45489 0.1434 0.0
C837 C 0.60188 0.42085 0.13614 0.0
C838 C 0.58797 0.38243 0.13412 0.0
C839 C 0.55751 0.36429 0.11368 0.0
C840 C 0.54028 0.3859 0.09553 0.0
C841 C 0.55385 0.42529 0.09711 0.0
C842 C 0.58565 0.44296 0.11681 0.0
loop_
_geom_bond_atom_site_label_1
_geom_bond_atom_site_label_2
_geom_bond_distance
_geom_bond_site_symmetry_2
_ccdc_geom_bond_type
H0 C5 0.930 . S
H1 C8 0.930 . S
H2 C10 0.930 . S
H3 C4 1.016 . S
C4 H3 1.016 . S
C4 N11 1.286 . S
C5 H0 0.930 . S
C5 C6 1.397 . S
C5 C7 1.361 . S
C6 C5 1.397 . S
C6 C10 1.390 . S
C7 C5 1.361 . S
C7 C8 1.393 . S
C7 N11 1.413 . S
C8 H1 0.930 . S
C8 C7 1.393 . S
C8 C9 1.399 . S
C9 C8 1.399 . S
C9 C10 1.381 . S
C10 H2 0.930 . S
C10 C6 1.390 . S
C10 C9 1.381 . S
N11 C4 1.286 . S
N11 C7 1.413 . S
H12 C17 0.930 . S
H13 C20 0.930 . S
H14 C22 0.930 . S
H15 C16 1.016 . S
C16 H15 1.016 . S
C16 N23 1.286 . S
C17 H12 0.930 . S
C17 C18 1.397 . S
C17 C19 1.361 . S
C18 C17 1.397 . S
C18 C22 1.390 . S
C19 C17 1.361 . S
C19 C20 1.393 . S
C19 N23 1.413 . S
C20 H13 0.930 . S
C20 C19 1.393 . S
C20 C21 1.399 . S
C21 C20 1.399 . S
C21 C22 1.381 . S
C22 H14 0.930 . S
C22 C18 1.390 . S
C22 C21 1.381 . S
N23 C16 1.286 . S
N23 C19 1.413 . S
H24 C29 0.930 . S
H25 C32 0.930 . S
H26 C34 0.930 . S
H27 C28 1.016 . S
C28 H27 1.016 . S
C28 N35 1.286 . S
C29 H24 0.930 . S
C29 C30 1.397 . S
C29 C31 1.361 . S
C30 C29 1.397 . S
C30 C34 1.390 . S
C31 C29 1.361 . S
C31 C32 1.393 . S
C31 N35 1.413 . S
C32 H25 0.930 . S
C32 C31 1.393 . S
C32 C33 1.399 . S
C33 C32 1.399 . S
C33 C34 1.381 . S
C34 H26 0.930 . S
C34 C30 1.390 . S
C34 C33 1.381 . S
N35 C28 1.286 . S
N35 C31 1.413 . S
H36 C41 0.930 . S
H37 C44 0.930 . S
H38 C46 0.930 . S
H39 C40 1.016 . S
C40 H39 1.016 . S
C40 N47 1.286 . S
C41 H36 0.930 . S
C41 C42 1.397 . S
C41 C43 1.361 . S
C42 C41 1.397 . S
C42 C46 1.390 . S
C43 C41 1.361 . S
C43 C44 1.393 . S
C43 N47 1.413 . S
C44 H37 0.930 . S
C44 C43 1.393 . S
C44 C45 1.399 . S
C45 C44 1.399 . S
C45 C46 1.381 . S
C46 H38 0.930 . S
C46 C42 1.390 . S
C46 C45 1.381 . S
N47 C40 1.286 . S
N47 C43 1.413 . S
H48 C53 0.930 . S
H49 C56 0.930 . S
H50 C58 0.930 . S
H51 C52 1.016 . S
C52 H51 1.016 . S
C52 N59 1.286 . S
C53 H48 0.930 . S
C53 C54 1.397 . S
C53 C55 1.361 . S
C54 C53 1.397 . S
C54 C58 1.390 . S
C55 C53 1.361 . S
C55 C56 1.393 . S
C55 N59 1.413 . S
C56 H49 0.930 . S
C56 C55 1.393 . S
C56 C57 1.399 . S
C57 C56 1.399 . S
C57 C58 1.381 . S
C58 H50 0.930 . S
C58 C54 1.390 . S
C58 C57 1.381 . S
N59 C52 1.286 . S
N59 C55 1.413 . S
H60 C65 0.930 . S
H61 C68 0.930 . S
H62 C70 0.930 . S
H63 C64 1.016 . S
C64 H63 1.016 . S
C64 N71 1.286 . S
C65 H60 0.930 . S
C65 C66 1.397 . S
C65 C67 1.361 . S
C66 C65 1.397 . S
C66 C70 1.390 . S
C67 C65 1.361 . S
C67 C68 1.393 . S
C67 N71 1.413 . S
C68 H61 0.930 . S
C68 C67 1.393 . S
C68 C69 1.399 . S
C69 C68 1.399 . S
C69 C70 1.381 . S
C70 H62 0.930 . S
C70 C66 1.390 . S
C70 C69 1.381 . S
N71 C64 1.286 . S
N71 C67 1.413 . S
H72 C77 0.930 . S
H73 C80 0.930 . S
H74 C82 0.930 . S
H75 C76 1.016 . S
C76 H75 1.016 . S
C76 N83 1.286 . S
C77 H72 0.930 . S
C77 C78 1.397 . S
C77 C79 1.361 . S
C78 C77 1.397 . S
C78 C82 1.390 . S
C79 C77 1.361 . S
C79 C80 1.393 . S
C79 N83 1.413 . S
C80 H73 0.930 . S
C80 C79 1.393 . S
C80 C81 1.399 . S
C81 C80 1.399 . S
C81 C82 1.381 . S
C82 H74 0.930 . S
C82 C78 1.390 . S
C82 C81 1.381 . S
N83 C76 1.286 . S
N83 C79 1.413 . S
H84 C89 0.930 . S
H85 C92 0.930 . S
H86 C94 0.930 . S
H87 C88 1.016 . S
C88 H87 1.016 . S
C88 N95 1.286 . S
C89 H84 0.930 . S
C89 C90 1.397 . S
C89 C91 1.361 . S
C90 C89 1.397 . S
C90 C94 1.390 . S
C91 C89 1.361 . S
C91 C92 1.393 . S
C91 N95 1.413 . S
C92 H85 0.930 . S
C92 C91 1.393 . S
C92 C93 1.399 . S
C93 C92 1.399 . S
C93 C94 1.381 . S
C94 H86 0.930 . S
C94 C90 1.390 . S
C94 C93 1.381 . S
N95 C88 1.286 . S
N95 C91 1.413 . S
Co96 O99 2.042 . S
Co96 O106 2.264 . S
Co96 O125 2.286 . S
Co96 O126 2.069 . S
Co96 O128 2.015 . S
Co97 O99 2.122 . S
Co97 O105 2.073 . S
Co97 O106 2.327 . S
Co97 O107 1.976 . S
Co98 O99 2.087 . S
Co98 O101 2.087 1_455 S
Co98 O108 2.111 . S
Co98 O109 2.143 1_455 S
Co98 O113 2.111 1_455 S
Co98 O127 2.143 . S
O99 Co96 2.042 . S
O99 Co97 2.122 . S
O99 Co98 2.087 . S
O99 H100 0.980 . S
H100 O99 0.980 . S
O101 Co98 2.087 1_655 S
O101 Co102 2.042 . S
O101 Co103 2.122 . S
O101 H104 0.980 1_655 S
Co102 O101 2.042 . S
Co102 O110 2.286 . S
Co102 O111 2.069 . S
Co102 O112 2.015 . S
Co102 O115 2.264 . S
Co103 O101 2.122 . S
Co103 O114 1.976 . S
Co103 O115 2.327 . S
Co103 O116 2.073 . S
H104 O101 0.980 1_455 S
O105 Co97 2.073 . S
O105 C120 1.245 . S
O106 Co96 2.264 . S
O106 Co97 2.327 . S
O106 C120 1.257 . S
O107 Co97 1.976 . S
O107 C119 1.251 . S
O108 Co98 2.111 . S
O108 C119 1.274 . S
O109 Co98 2.143 1_655 S
O109 C122 1.246 . S
O110 Co102 2.286 . S
O110 C121 1.259 . S
O111 Co102 2.069 . S
O111 C121 1.289 . S
O112 Co102 2.015 . S
O112 C122 1.257 . S
O113 Co98 2.111 1_655 S
O113 C123 1.274 . S
O114 Co103 1.976 . S
O114 C123 1.251 . S
O115 Co102 2.264 . S
O115 Co103 2.327 . S
O115 C124 1.257 . S
O116 Co103 2.073 . S
O116 C124 1.245 . S
C117 O125 1.259 . S
C117 O126 1.289 . S
C118 O127 1.246 . S
C118 O128 1.257 . S
C119 O107 1.251 . S
C119 O108 1.274 . S
C120 O105 1.245 . S
C120 O106 1.257 . S
C121 O110 1.259 . S
C121 O111 1.289 . S
C122 O109 1.246 . S
C122 O112 1.257 . S
C123 O113 1.274 . S
C123 O114 1.251 . S
C124 O115 1.257 . S
C124 O116 1.245 . S
O125 Co96 2.286 . S
O125 C117 1.259 . S
O126 Co96 2.069 . S
O126 C117 1.289 . S
O127 Co98 2.143 . S
O127 C118 1.246 . S
O128 Co96 2.015 . S
O128 C118 1.257 . S
Co129 O132 2.042 . S
Co129 O139 2.264 . S
Co129 O158 2.286 . S
Co129 O159 2.069 . S
Co129 O161 2.015 . S
Co130 O132 2.122 . S
Co130 O138 2.073 . S
Co130 O139 2.327 . S
Co130 O140 1.976 . S
Co131 O132 2.087 1_545 S
Co131 O134 2.087 . S
Co131 O141 2.111 1_545 S
Co131 O142 2.143 . S
Co131 O146 2.111 . S
Co131 O160 2.143 1_545 S
O132 Co129 2.042 . S
O132 Co130 2.122 . S
O132 Co131 2.087 1_565 S
O132 H133 0.970 1_565 S
H133 O132 0.970 1_545 S
O134 Co131 2.087 . S
O134 Co135 2.042 . S
O134 Co136 2.122 . S
O134 H137 0.980 . S
Co135 O134 2.042 . S
Co135 O143 2.286 . S
Co135 O144 2.069 . S
Co135 O145 2.015 . S
Co135 O148 2.264 . S
Co136 O134 2.122 . S
Co136 O147 1.976 . S
Co136 O148 2.327 . S
Co136 O149 2.073 . S
H137 O134 0.980 . S
O138 Co130 2.073 . S
O138 C153 1.245 . S
O139 Co129 2.264 . S
O139 Co130 2.327 . S
O139 C153 1.257 . S
O140 Co130 1.976 . S
O140 C152 1.251 . S
O141 Co131 2.111 1_565 S
O141 C152 1.274 . S
O142 Co131 2.143 . S
O142 C155 1.246 . S
O143 Co135 2.286 . S
O143 C154 1.259 . S
O144 Co135 2.069 . S
O144 C154 1.289 . S
O145 Co135 2.015 . S
O145 C155 1.257 . S
O146 Co131 2.111 . S
O146 C156 1.274 . S
O147 Co136 1.976 . S
O147 C156 1.251 . S
O148 Co135 2.264 . S
O148 Co136 2.327 . S
O148 C157 1.257 . S
O149 Co136 2.073 . S
O149 C157 1.245 . S
C150 O158 1.259 . S
C150 O159 1.289 . S
C151 O160 1.246 . S
C151 O161 1.257 . S
C152 O140 1.251 . S
C152 O141 1.274 . S
C153 O138 1.245 . S
C153 O139 1.257 . S
C154 O143 1.259 . S
C154 O144 1.289 . S
C155 O142 1.246 . S
C155 O145 1.257 . S
C156 O146 1.274 . S
C156 O147 1.251 . S
C157 O148 1.257 . S
C157 O149 1.245 . S
O158 Co129 2.286 . S
O158 C150 1.259 . S
O159 Co129 2.069 . S
O159 C150 1.289 . S
O160 Co131 2.143 1_565 S
O160 C151 1.246 . S
O161 Co129 2.015 . S
O161 C151 1.257 . S
Co162 O165 2.042 . S
Co162 O172 2.264 . S
Co162 O191 2.286 . S
Co162 O192 2.069 . S
Co162 O194 2.015 . S
Co163 O165 2.122 . S
Co163 O171 2.073 . S
Co163 O172 2.327 . S
Co163 O173 1.976 . S
Co164 O165 2.087 . S
Co164 O167 2.087 1_554 S
Co164 O174 2.111 . S
Co164 O175 2.143 1_554 S
Co164 O179 2.111 1_554 S
Co164 O193 2.143 . S
O165 Co162 2.042 . S
O165 Co163 2.122 . S
O165 Co164 2.087 . S
O165 H166 0.980 . S
H166 O165 0.980 . S
O167 Co164 2.087 1_556 S
O167 Co168 2.042 . S
O167 Co169 2.122 . S
O167 H170 0.980 . S
Co168 O167 2.042 . S
Co168 O176 2.286 . S
Co168 O177 2.069 . S
Co168 O178 2.015 . S
Co168 O181 2.264 . S
Co169 O167 2.122 . S
Co169 O180 1.976 . S
Co169 O181 2.327 . S
Co169 O182 2.073 . S
H170 O167 0.980 . S
O171 Co163 2.073 . S
O171 C186 1.245 . S
O172 Co162 2.264 . S
O172 Co163 2.327 . S
O172 C186 1.257 . S
O173 Co163 1.976 . S
O173 C185 1.251 . S
O174 Co164 2.111 . S
O174 C185 1.274 . S
O175 Co164 2.143 1_556 S
O175 C188 1.246 . S
O176 Co168 2.286 . S
O176 C187 1.259 . S
O177 Co168 2.069 . S
O177 C187 1.289 . S
O178 Co168 2.015 . S
O178 C188 1.257 . S
O179 Co164 2.111 1_556 S
O179 C189 1.274 . S
O180 Co169 1.976 . S
O180 C189 1.251 . S
O181 Co168 2.264 . S
O181 Co169 2.327 . S
O181 C190 1.257 . S
O182 Co169 2.073 . S
O182 C190 1.245 . S
C183 O191 1.259 . S
C183 O192 1.289 . S
C184 O193 1.246 . S
C184 O194 1.257 . S
C185 O173 1.251 . S
C185 O174 1.274 . S
C186 O171 1.245 . S
C186 O172 1.257 . S
C187 O176 1.259 . S
C187 O177 1.289 . S
C188 O175 1.246 . S
C188 O178 1.257 . S
C189 O179 1.274 . S
C189 O180 1.251 . S
C190 O181 1.257 . S
C190 O182 1.245 . S
O191 Co162 2.286 . S
O191 C183 1.259 . S
O192 Co162 2.069 . S
O192 C183 1.289 . S
O193 Co164 2.143 . S
O193 C184 1.246 . S
O194 Co162 2.015 . S
O194 C184 1.257 . S
H195 C207 0.930 . S
H196 C209 0.930 . S
H197 C210 0.930 . S
H198 C214 0.959 . S
H199 C214 0.959 . S
H200 C214 0.961 . S
H201 C215 0.960 . S
H202 C215 0.961 . S
H203 C215 0.959 . S
H204 C218 0.929 . S
H205 C219 0.931 . S
H206 C221 0.930 . S
C207 H195 0.930 . S
C207 C208 1.399 . S
C207 C212 1.399 . S
C208 C207 1.399 . S
C208 C209 1.376 . S
C209 H196 0.930 . S
C209 C208 1.376 . S
C209 C210 1.388 . S
C210 H197 0.930 . S
C210 C209 1.388 . S
C210 C211 1.390 . S
C211 C210 1.390 . S
C211 C212 1.394 . S
C211 C217 1.465 . S
C212 C207 1.399 . S
C212 C211 1.394 . S
C212 C213 1.516 . S
C213 C212 1.516 . S
C213 C214 1.502 . S
C213 C215 1.561 . S
C213 C216 1.526 . S
C214 H198 0.959 . S
C214 H199 0.959 . S
C214 H200 0.961 . S
C214 C213 1.502 . S
C215 H201 0.960 . S
C215 H202 0.961 . S
C215 H203 0.959 . S
C215 C213 1.561 . S
C216 C213 1.526 . S
C216 C217 1.396 . S
C216 C221 1.390 . S
C217 C211 1.465 . S
C217 C216 1.396 . S
C217 C218 1.399 . S
C218 H204 0.929 . S
C218 C217 1.399 . S
C218 C219 1.385 . S
C219 H205 0.931 . S
C219 C218 1.385 . S
C219 C220 1.389 . S
C220 C219 1.389 . S
C220 C221 1.387 . S
C221 H206 0.930 . S
C221 C216 1.390 . S
C221 C220 1.387 . S
H222 C234 0.930 . S
H223 C236 0.930 . S
H224 C237 0.930 . S
H225 C241 0.959 . S
H226 C241 0.959 . S
H227 C241 0.961 . S
H228 C242 0.960 . S
H229 C242 0.961 . S
H230 C242 0.959 . S
H231 C245 0.929 . S
H232 C246 0.931 . S
H233 C248 0.930 . S
C234 H222 0.930 . S
C234 C235 1.399 . S
C234 C239 1.399 . S
C235 C234 1.399 . S
C235 C236 1.376 . S
C236 H223 0.930 . S
C236 C235 1.376 . S
C236 C237 1.388 . S
C237 H224 0.930 . S
C237 C236 1.388 . S
C237 C238 1.390 . S
C238 C237 1.390 . S
C238 C239 1.394 . S
C238 C244 1.465 . S
C239 C234 1.399 . S
C239 C238 1.394 . S
C239 C240 1.516 . S
C240 C239 1.516 . S
C240 C241 1.502 . S
C240 C242 1.561 . S
C240 C243 1.526 . S
C241 H225 0.959 . S
C241 H226 0.959 . S
C241 H227 0.961 . S
C241 C240 1.502 . S
C242 H228 0.960 . S
C242 H229 0.961 . S
C242 H230 0.959 . S
C242 C240 1.561 . S
C243 C240 1.526 . S
C243 C244 1.396 . S
C243 C248 1.390 . S
C244 C238 1.465 . S
C244 C243 1.396 . S
C244 C245 1.399 . S
C245 H231 0.929 . S
C245 C244 1.399 . S
C245 C246 1.385 . S
C246 H232 0.931 . S
C246 C245 1.385 . S
C246 C247 1.389 . S
C247 C246 1.389 . S
C247 C248 1.387 . S
C248 H233 0.930 . S
C248 C243 1.390 . S
C248 C247 1.387 . S
H249 C261 0.930 . S
H250 C263 0.930 . S
H251 C264 0.930 . S
H252 C268 0.959 . S
H253 C268 0.959 . S
H254 C268 0.961 . S
H255 C269 0.960 . S
H256 C269 0.961 . S
H257 C269 0.959 . S
H258 C272 0.929 . S
H259 C273 0.931 . S
H260 C275 0.930 . S
C261 H249 0.930 . S
C261 C262 1.399 . S
C261 C266 1.399 . S
C262 C261 1.399 . S
C262 C263 1.376 . S
C263 H250 0.930 . S
C263 C262 1.376 . S
C263 C264 1.388 . S
C264 H251 0.930 . S
C264 C263 1.388 . S
C264 C265 1.390 . S
C265 C264 1.390 . S
C265 C266 1.394 . S
C265 C271 1.465 . S
C266 C261 1.399 . S
C266 C265 1.394 . S
C266 C267 1.516 . S
C267 C266 1.516 . S
C267 C268 1.502 . S
C267 C269 1.561 . S
C267 C270 1.526 . S
C268 H252 0.959 . S
C268 H253 0.959 . S
C268 H254 0.961 . S
C268 C267 1.502 . S
C269 H255 0.960 . S
C269 H256 0.961 . S
C269 H257 0.959 . S
C269 C267 1.561 . S
C270 C267 1.526 . S
C270 C271 1.396 . S
C270 C275 1.390 . S
C271 C265 1.465 . S
C271 C270 1.396 . S
C271 C272 1.399 . S
C272 H258 0.929 . S
C272 C271 1.399 . S
C272 C273 1.385 . S
C273 H259 0.931 . S
C273 C272 1.385 . S
C273 C274 1.389 . S
C274 C273 1.389 . S
C274 C275 1.387 . S
C275 H260 0.930 . S
C275 C270 1.390 . S
C275 C274 1.387 . S
H276 C288 0.930 . S
H277 C290 0.930 . S
H278 C291 0.930 . S
H279 C295 0.959 . S
H280 C295 0.959 . S
H281 C295 0.961 . S
H282 C296 0.960 . S
H283 C296 0.961 . S
H284 C296 0.959 . S
H285 C299 0.929 . S
H286 C300 0.931 . S
H287 C302 0.930 . S
C288 H276 0.930 . S
C288 C289 1.399 . S
C288 C293 1.399 . S
C289 C288 1.399 . S
C289 C290 1.376 . S
C290 H277 0.930 . S
C290 C289 1.376 . S
C290 C291 1.388 . S
C291 H278 0.930 . S
C291 C290 1.388 . S
C291 C292 1.390 . S
C292 C291 1.390 . S
C292 C293 1.394 . S
C292 C298 1.465 . S
C293 C288 1.399 . S
C293 C292 1.394 . S
C293 C294 1.516 . S
C294 C293 1.516 . S
C294 C295 1.502 . S
C294 C296 1.561 . S
C294 C297 1.526 . S
C295 H279 0.959 . S
C295 H280 0.959 . S
C295 H281 0.961 . S
C295 C294 1.502 . S
C296 H282 0.960 . S
C296 H283 0.961 . S
C296 H284 0.959 . S
C296 C294 1.561 . S
C297 C294 1.526 . S
C297 C298 1.396 . S
C297 C302 1.390 . S
C298 C292 1.465 . S
C298 C297 1.396 . S
C298 C299 1.399 . S
C299 H285 0.929 . S
C299 C298 1.399 . S
C299 C300 1.385 . S
C300 H286 0.931 . S
C300 C299 1.385 . S
C300 C301 1.389 . S
C301 C300 1.389 . S
C301 C302 1.387 . S
C302 H287 0.930 . S
C302 C297 1.390 . S
C302 C301 1.387 . S
H303 C315 0.930 . S
H304 C317 0.930 . S
H305 C318 0.930 . S
H306 C322 0.959 . S
H307 C322 0.959 . S
H308 C322 0.961 . S
H309 C323 0.960 . S
H310 C323 0.961 . S
H311 C323 0.959 . S
H312 C326 0.929 . S
H313 C327 0.931 . S
H314 C329 0.930 . S
C315 H303 0.930 . S
C315 C316 1.399 . S
C315 C320 1.399 . S
C316 C315 1.399 . S
C316 C317 1.376 . S
C317 H304 0.930 . S
C317 C316 1.376 . S
C317 C318 1.388 . S
C318 H305 0.930 . S
C318 C317 1.388 . S
C318 C319 1.390 . S
C319 C318 1.390 . S
C319 C320 1.394 . S
C319 C325 1.465 . S
C320 C315 1.399 . S
C320 C319 1.394 . S
C320 C321 1.516 . S
C321 C320 1.516 . S
C321 C322 1.502 . S
C321 C323 1.561 . S
C321 C324 1.526 . S
C322 H306 0.959 . S
C322 H307 0.959 . S
C322 H308 0.961 . S
C322 C321 1.502 . S
C323 H309 0.960 . S
C323 H310 0.961 . S
C323 H311 0.959 . S
C323 C321 1.561 . S
C324 C321 1.526 . S
C324 C325 1.396 . S
C324 C329 1.390 . S
C325 C319 1.465 . S
C325 C324 1.396 . S
C325 C326 1.399 . S
C326 H312 0.929 . S
C326 C325 1.399 . S
C326 C327 1.385 . S
C327 H313 0.931 . S
C327 C326 1.385 . S
C327 C328 1.389 . S
C328 C327 1.389 . S
C328 C329 1.387 . S
C329 H314 0.930 . S
C329 C324 1.390 . S
C329 C328 1.387 . S
H330 C342 0.930 . S
H331 C344 0.930 . S
H332 C345 0.930 . S
H333 C349 0.959 . S
H334 C349 0.959 . S
H335 C349 0.961 . S
H336 C350 0.960 . S
H337 C350 0.961 . S
H338 C350 0.959 . S
H339 C353 0.929 . S
H340 C354 0.931 . S
H341 C356 0.930 . S
C342 H330 0.930 . S
C342 C343 1.399 . S
C342 C347 1.399 . S
C343 C342 1.399 . S
C343 C344 1.376 . S
C344 H331 0.930 . S
C344 C343 1.376 . S
C344 C345 1.388 . S
C345 H332 0.930 . S
C345 C344 1.388 . S
C345 C346 1.390 . S
C346 C345 1.390 . S
C346 C347 1.394 . S
C346 C352 1.465 . S
C347 C342 1.399 . S
C347 C346 1.394 . S
C347 C348 1.516 . S
C348 C347 1.516 . S
C348 C349 1.502 . S
C348 C350 1.561 . S
C348 C351 1.526 . S
C349 H333 0.959 . S
C349 H334 0.959 . S
C349 H335 0.961 . S
C349 C348 1.502 . S
C350 H336 0.960 . S
C350 H337 0.961 . S
C350 H338 0.959 . S
C350 C348 1.561 . S
C351 C348 1.526 . S
C351 C352 1.396 . S
C351 C356 1.390 . S
C352 C346 1.465 . S
C352 C351 1.396 . S
C352 C353 1.399 . S
C353 H339 0.929 . S
C353 C352 1.399 . S
C353 C354 1.385 . S
C354 H340 0.931 . S
C354 C353 1.385 . S
C354 C355 1.389 . S
C355 C354 1.389 . S
C355 C356 1.387 . S
C356 H341 0.930 . S
C356 C351 1.390 . S
C356 C355 1.387 . S
H357 C369 0.930 . S
H358 C371 0.930 . S
H359 C372 0.930 . S
H360 C376 0.959 . S
H361 C376 0.959 . S
H362 C376 0.961 . S
H363 C377 0.960 . S
H364 C377 0.961 . S
H365 C377 0.959 . S
H366 C380 0.929 . S
H367 C381 0.931 . S
H368 C383 0.930 . S
C369 H357 0.930 . S
C369 C370 1.399 . S
C369 C374 1.399 . S
C370 C369 1.399 . S
C370 C371 1.376 . S
C371 H358 0.930 . S
C371 C370 1.376 . S
C371 C372 1.388 . S
C372 H359 0.930 . S
C372 C371 1.388 . S
C372 C373 1.390 . S
C373 C372 1.390 . S
C373 C374 1.394 . S
C373 C379 1.465 . S
C374 C369 1.399 . S
C374 C373 1.394 . S
C374 C375 1.516 . S
C375 C374 1.516 . S
C375 C376 1.502 . S
C375 C377 1.561 . S
C375 C378 1.526 . S
C376 H360 0.959 . S
C376 H361 0.959 . S
C376 H362 0.961 . S
C376 C375 1.502 . S
C377 H363 0.960 . S
C377 H364 0.961 . S
C377 H365 0.959 . S
C377 C375 1.561 . S
C378 C375 1.526 . S
C378 C379 1.396 . S
C378 C383 1.390 . S
C379 C373 1.465 . S
C379 C378 1.396 . S
C379 C380 1.399 . S
C380 H366 0.929 . S
C380 C379 1.399 . S
C380 C381 1.385 . S
C381 H367 0.931 . S
C381 C380 1.385 . S
C381 C382 1.389 . S
C382 C381 1.389 . S
C382 C383 1.387 . S
C383 H368 0.930 . S
C383 C378 1.390 . S
C383 C382 1.387 . S
H384 C396 0.930 . S
H385 C398 0.930 . S
H386 C399 0.930 . S
H387 C403 0.959 . S
H388 C403 0.959 . S
H389 C403 0.961 . S
H390 C404 0.960 . S
H391 C404 0.961 . S
H392 C404 0.959 . S
H393 C407 0.929 . S
H394 C408 0.931 . S
H395 C410 0.930 . S
C396 H384 0.930 . S
C396 C397 1.399 . S
C396 C401 1.399 . S
C397 C396 1.399 . S
C397 C398 1.376 . S
C398 H385 0.930 . S
C398 C397 1.376 . S
C398 C399 1.388 . S
C399 H386 0.930 . S
C399 C398 1.388 . S
C399 C400 1.390 . S
C400 C399 1.390 . S
C400 C401 1.394 . S
C400 C406 1.465 . S
C401 C396 1.399 . S
C401 C400 1.394 . S
C401 C402 1.516 . S
C402 C401 1.516 . S
C402 C403 1.502 . S
C402 C404 1.561 . S
C402 C405 1.526 . S
C403 H387 0.959 . S
C403 H388 0.959 . S
C403 H389 0.961 . S
C403 C402 1.502 . S
C404 H390 0.960 . S
C404 H391 0.961 . S
C404 H392 0.959 . S
C404 C402 1.561 . S
C405 C402 1.526 . S
C405 C406 1.396 . S
C405 C410 1.390 . S
C406 C400 1.465 . S
C406 C405 1.396 . S
C406 C407 1.399 . S
C407 H393 0.929 . S
C407 C406 1.399 . S
C407 C408 1.385 . S
C408 H394 0.931 . S
C408 C407 1.385 . S
C408 C409 1.389 . S
C409 C408 1.389 . S
C409 C410 1.387 . S
C410 H395 0.930 . S
C410 C405 1.390 . S
C410 C409 1.387 . S
H411 C423 0.930 . S
H412 C425 0.930 . S
H413 C426 0.930 . S
H414 C430 0.959 . S
H415 C430 0.959 . S
H416 C430 0.961 . S
H417 C431 0.960 . S
H418 C431 0.961 . S
H419 C431 0.959 . S
H420 C434 0.929 . S
H421 C435 0.931 . S
H422 C437 0.930 . S
C423 H411 0.930 . S
C423 C424 1.399 . S
C423 C428 1.399 . S
C424 C423 1.399 . S
C424 C425 1.376 . S
C425 H412 0.930 . S
C425 C424 1.376 . S
C425 C426 1.388 . S
C426 H413 0.930 . S
C426 C425 1.388 . S
C426 C427 1.390 . S
C427 C426 1.390 . S
C427 C428 1.394 . S
C427 C433 1.465 . S
C428 C423 1.399 . S
C428 C427 1.394 . S
C428 C429 1.516 . S
C429 C428 1.516 . S
C429 C430 1.502 . S
C429 C431 1.561 . S
C429 C432 1.526 . S
C430 H414 0.959 . S
C430 H415 0.959 . S
C430 H416 0.961 . S
C430 C429 1.502 . S
C431 H417 0.960 . S
C431 H418 0.961 . S
C431 H419 0.959 . S
C431 C429 1.561 . S
C432 C429 1.526 . S
C432 C433 1.396 . S
C432 C437 1.390 . S
C433 C427 1.465 . S
C433 C432 1.396 . S
C433 C434 1.399 . S
C434 H420 0.929 . S
C434 C433 1.399 . S
C434 C435 1.385 . S
C435 H421 0.931 . S
C435 C434 1.385 . S
C435 C436 1.389 . S
C436 C435 1.389 . S
C436 C437 1.387 . S
C437 H422 0.930 . S
C437 C432 1.390 . S
C437 C436 1.387 . S
H438 C450 0.930 . S
H439 C452 0.930 . S
H440 C453 0.930 . S
H441 C457 0.959 . S
H442 C457 0.959 . S
H443 C457 0.961 . S
H444 C458 0.960 . S
H445 C458 0.961 . S
H446 C458 0.959 . S
H447 C461 0.929 . S
H448 C462 0.931 . S
H449 C464 0.930 . S
C450 H438 0.930 . S
C450 C451 1.399 . S
C450 C455 1.399 . S
C451 C450 1.399 . S
C451 C452 1.376 . S
C452 H439 0.930 . S
C452 C451 1.376 . S
C452 C453 1.388 . S
C453 H440 0.930 . S
C453 C452 1.388 . S
C453 C454 1.390 . S
C454 C453 1.390 . S
C454 C455 1.394 . S
C454 C460 1.465 . S
C455 C450 1.399 . S
C455 C454 1.394 . S
C455 C456 1.516 . S
C456 C455 1.516 . S
C456 C457 1.502 . S
C456 C458 1.561 . S
C456 C459 1.526 . S
C457 H441 0.959 . S
C457 H442 0.959 . S
C457 H443 0.961 . S
C457 C456 1.502 . S
C458 H444 0.960 . S
C458 H445 0.961 . S
C458 H446 0.959 . S
C458 C456 1.561 . S
C459 C456 1.526 . S
C459 C460 1.396 . S
C459 C464 1.390 . S
C460 C454 1.465 . S
C460 C459 1.396 . S
C460 C461 1.399 . S
C461 H447 0.929 . S
C461 C460 1.399 . S
C461 C462 1.385 . S
C462 H448 0.931 . S
C462 C461 1.385 . S
C462 C463 1.389 . S
C463 C462 1.389 . S
C463 C464 1.387 . S
C464 H449 0.930 . S
C464 C459 1.390 . S
C464 C463 1.387 . S
H465 C477 0.930 . S
H466 C479 0.930 . S
H467 C480 0.930 . S
H468 C484 0.959 . S
H469 C484 0.959 . S
H470 C484 0.961 . S
H471 C485 0.960 . S
H472 C485 0.961 . S
H473 C485 0.959 . S
H474 C488 0.929 . S
H475 C489 0.931 . S
H476 C491 0.930 . S
C477 H465 0.930 . S
C477 C478 1.399 . S
C477 C482 1.399 . S
C478 C477 1.399 . S
C478 C479 1.376 . S
C479 H466 0.930 . S
C479 C478 1.376 . S
C479 C480 1.388 . S
C480 H467 0.930 . S
C480 C479 1.388 . S
C480 C481 1.390 . S
C481 C480 1.390 . S
C481 C482 1.394 . S
C481 C487 1.465 . S
C482 C477 1.399 . S
C482 C481 1.394 . S
C482 C483 1.516 . S
C483 C482 1.516 . S
C483 C484 1.502 . S
C483 C485 1.561 . S
C483 C486 1.526 . S
C484 H468 0.959 . S
C484 H469 0.959 . S
C484 H470 0.961 . S
C484 C483 1.502 . S
C485 H471 0.960 . S
C485 H472 0.961 . S
C485 H473 0.959 . S
C485 C483 1.561 . S
C486 C483 1.526 . S
C486 C487 1.396 . S
C486 C491 1.390 . S
C487 C481 1.465 . S
C487 C486 1.396 . S
C487 C488 1.399 . S
C488 H474 0.929 . S
C488 C487 1.399 . S
C488 C489 1.385 . S
C489 H475 0.931 . S
C489 C488 1.385 . S
C489 C490 1.389 . S
C490 C489 1.389 . S
C490 C491 1.387 . S
C491 H476 0.930 . S
C491 C486 1.390 . S
C491 C490 1.387 . S
H492 C504 0.930 . S
H493 C506 0.930 . S
H494 C507 0.930 . S
H495 C511 0.959 . S
H496 C511 0.959 . S
H497 C511 0.961 . S
H498 C512 0.960 . S
H499 C512 0.961 . S
H500 C512 0.959 . S
H501 C515 0.929 . S
H502 C516 0.931 . S
H503 C518 0.930 . S
C504 H492 0.930 . S
C504 C505 1.399 . S
C504 C509 1.399 . S
C505 C504 1.399 . S
C505 C506 1.376 . S
C506 H493 0.930 . S
C506 C505 1.376 . S
C506 C507 1.388 . S
C507 H494 0.930 . S
C507 C506 1.388 . S
C507 C508 1.390 . S
C508 C507 1.390 . S
C508 C509 1.394 . S
C508 C514 1.465 . S
C509 C504 1.399 . S
C509 C508 1.394 . S
C509 C510 1.516 . S
C510 C509 1.516 . S
C510 C511 1.502 . S
C510 C512 1.561 . S
C510 C513 1.526 . S
C511 H495 0.959 . S
C511 H496 0.959 . S
C511 H497 0.961 . S
C511 C510 1.502 . S
C512 H498 0.960 . S
C512 H499 0.961 . S
C512 H500 0.959 . S
C512 C510 1.561 . S
C513 C510 1.526 . S
C513 C514 1.396 . S
C513 C518 1.390 . S
C514 C508 1.465 . S
C514 C513 1.396 . S
C514 C515 1.399 . S
C515 H501 0.929 . S
C515 C514 1.399 . S
C515 C516 1.385 . S
C516 H502 0.931 . S
C516 C515 1.385 . S
C516 C517 1.389 . S
C517 C516 1.389 . S
C517 C518 1.387 . S
C518 H503 0.930 . S
C518 C513 1.390 . S
C518 C517 1.387 . S
H519 C531 0.930 . S
H520 C533 0.930 . S
H521 C534 0.930 . S
H522 C538 0.959 . S
H523 C538 0.959 . S
H524 C538 0.961 . S
H525 C539 0.960 . S
H526 C539 0.961 . S
H527 C539 0.959 . S
H528 C542 0.929 . S
H529 C543 0.931 . S
H530 C545 0.930 . S
C531 H519 0.930 . S
C531 C532 1.399 . S
C531 C536 1.399 . S
C532 C531 1.399 . S
C532 C533 1.376 . S
C533 H520 0.930 . S
C533 C532 1.376 . S
C533 C534 1.388 . S
C534 H521 0.930 . S
C534 C533 1.388 . S
C534 C535 1.390 . S
C535 C534 1.390 . S
C535 C536 1.394 . S
C535 C541 1.465 . S
C536 C531 1.399 . S
C536 C535 1.394 . S
C536 C537 1.516 . S
C537 C536 1.516 . S
C537 C538 1.502 . S
C537 C539 1.561 . S
C537 C540 1.526 . S
C538 H522 0.959 . S
C538 H523 0.959 . S
C538 H524 0.961 . S
C538 C537 1.502 . S
C539 H525 0.960 . S
C539 H526 0.961 . S
C539 H527 0.959 . S
C539 C537 1.561 . S
C540 C537 1.526 . S
C540 C541 1.396 . S
C540 C545 1.390 . S
C541 C535 1.465 . S
C541 C540 1.396 . S
C541 C542 1.399 . S
C542 H528 0.929 . S
C542 C541 1.399 . S
C542 C543 1.385 . S
C543 H529 0.931 . S
C543 C542 1.385 . S
C543 C544 1.389 . S
C544 C543 1.389 . S
C544 C545 1.387 . S
C545 H530 0.930 . S
C545 C540 1.390 . S
C545 C544 1.387 . S
H546 C558 0.930 . S
H547 C560 0.930 . S
H548 C561 0.930 . S
H549 C565 0.959 . S
H550 C565 0.959 . S
H551 C565 0.961 . S
H552 C566 0.960 . S
H553 C566 0.961 . S
H554 C566 0.959 . S
H555 C569 0.929 . S
H556 C570 0.931 . S
H557 C572 0.930 . S
C558 H546 0.930 . S
C558 C559 1.399 . S
C558 C563 1.399 . S
C559 C558 1.399 . S
C559 C560 1.376 . S
C560 H547 0.930 . S
C560 C559 1.376 . S
C560 C561 1.388 . S
C561 H548 0.930 . S
C561 C560 1.388 . S
C561 C562 1.390 . S
C562 C561 1.390 . S
C562 C563 1.394 . S
C562 C568 1.465 . S
C563 C558 1.399 . S
C563 C562 1.394 . S
C563 C564 1.516 . S
C564 C563 1.516 . S
C564 C565 1.502 . S
C564 C566 1.561 . S
C564 C567 1.526 . S
C565 H549 0.959 . S
C565 H550 0.959 . S
C565 H551 0.961 . S
C565 C564 1.502 . S
C566 H552 0.960 . S
C566 H553 0.961 . S
C566 H554 0.959 . S
C566 C564 1.561 . S
C567 C564 1.526 . S
C567 C568 1.396 . S
C567 C572 1.390 . S
C568 C562 1.465 . S
C568 C567 1.396 . S
C568 C569 1.399 . S
C569 H555 0.929 . S
C569 C568 1.399 . S
C569 C570 1.385 . S
C570 H556 0.931 . S
C570 C569 1.385 . S
C570 C571 1.389 . S
C571 C570 1.389 . S
C571 C572 1.387 . S
C572 H557 0.930 . S
C572 C567 1.390 . S
C572 C571 1.387 . S
H573 C585 0.930 . S
H574 C587 0.930 . S
H575 C588 0.930 . S
H576 C592 0.959 . S
H577 C592 0.959 . S
H578 C592 0.961 . S
H579 C593 0.960 . S
H580 C593 0.961 . S
H581 C593 0.959 . S
H582 C596 0.929 . S
H583 C597 0.931 . S
H584 C599 0.930 . S
C585 H573 0.930 . S
C585 C586 1.399 . S
C585 C590 1.399 . S
C586 C585 1.399 . S
C586 C587 1.376 . S
C587 H574 0.930 . S
C587 C586 1.376 . S
C587 C588 1.388 . S
C588 H575 0.930 . S
C588 C587 1.388 . S
C588 C589 1.390 . S
C589 C588 1.390 . S
C589 C590 1.394 . S
C589 C595 1.465 . S
C590 C585 1.399 . S
C590 C589 1.394 . S
C590 C591 1.516 . S
C591 C590 1.516 . S
C591 C592 1.502 . S
C591 C593 1.561 . S
C591 C594 1.526 . S
C592 H576 0.959 . S
C592 H577 0.959 . S
C592 H578 0.961 . S
C592 C591 1.502 . S
C593 H579 0.960 . S
C593 H580 0.961 . S
C593 H581 0.959 . S
C593 C591 1.561 . S
C594 C591 1.526 . S
C594 C595 1.396 . S
C594 C599 1.390 . S
C595 C589 1.465 . S
C595 C594 1.396 . S
C595 C596 1.399 . S
C596 H582 0.929 . S
C596 C595 1.399 . S
C596 C597 1.385 . S
C597 H583 0.931 . S
C597 C596 1.385 . S
C597 C598 1.389 . S
C598 C597 1.389 . S
C598 C599 1.387 . S
C599 H584 0.930 . S
C599 C594 1.390 . S
C599 C598 1.387 . S
H600 C612 0.930 . S
H601 C614 0.930 . S
H602 C615 0.930 . S
H603 C619 0.959 . S
H604 C619 0.959 . S
H605 C619 0.961 . S
H606 C620 0.960 . S
H607 C620 0.961 . S
H608 C620 0.959 . S
H609 C623 0.929 . S
H610 C624 0.931 . S
H611 C626 0.930 . S
C612 H600 0.930 . S
C612 C613 1.399 . S
C612 C617 1.399 . S
C613 C612 1.399 . S
C613 C614 1.376 . S
C614 H601 0.930 . S
C614 C613 1.376 . S
C614 C615 1.388 . S
C615 H602 0.930 . S
C615 C614 1.388 . S
C615 C616 1.390 . S
C616 C615 1.390 . S
C616 C617 1.394 . S
C616 C622 1.465 . S
C617 C612 1.399 . S
C617 C616 1.394 . S
C617 C618 1.516 . S
C618 C617 1.516 . S
C618 C619 1.502 . S
C618 C620 1.561 . S
C618 C621 1.526 . S
C619 H603 0.959 . S
C619 H604 0.959 . S
C619 H605 0.961 . S
C619 C618 1.502 . S
C620 H606 0.960 . S
C620 H607 0.961 . S
C620 H608 0.959 . S
C620 C618 1.561 . S
C621 C618 1.526 . S
C621 C622 1.396 . S
C621 C626 1.390 . S
C622 C616 1.465 . S
C622 C621 1.396 . S
C622 C623 1.399 . S
C623 H609 0.929 . S
C623 C622 1.399 . S
C623 C624 1.385 . S
C624 H610 0.931 . S
C624 C623 1.385 . S
C624 C625 1.389 . S
C625 C624 1.389 . S
C625 C626 1.387 . S
C626 H611 0.930 . S
C626 C621 1.390 . S
C626 C625 1.387 . S
H627 C639 0.930 . S
H628 C641 0.930 . S
H629 C642 0.930 . S
H630 C646 0.959 . S
H631 C646 0.959 . S
H632 C646 0.961 . S
H633 C647 0.960 . S
H634 C647 0.961 . S
H635 C647 0.959 . S
H636 C650 0.929 . S
H637 C651 0.931 . S
H638 C653 0.930 . S
C639 H627 0.930 . S
C639 C640 1.399 . S
C639 C644 1.399 . S
C640 C639 1.399 . S
C640 C641 1.376 . S
C641 H628 0.930 . S
C641 C640 1.376 . S
C641 C642 1.388 . S
C642 H629 0.930 . S
C642 C641 1.388 . S
C642 C643 1.390 . S
C643 C642 1.390 . S
C643 C644 1.394 . S
C643 C649 1.465 . S
C644 C639 1.399 . S
C644 C643 1.394 . S
C644 C645 1.516 . S
C645 C644 1.516 . S
C645 C646 1.502 . S
C645 C647 1.561 . S
C645 C648 1.526 . S
C646 H630 0.959 . S
C646 H631 0.959 . S
C646 H632 0.961 . S
C646 C645 1.502 . S
C647 H633 0.960 . S
C647 H634 0.961 . S
C647 H635 0.959 . S
C647 C645 1.561 . S
C648 C645 1.526 . S
C648 C649 1.396 . S
C648 C653 1.390 . S
C649 C643 1.465 . S
C649 C648 1.396 . S
C649 C650 1.399 . S
C650 H636 0.929 . S
C650 C649 1.399 . S
C650 C651 1.385 . S
C651 H637 0.931 . S
C651 C650 1.385 . S
C651 C652 1.389 . S
C652 C651 1.389 . S
C652 C653 1.387 . S
C653 H638 0.930 . S
C653 C648 1.390 . S
C653 C652 1.387 . S
H654 C666 0.930 . S
H655 C668 0.930 . S
H656 C669 0.930 . S
H657 C673 0.959 . S
H658 C673 0.959 . S
H659 C673 0.961 . S
H660 C674 0.960 . S
H661 C674 0.961 . S
H662 C674 0.959 . S
H663 C677 0.929 . S
H664 C678 0.931 . S
H665 C680 0.930 . S
C666 H654 0.930 . S
C666 C667 1.399 . S
C666 C671 1.399 . S
C667 C666 1.399 . S
C667 C668 1.376 . S
C668 H655 0.930 . S
C668 C667 1.376 . S
C668 C669 1.388 . S
C669 H656 0.930 . S
C669 C668 1.388 . S
C669 C670 1.390 . S
C670 C669 1.390 . S
C670 C671 1.394 . S
C670 C676 1.465 . S
C671 C666 1.399 . S
C671 C670 1.394 . S
C671 C672 1.516 . S
C672 C671 1.516 . S
C672 C673 1.502 . S
C672 C674 1.561 . S
C672 C675 1.526 . S
C673 H657 0.959 . S
C673 H658 0.959 . S
C673 H659 0.961 . S
C673 C672 1.502 . S
C674 H660 0.960 . S
C674 H661 0.961 . S
C674 H662 0.959 . S
C674 C672 1.561 . S
C675 C672 1.526 . S
C675 C676 1.396 . S
C675 C680 1.390 . S
C676 C670 1.465 . S
C676 C675 1.396 . S
C676 C677 1.399 . S
C677 H663 0.929 . S
C677 C676 1.399 . S
C677 C678 1.385 . S
C678 H664 0.931 . S
C678 C677 1.385 . S
C678 C679 1.389 . S
C679 C678 1.389 . S
C679 C680 1.387 . S
C680 H665 0.930 . S
C680 C675 1.390 . S
C680 C679 1.387 . S
H681 C693 0.930 . S
H682 C695 0.930 . S
H683 C696 0.930 . S
H684 C700 0.959 . S
H685 C700 0.959 . S
H686 C700 0.961 . S
H687 C701 0.960 . S
H688 C701 0.961 . S
H689 C701 0.959 . S
H690 C704 0.929 . S
H691 C705 0.931 . S
H692 C707 0.930 . S
C693 H681 0.930 . S
C693 C694 1.399 . S
C693 C698 1.399 . S
C694 C693 1.399 . S
C694 C695 1.376 . S
C695 H682 0.930 . S
C695 C694 1.376 . S
C695 C696 1.388 . S
C696 H683 0.930 . S
C696 C695 1.388 . S
C696 C697 1.390 . S
C697 C696 1.390 . S
C697 C698 1.394 . S
C697 C703 1.465 . S
C698 C693 1.399 . S
C698 C697 1.394 . S
C698 C699 1.516 . S
C699 C698 1.516 . S
C699 C700 1.502 . S
C699 C701 1.561 . S
C699 C702 1.526 . S
C700 H684 0.959 . S
C700 H685 0.959 . S
C700 H686 0.961 . S
C700 C699 1.502 . S
C701 H687 0.960 . S
C701 H688 0.961 . S
C701 H689 0.959 . S
C701 C699 1.561 . S
C702 C699 1.526 . S
C702 C703 1.396 . S
C702 C707 1.390 . S
C703 C697 1.465 . S
C703 C702 1.396 . S
C703 C704 1.399 . S
C704 H690 0.929 . S
C704 C703 1.399 . S
C704 C705 1.385 . S
C705 H691 0.931 . S
C705 C704 1.385 . S
C705 C706 1.389 . S
C706 C705 1.389 . S
C706 C707 1.387 . S
C707 H692 0.930 . S
C707 C702 1.390 . S
C707 C706 1.387 . S
H708 C720 0.930 . S
H709 C722 0.930 . S
H710 C723 0.930 . S
H711 C727 0.959 . S
H712 C727 0.959 . S
H713 C727 0.961 . S
H714 C728 0.960 . S
H715 C728 0.961 . S
H716 C728 0.959 . S
H717 C731 0.929 . S
H718 C732 0.931 . S
H719 C734 0.930 . S
C720 H708 0.930 . S
C720 C721 1.399 . S
C720 C725 1.399 . S
C721 C720 1.399 . S
C721 C722 1.376 . S
C722 H709 0.930 . S
C722 C721 1.376 . S
C722 C723 1.388 . S
C723 H710 0.930 . S
C723 C722 1.388 . S
C723 C724 1.390 . S
C724 C723 1.390 . S
C724 C725 1.394 . S
C724 C730 1.465 . S
C725 C720 1.399 . S
C725 C724 1.394 . S
C725 C726 1.516 . S
C726 C725 1.516 . S
C726 C727 1.502 . S
C726 C728 1.561 . S
C726 C729 1.526 . S
C727 H711 0.959 . S
C727 H712 0.959 . S
C727 H713 0.961 . S
C727 C726 1.502 . S
C728 H714 0.960 . S
C728 H715 0.961 . S
C728 H716 0.959 . S
C728 C726 1.561 . S
C729 C726 1.526 . S
C729 C730 1.396 . S
C729 C734 1.390 . S
C730 C724 1.465 . S
C730 C729 1.396 . S
C730 C731 1.399 . S
C731 H717 0.929 . S
C731 C730 1.399 . S
C731 C732 1.385 . S
C732 H718 0.931 . S
C732 C731 1.385 . S
C732 C733 1.389 . S
C733 C732 1.389 . S
C733 C734 1.387 . S
C734 H719 0.930 . S
C734 C729 1.390 . S
C734 C733 1.387 . S
H735 C747 0.930 . S
H736 C749 0.930 . S
H737 C750 0.930 . S
H738 C754 0.959 . S
H739 C754 0.959 . S
H740 C754 0.961 . S
H741 C755 0.960 . S
H742 C755 0.961 . S
H743 C755 0.959 . S
H744 C758 0.929 . S
H745 C759 0.931 . S
H746 C761 0.930 . S
C747 H735 0.930 . S
C747 C748 1.399 . S
C747 C752 1.399 . S
C748 C747 1.399 . S
C748 C749 1.376 . S
C749 H736 0.930 . S
C749 C748 1.376 . S
C749 C750 1.388 . S
C750 H737 0.930 . S
C750 C749 1.388 . S
C750 C751 1.390 . S
C751 C750 1.390 . S
C751 C752 1.394 . S
C751 C757 1.465 . S
C752 C747 1.399 . S
C752 C751 1.394 . S
C752 C753 1.516 . S
C753 C752 1.516 . S
C753 C754 1.502 . S
C753 C755 1.561 . S
C753 C756 1.526 . S
C754 H738 0.959 . S
C754 H739 0.959 . S
C754 H740 0.961 . S
C754 C753 1.502 . S
C755 H741 0.960 . S
C755 H742 0.961 . S
C755 H743 0.959 . S
C755 C753 1.561 . S
C756 C753 1.526 . S
C756 C757 1.396 . S
C756 C761 1.390 . S
C757 C751 1.465 . S
C757 C756 1.396 . S
C757 C758 1.399 . S
C758 H744 0.929 . S
C758 C757 1.399 . S
C758 C759 1.385 . S
C759 H745 0.931 . S
C759 C758 1.385 . S
C759 C760 1.389 . S
C760 C759 1.389 . S
C760 C761 1.387 . S
C761 H746 0.930 . S
C761 C756 1.390 . S
C761 C760 1.387 . S
H762 C774 0.930 . S
H763 C776 0.930 . S
H764 C777 0.930 . S
H765 C781 0.959 . S
H766 C781 0.959 . S
H767 C781 0.961 . S
H768 C782 0.960 . S
H769 C782 0.961 . S
H770 C782 0.959 . S
H771 C785 0.929 . S
H772 C786 0.931 . S
H773 C788 0.930 . S
C774 H762 0.930 . S
C774 C775 1.399 . S
C774 C779 1.399 . S
C775 C774 1.399 . S
C775 C776 1.376 . S
C776 H763 0.930 . S
C776 C775 1.376 . S
C776 C777 1.388 . S
C777 H764 0.930 . S
C777 C776 1.388 . S
C777 C778 1.390 . S
C778 C777 1.390 . S
C778 C779 1.394 . S
C778 C784 1.465 . S
C779 C774 1.399 . S
C779 C778 1.394 . S
C779 C780 1.516 . S
C780 C779 1.516 . S
C780 C781 1.502 . S
C780 C782 1.561 . S
C780 C783 1.526 . S
C781 H765 0.959 . S
C781 H766 0.959 . S
C781 H767 0.961 . S
C781 C780 1.502 . S
C782 H768 0.960 . S
C782 H769 0.961 . S
C782 H770 0.959 . S
C782 C780 1.561 . S
C783 C780 1.526 . S
C783 C784 1.396 . S
C783 C788 1.390 . S
C784 C778 1.465 . S
C784 C783 1.396 . S
C784 C785 1.399 . S
C785 H771 0.929 . S
C785 C784 1.399 . S
C785 C786 1.385 . S
C786 H772 0.931 . S
C786 C785 1.385 . S
C786 C787 1.389 . S
C787 C786 1.389 . S
C787 C788 1.387 . S
C788 H773 0.930 . S
C788 C783 1.390 . S
C788 C787 1.387 . S
H789 C801 0.930 . S
H790 C803 0.930 . S
H791 C804 0.930 . S
H792 C808 0.959 . S
H793 C808 0.959 . S
H794 C808 0.961 . S
H795 C809 0.960 . S
H796 C809 0.961 . S
H797 C809 0.959 . S
H798 C812 0.929 . S
H799 C813 0.931 . S
H800 C815 0.930 . S
C801 H789 0.930 . S
C801 C802 1.399 . S
C801 C806 1.399 . S
C802 C801 1.399 . S
C802 C803 1.376 . S
C803 H790 0.930 . S
C803 C802 1.376 . S
C803 C804 1.388 . S
C804 H791 0.930 . S
C804 C803 1.388 . S
C804 C805 1.390 . S
C805 C804 1.390 . S
C805 C806 1.394 . S
C805 C811 1.465 . S
C806 C801 1.399 . S
C806 C805 1.394 . S
C806 C807 1.516 . S
C807 C806 1.516 . S
C807 C808 1.502 . S
C807 C809 1.561 . S
C807 C810 1.526 . S
C808 H792 0.959 . S
C808 H793 0.959 . S
C808 H794 0.961 . S
C808 C807 1.502 . S
C809 H795 0.960 . S
C809 H796 0.961 . S
C809 H797 0.959 . S
C809 C807 1.561 . S
C810 C807 1.526 . S
C810 C811 1.396 . S
C810 C815 1.390 . S
C811 C805 1.465 . S
C811 C810 1.396 . S
C811 C812 1.399 . S
C812 H798 0.929 . S
C812 C811 1.399 . S
C812 C813 1.385 . S
C813 H799 0.931 . S
C813 C812 1.385 . S
C813 C814 1.389 . S
C814 C813 1.389 . S
C814 C815 1.387 . S
C815 H800 0.930 . S
C815 C810 1.390 . S
C815 C814 1.387 . S
H816 C828 0.930 . S
H817 C830 0.930 . S
H818 C831 0.930 . S
H819 C835 0.959 . S
H820 C835 0.959 . S
H821 C835 0.961 . S
H822 C836 0.960 . S
H823 C836 0.961 . S
H824 C836 0.959 . S
H825 C839 0.929 . S
H826 C840 0.931 . S
H827 C842 0.930 . S
C828 H816 0.930 . S
C828 C829 1.399 . S
C828 C833 1.399 . S
C829 C828 1.399 . S
C829 C830 1.376 . S
C830 H817 0.930 . S
C830 C829 1.376 . S
C830 C831 1.388 . S
C831 H818 0.930 . S
C831 C830 1.388 . S
C831 C832 1.390 . S
C832 C831 1.390 . S
C832 C833 1.394 . S
C832 C838 1.465 . S
C833 C828 1.399 . S
C833 C832 1.394 . S
C833 C834 1.516 . S
C834 C833 1.516 . S
C834 C835 1.502 . S
C834 C836 1.561 . S
C834 C837 1.526 . S
C835 H819 0.959 . S
C835 H820 0.959 . S
C835 H821 0.961 . S
C835 C834 1.502 . S
C836 H822 0.960 . S
C836 H823 0.961 . S
C836 H824 0.959 . S
C836 C834 1.561 . S
C837 C834 1.526 . S
C837 C838 1.396 . S
C837 C842 1.390 . S
C838 C832 1.465 . S
C838 C837 1.396 . S
C838 C839 1.399 . S
C839 H825 0.929 . S
C839 C838 1.399 . S
C839 C840 1.385 . S
C840 H826 0.931 . S
C840 C839 1.385 . S
C840 C841 1.389 . S
C841 C840 1.389 . S
C841 C842 1.387 . S
C842 H827 0.930 . S
C842 C837 1.390 . S
C842 C841 1.387 . S
C220 C120 1.499 . S
C208 C6 1.546 . S
C247 C156 1.789 . S
C235 C21 1.840 . S
C274 C121 1.393 . S
C262 C28 1.397 . S
C301 C151 1.078 . S
C289 C45 1.117 . S
C328 C118 1.487 . S
C316 C54 1.603 . S
C343 C69 1.983 . S
C355 C154 1.987 . S
C370 C81 0.623 . S
C382 C123 0.798 . S
C409 C153 1.485 . S
C397 C88 1.506 . S
C436 C157 1.350 . S
C424 C4 1.379 . S
C463 C122 1.567 . S
C451 C18 1.565 . S
C490 C150 1.878 . S
C478 C33 1.872 . S
C517 C119 0.694 . S
C505 C42 0.596 . S
C544 C152 1.838 . S
C532 C57 1.925 . S
C559 C64 1.403 . S
C571 C117 1.411 . S
C586 C78 1.059 . S
C598 C155 1.044 . S
C625 C124 1.413 . S
C613 C93 1.517 . S
C652 C186 1.952 . S
C640 C9 2.012 . S
C667 C52 1.980 . S
C679 C189 1.842 . S
C706 C188 1.913 . S
C694 C66 2.007 . S
C721 C76 1.308 . S
C733 C187 1.261 . S
C760 C190 1.844 . S
C748 C90 1.896 . S
C775 C30 1.886 . S
C787 C184 1.822 . S
C814 C183 1.262 . S
C802 C40 1.281 . S
C829 C16 1.929 . S
C841 C185 1.766 . S
