# Generated by pormake.
# Topology rtl, (3,6)-cn, num edge types: 1
# Building blocks:
#     Node 0, Type 0, BuildingBlock: MIDCAF_clean_linker_0, # of connection points: 3
#     Node 1, Type 0, BuildingBlock: MIDCAF_clean_linker_0, # of connection points: 3
#     Node 2, Type 0, BuildingBlock: MIDCAF_clean_linker_0, # of connection points: 3
#     Node 3, Type 0, BuildingBlock: MIDCAF_clean_linker_0, # of connection points: 3
#     Node 4, Type 1, BuildingBlock: LEVNOQ01_clean_sbu_1, # of connection points: 6
#     Node 5, Type 1, BuildingBlock: LEVNOQ01_clean_sbu_1, # of connection points: 6
#     Edge 6, Type (0, 1), BuildingBlock: UVAHIK_clean_linker_0, # of connection points: 2
#     Edge 7, Type (0, 1), BuildingBlock: UVAHIK_clean_linker_0, # of connection points: 2
#     Edge 8, Type (0, 1), BuildingBlock: UVAHIK_clean_linker_0, # of connection points: 2
#     Edge 9, Type (0, 1), BuildingBlock: UVAHIK_clean_linker_0, # of connection points: 2
#     Edge 10, Type (0, 1), BuildingBlock: UVAHIK_clean_linker_0, # of connection points: 2
#     Edge 11, Type (0, 1), BuildingBlock: UVAHIK_clean_linker_0, # of connection points: 2
#     Edge 12, Type (0, 1), BuildingBlock: UVAHIK_clean_linker_0, # of connection points: 2
#     Edge 13, Type (0, 1), BuildingBlock: UVAHIK_clean_linker_0, # of connection points: 2
#     Edge 14, Type (0, 1), BuildingBlock: UVAHIK_clean_linker_0, # of connection points: 2
#     Edge 15, Type (0, 1), BuildingBlock: UVAHIK_clean_linker_0, # of connection points: 2
#     Edge 16, Type (0, 1), BuildingBlock: UVAHIK_clean_linker_0, # of connection points: 2
#     Edge 17, Type (0, 1), BuildingBlock: UVAHIK_clean_linker_0, # of connection points: 2
# Relax obj value: 0.026
# Max RMSD: 0.061
# Mean RMSD: 0.047
data_MOF--net-rtl--node1-LEVNOQ01_clean_sbu_1--node2-MIDCAF_clean_linker_0--edge1-UVAHIK_clean_linker_0
_symmetry_space_group_name_H-M    P1
_symmetry_Int_Tables_number       1
_symmetry_cell_setting            triclinic
loop_
_symmetry_equiv_pos_as_xyz
'x, y, z'
_cell_length_a     46.310011
_cell_length_b     52.961957
_cell_length_c     37.143301
_cell_angle_alpha  89.942307
_cell_angle_beta   97.828277
_cell_angle_gamma 89.957636
loop_
_atom_site_label
_atom_site_type_symbol
_atom_site_fract_x
_atom_site_fract_y
_atom_site_fract_z
_atom_type_partial_charge
C0 C 0.20375 0.92694 0.17543 0.0
C1 C 0.21723 0.92048 0.21047 0.0
C2 C 0.24014 0.90285 0.21398 0.0
C3 C 0.24893 0.89152 0.18333 0.0
H4 H 0.28885 0.82619 0.15289 0.0
H5 H 0.32277 0.79062 0.16069 0.0
H6 H 0.33875 0.79886 0.04949 0.0
H7 H 0.30476 0.83428 0.04143 0.0
H8 H 0.25849 0.86641 0.98776 0.0
H9 H 0.23584 0.8768 0.92645 0.0
H10 H 0.1686 0.91851 0.97046 0.0
H11 H 0.19114 0.90812 0.032 0.0
H12 H 0.20141 0.92075 0.11814 0.0
H13 H 0.18583 0.94026 0.17179 0.0
H14 H 0.25134 0.89776 0.24052 0.0
H15 H 0.26653 0.8779 0.18729 0.0
N16 N 0.26413 0.86594 0.12036 0.0
N17 N 0.26058 0.86096 0.05726 0.0
N18 N 0.23192 0.89135 0.08176 0.0
C19 C 0.27257 0.85397 0.09122 0.0
C20 C 0.24016 0.87955 0.05224 0.0
C21 C 0.24398 0.88474 0.11594 0.0
C22 C 0.29402 0.83306 0.09648 0.0
C23 C 0.29972 0.82054 0.13014 0.0
C24 C 0.31903 0.8001 0.13462 0.0
C25 C 0.33339 0.79204 0.10573 0.0
C26 C 0.32817 0.80484 0.07233 0.0
C27 C 0.30855 0.82502 0.06766 0.0
C28 C 0.22667 0.88641 0.01493 0.0
C29 C 0.23889 0.87782 0.9845 0.0
C30 C 0.226 0.88386 0.9493 0.0
C31 C 0.20043 0.89844 0.94364 0.0
C32 C 0.18815 0.90703 0.97398 0.0
C33 C 0.20121 0.90122 0.00924 0.0
C34 C 0.23509 0.89755 0.14827 0.0
C35 C 0.21257 0.91561 0.14467 0.0
C36 C 0.69093 0.60081 0.46337 0.0
C37 C 0.68299 0.61781 0.43455 0.0
C38 C 0.68831 0.64374 0.44082 0.0
C39 C 0.70064 0.65239 0.47516 0.0
H40 H 0.74326 0.71463 0.53354 0.0
H41 H 0.76971 0.7545 0.54377 0.0
H42 H 0.80604 0.72933 0.65097 0.0
H43 H 0.77952 0.6896 0.64108 0.0
H44 H 0.73993 0.64822 0.67728 0.0
H45 H 0.72246 0.62757 0.72891 0.0
H46 H 0.6736 0.57465 0.65618 0.0
H47 H 0.69072 0.59526 0.60449 0.0
H48 H 0.70817 0.59581 0.51929 0.0
H49 H 0.68808 0.58066 0.45952 0.0
H50 H 0.68227 0.65748 0.41952 0.0
H51 H 0.70397 0.67248 0.47928 0.0
N52 N 0.73309 0.66669 0.54637 0.0
N53 N 0.73848 0.66035 0.60954 0.0
N54 N 0.7141 0.63027 0.57047 0.0
C55 C 0.7433 0.67469 0.58057 0.0
C56 C 0.72377 0.63817 0.60476 0.0
C57 C 0.7187 0.64433 0.54117 0.0
C58 C 0.75928 0.6989 0.58647 0.0
C59 C 0.75687 0.71759 0.5593 0.0
C60 C 0.77183 0.74048 0.56522 0.0
C61 C 0.78986 0.74498 0.59818 0.0
C62 C 0.79238 0.7263 0.62526 0.0
C63 C 0.77708 0.70359 0.6196 0.0
C64 C 0.71639 0.6237 0.63656 0.0
C65 C 0.72577 0.63198 0.67225 0.0
C66 C 0.71593 0.62004 0.70193 0.0
C67 C 0.69642 0.59966 0.69655 0.0
C68 C 0.68829 0.59056 0.6611 0.0
C69 C 0.6982 0.60238 0.63147 0.0
C70 C 0.70749 0.63536 0.50411 0.0
C71 C 0.7027 0.60948 0.49772 0.0
C72 C 0.80575 0.09024 0.91003 0.0
C73 C 0.80232 0.1006 0.87482 0.0
C74 C 0.78801 0.12397 0.86888 0.0
C75 C 0.77855 0.13715 0.89774 0.0
H76 H 0.72246 0.19496 0.9255 0.0
H77 H 0.69587 0.23467 0.91486 0.0
H78 H 0.72976 0.25953 0.02299 0.0
H79 H 0.75624 0.21971 0.03396 0.0
H80 H 0.79331 0.17776 0.08938 0.0
H81 H 0.81132 0.16297 0.15092 0.0
H82 H 0.80657 0.08594 0.11291 0.0
H83 H 0.78915 0.10057 0.05141 0.0
H84 H 0.80008 0.09509 0.96577 0.0
H85 H 0.81617 0.07206 0.91545 0.0
H86 H 0.78523 0.13264 0.84222 0.0
H87 H 0.76844 0.15545 0.89228 0.0
N88 N 0.76209 0.16499 0.95889 0.0
N89 N 0.76624 0.17176 0.02183 0.0
N90 N 0.78471 0.13461 -0.00084 0.0
C91 C 0.75702 0.17971 0.98733 0.0
C92 C 0.77992 0.14912 0.02793 0.0
C93 C 0.77604 0.14247 0.96452 0.0
C94 C 0.74145 0.20411 0.98064 0.0
C95 C 0.72439 0.2089 0.947 0.0
C96 C 0.70905 0.23159 0.94091 0.0
C97 C 0.7108 0.25016 0.96807 0.0
C98 C 0.72823 0.24561 0.00147 0.0
C99 C 0.74322 0.22274 0.0078 0.0
C100 C 0.78987 0.14034 0.06549 0.0
C101 C 0.796 0.15767 0.0942 0.0
C102 C 0.80641 0.14925 0.12935 0.0
C103 C 0.81023 0.12334 0.1366 0.0
C104 C 0.8036 0.10601 0.10808 0.0
C105 C 0.79379 0.11442 0.07285 0.0
C106 C 0.78325 0.12732 0.93328 0.0
C107 C 0.7964 0.10344 0.9389 0.0
C108 C 0.30737 0.40545 0.59216 0.0
C109 C 0.29535 0.39729 0.62294 0.0
C110 C 0.26987 0.38261 0.61801 0.0
C111 C 0.25677 0.37611 0.58313 0.0
H112 H 0.19279 0.33114 0.53026 0.0
H113 H 0.15777 0.2967 0.52421 0.0
H114 H 0.16442 0.2915 0.40963 0.0
H115 H 0.19972 0.32603 0.41555 0.0
H116 H 0.22841 0.37289 0.38022 0.0
H117 H 0.24342 0.39204 0.32629 0.0
H118 H 0.3072 0.43696 0.39365 0.0
H119 H 0.29188 0.41815 0.44791 0.0
H120 H 0.30393 0.40578 0.53408 0.0
H121 H 0.32685 0.417 0.59511 0.0
H122 H 0.26024 0.37586 0.6412 0.0
H123 H 0.23721 0.36469 0.58046 0.0
N124 N 0.23394 0.35892 0.51112 0.0
N125 N 0.22961 0.36317 0.44785 0.0
N126 N 0.26284 0.38839 0.48525 0.0
C127 C 0.22132 0.35176 0.47754 0.0
C128 C 0.25024 0.38158 0.45141 0.0
C129 C 0.25476 0.37715 0.51528 0.0
C130 C 0.19917 0.33137 0.47343 0.0
C131 C 0.18678 0.32278 0.5037 0.0
C132 C 0.16652 0.30314 0.5002 0.0
C133 C 0.15827 0.29146 0.4664 0.0
C134 C 0.17049 0.30007 0.43604 0.0
C135 C 0.1906 0.31993 0.43946 0.0
C136 C 0.25902 0.39382 0.41858 0.0
C137 C 0.24558 0.3869 0.38371 0.0
C138 C 0.25426 0.39782 0.35268 0.0
C139 C 0.2766 0.41594 0.35563 0.0
C140 C 0.2897 0.42324 0.39044 0.0
C141 C 0.28103 0.4123 0.42156 0.0
C142 C 0.26867 0.38433 0.55225 0.0
C143 C 0.2941 0.39916 0.55719 0.0
O144 O -0.00167 0.02182 0.61681 0.0
Mg145 Mg 0.03017 0.0276 0.58155 0.0
O146 O 0.96608 0.01005 0.57108 0.0
Mg147 Mg 0.00196 -0.00078 0.53527 0.0
O148 O 0.01854 0.04193 0.5307 0.0
O149 O 0.03763 0.06486 0.57927 0.0
O150 O 0.03997 0.98996 0.5008 0.0
O151 O 0.9705 0.01162 0.48339 0.0
Mg152 Mg 0.99122 0.95338 0.48424 0.0
O153 O 0.98229 0.95904 0.53588 0.0
O154 O 0.03578 0.9508 0.48062 0.0
O155 O 0.96569 0.97797 0.44754 0.0
O156 O 0.97242 0.92295 0.50552 0.0
C157 C 0.05915 0.98672 0.59962 0.0
C158 C 0.97228 0.0164 0.60432 0.0
C159 C 0.02844 0.06321 0.54502 0.0
C160 C 0.05029 0.97098 0.48558 0.0
C161 C 0.9602 0.001 0.45346 0.0
C162 C 0.97169 0.93631 0.53441 0.0
O163 O 0.06965 0.00765 0.59197 0.0
O164 O 0.03278 0.98185 0.5867 0.0
O165 O 0.52729 0.47882 0.11734 0.0
Mg166 Mg 0.50273 0.45565 0.07795 0.0
O167 O 0.52222 0.51328 0.08327 0.0
Mg168 Mg 0.49051 0.50134 0.03149 0.0
O169 O 0.51272 0.46201 0.0267 0.0
O170 O 0.52305 0.42601 0.05778 0.0
O171 O 0.45979 0.48515 0.97966 0.0
O172 O 0.52466 0.51542 -0.00475 0.0
Mg173 Mg 0.4594 0.53239 0.98696 0.0
O174 O 0.47156 0.54257 0.0397 0.0
O175 O 0.42204 0.5101 0.97415 0.0
O176 O 0.49232 0.53157 0.95252 0.0
O177 O 0.44847 0.56824 -0.00343 0.0
C178 C 0.44376 0.46952 0.07967 0.0
C179 C 0.53257 0.50203 0.11269 0.0
C180 C 0.52393 0.43942 0.02893 0.0
C181 C 0.4334 0.48959 0.96632 0.0
C182 C 0.51838 0.52519 0.96375 0.0
C183 C 0.45935 0.56412 0.02986 0.0
O184 O 0.45878 0.44956 0.08223 0.0
O185 O 0.45351 0.48941 0.06612 0.0
C186 C 0.14377 0.24767 0.44509 0.0
C187 C 0.1377 0.26983 0.46349 0.0
C188 C 0.12617 0.22627 0.44614 0.0
C189 C 0.07886 0.19771 0.50617 0.0
H190 H 0.05973 0.14933 0.42826 0.0
C191 C 0.01833 0.10856 0.53429 0.0
C192 C 0.02991 0.08599 0.5228 0.0
C193 C 0.02552 0.13159 0.51966 0.0
C194 C 0.06499 0.16264 0.45028 0.0
H195 H 0.10724 0.2876 0.49499 0.0
H196 H 0.07643 0.25043 0.49661 0.0
H197 H 0.08395 0.18903 0.41635 0.0
H198 H 0.05662 0.06928 0.4857 0.0
H199 H 0.07022 0.10978 0.46076 0.0
H200 H 0.06114 0.17137 0.54051 0.0
C201 C 0.09516 0.24933 0.48211 0.0
C202 C 0.07884 0.18536 0.44346 0.0
C203 C 0.11279 0.27062 0.4812 0.0
C204 C 0.04722 0.08654 0.49462 0.0
C205 C 0.05498 0.10974 0.48042 0.0
C206 C 0.06521 0.17512 0.51298 0.0
C207 C 0.10213 0.22668 0.46553 0.0
C208 C 0.08599 0.20311 0.47143 0.0
C209 C 0.04521 0.13259 0.49401 0.0
C210 C 0.0581 0.15723 0.48523 0.0
H211 H 0.16292 0.24647 0.43137 0.0
H212 H 0.13226 0.20908 0.43332 0.0
H213 H 0.08472 0.21061 0.52858 0.0
H214 H 0.00484 0.10849 0.55595 0.0
H215 H 0.01686 0.14873 0.52994 0.0
C216 C 0.34398 0.74711 0.12441 0.0
C217 C 0.35303 0.76979 0.10981 0.0
C218 C 0.36127 0.7254 0.12491 0.0
C219 C 0.41821 0.69827 0.07614 0.0
H220 H 0.41975 0.6451 0.14827 0.0
C221 C 0.47538 0.60603 0.05362 0.0
C222 C 0.45793 0.58466 0.05595 0.0
C223 C 0.46856 0.62871 0.06963 0.0
C224 C 0.41957 0.65983 0.12799 0.0
H225 H 0.38798 0.78804 0.08649 0.0
H226 H 0.41855 0.75043 0.0882 0.0
H227 H 0.39629 0.68546 0.15822 0.0
H228 H 0.4208 0.56944 0.07812 0.0
H229 H 0.40851 0.60923 0.10595 0.0
H230 H 0.44073 0.67269 0.04549 0.0
C231 C 0.39773 0.74909 0.09825 0.0
C232 C 0.40605 0.68291 0.13359 0.0
C233 C 0.38029 0.77068 0.09734 0.0
C234 C 0.43483 0.58567 0.07666 0.0
C235 C 0.42782 0.60847 0.09249 0.0
C236 C 0.4318 0.67537 0.07068 0.0
C237 C 0.38811 0.72599 0.11114 0.0
C238 C 0.40481 0.70229 0.10741 0.0
C239 C 0.4438 0.63052 0.08762 0.0
C240 C 0.43231 0.65572 0.09624 0.0
H241 H 0.32295 0.74586 0.13397 0.0
H242 H 0.35295 0.70793 0.13462 0.0
H243 H 0.41716 0.71243 0.05495 0.0
H244 H 0.49311 0.60563 0.03737 0.0
H245 H 0.48162 0.64524 0.06596 0.0
C246 C 0.83656 0.76824 0.61657 0.0
C247 C 0.8066 0.76883 0.60394 0.0
C248 C 0.85277 0.79055 0.62023 0.0
C249 C 0.85048 0.85638 0.58594 0.0
H250 H 0.92167 0.86173 0.6538 0.0
C251 C 0.93078 0.93614 0.57129 0.0
C252 C 0.95703 0.92559 0.56353 0.0
C253 C 0.91141 0.92152 0.5884 0.0
C254 C 0.90163 0.86066 0.63505 0.0
H255 H 0.76977 0.79324 0.58677 0.0
H256 H 0.79778 0.83237 0.5942 0.0
H257 H 0.88809 0.82686 0.65951 0.0
H258 H 0.9851 0.8928 0.57031 0.0
H259 H 0.95199 0.86765 0.6014 0.0
H260 H 0.86437 0.8899 0.56113 0.0
C261 C 0.80906 0.81465 0.60029 0.0
C262 C 0.88251 0.84054 0.638 0.0
C263 C 0.79295 0.79225 0.5961 0.0
C264 C 0.96507 0.90136 0.57646 0.0
C265 C 0.94608 0.88698 0.59421 0.0
C266 C 0.86936 0.87666 0.58336 0.0
C267 C 0.83933 0.81409 0.61183 0.0
C268 C 0.85722 0.83759 0.61261 0.0
C269 C 0.91839 0.89639 0.59852 0.0
C270 C 0.89562 0.87853 0.60707 0.0
H271 H 0.84768 0.7504 0.62248 0.0
H272 H 0.87606 0.78917 0.62841 0.0
H273 H 0.83151 0.85473 0.56556 0.0
H274 H 0.92402 0.95469 0.56104 0.0
H275 H 0.89022 0.92922 0.59154 0.0
C276 C 0.70683 0.29738 0.97073 0.0
C277 C 0.69373 0.27387 0.96206 0.0
C278 C 0.69031 0.31959 0.96661 0.0
C279 C 0.6168 0.34495 0.92773 0.0
H280 H 0.63293 0.39354 0.00582 0.0
C281 C 0.53193 0.40473 0.98711 0.0
C282 C 0.53951 0.42892 0.0005 0.0
C283 C 0.55155 0.39053 0.97009 0.0
C284 C 0.62849 0.38051 0.98328 0.0
H285 H 0.6532 0.2551 0.94204 0.0
H286 H 0.62412 0.29351 0.93618 0.0
H287 H 0.66648 0.3588 0.00159 0.0
H288 H 0.57247 0.45807 0.00473 0.0
H289 H 0.60733 0.43295 0.97547 0.0
H290 H 0.57751 0.36589 0.91133 0.0
C291 C 0.6473 0.29513 0.945 0.0
C292 C 0.64778 0.36049 0.98081 0.0
C293 C 0.66392 0.27301 0.94859 0.0
C294 C 0.56605 0.43958 0.99405 0.0
C295 C 0.58602 0.42514 0.97766 0.0
C296 C 0.59728 0.3648 0.93057 0.0
C297 C 0.66017 0.31875 0.9543 0.0
C298 C 0.64179 0.34198 0.95363 0.0
C299 C 0.5794 0.40007 0.967 0.0
C300 C 0.60257 0.3824 0.95894 0.0
H301 H 0.72988 0.29858 0.98073 0.0
H302 H 0.70118 0.33738 0.97339 0.0
H303 H 0.61179 0.33149 0.90586 0.0
H304 H 0.5117 0.39607 0.9923 0.0
H305 H 0.54591 0.37124 0.96247 0.0
C306 C 0.20421 0.91569 0.27346 0.0
C307 C 0.20678 0.93123 0.24337 0.0
C308 C 0.19362 0.92534 0.30407 0.0
C309 C 0.14738 0.97601 0.33219 0.0
H310 H 0.17534 0.95001 0.4283 0.0
C311 C 0.08539 -0.00441 0.45356 0.0
C312 C 0.07762 0.97293 0.46945 0.0
C313 C 0.10739 -0.00428 0.4311 0.0
C314 C 0.16745 0.95761 0.40168 0.0
H315 H 0.20081 0.96935 0.22228 0.0
H316 H 0.18216 0.98625 0.27589 0.0
H317 H 0.20196 0.94034 0.37763 0.0
H318 H 0.08827 0.93327 0.47702 0.0
H319 H 0.12681 0.93358 0.43865 0.0
H320 H 0.11231 -0.00745 0.35608 0.0
C321 C 0.18815 0.96649 0.27556 0.0
C322 C 0.18258 0.95197 0.37261 0.0
C323 C 0.19876 0.9568 0.24483 0.0
C324 C 0.09376 0.95098 0.46499 0.0
C325 C 0.11596 0.9512 0.44313 0.0
C326 C 0.13232 0.98175 0.36133 0.0
C327 C 0.18531 0.95082 0.30549 0.0
C328 C 0.17213 0.96032 0.33726 0.0
C329 C 0.12228 0.97332 0.42482 0.0
C330 C 0.14162 0.97185 0.39611 0.0
H331 H 0.20964 0.8958 0.27301 0.0
H332 H 0.19109 0.91255 0.3262 0.0
H333 H 0.13859 0.98263 0.30532 0.0
H334 H 0.07319 0.01276 0.45644 0.0
H335 H 0.11196 0.01308 0.4175 0.0
C336 C 0.6985 0.58476 0.76143 0.0
C337 C 0.68236 0.58956 0.72717 0.0
C338 C 0.68443 0.57689 0.79063 0.0
C339 C 0.61389 0.5822 0.82302 0.0
H340 H 0.6344 0.52253 0.88166 0.0
C341 C 0.53211 0.53767 0.90377 0.0
C342 C 0.54094 0.53009 0.93987 0.0
C343 C 0.55252 0.54443 0.88132 0.0
C344 C 0.62875 0.53947 0.8659 0.0
H345 H 0.63894 0.58978 0.69673 0.0
H346 H 0.61456 0.57619 0.74744 0.0
H347 H 0.66488 0.53544 0.83555 0.0
H348 H 0.57844 0.52257 0.98016 0.0
H349 H 0.61454 0.53467 0.94041 0.0
H350 H 0.5778 0.58633 0.85264 0.0
C351 C 0.63803 0.57842 0.75173 0.0
C352 C 0.64613 0.54681 0.83954 0.0
C353 C 0.65204 0.58596 0.72261 0.0
C354 C 0.57095 0.52847 0.95254 0.0
C355 C 0.59158 0.53533 0.92982 0.0
C356 C 0.59676 0.57502 0.8493 0.0
C357 C 0.65398 0.57413 0.78614 0.0
C358 C 0.63826 0.56782 0.81715 0.0
C359 C 0.58244 0.54395 0.89422 0.0
C360 C 0.60339 0.55313 0.87023 0.0
H361 H 0.72192 0.58728 0.76566 0.0
H362 H 0.69719 0.57371 0.81692 0.0
H363 H 0.60771 0.5988 0.80667 0.0
H364 H 0.50924 0.53876 0.89279 0.0
H365 H 0.54477 0.55029 0.85373 0.0
C366 C 0.84791 0.12388 0.1919 0.0
C367 C 0.82175 0.11422 0.17353 0.0
C368 C 0.86015 0.11361 0.22527 0.0
C369 C 0.85778 0.05489 0.27979 0.0
H370 H 0.90721 0.09345 0.35244 0.0
C371 C 0.93681 0.00529 0.38909 0.0
C372 C 0.94238 0.01554 0.42425 0.0
C373 C 0.92041 0.01856 0.361 0.0
C374 C 0.89316 0.08244 0.33272 0.0
H375 H 0.787 0.08731 0.17644 0.0
H376 H 0.80753 0.07009 0.23527 0.0
H377 H 0.88044 0.11504 0.30023 0.0
H378 H 0.93499 0.04798 0.45735 0.0
H379 H 0.90545 0.07103 0.40824 0.0
H380 H 0.86963 0.02246 0.31262 0.0
C381 C 0.81934 0.0849 0.22348 0.0
C382 C 0.87809 0.09479 0.30242 0.0
C383 C 0.80741 0.09486 0.18985 0.0
C384 C 0.93109 0.03954 0.43058 0.0
C385 C 0.91429 0.0528 0.40236 0.0
C386 C 0.87248 0.04266 0.3102 0.0
C387 C 0.84627 0.09369 0.24131 0.0
C388 C 0.86057 0.08111 0.27518 0.0
C389 C 0.90865 0.0424 0.3672 0.0
C390 C 0.89091 0.05612 0.3367 0.0
H391 H 0.85949 0.1387 0.17974 0.0
H392 H 0.88106 0.12071 0.23773 0.0
H393 H 0.84489 0.04353 0.25939 0.0
H394 H 0.94547 0.98702 0.38298 0.0
H395 H 0.91732 0.01017 0.33418 0.0
C396 C 0.29194 0.41283 0.686 0.0
C397 C 0.30912 0.40422 0.6601 0.0
C398 C 0.30482 0.41961 0.72087 0.0
C399 C 0.37043 0.4109 0.78774 0.0
H400 H 0.34707 0.47448 0.82657 0.0
C401 C 0.43375 0.45854 0.91544 0.0
C402 C 0.41805 0.47375 0.93695 0.0
C403 C 0.41969 0.4473 0.88369 0.0
C404 C 0.3535 0.45641 0.81659 0.0
H405 H 0.35321 0.3955 0.65068 0.0
H406 H 0.37575 0.40736 0.71176 0.0
H407 H 0.32417 0.46051 0.7672 0.0
H408 H 0.37502 0.48744 0.94376 0.0
H409 H 0.35034 0.46705 0.88944 0.0
H410 H 0.39968 0.4067 0.83729 0.0
C411 C 0.35231 0.40882 0.70502 0.0
C412 C 0.34043 0.44848 0.78239 0.0
C413 C 0.33945 0.40228 0.66997 0.0
C414 C 0.38776 0.47607 0.92748 0.0
C415 C 0.37367 0.46457 0.8961 0.0
C416 C 0.38337 0.41872 0.82221 0.0
C417 C 0.33514 0.41773 0.73076 0.0
C418 C 0.34881 0.42571 0.76749 0.0
C419 C 0.38958 0.45079 0.87305 0.0
C420 C 0.37513 0.44164 0.83706 0.0
H421 H 0.26855 0.4147 0.67913 0.0
H422 H 0.291 0.42625 0.7402 0.0
H423 H 0.37713 0.39312 0.77707 0.0
H424 H 0.45716 0.4565 0.92197 0.0
H425 H 0.43274 0.43696 0.86661 0.0
C426 C 0.64977 0.58751 0.39678 0.0
C427 C 0.66873 0.60838 0.39856 0.0
C428 C 0.63728 0.57781 0.36336 0.0
C429 C 0.61305 0.59228 0.26912 0.0
H430 H 0.62319 0.52055 0.25417 0.0
C431 C 0.56118 0.54028 0.13753 0.0
C432 C 0.55021 0.51597 0.14261 0.0
C433 C 0.57787 0.55294 0.16639 0.0
C434 C 0.61981 0.54055 0.25796 0.0
H435 H 0.68864 0.63573 0.3659 0.0
H436 H 0.6657 0.61918 0.30736 0.0
H437 H 0.64729 0.54044 0.30922 0.0
H438 H 0.54755 0.48625 0.18233 0.0
H439 H 0.5755 0.50833 0.23225 0.0
H440 H 0.58441 0.59221 0.21864 0.0
C441 C 0.66099 0.6103 0.3322 0.0
C442 C 0.63381 0.55193 0.28942 0.0
C443 C 0.67399 0.6198 0.36576 0.0
C444 C 0.55597 0.50479 0.17718 0.0
C445 C 0.57227 0.51745 0.20591 0.0
C446 C 0.59858 0.58078 0.23774 0.0
C447 C 0.6429 0.58897 0.33077 0.0
C448 C 0.63016 0.57778 0.29563 0.0
C449 C 0.58373 0.54158 0.20095 0.0
C450 C 0.60129 0.55462 0.23216 0.0
H451 H 0.64437 0.57862 0.42125 0.0
H452 H 0.623 0.56158 0.36296 0.0
H453 H 0.60988 0.61226 0.2734 0.0
H454 H 0.55712 0.54943 0.11123 0.0
H455 H 0.58646 0.57145 0.16149 0.0
C456 C 0.80154 0.08806 0.80908 0.0
C457 C 0.81564 0.08811 0.84515 0.0
C458 C 0.81545 0.07809 0.78098 0.0
C459 C 0.88939 0.06637 0.7595 0.0
H460 H 0.85247 0.02381 0.68158 0.0
C461 C 0.95842 0.01684 0.66649 0.0
C462 C 0.94981 0.01877 0.62885 0.0
C463 C 0.93924 0.02307 0.69085 0.0
C464 C 0.86293 0.03587 0.703 0.0
H465 H 0.85525 0.07727 0.87988 0.0
H466 H 0.87905 0.05955 0.83131 0.0
H467 H 0.82405 0.03921 0.72836 0.0
H468 H 0.91368 0.02711 0.58709 0.0
H469 H 0.87983 0.03843 0.63014 0.0
H470 H 0.9281 0.06326 0.73459 0.0
C471 C 0.85739 0.06744 0.8246 0.0
C472 C 0.8467 0.04468 0.72974 0.0
C473 C 0.84356 0.07732 0.85256 0.0
C474 C 0.92087 0.02549 0.61599 0.0
C475 C 0.90155 0.03197 0.6406 0.0
C476 C 0.90547 0.05765 0.73298 0.0
C477 C 0.84378 0.06814 0.78839 0.0
C478 C 0.85998 0.05965 0.75865 0.0
C479 C 0.91097 0.03166 0.67829 0.0
C480 C 0.89266 0.04191 0.7048 0.0
H481 H 0.7799 0.09598 0.80249 0.0
H482 H 0.80441 0.07894 0.75336 0.0
H483 H 0.90006 0.07845 0.78078 0.0
H484 H 0.98043 0.01125 0.67726 0.0
H485 H 0.9469 0.02191 0.7197 0.0
C486 C 0.29046 0.41043 0.29318 0.0
C487 C 0.28691 0.4264 0.32246 0.0
C488 C 0.30113 0.41983 0.26246 0.0
C489 C 0.34576 0.4714 0.23332 0.0
H490 H 0.32053 0.44314 0.13793 0.0
C491 C 0.40756 0.49246 0.11212 0.0
C492 C 0.41673 0.47012 0.09668 0.0
C493 C 0.38562 0.49171 0.13461 0.0
C494 C 0.32767 0.45134 0.16435 0.0
H495 H 0.29105 0.46498 0.34192 0.0
H496 H 0.30973 0.48147 0.28809 0.0
H497 H 0.29362 0.43323 0.18825 0.0
H498 H 0.40861 0.42998 0.0901 0.0
H499 H 0.3702 0.42874 0.12865 0.0
H500 H 0.38034 0.48888 0.20958 0.0
C501 C 0.30455 0.46157 0.28916 0.0
C502 C 0.31237 0.44557 0.19322 0.0
C503 C 0.2939 0.45213 0.32002 0.0
C504 C 0.40208 0.44747 0.1018 0.0
C505 C 0.37994 0.44679 0.12374 0.0
C506 C 0.36097 0.47727 0.20436 0.0
C507 C 0.30849 0.44549 0.2601 0.0
C508 C 0.32183 0.45482 0.22834 0.0
C509 C 0.37216 0.46871 0.14142 0.0
C510 C 0.35266 0.46662 0.16987 0.0
H511 H 0.28579 0.39044 0.29442 0.0
H512 H 0.30449 0.40676 0.24102 0.0
H513 H 0.35382 0.4787 0.26002 0.0
H514 H 0.41853 0.51018 0.10868 0.0
H515 H 0.37988 0.50892 0.1477 0.0
C516 C 0.20385 0.91304 0.88005 0.0
C517 C 0.18671 0.90471 0.90617 0.0
C518 C 0.19097 0.91927 0.84491 0.0
C519 C 0.12551 0.90933 0.7782 0.0
H520 H 0.14757 0.97284 0.73782 0.0
C521 C 0.06023 0.95551 0.65056 0.0
C522 C 0.07525 0.97101 0.62866 0.0
C523 C 0.0749 0.94451 0.68219 0.0
C524 C 0.14151 0.95477 0.74821 0.0
H525 H 0.14269 0.89586 0.91569 0.0
H526 H 0.12014 0.90673 0.85418 0.0
H527 H 0.171 0.95953 0.79733 0.0
H528 H 0.11775 0.98546 0.62098 0.0
H529 H 0.14354 0.96545 0.67506 0.0
H530 H 0.09611 0.90446 0.72897 0.0
C531 C 0.14356 0.90842 0.86095 0.0
C532 C 0.1549 0.94723 0.78251 0.0
C533 C 0.15642 0.90244 0.89624 0.0
C534 C 0.10553 0.97384 0.63758 0.0
C535 C 0.12025 0.96255 0.66883 0.0
C536 C 0.11229 0.91675 0.74364 0.0
C537 C 0.16068 0.91707 0.83499 0.0
C538 C 0.14694 0.92452 0.798 0.0
C539 C 0.10498 0.94851 0.69231 0.0
C540 C 0.11999 0.93967 0.72824 0.0
H541 H 0.22722 0.91513 0.88695 0.0
H542 H 0.20474 0.92573 0.82543 0.0
H543 H 0.11915 0.89159 0.78933 0.0
H544 H 0.03685 0.9531 0.64449 0.0
H545 H 0.06231 0.93397 0.69961 0.0
loop_
_geom_bond_atom_site_label_1
_geom_bond_atom_site_label_2
_geom_bond_distance
_geom_bond_site_symmetry_2
_ccdc_geom_bond_type
C0 C1 1.384 . S
C0 H13 0.947 . S
C0 C35 1.382 . S
C1 C0 1.384 . S
C1 C2 1.378 . S
C2 C1 1.378 . S
C2 C3 1.378 . S
C2 H14 0.952 . S
C3 C2 1.378 . S
C3 H15 0.950 . S
C3 C34 1.383 . S
H4 C23 0.947 . S
H5 C24 0.946 . S
H6 C26 0.953 . S
H7 C27 0.945 . S
H8 C29 0.952 . S
H9 C30 0.949 . S
H10 C32 0.950 . S
H11 C33 0.948 . S
H12 C35 0.951 . S
H13 C0 0.947 . S
H14 C2 0.952 . S
H15 C3 0.950 . S
N16 C19 1.382 . S
N16 C21 1.363 . S
N17 C19 1.371 . S
N17 C20 1.372 . S
N18 C20 1.361 . S
N18 C21 1.377 . S
C19 N16 1.382 . S
C19 N17 1.371 . S
C19 C22 1.480 . S
C20 N17 1.372 . S
C20 N18 1.361 . S
C20 C28 1.457 . S
C21 N16 1.363 . S
C21 N18 1.377 . S
C21 C34 1.479 . S
C22 C19 1.480 . S
C22 C23 1.383 . S
C22 C27 1.385 . S
C23 H4 0.947 . S
C23 C22 1.383 . S
C23 C24 1.388 . S
C24 H5 0.946 . S
C24 C23 1.388 . S
C24 C25 1.384 . S
C25 C24 1.384 . S
C25 C26 1.377 . S
C26 H6 0.953 . S
C26 C25 1.377 . S
C26 C27 1.369 . S
C27 H7 0.945 . S
C27 C22 1.385 . S
C27 C26 1.369 . S
C28 C20 1.457 . S
C28 C29 1.372 1_554 S
C28 C33 1.364 . S
C29 H8 0.952 . S
C29 C28 1.372 1_556 S
C29 C30 1.389 . S
C30 H9 0.949 . S
C30 C29 1.389 . S
C30 C31 1.387 . S
C31 C30 1.387 . S
C31 C32 1.372 . S
C32 H10 0.950 . S
C32 C31 1.372 . S
C32 C33 1.379 1_556 S
C33 H11 0.948 . S
C33 C28 1.364 . S
C33 C32 1.379 1_554 S
C34 C3 1.383 . S
C34 C21 1.479 . S
C34 C35 1.398 . S
C35 C0 1.382 . S
C35 H12 0.951 . S
C35 C34 1.398 . S
C36 C37 1.384 . S
C36 H49 0.947 . S
C36 C71 1.382 . S
C37 C36 1.384 . S
C37 C38 1.378 . S
C38 C37 1.378 . S
C38 C39 1.378 . S
C38 H50 0.952 . S
C39 C38 1.378 . S
C39 H51 0.950 . S
C39 C70 1.383 . S
H40 C59 0.947 . S
H41 C60 0.946 . S
H42 C62 0.953 . S
H43 C63 0.945 . S
H44 C65 0.952 . S
H45 C66 0.949 . S
H46 C68 0.950 . S
H47 C69 0.948 . S
H48 C71 0.951 . S
H49 C36 0.947 . S
H50 C38 0.952 . S
H51 C39 0.950 . S
N52 C55 1.382 . S
N52 C57 1.363 . S
N53 C55 1.371 . S
N53 C56 1.372 . S
N54 C56 1.361 . S
N54 C57 1.377 . S
C55 N52 1.382 . S
C55 N53 1.371 . S
C55 C58 1.480 . S
C56 N53 1.372 . S
C56 N54 1.361 . S
C56 C64 1.457 . S
C57 N52 1.363 . S
C57 N54 1.377 . S
C57 C70 1.479 . S
C58 C55 1.480 . S
C58 C59 1.383 . S
C58 C63 1.385 . S
C59 H40 0.947 . S
C59 C58 1.383 . S
C59 C60 1.388 . S
C60 H41 0.946 . S
C60 C59 1.388 . S
C60 C61 1.384 . S
C61 C60 1.384 . S
C61 C62 1.377 . S
C62 H42 0.953 . S
C62 C61 1.377 . S
C62 C63 1.369 . S
C63 H43 0.945 . S
C63 C58 1.385 . S
C63 C62 1.369 . S
C64 C56 1.457 . S
C64 C65 1.372 . S
C64 C69 1.364 . S
C65 H44 0.952 . S
C65 C64 1.372 . S
C65 C66 1.389 . S
C66 H45 0.949 . S
C66 C65 1.389 . S
C66 C67 1.387 . S
C67 C66 1.387 . S
C67 C68 1.372 . S
C68 H46 0.950 . S
C68 C67 1.372 . S
C68 C69 1.379 . S
C69 H47 0.948 . S
C69 C64 1.364 . S
C69 C68 1.379 . S
C70 C39 1.383 . S
C70 C57 1.479 . S
C70 C71 1.398 . S
C71 C36 1.382 . S
C71 H48 0.951 . S
C71 C70 1.398 . S
C72 C73 1.384 . S
C72 H85 0.947 . S
C72 C107 1.382 . S
C73 C72 1.384 . S
C73 C74 1.378 . S
C74 C73 1.378 . S
C74 C75 1.378 . S
C74 H86 0.952 . S
C75 C74 1.378 . S
C75 H87 0.950 . S
C75 C106 1.383 . S
H76 C95 0.947 . S
H77 C96 0.946 . S
H78 C98 0.953 . S
H79 C99 0.945 . S
H80 C101 0.952 . S
H81 C102 0.949 . S
H82 C104 0.950 . S
H83 C105 0.948 . S
H84 C107 0.951 . S
H85 C72 0.947 . S
H86 C74 0.952 . S
H87 C75 0.950 . S
N88 C91 1.382 1_556 S
N88 C93 1.363 . S
N89 C91 1.371 . S
N89 C92 1.372 . S
N90 C92 1.361 . S
N90 C93 1.377 1_554 S
C91 N88 1.382 1_554 S
C91 N89 1.371 . S
C91 C94 1.480 . S
C92 N89 1.372 . S
C92 N90 1.361 . S
C92 C100 1.457 . S
C93 N88 1.363 . S
C93 N90 1.377 1_556 S
C93 C106 1.479 . S
C94 C91 1.480 . S
C94 C95 1.385 1_554 S
C94 C99 1.382 . S
C95 H76 0.947 . S
C95 C94 1.385 1_556 S
C95 C96 1.388 . S
C96 H77 0.946 . S
C96 C95 1.388 . S
C96 C97 1.384 . S
C97 C96 1.384 . S
C97 C98 1.377 1_556 S
C98 H78 0.953 . S
C98 C97 1.377 1_554 S
C98 C99 1.369 . S
C99 H79 0.945 . S
C99 C94 1.382 . S
C99 C98 1.369 . S
C100 C92 1.457 . S
C100 C101 1.372 . S
C100 C105 1.364 . S
C101 H80 0.952 . S
C101 C100 1.372 . S
C101 C102 1.389 . S
C102 H81 0.949 . S
C102 C101 1.389 . S
C102 C103 1.387 . S
C103 C102 1.387 . S
C103 C104 1.372 . S
C104 H82 0.950 . S
C104 C103 1.372 . S
C104 C105 1.379 . S
C105 H83 0.948 . S
C105 C100 1.364 . S
C105 C104 1.379 . S
C106 C75 1.383 . S
C106 C93 1.479 . S
C106 C107 1.398 . S
C107 C72 1.382 . S
C107 H84 0.951 . S
C107 C106 1.398 . S
C108 C109 1.384 . S
C108 H121 0.947 . S
C108 C143 1.382 . S
C109 C108 1.384 . S
C109 C110 1.378 . S
C110 C109 1.378 . S
C110 C111 1.378 . S
C110 H122 0.952 . S
C111 C110 1.378 . S
C111 H123 0.950 . S
C111 C142 1.383 . S
H112 C131 0.947 . S
H113 C132 0.946 . S
H114 C134 0.953 . S
H115 C135 0.945 . S
H116 C137 0.952 . S
H117 C138 0.949 . S
H118 C140 0.950 . S
H119 C141 0.948 . S
H120 C143 0.951 . S
H121 C108 0.947 . S
H122 C110 0.952 . S
H123 C111 0.950 . S
N124 C127 1.382 . S
N124 C129 1.363 . S
N125 C127 1.371 . S
N125 C128 1.372 . S
N126 C128 1.361 . S
N126 C129 1.377 . S
C127 N124 1.382 . S
C127 N125 1.371 . S
C127 C130 1.480 . S
C128 N125 1.372 . S
C128 N126 1.361 . S
C128 C136 1.457 . S
C129 N124 1.363 . S
C129 N126 1.377 . S
C129 C142 1.479 . S
C130 C127 1.480 . S
C130 C131 1.383 . S
C130 C135 1.385 . S
C131 H112 0.947 . S
C131 C130 1.383 . S
C131 C132 1.388 . S
C132 H113 0.946 . S
C132 C131 1.388 . S
C132 C133 1.384 . S
C133 C132 1.384 . S
C133 C134 1.377 . S
C134 H114 0.953 . S
C134 C133 1.377 . S
C134 C135 1.369 . S
C135 H115 0.945 . S
C135 C130 1.385 . S
C135 C134 1.369 . S
C136 C128 1.457 . S
C136 C137 1.372 . S
C136 C141 1.364 . S
C137 H116 0.952 . S
C137 C136 1.372 . S
C137 C138 1.389 . S
C138 H117 0.949 . S
C138 C137 1.389 . S
C138 C139 1.387 . S
C139 C138 1.387 . S
C139 C140 1.372 . S
C140 H118 0.950 . S
C140 C139 1.372 . S
C140 C141 1.379 . S
C141 H119 0.948 . S
C141 C136 1.364 . S
C141 C140 1.379 . S
C142 C111 1.383 . S
C142 C129 1.479 . S
C142 C143 1.398 . S
C143 C108 1.382 . S
C143 H120 0.951 . S
C143 C142 1.398 . S
O144 Mg145 1.990 1_655 S
O144 C158 1.253 . S
Mg145 O144 1.990 1_455 S
Mg145 O148 2.180 . S
Mg145 O149 2.117 . S
Mg145 O163 2.030 . S
O146 Mg147 2.072 1_655 S
O146 C158 1.260 . S
Mg147 O146 2.072 1_455 S
Mg147 O148 2.099 . S
Mg147 O150 2.065 1_545 S
Mg147 O151 2.072 1_455 S
Mg147 O153 2.099 1_445 S
Mg147 O164 2.079 1_545 S
O148 Mg145 2.180 . S
O148 Mg147 2.099 . S
O148 C159 1.279 . S
O149 Mg145 2.117 . S
O149 C159 1.250 . S
O150 Mg147 2.065 1_565 S
O150 C160 1.281 . S
O151 Mg147 2.072 1_655 S
O151 C161 1.260 . S
Mg152 O153 2.180 . S
Mg152 O154 2.030 1_655 S
Mg152 O155 1.990 1_565 S
Mg152 O156 2.117 . S
O153 Mg147 2.099 1_665 S
O153 Mg152 2.180 . S
O153 C162 1.279 . S
O154 Mg152 2.030 1_455 S
O154 C160 1.248 . S
O155 Mg152 1.990 1_545 S
O155 C161 1.253 . S
O156 Mg152 2.117 . S
O156 C162 1.250 . S
C157 O163 1.230 1_565 S
C157 O164 1.268 . S
C158 O144 1.253 . S
C158 O146 1.260 . S
C159 O148 1.279 . S
C159 O149 1.250 . S
C160 O150 1.281 . S
C160 O154 1.248 . S
C161 O151 1.260 . S
C161 O155 1.253 . S
C162 O153 1.279 . S
C162 O156 1.250 . S
O163 Mg145 2.030 . S
O163 C157 1.230 1_545 S
O164 Mg147 2.079 1_565 S
O164 C157 1.268 . S
O165 Mg166 1.990 . S
O165 C179 1.253 . S
Mg166 O165 1.990 . S
Mg166 O169 2.180 . S
Mg166 O170 2.117 . S
Mg166 O184 2.030 . S
O167 Mg168 2.072 . S
O167 C179 1.260 . S
Mg168 O167 2.072 . S
Mg168 O169 2.099 . S
Mg168 O171 2.079 1_554 S
Mg168 O172 2.072 . S
Mg168 O174 2.099 . S
Mg168 O185 2.079 . S
O169 Mg166 2.180 . S
O169 Mg168 2.099 . S
O169 C180 1.279 . S
O170 Mg166 2.117 . S
O170 C180 1.250 . S
O171 Mg168 2.079 1_556 S
O171 C181 1.264 . S
O172 Mg168 2.072 . S
O172 C182 1.260 1_554 S
Mg173 O174 2.180 1_556 S
Mg173 O175 2.030 . S
Mg173 O176 1.990 . S
Mg173 O177 2.117 1_556 S
O174 Mg168 2.099 . S
O174 Mg173 2.180 1_554 S
O174 C183 1.279 . S
O175 Mg173 2.030 . S
O175 C181 1.248 . S
O176 Mg173 1.990 . S
O176 C182 1.253 . S
O177 Mg173 2.117 1_554 S
O177 C183 1.250 . S
C178 O184 1.248 . S
C178 O185 1.264 . S
C179 O165 1.253 . S
C179 O167 1.260 . S
C180 O169 1.279 . S
C180 O170 1.250 . S
C181 O171 1.264 . S
C181 O175 1.248 . S
C182 O172 1.260 1_556 S
C182 O176 1.253 . S
C183 O174 1.279 . S
C183 O177 1.250 . S
O184 Mg166 2.030 . S
O184 C178 1.248 . S
O185 Mg168 2.079 . S
O185 C178 1.264 . S
C186 C187 1.349 . S
C186 C188 1.327 . S
C186 H211 0.950 . S
C187 C186 1.349 . S
C187 C203 1.349 . S
C188 C186 1.327 . S
C188 C207 1.429 . S
C188 H212 0.950 . S
C189 C206 1.574 . S
C189 C208 1.368 . S
C189 H213 0.949 . S
H190 C194 0.949 . S
C191 C192 1.349 . S
C191 C193 1.327 . S
C191 H214 0.950 . S
C192 C191 1.349 . S
C192 C204 1.349 . S
C193 C191 1.327 . S
C193 C209 1.429 . S
C193 H215 0.950 . S
C194 H190 0.949 . S
C194 C202 1.574 . S
C194 C210 1.368 . S
H195 C203 0.950 . S
H196 C201 0.950 . S
H197 C202 0.949 . S
H198 C204 0.950 . S
H199 C205 0.950 . S
H200 C206 0.949 . S
C201 H196 0.950 . S
C201 C203 1.327 . S
C201 C207 1.429 . S
C202 C194 1.574 . S
C202 H197 0.949 . S
C202 C208 1.368 . S
C203 C187 1.349 . S
C203 H195 0.950 . S
C203 C201 1.327 . S
C204 C192 1.349 . S
C204 H198 0.950 . S
C204 C205 1.327 . S
C205 H199 0.950 . S
C205 C204 1.327 . S
C205 C209 1.429 . S
C206 C189 1.574 . S
C206 H200 0.949 . S
C206 C210 1.368 . S
C207 C188 1.429 . S
C207 C201 1.429 . S
C207 C208 1.523 . S
C208 C189 1.368 . S
C208 C202 1.368 . S
C208 C207 1.523 . S
C209 C193 1.429 . S
C209 C205 1.429 . S
C209 C210 1.523 . S
C210 C194 1.368 . S
C210 C206 1.368 . S
C210 C209 1.523 . S
H211 C186 0.950 . S
H212 C188 0.950 . S
H213 C189 0.949 . S
H214 C191 0.950 . S
H215 C193 0.950 . S
C216 C217 1.349 . S
C216 C218 1.327 . S
C216 H241 0.950 . S
C217 C216 1.349 . S
C217 C233 1.349 . S
C218 C216 1.327 . S
C218 C237 1.429 . S
C218 H242 0.950 . S
C219 C236 1.574 . S
C219 C238 1.368 . S
C219 H243 0.949 . S
H220 C224 0.949 . S
C221 C222 1.349 . S
C221 C223 1.327 . S
C221 H244 0.950 . S
C222 C221 1.349 . S
C222 C234 1.349 . S
C223 C221 1.327 . S
C223 C239 1.429 . S
C223 H245 0.950 . S
C224 H220 0.949 . S
C224 C232 1.574 . S
C224 C240 1.368 . S
H225 C233 0.950 . S
H226 C231 0.950 . S
H227 C232 0.949 . S
H228 C234 0.950 . S
H229 C235 0.950 . S
H230 C236 0.949 . S
C231 H226 0.950 . S
C231 C233 1.327 . S
C231 C237 1.429 . S
C232 C224 1.574 . S
C232 H227 0.949 . S
C232 C238 1.368 . S
C233 C217 1.349 . S
C233 H225 0.950 . S
C233 C231 1.327 . S
C234 C222 1.349 . S
C234 H228 0.950 . S
C234 C235 1.327 . S
C235 H229 0.950 . S
C235 C234 1.327 . S
C235 C239 1.429 . S
C236 C219 1.574 . S
C236 H230 0.949 . S
C236 C240 1.368 . S
C237 C218 1.429 . S
C237 C231 1.429 . S
C237 C238 1.523 . S
C238 C219 1.368 . S
C238 C232 1.368 . S
C238 C237 1.523 . S
C239 C223 1.429 . S
C239 C235 1.429 . S
C239 C240 1.523 . S
C240 C224 1.368 . S
C240 C236 1.368 . S
C240 C239 1.523 . S
H241 C216 0.950 . S
H242 C218 0.950 . S
H243 C219 0.949 . S
H244 C221 0.950 . S
H245 C223 0.950 . S
C246 C247 1.349 . S
C246 C248 1.327 . S
C246 H271 0.950 . S
C247 C246 1.349 . S
C247 C263 1.349 . S
C248 C246 1.327 . S
C248 C267 1.429 . S
C248 H272 0.950 . S
C249 C266 1.574 . S
C249 C268 1.368 . S
C249 H273 0.949 . S
H250 C254 0.949 . S
C251 C252 1.349 . S
C251 C253 1.327 . S
C251 H274 0.950 . S
C252 C251 1.349 . S
C252 C264 1.349 . S
C253 C251 1.327 . S
C253 C269 1.429 . S
C253 H275 0.950 . S
C254 H250 0.949 . S
C254 C262 1.574 . S
C254 C270 1.368 . S
H255 C263 0.950 . S
H256 C261 0.950 . S
H257 C262 0.949 . S
H258 C264 0.950 . S
H259 C265 0.950 . S
H260 C266 0.949 . S
C261 H256 0.950 . S
C261 C263 1.327 . S
C261 C267 1.429 . S
C262 C254 1.574 . S
C262 H257 0.949 . S
C262 C268 1.368 . S
C263 C247 1.349 . S
C263 H255 0.950 . S
C263 C261 1.327 . S
C264 C252 1.349 . S
C264 H258 0.950 . S
C264 C265 1.327 . S
C265 H259 0.950 . S
C265 C264 1.327 . S
C265 C269 1.429 . S
C266 C249 1.574 . S
C266 H260 0.949 . S
C266 C270 1.368 . S
C267 C248 1.429 . S
C267 C261 1.429 . S
C267 C268 1.523 . S
C268 C249 1.368 . S
C268 C262 1.368 . S
C268 C267 1.523 . S
C269 C253 1.429 . S
C269 C265 1.429 . S
C269 C270 1.523 . S
C270 C254 1.368 . S
C270 C266 1.368 . S
C270 C269 1.523 . S
H271 C246 0.950 . S
H272 C248 0.950 . S
H273 C249 0.949 . S
H274 C251 0.950 . S
H275 C253 0.950 . S
C276 C277 1.349 1_554 S
C276 C278 1.327 . S
C276 H301 0.950 . S
C277 C276 1.349 1_556 S
C277 C293 1.349 . S
C278 C276 1.327 . S
C278 C297 1.429 . S
C278 H302 0.950 . S
C279 C296 1.574 . S
C279 C298 1.368 1_556 S
C279 H303 0.949 . S
H280 C284 0.949 . S
C281 C282 1.349 1_556 S
C281 C283 1.327 . S
C281 H304 0.950 . S
C282 C281 1.349 1_554 S
C282 C294 1.349 . S
C283 C281 1.327 . S
C283 C299 1.429 1_556 S
C283 H305 0.950 . S
C284 H280 0.949 . S
C284 C292 1.574 . S
C284 C300 1.368 . S
H285 C293 0.950 . S
H286 C291 0.950 . S
H287 C292 0.949 . S
H288 C294 0.950 . S
H289 C295 0.950 . S
H290 C296 0.949 . S
C291 H286 0.950 . S
C291 C293 1.327 . S
C291 C297 1.429 1_556 S
C292 C284 1.574 . S
C292 H287 0.949 . S
C292 C298 1.368 . S
C293 C277 1.349 . S
C293 H285 0.950 . S
C293 C291 1.327 . S
C294 C282 1.349 . S
C294 H288 0.950 . S
C294 C295 1.327 . S
C295 H289 0.950 . S
C295 C294 1.327 . S
C295 C299 1.429 . S
C296 C279 1.574 . S
C296 H290 0.949 . S
C296 C300 1.368 1_556 S
C297 C278 1.429 . S
C297 C291 1.429 1_554 S
C297 C298 1.523 . S
C298 C279 1.368 1_554 S
C298 C292 1.368 . S
C298 C297 1.523 . S
C299 C283 1.429 1_554 S
C299 C295 1.429 . S
C299 C300 1.523 . S
C300 C284 1.368 . S
C300 C296 1.368 1_554 S
C300 C299 1.523 . S
H301 C276 0.950 . S
H302 C278 0.950 . S
H303 C279 0.949 . S
H304 C281 0.950 . S
H305 C283 0.950 . S
C306 C307 1.349 . S
C306 C308 1.327 . S
C306 H331 0.950 . S
C307 C306 1.349 . S
C307 C323 1.349 . S
C308 C306 1.327 . S
C308 C327 1.429 . S
C308 H332 0.950 . S
C309 C326 1.574 . S
C309 C328 1.368 . S
C309 H333 0.949 . S
H310 C314 0.949 . S
C311 C312 1.336 1_545 S
C311 C313 1.322 1_545 S
C311 H334 0.968 . S
C312 C311 1.336 1_565 S
C312 C324 1.349 . S
C313 C311 1.322 1_565 S
C313 C329 1.429 . S
C313 H335 0.950 1_565 S
C314 H310 0.949 . S
C314 C322 1.574 . S
C314 C330 1.368 . S
H315 C323 0.950 . S
H316 C321 0.950 . S
H317 C322 0.949 . S
H318 C324 0.950 . S
H319 C325 0.950 . S
H320 C326 0.949 . S
C321 H316 0.950 . S
C321 C323 1.327 . S
C321 C327 1.429 . S
C322 C314 1.574 . S
C322 H317 0.949 . S
C322 C328 1.368 . S
C323 C307 1.349 . S
C323 H315 0.950 . S
C323 C321 1.327 . S
C324 C312 1.349 . S
C324 H318 0.950 . S
C324 C325 1.327 . S
C325 H319 0.950 . S
C325 C324 1.327 . S
C325 C329 1.429 . S
C326 C309 1.574 . S
C326 H320 0.949 . S
C326 C330 1.368 . S
C327 C308 1.429 . S
C327 C321 1.429 . S
C327 C328 1.523 . S
C328 C309 1.368 . S
C328 C322 1.368 . S
C328 C327 1.523 . S
C329 C313 1.429 . S
C329 C325 1.429 . S
C329 C330 1.523 . S
C330 C314 1.368 . S
C330 C326 1.368 . S
C330 C329 1.523 . S
H331 C306 0.950 . S
H332 C308 0.950 . S
H333 C309 0.949 . S
H334 C311 0.968 . S
H335 C313 0.950 1_545 S
C336 C337 1.349 . S
C336 C338 1.327 . S
C336 H361 0.950 . S
C337 C336 1.349 . S
C337 C353 1.349 . S
C338 C336 1.327 . S
C338 C357 1.429 . S
C338 H362 0.950 . S
C339 C356 1.574 . S
C339 C358 1.368 . S
C339 H363 0.949 . S
H340 C344 0.949 . S
C341 C342 1.349 . S
C341 C343 1.327 . S
C341 H364 0.950 . S
C342 C341 1.349 . S
C342 C354 1.349 . S
C343 C341 1.327 . S
C343 C359 1.429 . S
C343 H365 0.950 . S
C344 H340 0.949 . S
C344 C352 1.574 . S
C344 C360 1.368 . S
H345 C353 0.950 . S
H346 C351 0.950 . S
H347 C352 0.949 . S
H348 C354 0.950 . S
H349 C355 0.950 . S
H350 C356 0.949 . S
C351 H346 0.950 . S
C351 C353 1.327 . S
C351 C357 1.429 . S
C352 C344 1.574 . S
C352 H347 0.949 . S
C352 C358 1.368 . S
C353 C337 1.349 . S
C353 H345 0.950 . S
C353 C351 1.327 . S
C354 C342 1.349 . S
C354 H348 0.950 . S
C354 C355 1.327 . S
C355 H349 0.950 . S
C355 C354 1.327 . S
C355 C359 1.429 . S
C356 C339 1.574 . S
C356 H350 0.949 . S
C356 C360 1.368 . S
C357 C338 1.429 . S
C357 C351 1.429 . S
C357 C358 1.523 . S
C358 C339 1.368 . S
C358 C352 1.368 . S
C358 C357 1.523 . S
C359 C343 1.429 . S
C359 C355 1.429 . S
C359 C360 1.523 . S
C360 C344 1.368 . S
C360 C356 1.368 . S
C360 C359 1.523 . S
H361 C336 0.950 . S
H362 C338 0.950 . S
H363 C339 0.949 . S
H364 C341 0.950 . S
H365 C343 0.950 . S
C366 C367 1.349 . S
C366 C368 1.327 . S
C366 H391 0.950 . S
C367 C366 1.349 . S
C367 C383 1.349 . S
C368 C366 1.327 . S
C368 C387 1.429 . S
C368 H392 0.950 . S
C369 C386 1.574 . S
C369 C388 1.368 . S
C369 H393 0.949 . S
H370 C374 0.949 . S
C371 C372 1.349 . S
C371 C373 1.327 . S
C371 H394 0.950 . S
C372 C371 1.349 . S
C372 C384 1.349 . S
C373 C371 1.327 . S
C373 C389 1.429 . S
C373 H395 0.950 . S
C374 H370 0.949 . S
C374 C382 1.574 . S
C374 C390 1.368 . S
H375 C383 0.950 . S
H376 C381 0.950 . S
H377 C382 0.949 . S
H378 C384 0.950 . S
H379 C385 0.950 . S
H380 C386 0.949 . S
C381 H376 0.950 . S
C381 C383 1.327 . S
C381 C387 1.429 . S
C382 C374 1.574 . S
C382 H377 0.949 . S
C382 C388 1.368 . S
C383 C367 1.349 . S
C383 H375 0.950 . S
C383 C381 1.327 . S
C384 C372 1.349 . S
C384 H378 0.950 . S
C384 C385 1.327 . S
C385 H379 0.950 . S
C385 C384 1.327 . S
C385 C389 1.429 . S
C386 C369 1.574 . S
C386 H380 0.949 . S
C386 C390 1.368 . S
C387 C368 1.429 . S
C387 C381 1.429 . S
C387 C388 1.523 . S
C388 C369 1.368 . S
C388 C382 1.368 . S
C388 C387 1.523 . S
C389 C373 1.429 . S
C389 C385 1.429 . S
C389 C390 1.523 . S
C390 C374 1.368 . S
C390 C386 1.368 . S
C390 C389 1.523 . S
H391 C366 0.950 . S
H392 C368 0.950 . S
H393 C369 0.949 . S
H394 C371 0.950 . S
H395 C373 0.950 . S
C396 C397 1.349 . S
C396 C398 1.327 . S
C396 H421 0.950 . S
C397 C396 1.349 . S
C397 C413 1.349 . S
C398 C396 1.327 . S
C398 C417 1.429 . S
C398 H422 0.950 . S
C399 C416 1.574 . S
C399 C418 1.368 . S
C399 H423 0.949 . S
H400 C404 0.949 . S
C401 C402 1.349 . S
C401 C403 1.327 . S
C401 H424 0.950 . S
C402 C401 1.349 . S
C402 C414 1.349 . S
C403 C401 1.327 . S
C403 C419 1.429 . S
C403 H425 0.950 . S
C404 H400 0.949 . S
C404 C412 1.574 . S
C404 C420 1.368 . S
H405 C413 0.950 . S
H406 C411 0.950 . S
H407 C412 0.949 . S
H408 C414 0.950 . S
H409 C415 0.950 . S
H410 C416 0.949 . S
C411 H406 0.950 . S
C411 C413 1.327 . S
C411 C417 1.429 . S
C412 C404 1.574 . S
C412 H407 0.949 . S
C412 C418 1.368 . S
C413 C397 1.349 . S
C413 H405 0.950 . S
C413 C411 1.327 . S
C414 C402 1.349 . S
C414 H408 0.950 . S
C414 C415 1.327 . S
C415 H409 0.950 . S
C415 C414 1.327 . S
C415 C419 1.429 . S
C416 C399 1.574 . S
C416 H410 0.949 . S
C416 C420 1.368 . S
C417 C398 1.429 . S
C417 C411 1.429 . S
C417 C418 1.523 . S
C418 C399 1.368 . S
C418 C412 1.368 . S
C418 C417 1.523 . S
C419 C403 1.429 . S
C419 C415 1.429 . S
C419 C420 1.523 . S
C420 C404 1.368 . S
C420 C416 1.368 . S
C420 C419 1.523 . S
H421 C396 0.950 . S
H422 C398 0.950 . S
H423 C399 0.949 . S
H424 C401 0.950 . S
H425 C403 0.950 . S
C426 C427 1.349 . S
C426 C428 1.327 . S
C426 H451 0.950 . S
C427 C426 1.349 . S
C427 C443 1.349 . S
C428 C426 1.327 . S
C428 C447 1.429 . S
C428 H452 0.950 . S
C429 C446 1.574 . S
C429 C448 1.368 . S
C429 H453 0.949 . S
H430 C434 0.949 . S
C431 C432 1.349 . S
C431 C433 1.327 . S
C431 H454 0.950 . S
C432 C431 1.349 . S
C432 C444 1.349 . S
C433 C431 1.327 . S
C433 C449 1.429 . S
C433 H455 0.950 . S
C434 H430 0.949 . S
C434 C442 1.574 . S
C434 C450 1.368 . S
H435 C443 0.950 . S
H436 C441 0.950 . S
H437 C442 0.949 . S
H438 C444 0.950 . S
H439 C445 0.950 . S
H440 C446 0.949 . S
C441 H436 0.950 . S
C441 C443 1.327 . S
C441 C447 1.429 . S
C442 C434 1.574 . S
C442 H437 0.949 . S
C442 C448 1.368 . S
C443 C427 1.349 . S
C443 H435 0.950 . S
C443 C441 1.327 . S
C444 C432 1.349 . S
C444 H438 0.950 . S
C444 C445 1.327 . S
C445 H439 0.950 . S
C445 C444 1.327 . S
C445 C449 1.429 . S
C446 C429 1.574 . S
C446 H440 0.949 . S
C446 C450 1.368 . S
C447 C428 1.429 . S
C447 C441 1.429 . S
C447 C448 1.523 . S
C448 C429 1.368 . S
C448 C442 1.368 . S
C448 C447 1.523 . S
C449 C433 1.429 . S
C449 C445 1.429 . S
C449 C450 1.523 . S
C450 C434 1.368 . S
C450 C446 1.368 . S
C450 C449 1.523 . S
H451 C426 0.950 . S
H452 C428 0.950 . S
H453 C429 0.949 . S
H454 C431 0.950 . S
H455 C433 0.950 . S
C456 C457 1.349 . S
C456 C458 1.327 . S
C456 H481 0.950 . S
C457 C456 1.349 . S
C457 C473 1.349 . S
C458 C456 1.327 . S
C458 C477 1.429 . S
C458 H482 0.950 . S
C459 C476 1.574 . S
C459 C478 1.368 . S
C459 H483 0.949 . S
H460 C464 0.949 . S
C461 C462 1.349 . S
C461 C463 1.327 . S
C461 H484 0.950 . S
C462 C461 1.349 . S
C462 C474 1.349 . S
C463 C461 1.327 . S
C463 C479 1.429 . S
C463 H485 0.950 . S
C464 H460 0.949 . S
C464 C472 1.574 . S
C464 C480 1.368 . S
H465 C473 0.950 . S
H466 C471 0.950 . S
H467 C472 0.949 . S
H468 C474 0.950 . S
H469 C475 0.950 . S
H470 C476 0.949 . S
C471 H466 0.950 . S
C471 C473 1.327 . S
C471 C477 1.429 . S
C472 C464 1.574 . S
C472 H467 0.949 . S
C472 C478 1.368 . S
C473 C457 1.349 . S
C473 H465 0.950 . S
C473 C471 1.327 . S
C474 C462 1.349 . S
C474 H468 0.950 . S
C474 C475 1.327 . S
C475 H469 0.950 . S
C475 C474 1.327 . S
C475 C479 1.429 . S
C476 C459 1.574 . S
C476 H470 0.949 . S
C476 C480 1.368 . S
C477 C458 1.429 . S
C477 C471 1.429 . S
C477 C478 1.523 . S
C478 C459 1.368 . S
C478 C472 1.368 . S
C478 C477 1.523 . S
C479 C463 1.429 . S
C479 C475 1.429 . S
C479 C480 1.523 . S
C480 C464 1.368 . S
C480 C476 1.368 . S
C480 C479 1.523 . S
H481 C456 0.950 . S
H482 C458 0.950 . S
H483 C459 0.949 . S
H484 C461 0.950 . S
H485 C463 0.950 . S
C486 C487 1.349 . S
C486 C488 1.327 . S
C486 H511 0.950 . S
C487 C486 1.349 . S
C487 C503 1.349 . S
C488 C486 1.327 . S
C488 C507 1.429 . S
C488 H512 0.950 . S
C489 C506 1.574 . S
C489 C508 1.368 . S
C489 H513 0.949 . S
H490 C494 0.949 . S
C491 C492 1.349 . S
C491 C493 1.327 . S
C491 H514 0.950 . S
C492 C491 1.349 . S
C492 C504 1.349 . S
C493 C491 1.327 . S
C493 C509 1.429 . S
C493 H515 0.950 . S
C494 H490 0.949 . S
C494 C502 1.574 . S
C494 C510 1.368 . S
H495 C503 0.950 . S
H496 C501 0.950 . S
H497 C502 0.949 . S
H498 C504 0.950 . S
H499 C505 0.950 . S
H500 C506 0.949 . S
C501 H496 0.950 . S
C501 C503 1.327 . S
C501 C507 1.429 . S
C502 C494 1.574 . S
C502 H497 0.949 . S
C502 C508 1.368 . S
C503 C487 1.349 . S
C503 H495 0.950 . S
C503 C501 1.327 . S
C504 C492 1.349 . S
C504 H498 0.950 . S
C504 C505 1.327 . S
C505 H499 0.950 . S
C505 C504 1.327 . S
C505 C509 1.429 . S
C506 C489 1.574 . S
C506 H500 0.949 . S
C506 C510 1.368 . S
C507 C488 1.429 . S
C507 C501 1.429 . S
C507 C508 1.523 . S
C508 C489 1.368 . S
C508 C502 1.368 . S
C508 C507 1.523 . S
C509 C493 1.429 . S
C509 C505 1.429 . S
C509 C510 1.523 . S
C510 C494 1.368 . S
C510 C506 1.368 . S
C510 C509 1.523 . S
H511 C486 0.950 . S
H512 C488 0.950 . S
H513 C489 0.949 . S
H514 C491 0.950 . S
H515 C493 0.950 . S
C516 C517 1.349 . S
C516 C518 1.327 . S
C516 H541 0.950 . S
C517 C516 1.349 . S
C517 C533 1.349 . S
C518 C516 1.327 . S
C518 C537 1.429 . S
C518 H542 0.950 . S
C519 C536 1.574 . S
C519 C538 1.368 . S
C519 H543 0.949 . S
H520 C524 0.949 . S
C521 C522 1.349 . S
C521 C523 1.327 . S
C521 H544 0.950 . S
C522 C521 1.349 . S
C522 C534 1.349 . S
C523 C521 1.327 . S
C523 C539 1.429 . S
C523 H545 0.950 . S
C524 H520 0.949 . S
C524 C532 1.574 . S
C524 C540 1.368 . S
H525 C533 0.950 . S
H526 C531 0.950 . S
H527 C532 0.949 . S
H528 C534 0.950 1_545 S
H529 C535 0.950 1_545 S
H530 C536 0.949 . S
C531 H526 0.950 . S
C531 C533 1.327 . S
C531 C537 1.429 . S
C532 C524 1.574 . S
C532 H527 0.949 . S
C532 C538 1.368 . S
C533 C517 1.349 . S
C533 H525 0.950 . S
C533 C531 1.327 . S
C534 C522 1.349 . S
C534 H528 0.950 1_565 S
C534 C535 1.327 . S
C535 H529 0.950 1_565 S
C535 C534 1.327 . S
C535 C539 1.429 . S
C536 C519 1.574 . S
C536 H530 0.949 . S
C536 C540 1.368 . S
C537 C518 1.429 . S
C537 C531 1.429 . S
C537 C538 1.523 . S
C538 C519 1.368 . S
C538 C532 1.368 . S
C538 C537 1.523 . S
C539 C523 1.429 . S
C539 C535 1.429 . S
C539 C540 1.523 . S
C540 C524 1.368 . S
C540 C536 1.368 . S
C540 C539 1.523 . S
H541 C516 0.950 . S
H542 C518 0.950 . S
H543 C519 0.949 . S
H544 C521 0.950 . S
H545 C523 0.950 . S
C192 C159 1.319 . S
C187 C133 1.477 . S
C217 C25 1.503 . S
C222 C183 1.317 . S
C247 C61 1.686 . S
C252 C162 1.466 . S
C277 C97 1.646 . S
C282 C180 1.464 . S
C312 C160 1.591 . S
C307 C1 1.617 . S
C342 C182 1.562 . S
C337 C67 1.607 . S
C367 C103 1.559 . S
C372 C161 1.513 . S
C397 C109 1.572 . S
C402 C181 1.528 . S
C432 C179 1.513 . S
C427 C37 1.587 . S
C462 C158 1.562 . S
C457 C73 1.592 . S
C492 C178 1.592 . S
C487 C139 1.578 . S
C517 C31 1.602 . S
C522 C157 1.538 . S
