# Generated by pormake.
# Topology wbl, (4,4)-cn, num edge types: 1
# Building blocks:
#     Node 0, Type 0, BuildingBlock: MIFKUJ_clean_linker_1, # of connection points: 4
#     Node 1, Type 0, BuildingBlock: MIFKUJ_clean_linker_1, # of connection points: 4
#     Node 2, Type 0, BuildingBlock: MIFKUJ_clean_linker_1, # of connection points: 4
#     Node 3, Type 0, BuildingBlock: MIFKUJ_clean_linker_1, # of connection points: 4
#     Node 4, Type 0, BuildingBlock: MIFKUJ_clean_linker_1, # of connection points: 4
#     Node 5, Type 0, BuildingBlock: MIFKUJ_clean_linker_1, # of connection points: 4
#     Node 6, Type 0, BuildingBlock: MIFKUJ_clean_linker_1, # of connection points: 4
#     Node 7, Type 0, BuildingBlock: MIFKUJ_clean_linker_1, # of connection points: 4
#     Node 8, Type 1, BuildingBlock: NAHDIM_clean_sbu_0, # of connection points: 4
#     Node 9, Type 1, BuildingBlock: NAHDIM_clean_sbu_0, # of connection points: 4
#     Node 10, Type 1, BuildingBlock: NAHDIM_clean_sbu_0, # of connection points: 4
#     Node 11, Type 1, BuildingBlock: NAHDIM_clean_sbu_0, # of connection points: 4
#     Node 12, Type 1, BuildingBlock: NAHDIM_clean_sbu_0, # of connection points: 4
#     Node 13, Type 1, BuildingBlock: NAHDIM_clean_sbu_0, # of connection points: 4
#     Node 14, Type 1, BuildingBlock: NAHDIM_clean_sbu_0, # of connection points: 4
#     Node 15, Type 1, BuildingBlock: NAHDIM_clean_sbu_0, # of connection points: 4
#     Edge 16, Type (0, 1), BuildingBlock: KIFKEQ_clean_linker_1, # of connection points: 2
#     Edge 17, Type (0, 1), BuildingBlock: KIFKEQ_clean_linker_1, # of connection points: 2
#     Edge 18, Type (0, 1), BuildingBlock: KIFKEQ_clean_linker_1, # of connection points: 2
#     Edge 19, Type (0, 1), BuildingBlock: KIFKEQ_clean_linker_1, # of connection points: 2
#     Edge 20, Type (0, 1), BuildingBlock: KIFKEQ_clean_linker_1, # of connection points: 2
#     Edge 21, Type (0, 1), BuildingBlock: KIFKEQ_clean_linker_1, # of connection points: 2
#     Edge 22, Type (0, 1), BuildingBlock: KIFKEQ_clean_linker_1, # of connection points: 2
#     Edge 23, Type (0, 1), BuildingBlock: KIFKEQ_clean_linker_1, # of connection points: 2
#     Edge 24, Type (0, 1), BuildingBlock: KIFKEQ_clean_linker_1, # of connection points: 2
#     Edge 25, Type (0, 1), BuildingBlock: KIFKEQ_clean_linker_1, # of connection points: 2
#     Edge 26, Type (0, 1), BuildingBlock: KIFKEQ_clean_linker_1, # of connection points: 2
#     Edge 27, Type (0, 1), BuildingBlock: KIFKEQ_clean_linker_1, # of connection points: 2
#     Edge 28, Type (0, 1), BuildingBlock: KIFKEQ_clean_linker_1, # of connection points: 2
#     Edge 29, Type (0, 1), BuildingBlock: KIFKEQ_clean_linker_1, # of connection points: 2
#     Edge 30, Type (0, 1), BuildingBlock: KIFKEQ_clean_linker_1, # of connection points: 2
#     Edge 31, Type (0, 1), BuildingBlock: KIFKEQ_clean_linker_1, # of connection points: 2
#     Edge 32, Type (0, 1), BuildingBlock: KIFKEQ_clean_linker_1, # of connection points: 2
#     Edge 33, Type (0, 1), BuildingBlock: KIFKEQ_clean_linker_1, # of connection points: 2
#     Edge 34, Type (0, 1), BuildingBlock: KIFKEQ_clean_linker_1, # of connection points: 2
#     Edge 35, Type (0, 1), BuildingBlock: KIFKEQ_clean_linker_1, # of connection points: 2
#     Edge 36, Type (0, 1), BuildingBlock: KIFKEQ_clean_linker_1, # of connection points: 2
#     Edge 37, Type (0, 1), BuildingBlock: KIFKEQ_clean_linker_1, # of connection points: 2
#     Edge 38, Type (0, 1), BuildingBlock: KIFKEQ_clean_linker_1, # of connection points: 2
#     Edge 39, Type (0, 1), BuildingBlock: KIFKEQ_clean_linker_1, # of connection points: 2
#     Edge 40, Type (0, 1), BuildingBlock: KIFKEQ_clean_linker_1, # of connection points: 2
#     Edge 41, Type (0, 1), BuildingBlock: KIFKEQ_clean_linker_1, # of connection points: 2
#     Edge 42, Type (0, 1), BuildingBlock: KIFKEQ_clean_linker_1, # of connection points: 2
#     Edge 43, Type (0, 1), BuildingBlock: KIFKEQ_clean_linker_1, # of connection points: 2
#     Edge 44, Type (0, 1), BuildingBlock: KIFKEQ_clean_linker_1, # of connection points: 2
#     Edge 45, Type (0, 1), BuildingBlock: KIFKEQ_clean_linker_1, # of connection points: 2
#     Edge 46, Type (0, 1), BuildingBlock: KIFKEQ_clean_linker_1, # of connection points: 2
#     Edge 47, Type (0, 1), BuildingBlock: KIFKEQ_clean_linker_1, # of connection points: 2
# Relax obj value: 0.143
# Max RMSD: 0.133
# Mean RMSD: 0.125
data_MOF--net-wbl--node1-NAHDIM_clean_sbu_0--node2-MIFKUJ_clean_linker_1--edge1-KIFKEQ_clean_linker_1
_symmetry_space_group_name_H-M    P1
_symmetry_Int_Tables_number       1
_symmetry_cell_setting            triclinic
loop_
_symmetry_equiv_pos_as_xyz
'x, y, z'
_cell_length_a     47.848141
_cell_length_b     46.303003
_cell_length_c     73.997208
_cell_angle_alpha  90.050542
_cell_angle_beta   89.995545
_cell_angle_gamma 90.031243
loop_
_atom_site_label
_atom_site_type_symbol
_atom_site_fract_x
_atom_site_fract_y
_atom_site_fract_z
_atom_type_partial_charge
H0 H 0.00339 0.07251 0.35915 0.0
H1 H 0.97279 0.10253 0.37804 0.0
H2 H 0.90391 0.0448 0.3672 0.0
H3 H 0.93445 0.01522 0.34791 0.0
H4 H 0.01104 0.00843 0.36528 0.0
H5 H 0.98018 0.07888 0.32163 0.0
H6 H 0.94137 0.10554 0.30836 0.0
H7 H 0.90901 0.0261 0.28577 0.0
H8 H 0.94703 -0.00064 0.30006 0.0
H9 H 0.01106 0.9407 0.29969 0.0
H10 H 0.04278 0.90651 0.28489 0.0
H11 H 0.1135 0.95281 0.30689 0.0
H12 H 0.08177 0.98658 0.32174 0.0
H13 H 0.00317 -0.00082 0.29864 0.0
H14 H 0.03257 0.92827 0.34067 0.0
H15 H 0.06274 0.89811 0.35954 0.0
H16 H 0.09324 0.97425 0.38683 0.0
H17 H 0.06411 0.00458 0.36738 0.0
C18 C 0.97107 0.04179 0.35215 0.0
C19 C 0.98163 0.06653 0.36072 0.0
C20 C 0.96417 0.08366 0.3714 0.0
C21 C 0.93608 0.07589 0.374 0.0
C22 C 0.92553 0.05114 0.36538 0.0
C23 C 0.94287 0.03433 0.35439 0.0
C24 C 0.98987 0.02315 0.34142 0.0
C25 C 0.00981 0.00674 0.35067 0.0
C26 C 0.98725 0.02033 0.32248 0.0
C27 C 0.96608 0.03702 0.31225 0.0
C28 C 0.96468 0.06721 0.31384 0.0
C29 C 0.94266 0.08249 0.30601 0.0
C30 C 0.92182 0.06794 0.29615 0.0
C31 C 0.92433 0.03791 0.29361 0.0
C32 C 0.94621 0.02261 0.30162 0.0
C33 C 0.04408 0.9659 0.31201 0.0
C34 C 0.03342 0.94363 0.30111 0.0
C35 C 0.05155 0.92414 0.29267 0.0
C36 C 0.08063 0.92671 0.29494 0.0
C37 C 0.09119 0.94983 0.30523 0.0
C38 C 0.07311 0.96924 0.31364 0.0
C39 C 0.025 0.98475 0.32247 0.0
C40 C 0.00483 0.00106 0.31321 0.0
C41 C 0.02719 0.98722 0.34151 0.0
C42 C 0.04631 0.96882 0.35238 0.0
C43 C 0.04628 0.93861 0.35036 0.0
C44 C 0.06339 0.92135 0.36119 0.0
C45 C 0.08023 0.93394 0.37458 0.0
C46 C 0.08032 0.96408 0.37662 0.0
C47 C 0.06366 0.98137 0.36555 0.0
H48 H 0.99105 0.44962 0.55639 0.0
H49 H 0.96495 0.41145 0.54114 0.0
H50 H 0.88738 0.45271 0.55629 0.0
H51 H 0.91374 0.4908 0.57169 0.0
H52 H 0.99444 0.50774 0.55251 0.0
H53 H 0.96296 0.44061 0.59884 0.0
H54 H 0.93162 0.4137 0.61883 0.0
H55 H 0.89084 0.49341 0.63393 0.0
H56 H 0.92234 0.52015 0.61404 0.0
H57 H 0.9879 0.5795 0.6169 0.0
H58 H 0.01774 0.60779 0.63712 0.0
H59 H 0.08984 0.55992 0.61874 0.0
H60 H 0.05982 0.53145 0.59869 0.0
H61 H 0.9791 0.52205 0.61821 0.0
H62 H 0.01147 0.58982 0.57617 0.0
H63 H 0.04613 0.6197 0.56088 0.0
H64 H 0.08316 0.5434 0.53736 0.0
H65 H 0.04871 0.51327 0.55316 0.0
C66 C 0.95436 0.47287 0.56534 0.0
C67 C 0.96843 0.45065 0.55623 0.0
C68 C 0.95345 0.42888 0.54746 0.0
C69 C 0.92404 0.42897 0.54754 0.0
C70 C 0.90999 0.45178 0.55621 0.0
C71 C 0.92502 0.47358 0.56498 0.0
C72 C 0.97049 0.49456 0.57577 0.0
C73 C 0.99128 0.51071 0.56691 0.0
C74 C 0.96569 0.49918 0.59442 0.0
C75 C 0.94491 0.48237 0.60492 0.0
C76 C 0.94691 0.45219 0.60619 0.0
C77 C 0.92896 0.43684 0.61761 0.0
C78 C 0.90887 0.45146 0.62807 0.0
C79 C 0.90638 0.48158 0.62628 0.0
C80 C 0.92427 0.49687 0.61487 0.0
C81 C 0.02166 0.55347 0.60625 0.0
C82 C 0.01017 0.57527 0.61713 0.0
C83 C 0.02725 0.59153 0.62858 0.0
C84 C 0.05612 0.58604 0.62951 0.0
C85 C 0.06764 0.56448 0.6184 0.0
C86 C 0.05056 0.54836 0.60685 0.0
C87 C 0.00324 0.53492 0.59506 0.0
C88 C 0.98208 0.51933 0.60377 0.0
C89 C 0.00748 0.53115 0.57628 0.0
C90 C 0.0278 0.54921 0.56614 0.0
C91 C 0.02722 0.5794 0.56792 0.0
C92 C 0.04702 0.59648 0.55916 0.0
C93 C 0.06753 0.58381 0.54813 0.0
C94 C 0.06756 0.55369 0.5458 0.0
C95 C 0.0479 0.5365 0.55479 0.0
H96 H 0.51142 0.56821 0.85915 0.0
H97 H 0.48108 0.59836 0.87808 0.0
H98 H 0.41152 0.54181 0.86663 0.0
H99 H 0.44186 0.51204 0.84731 0.0
H100 H 0.51822 0.50473 0.86526 0.0
H101 H 0.48387 0.57446 0.82237 0.0
H102 H 0.44433 0.59873 0.8085 0.0
H103 H 0.42091 0.51883 0.78212 0.0
H104 H 0.45875 0.49411 0.79765 0.0
H105 H 0.51956 0.43732 0.79952 0.0
H106 H 0.55134 0.40338 0.7846 0.0
H107 H 0.6219 0.44856 0.80771 0.0
H108 H 0.59007 0.48207 0.82271 0.0
H109 H 0.51209 0.49521 0.7986 0.0
H110 H 0.54011 0.42439 0.84074 0.0
H111 H 0.5686 0.39383 0.86044 0.0
H112 H 0.59791 0.46948 0.88874 0.0
H113 H 0.57066 0.50026 0.86843 0.0
C114 C 0.47876 0.53807 0.85182 0.0
C115 C 0.48956 0.56252 0.86058 0.0
C116 C 0.47225 0.57974 0.87128 0.0
C117 C 0.44404 0.57234 0.87373 0.0
C118 C 0.43323 0.54787 0.86492 0.0
C119 C 0.45045 0.53096 0.85391 0.0
C120 C 0.49755 0.51929 0.84119 0.0
C121 C 0.51734 0.50297 0.85064 0.0
C122 C 0.49525 0.5163 0.82221 0.0
C123 C 0.47372 0.53216 0.81166 0.0
C124 C 0.46994 0.56204 0.81384 0.0
C125 C 0.44753 0.57608 0.80554 0.0
C126 C 0.42891 0.56074 0.79434 0.0
C127 C 0.43413 0.53125 0.7911 0.0
C128 C 0.45609 0.51709 0.79979 0.0
C129 C 0.55247 0.46195 0.8124 0.0
C130 C 0.5419 0.44004 0.80119 0.0
C131 C 0.56007 0.42069 0.79267 0.0
C132 C 0.58912 0.42305 0.79517 0.0
C133 C 0.59961 0.44574 0.80586 0.0
C134 C 0.58147 0.465 0.81436 0.0
C135 C 0.53325 0.4809 0.82267 0.0
C136 C 0.5133 0.49717 0.81319 0.0
C137 C 0.53492 0.48338 0.84172 0.0
C138 C 0.55349 0.46476 0.85288 0.0
C139 C 0.5533 0.43456 0.85079 0.0
C140 C 0.56942 0.41706 0.86211 0.0
C141 C 0.58534 0.42941 0.87603 0.0
C142 C 0.5857 0.45954 0.87809 0.0
C143 C 0.5701 0.47707 0.86653 0.0
H144 H 0.49197 0.94331 0.05938 0.0
H145 H 0.46585 0.90597 0.04341 0.0
H146 H 0.38851 0.94939 0.05662 0.0
H147 H 0.41492 0.98659 0.07283 0.0
H148 H 0.49658 0.00171 0.05551 0.0
H149 H 0.46065 0.93456 0.10104 0.0
H150 H 0.42747 0.90913 0.12056 0.0
H151 H 0.38956 0.99065 0.13501 0.0
H152 H 0.42287 0.01588 0.11559 0.0
H153 H 0.49082 0.06872 0.12284 0.0
H154 H 0.52135 0.09382 0.14419 0.0
H155 H 0.59268 0.04862 0.12228 0.0
H156 H 0.56205 0.02331 0.10108 0.0
H157 H 0.47978 0.01425 0.12118 0.0
H158 H 0.51551 0.08232 0.0807 0.0
H159 H 0.55077 0.11179 0.06568 0.0
H160 H 0.58571 0.03534 0.04102 0.0
H161 H 0.55058 0.00563 0.05647 0.0
C162 C 0.45538 0.96755 0.06744 0.0
C163 C 0.46941 0.94498 0.05864 0.0
C164 C 0.45442 0.9237 0.04944 0.0
C165 C 0.42505 0.92465 0.04874 0.0
C166 C 0.41107 0.9478 0.05712 0.0
C167 C 0.42612 0.9691 0.06635 0.0
C168 C 0.47153 0.98868 0.07828 0.0
C169 C 0.49309 0.00434 0.0699 0.0
C170 C 0.46619 0.993 0.09688 0.0
C171 C 0.44416 0.9771 0.10684 0.0
C172 C 0.44481 0.94686 0.10812 0.0
C173 C 0.42582 0.93237 0.11927 0.0
C174 C 0.40603 0.94792 0.12944 0.0
C175 C 0.40482 0.9781 0.12757 0.0
C176 C 0.42375 0.99253 0.11643 0.0
C177 C 0.52411 0.0442 0.11029 0.0
C178 C 0.51305 0.06434 0.12255 0.0
C179 C 0.5305 0.07861 0.13477 0.0
C180 C 0.55938 0.07307 0.13495 0.0
C181 C 0.57056 0.05356 0.12232 0.0
C182 C 0.55306 0.03912 0.11018 0.0
C183 C 0.50518 0.02703 0.09854 0.0
C184 C 0.48313 0.01202 0.10674 0.0
C185 C 0.5097 0.02386 0.07973 0.0
C186 C 0.53067 0.04167 0.07 0.0
C187 C 0.53094 0.07178 0.07226 0.0
C188 C 0.5511 0.08862 0.06366 0.0
C189 C 0.57118 0.07579 0.05237 0.0
C190 C 0.57047 0.04575 0.04966 0.0
C191 C 0.55041 0.02881 0.05845 0.0
H192 H 0.99254 0.57728 0.89562 0.0
H193 H 0.02153 0.609 0.87698 0.0
H194 H 0.0951 0.56181 0.89348 0.0
H195 H 0.06589 0.52983 0.91185 0.0
H196 H 0.98783 0.51816 0.89059 0.0
H197 H 0.01363 0.58343 0.93951 0.0
H198 H 0.05027 0.61103 0.95494 0.0
H199 H 0.093 0.53154 0.96788 0.0
H200 H 0.05632 0.50406 0.95239 0.0
H201 H 0.9856 0.4386 0.94986 0.0
H202 H 0.95157 0.40792 0.96591 0.0
H203 H 0.886 0.46826 0.95262 0.0
H204 H 0.91971 0.49828 0.93628 0.0
H205 H 0.99683 0.50113 0.95655 0.0
H206 H 0.97072 0.43527 0.91047 0.0
H207 H 0.94467 0.40662 0.88845 0.0
H208 H 0.90681 0.4845 0.86765 0.0
H209 H 0.93301 0.51307 0.8897 0.0
C210 C 0.02709 0.5513 0.90515 0.0
C211 C 0.01495 0.574 0.89536 0.0
C212 C 0.03155 0.59221 0.88483 0.0
C213 C 0.06058 0.58786 0.88376 0.0
C214 C 0.07276 0.56553 0.89394 0.0
C215 C 0.05615 0.5474 0.90454 0.0
C216 C 0.0091 0.53058 0.91499 0.0
C217 C 0.98938 0.5148 0.90507 0.0
C218 C 0.01209 0.52536 0.93371 0.0
C219 C 0.03246 0.54176 0.9447 0.0
C220 C 0.03073 0.57197 0.94588 0.0
C221 C 0.05155 0.58767 0.95476 0.0
C222 C 0.07451 0.5734 0.9625 0.0
C223 C 0.07564 0.54307 0.96188 0.0
C224 C 0.05467 0.52736 0.95315 0.0
C225 C 0.95503 0.47056 0.94189 0.0
C226 C 0.96387 0.44509 0.95042 0.0
C227 C 0.94453 0.42764 0.9595 0.0
C228 C 0.91635 0.43595 0.96053 0.0
C229 C 0.90769 0.46159 0.95211 0.0
C230 C 0.92684 0.47864 0.94275 0.0
C231 C 0.97502 0.4892 0.93215 0.0
C232 C 0.9951 0.50459 0.94209 0.0
C233 C 0.97248 0.49395 0.91337 0.0
C234 C 0.95374 0.47633 0.90179 0.0
C235 C 0.95625 0.44612 0.9015 0.0
C236 C 0.94137 0.42975 0.88887 0.0
C237 C 0.92384 0.44331 0.8762 0.0
C238 C 0.92049 0.47346 0.87703 0.0
C239 C 0.93534 0.4898 0.88967 0.0
H240 H 0.48596 0.54941 0.19992 0.0
H241 H 0.4561 0.58527 0.21439 0.0
H242 H 0.383 0.54112 0.19383 0.0
H243 H 0.41294 0.50425 0.18056 0.0
H244 H 0.4946 0.49461 0.20314 0.0
H245 H 0.46141 0.55461 0.15485 0.0
H246 H 0.42961 0.57913 0.13403 0.0
H247 H 0.3929 0.49695 0.11967 0.0
H248 H 0.4248 0.47258 0.14047 0.0
H249 H 0.48758 0.41276 0.14522 0.0
H250 H 0.51574 0.38089 0.12623 0.0
H251 H 0.58891 0.43244 0.13793 0.0
H252 H 0.56064 0.4639 0.1572 0.0
H253 H 0.48019 0.47063 0.13845 0.0
H254 H 0.50905 0.41201 0.18933 0.0
H255 H 0.54447 0.38582 0.20661 0.0
H256 H 0.59107 0.46492 0.21377 0.0
H257 H 0.55525 0.49119 0.19652 0.0
C258 C 0.45176 0.52442 0.18883 0.0
C259 C 0.46348 0.54723 0.19876 0.0
C260 C 0.44634 0.56794 0.20686 0.0
C261 C 0.41707 0.56643 0.20508 0.0
C262 C 0.40538 0.54297 0.19563 0.0
C263 C 0.42254 0.52204 0.18778 0.0
C264 C 0.47007 0.50349 0.17928 0.0
C265 C 0.49159 0.48971 0.18893 0.0
C266 C 0.46604 0.49658 0.1608 0.0
C267 C 0.4454 0.51178 0.14926 0.0
C268 C 0.4462 0.54194 0.14744 0.0
C269 C 0.42798 0.55593 0.13555 0.0
C270 C 0.40881 0.53995 0.12516 0.0
C271 C 0.40769 0.50981 0.12731 0.0
C272 C 0.42584 0.49587 0.13921 0.0
C273 C 0.52202 0.44065 0.15261 0.0
C274 C 0.50977 0.41693 0.14388 0.0
C275 C 0.52587 0.39885 0.13295 0.0
C276 C 0.55452 0.40431 0.13039 0.0
C277 C 0.56698 0.42745 0.13974 0.0
C278 C 0.55084 0.44548 0.15075 0.0
C279 C 0.50419 0.46166 0.16235 0.0
C280 C 0.48297 0.47558 0.15268 0.0
C281 C 0.50859 0.46882 0.18068 0.0
C282 C 0.52964 0.45346 0.19166 0.0
C283 C 0.52681 0.42373 0.19471 0.0
C284 C 0.54695 0.40886 0.20465 0.0
C285 C 0.57042 0.42342 0.21156 0.0
C286 C 0.5732 0.45324 0.20853 0.0
C287 C 0.55276 0.46823 0.19879 0.0
H288 H 0.50776 0.93762 0.38728 0.0
H289 H 0.48198 0.90521 0.3673 0.0
H290 H 0.40418 0.94223 0.38589 0.0
H291 H 0.43027 0.97429 0.40621 0.0
H292 H 0.50337 0.99827 0.38399 0.0
H293 H 0.48483 0.92302 0.4285 0.0
H294 H 0.45133 0.89241 0.44458 0.0
H295 H 0.41292 0.96852 0.46753 0.0
H296 H 0.44631 -0.00108 0.45138 0.0
H297 H 0.50926 0.06013 0.45354 0.0
H298 H 0.54259 0.09191 0.46912 0.0
H299 H 0.60964 0.05675 0.43681 0.0
H300 H 0.57659 0.02497 0.42157 0.0
H301 H 0.50303 0.0039 0.45092 0.0
H302 H 0.51848 0.07934 0.40898 0.0
H303 H 0.5402 0.11371 0.38811 0.0
H304 H 0.57666 0.0428 0.35839 0.0
H305 H 0.55529 0.00858 0.37935 0.0
C306 C 0.47091 0.95833 0.39817 0.0
C307 C 0.48512 0.93847 0.38721 0.0
C308 C 0.47037 0.9201 0.37573 0.0
C309 C 0.44105 0.92143 0.37481 0.0
C310 C 0.42674 0.94055 0.38636 0.0
C311 C 0.44159 0.95892 0.39795 0.0
C312 C 0.48713 0.97999 0.40849 0.0
C313 C 0.50371 -0.00073 0.39864 0.0
C314 C 0.48617 0.98218 0.42754 0.0
C315 C 0.46778 0.96329 0.43851 0.0
C316 C 0.46921 0.93308 0.43702 0.0
C317 C 0.45008 0.91562 0.44621 0.0
C318 C 0.42939 0.92804 0.45725 0.0
C319 C 0.42879 0.95824 0.4593 0.0
C320 C 0.44781 0.97567 0.45003 0.0
C321 C 0.54033 0.04052 0.43615 0.0
C322 C 0.53117 0.05924 0.44988 0.0
C323 C 0.55018 0.07737 0.45875 0.0
C324 C 0.57864 0.07709 0.45399 0.0
C325 C 0.58776 0.05795 0.44048 0.0
C326 C 0.56886 0.03975 0.43176 0.0
C327 C 0.52039 0.02154 0.42637 0.0
C328 C 0.50292 0.00292 0.43627 0.0
C329 C 0.51999 0.02031 0.40725 0.0
C330 C 0.53527 0.04135 0.39576 0.0
C331 C 0.53161 0.07121 0.39819 0.0
C332 C 0.54397 0.09083 0.38625 0.0
C333 C 0.55987 0.08089 0.37154 0.0
C334 C 0.56412 0.05105 0.36943 0.0
C335 C 0.55198 0.0315 0.38143 0.0
H336 H 0.00221 0.04383 0.70702 0.0
H337 H 0.97651 0.07931 0.72476 0.0
H338 H 0.89921 0.05007 0.70054 0.0
H339 H 0.92483 0.01312 0.68399 0.0
H340 H 0.00503 0.98882 0.70501 0.0
H341 H 0.97834 0.06264 0.6619 0.0
H342 H 0.95 0.09391 0.6425 0.0
H343 H 0.90547 0.01908 0.62269 0.0
H344 H 0.93346 0.98811 0.64233 0.0
H345 H 0.99596 0.9251 0.63794 0.0
H346 H 0.02453 0.89614 0.6174 0.0
H347 H 0.09895 0.93796 0.63775 0.0
H348 H 0.07013 0.96751 0.65783 0.0
H349 H 0.99015 0.98321 0.63874 0.0
H350 H 0.01832 0.90967 0.68021 0.0
H351 H 0.05498 0.87804 0.69175 0.0
H352 H 0.09976 0.95235 0.71208 0.0
H353 H 0.06275 0.98401 0.70051 0.0
C354 C 0.96558 0.02615 0.69386 0.0
C355 C 0.97967 0.04474 0.70576 0.0
C356 C 0.96493 0.0653 0.71574 0.0
C357 C 0.93576 0.068 0.7139 0.0
C358 C 0.92159 0.04861 0.70245 0.0
C359 C 0.93631 0.02771 0.69271 0.0
C360 C 0.98162 0.00568 0.68239 0.0
C361 C 0.00185 0.98785 0.69051 0.0
C362 C 0.97724 0.00373 0.66348 0.0
C363 C 0.95793 0.02308 0.65357 0.0
C364 C 0.96204 0.0531 0.65368 0.0
C365 C 0.94599 0.07089 0.6425 0.0
C366 C 0.92558 0.05894 0.63101 0.0
C367 C 0.92077 0.029 0.63152 0.0
C368 C 0.93688 0.01124 0.64264 0.0
C369 C 0.03092 0.9483 0.64949 0.0
C370 C 0.01843 0.92796 0.63799 0.0
C371 C 0.03482 0.91125 0.62638 0.0
C372 C 0.06403 0.91469 0.62599 0.0
C373 C 0.0765 0.93496 0.63763 0.0
C374 C 0.06008 0.95167 0.64923 0.0
C375 C 0.01337 0.96671 0.66133 0.0
C376 C 0.99297 0.98409 0.65328 0.0
C377 C 0.01762 0.9683 0.68021 0.0
C378 C 0.03803 0.94917 0.68931 0.0
C379 C 0.03592 0.91913 0.68729 0.0
C380 C 0.05696 0.90112 0.69378 0.0
C381 C 0.08049 0.91277 0.70254 0.0
C382 C 0.08187 0.94277 0.7054 0.0
C383 C 0.06076 0.96085 0.69883 0.0
C384 C 0.24385 0.6812 0.00618 0.0
O385 O 0.25035 0.6818 0.02343 0.0
O386 O 0.31429 0.67105 0.02239 0.0
Zn387 Zn 0.30337 0.69232 0.99979 0.0
O388 O 0.3243 0.67439 0.97891 0.0
C389 C 0.33941 0.73836 0.00734 0.0
O390 O 0.35623 0.71601 0.00854 0.0
O391 O 0.2626 0.68652 0.99448 0.0
C392 C 0.33887 0.68779 0.96725 0.0
O393 O 0.34156 0.71596 0.96836 0.0
C394 C 0.30994 0.64417 0.02434 0.0
O395 O 0.29708 0.62985 0.01145 0.0
O396 O 0.31394 0.73411 0.00322 0.0
C397 C 0.23644 0.80806 0.24506 0.0
O398 O 0.24571 0.81281 0.22862 0.0
O399 O 0.30721 0.8161 0.2307 0.0
Zn400 Zn 0.29482 0.79558 0.25329 0.0
O401 O 0.31369 0.8147 0.27441 0.0
C402 C 0.29767 0.73491 0.24225 0.0
O403 O 0.27471 0.7403 0.23311 0.0
O404 O 0.2533 0.79908 0.25709 0.0
C405 C 0.33987 0.81184 0.27659 0.0
O406 O 0.35411 0.79629 0.26493 0.0
C407 C 0.30455 0.84328 0.22911 0.0
O408 O 0.29265 0.85794 0.24223 0.0
O409 O 0.3084 0.75468 0.25192 0.0
C410 C 0.254 0.83233 0.50047 0.0
O411 O 0.23418 0.85033 0.50539 0.0
O412 O 0.19138 0.81443 0.52269 0.0
Zn413 Zn 0.20655 0.79708 0.49971 0.0
O414 O 0.18703 0.81733 0.47921 0.0
C415 C 0.17733 0.74301 0.49279 0.0
O416 O 0.16203 0.75915 0.48208 0.0
O417 O 0.24761 0.80609 0.4975 0.0
C418 C 0.18852 0.81066 0.46258 0.0
O419 O 0.20305 0.78795 0.45759 0.0
C420 C 0.16531 0.81178 0.52553 0.0
O421 O 0.15001 0.79783 0.51364 0.0
O422 O 0.19826 0.75421 0.50077 0.0
C423 C 0.24597 0.65743 0.76357 0.0
O424 O 0.22308 0.64287 0.76721 0.0
O425 O 0.18542 0.67797 0.73464 0.0
Zn426 Zn 0.20386 0.69678 0.75616 0.0
O427 O 0.18417 0.68375 0.7788 0.0
C428 C 0.20646 0.7524 0.73914 0.0
O429 O 0.21883 0.73749 0.72632 0.0
O430 O 0.2438 0.68318 0.75777 0.0
C431 C 0.16195 0.6948 0.78516 0.0
O432 O 0.15033 0.71677 0.77684 0.0
C433 C 0.16187 0.68713 0.72914 0.0
O434 O 0.14997 0.7088 0.73763 0.0
O435 O 0.19988 0.73975 0.75376 0.0
C436 C 0.74722 0.16894 0.50816 0.0
O437 O 0.76152 0.15192 0.51893 0.0
O438 O 0.81577 0.1731 0.52489 0.0
Zn439 Zn 0.80151 0.19449 0.50286 0.0
O440 O 0.81872 0.17695 0.48037 0.0
C441 C 0.8387 0.24143 0.50767 0.0
O442 O 0.85632 0.21971 0.50696 0.0
O443 O 0.75971 0.18977 0.5004 0.0
C444 C 0.83132 0.19072 0.46794 0.0
O445 O 0.83364 0.21893 0.46902 0.0
C446 C 0.83823 0.15848 0.52416 0.0
O447 O 0.85176 0.15666 0.50875 0.0
O448 O 0.81273 0.23637 0.5058 0.0
C449 C 0.74505 0.30638 0.74382 0.0
O450 O 0.75395 0.31074 0.72725 0.0
O451 O 0.81573 0.31535 0.72952 0.0
Zn452 Zn 0.80376 0.2947 0.75223 0.0
O453 O 0.82164 0.31479 0.77353 0.0
C454 C 0.83558 0.24315 0.76048 0.0
O455 O 0.84673 0.25985 0.77289 0.0
O456 O 0.76221 0.29811 0.75586 0.0
C457 C 0.84541 0.32693 0.77245 0.0
O458 O 0.85934 0.3256 0.75717 0.0
C459 C 0.81163 0.34231 0.72771 0.0
O460 O 0.79864 0.35646 0.74062 0.0
O461 O 0.81617 0.25309 0.75053 0.0
C462 C 0.7455 0.3318 0.00305 0.0
O463 O 0.72307 0.34791 0.00489 0.0
O464 O 0.68598 0.30862 0.02799 0.0
Zn465 Zn 0.70243 0.29236 0.00504 0.0
O466 O 0.6821 0.31141 0.98439 0.0
C467 C 0.6775 0.23656 0.99713 0.0
O468 O 0.66195 0.25184 0.98608 0.0
O469 O 0.74269 0.30449 0.00317 0.0
C470 C 0.68571 0.30578 0.96774 0.0
O471 O 0.70273 0.28487 0.96297 0.0
C472 C 0.66112 0.30143 0.03205 0.0
O473 O 0.6476 0.28357 0.02137 0.0
O474 O 0.69709 0.24901 0.00576 0.0
C475 C 0.7434 0.17558 0.26971 0.0
O476 O 0.72132 0.16644 0.27855 0.0
O477 O 0.68489 0.18881 0.23189 0.0
Zn478 Zn 0.70105 0.20972 0.25336 0.0
O479 O 0.67697 0.20063 0.27501 0.0
C480 C 0.69245 0.27031 0.26054 0.0
O481 O 0.69032 0.26125 0.2773 0.0
O482 O 0.74044 0.19525 0.25786 0.0
C483 C 0.65049 0.19912 0.2743 0.0
O484 O 0.6377 0.20516 0.25905 0.0
C485 C 0.67696 0.1627 0.23323 0.0
O486 O 0.68037 0.14913 0.24865 0.0
O487 O 0.69884 0.25232 0.24823 0.0
H488 H 0.07888 0.90163 0.2613 0.0
H489 H 0.12608 0.90248 0.31106 0.0
H490 H 0.11216 0.86726 0.24836 0.0
H491 H 0.15978 0.86936 0.29799 0.0
H492 H 0.20872 0.79669 0.2765 0.0
H493 H 0.16709 0.82083 0.28791 0.0
H494 H 0.16004 0.86816 0.2378 0.0
H495 H 0.20114 0.84332 0.22619 0.0
C496 C 0.09624 0.89435 0.2695 0.0
C497 C 0.10002 0.905 0.28713 0.0
C498 C 0.11541 0.87484 0.26205 0.0
C499 C 0.13865 0.86552 0.27212 0.0
C500 C 0.14194 0.87569 0.28991 0.0
C501 C 0.12284 0.89509 0.29732 0.0
C502 C 0.19794 0.81181 0.26778 0.0
C503 C 0.20846 0.81841 0.25055 0.0
C504 C 0.17418 0.82579 0.27436 0.0
C505 C 0.16056 0.84689 0.26392 0.0
C506 C 0.16993 0.85196 0.24619 0.0
C507 C 0.19359 0.83777 0.23954 0.0
H508 H 0.09864 0.6265 0.56339 0.0
H509 H 0.0839 0.58292 0.51268 0.0
H510 H 0.12984 0.66039 0.5483 0.0
H511 H 0.11553 0.61678 0.4975 0.0
H512 H 0.19722 0.70825 0.51981 0.0
H513 H 0.17502 0.66506 0.53208 0.0
H514 H 0.11182 0.66945 0.49052 0.0
H515 H 0.13406 0.71244 0.47814 0.0
C516 C 0.10235 0.62403 0.54902 0.0
C517 C 0.08867 0.6023 0.53916 0.0
C518 C 0.12045 0.64322 0.54041 0.0
C519 C 0.12514 0.64125 0.5217 0.0
C520 C 0.11219 0.6189 0.51192 0.0
C521 C 0.09424 0.59945 0.5206 0.0
C522 C 0.17895 0.69966 0.51304 0.0
C523 C 0.16718 0.71403 0.49814 0.0
C524 C 0.16616 0.675 0.52013 0.0
C525 C 0.14149 0.66408 0.5124 0.0
C526 C 0.13088 0.67724 0.49673 0.0
C527 C 0.14356 0.702 0.4897 0.0
H528 H 0.3774 0.53626 0.78884 0.0
H529 H 0.42154 0.61741 0.78367 0.0
H530 H 0.33478 0.55936 0.77916 0.0
H531 H 0.37797 0.6412 0.7757 0.0
H532 H 0.29691 0.67243 0.74926 0.0
H533 H 0.34185 0.64867 0.75453 0.0
H534 H 0.30164 0.58969 0.79167 0.0
H535 H 0.25704 0.6123 0.78563 0.0
C536 C 0.37821 0.559 0.78552 0.0
C537 C 0.40316 0.57486 0.78717 0.0
C538 C 0.35345 0.57246 0.78029 0.0
C539 C 0.35263 0.60236 0.77701 0.0
C540 C 0.37771 0.61813 0.77807 0.0
C541 C 0.4027 0.60452 0.78295 0.0
C542 C 0.29783 0.6543 0.75848 0.0
C543 C 0.27348 0.64405 0.76691 0.0
C544 C 0.32357 0.64075 0.76158 0.0
C545 C 0.32546 0.61698 0.7734 0.0
C546 C 0.30103 0.60729 0.78206 0.0
C547 C 0.27538 0.62045 0.77872 0.0
H548 H 0.37686 0.8989 0.0606 0.0
H549 H 0.43755 0.89597 0.01737 0.0
H550 H 0.35405 0.85605 0.04829 0.0
H551 H 0.41498 0.85281 0.00531 0.0
H552 H 0.39377 0.75505 0.00961 0.0
H553 H 0.41205 0.80247 0.01744 0.0
H554 H 0.32794 0.83568 0.02134 0.0
H555 H 0.30947 0.78793 0.01345 0.0
C556 C 0.385 0.8895 0.04827 0.0
C557 C 0.40923 0.9007 0.04008 0.0
C558 C 0.37193 0.86492 0.04124 0.0
C559 C 0.38291 0.85096 0.02595 0.0
C560 C 0.40634 0.86288 0.01729 0.0
C561 C 0.4193 0.88754 0.02423 0.0
C562 C 0.37913 0.77247 0.012 0.0
C563 C 0.35017 0.76772 0.011 0.0
C564 C 0.38962 0.79971 0.01635 0.0
C565 C 0.37142 0.82278 0.01996 0.0
C566 C 0.34243 0.81821 0.0187 0.0
C567 C 0.33189 0.79095 0.01412 0.0
H568 H 0.07258 0.61915 0.98602 0.0
H569 H 0.12976 0.56571 0.95566 0.0
H570 H 0.11205 0.64812 0.99706 0.0
H571 H 0.16895 0.59444 0.96667 0.0
H572 H 0.22678 0.67113 0.97159 0.0
H573 H 0.18454 0.6465 0.96172 0.0
H574 H 0.15641 0.64071 0.01701 0.0
H575 H 0.19895 0.66539 0.02708 0.0
C576 C 0.09357 0.61359 0.98177 0.0
C577 C 0.09817 0.59017 0.97004 0.0
C578 C 0.11608 0.63004 0.98813 0.0
C579 C 0.14346 0.62362 0.98259 0.0
C580 C 0.14801 0.60006 0.97099 0.0
C581 C 0.12563 0.58344 0.96484 0.0
C582 C 0.21151 0.66498 0.98169 0.0
C583 C 0.2164 0.66997 0.00016 0.0
C584 C 0.18738 0.65073 0.97601 0.0
C585 C 0.16745 0.64138 0.98863 0.0
C586 C 0.17149 0.64772 0.00702 0.0
C587 C 0.19584 0.66179 0.01275 0.0
H588 H 0.42794 0.62446 0.20605 0.0
H589 H 0.36479 0.56165 0.22042 0.0
H590 H 0.39808 0.66297 0.21723 0.0
H591 H 0.33445 0.60066 0.23095 0.0
H592 H 0.28114 0.68692 0.22326 0.0
H593 H 0.30942 0.64442 0.21596 0.0
H594 H 0.37754 0.67899 0.24752 0.0
H595 H 0.3495 0.72123 0.25492 0.0
C596 C 0.40788 0.61874 0.2118 0.0
C597 C 0.39893 0.58981 0.21239 0.0
C598 C 0.39072 0.64088 0.21812 0.0
C599 C 0.36402 0.63474 0.22499 0.0
C600 C 0.3549 0.60595 0.2256 0.0
C601 C 0.37226 0.58367 0.21949 0.0
C602 C 0.302 0.68524 0.22884 0.0
C603 C 0.31314 0.70758 0.23953 0.0
C604 C 0.31812 0.66089 0.22472 0.0
C605 C 0.34572 0.65864 0.23105 0.0
C606 C 0.35643 0.68039 0.2423 0.0
C607 C 0.34028 0.70451 0.24658 0.0
H608 H 0.40068 0.8831 0.44213 0.0
H609 H 0.40825 0.93222 0.49154 0.0
H610 H 0.36099 0.85705 0.45476 0.0
H611 H 0.36859 0.90602 0.50425 0.0
H612 H 0.27385 0.88649 0.50685 0.0
H613 H 0.31885 0.90643 0.49826 0.0
H614 H 0.34417 0.82315 0.4776 0.0
H615 H 0.29864 0.80317 0.48594 0.0
C616 C 0.39427 0.88787 0.45585 0.0
C617 C 0.40746 0.9099 0.46578 0.0
C618 C 0.37152 0.8729 0.46311 0.0
C619 C 0.36147 0.87961 0.48047 0.0
C620 C 0.3755 0.90071 0.49071 0.0
C621 C 0.39821 0.91571 0.48344 0.0
C622 C 0.28907 0.87229 0.50064 0.0
C623 C 0.28255 0.84329 0.49694 0.0
C624 C 0.31501 0.8837 0.49584 0.0
C625 C 0.33512 0.86641 0.4872 0.0
C626 C 0.32899 0.83711 0.48405 0.0
C627 C 0.30298 0.82564 0.48891 0.0
H628 H 0.10998 0.91323 0.73436 0.0
H629 H 0.10373 0.86907 0.68308 0.0
H630 H 0.14639 0.87936 0.74385 0.0
H631 H 0.13915 0.83482 0.6927 0.0
H632 H 0.21355 0.78476 0.70858 0.0
H633 H 0.1879 0.82817 0.70011 0.0
H634 H 0.14726 0.82857 0.75225 0.0
H635 H 0.17335 0.7857 0.76089 0.0
C636 C 0.11656 0.89646 0.72507 0.0
C637 C 0.10376 0.89355 0.70807 0.0
C638 C 0.13726 0.87698 0.73054 0.0
C639 C 0.14565 0.85435 0.71905 0.0
C640 C 0.13349 0.85218 0.70182 0.0
C641 C 0.11284 0.87155 0.69639 0.0
C642 C 0.1996 0.79447 0.71838 0.0
C643 C 0.19518 0.78151 0.7353 0.0
C644 C 0.18477 0.81925 0.71348 0.0
C645 C 0.16517 0.83154 0.72538 0.0
C646 C 0.16228 0.81977 0.74278 0.0
C647 C 0.17717 0.79506 0.7477 0.0
H648 H 0.58746 0.3992 0.76118 0.0
H649 H 0.63455 0.39824 0.81099 0.0
H650 H 0.62071 0.36527 0.74781 0.0
H651 H 0.66827 0.36563 0.79747 0.0
H652 H 0.7174 0.29394 0.77508 0.0
H653 H 0.67569 0.31758 0.78678 0.0
H654 H 0.66846 0.36637 0.73724 0.0
H655 H 0.70961 0.34199 0.72532 0.0
C656 C 0.60479 0.39161 0.7693 0.0
C657 C 0.60853 0.40162 0.78709 0.0
C658 C 0.62395 0.37236 0.7616 0.0
C659 C 0.64717 0.36269 0.77155 0.0
C660 C 0.65044 0.37223 0.78948 0.0
C661 C 0.63133 0.39135 0.79715 0.0
C662 C 0.70655 0.30927 0.76655 0.0
C663 C 0.71702 0.31641 0.74939 0.0
C664 C 0.68275 0.32297 0.77329 0.0
C665 C 0.66907 0.34434 0.76311 0.0
C666 C 0.67839 0.34995 0.74543 0.0
C667 C 0.70207 0.33602 0.7386 0.0
H668 H 0.60288 0.11809 0.0676 0.0
H669 H 0.58735 0.0748 0.01688 0.0
H670 H 0.6338 0.15205 0.0524 0.0
H671 H 0.61886 0.10861 0.0016 0.0
H672 H 0.69886 0.20219 0.02388 0.0
H673 H 0.67815 0.15815 0.03602 0.0
H674 H 0.61477 0.16062 0.99449 0.0
H675 H 0.63562 0.20434 0.98219 0.0
C676 C 0.60639 0.11565 0.05321 0.0
C677 C 0.59248 0.09405 0.04338 0.0
C678 C 0.62437 0.13488 0.04453 0.0
C679 C 0.62876 0.13303 0.02578 0.0
C680 C 0.61573 0.11067 0.01604 0.0
C681 C 0.59786 0.09124 0.02479 0.0
C682 C 0.6809 0.19298 0.01708 0.0
C683 C 0.66861 0.20705 0.00224 0.0
C684 C 0.66896 0.16783 0.0241 0.0
C685 C 0.64459 0.15616 0.01638 0.0
C686 C 0.63361 0.16897 0.00071 0.0
C687 C 0.64549 0.19417 0.99372 0.0
H688 H 0.91822 0.12274 0.2819 0.0
H689 H 0.86784 0.04881 0.29648 0.0
H690 H 0.87581 0.14993 0.27501 0.0
H691 H 0.82588 0.07531 0.28867 0.0
H692 H 0.75686 0.13957 0.29726 0.0
H693 H 0.8005 0.11427 0.30228 0.0
H694 H 0.83563 0.15419 0.25464 0.0
H695 H 0.79176 0.18033 0.24983 0.0
C696 C 0.89817 0.11218 0.28347 0.0
C697 C 0.89649 0.08362 0.28987 0.0
C698 C 0.87389 0.12768 0.27933 0.0
C699 C 0.84745 0.11492 0.28151 0.0
C700 C 0.84589 0.086 0.28719 0.0
C701 C 0.87005 0.07061 0.2914 0.0
C702 C 0.77387 0.14309 0.28785 0.0
C703 C 0.77078 0.16181 0.27307 0.0
C704 C 0.79887 0.12838 0.29066 0.0
C705 C 0.82142 0.13181 0.27869 0.0
C706 C 0.81866 0.15114 0.26414 0.0
C707 C 0.79355 0.16606 0.26136 0.0
H708 H 0.93491 0.40084 0.51573 0.0
H709 H 0.87767 0.40168 0.5609 0.0
H710 H 0.91224 0.35747 0.50405 0.0
H711 H 0.85486 0.3585 0.5491 0.0
H712 H 0.80853 0.29005 0.51604 0.0
H713 H 0.82686 0.33793 0.52365 0.0
H714 H 0.91092 0.30703 0.51482 0.0
H715 H 0.89277 0.25955 0.50715 0.0
C716 C 0.91741 0.39186 0.52312 0.0
C717 C 0.9083 0.40457 0.53934 0.0
C718 C 0.9044 0.36707 0.51641 0.0
C719 C 0.8819 0.35446 0.52573 0.0
C720 C 0.87195 0.36788 0.54151 0.0
C721 C 0.88504 0.39264 0.54826 0.0
C722 C 0.83089 0.29361 0.51556 0.0
C723 C 0.84921 0.27098 0.51108 0.0
C724 C 0.84137 0.32096 0.51999 0.0
C725 C 0.87032 0.32624 0.51982 0.0
C726 C 0.8885 0.30378 0.51485 0.0
C727 C 0.87808 0.27648 0.51059 0.0
H728 H 0.61974 0.10927 0.43838 0.0
H729 H 0.58388 0.08794 0.49023 0.0
H730 H 0.65694 0.13599 0.45336 0.0
H731 H 0.62084 0.11545 0.50531 0.0
H732 H 0.71356 0.19542 0.48323 0.0
H733 H 0.66884 0.1781 0.47164 0.0
H734 H 0.67101 0.10726 0.50956 0.0
H735 H 0.71536 0.12478 0.52135 0.0
C736 C 0.61965 0.11061 0.453 0.0
C737 C 0.59911 0.09622 0.46314 0.0
C738 C 0.64078 0.12622 0.46159 0.0
C739 C 0.64191 0.12779 0.48055 0.0
C740 C 0.62067 0.11441 0.49069 0.0
C741 C 0.59941 0.09886 0.48206 0.0
C742 C 0.70425 0.17646 0.48932 0.0
C743 C 0.71822 0.16126 0.50305 0.0
C744 C 0.67869 0.16646 0.48262 0.0
C745 C 0.66653 0.14111 0.48953 0.0
C746 C 0.67968 0.12696 0.50401 0.0
C747 C 0.70524 0.13692 0.5107 0.0
H748 H 0.95381 0.12325 0.72009 0.0
H749 H 0.88274 0.06702 0.72848 0.0
H750 H 0.92838 0.16283 0.734 0.0
H751 H 0.8569 0.10735 0.74173 0.0
H752 H 0.81523 0.20089 0.73815 0.0
H753 H 0.8387 0.15625 0.7291 0.0
H754 H 0.90737 0.17633 0.76479 0.0
H755 H 0.88399 0.22078 0.77396 0.0
C756 C 0.93296 0.11911 0.72514 0.0
C757 C 0.92044 0.09177 0.72317 0.0
C758 C 0.91835 0.1419 0.73305 0.0
C759 C 0.89072 0.13809 0.73896 0.0
C760 C 0.87814 0.11085 0.73716 0.0
C761 C 0.89292 0.08784 0.72948 0.0
C762 C 0.83514 0.19556 0.74426 0.0
C763 C 0.84788 0.2145 0.75664 0.0
C764 C 0.84847 0.16996 0.73915 0.0
C765 C 0.87491 0.16303 0.74616 0.0
C766 C 0.8871 0.18135 0.75907 0.0
C767 C 0.87365 0.20673 0.76435 0.0
H768 H 0.90326 0.37948 0.95443 0.0
H769 H 0.8826 0.45253 0.98804 0.0
H770 H 0.86383 0.35258 0.96709 0.0
H771 H 0.84407 0.42547 0.00138 0.0
H772 H 0.75593 0.38898 0.99862 0.0
H773 H 0.79961 0.41201 0.99074 0.0
H774 H 0.84137 0.32925 0.99215 0.0
H775 H 0.79692 0.30586 0.99948 0.0
C776 C 0.89065 0.38942 0.96489 0.0
C777 C 0.89559 0.41808 0.97015 0.0
C778 C 0.86815 0.37404 0.9722 0.0
C779 C 0.85045 0.38701 0.98506 0.0
C780 C 0.85675 0.41507 0.99115 0.0
C781 C 0.8789 0.43053 0.98364 0.0
C782 C 0.77441 0.37562 0.99741 0.0
C783 C 0.77289 0.34555 0.99962 0.0
C784 C 0.79963 0.38891 0.99302 0.0
C785 C 0.82417 0.37256 0.9909 0.0
C786 C 0.82283 0.34247 0.99351 0.0
C787 C 0.79741 0.32908 0.99779 0.0
H788 H 0.56266 0.38555 0.23918 0.0
H789 H 0.62689 0.42416 0.20611 0.0
H790 H 0.59734 0.354 0.25302 0.0
H791 H 0.66186 0.39258 0.22008 0.0
H792 H 0.69476 0.29631 0.22741 0.0
H793 H 0.66899 0.33893 0.2177 0.0
H794 H 0.64013 0.3523 0.27236 0.0
H795 H 0.66579 0.30956 0.28212 0.0
C796 C 0.58431 0.38753 0.23508 0.0
C797 C 0.5921 0.40708 0.2215 0.0
C798 C 0.60423 0.36969 0.24312 0.0
C799 C 0.63232 0.37082 0.23762 0.0
C800 C 0.64032 0.39119 0.22452 0.0
C801 C 0.62039 0.40932 0.21661 0.0
C802 C 0.68345 0.30869 0.23745 0.0
C803 C 0.68195 0.29925 0.25547 0.0
C804 C 0.66881 0.33323 0.23189 0.0
C805 C 0.65226 0.34871 0.24424 0.0
C806 C 0.65242 0.34052 0.26252 0.0
C807 C 0.66723 0.3161 0.2681 0.0
H808 H 0.0788 0.93446 0.41118 0.0
H809 H 0.11813 0.89207 0.36594 0.0
H810 H 0.10482 0.90405 0.432 0.0
H811 H 0.14562 0.86247 0.38672 0.0
H812 H 0.1707 0.7949 0.42885 0.0
H813 H 0.14445 0.8242 0.40733 0.0
H814 H 0.14869 0.89669 0.44417 0.0
H815 H 0.17333 0.86689 0.46592 0.0
C816 C 0.0934 0.91883 0.40575 0.0
C817 C 0.09662 0.91563 0.38703 0.0
C818 C 0.10849 0.90147 0.41766 0.0
C819 C 0.12765 0.88086 0.41113 0.0
C820 C 0.13082 0.87775 0.39229 0.0
C821 C 0.11526 0.8948 0.38037 0.0
C822 C 0.16595 0.81711 0.43227 0.0
C823 C 0.17381 0.82855 0.4491 0.0
C824 C 0.15105 0.83401 0.41991 0.0
C825 C 0.14416 0.86287 0.42399 0.0
C826 C 0.15283 0.87439 0.44068 0.0
C827 C 0.16718 0.85736 0.45314 0.0
H828 H 0.09531 0.56361 0.65228 0.0
H829 H 0.05659 0.64399 0.63665 0.0
H830 H 0.12197 0.58876 0.6755 0.0
H831 H 0.08368 0.66941 0.65965 0.0
H832 H 0.10915 0.69743 0.71667 0.0
H833 H 0.08513 0.67372 0.69178 0.0
H834 H 0.15881 0.62251 0.68109 0.0
H835 H 0.18257 0.64564 0.70641 0.0
C836 C 0.09289 0.58677 0.65361 0.0
C837 C 0.07381 0.60182 0.64269 0.0
C838 C 0.10821 0.60123 0.6669 0.0
C839 C 0.10492 0.63113 0.66952 0.0
C840 C 0.08635 0.64629 0.65825 0.0
C841 C 0.07089 0.63178 0.64503 0.0
C842 C 0.12028 0.68117 0.70899 0.0
C843 C 0.14773 0.67333 0.71358 0.0
C844 C 0.10655 0.6677 0.69461 0.0
C845 C 0.12002 0.64619 0.68438 0.0
C846 C 0.14766 0.63867 0.68883 0.0
C847 C 0.16133 0.65203 0.7033 0.0
H848 H 0.41401 0.55258 0.90229 0.0
H849 H 0.43493 0.63043 0.87334 0.0
H850 H 0.38803 0.5808 0.9244 0.0
H851 H 0.40763 0.65884 0.89481 0.0
H852 H 0.38413 0.7043 0.94733 0.0
H853 H 0.40843 0.67655 0.92421 0.0
H854 H 0.3482 0.6075 0.93035 0.0
H855 H 0.32507 0.63465 0.95418 0.0
C856 C 0.4125 0.57576 0.9005 0.0
C857 C 0.42641 0.5894 0.88619 0.0
C858 C 0.3975 0.592 0.91311 0.0
C859 C 0.39563 0.62225 0.91149 0.0
C860 C 0.40903 0.63572 0.89679 0.0
C861 C 0.42449 0.61949 0.88438 0.0
C862 C 0.37612 0.6832 0.94369 0.0
C863 C 0.35285 0.67156 0.95263 0.0
C864 C 0.38992 0.66731 0.93031 0.0
C865 C 0.3804 0.63962 0.92533 0.0
C866 C 0.35661 0.62839 0.93405 0.0
C867 C 0.34319 0.64404 0.94765 0.0
H868 H 0.37772 0.89667 0.12574 0.0
H869 H 0.39434 0.96536 0.16378 0.0
H870 H 0.35022 0.87144 0.14868 0.0
H871 H 0.36727 0.9402 0.18665 0.0
H872 H 0.29951 0.90039 0.22041 0.0
H873 H 0.32093 0.92578 0.19512 0.0
H874 H 0.35773 0.8458 0.17667 0.0
H875 H 0.33568 0.82029 0.20166 0.0
C876 C 0.37548 0.90636 0.13899 0.0
C877 C 0.38811 0.93305 0.14292 0.0
C878 C 0.35978 0.89192 0.15214 0.0
C879 C 0.35648 0.90381 0.16952 0.0
C880 C 0.36887 0.93067 0.17332 0.0
C881 C 0.38444 0.94511 0.1602 0.0
C882 C 0.31198 0.88818 0.21087 0.0
C883 C 0.31605 0.85836 0.21312 0.0
C884 C 0.32438 0.90276 0.19642 0.0
C885 C 0.34126 0.88789 0.18393 0.0
C886 C 0.34463 0.85789 0.1859 0.0
C887 C 0.33212 0.84329 0.20031 0.0
H888 H 0.05903 0.64635 0.87831 0.0
H889 H 0.10035 0.56855 0.86038 0.0
H890 H 0.08509 0.67428 0.85593 0.0
H891 H 0.12594 0.59615 0.83787 0.0
H892 H 0.18427 0.65494 0.80811 0.0
H893 H 0.16166 0.63127 0.83354 0.0
H894 H 0.08664 0.68083 0.82375 0.0
H895 H 0.10966 0.70524 0.79864 0.0
C896 C 0.07371 0.63526 0.86959 0.0
C897 C 0.0777 0.60529 0.87112 0.0
C898 C 0.08857 0.65121 0.85674 0.0
C899 C 0.1076 0.63748 0.84506 0.0
C900 C 0.11187 0.60756 0.84684 0.0
C901 C 0.09717 0.59169 0.85974 0.0
C902 C 0.16301 0.66096 0.81146 0.0
C903 C 0.14868 0.68183 0.80128 0.0
C904 C 0.14999 0.64726 0.826 0.0
C905 C 0.12222 0.65391 0.83061 0.0
C906 C 0.10815 0.67539 0.82072 0.0
C907 C 0.12128 0.68928 0.80625 0.0
H908 H 0.39785 0.52195 0.09077 0.0
H909 H 0.38012 0.59094 0.12838 0.0
H910 H 0.37119 0.54681 0.06753 0.0
H911 H 0.35316 0.61585 0.1051 0.0
H912 H 0.34086 0.66683 0.05197 0.0
H913 H 0.36215 0.64119 0.07713 0.0
H914 H 0.32482 0.56152 0.05855 0.0
H915 H 0.30403 0.58708 0.03307 0.0
C916 C 0.38782 0.5422 0.09417 0.0
C917 C 0.39111 0.55448 0.11142 0.0
C918 C 0.37249 0.55646 0.08084 0.0
C919 C 0.36002 0.58334 0.08443 0.0
C920 C 0.36284 0.59537 0.10181 0.0
C921 C 0.37826 0.58111 0.11514 0.0
C922 C 0.337 0.64388 0.05331 0.0
C923 C 0.32092 0.62895 0.04042 0.0
C924 C 0.34908 0.6292 0.06782 0.0
C925 C 0.3453 0.59926 0.06982 0.0
C926 C 0.3285 0.5845 0.05724 0.0
C927 C 0.31647 0.59918 0.04268 0.0
H928 H 0.39141 0.89209 0.37855 0.0
H929 H 0.45598 0.91231 0.33973 0.0
H930 H 0.36654 0.86431 0.35544 0.0
H931 H 0.43132 0.88465 0.31682 0.0
H932 H 0.39537 0.80991 0.28506 0.0
H933 H 0.41934 0.83489 0.30954 0.0
H934 H 0.34099 0.87198 0.32694 0.0
H935 H 0.31685 0.84656 0.30261 0.0
C936 C 0.40024 0.89068 0.3651 0.0
C937 C 0.4258 0.90419 0.36103 0.0
C938 C 0.38601 0.87479 0.35187 0.0
C939 C 0.39707 0.87211 0.33433 0.0
C940 C 0.42253 0.88576 0.33029 0.0
C941 C 0.43668 0.90161 0.34345 0.0
C942 C 0.38321 0.82329 0.29413 0.0
C943 C 0.35422 0.82635 0.29182 0.0
C944 C 0.39697 0.83771 0.30812 0.0
C945 C 0.38209 0.85555 0.32012 0.0
C946 C 0.35301 0.85818 0.31803 0.0
C947 C 0.33922 0.84375 0.30401 0.0
H948 H 0.10749 0.93417 0.60533 0.0
H949 H 0.0593 0.85752 0.61706 0.0
H950 H 0.13355 0.90773 0.58237 0.0
H951 H 0.08537 0.83104 0.59406 0.0
H952 H 0.11066 0.80823 0.53566 0.0
H953 H 0.08799 0.83173 0.56114 0.0
H954 H 0.1671 0.86845 0.57746 0.0
H955 H 0.18982 0.84524 0.55169 0.0
C956 C 0.10278 0.91154 0.60322 0.0
C957 C 0.08121 0.89799 0.61295 0.0
C958 C 0.11773 0.89638 0.59006 0.0
C959 C 0.11143 0.86733 0.58633 0.0
C960 C 0.0904 0.85355 0.59641 0.0
C961 C 0.07546 0.8687 0.60957 0.0
C962 C 0.12329 0.82119 0.54471 0.0
C963 C 0.15203 0.82497 0.5416 0.0
C964 C 0.11031 0.8345 0.55941 0.0
C965 C 0.12574 0.85194 0.57134 0.0
C966 C 0.15459 0.85538 0.5684 0.0
C967 C 0.16762 0.84198 0.55369 0.0
H968 H 0.6249 0.38849 0.86898 0.0
H969 H 0.57886 0.42851 0.91236 0.0
H970 H 0.65005 0.35864 0.89083 0.0
H971 H 0.6024 0.39769 0.93417 0.0
H972 H 0.66714 0.36085 0.97133 0.0
H973 H 0.64417 0.39062 0.94884 0.0
H974 H 0.64759 0.31978 0.91071 0.0
H975 H 0.67229 0.29065 0.93307 0.0
C976 C 0.62005 0.39061 0.88323 0.0
C977 C 0.60025 0.41088 0.88909 0.0
C978 C 0.63425 0.37339 0.89576 0.0
C979 C 0.62847 0.37572 0.91439 0.0
C980 C 0.60809 0.39572 0.92007 0.0
C981 C 0.5944 0.41329 0.90758 0.0
C982 C 0.66296 0.35166 0.95813 0.0
C983 C 0.67138 0.32341 0.95396 0.0
C984 C 0.64958 0.36867 0.94522 0.0
C985 C 0.64362 0.35765 0.9279 0.0
C986 C 0.65212 0.32926 0.92376 0.0
C987 C 0.66611 0.31243 0.9366 0.0
H988 H 0.54878 0.07822 0.17097 0.0
H989 H 0.61098 0.09778 0.13048 0.0
H990 H 0.57859 0.09939 0.19418 0.0
H991 H 0.64113 0.1186 0.15385 0.0
H992 H 0.6688 0.18335 0.19897 0.0
H993 H 0.64133 0.16133 0.17478 0.0
H994 H 0.62385 0.08815 0.20911 0.0
H995 H 0.6511 0.11013 0.23333 0.0
C996 C 0.56877 0.0872 0.16703 0.0
C997 C 0.5775 0.08646 0.1489 0.0
C998 C 0.58598 0.09902 0.18035 0.0
C999 C 0.61224 0.11051 0.17584 0.0
C1000 C 0.62093 0.11001 0.15769 0.0
C1001 C 0.60378 0.09794 0.14436 0.0
C1002 C 0.65926 0.16247 0.20132 0.0
C1003 C 0.66202 0.14855 0.21811 0.0
C1004 C 0.64364 0.14982 0.18743 0.0
C1005 C 0.63031 0.12312 0.19011 0.0
C1006 C 0.63358 0.10894 0.20675 0.0
C1007 C 0.64934 0.12146 0.22058 0.0
H1008 H 0.90703 0.05622 0.40299 0.0
H1009 H 0.92554 0.13371 0.37302 0.0
H1010 H 0.88066 0.08437 0.42493 0.0
H1011 H 0.89775 0.162 0.39429 0.0
H1012 H 0.87461 0.20828 0.44665 0.0
H1013 H 0.89853 0.18074 0.42331 0.0
H1014 H 0.84051 0.11014 0.43122 0.0
H1015 H 0.81783 0.13717 0.45532 0.0
C1016 C 0.9049 0.07929 0.40095 0.0
C1017 C 0.91828 0.09287 0.3864 0.0
C1018 C 0.88964 0.09549 0.41346 0.0
C1019 C 0.88695 0.12563 0.4115 0.0
C1020 C 0.89979 0.139 0.39654 0.0
C1021 C 0.91554 0.12283 0.38425 0.0
C1022 C 0.86694 0.18692 0.44332 0.0
C1023 C 0.84449 0.1748 0.45287 0.0
C1024 C 0.88053 0.17112 0.42982 0.0
C1025 C 0.87162 0.14302 0.4253 0.0
C1026 C 0.84849 0.13136 0.43455 0.0
C1027 C 0.8353 0.14694 0.4483 0.0
H1028 H 0.88281 0.39893 0.62445 0.0
H1029 H 0.89689 0.46818 0.66253 0.0
H1030 H 0.85665 0.3724 0.64746 0.0
H1031 H 0.87106 0.44176 0.68545 0.0
H1032 H 0.80437 0.3991 0.71892 0.0
H1033 H 0.82506 0.42538 0.69374 0.0
H1034 H 0.86543 0.34711 0.67557 0.0
H1035 H 0.84416 0.32067 0.70048 0.0
C1036 C 0.88033 0.40846 0.63772 0.0
C1037 C 0.89184 0.4357 0.64164 0.0
C1038 C 0.86538 0.39327 0.65091 0.0
C1039 C 0.86169 0.40497 0.6683 0.0
C1040 C 0.87298 0.43234 0.67211 0.0
C1041 C 0.88783 0.4475 0.65895 0.0
C1042 C 0.81748 0.38744 0.70948 0.0
C1043 C 0.82276 0.35783 0.71178 0.0
C1044 C 0.82946 0.40254 0.69508 0.0
C1045 C 0.84709 0.38841 0.6827 0.0
C1046 C 0.85172 0.35861 0.68473 0.0
C1047 C 0.83966 0.34348 0.69909 0.0
H1048 H 0.58747 0.13189 0.37745 0.0
H1049 H 0.55731 0.07605 0.33493 0.0
H1050 H 0.60702 0.16466 0.35474 0.0
H1051 H 0.57712 0.10838 0.31235 0.0
H1052 H 0.59547 0.18313 0.27541 0.0
H1053 H 0.57139 0.15776 0.29977 0.0
H1054 H 0.64612 0.1619 0.33239 0.0
H1055 H 0.67017 0.18743 0.30816 0.0
C1056 C 0.58488 0.12676 0.36327 0.0
C1057 C 0.57109 0.10133 0.35795 0.0
C1058 C 0.59617 0.14539 0.35029 0.0
C1059 C 0.59355 0.1391 0.33177 0.0
C1060 C 0.5792 0.11399 0.3265 0.0
C1061 C 0.56816 0.0953 0.33943 0.0
C1062 C 0.60664 0.17903 0.28788 0.0
C1063 C 0.63481 0.18707 0.28979 0.0
C1064 C 0.59289 0.16436 0.30178 0.0
C1065 C 0.60696 0.15763 0.31792 0.0
C1066 C 0.63468 0.16695 0.32017 0.0
C1067 C 0.64849 0.18143 0.30623 0.0
H1068 H 0.9485 0.10042 0.60949 0.0
H1069 H 0.87024 0.0579 0.62135 0.0
H1070 H 0.92636 0.12627 0.58466 0.0
H1071 H 0.84821 0.08335 0.59615 0.0
H1072 H 0.81419 0.15418 0.55772 0.0
H1073 H 0.83438 0.1325 0.5849 0.0
H1074 H 0.90866 0.11032 0.55479 0.0
H1075 H 0.88874 0.13199 0.52778 0.0
C1076 C 0.92644 0.09696 0.60699 0.0
C1077 C 0.91113 0.07704 0.61735 0.0
C1078 C 0.91385 0.11151 0.59263 0.0
C1079 C 0.88565 0.10658 0.58834 0.0
C1080 C 0.86997 0.08765 0.59918 0.0
C1081 C 0.88262 0.07293 0.61351 0.0
C1082 C 0.83482 0.14466 0.55692 0.0
C1083 C 0.84987 0.14483 0.54059 0.0
C1084 C 0.84632 0.13219 0.57246 0.0
C1085 C 0.87318 0.11992 0.572 0.0
C1086 C 0.88811 0.12003 0.55565 0.0
C1087 C 0.87658 0.13226 0.54013 0.0
H1088 H 0.92018 0.45781 0.84056 0.0
H1089 H 0.89837 0.3903 0.87829 0.0
H1090 H 0.90069 0.42941 0.8159 0.0
H1091 H 0.87959 0.3614 0.85343 0.0
H1092 H 0.82257 0.33288 0.80616 0.0
H1093 H 0.84074 0.36097 0.83149 0.0
H1094 H 0.91249 0.38515 0.79946 0.0
H1095 H 0.89421 0.35747 0.77406 0.0
C1096 C 0.91099 0.437 0.84362 0.0
C1097 C 0.91073 0.42636 0.86141 0.0
C1098 C 0.90016 0.42055 0.82944 0.0
C1099 C 0.88878 0.39307 0.83269 0.0
C1100 C 0.88807 0.38257 0.85051 0.0
C1101 C 0.89902 0.39901 0.86472 0.0
C1102 C 0.84226 0.34413 0.80453 0.0
C1103 C 0.8569 0.34302 0.78806 0.0
C1104 C 0.85272 0.36011 0.81909 0.0
C1105 C 0.87798 0.37539 0.81745 0.0
C1106 C 0.89276 0.37397 0.80105 0.0
C1107 C 0.88236 0.35794 0.78653 0.0
H1108 H 0.53754 0.38607 0.09712 0.0
H1109 H 0.60849 0.38437 0.13323 0.0
H1110 H 0.56412 0.35949 0.07466 0.0
H1111 H 0.63531 0.35772 0.11053 0.0
H1112 H 0.68111 0.34244 0.0555 0.0
H1113 H 0.65597 0.36566 0.0803 0.0
H1114 H 0.5841 0.31186 0.06947 0.0
H1115 H 0.60891 0.28906 0.04457 0.0
C1116 C 0.55868 0.3796 0.1004 0.0
C1117 C 0.57079 0.38717 0.11705 0.0
C1118 C 0.57396 0.36438 0.08748 0.0
C1119 C 0.60178 0.35634 0.09084 0.0
C1120 C 0.61398 0.36383 0.10749 0.0
C1121 C 0.59863 0.37908 0.12048 0.0
C1122 C 0.66001 0.33544 0.05851 0.0
C1123 C 0.64691 0.3141 0.04795 0.0
C1124 C 0.64567 0.34863 0.07278 0.0
C1125 C 0.61796 0.34076 0.07675 0.0
C1126 C 0.60525 0.31877 0.06655 0.0
C1127 C 0.61954 0.30561 0.05232 0.0
loop_
_geom_bond_atom_site_label_1
_geom_bond_atom_site_label_2
_geom_bond_distance
_geom_bond_site_symmetry_2
_ccdc_geom_bond_type
H0 C19 0.949 . S
H1 C20 0.950 . S
H2 C22 0.950 . S
H3 C23 0.950 . S
H4 C25 0.950 . S
H5 C28 0.950 . S
H6 C29 0.950 . S
H7 C31 0.951 . S
H8 C32 0.949 1_565 S
H9 C34 0.949 . S
H10 C35 0.950 . S
H11 C37 0.950 . S
H12 C38 0.950 . S
H13 C40 0.950 . S
H14 C43 0.950 . S
H15 C44 0.950 . S
H16 C46 0.951 . S
H17 C47 0.949 1_545 S
C18 C19 1.376 . S
C18 C23 1.386 . S
C18 C24 1.483 . S
C19 H0 0.949 . S
C19 C18 1.376 . S
C19 C20 1.397 . S
C20 H1 0.950 . S
C20 C19 1.397 . S
C20 C21 1.391 . S
C21 C20 1.391 . S
C21 C22 1.405 . S
C22 H2 0.950 . S
C22 C21 1.405 . S
C22 C23 1.367 . S
C23 H3 0.950 . S
C23 C18 1.386 . S
C23 C22 1.367 . S
C24 C18 1.483 . S
C24 C25 1.382 1_655 S
C24 C26 1.403 . S
C25 H4 0.950 . S
C25 C24 1.382 1_455 S
C25 C41 1.411 1_545 S
C26 C24 1.403 . S
C26 C27 1.489 . S
C26 C40 1.411 1_545 S
C27 C26 1.489 . S
C27 C28 1.383 . S
C27 C32 1.382 . S
C28 H5 0.950 . S
C28 C27 1.383 . S
C28 C29 1.395 . S
C29 H6 0.950 . S
C29 C28 1.395 . S
C29 C30 1.288 . S
C30 C29 1.288 . S
C30 C31 1.392 . S
C31 H7 0.951 . S
C31 C30 1.392 . S
C31 C32 1.392 . S
C32 H8 0.949 1_545 S
C32 C27 1.382 . S
C32 C31 1.392 . S
C33 C34 1.376 . S
C33 C38 1.386 . S
C33 C39 1.483 . S
C34 H9 0.949 . S
C34 C33 1.376 . S
C34 C35 1.397 . S
C35 H10 0.950 . S
C35 C34 1.397 . S
C35 C36 1.391 . S
C36 C35 1.391 . S
C36 C37 1.405 . S
C37 H11 0.950 . S
C37 C36 1.405 . S
C37 C38 1.367 . S
C38 H12 0.950 . S
C38 C33 1.386 . S
C38 C37 1.367 . S
C39 C33 1.483 . S
C39 C40 1.382 1_455 S
C39 C41 1.403 . S
C40 H13 0.950 . S
C40 C26 1.411 1_565 S
C40 C39 1.382 1_655 S
C41 C25 1.411 1_565 S
C41 C39 1.403 . S
C41 C42 1.489 . S
C42 C41 1.489 . S
C42 C43 1.383 . S
C42 C47 1.382 . S
C43 H14 0.950 . S
C43 C42 1.383 . S
C43 C44 1.395 . S
C44 H15 0.950 . S
C44 C43 1.395 . S
C44 C45 1.288 . S
C45 C44 1.288 . S
C45 C46 1.392 . S
C46 H16 0.951 . S
C46 C45 1.392 . S
C46 C47 1.392 . S
C47 H17 0.949 1_565 S
C47 C42 1.382 . S
C47 C46 1.392 . S
H48 C67 0.949 1_455 S
H49 C68 0.950 . S
H50 C70 0.950 . S
H51 C71 0.950 . S
H52 C73 0.950 . S
H53 C76 0.950 . S
H54 C77 0.950 . S
H55 C79 0.951 . S
H56 C80 0.949 . S
H57 C82 0.949 1_655 S
H58 C83 0.950 . S
H59 C85 0.950 . S
H60 C86 0.950 . S
H61 C88 0.950 . S
H62 C91 0.950 . S
H63 C92 0.950 . S
H64 C94 0.951 . S
H65 C95 0.949 . S
C66 C67 1.376 . S
C66 C71 1.386 . S
C66 C72 1.483 . S
C67 H48 0.949 1_655 S
C67 C66 1.376 . S
C67 C68 1.397 . S
C68 H49 0.950 . S
C68 C67 1.397 . S
C68 C69 1.391 . S
C69 C68 1.391 . S
C69 C70 1.405 . S
C70 H50 0.950 . S
C70 C69 1.405 . S
C70 C71 1.367 . S
C71 H51 0.950 . S
C71 C66 1.386 . S
C71 C70 1.367 . S
C72 C66 1.483 . S
C72 C73 1.382 1_655 S
C72 C74 1.403 . S
C73 H52 0.950 . S
C73 C72 1.382 1_455 S
C73 C89 1.411 . S
C74 C72 1.403 . S
C74 C75 1.489 . S
C74 C88 1.411 . S
C75 C74 1.489 . S
C75 C76 1.383 . S
C75 C80 1.382 . S
C76 H53 0.950 . S
C76 C75 1.383 . S
C76 C77 1.395 . S
C77 H54 0.950 . S
C77 C76 1.395 . S
C77 C78 1.288 . S
C78 C77 1.288 . S
C78 C79 1.392 . S
C79 H55 0.951 . S
C79 C78 1.392 . S
C79 C80 1.392 . S
C80 H56 0.949 . S
C80 C75 1.382 . S
C80 C79 1.392 . S
C81 C82 1.376 . S
C81 C86 1.386 . S
C81 C87 1.483 . S
C82 H57 0.949 1_455 S
C82 C81 1.376 . S
C82 C83 1.397 . S
C83 H58 0.950 . S
C83 C82 1.397 . S
C83 C84 1.391 . S
C84 C83 1.391 . S
C84 C85 1.405 . S
C85 H59 0.950 . S
C85 C84 1.405 . S
C85 C86 1.367 . S
C86 H60 0.950 . S
C86 C81 1.386 . S
C86 C85 1.367 . S
C87 C81 1.483 . S
C87 C88 1.382 1_455 S
C87 C89 1.403 . S
C88 H61 0.950 . S
C88 C74 1.411 . S
C88 C87 1.382 1_655 S
C89 C73 1.411 . S
C89 C87 1.403 . S
C89 C90 1.489 . S
C90 C89 1.489 . S
C90 C91 1.383 . S
C90 C95 1.382 . S
C91 H62 0.950 . S
C91 C90 1.383 . S
C91 C92 1.395 . S
C92 H63 0.950 . S
C92 C91 1.395 . S
C92 C93 1.288 . S
C93 C92 1.288 . S
C93 C94 1.392 . S
C94 H64 0.951 . S
C94 C93 1.392 . S
C94 C95 1.392 . S
C95 H65 0.949 . S
C95 C90 1.382 . S
C95 C94 1.392 . S
H96 C115 0.949 . S
H97 C116 0.950 . S
H98 C118 0.950 . S
H99 C119 0.950 . S
H100 C121 0.950 . S
H101 C124 0.950 . S
H102 C125 0.950 . S
H103 C127 0.951 . S
H104 C128 0.949 . S
H105 C130 0.949 . S
H106 C131 0.950 . S
H107 C133 0.950 . S
H108 C134 0.950 . S
H109 C136 0.950 . S
H110 C139 0.950 . S
H111 C140 0.950 . S
H112 C142 0.951 . S
H113 C143 0.949 . S
C114 C115 1.376 . S
C114 C119 1.386 . S
C114 C120 1.483 . S
C115 H96 0.949 . S
C115 C114 1.376 . S
C115 C116 1.397 . S
C116 H97 0.950 . S
C116 C115 1.397 . S
C116 C117 1.391 . S
C117 C116 1.391 . S
C117 C118 1.405 . S
C118 H98 0.950 . S
C118 C117 1.405 . S
C118 C119 1.367 . S
C119 H99 0.950 . S
C119 C114 1.386 . S
C119 C118 1.367 . S
C120 C114 1.483 . S
C120 C121 1.382 . S
C120 C122 1.403 . S
C121 H100 0.950 . S
C121 C120 1.382 . S
C121 C137 1.411 . S
C122 C120 1.403 . S
C122 C123 1.489 . S
C122 C136 1.411 . S
C123 C122 1.489 . S
C123 C124 1.383 . S
C123 C128 1.382 . S
C124 H101 0.950 . S
C124 C123 1.383 . S
C124 C125 1.395 . S
C125 H102 0.950 . S
C125 C124 1.395 . S
C125 C126 1.288 . S
C126 C125 1.288 . S
C126 C127 1.392 . S
C127 H103 0.951 . S
C127 C126 1.392 . S
C127 C128 1.392 . S
C128 H104 0.949 . S
C128 C123 1.382 . S
C128 C127 1.392 . S
C129 C130 1.376 . S
C129 C134 1.386 . S
C129 C135 1.483 . S
C130 H105 0.949 . S
C130 C129 1.376 . S
C130 C131 1.397 . S
C131 H106 0.950 . S
C131 C130 1.397 . S
C131 C132 1.391 . S
C132 C131 1.391 . S
C132 C133 1.405 . S
C133 H107 0.950 . S
C133 C132 1.405 . S
C133 C134 1.367 . S
C134 H108 0.950 . S
C134 C129 1.386 . S
C134 C133 1.367 . S
C135 C129 1.483 . S
C135 C136 1.382 . S
C135 C137 1.403 . S
C136 H109 0.950 . S
C136 C122 1.411 . S
C136 C135 1.382 . S
C137 C121 1.411 . S
C137 C135 1.403 . S
C137 C138 1.489 . S
C138 C137 1.489 . S
C138 C139 1.383 . S
C138 C143 1.382 . S
C139 H110 0.950 . S
C139 C138 1.383 . S
C139 C140 1.395 . S
C140 H111 0.950 . S
C140 C139 1.395 . S
C140 C141 1.288 . S
C141 C140 1.288 . S
C141 C142 1.392 . S
C142 H112 0.951 . S
C142 C141 1.392 . S
C142 C143 1.392 . S
C143 H113 0.949 . S
C143 C138 1.382 . S
C143 C142 1.392 . S
H144 C163 0.949 . S
H145 C164 0.950 . S
H146 C166 0.950 . S
H147 C167 0.950 . S
H148 C169 0.950 . S
H149 C172 0.950 . S
H150 C173 0.950 . S
H151 C175 0.951 . S
H152 C176 0.949 . S
H153 C178 0.949 . S
H154 C179 0.950 . S
H155 C181 0.950 . S
H156 C182 0.950 . S
H157 C184 0.950 . S
H158 C187 0.950 . S
H159 C188 0.950 . S
H160 C190 0.951 . S
H161 C191 0.949 . S
C162 C163 1.376 . S
C162 C167 1.386 . S
C162 C168 1.483 . S
C163 H144 0.949 . S
C163 C162 1.376 . S
C163 C164 1.397 . S
C164 H145 0.950 . S
C164 C163 1.397 . S
C164 C165 1.391 . S
C165 C164 1.391 . S
C165 C166 1.405 . S
C166 H146 0.950 . S
C166 C165 1.405 . S
C166 C167 1.367 . S
C167 H147 0.950 . S
C167 C162 1.386 . S
C167 C166 1.367 . S
C168 C162 1.483 . S
C168 C169 1.382 . S
C168 C170 1.403 . S
C169 H148 0.950 . S
C169 C168 1.382 . S
C169 C185 1.411 1_565 S
C170 C168 1.403 . S
C170 C171 1.489 . S
C170 C184 1.411 1_565 S
C171 C170 1.489 . S
C171 C172 1.383 . S
C171 C176 1.382 . S
C172 H149 0.950 . S
C172 C171 1.383 . S
C172 C173 1.395 . S
C173 H150 0.950 . S
C173 C172 1.395 . S
C173 C174 1.288 . S
C174 C173 1.288 . S
C174 C175 1.392 . S
C175 H151 0.951 . S
C175 C174 1.392 . S
C175 C176 1.392 . S
C176 H152 0.949 . S
C176 C171 1.382 . S
C176 C175 1.392 . S
C177 C178 1.376 . S
C177 C182 1.386 . S
C177 C183 1.483 . S
C178 H153 0.949 . S
C178 C177 1.376 . S
C178 C179 1.397 . S
C179 H154 0.950 . S
C179 C178 1.397 . S
C179 C180 1.391 . S
C180 C179 1.391 . S
C180 C181 1.405 . S
C181 H155 0.950 . S
C181 C180 1.405 . S
C181 C182 1.367 . S
C182 H156 0.950 . S
C182 C177 1.386 . S
C182 C181 1.367 . S
C183 C177 1.483 . S
C183 C184 1.382 . S
C183 C185 1.403 . S
C184 H157 0.950 . S
C184 C170 1.411 1_545 S
C184 C183 1.382 . S
C185 C169 1.411 1_545 S
C185 C183 1.403 . S
C185 C186 1.489 . S
C186 C185 1.489 . S
C186 C187 1.383 . S
C186 C191 1.382 . S
C187 H158 0.950 . S
C187 C186 1.383 . S
C187 C188 1.395 . S
C188 H159 0.950 . S
C188 C187 1.395 . S
C188 C189 1.288 . S
C189 C188 1.288 . S
C189 C190 1.392 . S
C190 H160 0.951 . S
C190 C189 1.392 . S
C190 C191 1.392 . S
C191 H161 0.949 . S
C191 C186 1.382 . S
C191 C190 1.392 . S
H192 C211 0.949 . S
H193 C212 0.950 . S
H194 C214 0.950 . S
H195 C215 0.950 . S
H196 C217 0.950 . S
H197 C220 0.950 . S
H198 C221 0.950 . S
H199 C223 0.951 . S
H200 C224 0.949 . S
H201 C226 0.949 . S
H202 C227 0.950 . S
H203 C229 0.950 . S
H204 C230 0.950 . S
H205 C232 0.950 . S
H206 C235 0.950 . S
H207 C236 0.950 . S
H208 C238 0.951 . S
H209 C239 0.949 . S
C210 C211 1.376 . S
C210 C215 1.386 . S
C210 C216 1.483 . S
C211 H192 0.949 . S
C211 C210 1.376 . S
C211 C212 1.397 . S
C212 H193 0.950 . S
C212 C211 1.397 . S
C212 C213 1.391 . S
C213 C212 1.391 . S
C213 C214 1.405 . S
C214 H194 0.950 . S
C214 C213 1.405 . S
C214 C215 1.367 . S
C215 H195 0.950 . S
C215 C210 1.386 . S
C215 C214 1.367 . S
C216 C210 1.483 . S
C216 C217 1.382 1_455 S
C216 C218 1.403 . S
C217 H196 0.950 . S
C217 C216 1.382 1_655 S
C217 C233 1.411 . S
C218 C216 1.403 . S
C218 C219 1.489 . S
C218 C232 1.411 . S
C219 C218 1.489 . S
C219 C220 1.383 . S
C219 C224 1.382 . S
C220 H197 0.950 . S
C220 C219 1.383 . S
C220 C221 1.395 . S
C221 H198 0.950 . S
C221 C220 1.395 . S
C221 C222 1.288 . S
C222 C221 1.288 . S
C222 C223 1.392 . S
C223 H199 0.951 . S
C223 C222 1.392 . S
C223 C224 1.392 . S
C224 H200 0.949 . S
C224 C219 1.382 . S
C224 C223 1.392 . S
C225 C226 1.376 . S
C225 C230 1.386 . S
C225 C231 1.483 . S
C226 H201 0.949 . S
C226 C225 1.376 . S
C226 C227 1.397 . S
C227 H202 0.950 . S
C227 C226 1.397 . S
C227 C228 1.391 . S
C228 C227 1.391 . S
C228 C229 1.405 . S
C229 H203 0.950 . S
C229 C228 1.405 . S
C229 C230 1.367 . S
C230 H204 0.950 . S
C230 C225 1.386 . S
C230 C229 1.367 . S
C231 C225 1.483 . S
C231 C232 1.382 1_655 S
C231 C233 1.403 . S
C232 H205 0.950 . S
C232 C218 1.411 . S
C232 C231 1.382 1_455 S
C233 C217 1.411 . S
C233 C231 1.403 . S
C233 C234 1.489 . S
C234 C233 1.489 . S
C234 C235 1.383 . S
C234 C239 1.382 . S
C235 H206 0.950 . S
C235 C234 1.383 . S
C235 C236 1.395 . S
C236 H207 0.950 . S
C236 C235 1.395 . S
C236 C237 1.288 . S
C237 C236 1.288 . S
C237 C238 1.392 . S
C238 H208 0.951 . S
C238 C237 1.392 . S
C238 C239 1.392 . S
C239 H209 0.949 . S
C239 C234 1.382 . S
C239 C238 1.392 . S
H240 C259 0.949 . S
H241 C260 0.950 . S
H242 C262 0.950 . S
H243 C263 0.950 . S
H244 C265 0.950 . S
H245 C268 0.950 . S
H246 C269 0.950 . S
H247 C271 0.951 . S
H248 C272 0.949 . S
H249 C274 0.949 . S
H250 C275 0.950 . S
H251 C277 0.950 . S
H252 C278 0.950 . S
H253 C280 0.950 . S
H254 C283 0.950 . S
H255 C284 0.950 . S
H256 C286 0.951 . S
H257 C287 0.949 . S
C258 C259 1.376 . S
C258 C263 1.386 . S
C258 C264 1.483 . S
C259 H240 0.949 . S
C259 C258 1.376 . S
C259 C260 1.397 . S
C260 H241 0.950 . S
C260 C259 1.397 . S
C260 C261 1.391 . S
C261 C260 1.391 . S
C261 C262 1.405 . S
C262 H242 0.950 . S
C262 C261 1.405 . S
C262 C263 1.367 . S
C263 H243 0.950 . S
C263 C258 1.386 . S
C263 C262 1.367 . S
C264 C258 1.483 . S
C264 C265 1.382 . S
C264 C266 1.403 . S
C265 H244 0.950 . S
C265 C264 1.382 . S
C265 C281 1.411 . S
C266 C264 1.403 . S
C266 C267 1.489 . S
C266 C280 1.411 . S
C267 C266 1.489 . S
C267 C268 1.383 . S
C267 C272 1.382 . S
C268 H245 0.950 . S
C268 C267 1.383 . S
C268 C269 1.395 . S
C269 H246 0.950 . S
C269 C268 1.395 . S
C269 C270 1.288 . S
C270 C269 1.288 . S
C270 C271 1.392 . S
C271 H247 0.951 . S
C271 C270 1.392 . S
C271 C272 1.392 . S
C272 H248 0.949 . S
C272 C267 1.382 . S
C272 C271 1.392 . S
C273 C274 1.376 . S
C273 C278 1.386 . S
C273 C279 1.483 . S
C274 H249 0.949 . S
C274 C273 1.376 . S
C274 C275 1.397 . S
C275 H250 0.950 . S
C275 C274 1.397 . S
C275 C276 1.391 . S
C276 C275 1.391 . S
C276 C277 1.405 . S
C277 H251 0.950 . S
C277 C276 1.405 . S
C277 C278 1.367 . S
C278 H252 0.950 . S
C278 C273 1.386 . S
C278 C277 1.367 . S
C279 C273 1.483 . S
C279 C280 1.382 . S
C279 C281 1.403 . S
C280 H253 0.950 . S
C280 C266 1.411 . S
C280 C279 1.382 . S
C281 C265 1.411 . S
C281 C279 1.403 . S
C281 C282 1.489 . S
C282 C281 1.489 . S
C282 C283 1.383 . S
C282 C287 1.382 . S
C283 H254 0.950 . S
C283 C282 1.383 . S
C283 C284 1.395 . S
C284 H255 0.950 . S
C284 C283 1.395 . S
C284 C285 1.288 . S
C285 C284 1.288 . S
C285 C286 1.392 . S
C286 H256 0.951 . S
C286 C285 1.392 . S
C286 C287 1.392 . S
C287 H257 0.949 . S
C287 C282 1.382 . S
C287 C286 1.392 . S
H288 C307 0.949 . S
H289 C308 0.950 . S
H290 C310 0.950 . S
H291 C311 0.950 . S
H292 C313 0.950 . S
H293 C316 0.950 . S
H294 C317 0.950 . S
H295 C319 0.951 . S
H296 C320 0.949 1_545 S
H297 C322 0.949 . S
H298 C323 0.950 . S
H299 C325 0.950 . S
H300 C326 0.950 . S
H301 C328 0.950 . S
H302 C331 0.950 . S
H303 C332 0.950 . S
H304 C334 0.951 . S
H305 C335 0.949 1_565 S
C306 C307 1.376 . S
C306 C311 1.386 . S
C306 C312 1.483 . S
C307 H288 0.949 . S
C307 C306 1.376 . S
C307 C308 1.397 . S
C308 H289 0.950 . S
C308 C307 1.397 . S
C308 C309 1.391 . S
C309 C308 1.391 . S
C309 C310 1.405 . S
C310 H290 0.950 . S
C310 C309 1.405 . S
C310 C311 1.367 . S
C311 H291 0.950 . S
C311 C306 1.386 . S
C311 C310 1.367 . S
C312 C306 1.483 . S
C312 C313 1.382 . S
C312 C314 1.403 . S
C313 H292 0.950 . S
C313 C312 1.382 . S
C313 C329 1.411 1_565 S
C314 C312 1.403 . S
C314 C315 1.489 . S
C314 C328 1.411 1_565 S
C315 C314 1.489 . S
C315 C316 1.383 . S
C315 C320 1.382 . S
C316 H293 0.950 . S
C316 C315 1.383 . S
C316 C317 1.395 . S
C317 H294 0.950 . S
C317 C316 1.395 . S
C317 C318 1.288 . S
C318 C317 1.288 . S
C318 C319 1.392 . S
C319 H295 0.951 . S
C319 C318 1.392 . S
C319 C320 1.392 . S
C320 H296 0.949 1_565 S
C320 C315 1.382 . S
C320 C319 1.392 . S
C321 C322 1.376 . S
C321 C326 1.386 . S
C321 C327 1.483 . S
C322 H297 0.949 . S
C322 C321 1.376 . S
C322 C323 1.397 . S
C323 H298 0.950 . S
C323 C322 1.397 . S
C323 C324 1.391 . S
C324 C323 1.391 . S
C324 C325 1.405 . S
C325 H299 0.950 . S
C325 C324 1.405 . S
C325 C326 1.367 . S
C326 H300 0.950 . S
C326 C321 1.386 . S
C326 C325 1.367 . S
C327 C321 1.483 . S
C327 C328 1.382 . S
C327 C329 1.403 . S
C328 H301 0.950 . S
C328 C314 1.411 1_545 S
C328 C327 1.382 . S
C329 C313 1.411 1_545 S
C329 C327 1.403 . S
C329 C330 1.489 . S
C330 C329 1.489 . S
C330 C331 1.383 . S
C330 C335 1.382 . S
C331 H302 0.950 . S
C331 C330 1.383 . S
C331 C332 1.395 . S
C332 H303 0.950 . S
C332 C331 1.395 . S
C332 C333 1.288 . S
C333 C332 1.288 . S
C333 C334 1.392 . S
C334 H304 0.951 . S
C334 C333 1.392 . S
C334 C335 1.392 . S
C335 H305 0.949 1_545 S
C335 C330 1.382 . S
C335 C334 1.392 . S
H336 C355 0.949 1_455 S
H337 C356 0.950 . S
H338 C358 0.950 . S
H339 C359 0.950 . S
H340 C361 0.950 . S
H341 C364 0.950 . S
H342 C365 0.950 . S
H343 C367 0.951 . S
H344 C368 0.949 . S
H345 C370 0.949 1_655 S
H346 C371 0.950 . S
H347 C373 0.950 . S
H348 C374 0.950 . S
H349 C376 0.950 . S
H350 C379 0.950 . S
H351 C380 0.950 . S
H352 C382 0.951 . S
H353 C383 0.949 . S
C354 C355 1.376 . S
C354 C359 1.386 . S
C354 C360 1.483 . S
C355 H336 0.949 1_655 S
C355 C354 1.376 . S
C355 C356 1.397 . S
C356 H337 0.950 . S
C356 C355 1.397 . S
C356 C357 1.391 . S
C357 C356 1.391 . S
C357 C358 1.405 . S
C358 H338 0.950 . S
C358 C357 1.405 . S
C358 C359 1.367 . S
C359 H339 0.950 . S
C359 C354 1.386 . S
C359 C358 1.367 . S
C360 C354 1.483 . S
C360 C361 1.382 1_655 S
C360 C362 1.403 . S
C361 H340 0.950 . S
C361 C360 1.382 1_455 S
C361 C377 1.411 1_545 S
C362 C360 1.403 . S
C362 C363 1.489 . S
C362 C376 1.411 1_545 S
C363 C362 1.489 . S
C363 C364 1.383 . S
C363 C368 1.382 . S
C364 H341 0.950 . S
C364 C363 1.383 . S
C364 C365 1.395 . S
C365 H342 0.950 . S
C365 C364 1.395 . S
C365 C366 1.288 . S
C366 C365 1.288 . S
C366 C367 1.392 . S
C367 H343 0.951 . S
C367 C366 1.392 . S
C367 C368 1.392 . S
C368 H344 0.949 . S
C368 C363 1.382 . S
C368 C367 1.392 . S
C369 C370 1.376 . S
C369 C374 1.386 . S
C369 C375 1.483 . S
C370 H345 0.949 1_455 S
C370 C369 1.376 . S
C370 C371 1.397 . S
C371 H346 0.950 . S
C371 C370 1.397 . S
C371 C372 1.391 . S
C372 C371 1.391 . S
C372 C373 1.405 . S
C373 H347 0.950 . S
C373 C372 1.405 . S
C373 C374 1.367 . S
C374 H348 0.950 . S
C374 C369 1.386 . S
C374 C373 1.367 . S
C375 C369 1.483 . S
C375 C376 1.382 1_455 S
C375 C377 1.403 . S
C376 H349 0.950 . S
C376 C362 1.411 1_565 S
C376 C375 1.382 1_655 S
C377 C361 1.411 1_565 S
C377 C375 1.403 . S
C377 C378 1.489 . S
C378 C377 1.489 . S
C378 C379 1.383 . S
C378 C383 1.382 . S
C379 H350 0.950 . S
C379 C378 1.383 . S
C379 C380 1.395 . S
C380 H351 0.950 . S
C380 C379 1.395 . S
C380 C381 1.288 . S
C381 C380 1.288 . S
C381 C382 1.392 . S
C382 H352 0.951 . S
C382 C381 1.392 . S
C382 C383 1.392 . S
C383 H353 0.949 . S
C383 C378 1.382 . S
C383 C382 1.392 . S
C384 O385 1.160 1_556 S
C384 O391 1.185 . S
O385 C384 1.160 1_554 S
O386 Zn387 1.899 . S
O386 C394 1.284 . S
Zn387 O386 1.899 . S
Zn387 O388 2.032 1_554 S
Zn387 O391 2.086 1_554 S
Zn387 O396 1.977 . S
O388 Zn387 2.032 1_556 S
O388 C392 1.278 . S
C389 O390 1.203 . S
C389 O396 1.267 . S
O390 C389 1.203 . S
O391 C384 1.185 . S
O391 Zn387 2.086 1_556 S
C392 O388 1.278 . S
C392 O393 1.211 . S
O393 C392 1.211 . S
C394 O386 1.284 . S
C394 O395 1.273 . S
O395 C394 1.273 . S
O396 Zn387 1.977 . S
O396 C389 1.267 . S
C397 O398 1.160 . S
C397 O404 1.185 . S
O398 C397 1.160 . S
O399 Zn400 1.899 . S
O399 C407 1.284 . S
Zn400 O399 1.899 . S
Zn400 O401 2.032 . S
Zn400 O404 2.086 . S
Zn400 O409 1.977 . S
O401 Zn400 2.032 . S
O401 C405 1.278 . S
C402 O403 1.203 . S
C402 O409 1.267 . S
O403 C402 1.203 . S
O404 C397 1.185 . S
O404 Zn400 2.086 . S
C405 O401 1.278 . S
C405 O406 1.211 . S
O406 C405 1.211 . S
C407 O399 1.284 . S
C407 O408 1.273 . S
O408 C407 1.273 . S
O409 Zn400 1.977 . S
O409 C402 1.267 . S
C410 O411 1.160 . S
C410 O417 1.185 . S
O411 C410 1.160 . S
O412 Zn413 1.899 . S
O412 C420 1.284 . S
Zn413 O412 1.899 . S
Zn413 O414 2.032 . S
Zn413 O417 2.086 . S
Zn413 O422 1.977 . S
O414 Zn413 2.032 . S
O414 C418 1.278 . S
C415 O416 1.203 . S
C415 O422 1.267 . S
O416 C415 1.203 . S
O417 C410 1.185 . S
O417 Zn413 2.086 . S
C418 O414 1.278 . S
C418 O419 1.211 . S
O419 C418 1.211 . S
C420 O412 1.284 . S
C420 O421 1.273 . S
O421 C420 1.273 . S
O422 Zn413 1.977 . S
O422 C415 1.267 . S
C423 O424 1.160 . S
C423 O430 1.185 . S
O424 C423 1.160 . S
O425 Zn426 1.899 . S
O425 C433 1.284 . S
Zn426 O425 1.899 . S
Zn426 O427 2.032 . S
Zn426 O430 2.086 . S
Zn426 O435 1.977 . S
O427 Zn426 2.032 . S
O427 C431 1.278 . S
C428 O429 1.203 . S
C428 O435 1.267 . S
O429 C428 1.203 . S
O430 C423 1.185 . S
O430 Zn426 2.086 . S
C431 O427 1.278 . S
C431 O432 1.211 . S
O432 C431 1.211 . S
C433 O425 1.284 . S
C433 O434 1.273 . S
O434 C433 1.273 . S
O435 Zn426 1.977 . S
O435 C428 1.267 . S
C436 O437 1.160 . S
C436 O443 1.185 . S
O437 C436 1.160 . S
O438 Zn439 1.899 . S
O438 C446 1.284 . S
Zn439 O438 1.899 . S
Zn439 O440 2.032 . S
Zn439 O443 2.086 . S
Zn439 O448 1.977 . S
O440 Zn439 2.032 . S
O440 C444 1.278 . S
C441 O442 1.203 . S
C441 O448 1.267 . S
O442 C441 1.203 . S
O443 C436 1.185 . S
O443 Zn439 2.086 . S
C444 O440 1.278 . S
C444 O445 1.211 . S
O445 C444 1.211 . S
C446 O438 1.284 . S
C446 O447 1.273 . S
O447 C446 1.273 . S
O448 Zn439 1.977 . S
O448 C441 1.267 . S
C449 O450 1.160 . S
C449 O456 1.185 . S
O450 C449 1.160 . S
O451 Zn452 1.899 . S
O451 C459 1.284 . S
Zn452 O451 1.899 . S
Zn452 O453 2.032 . S
Zn452 O456 2.086 . S
Zn452 O461 1.977 . S
O453 Zn452 2.032 . S
O453 C457 1.278 . S
C454 O455 1.203 . S
C454 O461 1.267 . S
O455 C454 1.203 . S
O456 C449 1.185 . S
O456 Zn452 2.086 . S
C457 O453 1.278 . S
C457 O458 1.211 . S
O458 C457 1.211 . S
C459 O451 1.284 . S
C459 O460 1.273 . S
O460 C459 1.273 . S
O461 Zn452 1.977 . S
O461 C454 1.267 . S
C462 O463 1.160 1_556 S
C462 O469 1.185 . S
O463 C462 1.160 1_554 S
O464 Zn465 1.899 . S
O464 C472 1.284 . S
Zn465 O464 1.899 . S
Zn465 O466 2.032 1_554 S
Zn465 O469 2.086 1_554 S
Zn465 O474 1.977 . S
O466 Zn465 2.032 1_556 S
O466 C470 1.278 . S
C467 O468 1.203 . S
C467 O474 1.267 . S
O468 C467 1.203 . S
O469 C462 1.185 . S
O469 Zn465 2.086 1_556 S
C470 O466 1.278 . S
C470 O471 1.211 . S
O471 C470 1.211 . S
C472 O464 1.284 . S
C472 O473 1.273 . S
O473 C472 1.273 . S
O474 Zn465 1.977 . S
O474 C467 1.267 . S
C475 O476 1.160 . S
C475 O482 1.185 . S
O476 C475 1.160 . S
O477 Zn478 1.899 . S
O477 C485 1.284 . S
Zn478 O477 1.899 . S
Zn478 O479 2.032 . S
Zn478 O482 2.086 . S
Zn478 O487 1.977 . S
O479 Zn478 2.032 . S
O479 C483 1.278 . S
C480 O481 1.203 . S
C480 O487 1.267 . S
O481 C480 1.203 . S
O482 C475 1.185 . S
O482 Zn478 2.086 . S
C483 O479 1.278 . S
C483 O484 1.211 . S
O484 C483 1.211 . S
C485 O477 1.284 . S
C485 O486 1.273 . S
O486 C485 1.273 . S
O487 Zn478 1.977 . S
O487 C480 1.267 . S
H488 C496 0.950 . S
H489 C501 0.950 . S
H490 C498 0.950 . S
H491 C500 0.950 . S
H492 C502 0.950 . S
H493 C504 0.950 . S
H494 C506 0.950 . S
H495 C507 0.950 . S
C496 H488 0.950 . S
C496 C497 1.386 . S
C496 C498 1.391 . S
C497 C496 1.386 . S
C497 C501 1.393 . S
C498 H490 0.950 . S
C498 C496 1.391 . S
C498 C499 1.400 . S
C499 C498 1.400 . S
C499 C500 1.398 . S
C499 C505 1.491 . S
C500 H491 0.950 . S
C500 C499 1.398 . S
C500 C501 1.391 . S
C501 H489 0.950 . S
C501 C497 1.393 . S
C501 C500 1.391 . S
C502 H492 0.950 . S
C502 C503 1.386 . S
C502 C504 1.391 . S
C503 C502 1.386 . S
C503 C507 1.393 . S
C504 H493 0.950 . S
C504 C502 1.391 . S
C504 C505 1.400 . S
C505 C499 1.491 . S
C505 C504 1.400 . S
C505 C506 1.398 . S
C506 H494 0.950 . S
C506 C505 1.398 . S
C506 C507 1.391 . S
C507 H495 0.950 . S
C507 C503 1.393 . S
C507 C506 1.391 . S
H508 C516 0.950 . S
H509 C521 0.950 . S
H510 C518 0.950 . S
H511 C520 0.950 . S
H512 C522 0.950 . S
H513 C524 0.950 . S
H514 C526 0.950 . S
H515 C527 0.950 . S
C516 H508 0.950 . S
C516 C517 1.386 . S
C516 C518 1.391 . S
C517 C516 1.386 . S
C517 C521 1.393 . S
C518 H510 0.950 . S
C518 C516 1.391 . S
C518 C519 1.400 . S
C519 C518 1.400 . S
C519 C520 1.398 . S
C519 C525 1.491 . S
C520 H511 0.950 . S
C520 C519 1.398 . S
C520 C521 1.391 . S
C521 H509 0.950 . S
C521 C517 1.393 . S
C521 C520 1.391 . S
C522 H512 0.950 . S
C522 C523 1.386 . S
C522 C524 1.391 . S
C523 C522 1.386 . S
C523 C527 1.393 . S
C524 H513 0.950 . S
C524 C522 1.391 . S
C524 C525 1.400 . S
C525 C519 1.491 . S
C525 C524 1.400 . S
C525 C526 1.398 . S
C526 H514 0.950 . S
C526 C525 1.398 . S
C526 C527 1.391 . S
C527 H515 0.950 . S
C527 C523 1.393 . S
C527 C526 1.391 . S
H528 C536 0.950 . S
H529 C541 0.950 . S
H530 C538 0.950 . S
H531 C540 0.950 . S
H532 C542 0.950 . S
H533 C544 0.950 . S
H534 C546 0.950 . S
H535 C547 0.950 . S
C536 H528 0.950 . S
C536 C537 1.386 . S
C536 C538 1.391 . S
C537 C536 1.386 . S
C537 C541 1.393 . S
C538 H530 0.950 . S
C538 C536 1.391 . S
C538 C539 1.400 . S
C539 C538 1.400 . S
C539 C540 1.398 . S
C539 C545 1.491 . S
C540 H531 0.950 . S
C540 C539 1.398 . S
C540 C541 1.391 . S
C541 H529 0.950 . S
C541 C537 1.393 . S
C541 C540 1.391 . S
C542 H532 0.950 . S
C542 C543 1.386 . S
C542 C544 1.391 . S
C543 C542 1.386 . S
C543 C547 1.393 . S
C544 H533 0.950 . S
C544 C542 1.391 . S
C544 C545 1.400 . S
C545 C539 1.491 . S
C545 C544 1.400 . S
C545 C546 1.398 . S
C546 H534 0.950 . S
C546 C545 1.398 . S
C546 C547 1.391 . S
C547 H535 0.950 . S
C547 C543 1.393 . S
C547 C546 1.391 . S
H548 C556 0.950 . S
H549 C561 0.950 . S
H550 C558 0.950 . S
H551 C560 0.950 1_556 S
H552 C562 0.950 1_556 S
H553 C564 0.950 1_556 S
H554 C566 0.950 . S
H555 C567 0.950 . S
C556 H548 0.950 . S
C556 C557 1.386 . S
C556 C558 1.391 . S
C557 C556 1.386 . S
C557 C561 1.393 . S
C558 H550 0.950 . S
C558 C556 1.391 . S
C558 C559 1.400 . S
C559 C558 1.400 . S
C559 C560 1.398 . S
C559 C565 1.491 . S
C560 H551 0.950 1_554 S
C560 C559 1.398 . S
C560 C561 1.391 . S
C561 H549 0.950 . S
C561 C557 1.393 . S
C561 C560 1.391 . S
C562 H552 0.950 1_554 S
C562 C563 1.386 . S
C562 C564 1.391 . S
C563 C562 1.386 . S
C563 C567 1.393 . S
C564 H553 0.950 1_554 S
C564 C562 1.391 . S
C564 C565 1.400 . S
C565 C559 1.491 . S
C565 C564 1.400 . S
C565 C566 1.398 . S
C566 H554 0.950 . S
C566 C565 1.398 . S
C566 C567 1.391 . S
C567 H555 0.950 . S
C567 C563 1.393 . S
C567 C566 1.391 . S
H568 C576 0.924 1_554 S
H569 C581 0.950 . S
H570 C578 0.950 1_554 S
H571 C580 0.950 . S
H572 C582 0.950 . S
H573 C584 0.950 . S
H574 C586 0.950 . S
H575 C587 0.950 . S
C576 H568 0.924 1_556 S
C576 C577 1.386 . S
C576 C578 1.391 . S
C577 C576 1.386 . S
C577 C581 1.393 . S
C578 H570 0.950 1_556 S
C578 C576 1.391 . S
C578 C579 1.400 . S
C579 C578 1.400 . S
C579 C580 1.398 . S
C579 C585 1.491 . S
C580 H571 0.950 . S
C580 C579 1.398 . S
C580 C581 1.391 . S
C581 H569 0.950 . S
C581 C577 1.393 . S
C581 C580 1.391 . S
C582 H572 0.950 . S
C582 C583 1.386 . S
C582 C584 1.391 . S
C583 C582 1.386 . S
C583 C587 1.393 1_556 S
C584 H573 0.950 . S
C584 C582 1.391 . S
C584 C585 1.400 . S
C585 C579 1.491 . S
C585 C584 1.400 . S
C585 C586 1.398 1_556 S
C586 H574 0.950 . S
C586 C585 1.398 1_554 S
C586 C587 1.391 . S
C587 H575 0.950 . S
C587 C583 1.393 1_554 S
C587 C586 1.391 . S
H588 C596 0.950 . S
H589 C601 0.950 . S
H590 C598 0.950 . S
H591 C600 0.950 . S
H592 C602 0.950 . S
H593 C604 0.950 . S
H594 C606 0.950 . S
H595 C607 0.950 . S
C596 H588 0.950 . S
C596 C597 1.386 . S
C596 C598 1.391 . S
C597 C596 1.386 . S
C597 C601 1.393 . S
C598 H590 0.950 . S
C598 C596 1.391 . S
C598 C599 1.400 . S
C599 C598 1.400 . S
C599 C600 1.398 . S
C599 C605 1.491 . S
C600 H591 0.950 . S
C600 C599 1.398 . S
C600 C601 1.391 . S
C601 H589 0.950 . S
C601 C597 1.393 . S
C601 C600 1.391 . S
C602 H592 0.950 . S
C602 C603 1.386 . S
C602 C604 1.391 . S
C603 C602 1.386 . S
C603 C607 1.393 . S
C604 H593 0.950 . S
C604 C602 1.391 . S
C604 C605 1.400 . S
C605 C599 1.491 . S
C605 C604 1.400 . S
C605 C606 1.398 . S
C606 H594 0.950 . S
C606 C605 1.398 . S
C606 C607 1.391 . S
C607 H595 0.950 . S
C607 C603 1.393 . S
C607 C606 1.391 . S
H608 C616 0.950 . S
H609 C621 0.950 . S
H610 C618 0.950 . S
H611 C620 0.950 . S
H612 C622 0.950 . S
H613 C624 0.950 . S
H614 C626 0.950 . S
H615 C627 0.950 . S
C616 H608 0.950 . S
C616 C617 1.386 . S
C616 C618 1.391 . S
C617 C616 1.386 . S
C617 C621 1.393 . S
C618 H610 0.950 . S
C618 C616 1.391 . S
C618 C619 1.400 . S
C619 C618 1.400 . S
C619 C620 1.398 . S
C619 C625 1.491 . S
C620 H611 0.950 . S
C620 C619 1.398 . S
C620 C621 1.391 . S
C621 H609 0.950 . S
C621 C617 1.393 . S
C621 C620 1.391 . S
C622 H612 0.950 . S
C622 C623 1.386 . S
C622 C624 1.391 . S
C623 C622 1.386 . S
C623 C627 1.393 . S
C624 H613 0.950 . S
C624 C622 1.391 . S
C624 C625 1.400 . S
C625 C619 1.491 . S
C625 C624 1.400 . S
C625 C626 1.398 . S
C626 H614 0.950 . S
C626 C625 1.398 . S
C626 C627 1.391 . S
C627 H615 0.950 . S
C627 C623 1.393 . S
C627 C626 1.391 . S
H628 C636 0.950 . S
H629 C641 0.950 . S
H630 C638 0.950 . S
H631 C640 0.950 . S
H632 C642 0.950 . S
H633 C644 0.950 . S
H634 C646 0.950 . S
H635 C647 0.950 . S
C636 H628 0.950 . S
C636 C637 1.386 . S
C636 C638 1.391 . S
C637 C636 1.386 . S
C637 C641 1.393 . S
C638 H630 0.950 . S
C638 C636 1.391 . S
C638 C639 1.400 . S
C639 C638 1.400 . S
C639 C640 1.398 . S
C639 C645 1.491 . S
C640 H631 0.950 . S
C640 C639 1.398 . S
C640 C641 1.391 . S
C641 H629 0.950 . S
C641 C637 1.393 . S
C641 C640 1.391 . S
C642 H632 0.950 . S
C642 C643 1.386 . S
C642 C644 1.391 . S
C643 C642 1.386 . S
C643 C647 1.393 . S
C644 H633 0.950 . S
C644 C642 1.391 . S
C644 C645 1.400 . S
C645 C639 1.491 . S
C645 C644 1.400 . S
C645 C646 1.398 . S
C646 H634 0.950 . S
C646 C645 1.398 . S
C646 C647 1.391 . S
C647 H635 0.950 . S
C647 C643 1.393 . S
C647 C646 1.391 . S
H648 C656 0.950 . S
H649 C661 0.950 . S
H650 C658 0.950 . S
H651 C660 0.950 . S
H652 C662 0.950 . S
H653 C664 0.950 . S
H654 C666 0.950 . S
H655 C667 0.950 . S
C656 H648 0.950 . S
C656 C657 1.386 . S
C656 C658 1.391 . S
C657 C656 1.386 . S
C657 C661 1.393 . S
C658 H650 0.950 . S
C658 C656 1.391 . S
C658 C659 1.400 . S
C659 C658 1.400 . S
C659 C660 1.398 . S
C659 C665 1.491 . S
C660 H651 0.950 . S
C660 C659 1.398 . S
C660 C661 1.391 . S
C661 H649 0.950 . S
C661 C657 1.393 . S
C661 C660 1.391 . S
C662 H652 0.950 . S
C662 C663 1.386 . S
C662 C664 1.391 . S
C663 C662 1.386 . S
C663 C667 1.393 . S
C664 H653 0.950 . S
C664 C662 1.391 . S
C664 C665 1.400 . S
C665 C659 1.491 . S
C665 C664 1.400 . S
C665 C666 1.398 . S
C666 H654 0.950 . S
C666 C665 1.398 . S
C666 C667 1.391 . S
C667 H655 0.950 . S
C667 C663 1.393 . S
C667 C666 1.391 . S
H668 C676 0.950 . S
H669 C681 0.950 . S
H670 C678 0.950 . S
H671 C680 0.987 . S
H672 C682 0.927 1_556 S
H673 C684 0.950 1_556 S
H674 C686 0.950 . S
H675 C687 0.950 . S
C676 H668 0.950 . S
C676 C677 1.386 . S
C676 C678 1.391 . S
C677 C676 1.386 . S
C677 C681 1.393 . S
C678 H670 0.950 . S
C678 C676 1.391 . S
C678 C679 1.400 . S
C679 C678 1.400 . S
C679 C680 1.398 . S
C679 C685 1.491 . S
C680 H671 0.987 . S
C680 C679 1.398 . S
C680 C681 1.391 . S
C681 H669 0.950 . S
C681 C677 1.393 . S
C681 C680 1.391 . S
C682 H672 0.927 1_554 S
C682 C683 1.404 . S
C682 C684 1.396 . S
C683 C682 1.404 . S
C683 C687 1.393 . S
C684 H673 0.950 1_554 S
C684 C682 1.396 . S
C684 C685 1.400 . S
C685 C679 1.491 . S
C685 C684 1.400 . S
C685 C686 1.398 . S
C686 H674 0.950 . S
C686 C685 1.398 . S
C686 C687 1.391 . S
C687 H675 0.950 . S
C687 C683 1.393 . S
C687 C686 1.391 . S
H688 C696 0.950 . S
H689 C701 0.950 . S
H690 C698 0.950 . S
H691 C700 0.950 . S
H692 C702 0.950 . S
H693 C704 0.950 . S
H694 C706 0.950 . S
H695 C707 0.950 . S
C696 H688 0.950 . S
C696 C697 1.386 . S
C696 C698 1.391 . S
C697 C696 1.386 . S
C697 C701 1.393 . S
C698 H690 0.950 . S
C698 C696 1.391 . S
C698 C699 1.400 . S
C699 C698 1.400 . S
C699 C700 1.398 . S
C699 C705 1.491 . S
C700 H691 0.950 . S
C700 C699 1.398 . S
C700 C701 1.391 . S
C701 H689 0.950 . S
C701 C697 1.393 . S
C701 C700 1.391 . S
C702 H692 0.950 . S
C702 C703 1.386 . S
C702 C704 1.391 . S
C703 C702 1.386 . S
C703 C707 1.393 . S
C704 H693 0.950 . S
C704 C702 1.391 . S
C704 C705 1.400 . S
C705 C699 1.491 . S
C705 C704 1.400 . S
C705 C706 1.398 . S
C706 H694 0.950 . S
C706 C705 1.398 . S
C706 C707 1.391 . S
C707 H695 0.950 . S
C707 C703 1.393 . S
C707 C706 1.391 . S
H708 C716 0.950 . S
H709 C721 0.950 . S
H710 C718 0.950 . S
H711 C720 0.950 . S
H712 C722 0.950 . S
H713 C724 0.950 . S
H714 C726 0.950 . S
H715 C727 0.950 . S
C716 H708 0.950 . S
C716 C717 1.386 . S
C716 C718 1.391 . S
C717 C716 1.386 . S
C717 C721 1.393 . S
C718 H710 0.950 . S
C718 C716 1.391 . S
C718 C719 1.400 . S
C719 C718 1.400 . S
C719 C720 1.398 . S
C719 C725 1.491 . S
C720 H711 0.950 . S
C720 C719 1.398 . S
C720 C721 1.391 . S
C721 H709 0.950 . S
C721 C717 1.393 . S
C721 C720 1.391 . S
C722 H712 0.950 . S
C722 C723 1.386 . S
C722 C724 1.391 . S
C723 C722 1.386 . S
C723 C727 1.393 . S
C724 H713 0.950 . S
C724 C722 1.391 . S
C724 C725 1.400 . S
C725 C719 1.491 . S
C725 C724 1.400 . S
C725 C726 1.398 . S
C726 H714 0.950 . S
C726 C725 1.398 . S
C726 C727 1.391 . S
C727 H715 0.950 . S
C727 C723 1.393 . S
C727 C726 1.391 . S
H728 C736 0.950 . S
H729 C741 0.950 . S
H730 C738 0.950 . S
H731 C740 0.950 . S
H732 C742 0.950 . S
H733 C744 0.950 . S
H734 C746 0.950 . S
H735 C747 0.950 . S
C736 H728 0.950 . S
C736 C737 1.386 . S
C736 C738 1.391 . S
C737 C736 1.386 . S
C737 C741 1.393 . S
C738 H730 0.950 . S
C738 C736 1.391 . S
C738 C739 1.400 . S
C739 C738 1.400 . S
C739 C740 1.398 . S
C739 C745 1.491 . S
C740 H731 0.950 . S
C740 C739 1.398 . S
C740 C741 1.391 . S
C741 H729 0.950 . S
C741 C737 1.393 . S
C741 C740 1.391 . S
C742 H732 0.950 . S
C742 C743 1.386 . S
C742 C744 1.391 . S
C743 C742 1.386 . S
C743 C747 1.393 . S
C744 H733 0.950 . S
C744 C742 1.391 . S
C744 C745 1.400 . S
C745 C739 1.491 . S
C745 C744 1.400 . S
C745 C746 1.398 . S
C746 H734 0.950 . S
C746 C745 1.398 . S
C746 C747 1.391 . S
C747 H735 0.950 . S
C747 C743 1.393 . S
C747 C746 1.391 . S
H748 C756 0.950 . S
H749 C761 0.950 . S
H750 C758 0.950 . S
H751 C760 0.950 . S
H752 C762 0.950 . S
H753 C764 0.950 . S
H754 C766 0.950 . S
H755 C767 0.950 . S
C756 H748 0.950 . S
C756 C757 1.386 . S
C756 C758 1.391 . S
C757 C756 1.386 . S
C757 C761 1.393 . S
C758 H750 0.950 . S
C758 C756 1.391 . S
C758 C759 1.400 . S
C759 C758 1.400 . S
C759 C760 1.398 . S
C759 C765 1.491 . S
C760 H751 0.950 . S
C760 C759 1.398 . S
C760 C761 1.391 . S
C761 H749 0.950 . S
C761 C757 1.393 . S
C761 C760 1.391 . S
C762 H752 0.950 . S
C762 C763 1.386 . S
C762 C764 1.391 . S
C763 C762 1.386 . S
C763 C767 1.393 . S
C764 H753 0.950 . S
C764 C762 1.391 . S
C764 C765 1.400 . S
C765 C759 1.491 . S
C765 C764 1.400 . S
C765 C766 1.398 . S
C766 H754 0.950 . S
C766 C765 1.398 . S
C766 C767 1.391 . S
C767 H755 0.950 . S
C767 C763 1.393 . S
C767 C766 1.391 . S
H768 C776 0.950 . S
H769 C781 0.950 . S
H770 C778 0.950 . S
H771 C780 0.950 . S
H772 C782 0.950 . S
H773 C784 0.950 . S
H774 C786 0.950 . S
H775 C787 0.941 1_554 S
C776 H768 0.950 . S
C776 C777 1.386 . S
C776 C778 1.391 . S
C777 C776 1.386 . S
C777 C781 1.393 . S
C778 H770 0.950 . S
C778 C776 1.391 . S
C778 C779 1.400 . S
C779 C778 1.400 . S
C779 C780 1.398 . S
C779 C785 1.491 . S
C780 H771 0.950 . S
C780 C779 1.398 . S
C780 C781 1.391 . S
C781 H769 0.950 . S
C781 C777 1.393 . S
C781 C780 1.391 . S
C782 H772 0.950 . S
C782 C783 1.386 . S
C782 C784 1.391 . S
C783 C782 1.386 . S
C783 C787 1.393 . S
C784 H773 0.950 . S
C784 C782 1.391 . S
C784 C785 1.400 . S
C785 C779 1.491 . S
C785 C784 1.400 . S
C785 C786 1.398 . S
C786 H774 0.950 . S
C786 C785 1.398 . S
C786 C787 1.391 . S
C787 H775 0.941 1_556 S
C787 C783 1.393 . S
C787 C786 1.391 . S
H788 C796 0.950 . S
H789 C801 0.950 . S
H790 C798 0.950 . S
H791 C800 0.950 . S
H792 C802 0.950 . S
H793 C804 0.950 . S
H794 C806 0.950 . S
H795 C807 0.950 . S
C796 H788 0.950 . S
C796 C797 1.386 . S
C796 C798 1.391 . S
C797 C796 1.386 . S
C797 C801 1.393 . S
C798 H790 0.950 . S
C798 C796 1.391 . S
C798 C799 1.400 . S
C799 C798 1.400 . S
C799 C800 1.398 . S
C799 C805 1.491 . S
C800 H791 0.950 . S
C800 C799 1.398 . S
C800 C801 1.391 . S
C801 H789 0.950 . S
C801 C797 1.393 . S
C801 C800 1.391 . S
C802 H792 0.950 . S
C802 C803 1.386 . S
C802 C804 1.391 . S
C803 C802 1.386 . S
C803 C807 1.393 . S
C804 H793 0.950 . S
C804 C802 1.391 . S
C804 C805 1.400 . S
C805 C799 1.491 . S
C805 C804 1.400 . S
C805 C806 1.398 . S
C806 H794 0.950 . S
C806 C805 1.398 . S
C806 C807 1.391 . S
C807 H795 0.950 . S
C807 C803 1.393 . S
C807 C806 1.391 . S
H808 C816 0.950 . S
H809 C821 0.950 . S
H810 C818 0.950 . S
H811 C820 0.950 . S
H812 C822 0.950 . S
H813 C824 0.950 . S
H814 C826 0.950 . S
H815 C827 0.950 . S
C816 H808 0.950 . S
C816 C817 1.386 . S
C816 C818 1.391 . S
C817 C816 1.386 . S
C817 C821 1.393 . S
C818 H810 0.950 . S
C818 C816 1.391 . S
C818 C819 1.400 . S
C819 C818 1.400 . S
C819 C820 1.398 . S
C819 C825 1.491 . S
C820 H811 0.950 . S
C820 C819 1.398 . S
C820 C821 1.391 . S
C821 H809 0.950 . S
C821 C817 1.393 . S
C821 C820 1.391 . S
C822 H812 0.950 . S
C822 C823 1.386 . S
C822 C824 1.391 . S
C823 C822 1.386 . S
C823 C827 1.393 . S
C824 H813 0.950 . S
C824 C822 1.391 . S
C824 C825 1.400 . S
C825 C819 1.491 . S
C825 C824 1.400 . S
C825 C826 1.398 . S
C826 H814 0.950 . S
C826 C825 1.398 . S
C826 C827 1.391 . S
C827 H815 0.950 . S
C827 C823 1.393 . S
C827 C826 1.391 . S
H828 C836 0.950 . S
H829 C841 0.950 . S
H830 C838 0.950 . S
H831 C840 0.950 . S
H832 C842 0.950 . S
H833 C844 0.950 . S
H834 C846 0.950 . S
H835 C847 0.950 . S
C836 H828 0.950 . S
C836 C837 1.386 . S
C836 C838 1.391 . S
C837 C836 1.386 . S
C837 C841 1.393 . S
C838 H830 0.950 . S
C838 C836 1.391 . S
C838 C839 1.400 . S
C839 C838 1.400 . S
C839 C840 1.398 . S
C839 C845 1.491 . S
C840 H831 0.950 . S
C840 C839 1.398 . S
C840 C841 1.391 . S
C841 H829 0.950 . S
C841 C837 1.393 . S
C841 C840 1.391 . S
C842 H832 0.950 . S
C842 C843 1.386 . S
C842 C844 1.391 . S
C843 C842 1.386 . S
C843 C847 1.393 . S
C844 H833 0.950 . S
C844 C842 1.391 . S
C844 C845 1.400 . S
C845 C839 1.491 . S
C845 C844 1.400 . S
C845 C846 1.398 . S
C846 H834 0.950 . S
C846 C845 1.398 . S
C846 C847 1.391 . S
C847 H835 0.950 . S
C847 C843 1.393 . S
C847 C846 1.391 . S
H848 C856 0.950 . S
H849 C861 0.950 . S
H850 C858 0.950 . S
H851 C860 0.950 . S
H852 C862 0.950 . S
H853 C864 0.950 . S
H854 C866 0.950 . S
H855 C867 0.950 . S
C856 H848 0.950 . S
C856 C857 1.386 . S
C856 C858 1.391 . S
C857 C856 1.386 . S
C857 C861 1.393 . S
C858 H850 0.950 . S
C858 C856 1.391 . S
C858 C859 1.400 . S
C859 C858 1.400 . S
C859 C860 1.398 . S
C859 C865 1.491 . S
C860 H851 0.950 . S
C860 C859 1.398 . S
C860 C861 1.391 . S
C861 H849 0.950 . S
C861 C857 1.393 . S
C861 C860 1.391 . S
C862 H852 0.950 . S
C862 C863 1.386 . S
C862 C864 1.391 . S
C863 C862 1.386 . S
C863 C867 1.393 . S
C864 H853 0.950 . S
C864 C862 1.391 . S
C864 C865 1.400 . S
C865 C859 1.491 . S
C865 C864 1.400 . S
C865 C866 1.398 . S
C866 H854 0.950 . S
C866 C865 1.398 . S
C866 C867 1.391 . S
C867 H855 0.950 . S
C867 C863 1.393 . S
C867 C866 1.391 . S
H868 C876 0.950 . S
H869 C881 0.950 . S
H870 C878 0.950 . S
H871 C880 0.950 . S
H872 C882 0.950 . S
H873 C884 0.950 . S
H874 C886 0.950 . S
H875 C887 0.950 . S
C876 H868 0.950 . S
C876 C877 1.386 . S
C876 C878 1.391 . S
C877 C876 1.386 . S
C877 C881 1.393 . S
C878 H870 0.950 . S
C878 C876 1.391 . S
C878 C879 1.400 . S
C879 C878 1.400 . S
C879 C880 1.398 . S
C879 C885 1.491 . S
C880 H871 0.950 . S
C880 C879 1.398 . S
C880 C881 1.391 . S
C881 H869 0.950 . S
C881 C877 1.393 . S
C881 C880 1.391 . S
C882 H872 0.950 . S
C882 C883 1.386 . S
C882 C884 1.391 . S
C883 C882 1.386 . S
C883 C887 1.393 . S
C884 H873 0.950 . S
C884 C882 1.391 . S
C884 C885 1.400 . S
C885 C879 1.491 . S
C885 C884 1.400 . S
C885 C886 1.398 . S
C886 H874 0.950 . S
C886 C885 1.398 . S
C886 C887 1.391 . S
C887 H875 0.950 . S
C887 C883 1.393 . S
C887 C886 1.391 . S
H888 C896 0.950 . S
H889 C901 0.950 . S
H890 C898 0.950 . S
H891 C900 0.950 . S
H892 C902 0.950 . S
H893 C904 0.950 . S
H894 C906 0.950 . S
H895 C907 0.950 . S
C896 H888 0.950 . S
C896 C897 1.386 . S
C896 C898 1.391 . S
C897 C896 1.386 . S
C897 C901 1.393 . S
C898 H890 0.950 . S
C898 C896 1.391 . S
C898 C899 1.400 . S
C899 C898 1.400 . S
C899 C900 1.398 . S
C899 C905 1.491 . S
C900 H891 0.950 . S
C900 C899 1.398 . S
C900 C901 1.391 . S
C901 H889 0.950 . S
C901 C897 1.393 . S
C901 C900 1.391 . S
C902 H892 0.950 . S
C902 C903 1.386 . S
C902 C904 1.391 . S
C903 C902 1.386 . S
C903 C907 1.393 . S
C904 H893 0.950 . S
C904 C902 1.391 . S
C904 C905 1.400 . S
C905 C899 1.491 . S
C905 C904 1.400 . S
C905 C906 1.398 . S
C906 H894 0.950 . S
C906 C905 1.398 . S
C906 C907 1.391 . S
C907 H895 0.950 . S
C907 C903 1.393 . S
C907 C906 1.391 . S
H908 C916 0.950 . S
H909 C921 0.950 . S
H910 C918 0.950 . S
H911 C920 0.950 . S
H912 C922 0.950 . S
H913 C924 0.950 . S
H914 C926 0.950 . S
H915 C927 0.950 . S
C916 H908 0.950 . S
C916 C917 1.386 . S
C916 C918 1.391 . S
C917 C916 1.386 . S
C917 C921 1.393 . S
C918 H910 0.950 . S
C918 C916 1.391 . S
C918 C919 1.400 . S
C919 C918 1.400 . S
C919 C920 1.398 . S
C919 C925 1.491 . S
C920 H911 0.950 . S
C920 C919 1.398 . S
C920 C921 1.391 . S
C921 H909 0.950 . S
C921 C917 1.393 . S
C921 C920 1.391 . S
C922 H912 0.950 . S
C922 C923 1.386 . S
C922 C924 1.391 . S
C923 C922 1.386 . S
C923 C927 1.393 . S
C924 H913 0.950 . S
C924 C922 1.391 . S
C924 C925 1.400 . S
C925 C919 1.491 . S
C925 C924 1.400 . S
C925 C926 1.398 . S
C926 H914 0.950 . S
C926 C925 1.398 . S
C926 C927 1.391 . S
C927 H915 0.950 . S
C927 C923 1.393 . S
C927 C926 1.391 . S
H928 C936 0.950 . S
H929 C941 0.950 . S
H930 C938 0.950 . S
H931 C940 0.950 . S
H932 C942 0.950 . S
H933 C944 0.950 . S
H934 C946 0.950 . S
H935 C947 0.950 . S
C936 H928 0.950 . S
C936 C937 1.386 . S
C936 C938 1.391 . S
C937 C936 1.386 . S
C937 C941 1.393 . S
C938 H930 0.950 . S
C938 C936 1.391 . S
C938 C939 1.400 . S
C939 C938 1.400 . S
C939 C940 1.398 . S
C939 C945 1.491 . S
C940 H931 0.950 . S
C940 C939 1.398 . S
C940 C941 1.391 . S
C941 H929 0.950 . S
C941 C937 1.393 . S
C941 C940 1.391 . S
C942 H932 0.950 . S
C942 C943 1.386 . S
C942 C944 1.391 . S
C943 C942 1.386 . S
C943 C947 1.393 . S
C944 H933 0.950 . S
C944 C942 1.391 . S
C944 C945 1.400 . S
C945 C939 1.491 . S
C945 C944 1.400 . S
C945 C946 1.398 . S
C946 H934 0.950 . S
C946 C945 1.398 . S
C946 C947 1.391 . S
C947 H935 0.950 . S
C947 C943 1.393 . S
C947 C946 1.391 . S
H948 C956 0.950 . S
H949 C961 0.950 . S
H950 C958 0.950 . S
H951 C960 0.950 . S
H952 C962 0.950 . S
H953 C964 0.950 . S
H954 C966 0.950 . S
H955 C967 0.950 . S
C956 H948 0.950 . S
C956 C957 1.386 . S
C956 C958 1.391 . S
C957 C956 1.386 . S
C957 C961 1.393 . S
C958 H950 0.950 . S
C958 C956 1.391 . S
C958 C959 1.400 . S
C959 C958 1.400 . S
C959 C960 1.398 . S
C959 C965 1.491 . S
C960 H951 0.950 . S
C960 C959 1.398 . S
C960 C961 1.391 . S
C961 H949 0.950 . S
C961 C957 1.393 . S
C961 C960 1.391 . S
C962 H952 0.950 . S
C962 C963 1.386 . S
C962 C964 1.391 . S
C963 C962 1.386 . S
C963 C967 1.393 . S
C964 H953 0.950 . S
C964 C962 1.391 . S
C964 C965 1.400 . S
C965 C959 1.491 . S
C965 C964 1.400 . S
C965 C966 1.398 . S
C966 H954 0.950 . S
C966 C965 1.398 . S
C966 C967 1.391 . S
C967 H955 0.950 . S
C967 C963 1.393 . S
C967 C966 1.391 . S
H968 C976 0.950 . S
H969 C981 0.950 . S
H970 C978 0.950 . S
H971 C980 0.950 . S
H972 C982 0.950 . S
H973 C984 0.950 . S
H974 C986 0.950 . S
H975 C987 0.950 . S
C976 H968 0.950 . S
C976 C977 1.386 . S
C976 C978 1.391 . S
C977 C976 1.386 . S
C977 C981 1.393 . S
C978 H970 0.950 . S
C978 C976 1.391 . S
C978 C979 1.400 . S
C979 C978 1.400 . S
C979 C980 1.398 . S
C979 C985 1.491 . S
C980 H971 0.950 . S
C980 C979 1.398 . S
C980 C981 1.391 . S
C981 H969 0.950 . S
C981 C977 1.393 . S
C981 C980 1.391 . S
C982 H972 0.950 . S
C982 C983 1.386 . S
C982 C984 1.391 . S
C983 C982 1.386 . S
C983 C987 1.393 . S
C984 H973 0.950 . S
C984 C982 1.391 . S
C984 C985 1.400 . S
C985 C979 1.491 . S
C985 C984 1.400 . S
C985 C986 1.398 . S
C986 H974 0.950 . S
C986 C985 1.398 . S
C986 C987 1.391 . S
C987 H975 0.950 . S
C987 C983 1.393 . S
C987 C986 1.391 . S
H988 C996 0.950 . S
H989 C1001 0.950 . S
H990 C998 0.950 . S
H991 C1000 0.950 . S
H992 C1002 0.950 . S
H993 C1004 0.950 . S
H994 C1006 0.950 . S
H995 C1007 0.950 . S
C996 H988 0.950 . S
C996 C997 1.386 . S
C996 C998 1.391 . S
C997 C996 1.386 . S
C997 C1001 1.393 . S
C998 H990 0.950 . S
C998 C996 1.391 . S
C998 C999 1.400 . S
C999 C998 1.400 . S
C999 C1000 1.398 . S
C999 C1005 1.491 . S
C1000 H991 0.950 . S
C1000 C999 1.398 . S
C1000 C1001 1.391 . S
C1001 H989 0.950 . S
C1001 C997 1.393 . S
C1001 C1000 1.391 . S
C1002 H992 0.950 . S
C1002 C1003 1.386 . S
C1002 C1004 1.391 . S
C1003 C1002 1.386 . S
C1003 C1007 1.393 . S
C1004 H993 0.950 . S
C1004 C1002 1.391 . S
C1004 C1005 1.400 . S
C1005 C999 1.491 . S
C1005 C1004 1.400 . S
C1005 C1006 1.398 . S
C1006 H994 0.950 . S
C1006 C1005 1.398 . S
C1006 C1007 1.391 . S
C1007 H995 0.950 . S
C1007 C1003 1.393 . S
C1007 C1006 1.391 . S
H1008 C1016 0.950 . S
H1009 C1021 0.950 . S
H1010 C1018 0.950 . S
H1011 C1020 0.950 . S
H1012 C1022 0.950 . S
H1013 C1024 0.950 . S
H1014 C1026 0.950 . S
H1015 C1027 0.950 . S
C1016 H1008 0.950 . S
C1016 C1017 1.386 . S
C1016 C1018 1.391 . S
C1017 C1016 1.386 . S
C1017 C1021 1.393 . S
C1018 H1010 0.950 . S
C1018 C1016 1.391 . S
C1018 C1019 1.400 . S
C1019 C1018 1.400 . S
C1019 C1020 1.398 . S
C1019 C1025 1.491 . S
C1020 H1011 0.950 . S
C1020 C1019 1.398 . S
C1020 C1021 1.391 . S
C1021 H1009 0.950 . S
C1021 C1017 1.393 . S
C1021 C1020 1.391 . S
C1022 H1012 0.950 . S
C1022 C1023 1.386 . S
C1022 C1024 1.391 . S
C1023 C1022 1.386 . S
C1023 C1027 1.393 . S
C1024 H1013 0.950 . S
C1024 C1022 1.391 . S
C1024 C1025 1.400 . S
C1025 C1019 1.491 . S
C1025 C1024 1.400 . S
C1025 C1026 1.398 . S
C1026 H1014 0.950 . S
C1026 C1025 1.398 . S
C1026 C1027 1.391 . S
C1027 H1015 0.950 . S
C1027 C1023 1.393 . S
C1027 C1026 1.391 . S
H1028 C1036 0.950 . S
H1029 C1041 0.950 . S
H1030 C1038 0.950 . S
H1031 C1040 0.950 . S
H1032 C1042 0.950 . S
H1033 C1044 0.950 . S
H1034 C1046 0.950 . S
H1035 C1047 0.950 . S
C1036 H1028 0.950 . S
C1036 C1037 1.386 . S
C1036 C1038 1.391 . S
C1037 C1036 1.386 . S
C1037 C1041 1.393 . S
C1038 H1030 0.950 . S
C1038 C1036 1.391 . S
C1038 C1039 1.400 . S
C1039 C1038 1.400 . S
C1039 C1040 1.398 . S
C1039 C1045 1.491 . S
C1040 H1031 0.950 . S
C1040 C1039 1.398 . S
C1040 C1041 1.391 . S
C1041 H1029 0.950 . S
C1041 C1037 1.393 . S
C1041 C1040 1.391 . S
C1042 H1032 0.950 . S
C1042 C1043 1.386 . S
C1042 C1044 1.391 . S
C1043 C1042 1.386 . S
C1043 C1047 1.393 . S
C1044 H1033 0.950 . S
C1044 C1042 1.391 . S
C1044 C1045 1.400 . S
C1045 C1039 1.491 . S
C1045 C1044 1.400 . S
C1045 C1046 1.398 . S
C1046 H1034 0.950 . S
C1046 C1045 1.398 . S
C1046 C1047 1.391 . S
C1047 H1035 0.950 . S
C1047 C1043 1.393 . S
C1047 C1046 1.391 . S
H1048 C1056 0.950 . S
H1049 C1061 0.950 . S
H1050 C1058 0.950 . S
H1051 C1060 0.950 . S
H1052 C1062 0.950 . S
H1053 C1064 0.950 . S
H1054 C1066 0.950 . S
H1055 C1067 0.950 . S
C1056 H1048 0.950 . S
C1056 C1057 1.386 . S
C1056 C1058 1.391 . S
C1057 C1056 1.386 . S
C1057 C1061 1.393 . S
C1058 H1050 0.950 . S
C1058 C1056 1.391 . S
C1058 C1059 1.400 . S
C1059 C1058 1.400 . S
C1059 C1060 1.398 . S
C1059 C1065 1.491 . S
C1060 H1051 0.950 . S
C1060 C1059 1.398 . S
C1060 C1061 1.391 . S
C1061 H1049 0.950 . S
C1061 C1057 1.393 . S
C1061 C1060 1.391 . S
C1062 H1052 0.950 . S
C1062 C1063 1.386 . S
C1062 C1064 1.391 . S
C1063 C1062 1.386 . S
C1063 C1067 1.393 . S
C1064 H1053 0.950 . S
C1064 C1062 1.391 . S
C1064 C1065 1.400 . S
C1065 C1059 1.491 . S
C1065 C1064 1.400 . S
C1065 C1066 1.398 . S
C1066 H1054 0.950 . S
C1066 C1065 1.398 . S
C1066 C1067 1.391 . S
C1067 H1055 0.950 . S
C1067 C1063 1.393 . S
C1067 C1066 1.391 . S
H1068 C1076 0.950 . S
H1069 C1081 0.950 . S
H1070 C1078 0.950 . S
H1071 C1080 0.950 . S
H1072 C1082 0.950 . S
H1073 C1084 0.950 . S
H1074 C1086 0.950 . S
H1075 C1087 0.950 . S
C1076 H1068 0.950 . S
C1076 C1077 1.386 . S
C1076 C1078 1.391 . S
C1077 C1076 1.386 . S
C1077 C1081 1.393 . S
C1078 H1070 0.950 . S
C1078 C1076 1.391 . S
C1078 C1079 1.400 . S
C1079 C1078 1.400 . S
C1079 C1080 1.398 . S
C1079 C1085 1.491 . S
C1080 H1071 0.950 . S
C1080 C1079 1.398 . S
C1080 C1081 1.391 . S
C1081 H1069 0.950 . S
C1081 C1077 1.393 . S
C1081 C1080 1.391 . S
C1082 H1072 0.950 . S
C1082 C1083 1.386 . S
C1082 C1084 1.391 . S
C1083 C1082 1.386 . S
C1083 C1087 1.393 . S
C1084 H1073 0.950 . S
C1084 C1082 1.391 . S
C1084 C1085 1.400 . S
C1085 C1079 1.491 . S
C1085 C1084 1.400 . S
C1085 C1086 1.398 . S
C1086 H1074 0.950 . S
C1086 C1085 1.398 . S
C1086 C1087 1.391 . S
C1087 H1075 0.950 . S
C1087 C1083 1.393 . S
C1087 C1086 1.391 . S
H1088 C1096 0.950 . S
H1089 C1101 0.950 . S
H1090 C1098 0.950 . S
H1091 C1100 0.950 . S
H1092 C1102 0.950 . S
H1093 C1104 0.950 . S
H1094 C1106 0.950 . S
H1095 C1107 0.950 . S
C1096 H1088 0.950 . S
C1096 C1097 1.386 . S
C1096 C1098 1.391 . S
C1097 C1096 1.386 . S
C1097 C1101 1.393 . S
C1098 H1090 0.950 . S
C1098 C1096 1.391 . S
C1098 C1099 1.400 . S
C1099 C1098 1.400 . S
C1099 C1100 1.398 . S
C1099 C1105 1.491 . S
C1100 H1091 0.950 . S
C1100 C1099 1.398 . S
C1100 C1101 1.391 . S
C1101 H1089 0.950 . S
C1101 C1097 1.393 . S
C1101 C1100 1.391 . S
C1102 H1092 0.950 . S
C1102 C1103 1.386 . S
C1102 C1104 1.391 . S
C1103 C1102 1.386 . S
C1103 C1107 1.393 . S
C1104 H1093 0.950 . S
C1104 C1102 1.391 . S
C1104 C1105 1.400 . S
C1105 C1099 1.491 . S
C1105 C1104 1.400 . S
C1105 C1106 1.398 . S
C1106 H1094 0.950 . S
C1106 C1105 1.398 . S
C1106 C1107 1.391 . S
C1107 H1095 0.950 . S
C1107 C1103 1.393 . S
C1107 C1106 1.391 . S
H1108 C1116 0.950 . S
H1109 C1121 0.950 . S
H1110 C1118 0.950 . S
H1111 C1120 0.950 . S
H1112 C1122 0.950 . S
H1113 C1124 0.950 . S
H1114 C1126 0.950 . S
H1115 C1127 0.950 . S
C1116 H1108 0.950 . S
C1116 C1117 1.386 . S
C1116 C1118 1.391 . S
C1117 C1116 1.386 . S
C1117 C1121 1.393 . S
C1118 H1110 0.950 . S
C1118 C1116 1.391 . S
C1118 C1119 1.400 . S
C1119 C1118 1.400 . S
C1119 C1120 1.398 . S
C1119 C1125 1.491 . S
C1120 H1111 0.950 . S
C1120 C1119 1.398 . S
C1120 C1121 1.391 . S
C1121 H1109 0.950 . S
C1121 C1117 1.393 . S
C1121 C1120 1.391 . S
C1122 H1112 0.950 . S
C1122 C1123 1.386 . S
C1122 C1124 1.391 . S
C1123 C1122 1.386 . S
C1123 C1127 1.393 . S
C1124 H1113 0.950 . S
C1124 C1122 1.391 . S
C1124 C1125 1.400 . S
C1125 C1119 1.491 . S
C1125 C1124 1.400 . S
C1125 C1126 1.398 . S
C1126 H1114 0.950 . S
C1126 C1125 1.398 . S
C1126 C1127 1.391 . S
C1127 H1115 0.950 . S
C1127 C1123 1.393 . S
C1127 C1126 1.391 . S
C503 C397 1.353 . S
C497 C36 1.379 . S
C523 C415 1.312 . S
C517 C93 1.382 . S
C543 C423 1.323 . S
C537 C126 1.375 . S
C557 C165 1.379 . S
C563 C389 1.311 . S
C577 C222 1.379 . S
C583 C384 1.353 . S
C597 C261 1.359 . S
C603 C402 1.325 . S
C623 C410 1.325 . S
C617 C318 1.389 . S
C643 C428 1.347 . S
C637 C381 1.390 . S
C657 C132 1.379 . S
C663 C449 1.353 . S
C683 C467 1.316 . S
C677 C189 1.380 . S
C697 C30 1.390 . S
C703 C475 1.347 . S
C723 C441 1.344 . S
C717 C69 1.359 . S
C737 C324 1.364 . S
C743 C436 1.320 . S
C757 C357 1.357 . S
C763 C454 1.329 . S
C783 C462 1.350 . S
C777 C228 1.383 . S
C797 C285 1.379 . S
C803 C480 1.340 . S
C823 C418 1.545 . S
C817 C45 1.528 . S
C843 C433 1.502 . S
C837 C84 1.542 . S
C857 C117 1.519 . S
C863 C392 1.545 . S
C877 C174 1.505 . S
C883 C407 1.519 . S
C897 C213 1.535 . S
C903 C431 1.539 . S
C923 C394 1.498 . S
C917 C270 1.505 . S
C943 C405 1.540 . S
C937 C309 1.532 . S
C963 C420 1.505 . S
C957 C372 1.542 . S
C983 C470 1.539 . S
C977 C141 1.534 . S
C1003 C485 1.502 . S
C997 C180 1.533 . S
C1017 C21 1.523 . S
C1023 C444 1.541 . S
C1043 C459 1.519 . S
C1037 C78 1.506 . S
C1063 C483 1.539 . S
C1057 C333 1.525 . S
C1077 C366 1.498 . S
C1083 C446 1.500 . S
C1103 C457 1.545 . S
C1097 C237 1.528 . S
C1123 C472 1.510 . S
C1117 C276 1.530 . S
