# Generated by pormake.
# Topology pth, (4,4)-cn, num edge types: 1
# Building blocks:
#     Node 0, Type 0, BuildingBlock: NAHDIM_clean_sbu_0, # of connection points: 4
#     Node 1, Type 0, BuildingBlock: NAHDIM_clean_sbu_0, # of connection points: 4
#     Node 2, Type 0, BuildingBlock: NAHDIM_clean_sbu_0, # of connection points: 4
#     Node 3, Type 1, BuildingBlock: NAWXER_clean_linker_0, # of connection points: 4
#     Node 4, Type 1, BuildingBlock: NAWXER_clean_linker_0, # of connection points: 4
#     Node 5, Type 1, BuildingBlock: NAWXER_clean_linker_0, # of connection points: 4
#     Edge 6, Type (0, 1), BuildingBlock: KIFKEQ_clean_linker_1, # of connection points: 2
#     Edge 7, Type (0, 1), BuildingBlock: KIFKEQ_clean_linker_1, # of connection points: 2
#     Edge 8, Type (0, 1), BuildingBlock: KIFKEQ_clean_linker_1, # of connection points: 2
#     Edge 9, Type (0, 1), BuildingBlock: KIFKEQ_clean_linker_1, # of connection points: 2
#     Edge 10, Type (0, 1), BuildingBlock: KIFKEQ_clean_linker_1, # of connection points: 2
#     Edge 11, Type (0, 1), BuildingBlock: KIFKEQ_clean_linker_1, # of connection points: 2
#     Edge 12, Type (0, 1), BuildingBlock: KIFKEQ_clean_linker_1, # of connection points: 2
#     Edge 13, Type (0, 1), BuildingBlock: KIFKEQ_clean_linker_1, # of connection points: 2
#     Edge 14, Type (0, 1), BuildingBlock: KIFKEQ_clean_linker_1, # of connection points: 2
#     Edge 15, Type (0, 1), BuildingBlock: KIFKEQ_clean_linker_1, # of connection points: 2
#     Edge 16, Type (0, 1), BuildingBlock: KIFKEQ_clean_linker_1, # of connection points: 2
#     Edge 17, Type (0, 1), BuildingBlock: KIFKEQ_clean_linker_1, # of connection points: 2
# Relax obj value: 0.041
# Max RMSD: 0.165
# Mean RMSD: 0.085
data_MOF--net-pth--node1-NAHDIM_clean_sbu_0--node2-NAWXER_clean_linker_0--edge1-KIFKEQ_clean_linker_1
_symmetry_space_group_name_H-M    P1
_symmetry_Int_Tables_number       1
_symmetry_cell_setting            triclinic
loop_
_symmetry_equiv_pos_as_xyz
'x, y, z'
_cell_length_a     29.51097
_cell_length_b     29.652909
_cell_length_c     65.530572
_cell_angle_alpha  91.896196
_cell_angle_beta   90.028733
_cell_angle_gamma 120.62868
loop_
_atom_site_label
_atom_site_type_symbol
_atom_site_fract_x
_atom_site_fract_y
_atom_site_fract_z
_atom_type_partial_charge
C0 C 0.99127 0.94174 0.06134 0.0
O1 O 0.94478 0.93011 0.05423 0.0
O2 O 0.00178 0.07794 0.06813 0.0
Zn3 Zn 0.01738 0.04025 0.04574 0.0
O4 O 0.95725 0.00256 0.02543 0.0
C5 C 0.0904 0.13956 0.02952 0.0
O6 O 0.06012 0.15322 0.03929 0.0
O7 O 0.03041 0.98756 0.05907 0.0
C8 C 0.96746 0.98703 0.00869 0.0
O9 O 0.01589 -0.00219 0.00553 0.0
C10 C 0.96328 0.08574 0.06835 0.0
O11 O 0.92888 0.06724 0.05309 0.0
O12 O 0.08087 0.09278 0.0305 0.0
C13 C 0.01757 0.13379 0.35421 0.0
O14 O 0.97164 0.09565 0.35996 0.0
O15 O 0.03504 0.01214 0.35834 0.0
Zn16 Zn 0.0482 0.07375 0.37666 0.0
O17 O 0.98873 0.0565 0.39586 0.0
C18 C 0.10156 0.05584 0.4069 0.0
O19 O 0.05359 0.01502 0.40736 0.0
O20 O 0.05909 0.13419 0.35977 0.0
C21 C 0.94383 0.01484 0.39574 0.0
O22 O 0.93248 0.97737 0.38188 0.0
C23 C 0.00604 0.99518 0.3423 0.0
O24 O 0.97934 0.0173 0.3368 0.0
O25 O 0.11145 0.09096 0.39413 0.0
C26 C 0.0934 0.02874 0.68109 0.0
O27 O 0.08379 0.06732 0.68027 0.0
O28 O 0.96974 0.01252 0.68921 0.0
Zn29 Zn 0.01406 0.00095 0.70923 0.0
O30 O 0.05365 0.06336 0.7285 0.0
C31 C 0.9196 0.90624 0.71981 0.0
O32 O 0.90272 0.91287 0.70225 0.0
O33 O 0.06712 0.99205 0.69323 0.0
C34 C 0.07735 0.05831 0.74366 0.0
O35 O 0.07399 0.01289 0.74609 0.0
C36 C 0.95808 0.0482 0.69074 0.0
O37 O 0.97636 0.08196 0.70639 0.0
O38 O 0.96695 0.93789 0.72559 0.0
C39 C 0.97354 0.38519 0.25048 0.0
C40 C 0.019 0.40122 0.26255 0.0
C41 C 0.97118 0.41972 0.23714 0.0
C42 C 0.01418 0.47089 0.23573 0.0
C43 C 0.06197 0.45248 0.26111 0.0
C44 C 0.05932 0.48724 0.24796 0.0
C45 C 0.01171 0.50793 0.22195 0.0
C46 C 0.02275 0.38801 0.18158 0.0
C47 C 0.98047 0.3605 0.16755 0.0
C48 C 0.02911 0.43199 0.19265 0.0
C49 C 0.99284 0.44882 0.19016 0.0
C50 C 0.94416 0.3774 0.16514 0.0
C51 C 0.95044 0.42123 0.17628 0.0
C52 C 0.00044 0.497 0.20082 0.0
C53 C 0.04576 0.70438 0.17045 0.0
C54 C 0.00473 0.68745 0.15589 0.0
C55 C 0.04564 0.66934 0.18421 0.0
C56 C 0.00444 0.61679 0.18366 0.0
C57 C 0.96383 0.63473 0.15527 0.0
C58 C 0.96394 0.59965 0.16893 0.0
C59 C 0.00464 0.57889 0.19769 0.0
C60 C 0.97612 0.68782 0.23722 0.0
C61 C 0.01354 0.71535 0.25298 0.0
C62 C 0.97656 0.64726 0.22596 0.0
C63 C 0.01509 0.63403 0.22991 0.0
C64 C 0.0519 0.70183 0.25698 0.0
C65 C 0.05253 0.66149 0.2456 0.0
C66 C 0.01382 0.58889 0.21897 0.0
H67 H 0.93997 0.34579 0.25125 0.0
H68 H 0.93568 0.40663 0.22804 0.0
H69 H 0.09724 0.46588 0.2704 0.0
H70 H 0.0927 0.52676 0.24717 0.0
H71 H 0.05126 0.37584 0.18387 0.0
H72 H 0.06303 0.45343 0.20282 0.0
H73 H 0.91171 0.3577 0.15422 0.0
H74 H 0.92232 0.43389 0.17393 0.0
H75 H 0.07767 0.74483 0.17131 0.0
H76 H 0.07797 0.68316 0.19515 0.0
H77 H 0.93209 0.62045 0.14404 0.0
H78 H 0.93213 0.55913 0.16809 0.0
H79 H 0.94624 0.69739 0.23363 0.0
H80 H 0.94598 0.62555 0.21445 0.0
H81 H 0.0807 0.72152 0.26925 0.0
H82 H 0.08209 0.65142 0.24917 0.0
N83 N 0.01777 0.55332 0.23024 0.0
N84 N -0.00243 0.53304 0.1895 0.0
C85 C 0.69765 0.0548 0.50772 0.0
C86 C 0.67945 0.01236 0.49344 0.0
C87 C 0.66229 0.0605 0.52015 0.0
C88 C 0.60818 0.02359 0.51865 0.0
C89 C 0.62519 0.97564 0.49195 0.0
C90 C 0.5899 0.9814 0.50436 0.0
C91 C 0.56989 0.0297 0.53114 0.0
C92 C 0.67054 0.00341 0.57554 0.0
C93 C 0.69685 0.04435 0.59036 0.0
C94 C 0.63097 0.00113 0.56305 0.0
C95 C 0.61751 0.04016 0.56498 0.0
C96 C 0.68299 0.08313 0.59229 0.0
C97 C 0.64359 0.0809 0.57977 0.0
C98 C 0.57433 0.03756 0.55259 0.0
C99 C 0.36078 0.00104 0.57413 0.0
C100 C 0.37465 0.03609 0.59112 0.0
C101 C 0.39956 0.00237 0.56153 0.0
C102 C 0.45297 0.03943 0.56545 0.0
C103 C 0.42822 0.07264 0.59516 0.0
C104 C 0.46695 0.07416 0.58248 0.0
C105 C 0.49464 0.03972 0.55279 0.0
C106 C 0.40344 0.08182 0.51073 0.0
C107 C 0.37844 0.04654 0.494 0.0
C108 C 0.44017 0.07807 0.52289 0.0
C109 C 0.45198 0.0384 0.51879 0.0
C110 C 0.39127 0.00762 0.48967 0.0
C111 C 0.42777 0.00372 0.50191 0.0
C112 C 0.49176 0.03475 0.53124 0.0
H113 H 0.73908 0.08433 0.50896 0.0
H114 H 0.67713 0.09417 0.53067 0.0
H115 H 0.60997 0.94228 0.48125 0.0
H116 H 0.54824 0.95267 0.50289 0.0
H117 H 0.68046 0.97306 0.5736 0.0
H118 H 0.61042 0.9685 0.55213 0.0
H119 H 0.70175 0.11462 0.60379 0.0
H120 H 0.63333 0.11104 0.5817 0.0
H121 H 0.3199 0.97262 0.57049 0.0
H122 H 0.38774 0.97393 0.5489 0.0
H123 H 0.44036 0.09955 0.60833 0.0
H124 H 0.50794 0.10249 0.58602 0.0
H125 H 0.3943 0.11208 0.51456 0.0
H126 H 0.45959 0.10648 0.53541 0.0
H127 H 0.37354 0.98047 0.47667 0.0
H128 H 0.43694 0.97339 0.49823 0.0
N129 N 0.52897 0.02894 0.5213 0.0
N130 N 0.53633 0.0419 0.56257 0.0
C131 C 0.35809 0.3593 0.84946 0.0
C132 C 0.33031 0.36766 0.83403 0.0
C133 C 0.39844 0.40168 0.86069 0.0
C134 C 0.41132 0.45315 0.85685 0.0
C135 C 0.34334 0.41928 0.83026 0.0
C136 C 0.38368 0.4616 0.84149 0.0
C137 C 0.45575 0.49855 0.86777 0.0
C138 C 0.33374 0.41024 0.91471 0.0
C139 C 0.35175 0.39323 0.93098 0.0
C140 C 0.36929 0.44619 0.90113 0.0
C141 C 0.42345 0.46499 0.90329 0.0
C142 C 0.40614 0.41307 0.93332 0.0
C143 C 0.44154 0.44858 0.91964 0.0
C144 C 0.46205 0.50342 0.88925 0.0
C145 C 0.6462 0.72281 0.90296 0.0
C146 C 0.67287 0.71401 0.91869 0.0
C147 C 0.60428 0.68053 0.89225 0.0
C148 C 0.58853 0.6288 0.89706 0.0
C149 C 0.65644 0.66218 0.92363 0.0
C150 C 0.61449 0.62003 0.913 0.0
C151 C 0.54378 0.58352 0.88619 0.0
C152 C 0.6705 0.65817 0.83973 0.0
C153 C 0.65612 0.67357 0.82199 0.0
C154 C 0.63244 0.62762 0.85379 0.0
C155 C 0.5795 0.61309 0.85064 0.0
C156 C 0.60313 0.65854 0.81872 0.0
C157 C 0.56519 0.62856 0.83291 0.0
C158 C 0.53814 0.57796 0.8647 0.0
H159 H 0.34971 0.32011 0.85247 0.0
H160 H 0.42027 0.39431 0.87207 0.0
H161 H 0.32237 0.427 0.81862 0.0
H162 H 0.39331 0.50106 0.83818 0.0
H163 H 0.29213 0.3956 0.91237 0.0
H164 H 0.35438 0.45948 0.88905 0.0
H165 H 0.42154 0.40178 0.94591 0.0
H166 H 0.48322 0.46313 0.9218 0.0
H167 H 0.65805 0.76233 0.89881 0.0
H168 H 0.584 0.68825 0.88032 0.0
H169 H 0.67563 0.6542 0.93591 0.0
H170 H 0.60256 0.58046 0.91713 0.0
H171 H 0.71094 0.66849 0.84243 0.0
H172 H 0.64433 0.61436 0.86684 0.0
H173 H 0.59106 0.67014 0.80521 0.0
H174 H 0.52454 0.61726 0.83 0.0
N175 N 0.494 0.53602 0.85637 0.0
N176 N 0.50583 0.54575 0.89759 0.0
H177 H 0.89301 0.11999 0.07194 0.0
H178 H 0.02795 0.12866 0.1019 0.0
H179 H 0.89485 0.18305 0.09738 0.0
H180 H 0.02917 0.19081 0.12737 0.0
H181 H 0.05936 0.35315 0.14897 0.0
H182 H 0.0517 0.28246 0.12659 0.0
H183 H 0.88309 0.19685 0.13409 0.0
H184 H 0.89076 0.26767 0.15675 0.0
C185 C 0.92258 0.13477 0.08408 0.0
C186 C 0.96065 0.11972 0.08477 0.0
C187 C 0.92348 0.1707 0.0987 0.0
C188 C 0.96248 0.19225 0.11425 0.0
C189 C -0.00078 0.1756 0.11536 0.0
C190 C -0.00168 0.13977 0.1008 0.0
C191 C 0.02073 0.31889 0.14617 0.0
C192 C 0.9757 0.31603 0.1547 0.0
C193 C 0.01633 0.27837 0.13331 0.0
C194 C 0.96679 0.23403 0.12861 0.0
C195 C 0.92173 0.23081 0.13727 0.0
C196 C 0.92615 0.27135 0.15022 0.0
H197 H 0.95858 0.08193 0.42787 0.0
H198 H 0.8403 0.9369 0.39782 0.0
H199 H 0.89369 0.0768 0.45194 0.0
H200 H 0.77523 0.9315 0.42225 0.0
H201 H 0.6663 0.98453 0.45271 0.0
H202 H 0.72922 0.98024 0.42985 0.0
H203 H 0.84014 0.02483 0.48025 0.0
H204 H 0.77707 0.02884 0.50318 0.0
C205 C 0.91878 0.0487 0.42648 0.0
C206 C 0.90454 0.00991 0.41086 0.0
C207 C 0.88168 0.0456 0.4404 0.0
C208 C 0.82939 0.00372 0.43902 0.0
C209 C 0.81518 0.96449 0.42357 0.0
C210 C 0.85246 0.96746 0.40966 0.0
C211 C 0.70377 0.99259 0.45899 0.0
C212 C 0.7168 0.00728 0.47975 0.0
C213 C 0.7398 0.99009 0.44589 0.0
C214 C 0.78967 0.00237 0.45324 0.0
C215 C 0.80227 0.01591 0.47408 0.0
C216 C 0.76622 0.01832 0.4872 0.0
H217 H 0.81277 0.84686 0.71554 0.0
H218 H 0.94196 0.87623 0.75569 0.0
H219 H 0.75043 0.78851 0.74002 0.0
H220 H 0.87949 0.81604 0.77994 0.0
H221 H 0.75266 0.76101 0.8289 0.0
H222 H 0.81737 0.81351 0.80367 0.0
H223 H 0.71492 0.7067 0.75551 0.0
H224 H 0.64971 0.65539 0.78077 0.0
C225 C 0.82792 0.84011 0.72944 0.0
C226 C 0.88231 0.86642 0.73372 0.0
C227 C 0.79211 0.80636 0.74347 0.0
C228 C 0.80983 0.79767 0.76204 0.0
C229 C 0.8644 0.82259 0.76598 0.0
C230 C 0.90024 0.85678 0.75201 0.0
C231 C 0.74426 0.74873 0.81291 0.0
C232 C 0.69611 0.70444 0.80674 0.0
C233 C 0.78141 0.77858 0.79845 0.0
C234 C 0.77142 0.76442 0.77751 0.0
C235 C 0.72356 0.71936 0.77144 0.0
C236 C 0.68621 0.68989 0.78589 0.0
H237 H 0.07459 0.95885 0.08557 0.0
H238 H 0.91967 0.83775 0.06432 0.0
H239 H 0.07907 0.897 0.10791 0.0
H240 H 0.9248 0.77557 0.08609 0.0
H241 H 0.92212 0.69932 0.14553 0.0
H242 H 0.921 0.76002 0.1217 0.0
H243 H 0.08545 0.81955 0.10936 0.0
H244 H 0.08663 0.7593 0.1336 0.0
C245 C 0.04186 0.91882 0.08543 0.0
C246 C -0.00342 0.90329 0.07333 0.0
C247 C 0.04449 0.88329 0.09818 0.0
C248 C 0.00205 0.83142 0.09896 0.0
C249 C 0.95768 0.81551 0.08623 0.0
C250 C 0.95489 0.85108 0.07363 0.0
C251 C 0.95791 0.72517 0.13762 0.0
C252 C 0.00442 0.72455 0.14138 0.0
C253 C 0.95728 0.75984 0.1239 0.0
C254 C 0.00307 0.79447 0.11349 0.0
C255 C 0.04967 0.79387 0.11729 0.0
C256 C 0.05036 0.75936 0.13115 0.0
H257 H 0.20845 0.12293 0.40538 0.0
H258 H 0.08831 0.99523 0.4391 0.0
H259 H 0.27645 0.12227 0.4265 0.0
H260 H 0.15573 0.99556 0.46044 0.0
H261 H 0.28584 0.96578 0.47803 0.0
H262 H 0.22092 0.97079 0.45696 0.0
H263 H 0.31472 0.14006 0.46075 0.0
H264 H 0.38126 0.13498 0.48102 0.0
C265 C 0.19658 0.09519 0.41744 0.0
C266 C 0.14308 0.05883 0.42046 0.0
C267 C 0.23548 0.09492 0.42958 0.0
C268 C 0.22153 0.05845 0.44501 0.0
C269 C 0.16791 0.02333 0.44839 0.0
C270 C 0.12921 0.02337 0.43621 0.0
C271 C 0.29304 0.00408 0.47417 0.0
C272 C 0.33881 0.04995 0.48121 0.0
C273 C 0.25543 0.00699 0.4623 0.0
C274 C 0.2624 0.05586 0.4573 0.0
C275 C 0.30832 0.1018 0.46422 0.0
C276 C 0.34612 0.09888 0.47605 0.0
H277 H 0.09681 0.15873 0.74195 0.0
H278 H 0.13222 0.0598 0.77746 0.0
H279 H 0.15419 0.23373 0.76458 0.0
H280 H 0.19013 0.13487 0.79982 0.0
H281 H 0.25441 0.27129 0.84666 0.0
H282 H 0.18963 0.19652 0.82554 0.0
H283 H 0.24905 0.28807 0.77174 0.0
H284 H 0.31379 0.36259 0.79277 0.0
C285 C 0.11668 0.15294 0.75461 0.0
C286 C 0.11013 0.10335 0.75786 0.0
C287 C 0.14975 0.19595 0.7675 0.0
C288 C 0.17682 0.19025 0.78395 0.0
C289 C 0.16937 0.14043 0.78743 0.0
C290 C 0.13642 0.09747 0.77452 0.0
C291 C 0.25369 0.27536 0.83031 0.0
C292 C 0.28929 0.32285 0.82139 0.0
C293 C 0.21658 0.23258 0.81823 0.0
C294 C 0.21425 0.23639 0.79697 0.0
C295 C 0.24928 0.28413 0.7881 0.0
C296 C 0.28639 0.32685 0.80017 0.0
H297 H 0.91107 0.98136 0.65777 0.0
H298 H 0.92448 0.11878 0.68876 0.0
H299 H 0.8502 0.98188 0.63288 0.0
H300 H 0.86276 0.11876 0.66388 0.0
H301 H 0.79056 0.12989 0.60328 0.0
H302 H 0.85542 0.13243 0.62716 0.0
H303 H 0.75948 0.96471 0.63271 0.0
H304 H 0.6945 0.96214 0.60904 0.0
C305 C 0.9011 0.01176 0.65927 0.0
C306 C 0.92251 0.04997 0.6753 0.0
C307 C 0.86596 0.01184 0.64506 0.0
C308 C 0.85148 0.05016 0.64649 0.0
C309 C 0.87355 0.08897 0.66229 0.0
C310 C 0.90867 0.08882 0.67659 0.0
C311 C 0.7832 0.09361 0.60969 0.0
C312 C 0.73737 0.04579 0.60425 0.0
C313 C 0.82034 0.0951 0.62335 0.0
C314 C 0.81254 0.04879 0.6318 0.0
C315 C 0.76697 0.00095 0.62622 0.0
C316 C 0.72979 -0.00053 0.61262 0.0
H317 H 0.86177 0.95002 0.01179 0.0
H318 H 0.97712 0.94789 0.97177 0.0
H319 H 0.79135 0.88782 0.98848 0.0
H320 H 0.90687 0.88649 0.9484 0.0
H321 H 0.76681 0.72381 0.92936 0.0
H322 H 0.83826 0.79407 0.94986 0.0
H323 H 0.75198 0.87578 0.95394 0.0
H324 H 0.67959 0.80446 0.93382 0.0
C325 C 0.87214 0.93685 -0.00209 0.0
C326 C 0.92499 0.95348 0.99373 0.0
C327 C 0.83182 0.90144 0.9845 0.0
C328 C 0.84358 0.88195 0.96669 0.0
C329 C 0.89654 0.90014 0.96217 0.0
C330 C 0.93679 0.93552 0.97554 0.0
C331 C 0.76306 0.75672 0.93466 0.0
C332 C 0.7175 0.7585 0.93009 0.0
C333 C 0.80422 0.79726 0.94621 0.0
C334 C 0.80077 0.84051 0.9535 0.0
C335 C 0.75556 0.84275 0.94866 0.0
C336 C 0.71438 0.80221 0.937 0.0
H337 H 0.06617 0.95026 0.34685 0.0
H338 H 0.94369 0.94423 0.30856 0.0
H339 H 0.06715 0.88282 0.32494 0.0
H340 H 0.94497 0.8767 0.28658 0.0
H341 H 0.92634 0.71581 0.26707 0.0
H342 H 0.92338 0.78322 0.28837 0.0
H343 H 0.09327 0.87579 0.2892 0.0
H344 H 0.09642 0.809 0.26754 0.0
C345 C 0.03933 0.93446 0.3338 0.0
C346 C 0.0049 0.9527 0.32942 0.0
C347 C 0.04019 0.89608 0.32118 0.0
C348 C 0.00638 0.87478 0.304 0.0
C349 C 0.97127 0.89226 0.2998 0.0
C350 C 0.97068 0.93103 0.31234 0.0
C351 C 0.96308 0.75087 0.27152 0.0
C352 C 0.01166 0.75694 0.26559 0.0
C353 C 0.96132 0.78939 0.28377 0.0
C354 C 0.00808 0.8346 0.2905 0.0
C355 C 0.05661 0.84093 0.28448 0.0
C356 C 0.05839 0.80262 0.27211 0.0
H357 H 0.13165 0.96173 0.6817 0.0
H358 H 0.14721 0.09544 0.65092 0.0
H359 H 0.20031 0.96334 0.6604 0.0
H360 H 0.2144 0.0961 0.62932 0.0
H361 H 0.37068 0.11884 0.60881 0.0
H362 H 0.30377 0.11621 0.63121 0.0
H363 H 0.217 0.94687 0.62569 0.0
H364 H 0.28547 0.94943 0.60415 0.0
C365 C 0.14948 0.99123 0.67032 0.0
C366 C 0.13415 0.02856 0.66804 0.0
C367 C 0.18862 0.992 0.65804 0.0
C368 C 0.21301 0.02999 0.6432 0.0
C369 C 0.19718 0.06694 0.64085 0.0
C370 C 0.15837 0.06634 0.65317 0.0
C371 C 0.33771 0.08101 0.61258 0.0
C372 C 0.33347 0.03436 0.60466 0.0
C373 C 0.29896 0.07951 0.62523 0.0
C374 C 0.25483 0.03132 0.63017 0.0
C375 C 0.2507 0.98463 0.62235 0.0
C376 C 0.28961 0.98613 0.60976 0.0
H377 H 0.13057 0.24501 0.02867 0.0
H378 H 0.14426 0.11896 0.00031 0.0
H379 H 0.19542 0.3064 0.00549 0.0
H380 H 0.20779 0.18 0.97659 0.0
H381 H 0.35476 0.31222 0.94862 0.0
H382 H 0.29497 0.25257 0.97353 0.0
H383 H 0.20205 0.32728 0.97051 0.0
H384 H 0.26366 0.389 0.94663 0.0
C385 C 0.14744 0.23041 0.01746 0.0
C386 C 0.13223 0.17714 0.01628 0.0
C387 C 0.18433 0.26554 0.00406 0.0
C388 C 0.2065 0.24812 0.98901 0.0
C389 C 0.19201 0.19494 0.98812 0.0
C390 C 0.15543 0.15987 0.00167 0.0
C391 C 0.32197 0.31639 0.95347 0.0
C392 C 0.31418 0.35559 0.94565 0.0
C393 C 0.28726 0.2817 0.96757 0.0
C394 C 0.24369 0.2851 0.97408 0.0
C395 C 0.23564 0.324 0.9661 0.0
C396 C 0.27056 0.35893 0.95214 0.0
H397 H 0.10389 0.2283 0.34514 0.0
H398 H 0.93648 0.13062 0.33332 0.0
H399 H 0.10603 0.29543 0.3238 0.0
H400 H 0.93884 0.19616 0.31149 0.0
H401 H 0.94579 0.34171 0.29018 0.0
H402 H 0.94775 0.27969 0.31307 0.0
H403 H 0.09862 0.31494 0.28934 0.0
H404 H 0.0972 0.37852 0.26695 0.0
C405 C 0.06768 0.22105 0.33788 0.0
C406 C 0.01998 0.17437 0.34102 0.0
C407 C 0.0689 0.25935 0.32557 0.0
C408 C 0.02252 0.25144 0.31601 0.0
C409 C 0.9751 0.20427 0.31897 0.0
C410 C 0.9738 0.16643 0.33141 0.0
C411 C 0.97931 0.33611 0.28989 0.0
C412 C 0.02117 0.36457 0.27674 0.0
C413 C 0.98043 0.30044 0.30294 0.0
C414 C 0.02311 0.2918 0.30293 0.0
C415 C 0.06542 0.32099 0.28995 0.0
C416 C 0.06457 0.35723 0.27706 0.0
loop_
_geom_bond_atom_site_label_1
_geom_bond_atom_site_label_2
_geom_bond_distance
_geom_bond_site_symmetry_2
_ccdc_geom_bond_type
C0 O1 1.160 . S
C0 O7 1.185 . S
O1 C0 1.160 . S
O2 Zn3 1.899 . S
O2 C10 1.274 1_455 S
Zn3 O2 1.899 . S
Zn3 O4 2.032 1_445 S
Zn3 O7 2.086 1_545 S
Zn3 O12 1.977 . S
O4 Zn3 2.032 1_665 S
O4 C8 1.278 . S
C5 O6 1.203 . S
C5 O12 1.267 . S
O6 C5 1.203 . S
O7 C0 1.185 . S
O7 Zn3 2.086 1_565 S
C8 O4 1.278 . S
C8 O9 1.211 1_565 S
O9 C8 1.211 1_545 S
C10 O2 1.274 1_655 S
C10 O11 1.279 . S
O11 C10 1.279 . S
O12 Zn3 1.977 . S
O12 C5 1.267 . S
C13 O14 1.160 . S
C13 O20 1.185 . S
O14 C13 1.160 . S
O15 Zn16 1.899 . S
O15 C23 1.284 1_545 S
Zn16 O15 1.899 . S
Zn16 O17 2.032 1_455 S
Zn16 O20 2.086 . S
Zn16 O25 1.977 . S
O17 Zn16 2.032 1_655 S
O17 C21 1.278 . S
C18 O19 1.203 . S
C18 O25 1.267 . S
O19 C18 1.203 . S
O20 C13 1.185 . S
O20 Zn16 2.086 . S
C21 O17 1.278 . S
C21 O22 1.211 . S
O22 C21 1.211 . S
C23 O15 1.284 1_565 S
C23 O24 1.273 1_455 S
O24 C23 1.273 1_655 S
O25 Zn16 1.977 . S
O25 C18 1.267 . S
C26 O27 1.160 . S
C26 O33 1.185 1_545 S
O27 C26 1.160 . S
O28 Zn29 1.899 1_655 S
O28 C36 1.284 . S
Zn29 O28 1.899 1_455 S
Zn29 O30 2.032 . S
Zn29 O33 2.086 1_545 S
Zn29 O38 1.977 1_445 S
O30 Zn29 2.032 . S
O30 C34 1.278 . S
C31 O32 1.203 . S
C31 O38 1.267 . S
O32 C31 1.203 . S
O33 C26 1.185 1_565 S
O33 Zn29 2.086 1_565 S
C34 O30 1.278 . S
C34 O35 1.211 . S
O35 C34 1.211 . S
C36 O28 1.284 . S
C36 O37 1.273 . S
O37 C36 1.273 . S
O38 Zn29 1.977 1_665 S
O38 C31 1.267 . S
C39 C40 1.384 1_655 S
C39 C41 1.384 . S
C39 H67 0.931 . S
C40 C39 1.384 1_455 S
C40 C43 1.382 . S
C41 C39 1.384 . S
C41 C42 1.381 1_655 S
C41 H68 0.930 . S
C42 C41 1.381 1_455 S
C42 C44 1.381 . S
C42 C45 1.487 . S
C43 C40 1.382 . S
C43 C44 1.387 . S
C43 H69 0.930 . S
C44 C42 1.381 . S
C44 C43 1.387 . S
C44 H70 0.931 . S
C45 C42 1.487 . S
C45 C52 1.399 . S
C45 N83 1.343 . S
C46 C47 1.384 . S
C46 C48 1.384 . S
C46 H71 0.931 . S
C47 C46 1.384 . S
C47 C50 1.382 1_455 S
C48 C46 1.384 . S
C48 C49 1.381 . S
C48 H72 0.930 . S
C49 C48 1.381 . S
C49 C51 1.381 1_455 S
C49 C52 1.487 . S
C50 C47 1.382 1_655 S
C50 C51 1.387 . S
C50 H73 0.930 . S
C51 C49 1.381 1_655 S
C51 C50 1.387 . S
C51 H74 0.931 . S
C52 C45 1.399 . S
C52 C49 1.487 . S
C52 N84 1.343 . S
C53 C54 1.384 . S
C53 C55 1.384 . S
C53 H75 0.931 . S
C54 C53 1.384 . S
C54 C57 1.382 1_455 S
C55 C53 1.384 . S
C55 C56 1.381 . S
C55 H76 0.930 . S
C56 C55 1.381 . S
C56 C58 1.381 1_455 S
C56 C59 1.487 . S
C57 C54 1.382 1_655 S
C57 C58 1.387 . S
C57 H77 0.930 . S
C58 C56 1.381 1_655 S
C58 C57 1.387 . S
C58 H78 0.931 . S
C59 C56 1.487 . S
C59 C66 1.399 . S
C59 N84 1.343 . S
C60 C61 1.384 1_655 S
C60 C62 1.384 . S
C60 H79 0.931 . S
C61 C60 1.384 1_455 S
C61 C64 1.382 . S
C62 C60 1.384 . S
C62 C63 1.381 1_655 S
C62 H80 0.930 . S
C63 C62 1.381 1_455 S
C63 C65 1.381 . S
C63 C66 1.487 . S
C64 C61 1.382 . S
C64 C65 1.387 . S
C64 H81 0.930 . S
C65 C63 1.381 . S
C65 C64 1.387 . S
C65 H82 0.931 . S
C66 C59 1.399 . S
C66 C63 1.487 . S
C66 N83 1.343 . S
H67 C39 0.931 . S
H68 C41 0.930 . S
H69 C43 0.930 . S
H70 C44 0.931 . S
H71 C46 0.931 . S
H72 C48 0.930 . S
H73 C50 0.930 . S
H74 C51 0.931 . S
H75 C53 0.931 . S
H76 C55 0.930 . S
H77 C57 0.930 . S
H78 C58 0.931 . S
H79 C60 0.931 . S
H80 C62 0.930 . S
H81 C64 0.930 . S
H82 C65 0.931 . S
N83 C45 1.343 . S
N83 C66 1.343 . S
N84 C52 1.343 . S
N84 C59 1.343 . S
C85 C86 1.384 . S
C85 C87 1.384 . S
C85 H113 0.931 . S
C86 C85 1.384 . S
C86 C89 1.382 1_545 S
C87 C85 1.384 . S
C87 C88 1.381 . S
C87 H114 0.930 . S
C88 C87 1.381 . S
C88 C90 1.381 1_545 S
C88 C91 1.487 . S
C89 C86 1.382 1_565 S
C89 C90 1.387 . S
C89 H115 0.930 . S
C90 C88 1.381 1_565 S
C90 C89 1.387 . S
C90 H116 0.931 . S
C91 C88 1.487 . S
C91 C98 1.399 . S
C91 N129 1.343 . S
C92 C93 1.384 1_565 S
C92 C94 1.384 . S
C92 H117 0.931 . S
C93 C92 1.384 1_545 S
C93 C96 1.382 . S
C94 C92 1.384 . S
C94 C95 1.381 1_565 S
C94 H118 0.930 . S
C95 C94 1.381 1_545 S
C95 C97 1.381 . S
C95 C98 1.487 . S
C96 C93 1.382 . S
C96 C97 1.387 . S
C96 H119 0.930 . S
C97 C95 1.381 . S
C97 C96 1.387 . S
C97 H120 0.931 . S
C98 C91 1.399 . S
C98 C95 1.487 . S
C98 N130 1.343 . S
C99 C100 1.384 1_565 S
C99 C101 1.384 . S
C99 H121 0.931 . S
C100 C99 1.384 1_545 S
C100 C103 1.382 . S
C101 C99 1.384 . S
C101 C102 1.381 1_565 S
C101 H122 0.930 . S
C102 C101 1.381 1_545 S
C102 C104 1.381 . S
C102 C105 1.487 . S
C103 C100 1.382 . S
C103 C104 1.387 . S
C103 H123 0.930 . S
C104 C102 1.381 . S
C104 C103 1.387 . S
C104 H124 0.931 . S
C105 C102 1.487 . S
C105 C112 1.399 . S
C105 N130 1.343 . S
C106 C107 1.384 . S
C106 C108 1.384 . S
C106 H125 0.931 . S
C107 C106 1.384 . S
C107 C110 1.382 1_545 S
C108 C106 1.384 . S
C108 C109 1.381 . S
C108 H126 0.930 . S
C109 C108 1.381 . S
C109 C111 1.381 1_545 S
C109 C112 1.487 . S
C110 C107 1.382 1_565 S
C110 C111 1.387 . S
C110 H127 0.930 . S
C111 C109 1.381 1_565 S
C111 C110 1.387 . S
C111 H128 0.931 . S
C112 C105 1.399 . S
C112 C109 1.487 . S
C112 N129 1.343 . S
H113 C85 0.931 . S
H114 C87 0.930 . S
H115 C89 0.930 . S
H116 C90 0.931 . S
H117 C92 0.931 . S
H118 C94 0.930 . S
H119 C96 0.930 . S
H120 C97 0.931 . S
H121 C99 0.931 . S
H122 C101 0.930 . S
H123 C103 0.930 . S
H124 C104 0.931 . S
H125 C106 0.931 . S
H126 C108 0.930 . S
H127 C110 0.930 . S
H128 C111 0.931 . S
N129 C91 1.343 . S
N129 C112 1.343 . S
N130 C98 1.343 . S
N130 C105 1.343 . S
C131 C132 1.384 . S
C131 C133 1.384 . S
C131 H159 0.931 . S
C132 C131 1.384 . S
C132 C135 1.382 . S
C133 C131 1.384 . S
C133 C134 1.381 . S
C133 H160 0.930 . S
C134 C133 1.381 . S
C134 C136 1.381 . S
C134 C137 1.487 . S
C135 C132 1.382 . S
C135 C136 1.387 . S
C135 H161 0.930 . S
C136 C134 1.381 . S
C136 C135 1.387 . S
C136 H162 0.931 . S
C137 C134 1.487 . S
C137 C144 1.399 . S
C137 N175 1.343 . S
C138 C139 1.384 . S
C138 C140 1.384 . S
C138 H163 0.931 . S
C139 C138 1.384 . S
C139 C142 1.382 . S
C140 C138 1.384 . S
C140 C141 1.381 . S
C140 H164 0.930 . S
C141 C140 1.381 . S
C141 C143 1.381 . S
C141 C144 1.487 . S
C142 C139 1.382 . S
C142 C143 1.387 . S
C142 H165 0.930 . S
C143 C141 1.381 . S
C143 C142 1.387 . S
C143 H166 0.931 . S
C144 C137 1.399 . S
C144 C141 1.487 . S
C144 N176 1.343 . S
C145 C146 1.384 . S
C145 C147 1.384 . S
C145 H167 0.931 . S
C146 C145 1.384 . S
C146 C149 1.382 . S
C147 C145 1.384 . S
C147 C148 1.381 . S
C147 H168 0.930 . S
C148 C147 1.381 . S
C148 C150 1.381 . S
C148 C151 1.487 . S
C149 C146 1.382 . S
C149 C150 1.387 . S
C149 H169 0.930 . S
C150 C148 1.381 . S
C150 C149 1.387 . S
C150 H170 0.931 . S
C151 C148 1.487 . S
C151 C158 1.399 . S
C151 N176 1.343 . S
C152 C153 1.384 . S
C152 C154 1.384 . S
C152 H171 0.931 . S
C153 C152 1.384 . S
C153 C156 1.382 . S
C154 C152 1.384 . S
C154 C155 1.381 . S
C154 H172 0.930 . S
C155 C154 1.381 . S
C155 C157 1.381 . S
C155 C158 1.487 . S
C156 C153 1.382 . S
C156 C157 1.387 . S
C156 H173 0.930 . S
C157 C155 1.381 . S
C157 C156 1.387 . S
C157 H174 0.931 . S
C158 C151 1.399 . S
C158 C155 1.487 . S
C158 N175 1.343 . S
H159 C131 0.931 . S
H160 C133 0.930 . S
H161 C135 0.930 . S
H162 C136 0.931 . S
H163 C138 0.931 . S
H164 C140 0.930 . S
H165 C142 0.930 . S
H166 C143 0.931 . S
H167 C145 0.931 . S
H168 C147 0.930 . S
H169 C149 0.930 . S
H170 C150 0.931 . S
H171 C152 0.931 . S
H172 C154 0.930 . S
H173 C156 0.930 . S
H174 C157 0.931 . S
N175 C137 1.343 . S
N175 C158 1.343 . S
N176 C144 1.343 . S
N176 C151 1.343 . S
H177 C185 0.950 . S
H178 C190 0.950 . S
H179 C187 0.950 . S
H180 C189 0.950 . S
H181 C191 0.950 . S
H182 C193 0.950 . S
H183 C195 0.950 . S
H184 C196 0.950 . S
C185 H177 0.950 . S
C185 C186 1.386 1_655 S
C185 C187 1.391 . S
C186 C185 1.386 1_455 S
C186 C190 1.393 . S
C187 H179 0.950 . S
C187 C185 1.391 . S
C187 C188 1.400 1_655 S
C188 C187 1.400 1_455 S
C188 C189 1.398 . S
C188 C194 1.491 . S
C189 H180 0.950 . S
C189 C188 1.398 . S
C189 C190 1.391 . S
C190 H178 0.950 . S
C190 C186 1.393 . S
C190 C189 1.391 . S
C191 H181 0.950 . S
C191 C192 1.386 . S
C191 C193 1.391 . S
C192 C191 1.386 . S
C192 C196 1.393 1_455 S
C193 H182 0.950 . S
C193 C191 1.391 . S
C193 C194 1.400 . S
C194 C188 1.491 . S
C194 C193 1.400 . S
C194 C195 1.398 1_455 S
C195 H183 0.950 . S
C195 C194 1.398 1_655 S
C195 C196 1.391 . S
C196 H184 0.950 . S
C196 C192 1.393 1_655 S
C196 C195 1.391 . S
H197 C205 0.950 . S
H198 C210 0.950 1_565 S
H199 C207 0.950 . S
H200 C209 0.950 1_565 S
H201 C211 0.947 1_565 S
H202 C213 0.940 1_565 S
H203 C215 0.950 . S
H204 C216 0.950 . S
C205 H197 0.950 . S
C205 C206 1.386 . S
C205 C207 1.391 . S
C206 C205 1.386 . S
C206 C210 1.393 . S
C207 H199 0.950 . S
C207 C205 1.391 . S
C207 C208 1.400 . S
C208 C207 1.400 . S
C208 C209 1.398 . S
C208 C214 1.491 . S
C209 H200 0.950 1_545 S
C209 C208 1.398 . S
C209 C210 1.391 . S
C210 H198 0.950 1_545 S
C210 C206 1.393 . S
C210 C209 1.391 . S
C211 H201 0.947 1_545 S
C211 C212 1.397 . S
C211 C213 1.391 . S
C212 C211 1.397 . S
C212 C216 1.393 . S
C213 H202 0.940 1_545 S
C213 C211 1.391 . S
C213 C214 1.402 . S
C214 C208 1.491 . S
C214 C213 1.402 . S
C214 C215 1.398 . S
C215 H203 0.950 . S
C215 C214 1.398 . S
C215 C216 1.391 . S
C216 H204 0.950 . S
C216 C212 1.393 . S
C216 C215 1.391 . S
H217 C225 0.950 . S
H218 C230 0.950 . S
H219 C227 0.950 . S
H220 C229 0.950 . S
H221 C231 0.950 . S
H222 C233 0.950 . S
H223 C235 0.950 . S
H224 C236 0.950 . S
C225 H217 0.950 . S
C225 C226 1.386 . S
C225 C227 1.391 . S
C226 C225 1.386 . S
C226 C230 1.393 . S
C227 H219 0.950 . S
C227 C225 1.391 . S
C227 C228 1.400 . S
C228 C227 1.400 . S
C228 C229 1.398 . S
C228 C234 1.491 . S
C229 H220 0.950 . S
C229 C228 1.398 . S
C229 C230 1.391 . S
C230 H218 0.950 . S
C230 C226 1.393 . S
C230 C229 1.391 . S
C231 H221 0.950 . S
C231 C232 1.386 . S
C231 C233 1.391 . S
C232 C231 1.386 . S
C232 C236 1.393 . S
C233 H222 0.950 . S
C233 C231 1.391 . S
C233 C234 1.400 . S
C234 C228 1.491 . S
C234 C233 1.400 . S
C234 C235 1.398 . S
C235 H223 0.950 . S
C235 C234 1.398 . S
C235 C236 1.391 . S
C236 H224 0.950 . S
C236 C232 1.393 . S
C236 C235 1.391 . S
H237 C245 0.950 . S
H238 C250 0.950 . S
H239 C247 0.950 . S
H240 C249 0.950 . S
H241 C251 0.950 . S
H242 C253 0.950 . S
H243 C255 0.950 . S
H244 C256 0.950 . S
C245 H237 0.950 . S
C245 C246 1.386 . S
C245 C247 1.391 . S
C246 C245 1.386 . S
C246 C250 1.393 1_455 S
C247 H239 0.950 . S
C247 C245 1.391 . S
C247 C248 1.400 . S
C248 C247 1.400 . S
C248 C249 1.398 1_455 S
C248 C254 1.491 . S
C249 H240 0.950 . S
C249 C248 1.398 1_655 S
C249 C250 1.391 . S
C250 H238 0.950 . S
C250 C246 1.393 1_655 S
C250 C249 1.391 . S
C251 H241 0.950 . S
C251 C252 1.386 1_655 S
C251 C253 1.391 . S
C252 C251 1.386 1_455 S
C252 C256 1.393 . S
C253 H242 0.950 . S
C253 C251 1.391 . S
C253 C254 1.400 1_655 S
C254 C248 1.491 . S
C254 C253 1.400 1_455 S
C254 C255 1.398 . S
C255 H243 0.950 . S
C255 C254 1.398 . S
C255 C256 1.391 . S
C256 H244 0.950 . S
C256 C252 1.393 . S
C256 C255 1.391 . S
H257 C265 0.950 . S
H258 C270 0.950 . S
H259 C267 0.950 . S
H260 C269 0.950 . S
H261 C271 0.950 1_565 S
H262 C273 0.950 . S
H263 C275 0.950 . S
H264 C276 0.950 . S
C265 H257 0.950 . S
C265 C266 1.386 . S
C265 C267 1.391 . S
C266 C265 1.386 . S
C266 C270 1.393 . S
C267 H259 0.950 . S
C267 C265 1.391 . S
C267 C268 1.400 . S
C268 C267 1.400 . S
C268 C269 1.398 . S
C268 C274 1.491 . S
C269 H260 0.950 . S
C269 C268 1.398 . S
C269 C270 1.391 . S
C270 H258 0.950 . S
C270 C266 1.393 . S
C270 C269 1.391 . S
C271 H261 0.950 1_545 S
C271 C272 1.386 . S
C271 C273 1.391 . S
C272 C271 1.386 . S
C272 C276 1.393 . S
C273 H262 0.950 . S
C273 C271 1.391 . S
C273 C274 1.400 . S
C274 C268 1.491 . S
C274 C273 1.400 . S
C274 C275 1.398 . S
C275 H263 0.950 . S
C275 C274 1.398 . S
C275 C276 1.391 . S
C276 H264 0.950 . S
C276 C272 1.393 . S
C276 C275 1.391 . S
H277 C285 0.950 . S
H278 C290 0.950 . S
H279 C287 0.950 . S
H280 C289 0.950 . S
H281 C291 0.950 . S
H282 C293 0.950 . S
H283 C295 0.950 . S
H284 C296 0.950 . S
C285 H277 0.950 . S
C285 C286 1.386 . S
C285 C287 1.391 . S
C286 C285 1.386 . S
C286 C290 1.393 . S
C287 H279 0.950 . S
C287 C285 1.391 . S
C287 C288 1.400 . S
C288 C287 1.400 . S
C288 C289 1.398 . S
C288 C294 1.491 . S
C289 H280 0.950 . S
C289 C288 1.398 . S
C289 C290 1.391 . S
C290 H278 0.950 . S
C290 C286 1.393 . S
C290 C289 1.391 . S
C291 H281 0.950 . S
C291 C292 1.386 . S
C291 C293 1.391 . S
C292 C291 1.386 . S
C292 C296 1.393 . S
C293 H282 0.950 . S
C293 C291 1.391 . S
C293 C294 1.400 . S
C294 C288 1.491 . S
C294 C293 1.400 . S
C294 C295 1.398 . S
C295 H283 0.950 . S
C295 C294 1.398 . S
C295 C296 1.391 . S
C296 H284 0.950 . S
C296 C292 1.393 . S
C296 C295 1.391 . S
H297 C305 0.950 . S
H298 C310 0.950 . S
H299 C307 0.950 . S
H300 C309 0.950 . S
H301 C311 0.950 . S
H302 C313 0.950 . S
H303 C315 0.950 . S
H304 C316 0.950 . S
C305 H297 0.950 . S
C305 C306 1.386 1_565 S
C305 C307 1.391 . S
C306 C305 1.386 1_545 S
C306 C310 1.393 . S
C307 H299 0.950 . S
C307 C305 1.391 . S
C307 C308 1.400 1_565 S
C308 C307 1.400 1_545 S
C308 C309 1.398 . S
C308 C314 1.491 . S
C309 H300 0.950 . S
C309 C308 1.398 . S
C309 C310 1.391 . S
C310 H298 0.950 . S
C310 C306 1.393 . S
C310 C309 1.391 . S
C311 H301 0.950 . S
C311 C312 1.386 . S
C311 C313 1.391 . S
C312 C311 1.386 . S
C312 C316 1.393 1_545 S
C313 H302 0.950 . S
C313 C311 1.391 . S
C313 C314 1.400 . S
C314 C308 1.491 . S
C314 C313 1.400 . S
C314 C315 1.398 1_545 S
C315 H303 0.950 . S
C315 C314 1.398 1_565 S
C315 C316 1.391 . S
C316 H304 0.950 . S
C316 C312 1.393 1_565 S
C316 C315 1.391 . S
H317 C325 0.950 . S
H318 C330 0.950 . S
H319 C327 0.950 . S
H320 C329 0.950 . S
H321 C331 0.950 . S
H322 C333 0.950 . S
H323 C335 0.950 . S
H324 C336 0.950 . S
C325 H317 0.950 . S
C325 C326 1.386 . S
C325 C327 1.391 . S
C326 C325 1.386 . S
C326 C330 1.393 1_554 S
C327 H319 0.950 . S
C327 C325 1.391 . S
C327 C328 1.400 1_554 S
C328 C327 1.400 1_556 S
C328 C329 1.398 . S
C328 C334 1.491 . S
C329 H320 0.950 . S
C329 C328 1.398 . S
C329 C330 1.391 . S
C330 H318 0.950 . S
C330 C326 1.393 1_556 S
C330 C329 1.391 . S
C331 H321 0.950 . S
C331 C332 1.386 . S
C331 C333 1.391 . S
C332 C331 1.386 . S
C332 C336 1.393 . S
C333 H322 0.950 . S
C333 C331 1.391 . S
C333 C334 1.400 . S
C334 C328 1.491 . S
C334 C333 1.400 . S
C334 C335 1.398 . S
C335 H323 0.950 . S
C335 C334 1.398 . S
C335 C336 1.391 . S
C336 H324 0.950 . S
C336 C332 1.393 . S
C336 C335 1.391 . S
H337 C345 0.950 . S
H338 C350 0.950 . S
H339 C347 0.950 . S
H340 C349 0.950 . S
H341 C351 0.950 . S
H342 C353 0.950 . S
H343 C355 0.950 . S
H344 C356 0.950 . S
C345 H337 0.950 . S
C345 C346 1.386 . S
C345 C347 1.391 . S
C346 C345 1.386 . S
C346 C350 1.393 1_455 S
C347 H339 0.950 . S
C347 C345 1.391 . S
C347 C348 1.400 . S
C348 C347 1.400 . S
C348 C349 1.398 1_455 S
C348 C354 1.491 . S
C349 H340 0.950 . S
C349 C348 1.398 1_655 S
C349 C350 1.391 . S
C350 H338 0.950 . S
C350 C346 1.393 1_655 S
C350 C349 1.391 . S
C351 H341 0.950 . S
C351 C352 1.386 1_655 S
C351 C353 1.391 . S
C352 C351 1.386 1_455 S
C352 C356 1.393 . S
C353 H342 0.950 . S
C353 C351 1.391 . S
C353 C354 1.400 1_655 S
C354 C348 1.491 . S
C354 C353 1.400 1_455 S
C354 C355 1.398 . S
C355 H343 0.950 . S
C355 C354 1.398 . S
C355 C356 1.391 . S
C356 H344 0.950 . S
C356 C352 1.393 . S
C356 C355 1.391 . S
H357 C365 0.950 . S
H358 C370 0.950 . S
H359 C367 0.950 . S
H360 C369 0.950 . S
H361 C371 0.950 . S
H362 C373 0.950 . S
H363 C375 0.950 . S
H364 C376 0.950 . S
C365 H357 0.950 . S
C365 C366 1.384 . S
C365 C367 1.391 . S
C366 C365 1.384 . S
C366 C370 1.394 1_565 S
C367 H359 0.950 . S
C367 C365 1.391 . S
C367 C368 1.400 1_565 S
C368 C367 1.400 1_545 S
C368 C369 1.398 . S
C368 C374 1.491 . S
C369 H360 0.950 . S
C369 C368 1.398 . S
C369 C370 1.391 . S
C370 H358 0.950 . S
C370 C366 1.394 1_545 S
C370 C369 1.391 . S
C371 H361 0.950 . S
C371 C372 1.386 . S
C371 C373 1.391 . S
C372 C371 1.386 . S
C372 C376 1.393 1_545 S
C373 H362 0.950 . S
C373 C371 1.391 . S
C373 C374 1.400 . S
C374 C368 1.491 . S
C374 C373 1.400 . S
C374 C375 1.398 1_545 S
C375 H363 0.950 . S
C375 C374 1.398 1_565 S
C375 C376 1.391 . S
C376 H364 0.950 . S
C376 C372 1.393 1_565 S
C376 C375 1.391 . S
H377 C385 0.950 . S
H378 C390 0.950 . S
H379 C387 0.950 . S
H380 C389 0.950 . S
H381 C391 0.950 . S
H382 C393 0.950 . S
H383 C395 0.950 . S
H384 C396 0.950 . S
C385 H377 0.950 . S
C385 C386 1.386 . S
C385 C387 1.391 1_554 S
C386 C385 1.386 . S
C386 C390 1.393 1_554 S
C387 H379 0.950 . S
C387 C385 1.391 1_556 S
C387 C388 1.400 . S
C388 C387 1.400 . S
C388 C389 1.398 . S
C388 C394 1.491 . S
C389 H380 0.950 . S
C389 C388 1.398 . S
C389 C390 1.391 . S
C390 H378 0.950 . S
C390 C386 1.393 1_556 S
C390 C389 1.391 . S
C391 H381 0.950 . S
C391 C392 1.386 . S
C391 C393 1.391 . S
C392 C391 1.386 . S
C392 C396 1.393 . S
C393 H382 0.950 . S
C393 C391 1.391 . S
C393 C394 1.400 . S
C394 C388 1.491 . S
C394 C393 1.400 . S
C394 C395 1.398 . S
C395 H383 0.950 . S
C395 C394 1.398 . S
C395 C396 1.391 . S
C396 H384 0.950 . S
C396 C392 1.393 . S
C396 C395 1.391 . S
H397 C405 0.950 . S
H398 C410 0.950 1_655 S
H399 C407 0.950 . S
H400 C409 0.950 1_655 S
H401 C411 0.950 . S
H402 C413 0.950 . S
H403 C415 0.950 . S
H404 C416 0.950 . S
C405 H397 0.950 . S
C405 C406 1.386 . S
C405 C407 1.391 . S
C406 C405 1.386 . S
C406 C410 1.393 . S
C407 H399 0.950 . S
C407 C405 1.391 . S
C407 C408 1.400 . S
C408 C407 1.400 . S
C408 C409 1.398 . S
C408 C414 1.491 . S
C409 H400 0.950 1_455 S
C409 C408 1.398 . S
C409 C410 1.391 . S
C410 H398 0.950 1_455 S
C410 C406 1.393 . S
C410 C409 1.391 . S
C411 H401 0.950 . S
C411 C412 1.386 1_655 S
C411 C413 1.391 . S
C412 C411 1.386 1_455 S
C412 C416 1.393 . S
C413 H402 0.950 . S
C413 C411 1.391 . S
C413 C414 1.400 1_655 S
C414 C408 1.491 . S
C414 C413 1.400 1_455 S
C414 C415 1.398 . S
C415 H403 0.950 . S
C415 C414 1.398 . S
C415 C416 1.391 . S
C416 H404 0.950 . S
C416 C412 1.393 . S
C416 C415 1.391 . S
C192 C47 1.402 . S
C186 C10 1.406 1_455 S
C206 C21 1.431 . S
C212 C86 1.455 . S
C226 C31 1.391 . S
C232 C153 1.450 . S
C246 C0 1.362 . S
C252 C54 1.421 . S
C272 C107 1.446 . S
C266 C18 1.388 . S
C286 C34 1.387 . S
C292 C132 1.420 . S
C312 C93 1.386 . S
C306 C36 1.388 . S
C326 C8 1.387 . S
C332 C146 1.418 . S
C352 C61 1.402 . S
C346 C23 1.401 . S
C372 C100 1.367 . S
C366 C26 1.324 1_565 S
C392 C139 1.444 . S
C386 C5 1.380 . S
C406 C13 1.365 . S
C412 C40 1.420 . S
