# Generated by pormake.
# Topology rtl, (3,6)-cn, num edge types: 1
# Building blocks:
#     Node 0, Type 0, BuildingBlock: BETDAH_clean_linker_0, # of connection points: 3
#     Node 1, Type 0, BuildingBlock: BETDAH_clean_linker_0, # of connection points: 3
#     Node 2, Type 0, BuildingBlock: BETDAH_clean_linker_0, # of connection points: 3
#     Node 3, Type 0, BuildingBlock: BETDAH_clean_linker_0, # of connection points: 3
#     Node 4, Type 1, BuildingBlock: FUNLAD_clean_sbu_0, # of connection points: 6
#     Node 5, Type 1, BuildingBlock: FUNLAD_clean_sbu_0, # of connection points: 6
#     Edge 6, Type (0, 1), BuildingBlock: TEMPAE_clean_linker_10, # of connection points: 2
#     Edge 7, Type (0, 1), BuildingBlock: TEMPAE_clean_linker_10, # of connection points: 2
#     Edge 8, Type (0, 1), BuildingBlock: TEMPAE_clean_linker_10, # of connection points: 2
#     Edge 9, Type (0, 1), BuildingBlock: TEMPAE_clean_linker_10, # of connection points: 2
#     Edge 10, Type (0, 1), BuildingBlock: TEMPAE_clean_linker_10, # of connection points: 2
#     Edge 11, Type (0, 1), BuildingBlock: TEMPAE_clean_linker_10, # of connection points: 2
#     Edge 12, Type (0, 1), BuildingBlock: TEMPAE_clean_linker_10, # of connection points: 2
#     Edge 13, Type (0, 1), BuildingBlock: TEMPAE_clean_linker_10, # of connection points: 2
#     Edge 14, Type (0, 1), BuildingBlock: TEMPAE_clean_linker_10, # of connection points: 2
#     Edge 15, Type (0, 1), BuildingBlock: TEMPAE_clean_linker_10, # of connection points: 2
#     Edge 16, Type (0, 1), BuildingBlock: TEMPAE_clean_linker_10, # of connection points: 2
#     Edge 17, Type (0, 1), BuildingBlock: TEMPAE_clean_linker_10, # of connection points: 2
# Relax obj value: 0.003
# Max RMSD: 0.042
# Mean RMSD: 0.028
data_MOF--net-rtl--node1-FUNLAD_clean_sbu_0--node2-BETDAH_clean_linker_0--edge1-TEMPAE_clean_linker_10
_symmetry_space_group_name_H-M    P1
_symmetry_Int_Tables_number       1
_symmetry_cell_setting            triclinic
loop_
_symmetry_equiv_pos_as_xyz
'x, y, z'
_cell_length_a     40.811352
_cell_length_b     40.768473
_cell_length_c     21.188681
_cell_angle_alpha  91.225761
_cell_angle_beta   92.325652
_cell_angle_gamma 90.048605
loop_
_atom_site_label
_atom_site_type_symbol
_atom_site_fract_x
_atom_site_fract_y
_atom_site_fract_z
_atom_type_partial_charge
H0 H 0.1194 0.88495 0.98321 0.0
H1 H 0.17777 0.8096 0.07155 0.0
H2 H 0.15891 0.80679 0.87062 0.0
C3 C 0.13471 0.86338 0.97919 0.0
C4 C 0.13846 0.84862 0.91956 0.0
C5 C 0.14932 0.85017 0.0342 0.0
C6 C 0.16702 0.82061 0.0295 0.0
C7 C 0.16981 0.80483 0.97017 0.0
C8 C 0.15575 0.81897 0.9159 0.0
N9 N 0.18473 0.77368 0.96325 0.0
C10 C 0.21235 0.76322 0.99744 0.0
H11 H 0.62364 0.62731 0.53615 0.0
H12 H 0.69793 0.68974 0.46478 0.0
H13 H 0.68741 0.68234 0.66524 0.0
C14 C 0.64405 0.64405 0.54489 0.0
C15 C 0.65376 0.65263 0.60717 0.0
C16 C 0.66046 0.65625 0.49336 0.0
C17 C 0.68525 0.67999 0.50421 0.0
C18 C 0.69446 0.6898 0.56671 0.0
C19 C 0.67911 0.6756 0.61749 0.0
N20 N 0.71994 0.71273 0.58135 0.0
C21 C 0.73413 0.73359 0.53919 0.0
H22 H 0.88824 0.13057 0.97381 0.0
H23 H 0.81303 0.1884 0.05977 0.0
H24 H 0.80456 0.1621 0.86221 0.0
C25 C 0.86543 0.14408 0.97005 0.0
C26 C 0.84842 0.14505 0.91137 0.0
C27 C 0.85303 0.15943 0.02415 0.0
C28 C 0.82316 0.17672 0.01853 0.0
C29 C 0.80588 0.17781 0.95965 0.0
C30 C 0.81847 0.16174 0.90688 0.0
N31 N 0.77477 0.19296 0.95198 0.0
C32 C 0.76413 0.21989 0.98672 0.0
H33 H 0.38783 0.38443 0.54989 0.0
H34 H 0.30765 0.33068 0.62402 0.0
H35 H 0.31162 0.34522 0.42449 0.0
C36 C 0.36597 0.36957 0.54207 0.0
C37 C 0.35286 0.36505 0.4803 0.0
C38 C 0.35053 0.35676 0.59435 0.0
C39 C 0.32052 0.33992 0.58435 0.0
C40 C 0.30643 0.33636 0.52283 0.0
C41 C 0.32271 0.34868 0.47146 0.0
N42 N 0.27439 0.3237 0.51147 0.0
C43 C 0.2632 0.2943 0.53457 0.0
C44 C 0.03888 0.97377 0.37462 0.0
N45 N 0.05784 0.05903 0.48582 0.0
C46 C 0.08996 0.05012 0.49131 0.0
C47 C 0.11441 0.07388 0.50223 0.0
C48 C 0.10574 0.10715 0.5073 0.0
C49 C 0.07239 0.11558 0.50159 0.0
C50 C 0.04878 0.09106 0.49089 0.0
Zn51 Zn 0.02204 0.02396 0.47124 0.0
C52 C 0.97166 0.0437 0.37208 0.0
N53 N 0.94612 0.95185 0.44257 0.0
C54 C 0.95527 0.91977 0.44358 0.0
C55 C 0.91392 0.96048 0.4371 0.0
C56 C 0.88945 0.93638 0.43442 0.0
C57 C 0.89823 0.90313 0.43791 0.0
C58 C 0.93165 0.89495 0.44143 0.0
Zn59 Zn 0.98185 0.98709 0.45525 0.0
O60 O 0.04972 1.00009 0.4012 0.0
C61 C 0.03168 0.96782 0.55502 0.0
O62 O 0.01085 0.96287 0.38794 0.0
H63 H 0.90716 0.98612 0.43662 0.0
H64 H 0.09667 0.02453 0.48715 0.0
H65 H 0.98097 0.91339 0.44772 0.0
O66 O 0.04539 0.9942 0.53931 0.0
O67 O 0.00437 0.95929 0.52875 0.0
H68 H 0.02313 0.09766 0.48684 0.0
O69 O 0.95356 0.01191 0.52264 0.0
O70 O 0.9941 0.04653 0.54217 0.0
O71 O 0.95993 0.01558 0.38298 0.0
O72 O 0.99754 0.05355 0.40225 0.0
C73 C 0.96544 0.03656 0.5534 0.0
H74 H 0.13984 0.06632 0.50566 0.0
H75 H 0.06457 0.14087 0.50598 0.0
H76 H 0.86394 0.94373 0.43227 0.0
H77 H 0.93946 0.86959 0.44355 0.0
C78 C 0.46751 0.4705 0.95757 0.0
N79 N 0.55964 0.45259 0.04619 0.0
C80 C 0.55047 0.42052 0.04747 0.0
C81 C 0.57404 0.39571 0.04784 0.0
C82 C 0.60746 0.40392 0.04729 0.0
C83 C 0.61629 0.43721 0.04674 0.0
C84 C 0.59186 0.46126 0.04593 0.0
Zn85 Zn 0.524 0.48811 0.04502 0.0
C86 C 0.53537 0.53874 0.94906 0.0
N87 N 0.44962 0.56228 0.04374 0.0
C88 C 0.41774 0.55256 0.04461 0.0
C89 C 0.4578 0.59466 0.0441 0.0
C90 C 0.43341 0.61872 0.04546 0.0
C91 C 0.4003 0.60933 0.04598 0.0
C92 C 0.39261 0.57574 0.04555 0.0
Zn93 Zn 0.48545 0.52709 0.04382 0.0
O94 O 0.49494 0.45977 0.97876 0.0
C95 C 0.47421 0.47659 0.13998 0.0
O96 O 0.45757 0.49856 0.9757 0.0
H97 H 0.48328 0.60188 0.04333 0.0
H98 H 0.52477 0.4141 0.04811 0.0
H99 H 0.41175 0.52672 0.04483 0.0
O100 O 0.50032 0.4646 0.11852 0.0
O101 O 0.46261 0.50307 0.1179 0.0
H102 H 0.59867 0.48688 0.04476 0.0
O103 O 0.51398 0.55496 0.11134 0.0
O104 O 0.55239 0.51721 0.11103 0.0
O105 O 0.50903 0.55057 0.97002 0.0
O106 O 0.547 0.51229 0.97144 0.0
C107 C 0.54202 0.54486 0.1305 0.0
H108 H 0.5662 0.37035 0.04894 0.0
H109 H 0.64176 0.44457 0.04563 0.0
H110 H 0.44035 0.64436 0.0451 0.0
H111 H 0.36742 0.56746 0.04661 0.0
C112 C 0.22112 0.26276 0.587 0.0
C113 C 0.24666 0.26376 0.54511 0.0
C114 C 0.20016 0.2354 0.58758 0.0
C115 C 0.20482 0.2088 0.54467 0.0
C116 C 0.23188 0.20912 0.50483 0.0
C117 C 0.25249 0.23673 0.50549 0.0
C118 C 0.17177 0.23593 0.63108 0.0
C119 C 0.23774 0.18136 0.45838 0.0
C120 C 0.15774 0.12886 0.5609 0.0
C121 C 0.13126 0.13305 0.51743 0.0
C122 C 0.18181 0.15335 0.57078 0.0
C123 C 0.17941 0.18263 0.53613 0.0
C124 C 0.15278 0.18692 0.49213 0.0
C125 C 0.12907 0.16214 0.48339 0.0
C126 C 0.20974 0.14796 0.61828 0.0
C127 C 0.14941 0.21766 0.45382 0.0
H128 H 0.21653 0.28401 0.61702 0.0
H129 H 0.27211 0.2379 0.47256 0.0
H130 H 0.14852 0.23911 0.60291 0.0
H131 H 0.17009 0.21233 0.65583 0.0
H132 H 0.17397 0.25621 0.66688 0.0
H133 H 0.26179 0.1836 0.43607 0.0
H134 H 0.23677 0.15739 0.48206 0.0
H135 H 0.2181 0.18124 0.42058 0.0
H136 H 0.1594 0.10658 0.58785 0.0
H137 H 0.10897 0.16535 0.44905 0.0
H138 H 0.21004 0.16776 0.65505 0.0
H139 H 0.23348 0.1491 0.59468 0.0
H140 H 0.20797 0.12394 0.64168 0.0
H141 H 0.14825 0.2395 0.48577 0.0
H142 H 0.12714 0.21726 0.42187 0.0
H143 H 0.17123 0.22061 0.42486 0.0
C144 C 0.24137 0.72371 0.0657 0.0
C145 C 0.24219 0.74759 0.01947 0.0
C146 C 0.2686 0.70332 0.07754 0.0
C147 C 0.29687 0.70682 0.04149 0.0
C148 C 0.29826 0.73231 0.99724 0.0
C149 C 0.27077 0.75242 0.98675 0.0
C150 C 0.26628 0.67668 0.12552 0.0
C151 C 0.32781 0.73683 0.95767 0.0
C152 C 0.37618 0.66218 0.08575 0.0
C153 C 0.37381 0.6343 0.04579 0.0
C154 C 0.35112 0.68584 0.08574 0.0
C155 C 0.32325 0.68162 0.04437 0.0
C156 C 0.32077 0.65351 0.00398 0.0
C157 C 0.34601 0.63019 0.00534 0.0
C158 C 0.35447 0.71532 0.12983 0.0
C159 C 0.29162 0.64822 0.95865 0.0
H160 H 0.21894 0.71988 0.09033 0.0
H161 H 0.27101 0.77075 0.9504 0.0
H162 H 0.26408 0.65247 0.10075 0.0
H163 H 0.28881 0.67611 0.15656 0.0
H164 H 0.24472 0.68001 0.15538 0.0
H165 H 0.32647 0.75988 0.93065 0.0
H166 H 0.35065 0.73714 0.98787 0.0
H167 H 0.32954 0.71587 0.92368 0.0
H168 H 0.39747 0.66529 0.11759 0.0
H169 H 0.34425 0.60891 0.9738 0.0
H170 H 0.33316 0.71667 0.1607 0.0
H171 H 0.35445 0.73813 0.10219 0.0
H172 H 0.37732 0.71462 0.16009 0.0
H173 H 0.26869 0.64782 0.98499 0.0
H174 H 0.29332 0.62492 0.93083 0.0
H175 H 0.28966 0.66884 0.92537 0.0
C176 C 0.77458 0.75047 0.46267 0.0
C177 C 0.7522 0.7587 0.50861 0.0
C178 C 0.7966 0.77409 0.44176 0.0
C179 C 0.79633 0.8063 0.46842 0.0
C180 C 0.77241 0.81492 0.51245 0.0
C181 C 0.75058 0.79093 0.53197 0.0
C182 C 0.8214 0.76405 0.39414 0.0
C183 C 0.77135 0.84884 0.54237 0.0
C184 C 0.87645 0.8533 0.48861 0.0
C185 C 0.87279 0.87727 0.4424 0.0
C186 C 0.85206 0.82967 0.49641 0.0
C187 C 0.82331 0.82976 0.45665 0.0
C188 C 0.81979 0.85336 0.40876 0.0
C189 C 0.84449 0.87703 0.40251 0.0
C190 C 0.85665 0.80524 0.54865 0.0
C191 C 0.78971 0.85394 0.36497 0.0
H192 H 0.77583 0.72533 0.44518 0.0
H193 H 0.73332 0.797 0.56803 0.0
H194 H 0.82287 0.7827 0.35698 0.0
H195 H 0.84603 0.76241 0.41803 0.0
H196 H 0.81539 0.73988 0.37134 0.0
H197 H 0.74934 0.8525 0.57088 0.0
H198 H 0.79352 0.85278 0.57369 0.0
H199 H 0.77148 0.86782 0.50566 0.0
H200 H 0.89805 0.85365 0.52016 0.0
H201 H 0.8417 0.89536 0.36638 0.0
H202 H 0.85438 0.77985 0.52907 0.0
H203 H 0.83716 0.80863 0.58322 0.0
H204 H 0.88087 0.80782 0.57414 0.0
H205 H 0.78548 0.82936 0.34261 0.0
H206 H 0.79181 0.87224 0.32724 0.0
H207 H 0.76782 0.85995 0.39231 0.0
C208 C 0.75157 0.27831 0.97799 0.0
C209 C 0.74817 0.24898 0.01003 0.0
C210 C 0.73113 0.30517 0.99024 0.0
C211 C 0.70673 0.3024 0.03556 0.0
C212 C 0.70469 0.27335 0.07083 0.0
C213 C 0.72539 0.24678 0.05726 0.0
C214 C 0.73411 0.3356 0.95148 0.0
C215 C 0.67927 0.26953 0.11992 0.0
C216 C 0.66149 0.38003 0.08434 0.0
C217 C 0.63282 0.37779 0.04559 0.0
C218 C 0.68561 0.35544 0.08252 0.0
C219 C 0.68107 0.3282 0.04047 0.0
C220 C 0.65215 0.32586 0.00133 0.0
C221 C 0.62837 0.35059 0.00454 0.0
C222 C 0.71595 0.35862 0.12536 0.0
C223 C 0.64648 0.29742 0.9553 0.0
H224 H 0.76906 0.27965 0.9409 0.0
H225 H 0.72267 0.2238 0.08141 0.0
H226 H 0.71238 0.33753 0.91855 0.0
H227 H 0.73464 0.3579 0.98242 0.0
H228 H 0.7565 0.33527 0.92335 0.0
H229 H 0.68372 0.24745 0.14886 0.0
H230 H 0.67896 0.29148 0.15174 0.0
H231 H 0.6546 0.2673 0.0962 0.0
H232 H 0.66489 0.40086 0.1166 0.0
H233 H 0.60648 0.34896 0.97389 0.0
H234 H 0.73805 0.35979 0.09669 0.0
H235 H 0.71856 0.33669 0.15525 0.0
H236 H 0.71538 0.38085 0.15657 0.0
H237 H 0.66631 0.29657 0.92099 0.0
H238 H 0.62255 0.2991 0.92866 0.0
H239 H 0.64722 0.27395 0.98087 0.0
C240 C 0.13338 0.84961 0.14763 0.0
C241 C 0.14371 0.86709 0.09573 0.0
C242 C 0.1207 0.86615 0.20024 0.0
C243 C 0.11767 0.90079 0.19998 0.0
C244 C 0.13054 0.91858 0.15001 0.0
C245 C 0.14397 0.90153 0.09921 0.0
C246 C 0.10847 0.84641 0.25394 0.0
C247 C 0.12746 0.95546 0.14719 0.0
C248 C 0.04431 0.93888 0.27788 0.0
C249 C 0.05913 0.95516 0.33038 0.0
C250 C 0.06315 0.92093 0.23538 0.0
C251 C 0.09748 0.91819 0.24708 0.0
C252 C 0.11241 0.93373 0.30133 0.0
C253 C 0.09309 0.95261 0.34176 0.0
C254 C 0.04637 0.90555 0.17713 0.0
C255 C 0.14867 0.93034 0.31667 0.0
H256 H 0.13322 0.82302 0.14552 0.0
H257 H 0.15276 0.9152 0.05992 0.0
H258 H 0.11546 0.85831 0.30013 0.0
H259 H 0.08131 0.84507 0.25025 0.0
H260 H 0.11824 0.82098 0.25314 0.0
H261 H 0.14117 0.96578 0.10793 0.0
H262 H 0.10122 0.96213 0.1403 0.0
H263 H 0.13657 0.96722 0.19217 0.0
H264 H 0.01802 0.94086 0.26926 0.0
H265 H 0.10443 0.96477 0.38313 0.0
H266 H 0.05022 0.87863 0.17652 0.0
H267 H 0.05726 0.91525 0.13411 0.0
H268 H 0.01958 0.91043 0.17458 0.0
H269 H 0.15557 0.90402 0.31712 0.0
H270 H 0.156 0.94181 0.36315 0.0
H271 H 0.1629 0.94201 0.2797 0.0
C272 C 0.63152 0.65417 0.71646 0.0
C273 C 0.63787 0.63659 0.66061 0.0
C274 C 0.61566 0.6392 0.76599 0.0
C275 C 0.60525 0.60614 0.75883 0.0
C276 C 0.61173 0.58823 0.70287 0.0
C277 C 0.62844 0.60346 0.65507 0.0
C278 C 0.60984 0.65879 0.82575 0.0
C279 C 0.60064 0.55305 0.69305 0.0
C280 C 0.58735 0.5541 0.8996 0.0
C281 C 0.55312 0.55627 0.90083 0.0
C282 C 0.60476 0.57122 0.85503 0.0
C283 C 0.58738 0.5901 0.80951 0.0
C284 C 0.55276 0.59227 0.81045 0.0
C285 C 0.53606 0.5757 0.85683 0.0
C286 C 0.64172 0.56901 0.85653 0.0
C287 C 0.53332 0.61141 0.76156 0.0
H288 H 0.63845 0.67979 0.72117 0.0
H289 H 0.63406 0.58927 0.61306 0.0
H290 H 0.58312 0.66153 0.832 0.0
H291 H 0.62011 0.64562 0.86735 0.0
H292 H 0.62107 0.68361 0.82529 0.0
H293 H 0.60667 0.54293 0.64583 0.0
H294 H 0.61239 0.53743 0.72969 0.0
H295 H 0.57373 0.55131 0.69799 0.0
H296 H 0.60058 0.53943 0.93427 0.0
H297 H 0.50956 0.57731 0.85776 0.0
H298 H 0.6526 0.59399 0.85845 0.0
H299 H 0.64982 0.5567 0.81268 0.0
H300 H 0.65161 0.55516 0.89766 0.0
H301 H 0.54164 0.63732 0.76229 0.0
H302 H 0.50657 0.61091 0.76929 0.0
H303 H 0.5376 0.60107 0.71371 0.0
C304 C 0.9048 0.15335 0.09032 0.0
C305 C 0.87037 0.15411 0.08631 0.0
C306 C 0.9217 0.13938 0.14196 0.0
C307 C 0.90381 0.12704 0.19212 0.0
C308 C 0.86935 0.1313 0.19187 0.0
C309 C 0.85294 0.14447 0.13855 0.0
C310 C 0.9584 0.13506 0.13976 0.0
C311 C 0.84952 0.11966 0.24566 0.0
C312 C 0.93812 0.05147 0.27276 0.0
C313 C 0.95464 0.06516 0.32618 0.0
C314 C 0.9216 0.07144 0.22881 0.0
C315 C 0.92059 0.10585 0.23978 0.0
C316 C 0.93659 0.11972 0.29459 0.0
C317 C 0.95396 0.09923 0.33664 0.0
C318 C 0.90565 0.05571 0.17008 0.0
C319 C 0.93507 0.15609 0.30907 0.0
H320 H 0.9185 0.16165 0.05088 0.0
H321 H 0.82637 0.14504 0.13613 0.0
H322 H 0.97069 0.14295 0.18517 0.0
H323 H 0.96406 0.10867 0.13218 0.0
H324 H 0.96901 0.14908 0.10109 0.0
H325 H 0.82448 0.13036 0.24428 0.0
H326 H 0.84719 0.09255 0.24266 0.0
H327 H 0.86192 0.12612 0.29183 0.0
H328 H 0.93869 0.02512 0.26469 0.0
H329 H 0.96636 0.10975 0.37857 0.0
H330 H 0.91574 0.06658 0.12737 0.0
H331 H 0.8789 0.06055 0.16856 0.0
H332 H 0.90951 0.02874 0.1678 0.0
H333 H 0.94662 0.16993 0.27134 0.0
H334 H 0.94761 0.1628 0.35506 0.0
H335 H 0.90911 0.1641 0.31015 0.0
C336 C 0.39965 0.36387 0.66778 0.0
C337 C 0.36537 0.3638 0.65866 0.0
C338 C 0.41489 0.3783 0.7219 0.0
C339 C 0.39537 0.39165 0.76974 0.0
C340 C 0.36079 0.38836 0.76414 0.0
C341 C 0.34611 0.37487 0.70816 0.0
C342 C 0.4518 0.38167 0.72521 0.0
C343 C 0.3392 0.40092 0.81546 0.0
C344 C 0.44406 0.41673 0.91984 0.0
C345 C 0.44744 0.45057 0.91188 0.0
C346 C 0.4254 0.39742 0.87593 0.0
C347 C 0.41116 0.41215 0.82148 0.0
C348 C 0.41438 0.44646 0.81369 0.0
C349 C 0.43193 0.46535 0.85975 0.0
C350 C 0.42133 0.36125 0.88735 0.0
C351 C 0.40049 0.46302 0.75542 0.0
H352 H 0.41472 0.35441 0.63056 0.0
H353 H 0.31963 0.37482 0.70185 0.0
H354 H 0.45854 0.40801 0.72344 0.0
H355 H 0.46216 0.37221 0.77041 0.0
H356 H 0.46347 0.3684 0.68569 0.0
H357 H 0.31393 0.39081 0.80989 0.0
H358 H 0.34966 0.39454 0.86277 0.0
H359 H 0.33767 0.42805 0.81374 0.0
H360 H 0.45573 0.40544 0.9608 0.0
H361 H 0.43467 0.49155 0.85372 0.0
H362 H 0.43552 0.34679 0.85301 0.0
H363 H 0.3952 0.35399 0.88013 0.0
H364 H 0.42991 0.35457 0.93581 0.0
H365 H 0.41157 0.45222 0.71274 0.0
H366 H 0.40515 0.48989 0.75666 0.0
H367 H 0.37366 0.45884 0.7504 0.0
C368 C 0.64464 0.66243 0.37795 0.0
C369 C 0.65168 0.64232 0.42956 0.0
C370 C 0.63038 0.64913 0.32136 0.0
C371 C 0.62251 0.61524 0.31732 0.0
C372 C 0.6317 0.59463 0.36786 0.0
C373 C 0.64672 0.60835 0.42269 0.0
C374 C 0.62217 0.67161 0.26737 0.0
C375 C 0.62354 0.55844 0.36611 0.0
C376 C 0.54795 0.584 0.22202 0.0
C377 C 0.5625 0.5652 0.17481 0.0
C378 C 0.56725 0.60166 0.26729 0.0
C379 C 0.60187 0.60141 0.26371 0.0
C380 C 0.61651 0.58417 0.21348 0.0
C381 C 0.59666 0.56567 0.17031 0.0
C382 C 0.55067 0.61896 0.32104 0.0
C383 C 0.65318 0.58437 0.20657 0.0
H384 H 0.64869 0.68866 0.38284 0.0
H385 H 0.65301 0.59258 0.46194 0.0
H386 H 0.62829 0.65985 0.22162 0.0
H387 H 0.59546 0.6767 0.26544 0.0
H388 H 0.63544 0.69537 0.27284 0.0
H389 H 0.63333 0.54571 0.40869 0.0
H390 H 0.59651 0.55512 0.36289 0.0
H391 H 0.63359 0.54633 0.32377 0.0
H392 H 0.5215 0.58366 0.22528 0.0
H393 H 0.60785 0.55158 0.13292 0.0
H394 H 0.55851 0.64499 0.32472 0.0
H395 H 0.55808 0.6073 0.36628 0.0
H396 H 0.5235 0.61808 0.31529 0.0
H397 H 0.66309 0.60961 0.21355 0.0
H398 H 0.66008 0.57478 0.15947 0.0
H399 H 0.66509 0.56888 0.24322 0.0
C400 C 0.87676 0.09731 0.86106 0.0
C401 C 0.86203 0.12825 0.85528 0.0
C402 C 0.8921 0.08225 0.81008 0.0
C403 C 0.89233 0.0983 0.75154 0.0
C404 C 0.87643 0.12893 0.74458 0.0
C405 C 0.86157 0.14363 0.79666 0.0
C406 C 0.90886 0.04959 0.81941 0.0
C407 C 0.87592 0.1466 0.68264 0.0
C408 C 0.96151 0.07619 0.64433 0.0
C409 C 0.94633 0.05319 0.60251 0.0
C410 C 0.94406 0.09134 0.69256 0.0
C411 C 0.91053 0.0836 0.69864 0.0
C412 C 0.89486 0.06095 0.65576 0.0
C413 C 0.91301 0.04585 0.60839 0.0
C414 C 0.96171 0.11512 0.73784 0.0
C415 C 0.85905 0.0524 0.6604 0.0
H416 H 0.87657 0.08494 0.90582 0.0
H417 H 0.85044 0.16763 0.79197 0.0
H418 H 0.89905 0.03128 0.78403 0.0
H419 H 0.9355 0.05214 0.81204 0.0
H420 H 0.90563 0.03993 0.8674 0.0
H421 H 0.86051 0.16903 0.68368 0.0
H422 H 0.90124 0.15374 0.67149 0.0
H423 H 0.86649 0.13009 0.64372 0.0
H424 H 0.98725 0.08195 0.64014 0.0
H425 H 0.90107 0.02826 0.57596 0.0
H426 H 0.96129 0.10577 0.7866 0.0
H427 H 0.949 0.13916 0.73781 0.0
H428 H 0.98764 0.11903 0.72577 0.0
H429 H 0.85504 0.04058 0.70613 0.0
H430 H 0.85015 0.03552 0.62155 0.0
H431 H 0.84397 0.07503 0.65919 0.0
C432 C 0.40482 0.37978 0.42779 0.0
C433 C 0.37036 0.3786 0.42606 0.0
C434 C 0.42178 0.39512 0.38039 0.0
C435 C 0.40401 0.40836 0.32827 0.0
C436 C 0.36941 0.40578 0.32423 0.0
C437 C 0.35295 0.39148 0.37368 0.0
C438 C 0.45868 0.39802 0.38713 0.0
C439 C 0.34971 0.41867 0.26822 0.0
C440 C 0.44272 0.47674 0.23797 0.0
C441 C 0.45666 0.4592 0.18837 0.0
C442 C 0.42582 0.46041 0.28433 0.0
C443 C 0.42168 0.42593 0.27921 0.0
C444 C 0.43508 0.40824 0.22814 0.0
C445 C 0.45304 0.42507 0.18393 0.0
C446 C 0.41288 0.47995 0.33929 0.0
C447 C 0.43011 0.37168 0.21979 0.0
H448 H 0.4187 0.36905 0.46681 0.0
H449 H 0.3264 0.39117 0.37177 0.0
H450 H 0.47017 0.38589 0.34627 0.0
H451 H 0.46594 0.42427 0.38737 0.0
H452 H 0.46877 0.38687 0.43117 0.0
H453 H 0.32341 0.41172 0.26909 0.0
H454 H 0.35146 0.44581 0.2678 0.0
H455 H 0.35977 0.40916 0.22352 0.0
H456 H 0.4457 0.50317 0.2412 0.0
H457 H 0.4635 0.41168 0.14484 0.0
H458 H 0.42319 0.47023 0.38441 0.0
H459 H 0.38584 0.47746 0.33997 0.0
H460 H 0.4191 0.50643 0.33725 0.0
H461 H 0.44166 0.35875 0.26045 0.0
H462 H 0.44067 0.36191 0.1757 0.0
H463 H 0.40353 0.3658 0.21863 0.0
C464 C 0.11128 0.84536 0.81043 0.0
C465 C 0.124 0.86433 0.8619 0.0
C466 C 0.09703 0.86023 0.75682 0.0
C467 C 0.09434 0.89481 0.75561 0.0
C468 C 0.10708 0.9141 0.80716 0.0
C469 C 0.12239 0.8987 0.85885 0.0
C470 C 0.08466 0.83895 0.70169 0.0
C471 C 0.10408 0.95106 0.80828 0.0
C472 C 0.08122 0.94225 0.60487 0.0
C473 C 0.04731 0.9474 0.60385 0.0
C474 C 0.09666 0.92359 0.65225 0.0
C475 C 0.07782 0.91108 0.70101 0.0
C476 C 0.04346 0.9161 0.69981 0.0
C477 C 0.02849 0.9337 0.65036 0.0
C478 C 0.13314 0.9177 0.65066 0.0
C479 C 0.02273 0.90416 0.75214 0.0
H480 H 0.11194 0.81884 0.8122 0.0
H481 H 0.13299 0.91377 0.89715 0.0
H482 H 0.05762 0.84108 0.69589 0.0
H483 H 0.09518 0.84738 0.65734 0.0
H484 H 0.09098 0.81268 0.70791 0.0
H485 H 0.11393 0.96235 0.85333 0.0
H486 H 0.11748 0.96148 0.76886 0.0
H487 H 0.07795 0.9582 0.80151 0.0
H488 H 0.09561 0.95263 0.56825 0.0
H489 H 0.00225 0.93794 0.64945 0.0
H490 H 0.13855 0.89121 0.6561 0.0
H491 H 0.14587 0.93105 0.69069 0.0
H492 H 0.1435 0.92599 0.60599 0.0
H493 H 0.02579 0.87734 0.75766 0.0
H494 H 0.99626 0.90947 0.74337 0.0
H495 H 0.03096 0.91615 0.79757 0.0
loop_
_geom_bond_atom_site_label_1
_geom_bond_atom_site_label_2
_geom_bond_distance
_geom_bond_site_symmetry_2
_ccdc_geom_bond_type
H0 C3 0.929 . S
H1 C6 0.929 . S
H2 C8 0.930 . S
C3 H0 0.929 . S
C3 C4 1.398 1_554 S
C3 C5 1.396 . S
C4 C3 1.398 1_556 S
C4 C8 1.407 . S
C5 C3 1.396 . S
C5 C6 1.394 . S
C6 H1 0.929 . S
C6 C5 1.394 . S
C6 C7 1.382 . S
C7 C6 1.382 . S
C7 C8 1.392 1_554 S
C7 N9 1.420 1_554 S
C8 H2 0.930 . S
C8 C4 1.407 . S
C8 C7 1.392 1_556 S
N9 C7 1.420 1_556 S
N9 C10 1.244 1_556 S
C10 N9 1.244 1_554 S
H11 C14 0.929 . S
H12 C17 0.929 . S
H13 C19 0.930 . S
C14 H11 0.929 . S
C14 C15 1.398 . S
C14 C16 1.396 . S
C15 C14 1.398 . S
C15 C19 1.407 . S
C16 C14 1.396 . S
C16 C17 1.394 . S
C17 H12 0.929 . S
C17 C16 1.394 . S
C17 C18 1.382 . S
C18 C17 1.382 . S
C18 C19 1.392 . S
C18 N20 1.420 . S
C19 H13 0.930 . S
C19 C15 1.407 . S
C19 C18 1.392 . S
N20 C18 1.420 . S
N20 C21 1.244 . S
C21 N20 1.244 . S
H22 C25 0.929 . S
H23 C28 0.929 . S
H24 C30 0.930 . S
C25 H22 0.929 . S
C25 C26 1.398 1_554 S
C25 C27 1.396 . S
C26 C25 1.398 1_556 S
C26 C30 1.407 . S
C27 C25 1.396 . S
C27 C28 1.394 . S
C28 H23 0.929 . S
C28 C27 1.394 . S
C28 C29 1.382 1_554 S
C29 C28 1.382 1_556 S
C29 C30 1.392 . S
C29 N31 1.420 . S
C30 H24 0.930 . S
C30 C26 1.407 . S
C30 C29 1.392 . S
N31 C29 1.420 . S
N31 C32 1.244 1_556 S
C32 N31 1.244 1_554 S
H33 C36 0.929 . S
H34 C39 0.929 . S
H35 C41 0.930 . S
C36 H33 0.929 . S
C36 C37 1.398 . S
C36 C38 1.396 . S
C37 C36 1.398 . S
C37 C41 1.407 . S
C38 C36 1.396 . S
C38 C39 1.394 . S
C39 H34 0.929 . S
C39 C38 1.394 . S
C39 C40 1.382 . S
C40 C39 1.382 . S
C40 C41 1.392 . S
C40 N42 1.420 . S
C41 H35 0.930 . S
C41 C37 1.407 . S
C41 C40 1.392 . S
N42 C40 1.420 . S
N42 C43 1.244 . S
C43 N42 1.244 . S
C44 O60 1.228 1_565 S
C44 O62 1.254 . S
N45 C46 1.333 . S
N45 C50 1.307 . S
N45 Zn51 2.020 . S
C46 N45 1.333 . S
C46 C47 1.379 . S
C46 H64 0.952 . S
C47 C46 1.379 . S
C47 C48 1.390 . S
C47 H74 0.949 . S
C48 C47 1.390 . S
C48 C49 1.357 . S
C49 C48 1.357 . S
C49 C50 1.370 . S
C49 H75 0.950 . S
C50 N45 1.307 . S
C50 C49 1.370 . S
C50 H68 0.948 . S
Zn51 N45 2.020 . S
Zn51 O60 2.055 . S
Zn51 O66 2.034 1_545 S
Zn51 O70 2.025 1_455 S
Zn51 O72 2.024 1_455 S
C52 O71 1.246 . S
C52 O72 1.249 . S
N53 C54 1.307 . S
N53 C55 1.333 . S
N53 Zn59 2.020 . S
C54 N53 1.307 . S
C54 C58 1.370 . S
C54 H65 0.948 . S
C55 N53 1.333 . S
C55 C56 1.379 . S
C55 H63 0.952 . S
C56 C55 1.379 . S
C56 C57 1.390 . S
C56 H76 0.949 . S
C57 C56 1.390 . S
C57 C58 1.357 . S
C58 C54 1.370 . S
C58 C57 1.357 . S
C58 H77 0.950 . S
Zn59 N53 2.020 . S
Zn59 O62 2.025 1_655 S
Zn59 O67 2.024 1_655 S
Zn59 O69 2.039 1_565 S
Zn59 O71 2.034 1_565 S
O60 C44 1.228 1_545 S
O60 Zn51 2.055 . S
C61 O66 1.246 . S
C61 O67 1.249 . S
O62 C44 1.254 . S
O62 Zn59 2.025 1_455 S
H63 C55 0.952 . S
H64 C46 0.952 . S
H65 C54 0.948 . S
O66 Zn51 2.034 1_565 S
O66 C61 1.246 . S
O67 Zn59 2.024 1_455 S
O67 C61 1.249 . S
H68 C50 0.948 . S
O69 Zn59 2.039 1_545 S
O69 C73 1.251 . S
O70 Zn51 2.025 1_655 S
O70 C73 1.254 . S
O71 C52 1.246 . S
O71 Zn59 2.034 1_545 S
O72 Zn51 2.024 1_655 S
O72 C52 1.249 . S
C73 O69 1.251 . S
C73 O70 1.254 . S
H74 C47 0.949 . S
H75 C49 0.950 . S
H76 C56 0.949 . S
H77 C58 0.950 . S
C78 O94 1.251 . S
C78 O96 1.254 . S
N79 C80 1.333 . S
N79 C84 1.307 . S
N79 Zn85 2.020 . S
C80 N79 1.333 . S
C80 C81 1.379 . S
C80 H98 0.952 1_554 S
C81 C80 1.379 . S
C81 C82 1.390 . S
C81 H108 0.949 1_554 S
C82 C81 1.390 . S
C82 C83 1.357 . S
C83 C82 1.357 . S
C83 C84 1.370 . S
C83 H109 0.950 . S
C84 N79 1.307 . S
C84 C83 1.370 . S
C84 H102 0.948 . S
Zn85 N79 2.020 . S
Zn85 O94 2.039 1_554 S
Zn85 O100 2.034 . S
Zn85 O104 2.025 . S
Zn85 O106 2.024 1_554 S
C86 O105 1.246 . S
C86 O106 1.249 . S
N87 C88 1.307 . S
N87 C89 1.333 . S
N87 Zn93 2.020 . S
C88 N87 1.307 . S
C88 C92 1.370 . S
C88 H99 0.948 1_554 S
C89 N87 1.333 . S
C89 C90 1.379 . S
C89 H97 0.952 . S
C90 C89 1.379 . S
C90 C91 1.390 . S
C90 H110 0.949 . S
C91 C90 1.390 . S
C91 C92 1.357 . S
C92 C88 1.370 . S
C92 C91 1.357 . S
C92 H111 0.950 1_554 S
Zn93 N87 2.020 . S
Zn93 O96 2.025 1_554 S
Zn93 O101 2.024 . S
Zn93 O103 2.039 . S
Zn93 O105 2.034 1_554 S
O94 C78 1.251 . S
O94 Zn85 2.039 1_556 S
C95 O100 1.246 . S
C95 O101 1.249 . S
O96 C78 1.254 . S
O96 Zn93 2.025 1_556 S
H97 C89 0.952 . S
H98 C80 0.952 1_556 S
H99 C88 0.948 1_556 S
O100 Zn85 2.034 . S
O100 C95 1.246 . S
O101 Zn93 2.024 . S
O101 C95 1.249 . S
H102 C84 0.948 . S
O103 Zn93 2.039 . S
O103 C107 1.251 . S
O104 Zn85 2.025 . S
O104 C107 1.254 . S
O105 C86 1.246 . S
O105 Zn93 2.034 1_556 S
O106 Zn85 2.024 1_556 S
O106 C86 1.249 . S
C107 O103 1.251 . S
C107 O104 1.254 . S
H108 C81 0.949 1_556 S
H109 C83 0.950 . S
H110 C90 0.949 . S
H111 C92 0.950 1_556 S
C112 C113 1.391 . S
C112 C114 1.394 . S
C112 H128 0.931 . S
C113 C112 1.391 . S
C113 C117 1.376 . S
C114 C112 1.394 . S
C114 C115 1.369 . S
C114 C118 1.531 . S
C115 C114 1.369 . S
C115 C116 1.410 . S
C115 C123 1.503 . S
C116 C115 1.410 . S
C116 C117 1.392 . S
C116 C119 1.511 . S
C117 C113 1.376 . S
C117 C116 1.392 . S
C117 H129 0.929 . S
C118 C114 1.531 . S
C118 H130 0.960 . S
C118 H131 0.962 . S
C118 H132 0.960 . S
C119 C116 1.511 . S
C119 H133 0.961 . S
C119 H134 0.961 . S
C119 H135 0.961 . S
C120 C121 1.370 . S
C120 C122 1.363 . S
C120 H136 0.931 . S
C121 C120 1.370 . S
C121 C125 1.408 . S
C122 C120 1.363 . S
C122 C123 1.370 . S
C122 C126 1.524 . S
C123 C115 1.503 . S
C123 C122 1.370 . S
C123 C124 1.403 . S
C124 C123 1.403 . S
C124 C125 1.404 . S
C124 C127 1.539 . S
C125 C121 1.408 . S
C125 C124 1.404 . S
C125 H137 0.930 . S
C126 C122 1.524 . S
C126 H138 0.956 . S
C126 H139 0.961 . S
C126 H140 0.961 . S
C127 C124 1.539 . S
C127 H141 0.958 . S
C127 H142 0.961 . S
C127 H143 0.960 . S
H128 C112 0.931 . S
H129 C117 0.929 . S
H130 C118 0.960 . S
H131 C118 0.962 . S
H132 C118 0.960 . S
H133 C119 0.961 . S
H134 C119 0.961 . S
H135 C119 0.961 . S
H136 C120 0.931 . S
H137 C125 0.930 . S
H138 C126 0.956 . S
H139 C126 0.961 . S
H140 C126 0.961 . S
H141 C127 0.958 . S
H142 C127 0.961 . S
H143 C127 0.960 . S
C144 C145 1.391 . S
C144 C146 1.394 . S
C144 H160 0.931 . S
C145 C144 1.391 . S
C145 C149 1.376 1_554 S
C146 C144 1.394 . S
C146 C147 1.369 . S
C146 C150 1.531 . S
C147 C146 1.369 . S
C147 C148 1.410 1_554 S
C147 C155 1.503 . S
C148 C147 1.410 1_556 S
C148 C149 1.392 . S
C148 C151 1.511 . S
C149 C145 1.376 1_556 S
C149 C148 1.392 . S
C149 H161 0.929 . S
C150 C146 1.531 . S
C150 H162 0.960 . S
C150 H163 0.962 . S
C150 H164 0.960 . S
C151 C148 1.511 . S
C151 H165 0.961 . S
C151 H166 0.961 . S
C151 H167 0.961 . S
C152 C153 1.370 . S
C152 C154 1.363 . S
C152 H168 0.931 . S
C153 C152 1.370 . S
C153 C157 1.408 1_554 S
C154 C152 1.363 . S
C154 C155 1.370 . S
C154 C158 1.524 . S
C155 C147 1.503 . S
C155 C154 1.370 . S
C155 C156 1.403 1_554 S
C156 C155 1.403 1_556 S
C156 C157 1.404 . S
C156 C159 1.539 . S
C157 C153 1.408 1_556 S
C157 C156 1.404 . S
C157 H169 0.930 . S
C158 C154 1.524 . S
C158 H170 0.956 . S
C158 H171 0.961 . S
C158 H172 0.961 . S
C159 C156 1.539 . S
C159 H173 0.958 . S
C159 H174 0.961 . S
C159 H175 0.960 . S
H160 C144 0.931 . S
H161 C149 0.929 . S
H162 C150 0.960 . S
H163 C150 0.962 . S
H164 C150 0.960 . S
H165 C151 0.961 . S
H166 C151 0.961 . S
H167 C151 0.961 . S
H168 C152 0.931 . S
H169 C157 0.930 . S
H170 C158 0.956 . S
H171 C158 0.961 . S
H172 C158 0.961 . S
H173 C159 0.958 . S
H174 C159 0.961 . S
H175 C159 0.960 . S
C176 C177 1.391 . S
C176 C178 1.394 . S
C176 H192 0.931 . S
C177 C176 1.391 . S
C177 C181 1.376 . S
C178 C176 1.394 . S
C178 C179 1.369 . S
C178 C182 1.531 . S
C179 C178 1.369 . S
C179 C180 1.410 . S
C179 C187 1.503 . S
C180 C179 1.410 . S
C180 C181 1.392 . S
C180 C183 1.511 . S
C181 C177 1.376 . S
C181 C180 1.392 . S
C181 H193 0.929 . S
C182 C178 1.531 . S
C182 H194 0.960 . S
C182 H195 0.962 . S
C182 H196 0.960 . S
C183 C180 1.511 . S
C183 H197 0.961 . S
C183 H198 0.961 . S
C183 H199 0.961 . S
C184 C185 1.370 . S
C184 C186 1.363 . S
C184 H200 0.931 . S
C185 C184 1.370 . S
C185 C189 1.408 . S
C186 C184 1.363 . S
C186 C187 1.370 . S
C186 C190 1.524 . S
C187 C179 1.503 . S
C187 C186 1.370 . S
C187 C188 1.403 . S
C188 C187 1.403 . S
C188 C189 1.404 . S
C188 C191 1.539 . S
C189 C185 1.408 . S
C189 C188 1.404 . S
C189 H201 0.930 . S
C190 C186 1.524 . S
C190 H202 0.956 . S
C190 H203 0.961 . S
C190 H204 0.961 . S
C191 C188 1.539 . S
C191 H205 0.958 . S
C191 H206 0.961 . S
C191 H207 0.960 . S
H192 C176 0.931 . S
H193 C181 0.929 . S
H194 C182 0.960 . S
H195 C182 0.962 . S
H196 C182 0.960 . S
H197 C183 0.961 . S
H198 C183 0.961 . S
H199 C183 0.961 . S
H200 C184 0.931 . S
H201 C189 0.930 . S
H202 C190 0.956 . S
H203 C190 0.961 . S
H204 C190 0.961 . S
H205 C191 0.958 . S
H206 C191 0.961 . S
H207 C191 0.960 . S
C208 C209 1.391 1_556 S
C208 C210 1.394 . S
C208 H224 0.931 . S
C209 C208 1.391 1_554 S
C209 C213 1.376 . S
C210 C208 1.394 . S
C210 C211 1.369 1_556 S
C210 C214 1.531 . S
C211 C210 1.369 1_554 S
C211 C212 1.410 . S
C211 C219 1.503 . S
C212 C211 1.410 . S
C212 C213 1.392 . S
C212 C215 1.511 . S
C213 C209 1.376 . S
C213 C212 1.392 . S
C213 H225 0.929 . S
C214 C210 1.531 . S
C214 H226 0.960 . S
C214 H227 0.962 1_556 S
C214 H228 0.960 . S
C215 C212 1.511 . S
C215 H229 0.961 . S
C215 H230 0.961 . S
C215 H231 0.961 1_554 S
C216 C217 1.370 . S
C216 C218 1.363 . S
C216 H232 0.931 . S
C217 C216 1.370 . S
C217 C221 1.408 1_554 S
C218 C216 1.363 . S
C218 C219 1.370 . S
C218 C222 1.524 . S
C219 C211 1.503 . S
C219 C218 1.370 . S
C219 C220 1.403 1_554 S
C220 C219 1.403 1_556 S
C220 C221 1.404 . S
C220 C223 1.539 . S
C221 C217 1.408 1_556 S
C221 C220 1.404 . S
C221 H233 0.930 . S
C222 C218 1.524 . S
C222 H234 0.956 . S
C222 H235 0.961 . S
C222 H236 0.961 . S
C223 C220 1.539 . S
C223 H237 0.958 . S
C223 H238 0.961 . S
C223 H239 0.960 . S
H224 C208 0.931 . S
H225 C213 0.929 . S
H226 C214 0.960 . S
H227 C214 0.962 1_554 S
H228 C214 0.960 . S
H229 C215 0.961 . S
H230 C215 0.961 . S
H231 C215 0.961 1_556 S
H232 C216 0.931 . S
H233 C221 0.930 . S
H234 C222 0.956 . S
H235 C222 0.961 . S
H236 C222 0.961 . S
H237 C223 0.958 . S
H238 C223 0.961 . S
H239 C223 0.960 . S
C240 C241 1.391 . S
C240 C242 1.394 . S
C240 H256 0.931 . S
C241 C240 1.391 . S
C241 C245 1.376 . S
C242 C240 1.394 . S
C242 C243 1.369 . S
C242 C246 1.531 . S
C243 C242 1.369 . S
C243 C244 1.410 . S
C243 C251 1.503 . S
C244 C243 1.410 . S
C244 C245 1.392 . S
C244 C247 1.511 . S
C245 C241 1.376 . S
C245 C244 1.392 . S
C245 H257 0.929 . S
C246 C242 1.531 . S
C246 H258 0.960 . S
C246 H259 0.962 . S
C246 H260 0.960 . S
C247 C244 1.511 . S
C247 H261 0.961 . S
C247 H262 0.961 . S
C247 H263 0.961 . S
C248 C249 1.370 . S
C248 C250 1.363 . S
C248 H264 0.931 . S
C249 C248 1.370 . S
C249 C253 1.408 . S
C250 C248 1.363 . S
C250 C251 1.370 . S
C250 C254 1.524 . S
C251 C243 1.503 . S
C251 C250 1.370 . S
C251 C252 1.403 . S
C252 C251 1.403 . S
C252 C253 1.404 . S
C252 C255 1.539 . S
C253 C249 1.408 . S
C253 C252 1.404 . S
C253 H265 0.930 . S
C254 C250 1.524 . S
C254 H266 0.956 . S
C254 H267 0.961 . S
C254 H268 0.961 . S
C255 C252 1.539 . S
C255 H269 0.958 . S
C255 H270 0.961 . S
C255 H271 0.960 . S
H256 C240 0.931 . S
H257 C245 0.929 . S
H258 C246 0.960 . S
H259 C246 0.962 . S
H260 C246 0.960 . S
H261 C247 0.961 . S
H262 C247 0.961 . S
H263 C247 0.961 . S
H264 C248 0.931 . S
H265 C253 0.930 . S
H266 C254 0.956 . S
H267 C254 0.961 . S
H268 C254 0.961 . S
H269 C255 0.958 . S
H270 C255 0.961 . S
H271 C255 0.960 . S
C272 C273 1.391 . S
C272 C274 1.394 . S
C272 H288 0.931 . S
C273 C272 1.391 . S
C273 C277 1.376 . S
C274 C272 1.394 . S
C274 C275 1.369 . S
C274 C278 1.531 . S
C275 C274 1.369 . S
C275 C276 1.410 . S
C275 C283 1.503 . S
C276 C275 1.410 . S
C276 C277 1.392 . S
C276 C279 1.511 . S
C277 C273 1.376 . S
C277 C276 1.392 . S
C277 H289 0.929 . S
C278 C274 1.531 . S
C278 H290 0.960 . S
C278 H291 0.962 . S
C278 H292 0.960 . S
C279 C276 1.511 . S
C279 H293 0.961 . S
C279 H294 0.961 . S
C279 H295 0.961 . S
C280 C281 1.370 . S
C280 C282 1.363 . S
C280 H296 0.931 . S
C281 C280 1.370 . S
C281 C285 1.408 . S
C282 C280 1.363 . S
C282 C283 1.370 . S
C282 C286 1.524 . S
C283 C275 1.503 . S
C283 C282 1.370 . S
C283 C284 1.403 . S
C284 C283 1.403 . S
C284 C285 1.404 . S
C284 C287 1.539 . S
C285 C281 1.408 . S
C285 C284 1.404 . S
C285 H297 0.930 . S
C286 C282 1.524 . S
C286 H298 0.956 . S
C286 H299 0.961 . S
C286 H300 0.961 . S
C287 C284 1.539 . S
C287 H301 0.958 . S
C287 H302 0.961 . S
C287 H303 0.960 . S
H288 C272 0.931 . S
H289 C277 0.929 . S
H290 C278 0.960 . S
H291 C278 0.962 . S
H292 C278 0.960 . S
H293 C279 0.961 . S
H294 C279 0.961 . S
H295 C279 0.961 . S
H296 C280 0.931 . S
H297 C285 0.930 . S
H298 C286 0.956 . S
H299 C286 0.961 . S
H300 C286 0.961 . S
H301 C287 0.958 . S
H302 C287 0.961 . S
H303 C287 0.960 . S
C304 C305 1.391 . S
C304 C306 1.394 . S
C304 H320 0.931 . S
C305 C304 1.391 . S
C305 C309 1.376 . S
C306 C304 1.394 . S
C306 C307 1.369 . S
C306 C310 1.531 . S
C307 C306 1.369 . S
C307 C308 1.410 . S
C307 C315 1.503 . S
C308 C307 1.410 . S
C308 C309 1.392 . S
C308 C311 1.511 . S
C309 C305 1.376 . S
C309 C308 1.392 . S
C309 H321 0.929 . S
C310 C306 1.531 . S
C310 H322 0.960 . S
C310 H323 0.962 . S
C310 H324 0.960 . S
C311 C308 1.511 . S
C311 H325 0.961 . S
C311 H326 0.961 . S
C311 H327 0.961 . S
C312 C313 1.370 . S
C312 C314 1.363 . S
C312 H328 0.931 . S
C313 C312 1.370 . S
C313 C317 1.408 . S
C314 C312 1.363 . S
C314 C315 1.370 . S
C314 C318 1.524 . S
C315 C307 1.503 . S
C315 C314 1.370 . S
C315 C316 1.403 . S
C316 C315 1.403 . S
C316 C317 1.404 . S
C316 C319 1.539 . S
C317 C313 1.408 . S
C317 C316 1.404 . S
C317 H329 0.930 . S
C318 C314 1.524 . S
C318 H330 0.956 . S
C318 H331 0.961 . S
C318 H332 0.961 . S
C319 C316 1.539 . S
C319 H333 0.958 . S
C319 H334 0.961 . S
C319 H335 0.960 . S
H320 C304 0.931 . S
H321 C309 0.929 . S
H322 C310 0.960 . S
H323 C310 0.962 . S
H324 C310 0.960 . S
H325 C311 0.961 . S
H326 C311 0.961 . S
H327 C311 0.961 . S
H328 C312 0.931 . S
H329 C317 0.930 . S
H330 C318 0.956 . S
H331 C318 0.961 . S
H332 C318 0.961 . S
H333 C319 0.958 . S
H334 C319 0.961 . S
H335 C319 0.960 . S
C336 C337 1.391 . S
C336 C338 1.394 . S
C336 H352 0.931 . S
C337 C336 1.391 . S
C337 C341 1.376 . S
C338 C336 1.394 . S
C338 C339 1.369 . S
C338 C342 1.531 . S
C339 C338 1.369 . S
C339 C340 1.410 . S
C339 C347 1.503 . S
C340 C339 1.410 . S
C340 C341 1.392 . S
C340 C343 1.511 . S
C341 C337 1.376 . S
C341 C340 1.392 . S
C341 H353 0.929 . S
C342 C338 1.531 . S
C342 H354 0.960 . S
C342 H355 0.962 . S
C342 H356 0.960 . S
C343 C340 1.511 . S
C343 H357 0.961 . S
C343 H358 0.961 . S
C343 H359 0.961 . S
C344 C345 1.370 . S
C344 C346 1.363 . S
C344 H360 0.931 . S
C345 C344 1.370 . S
C345 C349 1.408 . S
C346 C344 1.363 . S
C346 C347 1.370 . S
C346 C350 1.524 . S
C347 C339 1.503 . S
C347 C346 1.370 . S
C347 C348 1.403 . S
C348 C347 1.403 . S
C348 C349 1.404 . S
C348 C351 1.539 . S
C349 C345 1.408 . S
C349 C348 1.404 . S
C349 H361 0.930 . S
C350 C346 1.524 . S
C350 H362 0.956 . S
C350 H363 0.961 . S
C350 H364 0.961 . S
C351 C348 1.539 . S
C351 H365 0.958 . S
C351 H366 0.961 . S
C351 H367 0.960 . S
H352 C336 0.931 . S
H353 C341 0.929 . S
H354 C342 0.960 . S
H355 C342 0.962 . S
H356 C342 0.960 . S
H357 C343 0.961 . S
H358 C343 0.961 . S
H359 C343 0.961 . S
H360 C344 0.931 . S
H361 C349 0.930 . S
H362 C350 0.956 . S
H363 C350 0.961 . S
H364 C350 0.961 . S
H365 C351 0.958 . S
H366 C351 0.961 . S
H367 C351 0.960 . S
C368 C369 1.391 . S
C368 C370 1.394 . S
C368 H384 0.931 . S
C369 C368 1.391 . S
C369 C373 1.376 . S
C370 C368 1.394 . S
C370 C371 1.369 . S
C370 C374 1.531 . S
C371 C370 1.369 . S
C371 C372 1.410 . S
C371 C379 1.503 . S
C372 C371 1.410 . S
C372 C373 1.392 . S
C372 C375 1.511 . S
C373 C369 1.376 . S
C373 C372 1.392 . S
C373 H385 0.929 . S
C374 C370 1.531 . S
C374 H386 0.960 . S
C374 H387 0.962 . S
C374 H388 0.960 . S
C375 C372 1.511 . S
C375 H389 0.961 . S
C375 H390 0.961 . S
C375 H391 0.961 . S
C376 C377 1.370 . S
C376 C378 1.363 . S
C376 H392 0.931 . S
C377 C376 1.370 . S
C377 C381 1.408 . S
C378 C376 1.363 . S
C378 C379 1.370 . S
C378 C382 1.524 . S
C379 C371 1.503 . S
C379 C378 1.370 . S
C379 C380 1.403 . S
C380 C379 1.403 . S
C380 C381 1.404 . S
C380 C383 1.539 . S
C381 C377 1.408 . S
C381 C380 1.404 . S
C381 H393 0.930 . S
C382 C378 1.524 . S
C382 H394 0.956 . S
C382 H395 0.961 . S
C382 H396 0.961 . S
C383 C380 1.539 . S
C383 H397 0.958 . S
C383 H398 0.961 . S
C383 H399 0.960 . S
H384 C368 0.931 . S
H385 C373 0.929 . S
H386 C374 0.960 . S
H387 C374 0.962 . S
H388 C374 0.960 . S
H389 C375 0.961 . S
H390 C375 0.961 . S
H391 C375 0.961 . S
H392 C376 0.931 . S
H393 C381 0.930 . S
H394 C382 0.956 . S
H395 C382 0.961 . S
H396 C382 0.961 . S
H397 C383 0.958 . S
H398 C383 0.961 . S
H399 C383 0.960 . S
C400 C401 1.391 . S
C400 C402 1.394 . S
C400 H416 0.931 . S
C401 C400 1.391 . S
C401 C405 1.376 . S
C402 C400 1.394 . S
C402 C403 1.369 . S
C402 C406 1.531 . S
C403 C402 1.369 . S
C403 C404 1.410 . S
C403 C411 1.503 . S
C404 C403 1.410 . S
C404 C405 1.392 . S
C404 C407 1.511 . S
C405 C401 1.376 . S
C405 C404 1.392 . S
C405 H417 0.929 . S
C406 C402 1.531 . S
C406 H418 0.960 . S
C406 H419 0.962 . S
C406 H420 0.960 . S
C407 C404 1.511 . S
C407 H421 0.961 . S
C407 H422 0.961 . S
C407 H423 0.961 . S
C408 C409 1.370 . S
C408 C410 1.363 . S
C408 H424 0.931 . S
C409 C408 1.370 . S
C409 C413 1.408 . S
C410 C408 1.363 . S
C410 C411 1.370 . S
C410 C414 1.524 . S
C411 C403 1.503 . S
C411 C410 1.370 . S
C411 C412 1.403 . S
C412 C411 1.403 . S
C412 C413 1.404 . S
C412 C415 1.539 . S
C413 C409 1.408 . S
C413 C412 1.404 . S
C413 H425 0.930 . S
C414 C410 1.524 . S
C414 H426 0.956 . S
C414 H427 0.961 . S
C414 H428 0.961 . S
C415 C412 1.539 . S
C415 H429 0.958 . S
C415 H430 0.961 . S
C415 H431 0.960 . S
H416 C400 0.931 . S
H417 C405 0.929 . S
H418 C406 0.960 . S
H419 C406 0.962 . S
H420 C406 0.960 . S
H421 C407 0.961 . S
H422 C407 0.961 . S
H423 C407 0.961 . S
H424 C408 0.931 . S
H425 C413 0.930 . S
H426 C414 0.956 . S
H427 C414 0.961 . S
H428 C414 0.961 . S
H429 C415 0.958 . S
H430 C415 0.961 . S
H431 C415 0.960 . S
C432 C433 1.391 . S
C432 C434 1.394 . S
C432 H448 0.931 . S
C433 C432 1.391 . S
C433 C437 1.376 . S
C434 C432 1.394 . S
C434 C435 1.369 . S
C434 C438 1.531 . S
C435 C434 1.369 . S
C435 C436 1.410 . S
C435 C443 1.503 . S
C436 C435 1.410 . S
C436 C437 1.392 . S
C436 C439 1.511 . S
C437 C433 1.376 . S
C437 C436 1.392 . S
C437 H449 0.929 . S
C438 C434 1.531 . S
C438 H450 0.960 . S
C438 H451 0.962 . S
C438 H452 0.960 . S
C439 C436 1.511 . S
C439 H453 0.961 . S
C439 H454 0.961 . S
C439 H455 0.961 . S
C440 C441 1.370 . S
C440 C442 1.363 . S
C440 H456 0.931 . S
C441 C440 1.370 . S
C441 C445 1.408 . S
C442 C440 1.363 . S
C442 C443 1.370 . S
C442 C446 1.524 . S
C443 C435 1.503 . S
C443 C442 1.370 . S
C443 C444 1.403 . S
C444 C443 1.403 . S
C444 C445 1.404 . S
C444 C447 1.539 . S
C445 C441 1.408 . S
C445 C444 1.404 . S
C445 H457 0.930 . S
C446 C442 1.524 . S
C446 H458 0.956 . S
C446 H459 0.961 . S
C446 H460 0.961 . S
C447 C444 1.539 . S
C447 H461 0.958 . S
C447 H462 0.961 . S
C447 H463 0.960 . S
H448 C432 0.931 . S
H449 C437 0.929 . S
H450 C438 0.960 . S
H451 C438 0.962 . S
H452 C438 0.960 . S
H453 C439 0.961 . S
H454 C439 0.961 . S
H455 C439 0.961 . S
H456 C440 0.931 . S
H457 C445 0.930 . S
H458 C446 0.956 . S
H459 C446 0.961 . S
H460 C446 0.961 . S
H461 C447 0.958 . S
H462 C447 0.961 . S
H463 C447 0.960 . S
C464 C465 1.391 . S
C464 C466 1.394 . S
C464 H480 0.931 . S
C465 C464 1.391 . S
C465 C469 1.376 . S
C466 C464 1.394 . S
C466 C467 1.369 . S
C466 C470 1.531 . S
C467 C466 1.369 . S
C467 C468 1.410 . S
C467 C475 1.503 . S
C468 C467 1.410 . S
C468 C469 1.392 . S
C468 C471 1.511 . S
C469 C465 1.376 . S
C469 C468 1.392 . S
C469 H481 0.929 . S
C470 C466 1.531 . S
C470 H482 0.960 . S
C470 H483 0.962 . S
C470 H484 0.960 . S
C471 C468 1.511 . S
C471 H485 0.961 . S
C471 H486 0.961 . S
C471 H487 0.961 . S
C472 C473 1.370 . S
C472 C474 1.363 . S
C472 H488 0.931 . S
C473 C472 1.370 . S
C473 C477 1.408 . S
C474 C472 1.363 . S
C474 C475 1.370 . S
C474 C478 1.524 . S
C475 C467 1.503 . S
C475 C474 1.370 . S
C475 C476 1.403 . S
C476 C475 1.403 . S
C476 C477 1.404 . S
C476 C479 1.539 . S
C477 C473 1.408 . S
C477 C476 1.404 . S
C477 H489 0.930 . S
C478 C474 1.524 . S
C478 H490 0.956 . S
C478 H491 0.961 . S
C478 H492 0.961 . S
C479 C476 1.539 . S
C479 H493 0.958 . S
C479 H494 0.961 . S
C479 H495 0.960 . S
H480 C464 0.931 . S
H481 C469 0.929 . S
H482 C470 0.960 . S
H483 C470 0.962 . S
H484 C470 0.960 . S
H485 C471 0.961 . S
H486 C471 0.961 . S
H487 C471 0.961 . S
H488 C472 0.931 . S
H489 C477 0.930 . S
H490 C478 0.956 . S
H491 C478 0.961 . S
H492 C478 0.961 . S
H493 C479 0.958 . S
H494 C479 0.961 . S
H495 C479 0.960 . S
C121 C48 1.505 . S
C113 C43 1.504 . S
C145 C10 1.509 . S
C153 C91 1.506 . S
C177 C21 1.494 . S
C185 C57 1.508 . S
C209 C32 1.508 . S
C217 C82 1.509 . S
C249 C44 1.559 . S
C241 C5 1.545 . S
C281 C86 1.543 . S
C273 C15 1.525 . S
C305 C27 1.551 . S
C313 C52 1.552 . S
C337 C38 1.505 . S
C345 C78 1.542 . S
C377 C107 1.473 . S
C369 C16 1.469 . S
C409 C73 1.459 . S
C401 C26 1.461 . S
C441 C95 1.470 . S
C433 C37 1.475 . S
C465 C4 1.442 . S
C473 C61 1.460 . S
