# Generated by pormake.
# Topology tsx, (6,3)-cn, num edge types: 1
# Building blocks:
#     Node 0, Type 0, BuildingBlock: FUNLAD_clean_sbu_0, # of connection points: 6
#     Node 1, Type 0, BuildingBlock: FUNLAD_clean_sbu_0, # of connection points: 6
#     Node 2, Type 1, BuildingBlock: BELTOD_clean_linker_0, # of connection points: 3
#     Node 3, Type 1, BuildingBlock: BELTOD_clean_linker_0, # of connection points: 3
#     Node 4, Type 1, BuildingBlock: BELTOD_clean_linker_0, # of connection points: 3
#     Node 5, Type 1, BuildingBlock: BELTOD_clean_linker_0, # of connection points: 3
#     Edge 6, Type (0, 1), BuildingBlock: XUDNAN_clean_linker_2, # of connection points: 2
#     Edge 7, Type (0, 1), BuildingBlock: XUDNAN_clean_linker_2, # of connection points: 2
#     Edge 8, Type (0, 1), BuildingBlock: XUDNAN_clean_linker_2, # of connection points: 2
#     Edge 9, Type (0, 1), BuildingBlock: XUDNAN_clean_linker_2, # of connection points: 2
#     Edge 10, Type (0, 1), BuildingBlock: XUDNAN_clean_linker_2, # of connection points: 2
#     Edge 11, Type (0, 1), BuildingBlock: XUDNAN_clean_linker_2, # of connection points: 2
#     Edge 12, Type (0, 1), BuildingBlock: XUDNAN_clean_linker_2, # of connection points: 2
#     Edge 13, Type (0, 1), BuildingBlock: XUDNAN_clean_linker_2, # of connection points: 2
#     Edge 14, Type (0, 1), BuildingBlock: XUDNAN_clean_linker_2, # of connection points: 2
#     Edge 15, Type (0, 1), BuildingBlock: XUDNAN_clean_linker_2, # of connection points: 2
#     Edge 16, Type (0, 1), BuildingBlock: XUDNAN_clean_linker_2, # of connection points: 2
#     Edge 17, Type (0, 1), BuildingBlock: XUDNAN_clean_linker_2, # of connection points: 2
# Relax obj value: 0.152
# Max RMSD: 0.148
# Mean RMSD: 0.078
data_MOF--net-tsx--node1-FUNLAD_clean_sbu_0--node2-BELTOD_clean_linker_0--edge1-XUDNAN_clean_linker_2
_symmetry_space_group_name_H-M    P1
_symmetry_Int_Tables_number       1
_symmetry_cell_setting            triclinic
loop_
_symmetry_equiv_pos_as_xyz
'x, y, z'
_cell_length_a     21.521531
_cell_length_b     23.851235
_cell_length_c     46.269075
_cell_angle_alpha  91.754736
_cell_angle_beta   92.145242
_cell_angle_gamma 89.949347
loop_
_atom_site_label
_atom_site_type_symbol
_atom_site_fract_x
_atom_site_fract_y
_atom_site_fract_z
_atom_type_partial_charge
C0 C 0.89807 0.90358 0.99806 0.0
N1 N 0.94992 0.99392 0.07418 0.0
C2 C 0.89177 0.98576 0.08384 0.0
C3 C 0.8816 0.98693 0.11352 0.0
C4 C 0.93171 0.99692 0.13339 0.0
C5 C 0.99114 0.00505 0.12267 0.0
C6 C -0.00074 0.00305 0.09294 0.0
Zn7 Zn 0.96577 0.99417 0.031 0.0
C8 C 0.07488 0.92499 0.01575 0.0
N9 N 0.00292 0.99689 0.941 0.0
C10 C 0.95825 0.98493 0.92012 0.0
C11 C 0.0633 0.004 0.9342 0.0
C12 C 0.0812 0.99711 0.90569 0.0
C13 C 0.03675 0.98223 0.88382 0.0
C14 C 0.97424 0.97743 0.89121 0.0
Zn15 Zn 0.98369 0.99752 0.98401 0.0
O16 O 0.9076 0.92391 0.02353 0.0
C17 C 0.87566 0.0676 0.99909 0.0
O18 O 0.92389 0.92613 0.97699 0.0
H19 H 0.09824 0.01323 0.95107 0.0
H20 H 0.8532 0.97854 0.06852 0.0
H21 H 0.91056 0.97927 0.92602 0.0
O22 O 0.8891 0.04815 0.02385 0.0
O23 O 0.90784 0.05296 0.9776 0.0
H24 H 0.04511 0.00944 0.08484 0.0
O25 O 0.04385 0.06827 0.99208 0.0
O26 O 0.02326 0.065 0.03802 0.0
O27 O 0.05889 0.94283 0.99102 0.0
O28 O 0.04395 0.94004 0.03753 0.0
C29 C 0.051 0.08809 0.0178 0.0
H30 H 0.83509 0.97984 0.12079 0.0
H31 H 0.031 0.01401 0.13703 0.0
H32 H 0.12972 0.00229 0.90094 0.0
H33 H 0.9385 0.96569 0.87506 0.0
C34 C 0.41336 0.42804 0.50328 0.0
N35 N 0.46077 0.53473 0.57428 0.0
C36 C 0.40234 0.5313 0.58437 0.0
C37 C 0.39284 0.53631 0.6141 0.0
C38 C 0.444 0.54471 0.63357 0.0
C39 C 0.50363 0.54809 0.62238 0.0
C40 C 0.51091 0.54327 0.59264 0.0
Zn41 Zn 0.4771 0.52647 0.53113 0.0
C42 C 0.58819 0.45639 0.52052 0.0
N43 N 0.51617 0.5104 0.44121 0.0
C44 C 0.4714 0.49644 0.42068 0.0
C45 C 0.57643 0.51712 0.4341 0.0
C46 C 0.59399 0.50841 0.40562 0.0
C47 C 0.54923 0.49256 0.38407 0.0
C48 C 0.48698 0.48744 0.39179 0.0
Zn49 Zn 0.49633 0.51884 0.48413 0.0
O50 O 0.42029 0.4553 0.5272 0.0
C51 C 0.38394 0.58695 0.4946 0.0
O52 O 0.44063 0.4448 0.48117 0.0
H53 H 0.61136 0.52839 0.45066 0.0
H54 H 0.36311 0.52453 0.56937 0.0
H55 H 0.42378 0.4912 0.4268 0.0
O56 O 0.39997 0.57772 0.52076 0.0
O57 O 0.41637 0.5672 0.47425 0.0
H58 H 0.55698 0.54586 0.58422 0.0
O59 O 0.55224 0.5928 0.48813 0.0
O60 O 0.53406 0.59818 0.53449 0.0
O61 O 0.57501 0.47008 0.49473 0.0
O62 O 0.55427 0.47367 0.54079 0.0
C63 C 0.56017 0.61742 0.51274 0.0
H64 H 0.34597 0.53392 0.6217 0.0
H65 H 0.54466 0.5533 0.63647 0.0
H66 H 0.64234 0.51369 0.40058 0.0
H67 H 0.45109 0.4749 0.37587 0.0
P68 P 0.04546 0.06591 0.43938 0.0
H69 H 0.95535 0.14785 0.41954 0.0
H70 H 0.88191 0.20745 0.4441 0.0
H71 H 0.93875 0.13599 0.52578 0.0
H72 H 0.00917 0.0725 0.50025 0.0
H73 H 0.16284 0.01479 0.45725 0.0
H74 H 0.19028 0.91988 0.47096 0.0
H75 H 0.99643 0.87319 0.46631 0.0
H76 H 0.96848 0.96984 0.45372 0.0
H77 H 0.92716 0.02703 0.41292 0.0
H78 H 0.10839 0.07286 0.38462 0.0
O79 O 0.10923 0.10578 0.44015 0.0
H80 H 0.89118 0.01097 0.36257 0.0
H81 H 0.07258 0.05764 0.33423 0.0
C82 C 0.98688 0.10493 0.45795 0.0
C83 C 0.95104 0.1438 0.44262 0.0
C84 C 0.90979 0.17887 0.45689 0.0
C85 C 0.90517 0.17756 0.48711 0.0
C86 C 0.94083 0.13802 0.5025 0.0
C87 C 0.98139 0.10189 0.48796 0.0
C88 C 0.06361 -0.00054 0.45474 0.0
C89 C 0.12592 0.98487 0.46 0.0
C90 C 0.14161 0.93065 0.46783 0.0
C91 C 0.09533 0.88968 0.46964 0.0
C92 C 0.03268 0.90442 0.46508 0.0
C93 C 0.01685 0.95937 0.45793 0.0
C94 C 0.02004 0.05211 0.4024 0.0
C95 C 0.95919 0.03359 0.39585 0.0
C96 C 0.9386 0.0247 0.36709 0.0
C97 C 0.97891 0.03344 0.34445 0.0
C98 C 0.04054 0.05022 0.35121 0.0
C99 C 0.06095 0.05935 0.37998 0.0
P100 P 0.11651 0.91747 0.57607 0.0
H101 H 0.07052 0.81107 0.55032 0.0
H102 H 0.96643 0.77874 0.53534 0.0
H103 H 0.89425 0.94499 0.55319 0.0
H104 H 0.99847 0.9764 0.56901 0.0
H105 H 0.21194 0.99597 0.59718 0.0
H106 H 0.25361 0.08167 0.57777 0.0
H107 H 0.12106 0.06829 0.50558 0.0
H108 H 0.08088 0.98131 0.52449 0.0
H109 H 0.13911 0.83507 0.62028 0.0
H110 H 0.0772 0.00674 0.61657 0.0
O111 O 0.17028 0.86971 0.56814 0.0
H112 H 0.13296 0.83904 0.67285 0.0
H113 H 0.0723 0.01163 0.66943 0.0
C114 C 0.04213 0.8962 0.56057 0.0
C115 C 0.0325 0.8408 0.5505 0.0
C116 C 0.97288 0.82245 0.54176 0.0
C117 C 0.9218 0.8592 0.54318 0.0
C118 C 0.93235 0.91538 0.55221 0.0
C119 C 0.99192 0.93353 0.56108 0.0
C120 C 0.14229 0.9831 0.5627 0.0
C121 C 0.19129 0.01185 0.57735 0.0
C122 C 0.21494 0.06088 0.56626 0.0
C123 C 0.19026 0.08174 0.54016 0.0
C124 C 0.14115 0.05276 0.52556 0.0
C125 C 0.11771 0.00349 0.53657 0.0
C126 C 0.11038 0.92111 0.6147 0.0
C127 C 0.12471 0.87383 0.63085 0.0
C128 C 0.12132 0.87622 0.66092 0.0
C129 C 0.1031 0.92595 0.6754 0.0
C130 C 0.08644 0.9727 0.65896 0.0
C131 C 0.08975 0.97015 0.6288 0.0
P132 P 0.59145 0.59381 0.93749 0.0
H133 H 0.59307 0.67506 0.98651 0.0
H134 H 0.50914 0.72453 0.01121 0.0
H135 H 0.37351 0.62703 0.96017 0.0
H136 H 0.45712 0.57796 0.93574 0.0
H137 H 0.70421 0.52981 0.92912 0.0
H138 H 0.73724 0.43655 0.94316 0.0
H139 H 0.5622 0.41416 0.98458 0.0
H140 H 0.53196 0.50892 0.97212 0.0
H141 H 0.56855 0.67436 0.89222 0.0
H142 H 0.5462 0.49639 0.90224 0.0
O143 O 0.65212 0.63741 0.9384 0.0
H144 H 0.52363 0.66537 0.84289 0.0
H145 H 0.50327 0.48678 0.85296 0.0
C146 C 0.5311 0.624 0.95881 0.0
C147 C 0.54525 0.66393 0.98095 0.0
C148 C 0.49736 0.6919 0.99514 0.0
C149 C 0.43488 0.68019 0.98722 0.0
C150 C 0.42126 0.63759 0.9663 0.0
C151 C 0.46898 0.60957 0.95232 0.0
C152 C 0.61651 0.52678 0.95023 0.0
C153 C 0.67356 0.50503 0.94169 0.0
C154 C 0.69188 0.45118 0.94935 0.0
C155 C 0.65236 0.41712 0.96488 0.0
C156 C 0.5946 0.43916 0.9731 0.0
C157 C 0.57698 0.49353 0.9659 0.0
C158 C 0.56203 0.58597 0.90066 0.0
C159 C 0.55479 0.63327 0.88365 0.0
C160 C 0.52914 0.62803 0.85548 0.0
C161 C 0.50992 0.57531 0.84392 0.0
C162 C 0.51683 0.52811 0.86125 0.0
C163 C 0.54226 0.53346 0.8894 0.0
P164 P 0.60251 0.40256 0.07608 0.0
H165 H 0.55389 0.3051 0.04261 0.0
H166 H 0.44925 0.27063 0.03191 0.0
H167 H 0.3744 0.42008 0.07291 0.0
H168 H 0.47996 0.45316 0.08469 0.0
H169 H 0.7212 0.42308 0.05002 0.0
H170 H 0.76373 0.50274 0.02576 0.0
H171 H 0.59052 0.59186 0.03515 0.0
H172 H 0.54785 0.51154 0.05952 0.0
H173 H 0.62149 0.32737 0.1235 0.0
H174 H 0.58375 0.50356 0.11375 0.0
O175 O 0.64984 0.34833 0.06998 0.0
H176 H 0.6239 0.34063 0.17592 0.0
H177 H 0.58604 0.51715 0.16663 0.0
C178 C 0.52494 0.38194 0.06432 0.0
C179 C 0.51515 0.33107 0.04887 0.0
C180 C 0.45491 0.31145 0.04258 0.0
C181 C 0.40307 0.34244 0.05158 0.0
C182 C 0.41316 0.3947 0.06599 0.0
C183 C 0.47358 0.41406 0.07246 0.0
C184 C 0.63123 0.46114 0.05668 0.0
C185 C 0.69194 0.45943 0.0467 0.0
C186 C 0.71621 0.50499 0.03263 0.0
C187 C 0.68054 0.55367 0.02857 0.0
C188 C 0.61932 0.5551 0.03823 0.0
C189 C 0.59481 0.50909 0.05209 0.0
C190 C 0.60423 0.41473 0.1147 0.0
C191 C 0.61435 0.36912 0.13264 0.0
C192 C 0.61571 0.37672 0.16264 0.0
C193 C 0.60606 0.43008 0.17539 0.0
C194 C 0.59378 0.47559 0.15738 0.0
C195 C 0.59292 0.46794 0.12718 0.0
H196 H 0.14709 0.1273 0.98636 0.0
H197 H 0.04848 0.1575 0.06548 0.0
H198 H 0.12145 0.2338 0.07977 0.0
H199 H 0.29576 0.14353 0.01793 0.0
H200 H 0.32907 0.17764 0.98791 0.0
H201 H 0.26423 0.13072 0.98167 0.0
H202 H 0.20182 0.20919 0.95616 0.0
H203 H 0.26667 0.25642 0.96226 0.0
H204 H 0.19109 0.27577 0.97482 0.0
H205 H 0.20988 0.29963 0.08801 0.0
H206 H 0.31029 0.34895 0.09049 0.0
H207 H 0.35274 0.27778 0.00594 0.0
C208 C 0.14008 0.15093 0.00634 0.0
C209 C 0.0919 0.13678 0.02473 0.0
C210 C 0.08504 0.16769 0.05104 0.0
C211 C 0.12604 0.21131 0.05929 0.0
C212 C 0.17379 0.22355 0.04101 0.0
C213 C 0.18111 0.19439 0.01507 0.0
C214 C 0.23969 0.21273 0.00076 0.0
C215 C 0.28484 0.16321 0.99686 0.0
C216 C 0.22385 0.24017 0.97178 0.0
C217 C 0.26491 0.25546 0.02314 0.0
C218 C 0.22562 0.26162 0.04594 0.0
C219 C 0.24056 0.29602 0.07005 0.0
C220 C 0.29769 0.32423 0.07115 0.0
C221 C 0.33952 0.31781 0.04832 0.0
C222 C 0.32203 0.28364 0.02378 0.0
H223 H 0.13364 0.87023 0.97221 0.0
H224 H 0.13881 0.89462 0.06561 0.0
H225 H 0.23216 0.83376 0.06917 0.0
H226 H 0.17882 0.72517 0.97121 0.0
H227 H 0.22388 0.73129 0.9394 0.0
H228 H 0.15787 0.77639 0.94469 0.0
H229 H 0.22786 0.86375 0.93977 0.0
H230 H 0.2941 0.81899 0.93448 0.0
H231 H 0.29659 0.8723 0.96297 0.0
H232 H 0.32863 0.77241 0.06157 0.0
H233 H 0.41459 0.7126 0.04378 0.0
H234 H 0.34143 0.72846 0.95583 0.0
C235 C 0.1542 0.86282 0.99349 0.0
C236 C 0.12915 0.88729 0.01864 0.0
C237 C 0.15726 0.87615 0.04605 0.0
C238 C 0.21031 0.84179 0.04826 0.0
C239 C 0.23406 0.81865 0.02289 0.0
C240 C 0.20641 0.82848 0.99607 0.0
C241 C 0.24009 0.79874 0.97201 0.0
C242 C 0.19763 0.75532 0.95589 0.0
C243 C 0.26621 0.84097 0.95109 0.0
C244 C 0.29144 0.77071 0.98936 0.0
C245 C 0.28769 0.78274 0.01866 0.0
C246 C 0.33162 0.76241 0.0387 0.0
C247 C 0.38029 0.72871 0.02844 0.0
C248 C 0.38398 0.7154 0.99852 0.0
C249 C 0.33899 0.73697 0.97889 0.0
H250 H 0.80468 0.86725 0.03125 0.0
H251 H 0.90844 0.82287 0.95531 0.0
H252 H 0.8561 0.73046 0.95194 0.0
H253 H 0.81058 0.73958 0.06349 0.0
H254 H 0.73255 0.74069 0.07637 0.0
H255 H 0.77233 0.80552 0.0708 0.0
H256 H 0.68202 0.83717 0.03634 0.0
H257 H 0.64169 0.7724 0.042 0.0
H258 H 0.65794 0.79249 0.00583 0.0
H259 H 0.80665 0.63811 0.96216 0.0
H260 H 0.75416 0.55626 0.98157 0.0
H261 H 0.6747 0.6631 0.04803 0.0
C262 C 0.8153 0.83849 0.01354 0.0
C263 C 0.86062 0.85198 0.99355 0.0
C264 C 0.87351 0.81342 0.9707 0.0
C265 C 0.84411 0.76085 0.96867 0.0
C266 C 0.8008 0.74823 0.98919 0.0
C267 C 0.78528 0.78647 0.01079 0.0
C268 C 0.73901 0.76178 0.03078 0.0
C269 C 0.76522 0.76189 0.06221 0.0
C270 C 0.67646 0.79282 0.0286 0.0
C271 C 0.73331 0.70279 0.01795 0.0
C272 C 0.76921 0.69585 0.99393 0.0
C273 C 0.77675 0.6435 0.98033 0.0
C274 C 0.74668 0.5972 0.99149 0.0
C275 C 0.70859 0.60354 0.01568 0.0
C276 C 0.70161 0.65727 0.02886 0.0
H277 H 0.85379 0.13709 0.95368 0.0
H278 H 0.78874 0.09718 0.03834 0.0
H279 H 0.71652 0.17743 0.03638 0.0
H280 H 0.85822 0.28058 0.96528 0.0
H281 H 0.83232 0.29878 0.92928 0.0
H282 H 0.87202 0.23344 0.93499 0.0
H283 H 0.77946 0.17888 0.91025 0.0
H284 H 0.73965 0.24422 0.90412 0.0
H285 H 0.70223 0.18958 0.92317 0.0
H286 H 0.66093 0.26724 0.02791 0.0
H287 H 0.62509 0.36084 0.01355 0.0
H288 H 0.7241 0.34182 0.93387 0.0
C289 C 0.82309 0.14426 0.97144 0.0
C290 C 0.82661 0.11067 0.99609 0.0
C291 C 0.78668 0.12222 0.01918 0.0
C292 C 0.74538 0.16763 0.01825 0.0
C293 C 0.74439 0.20091 0.99403 0.0
C294 C 0.7818 0.1896 0.97092 0.0
C295 C 0.77545 0.23466 0.9486 0.0
C296 C 0.83823 0.26356 0.94431 0.0
C297 C 0.74752 0.21038 0.91983 0.0
C298 C 0.73029 0.27397 0.96327 0.0
C299 C 0.71241 0.25334 0.98924 0.0
C300 C 0.67383 0.28362 0.00743 0.0
C301 C 0.65349 0.33671 0.99903 0.0
C302 C 0.67162 0.35925 0.97266 0.0
C303 C 0.70983 0.32663 0.95439 0.0
H304 H 0.66484 0.64037 0.48331 0.0
H305 H 0.55001 0.70321 0.55222 0.0
H306 H 0.6249 0.77996 0.56309 0.0
H307 H 0.80496 0.65935 0.52155 0.0
H308 H 0.84947 0.67958 0.49132 0.0
H309 H 0.78214 0.63553 0.48535 0.0
H310 H 0.73459 0.70643 0.44942 0.0
H311 H 0.80207 0.75069 0.45517 0.0
H312 H 0.72558 0.77881 0.46088 0.0
H313 H 0.71607 0.84277 0.57011 0.0
H314 H 0.81998 0.88564 0.57441 0.0
H315 H 0.87841 0.7819 0.50156 0.0
C316 C 0.6547 0.6714 0.50006 0.0
C317 C 0.60139 0.66655 0.5167 0.0
C318 C 0.59048 0.70658 0.53914 0.0
C319 C 0.63256 0.75041 0.54537 0.0
C320 C 0.68551 0.75336 0.52908 0.0
C321 C 0.69689 0.71496 0.5069 0.0
C322 C 0.7607 0.72394 0.49499 0.0
C323 C 0.80171 0.67149 0.49853 0.0
C324 C 0.75539 0.74099 0.46323 0.0
C325 C 0.78399 0.77224 0.51451 0.0
C326 C 0.73936 0.78916 0.53363 0.0
C327 C 0.75106 0.83067 0.55492 0.0
C328 C 0.81026 0.85503 0.55707 0.0
C329 C 0.85737 0.83763 0.53815 0.0
C330 C 0.84345 0.79623 0.51631 0.0
H331 H 0.69462 0.44776 0.49119 0.0
H332 H 0.59729 0.37678 0.56178 0.0
H333 H 0.67675 0.30182 0.56545 0.0
H334 H 0.73176 0.32604 0.4563 0.0
H335 H 0.80804 0.34677 0.44584 0.0
H336 H 0.74946 0.39909 0.45188 0.0
H337 H 0.8223 0.45075 0.48981 0.0
H338 H 0.88166 0.39883 0.48365 0.0
H339 H 0.85563 0.41284 0.51974 0.0
H340 H 0.75617 0.22588 0.555 0.0
H341 H 0.8326 0.16032 0.53406 0.0
H342 H 0.88305 0.28689 0.47364 0.0
C343 C 0.69106 0.41726 0.50793 0.0
C344 C 0.64017 0.41772 0.5262 0.0
C345 C 0.6365 0.37721 0.54778 0.0
C346 C 0.6813 0.33454 0.54998 0.0
C347 C 0.73007 0.33416 0.53093 0.0
C348 C 0.7359 0.37534 0.51079 0.0
C349 C 0.79007 0.36393 0.49164 0.0
C350 C 0.7685 0.35862 0.45954 0.0
C351 C 0.8404 0.40928 0.49652 0.0
C352 C 0.81181 0.30832 0.50305 0.0
C353 C 0.77711 0.29181 0.52583 0.0
C354 C 0.7848 0.23907 0.53771 0.0
C355 C 0.82847 0.20211 0.52571 0.0
C356 C 0.86381 0.21818 0.50207 0.0
C357 C 0.85635 0.27274 0.4914 0.0
H358 H 0.35546 0.37956 0.54762 0.0
H359 H 0.38569 0.35959 0.45561 0.0
H360 H 0.32555 0.27108 0.45421 0.0
H361 H 0.37479 0.23804 0.56424 0.0
H362 H 0.31589 0.23819 0.59093 0.0
H363 H 0.35677 0.30189 0.58406 0.0
H364 H 0.25199 0.35213 0.57316 0.0
H365 H 0.21068 0.28856 0.5801 0.0
H366 H 0.19821 0.32244 0.54608 0.0
H367 H 0.26673 0.18201 0.46375 0.0
H368 H 0.21653 0.09908 0.48356 0.0
H369 H 0.22527 0.17903 0.56913 0.0
C370 C 0.34894 0.35704 0.52705 0.0
C371 C 0.37516 0.37654 0.5017 0.0
C372 C 0.36591 0.34546 0.4753 0.0
C373 C 0.33172 0.29526 0.47429 0.0
C374 C 0.30709 0.27699 0.49982 0.0
C375 C 0.31525 0.30706 0.52568 0.0
C376 C 0.28681 0.27732 0.55036 0.0
C377 C 0.33654 0.26301 0.57376 0.0
C378 C 0.23377 0.3122 0.56317 0.0
C379 C 0.2623 0.22516 0.5345 0.0
C380 C 0.27382 0.22588 0.50532 0.0
C381 C 0.25697 0.18126 0.48651 0.0
C382 C 0.22822 0.13448 0.49793 0.0
C383 C 0.21696 0.13266 0.52788 0.0
C384 C 0.2337 0.179 0.5462 0.0
H385 H 0.33326 0.66836 0.52877 0.0
H386 H 0.30962 0.58167 0.44536 0.0
H387 H 0.21725 0.64001 0.43403 0.0
H388 H 0.16562 0.69409 0.54128 0.0
H389 H 0.18078 0.76261 0.55725 0.0
H390 H 0.23808 0.70801 0.56099 0.0
H391 H 0.32104 0.77053 0.53874 0.0
H392 H 0.26516 0.82603 0.53518 0.0
H393 H 0.3049 0.80023 0.50388 0.0
H394 H 0.13365 0.71303 0.43013 0.0
H395 H 0.07709 0.80346 0.43062 0.0
H396 H 0.1614 0.8465 0.51456 0.0
C397 C 0.30775 0.66088 0.50839 0.0
C398 C 0.3279 0.62031 0.48803 0.0
C399 C 0.29461 0.61259 0.46125 0.0
C400 C 0.24179 0.64506 0.45479 0.0
C401 C 0.22331 0.68518 0.47528 0.0
C402 C 0.25586 0.69364 0.50139 0.0
C403 C 0.2319 0.74417 0.51804 0.0
C404 C 0.20236 0.72617 0.54604 0.0
C405 C 0.28381 0.7878 0.5243 0.0
C406 C 0.18313 0.76483 0.49651 0.0
C407 C 0.17698 0.72893 0.47252 0.0
C408 C 0.13737 0.74101 0.44898 0.0
C409 C 0.10523 0.79219 0.44947 0.0
C410 C 0.11442 0.83092 0.47296 0.0
C411 C 0.1525 0.81647 0.49697 0.0
H412 H 0.00984 0.9591 0.17688 0.0
H413 H 0.83327 0.04359 0.16177 0.0
H414 H 0.82197 0.05515 0.2145 0.0
H415 H 0.97044 0.88857 0.24274 0.0
H416 H 0.0467 0.89965 0.25937 0.0
H417 H 0.03734 0.89242 0.22057 0.0
H418 H 0.09252 0.98796 0.21534 0.0
H419 H 0.10188 0.99557 0.25407 0.0
H420 H 0.063 0.04951 0.2338 0.0
H421 H 0.83384 0.06382 0.26881 0.0
H422 H 0.86868 0.07009 0.32031 0.0
H423 H 0.03888 0.98258 0.29946 0.0
C424 C 0.96861 0.97989 0.18456 0.0
C425 C 0.92238 0.00031 0.16507 0.0
C426 C 0.86886 0.02669 0.17619 0.0
C427 C 0.86215 0.03372 0.20613 0.0
C428 C 0.9093 0.01411 0.22465 0.0
C429 C 0.96144 0.98767 0.21428 0.0
C430 C 0.00727 0.97356 0.23858 0.0
C431 C 0.01592 0.90976 0.24042 0.0
C432 C 0.06984 0.00345 0.23524 0.0
C433 C 0.97335 0.99725 0.26424 0.0
C434 C 0.91661 0.01987 0.25583 0.0
C435 C 0.87788 0.04572 0.27569 0.0
C436 C 0.89794 0.04888 0.30488 0.0
C437 C 0.9564 0.02671 0.31387 0.0
C438 C 0.99413 0.00016 0.29322 0.0
H439 H 0.97839 0.00981 0.83198 0.0
H440 H 0.13945 0.92298 0.86813 0.0
H441 H 0.1739 0.9005 0.81898 0.0
H442 H 0.94964 0.9124 0.77157 0.0
H443 H 0.92632 0.96605 0.74679 0.0
H444 H 0.91437 0.97623 0.78492 0.0
H445 H 0.97655 0.06923 0.78514 0.0
H446 H 0.98885 0.05926 0.74704 0.0
H447 H 0.05443 0.06895 0.77207 0.0
H448 H 0.19141 0.88728 0.76639 0.0
H449 H 0.19052 0.88347 0.7131 0.0
H450 H 0.01671 0.97617 0.71042 0.0
C451 C 0.02071 0.98582 0.82954 0.0
C452 C 0.05653 0.96871 0.85397 0.0
C453 C 0.11186 0.93763 0.84981 0.0
C454 C 0.13165 0.92428 0.82196 0.0
C455 C 0.09556 0.94207 0.79841 0.0
C456 C 0.04121 0.97204 0.80182 0.0
C457 C 0.01112 0.98581 0.77274 0.0
C458 C 0.94654 0.95848 0.76877 0.0
C459 C 0.00755 0.0496 0.76904 0.0
C460 C 0.05712 0.95887 0.75253 0.0
C461 C 0.10541 0.9339 0.76785 0.0
C462 C 0.15368 0.90641 0.7541 0.0
C463 C 0.15253 0.90417 0.72382 0.0
C464 C 0.10335 0.92915 0.70753 0.0
C465 C 0.05518 0.95703 0.72222 0.0
H466 H 0.50756 0.61242 0.67363 0.0
H467 H 0.36398 0.48448 0.66572 0.0
H468 H 0.35817 0.48493 0.71891 0.0
H469 H 0.58844 0.55428 0.73232 0.0
H470 H 0.60989 0.62055 0.74963 0.0
H471 H 0.59666 0.6157 0.71102 0.0
H472 H 0.51428 0.69482 0.71415 0.0
H473 H 0.52732 0.69996 0.75284 0.0
H474 H 0.45001 0.68765 0.73765 0.0
H475 H 0.37472 0.49339 0.7731 0.0
H476 H 0.41244 0.50883 0.82377 0.0
H477 H 0.54923 0.6272 0.79572 0.0
C478 C 0.47455 0.58467 0.68299 0.0
C479 C 0.43616 0.54845 0.66538 0.0
C480 C 0.39318 0.5133 0.67864 0.0
C481 C 0.38974 0.51306 0.70887 0.0
C482 C 0.42945 0.54829 0.72554 0.0
C483 C 0.47089 0.58356 0.71304 0.0
C484 C 0.51159 0.61439 0.73568 0.0
C485 C 0.58071 0.60036 0.73194 0.0
C486 C 0.50008 0.67798 0.73504 0.0
C487 C 0.48766 0.58992 0.7629 0.0
C488 C 0.43977 0.5524 0.75665 0.0
C489 C 0.41194 0.52292 0.77825 0.0
C490 C 0.43405 0.53165 0.80694 0.0
C491 C 0.48392 0.56916 0.81377 0.0
C492 C 0.51038 0.59901 0.79136 0.0
H493 H 0.49084 0.52203 0.33259 0.0
H494 H 0.65057 0.43216 0.36783 0.0
H495 H 0.68403 0.40998 0.31843 0.0
H496 H 0.45893 0.42717 0.27197 0.0
H497 H 0.43679 0.48161 0.24745 0.0
H498 H 0.42591 0.49175 0.28566 0.0
H499 H 0.49091 0.58315 0.28581 0.0
H500 H 0.50227 0.57314 0.24761 0.0
H501 H 0.5685 0.58101 0.27241 0.0
H502 H 0.69931 0.39551 0.26574 0.0
H503 H 0.69503 0.38882 0.2124 0.0
H504 H 0.52553 0.48757 0.21056 0.0
C505 C 0.53271 0.49753 0.32987 0.0
C506 C 0.56836 0.4792 0.35411 0.0
C507 C 0.6231 0.44751 0.34964 0.0
C508 C 0.64236 0.43446 0.32166 0.0
C509 C 0.6065 0.45346 0.29829 0.0
C510 C 0.55284 0.48428 0.30201 0.0
C511 C 0.52266 0.49899 0.27306 0.0
C512 C 0.4572 0.47333 0.26932 0.0
C513 C 0.52101 0.56287 0.26952 0.0
C514 C 0.56746 0.4711 0.25256 0.0
C515 C 0.6155 0.44521 0.26765 0.0
C516 C 0.66199 0.41566 0.25365 0.0
C517 C 0.65902 0.41191 0.22337 0.0
C518 C 0.60992 0.43755 0.20737 0.0
C519 C 0.56396 0.46808 0.22222 0.0
loop_
_geom_bond_atom_site_label_1
_geom_bond_atom_site_label_2
_geom_bond_distance
_geom_bond_site_symmetry_2
_ccdc_geom_bond_type
C0 O16 1.251 . S
C0 O18 1.254 1_554 S
N1 C2 1.333 1_445 S
N1 C6 1.307 . S
N1 Zn7 2.020 . S
C2 N1 1.333 1_665 S
C2 C3 1.379 . S
C2 H20 0.952 . S
C3 C2 1.379 . S
C3 C4 1.390 1_665 S
C3 H30 0.949 . S
C4 C3 1.390 1_445 S
C4 C5 1.357 . S
C5 C4 1.357 . S
C5 C6 1.370 . S
C5 H31 0.950 . S
C6 N1 1.307 . S
C6 C5 1.370 . S
C6 H24 0.948 . S
Zn7 N1 2.020 . S
Zn7 O16 2.039 1_445 S
Zn7 O22 2.034 1_455 S
Zn7 O26 2.025 . S
Zn7 O28 2.024 1_545 S
C8 O27 1.246 1_554 S
C8 O28 1.249 . S
N9 C10 1.307 1_445 S
N9 C11 1.333 . S
N9 Zn15 2.020 . S
C10 N9 1.307 1_665 S
C10 C14 1.370 . S
C10 H21 0.948 . S
C11 N9 1.333 . S
C11 C12 1.379 . S
C11 H19 0.952 . S
C12 C11 1.379 . S
C12 C13 1.390 . S
C12 H32 0.949 . S
C13 C12 1.390 . S
C13 C14 1.357 1_445 S
C14 C10 1.370 . S
C14 C13 1.357 1_665 S
C14 H33 0.950 . S
Zn15 N9 2.020 . S
Zn15 O18 2.025 1_445 S
Zn15 O23 2.024 1_455 S
Zn15 O25 2.039 . S
Zn15 O27 2.034 1_545 S
O16 C0 1.251 . S
O16 Zn7 2.039 1_665 S
C17 O22 1.246 . S
C17 O23 1.249 1_554 S
O18 C0 1.254 1_556 S
O18 Zn15 2.025 1_665 S
H19 C11 0.952 . S
H20 C2 0.952 . S
H21 C10 0.948 . S
O22 Zn7 2.034 1_655 S
O22 C17 1.246 . S
O23 Zn15 2.024 1_655 S
O23 C17 1.249 1_556 S
H24 C6 0.948 . S
O25 Zn15 2.039 . S
O25 C29 1.251 1_556 S
O26 Zn7 2.025 . S
O26 C29 1.254 . S
O27 C8 1.246 1_556 S
O27 Zn15 2.034 1_565 S
O28 Zn7 2.024 1_565 S
O28 C8 1.249 . S
C29 O25 1.251 1_554 S
C29 O26 1.254 . S
H30 C3 0.949 . S
H31 C5 0.950 . S
H32 C12 0.949 . S
H33 C14 0.950 . S
C34 O50 1.251 . S
C34 O52 1.254 . S
N35 C36 1.333 . S
N35 C40 1.307 . S
N35 Zn41 2.020 . S
C36 N35 1.333 . S
C36 C37 1.379 . S
C36 H54 0.952 . S
C37 C36 1.379 . S
C37 C38 1.390 . S
C37 H64 0.949 . S
C38 C37 1.390 . S
C38 C39 1.357 . S
C39 C38 1.357 . S
C39 C40 1.370 . S
C39 H65 0.950 . S
C40 N35 1.307 . S
C40 C39 1.370 . S
C40 H58 0.948 . S
Zn41 N35 2.020 . S
Zn41 O50 2.039 . S
Zn41 O56 2.034 . S
Zn41 O60 2.025 . S
Zn41 O62 2.024 . S
C42 O61 1.246 . S
C42 O62 1.249 . S
N43 C44 1.307 . S
N43 C45 1.333 . S
N43 Zn49 2.020 . S
C44 N43 1.307 . S
C44 C48 1.370 . S
C44 H55 0.948 . S
C45 N43 1.333 . S
C45 C46 1.379 . S
C45 H53 0.952 . S
C46 C45 1.379 . S
C46 C47 1.390 . S
C46 H66 0.949 . S
C47 C46 1.390 . S
C47 C48 1.357 . S
C48 C44 1.370 . S
C48 C47 1.357 . S
C48 H67 0.950 . S
Zn49 N43 2.020 . S
Zn49 O52 2.025 . S
Zn49 O57 2.024 . S
Zn49 O59 2.039 . S
Zn49 O61 2.034 . S
O50 C34 1.251 . S
O50 Zn41 2.039 . S
C51 O56 1.246 . S
C51 O57 1.249 . S
O52 C34 1.254 . S
O52 Zn49 2.025 . S
H53 C45 0.952 . S
H54 C36 0.952 . S
H55 C44 0.948 . S
O56 Zn41 2.034 . S
O56 C51 1.246 . S
O57 Zn49 2.024 . S
O57 C51 1.249 . S
H58 C40 0.948 . S
O59 Zn49 2.039 . S
O59 C63 1.251 . S
O60 Zn41 2.025 . S
O60 C63 1.254 . S
O61 C42 1.246 . S
O61 Zn49 2.034 . S
O62 Zn41 2.024 . S
O62 C42 1.249 . S
C63 O59 1.251 . S
C63 O60 1.254 . S
H64 C37 0.949 . S
H65 C39 0.950 . S
H66 C46 0.949 . S
H67 C48 0.950 . S
P68 O79 1.490 . S
P68 C82 1.812 1_455 S
P68 C88 1.803 1_545 S
P68 C94 1.819 . S
H69 C83 0.941 . S
H70 C84 0.939 . S
H71 C86 0.940 . S
H72 C87 0.940 . S
H73 C89 0.939 . S
H74 C90 0.942 . S
H75 C92 0.940 . S
H76 C93 0.939 . S
H77 C95 0.941 . S
H78 C99 0.939 . S
O79 P68 1.490 . S
H80 C96 0.939 . S
H81 C98 0.940 . S
C82 P68 1.812 1_655 S
C82 C83 1.389 1_655 S
C82 C87 1.391 . S
C83 H69 0.941 . S
C83 C82 1.389 1_455 S
C83 C84 1.397 1_455 S
C84 H70 0.939 . S
C84 C83 1.397 1_655 S
C84 C85 1.378 . S
C85 C84 1.378 . S
C85 C86 1.378 . S
C86 H71 0.940 . S
C86 C85 1.378 . S
C86 C87 1.396 . S
C87 H72 0.940 . S
C87 C82 1.391 . S
C87 C86 1.396 . S
C88 P68 1.803 1_565 S
C88 C89 1.378 . S
C88 C93 1.400 . S
C89 H73 0.939 . S
C89 C88 1.378 . S
C89 C90 1.361 . S
C90 H74 0.942 . S
C90 C89 1.361 . S
C90 C91 1.369 . S
C91 C90 1.369 . S
C91 C92 1.404 . S
C92 H75 0.940 . S
C92 C91 1.404 . S
C92 C93 1.389 . S
C93 H76 0.939 . S
C93 C88 1.400 . S
C93 C92 1.389 . S
C94 P68 1.819 . S
C94 C95 1.391 . S
C94 C99 1.391 1_545 S
C95 H77 0.941 . S
C95 C94 1.391 . S
C95 C96 1.396 . S
C96 H80 0.939 . S
C96 C95 1.396 . S
C96 C97 1.397 . S
C97 C96 1.397 . S
C97 C98 1.385 1_545 S
C98 H81 0.940 . S
C98 C97 1.385 1_565 S
C98 C99 1.388 . S
C99 H78 0.939 . S
C99 C94 1.391 1_565 S
C99 C98 1.388 . S
P100 O111 1.490 . S
P100 C114 1.812 . S
P100 C120 1.803 1_565 S
P100 C126 1.819 . S
H101 C115 0.941 . S
H102 C116 0.939 . S
H103 C118 0.940 . S
H104 C119 0.940 . S
H105 C121 0.939 . S
H106 C122 0.942 . S
H107 C124 0.940 . S
H108 C125 0.939 . S
H109 C127 0.941 . S
H110 C131 0.939 . S
O111 P100 1.490 . S
H112 C128 0.939 . S
H113 C130 0.940 . S
C114 P100 1.812 . S
C114 C115 1.389 . S
C114 C119 1.391 1_455 S
C115 H101 0.941 . S
C115 C114 1.389 . S
C115 C116 1.397 1_455 S
C116 H102 0.939 . S
C116 C115 1.397 1_655 S
C116 C117 1.378 . S
C117 C116 1.378 . S
C117 C118 1.378 . S
C118 H103 0.940 . S
C118 C117 1.378 . S
C118 C119 1.396 . S
C119 H104 0.940 . S
C119 C114 1.391 1_655 S
C119 C118 1.396 . S
C120 P100 1.803 1_545 S
C120 C121 1.378 . S
C120 C125 1.400 . S
C121 H105 0.939 . S
C121 C120 1.378 . S
C121 C122 1.361 . S
C122 H106 0.942 . S
C122 C121 1.361 . S
C122 C123 1.369 . S
C123 C122 1.369 . S
C123 C124 1.404 . S
C124 H107 0.940 . S
C124 C123 1.404 . S
C124 C125 1.389 . S
C125 H108 0.939 . S
C125 C120 1.400 . S
C125 C124 1.389 . S
C126 P100 1.819 . S
C126 C127 1.391 . S
C126 C131 1.391 1_565 S
C127 H109 0.941 . S
C127 C126 1.391 . S
C127 C128 1.396 . S
C128 H112 0.939 . S
C128 C127 1.396 . S
C128 C129 1.397 . S
C129 C128 1.397 . S
C129 C130 1.385 1_565 S
C130 H113 0.940 . S
C130 C129 1.385 1_545 S
C130 C131 1.388 . S
C131 H110 0.939 . S
C131 C126 1.391 1_545 S
C131 C130 1.388 . S
P132 O143 1.490 . S
P132 C146 1.812 . S
P132 C152 1.803 . S
P132 C158 1.819 . S
H133 C147 0.941 . S
H134 C148 0.939 1_554 S
H135 C150 0.940 . S
H136 C151 0.940 . S
H137 C153 0.939 . S
H138 C154 0.942 . S
H139 C156 0.940 . S
H140 C157 0.939 . S
H141 C159 0.941 . S
H142 C163 0.939 . S
O143 P132 1.490 . S
H144 C160 0.939 . S
H145 C162 0.940 . S
C146 P132 1.812 . S
C146 C147 1.389 . S
C146 C151 1.391 . S
C147 H133 0.941 . S
C147 C146 1.389 . S
C147 C148 1.397 . S
C148 H134 0.939 1_556 S
C148 C147 1.397 . S
C148 C149 1.378 . S
C149 C148 1.378 . S
C149 C150 1.378 . S
C150 H135 0.940 . S
C150 C149 1.378 . S
C150 C151 1.396 . S
C151 H136 0.940 . S
C151 C146 1.391 . S
C151 C150 1.396 . S
C152 P132 1.803 . S
C152 C153 1.378 . S
C152 C157 1.400 . S
C153 H137 0.939 . S
C153 C152 1.378 . S
C153 C154 1.361 . S
C154 H138 0.942 . S
C154 C153 1.361 . S
C154 C155 1.369 . S
C155 C154 1.369 . S
C155 C156 1.404 . S
C156 H139 0.940 . S
C156 C155 1.404 . S
C156 C157 1.389 . S
C157 H140 0.939 . S
C157 C152 1.400 . S
C157 C156 1.389 . S
C158 P132 1.819 . S
C158 C159 1.391 . S
C158 C163 1.391 . S
C159 H141 0.941 . S
C159 C158 1.391 . S
C159 C160 1.396 . S
C160 H144 0.939 . S
C160 C159 1.396 . S
C160 C161 1.397 . S
C161 C160 1.397 . S
C161 C162 1.385 . S
C162 H145 0.940 . S
C162 C161 1.385 . S
C162 C163 1.388 . S
C163 H142 0.939 . S
C163 C158 1.391 . S
C163 C162 1.388 . S
P164 O175 1.490 . S
P164 C178 1.812 . S
P164 C184 1.803 . S
P164 C190 1.819 . S
H165 C179 0.941 . S
H166 C180 0.939 . S
H167 C182 0.940 . S
H168 C183 0.940 . S
H169 C185 0.939 . S
H170 C186 0.942 . S
H171 C188 0.940 . S
H172 C189 0.939 . S
H173 C191 0.941 . S
H174 C195 0.939 . S
O175 P164 1.490 . S
H176 C192 0.939 . S
H177 C194 0.940 . S
C178 P164 1.812 . S
C178 C179 1.389 . S
C178 C183 1.391 . S
C179 H165 0.941 . S
C179 C178 1.389 . S
C179 C180 1.397 . S
C180 H166 0.939 . S
C180 C179 1.397 . S
C180 C181 1.378 . S
C181 C180 1.378 . S
C181 C182 1.378 . S
C182 H167 0.940 . S
C182 C181 1.378 . S
C182 C183 1.396 . S
C183 H168 0.940 . S
C183 C178 1.391 . S
C183 C182 1.396 . S
C184 P164 1.803 . S
C184 C185 1.378 . S
C184 C189 1.400 . S
C185 H169 0.939 . S
C185 C184 1.378 . S
C185 C186 1.361 . S
C186 H170 0.942 . S
C186 C185 1.361 . S
C186 C187 1.369 . S
C187 C186 1.369 . S
C187 C188 1.404 . S
C188 H171 0.940 . S
C188 C187 1.404 . S
C188 C189 1.389 . S
C189 H172 0.939 . S
C189 C184 1.400 . S
C189 C188 1.389 . S
C190 P164 1.819 . S
C190 C191 1.391 . S
C190 C195 1.391 . S
C191 H173 0.941 . S
C191 C190 1.391 . S
C191 C192 1.396 . S
C192 H176 0.939 . S
C192 C191 1.396 . S
C192 C193 1.397 . S
C193 C192 1.397 . S
C193 C194 1.385 . S
C194 H177 0.940 . S
C194 C193 1.385 . S
C194 C195 1.388 . S
C195 H174 0.939 . S
C195 C190 1.391 . S
C195 C194 1.388 . S
H196 C208 0.930 . S
H197 C210 0.930 . S
H198 C211 0.930 . S
H199 C215 0.959 . S
H200 C215 0.959 . S
H201 C215 0.961 . S
H202 C216 0.960 . S
H203 C216 0.961 . S
H204 C216 0.959 . S
H205 C219 0.929 . S
H206 C220 0.931 . S
H207 C222 0.930 . S
C208 H196 0.930 . S
C208 C209 1.399 1_556 S
C208 C213 1.399 . S
C209 C208 1.399 1_554 S
C209 C210 1.376 . S
C210 H197 0.930 . S
C210 C209 1.376 . S
C210 C211 1.388 . S
C211 H198 0.930 . S
C211 C210 1.388 . S
C211 C212 1.390 . S
C212 C211 1.390 . S
C212 C213 1.394 1_554 S
C212 C218 1.465 . S
C213 C208 1.399 . S
C213 C212 1.394 1_556 S
C213 C214 1.516 . S
C214 C213 1.516 . S
C214 C215 1.502 . S
C214 C216 1.561 . S
C214 C217 1.511 1_556 S
C215 H199 0.959 . S
C215 H200 0.959 . S
C215 H201 0.961 . S
C215 C214 1.502 . S
C216 H202 0.960 . S
C216 H203 0.961 . S
C216 H204 0.959 . S
C216 C214 1.561 . S
C217 C214 1.511 1_554 S
C217 C218 1.417 . S
C217 C222 1.386 1_554 S
C218 C212 1.465 . S
C218 C217 1.417 . S
C218 C219 1.399 . S
C219 H205 0.929 . S
C219 C218 1.399 . S
C219 C220 1.385 . S
C220 H206 0.931 . S
C220 C219 1.385 . S
C220 C221 1.389 . S
C221 C220 1.389 . S
C221 C222 1.387 1_554 S
C222 H207 0.930 . S
C222 C217 1.386 1_556 S
C222 C221 1.387 1_556 S
H223 C235 0.930 . S
H224 C237 0.930 . S
H225 C238 0.930 . S
H226 C242 0.959 . S
H227 C242 0.959 . S
H228 C242 0.961 . S
H229 C243 0.960 . S
H230 C243 0.961 . S
H231 C243 0.959 . S
H232 C246 0.929 . S
H233 C247 0.931 . S
H234 C249 0.930 . S
C235 H223 0.930 . S
C235 C236 1.399 1_556 S
C235 C240 1.399 . S
C236 C235 1.399 1_554 S
C236 C237 1.376 . S
C237 H224 0.930 . S
C237 C236 1.376 . S
C237 C238 1.388 . S
C238 H225 0.930 . S
C238 C237 1.388 . S
C238 C239 1.390 . S
C239 C238 1.390 . S
C239 C240 1.394 1_554 S
C239 C245 1.465 . S
C240 C235 1.399 . S
C240 C239 1.394 1_556 S
C240 C241 1.516 . S
C241 C240 1.516 . S
C241 C242 1.502 . S
C241 C243 1.561 . S
C241 C244 1.526 . S
C242 H226 0.959 . S
C242 H227 0.959 . S
C242 H228 0.961 . S
C242 C241 1.502 . S
C243 H229 0.960 . S
C243 H230 0.961 . S
C243 H231 0.959 . S
C243 C241 1.561 . S
C244 C241 1.526 . S
C244 C245 1.396 1_556 S
C244 C249 1.390 . S
C245 C239 1.465 . S
C245 C244 1.396 1_554 S
C245 C246 1.399 . S
C246 H232 0.929 . S
C246 C245 1.399 . S
C246 C247 1.385 . S
C247 H233 0.931 . S
C247 C246 1.385 . S
C247 C248 1.389 1_554 S
C248 C247 1.389 1_556 S
C248 C249 1.387 . S
C249 H234 0.930 . S
C249 C244 1.390 . S
C249 C248 1.387 . S
H250 C262 0.930 . S
H251 C264 0.930 . S
H252 C265 0.930 . S
H253 C269 0.959 . S
H254 C269 0.959 . S
H255 C269 0.961 . S
H256 C270 0.960 . S
H257 C270 0.961 . S
H258 C270 0.959 . S
H259 C273 0.929 . S
H260 C274 0.931 . S
H261 C276 0.930 . S
C262 H250 0.930 . S
C262 C263 1.399 . S
C262 C267 1.399 . S
C263 C262 1.399 . S
C263 C264 1.376 1_554 S
C264 H251 0.930 . S
C264 C263 1.376 1_556 S
C264 C265 1.388 . S
C265 H252 0.930 . S
C265 C264 1.388 . S
C265 C266 1.390 . S
C266 C265 1.390 . S
C266 C267 1.394 1_556 S
C266 C272 1.467 . S
C267 C262 1.399 . S
C267 C266 1.394 1_554 S
C267 C268 1.516 . S
C268 C267 1.516 . S
C268 C269 1.502 . S
C268 C270 1.561 . S
C268 C271 1.526 . S
C269 H253 0.959 . S
C269 H254 0.959 . S
C269 H255 0.961 . S
C269 C268 1.502 . S
C270 H256 0.960 . S
C270 H257 0.961 . S
C270 H258 0.959 . S
C270 C268 1.561 . S
C271 C268 1.526 . S
C271 C272 1.381 1_554 S
C271 C276 1.390 . S
C272 C266 1.467 . S
C272 C271 1.381 1_556 S
C272 C273 1.409 . S
C273 H259 0.929 . S
C273 C272 1.409 . S
C273 C274 1.385 . S
C274 H260 0.931 . S
C274 C273 1.385 . S
C274 C275 1.389 1_556 S
C275 C274 1.389 1_554 S
C275 C276 1.387 . S
C276 H261 0.930 . S
C276 C271 1.390 . S
C276 C275 1.387 . S
H277 C289 0.930 . S
H278 C291 0.930 . S
H279 C292 0.930 . S
H280 C296 0.959 . S
H281 C296 0.959 . S
H282 C296 0.961 . S
H283 C297 0.960 . S
H284 C297 0.961 . S
H285 C297 0.959 . S
H286 C300 0.929 . S
H287 C301 0.931 . S
H288 C303 0.930 . S
C289 H277 0.930 . S
C289 C290 1.399 1_556 S
C289 C294 1.399 . S
C290 C289 1.399 1_554 S
C290 C291 1.376 . S
C291 H278 0.930 . S
C291 C290 1.376 . S
C291 C292 1.388 . S
C292 H279 0.930 . S
C292 C291 1.388 . S
C292 C293 1.390 . S
C293 C292 1.390 . S
C293 C294 1.394 1_554 S
C293 C299 1.465 . S
C294 C289 1.399 . S
C294 C293 1.394 1_556 S
C294 C295 1.516 . S
C295 C294 1.516 . S
C295 C296 1.502 . S
C295 C297 1.561 . S
C295 C298 1.526 . S
C296 H280 0.959 . S
C296 H281 0.959 . S
C296 H282 0.961 . S
C296 C295 1.502 . S
C297 H283 0.960 . S
C297 H284 0.961 . S
C297 H285 0.959 . S
C297 C295 1.561 . S
C298 C295 1.526 . S
C298 C299 1.396 1_556 S
C298 C303 1.390 . S
C299 C293 1.465 . S
C299 C298 1.396 1_554 S
C299 C300 1.399 . S
C300 H286 0.929 . S
C300 C299 1.399 . S
C300 C301 1.385 . S
C301 H287 0.931 . S
C301 C300 1.385 . S
C301 C302 1.389 . S
C302 C301 1.389 . S
C302 C303 1.387 1_554 S
C303 H288 0.930 . S
C303 C298 1.390 . S
C303 C302 1.387 1_556 S
H304 C316 0.930 . S
H305 C318 0.930 . S
H306 C319 0.930 . S
H307 C323 0.959 . S
H308 C323 0.959 . S
H309 C323 0.961 . S
H310 C324 0.960 . S
H311 C324 0.961 . S
H312 C324 0.959 . S
H313 C327 0.929 . S
H314 C328 0.931 . S
H315 C330 0.930 . S
C316 H304 0.930 . S
C316 C317 1.399 . S
C316 C321 1.399 . S
C317 C316 1.399 . S
C317 C318 1.376 . S
C318 H305 0.930 . S
C318 C317 1.376 . S
C318 C319 1.388 . S
C319 H306 0.930 . S
C319 C318 1.388 . S
C319 C320 1.390 . S
C320 C319 1.390 . S
C320 C321 1.394 . S
C320 C326 1.465 . S
C321 C316 1.399 . S
C321 C320 1.394 . S
C321 C322 1.516 . S
C322 C321 1.516 . S
C322 C323 1.502 . S
C322 C324 1.561 . S
C322 C325 1.526 . S
C323 H307 0.959 . S
C323 H308 0.959 . S
C323 H309 0.961 . S
C323 C322 1.502 . S
C324 H310 0.960 . S
C324 H311 0.961 . S
C324 H312 0.959 . S
C324 C322 1.561 . S
C325 C322 1.526 . S
C325 C326 1.396 . S
C325 C330 1.390 . S
C326 C320 1.465 . S
C326 C325 1.396 . S
C326 C327 1.399 . S
C327 H313 0.929 . S
C327 C326 1.399 . S
C327 C328 1.385 . S
C328 H314 0.931 . S
C328 C327 1.385 . S
C328 C329 1.389 . S
C329 C328 1.389 . S
C329 C330 1.387 . S
C330 H315 0.930 . S
C330 C325 1.390 . S
C330 C329 1.387 . S
H331 C343 0.930 . S
H332 C345 0.930 . S
H333 C346 0.930 . S
H334 C350 0.959 . S
H335 C350 0.959 . S
H336 C350 0.961 . S
H337 C351 0.960 . S
H338 C351 0.961 . S
H339 C351 0.959 . S
H340 C354 0.929 . S
H341 C355 0.931 . S
H342 C357 0.930 . S
C343 H331 0.930 . S
C343 C344 1.399 . S
C343 C348 1.399 . S
C344 C343 1.399 . S
C344 C345 1.376 . S
C345 H332 0.930 . S
C345 C344 1.376 . S
C345 C346 1.388 . S
C346 H333 0.930 . S
C346 C345 1.388 . S
C346 C347 1.390 . S
C347 C346 1.390 . S
C347 C348 1.394 . S
C347 C353 1.465 . S
C348 C343 1.399 . S
C348 C347 1.394 . S
C348 C349 1.516 . S
C349 C348 1.516 . S
C349 C350 1.502 . S
C349 C351 1.561 . S
C349 C352 1.526 . S
C350 H334 0.959 . S
C350 H335 0.959 . S
C350 H336 0.961 . S
C350 C349 1.502 . S
C351 H337 0.960 . S
C351 H338 0.961 . S
C351 H339 0.959 . S
C351 C349 1.561 . S
C352 C349 1.526 . S
C352 C353 1.396 . S
C352 C357 1.390 . S
C353 C347 1.465 . S
C353 C352 1.396 . S
C353 C354 1.399 . S
C354 H340 0.929 . S
C354 C353 1.399 . S
C354 C355 1.385 . S
C355 H341 0.931 . S
C355 C354 1.385 . S
C355 C356 1.389 . S
C356 C355 1.389 . S
C356 C357 1.387 . S
C357 H342 0.930 . S
C357 C352 1.390 . S
C357 C356 1.387 . S
H358 C370 0.930 . S
H359 C372 0.930 . S
H360 C373 0.930 . S
H361 C377 0.959 . S
H362 C377 0.959 . S
H363 C377 0.961 . S
H364 C378 0.960 . S
H365 C378 0.961 . S
H366 C378 0.959 . S
H367 C381 0.929 . S
H368 C382 0.931 . S
H369 C384 0.930 . S
C370 H358 0.930 . S
C370 C371 1.399 . S
C370 C375 1.399 . S
C371 C370 1.399 . S
C371 C372 1.376 . S
C372 H359 0.930 . S
C372 C371 1.376 . S
C372 C373 1.388 . S
C373 H360 0.930 . S
C373 C372 1.388 . S
C373 C374 1.390 . S
C374 C373 1.390 . S
C374 C375 1.394 . S
C374 C380 1.465 . S
C375 C370 1.399 . S
C375 C374 1.394 . S
C375 C376 1.516 . S
C376 C375 1.516 . S
C376 C377 1.502 . S
C376 C378 1.561 . S
C376 C379 1.526 . S
C377 H361 0.959 . S
C377 H362 0.959 . S
C377 H363 0.961 . S
C377 C376 1.502 . S
C378 H364 0.960 . S
C378 H365 0.961 . S
C378 H366 0.959 . S
C378 C376 1.561 . S
C379 C376 1.526 . S
C379 C380 1.396 . S
C379 C384 1.390 . S
C380 C374 1.465 . S
C380 C379 1.396 . S
C380 C381 1.399 . S
C381 H367 0.929 . S
C381 C380 1.399 . S
C381 C382 1.385 . S
C382 H368 0.931 . S
C382 C381 1.385 . S
C382 C383 1.389 . S
C383 C382 1.389 . S
C383 C384 1.387 . S
C384 H369 0.930 . S
C384 C379 1.390 . S
C384 C383 1.387 . S
H385 C397 0.930 . S
H386 C399 0.930 . S
H387 C400 0.930 . S
H388 C404 0.959 . S
H389 C404 0.959 . S
H390 C404 0.961 . S
H391 C405 0.960 . S
H392 C405 0.961 . S
H393 C405 0.959 . S
H394 C408 0.929 . S
H395 C409 0.931 . S
H396 C411 0.930 . S
C397 H385 0.930 . S
C397 C398 1.399 . S
C397 C402 1.399 . S
C398 C397 1.399 . S
C398 C399 1.376 . S
C399 H386 0.930 . S
C399 C398 1.376 . S
C399 C400 1.388 . S
C400 H387 0.930 . S
C400 C399 1.388 . S
C400 C401 1.390 . S
C401 C400 1.390 . S
C401 C402 1.394 . S
C401 C407 1.465 . S
C402 C397 1.399 . S
C402 C401 1.394 . S
C402 C403 1.516 . S
C403 C402 1.516 . S
C403 C404 1.502 . S
C403 C405 1.561 . S
C403 C406 1.526 . S
C404 H388 0.959 . S
C404 H389 0.959 . S
C404 H390 0.961 . S
C404 C403 1.502 . S
C405 H391 0.960 . S
C405 H392 0.961 . S
C405 H393 0.959 . S
C405 C403 1.561 . S
C406 C403 1.526 . S
C406 C407 1.396 . S
C406 C411 1.390 . S
C407 C401 1.465 . S
C407 C406 1.396 . S
C407 C408 1.399 . S
C408 H394 0.929 . S
C408 C407 1.399 . S
C408 C409 1.385 . S
C409 H395 0.931 . S
C409 C408 1.385 . S
C409 C410 1.389 . S
C410 C409 1.389 . S
C410 C411 1.387 . S
C411 H396 0.930 . S
C411 C406 1.390 . S
C411 C410 1.387 . S
H412 C424 0.930 . S
H413 C426 0.930 . S
H414 C427 0.930 . S
H415 C431 0.959 . S
H416 C431 0.959 . S
H417 C431 0.961 . S
H418 C432 0.960 . S
H419 C432 0.961 . S
H420 C432 0.959 . S
H421 C435 0.929 . S
H422 C436 0.931 . S
H423 C438 0.930 . S
C424 H412 0.930 . S
C424 C425 1.399 1_665 S
C424 C429 1.399 . S
C425 C424 1.399 1_445 S
C425 C426 1.376 . S
C426 H413 0.930 . S
C426 C425 1.376 . S
C426 C427 1.388 . S
C427 H414 0.930 . S
C427 C426 1.388 . S
C427 C428 1.390 . S
C428 C427 1.390 . S
C428 C429 1.394 1_445 S
C428 C434 1.465 . S
C429 C424 1.399 . S
C429 C428 1.394 1_665 S
C429 C430 1.516 . S
C430 C429 1.516 . S
C430 C431 1.502 . S
C430 C432 1.561 1_655 S
C430 C433 1.526 . S
C431 H415 0.959 . S
C431 H416 0.959 . S
C431 H417 0.961 . S
C431 C430 1.502 . S
C432 H418 0.960 . S
C432 H419 0.961 . S
C432 H420 0.959 . S
C432 C430 1.561 1_455 S
C433 C430 1.526 . S
C433 C434 1.396 1_665 S
C433 C438 1.390 . S
C434 C428 1.465 . S
C434 C433 1.396 1_445 S
C434 C435 1.399 . S
C435 H421 0.929 . S
C435 C434 1.399 . S
C435 C436 1.385 . S
C436 H422 0.931 . S
C436 C435 1.385 . S
C436 C437 1.396 . S
C437 C436 1.396 . S
C437 C438 1.384 1_445 S
C438 H423 0.930 . S
C438 C433 1.390 . S
C438 C437 1.384 1_665 S
H439 C451 0.930 1_655 S
H440 C453 0.930 . S
H441 C454 0.930 . S
H442 C458 0.959 . S
H443 C458 0.959 . S
H444 C458 0.961 . S
H445 C459 0.960 . S
H446 C459 0.961 . S
H447 C459 0.959 . S
H448 C462 0.929 . S
H449 C463 0.931 . S
H450 C465 0.930 1_655 S
C451 H439 0.930 1_455 S
C451 C452 1.399 . S
C451 C456 1.399 . S
C452 C451 1.399 . S
C452 C453 1.376 1_545 S
C453 H440 0.930 . S
C453 C452 1.376 1_565 S
C453 C454 1.388 . S
C454 H441 0.930 . S
C454 C453 1.388 . S
C454 C455 1.390 . S
C455 C454 1.390 . S
C455 C456 1.394 1_565 S
C455 C461 1.465 . S
C456 C451 1.399 . S
C456 C455 1.394 1_545 S
C456 C457 1.514 1_455 S
C457 C456 1.514 1_655 S
C457 C458 1.515 . S
C457 C459 1.551 1_655 S
C457 C460 1.523 1_655 S
C458 H442 0.959 . S
C458 H443 0.959 . S
C458 H444 0.961 . S
C458 C457 1.515 . S
C459 H445 0.960 . S
C459 H446 0.961 . S
C459 H447 0.959 . S
C459 C457 1.551 1_455 S
C460 C457 1.523 1_455 S
C460 C461 1.396 1_545 S
C460 C465 1.390 . S
C461 C455 1.465 . S
C461 C460 1.396 1_565 S
C461 C462 1.399 . S
C462 H448 0.929 . S
C462 C461 1.399 . S
C462 C463 1.385 . S
C463 H449 0.931 . S
C463 C462 1.385 . S
C463 C464 1.398 . S
C464 C463 1.398 . S
C464 C465 1.380 1_565 S
C465 H450 0.930 1_455 S
C465 C460 1.390 . S
C465 C464 1.380 1_545 S
H466 C478 0.930 . S
H467 C480 0.930 . S
H468 C481 0.930 . S
H469 C485 0.959 . S
H470 C485 0.959 . S
H471 C485 0.961 . S
H472 C486 0.960 . S
H473 C486 0.961 . S
H474 C486 0.959 . S
H475 C489 0.929 . S
H476 C490 0.931 . S
H477 C492 0.930 . S
C478 H466 0.930 . S
C478 C479 1.399 . S
C478 C483 1.399 . S
C479 C478 1.399 . S
C479 C480 1.376 . S
C480 H467 0.930 . S
C480 C479 1.376 . S
C480 C481 1.388 . S
C481 H468 0.930 . S
C481 C480 1.388 . S
C481 C482 1.390 . S
C482 C481 1.390 . S
C482 C483 1.394 . S
C482 C488 1.465 . S
C483 C478 1.399 . S
C483 C482 1.394 . S
C483 C484 1.516 . S
C484 C483 1.516 . S
C484 C485 1.502 . S
C484 C486 1.561 . S
C484 C487 1.526 . S
C485 H469 0.959 . S
C485 H470 0.959 . S
C485 H471 0.961 . S
C485 C484 1.502 . S
C486 H472 0.960 . S
C486 H473 0.961 . S
C486 H474 0.959 . S
C486 C484 1.561 . S
C487 C484 1.526 . S
C487 C488 1.396 . S
C487 C492 1.390 . S
C488 C482 1.465 . S
C488 C487 1.396 . S
C488 C489 1.399 . S
C489 H475 0.929 . S
C489 C488 1.399 . S
C489 C490 1.385 . S
C490 H476 0.931 . S
C490 C489 1.385 . S
C490 C491 1.389 . S
C491 C490 1.389 . S
C491 C492 1.387 . S
C492 H477 0.930 . S
C492 C487 1.390 . S
C492 C491 1.387 . S
H493 C505 0.930 . S
H494 C507 0.930 . S
H495 C508 0.930 . S
H496 C512 0.959 . S
H497 C512 0.959 . S
H498 C512 0.961 . S
H499 C513 0.960 . S
H500 C513 0.961 . S
H501 C513 0.959 . S
H502 C516 0.929 . S
H503 C517 0.931 . S
H504 C519 0.930 . S
C505 H493 0.930 . S
C505 C506 1.399 . S
C505 C510 1.399 . S
C506 C505 1.399 . S
C506 C507 1.376 . S
C507 H494 0.930 . S
C507 C506 1.376 . S
C507 C508 1.388 . S
C508 H495 0.930 . S
C508 C507 1.388 . S
C508 C509 1.390 . S
C509 C508 1.390 . S
C509 C510 1.394 . S
C509 C515 1.465 . S
C510 C505 1.399 . S
C510 C509 1.394 . S
C510 C511 1.516 . S
C511 C510 1.516 . S
C511 C512 1.502 . S
C511 C513 1.561 . S
C511 C514 1.526 . S
C512 H496 0.959 . S
C512 H497 0.959 . S
C512 H498 0.961 . S
C512 C511 1.502 . S
C513 H499 0.960 . S
C513 H500 0.961 . S
C513 H501 0.959 . S
C513 C511 1.561 . S
C514 C511 1.526 . S
C514 C515 1.396 . S
C514 C519 1.390 . S
C515 C509 1.465 . S
C515 C514 1.396 . S
C515 C516 1.399 . S
C516 H502 0.929 . S
C516 C515 1.399 . S
C516 C517 1.385 . S
C517 H503 0.931 . S
C517 C516 1.385 . S
C517 C518 1.389 . S
C518 C517 1.389 . S
C518 C519 1.387 . S
C519 H504 0.930 . S
C519 C514 1.390 . S
C519 C518 1.387 . S
C221 C181 1.394 . S
C209 C29 1.443 . S
C236 C8 1.431 . S
C248 C149 1.387 . S
C263 C0 1.436 . S
C275 C187 1.415 . S
C290 C17 1.437 . S
C302 C155 1.430 1_554 S
C317 C63 1.442 . S
C329 C117 1.390 . S
C344 C42 1.438 . S
C356 C85 1.380 . S
C383 C123 1.425 . S
C371 C34 1.436 . S
C410 C91 1.353 . S
C398 C51 1.440 . S
C425 C4 1.474 . S
C437 C97 1.424 . S
C452 C13 1.478 . S
C464 C129 1.426 . S
C491 C161 1.479 . S
C479 C38 1.488 . S
C506 C47 1.480 . S
C518 C193 1.423 . S
