# Generated by pormake.
# Topology pyr, (3,6)-cn, num edge types: 1
# Building blocks:
#     Node 0, Type 0, BuildingBlock: BETDIP_clean_linker_0, # of connection points: 3
#     Node 1, Type 0, BuildingBlock: BETDIP_clean_linker_0, # of connection points: 3
#     Node 2, Type 0, BuildingBlock: BETDIP_clean_linker_0, # of connection points: 3
#     Node 3, Type 0, BuildingBlock: BETDIP_clean_linker_0, # of connection points: 3
#     Node 4, Type 0, BuildingBlock: BETDIP_clean_linker_0, # of connection points: 3
#     Node 5, Type 0, BuildingBlock: BETDIP_clean_linker_0, # of connection points: 3
#     Node 6, Type 0, BuildingBlock: BETDIP_clean_linker_0, # of connection points: 3
#     Node 7, Type 0, BuildingBlock: BETDIP_clean_linker_0, # of connection points: 3
#     Node 8, Type 1, BuildingBlock: MIFKUJ_clean_sbu_0, # of connection points: 6
#     Node 9, Type 1, BuildingBlock: MIFKUJ_clean_sbu_0, # of connection points: 6
#     Node 10, Type 1, BuildingBlock: MIFKUJ_clean_sbu_0, # of connection points: 6
#     Node 11, Type 1, BuildingBlock: MIFKUJ_clean_sbu_0, # of connection points: 6
#     Edge 12, Type (0, 1), BuildingBlock: CIFDUS_clean_linker_0, # of connection points: 2
#     Edge 13, Type (0, 1), BuildingBlock: CIFDUS_clean_linker_0, # of connection points: 2
#     Edge 14, Type (0, 1), BuildingBlock: CIFDUS_clean_linker_0, # of connection points: 2
#     Edge 15, Type (0, 1), BuildingBlock: CIFDUS_clean_linker_0, # of connection points: 2
#     Edge 16, Type (0, 1), BuildingBlock: CIFDUS_clean_linker_0, # of connection points: 2
#     Edge 17, Type (0, 1), BuildingBlock: CIFDUS_clean_linker_0, # of connection points: 2
#     Edge 18, Type (0, 1), BuildingBlock: CIFDUS_clean_linker_0, # of connection points: 2
#     Edge 19, Type (0, 1), BuildingBlock: CIFDUS_clean_linker_0, # of connection points: 2
#     Edge 20, Type (0, 1), BuildingBlock: CIFDUS_clean_linker_0, # of connection points: 2
#     Edge 21, Type (0, 1), BuildingBlock: CIFDUS_clean_linker_0, # of connection points: 2
#     Edge 22, Type (0, 1), BuildingBlock: CIFDUS_clean_linker_0, # of connection points: 2
#     Edge 23, Type (0, 1), BuildingBlock: CIFDUS_clean_linker_0, # of connection points: 2
#     Edge 24, Type (0, 1), BuildingBlock: CIFDUS_clean_linker_0, # of connection points: 2
#     Edge 25, Type (0, 1), BuildingBlock: CIFDUS_clean_linker_0, # of connection points: 2
#     Edge 26, Type (0, 1), BuildingBlock: CIFDUS_clean_linker_0, # of connection points: 2
#     Edge 27, Type (0, 1), BuildingBlock: CIFDUS_clean_linker_0, # of connection points: 2
#     Edge 28, Type (0, 1), BuildingBlock: CIFDUS_clean_linker_0, # of connection points: 2
#     Edge 29, Type (0, 1), BuildingBlock: CIFDUS_clean_linker_0, # of connection points: 2
#     Edge 30, Type (0, 1), BuildingBlock: CIFDUS_clean_linker_0, # of connection points: 2
#     Edge 31, Type (0, 1), BuildingBlock: CIFDUS_clean_linker_0, # of connection points: 2
#     Edge 32, Type (0, 1), BuildingBlock: CIFDUS_clean_linker_0, # of connection points: 2
#     Edge 33, Type (0, 1), BuildingBlock: CIFDUS_clean_linker_0, # of connection points: 2
#     Edge 34, Type (0, 1), BuildingBlock: CIFDUS_clean_linker_0, # of connection points: 2
#     Edge 35, Type (0, 1), BuildingBlock: CIFDUS_clean_linker_0, # of connection points: 2
# Relax obj value: 0.060
# Max RMSD: 0.188
# Mean RMSD: 0.127
data_MOF--net-pyr--node1-MIFKUJ_clean_sbu_0--node2-BETDIP_clean_linker_0--edge1-CIFDUS_clean_linker_0
_symmetry_space_group_name_H-M    P1
_symmetry_Int_Tables_number       1
_symmetry_cell_setting            triclinic
loop_
_symmetry_equiv_pos_as_xyz
'x, y, z'
_cell_length_a     34.358702
_cell_length_b     30.179013
_cell_length_c     34.065103
_cell_angle_alpha  88.52371
_cell_angle_beta   83.893569
_cell_angle_gamma 103.79765
loop_
_atom_site_label
_atom_site_type_symbol
_atom_site_fract_x
_atom_site_fract_y
_atom_site_fract_z
_atom_type_partial_charge
H0 H 0.12415 0.15867 0.23587 0.0
H1 H 0.21098 0.15772 0.13535 0.0
H2 H 0.20439 0.06875 0.23711 0.0
H3 H 0.19129 0.21515 0.11112 0.0
C4 C 0.16497 0.22087 0.12881 0.0
C5 C 0.14878 0.14576 0.22194 0.0
C6 C 0.16211 0.11163 0.24157 0.0
C7 C 0.16622 0.16309 0.18396 0.0
C8 C 0.19746 0.14571 0.16497 0.0
C9 C 0.2107 0.11109 0.18395 0.0
C10 C 0.1932 0.09456 0.22223 0.0
N11 N 0.15055 0.19714 0.16604 0.0
H12 H 0.33323 0.89637 0.73879 0.0
H13 H 0.33548 0.8159 0.63652 0.0
H14 H 0.40103 0.79333 0.73256 0.0
H15 H 0.32137 0.87685 0.60682 0.0
C16 C 0.29939 0.88529 0.62886 0.0
C17 C 0.34393 0.87016 0.72282 0.0
C18 C 0.36895 0.84639 0.74004 0.0
C19 C 0.33192 0.8597 0.68534 0.0
C20 C 0.34508 0.82486 0.66509 0.0
C21 C 0.37025 0.80084 0.68174 0.0
C22 C 0.38201 0.81195 0.71922 0.0
N23 N 0.30501 0.88301 0.66963 0.0
H24 H 0.7183 0.3974 0.7971 0.0
H25 H 0.60796 0.29311 0.81991 0.0
H26 H 0.70013 0.30145 0.89714 0.0
H27 H 0.61127 0.30026 0.75239 0.0
C28 C 0.62112 0.33706 0.74683 0.0
C29 C 0.69997 0.36804 0.81492 0.0
C30 C 0.71406 0.35206 0.84847 0.0
C31 C 0.66233 0.34644 0.80389 0.0
C32 C 0.63763 0.30938 0.82751 0.0
C33 C 0.65116 0.29304 0.86117 0.0
C34 C 0.68949 0.31431 0.87134 0.0
N35 N 0.64988 0.36344 0.76933 0.0
H36 H 0.8031 0.62762 0.2936 0.0
H37 H 0.89398 0.75457 0.278 0.0
H38 H 0.80178 0.7318 0.3771 0.0
H39 H 0.81386 0.64058 0.22145 0.0
C40 C 0.84634 0.64523 0.22019 0.0
C41 C 0.81572 0.66147 0.30314 0.0
C42 C 0.79864 0.67601 0.33832 0.0
C43 C 0.85004 0.68984 0.28115 0.0
C44 C 0.86746 0.73272 0.29477 0.0
C45 C 0.8496 0.74813 0.32901 0.0
C46 C 0.81546 0.71966 0.35063 0.0
N47 N 0.86826 0.67525 0.24605 0.0
H48 H 0.7457 0.78825 0.84831 0.0
H49 H 0.84593 0.805 0.75804 0.0
H50 H 0.76321 0.89082 0.75357 0.0
H51 H 0.84836 0.73649 0.78037 0.0
C52 C 0.84077 0.73719 0.81207 0.0
C53 C 0.76243 0.80543 0.82117 0.0
C54 C 0.74948 0.84038 0.80223 0.0
C55 C 0.79705 0.79236 0.80549 0.0
C56 C 0.81894 0.81446 0.77027 0.0
C57 C 0.80679 0.84981 0.75104 0.0
C58 C 0.77193 0.86241 0.76725 0.0
N59 N 0.81059 0.75923 0.82726 0.0
H60 H 0.69614 0.12737 0.30026 0.0
H61 H 0.69274 0.22027 0.3935 0.0
H62 H 0.61096 0.2114 0.3052 0.0
H63 H 0.75939 0.21728 0.39196 0.0
C64 C 0.75786 0.18135 0.38788 0.0
C65 C 0.68321 0.15317 0.31441 0.0
C66 C 0.65231 0.16793 0.29806 0.0
C67 C 0.69854 0.17242 0.34832 0.0
C68 C 0.68167 0.20584 0.36689 0.0
C69 C 0.65007 0.22036 0.35139 0.0
C70 C 0.63588 0.2013 0.31687 0.0
N71 N 0.73006 0.15641 0.3635 0.0
H72 H 0.30239 0.59457 0.24988 0.0
H73 H 0.40378 0.71065 0.24699 0.0
H74 H 0.3141 0.70987 0.16855 0.0
H75 H 0.40422 0.68525 0.30962 0.0
C76 C 0.39533 0.64825 0.30921 0.0
C77 C 0.31821 0.6285 0.238 0.0
C78 C 0.3036 0.64951 0.20737 0.0
C79 C 0.35355 0.65058 0.2533 0.0
C80 C 0.37531 0.69396 0.23703 0.0
C81 C 0.36136 0.71493 0.20596 0.0
C82 C 0.32527 0.69291 0.19183 0.0
N83 N 0.36721 0.62708 0.28367 0.0
H84 H 0.12715 0.28211 0.73756 0.0
H85 H 0.23227 0.3863 0.75475 0.0
H86 H 0.23961 0.29 0.66536 0.0
H87 H 0.19889 0.39075 0.81415 0.0
C88 C 0.16725 0.38209 0.8095 0.0
C89 C 0.15906 0.29745 0.72998 0.0
C90 C 0.18099 0.28139 0.69864 0.0
C91 C 0.17747 0.33427 0.75112 0.0
C92 C 0.21832 0.35612 0.74025 0.0
C93 C 0.24084 0.34065 0.70893 0.0
C94 C 0.22208 0.3028 0.6888 0.0
N95 N 0.15305 0.35022 0.78116 0.0
Zn96 Zn 0.05566 0.00356 0.53542 0.0
Zn97 Zn 0.97578 0.03186 0.49815 0.0
C98 C 0.10189 0.09329 0.54648 0.0
O99 O 0.124 0.08405 0.51532 0.0
C100 C 0.93572 0.96386 0.44912 0.0
O101 O 0.90658 0.98444 0.45809 0.0
O102 O 0.09965 0.97363 0.54949 0.0
O103 O 0.00399 0.96704 0.56465 0.0
O104 O 0.95897 0.00704 0.55475 0.0
C105 C 0.10381 0.97098 0.58612 0.0
O106 O 0.07891 0.98583 0.61152 0.0
O107 O 0.06942 0.06448 0.55969 0.0
C108 C 0.94135 0.11059 0.47882 0.0
O109 O 0.97591 0.13691 0.48613 0.0
O110 O 0.93564 0.06745 0.48304 0.0
O111 O 0.03183 0.07122 0.48229 0.0
O112 O 0.0595 0.01282 0.47633 0.0
O113 O 0.96888 0.97742 0.46362 0.0
C114 C 0.97036 0.9768 0.57426 0.0
C115 C 0.05496 0.05057 0.46259 0.0
Zn116 Zn 0.52804 0.96769 0.98447 0.0
Zn117 Zn 0.49002 0.03656 0.06469 0.0
C118 C 0.47115 0.93031 0.9333 0.0
O119 O 0.47402 0.89421 0.95413 0.0
C120 C 0.5452 0.10338 0.10339 0.0
O121 O 0.534 0.13095 0.07881 0.0
O122 O 0.56992 0.93593 0.96213 0.0
O123 O 0.55948 0.02952 0.99702 0.0
O124 O 0.51159 0.06572 0.0097 0.0
C125 C 0.58125 0.93906 0.92522 0.0
O126 O 0.56533 0.96332 0.9018 0.0
O127 O 0.4912 0.96945 0.9417 0.0
C128 C 0.40642 0.03907 0.08655 0.0
O129 O 0.39891 0.99547 0.07937 0.0
O130 O 0.44266 0.06276 0.08207 0.0
O131 O 0.47205 0.96769 0.07579 0.0
O132 O 0.49659 0.92771 0.02975 0.0
O133 O 0.53128 0.06053 0.10201 0.0
C134 C 0.54514 0.06372 0.99115 0.0
C135 C 0.47588 0.9298 0.06244 0.0
Zn136 Zn 0.53379 0.47266 0.49922 0.0
Zn137 Zn 0.51548 0.54873 0.55519 0.0
C138 C 0.58931 0.51724 0.43791 0.0
O139 O 0.55936 0.49404 0.42013 0.0
C140 C 0.45311 0.48795 0.60511 0.0
O141 O 0.47562 0.50808 0.63149 0.0
O142 O 0.53677 0.41319 0.47343 0.0
O143 O 0.53397 0.45979 0.55806 0.0
O144 O 0.56093 0.52877 0.5761 0.0
C145 C 0.55897 0.39057 0.48851 0.0
O146 O 0.57544 0.40488 0.52037 0.0
O147 O 0.58613 0.51483 0.47554 0.0
C148 C 0.47165 0.61323 0.57957 0.0
O149 O 0.44746 0.58851 0.55668 0.0
O150 O 0.505 0.60333 0.58389 0.0
O151 O 0.52301 0.56688 0.49793 0.0
O152 O 0.4901 0.50027 0.4797 0.0
O153 O 0.46453 0.49885 0.56866 0.0
C154 C 0.55542 0.48577 0.5805 0.0
C155 C 0.49912 0.54378 0.47586 0.0
Zn156 Zn 0.96985 0.53811 0.98008 0.0
Zn157 Zn 0.06125 0.50403 0.04297 0.0
C158 C 0.91134 0.48599 0.93811 0.0
O159 O 0.938 0.50834 0.90947 0.0
C160 C 0.11907 0.54041 0.08873 0.0
O161 O 0.09166 0.51037 0.11186 0.0
O162 O 0.96023 0.59778 0.96194 0.0
O163 O 0.98149 0.53613 0.03828 0.0
O164 O 0.01916 0.51876 0.0825 0.0
C165 C 0.92905 0.61021 0.97612 0.0
O166 O 0.90661 0.58733 0.00716 0.0
O167 O 0.91841 0.49203 0.9737 0.0
C168 C 0.10162 0.43362 0.0353 0.0
O169 O 0.12745 0.46753 0.01478 0.0
O170 O 0.06803 0.43988 0.05056 0.0
O171 O 0.04189 0.51506 0.99228 0.0
O172 O 0.01327 0.52369 0.94045 0.0
O173 O 0.11332 0.54635 0.0529 0.0
C174 C 0.98951 0.53438 0.074 0.0
C175 C 0.04227 0.51328 0.95531 0.0
H176 H 0.13678 0.1588 0.30255 0.0
H177 H 0.14467 0.02309 0.27141 0.0
H178 H 0.11422 0.99298 0.33751 0.0
H179 H 0.08381 0.00457 0.40361 0.0
H180 H 0.07125 0.13893 0.43347 0.0
H181 H 0.10439 0.17001 0.36808 0.0
C182 C 0.13142 0.12253 0.30999 0.0
C183 C 0.14325 0.09339 0.28193 0.0
C184 C 0.11293 0.10514 0.34779 0.0
C185 C 0.13665 0.04658 0.29251 0.0
C186 C 0.11891 0.02919 0.33025 0.0
C187 C 0.0885 0.0407 0.39586 0.0
C188 C 0.07527 0.06946 0.4233 0.0
C189 C 0.10688 0.05812 0.35807 0.0
C190 C 0.08109 0.11609 0.41274 0.0
C191 C 0.10008 0.13387 0.37542 0.0
H192 H 0.40145 0.92942 0.76844 0.0
H193 H 0.36385 0.7853 0.80139 0.0
H194 H 0.38944 0.79928 0.8652 0.0
H195 H 0.42637 0.85124 0.90964 0.0
H196 H 0.46644 0.99539 0.87709 0.0
H197 H 0.43555 0.98276 0.81544 0.0
C198 C 0.39841 0.90127 0.78989 0.0
C199 C 0.38111 0.85633 0.7801 0.0
C200 C 0.41377 0.90951 0.82648 0.0
C201 C 0.37754 0.82009 0.80804 0.0
C202 C 0.39209 0.82806 0.84455 0.0
C203 C 0.42813 0.88008 0.8893 0.0
C204 C 0.44896 0.92417 0.89795 0.0
C205 C 0.41093 0.87246 0.85376 0.0
C206 C 0.45065 0.96107 0.87121 0.0
C207 C 0.4331 0.95383 0.83587 0.0
H208 H 0.63632 0.4279 0.72511 0.0
H209 H 0.57283 0.2941 0.69485 0.0
H210 H 0.54712 0.32826 0.64029 0.0
H211 H 0.54211 0.39585 0.60206 0.0
H212 H 0.60509 0.52998 0.63243 0.0
H213 H 0.63154 0.49583 0.68639 0.0
C214 C 0.61695 0.40621 0.70653 0.0
C215 C 0.60643 0.35853 0.71384 0.0
C216 C 0.60215 0.4261 0.67543 0.0
C217 C 0.58123 0.3309 0.68965 0.0
C218 C 0.56655 0.35038 0.65854 0.0
C219 C 0.56173 0.41772 0.62034 0.0
C220 C 0.57164 0.46542 0.61315 0.0
C221 C 0.57673 0.39792 0.65126 0.0
C222 C 0.59693 0.49316 0.63733 0.0
C223 C 0.61211 0.47367 0.66817 0.0
H224 H 0.92126 0.63015 0.21879 0.0
H225 H 0.81822 0.60956 0.15344 0.0
H226 H 0.85296 0.57272 0.10205 0.0
H227 H 0.91318 0.54677 0.07576 0.0
H228 H 0.01463 0.56507 0.1434 0.0
H229 H 0.97976 0.60167 0.19413 0.0
C230 C 0.9065 0.61779 0.19321 0.0
C231 C 0.86753 0.62301 0.18948 0.0
C232 C 0.92627 0.59591 0.16438 0.0
C233 C 0.84839 0.60605 0.15665 0.0
C234 C 0.8682 0.58499 0.12736 0.0
C235 C 0.9276 0.55895 0.10154 0.0
C236 C 0.96653 0.55355 0.10559 0.0
C237 C 0.90722 0.57981 0.13087 0.0
C238 C 0.98459 0.5686 0.13959 0.0
C239 C 0.96479 0.58979 0.16856 0.0
H240 H 0.28549 0.1561 0.15055 0.0
H241 H 0.20661 0.02149 0.17305 0.0
H242 H 0.25968 0.98735 0.14315 0.0
H243 H 0.32912 0.99557 0.11302 0.0
H244 H 0.40946 0.12988 0.0932 0.0
H245 H 0.35527 0.16437 0.11951 0.0
C246 C 0.27997 0.11936 0.14847 0.0
C247 C 0.24239 0.09124 0.16386 0.0
C248 C 0.31088 0.09995 0.13195 0.0
C249 C 0.23551 0.04366 0.16152 0.0
C250 C 0.26576 0.02418 0.14444 0.0
C251 C 0.33474 0.03241 0.11421 0.0
C252 C 0.37326 0.06006 0.10117 0.0
C253 C 0.30369 0.05195 0.12994 0.0
C254 C 0.38009 0.10776 0.10317 0.0
C255 C 0.34912 0.12754 0.11818 0.0
H256 H 0.23663 0.90828 0.67357 0.0
H257 H 0.28461 0.89562 0.55329 0.0
H258 H 0.22803 0.91978 0.52899 0.0
H259 H 0.16522 0.9454 0.54191 0.0
H260 H 0.11754 0.95811 0.66243 0.0
H261 H 0.17344 0.93292 0.6865 0.0
C262 C 0.23475 0.9109 0.64205 0.0
C263 C 0.26486 0.90042 0.6152 0.0
C264 C 0.20207 0.92473 0.62829 0.0
C265 C 0.26183 0.90372 0.57449 0.0
C266 C 0.22947 0.91745 0.56058 0.0
C267 C 0.16695 0.94247 0.57343 0.0
C268 C 0.13716 0.95373 0.60024 0.0
C269 C 0.19941 0.92814 0.5872 0.0
C270 C 0.14001 0.94978 0.64103 0.0
C271 C 0.17205 0.93539 0.6549 0.0
H272 H 0.73424 0.37386 0.92194 0.0
H273 H 0.7844 0.38141 0.79958 0.0
H274 H 0.85012 0.42216 0.81688 0.0
H275 H 0.89268 0.45761 0.86624 0.0
H276 H 0.84324 0.44949 0.98885 0.0
H277 H 0.77797 0.40617 0.97203 0.0
C278 C 0.75969 0.3839 0.89915 0.0
C279 C 0.75435 0.37491 0.8595 0.0
C280 C 0.79746 0.40716 0.90933 0.0
C281 C 0.78753 0.38861 0.83023 0.0
C282 C 0.82517 0.41168 0.84011 0.0
C283 C 0.8677 0.44621 0.88935 0.0
C284 C 0.87274 0.45694 0.92869 0.0
C285 C 0.83035 0.42153 0.87948 0.0
C286 C 0.84016 0.44159 0.95833 0.0
C287 C 0.8028 0.41697 0.94872 0.0
H288 H 0.73032 0.6261 0.31249 0.0
H289 H 0.78747 0.6594 0.41827 0.0
H290 H 0.72774 0.61355 0.45867 0.0
H291 H 0.65881 0.56479 0.46399 0.0
H292 H 0.60194 0.53151 0.35788 0.0
H293 H 0.66198 0.57629 0.31769 0.0
C294 C 0.72982 0.62285 0.34434 0.0
C295 C 0.76315 0.64614 0.36237 0.0
C296 C 0.69535 0.59659 0.36739 0.0
C297 C 0.76194 0.64215 0.40374 0.0
C298 C 0.72787 0.61586 0.42685 0.0
C299 C 0.65956 0.56737 0.43209 0.0
C300 C 0.6259 0.54489 0.41406 0.0
C301 C 0.69427 0.59319 0.40902 0.0
C302 C 0.62741 0.54847 0.37263 0.0
C303 C 0.66176 0.57406 0.34953 0.0
H304 H 0.18892 0.2762 0.06293 0.0
H305 H 0.09747 0.24456 0.16343 0.0
H306 H 0.06769 0.30517 0.14131 0.0
H307 H 0.06977 0.37003 0.09541 0.0
H308 H 0.16255 0.40337 0.99608 0.0
H309 H 0.18928 0.33905 0.01541 0.0
C310 C 0.16233 0.2825 0.07978 0.0
C311 C 0.14563 0.25619 0.11477 0.0
C312 C 0.14552 0.31768 0.06708 0.0
C313 C 0.11113 0.2645 0.13644 0.0
C314 C 0.09399 0.29914 0.1238 0.0
C315 C 0.09544 0.36275 0.07768 0.0
C316 C 0.1142 0.39142 0.04446 0.0
C317 C 0.11119 0.32628 0.08941 0.0
C318 C 0.14769 0.38188 0.02194 0.0
C319 C 0.16306 0.34518 0.03299 0.0
H320 H 0.67256 0.21687 0.88458 0.0
H321 H 0.57227 0.28019 0.89145 0.0
H322 H 0.53016 0.21464 0.93224 0.0
H323 H 0.52246 0.13975 0.96673 0.0
H324 H 0.62284 0.076 0.95771 0.0
H325 H 0.66426 0.14127 0.91706 0.0
C326 C 0.64153 0.21631 0.89524 0.0
C327 C 0.62553 0.25325 0.8854 0.0
C328 C 0.61755 0.17848 0.91826 0.0
C329 C 0.58511 0.25195 0.89867 0.0
C330 C 0.56113 0.2146 0.92203 0.0
C331 C 0.55338 0.14014 0.95588 0.0
C332 C 0.56953 0.10313 0.96557 0.0
C333 C 0.57708 0.17771 0.93213 0.0
C334 C 0.60959 0.10403 0.95089 0.0
C335 C 0.63339 0.14139 0.92763 0.0
H336 H 0.92091 0.78195 0.35783 0.0
H337 H 0.81149 0.81646 0.33143 0.0
H338 H 0.83022 0.88843 0.36401 0.0
H339 H 0.87407 0.93745 0.40529 0.0
H340 H 0.98288 0.90303 0.43433 0.0
H341 H 0.96827 0.83519 0.39531 0.0
C342 C 0.90181 0.80589 0.35858 0.0
C343 C 0.86502 0.79441 0.34237 0.0
C344 C 0.91233 0.84668 0.37829 0.0
C345 C 0.84 0.82502 0.34375 0.0
C346 C 0.85058 0.86591 0.36252 0.0
C347 C 0.89476 0.91528 0.40299 0.0
C348 C 0.92916 0.92486 0.42318 0.0
C349 C 0.88605 0.87642 0.38084 0.0
C350 C 0.95598 0.89618 0.41931 0.0
C351 C 0.94764 0.85739 0.39703 0.0
H352 H 0.44459 0.78197 0.67579 0.0
H353 H 0.3254 0.73511 0.64 0.0
H354 H 0.34668 0.67415 0.60461 0.0
H355 H 0.39859 0.63351 0.58441 0.0
H356 H 0.51714 0.67784 0.62208 0.0
H357 H 0.49639 0.73999 0.65666 0.0
C358 C 0.42314 0.75818 0.66057 0.0
C359 C 0.38348 0.76345 0.66043 0.0
C360 C 0.43541 0.72266 0.64068 0.0
C361 C 0.3563 0.73255 0.64005 0.0
C362 C 0.36835 0.6974 0.62001 0.0
C363 C 0.42 0.65679 0.60008 0.0
C364 C 0.45942 0.65106 0.60053 0.0
C365 C 0.4078 0.69216 0.62011 0.0
C366 C 0.48661 0.68143 0.62125 0.0
C367 C 0.47477 0.717 0.64102 0.0
H368 H 0.8887 0.87395 0.73594 0.0
H369 H 0.78062 0.88262 0.6852 0.0
H370 H 0.82158 0.92477 0.62687 0.0
H371 H 0.88842 0.95789 0.58957 0.0
H372 H 0.99547 0.94258 0.63873 0.0
H373 H 0.95445 0.90331 0.69797 0.0
C374 C 0.87389 0.8842 0.7119 0.0
C375 C 0.83153 0.87486 0.71508 0.0
C376 C 0.8975 0.90721 0.67804 0.0
C377 C 0.81317 0.88979 0.68391 0.0
C378 C 0.83656 0.91365 0.65038 0.0
C379 C 0.90265 0.94605 0.61336 0.0
C380 C 0.94487 0.95323 0.60988 0.0
C381 C 0.87878 0.92251 0.64709 0.0
C382 C 0.963 0.93728 0.64066 0.0
C383 C 0.93959 0.91491 0.67458 0.0
H384 H 0.6377 0.21414 0.23406 0.0
H385 H 0.63138 0.07797 0.28039 0.0
H386 H 0.60006 0.04581 0.22281 0.0
H387 H 0.5703 0.05642 0.16154 0.0
H388 H 0.57633 0.19309 0.11604 0.0
H389 H 0.61188 0.22491 0.17101 0.0
C390 C 0.62949 0.17741 0.23151 0.0
C391 C 0.63649 0.14846 0.26162 0.0
C392 C 0.61127 0.15923 0.19855 0.0
C393 C 0.62644 0.10098 0.25755 0.0
C394 C 0.60832 0.08259 0.22474 0.0
C395 C 0.5797 0.09317 0.16343 0.0
C396 C 0.57025 0.12225 0.1348 0.0
C397 C 0.6 0.11137 0.19536 0.0
C398 C 0.58292 0.16982 0.13769 0.0
C399 C 0.60323 0.18811 0.16919 0.0
H400 H 0.44405 0.68039 0.36353 0.0
H401 H 0.38101 0.5545 0.31832 0.0
H402 H 0.40759 0.51061 0.36588 0.0
H403 H 0.44916 0.50834 0.42066 0.0
H404 H 0.51142 0.63562 0.46502 0.0
H405 H 0.48478 0.6783 0.41761 0.0
C406 C 0.43616 0.64332 0.36415 0.0
C407 C 0.41071 0.62077 0.33763 0.0
C408 C 0.45145 0.61845 0.39145 0.0
C409 C 0.40058 0.57273 0.33858 0.0
C410 C 0.41578 0.54759 0.36574 0.0
C411 C 0.45686 0.54537 0.41988 0.0
C412 C 0.48237 0.56856 0.44636 0.0
C413 C 0.4413 0.57012 0.39237 0.0
C414 C 0.49202 0.61667 0.44497 0.0
C415 C 0.47676 0.6413 0.41786 0.0
H416 H 0.18419 0.44079 0.8675 0.0
H417 H 0.08625 0.37001 0.80565 0.0
H418 H 0.03962 0.40544 0.84485 0.0
H419 H 0.02631 0.45625 0.89674 0.0
H420 H 0.12309 0.52751 0.9592 0.0
H421 H 0.17067 0.49223 0.91991 0.0
C422 C 0.1526 0.43317 0.86276 0.0
C423 C 0.13873 0.40287 0.83379 0.0
C424 C 0.12581 0.45368 0.8855 0.0
C425 C 0.09777 0.39316 0.82779 0.0
C426 C 0.07103 0.41347 0.85015 0.0
C427 C 0.0579 0.46414 0.90155 0.0
C428 C 0.07135 0.49371 0.93105 0.0
C429 C 0.08472 0.44378 0.87899 0.0
C430 C 0.11216 0.50387 0.93716 0.0
C431 C 0.13927 0.48398 0.91458 0.0
H432 H 0.72799 0.85164 0.87995 0.0
H433 H 0.69069 0.86358 0.76383 0.0
H434 H 0.63509 0.89472 0.79178 0.0
H435 H 0.59864 0.92114 0.84874 0.0
H436 H 0.63429 0.90657 0.96518 0.0
H437 H 0.6886 0.87302 0.93756 0.0
C438 C 0.7073 0.86026 0.86081 0.0
C439 C 0.71375 0.85564 0.8198 0.0
C440 C 0.6752 0.8778 0.87709 0.0
C441 C 0.68688 0.86758 0.79541 0.0
C442 C 0.65497 0.8852 0.81137 0.0
C443 C 0.61826 0.91055 0.86808 0.0
C444 C 0.61273 0.9167 0.90885 0.0
C445 C 0.6492 0.89104 0.85207 0.0
C446 C 0.63799 0.90224 0.93365 0.0
C447 C 0.66909 0.88315 0.91788 0.0
H448 H 0.82419 0.22511 0.42004 0.0
H449 H 0.75954 0.09093 0.39206 0.0
H450 H 0.80996 0.05735 0.41865 0.0
H451 H 0.87284 0.0661 0.44916 0.0
H452 H 0.939 0.20058 0.47513 0.0
H453 H 0.88773 0.23396 0.45002 0.0
C454 C 0.82121 0.18851 0.41984 0.0
C455 C 0.78826 0.1606 0.40406 0.0
C456 C 0.85061 0.16947 0.43479 0.0
C457 C 0.78472 0.11325 0.40384 0.0
C458 C 0.81353 0.09399 0.41912 0.0
C459 C 0.87602 0.10271 0.44952 0.0
C460 C 0.90974 0.13073 0.46422 0.0
C461 C 0.84665 0.12177 0.43458 0.0
C462 C 0.91341 0.17815 0.46407 0.0
C463 C 0.88407 0.1973 0.4497 0.0
H464 H 0.28926 0.64787 0.13026 0.0
H465 H 0.23362 0.59855 0.248 0.0
H466 H 0.17186 0.56047 0.22134 0.0
H467 H 0.13362 0.542 0.16504 0.0
H468 H 0.1878 0.59369 0.04748 0.0
H469 H 0.25008 0.63136 0.07397 0.0
C470 C 0.26347 0.62932 0.15021 0.0
C471 C 0.26612 0.62612 0.19111 0.0
C472 C 0.2278 0.60829 0.1348 0.0
C473 C 0.23266 0.60105 0.21637 0.0
C474 C 0.19721 0.57957 0.2012 0.0
C475 C 0.15901 0.56154 0.14513 0.0
C476 C 0.15618 0.56498 0.10435 0.0
C477 C 0.19449 0.58304 0.16051 0.0
C478 C 0.18924 0.59065 0.07902 0.0
C479 C 0.22485 0.61203 0.09412 0.0
H480 H 0.2765 0.36223 0.63347 0.0
H481 H 0.30038 0.37544 0.75503 0.0
H482 H 0.36874 0.42065 0.73348 0.0
H483 H 0.42067 0.45879 0.68027 0.0
H484 H 0.39679 0.44518 0.55868 0.0
H485 H 0.32969 0.39682 0.58017 0.0
C486 C 0.29685 0.37431 0.65527 0.0
C487 C 0.28325 0.36557 0.69583 0.0
C488 C 0.33609 0.40021 0.64268 0.0
C489 C 0.30987 0.3822 0.72365 0.0
C490 C 0.34902 0.40787 0.71135 0.0
C491 C 0.40092 0.44503 0.65841 0.0
C492 C 0.41369 0.45586 0.61792 0.0
C493 C 0.36227 0.41753 0.67096 0.0
C494 C 0.38773 0.43753 0.59004 0.0
C495 C 0.3493 0.40993 0.6023 0.0
H496 H 0.82807 0.72597 0.8929 0.0
H497 H 0.90312 0.69989 0.79056 0.0
H498 H 0.94045 0.66291 0.83295 0.0
H499 H 0.94924 0.63442 0.89829 0.0
H500 H 0.8719 0.65601 0.00066 0.0
H501 H 0.83843 0.69926 0.9591 0.0
C502 C 0.85266 0.71231 0.87992 0.0
C503 C 0.86279 0.71535 0.83866 0.0
C504 C 0.8737 0.69065 0.90446 0.0
C505 C 0.89472 0.6976 0.82226 0.0
C506 C 0.91612 0.67663 0.84645 0.0
C507 C 0.92556 0.64927 0.91169 0.0
C508 C 0.91311 0.64215 0.95251 0.0
C509 C 0.90563 0.6726 0.88751 0.0
C510 C 0.88201 0.66109 0.96928 0.0
C511 C 0.86274 0.68558 0.94552 0.0
H512 H 0.386 0.73088 0.12838 0.0
H513 H 0.38998 0.7962 0.23932 0.0
H514 H 0.42535 0.86952 0.20471 0.0
H515 H 0.45355 0.91508 0.14209 0.0
H516 H 0.45126 0.84707 0.03207 0.0
H517 H 0.41648 0.77482 0.06703 0.0
C518 C 0.3947 0.76125 0.14491 0.0
C519 C 0.38525 0.75856 0.18612 0.0
C520 C 0.41505 0.80274 0.12494 0.0
C521 C 0.39711 0.79772 0.20749 0.0
C522 C 0.41708 0.83954 0.1877 0.0
C523 C 0.44532 0.88441 0.12588 0.0
C524 C 0.45481 0.88647 0.08454 0.0
C525 C 0.4259 0.84254 0.14632 0.0
C526 C 0.44443 0.8464 0.0639 0.0
C527 C 0.42449 0.80504 0.08383 0.0
H528 H 0.19238 0.27343 0.61905 0.0
H529 H 0.12375 0.20373 0.72591 0.0
H530 H 0.09052 0.14145 0.68762 0.0
H531 H 0.08326 0.10507 0.62425 0.0
H532 H 0.15568 0.17211 0.51832 0.0
H533 H 0.18546 0.23702 0.55593 0.0
C534 C 0.17053 0.24439 0.63412 0.0
C535 C 0.16077 0.24331 0.67538 0.0
C536 C 0.15219 0.20823 0.61207 0.0
C537 C 0.13159 0.20581 0.69416 0.0
C538 C 0.1127 0.17002 0.67232 0.0
C539 C 0.1052 0.13417 0.60933 0.0
C540 C 0.11718 0.13399 0.56858 0.0
C541 C 0.12295 0.17075 0.6313 0.0
C542 C 0.14604 0.17153 0.54971 0.0
C543 C 0.1631 0.20857 0.57118 0.0
H544 H 0.6307 0.22697 0.43047 0.0
H545 H 0.62667 0.29124 0.31682 0.0
H546 H 0.59391 0.34638 0.34885 0.0
H547 H 0.5689 0.3787 0.40948 0.0
H548 H 0.57737 0.31754 0.52306 0.0
H549 H 0.60566 0.25894 0.49084 0.0
C550 C 0.62305 0.2533 0.4127 0.0
C551 C 0.63121 0.25481 0.37126 0.0
C552 C 0.60467 0.28537 0.43134 0.0
C553 C 0.62036 0.28881 0.34874 0.0
C554 C 0.6017 0.32052 0.36703 0.0
C555 C 0.57627 0.352 0.42706 0.0
C556 C 0.57076 0.35212 0.46852 0.0
C557 C 0.59379 0.31924 0.40833 0.0
C558 C 0.58123 0.31798 0.49105 0.0
C559 C 0.59759 0.28461 0.47267 0.0
loop_
_geom_bond_atom_site_label_1
_geom_bond_atom_site_label_2
_geom_bond_distance
_geom_bond_site_symmetry_2
_ccdc_geom_bond_type
H0 C5 0.930 . S
H1 C8 0.930 . S
H2 C10 0.930 . S
H3 C4 1.016 . S
C4 H3 1.016 . S
C4 N11 1.286 . S
C5 H0 0.930 . S
C5 C6 1.397 . S
C5 C7 1.361 . S
C6 C5 1.397 . S
C6 C10 1.390 . S
C7 C5 1.361 . S
C7 C8 1.393 . S
C7 N11 1.413 . S
C8 H1 0.930 . S
C8 C7 1.393 . S
C8 C9 1.399 . S
C9 C8 1.399 . S
C9 C10 1.381 . S
C10 H2 0.930 . S
C10 C6 1.390 . S
C10 C9 1.381 . S
N11 C4 1.286 . S
N11 C7 1.413 . S
H12 C17 0.930 . S
H13 C20 0.930 . S
H14 C22 0.930 . S
H15 C16 1.016 . S
C16 H15 1.016 . S
C16 N23 1.286 . S
C17 H12 0.930 . S
C17 C18 1.397 . S
C17 C19 1.361 . S
C18 C17 1.397 . S
C18 C22 1.390 . S
C19 C17 1.361 . S
C19 C20 1.393 . S
C19 N23 1.413 . S
C20 H13 0.930 . S
C20 C19 1.393 . S
C20 C21 1.399 . S
C21 C20 1.399 . S
C21 C22 1.381 . S
C22 H14 0.930 . S
C22 C18 1.390 . S
C22 C21 1.381 . S
N23 C16 1.286 . S
N23 C19 1.413 . S
H24 C29 0.930 . S
H25 C32 0.930 . S
H26 C34 0.930 . S
H27 C28 1.016 . S
C28 H27 1.016 . S
C28 N35 1.286 . S
C29 H24 0.930 . S
C29 C30 1.397 . S
C29 C31 1.361 . S
C30 C29 1.397 . S
C30 C34 1.390 . S
C31 C29 1.361 . S
C31 C32 1.393 . S
C31 N35 1.413 . S
C32 H25 0.930 . S
C32 C31 1.393 . S
C32 C33 1.399 . S
C33 C32 1.399 . S
C33 C34 1.381 . S
C34 H26 0.930 . S
C34 C30 1.390 . S
C34 C33 1.381 . S
N35 C28 1.286 . S
N35 C31 1.413 . S
H36 C41 0.930 . S
H37 C44 0.930 . S
H38 C46 0.930 . S
H39 C40 1.016 . S
C40 H39 1.016 . S
C40 N47 1.286 . S
C41 H36 0.930 . S
C41 C42 1.397 . S
C41 C43 1.361 . S
C42 C41 1.397 . S
C42 C46 1.390 . S
C43 C41 1.361 . S
C43 C44 1.393 . S
C43 N47 1.413 . S
C44 H37 0.930 . S
C44 C43 1.393 . S
C44 C45 1.399 . S
C45 C44 1.399 . S
C45 C46 1.381 . S
C46 H38 0.930 . S
C46 C42 1.390 . S
C46 C45 1.381 . S
N47 C40 1.286 . S
N47 C43 1.413 . S
H48 C53 0.930 . S
H49 C56 0.930 . S
H50 C58 0.930 . S
H51 C52 1.016 . S
C52 H51 1.016 . S
C52 N59 1.286 . S
C53 H48 0.930 . S
C53 C54 1.397 . S
C53 C55 1.361 . S
C54 C53 1.397 . S
C54 C58 1.390 . S
C55 C53 1.361 . S
C55 C56 1.393 . S
C55 N59 1.413 . S
C56 H49 0.930 . S
C56 C55 1.393 . S
C56 C57 1.399 . S
C57 C56 1.399 . S
C57 C58 1.381 . S
C58 H50 0.930 . S
C58 C54 1.390 . S
C58 C57 1.381 . S
N59 C52 1.286 . S
N59 C55 1.413 . S
H60 C65 0.930 . S
H61 C68 0.930 . S
H62 C70 0.930 . S
H63 C64 1.016 . S
C64 H63 1.016 . S
C64 N71 1.286 . S
C65 H60 0.930 . S
C65 C66 1.397 . S
C65 C67 1.361 . S
C66 C65 1.397 . S
C66 C70 1.390 . S
C67 C65 1.361 . S
C67 C68 1.393 . S
C67 N71 1.413 . S
C68 H61 0.930 . S
C68 C67 1.393 . S
C68 C69 1.399 . S
C69 C68 1.399 . S
C69 C70 1.381 . S
C70 H62 0.930 . S
C70 C66 1.390 . S
C70 C69 1.381 . S
N71 C64 1.286 . S
N71 C67 1.413 . S
H72 C77 0.930 . S
H73 C80 0.930 . S
H74 C82 0.930 . S
H75 C76 1.016 . S
C76 H75 1.016 . S
C76 N83 1.286 . S
C77 H72 0.930 . S
C77 C78 1.397 . S
C77 C79 1.361 . S
C78 C77 1.397 . S
C78 C82 1.390 . S
C79 C77 1.361 . S
C79 C80 1.393 . S
C79 N83 1.413 . S
C80 H73 0.930 . S
C80 C79 1.393 . S
C80 C81 1.399 . S
C81 C80 1.399 . S
C81 C82 1.381 . S
C82 H74 0.930 . S
C82 C78 1.390 . S
C82 C81 1.381 . S
N83 C76 1.286 . S
N83 C79 1.413 . S
H84 C89 0.930 . S
H85 C92 0.930 . S
H86 C94 0.930 . S
H87 C88 1.016 . S
C88 H87 1.016 . S
C88 N95 1.286 . S
C89 H84 0.930 . S
C89 C90 1.397 . S
C89 C91 1.361 . S
C90 C89 1.397 . S
C90 C94 1.390 . S
C91 C89 1.361 . S
C91 C92 1.393 . S
C91 N95 1.413 . S
C92 H85 0.930 . S
C92 C91 1.393 . S
C92 C93 1.399 . S
C93 C92 1.399 . S
C93 C94 1.381 . S
C94 H86 0.930 . S
C94 C90 1.390 . S
C94 C93 1.381 . S
N95 C88 1.286 . S
N95 C91 1.413 . S
Zn96 O102 1.969 1_545 S
Zn96 O103 1.965 1_545 S
Zn96 O107 2.024 . S
Zn96 O112 1.969 . S
Zn97 O104 1.969 . S
Zn97 O110 1.969 1_565 S
Zn97 O111 1.965 1_665 S
Zn97 O113 2.024 . S
C98 O99 1.229 . S
C98 O107 1.058 . S
O99 C98 1.229 . S
C100 O101 1.229 . S
C100 O113 1.058 . S
O101 C100 1.229 . S
O102 Zn96 1.969 1_565 S
O102 C105 1.267 . S
O103 Zn96 1.965 1_565 S
O103 C114 1.260 1_455 S
O104 Zn97 1.969 . S
O104 C114 1.258 . S
C105 O102 1.267 . S
C105 O106 1.228 . S
O106 C105 1.228 . S
O107 Zn96 2.024 . S
O107 C98 1.058 . S
C108 O109 1.228 . S
C108 O110 1.267 . S
O109 C108 1.228 . S
O110 Zn97 1.969 1_545 S
O110 C108 1.267 . S
O111 Zn97 1.965 1_445 S
O111 C115 1.260 . S
O112 Zn96 1.969 . S
O112 C115 1.258 . S
O113 Zn97 2.024 . S
O113 C100 1.058 . S
C114 O103 1.260 1_655 S
C114 O104 1.258 . S
C115 O111 1.260 . S
C115 O112 1.258 . S
Zn116 O122 1.969 . S
Zn116 O123 1.965 1_565 S
Zn116 O127 2.024 . S
Zn116 O132 1.969 1_556 S
Zn117 O124 1.969 . S
Zn117 O130 1.969 . S
Zn117 O131 1.965 1_545 S
Zn117 O133 2.024 . S
C118 O119 1.229 . S
C118 O127 1.058 . S
O119 C118 1.229 . S
C120 O121 1.229 . S
C120 O133 1.058 . S
O121 C120 1.229 . S
O122 Zn116 1.969 . S
O122 C125 1.267 . S
O123 Zn116 1.965 1_545 S
O123 C134 1.260 . S
O124 Zn117 1.969 . S
O124 C134 1.258 1_554 S
C125 O122 1.267 . S
C125 O126 1.228 . S
O126 C125 1.228 . S
O127 Zn116 2.024 . S
O127 C118 1.058 . S
C128 O129 1.228 . S
C128 O130 1.267 . S
O129 C128 1.228 . S
O130 Zn117 1.969 . S
O130 C128 1.267 . S
O131 Zn117 1.965 1_565 S
O131 C135 1.260 . S
O132 Zn116 1.969 1_554 S
O132 C135 1.258 . S
O133 Zn117 2.024 . S
O133 C120 1.058 . S
C134 O123 1.260 . S
C134 O124 1.258 1_556 S
C135 O131 1.260 . S
C135 O132 1.258 . S
Zn136 O142 1.969 . S
Zn136 O143 1.965 . S
Zn136 O147 2.024 . S
Zn136 O152 1.969 . S
Zn137 O144 1.969 . S
Zn137 O150 1.969 . S
Zn137 O151 1.965 . S
Zn137 O153 2.024 . S
C138 O139 1.229 . S
C138 O147 1.058 . S
O139 C138 1.229 . S
C140 O141 1.229 . S
C140 O153 1.058 . S
O141 C140 1.229 . S
O142 Zn136 1.969 . S
O142 C145 1.267 . S
O143 Zn136 1.965 . S
O143 C154 1.260 . S
O144 Zn137 1.969 . S
O144 C154 1.258 . S
C145 O142 1.267 . S
C145 O146 1.228 . S
O146 C145 1.228 . S
O147 Zn136 2.024 . S
O147 C138 1.058 . S
C148 O149 1.228 . S
C148 O150 1.267 . S
O149 C148 1.228 . S
O150 Zn137 1.969 . S
O150 C148 1.267 . S
O151 Zn137 1.965 . S
O151 C155 1.260 . S
O152 Zn136 1.969 . S
O152 C155 1.258 . S
O153 Zn137 2.024 . S
O153 C140 1.058 . S
C154 O143 1.260 . S
C154 O144 1.258 . S
C155 O151 1.260 . S
C155 O152 1.258 . S
Zn156 O162 1.969 . S
Zn156 O163 1.965 1_556 S
Zn156 O167 2.024 . S
Zn156 O172 1.969 1_655 S
Zn157 O164 1.969 . S
Zn157 O170 1.969 . S
Zn157 O171 1.964 . S
Zn157 O173 2.024 . S
C158 O159 1.229 . S
C158 O167 1.058 . S
O159 C158 1.229 . S
C160 O161 1.229 . S
C160 O173 1.058 . S
O161 C160 1.229 . S
O162 Zn156 1.969 . S
O162 C165 1.267 . S
O163 Zn156 1.965 1_554 S
O163 C174 1.260 . S
O164 Zn157 1.969 . S
O164 C174 1.258 1_455 S
C165 O162 1.267 . S
C165 O166 1.228 . S
O166 C165 1.228 . S
O167 Zn156 2.024 . S
O167 C158 1.058 . S
C168 O169 1.228 . S
C168 O170 1.267 . S
O169 C168 1.228 . S
O170 Zn157 1.969 . S
O170 C168 1.267 . S
O171 Zn157 1.964 . S
O171 C175 1.261 1_554 S
O172 Zn156 1.969 1_455 S
O172 C175 1.258 . S
O173 Zn157 2.024 . S
O173 C160 1.058 . S
C174 O163 1.260 . S
C174 O164 1.258 1_655 S
C175 O171 1.261 1_556 S
C175 O172 1.258 . S
H176 C182 0.930 . S
H177 C185 0.930 . S
H178 C186 0.930 . S
H179 C187 0.930 . S
H180 C190 0.930 . S
H181 C191 0.930 . S
C182 H176 0.930 . S
C182 C183 1.355 . S
C182 C184 1.415 . S
C183 C182 1.355 . S
C183 C185 1.419 . S
C184 C182 1.415 . S
C184 C189 1.425 . S
C184 C191 1.409 . S
C185 H177 0.930 . S
C185 C183 1.419 . S
C185 C186 1.362 . S
C186 H178 0.930 . S
C186 C185 1.362 . S
C186 C189 1.409 . S
C187 H179 0.930 . S
C187 C188 1.355 . S
C187 C189 1.415 . S
C188 C187 1.355 . S
C188 C190 1.419 . S
C189 C184 1.425 . S
C189 C186 1.409 . S
C189 C187 1.415 . S
C190 H180 0.930 . S
C190 C188 1.419 . S
C190 C191 1.362 . S
C191 H181 0.930 . S
C191 C184 1.409 . S
C191 C190 1.362 . S
H192 C198 0.930 . S
H193 C201 0.930 . S
H194 C202 0.930 . S
H195 C203 0.930 . S
H196 C206 0.930 1_545 S
H197 C207 0.930 . S
C198 H192 0.930 . S
C198 C199 1.355 . S
C198 C200 1.415 . S
C199 C198 1.355 . S
C199 C201 1.419 . S
C200 C198 1.415 . S
C200 C205 1.425 . S
C200 C207 1.409 . S
C201 H193 0.930 . S
C201 C199 1.419 . S
C201 C202 1.362 . S
C202 H194 0.930 . S
C202 C201 1.362 . S
C202 C205 1.409 . S
C203 H195 0.930 . S
C203 C204 1.355 . S
C203 C205 1.415 . S
C204 C203 1.355 . S
C204 C206 1.419 . S
C205 C200 1.425 . S
C205 C202 1.409 . S
C205 C203 1.415 . S
C206 H196 0.930 1_565 S
C206 C204 1.419 . S
C206 C207 1.362 . S
C207 H197 0.930 . S
C207 C200 1.409 . S
C207 C206 1.362 . S
H208 C214 0.930 . S
H209 C217 0.930 . S
H210 C218 0.930 . S
H211 C219 0.930 . S
H212 C222 0.930 . S
H213 C223 0.930 . S
C214 H208 0.930 . S
C214 C215 1.355 . S
C214 C216 1.415 . S
C215 C214 1.355 . S
C215 C217 1.419 . S
C216 C214 1.415 . S
C216 C221 1.425 . S
C216 C223 1.409 . S
C217 H209 0.930 . S
C217 C215 1.419 . S
C217 C218 1.362 . S
C218 H210 0.930 . S
C218 C217 1.362 . S
C218 C221 1.409 . S
C219 H211 0.930 . S
C219 C220 1.355 . S
C219 C221 1.415 . S
C220 C219 1.355 . S
C220 C222 1.419 . S
C221 C216 1.425 . S
C221 C218 1.409 . S
C221 C219 1.415 . S
C222 H212 0.930 . S
C222 C220 1.419 . S
C222 C223 1.362 . S
C223 H213 0.930 . S
C223 C216 1.409 . S
C223 C222 1.362 . S
H224 C230 0.930 . S
H225 C233 0.930 . S
H226 C234 0.930 . S
H227 C235 0.930 . S
H228 C238 0.930 1_455 S
H229 C239 0.930 . S
C230 H224 0.930 . S
C230 C231 1.355 . S
C230 C232 1.415 . S
C231 C230 1.355 . S
C231 C233 1.419 . S
C232 C230 1.415 . S
C232 C237 1.425 . S
C232 C239 1.409 . S
C233 H225 0.930 . S
C233 C231 1.419 . S
C233 C234 1.362 . S
C234 H226 0.930 . S
C234 C233 1.362 . S
C234 C237 1.409 . S
C235 H227 0.930 . S
C235 C236 1.355 . S
C235 C237 1.415 . S
C236 C235 1.355 . S
C236 C238 1.419 . S
C237 C232 1.425 . S
C237 C234 1.409 . S
C237 C235 1.415 . S
C238 H228 0.930 1_655 S
C238 C236 1.419 . S
C238 C239 1.362 . S
C239 H229 0.930 . S
C239 C232 1.409 . S
C239 C238 1.362 . S
H240 C246 0.930 . S
H241 C249 0.930 . S
H242 C250 0.930 . S
H243 C251 0.930 . S
H244 C254 0.930 . S
H245 C255 0.930 . S
C246 H240 0.930 . S
C246 C247 1.355 . S
C246 C248 1.415 . S
C247 C246 1.355 . S
C247 C249 1.419 . S
C248 C246 1.415 . S
C248 C253 1.425 . S
C248 C255 1.409 . S
C249 H241 0.930 . S
C249 C247 1.419 . S
C249 C250 1.362 . S
C250 H242 0.930 . S
C250 C249 1.362 . S
C250 C253 1.409 . S
C251 H243 0.930 . S
C251 C252 1.355 . S
C251 C253 1.415 . S
C252 C251 1.355 . S
C252 C254 1.419 . S
C253 C248 1.425 . S
C253 C250 1.409 . S
C253 C251 1.415 . S
C254 H244 0.930 . S
C254 C252 1.419 . S
C254 C255 1.362 . S
C255 H245 0.930 . S
C255 C248 1.409 . S
C255 C254 1.362 . S
H256 C262 0.930 . S
H257 C265 0.930 . S
H258 C266 0.930 . S
H259 C267 0.930 . S
H260 C270 0.930 1_545 S
H261 C271 0.930 . S
C262 H256 0.930 . S
C262 C263 1.355 . S
C262 C264 1.415 . S
C263 C262 1.355 . S
C263 C265 1.419 . S
C264 C262 1.415 . S
C264 C269 1.425 . S
C264 C271 1.409 . S
C265 H257 0.930 . S
C265 C263 1.419 . S
C265 C266 1.362 . S
C266 H258 0.930 . S
C266 C265 1.362 . S
C266 C269 1.409 . S
C267 H259 0.930 . S
C267 C268 1.355 . S
C267 C269 1.415 . S
C268 C267 1.355 . S
C268 C270 1.419 . S
C269 C264 1.425 . S
C269 C266 1.409 . S
C269 C267 1.415 . S
C270 H260 0.930 1_565 S
C270 C268 1.419 . S
C270 C271 1.362 . S
C271 H261 0.930 . S
C271 C264 1.409 . S
C271 C270 1.362 . S
H272 C278 0.930 . S
H273 C281 0.930 . S
H274 C282 0.930 . S
H275 C283 0.930 . S
H276 C286 0.930 . S
H277 C287 0.930 . S
C278 H272 0.930 . S
C278 C279 1.355 . S
C278 C280 1.415 . S
C279 C278 1.355 . S
C279 C281 1.419 . S
C280 C278 1.415 . S
C280 C285 1.425 . S
C280 C287 1.409 . S
C281 H273 0.930 . S
C281 C279 1.419 . S
C281 C282 1.362 . S
C282 H274 0.930 . S
C282 C281 1.362 . S
C282 C285 1.409 . S
C283 H275 0.930 . S
C283 C284 1.355 . S
C283 C285 1.415 . S
C284 C283 1.355 . S
C284 C286 1.419 . S
C285 C280 1.425 . S
C285 C282 1.409 . S
C285 C283 1.415 . S
C286 H276 0.930 . S
C286 C284 1.419 . S
C286 C287 1.362 . S
C287 H277 0.930 . S
C287 C280 1.409 . S
C287 C286 1.362 . S
H288 C294 0.930 . S
H289 C297 0.930 . S
H290 C298 0.930 . S
H291 C299 0.930 . S
H292 C302 0.930 . S
H293 C303 0.930 . S
C294 H288 0.930 . S
C294 C295 1.355 . S
C294 C296 1.415 . S
C295 C294 1.355 . S
C295 C297 1.419 . S
C296 C294 1.415 . S
C296 C301 1.425 . S
C296 C303 1.409 . S
C297 H289 0.930 . S
C297 C295 1.419 . S
C297 C298 1.362 . S
C298 H290 0.930 . S
C298 C297 1.362 . S
C298 C301 1.409 . S
C299 H291 0.930 . S
C299 C300 1.355 . S
C299 C301 1.415 . S
C300 C299 1.355 . S
C300 C302 1.419 . S
C301 C296 1.425 . S
C301 C298 1.409 . S
C301 C299 1.415 . S
C302 H292 0.930 . S
C302 C300 1.419 . S
C302 C303 1.362 . S
C303 H293 0.930 . S
C303 C296 1.409 . S
C303 C302 1.362 . S
H304 C310 0.930 . S
H305 C313 0.930 . S
H306 C314 0.930 . S
H307 C315 0.930 . S
H308 C318 0.930 . S
H309 C319 0.930 . S
C310 H304 0.930 . S
C310 C311 1.355 . S
C310 C312 1.415 . S
C311 C310 1.355 . S
C311 C313 1.419 . S
C312 C310 1.415 . S
C312 C317 1.425 . S
C312 C319 1.409 . S
C313 H305 0.930 . S
C313 C311 1.419 . S
C313 C314 1.362 . S
C314 H306 0.930 . S
C314 C313 1.362 . S
C314 C317 1.409 . S
C315 H307 0.930 . S
C315 C316 1.355 . S
C315 C317 1.415 . S
C316 C315 1.355 . S
C316 C318 1.419 . S
C317 C312 1.425 . S
C317 C314 1.409 . S
C317 C315 1.415 . S
C318 H308 0.930 . S
C318 C316 1.419 . S
C318 C319 1.362 . S
C319 H309 0.930 . S
C319 C312 1.409 . S
C319 C318 1.362 . S
H320 C326 0.930 . S
H321 C329 0.930 . S
H322 C330 0.930 . S
H323 C331 0.930 . S
H324 C334 0.930 . S
H325 C335 0.930 . S
C326 H320 0.930 . S
C326 C327 1.355 . S
C326 C328 1.415 . S
C327 C326 1.355 . S
C327 C329 1.419 . S
C328 C326 1.415 . S
C328 C333 1.425 . S
C328 C335 1.409 . S
C329 H321 0.930 . S
C329 C327 1.419 . S
C329 C330 1.362 . S
C330 H322 0.930 . S
C330 C329 1.362 . S
C330 C333 1.409 . S
C331 H323 0.930 . S
C331 C332 1.355 . S
C331 C333 1.415 . S
C332 C331 1.355 . S
C332 C334 1.419 . S
C333 C328 1.425 . S
C333 C330 1.409 . S
C333 C331 1.415 . S
C334 H324 0.930 . S
C334 C332 1.419 . S
C334 C335 1.362 . S
C335 H325 0.930 . S
C335 C328 1.409 . S
C335 C334 1.362 . S
H336 C342 0.930 . S
H337 C345 0.930 . S
H338 C346 0.930 . S
H339 C347 0.930 . S
H340 C350 0.930 . S
H341 C351 0.930 . S
C342 H336 0.930 . S
C342 C343 1.355 . S
C342 C344 1.415 . S
C343 C342 1.355 . S
C343 C345 1.419 . S
C344 C342 1.415 . S
C344 C349 1.425 . S
C344 C351 1.409 . S
C345 H337 0.930 . S
C345 C343 1.419 . S
C345 C346 1.362 . S
C346 H338 0.930 . S
C346 C345 1.362 . S
C346 C349 1.409 . S
C347 H339 0.930 . S
C347 C348 1.355 . S
C347 C349 1.415 . S
C348 C347 1.355 . S
C348 C350 1.419 . S
C349 C344 1.425 . S
C349 C346 1.409 . S
C349 C347 1.415 . S
C350 H340 0.930 . S
C350 C348 1.419 . S
C350 C351 1.362 . S
C351 H341 0.930 . S
C351 C344 1.409 . S
C351 C350 1.362 . S
H352 C358 0.930 . S
H353 C361 0.930 . S
H354 C362 0.930 . S
H355 C363 0.930 . S
H356 C366 0.930 . S
H357 C367 0.930 . S
C358 H352 0.930 . S
C358 C359 1.355 . S
C358 C360 1.415 . S
C359 C358 1.355 . S
C359 C361 1.419 . S
C360 C358 1.415 . S
C360 C365 1.425 . S
C360 C367 1.409 . S
C361 H353 0.930 . S
C361 C359 1.419 . S
C361 C362 1.362 . S
C362 H354 0.930 . S
C362 C361 1.362 . S
C362 C365 1.409 . S
C363 H355 0.930 . S
C363 C364 1.355 . S
C363 C365 1.415 . S
C364 C363 1.355 . S
C364 C366 1.419 . S
C365 C360 1.425 . S
C365 C362 1.409 . S
C365 C363 1.415 . S
C366 H356 0.930 . S
C366 C364 1.419 . S
C366 C367 1.362 . S
C367 H357 0.930 . S
C367 C360 1.409 . S
C367 C366 1.362 . S
H368 C374 0.930 . S
H369 C377 0.930 . S
H370 C378 0.930 . S
H371 C379 0.930 . S
H372 C382 0.930 . S
H373 C383 0.930 . S
C374 H368 0.930 . S
C374 C375 1.355 . S
C374 C376 1.415 . S
C375 C374 1.355 . S
C375 C377 1.419 . S
C376 C374 1.415 . S
C376 C381 1.425 . S
C376 C383 1.409 . S
C377 H369 0.930 . S
C377 C375 1.419 . S
C377 C378 1.362 . S
C378 H370 0.930 . S
C378 C377 1.362 . S
C378 C381 1.409 . S
C379 H371 0.930 . S
C379 C380 1.355 . S
C379 C381 1.415 . S
C380 C379 1.355 . S
C380 C382 1.419 . S
C381 C376 1.425 . S
C381 C378 1.409 . S
C381 C379 1.415 . S
C382 H372 0.930 . S
C382 C380 1.419 . S
C382 C383 1.362 . S
C383 H373 0.930 . S
C383 C376 1.409 . S
C383 C382 1.362 . S
H384 C390 0.930 . S
H385 C393 0.930 . S
H386 C394 0.930 . S
H387 C395 0.930 . S
H388 C398 0.930 . S
H389 C399 0.930 . S
C390 H384 0.930 . S
C390 C391 1.355 . S
C390 C392 1.415 . S
C391 C390 1.355 . S
C391 C393 1.419 . S
C392 C390 1.415 . S
C392 C397 1.425 . S
C392 C399 1.409 . S
C393 H385 0.930 . S
C393 C391 1.419 . S
C393 C394 1.362 . S
C394 H386 0.930 . S
C394 C393 1.362 . S
C394 C397 1.409 . S
C395 H387 0.930 . S
C395 C396 1.355 . S
C395 C397 1.415 . S
C396 C395 1.355 . S
C396 C398 1.419 . S
C397 C392 1.425 . S
C397 C394 1.409 . S
C397 C395 1.415 . S
C398 H388 0.930 . S
C398 C396 1.419 . S
C398 C399 1.362 . S
C399 H389 0.930 . S
C399 C392 1.409 . S
C399 C398 1.362 . S
H400 C406 0.930 . S
H401 C409 0.930 . S
H402 C410 0.930 . S
H403 C411 0.930 . S
H404 C414 0.930 . S
H405 C415 0.930 . S
C406 H400 0.930 . S
C406 C407 1.355 . S
C406 C408 1.415 . S
C407 C406 1.355 . S
C407 C409 1.419 . S
C408 C406 1.415 . S
C408 C413 1.425 . S
C408 C415 1.409 . S
C409 H401 0.930 . S
C409 C407 1.419 . S
C409 C410 1.362 . S
C410 H402 0.930 . S
C410 C409 1.362 . S
C410 C413 1.409 . S
C411 H403 0.930 . S
C411 C412 1.355 . S
C411 C413 1.415 . S
C412 C411 1.355 . S
C412 C414 1.419 . S
C413 C408 1.425 . S
C413 C410 1.409 . S
C413 C411 1.415 . S
C414 H404 0.930 . S
C414 C412 1.419 . S
C414 C415 1.362 . S
C415 H405 0.930 . S
C415 C408 1.409 . S
C415 C414 1.362 . S
H416 C422 0.930 . S
H417 C425 0.930 . S
H418 C426 0.930 . S
H419 C427 0.930 . S
H420 C430 0.930 . S
H421 C431 0.930 . S
C422 H416 0.930 . S
C422 C423 1.355 . S
C422 C424 1.415 . S
C423 C422 1.355 . S
C423 C425 1.419 . S
C424 C422 1.415 . S
C424 C429 1.425 . S
C424 C431 1.409 . S
C425 H417 0.930 . S
C425 C423 1.419 . S
C425 C426 1.362 . S
C426 H418 0.930 . S
C426 C425 1.362 . S
C426 C429 1.409 . S
C427 H419 0.930 . S
C427 C428 1.355 . S
C427 C429 1.415 . S
C428 C427 1.355 . S
C428 C430 1.419 . S
C429 C424 1.425 . S
C429 C426 1.409 . S
C429 C427 1.415 . S
C430 H420 0.930 . S
C430 C428 1.419 . S
C430 C431 1.362 . S
C431 H421 0.930 . S
C431 C424 1.409 . S
C431 C430 1.362 . S
H432 C438 0.930 . S
H433 C441 0.930 . S
H434 C442 0.930 . S
H435 C443 0.930 . S
H436 C446 0.930 . S
H437 C447 0.930 . S
C438 H432 0.930 . S
C438 C439 1.355 . S
C438 C440 1.415 . S
C439 C438 1.355 . S
C439 C441 1.419 . S
C440 C438 1.415 . S
C440 C445 1.425 . S
C440 C447 1.409 . S
C441 H433 0.930 . S
C441 C439 1.419 . S
C441 C442 1.362 . S
C442 H434 0.930 . S
C442 C441 1.362 . S
C442 C445 1.409 . S
C443 H435 0.930 . S
C443 C444 1.355 . S
C443 C445 1.415 . S
C444 C443 1.355 . S
C444 C446 1.419 . S
C445 C440 1.425 . S
C445 C442 1.409 . S
C445 C443 1.415 . S
C446 H436 0.930 . S
C446 C444 1.419 . S
C446 C447 1.362 . S
C447 H437 0.930 . S
C447 C440 1.409 . S
C447 C446 1.362 . S
H448 C454 0.930 . S
H449 C457 0.930 . S
H450 C458 0.930 . S
H451 C459 0.930 . S
H452 C462 0.930 . S
H453 C463 0.930 . S
C454 H448 0.930 . S
C454 C455 1.355 . S
C454 C456 1.415 . S
C455 C454 1.355 . S
C455 C457 1.419 . S
C456 C454 1.415 . S
C456 C461 1.425 . S
C456 C463 1.409 . S
C457 H449 0.930 . S
C457 C455 1.419 . S
C457 C458 1.362 . S
C458 H450 0.930 . S
C458 C457 1.362 . S
C458 C461 1.409 . S
C459 H451 0.930 . S
C459 C460 1.355 . S
C459 C461 1.415 . S
C460 C459 1.355 . S
C460 C462 1.419 . S
C461 C456 1.425 . S
C461 C458 1.409 . S
C461 C459 1.415 . S
C462 H452 0.930 . S
C462 C460 1.419 . S
C462 C463 1.362 . S
C463 H453 0.930 . S
C463 C456 1.409 . S
C463 C462 1.362 . S
H464 C470 0.930 . S
H465 C473 0.930 . S
H466 C474 0.930 . S
H467 C475 0.930 . S
H468 C478 0.930 . S
H469 C479 0.930 . S
C470 H464 0.930 . S
C470 C471 1.355 . S
C470 C472 1.415 . S
C471 C470 1.355 . S
C471 C473 1.419 . S
C472 C470 1.415 . S
C472 C477 1.425 . S
C472 C479 1.409 . S
C473 H465 0.930 . S
C473 C471 1.419 . S
C473 C474 1.362 . S
C474 H466 0.930 . S
C474 C473 1.362 . S
C474 C477 1.409 . S
C475 H467 0.930 . S
C475 C476 1.355 . S
C475 C477 1.415 . S
C476 C475 1.355 . S
C476 C478 1.419 . S
C477 C472 1.425 . S
C477 C474 1.409 . S
C477 C475 1.415 . S
C478 H468 0.930 . S
C478 C476 1.419 . S
C478 C479 1.362 . S
C479 H469 0.930 . S
C479 C472 1.409 . S
C479 C478 1.362 . S
H480 C486 0.930 . S
H481 C489 0.930 . S
H482 C490 0.930 . S
H483 C491 0.930 . S
H484 C494 0.930 . S
H485 C495 0.930 . S
C486 H480 0.930 . S
C486 C487 1.355 . S
C486 C488 1.415 . S
C487 C486 1.355 . S
C487 C489 1.419 . S
C488 C486 1.415 . S
C488 C493 1.425 . S
C488 C495 1.409 . S
C489 H481 0.930 . S
C489 C487 1.419 . S
C489 C490 1.362 . S
C490 H482 0.930 . S
C490 C489 1.362 . S
C490 C493 1.409 . S
C491 H483 0.930 . S
C491 C492 1.355 . S
C491 C493 1.415 . S
C492 C491 1.355 . S
C492 C494 1.419 . S
C493 C488 1.425 . S
C493 C490 1.409 . S
C493 C491 1.415 . S
C494 H484 0.930 . S
C494 C492 1.419 . S
C494 C495 1.362 . S
C495 H485 0.930 . S
C495 C488 1.409 . S
C495 C494 1.362 . S
H496 C502 0.930 . S
H497 C505 0.930 . S
H498 C506 0.930 . S
H499 C507 0.930 . S
H500 C510 0.930 . S
H501 C511 0.930 . S
C502 H496 0.930 . S
C502 C503 1.355 . S
C502 C504 1.415 . S
C503 C502 1.355 . S
C503 C505 1.419 . S
C504 C502 1.415 . S
C504 C509 1.425 . S
C504 C511 1.409 . S
C505 H497 0.930 . S
C505 C503 1.419 . S
C505 C506 1.362 . S
C506 H498 0.930 . S
C506 C505 1.362 . S
C506 C509 1.409 . S
C507 H499 0.930 . S
C507 C508 1.355 . S
C507 C509 1.415 . S
C508 C507 1.355 . S
C508 C510 1.419 . S
C509 C504 1.425 . S
C509 C506 1.409 . S
C509 C507 1.415 . S
C510 H500 0.930 . S
C510 C508 1.419 . S
C510 C511 1.362 . S
C511 H501 0.930 . S
C511 C504 1.409 . S
C511 C510 1.362 . S
H512 C518 0.930 . S
H513 C521 0.930 . S
H514 C522 0.930 . S
H515 C523 0.930 . S
H516 C526 0.930 . S
H517 C527 0.930 . S
C518 H512 0.930 . S
C518 C519 1.355 . S
C518 C520 1.415 . S
C519 C518 1.355 . S
C519 C521 1.419 . S
C520 C518 1.415 . S
C520 C525 1.425 . S
C520 C527 1.409 . S
C521 H513 0.930 . S
C521 C519 1.419 . S
C521 C522 1.362 . S
C522 H514 0.930 . S
C522 C521 1.362 . S
C522 C525 1.409 . S
C523 H515 0.930 . S
C523 C524 1.355 . S
C523 C525 1.415 . S
C524 C523 1.355 . S
C524 C526 1.419 . S
C525 C520 1.425 . S
C525 C522 1.409 . S
C525 C523 1.415 . S
C526 H516 0.930 . S
C526 C524 1.419 . S
C526 C527 1.362 . S
C527 H517 0.930 . S
C527 C520 1.409 . S
C527 C526 1.362 . S
H528 C534 0.930 . S
H529 C537 0.930 . S
H530 C538 0.930 . S
H531 C539 0.930 . S
H532 C542 0.930 . S
H533 C543 0.930 . S
C534 H528 0.930 . S
C534 C535 1.355 . S
C534 C536 1.415 . S
C535 C534 1.355 . S
C535 C537 1.419 . S
C536 C534 1.415 . S
C536 C541 1.425 . S
C536 C543 1.409 . S
C537 H529 0.930 . S
C537 C535 1.419 . S
C537 C538 1.362 . S
C538 H530 0.930 . S
C538 C537 1.362 . S
C538 C541 1.409 . S
C539 H531 0.930 . S
C539 C540 1.355 . S
C539 C541 1.415 . S
C540 C539 1.355 . S
C540 C542 1.419 . S
C541 C536 1.425 . S
C541 C538 1.409 . S
C541 C539 1.415 . S
C542 H532 0.930 . S
C542 C540 1.419 . S
C542 C543 1.362 . S
C543 H533 0.930 . S
C543 C536 1.409 . S
C543 C542 1.362 . S
H544 C550 0.930 . S
H545 C553 0.930 . S
H546 C554 0.930 . S
H547 C555 0.930 . S
H548 C558 0.930 . S
H549 C559 0.930 . S
C550 H544 0.930 . S
C550 C551 1.355 . S
C550 C552 1.415 . S
C551 C550 1.355 . S
C551 C553 1.419 . S
C552 C550 1.415 . S
C552 C557 1.425 . S
C552 C559 1.409 . S
C553 H545 0.930 . S
C553 C551 1.419 . S
C553 C554 1.362 . S
C554 H546 0.930 . S
C554 C553 1.362 . S
C554 C557 1.409 . S
C555 H547 0.930 . S
C555 C556 1.355 . S
C555 C557 1.415 . S
C556 C555 1.355 . S
C556 C558 1.419 . S
C557 C552 1.425 . S
C557 C554 1.409 . S
C557 C555 1.415 . S
C558 H548 0.930 . S
C558 C556 1.419 . S
C558 C559 1.362 . S
C559 H549 0.930 . S
C559 C552 1.409 . S
C559 C558 1.362 . S
C183 C6 1.538 . S
C188 C115 1.537 . S
C199 C18 1.514 . S
C204 C118 1.478 . S
C220 C154 1.826 . S
C215 C28 1.809 . S
C231 C40 1.216 . S
C236 C174 1.182 . S
C252 C128 1.848 . S
C247 C9 1.866 . S
C268 C105 1.414 . S
C263 C16 1.448 . S
C284 C158 1.443 . S
C279 C30 1.608 . S
C300 C138 1.110 . S
C295 C42 1.198 . S
C311 C4 1.377 . S
C316 C168 1.243 . S
C332 C134 1.761 . S
C327 C33 1.752 . S
C343 C45 1.454 . S
C348 C100 1.455 . S
C359 C21 1.522 . S
C364 C148 1.504 . S
C380 C114 1.595 . S
C375 C57 1.599 . S
C391 C66 1.486 . S
C396 C120 1.409 . S
C407 C76 1.832 . S
C412 C155 1.838 . S
C423 C88 1.159 . S
C428 C175 1.164 . S
C439 C54 1.869 . S
C444 C125 1.851 . S
C460 C108 1.480 . S
C455 C64 1.502 . S
C476 C160 1.458 . S
C471 C78 1.570 . S
C492 C140 1.227 . S
C487 C93 1.283 . S
C503 C52 1.327 . S
C508 C165 1.211 . S
C524 C135 1.735 . S
C519 C81 1.764 . S
C540 C98 1.365 . S
C535 C90 1.453 . S
C551 C69 1.530 . S
C556 C145 1.476 . S
