# Generated by pormake.
# Topology pyr, (3,6)-cn, num edge types: 1
# Building blocks:
#     Node 0, Type 0, BuildingBlock: BELTOD_clean_linker_0, # of connection points: 3
#     Node 1, Type 0, BuildingBlock: BELTOD_clean_linker_0, # of connection points: 3
#     Node 2, Type 0, BuildingBlock: BELTOD_clean_linker_0, # of connection points: 3
#     Node 3, Type 0, BuildingBlock: BELTOD_clean_linker_0, # of connection points: 3
#     Node 4, Type 0, BuildingBlock: BELTOD_clean_linker_0, # of connection points: 3
#     Node 5, Type 0, BuildingBlock: BELTOD_clean_linker_0, # of connection points: 3
#     Node 6, Type 0, BuildingBlock: BELTOD_clean_linker_0, # of connection points: 3
#     Node 7, Type 0, BuildingBlock: BELTOD_clean_linker_0, # of connection points: 3
#     Node 8, Type 1, BuildingBlock: GEDQOX_clean_sbu_0, # of connection points: 6
#     Node 9, Type 1, BuildingBlock: GEDQOX_clean_sbu_0, # of connection points: 6
#     Node 10, Type 1, BuildingBlock: GEDQOX_clean_sbu_0, # of connection points: 6
#     Node 11, Type 1, BuildingBlock: GEDQOX_clean_sbu_0, # of connection points: 6
#     Edge 12, Type (0, 1), BuildingBlock: OJICUG_clean_linker_0, # of connection points: 2
#     Edge 13, Type (0, 1), BuildingBlock: OJICUG_clean_linker_0, # of connection points: 2
#     Edge 14, Type (0, 1), BuildingBlock: OJICUG_clean_linker_0, # of connection points: 2
#     Edge 15, Type (0, 1), BuildingBlock: OJICUG_clean_linker_0, # of connection points: 2
#     Edge 16, Type (0, 1), BuildingBlock: OJICUG_clean_linker_0, # of connection points: 2
#     Edge 17, Type (0, 1), BuildingBlock: OJICUG_clean_linker_0, # of connection points: 2
#     Edge 18, Type (0, 1), BuildingBlock: OJICUG_clean_linker_0, # of connection points: 2
#     Edge 19, Type (0, 1), BuildingBlock: OJICUG_clean_linker_0, # of connection points: 2
#     Edge 20, Type (0, 1), BuildingBlock: OJICUG_clean_linker_0, # of connection points: 2
#     Edge 21, Type (0, 1), BuildingBlock: OJICUG_clean_linker_0, # of connection points: 2
#     Edge 22, Type (0, 1), BuildingBlock: OJICUG_clean_linker_0, # of connection points: 2
#     Edge 23, Type (0, 1), BuildingBlock: OJICUG_clean_linker_0, # of connection points: 2
#     Edge 24, Type (0, 1), BuildingBlock: OJICUG_clean_linker_0, # of connection points: 2
#     Edge 25, Type (0, 1), BuildingBlock: OJICUG_clean_linker_0, # of connection points: 2
#     Edge 26, Type (0, 1), BuildingBlock: OJICUG_clean_linker_0, # of connection points: 2
#     Edge 27, Type (0, 1), BuildingBlock: OJICUG_clean_linker_0, # of connection points: 2
#     Edge 28, Type (0, 1), BuildingBlock: OJICUG_clean_linker_0, # of connection points: 2
#     Edge 29, Type (0, 1), BuildingBlock: OJICUG_clean_linker_0, # of connection points: 2
#     Edge 30, Type (0, 1), BuildingBlock: OJICUG_clean_linker_0, # of connection points: 2
#     Edge 31, Type (0, 1), BuildingBlock: OJICUG_clean_linker_0, # of connection points: 2
#     Edge 32, Type (0, 1), BuildingBlock: OJICUG_clean_linker_0, # of connection points: 2
#     Edge 33, Type (0, 1), BuildingBlock: OJICUG_clean_linker_0, # of connection points: 2
#     Edge 34, Type (0, 1), BuildingBlock: OJICUG_clean_linker_0, # of connection points: 2
#     Edge 35, Type (0, 1), BuildingBlock: OJICUG_clean_linker_0, # of connection points: 2
# Relax obj value: 0.155
# Max RMSD: 0.172
# Mean RMSD: 0.068
data_MOF--net-pyr--node1-GEDQOX_clean_sbu_0--node2-BELTOD_clean_linker_0--edge1-OJICUG_clean_linker_0
_symmetry_space_group_name_H-M    P1
_symmetry_Int_Tables_number       1
_symmetry_cell_setting            triclinic
loop_
_symmetry_equiv_pos_as_xyz
'x, y, z'
_cell_length_a     35.181791
_cell_length_b     35.266021
_cell_length_c     30.428687
_cell_angle_alpha  87.585048
_cell_angle_beta   90.676981
_cell_angle_gamma 83.68559
loop_
_atom_site_label
_atom_site_type_symbol
_atom_site_fract_x
_atom_site_fract_y
_atom_site_fract_z
_atom_type_partial_charge
P0 P 0.21344 0.19922 0.2 0.0
H1 H 0.28447 0.22567 0.16741 0.0
H2 H 0.34268 0.1945 0.13574 0.0
H3 H 0.29109 0.08931 0.13157 0.0
H4 H 0.23258 0.12084 0.16428 0.0
H5 H 0.14862 0.2524 0.22718 0.0
H6 H 0.11226 0.30865 0.19376 0.0
H7 H 0.18075 0.29654 0.07705 0.0
H8 H 0.21474 0.23766 0.10995 0.0
H9 H 0.23644 0.1362 0.26486 0.0
H10 H 0.1297 0.19077 0.21039 0.0
O11 O 0.23556 0.22135 0.2386 0.0
H12 H 0.2015 0.10206 0.32049 0.0
H13 H 0.09492 0.15839 0.26735 0.0
C14 C 0.25362 0.17593 0.16864 0.0
C15 C 0.28524 0.19598 0.15932 0.0
C16 C 0.31892 0.1779 0.14132 0.0
C17 C 0.3223 0.139 0.13122 0.0
C18 C 0.28988 0.11925 0.13862 0.0
C19 C 0.25616 0.13736 0.15739 0.0
C20 C 0.18366 0.23914 0.17081 0.0
C21 C 0.15498 0.26082 0.19369 0.0
C22 C 0.13462 0.29419 0.17458 0.0
C23 C 0.14313 0.30865 0.13218 0.0
C24 C 0.17223 0.28684 0.10927 0.0
C25 C 0.19206 0.25274 0.12823 0.0
C26 C 0.18618 0.16666 0.23304 0.0
C27 C 0.20548 0.14047 0.26419 0.0
C28 C 0.18536 0.12104 0.29641 0.0
C29 C 0.1452 0.12777 0.29924 0.0
C30 C 0.1258 0.15286 0.26695 0.0
C31 C 0.1459 0.17155 0.23407 0.0
P32 P 0.38719 0.82336 0.74775 0.0
H33 H 0.4633 0.82332 0.78692 0.0
H34 H 0.48576 0.8568 0.84945 0.0
H35 H 0.36882 0.88862 0.88611 0.0
H36 H 0.34657 0.85463 0.82437 0.0
H37 H 0.3946 0.79941 0.65879 0.0
H38 H 0.419 0.73946 0.62688 0.0
H39 H 0.45674 0.69327 0.75568 0.0
H40 H 0.43135 0.75366 0.78789 0.0
H41 H 0.31975 0.87916 0.74674 0.0
H42 H 0.34354 0.75667 0.74176 0.0
O43 O 0.39451 0.85989 0.71339 0.0
H44 H 0.25291 0.87468 0.72678 0.0
H45 H 0.27718 0.75252 0.71953 0.0
C46 C 0.40327 0.83601 0.80109 0.0
C47 C 0.44254 0.83614 0.80945 0.0
C48 C 0.45534 0.85544 0.84509 0.0
C49 C 0.42898 0.87561 0.87237 0.0
C50 C 0.38974 0.8736 0.86537 0.0
C51 C 0.37702 0.85391 0.83011 0.0
C52 C 0.41208 0.78129 0.7255 0.0
C53 C 0.40877 0.77669 0.68016 0.0
C54 C 0.42221 0.74225 0.66201 0.0
C55 C 0.43944 0.71168 0.68887 0.0
C56 C 0.44362 0.71651 0.7343 0.0
C57 C 0.42948 0.75101 0.75264 0.0
C58 C 0.3368 0.81843 0.74502 0.0
C59 C 0.31042 0.85125 0.74249 0.0
C60 C 0.27226 0.84865 0.73125 0.0
C61 C 0.26017 0.81324 0.72153 0.0
C62 C 0.28597 0.78007 0.72696 0.0
C63 C 0.32395 0.78258 0.73936 0.0
P64 P 0.78889 0.38426 0.79984 0.0
H65 H 0.84896 0.35811 0.86333 0.0
H66 H 0.88718 0.39145 0.91324 0.0
H67 H 0.81664 0.49721 0.87953 0.0
H68 H 0.77928 0.46363 0.82857 0.0
H69 H 0.76908 0.31489 0.76186 0.0
H70 H 0.72686 0.26785 0.78596 0.0
H71 H 0.71179 0.32288 0.90979 0.0
H72 H 0.7547 0.36943 0.88565 0.0
H73 H 0.79115 0.42729 0.71532 0.0
H74 H 0.70742 0.40695 0.81358 0.0
O75 O 0.82296 0.36675 0.76621 0.0
H76 H 0.73978 0.45628 0.66515 0.0
H77 H 0.65629 0.43462 0.76312 0.0
C78 C 0.81162 0.40846 0.84203 0.0
C79 C 0.84138 0.38838 0.86728 0.0
C80 C 0.86302 0.40748 0.89612 0.0
C81 C 0.85523 0.44715 0.90027 0.0
C82 C 0.82384 0.46677 0.87663 0.0
C83 C 0.80231 0.44759 0.84759 0.0
C84 C 0.7656 0.34511 0.82231 0.0
C85 C 0.7576 0.31611 0.79471 0.0
C86 C 0.73305 0.28957 0.8083 0.0
C87 C 0.71571 0.29185 0.84963 0.0
C88 C 0.72502 0.3201 0.87796 0.0
C89 C 0.74965 0.34666 0.86428 0.0
C90 C 0.75302 0.41411 0.76774 0.0
C91 C 0.76189 0.42969 0.72642 0.0
C92 C 0.73263 0.44625 0.69783 0.0
C93 C 0.69425 0.44702 0.71024 0.0
C94 C 0.68572 0.4339 0.75277 0.0
C95 C 0.71495 0.41805 0.78154 0.0
P96 P 0.78764 0.90549 0.27388 0.0
H97 H 0.84982 0.95231 0.2578 0.0
H98 H 0.89152 0.98296 0.3071 0.0
H99 H 0.82831 0.94512 0.41862 0.0
H100 H 0.78629 0.91589 0.36935 0.0
H101 H 0.77275 0.86489 0.1956 0.0
H102 H 0.80504 0.80605 0.16791 0.0
H103 H 0.90032 0.8139 0.25676 0.0
H104 H 0.86738 0.87167 0.2853 0.0
H105 H 0.70489 0.89812 0.27756 0.0
H106 H 0.80981 0.84215 0.33581 0.0
O107 O 0.75978 0.93605 0.2409 0.0
H108 H 0.6695 0.84855 0.31175 0.0
H109 H 0.77491 0.79266 0.36929 0.0
C110 C 0.81545 0.93125 0.30993 0.0
C111 C 0.84481 0.95101 0.29286 0.0
C112 C 0.86879 0.96818 0.32109 0.0
C113 C 0.86351 0.96612 0.36685 0.0
C114 C 0.83307 0.94745 0.38356 0.0
C115 C 0.80914 0.93038 0.35533 0.0
C116 C 0.81782 0.87309 0.24199 0.0
C117 C 0.8013 0.85481 0.20776 0.0
C118 C 0.81975 0.82104 0.1921 0.0
C119 C 0.85498 0.805 0.21068 0.0
C120 C 0.87288 0.8252 0.24235 0.0
C121 C 0.8543 0.85874 0.25817 0.0
C122 C 0.75991 0.87381 0.30435 0.0
C123 C 0.72019 0.87558 0.2982 0.0
C124 C 0.70006 0.84725 0.31757 0.0
C125 C 0.71963 0.81659 0.34259 0.0
C126 C 0.75924 0.81564 0.34956 0.0
C127 C 0.77913 0.84406 0.33074 0.0
P128 P 0.87227 0.88757 0.89475 0.0
H129 H 0.83434 0.89848 0.9796 0.0
H130 H 0.77067 0.92407 1.0019 0.0
H131 H 0.73497 0.93797 0.86529 0.0
H132 H 0.79848 0.91029 0.84362 0.0
H133 H 0.8927 0.84858 0.98047 0.0
H134 H 0.92183 0.78474 1.00379 0.0
H135 H 0.91875 0.75053 0.8695 0.0
H136 H 0.88834 0.81461 0.8464 0.0
H137 H 0.84758 0.95416 0.83352 0.0
H138 H 0.93644 0.85985 0.8375 0.0
O139 O 0.89741 0.9125 0.92771 0.0
H140 H 0.87482 0.9804 0.76677 0.0
H141 H 0.96377 0.88575 0.77116 0.0
C142 C 0.8221 0.90255 0.90967 0.0
C143 C 0.81275 0.90655 0.95427 0.0
C144 C 0.77597 0.92192 0.9671 0.0
C145 C 0.74669 0.93419 0.93581 0.0
C146 C 0.75591 0.92896 0.891 0.0
C147 C 0.79277 0.91321 0.87824 0.0
C148 C 0.88865 0.83731 0.91135 0.0
C149 C 0.89769 0.82738 0.95586 0.0
C150 C 0.91457 0.79053 0.96929 0.0
C151 C 0.92343 0.76206 0.93866 0.0
C152 C 0.91321 0.77162 0.89414 0.0
C153 C 0.89556 0.80846 0.88083 0.0
C154 C 0.88794 0.90321 0.83975 0.0
C155 C 0.872 0.93806 0.8193 0.0
C156 C 0.88828 0.95363 0.78126 0.0
C157 C 0.9216 0.93526 0.76253 0.0
C158 C 0.93762 0.90051 0.78328 0.0
C159 C 0.92148 0.88518 0.82143 0.0
P160 P 0.69572 0.3022 0.23608 0.0
H161 H 0.71197 0.37296 0.2717 0.0
H162 H 0.68195 0.41313 0.32689 0.0
H163 H 0.58826 0.34311 0.33289 0.0
H164 H 0.62089 0.30085 0.28047 0.0
H165 H 0.77531 0.3196 0.23564 0.0
H166 H 0.82893 0.30201 0.28688 0.0
H167 H 0.75957 0.22999 0.36249 0.0
H168 H 0.70577 0.2488 0.31182 0.0
H169 H 0.61973 0.29877 0.19692 0.0
H170 H 0.72108 0.22098 0.22591 0.0
O171 O 0.70938 0.32741 0.19258 0.0
H172 H 0.59021 0.24783 0.1619 0.0
H173 H 0.69232 0.17039 0.19028 0.0
C174 C 0.66828 0.33444 0.27107 0.0
C175 C 0.68468 0.36654 0.28452 0.0
C176 C 0.66718 0.38976 0.31612 0.0
C177 C 0.63216 0.382 0.33454 0.0
C178 C 0.61538 0.34999 0.3202 0.0
C179 C 0.63364 0.32606 0.28935 0.0
C180 C 0.73691 0.28479 0.26949 0.0
C181 C 0.77187 0.29956 0.26286 0.0
C182 C 0.80251 0.28951 0.29223 0.0
C183 C 0.79855 0.26468 0.3289 0.0
C184 C 0.76345 0.24964 0.33501 0.0
C185 C 0.73284 0.25989 0.30576 0.0
C186 C 0.67202 0.26343 0.21562 0.0
C187 C 0.63532 0.27054 0.19662 0.0
C188 C 0.6187 0.24148 0.17606 0.0
C189 C 0.63883 0.20485 0.17335 0.0
C190 C 0.67563 0.19791 0.19254 0.0
C191 C 0.69213 0.22696 0.21311 0.0
P192 P 0.34633 0.61355 0.17996 0.0
H193 H 0.31274 0.61547 0.09286 0.0
H194 H 0.24786 0.61146 0.06544 0.0
H195 H 0.20732 0.60963 0.19891 0.0
H196 H 0.27255 0.61417 0.22616 0.0
H197 H 0.42497 0.62444 0.16052 0.0
H198 H 0.45633 0.68145 0.14403 0.0
H199 H 0.34588 0.74877 0.13373 0.0
H200 H 0.31489 0.69162 0.15216 0.0
H201 H 0.3378 0.55491 0.24891 0.0
H202 H 0.37231 0.6686 0.24111 0.0
O203 O 0.3699 0.57405 0.16106 0.0
H204 H 0.36199 0.5467 0.32473 0.0
H205 H 0.39904 0.65973 0.31461 0.0
C206 C 0.29742 0.6149 0.16146 0.0
C207 C 0.28979 0.61465 0.11621 0.0
C208 C 0.25274 0.61221 0.10059 0.0
C209 C 0.22251 0.6099 0.13001 0.0
C210 C 0.22998 0.61164 0.17542 0.0
C211 C 0.26726 0.61399 0.19106 0.0
C212 C 0.36764 0.65371 0.15675 0.0
C213 C 0.40748 0.65131 0.1535 0.0
C214 C 0.42538 0.68402 0.14403 0.0
C215 C 0.40367 0.71983 0.13766 0.0
C216 C 0.36351 0.72177 0.13906 0.0
C217 C 0.34568 0.68901 0.14896 0.0
C218 C 0.35392 0.61195 0.23884 0.0
C219 C 0.35007 0.5783 0.26368 0.0
C220 C 0.36445 0.57351 0.30691 0.0
C221 C 0.38367 0.60208 0.32579 0.0
C222 C 0.3845 0.63697 0.30177 0.0
C223 C 0.36945 0.64196 0.25901 0.0
P224 P 0.28736 0.15405 0.76697 0.0
H225 H 0.29692 0.09637 0.70123 0.0
H226 H 0.25167 0.06582 0.65712 0.0
H227 H 0.15781 0.12804 0.7235 0.0
H228 H 0.2033 0.15575 0.76968 0.0
H229 H 0.36812 0.1657 0.7751 0.0
H230 H 0.40771 0.20495 0.73094 0.0
H231 H 0.31588 0.22721 0.63436 0.0
H232 H 0.2776 0.18665 0.67752 0.0
H233 H 0.29541 0.18533 0.85427 0.0
H234 H 0.23202 0.21614 0.73348 0.0
O235 O 0.31081 0.12412 0.8045 0.0
H236 H 0.26794 0.24514 0.88557 0.0
H237 H 0.20459 0.27547 0.76438 0.0
C238 C 0.25351 0.12928 0.73767 0.0
C239 C 0.26657 0.10306 0.70649 0.0
C240 C 0.24055 0.08594 0.68094 0.0
C241 C 0.20083 0.09507 0.68578 0.0
C242 C 0.18802 0.12012 0.71867 0.0
C243 C 0.21414 0.13657 0.7448 0.0
C244 C 0.32018 0.17285 0.72928 0.0
C245 C 0.3572 0.17785 0.74356 0.0
C246 C 0.37959 0.20074 0.71851 0.0
C247 C 0.36489 0.21971 0.67925 0.0
C248 C 0.32851 0.21272 0.66396 0.0
C249 C 0.30641 0.18953 0.68877 0.0
C250 C 0.26472 0.19575 0.79211 0.0
C251 C 0.27517 0.20463 0.83477 0.0
C252 C 0.25981 0.23892 0.85241 0.0
C253 C 0.23387 0.2647 0.82751 0.0
C254 C 0.22395 0.25581 0.78461 0.0
C255 C 0.23954 0.22185 0.76697 0.0
Nd256 Nd 0.04828 0.99429 0.51822 0.0
Nd257 Nd 1.01191 0.06824 0.53799 0.0
C258 C 0.06805 0.92041 0.51186 0.0
C259 C 0.08428 0.89405 0.54745 0.0
C260 C 0.0984 0.85628 0.53978 0.0
C261 C 0.1197 0.83404 0.57268 0.0
C262 C 0.12769 0.84962 0.61334 0.0
C263 C 0.11116 0.88682 0.6214 0.0
C264 C 0.08962 0.90864 0.58891 0.0
C265 C 0.09461 0.03431 0.56797 0.0
C266 C 0.99563 1.00224 0.60831 0.0
C267 C 0.99013 0.14157 0.54645 0.0
C268 C 0.97078 0.16891 0.51361 0.0
C269 C 0.94762 0.2012 0.52669 0.0
C270 C 0.92311 0.22266 0.49611 0.0
C271 C 0.92125 0.21184 0.45215 0.0
C272 C 0.94611 0.18057 0.4389 0.0
C273 C 0.97054 0.1593 0.46935 0.0
C274 C 0.96589 0.02828 0.48767 0.0
C275 C 0.06559 0.06033 0.44834 0.0
O276 O 0.03269 0.93496 0.51715 0.0
O277 O 0.09014 0.94625 0.49981 0.0
O278 O 0.10628 1.01421 0.53528 0.0
O279 O 0.05965 0.03234 0.57473 0.0
O280 O 1.00796 0.9802 0.5761 0.0
O281 O 0.99981 0.039 0.60504 0.0
O282 O 1.02534 0.12834 0.53788 0.0
O283 O 0.96963 0.11468 0.55945 0.0
O284 O 0.95396 0.0485 0.52017 0.0
O285 O 1.0009 0.03025 0.4814 0.0
O286 O 0.05197 0.08264 0.47983 0.0
O287 O 0.06236 1.02335 0.45184 0.0
H288 H 0.0944 0.84459 0.50791 0.0
H289 H 0.13129 0.80528 0.56553 0.0
H290 H 0.11701 0.90041 0.6516 0.0
H291 H 0.07912 0.93792 0.5953 0.0
H292 H 0.94717 0.20874 0.56084 0.0
H293 H 0.90465 0.24687 0.50723 0.0
H294 H 0.94505 0.17096 0.40562 0.0
H295 H 0.98764 0.13397 0.45878 0.0
Nd296 Nd 0.53769 1.01167 0.06678 0.0
Nd297 Nd 0.52729 0.05786 0.99462 0.0
C298 C 0.54707 0.95163 0.12255 0.0
C299 C 0.52513 0.91869 0.12813 0.0
C300 C 0.54417 0.88229 0.1382 0.0
C301 C 0.52396 0.85029 0.13915 0.0
C302 C 0.48436 0.85431 0.13025 0.0
C303 C 0.46531 0.8909 0.12073 0.0
C304 C 0.48557 0.92279 0.11934 0.0
C305 C 0.47161 0.06256 0.0761 0.0
C306 C 0.48935 0.98348 0.98484 0.0
C307 C 0.51919 0.11568 0.93564 0.0
C308 C 0.54452 0.14454 0.92147 0.0
C309 C 0.55413 0.17244 0.95009 0.0
C310 C 0.58108 0.19705 0.93803 0.0
C311 C 0.5989 0.19447 0.897 0.0
C312 C 0.58833 0.16743 0.86781 0.0
C313 C 0.56138 0.14278 0.87991 0.0
C314 C 0.5937 1.00704 0.98614 0.0
C315 C 0.57383 0.0875 0.07787 0.0
O316 O 0.56531 0.95354 0.08564 0.0
O317 O 0.52975 0.98464 0.13272 0.0
O318 O 0.49908 0.05564 0.10496 0.0
O319 O 0.48007 0.04421 0.04177 0.0
O320 O 0.51474 0.97236 1.01601 0.0
O321 O 0.48239 1.01997 0.97435 0.0
O322 O 0.50581 0.11779 0.9754 0.0
O323 O 0.53016 0.0806 0.92569 0.0
O324 O 0.56634 1.01354 0.95714 0.0
O325 O 0.58483 0.0258 1.02004 0.0
O326 O 0.55072 0.09777 0.04416 0.0
O327 O 0.57945 0.05142 0.09096 0.0
H328 H 0.57476 0.87856 0.14448 0.0
H329 H 0.53924 0.8224 0.14689 0.0
H330 H 0.43491 0.89473 0.11325 0.0
H331 H 0.47042 0.95055 0.11051 0.0
H332 H 0.54136 0.1749 0.98218 0.0
H333 H 0.58802 0.21807 0.96091 0.0
H334 H 0.6017 0.16453 0.83607 0.0
H335 H 0.55444 0.12163 0.85717 0.0
Nd336 Nd 0.50153 0.5039 0.54085 0.0
Nd337 Nd 0.55799 0.55885 0.52064 0.0
C338 C 0.44216 0.46607 0.55755 0.0
C339 C 0.43633 0.42644 0.56989 0.0
C340 C 0.40259 0.41204 0.55689 0.0
C341 C 0.39556 0.37524 0.57089 0.0
C342 C 0.42211 0.35242 0.59835 0.0
C343 C 0.45651 0.3665 0.61006 0.0
C344 C 0.46367 0.40314 0.59573 0.0
C345 C 0.57007 0.48545 0.58533 0.0
C346 C 0.49873 0.58142 0.5929 0.0
C347 C 0.61573 0.60018 0.50833 0.0
C348 C 0.62696 0.63182 0.47985 0.0
C349 C 0.63147 0.66675 0.49865 0.0
C350 C 0.6429 0.69711 0.47313 0.0
C351 C 0.65046 0.69307 0.42828 0.0
C352 C 0.6458 0.65816 0.40929 0.0
C353 C 0.63401 0.62778 0.43483 0.0
C354 C 0.49002 0.57414 0.47288 0.0
C355 C 0.56465 0.478 0.47 0.0
O356 O 0.4591 0.4845 0.58714 0.0
O357 O 0.45418 0.47248 0.51773 0.0
O358 O 0.54915 0.46045 0.57095 0.0
O359 O 0.55338 0.5187 0.57909 0.0
O360 O 0.47705 0.561 0.56993 0.0
O361 O 0.53578 0.57761 0.58699 0.0
O362 O 0.61445 0.56676 0.49161 0.0
O363 O 0.58769 0.60902 0.53499 0.0
O364 O 0.50912 0.60045 0.48753 0.0
O365 O 0.5081 0.54201 0.48127 0.0
O366 O 0.58308 0.50607 0.48394 0.0
O367 O 0.53018 0.47278 0.48381 0.0
H368 H 0.38128 0.42959 0.53681 0.0
H369 H 0.36864 0.36526 0.56174 0.0
H370 H 0.47759 0.34937 0.63087 0.0
H371 H 0.49015 0.41359 0.60569 0.0
H372 H 0.62655 0.67045 0.53338 0.0
H373 H 0.64692 0.72341 0.48884 0.0
H374 H 0.65135 0.65435 0.37472 0.0
H375 H 0.63074 0.60117 0.41941 0.0
Nd376 Nd 1.0089 0.53698 0.06907 0.0
Nd377 Nd 0.05354 0.53036 0.98812 0.0
C378 C 0.95955 0.54043 0.13328 0.0
C379 C 0.93995 0.57477 0.15308 0.0
C380 C 0.90413 0.59107 0.13636 0.0
C381 C 0.88925 0.62763 0.14772 0.0
C382 C 0.90967 0.64846 0.17639 0.0
C383 C 0.94415 0.63113 0.19552 0.0
C384 C 0.95913 0.59465 0.18404 0.0
C385 C 0.07434 0.57319 0.07204 0.0
C386 C 1.00034 0.61058 0.99873 0.0
C387 C 0.10446 0.5139 0.92663 0.0
C388 C 0.12663 0.4775 0.91675 0.0
C389 C 0.162 0.47672 0.89588 0.0
C390 C 0.18151 0.44184 0.88427 0.0
C391 C 0.16569 0.40743 0.89332 0.0
C392 C 0.13096 0.40838 0.91566 0.0
C393 C 0.11162 0.44301 0.92714 0.0
C394 C 0.97863 0.51787 0.97671 0.0
C395 C 0.06384 0.45636 0.06083 0.0
O396 O 0.94976 0.53536 0.09243 0.0
O397 O 0.99656 0.53382 0.14029 0.0
O398 O 0.04188 0.58746 0.08733 0.0
O399 O 0.07136 0.54107 0.05679 0.0
O400 O 0.98223 0.59025 0.0276 0.0
O401 O 0.03369 0.59589 0.98323 0.0
O402 O 0.11308 0.52915 0.96337 0.0
O403 O 0.06764 0.51485 0.92026 0.0
O404 O 0.99661 0.53939 0.95056 0.0
O405 O 0.99996 0.50407 1.00853 0.0
O406 O 0.07106 0.46949 0.02066 0.0
O407 O 0.04074 0.47718 0.08666 0.0
H408 H 0.88842 0.57635 0.11281 0.0
H409 H 0.86216 0.63995 0.13327 0.0
H410 H 0.96053 0.64649 0.21775 0.0
H411 H 0.98668 0.58291 0.19777 0.0
H412 H 0.17405 0.50305 0.8877 0.0
H413 H 0.20819 0.44188 0.86689 0.0
H414 H 0.11838 0.3823 0.92365 0.0
H415 H 0.08434 0.44282 0.94319 0.0
C416 C 0.13144 0.07091 0.34924 0.0
C417 C 0.12392 0.11 0.33653 0.0
H418 H 0.1187 1.02456 0.3931 0.0
C419 C 0.09639 0.13228 0.36067 0.0
H420 H 0.15226 0.05269 0.33159 0.0
C421 C 0.07769 0.11629 0.39666 0.0
C422 C 0.08506 0.07718 0.40921 0.0
H423 H 0.08991 0.16248 0.35235 0.0
H424 H 0.05723 0.13467 0.4146 0.0
C425 C 0.11199 0.05469 0.38454 0.0
C426 C 0.47306 0.89038 0.9335 0.0
C427 C 0.44217 0.90202 0.90459 0.0
H428 H 0.51167 0.90687 0.98233 0.0
C429 C 0.42541 0.94012 0.90432 0.0
H430 H 0.48641 0.86117 0.93444 0.0
C431 C 0.44012 0.9664 0.9312 0.0
C432 C 0.47157 0.95501 0.95938 0.0
H433 H 0.40183 0.95001 0.88203 0.0
H434 H 0.42728 0.99579 0.9293 0.0
C435 C 0.48738 0.91653 0.96097 0.0
C436 C 0.63836 0.43018 0.66743 0.0
C437 C 0.66302 0.45737 0.67762 0.0
H438 H 0.59009 0.41759 0.6295 0.0
C439 C 0.6577 0.49371 0.65637 0.0
H440 H 0.64223 0.40185 0.68317 0.0
C441 C 0.62739 0.503 0.62616 0.0
C442 C 0.60268 0.47572 0.61609 0.0
H443 H 0.67653 0.51502 0.66372 0.0
H444 H 0.62331 0.53139 0.6106 0.0
C445 C 0.60872 0.43913 0.63661 0.0
C446 C 0.86934 0.75224 0.15825 0.0
C447 C 0.87065 0.76548 0.20108 0.0
H448 H 0.881 0.70488 0.11682 0.0
C449 C 0.88493 0.73992 0.23565 0.0
H450 H 0.85873 0.7713 0.13092 0.0
C451 C 0.8975 0.70198 0.22766 0.0
C452 C 0.89592 0.68866 0.18494 0.0
H453 H 0.88547 0.74894 0.26922 0.0
H454 H 0.90779 0.68288 0.25509 0.0
C455 C 0.88188 0.7142 0.15025 0.0
C456 C 0.36255 0.09363 0.08086 0.0
C457 C 0.36019 0.11927 0.11555 0.0
H458 H 0.39893 0.0565 0.04014 0.0
C459 C 0.39495 0.12624 0.13563 0.0
H460 H 0.33668 0.08746 0.06428 0.0
C461 C 0.43039 0.10815 0.12223 0.0
C462 C 0.43295 0.08277 0.08753 0.0
H463 H 0.39478 0.1453 0.16264 0.0
H464 H 0.45611 0.11411 0.13934 0.0
C465 C 0.39838 0.07603 0.06672 0.0
C466 C 0.22313 0.801 0.65481 0.0
C467 C 0.22324 0.81248 0.69837 0.0
H468 H 0.19306 0.80413 0.59341 0.0
C469 C 0.18928 0.82941 0.71615 0.0
H470 H 0.24919 0.78813 0.64035 0.0
C471 C 0.15647 0.83759 0.68961 0.0
C472 C 0.15756 0.83034 0.64439 0.0
H473 H 0.18875 0.83822 0.74985 0.0
H474 H 0.13108 0.85195 0.7039 0.0
C475 C 0.19072 0.81008 0.62793 0.0
C476 C 0.89302 0.50289 0.90679 0.0
C477 C 0.88244 0.46831 0.92486 0.0
H478 H 0.93137 0.5457 0.90951 0.0
C479 C 0.90109 0.45249 0.96375 0.0
H480 H 0.87974 0.51576 0.87667 0.0
C481 C 0.93115 0.46967 0.98248 0.0
C482 C 0.94311 0.50285 0.96252 0.0
H483 H 0.89326 0.42619 0.97892 0.0
H484 H 0.9461 0.45604 1.01128 0.0
C485 C 0.92293 0.51994 0.92543 0.0
C486 C 0.66615 0.79258 0.38553 0.0
C487 C 0.6994 0.78503 0.36092 0.0
H488 H 0.62438 0.76917 0.42616 0.0
C489 C 0.71456 0.74696 0.35571 0.0
H490 H 0.65396 0.8217 0.39004 0.0
C491 C 0.69765 0.717 0.3761 0.0
C492 C 0.66542 0.72456 0.40241 0.0
H493 H 0.73996 0.74039 0.33645 0.0
H494 H 0.71074 0.68803 0.37272 0.0
C495 C 0.64942 0.76259 0.40634 0.0
C496 C 0.11951 0.35538 0.06727 0.0
C497 C 0.12252 0.34647 0.11312 0.0
H498 H 0.09932 0.39607 1.01496 0.0
C499 C 0.10554 0.37462 0.14086 0.0
H500 H 0.13136 0.33505 0.04409 0.0
C501 C 0.08611 0.40933 0.12383 0.0
C502 C 0.08338 0.41816 0.07826 0.0
H503 H 0.10769 0.37053 0.17624 0.0
H504 H 0.07389 0.42977 0.14677 0.0
C505 C 0.10066 0.39061 0.05025 0.0
C506 C 0.65846 0.25891 0.83075 0.0
C507 C 0.68623 0.26642 0.86187 0.0
H508 H 0.60883 0.23098 0.81758 0.0
C509 C 0.68495 0.25026 0.90475 0.0
H510 H 0.65816 0.27159 0.79768 0.0
C511 C 0.65659 0.22699 0.91618 0.0
C512 C 0.62884 0.21946 0.885 0.0
H513 H 0.70614 0.25524 0.92934 0.0
H514 H 0.65674 0.21442 0.94929 0.0
C515 C 0.63012 0.2357 0.84216 0.0
C516 C 0.87567 1.00186 0.43423 0.0
C517 C 0.88991 0.98271 0.39726 0.0
H518 H 0.88862 0.03106 0.49182 0.0
C519 C 0.92959 0.9787 0.39024 0.0
H520 H 0.84526 1.00587 0.44031 0.0
C521 C 0.95445 0.9934 0.41969 0.0
C522 C 0.94006 1.01234 0.45664 0.0
H523 H 0.94153 0.96363 0.36242 0.0
H524 H 0.98489 0.9898 0.41363 0.0
C525 C 0.90049 1.01643 0.46365 0.0
C526 C 0.42933 0.65845 0.63951 0.0
C527 C 0.45311 0.67521 0.66881 0.0
H528 H 0.42492 0.61506 0.59303 0.0
C529 C 0.49086 0.65859 0.67601 0.0
H530 H 0.39997 0.6706 0.63369 0.0
C531 C 0.50523 0.62711 0.65245 0.0
C532 C 0.48193 0.6113 0.62176 0.0
H533 H 0.50978 0.67104 0.69828 0.0
H534 H 0.53493 0.61578 0.65743 0.0
C535 C 0.44352 0.62659 0.61644 0.0
C536 C 0.94107 0.99251 0.71671 0.0
C537 C 0.94031 0.95263 0.72272 0.0
H538 H 0.959 0.03921 0.67714 0.0
C539 C 0.95828 0.92949 0.6905 0.0
H540 H 0.92821 1.01156 0.74071 0.0
C541 C 0.97606 0.94548 0.65384 0.0
C542 C 0.9769 0.98529 0.64797 0.0
H543 H 0.95823 0.89879 0.69319 0.0
H544 H 0.98927 0.92644 0.63001 0.0
C545 C 0.95913 1.00849 0.68018 0.0
C546 C 0.62759 0.13608 0.16456 0.0
C547 C 0.62228 0.17451 0.14903 0.0
H548 H 0.61666 0.07844 0.15433 0.0
C549 C 0.60165 0.18371 0.10946 0.0
H550 H 0.64303 0.12799 0.19511 0.0
C551 C 0.58642 0.15537 0.08627 0.0
C552 C 0.5915 0.11703 0.10189 0.0
H553 H 0.59763 0.21281 0.09599 0.0
H554 H 0.57059 0.16363 0.05604 0.0
C555 C 0.6124 0.10765 0.14123 0.0
C556 C 0.42537 0.55738 0.37744 0.0
C557 C 0.40658 0.59416 0.36755 0.0
H558 H 0.46584 0.5223 0.41864 0.0
C559 C 0.41324 0.62375 0.39552 0.0
H560 H 0.42183 0.53387 0.35658 0.0
C561 C 0.43968 0.61721 0.43056 0.0
C562 C 0.45939 0.58081 0.43894 0.0
H563 H 0.39874 0.65225 0.38983 0.0
H564 H 0.44519 0.64076 0.45058 0.0
C565 C 0.45111 0.55075 0.4129 0.0
C566 C 0.23956 0.32495 0.86723 0.0
C567 C 0.21678 0.30078 0.84584 0.0
H568 H 0.24127 0.37808 0.89883 0.0
C569 C 0.17736 0.31179 0.84068 0.0
H570 H 0.2701 0.31722 0.87131 0.0
C571 C 0.16102 0.34632 0.85626 0.0
C572 C 0.18372 0.37076 0.87726 0.0
H573 H 0.15909 0.2936 0.8246 0.0
H574 H 0.13059 0.35417 0.85128 0.0
C575 C 0.22319 0.35983 0.88256 0.0
C576 C 0.67401 0.94976 0.9241 0.0
C577 C 0.70726 0.95233 0.94982 0.0
H578 H 0.61337 0.96431 0.9152 0.0
C579 C 0.70214 0.97271 0.98897 0.0
H580 H 0.67563 0.93398 0.89433 0.0
C581 C 0.66567 0.98979 1.00147 0.0
C582 C 0.63283 0.98752 0.97518 0.0
H583 H 0.72646 0.97631 1.00985 0.0
H584 H 0.66335 1.00539 0.0314 0.0
C585 C 0.63778 0.96705 0.9364 0.0
C586 C 0.86847 0.24728 0.34631 0.0
C587 C 0.8307 0.25457 0.36085 0.0
H588 H 0.92692 0.22916 0.36384 0.0
C589 C 0.82367 0.25108 0.40615 0.0
H590 H 0.87489 0.24958 0.31165 0.0
C591 C 0.85339 0.23888 0.43598 0.0
C592 C 0.89093 0.23007 0.42127 0.0
H593 H 0.79504 0.25724 0.41858 0.0
H594 H 0.84658 0.23483 0.47035 0.0
C595 C 0.89826 0.23526 0.3762 0.0
C596 C 0.15046 0.62223 0.12964 0.0
C597 C 0.18412 0.60286 0.11335 0.0
H598 H 0.08901 0.62865 0.12858 0.0
C599 C 0.18107 0.57541 0.08169 0.0
H600 H 0.15194 0.64371 0.15383 0.0
C601 C 0.1453 0.5668 0.06744 0.0
C602 C 0.11168 0.58557 0.08424 0.0
H603 H 0.2064 0.55961 0.0689 0.0
H604 H 0.14403 0.54472 0.04395 0.0
C605 C 0.1145 0.61383 0.11497 0.0
C606 C 0.40328 0.2754 0.68277 0.0
C607 C 0.38492 0.2502 0.65729 0.0
H608 H 0.42936 0.32732 0.68401 0.0
C609 C 0.38231 0.25709 0.61139 0.0
H610 H 0.40523 0.27157 0.71824 0.0
C611 C 0.39567 0.28958 0.59184 0.0
C612 C 0.41238 0.31554 0.61772 0.0
H613 H 0.36898 0.23794 0.59065 0.0
H614 H 0.39222 0.29484 0.55661 0.0
C615 C 0.417 0.30757 0.66317 0.0
C616 C 0.97315 0.70412 0.92915 0.0
C617 C 0.94326 0.72298 0.95342 0.0
H618 H 1.01501 0.65495 0.92432 0.0
C619 C 0.93305 0.70441 0.99282 0.0
H620 H 0.98227 0.71737 0.89889 0.0
C621 C 0.95161 0.66845 1.00718 0.0
C622 C 0.98169 0.6497 0.9832 0.0
H623 H 0.91015 0.71747 1.0125 0.0
H624 H 0.94235 0.65536 0.03748 0.0
C625 C 0.99226 0.66831 0.94397 0.0
C626 C 0.45737 0.75543 0.1098 0.0
C627 C 0.42307 0.75516 0.13308 0.0
H628 H 0.50361 0.78703 0.09071 0.0
C629 C 0.40863 0.78828 0.15431 0.0
H630 H 0.469 0.73068 0.09247 0.0
C631 C 0.42827 0.82061 0.15286 0.0
C632 C 0.46299 0.82042 0.13057 0.0
H633 H 0.38274 0.78891 0.17328 0.0
H634 H 0.41683 0.84542 0.17023 0.0
C635 C 0.47721 0.78766 0.10876 0.0
C636 C 0.13689 0.07141 0.67047 0.0
C637 C 0.1731 0.07953 0.65575 0.0
H638 H 0.08332 0.05126 0.65399 0.0
C639 C 0.18243 0.07334 0.61157 0.0
H640 H 0.12875 0.07522 0.70433 0.0
C641 C 0.15676 0.05872 0.58325 0.0
C642 C 0.12081 0.05072 0.59807 0.0
H643 H 0.20945 0.08019 0.59849 0.0
H644 H 0.16493 0.05401 0.54953 0.0
C645 C 0.11085 0.05751 0.64176 0.0
C646 C 0.59179 0.39158 0.40246 0.0
C647 C 0.6141 0.40669 0.36921 0.0
H648 H 0.55839 0.40236 0.46013 0.0
C649 C 0.61981 0.44563 0.37003 0.0
H650 H 0.5872 0.36172 0.40385 0.0
C651 C 0.60461 0.46836 0.40348 0.0
C652 C 0.58222 0.45319 0.43619 0.0
H653 H 0.63571 0.45896 0.34459 0.0
H654 H 0.60955 0.49817 0.40304 0.0
C655 C 0.57557 0.41473 0.43516 0.0
loop_
_geom_bond_atom_site_label_1
_geom_bond_atom_site_label_2
_geom_bond_distance
_geom_bond_site_symmetry_2
_ccdc_geom_bond_type
P0 O11 1.490 . S
P0 C14 1.812 . S
P0 C20 1.803 . S
P0 C26 1.819 . S
H1 C15 0.941 . S
H2 C16 0.939 . S
H3 C18 0.940 . S
H4 C19 0.940 . S
H5 C21 0.939 . S
H6 C22 0.942 . S
H7 C24 0.940 . S
H8 C25 0.939 . S
H9 C27 0.941 . S
H10 C31 0.939 . S
O11 P0 1.490 . S
H12 C28 0.939 . S
H13 C30 0.940 . S
C14 P0 1.812 . S
C14 C15 1.389 . S
C14 C19 1.391 . S
C15 H1 0.941 . S
C15 C14 1.389 . S
C15 C16 1.397 . S
C16 H2 0.939 . S
C16 C15 1.397 . S
C16 C17 1.378 . S
C17 C16 1.378 . S
C17 C18 1.378 . S
C18 H3 0.940 . S
C18 C17 1.378 . S
C18 C19 1.396 . S
C19 H4 0.940 . S
C19 C14 1.391 . S
C19 C18 1.396 . S
C20 P0 1.803 . S
C20 C21 1.378 . S
C20 C25 1.400 . S
C21 H5 0.939 . S
C21 C20 1.378 . S
C21 C22 1.361 . S
C22 H6 0.942 . S
C22 C21 1.361 . S
C22 C23 1.369 . S
C23 C22 1.369 . S
C23 C24 1.404 . S
C24 H7 0.940 . S
C24 C23 1.404 . S
C24 C25 1.389 . S
C25 H8 0.939 . S
C25 C20 1.400 . S
C25 C24 1.389 . S
C26 P0 1.819 . S
C26 C27 1.391 . S
C26 C31 1.391 . S
C27 H9 0.941 . S
C27 C26 1.391 . S
C27 C28 1.396 . S
C28 H12 0.939 . S
C28 C27 1.396 . S
C28 C29 1.397 . S
C29 C28 1.397 . S
C29 C30 1.385 . S
C30 H13 0.940 . S
C30 C29 1.385 . S
C30 C31 1.388 . S
C31 H10 0.939 . S
C31 C26 1.391 . S
C31 C30 1.388 . S
P32 O43 1.490 . S
P32 C46 1.812 . S
P32 C52 1.803 . S
P32 C58 1.819 . S
H33 C47 0.941 . S
H34 C48 0.939 . S
H35 C50 0.940 . S
H36 C51 0.940 . S
H37 C53 0.939 . S
H38 C54 0.942 . S
H39 C56 0.940 . S
H40 C57 0.939 . S
H41 C59 0.941 . S
H42 C63 0.939 . S
O43 P32 1.490 . S
H44 C60 0.939 . S
H45 C62 0.940 . S
C46 P32 1.812 . S
C46 C47 1.389 . S
C46 C51 1.391 . S
C47 H33 0.941 . S
C47 C46 1.389 . S
C47 C48 1.397 . S
C48 H34 0.939 . S
C48 C47 1.397 . S
C48 C49 1.378 . S
C49 C48 1.378 . S
C49 C50 1.378 . S
C50 H35 0.940 . S
C50 C49 1.378 . S
C50 C51 1.396 . S
C51 H36 0.940 . S
C51 C46 1.391 . S
C51 C50 1.396 . S
C52 P32 1.803 . S
C52 C53 1.378 . S
C52 C57 1.400 . S
C53 H37 0.939 . S
C53 C52 1.378 . S
C53 C54 1.361 . S
C54 H38 0.942 . S
C54 C53 1.361 . S
C54 C55 1.369 . S
C55 C54 1.369 . S
C55 C56 1.404 . S
C56 H39 0.940 . S
C56 C55 1.404 . S
C56 C57 1.389 . S
C57 H40 0.939 . S
C57 C52 1.400 . S
C57 C56 1.389 . S
C58 P32 1.819 . S
C58 C59 1.391 . S
C58 C63 1.391 . S
C59 H41 0.941 . S
C59 C58 1.391 . S
C59 C60 1.396 . S
C60 H44 0.939 . S
C60 C59 1.396 . S
C60 C61 1.397 . S
C61 C60 1.397 . S
C61 C62 1.385 . S
C62 H45 0.940 . S
C62 C61 1.385 . S
C62 C63 1.388 . S
C63 H42 0.939 . S
C63 C58 1.391 . S
C63 C62 1.388 . S
P64 O75 1.490 . S
P64 C78 1.812 . S
P64 C84 1.803 . S
P64 C90 1.819 . S
H65 C79 0.941 . S
H66 C80 0.939 . S
H67 C82 0.940 . S
H68 C83 0.940 . S
H69 C85 0.939 . S
H70 C86 0.942 . S
H71 C88 0.940 . S
H72 C89 0.939 . S
H73 C91 0.941 . S
H74 C95 0.939 . S
O75 P64 1.490 . S
H76 C92 0.939 . S
H77 C94 0.940 . S
C78 P64 1.812 . S
C78 C79 1.389 . S
C78 C83 1.391 . S
C79 H65 0.941 . S
C79 C78 1.389 . S
C79 C80 1.397 . S
C80 H66 0.939 . S
C80 C79 1.397 . S
C80 C81 1.378 . S
C81 C80 1.378 . S
C81 C82 1.378 . S
C82 H67 0.940 . S
C82 C81 1.378 . S
C82 C83 1.396 . S
C83 H68 0.940 . S
C83 C78 1.391 . S
C83 C82 1.396 . S
C84 P64 1.803 . S
C84 C85 1.378 . S
C84 C89 1.400 . S
C85 H69 0.939 . S
C85 C84 1.378 . S
C85 C86 1.361 . S
C86 H70 0.942 . S
C86 C85 1.361 . S
C86 C87 1.369 . S
C87 C86 1.369 . S
C87 C88 1.404 . S
C88 H71 0.940 . S
C88 C87 1.404 . S
C88 C89 1.389 . S
C89 H72 0.939 . S
C89 C84 1.400 . S
C89 C88 1.389 . S
C90 P64 1.819 . S
C90 C91 1.391 . S
C90 C95 1.391 . S
C91 H73 0.941 . S
C91 C90 1.391 . S
C91 C92 1.396 . S
C92 H76 0.939 . S
C92 C91 1.396 . S
C92 C93 1.397 . S
C93 C92 1.397 . S
C93 C94 1.385 . S
C94 H77 0.940 . S
C94 C93 1.385 . S
C94 C95 1.388 . S
C95 H74 0.939 . S
C95 C90 1.391 . S
C95 C94 1.388 . S
P96 O107 1.490 . S
P96 C110 1.812 . S
P96 C116 1.803 . S
P96 C122 1.819 . S
H97 C111 0.941 . S
H98 C112 0.939 . S
H99 C114 0.940 . S
H100 C115 0.940 . S
H101 C117 0.939 . S
H102 C118 0.942 . S
H103 C120 0.940 . S
H104 C121 0.939 . S
H105 C123 0.941 . S
H106 C127 0.939 . S
O107 P96 1.490 . S
H108 C124 0.939 . S
H109 C126 0.940 . S
C110 P96 1.812 . S
C110 C111 1.389 . S
C110 C115 1.391 . S
C111 H97 0.941 . S
C111 C110 1.389 . S
C111 C112 1.397 . S
C112 H98 0.939 . S
C112 C111 1.397 . S
C112 C113 1.378 . S
C113 C112 1.378 . S
C113 C114 1.378 . S
C114 H99 0.940 . S
C114 C113 1.378 . S
C114 C115 1.396 . S
C115 H100 0.940 . S
C115 C110 1.391 . S
C115 C114 1.396 . S
C116 P96 1.803 . S
C116 C117 1.378 . S
C116 C121 1.400 . S
C117 H101 0.939 . S
C117 C116 1.378 . S
C117 C118 1.361 . S
C118 H102 0.942 . S
C118 C117 1.361 . S
C118 C119 1.369 . S
C119 C118 1.369 . S
C119 C120 1.404 . S
C120 H103 0.940 . S
C120 C119 1.404 . S
C120 C121 1.389 . S
C121 H104 0.939 . S
C121 C116 1.400 . S
C121 C120 1.389 . S
C122 P96 1.819 . S
C122 C123 1.391 . S
C122 C127 1.391 . S
C123 H105 0.941 . S
C123 C122 1.391 . S
C123 C124 1.396 . S
C124 H108 0.939 . S
C124 C123 1.396 . S
C124 C125 1.397 . S
C125 C124 1.397 . S
C125 C126 1.385 . S
C126 H109 0.940 . S
C126 C125 1.385 . S
C126 C127 1.388 . S
C127 H106 0.939 . S
C127 C122 1.391 . S
C127 C126 1.388 . S
P128 O139 1.490 . S
P128 C142 1.812 . S
P128 C148 1.803 . S
P128 C154 1.819 . S
H129 C143 0.941 . S
H130 C144 0.939 . S
H131 C146 0.940 . S
H132 C147 0.940 . S
H133 C149 0.939 . S
H134 C150 0.942 . S
H135 C152 0.940 . S
H136 C153 0.939 . S
H137 C155 0.941 . S
H138 C159 0.939 . S
O139 P128 1.490 . S
H140 C156 0.939 . S
H141 C158 0.940 . S
C142 P128 1.812 . S
C142 C143 1.389 . S
C142 C147 1.391 . S
C143 H129 0.941 . S
C143 C142 1.389 . S
C143 C144 1.397 . S
C144 H130 0.939 . S
C144 C143 1.397 . S
C144 C145 1.378 . S
C145 C144 1.378 . S
C145 C146 1.378 . S
C146 H131 0.940 . S
C146 C145 1.378 . S
C146 C147 1.396 . S
C147 H132 0.940 . S
C147 C142 1.391 . S
C147 C146 1.396 . S
C148 P128 1.803 . S
C148 C149 1.378 . S
C148 C153 1.400 . S
C149 H133 0.939 . S
C149 C148 1.378 . S
C149 C150 1.361 . S
C150 H134 0.942 . S
C150 C149 1.361 . S
C150 C151 1.369 . S
C151 C150 1.369 . S
C151 C152 1.404 . S
C152 H135 0.940 . S
C152 C151 1.404 . S
C152 C153 1.389 . S
C153 H136 0.939 . S
C153 C148 1.400 . S
C153 C152 1.389 . S
C154 P128 1.819 . S
C154 C155 1.391 . S
C154 C159 1.391 . S
C155 H137 0.941 . S
C155 C154 1.391 . S
C155 C156 1.396 . S
C156 H140 0.939 . S
C156 C155 1.396 . S
C156 C157 1.397 . S
C157 C156 1.397 . S
C157 C158 1.385 . S
C158 H141 0.940 . S
C158 C157 1.385 . S
C158 C159 1.388 . S
C159 H138 0.939 . S
C159 C154 1.391 . S
C159 C158 1.388 . S
P160 O171 1.490 . S
P160 C174 1.812 . S
P160 C180 1.803 . S
P160 C186 1.819 . S
H161 C175 0.941 . S
H162 C176 0.939 . S
H163 C178 0.940 . S
H164 C179 0.940 . S
H165 C181 0.939 . S
H166 C182 0.942 . S
H167 C184 0.940 . S
H168 C185 0.939 . S
H169 C187 0.941 . S
H170 C191 0.939 . S
O171 P160 1.490 . S
H172 C188 0.939 . S
H173 C190 0.940 . S
C174 P160 1.812 . S
C174 C175 1.389 . S
C174 C179 1.391 . S
C175 H161 0.941 . S
C175 C174 1.389 . S
C175 C176 1.397 . S
C176 H162 0.939 . S
C176 C175 1.397 . S
C176 C177 1.378 . S
C177 C176 1.378 . S
C177 C178 1.378 . S
C178 H163 0.940 . S
C178 C177 1.378 . S
C178 C179 1.396 . S
C179 H164 0.940 . S
C179 C174 1.391 . S
C179 C178 1.396 . S
C180 P160 1.803 . S
C180 C181 1.378 . S
C180 C185 1.400 . S
C181 H165 0.939 . S
C181 C180 1.378 . S
C181 C182 1.361 . S
C182 H166 0.942 . S
C182 C181 1.361 . S
C182 C183 1.369 . S
C183 C182 1.369 . S
C183 C184 1.404 . S
C184 H167 0.940 . S
C184 C183 1.404 . S
C184 C185 1.389 . S
C185 H168 0.939 . S
C185 C180 1.400 . S
C185 C184 1.389 . S
C186 P160 1.819 . S
C186 C187 1.391 . S
C186 C191 1.391 . S
C187 H169 0.941 . S
C187 C186 1.391 . S
C187 C188 1.396 . S
C188 H172 0.939 . S
C188 C187 1.396 . S
C188 C189 1.397 . S
C189 C188 1.397 . S
C189 C190 1.385 . S
C190 H173 0.940 . S
C190 C189 1.385 . S
C190 C191 1.388 . S
C191 H170 0.939 . S
C191 C186 1.391 . S
C191 C190 1.388 . S
P192 O203 1.490 . S
P192 C206 1.812 . S
P192 C212 1.803 . S
P192 C218 1.819 . S
H193 C207 0.941 . S
H194 C208 0.939 . S
H195 C210 0.940 . S
H196 C211 0.940 . S
H197 C213 0.939 . S
H198 C214 0.942 . S
H199 C216 0.940 . S
H200 C217 0.939 . S
H201 C219 0.941 . S
H202 C223 0.939 . S
O203 P192 1.490 . S
H204 C220 0.939 . S
H205 C222 0.940 . S
C206 P192 1.812 . S
C206 C207 1.389 . S
C206 C211 1.391 . S
C207 H193 0.941 . S
C207 C206 1.389 . S
C207 C208 1.397 . S
C208 H194 0.939 . S
C208 C207 1.397 . S
C208 C209 1.378 . S
C209 C208 1.378 . S
C209 C210 1.378 . S
C210 H195 0.940 . S
C210 C209 1.378 . S
C210 C211 1.396 . S
C211 H196 0.940 . S
C211 C206 1.391 . S
C211 C210 1.396 . S
C212 P192 1.803 . S
C212 C213 1.378 . S
C212 C217 1.400 . S
C213 H197 0.939 . S
C213 C212 1.378 . S
C213 C214 1.361 . S
C214 H198 0.942 . S
C214 C213 1.361 . S
C214 C215 1.369 . S
C215 C214 1.369 . S
C215 C216 1.404 . S
C216 H199 0.940 . S
C216 C215 1.404 . S
C216 C217 1.389 . S
C217 H200 0.939 . S
C217 C212 1.400 . S
C217 C216 1.389 . S
C218 P192 1.819 . S
C218 C219 1.391 . S
C218 C223 1.391 . S
C219 H201 0.941 . S
C219 C218 1.391 . S
C219 C220 1.396 . S
C220 H204 0.939 . S
C220 C219 1.396 . S
C220 C221 1.397 . S
C221 C220 1.397 . S
C221 C222 1.385 . S
C222 H205 0.940 . S
C222 C221 1.385 . S
C222 C223 1.388 . S
C223 H202 0.939 . S
C223 C218 1.391 . S
C223 C222 1.388 . S
P224 O235 1.490 . S
P224 C238 1.812 . S
P224 C244 1.803 . S
P224 C250 1.819 . S
H225 C239 0.941 . S
H226 C240 0.939 . S
H227 C242 0.940 . S
H228 C243 0.940 . S
H229 C245 0.939 . S
H230 C246 0.942 . S
H231 C248 0.940 . S
H232 C249 0.939 . S
H233 C251 0.941 . S
H234 C255 0.939 . S
O235 P224 1.490 . S
H236 C252 0.939 . S
H237 C254 0.940 . S
C238 P224 1.812 . S
C238 C239 1.389 . S
C238 C243 1.391 . S
C239 H225 0.941 . S
C239 C238 1.389 . S
C239 C240 1.397 . S
C240 H226 0.939 . S
C240 C239 1.397 . S
C240 C241 1.378 . S
C241 C240 1.378 . S
C241 C242 1.378 . S
C242 H227 0.940 . S
C242 C241 1.378 . S
C242 C243 1.396 . S
C243 H228 0.940 . S
C243 C238 1.391 . S
C243 C242 1.396 . S
C244 P224 1.803 . S
C244 C245 1.378 . S
C244 C249 1.400 . S
C245 H229 0.939 . S
C245 C244 1.378 . S
C245 C246 1.361 . S
C246 H230 0.942 . S
C246 C245 1.361 . S
C246 C247 1.369 . S
C247 C246 1.369 . S
C247 C248 1.404 . S
C248 H231 0.940 . S
C248 C247 1.404 . S
C248 C249 1.389 . S
C249 H232 0.939 . S
C249 C244 1.400 . S
C249 C248 1.389 . S
C250 P224 1.819 . S
C250 C251 1.391 . S
C250 C255 1.391 . S
C251 H233 0.941 . S
C251 C250 1.391 . S
C251 C252 1.396 . S
C252 H236 0.939 . S
C252 C251 1.396 . S
C252 C253 1.397 . S
C253 C252 1.397 . S
C253 C254 1.385 . S
C254 H237 0.940 . S
C254 C253 1.385 . S
C254 C255 1.388 . S
C255 H234 0.939 . S
C255 C250 1.391 . S
C255 C254 1.388 . S
Nd256 C258 2.836 . S
Nd256 O276 2.500 . S
Nd256 O277 2.492 . S
Nd256 O278 2.487 1_565 S
Nd256 O279 2.682 1_565 S
Nd256 O280 2.410 . S
Nd256 O285 2.414 1_455 S
Nd256 O287 2.424 1_565 S
Nd257 C267 2.836 . S
Nd257 O279 2.414 1_655 S
Nd257 O281 2.424 1_545 S
Nd257 O282 2.500 . S
Nd257 O283 2.492 . S
Nd257 O284 2.487 1_545 S
Nd257 O285 2.682 1_545 S
Nd257 O286 2.410 . S
C258 Nd256 2.836 . S
C258 C259 1.498 . S
C258 O276 1.258 . S
C258 O277 1.239 . S
C259 C258 1.498 . S
C259 C260 1.366 . S
C259 C264 1.407 . S
C260 C259 1.366 . S
C260 C261 1.392 . S
C260 H288 0.930 . S
C261 C260 1.392 . S
C261 C262 1.398 . S
C261 H289 0.929 . S
C262 C261 1.398 . S
C262 C263 1.352 . S
C263 C262 1.352 . S
C263 C264 1.384 . S
C263 H290 0.930 . S
C264 C259 1.407 . S
C264 C263 1.384 . S
C264 H291 0.929 . S
C265 O278 1.241 . S
C265 O279 1.273 . S
C266 O280 1.251 1_655 S
C266 O281 1.268 . S
C267 Nd257 2.836 . S
C267 C268 1.498 . S
C267 O282 1.258 . S
C267 O283 1.239 . S
C268 C267 1.498 . S
C268 C269 1.366 . S
C268 C273 1.407 . S
C269 C268 1.366 . S
C269 C270 1.392 . S
C269 H292 0.930 . S
C270 C269 1.392 . S
C270 C271 1.398 . S
C270 H293 0.929 . S
C271 C270 1.398 . S
C271 C272 1.352 . S
C272 C271 1.352 . S
C272 C273 1.384 . S
C272 H294 0.930 . S
C273 C268 1.407 . S
C273 C272 1.384 . S
C273 H295 0.929 . S
C274 O284 1.241 . S
C274 O285 1.273 . S
C275 O286 1.251 1_455 S
C275 O287 1.268 . S
O276 Nd256 2.500 . S
O276 C258 1.258 . S
O277 Nd256 2.492 . S
O277 C258 1.239 . S
O278 Nd256 2.487 1_545 S
O278 C265 1.241 . S
O279 Nd256 2.682 1_545 S
O279 Nd257 2.414 1_455 S
O279 C265 1.273 . S
O280 Nd256 2.410 . S
O280 C266 1.251 1_455 S
O281 Nd257 2.424 1_565 S
O281 C266 1.268 . S
O282 Nd257 2.500 . S
O282 C267 1.258 . S
O283 Nd257 2.492 . S
O283 C267 1.239 . S
O284 Nd257 2.487 1_565 S
O284 C274 1.241 . S
O285 Nd256 2.414 1_655 S
O285 Nd257 2.682 1_565 S
O285 C274 1.273 . S
O286 Nd257 2.410 . S
O286 C275 1.251 1_655 S
O287 Nd256 2.424 1_545 S
O287 C275 1.268 . S
H288 C260 0.930 . S
H289 C261 0.929 . S
H290 C263 0.930 . S
H291 C264 0.929 . S
H292 C269 0.930 . S
H293 C270 0.929 . S
H294 C272 0.930 . S
H295 C273 0.929 . S
Nd296 C298 2.836 . S
Nd296 O316 2.500 . S
Nd296 O317 2.492 . S
Nd296 O318 2.487 1_565 S
Nd296 O319 2.682 1_565 S
Nd296 O320 2.410 1_554 S
Nd296 O325 2.414 1_554 S
Nd296 O327 2.424 1_565 S
Nd297 C307 2.836 . S
Nd297 O319 2.414 1_556 S
Nd297 O321 2.424 1_545 S
Nd297 O322 2.500 . S
Nd297 O323 2.492 . S
Nd297 O324 2.487 . S
Nd297 O325 2.682 1_545 S
Nd297 O326 2.410 1_556 S
C298 Nd296 2.836 . S
C298 C299 1.498 . S
C298 O316 1.258 . S
C298 O317 1.239 . S
C299 C298 1.498 . S
C299 C300 1.366 . S
C299 C304 1.407 . S
C300 C299 1.366 . S
C300 C301 1.392 . S
C300 H328 0.930 . S
C301 C300 1.392 . S
C301 C302 1.398 . S
C301 H329 0.929 . S
C302 C301 1.398 . S
C302 C303 1.352 . S
C303 C302 1.352 . S
C303 C304 1.384 . S
C303 H330 0.930 . S
C304 C299 1.407 . S
C304 C303 1.384 . S
C304 H331 0.929 . S
C305 O318 1.241 . S
C305 O319 1.273 . S
C306 O320 1.251 . S
C306 O321 1.268 . S
C307 Nd297 2.836 . S
C307 C308 1.498 . S
C307 O322 1.258 . S
C307 O323 1.239 . S
C308 C307 1.498 . S
C308 C309 1.366 . S
C308 C313 1.407 . S
C309 C308 1.366 . S
C309 C310 1.392 . S
C309 H332 0.930 . S
C310 C309 1.392 . S
C310 C311 1.398 . S
C310 H333 0.929 . S
C311 C310 1.398 . S
C311 C312 1.352 . S
C312 C311 1.352 . S
C312 C313 1.384 . S
C312 H334 0.930 . S
C313 C308 1.407 . S
C313 C312 1.384 . S
C313 H335 0.929 . S
C314 O324 1.241 1_565 S
C314 O325 1.273 . S
C315 O326 1.251 . S
C315 O327 1.268 . S
O316 Nd296 2.500 . S
O316 C298 1.258 . S
O317 Nd296 2.492 . S
O317 C298 1.239 . S
O318 Nd296 2.487 1_545 S
O318 C305 1.241 . S
O319 Nd296 2.682 1_545 S
O319 Nd297 2.414 1_554 S
O319 C305 1.273 . S
O320 Nd296 2.410 1_556 S
O320 C306 1.251 . S
O321 Nd297 2.424 1_565 S
O321 C306 1.268 . S
O322 Nd297 2.500 . S
O322 C307 1.258 . S
O323 Nd297 2.492 . S
O323 C307 1.239 . S
O324 Nd297 2.487 . S
O324 C314 1.241 1_545 S
O325 Nd296 2.414 1_556 S
O325 Nd297 2.682 1_565 S
O325 C314 1.273 . S
O326 Nd297 2.410 1_554 S
O326 C315 1.251 . S
O327 Nd296 2.424 1_545 S
O327 C315 1.268 . S
H328 C300 0.930 . S
H329 C301 0.929 . S
H330 C303 0.930 . S
H331 C304 0.929 . S
H332 C309 0.930 . S
H333 C310 0.929 . S
H334 C312 0.930 . S
H335 C313 0.929 . S
Nd336 C338 2.836 . S
Nd336 O356 2.500 . S
Nd336 O357 2.492 . S
Nd336 O358 2.487 . S
Nd336 O359 2.682 . S
Nd336 O360 2.410 . S
Nd336 O365 2.414 . S
Nd336 O367 2.424 . S
Nd337 C347 2.836 . S
Nd337 O359 2.414 . S
Nd337 O361 2.424 . S
Nd337 O362 2.500 . S
Nd337 O363 2.492 . S
Nd337 O364 2.487 . S
Nd337 O365 2.682 . S
Nd337 O366 2.410 . S
C338 Nd336 2.836 . S
C338 C339 1.498 . S
C338 O356 1.258 . S
C338 O357 1.239 . S
C339 C338 1.498 . S
C339 C340 1.366 . S
C339 C344 1.407 . S
C340 C339 1.366 . S
C340 C341 1.392 . S
C340 H368 0.930 . S
C341 C340 1.392 . S
C341 C342 1.398 . S
C341 H369 0.929 . S
C342 C341 1.398 . S
C342 C343 1.352 . S
C343 C342 1.352 . S
C343 C344 1.384 . S
C343 H370 0.930 . S
C344 C339 1.407 . S
C344 C343 1.384 . S
C344 H371 0.929 . S
C345 O358 1.241 . S
C345 O359 1.273 . S
C346 O360 1.251 . S
C346 O361 1.268 . S
C347 Nd337 2.836 . S
C347 C348 1.498 . S
C347 O362 1.258 . S
C347 O363 1.239 . S
C348 C347 1.498 . S
C348 C349 1.366 . S
C348 C353 1.407 . S
C349 C348 1.366 . S
C349 C350 1.392 . S
C349 H372 0.930 . S
C350 C349 1.392 . S
C350 C351 1.398 . S
C350 H373 0.929 . S
C351 C350 1.398 . S
C351 C352 1.352 . S
C352 C351 1.352 . S
C352 C353 1.384 . S
C352 H374 0.930 . S
C353 C348 1.407 . S
C353 C352 1.384 . S
C353 H375 0.929 . S
C354 O364 1.241 . S
C354 O365 1.273 . S
C355 O366 1.251 . S
C355 O367 1.268 . S
O356 Nd336 2.500 . S
O356 C338 1.258 . S
O357 Nd336 2.492 . S
O357 C338 1.239 . S
O358 Nd336 2.487 . S
O358 C345 1.241 . S
O359 Nd336 2.682 . S
O359 Nd337 2.414 . S
O359 C345 1.273 . S
O360 Nd336 2.410 . S
O360 C346 1.251 . S
O361 Nd337 2.424 . S
O361 C346 1.268 . S
O362 Nd337 2.500 . S
O362 C347 1.258 . S
O363 Nd337 2.492 . S
O363 C347 1.239 . S
O364 Nd337 2.487 . S
O364 C354 1.241 . S
O365 Nd336 2.414 . S
O365 Nd337 2.682 . S
O365 C354 1.273 . S
O366 Nd337 2.410 . S
O366 C355 1.251 . S
O367 Nd336 2.424 . S
O367 C355 1.268 . S
H368 C340 0.930 . S
H369 C341 0.929 . S
H370 C343 0.930 . S
H371 C344 0.929 . S
H372 C349 0.930 . S
H373 C350 0.929 . S
H374 C352 0.930 . S
H375 C353 0.929 . S
Nd376 C378 2.836 . S
Nd376 O396 2.500 . S
Nd376 O397 2.492 . S
Nd376 O398 2.487 1_655 S
Nd376 O399 2.682 1_655 S
Nd376 O400 2.410 . S
Nd376 O405 2.414 1_554 S
Nd376 O407 2.424 1_655 S
Nd377 C387 2.836 . S
Nd377 O399 2.414 1_556 S
Nd377 O401 2.424 1_455 S
Nd377 O402 2.500 . S
Nd377 O403 2.492 . S
Nd377 O404 2.487 1_455 S
Nd377 O405 2.682 1_455 S
Nd377 O406 2.410 . S
C378 Nd376 2.836 . S
C378 C379 1.498 . S
C378 O396 1.258 . S
C378 O397 1.239 . S
C379 C378 1.498 . S
C379 C380 1.366 . S
C379 C384 1.407 . S
C380 C379 1.366 . S
C380 C381 1.392 . S
C380 H408 0.930 . S
C381 C380 1.392 . S
C381 C382 1.398 . S
C381 H409 0.929 . S
C382 C381 1.398 . S
C382 C383 1.352 . S
C383 C382 1.352 . S
C383 C384 1.384 . S
C383 H410 0.930 . S
C384 C379 1.407 . S
C384 C383 1.384 . S
C384 H411 0.929 . S
C385 O398 1.241 . S
C385 O399 1.273 . S
C386 O400 1.251 1_556 S
C386 O401 1.268 . S
C387 Nd377 2.836 . S
C387 C388 1.498 . S
C387 O402 1.258 . S
C387 O403 1.239 . S
C388 C387 1.498 . S
C388 C389 1.366 . S
C388 C393 1.407 . S
C389 C388 1.366 . S
C389 C390 1.392 . S
C389 H412 0.930 . S
C390 C389 1.392 . S
C390 C391 1.398 . S
C390 H413 0.929 . S
C391 C390 1.398 . S
C391 C392 1.352 . S
C392 C391 1.352 . S
C392 C393 1.384 . S
C392 H414 0.930 . S
C393 C388 1.407 . S
C393 C392 1.384 . S
C393 H415 0.929 . S
C394 O404 1.241 . S
C394 O405 1.273 . S
C395 O406 1.251 1_554 S
C395 O407 1.268 . S
O396 Nd376 2.500 . S
O396 C378 1.258 . S
O397 Nd376 2.492 . S
O397 C378 1.239 . S
O398 Nd376 2.487 1_455 S
O398 C385 1.241 . S
O399 Nd376 2.682 1_455 S
O399 Nd377 2.414 1_554 S
O399 C385 1.273 . S
O400 Nd376 2.410 . S
O400 C386 1.251 1_554 S
O401 Nd377 2.424 1_655 S
O401 C386 1.268 . S
O402 Nd377 2.500 . S
O402 C387 1.258 . S
O403 Nd377 2.492 . S
O403 C387 1.239 . S
O404 Nd377 2.487 1_655 S
O404 C394 1.241 . S
O405 Nd376 2.414 1_556 S
O405 Nd377 2.682 1_655 S
O405 C394 1.273 . S
O406 Nd377 2.410 . S
O406 C395 1.251 1_556 S
O407 Nd376 2.424 1_455 S
O407 C395 1.268 . S
H408 C380 0.930 . S
H409 C381 0.929 . S
H410 C383 0.930 . S
H411 C384 0.929 . S
H412 C389 0.930 . S
H413 C390 0.929 . S
H414 C392 0.930 . S
H415 C393 0.929 . S
C416 C417 1.387 . S
C416 H420 0.950 . S
C416 C425 1.390 . S
C417 C416 1.387 . S
C417 C419 1.387 . S
H418 C425 0.950 . S
C419 C417 1.387 . S
C419 C421 1.390 . S
C419 H423 0.950 . S
H420 C416 0.950 . S
C421 C419 1.390 . S
C421 C422 1.387 . S
C421 H424 0.950 . S
C422 C421 1.387 . S
C422 C425 1.387 . S
H423 C419 0.950 . S
H424 C421 0.950 . S
C425 C416 1.390 . S
C425 H418 0.950 . S
C425 C422 1.387 . S
C426 C427 1.387 . S
C426 H430 0.950 . S
C426 C435 1.390 . S
C427 C426 1.387 . S
C427 C429 1.387 . S
H428 C435 0.950 . S
C429 C427 1.387 . S
C429 C431 1.390 . S
C429 H433 0.950 . S
H430 C426 0.950 . S
C431 C429 1.390 . S
C431 C432 1.387 . S
C431 H434 0.950 . S
C432 C431 1.387 . S
C432 C435 1.387 . S
H433 C429 0.950 . S
H434 C431 0.950 . S
C435 C426 1.390 . S
C435 H428 0.950 . S
C435 C432 1.387 . S
C436 C437 1.387 . S
C436 H440 0.950 . S
C436 C445 1.390 . S
C437 C436 1.387 . S
C437 C439 1.387 . S
H438 C445 0.950 . S
C439 C437 1.387 . S
C439 C441 1.390 . S
C439 H443 0.950 . S
H440 C436 0.950 . S
C441 C439 1.390 . S
C441 C442 1.387 . S
C441 H444 0.950 . S
C442 C441 1.387 . S
C442 C445 1.387 . S
H443 C439 0.950 . S
H444 C441 0.950 . S
C445 C436 1.390 . S
C445 H438 0.950 . S
C445 C442 1.387 . S
C446 C447 1.387 . S
C446 H450 0.950 . S
C446 C455 1.390 . S
C447 C446 1.387 . S
C447 C449 1.387 . S
H448 C455 0.950 . S
C449 C447 1.387 . S
C449 C451 1.390 . S
C449 H453 0.950 . S
H450 C446 0.950 . S
C451 C449 1.390 . S
C451 C452 1.387 . S
C451 H454 0.950 . S
C452 C451 1.387 . S
C452 C455 1.387 . S
H453 C449 0.950 . S
H454 C451 0.950 . S
C455 C446 1.390 . S
C455 H448 0.950 . S
C455 C452 1.387 . S
C456 C457 1.387 . S
C456 H460 0.950 . S
C456 C465 1.390 . S
C457 C456 1.387 . S
C457 C459 1.387 . S
H458 C465 0.950 1_556 S
C459 C457 1.387 . S
C459 C461 1.390 . S
C459 H463 0.950 . S
H460 C456 0.950 . S
C461 C459 1.390 . S
C461 C462 1.387 . S
C461 H464 0.950 . S
C462 C461 1.387 . S
C462 C465 1.387 . S
H463 C459 0.950 . S
H464 C461 0.950 . S
C465 C456 1.390 . S
C465 H458 0.950 1_554 S
C465 C462 1.387 . S
C466 C467 1.387 . S
C466 H470 0.950 . S
C466 C475 1.390 . S
C467 C466 1.387 . S
C467 C469 1.387 . S
H468 C475 0.950 . S
C469 C467 1.387 . S
C469 C471 1.390 . S
C469 H473 0.950 . S
H470 C466 0.950 . S
C471 C469 1.390 . S
C471 C472 1.387 . S
C471 H474 0.950 . S
C472 C471 1.387 . S
C472 C475 1.387 . S
H473 C469 0.950 . S
H474 C471 0.950 . S
C475 C466 1.390 . S
C475 H468 0.950 . S
C475 C472 1.387 . S
C476 C477 1.387 . S
C476 H480 0.950 . S
C476 C485 1.390 . S
C477 C476 1.387 . S
C477 C479 1.387 . S
H478 C485 0.950 . S
C479 C477 1.387 . S
C479 C481 1.390 . S
C479 H483 0.950 . S
H480 C476 0.950 . S
C481 C479 1.390 . S
C481 C482 1.387 . S
C481 H484 0.950 . S
C482 C481 1.387 . S
C482 C485 1.387 . S
H483 C479 0.950 . S
H484 C481 0.950 . S
C485 C476 1.390 . S
C485 H478 0.950 . S
C485 C482 1.387 . S
C486 C487 1.387 . S
C486 H490 0.950 . S
C486 C495 1.390 . S
C487 C486 1.387 . S
C487 C489 1.387 . S
H488 C495 0.950 . S
C489 C487 1.387 . S
C489 C491 1.390 . S
C489 H493 0.950 . S
H490 C486 0.950 . S
C491 C489 1.390 . S
C491 C492 1.387 . S
C491 H494 0.950 . S
C492 C491 1.387 . S
C492 C495 1.387 . S
H493 C489 0.950 . S
H494 C491 0.950 . S
C495 C486 1.390 . S
C495 H488 0.950 . S
C495 C492 1.387 . S
C496 C497 1.387 . S
C496 H500 0.950 . S
C496 C505 1.390 . S
C497 C496 1.387 . S
C497 C499 1.387 . S
H498 C505 0.950 1_556 S
C499 C497 1.387 . S
C499 C501 1.390 . S
C499 H503 0.950 . S
H500 C496 0.950 . S
C501 C499 1.390 . S
C501 C502 1.387 . S
C501 H504 0.950 . S
C502 C501 1.387 . S
C502 C505 1.387 . S
H503 C499 0.950 . S
H504 C501 0.950 . S
C505 C496 1.390 . S
C505 H498 0.950 1_554 S
C505 C502 1.387 . S
C506 C507 1.387 . S
C506 H510 0.950 . S
C506 C515 1.390 . S
C507 C506 1.387 . S
C507 C509 1.387 . S
H508 C515 0.950 . S
C509 C507 1.387 . S
C509 C511 1.390 . S
C509 H513 0.950 . S
H510 C506 0.950 . S
C511 C509 1.390 . S
C511 C512 1.387 . S
C511 H514 0.950 . S
C512 C511 1.387 . S
C512 C515 1.387 . S
H513 C509 0.950 . S
H514 C511 0.950 . S
C515 C506 1.390 . S
C515 H508 0.950 . S
C515 C512 1.387 . S
C516 C517 1.387 . S
C516 H520 0.950 . S
C516 C525 1.390 . S
C517 C516 1.387 . S
C517 C519 1.387 . S
H518 C525 0.950 . S
C519 C517 1.387 . S
C519 C521 1.390 . S
C519 H523 0.950 . S
H520 C516 0.950 . S
C521 C519 1.390 . S
C521 C522 1.387 . S
C521 H524 0.950 . S
C522 C521 1.387 . S
C522 C525 1.387 . S
H523 C519 0.950 . S
H524 C521 0.950 . S
C525 C516 1.390 . S
C525 H518 0.950 . S
C525 C522 1.387 . S
C526 C527 1.387 . S
C526 H530 0.950 . S
C526 C535 1.390 . S
C527 C526 1.387 . S
C527 C529 1.387 . S
H528 C535 0.950 . S
C529 C527 1.387 . S
C529 C531 1.390 . S
C529 H533 0.950 . S
H530 C526 0.950 . S
C531 C529 1.390 . S
C531 C532 1.387 . S
C531 H534 0.950 . S
C532 C531 1.387 . S
C532 C535 1.387 . S
H533 C529 0.950 . S
H534 C531 0.950 . S
C535 C526 1.390 . S
C535 H528 0.950 . S
C535 C532 1.387 . S
C536 C537 1.387 . S
C536 H540 0.950 . S
C536 C545 1.390 . S
C537 C536 1.387 . S
C537 C539 1.387 . S
H538 C545 0.950 . S
C539 C537 1.387 . S
C539 C541 1.390 . S
C539 H543 0.950 . S
H540 C536 0.950 . S
C541 C539 1.390 . S
C541 C542 1.387 . S
C541 H544 0.950 . S
C542 C541 1.387 . S
C542 C545 1.387 . S
H543 C539 0.950 . S
H544 C541 0.950 . S
C545 C536 1.390 . S
C545 H538 0.950 . S
C545 C542 1.387 . S
C546 C547 1.387 . S
C546 H550 0.950 . S
C546 C555 1.390 . S
C547 C546 1.387 . S
C547 C549 1.387 . S
H548 C555 0.950 . S
C549 C547 1.387 . S
C549 C551 1.390 . S
C549 H553 0.950 . S
H550 C546 0.950 . S
C551 C549 1.390 . S
C551 C552 1.387 . S
C551 H554 0.950 . S
C552 C551 1.387 . S
C552 C555 1.387 . S
H553 C549 0.950 . S
H554 C551 0.950 . S
C555 C546 1.390 . S
C555 H548 0.950 . S
C555 C552 1.387 . S
C556 C557 1.387 . S
C556 H560 0.950 . S
C556 C565 1.390 . S
C557 C556 1.387 . S
C557 C559 1.387 . S
H558 C565 0.950 . S
C559 C557 1.387 . S
C559 C561 1.390 . S
C559 H563 0.950 . S
H560 C556 0.950 . S
C561 C559 1.390 . S
C561 C562 1.387 . S
C561 H564 0.950 . S
C562 C561 1.387 . S
C562 C565 1.387 . S
H563 C559 0.950 . S
H564 C561 0.950 . S
C565 C556 1.390 . S
C565 H558 0.950 . S
C565 C562 1.387 . S
C566 C567 1.387 . S
C566 H570 0.950 . S
C566 C575 1.390 . S
C567 C566 1.387 . S
C567 C569 1.387 . S
H568 C575 0.950 . S
C569 C567 1.387 . S
C569 C571 1.390 . S
C569 H573 0.950 . S
H570 C566 0.950 . S
C571 C569 1.390 . S
C571 C572 1.387 . S
C571 H574 0.950 . S
C572 C571 1.387 . S
C572 C575 1.387 . S
H573 C569 0.950 . S
H574 C571 0.950 . S
C575 C566 1.390 . S
C575 H568 0.950 . S
C575 C572 1.387 . S
C576 C577 1.387 . S
C576 H580 0.950 . S
C576 C585 1.390 . S
C577 C576 1.387 . S
C577 C579 1.387 . S
H578 C585 0.950 . S
C579 C577 1.387 . S
C579 C581 1.390 . S
C579 H583 0.950 1_556 S
H580 C576 0.950 . S
C581 C579 1.390 . S
C581 C582 1.387 . S
C581 H584 0.950 1_556 S
C582 C581 1.387 . S
C582 C585 1.387 . S
H583 C579 0.950 1_554 S
H584 C581 0.950 1_554 S
C585 C576 1.390 . S
C585 H578 0.950 . S
C585 C582 1.387 . S
C586 C587 1.387 . S
C586 H590 0.950 . S
C586 C595 1.390 . S
C587 C586 1.387 . S
C587 C589 1.387 . S
H588 C595 0.950 . S
C589 C587 1.387 . S
C589 C591 1.390 . S
C589 H593 0.950 . S
H590 C586 0.950 . S
C591 C589 1.390 . S
C591 C592 1.387 . S
C591 H594 0.950 . S
C592 C591 1.387 . S
C592 C595 1.387 . S
H593 C589 0.950 . S
H594 C591 0.950 . S
C595 C586 1.390 . S
C595 H588 0.950 . S
C595 C592 1.387 . S
C596 C597 1.387 . S
C596 H600 0.950 . S
C596 C605 1.390 . S
C597 C596 1.387 . S
C597 C599 1.387 . S
H598 C605 0.950 . S
C599 C597 1.387 . S
C599 C601 1.390 . S
C599 H603 0.950 . S
H600 C596 0.950 . S
C601 C599 1.390 . S
C601 C602 1.387 . S
C601 H604 0.950 . S
C602 C601 1.387 . S
C602 C605 1.387 . S
H603 C599 0.950 . S
H604 C601 0.950 . S
C605 C596 1.390 . S
C605 H598 0.950 . S
C605 C602 1.387 . S
C606 C607 1.387 . S
C606 H610 0.950 . S
C606 C615 1.390 . S
C607 C606 1.387 . S
C607 C609 1.387 . S
H608 C615 0.950 . S
C609 C607 1.387 . S
C609 C611 1.390 . S
C609 H613 0.950 . S
H610 C606 0.950 . S
C611 C609 1.390 . S
C611 C612 1.387 . S
C611 H614 0.950 . S
C612 C611 1.387 . S
C612 C615 1.387 . S
H613 C609 0.950 . S
H614 C611 0.950 . S
C615 C606 1.390 . S
C615 H608 0.950 . S
C615 C612 1.387 . S
C616 C617 1.387 . S
C616 H620 0.950 . S
C616 C625 1.390 . S
C617 C616 1.387 . S
C617 C619 1.387 . S
H618 C625 0.950 . S
C619 C617 1.387 . S
C619 C621 1.390 1_556 S
C619 H623 0.950 1_556 S
H620 C616 0.950 . S
C621 C619 1.390 1_554 S
C621 C622 1.387 1_554 S
C621 H624 0.950 . S
C622 C621 1.387 1_556 S
C622 C625 1.387 . S
H623 C619 0.950 1_554 S
H624 C621 0.950 . S
C625 C616 1.390 . S
C625 H618 0.950 . S
C625 C622 1.387 . S
C626 C627 1.387 . S
C626 H630 0.950 . S
C626 C635 1.390 . S
C627 C626 1.387 . S
C627 C629 1.387 . S
H628 C635 0.950 . S
C629 C627 1.387 . S
C629 C631 1.390 . S
C629 H633 0.950 . S
H630 C626 0.950 . S
C631 C629 1.390 . S
C631 C632 1.387 . S
C631 H634 0.950 . S
C632 C631 1.387 . S
C632 C635 1.387 . S
H633 C629 0.950 . S
H634 C631 0.950 . S
C635 C626 1.390 . S
C635 H628 0.950 . S
C635 C632 1.387 . S
C636 C637 1.387 . S
C636 H640 0.950 . S
C636 C645 1.390 . S
C637 C636 1.387 . S
C637 C639 1.387 . S
H638 C645 0.950 . S
C639 C637 1.387 . S
C639 C641 1.390 . S
C639 H643 0.950 . S
H640 C636 0.950 . S
C641 C639 1.390 . S
C641 C642 1.387 . S
C641 H644 0.950 . S
C642 C641 1.387 . S
C642 C645 1.387 . S
H643 C639 0.950 . S
H644 C641 0.950 . S
C645 C636 1.390 . S
C645 H638 0.950 . S
C645 C642 1.387 . S
C646 C647 1.387 . S
C646 H650 0.950 . S
C646 C655 1.390 . S
C647 C646 1.387 . S
C647 C649 1.387 . S
H648 C655 0.950 . S
C649 C647 1.387 . S
C649 C651 1.390 . S
C649 H653 0.950 . S
H650 C646 0.950 . S
C651 C649 1.390 . S
C651 C652 1.387 . S
C651 H654 0.950 . S
C652 C651 1.387 . S
C652 C655 1.387 . S
H653 C649 0.950 . S
H654 C651 0.950 . S
C655 C646 1.390 . S
C655 H648 0.950 . S
C655 C652 1.387 . S
C417 C29 2.846 . S
C422 C275 2.887 . S
C427 C49 2.179 . S
C432 C306 2.469 . S
C442 C345 1.503 . S
C437 C93 1.412 . S
C447 C119 0.691 . S
C452 C382 0.687 . S
C462 C305 2.742 . S
C457 C17 2.785 . S
C472 C262 1.397 . S
C467 C61 1.320 . S
C482 C394 1.545 . S
C477 C81 1.520 . S
C492 C351 1.363 . S
C487 C125 1.388 . S
C497 C23 2.233 . S
C502 C395 2.277 . S
C512 C311 1.305 . S
C507 C87 1.296 . S
C517 C113 0.657 . S
C522 C274 0.702 . S
C527 C55 2.208 . S
C532 C346 2.409 . S
C542 C266 2.838 . S
C537 C157 2.829 . S
C547 C189 2.471 . S
C552 C315 2.530 . S
C557 C221 1.509 . S
C562 C354 1.502 . S
C567 C253 0.730 . S
C572 C391 0.724 . S
C577 C145 2.876 . S
C582 C314 2.788 . S
C592 C271 1.344 . S
C587 C183 1.350 . S
C602 C385 1.571 . S
C597 C209 1.608 . S
C612 C342 1.316 . S
C607 C247 1.390 . S
C617 C151 2.276 . S
C622 C386 2.297 . S
C632 C302 1.300 . S
C627 C215 1.293 . S
C642 C265 0.669 . S
C637 C241 0.584 . S
C647 C177 2.451 . S
C652 C355 2.427 . S
