# Generated by pormake.
# Topology tbo, (3,4)-cn, num edge types: 1
# Building blocks:
#     Node 0, Type 0, BuildingBlock: OLANEW_clean_sbu_2, # of connection points: 3
#     Node 1, Type 0, BuildingBlock: OLANEW_clean_sbu_2, # of connection points: 3
#     Node 2, Type 0, BuildingBlock: OLANEW_clean_sbu_2, # of connection points: 3
#     Node 3, Type 0, BuildingBlock: OLANEW_clean_sbu_2, # of connection points: 3
#     Node 4, Type 0, BuildingBlock: OLANEW_clean_sbu_2, # of connection points: 3
#     Node 5, Type 0, BuildingBlock: OLANEW_clean_sbu_2, # of connection points: 3
#     Node 6, Type 0, BuildingBlock: OLANEW_clean_sbu_2, # of connection points: 3
#     Node 7, Type 0, BuildingBlock: OLANEW_clean_sbu_2, # of connection points: 3
#     Node 8, Type 0, BuildingBlock: OLANEW_clean_sbu_2, # of connection points: 3
#     Node 9, Type 0, BuildingBlock: OLANEW_clean_sbu_2, # of connection points: 3
#     Node 10, Type 0, BuildingBlock: OLANEW_clean_sbu_2, # of connection points: 3
#     Node 11, Type 0, BuildingBlock: OLANEW_clean_sbu_2, # of connection points: 3
#     Node 12, Type 0, BuildingBlock: OLANEW_clean_sbu_2, # of connection points: 3
#     Node 13, Type 0, BuildingBlock: OLANEW_clean_sbu_2, # of connection points: 3
#     Node 14, Type 0, BuildingBlock: OLANEW_clean_sbu_2, # of connection points: 3
#     Node 15, Type 0, BuildingBlock: OLANEW_clean_sbu_2, # of connection points: 3
#     Node 16, Type 0, BuildingBlock: OLANEW_clean_sbu_2, # of connection points: 3
#     Node 17, Type 0, BuildingBlock: OLANEW_clean_sbu_2, # of connection points: 3
#     Node 18, Type 0, BuildingBlock: OLANEW_clean_sbu_2, # of connection points: 3
#     Node 19, Type 0, BuildingBlock: OLANEW_clean_sbu_2, # of connection points: 3
#     Node 20, Type 0, BuildingBlock: OLANEW_clean_sbu_2, # of connection points: 3
#     Node 21, Type 0, BuildingBlock: OLANEW_clean_sbu_2, # of connection points: 3
#     Node 22, Type 0, BuildingBlock: OLANEW_clean_sbu_2, # of connection points: 3
#     Node 23, Type 0, BuildingBlock: OLANEW_clean_sbu_2, # of connection points: 3
#     Node 24, Type 0, BuildingBlock: OLANEW_clean_sbu_2, # of connection points: 3
#     Node 25, Type 0, BuildingBlock: OLANEW_clean_sbu_2, # of connection points: 3
#     Node 26, Type 0, BuildingBlock: OLANEW_clean_sbu_2, # of connection points: 3
#     Node 27, Type 0, BuildingBlock: OLANEW_clean_sbu_2, # of connection points: 3
#     Node 28, Type 0, BuildingBlock: OLANEW_clean_sbu_2, # of connection points: 3
#     Node 29, Type 0, BuildingBlock: OLANEW_clean_sbu_2, # of connection points: 3
#     Node 30, Type 0, BuildingBlock: OLANEW_clean_sbu_2, # of connection points: 3
#     Node 31, Type 0, BuildingBlock: OLANEW_clean_sbu_2, # of connection points: 3
#     Node 32, Type 1, BuildingBlock: AZAVOO_clean_linker_0, # of connection points: 4
#     Node 33, Type 1, BuildingBlock: AZAVOO_clean_linker_0, # of connection points: 4
#     Node 34, Type 1, BuildingBlock: AZAVOO_clean_linker_0, # of connection points: 4
#     Node 35, Type 1, BuildingBlock: AZAVOO_clean_linker_0, # of connection points: 4
#     Node 36, Type 1, BuildingBlock: AZAVOO_clean_linker_0, # of connection points: 4
#     Node 37, Type 1, BuildingBlock: AZAVOO_clean_linker_0, # of connection points: 4
#     Node 38, Type 1, BuildingBlock: AZAVOO_clean_linker_0, # of connection points: 4
#     Node 39, Type 1, BuildingBlock: AZAVOO_clean_linker_0, # of connection points: 4
#     Node 40, Type 1, BuildingBlock: AZAVOO_clean_linker_0, # of connection points: 4
#     Node 41, Type 1, BuildingBlock: AZAVOO_clean_linker_0, # of connection points: 4
#     Node 42, Type 1, BuildingBlock: AZAVOO_clean_linker_0, # of connection points: 4
#     Node 43, Type 1, BuildingBlock: AZAVOO_clean_linker_0, # of connection points: 4
#     Node 44, Type 1, BuildingBlock: AZAVOO_clean_linker_0, # of connection points: 4
#     Node 45, Type 1, BuildingBlock: AZAVOO_clean_linker_0, # of connection points: 4
#     Node 46, Type 1, BuildingBlock: AZAVOO_clean_linker_0, # of connection points: 4
#     Node 47, Type 1, BuildingBlock: AZAVOO_clean_linker_0, # of connection points: 4
#     Node 48, Type 1, BuildingBlock: AZAVOO_clean_linker_0, # of connection points: 4
#     Node 49, Type 1, BuildingBlock: AZAVOO_clean_linker_0, # of connection points: 4
#     Node 50, Type 1, BuildingBlock: AZAVOO_clean_linker_0, # of connection points: 4
#     Node 51, Type 1, BuildingBlock: AZAVOO_clean_linker_0, # of connection points: 4
#     Node 52, Type 1, BuildingBlock: AZAVOO_clean_linker_0, # of connection points: 4
#     Node 53, Type 1, BuildingBlock: AZAVOO_clean_linker_0, # of connection points: 4
#     Node 54, Type 1, BuildingBlock: AZAVOO_clean_linker_0, # of connection points: 4
#     Node 55, Type 1, BuildingBlock: AZAVOO_clean_linker_0, # of connection points: 4
#     Edge 56, Type (0, 1), BuildingBlock: TEMPAE_clean_linker_10, # of connection points: 2
#     Edge 57, Type (0, 1), BuildingBlock: TEMPAE_clean_linker_10, # of connection points: 2
#     Edge 58, Type (0, 1), BuildingBlock: TEMPAE_clean_linker_10, # of connection points: 2
#     Edge 59, Type (0, 1), BuildingBlock: TEMPAE_clean_linker_10, # of connection points: 2
#     Edge 60, Type (0, 1), BuildingBlock: TEMPAE_clean_linker_10, # of connection points: 2
#     Edge 61, Type (0, 1), BuildingBlock: TEMPAE_clean_linker_10, # of connection points: 2
#     Edge 62, Type (0, 1), BuildingBlock: TEMPAE_clean_linker_10, # of connection points: 2
#     Edge 63, Type (0, 1), BuildingBlock: TEMPAE_clean_linker_10, # of connection points: 2
#     Edge 64, Type (0, 1), BuildingBlock: TEMPAE_clean_linker_10, # of connection points: 2
#     Edge 65, Type (0, 1), BuildingBlock: TEMPAE_clean_linker_10, # of connection points: 2
#     Edge 66, Type (0, 1), BuildingBlock: TEMPAE_clean_linker_10, # of connection points: 2
#     Edge 67, Type (0, 1), BuildingBlock: TEMPAE_clean_linker_10, # of connection points: 2
#     Edge 68, Type (0, 1), BuildingBlock: TEMPAE_clean_linker_10, # of connection points: 2
#     Edge 69, Type (0, 1), BuildingBlock: TEMPAE_clean_linker_10, # of connection points: 2
#     Edge 70, Type (0, 1), BuildingBlock: TEMPAE_clean_linker_10, # of connection points: 2
#     Edge 71, Type (0, 1), BuildingBlock: TEMPAE_clean_linker_10, # of connection points: 2
#     Edge 72, Type (0, 1), BuildingBlock: TEMPAE_clean_linker_10, # of connection points: 2
#     Edge 73, Type (0, 1), BuildingBlock: TEMPAE_clean_linker_10, # of connection points: 2
#     Edge 74, Type (0, 1), BuildingBlock: TEMPAE_clean_linker_10, # of connection points: 2
#     Edge 75, Type (0, 1), BuildingBlock: TEMPAE_clean_linker_10, # of connection points: 2
#     Edge 76, Type (0, 1), BuildingBlock: TEMPAE_clean_linker_10, # of connection points: 2
#     Edge 77, Type (0, 1), BuildingBlock: TEMPAE_clean_linker_10, # of connection points: 2
#     Edge 78, Type (0, 1), BuildingBlock: TEMPAE_clean_linker_10, # of connection points: 2
#     Edge 79, Type (0, 1), BuildingBlock: TEMPAE_clean_linker_10, # of connection points: 2
#     Edge 80, Type (0, 1), BuildingBlock: TEMPAE_clean_linker_10, # of connection points: 2
#     Edge 81, Type (0, 1), BuildingBlock: TEMPAE_clean_linker_10, # of connection points: 2
#     Edge 82, Type (0, 1), BuildingBlock: TEMPAE_clean_linker_10, # of connection points: 2
#     Edge 83, Type (0, 1), BuildingBlock: TEMPAE_clean_linker_10, # of connection points: 2
#     Edge 84, Type (0, 1), BuildingBlock: TEMPAE_clean_linker_10, # of connection points: 2
#     Edge 85, Type (0, 1), BuildingBlock: TEMPAE_clean_linker_10, # of connection points: 2
#     Edge 86, Type (0, 1), BuildingBlock: TEMPAE_clean_linker_10, # of connection points: 2
#     Edge 87, Type (0, 1), BuildingBlock: TEMPAE_clean_linker_10, # of connection points: 2
#     Edge 88, Type (0, 1), BuildingBlock: TEMPAE_clean_linker_10, # of connection points: 2
#     Edge 89, Type (0, 1), BuildingBlock: TEMPAE_clean_linker_10, # of connection points: 2
#     Edge 90, Type (0, 1), BuildingBlock: TEMPAE_clean_linker_10, # of connection points: 2
#     Edge 91, Type (0, 1), BuildingBlock: TEMPAE_clean_linker_10, # of connection points: 2
#     Edge 92, Type (0, 1), BuildingBlock: TEMPAE_clean_linker_10, # of connection points: 2
#     Edge 93, Type (0, 1), BuildingBlock: TEMPAE_clean_linker_10, # of connection points: 2
#     Edge 94, Type (0, 1), BuildingBlock: TEMPAE_clean_linker_10, # of connection points: 2
#     Edge 95, Type (0, 1), BuildingBlock: TEMPAE_clean_linker_10, # of connection points: 2
#     Edge 96, Type (0, 1), BuildingBlock: TEMPAE_clean_linker_10, # of connection points: 2
#     Edge 97, Type (0, 1), BuildingBlock: TEMPAE_clean_linker_10, # of connection points: 2
#     Edge 98, Type (0, 1), BuildingBlock: TEMPAE_clean_linker_10, # of connection points: 2
#     Edge 99, Type (0, 1), BuildingBlock: TEMPAE_clean_linker_10, # of connection points: 2
#     Edge 100, Type (0, 1), BuildingBlock: TEMPAE_clean_linker_10, # of connection points: 2
#     Edge 101, Type (0, 1), BuildingBlock: TEMPAE_clean_linker_10, # of connection points: 2
#     Edge 102, Type (0, 1), BuildingBlock: TEMPAE_clean_linker_10, # of connection points: 2
#     Edge 103, Type (0, 1), BuildingBlock: TEMPAE_clean_linker_10, # of connection points: 2
#     Edge 104, Type (0, 1), BuildingBlock: TEMPAE_clean_linker_10, # of connection points: 2
#     Edge 105, Type (0, 1), BuildingBlock: TEMPAE_clean_linker_10, # of connection points: 2
#     Edge 106, Type (0, 1), BuildingBlock: TEMPAE_clean_linker_10, # of connection points: 2
#     Edge 107, Type (0, 1), BuildingBlock: TEMPAE_clean_linker_10, # of connection points: 2
#     Edge 108, Type (0, 1), BuildingBlock: TEMPAE_clean_linker_10, # of connection points: 2
#     Edge 109, Type (0, 1), BuildingBlock: TEMPAE_clean_linker_10, # of connection points: 2
#     Edge 110, Type (0, 1), BuildingBlock: TEMPAE_clean_linker_10, # of connection points: 2
#     Edge 111, Type (0, 1), BuildingBlock: TEMPAE_clean_linker_10, # of connection points: 2
#     Edge 112, Type (0, 1), BuildingBlock: TEMPAE_clean_linker_10, # of connection points: 2
#     Edge 113, Type (0, 1), BuildingBlock: TEMPAE_clean_linker_10, # of connection points: 2
#     Edge 114, Type (0, 1), BuildingBlock: TEMPAE_clean_linker_10, # of connection points: 2
#     Edge 115, Type (0, 1), BuildingBlock: TEMPAE_clean_linker_10, # of connection points: 2
#     Edge 116, Type (0, 1), BuildingBlock: TEMPAE_clean_linker_10, # of connection points: 2
#     Edge 117, Type (0, 1), BuildingBlock: TEMPAE_clean_linker_10, # of connection points: 2
#     Edge 118, Type (0, 1), BuildingBlock: TEMPAE_clean_linker_10, # of connection points: 2
#     Edge 119, Type (0, 1), BuildingBlock: TEMPAE_clean_linker_10, # of connection points: 2
#     Edge 120, Type (0, 1), BuildingBlock: TEMPAE_clean_linker_10, # of connection points: 2
#     Edge 121, Type (0, 1), BuildingBlock: TEMPAE_clean_linker_10, # of connection points: 2
#     Edge 122, Type (0, 1), BuildingBlock: TEMPAE_clean_linker_10, # of connection points: 2
#     Edge 123, Type (0, 1), BuildingBlock: TEMPAE_clean_linker_10, # of connection points: 2
#     Edge 124, Type (0, 1), BuildingBlock: TEMPAE_clean_linker_10, # of connection points: 2
#     Edge 125, Type (0, 1), BuildingBlock: TEMPAE_clean_linker_10, # of connection points: 2
#     Edge 126, Type (0, 1), BuildingBlock: TEMPAE_clean_linker_10, # of connection points: 2
#     Edge 127, Type (0, 1), BuildingBlock: TEMPAE_clean_linker_10, # of connection points: 2
#     Edge 128, Type (0, 1), BuildingBlock: TEMPAE_clean_linker_10, # of connection points: 2
#     Edge 129, Type (0, 1), BuildingBlock: TEMPAE_clean_linker_10, # of connection points: 2
#     Edge 130, Type (0, 1), BuildingBlock: TEMPAE_clean_linker_10, # of connection points: 2
#     Edge 131, Type (0, 1), BuildingBlock: TEMPAE_clean_linker_10, # of connection points: 2
#     Edge 132, Type (0, 1), BuildingBlock: TEMPAE_clean_linker_10, # of connection points: 2
#     Edge 133, Type (0, 1), BuildingBlock: TEMPAE_clean_linker_10, # of connection points: 2
#     Edge 134, Type (0, 1), BuildingBlock: TEMPAE_clean_linker_10, # of connection points: 2
#     Edge 135, Type (0, 1), BuildingBlock: TEMPAE_clean_linker_10, # of connection points: 2
#     Edge 136, Type (0, 1), BuildingBlock: TEMPAE_clean_linker_10, # of connection points: 2
#     Edge 137, Type (0, 1), BuildingBlock: TEMPAE_clean_linker_10, # of connection points: 2
#     Edge 138, Type (0, 1), BuildingBlock: TEMPAE_clean_linker_10, # of connection points: 2
#     Edge 139, Type (0, 1), BuildingBlock: TEMPAE_clean_linker_10, # of connection points: 2
#     Edge 140, Type (0, 1), BuildingBlock: TEMPAE_clean_linker_10, # of connection points: 2
#     Edge 141, Type (0, 1), BuildingBlock: TEMPAE_clean_linker_10, # of connection points: 2
#     Edge 142, Type (0, 1), BuildingBlock: TEMPAE_clean_linker_10, # of connection points: 2
#     Edge 143, Type (0, 1), BuildingBlock: TEMPAE_clean_linker_10, # of connection points: 2
#     Edge 144, Type (0, 1), BuildingBlock: TEMPAE_clean_linker_10, # of connection points: 2
#     Edge 145, Type (0, 1), BuildingBlock: TEMPAE_clean_linker_10, # of connection points: 2
#     Edge 146, Type (0, 1), BuildingBlock: TEMPAE_clean_linker_10, # of connection points: 2
#     Edge 147, Type (0, 1), BuildingBlock: TEMPAE_clean_linker_10, # of connection points: 2
#     Edge 148, Type (0, 1), BuildingBlock: TEMPAE_clean_linker_10, # of connection points: 2
#     Edge 149, Type (0, 1), BuildingBlock: TEMPAE_clean_linker_10, # of connection points: 2
#     Edge 150, Type (0, 1), BuildingBlock: TEMPAE_clean_linker_10, # of connection points: 2
#     Edge 151, Type (0, 1), BuildingBlock: TEMPAE_clean_linker_10, # of connection points: 2
# Relax obj value: 0.074
# Max RMSD: 0.231
# Mean RMSD: 0.150
data_MOF--net-tbo--node1-OLANEW_clean_sbu_2--node2-AZAVOO_clean_linker_0--edge1-TEMPAE_clean_linker_10
_symmetry_space_group_name_H-M    P1
_symmetry_Int_Tables_number       1
_symmetry_cell_setting            triclinic
loop_
_symmetry_equiv_pos_as_xyz
'x, y, z'
_cell_length_a     87.346255
_cell_length_b     89.065993
_cell_length_c     86.31501
_cell_angle_alpha  96.416104
_cell_angle_beta   87.144239
_cell_angle_gamma 96.15103
loop_
_atom_site_label
_atom_site_type_symbol
_atom_site_fract_x
_atom_site_fract_y
_atom_site_fract_z
_atom_type_partial_charge
O0 O 0.19436 0.1716 0.20899 0.0
Cd1 Cd 0.17924 0.16482 0.23232 0.0
O2 O 0.20674 0.19156 0.22192 0.0
Cd3 Cd 0.18987 0.19119 0.24144 0.0
O4 O 0.16814 0.19834 0.25186 0.0
C5 C 0.1657 0.21186 0.25013 0.0
O6 O 0.17644 0.22041 0.24304 0.0
C7 C 0.20492 0.18264 0.20943 0.0
C8 C 0.19356 0.14446 0.24773 0.0
O9 O 0.18302 0.13972 0.23802 0.0
O10 O 0.19727 0.15882 0.25021 0.0
O11 O 0.90021 0.18918 0.1601 0.0
Cd12 Cd 0.88669 0.16972 0.14205 0.0
O13 O 0.92226 0.17913 0.15728 0.0
Cd14 Cd 0.9112 0.15861 0.14468 0.0
O15 O 0.89499 0.13926 0.14965 0.0
C16 C 0.89052 0.14014 0.16393 0.0
O17 O 0.89585 0.15201 0.17328 0.0
C18 C 0.91439 0.18975 0.16311 0.0
C19 C 0.86948 0.18338 0.12237 0.0
O20 O 0.86336 0.1785 0.1349 0.0
O21 O 0.88368 0.18157 0.11905 0.0
O22 O 0.8899 0.85314 0.1598 0.0
Cd23 Cd 0.90664 0.86912 0.17824 0.0
O24 O 0.89247 0.87024 0.14309 0.0
Cd25 Cd 0.89934 0.88817 0.16151 0.0
O26 O 0.8903 0.90475 0.17927 0.0
C27 C 0.8862 0.90127 0.19286 0.0
O28 O 0.88858 0.88785 0.19664 0.0
C29 C 0.88774 0.85692 0.14636 0.0
C30 C 0.92659 0.85226 0.19159 0.0
O31 O 0.91376 0.85522 0.1985 0.0
O32 O 0.93 0.85731 0.17838 0.0
O33 O 0.16607 0.91287 0.15569 0.0
Cd34 Cd 0.15185 0.89518 0.13656 0.0
O35 O 0.16472 0.89489 0.17138 0.0
Cd36 Cd 0.14848 0.87825 0.15879 0.0
O37 O 0.13034 0.86086 0.1646 0.0
C38 C 0.12042 0.8653 0.17489 0.0
O39 O 0.12114 0.87982 0.17997 0.0
C40 C 0.16963 0.90823 0.16831 0.0
C41 C 0.17282 0.87893 0.11809 0.0
O42 O 0.16734 0.89023 0.11315 0.0
O43 O 0.16814 0.87516 0.13155 0.0
O44 O 0.22692 0.92575 0.88839 0.0
Cd45 Cd 0.21021 0.90937 0.90447 0.0
O46 O 0.20699 0.93585 0.88089 0.0
Cd47 Cd 0.18929 0.9204 0.89113 0.0
O48 O 0.16835 0.90553 0.88569 0.0
C49 C 0.16598 0.90331 0.87116 0.0
O50 O 0.17613 0.90967 0.86149 0.0
C51 C 0.22147 0.93527 0.88079 0.0
C52 C 0.22642 0.89338 0.92307 0.0
O53 O 0.22281 0.90673 0.92789 0.0
O54 O 0.22247 0.88766 0.90938 0.0
O55 O 0.18591 0.14407 0.91398 0.0
Cd56 Cd 0.16927 0.12751 0.89595 0.0
O57 O 0.16693 0.15083 0.93004 0.0
Cd58 Cd 0.14909 0.14209 0.91368 0.0
O59 O 0.13172 0.14968 0.89991 0.0
C60 C 0.12898 0.16332 0.904 0.0
O61 O 0.13629 0.17092 0.91584 0.0
C62 C 0.18128 0.15104 0.92672 0.0
C63 C 0.18746 0.10963 0.87565 0.0
O64 O 0.18308 0.10574 0.88915 0.0
O65 O 0.18299 0.12183 0.87161 0.0
O66 O 0.80842 0.21674 0.83351 0.0
Cd67 Cd 0.81537 0.20266 0.80872 0.0
O68 O 0.80419 0.19613 0.84562 0.0
Cd69 Cd 0.80718 0.17962 0.82538 0.0
O70 O 0.80257 0.15643 0.81436 0.0
C71 C 0.78917 0.15002 0.81719 0.0
O72 O 0.77927 0.15787 0.82569 0.0
C73 C 0.80493 0.21049 0.84593 0.0
C74 C 0.84719 0.20775 0.80383 0.0
O75 O 0.83816 0.21657 0.79909 0.0
O76 O 0.84112 0.19629 0.81054 0.0
O77 O 0.8669 0.89072 0.87739 0.0
Cd78 Cd 0.84552 0.9005 0.89347 0.0
O79 O 0.85253 0.87071 0.86694 0.0
Cd80 Cd 0.83482 0.87281 0.88566 0.0
O81 O 0.82489 0.8651 0.90758 0.0
C82 C 0.83425 0.86008 0.91608 0.0
O83 O 0.84884 0.86052 0.91148 0.0
C84 C 0.86528 0.87908 0.86741 0.0
C85 C 0.82834 0.91705 0.8762 0.0
O86 O 0.84009 0.92347 0.88357 0.0
O87 O 0.82465 0.90285 0.8771 0.0
O88 O 0.16676 0.6713 0.67556 0.0
Cd89 Cd 0.15098 0.66662 0.69916 0.0
O90 O 0.14844 0.68031 0.6638 0.0
Cd91 Cd 0.13119 0.68002 0.68303 0.0
O92 O 0.1127 0.69046 0.69693 0.0
C93 C 0.11459 0.70484 0.69981 0.0
O94 O 0.12749 0.71214 0.69491 0.0
C95 C 0.16213 0.67667 0.66377 0.0
C96 C 0.15735 0.64053 0.71194 0.0
O97 O 0.14576 0.64021 0.70332 0.0
O98 O 0.16593 0.65309 0.71443 0.0
O99 O 0.86286 0.74149 0.69988 0.0
Cd100 Cd 0.83877 0.72729 0.69112 0.0
O101 O 0.87671 0.7225 0.69261 0.0
Cd102 Cd 0.85735 0.7063 0.68504 0.0
O103 O 0.84531 0.68384 0.68703 0.0
C104 C 0.8539 0.67318 0.68685 0.0
O105 O 0.86883 0.67628 0.68447 0.0
C106 C 0.87581 0.73608 0.69863 0.0
C107 C 0.82942 0.73672 0.66368 0.0
O108 O 0.8256 0.74337 0.67704 0.0
O109 O 0.83766 0.7256 0.66333 0.0
O110 O 0.87495 0.3296 0.67993 0.0
Cd111 Cd 0.89028 0.34491 0.70012 0.0
O112 O 0.86925 0.35036 0.67087 0.0
Cd113 Cd 0.87897 0.36621 0.6898 0.0
O114 O 0.87598 0.38501 0.70775 0.0
C115 C 0.86471 0.3832 0.71749 0.0
O116 O 0.85645 0.36993 0.71688 0.0
C117 C 0.86846 0.33594 0.66988 0.0
C118 C 0.91059 0.32913 0.71438 0.0
O119 O 0.89714 0.33096 0.72048 0.0
O120 O 0.91432 0.33454 0.70141 0.0
O121 O 0.15018 0.4351 0.66496 0.0
Cd122 Cd 0.14548 0.42439 0.63826 0.0
O123 O 0.14009 0.4144 0.67464 0.0
Cd124 Cd 0.13404 0.39887 0.69243 0.0
O125 O 0.12381 0.38295 0.70844 0.0
C126 C 0.1104 0.37648 0.70566 0.0
O127 O 0.10348 0.37967 0.69344 0.0
C128 C 0.14682 0.42783 0.67672 0.0
C129 C 0.16772 0.40501 0.62791 0.0
O130 O 0.17062 0.41944 0.62813 0.0
O131 O 0.15423 0.39968 0.63246 0.0
O132 O 0.14909 0.41377 0.37617 0.0
Cd133 Cd 0.13097 0.39785 0.39127 0.0
O134 O 0.14627 0.43584 0.38965 0.0
Cd135 Cd 0.12604 0.42554 0.40184 0.0
O136 O 0.10387 0.4121 0.39843 0.0
C137 C 0.10097 0.40904 0.38407 0.0
O138 O 0.11092 0.41449 0.37366 0.0
C139 C 0.15303 0.42797 0.3787 0.0
C140 C 0.14743 0.38102 0.40862 0.0
O141 O 0.14438 0.37644 0.3944 0.0
O142 O 0.14243 0.39343 0.41474 0.0
O143 O 0.26411 0.71729 0.34201 0.0
Cd144 Cd 0.27313 0.71357 0.31472 0.0
O145 O 0.24012 0.71633 0.33535 0.0
Cd146 Cd 0.21556 0.71887 0.33908 0.0
O147 O 0.19276 0.72471 0.33406 0.0
C148 C 0.19187 0.73131 0.32186 0.0
O149 O 0.20449 0.73424 0.31331 0.0
C150 C 0.24994 0.71777 0.34593 0.0
C151 C 0.27029 0.683 0.30287 0.0
O152 O 0.28194 0.68886 0.31071 0.0
O153 O 0.25992 0.69158 0.30062 0.0
O154 O 0.89513 0.6365 0.40819 0.0
Cd155 Cd 0.90194 0.61554 0.38931 0.0
O156 O 0.88222 0.62298 0.42523 0.0
Cd157 Cd 0.88364 0.60234 0.4094 0.0
O158 O 0.87082 0.588 0.39134 0.0
C159 C 0.85709 0.59129 0.39062 0.0
O160 O 0.85237 0.60234 0.40049 0.0
C161 C 0.88757 0.63583 0.42109 0.0
C162 C 0.92058 0.62887 0.3665 0.0
O163 O 0.90588 0.62723 0.36566 0.0
O164 O 0.9265 0.62358 0.37778 0.0
O165 O 0.87006 0.37937 0.37269 0.0
Cd166 Cd 0.85051 0.39122 0.38981 0.0
O167 O 0.87925 0.36865 0.39156 0.0
Cd168 Cd 0.86227 0.37452 0.41006 0.0
O169 O 0.84992 0.36734 0.4311 0.0
C170 C 0.85769 0.36089 0.44002 0.0
O171 O 0.87237 0.35983 0.43645 0.0
C172 C 0.87979 0.3714 0.37738 0.0
C173 C 0.83412 0.40977 0.37406 0.0
O174 O 0.8466 0.41506 0.38082 0.0
O175 O 0.82939 0.39572 0.37478 0.0
O176 O 0.67966 0.17801 0.69133 0.0
Cd177 Cd 0.66427 0.16319 0.70984 0.0
O178 O 0.66008 0.19124 0.69046 0.0
Cd179 Cd 0.64689 0.20947 0.685 0.0
O180 O 0.62955 0.22571 0.68816 0.0
C181 C 0.61556 0.22128 0.68525 0.0
O182 O 0.61195 0.2071 0.67954 0.0
C183 C 0.67373 0.18867 0.68592 0.0
C184 C 0.67787 0.13799 0.71709 0.0
O185 O 0.66929 0.13709 0.70533 0.0
O186 O 0.68018 0.15087 0.72531 0.0
O187 O 0.3921 0.22496 0.64826 0.0
Cd188 Cd 0.37519 0.20722 0.63153 0.0
O189 O 0.40481 0.20699 0.65538 0.0
Cd190 Cd 0.39002 0.18791 0.64435 0.0
O191 O 0.37781 0.16564 0.64716 0.0
C192 C 0.36468 0.16493 0.65421 0.0
O193 O 0.35833 0.17758 0.65831 0.0
C194 C 0.40287 0.22098 0.65578 0.0
C195 C 0.35626 0.22291 0.6154 0.0
O196 O 0.35169 0.21805 0.62846 0.0
O197 O 0.36973 0.22024 0.60994 0.0
O198 O 0.3574 0.8042 0.68225 0.0
Cd199 Cd 0.36862 0.81811 0.70583 0.0
O200 O 0.34845 0.8247 0.67571 0.0
Cd201 Cd 0.35709 0.84098 0.6949 0.0
O202 O 0.35738 0.86417 0.70629 0.0
C203 C 0.35276 0.86736 0.72035 0.0
O204 O 0.34848 0.85626 0.72896 0.0
C205 C 0.34995 0.81059 0.673 0.0
C206 C 0.3971 0.80944 0.71291 0.0
O207 O 0.38444 0.80234 0.71752 0.0
O208 O 0.3963 0.82049 0.70476 0.0
O209 O 0.65822 0.90624 0.60514 0.0
Cd210 Cd 0.65206 0.89459 0.57898 0.0
O211 O 0.64852 0.88461 0.6131 0.0
Cd212 Cd 0.64323 0.86853 0.63045 0.0
O213 O 0.63455 0.85522 0.64931 0.0
C214 C 0.62019 0.851 0.65009 0.0
O215 O 0.6114 0.85469 0.63949 0.0
C216 C 0.65488 0.89807 0.61623 0.0
C217 C 0.67432 0.87551 0.56777 0.0
O218 O 0.67524 0.88923 0.56437 0.0
O219 O 0.66278 0.87077 0.57631 0.0
O220 O 0.70021 0.91243 0.38287 0.0
Cd221 Cd 0.68443 0.89185 0.39444 0.0
O222 O 0.67998 0.92276 0.37644 0.0
Cd223 Cd 0.66298 0.90556 0.38496 0.0
O224 O 0.64302 0.88884 0.38122 0.0
C225 C 0.63992 0.88543 0.36695 0.0
O226 O 0.64887 0.89184 0.35632 0.0
C227 C 0.69453 0.92277 0.37665 0.0
C228 C 0.70188 0.8745 0.41035 0.0
O229 O 0.70064 0.87198 0.39553 0.0
O230 O 0.69489 0.88526 0.41768 0.0
O231 O 0.67138 0.1638 0.38654 0.0
Cd232 Cd 0.6603 0.15414 0.36149 0.0
O233 O 0.65382 0.17953 0.39311 0.0
Cd234 Cd 0.64259 0.1758 0.37081 0.0
O235 O 0.63053 0.18408 0.35245 0.0
C236 C 0.61959 0.192 0.35709 0.0
O237 O 0.616 0.1939 0.3721 0.0
C238 C 0.6657 0.17361 0.39638 0.0
C239 C 0.67644 0.13062 0.34719 0.0
O240 O 0.6806 0.14448 0.34497 0.0
O241 O 0.66447 0.12784 0.35603 0.0
O242 O 0.3546 0.17597 0.4263 0.0
Cd243 Cd 0.36911 0.15842 0.40918 0.0
O244 O 0.3657 0.17263 0.44782 0.0
Cd245 Cd 0.37404 0.152 0.43595 0.0
O246 O 0.36587 0.13091 0.42213 0.0
C247 C 0.35126 0.12836 0.42229 0.0
O248 O 0.34308 0.13798 0.43086 0.0
C249 C 0.35668 0.17965 0.44077 0.0
C250 C 0.38962 0.17485 0.39001 0.0
O251 O 0.37623 0.16939 0.38542 0.0
O252 O 0.39338 0.17232 0.40358 0.0
O253 O 0.40017 0.89267 0.39843 0.0
Cd254 Cd 0.38079 0.90401 0.4162 0.0
O255 O 0.39645 0.87076 0.40832 0.0
Cd256 Cd 0.37944 0.87633 0.4269 0.0
O257 O 0.36564 0.86743 0.44631 0.0
C258 C 0.37267 0.86023 0.4552 0.0
O259 O 0.38756 0.85958 0.45275 0.0
C260 C 0.40327 0.87905 0.39848 0.0
C261 C 0.36292 0.92172 0.40104 0.0
O262 O 0.37539 0.92754 0.40753 0.0
O263 O 0.3589 0.90753 0.40174 0.0
O264 O 0.72867 0.70723 0.21725 0.0
Cd265 Cd 0.71752 0.70059 0.24251 0.0
O266 O 0.70708 0.714 0.20933 0.0
Cd267 Cd 0.69283 0.71122 0.23056 0.0
O268 O 0.67223 0.71623 0.24489 0.0
C269 C 0.6717 0.7295 0.25192 0.0
O270 O 0.68395 0.73939 0.25121 0.0
C271 C 0.72124 0.71202 0.20682 0.0
C272 C 0.72274 0.6713 0.24828 0.0
O273 O 0.71013 0.6738 0.2425 0.0
O274 O 0.73289 0.68262 0.25129 0.0
O275 O 0.39469 0.66931 0.16226 0.0
Cd276 Cd 0.37761 0.6527 0.14473 0.0
O277 O 0.41465 0.6561 0.15817 0.0
Cd278 Cd 0.3999 0.63661 0.14787 0.0
O279 O 0.38319 0.61714 0.1515 0.0
C280 C 0.37165 0.61973 0.16059 0.0
O281 O 0.37019 0.63374 0.16659 0.0
C282 C 0.40876 0.66791 0.1643 0.0
C283 C 0.36489 0.67048 0.12522 0.0
O284 O 0.35881 0.66855 0.13876 0.0
O285 O 0.37681 0.66368 0.12073 0.0
O286 O 0.4114 0.36898 0.12657 0.0
Cd287 Cd 0.4236 0.38671 0.14718 0.0
O288 O 0.40262 0.38692 0.115 0.0
Cd289 Cd 0.40914 0.40483 0.13348 0.0
O290 O 0.39914 0.41997 0.15191 0.0
C291 C 0.39317 0.43135 0.14807 0.0
O292 O 0.39451 0.43425 0.13344 0.0
C293 C 0.40419 0.37296 0.1155 0.0
C294 C 0.43801 0.37156 0.16808 0.0
O295 O 0.4236 0.37321 0.16967 0.0
O296 O 0.44566 0.37713 0.15662 0.0
O297 O 0.64813 0.42243 0.1219 0.0
Cd298 Cd 0.63914 0.41214 0.09617 0.0
O299 O 0.63671 0.40293 0.13283 0.0
Cd300 Cd 0.63079 0.38832 0.15151 0.0
O301 O 0.62074 0.37386 0.16903 0.0
C302 C 0.60647 0.36933 0.16831 0.0
O303 O 0.59864 0.37351 0.15719 0.0
C304 C 0.64513 0.41555 0.134 0.0
C305 C 0.65913 0.39175 0.08235 0.0
O306 O 0.66208 0.40607 0.08163 0.0
O307 O 0.64656 0.38702 0.0894 0.0
O308 O 0.69955 0.42027 0.8953 0.0
Cd309 Cd 0.68063 0.40539 0.91081 0.0
O310 O 0.68264 0.43575 0.89089 0.0
Cd311 Cd 0.66279 0.42201 0.89999 0.0
O312 O 0.6411 0.40883 0.89362 0.0
C313 C 0.63778 0.40966 0.87959 0.0
O314 O 0.64729 0.41805 0.871 0.0
C315 C 0.69634 0.43204 0.88954 0.0
C316 C 0.6942 0.38469 0.92631 0.0
O317 O 0.68809 0.38062 0.9131 0.0
O318 O 0.69387 0.39853 0.93217 0.0
O319 O 0.65857 0.636 0.92496 0.0
Cd320 Cd 0.64535 0.62445 0.90162 0.0
O321 O 0.63855 0.64632 0.93628 0.0
Cd322 Cd 0.62499 0.64069 0.91553 0.0
O323 O 0.6153 0.64835 0.89535 0.0
C324 C 0.60363 0.65578 0.89767 0.0
O325 O 0.59731 0.65753 0.91181 0.0
C326 C 0.65253 0.64364 0.93656 0.0
C327 C 0.66525 0.60712 0.88282 0.0
O328 O 0.66521 0.62137 0.8818 0.0
O329 O 0.65566 0.60098 0.89257 0.0
O330 O 0.33094 0.75575 0.84064 0.0
Cd331 Cd 0.33061 0.74136 0.81468 0.0
O332 O 0.34618 0.74143 0.85059 0.0
Cd333 Cd 0.34151 0.72195 0.83341 0.0
O334 O 0.33122 0.69866 0.82828 0.0
C335 C 0.31927 0.69495 0.83657 0.0
O336 O 0.31393 0.70529 0.8469 0.0
C337 C 0.3392 0.75334 0.85167 0.0
C338 C 0.36045 0.74308 0.80136 0.0
O339 O 0.35489 0.7317 0.80841 0.0
O340 O 0.35171 0.75354 0.80013 0.0
O341 O 0.32961 0.35806 0.8425 0.0
Cd342 Cd 0.3046 0.36037 0.85625 0.0
O343 O 0.34043 0.3493 0.86174 0.0
Cd344 Cd 0.32084 0.34757 0.87845 0.0
O345 O 0.3117 0.33753 0.89949 0.0
C346 C 0.32144 0.3312 0.90634 0.0
O347 O 0.33564 0.33146 0.90047 0.0
C348 C 0.34128 0.35346 0.84807 0.0
C349 C 0.29071 0.38529 0.84844 0.0
O350 O 0.29866 0.38631 0.86067 0.0
O351 O 0.28932 0.37252 0.83992 0.0
H352 H 0.22623 0.15391 0.05072 0.0
H353 H 0.30106 0.29264 0.1505 0.0
H354 H 0.28257 0.21308 0.02539 0.0
H355 H 0.26988 0.19861 0.00296 0.0
H356 H 0.23994 0.23406 0.00176 0.0
H357 H 0.2529 0.24855 0.02405 0.0
H358 H 0.27526 0.20382 0.06031 0.0
H359 H 0.25787 0.1803 0.05769 0.0
H360 H 0.22153 0.20534 0.0448 0.0
H361 H 0.23897 0.22879 0.04769 0.0
H362 H 0.28986 0.22557 0.09069 0.0
H363 H 0.27955 0.21532 0.11468 0.0
H364 H 0.23417 0.22622 0.10484 0.0
H365 H 0.2448 0.23727 0.08152 0.0
H366 H 0.31364 0.25196 0.08215 0.0
H367 H 0.32313 0.26411 0.10718 0.0
H368 H 0.27827 0.27941 0.11919 0.0
H369 H 0.26899 0.26736 0.09404 0.0
H370 H 0.32033 0.25862 0.04819 0.0
H371 H 0.34101 0.27895 0.05405 0.0
H372 H 0.30731 0.30837 0.07433 0.0
H373 H 0.28681 0.28774 0.06888 0.0
H374 H 0.30137 0.24336 0.01638 0.0
H375 H 0.30713 0.25686 0.99318 0.0
H376 H 0.28156 0.29328 0.01439 0.0
H377 H 0.27593 0.27975 0.03748 0.0
O378 O 0.23286 0.16337 0.05186 0.0
O379 O 0.21463 0.17675 0.04516 0.0
O380 O 0.32048 0.27965 0.13376 0.0
O381 O 0.2976 0.28769 0.14054 0.0
C382 C 0.2742 0.23895 0.0416 0.0
C383 C 0.26915 0.23213 0.05526 0.0
C384 C 0.27432 0.23876 0.06996 0.0
C385 C 0.28505 0.25184 0.0709 0.0
C386 C 0.29019 0.25855 0.05721 0.0
C387 C 0.28439 0.25241 0.04262 0.0
C388 C 0.26859 0.2318 0.02633 0.0
C389 C 0.27352 0.21787 0.02001 0.0
C390 C 0.26618 0.20958 0.00731 0.0
C391 C 0.25377 0.2151 0.00074 0.0
C392 C 0.24952 0.22955 0.0065 0.0
C393 C 0.2569 0.23784 0.01921 0.0
C394 C 0.25839 0.21797 0.05412 0.0
C395 C 0.26351 0.2042 0.05702 0.0
C396 C 0.25357 0.19078 0.05546 0.0
C397 C 0.23832 0.19093 0.05098 0.0
C398 C 0.23321 0.20481 0.04823 0.0
C399 C 0.24315 0.21822 0.04984 0.0
C400 C 0.2681 0.23221 0.08439 0.0
C401 C 0.27773 0.22585 0.09383 0.0
C402 C 0.27176 0.21985 0.10744 0.0
C403 C 0.25601 0.21994 0.11175 0.0
C404 C 0.2464 0.22619 0.10209 0.0
C405 C 0.25241 0.23237 0.08864 0.0
C406 C 0.29065 0.25881 0.0863 0.0
C407 C 0.3059 0.25796 0.09021 0.0
C408 C 0.31128 0.26489 0.10451 0.0
C409 C 0.30146 0.27275 0.11519 0.0
C410 C 0.28614 0.27346 0.11125 0.0
C411 C 0.28079 0.26656 0.09692 0.0
C412 C 0.30214 0.27172 0.05822 0.0
C413 C 0.31743 0.26957 0.05362 0.0
C414 C 0.32921 0.28122 0.05694 0.0
C415 C 0.32584 0.29524 0.06484 0.0
C416 C 0.31034 0.29761 0.06855 0.0
C417 C 0.29859 0.28591 0.06532 0.0
C418 C 0.28827 0.26059 0.02862 0.0
C419 C 0.29703 0.25425 0.01598 0.0
C420 C 0.30024 0.26194 0.00273 0.0
C421 C 0.2948 0.27615 0.00195 0.0
C422 C 0.28609 0.28247 0.0147 0.0
C423 C 0.28284 0.27475 0.02789 0.0
C424 C 0.22785 0.17663 0.04915 0.0
C425 C 0.30714 0.28021 0.13037 0.0
H426 H 0.85169 0.21849 0.98068 0.0
H427 H 0.76035 0.28033 0.12187 0.0
H428 H 0.80614 0.28307 0.98464 0.0
H429 H 0.81038 0.2768 0.9565 0.0
H430 H 0.76467 0.25281 0.95408 0.0
H431 H 0.76045 0.25951 0.9821 0.0
H432 H 0.81994 0.2685 0.01245 0.0
H433 H 0.83716 0.2501 0.00064 0.0
H434 H 0.7977 0.22024 0.98393 0.0
H435 H 0.78061 0.23868 0.99595 0.0
H436 H 0.81117 0.27841 0.04627 0.0
H437 H 0.82505 0.26355 0.06206 0.0
H438 H 0.79321 0.22398 0.0492 0.0
H439 H 0.77982 0.23886 0.03301 0.0
H440 H 0.78643 0.30469 0.05409 0.0
H441 H 0.78324 0.30927 0.0825 0.0
H442 H 0.75924 0.2643 0.08348 0.0
H443 H 0.76237 0.25994 0.05507 0.0
H444 H 0.77145 0.31814 0.02454 0.0
H445 H 0.75242 0.3358 0.03378 0.0
H446 H 0.72331 0.29921 0.05228 0.0
H447 H 0.74197 0.28138 0.04229 0.0
H448 H 0.78336 0.30768 0.99253 0.0
H449 H 0.76981 0.32364 0.97773 0.0
H450 H 0.72666 0.29752 0.98831 0.0
H451 H 0.74033 0.28191 0.0035 0.0
O452 O 0.84468 0.22557 0.98532 0.0
O453 O 0.82401 0.21067 0.97693 0.0
O454 O 0.77407 0.30189 0.10948 0.0
O455 O 0.76173 0.27884 0.11063 0.0
C456 C 0.78091 0.27443 0.00253 0.0
C457 C 0.78866 0.26615 0.01215 0.0
C458 C 0.78651 0.26854 0.02852 0.0
C459 C 0.77665 0.27926 0.03531 0.0
C460 C 0.76881 0.28748 0.02566 0.0
C461 C 0.77094 0.28502 0.00924 0.0
C462 C 0.78302 0.2717 0.98534 0.0
C463 C 0.79701 0.27663 0.97795 0.0
C464 C 0.79942 0.27297 0.96191 0.0
C465 C 0.78789 0.26425 0.95304 0.0
C466 C 0.7737 0.25973 0.9605 0.0
C467 C 0.77129 0.26346 0.9765 0.0
C468 C 0.79905 0.2549 0.00505 0.0
C469 C 0.81505 0.25795 0.00629 0.0
C470 C 0.82486 0.24743 0.99951 0.0
C471 C 0.81881 0.2337 0.99133 0.0
C472 C 0.80274 0.2307 0.99014 0.0
C473 C 0.79295 0.24121 0.99696 0.0
C474 C 0.79454 0.25968 0.03853 0.0
C475 C 0.80722 0.26654 0.04693 0.0
C476 C 0.81506 0.25804 0.05599 0.0
C477 C 0.81025 0.24255 0.05691 0.0
C478 C 0.79739 0.2358 0.04856 0.0
C479 C 0.78965 0.24428 0.0394 0.0
C480 C 0.77467 0.28198 0.05254 0.0
C481 C 0.78046 0.29587 0.06047 0.0
C482 C 0.77864 0.29844 0.07669 0.0
C483 C 0.771 0.28713 0.08527 0.0
C484 C 0.7652 0.27323 0.07725 0.0
C485 C 0.76701 0.27069 0.06103 0.0
C486 C 0.75805 0.29845 0.03264 0.0
C487 C 0.76095 0.31392 0.03054 0.0
C488 C 0.75013 0.32397 0.0358 0.0
C489 C 0.73647 0.31877 0.04364 0.0
C490 C 0.73382 0.30342 0.04628 0.0
C491 C 0.74446 0.29329 0.04066 0.0
C492 C 0.76281 0.29369 0.99908 0.0
C493 C 0.771 0.30533 0.99148 0.0
C494 C 0.76323 0.3144 0.983 0.0
C495 C 0.74712 0.3119 0.98186 0.0
C496 C 0.73902 0.29992 0.98917 0.0
C497 C 0.74681 0.29091 0.99773 0.0
C498 C 0.82926 0.22258 0.98408 0.0
C499 C 0.76906 0.28979 0.10251 0.0
H500 H 0.69653 0.69892 0.09592 0.0
H501 H 0.76262 0.74658 0.93776 0.0
H502 H 0.74906 0.76702 0.08063 0.0
H503 H 0.74656 0.76136 0.10778 0.0
H504 H 0.78493 0.73429 0.09983 0.0
H505 H 0.78753 0.74026 0.07264 0.0
H506 H 0.72632 0.74521 0.05817 0.0
H507 H 0.70994 0.72793 0.07365 0.0
H508 H 0.74809 0.70119 0.07611 0.0
H509 H 0.76425 0.71845 0.06046 0.0
H510 H 0.72834 0.7497 0.02103 0.0
H511 H 0.7099 0.73128 0.00666 0.0
H512 H 0.73793 0.69539 0.01281 0.0
H513 H 0.75631 0.71391 0.02715 0.0
H514 H 0.7515 0.77655 0.01134 0.0
H515 H 0.74921 0.77771 0.98337 0.0
H516 H 0.77017 0.73565 0.97361 0.0
H517 H 0.77258 0.73474 0.00161 0.0
H518 H 0.77202 0.79589 0.03527 0.0
H519 H 0.78333 0.8138 0.01724 0.0
H520 H 0.80996 0.77909 0.99398 0.0
H521 H 0.79833 0.76123 0.01183 0.0
H522 H 0.77329 0.78748 0.07354 0.0
H523 H 0.79333 0.80281 0.08859 0.0
H524 H 0.82814 0.78242 0.05821 0.0
H525 H 0.80793 0.76618 0.04416 0.0
O526 O 0.70312 0.70546 0.08958 0.0
O527 O 0.72315 0.6922 0.09064 0.0
O528 O 0.7527 0.76802 0.95452 0.0
O529 O 0.76332 0.74637 0.94888 0.0
C530 C 0.76748 0.75456 0.0577 0.0
C531 C 0.75655 0.74408 0.04962 0.0
C532 C 0.75497 0.74431 0.0335 0.0
C533 C 0.76411 0.7552 0.02544 0.0
C534 C 0.77511 0.76568 0.03347 0.0
C535 C 0.77695 0.76525 0.04961 0.0
C536 C 0.76855 0.75414 0.07474 0.0
C537 C 0.75729 0.76034 0.08491 0.0
C538 C 0.75586 0.75707 0.10038 0.0
C539 C 0.76551 0.74733 0.10586 0.0
C540 C 0.77732 0.74178 0.09586 0.0
C541 C 0.77891 0.74528 0.08042 0.0
C542 C 0.74645 0.73308 0.05826 0.0
C543 C 0.73105 0.73554 0.06196 0.0
C544 C 0.72175 0.72568 0.07085 0.0
C545 C 0.72772 0.71321 0.07618 0.0
C546 C 0.74314 0.7107 0.07223 0.0
C547 C 0.75239 0.72053 0.0633 0.0
C548 C 0.74365 0.73312 0.02506 0.0
C549 C 0.73048 0.73786 0.01924 0.0
C550 C 0.72 0.72735 0.01105 0.0
C551 C 0.72249 0.71191 0.00861 0.0
C552 C 0.73561 0.70718 0.01466 0.0
C553 C 0.74613 0.71772 0.02279 0.0
C554 C 0.76224 0.75559 0.00847 0.0
C555 C 0.7556 0.76761 0.00313 0.0
C556 C 0.7543 0.76824 0.98716 0.0
C557 C 0.75954 0.75678 0.97624 0.0
C558 C 0.76604 0.74466 0.98168 0.0
C559 C 0.76738 0.74408 0.99767 0.0
C560 C 0.78432 0.77727 0.0248 0.0
C561 C 0.78058 0.7923 0.02652 0.0
C562 C 0.78704 0.8025 0.01619 0.0
C563 C 0.79737 0.7978 0.00401 0.0
C564 C 0.80179 0.78297 0.00301 0.0
C565 C 0.7953 0.7728 0.01329 0.0
C566 C 0.78913 0.77555 0.05789 0.0
C567 C 0.78525 0.78622 0.07026 0.0
C568 C 0.79677 0.79516 0.0787 0.0
C569 C 0.81246 0.79388 0.0747 0.0
C570 C 0.81625 0.78352 0.0619 0.0
C571 C 0.8047 0.77435 0.05369 0.0
C572 C 0.71792 0.70295 0.08589 0.0
C573 C 0.75828 0.75745 0.95925 0.0
H574 H 0.3847 0.7433 0.99053 0.0
H575 H 0.26175 0.76519 0.1192 0.0
H576 H 0.33437 0.80254 0.99805 0.0
H577 H 0.34122 0.8003 0.97001 0.0
H578 H 0.29547 0.7786 0.96045 0.0
H579 H 0.28913 0.78009 0.98834 0.0
H580 H 0.34486 0.78414 0.02675 0.0
H581 H 0.36497 0.76929 0.01425 0.0
H582 H 0.33113 0.74293 0.98464 0.0
H583 H 0.3111 0.75773 0.99738 0.0
H584 H 0.32749 0.78454 0.06175 0.0
H585 H 0.33666 0.76553 0.07636 0.0
H586 H 0.31583 0.72988 0.04345 0.0
H587 H 0.30577 0.74897 0.02968 0.0
H588 H 0.30628 0.80572 0.07049 0.0
H589 H 0.29685 0.80185 0.09709 0.0
H590 H 0.26806 0.76175 0.07911 0.0
H591 H 0.27753 0.76584 0.05257 0.0
H592 H 0.29475 0.82469 0.05488 0.0
H593 H 0.27435 0.83838 0.06836 0.0
H594 H 0.2402 0.80621 0.04464 0.0
H595 H 0.26073 0.79189 0.0325 0.0
H596 H 0.30756 0.82857 0.01401 0.0
H597 H 0.2962 0.8458 0.99862 0.0
H598 H 0.25767 0.8118 0.9892 0.0
H599 H 0.26897 0.79488 0.00482 0.0
O600 O 0.37657 0.74899 0.99534 0.0
O601 O 0.35874 0.73582 0.98035 0.0
O602 O 0.28058 0.78776 0.11744 0.0
O603 O 0.26562 0.76703 0.1088 0.0
C604 C 0.30749 0.79118 0.0121 0.0
C605 C 0.31443 0.78117 0.02055 0.0
C606 C 0.30968 0.77965 0.03624 0.0
C607 C 0.29825 0.78841 0.04356 0.0
C608 C 0.29156 0.79862 0.0352 0.0
C609 C 0.29613 0.79997 0.01947 0.0
C610 C 0.31123 0.79155 0.99519 0.0
C611 C 0.32583 0.79744 0.98983 0.0
C612 C 0.32967 0.79624 0.97384 0.0
C613 C 0.31892 0.78917 0.96302 0.0
C614 C 0.30411 0.78387 0.96848 0.0
C615 C 0.30037 0.78491 0.98441 0.0
C616 C 0.32656 0.77208 0.0129 0.0
C617 C 0.34182 0.77514 0.01758 0.0
C618 C 0.35328 0.76665 0.0104 0.0
C619 C 0.34966 0.75494 0.99842 0.0
C620 C 0.33431 0.75188 0.99381 0.0
C621 C 0.32286 0.76035 0.00102 0.0
C622 C 0.31591 0.76814 0.0447 0.0
C623 C 0.32482 0.77261 0.05781 0.0
C624 C 0.3302 0.76171 0.06602 0.0
C625 C 0.32701 0.74611 0.06111 0.0
C626 C 0.31829 0.74174 0.04776 0.0
C627 C 0.31268 0.75264 0.03975 0.0
C628 C 0.2925 0.7861 0.05966 0.0
C629 C 0.29786 0.79617 0.07234 0.0
C630 C 0.29249 0.7939 0.08751 0.0
C631 C 0.28168 0.78149 0.09023 0.0
C632 C 0.27637 0.77142 0.07744 0.0
C633 C 0.28174 0.77372 0.06228 0.0
C634 C 0.27918 0.80735 0.04273 0.0
C635 C 0.28283 0.8206 0.05273 0.0
C636 C 0.27112 0.8285 0.06026 0.0
C637 C 0.25551 0.82349 0.05761 0.0
C638 C 0.252 0.8103 0.04728 0.0
C639 C 0.26372 0.8022 0.04012 0.0
C640 C 0.289 0.81057 0.01062 0.0
C641 C 0.29661 0.82495 0.0087 0.0
C642 C 0.29015 0.83471 0.99984 0.0
C643 C 0.276 0.83019 0.99271 0.0
C644 C 0.26843 0.81575 0.99475 0.0
C645 C 0.27487 0.80605 0.00363 0.0
C646 C 0.36188 0.74598 0.99079 0.0
C647 C 0.27597 0.779 0.10632 0.0
H648 H 0.99928 0.21743 0.20498 0.0
H649 H 0.08624 0.31616 0.35293 0.0
H650 H 0.98319 0.29475 0.25985 0.0
H651 H 0.96428 0.28369 0.24069 0.0
H652 H 0.95901 0.24213 0.26289 0.0
H653 H 0.97726 0.25356 0.28232 0.0
H654 H 0.00759 0.27408 0.2463 0.0
H655 H 0.00467 0.25315 0.22544 0.0
H656 H 0.00736 0.22112 0.25911 0.0
H657 H 0.00996 0.24218 0.27994 0.0
H658 H 0.0418 0.27771 0.26003 0.0
H659 H 0.06541 0.26517 0.25443 0.0
H660 H 0.05831 0.24527 0.29798 0.0
H661 H 0.03475 0.25788 0.30347 0.0
H662 H 0.04582 0.30957 0.28845 0.0
H663 H 0.06807 0.32118 0.30326 0.0
H664 H 0.05391 0.29305 0.34021 0.0
H665 H 0.03175 0.28154 0.32525 0.0
H666 H 0.0162 0.32644 0.297 0.0
H667 H 0.02445 0.34703 0.31694 0.0
H668 H 0.01427 0.31662 0.35255 0.0
H669 H 0.00564 0.29611 0.3325 0.0
H670 H 0.98909 0.31916 0.28465 0.0
H671 H 0.96764 0.33349 0.29487 0.0
H672 H 0.95053 0.29687 0.32203 0.0
H673 H 0.97191 0.28262 0.31162 0.0
O674 O 0.00093 0.22555 0.21334 0.0
O675 O 0.00365 0.20961 0.23086 0.0
O676 O 0.08458 0.32566 0.32731 0.0
O677 O 0.07788 0.31136 0.34658 0.0
C678 C 0.99576 0.2799 0.28116 0.0
C679 C 0.00915 0.27229 0.27743 0.0
C680 C 0.02264 0.27676 0.28583 0.0
C681 C 0.02288 0.28909 0.29759 0.0
C682 C 0.00959 0.29676 0.30116 0.0
C683 C 0.99602 0.29217 0.29299 0.0
C684 C 0.98164 0.2749 0.27238 0.0
C685 C 0.97745 0.28349 0.26091 0.0
C686 C 0.96682 0.27707 0.24985 0.0
C687 C 0.96033 0.26192 0.25006 0.0
C688 C 0.96364 0.25385 0.2624 0.0
C689 C 0.97411 0.26034 0.27352 0.0
C690 C 0.00895 0.25964 0.26462 0.0
C691 C 0.00763 0.26254 0.24913 0.0
C692 C 0.00594 0.25056 0.23724 0.0
C693 C 0.00571 0.23545 0.24061 0.0
C694 C 0.00747 0.23262 0.25612 0.0
C695 C 0.00905 0.24462 0.26802 0.0
C696 C 0.03664 0.26876 0.28218 0.0
C697 C 0.04532 0.27057 0.26829 0.0
C698 C 0.05875 0.26335 0.2651 0.0
C699 C 0.06373 0.25426 0.27579 0.0
C700 C 0.05487 0.25235 0.28962 0.0
C701 C 0.04142 0.25951 0.29276 0.0
C702 C 0.03729 0.29467 0.30575 0.0
C703 C 0.04771 0.30577 0.29963 0.0
C704 C 0.06034 0.31244 0.30815 0.0
C705 C 0.06273 0.30809 0.32296 0.0
C706 C 0.05241 0.29667 0.32886 0.0
C707 C 0.0398 0.29002 0.32032 0.0
C708 C 0.01032 0.30985 0.31335 0.0
C709 C 0.01507 0.32443 0.30917 0.0
C710 C 0.01979 0.33614 0.32056 0.0
C711 C 0.02004 0.33334 0.33624 0.0
C712 C 0.01417 0.31902 0.34053 0.0
C713 C 0.00919 0.30736 0.32914 0.0
C714 C 0.98201 0.2999 0.29744 0.0
C715 C 0.98055 0.31418 0.29262 0.0
C716 C 0.96836 0.32236 0.29853 0.0
C717 C 0.95743 0.31635 0.30933 0.0
C718 C 0.95864 0.30174 0.3136 0.0
C719 C 0.97084 0.2936 0.30771 0.0
C720 C 0.00341 0.22272 0.22802 0.0
C721 C 0.07575 0.31558 0.33235 0.0
H722 H 0.85329 0.97909 0.18938 0.0
H723 H 0.77776 0.12221 0.26037 0.0
H724 H 0.78558 0.98477 0.24017 0.0
H725 H 0.79965 0.96251 0.2344 0.0
H726 H 0.8257 0.97597 0.27586 0.0
H727 H 0.81176 0.99855 0.28127 0.0
H728 H 0.80088 0.00841 0.21912 0.0
H729 H 0.82053 0.99609 0.20256 0.0
H730 H 0.85048 0.00136 0.24164 0.0
H731 H 0.83083 0.01383 0.25797 0.0
H732 H 0.78828 0.0419 0.22261 0.0
H733 H 0.80289 0.05783 0.20439 0.0
H734 H 0.84246 0.06165 0.23327 0.0
H735 H 0.82787 0.04559 0.25118 0.0
H736 H 0.76022 0.0471 0.24862 0.0
H737 H 0.75316 0.07279 0.24737 0.0
H738 H 0.79698 0.09142 0.26623 0.0
H739 H 0.80379 0.06567 0.26762 0.0
H740 H 0.74769 0.02274 0.27025 0.0
H741 H 0.728 0.03616 0.28566 0.0
H742 H 0.7639 0.06594 0.30937 0.0
H743 H 0.78337 0.05216 0.2943 0.0
H744 H 0.75944 0.99218 0.2663 0.0
H745 H 0.74579 0.97714 0.28571 0.0
H746 H 0.77454 0.00172 0.32149 0.0
H747 H 0.78766 0.01708 0.30201 0.0
O748 O 0.84585 0.98435 0.19599 0.0
O749 O 0.86104 0.98791 0.21629 0.0
O750 O 0.75785 0.10177 0.25116 0.0
O751 O 0.78027 0.11193 0.26072 0.0
C752 C 0.79386 0.00904 0.26082 0.0
C753 C 0.802 0.01817 0.2501 0.0
C754 C 0.79831 0.03305 0.24925 0.0
C755 C 0.78658 0.03893 0.25924 0.0
C756 C 0.77878 0.02997 0.27032 0.0
C757 C 0.78243 0.01501 0.27109 0.0
C758 C 0.79776 0.9933 0.26105 0.0
C759 C 0.79382 0.98253 0.24839 0.0
C760 C 0.80193 0.96982 0.2451 0.0
C761 C 0.81403 0.96763 0.25451 0.0
C762 C 0.81666 0.97752 0.26823 0.0
C763 C 0.80855 0.99029 0.27148 0.0
C764 C 0.81444 0.01197 0.23972 0.0
C765 C 0.81178 0.00706 0.224 0.0
C766 C 0.82298 -5e-05 0.21461 0.0
C767 C 0.83705 0.99766 0.2208 0.0
C768 C 0.83978 0.00292 0.2365 0.0
C769 C 0.82859 0.01006 0.24585 0.0
C770 C 0.80706 0.04261 0.23816 0.0
C771 C 0.80012 0.04618 0.22492 0.0
C772 C 0.80845 0.05529 0.21458 0.0
C773 C 0.82386 0.06093 0.21734 0.0
C774 C 0.83073 0.05725 0.23064 0.0
C775 C 0.8224 0.04817 0.24094 0.0
C776 C 0.78252 0.05455 0.25818 0.0
C777 C 0.76826 0.05675 0.25249 0.0
C778 C 0.76427 0.07143 0.25177 0.0
C779 C 0.77452 0.08417 0.2567 0.0
C780 C 0.78883 0.08187 0.26234 0.0
C781 C 0.79278 0.06719 0.26309 0.0
C782 C 0.76693 0.03651 0.28117 0.0
C783 C 0.75124 0.03192 0.27906 0.0
C784 C 0.74004 0.03969 0.28775 0.0
C785 C 0.74438 0.0522 0.29866 0.0
C786 C 0.76014 0.05627 0.30122 0.0
C787 C 0.7713 0.04846 0.29257 0.0
C788 C 0.77448 0.00568 0.2828 0.0
C789 C 0.76275 0.99427 0.27834 0.0
C790 C 0.75506 0.98564 0.28944 0.0
C791 C 0.75909 0.98817 0.30519 0.0
C792 C 0.77098 0.9996 0.30954 0.0
C793 C 0.77857 0.00832 0.29843 0.0
C794 C 0.84874 0.98971 0.21094 0.0
C795 C 0.77032 0.09978 0.256 0.0
H796 H 0.06153 0.70433 0.35188 0.0
H797 H 0.92475 0.72587 0.25728 0.0
H798 H 0.05494 0.76505 0.30494 0.0
H799 H 0.0819 0.76416 0.31078 0.0
H800 H 0.09041 0.74284 0.2641 0.0
H801 H 0.06325 0.74342 0.25853 0.0
H802 H 0.02744 0.74302 0.31867 0.0
H803 H 0.03954 0.72873 0.33649 0.0
H804 H 0.06275 0.7051 0.29714 0.0
H805 H 0.0504 0.71931 0.27945 0.0
H806 H 0.99216 0.74262 0.30744 0.0
H807 H 0.97598 0.72285 0.31974 0.0
H808 H 0.00079 0.68862 0.29282 0.0
H809 H 0.01618 0.70845 0.27984 0.0
H810 H 0.98702 0.76732 0.28653 0.0
H811 H 0.9592 0.76414 0.28297 0.0
H812 H 0.96351 0.72065 0.25618 0.0
H813 H 0.99134 0.72407 0.2597 0.0
H814 H 0.0139 0.78876 0.27473 0.0
H815 H 3e-05 0.80492 0.26048 0.0
H816 H 0.99105 0.76761 0.22442 0.0
H817 H 0.00447 0.7514 0.23916 0.0
H818 H 0.05026 0.78747 0.27842 0.0
H819 H 0.0647 0.80519 0.26183 0.0
H820 H 0.0527 0.77432 0.22097 0.0
H821 H 0.03832 0.75677 0.23759 0.0
O822 O 0.05676 0.70975 0.34461 0.0
O823 O 0.06848 0.69798 0.32399 0.0
O824 O 0.93416 0.74988 0.27265 0.0
O825 O 0.93573 0.72743 0.25887 0.0
C826 C 0.0403 0.75207 0.27904 0.0
C827 C 0.03098 0.74122 0.28707 0.0
C828 C 0.01492 0.73896 0.28497 0.0
C829 C 0.00809 0.74801 0.27536 0.0
C830 C 0.01739 0.75892 0.26745 0.0
C831 C 0.03354 0.76061 0.26889 0.0
C832 C 0.05715 0.75425 0.28135 0.0
C833 C 0.06272 0.76049 0.29588 0.0
C834 C 0.07814 0.76 0.29917 0.0
C835 C 0.08827 0.75329 0.28795 0.0
C836 C 0.08283 0.74786 0.27307 0.0
C837 C 0.06738 0.74834 0.2698 0.0
C838 C 0.03808 0.73222 0.29779 0.0
C839 C 0.03507 0.73468 0.31393 0.0
C840 C 0.04203 0.72654 0.32407 0.0
C841 C 0.05215 0.7158 0.31824 0.0
C842 C 0.05505 0.7133 0.30202 0.0
C843 C 0.04803 0.72142 0.29189 0.0
C844 C 0.00531 0.72697 0.29272 0.0
C845 C 0.99398 0.73083 0.3041 0.0
C846 C 0.98486 0.71951 0.31124 0.0
C847 C 0.98709 0.7041 0.30732 0.0
C848 C 0.99857 0.70032 0.29596 0.0
C849 C 0.0075 0.71164 0.28865 0.0
C850 C 0.99118 0.74593 0.27335 0.0
C851 C 0.98193 0.75714 0.27986 0.0
C852 C 0.96605 0.75528 0.27783 0.0
C853 C 0.95913 0.74213 0.26928 0.0
C854 C 0.96846 0.73091 0.26283 0.0
C855 C 0.98435 0.73281 0.26484 0.0
C856 C 0.0101 0.76893 0.25799 0.0
C857 C 0.00903 0.78415 0.26369 0.0
C858 C 0.00116 0.79338 0.25547 0.0
C859 C 0.99435 0.78757 0.2413 0.0
C860 C 0.9959 0.77238 0.23542 0.0
C861 C 0.00364 0.76313 0.24374 0.0
C862 C 0.04325 0.77088 0.25918 0.0
C863 C 0.05093 0.7845 0.2659 0.0
C864 C 0.05914 0.79457 0.25642 0.0
C865 C 0.05972 0.79117 0.2401 0.0
C866 C 0.05225 0.77735 0.23348 0.0
C867 C 0.04412 0.7673 0.24294 0.0
C868 C 0.05964 0.70728 0.32906 0.0
C869 C 0.94226 0.74011 0.26707 0.0
H870 H 0.2151 0.05981 0.23848 0.0
H871 H 0.25893 0.90813 0.30086 0.0
H872 H 0.27725 0.04717 0.29112 0.0
H873 H 0.26868 0.07114 0.28549 0.0
H874 H 0.22613 0.06109 0.31186 0.0
H875 H 0.23518 0.03757 0.31805 0.0
H876 H 0.26066 0.02885 0.26665 0.0
H877 H 0.24498 0.04236 0.25123 0.0
H878 H 0.20437 0.02751 0.27844 0.0
H879 H 0.22026 0.01425 0.29394 0.0
H880 H 0.26442 0.99271 0.26134 0.0
H881 H 0.25115 0.97823 0.23923 0.0
H882 H 0.21141 0.96803 0.26962 0.0
H883 H 0.22465 0.98293 0.29151 0.0
H884 H 0.28702 0.97884 0.28908 0.0
H885 H 0.29021 0.9517 0.2871 0.0
H886 H 0.24449 0.94304 0.30796 0.0
H887 H 0.24154 0.97022 0.30999 0.0
H888 H 0.30169 0.00541 0.31242 0.0
H889 H 0.31802 0.9935 0.32876 0.0
H890 H 0.27732 0.9739 0.35266 0.0
H891 H 0.26115 0.98616 0.33652 0.0
H892 H 0.29512 0.03689 0.30828 0.0
H893 H 0.31002 0.05436 0.32718 0.0
H894 H 0.2778 0.04114 0.36409 0.0
H895 H 0.263 0.0236 0.34502 0.0
O896 O 0.22094 0.05377 0.2442 0.0
O897 O 0.20016 0.04467 0.25746 0.0
O898 O 0.28139 0.92395 0.29077 0.0
O899 O 0.25795 0.9189 0.30143 0.0
C900 C 0.25935 0.02436 0.30371 0.0
C901 C 0.25144 0.0144 0.29216 0.0
C902 C 0.253 0.99875 0.29082 0.0
C903 C 0.2623 0.99292 0.30114 0.0
C904 C 0.27035 0.00287 0.31262 0.0
C905 C 0.26904 0.01865 0.31374 0.0
C906 C 0.25689 0.04068 0.30509 0.0
C907 C 0.26647 0.05056 0.2964 0.0
C908 C 0.26138 0.0641 0.29291 0.0
C909 C 0.24655 0.06787 0.2979 0.0
C910 C 0.23764 0.05863 0.30788 0.0
C911 C 0.24282 0.04519 0.31151 0.0
C912 C 0.24157 0.0206 0.28139 0.0
C913 C 0.24834 0.02836 0.2691 0.0
C914 C 0.23937 0.03612 0.26037 0.0
C915 C 0.22344 0.03612 0.26368 0.0
C916 C 0.21662 0.02779 0.27562 0.0
C917 C 0.22563 0.02011 0.28441 0.0
C918 C 0.2455 0.98871 0.27797 0.0
C919 C 0.25291 0.98718 0.2632 0.0
C920 C 0.24532 0.9789 0.25062 0.0
C921 C 0.2302 0.97204 0.25265 0.0
C922 C 0.22296 0.97338 0.26761 0.0
C923 C 0.23054 0.98171 0.28016 0.0
C924 C 0.26403 0.97643 0.29959 0.0
C925 C 0.27771 0.97104 0.29317 0.0
C926 C 0.27949 0.95554 0.29207 0.0
C927 C 0.26759 0.94519 0.29736 0.0
C928 C 0.25387 0.95069 0.30375 0.0
C929 C 0.25212 0.96619 0.30487 0.0
C930 C 0.28026 0.99666 0.32333 0.0
C931 C 0.29634 0.99873 0.32135 0.0
C932 C 0.30563 0.99181 0.33059 0.0
C933 C 0.29896 0.98269 0.34196 0.0
C934 C 0.28282 0.98097 0.34413 0.0
C935 C 0.27356 0.9879 0.33489 0.0
C936 C 0.27791 0.02918 0.32529 0.0
C937 C 0.29123 0.03788 0.32043 0.0
C938 C 0.29971 0.04782 0.33123 0.0
C939 C 0.29503 0.04917 0.34711 0.0
C940 C 0.28175 0.04025 0.35196 0.0
C941 C 0.27325 0.03033 0.34111 0.0
C942 C 0.21409 0.04504 0.25493 0.0
C943 C 0.26945 0.92873 0.29629 0.0
H944 H 0.00906 0.88935 0.87314 0.0
H945 H 0.10775 0.79016 0.75494 0.0
H946 H 0.98729 0.82007 0.82249 0.0
H947 H 0.96292 0.82909 0.83214 0.0
H948 H 0.95793 0.84652 0.78801 0.0
H949 H 0.98308 0.83849 0.77899 0.0
H950 H 0.01889 0.8327 0.83449 0.0
H951 H 0.01584 0.85418 0.85428 0.0
H952 H 0.00467 0.881 0.8184 0.0
H953 H 0.00794 0.85948 0.79869 0.0
H954 H 0.04582 0.81497 0.82155 0.0
H955 H 0.0682 0.82734 0.83569 0.0
H956 H 0.06736 0.86682 0.81091 0.0
H957 H 0.04487 0.85441 0.79701 0.0
H958 H 0.04194 0.78865 0.79771 0.0
H959 H 0.06559 0.77722 0.78907 0.0
H960 H 0.07966 0.81497 0.76234 0.0
H961 H 0.05584 0.82617 0.77093 0.0
H962 H 0.01303 0.77713 0.78384 0.0
H963 H 0.02444 0.75617 0.76821 0.0
H964 H 0.04256 0.78676 0.73473 0.0
H965 H 0.03103 0.8076 0.75038 0.0
H966 H 0.98423 0.78828 0.78996 0.0
H967 H 0.9626 0.77617 0.7746 0.0
H968 H 0.97317 0.8088 0.74102 0.0
H969 H 0.99529 0.82014 0.75604 0.0
O970 O 0.01026 0.88102 0.86511 0.0
O971 O 0.0045 0.89429 0.84623 0.0
O972 O 0.0908 0.77559 0.77294 0.0
O973 O 0.09862 0.79475 0.75904 0.0
C974 C 0.00258 0.82425 0.79506 0.0
C975 C 0.01554 0.83151 0.80314 0.0
C976 C 0.0302 0.82632 0.79979 0.0
C977 C 0.03191 0.81393 0.78839 0.0
C978 C 0.01907 0.80699 0.77999 0.0
C979 C 0.00446 0.81222 0.7832 0.0
C980 C 0.98694 0.82853 0.80001 0.0
C981 C 0.9809 0.82579 0.81489 0.0
C982 C 0.96684 0.83085 0.82032 0.0
C983 C 0.95829 0.83849 0.81085 0.0
C984 C 0.96423 0.84086 0.79573 0.0
C985 C 0.9785 0.83606 0.79043 0.0
C986 C 0.01371 0.84457 0.81516 0.0
C987 C 0.01588 0.84326 0.83092 0.0
C988 C 0.01408 0.85553 0.84221 0.0
C989 C 0.01002 0.86932 0.83793 0.0
C990 C 0.00781 0.87055 0.8221 0.0
C991 C 0.00965 0.85828 0.81082 0.0
C992 C 0.04379 0.8338 0.80826 0.0
C993 C 0.05053 0.82627 0.81918 0.0
C994 C 0.06331 0.83334 0.8272 0.0
C995 C 0.06954 0.84807 0.82443 0.0
C996 C 0.06269 0.85556 0.81348 0.0
C997 C 0.04993 0.84848 0.80546 0.0
C998 C 0.0472 0.80821 0.78492 0.0
C999 C 0.05025 0.79451 0.79014 0.0
C1000 C 0.06373 0.78799 0.78515 0.0
C1001 C 0.07447 0.79513 0.77491 0.0
C1002 C 0.07161 0.80915 0.77016 0.0
C1003 C 0.05808 0.81563 0.77513 0.0
C1004 C 0.02122 0.79385 0.76822 0.0
C1005 C 0.01886 0.77913 0.77278 0.0
C1006 C 0.02555 0.76724 0.76395 0.0
C1007 C 0.03457 0.7699 0.7504 0.0
C1008 C 0.0356 0.78435 0.74508 0.0
C1009 C 0.02898 0.79625 0.75396 0.0
C1010 C 0.99121 0.80508 0.7741 0.0
C1011 C 0.98184 0.79272 0.77925 0.0
C1012 C 0.96942 0.78593 0.77051 0.0
C1013 C 0.96604 0.79154 0.75656 0.0
C1014 C 0.97552 0.804 0.75153 0.0
C1015 C 0.98809 0.8106 0.76015 0.0
C1016 C 0.00808 0.88232 0.84995 0.0
C1017 C 0.08845 0.78787 0.76898 0.0
H1018 H 0.35873 0.00252 0.66963 0.0
H1019 H 0.29244 0.13231 0.77024 0.0
H1020 H 0.30215 0.99628 0.73294 0.0
H1021 H 0.30985 0.97052 0.72945 0.0
H1022 H 0.33606 0.98037 0.77123 0.0
H1023 H 0.32881 0.00639 0.7742 0.0
H1024 H 0.31021 0.0238 0.71316 0.0
H1025 H 0.32742 0.01502 0.69159 0.0
H1026 H 0.36296 0.01314 0.72426 0.0
H1027 H 0.34569 0.02209 0.74571 0.0
H1028 H 0.29517 0.0542 0.72352 0.0
H1029 H 0.30405 0.07309 0.70567 0.0
H1030 H 0.35011 0.07521 0.72251 0.0
H1031 H 0.34095 0.05673 0.74073 0.0
H1032 H 0.27427 0.05806 0.75097 0.0
H1033 H 0.26698 0.08404 0.75372 0.0
H1034 H 0.31227 0.10069 0.77024 0.0
H1035 H 0.31933 0.07463 0.76758 0.0
H1036 H 0.26502 0.03439 0.76845 0.0
H1037 H 0.24644 0.04479 0.7877 0.0
H1038 H 0.28394 0.06462 0.81679 0.0
H1039 H 0.3024 0.05486 0.79692 0.0
H1040 H 0.27792 0.00096 0.7651 0.0
H1041 H 0.26716 0.98527 0.78535 0.0
H1042 H 0.30033 0.00894 0.81747 0.0
H1043 H 0.31066 0.02484 0.79722 0.0
O1044 O 0.35213 0.00604 0.67834 0.0
O1045 O 0.37 0.00521 0.69562 0.0
O1046 O 0.27187 0.11278 0.76058 0.0
O1047 O 0.29501 0.12193 0.76907 0.0
C1048 C 0.31074 0.01904 0.75537 0.0
C1049 C 0.31621 0.02887 0.74405 0.0
C1050 C 0.31167 0.04374 0.7452 0.0
C1051 C 0.30166 0.04874 0.75762 0.0
C1052 C 0.29614 0.03889 0.76882 0.0
C1053 C 0.30082 0.02414 0.76782 0.0
C1054 C 0.31493 0.0032 0.75381 0.0
C1055 C 0.30956 0.99286 0.74133 0.0
C1056 C 0.31387 0.9781 0.73944 0.0
C1057 C 0.32354 0.97334 0.7501 0.0
C1058 C 0.32875 0.98371 0.76272 0.0
C1059 C 0.32451 0.99852 0.76453 0.0
C1060 C 0.32672 0.0236 0.73098 0.0
C1061 C 0.32174 0.02156 0.71561 0.0
C1062 C 0.33159 0.0165 0.70333 0.0
C1063 C 0.34657 0.01337 0.7062 0.0
C1064 C 0.3515 0.01544 0.72164 0.0
C1065 C 0.34165 0.02053 0.73391 0.0
C1066 C 0.3174 0.0542 0.73348 0.0
C1067 C 0.30718 0.05873 0.72329 0.0
C1068 C 0.31231 0.06942 0.71303 0.0
C1069 C 0.32778 0.07571 0.71271 0.0
C1070 C 0.33808 0.07076 0.72263 0.0
C1071 C 0.33291 0.06013 0.73295 0.0
C1072 C 0.29728 0.0645 0.75917 0.0
C1073 C 0.28255 0.06734 0.75527 0.0
C1074 C 0.27845 0.08218 0.7568 0.0
C1075 C 0.28904 0.09445 0.76222 0.0
C1076 C 0.30383 0.09152 0.76605 0.0
C1077 C 0.3079 0.07666 0.76454 0.0
C1078 C 0.285 0.04395 0.78131 0.0
C1079 C 0.26916 0.04091 0.77905 0.0
C1080 C 0.25857 0.04679 0.79014 0.0
C1081 C 0.26364 0.05563 0.80384 0.0
C1082 C 0.27959 0.05815 0.80626 0.0
C1083 C 0.29018 0.05247 0.79502 0.0
C1084 C 0.29502 0.01399 0.77975 0.0
C1085 C 0.28289 0.00264 0.77649 0.0
C1086 C 0.27685 0.99365 0.78805 0.0
C1087 C 0.28289 0.99585 0.80305 0.0
C1088 C 0.29527 0.00709 0.80613 0.0
C1089 C 0.30124 0.01611 0.79458 0.0
C1090 C 0.35698 0.00796 0.69312 0.0
C1091 C 0.28473 0.11024 0.76388 0.0
H1092 H 0.9899 0.17065 0.85345 0.0
H1093 H 0.12552 0.28426 0.82552 0.0
H1094 H 0.99652 0.2219 0.79304 0.0
H1095 H 0.96875 0.21452 0.79182 0.0
H1096 H 0.9601 0.25786 0.81671 0.0
H1097 H 0.98787 0.26483 0.81843 0.0
H1098 H 0.023 0.21048 0.8107 0.0
H1099 H 0.01109 0.1904 0.82589 0.0
H1100 H 0.98838 0.2238 0.85638 0.0
H1101 H 0.0005 0.24379 0.84119 0.0
H1102 H 0.05728 0.22584 0.80502 0.0
H1103 H 0.07254 0.21128 0.81979 0.0
H1104 H 0.05148 0.23054 0.8628 0.0
H1105 H 0.03625 0.24506 0.8479 0.0
H1106 H 0.06513 0.25277 0.78472 0.0
H1107 H 0.09286 0.2603 0.78601 0.0
H1108 H 0.08645 0.27803 0.83436 0.0
H1109 H 0.05873 0.27059 0.83286 0.0
H1110 H 0.03819 0.26303 0.76718 0.0
H1111 H 0.05116 0.28263 0.75199 0.0
H1112 H 0.05998 0.31202 0.79464 0.0
H1113 H 0.04658 0.29247 0.80969 0.0
H1114 H 0.00583 0.24866 0.77021 0.0
H1115 H 0.98858 0.26047 0.75487 0.0
H1116 H 0.99092 0.29994 0.78911 0.0
H1117 H 0.00869 0.28823 0.80396 0.0
O1118 O 0.99448 0.17876 0.84759 0.0
O1119 O 0.98297 0.19637 0.86284 0.0
O1120 O 0.11728 0.27196 0.79977 0.0
O1121 O 0.11461 0.28119 0.82467 0.0
C1122 C 0.01102 0.24831 0.80659 0.0
C1123 C 0.02004 0.24078 0.81577 0.0
C1124 C 0.03611 0.24488 0.81631 0.0
C1125 C 0.0431 0.25668 0.80786 0.0
C1126 C 0.03405 0.26421 0.79866 0.0
C1127 C 0.01804 0.25995 0.79796 0.0
C1128 C 0.99417 0.24388 0.80583 0.0
C1129 C 0.98859 0.22973 0.79829 0.0
C1130 C 0.97274 0.22561 0.79749 0.0
C1131 C 0.9622 0.23561 0.80415 0.0
C1132 C 0.96789 0.24981 0.81165 0.0
C1133 C 0.98373 0.25388 0.81253 0.0
C1134 C 0.01263 0.22857 0.82487 0.0
C1135 C 0.01548 0.21343 0.82069 0.0
C1136 C 0.00864 0.20198 0.82937 0.0
C1137 C 0.99878 0.20549 0.84236 0.0
C1138 C 0.99591 0.22071 0.84645 0.0
C1139 C 0.00278 0.23214 0.83778 0.0
C1140 C 0.04568 0.2365 0.8254 0.0
C1141 C 0.05606 0.22699 0.81764 0.0
C1142 C 0.06477 0.21871 0.82608 0.0
C1143 C 0.06317 0.21975 0.84245 0.0
C1144 C 0.0528 0.22936 0.85019 0.0
C1145 C 0.04416 0.2377 0.84173 0.0
C1146 C 0.05994 0.26117 0.80868 0.0
C1147 C 0.06974 0.25834 0.79556 0.0
C1148 C 0.08557 0.26262 0.79634 0.0
C1149 C 0.09188 0.26978 0.8103 0.0
C1150 C 0.08199 0.27255 0.82344 0.0
C1151 C 0.06616 0.26829 0.82263 0.0
C1152 C 0.04142 0.27636 0.78951 0.0
C1153 C 0.04279 0.27377 0.7732 0.0
C1154 C 0.05033 0.28491 0.76458 0.0
C1155 C 0.05667 0.29885 0.77212 0.0
C1156 C 0.0551 0.30146 0.78848 0.0
C1157 C 0.04753 0.29031 0.79709 0.0
C1158 C 0.00849 0.26762 0.78815 0.0
C1159 C 0.00274 0.25994 0.77425 0.0
C1160 C 0.99277 0.26665 0.7656 0.0
C1161 C 0.98823 0.28113 0.7708 0.0
C1162 C 0.99431 0.28889 0.78463 0.0
C1163 C 0.00442 0.28221 0.79318 0.0
C1164 C 0.99157 0.19332 0.85158 0.0
C1165 C 0.10868 0.27435 0.8112 0.0
H1166 H 0.6666 0.9822 0.68093 0.0
H1167 H 0.72484 0.89067 0.79312 0.0
H1168 H 0.73099 0.0109 0.73192 0.0
H1169 H 0.72512 0.03573 0.72556 0.0
H1170 H 0.70425 0.04454 0.7717 0.0
H1171 H 0.70969 0.01949 0.77773 0.0
H1172 H 0.71859 0.97805 0.71976 0.0
H1173 H 0.69983 0.97874 0.69981 0.0
H1174 H 0.66811 0.99712 0.73523 0.0
H1175 H 0.68689 0.99607 0.75512 0.0
H1176 H 0.72959 0.95038 0.73335 0.0
H1177 H 0.71599 0.93355 0.71303 0.0
H1178 H 0.67242 0.94425 0.73507 0.0
H1179 H 0.68615 0.96098 0.75548 0.0
H1180 H 0.75274 0.95339 0.76122 0.0
H1181 H 0.75636 0.92822 0.76837 0.0
H1182 H 0.70957 0.92384 0.78746 0.0
H1183 H 0.70616 0.94911 0.78043 0.0
H1184 H 0.76716 0.98561 0.77322 0.0
H1185 H 0.78444 0.9785 0.79207 0.0
H1186 H 0.74496 0.96456 0.82125 0.0
H1187 H 0.72791 0.97223 0.80267 0.0
H1188 H 0.75739 0.01186 0.75518 0.0
H1189 H 0.76983 0.03713 0.76375 0.0
H1190 H 0.74461 0.03631 0.80805 0.0
H1191 H 0.73222 0.01091 0.79935 0.0
O1192 O 0.674 0.98243 0.68895 0.0
O1193 O 0.65844 0.9927 0.70741 0.0
O1194 O 0.7477 0.90347 0.78018 0.0
O1195 O 0.7237 0.90064 0.79011 0.0
C1196 C 0.72332 0.99792 0.7588 0.0
C1197 C 0.71489 0.98509 0.75113 0.0
C1198 C 0.71691 0.97039 0.75489 0.0
C1199 C 0.7272 0.96856 0.76647 0.0
C1200 C 0.73573 0.98146 0.77417 0.0
C1201 C 0.73408 0.99607 0.76999 0.0
C1202 C 0.72067 0.01337 0.75524 0.0
C1203 C 0.72517 0.01822 0.74064 0.0
C1204 C 0.72193 0.03245 0.73708 0.0
C1205 C 0.71416 0.04209 0.74811 0.0
C1206 C 0.71004 0.03731 0.76288 0.0
C1207 C 0.71323 0.02306 0.76639 0.0
C1208 C 0.70406 0.98694 0.73888 0.0
C1209 C 0.70761 0.98229 0.72317 0.0
C1210 C 0.69687 0.98268 0.7118 0.0
C1211 C 0.68244 0.98792 0.71593 0.0
C1212 C 0.6791 0.99299 0.73166 0.0
C1213 C 0.68983 0.99248 0.74303 0.0
C1214 C 0.70885 0.957 0.74578 0.0
C1215 C 0.71712 0.94859 0.73416 0.0
C1216 C 0.70933 0.93902 0.72254 0.0
C1217 C 0.69315 0.93781 0.72236 0.0
C1218 C 0.68489 0.94516 0.73484 0.0
C1219 C 0.6927 0.9546 0.74654 0.0
C1220 C 0.72921 0.95308 0.77036 0.0
C1221 C 0.7433 0.94698 0.76698 0.0
C1222 C 0.74533 0.9326 0.77105 0.0
C1223 C 0.73325 0.92402 0.77851 0.0
C1224 C 0.7191 0.93014 0.78174 0.0
C1225 C 0.7171 0.94454 0.77769 0.0
C1226 C 0.74629 0.97943 0.78658 0.0
C1227 C 0.7623 0.9814 0.78389 0.0
C1228 C 0.77213 0.97715 0.79458 0.0
C1229 C 0.76609 0.97081 0.80812 0.0
C1230 C 0.75004 0.96955 0.81107 0.0
C1231 C 0.74026 0.97387 0.80043 0.0
C1232 C 0.7439 0.00961 0.77664 0.0
C1233 C 0.75487 0.01698 0.76689 0.0
C1234 C 0.76185 0.03144 0.77174 0.0
C1235 C 0.75801 0.03875 0.78647 0.0
C1236 C 0.74782 0.03091 0.79665 0.0
C1237 C 0.74077 0.01641 0.79175 0.0
C1238 C 0.67088 0.98788 0.70389 0.0
C1239 C 0.73538 0.90877 0.78295 0.0
H1240 H 0.16613 0.69222 0.51667 0.0
H1241 H 0.31378 0.7672 0.43864 0.0
H1242 H 0.22861 0.74388 0.55371 0.0
H1243 H 0.2152 0.73298 0.5761 0.0
H1244 H 0.24931 0.70115 0.57535 0.0
H1245 H 0.26269 0.71219 0.5529 0.0
H1246 H 0.21853 0.73903 0.51725 0.0
H1247 H 0.19409 0.72278 0.51599 0.0
H1248 H 0.21761 0.68469 0.52557 0.0
H1249 H 0.24199 0.70102 0.52662 0.0
H1250 H 0.24187 0.7561 0.49144 0.0
H1251 H 0.23557 0.75081 0.46414 0.0
H1252 H 0.24158 0.7034 0.46585 0.0
H1253 H 0.24938 0.70924 0.4928 0.0
H1254 H 0.26838 0.77585 0.50283 0.0
H1255 H 0.28249 0.78667 0.48081 0.0
H1256 H 0.29699 0.74254 0.4644 0.0
H1257 H 0.28306 0.73193 0.48667 0.0
H1258 H 0.27597 0.78038 0.53627 0.0
H1259 H 0.29596 0.80018 0.52942 0.0
H1260 H 0.32397 0.76569 0.50824 0.0
H1261 H 0.30376 0.74599 0.5149 0.0
H1262 H 0.2587 0.76226 0.56423 0.0
H1263 H 0.27294 0.7703 0.58799 0.0
H1264 H 0.30922 0.74307 0.56985 0.0
H1265 H 0.29496 0.73524 0.54607 0.0
O1266 O 0.17593 0.69842 0.51714 0.0
O1267 O 0.18856 0.67921 0.52214 0.0
O1268 O 0.3001 0.78558 0.45626 0.0
O1269 O 0.30784 0.76314 0.44727 0.0
C1270 C 0.25398 0.7348 0.5375 0.0
C1271 C 0.24677 0.73115 0.52301 0.0
C1272 C 0.25352 0.73716 0.50948 0.0
C1273 C 0.26738 0.74692 0.51054 0.0
C1274 C 0.27448 0.75063 0.52503 0.0
C1275 C 0.26793 0.74443 0.53847 0.0
C1276 C 0.2466 0.72882 0.55173 0.0
C1277 C 0.23325 0.73466 0.55849 0.0
C1278 C 0.22566 0.72846 0.57128 0.0
C1279 C 0.23122 0.71622 0.57745 0.0
C1280 C 0.24472 0.71051 0.57076 0.0
C1281 C 0.25241 0.71684 0.55804 0.0
C1282 C 0.23201 0.7212 0.52206 0.0
C1283 C 0.21838 0.72715 0.51901 0.0
C1284 C 0.20443 0.71786 0.51833 0.0
C1285 C 0.20389 0.70244 0.5207 0.0
C1286 C 0.21761 0.69651 0.52371 0.0
C1287 C 0.23155 0.70582 0.52435 0.0
C1288 C 0.24641 0.73314 0.49404 0.0
C1289 C 0.24173 0.74455 0.48593 0.0
C1290 C 0.23793 0.74142 0.47029 0.0
C1291 C 0.23826 0.72667 0.46254 0.0
C1292 C 0.24165 0.71499 0.47119 0.0
C1293 C 0.24588 0.71824 0.48672 0.0
C1294 C 0.27478 0.75314 0.49638 0.0
C1295 C 0.27458 0.76854 0.49444 0.0
C1296 C 0.28264 0.77469 0.48185 0.0
C1297 C 0.29093 0.76548 0.47087 0.0
C1298 C 0.29077 0.74995 0.47266 0.0
C1299 C 0.28277 0.74384 0.48532 0.0
C1300 C 0.28838 0.76179 0.52592 0.0
C1301 C 0.28671 0.77711 0.53075 0.0
C1302 C 0.29813 0.78841 0.52677 0.0
C1303 C 0.31137 0.78449 0.51796 0.0
C1304 C 0.31373 0.76905 0.51472 0.0
C1305 C 0.3023 0.75778 0.51868 0.0
C1306 C 0.2758 0.74816 0.55346 0.0
C1307 C 0.26961 0.75786 0.56552 0.0
C1308 C 0.27775 0.7624 0.57909 0.0
C1309 C 0.29225 0.75735 0.58079 0.0
C1310 C 0.29819 0.74731 0.56882 0.0
C1311 C 0.29004 0.74276 0.55528 0.0
C1312 C 0.18904 0.69261 0.52005 0.0
C1313 C 0.29985 0.77205 0.45771 0.0
H1314 H 0.84845 0.70264 0.53699 0.0
H1315 H 0.81729 0.77359 0.39332 0.0
H1316 H 0.78528 0.74753 0.52781 0.0
H1317 H 0.78777 0.7445 0.55528 0.0
H1318 H 0.81061 0.79012 0.56257 0.0
H1319 H 0.8086 0.79277 0.5348 0.0
H1320 H 0.80487 0.73079 0.50296 0.0
H1321 H 0.82065 0.71501 0.51567 0.0
H1322 H 0.84874 0.75538 0.53412 0.0
H1323 H 0.83301 0.771 0.52113 0.0
H1324 H 0.79996 0.73531 0.46908 0.0
H1325 H 0.81588 0.71582 0.45728 0.0
H1326 H 0.85684 0.74432 0.47231 0.0
H1327 H 0.8407 0.76363 0.48441 0.0
H1328 H 0.77782 0.75957 0.45927 0.0
H1329 H 0.77895 0.75876 0.4308 0.0
H1330 H 0.82612 0.77923 0.43231 0.0
H1331 H 0.82477 0.78011 0.46078 0.0
H1332 H 0.75925 0.77817 0.48686 0.0
H1333 H 0.74403 0.79482 0.47483 0.0
H1334 H 0.78607 0.81972 0.45888 0.0
H1335 H 0.8011 0.80375 0.47209 0.0
H1336 H 0.76204 0.77066 0.51864 0.0
H1337 H 0.74273 0.78657 0.53123 0.0
H1338 H 0.77342 0.82677 0.52416 0.0
H1339 H 0.79263 0.81079 0.51143 0.0
O1340 O 0.84237 0.7091 0.53205 0.0
O1341 O 0.85628 0.73022 0.5415 0.0
O1342 O 0.79224 0.7633 0.40442 0.0
O1343 O 0.81653 0.77378 0.40455 0.0
C1344 C 0.79821 0.77076 0.51218 0.0
C1345 C 0.80834 0.76158 0.50323 0.0
C1346 C 0.80935 0.76137 0.48683 0.0
C1347 C 0.80041 0.77051 0.47935 0.0
C1348 C 0.79053 0.78 0.48834 0.0
C1349 C 0.78941 0.78006 0.50478 0.0
C1350 C 0.79685 0.77032 0.52933 0.0
C1351 C 0.79054 0.75697 0.53542 0.0
C1352 C 0.79192 0.7553 0.55115 0.0
C1353 C 0.79952 0.76702 0.56112 0.0
C1354 C 0.80493 0.78078 0.55515 0.0
C1355 C 0.80364 0.78239 0.53935 0.0
C1356 C 0.81785 0.75202 0.51107 0.0
C1357 C 0.81449 0.73618 0.50968 0.0
C1358 C 0.82349 0.72721 0.51699 0.0
C1359 C 0.83597 0.73393 0.5259 0.0
C1360 C 0.83923 0.74984 0.52733 0.0
C1361 C 0.83026 0.75879 0.51996 0.0
C1362 C 0.8192 0.75084 0.47757 0.0
C1363 C 0.81239 0.73746 0.46952 0.0
C1364 C 0.82152 0.72635 0.46279 0.0
C1365 C 0.83764 0.72848 0.46394 0.0
C1366 C 0.84445 0.74224 0.47144 0.0
C1367 C 0.83529 0.75332 0.47821 0.0
C1368 C 0.8012 0.76992 0.46207 0.0
C1369 C 0.78836 0.76391 0.45342 0.0
C1370 C 0.78905 0.76344 0.43717 0.0
C1371 C 0.80264 0.76893 0.42928 0.0
C1372 C 0.81549 0.7749 0.43801 0.0
C1373 C 0.81477 0.77539 0.45426 0.0
C1374 C 0.78129 0.78984 0.48052 0.0
C1375 C 0.76515 0.78737 0.48097 0.0
C1376 C 0.75647 0.79679 0.47387 0.0
C1377 C 0.76377 0.80867 0.46582 0.0
C1378 C 0.78 0.81092 0.46521 0.0
C1379 C 0.78864 0.80168 0.4726 0.0
C1380 C 0.77868 0.7896 0.51413 0.0
C1381 C 0.76467 0.78289 0.52005 0.0
C1382 C 0.75365 0.79196 0.52712 0.0
C1383 C 0.7566 0.80786 0.52857 0.0
C1384 C 0.77093 0.81453 0.52325 0.0
C1385 C 0.78187 0.80545 0.51599 0.0
C1386 C 0.84551 0.72436 0.53364 0.0
C1387 C 0.80342 0.76847 0.41201 0.0
H1388 H 0.66689 0.20228 0.56141 0.0
H1389 H 0.79226 0.26173 0.44288 0.0
H1390 H 0.73163 0.26372 0.57462 0.0
H1391 H 0.72011 0.25562 0.59919 0.0
H1392 H 0.75356 0.22319 0.59879 0.0
H1393 H 0.7651 0.23147 0.57423 0.0
H1394 H 0.71473 0.2487 0.54284 0.0
H1395 H 0.69168 0.23214 0.54948 0.0
H1396 H 0.72052 0.19852 0.5605 0.0
H1397 H 0.74345 0.2151 0.5536 0.0
H1398 H 0.73008 0.25772 0.50963 0.0
H1399 H 0.71549 0.24424 0.48786 0.0
H1400 H 0.73198 0.20217 0.49705 0.0
H1401 H 0.74658 0.21577 0.51876 0.0
H1402 H 0.75809 0.28187 0.51183 0.0
H1403 H 0.76696 0.28791 0.4857 0.0
H1404 H 0.78282 0.24334 0.47586 0.0
H1405 H 0.77411 0.23754 0.50214 0.0
H1406 H 0.77196 0.2942 0.54276 0.0
H1407 H 0.78958 0.31251 0.52975 0.0
H1408 H 0.81603 0.2762 0.51001 0.0
H1409 H 0.79823 0.25797 0.52294 0.0
H1410 H 0.76233 0.28309 0.57624 0.0
H1411 H 0.78017 0.29421 0.59646 0.0
H1412 H 0.81319 0.26334 0.57791 0.0
H1413 H 0.79541 0.25258 0.55759 0.0
O1414 O 0.67615 0.20859 0.5587 0.0
O1415 O 0.6915 0.19174 0.56434 0.0
O1416 O 0.78026 0.28239 0.45893 0.0
O1417 O 0.78833 0.25951 0.45314 0.0
C1418 C 0.75383 0.25077 0.5564 0.0
C1419 C 0.74466 0.24339 0.54419 0.0
C1420 C 0.74862 0.24594 0.52859 0.0
C1421 C 0.76147 0.25624 0.52523 0.0
C1422 C 0.77071 0.26352 0.53744 0.0
C1423 C 0.7671 0.26053 0.55299 0.0
C1424 C 0.7492 0.24819 0.57272 0.0
C1425 C 0.73675 0.2552 0.58011 0.0
C1426 C 0.73019 0.25056 0.5941 0.0
C1427 C 0.73588 0.2387 0.60079 0.0
C1428 C 0.74889 0.23227 0.59378 0.0
C1429 C 0.75557 0.23706 0.57988 0.0
C1430 C 0.73072 0.23311 0.54781 0.0
C1431 C 0.71602 0.23772 0.54661 0.0
C1432 C 0.70289 0.22826 0.55045 0.0
C1433 C 0.70426 0.21402 0.55557 0.0
C1434 C 0.71905 0.20942 0.55663 0.0
C1435 C 0.73216 0.21887 0.55273 0.0
C1436 C 0.7394 0.23772 0.51572 0.0
C1437 C 0.73053 0.2456 0.50692 0.0
C1438 C 0.72226 0.2379 0.49449 0.0
C1439 C 0.72265 0.22216 0.49075 0.0
C1440 C 0.73136 0.21427 0.49977 0.0
C1441 C 0.73971 0.222 0.51212 0.0
C1442 C 0.7655 0.25929 0.50887 0.0
C1443 C 0.7634 0.2734 0.50397 0.0
C1444 C 0.7685 0.27683 0.48906 0.0
C1445 C 0.77568 0.26613 0.47871 0.0
C1446 C 0.77738 0.25185 0.48354 0.0
C1447 C 0.77235 0.24847 0.4985 0.0
C1448 C 0.78377 0.27478 0.53368 0.0
C1449 C 0.7819 0.29031 0.53611 0.0
C1450 C 0.79195 0.30074 0.52862 0.0
C1451 C 0.80401 0.29574 0.51861 0.0
C1452 C 0.80665 0.28034 0.5174 0.0
C1453 C 0.79662 0.26994 0.52491 0.0
C1454 C 0.77761 0.26706 0.56549 0.0
C1455 C 0.7734 0.27872 0.57663 0.0
C1456 C 0.78357 0.28499 0.58819 0.0
C1457 C 0.79812 0.27965 0.5888 0.0
C1458 C 0.80219 0.26785 0.57765 0.0
C1459 C 0.79203 0.26164 0.56609 0.0
C1460 C 0.6903 0.20407 0.55981 0.0
C1461 C 0.78151 0.26988 0.46301 0.0
H1462 H 0.20299 0.38776 0.53735 0.0
H1463 H 0.24605 0.26099 0.41629 0.0
H1464 H 0.26729 0.33959 0.54028 0.0
H1465 H 0.25872 0.35581 0.5631 0.0
H1466 H 0.22803 0.31814 0.57747 0.0
H1467 H 0.23678 0.30196 0.55464 0.0
H1468 H 0.24828 0.34673 0.51193 0.0
H1469 H 0.23199 0.36711 0.52029 0.0
H1470 H 0.20078 0.33571 0.54445 0.0
H1471 H 0.21703 0.31541 0.53581 0.0
H1472 H 0.25365 0.32603 0.47763 0.0
H1473 H 0.2374 0.33594 0.45972 0.0
H1474 H 0.19681 0.31833 0.48536 0.0
H1475 H 0.21315 0.30754 0.50238 0.0
H1476 H 0.27866 0.30253 0.47747 0.0
H1477 H 0.28037 0.29171 0.45018 0.0
H1478 H 0.23347 0.27097 0.45432 0.0
H1479 H 0.23197 0.28171 0.48165 0.0
H1480 H 0.29445 0.29705 0.50917 0.0
H1481 H 0.31172 0.27762 0.5007 0.0
H1482 H 0.2723 0.24534 0.48907 0.0
H1483 H 0.25513 0.26464 0.49842 0.0
H1484 H 0.28838 0.31273 0.53969 0.0
H1485 H 0.30392 0.30029 0.55634 0.0
H1486 H 0.27001 0.26106 0.5535 0.0
H1487 H 0.25489 0.27342 0.5365 0.0
O1488 O 0.20922 0.37953 0.53408 0.0
O1489 O 0.19342 0.36284 0.54608 0.0
O1490 O 0.26981 0.2762 0.42557 0.0
O1491 O 0.2457 0.26537 0.42706 0.0
C1492 C 0.25299 0.31226 0.52955 0.0
C1493 C 0.2439 0.31734 0.51846 0.0
C1494 C 0.2444 0.31083 0.50278 0.0
C1495 C 0.25425 0.29942 0.49811 0.0
C1496 C 0.26316 0.2942 0.50928 0.0
C1497 C 0.26227 0.30042 0.52508 0.0
C1498 C 0.25253 0.31968 0.54577 0.0
C1499 C 0.25931 0.33465 0.54878 0.0
C1500 C 0.25429 0.34392 0.56172 0.0
C1501 C 0.24248 0.3383 0.57183 0.0
C1502 C 0.23717 0.32276 0.56987 0.0
C1503 C 0.24219 0.31347 0.55688 0.0
C1504 C 0.23385 0.32963 0.52332 0.0
C1505 C 0.23788 0.34428 0.51897 0.0
C1506 C 0.22857 0.3559 0.52379 0.0
C1507 C 0.21508 0.35303 0.53304 0.0
C1508 C 0.21108 0.3383 0.53733 0.0
C1509 C 0.22036 0.3267 0.53246 0.0
C1510 C 0.23458 0.31611 0.49133 0.0
C1511 C 0.24124 0.32409 0.47916 0.0
C1512 C 0.23192 0.32991 0.46907 0.0
C1513 C 0.21575 0.32807 0.47113 0.0
C1514 C 0.20917 0.31981 0.48321 0.0
C1515 C 0.21849 0.31376 0.49309 0.0
C1516 C 0.2552 0.2929 0.48152 0.0
C1517 C 0.26879 0.29561 0.47247 0.0
C1518 C 0.26972 0.28944 0.45688 0.0
C1519 C 0.25704 0.28048 0.45006 0.0
C1520 C 0.24343 0.27782 0.4592 0.0
C1521 C 0.24253 0.28396 0.47479 0.0
C1522 C 0.27355 0.28225 0.50441 0.0
C1523 C 0.28957 0.28571 0.505 0.0
C1524 C 0.29941 0.27464 0.50001 0.0
C1525 C 0.29341 0.25993 0.49414 0.0
C1526 C 0.27731 0.25648 0.49373 0.0
C1527 C 0.26748 0.26752 0.49891 0.0
C1528 C 0.27056 0.29394 0.5369 0.0
C1529 C 0.28424 0.30155 0.5429 0.0
C1530 C 0.29307 0.29442 0.55241 0.0
C1531 C 0.28829 0.2796 0.55613 0.0
C1532 C 0.27419 0.27233 0.55061 0.0
C1533 C 0.26546 0.27942 0.54104 0.0
C1534 C 0.20521 0.36538 0.53815 0.0
C1535 C 0.25796 0.27392 0.4335 0.0
H1536 H 0.85598 0.50244 0.69699 0.0
H1537 H 0.7689 0.62867 0.78929 0.0
H1538 H 0.78496 0.49249 0.76191 0.0
H1539 H 0.79566 0.46813 0.756 0.0
H1540 H 0.83788 0.48753 0.77771 0.0
H1541 H 0.82678 0.51166 0.78412 0.0
H1542 H 0.80146 0.51419 0.73683 0.0
H1543 H 0.8212 0.50713 0.717 0.0
H1544 H 0.85657 0.52986 0.74717 0.0
H1545 H 0.83669 0.53673 0.76693 0.0
H1546 H 0.78719 0.55117 0.74049 0.0
H1547 H 0.79615 0.57175 0.72457 0.0
H1548 H 0.8358 0.58339 0.75322 0.0
H1549 H 0.82648 0.56308 0.76929 0.0
H1550 H 0.76054 0.554 0.7676 0.0
H1551 H 0.75032 0.57872 0.76955 0.0
H1552 H 0.79187 0.59971 0.79155 0.0
H1553 H 0.80185 0.5749 0.78968 0.0
H1554 H 0.75104 0.52736 0.78564 0.0
H1555 H 0.73017 0.53586 0.8033 0.0
H1556 H 0.76359 0.56456 0.83155 0.0
H1557 H 0.78436 0.5553 0.81428 0.0
H1558 H 0.76214 0.50198 0.78178 0.0
H1559 H 0.75001 0.48496 0.80016 0.0
H1560 H 0.78644 0.50012 0.8322 0.0
H1561 H 0.79811 0.5176 0.81388 0.0
O1562 O 0.84836 0.50541 0.70495 0.0
O1563 O 0.86609 0.51738 0.72083 0.0
O1564 O 0.75149 0.6074 0.7771 0.0
O1565 O 0.77265 0.61876 0.78838 0.0
C1566 C 0.79935 0.51897 0.77513 0.0
C1567 C 0.80567 0.52992 0.76531 0.0
C1568 C 0.8 0.54425 0.76648 0.0
C1569 C 0.788 0.54766 0.77742 0.0
C1570 C 0.78166 0.53672 0.78722 0.0
C1571 C 0.78733 0.52236 0.78607 0.0
C1572 C 0.80509 0.50379 0.77346 0.0
C1573 C 0.79636 0.49134 0.76572 0.0
C1574 C 0.80257 0.4775 0.7622 0.0
C1575 C 0.8177 0.47594 0.76623 0.0
C1576 C 0.82616 0.4883 0.77457 0.0
C1577 C 0.81989 0.50211 0.77818 0.0
C1578 C 0.81768 0.52605 0.75321 0.0
C1579 C 0.81348 0.51767 0.73908 0.0
C1580 C 0.82478 0.51364 0.7278 0.0
C1581 C 0.84047 0.51795 0.73049 0.0
C1582 C 0.8446 0.52639 0.74471 0.0
C1583 C 0.83328 0.53038 0.75598 0.0
C1584 C 0.80626 0.55563 0.75594 0.0
C1585 C 0.7979 0.55808 0.74317 0.0
C1586 C 0.80306 0.56978 0.73409 0.0
C1587 C 0.81665 0.57923 0.73769 0.0
C1588 C 0.82518 0.57643 0.75028 0.0
C1589 C 0.81999 0.56476 0.75936 0.0
C1590 C 0.78192 0.5627 0.7785 0.0
C1591 C 0.76738 0.56396 0.77287 0.0
C1592 C 0.7616 0.57808 0.77398 0.0
C1593 C 0.77029 0.5912 0.78071 0.0
C1594 C 0.78488 0.58986 0.7863 0.0
C1595 C 0.79063 0.57571 0.78522 0.0
C1596 C 0.7692 0.54057 0.79882 0.0
C1597 C 0.75384 0.53513 0.79591 0.0
C1598 C 0.74193 0.54019 0.80589 0.0
C1599 C 0.74517 0.55098 0.81882 0.0
C1600 C 0.76065 0.55608 0.82188 0.0
C1601 C 0.77255 0.55087 0.81199 0.0
C1602 C 0.78089 0.51106 0.7966 0.0
C1603 C 0.76751 0.50154 0.79275 0.0
C1604 C 0.76069 0.49173 0.80322 0.0
C1605 C 0.76724 0.49117 0.8177 0.0
C1606 C 0.78097 0.50042 0.82127 0.0
C1607 C 0.78772 0.51032 0.8108 0.0
C1608 C 0.85245 0.5136 0.71851 0.0
C1609 C 0.76419 0.60624 0.78192 0.0
H1610 H 0.31528 0.52571 0.85027 0.0
H1611 H 0.19109 0.62243 0.7966 0.0
H1612 H 0.25293 0.50417 0.79293 0.0
H1613 H 0.26166 0.48037 0.79882 0.0
H1614 H 0.22689 0.47782 0.8362 0.0
H1615 H 0.21776 0.50128 0.82956 0.0
H1616 H 0.27033 0.53535 0.80525 0.0
H1617 H 0.29237 0.53225 0.82063 0.0
H1618 H 0.26131 0.52283 0.85978 0.0
H1619 H 0.23941 0.52609 0.84428 0.0
H1620 H 0.25794 0.56109 0.79226 0.0
H1621 H 0.27335 0.58551 0.79797 0.0
H1622 H 0.25542 0.58819 0.84564 0.0
H1623 H 0.23981 0.56368 0.83974 0.0
H1624 H 0.2323 0.56381 0.77708 0.0
H1625 H 0.22388 0.58777 0.77106 0.0
H1626 H 0.19878 0.59194 0.81554 0.0
H1627 H 0.20726 0.56791 0.82137 0.0
H1628 H 0.21752 0.53465 0.76478 0.0
H1629 H 0.20282 0.54813 0.74861 0.0
H1630 H 0.1702 0.55613 0.78726 0.0
H1631 H 0.18557 0.54326 0.80356 0.0
H1632 H 0.22808 0.50096 0.77582 0.0
H1633 H 0.21268 0.48074 0.76034 0.0
H1634 H 0.17199 0.49157 0.78807 0.0
H1635 H 0.18763 0.51163 0.80384 0.0
O1636 O 0.30641 0.52696 0.84441 0.0
O1637 O 0.28995 0.52214 0.86417 0.0
O1638 O 0.20898 0.61109 0.77668 0.0
O1639 O 0.19504 0.61322 0.79894 0.0
C1640 C 0.23059 0.5196 0.80813 0.0
C1641 C 0.23998 0.53264 0.81428 0.0
C1642 C 0.23686 0.54718 0.81116 0.0
C1643 C 0.22401 0.5488 0.80252 0.0
C1644 C 0.2147 0.53584 0.7962 0.0
C1645 C 0.21802 0.52119 0.7989 0.0
C1646 C 0.23465 0.50435 0.81074 0.0
C1647 C 0.24702 0.49828 0.80218 0.0
C1648 C 0.25211 0.48477 0.80572 0.0
C1649 C 0.24513 0.47719 0.81814 0.0
C1650 C 0.23245 0.48319 0.82645 0.0
C1651 C 0.22722 0.49661 0.82272 0.0
C1652 C 0.25332 0.531 0.8237 0.0
C1653 C 0.26835 0.53271 0.81718 0.0
C1654 C 0.28089 0.53089 0.82598 0.0
C1655 C 0.2786 0.52729 0.84144 0.0
C1656 C 0.26348 0.5256 0.84791 0.0
C1657 C 0.25096 0.52745 0.8391 0.0
C1658 C 0.24773 0.56073 0.81557 0.0
C1659 C 0.2575 0.56685 0.80399 0.0
C1660 C 0.26621 0.58079 0.80724 0.0
C1661 C 0.26541 0.58875 0.82219 0.0
C1662 C 0.25624 0.58221 0.83403 0.0
C1663 C 0.24736 0.56828 0.83071 0.0
C1664 C 0.22039 0.56417 0.79966 0.0
C1665 C 0.22515 0.57002 0.78558 0.0
C1666 C 0.22027 0.58368 0.78216 0.0
C1667 C 0.21059 0.59174 0.7928 0.0
C1668 C 0.20619 0.58601 0.80708 0.0
C1669 C 0.21108 0.57234 0.81048 0.0
C1670 C 0.20267 0.53808 0.78535 0.0
C1671 C 0.20683 0.53872 0.76953 0.0
C1672 C 0.19839 0.54653 0.7603 0.0
C1673 C 0.1855 0.55362 0.76672 0.0
C1674 C 0.18032 0.55124 0.78206 0.0
C1675 C 0.18891 0.54362 0.79134 0.0
C1676 C 0.20901 0.50767 0.79105 0.0
C1677 C 0.21596 0.49864 0.77892 0.0
C1678 C 0.20713 0.48711 0.77007 0.0
C1679 C 0.19115 0.48457 0.77305 0.0
C1680 C 0.18428 0.49331 0.78554 0.0
C1681 C 0.19318 0.50473 0.79453 0.0
C1682 C 0.29195 0.5253 0.85074 0.0
C1683 C 0.20488 0.60594 0.78895 0.0
H1684 H 0.19268 0.54853 0.31788 0.0
H1685 H 0.2766 0.41069 0.26978 0.0
H1686 H 0.24279 0.53963 0.25242 0.0
H1687 H 0.24212 0.56727 0.2571 0.0
H1688 H 0.2896 0.57235 0.27018 0.0
H1689 H 0.29002 0.54474 0.26622 0.0
H1690 H 0.22551 0.5124 0.26885 0.0
H1691 H 0.20788 0.52544 0.28732 0.0
H1692 H 0.24684 0.54882 0.31211 0.0
H1693 H 0.26433 0.53555 0.29368 0.0
H1694 H 0.23303 0.47814 0.26279 0.0
H1695 H 0.2162 0.46534 0.28191 0.0
H1696 H 0.2433 0.48953 0.31915 0.0
H1697 H 0.26033 0.50182 0.29992 0.0
H1698 H 0.25866 0.46948 0.23511 0.0
H1699 H 0.25985 0.44211 0.2347 0.0
H1700 H 0.27944 0.44949 0.2803 0.0
H1701 H 0.27834 0.47685 0.28048 0.0
H1702 H 0.27772 0.49358 0.21583 0.0
H1703 H 0.29796 0.48236 0.19903 0.0
H1704 H 0.32324 0.47805 0.2398 0.0
H1705 H 0.30304 0.48934 0.25647 0.0
H1706 H 0.26763 0.52998 0.22364 0.0
H1707 H 0.2839 0.54554 0.20642 0.0
H1708 H 0.32431 0.53586 0.22899 0.0
H1709 H 0.30785 0.52113 0.24674 0.0
O1710 O 0.19987 0.54345 0.31074 0.0
O1711 O 0.22029 0.55529 0.32299 0.0
O1712 O 0.26599 0.41828 0.24616 0.0
O1713 O 0.27603 0.42145 0.26962 0.0
C1714 C 0.26638 0.52336 0.2581 0.0
C1715 C 0.25683 0.51512 0.26862 0.0
C1716 C 0.25751 0.49933 0.26855 0.0
C1717 C 0.26769 0.49173 0.25796 0.0
C1718 C 0.27731 0.49996 0.24752 0.0
C1719 C 0.27654 0.51574 0.24746 0.0
C1720 C 0.26644 0.54015 0.25902 0.0
C1721 C 0.25306 0.54672 0.25621 0.0
C1722 C 0.25269 0.56245 0.25887 0.0
C1723 C 0.26582 0.57185 0.26397 0.0
C1724 C 0.27939 0.56532 0.2661 0.0
C1725 C 0.27965 0.54959 0.2638 0.0
C1726 C 0.24618 0.52306 0.27991 0.0
C1727 C 0.2302 0.5203 0.27832 0.0
C1728 C 0.22017 0.52779 0.28886 0.0
C1729 C 0.22595 0.5382 0.30118 0.0
C1730 C 0.242 0.5409 0.30275 0.0
C1731 C 0.25202 0.53336 0.29222 0.0
C1732 C 0.24784 0.49091 0.28 0.0
C1733 C 0.2354 0.4805 0.27507 0.0
C1734 C 0.22574 0.47333 0.28601 0.0
C1735 C 0.22836 0.4765 0.30206 0.0
C1736 C 0.24106 0.48672 0.30689 0.0
C1737 C 0.25073 0.49382 0.29594 0.0
C1738 C 0.26837 0.47512 0.25784 0.0
C1739 C 0.26323 0.46516 0.24498 0.0
C1740 C 0.2639 0.44953 0.24479 0.0
C1741 C 0.26972 0.44361 0.25749 0.0
C1742 C 0.27487 0.45367 0.27035 0.0
C1743 C 0.27422 0.46929 0.27051 0.0
C1744 C 0.28893 0.49224 0.23734 0.0
C1745 C 0.28758 0.4901 0.2211 0.0
C1746 C 0.29911 0.48368 0.21156 0.0
C1747 C 0.31219 0.47942 0.21814 0.0
C1748 C 0.31337 0.48139 0.23443 0.0
C1749 C 0.30181 0.4877 0.24394 0.0
C1750 C 0.28656 0.52439 0.23641 0.0
C1751 C 0.28 0.53123 0.22482 0.0
C1752 C 0.28934 0.53999 0.2149 0.0
C1753 C 0.30543 0.54196 0.21631 0.0
C1754 C 0.31196 0.53477 0.22772 0.0
C1755 C 0.30259 0.52619 0.23776 0.0
C1756 C 0.21526 0.54618 0.31232 0.0
C1757 C 0.27044 0.42702 0.25735 0.0
H1758 H 0.69414 0.53725 0.19622 0.0
H1759 H 0.71769 0.40192 0.28087 0.0
H1760 H 0.75714 0.53384 0.25277 0.0
H1761 H 0.75657 0.56078 0.24988 0.0
H1762 H 0.72327 0.56429 0.28861 0.0
H1763 H 0.72463 0.53755 0.29184 0.0
H1764 H 0.73528 0.50744 0.23159 0.0
H1765 H 0.72077 0.51858 0.21299 0.0
H1766 H 0.68989 0.53427 0.25065 0.0
H1767 H 0.70442 0.52293 0.26907 0.0
H1768 H 0.73722 0.4724 0.23846 0.0
H1769 H 0.7208 0.45732 0.21906 0.0
H1770 H 0.68055 0.47407 0.24335 0.0
H1771 H 0.69709 0.48907 0.26279 0.0
H1772 H 0.75888 0.46599 0.26398 0.0
H1773 H 0.75681 0.43846 0.26474 0.0
H1774 H 0.71025 0.43955 0.28406 0.0
H1775 H 0.71253 0.46709 0.2834 0.0
H1776 H 0.77845 0.49362 0.28163 0.0
H1777 H 0.79402 0.48118 0.29819 0.0
H1778 H 0.75295 0.46729 0.3252 0.0
H1779 H 0.73759 0.48025 0.30891 0.0
H1780 H 0.77612 0.52569 0.27521 0.0
H1781 H 0.79516 0.53967 0.29275 0.0
H1782 H 0.76418 0.53141 0.33224 0.0
H1783 H 0.74537 0.51721 0.31459 0.0
O1784 O 0.6997 0.53292 0.20376 0.0
O1785 O 0.68423 0.54083 0.22355 0.0
O1786 O 0.74281 0.41285 0.2705 0.0
O1787 O 0.71882 0.41279 0.28043 0.0
C1788 C 0.73982 0.51712 0.27294 0.0
C1789 C 0.72976 0.50766 0.26286 0.0
C1790 C 0.72846 0.49173 0.26309 0.0
C1791 C 0.73724 0.48526 0.27344 0.0
C1792 C 0.74739 0.49473 0.28348 0.0
C1793 C 0.74866 0.51067 0.28321 0.0
C1794 C 0.74099 0.53382 0.27256 0.0
C1795 C 0.75001 0.54057 0.26083 0.0
C1796 C 0.74949 0.55592 0.25909 0.0
C1797 C 0.73973 0.56475 0.26889 0.0
C1798 C 0.73108 0.55797 0.28097 0.0
C1799 C 0.73179 0.54267 0.28283 0.0
C1800 C 0.72091 0.51444 0.25165 0.0
C1801 C 0.72536 0.51328 0.23577 0.0
C1802 C 0.71706 0.51966 0.22519 0.0
C1803 C 0.70418 0.52733 0.23033 0.0
C1804 C 0.69977 0.52845 0.2463 0.0
C1805 C 0.70806 0.52203 0.25685 0.0
C1806 C 0.71834 0.48183 0.252 0.0
C1807 C 0.72484 0.47263 0.23971 0.0
C1808 C 0.71545 0.464 0.22868 0.0
C1809 C 0.69939 0.46452 0.2297 0.0
C1810 C 0.69289 0.47355 0.24221 0.0
C1811 C 0.7023 0.48209 0.25331 0.0
C1812 C 0.73587 0.46852 0.27368 0.0
C1813 C 0.74826 0.46026 0.26842 0.0
C1814 C 0.74704 0.44454 0.26884 0.0
C1815 C 0.73336 0.4368 0.27448 0.0
C1816 C 0.72094 0.44514 0.27966 0.0
C1817 C 0.7222 0.46087 0.27926 0.0
C1818 C 0.7569 0.48785 0.29408 0.0
C1819 C 0.77287 0.48807 0.29127 0.0
C1820 C 0.78171 0.48083 0.30065 0.0
C1821 C 0.77472 0.47316 0.31298 0.0
C1822 C 0.75873 0.47323 0.31593 0.0
C1823 C 0.74992 0.48053 0.30658 0.0
C1824 C 0.75939 0.52051 0.29366 0.0
C1825 C 0.77339 0.52713 0.28763 0.0
C1826 C 0.78423 0.53509 0.29766 0.0
C1827 C 0.78122 0.53656 0.3139 0.0
C1828 C 0.76695 0.53026 0.31982 0.0
C1829 C 0.75615 0.52227 0.30978 0.0
C1830 C 0.6954 0.53412 0.21907 0.0
C1831 C 0.73201 0.4201 0.27499 0.0
H1832 H 0.46622 0.37009 0.86799 0.0
H1833 H 0.60668 0.3259 0.76885 0.0
H1834 H 0.46803 0.31056 0.799 0.0
H1835 H 0.44128 0.31518 0.80577 0.0
H1836 H 0.44465 0.34974 0.77405 0.0
H1837 H 0.47149 0.34492 0.76725 0.0
H1838 H 0.49432 0.32689 0.822 0.0
H1839 H 0.48317 0.34197 0.84437 0.0
H1840 H 0.47657 0.37665 0.81474 0.0
H1841 H 0.48789 0.36151 0.79252 0.0
H1842 H 0.52837 0.31898 0.81244 0.0
H1843 H 0.54718 0.3313 0.83119 0.0
H1844 H 0.5422 0.37469 0.81506 0.0
H1845 H 0.52332 0.36228 0.79647 0.0
H1846 H 0.53388 0.29764 0.78209 0.0
H1847 H 0.56136 0.29422 0.77981 0.0
H1848 H 0.57159 0.34076 0.7696 0.0
H1849 H 0.54405 0.34395 0.77168 0.0
H1850 H 0.50608 0.28468 0.76212 0.0
H1851 H 0.52076 0.26776 0.74427 0.0
H1852 H 0.54489 0.30669 0.72478 0.0
H1853 H 0.5298 0.32348 0.74236 0.0
H1854 H 0.47388 0.29242 0.77067 0.0
H1855 H 0.45766 0.27826 0.7506 0.0
H1856 H 0.47572 0.30969 0.71783 0.0
H1857 H 0.49217 0.32359 0.73798 0.0
O1858 O 0.4707 0.36437 0.85902 0.0
O1859 O 0.46749 0.38182 0.84328 0.0
O1860 O 0.58984 0.30304 0.77493 0.0
O1861 O 0.59574 0.32694 0.76982 0.0
C1862 C 0.48842 0.32618 0.78059 0.0
C1863 C 0.49831 0.33377 0.79208 0.0
C1864 C 0.51421 0.3321 0.79086 0.0
C1865 C 0.52027 0.32296 0.77808 0.0
C1866 C 0.51042 0.31549 0.76648 0.0
C1867 C 0.49447 0.3171 0.76775 0.0
C1868 C 0.47162 0.32736 0.7826 0.0
C1869 C 0.46285 0.31885 0.79323 0.0
C1870 C 0.4476 0.3215 0.79706 0.0
C1871 C 0.4409 0.33284 0.79045 0.0
C1872 C 0.44956 0.34099 0.77937 0.0
C1873 C 0.4648 0.33819 0.77539 0.0
C1874 C 0.49188 0.34312 0.80568 0.0
C1875 C 0.49053 0.33779 0.82041 0.0
C1876 C 0.48412 0.34641 0.83314 0.0
C1877 C 0.47895 0.36051 0.83134 0.0
C1878 C 0.48042 0.36584 0.81653 0.0
C1879 C 0.48686 0.35722 0.80383 0.0
C1880 C 0.52457 0.33975 0.80308 0.0
C1881 C 0.53126 0.33117 0.81309 0.0
C1882 C 0.54202 0.3382 0.82373 0.0
C1883 C 0.54621 0.35395 0.82456 0.0
C1884 C 0.53907 0.36257 0.81483 0.0
C1885 C 0.52834 0.35552 0.80418 0.0
C1886 C 0.537 0.32102 0.77699 0.0
C1887 C 0.54208 0.30706 0.77931 0.0
C1888 C 0.55778 0.30515 0.77803 0.0
C1889 C 0.56868 0.31722 0.77451 0.0
C1890 C 0.56352 0.33124 0.77232 0.0
C1891 C 0.54781 0.3331 0.77353 0.0
C1892 C 0.5169 0.3053 0.75355 0.0
C1893 C 0.51417 0.28951 0.75364 0.0
C1894 C 0.52271 0.27988 0.74357 0.0
C1895 C 0.53415 0.2859 0.73327 0.0
C1896 C 0.53611 0.30168 0.7325 0.0
C1897 C 0.52753 0.3113 0.74255 0.0
C1898 C 0.48411 0.30905 0.75577 0.0
C1899 C 0.4742 0.29632 0.7592 0.0
C1900 C 0.46491 0.28829 0.74772 0.0
C1901 C 0.46536 0.29287 0.73261 0.0
C1902 C 0.47522 0.30577 0.72929 0.0
C1903 C 0.48454 0.31377 0.74079 0.0
C1904 C 0.47204 0.36959 0.84486 0.0
C1905 C 0.58537 0.31525 0.77312 0.0
H1906 H 0.49694 0.69192 0.8473 0.0
H1907 H 0.64326 0.76961 0.78234 0.0
H1908 H 0.50357 0.73095 0.77398 0.0
H1909 H 0.47542 0.73059 0.77472 0.0
H1910 H 0.47931 0.77664 0.79714 0.0
H1911 H 0.50742 0.77682 0.7965 0.0
H1912 H 0.5288 0.7166 0.79303 0.0
H1913 H 0.51612 0.70213 0.81341 0.0
H1914 H 0.50634 0.7441 0.84051 0.0
H1915 H 0.51923 0.75843 0.82011 0.0
H1916 H 0.56277 0.72238 0.78173 0.0
H1917 H 0.57425 0.70634 0.79835 0.0
H1918 H 0.5662 0.73851 0.83848 0.0
H1919 H 0.55489 0.75453 0.82175 0.0
H1920 H 0.57402 0.74465 0.75471 0.0
H1921 H 0.60214 0.7466 0.75145 0.0
H1922 H 0.60591 0.77276 0.79668 0.0
H1923 H 0.5778 0.77086 0.79971 0.0
H1924 H 0.5476 0.75753 0.73802 0.0
H1925 H 0.56055 0.77253 0.71819 0.0
H1926 H 0.57992 0.80538 0.75455 0.0
H1927 H 0.56648 0.79055 0.77428 0.0
H1928 H 0.51527 0.74823 0.74753 0.0
H1929 H 0.49433 0.75781 0.73513 0.0
H1930 H 0.50592 0.80231 0.75965 0.0
H1931 H 0.52664 0.7924 0.77238 0.0
O1932 O 0.50185 0.69786 0.83936 0.0
O1933 O 0.49694 0.71974 0.85275 0.0
O1934 O 0.62956 0.75522 0.76012 0.0
O1935 O 0.63212 0.76867 0.78332 0.0
C1936 C 0.52445 0.75468 0.78325 0.0
C1937 C 0.53301 0.7473 0.79294 0.0
C1938 C 0.54921 0.74811 0.79088 0.0
C1939 C 0.55684 0.75657 0.77933 0.0
C1940 C 0.54817 0.76392 0.76955 0.0
C1941 C 0.53196 0.76271 0.77135 0.0
C1942 C 0.50745 0.75387 0.78527 0.0
C1943 C 0.49829 0.74086 0.77924 0.0
C1944 C 0.48229 0.74075 0.77948 0.0
C1945 C 0.47523 0.75364 0.78587 0.0
C1946 C 0.48445 0.76654 0.79222 0.0
C1947 C 0.50045 0.76665 0.7919 0.0
C1948 C 0.52495 0.73854 0.80513 0.0
C1949 C 0.52393 0.72263 0.80339 0.0
C1950 C 0.51666 0.7144 0.81504 0.0
C1951 C 0.51023 0.72196 0.8286 0.0
C1952 C 0.51118 0.73793 0.83022 0.0
C1953 C 0.51849 0.74614 0.81858 0.0
C1954 C 0.55802 0.73959 0.80057 0.0
C1955 C 0.56378 0.72608 0.79406 0.0
C1956 C 0.57018 0.71689 0.80357 0.0
C1957 C 0.57102 0.72114 0.81972 0.0
C1958 C 0.56582 0.73501 0.82607 0.0
C1959 C 0.55934 0.74415 0.81656 0.0
C1960 C 0.57389 0.75763 0.77743 0.0
C1961 C 0.58095 0.75084 0.76387 0.0
C1962 C 0.597 0.75194 0.76206 0.0
C1963 C 0.60628 0.75984 0.77381 0.0
C1964 C 0.59913 0.76659 0.78741 0.0
C1965 C 0.58307 0.7655 0.78919 0.0
C1966 C 0.55606 0.773 0.75756 0.0
C1967 C 0.55456 0.76802 0.74167 0.0
C1968 C 0.56209 0.77652 0.73038 0.0
C1969 C 0.5713 0.79013 0.7348 0.0
C1970 C 0.57278 0.79505 0.75077 0.0
C1971 C 0.5652 0.78656 0.76205 0.0
C1972 C 0.52244 0.76963 0.76084 0.0
C1973 C 0.51359 0.76016 0.74984 0.0
C1974 C 0.5016 0.76567 0.74278 0.0
C1975 C 0.49832 0.7808 0.74654 0.0
C1976 C 0.50799 0.79054 0.75672 0.0
C1977 C 0.51997 0.78498 0.76382 0.0
C1978 C 0.50259 0.71318 0.84099 0.0
C1979 C 0.62334 0.76107 0.77195 0.0
H1980 H 0.5343 0.69478 0.23277 0.0
H1981 H 0.41204 0.80305 0.26827 0.0
H1982 H 0.53297 0.75318 0.29782 0.0
H1983 H 0.55947 0.74636 0.29517 0.0
H1984 H 0.57369 0.78764 0.27406 0.0
H1985 H 0.54708 0.7942 0.27646 0.0
H1986 H 0.50439 0.7377 0.27757 0.0
H1987 H 0.51428 0.71647 0.261 0.0
H1988 H 0.54337 0.74829 0.23531 0.0
H1989 H 0.53322 0.76941 0.25182 0.0
H1990 H 0.47113 0.75146 0.28041 0.0
H1991 H 0.45547 0.73522 0.2612 0.0
H1992 H 0.48509 0.75238 0.22407 0.0
H1993 H 0.49999 0.76925 0.24333 0.0
H1994 H 0.46757 0.77891 0.30665 0.0
H1995 H 0.44079 0.78434 0.30556 0.0
H1996 H 0.45053 0.79879 0.25958 0.0
H1997 H 0.47733 0.7935 0.2609 0.0
H1998 H 0.49626 0.79429 0.32704 0.0
H1999 H 0.48273 0.81306 0.3438 0.0
H2000 H 0.47647 0.83661 0.30381 0.0
H2001 H 0.4902 0.81789 0.28714 0.0
H2002 H 0.52944 0.78196 0.32196 0.0
H2003 H 0.54846 0.79793 0.33812 0.0
H2004 H 0.54497 0.83493 0.3105 0.0
H2005 H 0.52596 0.81893 0.2945 0.0
O2006 O 0.53052 0.70335 0.23917 0.0
O2007 O 0.54535 0.72018 0.22642 0.0
O2008 O 0.41817 0.79333 0.2927 0.0
O2009 O 0.42254 0.80077 0.26898 0.0
C2010 C 0.52173 0.77709 0.28673 0.0
C2011 C 0.51206 0.76792 0.27603 0.0
C2012 C 0.49661 0.77092 0.27492 0.0
C2013 C 0.49073 0.78291 0.28476 0.0
C2014 C 0.50043 0.79214 0.29546 0.0
C2015 C 0.51595 0.78926 0.29639 0.0
C2016 C 0.53811 0.77414 0.28728 0.0
C2017 C 0.54187 0.76085 0.29285 0.0
C2018 C 0.55701 0.75701 0.29139 0.0
C2019 C 0.56864 0.76641 0.28429 0.0
C2020 C 0.56494 0.78008 0.27938 0.0
C2021 C 0.5498 0.78391 0.28087 0.0
C2022 C 0.51812 0.75507 0.26592 0.0
C2023 C 0.51287 0.74004 0.26833 0.0
C2024 C 0.51855 0.72795 0.25887 0.0
C2025 C 0.52963 0.73068 0.24684 0.0
C2026 C 0.53486 0.74579 0.24447 0.0
C2027 C 0.52912 0.75787 0.25391 0.0
C2028 C 0.4867 0.76151 0.26327 0.0
C2029 C 0.47405 0.75186 0.26811 0.0
C2030 C 0.46525 0.74246 0.25711 0.0
C2031 C 0.46907 0.74238 0.24105 0.0
C2032 C 0.48166 0.75226 0.23629 0.0
C2033 C 0.49029 0.76181 0.24728 0.0
C2034 C 0.47437 0.78581 0.28386 0.0
C2035 C 0.46389 0.78326 0.29636 0.0
C2036 C 0.4486 0.78636 0.2957 0.0
C2037 C 0.44352 0.79201 0.28248 0.0
C2038 C 0.45406 0.79445 0.26993 0.0
C2039 C 0.46936 0.79139 0.27063 0.0
C2040 C 0.49412 0.80466 0.30586 0.0
C2041 C 0.49228 0.8037 0.32196 0.0
C2042 C 0.48456 0.81443 0.33151 0.0
C2043 C 0.47847 0.82624 0.32508 0.0
C2044 C 0.4809 0.82753 0.30904 0.0
C2045 C 0.48876 0.81689 0.29953 0.0
C2046 C 0.52638 0.79929 0.30705 0.0
C2047 C 0.5327 0.79356 0.31953 0.0
C2048 C 0.54357 0.80267 0.32869 0.0
C2049 C 0.54823 0.81767 0.32556 0.0
C2050 C 0.54147 0.8235 0.31335 0.0
C2051 C 0.53065 0.81437 0.30416 0.0
C2052 C 0.53568 0.7178 0.23683 0.0
C2053 C 0.42731 0.79539 0.28175 0.0
H2054 H 0.53983 0.22027 0.35502 0.0
H2055 H 0.40388 0.27841 0.27929 0.0
H2056 H 0.54111 0.28143 0.3062 0.0
H2057 H 0.56344 0.26944 0.31273 0.0
H2058 H 0.55829 0.23809 0.27091 0.0
H2059 H 0.5358 0.25014 0.26455 0.0
H2060 H 0.51388 0.26707 0.32504 0.0
H2061 H 0.5241 0.25026 0.34168 0.0
H2062 H 0.52643 0.21599 0.3022 0.0
H2063 H 0.51606 0.23287 0.28576 0.0
H2064 H 0.48021 0.27423 0.32143 0.0
H2065 H 0.4624 0.25931 0.33807 0.0
H2066 H 0.4636 0.2203 0.30351 0.0
H2067 H 0.48179 0.23518 0.28732 0.0
H2068 H 0.47737 0.3009 0.29506 0.0
H2069 H 0.45048 0.3064 0.29553 0.0
H2070 H 0.43758 0.26098 0.27375 0.0
H2071 H 0.46453 0.25569 0.27319 0.0
H2072 H 0.50761 0.31277 0.27341 0.0
H2073 H 0.49934 0.32887 0.25486 0.0
H2074 H 0.47253 0.28984 0.23175 0.0
H2075 H 0.48169 0.27378 0.24966 0.0
H2076 H 0.53858 0.30212 0.28306 0.0
H2077 H 0.55659 0.3164 0.26607 0.0
H2078 H 0.53716 0.28934 0.22567 0.0
H2079 H 0.51947 0.2749 0.24278 0.0
O2080 O 0.53544 0.22658 0.34835 0.0
O2081 O 0.53618 0.20926 0.32774 0.0
O2082 O 0.42185 0.2998 0.29035 0.0
O2083 O 0.4146 0.27654 0.27923 0.0
C2084 C 0.52056 0.26971 0.28444 0.0
C2085 C 0.50941 0.26192 0.29389 0.0
C2086 C 0.49379 0.26438 0.29359 0.0
C2087 C 0.48923 0.27469 0.28385 0.0
C2088 C 0.50031 0.28218 0.27402 0.0
C2089 C 0.51604 0.27972 0.27438 0.0
C2090 C 0.53684 0.2666 0.28495 0.0
C2091 C 0.54527 0.27248 0.29806 0.0
C2092 C 0.558 0.26556 0.30179 0.0
C2093 C 0.56244 0.25266 0.29245 0.0
C2094 C 0.55498 0.24789 0.27841 0.0
C2095 C 0.54227 0.25487 0.27465 0.0
C2096 C 0.51426 0.25117 0.30423 0.0
C2097 C 0.51643 0.25585 0.32008 0.0
C2098 C 0.52234 0.24626 0.32952 0.0
C2099 C 0.52616 0.23181 0.32325 0.0
C2100 C 0.52364 0.22705 0.3074 0.0
C2101 C 0.51769 0.23664 0.29799 0.0
C2102 C 0.48223 0.25575 0.30321 0.0
C2103 C 0.47652 0.26248 0.31748 0.0
C2104 C 0.46631 0.25395 0.32691 0.0
C2105 C 0.4616 0.23857 0.32217 0.0
C2106 C 0.46719 0.23201 0.30767 0.0
C2107 C 0.47747 0.24051 0.29834 0.0
C2108 C 0.47286 0.27788 0.28418 0.0
C2109 C 0.46871 0.29216 0.2904 0.0
C2110 C 0.45335 0.29527 0.29066 0.0
C2111 C 0.44187 0.28411 0.28471 0.0
C2112 C 0.44611 0.26981 0.27847 0.0
C2113 C 0.46148 0.26673 0.27819 0.0
C2114 C 0.49526 0.2921 0.26289 0.0
C2115 C 0.50009 0.30771 0.26422 0.0
C2116 C 0.49522 0.3169 0.25369 0.0
C2117 C 0.48524 0.31068 0.24177 0.0
C2118 C 0.48042 0.29501 0.24056 0.0
C2119 C 0.48548 0.28582 0.25092 0.0
C2120 C 0.52773 0.2875 0.26414 0.0
C2121 C 0.5384 0.29914 0.27055 0.0
C2122 C 0.54857 0.30736 0.26083 0.0
C2123 C 0.54825 0.30404 0.24452 0.0
C2124 C 0.53781 0.29206 0.23818 0.0
C2125 C 0.52765 0.28386 0.24791 0.0
C2126 C 0.53288 0.22182 0.33319 0.0
C2127 C 0.42553 0.28735 0.28496 0.0
C2128 C 0.20899 0.17991 0.18039 0.0
C2129 C 0.21419 0.18596 0.19514 0.0
C2130 C 0.21655 0.18451 0.16671 0.0
C2131 C 0.22977 0.19521 0.1678 0.0
C2132 C 0.23556 0.20071 0.18262 0.0
C2133 C 0.22763 0.19612 0.19612 0.0
C2134 C 0.20991 0.17853 0.15113 0.0
C2135 C 0.2498 0.2119 0.18426 0.0
C2136 C 0.25466 0.2005 0.13097 0.0
C2137 C 0.24956 0.21367 0.12628 0.0
C2138 C 0.24848 0.19444 0.14457 0.0
C2139 C 0.23677 0.20158 0.15356 0.0
C2140 C 0.23159 0.21486 0.14891 0.0
C2141 C 0.23814 0.22081 0.13545 0.0
C2142 C 0.25443 0.18037 0.14927 0.0
C2143 C 0.21905 0.22277 0.15813 0.0
H2144 H 0.19859 0.1721 0.17953 0.0
H2145 H 0.23179 0.20074 0.20748 0.0
H2146 H 0.2056 0.18795 0.14578 0.0
H2147 H 0.21895 0.17394 0.14303 0.0
H2148 H 0.20025 0.16946 0.15219 0.0
H2149 H 0.2537 0.21385 0.19644 0.0
H2150 H 0.25935 0.20779 0.17651 0.0
H2151 H 0.24738 0.22293 0.1806 0.0
H2152 H 0.26333 0.19478 0.1239 0.0
H2153 H 0.23434 0.23116 0.13215 0.0
H2154 H 0.24496 0.17102 0.14923 0.0
H2155 H 0.25858 0.18258 0.16133 0.0
H2156 H 0.26398 0.17651 0.14134 0.0
H2157 H 0.20848 0.21475 0.15901 0.0
H2158 H 0.21611 0.23282 0.15277 0.0
H2159 H 0.22272 0.22654 0.17018 0.0
C2160 C 0.8681 0.19944 0.10061 0.0
C2161 C 0.86055 0.19126 0.11224 0.0
C2162 C 0.85989 0.20757 0.0914 0.0
C2163 C 0.84372 0.20734 0.09373 0.0
C2164 C 0.83598 0.19884 0.10522 0.0
C2165 C 0.84451 0.19098 0.11441 0.0
C2166 C 0.86856 0.21664 0.07937 0.0
C2167 C 0.81871 0.19815 0.10788 0.0
C2168 C 0.8243 0.23979 0.08092 0.0
C2169 C 0.81868 0.23345 0.06643 0.0
C2170 C 0.83249 0.23142 0.08991 0.0
C2171 C 0.83494 0.21627 0.08437 0.0
C2172 C 0.82916 0.20972 0.06986 0.0
C2173 C 0.82119 0.21842 0.06101 0.0
C2174 C 0.83858 0.23882 0.1053 0.0
C2175 C 0.83147 0.19356 0.06363 0.0
H2176 H 0.88051 0.19976 0.09891 0.0
H2177 H 0.83859 0.18462 0.12332 0.0
H2178 H 0.86398 0.21291 0.06765 0.0
H2179 H 0.86688 0.22884 0.08211 0.0
H2180 H 0.88112 0.21546 0.07887 0.0
H2181 H 0.81438 0.19057 0.11687 0.0
H2182 H 0.81533 0.2097 0.11164 0.0
H2183 H 0.81291 0.19403 0.09682 0.0
H2184 H 0.8222 0.25129 0.08533 0.0
H2185 H 0.81711 0.2135 0.04972 0.0
H2186 H 0.85127 0.23868 0.10522 0.0
H2187 H 0.8336 0.23232 0.11492 0.0
H2188 H 0.83583 0.25076 0.10785 0.0
H2189 H 0.84395 0.1923 0.0619 0.0
H2190 H 0.82582 0.19001 0.05236 0.0
H2191 H 0.82674 0.1857 0.07221 0.0
C2192 C 0.87993 0.84812 0.11909 0.0
C2193 C 0.87858 0.84639 0.13506 0.0
C2194 C 0.87028 0.83907 0.10844 0.0
C2195 C 0.85874 0.82836 0.11399 0.0
C2196 C 0.85755 0.82634 0.13007 0.0
C2197 C 0.86762 0.83525 0.14038 0.0
C2198 C 0.87219 0.84122 0.09132 0.0
C2199 C 0.84519 0.81525 0.13648 0.0
C2200 C 0.82269 0.81784 0.09075 0.0
C2201 C 0.82475 0.80304 0.08408 0.0
C2202 C 0.8337 0.82621 0.10043 0.0
C2203 C 0.84735 0.81983 0.10318 0.0
C2204 C 0.8498 0.80515 0.09607 0.0
C2205 C 0.83839 0.79685 0.08679 0.0
C2206 C 0.83057 0.84177 0.10799 0.0
C2207 C 0.86436 0.79811 0.09847 0.0
H2208 H 0.88847 0.85666 0.11492 0.0
H2209 H 0.86646 0.83396 0.15273 0.0
H2210 H 0.87301 0.83012 0.08426 0.0
H2211 H 0.86194 0.84601 0.08755 0.0
H2212 H 0.8826 0.84898 0.08873 0.0
H2213 H 0.84612 0.81471 0.14919 0.0
H2214 H 0.83366 0.81864 0.13443 0.0
H2215 H 0.84586 0.80371 0.13034 0.0
H2216 H 0.81241 0.82291 0.08848 0.0
H2217 H 0.84006 0.78536 0.08195 0.0
H2218 H 0.83983 0.85042 0.10456 0.0
H2219 H 0.83055 0.84201 0.12087 0.0
H2220 H 0.81934 0.84506 0.10473 0.0
H2221 H 0.87462 0.80598 0.09576 0.0
H2222 H 0.86508 0.78714 0.09108 0.0
H2223 H 0.86486 0.79606 0.11087 0.0
C2224 C 0.19536 0.86385 0.11628 0.0
C2225 C 0.18455 0.87074 0.10878 0.0
C2226 C 0.20695 0.85645 0.1077 0.0
C2227 C 0.2074 0.85551 0.09121 0.0
C2228 C 0.19633 0.86223 0.08355 0.0
C2229 C 0.18516 0.87 0.09246 0.0
C2230 C 0.21881 0.8498 0.11631 0.0
C2231 C 0.19619 0.86106 0.06597 0.0
C2232 C 0.24499 0.84767 0.06931 0.0
C2233 C 0.24296 0.83181 0.06579 0.0
C2234 C 0.23353 0.85553 0.07759 0.0
C2235 C 0.21947 0.84743 0.08202 0.0
C2236 C 0.21711 0.83152 0.07812 0.0
C2237 C 0.22896 0.82389 0.07031 0.0
C2238 C 0.2366 0.87247 0.08184 0.0
C2239 C 0.20212 0.82253 0.08235 0.0
H2240 H 0.19499 0.86457 0.12891 0.0
H2241 H 0.17674 0.87526 0.08665 0.0
H2242 H 0.21824 0.83735 0.11306 0.0
H2243 H 0.23055 0.8547 0.11291 0.0
H2244 H 0.21714 0.85197 0.12918 0.0
H2245 H 0.18654 0.86655 0.06183 0.0
H2246 H 0.20719 0.86648 0.06124 0.0
H2247 H 0.19516 0.84894 0.06109 0.0
H2248 H 0.25557 0.85401 0.06562 0.0
H2249 H 0.22728 0.81163 0.06799 0.0
H2250 H 0.23559 0.87515 0.09469 0.0
H2251 H 0.22787 0.87843 0.07673 0.0
H2252 H 0.24824 0.87705 0.07771 0.0
H2253 H 0.20059 0.82295 0.09522 0.0
H2254 H 0.20166 0.81044 0.07738 0.0
H2255 H 0.19227 0.8276 0.07809 0.0
C2256 C 0.23969 0.8914 0.94771 0.0
C2257 C 0.23459 0.88468 0.93314 0.0
C2258 C 0.24698 0.88312 0.95759 0.0
C2259 C 0.24914 0.86774 0.95282 0.0
C2260 C 0.24419 0.86095 0.93805 0.0
C2261 C 0.23702 0.86951 0.92837 0.0
C2262 C 0.25221 0.89078 0.97321 0.0
C2263 C 0.24623 0.84455 0.93259 0.0
C2264 C 0.27861 0.84854 0.97245 0.0
C2265 C 0.26924 0.84033 0.98293 0.0
C2266 C 0.27226 0.8577 0.96273 0.0
C2267 C 0.25615 0.85859 0.96345 0.0
C2268 C 0.24666 0.85047 0.97413 0.0
C2269 C 0.25332 0.84149 0.98377 0.0
C2270 C 0.28276 0.86623 0.95152 0.0
C2271 C 0.22943 0.85113 0.97525 0.0
H2272 H 0.23791 0.90313 0.95147 0.0
H2273 H 0.23311 0.86423 0.91714 0.0
H2274 H 0.24597 0.88495 0.98273 0.0
H2275 H 0.26467 0.8899 0.9743 0.0
H2276 H 0.25017 0.90296 0.97495 0.0
H2277 H 0.24209 0.84107 0.92063 0.0
H2278 H 0.25857 0.84264 0.93271 0.0
H2279 H 0.23981 0.83707 0.94068 0.0
H2280 H 0.29089 0.84756 0.97158 0.0
H2281 H 0.24604 0.83537 0.99201 0.0
H2282 H 0.28123 0.87851 0.95339 0.0
H2283 H 0.27969 0.86215 0.93935 0.0
H2284 H 0.2951 0.86481 0.95284 0.0
H2285 H 0.22678 0.86306 0.97803 0.0
H2286 H 0.2237 0.84429 0.9843 0.0
H2287 H 0.2244 0.84686 0.96384 0.0
C2288 C 0.18735 0.16838 0.95096 0.0
C2289 C 0.19252 0.15986 0.93742 0.0
C2290 C 0.19779 0.17725 0.96092 0.0
C2291 C 0.21379 0.17759 0.95727 0.0
C2292 C 0.21911 0.16893 0.94371 0.0
C2293 C 0.20841 0.16017 0.93393 0.0
C2294 C 0.19168 0.18635 0.97529 0.0
C2295 C 0.23611 0.16896 0.93952 0.0
C2296 C 0.23913 0.21135 0.97609 0.0
C2297 C 0.24446 0.2053 0.98889 0.0
C2298 C 0.2294 0.20236 0.96548 0.0
C2299 C 0.22491 0.18698 0.96776 0.0
C2300 C 0.23053 0.18073 0.98047 0.0
C2301 C 0.2402 0.18998 0.9909 0.0
C2302 C 0.22364 0.2094 0.95204 0.0
C2303 C 0.22597 0.1644 0.98331 0.0
H2304 H 0.1751 0.16824 0.95375 0.0
H2305 H 0.21252 0.15363 0.9235 0.0
H2306 H 0.19645 0.18293 0.98589 0.0
H2307 H 0.19544 0.1986 0.97487 0.0
H2308 H 0.1789 0.18482 0.97647 0.0
H2309 H 0.23837 0.16154 0.9286 0.0
H2310 H 0.24122 0.18069 0.93804 0.0
H2311 H 0.24212 0.16506 0.94912 0.0
H2312 H 0.2425 0.22315 0.97443 0.0
H2313 H 0.24404 0.18531 0.00093 0.0
H2314 H 0.21092 0.20923 0.95316 0.0
H2315 H 0.22642 0.20268 0.94084 0.0
H2316 H 0.22872 0.22132 0.95154 0.0
H2317 H 0.21336 0.16262 0.98582 0.0
H2318 H 0.23199 0.16107 0.99324 0.0
H2319 H 0.22858 0.15671 0.97271 0.0
C2320 C 0.80559 0.23563 0.86238 0.0
C2321 C 0.80197 0.21981 0.86087 0.0
C2322 C 0.80343 0.24437 0.87676 0.0
C2323 C 0.79742 0.23711 0.88986 0.0
C2324 C 0.79345 0.2212 0.88831 0.0
C2325 C 0.79582 0.21275 0.87387 0.0
C2326 C 0.80789 0.2613 0.87803 0.0
C2327 C 0.78688 0.21305 0.90199 0.0
C2328 C 0.80512 0.25372 0.9314 0.0
C2329 C 0.79092 0.259 0.93633 0.0
C2330 C 0.80766 0.24727 0.91603 0.0
C2331 C 0.79566 0.24593 0.90538 0.0
C2332 C 0.78153 0.2518 0.91008 0.0
C2333 C 0.77935 0.25831 0.9255 0.0
C2334 C 0.82294 0.24122 0.91144 0.0
C2335 C 0.76846 0.25056 0.89905 0.0
H2336 H 0.81037 0.24116 0.85239 0.0
H2337 H 0.7929 0.20055 0.8728 0.0
H2338 H 0.79797 0.26744 0.88271 0.0
H2339 H 0.81729 0.26439 0.88635 0.0
H2340 H 0.81184 0.26529 0.86662 0.0
H2341 H 0.78388 0.2007 0.89869 0.0
H2342 H 0.79535 0.21449 0.91133 0.0
H2343 H 0.77637 0.21805 0.90696 0.0
H2344 H 0.81407 0.25402 0.93972 0.0
H2345 H 0.76844 0.26261 0.92915 0.0
H2346 H 0.82765 0.24542 0.90036 0.0
H2347 H 0.82126 0.22864 0.90943 0.0
H2348 H 0.83157 0.24453 0.92054 0.0
H2349 H 0.77257 0.25499 0.8879 0.0
H2350 H 0.75874 0.25686 0.90406 0.0
H2351 H 0.76409 0.23844 0.89628 0.0
C2352 C 0.81313 0.8517 0.93505 0.0
C2353 C 0.82876 0.85276 0.93025 0.0
C2354 C 0.80775 0.84377 0.94778 0.0
C2355 C 0.81823 0.83667 0.95583 0.0
C2356 C 0.83407 0.8381 0.95134 0.0
C2357 C 0.83915 0.84614 0.93865 0.0
C2358 C 0.79077 0.8426 0.9523 0.0
C2359 C 0.84562 0.83067 0.95959 0.0
C2360 C 0.80698 0.82348 0.9957 0.0
C2361 C 0.80274 0.80791 0.99179 0.0
C2362 C 0.81185 0.83305 0.98412 0.0
C2363 C 0.81253 0.82691 0.96827 0.0
C2364 C 0.80815 0.81124 0.96426 0.0
C2365 C 0.80327 0.80197 0.97604 0.0
C2366 C 0.8164 0.8497 0.98885 0.0
C2367 C 0.8087 0.80423 0.9475 0.0
H2368 H 0.80503 0.85683 0.92868 0.0
H2369 H 0.85125 0.84692 0.93508 0.0
H2370 H 0.78576 0.83061 0.95012 0.0
H2371 H 0.78906 0.84615 0.96494 0.0
H2372 H 0.78433 0.84969 0.94565 0.0
H2373 H 0.85764 0.8336 0.95528 0.0
H2374 H 0.84483 0.83414 0.97233 0.0
H2375 H 0.84297 0.81814 0.95784 0.0
H2376 H 0.80667 0.82814 0.00785 0.0
H2377 H 0.79966 0.79004 0.97286 0.0
H2378 H 0.80952 0.85671 0.98259 0.0
H2379 H 0.82869 0.85265 0.9855 0.0
H2380 H 0.81471 0.85281 0.0016 0.0
H2381 H 0.80135 0.80999 0.94041 0.0
H2382 H 0.80475 0.79189 0.94632 0.0
H2383 H 0.82065 0.80581 0.94252 0.0
C2384 C 0.13845 0.20812 0.26079 0.0
C2385 C 0.15076 0.2177 0.2551 0.0
C2386 C 0.12402 0.21343 0.2647 0.0
C2387 C 0.12188 0.22867 0.26293 0.0
C2388 C 0.13434 0.23846 0.25747 0.0
C2389 C 0.1486 0.23285 0.25361 0.0
C2390 C 0.11098 0.20266 0.27047 0.0
C2391 C 0.13255 0.25481 0.2555 0.0
C2392 C 0.08188 0.24 0.25779 0.0
C2393 C 0.07831 0.24705 0.27268 0.0
C2394 C 0.09587 0.23364 0.25455 0.0
C2395 C 0.10657 0.23441 0.26649 0.0
C2396 C 0.10292 0.24128 0.28162 0.0
C2397 C 0.08882 0.24751 0.28453 0.0
C2398 C 0.09932 0.22632 0.23829 0.0
C2399 C 0.11405 0.2424 0.29463 0.0
H2400 H 0.14 0.19639 0.26196 0.0
H2401 H 0.15805 0.24035 0.24927 0.0
H2402 H 0.10641 0.20739 0.282 0.0
H2403 H 0.10139 0.20133 0.26231 0.0
H2404 H 0.11462 0.19126 0.27157 0.0
H2405 H 0.14349 0.26104 0.25153 0.0
H2406 H 0.12369 0.25531 0.24685 0.0
H2407 H 0.12853 0.26077 0.2667 0.0
H2408 H 0.07371 0.23943 0.24864 0.0
H2409 H 0.0862 0.2531 0.29602 0.0
H2410 H 0.1021 0.21452 0.23874 0.0
H2411 H 0.10956 0.23265 0.23306 0.0
H2412 H 0.08951 0.22607 0.23052 0.0
H2413 H 0.11734 0.23098 0.29616 0.0
H2414 H 0.10916 0.24743 0.30591 0.0
H2415 H 0.12476 0.24951 0.29158 0.0
C2416 C 0.87315 0.11575 0.1603 0.0
C2417 C 0.87991 0.12798 0.17019 0.0
C2418 C 0.8633 0.1041 0.16636 0.0
C2419 C 0.86027 0.10468 0.18267 0.0
C2420 C 0.86698 0.11705 0.19267 0.0
C2421 C 0.87666 0.12855 0.18631 0.0
C2422 C 0.85622 0.09113 0.15535 0.0
C2423 C 0.8641 0.11805 0.21015 0.0
C2424 C 0.82581 0.08285 0.20124 0.0
C2425 C 0.83268 0.07105 0.20677 0.0
C2426 C 0.83449 0.09345 0.1926 0.0
C2427 C 0.85041 0.09225 0.18951 0.0
C2428 C 0.85723 0.07995 0.19442 0.0
C2429 C 0.84826 0.06947 0.20294 0.0
C2430 C 0.82679 0.10636 0.18747 0.0
C2431 C 0.87417 0.07828 0.19135 0.0
H2432 H 0.87557 0.11526 0.14782 0.0
H2433 H 0.88183 0.13795 0.19405 0.0
H2434 H 0.86011 0.08028 0.15803 0.0
H2435 H 0.84348 0.09012 0.15697 0.0
H2436 H 0.85932 0.09261 0.14294 0.0
H2437 H 0.87007 0.12851 0.21628 0.0
H2438 H 0.85157 0.11785 0.21304 0.0
H2439 H 0.86813 0.10806 0.21473 0.0
H2440 H 0.81381 0.0842 0.20424 0.0
H2441 H 0.85356 0.06019 0.20691 0.0
H2442 H 0.82973 0.10765 0.17501 0.0
H2443 H 0.83105 0.11715 0.19434 0.0
H2444 H 0.81405 0.10467 0.18912 0.0
H2445 H 0.87735 0.07893 0.17883 0.0
H2446 H 0.87738 0.06739 0.19472 0.0
H2447 H 0.88108 0.08776 0.19809 0.0
C2448 C 0.94912 0.83689 0.18956 0.0
C2449 C 0.93711 0.84316 0.19861 0.0
C2450 C 0.95891 0.82791 0.19597 0.0
C2451 C 0.95679 0.82534 0.21186 0.0
C2452 C 0.94486 0.83186 0.22112 0.0
C2453 C 0.93508 0.84059 0.21434 0.0
C2454 C 0.97137 0.82097 0.18568 0.0
C2455 C 0.94238 0.82957 0.23817 0.0
C2456 C 0.97142 0.79085 0.22606 0.0
C2457 C 0.98516 0.79715 0.23305 0.0
C2458 C 0.96228 0.79983 0.21882 0.0
C2459 C 0.96682 0.81556 0.21877 0.0
C2460 C 0.98073 0.82199 0.22566 0.0
C2461 C 0.98978 0.81269 0.23261 0.0
C2462 C 0.9476 0.79253 0.21145 0.0
C2463 C 0.9859 0.83875 0.22592 0.0
H2464 H 0.9507 0.83879 0.17737 0.0
H2465 H 0.92589 0.84549 0.22142 0.0
H2466 H 0.98281 0.8246 0.19065 0.0
H2467 H 0.96955 0.8084 0.18519 0.0
H2468 H 0.9716 0.82418 0.1736 0.0
H2469 H 0.93293 0.83585 0.24388 0.0
H2470 H 0.93957 0.81732 0.23945 0.0
H2471 H 0.95312 0.83341 0.24445 0.0
H2472 H 0.96759 0.77893 0.22656 0.0
H2473 H 0.00049 0.81763 0.23775 0.0
H2474 H 0.94754 0.79499 0.19914 0.0
H2475 H 0.93752 0.79738 0.21767 0.0
H2476 H 0.94612 0.78002 0.21175 0.0
H2477 H 0.98705 0.84202 0.21386 0.0
H2478 H 0.99709 0.84195 0.23161 0.0
H2479 H 0.9771 0.84544 0.23229 0.0
C2480 C 0.18611 0.93249 0.17634 0.0
C2481 C 0.17917 0.91824 0.17977 0.0
C2482 C 0.19499 0.94198 0.18738 0.0
C2483 C 0.19683 0.93711 0.20218 0.0
C2484 C 0.1899 0.92273 0.20567 0.0
C2485 C 0.18122 0.91347 0.19443 0.0
C2486 C 0.20234 0.95721 0.18325 0.0
C2487 C 0.19151 0.91717 0.22137 0.0
C2488 C 0.22947 0.95398 0.22817 0.0
C2489 C 0.22189 0.96369 0.2392 0.0
C2490 C 0.2216 0.94569 0.21568 0.0
C2491 C 0.20575 0.94707 0.21426 0.0
C2492 C 0.19812 0.95711 0.22513 0.0
C2493 C 0.2063 0.96534 0.23744 0.0
C2494 C 0.23011 0.93509 0.20429 0.0
C2495 C 0.18121 0.95884 0.22402 0.0
H2496 H 0.18463 0.93623 0.16503 0.0
H2497 H 0.17588 0.9025 0.19723 0.0
H2498 H 0.19785 0.96642 0.19136 0.0
H2499 H 0.21498 0.95805 0.18461 0.0
H2500 H 0.20012 0.95916 0.17111 0.0
H2501 H 0.18549 0.90563 0.22217 0.0
H2502 H 0.20386 0.91692 0.22365 0.0
H2503 H 0.18671 0.92511 0.23074 0.0
H2504 H 0.24149 0.95256 0.22952 0.0
H2505 H 0.20045 0.97305 0.24574 0.0
H2506 H 0.22837 0.9373 0.19214 0.0
H2507 H 0.22545 0.92316 0.20544 0.0
H2508 H 0.24268 0.93627 0.20626 0.0
H2509 H 0.17887 0.96176 0.21227 0.0
H2510 H 0.17721 0.96775 0.2329 0.0
H2511 H 0.17429 0.94791 0.22569 0.0
C2512 C 0.14933 0.89266 0.84909 0.0
C2513 C 0.15186 0.89431 0.86514 0.0
C2514 C 0.13582 0.88467 0.8431 0.0
C2515 C 0.12457 0.87813 0.8534 0.0
C2516 C 0.12713 0.87954 0.86959 0.0
C2517 C 0.14076 0.88765 0.87528 0.0
C2518 C 0.13351 0.88342 0.82575 0.0
C2519 C 0.11539 0.87265 0.88089 0.0
C2520 C 0.08406 0.87096 0.83844 0.0
C2521 C 0.08327 0.85553 0.83274 0.0
C2522 C 0.09728 0.87836 0.8456 0.0
C2523 C 0.11 0.87011 0.84714 0.0
C2524 C 0.10913 0.85444 0.84181 0.0
C2525 C 0.09578 0.84734 0.83465 0.0
C2526 C 0.09777 0.89509 0.85115 0.0
C2527 C 0.12248 0.84528 0.84324 0.0
H2528 H 0.15784 0.89774 0.84115 0.0
H2529 H 0.14265 0.88885 0.8877 0.0
H2530 H 0.13159 0.87131 0.82099 0.0
H2531 H 0.12309 0.88884 0.8235 0.0
H2532 H 0.14352 0.88891 0.81929 0.0
H2533 H 0.11932 0.87438 0.89307 0.0
H2534 H 0.10439 0.87775 0.88056 0.0
H2535 H 0.11295 0.86028 0.87743 0.0
H2536 H 0.07433 0.87728 0.83723 0.0
H2537 H 0.09531 0.83545 0.83013 0.0
H2538 H 0.10689 0.90153 0.84443 0.0
H2539 H 0.10074 0.89715 0.86361 0.0
H2540 H 0.08663 0.89966 0.84981 0.0
H2541 H 0.13245 0.84953 0.83591 0.0
H2542 H 0.11955 0.833 0.83954 0.0
H2543 H 0.12617 0.84663 0.85547 0.0
C2544 C 0.19912 0.1022 0.84924 0.0
C2545 C 0.19781 0.1006 0.86523 0.0
C2546 C 0.20938 0.09416 0.83934 0.0
C2547 C 0.21881 0.08457 0.84567 0.0
C2548 C 0.21744 0.08281 0.86179 0.0
C2549 C 0.20683 0.09073 0.87136 0.0
C2550 C 0.21027 0.09608 0.82214 0.0
C2551 C 0.2275 0.07292 0.86902 0.0
C2552 C 0.23776 0.05506 0.81811 0.0
C2553 C 0.25237 0.06269 0.81519 0.0
C2554 C 0.22673 0.06201 0.82803 0.0
C2555 C 0.23048 0.07683 0.83549 0.0
C2556 C 0.24531 0.08444 0.83296 0.0
C2557 C 0.256 0.07737 0.82272 0.0
C2558 C 0.21096 0.05361 0.83029 0.0
C2559 C 0.24984 0.10017 0.84089 0.0
H2560 H 0.19209 0.10974 0.84444 0.0
H2561 H 0.20593 0.08952 0.88374 0.0
H2562 H 0.22187 0.1014 0.81884 0.0
H2563 H 0.20857 0.08483 0.81517 0.0
H2564 H 0.20153 0.10325 0.81893 0.0
H2565 H 0.22475 0.07247 0.88167 0.0
H2566 H 0.22616 0.06119 0.86305 0.0
H2567 H 0.23979 0.07735 0.86747 0.0
H2568 H 0.2349 0.04363 0.81261 0.0
H2569 H 0.2671 0.08352 0.82037 0.0
H2570 H 0.20204 0.06021 0.82645 0.0
H2571 H 0.20848 0.05237 0.84284 0.0
H2572 H 0.20987 0.04213 0.82367 0.0
H2573 H 0.24255 0.10835 0.8369 0.0
H2574 H 0.26212 0.10415 0.83842 0.0
H2575 H 0.24785 0.10034 0.8537 0.0
C2576 C 0.87062 0.22481 0.79701 0.0
C2577 C 0.86414 0.2111 0.80226 0.0
C2578 C 0.88663 0.22866 0.79656 0.0
C2579 C 0.89639 0.2185 0.80139 0.0
C2580 C 0.88995 0.20444 0.80626 0.0
C2581 C 0.87389 0.20093 0.80669 0.0
C2582 C 0.89308 0.24379 0.79137 0.0
C2583 C 0.9 0.19326 0.81136 0.0
C2584 C 0.93899 0.22358 0.78969 0.0
C2585 C 0.94533 0.23122 0.80338 0.0
C2586 C 0.92309 0.21932 0.78887 0.0
C2587 C 0.91328 0.22287 0.80202 0.0
C2588 C 0.91958 0.23062 0.81584 0.0
C2589 C 0.93553 0.23465 0.81637 0.0
C2590 C 0.91677 0.21104 0.77394 0.0
C2591 C 0.90948 0.23465 0.8301 0.0
H2592 H 0.86317 0.23274 0.79358 0.0
H2593 H 0.86897 0.19029 0.81071 0.0
H2594 H 0.89891 0.25089 0.80118 0.0
H2595 H 0.90186 0.24213 0.78177 0.0
H2596 H 0.884 0.2501 0.78731 0.0
H2597 H 0.89327 0.18248 0.81399 0.0
H2598 H 0.90891 0.19062 0.80212 0.0
H2599 H 0.90612 0.19835 0.82195 0.0
H2600 H 0.94646 0.22108 0.77953 0.0
H2601 H 0.94036 0.24033 0.82707 0.0
H2602 H 0.90838 0.21773 0.76928 0.0
H2603 H 0.9105 0.19997 0.77628 0.0
H2604 H 0.92597 0.20895 0.76484 0.0
H2605 H 0.90061 0.24178 0.82712 0.0
H2606 H 0.91617 0.24089 0.83985 0.0
H2607 H 0.90333 0.22417 0.83417 0.0
C2608 C 0.80575 0.91894 0.86001 0.0
C2609 C 0.81941 0.92574 0.86678 0.0
C2610 C 0.79731 0.92691 0.85083 0.0
C2611 C 0.80271 0.94203 0.84824 0.0
C2612 C 0.81645 0.94899 0.85509 0.0
C2613 C 0.82461 0.94078 0.86432 0.0
C2614 C 0.78264 0.91912 0.84382 0.0
C2615 C 0.82264 0.96505 0.85251 0.0
C2616 C 0.78829 0.95618 0.81224 0.0
C2617 C 0.7763 0.96456 0.81857 0.0
C2618 C 0.79724 0.94915 0.8218 0.0
C2619 C 0.79408 0.9504 0.83812 0.0
C2620 C 0.78226 0.95913 0.84465 0.0
C2621 C 0.77355 0.96614 0.83481 0.0
C2622 C 0.80979 0.94 0.81439 0.0
C2623 C 0.77854 0.96074 0.86199 0.0
H2624 H 0.80162 0.90734 0.86188 0.0
H2625 H 0.83518 0.94612 0.86947 0.0
H2626 H 0.77286 0.92584 0.84757 0.0
H2627 H 0.78375 0.91843 0.83091 0.0
H2628 H 0.77982 0.90745 0.84725 0.0
H2629 H 0.83335 0.96891 0.85885 0.0
H2630 H 0.8251 0.96584 0.83987 0.0
H2631 H 0.81387 0.97294 0.8564 0.0
H2632 H 0.79036 0.95467 0.7997 0.0
H2633 H 0.76447 0.97276 0.83984 0.0
H2634 H 0.80689 0.92785 0.81614 0.0
H2635 H 0.82087 0.94384 0.82005 0.0
H2636 H 0.81143 0.94092 0.80167 0.0
H2637 H 0.77461 0.94943 0.86582 0.0
H2638 H 0.76941 0.96841 0.86529 0.0
H2639 H 0.78901 0.96522 0.86845 0.0
C2640 C 0.21531 0.1384 0.26299 0.0
C2641 C 0.20133 0.13367 0.25573 0.0
C2642 C 0.22304 0.1282 0.27022 0.0
C2643 C 0.2165 0.11298 0.27045 0.0
C2644 C 0.20226 0.1082 0.26337 0.0
C2645 C 0.19491 0.11857 0.25597 0.0
C2646 C 0.23835 0.13363 0.27737 0.0
C2647 C 0.1948 0.09211 0.26358 0.0
C2648 C 0.24211 0.08211 0.27536 0.0
C2649 C 0.23969 0.08024 0.29127 0.0
C2650 C 0.23488 0.09291 0.26853 0.0
C2651 C 0.22473 0.10193 0.27774 0.0
C2652 C 0.22225 0.10018 0.29381 0.0
C2653 C 0.22984 0.08943 0.3004 0.0
C2654 C 0.23789 0.09447 0.25137 0.0
C2655 C 0.21134 0.10944 0.30396 0.0
H2656 H 0.22038 0.15003 0.26276 0.0
H2657 H 0.18407 0.11487 0.25046 0.0
H2658 H 0.23782 0.13182 0.2899 0.0
H2659 H 0.24743 0.12693 0.27157 0.0
H2660 H 0.24182 0.14586 0.27632 0.0
H2661 H 0.18345 0.09035 0.25803 0.0
H2662 H 0.20242 0.08404 0.25734 0.0
H2663 H 0.19315 0.08925 0.27577 0.0
H2664 H 0.24935 0.07481 0.26808 0.0
H2665 H 0.22795 0.08812 0.3127 0.0
H2666 H 0.24184 0.10645 0.24965 0.0
H2667 H 0.22707 0.09134 0.24504 0.0
H2668 H 0.2467 0.08715 0.24603 0.0
H2669 H 0.21501 0.12173 0.30376 0.0
H2670 H 0.21074 0.10677 0.31626 0.0
H2671 H 0.1996 0.10725 0.29931 0.0
C2672 C 0.24778 0.94485 0.87067 0.0
C2673 C 0.23172 0.94504 0.87097 0.0
C2674 C 0.25738 0.95329 0.86051 0.0
C2675 C 0.25073 0.96201 0.85037 0.0
C2676 C 0.23458 0.9625 0.85088 0.0
C2677 C 0.22529 0.95408 0.8612 0.0
C2678 C 0.27458 0.95266 0.86041 0.0
C2679 C 0.22704 0.97161 0.8402 0.0
C2680 C 0.27355 0.99383 0.83078 0.0
C2681 C 0.27589 0.98682 0.81557 0.0
C2682 C 0.26599 0.9857 0.84245 0.0
C2683 C 0.26049 0.97024 0.83878 0.0
C2684 C 0.26323 0.96298 0.82361 0.0
C2685 C 0.27096 0.97134 0.81221 0.0
C2686 C 0.26336 0.99382 0.85852 0.0
C2687 C 0.25749 0.94652 0.81924 0.0
H2688 H 0.25284 0.93793 0.8782 0.0
H2689 H 0.21291 0.95432 0.86132 0.0
H2690 H 0.27864 0.94734 0.84892 0.0
H2691 H 0.28058 0.96432 0.8621 0.0
H2692 H 0.27801 0.94608 0.86964 0.0
H2693 H 0.21435 0.9711 0.84233 0.0
H2694 H 0.23192 0.98368 0.84178 0.0
H2695 H 0.22943 0.96727 0.82785 0.0
H2696 H 0.27716 0.00582 0.83345 0.0
H2697 H 0.27298 0.96577 0.80058 0.0
H2698 H 0.26699 0.98715 0.86756 0.0
H2699 H 0.25089 0.99493 0.8607 0.0
H2700 H 0.26972 0.00535 0.85993 0.0
H2701 H 0.26157 0.9393 0.82754 0.0
H2702 H 0.26137 0.94231 0.80723 0.0
H2703 H 0.24471 0.9451 0.81999 0.0
C2704 C 0.11087 0.1631 0.88229 0.0
C2705 C 0.11836 0.17086 0.89528 0.0
C2706 C 0.10132 0.17046 0.87362 0.0
C2707 C 0.09927 0.18593 0.87805 0.0
C2708 C 0.10659 0.19374 0.8913 0.0
C2709 C 0.11603 0.18611 0.89976 0.0
C2710 C 0.09363 0.16176 0.85958 0.0
C2711 C 0.10468 0.21024 0.89639 0.0
C2712 C 0.08805 0.21005 0.8477 0.0
C2713 C 0.07233 0.21084 0.8514 0.0
C2714 C 0.09691 0.2018 0.85616 0.0
C2715 C 0.08984 0.19414 0.86859 0.0
C2716 C 0.07394 0.19477 0.87228 0.0
C2717 C 0.06537 0.20314 0.86366 0.0
C2718 C 0.11387 0.20149 0.85194 0.0
C2719 C 0.06601 0.1867 0.88542 0.0
H2720 H 0.11259 0.15131 0.87877 0.0
H2721 H 0.12174 0.1922 0.9098 0.0
H2722 H 0.08099 0.16233 0.8607 0.0
H2723 H 0.09783 0.16702 0.84889 0.0
H2724 H 0.09591 0.14964 0.85804 0.0
H2725 H 0.11083 0.21455 0.90721 0.0
H2726 H 0.10916 0.21728 0.88701 0.0
H2727 H 0.09229 0.21181 0.89845 0.0
H2728 H 0.09352 0.21613 0.83836 0.0
H2729 H 0.05317 0.20356 0.86641 0.0
H2730 H 0.11664 0.18958 0.84933 0.0
H2731 H 0.12077 0.20668 0.86198 0.0
H2732 H 0.11749 0.2077 0.84168 0.0
H2733 H 0.06757 0.17443 0.88352 0.0
H2734 H 0.05347 0.18797 0.88652 0.0
H2735 H 0.0713 0.19128 0.89663 0.0
C2736 C 0.76991 0.12713 0.8145 0.0
C2737 C 0.78498 0.13378 0.81186 0.0
C2738 C 0.76583 0.11163 0.81016 0.0
C2739 C 0.77709 0.10252 0.80305 0.0
C2740 C 0.79229 0.10917 0.8002 0.0
C2741 C 0.79605 0.12474 0.8046 0.0
C2742 C 0.74946 0.10497 0.81328 0.0
C2743 C 0.8046 0.0998 0.79263 0.0
C2744 C 0.76931 0.06002 0.80536 0.0
C2745 C 0.76361 0.05494 0.7906 0.0
C2746 C 0.77405 0.07546 0.80947 0.0
C2747 C 0.77291 0.08604 0.79859 0.0
C2748 C 0.76723 0.08095 0.78364 0.0
C2749 C 0.76268 0.06546 0.77982 0.0
C2750 C 0.7801 0.08047 0.82551 0.0
C2751 C 0.76566 0.0919 0.77178 0.0
H2752 H 0.76127 0.13402 0.82006 0.0
H2753 H 0.80773 0.12978 0.80255 0.0
H2754 H 0.74436 0.09966 0.80221 0.0
H2755 H 0.74936 0.09591 0.82113 0.0
H2756 H 0.74203 0.11364 0.81872 0.0
H2757 H 0.81585 0.10669 0.79116 0.0
H2758 H 0.80621 0.09054 0.79981 0.0
H2759 H 0.80097 0.09437 0.78101 0.0
H2760 H 0.77009 0.05189 0.81368 0.0
H2761 H 0.758 0.06161 0.76848 0.0
H2762 H 0.7725 0.08841 0.83203 0.0
H2763 H 0.79174 0.08671 0.82452 0.0
H2764 H 0.78077 0.07076 0.83239 0.0
H2765 H 0.75751 0.10019 0.77642 0.0
H2766 H 0.76143 0.08604 0.76052 0.0
H2767 H 0.77694 0.09845 0.76955 0.0
C2768 C 0.89359 0.87887 0.86203 0.0
C2769 C 0.87851 0.8746 0.85722 0.0
C2770 C 0.90624 0.87336 0.8534 0.0
C2771 C 0.90377 0.86368 0.83939 0.0
C2772 C 0.88862 0.85995 0.83406 0.0
C2773 C 0.87614 0.86527 0.84317 0.0
C2774 C 0.92218 0.87735 0.85966 0.0
C2775 C 0.88557 0.85004 0.81894 0.0
C2776 C 0.93954 0.85835 0.81323 0.0
C2777 C 0.94356 0.84438 0.81704 0.0
C2778 C 0.92625 0.86448 0.81989 0.0
C2779 C 0.91696 0.85667 0.83094 0.0
C2780 C 0.92073 0.84244 0.83459 0.0
C2781 C 0.93381 0.83638 0.82742 0.0
C2782 C 0.92239 0.8795 0.8154 0.0
C2783 C 0.91124 0.83383 0.84648 0.0
H2784 H 0.89548 0.88599 0.87294 0.0
H2785 H 0.8645 0.86205 0.83934 0.0
H2786 H 0.92691 0.86686 0.86226 0.0
H2787 H 0.93006 0.88248 0.85078 0.0
H2788 H 0.9222 0.88539 0.87047 0.0
H2789 H 0.87338 0.84952 0.81563 0.0
H2790 H 0.89315 0.85436 0.80936 0.0
H2791 H 0.88829 0.83833 0.82005 0.0
H2792 H 0.94701 0.86477 0.80538 0.0
H2793 H 0.9365 0.8254 0.83016 0.0
H2794 H 0.92399 0.88834 0.82547 0.0
H2795 H 0.91013 0.87869 0.8123 0.0
H2796 H 0.92974 0.88327 0.8054 0.0
H2797 H 0.91127 0.84082 0.85796 0.0
H2798 H 0.91565 0.82285 0.84791 0.0
H2799 H 0.89909 0.83155 0.84299 0.0
C2800 C 0.87088 0.92357 0.19807 0.0
C2801 C 0.87718 0.91144 0.20361 0.0
C2802 C 0.86105 0.93239 0.20765 0.0
C2803 C 0.85761 0.92916 0.22321 0.0
C2804 C 0.86436 0.91729 0.22905 0.0
C2805 C 0.87399 0.90849 0.21914 0.0
C2806 C 0.85399 0.9449 0.20095 0.0
C2807 C 0.86118 0.91371 0.24566 0.0
C2808 C 0.84107 0.96108 0.24933 0.0
C2809 C 0.82518 0.95662 0.2487 0.0
C2810 C 0.85183 0.95188 0.24173 0.0
C2811 C 0.84657 0.93799 0.23313 0.0
C2812 C 0.83059 0.93311 0.233 0.0
C2813 C 0.8201 0.94245 0.24086 0.0
C2814 C 0.86876 0.95744 0.24223 0.0
C2815 C 0.82453 0.91839 0.22389 0.0
H2816 H 0.87323 0.92589 0.18608 0.0
H2817 H 0.87888 0.89918 0.22352 0.0
H2818 H 0.84125 0.94245 0.20114 0.0
H2819 H 0.85669 0.95586 0.2082 0.0
H2820 H 0.85816 0.94624 0.18876 0.0
H2821 H 0.86804 0.90471 0.24868 0.0
H2822 H 0.86384 0.92408 0.25386 0.0
H2823 H 0.84878 0.9099 0.24747 0.0
H2824 H 0.84512 0.97213 0.25509 0.0
H2825 H 0.80785 0.93889 0.24044 0.0
H2826 H 0.87303 0.96051 0.23056 0.0
H2827 H 0.87548 0.94833 0.24517 0.0
H2828 H 0.87107 0.96756 0.25086 0.0
H2829 H 0.82699 0.91912 0.21124 0.0
H2830 H 0.81191 0.91573 0.22584 0.0
H2831 H 0.83044 0.90884 0.22715 0.0
C2832 C 0.09916 0.85926 0.19436 0.0
C2833 C 0.10968 0.85419 0.18263 0.0
C2834 C 0.09019 0.849 0.20315 0.0
C2835 C 0.09179 0.8333 0.20014 0.0
C2836 C 0.10191 0.82803 0.18788 0.0
C2837 C 0.11072 0.83855 0.17924 0.0
C2838 C 0.07942 0.85504 0.21604 0.0
C2839 C 0.10387 0.81135 0.1843 0.0
C2840 C 0.08254 0.80918 0.23362 0.0
C2841 C 0.0679 0.80204 0.22992 0.0
C2842 C 0.09046 0.81935 0.22398 0.0
C2843 C 0.08352 0.82248 0.21036 0.0
C2844 C 0.06871 0.81536 0.20661 0.0
C2845 C 0.06107 0.8052 0.21644 0.0
C2846 C 0.10627 0.82671 0.22833 0.0
C2847 C 0.06091 0.8185 0.19225 0.0
H2848 H 0.09822 0.87132 0.197 0.0
H2849 H 0.1188 0.83453 0.17018 0.0
H2850 H 0.06768 0.84902 0.21477 0.0
H2851 H 0.08348 0.8529 0.22749 0.0
H2852 H 0.07869 0.86742 0.21615 0.0
H2853 H 0.11144 0.80901 0.17376 0.0
H2854 H 0.10897 0.80723 0.19436 0.0
H2855 H 0.09251 0.80468 0.18249 0.0
H2856 H 0.08791 0.80664 0.24395 0.0
H2857 H 0.04966 0.79986 0.21366 0.0
H2858 H 0.1063 0.83924 0.22983 0.0
H2859 H 0.11483 0.82385 0.21882 0.0
H2860 H 0.11005 0.82303 0.23929 0.0
H2861 H 0.05953 0.83079 0.19279 0.0
H2862 H 0.04938 0.81199 0.19097 0.0
H2863 H 0.06817 0.81555 0.18167 0.0
C2864 C 0.93482 0.20034 0.1817 0.0
C2865 C 0.92133 0.20214 0.17425 0.0
C2866 C 0.94066 0.21125 0.1935 0.0
C2867 C 0.93297 0.2244 0.19775 0.0
C2868 C 0.91974 0.22661 0.18983 0.0
C2869 C 0.91398 0.21537 0.17826 0.0
C2870 C 0.95475 0.20843 0.20179 0.0
C2871 C 0.91147 0.24067 0.1938 0.0
C2872 C 0.93936 0.24285 0.23897 0.0
C2873 C 0.95169 0.25392 0.23661 0.0
C2874 C 0.93279 0.2335 0.22635 0.0
C2875 C 0.93849 0.23545 0.21099 0.0
C2876 C 0.95026 0.2472 0.20845 0.0
C2877 C 0.95683 0.2562 0.22129 0.0
C2878 C 0.92029 0.22102 0.22954 0.0
C2879 C 0.95647 0.24979 0.19222 0.0
H2880 H 0.94052 0.19012 0.17871 0.0
H2881 H 0.9036 0.21687 0.17246 0.0
H2882 H 0.96384 0.21805 0.20108 0.0
H2883 H 0.95174 0.20765 0.21435 0.0
H2884 H 0.95957 0.1978 0.19684 0.0
H2885 H 0.90208 0.24121 0.18572 0.0
H2886 H 0.90644 0.24087 0.20586 0.0
H2887 H 0.91973 0.251 0.19338 0.0
H2888 H 0.93515 0.24118 0.25074 0.0
H2889 H 0.9665 0.26454 0.21931 0.0
H2890 H 0.92457 0.2098 0.22599 0.0
H2891 H 0.91012 0.22168 0.22255 0.0
H2892 H 0.91654 0.22156 0.24206 0.0
H2893 H 0.9632 0.24032 0.18746 0.0
H2894 H 0.96408 0.26061 0.19208 0.0
H2895 H 0.94689 0.24997 0.18429 0.0
C2896 C 0.1889 0.68003 0.65181 0.0
C2897 C 0.17293 0.67986 0.65044 0.0
C2898 C 0.19929 0.68483 0.63995 0.0
C2899 C 0.19356 0.68943 0.62635 0.0
C2900 C 0.17745 0.68859 0.62459 0.0
C2901 C 0.16735 0.68389 0.63667 0.0
C2902 C 0.21638 0.68562 0.64227 0.0
C2903 C 0.17088 0.69321 0.61018 0.0
C2904 C 0.21726 0.71838 0.6035 0.0
C2905 C 0.22262 0.7092 0.59054 0.0
C2906 C 0.20822 0.71201 0.61548 0.0
C2907 C 0.20431 0.69609 0.6144 0.0
C2908 C 0.20999 0.68673 0.60151 0.0
C2909 C 0.21915 0.6934 0.58976 0.0
C2910 C 0.20253 0.72238 0.62911 0.0
C2911 C 0.20597 0.66973 0.59988 0.0
H2912 H 0.19332 0.67696 0.66241 0.0
H2913 H 0.15504 0.68368 0.63544 0.0
H2914 H 0.2222 0.67967 0.63202 0.0
H2915 H 0.2214 0.69766 0.64333 0.0
H2916 H 0.21897 0.68053 0.6529 0.0
H2917 H 0.15814 0.6908 0.61009 0.0
H2918 H 0.17391 0.70556 0.60956 0.0
H2919 H 0.17594 0.68716 0.59954 0.0
H2920 H 0.22008 0.73058 0.60422 0.0
H2921 H 0.22315 0.68629 0.57967 0.0
H2922 H 0.20567 0.71861 0.64025 0.0
H2923 H 0.18978 0.72182 0.62921 0.0
H2924 H 0.20735 0.73439 0.62865 0.0
H2925 H 0.20882 0.66496 0.61059 0.0
H2926 H 0.21213 0.66396 0.58971 0.0
H2927 H 0.19339 0.66706 0.59844 0.0
C2928 C 0.81738 0.75519 0.64946 0.0
C2929 C 0.82447 0.74174 0.6491 0.0
C2930 C 0.81281 0.76016 0.63569 0.0
C2931 C 0.81527 0.7514 0.62124 0.0
C2932 C 0.8223 0.73774 0.62081 0.0
C2933 C 0.82688 0.73312 0.63474 0.0
C2934 C 0.80549 0.77486 0.63657 0.0
C2935 C 0.825 0.72802 0.60563 0.0
C2936 C 0.7921 0.75592 0.58627 0.0
C2937 C 0.80293 0.76434 0.57725 0.0
C2938 C 0.79583 0.7519 0.60079 0.0
C2939 C 0.8107 0.75655 0.60649 0.0
C2940 C 0.82148 0.76555 0.59773 0.0
C2941 C 0.8175 0.76926 0.58319 0.0
C2942 C 0.78404 0.74226 0.60978 0.0
C2943 C 0.83743 0.77081 0.60346 0.0
H2944 H 0.81552 0.76194 0.66051 0.0
H2945 H 0.8323 0.72268 0.63437 0.0
H2946 H 0.81255 0.78294 0.62954 0.0
H2947 H 0.79392 0.77277 0.63154 0.0
H2948 H 0.80428 0.78029 0.64873 0.0
H2949 H 0.83032 0.71757 0.60734 0.0
H2950 H 0.81393 0.72467 0.5998 0.0
H2951 H 0.83266 0.73461 0.59762 0.0
H2952 H 0.78075 0.75225 0.58187 0.0
H2953 H 0.82604 0.77555 0.57621 0.0
H2954 H 0.78222 0.74784 0.62178 0.0
H2955 H 0.78834 0.73115 0.61084 0.0
H2956 H 0.77277 0.74017 0.60408 0.0
H2957 H 0.83669 0.77665 0.61548 0.0
H2958 H 0.84403 0.77866 0.59584 0.0
H2959 H 0.84395 0.76085 0.60391 0.0
C2960 C 0.85785 0.31085 0.65622 0.0
C2961 C 0.85935 0.32678 0.65745 0.0
C2962 C 0.84848 0.30222 0.645 0.0
C2963 C 0.8404 0.30971 0.63484 0.0
C2964 C 0.8421 0.32576 0.63584 0.0
C2965 C 0.85156 0.33408 0.64709 0.0
C2966 C 0.84703 0.28511 0.64416 0.0
C2967 C 0.83366 0.33418 0.62523 0.0
C2968 C 0.82484 0.28956 0.59687 0.0
C2969 C 0.80912 0.28658 0.60084 0.0
C2970 C 0.83527 0.29662 0.60796 0.0
C2971 C 0.82982 0.30089 0.62336 0.0
C2972 C 0.81403 0.29763 0.62754 0.0
C2973 C 0.80388 0.29048 0.61624 0.0
C2974 C 0.85202 0.2999 0.60306 0.0
C2975 C 0.80778 0.30203 0.64386 0.0
H2976 H 0.86383 0.30511 0.66416 0.0
H2977 H 0.85264 0.34637 0.6479 0.0
H2978 H 0.83491 0.28077 0.64684 0.0
H2979 H 0.85006 0.28016 0.63217 0.0
H2980 H 0.85455 0.281 0.65245 0.0
H2981 H 0.8365 0.34668 0.62728 0.0
H2982 H 0.83657 0.33041 0.61285 0.0
H2983 H 0.82104 0.33155 0.62707 0.0
H2984 H 0.82897 0.28675 0.58495 0.0
H2985 H 0.7918 0.28798 0.61947 0.0
H2986 H 0.85948 0.29546 0.61115 0.0
H2987 H 0.85512 0.31235 0.60367 0.0
H2988 H 0.85462 0.29481 0.591 0.0
H2989 H 0.81432 0.29725 0.65251 0.0
H2990 H 0.79537 0.29804 0.64542 0.0
H2991 H 0.80927 0.31457 0.64649 0.0
C2992 C 0.1751 0.3805 0.61434 0.0
C2993 C 0.17949 0.39484 0.62213 0.0
C2994 C 0.18621 0.37126 0.60755 0.0
C2995 C 0.20206 0.37631 0.60907 0.0
C2996 C 0.20653 0.39044 0.61768 0.0
C2997 C 0.19517 0.39968 0.62388 0.0
C2998 C 0.18098 0.35645 0.5981 0.0
C2999 C 0.22329 0.39602 0.6199 0.0
C3000 C 0.22942 0.34613 0.59762 0.0
C3001 C 0.23379 0.34899 0.5823 0.0
C3002 C 0.21962 0.35537 0.60681 0.0
C3003 C 0.21384 0.36748 0.60035 0.0
C3004 C 0.2186 0.37063 0.58503 0.0
C3005 C 0.22854 0.36138 0.57623 0.0
C3006 C 0.21511 0.35194 0.62325 0.0
C3007 C 0.21259 0.38331 0.57762 0.0
H3008 H 0.16296 0.37679 0.61295 0.0
H3009 H 0.19856 0.41071 0.63007 0.0
H3010 H 0.18487 0.35699 0.58571 0.0
H3011 H 0.18625 0.34695 0.60231 0.0
H3012 H 0.16825 0.35385 0.59864 0.0
H3013 H 0.22479 0.40631 0.62844 0.0
H3014 H 0.22945 0.387 0.62395 0.0
H3015 H 0.22885 0.3988 0.60859 0.0
H3016 H 0.23349 0.33655 0.60232 0.0
H3017 H 0.23164 0.36344 0.56428 0.0
H3018 H 0.20271 0.3477 0.62398 0.0
H3019 H 0.21679 0.36243 0.63147 0.0
H3020 H 0.22189 0.34325 0.6271 0.0
H3021 H 0.20006 0.38058 0.57583 0.0
H3022 H 0.2185 0.38514 0.56619 0.0
H3023 H 0.21407 0.39412 0.58538 0.0
C3024 C 0.16644 0.36217 0.40973 0.0
C3025 C 0.15686 0.37246 0.41755 0.0
C3026 C 0.17608 0.35455 0.41799 0.0
C3027 C 0.17588 0.35705 0.43448 0.0
C3028 C 0.16595 0.36716 0.44246 0.0
C3029 C 0.15668 0.37487 0.43388 0.0
C3030 C 0.18674 0.3441 0.40907 0.0
C3031 C 0.16519 0.36988 0.46006 0.0
C3032 C 0.19133 0.32787 0.4568 0.0
C3033 C 0.20578 0.33519 0.46113 0.0
C3034 C 0.18147 0.33485 0.44816 0.0
C3035 C 0.18629 0.34936 0.4434 0.0
C3036 C 0.20099 0.35666 0.44735 0.0
C3037 C 0.21047 0.34957 0.4563 0.0
C3038 C 0.16579 0.3268 0.44432 0.0
C3039 C 0.20663 0.37205 0.44228 0.0
H3040 H 0.16671 0.36035 0.39709 0.0
H3041 H 0.14922 0.38276 0.43998 0.0
H3042 H 0.19889 0.34826 0.41162 0.0
H3043 H 0.18451 0.33254 0.41285 0.0
H3044 H 0.1854 0.34328 0.39626 0.0
H3045 H 0.15635 0.37755 0.46449 0.0
H3046 H 0.1625 0.35893 0.4651 0.0
H3047 H 0.17655 0.37499 0.46434 0.0
H3048 H 0.18768 0.31665 0.4602 0.0
H3049 H 0.22146 0.35548 0.45978 0.0
H3050 H 0.16459 0.32503 0.43149 0.0
H3051 H 0.15667 0.33393 0.44923 0.0
H3052 H 0.16373 0.3156 0.44899 0.0
H3053 H 0.206 0.37177 0.42944 0.0
H3054 H 0.21868 0.37582 0.44559 0.0
H3055 H 0.19911 0.38064 0.44768 0.0
C3056 C 0.25462 0.72981 0.37288 0.0
C3057 C 0.24527 0.72002 0.36262 0.0
C3058 C 0.2514 0.73098 0.38902 0.0
C3059 C 0.2388 0.72175 0.39508 0.0
C3060 C 0.22906 0.7121 0.38471 0.0
C3061 C 0.23232 0.71149 0.36854 0.0
C3062 C 0.26184 0.74171 0.39961 0.0
C3063 C 0.21576 0.70181 0.39072 0.0
C3064 C 0.24531 0.71353 0.43623 0.0
C3065 C 0.23654 0.72387 0.44527 0.0
C3066 C 0.24531 0.71203 0.41988 0.0
C3067 C 0.23671 0.72142 0.41227 0.0
C3068 C 0.22735 0.73145 0.42122 0.0
C3069 C 0.2272 0.73238 0.43759 0.0
C3070 C 0.25518 0.70092 0.41076 0.0
C3071 C 0.21817 0.7418 0.41355 0.0
H3072 H 0.2646 0.73646 0.36827 0.0
H3073 H 0.22522 0.70374 0.3606 0.0
H3074 H 0.25491 0.74894 0.40792 0.0
H3075 H 0.26847 0.73511 0.40659 0.0
H3076 H 0.27013 0.74919 0.393 0.0
H3077 H 0.20838 0.69618 0.3812 0.0
H3078 H 0.2203 0.6929 0.3967 0.0
H3079 H 0.20853 0.70826 0.39944 0.0
H3080 H 0.25279 0.70702 0.44184 0.0
H3081 H 0.22005 0.74013 0.44436 0.0
H3082 H 0.26522 0.70724 0.40517 0.0
H3083 H 0.24855 0.69407 0.40132 0.0
H3084 H 0.25952 0.6931 0.41829 0.0
H3085 H 0.22619 0.75031 0.40796 0.0
H3086 H 0.2104 0.74792 0.42203 0.0
H3087 H 0.21116 0.73525 0.40423 0.0
C3088 C 0.8713 0.64954 0.44148 0.0
C3089 C 0.88335 0.65002 0.43013 0.0
C3090 C 0.86524 0.66288 0.44803 0.0
C3091 C 0.8715 0.67703 0.44324 0.0
C3092 C 0.88438 0.67769 0.43264 0.0
C3093 C 0.89011 0.66416 0.42615 0.0
C3094 C 0.85147 0.66172 0.4593 0.0
C3095 C 0.89155 0.69259 0.42747 0.0
C3096 C 0.84376 0.70707 0.44401 0.0
C3097 C 0.84715 0.71603 0.45807 0.0
C3098 C 0.85178 0.69449 0.43897 0.0
C3099 C 0.86361 0.69087 0.44811 0.0
C3100 C 0.86746 0.70013 0.46205 0.0
C3101 C 0.85912 0.71256 0.46692 0.0
C3102 C 0.84734 0.68487 0.42401 0.0
C3103 C 0.8801 0.6967 0.47202 0.0
H3104 H 0.86602 0.63867 0.44463 0.0
H3105 H 0.89953 0.66464 0.41749 0.0
H3106 H 0.85342 0.66989 0.46986 0.0
H3107 H 0.84119 0.6647 0.45371 0.0
H3108 H 0.84889 0.65011 0.46295 0.0
H3109 H 0.90262 0.69139 0.42077 0.0
H3110 H 0.88351 0.69703 0.41996 0.0
H3111 H 0.89362 0.70117 0.43769 0.0
H3112 H 0.83471 0.70982 0.43699 0.0
H3113 H 0.86168 0.7193 0.47791 0.0
H3114 H 0.84335 0.6731 0.42651 0.0
H3115 H 0.8575 0.68426 0.41582 0.0
H3116 H 0.83803 0.68938 0.41814 0.0
H3117 H 0.87682 0.68572 0.47683 0.0
H3118 H 0.88245 0.70566 0.48189 0.0
H3119 H 0.8909 0.69554 0.46485 0.0
C3120 C 0.85874 0.34527 0.46222 0.0
C3121 C 0.85015 0.35333 0.45328 0.0
C3122 C 0.85161 0.33679 0.47382 0.0
C3123 C 0.83547 0.33637 0.47661 0.0
C3124 C 0.82681 0.34498 0.46809 0.0
C3125 C 0.83424 0.35334 0.45651 0.0
C3126 C 0.86125 0.32777 0.48264 0.0
C3127 C 0.80959 0.34489 0.47081 0.0
C3128 C 0.81492 0.30116 0.49229 0.0
C3129 C 0.81264 0.30612 0.50816 0.0
C3130 C 0.82232 0.3109 0.48195 0.0
C3131 C 0.82755 0.32603 0.48757 0.0
C3132 C 0.82529 0.33114 0.50358 0.0
C3133 C 0.81783 0.32112 0.51369 0.0
C3134 C 0.82442 0.30501 0.46495 0.0
C3135 C 0.8307 0.3472 0.50998 0.0
H3136 H 0.87105 0.34524 0.45987 0.0
H3137 H 0.82752 0.35958 0.44972 0.0
H3138 H 0.85911 0.3303 0.49539 0.0
H3139 H 0.85793 0.31544 0.47963 0.0
H3140 H 0.87378 0.33019 0.47992 0.0
H3141 H 0.80472 0.35312 0.46415 0.0
H3142 H 0.80389 0.33336 0.46724 0.0
H3143 H 0.8067 0.34764 0.4834 0.0
H3144 H 0.81059 0.2897 0.48786 0.0
H3145 H 0.81609 0.325 0.52595 0.0
H3146 H 0.83685 0.30601 0.46144 0.0
H3147 H 0.81864 0.31195 0.45757 0.0
H3148 H 0.81966 0.29294 0.46247 0.0
H3149 H 0.84333 0.34945 0.50788 0.0
H3150 H 0.82802 0.34941 0.5227 0.0
H3151 H 0.82518 0.35536 0.50384 0.0
C3152 C 0.10496 0.72917 0.71159 0.0
C3153 C 0.10228 0.7134 0.70783 0.0
C3154 C 0.09333 0.73761 0.71864 0.0
C3155 C 0.0786 0.73013 0.72195 0.0
C3156 C 0.07583 0.7142 0.71833 0.0
C3157 C 0.08771 0.706 0.71134 0.0
C3158 C 0.09678 0.75458 0.72244 0.0
C3159 C 0.06027 0.70584 0.72172 0.0
C3160 C 0.05374 0.75142 0.75236 0.0
C3161 C 0.04452 0.75839 0.74303 0.0
C3162 C 0.06455 0.74181 0.74566 0.0
C3163 C 0.06616 0.73908 0.72922 0.0
C3164 C 0.05654 0.74571 0.71974 0.0
C3165 C 0.04588 0.75537 0.72677 0.0
C3166 C 0.0747 0.73511 0.75618 0.0
C3167 C 0.05788 0.74303 0.70217 0.0
H3168 H 0.11618 0.73498 0.70898 0.0
H3169 H 0.08553 0.69383 0.70845 0.0
H3170 H 0.08901 0.76059 0.71607 0.0
H3171 H 0.09461 0.75781 0.73509 0.0
H3172 H 0.10889 0.75864 0.71932 0.0
H3173 H 0.06 0.69342 0.71829 0.0
H3174 H 0.05715 0.70777 0.73435 0.0
H3175 H 0.05131 0.71032 0.71536 0.0
H3176 H 0.05296 0.75398 0.76494 0.0
H3177 H 0.03875 0.76074 0.71954 0.0
H3178 H 0.08683 0.73996 0.75448 0.0
H3179 H 0.07433 0.72264 0.75315 0.0
H3180 H 0.07123 0.73743 0.76871 0.0
H3181 H 0.06934 0.748 0.69801 0.0
H3182 H 0.04884 0.74814 0.69651 0.0
H3183 H 0.057 0.73067 0.69831 0.0
C3184 C 0.85756 0.64707 0.69298 0.0
C3185 C 0.84759 0.65808 0.6913 0.0
C3186 C 0.85215 0.63347 0.69911 0.0
C3187 C 0.83638 0.63079 0.70359 0.0
C3188 C 0.82609 0.64146 0.70112 0.0
C3189 C 0.83183 0.65502 0.69502 0.0
C3190 C 0.86348 0.62236 0.70157 0.0
C3191 C 0.80916 0.63892 0.70562 0.0
C3192 C 0.82095 0.59098 0.71249 0.0
C3193 C 0.82158 0.59237 0.72881 0.0
C3194 C 0.82558 0.60342 0.70408 0.0
C3195 C 0.83097 0.61754 0.7122 0.0
C3196 C 0.83153 0.61903 0.72867 0.0
C3197 C 0.8268 0.60644 0.73676 0.0
C3198 C 0.82483 0.60144 0.68653 0.0
C3199 C 0.83718 0.63391 0.73776 0.0
H3200 H 0.86974 0.64929 0.69005 0.0
H3201 H 0.82403 0.66342 0.69365 0.0
H3202 H 0.86472 0.62203 0.71425 0.0
H3203 H 0.85918 0.61073 0.6966 0.0
H3204 H 0.87504 0.62545 0.69617 0.0
H3205 H 0.80245 0.64749 0.70145 0.0
H3206 H 0.80428 0.62743 0.7008 0.0
H3207 H 0.80767 0.63953 0.71851 0.0
H3208 H 0.81702 0.5801 0.70629 0.0
H3209 H 0.82703 0.60767 0.74939 0.0
H3210 H 0.83656 0.60362 0.68117 0.0
H3211 H 0.81771 0.60983 0.68267 0.0
H3212 H 0.81991 0.58985 0.68202 0.0
H3213 H 0.84923 0.63746 0.73397 0.0
H3214 H 0.83679 0.63318 0.75054 0.0
H3215 H 0.83006 0.64293 0.73539 0.0
C3216 C 0.93485 0.31649 0.71419 0.0
C3217 C 0.92166 0.32138 0.7223 0.0
C3218 C 0.94567 0.30954 0.72169 0.0
C3219 C 0.94337 0.30768 0.73775 0.0
C3220 C 0.93004 0.31255 0.74598 0.0
C3221 C 0.91928 0.31922 0.73812 0.0
C3222 C 0.9596 0.30424 0.71246 0.0
C3223 C 0.92729 0.31096 0.76316 0.0
C3224 C 0.96437 0.27877 0.75525 0.0
C3225 C 0.9769 0.28792 0.76205 0.0
C3226 C 0.95349 0.28501 0.74713 0.0
C3227 C 0.955 0.30083 0.746 0.0
C3228 C 0.96756 0.31015 0.75287 0.0
C3229 C 0.97842 0.30357 0.7607 0.0
C3230 C 0.94033 0.27468 0.73983 0.0
C3231 C 0.96948 0.3271 0.75205 0.0
H3232 H 0.93671 0.31805 0.70194 0.0
H3233 H 0.90915 0.32306 0.74448 0.0
H3234 H 0.97027 0.31042 0.71739 0.0
H3235 H 0.96018 0.29197 0.71332 0.0
H3236 H 0.95942 0.30603 0.69994 0.0
H3237 H 0.91633 0.31528 0.76785 0.0
H3238 H 0.92699 0.29887 0.76525 0.0
H3239 H 0.93693 0.31731 0.76981 0.0
H3240 H 0.9629 0.26672 0.75646 0.0
H3241 H 0.98816 0.31071 0.7657 0.0
H3242 H 0.94018 0.27591 0.72718 0.0
H3243 H 0.9292 0.27795 0.74518 0.0
H3244 H 0.94112 0.26255 0.74127 0.0
H3245 H 0.97061 0.32954 0.7397 0.0
H3246 H 0.97975 0.33279 0.75822 0.0
H3247 H 0.9591 0.33217 0.7573 0.0
C3248 C 0.14361 0.43109 0.70602 0.0
C3249 C 0.15167 0.43485 0.69229 0.0
C3250 C 0.14851 0.43779 0.72072 0.0
C3251 C 0.16152 0.44875 0.7216 0.0
C3252 C 0.16952 0.45276 0.70775 0.0
C3253 C 0.16451 0.44574 0.6933 0.0
C3254 C 0.13972 0.43325 0.73525 0.0
C3255 C 0.18337 0.46451 0.70816 0.0
C3256 C 0.16897 0.47903 0.75548 0.0
C3257 C 0.18163 0.47402 0.76203 0.0
C3258 C 0.16155 0.47037 0.74292 0.0
C3259 C 0.16686 0.45633 0.73688 0.0
C3260 C 0.17886 0.45069 0.74424 0.0
C3261 C 0.18618 0.45967 0.75668 0.0
C3262 C 0.14888 0.47685 0.73533 0.0
C3263 C 0.18467 0.43566 0.73831 0.0
H3264 H 0.13329 0.42323 0.70532 0.0
H3265 H 0.17077 0.44874 0.68274 0.0
H3266 H 0.14768 0.42962 0.7434 0.0
H3267 H 0.13443 0.44316 0.74138 0.0
H3268 H 0.13047 0.42387 0.73261 0.0
H3269 H 0.18818 0.46644 0.69631 0.0
H3270 H 0.18017 0.47547 0.71416 0.0
H3271 H 0.19255 0.46085 0.71489 0.0
H3272 H 0.16551 0.49019 0.7595 0.0
H3273 H 0.19586 0.45571 0.76186 0.0
H3274 H 0.13902 0.4681 0.73298 0.0
H3275 H 0.15329 0.48059 0.72395 0.0
H3276 H 0.14467 0.48675 0.74265 0.0
H3277 H 0.17489 0.42675 0.73615 0.0
H3278 H 0.1924 0.43189 0.74663 0.0
H3279 H 0.19117 0.43672 0.72705 0.0
C3280 C 0.08632 0.39299 0.36319 0.0
C3281 C 0.08737 0.39865 0.37896 0.0
C3282 C 0.074 0.38256 0.35805 0.0
C3283 C 0.0623 0.37781 0.36891 0.0
C3284 C 0.06308 0.38371 0.38481 0.0
C3285 C 0.0757 0.39402 0.38968 0.0
C3286 C 0.07369 0.37637 0.34102 0.0
C3287 C 0.05072 0.37898 0.39665 0.0
C3288 C 0.02635 0.35985 0.3487 0.0
C3289 C 0.02877 0.34446 0.34736 0.0
C3290 C 0.03656 0.37083 0.35685 0.0
C3291 C 0.0496 0.36628 0.36349 0.0
C3292 C 0.05154 0.35064 0.36295 0.0
C3293 C 0.04104 0.33991 0.35492 0.0
C3294 C 0.03398 0.38738 0.3574 0.0
C3295 C 0.0654 0.34528 0.36963 0.0
H3296 H 0.09532 0.39646 0.35483 0.0
H3297 H 0.07643 0.3984 0.40188 0.0
H3298 H 0.07385 0.36386 0.33984 0.0
H3299 H 0.06291 0.37877 0.33593 0.0
H3300 H 0.08364 0.38133 0.33407 0.0
H3301 H 0.05261 0.3852 0.4084 0.0
H3302 H 0.03925 0.38101 0.39283 0.0
H3303 H 0.05045 0.36662 0.39756 0.0
H3304 H 0.01683 0.36333 0.34285 0.0
H3305 H 0.04306 0.32802 0.35366 0.0
H3306 H 0.04247 0.39302 0.34935 0.0
H3307 H 0.03576 0.39325 0.3693 0.0
H3308 H 0.02222 0.38886 0.35389 0.0
H3309 H 0.07567 0.34768 0.36186 0.0
H3310 H 0.06382 0.33289 0.37068 0.0
H3311 H 0.0678 0.35142 0.38129 0.0
C3312 C 0.27744 0.6566 0.30287 0.0
C3313 C 0.26892 0.66678 0.2966 0.0
C3314 C 0.27629 0.64117 0.2971 0.0
C3315 C 0.26663 0.63587 0.28452 0.0
C3316 C 0.25808 0.64612 0.27805 0.0
C3317 C 0.2592 0.66144 0.28429 0.0
C3318 C 0.28536 0.63054 0.30452 0.0
C3319 C 0.2479 0.64093 0.26444 0.0
C3320 C 0.27623 0.59881 0.26184 0.0
C3321 C 0.26517 0.58834 0.26808 0.0
C3322 C 0.27644 0.61442 0.26662 0.0
C3323 C 0.26556 0.61958 0.27818 0.0
C3324 C 0.25419 0.60903 0.2843 0.0
C3325 C 0.25404 0.59353 0.27905 0.0
C3326 C 0.28854 0.62533 0.25958 0.0
C3327 C 0.24257 0.61404 0.29684 0.0
H3328 H 0.2849 0.66065 0.31246 0.0
H3329 H 0.25266 0.66929 0.27934 0.0
H3330 H 0.27746 0.62111 0.3087 0.0
H3331 H 0.29354 0.62541 0.29575 0.0
H3332 H 0.29198 0.63638 0.31451 0.0
H3333 H 0.24216 0.65036 0.26062 0.0
H3334 H 0.25484 0.63594 0.25443 0.0
H3335 H 0.2389 0.63191 0.26763 0.0
H3336 H 0.28478 0.59475 0.2533 0.0
H3337 H 0.2456 0.58537 0.28399 0.0
H3338 H 0.2966 0.6306 0.26865 0.0
H3339 H 0.28307 0.63464 0.2552 0.0
H3340 H 0.29531 0.61965 0.24982 0.0
H3341 H 0.24863 0.61898 0.30752 0.0
H3342 H 0.23409 0.60451 0.29988 0.0
H3343 H 0.23624 0.62304 0.29301 0.0
C3344 C 0.94639 0.63751 0.3549 0.0
C3345 C 0.93034 0.63774 0.35556 0.0
C3346 C 0.9559 0.64724 0.34595 0.0
C3347 C 0.9492 0.65761 0.33771 0.0
C3348 C 0.93298 0.65749 0.33788 0.0
C3349 C 0.92373 0.64746 0.3467 0.0
C3350 C 0.97315 0.64682 0.34578 0.0
C3351 C 0.92542 0.66851 0.3294 0.0
C3352 C 0.97331 0.69448 0.33101 0.0
C3353 C 0.97754 0.69204 0.3151 0.0
C3354 C 0.96407 0.68337 0.33847 0.0
C3355 C 0.95917 0.66933 0.3299 0.0
C3356 C 0.96358 0.66665 0.31392 0.0
C3357 C 0.9726 0.67809 0.30668 0.0
C3358 C 0.95947 0.6867 0.35551 0.0
C3359 C 0.95872 0.65175 0.30447 0.0
H3360 H 0.95155 0.62995 0.36165 0.0
H3361 H 0.91134 0.64773 0.3472 0.0
H3362 H 0.97797 0.64604 0.33361 0.0
H3363 H 0.97858 0.65749 0.35199 0.0
H3364 H 0.97642 0.6371 0.35146 0.0
H3365 H 0.91265 0.66629 0.32985 0.0
H3366 H 0.92865 0.68028 0.33473 0.0
H3367 H 0.92954 0.66789 0.31701 0.0
H3368 H 0.97731 0.70507 0.33771 0.0
H3369 H 0.9756 0.67616 0.29433 0.0
H3370 H 0.96378 0.67832 0.36236 0.0
H3371 H 0.94673 0.68561 0.35704 0.0
H3372 H 0.96404 0.69828 0.36043 0.0
H3373 H 0.96236 0.6422 0.31014 0.0
H3374 H 0.9637 0.65121 0.29235 0.0
H3375 H 0.94598 0.65004 0.304 0.0
C3376 C 0.8313 0.43462 0.36396 0.0
C3377 C 0.82547 0.41955 0.36559 0.0
C3378 C 0.82333 0.4439 0.35574 0.0
C3379 C 0.80917 0.43799 0.34904 0.0
C3380 C 0.80316 0.42284 0.35078 0.0
C3381 C 0.81139 0.4138 0.359 0.0
C3382 C 0.83015 0.45998 0.35408 0.0
C3383 C 0.78806 0.41615 0.34387 0.0
C3384 C 0.78134 0.46501 0.33858 0.0
C3385 C 0.78397 0.46466 0.32237 0.0
C3386 C 0.78959 0.45654 0.34744 0.0
C3387 C 0.80076 0.44753 0.33994 0.0
C3388 C 0.80364 0.44731 0.32363 0.0
C3389 C 0.79519 0.45584 0.31505 0.0
C3390 C 0.78621 0.45709 0.36481 0.0
C3391 C 0.81547 0.43787 0.31519 0.0
H3392 H 0.84217 0.43916 0.36901 0.0
H3393 H 0.80677 0.40219 0.36024 0.0
H3394 H 0.83235 0.46151 0.34156 0.0
H3395 H 0.82186 0.4681 0.35883 0.0
H3396 H 0.84112 0.46295 0.36021 0.0
H3397 H 0.78481 0.40428 0.34653 0.0
H3398 H 0.77871 0.42314 0.34842 0.0
H3399 H 0.78884 0.41627 0.33101 0.0
H3400 H 0.77284 0.47194 0.34435 0.0
H3401 H 0.79715 0.45532 0.30251 0.0
H3402 H 0.79691 0.46084 0.37118 0.0
H3403 H 0.78204 0.44555 0.36792 0.0
H3404 H 0.7774 0.4649 0.36892 0.0
H3405 H 0.82685 0.44094 0.32049 0.0
H3406 H 0.81673 0.43937 0.30257 0.0
H3407 H 0.81213 0.42567 0.31641 0.0
C3408 C 0.17563 0.62541 0.72331 0.0
C3409 C 0.16064 0.6269 0.71903 0.0
C3410 C 0.17892 0.61273 0.73039 0.0
C3411 C 0.16684 0.60148 0.73368 0.0
C3412 C 0.15167 0.60291 0.72937 0.0
C3413 C 0.14879 0.61551 0.72189 0.0
C3414 C 0.19531 0.61146 0.73446 0.0
C3415 C 0.13841 0.59137 0.73305 0.0
C3416 C 0.17818 0.56314 0.74192 0.0
C3417 C 0.1789 0.56501 0.75826 0.0
C3418 C 0.17398 0.57478 0.73376 0.0
C3419 C 0.17007 0.58852 0.74214 0.0
C3420 C 0.17009 0.59024 0.75864 0.0
C3421 C 0.17466 0.57857 0.76646 0.0
C3422 C 0.17435 0.5726 0.71616 0.0
C3423 C 0.16582 0.60463 0.76805 0.0
H3424 H 0.18485 0.63413 0.721 0.0
H3425 H 0.13716 0.61668 0.7187 0.0
H3426 H 0.19609 0.612 0.74729 0.0
H3427 H 0.19895 0.60033 0.72937 0.0
H3428 H 0.20352 0.62064 0.73019 0.0
H3429 H 0.12736 0.59395 0.72863 0.0
H3430 H 0.14082 0.57985 0.72789 0.0
H3431 H 0.13705 0.59107 0.74587 0.0
H3432 H 0.18124 0.55267 0.73546 0.0
H3433 H 0.1755 0.5804 0.77902 0.0
H3434 H 0.18323 0.58099 0.71152 0.0
H3435 H 0.16312 0.57468 0.71179 0.0
H3436 H 0.17699 0.56101 0.7114 0.0
H3437 H 0.1748 0.6141 0.76613 0.0
H3438 H 0.1647 0.60349 0.78075 0.0
H3439 H 0.15478 0.6078 0.7642 0.0
C3440 C 0.17161 0.42653 0.35576 0.0
C3441 C 0.16502 0.43524 0.36842 0.0
C3442 C 0.18231 0.43327 0.34531 0.0
C3443 C 0.18661 0.4491 0.34761 0.0
C3444 C 0.1803 0.45793 0.36055 0.0
C3445 C 0.16954 0.4509 0.3708 0.0
C3446 C 0.18877 0.42348 0.33162 0.0
C3447 C 0.1847 0.47484 0.36339 0.0
C3448 C 0.22343 0.46415 0.3268 0.0
C3449 C 0.2177 0.46946 0.31376 0.0
C3450 C 0.21344 0.45768 0.33805 0.0
C3451 C 0.19734 0.45644 0.33615 0.0
C3452 C 0.19147 0.4618 0.32303 0.0
C3453 C 0.20172 0.46828 0.31202 0.0
C3454 C 0.22011 0.45207 0.35188 0.0
C3455 C 0.17436 0.46062 0.32059 0.0
H3456 H 0.16822 0.41443 0.35381 0.0
H3457 H 0.16454 0.45771 0.38056 0.0
H3458 H 0.18542 0.42724 0.32055 0.0
H3459 H 0.20154 0.42475 0.33162 0.0
H3460 H 0.18461 0.41126 0.33178 0.0
H3461 H 0.17925 0.47998 0.37434 0.0
H3462 H 0.1974 0.47725 0.36403 0.0
H3463 H 0.18117 0.48048 0.3535 0.0
H3464 H 0.23578 0.46488 0.32812 0.0
H3465 H 0.1972 0.4726 0.30211 0.0
H3466 H 0.21695 0.43966 0.3518 0.0
H3467 H 0.2152 0.45761 0.36289 0.0
H3468 H 0.23287 0.45433 0.3519 0.0
H3469 H 0.1695 0.44853 0.31975 0.0
H3470 H 0.17167 0.46547 0.30985 0.0
H3471 H 0.16846 0.46665 0.33074 0.0
C3472 C 0.17605 0.742 0.30319 0.0
C3473 C 0.17689 0.73535 0.31708 0.0
C3474 C 0.16193 0.74553 0.29823 0.0
C3475 C 0.14831 0.74237 0.30738 0.0
C3476 C 0.1491 0.73586 0.32152 0.0
C3477 C 0.16338 0.7324 0.32619 0.0
C3478 C 0.16155 0.75245 0.28307 0.0
C3479 C 0.13482 0.73236 0.33161 0.0
C3480 C 0.113 0.76226 0.30135 0.0
C3481 C 0.10406 0.75092 0.29218 0.0
C3482 C 0.12749 0.75969 0.30629 0.0
C3483 C 0.13318 0.74546 0.30193 0.0
C3484 C 0.12432 0.73407 0.29247 0.0
C3485 C 0.10987 0.73692 0.28774 0.0
C3486 C 0.13662 0.77213 0.31632 0.0
C3487 C 0.12999 0.71874 0.28758 0.0
H3488 H 0.18642 0.74434 0.29607 0.0
H3489 H 0.16393 0.7273 0.33696 0.0
H3490 H 0.15426 0.74474 0.27477 0.0
H3491 H 0.1563 0.76333 0.2851 0.0
H3492 H 0.17322 0.7546 0.27753 0.0
H3493 H 0.13744 0.72769 0.34248 0.0
H3494 H 0.129 0.74281 0.33483 0.0
H3495 H 0.12656 0.72401 0.32501 0.0
H3496 H 0.10863 0.77314 0.30471 0.0
H3497 H 0.10293 0.72801 0.2809 0.0
H3498 H 0.1481 0.77494 0.31066 0.0
H3499 H 0.1386 0.76817 0.32772 0.0
H3500 H 0.13069 0.78264 0.31846 0.0
H3501 H 0.14139 0.72017 0.28135 0.0
H3502 H 0.1219 0.71127 0.27985 0.0
H3503 H 0.13154 0.71296 0.29805 0.0
C3504 C 0.83106 0.58607 0.37934 0.0
C3505 C 0.84651 0.58301 0.37896 0.0
C3506 C 0.82078 0.57841 0.36846 0.0
C3507 C 0.82608 0.56747 0.35685 0.0
C3508 C 0.84167 0.56436 0.35632 0.0
C3509 C 0.85171 0.57215 0.36743 0.0
C3510 C 0.80421 0.58197 0.36946 0.0
C3511 C 0.84773 0.55281 0.34403 0.0
C3512 C 0.79566 0.5382 0.33848 0.0
C3513 C 0.79305 0.54431 0.32466 0.0
C3514 C 0.80657 0.54548 0.34892 0.0
C3515 C 0.81517 0.55916 0.34543 0.0
C3516 C 0.81282 0.56524 0.33137 0.0
C3517 C 0.80175 0.55776 0.32117 0.0
C3518 C 0.80874 0.53865 0.36382 0.0
C3519 C 0.8218 0.5798 0.32724 0.0
H3520 H 0.82693 0.59443 0.38822 0.0
H3521 H 0.86364 0.56977 0.36703 0.0
H3522 H 0.80118 0.58591 0.35836 0.0
H3523 H 0.79644 0.57155 0.37121 0.0
H3524 H 0.80195 0.59085 0.37916 0.0
H3525 H 0.86021 0.55188 0.34508 0.0
H3526 H 0.84131 0.54149 0.34498 0.0
H3527 H 0.84587 0.55595 0.33223 0.0
H3528 H 0.78919 0.52764 0.3411 0.0
H3529 H 0.7997 0.56261 0.31058 0.0
H3530 H 0.80581 0.54669 0.37403 0.0
H3531 H 0.82098 0.53668 0.36466 0.0
H3532 H 0.80146 0.52772 0.36458 0.0
H3533 H 0.81905 0.58935 0.33597 0.0
H3534 H 0.81919 0.58259 0.31549 0.0
H3535 H 0.83435 0.57892 0.32758 0.0
C3536 C 0.89153 0.36635 0.35034 0.0
C3537 C 0.89146 0.36475 0.36634 0.0
C3538 C 0.90206 0.35934 0.33979 0.0
C3539 C 0.91275 0.35055 0.34538 0.0
C3540 C 0.91293 0.34915 0.36154 0.0
C3541 C 0.9023 0.35625 0.3718 0.0
C3542 C 0.90159 0.36113 0.32264 0.0
C3543 C 0.92419 0.33992 0.36799 0.0
C3544 C 0.93037 0.31898 0.31964 0.0
C3545 C 0.94543 0.32563 0.31695 0.0
C3546 C 0.91939 0.3272 0.3283 0.0
C3547 C 0.92357 0.34243 0.33442 0.0
C3548 C 0.93855 0.34941 0.33118 0.0
C3549 C 0.9493 0.34092 0.3225 0.0
C3550 C 0.90352 0.31937 0.33145 0.0
C3551 C 0.94345 0.36561 0.3375 0.0
H3552 H 0.88321 0.3729 0.34601 0.0
H3553 H 0.90241 0.35497 0.38413 0.0
H3554 H 0.9131 0.36567 0.31819 0.0
H3555 H 0.89866 0.34987 0.31598 0.0
H3556 H 0.89299 0.36883 0.32023 0.0
H3557 H 0.92309 0.34029 0.38091 0.0
H3558 H 0.92227 0.3279 0.3629 0.0
H3559 H 0.93618 0.34419 0.36469 0.0
H3560 H 0.92725 0.30724 0.3152 0.0
H3561 H 0.96096 0.34609 0.32062 0.0
H3562 H 0.89456 0.32634 0.32835 0.0
H3563 H 0.90185 0.3181 0.34408 0.0
H3564 H 0.9017 0.30794 0.32481 0.0
H3565 H 0.93487 0.3732 0.33487 0.0
H3566 H 0.95491 0.36984 0.33262 0.0
H3567 H 0.94404 0.3664 0.35039 0.0
C3568 C 0.86757 0.41084 0.72739 0.0
C3569 C 0.85957 0.39635 0.72771 0.0
C3570 C 0.8616 0.42372 0.73527 0.0
C3571 C 0.84727 0.42205 0.74364 0.0
C3572 C 0.83959 0.40738 0.74477 0.0
C3573 C 0.84585 0.39469 0.73681 0.0
C3574 C 0.87019 0.43918 0.73391 0.0
C3575 C 0.8243 0.40513 0.7536 0.0
C3576 C 0.83447 0.45562 0.7705 0.0
C3577 C 0.82495 0.46184 0.7608 0.0
C3578 C 0.84181 0.44263 0.76514 0.0
C3579 C 0.83953 0.4357 0.74974 0.0
C3580 C 0.82986 0.44187 0.73995 0.0
C3581 C 0.82275 0.45487 0.74557 0.0
C3582 C 0.85205 0.43636 0.77588 0.0
C3583 C 0.82714 0.43482 0.72343 0.0
H3584 H 0.87824 0.41222 0.72048 0.0
H3585 H 0.83963 0.38353 0.73723 0.0
H3586 H 0.86369 0.44563 0.72665 0.0
H3587 H 0.87119 0.44578 0.74557 0.0
H3588 H 0.88194 0.43842 0.72851 0.0
H3589 H 0.82067 0.39296 0.75482 0.0
H3590 H 0.82487 0.41148 0.7654 0.0
H3591 H 0.8153 0.40968 0.74736 0.0
H3592 H 0.83613 0.46089 0.78232 0.0
H3593 H 0.81568 0.45978 0.73789 0.0
H3594 H 0.86391 0.43637 0.77065 0.0
H3595 H 0.84782 0.4244 0.77739 0.0
H3596 H 0.85255 0.44302 0.78756 0.0
H3597 H 0.83822 0.43498 0.71657 0.0
H3598 H 0.81906 0.44086 0.71744 0.0
H3599 H 0.82235 0.42277 0.72346 0.0
C3600 C 0.08816 0.3579 0.71232 0.0
C3601 C 0.1027 0.36542 0.7159 0.0
C3602 C 0.08075 0.34726 0.72175 0.0
C3603 C 0.08804 0.34408 0.73513 0.0
C3604 C 0.10266 0.3517 0.73889 0.0
C3605 C 0.10983 0.36228 0.72922 0.0
C3606 C 0.06517 0.33934 0.71733 0.0
C3607 C 0.11076 0.34863 0.75309 0.0
C3608 C 0.06264 0.3259 0.76639 0.0
C3609 C 0.065 0.31053 0.76294 0.0
C3610 C 0.07023 0.33699 0.75757 0.0
C3611 C 0.08042 0.33259 0.74501 0.0
C3612 C 0.083 0.31713 0.74159 0.0
C3613 C 0.07528 0.3063 0.75061 0.0
C3614 C 0.06718 0.35337 0.76155 0.0
C3615 C 0.09381 0.31201 0.72832 0.0
H3616 H 0.08255 0.36025 0.70205 0.0
H3617 H 0.12105 0.36806 0.7321 0.0
H3618 H 0.06578 0.32689 0.71528 0.0
H3619 H 0.05659 0.34139 0.72704 0.0
H3620 H 0.06098 0.34323 0.70667 0.0
H3621 H 0.12199 0.35567 0.75453 0.0
H3622 H 0.10337 0.35093 0.76374 0.0
H3623 H 0.11281 0.33648 0.75219 0.0
H3624 H 0.0546 0.32923 0.7758 0.0
H3625 H 0.07735 0.29448 0.74805 0.0
H3626 H 0.06191 0.35743 0.75157 0.0
H3627 H 0.07818 0.3606 0.7637 0.0
H3628 H 0.05936 0.35499 0.77202 0.0
H3629 H 0.08969 0.31479 0.71713 0.0
H3630 H 0.09479 0.2996 0.72739 0.0
H3631 H 0.10546 0.31814 0.72991 0.0
C3632 C 0.90231 0.73775 0.70867 0.0
C3633 C 0.88964 0.7451 0.70529 0.0
C3634 C 0.91491 0.7458 0.71638 0.0
C3635 C 0.91498 0.76163 0.72054 0.0
C3636 C 0.90253 0.76923 0.71659 0.0
C3637 C 0.88991 0.76084 0.70914 0.0
C3638 C 0.92787 0.73724 0.72059 0.0
C3639 C 0.90238 0.78616 0.72054 0.0
C3640 C 0.93902 0.77877 0.75478 0.0
C3641 C 0.95274 0.78436 0.74727 0.0
C3642 C 0.9266 0.77148 0.7462 0.0
C3643 C 0.92777 0.77003 0.7297 0.0
C3644 C 0.94138 0.77601 0.72202 0.0
C3645 C 0.95375 0.78295 0.73089 0.0
C3646 C 0.91234 0.76507 0.75482 0.0
C3647 C 0.94296 0.77487 0.70444 0.0
H3648 H 0.90216 0.72558 0.7058 0.0
H3649 H 0.88019 0.76659 0.70647 0.0
H3650 H 0.93905 0.7423 0.71586 0.0
H3651 H 0.9286 0.73817 0.73347 0.0
H3652 H 0.92628 0.72502 0.71609 0.0
H3653 H 0.89243 0.79052 0.71559 0.0
H3654 H 0.90182 0.78897 0.73339 0.0
H3655 H 0.91319 0.79221 0.71606 0.0
H3656 H 0.93795 0.78007 0.7674 0.0
H3657 H 0.96434 0.78702 0.72493 0.0
H3658 H 0.91034 0.75263 0.75156 0.0
H3659 H 0.90209 0.77013 0.75145 0.0
H3660 H 0.91323 0.76722 0.76769 0.0
H3661 H 0.94278 0.76278 0.69961 0.0
H3662 H 0.95381 0.78112 0.70029 0.0
H3663 H 0.93307 0.77945 0.69965 0.0
C3664 C 0.67543 0.20354 0.66281 0.0
C3665 C 0.68273 0.19773 0.67461 0.0
C3666 C 0.68407 0.21103 0.65126 0.0
C3667 C 0.70037 0.21282 0.6516 0.0
C3668 C 0.70776 0.20734 0.66374 0.0
C3669 C 0.69885 0.19975 0.67502 0.0
C3670 C 0.67577 0.21652 0.63837 0.0
C3671 C 0.72509 0.20916 0.66461 0.0
C3672 C 0.72337 0.21645 0.61347 0.0
C3673 C 0.72741 0.23216 0.61419 0.0
C3674 C 0.71453 0.21004 0.62554 0.0
C3675 C 0.70973 0.21956 0.63874 0.0
C3676 C 0.71393 0.23544 0.63962 0.0
C3677 C 0.72263 0.24157 0.62726 0.0
C3678 C 0.71013 0.19308 0.62406 0.0
C3679 C 0.70919 0.24592 0.65359 0.0
H3680 H 0.66301 0.20165 0.6622 0.0
H3681 H 0.70453 0.19528 0.68414 0.0
H3682 H 0.67948 0.2287 0.6374 0.0
H3683 H 0.6788 0.21013 0.62705 0.0
H3684 H 0.66305 0.21506 0.64028 0.0
H3685 H 0.72899 0.20523 0.67539 0.0
H3686 H 0.73025 0.20254 0.65438 0.0
H3687 H 0.72961 0.22124 0.66419 0.0
H3688 H 0.72681 0.20919 0.60324 0.0
H3689 H 0.72576 0.25373 0.62782 0.0
H3690 H 0.6974 0.19065 0.62459 0.0
H3691 H 0.7146 0.18812 0.63394 0.0
H3692 H 0.71468 0.1873 0.61297 0.0
H3693 H 0.69644 0.24513 0.65492 0.0
H3694 H 0.71363 0.25796 0.6526 0.0
H3695 H 0.71352 0.24242 0.66437 0.0
C3696 C 0.35226 0.23865 0.59395 0.0
C3697 C 0.34631 0.23143 0.60692 0.0
C3698 C 0.343 0.24682 0.58584 0.0
C3699 C 0.32737 0.24765 0.59072 0.0
C3700 C 0.32129 0.24037 0.60379 0.0
C3701 C 0.33085 0.23242 0.61178 0.0
C3702 C 0.34993 0.25453 0.57203 0.0
C3703 C 0.30463 0.24087 0.60922 0.0
C3704 C 0.30624 0.27907 0.5779 0.0
C3705 C 0.29821 0.27146 0.56517 0.0
C3706 C 0.31581 0.27148 0.58631 0.0
C3707 C 0.31729 0.25588 0.58195 0.0
C3708 C 0.30919 0.24812 0.56914 0.0
C3709 C 0.29984 0.25602 0.56086 0.0
C3710 C 0.32435 0.28015 0.59985 0.0
C3711 C 0.31045 0.23149 0.56414 0.0
H3712 H 0.36422 0.238 0.59017 0.0
H3713 H 0.32616 0.22684 0.62177 0.0
H3714 H 0.34376 0.24982 0.56135 0.0
H3715 H 0.34856 0.26685 0.5739 0.0
H3716 H 0.36237 0.2531 0.56996 0.0
H3717 H 0.30171 0.23472 0.61966 0.0
H3718 H 0.30208 0.25283 0.61209 0.0
H3719 H 0.297 0.23574 0.59972 0.0
H3720 H 0.30494 0.29095 0.5814 0.0
H3721 H 0.29394 0.25011 0.55084 0.0
H3722 H 0.33693 0.27957 0.59785 0.0
H3723 H 0.32091 0.27489 0.61072 0.0
H3724 H 0.32211 0.29228 0.60163 0.0
H3725 H 0.3226 0.22968 0.56078 0.0
H3726 H 0.30316 0.22705 0.55412 0.0
H3727 H 0.30696 0.22473 0.57401 0.0
C3728 C 0.34276 0.78591 0.65654 0.0
C3729 C 0.34252 0.80172 0.65927 0.0
C3730 C 0.33512 0.7775 0.64389 0.0
C3731 C 0.32709 0.78508 0.63377 0.0
C3732 C 0.32701 0.80104 0.63634 0.0
C3733 C 0.33471 0.80914 0.64903 0.0
C3734 C 0.33549 0.76049 0.64147 0.0
C3735 C 0.31863 0.80957 0.62579 0.0
C3736 C 0.31727 0.76776 0.5928 0.0
C3737 C 0.30146 0.76318 0.59464 0.0
C3738 C 0.32591 0.77434 0.60556 0.0
C3739 C 0.31857 0.77644 0.62053 0.0
C3740 C 0.30274 0.77138 0.62256 0.0
C3741 C 0.29437 0.76482 0.60959 0.0
C3742 C 0.34275 0.77963 0.6029 0.0
C3743 C 0.2945 0.77337 0.63834 0.0
H3744 H 0.34876 0.78008 0.66438 0.0
H3745 H 0.33446 0.82135 0.65097 0.0
H3746 H 0.3236 0.75477 0.64233 0.0
H3747 H 0.34024 0.75705 0.6296 0.0
H3748 H 0.34254 0.75634 0.65015 0.0
H3749 H 0.31989 0.82202 0.62924 0.0
H3750 H 0.32308 0.80741 0.61357 0.0
H3751 H 0.30618 0.80547 0.62602 0.0
H3752 H 0.32279 0.76671 0.58127 0.0
H3753 H 0.28222 0.7611 0.61113 0.0
H3754 H 0.34982 0.77519 0.61135 0.0
H3755 H 0.34451 0.79221 0.60485 0.0
H3756 H 0.34704 0.77596 0.59089 0.0
H3757 H 0.30082 0.76856 0.64715 0.0
H3758 H 0.28249 0.76783 0.63819 0.0
H3759 H 0.29419 0.78565 0.64218 0.0
C3760 C 0.69683 0.86931 0.55005 0.0
C3761 C 0.68633 0.86547 0.56215 0.0
C3762 C 0.70828 0.85988 0.54461 0.0
C3763 C 0.70941 0.84644 0.55164 0.0
C3764 C 0.69893 0.84257 0.56396 0.0
C3765 C 0.68743 0.85207 0.56898 0.0
C3766 C 0.7191 0.86425 0.53128 0.0
C3767 C 0.69992 0.82844 0.57187 0.0
C3768 C 0.72972 0.81492 0.52876 0.0
C3769 C 0.74446 0.81749 0.53485 0.0
C3770 C 0.71821 0.82428 0.5341 0.0
C3771 C 0.72147 0.83635 0.54598 0.0
C3772 C 0.73629 0.83885 0.55233 0.0
C3773 C 0.74767 0.82946 0.54657 0.0
C3774 C 0.70263 0.82141 0.52687 0.0
C3775 C 0.74012 0.85146 0.56517 0.0
H3776 H 0.696 0.87962 0.54468 0.0
H3777 H 0.67941 0.8491 0.57841 0.0
H3778 H 0.73118 0.86562 0.53502 0.0
H3779 H 0.71824 0.85509 0.52144 0.0
H3780 H 0.71658 0.875 0.52698 0.0
H3781 H 0.69111 0.82723 0.58151 0.0
H3782 H 0.69834 0.81823 0.56326 0.0
H3783 H 0.71151 0.82869 0.57666 0.0
H3784 H 0.72731 0.80578 0.51954 0.0
H3785 H 0.75906 0.83138 0.55132 0.0
H3786 H 0.7001 0.83161 0.52157 0.0
H3787 H 0.6935 0.81925 0.53599 0.0
H3788 H 0.70197 0.81156 0.51773 0.0
H3789 H 0.73885 0.8626 0.56105 0.0
H3790 H 0.75205 0.85161 0.56915 0.0
H3791 H 0.73195 0.85017 0.57531 0.0
C3792 C 0.72222 0.85685 0.41063 0.0
C3793 C 0.71103 0.86517 0.41873 0.0
C3794 C 0.73099 0.84792 0.4184 0.0
C3795 C 0.72825 0.84703 0.43459 0.0
C3796 C 0.71689 0.85534 0.44282 0.0
C3797 C 0.70854 0.86445 0.43482 0.0
C3798 C 0.74321 0.83947 0.40929 0.0
C3799 C 0.71343 0.85443 0.46003 0.0
C3800 C 0.74084 0.81253 0.45075 0.0
C3801 C 0.75453 0.81858 0.45802 0.0
C3802 C 0.73203 0.82173 0.44336 0.0
C3803 C 0.73719 0.83728 0.44288 0.0
C3804 C 0.751 0.84347 0.45009 0.0
C3805 C 0.7594 0.8341 0.45772 0.0
C3806 C 0.71724 0.81475 0.43599 0.0
C3807 C 0.75698 0.85998 0.44965 0.0
H3808 H 0.72427 0.85745 0.39821 0.0
H3809 H 0.69983 0.87079 0.44111 0.0
H3810 H 0.75456 0.84278 0.41461 0.0
H3811 H 0.74051 0.82707 0.40976 0.0
H3812 H 0.74423 0.84174 0.39686 0.0
H3813 H 0.70415 0.86148 0.46468 0.0
H3814 H 0.70987 0.84247 0.46216 0.0
H3815 H 0.72394 0.85824 0.46668 0.0
H3816 H 0.73707 0.80053 0.45063 0.0
H3817 H 0.76976 0.839 0.46354 0.0
H3818 H 0.71816 0.81546 0.42322 0.0
H3819 H 0.70753 0.82117 0.44072 0.0
H3820 H 0.71445 0.80266 0.43805 0.0
H3821 H 0.7587 0.86257 0.43736 0.0
H3822 H 0.76806 0.86297 0.45559 0.0
H3823 H 0.7484 0.86735 0.45533 0.0
C3824 C 0.66646 0.18881 0.42255 0.0
C3825 C 0.67338 0.17886 0.41123 0.0
C3826 C 0.67414 0.19498 0.43606 0.0
C3827 C 0.68914 0.19118 0.43825 0.0
C3828 C 0.696 0.18075 0.42714 0.0
C3829 C 0.68801 0.17467 0.41377 0.0
C3830 C 0.66639 0.20596 0.44772 0.0
C3831 C 0.712 0.17646 0.42909 0.0
C3832 C 0.71498 0.22029 0.46303 0.0
C3833 C 0.71419 0.21407 0.4773 0.0
C3834 C 0.70703 0.21285 0.45019 0.0
C3835 C 0.698 0.19887 0.45168 0.0
C3836 C 0.69721 0.19246 0.46602 0.0
C3837 C 0.70536 0.20013 0.47867 0.0
C3838 C 0.70824 0.21999 0.43505 0.0
C3839 C 0.68762 0.17763 0.46806 0.0
H3840 H 0.65511 0.19203 0.42075 0.0
H3841 H 0.69345 0.16699 0.40509 0.0
H3842 H 0.66645 0.20235 0.45961 0.0
H3843 H 0.67288 0.2174 0.44802 0.0
H3844 H 0.65429 0.20689 0.44486 0.0
H3845 H 0.71528 0.16745 0.41994 0.0
H3846 H 0.72049 0.1866 0.42853 0.0
H3847 H 0.71281 0.17242 0.44069 0.0
H3848 H 0.72198 0.23095 0.46187 0.0
H3849 H 0.70462 0.19535 0.48973 0.0
H3850 H 0.69667 0.2224 0.43187 0.0
H3851 H 0.71263 0.21199 0.42549 0.0
H3852 H 0.716 0.23075 0.43574 0.0
H3853 H 0.67534 0.17873 0.46613 0.0
H3854 H 0.6885 0.17401 0.47986 0.0
H3855 H 0.69132 0.16855 0.45924 0.0
C3856 C 0.35221 0.19789 0.46448 0.0
C3857 C 0.34825 0.19176 0.44935 0.0
C3858 C 0.34407 0.20923 0.4727 0.0
C3859 C 0.33157 0.21437 0.46569 0.0
C3860 C 0.3275 0.2082 0.45044 0.0
C3861 C 0.33595 0.19705 0.44243 0.0
C3862 C 0.34884 0.21572 0.48886 0.0
C3863 C 0.31413 0.21329 0.44263 0.0
C3864 C 0.30028 0.23308 0.49037 0.0
C3865 C 0.30387 0.24838 0.4879 0.0
C3866 C 0.30944 0.22192 0.48355 0.0
C3867 C 0.32262 0.22619 0.47421 0.0
C3868 C 0.32665 0.24168 0.47215 0.0
C3869 C 0.31717 0.25257 0.47893 0.0
C3870 C 0.30474 0.20549 0.48594 0.0
C3871 C 0.34069 0.24669 0.46236 0.0
H3872 H 0.36174 0.19389 0.46987 0.0
H3873 H 0.33275 0.19231 0.43078 0.0
H3874 H 0.35172 0.22819 0.48923 0.0
H3875 H 0.33913 0.21373 0.49742 0.0
H3876 H 0.35896 0.21065 0.49257 0.0
H3877 H 0.31239 0.20724 0.43078 0.0
H3878 H 0.30338 0.21127 0.44983 0.0
H3879 H 0.31609 0.22566 0.44165 0.0
H3880 H 0.29019 0.22978 0.49752 0.0
H3881 H 0.31994 0.26433 0.47678 0.0
H3882 H 0.31444 0.20043 0.49048 0.0
H3883 H 0.30183 0.19893 0.47458 0.0
H3884 H 0.29461 0.20414 0.49416 0.0
H3885 H 0.351 0.24202 0.46614 0.0
H3886 H 0.34298 0.25925 0.46306 0.0
H3887 H 0.33903 0.24219 0.44997 0.0
C3888 C 0.37184 0.84221 0.47553 0.0
C3889 C 0.36404 0.8512 0.46683 0.0
C3890 C 0.36375 0.83219 0.48523 0.0
C3891 C 0.34747 0.83117 0.48631 0.0
C3892 C 0.33955 0.84074 0.47818 0.0
C3893 C 0.34794 0.85064 0.46852 0.0
C3894 C 0.37261 0.82217 0.4937 0.0
C3895 C 0.32219 0.84005 0.47913 0.0
C3896 C 0.32588 0.79347 0.49454 0.0
C3897 C 0.32152 0.79624 0.51038 0.0
C3898 C 0.33442 0.8047 0.48666 0.0
C3899 C 0.33868 0.81913 0.49477 0.0
C3900 C 0.33444 0.822 0.5108 0.0
C3901 C 0.32587 0.81051 0.51842 0.0
C3902 C 0.33865 0.80118 0.46955 0.0
C3903 C 0.33876 0.83726 0.51982 0.0
H3904 H 0.38429 0.84261 0.47438 0.0
H3905 H 0.34182 0.8576 0.46192 0.0
H3906 H 0.36892 0.82284 0.50622 0.0
H3907 H 0.37011 0.81016 0.48873 0.0
H3908 H 0.38525 0.8253 0.49278 0.0
H3909 H 0.31788 0.84919 0.4733 0.0
H3910 H 0.31718 0.82892 0.47349 0.0
H3911 H 0.31792 0.84098 0.49149 0.0
H3912 H 0.3222 0.78262 0.48813 0.0
H3913 H 0.32253 0.81271 0.53066 0.0
H3914 H 0.3513 0.80332 0.46752 0.0
H3915 H 0.33317 0.80876 0.46262 0.0
H3916 H 0.33494 0.78921 0.46511 0.0
H3917 H 0.35144 0.84009 0.51918 0.0
H3918 H 0.33484 0.83758 0.53228 0.0
H3919 H 0.33358 0.84623 0.51453 0.0
C3920 C 0.60699 0.24609 0.69726 0.0
C3921 C 0.6033 0.23144 0.68974 0.0
C3922 C 0.59539 0.25523 0.70301 0.0
C3923 C 0.57972 0.24961 0.70117 0.0
C3924 C 0.57594 0.23512 0.69298 0.0
C3925 C 0.58777 0.2262 0.68737 0.0
C3926 C 0.59989 0.27065 0.71164 0.0
C3927 C 0.55938 0.22875 0.69072 0.0
C3928 C 0.55129 0.26501 0.73204 0.0
C3929 C 0.54498 0.27594 0.7245 0.0
C3930 C 0.56238 0.25621 0.72446 0.0
C3931 C 0.56735 0.25838 0.70893 0.0
C3932 C 0.56084 0.2692 0.70112 0.0
C3933 C 0.54975 0.27788 0.70902 0.0
C3934 C 0.56906 0.24483 0.73323 0.0
C3935 C 0.56578 0.27177 0.68454 0.0
H3936 H 0.61894 0.25028 0.69908 0.0
H3937 H 0.5848 0.21494 0.6815 0.0
H3938 H 0.59412 0.27949 0.70677 0.0
H3939 H 0.59603 0.27067 0.72408 0.0
H3940 H 0.61254 0.27384 0.71105 0.0
H3941 H 0.55838 0.21795 0.68288 0.0
H3942 H 0.55373 0.22662 0.70218 0.0
H3943 H 0.55294 0.23707 0.68578 0.0
H3944 H 0.54791 0.26364 0.7441 0.0
H3945 H 0.54485 0.28625 0.7031 0.0
H3946 H 0.58161 0.248 0.73444 0.0
H3947 H 0.56758 0.23338 0.72662 0.0
H3948 H 0.56358 0.24416 0.74506 0.0
H3949 H 0.5782 0.27598 0.68396 0.0
H3950 H 0.55914 0.28013 0.6799 0.0
H3951 H 0.56431 0.26091 0.67687 0.0
C3952 C 0.36594 0.13761 0.65793 0.0
C3953 C 0.35779 0.15049 0.65983 0.0
C3954 C 0.3606 0.12456 0.66513 0.0
C3955 C 0.34676 0.12437 0.67439 0.0
C3956 C 0.33804 0.13699 0.67562 0.0
C3957 C 0.34367 0.14991 0.66834 0.0
C3958 C 0.37021 0.11131 0.66352 0.0
C3959 C 0.32314 0.13716 0.68527 0.0
C3960 C 0.3279 0.08708 0.68732 0.0
C3961 C 0.33299 0.08787 0.70259 0.0
C3962 C 0.33234 0.09882 0.67793 0.0
C3963 C 0.34214 0.11161 0.68394 0.0
C3964 C 0.34744 0.11239 0.69927 0.0
C3965 C 0.34277 0.10055 0.70841 0.0
C3966 C 0.32646 0.09761 0.66163 0.0
C3967 C 0.35791 0.12585 0.70611 0.0
H3968 H 0.37683 0.13791 0.65132 0.0
H3969 H 0.33724 0.15976 0.66978 0.0
H3970 H 0.37514 0.11032 0.67492 0.0
H3971 H 0.36296 0.10054 0.66019 0.0
H3972 H 0.37983 0.11261 0.6547 0.0
H3973 H 0.317 0.14718 0.6838 0.0
H3974 H 0.31539 0.1267 0.68206 0.0
H3975 H 0.32559 0.1374 0.69779 0.0
H3976 H 0.32047 0.07724 0.68269 0.0
H3977 H 0.34654 0.10137 0.72028 0.0
H3978 H 0.33629 0.09832 0.65301 0.0
H3979 H 0.3197 0.10725 0.66048 0.0
H3980 H 0.31907 0.08683 0.65864 0.0
H3981 H 0.36851 0.12742 0.6986 0.0
H3982 H 0.36129 0.12454 0.71809 0.0
H3983 H 0.35205 0.13635 0.70654 0.0
C3984 C 0.41305 0.79189 0.72423 0.0
C3985 C 0.41219 0.80521 0.71718 0.0
C3986 C 0.42723 0.78795 0.72867 0.0
C3987 C 0.44086 0.79764 0.72611 0.0
C3988 C 0.44007 0.81108 0.71898 0.0
C3989 C 0.42576 0.81466 0.71451 0.0
C3990 C 0.42764 0.7734 0.73603 0.0
C3991 C 0.45431 0.8218 0.71627 0.0
C3992 C 0.47473 0.79463 0.75118 0.0
C3993 C 0.48412 0.78592 0.74092 0.0
C3994 C 0.46073 0.79869 0.74644 0.0
C3995 C 0.45591 0.79381 0.73111 0.0
C3996 C 0.46538 0.78512 0.72065 0.0
C3997 C 0.4794 0.78133 0.72566 0.0
C3998 C 0.45093 0.80793 0.75796 0.0
C3999 C 0.46059 0.7796 0.70426 0.0
H4000 H 0.40263 0.78449 0.72628 0.0
H4001 H 0.42519 0.82501 0.70914 0.0
H4002 H 0.43459 0.7656 0.72842 0.0
H4003 H 0.43328 0.77574 0.74741 0.0
H4004 H 0.41594 0.76751 0.73792 0.0
H4005 H 0.45177 0.83173 0.71048 0.0
H4006 H 0.45961 0.82598 0.72757 0.0
H4007 H 0.46298 0.81573 0.70892 0.0
H4008 H 0.4781 0.79794 0.76309 0.0
H4009 H 0.48664 0.77469 0.71764 0.0
H4010 H 0.43984 0.80116 0.76045 0.0
H4011 H 0.44819 0.81821 0.75292 0.0
H4012 H 0.4567 0.81152 0.76915 0.0
H4013 H 0.4495 0.77227 0.70462 0.0
H4014 H 0.46931 0.77305 0.69753 0.0
H4015 H 0.4587 0.78939 0.69794 0.0
C4016 C 0.64981 0.89961 0.64514 0.0
C4017 C 0.65907 0.90392 0.63232 0.0
C4018 C 0.65419 0.90448 0.66047 0.0
C4019 C 0.66798 0.91416 0.66298 0.0
C4020 C 0.6771 0.91896 0.65006 0.0
C4021 C 0.67252 0.91378 0.63488 0.0
C4022 C 0.6441 0.89923 0.67395 0.0
C4023 C 0.69181 0.9294 0.65227 0.0
C4024 C 0.67471 0.93858 0.7014 0.0
C4025 C 0.68519 0.93066 0.70822 0.0
C4026 C 0.66856 0.93307 0.68692 0.0
C4027 C 0.67299 0.91929 0.67909 0.0
C4028 C 0.68308 0.91092 0.68622 0.0
C4029 C 0.68912 0.91676 0.70069 0.0
C4030 C 0.65794 0.94239 0.67967 0.0
C4031 C 0.68795 0.89611 0.67829 0.0
H4032 H 0.63903 0.89258 0.64321 0.0
H4033 H 0.67964 0.91722 0.62497 0.0
H4034 H 0.65085 0.89332 0.68149 0.0
H4035 H 0.64 0.90919 0.68124 0.0
H4036 H 0.63393 0.89142 0.66999 0.0
H4037 H 0.69742 0.93231 0.641 0.0
H4038 H 0.6894 0.94007 0.65945 0.0
H4039 H 0.70006 0.92393 0.65863 0.0
H4040 H 0.67187 0.94949 0.70704 0.0
H4041 H 0.69718 0.9106 0.70599 0.0
H4042 H 0.64756 0.93515 0.67536 0.0
H4043 H 0.66396 0.9473 0.66949 0.0
H4044 H 0.6542 0.95184 0.68802 0.0
H4045 H 0.67768 0.88824 0.67483 0.0
H4046 H 0.69493 0.89046 0.68589 0.0
H4047 H 0.69488 0.89822 0.66748 0.0
C4048 C 0.6231 0.87149 0.3464 0.0
C4049 C 0.62628 0.87486 0.36225 0.0
C4050 C 0.61007 0.86184 0.34161 0.0
C4051 C 0.59995 0.85535 0.35295 0.0
C4052 C 0.60313 0.85857 0.36897 0.0
C4053 C 0.61628 0.8683 0.37344 0.0
C4054 C 0.60708 0.85867 0.3244 0.0
C4055 C 0.5926 0.85181 0.38135 0.0
C4056 C 0.55974 0.84244 0.33894 0.0
C4057 C 0.56077 0.82697 0.3343 0.0
C4058 C 0.57219 0.8517 0.34571 0.0
C4059 C 0.58599 0.84532 0.34787 0.0
C4060 C 0.58686 0.82958 0.34385 0.0
C4061 C 0.57424 0.82059 0.3371 0.0
C4062 C 0.57079 0.86842 0.34991 0.0
C4063 C 0.60139 0.82236 0.34597 0.0
H4064 H 0.63075 0.87648 0.33766 0.0
H4065 H 0.61866 0.87084 0.38571 0.0
H4066 H 0.60644 0.84628 0.32078 0.0
H4067 H 0.59582 0.86247 0.32203 0.0
H4068 H 0.61617 0.86449 0.31708 0.0
H4069 H 0.59682 0.85525 0.39329 0.0
H4070 H 0.58089 0.85544 0.38082 0.0
H4071 H 0.5915 0.83924 0.37921 0.0
H4072 H 0.54926 0.84736 0.337 0.0
H4073 H 0.57517 0.80867 0.33339 0.0
H4074 H 0.57867 0.8751 0.34214 0.0
H4075 H 0.5743 0.87198 0.36206 0.0
H4076 H 0.55888 0.87134 0.34876 0.0
H4077 H 0.61064 0.82665 0.33782 0.0
H4078 H 0.59969 0.80978 0.34372 0.0
H4079 H 0.60546 0.82551 0.35798 0.0
C4080 C 0.69926 0.12167 0.3316 0.0
C4081 C 0.6854 0.11824 0.34 0.0
C4082 C 0.70814 0.11015 0.3251 0.0
C4083 C 0.703 0.09481 0.32696 0.0
C4084 C 0.68894 0.09124 0.33528 0.0
C4085 C 0.68032 0.10301 0.34174 0.0
C4086 C 0.7231 0.11442 0.31635 0.0
C4087 C 0.68306 0.075 0.3374 0.0
C4088 C 0.72077 0.06575 0.29796 0.0
C4089 C 0.73269 0.06174 0.30649 0.0
C4090 C 0.71061 0.07605 0.30468 0.0
C4091 C 0.71249 0.08258 0.32027 0.0
C4092 C 0.72413 0.07816 0.32913 0.0
C4093 C 0.73407 0.06776 0.32215 0.0
C4094 C 0.69829 0.08043 0.29488 0.0
C4095 C 0.72648 0.08485 0.34581 0.0
H4096 H 0.70328 0.1334 0.33022 0.0
H4097 H 0.66961 0.10026 0.3482 0.0
H4098 H 0.73282 0.11043 0.32202 0.0
H4099 H 0.72283 0.10875 0.30424 0.0
H4100 H 0.72543 0.12688 0.31589 0.0
H4101 H 0.67178 0.07411 0.34394 0.0
H4102 H 0.68178 0.06824 0.32585 0.0
H4103 H 0.6915 0.06981 0.34377 0.0
H4104 H 0.71974 0.06132 0.2858 0.0
H4105 H 0.74311 0.06454 0.32887 0.0
H4106 H 0.70087 0.0925 0.29269 0.0
H4107 H 0.68691 0.07933 0.30117 0.0
H4108 H 0.69746 0.07333 0.28346 0.0
H4109 H 0.73006 0.09722 0.34614 0.0
H4110 H 0.7354 0.07951 0.35139 0.0
H4111 H 0.71552 0.08347 0.3528 0.0
C4112 C 0.39711 0.18488 0.36445 0.0
C4113 C 0.40033 0.18404 0.38007 0.0
C4114 C 0.40705 0.19372 0.35497 0.0
C4115 C 0.42044 0.20205 0.36131 0.0
C4116 C 0.42373 0.20129 0.37708 0.0
C4117 C 0.41368 0.19222 0.38625 0.0
C4118 C 0.40326 0.19411 0.33815 0.0
C4119 C 0.43781 0.21013 0.3843 0.0
C4120 C 0.45346 0.21414 0.33362 0.0
C4121 C 0.4511 0.22929 0.33234 0.0
C4122 C 0.44355 0.20514 0.34296 0.0
C4123 C 0.43106 0.21149 0.3514 0.0
C4124 C 0.42869 0.22681 0.35033 0.0
C4125 C 0.43868 0.2355 0.34075 0.0
C4126 C 0.44642 0.18883 0.34375 0.0
C4127 C 0.41555 0.234 0.35926 0.0
H4128 H 0.38684 0.17856 0.35959 0.0
H4129 H 0.4162 0.19169 0.39833 0.0
H4130 H 0.40198 0.20593 0.33593 0.0
H4131 H 0.41284 0.19017 0.33034 0.0
H4132 H 0.39247 0.18688 0.33497 0.0
H4133 H 0.43864 0.20843 0.39677 0.0
H4134 H 0.44838 0.20664 0.37784 0.0
H4135 H 0.43756 0.22243 0.3834 0.0
H4136 H 0.46319 0.20931 0.32741 0.0
H4137 H 0.43664 0.24713 0.3397 0.0
H4138 H 0.43614 0.18114 0.33996 0.0
H4139 H 0.44839 0.18698 0.35596 0.0
H4140 H 0.45654 0.18556 0.33631 0.0
H4141 H 0.40439 0.22783 0.35555 0.0
H4142 H 0.41552 0.24616 0.35747 0.0
H4143 H 0.41629 0.23313 0.37192 0.0
C4144 C 0.35807 0.94657 0.3921 0.0
C4145 C 0.35349 0.93107 0.39288 0.0
C4146 C 0.34936 0.95548 0.38421 0.0
C4147 C 0.33577 0.94874 0.37692 0.0
C4148 C 0.33102 0.93314 0.37777 0.0
C4149 C 0.33994 0.9245 0.38574 0.0
C4150 C 0.35479 0.97209 0.38356 0.0
C4151 C 0.31659 0.92554 0.37015 0.0
C4152 C 0.30567 0.97372 0.36712 0.0
C4153 C 0.30875 0.97451 0.3511 0.0
C4154 C 0.31448 0.96553 0.37572 0.0
C4155 C 0.32665 0.95792 0.36811 0.0
C4156 C 0.32992 0.95882 0.35199 0.0
C4157 C 0.32094 0.96709 0.34369 0.0
C4158 C 0.31067 0.96489 0.3929 0.0
C4159 C 0.34277 0.95083 0.34345 0.0
H4160 H 0.36851 0.95175 0.3976 0.0
H4161 H 0.3363 0.91254 0.3863 0.0
H4162 H 0.3571 0.9744 0.37125 0.0
H4163 H 0.34565 0.97918 0.38846 0.0
H4164 H 0.36543 0.97568 0.39011 0.0
H4165 H 0.31435 0.91337 0.3721 0.0
H4166 H 0.30649 0.93144 0.37479 0.0
H4167 H 0.31758 0.92636 0.3574 0.0
H4168 H 0.29638 0.97957 0.37296 0.0
H4169 H 0.32325 0.96746 0.33128 0.0
H4170 H 0.32095 0.96918 0.39975 0.0
H4171 H 0.30743 0.95295 0.39525 0.0
H4172 H 0.30105 0.97168 0.39713 0.0
H4173 H 0.35384 0.95462 0.34913 0.0
H4174 H 0.3441 0.95298 0.331 0.0
H4175 H 0.34048 0.9384 0.34401 0.0
C4176 C 0.69245 0.12511 0.73516 0.0
C4177 C 0.68455 0.12443 0.72129 0.0
C4178 C 0.69811 0.11214 0.73968 0.0
C4179 C 0.69586 0.09819 0.73008 0.0
C4180 C 0.68823 0.09752 0.7159 0.0
C4181 C 0.68262 0.11063 0.71169 0.0
C4182 C 0.70614 0.11329 0.75493 0.0
C4183 C 0.6857 0.08286 0.7053 0.0
C4184 C 0.72007 0.06621 0.73541 0.0
C4185 C 0.70979 0.0568 0.74399 0.0
C4186 C 0.71577 0.07982 0.73094 0.0
C4187 C 0.70087 0.08412 0.73519 0.0
C4188 C 0.69054 0.07478 0.74406 0.0
C4189 C 0.69511 0.06123 0.74831 0.0
C4190 C 0.72711 0.08949 0.7215 0.0
C4191 C 0.67455 0.07899 0.74885 0.0
H4192 H 0.69399 0.13573 0.74265 0.0
H4193 H 0.67659 0.11002 0.70093 0.0
H4194 H 0.69939 0.106 0.76299 0.0
H4195 H 0.71765 0.10908 0.75297 0.0
H4196 H 0.70759 0.12512 0.7607 0.0
H4197 H 0.6802 0.0844 0.69433 0.0
H4198 H 0.69685 0.07814 0.70228 0.0
H4199 H 0.67824 0.07432 0.71142 0.0
H4200 H 0.7315 0.06295 0.7322 0.0
H4201 H 0.68701 0.05392 0.75474 0.0
H4202 H 0.72911 0.10113 0.72759 0.0
H4203 H 0.7223 0.0905 0.71005 0.0
H4204 H 0.73837 0.08471 0.71943 0.0
H4205 H 0.67523 0.09046 0.75543 0.0
H4206 H 0.66811 0.07077 0.75621 0.0
H4207 H 0.66789 0.07942 0.73832 0.0
C4208 C 0.69826 0.94319 0.35879 0.0
C4209 C 0.70467 0.93401 0.36842 0.0
C4210 C 0.70765 0.95263 0.34946 0.0
C4211 C 0.72387 0.95305 0.34989 0.0
C4212 C 0.73044 0.94436 0.36012 0.0
C4213 C 0.72076 0.93486 0.36919 0.0
C4214 C 0.70019 0.96163 0.33862 0.0
C4215 C 0.74768 0.94474 0.36108 0.0
C4216 C 0.74638 0.96348 0.31323 0.0
C4217 C 0.7508 0.97902 0.31701 0.0
C4218 C 0.73786 0.95485 0.32394 0.0
C4219 C 0.73384 0.96187 0.33891 0.0
C4220 C 0.73866 0.97742 0.343 0.0
C4221 C 0.74699 0.98584 0.33197 0.0
C4222 C 0.73286 0.9383 0.3191 0.0
C4223 C 0.73471 0.98526 0.3589 0.0
H4224 H 0.68586 0.94262 0.35808 0.0
H4225 H 0.72581 0.92787 0.37666 0.0
H4226 H 0.70463 0.97381 0.34052 0.0
H4227 H 0.70317 0.95754 0.32633 0.0
H4228 H 0.68744 0.96063 0.34025 0.0
H4229 H 0.75095 0.93841 0.3706 0.0
H4230 H 0.75262 0.93964 0.34987 0.0
H4231 H 0.753 0.95664 0.36303 0.0
H4232 H 0.74953 0.95803 0.30183 0.0
H4233 H 0.75019 0.99787 0.33496 0.0
H4234 H 0.72009 0.93635 0.31942 0.0
H4235 H 0.737 0.93112 0.3274 0.0
H4236 H 0.73725 0.93447 0.30717 0.0
H4237 H 0.72206 0.98561 0.36033 0.0
H4238 H 0.74037 0.99707 0.36069 0.0
H4239 H 0.73823 0.9788 0.36817 0.0
C4240 C 0.59911 0.20787 0.35133 0.0
C4241 C 0.61162 0.19979 0.34603 0.0
C4242 C 0.59185 0.21597 0.3413 0.0
C4243 C 0.59727 0.21607 0.32558 0.0
C4244 C 0.60975 0.20777 0.32006 0.0
C4245 C 0.61677 0.19969 0.33036 0.0
C4246 C 0.57847 0.22458 0.34759 0.0
C4247 C 0.61581 0.20762 0.30336 0.0
C4248 C 0.56849 0.22732 0.29869 0.0
C4249 C 0.57292 0.24293 0.29867 0.0
C4250 C 0.57676 0.21826 0.3068 0.0
C4251 C 0.58981 0.22497 0.31505 0.0
C4252 C 0.5948 0.24056 0.31441 0.0
C4253 C 0.58625 0.24938 0.30626 0.0
C4254 C 0.57103 0.2017 0.30726 0.0
C4255 C 0.60869 0.2481 0.32301 0.0
H4256 H 0.59502 0.20798 0.3634 0.0
H4257 H 0.62645 0.19349 0.32617 0.0
H4258 H 0.58142 0.2369 0.34676 0.0
H4259 H 0.56824 0.22087 0.34048 0.0
H4260 H 0.57531 0.2229 0.35995 0.0
H4261 H 0.62539 0.20034 0.30081 0.0
H4262 H 0.60642 0.20344 0.29529 0.0
H4263 H 0.62001 0.21934 0.30087 0.0
H4264 H 0.55803 0.22233 0.29309 0.0
H4265 H 0.58973 0.26143 0.30621 0.0
H4266 H 0.56718 0.19963 0.31935 0.0
H4267 H 0.58049 0.19449 0.30376 0.0
H4268 H 0.56126 0.19803 0.29947 0.0
H4269 H 0.60618 0.24851 0.33577 0.0
H4270 H 0.61197 0.25988 0.32006 0.0
H4271 H 0.61869 0.24143 0.32027 0.0
C4272 C 0.32731 0.11335 0.4123 0.0
C4273 C 0.34347 0.11551 0.41227 0.0
C4274 C 0.31963 0.10191 0.40217 0.0
C4275 C 0.3283 0.09238 0.39177 0.0
C4276 C 0.3446 0.0942 0.39196 0.0
C4277 C 0.352 0.10577 0.40221 0.0
C4278 C 0.30223 0.10032 0.40231 0.0
C4279 C 0.35421 0.0842 0.38105 0.0
C4280 C 0.30715 0.05586 0.37304 0.0
C4281 C 0.30385 0.06007 0.35848 0.0
C4282 C 0.31534 0.06618 0.38392 0.0
C4283 C 0.32027 0.08104 0.38015 0.0
C4284 C 0.31707 0.0853 0.36543 0.0
C4285 C 0.3089 0.07476 0.35477 0.0
C4286 C 0.3186 0.06122 0.39949 0.0
C4287 C 0.32204 0.10108 0.36102 0.0
H4288 H 0.32061 0.12078 0.42006 0.0
H4289 H 0.36448 0.10735 0.40214 0.0
H4290 H 0.29832 0.10271 0.39088 0.0
H4291 H 0.29761 0.08851 0.40405 0.0
H4292 H 0.29718 0.10818 0.41161 0.0
H4293 H 0.3667 0.08648 0.3833 0.0
H4294 H 0.3505 0.07206 0.38224 0.0
H4295 H 0.35246 0.08608 0.3688 0.0
H4296 H 0.30342 0.04445 0.37588 0.0
H4297 H 0.3062 0.07813 0.34362 0.0
H4298 H 0.313 0.06836 0.40903 0.0
H4299 H 0.33117 0.06284 0.40135 0.0
H4300 H 0.31438 0.04913 0.40043 0.0
H4301 H 0.31646 0.10957 0.36918 0.0
H4302 H 0.31902 0.10244 0.34893 0.0
H4303 H 0.33468 0.10371 0.36203 0.0
C4304 C 0.42431 0.88188 0.3777 0.0
C4305 C 0.41479 0.8726 0.38712 0.0
C4306 C 0.43536 0.87574 0.36711 0.0
C4307 C 0.43681 0.85995 0.36585 0.0
C4308 C 0.42716 0.85055 0.37524 0.0
C4309 C 0.41634 0.85699 0.38579 0.0
C4310 C 0.44553 0.88612 0.35735 0.0
C4311 C 0.42823 0.83364 0.37415 0.0
C4312 C 0.45428 0.83903 0.32966 0.0
C4313 C 0.46862 0.83642 0.33488 0.0
C4314 C 0.44405 0.84725 0.3394 0.0
C4315 C 0.44831 0.85309 0.35469 0.0
C4316 C 0.46306 0.85108 0.35977 0.0
C4317 C 0.47301 0.84269 0.34982 0.0
C4318 C 0.42838 0.84901 0.33359 0.0
C4319 C 0.46809 0.85727 0.37593 0.0
H4320 H 0.42322 0.89396 0.37868 0.0
H4321 H 0.40901 0.8497 0.39295 0.0
H4322 H 0.45782 0.88543 0.35961 0.0
H4323 H 0.44394 0.88242 0.34477 0.0
H4324 H 0.44304 0.89814 0.35979 0.0
H4325 H 0.41977 0.82789 0.38217 0.0
H4326 H 0.4262 0.82843 0.36205 0.0
H4327 H 0.43998 0.83143 0.377 0.0
H4328 H 0.45076 0.83405 0.31818 0.0
H4329 H 0.48415 0.84082 0.35383 0.0
H4330 H 0.42599 0.86107 0.33549 0.0
H4331 H 0.41937 0.8424 0.34029 0.0
H4332 H 0.42736 0.84498 0.321 0.0
H4333 H 0.46621 0.86944 0.37831 0.0
H4334 H 0.48042 0.85606 0.37752 0.0
H4335 H 0.46103 0.85111 0.38472 0.0
C4336 C 0.34555 0.88707 0.74178 0.0
C4337 C 0.35052 0.88329 0.72626 0.0
C4338 C 0.34199 0.90185 0.74705 0.0
C4339 C 0.3433 0.91305 0.7365 0.0
C4340 C 0.34882 0.90943 0.72098 0.0
C4341 C 0.35243 0.89464 0.71608 0.0
C4342 C 0.33636 0.90535 0.76375 0.0
C4343 C 0.35031 0.92103 0.70935 0.0
C4344 C 0.31789 0.94534 0.74255 0.0
C4345 C 0.32839 0.9577 0.74778 0.0
C4346 C 0.32253 0.9307 0.73921 0.0
C4347 C 0.33801 0.92827 0.74131 0.0
C4348 C 0.34854 0.94056 0.74713 0.0
C4349 C 0.34363 0.95514 0.75022 0.0
C4350 C 0.31095 0.9179 0.73299 0.0
C4351 C 0.36511 0.93839 0.74965 0.0
H4352 H 0.34413 0.87841 0.74976 0.0
H4353 H 0.35629 0.89186 0.70407 0.0
H4354 H 0.34307 0.91568 0.76928 0.0
H4355 H 0.32414 0.90772 0.76406 0.0
H4356 H 0.33727 0.89581 0.77082 0.0
H4357 H 0.3555 0.91664 0.69795 0.0
H4358 H 0.33876 0.92441 0.70735 0.0
H4359 H 0.3575 0.93142 0.714 0.0
H4360 H 0.30603 0.94715 0.74093 0.0
H4361 H 0.35186 0.96463 0.75411 0.0
H4362 H 0.31032 0.90841 0.74037 0.0
H4363 H 0.31467 0.9134 0.72104 0.0
H4364 H 0.29923 0.92156 0.73254 0.0
H4365 H 0.36567 0.92886 0.75679 0.0
H4366 H 0.37147 0.94877 0.75552 0.0
H4367 H 0.37106 0.93537 0.73825 0.0
C4368 C 0.62252 0.83937 0.67489 0.0
C4369 C 0.61344 0.84215 0.66276 0.0
C4370 C 0.61618 0.83104 0.68697 0.0
C4371 C 0.60043 0.82531 0.68686 0.0
C4372 C 0.59122 0.82807 0.67465 0.0
C4373 C 0.59783 0.83649 0.66277 0.0
C4374 C 0.62633 0.82838 0.69985 0.0
C4375 C 0.57438 0.8221 0.67412 0.0
C4376 C 0.5864 0.79199 0.7095 0.0
C4377 C 0.57923 0.79921 0.72277 0.0
C4378 C 0.59353 0.80037 0.69782 0.0
C4379 C 0.59353 0.81636 0.69947 0.0
C4380 C 0.58654 0.82375 0.71295 0.0
C4381 C 0.57945 0.81508 0.72443 0.0
C4382 C 0.60089 0.79209 0.68361 0.0
C4383 C 0.58634 0.84079 0.71513 0.0
H4384 H 0.63458 0.84375 0.67499 0.0
H4385 H 0.59073 0.83857 0.65344 0.0
H4386 H 0.62153 0.83309 0.71129 0.0
H4387 H 0.62661 0.81601 0.7003 0.0
H4388 H 0.63834 0.83367 0.69827 0.0
H4389 H 0.56881 0.82524 0.66381 0.0
H4390 H 0.57312 0.80954 0.67378 0.0
H4391 H 0.56811 0.82661 0.68483 0.0
H4392 H 0.58649 0.77975 0.70827 0.0
H4393 H 0.57377 0.82071 0.73456 0.0
H4394 H 0.61319 0.79653 0.68228 0.0
H4395 H 0.59513 0.79413 0.67297 0.0
H4396 H 0.60017 0.77965 0.68426 0.0
H4397 H 0.59825 0.84644 0.71425 0.0
H4398 H 0.58099 0.84483 0.72658 0.0
H4399 H 0.57982 0.84441 0.70574 0.0
C4400 C 0.42323 0.22777 0.67544 0.0
C4401 C 0.41271 0.23245 0.66565 0.0
C4402 C 0.43191 0.23832 0.68565 0.0
C4403 C 0.43015 0.25396 0.68602 0.0
C4404 C 0.41988 0.25884 0.67589 0.0
C4405 C 0.41123 0.24801 0.66585 0.0
C4406 C 0.4427 0.23267 0.69633 0.0
C4407 C 0.41783 0.27545 0.67586 0.0
C4408 C 0.44078 0.27792 0.72381 0.0
C4409 C 0.4559 0.28392 0.72028 0.0
C4410 C 0.4321 0.26851 0.71262 0.0
C4411 C 0.43867 0.26509 0.69748 0.0
C4412 C 0.45371 0.27153 0.69365 0.0
C4413 C 0.46217 0.28082 0.70511 0.0
C4414 C 0.41609 0.26184 0.71715 0.0
C4415 C 0.46106 0.2682 0.6776 0.0
H4416 H 0.42446 0.21578 0.67539 0.0
H4417 H 0.40317 0.25173 0.65829 0.0
H4418 H 0.45454 0.23828 0.69467 0.0
H4419 H 0.43899 0.23564 0.70867 0.0
H4420 H 0.44308 0.22017 0.69427 0.0
H4421 H 0.41002 0.27744 0.66669 0.0
H4422 H 0.41299 0.27993 0.68738 0.0
H4423 H 0.42915 0.28206 0.67399 0.0
H4424 H 0.43575 0.28049 0.73542 0.0
H4425 H 0.47391 0.28527 0.70232 0.0
H4426 H 0.41573 0.24929 0.71647 0.0
H4427 H 0.40766 0.26445 0.7089 0.0
H4428 H 0.41239 0.26621 0.72917 0.0
H4429 H 0.46298 0.25601 0.67556 0.0
H4430 H 0.47229 0.27511 0.67609 0.0
H4431 H 0.45328 0.27042 0.66852 0.0
C4432 C 0.74521 0.7174 0.1902 0.0
C4433 C 0.72907 0.71591 0.19193 0.0
C4434 C 0.75268 0.72209 0.17648 0.0
C4435 C 0.74379 0.72522 0.16417 0.0
C4436 C 0.72751 0.72333 0.16569 0.0
C4437 C 0.72036 0.71878 0.17956 0.0
C4438 C 0.77007 0.72406 0.1753 0.0
C4439 C 0.7176 0.72637 0.15275 0.0
C4440 C 0.75923 0.752 0.13449 0.0
C4441 C 0.7621 0.7418 0.12135 0.0
C4442 C 0.75401 0.74674 0.14875 0.0
C4443 C 0.75138 0.73091 0.14982 0.0
C4444 C 0.75481 0.72057 0.13673 0.0
C4445 C 0.76019 0.72616 0.12266 0.0
C4446 C 0.75065 0.75813 0.16248 0.0
C4447 C 0.752 0.70362 0.13733 0.0
H4448 H 0.75204 0.71525 0.19971 0.0
H4449 H 0.70789 0.71757 0.18073 0.0
H4450 H 0.77428 0.71723 0.16472 0.0
H4451 H 0.77416 0.73613 0.17413 0.0
H4452 H 0.77531 0.72063 0.18566 0.0
H4453 H 0.70511 0.72373 0.15551 0.0
H4454 H 0.71974 0.73848 0.15062 0.0
H4455 H 0.72067 0.71947 0.14174 0.0
H4456 H 0.76077 0.7641 0.13349 0.0
H4457 H 0.76218 0.71825 0.11245 0.0
H4458 H 0.75627 0.75557 0.17299 0.0
H4459 H 0.73806 0.75737 0.16518 0.0
H4460 H 0.75467 0.76997 0.16019 0.0
H4461 H 0.75737 0.70032 0.14764 0.0
H4462 H 0.7566 0.69716 0.12666 0.0
H4463 H 0.73943 0.70025 0.13853 0.0
C4464 C 0.3627 0.68006 0.09934 0.0
C4465 C 0.35869 0.68073 0.11532 0.0
C4466 C 0.35735 0.69015 0.08998 0.0
C4467 C 0.34804 0.70137 0.09685 0.0
C4468 C 0.3439 0.70205 0.11296 0.0
C4469 C 0.34915 0.69162 0.12197 0.0
C4470 C 0.36173 0.68888 0.07277 0.0
C4471 C 0.3342 0.71402 0.12075 0.0
C4472 C 0.34703 0.73703 0.07675 0.0
C4473 C 0.33258 0.73446 0.06996 0.0
C4474 C 0.35221 0.72635 0.08551 0.0
C4475 C 0.34285 0.71261 0.08727 0.0
C4476 C 0.32841 0.70978 0.08021 0.0
C4477 C 0.32338 0.7208 0.07179 0.0
C4478 C 0.36761 0.72985 0.09303 0.0
C4479 C 0.31821 0.69516 0.08167 0.0
H4480 H 0.37001 0.6716 0.09414 0.0
H4481 H 0.3461 0.69226 0.13434 0.0
H4482 H 0.35121 0.68759 0.06584 0.0
H4483 H 0.36869 0.69943 0.06988 0.0
H4484 H 0.36846 0.6791 0.06912 0.0
H4485 H 0.33194 0.71296 0.13338 0.0
H4486 H 0.34012 0.72549 0.11942 0.0
H4487 H 0.323 0.71319 0.11504 0.0
H4488 H 0.35437 0.74739 0.07518 0.0
H4489 H 0.31208 0.71877 0.06685 0.0
H4490 H 0.37529 0.72102 0.08872 0.0
H4491 H 0.36605 0.72966 0.10585 0.0
H4492 H 0.37344 0.74111 0.09064 0.0
H4493 H 0.32467 0.68528 0.07769 0.0
H4494 H 0.3077 0.69435 0.07475 0.0
H4495 H 0.31462 0.69431 0.09407 0.0
C4496 C 0.38564 0.36567 0.09413 0.0
C4497 C 0.39586 0.36132 0.10445 0.0
C4498 C 0.37544 0.35485 0.08578 0.0
C4499 C 0.37555 0.3393 0.0877 0.0
C4500 C 0.38665 0.33473 0.09712 0.0
C4501 C 0.39665 0.34581 0.10544 0.0
C4502 C 0.36377 0.36019 0.07586 0.0
C4503 C 0.38729 0.31822 0.09926 0.0
C4504 C 0.33736 0.31474 0.08525 0.0
C4505 C 0.33847 0.30689 0.07028 0.0
C4506 C 0.34931 0.32536 0.09094 0.0
C4507 C 0.36284 0.32811 0.08153 0.0
C4508 C 0.3641 0.32023 0.06642 0.0
C4509 C 0.35187 0.30975 0.06094 0.0
C4510 C 0.34748 0.33356 0.10712 0.0
C4511 C 0.3784 0.32282 0.05611 0.0
H4512 H 0.38499 0.37762 0.09319 0.0
H4513 H 0.4046 0.34231 0.11326 0.0
H4514 H 0.36322 0.35331 0.06433 0.0
H4515 H 0.35217 0.3587 0.08167 0.0
H4516 H 0.36644 0.37235 0.07399 0.0
H4517 H 0.39787 0.31637 0.10512 0.0
H4518 H 0.37712 0.3142 0.10648 0.0
H4519 H 0.38684 0.31113 0.08784 0.0
H4520 H 0.32723 0.31236 0.09271 0.0
H4521 H 0.35278 0.30381 0.04932 0.0
H4522 H 0.34879 0.34602 0.10656 0.0
H4523 H 0.35662 0.33096 0.11459 0.0
H4524 H 0.33609 0.33034 0.11281 0.0
H4525 H 0.3804 0.33494 0.054 0.0
H4526 H 0.3776 0.31574 0.04467 0.0
H4527 H 0.38861 0.32014 0.06203 0.0
C4528 C 0.68572 0.38621 0.0733 0.0
C4529 C 0.67013 0.38105 0.07566 0.0
C4530 C 0.69649 0.37608 0.06775 0.0
C4531 C 0.69147 0.36049 0.06413 0.0
C4532 C 0.67567 0.35529 0.06608 0.0
C4533 C 0.6652 0.36562 0.07202 0.0
C4534 C 0.71329 0.382 0.06614 0.0
C4535 C 0.66984 0.33881 0.062 0.0
C4536 C 0.71822 0.33692 0.03797 0.0
C4537 C 0.72487 0.32931 0.04885 0.0
C4538 C 0.70709 0.34691 0.04273 0.0
C4539 C 0.70285 0.34957 0.05878 0.0
C4540 C 0.70966 0.34194 0.0698 0.0
C4541 C 0.72047 0.33173 0.06466 0.0
C4542 C 0.69983 0.35454 0.03059 0.0
C4543 C 0.70569 0.34471 0.08704 0.0
H4544 H 0.68959 0.39813 0.0762 0.0
H4545 H 0.65314 0.36161 0.07373 0.0
H4546 H 0.72018 0.37625 0.07371 0.0
H4547 H 0.71765 0.37939 0.05396 0.0
H4548 H 0.71529 0.39446 0.06938 0.0
H4549 H 0.65709 0.33677 0.06333 0.0
H4550 H 0.67338 0.33502 0.04979 0.0
H4551 H 0.67502 0.33165 0.06963 0.0
H4552 H 0.72159 0.33488 0.02571 0.0
H4553 H 0.72573 0.32583 0.07301 0.0
H4554 H 0.70233 0.36705 0.03285 0.0
H4555 H 0.68712 0.35193 0.03131 0.0
H4556 H 0.70407 0.35089 0.01855 0.0
H4557 H 0.70824 0.35695 0.09111 0.0
H4558 H 0.7122 0.33804 0.09409 0.0
H4559 H 0.69319 0.34168 0.08928 0.0
C4560 C 0.69854 0.3581 0.9303 0.0
C4561 C 0.70149 0.37377 0.93454 0.0
C4562 C 0.70541 0.34763 0.93802 0.0
C4563 C 0.71568 0.35299 0.95006 0.0
C4564 C 0.71873 0.3688 0.95437 0.0
C4565 C 0.71149 0.379 0.94665 0.0
C4566 C 0.70167 0.33085 0.9333 0.0
C4567 C 0.72982 0.37496 0.96698 0.0
C4568 C 0.72466 0.32676 0.97947 0.0
C4569 C 0.73879 0.32203 0.97343 0.0
C4570 C 0.71688 0.33663 0.97185 0.0
C4571 C 0.72349 0.34209 0.95798 0.0
C4572 C 0.73771 0.33734 0.9518 0.0
C4573 C 0.74513 0.32729 0.95953 0.0
C4574 C 0.70167 0.34136 0.97875 0.0
C4575 C 0.7452 0.34304 0.93712 0.0
H4576 H 0.69074 0.35399 0.92102 0.0
H4577 H 0.71387 0.3911 0.94993 0.0
H4578 H 0.7123 0.3257 0.92898 0.0
H4579 H 0.69708 0.3251 0.94358 0.0
H4580 H 0.69308 0.32852 0.92405 0.0
H4581 H 0.73096 0.38757 0.96892 0.0
H4582 H 0.72592 0.37042 0.97812 0.0
H4583 H 0.74138 0.37119 0.96379 0.0
H4584 H 0.7198 0.32299 0.99035 0.0
H4585 H 0.75591 0.32352 0.95465 0.0
H4586 H 0.69272 0.33899 0.96988 0.0
H4587 H 0.70278 0.35376 0.98235 0.0
H4588 H 0.69766 0.33539 0.98908 0.0
H4589 H 0.7374 0.33994 0.92726 0.0
H4590 H 0.75634 0.33833 0.9339 0.0
H4591 H 0.7473 0.35562 0.93871 0.0
C4592 C 0.65583 0.66002 0.96195 0.0
C4593 C 0.66221 0.65085 0.94952 0.0
C4594 C 0.66525 0.66885 0.97295 0.0
C4595 C 0.68142 0.66854 0.97144 0.0
C4596 C 0.68785 0.65862 0.9595 0.0
C4597 C 0.67817 0.64986 0.94871 0.0
C4598 C 0.65796 0.67917 0.98563 0.0
C4599 C 0.70505 0.65794 0.95754 0.0
C4600 C 0.70643 0.70449 0.98531 0.0
C4601 C 0.71169 0.70084 0.99937 0.0
C4602 C 0.69651 0.69408 0.9762 0.0
C4603 C 0.69169 0.67968 0.98128 0.0
C4604 C 0.69686 0.67596 0.99552 0.0
C4605 C 0.70685 0.68659 0.00439 0.0
C4606 C 0.69132 0.69844 0.96102 0.0
C4607 C 0.69187 0.66076 0.00133 0.0
H4608 H 0.64351 0.66077 0.96276 0.0
H4609 H 0.68321 0.64276 0.9392 0.0
H4610 H 0.66256 0.67798 0.99713 0.0
H4611 H 0.66085 0.69116 0.98329 0.0
H4612 H 0.64521 0.67676 0.98635 0.0
H4613 H 0.70809 0.64855 0.94872 0.0
H4614 H 0.7106 0.66882 0.95379 0.0
H4615 H 0.70998 0.65644 0.9688 0.0
H4616 H 0.71033 0.71541 0.98129 0.0
H4617 H 0.71079 0.6838 0.01533 0.0
H4618 H 0.67856 0.69769 0.96112 0.0
H4619 H 0.69509 0.69041 0.95116 0.0
H4620 H 0.69601 0.71014 0.95883 0.0
H4621 H 0.67912 0.65901 0.00251 0.0
H4622 H 0.69672 0.65973 0.01278 0.0
H4623 H 0.69561 0.6515 0.99275 0.0
C4624 C 0.35012 0.76202 0.8777 0.0
C4625 C 0.33925 0.76324 0.86661 0.0
C4626 C 0.34851 0.76886 0.89304 0.0
C4627 C 0.3356 0.77694 0.8974 0.0
C4628 C 0.32534 0.77933 0.88593 0.0
C4629 C 0.32734 0.77251 0.87061 0.0
C4630 C 0.35987 0.76628 0.90486 0.0
C4631 C 0.31143 0.78787 0.89013 0.0
C4632 C 0.31857 0.7723 0.93793 0.0
C4633 C 0.3233 0.78636 0.94618 0.0
C4634 C 0.32239 0.76924 0.92205 0.0
C4635 C 0.33139 0.78045 0.9142 0.0
C4636 C 0.33639 0.79463 0.92244 0.0
C4637 C 0.33225 0.79744 0.93838 0.0
C4638 C 0.31684 0.75394 0.91371 0.0
C4639 C 0.34611 0.80676 0.91445 0.0
H4640 H 0.35951 0.75508 0.87461 0.0
H4641 H 0.31893 0.77357 0.86207 0.0
H4642 H 0.36301 0.77689 0.91255 0.0
H4643 H 0.35452 0.75767 0.91236 0.0
H4644 H 0.37056 0.76215 0.89918 0.0
H4645 H 0.30609 0.79086 0.87962 0.0
H4646 H 0.3027 0.7807 0.89657 0.0
H4647 H 0.31456 0.79843 0.89788 0.0
H4648 H 0.31198 0.76354 0.94396 0.0
H4649 H 0.33589 0.80835 0.94468 0.0
H4650 H 0.32685 0.74788 0.90914 0.0
H4651 H 0.31002 0.75545 0.90359 0.0
H4652 H 0.30959 0.74665 0.92144 0.0
H4653 H 0.35691 0.80235 0.90947 0.0
H4654 H 0.34912 0.81716 0.92253 0.0
H4655 H 0.33986 0.80991 0.9046 0.0
C4656 C 0.32814 0.31677 0.92786 0.0
C4657 C 0.31703 0.32343 0.92048 0.0
C4658 C 0.32427 0.30917 0.94112 0.0
C4659 C 0.30889 0.30816 0.94718 0.0
C4660 C 0.2976 0.31489 0.93984 0.0
C4661 C 0.3018 0.32246 0.92657 0.0
C4662 C 0.33667 0.30219 0.94862 0.0
C4663 C 0.28107 0.31404 0.94598 0.0
C4664 C 0.29693 0.27658 0.97289 0.0
C4665 C 0.29816 0.28438 0.9879 0.0
C4666 C 0.30012 0.28423 0.95954 0.0
C4667 C 0.3047 0.30005 0.96122 0.0
C4668 C 0.30585 0.30801 0.97633 0.0
C4669 C 0.30257 0.30008 0.98947 0.0
C4670 C 0.29872 0.27535 0.94362 0.0
C4671 C 0.31078 0.32486 0.97861 0.0
H4672 H 0.33994 0.31746 0.92327 0.0
H4673 H 0.29313 0.32756 0.92095 0.0
H4674 H 0.33767 0.30708 0.96097 0.0
H4675 H 0.33352 0.28978 0.94863 0.0
H4676 H 0.3481 0.30405 0.94252 0.0
H4677 H 0.27368 0.31987 0.93896 0.0
H4678 H 0.27626 0.302 0.94596 0.0
H4679 H 0.28052 0.3193 0.95825 0.0
H4680 H 0.29332 0.2645 0.97159 0.0
H4681 H 0.30371 0.30615 0.00103 0.0
H4682 H 0.31008 0.27603 0.93725 0.0
H4683 H 0.29062 0.28035 0.93665 0.0
H4684 H 0.29459 0.2632 0.94431 0.0
H4685 H 0.32264 0.3272 0.97361 0.0
H4686 H 0.31058 0.32946 0.99112 0.0
H4687 H 0.30311 0.33105 0.97233 0.0
C4688 C 0.65645 0.74911 0.26666 0.0
C4689 C 0.65702 0.73433 0.25921 0.0
C4690 C 0.64239 0.7544 0.27213 0.0
C4691 C 0.62854 0.74471 0.27006 0.0
C4692 C 0.62909 0.72959 0.26313 0.0
C4693 C 0.64332 0.72457 0.25782 0.0
C4694 C 0.64229 0.77057 0.27956 0.0
C4695 C 0.61457 0.71891 0.26071 0.0
C4696 C 0.59169 0.75492 0.2923 0.0
C4697 C 0.5843 0.76146 0.28105 0.0
C4698 C 0.60619 0.74957 0.28899 0.0
C4699 C 0.61341 0.75072 0.27405 0.0
C4700 C 0.60605 0.75743 0.26271 0.0
C4701 C 0.59161 0.76273 0.26635 0.0
C4702 C 0.61373 0.74257 0.30141 0.0
C4703 C 0.61331 0.7588 0.2466 0.0
H4704 H 0.66697 0.75671 0.26787 0.0
H4705 H 0.64363 0.71312 0.25212 0.0
H4706 H 0.63645 0.77722 0.27192 0.0
H4707 H 0.63569 0.77088 0.29089 0.0
H4708 H 0.6541 0.77621 0.28154 0.0
H4709 H 0.61704 0.70721 0.25618 0.0
H4710 H 0.60769 0.71843 0.27183 0.0
H4711 H 0.60734 0.72318 0.25229 0.0
H4712 H 0.58614 0.75401 0.30372 0.0
H4713 H 0.58585 0.76753 0.25752 0.0
H4714 H 0.62529 0.74866 0.30366 0.0
H4715 H 0.61542 0.73058 0.29731 0.0
H4716 H 0.60679 0.74287 0.31255 0.0
H4717 H 0.62486 0.76531 0.24748 0.0
H4718 H 0.6062 0.76455 0.23922 0.0
H4719 H 0.61496 0.74735 0.24067 0.0
C4720 C 0.36503 0.59222 0.16405 0.0
C4721 C 0.36091 0.60713 0.16578 0.0
C4722 C 0.35578 0.58058 0.17078 0.0
C4723 C 0.34204 0.58394 0.17925 0.0
C4724 C 0.3374 0.59878 0.18024 0.0
C4725 C 0.34695 0.61021 0.17358 0.0
C4726 C 0.36115 0.56492 0.16958 0.0
C4727 C 0.3227 0.60275 0.18896 0.0
C4728 C 0.31222 0.5524 0.19067 0.0
C4729 C 0.3153 0.55206 0.20643 0.0
C4730 C 0.321 0.56253 0.18154 0.0
C4731 C 0.33322 0.57241 0.18829 0.0
C4732 C 0.33664 0.57184 0.20406 0.0
C4733 C 0.32758 0.56177 0.21295 0.0
C4734 C 0.31697 0.56289 0.16478 0.0
C4735 C 0.34965 0.58216 0.21168 0.0
H4736 H 0.37582 0.58977 0.15804 0.0
H4737 H 0.34362 0.62168 0.1748 0.0
H4738 H 0.36442 0.56252 0.18124 0.0
H4739 H 0.35171 0.55617 0.16572 0.0
H4740 H 0.37123 0.56377 0.16133 0.0
H4741 H 0.31999 0.61437 0.18734 0.0
H4742 H 0.31287 0.5945 0.18502 0.0
H4743 H 0.32378 0.60207 0.20161 0.0
H4744 H 0.3029 0.54479 0.18547 0.0
H4745 H 0.3299 0.5618 0.22518 0.0
H4746 H 0.32724 0.56127 0.15693 0.0
H4747 H 0.31331 0.57417 0.16325 0.0
H4748 H 0.30755 0.55401 0.16109 0.0
H4749 H 0.36056 0.58102 0.2047 0.0
H4750 H 0.3514 0.57964 0.22375 0.0
H4751 H 0.34718 0.59417 0.21212 0.0
C4752 C 0.4366 0.35402 0.18889 0.0
C4753 C 0.44554 0.36332 0.17908 0.0
C4754 C 0.44354 0.34581 0.19909 0.0
C4755 C 0.4598 0.34714 0.1997 0.0
C4756 C 0.46889 0.35672 0.19002 0.0
C4757 C 0.46165 0.36459 0.17971 0.0
C4758 C 0.43346 0.33552 0.20906 0.0
C4759 C 0.48625 0.35864 0.19054 0.0
C4760 C 0.4758 0.33512 0.23604 0.0
C4761 C 0.47962 0.32044 0.23077 0.0
C4762 C 0.46978 0.34412 0.22594 0.0
C4763 C 0.46726 0.33823 0.21025 0.0
C4764 C 0.47131 0.32355 0.20478 0.0
C4765 C 0.47757 0.31491 0.21505 0.0
C4766 C 0.4658 0.35982 0.23214 0.0
C4767 C 0.4687 0.31681 0.18816 0.0
H4768 H 0.42415 0.35293 0.18841 0.0
H4769 H 0.46861 0.37184 0.17222 0.0
H4770 H 0.43638 0.32366 0.20637 0.0
H4771 H 0.4356 0.33895 0.22158 0.0
H4772 H 0.42099 0.33575 0.20719 0.0
H4773 H 0.49162 0.36692 0.18265 0.0
H4774 H 0.4898 0.36254 0.20261 0.0
H4775 H 0.49085 0.34756 0.18713 0.0
H4776 H 0.47714 0.33947 0.24818 0.0
H4777 H 0.48079 0.30374 0.21075 0.0
H4778 H 0.45317 0.36025 0.23195 0.0
H4779 H 0.47133 0.36832 0.22459 0.0
H4780 H 0.46951 0.36316 0.24428 0.0
H4781 H 0.45624 0.31596 0.18582 0.0
H4782 H 0.47269 0.30533 0.18567 0.0
H4783 H 0.47483 0.32431 0.17992 0.0
C4784 C 0.64457 0.41973 0.16329 0.0
C4785 C 0.65207 0.42203 0.14888 0.0
C4786 C 0.6513 0.42592 0.17736 0.0
C4787 C 0.66573 0.43481 0.17695 0.0
C4788 C 0.67324 0.43732 0.16241 0.0
C4789 C 0.66631 0.43092 0.14858 0.0
C4790 C 0.64292 0.42306 0.19264 0.0
C4791 C 0.68861 0.4468 0.16146 0.0
C4792 C 0.67854 0.46369 0.21069 0.0
C4793 C 0.68962 0.45629 0.21726 0.0
C4794 C 0.67021 0.45659 0.19793 0.0
C4795 C 0.67301 0.44172 0.19162 0.0
C4796 C 0.68372 0.43396 0.19861 0.0
C4797 C 0.69194 0.44137 0.21132 0.0
C4798 C 0.65895 0.46527 0.19075 0.0
C4799 C 0.68691 0.41805 0.19231 0.0
H4800 H 0.63327 0.41344 0.1636 0.0
H4801 H 0.67214 0.43277 0.13746 0.0
H4802 H 0.65048 0.418 0.20016 0.0
H4803 H 0.64 0.43397 0.19899 0.0
H4804 H 0.63213 0.41533 0.19097 0.0
H4805 H 0.69291 0.44768 0.14923 0.0
H4806 H 0.68762 0.45842 0.1673 0.0
H4807 H 0.6973 0.44179 0.16769 0.0
H4808 H 0.67682 0.47529 0.21514 0.0
H4809 H 0.70036 0.43555 0.2165 0.0
H4810 H 0.64766 0.45836 0.18944 0.0
H4811 H 0.66332 0.46773 0.17891 0.0
H4812 H 0.65715 0.4762 0.19782 0.0
H4813 H 0.67596 0.41051 0.19122 0.0
H4814 H 0.6946 0.41314 0.19984 0.0
H4815 H 0.69244 0.41815 0.18046 0.0
C4816 C 0.62048 0.4024 0.85725 0.0
C4817 C 0.62368 0.40127 0.87282 0.0
C4818 C 0.60737 0.39443 0.85043 0.0
C4819 C 0.59716 0.38508 0.85939 0.0
C4820 C 0.60023 0.38394 0.87515 0.0
C4821 C 0.61348 0.39206 0.88169 0.0
C4822 C 0.60451 0.39593 0.83358 0.0
C4823 C 0.58958 0.37407 0.88503 0.0
C4824 C 0.55724 0.37546 0.84332 0.0
C4825 C 0.55863 0.36127 0.83482 0.0
C4826 C 0.56949 0.38308 0.85195 0.0
C4827 C 0.58345 0.37635 0.85203 0.0
C4828 C 0.58471 0.36178 0.84396 0.0
C4829 C 0.57229 0.35442 0.83544 0.0
C4830 C 0.56769 0.39858 0.86047 0.0
C4831 C 0.59942 0.35424 0.84373 0.0
H4832 H 0.62828 0.4095 0.8503 0.0
H4833 H 0.61587 0.39114 0.89373 0.0
H4834 H 0.60424 0.38464 0.82664 0.0
H4835 H 0.59312 0.40014 0.83266 0.0
H4836 H 0.61349 0.40381 0.82828 0.0
H4837 H 0.59343 0.37466 0.89717 0.0
H4838 H 0.57775 0.37759 0.88537 0.0
H4839 H 0.58894 0.36208 0.87977 0.0
H4840 H 0.54663 0.3807 0.84305 0.0
H4841 H 0.57351 0.34354 0.82874 0.0
H4842 H 0.57553 0.40727 0.85496 0.0
H4843 H 0.57099 0.399 0.87277 0.0
H4844 H 0.55571 0.40166 0.86034 0.0
H4845 H 0.60869 0.3608 0.8373 0.0
H4846 H 0.59808 0.34238 0.83804 0.0
H4847 H 0.60324 0.35415 0.85578 0.0
C4848 C 0.6889 0.60551 0.86547 0.0
C4849 C 0.67631 0.59814 0.87328 0.0
C4850 C 0.69979 0.59722 0.85679 0.0
C4851 C 0.69792 0.58115 0.8557 0.0
C4852 C 0.68512 0.57362 0.86339 0.0
C4853 C 0.67452 0.58222 0.87219 0.0
C4854 C 0.71339 0.60567 0.8489 0.0
C4855 C 0.68263 0.55651 0.86229 0.0
C4856 C 0.71935 0.56113 0.82148 0.0
C4857 C 0.73248 0.5576 0.82852 0.0
C4858 C 0.70776 0.56833 0.83029 0.0
C4859 C 0.70941 0.5723 0.8465 0.0
C4860 C 0.72244 0.56849 0.85375 0.0
C4861 C 0.73376 0.5611 0.8447 0.0
C4862 C 0.69395 0.57207 0.82216 0.0
C4863 C 0.72465 0.57262 0.871 0.0
H4864 H 0.6904 0.61781 0.86633 0.0
H4865 H 0.66478 0.57645 0.87816 0.0
H4866 H 0.72429 0.60261 0.85319 0.0
H4867 H 0.71343 0.60231 0.83613 0.0
H4868 H 0.71324 0.61819 0.85103 0.0
H4869 H 0.67197 0.55239 0.86875 0.0
H4870 H 0.68189 0.55172 0.84989 0.0
H4871 H 0.69258 0.55201 0.86704 0.0
H4872 H 0.71834 0.55871 0.80897 0.0
H4873 H 0.74372 0.55819 0.85028 0.0
H4874 H 0.69404 0.58458 0.82258 0.0
H4875 H 0.68314 0.56778 0.82823 0.0
H4876 H 0.6938 0.56715 0.80975 0.0
H4877 H 0.7256 0.58515 0.87373 0.0
H4878 H 0.73514 0.56837 0.87496 0.0
H4879 H 0.71451 0.5679 0.8778 0.0
C4880 C 0.38603 0.73291 0.79748 0.0
C4881 C 0.37679 0.74452 0.79582 0.0
C4882 C 0.40193 0.73474 0.79411 0.0
C4883 C 0.40876 0.74854 0.78895 0.0
C4884 C 0.39941 0.76 0.78645 0.0
C4885 C 0.38349 0.75787 0.78994 0.0
C4886 C 0.41152 0.72219 0.79677 0.0
C4887 C 0.40629 0.77477 0.78076 0.0
C4888 C 0.45031 0.75856 0.79993 0.0
C4889 C 0.45826 0.75349 0.78618 0.0
C4890 C 0.43418 0.75754 0.80078 0.0
C4891 C 0.42582 0.75135 0.78751 0.0
C4892 C 0.4338 0.74682 0.77337 0.0
C4893 C 0.44995 0.74787 0.7729 0.0
C4894 C 0.42609 0.76252 0.81607 0.0
C4895 C 0.42531 0.74027 0.75894 0.0
H4896 H 0.38093 0.72251 0.80189 0.0
H4897 H 0.37641 0.76687 0.78855 0.0
H4898 H 0.41877 0.7192 0.78619 0.0
H4899 H 0.41939 0.72613 0.80643 0.0
H4900 H 0.40432 0.71178 0.79978 0.0
H4901 H 0.39732 0.78171 0.77758 0.0
H4902 H 0.41324 0.78149 0.79003 0.0
H4903 H 0.41415 0.77258 0.77045 0.0
H4904 H 0.45671 0.76285 0.81023 0.0
H4905 H 0.45611 0.74416 0.76217 0.0
H4906 H 0.41948 0.75254 0.82072 0.0
H4907 H 0.41773 0.77065 0.81426 0.0
H4908 H 0.43427 0.76799 0.82497 0.0
H4909 H 0.42068 0.72836 0.76022 0.0
H4910 H 0.43298 0.74031 0.74827 0.0
H4911 H 0.41541 0.74669 0.75733 0.0
C4912 C 0.27839 0.39866 0.82907 0.0
C4913 C 0.28344 0.3985 0.84422 0.0
C4914 C 0.27185 0.41126 0.82477 0.0
C4915 C 0.27005 0.42389 0.83597 0.0
C4916 C 0.27485 0.42367 0.85137 0.0
C4917 C 0.28162 0.41104 0.85527 0.0
C4918 C 0.26714 0.41116 0.80816 0.0
C4919 C 0.27289 0.43681 0.86372 0.0
C4920 C 0.26739 0.46245 0.82194 0.0
C4921 C 0.25142 0.46344 0.82269 0.0
C4922 C 0.27356 0.44961 0.82609 0.0
C4923 C 0.26358 0.43753 0.83145 0.0
C4924 C 0.24748 0.43849 0.83244 0.0
C4925 C 0.24158 0.45136 0.82793 0.0
C4926 C 0.2908 0.44898 0.82472 0.0
C4927 C 0.23647 0.42592 0.83829 0.0
H4928 H 0.27982 0.38903 0.82045 0.0
H4929 H 0.2854 0.41095 0.86703 0.0
H4930 H 0.25474 0.41281 0.80797 0.0
H4931 H 0.27371 0.42075 0.80277 0.0
H4932 H 0.26917 0.4004 0.8009 0.0
H4933 H 0.2766 0.43459 0.87531 0.0
H4934 H 0.27973 0.44722 0.86027 0.0
H4935 H 0.26064 0.43916 0.86483 0.0
H4936 H 0.27516 0.47182 0.81827 0.0
H4937 H 0.22923 0.45187 0.82839 0.0
H4938 H 0.29354 0.43871 0.81703 0.0
H4939 H 0.29531 0.44813 0.83635 0.0
H4940 H 0.29694 0.45914 0.81993 0.0
H4941 H 0.23739 0.4152 0.83056 0.0
H4942 H 0.22431 0.42858 0.83879 0.0
H4943 H 0.23957 0.42385 0.85013 0.0
C4944 C 0.71318 0.64437 0.25201 0.0
C4945 C 0.72549 0.65581 0.25146 0.0
C4946 C 0.7156 0.62968 0.25517 0.0
C4947 C 0.73073 0.62628 0.25753 0.0
C4948 C 0.74321 0.63775 0.25687 0.0
C4949 C 0.74042 0.65242 0.25398 0.0
C4950 C 0.70195 0.61782 0.25602 0.0
C4951 C 0.75954 0.6345 0.25905 0.0
C4952 C 0.73578 0.59188 0.27857 0.0
C4953 C 0.738 0.58071 0.26606 0.0
C4954 C 0.73339 0.60674 0.27597 0.0
C4955 C 0.73349 0.61064 0.26051 0.0
C4956 C 0.73602 0.59954 0.24784 0.0
C4957 C 0.73808 0.58471 0.25076 0.0
C4958 C 0.73057 0.61822 0.28978 0.0
C4959 C 0.73639 0.60328 0.23118 0.0
H4960 H 0.7016 0.64693 0.25017 0.0
H4961 H 0.74999 0.66119 0.25349 0.0
H4962 H 0.70336 0.60814 0.24698 0.0
H4963 H 0.7013 0.61329 0.26753 0.0
H4964 H 0.69089 0.6224 0.25432 0.0
H4965 H 0.76797 0.64464 0.25809 0.0
H4966 H 0.76045 0.6305 0.27065 0.0
H4967 H 0.76275 0.62527 0.25015 0.0
H4968 H 0.73591 0.58904 0.29043 0.0
H4969 H 0.73946 0.57615 0.24097 0.0
H4970 H 0.71922 0.62256 0.28893 0.0
H4971 H 0.73946 0.62809 0.28977 0.0
H4972 H 0.73073 0.61336 0.30108 0.0
H4973 H 0.72502 0.60658 0.22843 0.0
H4974 H 0.73922 0.59356 0.22268 0.0
H4975 H 0.74503 0.61311 0.22959 0.0
C4976 C 0.70393 0.4525 0.87225 0.0
C4977 C 0.7082 0.44098 0.88049 0.0
C4978 C 0.71466 0.46041 0.86272 0.0
C4979 C 0.73011 0.45685 0.86149 0.0
C4980 C 0.73463 0.44554 0.87009 0.0
C4981 C 0.72359 0.43767 0.87945 0.0
C4982 C 0.70935 0.47234 0.85365 0.0
C4983 C 0.75105 0.44158 0.8692 0.0
C4984 C 0.75179 0.46718 0.82439 0.0
C4985 C 0.75925 0.48155 0.82928 0.0
C4986 C 0.74275 0.45873 0.8349 0.0
C4987 C 0.74129 0.46469 0.85074 0.0
C4988 C 0.74944 0.47881 0.85594 0.0
C4989 C 0.75825 0.48711 0.84513 0.0
C4990 C 0.73419 0.44373 0.82889 0.0
C4991 C 0.74829 0.48547 0.87278 0.0
H4992 H 0.69207 0.45514 0.87295 0.0
H4993 H 0.72701 0.42883 0.88582 0.0
H4994 H 0.71632 0.48338 0.8565 0.0
H4995 H 0.71108 0.46904 0.84096 0.0
H4996 H 0.697 0.47396 0.85614 0.0
H4997 H 0.7529 0.43313 0.87729 0.0
H4998 H 0.75412 0.43687 0.85714 0.0
H4999 H 0.75906 0.45195 0.87204 0.0
H5000 H 0.75275 0.46266 0.81223 0.0
H5001 H 0.76383 0.49826 0.84902 0.0
H5002 H 0.7216 0.44465 0.82986 0.0
H5003 H 0.73653 0.4347 0.83605 0.0
H5004 H 0.7374 0.44019 0.8165 0.0
H5005 H 0.73652 0.48886 0.87557 0.0
H5006 H 0.75672 0.49561 0.8753 0.0
H5007 H 0.75024 0.47689 0.88065 0.0
C5008 C 0.60683 0.66449 0.87097 0.0
C5009 C 0.59825 0.66376 0.88511 0.0
C5010 C 0.60263 0.6732 0.85958 0.0
C5011 C 0.58948 0.68127 0.86235 0.0
C5012 C 0.58049 0.68016 0.87636 0.0
C5013 C 0.58501 0.67146 0.88758 0.0
C5014 C 0.61251 0.67414 0.84479 0.0
C5015 C 0.5663 0.68849 0.87966 0.0
C5016 C 0.58664 0.7164 0.84191 0.0
C5017 C 0.57649 0.71077 0.83006 0.0
C5018 C 0.59122 0.70684 0.8523 0.0
C5019 C 0.5854 0.6913 0.85086 0.0
C5020 C 0.57531 0.6855 0.83879 0.0
C5021 C 0.57101 0.69531 0.8285 0.0
C5022 C 0.6021 0.71342 0.86495 0.0
C5023 C 0.56878 0.66904 0.83697 0.0
H5024 H 0.61709 0.65859 0.86897 0.0
H5025 H 0.57828 0.6709 0.89843 0.0
H5026 H 0.60536 0.67091 0.83444 0.0
H5027 H 0.61765 0.68601 0.84416 0.0
H5028 H 0.62197 0.66665 0.84411 0.0
H5029 H 0.56013 0.68583 0.89074 0.0
H5030 H 0.5696 0.70092 0.88038 0.0
H5031 H 0.55824 0.68551 0.86999 0.0
H5032 H 0.591 0.72832 0.84305 0.0
H5033 H 0.56298 0.69096 0.81949 0.0
H5034 H 0.61234 0.70698 0.8643 0.0
H5035 H 0.59631 0.71234 0.87657 0.0
H5036 H 0.60603 0.72559 0.86411 0.0
H5037 H 0.57823 0.66156 0.83589 0.0
H5038 H 0.56156 0.66619 0.8266 0.0
H5039 H 0.56163 0.66644 0.84751 0.0
C5040 C 0.29737 0.67582 0.84265 0.0
C5041 C 0.31163 0.67923 0.83495 0.0
C5042 C 0.28991 0.66101 0.84123 0.0
C5043 C 0.29695 0.64931 0.832 0.0
C5044 C 0.31146 0.65262 0.82439 0.0
C5045 C 0.3186 0.66757 0.82589 0.0
C5046 C 0.27436 0.65794 0.84938 0.0
C5047 C 0.31937 0.6404 0.81455 0.0
C5048 C 0.28288 0.60833 0.83772 0.0
C5049 C 0.2734 0.60425 0.825 0.0
C5050 C 0.29072 0.62296 0.84013 0.0
C5051 C 0.2888 0.63376 0.82969 0.0
C5052 C 0.27902 0.62973 0.81698 0.0
C5053 C 0.27151 0.615 0.81474 0.0
C5054 C 0.30118 0.62683 0.85373 0.0
C5055 C 0.27646 0.64098 0.80575 0.0
H5056 H 0.29191 0.68476 0.84968 0.0
H5057 H 0.32967 0.67011 0.82 0.0
H5058 H 0.26556 0.65384 0.84062 0.0
H5059 H 0.27468 0.64885 0.85713 0.0
H5060 H 0.27065 0.6682 0.85646 0.0
H5061 H 0.33096 0.64469 0.81003 0.0
H5062 H 0.32062 0.63086 0.82149 0.0
H5063 H 0.31225 0.63575 0.80449 0.0
H5064 H 0.28437 0.59998 0.8456 0.0
H5065 H 0.26398 0.61189 0.80502 0.0
H5066 H 0.29732 0.63662 0.86146 0.0
H5067 H 0.31308 0.63026 0.84942 0.0
H5068 H 0.30144 0.61714 0.86074 0.0
H5069 H 0.2719 0.65116 0.81218 0.0
H5070 H 0.26828 0.6361 0.79662 0.0
H5071 H 0.28758 0.64486 0.79994 0.0
C5072 C 0.36916 0.34924 0.84544 0.0
C5073 C 0.35578 0.35225 0.8385 0.0
C5074 C 0.38274 0.34699 0.83651 0.0
C5075 C 0.38297 0.34765 0.82019 0.0
C5076 C 0.36964 0.35105 0.81314 0.0
C5077 C 0.35621 0.35338 0.82239 0.0
C5078 C 0.39676 0.34354 0.84452 0.0
C5079 C 0.36944 0.35182 0.79577 0.0
C5080 C 0.42295 0.35202 0.80077 0.0
C5081 C 0.42537 0.33683 0.79609 0.0
C5082 C 0.40892 0.35581 0.80803 0.0
C5083 C 0.39702 0.34414 0.81057 0.0
C5084 C 0.39914 0.32887 0.80514 0.0
C5085 C 0.41332 0.3254 0.79803 0.0
C5086 C 0.40716 0.37221 0.81374 0.0
C5087 C 0.38669 0.31611 0.80748 0.0
H5088 H 0.36901 0.34845 0.85789 0.0
H5089 H 0.34592 0.35568 0.81692 0.0
H5090 H 0.39973 0.33199 0.84013 0.0
H5091 H 0.40681 0.35166 0.84181 0.0
H5092 H 0.39492 0.34415 0.8574 0.0
H5093 H 0.35846 0.35541 0.7922 0.0
H5094 H 0.37912 0.35988 0.79198 0.0
H5095 H 0.37108 0.3405 0.78949 0.0
H5096 H 0.4323 0.36088 0.79945 0.0
H5097 H 0.41511 0.31367 0.79427 0.0
H5098 H 0.40682 0.37371 0.82668 0.0
H5099 H 0.39615 0.3755 0.80996 0.0
H5100 H 0.4168 0.38005 0.80943 0.0
H5101 H 0.38496 0.31485 0.82011 0.0
H5102 H 0.38959 0.30509 0.80131 0.0
H5103 H 0.37559 0.31875 0.80326 0.0
C5104 C 0.37694 0.45276 0.15523 0.0
C5105 C 0.38309 0.4399 0.15933 0.0
C5106 C 0.36605 0.46 0.16507 0.0
C5107 C 0.36112 0.45416 0.17928 0.0
C5108 C 0.36766 0.4415 0.18374 0.0
C5109 C 0.37863 0.43456 0.17375 0.0
C5110 C 0.35948 0.47361 0.16002 0.0
C5111 C 0.36264 0.43492 0.19879 0.0
C5112 C 0.34014 0.47855 0.21059 0.0
C5113 C 0.32471 0.47309 0.20805 0.0
C5114 C 0.35213 0.47261 0.20123 0.0
C5115 C 0.34857 0.46084 0.18913 0.0
C5116 C 0.333 0.4553 0.1865 0.0
C5117 C 0.32124 0.46156 0.19595 0.0
C5118 C 0.36858 0.47891 0.20426 0.0
C5119 C 0.32877 0.44267 0.1738 0.0
H5120 H 0.38038 0.457 0.14415 0.0
H5121 H 0.3833 0.42462 0.17701 0.0
H5122 H 0.34703 0.47076 0.1579 0.0
H5123 H 0.36052 0.48322 0.16939 0.0
H5124 H 0.36534 0.47741 0.1492 0.0
H5125 H 0.3694 0.42552 0.20092 0.0
H5126 H 0.36388 0.44388 0.20879 0.0
H5127 H 0.35028 0.43052 0.19844 0.0
H5128 H 0.34283 0.48761 0.21982 0.0
H5129 H 0.30932 0.45723 0.19407 0.0
H5130 H 0.37412 0.48329 0.19359 0.0
H5131 H 0.37526 0.46976 0.20717 0.0
H5132 H 0.36937 0.48823 0.21397 0.0
H5133 H 0.33322 0.44606 0.1623 0.0
H5134 H 0.31611 0.43967 0.17327 0.0
H5135 H 0.33421 0.43238 0.17578 0.0
C5136 C 0.58294 0.35467 0.1788 0.0
C5137 C 0.5987 0.35956 0.17979 0.0
C5138 C 0.57533 0.3455 0.18959 0.0
C5139 C 0.58367 0.3411 0.20168 0.0
C5140 C 0.59959 0.34594 0.20275 0.0
C5141 C 0.60693 0.35512 0.19179 0.0
C5142 C 0.55832 0.34058 0.18806 0.0
C5143 C 0.60885 0.34147 0.2155 0.0
C5144 C 0.55987 0.32934 0.23717 0.0
C5145 C 0.55825 0.31346 0.2341 0.0
C5146 C 0.56847 0.33846 0.22693 0.0
C5147 C 0.5756 0.33154 0.21327 0.0
C5148 C 0.57434 0.31551 0.21031 0.0
C5149 C 0.56566 0.30666 0.22075 0.0
C5150 C 0.56951 0.35553 0.23048 0.0
C5151 C 0.58185 0.30771 0.19591 0.0
H5152 H 0.57648 0.35803 0.16958 0.0
H5153 H 0.61911 0.35885 0.19265 0.0
H5154 H 0.55628 0.328 0.18673 0.0
H5155 H 0.55187 0.34473 0.19882 0.0
H5156 H 0.55353 0.3449 0.17793 0.0
H5157 H 0.62117 0.34603 0.21461 0.0
H5158 H 0.60398 0.34572 0.22708 0.0
H5159 H 0.60815 0.32892 0.215 0.0
H5160 H 0.55401 0.33468 0.24736 0.0
H5161 H 0.56461 0.29438 0.21843 0.0
H5162 H 0.56372 0.36045 0.22136 0.0
H5163 H 0.58174 0.36041 0.23028 0.0
H5164 H 0.56407 0.3591 0.24202 0.0
H5165 H 0.57672 0.31076 0.18533 0.0
H5166 H 0.58044 0.29514 0.19573 0.0
H5167 H 0.59433 0.31162 0.19523 0.0
C5168 C 0.43401 0.68004 0.17451 0.0
C5169 C 0.41791 0.67963 0.1745 0.0
C5170 C 0.44266 0.69065 0.18475 0.0
C5171 C 0.43499 0.70088 0.19539 0.0
C5172 C 0.41877 0.70064 0.1953 0.0
C5173 C 0.41044 0.6901 0.18477 0.0
C5174 C 0.45997 0.69077 0.18433 0.0
C5175 C 0.41016 0.71122 0.20663 0.0
C5176 C 0.45497 0.71698 0.23256 0.0
C5177 C 0.46022 0.73181 0.22935 0.0
C5178 C 0.44671 0.70683 0.22163 0.0
C5179 C 0.44385 0.71151 0.207 0.0
C5180 C 0.44922 0.72638 0.20359 0.0
C5181 C 0.45722 0.7364 0.21485 0.0
C5182 C 0.441 0.6911 0.22576 0.0
C5183 C 0.4465 0.73172 0.18805 0.0
H5184 H 0.43985 0.67203 0.16655 0.0
H5185 H 0.398 0.6898 0.18489 0.0
H5186 H 0.46552 0.70234 0.18276 0.0
H5187 H 0.4637 0.68779 0.1956 0.0
H5188 H 0.46423 0.68264 0.1748 0.0
H5189 H 0.39757 0.70981 0.20481 0.0
H5190 H 0.41208 0.70908 0.21877 0.0
H5191 H 0.41459 0.7232 0.20544 0.0
H5192 H 0.45748 0.7132 0.24358 0.0
H5193 H 0.46101 0.74788 0.21233 0.0
H5194 H 0.44607 0.68244 0.21739 0.0
H5195 H 0.4283 0.68914 0.22485 0.0
H5196 H 0.44395 0.68933 0.23775 0.0
H5197 H 0.4512 0.72398 0.17843 0.0
H5198 H 0.45191 0.74346 0.18701 0.0
H5199 H 0.43395 0.73141 0.18641 0.0
loop_
_geom_bond_atom_site_label_1
_geom_bond_atom_site_label_2
_geom_bond_distance
_geom_bond_site_symmetry_2
_ccdc_geom_bond_type
O0 Cd1 2.300 . S
O0 C7 1.275 . S
Cd1 O0 2.300 . S
Cd1 O9 2.381 . S
Cd1 O10 2.378 . S
O2 Cd3 2.385 . S
O2 C7 1.255 . S
Cd3 O2 2.385 . S
Cd3 O4 2.317 . S
O4 Cd3 2.317 . S
O4 C5 1.232 . S
C5 O4 1.232 . S
C5 O6 1.218 . S
O6 C5 1.218 . S
C7 O0 1.275 . S
C7 O2 1.255 . S
C8 O9 1.258 . S
C8 O10 1.256 . S
O9 Cd1 2.381 . S
O9 C8 1.258 . S
O10 Cd1 2.378 . S
O10 C8 1.256 . S
O11 Cd12 2.300 . S
O11 C18 1.275 . S
Cd12 O11 2.300 . S
Cd12 O20 2.381 . S
Cd12 O21 2.378 . S
O13 Cd14 2.385 . S
O13 C18 1.255 . S
Cd14 O13 2.385 . S
Cd14 O15 2.317 . S
O15 Cd14 2.317 . S
O15 C16 1.232 . S
C16 O15 1.232 . S
C16 O17 1.218 . S
O17 C16 1.218 . S
C18 O11 1.275 . S
C18 O13 1.255 . S
C19 O20 1.258 . S
C19 O21 1.256 . S
O20 Cd12 2.381 . S
O20 C19 1.258 . S
O21 Cd12 2.378 . S
O21 C19 1.256 . S
O22 Cd23 2.300 . S
O22 C29 1.275 . S
Cd23 O22 2.300 . S
Cd23 O31 2.381 . S
Cd23 O32 2.378 . S
O24 Cd25 2.385 . S
O24 C29 1.255 . S
Cd25 O24 2.385 . S
Cd25 O26 2.317 . S
O26 Cd25 2.317 . S
O26 C27 1.232 . S
C27 O26 1.232 . S
C27 O28 1.218 . S
O28 C27 1.218 . S
C29 O22 1.275 . S
C29 O24 1.255 . S
C30 O31 1.258 . S
C30 O32 1.256 . S
O31 Cd23 2.381 . S
O31 C30 1.258 . S
O32 Cd23 2.378 . S
O32 C30 1.256 . S
O33 Cd34 2.300 . S
O33 C40 1.275 . S
Cd34 O33 2.300 . S
Cd34 O42 2.381 . S
Cd34 O43 2.378 . S
O35 Cd36 2.385 . S
O35 C40 1.255 . S
Cd36 O35 2.385 . S
Cd36 O37 2.317 . S
O37 Cd36 2.317 . S
O37 C38 1.232 . S
C38 O37 1.232 . S
C38 O39 1.218 . S
O39 C38 1.218 . S
C40 O33 1.275 . S
C40 O35 1.255 . S
C41 O42 1.258 . S
C41 O43 1.256 . S
O42 Cd34 2.381 . S
O42 C41 1.258 . S
O43 Cd34 2.378 . S
O43 C41 1.256 . S
O44 Cd45 2.300 . S
O44 C51 1.275 . S
Cd45 O44 2.300 . S
Cd45 O53 2.381 . S
Cd45 O54 2.378 . S
O46 Cd47 2.385 . S
O46 C51 1.255 . S
Cd47 O46 2.385 . S
Cd47 O48 2.317 . S
O48 Cd47 2.317 . S
O48 C49 1.232 . S
C49 O48 1.232 . S
C49 O50 1.218 . S
O50 C49 1.218 . S
C51 O44 1.275 . S
C51 O46 1.255 . S
C52 O53 1.258 . S
C52 O54 1.256 . S
O53 Cd45 2.381 . S
O53 C52 1.258 . S
O54 Cd45 2.378 . S
O54 C52 1.256 . S
O55 Cd56 2.300 . S
O55 C62 1.275 . S
Cd56 O55 2.300 . S
Cd56 O64 2.381 . S
Cd56 O65 2.378 . S
O57 Cd58 2.385 . S
O57 C62 1.255 . S
Cd58 O57 2.385 . S
Cd58 O59 2.317 . S
O59 Cd58 2.317 . S
O59 C60 1.232 . S
C60 O59 1.232 . S
C60 O61 1.218 . S
O61 C60 1.218 . S
C62 O55 1.275 . S
C62 O57 1.255 . S
C63 O64 1.258 . S
C63 O65 1.256 . S
O64 Cd56 2.381 . S
O64 C63 1.258 . S
O65 Cd56 2.378 . S
O65 C63 1.256 . S
O66 Cd67 2.300 . S
O66 C73 1.275 . S
Cd67 O66 2.300 . S
Cd67 O75 2.381 . S
Cd67 O76 2.378 . S
O68 Cd69 2.385 . S
O68 C73 1.255 . S
Cd69 O68 2.385 . S
Cd69 O70 2.317 . S
O70 Cd69 2.317 . S
O70 C71 1.232 . S
C71 O70 1.232 . S
C71 O72 1.218 . S
O72 C71 1.218 . S
C73 O66 1.275 . S
C73 O68 1.255 . S
C74 O75 1.258 . S
C74 O76 1.256 . S
O75 Cd67 2.381 . S
O75 C74 1.258 . S
O76 Cd67 2.378 . S
O76 C74 1.256 . S
O77 Cd78 2.300 . S
O77 C84 1.275 . S
Cd78 O77 2.300 . S
Cd78 O86 2.381 . S
Cd78 O87 2.378 . S
O79 Cd80 2.385 . S
O79 C84 1.255 . S
Cd80 O79 2.385 . S
Cd80 O81 2.317 . S
O81 Cd80 2.317 . S
O81 C82 1.232 . S
C82 O81 1.232 . S
C82 O83 1.218 . S
O83 C82 1.218 . S
C84 O77 1.275 . S
C84 O79 1.255 . S
C85 O86 1.258 . S
C85 O87 1.256 . S
O86 Cd78 2.381 . S
O86 C85 1.258 . S
O87 Cd78 2.378 . S
O87 C85 1.256 . S
O88 Cd89 2.300 . S
O88 C95 1.275 . S
Cd89 O88 2.300 . S
Cd89 O97 2.381 . S
Cd89 O98 2.378 . S
O90 Cd91 2.385 . S
O90 C95 1.255 . S
Cd91 O90 2.385 . S
Cd91 O92 2.317 . S
O92 Cd91 2.317 . S
O92 C93 1.232 . S
C93 O92 1.232 . S
C93 O94 1.218 . S
O94 C93 1.218 . S
C95 O88 1.275 . S
C95 O90 1.255 . S
C96 O97 1.258 . S
C96 O98 1.256 . S
O97 Cd89 2.381 . S
O97 C96 1.258 . S
O98 Cd89 2.378 . S
O98 C96 1.256 . S
O99 Cd100 2.300 . S
O99 C106 1.275 . S
Cd100 O99 2.300 . S
Cd100 O108 2.381 . S
Cd100 O109 2.378 . S
O101 Cd102 2.385 . S
O101 C106 1.255 . S
Cd102 O101 2.385 . S
Cd102 O103 2.317 . S
O103 Cd102 2.317 . S
O103 C104 1.232 . S
C104 O103 1.232 . S
C104 O105 1.218 . S
O105 C104 1.218 . S
C106 O99 1.275 . S
C106 O101 1.255 . S
C107 O108 1.258 . S
C107 O109 1.256 . S
O108 Cd100 2.381 . S
O108 C107 1.258 . S
O109 Cd100 2.378 . S
O109 C107 1.256 . S
O110 Cd111 2.300 . S
O110 C117 1.275 . S
Cd111 O110 2.300 . S
Cd111 O119 2.381 . S
Cd111 O120 2.378 . S
O112 Cd113 2.385 . S
O112 C117 1.255 . S
Cd113 O112 2.385 . S
Cd113 O114 2.317 . S
O114 Cd113 2.317 . S
O114 C115 1.232 . S
C115 O114 1.232 . S
C115 O116 1.218 . S
O116 C115 1.218 . S
C117 O110 1.275 . S
C117 O112 1.255 . S
C118 O119 1.258 . S
C118 O120 1.256 . S
O119 Cd111 2.381 . S
O119 C118 1.258 . S
O120 Cd111 2.378 . S
O120 C118 1.256 . S
O121 Cd122 2.300 . S
O121 C128 1.275 . S
Cd122 O121 2.300 . S
Cd122 O130 2.381 . S
Cd122 O131 2.378 . S
O123 Cd124 2.385 . S
O123 C128 1.255 . S
Cd124 O123 2.385 . S
Cd124 O125 2.317 . S
O125 Cd124 2.317 . S
O125 C126 1.232 . S
C126 O125 1.232 . S
C126 O127 1.218 . S
O127 C126 1.218 . S
C128 O121 1.275 . S
C128 O123 1.255 . S
C129 O130 1.258 . S
C129 O131 1.256 . S
O130 Cd122 2.381 . S
O130 C129 1.258 . S
O131 Cd122 2.378 . S
O131 C129 1.256 . S
O132 Cd133 2.300 . S
O132 C139 1.275 . S
Cd133 O132 2.300 . S
Cd133 O141 2.381 . S
Cd133 O142 2.378 . S
O134 Cd135 2.385 . S
O134 C139 1.255 . S
Cd135 O134 2.385 . S
Cd135 O136 2.317 . S
O136 Cd135 2.317 . S
O136 C137 1.232 . S
C137 O136 1.232 . S
C137 O138 1.218 . S
O138 C137 1.218 . S
C139 O132 1.275 . S
C139 O134 1.255 . S
C140 O141 1.258 . S
C140 O142 1.256 . S
O141 Cd133 2.381 . S
O141 C140 1.258 . S
O142 Cd133 2.378 . S
O142 C140 1.256 . S
O143 Cd144 2.300 . S
O143 C150 1.275 . S
Cd144 O143 2.300 . S
Cd144 O152 2.381 . S
Cd144 O153 2.378 . S
O145 Cd146 2.385 . S
O145 C150 1.255 . S
Cd146 O145 2.385 . S
Cd146 O147 2.317 . S
O147 Cd146 2.317 . S
O147 C148 1.232 . S
C148 O147 1.232 . S
C148 O149 1.218 . S
O149 C148 1.218 . S
C150 O143 1.275 . S
C150 O145 1.255 . S
C151 O152 1.258 . S
C151 O153 1.256 . S
O152 Cd144 2.381 . S
O152 C151 1.258 . S
O153 Cd144 2.378 . S
O153 C151 1.256 . S
O154 Cd155 2.300 . S
O154 C161 1.275 . S
Cd155 O154 2.300 . S
Cd155 O163 2.381 . S
Cd155 O164 2.378 . S
O156 Cd157 2.385 . S
O156 C161 1.255 . S
Cd157 O156 2.385 . S
Cd157 O158 2.317 . S
O158 Cd157 2.317 . S
O158 C159 1.232 . S
C159 O158 1.232 . S
C159 O160 1.218 . S
O160 C159 1.218 . S
C161 O154 1.275 . S
C161 O156 1.255 . S
C162 O163 1.258 . S
C162 O164 1.256 . S
O163 Cd155 2.381 . S
O163 C162 1.258 . S
O164 Cd155 2.378 . S
O164 C162 1.256 . S
O165 Cd166 2.300 . S
O165 C172 1.275 . S
Cd166 O165 2.300 . S
Cd166 O174 2.381 . S
Cd166 O175 2.378 . S
O167 Cd168 2.385 . S
O167 C172 1.255 . S
Cd168 O167 2.385 . S
Cd168 O169 2.317 . S
O169 Cd168 2.317 . S
O169 C170 1.232 . S
C170 O169 1.232 . S
C170 O171 1.218 . S
O171 C170 1.218 . S
C172 O165 1.275 . S
C172 O167 1.255 . S
C173 O174 1.258 . S
C173 O175 1.256 . S
O174 Cd166 2.381 . S
O174 C173 1.258 . S
O175 Cd166 2.378 . S
O175 C173 1.256 . S
O176 Cd177 2.300 . S
O176 C183 1.275 . S
Cd177 O176 2.300 . S
Cd177 O185 2.381 . S
Cd177 O186 2.378 . S
O178 Cd179 2.385 . S
O178 C183 1.255 . S
Cd179 O178 2.385 . S
Cd179 O180 2.317 . S
O180 Cd179 2.317 . S
O180 C181 1.232 . S
C181 O180 1.232 . S
C181 O182 1.218 . S
O182 C181 1.218 . S
C183 O176 1.275 . S
C183 O178 1.255 . S
C184 O185 1.258 . S
C184 O186 1.256 . S
O185 Cd177 2.381 . S
O185 C184 1.258 . S
O186 Cd177 2.378 . S
O186 C184 1.256 . S
O187 Cd188 2.300 . S
O187 C194 1.275 . S
Cd188 O187 2.300 . S
Cd188 O196 2.381 . S
Cd188 O197 2.378 . S
O189 Cd190 2.385 . S
O189 C194 1.255 . S
Cd190 O189 2.385 . S
Cd190 O191 2.317 . S
O191 Cd190 2.317 . S
O191 C192 1.232 . S
C192 O191 1.232 . S
C192 O193 1.218 . S
O193 C192 1.218 . S
C194 O187 1.275 . S
C194 O189 1.255 . S
C195 O196 1.258 . S
C195 O197 1.256 . S
O196 Cd188 2.381 . S
O196 C195 1.258 . S
O197 Cd188 2.378 . S
O197 C195 1.256 . S
O198 Cd199 2.300 . S
O198 C205 1.275 . S
Cd199 O198 2.300 . S
Cd199 O207 2.381 . S
Cd199 O208 2.378 . S
O200 Cd201 2.385 . S
O200 C205 1.255 . S
Cd201 O200 2.385 . S
Cd201 O202 2.317 . S
O202 Cd201 2.317 . S
O202 C203 1.232 . S
C203 O202 1.232 . S
C203 O204 1.218 . S
O204 C203 1.218 . S
C205 O198 1.275 . S
C205 O200 1.255 . S
C206 O207 1.258 . S
C206 O208 1.256 . S
O207 Cd199 2.381 . S
O207 C206 1.258 . S
O208 Cd199 2.378 . S
O208 C206 1.256 . S
O209 Cd210 2.300 . S
O209 C216 1.275 . S
Cd210 O209 2.300 . S
Cd210 O218 2.381 . S
Cd210 O219 2.378 . S
O211 Cd212 2.385 . S
O211 C216 1.255 . S
Cd212 O211 2.385 . S
Cd212 O213 2.317 . S
O213 Cd212 2.317 . S
O213 C214 1.232 . S
C214 O213 1.232 . S
C214 O215 1.218 . S
O215 C214 1.218 . S
C216 O209 1.275 . S
C216 O211 1.255 . S
C217 O218 1.258 . S
C217 O219 1.256 . S
O218 Cd210 2.381 . S
O218 C217 1.258 . S
O219 Cd210 2.378 . S
O219 C217 1.256 . S
O220 Cd221 2.300 . S
O220 C227 1.275 . S
Cd221 O220 2.300 . S
Cd221 O229 2.381 . S
Cd221 O230 2.378 . S
O222 Cd223 2.385 . S
O222 C227 1.255 . S
Cd223 O222 2.385 . S
Cd223 O224 2.317 . S
O224 Cd223 2.317 . S
O224 C225 1.232 . S
C225 O224 1.232 . S
C225 O226 1.218 . S
O226 C225 1.218 . S
C227 O220 1.275 . S
C227 O222 1.255 . S
C228 O229 1.258 . S
C228 O230 1.256 . S
O229 Cd221 2.381 . S
O229 C228 1.258 . S
O230 Cd221 2.378 . S
O230 C228 1.256 . S
O231 Cd232 2.300 . S
O231 C238 1.275 . S
Cd232 O231 2.300 . S
Cd232 O240 2.381 . S
Cd232 O241 2.378 . S
O233 Cd234 2.385 . S
O233 C238 1.255 . S
Cd234 O233 2.385 . S
Cd234 O235 2.317 . S
O235 Cd234 2.317 . S
O235 C236 1.232 . S
C236 O235 1.232 . S
C236 O237 1.218 . S
O237 C236 1.218 . S
C238 O231 1.275 . S
C238 O233 1.255 . S
C239 O240 1.258 . S
C239 O241 1.256 . S
O240 Cd232 2.381 . S
O240 C239 1.258 . S
O241 Cd232 2.378 . S
O241 C239 1.256 . S
O242 Cd243 2.300 . S
O242 C249 1.275 . S
Cd243 O242 2.300 . S
Cd243 O251 2.381 . S
Cd243 O252 2.378 . S
O244 Cd245 2.385 . S
O244 C249 1.255 . S
Cd245 O244 2.385 . S
Cd245 O246 2.317 . S
O246 Cd245 2.317 . S
O246 C247 1.232 . S
C247 O246 1.232 . S
C247 O248 1.218 . S
O248 C247 1.218 . S
C249 O242 1.275 . S
C249 O244 1.255 . S
C250 O251 1.258 . S
C250 O252 1.256 . S
O251 Cd243 2.381 . S
O251 C250 1.258 . S
O252 Cd243 2.378 . S
O252 C250 1.256 . S
O253 Cd254 2.300 . S
O253 C260 1.275 . S
Cd254 O253 2.300 . S
Cd254 O262 2.381 . S
Cd254 O263 2.378 . S
O255 Cd256 2.385 . S
O255 C260 1.255 . S
Cd256 O255 2.385 . S
Cd256 O257 2.317 . S
O257 Cd256 2.317 . S
O257 C258 1.232 . S
C258 O257 1.232 . S
C258 O259 1.218 . S
O259 C258 1.218 . S
C260 O253 1.275 . S
C260 O255 1.255 . S
C261 O262 1.258 . S
C261 O263 1.256 . S
O262 Cd254 2.381 . S
O262 C261 1.258 . S
O263 Cd254 2.378 . S
O263 C261 1.256 . S
O264 Cd265 2.300 . S
O264 C271 1.275 . S
Cd265 O264 2.300 . S
Cd265 O273 2.381 . S
Cd265 O274 2.378 . S
O266 Cd267 2.385 . S
O266 C271 1.255 . S
Cd267 O266 2.385 . S
Cd267 O268 2.317 . S
O268 Cd267 2.317 . S
O268 C269 1.232 . S
C269 O268 1.232 . S
C269 O270 1.218 . S
O270 C269 1.218 . S
C271 O264 1.275 . S
C271 O266 1.255 . S
C272 O273 1.258 . S
C272 O274 1.256 . S
O273 Cd265 2.381 . S
O273 C272 1.258 . S
O274 Cd265 2.378 . S
O274 C272 1.256 . S
O275 Cd276 2.300 . S
O275 C282 1.275 . S
Cd276 O275 2.300 . S
Cd276 O284 2.381 . S
Cd276 O285 2.378 . S
O277 Cd278 2.385 . S
O277 C282 1.255 . S
Cd278 O277 2.385 . S
Cd278 O279 2.317 . S
O279 Cd278 2.317 . S
O279 C280 1.232 . S
C280 O279 1.232 . S
C280 O281 1.218 . S
O281 C280 1.218 . S
C282 O275 1.275 . S
C282 O277 1.255 . S
C283 O284 1.258 . S
C283 O285 1.256 . S
O284 Cd276 2.381 . S
O284 C283 1.258 . S
O285 Cd276 2.378 . S
O285 C283 1.256 . S
O286 Cd287 2.300 . S
O286 C293 1.275 . S
Cd287 O286 2.300 . S
Cd287 O295 2.381 . S
Cd287 O296 2.378 . S
O288 Cd289 2.385 . S
O288 C293 1.255 . S
Cd289 O288 2.385 . S
Cd289 O290 2.317 . S
O290 Cd289 2.317 . S
O290 C291 1.232 . S
C291 O290 1.232 . S
C291 O292 1.218 . S
O292 C291 1.218 . S
C293 O286 1.275 . S
C293 O288 1.255 . S
C294 O295 1.258 . S
C294 O296 1.256 . S
O295 Cd287 2.381 . S
O295 C294 1.258 . S
O296 Cd287 2.378 . S
O296 C294 1.256 . S
O297 Cd298 2.300 . S
O297 C304 1.275 . S
Cd298 O297 2.300 . S
Cd298 O306 2.381 . S
Cd298 O307 2.378 . S
O299 Cd300 2.385 . S
O299 C304 1.255 . S
Cd300 O299 2.385 . S
Cd300 O301 2.317 . S
O301 Cd300 2.317 . S
O301 C302 1.232 . S
C302 O301 1.232 . S
C302 O303 1.218 . S
O303 C302 1.218 . S
C304 O297 1.275 . S
C304 O299 1.255 . S
C305 O306 1.258 . S
C305 O307 1.256 . S
O306 Cd298 2.381 . S
O306 C305 1.258 . S
O307 Cd298 2.378 . S
O307 C305 1.256 . S
O308 Cd309 2.300 . S
O308 C315 1.275 . S
Cd309 O308 2.300 . S
Cd309 O317 2.381 . S
Cd309 O318 2.378 . S
O310 Cd311 2.385 . S
O310 C315 1.255 . S
Cd311 O310 2.385 . S
Cd311 O312 2.317 . S
O312 Cd311 2.317 . S
O312 C313 1.232 . S
C313 O312 1.232 . S
C313 O314 1.218 . S
O314 C313 1.218 . S
C315 O308 1.275 . S
C315 O310 1.255 . S
C316 O317 1.258 . S
C316 O318 1.256 . S
O317 Cd309 2.381 . S
O317 C316 1.258 . S
O318 Cd309 2.378 . S
O318 C316 1.256 . S
O319 Cd320 2.300 . S
O319 C326 1.275 . S
Cd320 O319 2.300 . S
Cd320 O328 2.381 . S
Cd320 O329 2.378 . S
O321 Cd322 2.385 . S
O321 C326 1.255 . S
Cd322 O321 2.385 . S
Cd322 O323 2.317 . S
O323 Cd322 2.317 . S
O323 C324 1.232 . S
C324 O323 1.232 . S
C324 O325 1.218 . S
O325 C324 1.218 . S
C326 O319 1.275 . S
C326 O321 1.255 . S
C327 O328 1.258 . S
C327 O329 1.256 . S
O328 Cd320 2.381 . S
O328 C327 1.258 . S
O329 Cd320 2.378 . S
O329 C327 1.256 . S
O330 Cd331 2.300 . S
O330 C337 1.275 . S
Cd331 O330 2.300 . S
Cd331 O339 2.381 . S
Cd331 O340 2.378 . S
O332 Cd333 2.385 . S
O332 C337 1.255 . S
Cd333 O332 2.385 . S
Cd333 O334 2.317 . S
O334 Cd333 2.317 . S
O334 C335 1.232 . S
C335 O334 1.232 . S
C335 O336 1.218 . S
O336 C335 1.218 . S
C337 O330 1.275 . S
C337 O332 1.255 . S
C338 O339 1.258 . S
C338 O340 1.256 . S
O339 Cd331 2.381 . S
O339 C338 1.258 . S
O340 Cd331 2.378 . S
O340 C338 1.256 . S
O341 Cd342 2.300 . S
O341 C348 1.275 . S
Cd342 O341 2.300 . S
Cd342 O350 2.381 . S
Cd342 O351 2.378 . S
O343 Cd344 2.385 . S
O343 C348 1.255 . S
Cd344 O343 2.385 . S
Cd344 O345 2.317 . S
O345 Cd344 2.317 . S
O345 C346 1.232 . S
C346 O345 1.232 . S
C346 O347 1.218 . S
O347 C346 1.218 . S
C348 O341 1.275 . S
C348 O343 1.255 . S
C349 O350 1.258 . S
C349 O351 1.256 . S
O350 Cd342 2.381 . S
O350 C349 1.258 . S
O351 Cd342 2.378 . S
O351 C349 1.256 . S
H352 O378 0.856 . S
H353 O381 0.854 . S
H354 C389 0.930 . S
H355 C390 0.930 . S
H356 C392 0.930 1_556 S
H357 C393 0.930 . S
H358 C395 0.931 . S
H359 C396 0.930 . S
H360 C398 0.930 . S
H361 C399 0.929 . S
H362 C401 0.930 . S
H363 C402 0.931 . S
H364 C404 0.930 . S
H365 C405 0.929 . S
H366 C407 0.931 . S
H367 C408 0.930 . S
H368 C410 0.930 . S
H369 C411 0.932 . S
H370 C413 0.930 . S
H371 C414 0.929 . S
H372 C416 0.931 . S
H373 C417 0.930 . S
H374 C419 0.929 . S
H375 C420 0.931 1_556 S
H376 C422 0.930 . S
H377 C423 0.929 . S
O378 H352 0.856 . S
O378 C424 1.300 . S
O379 C424 1.209 . S
O380 C425 1.199 . S
O381 H353 0.854 . S
O381 C425 1.297 . S
C382 C383 1.404 . S
C382 C387 1.397 . S
C382 C388 1.492 . S
C383 C382 1.404 . S
C383 C384 1.396 . S
C383 C394 1.492 . S
C384 C383 1.396 . S
C384 C385 1.397 . S
C384 C400 1.509 . S
C385 C384 1.397 . S
C385 C386 1.412 . S
C385 C406 1.485 . S
C386 C385 1.412 . S
C386 C387 1.388 . S
C386 C412 1.490 . S
C387 C382 1.397 . S
C387 C386 1.388 . S
C387 C418 1.519 . S
C388 C382 1.492 . S
C388 C389 1.363 . S
C388 C393 1.390 . S
C389 H354 0.930 . S
C389 C388 1.363 . S
C389 C390 1.372 . S
C390 H355 0.930 . S
C390 C389 1.372 . S
C390 C391 1.383 1_554 S
C391 C390 1.383 1_556 S
C391 C392 1.395 1_556 S
C392 H356 0.930 1_554 S
C392 C391 1.395 1_554 S
C392 C393 1.362 . S
C393 H357 0.930 . S
C393 C388 1.390 . S
C393 C392 1.362 . S
C394 C383 1.492 . S
C394 C395 1.377 . S
C394 C399 1.397 . S
C395 H358 0.931 . S
C395 C394 1.377 . S
C395 C396 1.376 . S
C396 H359 0.930 . S
C396 C395 1.376 . S
C396 C397 1.376 . S
C397 C396 1.376 . S
C397 C398 1.378 . S
C397 C424 1.486 . S
C398 H360 0.930 . S
C398 C397 1.378 . S
C398 C399 1.376 . S
C399 H361 0.929 . S
C399 C394 1.397 . S
C399 C398 1.376 . S
C400 C384 1.509 . S
C400 C401 1.391 . S
C400 C405 1.386 . S
C401 H362 0.930 . S
C401 C400 1.391 . S
C401 C402 1.375 . S
C402 H363 0.931 . S
C402 C401 1.375 . S
C402 C403 1.375 . S
C403 C402 1.375 . S
C403 C404 1.361 . S
C404 H364 0.930 . S
C404 C403 1.361 . S
C404 C405 1.399 . S
C405 H365 0.929 . S
C405 C400 1.386 . S
C405 C404 1.399 . S
C406 C385 1.485 . S
C406 C407 1.394 . S
C406 C411 1.360 . S
C407 H366 0.931 . S
C407 C406 1.394 . S
C407 C408 1.372 . S
C408 H367 0.930 . S
C408 C407 1.372 . S
C408 C409 1.397 . S
C409 C408 1.397 . S
C409 C410 1.390 . S
C409 C425 1.476 . S
C410 H368 0.930 . S
C410 C409 1.390 . S
C410 C411 1.366 . S
C411 H369 0.932 . S
C411 C406 1.360 . S
C411 C410 1.366 . S
C412 C386 1.490 . S
C412 C413 1.380 . S
C412 C417 1.386 . S
C413 H370 0.930 . S
C413 C412 1.380 . S
C413 C414 1.381 . S
C414 H371 0.929 . S
C414 C413 1.381 . S
C414 C415 1.371 . S
C415 C414 1.371 . S
C415 C416 1.380 . S
C416 H372 0.931 . S
C416 C415 1.380 . S
C416 C417 1.387 . S
C417 H373 0.930 . S
C417 C412 1.386 . S
C417 C416 1.387 . S
C418 C387 1.519 . S
C418 C419 1.377 . S
C418 C423 1.361 . S
C419 H374 0.929 . S
C419 C418 1.377 . S
C419 C420 1.386 . S
C420 H375 0.931 1_554 S
C420 C419 1.386 . S
C420 C421 1.363 . S
C421 C420 1.363 . S
C421 C422 1.385 . S
C422 H376 0.930 . S
C422 C421 1.385 . S
C422 C423 1.396 . S
C423 H377 0.929 . S
C423 C418 1.361 . S
C423 C422 1.396 . S
C424 O378 1.300 . S
C424 O379 1.209 . S
C424 C397 1.486 . S
C425 O380 1.199 . S
C425 O381 1.297 . S
C425 C409 1.476 . S
H426 O452 0.856 . S
H427 O455 0.854 . S
H428 C463 0.930 . S
H429 C464 0.930 . S
H430 C466 0.930 . S
H431 C467 0.930 . S
H432 C469 0.931 . S
H433 C470 0.930 . S
H434 C472 0.930 . S
H435 C473 0.929 . S
H436 C475 0.930 . S
H437 C476 0.931 . S
H438 C478 0.930 . S
H439 C479 0.929 . S
H440 C481 0.931 . S
H441 C482 0.930 . S
H442 C484 0.930 . S
H443 C485 0.932 . S
H444 C487 0.930 . S
H445 C488 0.929 . S
H446 C490 0.931 . S
H447 C491 0.930 . S
H448 C493 0.929 . S
H449 C494 0.931 . S
H450 C496 0.930 . S
H451 C497 0.929 . S
O452 H426 0.856 . S
O452 C498 1.300 . S
O453 C498 1.209 . S
O454 C499 1.199 . S
O455 H427 0.854 . S
O455 C499 1.297 . S
C456 C457 1.404 1_556 S
C456 C461 1.397 1_556 S
C456 C462 1.492 . S
C457 C456 1.404 1_554 S
C457 C458 1.396 . S
C457 C468 1.492 1_554 S
C458 C457 1.396 . S
C458 C459 1.397 . S
C458 C474 1.509 . S
C459 C458 1.397 . S
C459 C460 1.412 . S
C459 C480 1.485 . S
C460 C459 1.412 . S
C460 C461 1.388 . S
C460 C486 1.490 . S
C461 C456 1.397 1_554 S
C461 C460 1.388 . S
C461 C492 1.519 1_554 S
C462 C456 1.492 . S
C462 C463 1.363 . S
C462 C467 1.390 . S
C463 H428 0.930 . S
C463 C462 1.363 . S
C463 C464 1.372 . S
C464 H429 0.930 . S
C464 C463 1.372 . S
C464 C465 1.383 . S
C465 C464 1.383 . S
C465 C466 1.395 . S
C466 H430 0.930 . S
C466 C465 1.395 . S
C466 C467 1.362 . S
C467 H431 0.930 . S
C467 C462 1.390 . S
C467 C466 1.362 . S
C468 C457 1.492 1_556 S
C468 C469 1.377 1_556 S
C468 C473 1.397 . S
C469 H432 0.931 . S
C469 C468 1.377 1_554 S
C469 C470 1.376 1_554 S
C470 H433 0.930 . S
C470 C469 1.376 1_556 S
C470 C471 1.376 . S
C471 C470 1.376 . S
C471 C472 1.378 . S
C471 C498 1.486 . S
C472 H434 0.930 . S
C472 C471 1.378 . S
C472 C473 1.376 . S
C473 H435 0.929 . S
C473 C468 1.397 . S
C473 C472 1.376 . S
C474 C458 1.509 . S
C474 C475 1.391 . S
C474 C479 1.386 . S
C475 H436 0.930 . S
C475 C474 1.391 . S
C475 C476 1.375 . S
C476 H437 0.931 . S
C476 C475 1.375 . S
C476 C477 1.375 . S
C477 C476 1.375 . S
C477 C478 1.361 . S
C478 H438 0.930 . S
C478 C477 1.361 . S
C478 C479 1.399 . S
C479 H439 0.929 . S
C479 C474 1.386 . S
C479 C478 1.399 . S
C480 C459 1.485 . S
C480 C481 1.394 . S
C480 C485 1.360 . S
C481 H440 0.931 . S
C481 C480 1.394 . S
C481 C482 1.372 . S
C482 H441 0.930 . S
C482 C481 1.372 . S
C482 C483 1.397 . S
C483 C482 1.397 . S
C483 C484 1.390 . S
C483 C499 1.476 . S
C484 H442 0.930 . S
C484 C483 1.390 . S
C484 C485 1.366 . S
C485 H443 0.932 . S
C485 C480 1.360 . S
C485 C484 1.366 . S
C486 C460 1.490 . S
C486 C487 1.380 . S
C486 C491 1.386 . S
C487 H444 0.930 . S
C487 C486 1.380 . S
C487 C488 1.381 . S
C488 H445 0.929 . S
C488 C487 1.381 . S
C488 C489 1.371 . S
C489 C488 1.371 . S
C489 C490 1.380 . S
C490 H446 0.931 . S
C490 C489 1.380 . S
C490 C491 1.387 . S
C491 H447 0.930 . S
C491 C486 1.386 . S
C491 C490 1.387 . S
C492 C461 1.519 1_556 S
C492 C493 1.377 . S
C492 C497 1.361 . S
C493 H448 0.929 . S
C493 C492 1.377 . S
C493 C494 1.386 . S
C494 H449 0.931 . S
C494 C493 1.386 . S
C494 C495 1.363 . S
C495 C494 1.363 . S
C495 C496 1.385 . S
C496 H450 0.930 . S
C496 C495 1.385 . S
C496 C497 1.396 . S
C497 H451 0.929 . S
C497 C492 1.361 . S
C497 C496 1.396 . S
C498 O452 1.300 . S
C498 O453 1.209 . S
C498 C471 1.486 . S
C499 O454 1.199 . S
C499 O455 1.297 . S
C499 C483 1.476 . S
H500 O526 0.856 . S
H501 O529 0.854 . S
H502 C537 0.930 . S
H503 C538 0.930 . S
H504 C540 0.930 . S
H505 C541 0.930 . S
H506 C543 0.931 . S
H507 C544 0.930 . S
H508 C546 0.930 . S
H509 C547 0.929 . S
H510 C549 0.930 . S
H511 C550 0.954 . S
H512 C552 0.928 1_556 S
H513 C553 0.929 . S
H514 C555 0.894 1_554 S
H515 C556 0.930 . S
H516 C558 0.930 . S
H517 C559 0.932 . S
H518 C561 0.930 . S
H519 C562 0.929 . S
H520 C564 0.931 . S
H521 C565 0.930 . S
H522 C567 0.929 . S
H523 C568 0.931 . S
H524 C570 0.930 . S
H525 C571 0.929 . S
O526 H500 0.856 . S
O526 C572 1.300 . S
O527 C572 1.209 . S
O528 C573 1.199 . S
O529 H501 0.854 . S
O529 C573 1.297 . S
C530 C531 1.404 . S
C530 C535 1.397 . S
C530 C536 1.492 . S
C531 C530 1.404 . S
C531 C532 1.396 . S
C531 C542 1.492 . S
C532 C531 1.396 . S
C532 C533 1.397 . S
C532 C548 1.509 . S
C533 C532 1.397 . S
C533 C534 1.412 . S
C533 C554 1.485 . S
C534 C533 1.412 . S
C534 C535 1.388 . S
C534 C560 1.490 . S
C535 C530 1.397 . S
C535 C534 1.388 . S
C535 C566 1.519 . S
C536 C530 1.492 . S
C536 C537 1.363 . S
C536 C541 1.390 . S
C537 H502 0.930 . S
C537 C536 1.363 . S
C537 C538 1.372 . S
C538 H503 0.930 . S
C538 C537 1.372 . S
C538 C539 1.383 . S
C539 C538 1.383 . S
C539 C540 1.395 . S
C540 H504 0.930 . S
C540 C539 1.395 . S
C540 C541 1.362 . S
C541 H505 0.930 . S
C541 C536 1.390 . S
C541 C540 1.362 . S
C542 C531 1.492 . S
C542 C543 1.377 . S
C542 C547 1.397 . S
C543 H506 0.931 . S
C543 C542 1.377 . S
C543 C544 1.376 . S
C544 H507 0.930 . S
C544 C543 1.376 . S
C544 C545 1.376 . S
C545 C544 1.376 . S
C545 C546 1.378 . S
C545 C572 1.486 . S
C546 H508 0.930 . S
C546 C545 1.378 . S
C546 C547 1.376 . S
C547 H509 0.929 . S
C547 C542 1.397 . S
C547 C546 1.376 . S
C548 C532 1.509 . S
C548 C549 1.391 . S
C548 C553 1.386 . S
C549 H510 0.930 . S
C549 C548 1.391 . S
C549 C550 1.348 1_554 S
C550 H511 0.954 . S
C550 C549 1.348 1_556 S
C550 C551 1.381 . S
C551 C550 1.381 . S
C551 C552 1.361 1_556 S
C552 H512 0.928 1_554 S
C552 C551 1.361 1_554 S
C552 C553 1.399 . S
C553 H513 0.929 . S
C553 C548 1.386 . S
C553 C552 1.399 . S
C554 C533 1.485 . S
C554 C555 1.363 1_554 S
C554 C559 1.360 1_554 S
C555 H514 0.894 1_556 S
C555 C554 1.363 1_556 S
C555 C556 1.443 . S
C556 H515 0.930 . S
C556 C555 1.443 . S
C556 C557 1.397 . S
C557 C556 1.397 . S
C557 C558 1.390 . S
C557 C573 1.476 . S
C558 H516 0.930 . S
C558 C557 1.390 . S
C558 C559 1.366 . S
C559 H517 0.932 . S
C559 C554 1.360 1_556 S
C559 C558 1.366 . S
C560 C534 1.490 . S
C560 C561 1.380 . S
C560 C565 1.386 . S
C561 H518 0.930 . S
C561 C560 1.380 . S
C561 C562 1.381 . S
C562 H519 0.929 . S
C562 C561 1.381 . S
C562 C563 1.371 . S
C563 C562 1.371 . S
C563 C564 1.380 . S
C564 H520 0.931 . S
C564 C563 1.380 . S
C564 C565 1.387 . S
C565 H521 0.930 . S
C565 C560 1.386 . S
C565 C564 1.387 . S
C566 C535 1.519 . S
C566 C567 1.377 . S
C566 C571 1.361 . S
C567 H522 0.929 . S
C567 C566 1.377 . S
C567 C568 1.386 . S
C568 H523 0.931 . S
C568 C567 1.386 . S
C568 C569 1.363 . S
C569 C568 1.363 . S
C569 C570 1.385 . S
C570 H524 0.930 . S
C570 C569 1.385 . S
C570 C571 1.396 . S
C571 H525 0.929 . S
C571 C566 1.361 . S
C571 C570 1.396 . S
C572 O526 1.300 . S
C572 O527 1.209 . S
C572 C545 1.486 . S
C573 O528 1.199 . S
C573 O529 1.297 . S
C573 C557 1.476 . S
H574 O600 0.856 . S
H575 O603 0.854 . S
H576 C611 0.930 . S
H577 C612 0.930 . S
H578 C614 0.930 . S
H579 C615 0.930 . S
H580 C617 0.931 . S
H581 C618 0.930 . S
H582 C620 0.930 . S
H583 C621 0.929 . S
H584 C623 0.930 . S
H585 C624 0.931 . S
H586 C626 0.930 . S
H587 C627 0.929 . S
H588 C629 0.931 . S
H589 C630 0.930 . S
H590 C632 0.930 . S
H591 C633 0.932 . S
H592 C635 0.930 . S
H593 C636 0.929 . S
H594 C638 0.931 . S
H595 C639 0.930 . S
H596 C641 0.929 . S
H597 C642 0.931 . S
H598 C644 0.930 . S
H599 C645 0.929 1_554 S
O600 H574 0.856 . S
O600 C646 1.300 . S
O601 C646 1.209 . S
O602 C647 1.199 . S
O603 H575 0.854 . S
O603 C647 1.297 . S
C604 C605 1.404 . S
C604 C609 1.397 . S
C604 C610 1.492 1_554 S
C605 C604 1.404 . S
C605 C606 1.396 . S
C605 C616 1.492 . S
C606 C605 1.396 . S
C606 C607 1.397 . S
C606 C622 1.509 . S
C607 C606 1.397 . S
C607 C608 1.412 . S
C607 C628 1.485 . S
C608 C607 1.412 . S
C608 C609 1.388 . S
C608 C634 1.490 . S
C609 C604 1.397 . S
C609 C608 1.388 . S
C609 C640 1.520 1_554 S
C610 C604 1.492 1_556 S
C610 C611 1.363 . S
C610 C615 1.390 . S
C611 H576 0.930 . S
C611 C610 1.363 . S
C611 C612 1.372 . S
C612 H577 0.930 . S
C612 C611 1.372 . S
C612 C613 1.383 . S
C613 C612 1.383 . S
C613 C614 1.395 . S
C614 H578 0.930 . S
C614 C613 1.395 . S
C614 C615 1.362 . S
C615 H579 0.930 . S
C615 C610 1.390 . S
C615 C614 1.362 . S
C616 C605 1.492 . S
C616 C617 1.377 . S
C616 C621 1.397 1_554 S
C617 H580 0.931 . S
C617 C616 1.377 . S
C617 C618 1.376 . S
C618 H581 0.930 . S
C618 C617 1.376 . S
C618 C619 1.376 1_554 S
C619 C618 1.376 1_556 S
C619 C620 1.378 . S
C619 C646 1.486 . S
C620 H582 0.930 . S
C620 C619 1.378 . S
C620 C621 1.376 . S
C621 H583 0.929 . S
C621 C616 1.397 1_556 S
C621 C620 1.376 . S
C622 C606 1.509 . S
C622 C623 1.391 . S
C622 C627 1.386 . S
C623 H584 0.930 . S
C623 C622 1.391 . S
C623 C624 1.375 . S
C624 H585 0.931 . S
C624 C623 1.375 . S
C624 C625 1.375 . S
C625 C624 1.375 . S
C625 C626 1.361 . S
C626 H586 0.930 . S
C626 C625 1.361 . S
C626 C627 1.399 . S
C627 H587 0.929 . S
C627 C622 1.386 . S
C627 C626 1.399 . S
C628 C607 1.485 . S
C628 C629 1.394 . S
C628 C633 1.360 . S
C629 H588 0.931 . S
C629 C628 1.394 . S
C629 C630 1.372 . S
C630 H589 0.930 . S
C630 C629 1.372 . S
C630 C631 1.397 . S
C631 C630 1.397 . S
C631 C632 1.390 . S
C631 C647 1.476 . S
C632 H590 0.930 . S
C632 C631 1.390 . S
C632 C633 1.366 . S
C633 H591 0.932 . S
C633 C628 1.360 . S
C633 C632 1.366 . S
C634 C608 1.490 . S
C634 C635 1.380 . S
C634 C639 1.386 . S
C635 H592 0.930 . S
C635 C634 1.380 . S
C635 C636 1.381 . S
C636 H593 0.929 . S
C636 C635 1.381 . S
C636 C637 1.371 . S
C637 C636 1.371 . S
C637 C638 1.380 . S
C638 H594 0.931 . S
C638 C637 1.380 . S
C638 C639 1.387 . S
C639 H595 0.930 . S
C639 C634 1.386 . S
C639 C638 1.387 . S
C640 C609 1.520 1_556 S
C640 C641 1.376 . S
C640 C645 1.361 . S
C641 H596 0.929 . S
C641 C640 1.376 . S
C641 C642 1.386 . S
C642 H597 0.931 . S
C642 C641 1.386 . S
C642 C643 1.363 . S
C643 C642 1.363 . S
C643 C644 1.385 . S
C644 H598 0.930 . S
C644 C643 1.385 . S
C644 C645 1.396 . S
C645 H599 0.929 1_556 S
C645 C640 1.361 . S
C645 C644 1.396 . S
C646 O600 1.300 . S
C646 O601 1.209 . S
C646 C619 1.486 . S
C647 O602 1.199 . S
C647 O603 1.297 . S
C647 C631 1.476 . S
H648 O674 0.856 1_655 S
H649 O677 0.854 . S
H650 C685 0.930 . S
H651 C686 0.930 . S
H652 C688 0.930 . S
H653 C689 0.930 . S
H654 C691 0.931 . S
H655 C692 0.930 . S
H656 C694 0.930 . S
H657 C695 0.929 . S
H658 C697 0.930 . S
H659 C698 0.931 . S
H660 C700 0.930 . S
H661 C701 0.929 . S
H662 C703 0.931 . S
H663 C704 0.930 . S
H664 C706 0.930 . S
H665 C707 0.932 . S
H666 C709 0.930 . S
H667 C710 0.929 . S
H668 C712 0.931 . S
H669 C713 0.930 . S
H670 C715 0.929 . S
H671 C716 0.931 . S
H672 C718 0.930 . S
H673 C719 0.929 . S
O674 H648 0.856 1_455 S
O674 C720 1.300 1_455 S
O675 C720 1.209 . S
O676 C721 1.199 . S
O677 H649 0.854 . S
O677 C721 1.297 . S
C678 C679 1.404 1_655 S
C678 C683 1.397 1_655 S
C678 C684 1.492 . S
C679 C678 1.404 1_455 S
C679 C680 1.396 . S
C679 C690 1.492 . S
C680 C679 1.396 . S
C680 C681 1.397 . S
C680 C696 1.509 . S
C681 C680 1.397 . S
C681 C682 1.412 . S
C681 C702 1.485 . S
C682 C681 1.412 . S
C682 C683 1.388 . S
C682 C708 1.490 . S
C683 C678 1.397 1_455 S
C683 C682 1.388 . S
C683 C714 1.519 1_455 S
C684 C678 1.492 . S
C684 C685 1.363 . S
C684 C689 1.390 . S
C685 H650 0.930 . S
C685 C684 1.363 . S
C685 C686 1.372 . S
C686 H651 0.930 . S
C686 C685 1.372 . S
C686 C687 1.383 . S
C687 C686 1.383 . S
C687 C688 1.395 . S
C688 H652 0.930 . S
C688 C687 1.395 . S
C688 C689 1.362 . S
C689 H653 0.930 . S
C689 C684 1.390 . S
C689 C688 1.362 . S
C690 C679 1.492 . S
C690 C691 1.377 . S
C690 C695 1.397 1_455 S
C691 H654 0.931 . S
C691 C690 1.377 . S
C691 C692 1.376 . S
C692 H655 0.930 . S
C692 C691 1.376 . S
C692 C693 1.376 1_455 S
C693 C692 1.376 1_655 S
C693 C694 1.378 . S
C693 C720 1.486 . S
C694 H656 0.930 . S
C694 C693 1.378 . S
C694 C695 1.376 . S
C695 H657 0.929 . S
C695 C690 1.397 1_655 S
C695 C694 1.376 . S
C696 C680 1.509 . S
C696 C697 1.391 . S
C696 C701 1.386 . S
C697 H658 0.930 . S
C697 C696 1.391 . S
C697 C698 1.375 . S
C698 H659 0.931 . S
C698 C697 1.375 . S
C698 C699 1.375 . S
C699 C698 1.375 . S
C699 C700 1.361 . S
C700 H660 0.930 . S
C700 C699 1.361 . S
C700 C701 1.399 . S
C701 H661 0.929 . S
C701 C696 1.386 . S
C701 C700 1.399 . S
C702 C681 1.485 . S
C702 C703 1.394 . S
C702 C707 1.360 . S
C703 H662 0.931 . S
C703 C702 1.394 . S
C703 C704 1.372 . S
C704 H663 0.930 . S
C704 C703 1.372 . S
C704 C705 1.397 . S
C705 C704 1.397 . S
C705 C706 1.390 . S
C705 C721 1.476 . S
C706 H664 0.930 . S
C706 C705 1.390 . S
C706 C707 1.366 . S
C707 H665 0.932 . S
C707 C702 1.360 . S
C707 C706 1.366 . S
C708 C682 1.490 . S
C708 C709 1.380 . S
C708 C713 1.386 . S
C709 H666 0.930 . S
C709 C708 1.380 . S
C709 C710 1.381 . S
C710 H667 0.929 . S
C710 C709 1.381 . S
C710 C711 1.371 . S
C711 C710 1.371 . S
C711 C712 1.380 . S
C712 H668 0.931 . S
C712 C711 1.380 . S
C712 C713 1.387 . S
C713 H669 0.930 . S
C713 C708 1.386 . S
C713 C712 1.387 . S
C714 C683 1.519 1_655 S
C714 C715 1.377 . S
C714 C719 1.361 . S
C715 H670 0.929 . S
C715 C714 1.377 . S
C715 C716 1.386 . S
C716 H671 0.931 . S
C716 C715 1.386 . S
C716 C717 1.363 . S
C717 C716 1.363 . S
C717 C718 1.385 . S
C718 H672 0.930 . S
C718 C717 1.385 . S
C718 C719 1.396 . S
C719 H673 0.929 . S
C719 C714 1.361 . S
C719 C718 1.396 . S
C720 O674 1.300 1_655 S
C720 O675 1.209 . S
C720 C693 1.486 . S
C721 O676 1.199 . S
C721 O677 1.297 . S
C721 C705 1.476 . S
H722 O748 0.856 . S
H723 O751 0.854 . S
H724 C759 0.930 . S
H725 C760 0.930 . S
H726 C762 0.930 . S
H727 C763 0.930 . S
H728 C765 0.931 . S
H729 C766 0.930 . S
H730 C768 0.930 . S
H731 C769 0.929 . S
H732 C771 0.930 . S
H733 C772 0.931 . S
H734 C774 0.930 . S
H735 C775 0.929 . S
H736 C777 0.931 . S
H737 C778 0.930 . S
H738 C780 0.930 . S
H739 C781 0.932 . S
H740 C783 0.930 . S
H741 C784 0.929 . S
H742 C786 0.931 . S
H743 C787 0.930 . S
H744 C789 0.929 . S
H745 C790 0.931 . S
H746 C792 0.930 . S
H747 C793 0.929 . S
O748 H722 0.856 . S
O748 C794 1.300 . S
O749 C794 1.209 1_565 S
O750 C795 1.199 . S
O751 H723 0.854 . S
O751 C795 1.297 . S
C752 C753 1.404 . S
C752 C757 1.397 . S
C752 C758 1.492 1_545 S
C753 C752 1.404 . S
C753 C754 1.396 . S
C753 C764 1.492 . S
C754 C753 1.396 . S
C754 C755 1.397 . S
C754 C770 1.509 . S
C755 C754 1.397 . S
C755 C756 1.412 . S
C755 C776 1.485 . S
C756 C755 1.412 . S
C756 C757 1.388 . S
C756 C782 1.490 . S
C757 C752 1.397 . S
C757 C756 1.388 . S
C757 C788 1.538 . S
C758 C752 1.492 1_565 S
C758 C759 1.363 . S
C758 C763 1.390 . S
C759 H724 0.930 . S
C759 C758 1.363 . S
C759 C760 1.372 . S
C760 H725 0.930 . S
C760 C759 1.372 . S
C760 C761 1.383 . S
C761 C760 1.383 . S
C761 C762 1.395 . S
C762 H726 0.930 . S
C762 C761 1.395 . S
C762 C763 1.362 . S
C763 H727 0.930 . S
C763 C758 1.390 . S
C763 C762 1.362 . S
C764 C753 1.492 . S
C764 C765 1.377 . S
C764 C769 1.397 . S
C765 H728 0.931 . S
C765 C764 1.377 . S
C765 C766 1.376 . S
C766 H729 0.930 . S
C766 C765 1.376 . S
C766 C767 1.376 . S
C767 C766 1.376 . S
C767 C768 1.378 . S
C767 C794 1.486 . S
C768 H730 0.930 . S
C768 C767 1.378 . S
C768 C769 1.376 . S
C769 H731 0.929 . S
C769 C764 1.397 . S
C769 C768 1.376 . S
C770 C754 1.509 . S
C770 C771 1.391 . S
C770 C775 1.386 . S
C771 H732 0.930 . S
C771 C770 1.391 . S
C771 C772 1.375 . S
C772 H733 0.931 . S
C772 C771 1.375 . S
C772 C773 1.375 . S
C773 C772 1.375 . S
C773 C774 1.361 . S
C774 H734 0.930 . S
C774 C773 1.361 . S
C774 C775 1.399 . S
C775 H735 0.929 . S
C775 C770 1.386 . S
C775 C774 1.399 . S
C776 C755 1.485 . S
C776 C777 1.394 . S
C776 C781 1.360 . S
C777 H736 0.931 . S
C777 C776 1.394 . S
C777 C778 1.372 . S
C778 H737 0.930 . S
C778 C777 1.372 . S
C778 C779 1.397 . S
C779 C778 1.397 . S
C779 C780 1.390 . S
C779 C795 1.476 . S
C780 H738 0.930 . S
C780 C779 1.390 . S
C780 C781 1.366 . S
C781 H739 0.932 . S
C781 C776 1.360 . S
C781 C780 1.366 . S
C782 C756 1.490 . S
C782 C783 1.380 . S
C782 C787 1.386 . S
C783 H740 0.930 . S
C783 C782 1.380 . S
C783 C784 1.381 . S
C784 H741 0.929 . S
C784 C783 1.381 . S
C784 C785 1.371 . S
C785 C784 1.371 . S
C785 C786 1.380 . S
C786 H742 0.931 . S
C786 C785 1.380 . S
C786 C787 1.387 . S
C787 H743 0.930 . S
C787 C782 1.386 . S
C787 C786 1.387 . S
C788 C757 1.538 . S
C788 C789 1.358 1_545 S
C788 C793 1.361 . S
C789 H744 0.929 . S
C789 C788 1.358 1_565 S
C789 C790 1.386 . S
C790 H745 0.931 . S
C790 C789 1.386 . S
C790 C791 1.363 . S
C791 C790 1.363 . S
C791 C792 1.385 . S
C792 H746 0.930 . S
C792 C791 1.385 . S
C792 C793 1.396 1_565 S
C793 H747 0.929 . S
C793 C788 1.361 . S
C793 C792 1.396 1_545 S
C794 O748 1.300 . S
C794 O749 1.209 1_545 S
C794 C767 1.486 . S
C795 O750 1.199 . S
C795 O751 1.297 . S
C795 C779 1.476 . S
H796 O822 0.856 . S
H797 O825 0.854 . S
H798 C833 0.930 . S
H799 C834 0.930 . S
H800 C836 0.930 . S
H801 C837 0.930 . S
H802 C839 0.931 . S
H803 C840 0.930 . S
H804 C842 0.930 . S
H805 C843 0.929 . S
H806 C845 0.930 . S
H807 C846 0.931 . S
H808 C848 0.930 . S
H809 C849 0.929 . S
H810 C851 0.931 1_455 S
H811 C852 0.930 . S
H812 C854 0.930 . S
H813 C855 0.932 . S
H814 C857 0.930 . S
H815 C858 0.929 . S
H816 C860 0.931 . S
H817 C861 0.930 . S
H818 C863 0.929 . S
H819 C864 0.931 . S
H820 C866 0.930 . S
H821 C867 0.929 . S
O822 H796 0.856 . S
O822 C868 1.300 . S
O823 C868 1.209 . S
O824 C869 1.199 . S
O825 H797 0.854 . S
O825 C869 1.297 . S
C826 C827 1.404 . S
C826 C831 1.397 . S
C826 C832 1.492 . S
C827 C826 1.404 . S
C827 C828 1.396 . S
C827 C838 1.492 . S
C828 C827 1.396 . S
C828 C829 1.397 . S
C828 C844 1.509 . S
C829 C828 1.397 . S
C829 C830 1.412 . S
C829 C850 1.485 . S
C830 C829 1.412 . S
C830 C831 1.388 . S
C830 C856 1.490 . S
C831 C826 1.397 . S
C831 C830 1.388 . S
C831 C862 1.519 . S
C832 C826 1.492 . S
C832 C833 1.363 . S
C832 C837 1.390 . S
C833 H798 0.930 . S
C833 C832 1.363 . S
C833 C834 1.372 . S
C834 H799 0.930 . S
C834 C833 1.372 . S
C834 C835 1.383 . S
C835 C834 1.383 . S
C835 C836 1.395 . S
C836 H800 0.930 . S
C836 C835 1.395 . S
C836 C837 1.362 . S
C837 H801 0.930 . S
C837 C832 1.390 . S
C837 C836 1.362 . S
C838 C827 1.492 . S
C838 C839 1.377 . S
C838 C843 1.397 . S
C839 H802 0.931 . S
C839 C838 1.377 . S
C839 C840 1.376 . S
C840 H803 0.930 . S
C840 C839 1.376 . S
C840 C841 1.376 . S
C841 C840 1.376 . S
C841 C842 1.378 . S
C841 C868 1.486 . S
C842 H804 0.930 . S
C842 C841 1.378 . S
C842 C843 1.376 . S
C843 H805 0.929 . S
C843 C838 1.397 . S
C843 C842 1.376 . S
C844 C828 1.509 . S
C844 C845 1.391 . S
C844 C849 1.386 . S
C845 H806 0.930 . S
C845 C844 1.391 . S
C845 C846 1.375 1_455 S
C846 H807 0.931 . S
C846 C845 1.375 1_655 S
C846 C847 1.375 . S
C847 C846 1.375 . S
C847 C848 1.363 . S
C848 H808 0.930 . S
C848 C847 1.363 . S
C848 C849 1.398 1_655 S
C849 H809 0.929 . S
C849 C844 1.386 . S
C849 C848 1.398 1_455 S
C850 C829 1.485 . S
C850 C851 1.394 1_455 S
C850 C855 1.360 1_455 S
C851 H810 0.931 1_655 S
C851 C850 1.394 1_655 S
C851 C852 1.372 . S
C852 H811 0.930 . S
C852 C851 1.372 . S
C852 C853 1.397 . S
C853 C852 1.397 . S
C853 C854 1.390 . S
C853 C869 1.476 . S
C854 H812 0.930 . S
C854 C853 1.390 . S
C854 C855 1.366 . S
C855 H813 0.932 . S
C855 C850 1.360 1_655 S
C855 C854 1.366 . S
C856 C830 1.490 . S
C856 C857 1.380 . S
C856 C861 1.386 . S
C857 H814 0.930 . S
C857 C856 1.380 . S
C857 C858 1.381 . S
C858 H815 0.929 . S
C858 C857 1.381 . S
C858 C859 1.371 . S
C859 C858 1.371 . S
C859 C860 1.380 . S
C860 H816 0.931 . S
C860 C859 1.380 . S
C860 C861 1.387 . S
C861 H817 0.930 . S
C861 C856 1.386 . S
C861 C860 1.387 . S
C862 C831 1.519 . S
C862 C863 1.377 . S
C862 C867 1.361 . S
C863 H818 0.929 . S
C863 C862 1.377 . S
C863 C864 1.386 . S
C864 H819 0.931 . S
C864 C863 1.386 . S
C864 C865 1.363 . S
C865 C864 1.363 . S
C865 C866 1.385 . S
C866 H820 0.930 . S
C866 C865 1.385 . S
C866 C867 1.396 . S
C867 H821 0.929 . S
C867 C862 1.361 . S
C867 C866 1.396 . S
C868 O822 1.300 . S
C868 O823 1.209 . S
C868 C841 1.486 . S
C869 O824 1.199 . S
C869 O825 1.297 . S
C869 C853 1.476 . S
H870 O896 0.856 . S
H871 O899 0.854 . S
H872 C907 0.930 . S
H873 C908 0.930 . S
H874 C910 0.930 . S
H875 C911 0.930 . S
H876 C913 0.931 1_565 S
H877 C914 0.930 . S
H878 C916 0.930 . S
H879 C917 0.929 . S
H880 C919 0.930 . S
H881 C920 0.931 . S
H882 C922 0.930 . S
H883 C923 0.929 . S
H884 C925 0.931 . S
H885 C926 0.930 . S
H886 C928 0.930 . S
H887 C929 0.932 . S
H888 C931 0.916 1_545 S
H889 C932 0.921 1_545 S
H890 C934 0.931 . S
H891 C935 0.930 . S
H892 C937 0.929 . S
H893 C938 0.931 . S
H894 C940 0.930 . S
H895 C941 0.929 . S
O896 H870 0.856 . S
O896 C942 1.300 . S
O897 C942 1.209 . S
O898 C943 1.199 . S
O899 H871 0.854 . S
O899 C943 1.297 . S
C900 C901 1.404 . S
C900 C905 1.397 . S
C900 C906 1.492 . S
C901 C900 1.404 . S
C901 C902 1.396 1_545 S
C901 C912 1.492 . S
C902 C901 1.396 1_565 S
C902 C903 1.397 . S
C902 C918 1.509 . S
C903 C902 1.397 . S
C903 C904 1.412 . S
C903 C924 1.485 . S
C904 C903 1.412 . S
C904 C905 1.388 1_565 S
C904 C930 1.490 . S
C905 C900 1.397 . S
C905 C904 1.388 1_545 S
C905 C936 1.519 . S
C906 C900 1.492 . S
C906 C907 1.363 . S
C906 C911 1.390 . S
C907 H872 0.930 . S
C907 C906 1.363 . S
C907 C908 1.372 . S
C908 H873 0.930 . S
C908 C907 1.372 . S
C908 C909 1.383 . S
C909 C908 1.383 . S
C909 C910 1.395 . S
C910 H874 0.930 . S
C910 C909 1.395 . S
C910 C911 1.362 . S
C911 H875 0.930 . S
C911 C906 1.390 . S
C911 C910 1.362 . S
C912 C901 1.492 . S
C912 C913 1.377 . S
C912 C917 1.397 . S
C913 H876 0.931 1_545 S
C913 C912 1.377 . S
C913 C914 1.376 . S
C914 H877 0.930 . S
C914 C913 1.376 . S
C914 C915 1.376 . S
C915 C914 1.376 . S
C915 C916 1.378 . S
C915 C942 1.486 . S
C916 H878 0.930 . S
C916 C915 1.378 . S
C916 C917 1.376 . S
C917 H879 0.929 . S
C917 C912 1.397 . S
C917 C916 1.376 . S
C918 C902 1.509 . S
C918 C919 1.391 . S
C918 C923 1.386 . S
C919 H880 0.930 . S
C919 C918 1.391 . S
C919 C920 1.375 . S
C920 H881 0.931 . S
C920 C919 1.375 . S
C920 C921 1.375 . S
C921 C920 1.375 . S
C921 C922 1.361 . S
C922 H882 0.930 . S
C922 C921 1.361 . S
C922 C923 1.399 . S
C923 H883 0.929 . S
C923 C918 1.386 . S
C923 C922 1.399 . S
C924 C903 1.485 . S
C924 C925 1.394 . S
C924 C929 1.360 . S
C925 H884 0.931 . S
C925 C924 1.394 . S
C925 C926 1.372 . S
C926 H885 0.930 . S
C926 C925 1.372 . S
C926 C927 1.397 . S
C927 C926 1.397 . S
C927 C928 1.390 . S
C927 C943 1.476 . S
C928 H886 0.930 . S
C928 C927 1.390 . S
C928 C929 1.366 . S
C929 H887 0.932 . S
C929 C924 1.360 . S
C929 C928 1.366 . S
C930 C904 1.490 . S
C930 C931 1.387 . S
C930 C935 1.386 . S
C931 H888 0.916 1_565 S
C931 C930 1.387 . S
C931 C932 1.389 . S
C932 H889 0.921 1_565 S
C932 C931 1.389 . S
C932 C933 1.371 . S
C933 C932 1.371 . S
C933 C934 1.380 . S
C934 H890 0.931 . S
C934 C933 1.380 . S
C934 C935 1.387 . S
C935 H891 0.930 . S
C935 C930 1.386 . S
C935 C934 1.387 . S
C936 C905 1.519 . S
C936 C937 1.377 . S
C936 C941 1.361 . S
C937 H892 0.929 . S
C937 C936 1.377 . S
C937 C938 1.386 . S
C938 H893 0.931 . S
C938 C937 1.386 . S
C938 C939 1.363 . S
C939 C938 1.363 . S
C939 C940 1.385 . S
C940 H894 0.930 . S
C940 C939 1.385 . S
C940 C941 1.396 . S
C941 H895 0.929 . S
C941 C936 1.361 . S
C941 C940 1.396 . S
C942 O896 1.300 . S
C942 O897 1.209 . S
C942 C915 1.486 . S
C943 O898 1.199 . S
C943 O899 1.297 . S
C943 C927 1.476 . S
H944 O970 0.856 . S
H945 O973 0.854 . S
H946 C981 0.930 . S
H947 C982 0.930 . S
H948 C984 0.930 . S
H949 C985 0.930 . S
H950 C987 0.931 . S
H951 C988 0.930 . S
H952 C990 0.930 . S
H953 C991 0.929 . S
H954 C993 0.930 . S
H955 C994 0.931 . S
H956 C996 0.930 . S
H957 C997 0.929 . S
H958 C999 0.931 . S
H959 C1000 0.930 . S
H960 C1002 0.930 . S
H961 C1003 0.932 . S
H962 C1005 0.930 . S
H963 C1006 0.929 . S
H964 C1008 0.931 . S
H965 C1009 0.930 . S
H966 C1011 0.929 . S
H967 C1012 0.931 . S
H968 C1014 0.930 . S
H969 C1015 0.929 1_455 S
O970 H944 0.856 . S
O970 C1016 1.300 . S
O971 C1016 1.209 . S
O972 C1017 1.199 . S
O973 H945 0.854 . S
O973 C1017 1.297 . S
C974 C975 1.404 . S
C974 C979 1.397 . S
C974 C980 1.492 1_455 S
C975 C974 1.404 . S
C975 C976 1.396 . S
C975 C986 1.492 . S
C976 C975 1.396 . S
C976 C977 1.397 . S
C976 C992 1.509 . S
C977 C976 1.397 . S
C977 C978 1.412 . S
C977 C998 1.485 . S
C978 C977 1.412 . S
C978 C979 1.388 . S
C978 C1004 1.490 . S
C979 C974 1.397 . S
C979 C978 1.388 . S
C979 C1010 1.519 1_455 S
C980 C974 1.492 1_655 S
C980 C981 1.363 . S
C980 C985 1.390 . S
C981 H946 0.930 . S
C981 C980 1.363 . S
C981 C982 1.372 . S
C982 H947 0.930 . S
C982 C981 1.372 . S
C982 C983 1.383 . S
C983 C982 1.383 . S
C983 C984 1.395 . S
C984 H948 0.930 . S
C984 C983 1.395 . S
C984 C985 1.362 . S
C985 H949 0.930 . S
C985 C980 1.390 . S
C985 C984 1.362 . S
C986 C975 1.492 . S
C986 C987 1.377 . S
C986 C991 1.397 . S
C987 H950 0.931 . S
C987 C986 1.377 . S
C987 C988 1.376 . S
C988 H951 0.930 . S
C988 C987 1.376 . S
C988 C989 1.376 . S
C989 C988 1.376 . S
C989 C990 1.378 . S
C989 C1016 1.486 . S
C990 H952 0.930 . S
C990 C989 1.378 . S
C990 C991 1.376 . S
C991 H953 0.929 . S
C991 C986 1.397 . S
C991 C990 1.376 . S
C992 C976 1.509 . S
C992 C993 1.391 . S
C992 C997 1.386 . S
C993 H954 0.930 . S
C993 C992 1.391 . S
C993 C994 1.375 . S
C994 H955 0.931 . S
C994 C993 1.375 . S
C994 C995 1.375 . S
C995 C994 1.375 . S
C995 C996 1.361 . S
C996 H956 0.930 . S
C996 C995 1.361 . S
C996 C997 1.399 . S
C997 H957 0.929 . S
C997 C992 1.386 . S
C997 C996 1.399 . S
C998 C977 1.485 . S
C998 C999 1.394 . S
C998 C1003 1.360 . S
C999 H958 0.931 . S
C999 C998 1.394 . S
C999 C1000 1.372 . S
C1000 H959 0.930 . S
C1000 C999 1.372 . S
C1000 C1001 1.397 . S
C1001 C1000 1.397 . S
C1001 C1002 1.390 . S
C1001 C1017 1.476 . S
C1002 H960 0.930 . S
C1002 C1001 1.390 . S
C1002 C1003 1.366 . S
C1003 H961 0.932 . S
C1003 C998 1.360 . S
C1003 C1002 1.366 . S
C1004 C978 1.490 . S
C1004 C1005 1.380 . S
C1004 C1009 1.386 . S
C1005 H962 0.930 . S
C1005 C1004 1.380 . S
C1005 C1006 1.381 . S
C1006 H963 0.929 . S
C1006 C1005 1.381 . S
C1006 C1007 1.371 . S
C1007 C1006 1.371 . S
C1007 C1008 1.380 . S
C1008 H964 0.931 . S
C1008 C1007 1.380 . S
C1008 C1009 1.387 . S
C1009 H965 0.930 . S
C1009 C1004 1.386 . S
C1009 C1008 1.387 . S
C1010 C979 1.519 1_655 S
C1010 C1011 1.377 . S
C1010 C1015 1.361 . S
C1011 H966 0.929 . S
C1011 C1010 1.377 . S
C1011 C1012 1.386 . S
C1012 H967 0.931 . S
C1012 C1011 1.386 . S
C1012 C1013 1.363 . S
C1013 C1012 1.363 . S
C1013 C1014 1.385 . S
C1014 H968 0.930 . S
C1014 C1013 1.385 . S
C1014 C1015 1.396 . S
C1015 H969 0.929 1_655 S
C1015 C1010 1.361 . S
C1015 C1014 1.396 . S
C1016 O970 1.300 . S
C1016 O971 1.209 . S
C1016 C989 1.486 . S
C1017 O972 1.199 . S
C1017 O973 1.297 . S
C1017 C1001 1.476 . S
H1018 O1044 0.856 . S
H1019 O1047 0.854 . S
H1020 C1055 0.930 . S
H1021 C1056 0.930 . S
H1022 C1058 0.930 . S
H1023 C1059 0.930 . S
H1024 C1061 0.931 . S
H1025 C1062 0.930 . S
H1026 C1064 0.930 . S
H1027 C1065 0.929 . S
H1028 C1067 0.930 . S
H1029 C1068 0.931 . S
H1030 C1070 0.930 . S
H1031 C1071 0.929 . S
H1032 C1073 0.931 . S
H1033 C1074 0.930 . S
H1034 C1076 0.930 . S
H1035 C1077 0.932 . S
H1036 C1079 0.930 . S
H1037 C1080 0.929 . S
H1038 C1082 0.931 . S
H1039 C1083 0.930 . S
H1040 C1085 0.929 . S
H1041 C1086 0.931 . S
H1042 C1088 0.937 1_545 S
H1043 C1089 0.929 . S
O1044 H1018 0.856 . S
O1044 C1090 1.300 . S
O1045 C1090 1.209 . S
O1046 C1091 1.199 . S
O1047 H1019 0.854 . S
O1047 C1091 1.297 . S
C1048 C1049 1.404 . S
C1048 C1053 1.397 . S
C1048 C1054 1.492 1_545 S
C1049 C1048 1.404 . S
C1049 C1050 1.396 . S
C1049 C1060 1.492 . S
C1050 C1049 1.396 . S
C1050 C1051 1.397 . S
C1050 C1066 1.509 . S
C1051 C1050 1.397 . S
C1051 C1052 1.412 . S
C1051 C1072 1.485 . S
C1052 C1051 1.412 . S
C1052 C1053 1.388 . S
C1052 C1078 1.490 . S
C1053 C1048 1.397 . S
C1053 C1052 1.388 . S
C1053 C1084 1.519 . S
C1054 C1048 1.492 1_565 S
C1054 C1055 1.363 . S
C1054 C1059 1.390 . S
C1055 H1020 0.930 . S
C1055 C1054 1.363 . S
C1055 C1056 1.372 . S
C1056 H1021 0.930 . S
C1056 C1055 1.372 . S
C1056 C1057 1.383 . S
C1057 C1056 1.383 . S
C1057 C1058 1.395 . S
C1058 H1022 0.930 . S
C1058 C1057 1.395 . S
C1058 C1059 1.362 . S
C1059 H1023 0.930 . S
C1059 C1054 1.390 . S
C1059 C1058 1.362 . S
C1060 C1049 1.492 . S
C1060 C1061 1.377 . S
C1060 C1065 1.397 . S
C1061 H1024 0.931 . S
C1061 C1060 1.377 . S
C1061 C1062 1.376 . S
C1062 H1025 0.930 . S
C1062 C1061 1.376 . S
C1062 C1063 1.376 . S
C1063 C1062 1.376 . S
C1063 C1064 1.378 . S
C1063 C1090 1.486 . S
C1064 H1026 0.930 . S
C1064 C1063 1.378 . S
C1064 C1065 1.376 . S
C1065 H1027 0.929 . S
C1065 C1060 1.397 . S
C1065 C1064 1.376 . S
C1066 C1050 1.509 . S
C1066 C1067 1.391 . S
C1066 C1071 1.386 . S
C1067 H1028 0.930 . S
C1067 C1066 1.391 . S
C1067 C1068 1.375 . S
C1068 H1029 0.931 . S
C1068 C1067 1.375 . S
C1068 C1069 1.375 . S
C1069 C1068 1.375 . S
C1069 C1070 1.361 . S
C1070 H1030 0.930 . S
C1070 C1069 1.361 . S
C1070 C1071 1.399 . S
C1071 H1031 0.929 . S
C1071 C1066 1.386 . S
C1071 C1070 1.399 . S
C1072 C1051 1.485 . S
C1072 C1073 1.394 . S
C1072 C1077 1.360 . S
C1073 H1032 0.931 . S
C1073 C1072 1.394 . S
C1073 C1074 1.372 . S
C1074 H1033 0.930 . S
C1074 C1073 1.372 . S
C1074 C1075 1.397 . S
C1075 C1074 1.397 . S
C1075 C1076 1.390 . S
C1075 C1091 1.476 . S
C1076 H1034 0.930 . S
C1076 C1075 1.390 . S
C1076 C1077 1.366 . S
C1077 H1035 0.932 . S
C1077 C1072 1.360 . S
C1077 C1076 1.366 . S
C1078 C1052 1.490 . S
C1078 C1079 1.380 . S
C1078 C1083 1.386 . S
C1079 H1036 0.930 . S
C1079 C1078 1.380 . S
C1079 C1080 1.381 . S
C1080 H1037 0.929 . S
C1080 C1079 1.381 . S
C1080 C1081 1.371 . S
C1081 C1080 1.371 . S
C1081 C1082 1.380 . S
C1082 H1038 0.931 . S
C1082 C1081 1.380 . S
C1082 C1083 1.387 . S
C1083 H1039 0.930 . S
C1083 C1078 1.386 . S
C1083 C1082 1.387 . S
C1084 C1053 1.519 . S
C1084 C1085 1.377 1_545 S
C1084 C1089 1.361 . S
C1085 H1040 0.929 . S
C1085 C1084 1.377 1_565 S
C1085 C1086 1.386 . S
C1086 H1041 0.931 . S
C1086 C1085 1.386 . S
C1086 C1087 1.363 . S
C1087 C1086 1.363 . S
C1087 C1088 1.439 . S
C1088 H1042 0.937 1_565 S
C1088 C1087 1.439 . S
C1088 C1089 1.342 1_565 S
C1089 H1043 0.929 . S
C1089 C1084 1.361 . S
C1089 C1088 1.342 1_545 S
C1090 O1044 1.300 . S
C1090 O1045 1.209 . S
C1090 C1063 1.486 . S
C1091 O1046 1.199 . S
C1091 O1047 1.297 . S
C1091 C1075 1.476 . S
H1092 O1118 0.870 . S
H1093 O1121 0.854 . S
H1094 C1129 0.930 1_455 S
H1095 C1130 0.930 . S
H1096 C1132 0.930 . S
H1097 C1133 0.930 . S
H1098 C1135 0.931 . S
H1099 C1136 0.930 . S
H1100 C1138 0.902 1_655 S
H1101 C1139 0.929 . S
H1102 C1141 0.930 . S
H1103 C1142 0.931 . S
H1104 C1144 0.930 . S
H1105 C1145 0.929 . S
H1106 C1147 0.931 . S
H1107 C1148 0.930 . S
H1108 C1150 0.930 . S
H1109 C1151 0.932 . S
H1110 C1153 0.930 . S
H1111 C1154 0.929 . S
H1112 C1156 0.931 . S
H1113 C1157 0.930 . S
H1114 C1159 0.929 . S
H1115 C1160 0.931 . S
H1116 C1162 0.930 . S
H1117 C1163 0.929 . S
O1118 H1092 0.870 . S
O1118 C1164 1.317 . S
O1119 C1164 1.180 1_655 S
O1120 C1165 1.199 . S
O1121 H1093 0.854 . S
O1121 C1165 1.297 . S
C1122 C1123 1.404 . S
C1122 C1127 1.397 . S
C1122 C1128 1.492 . S
C1123 C1122 1.404 . S
C1123 C1124 1.396 . S
C1123 C1134 1.492 . S
C1124 C1123 1.396 . S
C1124 C1125 1.397 . S
C1124 C1140 1.509 . S
C1125 C1124 1.397 . S
C1125 C1126 1.412 . S
C1125 C1146 1.485 . S
C1126 C1125 1.412 . S
C1126 C1127 1.388 . S
C1126 C1152 1.490 . S
C1127 C1122 1.397 . S
C1127 C1126 1.388 . S
C1127 C1158 1.519 . S
C1128 C1122 1.492 . S
C1128 C1129 1.363 1_455 S
C1128 C1133 1.390 1_455 S
C1129 H1094 0.930 1_655 S
C1129 C1128 1.363 1_655 S
C1129 C1130 1.372 . S
C1130 H1095 0.930 . S
C1130 C1129 1.372 . S
C1130 C1131 1.383 . S
C1131 C1130 1.383 . S
C1131 C1132 1.395 . S
C1132 H1096 0.930 . S
C1132 C1131 1.395 . S
C1132 C1133 1.362 . S
C1133 H1097 0.930 . S
C1133 C1128 1.390 1_655 S
C1133 C1132 1.362 . S
C1134 C1123 1.492 . S
C1134 C1135 1.377 . S
C1134 C1139 1.397 . S
C1135 H1098 0.931 . S
C1135 C1134 1.377 . S
C1135 C1136 1.376 . S
C1136 H1099 0.930 . S
C1136 C1135 1.376 . S
C1136 C1137 1.376 . S
C1137 C1136 1.376 . S
C1137 C1138 1.378 . S
C1137 C1164 1.503 . S
C1138 H1100 0.902 1_455 S
C1138 C1137 1.378 . S
C1138 C1139 1.376 . S
C1139 H1101 0.929 . S
C1139 C1134 1.397 . S
C1139 C1138 1.376 . S
C1140 C1124 1.509 . S
C1140 C1141 1.391 . S
C1140 C1145 1.386 . S
C1141 H1102 0.930 . S
C1141 C1140 1.391 . S
C1141 C1142 1.375 . S
C1142 H1103 0.931 . S
C1142 C1141 1.375 . S
C1142 C1143 1.375 . S
C1143 C1142 1.375 . S
C1143 C1144 1.361 . S
C1144 H1104 0.930 . S
C1144 C1143 1.361 . S
C1144 C1145 1.399 . S
C1145 H1105 0.929 . S
C1145 C1140 1.386 . S
C1145 C1144 1.399 . S
C1146 C1125 1.485 . S
C1146 C1147 1.394 . S
C1146 C1151 1.360 . S
C1147 H1106 0.931 . S
C1147 C1146 1.394 . S
C1147 C1148 1.372 . S
C1148 H1107 0.930 . S
C1148 C1147 1.372 . S
C1148 C1149 1.397 . S
C1149 C1148 1.397 . S
C1149 C1150 1.390 . S
C1149 C1165 1.476 . S
C1150 H1108 0.930 . S
C1150 C1149 1.390 . S
C1150 C1151 1.366 . S
C1151 H1109 0.932 . S
C1151 C1146 1.360 . S
C1151 C1150 1.366 . S
C1152 C1126 1.490 . S
C1152 C1153 1.380 . S
C1152 C1157 1.386 . S
C1153 H1110 0.930 . S
C1153 C1152 1.380 . S
C1153 C1154 1.381 . S
C1154 H1111 0.929 . S
C1154 C1153 1.381 . S
C1154 C1155 1.371 . S
C1155 C1154 1.371 . S
C1155 C1156 1.380 . S
C1156 H1112 0.931 . S
C1156 C1155 1.380 . S
C1156 C1157 1.387 . S
C1157 H1113 0.930 . S
C1157 C1152 1.386 . S
C1157 C1156 1.387 . S
C1158 C1127 1.519 . S
C1158 C1159 1.377 . S
C1158 C1163 1.361 . S
C1159 H1114 0.929 . S
C1159 C1158 1.377 . S
C1159 C1160 1.386 1_455 S
C1160 H1115 0.931 . S
C1160 C1159 1.386 1_655 S
C1160 C1161 1.363 . S
C1161 C1160 1.363 . S
C1161 C1162 1.385 1_655 S
C1162 H1116 0.930 . S
C1162 C1161 1.385 1_455 S
C1162 C1163 1.396 . S
C1163 H1117 0.929 . S
C1163 C1158 1.361 . S
C1163 C1162 1.396 . S
C1164 O1118 1.317 . S
C1164 O1119 1.180 1_455 S
C1164 C1137 1.503 . S
C1165 O1120 1.199 . S
C1165 O1121 1.297 . S
C1165 C1149 1.476 . S
H1166 O1192 0.856 . S
H1167 O1195 0.854 . S
H1168 C1203 0.930 . S
H1169 C1204 0.930 . S
H1170 C1206 0.930 . S
H1171 C1207 0.930 . S
H1172 C1209 0.920 1_565 S
H1173 C1210 0.916 1_565 S
H1174 C1212 0.930 . S
H1175 C1213 0.929 . S
H1176 C1215 0.930 . S
H1177 C1216 0.931 . S
H1178 C1218 0.930 . S
H1179 C1219 0.929 . S
H1180 C1221 0.931 . S
H1181 C1222 0.930 . S
H1182 C1224 0.930 . S
H1183 C1225 0.932 . S
H1184 C1227 0.930 . S
H1185 C1228 0.929 . S
H1186 C1230 0.931 . S
H1187 C1231 0.930 . S
H1188 C1233 0.929 . S
H1189 C1234 0.931 . S
H1190 C1236 0.930 . S
H1191 C1237 0.929 . S
O1192 H1166 0.856 . S
O1192 C1238 1.300 . S
O1193 C1238 1.209 . S
O1194 C1239 1.199 . S
O1195 H1167 0.854 . S
O1195 C1239 1.297 . S
C1196 C1197 1.404 . S
C1196 C1201 1.397 . S
C1196 C1202 1.492 . S
C1197 C1196 1.404 . S
C1197 C1198 1.396 1_545 S
C1197 C1208 1.492 . S
C1198 C1197 1.396 1_565 S
C1198 C1199 1.397 . S
C1198 C1214 1.509 . S
C1199 C1198 1.397 . S
C1199 C1200 1.412 1_565 S
C1199 C1220 1.485 . S
C1200 C1199 1.412 1_545 S
C1200 C1201 1.388 . S
C1200 C1226 1.490 1_545 S
C1201 C1196 1.397 . S
C1201 C1200 1.388 . S
C1201 C1232 1.519 . S
C1202 C1196 1.492 . S
C1202 C1203 1.363 . S
C1202 C1207 1.390 . S
C1203 H1168 0.930 . S
C1203 C1202 1.363 . S
C1203 C1204 1.372 . S
C1204 H1169 0.930 . S
C1204 C1203 1.372 . S
C1204 C1205 1.383 . S
C1205 C1204 1.383 . S
C1205 C1206 1.395 . S
C1206 H1170 0.930 . S
C1206 C1205 1.395 . S
C1206 C1207 1.362 . S
C1207 H1171 0.930 . S
C1207 C1202 1.390 . S
C1207 C1206 1.362 . S
C1208 C1197 1.492 . S
C1208 C1209 1.382 . S
C1208 C1213 1.397 . S
C1209 H1172 0.920 1_545 S
C1209 C1208 1.382 . S
C1209 C1210 1.382 . S
C1210 H1173 0.916 1_545 S
C1210 C1209 1.382 . S
C1210 C1211 1.376 . S
C1211 C1210 1.376 . S
C1211 C1212 1.378 . S
C1211 C1238 1.486 . S
C1212 H1174 0.930 . S
C1212 C1211 1.378 . S
C1212 C1213 1.376 . S
C1213 H1175 0.929 . S
C1213 C1208 1.397 . S
C1213 C1212 1.376 . S
C1214 C1198 1.509 . S
C1214 C1215 1.391 . S
C1214 C1219 1.386 . S
C1215 H1176 0.930 . S
C1215 C1214 1.391 . S
C1215 C1216 1.375 . S
C1216 H1177 0.931 . S
C1216 C1215 1.375 . S
C1216 C1217 1.375 . S
C1217 C1216 1.375 . S
C1217 C1218 1.361 . S
C1218 H1178 0.930 . S
C1218 C1217 1.361 . S
C1218 C1219 1.399 . S
C1219 H1179 0.929 . S
C1219 C1214 1.386 . S
C1219 C1218 1.399 . S
C1220 C1199 1.485 . S
C1220 C1221 1.394 . S
C1220 C1225 1.360 . S
C1221 H1180 0.931 . S
C1221 C1220 1.394 . S
C1221 C1222 1.372 . S
C1222 H1181 0.930 . S
C1222 C1221 1.372 . S
C1222 C1223 1.397 . S
C1223 C1222 1.397 . S
C1223 C1224 1.390 . S
C1223 C1239 1.476 . S
C1224 H1182 0.930 . S
C1224 C1223 1.390 . S
C1224 C1225 1.366 . S
C1225 H1183 0.932 . S
C1225 C1220 1.360 . S
C1225 C1224 1.366 . S
C1226 C1200 1.490 1_565 S
C1226 C1227 1.380 1_565 S
C1226 C1231 1.386 . S
C1227 H1184 0.930 . S
C1227 C1226 1.380 1_545 S
C1227 C1228 1.381 . S
C1228 H1185 0.929 . S
C1228 C1227 1.381 . S
C1228 C1229 1.371 1_545 S
C1229 C1228 1.371 1_565 S
C1229 C1230 1.380 . S
C1230 H1186 0.931 . S
C1230 C1229 1.380 . S
C1230 C1231 1.387 . S
C1231 H1187 0.930 . S
C1231 C1226 1.386 . S
C1231 C1230 1.387 . S
C1232 C1201 1.519 . S
C1232 C1233 1.377 . S
C1232 C1237 1.361 . S
C1233 H1188 0.929 . S
C1233 C1232 1.377 . S
C1233 C1234 1.386 . S
C1234 H1189 0.931 . S
C1234 C1233 1.386 . S
C1234 C1235 1.363 . S
C1235 C1234 1.363 . S
C1235 C1236 1.385 . S
C1236 H1190 0.930 . S
C1236 C1235 1.385 . S
C1236 C1237 1.396 . S
C1237 H1191 0.929 . S
C1237 C1232 1.361 . S
C1237 C1236 1.396 . S
C1238 O1192 1.300 . S
C1238 O1193 1.209 . S
C1238 C1211 1.486 . S
C1239 O1194 1.199 . S
C1239 O1195 1.297 . S
C1239 C1223 1.476 . S
H1240 O1266 0.856 . S
H1241 O1269 0.854 . S
H1242 C1277 0.930 . S
H1243 C1278 0.930 . S
H1244 C1280 0.930 . S
H1245 C1281 0.930 . S
H1246 C1283 0.931 . S
H1247 C1284 0.930 . S
H1248 C1286 0.930 . S
H1249 C1287 0.929 . S
H1250 C1289 0.930 . S
H1251 C1290 0.931 . S
H1252 C1292 0.930 . S
H1253 C1293 0.929 . S
H1254 C1295 0.931 . S
H1255 C1296 0.930 . S
H1256 C1298 0.930 . S
H1257 C1299 0.932 . S
H1258 C1301 0.930 . S
H1259 C1302 0.929 . S
H1260 C1304 0.931 . S
H1261 C1305 0.930 . S
H1262 C1307 0.929 . S
H1263 C1308 0.931 . S
H1264 C1310 0.930 . S
H1265 C1311 0.929 . S
O1266 H1240 0.856 . S
O1266 C1312 1.300 . S
O1267 C1312 1.209 . S
O1268 C1313 1.199 . S
O1269 H1241 0.854 . S
O1269 C1313 1.297 . S
C1270 C1271 1.404 . S
C1270 C1275 1.397 . S
C1270 C1276 1.492 . S
C1271 C1270 1.404 . S
C1271 C1272 1.396 . S
C1271 C1282 1.492 . S
C1272 C1271 1.396 . S
C1272 C1273 1.397 . S
C1272 C1288 1.509 . S
C1273 C1272 1.397 . S
C1273 C1274 1.412 . S
C1273 C1294 1.485 . S
C1274 C1273 1.412 . S
C1274 C1275 1.388 . S
C1274 C1300 1.490 . S
C1275 C1270 1.397 . S
C1275 C1274 1.388 . S
C1275 C1306 1.519 . S
C1276 C1270 1.492 . S
C1276 C1277 1.363 . S
C1276 C1281 1.390 . S
C1277 H1242 0.930 . S
C1277 C1276 1.363 . S
C1277 C1278 1.372 . S
C1278 H1243 0.930 . S
C1278 C1277 1.372 . S
C1278 C1279 1.383 . S
C1279 C1278 1.383 . S
C1279 C1280 1.395 . S
C1280 H1244 0.930 . S
C1280 C1279 1.395 . S
C1280 C1281 1.362 . S
C1281 H1245 0.930 . S
C1281 C1276 1.390 . S
C1281 C1280 1.362 . S
C1282 C1271 1.492 . S
C1282 C1283 1.377 . S
C1282 C1287 1.397 . S
C1283 H1246 0.931 . S
C1283 C1282 1.377 . S
C1283 C1284 1.376 . S
C1284 H1247 0.930 . S
C1284 C1283 1.376 . S
C1284 C1285 1.376 . S
C1285 C1284 1.376 . S
C1285 C1286 1.378 . S
C1285 C1312 1.486 . S
C1286 H1248 0.930 . S
C1286 C1285 1.378 . S
C1286 C1287 1.376 . S
C1287 H1249 0.929 . S
C1287 C1282 1.397 . S
C1287 C1286 1.376 . S
C1288 C1272 1.509 . S
C1288 C1289 1.391 . S
C1288 C1293 1.386 . S
C1289 H1250 0.930 . S
C1289 C1288 1.391 . S
C1289 C1290 1.375 . S
C1290 H1251 0.931 . S
C1290 C1289 1.375 . S
C1290 C1291 1.375 . S
C1291 C1290 1.375 . S
C1291 C1292 1.361 . S
C1292 H1252 0.930 . S
C1292 C1291 1.361 . S
C1292 C1293 1.399 . S
C1293 H1253 0.929 . S
C1293 C1288 1.386 . S
C1293 C1292 1.399 . S
C1294 C1273 1.485 . S
C1294 C1295 1.394 . S
C1294 C1299 1.360 . S
C1295 H1254 0.931 . S
C1295 C1294 1.394 . S
C1295 C1296 1.372 . S
C1296 H1255 0.930 . S
C1296 C1295 1.372 . S
C1296 C1297 1.397 . S
C1297 C1296 1.397 . S
C1297 C1298 1.390 . S
C1297 C1313 1.476 . S
C1298 H1256 0.930 . S
C1298 C1297 1.390 . S
C1298 C1299 1.366 . S
C1299 H1257 0.932 . S
C1299 C1294 1.360 . S
C1299 C1298 1.366 . S
C1300 C1274 1.490 . S
C1300 C1301 1.380 . S
C1300 C1305 1.386 . S
C1301 H1258 0.930 . S
C1301 C1300 1.380 . S
C1301 C1302 1.381 . S
C1302 H1259 0.929 . S
C1302 C1301 1.381 . S
C1302 C1303 1.371 . S
C1303 C1302 1.371 . S
C1303 C1304 1.380 . S
C1304 H1260 0.931 . S
C1304 C1303 1.380 . S
C1304 C1305 1.387 . S
C1305 H1261 0.930 . S
C1305 C1300 1.386 . S
C1305 C1304 1.387 . S
C1306 C1275 1.519 . S
C1306 C1307 1.377 . S
C1306 C1311 1.361 . S
C1307 H1262 0.929 . S
C1307 C1306 1.377 . S
C1307 C1308 1.386 . S
C1308 H1263 0.931 . S
C1308 C1307 1.386 . S
C1308 C1309 1.363 . S
C1309 C1308 1.363 . S
C1309 C1310 1.385 . S
C1310 H1264 0.930 . S
C1310 C1309 1.385 . S
C1310 C1311 1.396 . S
C1311 H1265 0.929 . S
C1311 C1306 1.361 . S
C1311 C1310 1.396 . S
C1312 O1266 1.300 . S
C1312 O1267 1.209 . S
C1312 C1285 1.486 . S
C1313 O1268 1.199 . S
C1313 O1269 1.297 . S
C1313 C1297 1.476 . S
H1314 O1340 0.856 . S
H1315 O1343 0.854 . S
H1316 C1351 0.930 . S
H1317 C1352 0.930 . S
H1318 C1354 0.930 . S
H1319 C1355 0.930 . S
H1320 C1357 0.931 . S
H1321 C1358 0.930 . S
H1322 C1360 0.930 . S
H1323 C1361 0.929 . S
H1324 C1363 0.930 . S
H1325 C1364 0.931 . S
H1326 C1366 0.930 . S
H1327 C1367 0.929 . S
H1328 C1369 0.931 . S
H1329 C1370 0.930 . S
H1330 C1372 0.930 . S
H1331 C1373 0.932 . S
H1332 C1375 0.930 . S
H1333 C1376 0.929 . S
H1334 C1378 0.931 . S
H1335 C1379 0.930 . S
H1336 C1381 0.929 . S
H1337 C1382 0.931 . S
H1338 C1384 0.930 . S
H1339 C1385 0.929 . S
O1340 H1314 0.856 . S
O1340 C1386 1.300 . S
O1341 C1386 1.209 . S
O1342 C1387 1.199 . S
O1343 H1315 0.854 . S
O1343 C1387 1.297 . S
C1344 C1345 1.404 . S
C1344 C1349 1.397 . S
C1344 C1350 1.492 . S
C1345 C1344 1.404 . S
C1345 C1346 1.396 . S
C1345 C1356 1.492 . S
C1346 C1345 1.396 . S
C1346 C1347 1.397 . S
C1346 C1362 1.509 . S
C1347 C1346 1.397 . S
C1347 C1348 1.412 . S
C1347 C1368 1.485 . S
C1348 C1347 1.412 . S
C1348 C1349 1.388 . S
C1348 C1374 1.490 . S
C1349 C1344 1.397 . S
C1349 C1348 1.388 . S
C1349 C1380 1.519 . S
C1350 C1344 1.492 . S
C1350 C1351 1.363 . S
C1350 C1355 1.390 . S
C1351 H1316 0.930 . S
C1351 C1350 1.363 . S
C1351 C1352 1.372 . S
C1352 H1317 0.930 . S
C1352 C1351 1.372 . S
C1352 C1353 1.383 . S
C1353 C1352 1.383 . S
C1353 C1354 1.395 . S
C1354 H1318 0.930 . S
C1354 C1353 1.395 . S
C1354 C1355 1.362 . S
C1355 H1319 0.930 . S
C1355 C1350 1.390 . S
C1355 C1354 1.362 . S
C1356 C1345 1.492 . S
C1356 C1357 1.377 . S
C1356 C1361 1.397 . S
C1357 H1320 0.931 . S
C1357 C1356 1.377 . S
C1357 C1358 1.376 . S
C1358 H1321 0.930 . S
C1358 C1357 1.376 . S
C1358 C1359 1.376 . S
C1359 C1358 1.376 . S
C1359 C1360 1.378 . S
C1359 C1386 1.486 . S
C1360 H1322 0.930 . S
C1360 C1359 1.378 . S
C1360 C1361 1.376 . S
C1361 H1323 0.929 . S
C1361 C1356 1.397 . S
C1361 C1360 1.376 . S
C1362 C1346 1.509 . S
C1362 C1363 1.391 . S
C1362 C1367 1.386 . S
C1363 H1324 0.930 . S
C1363 C1362 1.391 . S
C1363 C1364 1.375 . S
C1364 H1325 0.931 . S
C1364 C1363 1.375 . S
C1364 C1365 1.375 . S
C1365 C1364 1.375 . S
C1365 C1366 1.361 . S
C1366 H1326 0.930 . S
C1366 C1365 1.361 . S
C1366 C1367 1.399 . S
C1367 H1327 0.929 . S
C1367 C1362 1.386 . S
C1367 C1366 1.399 . S
C1368 C1347 1.485 . S
C1368 C1369 1.394 . S
C1368 C1373 1.360 . S
C1369 H1328 0.931 . S
C1369 C1368 1.394 . S
C1369 C1370 1.372 . S
C1370 H1329 0.930 . S
C1370 C1369 1.372 . S
C1370 C1371 1.397 . S
C1371 C1370 1.397 . S
C1371 C1372 1.390 . S
C1371 C1387 1.476 . S
C1372 H1330 0.930 . S
C1372 C1371 1.390 . S
C1372 C1373 1.366 . S
C1373 H1331 0.932 . S
C1373 C1368 1.360 . S
C1373 C1372 1.366 . S
C1374 C1348 1.490 . S
C1374 C1375 1.380 . S
C1374 C1379 1.386 . S
C1375 H1332 0.930 . S
C1375 C1374 1.380 . S
C1375 C1376 1.381 . S
C1376 H1333 0.929 . S
C1376 C1375 1.381 . S
C1376 C1377 1.371 . S
C1377 C1376 1.371 . S
C1377 C1378 1.380 . S
C1378 H1334 0.931 . S
C1378 C1377 1.380 . S
C1378 C1379 1.387 . S
C1379 H1335 0.930 . S
C1379 C1374 1.386 . S
C1379 C1378 1.387 . S
C1380 C1349 1.519 . S
C1380 C1381 1.377 . S
C1380 C1385 1.361 . S
C1381 H1336 0.929 . S
C1381 C1380 1.377 . S
C1381 C1382 1.386 . S
C1382 H1337 0.931 . S
C1382 C1381 1.386 . S
C1382 C1383 1.363 . S
C1383 C1382 1.363 . S
C1383 C1384 1.385 . S
C1384 H1338 0.930 . S
C1384 C1383 1.385 . S
C1384 C1385 1.396 . S
C1385 H1339 0.929 . S
C1385 C1380 1.361 . S
C1385 C1384 1.396 . S
C1386 O1340 1.300 . S
C1386 O1341 1.209 . S
C1386 C1359 1.486 . S
C1387 O1342 1.199 . S
C1387 O1343 1.297 . S
C1387 C1371 1.476 . S
H1388 O1414 0.856 . S
H1389 O1417 0.854 . S
H1390 C1425 0.930 . S
H1391 C1426 0.930 . S
H1392 C1428 0.930 . S
H1393 C1429 0.930 . S
H1394 C1431 0.931 . S
H1395 C1432 0.930 . S
H1396 C1434 0.930 . S
H1397 C1435 0.929 . S
H1398 C1437 0.930 . S
H1399 C1438 0.931 . S
H1400 C1440 0.930 . S
H1401 C1441 0.929 . S
H1402 C1443 0.931 . S
H1403 C1444 0.930 . S
H1404 C1446 0.930 . S
H1405 C1447 0.932 . S
H1406 C1449 0.930 . S
H1407 C1450 0.929 . S
H1408 C1452 0.931 . S
H1409 C1453 0.930 . S
H1410 C1455 0.929 . S
H1411 C1456 0.931 . S
H1412 C1458 0.930 . S
H1413 C1459 0.929 . S
O1414 H1388 0.856 . S
O1414 C1460 1.300 . S
O1415 C1460 1.209 . S
O1416 C1461 1.199 . S
O1417 H1389 0.854 . S
O1417 C1461 1.297 . S
C1418 C1419 1.404 . S
C1418 C1423 1.397 . S
C1418 C1424 1.492 . S
C1419 C1418 1.404 . S
C1419 C1420 1.396 . S
C1419 C1430 1.492 . S
C1420 C1419 1.396 . S
C1420 C1421 1.397 . S
C1420 C1436 1.509 . S
C1421 C1420 1.397 . S
C1421 C1422 1.412 . S
C1421 C1442 1.485 . S
C1422 C1421 1.412 . S
C1422 C1423 1.388 . S
C1422 C1448 1.490 . S
C1423 C1418 1.397 . S
C1423 C1422 1.388 . S
C1423 C1454 1.519 . S
C1424 C1418 1.492 . S
C1424 C1425 1.363 . S
C1424 C1429 1.390 . S
C1425 H1390 0.930 . S
C1425 C1424 1.363 . S
C1425 C1426 1.372 . S
C1426 H1391 0.930 . S
C1426 C1425 1.372 . S
C1426 C1427 1.383 . S
C1427 C1426 1.383 . S
C1427 C1428 1.395 . S
C1428 H1392 0.930 . S
C1428 C1427 1.395 . S
C1428 C1429 1.362 . S
C1429 H1393 0.930 . S
C1429 C1424 1.390 . S
C1429 C1428 1.362 . S
C1430 C1419 1.492 . S
C1430 C1431 1.377 . S
C1430 C1435 1.397 . S
C1431 H1394 0.931 . S
C1431 C1430 1.377 . S
C1431 C1432 1.376 . S
C1432 H1395 0.930 . S
C1432 C1431 1.376 . S
C1432 C1433 1.376 . S
C1433 C1432 1.376 . S
C1433 C1434 1.378 . S
C1433 C1460 1.486 . S
C1434 H1396 0.930 . S
C1434 C1433 1.378 . S
C1434 C1435 1.376 . S
C1435 H1397 0.929 . S
C1435 C1430 1.397 . S
C1435 C1434 1.376 . S
C1436 C1420 1.509 . S
C1436 C1437 1.391 . S
C1436 C1441 1.386 . S
C1437 H1398 0.930 . S
C1437 C1436 1.391 . S
C1437 C1438 1.375 . S
C1438 H1399 0.931 . S
C1438 C1437 1.375 . S
C1438 C1439 1.375 . S
C1439 C1438 1.375 . S
C1439 C1440 1.361 . S
C1440 H1400 0.930 . S
C1440 C1439 1.361 . S
C1440 C1441 1.399 . S
C1441 H1401 0.929 . S
C1441 C1436 1.386 . S
C1441 C1440 1.399 . S
C1442 C1421 1.485 . S
C1442 C1443 1.394 . S
C1442 C1447 1.360 . S
C1443 H1402 0.931 . S
C1443 C1442 1.394 . S
C1443 C1444 1.372 . S
C1444 H1403 0.930 . S
C1444 C1443 1.372 . S
C1444 C1445 1.397 . S
C1445 C1444 1.397 . S
C1445 C1446 1.390 . S
C1445 C1461 1.476 . S
C1446 H1404 0.930 . S
C1446 C1445 1.390 . S
C1446 C1447 1.366 . S
C1447 H1405 0.932 . S
C1447 C1442 1.360 . S
C1447 C1446 1.366 . S
C1448 C1422 1.490 . S
C1448 C1449 1.380 . S
C1448 C1453 1.386 . S
C1449 H1406 0.930 . S
C1449 C1448 1.380 . S
C1449 C1450 1.381 . S
C1450 H1407 0.929 . S
C1450 C1449 1.381 . S
C1450 C1451 1.371 . S
C1451 C1450 1.371 . S
C1451 C1452 1.380 . S
C1452 H1408 0.931 . S
C1452 C1451 1.380 . S
C1452 C1453 1.387 . S
C1453 H1409 0.930 . S
C1453 C1448 1.386 . S
C1453 C1452 1.387 . S
C1454 C1423 1.519 . S
C1454 C1455 1.377 . S
C1454 C1459 1.361 . S
C1455 H1410 0.929 . S
C1455 C1454 1.377 . S
C1455 C1456 1.386 . S
C1456 H1411 0.931 . S
C1456 C1455 1.386 . S
C1456 C1457 1.363 . S
C1457 C1456 1.363 . S
C1457 C1458 1.385 . S
C1458 H1412 0.930 . S
C1458 C1457 1.385 . S
C1458 C1459 1.396 . S
C1459 H1413 0.929 . S
C1459 C1454 1.361 . S
C1459 C1458 1.396 . S
C1460 O1414 1.300 . S
C1460 O1415 1.209 . S
C1460 C1433 1.486 . S
C1461 O1416 1.199 . S
C1461 O1417 1.297 . S
C1461 C1445 1.476 . S
H1462 O1488 0.856 . S
H1463 O1491 0.854 . S
H1464 C1499 0.930 . S
H1465 C1500 0.930 . S
H1466 C1502 0.930 . S
H1467 C1503 0.930 . S
H1468 C1505 0.931 . S
H1469 C1506 0.930 . S
H1470 C1508 0.930 . S
H1471 C1509 0.929 . S
H1472 C1511 0.930 . S
H1473 C1512 0.931 . S
H1474 C1514 0.930 . S
H1475 C1515 0.929 . S
H1476 C1517 0.931 . S
H1477 C1518 0.930 . S
H1478 C1520 0.930 . S
H1479 C1521 0.932 . S
H1480 C1523 0.930 . S
H1481 C1524 0.929 . S
H1482 C1526 0.931 . S
H1483 C1527 0.930 . S
H1484 C1529 0.929 . S
H1485 C1530 0.931 . S
H1486 C1532 0.930 . S
H1487 C1533 0.929 . S
O1488 H1462 0.856 . S
O1488 C1534 1.300 . S
O1489 C1534 1.209 . S
O1490 C1535 1.199 . S
O1491 H1463 0.854 . S
O1491 C1535 1.297 . S
C1492 C1493 1.404 . S
C1492 C1497 1.397 . S
C1492 C1498 1.492 . S
C1493 C1492 1.404 . S
C1493 C1494 1.396 . S
C1493 C1504 1.492 . S
C1494 C1493 1.396 . S
C1494 C1495 1.397 . S
C1494 C1510 1.509 . S
C1495 C1494 1.397 . S
C1495 C1496 1.412 . S
C1495 C1516 1.485 . S
C1496 C1495 1.412 . S
C1496 C1497 1.388 . S
C1496 C1522 1.490 . S
C1497 C1492 1.397 . S
C1497 C1496 1.388 . S
C1497 C1528 1.519 . S
C1498 C1492 1.492 . S
C1498 C1499 1.363 . S
C1498 C1503 1.390 . S
C1499 H1464 0.930 . S
C1499 C1498 1.363 . S
C1499 C1500 1.372 . S
C1500 H1465 0.930 . S
C1500 C1499 1.372 . S
C1500 C1501 1.383 . S
C1501 C1500 1.383 . S
C1501 C1502 1.395 . S
C1502 H1466 0.930 . S
C1502 C1501 1.395 . S
C1502 C1503 1.362 . S
C1503 H1467 0.930 . S
C1503 C1498 1.390 . S
C1503 C1502 1.362 . S
C1504 C1493 1.492 . S
C1504 C1505 1.377 . S
C1504 C1509 1.397 . S
C1505 H1468 0.931 . S
C1505 C1504 1.377 . S
C1505 C1506 1.376 . S
C1506 H1469 0.930 . S
C1506 C1505 1.376 . S
C1506 C1507 1.376 . S
C1507 C1506 1.376 . S
C1507 C1508 1.378 . S
C1507 C1534 1.486 . S
C1508 H1470 0.930 . S
C1508 C1507 1.378 . S
C1508 C1509 1.376 . S
C1509 H1471 0.929 . S
C1509 C1504 1.397 . S
C1509 C1508 1.376 . S
C1510 C1494 1.509 . S
C1510 C1511 1.391 . S
C1510 C1515 1.386 . S
C1511 H1472 0.930 . S
C1511 C1510 1.391 . S
C1511 C1512 1.375 . S
C1512 H1473 0.931 . S
C1512 C1511 1.375 . S
C1512 C1513 1.375 . S
C1513 C1512 1.375 . S
C1513 C1514 1.361 . S
C1514 H1474 0.930 . S
C1514 C1513 1.361 . S
C1514 C1515 1.399 . S
C1515 H1475 0.929 . S
C1515 C1510 1.386 . S
C1515 C1514 1.399 . S
C1516 C1495 1.485 . S
C1516 C1517 1.394 . S
C1516 C1521 1.360 . S
C1517 H1476 0.931 . S
C1517 C1516 1.394 . S
C1517 C1518 1.372 . S
C1518 H1477 0.930 . S
C1518 C1517 1.372 . S
C1518 C1519 1.397 . S
C1519 C1518 1.397 . S
C1519 C1520 1.390 . S
C1519 C1535 1.476 . S
C1520 H1478 0.930 . S
C1520 C1519 1.390 . S
C1520 C1521 1.366 . S
C1521 H1479 0.932 . S
C1521 C1516 1.360 . S
C1521 C1520 1.366 . S
C1522 C1496 1.490 . S
C1522 C1523 1.380 . S
C1522 C1527 1.386 . S
C1523 H1480 0.930 . S
C1523 C1522 1.380 . S
C1523 C1524 1.381 . S
C1524 H1481 0.929 . S
C1524 C1523 1.381 . S
C1524 C1525 1.371 . S
C1525 C1524 1.371 . S
C1525 C1526 1.380 . S
C1526 H1482 0.931 . S
C1526 C1525 1.380 . S
C1526 C1527 1.387 . S
C1527 H1483 0.930 . S
C1527 C1522 1.386 . S
C1527 C1526 1.387 . S
C1528 C1497 1.519 . S
C1528 C1529 1.377 . S
C1528 C1533 1.361 . S
C1529 H1484 0.929 . S
C1529 C1528 1.377 . S
C1529 C1530 1.386 . S
C1530 H1485 0.931 . S
C1530 C1529 1.386 . S
C1530 C1531 1.363 . S
C1531 C1530 1.363 . S
C1531 C1532 1.385 . S
C1532 H1486 0.930 . S
C1532 C1531 1.385 . S
C1532 C1533 1.396 . S
C1533 H1487 0.929 . S
C1533 C1528 1.361 . S
C1533 C1532 1.396 . S
C1534 O1488 1.300 . S
C1534 O1489 1.209 . S
C1534 C1507 1.486 . S
C1535 O1490 1.199 . S
C1535 O1491 1.297 . S
C1535 C1519 1.476 . S
H1536 O1562 0.856 . S
H1537 O1565 0.854 . S
H1538 C1573 0.930 . S
H1539 C1574 0.930 . S
H1540 C1576 0.930 . S
H1541 C1577 0.930 . S
H1542 C1579 0.931 . S
H1543 C1580 0.930 . S
H1544 C1582 0.930 . S
H1545 C1583 0.929 . S
H1546 C1585 0.930 . S
H1547 C1586 0.931 . S
H1548 C1588 0.930 . S
H1549 C1589 0.929 . S
H1550 C1591 0.931 . S
H1551 C1592 0.930 . S
H1552 C1594 0.930 . S
H1553 C1595 0.932 . S
H1554 C1597 0.930 . S
H1555 C1598 0.929 . S
H1556 C1600 0.931 . S
H1557 C1601 0.930 . S
H1558 C1603 0.929 . S
H1559 C1604 0.931 . S
H1560 C1606 0.930 . S
H1561 C1607 0.929 . S
O1562 H1536 0.856 . S
O1562 C1608 1.300 . S
O1563 C1608 1.209 . S
O1564 C1609 1.199 . S
O1565 H1537 0.854 . S
O1565 C1609 1.297 . S
C1566 C1567 1.404 . S
C1566 C1571 1.397 . S
C1566 C1572 1.492 . S
C1567 C1566 1.404 . S
C1567 C1568 1.396 . S
C1567 C1578 1.492 . S
C1568 C1567 1.396 . S
C1568 C1569 1.397 . S
C1568 C1584 1.509 . S
C1569 C1568 1.397 . S
C1569 C1570 1.412 . S
C1569 C1590 1.485 . S
C1570 C1569 1.412 . S
C1570 C1571 1.388 . S
C1570 C1596 1.490 . S
C1571 C1566 1.397 . S
C1571 C1570 1.388 . S
C1571 C1602 1.519 . S
C1572 C1566 1.492 . S
C1572 C1573 1.363 . S
C1572 C1577 1.390 . S
C1573 H1538 0.930 . S
C1573 C1572 1.363 . S
C1573 C1574 1.372 . S
C1574 H1539 0.930 . S
C1574 C1573 1.372 . S
C1574 C1575 1.383 . S
C1575 C1574 1.383 . S
C1575 C1576 1.395 . S
C1576 H1540 0.930 . S
C1576 C1575 1.395 . S
C1576 C1577 1.362 . S
C1577 H1541 0.930 . S
C1577 C1572 1.390 . S
C1577 C1576 1.362 . S
C1578 C1567 1.492 . S
C1578 C1579 1.377 . S
C1578 C1583 1.397 . S
C1579 H1542 0.931 . S
C1579 C1578 1.377 . S
C1579 C1580 1.376 . S
C1580 H1543 0.930 . S
C1580 C1579 1.376 . S
C1580 C1581 1.376 . S
C1581 C1580 1.376 . S
C1581 C1582 1.378 . S
C1581 C1608 1.486 . S
C1582 H1544 0.930 . S
C1582 C1581 1.378 . S
C1582 C1583 1.376 . S
C1583 H1545 0.929 . S
C1583 C1578 1.397 . S
C1583 C1582 1.376 . S
C1584 C1568 1.509 . S
C1584 C1585 1.391 . S
C1584 C1589 1.386 . S
C1585 H1546 0.930 . S
C1585 C1584 1.391 . S
C1585 C1586 1.375 . S
C1586 H1547 0.931 . S
C1586 C1585 1.375 . S
C1586 C1587 1.375 . S
C1587 C1586 1.375 . S
C1587 C1588 1.361 . S
C1588 H1548 0.930 . S
C1588 C1587 1.361 . S
C1588 C1589 1.399 . S
C1589 H1549 0.929 . S
C1589 C1584 1.386 . S
C1589 C1588 1.399 . S
C1590 C1569 1.485 . S
C1590 C1591 1.394 . S
C1590 C1595 1.360 . S
C1591 H1550 0.931 . S
C1591 C1590 1.394 . S
C1591 C1592 1.372 . S
C1592 H1551 0.930 . S
C1592 C1591 1.372 . S
C1592 C1593 1.397 . S
C1593 C1592 1.397 . S
C1593 C1594 1.390 . S
C1593 C1609 1.476 . S
C1594 H1552 0.930 . S
C1594 C1593 1.390 . S
C1594 C1595 1.366 . S
C1595 H1553 0.932 . S
C1595 C1590 1.360 . S
C1595 C1594 1.366 . S
C1596 C1570 1.490 . S
C1596 C1597 1.380 . S
C1596 C1601 1.386 . S
C1597 H1554 0.930 . S
C1597 C1596 1.380 . S
C1597 C1598 1.381 . S
C1598 H1555 0.929 . S
C1598 C1597 1.381 . S
C1598 C1599 1.371 . S
C1599 C1598 1.371 . S
C1599 C1600 1.380 . S
C1600 H1556 0.931 . S
C1600 C1599 1.380 . S
C1600 C1601 1.387 . S
C1601 H1557 0.930 . S
C1601 C1596 1.386 . S
C1601 C1600 1.387 . S
C1602 C1571 1.519 . S
C1602 C1603 1.377 . S
C1602 C1607 1.361 . S
C1603 H1558 0.929 . S
C1603 C1602 1.377 . S
C1603 C1604 1.386 . S
C1604 H1559 0.931 . S
C1604 C1603 1.386 . S
C1604 C1605 1.363 . S
C1605 C1604 1.363 . S
C1605 C1606 1.385 . S
C1606 H1560 0.930 . S
C1606 C1605 1.385 . S
C1606 C1607 1.396 . S
C1607 H1561 0.929 . S
C1607 C1602 1.361 . S
C1607 C1606 1.396 . S
C1608 O1562 1.300 . S
C1608 O1563 1.209 . S
C1608 C1581 1.486 . S
C1609 O1564 1.199 . S
C1609 O1565 1.297 . S
C1609 C1593 1.476 . S
H1610 O1636 0.856 . S
H1611 O1639 0.854 . S
H1612 C1647 0.930 . S
H1613 C1648 0.930 . S
H1614 C1650 0.930 . S
H1615 C1651 0.930 . S
H1616 C1653 0.931 . S
H1617 C1654 0.930 . S
H1618 C1656 0.930 . S
H1619 C1657 0.929 . S
H1620 C1659 0.930 . S
H1621 C1660 0.931 . S
H1622 C1662 0.930 . S
H1623 C1663 0.929 . S
H1624 C1665 0.931 . S
H1625 C1666 0.930 . S
H1626 C1668 0.930 . S
H1627 C1669 0.932 . S
H1628 C1671 0.930 . S
H1629 C1672 0.929 . S
H1630 C1674 0.931 . S
H1631 C1675 0.930 . S
H1632 C1677 0.929 . S
H1633 C1678 0.931 . S
H1634 C1680 0.930 . S
H1635 C1681 0.929 . S
O1636 H1610 0.856 . S
O1636 C1682 1.300 . S
O1637 C1682 1.209 . S
O1638 C1683 1.199 . S
O1639 H1611 0.854 . S
O1639 C1683 1.297 . S
C1640 C1641 1.404 . S
C1640 C1645 1.397 . S
C1640 C1646 1.492 . S
C1641 C1640 1.404 . S
C1641 C1642 1.396 . S
C1641 C1652 1.492 . S
C1642 C1641 1.396 . S
C1642 C1643 1.397 . S
C1642 C1658 1.509 . S
C1643 C1642 1.397 . S
C1643 C1644 1.412 . S
C1643 C1664 1.485 . S
C1644 C1643 1.412 . S
C1644 C1645 1.388 . S
C1644 C1670 1.490 . S
C1645 C1640 1.397 . S
C1645 C1644 1.388 . S
C1645 C1676 1.519 . S
C1646 C1640 1.492 . S
C1646 C1647 1.363 . S
C1646 C1651 1.390 . S
C1647 H1612 0.930 . S
C1647 C1646 1.363 . S
C1647 C1648 1.372 . S
C1648 H1613 0.930 . S
C1648 C1647 1.372 . S
C1648 C1649 1.383 . S
C1649 C1648 1.383 . S
C1649 C1650 1.395 . S
C1650 H1614 0.930 . S
C1650 C1649 1.395 . S
C1650 C1651 1.362 . S
C1651 H1615 0.930 . S
C1651 C1646 1.390 . S
C1651 C1650 1.362 . S
C1652 C1641 1.492 . S
C1652 C1653 1.377 . S
C1652 C1657 1.397 . S
C1653 H1616 0.931 . S
C1653 C1652 1.377 . S
C1653 C1654 1.376 . S
C1654 H1617 0.930 . S
C1654 C1653 1.376 . S
C1654 C1655 1.376 . S
C1655 C1654 1.376 . S
C1655 C1656 1.378 . S
C1655 C1682 1.486 . S
C1656 H1618 0.930 . S
C1656 C1655 1.378 . S
C1656 C1657 1.376 . S
C1657 H1619 0.929 . S
C1657 C1652 1.397 . S
C1657 C1656 1.376 . S
C1658 C1642 1.509 . S
C1658 C1659 1.391 . S
C1658 C1663 1.386 . S
C1659 H1620 0.930 . S
C1659 C1658 1.391 . S
C1659 C1660 1.375 . S
C1660 H1621 0.931 . S
C1660 C1659 1.375 . S
C1660 C1661 1.375 . S
C1661 C1660 1.375 . S
C1661 C1662 1.361 . S
C1662 H1622 0.930 . S
C1662 C1661 1.361 . S
C1662 C1663 1.399 . S
C1663 H1623 0.929 . S
C1663 C1658 1.386 . S
C1663 C1662 1.399 . S
C1664 C1643 1.485 . S
C1664 C1665 1.394 . S
C1664 C1669 1.360 . S
C1665 H1624 0.931 . S
C1665 C1664 1.394 . S
C1665 C1666 1.372 . S
C1666 H1625 0.930 . S
C1666 C1665 1.372 . S
C1666 C1667 1.397 . S
C1667 C1666 1.397 . S
C1667 C1668 1.390 . S
C1667 C1683 1.476 . S
C1668 H1626 0.930 . S
C1668 C1667 1.390 . S
C1668 C1669 1.366 . S
C1669 H1627 0.932 . S
C1669 C1664 1.360 . S
C1669 C1668 1.366 . S
C1670 C1644 1.490 . S
C1670 C1671 1.380 . S
C1670 C1675 1.386 . S
C1671 H1628 0.930 . S
C1671 C1670 1.380 . S
C1671 C1672 1.381 . S
C1672 H1629 0.929 . S
C1672 C1671 1.381 . S
C1672 C1673 1.371 . S
C1673 C1672 1.371 . S
C1673 C1674 1.380 . S
C1674 H1630 0.931 . S
C1674 C1673 1.380 . S
C1674 C1675 1.387 . S
C1675 H1631 0.930 . S
C1675 C1670 1.386 . S
C1675 C1674 1.387 . S
C1676 C1645 1.519 . S
C1676 C1677 1.377 . S
C1676 C1681 1.361 . S
C1677 H1632 0.929 . S
C1677 C1676 1.377 . S
C1677 C1678 1.386 . S
C1678 H1633 0.931 . S
C1678 C1677 1.386 . S
C1678 C1679 1.363 . S
C1679 C1678 1.363 . S
C1679 C1680 1.385 . S
C1680 H1634 0.930 . S
C1680 C1679 1.385 . S
C1680 C1681 1.396 . S
C1681 H1635 0.929 . S
C1681 C1676 1.361 . S
C1681 C1680 1.396 . S
C1682 O1636 1.300 . S
C1682 O1637 1.209 . S
C1682 C1655 1.486 . S
C1683 O1638 1.199 . S
C1683 O1639 1.297 . S
C1683 C1667 1.476 . S
H1684 O1710 0.856 . S
H1685 O1713 0.854 . S
H1686 C1721 0.930 . S
H1687 C1722 0.930 . S
H1688 C1724 0.930 . S
H1689 C1725 0.930 . S
H1690 C1727 0.931 . S
H1691 C1728 0.930 . S
H1692 C1730 0.930 . S
H1693 C1731 0.929 . S
H1694 C1733 0.930 . S
H1695 C1734 0.931 . S
H1696 C1736 0.930 . S
H1697 C1737 0.929 . S
H1698 C1739 0.931 . S
H1699 C1740 0.930 . S
H1700 C1742 0.930 . S
H1701 C1743 0.932 . S
H1702 C1745 0.930 . S
H1703 C1746 0.929 . S
H1704 C1748 0.931 . S
H1705 C1749 0.930 . S
H1706 C1751 0.929 . S
H1707 C1752 0.931 . S
H1708 C1754 0.930 . S
H1709 C1755 0.929 . S
O1710 H1684 0.856 . S
O1710 C1756 1.300 . S
O1711 C1756 1.209 . S
O1712 C1757 1.199 . S
O1713 H1685 0.854 . S
O1713 C1757 1.297 . S
C1714 C1715 1.404 . S
C1714 C1719 1.397 . S
C1714 C1720 1.492 . S
C1715 C1714 1.404 . S
C1715 C1716 1.396 . S
C1715 C1726 1.492 . S
C1716 C1715 1.396 . S
C1716 C1717 1.397 . S
C1716 C1732 1.509 . S
C1717 C1716 1.397 . S
C1717 C1718 1.412 . S
C1717 C1738 1.485 . S
C1718 C1717 1.412 . S
C1718 C1719 1.388 . S
C1718 C1744 1.490 . S
C1719 C1714 1.397 . S
C1719 C1718 1.388 . S
C1719 C1750 1.519 . S
C1720 C1714 1.492 . S
C1720 C1721 1.363 . S
C1720 C1725 1.390 . S
C1721 H1686 0.930 . S
C1721 C1720 1.363 . S
C1721 C1722 1.372 . S
C1722 H1687 0.930 . S
C1722 C1721 1.372 . S
C1722 C1723 1.383 . S
C1723 C1722 1.383 . S
C1723 C1724 1.395 . S
C1724 H1688 0.930 . S
C1724 C1723 1.395 . S
C1724 C1725 1.362 . S
C1725 H1689 0.930 . S
C1725 C1720 1.390 . S
C1725 C1724 1.362 . S
C1726 C1715 1.492 . S
C1726 C1727 1.377 . S
C1726 C1731 1.397 . S
C1727 H1690 0.931 . S
C1727 C1726 1.377 . S
C1727 C1728 1.376 . S
C1728 H1691 0.930 . S
C1728 C1727 1.376 . S
C1728 C1729 1.376 . S
C1729 C1728 1.376 . S
C1729 C1730 1.378 . S
C1729 C1756 1.486 . S
C1730 H1692 0.930 . S
C1730 C1729 1.378 . S
C1730 C1731 1.376 . S
C1731 H1693 0.929 . S
C1731 C1726 1.397 . S
C1731 C1730 1.376 . S
C1732 C1716 1.509 . S
C1732 C1733 1.391 . S
C1732 C1737 1.386 . S
C1733 H1694 0.930 . S
C1733 C1732 1.391 . S
C1733 C1734 1.375 . S
C1734 H1695 0.931 . S
C1734 C1733 1.375 . S
C1734 C1735 1.375 . S
C1735 C1734 1.375 . S
C1735 C1736 1.361 . S
C1736 H1696 0.930 . S
C1736 C1735 1.361 . S
C1736 C1737 1.399 . S
C1737 H1697 0.929 . S
C1737 C1732 1.386 . S
C1737 C1736 1.399 . S
C1738 C1717 1.485 . S
C1738 C1739 1.394 . S
C1738 C1743 1.360 . S
C1739 H1698 0.931 . S
C1739 C1738 1.394 . S
C1739 C1740 1.372 . S
C1740 H1699 0.930 . S
C1740 C1739 1.372 . S
C1740 C1741 1.397 . S
C1741 C1740 1.397 . S
C1741 C1742 1.390 . S
C1741 C1757 1.476 . S
C1742 H1700 0.930 . S
C1742 C1741 1.390 . S
C1742 C1743 1.366 . S
C1743 H1701 0.932 . S
C1743 C1738 1.360 . S
C1743 C1742 1.366 . S
C1744 C1718 1.490 . S
C1744 C1745 1.380 . S
C1744 C1749 1.386 . S
C1745 H1702 0.930 . S
C1745 C1744 1.380 . S
C1745 C1746 1.381 . S
C1746 H1703 0.929 . S
C1746 C1745 1.381 . S
C1746 C1747 1.371 . S
C1747 C1746 1.371 . S
C1747 C1748 1.380 . S
C1748 H1704 0.931 . S
C1748 C1747 1.380 . S
C1748 C1749 1.387 . S
C1749 H1705 0.930 . S
C1749 C1744 1.386 . S
C1749 C1748 1.387 . S
C1750 C1719 1.519 . S
C1750 C1751 1.377 . S
C1750 C1755 1.361 . S
C1751 H1706 0.929 . S
C1751 C1750 1.377 . S
C1751 C1752 1.386 . S
C1752 H1707 0.931 . S
C1752 C1751 1.386 . S
C1752 C1753 1.363 . S
C1753 C1752 1.363 . S
C1753 C1754 1.385 . S
C1754 H1708 0.930 . S
C1754 C1753 1.385 . S
C1754 C1755 1.396 . S
C1755 H1709 0.929 . S
C1755 C1750 1.361 . S
C1755 C1754 1.396 . S
C1756 O1710 1.300 . S
C1756 O1711 1.209 . S
C1756 C1729 1.486 . S
C1757 O1712 1.199 . S
C1757 O1713 1.297 . S
C1757 C1741 1.476 . S
H1758 O1784 0.856 . S
H1759 O1787 0.854 . S
H1760 C1795 0.930 . S
H1761 C1796 0.930 . S
H1762 C1798 0.930 . S
H1763 C1799 0.930 . S
H1764 C1801 0.931 . S
H1765 C1802 0.930 . S
H1766 C1804 0.930 . S
H1767 C1805 0.929 . S
H1768 C1807 0.930 . S
H1769 C1808 0.931 . S
H1770 C1810 0.930 . S
H1771 C1811 0.929 . S
H1772 C1813 0.931 . S
H1773 C1814 0.930 . S
H1774 C1816 0.930 . S
H1775 C1817 0.932 . S
H1776 C1819 0.930 . S
H1777 C1820 0.929 . S
H1778 C1822 0.931 . S
H1779 C1823 0.930 . S
H1780 C1825 0.929 . S
H1781 C1826 0.931 . S
H1782 C1828 0.930 . S
H1783 C1829 0.929 . S
O1784 H1758 0.856 . S
O1784 C1830 1.300 . S
O1785 C1830 1.209 . S
O1786 C1831 1.199 . S
O1787 H1759 0.854 . S
O1787 C1831 1.297 . S
C1788 C1789 1.404 . S
C1788 C1793 1.397 . S
C1788 C1794 1.492 . S
C1789 C1788 1.404 . S
C1789 C1790 1.396 . S
C1789 C1800 1.492 . S
C1790 C1789 1.396 . S
C1790 C1791 1.397 . S
C1790 C1806 1.509 . S
C1791 C1790 1.397 . S
C1791 C1792 1.412 . S
C1791 C1812 1.485 . S
C1792 C1791 1.412 . S
C1792 C1793 1.388 . S
C1792 C1818 1.490 . S
C1793 C1788 1.397 . S
C1793 C1792 1.388 . S
C1793 C1824 1.519 . S
C1794 C1788 1.492 . S
C1794 C1795 1.363 . S
C1794 C1799 1.390 . S
C1795 H1760 0.930 . S
C1795 C1794 1.363 . S
C1795 C1796 1.372 . S
C1796 H1761 0.930 . S
C1796 C1795 1.372 . S
C1796 C1797 1.383 . S
C1797 C1796 1.383 . S
C1797 C1798 1.395 . S
C1798 H1762 0.930 . S
C1798 C1797 1.395 . S
C1798 C1799 1.362 . S
C1799 H1763 0.930 . S
C1799 C1794 1.390 . S
C1799 C1798 1.362 . S
C1800 C1789 1.492 . S
C1800 C1801 1.377 . S
C1800 C1805 1.397 . S
C1801 H1764 0.931 . S
C1801 C1800 1.377 . S
C1801 C1802 1.376 . S
C1802 H1765 0.930 . S
C1802 C1801 1.376 . S
C1802 C1803 1.376 . S
C1803 C1802 1.376 . S
C1803 C1804 1.378 . S
C1803 C1830 1.486 . S
C1804 H1766 0.930 . S
C1804 C1803 1.378 . S
C1804 C1805 1.376 . S
C1805 H1767 0.929 . S
C1805 C1800 1.397 . S
C1805 C1804 1.376 . S
C1806 C1790 1.509 . S
C1806 C1807 1.391 . S
C1806 C1811 1.386 . S
C1807 H1768 0.930 . S
C1807 C1806 1.391 . S
C1807 C1808 1.375 . S
C1808 H1769 0.931 . S
C1808 C1807 1.375 . S
C1808 C1809 1.375 . S
C1809 C1808 1.375 . S
C1809 C1810 1.361 . S
C1810 H1770 0.930 . S
C1810 C1809 1.361 . S
C1810 C1811 1.399 . S
C1811 H1771 0.929 . S
C1811 C1806 1.386 . S
C1811 C1810 1.399 . S
C1812 C1791 1.485 . S
C1812 C1813 1.394 . S
C1812 C1817 1.360 . S
C1813 H1772 0.931 . S
C1813 C1812 1.394 . S
C1813 C1814 1.372 . S
C1814 H1773 0.930 . S
C1814 C1813 1.372 . S
C1814 C1815 1.397 . S
C1815 C1814 1.397 . S
C1815 C1816 1.390 . S
C1815 C1831 1.476 . S
C1816 H1774 0.930 . S
C1816 C1815 1.390 . S
C1816 C1817 1.366 . S
C1817 H1775 0.932 . S
C1817 C1812 1.360 . S
C1817 C1816 1.366 . S
C1818 C1792 1.490 . S
C1818 C1819 1.380 . S
C1818 C1823 1.386 . S
C1819 H1776 0.930 . S
C1819 C1818 1.380 . S
C1819 C1820 1.381 . S
C1820 H1777 0.929 . S
C1820 C1819 1.381 . S
C1820 C1821 1.371 . S
C1821 C1820 1.371 . S
C1821 C1822 1.380 . S
C1822 H1778 0.931 . S
C1822 C1821 1.380 . S
C1822 C1823 1.387 . S
C1823 H1779 0.930 . S
C1823 C1818 1.386 . S
C1823 C1822 1.387 . S
C1824 C1793 1.519 . S
C1824 C1825 1.377 . S
C1824 C1829 1.361 . S
C1825 H1780 0.929 . S
C1825 C1824 1.377 . S
C1825 C1826 1.386 . S
C1826 H1781 0.931 . S
C1826 C1825 1.386 . S
C1826 C1827 1.363 . S
C1827 C1826 1.363 . S
C1827 C1828 1.385 . S
C1828 H1782 0.930 . S
C1828 C1827 1.385 . S
C1828 C1829 1.396 . S
C1829 H1783 0.929 . S
C1829 C1824 1.361 . S
C1829 C1828 1.396 . S
C1830 O1784 1.300 . S
C1830 O1785 1.209 . S
C1830 C1803 1.486 . S
C1831 O1786 1.199 . S
C1831 O1787 1.297 . S
C1831 C1815 1.476 . S
H1832 O1858 0.856 . S
H1833 O1861 0.854 . S
H1834 C1869 0.930 . S
H1835 C1870 0.930 . S
H1836 C1872 0.930 . S
H1837 C1873 0.930 . S
H1838 C1875 0.931 . S
H1839 C1876 0.930 . S
H1840 C1878 0.930 . S
H1841 C1879 0.929 . S
H1842 C1881 0.930 . S
H1843 C1882 0.931 . S
H1844 C1884 0.930 . S
H1845 C1885 0.929 . S
H1846 C1887 0.931 . S
H1847 C1888 0.930 . S
H1848 C1890 0.930 . S
H1849 C1891 0.932 . S
H1850 C1893 0.930 . S
H1851 C1894 0.929 . S
H1852 C1896 0.931 . S
H1853 C1897 0.930 . S
H1854 C1899 0.929 . S
H1855 C1900 0.931 . S
H1856 C1902 0.930 . S
H1857 C1903 0.929 . S
O1858 H1832 0.856 . S
O1858 C1904 1.300 . S
O1859 C1904 1.209 . S
O1860 C1905 1.199 . S
O1861 H1833 0.854 . S
O1861 C1905 1.297 . S
C1862 C1863 1.404 . S
C1862 C1867 1.397 . S
C1862 C1868 1.492 . S
C1863 C1862 1.404 . S
C1863 C1864 1.396 . S
C1863 C1874 1.492 . S
C1864 C1863 1.396 . S
C1864 C1865 1.397 . S
C1864 C1880 1.509 . S
C1865 C1864 1.397 . S
C1865 C1866 1.412 . S
C1865 C1886 1.485 . S
C1866 C1865 1.412 . S
C1866 C1867 1.388 . S
C1866 C1892 1.490 . S
C1867 C1862 1.397 . S
C1867 C1866 1.388 . S
C1867 C1898 1.519 . S
C1868 C1862 1.492 . S
C1868 C1869 1.363 . S
C1868 C1873 1.390 . S
C1869 H1834 0.930 . S
C1869 C1868 1.363 . S
C1869 C1870 1.372 . S
C1870 H1835 0.930 . S
C1870 C1869 1.372 . S
C1870 C1871 1.383 . S
C1871 C1870 1.383 . S
C1871 C1872 1.395 . S
C1872 H1836 0.930 . S
C1872 C1871 1.395 . S
C1872 C1873 1.362 . S
C1873 H1837 0.930 . S
C1873 C1868 1.390 . S
C1873 C1872 1.362 . S
C1874 C1863 1.492 . S
C1874 C1875 1.377 . S
C1874 C1879 1.397 . S
C1875 H1838 0.931 . S
C1875 C1874 1.377 . S
C1875 C1876 1.376 . S
C1876 H1839 0.930 . S
C1876 C1875 1.376 . S
C1876 C1877 1.376 . S
C1877 C1876 1.376 . S
C1877 C1878 1.378 . S
C1877 C1904 1.486 . S
C1878 H1840 0.930 . S
C1878 C1877 1.378 . S
C1878 C1879 1.376 . S
C1879 H1841 0.929 . S
C1879 C1874 1.397 . S
C1879 C1878 1.376 . S
C1880 C1864 1.509 . S
C1880 C1881 1.391 . S
C1880 C1885 1.386 . S
C1881 H1842 0.930 . S
C1881 C1880 1.391 . S
C1881 C1882 1.375 . S
C1882 H1843 0.931 . S
C1882 C1881 1.375 . S
C1882 C1883 1.375 . S
C1883 C1882 1.375 . S
C1883 C1884 1.361 . S
C1884 H1844 0.930 . S
C1884 C1883 1.361 . S
C1884 C1885 1.399 . S
C1885 H1845 0.929 . S
C1885 C1880 1.386 . S
C1885 C1884 1.399 . S
C1886 C1865 1.485 . S
C1886 C1887 1.394 . S
C1886 C1891 1.360 . S
C1887 H1846 0.931 . S
C1887 C1886 1.394 . S
C1887 C1888 1.372 . S
C1888 H1847 0.930 . S
C1888 C1887 1.372 . S
C1888 C1889 1.397 . S
C1889 C1888 1.397 . S
C1889 C1890 1.390 . S
C1889 C1905 1.476 . S
C1890 H1848 0.930 . S
C1890 C1889 1.390 . S
C1890 C1891 1.366 . S
C1891 H1849 0.932 . S
C1891 C1886 1.360 . S
C1891 C1890 1.366 . S
C1892 C1866 1.490 . S
C1892 C1893 1.380 . S
C1892 C1897 1.386 . S
C1893 H1850 0.930 . S
C1893 C1892 1.380 . S
C1893 C1894 1.381 . S
C1894 H1851 0.929 . S
C1894 C1893 1.381 . S
C1894 C1895 1.371 . S
C1895 C1894 1.371 . S
C1895 C1896 1.380 . S
C1896 H1852 0.931 . S
C1896 C1895 1.380 . S
C1896 C1897 1.387 . S
C1897 H1853 0.930 . S
C1897 C1892 1.386 . S
C1897 C1896 1.387 . S
C1898 C1867 1.519 . S
C1898 C1899 1.377 . S
C1898 C1903 1.361 . S
C1899 H1854 0.929 . S
C1899 C1898 1.377 . S
C1899 C1900 1.386 . S
C1900 H1855 0.931 . S
C1900 C1899 1.386 . S
C1900 C1901 1.363 . S
C1901 C1900 1.363 . S
C1901 C1902 1.385 . S
C1902 H1856 0.930 . S
C1902 C1901 1.385 . S
C1902 C1903 1.396 . S
C1903 H1857 0.929 . S
C1903 C1898 1.361 . S
C1903 C1902 1.396 . S
C1904 O1858 1.300 . S
C1904 O1859 1.209 . S
C1904 C1877 1.486 . S
C1905 O1860 1.199 . S
C1905 O1861 1.297 . S
C1905 C1889 1.476 . S
H1906 O1932 0.856 . S
H1907 O1935 0.854 . S
H1908 C1943 0.930 . S
H1909 C1944 0.930 . S
H1910 C1946 0.930 . S
H1911 C1947 0.930 . S
H1912 C1949 0.931 . S
H1913 C1950 0.930 . S
H1914 C1952 0.930 . S
H1915 C1953 0.929 . S
H1916 C1955 0.930 . S
H1917 C1956 0.931 . S
H1918 C1958 0.930 . S
H1919 C1959 0.929 . S
H1920 C1961 0.931 . S
H1921 C1962 0.930 . S
H1922 C1964 0.930 . S
H1923 C1965 0.932 . S
H1924 C1967 0.930 . S
H1925 C1968 0.929 . S
H1926 C1970 0.931 . S
H1927 C1971 0.930 . S
H1928 C1973 0.929 . S
H1929 C1974 0.931 . S
H1930 C1976 0.930 . S
H1931 C1977 0.929 . S
O1932 H1906 0.856 . S
O1932 C1978 1.300 . S
O1933 C1978 1.209 . S
O1934 C1979 1.199 . S
O1935 H1907 0.854 . S
O1935 C1979 1.297 . S
C1936 C1937 1.404 . S
C1936 C1941 1.397 . S
C1936 C1942 1.492 . S
C1937 C1936 1.404 . S
C1937 C1938 1.396 . S
C1937 C1948 1.492 . S
C1938 C1937 1.396 . S
C1938 C1939 1.397 . S
C1938 C1954 1.509 . S
C1939 C1938 1.397 . S
C1939 C1940 1.412 . S
C1939 C1960 1.485 . S
C1940 C1939 1.412 . S
C1940 C1941 1.388 . S
C1940 C1966 1.490 . S
C1941 C1936 1.397 . S
C1941 C1940 1.388 . S
C1941 C1972 1.519 . S
C1942 C1936 1.492 . S
C1942 C1943 1.363 . S
C1942 C1947 1.390 . S
C1943 H1908 0.930 . S
C1943 C1942 1.363 . S
C1943 C1944 1.372 . S
C1944 H1909 0.930 . S
C1944 C1943 1.372 . S
C1944 C1945 1.383 . S
C1945 C1944 1.383 . S
C1945 C1946 1.395 . S
C1946 H1910 0.930 . S
C1946 C1945 1.395 . S
C1946 C1947 1.362 . S
C1947 H1911 0.930 . S
C1947 C1942 1.390 . S
C1947 C1946 1.362 . S
C1948 C1937 1.492 . S
C1948 C1949 1.377 . S
C1948 C1953 1.397 . S
C1949 H1912 0.931 . S
C1949 C1948 1.377 . S
C1949 C1950 1.376 . S
C1950 H1913 0.930 . S
C1950 C1949 1.376 . S
C1950 C1951 1.376 . S
C1951 C1950 1.376 . S
C1951 C1952 1.378 . S
C1951 C1978 1.486 . S
C1952 H1914 0.930 . S
C1952 C1951 1.378 . S
C1952 C1953 1.376 . S
C1953 H1915 0.929 . S
C1953 C1948 1.397 . S
C1953 C1952 1.376 . S
C1954 C1938 1.509 . S
C1954 C1955 1.391 . S
C1954 C1959 1.386 . S
C1955 H1916 0.930 . S
C1955 C1954 1.391 . S
C1955 C1956 1.375 . S
C1956 H1917 0.931 . S
C1956 C1955 1.375 . S
C1956 C1957 1.375 . S
C1957 C1956 1.375 . S
C1957 C1958 1.361 . S
C1958 H1918 0.930 . S
C1958 C1957 1.361 . S
C1958 C1959 1.399 . S
C1959 H1919 0.929 . S
C1959 C1954 1.386 . S
C1959 C1958 1.399 . S
C1960 C1939 1.485 . S
C1960 C1961 1.394 . S
C1960 C1965 1.360 . S
C1961 H1920 0.931 . S
C1961 C1960 1.394 . S
C1961 C1962 1.372 . S
C1962 H1921 0.930 . S
C1962 C1961 1.372 . S
C1962 C1963 1.397 . S
C1963 C1962 1.397 . S
C1963 C1964 1.390 . S
C1963 C1979 1.476 . S
C1964 H1922 0.930 . S
C1964 C1963 1.390 . S
C1964 C1965 1.366 . S
C1965 H1923 0.932 . S
C1965 C1960 1.360 . S
C1965 C1964 1.366 . S
C1966 C1940 1.490 . S
C1966 C1967 1.380 . S
C1966 C1971 1.386 . S
C1967 H1924 0.930 . S
C1967 C1966 1.380 . S
C1967 C1968 1.381 . S
C1968 H1925 0.929 . S
C1968 C1967 1.381 . S
C1968 C1969 1.371 . S
C1969 C1968 1.371 . S
C1969 C1970 1.380 . S
C1970 H1926 0.931 . S
C1970 C1969 1.380 . S
C1970 C1971 1.387 . S
C1971 H1927 0.930 . S
C1971 C1966 1.386 . S
C1971 C1970 1.387 . S
C1972 C1941 1.519 . S
C1972 C1973 1.377 . S
C1972 C1977 1.361 . S
C1973 H1928 0.929 . S
C1973 C1972 1.377 . S
C1973 C1974 1.386 . S
C1974 H1929 0.931 . S
C1974 C1973 1.386 . S
C1974 C1975 1.363 . S
C1975 C1974 1.363 . S
C1975 C1976 1.385 . S
C1976 H1930 0.930 . S
C1976 C1975 1.385 . S
C1976 C1977 1.396 . S
C1977 H1931 0.929 . S
C1977 C1972 1.361 . S
C1977 C1976 1.396 . S
C1978 O1932 1.300 . S
C1978 O1933 1.209 . S
C1978 C1951 1.486 . S
C1979 O1934 1.199 . S
C1979 O1935 1.297 . S
C1979 C1963 1.476 . S
H1980 O2006 0.856 . S
H1981 O2009 0.854 . S
H1982 C2017 0.930 . S
H1983 C2018 0.930 . S
H1984 C2020 0.930 . S
H1985 C2021 0.930 . S
H1986 C2023 0.931 . S
H1987 C2024 0.930 . S
H1988 C2026 0.930 . S
H1989 C2027 0.929 . S
H1990 C2029 0.930 . S
H1991 C2030 0.931 . S
H1992 C2032 0.930 . S
H1993 C2033 0.929 . S
H1994 C2035 0.931 . S
H1995 C2036 0.930 . S
H1996 C2038 0.930 . S
H1997 C2039 0.932 . S
H1998 C2041 0.930 . S
H1999 C2042 0.929 . S
H2000 C2044 0.931 . S
H2001 C2045 0.930 . S
H2002 C2047 0.929 . S
H2003 C2048 0.931 . S
H2004 C2050 0.930 . S
H2005 C2051 0.929 . S
O2006 H1980 0.856 . S
O2006 C2052 1.300 . S
O2007 C2052 1.209 . S
O2008 C2053 1.199 . S
O2009 H1981 0.854 . S
O2009 C2053 1.297 . S
C2010 C2011 1.404 . S
C2010 C2015 1.397 . S
C2010 C2016 1.492 . S
C2011 C2010 1.404 . S
C2011 C2012 1.396 . S
C2011 C2022 1.492 . S
C2012 C2011 1.396 . S
C2012 C2013 1.397 . S
C2012 C2028 1.509 . S
C2013 C2012 1.397 . S
C2013 C2014 1.412 . S
C2013 C2034 1.485 . S
C2014 C2013 1.412 . S
C2014 C2015 1.388 . S
C2014 C2040 1.490 . S
C2015 C2010 1.397 . S
C2015 C2014 1.388 . S
C2015 C2046 1.519 . S
C2016 C2010 1.492 . S
C2016 C2017 1.363 . S
C2016 C2021 1.390 . S
C2017 H1982 0.930 . S
C2017 C2016 1.363 . S
C2017 C2018 1.372 . S
C2018 H1983 0.930 . S
C2018 C2017 1.372 . S
C2018 C2019 1.383 . S
C2019 C2018 1.383 . S
C2019 C2020 1.395 . S
C2020 H1984 0.930 . S
C2020 C2019 1.395 . S
C2020 C2021 1.362 . S
C2021 H1985 0.930 . S
C2021 C2016 1.390 . S
C2021 C2020 1.362 . S
C2022 C2011 1.492 . S
C2022 C2023 1.377 . S
C2022 C2027 1.397 . S
C2023 H1986 0.931 . S
C2023 C2022 1.377 . S
C2023 C2024 1.376 . S
C2024 H1987 0.930 . S
C2024 C2023 1.376 . S
C2024 C2025 1.376 . S
C2025 C2024 1.376 . S
C2025 C2026 1.378 . S
C2025 C2052 1.486 . S
C2026 H1988 0.930 . S
C2026 C2025 1.378 . S
C2026 C2027 1.376 . S
C2027 H1989 0.929 . S
C2027 C2022 1.397 . S
C2027 C2026 1.376 . S
C2028 C2012 1.509 . S
C2028 C2029 1.391 . S
C2028 C2033 1.386 . S
C2029 H1990 0.930 . S
C2029 C2028 1.391 . S
C2029 C2030 1.375 . S
C2030 H1991 0.931 . S
C2030 C2029 1.375 . S
C2030 C2031 1.375 . S
C2031 C2030 1.375 . S
C2031 C2032 1.361 . S
C2032 H1992 0.930 . S
C2032 C2031 1.361 . S
C2032 C2033 1.399 . S
C2033 H1993 0.929 . S
C2033 C2028 1.386 . S
C2033 C2032 1.399 . S
C2034 C2013 1.485 . S
C2034 C2035 1.394 . S
C2034 C2039 1.360 . S
C2035 H1994 0.931 . S
C2035 C2034 1.394 . S
C2035 C2036 1.372 . S
C2036 H1995 0.930 . S
C2036 C2035 1.372 . S
C2036 C2037 1.397 . S
C2037 C2036 1.397 . S
C2037 C2038 1.390 . S
C2037 C2053 1.476 . S
C2038 H1996 0.930 . S
C2038 C2037 1.390 . S
C2038 C2039 1.366 . S
C2039 H1997 0.932 . S
C2039 C2034 1.360 . S
C2039 C2038 1.366 . S
C2040 C2014 1.490 . S
C2040 C2041 1.380 . S
C2040 C2045 1.386 . S
C2041 H1998 0.930 . S
C2041 C2040 1.380 . S
C2041 C2042 1.381 . S
C2042 H1999 0.929 . S
C2042 C2041 1.381 . S
C2042 C2043 1.371 . S
C2043 C2042 1.371 . S
C2043 C2044 1.380 . S
C2044 H2000 0.931 . S
C2044 C2043 1.380 . S
C2044 C2045 1.387 . S
C2045 H2001 0.930 . S
C2045 C2040 1.386 . S
C2045 C2044 1.387 . S
C2046 C2015 1.519 . S
C2046 C2047 1.377 . S
C2046 C2051 1.361 . S
C2047 H2002 0.929 . S
C2047 C2046 1.377 . S
C2047 C2048 1.386 . S
C2048 H2003 0.931 . S
C2048 C2047 1.386 . S
C2048 C2049 1.363 . S
C2049 C2048 1.363 . S
C2049 C2050 1.385 . S
C2050 H2004 0.930 . S
C2050 C2049 1.385 . S
C2050 C2051 1.396 . S
C2051 H2005 0.929 . S
C2051 C2046 1.361 . S
C2051 C2050 1.396 . S
C2052 O2006 1.300 . S
C2052 O2007 1.209 . S
C2052 C2025 1.486 . S
C2053 O2008 1.199 . S
C2053 O2009 1.297 . S
C2053 C2037 1.476 . S
H2054 O2080 0.856 . S
H2055 O2083 0.854 . S
H2056 C2091 0.930 . S
H2057 C2092 0.930 . S
H2058 C2094 0.930 . S
H2059 C2095 0.930 . S
H2060 C2097 0.931 . S
H2061 C2098 0.930 . S
H2062 C2100 0.930 . S
H2063 C2101 0.929 . S
H2064 C2103 0.930 . S
H2065 C2104 0.931 . S
H2066 C2106 0.930 . S
H2067 C2107 0.929 . S
H2068 C2109 0.931 . S
H2069 C2110 0.930 . S
H2070 C2112 0.930 . S
H2071 C2113 0.932 . S
H2072 C2115 0.930 . S
H2073 C2116 0.929 . S
H2074 C2118 0.931 . S
H2075 C2119 0.930 . S
H2076 C2121 0.929 . S
H2077 C2122 0.931 . S
H2078 C2124 0.930 . S
H2079 C2125 0.929 . S
O2080 H2054 0.856 . S
O2080 C2126 1.300 . S
O2081 C2126 1.209 . S
O2082 C2127 1.199 . S
O2083 H2055 0.854 . S
O2083 C2127 1.297 . S
C2084 C2085 1.404 . S
C2084 C2089 1.397 . S
C2084 C2090 1.492 . S
C2085 C2084 1.404 . S
C2085 C2086 1.396 . S
C2085 C2096 1.492 . S
C2086 C2085 1.396 . S
C2086 C2087 1.397 . S
C2086 C2102 1.509 . S
C2087 C2086 1.397 . S
C2087 C2088 1.412 . S
C2087 C2108 1.485 . S
C2088 C2087 1.412 . S
C2088 C2089 1.388 . S
C2088 C2114 1.490 . S
C2089 C2084 1.397 . S
C2089 C2088 1.388 . S
C2089 C2120 1.519 . S
C2090 C2084 1.492 . S
C2090 C2091 1.363 . S
C2090 C2095 1.390 . S
C2091 H2056 0.930 . S
C2091 C2090 1.363 . S
C2091 C2092 1.372 . S
C2092 H2057 0.930 . S
C2092 C2091 1.372 . S
C2092 C2093 1.383 . S
C2093 C2092 1.383 . S
C2093 C2094 1.395 . S
C2094 H2058 0.930 . S
C2094 C2093 1.395 . S
C2094 C2095 1.362 . S
C2095 H2059 0.930 . S
C2095 C2090 1.390 . S
C2095 C2094 1.362 . S
C2096 C2085 1.492 . S
C2096 C2097 1.377 . S
C2096 C2101 1.397 . S
C2097 H2060 0.931 . S
C2097 C2096 1.377 . S
C2097 C2098 1.376 . S
C2098 H2061 0.930 . S
C2098 C2097 1.376 . S
C2098 C2099 1.376 . S
C2099 C2098 1.376 . S
C2099 C2100 1.378 . S
C2099 C2126 1.486 . S
C2100 H2062 0.930 . S
C2100 C2099 1.378 . S
C2100 C2101 1.376 . S
C2101 H2063 0.929 . S
C2101 C2096 1.397 . S
C2101 C2100 1.376 . S
C2102 C2086 1.509 . S
C2102 C2103 1.391 . S
C2102 C2107 1.386 . S
C2103 H2064 0.930 . S
C2103 C2102 1.391 . S
C2103 C2104 1.375 . S
C2104 H2065 0.931 . S
C2104 C2103 1.375 . S
C2104 C2105 1.375 . S
C2105 C2104 1.375 . S
C2105 C2106 1.361 . S
C2106 H2066 0.930 . S
C2106 C2105 1.361 . S
C2106 C2107 1.399 . S
C2107 H2067 0.929 . S
C2107 C2102 1.386 . S
C2107 C2106 1.399 . S
C2108 C2087 1.485 . S
C2108 C2109 1.394 . S
C2108 C2113 1.360 . S
C2109 H2068 0.931 . S
C2109 C2108 1.394 . S
C2109 C2110 1.372 . S
C2110 H2069 0.930 . S
C2110 C2109 1.372 . S
C2110 C2111 1.397 . S
C2111 C2110 1.397 . S
C2111 C2112 1.390 . S
C2111 C2127 1.476 . S
C2112 H2070 0.930 . S
C2112 C2111 1.390 . S
C2112 C2113 1.366 . S
C2113 H2071 0.932 . S
C2113 C2108 1.360 . S
C2113 C2112 1.366 . S
C2114 C2088 1.490 . S
C2114 C2115 1.380 . S
C2114 C2119 1.386 . S
C2115 H2072 0.930 . S
C2115 C2114 1.380 . S
C2115 C2116 1.381 . S
C2116 H2073 0.929 . S
C2116 C2115 1.381 . S
C2116 C2117 1.371 . S
C2117 C2116 1.371 . S
C2117 C2118 1.380 . S
C2118 H2074 0.931 . S
C2118 C2117 1.380 . S
C2118 C2119 1.387 . S
C2119 H2075 0.930 . S
C2119 C2114 1.386 . S
C2119 C2118 1.387 . S
C2120 C2089 1.519 . S
C2120 C2121 1.377 . S
C2120 C2125 1.361 . S
C2121 H2076 0.929 . S
C2121 C2120 1.377 . S
C2121 C2122 1.386 . S
C2122 H2077 0.931 . S
C2122 C2121 1.386 . S
C2122 C2123 1.363 . S
C2123 C2122 1.363 . S
C2123 C2124 1.385 . S
C2124 H2078 0.930 . S
C2124 C2123 1.385 . S
C2124 C2125 1.396 . S
C2125 H2079 0.929 . S
C2125 C2120 1.361 . S
C2125 C2124 1.396 . S
C2126 O2080 1.300 . S
C2126 O2081 1.209 . S
C2126 C2099 1.486 . S
C2127 O2082 1.199 . S
C2127 O2083 1.297 . S
C2127 C2111 1.476 . S
C2128 C2129 1.391 . S
C2128 C2130 1.394 . S
C2128 H2144 0.931 . S
C2129 C2128 1.391 . S
C2129 C2133 1.376 . S
C2130 C2128 1.394 . S
C2130 C2131 1.369 . S
C2130 C2134 1.531 . S
C2131 C2130 1.369 . S
C2131 C2132 1.410 . S
C2131 C2139 1.503 . S
C2132 C2131 1.410 . S
C2132 C2133 1.392 . S
C2132 C2135 1.511 . S
C2133 C2129 1.376 . S
C2133 C2132 1.392 . S
C2133 H2145 0.929 . S
C2134 C2130 1.531 . S
C2134 H2146 0.960 . S
C2134 H2147 0.962 . S
C2134 H2148 0.960 . S
C2135 C2132 1.511 . S
C2135 H2149 0.961 . S
C2135 H2150 0.961 . S
C2135 H2151 0.961 . S
C2136 C2137 1.370 . S
C2136 C2138 1.363 . S
C2136 H2152 0.931 . S
C2137 C2136 1.370 . S
C2137 C2141 1.408 . S
C2138 C2136 1.363 . S
C2138 C2139 1.370 . S
C2138 C2142 1.524 . S
C2139 C2131 1.503 . S
C2139 C2138 1.370 . S
C2139 C2140 1.403 . S
C2140 C2139 1.403 . S
C2140 C2141 1.404 . S
C2140 C2143 1.539 . S
C2141 C2137 1.408 . S
C2141 C2140 1.404 . S
C2141 H2153 0.930 . S
C2142 C2138 1.524 . S
C2142 H2154 0.956 . S
C2142 H2155 0.961 . S
C2142 H2156 0.961 . S
C2143 C2140 1.539 . S
C2143 H2157 0.958 . S
C2143 H2158 0.961 . S
C2143 H2159 0.960 . S
H2144 C2128 0.931 . S
H2145 C2133 0.929 . S
H2146 C2134 0.960 . S
H2147 C2134 0.962 . S
H2148 C2134 0.960 . S
H2149 C2135 0.961 . S
H2150 C2135 0.961 . S
H2151 C2135 0.961 . S
H2152 C2136 0.931 . S
H2153 C2141 0.930 . S
H2154 C2142 0.956 . S
H2155 C2142 0.961 . S
H2156 C2142 0.961 . S
H2157 C2143 0.958 . S
H2158 C2143 0.961 . S
H2159 C2143 0.960 . S
C2160 C2161 1.391 . S
C2160 C2162 1.394 . S
C2160 H2176 0.931 . S
C2161 C2160 1.391 . S
C2161 C2165 1.376 . S
C2162 C2160 1.394 . S
C2162 C2163 1.369 . S
C2162 C2166 1.531 . S
C2163 C2162 1.369 . S
C2163 C2164 1.410 . S
C2163 C2171 1.503 . S
C2164 C2163 1.410 . S
C2164 C2165 1.392 . S
C2164 C2167 1.511 . S
C2165 C2161 1.376 . S
C2165 C2164 1.392 . S
C2165 H2177 0.929 . S
C2166 C2162 1.531 . S
C2166 H2178 0.960 . S
C2166 H2179 0.962 . S
C2166 H2180 0.960 . S
C2167 C2164 1.511 . S
C2167 H2181 0.961 . S
C2167 H2182 0.961 . S
C2167 H2183 0.961 . S
C2168 C2169 1.370 . S
C2168 C2170 1.363 . S
C2168 H2184 0.931 . S
C2169 C2168 1.370 . S
C2169 C2173 1.408 . S
C2170 C2168 1.363 . S
C2170 C2171 1.370 . S
C2170 C2174 1.524 . S
C2171 C2163 1.503 . S
C2171 C2170 1.370 . S
C2171 C2172 1.403 . S
C2172 C2171 1.403 . S
C2172 C2173 1.404 . S
C2172 C2175 1.539 . S
C2173 C2169 1.408 . S
C2173 C2172 1.404 . S
C2173 H2185 0.930 . S
C2174 C2170 1.524 . S
C2174 H2186 0.956 . S
C2174 H2187 0.961 . S
C2174 H2188 0.961 . S
C2175 C2172 1.539 . S
C2175 H2189 0.958 . S
C2175 H2190 0.961 . S
C2175 H2191 0.960 . S
H2176 C2160 0.931 . S
H2177 C2165 0.929 . S
H2178 C2166 0.960 . S
H2179 C2166 0.962 . S
H2180 C2166 0.960 . S
H2181 C2167 0.961 . S
H2182 C2167 0.961 . S
H2183 C2167 0.961 . S
H2184 C2168 0.931 . S
H2185 C2173 0.930 . S
H2186 C2174 0.956 . S
H2187 C2174 0.961 . S
H2188 C2174 0.961 . S
H2189 C2175 0.958 . S
H2190 C2175 0.961 . S
H2191 C2175 0.960 . S
C2192 C2193 1.391 . S
C2192 C2194 1.394 . S
C2192 H2208 0.931 . S
C2193 C2192 1.391 . S
C2193 C2197 1.376 . S
C2194 C2192 1.394 . S
C2194 C2195 1.369 . S
C2194 C2198 1.531 . S
C2195 C2194 1.369 . S
C2195 C2196 1.410 . S
C2195 C2203 1.503 . S
C2196 C2195 1.410 . S
C2196 C2197 1.392 . S
C2196 C2199 1.511 . S
C2197 C2193 1.376 . S
C2197 C2196 1.392 . S
C2197 H2209 0.929 . S
C2198 C2194 1.531 . S
C2198 H2210 0.960 . S
C2198 H2211 0.962 . S
C2198 H2212 0.960 . S
C2199 C2196 1.511 . S
C2199 H2213 0.961 . S
C2199 H2214 0.961 . S
C2199 H2215 0.961 . S
C2200 C2201 1.370 . S
C2200 C2202 1.363 . S
C2200 H2216 0.931 . S
C2201 C2200 1.370 . S
C2201 C2205 1.408 . S
C2202 C2200 1.363 . S
C2202 C2203 1.370 . S
C2202 C2206 1.524 . S
C2203 C2195 1.503 . S
C2203 C2202 1.370 . S
C2203 C2204 1.403 . S
C2204 C2203 1.403 . S
C2204 C2205 1.404 . S
C2204 C2207 1.539 . S
C2205 C2201 1.408 . S
C2205 C2204 1.404 . S
C2205 H2217 0.930 . S
C2206 C2202 1.524 . S
C2206 H2218 0.956 . S
C2206 H2219 0.961 . S
C2206 H2220 0.961 . S
C2207 C2204 1.539 . S
C2207 H2221 0.958 . S
C2207 H2222 0.961 . S
C2207 H2223 0.960 . S
H2208 C2192 0.931 . S
H2209 C2197 0.929 . S
H2210 C2198 0.960 . S
H2211 C2198 0.962 . S
H2212 C2198 0.960 . S
H2213 C2199 0.961 . S
H2214 C2199 0.961 . S
H2215 C2199 0.961 . S
H2216 C2200 0.931 . S
H2217 C2205 0.930 . S
H2218 C2206 0.956 . S
H2219 C2206 0.961 . S
H2220 C2206 0.961 . S
H2221 C2207 0.958 . S
H2222 C2207 0.961 . S
H2223 C2207 0.960 . S
C2224 C2225 1.391 . S
C2224 C2226 1.394 . S
C2224 H2240 0.931 . S
C2225 C2224 1.391 . S
C2225 C2229 1.376 . S
C2226 C2224 1.394 . S
C2226 C2227 1.369 . S
C2226 C2230 1.531 . S
C2227 C2226 1.369 . S
C2227 C2228 1.410 . S
C2227 C2235 1.503 . S
C2228 C2227 1.410 . S
C2228 C2229 1.392 . S
C2228 C2231 1.511 . S
C2229 C2225 1.376 . S
C2229 C2228 1.392 . S
C2229 H2241 0.929 . S
C2230 C2226 1.531 . S
C2230 H2242 0.960 . S
C2230 H2243 0.962 . S
C2230 H2244 0.960 . S
C2231 C2228 1.511 . S
C2231 H2245 0.961 . S
C2231 H2246 0.961 . S
C2231 H2247 0.961 . S
C2232 C2233 1.370 . S
C2232 C2234 1.363 . S
C2232 H2248 0.931 . S
C2233 C2232 1.370 . S
C2233 C2237 1.408 . S
C2234 C2232 1.363 . S
C2234 C2235 1.370 . S
C2234 C2238 1.524 . S
C2235 C2227 1.503 . S
C2235 C2234 1.370 . S
C2235 C2236 1.403 . S
C2236 C2235 1.403 . S
C2236 C2237 1.404 . S
C2236 C2239 1.539 . S
C2237 C2233 1.408 . S
C2237 C2236 1.404 . S
C2237 H2249 0.930 . S
C2238 C2234 1.524 . S
C2238 H2250 0.956 . S
C2238 H2251 0.961 . S
C2238 H2252 0.961 . S
C2239 C2236 1.539 . S
C2239 H2253 0.958 . S
C2239 H2254 0.961 . S
C2239 H2255 0.960 . S
H2240 C2224 0.931 . S
H2241 C2229 0.929 . S
H2242 C2230 0.960 . S
H2243 C2230 0.962 . S
H2244 C2230 0.960 . S
H2245 C2231 0.961 . S
H2246 C2231 0.961 . S
H2247 C2231 0.961 . S
H2248 C2232 0.931 . S
H2249 C2237 0.930 . S
H2250 C2238 0.956 . S
H2251 C2238 0.961 . S
H2252 C2238 0.961 . S
H2253 C2239 0.958 . S
H2254 C2239 0.961 . S
H2255 C2239 0.960 . S
C2256 C2257 1.391 . S
C2256 C2258 1.394 . S
C2256 H2272 0.931 . S
C2257 C2256 1.391 . S
C2257 C2261 1.376 . S
C2258 C2256 1.394 . S
C2258 C2259 1.369 . S
C2258 C2262 1.531 . S
C2259 C2258 1.369 . S
C2259 C2260 1.410 . S
C2259 C2267 1.503 . S
C2260 C2259 1.410 . S
C2260 C2261 1.392 . S
C2260 C2263 1.511 . S
C2261 C2257 1.376 . S
C2261 C2260 1.392 . S
C2261 H2273 0.929 . S
C2262 C2258 1.531 . S
C2262 H2274 0.960 . S
C2262 H2275 0.962 . S
C2262 H2276 0.960 . S
C2263 C2260 1.511 . S
C2263 H2277 0.961 . S
C2263 H2278 0.961 . S
C2263 H2279 0.961 . S
C2264 C2265 1.370 . S
C2264 C2266 1.363 . S
C2264 H2280 0.931 . S
C2265 C2264 1.370 . S
C2265 C2269 1.408 . S
C2266 C2264 1.363 . S
C2266 C2267 1.370 . S
C2266 C2270 1.524 . S
C2267 C2259 1.503 . S
C2267 C2266 1.370 . S
C2267 C2268 1.403 . S
C2268 C2267 1.403 . S
C2268 C2269 1.404 . S
C2268 C2271 1.539 . S
C2269 C2265 1.408 . S
C2269 C2268 1.404 . S
C2269 H2281 0.930 . S
C2270 C2266 1.524 . S
C2270 H2282 0.956 . S
C2270 H2283 0.961 . S
C2270 H2284 0.961 . S
C2271 C2268 1.539 . S
C2271 H2285 0.958 . S
C2271 H2286 0.961 . S
C2271 H2287 0.960 . S
H2272 C2256 0.931 . S
H2273 C2261 0.929 . S
H2274 C2262 0.960 . S
H2275 C2262 0.962 . S
H2276 C2262 0.960 . S
H2277 C2263 0.961 . S
H2278 C2263 0.961 . S
H2279 C2263 0.961 . S
H2280 C2264 0.931 . S
H2281 C2269 0.930 . S
H2282 C2270 0.956 . S
H2283 C2270 0.961 . S
H2284 C2270 0.961 . S
H2285 C2271 0.958 . S
H2286 C2271 0.961 . S
H2287 C2271 0.960 . S
C2288 C2289 1.391 . S
C2288 C2290 1.394 . S
C2288 H2304 0.931 . S
C2289 C2288 1.391 . S
C2289 C2293 1.376 . S
C2290 C2288 1.394 . S
C2290 C2291 1.369 . S
C2290 C2294 1.531 . S
C2291 C2290 1.369 . S
C2291 C2292 1.410 . S
C2291 C2299 1.503 . S
C2292 C2291 1.410 . S
C2292 C2293 1.392 . S
C2292 C2295 1.511 . S
C2293 C2289 1.376 . S
C2293 C2292 1.392 . S
C2293 H2305 0.929 . S
C2294 C2290 1.531 . S
C2294 H2306 0.960 . S
C2294 H2307 0.962 . S
C2294 H2308 0.960 . S
C2295 C2292 1.511 . S
C2295 H2309 0.961 . S
C2295 H2310 0.961 . S
C2295 H2311 0.961 . S
C2296 C2297 1.370 . S
C2296 C2298 1.363 . S
C2296 H2312 0.931 . S
C2297 C2296 1.370 . S
C2297 C2301 1.408 . S
C2298 C2296 1.363 . S
C2298 C2299 1.370 . S
C2298 C2302 1.524 . S
C2299 C2291 1.503 . S
C2299 C2298 1.370 . S
C2299 C2300 1.403 . S
C2300 C2299 1.403 . S
C2300 C2301 1.404 . S
C2300 C2303 1.539 . S
C2301 C2297 1.408 . S
C2301 C2300 1.404 . S
C2301 H2313 0.930 . S
C2302 C2298 1.524 . S
C2302 H2314 0.956 . S
C2302 H2315 0.961 . S
C2302 H2316 0.961 . S
C2303 C2300 1.539 . S
C2303 H2317 0.958 . S
C2303 H2318 0.961 . S
C2303 H2319 0.960 . S
H2304 C2288 0.931 . S
H2305 C2293 0.929 . S
H2306 C2294 0.960 . S
H2307 C2294 0.962 . S
H2308 C2294 0.960 . S
H2309 C2295 0.961 . S
H2310 C2295 0.961 . S
H2311 C2295 0.961 . S
H2312 C2296 0.931 . S
H2313 C2301 0.930 . S
H2314 C2302 0.956 . S
H2315 C2302 0.961 . S
H2316 C2302 0.961 . S
H2317 C2303 0.958 . S
H2318 C2303 0.961 . S
H2319 C2303 0.960 . S
C2320 C2321 1.391 . S
C2320 C2322 1.394 . S
C2320 H2336 0.931 . S
C2321 C2320 1.391 . S
C2321 C2325 1.376 . S
C2322 C2320 1.394 . S
C2322 C2323 1.369 . S
C2322 C2326 1.531 . S
C2323 C2322 1.369 . S
C2323 C2324 1.410 . S
C2323 C2331 1.503 . S
C2324 C2323 1.410 . S
C2324 C2325 1.392 . S
C2324 C2327 1.511 . S
C2325 C2321 1.376 . S
C2325 C2324 1.392 . S
C2325 H2337 0.929 . S
C2326 C2322 1.531 . S
C2326 H2338 0.960 . S
C2326 H2339 0.962 . S
C2326 H2340 0.960 . S
C2327 C2324 1.511 . S
C2327 H2341 0.961 . S
C2327 H2342 0.961 . S
C2327 H2343 0.961 . S
C2328 C2329 1.370 . S
C2328 C2330 1.363 . S
C2328 H2344 0.931 . S
C2329 C2328 1.370 . S
C2329 C2333 1.408 . S
C2330 C2328 1.363 . S
C2330 C2331 1.370 . S
C2330 C2334 1.524 . S
C2331 C2323 1.503 . S
C2331 C2330 1.370 . S
C2331 C2332 1.403 . S
C2332 C2331 1.403 . S
C2332 C2333 1.404 . S
C2332 C2335 1.539 . S
C2333 C2329 1.408 . S
C2333 C2332 1.404 . S
C2333 H2345 0.930 . S
C2334 C2330 1.524 . S
C2334 H2346 0.956 . S
C2334 H2347 0.961 . S
C2334 H2348 0.961 . S
C2335 C2332 1.539 . S
C2335 H2349 0.958 . S
C2335 H2350 0.961 . S
C2335 H2351 0.960 . S
H2336 C2320 0.931 . S
H2337 C2325 0.929 . S
H2338 C2326 0.960 . S
H2339 C2326 0.962 . S
H2340 C2326 0.960 . S
H2341 C2327 0.961 . S
H2342 C2327 0.961 . S
H2343 C2327 0.961 . S
H2344 C2328 0.931 . S
H2345 C2333 0.930 . S
H2346 C2334 0.956 . S
H2347 C2334 0.961 . S
H2348 C2334 0.961 . S
H2349 C2335 0.958 . S
H2350 C2335 0.961 . S
H2351 C2335 0.960 . S
C2352 C2353 1.391 . S
C2352 C2354 1.394 . S
C2352 H2368 0.931 . S
C2353 C2352 1.391 . S
C2353 C2357 1.376 . S
C2354 C2352 1.394 . S
C2354 C2355 1.369 . S
C2354 C2358 1.531 . S
C2355 C2354 1.369 . S
C2355 C2356 1.410 . S
C2355 C2363 1.503 . S
C2356 C2355 1.410 . S
C2356 C2357 1.392 . S
C2356 C2359 1.511 . S
C2357 C2353 1.376 . S
C2357 C2356 1.392 . S
C2357 H2369 0.929 . S
C2358 C2354 1.531 . S
C2358 H2370 0.960 . S
C2358 H2371 0.962 . S
C2358 H2372 0.960 . S
C2359 C2356 1.511 . S
C2359 H2373 0.961 . S
C2359 H2374 0.961 . S
C2359 H2375 0.961 . S
C2360 C2361 1.372 . S
C2360 C2362 1.363 1_554 S
C2360 H2376 0.931 . S
C2361 C2360 1.372 . S
C2361 C2365 1.395 1_554 S
C2362 C2360 1.363 1_556 S
C2362 C2363 1.370 . S
C2362 C2366 1.524 . S
C2363 C2355 1.503 . S
C2363 C2362 1.370 . S
C2363 C2364 1.403 . S
C2364 C2363 1.403 . S
C2364 C2365 1.404 . S
C2364 C2367 1.539 . S
C2365 C2361 1.395 1_556 S
C2365 C2364 1.404 . S
C2365 H2377 0.930 . S
C2366 C2362 1.524 . S
C2366 H2378 0.956 . S
C2366 H2379 0.961 . S
C2366 H2380 0.961 1_556 S
C2367 C2364 1.539 . S
C2367 H2381 0.958 . S
C2367 H2382 0.961 . S
C2367 H2383 0.960 . S
H2368 C2352 0.931 . S
H2369 C2357 0.929 . S
H2370 C2358 0.960 . S
H2371 C2358 0.962 . S
H2372 C2358 0.960 . S
H2373 C2359 0.961 . S
H2374 C2359 0.961 . S
H2375 C2359 0.961 . S
H2376 C2360 0.931 . S
H2377 C2365 0.930 . S
H2378 C2366 0.956 . S
H2379 C2366 0.961 . S
H2380 C2366 0.961 1_554 S
H2381 C2367 0.958 . S
H2382 C2367 0.961 . S
H2383 C2367 0.960 . S
C2384 C2385 1.391 . S
C2384 C2386 1.394 . S
C2384 H2400 0.931 . S
C2385 C2384 1.391 . S
C2385 C2389 1.376 . S
C2386 C2384 1.394 . S
C2386 C2387 1.369 . S
C2386 C2390 1.531 . S
C2387 C2386 1.369 . S
C2387 C2388 1.410 . S
C2387 C2395 1.503 . S
C2388 C2387 1.410 . S
C2388 C2389 1.392 . S
C2388 C2391 1.511 . S
C2389 C2385 1.376 . S
C2389 C2388 1.392 . S
C2389 H2401 0.929 . S
C2390 C2386 1.531 . S
C2390 H2402 0.960 . S
C2390 H2403 0.962 . S
C2390 H2404 0.960 . S
C2391 C2388 1.511 . S
C2391 H2405 0.961 . S
C2391 H2406 0.961 . S
C2391 H2407 0.961 . S
C2392 C2393 1.370 . S
C2392 C2394 1.363 . S
C2392 H2408 0.931 . S
C2393 C2392 1.370 . S
C2393 C2397 1.408 . S
C2394 C2392 1.363 . S
C2394 C2395 1.370 . S
C2394 C2398 1.524 . S
C2395 C2387 1.503 . S
C2395 C2394 1.370 . S
C2395 C2396 1.403 . S
C2396 C2395 1.403 . S
C2396 C2397 1.404 . S
C2396 C2399 1.539 . S
C2397 C2393 1.408 . S
C2397 C2396 1.404 . S
C2397 H2409 0.930 . S
C2398 C2394 1.524 . S
C2398 H2410 0.956 . S
C2398 H2411 0.961 . S
C2398 H2412 0.961 . S
C2399 C2396 1.539 . S
C2399 H2413 0.958 . S
C2399 H2414 0.961 . S
C2399 H2415 0.960 . S
H2400 C2384 0.931 . S
H2401 C2389 0.929 . S
H2402 C2390 0.960 . S
H2403 C2390 0.962 . S
H2404 C2390 0.960 . S
H2405 C2391 0.961 . S
H2406 C2391 0.961 . S
H2407 C2391 0.961 . S
H2408 C2392 0.931 . S
H2409 C2397 0.930 . S
H2410 C2398 0.956 . S
H2411 C2398 0.961 . S
H2412 C2398 0.961 . S
H2413 C2399 0.958 . S
H2414 C2399 0.961 . S
H2415 C2399 0.960 . S
C2416 C2417 1.391 . S
C2416 C2418 1.394 . S
C2416 H2432 0.931 . S
C2417 C2416 1.391 . S
C2417 C2421 1.376 . S
C2418 C2416 1.394 . S
C2418 C2419 1.369 . S
C2418 C2422 1.531 . S
C2419 C2418 1.369 . S
C2419 C2420 1.410 . S
C2419 C2427 1.503 . S
C2420 C2419 1.410 . S
C2420 C2421 1.392 . S
C2420 C2423 1.511 . S
C2421 C2417 1.376 . S
C2421 C2420 1.392 . S
C2421 H2433 0.929 . S
C2422 C2418 1.531 . S
C2422 H2434 0.960 . S
C2422 H2435 0.962 . S
C2422 H2436 0.960 . S
C2423 C2420 1.511 . S
C2423 H2437 0.961 . S
C2423 H2438 0.961 . S
C2423 H2439 0.961 . S
C2424 C2425 1.370 . S
C2424 C2426 1.363 . S
C2424 H2440 0.931 . S
C2425 C2424 1.370 . S
C2425 C2429 1.408 . S
C2426 C2424 1.363 . S
C2426 C2427 1.370 . S
C2426 C2430 1.524 . S
C2427 C2419 1.503 . S
C2427 C2426 1.370 . S
C2427 C2428 1.403 . S
C2428 C2427 1.403 . S
C2428 C2429 1.404 . S
C2428 C2431 1.539 . S
C2429 C2425 1.408 . S
C2429 C2428 1.404 . S
C2429 H2441 0.930 . S
C2430 C2426 1.524 . S
C2430 H2442 0.956 . S
C2430 H2443 0.961 . S
C2430 H2444 0.961 . S
C2431 C2428 1.539 . S
C2431 H2445 0.958 . S
C2431 H2446 0.961 . S
C2431 H2447 0.960 . S
H2432 C2416 0.931 . S
H2433 C2421 0.929 . S
H2434 C2422 0.960 . S
H2435 C2422 0.962 . S
H2436 C2422 0.960 . S
H2437 C2423 0.961 . S
H2438 C2423 0.961 . S
H2439 C2423 0.961 . S
H2440 C2424 0.931 . S
H2441 C2429 0.930 . S
H2442 C2430 0.956 . S
H2443 C2430 0.961 . S
H2444 C2430 0.961 . S
H2445 C2431 0.958 . S
H2446 C2431 0.961 . S
H2447 C2431 0.960 . S
C2448 C2449 1.391 . S
C2448 C2450 1.394 . S
C2448 H2464 0.931 . S
C2449 C2448 1.391 . S
C2449 C2453 1.376 . S
C2450 C2448 1.394 . S
C2450 C2451 1.369 . S
C2450 C2454 1.531 . S
C2451 C2450 1.369 . S
C2451 C2452 1.410 . S
C2451 C2459 1.503 . S
C2452 C2451 1.410 . S
C2452 C2453 1.392 . S
C2452 C2455 1.511 . S
C2453 C2449 1.376 . S
C2453 C2452 1.392 . S
C2453 H2465 0.929 . S
C2454 C2450 1.531 . S
C2454 H2466 0.960 . S
C2454 H2467 0.962 . S
C2454 H2468 0.960 . S
C2455 C2452 1.511 . S
C2455 H2469 0.961 . S
C2455 H2470 0.961 . S
C2455 H2471 0.961 . S
C2456 C2457 1.370 1_655 S
C2456 C2458 1.363 . S
C2456 H2472 0.931 . S
C2457 C2456 1.370 1_455 S
C2457 C2461 1.408 . S
C2458 C2456 1.363 . S
C2458 C2459 1.370 . S
C2458 C2462 1.524 . S
C2459 C2451 1.503 . S
C2459 C2458 1.370 . S
C2459 C2460 1.403 . S
C2460 C2459 1.403 . S
C2460 C2461 1.404 1_655 S
C2460 C2463 1.539 . S
C2461 C2457 1.408 . S
C2461 C2460 1.404 1_455 S
C2461 H2473 0.930 . S
C2462 C2458 1.524 . S
C2462 H2474 0.956 . S
C2462 H2475 0.961 . S
C2462 H2476 0.961 . S
C2463 C2460 1.539 . S
C2463 H2477 0.958 . S
C2463 H2478 0.961 . S
C2463 H2479 0.960 . S
H2464 C2448 0.931 . S
H2465 C2453 0.929 . S
H2466 C2454 0.960 . S
H2467 C2454 0.962 . S
H2468 C2454 0.960 . S
H2469 C2455 0.961 . S
H2470 C2455 0.961 . S
H2471 C2455 0.961 . S
H2472 C2456 0.931 . S
H2473 C2461 0.930 . S
H2474 C2462 0.956 . S
H2475 C2462 0.961 . S
H2476 C2462 0.961 . S
H2477 C2463 0.958 . S
H2478 C2463 0.961 . S
H2479 C2463 0.960 . S
C2480 C2481 1.391 . S
C2480 C2482 1.394 . S
C2480 H2496 0.931 . S
C2481 C2480 1.391 . S
C2481 C2485 1.376 . S
C2482 C2480 1.394 . S
C2482 C2483 1.369 . S
C2482 C2486 1.531 . S
C2483 C2482 1.369 . S
C2483 C2484 1.410 . S
C2483 C2491 1.503 . S
C2484 C2483 1.410 . S
C2484 C2485 1.392 . S
C2484 C2487 1.511 . S
C2485 C2481 1.376 . S
C2485 C2484 1.392 . S
C2485 H2497 0.929 . S
C2486 C2482 1.531 . S
C2486 H2498 0.960 . S
C2486 H2499 0.962 . S
C2486 H2500 0.960 . S
C2487 C2484 1.511 . S
C2487 H2501 0.961 . S
C2487 H2502 0.961 . S
C2487 H2503 0.961 . S
C2488 C2489 1.370 . S
C2488 C2490 1.363 . S
C2488 H2504 0.931 . S
C2489 C2488 1.370 . S
C2489 C2493 1.408 . S
C2490 C2488 1.363 . S
C2490 C2491 1.370 . S
C2490 C2494 1.524 . S
C2491 C2483 1.503 . S
C2491 C2490 1.370 . S
C2491 C2492 1.403 . S
C2492 C2491 1.403 . S
C2492 C2493 1.404 . S
C2492 C2495 1.539 . S
C2493 C2489 1.408 . S
C2493 C2492 1.404 . S
C2493 H2505 0.930 . S
C2494 C2490 1.524 . S
C2494 H2506 0.956 . S
C2494 H2507 0.961 . S
C2494 H2508 0.961 . S
C2495 C2492 1.539 . S
C2495 H2509 0.958 . S
C2495 H2510 0.961 . S
C2495 H2511 0.960 . S
H2496 C2480 0.931 . S
H2497 C2485 0.929 . S
H2498 C2486 0.960 . S
H2499 C2486 0.962 . S
H2500 C2486 0.960 . S
H2501 C2487 0.961 . S
H2502 C2487 0.961 . S
H2503 C2487 0.961 . S
H2504 C2488 0.931 . S
H2505 C2493 0.930 . S
H2506 C2494 0.956 . S
H2507 C2494 0.961 . S
H2508 C2494 0.961 . S
H2509 C2495 0.958 . S
H2510 C2495 0.961 . S
H2511 C2495 0.960 . S
C2512 C2513 1.391 . S
C2512 C2514 1.394 . S
C2512 H2528 0.931 . S
C2513 C2512 1.391 . S
C2513 C2517 1.376 . S
C2514 C2512 1.394 . S
C2514 C2515 1.369 . S
C2514 C2518 1.531 . S
C2515 C2514 1.369 . S
C2515 C2516 1.410 . S
C2515 C2523 1.503 . S
C2516 C2515 1.410 . S
C2516 C2517 1.392 . S
C2516 C2519 1.511 . S
C2517 C2513 1.376 . S
C2517 C2516 1.392 . S
C2517 H2529 0.929 . S
C2518 C2514 1.531 . S
C2518 H2530 0.960 . S
C2518 H2531 0.962 . S
C2518 H2532 0.960 . S
C2519 C2516 1.511 . S
C2519 H2533 0.961 . S
C2519 H2534 0.961 . S
C2519 H2535 0.961 . S
C2520 C2521 1.370 . S
C2520 C2522 1.363 . S
C2520 H2536 0.931 . S
C2521 C2520 1.370 . S
C2521 C2525 1.408 . S
C2522 C2520 1.363 . S
C2522 C2523 1.370 . S
C2522 C2526 1.524 . S
C2523 C2515 1.503 . S
C2523 C2522 1.370 . S
C2523 C2524 1.403 . S
C2524 C2523 1.403 . S
C2524 C2525 1.404 . S
C2524 C2527 1.539 . S
C2525 C2521 1.408 . S
C2525 C2524 1.404 . S
C2525 H2537 0.930 . S
C2526 C2522 1.524 . S
C2526 H2538 0.956 . S
C2526 H2539 0.961 . S
C2526 H2540 0.961 . S
C2527 C2524 1.539 . S
C2527 H2541 0.958 . S
C2527 H2542 0.961 . S
C2527 H2543 0.960 . S
H2528 C2512 0.931 . S
H2529 C2517 0.929 . S
H2530 C2518 0.960 . S
H2531 C2518 0.962 . S
H2532 C2518 0.960 . S
H2533 C2519 0.961 . S
H2534 C2519 0.961 . S
H2535 C2519 0.961 . S
H2536 C2520 0.931 . S
H2537 C2525 0.930 . S
H2538 C2526 0.956 . S
H2539 C2526 0.961 . S
H2540 C2526 0.961 . S
H2541 C2527 0.958 . S
H2542 C2527 0.961 . S
H2543 C2527 0.960 . S
C2544 C2545 1.391 . S
C2544 C2546 1.394 . S
C2544 H2560 0.931 . S
C2545 C2544 1.391 . S
C2545 C2549 1.376 . S
C2546 C2544 1.394 . S
C2546 C2547 1.369 . S
C2546 C2550 1.531 . S
C2547 C2546 1.369 . S
C2547 C2548 1.410 . S
C2547 C2555 1.503 . S
C2548 C2547 1.410 . S
C2548 C2549 1.392 . S
C2548 C2551 1.511 . S
C2549 C2545 1.376 . S
C2549 C2548 1.392 . S
C2549 H2561 0.929 . S
C2550 C2546 1.531 . S
C2550 H2562 0.960 . S
C2550 H2563 0.962 . S
C2550 H2564 0.960 . S
C2551 C2548 1.511 . S
C2551 H2565 0.961 . S
C2551 H2566 0.961 . S
C2551 H2567 0.961 . S
C2552 C2553 1.370 . S
C2552 C2554 1.363 . S
C2552 H2568 0.931 . S
C2553 C2552 1.370 . S
C2553 C2557 1.408 . S
C2554 C2552 1.363 . S
C2554 C2555 1.370 . S
C2554 C2558 1.524 . S
C2555 C2547 1.503 . S
C2555 C2554 1.370 . S
C2555 C2556 1.403 . S
C2556 C2555 1.403 . S
C2556 C2557 1.404 . S
C2556 C2559 1.539 . S
C2557 C2553 1.408 . S
C2557 C2556 1.404 . S
C2557 H2569 0.930 . S
C2558 C2554 1.524 . S
C2558 H2570 0.956 . S
C2558 H2571 0.961 . S
C2558 H2572 0.961 . S
C2559 C2556 1.539 . S
C2559 H2573 0.958 . S
C2559 H2574 0.961 . S
C2559 H2575 0.960 . S
H2560 C2544 0.931 . S
H2561 C2549 0.929 . S
H2562 C2550 0.960 . S
H2563 C2550 0.962 . S
H2564 C2550 0.960 . S
H2565 C2551 0.961 . S
H2566 C2551 0.961 . S
H2567 C2551 0.961 . S
H2568 C2552 0.931 . S
H2569 C2557 0.930 . S
H2570 C2558 0.956 . S
H2571 C2558 0.961 . S
H2572 C2558 0.961 . S
H2573 C2559 0.958 . S
H2574 C2559 0.961 . S
H2575 C2559 0.960 . S
C2576 C2577 1.391 . S
C2576 C2578 1.394 . S
C2576 H2592 0.931 . S
C2577 C2576 1.391 . S
C2577 C2581 1.376 . S
C2578 C2576 1.394 . S
C2578 C2579 1.369 . S
C2578 C2582 1.531 . S
C2579 C2578 1.369 . S
C2579 C2580 1.410 . S
C2579 C2587 1.503 . S
C2580 C2579 1.410 . S
C2580 C2581 1.392 . S
C2580 C2583 1.511 . S
C2581 C2577 1.376 . S
C2581 C2580 1.392 . S
C2581 H2593 0.929 . S
C2582 C2578 1.531 . S
C2582 H2594 0.960 . S
C2582 H2595 0.962 . S
C2582 H2596 0.960 . S
C2583 C2580 1.511 . S
C2583 H2597 0.961 . S
C2583 H2598 0.961 . S
C2583 H2599 0.961 . S
C2584 C2585 1.370 . S
C2584 C2586 1.363 . S
C2584 H2600 0.931 . S
C2585 C2584 1.370 . S
C2585 C2589 1.408 . S
C2586 C2584 1.363 . S
C2586 C2587 1.370 . S
C2586 C2590 1.524 . S
C2587 C2579 1.503 . S
C2587 C2586 1.370 . S
C2587 C2588 1.403 . S
C2588 C2587 1.403 . S
C2588 C2589 1.404 . S
C2588 C2591 1.539 . S
C2589 C2585 1.408 . S
C2589 C2588 1.404 . S
C2589 H2601 0.930 . S
C2590 C2586 1.524 . S
C2590 H2602 0.956 . S
C2590 H2603 0.961 . S
C2590 H2604 0.961 . S
C2591 C2588 1.539 . S
C2591 H2605 0.958 . S
C2591 H2606 0.961 . S
C2591 H2607 0.960 . S
H2592 C2576 0.931 . S
H2593 C2581 0.929 . S
H2594 C2582 0.960 . S
H2595 C2582 0.962 . S
H2596 C2582 0.960 . S
H2597 C2583 0.961 . S
H2598 C2583 0.961 . S
H2599 C2583 0.961 . S
H2600 C2584 0.931 . S
H2601 C2589 0.930 . S
H2602 C2590 0.956 . S
H2603 C2590 0.961 . S
H2604 C2590 0.961 . S
H2605 C2591 0.958 . S
H2606 C2591 0.961 . S
H2607 C2591 0.960 . S
C2608 C2609 1.391 . S
C2608 C2610 1.394 . S
C2608 H2624 0.931 . S
C2609 C2608 1.391 . S
C2609 C2613 1.376 . S
C2610 C2608 1.394 . S
C2610 C2611 1.369 . S
C2610 C2614 1.531 . S
C2611 C2610 1.369 . S
C2611 C2612 1.410 . S
C2611 C2619 1.503 . S
C2612 C2611 1.410 . S
C2612 C2613 1.392 . S
C2612 C2615 1.511 . S
C2613 C2609 1.376 . S
C2613 C2612 1.392 . S
C2613 H2625 0.929 . S
C2614 C2610 1.531 . S
C2614 H2626 0.960 . S
C2614 H2627 0.962 . S
C2614 H2628 0.960 . S
C2615 C2612 1.511 . S
C2615 H2629 0.961 . S
C2615 H2630 0.961 . S
C2615 H2631 0.961 . S
C2616 C2617 1.370 . S
C2616 C2618 1.363 . S
C2616 H2632 0.931 . S
C2617 C2616 1.370 . S
C2617 C2621 1.408 . S
C2618 C2616 1.363 . S
C2618 C2619 1.370 . S
C2618 C2622 1.524 . S
C2619 C2611 1.503 . S
C2619 C2618 1.370 . S
C2619 C2620 1.403 . S
C2620 C2619 1.403 . S
C2620 C2621 1.404 . S
C2620 C2623 1.539 . S
C2621 C2617 1.408 . S
C2621 C2620 1.404 . S
C2621 H2633 0.877 1_565 S
C2622 C2618 1.524 . S
C2622 H2634 0.956 . S
C2622 H2635 0.961 . S
C2622 H2636 0.961 . S
C2623 C2620 1.539 . S
C2623 H2637 0.958 . S
C2623 H2638 0.961 1_565 S
C2623 H2639 0.960 . S
H2624 C2608 0.931 . S
H2625 C2613 0.929 . S
H2626 C2614 0.960 . S
H2627 C2614 0.962 . S
H2628 C2614 0.960 . S
H2629 C2615 0.961 . S
H2630 C2615 0.961 . S
H2631 C2615 0.961 . S
H2632 C2616 0.931 . S
H2633 C2621 0.877 1_545 S
H2634 C2622 0.956 . S
H2635 C2622 0.961 . S
H2636 C2622 0.961 . S
H2637 C2623 0.958 . S
H2638 C2623 0.961 1_545 S
H2639 C2623 0.960 . S
C2640 C2641 1.391 . S
C2640 C2642 1.394 . S
C2640 H2656 0.931 . S
C2641 C2640 1.391 . S
C2641 C2645 1.376 . S
C2642 C2640 1.394 . S
C2642 C2643 1.369 . S
C2642 C2646 1.531 . S
C2643 C2642 1.369 . S
C2643 C2644 1.410 . S
C2643 C2651 1.503 . S
C2644 C2643 1.410 . S
C2644 C2645 1.392 . S
C2644 C2647 1.511 . S
C2645 C2641 1.376 . S
C2645 C2644 1.392 . S
C2645 H2657 0.929 . S
C2646 C2642 1.531 . S
C2646 H2658 0.960 . S
C2646 H2659 0.962 . S
C2646 H2660 0.960 . S
C2647 C2644 1.511 . S
C2647 H2661 0.961 . S
C2647 H2662 0.961 . S
C2647 H2663 0.961 . S
C2648 C2649 1.370 . S
C2648 C2650 1.363 . S
C2648 H2664 0.931 . S
C2649 C2648 1.370 . S
C2649 C2653 1.408 . S
C2650 C2648 1.363 . S
C2650 C2651 1.370 . S
C2650 C2654 1.524 . S
C2651 C2643 1.503 . S
C2651 C2650 1.370 . S
C2651 C2652 1.403 . S
C2652 C2651 1.403 . S
C2652 C2653 1.404 . S
C2652 C2655 1.539 . S
C2653 C2649 1.408 . S
C2653 C2652 1.404 . S
C2653 H2665 0.930 . S
C2654 C2650 1.524 . S
C2654 H2666 0.956 . S
C2654 H2667 0.961 . S
C2654 H2668 0.961 . S
C2655 C2652 1.539 . S
C2655 H2669 0.958 . S
C2655 H2670 0.961 . S
C2655 H2671 0.960 . S
H2656 C2640 0.931 . S
H2657 C2645 0.929 . S
H2658 C2646 0.960 . S
H2659 C2646 0.962 . S
H2660 C2646 0.960 . S
H2661 C2647 0.961 . S
H2662 C2647 0.961 . S
H2663 C2647 0.961 . S
H2664 C2648 0.931 . S
H2665 C2653 0.930 . S
H2666 C2654 0.956 . S
H2667 C2654 0.961 . S
H2668 C2654 0.961 . S
H2669 C2655 0.958 . S
H2670 C2655 0.961 . S
H2671 C2655 0.960 . S
C2672 C2673 1.391 . S
C2672 C2674 1.394 . S
C2672 H2688 0.931 . S
C2673 C2672 1.391 . S
C2673 C2677 1.376 . S
C2674 C2672 1.394 . S
C2674 C2675 1.369 . S
C2674 C2678 1.531 . S
C2675 C2674 1.369 . S
C2675 C2676 1.410 . S
C2675 C2683 1.503 . S
C2676 C2675 1.410 . S
C2676 C2677 1.392 . S
C2676 C2679 1.511 . S
C2677 C2673 1.376 . S
C2677 C2676 1.392 . S
C2677 H2689 0.929 . S
C2678 C2674 1.531 . S
C2678 H2690 0.960 . S
C2678 H2691 0.962 . S
C2678 H2692 0.960 . S
C2679 C2676 1.511 . S
C2679 H2693 0.961 . S
C2679 H2694 0.961 . S
C2679 H2695 0.961 . S
C2680 C2681 1.370 . S
C2680 C2682 1.363 . S
C2680 H2696 0.931 . S
C2681 C2680 1.370 . S
C2681 C2685 1.408 . S
C2682 C2680 1.363 . S
C2682 C2683 1.370 . S
C2682 C2686 1.524 . S
C2683 C2675 1.503 . S
C2683 C2682 1.370 . S
C2683 C2684 1.403 . S
C2684 C2683 1.403 . S
C2684 C2685 1.404 . S
C2684 C2687 1.539 . S
C2685 C2681 1.408 . S
C2685 C2684 1.404 . S
C2685 H2697 0.930 . S
C2686 C2682 1.524 . S
C2686 H2698 0.956 . S
C2686 H2699 0.961 . S
C2686 H2700 0.961 . S
C2687 C2684 1.539 . S
C2687 H2701 0.958 . S
C2687 H2702 0.961 . S
C2687 H2703 0.960 . S
H2688 C2672 0.931 . S
H2689 C2677 0.929 . S
H2690 C2678 0.960 . S
H2691 C2678 0.962 . S
H2692 C2678 0.960 . S
H2693 C2679 0.961 . S
H2694 C2679 0.961 . S
H2695 C2679 0.961 . S
H2696 C2680 0.931 . S
H2697 C2685 0.930 . S
H2698 C2686 0.956 . S
H2699 C2686 0.961 . S
H2700 C2686 0.961 . S
H2701 C2687 0.958 . S
H2702 C2687 0.961 . S
H2703 C2687 0.960 . S
C2704 C2705 1.391 . S
C2704 C2706 1.394 . S
C2704 H2720 0.931 . S
C2705 C2704 1.391 . S
C2705 C2709 1.376 . S
C2706 C2704 1.394 . S
C2706 C2707 1.369 . S
C2706 C2710 1.531 . S
C2707 C2706 1.369 . S
C2707 C2708 1.410 . S
C2707 C2715 1.503 . S
C2708 C2707 1.410 . S
C2708 C2709 1.392 . S
C2708 C2711 1.511 . S
C2709 C2705 1.376 . S
C2709 C2708 1.392 . S
C2709 H2721 0.929 . S
C2710 C2706 1.531 . S
C2710 H2722 0.960 . S
C2710 H2723 0.962 . S
C2710 H2724 0.960 . S
C2711 C2708 1.511 . S
C2711 H2725 0.961 . S
C2711 H2726 0.961 . S
C2711 H2727 0.961 . S
C2712 C2713 1.370 . S
C2712 C2714 1.363 . S
C2712 H2728 0.931 . S
C2713 C2712 1.370 . S
C2713 C2717 1.408 . S
C2714 C2712 1.363 . S
C2714 C2715 1.370 . S
C2714 C2718 1.524 . S
C2715 C2707 1.503 . S
C2715 C2714 1.370 . S
C2715 C2716 1.403 . S
C2716 C2715 1.403 . S
C2716 C2717 1.404 . S
C2716 C2719 1.539 . S
C2717 C2713 1.408 . S
C2717 C2716 1.404 . S
C2717 H2729 0.930 . S
C2718 C2714 1.524 . S
C2718 H2730 0.956 . S
C2718 H2731 0.961 . S
C2718 H2732 0.961 . S
C2719 C2716 1.539 . S
C2719 H2733 0.958 . S
C2719 H2734 0.961 . S
C2719 H2735 0.960 . S
H2720 C2704 0.931 . S
H2721 C2709 0.929 . S
H2722 C2710 0.960 . S
H2723 C2710 0.962 . S
H2724 C2710 0.960 . S
H2725 C2711 0.961 . S
H2726 C2711 0.961 . S
H2727 C2711 0.961 . S
H2728 C2712 0.931 . S
H2729 C2717 0.930 . S
H2730 C2718 0.956 . S
H2731 C2718 0.961 . S
H2732 C2718 0.961 . S
H2733 C2719 0.958 . S
H2734 C2719 0.961 . S
H2735 C2719 0.960 . S
C2736 C2737 1.391 . S
C2736 C2738 1.394 . S
C2736 H2752 0.931 . S
C2737 C2736 1.391 . S
C2737 C2741 1.376 . S
C2738 C2736 1.394 . S
C2738 C2739 1.369 . S
C2738 C2742 1.531 . S
C2739 C2738 1.369 . S
C2739 C2740 1.410 . S
C2739 C2747 1.503 . S
C2740 C2739 1.410 . S
C2740 C2741 1.392 . S
C2740 C2743 1.511 . S
C2741 C2737 1.376 . S
C2741 C2740 1.392 . S
C2741 H2753 0.929 . S
C2742 C2738 1.531 . S
C2742 H2754 0.960 . S
C2742 H2755 0.962 . S
C2742 H2756 0.960 . S
C2743 C2740 1.511 . S
C2743 H2757 0.961 . S
C2743 H2758 0.961 . S
C2743 H2759 0.961 . S
C2744 C2745 1.370 . S
C2744 C2746 1.363 . S
C2744 H2760 0.931 . S
C2745 C2744 1.370 . S
C2745 C2749 1.408 . S
C2746 C2744 1.363 . S
C2746 C2747 1.370 . S
C2746 C2750 1.524 . S
C2747 C2739 1.503 . S
C2747 C2746 1.370 . S
C2747 C2748 1.403 . S
C2748 C2747 1.403 . S
C2748 C2749 1.404 . S
C2748 C2751 1.539 . S
C2749 C2745 1.408 . S
C2749 C2748 1.404 . S
C2749 H2761 0.930 . S
C2750 C2746 1.524 . S
C2750 H2762 0.956 . S
C2750 H2763 0.961 . S
C2750 H2764 0.961 . S
C2751 C2748 1.539 . S
C2751 H2765 0.958 . S
C2751 H2766 0.961 . S
C2751 H2767 0.960 . S
H2752 C2736 0.931 . S
H2753 C2741 0.929 . S
H2754 C2742 0.960 . S
H2755 C2742 0.962 . S
H2756 C2742 0.960 . S
H2757 C2743 0.961 . S
H2758 C2743 0.961 . S
H2759 C2743 0.961 . S
H2760 C2744 0.931 . S
H2761 C2749 0.930 . S
H2762 C2750 0.956 . S
H2763 C2750 0.961 . S
H2764 C2750 0.961 . S
H2765 C2751 0.958 . S
H2766 C2751 0.961 . S
H2767 C2751 0.960 . S
C2768 C2769 1.391 . S
C2768 C2770 1.394 . S
C2768 H2784 0.931 . S
C2769 C2768 1.391 . S
C2769 C2773 1.376 . S
C2770 C2768 1.394 . S
C2770 C2771 1.369 . S
C2770 C2774 1.531 . S
C2771 C2770 1.369 . S
C2771 C2772 1.410 . S
C2771 C2779 1.503 . S
C2772 C2771 1.410 . S
C2772 C2773 1.392 . S
C2772 C2775 1.511 . S
C2773 C2769 1.376 . S
C2773 C2772 1.392 . S
C2773 H2785 0.929 . S
C2774 C2770 1.531 . S
C2774 H2786 0.960 . S
C2774 H2787 0.962 . S
C2774 H2788 0.960 . S
C2775 C2772 1.511 . S
C2775 H2789 0.961 . S
C2775 H2790 0.961 . S
C2775 H2791 0.961 . S
C2776 C2777 1.370 . S
C2776 C2778 1.363 . S
C2776 H2792 0.931 . S
C2777 C2776 1.370 . S
C2777 C2781 1.408 . S
C2778 C2776 1.363 . S
C2778 C2779 1.370 . S
C2778 C2782 1.524 . S
C2779 C2771 1.503 . S
C2779 C2778 1.370 . S
C2779 C2780 1.403 . S
C2780 C2779 1.403 . S
C2780 C2781 1.404 . S
C2780 C2783 1.539 . S
C2781 C2777 1.408 . S
C2781 C2780 1.404 . S
C2781 H2793 0.930 . S
C2782 C2778 1.524 . S
C2782 H2794 0.956 . S
C2782 H2795 0.961 . S
C2782 H2796 0.961 . S
C2783 C2780 1.539 . S
C2783 H2797 0.958 . S
C2783 H2798 0.961 . S
C2783 H2799 0.960 . S
H2784 C2768 0.931 . S
H2785 C2773 0.929 . S
H2786 C2774 0.960 . S
H2787 C2774 0.962 . S
H2788 C2774 0.960 . S
H2789 C2775 0.961 . S
H2790 C2775 0.961 . S
H2791 C2775 0.961 . S
H2792 C2776 0.931 . S
H2793 C2781 0.930 . S
H2794 C2782 0.956 . S
H2795 C2782 0.961 . S
H2796 C2782 0.961 . S
H2797 C2783 0.958 . S
H2798 C2783 0.961 . S
H2799 C2783 0.960 . S
C2800 C2801 1.391 . S
C2800 C2802 1.394 . S
C2800 H2816 0.931 . S
C2801 C2800 1.391 . S
C2801 C2805 1.376 . S
C2802 C2800 1.394 . S
C2802 C2803 1.369 . S
C2802 C2806 1.531 . S
C2803 C2802 1.369 . S
C2803 C2804 1.410 . S
C2803 C2811 1.503 . S
C2804 C2803 1.410 . S
C2804 C2805 1.392 . S
C2804 C2807 1.511 . S
C2805 C2801 1.376 . S
C2805 C2804 1.392 . S
C2805 H2817 0.929 . S
C2806 C2802 1.531 . S
C2806 H2818 0.960 . S
C2806 H2819 0.962 . S
C2806 H2820 0.960 . S
C2807 C2804 1.511 . S
C2807 H2821 0.961 . S
C2807 H2822 0.961 . S
C2807 H2823 0.961 . S
C2808 C2809 1.370 . S
C2808 C2810 1.363 . S
C2808 H2824 0.931 . S
C2809 C2808 1.370 . S
C2809 C2813 1.408 . S
C2810 C2808 1.363 . S
C2810 C2811 1.370 . S
C2810 C2814 1.524 . S
C2811 C2803 1.503 . S
C2811 C2810 1.370 . S
C2811 C2812 1.403 . S
C2812 C2811 1.403 . S
C2812 C2813 1.404 . S
C2812 C2815 1.539 . S
C2813 C2809 1.408 . S
C2813 C2812 1.404 . S
C2813 H2825 0.930 . S
C2814 C2810 1.524 . S
C2814 H2826 0.956 . S
C2814 H2827 0.961 . S
C2814 H2828 0.961 . S
C2815 C2812 1.539 . S
C2815 H2829 0.958 . S
C2815 H2830 0.961 . S
C2815 H2831 0.960 . S
H2816 C2800 0.931 . S
H2817 C2805 0.929 . S
H2818 C2806 0.960 . S
H2819 C2806 0.962 . S
H2820 C2806 0.960 . S
H2821 C2807 0.961 . S
H2822 C2807 0.961 . S
H2823 C2807 0.961 . S
H2824 C2808 0.931 . S
H2825 C2813 0.930 . S
H2826 C2814 0.956 . S
H2827 C2814 0.961 . S
H2828 C2814 0.961 . S
H2829 C2815 0.958 . S
H2830 C2815 0.961 . S
H2831 C2815 0.960 . S
C2832 C2833 1.391 . S
C2832 C2834 1.394 . S
C2832 H2848 0.931 . S
C2833 C2832 1.391 . S
C2833 C2837 1.376 . S
C2834 C2832 1.394 . S
C2834 C2835 1.369 . S
C2834 C2838 1.531 . S
C2835 C2834 1.369 . S
C2835 C2836 1.410 . S
C2835 C2843 1.503 . S
C2836 C2835 1.410 . S
C2836 C2837 1.392 . S
C2836 C2839 1.511 . S
C2837 C2833 1.376 . S
C2837 C2836 1.392 . S
C2837 H2849 0.929 . S
C2838 C2834 1.531 . S
C2838 H2850 0.960 . S
C2838 H2851 0.962 . S
C2838 H2852 0.960 . S
C2839 C2836 1.511 . S
C2839 H2853 0.961 . S
C2839 H2854 0.961 . S
C2839 H2855 0.961 . S
C2840 C2841 1.370 . S
C2840 C2842 1.363 . S
C2840 H2856 0.931 . S
C2841 C2840 1.370 . S
C2841 C2845 1.408 . S
C2842 C2840 1.363 . S
C2842 C2843 1.370 . S
C2842 C2846 1.524 . S
C2843 C2835 1.503 . S
C2843 C2842 1.370 . S
C2843 C2844 1.403 . S
C2844 C2843 1.403 . S
C2844 C2845 1.404 . S
C2844 C2847 1.539 . S
C2845 C2841 1.408 . S
C2845 C2844 1.404 . S
C2845 H2857 0.930 . S
C2846 C2842 1.524 . S
C2846 H2858 0.956 . S
C2846 H2859 0.961 . S
C2846 H2860 0.961 . S
C2847 C2844 1.539 . S
C2847 H2861 0.958 . S
C2847 H2862 0.961 . S
C2847 H2863 0.960 . S
H2848 C2832 0.931 . S
H2849 C2837 0.929 . S
H2850 C2838 0.960 . S
H2851 C2838 0.962 . S
H2852 C2838 0.960 . S
H2853 C2839 0.961 . S
H2854 C2839 0.961 . S
H2855 C2839 0.961 . S
H2856 C2840 0.931 . S
H2857 C2845 0.930 . S
H2858 C2846 0.956 . S
H2859 C2846 0.961 . S
H2860 C2846 0.961 . S
H2861 C2847 0.958 . S
H2862 C2847 0.961 . S
H2863 C2847 0.960 . S
C2864 C2865 1.391 . S
C2864 C2866 1.394 . S
C2864 H2880 0.931 . S
C2865 C2864 1.391 . S
C2865 C2869 1.376 . S
C2866 C2864 1.394 . S
C2866 C2867 1.369 . S
C2866 C2870 1.531 . S
C2867 C2866 1.369 . S
C2867 C2868 1.410 . S
C2867 C2875 1.503 . S
C2868 C2867 1.410 . S
C2868 C2869 1.392 . S
C2868 C2871 1.511 . S
C2869 C2865 1.376 . S
C2869 C2868 1.392 . S
C2869 H2881 0.929 . S
C2870 C2866 1.531 . S
C2870 H2882 0.960 . S
C2870 H2883 0.962 . S
C2870 H2884 0.960 . S
C2871 C2868 1.511 . S
C2871 H2885 0.961 . S
C2871 H2886 0.961 . S
C2871 H2887 0.961 . S
C2872 C2873 1.370 . S
C2872 C2874 1.363 . S
C2872 H2888 0.931 . S
C2873 C2872 1.370 . S
C2873 C2877 1.408 . S
C2874 C2872 1.363 . S
C2874 C2875 1.370 . S
C2874 C2878 1.524 . S
C2875 C2867 1.503 . S
C2875 C2874 1.370 . S
C2875 C2876 1.403 . S
C2876 C2875 1.403 . S
C2876 C2877 1.404 . S
C2876 C2879 1.539 . S
C2877 C2873 1.408 . S
C2877 C2876 1.404 . S
C2877 H2889 0.930 . S
C2878 C2874 1.524 . S
C2878 H2890 0.956 . S
C2878 H2891 0.961 . S
C2878 H2892 0.961 . S
C2879 C2876 1.539 . S
C2879 H2893 0.958 . S
C2879 H2894 0.961 . S
C2879 H2895 0.960 . S
H2880 C2864 0.931 . S
H2881 C2869 0.929 . S
H2882 C2870 0.960 . S
H2883 C2870 0.962 . S
H2884 C2870 0.960 . S
H2885 C2871 0.961 . S
H2886 C2871 0.961 . S
H2887 C2871 0.961 . S
H2888 C2872 0.931 . S
H2889 C2877 0.930 . S
H2890 C2878 0.956 . S
H2891 C2878 0.961 . S
H2892 C2878 0.961 . S
H2893 C2879 0.958 . S
H2894 C2879 0.961 . S
H2895 C2879 0.960 . S
C2896 C2897 1.391 . S
C2896 C2898 1.394 . S
C2896 H2912 0.931 . S
C2897 C2896 1.391 . S
C2897 C2901 1.376 . S
C2898 C2896 1.394 . S
C2898 C2899 1.369 . S
C2898 C2902 1.531 . S
C2899 C2898 1.369 . S
C2899 C2900 1.410 . S
C2899 C2907 1.503 . S
C2900 C2899 1.410 . S
C2900 C2901 1.392 . S
C2900 C2903 1.511 . S
C2901 C2897 1.376 . S
C2901 C2900 1.392 . S
C2901 H2913 0.929 . S
C2902 C2898 1.531 . S
C2902 H2914 0.960 . S
C2902 H2915 0.962 . S
C2902 H2916 0.960 . S
C2903 C2900 1.511 . S
C2903 H2917 0.961 . S
C2903 H2918 0.961 . S
C2903 H2919 0.961 . S
C2904 C2905 1.370 . S
C2904 C2906 1.363 . S
C2904 H2920 0.931 . S
C2905 C2904 1.370 . S
C2905 C2909 1.408 . S
C2906 C2904 1.363 . S
C2906 C2907 1.370 . S
C2906 C2910 1.524 . S
C2907 C2899 1.503 . S
C2907 C2906 1.370 . S
C2907 C2908 1.403 . S
C2908 C2907 1.403 . S
C2908 C2909 1.404 . S
C2908 C2911 1.539 . S
C2909 C2905 1.408 . S
C2909 C2908 1.404 . S
C2909 H2921 0.930 . S
C2910 C2906 1.524 . S
C2910 H2922 0.956 . S
C2910 H2923 0.961 . S
C2910 H2924 0.961 . S
C2911 C2908 1.539 . S
C2911 H2925 0.958 . S
C2911 H2926 0.961 . S
C2911 H2927 0.960 . S
H2912 C2896 0.931 . S
H2913 C2901 0.929 . S
H2914 C2902 0.960 . S
H2915 C2902 0.962 . S
H2916 C2902 0.960 . S
H2917 C2903 0.961 . S
H2918 C2903 0.961 . S
H2919 C2903 0.961 . S
H2920 C2904 0.931 . S
H2921 C2909 0.930 . S
H2922 C2910 0.956 . S
H2923 C2910 0.961 . S
H2924 C2910 0.961 . S
H2925 C2911 0.958 . S
H2926 C2911 0.961 . S
H2927 C2911 0.960 . S
C2928 C2929 1.391 . S
C2928 C2930 1.394 . S
C2928 H2944 0.931 . S
C2929 C2928 1.391 . S
C2929 C2933 1.376 . S
C2930 C2928 1.394 . S
C2930 C2931 1.369 . S
C2930 C2934 1.531 . S
C2931 C2930 1.369 . S
C2931 C2932 1.410 . S
C2931 C2939 1.503 . S
C2932 C2931 1.410 . S
C2932 C2933 1.392 . S
C2932 C2935 1.511 . S
C2933 C2929 1.376 . S
C2933 C2932 1.392 . S
C2933 H2945 0.929 . S
C2934 C2930 1.531 . S
C2934 H2946 0.960 . S
C2934 H2947 0.962 . S
C2934 H2948 0.960 . S
C2935 C2932 1.511 . S
C2935 H2949 0.961 . S
C2935 H2950 0.961 . S
C2935 H2951 0.961 . S
C2936 C2937 1.370 . S
C2936 C2938 1.363 . S
C2936 H2952 0.931 . S
C2937 C2936 1.370 . S
C2937 C2941 1.408 . S
C2938 C2936 1.363 . S
C2938 C2939 1.370 . S
C2938 C2942 1.524 . S
C2939 C2931 1.503 . S
C2939 C2938 1.370 . S
C2939 C2940 1.403 . S
C2940 C2939 1.403 . S
C2940 C2941 1.404 . S
C2940 C2943 1.539 . S
C2941 C2937 1.408 . S
C2941 C2940 1.404 . S
C2941 H2953 0.930 . S
C2942 C2938 1.524 . S
C2942 H2954 0.956 . S
C2942 H2955 0.961 . S
C2942 H2956 0.961 . S
C2943 C2940 1.539 . S
C2943 H2957 0.958 . S
C2943 H2958 0.961 . S
C2943 H2959 0.960 . S
H2944 C2928 0.931 . S
H2945 C2933 0.929 . S
H2946 C2934 0.960 . S
H2947 C2934 0.962 . S
H2948 C2934 0.960 . S
H2949 C2935 0.961 . S
H2950 C2935 0.961 . S
H2951 C2935 0.961 . S
H2952 C2936 0.931 . S
H2953 C2941 0.930 . S
H2954 C2942 0.956 . S
H2955 C2942 0.961 . S
H2956 C2942 0.961 . S
H2957 C2943 0.958 . S
H2958 C2943 0.961 . S
H2959 C2943 0.960 . S
C2960 C2961 1.391 . S
C2960 C2962 1.394 . S
C2960 H2976 0.931 . S
C2961 C2960 1.391 . S
C2961 C2965 1.376 . S
C2962 C2960 1.394 . S
C2962 C2963 1.369 . S
C2962 C2966 1.531 . S
C2963 C2962 1.369 . S
C2963 C2964 1.410 . S
C2963 C2971 1.503 . S
C2964 C2963 1.410 . S
C2964 C2965 1.392 . S
C2964 C2967 1.511 . S
C2965 C2961 1.376 . S
C2965 C2964 1.392 . S
C2965 H2977 0.929 . S
C2966 C2962 1.531 . S
C2966 H2978 0.960 . S
C2966 H2979 0.962 . S
C2966 H2980 0.960 . S
C2967 C2964 1.511 . S
C2967 H2981 0.961 . S
C2967 H2982 0.961 . S
C2967 H2983 0.961 . S
C2968 C2969 1.370 . S
C2968 C2970 1.363 . S
C2968 H2984 0.931 . S
C2969 C2968 1.370 . S
C2969 C2973 1.408 . S
C2970 C2968 1.363 . S
C2970 C2971 1.370 . S
C2970 C2974 1.524 . S
C2971 C2963 1.503 . S
C2971 C2970 1.370 . S
C2971 C2972 1.403 . S
C2972 C2971 1.403 . S
C2972 C2973 1.404 . S
C2972 C2975 1.539 . S
C2973 C2969 1.408 . S
C2973 C2972 1.404 . S
C2973 H2985 0.930 . S
C2974 C2970 1.524 . S
C2974 H2986 0.956 . S
C2974 H2987 0.961 . S
C2974 H2988 0.961 . S
C2975 C2972 1.539 . S
C2975 H2989 0.958 . S
C2975 H2990 0.961 . S
C2975 H2991 0.960 . S
H2976 C2960 0.931 . S
H2977 C2965 0.929 . S
H2978 C2966 0.960 . S
H2979 C2966 0.962 . S
H2980 C2966 0.960 . S
H2981 C2967 0.961 . S
H2982 C2967 0.961 . S
H2983 C2967 0.961 . S
H2984 C2968 0.931 . S
H2985 C2973 0.930 . S
H2986 C2974 0.956 . S
H2987 C2974 0.961 . S
H2988 C2974 0.961 . S
H2989 C2975 0.958 . S
H2990 C2975 0.961 . S
H2991 C2975 0.960 . S
C2992 C2993 1.391 . S
C2992 C2994 1.394 . S
C2992 H3008 0.931 . S
C2993 C2992 1.391 . S
C2993 C2997 1.376 . S
C2994 C2992 1.394 . S
C2994 C2995 1.369 . S
C2994 C2998 1.531 . S
C2995 C2994 1.369 . S
C2995 C2996 1.410 . S
C2995 C3003 1.503 . S
C2996 C2995 1.410 . S
C2996 C2997 1.392 . S
C2996 C2999 1.511 . S
C2997 C2993 1.376 . S
C2997 C2996 1.392 . S
C2997 H3009 0.929 . S
C2998 C2994 1.531 . S
C2998 H3010 0.960 . S
C2998 H3011 0.962 . S
C2998 H3012 0.960 . S
C2999 C2996 1.511 . S
C2999 H3013 0.961 . S
C2999 H3014 0.961 . S
C2999 H3015 0.961 . S
C3000 C3001 1.370 . S
C3000 C3002 1.363 . S
C3000 H3016 0.931 . S
C3001 C3000 1.370 . S
C3001 C3005 1.408 . S
C3002 C3000 1.363 . S
C3002 C3003 1.370 . S
C3002 C3006 1.524 . S
C3003 C2995 1.503 . S
C3003 C3002 1.370 . S
C3003 C3004 1.403 . S
C3004 C3003 1.403 . S
C3004 C3005 1.404 . S
C3004 C3007 1.539 . S
C3005 C3001 1.408 . S
C3005 C3004 1.404 . S
C3005 H3017 0.930 . S
C3006 C3002 1.524 . S
C3006 H3018 0.956 . S
C3006 H3019 0.961 . S
C3006 H3020 0.961 . S
C3007 C3004 1.539 . S
C3007 H3021 0.958 . S
C3007 H3022 0.961 . S
C3007 H3023 0.960 . S
H3008 C2992 0.931 . S
H3009 C2997 0.929 . S
H3010 C2998 0.960 . S
H3011 C2998 0.962 . S
H3012 C2998 0.960 . S
H3013 C2999 0.961 . S
H3014 C2999 0.961 . S
H3015 C2999 0.961 . S
H3016 C3000 0.931 . S
H3017 C3005 0.930 . S
H3018 C3006 0.956 . S
H3019 C3006 0.961 . S
H3020 C3006 0.961 . S
H3021 C3007 0.958 . S
H3022 C3007 0.961 . S
H3023 C3007 0.960 . S
C3024 C3025 1.391 . S
C3024 C3026 1.394 . S
C3024 H3040 0.931 . S
C3025 C3024 1.391 . S
C3025 C3029 1.376 . S
C3026 C3024 1.394 . S
C3026 C3027 1.369 . S
C3026 C3030 1.531 . S
C3027 C3026 1.369 . S
C3027 C3028 1.410 . S
C3027 C3035 1.503 . S
C3028 C3027 1.410 . S
C3028 C3029 1.392 . S
C3028 C3031 1.511 . S
C3029 C3025 1.376 . S
C3029 C3028 1.392 . S
C3029 H3041 0.929 . S
C3030 C3026 1.531 . S
C3030 H3042 0.960 . S
C3030 H3043 0.962 . S
C3030 H3044 0.960 . S
C3031 C3028 1.511 . S
C3031 H3045 0.961 . S
C3031 H3046 0.961 . S
C3031 H3047 0.961 . S
C3032 C3033 1.370 . S
C3032 C3034 1.363 . S
C3032 H3048 0.931 . S
C3033 C3032 1.370 . S
C3033 C3037 1.408 . S
C3034 C3032 1.363 . S
C3034 C3035 1.370 . S
C3034 C3038 1.524 . S
C3035 C3027 1.503 . S
C3035 C3034 1.370 . S
C3035 C3036 1.403 . S
C3036 C3035 1.403 . S
C3036 C3037 1.404 . S
C3036 C3039 1.539 . S
C3037 C3033 1.408 . S
C3037 C3036 1.404 . S
C3037 H3049 0.930 . S
C3038 C3034 1.524 . S
C3038 H3050 0.956 . S
C3038 H3051 0.961 . S
C3038 H3052 0.961 . S
C3039 C3036 1.539 . S
C3039 H3053 0.958 . S
C3039 H3054 0.961 . S
C3039 H3055 0.960 . S
H3040 C3024 0.931 . S
H3041 C3029 0.929 . S
H3042 C3030 0.960 . S
H3043 C3030 0.962 . S
H3044 C3030 0.960 . S
H3045 C3031 0.961 . S
H3046 C3031 0.961 . S
H3047 C3031 0.961 . S
H3048 C3032 0.931 . S
H3049 C3037 0.930 . S
H3050 C3038 0.956 . S
H3051 C3038 0.961 . S
H3052 C3038 0.961 . S
H3053 C3039 0.958 . S
H3054 C3039 0.961 . S
H3055 C3039 0.960 . S
C3056 C3057 1.391 . S
C3056 C3058 1.394 . S
C3056 H3072 0.931 . S
C3057 C3056 1.391 . S
C3057 C3061 1.376 . S
C3058 C3056 1.394 . S
C3058 C3059 1.369 . S
C3058 C3062 1.531 . S
C3059 C3058 1.369 . S
C3059 C3060 1.410 . S
C3059 C3067 1.503 . S
C3060 C3059 1.410 . S
C3060 C3061 1.392 . S
C3060 C3063 1.511 . S
C3061 C3057 1.376 . S
C3061 C3060 1.392 . S
C3061 H3073 0.929 . S
C3062 C3058 1.531 . S
C3062 H3074 0.960 . S
C3062 H3075 0.962 . S
C3062 H3076 0.960 . S
C3063 C3060 1.511 . S
C3063 H3077 0.961 . S
C3063 H3078 0.961 . S
C3063 H3079 0.961 . S
C3064 C3065 1.370 . S
C3064 C3066 1.363 . S
C3064 H3080 0.931 . S
C3065 C3064 1.370 . S
C3065 C3069 1.408 . S
C3066 C3064 1.363 . S
C3066 C3067 1.370 . S
C3066 C3070 1.524 . S
C3067 C3059 1.503 . S
C3067 C3066 1.370 . S
C3067 C3068 1.403 . S
C3068 C3067 1.403 . S
C3068 C3069 1.404 . S
C3068 C3071 1.539 . S
C3069 C3065 1.408 . S
C3069 C3068 1.404 . S
C3069 H3081 0.930 . S
C3070 C3066 1.524 . S
C3070 H3082 0.956 . S
C3070 H3083 0.961 . S
C3070 H3084 0.961 . S
C3071 C3068 1.539 . S
C3071 H3085 0.958 . S
C3071 H3086 0.961 . S
C3071 H3087 0.960 . S
H3072 C3056 0.931 . S
H3073 C3061 0.929 . S
H3074 C3062 0.960 . S
H3075 C3062 0.962 . S
H3076 C3062 0.960 . S
H3077 C3063 0.961 . S
H3078 C3063 0.961 . S
H3079 C3063 0.961 . S
H3080 C3064 0.931 . S
H3081 C3069 0.930 . S
H3082 C3070 0.956 . S
H3083 C3070 0.961 . S
H3084 C3070 0.961 . S
H3085 C3071 0.958 . S
H3086 C3071 0.961 . S
H3087 C3071 0.960 . S
C3088 C3089 1.391 . S
C3088 C3090 1.394 . S
C3088 H3104 0.931 . S
C3089 C3088 1.391 . S
C3089 C3093 1.376 . S
C3090 C3088 1.394 . S
C3090 C3091 1.369 . S
C3090 C3094 1.531 . S
C3091 C3090 1.369 . S
C3091 C3092 1.410 . S
C3091 C3099 1.503 . S
C3092 C3091 1.410 . S
C3092 C3093 1.392 . S
C3092 C3095 1.511 . S
C3093 C3089 1.376 . S
C3093 C3092 1.392 . S
C3093 H3105 0.929 . S
C3094 C3090 1.531 . S
C3094 H3106 0.960 . S
C3094 H3107 0.962 . S
C3094 H3108 0.960 . S
C3095 C3092 1.511 . S
C3095 H3109 0.961 . S
C3095 H3110 0.961 . S
C3095 H3111 0.961 . S
C3096 C3097 1.370 . S
C3096 C3098 1.363 . S
C3096 H3112 0.931 . S
C3097 C3096 1.370 . S
C3097 C3101 1.408 . S
C3098 C3096 1.363 . S
C3098 C3099 1.370 . S
C3098 C3102 1.524 . S
C3099 C3091 1.503 . S
C3099 C3098 1.370 . S
C3099 C3100 1.403 . S
C3100 C3099 1.403 . S
C3100 C3101 1.404 . S
C3100 C3103 1.539 . S
C3101 C3097 1.408 . S
C3101 C3100 1.404 . S
C3101 H3113 0.930 . S
C3102 C3098 1.524 . S
C3102 H3114 0.956 . S
C3102 H3115 0.961 . S
C3102 H3116 0.961 . S
C3103 C3100 1.539 . S
C3103 H3117 0.958 . S
C3103 H3118 0.961 . S
C3103 H3119 0.960 . S
H3104 C3088 0.931 . S
H3105 C3093 0.929 . S
H3106 C3094 0.960 . S
H3107 C3094 0.962 . S
H3108 C3094 0.960 . S
H3109 C3095 0.961 . S
H3110 C3095 0.961 . S
H3111 C3095 0.961 . S
H3112 C3096 0.931 . S
H3113 C3101 0.930 . S
H3114 C3102 0.956 . S
H3115 C3102 0.961 . S
H3116 C3102 0.961 . S
H3117 C3103 0.958 . S
H3118 C3103 0.961 . S
H3119 C3103 0.960 . S
C3120 C3121 1.391 . S
C3120 C3122 1.394 . S
C3120 H3136 0.931 . S
C3121 C3120 1.391 . S
C3121 C3125 1.376 . S
C3122 C3120 1.394 . S
C3122 C3123 1.369 . S
C3122 C3126 1.531 . S
C3123 C3122 1.369 . S
C3123 C3124 1.410 . S
C3123 C3131 1.503 . S
C3124 C3123 1.410 . S
C3124 C3125 1.392 . S
C3124 C3127 1.511 . S
C3125 C3121 1.376 . S
C3125 C3124 1.392 . S
C3125 H3137 0.929 . S
C3126 C3122 1.531 . S
C3126 H3138 0.960 . S
C3126 H3139 0.962 . S
C3126 H3140 0.960 . S
C3127 C3124 1.511 . S
C3127 H3141 0.961 . S
C3127 H3142 0.961 . S
C3127 H3143 0.961 . S
C3128 C3129 1.370 . S
C3128 C3130 1.363 . S
C3128 H3144 0.931 . S
C3129 C3128 1.370 . S
C3129 C3133 1.408 . S
C3130 C3128 1.363 . S
C3130 C3131 1.370 . S
C3130 C3134 1.524 . S
C3131 C3123 1.503 . S
C3131 C3130 1.370 . S
C3131 C3132 1.403 . S
C3132 C3131 1.403 . S
C3132 C3133 1.404 . S
C3132 C3135 1.539 . S
C3133 C3129 1.408 . S
C3133 C3132 1.404 . S
C3133 H3145 0.930 . S
C3134 C3130 1.524 . S
C3134 H3146 0.956 . S
C3134 H3147 0.961 . S
C3134 H3148 0.961 . S
C3135 C3132 1.539 . S
C3135 H3149 0.958 . S
C3135 H3150 0.961 . S
C3135 H3151 0.960 . S
H3136 C3120 0.931 . S
H3137 C3125 0.929 . S
H3138 C3126 0.960 . S
H3139 C3126 0.962 . S
H3140 C3126 0.960 . S
H3141 C3127 0.961 . S
H3142 C3127 0.961 . S
H3143 C3127 0.961 . S
H3144 C3128 0.931 . S
H3145 C3133 0.930 . S
H3146 C3134 0.956 . S
H3147 C3134 0.961 . S
H3148 C3134 0.961 . S
H3149 C3135 0.958 . S
H3150 C3135 0.961 . S
H3151 C3135 0.960 . S
C3152 C3153 1.391 . S
C3152 C3154 1.394 . S
C3152 H3168 0.931 . S
C3153 C3152 1.391 . S
C3153 C3157 1.376 . S
C3154 C3152 1.394 . S
C3154 C3155 1.369 . S
C3154 C3158 1.531 . S
C3155 C3154 1.369 . S
C3155 C3156 1.410 . S
C3155 C3163 1.503 . S
C3156 C3155 1.410 . S
C3156 C3157 1.392 . S
C3156 C3159 1.511 . S
C3157 C3153 1.376 . S
C3157 C3156 1.392 . S
C3157 H3169 0.929 . S
C3158 C3154 1.531 . S
C3158 H3170 0.960 . S
C3158 H3171 0.962 . S
C3158 H3172 0.960 . S
C3159 C3156 1.511 . S
C3159 H3173 0.961 . S
C3159 H3174 0.961 . S
C3159 H3175 0.961 . S
C3160 C3161 1.370 . S
C3160 C3162 1.363 . S
C3160 H3176 0.931 . S
C3161 C3160 1.370 . S
C3161 C3165 1.408 . S
C3162 C3160 1.363 . S
C3162 C3163 1.370 . S
C3162 C3166 1.524 . S
C3163 C3155 1.503 . S
C3163 C3162 1.370 . S
C3163 C3164 1.403 . S
C3164 C3163 1.403 . S
C3164 C3165 1.404 . S
C3164 C3167 1.539 . S
C3165 C3161 1.408 . S
C3165 C3164 1.404 . S
C3165 H3177 0.930 . S
C3166 C3162 1.524 . S
C3166 H3178 0.956 . S
C3166 H3179 0.961 . S
C3166 H3180 0.961 . S
C3167 C3164 1.539 . S
C3167 H3181 0.958 . S
C3167 H3182 0.961 . S
C3167 H3183 0.960 . S
H3168 C3152 0.931 . S
H3169 C3157 0.929 . S
H3170 C3158 0.960 . S
H3171 C3158 0.962 . S
H3172 C3158 0.960 . S
H3173 C3159 0.961 . S
H3174 C3159 0.961 . S
H3175 C3159 0.961 . S
H3176 C3160 0.931 . S
H3177 C3165 0.930 . S
H3178 C3166 0.956 . S
H3179 C3166 0.961 . S
H3180 C3166 0.961 . S
H3181 C3167 0.958 . S
H3182 C3167 0.961 . S
H3183 C3167 0.960 . S
C3184 C3185 1.391 . S
C3184 C3186 1.394 . S
C3184 H3200 0.931 . S
C3185 C3184 1.391 . S
C3185 C3189 1.376 . S
C3186 C3184 1.394 . S
C3186 C3187 1.369 . S
C3186 C3190 1.531 . S
C3187 C3186 1.369 . S
C3187 C3188 1.410 . S
C3187 C3195 1.503 . S
C3188 C3187 1.410 . S
C3188 C3189 1.392 . S
C3188 C3191 1.511 . S
C3189 C3185 1.376 . S
C3189 C3188 1.392 . S
C3189 H3201 0.929 . S
C3190 C3186 1.531 . S
C3190 H3202 0.960 . S
C3190 H3203 0.962 . S
C3190 H3204 0.960 . S
C3191 C3188 1.511 . S
C3191 H3205 0.961 . S
C3191 H3206 0.961 . S
C3191 H3207 0.961 . S
C3192 C3193 1.370 . S
C3192 C3194 1.363 . S
C3192 H3208 0.931 . S
C3193 C3192 1.370 . S
C3193 C3197 1.408 . S
C3194 C3192 1.363 . S
C3194 C3195 1.370 . S
C3194 C3198 1.524 . S
C3195 C3187 1.503 . S
C3195 C3194 1.370 . S
C3195 C3196 1.403 . S
C3196 C3195 1.403 . S
C3196 C3197 1.404 . S
C3196 C3199 1.539 . S
C3197 C3193 1.408 . S
C3197 C3196 1.404 . S
C3197 H3209 0.930 . S
C3198 C3194 1.524 . S
C3198 H3210 0.956 . S
C3198 H3211 0.961 . S
C3198 H3212 0.961 . S
C3199 C3196 1.539 . S
C3199 H3213 0.958 . S
C3199 H3214 0.961 . S
C3199 H3215 0.960 . S
H3200 C3184 0.931 . S
H3201 C3189 0.929 . S
H3202 C3190 0.960 . S
H3203 C3190 0.962 . S
H3204 C3190 0.960 . S
H3205 C3191 0.961 . S
H3206 C3191 0.961 . S
H3207 C3191 0.961 . S
H3208 C3192 0.931 . S
H3209 C3197 0.930 . S
H3210 C3198 0.956 . S
H3211 C3198 0.961 . S
H3212 C3198 0.961 . S
H3213 C3199 0.958 . S
H3214 C3199 0.961 . S
H3215 C3199 0.960 . S
C3216 C3217 1.391 . S
C3216 C3218 1.394 . S
C3216 H3232 0.931 . S
C3217 C3216 1.391 . S
C3217 C3221 1.376 . S
C3218 C3216 1.394 . S
C3218 C3219 1.369 . S
C3218 C3222 1.531 . S
C3219 C3218 1.369 . S
C3219 C3220 1.410 . S
C3219 C3227 1.503 . S
C3220 C3219 1.410 . S
C3220 C3221 1.392 . S
C3220 C3223 1.511 . S
C3221 C3217 1.376 . S
C3221 C3220 1.392 . S
C3221 H3233 0.929 . S
C3222 C3218 1.531 . S
C3222 H3234 0.960 . S
C3222 H3235 0.962 . S
C3222 H3236 0.960 . S
C3223 C3220 1.511 . S
C3223 H3237 0.961 . S
C3223 H3238 0.961 . S
C3223 H3239 0.961 . S
C3224 C3225 1.370 . S
C3224 C3226 1.363 . S
C3224 H3240 0.931 . S
C3225 C3224 1.370 . S
C3225 C3229 1.408 . S
C3226 C3224 1.363 . S
C3226 C3227 1.370 . S
C3226 C3230 1.524 . S
C3227 C3219 1.503 . S
C3227 C3226 1.370 . S
C3227 C3228 1.403 . S
C3228 C3227 1.403 . S
C3228 C3229 1.404 . S
C3228 C3231 1.539 . S
C3229 C3225 1.408 . S
C3229 C3228 1.404 . S
C3229 H3241 0.930 . S
C3230 C3226 1.524 . S
C3230 H3242 0.956 . S
C3230 H3243 0.961 . S
C3230 H3244 0.961 . S
C3231 C3228 1.539 . S
C3231 H3245 0.958 . S
C3231 H3246 0.961 . S
C3231 H3247 0.960 . S
H3232 C3216 0.931 . S
H3233 C3221 0.929 . S
H3234 C3222 0.960 . S
H3235 C3222 0.962 . S
H3236 C3222 0.960 . S
H3237 C3223 0.961 . S
H3238 C3223 0.961 . S
H3239 C3223 0.961 . S
H3240 C3224 0.931 . S
H3241 C3229 0.930 . S
H3242 C3230 0.956 . S
H3243 C3230 0.961 . S
H3244 C3230 0.961 . S
H3245 C3231 0.958 . S
H3246 C3231 0.961 . S
H3247 C3231 0.960 . S
C3248 C3249 1.391 . S
C3248 C3250 1.394 . S
C3248 H3264 0.931 . S
C3249 C3248 1.391 . S
C3249 C3253 1.376 . S
C3250 C3248 1.394 . S
C3250 C3251 1.369 . S
C3250 C3254 1.531 . S
C3251 C3250 1.369 . S
C3251 C3252 1.410 . S
C3251 C3259 1.503 . S
C3252 C3251 1.410 . S
C3252 C3253 1.392 . S
C3252 C3255 1.511 . S
C3253 C3249 1.376 . S
C3253 C3252 1.392 . S
C3253 H3265 0.929 . S
C3254 C3250 1.531 . S
C3254 H3266 0.960 . S
C3254 H3267 0.962 . S
C3254 H3268 0.960 . S
C3255 C3252 1.511 . S
C3255 H3269 0.961 . S
C3255 H3270 0.961 . S
C3255 H3271 0.961 . S
C3256 C3257 1.370 . S
C3256 C3258 1.363 . S
C3256 H3272 0.931 . S
C3257 C3256 1.370 . S
C3257 C3261 1.408 . S
C3258 C3256 1.363 . S
C3258 C3259 1.370 . S
C3258 C3262 1.524 . S
C3259 C3251 1.503 . S
C3259 C3258 1.370 . S
C3259 C3260 1.403 . S
C3260 C3259 1.403 . S
C3260 C3261 1.404 . S
C3260 C3263 1.539 . S
C3261 C3257 1.408 . S
C3261 C3260 1.404 . S
C3261 H3273 0.930 . S
C3262 C3258 1.524 . S
C3262 H3274 0.956 . S
C3262 H3275 0.961 . S
C3262 H3276 0.961 . S
C3263 C3260 1.539 . S
C3263 H3277 0.958 . S
C3263 H3278 0.961 . S
C3263 H3279 0.960 . S
H3264 C3248 0.931 . S
H3265 C3253 0.929 . S
H3266 C3254 0.960 . S
H3267 C3254 0.962 . S
H3268 C3254 0.960 . S
H3269 C3255 0.961 . S
H3270 C3255 0.961 . S
H3271 C3255 0.961 . S
H3272 C3256 0.931 . S
H3273 C3261 0.930 . S
H3274 C3262 0.956 . S
H3275 C3262 0.961 . S
H3276 C3262 0.961 . S
H3277 C3263 0.958 . S
H3278 C3263 0.961 . S
H3279 C3263 0.960 . S
C3280 C3281 1.391 . S
C3280 C3282 1.394 . S
C3280 H3296 0.931 . S
C3281 C3280 1.391 . S
C3281 C3285 1.376 . S
C3282 C3280 1.394 . S
C3282 C3283 1.369 . S
C3282 C3286 1.531 . S
C3283 C3282 1.369 . S
C3283 C3284 1.410 . S
C3283 C3291 1.503 . S
C3284 C3283 1.410 . S
C3284 C3285 1.392 . S
C3284 C3287 1.511 . S
C3285 C3281 1.376 . S
C3285 C3284 1.392 . S
C3285 H3297 0.929 . S
C3286 C3282 1.531 . S
C3286 H3298 0.960 . S
C3286 H3299 0.962 . S
C3286 H3300 0.960 . S
C3287 C3284 1.511 . S
C3287 H3301 0.961 . S
C3287 H3302 0.961 . S
C3287 H3303 0.961 . S
C3288 C3289 1.370 . S
C3288 C3290 1.363 . S
C3288 H3304 0.931 . S
C3289 C3288 1.370 . S
C3289 C3293 1.408 . S
C3290 C3288 1.363 . S
C3290 C3291 1.370 . S
C3290 C3294 1.524 . S
C3291 C3283 1.503 . S
C3291 C3290 1.370 . S
C3291 C3292 1.403 . S
C3292 C3291 1.403 . S
C3292 C3293 1.404 . S
C3292 C3295 1.539 . S
C3293 C3289 1.408 . S
C3293 C3292 1.404 . S
C3293 H3305 0.930 . S
C3294 C3290 1.524 . S
C3294 H3306 0.956 . S
C3294 H3307 0.961 . S
C3294 H3308 0.961 . S
C3295 C3292 1.539 . S
C3295 H3309 0.958 . S
C3295 H3310 0.961 . S
C3295 H3311 0.960 . S
H3296 C3280 0.931 . S
H3297 C3285 0.929 . S
H3298 C3286 0.960 . S
H3299 C3286 0.962 . S
H3300 C3286 0.960 . S
H3301 C3287 0.961 . S
H3302 C3287 0.961 . S
H3303 C3287 0.961 . S
H3304 C3288 0.931 . S
H3305 C3293 0.930 . S
H3306 C3294 0.956 . S
H3307 C3294 0.961 . S
H3308 C3294 0.961 . S
H3309 C3295 0.958 . S
H3310 C3295 0.961 . S
H3311 C3295 0.960 . S
C3312 C3313 1.391 . S
C3312 C3314 1.394 . S
C3312 H3328 0.931 . S
C3313 C3312 1.391 . S
C3313 C3317 1.376 . S
C3314 C3312 1.394 . S
C3314 C3315 1.369 . S
C3314 C3318 1.531 . S
C3315 C3314 1.369 . S
C3315 C3316 1.410 . S
C3315 C3323 1.503 . S
C3316 C3315 1.410 . S
C3316 C3317 1.392 . S
C3316 C3319 1.511 . S
C3317 C3313 1.376 . S
C3317 C3316 1.392 . S
C3317 H3329 0.929 . S
C3318 C3314 1.531 . S
C3318 H3330 0.960 . S
C3318 H3331 0.962 . S
C3318 H3332 0.960 . S
C3319 C3316 1.511 . S
C3319 H3333 0.961 . S
C3319 H3334 0.961 . S
C3319 H3335 0.961 . S
C3320 C3321 1.370 . S
C3320 C3322 1.363 . S
C3320 H3336 0.931 . S
C3321 C3320 1.370 . S
C3321 C3325 1.408 . S
C3322 C3320 1.363 . S
C3322 C3323 1.370 . S
C3322 C3326 1.524 . S
C3323 C3315 1.503 . S
C3323 C3322 1.370 . S
C3323 C3324 1.403 . S
C3324 C3323 1.403 . S
C3324 C3325 1.404 . S
C3324 C3327 1.539 . S
C3325 C3321 1.408 . S
C3325 C3324 1.404 . S
C3325 H3337 0.930 . S
C3326 C3322 1.524 . S
C3326 H3338 0.956 . S
C3326 H3339 0.961 . S
C3326 H3340 0.961 . S
C3327 C3324 1.539 . S
C3327 H3341 0.958 . S
C3327 H3342 0.961 . S
C3327 H3343 0.960 . S
H3328 C3312 0.931 . S
H3329 C3317 0.929 . S
H3330 C3318 0.960 . S
H3331 C3318 0.962 . S
H3332 C3318 0.960 . S
H3333 C3319 0.961 . S
H3334 C3319 0.961 . S
H3335 C3319 0.961 . S
H3336 C3320 0.931 . S
H3337 C3325 0.930 . S
H3338 C3326 0.956 . S
H3339 C3326 0.961 . S
H3340 C3326 0.961 . S
H3341 C3327 0.958 . S
H3342 C3327 0.961 . S
H3343 C3327 0.960 . S
C3344 C3345 1.391 . S
C3344 C3346 1.394 . S
C3344 H3360 0.931 . S
C3345 C3344 1.391 . S
C3345 C3349 1.376 . S
C3346 C3344 1.394 . S
C3346 C3347 1.369 . S
C3346 C3350 1.531 . S
C3347 C3346 1.369 . S
C3347 C3348 1.410 . S
C3347 C3355 1.503 . S
C3348 C3347 1.410 . S
C3348 C3349 1.392 . S
C3348 C3351 1.511 . S
C3349 C3345 1.376 . S
C3349 C3348 1.392 . S
C3349 H3361 0.929 . S
C3350 C3346 1.531 . S
C3350 H3362 0.960 . S
C3350 H3363 0.962 . S
C3350 H3364 0.960 . S
C3351 C3348 1.511 . S
C3351 H3365 0.961 . S
C3351 H3366 0.961 . S
C3351 H3367 0.961 . S
C3352 C3353 1.370 . S
C3352 C3354 1.363 . S
C3352 H3368 0.931 . S
C3353 C3352 1.370 . S
C3353 C3357 1.408 . S
C3354 C3352 1.363 . S
C3354 C3355 1.370 . S
C3354 C3358 1.524 . S
C3355 C3347 1.503 . S
C3355 C3354 1.370 . S
C3355 C3356 1.403 . S
C3356 C3355 1.403 . S
C3356 C3357 1.404 . S
C3356 C3359 1.539 . S
C3357 C3353 1.408 . S
C3357 C3356 1.404 . S
C3357 H3369 0.930 . S
C3358 C3354 1.524 . S
C3358 H3370 0.956 . S
C3358 H3371 0.961 . S
C3358 H3372 0.961 . S
C3359 C3356 1.539 . S
C3359 H3373 0.958 . S
C3359 H3374 0.961 . S
C3359 H3375 0.960 . S
H3360 C3344 0.931 . S
H3361 C3349 0.929 . S
H3362 C3350 0.960 . S
H3363 C3350 0.962 . S
H3364 C3350 0.960 . S
H3365 C3351 0.961 . S
H3366 C3351 0.961 . S
H3367 C3351 0.961 . S
H3368 C3352 0.931 . S
H3369 C3357 0.930 . S
H3370 C3358 0.956 . S
H3371 C3358 0.961 . S
H3372 C3358 0.961 . S
H3373 C3359 0.958 . S
H3374 C3359 0.961 . S
H3375 C3359 0.960 . S
C3376 C3377 1.391 . S
C3376 C3378 1.394 . S
C3376 H3392 0.931 . S
C3377 C3376 1.391 . S
C3377 C3381 1.376 . S
C3378 C3376 1.394 . S
C3378 C3379 1.369 . S
C3378 C3382 1.531 . S
C3379 C3378 1.369 . S
C3379 C3380 1.410 . S
C3379 C3387 1.503 . S
C3380 C3379 1.410 . S
C3380 C3381 1.392 . S
C3380 C3383 1.511 . S
C3381 C3377 1.376 . S
C3381 C3380 1.392 . S
C3381 H3393 0.929 . S
C3382 C3378 1.531 . S
C3382 H3394 0.960 . S
C3382 H3395 0.962 . S
C3382 H3396 0.960 . S
C3383 C3380 1.511 . S
C3383 H3397 0.961 . S
C3383 H3398 0.961 . S
C3383 H3399 0.961 . S
C3384 C3385 1.370 . S
C3384 C3386 1.363 . S
C3384 H3400 0.931 . S
C3385 C3384 1.370 . S
C3385 C3389 1.408 . S
C3386 C3384 1.363 . S
C3386 C3387 1.370 . S
C3386 C3390 1.524 . S
C3387 C3379 1.503 . S
C3387 C3386 1.370 . S
C3387 C3388 1.403 . S
C3388 C3387 1.403 . S
C3388 C3389 1.404 . S
C3388 C3391 1.539 . S
C3389 C3385 1.408 . S
C3389 C3388 1.404 . S
C3389 H3401 0.930 . S
C3390 C3386 1.524 . S
C3390 H3402 0.956 . S
C3390 H3403 0.961 . S
C3390 H3404 0.961 . S
C3391 C3388 1.539 . S
C3391 H3405 0.958 . S
C3391 H3406 0.961 . S
C3391 H3407 0.960 . S
H3392 C3376 0.931 . S
H3393 C3381 0.929 . S
H3394 C3382 0.960 . S
H3395 C3382 0.962 . S
H3396 C3382 0.960 . S
H3397 C3383 0.961 . S
H3398 C3383 0.961 . S
H3399 C3383 0.961 . S
H3400 C3384 0.931 . S
H3401 C3389 0.930 . S
H3402 C3390 0.956 . S
H3403 C3390 0.961 . S
H3404 C3390 0.961 . S
H3405 C3391 0.958 . S
H3406 C3391 0.961 . S
H3407 C3391 0.960 . S
C3408 C3409 1.391 . S
C3408 C3410 1.394 . S
C3408 H3424 0.931 . S
C3409 C3408 1.391 . S
C3409 C3413 1.376 . S
C3410 C3408 1.394 . S
C3410 C3411 1.369 . S
C3410 C3414 1.531 . S
C3411 C3410 1.369 . S
C3411 C3412 1.410 . S
C3411 C3419 1.503 . S
C3412 C3411 1.410 . S
C3412 C3413 1.392 . S
C3412 C3415 1.511 . S
C3413 C3409 1.376 . S
C3413 C3412 1.392 . S
C3413 H3425 0.929 . S
C3414 C3410 1.531 . S
C3414 H3426 0.960 . S
C3414 H3427 0.962 . S
C3414 H3428 0.960 . S
C3415 C3412 1.511 . S
C3415 H3429 0.961 . S
C3415 H3430 0.961 . S
C3415 H3431 0.961 . S
C3416 C3417 1.370 . S
C3416 C3418 1.363 . S
C3416 H3432 0.931 . S
C3417 C3416 1.370 . S
C3417 C3421 1.408 . S
C3418 C3416 1.363 . S
C3418 C3419 1.370 . S
C3418 C3422 1.524 . S
C3419 C3411 1.503 . S
C3419 C3418 1.370 . S
C3419 C3420 1.403 . S
C3420 C3419 1.403 . S
C3420 C3421 1.404 . S
C3420 C3423 1.539 . S
C3421 C3417 1.408 . S
C3421 C3420 1.404 . S
C3421 H3433 0.930 . S
C3422 C3418 1.524 . S
C3422 H3434 0.956 . S
C3422 H3435 0.961 . S
C3422 H3436 0.961 . S
C3423 C3420 1.539 . S
C3423 H3437 0.958 . S
C3423 H3438 0.961 . S
C3423 H3439 0.960 . S
H3424 C3408 0.931 . S
H3425 C3413 0.929 . S
H3426 C3414 0.960 . S
H3427 C3414 0.962 . S
H3428 C3414 0.960 . S
H3429 C3415 0.961 . S
H3430 C3415 0.961 . S
H3431 C3415 0.961 . S
H3432 C3416 0.931 . S
H3433 C3421 0.930 . S
H3434 C3422 0.956 . S
H3435 C3422 0.961 . S
H3436 C3422 0.961 . S
H3437 C3423 0.958 . S
H3438 C3423 0.961 . S
H3439 C3423 0.960 . S
C3440 C3441 1.391 . S
C3440 C3442 1.394 . S
C3440 H3456 0.931 . S
C3441 C3440 1.391 . S
C3441 C3445 1.376 . S
C3442 C3440 1.394 . S
C3442 C3443 1.369 . S
C3442 C3446 1.531 . S
C3443 C3442 1.369 . S
C3443 C3444 1.410 . S
C3443 C3451 1.503 . S
C3444 C3443 1.410 . S
C3444 C3445 1.392 . S
C3444 C3447 1.511 . S
C3445 C3441 1.376 . S
C3445 C3444 1.392 . S
C3445 H3457 0.929 . S
C3446 C3442 1.531 . S
C3446 H3458 0.960 . S
C3446 H3459 0.962 . S
C3446 H3460 0.960 . S
C3447 C3444 1.511 . S
C3447 H3461 0.961 . S
C3447 H3462 0.961 . S
C3447 H3463 0.961 . S
C3448 C3449 1.370 . S
C3448 C3450 1.363 . S
C3448 H3464 0.931 . S
C3449 C3448 1.370 . S
C3449 C3453 1.408 . S
C3450 C3448 1.363 . S
C3450 C3451 1.370 . S
C3450 C3454 1.524 . S
C3451 C3443 1.503 . S
C3451 C3450 1.370 . S
C3451 C3452 1.403 . S
C3452 C3451 1.403 . S
C3452 C3453 1.404 . S
C3452 C3455 1.539 . S
C3453 C3449 1.408 . S
C3453 C3452 1.404 . S
C3453 H3465 0.930 . S
C3454 C3450 1.524 . S
C3454 H3466 0.956 . S
C3454 H3467 0.961 . S
C3454 H3468 0.961 . S
C3455 C3452 1.539 . S
C3455 H3469 0.958 . S
C3455 H3470 0.961 . S
C3455 H3471 0.960 . S
H3456 C3440 0.931 . S
H3457 C3445 0.929 . S
H3458 C3446 0.960 . S
H3459 C3446 0.962 . S
H3460 C3446 0.960 . S
H3461 C3447 0.961 . S
H3462 C3447 0.961 . S
H3463 C3447 0.961 . S
H3464 C3448 0.931 . S
H3465 C3453 0.930 . S
H3466 C3454 0.956 . S
H3467 C3454 0.961 . S
H3468 C3454 0.961 . S
H3469 C3455 0.958 . S
H3470 C3455 0.961 . S
H3471 C3455 0.960 . S
C3472 C3473 1.391 . S
C3472 C3474 1.394 . S
C3472 H3488 0.931 . S
C3473 C3472 1.391 . S
C3473 C3477 1.376 . S
C3474 C3472 1.394 . S
C3474 C3475 1.369 . S
C3474 C3478 1.531 . S
C3475 C3474 1.369 . S
C3475 C3476 1.410 . S
C3475 C3483 1.503 . S
C3476 C3475 1.410 . S
C3476 C3477 1.392 . S
C3476 C3479 1.511 . S
C3477 C3473 1.376 . S
C3477 C3476 1.392 . S
C3477 H3489 0.929 . S
C3478 C3474 1.531 . S
C3478 H3490 0.960 . S
C3478 H3491 0.962 . S
C3478 H3492 0.960 . S
C3479 C3476 1.511 . S
C3479 H3493 0.961 . S
C3479 H3494 0.961 . S
C3479 H3495 0.961 . S
C3480 C3481 1.370 . S
C3480 C3482 1.363 . S
C3480 H3496 0.931 . S
C3481 C3480 1.370 . S
C3481 C3485 1.408 . S
C3482 C3480 1.363 . S
C3482 C3483 1.370 . S
C3482 C3486 1.524 . S
C3483 C3475 1.503 . S
C3483 C3482 1.370 . S
C3483 C3484 1.403 . S
C3484 C3483 1.403 . S
C3484 C3485 1.404 . S
C3484 C3487 1.539 . S
C3485 C3481 1.408 . S
C3485 C3484 1.404 . S
C3485 H3497 0.930 . S
C3486 C3482 1.524 . S
C3486 H3498 0.956 . S
C3486 H3499 0.961 . S
C3486 H3500 0.961 . S
C3487 C3484 1.539 . S
C3487 H3501 0.958 . S
C3487 H3502 0.961 . S
C3487 H3503 0.960 . S
H3488 C3472 0.931 . S
H3489 C3477 0.929 . S
H3490 C3478 0.960 . S
H3491 C3478 0.962 . S
H3492 C3478 0.960 . S
H3493 C3479 0.961 . S
H3494 C3479 0.961 . S
H3495 C3479 0.961 . S
H3496 C3480 0.931 . S
H3497 C3485 0.930 . S
H3498 C3486 0.956 . S
H3499 C3486 0.961 . S
H3500 C3486 0.961 . S
H3501 C3487 0.958 . S
H3502 C3487 0.961 . S
H3503 C3487 0.960 . S
C3504 C3505 1.391 . S
C3504 C3506 1.394 . S
C3504 H3520 0.931 . S
C3505 C3504 1.391 . S
C3505 C3509 1.376 . S
C3506 C3504 1.394 . S
C3506 C3507 1.369 . S
C3506 C3510 1.531 . S
C3507 C3506 1.369 . S
C3507 C3508 1.410 . S
C3507 C3515 1.503 . S
C3508 C3507 1.410 . S
C3508 C3509 1.392 . S
C3508 C3511 1.511 . S
C3509 C3505 1.376 . S
C3509 C3508 1.392 . S
C3509 H3521 0.929 . S
C3510 C3506 1.531 . S
C3510 H3522 0.960 . S
C3510 H3523 0.962 . S
C3510 H3524 0.960 . S
C3511 C3508 1.511 . S
C3511 H3525 0.961 . S
C3511 H3526 0.961 . S
C3511 H3527 0.961 . S
C3512 C3513 1.370 . S
C3512 C3514 1.363 . S
C3512 H3528 0.931 . S
C3513 C3512 1.370 . S
C3513 C3517 1.408 . S
C3514 C3512 1.363 . S
C3514 C3515 1.370 . S
C3514 C3518 1.524 . S
C3515 C3507 1.503 . S
C3515 C3514 1.370 . S
C3515 C3516 1.403 . S
C3516 C3515 1.403 . S
C3516 C3517 1.404 . S
C3516 C3519 1.539 . S
C3517 C3513 1.408 . S
C3517 C3516 1.404 . S
C3517 H3529 0.930 . S
C3518 C3514 1.524 . S
C3518 H3530 0.956 . S
C3518 H3531 0.961 . S
C3518 H3532 0.961 . S
C3519 C3516 1.539 . S
C3519 H3533 0.958 . S
C3519 H3534 0.961 . S
C3519 H3535 0.960 . S
H3520 C3504 0.931 . S
H3521 C3509 0.929 . S
H3522 C3510 0.960 . S
H3523 C3510 0.962 . S
H3524 C3510 0.960 . S
H3525 C3511 0.961 . S
H3526 C3511 0.961 . S
H3527 C3511 0.961 . S
H3528 C3512 0.931 . S
H3529 C3517 0.930 . S
H3530 C3518 0.956 . S
H3531 C3518 0.961 . S
H3532 C3518 0.961 . S
H3533 C3519 0.958 . S
H3534 C3519 0.961 . S
H3535 C3519 0.960 . S
C3536 C3537 1.391 . S
C3536 C3538 1.394 . S
C3536 H3552 0.931 . S
C3537 C3536 1.391 . S
C3537 C3541 1.376 . S
C3538 C3536 1.394 . S
C3538 C3539 1.369 . S
C3538 C3542 1.531 . S
C3539 C3538 1.369 . S
C3539 C3540 1.410 . S
C3539 C3547 1.503 . S
C3540 C3539 1.410 . S
C3540 C3541 1.392 . S
C3540 C3543 1.511 . S
C3541 C3537 1.376 . S
C3541 C3540 1.392 . S
C3541 H3553 0.929 . S
C3542 C3538 1.531 . S
C3542 H3554 0.960 . S
C3542 H3555 0.962 . S
C3542 H3556 0.960 . S
C3543 C3540 1.511 . S
C3543 H3557 0.961 . S
C3543 H3558 0.961 . S
C3543 H3559 0.961 . S
C3544 C3545 1.370 . S
C3544 C3546 1.363 . S
C3544 H3560 0.931 . S
C3545 C3544 1.370 . S
C3545 C3549 1.408 . S
C3546 C3544 1.363 . S
C3546 C3547 1.370 . S
C3546 C3550 1.524 . S
C3547 C3539 1.503 . S
C3547 C3546 1.370 . S
C3547 C3548 1.403 . S
C3548 C3547 1.403 . S
C3548 C3549 1.404 . S
C3548 C3551 1.539 . S
C3549 C3545 1.408 . S
C3549 C3548 1.404 . S
C3549 H3561 0.930 . S
C3550 C3546 1.524 . S
C3550 H3562 0.956 . S
C3550 H3563 0.961 . S
C3550 H3564 0.961 . S
C3551 C3548 1.539 . S
C3551 H3565 0.958 . S
C3551 H3566 0.961 . S
C3551 H3567 0.960 . S
H3552 C3536 0.931 . S
H3553 C3541 0.929 . S
H3554 C3542 0.960 . S
H3555 C3542 0.962 . S
H3556 C3542 0.960 . S
H3557 C3543 0.961 . S
H3558 C3543 0.961 . S
H3559 C3543 0.961 . S
H3560 C3544 0.931 . S
H3561 C3549 0.930 . S
H3562 C3550 0.956 . S
H3563 C3550 0.961 . S
H3564 C3550 0.961 . S
H3565 C3551 0.958 . S
H3566 C3551 0.961 . S
H3567 C3551 0.960 . S
C3568 C3569 1.391 . S
C3568 C3570 1.394 . S
C3568 H3584 0.931 . S
C3569 C3568 1.391 . S
C3569 C3573 1.376 . S
C3570 C3568 1.394 . S
C3570 C3571 1.369 . S
C3570 C3574 1.531 . S
C3571 C3570 1.369 . S
C3571 C3572 1.410 . S
C3571 C3579 1.503 . S
C3572 C3571 1.410 . S
C3572 C3573 1.392 . S
C3572 C3575 1.511 . S
C3573 C3569 1.376 . S
C3573 C3572 1.392 . S
C3573 H3585 0.929 . S
C3574 C3570 1.531 . S
C3574 H3586 0.960 . S
C3574 H3587 0.962 . S
C3574 H3588 0.960 . S
C3575 C3572 1.511 . S
C3575 H3589 0.961 . S
C3575 H3590 0.961 . S
C3575 H3591 0.961 . S
C3576 C3577 1.370 . S
C3576 C3578 1.363 . S
C3576 H3592 0.931 . S
C3577 C3576 1.370 . S
C3577 C3581 1.408 . S
C3578 C3576 1.363 . S
C3578 C3579 1.370 . S
C3578 C3582 1.524 . S
C3579 C3571 1.503 . S
C3579 C3578 1.370 . S
C3579 C3580 1.403 . S
C3580 C3579 1.403 . S
C3580 C3581 1.404 . S
C3580 C3583 1.539 . S
C3581 C3577 1.408 . S
C3581 C3580 1.404 . S
C3581 H3593 0.930 . S
C3582 C3578 1.524 . S
C3582 H3594 0.956 . S
C3582 H3595 0.961 . S
C3582 H3596 0.961 . S
C3583 C3580 1.539 . S
C3583 H3597 0.958 . S
C3583 H3598 0.961 . S
C3583 H3599 0.960 . S
H3584 C3568 0.931 . S
H3585 C3573 0.929 . S
H3586 C3574 0.960 . S
H3587 C3574 0.962 . S
H3588 C3574 0.960 . S
H3589 C3575 0.961 . S
H3590 C3575 0.961 . S
H3591 C3575 0.961 . S
H3592 C3576 0.931 . S
H3593 C3581 0.930 . S
H3594 C3582 0.956 . S
H3595 C3582 0.961 . S
H3596 C3582 0.961 . S
H3597 C3583 0.958 . S
H3598 C3583 0.961 . S
H3599 C3583 0.960 . S
C3600 C3601 1.391 . S
C3600 C3602 1.394 . S
C3600 H3616 0.931 . S
C3601 C3600 1.391 . S
C3601 C3605 1.376 . S
C3602 C3600 1.394 . S
C3602 C3603 1.369 . S
C3602 C3606 1.531 . S
C3603 C3602 1.369 . S
C3603 C3604 1.410 . S
C3603 C3611 1.503 . S
C3604 C3603 1.410 . S
C3604 C3605 1.392 . S
C3604 C3607 1.511 . S
C3605 C3601 1.376 . S
C3605 C3604 1.392 . S
C3605 H3617 0.929 . S
C3606 C3602 1.531 . S
C3606 H3618 0.960 . S
C3606 H3619 0.962 . S
C3606 H3620 0.960 . S
C3607 C3604 1.511 . S
C3607 H3621 0.961 . S
C3607 H3622 0.961 . S
C3607 H3623 0.961 . S
C3608 C3609 1.370 . S
C3608 C3610 1.363 . S
C3608 H3624 0.931 . S
C3609 C3608 1.370 . S
C3609 C3613 1.408 . S
C3610 C3608 1.363 . S
C3610 C3611 1.370 . S
C3610 C3614 1.524 . S
C3611 C3603 1.503 . S
C3611 C3610 1.370 . S
C3611 C3612 1.403 . S
C3612 C3611 1.403 . S
C3612 C3613 1.404 . S
C3612 C3615 1.539 . S
C3613 C3609 1.408 . S
C3613 C3612 1.404 . S
C3613 H3625 0.930 . S
C3614 C3610 1.524 . S
C3614 H3626 0.956 . S
C3614 H3627 0.961 . S
C3614 H3628 0.961 . S
C3615 C3612 1.539 . S
C3615 H3629 0.958 . S
C3615 H3630 0.961 . S
C3615 H3631 0.960 . S
H3616 C3600 0.931 . S
H3617 C3605 0.929 . S
H3618 C3606 0.960 . S
H3619 C3606 0.962 . S
H3620 C3606 0.960 . S
H3621 C3607 0.961 . S
H3622 C3607 0.961 . S
H3623 C3607 0.961 . S
H3624 C3608 0.931 . S
H3625 C3613 0.930 . S
H3626 C3614 0.956 . S
H3627 C3614 0.961 . S
H3628 C3614 0.961 . S
H3629 C3615 0.958 . S
H3630 C3615 0.961 . S
H3631 C3615 0.960 . S
C3632 C3633 1.391 . S
C3632 C3634 1.394 . S
C3632 H3648 0.931 . S
C3633 C3632 1.391 . S
C3633 C3637 1.376 . S
C3634 C3632 1.394 . S
C3634 C3635 1.369 . S
C3634 C3638 1.531 . S
C3635 C3634 1.369 . S
C3635 C3636 1.410 . S
C3635 C3643 1.503 . S
C3636 C3635 1.410 . S
C3636 C3637 1.392 . S
C3636 C3639 1.511 . S
C3637 C3633 1.376 . S
C3637 C3636 1.392 . S
C3637 H3649 0.929 . S
C3638 C3634 1.531 . S
C3638 H3650 0.960 . S
C3638 H3651 0.962 . S
C3638 H3652 0.960 . S
C3639 C3636 1.511 . S
C3639 H3653 0.961 . S
C3639 H3654 0.961 . S
C3639 H3655 0.961 . S
C3640 C3641 1.370 . S
C3640 C3642 1.363 . S
C3640 H3656 0.931 . S
C3641 C3640 1.370 . S
C3641 C3645 1.408 . S
C3642 C3640 1.363 . S
C3642 C3643 1.370 . S
C3642 C3646 1.524 . S
C3643 C3635 1.503 . S
C3643 C3642 1.370 . S
C3643 C3644 1.403 . S
C3644 C3643 1.403 . S
C3644 C3645 1.404 . S
C3644 C3647 1.539 . S
C3645 C3641 1.408 . S
C3645 C3644 1.404 . S
C3645 H3657 0.930 . S
C3646 C3642 1.524 . S
C3646 H3658 0.956 . S
C3646 H3659 0.961 . S
C3646 H3660 0.961 . S
C3647 C3644 1.539 . S
C3647 H3661 0.958 . S
C3647 H3662 0.961 . S
C3647 H3663 0.960 . S
H3648 C3632 0.931 . S
H3649 C3637 0.929 . S
H3650 C3638 0.960 . S
H3651 C3638 0.962 . S
H3652 C3638 0.960 . S
H3653 C3639 0.961 . S
H3654 C3639 0.961 . S
H3655 C3639 0.961 . S
H3656 C3640 0.931 . S
H3657 C3645 0.930 . S
H3658 C3646 0.956 . S
H3659 C3646 0.961 . S
H3660 C3646 0.961 . S
H3661 C3647 0.958 . S
H3662 C3647 0.961 . S
H3663 C3647 0.960 . S
C3664 C3665 1.391 . S
C3664 C3666 1.394 . S
C3664 H3680 0.931 . S
C3665 C3664 1.391 . S
C3665 C3669 1.376 . S
C3666 C3664 1.394 . S
C3666 C3667 1.369 . S
C3666 C3670 1.531 . S
C3667 C3666 1.369 . S
C3667 C3668 1.410 . S
C3667 C3675 1.503 . S
C3668 C3667 1.410 . S
C3668 C3669 1.392 . S
C3668 C3671 1.511 . S
C3669 C3665 1.376 . S
C3669 C3668 1.392 . S
C3669 H3681 0.929 . S
C3670 C3666 1.531 . S
C3670 H3682 0.960 . S
C3670 H3683 0.962 . S
C3670 H3684 0.960 . S
C3671 C3668 1.511 . S
C3671 H3685 0.961 . S
C3671 H3686 0.961 . S
C3671 H3687 0.961 . S
C3672 C3673 1.370 . S
C3672 C3674 1.363 . S
C3672 H3688 0.931 . S
C3673 C3672 1.370 . S
C3673 C3677 1.408 . S
C3674 C3672 1.363 . S
C3674 C3675 1.370 . S
C3674 C3678 1.524 . S
C3675 C3667 1.503 . S
C3675 C3674 1.370 . S
C3675 C3676 1.403 . S
C3676 C3675 1.403 . S
C3676 C3677 1.404 . S
C3676 C3679 1.539 . S
C3677 C3673 1.408 . S
C3677 C3676 1.404 . S
C3677 H3689 0.930 . S
C3678 C3674 1.524 . S
C3678 H3690 0.956 . S
C3678 H3691 0.961 . S
C3678 H3692 0.961 . S
C3679 C3676 1.539 . S
C3679 H3693 0.958 . S
C3679 H3694 0.961 . S
C3679 H3695 0.960 . S
H3680 C3664 0.931 . S
H3681 C3669 0.929 . S
H3682 C3670 0.960 . S
H3683 C3670 0.962 . S
H3684 C3670 0.960 . S
H3685 C3671 0.961 . S
H3686 C3671 0.961 . S
H3687 C3671 0.961 . S
H3688 C3672 0.931 . S
H3689 C3677 0.930 . S
H3690 C3678 0.956 . S
H3691 C3678 0.961 . S
H3692 C3678 0.961 . S
H3693 C3679 0.958 . S
H3694 C3679 0.961 . S
H3695 C3679 0.960 . S
C3696 C3697 1.391 . S
C3696 C3698 1.394 . S
C3696 H3712 0.931 . S
C3697 C3696 1.391 . S
C3697 C3701 1.376 . S
C3698 C3696 1.394 . S
C3698 C3699 1.369 . S
C3698 C3702 1.531 . S
C3699 C3698 1.369 . S
C3699 C3700 1.410 . S
C3699 C3707 1.503 . S
C3700 C3699 1.410 . S
C3700 C3701 1.392 . S
C3700 C3703 1.511 . S
C3701 C3697 1.376 . S
C3701 C3700 1.392 . S
C3701 H3713 0.929 . S
C3702 C3698 1.531 . S
C3702 H3714 0.960 . S
C3702 H3715 0.962 . S
C3702 H3716 0.960 . S
C3703 C3700 1.511 . S
C3703 H3717 0.961 . S
C3703 H3718 0.961 . S
C3703 H3719 0.961 . S
C3704 C3705 1.370 . S
C3704 C3706 1.363 . S
C3704 H3720 0.931 . S
C3705 C3704 1.370 . S
C3705 C3709 1.408 . S
C3706 C3704 1.363 . S
C3706 C3707 1.370 . S
C3706 C3710 1.524 . S
C3707 C3699 1.503 . S
C3707 C3706 1.370 . S
C3707 C3708 1.403 . S
C3708 C3707 1.403 . S
C3708 C3709 1.404 . S
C3708 C3711 1.539 . S
C3709 C3705 1.408 . S
C3709 C3708 1.404 . S
C3709 H3721 0.930 . S
C3710 C3706 1.524 . S
C3710 H3722 0.956 . S
C3710 H3723 0.961 . S
C3710 H3724 0.961 . S
C3711 C3708 1.539 . S
C3711 H3725 0.958 . S
C3711 H3726 0.961 . S
C3711 H3727 0.960 . S
H3712 C3696 0.931 . S
H3713 C3701 0.929 . S
H3714 C3702 0.960 . S
H3715 C3702 0.962 . S
H3716 C3702 0.960 . S
H3717 C3703 0.961 . S
H3718 C3703 0.961 . S
H3719 C3703 0.961 . S
H3720 C3704 0.931 . S
H3721 C3709 0.930 . S
H3722 C3710 0.956 . S
H3723 C3710 0.961 . S
H3724 C3710 0.961 . S
H3725 C3711 0.958 . S
H3726 C3711 0.961 . S
H3727 C3711 0.960 . S
C3728 C3729 1.391 . S
C3728 C3730 1.394 . S
C3728 H3744 0.931 . S
C3729 C3728 1.391 . S
C3729 C3733 1.376 . S
C3730 C3728 1.394 . S
C3730 C3731 1.369 . S
C3730 C3734 1.531 . S
C3731 C3730 1.369 . S
C3731 C3732 1.410 . S
C3731 C3739 1.503 . S
C3732 C3731 1.410 . S
C3732 C3733 1.392 . S
C3732 C3735 1.511 . S
C3733 C3729 1.376 . S
C3733 C3732 1.392 . S
C3733 H3745 0.929 . S
C3734 C3730 1.531 . S
C3734 H3746 0.960 . S
C3734 H3747 0.962 . S
C3734 H3748 0.960 . S
C3735 C3732 1.511 . S
C3735 H3749 0.961 . S
C3735 H3750 0.961 . S
C3735 H3751 0.961 . S
C3736 C3737 1.370 . S
C3736 C3738 1.363 . S
C3736 H3752 0.931 . S
C3737 C3736 1.370 . S
C3737 C3741 1.408 . S
C3738 C3736 1.363 . S
C3738 C3739 1.370 . S
C3738 C3742 1.524 . S
C3739 C3731 1.503 . S
C3739 C3738 1.370 . S
C3739 C3740 1.403 . S
C3740 C3739 1.403 . S
C3740 C3741 1.404 . S
C3740 C3743 1.539 . S
C3741 C3737 1.408 . S
C3741 C3740 1.404 . S
C3741 H3753 0.930 . S
C3742 C3738 1.524 . S
C3742 H3754 0.956 . S
C3742 H3755 0.961 . S
C3742 H3756 0.961 . S
C3743 C3740 1.539 . S
C3743 H3757 0.958 . S
C3743 H3758 0.961 . S
C3743 H3759 0.960 . S
H3744 C3728 0.931 . S
H3745 C3733 0.929 . S
H3746 C3734 0.960 . S
H3747 C3734 0.962 . S
H3748 C3734 0.960 . S
H3749 C3735 0.961 . S
H3750 C3735 0.961 . S
H3751 C3735 0.961 . S
H3752 C3736 0.931 . S
H3753 C3741 0.930 . S
H3754 C3742 0.956 . S
H3755 C3742 0.961 . S
H3756 C3742 0.961 . S
H3757 C3743 0.958 . S
H3758 C3743 0.961 . S
H3759 C3743 0.960 . S
C3760 C3761 1.391 . S
C3760 C3762 1.394 . S
C3760 H3776 0.931 . S
C3761 C3760 1.391 . S
C3761 C3765 1.376 . S
C3762 C3760 1.394 . S
C3762 C3763 1.369 . S
C3762 C3766 1.531 . S
C3763 C3762 1.369 . S
C3763 C3764 1.410 . S
C3763 C3771 1.503 . S
C3764 C3763 1.410 . S
C3764 C3765 1.392 . S
C3764 C3767 1.511 . S
C3765 C3761 1.376 . S
C3765 C3764 1.392 . S
C3765 H3777 0.929 . S
C3766 C3762 1.531 . S
C3766 H3778 0.960 . S
C3766 H3779 0.962 . S
C3766 H3780 0.960 . S
C3767 C3764 1.511 . S
C3767 H3781 0.961 . S
C3767 H3782 0.961 . S
C3767 H3783 0.961 . S
C3768 C3769 1.370 . S
C3768 C3770 1.363 . S
C3768 H3784 0.931 . S
C3769 C3768 1.370 . S
C3769 C3773 1.408 . S
C3770 C3768 1.363 . S
C3770 C3771 1.370 . S
C3770 C3774 1.524 . S
C3771 C3763 1.503 . S
C3771 C3770 1.370 . S
C3771 C3772 1.403 . S
C3772 C3771 1.403 . S
C3772 C3773 1.404 . S
C3772 C3775 1.539 . S
C3773 C3769 1.408 . S
C3773 C3772 1.404 . S
C3773 H3785 0.930 . S
C3774 C3770 1.524 . S
C3774 H3786 0.956 . S
C3774 H3787 0.961 . S
C3774 H3788 0.961 . S
C3775 C3772 1.539 . S
C3775 H3789 0.958 . S
C3775 H3790 0.961 . S
C3775 H3791 0.960 . S
H3776 C3760 0.931 . S
H3777 C3765 0.929 . S
H3778 C3766 0.960 . S
H3779 C3766 0.962 . S
H3780 C3766 0.960 . S
H3781 C3767 0.961 . S
H3782 C3767 0.961 . S
H3783 C3767 0.961 . S
H3784 C3768 0.931 . S
H3785 C3773 0.930 . S
H3786 C3774 0.956 . S
H3787 C3774 0.961 . S
H3788 C3774 0.961 . S
H3789 C3775 0.958 . S
H3790 C3775 0.961 . S
H3791 C3775 0.960 . S
C3792 C3793 1.391 . S
C3792 C3794 1.394 . S
C3792 H3808 0.931 . S
C3793 C3792 1.391 . S
C3793 C3797 1.376 . S
C3794 C3792 1.394 . S
C3794 C3795 1.369 . S
C3794 C3798 1.531 . S
C3795 C3794 1.369 . S
C3795 C3796 1.410 . S
C3795 C3803 1.503 . S
C3796 C3795 1.410 . S
C3796 C3797 1.392 . S
C3796 C3799 1.511 . S
C3797 C3793 1.376 . S
C3797 C3796 1.392 . S
C3797 H3809 0.929 . S
C3798 C3794 1.531 . S
C3798 H3810 0.960 . S
C3798 H3811 0.962 . S
C3798 H3812 0.960 . S
C3799 C3796 1.511 . S
C3799 H3813 0.961 . S
C3799 H3814 0.961 . S
C3799 H3815 0.961 . S
C3800 C3801 1.370 . S
C3800 C3802 1.363 . S
C3800 H3816 0.931 . S
C3801 C3800 1.370 . S
C3801 C3805 1.408 . S
C3802 C3800 1.363 . S
C3802 C3803 1.370 . S
C3802 C3806 1.524 . S
C3803 C3795 1.503 . S
C3803 C3802 1.370 . S
C3803 C3804 1.403 . S
C3804 C3803 1.403 . S
C3804 C3805 1.404 . S
C3804 C3807 1.539 . S
C3805 C3801 1.408 . S
C3805 C3804 1.404 . S
C3805 H3817 0.930 . S
C3806 C3802 1.524 . S
C3806 H3818 0.956 . S
C3806 H3819 0.961 . S
C3806 H3820 0.961 . S
C3807 C3804 1.539 . S
C3807 H3821 0.958 . S
C3807 H3822 0.961 . S
C3807 H3823 0.960 . S
H3808 C3792 0.931 . S
H3809 C3797 0.929 . S
H3810 C3798 0.960 . S
H3811 C3798 0.962 . S
H3812 C3798 0.960 . S
H3813 C3799 0.961 . S
H3814 C3799 0.961 . S
H3815 C3799 0.961 . S
H3816 C3800 0.931 . S
H3817 C3805 0.930 . S
H3818 C3806 0.956 . S
H3819 C3806 0.961 . S
H3820 C3806 0.961 . S
H3821 C3807 0.958 . S
H3822 C3807 0.961 . S
H3823 C3807 0.960 . S
C3824 C3825 1.391 . S
C3824 C3826 1.394 . S
C3824 H3840 0.931 . S
C3825 C3824 1.391 . S
C3825 C3829 1.376 . S
C3826 C3824 1.394 . S
C3826 C3827 1.369 . S
C3826 C3830 1.531 . S
C3827 C3826 1.369 . S
C3827 C3828 1.410 . S
C3827 C3835 1.503 . S
C3828 C3827 1.410 . S
C3828 C3829 1.392 . S
C3828 C3831 1.511 . S
C3829 C3825 1.376 . S
C3829 C3828 1.392 . S
C3829 H3841 0.929 . S
C3830 C3826 1.531 . S
C3830 H3842 0.960 . S
C3830 H3843 0.962 . S
C3830 H3844 0.960 . S
C3831 C3828 1.511 . S
C3831 H3845 0.961 . S
C3831 H3846 0.961 . S
C3831 H3847 0.961 . S
C3832 C3833 1.370 . S
C3832 C3834 1.363 . S
C3832 H3848 0.931 . S
C3833 C3832 1.370 . S
C3833 C3837 1.408 . S
C3834 C3832 1.363 . S
C3834 C3835 1.370 . S
C3834 C3838 1.524 . S
C3835 C3827 1.503 . S
C3835 C3834 1.370 . S
C3835 C3836 1.403 . S
C3836 C3835 1.403 . S
C3836 C3837 1.404 . S
C3836 C3839 1.539 . S
C3837 C3833 1.408 . S
C3837 C3836 1.404 . S
C3837 H3849 0.930 . S
C3838 C3834 1.524 . S
C3838 H3850 0.956 . S
C3838 H3851 0.961 . S
C3838 H3852 0.961 . S
C3839 C3836 1.539 . S
C3839 H3853 0.958 . S
C3839 H3854 0.961 . S
C3839 H3855 0.960 . S
H3840 C3824 0.931 . S
H3841 C3829 0.929 . S
H3842 C3830 0.960 . S
H3843 C3830 0.962 . S
H3844 C3830 0.960 . S
H3845 C3831 0.961 . S
H3846 C3831 0.961 . S
H3847 C3831 0.961 . S
H3848 C3832 0.931 . S
H3849 C3837 0.930 . S
H3850 C3838 0.956 . S
H3851 C3838 0.961 . S
H3852 C3838 0.961 . S
H3853 C3839 0.958 . S
H3854 C3839 0.961 . S
H3855 C3839 0.960 . S
C3856 C3857 1.391 . S
C3856 C3858 1.394 . S
C3856 H3872 0.931 . S
C3857 C3856 1.391 . S
C3857 C3861 1.376 . S
C3858 C3856 1.394 . S
C3858 C3859 1.369 . S
C3858 C3862 1.531 . S
C3859 C3858 1.369 . S
C3859 C3860 1.410 . S
C3859 C3867 1.503 . S
C3860 C3859 1.410 . S
C3860 C3861 1.392 . S
C3860 C3863 1.511 . S
C3861 C3857 1.376 . S
C3861 C3860 1.392 . S
C3861 H3873 0.929 . S
C3862 C3858 1.531 . S
C3862 H3874 0.960 . S
C3862 H3875 0.962 . S
C3862 H3876 0.960 . S
C3863 C3860 1.511 . S
C3863 H3877 0.961 . S
C3863 H3878 0.961 . S
C3863 H3879 0.961 . S
C3864 C3865 1.370 . S
C3864 C3866 1.363 . S
C3864 H3880 0.931 . S
C3865 C3864 1.370 . S
C3865 C3869 1.408 . S
C3866 C3864 1.363 . S
C3866 C3867 1.370 . S
C3866 C3870 1.524 . S
C3867 C3859 1.503 . S
C3867 C3866 1.370 . S
C3867 C3868 1.403 . S
C3868 C3867 1.403 . S
C3868 C3869 1.404 . S
C3868 C3871 1.539 . S
C3869 C3865 1.408 . S
C3869 C3868 1.404 . S
C3869 H3881 0.930 . S
C3870 C3866 1.524 . S
C3870 H3882 0.956 . S
C3870 H3883 0.961 . S
C3870 H3884 0.961 . S
C3871 C3868 1.539 . S
C3871 H3885 0.958 . S
C3871 H3886 0.961 . S
C3871 H3887 0.960 . S
H3872 C3856 0.931 . S
H3873 C3861 0.929 . S
H3874 C3862 0.960 . S
H3875 C3862 0.962 . S
H3876 C3862 0.960 . S
H3877 C3863 0.961 . S
H3878 C3863 0.961 . S
H3879 C3863 0.961 . S
H3880 C3864 0.931 . S
H3881 C3869 0.930 . S
H3882 C3870 0.956 . S
H3883 C3870 0.961 . S
H3884 C3870 0.961 . S
H3885 C3871 0.958 . S
H3886 C3871 0.961 . S
H3887 C3871 0.960 . S
C3888 C3889 1.391 . S
C3888 C3890 1.394 . S
C3888 H3904 0.931 . S
C3889 C3888 1.391 . S
C3889 C3893 1.376 . S
C3890 C3888 1.394 . S
C3890 C3891 1.369 . S
C3890 C3894 1.531 . S
C3891 C3890 1.369 . S
C3891 C3892 1.410 . S
C3891 C3899 1.503 . S
C3892 C3891 1.410 . S
C3892 C3893 1.392 . S
C3892 C3895 1.511 . S
C3893 C3889 1.376 . S
C3893 C3892 1.392 . S
C3893 H3905 0.929 . S
C3894 C3890 1.531 . S
C3894 H3906 0.960 . S
C3894 H3907 0.962 . S
C3894 H3908 0.960 . S
C3895 C3892 1.511 . S
C3895 H3909 0.961 . S
C3895 H3910 0.961 . S
C3895 H3911 0.961 . S
C3896 C3897 1.370 . S
C3896 C3898 1.363 . S
C3896 H3912 0.931 . S
C3897 C3896 1.370 . S
C3897 C3901 1.408 . S
C3898 C3896 1.363 . S
C3898 C3899 1.370 . S
C3898 C3902 1.524 . S
C3899 C3891 1.503 . S
C3899 C3898 1.370 . S
C3899 C3900 1.403 . S
C3900 C3899 1.403 . S
C3900 C3901 1.404 . S
C3900 C3903 1.539 . S
C3901 C3897 1.408 . S
C3901 C3900 1.404 . S
C3901 H3913 0.930 . S
C3902 C3898 1.524 . S
C3902 H3914 0.956 . S
C3902 H3915 0.961 . S
C3902 H3916 0.961 . S
C3903 C3900 1.539 . S
C3903 H3917 0.958 . S
C3903 H3918 0.961 . S
C3903 H3919 0.960 . S
H3904 C3888 0.931 . S
H3905 C3893 0.929 . S
H3906 C3894 0.960 . S
H3907 C3894 0.962 . S
H3908 C3894 0.960 . S
H3909 C3895 0.961 . S
H3910 C3895 0.961 . S
H3911 C3895 0.961 . S
H3912 C3896 0.931 . S
H3913 C3901 0.930 . S
H3914 C3902 0.956 . S
H3915 C3902 0.961 . S
H3916 C3902 0.961 . S
H3917 C3903 0.958 . S
H3918 C3903 0.961 . S
H3919 C3903 0.960 . S
C3920 C3921 1.391 . S
C3920 C3922 1.394 . S
C3920 H3936 0.931 . S
C3921 C3920 1.391 . S
C3921 C3925 1.376 . S
C3922 C3920 1.394 . S
C3922 C3923 1.369 . S
C3922 C3926 1.531 . S
C3923 C3922 1.369 . S
C3923 C3924 1.410 . S
C3923 C3931 1.503 . S
C3924 C3923 1.410 . S
C3924 C3925 1.392 . S
C3924 C3927 1.511 . S
C3925 C3921 1.376 . S
C3925 C3924 1.392 . S
C3925 H3937 0.929 . S
C3926 C3922 1.531 . S
C3926 H3938 0.960 . S
C3926 H3939 0.962 . S
C3926 H3940 0.960 . S
C3927 C3924 1.511 . S
C3927 H3941 0.961 . S
C3927 H3942 0.961 . S
C3927 H3943 0.961 . S
C3928 C3929 1.370 . S
C3928 C3930 1.363 . S
C3928 H3944 0.931 . S
C3929 C3928 1.370 . S
C3929 C3933 1.408 . S
C3930 C3928 1.363 . S
C3930 C3931 1.370 . S
C3930 C3934 1.524 . S
C3931 C3923 1.503 . S
C3931 C3930 1.370 . S
C3931 C3932 1.403 . S
C3932 C3931 1.403 . S
C3932 C3933 1.404 . S
C3932 C3935 1.539 . S
C3933 C3929 1.408 . S
C3933 C3932 1.404 . S
C3933 H3945 0.930 . S
C3934 C3930 1.524 . S
C3934 H3946 0.956 . S
C3934 H3947 0.961 . S
C3934 H3948 0.961 . S
C3935 C3932 1.539 . S
C3935 H3949 0.958 . S
C3935 H3950 0.961 . S
C3935 H3951 0.960 . S
H3936 C3920 0.931 . S
H3937 C3925 0.929 . S
H3938 C3926 0.960 . S
H3939 C3926 0.962 . S
H3940 C3926 0.960 . S
H3941 C3927 0.961 . S
H3942 C3927 0.961 . S
H3943 C3927 0.961 . S
H3944 C3928 0.931 . S
H3945 C3933 0.930 . S
H3946 C3934 0.956 . S
H3947 C3934 0.961 . S
H3948 C3934 0.961 . S
H3949 C3935 0.958 . S
H3950 C3935 0.961 . S
H3951 C3935 0.960 . S
C3952 C3953 1.391 . S
C3952 C3954 1.394 . S
C3952 H3968 0.931 . S
C3953 C3952 1.391 . S
C3953 C3957 1.376 . S
C3954 C3952 1.394 . S
C3954 C3955 1.369 . S
C3954 C3958 1.531 . S
C3955 C3954 1.369 . S
C3955 C3956 1.410 . S
C3955 C3963 1.503 . S
C3956 C3955 1.410 . S
C3956 C3957 1.392 . S
C3956 C3959 1.511 . S
C3957 C3953 1.376 . S
C3957 C3956 1.392 . S
C3957 H3969 0.929 . S
C3958 C3954 1.531 . S
C3958 H3970 0.960 . S
C3958 H3971 0.962 . S
C3958 H3972 0.960 . S
C3959 C3956 1.511 . S
C3959 H3973 0.961 . S
C3959 H3974 0.961 . S
C3959 H3975 0.961 . S
C3960 C3961 1.370 . S
C3960 C3962 1.363 . S
C3960 H3976 0.931 . S
C3961 C3960 1.370 . S
C3961 C3965 1.408 . S
C3962 C3960 1.363 . S
C3962 C3963 1.370 . S
C3962 C3966 1.524 . S
C3963 C3955 1.503 . S
C3963 C3962 1.370 . S
C3963 C3964 1.403 . S
C3964 C3963 1.403 . S
C3964 C3965 1.404 . S
C3964 C3967 1.539 . S
C3965 C3961 1.408 . S
C3965 C3964 1.404 . S
C3965 H3977 0.930 . S
C3966 C3962 1.524 . S
C3966 H3978 0.956 . S
C3966 H3979 0.961 . S
C3966 H3980 0.961 . S
C3967 C3964 1.539 . S
C3967 H3981 0.958 . S
C3967 H3982 0.961 . S
C3967 H3983 0.960 . S
H3968 C3952 0.931 . S
H3969 C3957 0.929 . S
H3970 C3958 0.960 . S
H3971 C3958 0.962 . S
H3972 C3958 0.960 . S
H3973 C3959 0.961 . S
H3974 C3959 0.961 . S
H3975 C3959 0.961 . S
H3976 C3960 0.931 . S
H3977 C3965 0.930 . S
H3978 C3966 0.956 . S
H3979 C3966 0.961 . S
H3980 C3966 0.961 . S
H3981 C3967 0.958 . S
H3982 C3967 0.961 . S
H3983 C3967 0.960 . S
C3984 C3985 1.391 . S
C3984 C3986 1.394 . S
C3984 H4000 0.931 . S
C3985 C3984 1.391 . S
C3985 C3989 1.376 . S
C3986 C3984 1.394 . S
C3986 C3987 1.369 . S
C3986 C3990 1.531 . S
C3987 C3986 1.369 . S
C3987 C3988 1.410 . S
C3987 C3995 1.503 . S
C3988 C3987 1.410 . S
C3988 C3989 1.392 . S
C3988 C3991 1.511 . S
C3989 C3985 1.376 . S
C3989 C3988 1.392 . S
C3989 H4001 0.929 . S
C3990 C3986 1.531 . S
C3990 H4002 0.960 . S
C3990 H4003 0.962 . S
C3990 H4004 0.960 . S
C3991 C3988 1.511 . S
C3991 H4005 0.961 . S
C3991 H4006 0.961 . S
C3991 H4007 0.961 . S
C3992 C3993 1.370 . S
C3992 C3994 1.363 . S
C3992 H4008 0.931 . S
C3993 C3992 1.370 . S
C3993 C3997 1.408 . S
C3994 C3992 1.363 . S
C3994 C3995 1.370 . S
C3994 C3998 1.524 . S
C3995 C3987 1.503 . S
C3995 C3994 1.370 . S
C3995 C3996 1.403 . S
C3996 C3995 1.403 . S
C3996 C3997 1.404 . S
C3996 C3999 1.539 . S
C3997 C3993 1.408 . S
C3997 C3996 1.404 . S
C3997 H4009 0.930 . S
C3998 C3994 1.524 . S
C3998 H4010 0.956 . S
C3998 H4011 0.961 . S
C3998 H4012 0.961 . S
C3999 C3996 1.539 . S
C3999 H4013 0.958 . S
C3999 H4014 0.961 . S
C3999 H4015 0.960 . S
H4000 C3984 0.931 . S
H4001 C3989 0.929 . S
H4002 C3990 0.960 . S
H4003 C3990 0.962 . S
H4004 C3990 0.960 . S
H4005 C3991 0.961 . S
H4006 C3991 0.961 . S
H4007 C3991 0.961 . S
H4008 C3992 0.931 . S
H4009 C3997 0.930 . S
H4010 C3998 0.956 . S
H4011 C3998 0.961 . S
H4012 C3998 0.961 . S
H4013 C3999 0.958 . S
H4014 C3999 0.961 . S
H4015 C3999 0.960 . S
C4016 C4017 1.391 . S
C4016 C4018 1.394 . S
C4016 H4032 0.931 . S
C4017 C4016 1.391 . S
C4017 C4021 1.376 . S
C4018 C4016 1.394 . S
C4018 C4019 1.369 . S
C4018 C4022 1.531 . S
C4019 C4018 1.369 . S
C4019 C4020 1.410 . S
C4019 C4027 1.503 . S
C4020 C4019 1.410 . S
C4020 C4021 1.392 . S
C4020 C4023 1.511 . S
C4021 C4017 1.376 . S
C4021 C4020 1.392 . S
C4021 H4033 0.929 . S
C4022 C4018 1.531 . S
C4022 H4034 0.960 . S
C4022 H4035 0.962 . S
C4022 H4036 0.960 . S
C4023 C4020 1.511 . S
C4023 H4037 0.961 . S
C4023 H4038 0.961 . S
C4023 H4039 0.961 . S
C4024 C4025 1.370 . S
C4024 C4026 1.363 . S
C4024 H4040 0.931 . S
C4025 C4024 1.370 . S
C4025 C4029 1.408 . S
C4026 C4024 1.363 . S
C4026 C4027 1.370 . S
C4026 C4030 1.524 . S
C4027 C4019 1.503 . S
C4027 C4026 1.370 . S
C4027 C4028 1.403 . S
C4028 C4027 1.403 . S
C4028 C4029 1.404 . S
C4028 C4031 1.539 . S
C4029 C4025 1.408 . S
C4029 C4028 1.404 . S
C4029 H4041 0.930 . S
C4030 C4026 1.524 . S
C4030 H4042 0.956 . S
C4030 H4043 0.961 . S
C4030 H4044 0.961 . S
C4031 C4028 1.539 . S
C4031 H4045 0.958 . S
C4031 H4046 0.961 . S
C4031 H4047 0.960 . S
H4032 C4016 0.931 . S
H4033 C4021 0.929 . S
H4034 C4022 0.960 . S
H4035 C4022 0.962 . S
H4036 C4022 0.960 . S
H4037 C4023 0.961 . S
H4038 C4023 0.961 . S
H4039 C4023 0.961 . S
H4040 C4024 0.931 . S
H4041 C4029 0.930 . S
H4042 C4030 0.956 . S
H4043 C4030 0.961 . S
H4044 C4030 0.961 . S
H4045 C4031 0.958 . S
H4046 C4031 0.961 . S
H4047 C4031 0.960 . S
C4048 C4049 1.391 . S
C4048 C4050 1.394 . S
C4048 H4064 0.931 . S
C4049 C4048 1.391 . S
C4049 C4053 1.376 . S
C4050 C4048 1.394 . S
C4050 C4051 1.369 . S
C4050 C4054 1.531 . S
C4051 C4050 1.369 . S
C4051 C4052 1.410 . S
C4051 C4059 1.503 . S
C4052 C4051 1.410 . S
C4052 C4053 1.392 . S
C4052 C4055 1.511 . S
C4053 C4049 1.376 . S
C4053 C4052 1.392 . S
C4053 H4065 0.929 . S
C4054 C4050 1.531 . S
C4054 H4066 0.960 . S
C4054 H4067 0.962 . S
C4054 H4068 0.960 . S
C4055 C4052 1.511 . S
C4055 H4069 0.961 . S
C4055 H4070 0.961 . S
C4055 H4071 0.961 . S
C4056 C4057 1.370 . S
C4056 C4058 1.363 . S
C4056 H4072 0.931 . S
C4057 C4056 1.370 . S
C4057 C4061 1.408 . S
C4058 C4056 1.363 . S
C4058 C4059 1.370 . S
C4058 C4062 1.524 . S
C4059 C4051 1.503 . S
C4059 C4058 1.370 . S
C4059 C4060 1.403 . S
C4060 C4059 1.403 . S
C4060 C4061 1.404 . S
C4060 C4063 1.539 . S
C4061 C4057 1.408 . S
C4061 C4060 1.404 . S
C4061 H4073 0.930 . S
C4062 C4058 1.524 . S
C4062 H4074 0.956 . S
C4062 H4075 0.961 . S
C4062 H4076 0.961 . S
C4063 C4060 1.539 . S
C4063 H4077 0.958 . S
C4063 H4078 0.961 . S
C4063 H4079 0.960 . S
H4064 C4048 0.931 . S
H4065 C4053 0.929 . S
H4066 C4054 0.960 . S
H4067 C4054 0.962 . S
H4068 C4054 0.960 . S
H4069 C4055 0.961 . S
H4070 C4055 0.961 . S
H4071 C4055 0.961 . S
H4072 C4056 0.931 . S
H4073 C4061 0.930 . S
H4074 C4062 0.956 . S
H4075 C4062 0.961 . S
H4076 C4062 0.961 . S
H4077 C4063 0.958 . S
H4078 C4063 0.961 . S
H4079 C4063 0.960 . S
C4080 C4081 1.391 . S
C4080 C4082 1.394 . S
C4080 H4096 0.931 . S
C4081 C4080 1.391 . S
C4081 C4085 1.376 . S
C4082 C4080 1.394 . S
C4082 C4083 1.369 . S
C4082 C4086 1.531 . S
C4083 C4082 1.369 . S
C4083 C4084 1.410 . S
C4083 C4091 1.503 . S
C4084 C4083 1.410 . S
C4084 C4085 1.392 . S
C4084 C4087 1.511 . S
C4085 C4081 1.376 . S
C4085 C4084 1.392 . S
C4085 H4097 0.929 . S
C4086 C4082 1.531 . S
C4086 H4098 0.960 . S
C4086 H4099 0.962 . S
C4086 H4100 0.960 . S
C4087 C4084 1.511 . S
C4087 H4101 0.961 . S
C4087 H4102 0.961 . S
C4087 H4103 0.961 . S
C4088 C4089 1.370 . S
C4088 C4090 1.363 . S
C4088 H4104 0.931 . S
C4089 C4088 1.370 . S
C4089 C4093 1.408 . S
C4090 C4088 1.363 . S
C4090 C4091 1.370 . S
C4090 C4094 1.524 . S
C4091 C4083 1.503 . S
C4091 C4090 1.370 . S
C4091 C4092 1.403 . S
C4092 C4091 1.403 . S
C4092 C4093 1.404 . S
C4092 C4095 1.539 . S
C4093 C4089 1.408 . S
C4093 C4092 1.404 . S
C4093 H4105 0.930 . S
C4094 C4090 1.524 . S
C4094 H4106 0.956 . S
C4094 H4107 0.961 . S
C4094 H4108 0.961 . S
C4095 C4092 1.539 . S
C4095 H4109 0.958 . S
C4095 H4110 0.961 . S
C4095 H4111 0.960 . S
H4096 C4080 0.931 . S
H4097 C4085 0.929 . S
H4098 C4086 0.960 . S
H4099 C4086 0.962 . S
H4100 C4086 0.960 . S
H4101 C4087 0.961 . S
H4102 C4087 0.961 . S
H4103 C4087 0.961 . S
H4104 C4088 0.931 . S
H4105 C4093 0.930 . S
H4106 C4094 0.956 . S
H4107 C4094 0.961 . S
H4108 C4094 0.961 . S
H4109 C4095 0.958 . S
H4110 C4095 0.961 . S
H4111 C4095 0.960 . S
C4112 C4113 1.391 . S
C4112 C4114 1.394 . S
C4112 H4128 0.931 . S
C4113 C4112 1.391 . S
C4113 C4117 1.376 . S
C4114 C4112 1.394 . S
C4114 C4115 1.369 . S
C4114 C4118 1.531 . S
C4115 C4114 1.369 . S
C4115 C4116 1.410 . S
C4115 C4123 1.503 . S
C4116 C4115 1.410 . S
C4116 C4117 1.392 . S
C4116 C4119 1.511 . S
C4117 C4113 1.376 . S
C4117 C4116 1.392 . S
C4117 H4129 0.929 . S
C4118 C4114 1.531 . S
C4118 H4130 0.960 . S
C4118 H4131 0.962 . S
C4118 H4132 0.960 . S
C4119 C4116 1.511 . S
C4119 H4133 0.961 . S
C4119 H4134 0.961 . S
C4119 H4135 0.961 . S
C4120 C4121 1.370 . S
C4120 C4122 1.363 . S
C4120 H4136 0.931 . S
C4121 C4120 1.370 . S
C4121 C4125 1.408 . S
C4122 C4120 1.363 . S
C4122 C4123 1.370 . S
C4122 C4126 1.524 . S
C4123 C4115 1.503 . S
C4123 C4122 1.370 . S
C4123 C4124 1.403 . S
C4124 C4123 1.403 . S
C4124 C4125 1.404 . S
C4124 C4127 1.539 . S
C4125 C4121 1.408 . S
C4125 C4124 1.404 . S
C4125 H4137 0.930 . S
C4126 C4122 1.524 . S
C4126 H4138 0.956 . S
C4126 H4139 0.961 . S
C4126 H4140 0.961 . S
C4127 C4124 1.539 . S
C4127 H4141 0.958 . S
C4127 H4142 0.961 . S
C4127 H4143 0.960 . S
H4128 C4112 0.931 . S
H4129 C4117 0.929 . S
H4130 C4118 0.960 . S
H4131 C4118 0.962 . S
H4132 C4118 0.960 . S
H4133 C4119 0.961 . S
H4134 C4119 0.961 . S
H4135 C4119 0.961 . S
H4136 C4120 0.931 . S
H4137 C4125 0.930 . S
H4138 C4126 0.956 . S
H4139 C4126 0.961 . S
H4140 C4126 0.961 . S
H4141 C4127 0.958 . S
H4142 C4127 0.961 . S
H4143 C4127 0.960 . S
C4144 C4145 1.391 . S
C4144 C4146 1.394 . S
C4144 H4160 0.931 . S
C4145 C4144 1.391 . S
C4145 C4149 1.376 . S
C4146 C4144 1.394 . S
C4146 C4147 1.369 . S
C4146 C4150 1.531 . S
C4147 C4146 1.369 . S
C4147 C4148 1.410 . S
C4147 C4155 1.503 . S
C4148 C4147 1.410 . S
C4148 C4149 1.392 . S
C4148 C4151 1.511 . S
C4149 C4145 1.376 . S
C4149 C4148 1.392 . S
C4149 H4161 0.929 . S
C4150 C4146 1.531 . S
C4150 H4162 0.960 . S
C4150 H4163 0.962 . S
C4150 H4164 0.960 . S
C4151 C4148 1.511 . S
C4151 H4165 0.961 . S
C4151 H4166 0.961 . S
C4151 H4167 0.961 . S
C4152 C4153 1.370 . S
C4152 C4154 1.363 . S
C4152 H4168 0.931 . S
C4153 C4152 1.370 . S
C4153 C4157 1.408 . S
C4154 C4152 1.363 . S
C4154 C4155 1.370 . S
C4154 C4158 1.524 . S
C4155 C4147 1.503 . S
C4155 C4154 1.370 . S
C4155 C4156 1.403 . S
C4156 C4155 1.403 . S
C4156 C4157 1.404 . S
C4156 C4159 1.539 . S
C4157 C4153 1.408 . S
C4157 C4156 1.404 . S
C4157 H4169 0.930 . S
C4158 C4154 1.524 . S
C4158 H4170 0.956 . S
C4158 H4171 0.961 . S
C4158 H4172 0.961 . S
C4159 C4156 1.539 . S
C4159 H4173 0.958 . S
C4159 H4174 0.961 . S
C4159 H4175 0.960 . S
H4160 C4144 0.931 . S
H4161 C4149 0.929 . S
H4162 C4150 0.960 . S
H4163 C4150 0.962 . S
H4164 C4150 0.960 . S
H4165 C4151 0.961 . S
H4166 C4151 0.961 . S
H4167 C4151 0.961 . S
H4168 C4152 0.931 . S
H4169 C4157 0.930 . S
H4170 C4158 0.956 . S
H4171 C4158 0.961 . S
H4172 C4158 0.961 . S
H4173 C4159 0.958 . S
H4174 C4159 0.961 . S
H4175 C4159 0.960 . S
C4176 C4177 1.391 . S
C4176 C4178 1.394 . S
C4176 H4192 0.931 . S
C4177 C4176 1.391 . S
C4177 C4181 1.376 . S
C4178 C4176 1.394 . S
C4178 C4179 1.369 . S
C4178 C4182 1.531 . S
C4179 C4178 1.369 . S
C4179 C4180 1.410 . S
C4179 C4187 1.503 . S
C4180 C4179 1.410 . S
C4180 C4181 1.392 . S
C4180 C4183 1.511 . S
C4181 C4177 1.376 . S
C4181 C4180 1.392 . S
C4181 H4193 0.929 . S
C4182 C4178 1.531 . S
C4182 H4194 0.960 . S
C4182 H4195 0.962 . S
C4182 H4196 0.960 . S
C4183 C4180 1.511 . S
C4183 H4197 0.961 . S
C4183 H4198 0.961 . S
C4183 H4199 0.961 . S
C4184 C4185 1.370 . S
C4184 C4186 1.363 . S
C4184 H4200 0.931 . S
C4185 C4184 1.370 . S
C4185 C4189 1.408 . S
C4186 C4184 1.363 . S
C4186 C4187 1.370 . S
C4186 C4190 1.524 . S
C4187 C4179 1.503 . S
C4187 C4186 1.370 . S
C4187 C4188 1.403 . S
C4188 C4187 1.403 . S
C4188 C4189 1.404 . S
C4188 C4191 1.539 . S
C4189 C4185 1.408 . S
C4189 C4188 1.404 . S
C4189 H4201 0.930 . S
C4190 C4186 1.524 . S
C4190 H4202 0.956 . S
C4190 H4203 0.961 . S
C4190 H4204 0.961 . S
C4191 C4188 1.539 . S
C4191 H4205 0.958 . S
C4191 H4206 0.961 . S
C4191 H4207 0.960 . S
H4192 C4176 0.931 . S
H4193 C4181 0.929 . S
H4194 C4182 0.960 . S
H4195 C4182 0.962 . S
H4196 C4182 0.960 . S
H4197 C4183 0.961 . S
H4198 C4183 0.961 . S
H4199 C4183 0.961 . S
H4200 C4184 0.931 . S
H4201 C4189 0.930 . S
H4202 C4190 0.956 . S
H4203 C4190 0.961 . S
H4204 C4190 0.961 . S
H4205 C4191 0.958 . S
H4206 C4191 0.961 . S
H4207 C4191 0.960 . S
C4208 C4209 1.391 . S
C4208 C4210 1.394 . S
C4208 H4224 0.931 . S
C4209 C4208 1.391 . S
C4209 C4213 1.376 . S
C4210 C4208 1.394 . S
C4210 C4211 1.369 . S
C4210 C4214 1.531 . S
C4211 C4210 1.369 . S
C4211 C4212 1.410 . S
C4211 C4219 1.503 . S
C4212 C4211 1.410 . S
C4212 C4213 1.392 . S
C4212 C4215 1.511 . S
C4213 C4209 1.376 . S
C4213 C4212 1.392 . S
C4213 H4225 0.929 . S
C4214 C4210 1.531 . S
C4214 H4226 0.960 . S
C4214 H4227 0.962 . S
C4214 H4228 0.960 . S
C4215 C4212 1.511 . S
C4215 H4229 0.961 . S
C4215 H4230 0.961 . S
C4215 H4231 0.961 . S
C4216 C4217 1.370 . S
C4216 C4218 1.363 . S
C4216 H4232 0.931 . S
C4217 C4216 1.370 . S
C4217 C4221 1.408 . S
C4218 C4216 1.363 . S
C4218 C4219 1.370 . S
C4218 C4222 1.524 . S
C4219 C4211 1.503 . S
C4219 C4218 1.370 . S
C4219 C4220 1.403 . S
C4220 C4219 1.403 . S
C4220 C4221 1.404 . S
C4220 C4223 1.539 . S
C4221 C4217 1.408 . S
C4221 C4220 1.404 . S
C4221 H4233 0.930 . S
C4222 C4218 1.524 . S
C4222 H4234 0.956 . S
C4222 H4235 0.961 . S
C4222 H4236 0.961 . S
C4223 C4220 1.539 . S
C4223 H4237 0.958 . S
C4223 H4238 0.961 . S
C4223 H4239 0.960 . S
H4224 C4208 0.931 . S
H4225 C4213 0.929 . S
H4226 C4214 0.960 . S
H4227 C4214 0.962 . S
H4228 C4214 0.960 . S
H4229 C4215 0.961 . S
H4230 C4215 0.961 . S
H4231 C4215 0.961 . S
H4232 C4216 0.931 . S
H4233 C4221 0.930 . S
H4234 C4222 0.956 . S
H4235 C4222 0.961 . S
H4236 C4222 0.961 . S
H4237 C4223 0.958 . S
H4238 C4223 0.961 . S
H4239 C4223 0.960 . S
C4240 C4241 1.391 . S
C4240 C4242 1.394 . S
C4240 H4256 0.931 . S
C4241 C4240 1.391 . S
C4241 C4245 1.376 . S
C4242 C4240 1.394 . S
C4242 C4243 1.369 . S
C4242 C4246 1.531 . S
C4243 C4242 1.369 . S
C4243 C4244 1.410 . S
C4243 C4251 1.503 . S
C4244 C4243 1.410 . S
C4244 C4245 1.392 . S
C4244 C4247 1.511 . S
C4245 C4241 1.376 . S
C4245 C4244 1.392 . S
C4245 H4257 0.929 . S
C4246 C4242 1.531 . S
C4246 H4258 0.960 . S
C4246 H4259 0.962 . S
C4246 H4260 0.960 . S
C4247 C4244 1.511 . S
C4247 H4261 0.961 . S
C4247 H4262 0.961 . S
C4247 H4263 0.961 . S
C4248 C4249 1.370 . S
C4248 C4250 1.363 . S
C4248 H4264 0.931 . S
C4249 C4248 1.370 . S
C4249 C4253 1.408 . S
C4250 C4248 1.363 . S
C4250 C4251 1.370 . S
C4250 C4254 1.524 . S
C4251 C4243 1.503 . S
C4251 C4250 1.370 . S
C4251 C4252 1.403 . S
C4252 C4251 1.403 . S
C4252 C4253 1.404 . S
C4252 C4255 1.539 . S
C4253 C4249 1.408 . S
C4253 C4252 1.404 . S
C4253 H4265 0.930 . S
C4254 C4250 1.524 . S
C4254 H4266 0.956 . S
C4254 H4267 0.961 . S
C4254 H4268 0.961 . S
C4255 C4252 1.539 . S
C4255 H4269 0.958 . S
C4255 H4270 0.961 . S
C4255 H4271 0.960 . S
H4256 C4240 0.931 . S
H4257 C4245 0.929 . S
H4258 C4246 0.960 . S
H4259 C4246 0.962 . S
H4260 C4246 0.960 . S
H4261 C4247 0.961 . S
H4262 C4247 0.961 . S
H4263 C4247 0.961 . S
H4264 C4248 0.931 . S
H4265 C4253 0.930 . S
H4266 C4254 0.956 . S
H4267 C4254 0.961 . S
H4268 C4254 0.961 . S
H4269 C4255 0.958 . S
H4270 C4255 0.961 . S
H4271 C4255 0.960 . S
C4272 C4273 1.391 . S
C4272 C4274 1.394 . S
C4272 H4288 0.931 . S
C4273 C4272 1.391 . S
C4273 C4277 1.376 . S
C4274 C4272 1.394 . S
C4274 C4275 1.369 . S
C4274 C4278 1.531 . S
C4275 C4274 1.369 . S
C4275 C4276 1.410 . S
C4275 C4283 1.503 . S
C4276 C4275 1.410 . S
C4276 C4277 1.392 . S
C4276 C4279 1.511 . S
C4277 C4273 1.376 . S
C4277 C4276 1.392 . S
C4277 H4289 0.929 . S
C4278 C4274 1.531 . S
C4278 H4290 0.960 . S
C4278 H4291 0.962 . S
C4278 H4292 0.960 . S
C4279 C4276 1.511 . S
C4279 H4293 0.961 . S
C4279 H4294 0.961 . S
C4279 H4295 0.961 . S
C4280 C4281 1.370 . S
C4280 C4282 1.363 . S
C4280 H4296 0.931 . S
C4281 C4280 1.370 . S
C4281 C4285 1.408 . S
C4282 C4280 1.363 . S
C4282 C4283 1.370 . S
C4282 C4286 1.524 . S
C4283 C4275 1.503 . S
C4283 C4282 1.370 . S
C4283 C4284 1.403 . S
C4284 C4283 1.403 . S
C4284 C4285 1.404 . S
C4284 C4287 1.539 . S
C4285 C4281 1.408 . S
C4285 C4284 1.404 . S
C4285 H4297 0.930 . S
C4286 C4282 1.524 . S
C4286 H4298 0.956 . S
C4286 H4299 0.961 . S
C4286 H4300 0.961 . S
C4287 C4284 1.539 . S
C4287 H4301 0.958 . S
C4287 H4302 0.961 . S
C4287 H4303 0.960 . S
H4288 C4272 0.931 . S
H4289 C4277 0.929 . S
H4290 C4278 0.960 . S
H4291 C4278 0.962 . S
H4292 C4278 0.960 . S
H4293 C4279 0.961 . S
H4294 C4279 0.961 . S
H4295 C4279 0.961 . S
H4296 C4280 0.931 . S
H4297 C4285 0.930 . S
H4298 C4286 0.956 . S
H4299 C4286 0.961 . S
H4300 C4286 0.961 . S
H4301 C4287 0.958 . S
H4302 C4287 0.961 . S
H4303 C4287 0.960 . S
C4304 C4305 1.391 . S
C4304 C4306 1.394 . S
C4304 H4320 0.931 . S
C4305 C4304 1.391 . S
C4305 C4309 1.376 . S
C4306 C4304 1.394 . S
C4306 C4307 1.369 . S
C4306 C4310 1.531 . S
C4307 C4306 1.369 . S
C4307 C4308 1.410 . S
C4307 C4315 1.503 . S
C4308 C4307 1.410 . S
C4308 C4309 1.392 . S
C4308 C4311 1.511 . S
C4309 C4305 1.376 . S
C4309 C4308 1.392 . S
C4309 H4321 0.929 . S
C4310 C4306 1.531 . S
C4310 H4322 0.960 . S
C4310 H4323 0.962 . S
C4310 H4324 0.960 . S
C4311 C4308 1.511 . S
C4311 H4325 0.961 . S
C4311 H4326 0.961 . S
C4311 H4327 0.961 . S
C4312 C4313 1.370 . S
C4312 C4314 1.363 . S
C4312 H4328 0.931 . S
C4313 C4312 1.370 . S
C4313 C4317 1.408 . S
C4314 C4312 1.363 . S
C4314 C4315 1.370 . S
C4314 C4318 1.524 . S
C4315 C4307 1.503 . S
C4315 C4314 1.370 . S
C4315 C4316 1.403 . S
C4316 C4315 1.403 . S
C4316 C4317 1.404 . S
C4316 C4319 1.539 . S
C4317 C4313 1.408 . S
C4317 C4316 1.404 . S
C4317 H4329 0.930 . S
C4318 C4314 1.524 . S
C4318 H4330 0.956 . S
C4318 H4331 0.961 . S
C4318 H4332 0.961 . S
C4319 C4316 1.539 . S
C4319 H4333 0.958 . S
C4319 H4334 0.961 . S
C4319 H4335 0.960 . S
H4320 C4304 0.931 . S
H4321 C4309 0.929 . S
H4322 C4310 0.960 . S
H4323 C4310 0.962 . S
H4324 C4310 0.960 . S
H4325 C4311 0.961 . S
H4326 C4311 0.961 . S
H4327 C4311 0.961 . S
H4328 C4312 0.931 . S
H4329 C4317 0.930 . S
H4330 C4318 0.956 . S
H4331 C4318 0.961 . S
H4332 C4318 0.961 . S
H4333 C4319 0.958 . S
H4334 C4319 0.961 . S
H4335 C4319 0.960 . S
C4336 C4337 1.391 . S
C4336 C4338 1.394 . S
C4336 H4352 0.931 . S
C4337 C4336 1.391 . S
C4337 C4341 1.376 . S
C4338 C4336 1.394 . S
C4338 C4339 1.369 . S
C4338 C4342 1.531 . S
C4339 C4338 1.369 . S
C4339 C4340 1.410 . S
C4339 C4347 1.503 . S
C4340 C4339 1.410 . S
C4340 C4341 1.392 . S
C4340 C4343 1.511 . S
C4341 C4337 1.376 . S
C4341 C4340 1.392 . S
C4341 H4353 0.929 . S
C4342 C4338 1.531 . S
C4342 H4354 0.960 . S
C4342 H4355 0.962 . S
C4342 H4356 0.960 . S
C4343 C4340 1.511 . S
C4343 H4357 0.961 . S
C4343 H4358 0.961 . S
C4343 H4359 0.961 . S
C4344 C4345 1.370 . S
C4344 C4346 1.363 . S
C4344 H4360 0.931 . S
C4345 C4344 1.370 . S
C4345 C4349 1.408 . S
C4346 C4344 1.363 . S
C4346 C4347 1.370 . S
C4346 C4350 1.524 . S
C4347 C4339 1.503 . S
C4347 C4346 1.370 . S
C4347 C4348 1.403 . S
C4348 C4347 1.403 . S
C4348 C4349 1.404 . S
C4348 C4351 1.539 . S
C4349 C4345 1.408 . S
C4349 C4348 1.404 . S
C4349 H4361 0.930 . S
C4350 C4346 1.524 . S
C4350 H4362 0.956 . S
C4350 H4363 0.961 . S
C4350 H4364 0.961 . S
C4351 C4348 1.539 . S
C4351 H4365 0.958 . S
C4351 H4366 0.961 . S
C4351 H4367 0.960 . S
H4352 C4336 0.931 . S
H4353 C4341 0.929 . S
H4354 C4342 0.960 . S
H4355 C4342 0.962 . S
H4356 C4342 0.960 . S
H4357 C4343 0.961 . S
H4358 C4343 0.961 . S
H4359 C4343 0.961 . S
H4360 C4344 0.931 . S
H4361 C4349 0.930 . S
H4362 C4350 0.956 . S
H4363 C4350 0.961 . S
H4364 C4350 0.961 . S
H4365 C4351 0.958 . S
H4366 C4351 0.961 . S
H4367 C4351 0.960 . S
C4368 C4369 1.391 . S
C4368 C4370 1.394 . S
C4368 H4384 0.931 . S
C4369 C4368 1.391 . S
C4369 C4373 1.376 . S
C4370 C4368 1.394 . S
C4370 C4371 1.369 . S
C4370 C4374 1.531 . S
C4371 C4370 1.369 . S
C4371 C4372 1.410 . S
C4371 C4379 1.503 . S
C4372 C4371 1.410 . S
C4372 C4373 1.392 . S
C4372 C4375 1.511 . S
C4373 C4369 1.376 . S
C4373 C4372 1.392 . S
C4373 H4385 0.929 . S
C4374 C4370 1.531 . S
C4374 H4386 0.960 . S
C4374 H4387 0.962 . S
C4374 H4388 0.960 . S
C4375 C4372 1.511 . S
C4375 H4389 0.961 . S
C4375 H4390 0.961 . S
C4375 H4391 0.961 . S
C4376 C4377 1.370 . S
C4376 C4378 1.363 . S
C4376 H4392 0.931 . S
C4377 C4376 1.370 . S
C4377 C4381 1.408 . S
C4378 C4376 1.363 . S
C4378 C4379 1.370 . S
C4378 C4382 1.524 . S
C4379 C4371 1.503 . S
C4379 C4378 1.370 . S
C4379 C4380 1.403 . S
C4380 C4379 1.403 . S
C4380 C4381 1.404 . S
C4380 C4383 1.539 . S
C4381 C4377 1.408 . S
C4381 C4380 1.404 . S
C4381 H4393 0.930 . S
C4382 C4378 1.524 . S
C4382 H4394 0.956 . S
C4382 H4395 0.961 . S
C4382 H4396 0.961 . S
C4383 C4380 1.539 . S
C4383 H4397 0.958 . S
C4383 H4398 0.961 . S
C4383 H4399 0.960 . S
H4384 C4368 0.931 . S
H4385 C4373 0.929 . S
H4386 C4374 0.960 . S
H4387 C4374 0.962 . S
H4388 C4374 0.960 . S
H4389 C4375 0.961 . S
H4390 C4375 0.961 . S
H4391 C4375 0.961 . S
H4392 C4376 0.931 . S
H4393 C4381 0.930 . S
H4394 C4382 0.956 . S
H4395 C4382 0.961 . S
H4396 C4382 0.961 . S
H4397 C4383 0.958 . S
H4398 C4383 0.961 . S
H4399 C4383 0.960 . S
C4400 C4401 1.391 . S
C4400 C4402 1.394 . S
C4400 H4416 0.931 . S
C4401 C4400 1.391 . S
C4401 C4405 1.376 . S
C4402 C4400 1.394 . S
C4402 C4403 1.369 . S
C4402 C4406 1.531 . S
C4403 C4402 1.369 . S
C4403 C4404 1.410 . S
C4403 C4411 1.503 . S
C4404 C4403 1.410 . S
C4404 C4405 1.392 . S
C4404 C4407 1.511 . S
C4405 C4401 1.376 . S
C4405 C4404 1.392 . S
C4405 H4417 0.929 . S
C4406 C4402 1.531 . S
C4406 H4418 0.960 . S
C4406 H4419 0.962 . S
C4406 H4420 0.960 . S
C4407 C4404 1.511 . S
C4407 H4421 0.961 . S
C4407 H4422 0.961 . S
C4407 H4423 0.961 . S
C4408 C4409 1.370 . S
C4408 C4410 1.363 . S
C4408 H4424 0.931 . S
C4409 C4408 1.370 . S
C4409 C4413 1.408 . S
C4410 C4408 1.363 . S
C4410 C4411 1.370 . S
C4410 C4414 1.524 . S
C4411 C4403 1.503 . S
C4411 C4410 1.370 . S
C4411 C4412 1.403 . S
C4412 C4411 1.403 . S
C4412 C4413 1.404 . S
C4412 C4415 1.539 . S
C4413 C4409 1.408 . S
C4413 C4412 1.404 . S
C4413 H4425 0.930 . S
C4414 C4410 1.524 . S
C4414 H4426 0.956 . S
C4414 H4427 0.961 . S
C4414 H4428 0.961 . S
C4415 C4412 1.539 . S
C4415 H4429 0.958 . S
C4415 H4430 0.961 . S
C4415 H4431 0.960 . S
H4416 C4400 0.931 . S
H4417 C4405 0.929 . S
H4418 C4406 0.960 . S
H4419 C4406 0.962 . S
H4420 C4406 0.960 . S
H4421 C4407 0.961 . S
H4422 C4407 0.961 . S
H4423 C4407 0.961 . S
H4424 C4408 0.931 . S
H4425 C4413 0.930 . S
H4426 C4414 0.956 . S
H4427 C4414 0.961 . S
H4428 C4414 0.961 . S
H4429 C4415 0.958 . S
H4430 C4415 0.961 . S
H4431 C4415 0.960 . S
C4432 C4433 1.391 . S
C4432 C4434 1.394 . S
C4432 H4448 0.931 . S
C4433 C4432 1.391 . S
C4433 C4437 1.376 . S
C4434 C4432 1.394 . S
C4434 C4435 1.369 . S
C4434 C4438 1.531 . S
C4435 C4434 1.369 . S
C4435 C4436 1.410 . S
C4435 C4443 1.503 . S
C4436 C4435 1.410 . S
C4436 C4437 1.392 . S
C4436 C4439 1.511 . S
C4437 C4433 1.376 . S
C4437 C4436 1.392 . S
C4437 H4449 0.929 . S
C4438 C4434 1.531 . S
C4438 H4450 0.960 . S
C4438 H4451 0.962 . S
C4438 H4452 0.960 . S
C4439 C4436 1.511 . S
C4439 H4453 0.961 . S
C4439 H4454 0.961 . S
C4439 H4455 0.961 . S
C4440 C4441 1.370 . S
C4440 C4442 1.363 . S
C4440 H4456 0.931 . S
C4441 C4440 1.370 . S
C4441 C4445 1.408 . S
C4442 C4440 1.363 . S
C4442 C4443 1.370 . S
C4442 C4446 1.524 . S
C4443 C4435 1.503 . S
C4443 C4442 1.370 . S
C4443 C4444 1.403 . S
C4444 C4443 1.403 . S
C4444 C4445 1.404 . S
C4444 C4447 1.539 . S
C4445 C4441 1.408 . S
C4445 C4444 1.404 . S
C4445 H4457 0.930 . S
C4446 C4442 1.524 . S
C4446 H4458 0.956 . S
C4446 H4459 0.961 . S
C4446 H4460 0.961 . S
C4447 C4444 1.539 . S
C4447 H4461 0.958 . S
C4447 H4462 0.961 . S
C4447 H4463 0.960 . S
H4448 C4432 0.931 . S
H4449 C4437 0.929 . S
H4450 C4438 0.960 . S
H4451 C4438 0.962 . S
H4452 C4438 0.960 . S
H4453 C4439 0.961 . S
H4454 C4439 0.961 . S
H4455 C4439 0.961 . S
H4456 C4440 0.931 . S
H4457 C4445 0.930 . S
H4458 C4446 0.956 . S
H4459 C4446 0.961 . S
H4460 C4446 0.961 . S
H4461 C4447 0.958 . S
H4462 C4447 0.961 . S
H4463 C4447 0.960 . S
C4464 C4465 1.391 . S
C4464 C4466 1.394 . S
C4464 H4480 0.931 . S
C4465 C4464 1.391 . S
C4465 C4469 1.376 . S
C4466 C4464 1.394 . S
C4466 C4467 1.369 . S
C4466 C4470 1.531 . S
C4467 C4466 1.369 . S
C4467 C4468 1.410 . S
C4467 C4475 1.503 . S
C4468 C4467 1.410 . S
C4468 C4469 1.392 . S
C4468 C4471 1.511 . S
C4469 C4465 1.376 . S
C4469 C4468 1.392 . S
C4469 H4481 0.929 . S
C4470 C4466 1.531 . S
C4470 H4482 0.960 . S
C4470 H4483 0.962 . S
C4470 H4484 0.960 . S
C4471 C4468 1.511 . S
C4471 H4485 0.961 . S
C4471 H4486 0.961 . S
C4471 H4487 0.961 . S
C4472 C4473 1.370 . S
C4472 C4474 1.363 . S
C4472 H4488 0.931 . S
C4473 C4472 1.370 . S
C4473 C4477 1.408 . S
C4474 C4472 1.363 . S
C4474 C4475 1.370 . S
C4474 C4478 1.524 . S
C4475 C4467 1.503 . S
C4475 C4474 1.370 . S
C4475 C4476 1.403 . S
C4476 C4475 1.403 . S
C4476 C4477 1.404 . S
C4476 C4479 1.539 . S
C4477 C4473 1.408 . S
C4477 C4476 1.404 . S
C4477 H4489 0.930 . S
C4478 C4474 1.524 . S
C4478 H4490 0.956 . S
C4478 H4491 0.961 . S
C4478 H4492 0.961 . S
C4479 C4476 1.539 . S
C4479 H4493 0.958 . S
C4479 H4494 0.961 . S
C4479 H4495 0.960 . S
H4480 C4464 0.931 . S
H4481 C4469 0.929 . S
H4482 C4470 0.960 . S
H4483 C4470 0.962 . S
H4484 C4470 0.960 . S
H4485 C4471 0.961 . S
H4486 C4471 0.961 . S
H4487 C4471 0.961 . S
H4488 C4472 0.931 . S
H4489 C4477 0.930 . S
H4490 C4478 0.956 . S
H4491 C4478 0.961 . S
H4492 C4478 0.961 . S
H4493 C4479 0.958 . S
H4494 C4479 0.961 . S
H4495 C4479 0.960 . S
C4496 C4497 1.391 . S
C4496 C4498 1.394 . S
C4496 H4512 0.931 . S
C4497 C4496 1.391 . S
C4497 C4501 1.376 . S
C4498 C4496 1.394 . S
C4498 C4499 1.369 . S
C4498 C4502 1.531 . S
C4499 C4498 1.369 . S
C4499 C4500 1.410 . S
C4499 C4507 1.503 . S
C4500 C4499 1.410 . S
C4500 C4501 1.392 . S
C4500 C4503 1.511 . S
C4501 C4497 1.376 . S
C4501 C4500 1.392 . S
C4501 H4513 0.929 . S
C4502 C4498 1.531 . S
C4502 H4514 0.960 . S
C4502 H4515 0.962 . S
C4502 H4516 0.960 . S
C4503 C4500 1.511 . S
C4503 H4517 0.961 . S
C4503 H4518 0.961 . S
C4503 H4519 0.961 . S
C4504 C4505 1.370 . S
C4504 C4506 1.363 . S
C4504 H4520 0.931 . S
C4505 C4504 1.370 . S
C4505 C4509 1.408 . S
C4506 C4504 1.363 . S
C4506 C4507 1.370 . S
C4506 C4510 1.524 . S
C4507 C4499 1.503 . S
C4507 C4506 1.370 . S
C4507 C4508 1.403 . S
C4508 C4507 1.403 . S
C4508 C4509 1.404 . S
C4508 C4511 1.539 . S
C4509 C4505 1.408 . S
C4509 C4508 1.404 . S
C4509 H4521 0.930 . S
C4510 C4506 1.524 . S
C4510 H4522 0.956 . S
C4510 H4523 0.961 . S
C4510 H4524 0.961 . S
C4511 C4508 1.539 . S
C4511 H4525 0.958 . S
C4511 H4526 0.961 . S
C4511 H4527 0.960 . S
H4512 C4496 0.931 . S
H4513 C4501 0.929 . S
H4514 C4502 0.960 . S
H4515 C4502 0.962 . S
H4516 C4502 0.960 . S
H4517 C4503 0.961 . S
H4518 C4503 0.961 . S
H4519 C4503 0.961 . S
H4520 C4504 0.931 . S
H4521 C4509 0.930 . S
H4522 C4510 0.956 . S
H4523 C4510 0.961 . S
H4524 C4510 0.961 . S
H4525 C4511 0.958 . S
H4526 C4511 0.961 . S
H4527 C4511 0.960 . S
C4528 C4529 1.391 . S
C4528 C4530 1.394 . S
C4528 H4544 0.931 . S
C4529 C4528 1.391 . S
C4529 C4533 1.376 . S
C4530 C4528 1.394 . S
C4530 C4531 1.369 . S
C4530 C4534 1.531 . S
C4531 C4530 1.369 . S
C4531 C4532 1.410 . S
C4531 C4539 1.503 . S
C4532 C4531 1.410 . S
C4532 C4533 1.392 . S
C4532 C4535 1.511 . S
C4533 C4529 1.376 . S
C4533 C4532 1.392 . S
C4533 H4545 0.929 . S
C4534 C4530 1.531 . S
C4534 H4546 0.960 . S
C4534 H4547 0.962 . S
C4534 H4548 0.960 . S
C4535 C4532 1.511 . S
C4535 H4549 0.961 . S
C4535 H4550 0.961 . S
C4535 H4551 0.961 . S
C4536 C4537 1.370 . S
C4536 C4538 1.363 . S
C4536 H4552 0.931 . S
C4537 C4536 1.370 . S
C4537 C4541 1.408 . S
C4538 C4536 1.363 . S
C4538 C4539 1.370 . S
C4538 C4542 1.524 . S
C4539 C4531 1.503 . S
C4539 C4538 1.370 . S
C4539 C4540 1.403 . S
C4540 C4539 1.403 . S
C4540 C4541 1.404 . S
C4540 C4543 1.539 . S
C4541 C4537 1.408 . S
C4541 C4540 1.404 . S
C4541 H4553 0.930 . S
C4542 C4538 1.524 . S
C4542 H4554 0.956 . S
C4542 H4555 0.961 . S
C4542 H4556 0.961 . S
C4543 C4540 1.539 . S
C4543 H4557 0.958 . S
C4543 H4558 0.961 . S
C4543 H4559 0.960 . S
H4544 C4528 0.931 . S
H4545 C4533 0.929 . S
H4546 C4534 0.960 . S
H4547 C4534 0.962 . S
H4548 C4534 0.960 . S
H4549 C4535 0.961 . S
H4550 C4535 0.961 . S
H4551 C4535 0.961 . S
H4552 C4536 0.931 . S
H4553 C4541 0.930 . S
H4554 C4542 0.956 . S
H4555 C4542 0.961 . S
H4556 C4542 0.961 . S
H4557 C4543 0.958 . S
H4558 C4543 0.961 . S
H4559 C4543 0.960 . S
C4560 C4561 1.391 . S
C4560 C4562 1.394 . S
C4560 H4576 0.931 . S
C4561 C4560 1.391 . S
C4561 C4565 1.376 . S
C4562 C4560 1.394 . S
C4562 C4563 1.369 . S
C4562 C4566 1.531 . S
C4563 C4562 1.369 . S
C4563 C4564 1.410 . S
C4563 C4571 1.503 . S
C4564 C4563 1.410 . S
C4564 C4565 1.392 . S
C4564 C4567 1.511 . S
C4565 C4561 1.376 . S
C4565 C4564 1.392 . S
C4565 H4577 0.929 . S
C4566 C4562 1.531 . S
C4566 H4578 0.960 . S
C4566 H4579 0.962 . S
C4566 H4580 0.960 . S
C4567 C4564 1.511 . S
C4567 H4581 0.961 . S
C4567 H4582 0.961 . S
C4567 H4583 0.961 . S
C4568 C4569 1.370 . S
C4568 C4570 1.363 . S
C4568 H4584 0.931 . S
C4569 C4568 1.370 . S
C4569 C4573 1.408 . S
C4570 C4568 1.363 . S
C4570 C4571 1.370 . S
C4570 C4574 1.524 . S
C4571 C4563 1.503 . S
C4571 C4570 1.370 . S
C4571 C4572 1.403 . S
C4572 C4571 1.403 . S
C4572 C4573 1.404 . S
C4572 C4575 1.539 . S
C4573 C4569 1.408 . S
C4573 C4572 1.404 . S
C4573 H4585 0.930 . S
C4574 C4570 1.524 . S
C4574 H4586 0.956 . S
C4574 H4587 0.961 . S
C4574 H4588 0.961 . S
C4575 C4572 1.539 . S
C4575 H4589 0.958 . S
C4575 H4590 0.961 . S
C4575 H4591 0.960 . S
H4576 C4560 0.931 . S
H4577 C4565 0.929 . S
H4578 C4566 0.960 . S
H4579 C4566 0.962 . S
H4580 C4566 0.960 . S
H4581 C4567 0.961 . S
H4582 C4567 0.961 . S
H4583 C4567 0.961 . S
H4584 C4568 0.931 . S
H4585 C4573 0.930 . S
H4586 C4574 0.956 . S
H4587 C4574 0.961 . S
H4588 C4574 0.961 . S
H4589 C4575 0.958 . S
H4590 C4575 0.961 . S
H4591 C4575 0.960 . S
C4592 C4593 1.391 . S
C4592 C4594 1.394 . S
C4592 H4608 0.931 . S
C4593 C4592 1.391 . S
C4593 C4597 1.376 . S
C4594 C4592 1.394 . S
C4594 C4595 1.369 . S
C4594 C4598 1.531 . S
C4595 C4594 1.369 . S
C4595 C4596 1.410 . S
C4595 C4603 1.503 . S
C4596 C4595 1.410 . S
C4596 C4597 1.392 . S
C4596 C4599 1.511 . S
C4597 C4593 1.376 . S
C4597 C4596 1.392 . S
C4597 H4609 0.929 . S
C4598 C4594 1.531 . S
C4598 H4610 0.960 . S
C4598 H4611 0.962 . S
C4598 H4612 0.960 . S
C4599 C4596 1.511 . S
C4599 H4613 0.961 . S
C4599 H4614 0.961 . S
C4599 H4615 0.961 . S
C4600 C4601 1.370 . S
C4600 C4602 1.363 . S
C4600 H4616 0.931 . S
C4601 C4600 1.370 . S
C4601 C4605 1.408 . S
C4602 C4600 1.363 . S
C4602 C4603 1.370 . S
C4602 C4606 1.524 . S
C4603 C4595 1.503 . S
C4603 C4602 1.370 . S
C4603 C4604 1.403 . S
C4604 C4603 1.403 . S
C4604 C4605 1.404 . S
C4604 C4607 1.539 . S
C4605 C4601 1.408 . S
C4605 C4604 1.404 . S
C4605 H4617 0.930 1_556 S
C4606 C4602 1.524 . S
C4606 H4618 0.956 . S
C4606 H4619 0.961 . S
C4606 H4620 0.961 . S
C4607 C4604 1.539 . S
C4607 H4621 0.958 . S
C4607 H4622 0.926 1_556 S
C4607 H4623 0.960 . S
H4608 C4592 0.931 . S
H4609 C4597 0.929 . S
H4610 C4598 0.960 . S
H4611 C4598 0.962 . S
H4612 C4598 0.960 . S
H4613 C4599 0.961 . S
H4614 C4599 0.961 . S
H4615 C4599 0.961 . S
H4616 C4600 0.931 . S
H4617 C4605 0.930 1_554 S
H4618 C4606 0.956 . S
H4619 C4606 0.961 . S
H4620 C4606 0.961 . S
H4621 C4607 0.958 . S
H4622 C4607 0.926 1_554 S
H4623 C4607 0.960 . S
C4624 C4625 1.391 . S
C4624 C4626 1.394 . S
C4624 H4640 0.931 . S
C4625 C4624 1.391 . S
C4625 C4629 1.376 . S
C4626 C4624 1.394 . S
C4626 C4627 1.369 . S
C4626 C4630 1.531 . S
C4627 C4626 1.369 . S
C4627 C4628 1.410 . S
C4627 C4635 1.503 . S
C4628 C4627 1.410 . S
C4628 C4629 1.392 . S
C4628 C4631 1.511 . S
C4629 C4625 1.376 . S
C4629 C4628 1.392 . S
C4629 H4641 0.929 . S
C4630 C4626 1.531 . S
C4630 H4642 0.960 . S
C4630 H4643 0.962 . S
C4630 H4644 0.960 . S
C4631 C4628 1.511 . S
C4631 H4645 0.961 . S
C4631 H4646 0.961 . S
C4631 H4647 0.961 . S
C4632 C4633 1.370 . S
C4632 C4634 1.363 . S
C4632 H4648 0.931 . S
C4633 C4632 1.370 . S
C4633 C4637 1.408 . S
C4634 C4632 1.363 . S
C4634 C4635 1.370 . S
C4634 C4638 1.524 . S
C4635 C4627 1.503 . S
C4635 C4634 1.370 . S
C4635 C4636 1.403 . S
C4636 C4635 1.403 . S
C4636 C4637 1.404 . S
C4636 C4639 1.539 . S
C4637 C4633 1.408 . S
C4637 C4636 1.404 . S
C4637 H4649 0.930 . S
C4638 C4634 1.524 . S
C4638 H4650 0.956 . S
C4638 H4651 0.961 . S
C4638 H4652 0.961 . S
C4639 C4636 1.539 . S
C4639 H4653 0.958 . S
C4639 H4654 0.961 . S
C4639 H4655 0.960 . S
H4640 C4624 0.931 . S
H4641 C4629 0.929 . S
H4642 C4630 0.960 . S
H4643 C4630 0.962 . S
H4644 C4630 0.960 . S
H4645 C4631 0.961 . S
H4646 C4631 0.961 . S
H4647 C4631 0.961 . S
H4648 C4632 0.931 . S
H4649 C4637 0.930 . S
H4650 C4638 0.956 . S
H4651 C4638 0.961 . S
H4652 C4638 0.961 . S
H4653 C4639 0.958 . S
H4654 C4639 0.961 . S
H4655 C4639 0.960 . S
C4656 C4657 1.391 . S
C4656 C4658 1.394 . S
C4656 H4672 0.931 . S
C4657 C4656 1.391 . S
C4657 C4661 1.376 . S
C4658 C4656 1.394 . S
C4658 C4659 1.369 . S
C4658 C4662 1.531 . S
C4659 C4658 1.369 . S
C4659 C4660 1.410 . S
C4659 C4667 1.503 . S
C4660 C4659 1.410 . S
C4660 C4661 1.392 . S
C4660 C4663 1.511 . S
C4661 C4657 1.376 . S
C4661 C4660 1.392 . S
C4661 H4673 0.929 . S
C4662 C4658 1.531 . S
C4662 H4674 0.960 . S
C4662 H4675 0.962 . S
C4662 H4676 0.960 . S
C4663 C4660 1.511 . S
C4663 H4677 0.961 . S
C4663 H4678 0.961 . S
C4663 H4679 0.961 . S
C4664 C4665 1.370 . S
C4664 C4666 1.363 . S
C4664 H4680 0.931 . S
C4665 C4664 1.370 . S
C4665 C4669 1.408 . S
C4666 C4664 1.363 . S
C4666 C4667 1.370 . S
C4666 C4670 1.524 . S
C4667 C4659 1.503 . S
C4667 C4666 1.370 . S
C4667 C4668 1.403 . S
C4668 C4667 1.403 . S
C4668 C4669 1.404 . S
C4668 C4671 1.539 . S
C4669 C4665 1.408 . S
C4669 C4668 1.404 . S
C4669 H4681 0.930 . S
C4670 C4666 1.524 . S
C4670 H4682 0.956 . S
C4670 H4683 0.961 . S
C4670 H4684 0.961 . S
C4671 C4668 1.539 . S
C4671 H4685 0.958 . S
C4671 H4686 0.961 . S
C4671 H4687 0.960 . S
H4672 C4656 0.931 . S
H4673 C4661 0.929 . S
H4674 C4662 0.960 . S
H4675 C4662 0.962 . S
H4676 C4662 0.960 . S
H4677 C4663 0.961 . S
H4678 C4663 0.961 . S
H4679 C4663 0.961 . S
H4680 C4664 0.931 . S
H4681 C4669 0.930 . S
H4682 C4670 0.956 . S
H4683 C4670 0.961 . S
H4684 C4670 0.961 . S
H4685 C4671 0.958 . S
H4686 C4671 0.961 . S
H4687 C4671 0.960 . S
C4688 C4689 1.391 . S
C4688 C4690 1.394 . S
C4688 H4704 0.931 . S
C4689 C4688 1.391 . S
C4689 C4693 1.376 . S
C4690 C4688 1.394 . S
C4690 C4691 1.369 . S
C4690 C4694 1.531 . S
C4691 C4690 1.369 . S
C4691 C4692 1.410 . S
C4691 C4699 1.503 . S
C4692 C4691 1.410 . S
C4692 C4693 1.392 . S
C4692 C4695 1.511 . S
C4693 C4689 1.376 . S
C4693 C4692 1.392 . S
C4693 H4705 0.929 . S
C4694 C4690 1.531 . S
C4694 H4706 0.960 . S
C4694 H4707 0.962 . S
C4694 H4708 0.960 . S
C4695 C4692 1.511 . S
C4695 H4709 0.961 . S
C4695 H4710 0.961 . S
C4695 H4711 0.961 . S
C4696 C4697 1.370 . S
C4696 C4698 1.363 . S
C4696 H4712 0.931 . S
C4697 C4696 1.370 . S
C4697 C4701 1.408 . S
C4698 C4696 1.363 . S
C4698 C4699 1.370 . S
C4698 C4702 1.524 . S
C4699 C4691 1.503 . S
C4699 C4698 1.370 . S
C4699 C4700 1.403 . S
C4700 C4699 1.403 . S
C4700 C4701 1.404 . S
C4700 C4703 1.539 . S
C4701 C4697 1.408 . S
C4701 C4700 1.404 . S
C4701 H4713 0.930 . S
C4702 C4698 1.524 . S
C4702 H4714 0.956 . S
C4702 H4715 0.961 . S
C4702 H4716 0.961 . S
C4703 C4700 1.539 . S
C4703 H4717 0.958 . S
C4703 H4718 0.961 . S
C4703 H4719 0.960 . S
H4704 C4688 0.931 . S
H4705 C4693 0.929 . S
H4706 C4694 0.960 . S
H4707 C4694 0.962 . S
H4708 C4694 0.960 . S
H4709 C4695 0.961 . S
H4710 C4695 0.961 . S
H4711 C4695 0.961 . S
H4712 C4696 0.931 . S
H4713 C4701 0.930 . S
H4714 C4702 0.956 . S
H4715 C4702 0.961 . S
H4716 C4702 0.961 . S
H4717 C4703 0.958 . S
H4718 C4703 0.961 . S
H4719 C4703 0.960 . S
C4720 C4721 1.391 . S
C4720 C4722 1.394 . S
C4720 H4736 0.931 . S
C4721 C4720 1.391 . S
C4721 C4725 1.376 . S
C4722 C4720 1.394 . S
C4722 C4723 1.369 . S
C4722 C4726 1.531 . S
C4723 C4722 1.369 . S
C4723 C4724 1.410 . S
C4723 C4731 1.503 . S
C4724 C4723 1.410 . S
C4724 C4725 1.392 . S
C4724 C4727 1.511 . S
C4725 C4721 1.376 . S
C4725 C4724 1.392 . S
C4725 H4737 0.929 . S
C4726 C4722 1.531 . S
C4726 H4738 0.960 . S
C4726 H4739 0.962 . S
C4726 H4740 0.960 . S
C4727 C4724 1.511 . S
C4727 H4741 0.961 . S
C4727 H4742 0.961 . S
C4727 H4743 0.961 . S
C4728 C4729 1.370 . S
C4728 C4730 1.363 . S
C4728 H4744 0.931 . S
C4729 C4728 1.370 . S
C4729 C4733 1.408 . S
C4730 C4728 1.363 . S
C4730 C4731 1.370 . S
C4730 C4734 1.524 . S
C4731 C4723 1.503 . S
C4731 C4730 1.370 . S
C4731 C4732 1.403 . S
C4732 C4731 1.403 . S
C4732 C4733 1.404 . S
C4732 C4735 1.539 . S
C4733 C4729 1.408 . S
C4733 C4732 1.404 . S
C4733 H4745 0.930 . S
C4734 C4730 1.524 . S
C4734 H4746 0.956 . S
C4734 H4747 0.961 . S
C4734 H4748 0.961 . S
C4735 C4732 1.539 . S
C4735 H4749 0.958 . S
C4735 H4750 0.961 . S
C4735 H4751 0.960 . S
H4736 C4720 0.931 . S
H4737 C4725 0.929 . S
H4738 C4726 0.960 . S
H4739 C4726 0.962 . S
H4740 C4726 0.960 . S
H4741 C4727 0.961 . S
H4742 C4727 0.961 . S
H4743 C4727 0.961 . S
H4744 C4728 0.931 . S
H4745 C4733 0.930 . S
H4746 C4734 0.956 . S
H4747 C4734 0.961 . S
H4748 C4734 0.961 . S
H4749 C4735 0.958 . S
H4750 C4735 0.961 . S
H4751 C4735 0.960 . S
C4752 C4753 1.391 . S
C4752 C4754 1.394 . S
C4752 H4768 0.931 . S
C4753 C4752 1.391 . S
C4753 C4757 1.376 . S
C4754 C4752 1.394 . S
C4754 C4755 1.369 . S
C4754 C4758 1.531 . S
C4755 C4754 1.369 . S
C4755 C4756 1.410 . S
C4755 C4763 1.503 . S
C4756 C4755 1.410 . S
C4756 C4757 1.392 . S
C4756 C4759 1.511 . S
C4757 C4753 1.376 . S
C4757 C4756 1.392 . S
C4757 H4769 0.929 . S
C4758 C4754 1.531 . S
C4758 H4770 0.960 . S
C4758 H4771 0.962 . S
C4758 H4772 0.960 . S
C4759 C4756 1.511 . S
C4759 H4773 0.961 . S
C4759 H4774 0.961 . S
C4759 H4775 0.961 . S
C4760 C4761 1.370 . S
C4760 C4762 1.363 . S
C4760 H4776 0.931 . S
C4761 C4760 1.370 . S
C4761 C4765 1.408 . S
C4762 C4760 1.363 . S
C4762 C4763 1.370 . S
C4762 C4766 1.524 . S
C4763 C4755 1.503 . S
C4763 C4762 1.370 . S
C4763 C4764 1.403 . S
C4764 C4763 1.403 . S
C4764 C4765 1.404 . S
C4764 C4767 1.539 . S
C4765 C4761 1.408 . S
C4765 C4764 1.404 . S
C4765 H4777 0.930 . S
C4766 C4762 1.524 . S
C4766 H4778 0.956 . S
C4766 H4779 0.961 . S
C4766 H4780 0.961 . S
C4767 C4764 1.539 . S
C4767 H4781 0.958 . S
C4767 H4782 0.961 . S
C4767 H4783 0.960 . S
H4768 C4752 0.931 . S
H4769 C4757 0.929 . S
H4770 C4758 0.960 . S
H4771 C4758 0.962 . S
H4772 C4758 0.960 . S
H4773 C4759 0.961 . S
H4774 C4759 0.961 . S
H4775 C4759 0.961 . S
H4776 C4760 0.931 . S
H4777 C4765 0.930 . S
H4778 C4766 0.956 . S
H4779 C4766 0.961 . S
H4780 C4766 0.961 . S
H4781 C4767 0.958 . S
H4782 C4767 0.961 . S
H4783 C4767 0.960 . S
C4784 C4785 1.391 . S
C4784 C4786 1.394 . S
C4784 H4800 0.931 . S
C4785 C4784 1.391 . S
C4785 C4789 1.376 . S
C4786 C4784 1.394 . S
C4786 C4787 1.369 . S
C4786 C4790 1.531 . S
C4787 C4786 1.369 . S
C4787 C4788 1.410 . S
C4787 C4795 1.503 . S
C4788 C4787 1.410 . S
C4788 C4789 1.392 . S
C4788 C4791 1.511 . S
C4789 C4785 1.376 . S
C4789 C4788 1.392 . S
C4789 H4801 0.929 . S
C4790 C4786 1.531 . S
C4790 H4802 0.960 . S
C4790 H4803 0.962 . S
C4790 H4804 0.960 . S
C4791 C4788 1.511 . S
C4791 H4805 0.961 . S
C4791 H4806 0.961 . S
C4791 H4807 0.961 . S
C4792 C4793 1.370 . S
C4792 C4794 1.363 . S
C4792 H4808 0.931 . S
C4793 C4792 1.370 . S
C4793 C4797 1.408 . S
C4794 C4792 1.363 . S
C4794 C4795 1.370 . S
C4794 C4798 1.524 . S
C4795 C4787 1.503 . S
C4795 C4794 1.370 . S
C4795 C4796 1.403 . S
C4796 C4795 1.403 . S
C4796 C4797 1.404 . S
C4796 C4799 1.539 . S
C4797 C4793 1.408 . S
C4797 C4796 1.404 . S
C4797 H4809 0.930 . S
C4798 C4794 1.524 . S
C4798 H4810 0.956 . S
C4798 H4811 0.961 . S
C4798 H4812 0.961 . S
C4799 C4796 1.539 . S
C4799 H4813 0.958 . S
C4799 H4814 0.961 . S
C4799 H4815 0.960 . S
H4800 C4784 0.931 . S
H4801 C4789 0.929 . S
H4802 C4790 0.960 . S
H4803 C4790 0.962 . S
H4804 C4790 0.960 . S
H4805 C4791 0.961 . S
H4806 C4791 0.961 . S
H4807 C4791 0.961 . S
H4808 C4792 0.931 . S
H4809 C4797 0.930 . S
H4810 C4798 0.956 . S
H4811 C4798 0.961 . S
H4812 C4798 0.961 . S
H4813 C4799 0.958 . S
H4814 C4799 0.961 . S
H4815 C4799 0.960 . S
C4816 C4817 1.391 . S
C4816 C4818 1.394 . S
C4816 H4832 0.931 . S
C4817 C4816 1.391 . S
C4817 C4821 1.376 . S
C4818 C4816 1.394 . S
C4818 C4819 1.369 . S
C4818 C4822 1.531 . S
C4819 C4818 1.369 . S
C4819 C4820 1.410 . S
C4819 C4827 1.503 . S
C4820 C4819 1.410 . S
C4820 C4821 1.392 . S
C4820 C4823 1.511 . S
C4821 C4817 1.376 . S
C4821 C4820 1.392 . S
C4821 H4833 0.929 . S
C4822 C4818 1.531 . S
C4822 H4834 0.960 . S
C4822 H4835 0.962 . S
C4822 H4836 0.960 . S
C4823 C4820 1.511 . S
C4823 H4837 0.961 . S
C4823 H4838 0.961 . S
C4823 H4839 0.961 . S
C4824 C4825 1.370 . S
C4824 C4826 1.363 . S
C4824 H4840 0.931 . S
C4825 C4824 1.370 . S
C4825 C4829 1.408 . S
C4826 C4824 1.363 . S
C4826 C4827 1.370 . S
C4826 C4830 1.524 . S
C4827 C4819 1.503 . S
C4827 C4826 1.370 . S
C4827 C4828 1.403 . S
C4828 C4827 1.403 . S
C4828 C4829 1.404 . S
C4828 C4831 1.539 . S
C4829 C4825 1.408 . S
C4829 C4828 1.404 . S
C4829 H4841 0.930 . S
C4830 C4826 1.524 . S
C4830 H4842 0.956 . S
C4830 H4843 0.961 . S
C4830 H4844 0.961 . S
C4831 C4828 1.539 . S
C4831 H4845 0.958 . S
C4831 H4846 0.961 . S
C4831 H4847 0.960 . S
H4832 C4816 0.931 . S
H4833 C4821 0.929 . S
H4834 C4822 0.960 . S
H4835 C4822 0.962 . S
H4836 C4822 0.960 . S
H4837 C4823 0.961 . S
H4838 C4823 0.961 . S
H4839 C4823 0.961 . S
H4840 C4824 0.931 . S
H4841 C4829 0.930 . S
H4842 C4830 0.956 . S
H4843 C4830 0.961 . S
H4844 C4830 0.961 . S
H4845 C4831 0.958 . S
H4846 C4831 0.961 . S
H4847 C4831 0.960 . S
C4848 C4849 1.391 . S
C4848 C4850 1.394 . S
C4848 H4864 0.931 . S
C4849 C4848 1.391 . S
C4849 C4853 1.376 . S
C4850 C4848 1.394 . S
C4850 C4851 1.369 . S
C4850 C4854 1.531 . S
C4851 C4850 1.369 . S
C4851 C4852 1.410 . S
C4851 C4859 1.503 . S
C4852 C4851 1.410 . S
C4852 C4853 1.392 . S
C4852 C4855 1.511 . S
C4853 C4849 1.376 . S
C4853 C4852 1.392 . S
C4853 H4865 0.929 . S
C4854 C4850 1.531 . S
C4854 H4866 0.960 . S
C4854 H4867 0.962 . S
C4854 H4868 0.960 . S
C4855 C4852 1.511 . S
C4855 H4869 0.961 . S
C4855 H4870 0.961 . S
C4855 H4871 0.961 . S
C4856 C4857 1.370 . S
C4856 C4858 1.363 . S
C4856 H4872 0.931 . S
C4857 C4856 1.370 . S
C4857 C4861 1.408 . S
C4858 C4856 1.363 . S
C4858 C4859 1.370 . S
C4858 C4862 1.524 . S
C4859 C4851 1.503 . S
C4859 C4858 1.370 . S
C4859 C4860 1.403 . S
C4860 C4859 1.403 . S
C4860 C4861 1.404 . S
C4860 C4863 1.539 . S
C4861 C4857 1.408 . S
C4861 C4860 1.404 . S
C4861 H4873 0.930 . S
C4862 C4858 1.524 . S
C4862 H4874 0.956 . S
C4862 H4875 0.961 . S
C4862 H4876 0.961 . S
C4863 C4860 1.539 . S
C4863 H4877 0.958 . S
C4863 H4878 0.961 . S
C4863 H4879 0.960 . S
H4864 C4848 0.931 . S
H4865 C4853 0.929 . S
H4866 C4854 0.960 . S
H4867 C4854 0.962 . S
H4868 C4854 0.960 . S
H4869 C4855 0.961 . S
H4870 C4855 0.961 . S
H4871 C4855 0.961 . S
H4872 C4856 0.931 . S
H4873 C4861 0.930 . S
H4874 C4862 0.956 . S
H4875 C4862 0.961 . S
H4876 C4862 0.961 . S
H4877 C4863 0.958 . S
H4878 C4863 0.961 . S
H4879 C4863 0.960 . S
C4880 C4881 1.391 . S
C4880 C4882 1.394 . S
C4880 H4896 0.931 . S
C4881 C4880 1.391 . S
C4881 C4885 1.376 . S
C4882 C4880 1.394 . S
C4882 C4883 1.369 . S
C4882 C4886 1.531 . S
C4883 C4882 1.369 . S
C4883 C4884 1.410 . S
C4883 C4891 1.503 . S
C4884 C4883 1.410 . S
C4884 C4885 1.392 . S
C4884 C4887 1.511 . S
C4885 C4881 1.376 . S
C4885 C4884 1.392 . S
C4885 H4897 0.929 . S
C4886 C4882 1.531 . S
C4886 H4898 0.960 . S
C4886 H4899 0.962 . S
C4886 H4900 0.960 . S
C4887 C4884 1.511 . S
C4887 H4901 0.961 . S
C4887 H4902 0.961 . S
C4887 H4903 0.961 . S
C4888 C4889 1.370 . S
C4888 C4890 1.363 . S
C4888 H4904 0.931 . S
C4889 C4888 1.370 . S
C4889 C4893 1.408 . S
C4890 C4888 1.363 . S
C4890 C4891 1.370 . S
C4890 C4894 1.524 . S
C4891 C4883 1.503 . S
C4891 C4890 1.370 . S
C4891 C4892 1.403 . S
C4892 C4891 1.403 . S
C4892 C4893 1.404 . S
C4892 C4895 1.539 . S
C4893 C4889 1.408 . S
C4893 C4892 1.404 . S
C4893 H4905 0.930 . S
C4894 C4890 1.524 . S
C4894 H4906 0.956 . S
C4894 H4907 0.961 . S
C4894 H4908 0.961 . S
C4895 C4892 1.539 . S
C4895 H4909 0.958 . S
C4895 H4910 0.961 . S
C4895 H4911 0.960 . S
H4896 C4880 0.931 . S
H4897 C4885 0.929 . S
H4898 C4886 0.960 . S
H4899 C4886 0.962 . S
H4900 C4886 0.960 . S
H4901 C4887 0.961 . S
H4902 C4887 0.961 . S
H4903 C4887 0.961 . S
H4904 C4888 0.931 . S
H4905 C4893 0.930 . S
H4906 C4894 0.956 . S
H4907 C4894 0.961 . S
H4908 C4894 0.961 . S
H4909 C4895 0.958 . S
H4910 C4895 0.961 . S
H4911 C4895 0.960 . S
C4912 C4913 1.391 . S
C4912 C4914 1.394 . S
C4912 H4928 0.931 . S
C4913 C4912 1.391 . S
C4913 C4917 1.376 . S
C4914 C4912 1.394 . S
C4914 C4915 1.369 . S
C4914 C4918 1.531 . S
C4915 C4914 1.369 . S
C4915 C4916 1.410 . S
C4915 C4923 1.503 . S
C4916 C4915 1.410 . S
C4916 C4917 1.392 . S
C4916 C4919 1.511 . S
C4917 C4913 1.376 . S
C4917 C4916 1.392 . S
C4917 H4929 0.929 . S
C4918 C4914 1.531 . S
C4918 H4930 0.960 . S
C4918 H4931 0.962 . S
C4918 H4932 0.960 . S
C4919 C4916 1.511 . S
C4919 H4933 0.961 . S
C4919 H4934 0.961 . S
C4919 H4935 0.961 . S
C4920 C4921 1.370 . S
C4920 C4922 1.363 . S
C4920 H4936 0.931 . S
C4921 C4920 1.370 . S
C4921 C4925 1.408 . S
C4922 C4920 1.363 . S
C4922 C4923 1.370 . S
C4922 C4926 1.524 . S
C4923 C4915 1.503 . S
C4923 C4922 1.370 . S
C4923 C4924 1.403 . S
C4924 C4923 1.403 . S
C4924 C4925 1.404 . S
C4924 C4927 1.539 . S
C4925 C4921 1.408 . S
C4925 C4924 1.404 . S
C4925 H4937 0.930 . S
C4926 C4922 1.524 . S
C4926 H4938 0.956 . S
C4926 H4939 0.961 . S
C4926 H4940 0.961 . S
C4927 C4924 1.539 . S
C4927 H4941 0.958 . S
C4927 H4942 0.961 . S
C4927 H4943 0.960 . S
H4928 C4912 0.931 . S
H4929 C4917 0.929 . S
H4930 C4918 0.960 . S
H4931 C4918 0.962 . S
H4932 C4918 0.960 . S
H4933 C4919 0.961 . S
H4934 C4919 0.961 . S
H4935 C4919 0.961 . S
H4936 C4920 0.931 . S
H4937 C4925 0.930 . S
H4938 C4926 0.956 . S
H4939 C4926 0.961 . S
H4940 C4926 0.961 . S
H4941 C4927 0.958 . S
H4942 C4927 0.961 . S
H4943 C4927 0.960 . S
C4944 C4945 1.391 . S
C4944 C4946 1.394 . S
C4944 H4960 0.931 . S
C4945 C4944 1.391 . S
C4945 C4949 1.376 . S
C4946 C4944 1.394 . S
C4946 C4947 1.369 . S
C4946 C4950 1.531 . S
C4947 C4946 1.369 . S
C4947 C4948 1.410 . S
C4947 C4955 1.503 . S
C4948 C4947 1.410 . S
C4948 C4949 1.392 . S
C4948 C4951 1.511 . S
C4949 C4945 1.376 . S
C4949 C4948 1.392 . S
C4949 H4961 0.929 . S
C4950 C4946 1.531 . S
C4950 H4962 0.960 . S
C4950 H4963 0.962 . S
C4950 H4964 0.960 . S
C4951 C4948 1.511 . S
C4951 H4965 0.961 . S
C4951 H4966 0.961 . S
C4951 H4967 0.961 . S
C4952 C4953 1.370 . S
C4952 C4954 1.363 . S
C4952 H4968 0.931 . S
C4953 C4952 1.370 . S
C4953 C4957 1.408 . S
C4954 C4952 1.363 . S
C4954 C4955 1.370 . S
C4954 C4958 1.524 . S
C4955 C4947 1.503 . S
C4955 C4954 1.370 . S
C4955 C4956 1.403 . S
C4956 C4955 1.403 . S
C4956 C4957 1.404 . S
C4956 C4959 1.539 . S
C4957 C4953 1.408 . S
C4957 C4956 1.404 . S
C4957 H4969 0.930 . S
C4958 C4954 1.524 . S
C4958 H4970 0.956 . S
C4958 H4971 0.961 . S
C4958 H4972 0.961 . S
C4959 C4956 1.539 . S
C4959 H4973 0.958 . S
C4959 H4974 0.961 . S
C4959 H4975 0.960 . S
H4960 C4944 0.931 . S
H4961 C4949 0.929 . S
H4962 C4950 0.960 . S
H4963 C4950 0.962 . S
H4964 C4950 0.960 . S
H4965 C4951 0.961 . S
H4966 C4951 0.961 . S
H4967 C4951 0.961 . S
H4968 C4952 0.931 . S
H4969 C4957 0.930 . S
H4970 C4958 0.956 . S
H4971 C4958 0.961 . S
H4972 C4958 0.961 . S
H4973 C4959 0.958 . S
H4974 C4959 0.961 . S
H4975 C4959 0.960 . S
C4976 C4977 1.391 . S
C4976 C4978 1.394 . S
C4976 H4992 0.931 . S
C4977 C4976 1.391 . S
C4977 C4981 1.376 . S
C4978 C4976 1.394 . S
C4978 C4979 1.369 . S
C4978 C4982 1.531 . S
C4979 C4978 1.369 . S
C4979 C4980 1.410 . S
C4979 C4987 1.503 . S
C4980 C4979 1.410 . S
C4980 C4981 1.392 . S
C4980 C4983 1.511 . S
C4981 C4977 1.376 . S
C4981 C4980 1.392 . S
C4981 H4993 0.929 . S
C4982 C4978 1.531 . S
C4982 H4994 0.960 . S
C4982 H4995 0.962 . S
C4982 H4996 0.960 . S
C4983 C4980 1.511 . S
C4983 H4997 0.961 . S
C4983 H4998 0.961 . S
C4983 H4999 0.961 . S
C4984 C4985 1.370 . S
C4984 C4986 1.363 . S
C4984 H5000 0.931 . S
C4985 C4984 1.370 . S
C4985 C4989 1.408 . S
C4986 C4984 1.363 . S
C4986 C4987 1.370 . S
C4986 C4990 1.524 . S
C4987 C4979 1.503 . S
C4987 C4986 1.370 . S
C4987 C4988 1.403 . S
C4988 C4987 1.403 . S
C4988 C4989 1.404 . S
C4988 C4991 1.539 . S
C4989 C4985 1.408 . S
C4989 C4988 1.404 . S
C4989 H5001 0.930 . S
C4990 C4986 1.524 . S
C4990 H5002 0.956 . S
C4990 H5003 0.961 . S
C4990 H5004 0.961 . S
C4991 C4988 1.539 . S
C4991 H5005 0.958 . S
C4991 H5006 0.961 . S
C4991 H5007 0.960 . S
H4992 C4976 0.931 . S
H4993 C4981 0.929 . S
H4994 C4982 0.960 . S
H4995 C4982 0.962 . S
H4996 C4982 0.960 . S
H4997 C4983 0.961 . S
H4998 C4983 0.961 . S
H4999 C4983 0.961 . S
H5000 C4984 0.931 . S
H5001 C4989 0.930 . S
H5002 C4990 0.956 . S
H5003 C4990 0.961 . S
H5004 C4990 0.961 . S
H5005 C4991 0.958 . S
H5006 C4991 0.961 . S
H5007 C4991 0.960 . S
C5008 C5009 1.391 . S
C5008 C5010 1.394 . S
C5008 H5024 0.931 . S
C5009 C5008 1.391 . S
C5009 C5013 1.376 . S
C5010 C5008 1.394 . S
C5010 C5011 1.369 . S
C5010 C5014 1.531 . S
C5011 C5010 1.369 . S
C5011 C5012 1.410 . S
C5011 C5019 1.503 . S
C5012 C5011 1.410 . S
C5012 C5013 1.392 . S
C5012 C5015 1.511 . S
C5013 C5009 1.376 . S
C5013 C5012 1.392 . S
C5013 H5025 0.929 . S
C5014 C5010 1.531 . S
C5014 H5026 0.960 . S
C5014 H5027 0.962 . S
C5014 H5028 0.960 . S
C5015 C5012 1.511 . S
C5015 H5029 0.961 . S
C5015 H5030 0.961 . S
C5015 H5031 0.961 . S
C5016 C5017 1.370 . S
C5016 C5018 1.363 . S
C5016 H5032 0.931 . S
C5017 C5016 1.370 . S
C5017 C5021 1.408 . S
C5018 C5016 1.363 . S
C5018 C5019 1.370 . S
C5018 C5022 1.524 . S
C5019 C5011 1.503 . S
C5019 C5018 1.370 . S
C5019 C5020 1.403 . S
C5020 C5019 1.403 . S
C5020 C5021 1.404 . S
C5020 C5023 1.539 . S
C5021 C5017 1.408 . S
C5021 C5020 1.404 . S
C5021 H5033 0.930 . S
C5022 C5018 1.524 . S
C5022 H5034 0.956 . S
C5022 H5035 0.961 . S
C5022 H5036 0.961 . S
C5023 C5020 1.539 . S
C5023 H5037 0.958 . S
C5023 H5038 0.961 . S
C5023 H5039 0.960 . S
H5024 C5008 0.931 . S
H5025 C5013 0.929 . S
H5026 C5014 0.960 . S
H5027 C5014 0.962 . S
H5028 C5014 0.960 . S
H5029 C5015 0.961 . S
H5030 C5015 0.961 . S
H5031 C5015 0.961 . S
H5032 C5016 0.931 . S
H5033 C5021 0.930 . S
H5034 C5022 0.956 . S
H5035 C5022 0.961 . S
H5036 C5022 0.961 . S
H5037 C5023 0.958 . S
H5038 C5023 0.961 . S
H5039 C5023 0.960 . S
C5040 C5041 1.391 . S
C5040 C5042 1.394 . S
C5040 H5056 0.931 . S
C5041 C5040 1.391 . S
C5041 C5045 1.376 . S
C5042 C5040 1.394 . S
C5042 C5043 1.369 . S
C5042 C5046 1.531 . S
C5043 C5042 1.369 . S
C5043 C5044 1.410 . S
C5043 C5051 1.503 . S
C5044 C5043 1.410 . S
C5044 C5045 1.392 . S
C5044 C5047 1.511 . S
C5045 C5041 1.376 . S
C5045 C5044 1.392 . S
C5045 H5057 0.929 . S
C5046 C5042 1.531 . S
C5046 H5058 0.960 . S
C5046 H5059 0.962 . S
C5046 H5060 0.960 . S
C5047 C5044 1.511 . S
C5047 H5061 0.961 . S
C5047 H5062 0.961 . S
C5047 H5063 0.961 . S
C5048 C5049 1.370 . S
C5048 C5050 1.363 . S
C5048 H5064 0.931 . S
C5049 C5048 1.370 . S
C5049 C5053 1.408 . S
C5050 C5048 1.363 . S
C5050 C5051 1.370 . S
C5050 C5054 1.524 . S
C5051 C5043 1.503 . S
C5051 C5050 1.370 . S
C5051 C5052 1.403 . S
C5052 C5051 1.403 . S
C5052 C5053 1.404 . S
C5052 C5055 1.539 . S
C5053 C5049 1.408 . S
C5053 C5052 1.404 . S
C5053 H5065 0.930 . S
C5054 C5050 1.524 . S
C5054 H5066 0.956 . S
C5054 H5067 0.961 . S
C5054 H5068 0.961 . S
C5055 C5052 1.539 . S
C5055 H5069 0.958 . S
C5055 H5070 0.961 . S
C5055 H5071 0.960 . S
H5056 C5040 0.931 . S
H5057 C5045 0.929 . S
H5058 C5046 0.960 . S
H5059 C5046 0.962 . S
H5060 C5046 0.960 . S
H5061 C5047 0.961 . S
H5062 C5047 0.961 . S
H5063 C5047 0.961 . S
H5064 C5048 0.931 . S
H5065 C5053 0.930 . S
H5066 C5054 0.956 . S
H5067 C5054 0.961 . S
H5068 C5054 0.961 . S
H5069 C5055 0.958 . S
H5070 C5055 0.961 . S
H5071 C5055 0.960 . S
C5072 C5073 1.391 . S
C5072 C5074 1.394 . S
C5072 H5088 0.931 . S
C5073 C5072 1.391 . S
C5073 C5077 1.376 . S
C5074 C5072 1.394 . S
C5074 C5075 1.369 . S
C5074 C5078 1.531 . S
C5075 C5074 1.369 . S
C5075 C5076 1.410 . S
C5075 C5083 1.503 . S
C5076 C5075 1.410 . S
C5076 C5077 1.392 . S
C5076 C5079 1.511 . S
C5077 C5073 1.376 . S
C5077 C5076 1.392 . S
C5077 H5089 0.929 . S
C5078 C5074 1.531 . S
C5078 H5090 0.960 . S
C5078 H5091 0.962 . S
C5078 H5092 0.960 . S
C5079 C5076 1.511 . S
C5079 H5093 0.961 . S
C5079 H5094 0.961 . S
C5079 H5095 0.961 . S
C5080 C5081 1.370 . S
C5080 C5082 1.363 . S
C5080 H5096 0.931 . S
C5081 C5080 1.370 . S
C5081 C5085 1.408 . S
C5082 C5080 1.363 . S
C5082 C5083 1.370 . S
C5082 C5086 1.524 . S
C5083 C5075 1.503 . S
C5083 C5082 1.370 . S
C5083 C5084 1.403 . S
C5084 C5083 1.403 . S
C5084 C5085 1.404 . S
C5084 C5087 1.539 . S
C5085 C5081 1.408 . S
C5085 C5084 1.404 . S
C5085 H5097 0.930 . S
C5086 C5082 1.524 . S
C5086 H5098 0.956 . S
C5086 H5099 0.961 . S
C5086 H5100 0.961 . S
C5087 C5084 1.539 . S
C5087 H5101 0.958 . S
C5087 H5102 0.961 . S
C5087 H5103 0.960 . S
H5088 C5072 0.931 . S
H5089 C5077 0.929 . S
H5090 C5078 0.960 . S
H5091 C5078 0.962 . S
H5092 C5078 0.960 . S
H5093 C5079 0.961 . S
H5094 C5079 0.961 . S
H5095 C5079 0.961 . S
H5096 C5080 0.931 . S
H5097 C5085 0.930 . S
H5098 C5086 0.956 . S
H5099 C5086 0.961 . S
H5100 C5086 0.961 . S
H5101 C5087 0.958 . S
H5102 C5087 0.961 . S
H5103 C5087 0.960 . S
C5104 C5105 1.391 . S
C5104 C5106 1.394 . S
C5104 H5120 0.931 . S
C5105 C5104 1.391 . S
C5105 C5109 1.376 . S
C5106 C5104 1.394 . S
C5106 C5107 1.369 . S
C5106 C5110 1.531 . S
C5107 C5106 1.369 . S
C5107 C5108 1.410 . S
C5107 C5115 1.503 . S
C5108 C5107 1.410 . S
C5108 C5109 1.392 . S
C5108 C5111 1.511 . S
C5109 C5105 1.376 . S
C5109 C5108 1.392 . S
C5109 H5121 0.929 . S
C5110 C5106 1.531 . S
C5110 H5122 0.960 . S
C5110 H5123 0.962 . S
C5110 H5124 0.960 . S
C5111 C5108 1.511 . S
C5111 H5125 0.961 . S
C5111 H5126 0.961 . S
C5111 H5127 0.961 . S
C5112 C5113 1.370 . S
C5112 C5114 1.363 . S
C5112 H5128 0.931 . S
C5113 C5112 1.370 . S
C5113 C5117 1.408 . S
C5114 C5112 1.363 . S
C5114 C5115 1.370 . S
C5114 C5118 1.524 . S
C5115 C5107 1.503 . S
C5115 C5114 1.370 . S
C5115 C5116 1.403 . S
C5116 C5115 1.403 . S
C5116 C5117 1.404 . S
C5116 C5119 1.539 . S
C5117 C5113 1.408 . S
C5117 C5116 1.404 . S
C5117 H5129 0.930 . S
C5118 C5114 1.524 . S
C5118 H5130 0.956 . S
C5118 H5131 0.961 . S
C5118 H5132 0.961 . S
C5119 C5116 1.539 . S
C5119 H5133 0.958 . S
C5119 H5134 0.961 . S
C5119 H5135 0.960 . S
H5120 C5104 0.931 . S
H5121 C5109 0.929 . S
H5122 C5110 0.960 . S
H5123 C5110 0.962 . S
H5124 C5110 0.960 . S
H5125 C5111 0.961 . S
H5126 C5111 0.961 . S
H5127 C5111 0.961 . S
H5128 C5112 0.931 . S
H5129 C5117 0.930 . S
H5130 C5118 0.956 . S
H5131 C5118 0.961 . S
H5132 C5118 0.961 . S
H5133 C5119 0.958 . S
H5134 C5119 0.961 . S
H5135 C5119 0.960 . S
C5136 C5137 1.391 . S
C5136 C5138 1.394 . S
C5136 H5152 0.931 . S
C5137 C5136 1.391 . S
C5137 C5141 1.376 . S
C5138 C5136 1.394 . S
C5138 C5139 1.369 . S
C5138 C5142 1.531 . S
C5139 C5138 1.369 . S
C5139 C5140 1.410 . S
C5139 C5147 1.503 . S
C5140 C5139 1.410 . S
C5140 C5141 1.392 . S
C5140 C5143 1.511 . S
C5141 C5137 1.376 . S
C5141 C5140 1.392 . S
C5141 H5153 0.929 . S
C5142 C5138 1.531 . S
C5142 H5154 0.960 . S
C5142 H5155 0.962 . S
C5142 H5156 0.960 . S
C5143 C5140 1.511 . S
C5143 H5157 0.961 . S
C5143 H5158 0.961 . S
C5143 H5159 0.961 . S
C5144 C5145 1.370 . S
C5144 C5146 1.363 . S
C5144 H5160 0.931 . S
C5145 C5144 1.370 . S
C5145 C5149 1.408 . S
C5146 C5144 1.363 . S
C5146 C5147 1.370 . S
C5146 C5150 1.524 . S
C5147 C5139 1.503 . S
C5147 C5146 1.370 . S
C5147 C5148 1.403 . S
C5148 C5147 1.403 . S
C5148 C5149 1.404 . S
C5148 C5151 1.539 . S
C5149 C5145 1.408 . S
C5149 C5148 1.404 . S
C5149 H5161 0.930 . S
C5150 C5146 1.524 . S
C5150 H5162 0.956 . S
C5150 H5163 0.961 . S
C5150 H5164 0.961 . S
C5151 C5148 1.539 . S
C5151 H5165 0.958 . S
C5151 H5166 0.961 . S
C5151 H5167 0.960 . S
H5152 C5136 0.931 . S
H5153 C5141 0.929 . S
H5154 C5142 0.960 . S
H5155 C5142 0.962 . S
H5156 C5142 0.960 . S
H5157 C5143 0.961 . S
H5158 C5143 0.961 . S
H5159 C5143 0.961 . S
H5160 C5144 0.931 . S
H5161 C5149 0.930 . S
H5162 C5150 0.956 . S
H5163 C5150 0.961 . S
H5164 C5150 0.961 . S
H5165 C5151 0.958 . S
H5166 C5151 0.961 . S
H5167 C5151 0.960 . S
C5168 C5169 1.391 . S
C5168 C5170 1.394 . S
C5168 H5184 0.931 . S
C5169 C5168 1.391 . S
C5169 C5173 1.376 . S
C5170 C5168 1.394 . S
C5170 C5171 1.369 . S
C5170 C5174 1.531 . S
C5171 C5170 1.369 . S
C5171 C5172 1.410 . S
C5171 C5179 1.503 . S
C5172 C5171 1.410 . S
C5172 C5173 1.392 . S
C5172 C5175 1.511 . S
C5173 C5169 1.376 . S
C5173 C5172 1.392 . S
C5173 H5185 0.929 . S
C5174 C5170 1.531 . S
C5174 H5186 0.960 . S
C5174 H5187 0.962 . S
C5174 H5188 0.960 . S
C5175 C5172 1.511 . S
C5175 H5189 0.961 . S
C5175 H5190 0.961 . S
C5175 H5191 0.961 . S
C5176 C5177 1.370 . S
C5176 C5178 1.363 . S
C5176 H5192 0.931 . S
C5177 C5176 1.370 . S
C5177 C5181 1.408 . S
C5178 C5176 1.363 . S
C5178 C5179 1.370 . S
C5178 C5182 1.524 . S
C5179 C5171 1.503 . S
C5179 C5178 1.370 . S
C5179 C5180 1.403 . S
C5180 C5179 1.403 . S
C5180 C5181 1.404 . S
C5180 C5183 1.539 . S
C5181 C5177 1.408 . S
C5181 C5180 1.404 . S
C5181 H5193 0.930 . S
C5182 C5178 1.524 . S
C5182 H5194 0.956 . S
C5182 H5195 0.961 . S
C5182 H5196 0.961 . S
C5183 C5180 1.539 . S
C5183 H5197 0.958 . S
C5183 H5198 0.961 . S
C5183 H5199 0.960 . S
H5184 C5168 0.931 . S
H5185 C5173 0.929 . S
H5186 C5174 0.960 . S
H5187 C5174 0.962 . S
H5188 C5174 0.960 . S
H5189 C5175 0.961 . S
H5190 C5175 0.961 . S
H5191 C5175 0.961 . S
H5192 C5176 0.931 . S
H5193 C5181 0.930 . S
H5194 C5182 0.956 . S
H5195 C5182 0.961 . S
H5196 C5182 0.961 . S
H5197 C5183 0.958 . S
H5198 C5183 0.961 . S
H5199 C5183 0.960 . S
C2137 C403 1.597 . S
C2129 C7 1.565 . S
C2169 C477 1.004 . S
C2161 C19 0.974 . S
C2193 C29 1.877 . S
C2201 C569 1.901 . S
C2233 C637 1.301 . S
C2225 C41 1.299 . S
C2257 C52 1.656 . S
C2265 C643 1.642 . S
C2289 C62 1.863 . S
C2297 C391 1.832 . S
C2321 C73 1.350 . S
C2329 C465 1.367 . S
C2361 C563 2.246 . S
C2353 C82 1.876 . S
C2393 C699 1.300 . S
C2385 C5 1.167 . S
C2417 C16 1.029 . S
C2425 C773 1.188 . S
C2449 C30 1.710 . S
C2457 C859 1.668 . S
C2489 C921 1.634 . S
C2481 C40 1.616 . S
C2513 C49 1.438 . S
C2521 C995 1.518 . S
C2553 C1081 1.363 . S
C2545 C63 1.380 . S
C2577 C74 0.907 . S
C2585 C1131 0.966 . S
C2617 C1229 2.002 . S
C2609 C85 1.995 . S
C2641 C8 1.207 . S
C2649 C909 1.207 . S
C2673 C51 1.839 . S
C2681 C1087 1.844 . S
C2713 C1143 1.788 . S
C2705 C60 1.652 . S
C2737 C71 1.538 . S
C2745 C1235 1.767 . S
C2777 C983 2.449 . S
C2769 C84 2.342 . S
C2809 C761 1.605 . S
C2801 C27 1.615 . S
C2833 C38 1.114 . S
C2841 C865 1.403 . S
C2873 C687 1.558 . S
C2865 C18 1.663 . S
C2905 C1279 2.693 . S
C2897 C95 2.558 . S
C2929 C107 1.340 . S
C2937 C1353 1.285 . S
C2961 C117 2.359 . S
C2969 C1457 2.380 . S
C3001 C1501 1.211 . S
C2993 C129 1.289 . S
C3025 C140 1.275 . S
C3033 C1513 1.266 . S
C3057 C150 1.727 . S
C3065 C1291 1.834 . S
C3089 C161 1.268 . S
C3097 C1365 1.345 . S
C3121 C170 1.689 . S
C3129 C1451 1.907 . S
C3161 C1007 2.203 . S
C3153 C93 1.868 . S
C3185 C104 1.449 . S
C3193 C1587 1.652 . S
C3225 C1161 2.115 . S
C3217 C118 2.124 . S
C3249 C128 1.682 . S
C3257 C1679 1.670 . S
C3281 C137 1.133 . S
C3289 C711 1.110 . S
C3321 C1723 1.223 . S
C3313 C151 1.213 . S
C3345 C162 0.815 . S
C3353 C847 0.808 . S
C3385 C1821 1.771 . S
C3377 C173 1.683 . S
C3409 C96 1.950 . S
C3417 C1673 1.975 . S
C3449 C1735 1.636 . S
C3441 C139 1.632 . S
C3473 C148 1.280 . S
C3481 C835 1.485 . S
C3513 C1827 1.452 . S
C3505 C159 1.446 . S
C3537 C172 2.386 . S
C3545 C717 2.582 . S
C3569 C115 1.549 . S
C3577 C1575 1.663 . S
C3601 C126 0.974 . S
C3609 C1155 1.149 . S
C3633 C106 1.755 . S
C3641 C1013 1.851 . S
C3665 C183 1.952 . S
C3673 C1427 2.007 . S
C3705 C1531 1.725 . S
C3697 C195 1.738 . S
C3729 C205 2.228 . S
C3737 C1309 2.248 . S
C3761 C217 1.504 . S
C3769 C1383 1.589 . S
C3793 C228 1.633 . S
C3801 C1377 1.600 . S
C3825 C238 1.516 . S
C3833 C1439 1.577 . S
C3865 C1525 1.385 . S
C3857 C249 1.286 . S
C3889 C258 1.534 . S
C3897 C1303 1.815 . S
C3929 C1895 1.754 . S
C3921 C181 1.580 . S
C3953 C192 1.472 . S
C3961 C1069 1.656 . S
C3993 C1975 1.947 . S
C3985 C206 1.985 . S
C4017 C216 1.480 . S
C4025 C1217 1.518 . S
C4049 C225 1.706 . S
C4057 C2049 1.785 . S
C4081 C239 1.252 . S
C4089 C785 1.183 . S
C4121 C2105 1.022 . S
C4113 C250 1.007 . S
C4145 C261 1.966 . S
C4153 C933 2.072 . S
C4185 C1205 1.614 . S
C4177 C184 1.639 . S
C4217 C791 2.235 . S
C4209 C227 2.207 . S
C4241 C236 2.082 . S
C4249 C2093 2.034 . S
C4273 C247 1.642 . S
C4281 C939 1.703 . S
C4313 C2043 2.511 . S
C4305 C260 2.353 . S
C4345 C1057 1.617 . S
C4337 C203 1.486 . S
C4377 C1969 1.310 . S
C4369 C214 1.029 . S
C4409 C1901 1.984 . S
C4401 C194 1.956 . S
C4433 C271 2.019 . S
C4441 C539 2.045 . S
C4465 C283 1.135 . S
C4473 C625 1.144 . S
C4505 C415 1.902 . S
C4497 C293 1.918 . S
C4537 C489 1.217 . S
C4529 C305 1.214 . S
C4569 C495 1.664 . S
C4561 C316 1.698 . S
C4601 C551 1.664 . S
C4593 C326 1.631 . S
C4633 C613 0.943 . S
C4625 C337 0.965 . S
C4657 C346 2.051 . S
C4665 C421 2.250 1_556 S
C4689 C269 1.740 . S
C4697 C2019 1.820 . S
C4729 C1753 1.840 . S
C4721 C280 1.727 . S
C4761 C2117 2.104 . S
C4753 C294 2.178 . S
C4793 C1809 1.523 . S
C4785 C304 1.465 . S
C4817 C313 1.344 . S
C4825 C1883 1.402 . S
C4857 C1599 1.193 . S
C4849 C327 1.207 . S
C4889 C1945 0.464 . S
C4881 C338 0.568 . S
C4913 C349 1.842 . S
C4921 C1649 1.844 . S
C4953 C1797 1.828 . S
C4945 C272 1.833 . S
C4985 C1605 1.927 . S
C4977 C315 1.910 . S
C5017 C1957 1.936 . S
C5009 C324 1.926 . S
C5041 C335 1.178 . S
C5049 C1661 1.363 . S
C5073 C348 2.124 . S
C5081 C1871 2.198 . S
C5105 C291 1.813 . S
C5113 C1747 1.902 . S
C5137 C302 1.132 . S
C5145 C2123 1.607 . S
C5177 C2031 1.741 . S
C5169 C282 1.636 . S
