# Generated by pormake.
# Topology zzz, (3,6)-cn, num edge types: 1
# Building blocks:
#     Node 0, Type 0, BuildingBlock: KAKCAD_clean_linker_0, # of connection points: 3
#     Node 1, Type 0, BuildingBlock: KAKCAD_clean_linker_0, # of connection points: 3
#     Node 2, Type 0, BuildingBlock: KAKCAD_clean_linker_0, # of connection points: 3
#     Node 3, Type 0, BuildingBlock: KAKCAD_clean_linker_0, # of connection points: 3
#     Node 4, Type 0, BuildingBlock: KAKCAD_clean_linker_0, # of connection points: 3
#     Node 5, Type 0, BuildingBlock: KAKCAD_clean_linker_0, # of connection points: 3
#     Node 6, Type 0, BuildingBlock: KAKCAD_clean_linker_0, # of connection points: 3
#     Node 7, Type 0, BuildingBlock: KAKCAD_clean_linker_0, # of connection points: 3
#     Node 8, Type 1, BuildingBlock: FUNLAD_clean_sbu_0, # of connection points: 6
#     Node 9, Type 1, BuildingBlock: FUNLAD_clean_sbu_0, # of connection points: 6
#     Node 10, Type 1, BuildingBlock: FUNLAD_clean_sbu_0, # of connection points: 6
#     Node 11, Type 1, BuildingBlock: FUNLAD_clean_sbu_0, # of connection points: 6
#     Edge 12, Type (0, 1), BuildingBlock: KIFKEQ_clean_linker_1, # of connection points: 2
#     Edge 13, Type (0, 1), BuildingBlock: KIFKEQ_clean_linker_1, # of connection points: 2
#     Edge 14, Type (0, 1), BuildingBlock: KIFKEQ_clean_linker_1, # of connection points: 2
#     Edge 15, Type (0, 1), BuildingBlock: KIFKEQ_clean_linker_1, # of connection points: 2
#     Edge 16, Type (0, 1), BuildingBlock: KIFKEQ_clean_linker_1, # of connection points: 2
#     Edge 17, Type (0, 1), BuildingBlock: KIFKEQ_clean_linker_1, # of connection points: 2
#     Edge 18, Type (0, 1), BuildingBlock: KIFKEQ_clean_linker_1, # of connection points: 2
#     Edge 19, Type (0, 1), BuildingBlock: KIFKEQ_clean_linker_1, # of connection points: 2
#     Edge 20, Type (0, 1), BuildingBlock: KIFKEQ_clean_linker_1, # of connection points: 2
#     Edge 21, Type (0, 1), BuildingBlock: KIFKEQ_clean_linker_1, # of connection points: 2
#     Edge 22, Type (0, 1), BuildingBlock: KIFKEQ_clean_linker_1, # of connection points: 2
#     Edge 23, Type (0, 1), BuildingBlock: KIFKEQ_clean_linker_1, # of connection points: 2
#     Edge 24, Type (0, 1), BuildingBlock: KIFKEQ_clean_linker_1, # of connection points: 2
#     Edge 25, Type (0, 1), BuildingBlock: KIFKEQ_clean_linker_1, # of connection points: 2
#     Edge 26, Type (0, 1), BuildingBlock: KIFKEQ_clean_linker_1, # of connection points: 2
#     Edge 27, Type (0, 1), BuildingBlock: KIFKEQ_clean_linker_1, # of connection points: 2
#     Edge 28, Type (0, 1), BuildingBlock: KIFKEQ_clean_linker_1, # of connection points: 2
#     Edge 29, Type (0, 1), BuildingBlock: KIFKEQ_clean_linker_1, # of connection points: 2
#     Edge 30, Type (0, 1), BuildingBlock: KIFKEQ_clean_linker_1, # of connection points: 2
#     Edge 31, Type (0, 1), BuildingBlock: KIFKEQ_clean_linker_1, # of connection points: 2
#     Edge 32, Type (0, 1), BuildingBlock: KIFKEQ_clean_linker_1, # of connection points: 2
#     Edge 33, Type (0, 1), BuildingBlock: KIFKEQ_clean_linker_1, # of connection points: 2
#     Edge 34, Type (0, 1), BuildingBlock: KIFKEQ_clean_linker_1, # of connection points: 2
#     Edge 35, Type (0, 1), BuildingBlock: KIFKEQ_clean_linker_1, # of connection points: 2
# Relax obj value: 0.278
# Max RMSD: 0.225
# Mean RMSD: 0.191
data_MOF--net-zzz--node1-FUNLAD_clean_sbu_0--node2-KAKCAD_clean_linker_0--edge1-KIFKEQ_clean_linker_1
_symmetry_space_group_name_H-M    P1
_symmetry_Int_Tables_number       1
_symmetry_cell_setting            triclinic
loop_
_symmetry_equiv_pos_as_xyz
'x, y, z'
_cell_length_a     58.898184
_cell_length_b     63.84182
_cell_length_c     22.976277
_cell_angle_alpha  86.818767
_cell_angle_beta   86.945239
_cell_angle_gamma 92.236337
loop_
_atom_site_label
_atom_site_type_symbol
_atom_site_fract_x
_atom_site_fract_y
_atom_site_fract_z
_atom_type_partial_charge
C0 C 0.85375 0.42103 0.02158 0.0
C1 C 0.87061 0.40817 0.04296 0.0
C2 C 0.83459 0.42504 0.05684 0.0
C3 C 0.83169 0.41608 0.1142 0.0
C4 C 0.84776 0.40193 0.13397 0.0
C5 C 0.86714 0.39817 0.09886 0.0
C6 C 0.81351 0.4234 0.15486 0.0
C7 C 0.79241 0.42903 0.13465 0.0
C8 C 0.77655 0.43887 0.17066 0.0
C9 C 0.78159 0.44263 0.22845 0.0
C10 C 0.80248 0.43665 0.2497 0.0
C11 C 0.81821 0.42708 0.21269 0.0
C12 C 0.8096 0.44201 0.30813 0.0
C13 C 0.81094 0.46303 0.32327 0.0
C14 C 0.81933 0.42662 0.34384 0.0
C15 C 0.83205 0.43234 0.39035 0.0
C16 C 0.83531 0.45357 0.40211 0.0
C17 C 0.75544 0.44614 0.14553 0.0
C18 C 0.75688 0.45914 0.09402 0.0
C19 C 0.73399 0.43874 0.16925 0.0
C20 C 0.71433 0.44348 0.14021 0.0
C21 C 0.71586 0.45598 0.08759 0.0
C22 C 0.7373 0.46411 0.06554 0.0
C23 C 0.82373 0.46879 0.37008 0.0
H24 H 0.85612 0.42924 0.979 0.0
H25 H 0.82287 0.43626 0.04022 0.0
H26 H 0.84582 0.39439 0.17743 0.0
H27 H 0.87982 0.38806 0.11619 0.0
H28 H 0.78836 0.42611 0.09026 0.0
H29 H 0.83483 0.42373 0.22817 0.0
H30 H 0.76962 0.45059 0.25611 0.0
H31 H 0.80375 0.4752 0.29608 0.0
H32 H 0.81841 0.41029 0.33323 0.0
H33 H 0.84049 0.42026 0.41499 0.0
H34 H 0.77329 0.46503 0.07499 0.0
H35 H 0.73252 0.4286 0.20879 0.0
H36 H 0.826 0.48527 0.37822 0.0
H37 H 0.73905 0.47362 0.02488 0.0
H38 H 0.69798 0.43713 0.15835 0.0
C39 C 0.96761 0.81693 0.00159 0.0
C40 C 0.96206 0.83778 0.01085 0.0
C41 C 0.95667 0.8002 0.0353 0.0
C42 C 0.93975 0.80391 0.07857 0.0
C43 C 0.93352 0.82466 0.08595 0.0
C44 C 0.94469 0.84136 0.05311 0.0
C45 C 0.92992 0.78654 0.11918 0.0
C46 C 0.92541 0.76636 0.10012 0.0
C47 C 0.91798 0.74968 0.1401 0.0
C48 C 0.91455 0.75337 0.19974 0.0
C49 C 0.91854 0.77361 0.21875 0.0
C50 C 0.92631 0.78993 0.17861 0.0
C51 C 0.91607 0.77847 0.28057 0.0
C52 C 0.89542 0.78582 0.30286 0.0
C53 C 0.9358 0.78164 0.31088 0.0
C54 C 0.93541 0.79374 0.35961 0.0
C55 C 0.91521 0.80294 0.37902 0.0
C56 C 0.9157 0.72824 0.11915 0.0
C57 C 0.90287 0.72443 0.07081 0.0
C58 C 0.92853 0.71214 0.14287 0.0
C59 C 0.92963 0.69297 0.11646 0.0
C60 C 0.91767 0.68941 0.06618 0.0
C61 C 0.90366 0.70516 0.04495 0.0
C62 C 0.89495 0.79784 0.35203 0.0
H63 H 0.98055 0.81348 0.96867 0.0
H64 H 0.96205 0.78444 0.02869 0.0
H65 H 0.92028 0.82811 0.11812 0.0
H66 H 0.94005 0.85713 0.06224 0.0
H67 H 0.92827 0.76344 0.05434 0.0
H68 H 0.93026 0.80525 0.19456 0.0
H69 H 0.9091 0.7406 0.23104 0.0
H70 H 0.88008 0.7838 0.27942 0.0
H71 H 0.95198 0.77646 0.29355 0.0
H72 H 0.95144 0.79742 0.37846 0.0
H73 H 0.89272 0.73661 0.05204 0.0
H74 H 0.93877 0.71482 0.17975 0.0
H75 H 0.87901 0.80428 0.36644 0.0
H76 H 0.89374 0.70284 0.00733 0.0
H77 H 0.94083 0.68141 0.13378 0.0
C78 C 0.68839 0.02628 0.96519 0.0
C79 C 0.67134 0.04021 0.97967 0.0
C80 C 0.70554 0.0221 0.00324 0.0
C81 C 0.70615 0.0319 0.05644 0.0
C82 C 0.69024 0.04719 0.0685 0.0
C83 C 0.67297 0.05129 0.03052 0.0
C84 C 0.72162 0.02447 0.10158 0.0
C85 C 0.74373 0.01869 0.0861 0.0
C86 C 0.75753 0.00952 0.12775 0.0
C87 C 0.74903 0.00636 0.18645 0.0
C88 C 0.72686 0.01237 0.20258 0.0
C89 C 0.71347 0.02137 0.1599 0.0
C90 C 0.71619 0.00876 0.26253 0.0
C91 C 0.70987 0.98832 0.28512 0.0
C92 C 0.70727 0.02589 0.29054 0.0
C93 C 0.69089 0.02272 0.33676 0.0
C94 C 0.68302 0.00233 0.35621 0.0
C95 C 0.78055 0.00324 0.1075 0.0
C96 C 0.78282 0.99079 0.05912 0.0
C97 C 0.80025 0.01209 0.12972 0.0
C98 C 0.8217 0.00958 0.10175 0.0
C99 C 0.82384 0.99801 0.05131 0.0
C100 C 0.80415 0.98817 0.03149 0.0
C101 C 0.69345 0.98511 0.33185 0.0
H102 H 0.68779 0.01778 0.92575 0.0
H103 H 0.71744 0.0102 0.99252 0.0
H104 H 0.69054 0.05534 0.10858 0.0
H105 H 0.6601 0.0621 0.04293 0.0
H106 H 0.75029 0.02131 0.04118 0.0
H107 H 0.6961 0.02508 0.17201 0.0
H108 H 0.7594 0.99913 0.21888 0.0
H109 H 0.7162 0.97485 0.26365 0.0
H110 H 0.71172 0.0418 0.27371 0.0
H111 H 0.68343 0.03629 0.35522 0.0
H112 H 0.76788 0.98384 0.04097 0.0
H113 H 0.79895 0.0219 0.16664 0.0
H114 H 0.6877 0.96923 0.34589 0.0
H115 H 0.805 0.97933 0.9926 0.0
H116 H 0.83653 0.01715 0.1187 0.0
C117 C 0.54921 0.67833 0.4009 0.0
C118 C 0.56799 0.66536 0.40109 0.0
C119 C 0.54645 0.69255 0.35343 0.0
C120 C 0.56252 0.69409 0.30596 0.0
C121 C 0.58241 0.68279 0.30903 0.0
C122 C 0.58517 0.66858 0.35629 0.0
C123 C 0.55577 0.70204 0.24826 0.0
C124 C 0.55689 0.72349 0.23052 0.0
C125 C 0.55125 0.72987 0.17358 0.0
C126 C 0.54399 0.71475 0.13558 0.0
C127 C 0.54246 0.69338 0.15349 0.0
C128 C 0.54839 0.68723 0.20992 0.0
C129 C 0.53515 0.67733 0.11333 0.0
C130 C 0.51659 0.68045 0.07825 0.0
C131 C 0.54656 0.65846 0.11082 0.0
C132 C 0.53944 0.64297 0.0747 0.0
C133 C 0.52085 0.64598 0.03971 0.0
C134 C 0.5529 0.75219 0.15227 0.0
C135 C 0.54043 0.76724 0.18093 0.0
C136 C 0.56499 0.75804 0.09916 0.0
C137 C 0.56377 0.77828 0.07364 0.0
C138 C 0.55024 0.79305 0.10043 0.0
C139 C 0.53898 0.78749 0.155 0.0
C140 C 0.50946 0.6649 0.04185 0.0
H141 H 0.53561 0.6761 0.43457 0.0
H142 H 0.53078 0.70084 0.3513 0.0
H143 H 0.59486 0.68356 0.27241 0.0
H144 H 0.59992 0.65895 0.35561 0.0
H145 H 0.56264 0.73499 0.26006 0.0
H146 H 0.54714 0.67075 0.22455 0.0
H147 H 0.53968 0.71965 0.09174 0.0
H148 H 0.50735 0.69478 0.07962 0.0
H149 H 0.56109 0.65567 0.13675 0.0
H150 H 0.5484 0.62847 0.07479 0.0
H151 H 0.53088 0.76302 0.22179 0.0
H152 H 0.57476 0.74669 0.07635 0.0
H153 H 0.49518 0.66773 0.01509 0.0
H154 H 0.52858 0.79862 0.17684 0.0
H155 H 0.57249 0.78202 0.03142 0.0
C156 C 0.15484 0.60266 0.33047 0.0
C157 C 0.1345 0.59118 0.32202 0.0
C158 C 0.17451 0.59985 0.29523 0.0
C159 C 0.17417 0.58553 0.25089 0.0
C160 C 0.15368 0.57451 0.24169 0.0
C161 C 0.13415 0.5773 0.27667 0.0
C162 C 0.19515 0.58095 0.21602 0.0
C163 C 0.21562 0.57766 0.24293 0.0
C164 C 0.23459 0.57021 0.21158 0.0
C165 C 0.23269 0.56573 0.1525 0.0
C166 C 0.21243 0.56958 0.12489 0.0
C167 C 0.19403 0.57752 0.15662 0.0
C168 C 0.2086 0.56355 0.06492 0.0
C169 C 0.20091 0.57862 0.02462 0.0
C170 C 0.20633 0.54219 0.0536 0.0
C171 C 0.19412 0.53593 0.00632 0.0
C172 C 0.18405 0.551 0.97019 0.0
C173 C 0.25573 0.56622 0.24234 0.0
C174 C 0.26342 0.5804 0.28241 0.0
C175 C 0.2675 0.54773 0.23505 0.0
C176 C 0.28607 0.54322 0.26855 0.0
C177 C 0.29329 0.55712 0.31001 0.0
C178 C 0.28189 0.57589 0.31591 0.0
C179 C 0.18873 0.5724 0.97763 0.0
H180 H 0.15563 0.61354 0.36491 0.0
H181 H 0.19002 0.60867 0.30304 0.0
H182 H 0.15291 0.56298 0.20891 0.0
H183 H 0.11904 0.56773 0.26984 0.0
H184 H 0.2164 0.57978 0.28928 0.0
H185 H 0.17827 0.58006 0.13542 0.0
H186 H 0.24684 0.55943 0.12803 0.0
H187 H 0.20238 0.59517 0.03271 0.0
H188 H 0.21187 0.5303 0.08458 0.0
H189 H 0.1907 0.51934 0.00158 0.0
H190 H 0.2549 0.59491 0.2886 0.0
H191 H 0.26192 0.53641 0.20486 0.0
H192 H 0.18133 0.58432 0.94995 0.0
H193 H 0.28678 0.58688 0.34771 0.0
H194 H 0.29467 0.52877 0.26225 0.0
C195 C 0.01976 0.18013 0.386 0.0
C196 C 0.03167 0.16318 0.40877 0.0
C197 C 0.03126 0.19616 0.35065 0.0
C198 C 0.05469 0.19516 0.33674 0.0
C199 C 0.06656 0.17825 0.35972 0.0
C200 C 0.05519 0.16249 0.39574 0.0
C201 C 0.06666 0.21095 0.29549 0.0
C202 C 0.06624 0.23238 0.305 0.0
C203 C 0.078 0.24721 0.26576 0.0
C204 C 0.0897 0.24045 0.21557 0.0
C205 C 0.08982 0.21894 0.20526 0.0
C206 C 0.07852 0.20437 0.24593 0.0
C207 C 0.09938 0.21115 0.14995 0.0
C208 C 0.09175 0.21892 0.09642 0.0
C209 C 0.11189 0.19285 0.1514 0.0
C210 C 0.11401 0.181 0.10231 0.0
C211 C 0.10375 0.18731 0.05066 0.0
C212 C 0.07821 0.26961 0.2789 0.0
C213 C 0.05762 0.27929 0.29099 0.0
C214 C 0.09885 0.2807 0.28588 0.0
C215 C 0.09886 0.30073 0.30774 0.0
C216 C 0.07822 0.3101 0.3219 0.0
C217 C 0.05763 0.2994 0.31186 0.0
C218 C 0.09398 0.20711 0.04706 0.0
H219 H 1.00163 0.181 0.39571 0.0
H220 H 0.02178 0.20901 0.33291 0.0
H221 H 0.08463 0.17719 0.34947 0.0
H222 H 0.06471 0.1495 0.41245 0.0
H223 H 0.05728 0.23747 0.34385 0.0
H224 H 0.07805 0.18779 0.23775 0.0
H225 H 0.09836 0.25185 0.18447 0.0
H226 H 0.08212 0.23303 0.09403 0.0
H227 H 0.11819 0.18667 0.19209 0.0
H228 H 0.1217 0.16592 0.10697 0.0
H229 H 0.04151 0.27099 0.28599 0.0
H230 H 0.11492 0.27344 0.27724 0.0
H231 H 0.08643 0.21269 0.00743 0.0
H232 H 0.04148 0.30616 0.32288 0.0
H233 H 0.11496 0.30871 0.31486 0.0
C234 C 0.33949 0.93631 0.34875 0.0
C235 C 0.34166 0.94348 0.40502 0.0
C236 C 0.32166 0.94272 0.3152 0.0
C237 C 0.30559 0.95637 0.33731 0.0
C238 C 0.30672 0.9622 0.39514 0.0
C239 C 0.32459 0.95585 0.42865 0.0
C240 C 0.28952 0.96653 0.29818 0.0
C241 C 0.2668 0.96906 0.31676 0.0
C242 C 0.25211 0.98035 0.28142 0.0
C243 C 0.26067 0.98943 0.22662 0.0
C244 C 0.28352 0.98686 0.20775 0.0
C245 C 0.2976 0.97534 0.24355 0.0
C246 C 0.29405 0.99649 0.15217 0.0
C247 C 0.29315 0.9856 0.10085 0.0
C248 C 0.31008 0.01326 0.15423 0.0
C249 C 0.32604 0.01804 0.10765 0.0
C250 C 0.3264 0.00608 0.05801 0.0
C251 C 0.22825 0.9829 0.30422 0.0
C252 C 0.21577 0.96563 0.33226 0.0
C253 C 0.21867 0.00273 0.30406 0.0
C254 C 0.19759 0.00536 0.33379 0.0
C255 C 0.18557 0.98818 0.36402 0.0
C256 C 0.19481 0.96823 0.36179 0.0
C257 C 0.3091 0.99044 0.05396 0.0
H258 H 0.35214 0.92647 0.32971 0.0
H259 H 0.32096 0.93771 0.27102 0.0
H260 H 0.29468 0.97285 0.4132 0.0
H261 H 0.32585 0.96186 0.47157 0.0
H262 H 0.26066 0.96253 0.35954 0.0
H263 H 0.31532 0.97389 0.2294 0.0
H264 H 0.24974 0.99841 0.19911 0.0
H265 H 0.28132 0.97227 0.09886 0.0
H266 H 0.31137 0.02161 0.19379 0.0
H267 H 0.33893 0.03036 0.11185 0.0
H268 H 0.22258 0.95011 0.33285 0.0
H269 H 0.22791 0.01636 0.28315 0.0
H270 H 0.30897 0.98085 0.01654 0.0
H271 H 0.18629 0.95463 0.38487 0.0
H272 H 0.19087 0.0209 0.33379 0.0
C273 C 0.42651 0.33067 0.05271 0.0
C274 C 0.44219 0.33363 0.00424 0.0
C275 C 0.43108 0.31714 0.10022 0.0
C276 C 0.45113 0.30598 0.09965 0.0
C277 C 0.46569 0.30728 0.04926 0.0
C278 C 0.46132 0.32101 0.00201 0.0
C279 C 0.45958 0.29764 0.15521 0.0
C280 C 0.46136 0.27602 0.16844 0.0
C281 C 0.47062 0.26901 0.22108 0.0
C282 C 0.47799 0.28388 0.25974 0.0
C283 C 0.4766 0.30541 0.24626 0.0
C284 C 0.46723 0.31215 0.19413 0.0
C285 C 0.48488 0.32094 0.28658 0.0
C286 C 0.47887 0.31849 0.3466 0.0
C287 C 0.49836 0.33861 0.265 0.0
C288 C 0.50513 0.35387 0.30249 0.0
C289 C 0.49841 0.3518 0.36215 0.0
C290 C 0.47267 0.24635 0.23738 0.0
C291 C 0.45427 0.2319 0.2336 0.0
C292 C 0.49243 0.23951 0.26288 0.0
C293 C 0.49325 0.21917 0.2878 0.0
C294 C 0.47443 0.20495 0.2872 0.0
C295 C 0.45514 0.21138 0.25826 0.0
C296 C 0.48552 0.33381 0.38401 0.0
H297 H 0.41136 0.33972 0.05548 0.0
H298 H 0.41973 0.31648 0.13905 0.0
H299 H 0.48147 0.29909 0.04846 0.0
H300 H 0.47395 0.32293 0.96594 0.0
H301 H 0.45582 0.26481 0.13786 0.0
H302 H 0.46594 0.32882 0.18352 0.0
H303 H 0.48497 0.27868 0.30055 0.0
H304 H 0.46843 0.30505 0.36435 0.0
H305 H 0.50346 0.34074 0.21899 0.0
H306 H 0.5149 0.36766 0.28439 0.0
H307 H 0.43881 0.23674 0.21418 0.0
H308 H 0.50704 0.25019 0.26564 0.0
H309 H 0.48024 0.33178 0.42994 0.0
H310 H 0.44049 0.20075 0.25595 0.0
H311 H 0.50832 0.21503 0.31007 0.0
C312 C 0.01837 0.96442 0.77595 0.0
N313 N 0.98078 0.96667 0.62726 0.0
C314 C 0.99356 0.95001 0.6151 0.0
C315 C 0.98431 0.93303 0.58777 0.0
C316 C 0.96165 0.9331 0.57155 0.0
C317 C 0.94892 0.95077 0.58322 0.0
C318 C 0.95886 0.96745 0.61151 0.0
Zn319 Zn 0.99575 0.98844 0.67697 0.0
C320 C 0.96573 0.99854 0.77977 0.0
N321 N 0.03002 0.02913 0.78777 0.0
C322 C 0.0523 0.02826 0.80042 0.0
C323 C 0.01736 0.04548 0.8035 0.0
C324 C 0.02704 0.06193 0.83227 0.0
C325 C 0.05006 0.06172 0.84516 0.0
C326 C 0.06274 0.04453 0.82917 0.0
Zn327 Zn 0.01471 0.00759 0.73814 0.0
O328 O 0.00677 0.96328 0.73112 0.0
C329 C 0.04467 0.99736 0.63519 0.0
O330 O 0.02513 0.98227 0.79164 0.0
H331 H 0.9998 0.04611 0.79223 0.0
H332 H 0.01086 0.9495 0.62839 0.0
H333 H 0.06209 0.01518 0.78719 0.0
O334 O 0.02613 0.98829 0.62255 0.0
O335 O 0.04523 0.00681 0.68249 0.0
H336 H 0.94894 0.98079 0.62196 0.0
O337 O 0.00364 0.03265 0.6849 0.0
O338 O 0.98505 0.01407 0.62375 0.0
O339 O 0.98416 0.00783 0.79248 0.0
O340 O 0.96535 0.98901 0.73256 0.0
C341 C 0.99169 0.03182 0.64062 0.0
H342 H 0.99473 0.91967 0.58127 0.0
H343 H 0.93147 0.95166 0.57105 0.0
H344 H 0.0167 0.07502 0.84272 0.0
H345 H 0.08051 0.0437 0.83863 0.0
C346 C 0.47495 0.97688 0.63011 0.0
N347 N 0.49272 0.04126 0.62928 0.0
C348 C 0.4921 0.03961 0.57054 0.0
C349 C 0.488 0.05705 0.53401 0.0
C350 C 0.485 0.07654 0.55786 0.0
C351 C 0.48594 0.07797 0.61846 0.0
C352 C 0.48963 0.05996 0.6537 0.0
Zn353 Zn 0.49898 0.01463 0.67895 0.0
C354 C 0.46417 0.00426 0.77512 0.0
N355 N 0.51182 0.95698 0.77245 0.0
C356 C 0.5169 0.93871 0.7479 0.0
C357 C 0.51089 0.95837 0.83141 0.0
C358 C 0.51524 0.94106 0.86814 0.0
C359 C 0.52041 0.92191 0.84431 0.0
C360 C 0.52123 0.92088 0.7832 0.0
Zn361 Zn 0.50542 0.98354 0.7228 0.0
O362 O 0.47837 0.9967 0.62543 0.0
C363 C 0.54048 0.99441 0.62695 0.0
O364 O 0.48457 0.9662 0.66928 0.0
H365 H 0.50684 0.97301 0.85022 0.0
H366 H 0.495 0.02474 0.55168 0.0
H367 H 0.51752 0.93794 0.70093 0.0
O368 O 0.52818 0.01031 0.62364 0.0
O369 O 0.5349 0.97953 0.66493 0.0
H370 H 0.49018 0.06094 0.70045 0.0
O371 O 0.5259 0.00114 0.77583 0.0
O372 O 0.52006 0.03196 0.73331 0.0
O373 O 0.47625 0.98821 0.77926 0.0
O374 O 0.46966 0.01867 0.73575 0.0
C375 C 0.5295 0.02091 0.77211 0.0
H376 H 0.48773 0.05544 0.48736 0.0
H377 H 0.4837 0.09281 0.63829 0.0
H378 H 0.51481 0.94279 0.9148 0.0
H379 H 0.52488 0.9064 0.76284 0.0
C380 C 0.51246 0.47328 0.61621 0.0
N381 N 0.45667 0.51085 0.64129 0.0
C382 C 0.45991 0.51397 0.58231 0.0
C383 C 0.44189 0.51917 0.5482 0.0
C384 C 0.42017 0.52141 0.57472 0.0
C385 C 0.41717 0.51794 0.63573 0.0
C386 C 0.43577 0.51265 0.66839 0.0
Zn387 Zn 0.48494 0.50372 0.68576 0.0
C388 C 0.47936 0.46588 0.76338 0.0
N389 N 0.54677 0.48869 0.76416 0.0
C390 C 0.56786 0.48823 0.73714 0.0
C391 C 0.54351 0.48467 0.82285 0.0
C392 C 0.56178 0.48024 0.85689 0.0
C393 C 0.58379 0.47968 0.83055 0.0
C394 C 0.58671 0.4837 0.76967 0.0
Zn395 Zn 0.51854 0.49596 0.71982 0.0
O396 O 0.49389 0.48263 0.62183 0.0
C397 C 0.52441 0.53332 0.64075 0.0
O398 O 0.5278 0.47627 0.6521 0.0
H399 H 0.52664 0.4851 0.84366 0.0
H400 H 0.47659 0.51247 0.56137 0.0
H401 H 0.57008 0.49145 0.69042 0.0
O402 O 0.50341 0.52858 0.63685 0.0
O403 O 0.5361 0.52221 0.67461 0.0
H404 H 0.43357 0.51013 0.71533 0.0
O405 O 0.50874 0.51563 0.78662 0.0
O406 O 0.47659 0.52489 0.75069 0.0
O407 O 0.50065 0.46991 0.7635 0.0
O408 O 0.46697 0.47838 0.73543 0.0
C409 C 0.49103 0.52633 0.78961 0.0
H410 H 0.44498 0.52125 0.50131 0.0
H411 H 0.40075 0.51964 0.65809 0.0
H412 H 0.55866 0.47768 0.90366 0.0
H413 H 0.60331 0.48322 0.74731 0.0
C414 C 0.02181 0.5299 0.61078 0.0
N415 N 0.02956 0.46486 0.62827 0.0
C416 C 0.02472 0.46444 0.5711 0.0
C417 C 0.03341 0.44903 0.53652 0.0
C418 C 0.04749 0.43393 0.56058 0.0
C419 C 0.05253 0.43496 0.61957 0.0
C420 C 0.04328 0.45058 0.65282 0.0
Zn421 Zn 0.01516 0.48745 0.67633 0.0
C422 C 0.04702 0.50813 0.75184 0.0
N423 N 0.98409 0.53637 0.76769 0.0
C424 C 0.97312 0.5523 0.74103 0.0
C425 C 0.986 0.5352 0.82652 0.0
C426 C 0.97672 0.5504 0.86092 0.0
C427 C 0.96564 0.56728 0.83467 0.0
C428 C 0.96385 0.56803 0.77375 0.0
Zn429 Zn 0.9986 0.51374 0.7199 0.0
O430 O 0.02579 0.51049 0.60931 0.0
C431 C 0.96675 0.49319 0.64407 0.0
O432 O 0.01029 0.53641 0.6539 0.0
H433 H 0.99485 0.52248 0.84695 0.0
H434 H 0.01384 0.47595 0.55229 0.0
H435 H 0.97178 0.55294 0.69421 0.0
O436 O 0.98403 0.48213 0.63679 0.0
O437 O 0.96776 0.50856 0.67691 0.0
H438 H 0.04695 0.45123 0.69832 0.0
O439 O 0.98739 0.49048 0.78581 0.0
O440 O 0.00411 0.46479 0.7431 0.0
O441 O 0.02951 0.51879 0.76086 0.0
O442 O 0.04615 0.49311 0.71781 0.0
C443 C 0.99192 0.47118 0.78526 0.0
H444 H 0.02865 0.44872 0.4917 0.0
H445 H 0.06353 0.42385 0.63991 0.0
H446 H 0.9782 0.54883 0.90771 0.0
H447 H 0.95579 0.58085 0.75126 0.0
H448 H 0.14746 0.96178 0.37742 0.0
H449 H 0.17484 0.02071 0.43297 0.0
H450 H 0.11407 0.96445 0.44281 0.0
H451 H 0.1407 0.02399 0.49619 0.0
H452 H 0.08856 0.01107 0.65223 0.0
H453 H 0.12206 0.0097 0.58527 0.0
H454 H 0.08027 0.9823 0.45793 0.0
H455 H 0.04715 0.983 0.52539 0.0
C456 C 0.14633 0.97541 0.4033 0.0
C457 C 0.16404 0.99095 0.39995 0.0
C458 C 0.12695 0.97708 0.44045 0.0
C459 C 0.12455 0.99444 0.47516 0.0
C460 C 0.14203 0.01024 0.47087 0.0
C461 C 0.1615 0.00851 0.43382 0.0
C462 C 0.08656 0.00474 0.60994 0.0
C463 C 0.06516 0.99702 0.59446 0.0
C464 C 0.10576 0.00409 0.57126 0.0
C465 C 0.10402 0.99581 0.51597 0.0
C466 C 0.08248 0.9884 0.50039 0.0
C467 C 0.06338 0.98891 0.53911 0.0
H468 H 0.43889 0.18379 0.35062 0.0
H469 H 0.51029 0.17912 0.30048 0.0
H470 H 0.44037 0.15209 0.41467 0.0
H471 H 0.51181 0.14814 0.36689 0.0
H472 H 0.50914 0.11389 0.55247 0.0
H473 H 0.50572 0.144 0.48303 0.0
H474 H 0.45013 0.11155 0.40615 0.0
H475 H 0.45382 0.08123 0.475 0.0
C476 C 0.4548 0.17589 0.35235 0.0
C477 C 0.47453 0.18424 0.3206 0.0
C478 C 0.45564 0.15783 0.38945 0.0
C479 C 0.47628 0.14795 0.39624 0.0
C480 C 0.49578 0.15575 0.36312 0.0
C481 C 0.49488 0.17354 0.32527 0.0
C482 C 0.49608 0.1133 0.52106 0.0
C483 C 0.48174 0.09531 0.51896 0.0
C484 C 0.49424 0.1304 0.48115 0.0
C485 C 0.47775 0.12997 0.43918 0.0
C486 C 0.46295 0.11223 0.43816 0.0
C487 C 0.4651 0.09494 0.47733 0.0
H488 H 0.32688 0.58365 0.34557 0.0
H489 H 0.30233 0.5188 0.36186 0.0
H490 H 0.35637 0.5756 0.41247 0.0
H491 H 0.33267 0.5105 0.42636 0.0
H492 H 0.37561 0.50659 0.58581 0.0
H493 H 0.34479 0.51558 0.52319 0.0
H494 H 0.39103 0.55794 0.4169 0.0
H495 H 0.42134 0.54984 0.481 0.0
C496 C 0.32779 0.56765 0.36329 0.0
C497 C 0.31215 0.5519 0.3483 0.0
C498 C 0.3449 0.56297 0.40122 0.0
C499 C 0.34695 0.54238 0.42491 0.0
C500 C 0.33143 0.52658 0.40959 0.0
C501 C 0.31423 0.53128 0.37181 0.0
C502 C 0.37908 0.51806 0.54961 0.0
C503 C 0.40101 0.5274 0.53833 0.0
C504 C 0.36149 0.52301 0.5132 0.0
C505 C 0.36542 0.5374 0.46469 0.0
C506 C 0.38727 0.54695 0.45409 0.0
C507 C 0.40477 0.54208 0.49051 0.0
H508 H 0.05364 0.34444 0.29567 0.0
H509 H 0.10156 0.3206 0.41608 0.0
H510 H 0.04943 0.37552 0.3523 0.0
H511 H 0.09739 0.35171 0.47271 0.0
H512 H 0.06142 0.43635 0.44423 0.0
H513 H 0.07174 0.40763 0.38362 0.0
H514 H 0.06394 0.3642 0.53478 0.0
H515 H 0.05286 0.39266 0.59524 0.0
C516 C 0.06349 0.34602 0.3338 0.0
C517 C 0.0779 0.33013 0.35156 0.0
C518 C 0.06119 0.36383 0.366 0.0
C519 C 0.07302 0.36596 0.41702 0.0
C520 C 0.08796 0.35038 0.43377 0.0
C521 C 0.0905 0.3327 0.40111 0.0
C522 C 0.06178 0.42068 0.46464 0.0
C523 C 0.05605 0.41685 0.52469 0.0
C524 C 0.06782 0.40427 0.42988 0.0
C525 C 0.06858 0.3837 0.45448 0.0
C526 C 0.06375 0.37995 0.51477 0.0
C527 C 0.05745 0.39631 0.54945 0.0
H528 H 0.84193 0.9647 0.99671 0.0
H529 H 0.85588 0.03006 0.02619 0.0
H530 H 0.87625 0.96471 0.93241 0.0
H531 H 0.89017 0.03007 0.96195 0.0
H532 H 0.9611 0.01761 0.88333 0.0
H533 H 0.92791 0.01684 0.95152 0.0
H534 H 0.89043 0.97876 0.83668 0.0
H535 H 0.92382 0.9792 0.76889 0.0
C536 C 0.85232 0.97908 0.98957 0.0
C537 C 0.84603 0.99739 0.0167 0.0
C538 C 0.87199 0.9791 0.95247 0.0
C539 C 0.88596 0.99743 0.94144 0.0
C540 C 0.88001 0.01559 0.96981 0.0
C541 C 0.86032 0.01557 0.00691 0.0
C542 C 0.94579 0.00908 0.8725 0.0
C543 C 0.94519 0.99847 0.82046 0.0
C544 C 0.92668 0.00872 0.91159 0.0
C545 C 0.90642 0.99772 0.89984 0.0
C546 C 0.90581 0.98714 0.8477 0.0
C547 C 0.92493 0.98753 0.80852 0.0
H548 H 0.50989 0.81169 0.08651 0.0
H549 H 0.5819 0.82004 0.04157 0.0
H550 H 0.50285 0.84296 0.02574 0.0
H551 H 0.57501 0.85169 0.98162 0.0
H552 H 0.55185 0.89191 0.82685 0.0
H553 H 0.55912 0.86154 0.89106 0.0
H554 H 0.5073 0.88008 0.016 0.0
H555 H 0.4991 0.90964 0.95037 0.0
C556 C 0.52428 0.8205 0.06464 0.0
C557 C 0.54644 0.81342 0.06883 0.0
C558 C 0.52026 0.83845 0.02968 0.0
C559 C 0.53835 0.84984 0.99839 0.0
C560 C 0.56062 0.84308 0.00409 0.0
C561 C 0.5646 0.82503 0.03873 0.0
C562 C 0.54179 0.88935 0.86764 0.0
C563 C 0.52488 0.90327 0.88329 0.0
C564 C 0.5462 0.8721 0.90495 0.0
C565 C 0.53389 0.86837 0.95898 0.0
C566 C 0.51698 0.8823 0.97456 0.0
C567 C 0.51248 0.89945 0.93714 0.0
H568 H 0.70276 0.49292 0.03644 0.0
H569 H 0.68339 0.42699 0.06073 0.0
H570 H 0.6709 0.4983 0.97443 0.0
H571 H 0.65192 0.43212 0.99742 0.0
H572 H 0.58503 0.45203 0.92591 0.0
H573 H 0.61601 0.44691 0.99014 0.0
H574 H 0.65868 0.49129 0.88036 0.0
H575 H 0.62714 0.49746 0.81814 0.0
C576 C 0.69166 0.47958 0.0284 0.0
C577 C 0.69551 0.45956 0.05354 0.0
C578 C 0.6735 0.4826 0.99251 0.0
C579 C 0.65887 0.46562 0.98039 0.0
C580 C 0.66259 0.44564 0.00634 0.0
C581 C 0.68062 0.44267 0.0427 0.0
C582 C 0.60093 0.46089 0.91571 0.0
C583 C 0.60345 0.47532 0.86699 0.0
C584 C 0.61885 0.45773 0.95224 0.0
C585 C 0.6399 0.46874 0.94076 0.0
C586 C 0.64261 0.4828 0.89124 0.0
C587 C 0.6246 0.4861 0.85492 0.0
H588 H 0.92427 0.64921 0.11021 0.0
H589 H 0.91967 0.68591 0.94755 0.0
H590 H 0.93425 0.61882 0.05563 0.0
H591 H 0.92869 0.65531 0.89366 0.0
H592 H 0.92701 0.58948 0.81971 0.0
H593 H 0.91315 0.61802 0.87663 0.0
H594 H 0.9692 0.61148 0.98883 0.0
H595 H 0.98368 0.58364 0.93097 0.0
C596 C 0.92523 0.65083 0.06298 0.0
C597 C 0.92124 0.67015 0.0335 0.0
C598 C 0.93085 0.63338 0.0318 0.0
C599 C 0.93227 0.63475 0.97048 0.0
C600 C 0.92745 0.65374 0.94092 0.0
C601 C 0.92215 0.67127 0.97201 0.0
C602 C 0.93654 0.59422 0.85613 0.0
C603 C 0.95653 0.58417 0.8705 0.0
C604 C 0.92849 0.61048 0.88892 0.0
C605 C 0.94004 0.61685 0.93728 0.0
C606 C 0.95975 0.60664 0.95233 0.0
C607 C 0.96799 0.59061 0.91914 0.0
H608 H 0.99368 0.13977 0.38539 0.0
H609 H 0.04346 0.14766 0.5145 0.0
H610 H 0.97694 0.10872 0.44248 0.0
H611 H 0.02701 0.1169 0.57104 0.0
H612 H 0.98834 0.07018 0.68362 0.0
H613 H 0.99202 0.1039 0.62847 0.0
H614 H 0.99119 0.07221 0.46729 0.0
H615 H 0.98704 0.03825 0.52292 0.0
C616 C 1.00073 0.13505 0.42646 0.0
C617 C 0.01986 0.14598 0.44567 0.0
C618 C 0.99128 0.11728 0.4588 0.0
C619 C 1.0006 0.11045 0.51127 0.0
C620 C 0.01921 0.12193 0.53126 0.0
C621 C 0.02876 0.13944 0.49873 0.0
C622 C 0.98829 0.07043 0.63642 0.0
C623 C 0.98779 0.05164 0.60739 0.0
C624 C 0.99047 0.08972 0.6049 0.0
C625 C 0.99241 0.09064 0.54366 0.0
C626 C 0.98971 0.07195 0.51452 0.0
C627 C 0.98734 0.05253 0.54627 0.0
H628 H 0.38512 0.94665 0.35727 0.0
H629 H 0.34662 0.93478 0.52204 0.0
H630 H 0.4201 0.94932 0.40849 0.0
H631 H 0.38174 0.93812 0.57343 0.0
H632 H 0.45163 0.9389 0.64915 0.0
H633 H 0.4211 0.925 0.59173 0.0
H634 H 0.43132 0.97875 0.46908 0.0
H635 H 0.46151 0.99254 0.52598 0.0
C636 C 0.38415 0.94399 0.40431 0.0
C637 C 0.36302 0.94072 0.43564 0.0
C638 C 0.40421 0.94573 0.43365 0.0
C639 C 0.40359 0.94424 0.49491 0.0
C640 C 0.38273 0.93929 0.52614 0.0
C641 C 0.36261 0.93758 0.49676 0.0
C642 C 0.44759 0.94748 0.60929 0.0
C643 C 0.45881 0.96686 0.59217 0.0
C644 C 0.43009 0.93959 0.57667 0.0
C645 C 0.42387 0.95078 0.52596 0.0
C646 C 0.43592 0.96961 0.50752 0.0
C647 C 0.4531 0.97761 0.54038 0.0
H648 H 0.46873 0.36866 0.43891 0.0
H649 H 0.53863 0.37433 0.37078 0.0
H650 H 0.47519 0.39891 0.49678 0.0
H651 H 0.54505 0.40497 0.42893 0.0
H652 H 0.48476 0.46718 0.52757 0.0
H653 H 0.48381 0.4378 0.4649 0.0
H654 H 0.54387 0.41409 0.54079 0.0
H655 H 0.5449 0.4437 0.6045 0.0
C656 C 0.48557 0.37621 0.43696 0.0
C657 C 0.50318 0.36916 0.4004 0.0
C658 C 0.4892 0.39364 0.46959 0.0
C659 C 0.51054 0.40434 0.46667 0.0
C660 C 0.52845 0.39694 0.43175 0.0
C661 C 0.52474 0.37955 0.39842 0.0
C662 C 0.49799 0.45591 0.53056 0.0
C663 C 0.51471 0.45758 0.57166 0.0
C664 C 0.49737 0.43906 0.49475 0.0
C665 C 0.5135 0.42355 0.49895 0.0
C666 C 0.53121 0.42588 0.53699 0.0
C667 C 0.53179 0.4428 0.5733 0.0
H668 H 0.13392 0.59235 0.44097 0.0
H669 H 0.08944 0.59038 0.29748 0.0
H670 H 0.10151 0.58372 0.50954 0.0
H671 H 0.05718 0.58097 0.36636 0.0
H672 H 0.03163 0.52237 0.49748 0.0
H673 H 0.05489 0.54457 0.42583 0.0
H674 H 0.06018 0.59267 0.54988 0.0
H675 H 0.0363 0.57054 0.62155 0.0
C676 C 0.11715 0.59084 0.4241 0.0
C677 C 0.11436 0.59158 0.36363 0.0
C678 C 0.09858 0.58587 0.46347 0.0
C679 C 0.07697 0.5814 0.443 0.0
C680 C 0.07375 0.58413 0.38305 0.0
C681 C 0.09225 0.58937 0.34374 0.0
C682 C 0.03725 0.53791 0.50889 0.0
C683 C 0.03232 0.54474 0.56495 0.0
C684 C 0.05042 0.55066 0.46782 0.0
C685 C 0.05927 0.57031 0.48248 0.0
C686 C 0.05346 0.5776 0.53764 0.0
C687 C 0.0398 0.56499 0.57841 0.0
H688 H 0.94508 0.87521 0.97289 0.0
H689 H 0.00737 0.84136 0.97307 0.0
H690 H 0.9657 0.90535 0.92298 0.0
H691 H 0.02749 0.87135 0.9193 0.0
H692 H 0.02142 0.92446 0.74247 0.0
H693 H 0.01254 0.89246 0.8045 0.0
H694 H 0.0081 0.92926 0.95617 0.0
H695 H 0.01764 0.96128 0.89457 0.0
C696 C 0.96315 0.87417 0.96289 0.0
C697 C 0.97452 0.8558 0.97768 0.0
C698 C 0.97489 0.89143 0.93411 0.0
C699 C 0.99812 0.8906 0.91835 0.0
C700 C 0.00957 0.87227 0.93168 0.0
C701 C 0.99793 0.85507 0.96173 0.0
C702 C 0.01953 0.92559 0.78936 0.0
C703 C 0.02014 0.94528 0.81386 0.0
C704 C 0.01448 0.90733 0.82467 0.0
C705 C 0.00961 0.9086 0.88467 0.0
C706 C 0.01197 0.92803 0.90988 0.0
C707 C 0.01752 0.94628 0.87473 0.0
H708 H 0.64781 0.00704 0.94046 0.0
H709 H 0.64716 0.07459 0.94578 0.0
H710 H 0.61182 0.00679 0.89408 0.0
H711 H 0.6104 0.07421 0.89955 0.0
H712 H 0.53829 0.00686 0.88109 0.0
H713 H 0.57204 0.01518 0.93329 0.0
H714 H 0.59338 0.06306 0.79934 0.0
H715 H 0.5591 0.05486 0.74694 0.0
C716 C 0.64016 0.02191 0.93086 0.0
C717 C 0.65042 0.04085 0.94652 0.0
C718 C 0.61935 0.02172 0.90504 0.0
C719 C 0.60819 0.04045 0.89419 0.0
C720 C 0.61867 0.05956 0.90781 0.0
C721 C 0.63958 0.05975 0.93431 0.0
C722 C 0.54984 0.01957 0.86355 0.0
C723 C 0.54633 0.03002 0.80965 0.0
C724 C 0.56918 0.02427 0.89329 0.0
C725 C 0.58551 0.03939 0.86951 0.0
C726 C 0.58102 0.05129 0.8184 0.0
C727 C 0.56143 0.04664 0.78857 0.0
H728 H 0.54798 0.62214 0.97299 0.0
H729 H 0.4773 0.6321 0.01958 0.0
H730 H 0.53671 0.59243 0.91782 0.0
H731 H 0.466 0.60238 0.9626 0.0
H732 H 0.465 0.56114 0.79034 0.0
H733 H 0.46941 0.59076 0.85315 0.0
H734 H 0.51787 0.5565 0.95123 0.0
H735 H 0.51359 0.52716 0.88918 0.0
C736 C 0.53002 0.61797 0.97155 0.0
C737 C 0.51356 0.62926 0.00153 0.0
C738 C 0.52358 0.60097 0.93988 0.0
C739 C 0.50052 0.59493 0.93696 0.0
C740 C 0.4839 0.60674 0.96446 0.0
C741 C 0.49038 0.62375 0.99677 0.0
C742 C 0.47609 0.55976 0.82635 0.0
C743 C 0.48924 0.54201 0.83429 0.0
C744 C 0.47863 0.57669 0.86212 0.0
C745 C 0.49435 0.57601 0.90602 0.0
C746 C 0.506 0.55756 0.91683 0.0
C747 C 0.50347 0.54075 0.88141 0.0
H748 H 0.91255 0.41426 0.08488 0.0
H749 H 0.87889 0.40258 0.92672 0.0
H750 H 0.9479 0.42366 0.02748 0.0
H751 H 0.91419 0.41218 0.86927 0.0
H752 H 0.98138 0.42943 0.77654 0.0
H753 H 0.95635 0.40695 0.84445 0.0
H754 H 0.95268 0.45709 0.96289 0.0
H755 H 0.97732 0.47947 0.89523 0.0
C756 C 0.91293 0.41292 0.03805 0.0
C757 C 0.89292 0.40797 0.0101 0.0
C758 C 0.93313 0.41843 0.00522 0.0
C759 C 0.93368 0.41891 0.94397 0.0
C760 C 0.91429 0.41186 0.91645 0.0
C761 C 0.89405 0.40652 0.94925 0.0
C762 C 0.97572 0.43538 0.81787 0.0
C763 C 0.98104 0.45624 0.83049 0.0
C764 C 0.96136 0.42256 0.85653 0.0
C765 C 0.95255 0.4303 0.90879 0.0
C766 C 0.9594 0.4506 0.92327 0.0
C767 C 0.97337 0.46349 0.88433 0.0
H768 H 0.06486 0.18121 0.99353 0.0
H769 H 0.13206 0.15726 0.00955 0.0
H770 H 0.05407 0.15132 0.93901 0.0
H771 H 0.12075 0.1267 0.9564 0.0
H772 H 0.09199 0.08153 0.81964 0.0
H773 H 0.10729 0.11334 0.86125 0.0
H774 H 0.04692 0.11431 0.97611 0.0
H775 H 0.03184 0.08266 0.93538 0.0
C776 C 0.07761 0.16991 0.98412 0.0
C777 C 0.09933 0.17164 0.00648 0.0
C778 C 0.07124 0.15255 0.9536 0.0
C779 C 0.08637 0.13642 0.94474 0.0
C780 C 0.10868 0.13884 0.96292 0.0
C781 C 0.1151 0.15629 0.99361 0.0
C782 C 0.08218 0.0884 0.85438 0.0
C783 C 0.06057 0.07973 0.87374 0.0
C784 C 0.09089 0.10664 0.87794 0.0
C785 C 0.07808 0.11654 0.92101 0.0
C786 C 0.05691 0.10738 0.94177 0.0
C787 C 0.04829 0.0892 0.91854 0.0
H788 H 0.32651 0.00707 0.93781 0.0
H789 H 0.37134 0.00914 0.08026 0.0
H790 H 0.35973 0.00785 0.86822 0.0
H791 H 0.40425 0.00996 0.01115 0.0
H792 H 0.45383 0.98149 0.87769 0.0
H793 H 0.42038 0.98335 0.94414 0.0
H794 H 0.39466 0.0321 0.83107 0.0
H795 H 0.42842 0.03043 0.76436 0.0
C796 C 0.34341 0.00785 0.9542 0.0
C797 C 0.34624 0.00815 0.01458 0.0
C798 C 0.3624 0.00842 0.91439 0.0
C799 C 0.38461 0.00888 0.93425 0.0
C800 C 0.38739 0.00945 0.9945 0.0
C801 C 0.36849 0.0092 0.03406 0.0
C802 C 0.4411 0.99266 0.86691 0.0
C803 C 0.44386 0.00585 0.81571 0.0
C804 C 0.42197 0.99378 0.90518 0.0
C805 C 0.40489 0.0079 0.89294 0.0
C806 C 0.40748 0.02099 0.84151 0.0
C807 C 0.42687 0.02011 0.80354 0.0
H808 H 0.45395 0.3356 0.8863 0.0
H809 H 0.42726 0.37297 0.0236 0.0
H810 H 0.45908 0.36722 0.82134 0.0
H811 H 0.43163 0.4042 0.95781 0.0
H812 H 0.43538 0.45595 0.80617 0.0
H813 H 0.42116 0.42276 0.85768 0.0
H814 H 0.48795 0.39783 0.83562 0.0
H815 H 0.50214 0.43066 0.78582 0.0
C816 C 0.44876 0.35041 0.9024 0.0
C817 C 0.44054 0.35167 0.96068 0.0
C818 C 0.45158 0.36848 0.86503 0.0
C819 C 0.44593 0.38815 0.88481 0.0
C820 C 0.43595 0.38921 0.9413 0.0
C821 C 0.43339 0.3712 0.97895 0.0
C822 C 0.4469 0.44329 0.81218 0.0
C823 C 0.4699 0.44596 0.79252 0.0
C824 C 0.43879 0.42437 0.84151 0.0
C825 C 0.45343 0.4077 0.85006 0.0
C826 C 0.4762 0.41027 0.82889 0.0
C827 C 0.48437 0.42919 0.80092 0.0
H828 H 0.18403 0.52197 0.88564 0.0
H829 H 0.14159 0.56523 0.97386 0.0
H830 H 0.15199 0.51152 0.82797 0.0
H831 H 0.10957 0.55425 0.91958 0.0
H832 H 0.06022 0.54673 0.78337 0.0
H833 H 0.09466 0.55715 0.82925 0.0
H834 H 0.11624 0.49313 0.83018 0.0
H835 H 0.08208 0.48305 0.78034 0.0
C836 C 0.16786 0.52923 0.89251 0.0
C837 C 0.16538 0.54473 0.93316 0.0
C838 C 0.14944 0.52315 0.85995 0.0
C839 C 0.12813 0.53221 0.86835 0.0
C840 C 0.12578 0.5474 0.91011 0.0
C841 C 0.14417 0.55368 0.94157 0.0
C842 C 0.07234 0.53488 0.79327 0.0
C843 C 0.06835 0.51403 0.77901 0.0
C844 C 0.0921 0.54081 0.81998 0.0
C845 C 0.10818 0.52594 0.83475 0.0
C846 C 0.10439 0.50509 0.81921 0.0
C847 C 0.08475 0.49924 0.79107 0.0
H848 H 0.94168 0.80619 0.47355 0.0
H849 H 0.89177 0.83931 0.37671 0.0
H850 H 0.95041 0.83804 0.52364 0.0
H851 H 0.8998 0.87063 0.42943 0.0
H852 H 0.91777 0.91605 0.58658 0.0
H853 H 0.90264 0.88365 0.54762 0.0
H854 H 0.96774 0.87496 0.45945 0.0
H855 H 0.98257 0.90769 0.49477 0.0
C856 C 0.9322 0.82003 0.46378 0.0
C857 C 0.91631 0.82019 0.42015 0.0
C858 C 0.93713 0.83819 0.49276 0.0
C859 C 0.92588 0.8567 0.47979 0.0
C860 C 0.90859 0.85646 0.44023 0.0
C861 C 0.90393 0.83841 0.41037 0.0
C862 C 0.92875 0.90749 0.55794 0.0
C863 C 0.95154 0.91443 0.54456 0.0
C864 C 0.92011 0.88887 0.53623 0.0
C865 C 0.93423 0.87673 0.50176 0.0
C866 C 0.95671 0.88387 0.48712 0.0
C867 C 0.96518 0.9026 0.50763 0.0
H868 H 0.64293 0.02111 0.34493 0.0
H869 H 0.67583 0.97654 0.45671 0.0
H870 H 0.60877 0.01754 0.40898 0.0
H871 H 0.64163 0.97347 0.52318 0.0
H872 H 0.56803 0.96124 0.60542 0.0
H873 H 0.60242 0.9617 0.5401 0.0
H874 H 0.59545 0.02797 0.49925 0.0
H875 H 0.56104 0.02724 0.56161 0.0
C876 C 0.64293 0.01072 0.38386 0.0
C877 C 0.66224 -0.0006 0.39628 0.0
C878 C 0.62331 0.0087 0.42091 0.0
C879 C 0.62241 0.99553 0.47228 0.0
C880 C 0.64157 0.98372 0.48404 0.0
C881 C 0.66123 0.98554 0.44619 0.0
C882 C 0.57386 0.97583 0.58211 0.0
C883 C 0.56156 0.99412 0.58825 0.0
C884 C 0.59367 0.97616 0.54493 0.0
C885 C 0.60172 0.99482 0.51348 0.0
C886 C 0.58958 0.01313 0.52106 0.0
C887 C 0.56978 0.01274 0.55736 0.0
H888 H 0.55769 0.66166 0.51965 0.0
H889 H 0.57606 0.62563 0.37185 0.0
H890 H 0.55083 0.62887 0.58049 0.0
H891 H 0.56901 0.5932 0.43227 0.0
H892 H 0.51153 0.54938 0.53667 0.0
H893 H 0.52638 0.58129 0.48191 0.0
H894 H 0.57439 0.59189 0.61367 0.0
H895 H 0.55992 0.55937 0.66824 0.0
C896 C 0.56072 0.64682 0.50058 0.0
C897 C 0.56749 0.64623 0.44108 0.0
C898 C 0.5569 0.62813 0.53534 0.0
C899 C 0.5594 0.60863 0.51078 0.0
C900 C 0.56706 0.60808 0.45209 0.0
C901 C 0.57122 0.62667 0.41771 0.0
C902 C 0.52541 0.55838 0.55373 0.0
C903 C 0.53464 0.5519 0.60655 0.0
C904 C 0.5339 0.57658 0.52237 0.0
C905 C 0.55147 0.58894 0.54375 0.0
C906 C 0.56081 0.58255 0.59651 0.0
C907 C 0.55265 0.56396 0.62736 0.0
H908 H 0.83291 0.48083 0.49103 0.0
H909 H 0.87856 0.44096 0.39992 0.0
H910 H 0.86338 0.49061 0.55452 0.0
H911 H 0.90895 0.45115 0.46077 0.0
H912 H 0.95392 0.4551 0.60789 0.0
H913 H 0.92078 0.44571 0.55528 0.0
H914 H 0.8992 0.50962 0.55873 0.0
H915 H 0.93212 0.51874 0.61464 0.0
C916 C 0.84945 0.47422 0.48463 0.0
C917 C 0.85326 0.45981 0.44144 0.0
C918 C 0.86694 0.47988 0.52066 0.0
C919 C 0.88861 0.47144 0.51352 0.0
C920 C 0.89236 0.45746 0.46911 0.0
C921 C 0.87493 0.45164 0.43395 0.0
C922 C 0.94206 0.46715 0.5977 0.0
C923 C 0.94576 0.48772 0.61473 0.0
C924 C 0.92307 0.4618 0.56713 0.0
C925 C 0.90747 0.47699 0.55148 0.0
C926 C 0.91077 0.49748 0.57019 0.0
C927 C 0.92968 0.50276 0.60192 0.0
loop_
_geom_bond_atom_site_label_1
_geom_bond_atom_site_label_2
_geom_bond_distance
_geom_bond_site_symmetry_2
_ccdc_geom_bond_type
C0 C1 1.386 . S
C0 C2 1.397 . S
C0 H24 0.931 . S
C1 C0 1.386 . S
C1 C5 1.397 1_556 S
C2 C0 1.397 . S
C2 C3 1.384 1_556 S
C2 H25 0.930 . S
C3 C2 1.384 1_554 S
C3 C4 1.377 . S
C3 C6 1.481 . S
C4 C3 1.377 . S
C4 C5 1.389 . S
C4 H26 0.929 . S
C5 C1 1.397 1_554 S
C5 C4 1.389 . S
C5 H27 0.931 . S
C6 C3 1.481 . S
C6 C7 1.387 . S
C6 C11 1.390 . S
C7 C6 1.387 . S
C7 C8 1.401 . S
C7 H28 0.930 . S
C8 C7 1.401 . S
C8 C9 1.376 . S
C8 C17 1.511 . S
C9 C8 1.376 . S
C9 C10 1.392 . S
C9 H30 0.931 . S
C10 C9 1.392 . S
C10 C11 1.361 . S
C10 C12 1.500 . S
C11 C6 1.390 . S
C11 C10 1.361 . S
C11 H29 0.931 . S
C12 C10 1.500 . S
C12 C13 1.371 . S
C12 C14 1.365 . S
C13 C12 1.371 . S
C13 C23 1.386 . S
C13 H31 0.931 . S
C14 C12 1.365 . S
C14 C15 1.409 . S
C14 H32 0.929 . S
C15 C14 1.409 . S
C15 C16 1.380 . S
C15 H33 0.930 . S
C16 C15 1.380 . S
C16 C23 1.357 . S
C17 C8 1.511 . S
C17 C18 1.341 . S
C17 C19 1.371 . S
C18 C17 1.341 . S
C18 C22 1.394 . S
C18 H34 0.930 . S
C19 C17 1.371 . S
C19 C20 1.392 . S
C19 H35 0.931 . S
C20 C19 1.392 . S
C20 C21 1.331 . S
C20 H38 0.932 . S
C21 C20 1.331 . S
C21 C22 1.336 . S
C22 C18 1.394 . S
C22 C21 1.336 . S
C22 H37 0.929 . S
C23 C13 1.386 . S
C23 C16 1.357 . S
C23 H36 0.928 . S
H24 C0 0.931 . S
H25 C2 0.930 . S
H26 C4 0.929 . S
H27 C5 0.931 . S
H28 C7 0.930 . S
H29 C11 0.931 . S
H30 C9 0.931 . S
H31 C13 0.931 . S
H32 C14 0.929 . S
H33 C15 0.930 . S
H34 C18 0.930 . S
H35 C19 0.931 . S
H36 C23 0.928 . S
H37 C22 0.929 . S
H38 C20 0.932 . S
C39 C40 1.386 . S
C39 C41 1.397 . S
C39 H63 0.931 . S
C40 C39 1.386 . S
C40 C44 1.397 . S
C41 C39 1.397 . S
C41 C42 1.384 . S
C41 H64 0.930 . S
C42 C41 1.384 . S
C42 C43 1.377 . S
C42 C45 1.481 . S
C43 C42 1.377 . S
C43 C44 1.389 . S
C43 H65 0.929 . S
C44 C40 1.397 . S
C44 C43 1.389 . S
C44 H66 0.931 . S
C45 C42 1.481 . S
C45 C46 1.387 . S
C45 C50 1.390 1_556 S
C46 C45 1.387 . S
C46 C47 1.401 . S
C46 H67 0.930 . S
C47 C46 1.401 . S
C47 C48 1.376 1_556 S
C47 C56 1.511 . S
C48 C47 1.376 1_554 S
C48 C49 1.392 . S
C48 H69 0.931 . S
C49 C48 1.392 . S
C49 C50 1.361 . S
C49 C51 1.500 . S
C50 C45 1.390 1_554 S
C50 C49 1.361 . S
C50 H68 0.931 . S
C51 C49 1.500 . S
C51 C52 1.371 . S
C51 C53 1.365 . S
C52 C51 1.371 . S
C52 C62 1.386 . S
C52 H70 0.931 . S
C53 C51 1.365 . S
C53 C54 1.409 . S
C53 H71 0.929 . S
C54 C53 1.409 . S
C54 C55 1.380 . S
C54 H72 0.930 . S
C55 C54 1.380 . S
C55 C62 1.357 . S
C56 C47 1.511 . S
C56 C57 1.341 . S
C56 C58 1.371 1_556 S
C57 C56 1.341 . S
C57 C61 1.394 . S
C57 H73 0.930 . S
C58 C56 1.371 1_554 S
C58 C59 1.397 . S
C58 H74 0.931 . S
C59 C58 1.397 . S
C59 C60 1.315 1_554 S
C59 H77 0.943 . S
C60 C59 1.315 1_556 S
C60 C61 1.336 . S
C61 C57 1.394 . S
C61 C60 1.336 . S
C61 H76 0.929 . S
C62 C52 1.386 . S
C62 C55 1.357 . S
C62 H75 0.928 . S
H63 C39 0.931 . S
H64 C41 0.930 . S
H65 C43 0.929 . S
H66 C44 0.931 . S
H67 C46 0.930 . S
H68 C50 0.931 . S
H69 C48 0.931 . S
H70 C52 0.931 . S
H71 C53 0.929 . S
H72 C54 0.930 . S
H73 C57 0.930 . S
H74 C58 0.931 . S
H75 C62 0.928 . S
H76 C61 0.929 . S
H77 C59 0.943 . S
C78 C79 1.395 . S
C78 C80 1.397 . S
C78 H102 0.931 . S
C79 C78 1.395 . S
C79 C83 1.388 1_565 S
C80 C78 1.397 . S
C80 C81 1.389 . S
C80 H103 0.930 . S
C81 C80 1.389 . S
C81 C82 1.372 1_565 S
C81 C84 1.481 1_556 S
C82 C81 1.372 1_545 S
C82 C83 1.389 . S
C82 H104 0.929 1_556 S
C83 C79 1.388 1_545 S
C83 C82 1.389 . S
C83 H105 0.931 . S
C84 C81 1.481 1_554 S
C84 C85 1.390 . S
C84 C89 1.389 . S
C85 C84 1.390 . S
C85 C86 1.403 . S
C85 H106 0.930 1_554 S
C86 C85 1.403 . S
C86 C87 1.377 . S
C86 C95 1.514 . S
C87 C86 1.377 . S
C87 C88 1.389 . S
C87 H108 0.934 . S
C88 C87 1.389 . S
C88 C89 1.361 . S
C88 C90 1.497 1_565 S
C89 C84 1.389 . S
C89 C88 1.361 . S
C89 H107 0.931 . S
C90 C88 1.497 1_545 S
C90 C91 1.363 1_545 S
C90 C92 1.375 . S
C91 C90 1.363 1_565 S
C91 C101 1.386 . S
C91 H109 0.931 . S
C92 C90 1.375 . S
C92 C93 1.409 . S
C92 H110 0.929 . S
C93 C92 1.409 . S
C93 C94 1.379 . S
C93 H111 0.930 . S
C94 C93 1.379 . S
C94 C101 1.359 1_545 S
C95 C86 1.514 . S
C95 C96 1.341 . S
C95 C97 1.371 1_565 S
C96 C95 1.341 . S
C96 C100 1.394 1_554 S
C96 H112 0.930 1_554 S
C97 C95 1.371 1_545 S
C97 C98 1.392 . S
C97 H113 0.931 . S
C98 C97 1.392 . S
C98 C99 1.320 1_545 S
C98 H116 0.932 . S
C99 C98 1.320 1_565 S
C99 C100 1.345 1_554 S
C100 C96 1.394 1_556 S
C100 C99 1.345 1_556 S
C100 H115 0.929 . S
C101 C91 1.386 . S
C101 C94 1.359 1_565 S
C101 H114 0.928 . S
H102 C78 0.931 . S
H103 C80 0.930 . S
H104 C82 0.929 1_554 S
H105 C83 0.931 . S
H106 C85 0.930 1_556 S
H107 C89 0.931 . S
H108 C87 0.934 . S
H109 C91 0.931 . S
H110 C92 0.929 . S
H111 C93 0.930 . S
H112 C96 0.930 1_556 S
H113 C97 0.931 . S
H114 C101 0.928 . S
H115 C100 0.929 . S
H116 C98 0.932 . S
C117 C118 1.386 . S
C117 C119 1.397 . S
C117 H141 0.931 . S
C118 C117 1.386 . S
C118 C122 1.397 . S
C119 C117 1.397 . S
C119 C120 1.384 . S
C119 H142 0.930 . S
C120 C119 1.384 . S
C120 C121 1.377 . S
C120 C123 1.481 . S
C121 C120 1.377 . S
C121 C122 1.389 . S
C121 H143 0.929 . S
C122 C118 1.397 . S
C122 C121 1.389 . S
C122 H144 0.931 . S
C123 C120 1.481 . S
C123 C124 1.387 . S
C123 C128 1.390 . S
C124 C123 1.387 . S
C124 C125 1.401 . S
C124 H145 0.930 . S
C125 C124 1.401 . S
C125 C126 1.376 . S
C125 C134 1.511 . S
C126 C125 1.376 . S
C126 C127 1.392 . S
C126 H147 0.931 1_554 S
C127 C126 1.392 . S
C127 C128 1.361 . S
C127 C129 1.500 . S
C128 C123 1.390 . S
C128 C127 1.361 . S
C128 H146 0.931 . S
C129 C127 1.500 . S
C129 C130 1.371 1_554 S
C129 C131 1.365 . S
C130 C129 1.371 1_556 S
C130 C140 1.386 . S
C130 H148 0.931 . S
C131 C129 1.365 . S
C131 C132 1.409 1_554 S
C131 H149 0.929 . S
C132 C131 1.409 1_556 S
C132 C133 1.380 . S
C132 H150 0.930 . S
C133 C132 1.380 . S
C133 C140 1.357 . S
C134 C125 1.511 . S
C134 C135 1.341 . S
C134 C136 1.371 . S
C135 C134 1.341 . S
C135 C139 1.394 . S
C135 H151 0.930 . S
C136 C134 1.371 . S
C136 C137 1.392 1_554 S
C136 H152 0.931 1_554 S
C137 C136 1.392 1_556 S
C137 C138 1.331 1_556 S
C137 H155 0.932 . S
C138 C137 1.331 1_554 S
C138 C139 1.336 . S
C139 C135 1.394 . S
C139 C138 1.336 . S
C139 H154 0.929 . S
C140 C130 1.386 . S
C140 C133 1.357 . S
C140 H153 0.928 . S
H141 C117 0.931 . S
H142 C119 0.930 . S
H143 C121 0.929 . S
H144 C122 0.931 . S
H145 C124 0.930 . S
H146 C128 0.931 . S
H147 C126 0.931 1_556 S
H148 C130 0.931 . S
H149 C131 0.929 . S
H150 C132 0.930 . S
H151 C135 0.930 . S
H152 C136 0.931 1_556 S
H153 C140 0.928 . S
H154 C139 0.929 . S
H155 C137 0.932 . S
C156 C157 1.386 . S
C156 C158 1.397 . S
C156 H180 0.931 . S
C157 C156 1.386 . S
C157 C161 1.397 . S
C158 C156 1.397 . S
C158 C159 1.384 . S
C158 H181 0.930 . S
C159 C158 1.384 . S
C159 C160 1.377 . S
C159 C162 1.481 . S
C160 C159 1.377 . S
C160 C161 1.389 . S
C160 H182 0.929 . S
C161 C157 1.397 . S
C161 C160 1.389 . S
C161 H183 0.931 . S
C162 C159 1.481 . S
C162 C163 1.387 . S
C162 C167 1.390 . S
C163 C162 1.387 . S
C163 C164 1.401 . S
C163 H184 0.930 . S
C164 C163 1.401 . S
C164 C165 1.376 . S
C164 C173 1.511 . S
C165 C164 1.376 . S
C165 C166 1.392 . S
C165 H186 0.931 . S
C166 C165 1.392 . S
C166 C167 1.361 . S
C166 C168 1.500 . S
C167 C162 1.390 . S
C167 C166 1.361 . S
C167 H185 0.931 . S
C168 C166 1.500 . S
C168 C169 1.371 . S
C168 C170 1.365 . S
C169 C168 1.371 . S
C169 C179 1.386 . S
C169 H187 0.931 . S
C170 C168 1.365 . S
C170 C171 1.409 . S
C170 H188 0.929 . S
C171 C170 1.409 . S
C171 C172 1.380 . S
C171 H189 0.930 . S
C172 C171 1.380 . S
C172 C179 1.357 . S
C173 C164 1.511 . S
C173 C174 1.341 . S
C173 C175 1.371 . S
C174 C173 1.341 . S
C174 C178 1.394 . S
C174 H190 0.930 . S
C175 C173 1.371 . S
C175 C176 1.392 . S
C175 H191 0.931 . S
C176 C175 1.392 . S
C176 C177 1.331 . S
C176 H194 0.932 . S
C177 C176 1.331 . S
C177 C178 1.336 . S
C178 C174 1.394 . S
C178 C177 1.336 . S
C178 H193 0.929 . S
C179 C169 1.386 . S
C179 C172 1.357 . S
C179 H192 0.928 . S
H180 C156 0.931 . S
H181 C158 0.930 . S
H182 C160 0.929 . S
H183 C161 0.931 . S
H184 C163 0.930 . S
H185 C167 0.931 . S
H186 C165 0.931 . S
H187 C169 0.931 . S
H188 C170 0.929 . S
H189 C171 0.930 . S
H190 C174 0.930 . S
H191 C175 0.931 . S
H192 C179 0.928 . S
H193 C178 0.929 . S
H194 C176 0.932 . S
C195 C196 1.386 . S
C195 C197 1.397 . S
C195 H219 0.931 . S
C196 C195 1.386 . S
C196 C200 1.397 . S
C197 C195 1.397 . S
C197 C198 1.384 . S
C197 H220 0.930 . S
C198 C197 1.384 . S
C198 C199 1.377 . S
C198 C201 1.481 . S
C199 C198 1.377 . S
C199 C200 1.389 . S
C199 H221 0.929 . S
C200 C196 1.397 . S
C200 C199 1.389 . S
C200 H222 0.931 . S
C201 C198 1.481 . S
C201 C202 1.387 . S
C201 C206 1.390 . S
C202 C201 1.387 . S
C202 C203 1.401 . S
C202 H223 0.930 . S
C203 C202 1.401 . S
C203 C204 1.376 . S
C203 C212 1.511 . S
C204 C203 1.376 . S
C204 C205 1.392 . S
C204 H225 0.931 . S
C205 C204 1.392 . S
C205 C206 1.361 . S
C205 C207 1.500 . S
C206 C201 1.390 . S
C206 C205 1.361 . S
C206 H224 0.931 . S
C207 C205 1.500 . S
C207 C208 1.371 . S
C207 C209 1.365 . S
C208 C207 1.371 . S
C208 C218 1.386 . S
C208 H226 0.931 . S
C209 C207 1.365 . S
C209 C210 1.409 . S
C209 H227 0.929 . S
C210 C209 1.409 . S
C210 C211 1.380 . S
C210 H228 0.930 . S
C211 C210 1.380 . S
C211 C218 1.357 . S
C212 C203 1.511 . S
C212 C213 1.341 . S
C212 C214 1.371 . S
C213 C212 1.341 . S
C213 C217 1.394 . S
C213 H229 0.930 . S
C214 C212 1.371 . S
C214 C215 1.392 . S
C214 H230 0.931 . S
C215 C214 1.392 . S
C215 C216 1.331 . S
C215 H233 0.932 . S
C216 C215 1.331 . S
C216 C217 1.336 . S
C217 C213 1.394 . S
C217 C216 1.336 . S
C217 H232 0.929 . S
C218 C208 1.386 . S
C218 C211 1.357 . S
C218 H231 0.928 . S
H219 C195 0.931 . S
H220 C197 0.930 . S
H221 C199 0.929 . S
H222 C200 0.931 . S
H223 C202 0.930 . S
H224 C206 0.931 . S
H225 C204 0.931 . S
H226 C208 0.931 . S
H227 C209 0.929 . S
H228 C210 0.930 . S
H229 C213 0.930 . S
H230 C214 0.931 . S
H231 C218 0.928 . S
H232 C217 0.929 . S
H233 C215 0.932 . S
C234 C235 1.387 . S
C234 C236 1.397 . S
C234 H258 0.931 . S
C235 C234 1.387 . S
C235 C239 1.396 1_565 S
C236 C234 1.397 . S
C236 C237 1.381 . S
C236 H259 0.930 . S
C237 C236 1.381 . S
C237 C238 1.380 1_565 S
C237 C240 1.480 . S
C238 C237 1.380 1_545 S
C238 C239 1.389 . S
C238 H260 0.929 . S
C239 C235 1.396 1_545 S
C239 C238 1.389 . S
C239 H261 0.931 . S
C240 C237 1.480 . S
C240 C241 1.387 . S
C240 C245 1.392 . S
C241 C240 1.387 . S
C241 C242 1.401 . S
C241 H262 0.930 . S
C242 C241 1.401 . S
C242 C243 1.375 . S
C242 C251 1.511 . S
C243 C242 1.375 . S
C243 C244 1.393 1_565 S
C243 H264 0.934 . S
C244 C243 1.393 1_545 S
C244 C245 1.361 1_545 S
C244 C246 1.502 . S
C245 C240 1.392 . S
C245 C244 1.361 1_565 S
C245 H263 0.931 . S
C246 C244 1.502 . S
C246 C247 1.356 1_545 S
C246 C248 1.379 . S
C247 C246 1.356 1_565 S
C247 C257 1.386 . S
C247 H265 0.931 . S
C248 C246 1.379 . S
C248 C249 1.409 . S
C248 H266 0.929 . S
C249 C248 1.409 . S
C249 C250 1.384 . S
C249 H267 0.930 . S
C250 C249 1.384 . S
C250 C257 1.354 1_545 S
C251 C242 1.511 . S
C251 C252 1.341 . S
C251 C253 1.371 1_565 S
C252 C251 1.341 . S
C252 C256 1.394 . S
C252 H268 0.930 . S
C253 C251 1.371 1_545 S
C253 C254 1.392 . S
C253 H269 0.931 . S
C254 C253 1.392 . S
C254 C255 1.327 1_545 S
C254 H272 0.932 . S
C255 C254 1.327 1_565 S
C255 C256 1.341 . S
C256 C252 1.394 . S
C256 C255 1.341 . S
C256 H271 0.929 . S
C257 C247 1.386 . S
C257 C250 1.354 1_565 S
C257 H270 0.928 . S
H258 C234 0.931 . S
H259 C236 0.930 . S
H260 C238 0.929 . S
H261 C239 0.931 . S
H262 C241 0.930 . S
H263 C245 0.931 . S
H264 C243 0.934 . S
H265 C247 0.931 . S
H266 C248 0.929 . S
H267 C249 0.930 . S
H268 C252 0.930 . S
H269 C253 0.931 . S
H270 C257 0.928 . S
H271 C256 0.929 . S
H272 C254 0.932 . S
C273 C274 1.386 . S
C273 C275 1.397 . S
C273 H297 0.931 . S
C274 C273 1.386 . S
C274 C278 1.397 . S
C275 C273 1.397 . S
C275 C276 1.384 . S
C275 H298 0.930 . S
C276 C275 1.384 . S
C276 C277 1.377 . S
C276 C279 1.481 . S
C277 C276 1.377 . S
C277 C278 1.389 . S
C277 H299 0.929 . S
C278 C274 1.397 . S
C278 C277 1.389 . S
C278 H300 0.931 . S
C279 C276 1.481 . S
C279 C280 1.387 . S
C279 C284 1.390 . S
C280 C279 1.387 . S
C280 C281 1.401 . S
C280 H301 0.930 . S
C281 C280 1.401 . S
C281 C282 1.376 . S
C281 C290 1.511 . S
C282 C281 1.376 . S
C282 C283 1.392 . S
C282 H303 0.931 . S
C283 C282 1.392 . S
C283 C284 1.361 . S
C283 C285 1.500 . S
C284 C279 1.390 . S
C284 C283 1.361 . S
C284 H302 0.931 . S
C285 C283 1.500 . S
C285 C286 1.371 . S
C285 C287 1.365 . S
C286 C285 1.371 . S
C286 C296 1.386 . S
C286 H304 0.931 . S
C287 C285 1.365 . S
C287 C288 1.409 . S
C287 H305 0.929 . S
C288 C287 1.409 . S
C288 C289 1.380 . S
C288 H306 0.930 . S
C289 C288 1.380 . S
C289 C296 1.357 . S
C290 C281 1.511 . S
C290 C291 1.341 . S
C290 C292 1.371 . S
C291 C290 1.341 . S
C291 C295 1.394 . S
C291 H307 0.930 . S
C292 C290 1.371 . S
C292 C293 1.392 . S
C292 H308 0.931 . S
C293 C292 1.392 . S
C293 C294 1.331 . S
C293 H311 0.932 . S
C294 C293 1.331 . S
C294 C295 1.336 . S
C295 C291 1.394 . S
C295 C294 1.336 . S
C295 H310 0.929 . S
C296 C286 1.386 . S
C296 C289 1.357 . S
C296 H309 0.928 . S
H297 C273 0.931 . S
H298 C275 0.930 . S
H299 C277 0.929 . S
H300 C278 0.931 . S
H301 C280 0.930 . S
H302 C284 0.931 . S
H303 C282 0.931 . S
H304 C286 0.931 . S
H305 C287 0.929 . S
H306 C288 0.930 . S
H307 C291 0.930 . S
H308 C292 0.931 . S
H309 C296 0.928 . S
H310 C295 0.929 . S
H311 C293 0.932 . S
C312 O328 1.251 . S
C312 O330 1.254 1_655 S
N313 C314 1.333 . S
N313 C318 1.307 . S
N313 Zn319 2.020 . S
C314 N313 1.333 . S
C314 C315 1.379 . S
C314 H332 0.952 . S
C315 C314 1.379 . S
C315 C316 1.390 . S
C315 H342 0.949 . S
C316 C315 1.390 . S
C316 C317 1.357 . S
C317 C316 1.357 . S
C317 C318 1.370 . S
C317 H343 0.950 . S
C318 N313 1.307 . S
C318 C317 1.370 . S
C318 H336 0.967 . S
Zn319 N313 2.020 . S
Zn319 O328 2.039 . S
Zn319 O334 2.034 1_655 S
Zn319 O338 2.025 1_565 S
Zn319 O340 2.040 . S
C320 O339 1.246 . S
C320 O340 1.228 1_545 S
N321 C322 1.307 . S
N321 C323 1.333 . S
N321 Zn327 2.020 . S
C322 N321 1.307 . S
C322 C326 1.370 . S
C322 H333 0.980 . S
C323 N321 1.333 . S
C323 C324 1.379 . S
C323 H331 0.952 . S
C324 C323 1.379 . S
C324 C325 1.390 . S
C324 H344 0.949 . S
C325 C324 1.390 . S
C325 C326 1.357 . S
C326 C322 1.370 . S
C326 C325 1.357 . S
C326 H345 0.950 . S
Zn327 N321 2.020 . S
Zn327 O330 2.025 1_545 S
Zn327 O335 2.024 . S
Zn327 O337 2.039 . S
Zn327 O339 2.034 1_455 S
O328 C312 1.251 . S
O328 Zn319 2.039 . S
C329 O334 1.246 . S
C329 O335 1.249 1_565 S
O330 C312 1.254 1_455 S
O330 Zn327 2.025 1_565 S
H331 C323 0.952 . S
H332 C314 0.952 . S
H333 C322 0.980 . S
O334 Zn319 2.034 1_455 S
O334 C329 1.246 . S
O335 Zn327 2.024 . S
O335 C329 1.249 1_545 S
H336 C318 0.967 . S
O337 Zn327 2.039 . S
O337 C341 1.251 . S
O338 Zn319 2.025 1_545 S
O338 C341 1.254 1_655 S
O339 C320 1.246 . S
O339 Zn327 2.034 1_655 S
O340 Zn319 2.040 . S
O340 C320 1.228 1_565 S
C341 O337 1.251 . S
C341 O338 1.254 1_455 S
H342 C315 0.949 . S
H343 C317 0.950 . S
H344 C324 0.949 . S
H345 C326 0.950 . S
C346 O362 1.251 1_565 S
C346 O364 1.254 . S
N347 C348 1.333 . S
N347 C352 1.307 . S
N347 Zn353 2.020 . S
C348 N347 1.333 . S
C348 C349 1.379 . S
C348 H366 0.952 . S
C349 C348 1.379 . S
C349 C350 1.390 . S
C349 H376 0.949 . S
C350 C349 1.390 . S
C350 C351 1.357 . S
C351 C350 1.357 . S
C351 C352 1.370 . S
C351 H377 0.950 . S
C352 N347 1.307 . S
C352 C351 1.370 . S
C352 H370 0.948 . S
Zn353 N347 2.020 . S
Zn353 O362 2.039 . S
Zn353 O368 2.034 . S
Zn353 O372 2.025 . S
Zn353 O374 2.024 . S
C354 O373 1.246 1_545 S
C354 O374 1.249 . S
N355 C356 1.307 . S
N355 C357 1.333 . S
N355 Zn361 2.020 . S
C356 N355 1.307 . S
C356 C360 1.370 . S
C356 H367 0.948 . S
C357 N355 1.333 . S
C357 C358 1.379 . S
C357 H365 0.952 . S
C358 C357 1.379 . S
C358 C359 1.390 . S
C358 H378 0.949 . S
C359 C358 1.390 . S
C359 C360 1.357 . S
C360 C356 1.370 . S
C360 C359 1.357 . S
C360 H379 0.950 . S
Zn361 N355 2.020 . S
Zn361 O364 2.025 . S
Zn361 O369 2.024 . S
Zn361 O371 2.039 . S
Zn361 O373 2.034 . S
O362 C346 1.251 1_545 S
O362 Zn353 2.039 . S
C363 O368 1.246 1_565 S
C363 O369 1.249 . S
O364 C346 1.254 . S
O364 Zn361 2.025 . S
H365 C357 0.952 . S
H366 C348 0.952 . S
H367 C356 0.948 . S
O368 Zn353 2.034 . S
O368 C363 1.246 1_545 S
O369 Zn361 2.024 . S
O369 C363 1.249 . S
H370 C352 0.948 . S
O371 Zn361 2.039 . S
O371 C375 1.251 1_565 S
O372 Zn353 2.025 . S
O372 C375 1.254 . S
O373 C354 1.246 1_565 S
O373 Zn361 2.034 . S
O374 Zn353 2.024 . S
O374 C354 1.249 . S
C375 O371 1.251 1_545 S
C375 O372 1.254 . S
H376 C349 0.949 . S
H377 C351 0.950 . S
H378 C358 0.949 . S
H379 C360 0.950 . S
C380 O396 1.251 . S
C380 O398 1.254 . S
N381 C382 1.333 . S
N381 C386 1.307 . S
N381 Zn387 2.020 . S
C382 N381 1.333 . S
C382 C383 1.379 . S
C382 H400 0.952 . S
C383 C382 1.379 . S
C383 C384 1.390 . S
C383 H410 0.949 . S
C384 C383 1.390 . S
C384 C385 1.357 . S
C385 C384 1.357 . S
C385 C386 1.370 . S
C385 H411 0.950 . S
C386 N381 1.307 . S
C386 C385 1.370 . S
C386 H404 0.948 . S
Zn387 N381 2.020 . S
Zn387 O396 2.039 . S
Zn387 O402 2.034 . S
Zn387 O406 2.025 . S
Zn387 O408 2.024 . S
C388 O407 1.246 . S
C388 O408 1.249 . S
N389 C390 1.307 . S
N389 C391 1.333 . S
N389 Zn395 2.020 . S
C390 N389 1.307 . S
C390 C394 1.370 . S
C390 H401 0.948 . S
C391 N389 1.333 . S
C391 C392 1.379 . S
C391 H399 0.952 . S
C392 C391 1.379 . S
C392 C393 1.390 . S
C392 H412 0.949 . S
C393 C392 1.390 . S
C393 C394 1.357 . S
C394 C390 1.370 . S
C394 C393 1.357 . S
C394 H413 0.950 . S
Zn395 N389 2.020 . S
Zn395 O398 2.025 . S
Zn395 O403 2.024 . S
Zn395 O405 2.039 . S
Zn395 O407 2.034 . S
O396 C380 1.251 . S
O396 Zn387 2.039 . S
C397 O402 1.246 . S
C397 O403 1.249 . S
O398 C380 1.254 . S
O398 Zn395 2.025 . S
H399 C391 0.952 . S
H400 C382 0.952 . S
H401 C390 0.948 . S
O402 Zn387 2.034 . S
O402 C397 1.246 . S
O403 Zn395 2.024 . S
O403 C397 1.249 . S
H404 C386 0.948 . S
O405 Zn395 2.039 . S
O405 C409 1.251 . S
O406 Zn387 2.025 . S
O406 C409 1.254 . S
O407 C388 1.246 . S
O407 Zn395 2.034 . S
O408 Zn387 2.024 . S
O408 C388 1.249 . S
C409 O405 1.251 . S
C409 O406 1.254 . S
H410 C383 0.949 . S
H411 C385 0.950 . S
H412 C392 0.949 . S
H413 C394 0.950 . S
C414 O430 1.251 . S
C414 O432 1.254 . S
N415 C416 1.333 . S
N415 C420 1.307 . S
N415 Zn421 2.020 . S
C416 N415 1.333 . S
C416 C417 1.379 . S
C416 H434 0.952 . S
C417 C416 1.379 . S
C417 C418 1.390 . S
C417 H444 0.949 . S
C418 C417 1.390 . S
C418 C419 1.357 . S
C419 C418 1.357 . S
C419 C420 1.370 . S
C419 H445 0.950 . S
C420 N415 1.307 . S
C420 C419 1.370 . S
C420 H438 0.948 . S
Zn421 N415 2.020 . S
Zn421 O430 2.039 . S
Zn421 O436 2.034 1_455 S
Zn421 O440 2.025 1_455 S
Zn421 O442 2.024 . S
C422 O441 1.246 . S
C422 O442 1.249 . S
N423 C424 1.307 . S
N423 C425 1.333 . S
N423 Zn429 2.020 . S
C424 N423 1.307 . S
C424 C428 1.370 . S
C424 H435 0.948 . S
C425 N423 1.333 . S
C425 C426 1.379 . S
C425 H433 0.952 . S
C426 C425 1.379 . S
C426 C427 1.390 . S
C426 H446 0.949 . S
C427 C426 1.390 . S
C427 C428 1.357 . S
C428 C424 1.370 . S
C428 C427 1.357 . S
C428 H447 0.950 . S
Zn429 N423 2.020 . S
Zn429 O432 2.025 1_655 S
Zn429 O437 2.024 . S
Zn429 O439 2.039 . S
Zn429 O441 2.034 1_655 S
O430 C414 1.251 . S
O430 Zn421 2.039 . S
C431 O436 1.246 . S
C431 O437 1.249 . S
O432 C414 1.254 . S
O432 Zn429 2.025 1_455 S
H433 C425 0.952 . S
H434 C416 0.952 . S
H435 C424 0.948 . S
O436 Zn421 2.034 1_655 S
O436 C431 1.246 . S
O437 Zn429 2.024 . S
O437 C431 1.249 . S
H438 C420 0.948 . S
O439 Zn429 2.039 . S
O439 C443 1.251 . S
O440 Zn421 2.025 1_655 S
O440 C443 1.254 . S
O441 C422 1.246 . S
O441 Zn429 2.034 1_455 S
O442 Zn421 2.024 . S
O442 C422 1.249 . S
C443 O439 1.251 . S
C443 O440 1.254 . S
H444 C417 0.949 . S
H445 C419 0.950 . S
H446 C426 0.949 . S
H447 C428 0.950 . S
H448 C456 0.950 . S
H449 C461 0.950 . S
H450 C458 0.950 . S
H451 C460 0.950 . S
H452 C462 0.950 . S
H453 C464 0.950 . S
H454 C466 0.950 . S
H455 C467 0.950 . S
C456 H448 0.950 . S
C456 C457 1.416 . S
C456 C458 1.391 . S
C457 C456 1.416 . S
C457 C461 1.362 1_565 S
C458 H450 0.950 . S
C458 C456 1.391 . S
C458 C459 1.400 . S
C459 C458 1.400 . S
C459 C460 1.398 1_565 S
C459 C465 1.491 . S
C460 H451 0.950 . S
C460 C459 1.398 1_545 S
C460 C461 1.391 . S
C461 H449 0.950 . S
C461 C457 1.362 1_545 S
C461 C460 1.391 . S
C462 H452 0.950 . S
C462 C463 1.386 1_545 S
C462 C464 1.391 . S
C463 C462 1.386 1_565 S
C463 C467 1.393 . S
C464 H453 0.950 . S
C464 C462 1.391 . S
C464 C465 1.400 1_545 S
C465 C459 1.491 . S
C465 C464 1.400 1_565 S
C465 C466 1.398 . S
C466 H454 0.950 . S
C466 C465 1.398 . S
C466 C467 1.391 . S
C467 H455 0.950 . S
C467 C463 1.393 . S
C467 C466 1.391 . S
H468 C476 0.950 . S
H469 C481 0.950 . S
H470 C478 0.950 . S
H471 C480 0.950 . S
H472 C482 0.950 . S
H473 C484 0.950 . S
H474 C486 0.950 . S
H475 C487 0.950 . S
C476 H468 0.950 . S
C476 C477 1.386 . S
C476 C478 1.391 . S
C477 C476 1.386 . S
C477 C481 1.393 . S
C478 H470 0.950 . S
C478 C476 1.391 . S
C478 C479 1.400 . S
C479 C478 1.400 . S
C479 C480 1.398 . S
C479 C485 1.491 . S
C480 H471 0.950 . S
C480 C479 1.398 . S
C480 C481 1.391 . S
C481 H469 0.950 . S
C481 C477 1.393 . S
C481 C480 1.391 . S
C482 H472 0.950 . S
C482 C483 1.386 . S
C482 C484 1.391 . S
C483 C482 1.386 . S
C483 C487 1.393 . S
C484 H473 0.950 . S
C484 C482 1.391 . S
C484 C485 1.400 . S
C485 C479 1.491 . S
C485 C484 1.400 . S
C485 C486 1.398 . S
C486 H474 0.950 . S
C486 C485 1.398 . S
C486 C487 1.391 . S
C487 H475 0.950 . S
C487 C483 1.393 . S
C487 C486 1.391 . S
H488 C496 0.950 . S
H489 C501 0.950 . S
H490 C498 0.950 . S
H491 C500 0.950 . S
H492 C502 0.950 . S
H493 C504 0.950 . S
H494 C506 0.950 . S
H495 C507 0.950 . S
C496 H488 0.950 . S
C496 C497 1.386 . S
C496 C498 1.391 . S
C497 C496 1.386 . S
C497 C501 1.393 . S
C498 H490 0.950 . S
C498 C496 1.391 . S
C498 C499 1.400 . S
C499 C498 1.400 . S
C499 C500 1.398 . S
C499 C505 1.491 . S
C500 H491 0.950 . S
C500 C499 1.398 . S
C500 C501 1.391 . S
C501 H489 0.950 . S
C501 C497 1.393 . S
C501 C500 1.391 . S
C502 H492 0.950 . S
C502 C503 1.386 . S
C502 C504 1.391 . S
C503 C502 1.386 . S
C503 C507 1.393 . S
C504 H493 0.950 . S
C504 C502 1.391 . S
C504 C505 1.400 . S
C505 C499 1.491 . S
C505 C504 1.400 . S
C505 C506 1.398 . S
C506 H494 0.950 . S
C506 C505 1.398 . S
C506 C507 1.391 . S
C507 H495 0.950 . S
C507 C503 1.393 . S
C507 C506 1.391 . S
H508 C516 0.950 . S
H509 C521 0.950 . S
H510 C518 0.950 . S
H511 C520 0.950 . S
H512 C522 0.950 . S
H513 C524 0.950 . S
H514 C526 0.950 . S
H515 C527 0.950 . S
C516 H508 0.950 . S
C516 C517 1.386 . S
C516 C518 1.391 . S
C517 C516 1.386 . S
C517 C521 1.393 . S
C518 H510 0.950 . S
C518 C516 1.391 . S
C518 C519 1.400 . S
C519 C518 1.400 . S
C519 C520 1.398 . S
C519 C525 1.491 . S
C520 H511 0.950 . S
C520 C519 1.398 . S
C520 C521 1.391 . S
C521 H509 0.950 . S
C521 C517 1.393 . S
C521 C520 1.391 . S
C522 H512 0.950 . S
C522 C523 1.386 . S
C522 C524 1.391 . S
C523 C522 1.386 . S
C523 C527 1.393 . S
C524 H513 0.950 . S
C524 C522 1.391 . S
C524 C525 1.400 . S
C525 C519 1.491 . S
C525 C524 1.400 . S
C525 C526 1.398 . S
C526 H514 0.950 . S
C526 C525 1.398 . S
C526 C527 1.391 . S
C527 H515 0.950 . S
C527 C523 1.393 . S
C527 C526 1.391 . S
H528 C536 0.950 . S
H529 C541 0.950 . S
H530 C538 0.950 . S
H531 C540 0.950 . S
H532 C542 0.950 . S
H533 C544 0.950 . S
H534 C546 0.950 . S
H535 C547 0.950 . S
C536 H528 0.950 . S
C536 C537 1.342 1_565 S
C536 C538 1.391 . S
C537 C536 1.342 1_545 S
C537 C541 1.436 . S
C538 H530 0.950 . S
C538 C536 1.391 . S
C538 C539 1.400 1_565 S
C539 C538 1.400 1_545 S
C539 C540 1.398 . S
C539 C545 1.491 . S
C540 H531 0.950 . S
C540 C539 1.398 . S
C540 C541 1.391 . S
C541 H529 0.950 . S
C541 C537 1.436 . S
C541 C540 1.391 . S
C542 H532 0.950 . S
C542 C543 1.386 . S
C542 C544 1.391 . S
C543 C542 1.386 . S
C543 C547 1.393 1_545 S
C544 H533 0.950 . S
C544 C542 1.391 . S
C544 C545 1.400 . S
C545 C539 1.491 . S
C545 C544 1.400 . S
C545 C546 1.398 1_545 S
C546 H534 0.950 . S
C546 C545 1.398 1_565 S
C546 C547 1.391 . S
C547 H535 0.950 . S
C547 C543 1.393 1_565 S
C547 C546 1.391 . S
H548 C556 0.950 1_554 S
H549 C561 0.950 . S
H550 C558 0.950 . S
H551 C560 0.950 . S
H552 C562 0.950 . S
H553 C564 0.950 . S
H554 C566 0.950 . S
H555 C567 0.950 . S
C556 H548 0.950 1_556 S
C556 C557 1.386 . S
C556 C558 1.391 . S
C557 C556 1.386 . S
C557 C561 1.393 . S
C558 H550 0.950 . S
C558 C556 1.391 . S
C558 C559 1.400 . S
C559 C558 1.400 . S
C559 C560 1.398 . S
C559 C565 1.491 . S
C560 H551 0.950 . S
C560 C559 1.398 . S
C560 C561 1.391 . S
C561 H549 0.950 . S
C561 C557 1.393 . S
C561 C560 1.391 . S
C562 H552 0.950 . S
C562 C563 1.386 . S
C562 C564 1.391 . S
C563 C562 1.386 . S
C563 C567 1.393 . S
C564 H553 0.950 . S
C564 C562 1.391 . S
C564 C565 1.400 . S
C565 C559 1.491 . S
C565 C564 1.400 . S
C565 C566 1.398 . S
C566 H554 0.950 . S
C566 C565 1.398 . S
C566 C567 1.391 . S
C567 H555 0.950 . S
C567 C563 1.393 . S
C567 C566 1.391 . S
H568 C576 0.950 . S
H569 C581 0.950 . S
H570 C578 0.950 . S
H571 C580 0.950 . S
H572 C582 0.950 . S
H573 C584 0.950 . S
H574 C586 0.950 . S
H575 C587 0.950 . S
C576 H568 0.950 . S
C576 C577 1.386 1_556 S
C576 C578 1.391 . S
C577 C576 1.386 1_554 S
C577 C581 1.393 . S
C578 H570 0.950 . S
C578 C576 1.391 . S
C578 C579 1.400 . S
C579 C578 1.400 . S
C579 C580 1.398 1_556 S
C579 C585 1.491 . S
C580 H571 0.950 . S
C580 C579 1.398 1_554 S
C580 C581 1.391 . S
C581 H569 0.950 . S
C581 C577 1.393 . S
C581 C580 1.391 . S
C582 H572 0.950 . S
C582 C583 1.386 . S
C582 C584 1.391 . S
C583 C582 1.386 . S
C583 C587 1.393 . S
C584 H573 0.950 . S
C584 C582 1.391 . S
C584 C585 1.400 . S
C585 C579 1.491 . S
C585 C584 1.400 . S
C585 C586 1.398 . S
C586 H574 0.950 . S
C586 C585 1.398 . S
C586 C587 1.391 . S
C587 H575 0.950 . S
C587 C583 1.393 . S
C587 C586 1.391 . S
H588 C596 0.950 . S
H589 C601 0.950 . S
H590 C598 0.950 . S
H591 C600 0.950 . S
H592 C602 0.950 . S
H593 C604 0.950 . S
H594 C606 0.950 . S
H595 C607 0.950 . S
C596 H588 0.950 . S
C596 C597 1.386 . S
C596 C598 1.391 . S
C597 C596 1.386 . S
C597 C601 1.393 . S
C598 H590 0.950 . S
C598 C596 1.391 . S
C598 C599 1.400 . S
C599 C598 1.400 . S
C599 C600 1.398 . S
C599 C605 1.491 . S
C600 H591 0.950 . S
C600 C599 1.398 . S
C600 C601 1.391 . S
C601 H589 0.950 . S
C601 C597 1.393 . S
C601 C600 1.391 . S
C602 H592 0.950 . S
C602 C603 1.386 . S
C602 C604 1.391 . S
C603 C602 1.386 . S
C603 C607 1.393 . S
C604 H593 0.950 . S
C604 C602 1.391 . S
C604 C605 1.400 . S
C605 C599 1.491 . S
C605 C604 1.400 . S
C605 C606 1.398 . S
C606 H594 0.950 . S
C606 C605 1.398 . S
C606 C607 1.391 . S
C607 H595 0.950 . S
C607 C603 1.393 . S
C607 C606 1.391 . S
H608 C616 0.950 . S
H609 C621 0.950 . S
H610 C618 0.950 . S
H611 C620 0.950 . S
H612 C622 0.950 . S
H613 C624 0.950 . S
H614 C626 0.950 . S
H615 C627 0.950 . S
C616 H608 0.950 . S
C616 C617 1.386 . S
C616 C618 1.391 . S
C617 C616 1.386 . S
C617 C621 1.393 . S
C618 H610 0.950 . S
C618 C616 1.391 . S
C618 C619 1.400 . S
C619 C618 1.400 . S
C619 C620 1.398 . S
C619 C625 1.491 . S
C620 H611 0.950 . S
C620 C619 1.398 . S
C620 C621 1.391 . S
C621 H609 0.950 . S
C621 C617 1.393 . S
C621 C620 1.391 . S
C622 H612 0.950 . S
C622 C623 1.386 . S
C622 C624 1.391 . S
C623 C622 1.386 . S
C623 C627 1.393 . S
C624 H613 0.950 . S
C624 C622 1.391 . S
C624 C625 1.400 . S
C625 C619 1.491 . S
C625 C624 1.400 . S
C625 C626 1.398 . S
C626 H614 0.950 . S
C626 C625 1.398 . S
C626 C627 1.391 . S
C627 H615 0.950 . S
C627 C623 1.393 . S
C627 C626 1.391 . S
H628 C636 0.950 . S
H629 C641 0.950 . S
H630 C638 0.950 . S
H631 C640 0.950 . S
H632 C642 0.950 . S
H633 C644 0.950 . S
H634 C646 0.950 . S
H635 C647 0.950 . S
C636 H628 0.950 . S
C636 C637 1.386 1_565 S
C636 C638 1.391 . S
C637 C636 1.386 1_545 S
C637 C641 1.393 . S
C638 H630 0.950 . S
C638 C636 1.391 . S
C638 C639 1.400 . S
C639 C638 1.400 . S
C639 C640 1.398 1_565 S
C639 C645 1.491 . S
C640 H631 0.950 . S
C640 C639 1.398 1_545 S
C640 C641 1.391 . S
C641 H629 0.950 . S
C641 C637 1.393 . S
C641 C640 1.391 . S
C642 H632 0.950 . S
C642 C643 1.386 1_545 S
C642 C644 1.391 . S
C643 C642 1.386 1_565 S
C643 C647 1.393 . S
C644 H633 0.950 . S
C644 C642 1.391 . S
C644 C645 1.400 1_545 S
C645 C639 1.491 . S
C645 C644 1.400 1_565 S
C645 C646 1.398 . S
C646 H634 0.950 . S
C646 C645 1.398 . S
C646 C647 1.391 . S
C647 H635 0.950 . S
C647 C643 1.393 . S
C647 C646 1.391 . S
H648 C656 0.950 . S
H649 C661 0.950 . S
H650 C658 0.950 . S
H651 C660 0.950 . S
H652 C662 0.950 . S
H653 C664 0.950 . S
H654 C666 0.950 . S
H655 C667 0.950 . S
C656 H648 0.950 . S
C656 C657 1.386 . S
C656 C658 1.391 . S
C657 C656 1.386 . S
C657 C661 1.393 . S
C658 H650 0.950 . S
C658 C656 1.391 . S
C658 C659 1.400 . S
C659 C658 1.400 . S
C659 C660 1.398 . S
C659 C665 1.491 . S
C660 H651 0.950 . S
C660 C659 1.398 . S
C660 C661 1.391 . S
C661 H649 0.950 . S
C661 C657 1.393 . S
C661 C660 1.391 . S
C662 H652 0.950 . S
C662 C663 1.386 . S
C662 C664 1.391 . S
C663 C662 1.386 . S
C663 C667 1.393 . S
C664 H653 0.950 . S
C664 C662 1.391 . S
C664 C665 1.400 . S
C665 C659 1.491 . S
C665 C664 1.400 . S
C665 C666 1.398 . S
C666 H654 0.950 . S
C666 C665 1.398 . S
C666 C667 1.391 . S
C667 H655 0.950 . S
C667 C663 1.393 . S
C667 C666 1.391 . S
H668 C676 0.950 . S
H669 C681 0.950 . S
H670 C678 0.950 . S
H671 C680 0.950 . S
H672 C682 0.950 . S
H673 C684 0.950 . S
H674 C686 0.950 . S
H675 C687 0.950 . S
C676 H668 0.950 . S
C676 C677 1.386 . S
C676 C678 1.391 . S
C677 C676 1.386 . S
C677 C681 1.393 . S
C678 H670 0.950 . S
C678 C676 1.391 . S
C678 C679 1.400 . S
C679 C678 1.400 . S
C679 C680 1.398 . S
C679 C685 1.491 . S
C680 H671 0.950 . S
C680 C679 1.398 . S
C680 C681 1.391 . S
C681 H669 0.950 . S
C681 C677 1.393 . S
C681 C680 1.391 . S
C682 H672 0.950 . S
C682 C683 1.386 . S
C682 C684 1.391 . S
C683 C682 1.386 . S
C683 C687 1.393 . S
C684 H673 0.950 . S
C684 C682 1.391 . S
C684 C685 1.400 . S
C685 C679 1.491 . S
C685 C684 1.400 . S
C685 C686 1.398 . S
C686 H674 0.950 . S
C686 C685 1.398 . S
C686 C687 1.391 . S
C687 H675 0.950 . S
C687 C683 1.393 . S
C687 C686 1.391 . S
H688 C696 0.950 . S
H689 C701 0.950 . S
H690 C698 0.950 . S
H691 C700 0.950 . S
H692 C702 0.954 . S
H693 C704 0.950 . S
H694 C706 0.950 . S
H695 C707 0.950 . S
C696 H688 0.950 . S
C696 C697 1.386 . S
C696 C698 1.391 . S
C697 C696 1.386 . S
C697 C701 1.393 . S
C698 H690 0.950 . S
C698 C696 1.391 . S
C698 C699 1.400 . S
C699 C698 1.400 . S
C699 C700 1.398 . S
C699 C705 1.491 . S
C700 H691 0.950 . S
C700 C699 1.398 . S
C700 C701 1.391 . S
C701 H689 0.950 . S
C701 C697 1.393 . S
C701 C700 1.391 . S
C702 H692 0.954 . S
C702 C703 1.385 1_455 S
C702 C704 1.388 1_455 S
C703 C702 1.385 1_655 S
C703 C707 1.393 . S
C704 H693 0.950 . S
C704 C702 1.388 1_655 S
C704 C705 1.400 . S
C705 C699 1.491 . S
C705 C704 1.400 . S
C705 C706 1.398 . S
C706 H694 0.950 . S
C706 C705 1.398 . S
C706 C707 1.391 . S
C707 H695 0.950 . S
C707 C703 1.393 . S
C707 C706 1.391 . S
H708 C716 0.950 . S
H709 C721 0.950 . S
H710 C718 0.950 . S
H711 C720 0.950 . S
H712 C722 0.950 . S
H713 C724 0.950 . S
H714 C726 0.950 . S
H715 C727 0.950 . S
C716 H708 0.950 . S
C716 C717 1.416 . S
C716 C718 1.391 . S
C717 C716 1.416 . S
C717 C721 1.359 1_565 S
C718 H710 0.950 . S
C718 C716 1.391 . S
C718 C719 1.400 1_565 S
C719 C718 1.400 1_545 S
C719 C720 1.398 . S
C719 C725 1.491 . S
C720 H711 0.950 . S
C720 C719 1.398 . S
C720 C721 1.391 . S
C721 H709 0.950 . S
C721 C717 1.359 1_545 S
C721 C720 1.391 . S
C722 H712 0.950 . S
C722 C723 1.386 . S
C722 C724 1.391 . S
C723 C722 1.386 . S
C723 C727 1.393 1_545 S
C724 H713 0.950 . S
C724 C722 1.391 . S
C724 C725 1.400 . S
C725 C719 1.491 . S
C725 C724 1.400 . S
C725 C726 1.398 1_545 S
C726 H714 0.950 . S
C726 C725 1.398 1_565 S
C726 C727 1.391 . S
C727 H715 0.950 . S
C727 C723 1.393 1_565 S
C727 C726 1.391 . S
H728 C736 0.950 . S
H729 C741 0.950 . S
H730 C738 0.950 . S
H731 C740 0.950 . S
H732 C742 0.950 . S
H733 C744 0.950 . S
H734 C746 0.950 . S
H735 C747 0.950 . S
C736 H728 0.950 . S
C736 C737 1.386 . S
C736 C738 1.391 . S
C737 C736 1.386 . S
C737 C741 1.393 . S
C738 H730 0.950 . S
C738 C736 1.391 . S
C738 C739 1.400 . S
C739 C738 1.400 . S
C739 C740 1.398 . S
C739 C745 1.491 . S
C740 H731 0.950 . S
C740 C739 1.398 . S
C740 C741 1.391 . S
C741 H729 0.950 . S
C741 C737 1.393 . S
C741 C740 1.391 . S
C742 H732 0.950 . S
C742 C743 1.386 . S
C742 C744 1.391 . S
C743 C742 1.386 . S
C743 C747 1.393 . S
C744 H733 0.950 . S
C744 C742 1.391 . S
C744 C745 1.400 . S
C745 C739 1.491 . S
C745 C744 1.400 . S
C745 C746 1.398 . S
C746 H734 0.950 . S
C746 C745 1.398 . S
C746 C747 1.391 . S
C747 H735 0.950 . S
C747 C743 1.393 . S
C747 C746 1.391 . S
H748 C756 0.950 1_554 S
H749 C761 0.950 . S
H750 C758 0.950 . S
H751 C760 0.950 . S
H752 C762 0.950 . S
H753 C764 0.950 . S
H754 C766 0.950 . S
H755 C767 0.950 . S
C756 H748 0.950 1_556 S
C756 C757 1.386 . S
C756 C758 1.391 . S
C757 C756 1.386 . S
C757 C761 1.393 . S
C758 H750 0.950 . S
C758 C756 1.391 . S
C758 C759 1.400 . S
C759 C758 1.400 . S
C759 C760 1.398 . S
C759 C765 1.491 . S
C760 H751 0.950 . S
C760 C759 1.398 . S
C760 C761 1.391 . S
C761 H749 0.950 . S
C761 C757 1.393 . S
C761 C760 1.391 . S
C762 H752 0.950 . S
C762 C763 1.386 . S
C762 C764 1.391 . S
C763 C762 1.386 . S
C763 C767 1.393 . S
C764 H753 0.950 . S
C764 C762 1.391 . S
C764 C765 1.400 . S
C765 C759 1.491 . S
C765 C764 1.400 . S
C765 C766 1.398 . S
C766 H754 0.950 . S
C766 C765 1.398 . S
C766 C767 1.391 . S
C767 H755 0.950 . S
C767 C763 1.393 . S
C767 C766 1.391 . S
H768 C776 0.950 . S
H769 C781 0.950 . S
H770 C778 0.950 . S
H771 C780 0.950 . S
H772 C782 0.950 . S
H773 C784 0.950 . S
H774 C786 0.950 . S
H775 C787 0.950 . S
C776 H768 0.950 . S
C776 C777 1.386 . S
C776 C778 1.391 . S
C777 C776 1.386 . S
C777 C781 1.393 . S
C778 H770 0.950 . S
C778 C776 1.391 . S
C778 C779 1.400 . S
C779 C778 1.400 . S
C779 C780 1.398 . S
C779 C785 1.491 . S
C780 H771 0.950 . S
C780 C779 1.398 . S
C780 C781 1.391 . S
C781 H769 0.950 . S
C781 C777 1.393 . S
C781 C780 1.391 . S
C782 H772 0.950 . S
C782 C783 1.386 . S
C782 C784 1.391 . S
C783 C782 1.386 . S
C783 C787 1.393 . S
C784 H773 0.950 . S
C784 C782 1.391 . S
C784 C785 1.400 1_556 S
C785 C779 1.491 . S
C785 C784 1.400 1_554 S
C785 C786 1.398 . S
C786 H774 0.950 . S
C786 C785 1.398 . S
C786 C787 1.391 1_554 S
C787 H775 0.950 . S
C787 C783 1.393 . S
C787 C786 1.391 1_556 S
H788 C796 0.950 . S
H789 C801 0.950 . S
H790 C798 0.950 . S
H791 C800 0.950 . S
H792 C802 0.950 . S
H793 C804 0.950 . S
H794 C806 0.950 . S
H795 C807 0.950 . S
C796 H788 0.950 . S
C796 C797 1.386 1_556 S
C796 C798 1.391 . S
C797 C796 1.386 1_554 S
C797 C801 1.393 1_545 S
C798 H790 0.950 . S
C798 C796 1.391 . S
C798 C799 1.400 . S
C799 C798 1.400 . S
C799 C800 1.398 1_546 S
C799 C805 1.491 . S
C800 H791 0.950 . S
C800 C799 1.398 1_564 S
C800 C801 1.391 . S
C801 H789 0.950 . S
C801 C797 1.393 1_565 S
C801 C800 1.391 . S
C802 H792 0.950 . S
C802 C803 1.386 1_565 S
C802 C804 1.391 . S
C803 C802 1.386 1_545 S
C803 C807 1.393 . S
C804 H793 0.950 . S
C804 C802 1.391 . S
C804 C805 1.400 1_565 S
C805 C799 1.491 . S
C805 C804 1.400 1_545 S
C805 C806 1.398 . S
C806 H794 0.950 . S
C806 C805 1.398 . S
C806 C807 1.391 . S
C807 H795 0.950 . S
C807 C803 1.393 . S
C807 C806 1.391 . S
H808 C816 0.950 . S
H809 C821 0.950 . S
H810 C818 0.950 . S
H811 C820 0.950 . S
H812 C822 0.950 . S
H813 C824 0.950 . S
H814 C826 0.950 . S
H815 C827 0.950 . S
C816 H808 0.950 . S
C816 C817 1.386 . S
C816 C818 1.391 1_554 S
C817 C816 1.386 . S
C817 C821 1.393 1_554 S
C818 H810 0.950 . S
C818 C816 1.391 1_556 S
C818 C819 1.400 . S
C819 C818 1.400 . S
C819 C820 1.398 . S
C819 C825 1.491 . S
C820 H811 0.950 . S
C820 C819 1.398 . S
C820 C821 1.391 . S
C821 H809 0.950 . S
C821 C817 1.393 1_556 S
C821 C820 1.391 . S
C822 H812 0.950 . S
C822 C823 1.386 . S
C822 C824 1.391 . S
C823 C822 1.386 . S
C823 C827 1.393 . S
C824 H813 0.950 . S
C824 C822 1.391 . S
C824 C825 1.400 . S
C825 C819 1.491 . S
C825 C824 1.400 . S
C825 C826 1.398 . S
C826 H814 0.950 . S
C826 C825 1.398 . S
C826 C827 1.391 . S
C827 H815 0.950 . S
C827 C823 1.393 . S
C827 C826 1.391 . S
H828 C836 0.950 1_554 S
H829 C841 0.950 . S
H830 C838 0.950 . S
H831 C840 0.950 . S
H832 C842 0.950 . S
H833 C844 0.950 . S
H834 C846 0.950 . S
H835 C847 0.950 . S
C836 H828 0.950 1_556 S
C836 C837 1.386 . S
C836 C838 1.391 . S
C837 C836 1.386 . S
C837 C841 1.393 . S
C838 H830 0.950 . S
C838 C836 1.391 . S
C838 C839 1.400 . S
C839 C838 1.400 . S
C839 C840 1.398 . S
C839 C845 1.491 . S
C840 H831 0.950 . S
C840 C839 1.398 . S
C840 C841 1.391 . S
C841 H829 0.950 . S
C841 C837 1.393 . S
C841 C840 1.391 . S
C842 H832 0.950 . S
C842 C843 1.386 . S
C842 C844 1.391 . S
C843 C842 1.386 . S
C843 C847 1.393 . S
C844 H833 0.950 . S
C844 C842 1.391 . S
C844 C845 1.400 . S
C845 C839 1.491 . S
C845 C844 1.400 . S
C845 C846 1.398 . S
C846 H834 0.950 . S
C846 C845 1.398 . S
C846 C847 1.391 . S
C847 H835 0.950 . S
C847 C843 1.393 . S
C847 C846 1.391 . S
H848 C856 0.950 . S
H849 C861 0.950 . S
H850 C858 0.950 . S
H851 C860 0.950 . S
H852 C862 0.950 . S
H853 C864 0.950 . S
H854 C866 0.950 . S
H855 C867 0.950 . S
C856 H848 0.950 . S
C856 C857 1.386 . S
C856 C858 1.391 . S
C857 C856 1.386 . S
C857 C861 1.393 . S
C858 H850 0.950 . S
C858 C856 1.391 . S
C858 C859 1.400 . S
C859 C858 1.400 . S
C859 C860 1.398 . S
C859 C865 1.491 . S
C860 H851 0.950 . S
C860 C859 1.398 . S
C860 C861 1.391 . S
C861 H849 0.950 . S
C861 C857 1.393 . S
C861 C860 1.391 . S
C862 H852 0.950 . S
C862 C863 1.386 . S
C862 C864 1.391 . S
C863 C862 1.386 . S
C863 C867 1.393 . S
C864 H853 0.950 . S
C864 C862 1.391 . S
C864 C865 1.400 . S
C865 C859 1.491 . S
C865 C864 1.400 . S
C865 C866 1.398 . S
C866 H854 0.950 . S
C866 C865 1.398 . S
C866 C867 1.391 . S
C867 H855 0.950 . S
C867 C863 1.393 . S
C867 C866 1.391 . S
H868 C876 0.950 . S
H869 C881 0.950 . S
H870 C878 0.950 . S
H871 C880 0.950 . S
H872 C882 0.950 . S
H873 C884 0.950 . S
H874 C886 0.950 . S
H875 C887 0.950 . S
C876 H868 0.950 . S
C876 C877 1.386 1_545 S
C876 C878 1.391 . S
C877 C876 1.386 1_565 S
C877 C881 1.393 . S
C878 H870 0.950 . S
C878 C876 1.391 . S
C878 C879 1.400 1_545 S
C879 C878 1.400 1_565 S
C879 C880 1.398 . S
C879 C885 1.491 . S
C880 H871 0.950 . S
C880 C879 1.398 . S
C880 C881 1.391 . S
C881 H869 0.950 . S
C881 C877 1.393 . S
C881 C880 1.391 . S
C882 H872 0.950 . S
C882 C883 1.386 . S
C882 C884 1.391 . S
C883 C882 1.386 . S
C883 C887 1.393 1_565 S
C884 H873 0.950 . S
C884 C882 1.391 . S
C884 C885 1.400 . S
C885 C879 1.491 . S
C885 C884 1.400 . S
C885 C886 1.398 1_565 S
C886 H874 0.950 . S
C886 C885 1.398 1_545 S
C886 C887 1.391 . S
C887 H875 0.950 . S
C887 C883 1.393 1_545 S
C887 C886 1.391 . S
H888 C896 0.950 . S
H889 C901 0.950 . S
H890 C898 0.950 . S
H891 C900 0.950 . S
H892 C902 0.950 . S
H893 C904 0.950 . S
H894 C906 0.950 . S
H895 C907 0.950 . S
C896 H888 0.950 . S
C896 C897 1.386 . S
C896 C898 1.391 . S
C897 C896 1.386 . S
C897 C901 1.393 . S
C898 H890 0.950 . S
C898 C896 1.391 . S
C898 C899 1.400 . S
C899 C898 1.400 . S
C899 C900 1.398 . S
C899 C905 1.491 . S
C900 H891 0.950 . S
C900 C899 1.398 . S
C900 C901 1.391 . S
C901 H889 0.950 . S
C901 C897 1.393 . S
C901 C900 1.391 . S
C902 H892 0.950 . S
C902 C903 1.386 . S
C902 C904 1.391 . S
C903 C902 1.386 . S
C903 C907 1.393 . S
C904 H893 0.950 . S
C904 C902 1.391 . S
C904 C905 1.400 . S
C905 C899 1.491 . S
C905 C904 1.400 . S
C905 C906 1.398 . S
C906 H894 0.950 . S
C906 C905 1.398 . S
C906 C907 1.391 . S
C907 H895 0.950 . S
C907 C903 1.393 . S
C907 C906 1.391 . S
H908 C916 0.950 . S
H909 C921 0.950 . S
H910 C918 0.950 . S
H911 C920 0.950 . S
H912 C922 0.950 . S
H913 C924 0.950 . S
H914 C926 0.950 . S
H915 C927 0.950 . S
C916 H908 0.950 . S
C916 C917 1.386 . S
C916 C918 1.391 . S
C917 C916 1.386 . S
C917 C921 1.393 . S
C918 H910 0.950 . S
C918 C916 1.391 . S
C918 C919 1.400 . S
C919 C918 1.400 . S
C919 C920 1.398 . S
C919 C925 1.491 . S
C920 H911 0.950 . S
C920 C919 1.398 . S
C920 C921 1.391 . S
C921 H909 0.950 . S
C921 C917 1.393 . S
C921 C920 1.391 . S
C922 H912 0.950 . S
C922 C923 1.386 . S
C922 C924 1.391 . S
C923 C922 1.386 . S
C923 C927 1.393 . S
C924 H913 0.950 . S
C924 C922 1.391 . S
C924 C925 1.400 . S
C925 C919 1.491 . S
C925 C924 1.400 . S
C925 C926 1.398 . S
C926 H914 0.950 . S
C926 C925 1.398 . S
C926 C927 1.391 . S
C927 H915 0.950 . S
C927 C923 1.393 . S
C927 C926 1.391 . S
C457 C255 1.868 . S
C463 C329 1.889 . S
C483 C350 1.746 . S
C477 C294 1.706 . S
C503 C384 1.554 . S
C497 C177 1.534 . S
C523 C418 1.712 . S
C517 C216 1.677 . S
C543 C320 1.889 . S
C537 C99 1.871 1_546 S
C557 C138 1.704 1_556 S
C563 C359 1.754 . S
C577 C21 1.536 . S
C583 C393 1.560 . S
C597 C60 1.695 . S
C603 C427 1.716 . S
C623 C341 0.641 . S
C617 C196 0.700 . S
C643 C346 0.423 . S
C637 C235 0.420 1_545 S
C663 C380 0.561 . S
C657 C289 0.583 . S
C677 C157 0.338 . S
C683 C414 0.152 . S
C697 C40 0.617 . S
C703 C312 0.574 . S
C723 C375 0.418 . S
C717 C79 0.408 . S
C743 C409 0.566 . S
C737 C133 0.571 . S
C757 C1 0.354 . S
C763 C443 0.146 . S
C777 C211 1.676 . S
C783 C325 1.760 . S
C797 C250 2.025 . S
C803 C354 2.138 . S
C823 C388 1.893 . S
C817 C274 1.799 . S
C843 C422 1.932 . S
C837 C172 1.801 1_556 S
C857 C55 1.653 . S
C863 C316 1.757 . S
C883 C363 2.139 . S
C877 C94 2.029 1_565 S
C903 C397 1.891 . S
C897 C118 1.779 . S
C917 C16 1.820 . S
C923 C431 1.936 . S
