# Generated by pormake.
# Topology pyr, (3,6)-cn, num edge types: 1
# Building blocks:
#     Node 0, Type 0, BuildingBlock: INOVEN_clean_linker_0, # of connection points: 3
#     Node 1, Type 0, BuildingBlock: INOVEN_clean_linker_0, # of connection points: 3
#     Node 2, Type 0, BuildingBlock: INOVEN_clean_linker_0, # of connection points: 3
#     Node 3, Type 0, BuildingBlock: INOVEN_clean_linker_0, # of connection points: 3
#     Node 4, Type 0, BuildingBlock: INOVEN_clean_linker_0, # of connection points: 3
#     Node 5, Type 0, BuildingBlock: INOVEN_clean_linker_0, # of connection points: 3
#     Node 6, Type 0, BuildingBlock: INOVEN_clean_linker_0, # of connection points: 3
#     Node 7, Type 0, BuildingBlock: INOVEN_clean_linker_0, # of connection points: 3
#     Node 8, Type 1, BuildingBlock: PAMTUU_clean_sbu_0, # of connection points: 6
#     Node 9, Type 1, BuildingBlock: PAMTUU_clean_sbu_0, # of connection points: 6
#     Node 10, Type 1, BuildingBlock: PAMTUU_clean_sbu_0, # of connection points: 6
#     Node 11, Type 1, BuildingBlock: PAMTUU_clean_sbu_0, # of connection points: 6
#     Edge 12, Type (0, 1), None
#     Edge 13, Type (0, 1), None
#     Edge 14, Type (0, 1), None
#     Edge 15, Type (0, 1), None
#     Edge 16, Type (0, 1), None
#     Edge 17, Type (0, 1), None
#     Edge 18, Type (0, 1), None
#     Edge 19, Type (0, 1), None
#     Edge 20, Type (0, 1), None
#     Edge 21, Type (0, 1), None
#     Edge 22, Type (0, 1), None
#     Edge 23, Type (0, 1), None
#     Edge 24, Type (0, 1), None
#     Edge 25, Type (0, 1), None
#     Edge 26, Type (0, 1), None
#     Edge 27, Type (0, 1), None
#     Edge 28, Type (0, 1), None
#     Edge 29, Type (0, 1), None
#     Edge 30, Type (0, 1), None
#     Edge 31, Type (0, 1), None
#     Edge 32, Type (0, 1), None
#     Edge 33, Type (0, 1), None
#     Edge 34, Type (0, 1), None
#     Edge 35, Type (0, 1), None
# Relax obj value: 0.437
# Max RMSD: 0.249
# Mean RMSD: 0.147
data_MOF--net-pyr--node1-PAMTUU_clean_sbu_0--node2-INOVEN_clean_linker_0--edge1-none
_symmetry_space_group_name_H-M    P1
_symmetry_Int_Tables_number       1
_symmetry_cell_setting            triclinic
loop_
_symmetry_equiv_pos_as_xyz
'x, y, z'
_cell_length_a     16.757333
_cell_length_b     16.699746
_cell_length_c     16.43053
_cell_angle_alpha  90.506217
_cell_angle_beta   88.978054
_cell_angle_gamma 110.58101
loop_
_atom_site_label
_atom_site_type_symbol
_atom_site_fract_x
_atom_site_fract_y
_atom_site_fract_z
_atom_type_partial_charge
H0 H 0.44166 0.34728 0.529 0.0
H1 H 0.62972 0.24158 0.44969 0.0
H2 H 0.56679 0.42126 0.30012 0.0
N3 N 0.43822 0.42332 0.38606 0.0
N4 N 0.38409 0.43623 0.43215 0.0
C5 C 0.49264 0.34818 0.48705 0.0
C6 C 0.54326 0.29809 0.50283 0.0
C7 C 0.5019 0.39269 0.41377 0.0
C8 C 0.56321 0.38872 0.35764 0.0
C9 C 0.60483 0.32937 0.36713 0.0
C10 C 0.59911 0.28837 0.44206 0.0
H11 H 0.13832 0.88086 0.79109 0.0
H12 H 0.30459 1.04167 0.97076 0.0
H13 H 1.04541 1.02874 0.95846 0.0
N14 N 1.00096 0.9186 0.836 0.0
N15 N 0.96397 0.96624 0.8093 0.0
C16 C 0.1489 0.92422 0.84251 0.0
C17 C 0.23046 0.96007 0.87613 0.0
C18 C 0.08239 0.94964 0.87204 0.0
C19 C 0.09648 1.00815 0.93646 0.0
C20 C 0.17513 1.03865 0.97359 0.0
C21 C 0.24238 1.01541 0.94308 0.0
H22 H 0.62973 0.41263 0.95048 0.0
H23 H 0.81698 0.43339 1.13288 0.0
H24 H 0.83352 0.65337 0.98839 0.0
N25 N 0.69367 0.56883 0.89333 0.0
N26 N 0.70122 0.64534 0.88096 0.0
C27 C 0.68652 0.45051 0.98269 0.0
C28 C 0.71752 0.41216 1.04476 0.0
C29 C 0.7272 0.53746 0.96151 0.0
C30 C 0.80126 0.58705 1.00475 0.0
C31 C 0.8353 0.54928 1.06677 0.0
C32 C 0.79254 0.46214 1.08499 0.0
H33 H 0.81725 0.75044 0.48774 0.0
H34 H 0.832 0.95926 0.65206 0.0
H35 H 1.03146 0.98618 0.47499 0.0
N36 N 0.96715 0.83429 0.40527 0.0
N37 N 0.94573 0.75755 0.38275 0.0
C38 C 0.84965 0.81516 0.50906 0.0
C39 C 0.81349 0.84889 0.57404 0.0
C40 C 0.92792 0.86494 0.47168 0.0
C41 C 0.96974 0.94887 0.50093 0.0
C42 C 0.93543 0.98406 0.56542 0.0
C43 C 0.85687 0.93373 0.60065 0.0
H44 H 0.55553 1.03541 0.9188 0.0
H45 H 0.80191 1.0151 0.89106 0.0
H46 H 0.62233 0.85985 1.06836 0.0
N47 N 0.49443 0.91519 1.02862 0.0
N48 N 0.45944 0.9652 1.05643 0.0
C49 C 0.6002 1.00494 0.93477 0.0
C50 C 0.67886 1.02908 0.89562 0.0
C51 C 0.5782 0.94225 0.99489 0.0
C52 C 0.63806 0.90608 1.01938 0.0
C53 C 0.71979 0.93342 0.98257 0.0
C54 C 0.73871 0.99287 0.91888 0.0
H55 H 0.95664 0.44494 0.43359 0.0
H56 H 0.06558 0.24693 0.46151 0.0
H57 H 0.13796 0.46743 0.61594 0.0
N58 N 1.04275 0.54409 0.55296 0.0
N59 N 0.98207 0.5718 0.55352 0.0
C60 C 0.99566 0.41612 0.46424 0.0
C61 C 1.00883 0.34195 0.43307 0.0
C62 C 1.04147 0.46096 0.53041 0.0
C63 C 0.10122 0.43167 0.56535 0.0
C64 C 0.10879 0.3533 0.54145 0.0
C65 C 0.0629 0.30926 0.47545 0.0
H66 H 0.52837 0.9661 0.38864 0.0
H67 H 0.33253 0.94961 0.21773 0.0
H68 H 0.31009 0.73362 0.37271 0.0
N69 N 0.46014 0.81525 0.45676 0.0
N70 N 0.44548 0.73854 0.47617 0.0
C71 C 0.46731 0.92996 0.3623 0.0
C72 C 0.43485 0.96804 0.30085 0.0
C73 C 0.42346 0.84566 0.38974 0.0
C74 C 0.34472 0.79831 0.35251 0.0
C75 C 0.31046 0.8357 0.28992 0.0
C76 C 0.35627 0.92078 0.26616 0.0
H77 H 0.1476 0.40281 0.93091 0.0
H78 H 0.33388 0.42398 0.74069 0.0
H79 H 0.33778 0.64796 0.8764 0.0
N80 N 0.201 0.56248 0.97767 0.0
N81 N 0.20476 0.63851 0.98641 0.0
C82 C 0.20279 0.44123 0.89554 0.0
C83 C 0.23578 0.40212 0.83393 0.0
C84 C 0.23817 0.52974 0.91134 0.0
C85 C 0.30952 0.58023 0.86366 0.0
C86 C 0.3458 0.54215 0.80164 0.0
C87 C 0.30808 0.45322 0.78856 0.0
Tb88 Tb 0.1657 0.1561 0.69116 0.0
Tb89 Tb 1.00935 0.22618 0.72789 0.0
C90 C 0.99144 1.06214 0.60886 0.0
C91 C 0.37723 0.13532 0.65999 0.0
C92 C 0.51718 0.238 0.57143 0.0
C93 C 0.48136 0.15048 0.55267 0.0
C94 C 0.41086 1.09899 0.59717 0.0
C95 C 0.42485 0.21677 0.68976 0.0
C96 C 0.49628 0.2676 0.64616 0.0
C97 C 0.28586 1.09875 0.67686 0.0
O98 O 0.15261 0.23547 0.58806 0.0
O99 O 0.11699 0.32084 0.67416 0.0
O100 O 0.10618 0.27599 0.82363 0.0
O101 O 0.22526 0.2788 0.75155 0.0
O102 O 0.93248 0.28557 0.67238 0.0
O103 O 0.93429 0.27221 0.80388 0.0
O104 O 0.95558 1.0983 0.77404 0.0
O105 O 0.08671 1.09211 0.79466 0.0
O106 O 0.06261 1.05714 0.6351 0.0
O107 O 0.96581 1.12701 0.629 0.0
C108 C 0.1397 0.30782 0.60201 0.0
O109 O 0.259 1.1189 0.74633 0.0
O110 O 0.23871 1.10528 0.61671 0.0
C111 C 0.18948 0.31101 0.80897 0.0
C112 C 0.80264 0.23722 0.74608 0.0
C113 C 0.70155 1.09795 0.83568 0.0
C114 C 0.70773 0.1806 0.86028 0.0
C115 C 0.75781 0.25078 0.81456 0.0
C116 C 0.77831 0.15482 0.71171 0.0
C117 C 0.73037 1.08474 0.75815 0.0
C118 C 0.89357 0.28742 0.74192 0.0
C119 C 1.00308 1.05628 0.79785 0.0
H120 H 0.49749 1.12536 0.49617 0.0
H121 H 0.37564 1.0352 0.57497 0.0
H122 H 0.40102 0.24525 0.7397 0.0
H123 H 0.52506 0.33411 0.6631 0.0
H124 H 0.68363 0.19142 0.91944 0.0
H125 H 0.77425 0.31411 0.84105 0.0
H126 H 0.80963 0.14298 0.65708 0.0
H127 H 0.72367 1.02096 0.73741 0.0
Tb128 Tb 0.66104 0.16035 0.17794 0.0
Tb129 Tb 0.49902 0.22079 0.15952 0.0
C130 C 0.50178 1.05397 1.07389 0.0
C131 C 0.87037 0.20223 0.22935 0.0
C132 C 0.96636 0.29849 0.35741 0.0
C133 C 0.99068 0.23456 0.31758 0.0
C134 C 0.94082 0.1845 0.25582 0.0
C135 C 0.85419 0.27345 0.25972 0.0
C136 C 0.89916 0.31903 0.32449 0.0
C137 C 0.80055 0.13915 0.18776 0.0
O138 O 0.70698 0.28943 1.1267 0.0
O139 O 0.58787 0.2853 1.06073 0.0
O140 O 0.59955 0.31314 0.22552 0.0
O141 O 0.6446 0.22187 0.29245 0.0
O142 O 0.42189 0.26995 1.09336 0.0
O143 O 0.41198 0.26309 0.22505 0.0
O144 O 0.45752 1.11122 0.24662 0.0
O145 O 0.56468 1.05395 0.23619 0.0
O146 O 0.58548 1.08462 1.07984 0.0
O147 O 0.45462 1.0968 1.10094 0.0
C148 C 0.6701 0.3223 1.07326 0.0
O149 O 0.7363 1.10222 0.23668 0.0
O150 O 0.77667 0.16626 1.12151 0.0
C151 C 0.62705 0.29231 0.29223 0.0
C152 C 0.28648 0.22237 0.14799 0.0
C153 C 0.18925 1.09694 1.04305 0.0
C154 C 0.19609 0.18202 1.0306 0.0
C155 C 0.24427 0.24519 1.08408 0.0
C156 C 0.26191 0.136 0.17048 0.0
C157 C 0.21546 1.07317 1.11652 0.0
C158 C 0.37637 0.27382 0.15773 0.0
C159 C 0.48936 1.05047 0.2628 0.0
H160 H 1.04571 0.21987 0.33526 0.0
H161 H 0.95466 0.13004 0.23197 0.0
H162 H 0.80026 0.28852 0.23959 0.0
H163 H 0.87593 0.36645 0.34995 0.0
H164 H 0.17484 0.20086 0.97439 0.0
H165 H 0.26143 0.31164 1.0666 0.0
H166 H 0.29201 1.11675 0.22078 0.0
H167 H 0.20962 1.00741 1.12728 0.0
Tb168 Tb 0.58211 0.61026 0.63168 0.0
Tb169 Tb 0.57013 0.77866 0.72116 0.0
C170 C 0.48739 0.71876 0.54555 0.0
C171 C 0.71615 0.49469 0.55051 0.0
C172 C 0.89385 0.52493 0.54115 0.0
C173 C 0.85311 0.55216 0.47913 0.0
C174 C 0.76539 0.53662 0.48299 0.0
C175 C 0.75542 0.45992 0.609 0.0
C176 C 0.84359 0.4753 0.60449 0.0
C177 C 0.62831 0.49661 0.56454 0.0
O178 O 0.68866 0.71979 0.58457 0.0
O179 O 0.70189 0.82578 0.67814 0.0
O180 O 0.64644 0.73884 0.80961 0.0
O181 O 0.6436 0.61332 0.74892 0.0
O182 O 0.55771 0.89813 0.70133 0.0
O183 O 0.54957 0.84638 0.8221 0.0
O184 O 0.45415 0.67698 0.7627 0.0
O185 O 0.46146 0.5551 0.70136 0.0
O186 O 0.48718 0.64046 0.55745 0.0
O187 O 0.52923 0.78106 0.59499 0.0
C188 C 0.73126 0.79549 0.61491 0.0
O189 O 0.60161 0.49274 0.63972 0.0
O190 O 0.60756 0.55304 0.52409 0.0
C191 C 0.66344 0.66741 0.8103 0.0
C192 C 0.45465 0.91678 0.79111 0.0
C193 C 0.30494 0.94412 0.84044 0.0
C194 C 0.37957 1.01358 0.8217 0.0
C195 C 0.4531 0.99988 0.79485 0.0
C196 C 0.37915 0.84702 0.80619 0.0
C197 C 0.30441 0.86056 0.83005 0.0
C198 C 0.53609 0.90382 0.77685 0.0
C199 C 0.42404 0.59375 0.75207 0.0
H200 H 0.89072 0.59159 0.43073 0.0
H201 H 0.73763 0.56312 0.43595 0.0
H202 H 0.71936 0.42614 0.66134 0.0
H203 H 0.87369 0.45548 0.65438 0.0
H204 H 0.38152 1.07869 0.82949 0.0
H205 H 0.51016 1.05442 0.78165 0.0
H206 H 0.37853 0.78225 0.80193 0.0
H207 H 0.24765 0.80608 0.84422 0.0
Tb208 Tb 0.07 0.77811 1.14146 0.0
Tb209 Tb 0.06804 0.6107 0.23022 0.0
C210 C 0.16278 0.66189 1.05509 0.0
C211 C 0.94732 0.89924 1.06175 0.0
C212 C 0.79024 0.91094 1.01613 0.0
C213 C 0.83322 0.95552 1.08429 0.0
C214 C 0.91156 0.95067 1.10638 0.0
C215 C 0.90131 0.85021 0.99647 0.0
C216 C 0.82436 0.85756 0.97271 0.0
C217 C 1.0323 0.89779 1.08361 0.0
O218 O 0.94807 0.68189 1.10534 0.0
O219 O 0.95283 0.55699 0.15751 0.0
O220 O 0.97383 0.6527 0.29701 0.0
O221 O 1.04299 0.79251 0.27033 0.0
O222 O 0.08006 0.48917 0.23025 0.0
O223 O 0.07063 0.55394 0.34222 0.0
O224 O 0.1813 0.71148 0.27677 0.0
O225 O 0.20005 0.82247 0.18851 0.0
O226 O 0.14643 0.73364 1.05353 0.0
O227 O 0.13849 0.60882 1.11695 0.0
C228 C 0.91601 0.59836 1.11205 0.0
O229 O 1.045 0.8918 0.16074 0.0
O230 O 0.06342 0.84997 1.0396 0.0
C231 C 0.98817 0.73349 0.31483 0.0
C232 C 0.17017 0.48195 0.3382 0.0
C233 C 0.31466 0.45403 0.39886 0.0
C234 C 0.28419 0.51289 0.43711 0.0
C235 C 0.21374 0.52826 0.40603 0.0
C236 C 0.20075 0.42249 0.30037 0.0
C237 C 0.27295 0.40942 0.32978 0.0
C238 C 0.09163 0.4931 0.30855 0.0
C239 C 0.22714 0.78747 0.24904 0.0
H240 H 0.80803 0.9973 1.11799 0.0
H241 H 0.94502 0.98845 0.15738 0.0
H242 H 0.92621 0.80857 0.96175 0.0
H243 H 0.79295 0.82383 0.919 0.0
H244 H 0.3152 0.54717 0.49075 0.0
H245 H 0.19231 0.57497 0.43651 0.0
H246 H 0.16833 0.38542 0.24855 0.0
H247 H 0.29473 0.36246 0.30017 0.0
loop_
_geom_bond_atom_site_label_1
_geom_bond_atom_site_label_2
_geom_bond_distance
_geom_bond_site_symmetry_2
_ccdc_geom_bond_type
H0 C5 0.929 . S
H1 C10 0.931 . S
H2 C8 0.930 . S
N3 N4 1.234 . S
N3 C7 1.453 . S
N4 N3 1.234 . S
C5 H0 0.929 . S
C5 C6 1.373 . S
C5 C7 1.368 . S
C6 C5 1.373 . S
C6 C10 1.397 . S
C7 N3 1.453 . S
C7 C5 1.368 . S
C7 C8 1.373 . S
C8 H2 0.930 . S
C8 C7 1.373 . S
C8 C9 1.371 . S
C9 C8 1.371 . S
C9 C10 1.383 . S
C10 H1 0.931 . S
C10 C6 1.397 . S
C10 C9 1.383 . S
H11 C16 0.929 . S
H12 C21 0.931 . S
H13 C19 0.928 1_655 S
N14 N15 1.234 . S
N14 C18 1.450 1_655 S
N15 N14 1.234 . S
C16 H11 0.929 . S
C16 C17 1.373 . S
C16 C18 1.370 . S
C17 C16 1.373 . S
C17 C21 1.397 . S
C18 N14 1.450 1_455 S
C18 C16 1.370 . S
C18 C19 1.373 . S
C19 H13 0.928 1_455 S
C19 C18 1.373 . S
C19 C20 1.371 . S
C20 C19 1.371 . S
C20 C21 1.383 . S
C21 H12 0.931 . S
C21 C17 1.397 . S
C21 C20 1.383 . S
H22 C27 0.929 . S
H23 C32 0.931 1_554 S
H24 C30 0.930 . S
N25 N26 1.234 . S
N25 C29 1.453 . S
N26 N25 1.234 . S
C27 H22 0.929 . S
C27 C28 1.373 . S
C27 C29 1.368 . S
C28 C27 1.373 . S
C28 C32 1.397 . S
C29 N25 1.453 . S
C29 C27 1.368 . S
C29 C30 1.373 . S
C30 H24 0.930 . S
C30 C29 1.373 . S
C30 C31 1.371 . S
C31 C30 1.371 . S
C31 C32 1.383 . S
C32 H23 0.931 1_556 S
C32 C28 1.397 . S
C32 C31 1.383 . S
H33 C38 0.929 . S
H34 C43 0.931 . S
H35 C41 0.930 . S
N36 N37 1.234 . S
N36 C40 1.453 . S
N37 N36 1.234 . S
C38 H33 0.929 . S
C38 C39 1.373 . S
C38 C40 1.368 . S
C39 C38 1.373 . S
C39 C43 1.397 . S
C40 N36 1.453 . S
C40 C38 1.368 . S
C40 C41 1.373 . S
C41 H35 0.930 . S
C41 C40 1.373 . S
C41 C42 1.371 . S
C42 C41 1.371 . S
C42 C43 1.383 . S
C43 H34 0.931 . S
C43 C39 1.397 . S
C43 C42 1.383 . S
H44 C49 0.929 . S
H45 C54 0.931 . S
H46 C52 0.930 1_554 S
N47 N48 1.234 . S
N47 C51 1.453 . S
N48 N47 1.234 . S
C49 H44 0.929 . S
C49 C50 1.373 . S
C49 C51 1.368 . S
C50 C49 1.373 . S
C50 C54 1.397 . S
C51 N47 1.453 . S
C51 C49 1.368 . S
C51 C52 1.373 . S
C52 H46 0.930 1_556 S
C52 C51 1.373 . S
C52 C53 1.371 . S
C53 C52 1.371 . S
C53 C54 1.383 . S
C54 H45 0.931 . S
C54 C50 1.397 . S
C54 C53 1.383 . S
H55 C60 0.929 . S
H56 C65 0.931 . S
H57 C63 0.930 . S
N58 N59 1.234 . S
N58 C62 1.453 . S
N59 N58 1.234 . S
C60 H55 0.929 . S
C60 C61 1.373 . S
C60 C62 1.368 . S
C61 C60 1.373 . S
C61 C65 1.397 1_655 S
C62 N58 1.453 . S
C62 C60 1.368 . S
C62 C63 1.373 1_655 S
C63 H57 0.930 . S
C63 C62 1.373 1_455 S
C63 C64 1.371 . S
C64 C63 1.371 . S
C64 C65 1.383 . S
C65 H56 0.931 . S
C65 C61 1.397 1_455 S
C65 C64 1.383 . S
H66 C71 0.929 . S
H67 C76 0.931 . S
H68 C74 0.930 . S
N69 N70 1.234 . S
N69 C73 1.453 . S
N70 N69 1.234 . S
C71 H66 0.929 . S
C71 C72 1.373 . S
C71 C73 1.368 . S
C72 C71 1.373 . S
C72 C76 1.397 . S
C73 N69 1.453 . S
C73 C71 1.368 . S
C73 C74 1.373 . S
C74 H68 0.930 . S
C74 C73 1.373 . S
C74 C75 1.371 . S
C75 C74 1.371 . S
C75 C76 1.383 . S
C76 H67 0.931 . S
C76 C72 1.397 . S
C76 C75 1.383 . S
H77 C82 0.929 . S
H78 C87 0.931 . S
H79 C85 0.930 . S
N80 N81 1.234 . S
N80 C84 1.453 . S
N81 N80 1.234 . S
C82 H77 0.929 . S
C82 C83 1.373 . S
C82 C84 1.368 . S
C83 C82 1.373 . S
C83 C87 1.397 . S
C84 N80 1.453 . S
C84 C82 1.368 . S
C84 C85 1.373 . S
C85 H79 0.930 . S
C85 C84 1.373 . S
C85 C86 1.371 . S
C86 C85 1.371 . S
C86 C87 1.383 . S
C87 H78 0.931 . S
C87 C83 1.397 . S
C87 C86 1.383 . S
Tb88 C97 2.764 . S
Tb88 O98 2.325 . S
Tb88 O101 2.303 . S
Tb88 O105 2.322 1_545 S
Tb88 O106 2.349 1_545 S
Tb88 O109 2.415 . S
Tb88 O110 2.399 . S
Tb89 O99 2.322 . S
Tb89 O100 2.347 1_655 S
Tb89 O102 2.415 1_545 S
Tb89 O103 2.399 . S
Tb89 O104 2.325 1_545 S
Tb89 O107 2.303 1_545 S
Tb89 C118 2.764 1_545 S
C90 O106 1.261 1_655 S
C90 O107 1.257 . S
C91 C94 1.358 . S
C91 C95 1.332 . S
C91 C97 1.504 . S
C92 C93 1.373 . S
C92 C96 1.308 . S
C93 C92 1.373 . S
C93 C94 1.429 . S
C93 H120 0.932 . S
C94 C91 1.358 . S
C94 C93 1.429 . S
C94 H121 0.930 . S
C95 C91 1.332 . S
C95 C96 1.394 . S
C95 H122 0.932 . S
C96 C92 1.308 . S
C96 C95 1.394 . S
C96 H123 0.929 . S
C97 Tb88 2.764 . S
C97 C91 1.504 . S
C97 O109 1.239 . S
C97 O110 1.263 . S
O98 Tb88 2.325 . S
O98 C108 1.236 1_455 S
O99 Tb89 2.322 . S
O99 C108 1.257 . S
O100 Tb89 2.347 1_455 S
O100 C111 1.268 . S
O101 Tb88 2.303 . S
O101 C111 1.257 . S
O102 Tb89 2.415 1_565 S
O102 C118 1.239 . S
O103 Tb89 2.399 . S
O103 C118 1.263 1_545 S
O104 Tb89 2.325 1_565 S
O104 C119 1.236 1_655 S
O105 Tb88 2.322 1_565 S
O105 C119 1.257 . S
O106 Tb88 2.349 1_565 S
O106 C90 1.261 1_455 S
O107 Tb89 2.303 1_565 S
O107 C90 1.257 . S
C108 O98 1.236 1_655 S
C108 O99 1.257 . S
O109 Tb88 2.415 . S
O109 C97 1.239 . S
O110 Tb88 2.399 . S
O110 C97 1.263 . S
C111 O100 1.268 . S
C111 O101 1.257 . S
C112 C115 1.358 . S
C112 C116 1.332 . S
C112 C118 1.504 . S
C113 C114 1.373 . S
C113 C117 1.308 . S
C114 C113 1.373 . S
C114 C115 1.429 . S
C114 H124 0.932 . S
C115 C112 1.358 . S
C115 C114 1.429 . S
C115 H125 0.930 . S
C116 C112 1.332 . S
C116 C117 1.394 . S
C116 H126 0.932 . S
C117 C113 1.308 . S
C117 C116 1.394 . S
C117 H127 0.929 . S
C118 Tb89 2.764 1_565 S
C118 O102 1.239 . S
C118 O103 1.263 1_565 S
C118 C112 1.504 . S
C119 O104 1.236 1_455 S
C119 O105 1.257 . S
H120 C93 0.932 . S
H121 C94 0.930 . S
H122 C95 0.932 . S
H123 C96 0.929 . S
H124 C114 0.932 . S
H125 C115 0.930 . S
H126 C116 0.932 . S
H127 C117 0.929 . S
Tb128 C137 2.764 . S
Tb128 O138 2.325 . S
Tb128 O141 2.303 . S
Tb128 O145 2.322 1_545 S
Tb128 O146 2.349 1_545 S
Tb128 O149 2.415 . S
Tb128 O150 2.399 . S
Tb129 O139 2.322 . S
Tb129 O140 2.349 1_556 S
Tb129 O142 2.415 1_545 S
Tb129 O143 2.399 1_545 S
Tb129 O144 2.325 1_546 S
Tb129 O147 2.303 1_545 S
Tb129 C158 2.764 1_545 S
C130 O146 1.261 1_556 S
C130 O147 1.257 . S
C131 C134 1.358 . S
C131 C135 1.332 . S
C131 C137 1.504 . S
C132 C133 1.373 . S
C132 C136 1.308 . S
C133 C132 1.373 . S
C133 C134 1.429 . S
C133 H160 0.932 1_655 S
C134 C131 1.358 . S
C134 C133 1.429 . S
C134 H161 0.930 . S
C135 C131 1.332 . S
C135 C136 1.394 . S
C135 H162 0.932 . S
C136 C132 1.308 . S
C136 C135 1.394 . S
C136 H163 0.929 . S
C137 Tb128 2.764 . S
C137 C131 1.504 . S
C137 O149 1.239 . S
C137 O150 1.263 . S
O138 Tb128 2.325 . S
O138 C148 1.237 1_554 S
O139 Tb129 2.322 . S
O139 C148 1.257 . S
O140 Tb129 2.349 1_554 S
O140 C151 1.261 . S
O141 Tb128 2.303 . S
O141 C151 1.257 . S
O142 Tb129 2.415 1_565 S
O142 C158 1.239 . S
O143 Tb129 2.399 1_565 S
O143 C158 1.263 . S
O144 Tb129 2.325 1_564 S
O144 C159 1.236 . S
O145 Tb128 2.322 1_565 S
O145 C159 1.257 . S
O146 Tb128 2.349 1_565 S
O146 C130 1.261 1_554 S
O147 Tb129 2.303 1_565 S
O147 C130 1.257 . S
C148 O138 1.237 1_556 S
C148 O139 1.257 . S
O149 Tb128 2.415 . S
O149 C137 1.239 . S
O150 Tb128 2.399 . S
O150 C137 1.263 . S
C151 O140 1.261 . S
C151 O141 1.257 . S
C152 C155 1.358 . S
C152 C156 1.332 . S
C152 C158 1.504 . S
C153 C154 1.373 . S
C153 C157 1.308 . S
C154 C153 1.373 . S
C154 C155 1.429 . S
C154 H164 0.932 . S
C155 C152 1.358 . S
C155 C154 1.429 . S
C155 H165 0.930 . S
C156 C152 1.332 . S
C156 C157 1.394 . S
C156 H166 0.932 . S
C157 C153 1.308 . S
C157 C156 1.394 . S
C157 H167 0.929 . S
C158 Tb129 2.764 1_565 S
C158 O142 1.239 . S
C158 O143 1.263 . S
C158 C152 1.504 . S
C159 O144 1.236 . S
C159 O145 1.257 . S
H160 C133 0.932 1_455 S
H161 C134 0.930 . S
H162 C135 0.932 . S
H163 C136 0.929 . S
H164 C154 0.932 . S
H165 C155 0.930 . S
H166 C156 0.932 . S
H167 C157 0.929 . S
Tb168 C177 2.764 . S
Tb168 O178 2.325 . S
Tb168 O181 2.303 . S
Tb168 O185 2.322 . S
Tb168 O186 2.349 . S
Tb168 O189 2.415 . S
Tb168 O190 2.399 . S
Tb169 O179 2.322 . S
Tb169 O180 2.349 . S
Tb169 O182 2.415 . S
Tb169 O183 2.399 . S
Tb169 O184 2.325 . S
Tb169 O187 2.303 . S
Tb169 C198 2.764 . S
C170 O186 1.261 . S
C170 O187 1.257 . S
C171 C174 1.358 . S
C171 C175 1.332 . S
C171 C177 1.504 . S
C172 C173 1.373 . S
C172 C176 1.308 . S
C173 C172 1.373 . S
C173 C174 1.429 . S
C173 H200 0.932 . S
C174 C171 1.358 . S
C174 C173 1.429 . S
C174 H201 0.930 . S
C175 C171 1.332 . S
C175 C176 1.394 . S
C175 H202 0.932 . S
C176 C172 1.308 . S
C176 C175 1.394 . S
C176 H203 0.929 . S
C177 Tb168 2.764 . S
C177 C171 1.504 . S
C177 O189 1.239 . S
C177 O190 1.263 . S
O178 Tb168 2.325 . S
O178 C188 1.236 . S
O179 Tb169 2.322 . S
O179 C188 1.257 . S
O180 Tb169 2.349 . S
O180 C191 1.261 . S
O181 Tb168 2.303 . S
O181 C191 1.257 . S
O182 Tb169 2.415 . S
O182 C198 1.239 . S
O183 Tb169 2.399 . S
O183 C198 1.263 . S
O184 Tb169 2.325 . S
O184 C199 1.236 . S
O185 Tb168 2.322 . S
O185 C199 1.257 . S
O186 Tb168 2.349 . S
O186 C170 1.261 . S
O187 Tb169 2.303 . S
O187 C170 1.257 . S
C188 O178 1.236 . S
C188 O179 1.257 . S
O189 Tb168 2.415 . S
O189 C177 1.239 . S
O190 Tb168 2.399 . S
O190 C177 1.263 . S
C191 O180 1.261 . S
C191 O181 1.257 . S
C192 C195 1.358 . S
C192 C196 1.332 . S
C192 C198 1.504 . S
C193 C194 1.373 . S
C193 C197 1.308 . S
C194 C193 1.373 . S
C194 C195 1.429 . S
C194 H204 0.932 . S
C195 C192 1.358 . S
C195 C194 1.429 . S
C195 H205 0.930 . S
C196 C192 1.332 . S
C196 C197 1.394 . S
C196 H206 0.932 . S
C197 C193 1.308 . S
C197 C196 1.394 . S
C197 H207 0.929 . S
C198 Tb169 2.764 . S
C198 O182 1.239 . S
C198 O183 1.263 . S
C198 C192 1.504 . S
C199 O184 1.236 . S
C199 O185 1.257 . S
H200 C173 0.932 . S
H201 C174 0.930 . S
H202 C175 0.932 . S
H203 C176 0.929 . S
H204 C194 0.932 . S
H205 C195 0.930 . S
H206 C196 0.932 . S
H207 C197 0.929 . S
Tb208 C217 2.764 1_455 S
Tb208 O218 2.325 1_455 S
Tb208 O221 2.303 1_556 S
Tb208 O225 2.322 1_556 S
Tb208 O226 2.349 . S
Tb208 O229 2.415 1_455 S
Tb208 O230 2.399 1_455 S
Tb209 O219 2.322 1_455 S
Tb209 O220 2.349 1_455 S
Tb209 O222 2.415 . S
Tb209 O223 2.399 . S
Tb209 O224 2.325 . S
Tb209 O227 2.303 1_554 S
Tb209 C238 2.764 . S
C210 O226 1.261 . S
C210 O227 1.257 . S
C211 C214 1.358 . S
C211 C215 1.332 . S
C211 C217 1.504 . S
C212 C213 1.373 . S
C212 C216 1.308 . S
C213 C212 1.373 . S
C213 C214 1.429 . S
C213 H240 0.932 . S
C214 C211 1.358 . S
C214 C213 1.429 . S
C214 H241 0.930 . S
C215 C211 1.332 . S
C215 C216 1.394 . S
C215 H242 0.932 . S
C216 C212 1.308 . S
C216 C215 1.394 . S
C216 H243 0.929 . S
C217 Tb208 2.764 1_655 S
C217 C211 1.504 . S
C217 O229 1.239 . S
C217 O230 1.263 . S
O218 Tb208 2.325 1_655 S
O218 C228 1.236 . S
O219 Tb209 2.322 1_655 S
O219 C228 1.257 1_554 S
O220 Tb209 2.349 1_655 S
O220 C231 1.261 . S
O221 Tb208 2.303 1_554 S
O221 C231 1.257 1_455 S
O222 Tb209 2.415 . S
O222 C238 1.239 . S
O223 Tb209 2.399 . S
O223 C238 1.263 . S
O224 Tb209 2.325 . S
O224 C239 1.236 . S
O225 Tb208 2.322 1_554 S
O225 C239 1.257 . S
O226 Tb208 2.349 . S
O226 C210 1.261 . S
O227 Tb209 2.303 1_556 S
O227 C210 1.257 . S
C228 O218 1.236 . S
C228 O219 1.257 1_556 S
O229 Tb208 2.415 1_655 S
O229 C217 1.239 . S
O230 Tb208 2.399 1_655 S
O230 C217 1.263 . S
C231 O220 1.261 . S
C231 O221 1.257 1_655 S
C232 C235 1.358 . S
C232 C236 1.332 . S
C232 C238 1.504 . S
C233 C234 1.373 . S
C233 C237 1.308 . S
C234 C233 1.373 . S
C234 C235 1.429 . S
C234 H244 0.932 . S
C235 C232 1.358 . S
C235 C234 1.429 . S
C235 H245 0.930 . S
C236 C232 1.332 . S
C236 C237 1.394 . S
C236 H246 0.932 . S
C237 C233 1.308 . S
C237 C236 1.394 . S
C237 H247 0.929 . S
C238 Tb209 2.764 . S
C238 O222 1.239 . S
C238 O223 1.263 . S
C238 C232 1.504 . S
C239 O224 1.236 . S
C239 O225 1.257 . S
H240 C213 0.932 . S
H241 C214 0.930 . S
H242 C215 0.932 . S
H243 C216 0.929 . S
H244 C234 0.932 . S
H245 C235 0.930 . S
H246 C236 0.932 . S
H247 C237 0.929 . S
C6 C92 1.215 . S
C20 C153 1.532 . S
C191 N26 3.338 . S
N37 C231 3.488 . S
C151 C9 2.319 . S
C119 N15 2.865 1_455 S
C228 C31 2.615 . S
C188 C39 2.607 . S
N4 C233 2.141 . S
C148 C28 3.865 . S
C42 C90 2.969 . S
C17 C193 2.800 . S
C113 C50 0.901 . S
C61 C132 1.568 . S
N70 C170 3.661 . S
N81 C210 3.347 . S
N48 C130 2.708 . S
C108 C64 2.892 1_655 S
C239 C75 2.598 . S
C199 C86 2.722 . S
C53 C212 2.932 . S
C159 C72 3.048 . S
C111 C83 3.648 . S
N59 C172 2.101 . S
