# Generated by pormake.
# Topology pyr, (3,6)-cn, num edge types: 1
# Building blocks:
#     Node 0, Type 0, BuildingBlock: INOVEN_clean_linker_0, # of connection points: 3
#     Node 1, Type 0, BuildingBlock: INOVEN_clean_linker_0, # of connection points: 3
#     Node 2, Type 0, BuildingBlock: INOVEN_clean_linker_0, # of connection points: 3
#     Node 3, Type 0, BuildingBlock: INOVEN_clean_linker_0, # of connection points: 3
#     Node 4, Type 0, BuildingBlock: INOVEN_clean_linker_0, # of connection points: 3
#     Node 5, Type 0, BuildingBlock: INOVEN_clean_linker_0, # of connection points: 3
#     Node 6, Type 0, BuildingBlock: INOVEN_clean_linker_0, # of connection points: 3
#     Node 7, Type 0, BuildingBlock: INOVEN_clean_linker_0, # of connection points: 3
#     Node 8, Type 1, BuildingBlock: MIFKUJ_clean_sbu_0, # of connection points: 6
#     Node 9, Type 1, BuildingBlock: MIFKUJ_clean_sbu_0, # of connection points: 6
#     Node 10, Type 1, BuildingBlock: MIFKUJ_clean_sbu_0, # of connection points: 6
#     Node 11, Type 1, BuildingBlock: MIFKUJ_clean_sbu_0, # of connection points: 6
#     Edge 12, Type (0, 1), BuildingBlock: CIFDUS_clean_linker_0, # of connection points: 2
#     Edge 13, Type (0, 1), BuildingBlock: CIFDUS_clean_linker_0, # of connection points: 2
#     Edge 14, Type (0, 1), BuildingBlock: CIFDUS_clean_linker_0, # of connection points: 2
#     Edge 15, Type (0, 1), BuildingBlock: CIFDUS_clean_linker_0, # of connection points: 2
#     Edge 16, Type (0, 1), BuildingBlock: CIFDUS_clean_linker_0, # of connection points: 2
#     Edge 17, Type (0, 1), BuildingBlock: CIFDUS_clean_linker_0, # of connection points: 2
#     Edge 18, Type (0, 1), BuildingBlock: CIFDUS_clean_linker_0, # of connection points: 2
#     Edge 19, Type (0, 1), BuildingBlock: CIFDUS_clean_linker_0, # of connection points: 2
#     Edge 20, Type (0, 1), BuildingBlock: CIFDUS_clean_linker_0, # of connection points: 2
#     Edge 21, Type (0, 1), BuildingBlock: CIFDUS_clean_linker_0, # of connection points: 2
#     Edge 22, Type (0, 1), BuildingBlock: CIFDUS_clean_linker_0, # of connection points: 2
#     Edge 23, Type (0, 1), BuildingBlock: CIFDUS_clean_linker_0, # of connection points: 2
#     Edge 24, Type (0, 1), BuildingBlock: CIFDUS_clean_linker_0, # of connection points: 2
#     Edge 25, Type (0, 1), BuildingBlock: CIFDUS_clean_linker_0, # of connection points: 2
#     Edge 26, Type (0, 1), BuildingBlock: CIFDUS_clean_linker_0, # of connection points: 2
#     Edge 27, Type (0, 1), BuildingBlock: CIFDUS_clean_linker_0, # of connection points: 2
#     Edge 28, Type (0, 1), BuildingBlock: CIFDUS_clean_linker_0, # of connection points: 2
#     Edge 29, Type (0, 1), BuildingBlock: CIFDUS_clean_linker_0, # of connection points: 2
#     Edge 30, Type (0, 1), BuildingBlock: CIFDUS_clean_linker_0, # of connection points: 2
#     Edge 31, Type (0, 1), BuildingBlock: CIFDUS_clean_linker_0, # of connection points: 2
#     Edge 32, Type (0, 1), BuildingBlock: CIFDUS_clean_linker_0, # of connection points: 2
#     Edge 33, Type (0, 1), BuildingBlock: CIFDUS_clean_linker_0, # of connection points: 2
#     Edge 34, Type (0, 1), BuildingBlock: CIFDUS_clean_linker_0, # of connection points: 2
#     Edge 35, Type (0, 1), BuildingBlock: CIFDUS_clean_linker_0, # of connection points: 2
# Relax obj value: 0.055
# Max RMSD: 0.190
# Mean RMSD: 0.124
data_MOF--net-pyr--node1-MIFKUJ_clean_sbu_0--node2-INOVEN_clean_linker_0--edge1-CIFDUS_clean_linker_0
_symmetry_space_group_name_H-M    P1
_symmetry_Int_Tables_number       1
_symmetry_cell_setting            triclinic
loop_
_symmetry_equiv_pos_as_xyz
'x, y, z'
_cell_length_a     33.73675
_cell_length_b     30.773996
_cell_length_c     33.76111
_cell_angle_alpha  85.903249
_cell_angle_beta   89.142623
_cell_angle_gamma 104.3806
loop_
_atom_site_label
_atom_site_type_symbol
_atom_site_fract_x
_atom_site_fract_y
_atom_site_fract_z
_atom_type_partial_charge
H0 H 0.14104 0.20184 0.2366 0.0
H1 H 0.21899 0.11005 0.24372 0.0
H2 H 0.22572 0.20274 0.14063 0.0
N3 N 0.168 0.23863 0.16252 0.0
N4 N 0.13819 0.25319 0.17227 0.0
C5 C 0.16439 0.18808 0.22366 0.0
C6 C 0.17853 0.15435 0.2453 0.0
C7 C 0.18117 0.20484 0.18561 0.0
C8 C 0.21232 0.18833 0.16946 0.0
C9 C 0.22649 0.15422 0.19006 0.0
C10 C 0.20917 0.13726 0.22795 0.0
H11 H 0.35997 0.85813 0.64762 0.0
H12 H 0.44035 0.84063 0.74202 0.0
H13 H 0.35891 0.9271 0.75356 0.0
N14 N 0.32335 0.91093 0.68253 0.0
N15 N 0.304 0.9324 0.70195 0.0
C16 C 0.37188 0.86549 0.67669 0.0
C17 C 0.40203 0.8453 0.69211 0.0
C18 C 0.35602 0.89455 0.69861 0.0
C19 C 0.37142 0.90502 0.73624 0.0
C20 C 0.40215 0.8859 0.75206 0.0
C21 C 0.4172 0.85607 0.72973 0.0
H22 H 0.59621 0.34405 0.85483 0.0
H23 H 0.70385 0.35903 0.92419 0.0
H24 H 0.70293 0.4495 0.82055 0.0
N25 N 0.62538 0.40877 0.8008 0.0
N26 N 0.63788 0.44301 0.77755 0.0
C27 C 0.6273 0.36198 0.86057 0.0
C28 C 0.64727 0.34798 0.89332 0.0
C29 C 0.64711 0.39813 0.83426 0.0
C30 C 0.68774 0.42118 0.84081 0.0
C31 C 0.70873 0.40737 0.87334 0.0
C32 C 0.6881 0.37053 0.89937 0.0
H33 H 0.78005 0.59715 0.31039 0.0
H34 H 0.79022 0.69071 0.40076 0.0
H35 H 0.88789 0.70516 0.31343 0.0
N36 N 0.85095 0.63096 0.2759 0.0
N37 N 0.88277 0.65081 0.25642 0.0
C38 C 0.79704 0.62614 0.32469 0.0
C39 C 0.78022 0.64062 0.35807 0.0
C40 C 0.83559 0.6489 0.30867 0.0
C41 C 0.85785 0.68763 0.32566 0.0
C42 C 0.84153 0.70306 0.35904 0.0
C43 C 0.80283 0.67912 0.37503 0.0
H44 H 0.83752 0.94374 0.78345 0.0
H45 H 0.90089 0.83813 0.77889 0.0
H46 H 0.82889 0.84672 0.88266 0.0
N47 N 0.80188 0.91764 0.85365 0.0
N48 N 0.78569 0.90264 0.88694 0.0
C49 C 0.84562 0.91416 0.79675 0.0
C50 C 0.87145 0.89331 0.77599 0.0
C51 C 0.82975 0.89721 0.83478 0.0
C52 C 0.84059 0.85956 0.85293 0.0
C53 C 0.86656 0.83837 0.83311 0.0
C54 C 0.88193 0.85538 0.79465 0.0
H55 H 0.64108 0.21299 0.33976 0.0
H56 H 0.72014 0.12358 0.33051 0.0
H57 H 0.72453 0.20096 0.43225 0.0
N58 N 0.6665 0.23995 0.41201 0.0
N59 N 0.63544 0.25354 0.40383 0.0
C60 C 0.66437 0.19774 0.35194 0.0
C61 C 0.67931 0.16752 0.33001 0.0
C62 C 0.68041 0.20929 0.38914 0.0
C63 C 0.71171 0.19092 0.40409 0.0
C64 C 0.72667 0.16027 0.383 0.0
C65 C 0.70987 0.14846 0.34626 0.0
H66 H 0.38747 0.75059 0.22419 0.0
H67 H 0.2885 0.73415 0.14377 0.0
H68 H 0.28659 0.63366 0.24046 0.0
N69 N 0.35864 0.67868 0.2706 0.0
N70 N 0.34688 0.64208 0.2909 0.0
C71 C 0.35849 0.73091 0.21437 0.0
C72 C 0.34063 0.74648 0.18092 0.0
C73 C 0.33918 0.69077 0.23608 0.0
C74 C 0.30136 0.6651 0.22388 0.0
C75 C 0.28275 0.68032 0.19018 0.0
C76 C 0.30261 0.72142 0.16921 0.0
H77 H 0.11356 0.28682 0.74912 0.0
H78 H 0.22697 0.31642 0.68052 0.0
H79 H 0.20203 0.41368 0.75569 0.0
N80 N 0.12855 0.36375 0.78421 0.0
N81 N 0.13602 0.40293 0.79476 0.0
C82 C 0.14286 0.30946 0.74007 0.0
C83 C 0.16892 0.29658 0.71279 0.0
C84 C 0.15475 0.35153 0.75596 0.0
C85 C 0.19286 0.38091 0.74404 0.0
C86 C 0.21904 0.36853 0.71679 0.0
C87 C 0.20687 0.32626 0.70157 0.0
Zn88 Zn 0.06331 0.02023 0.53283 0.0
Zn89 Zn 0.96187 0.01079 0.48446 0.0
C90 C 0.09685 0.09934 0.57076 0.0
O91 O 0.1298 0.09263 0.5536 0.0
C92 C 0.92269 0.91467 0.48572 0.0
O93 O 0.91077 0.9195 0.52201 0.0
O94 O 0.11158 0.99666 0.55162 0.0
O95 O 0.01292 0.97034 0.54748 0.0
O96 O 0.96367 0.00564 0.54421 0.0
C97 C 0.11838 0.99405 0.58861 0.0
O98 O 0.09342 0.00573 0.61366 0.0
O99 O 0.06226 0.07303 0.565 0.0
C100 C 0.91225 0.04799 0.43176 0.0
O101 O 0.93462 0.03299 0.4064 0.0
O102 O 0.91795 0.04226 0.46871 0.0
O103 O 0.01251 0.04243 0.45197 0.0
O104 O 0.07393 0.04327 0.47498 0.0
O105 O 0.94448 0.94855 0.46504 0.0
C106 C 0.98298 0.98118 0.56381 0.0
C107 C 0.05128 0.05277 0.44755 0.0
Zn108 Zn 0.54989 0.01898 0.01297 0.0
Zn109 Zn 0.49004 0.07041 0.07743 0.0
C110 C 0.50178 0.97512 0.95393 0.0
O111 O 0.51302 0.94231 0.97411 0.0
C112 C 0.56014 0.08945 0.13363 0.0
O113 O 0.58133 0.07053 0.11033 0.0
O114 O 0.59893 -3e-05 0.99306 0.0
O115 O 0.57178 0.08248 0.02719 0.0
O116 O 0.51607 0.10754 0.02726 0.0
C117 C 0.61712 0.02011 0.96117 0.0
O118 O 0.60383 0.05293 0.94341 0.0
O119 O 0.51284 0.01459 0.96576 0.0
C120 C 0.42415 0.07281 0.12678 0.0
O121 O 0.4446 0.04986 0.14914 0.0
O122 O 0.43697 0.08581 0.09117 0.0
O123 O 0.47555 0.0026 0.08159 0.0
O124 O 0.52222 0.97233 0.0555 0.0
O125 O 0.52447 0.09216 0.1242 0.0
C126 C 0.55359 0.11286 0.01736 0.0
C127 C 0.4896 0.96876 0.07605 0.0
Zn128 Zn 0.49742 0.49839 0.51706 0.0
Zn129 Zn 0.48154 0.57957 0.55274 0.0
C130 C 0.55726 0.53898 0.45717 0.0
O131 O 0.53552 0.50578 0.43826 0.0
C132 C 0.42289 0.52599 0.61092 0.0
O133 O 0.44493 0.55279 0.63539 0.0
O134 O 0.50322 0.43926 0.49773 0.0
O135 O 0.50454 0.49468 0.57642 0.0
O136 O 0.5328 0.56718 0.57586 0.0
C137 C 0.53633 0.42795 0.50515 0.0
O138 O 0.56297 0.45282 0.52755 0.0
O139 O 0.54628 0.5444 0.49225 0.0
C140 C 0.43745 0.64356 0.56977 0.0
O141 O 0.41048 0.6157 0.54988 0.0
O142 O 0.47266 0.63626 0.57434 0.0
O143 O 0.47601 0.58521 0.4934 0.0
O144 O 0.44712 0.51283 0.49321 0.0
O145 O 0.43347 0.53047 0.57431 0.0
C146 C 0.52949 0.52732 0.5909 0.0
C147 C 0.45117 0.55293 0.4783 0.0
Zn148 Zn 0.99792 0.58804 0.98078 0.0
Zn149 Zn 0.01546 0.51292 0.03768 0.0
C150 C 0.93217 0.53174 0.94147 0.0
O151 O 0.95579 0.55085 0.91051 0.0
C152 C 0.07742 0.55836 0.08602 0.0
O153 O 0.04927 0.53697 0.11272 0.0
O154 O 0.99125 0.64202 0.94643 0.0
O155 O 0.00306 0.60667 0.03656 0.0
O156 O 0.97127 0.53864 0.06097 0.0
C157 C 0.95683 0.65154 0.9496 0.0
O158 O 0.92928 0.62748 0.97566 0.0
O159 O 0.94463 0.54062 0.97608 0.0
C160 C 0.04718 0.44047 0.06133 0.0
O161 O 0.07219 0.4613 0.03186 0.0
O162 O 0.01659 0.45558 0.07005 0.0
O163 O 0.01568 0.49793 0.98002 0.0
O164 O 0.04428 0.56745 0.95726 0.0
O165 O 0.06985 0.55489 0.04937 0.0
C166 C 0.98072 0.58099 0.06369 0.0
C167 C 0.0387 0.52547 0.95445 0.0
H168 H 0.09893 0.13601 0.27174 0.0
H169 H 0.21969 0.13316 0.31036 0.0
H170 H 0.19142 0.10208 0.37632 0.0
H171 H 0.13208 0.07459 0.42293 0.0
H172 H 0.01184 0.07983 0.38401 0.0
H173 H 0.04043 0.11176 0.31879 0.0
C174 C 0.11921 0.12919 0.29468 0.0
C175 C 0.16136 0.13676 0.28589 0.0
C176 C 0.10284 0.1117 0.33267 0.0
C177 C 0.187 0.12699 0.31599 0.0
C178 C 0.1709 0.10946 0.35386 0.0
C179 C 0.11214 0.08287 0.40027 0.0
C180 C 0.06975 0.07433 0.40853 0.0
C181 C 0.1288 0.10142 0.36251 0.0
C182 C 0.0445 0.08553 0.37865 0.0
C183 C 0.06082 0.10391 0.34119 0.0
H184 H 0.42287 0.96719 0.78465 0.0
H185 H 0.41586 0.82602 0.81047 0.0
H186 H 0.44438 0.84119 0.87541 0.0
H187 H 0.4734 0.89434 0.92391 0.0
H188 H 0.48106 0.03579 0.89932 0.0
H189 H 0.4495 0.02058 0.83521 0.0
C190 C 0.4272 0.93973 0.80468 0.0
C191 C 0.41766 0.89557 0.79242 0.0
C192 C 0.44367 0.9487 0.84222 0.0
C193 C 0.42369 0.86041 0.81872 0.0
C194 C 0.43977 0.86901 0.85601 0.0
C195 C 0.46802 0.92195 0.90472 0.0
C196 C 0.47979 0.96619 0.91643 0.0
C197 C 0.45028 0.91303 0.86788 0.0
C198 C 0.47232 0.0014 0.89111 0.0
C199 C 0.45438 0.99273 0.85437 0.0
H200 H 0.64919 0.51976 0.73274 0.0
H201 H 0.57475 0.38341 0.7469 0.0
H202 H 0.53518 0.39782 0.68988 0.0
H203 H 0.52103 0.44906 0.63639 0.0
H204 H 0.59343 0.58651 0.62252 0.0
H205 H 0.63426 0.57194 0.67887 0.0
C206 C 0.6243 0.49341 0.72311 0.0
C207 C 0.61486 0.45088 0.74402 0.0
C208 C 0.60122 0.5021 0.69044 0.0
C209 C 0.58251 0.41666 0.73151 0.0
C210 C 0.55987 0.42482 0.69884 0.0
C211 C 0.54576 0.47588 0.6456 0.0
C212 C 0.55414 0.51878 0.62519 0.0
C213 C 0.56883 0.46742 0.67818 0.0
C214 C 0.58622 0.55316 0.63775 0.0
C215 C 0.60965 0.54486 0.66995 0.0
H216 H 0.94025 0.69204 0.20285 0.0
H217 H 0.85668 0.56406 0.23776 0.0
H218 H 0.88047 0.53103 0.1813 0.0
H219 H 0.92422 0.53867 0.12126 0.0
H220 H 0.00648 0.66727 0.08466 0.0
H221 H 0.98408 0.69981 0.14216 0.0
C222 C 0.9275 0.65695 0.19792 0.0
C223 C 0.89684 0.63074 0.22416 0.0
C224 C 0.94096 0.63827 0.16502 0.0
C225 C 0.88021 0.58516 0.21777 0.0
C226 C 0.89381 0.56618 0.18551 0.0
C227 C 0.93731 0.57378 0.12589 0.0
C228 C 0.96694 0.60043 0.09866 0.0
C229 C 0.92402 0.59246 0.15882 0.0
C230 C 0.98347 0.64597 0.10505 0.0
C231 C 0.97075 0.66465 0.13799 0.0
H232 H 0.28924 0.12912 0.2277 0.0
H233 H 0.23884 0.14081 0.11171 0.0
H234 H 0.29595 0.11812 0.08168 0.0
H235 H 0.36097 0.09568 0.08814 0.0
H236 H 0.408 0.07863 0.20484 0.0
H237 H 0.35103 0.10173 0.23472 0.0
C238 C 0.2902 0.12596 0.19594 0.0
C239 C 0.25981 0.13721 0.17211 0.0
C240 C 0.32263 0.11188 0.17887 0.0
C241 C 0.2622 0.13345 0.13084 0.0
C242 C 0.29474 0.12014 0.11357 0.0
C243 C 0.35864 0.09703 0.12009 0.0
C244 C 0.38872 0.0857 0.14419 0.0
C245 C 0.32534 0.10963 0.13725 0.0
C246 C 0.38515 0.08707 0.18561 0.0
C247 C 0.35264 0.10038 0.20276 0.0
H248 H 0.27628 0.92513 0.62693 0.0
H249 H 0.25643 0.97274 0.74071 0.0
H250 H 0.19636 0.99621 0.71593 0.0
H251 H 0.14923 0.00193 0.66229 0.0
H252 H 0.16991 0.9556 0.54791 0.0
H253 H 0.23006 0.93275 0.57256 0.0
C254 C 0.25888 0.94075 0.64625 0.0
C255 C 0.2705 0.94722 0.68578 0.0
C256 C 0.22456 0.95416 0.63172 0.0
C257 C 0.24781 0.96761 0.71029 0.0
C258 C 0.21355 0.98086 0.69615 0.0
C259 C 0.1668 0.98672 0.64273 0.0
C260 C 0.1549 0.98022 0.60337 0.0
C261 C 0.20152 0.97405 0.65699 0.0
C262 C 0.17833 0.96093 0.57835 0.0
C263 C 0.21274 0.94784 0.59243 0.0
H264 H 0.74544 0.4273 0.94381 0.0
H265 H 0.77053 0.43936 0.81715 0.0
H266 H 0.84169 0.47766 0.8272 0.0
H267 H 0.89675 0.50837 0.87169 0.0
H268 H 0.87239 0.49468 0.99846 0.0
H269 H 0.80132 0.45522 0.98857 0.0
C270 C 0.76651 0.43777 0.91837 0.0
C271 C 0.75232 0.43058 0.87972 0.0
C272 C 0.80768 0.45923 0.92437 0.0
C273 C 0.78017 0.44514 0.84718 0.0
C274 C 0.82106 0.46673 0.85291 0.0
C275 C 0.87602 0.49652 0.89723 0.0
C276 C 0.88998 0.50461 0.93577 0.0
C277 C 0.83512 0.47408 0.89134 0.0
C278 C 0.86258 0.48891 0.96846 0.0
C279 C 0.82184 0.46647 0.96283 0.0
H280 H 0.72135 0.67424 0.39313 0.0
H281 H 0.74646 0.54953 0.36203 0.0
H282 H 0.67873 0.50829 0.38707 0.0
H283 H 0.61276 0.50691 0.41896 0.0
H284 H 0.59061 0.6291 0.45847 0.0
H285 H 0.65741 0.67205 0.42988 0.0
C286 C 0.71252 0.63797 0.39239 0.0
C287 C 0.7392 0.61539 0.37506 0.0
C288 C 0.67403 0.61397 0.40845 0.0
C289 C 0.72644 0.5683 0.37397 0.0
C290 C 0.68775 0.54445 0.3887 0.0
C291 C 0.62257 0.54302 0.42101 0.0
C292 C 0.59696 0.56518 0.44008 0.0
C293 C 0.66132 0.56693 0.40588 0.0
C294 C 0.61005 0.61164 0.44362 0.0
C295 C 0.6481 0.63605 0.42732 0.0
H296 H 0.07376 0.28597 0.18472 0.0
H297 H 0.17659 0.29638 0.10399 0.0
H298 H 0.15601 0.35411 0.06218 0.0
H299 H 0.10985 0.40244 0.04876 0.0
H300 H 0.00664 0.39389 0.12862 0.0
H301 H 0.02599 0.33447 0.17027 0.0
C302 C 0.09145 0.30105 0.15793 0.0
C303 C 0.12649 0.287 0.14759 0.0
C304 C 0.07936 0.33439 0.13379 0.0
C305 C 0.14941 0.30652 0.11274 0.0
C306 C 0.13768 0.33957 0.08873 0.0
C307 C 0.09138 0.38753 0.07518 0.0
C308 C 0.05688 0.40265 0.08555 0.0
C309 C 0.10281 0.35381 0.099 0.0
C310 C 0.03333 0.38281 0.11989 0.0
C311 C 0.04446 0.34894 0.14379 0.0
H312 H 0.67544 0.2763 0.92041 0.0
H313 H 0.56985 0.33127 0.92549 0.0
H314 H 0.53151 0.2637 0.96474 0.0
H315 H 0.52725 0.18787 0.99565 0.0
H316 H 0.6331 0.133 0.99016 0.0
H317 H 0.67197 0.20163 0.95331 0.0
C318 C 0.64426 0.27373 0.93066 0.0
C319 C 0.62549 0.30864 0.92003 0.0
C320 C 0.62229 0.23465 0.95292 0.0
C321 C 0.58483 0.30461 0.93301 0.0
C322 C 0.56291 0.26603 0.95547 0.0
C323 C 0.55883 0.19094 0.98649 0.0
C324 C 0.57705 0.15517 0.9956 0.0
C325 C 0.58116 0.23059 0.9652 0.0
C326 C 0.61814 0.15988 0.98355 0.0
C327 C 0.64051 0.19918 0.96245 0.0
H328 H 0.84804 0.71754 0.43766 0.0
H329 H 0.88539 0.78235 0.3207 0.0
H330 H 0.91647 0.85271 0.34987 0.0
H331 H 0.9284 0.89728 0.40815 0.0
H332 H 0.88671 0.83329 0.52452 0.0
H333 H 0.86123 0.7614 0.49585 0.0
C334 C 0.86276 0.74708 0.41845 0.0
C335 C 0.86395 0.74463 0.37696 0.0
C336 C 0.87943 0.78775 0.43529 0.0
C337 C 0.88424 0.78303 0.35271 0.0
C338 C 0.90171 0.82345 0.36935 0.0
C339 C 0.91401 0.86754 0.4273 0.0
C340 C 0.90929 0.87073 0.46842 0.0
C341 C 0.89882 0.8264 0.41054 0.0
C342 C 0.89049 0.83188 0.49276 0.0
C343 C 0.87595 0.79071 0.4764 0.0
H344 H 0.35593 0.78079 0.64908 0.0
H345 H 0.47987 0.83314 0.68501 0.0
H346 H 0.50195 0.77571 0.65033 0.0
H347 H 0.4858 0.70986 0.61023 0.0
H348 H 0.36199 0.66024 0.57266 0.0
H349 H 0.34053 0.71809 0.60673 0.0
C350 C 0.38796 0.78031 0.64882 0.0
C351 C 0.41611 0.81144 0.66974 0.0
C352 C 0.40057 0.74765 0.62838 0.0
C353 C 0.45731 0.80932 0.6697 0.0
C354 C 0.47006 0.77662 0.64963 0.0
C355 C 0.45418 0.71185 0.60934 0.0
C356 C 0.42559 0.68057 0.58894 0.0
C357 C 0.4419 0.74545 0.629 0.0
C358 C 0.38474 0.68379 0.58804 0.0
C359 C 0.37234 0.71685 0.60763 0.0
H360 H 0.94616 0.89705 0.74081 0.0
H361 H 0.83017 0.92798 0.7174 0.0
H362 H 0.85499 0.95914 0.65082 0.0
H363 H 0.90925 0.97767 0.59899 0.0
H364 H 0.023 0.94091 0.61962 0.0
H365 H 0.99906 0.91127 0.68722 0.0
C366 C 0.92603 0.91001 0.72106 0.0
C367 C 0.88647 0.91063 0.73465 0.0
C368 C 0.94007 0.9269 0.6822 0.0
C369 C 0.86115 0.9281 0.70845 0.0
C370 C 0.87516 0.94562 0.6701 0.0
C371 C 0.9289 0.96329 0.61827 0.0
C372 C 0.96814 0.96219 0.60444 0.0
C373 C 0.9146 0.9454 0.65673 0.0
C374 C 0.99286 0.94268 0.62964 0.0
C375 C 0.97914 0.92562 0.66829 0.0
H376 H 0.60041 0.15301 0.30556 0.0
H377 H 0.72278 0.15546 0.26434 0.0
H378 H 0.6969 0.131 0.20052 0.0
H379 H 0.63933 0.10744 0.1565 0.0
H380 H 0.51756 0.10882 0.19645 0.0
H381 H 0.54354 0.13391 0.26017 0.0
C382 C 0.62155 0.14886 0.28248 0.0
C383 C 0.66345 0.15556 0.29016 0.0
C384 C 0.60657 0.13537 0.24546 0.0
C385 C 0.69023 0.14955 0.25978 0.0
C386 C 0.67551 0.13581 0.22307 0.0
C387 C 0.61851 0.11325 0.17914 0.0
C388 C 0.57657 0.10598 0.17174 0.0
C389 C 0.63369 0.12818 0.21569 0.0
C390 C 0.55004 0.11416 0.20129 0.0
C391 C 0.56483 0.12846 0.23783 0.0
H392 H 0.33757 0.56281 0.33163 0.0
H393 H 0.40402 0.70226 0.3282 0.0
H394 H 0.44145 0.68651 0.38628 0.0
H395 H 0.4565 0.63337 0.43738 0.0
H396 H 0.39188 0.49315 0.44126 0.0
H397 H 0.35278 0.50883 0.38389 0.0
C398 C 0.3602 0.58954 0.34385 0.0
C399 C 0.36809 0.63334 0.32552 0.0
C400 C 0.38209 0.58017 0.37725 0.0
C401 C 0.3975 0.66804 0.34147 0.0
C402 C 0.41895 0.65912 0.37477 0.0
C403 C 0.43385 0.60616 0.42578 0.0
C404 C 0.42724 0.56216 0.44363 0.0
C405 C 0.4117 0.61532 0.39274 0.0
C406 C 0.39772 0.52737 0.42807 0.0
C407 C 0.37528 0.5363 0.39526 0.0
H408 H 0.14507 0.48602 0.81233 0.0
H409 H 0.07396 0.35064 0.84291 0.0
H410 H 0.03691 0.37714 0.89544 0.0
H411 H 0.02627 0.43906 0.93364 0.0
H412 H 0.09727 0.57477 0.90152 0.0
H413 H 0.13274 0.54805 0.84861 0.0
C414 C 0.12119 0.46259 0.83046 0.0
C415 C 0.11214 0.41684 0.82394 0.0
C416 C 0.10017 0.4781 0.86034 0.0
C417 C 0.0813 0.38622 0.84736 0.0
C418 C 0.06025 0.40135 0.87742 0.0
C419 C 0.04944 0.46279 0.91502 0.0
C420 C 0.05917 0.50886 0.92171 0.0
C421 C 0.06966 0.44723 0.88436 0.0
C422 C 0.08913 0.53916 0.89711 0.0
C423 C 0.1095 0.52394 0.86682 0.0
H424 H 0.75771 0.97415 0.85932 0.0
H425 H 0.74855 0.87317 0.9565 0.0
H426 H 0.69578 0.90132 0.98962 0.0
H427 H 0.65098 0.95307 0.98959 0.0
H428 H 0.66008 0.05399 0.89192 0.0
H429 H 0.71433 0.02756 0.86033 0.0
C430 C 0.7443 0.95852 0.88783 0.0
C431 C 0.75672 0.92155 0.90572 0.0
C432 C 0.71399 0.97481 0.90646 0.0
C433 C 0.73919 0.90166 0.94253 0.0
C434 C 0.70911 0.91768 0.96131 0.0
C435 C 0.66493 0.96945 0.96148 0.0
C436 C 0.65134 0.00535 0.94312 0.0
C437 C 0.69604 0.95401 0.94338 0.0
C438 C 0.66986 0.02622 0.90672 0.0
C439 C 0.70089 0.01111 0.88857 0.0
H440 H 0.79099 0.14409 0.34201 0.0
H441 H 0.73699 0.13191 0.46029 0.0
H442 H 0.79052 0.098 0.48615 0.0
H443 H 0.85149 0.06936 0.47478 0.0
H444 H 0.90286 0.07837 0.35567 0.0
H445 H 0.85108 0.11515 0.33055 0.0
C446 C 0.79058 0.13361 0.3734 0.0
C447 C 0.75979 0.14048 0.39906 0.0
C448 C 0.82092 0.1133 0.38795 0.0
C449 C 0.76049 0.12758 0.43984 0.0
C450 C 0.79096 0.10785 0.45464 0.0
C451 C 0.85142 0.07951 0.44336 0.0
C452 C 0.881 0.07102 0.41717 0.0
C453 C 0.8212 0.10028 0.42893 0.0
C454 C 0.88036 0.08425 0.3765 0.0
C455 C 0.85079 0.10538 0.36207 0.0
H456 H 0.25866 0.66672 0.11426 0.0
H457 H 0.21572 0.63536 0.23658 0.0
H458 H 0.14874 0.59506 0.21505 0.0
H459 H 0.10197 0.57006 0.16164 0.0
H460 H 0.14415 0.60316 0.03924 0.0
H461 H 0.21158 0.6425 0.06076 0.0
C462 C 0.23458 0.65145 0.13627 0.0
C463 C 0.24238 0.65422 0.17705 0.0
C464 C 0.19589 0.62898 0.12367 0.0
C465 C 0.21092 0.63332 0.20506 0.0
C466 C 0.17244 0.61058 0.19275 0.0
C467 C 0.12583 0.58596 0.13959 0.0
C468 C 0.11792 0.58367 0.09884 0.0
C469 C 0.16453 0.6084 0.15216 0.0
C470 C 0.1493 0.60447 0.07077 0.0
C471 C 0.18793 0.62687 0.08306 0.0
H472 H 0.25261 0.38538 0.64192 0.0
H473 H 0.27487 0.42219 0.76208 0.0
H474 H 0.34016 0.47382 0.74006 0.0
H475 H 0.39082 0.5085 0.68657 0.0
H476 H 0.36882 0.46959 0.56685 0.0
H477 H 0.30395 0.41789 0.58913 0.0
C478 C 0.27195 0.40421 0.66344 0.0
C479 C 0.25884 0.39986 0.7036 0.0
C480 C 0.30961 0.43329 0.65071 0.0
C481 C 0.28396 0.42531 0.7309 0.0
C482 C 0.32143 0.4546 0.71839 0.0
C483 C 0.37193 0.48857 0.66538 0.0
C484 C 0.38466 0.49302 0.6251 0.0
C485 C 0.33454 0.45889 0.67835 0.0
C486 C 0.35981 0.46688 0.59805 0.0
C487 C 0.32263 0.43734 0.61071 0.0
H488 H 0.94163 0.82024 0.83795 0.0
H489 H 0.81432 0.76626 0.87293 0.0
H490 H 0.83118 0.70372 0.91162 0.0
H491 H 0.88205 0.66621 0.93789 0.0
H492 H 0.00948 0.71832 0.9027 0.0
H493 H 0.99259 0.77958 0.86145 0.0
C494 C 0.91758 0.7944 0.85359 0.0
C495 C 0.87687 0.79817 0.85297 0.0
C496 C 0.92752 0.75844 0.87596 0.0
C497 C 0.846 0.76455 0.87353 0.0
C498 C 0.85558 0.72872 0.89559 0.0
C499 C 0.9062 0.69096 0.92125 0.0
C500 C 0.947 0.68802 0.92372 0.0
C501 C 0.89627 0.72576 0.89755 0.0
C502 C 0.97782 0.71997 0.90145 0.0
C503 C 0.96818 0.75499 0.87787 0.0
H504 H 0.41911 0.77093 0.15287 0.0
H505 H 0.30941 0.81825 0.16036 0.0
H506 H 0.34605 0.89162 0.12865 0.0
H507 H 0.4098 0.94272 0.10085 0.0
H508 H 0.51901 0.89441 0.09135 0.0
H509 H 0.48206 0.82091 0.12206 0.0
C510 C 0.40331 0.79737 0.14741 0.0
C511 C 0.3618 0.78952 0.15899 0.0
C512 C 0.42449 0.8392 0.12912 0.0
C513 C 0.34134 0.82362 0.15141 0.0
C514 C 0.36232 0.86555 0.13355 0.0
C515 C 0.42556 0.91614 0.10558 0.0
C516 C 0.4672 0.92413 0.0942 0.0
C517 C 0.40399 0.87382 0.12265 0.0
C518 C 0.487 0.88914 0.09993 0.0
C519 C 0.46592 0.84713 0.11749 0.0
H520 H 0.09714 0.25952 0.67787 0.0
H521 H 0.21484 0.23635 0.70626 0.0
H522 H 0.20217 0.17243 0.66541 0.0
H523 H 0.16067 0.12755 0.61714 0.0
H524 H 0.04186 0.14758 0.58951 0.0
H525 H 0.05171 0.20821 0.6347 0.0
C526 C 0.11951 0.23976 0.67579 0.0
C527 C 0.15712 0.25298 0.69454 0.0
C528 C 0.11211 0.20306 0.65193 0.0
C529 C 0.18594 0.2272 0.69156 0.0
C530 C 0.17878 0.19074 0.66816 0.0
C531 C 0.13691 0.1452 0.62103 0.0
C532 C 0.10101 0.13397 0.59951 0.0
C533 C 0.14257 0.17927 0.6473 0.0
C534 C 0.06995 0.1561 0.60558 0.0
C535 C 0.07559 0.19068 0.63138 0.0
H536 H 0.56645 0.27912 0.39623 0.0
H537 H 0.67592 0.29801 0.46391 0.0
H538 H 0.65354 0.35231 0.50234 0.0
H539 H 0.60387 0.39597 0.51565 0.0
H540 H 0.49375 0.37743 0.44864 0.0
H541 H 0.515 0.32123 0.41146 0.0
C542 C 0.58515 0.29518 0.41952 0.0
C543 C 0.62261 0.28466 0.42713 0.0
C544 C 0.57195 0.3263 0.44172 0.0
C545 C 0.64686 0.30544 0.45743 0.0
C546 C 0.63409 0.33653 0.47944 0.0
C547 C 0.58431 0.37946 0.49312 0.0
C548 C 0.54728 0.39104 0.48496 0.0
C549 C 0.5968 0.34738 0.47172 0.0
C550 C 0.52236 0.36914 0.45566 0.0
C551 C 0.53457 0.33711 0.43423 0.0
loop_
_geom_bond_atom_site_label_1
_geom_bond_atom_site_label_2
_geom_bond_distance
_geom_bond_site_symmetry_2
_ccdc_geom_bond_type
H0 C5 0.929 . S
H1 C10 0.931 . S
H2 C8 0.930 . S
N3 N4 1.234 . S
N3 C7 1.453 . S
N4 N3 1.234 . S
C5 H0 0.929 . S
C5 C6 1.373 . S
C5 C7 1.368 . S
C6 C5 1.373 . S
C6 C10 1.397 . S
C7 N3 1.453 . S
C7 C5 1.368 . S
C7 C8 1.373 . S
C8 H2 0.930 . S
C8 C7 1.373 . S
C8 C9 1.371 . S
C9 C8 1.371 . S
C9 C10 1.383 . S
C10 H1 0.931 . S
C10 C6 1.397 . S
C10 C9 1.383 . S
H11 C16 0.929 . S
H12 C21 0.931 . S
H13 C19 0.930 . S
N14 N15 1.234 . S
N14 C18 1.453 . S
N15 N14 1.234 . S
C16 H11 0.929 . S
C16 C17 1.373 . S
C16 C18 1.368 . S
C17 C16 1.373 . S
C17 C21 1.397 . S
C18 N14 1.453 . S
C18 C16 1.368 . S
C18 C19 1.373 . S
C19 H13 0.930 . S
C19 C18 1.373 . S
C19 C20 1.371 . S
C20 C19 1.371 . S
C20 C21 1.383 . S
C21 H12 0.931 . S
C21 C17 1.397 . S
C21 C20 1.383 . S
H22 C27 0.929 . S
H23 C32 0.931 . S
H24 C30 0.930 . S
N25 N26 1.234 . S
N25 C29 1.453 . S
N26 N25 1.234 . S
C27 H22 0.929 . S
C27 C28 1.373 . S
C27 C29 1.368 . S
C28 C27 1.373 . S
C28 C32 1.397 . S
C29 N25 1.453 . S
C29 C27 1.368 . S
C29 C30 1.373 . S
C30 H24 0.930 . S
C30 C29 1.373 . S
C30 C31 1.371 . S
C31 C30 1.371 . S
C31 C32 1.383 . S
C32 H23 0.931 . S
C32 C28 1.397 . S
C32 C31 1.383 . S
H33 C38 0.929 . S
H34 C43 0.931 . S
H35 C41 0.930 . S
N36 N37 1.234 . S
N36 C40 1.453 . S
N37 N36 1.234 . S
C38 H33 0.929 . S
C38 C39 1.373 . S
C38 C40 1.368 . S
C39 C38 1.373 . S
C39 C43 1.397 . S
C40 N36 1.453 . S
C40 C38 1.368 . S
C40 C41 1.373 . S
C41 H35 0.930 . S
C41 C40 1.373 . S
C41 C42 1.371 . S
C42 C41 1.371 . S
C42 C43 1.383 . S
C43 H34 0.931 . S
C43 C39 1.397 . S
C43 C42 1.383 . S
H44 C49 0.929 . S
H45 C54 0.931 . S
H46 C52 0.930 . S
N47 N48 1.234 . S
N47 C51 1.453 . S
N48 N47 1.234 . S
C49 H44 0.929 . S
C49 C50 1.373 . S
C49 C51 1.368 . S
C50 C49 1.373 . S
C50 C54 1.397 . S
C51 N47 1.453 . S
C51 C49 1.368 . S
C51 C52 1.373 . S
C52 H46 0.930 . S
C52 C51 1.373 . S
C52 C53 1.371 . S
C53 C52 1.371 . S
C53 C54 1.383 . S
C54 H45 0.931 . S
C54 C50 1.397 . S
C54 C53 1.383 . S
H55 C60 0.929 . S
H56 C65 0.931 . S
H57 C63 0.930 . S
N58 N59 1.234 . S
N58 C62 1.453 . S
N59 N58 1.234 . S
C60 H55 0.929 . S
C60 C61 1.373 . S
C60 C62 1.368 . S
C61 C60 1.373 . S
C61 C65 1.397 . S
C62 N58 1.453 . S
C62 C60 1.368 . S
C62 C63 1.373 . S
C63 H57 0.930 . S
C63 C62 1.373 . S
C63 C64 1.371 . S
C64 C63 1.371 . S
C64 C65 1.383 . S
C65 H56 0.931 . S
C65 C61 1.397 . S
C65 C64 1.383 . S
H66 C71 0.929 . S
H67 C76 0.931 . S
H68 C74 0.930 . S
N69 N70 1.234 . S
N69 C73 1.453 . S
N70 N69 1.234 . S
C71 H66 0.929 . S
C71 C72 1.373 . S
C71 C73 1.368 . S
C72 C71 1.373 . S
C72 C76 1.397 . S
C73 N69 1.453 . S
C73 C71 1.368 . S
C73 C74 1.373 . S
C74 H68 0.930 . S
C74 C73 1.373 . S
C74 C75 1.371 . S
C75 C74 1.371 . S
C75 C76 1.383 . S
C76 H67 0.931 . S
C76 C72 1.397 . S
C76 C75 1.383 . S
H77 C82 0.929 . S
H78 C87 0.931 . S
H79 C85 0.930 . S
N80 N81 1.234 . S
N80 C84 1.453 . S
N81 N80 1.234 . S
C82 H77 0.929 . S
C82 C83 1.373 . S
C82 C84 1.368 . S
C83 C82 1.373 . S
C83 C87 1.397 . S
C84 N80 1.453 . S
C84 C82 1.368 . S
C84 C85 1.373 . S
C85 H79 0.930 . S
C85 C84 1.373 . S
C85 C86 1.371 . S
C86 C85 1.371 . S
C86 C87 1.383 . S
C87 H78 0.931 . S
C87 C83 1.397 . S
C87 C86 1.383 . S
Zn88 O94 1.962 1_545 S
Zn88 O95 1.965 1_545 S
Zn88 O99 2.024 . S
Zn88 O104 1.969 . S
Zn89 O96 1.969 1_545 S
Zn89 O102 1.969 . S
Zn89 O103 1.965 1_655 S
Zn89 O105 2.024 1_545 S
C90 O91 1.229 . S
C90 O99 1.058 . S
O91 C90 1.229 . S
C92 O93 1.229 . S
C92 O105 1.058 . S
O93 C92 1.229 . S
O94 Zn88 1.962 1_565 S
O94 C97 1.271 . S
O95 Zn88 1.965 1_565 S
O95 C106 1.260 1_455 S
O96 Zn89 1.969 1_565 S
O96 C106 1.258 . S
C97 O94 1.271 . S
C97 O98 1.228 . S
O98 C97 1.228 . S
O99 Zn88 2.024 . S
O99 C90 1.058 . S
C100 O101 1.228 . S
C100 O102 1.267 . S
O101 C100 1.228 . S
O102 Zn89 1.969 . S
O102 C100 1.267 . S
O103 Zn89 1.965 1_455 S
O103 C107 1.260 . S
O104 Zn88 1.969 . S
O104 C107 1.258 . S
O105 Zn89 2.024 1_565 S
O105 C92 1.058 . S
C106 O95 1.260 1_655 S
C106 O96 1.258 . S
C107 O103 1.260 . S
C107 O104 1.258 . S
Zn108 O114 1.969 . S
Zn108 O115 1.965 1_566 S
Zn108 O119 2.024 . S
Zn108 O124 1.969 1_556 S
Zn109 O116 1.969 . S
Zn109 O122 1.969 . S
Zn109 O123 1.965 1_545 S
Zn109 O125 2.024 . S
C110 O111 1.229 . S
C110 O119 1.058 . S
O111 C110 1.229 . S
C112 O113 1.229 . S
C112 O125 1.058 . S
O113 C112 1.229 . S
O114 Zn108 1.969 . S
O114 C117 1.267 . S
O115 Zn108 1.965 1_544 S
O115 C126 1.260 . S
O116 Zn109 1.969 . S
O116 C126 1.258 . S
C117 O114 1.267 . S
C117 O118 1.228 . S
O118 C117 1.228 . S
O119 Zn108 2.024 . S
O119 C110 1.058 . S
C120 O121 1.228 . S
C120 O122 1.267 . S
O121 C120 1.228 . S
O122 Zn109 1.969 . S
O122 C120 1.267 . S
O123 Zn109 1.965 1_565 S
O123 C127 1.260 . S
O124 Zn108 1.969 1_554 S
O124 C127 1.258 . S
O125 Zn109 2.024 . S
O125 C112 1.058 . S
C126 O115 1.260 . S
C126 O116 1.258 . S
C127 O123 1.260 . S
C127 O124 1.258 . S
Zn128 O134 1.969 . S
Zn128 O135 1.965 . S
Zn128 O139 2.024 . S
Zn128 O144 1.969 . S
Zn129 O136 1.969 . S
Zn129 O142 1.969 . S
Zn129 O143 1.965 . S
Zn129 O145 2.024 . S
C130 O131 1.229 . S
C130 O139 1.058 . S
O131 C130 1.229 . S
C132 O133 1.229 . S
C132 O145 1.058 . S
O133 C132 1.229 . S
O134 Zn128 1.969 . S
O134 C137 1.267 . S
O135 Zn128 1.965 . S
O135 C146 1.260 . S
O136 Zn129 1.969 . S
O136 C146 1.258 . S
C137 O134 1.267 . S
C137 O138 1.228 . S
O138 C137 1.228 . S
O139 Zn128 2.024 . S
O139 C130 1.058 . S
C140 O141 1.228 . S
C140 O142 1.267 . S
O141 C140 1.228 . S
O142 Zn129 1.969 . S
O142 C140 1.267 . S
O143 Zn129 1.965 . S
O143 C147 1.260 . S
O144 Zn128 1.969 . S
O144 C147 1.258 . S
O145 Zn129 2.024 . S
O145 C132 1.058 . S
C146 O135 1.260 . S
C146 O136 1.258 . S
C147 O143 1.260 . S
C147 O144 1.258 . S
Zn148 O154 1.969 . S
Zn148 O155 1.965 1_556 S
Zn148 O159 2.024 . S
Zn148 O164 1.969 1_655 S
Zn149 O156 1.969 . S
Zn149 O162 1.969 . S
Zn149 O163 1.965 1_554 S
Zn149 O165 2.024 . S
C150 O151 1.229 . S
C150 O159 1.058 . S
O151 C150 1.229 . S
C152 O153 1.229 . S
C152 O165 1.058 . S
O153 C152 1.229 . S
O154 Zn148 1.969 . S
O154 C157 1.267 . S
O155 Zn148 1.965 1_554 S
O155 C166 1.260 . S
O156 Zn149 1.969 . S
O156 C166 1.258 1_455 S
C157 O154 1.267 . S
C157 O158 1.228 . S
O158 C157 1.228 . S
O159 Zn148 2.024 . S
O159 C150 1.058 . S
C160 O161 1.228 . S
C160 O162 1.267 . S
O161 C160 1.228 . S
O162 Zn149 1.969 . S
O162 C160 1.267 . S
O163 Zn149 1.965 1_556 S
O163 C167 1.260 . S
O164 Zn148 1.969 1_455 S
O164 C167 1.258 . S
O165 Zn149 2.024 . S
O165 C152 1.058 . S
C166 O155 1.260 . S
C166 O156 1.258 1_655 S
C167 O163 1.260 . S
C167 O164 1.258 . S
H168 C174 0.930 . S
H169 C177 0.930 . S
H170 C178 0.930 . S
H171 C179 0.930 . S
H172 C182 0.930 . S
H173 C183 0.930 . S
C174 H168 0.930 . S
C174 C175 1.355 . S
C174 C176 1.415 . S
C175 C174 1.355 . S
C175 C177 1.419 . S
C176 C174 1.415 . S
C176 C181 1.425 . S
C176 C183 1.409 . S
C177 H169 0.930 . S
C177 C175 1.419 . S
C177 C178 1.362 . S
C178 H170 0.930 . S
C178 C177 1.362 . S
C178 C181 1.409 . S
C179 H171 0.930 . S
C179 C180 1.355 . S
C179 C181 1.415 . S
C180 C179 1.355 . S
C180 C182 1.419 . S
C181 C176 1.425 . S
C181 C178 1.409 . S
C181 C179 1.415 . S
C182 H172 0.930 . S
C182 C180 1.419 . S
C182 C183 1.362 . S
C183 H173 0.930 . S
C183 C176 1.409 . S
C183 C182 1.362 . S
H184 C190 0.930 . S
H185 C193 0.930 . S
H186 C194 0.930 . S
H187 C195 0.930 . S
H188 C198 0.930 . S
H189 C199 0.930 . S
C190 H184 0.930 . S
C190 C191 1.355 . S
C190 C192 1.415 . S
C191 C190 1.355 . S
C191 C193 1.419 . S
C192 C190 1.415 . S
C192 C197 1.425 . S
C192 C199 1.409 . S
C193 H185 0.930 . S
C193 C191 1.419 . S
C193 C194 1.362 . S
C194 H186 0.930 . S
C194 C193 1.362 . S
C194 C197 1.409 . S
C195 H187 0.930 . S
C195 C196 1.355 . S
C195 C197 1.415 . S
C196 C195 1.355 . S
C196 C198 1.419 . S
C197 C192 1.425 . S
C197 C194 1.409 . S
C197 C195 1.415 . S
C198 H188 0.930 . S
C198 C196 1.419 . S
C198 C199 1.362 . S
C199 H189 0.930 . S
C199 C192 1.409 . S
C199 C198 1.362 . S
H200 C206 0.930 . S
H201 C209 0.930 . S
H202 C210 0.930 . S
H203 C211 0.930 . S
H204 C214 0.930 . S
H205 C215 0.930 . S
C206 H200 0.930 . S
C206 C207 1.355 . S
C206 C208 1.415 . S
C207 C206 1.355 . S
C207 C209 1.419 . S
C208 C206 1.415 . S
C208 C213 1.425 . S
C208 C215 1.409 . S
C209 H201 0.930 . S
C209 C207 1.419 . S
C209 C210 1.362 . S
C210 H202 0.930 . S
C210 C209 1.362 . S
C210 C213 1.409 . S
C211 H203 0.930 . S
C211 C212 1.355 . S
C211 C213 1.415 . S
C212 C211 1.355 . S
C212 C214 1.419 . S
C213 C208 1.425 . S
C213 C210 1.409 . S
C213 C211 1.415 . S
C214 H204 0.930 . S
C214 C212 1.419 . S
C214 C215 1.362 . S
C215 H205 0.930 . S
C215 C208 1.409 . S
C215 C214 1.362 . S
H216 C222 0.930 . S
H217 C225 0.930 . S
H218 C226 0.930 . S
H219 C227 0.930 . S
H220 C230 0.930 . S
H221 C231 0.930 . S
C222 H216 0.930 . S
C222 C223 1.355 . S
C222 C224 1.415 . S
C223 C222 1.355 . S
C223 C225 1.419 . S
C224 C222 1.415 . S
C224 C229 1.425 . S
C224 C231 1.409 . S
C225 H217 0.930 . S
C225 C223 1.419 . S
C225 C226 1.362 . S
C226 H218 0.930 . S
C226 C225 1.362 . S
C226 C229 1.409 . S
C227 H219 0.930 . S
C227 C228 1.355 . S
C227 C229 1.415 . S
C228 C227 1.355 . S
C228 C230 1.419 . S
C229 C224 1.425 . S
C229 C226 1.409 . S
C229 C227 1.415 . S
C230 H220 0.930 . S
C230 C228 1.419 . S
C230 C231 1.362 . S
C231 H221 0.930 . S
C231 C224 1.409 . S
C231 C230 1.362 . S
H232 C238 0.930 . S
H233 C241 0.930 . S
H234 C242 0.930 . S
H235 C243 0.930 . S
H236 C246 0.930 . S
H237 C247 0.930 . S
C238 H232 0.930 . S
C238 C239 1.355 . S
C238 C240 1.415 . S
C239 C238 1.355 . S
C239 C241 1.419 . S
C240 C238 1.415 . S
C240 C245 1.425 . S
C240 C247 1.409 . S
C241 H233 0.930 . S
C241 C239 1.419 . S
C241 C242 1.362 . S
C242 H234 0.930 . S
C242 C241 1.362 . S
C242 C245 1.409 . S
C243 H235 0.930 . S
C243 C244 1.355 . S
C243 C245 1.415 . S
C244 C243 1.355 . S
C244 C246 1.419 . S
C245 C240 1.425 . S
C245 C242 1.409 . S
C245 C243 1.415 . S
C246 H236 0.930 . S
C246 C244 1.419 . S
C246 C247 1.362 . S
C247 H237 0.930 . S
C247 C240 1.409 . S
C247 C246 1.362 . S
H248 C254 0.930 . S
H249 C257 0.930 . S
H250 C258 0.930 . S
H251 C259 0.930 . S
H252 C262 0.930 . S
H253 C263 0.930 . S
C254 H248 0.930 . S
C254 C255 1.355 . S
C254 C256 1.415 . S
C255 C254 1.355 . S
C255 C257 1.419 . S
C256 C254 1.415 . S
C256 C261 1.425 . S
C256 C263 1.409 . S
C257 H249 0.930 . S
C257 C255 1.419 . S
C257 C258 1.362 . S
C258 H250 0.930 . S
C258 C257 1.362 . S
C258 C261 1.409 . S
C259 H251 0.930 . S
C259 C260 1.355 . S
C259 C261 1.415 . S
C260 C259 1.355 . S
C260 C262 1.419 . S
C261 C256 1.425 . S
C261 C258 1.409 . S
C261 C259 1.415 . S
C262 H252 0.930 . S
C262 C260 1.419 . S
C262 C263 1.362 . S
C263 H253 0.930 . S
C263 C256 1.409 . S
C263 C262 1.362 . S
H264 C270 0.930 . S
H265 C273 0.930 . S
H266 C274 0.930 . S
H267 C275 0.930 . S
H268 C278 0.930 . S
H269 C279 0.930 . S
C270 H264 0.930 . S
C270 C271 1.355 . S
C270 C272 1.415 . S
C271 C270 1.355 . S
C271 C273 1.419 . S
C272 C270 1.415 . S
C272 C277 1.425 . S
C272 C279 1.409 . S
C273 H265 0.930 . S
C273 C271 1.419 . S
C273 C274 1.362 . S
C274 H266 0.930 . S
C274 C273 1.362 . S
C274 C277 1.409 . S
C275 H267 0.930 . S
C275 C276 1.355 . S
C275 C277 1.415 . S
C276 C275 1.355 . S
C276 C278 1.419 . S
C277 C272 1.425 . S
C277 C274 1.409 . S
C277 C275 1.415 . S
C278 H268 0.930 . S
C278 C276 1.419 . S
C278 C279 1.362 . S
C279 H269 0.930 . S
C279 C272 1.409 . S
C279 C278 1.362 . S
H280 C286 0.930 . S
H281 C289 0.930 . S
H282 C290 0.930 . S
H283 C291 0.930 . S
H284 C294 0.930 . S
H285 C295 0.930 . S
C286 H280 0.930 . S
C286 C287 1.355 . S
C286 C288 1.415 . S
C287 C286 1.355 . S
C287 C289 1.419 . S
C288 C286 1.415 . S
C288 C293 1.425 . S
C288 C295 1.409 . S
C289 H281 0.930 . S
C289 C287 1.419 . S
C289 C290 1.362 . S
C290 H282 0.930 . S
C290 C289 1.362 . S
C290 C293 1.409 . S
C291 H283 0.930 . S
C291 C292 1.355 . S
C291 C293 1.415 . S
C292 C291 1.355 . S
C292 C294 1.419 . S
C293 C288 1.425 . S
C293 C290 1.409 . S
C293 C291 1.415 . S
C294 H284 0.930 . S
C294 C292 1.419 . S
C294 C295 1.362 . S
C295 H285 0.930 . S
C295 C288 1.409 . S
C295 C294 1.362 . S
H296 C302 0.930 . S
H297 C305 0.930 . S
H298 C306 0.930 . S
H299 C307 0.930 . S
H300 C310 0.930 . S
H301 C311 0.930 . S
C302 H296 0.930 . S
C302 C303 1.355 . S
C302 C304 1.415 . S
C303 C302 1.355 . S
C303 C305 1.419 . S
C304 C302 1.415 . S
C304 C309 1.425 . S
C304 C311 1.409 . S
C305 H297 0.930 . S
C305 C303 1.419 . S
C305 C306 1.362 . S
C306 H298 0.930 . S
C306 C305 1.362 . S
C306 C309 1.409 . S
C307 H299 0.930 . S
C307 C308 1.355 . S
C307 C309 1.415 . S
C308 C307 1.355 . S
C308 C310 1.419 . S
C309 C304 1.425 . S
C309 C306 1.409 . S
C309 C307 1.415 . S
C310 H300 0.930 . S
C310 C308 1.419 . S
C310 C311 1.362 . S
C311 H301 0.930 . S
C311 C304 1.409 . S
C311 C310 1.362 . S
H312 C318 0.930 . S
H313 C321 0.930 . S
H314 C322 0.930 . S
H315 C323 0.930 . S
H316 C326 0.930 1_554 S
H317 C327 0.930 . S
C318 H312 0.930 . S
C318 C319 1.355 . S
C318 C320 1.415 . S
C319 C318 1.355 . S
C319 C321 1.419 . S
C320 C318 1.415 . S
C320 C325 1.425 . S
C320 C327 1.409 . S
C321 H313 0.930 . S
C321 C319 1.419 . S
C321 C322 1.362 . S
C322 H314 0.930 . S
C322 C321 1.362 . S
C322 C325 1.409 . S
C323 H315 0.930 . S
C323 C324 1.355 . S
C323 C325 1.415 . S
C324 C323 1.355 . S
C324 C326 1.419 . S
C325 C320 1.425 . S
C325 C322 1.409 . S
C325 C323 1.415 . S
C326 H316 0.930 1_556 S
C326 C324 1.419 . S
C326 C327 1.362 . S
C327 H317 0.930 . S
C327 C320 1.409 . S
C327 C326 1.362 . S
H328 C334 0.930 . S
H329 C337 0.930 . S
H330 C338 0.930 . S
H331 C339 0.930 . S
H332 C342 0.930 . S
H333 C343 0.930 . S
C334 H328 0.930 . S
C334 C335 1.355 . S
C334 C336 1.415 . S
C335 C334 1.355 . S
C335 C337 1.419 . S
C336 C334 1.415 . S
C336 C341 1.425 . S
C336 C343 1.409 . S
C337 H329 0.930 . S
C337 C335 1.419 . S
C337 C338 1.362 . S
C338 H330 0.930 . S
C338 C337 1.362 . S
C338 C341 1.409 . S
C339 H331 0.930 . S
C339 C340 1.355 . S
C339 C341 1.415 . S
C340 C339 1.355 . S
C340 C342 1.419 . S
C341 C336 1.425 . S
C341 C338 1.409 . S
C341 C339 1.415 . S
C342 H332 0.930 . S
C342 C340 1.419 . S
C342 C343 1.362 . S
C343 H333 0.930 . S
C343 C336 1.409 . S
C343 C342 1.362 . S
H344 C350 0.930 . S
H345 C353 0.930 . S
H346 C354 0.930 . S
H347 C355 0.930 . S
H348 C358 0.930 . S
H349 C359 0.930 . S
C350 H344 0.930 . S
C350 C351 1.355 . S
C350 C352 1.415 . S
C351 C350 1.355 . S
C351 C353 1.419 . S
C352 C350 1.415 . S
C352 C357 1.425 . S
C352 C359 1.409 . S
C353 H345 0.930 . S
C353 C351 1.419 . S
C353 C354 1.362 . S
C354 H346 0.930 . S
C354 C353 1.362 . S
C354 C357 1.409 . S
C355 H347 0.930 . S
C355 C356 1.355 . S
C355 C357 1.415 . S
C356 C355 1.355 . S
C356 C358 1.419 . S
C357 C352 1.425 . S
C357 C354 1.409 . S
C357 C355 1.415 . S
C358 H348 0.930 . S
C358 C356 1.419 . S
C358 C359 1.362 . S
C359 H349 0.930 . S
C359 C352 1.409 . S
C359 C358 1.362 . S
H360 C366 0.930 . S
H361 C369 0.930 . S
H362 C370 0.930 . S
H363 C371 0.930 . S
H364 C374 0.930 . S
H365 C375 0.930 . S
C366 H360 0.930 . S
C366 C367 1.355 . S
C366 C368 1.415 . S
C367 C366 1.355 . S
C367 C369 1.419 . S
C368 C366 1.415 . S
C368 C373 1.425 . S
C368 C375 1.409 . S
C369 H361 0.930 . S
C369 C367 1.419 . S
C369 C370 1.362 . S
C370 H362 0.930 . S
C370 C369 1.362 . S
C370 C373 1.409 . S
C371 H363 0.930 . S
C371 C372 1.355 . S
C371 C373 1.415 . S
C372 C371 1.355 . S
C372 C374 1.419 . S
C373 C368 1.425 . S
C373 C370 1.409 . S
C373 C371 1.415 . S
C374 H364 0.930 . S
C374 C372 1.419 . S
C374 C375 1.362 . S
C375 H365 0.930 . S
C375 C368 1.409 . S
C375 C374 1.362 . S
H376 C382 0.930 . S
H377 C385 0.930 . S
H378 C386 0.930 . S
H379 C387 0.930 . S
H380 C390 0.930 . S
H381 C391 0.930 . S
C382 H376 0.930 . S
C382 C383 1.355 . S
C382 C384 1.415 . S
C383 C382 1.355 . S
C383 C385 1.419 . S
C384 C382 1.415 . S
C384 C389 1.425 . S
C384 C391 1.409 . S
C385 H377 0.930 . S
C385 C383 1.419 . S
C385 C386 1.362 . S
C386 H378 0.930 . S
C386 C385 1.362 . S
C386 C389 1.409 . S
C387 H379 0.930 . S
C387 C388 1.355 . S
C387 C389 1.415 . S
C388 C387 1.355 . S
C388 C390 1.419 . S
C389 C384 1.425 . S
C389 C386 1.409 . S
C389 C387 1.415 . S
C390 H380 0.930 . S
C390 C388 1.419 . S
C390 C391 1.362 . S
C391 H381 0.930 . S
C391 C384 1.409 . S
C391 C390 1.362 . S
H392 C398 0.930 . S
H393 C401 0.930 . S
H394 C402 0.930 . S
H395 C403 0.930 . S
H396 C406 0.930 . S
H397 C407 0.930 . S
C398 H392 0.930 . S
C398 C399 1.355 . S
C398 C400 1.415 . S
C399 C398 1.355 . S
C399 C401 1.419 . S
C400 C398 1.415 . S
C400 C405 1.425 . S
C400 C407 1.409 . S
C401 H393 0.930 . S
C401 C399 1.419 . S
C401 C402 1.362 . S
C402 H394 0.930 . S
C402 C401 1.362 . S
C402 C405 1.409 . S
C403 H395 0.930 . S
C403 C404 1.355 . S
C403 C405 1.415 . S
C404 C403 1.355 . S
C404 C406 1.419 . S
C405 C400 1.425 . S
C405 C402 1.409 . S
C405 C403 1.415 . S
C406 H396 0.930 . S
C406 C404 1.419 . S
C406 C407 1.362 . S
C407 H397 0.930 . S
C407 C400 1.409 . S
C407 C406 1.362 . S
H408 C414 0.930 . S
H409 C417 0.930 . S
H410 C418 0.930 . S
H411 C419 0.930 . S
H412 C422 0.930 . S
H413 C423 0.930 . S
C414 H408 0.930 . S
C414 C415 1.355 . S
C414 C416 1.415 . S
C415 C414 1.355 . S
C415 C417 1.419 . S
C416 C414 1.415 . S
C416 C421 1.425 . S
C416 C423 1.409 . S
C417 H409 0.930 . S
C417 C415 1.419 . S
C417 C418 1.362 . S
C418 H410 0.930 . S
C418 C417 1.362 . S
C418 C421 1.409 . S
C419 H411 0.930 . S
C419 C420 1.355 . S
C419 C421 1.415 . S
C420 C419 1.355 . S
C420 C422 1.419 . S
C421 C416 1.425 . S
C421 C418 1.409 . S
C421 C419 1.415 . S
C422 H412 0.930 . S
C422 C420 1.419 . S
C422 C423 1.362 . S
C423 H413 0.930 . S
C423 C416 1.409 . S
C423 C422 1.362 . S
H424 C430 0.930 . S
H425 C433 0.930 . S
H426 C434 0.930 . S
H427 C435 0.930 . S
H428 C438 0.930 . S
H429 C439 0.930 . S
C430 H424 0.930 . S
C430 C431 1.355 . S
C430 C432 1.415 . S
C431 C430 1.355 . S
C431 C433 1.419 . S
C432 C430 1.415 . S
C432 C437 1.425 . S
C432 C439 1.409 . S
C433 H425 0.930 . S
C433 C431 1.419 . S
C433 C434 1.362 . S
C434 H426 0.930 . S
C434 C433 1.362 . S
C434 C437 1.409 . S
C435 H427 0.930 . S
C435 C436 1.355 . S
C435 C437 1.415 . S
C436 C435 1.355 . S
C436 C438 1.419 . S
C437 C432 1.425 . S
C437 C434 1.409 . S
C437 C435 1.415 . S
C438 H428 0.930 . S
C438 C436 1.419 . S
C438 C439 1.362 . S
C439 H429 0.930 . S
C439 C432 1.409 . S
C439 C438 1.362 . S
H440 C446 0.930 . S
H441 C449 0.930 . S
H442 C450 0.930 . S
H443 C451 0.930 . S
H444 C454 0.930 . S
H445 C455 0.930 . S
C446 H440 0.930 . S
C446 C447 1.355 . S
C446 C448 1.415 . S
C447 C446 1.355 . S
C447 C449 1.419 . S
C448 C446 1.415 . S
C448 C453 1.425 . S
C448 C455 1.409 . S
C449 H441 0.930 . S
C449 C447 1.419 . S
C449 C450 1.362 . S
C450 H442 0.930 . S
C450 C449 1.362 . S
C450 C453 1.409 . S
C451 H443 0.930 . S
C451 C452 1.355 . S
C451 C453 1.415 . S
C452 C451 1.355 . S
C452 C454 1.419 . S
C453 C448 1.425 . S
C453 C450 1.409 . S
C453 C451 1.415 . S
C454 H444 0.930 . S
C454 C452 1.419 . S
C454 C455 1.362 . S
C455 H445 0.930 . S
C455 C448 1.409 . S
C455 C454 1.362 . S
H456 C462 0.930 . S
H457 C465 0.930 . S
H458 C466 0.930 . S
H459 C467 0.930 . S
H460 C470 0.930 . S
H461 C471 0.930 . S
C462 H456 0.930 . S
C462 C463 1.355 . S
C462 C464 1.415 . S
C463 C462 1.355 . S
C463 C465 1.419 . S
C464 C462 1.415 . S
C464 C469 1.425 . S
C464 C471 1.409 . S
C465 H457 0.930 . S
C465 C463 1.419 . S
C465 C466 1.362 . S
C466 H458 0.930 . S
C466 C465 1.362 . S
C466 C469 1.409 . S
C467 H459 0.930 . S
C467 C468 1.355 . S
C467 C469 1.415 . S
C468 C467 1.355 . S
C468 C470 1.419 . S
C469 C464 1.425 . S
C469 C466 1.409 . S
C469 C467 1.415 . S
C470 H460 0.930 . S
C470 C468 1.419 . S
C470 C471 1.362 . S
C471 H461 0.930 . S
C471 C464 1.409 . S
C471 C470 1.362 . S
H472 C478 0.930 . S
H473 C481 0.930 . S
H474 C482 0.930 . S
H475 C483 0.930 . S
H476 C486 0.930 . S
H477 C487 0.930 . S
C478 H472 0.930 . S
C478 C479 1.355 . S
C478 C480 1.415 . S
C479 C478 1.355 . S
C479 C481 1.419 . S
C480 C478 1.415 . S
C480 C485 1.425 . S
C480 C487 1.409 . S
C481 H473 0.930 . S
C481 C479 1.419 . S
C481 C482 1.362 . S
C482 H474 0.930 . S
C482 C481 1.362 . S
C482 C485 1.409 . S
C483 H475 0.930 . S
C483 C484 1.355 . S
C483 C485 1.415 . S
C484 C483 1.355 . S
C484 C486 1.419 . S
C485 C480 1.425 . S
C485 C482 1.409 . S
C485 C483 1.415 . S
C486 H476 0.930 . S
C486 C484 1.419 . S
C486 C487 1.362 . S
C487 H477 0.930 . S
C487 C480 1.409 . S
C487 C486 1.362 . S
H488 C494 0.930 . S
H489 C497 0.930 . S
H490 C498 0.930 . S
H491 C499 0.930 . S
H492 C502 0.930 . S
H493 C503 0.930 . S
C494 H488 0.930 . S
C494 C495 1.355 . S
C494 C496 1.415 . S
C495 C494 1.355 . S
C495 C497 1.419 . S
C496 C494 1.415 . S
C496 C501 1.425 . S
C496 C503 1.409 . S
C497 H489 0.930 . S
C497 C495 1.419 . S
C497 C498 1.362 . S
C498 H490 0.930 . S
C498 C497 1.362 . S
C498 C501 1.409 . S
C499 H491 0.930 . S
C499 C500 1.355 . S
C499 C501 1.415 . S
C500 C499 1.355 . S
C500 C502 1.419 . S
C501 C496 1.425 . S
C501 C498 1.409 . S
C501 C499 1.415 . S
C502 H492 0.930 . S
C502 C500 1.419 . S
C502 C503 1.362 . S
C503 H493 0.930 . S
C503 C496 1.409 . S
C503 C502 1.362 . S
H504 C510 0.930 . S
H505 C513 0.930 . S
H506 C514 0.930 . S
H507 C515 0.930 . S
H508 C518 0.930 . S
H509 C519 0.930 . S
C510 H504 0.930 . S
C510 C511 1.355 . S
C510 C512 1.415 . S
C511 C510 1.355 . S
C511 C513 1.419 . S
C512 C510 1.415 . S
C512 C517 1.425 . S
C512 C519 1.409 . S
C513 H505 0.930 . S
C513 C511 1.419 . S
C513 C514 1.362 . S
C514 H506 0.930 . S
C514 C513 1.362 . S
C514 C517 1.409 . S
C515 H507 0.930 . S
C515 C516 1.355 . S
C515 C517 1.415 . S
C516 C515 1.355 . S
C516 C518 1.419 . S
C517 C512 1.425 . S
C517 C514 1.409 . S
C517 C515 1.415 . S
C518 H508 0.930 . S
C518 C516 1.419 . S
C518 C519 1.362 . S
C519 H509 0.930 . S
C519 C512 1.409 . S
C519 C518 1.362 . S
H520 C526 0.930 . S
H521 C529 0.930 . S
H522 C530 0.930 . S
H523 C531 0.930 . S
H524 C534 0.930 . S
H525 C535 0.930 . S
C526 H520 0.930 . S
C526 C527 1.355 . S
C526 C528 1.415 . S
C527 C526 1.355 . S
C527 C529 1.419 . S
C528 C526 1.415 . S
C528 C533 1.425 . S
C528 C535 1.409 . S
C529 H521 0.930 . S
C529 C527 1.419 . S
C529 C530 1.362 . S
C530 H522 0.930 . S
C530 C529 1.362 . S
C530 C533 1.409 . S
C531 H523 0.930 . S
C531 C532 1.355 . S
C531 C533 1.415 . S
C532 C531 1.355 . S
C532 C534 1.419 . S
C533 C528 1.425 . S
C533 C530 1.409 . S
C533 C531 1.415 . S
C534 H524 0.930 . S
C534 C532 1.419 . S
C534 C535 1.362 . S
C535 H525 0.930 . S
C535 C528 1.409 . S
C535 C534 1.362 . S
H536 C542 0.930 . S
H537 C545 0.930 . S
H538 C546 0.930 . S
H539 C547 0.930 . S
H540 C550 0.930 . S
H541 C551 0.930 . S
C542 H536 0.930 . S
C542 C543 1.355 . S
C542 C544 1.415 . S
C543 C542 1.355 . S
C543 C545 1.419 . S
C544 C542 1.415 . S
C544 C549 1.425 . S
C544 C551 1.409 . S
C545 H537 0.930 . S
C545 C543 1.419 . S
C545 C546 1.362 . S
C546 H538 0.930 . S
C546 C545 1.362 . S
C546 C549 1.409 . S
C547 H539 0.930 . S
C547 C548 1.355 . S
C547 C549 1.415 . S
C548 C547 1.355 . S
C548 C550 1.419 . S
C549 C544 1.425 . S
C549 C546 1.409 . S
C549 C547 1.415 . S
C550 H540 0.930 . S
C550 C548 1.419 . S
C550 C551 1.362 . S
C551 H541 0.930 . S
C551 C544 1.409 . S
C551 C550 1.362 . S
C175 C6 1.612 . S
C180 C107 1.604 . S
C191 C20 1.481 . S
C196 C110 1.427 . S
C212 C146 1.425 . S
C207 N26 1.443 . S
C223 N37 1.544 . S
C228 C166 1.564 . S
C244 C120 1.982 . S
C239 C9 2.016 . S
C260 C97 1.295 . S
C255 N15 1.292 . S
C276 C150 1.477 . S
C271 C31 1.537 . S
C292 C130 1.281 . S
C287 C39 1.358 . S
C303 N4 1.368 . S
C308 C160 1.276 . S
C324 C126 1.742 1_556 S
C319 C28 1.783 . S
C335 C42 1.479 . S
C340 C92 1.450 . S
C351 C17 1.444 . S
C356 C140 1.356 . S
C372 C106 1.662 . S
C367 C50 1.663 . S
C383 C61 1.320 . S
C388 C112 1.232 . S
C399 N70 1.721 . S
C404 C147 1.686 . S
C415 N81 1.454 . S
C420 C167 1.439 . S
C431 N48 1.498 . S
C436 C117 1.448 . S
C452 C100 1.862 . S
C447 C64 1.860 . S
C468 C152 1.397 . S
C463 C75 1.556 . S
C484 C132 1.300 . S
C479 C86 1.349 . S
C495 C53 1.613 . S
C500 C157 1.550 . S
C516 C127 1.396 . S
C511 C72 1.436 . S
C532 C90 1.699 . S
C527 C83 1.737 . S
C543 N59 1.325 . S
C548 C137 1.291 . S
