# Generated by pormake.
# Topology eea, (3,6)-cn, num edge types: 1
# Building blocks:
#     Node 0, Type 0, BuildingBlock: CUQRIR_clean_linker_1, # of connection points: 3
#     Node 1, Type 0, BuildingBlock: CUQRIR_clean_linker_1, # of connection points: 3
#     Node 2, Type 0, BuildingBlock: CUQRIR_clean_linker_1, # of connection points: 3
#     Node 3, Type 0, BuildingBlock: CUQRIR_clean_linker_1, # of connection points: 3
#     Node 4, Type 0, BuildingBlock: CUQRIR_clean_linker_1, # of connection points: 3
#     Node 5, Type 0, BuildingBlock: CUQRIR_clean_linker_1, # of connection points: 3
#     Node 6, Type 0, BuildingBlock: CUQRIR_clean_linker_1, # of connection points: 3
#     Node 7, Type 0, BuildingBlock: CUQRIR_clean_linker_1, # of connection points: 3
#     Node 8, Type 0, BuildingBlock: CUQRIR_clean_linker_1, # of connection points: 3
#     Node 9, Type 0, BuildingBlock: CUQRIR_clean_linker_1, # of connection points: 3
#     Node 10, Type 0, BuildingBlock: CUQRIR_clean_linker_1, # of connection points: 3
#     Node 11, Type 0, BuildingBlock: CUQRIR_clean_linker_1, # of connection points: 3
#     Node 12, Type 0, BuildingBlock: CUQRIR_clean_linker_1, # of connection points: 3
#     Node 13, Type 0, BuildingBlock: CUQRIR_clean_linker_1, # of connection points: 3
#     Node 14, Type 0, BuildingBlock: CUQRIR_clean_linker_1, # of connection points: 3
#     Node 15, Type 0, BuildingBlock: CUQRIR_clean_linker_1, # of connection points: 3
#     Node 16, Type 0, BuildingBlock: CUQRIR_clean_linker_1, # of connection points: 3
#     Node 17, Type 0, BuildingBlock: CUQRIR_clean_linker_1, # of connection points: 3
#     Node 18, Type 1, BuildingBlock: NUHQIS_clean_sbu_0, # of connection points: 6
#     Node 19, Type 1, BuildingBlock: NUHQIS_clean_sbu_0, # of connection points: 6
#     Node 20, Type 1, BuildingBlock: NUHQIS_clean_sbu_0, # of connection points: 6
#     Node 21, Type 1, BuildingBlock: NUHQIS_clean_sbu_0, # of connection points: 6
#     Node 22, Type 1, BuildingBlock: NUHQIS_clean_sbu_0, # of connection points: 6
#     Node 23, Type 1, BuildingBlock: NUHQIS_clean_sbu_0, # of connection points: 6
#     Node 24, Type 1, BuildingBlock: NUHQIS_clean_sbu_0, # of connection points: 6
#     Node 25, Type 1, BuildingBlock: NUHQIS_clean_sbu_0, # of connection points: 6
#     Node 26, Type 1, BuildingBlock: NUHQIS_clean_sbu_0, # of connection points: 6
#     Edge 27, Type (0, 1), BuildingBlock: ZUJKAS_clean_linker_0, # of connection points: 2
#     Edge 28, Type (0, 1), BuildingBlock: ZUJKAS_clean_linker_0, # of connection points: 2
#     Edge 29, Type (0, 1), BuildingBlock: ZUJKAS_clean_linker_0, # of connection points: 2
#     Edge 30, Type (0, 1), BuildingBlock: ZUJKAS_clean_linker_0, # of connection points: 2
#     Edge 31, Type (0, 1), BuildingBlock: ZUJKAS_clean_linker_0, # of connection points: 2
#     Edge 32, Type (0, 1), BuildingBlock: ZUJKAS_clean_linker_0, # of connection points: 2
#     Edge 33, Type (0, 1), BuildingBlock: ZUJKAS_clean_linker_0, # of connection points: 2
#     Edge 34, Type (0, 1), BuildingBlock: ZUJKAS_clean_linker_0, # of connection points: 2
#     Edge 35, Type (0, 1), BuildingBlock: ZUJKAS_clean_linker_0, # of connection points: 2
#     Edge 36, Type (0, 1), BuildingBlock: ZUJKAS_clean_linker_0, # of connection points: 2
#     Edge 37, Type (0, 1), BuildingBlock: ZUJKAS_clean_linker_0, # of connection points: 2
#     Edge 38, Type (0, 1), BuildingBlock: ZUJKAS_clean_linker_0, # of connection points: 2
#     Edge 39, Type (0, 1), BuildingBlock: ZUJKAS_clean_linker_0, # of connection points: 2
#     Edge 40, Type (0, 1), BuildingBlock: ZUJKAS_clean_linker_0, # of connection points: 2
#     Edge 41, Type (0, 1), BuildingBlock: ZUJKAS_clean_linker_0, # of connection points: 2
#     Edge 42, Type (0, 1), BuildingBlock: ZUJKAS_clean_linker_0, # of connection points: 2
#     Edge 43, Type (0, 1), BuildingBlock: ZUJKAS_clean_linker_0, # of connection points: 2
#     Edge 44, Type (0, 1), BuildingBlock: ZUJKAS_clean_linker_0, # of connection points: 2
#     Edge 45, Type (0, 1), BuildingBlock: ZUJKAS_clean_linker_0, # of connection points: 2
#     Edge 46, Type (0, 1), BuildingBlock: ZUJKAS_clean_linker_0, # of connection points: 2
#     Edge 47, Type (0, 1), BuildingBlock: ZUJKAS_clean_linker_0, # of connection points: 2
#     Edge 48, Type (0, 1), BuildingBlock: ZUJKAS_clean_linker_0, # of connection points: 2
#     Edge 49, Type (0, 1), BuildingBlock: ZUJKAS_clean_linker_0, # of connection points: 2
#     Edge 50, Type (0, 1), BuildingBlock: ZUJKAS_clean_linker_0, # of connection points: 2
#     Edge 51, Type (0, 1), BuildingBlock: ZUJKAS_clean_linker_0, # of connection points: 2
#     Edge 52, Type (0, 1), BuildingBlock: ZUJKAS_clean_linker_0, # of connection points: 2
#     Edge 53, Type (0, 1), BuildingBlock: ZUJKAS_clean_linker_0, # of connection points: 2
#     Edge 54, Type (0, 1), BuildingBlock: ZUJKAS_clean_linker_0, # of connection points: 2
#     Edge 55, Type (0, 1), BuildingBlock: ZUJKAS_clean_linker_0, # of connection points: 2
#     Edge 56, Type (0, 1), BuildingBlock: ZUJKAS_clean_linker_0, # of connection points: 2
#     Edge 57, Type (0, 1), BuildingBlock: ZUJKAS_clean_linker_0, # of connection points: 2
#     Edge 58, Type (0, 1), BuildingBlock: ZUJKAS_clean_linker_0, # of connection points: 2
#     Edge 59, Type (0, 1), BuildingBlock: ZUJKAS_clean_linker_0, # of connection points: 2
#     Edge 60, Type (0, 1), BuildingBlock: ZUJKAS_clean_linker_0, # of connection points: 2
#     Edge 61, Type (0, 1), BuildingBlock: ZUJKAS_clean_linker_0, # of connection points: 2
#     Edge 62, Type (0, 1), BuildingBlock: ZUJKAS_clean_linker_0, # of connection points: 2
#     Edge 63, Type (0, 1), BuildingBlock: ZUJKAS_clean_linker_0, # of connection points: 2
#     Edge 64, Type (0, 1), BuildingBlock: ZUJKAS_clean_linker_0, # of connection points: 2
#     Edge 65, Type (0, 1), BuildingBlock: ZUJKAS_clean_linker_0, # of connection points: 2
#     Edge 66, Type (0, 1), BuildingBlock: ZUJKAS_clean_linker_0, # of connection points: 2
#     Edge 67, Type (0, 1), BuildingBlock: ZUJKAS_clean_linker_0, # of connection points: 2
#     Edge 68, Type (0, 1), BuildingBlock: ZUJKAS_clean_linker_0, # of connection points: 2
#     Edge 69, Type (0, 1), BuildingBlock: ZUJKAS_clean_linker_0, # of connection points: 2
#     Edge 70, Type (0, 1), BuildingBlock: ZUJKAS_clean_linker_0, # of connection points: 2
#     Edge 71, Type (0, 1), BuildingBlock: ZUJKAS_clean_linker_0, # of connection points: 2
#     Edge 72, Type (0, 1), BuildingBlock: ZUJKAS_clean_linker_0, # of connection points: 2
#     Edge 73, Type (0, 1), BuildingBlock: ZUJKAS_clean_linker_0, # of connection points: 2
#     Edge 74, Type (0, 1), BuildingBlock: ZUJKAS_clean_linker_0, # of connection points: 2
#     Edge 75, Type (0, 1), BuildingBlock: ZUJKAS_clean_linker_0, # of connection points: 2
#     Edge 76, Type (0, 1), BuildingBlock: ZUJKAS_clean_linker_0, # of connection points: 2
#     Edge 77, Type (0, 1), BuildingBlock: ZUJKAS_clean_linker_0, # of connection points: 2
#     Edge 78, Type (0, 1), BuildingBlock: ZUJKAS_clean_linker_0, # of connection points: 2
#     Edge 79, Type (0, 1), BuildingBlock: ZUJKAS_clean_linker_0, # of connection points: 2
#     Edge 80, Type (0, 1), BuildingBlock: ZUJKAS_clean_linker_0, # of connection points: 2
# Relax obj value: 0.103
# Max RMSD: 0.235
# Mean RMSD: 0.172
data_MOF--net-eea--node1-NUHQIS_clean_sbu_0--node2-CUQRIR_clean_linker_1--edge1-ZUJKAS_clean_linker_0
_symmetry_space_group_name_H-M    P1
_symmetry_Int_Tables_number       1
_symmetry_cell_setting            triclinic
loop_
_symmetry_equiv_pos_as_xyz
'x, y, z'
_cell_length_a     64.797998
_cell_length_b     67.353465
_cell_length_c     83.032083
_cell_angle_alpha  87.421303
_cell_angle_beta   93.277579
_cell_angle_gamma 119.03407
loop_
_atom_site_label
_atom_site_type_symbol
_atom_site_fract_x
_atom_site_fract_y
_atom_site_fract_z
_atom_type_partial_charge
C0 C 0.22046 0.11025 0.40583 0.0
N1 N 0.23055 0.12803 0.41597 0.0
N2 N 0.22642 0.09416 0.41066 0.0
C3 C 0.20477 0.10855 0.3913 0.0
C4 C 0.24065 0.10284 0.42396 0.0
N5 N 0.24335 0.12352 0.42708 0.0
C6 C 0.2517 0.09111 0.4341 0.0
H7 H 0.18653 0.1023 0.39524 0.0
H8 H 0.2043 0.09652 0.38242 0.0
H9 H 0.21084 0.12548 0.3854 0.0
H10 H 0.2452 0.07337 0.43043 0.0
H11 H 0.24813 0.09128 0.44699 0.0
H12 H 0.27113 0.10057 0.43292 0.0
C13 C 0.90572 0.12436 0.40986 0.0
N14 N 0.91679 0.14054 0.42118 0.0
N15 N 0.88662 0.10608 0.41593 0.0
C16 C 0.9146 0.12567 0.39327 0.0
C17 C 0.88654 0.11169 0.43138 0.0
N18 N 0.90505 0.13246 0.43466 0.0
C19 C 0.86726 0.09771 0.44286 0.0
H20 H 0.90751 0.13446 0.38495 0.0
H21 H 0.90872 0.10847 0.38863 0.0
H22 H 0.93418 0.13549 0.39339 0.0
H23 H 0.87264 0.08697 0.45055 0.0
H24 H 0.85043 0.08651 0.43624 0.0
H25 H 0.86427 0.10878 0.45084 0.0
C26 C 0.91354 0.80811 0.42263 0.0
N27 N 0.92418 0.79956 0.4331 0.0
N28 N 0.89122 0.80125 0.42694 0.0
C29 C 0.92399 0.82101 0.40726 0.0
C30 C 0.88853 0.78804 0.44025 0.0
N31 N 0.90848 0.78678 0.44388 0.0
C32 C 0.86679 0.77728 0.45008 0.0
H33 H 0.93548 0.83921 0.41006 0.0
H34 H 0.91009 0.81956 0.39822 0.0
H35 H 0.935 0.81471 0.40193 0.0
H36 H 0.85528 0.75957 0.44613 0.0
H37 H 0.85669 0.78666 0.44838 0.0
H38 H 0.87158 0.77682 0.46309 0.0
C39 C 0.12288 0.25823 0.62843 0.0
N40 N 0.13976 0.26505 0.61744 0.0
N41 N 0.10658 0.26452 0.62363 0.0
C42 C 0.1228 0.24637 0.64425 0.0
C43 C 0.11415 0.27552 0.60933 0.0
N44 N 0.13451 0.27605 0.60564 0.0
C45 C 0.10036 0.28355 0.59826 0.0
H46 H 0.11349 0.22775 0.64244 0.0
H47 H 0.11341 0.25017 0.65338 0.0
H48 H 0.1411 0.25159 0.64885 0.0
H49 H 0.1065 0.3017 0.60057 0.0
H50 H 0.08118 0.27377 0.60042 0.0
H51 H 0.10316 0.28196 0.58543 0.0
C52 C 0.77701 0.88769 0.62711 0.0
N53 N 0.76734 0.87035 0.6166 0.0
N54 N 0.76944 0.90289 0.62335 0.0
C55 C 0.79397 0.88989 0.64095 0.0
C56 C 0.7547 0.89416 0.61027 0.0
N57 N 0.75313 0.87416 0.60629 0.0
C58 C 0.74243 0.90549 0.60106 0.0
H59 H 0.79397 0.90096 0.65043 0.0
H60 H 0.81206 0.89756 0.63639 0.0
H61 H 0.78945 0.87294 0.64632 0.0
H62 H 0.74357 0.90429 0.58788 0.0
H63 H 0.74995 0.92356 0.60424 0.0
H64 H 0.72347 0.89656 0.60393 0.0
C65 C 0.11156 0.90804 0.61548 0.0
N66 N 0.10023 0.89027 0.60535 0.0
N67 N 0.12969 0.92586 0.60812 0.0
C68 C 0.10378 0.90872 0.63208 0.0
C69 C 0.12889 0.91833 0.59312 0.0
N70 N 0.11083 0.89685 0.59134 0.0
C71 C 0.14708 0.93117 0.58071 0.0
H72 H 0.08434 0.89813 0.63281 0.0
H73 H 0.109 0.92638 0.63536 0.0
H74 H 0.11233 0.90193 0.64098 0.0
H75 H 0.14987 0.91938 0.57335 0.0
H76 H 0.16423 0.94341 0.58649 0.0
H77 H 0.14075 0.94074 0.57252 0.0
C78 C 0.88199 0.43948 0.73805 0.0
N79 N 0.8904 0.45689 0.74849 0.0
N80 N 0.88686 0.42304 0.74386 0.0
C81 C 0.86909 0.43848 0.7222 0.0
C82 C 0.89871 0.43109 0.75809 0.0
N83 N 0.9011 0.45177 0.76083 0.0
C84 C 0.90772 0.41869 0.76945 0.0
H85 H 0.85001 0.43133 0.72432 0.0
H86 H 0.87098 0.4274 0.7136 0.0
H87 H 0.87572 0.45572 0.71671 0.0
H88 H 0.89988 0.40049 0.76655 0.0
H89 H 0.90398 0.42025 0.78207 0.0
H90 H 0.92716 0.42659 0.7686 0.0
C91 C 0.57594 0.45555 0.74572 0.0
N92 N 0.58727 0.47251 0.7565 0.0
N93 N 0.55681 0.43781 0.75225 0.0
C94 C 0.58462 0.45547 0.72931 0.0
C95 C 0.55696 0.44453 0.76741 0.0
N96 N 0.57561 0.46542 0.77009 0.0
C97 C 0.53779 0.4315 0.77917 0.0
H98 H 0.57748 0.46363 0.72044 0.0
H99 H 0.5786 0.43787 0.72544 0.0
H100 H 0.6042 0.46515 0.72931 0.0
H101 H 0.54303 0.42095 0.78722 0.0
H102 H 0.52077 0.42017 0.77281 0.0
H103 H 0.53522 0.44319 0.78678 0.0
C104 C 0.56335 0.11886 0.75413 0.0
N105 N 0.57696 0.1136 0.76445 0.0
N106 N 0.54775 0.122 0.76229 0.0
C107 C 0.56603 0.12203 0.73617 0.0
C108 C 0.55244 0.11866 0.77795 0.0
N109 N 0.57048 0.11384 0.77929 0.0
C110 C 0.53797 0.11799 0.79172 0.0
H111 H 0.55895 0.13315 0.73109 0.0
H112 H 0.55608 0.10521 0.73042 0.0
H113 H 0.58486 0.1295 0.73318 0.0
H114 H 0.52055 0.11597 0.7874 0.0
H115 H 0.5477 0.13412 0.79836 0.0
H116 H 0.53516 0.10384 0.80027 0.0
C117 C 0.78769 0.59049 0.95756 0.0
N118 N 0.80504 0.59796 0.94692 0.0
N119 N 0.77224 0.59801 0.95319 0.0
C120 C 0.78629 0.57651 0.97254 0.0
C121 C 0.78086 0.61043 0.93952 0.0
N122 N 0.80104 0.6106 0.93579 0.0
C123 C 0.76825 0.62026 0.92897 0.0
H124 H 0.77708 0.55828 0.96941 0.0
H125 H 0.77631 0.57909 0.9819 0.0
H126 H 0.80424 0.58093 0.97752 0.0
H127 H 0.77537 0.63836 0.93199 0.0
H128 H 0.749 0.61119 0.93091 0.0
H129 H 0.77114 0.61939 0.91603 0.0
C130 C 0.45296 0.22357 0.95757 0.0
N131 N 0.44586 0.2074 0.94624 0.0
N132 N 0.44582 0.23892 0.95316 0.0
C133 C 0.46702 0.22449 0.97286 0.0
C134 C 0.43394 0.23146 0.93884 0.0
N135 N 0.43368 0.21212 0.93474 0.0
C136 C 0.42307 0.24329 0.92863 0.0
H137 H 0.4646 0.23422 0.98229 0.0
H138 H 0.48605 0.23305 0.97021 0.0
H139 H 0.46189 0.20712 0.97761 0.0
H140 H 0.42869 0.24513 0.91602 0.0
H141 H 0.42783 0.26021 0.93328 0.0
H142 H 0.40356 0.23274 0.92844 0.0
C143 C 0.7732 0.23772 0.95049 0.0
N144 N 0.76327 0.2195 0.94071 0.0
N145 N 0.7945 0.2536 0.94518 0.0
C146 C 0.763 0.23931 0.9659 0.0
C147 C 0.7972 0.24439 0.93183 0.0
N148 N 0.7784 0.22355 0.92921 0.0
C149 C 0.81729 0.25662 0.92062 0.0
H150 H 0.75077 0.24625 0.96309 0.0
H151 H 0.7771 0.25075 0.97451 0.0
H152 H 0.7529 0.22229 0.97169 0.0
H153 H 0.83114 0.25182 0.92391 0.0
H154 H 0.82521 0.2753 0.92157 0.0
H155 H 0.8112 0.25184 0.90792 0.0
C156 C 0.54898 0.77138 0.06903 0.0
N157 N 0.55693 0.78816 0.07992 0.0
N158 N 0.55247 0.75408 0.07486 0.0
C159 C 0.53952 0.77265 0.05226 0.0
C160 C 0.56284 0.76096 0.08968 0.0
N161 N 0.56576 0.78176 0.09267 0.0
C162 C 0.56815 0.74655 0.10179 0.0
H163 H 0.52013 0.76579 0.05254 0.0
H164 H 0.54305 0.76244 0.04382 0.0
H165 H 0.54754 0.7905 0.04774 0.0
H166 H 0.58658 0.75009 0.1005 0.0
H167 H 0.5561 0.72821 0.09978 0.0
H168 H 0.56643 0.75057 0.11429 0.0
C169 C 0.2382 0.78614 0.07817 0.0
N170 N 0.24963 0.80286 0.08908 0.0
N171 N 0.21927 0.76819 0.08471 0.0
C172 C 0.24655 0.78661 0.06154 0.0
C173 C 0.21965 0.77457 0.10001 0.0
N174 N 0.23827 0.79546 0.10276 0.0
C175 C 0.20066 0.76125 0.11183 0.0
H176 H 0.23923 0.79504 0.05305 0.0
H177 H 0.24047 0.76917 0.05732 0.0
H178 H 0.26611 0.79638 0.06136 0.0
H179 H 0.2061 0.75072 0.11972 0.0
H180 H 0.18361 0.74988 0.10551 0.0
H181 H 0.19803 0.77277 0.11959 0.0
C182 C 0.22493 0.44498 0.08329 0.0
N183 N 0.23802 0.43884 0.09347 0.0
N184 N 0.20783 0.44593 0.0913 0.0
C185 C 0.23018 0.45213 0.06589 0.0
C186 C 0.21116 0.44045 0.10674 0.0
N187 N 0.22972 0.43645 0.10809 0.0
C188 C 0.19526 0.43737 0.12025 0.0
H189 H 0.22379 0.46423 0.06193 0.0
H190 H 0.2211 0.4369 0.05825 0.0
H191 H 0.24943 0.46023 0.06404 0.0
H192 H 0.17715 0.43277 0.11555 0.0
H193 H 0.20255 0.45355 0.12679 0.0
H194 H 0.19432 0.42399 0.12896 0.0
C195 C 0.46564 0.93324 0.29889 0.0
N196 N 0.4834 0.94018 0.28863 0.0
N197 N 0.44975 0.93967 0.29329 0.0
C198 C 0.46397 0.92046 0.31454 0.0
C199 C 0.4585 0.95085 0.27923 0.0
N200 N 0.47918 0.95135 0.27645 0.0
C201 C 0.44552 0.95889 0.26739 0.0
H202 H 0.45524 0.90202 0.31212 0.0
H203 H 0.45338 0.92346 0.32319 0.0
H204 H 0.48183 0.92561 0.32003 0.0
H205 H 0.45231 0.97732 0.26901 0.0
H206 H 0.42626 0.94987 0.26933 0.0
H207 H 0.44848 0.95631 0.2548 0.0
C208 C 0.12441 0.56239 0.29061 0.0
N209 N 0.11703 0.54597 0.27945 0.0
N210 N 0.1235 0.58086 0.2843 0.0
C211 C 0.1345 0.56125 0.3072 0.0
C212 C 0.11547 0.57516 0.26886 0.0
N213 N 0.11183 0.55408 0.26586 0.0
C214 C 0.10946 0.58943 0.2571 0.0
H215 H 0.1199 0.55315 0.31569 0.0
H216 H 0.14716 0.57849 0.31156 0.0
H217 H 0.14363 0.55094 0.30722 0.0
H218 H 0.12504 0.60013 0.24979 0.0
H219 H 0.10477 0.60072 0.26349 0.0
H220 H 0.09451 0.57861 0.24877 0.0
C221 C 0.44664 0.57009 0.28462 0.0
N222 N 0.43527 0.55236 0.27445 0.0
N223 N 0.46468 0.58796 0.27724 0.0
C224 C 0.43901 0.57073 0.30128 0.0
C225 C 0.46381 0.58052 0.2622 0.0
N226 N 0.44582 0.55904 0.26043 0.0
C227 C 0.48165 0.59361 0.24964 0.0
H228 H 0.44451 0.5884 0.30468 0.0
H229 H 0.44742 0.56368 0.31007 0.0
H230 H 0.41956 0.56034 0.30201 0.0
H231 H 0.49884 0.60599 0.25529 0.0
H232 H 0.47494 0.60304 0.24164 0.0
H233 H 0.48445 0.582 0.2421 0.0
Tb234 Tb 0.50572 0.99357 1.0029 0.0
Eu235 Eu 0.52135 0.02189 0.0369 0.0
C236 C 0.52634 0.97745 0.03233 0.0
C237 C 0.47064 0.97723 0.03181 0.0
C238 C 0.50704 0.98416 0.96022 0.0
C239 C 0.51136 0.97933 0.93205 0.0
C240 C 0.50171 0.97006 0.94699 0.0
C241 C 0.52226 0.00757 0.95844 0.0
C242 C 0.53191 0.01684 0.94357 0.0
C243 C 0.52653 1.00286 0.93016 0.0
C244 C 0.49736 0.97462 0.97601 0.0
O245 O 0.50437 0.02463 0.99705 0.0
O246 O 0.4997 0.03461 0.02213 0.0
O247 O 0.54682 0.04512 0.01857 0.0
O248 O 0.54359 0.01734 1.0021 0.0
C249 C 0.49814 0.03594 0.00631 0.0
O250 O 0.51317 0.03552 0.05743 0.0
O251 O 0.54863 0.04066 0.05537 0.0
O252 O 0.53665 0.99804 0.03808 0.0
O253 O 0.50982 0.97126 0.02082 0.0
O254 O 0.47301 0.97937 0.01605 0.0
O255 O 0.48834 0.98913 0.04197 0.0
C256 C 0.55476 0.03848 0.00692 0.0
O257 O 0.51267 0.97454 0.98686 0.0
O258 O 0.48418 0.98212 0.98178 0.0
C259 C 0.5342 0.03536 0.08146 0.0
C260 C 0.53433 0.02194 0.11413 0.0
C261 C 0.548 0.04484 0.1093 0.0
C262 C 0.5479 0.05147 0.0931 0.0
C263 C 0.52081 0.01246 0.08613 0.0
C264 C 0.52082 1.00581 0.10232 0.0
C265 C 0.53398 0.04254 0.06452 0.0
H266 H 0.50707 0.96807 0.92201 0.0
H267 H 0.49015 0.95191 0.94822 0.0
H268 H 0.52662 0.01871 0.96858 0.0
H269 H 0.54319 0.03505 0.9425 0.0
H270 H 0.55889 0.05764 0.11801 0.0
H271 H 0.55848 0.0692 0.08967 0.0
H272 H 0.51018 0.99976 0.07726 0.0
H273 H 0.50984 0.9881 0.10561 0.0
Tb274 Tb 0.01343 0.51967 0.99553 0.0
Eu275 Eu 0.99045 0.50913 0.03158 0.0
C276 C 0.03744 0.55472 0.02376 0.0
C277 C 0.03262 0.49963 0.02354 0.0
C278 C 0.01874 0.52343 0.95108 0.0
C279 C 0.02272 0.53095 0.92226 0.0
C280 C 0.03276 0.53452 0.93792 0.0
C281 C 0.99451 0.50863 0.94845 0.0
C282 C 0.98443 0.50499 0.93277 0.0
C283 C 0.99841 0.51618 0.91948 0.0
C284 C 0.02936 0.52823 0.96751 0.0
O285 O 0.98762 0.48347 0.99612 0.0
O286 O 0.96291 0.48253 0.01528 0.0
O287 O 0.97836 0.53129 0.01754 0.0
O288 O 0.98031 0.52018 0.9923 0.0
C289 C 0.96723 0.47329 1.00321 0.0
O290 O 0.9734 0.4856 0.05165 0.0
O291 O 0.98138 0.52071 0.05283 0.0
O292 O 0.02725 0.53835 0.03449 0.0
O293 O 0.03062 0.55177 0.00841 0.0
O294 O 0.03807 0.51404 0.01127 0.0
O295 O 0.01267 0.49203 0.03085 0.0
C296 C 0.97274 0.5298 1.00204 0.0
O297 O 0.02512 0.54195 0.97553 0.0
O298 O 0.02694 0.51078 0.97634 0.0
C299 C 0.98517 0.50264 0.07727 0.0
C300 C 0.00496 0.50391 0.10877 0.0
C301 C 0.98567 0.48379 0.10289 0.0
C302 C 0.97586 0.48321 0.08734 0.0
C303 C 0.00449 0.52275 0.08306 0.0
C304 C 0.01419 0.52339 0.09864 0.0
C305 C 0.97478 0.50152 0.06076 0.0
H306 H 0.03393 0.5401 0.91235 0.0
H307 H 0.05146 0.54618 0.93978 0.0
H308 H 0.98339 0.5 0.95852 0.0
H309 H 0.96573 0.49329 0.93106 0.0
H310 H 0.97829 0.46836 0.11021 0.0
H311 H 0.96103 0.46748 0.08313 0.0
H312 H 0.01216 0.53803 0.07558 0.0
H313 H 0.02876 0.5393 0.1028 0.0
Tb314 Tb 0.50161 0.49058 0.03529 0.0
Eu315 Eu 0.48814 0.49738 0.9966 0.0
C316 C 0.49046 0.45312 0.01016 0.0
C317 C 0.54045 0.51065 0.00917 0.0
C318 C 0.50035 0.48851 0.08023 0.0
C319 C 0.49191 0.47794 0.10847 0.0
C320 C 0.50004 0.47532 0.09386 0.0
C321 C 0.49203 0.50415 0.08133 0.0
C322 C 0.48408 0.50692 0.09597 0.0
C323 C 0.48404 0.49393 0.10975 0.0
C324 C 0.50961 0.48593 0.06505 0.0
O325 O 0.49334 0.51825 0.03471 0.0
O326 O 0.50271 0.53102 0.00865 0.0
O327 O 0.45652 0.49096 0.01048 0.0
O328 O 0.46353 0.47161 0.03167 0.0
C329 C 0.4993 0.53428 0.02351 0.0
O330 O 0.49521 0.51937 0.97524 0.0
O331 O 0.4683 0.48414 0.97375 0.0
O332 O 0.47858 0.4609 1.00109 0.0
O333 O 0.50459 0.46474 0.02228 0.0
O334 O 0.535 0.51207 0.02392 0.0
O335 O 0.52423 0.50063 0.99772 0.0
C336 C 0.4496 0.4778 0.02345 0.0
O337 O 0.49496 0.46926 0.05592 0.0
O338 O 0.52176 0.50444 0.0566 0.0
C339 C 0.49059 0.50144 0.95056 0.0
C340 C 0.51057 0.50105 0.92117 0.0
C341 C 0.48938 0.50211 0.92121 0.0
C342 C 0.47953 0.50233 0.93575 0.0
C343 C 0.5115 0.5 0.95065 0.0
C344 C 0.5214 0.49982 0.93611 0.0
C345 C 0.48077 0.50305 0.96576 0.0
H346 H 0.49231 0.46781 0.11887 0.0
H347 H 0.50633 0.46312 0.09326 0.0
H348 H 0.49184 0.51435 0.07092 0.0
H349 H 0.47787 0.51918 0.09649 0.0
H350 H 0.48028 0.50267 0.90998 0.0
H351 H 0.46337 0.50342 0.93542 0.0
H352 H 0.52036 0.49937 0.96197 0.0
H353 H 0.53783 0.49924 0.93661 0.0
Tb354 Tb 0.17341 0.32881 0.33481 0.0
Eu355 Eu 0.18887 0.35739 0.36852 0.0
C356 C 0.19414 0.31299 0.36449 0.0
C357 C 0.13846 0.31275 0.36375 0.0
C358 C 0.17368 0.31772 0.29216 0.0
C359 C 0.17578 0.31136 0.26392 0.0
C360 C 0.16663 0.30304 0.27913 0.0
C361 C 0.19011 0.34075 0.28994 0.0
C362 C 0.19928 0.34907 0.2748 0.0
C363 C 0.19216 0.3345 0.26159 0.0
C364 C 0.16434 0.30911 0.30817 0.0
O365 O 0.17321 0.36042 0.3287 0.0
O366 O 0.16654 0.36915 0.35355 0.0
O367 O 0.21481 0.38031 0.35031 0.0
O368 O 0.21135 0.35239 0.33384 0.0
C369 C 0.16618 0.37131 0.33775 0.0
O370 O 0.18034 0.37151 0.38859 0.0
O371 O 0.21571 0.3762 0.3872 0.0
O372 O 0.20423 0.33361 0.3702 0.0
O373 O 0.17782 0.30669 0.35283 0.0
O374 O 0.14071 0.31516 0.34798 0.0
O375 O 0.15632 0.3244 0.37384 0.0
C376 C 0.22275 0.37351 0.33874 0.0
O377 O 0.17971 0.30911 0.31899 0.0
O378 O 0.15169 0.31733 0.31378 0.0
C379 C 0.20014 0.37044 0.4129 0.0
C380 C 0.19795 0.3555 0.44532 0.0
C381 C 0.21006 0.37883 0.44129 0.0
C382 C 0.21111 0.38623 0.42519 0.0
C383 C 0.18835 0.34716 0.41678 0.0
C384 C 0.18721 0.33975 0.43285 0.0
C385 C 0.20085 0.37821 0.39605 0.0
H386 H 0.17011 0.29968 0.25402 0.0
H387 H 0.15408 0.28518 0.2807 0.0
H388 H 0.19574 0.35232 0.29992 0.0
H389 H 0.21156 0.36702 0.27337 0.0
H390 H 0.21879 0.39139 0.45056 0.0
H391 H 0.2204 0.40426 0.42235 0.0
H392 H 0.1798 0.33473 0.40739 0.0
H393 H 0.17747 0.32169 0.43552 0.0
Tb394 Tb 0.6854 0.85525 0.32617 0.0
Eu395 Eu 0.66938 0.84159 0.36385 0.0
C396 C 0.71125 0.89106 0.35366 0.0
C397 C 0.7078 0.83344 0.34932 0.0
C398 C 0.68552 0.85969 0.28129 0.0
C399 C 0.68777 0.8644 0.25223 0.0
C400 C 0.69882 0.86907 0.26758 0.0
C401 C 0.66102 0.84551 0.27958 0.0
C402 C 0.64993 0.84085 0.26421 0.0
C403 C 0.6632 0.85027 0.25036 0.0
C404 C 0.69738 0.8654 0.29729 0.0
O405 O 0.65957 0.81899 0.32552 0.0
O406 O 0.64083 0.81278 0.34959 0.0
O407 O 0.65533 0.86478 0.35411 0.0
O408 O 0.65159 0.85391 0.32793 0.0
C409 C 0.64215 0.80629 0.33513 0.0
O410 O 0.64636 0.83311 0.38475 0.0
O411 O 0.68158 0.83576 0.38736 0.0
O412 O 0.70341 0.87466 0.36458 0.0
O413 O 0.70314 0.88759 0.3386 0.0
O414 O 0.71264 0.85101 0.33976 0.0
O415 O 0.6872 0.82257 0.35581 0.0
C416 C 0.6464 0.86345 0.33932 0.0
O417 O 0.69146 0.87718 0.30616 0.0
O418 O 0.69845 0.84895 0.30552 0.0
C419 C 0.65999 0.82589 0.41176 0.0
C420 C 0.66102 0.82056 0.44572 0.0
C421 C 0.64506 0.82672 0.43781 0.0
C422 C 0.64451 0.82931 0.42095 0.0
C423 C 0.67509 0.8187 0.41959 0.0
C424 C 0.6756 0.81607 0.43633 0.0
C425 C 0.66245 0.83188 0.39437 0.0
H426 H 0.69844 0.87217 0.24184 0.0
H427 H 0.71774 0.88017 0.26875 0.0
H428 H 0.65052 0.83816 0.29011 0.0
H429 H 0.63102 0.8297 0.26315 0.0
H430 H 0.63339 0.83007 0.44468 0.0
H431 H 0.63271 0.83488 0.4152 0.0
H432 H 0.6872 0.81587 0.41282 0.0
H433 H 0.68835 0.81162 0.44194 0.0
Tb434 Tb 0.17364 0.82987 0.3686 0.0
Eu435 Eu 0.16238 0.83889 0.33011 0.0
C436 C 0.16333 0.79353 0.34274 0.0
C437 C 0.21381 0.84989 0.34332 0.0
C438 C 0.1691 0.82508 0.4133 0.0
C439 C 0.13937 0.82947 0.42703 0.0
C440 C 0.1488 0.82764 0.41273 0.0
C441 C 0.17978 0.82436 0.4283 0.0
C442 C 0.17041 0.8262 0.44257 0.0
C443 C 0.15008 0.8288 0.44216 0.0
C444 C 0.17961 0.82359 0.39842 0.0
O445 O 0.1666 0.85837 0.36817 0.0
O446 O 0.17872 0.87229 0.34277 0.0
O447 O 0.13136 0.83418 0.344 0.0
O448 O 0.13577 0.81154 0.36369 0.0
C449 C 0.1744 0.87514 0.35749 0.0
O450 O 0.1714 0.86135 0.30892 0.0
O451 O 0.14183 0.82731 0.3073 0.0
O452 O 0.15217 0.80203 0.33361 0.0
O453 O 0.17681 0.80435 0.35533 0.0
O454 O 0.20792 0.85068 0.35808 0.0
O455 O 0.19797 0.84099 0.33148 0.0
C456 C 0.12318 0.81991 0.35629 0.0
O457 O 0.16579 0.80747 0.38861 0.0
O458 O 0.19205 0.8427 0.39068 0.0
C459 C 0.16449 0.84313 0.28408 0.0
C460 C 0.18256 0.84047 0.25447 0.0
C461 C 0.16256 0.84353 0.25474 0.0
C462 C 0.15366 0.84487 0.2694 0.0
C463 C 0.1842 0.83971 0.28395 0.0
C464 C 0.19316 0.83841 0.2693 0.0
C465 C 0.15573 0.84585 0.2994 0.0
H466 H 0.12361 0.83125 0.42623 0.0
H467 H 0.14031 0.82827 0.40124 0.0
H468 H 0.19554 0.82255 0.42898 0.0
H469 H 0.17941 0.82604 0.45393 0.0
H470 H 0.15367 0.84479 0.24361 0.0
H471 H 0.13841 0.84748 0.26925 0.0
H472 H 0.19287 0.83839 0.29518 0.0
H473 H 0.2087 0.83628 0.2696 0.0
Tb474 Tb 0.83985 0.66235 0.66585 0.0
Eu475 Eu 0.85759 0.69154 0.69929 0.0
C476 C 0.86122 0.64662 0.69584 0.0
C477 C 0.80622 0.64625 0.6954 0.0
C478 C 0.83718 0.65325 0.62272 0.0
C479 C 0.84658 0.65028 0.59536 0.0
C480 C 0.83713 0.64003 0.61015 0.0
C481 C 0.8463 0.67672 0.62027 0.0
C482 C 0.85585 0.68697 0.60557 0.0
C483 C 0.85643 0.67393 0.59304 0.0
C484 C 0.83055 0.64325 0.63892 0.0
O485 O 0.82313 0.68374 0.66482 0.0
O486 O 0.8491 0.71261 0.68118 0.0
O487 O 0.88952 0.70324 0.68418 0.0
O488 O 0.8699 0.69503 0.65965 0.0
C489 C 0.83217 0.70463 0.66992 0.0
O490 O 0.85285 0.71054 0.71799 0.0
O491 O 0.88451 0.70723 0.71848 0.0
O492 O 0.85649 0.65842 0.70565 0.0
O493 O 0.86057 0.6497 0.68011 0.0
O494 O 0.81308 0.64026 0.6827 0.0
O495 O 0.81892 0.66632 0.70196 0.0
C496 C 0.88942 0.70615 0.66845 0.0
O497 O 0.84838 0.64616 0.64847 0.0
O498 O 0.81592 0.64767 0.64612 0.0
C499 C 0.86867 0.70629 0.74327 0.0
C500 C 0.86416 0.69171 0.77581 0.0
C501 C 0.87901 0.71466 0.77162 0.0
C502 C 0.88126 0.72187 0.75545 0.0
C503 C 0.85373 0.68344 0.74736 0.0
C504 C 0.85146 0.67621 0.76349 0.0
C505 C 0.87186 0.71358 0.72628 0.0
H506 H 0.84691 0.63983 0.58594 0.0
H507 H 0.83046 0.62194 0.61194 0.0
H508 H 0.84661 0.68723 0.62988 0.0
H509 H 0.86296 0.70516 0.60406 0.0
H510 H 0.88919 0.72695 0.78082 0.0
H511 H 0.89301 0.73954 0.75244 0.0
H512 H 0.84393 0.67118 0.73805 0.0
H513 H 0.83961 0.65851 0.76632 0.0
Tb514 Tb 0.35222 0.19043 0.66211 0.0
Eu515 Eu 0.32759 0.17807 0.69758 0.0
C516 C 0.37416 0.22484 0.69077 0.0
C517 C 0.3707 0.17012 0.69024 0.0
C518 C 0.35997 0.19485 0.61804 0.0
C519 C 0.36583 0.19845 0.58925 0.0
C520 C 0.3751 0.20221 0.60512 0.0
C521 C 0.33544 0.18359 0.61499 0.0
C522 C 0.32614 0.17983 0.59912 0.0
C523 C 0.34123 0.18728 0.58605 0.0
C524 C 0.36988 0.19959 0.63463 0.0
O525 O 0.32623 0.15421 0.66171 0.0
O526 O 0.30069 0.15233 0.68056 0.0
O527 O 0.31429 0.19942 0.68368 0.0
O528 O 0.31965 0.19174 0.65805 0.0
C529 C 0.3055 0.14369 0.66837 0.0
O530 O 0.30928 0.15354 0.71677 0.0
O531 O 0.31865 0.18882 0.71934 0.0
O532 O 0.36386 0.20804 0.7012 0.0
O533 O 0.36806 0.22221 0.6753 0.0
O534 O 0.37661 0.18559 0.67867 0.0
O535 O 0.34993 0.16106 0.6966 0.0
C536 C 0.31049 0.19968 0.66797 0.0
O537 O 0.36508 0.21311 0.64243 0.0
O538 O 0.36712 0.18205 0.64349 0.0
C539 C 0.32082 0.16887 0.74279 0.0
C540 C 0.34062 0.17027 0.77416 0.0
C541 C 0.31888 0.17017 0.7718 0.0
C542 C 0.30908 0.16946 0.75625 0.0
C543 C 0.34245 0.16885 0.74503 0.0
C544 C 0.35222 0.16945 0.76059 0.0
C545 C 0.31078 0.16895 0.72646 0.0
H546 H 0.37793 0.20409 0.57948 0.0
H547 H 0.39409 0.21093 0.6073 0.0
H548 H 0.32352 0.17789 0.62487 0.0
H549 H 0.30714 0.17141 0.5971 0.0
H550 H 0.30938 0.17055 0.782 0.0
H551 H 0.29239 0.16952 0.75472 0.0
H552 H 0.35188 0.16859 0.73475 0.0
H553 H 0.36911 0.16979 0.76198 0.0
Tb554 Tb 0.83171 0.1584 0.70119 0.0
Eu555 Eu 0.82154 0.16743 0.66249 0.0
C556 C 0.82087 0.1214 0.67573 0.0
C557 C 0.87221 0.17717 0.67622 0.0
C558 C 0.82803 0.15575 0.74611 0.0
C559 C 0.81189 0.14121 0.77251 0.0
C560 C 0.82012 0.13845 0.758 0.0
C561 C 0.8272 0.1758 0.7489 0.0
C562 C 0.81918 0.17865 0.76347 0.0
C563 C 0.81158 0.16146 0.77551 0.0
C564 C 0.83746 0.15275 0.73112 0.0
O565 O 0.82444 0.18674 0.70035 0.0
O566 O 0.83792 0.20079 0.67527 0.0
O567 O 0.78965 0.162 0.67564 0.0
O568 O 0.79384 0.13997 0.69605 0.0
C569 C 0.83298 0.20363 0.68981 0.0
O570 O 0.83144 0.19027 0.64149 0.0
O571 O 0.802 0.15624 0.63929 0.0
O572 O 0.81067 0.13039 0.66608 0.0
O573 O 0.8342 0.13217 0.68839 0.0
O574 O 0.86619 0.17874 0.69078 0.0
O575 O 0.85647 0.16822 0.66435 0.0
C576 C 0.78104 0.1474 0.68772 0.0
O577 O 0.82264 0.1366 0.72168 0.0
O578 O 0.85105 0.17109 0.72294 0.0
C579 C 0.82547 0.17269 0.61645 0.0
C580 C 0.84455 0.171 0.587 0.0
C581 C 0.82432 0.1737 0.58711 0.0
C582 C 0.81492 0.17456 0.60167 0.0
C583 C 0.84541 0.16961 0.61648 0.0
C584 C 0.85486 0.16878 0.60191 0.0
C585 C 0.81616 0.17497 0.63168 0.0
H586 H 0.80634 0.12772 0.78158 0.0
H587 H 0.82057 0.12285 0.75613 0.0
H588 H 0.83295 0.18937 0.73989 0.0
H589 H 0.81888 0.19433 0.76531 0.0
H590 H 0.81562 0.17506 0.57591 0.0
H591 H 0.7995 0.17691 0.60139 0.0
H592 H 0.85388 0.1682 0.62778 0.0
H593 H 0.87057 0.1669 0.60235 0.0
H594 H 0.25626 0.83564 0.067 0.0
H595 H 0.29434 0.8675 0.05911 0.0
H596 H 0.32987 0.84857 0.09723 0.0
H597 H 0.29161 0.81665 0.10508 0.0
H598 H 0.33275 0.90543 0.07731 0.0
H599 H 0.35821 0.84463 0.05376 0.0
H600 H 0.32807 0.83656 0.05796 0.0
H601 H 0.34887 0.83986 0.07423 0.0
C602 C 0.2722 0.83869 0.07387 0.0
C603 C 0.27117 0.82384 0.08661 0.0
C604 C 0.2939 0.8568 0.06937 0.0
C605 C 0.31498 0.86023 0.07743 0.0
C606 C 0.31384 0.8461 0.09074 0.0
H607 H 0.4577 0.97142 0.06325 0.0
H608 H 0.42003 0.9437 0.07435 0.0
C609 C 0.29205 0.82806 0.09532 0.0
C610 C 0.3381 0.87761 0.07119 0.0
H611 H 0.3861 0.88356 0.05191 0.0
C612 C 0.34449 0.90069 0.07184 0.0
C613 C 0.35321 0.87135 0.0638 0.0
C614 C 0.34679 0.84677 0.06223 0.0
C615 C 0.36572 0.91769 0.06546 0.0
C616 C 0.38098 0.91144 0.05827 0.0
C617 C 0.37446 0.88834 0.05749 0.0
C618 C 0.40375 0.9286 0.05142 0.0
C619 C 0.37148 0.94219 0.06616 0.0
C620 C 0.4073 0.92918 0.03483 0.0
C621 C 0.42887 0.94509 0.02839 0.0
C622 C 0.44747 0.96059 0.03846 0.0
C623 C 0.44383 0.95983 0.0551 0.0
C624 C 0.42222 0.94404 0.06148 0.0
H625 H 0.35578 0.94382 0.06887 0.0
H626 H 0.38526 0.95072 0.07581 0.0
H627 H 0.37853 0.95123 0.05457 0.0
H628 H 0.39332 0.91735 0.02684 0.0
H629 H 0.43103 0.94508 0.01555 0.0
H630 H 0.19709 0.47682 0.10202 0.0
H631 H 0.16606 0.48508 0.09091 0.0
H632 H 0.14812 0.4353 0.05416 0.0
H633 H 0.17833 0.42634 0.06579 0.0
H634 H 0.16151 0.50116 0.06138 0.0
H635 H 0.08433 0.41638 0.07181 0.0
H636 H 0.11323 0.42449 0.08087 0.0
H637 H 0.10629 0.41517 0.06033 0.0
C638 C 0.18621 0.46749 0.09172 0.0
C639 C 0.18983 0.4509 0.08475 0.0
C640 C 0.16867 0.47227 0.08534 0.0
C641 C 0.15456 0.46053 0.07188 0.0
C642 C 0.15844 0.44417 0.06477 0.0
H643 H 0.07216 0.50512 0.00935 0.0
H644 H 0.10179 0.49541 0.02092 0.0
C645 C 0.17581 0.43926 0.07126 0.0
C646 C 0.13624 0.46585 0.06499 0.0
H647 H 0.0775 0.44208 0.05459 0.0
C648 C 0.14311 0.48829 0.05996 0.0
C649 C 0.11222 0.44906 0.06338 0.0
C650 C 0.10351 0.42499 0.06954 0.0
C651 C 0.12662 0.49437 0.05314 0.0
C652 C 0.10278 0.47737 0.05089 0.0
C653 C 0.09586 0.455 0.05613 0.0
C654 C 0.08456 0.48254 0.04357 0.0
C655 C 0.13482 0.51899 0.04874 0.0
C656 C 0.06463 0.47767 0.05222 0.0
C657 C 0.04751 0.4828 0.04555 0.0
C658 C 0.05007 0.493 0.03012 0.0
C659 C 0.06983 0.49747 0.02133 0.0
C660 C 0.08684 0.49209 0.02796 0.0
H661 H 0.15161 0.53046 0.05534 0.0
H662 H 0.138 0.52172 0.03564 0.0
H663 H 0.1213 0.52388 0.05141 0.0
H664 H 0.06251 0.47021 0.06426 0.0
H665 H 0.03253 0.47921 0.05266 0.0
H666 H 0.58081 0.73583 0.07148 0.0
H667 H 0.5695 0.69853 0.0607 0.0
H668 H 0.49894 0.68786 0.0498 0.0
H669 H 0.51002 0.72469 0.06153 0.0
H670 H 0.49738 0.65159 0.06421 0.0
H671 H 0.56023 0.67816 0.01519 0.0
H672 H 0.57539 0.68865 0.03423 0.0
H673 H 0.55536 0.6982 0.02584 0.0
C674 C 0.56293 0.72546 0.06676 0.0
C675 C 0.54625 0.73299 0.0673 0.0
C676 C 0.55655 0.70432 0.0604 0.0
C677 C 0.53349 0.69055 0.05413 0.0
C678 C 0.51688 0.69826 0.05445 0.0
H679 H 0.50004 0.56739 1.00293 0.0
H680 H 0.50589 0.60471 0.00985 0.0
C681 C 0.52322 0.71931 0.06101 0.0
C682 C 0.52637 0.66757 0.04821 0.0
H683 H 0.5427 0.63887 0.02355 0.0
C684 C 0.50711 0.64883 0.05517 0.0
C685 C 0.53878 0.66395 0.03621 0.0
C686 C 0.55841 0.68335 0.02732 0.0
C687 C 0.50044 0.62654 0.05086 0.0
C688 C 0.51387 0.62287 0.03968 0.0
C689 C 0.5326 0.64164 0.03231 0.0
C690 C 0.50911 0.59976 0.03562 0.0
C691 C 0.47893 0.60722 0.05825 0.0
C692 C 0.50905 0.58456 0.0478 0.0
C693 C 0.50538 0.5631 0.04389 0.0
C694 C 0.50222 0.55661 0.0277 0.0
C695 C 0.50246 0.5719 0.01552 0.0
C696 C 0.5058 0.59324 0.01945 0.0
H697 H 0.46648 0.61293 0.06198 0.0
H698 H 0.46939 0.59305 0.04972 0.0
H699 H 0.48451 0.60071 0.06921 0.0
H700 H 0.51228 0.58945 0.06032 0.0
H701 H 0.50559 0.55182 0.05354 0.0
H702 H 0.78555 0.28749 0.95192 0.0
H703 H 0.81399 0.32505 0.96252 0.0
H704 H 0.86874 0.30597 0.96435 0.0
H705 H 0.84019 0.26838 0.95398 0.0
H706 H 0.86768 0.32808 0.9924 0.0
H707 H 0.86722 0.37589 0.93618 0.0
H708 H 0.83869 0.35762 0.94417 0.0
H709 H 0.85551 0.34547 0.93674 0.0
C710 C 0.80362 0.29136 0.95474 0.0
C711 C 0.81081 0.27522 0.95211 0.0
C712 C 0.81988 0.31281 0.96065 0.0
C713 C 0.84358 0.31843 0.96401 0.0
C714 C 0.85059 0.30206 0.96176 0.0
H715 H 0.96775 0.45032 0.97692 0.0
H716 H 0.93751 0.41282 0.96783 0.0
C717 C 0.83437 0.28068 0.95581 0.0
C718 C 0.86118 0.34138 0.96978 0.0
H719 H 0.88939 0.39761 0.95869 0.0
C720 C 0.87239 0.3433 0.98506 0.0
C721 C 0.86753 0.36118 0.96009 0.0
C722 C 0.8568 0.36005 0.94332 0.0
C723 C 0.88963 0.36449 0.99096 0.0
C724 C 0.89567 0.38435 0.98139 0.0
C725 C 0.88461 0.3824 0.96606 0.0
C726 C 0.91383 0.40723 0.98694 0.0
C727 C 0.90162 0.36542 0.00725 0.0
C728 C 0.91045 0.41671 1.00059 0.0
C729 C 0.92769 0.43818 0.00583 0.0
C730 C 0.94871 0.45065 0.9975 0.0
C731 C 0.95188 0.44119 0.9837 0.0
C732 C 0.93458 0.41976 0.97844 0.0
H733 H 0.899 0.34846 0.01137 0.0
H734 H 0.92087 0.37742 0.00694 0.0
H735 H 0.89408 0.37151 0.01627 0.0
H736 H 0.8944 0.40753 0.00717 0.0
H737 H 0.92456 0.44494 0.01646 0.0
H738 H 0.75789 0.62622 0.96402 0.0
H739 H 0.72014 0.61514 0.97656 0.0
H740 H 0.6995 0.54453 0.97045 0.0
H741 H 0.73711 0.55567 0.95806 0.0
H742 H 0.67495 0.59021 0.96343 0.0
H743 H 0.6877 0.54635 0.01793 0.0
H744 H 0.71174 0.56505 0.00538 0.0
H745 H 0.6925 0.53606 0.99973 0.0
C746 C 0.74518 0.6084 0.96546 0.0
C747 C 0.75021 0.59171 0.96033 0.0
C748 C 0.7238 0.60209 0.97262 0.0
C749 C 0.70733 0.57902 0.97475 0.0
C750 C 0.71227 0.56239 0.96934 0.0
H751 H 0.5583 0.50891 0.9806 0.0
H752 H 0.59957 0.52779 0.97344 0.0
C753 C 0.7336 0.56871 0.96224 0.0
C754 C 0.68437 0.57211 0.98183 0.0
H755 H 0.64764 0.53741 0.01073 0.0
C756 C 0.66908 0.57895 0.97392 0.0
C757 C 0.67694 0.55774 0.99567 0.0
C758 C 0.69319 0.55107 0.00528 0.0
C759 C 0.64603 0.57076 0.97897 0.0
C760 C 0.63803 0.55504 0.99206 0.0
C761 C 0.65374 0.54921 1.00053 0.0
C762 C 0.61311 0.54357 0.99661 0.0
C763 C 0.63036 0.5788 0.97011 0.0
C764 C 0.60717 0.54553 0.01221 0.0
C765 C 0.58354 0.53456 0.01642 0.0
C766 C 0.56553 0.52138 0.00509 0.0
C767 C 0.57168 0.51909 0.98958 0.0
C768 C 0.59525 0.53 0.98542 0.0
H769 H 0.64093 0.59553 0.96401 0.0
H770 H 0.61941 0.5664 0.9607 0.0
H771 H 0.61836 0.58024 0.97844 0.0
H772 H 0.62078 0.55577 0.02105 0.0
H773 H 0.5794 0.53664 0.02848 0.0
H774 H 0.48747 0.20762 0.95009 0.0
H775 H 0.49319 0.17484 0.95671 0.0
H776 H 0.4181 0.13031 0.9502 0.0
H777 H 0.41241 0.1635 0.94443 0.0
H778 H 0.43359 0.12153 0.97802 0.0
H779 H 0.49358 0.12594 0.93181 0.0
H780 H 0.50564 0.15254 0.94179 0.0
H781 H 0.47824 0.14231 0.93005 0.0
C782 C 0.4723 0.19077 0.94989 0.0
C783 C 0.44951 0.18795 0.94697 0.0
C784 C 0.47556 0.17202 0.95346 0.0
C785 C 0.45611 0.15001 0.9538 0.0
C786 C 0.43339 0.1471 0.94998 0.0
H787 H 0.48341 0.0362 0.97489 0.0
H788 H 0.47063 0.06179 0.96175 0.0
C789 C 0.43013 0.16596 0.94656 0.0
C790 C 0.45933 0.13056 0.95985 0.0
H791 H 0.49396 0.10576 0.95662 0.0
C792 C 0.44652 0.11783 0.97316 0.0
C793 C 0.47593 0.12546 0.95341 0.0
C794 C 0.48891 0.13715 0.93837 0.0
C795 C 0.45058 0.10086 0.98062 0.0
C796 C 0.46849 0.09699 0.97495 0.0
C797 C 0.48053 0.10899 0.96119 0.0
C798 C 0.47529 0.08086 0.98321 0.0
C799 C 0.43554 0.08723 0.99446 0.0
C800 C 0.4823 0.0831 0.99966 0.0
C801 C 0.48933 0.06827 0.00729 0.0
C802 C 0.48998 0.05124 0.99851 0.0
C803 C 0.48316 0.04917 0.98201 0.0
C804 C 0.47584 0.06379 0.97446 0.0
H805 H 0.41813 0.08677 0.99369 0.0
H806 H 0.43249 0.06951 0.99473 0.0
H807 H 0.44461 0.09531 0.00599 0.0
H808 H 0.48272 0.09655 0.00657 0.0
H809 H 0.49473 0.07048 0.01996 0.0
H810 H 0.75742 0.1771 0.94446 0.0
H811 H 0.72136 0.14285 0.95278 0.0
H812 H 0.68426 0.18154 0.95161 0.0
H813 H 0.72018 0.21552 0.94313 0.0
H814 H 0.6988 0.13912 0.98123 0.0
H815 H 0.63681 0.12341 0.92854 0.0
H816 H 0.66837 0.14121 0.92729 0.0
H817 H 0.65077 0.15219 0.93525 0.0
C818 C 0.74133 0.178 0.94558 0.0
C819 C 0.74142 0.19879 0.94316 0.0
C820 C 0.72082 0.15854 0.95042 0.0
C821 C 0.7 0.15954 0.95271 0.0
C822 C 0.69992 0.18019 0.94967 0.0
H823 H 0.58561 0.0821 0.01589 0.0
H824 H 0.62099 0.10999 1.00235 0.0
C825 C 0.72042 0.19961 0.94492 0.0
C826 C 0.67904 0.13969 0.95964 0.0
H827 H 0.61962 0.105 0.95344 0.0
C828 C 0.68155 0.1315 0.97507 0.0
C829 C 0.65653 0.12958 0.95157 0.0
C830 C 0.65293 0.13688 0.93468 0.0
C831 C 0.66205 0.1141 0.98288 0.0
C832 C 0.63935 0.10476 0.97514 0.0
C833 C 0.63697 0.11232 0.95945 0.0
C834 C 0.61781 0.08761 0.98334 0.0
C835 C 0.66593 0.10588 0.99939 0.0
C836 C 0.60393 0.06583 0.97701 0.0
C837 C 0.58364 0.04977 0.98475 0.0
C838 C 0.57665 0.05525 0.9989 0.0
C839 C 0.59048 0.0772 0.00509 0.0
C840 C 0.61082 0.09317 0.9974 0.0
H841 H 0.68469 0.11019 1.00175 0.0
H842 H 0.6612 0.11415 0.00868 0.0
H843 H 0.65464 0.08721 1.00077 0.0
H844 H 0.60889 0.06121 0.96611 0.0
H845 H 0.57332 0.03313 0.97955 0.0
H846 H 0.80225 0.55718 0.94492 0.0
H847 H 0.83405 0.54801 0.95182 0.0
H848 H 0.88298 0.61919 0.95847 0.0
H849 H 0.85103 0.62826 0.9512 0.0
H850 H 0.90275 0.59451 0.94427 0.0
H851 H 0.85524 0.55272 0.99992 0.0
H852 H 0.8377 0.54171 0.98167 0.0
H853 H 0.84765 0.57066 0.98697 0.0
C854 C 0.81997 0.57079 0.94749 0.0
C855 C 0.82444 0.59331 0.94774 0.0
C856 C 0.83802 0.56561 0.95148 0.0
C857 C 0.86066 0.5829 0.95602 0.0
C858 C 0.86555 0.60563 0.9551 0.0
H859 H 0.95797 0.55571 0.01715 0.0
H860 H 0.93277 0.57093 0.0057 0.0
C861 C 0.84746 0.61082 0.95094 0.0
C862 C 0.87843 0.57698 0.9631 0.0
H863 H 0.88786 0.54754 0.99449 0.0
C864 C 0.89962 0.58434 0.95528 0.0
C865 C 0.87444 0.56416 0.97767 0.0
C866 C 0.85264 0.55703 0.98716 0.0
C867 C 0.91669 0.57854 0.96142 0.0
C868 C 0.91213 0.56472 0.97555 0.0
C869 C 0.89122 0.55797 0.98359 0.0
C870 C 0.92849 0.55662 0.98212 0.0
C871 C 0.93949 0.58744 0.9528 0.0
C872 C 0.93422 0.54334 0.97271 0.0
C873 C 0.94866 0.53471 0.97918 0.0
C874 C 0.95738 0.53892 0.99529 0.0
C875 C 0.95148 0.5521 1.00473 0.0
C876 C 0.93716 0.56087 0.99819 0.0
H877 H 0.94327 0.60297 0.94548 0.0
H878 H 0.95462 0.59141 0.96147 0.0
H879 H 0.93803 0.57433 0.94449 0.0
H880 H 0.92718 0.53931 0.96043 0.0
H881 H 0.95275 0.52451 0.9716 0.0
H882 H 0.42944 0.24265 0.98126 0.0
H883 H 0.43866 0.2781 0.9946 0.0
H884 H 0.48369 0.3168 0.95577 0.0
H885 H 0.47499 0.28129 0.94285 0.0
H886 H 0.50354 0.33413 0.98547 0.0
H887 H 0.41104 0.3186 0.9793 0.0
H888 H 0.41458 0.29674 0.99019 0.0
H889 H 0.42084 0.30175 0.96913 0.0
C890 C 0.4414 0.25882 0.97575 0.0
C891 C 0.45149 0.25954 0.9611 0.0
C892 C 0.44655 0.27897 0.98326 0.0
C893 C 0.46157 0.30008 0.97604 0.0
C894 C 0.47202 0.30071 0.96153 0.0
H895 H 0.47026 0.42913 0.98289 0.0
H896 H 0.46445 0.39186 0.97645 0.0
C897 C 0.46702 0.28057 0.95413 0.0
C898 C 0.46599 0.32159 0.98327 0.0
H899 H 0.43875 0.3518 0.99259 0.0
C900 C 0.48939 0.33799 0.98713 0.0
C901 C 0.44748 0.32659 0.9853 0.0
C902 C 0.42209 0.31011 0.98064 0.0
C903 C 0.49485 0.35948 0.99264 0.0
C904 C 0.47633 0.36447 0.99461 0.0
C905 C 0.45289 0.34785 0.99115 0.0
C906 C 0.48084 0.38745 0.99876 0.0
C907 C 0.52041 0.37695 0.99561 0.0
C908 C 0.49211 0.39745 0.01348 0.0
C909 C 0.49566 0.41901 0.01719 0.0
C910 C 0.4877 0.4307 0.00632 0.0
C911 C 0.47649 0.42058 0.99161 0.0
C912 C 0.47313 0.39923 0.98788 0.0
H913 H 0.53259 0.37201 0.99032 0.0
H914 H 0.52397 0.39377 0.99046 0.0
H915 H 0.52444 0.37877 0.0088 0.0
H916 H 0.49783 0.38847 0.02217 0.0
H917 H 0.50422 0.4263 0.02866 0.0
H918 H 0.1943 0.76285 0.0565 0.0
H919 H 0.16406 0.72677 0.04477 0.0
H920 H 0.17587 0.68997 0.0848 0.0
H921 H 0.20643 0.72593 0.09628 0.0
H922 H 0.16896 0.68444 0.038 0.0
H923 H 0.10257 0.67188 0.08264 0.0
H924 H 0.12705 0.6995 0.07801 0.0
H925 H 0.13193 0.67957 0.09043 0.0
C926 C 0.19062 0.747 0.06261 0.0
C927 C 0.20254 0.74707 0.0773 0.0
C928 C 0.17334 0.72647 0.05597 0.0
C929 C 0.1676 0.70576 0.06401 0.0
C930 C 0.17988 0.7058 0.0785 0.0
H931 H 0.06004 0.56545 0.05351 0.0
H932 H 0.092 0.60213 0.06243 0.0
C933 C 0.19725 0.72627 0.08505 0.0
C934 C 0.14839 0.68409 0.05754 0.0
H935 H 0.09254 0.6419 0.06487 0.0
C936 C 0.15218 0.67514 0.04378 0.0
C937 C 0.12662 0.67202 0.06519 0.0
C938 C 0.12158 0.6812 0.07983 0.0
C939 C 0.13491 0.65407 0.03767 0.0
C940 C 0.11304 0.64196 0.04531 0.0
C941 C 0.10926 0.65112 0.059 0.0
C942 C 0.09396 0.61956 0.03955 0.0
C943 C 0.14061 0.64468 0.02344 0.0
C944 C 0.0842 0.61709 0.02373 0.0
C945 C 0.066 0.59602 0.01854 0.0
C946 C 0.05692 0.57705 0.02913 0.0
C947 C 0.06656 0.57966 0.04501 0.0
C948 C 0.08486 0.60066 0.05015 0.0
H949 H 0.15998 0.65259 0.02201 0.0
H950 H 0.13324 0.62599 0.02469 0.0
H951 H 0.13275 0.64836 0.01226 0.0
H952 H 0.09044 0.63152 0.01545 0.0
H953 H 0.05887 0.5947 0.00627 0.0
H954 H 0.23977 0.41319 0.07034 0.0
H955 H 0.27556 0.41642 0.05939 0.0
H956 H 0.31776 0.46367 0.09663 0.0
H957 H 0.28182 0.46112 0.10709 0.0
H958 H 0.33282 0.48054 0.06725 0.0
H959 H 0.32083 0.39341 0.07244 0.0
H960 H 0.29602 0.3941 0.06226 0.0
H961 H 0.30306 0.40203 0.08309 0.0
C962 C 0.25671 0.42386 0.07633 0.0
C963 C 0.25827 0.43702 0.08943 0.0
C964 C 0.2771 0.42558 0.07018 0.0
C965 C 0.29934 0.44016 0.07726 0.0
C966 C 0.30076 0.45227 0.09101 0.0
H967 H 0.43224 0.45405 0.05133 0.0
H968 H 0.39537 0.44481 0.06346 0.0
C969 C 0.28031 0.45068 0.09707 0.0
C970 C 0.32107 0.44465 0.06926 0.0
H971 H 0.34985 0.41895 0.05419 0.0
C972 C 0.33667 0.4671 0.06452 0.0
C973 C 0.32606 0.4271 0.06574 0.0
C974 C 0.31072 0.40285 0.07129 0.0
C975 C 0.35705 0.47249 0.05624 0.0
C976 C 0.36158 0.45484 0.05219 0.0
C977 C 0.3461 0.4324 0.05706 0.0
C978 C 0.38322 0.45949 0.04399 0.0
C979 C 0.37381 0.49711 0.05229 0.0
C980 C 0.38845 0.47042 0.02878 0.0
C981 C 0.4098 0.476 0.02177 0.0
C982 C 0.42604 0.47042 0.02981 0.0
C983 C 0.42021 0.45865 0.04474 0.0
C984 C 0.39907 0.4533 0.05174 0.0
H985 H 0.37085 0.50875 0.05971 0.0
H986 H 0.39248 0.50097 0.05424 0.0
H987 H 0.37099 0.50069 0.03942 0.0
H988 H 0.37617 0.4749 0.02242 0.0
H989 H 0.41371 0.48494 0.01023 0.0
H990 H 0.51883 0.79348 0.07327 0.0
H991 H 0.51833 0.82945 0.06822 0.0
H992 H 0.59373 0.86641 0.07768 0.0
H993 H 0.59418 0.83028 0.08246 0.0
H994 H 0.53508 0.86893 0.08842 0.0
H995 H 0.58259 0.88668 0.03123 0.0
H996 H 0.56893 0.85889 0.04082 0.0
H997 H 0.59627 0.88108 0.04903 0.0
C998 C 0.53521 0.80934 0.07426 0.0
C999 C 0.55656 0.80931 0.07805 0.0
C1000 C 0.53493 0.82981 0.0715 0.0
C1001 C 0.55603 0.85053 0.07243 0.0
C1002 C 0.57731 0.85056 0.07675 0.0
H1003 H 0.55464 0.98085 0.05919 0.0
H1004 H 0.56453 0.95196 0.07032 0.0
C1005 C 0.57756 0.83004 0.07954 0.0
C1006 C 0.55564 0.8719 0.0681 0.0
H1007 H 0.57007 0.91243 0.03824 0.0
C1008 C 0.543 0.87868 0.07759 0.0
C1009 C 0.56586 0.88438 0.05388 0.0
C1010 C 0.57907 0.87742 0.04303 0.0
C1011 C 0.53979 0.89735 0.07298 0.0
C1012 C 0.54957 0.90951 0.05858 0.0
C1013 C 0.56276 0.90311 0.04934 0.0
C1014 C 0.54421 0.92734 0.05199 0.0
C1015 C 0.52506 0.90334 0.08311 0.0
C1016 C 0.52981 0.9231 0.03792 0.0
C1017 C 0.52412 0.93943 0.03157 0.0
C1018 C 0.53289 0.96047 0.0391 0.0
C1019 C 0.54761 0.96482 0.05311 0.0
C1020 C 0.5532 0.94834 0.05952 0.0
H1021 H 0.51636 0.89052 0.09285 0.0
H1022 H 0.53651 0.92003 0.08874 0.0
H1023 H 0.51127 0.90485 0.07543 0.0
H1024 H 0.52274 0.90699 0.03194 0.0
H1025 H 0.51283 0.93551 0.02074 0.0
H1026 H 0.92377 0.17465 0.40029 0.0
H1027 H 0.96209 0.20625 0.39254 0.0
H1028 H 0.99719 0.18464 0.42924 0.0
H1029 H 0.95867 0.153 0.43695 0.0
H1030 H 1.00166 0.24295 0.41069 0.0
H1031 H 0.02368 0.18096 0.38498 0.0
H1032 H 0.99395 0.17361 0.38981 0.0
H1033 H 0.01505 0.17596 0.40562 0.0
C1034 C 0.93968 0.17712 0.40694 0.0
C1035 C 0.93843 0.16157 0.4192 0.0
C1036 C 0.96152 0.19506 0.4025 0.0
C1037 C 0.98254 0.19762 0.41015 0.0
C1038 C 0.98121 0.18285 0.42307 0.0
H1039 H 0.12616 0.30655 0.39533 0.0
H1040 H 0.08847 0.27926 0.40659 0.0
C1041 C 0.95928 0.16497 0.42759 0.0
C1042 C 0.00572 0.21467 0.40378 0.0
H1043 H 0.0525 0.21963 0.38346 0.0
C1044 C 0.01285 0.23789 0.40481 0.0
C1045 C 0.0201 0.20801 0.39586 0.0
C1046 C 0.01284 0.1833 0.39383 0.0
C1047 C 0.03412 0.25461 0.3983 0.0
C1048 C 0.04867 0.24794 0.39059 0.0
C1049 C 0.0414 0.22472 0.38943 0.0
C1050 C 0.0715 0.26481 0.38364 0.0
C1051 C 0.04067 0.27928 0.39943 0.0
C1052 C 0.07471 0.26558 0.36698 0.0
C1053 C 0.09631 0.28125 0.36044 0.0
C1054 C 0.11528 0.29629 0.37048 0.0
C1055 C 0.112 0.29531 0.38719 0.0
C1056 C 0.09037 0.27977 0.39367 0.0
H1057 H 0.02533 0.28135 0.40243 0.0
H1058 H 0.05463 0.28727 0.40907 0.0
H1059 H 0.04775 0.28853 0.38791 0.0
H1060 H 0.06042 0.25411 0.35901 0.0
H1061 H 0.09819 0.28142 0.34755 0.0
H1062 H 0.84934 0.76903 0.41519 0.0
H1063 H 0.81906 0.77495 0.40001 0.0
H1064 H 0.8634 0.84748 0.40369 0.0
H1065 H 0.89359 0.84142 0.41906 0.0
H1066 H 0.81519 0.83003 0.41229 0.0
H1067 H 0.82271 0.79982 0.35285 0.0
H1068 H 0.81942 0.7808 0.36961 0.0
H1069 H 0.84552 0.80807 0.36867 0.0
C1070 C 0.85244 0.78617 0.41276 0.0
C1071 C 0.87352 0.80482 0.41822 0.0
C1072 C 0.83535 0.78955 0.404 0.0
C1073 C 0.83923 0.81164 0.40057 0.0
C1074 C 0.86025 0.83032 0.40615 0.0
H1075 H 0.75317 0.85342 0.33936 0.0
H1076 H 0.78558 0.84786 0.35109 0.0
C1077 C 0.87738 0.82691 0.41487 0.0
C1078 C 0.82086 0.81517 0.39172 0.0
H1079 H 0.78974 0.80577 0.35571 0.0
C1080 C 0.8097 0.82487 0.39989 0.0
C1081 C 0.81398 0.80857 0.37552 0.0
C1082 C 0.82614 0.79891 0.36606 0.0
C1083 C 0.79131 0.8276 0.39239 0.0
C1084 C 0.78385 0.82024 0.37639 0.0
C1085 C 0.79542 0.81113 0.36805 0.0
C1086 C 0.76393 0.82189 0.36823 0.0
C1087 C 0.77997 0.83835 0.4016 0.0
C1088 C 0.74102 0.80855 0.3737 0.0
C1089 C 0.72249 0.8116 0.36703 0.0
C1090 C 0.72664 0.82809 0.35479 0.0
C1091 C 0.74945 0.84066 0.34882 0.0
C1092 C 0.76796 0.83753 0.35548 0.0
H1093 H 0.79092 0.84733 0.41241 0.0
H1094 H 0.77698 0.8506 0.39376 0.0
H1095 H 0.76255 0.82493 0.40567 0.0
H1096 H 0.73762 0.7962 0.38342 0.0
H1097 H 0.70512 0.80157 0.37185 0.0
H1098 H 0.19709 0.0535 0.42363 0.0
H1099 H 0.18679 0.01611 0.41312 0.0
H1100 H 0.22809 0.04884 0.37146 0.0
H1101 H 0.23886 0.08619 0.38233 0.0
H1102 H 0.16436 0.99465 0.38491 0.0
H1103 H 0.25679 0.01005 0.38903 0.0
H1104 H 0.24797 0.02837 0.39825 0.0
H1105 H 0.25282 0.03083 0.37697 0.0
C1106 C 0.20376 0.0525 0.4122 0.0
C1107 C 0.21876 0.07241 0.40374 0.0
C1108 C 0.19792 0.03128 0.4062 0.0
C1109 C 0.20703 0.02972 0.39165 0.0
C1110 C 0.2213 0.04968 0.38288 0.0
H1111 H 0.19504 0.91495 0.33998 0.0
H1112 H 0.20183 0.9523 0.34778 0.0
C1113 C 0.22726 0.07091 0.38896 0.0
C1114 C 0.20195 0.00721 0.3859 0.0
H1115 H 0.22824 0.97602 0.37669 0.0
C1116 C 0.17831 0.99056 0.38312 0.0
C1117 C 0.2202 1.00189 0.38365 0.0
C1118 C 0.24586 0.01863 0.38727 0.0
C1119 C 0.17245 0.96879 0.378 0.0
C1120 C 0.19071 0.96355 0.37574 0.0
C1121 C 0.21432 0.9802 0.37839 0.0
C1122 C 0.18571 0.94073 0.37086 0.0
C1123 C 0.14683 0.95162 0.37488 0.0
C1124 C 0.17454 0.92193 0.38134 0.0
C1125 C 0.17074 0.90057 0.37698 0.0
C1126 C 0.17804 0.89766 0.36204 0.0
C1127 C 0.18912 0.91656 0.35155 0.0
C1128 C 0.19304 0.93792 0.35597 0.0
H1129 H 0.13539 0.95971 0.37382 0.0
H1130 H 0.14452 0.94227 0.36365 0.0
H1131 H 0.14075 0.93908 0.38504 0.0
H1132 H 0.16908 0.92386 0.39299 0.0
H1133 H 0.16217 0.88638 0.38535 0.0
H1134 H 0.47478 0.62926 0.26487 0.0
H1135 H 0.50477 0.66635 0.27518 0.0
H1136 H 0.52178 0.63279 0.31504 0.0
H1137 H 0.49213 0.5957 0.30447 0.0
H1138 H 0.50938 0.68659 0.30474 0.0
H1139 H 0.58616 0.67359 0.29559 0.0
H1140 H 0.55717 0.65558 0.28666 0.0
H1141 H 0.56366 0.65176 0.30755 0.0
C1142 C 0.48502 0.62991 0.2758 0.0
C1143 C 0.48134 0.60973 0.28385 0.0
C1144 C 0.50205 0.65104 0.28172 0.0
C1145 C 0.5158 0.65237 0.29576 0.0
C1146 C 0.51171 0.6322 0.30404 0.0
H1147 H 0.60395 0.77432 0.35145 0.0
H1148 H 0.57328 0.73726 0.34203 0.0
C1149 C 0.49465 0.61106 0.29811 0.0
C1150 C 0.53444 0.67488 0.30165 0.0
H1151 H 0.59394 0.70668 0.30943 0.0
C1152 C 0.52787 0.69099 0.30577 0.0
C1153 C 0.55862 0.68075 0.30278 0.0
C1154 C 0.56694 0.66463 0.29778 0.0
C1155 C 0.54475 0.71265 0.31118 0.0
C1156 C 0.56885 0.7183 0.31271 0.0
C1157 C 0.57545 0.70229 0.3084 0.0
C1158 C 0.58755 0.74085 0.31849 0.0
C1159 C 0.53667 0.72947 0.31487 0.0
C1160 C 0.60615 0.75506 0.30856 0.0
C1161 C 0.62383 0.77627 0.31393 0.0
C1162 C 0.62341 0.7837 0.32944 0.0
C1163 C 0.60484 0.76929 0.33942 0.0
C1164 C 0.58717 0.74809 0.33402 0.0
H1165 H 0.51897 0.72473 0.30922 0.0
H1166 H 0.5355 0.7299 0.32812 0.0
H1167 H 0.54941 0.74683 0.31061 0.0
H1168 H 0.60688 0.74981 0.29655 0.0
H1169 H 0.6378 0.78684 0.30589 0.0
H1170 H 0.43282 0.9669 0.302 0.0
H1171 H 0.39388 0.95474 0.31308 0.0
H1172 H 0.37671 0.88467 0.30901 0.0
H1173 H 0.41555 0.8969 0.29817 0.0
H1174 H 0.34987 0.92849 0.29932 0.0
H1175 H 0.36136 0.88675 0.35542 0.0
H1176 H 0.38583 0.90553 0.34323 0.0
H1177 H 0.36748 0.87627 0.33784 0.0
C1178 C 0.42062 0.94896 0.30359 0.0
C1179 C 0.42699 0.93275 0.29951 0.0
C1180 C 0.39854 0.94203 0.30991 0.0
C1181 C 0.38267 0.91882 0.31221 0.0
C1182 C 0.38896 0.90266 0.3078 0.0
H1183 H 0.23242 0.8475 0.31526 0.0
H1184 H 0.27394 0.86597 0.3087 0.0
C1185 C 0.411 0.90959 0.30156 0.0
C1186 C 0.35907 0.91126 0.31852 0.0
H1187 H 0.32139 0.87669 0.34705 0.0
C1188 C 0.34372 0.91741 0.30988 0.0
C1189 C 0.35124 0.89714 0.33247 0.0
C1190 C 0.36744 0.89124 0.34287 0.0
C1191 C 0.32034 0.9089 0.31436 0.0
C1192 C 0.31203 0.89349 0.32762 0.0
C1193 C 0.32771 0.88824 0.33674 0.0
C1194 C 0.28693 0.88198 0.33184 0.0
C1195 C 0.30475 0.91644 0.30481 0.0
C1196 C 0.28055 0.88411 0.34727 0.0
C1197 C 0.25678 0.87331 0.35116 0.0
C1198 C 0.23904 0.86018 0.33967 0.0
C1199 C 0.2456 0.85766 0.32435 0.0
C1200 C 0.26932 0.86835 0.32052 0.0
H1201 H 0.31536 0.93311 0.29864 0.0
H1202 H 0.2944 0.9038 0.29539 0.0
H1203 H 0.2922 0.9178 0.31266 0.0
H1204 H 0.29393 0.89439 0.35622 0.0
H1205 H 0.25232 0.87558 0.36307 0.0
H1206 H 0.13855 0.52955 0.26149 0.0
H1207 H 0.14288 0.4957 0.26774 0.0
H1208 H 0.1002 0.48117 0.30922 0.0
H1209 H 0.09514 0.51435 0.30251 0.0
H1210 H 0.16475 0.49044 0.29444 0.0
H1211 H 0.0736 0.41866 0.2917 0.0
H1212 H 0.08104 0.44636 0.28321 0.0
H1213 H 0.07612 0.44058 0.30445 0.0
C1214 C 0.12949 0.51861 0.27159 0.0
C1215 C 0.11656 0.52442 0.28156 0.0
C1216 C 0.13209 0.49942 0.27524 0.0
C1217 C 0.12169 0.48572 0.28888 0.0
C1218 C 0.10795 0.49109 0.29844 0.0
H1219 H 0.14589 0.39347 0.35164 0.0
H1220 H 0.13457 0.42034 0.33863 0.0
C1221 C 0.10525 0.51015 0.29472 0.0
C1222 C 0.12727 0.46742 0.29418 0.0
H1223 H 0.10243 0.41201 0.3072 0.0
C1224 C 0.15111 0.4732 0.29696 0.0
C1225 C 0.10949 0.44491 0.29753 0.0
C1226 C 0.08365 0.43721 0.2939 0.0
C1227 C 0.1576 0.45736 0.30354 0.0
C1228 C 0.1398 0.43517 0.30742 0.0
C1229 C 0.116 0.42915 0.30432 0.0
C1230 C 0.14571 0.41818 0.31502 0.0
C1231 C 0.1834 0.46458 0.3068 0.0
C1232 C 0.1555 0.40796 0.30598 0.0
C1233 C 0.1619 0.39255 0.31333 0.0
C1234 C 0.15874 0.38717 0.32991 0.0
C1235 C 0.14867 0.39729 0.33889 0.0
C1236 C 0.14211 0.41259 0.33147 0.0
H1237 H 0.19489 0.48314 0.30488 0.0
H1238 H 0.1864 0.45996 0.31939 0.0
H1239 H 0.1888 0.45548 0.29862 0.0
H1240 H 0.15832 0.41204 0.29325 0.0
H1241 H 0.1696 0.38508 0.30604 0.0
H1242 H 0.43001 0.52358 0.29947 0.0
H1243 H 0.39328 0.49044 0.30765 0.0
H1244 H 0.35696 0.49936 0.26509 0.0
H1245 H 0.39369 0.53316 0.2573 0.0
H1246 H 0.33297 0.49448 0.29131 0.0
H1247 H 0.35705 0.42618 0.29272 0.0
H1248 H 0.37759 0.44969 0.30471 0.0
H1249 H 0.37493 0.45352 0.28322 0.0
C1250 C 0.41421 0.51823 0.2918 0.0
C1251 C 0.41459 0.53091 0.27781 0.0
C1252 C 0.39326 0.49916 0.29637 0.0
C1253 C 0.37229 0.49211 0.28691 0.0
C1254 C 0.37289 0.50434 0.27257 0.0
H1255 H 0.24152 0.368 0.3115 0.0
H1256 H 0.27681 0.3962 0.29788 0.0
C1257 C 0.39387 0.52351 0.26804 0.0
C1258 C 0.34948 0.47331 0.29272 0.0
H1259 H 0.32316 0.41874 0.30767 0.0
C1260 C 0.33077 0.47784 0.2947 0.0
C1261 C 0.34632 0.45143 0.29696 0.0
C1262 C 0.36497 0.44483 0.29413 0.0
C1263 C 0.30947 0.46148 0.30133 0.0
C1264 C 0.3069 0.4401 0.30653 0.0
C1265 C 0.32521 0.43523 0.30395 0.0
C1266 C 0.28555 0.4228 0.31491 0.0
C1267 C 0.28987 0.46728 0.3026 0.0
C1268 C 0.27887 0.42814 0.32921 0.0
C1269 C 0.25865 0.41211 0.33698 0.0
C1270 C 0.24475 0.3902 0.33077 0.0
C1271 C 0.25178 0.38468 0.31666 0.0
C1272 C 0.27198 0.40081 0.30883 0.0
H1273 H 0.29159 0.4808 0.29372 0.0
H1274 H 0.27225 0.45215 0.30061 0.0
H1275 H 0.29076 0.47369 0.31484 0.0
H1276 H 0.28935 0.44476 0.33441 0.0
H1277 H 0.25393 0.41694 0.34788 0.0
H1278 H 0.52943 0.97029 0.29342 0.0
H1279 H 0.56093 0.96106 0.30192 0.0
H1280 H 0.51142 0.88973 0.29667 0.0
H1281 H 0.48014 0.89909 0.28849 0.0
H1282 H 0.53432 0.90061 0.32691 0.0
H1283 H 0.59821 0.93749 0.27783 0.0
H1284 H 0.58976 0.95635 0.28648 0.0
H1285 H 0.56816 0.93235 0.27531 0.0
C1286 C 0.52568 0.95277 0.29369 0.0
C1287 C 0.50265 0.93532 0.29037 0.0
C1288 C 0.54353 0.94749 0.29854 0.0
C1289 C 0.53847 0.9247 0.29991 0.0
C1290 C 0.51566 0.9074 0.29573 0.0
H1291 H 0.62097 0.85826 0.31113 0.0
H1292 H 0.59621 0.8752 0.30303 0.0
C1293 C 0.4979 0.91268 0.29101 0.0
C1294 C 0.55613 0.91852 0.30693 0.0
H1295 H 0.60872 0.92088 0.3002 0.0
C1296 C 0.55068 0.90514 0.32114 0.0
C1297 C 0.57739 0.92449 0.29934 0.0
C1298 C 0.58376 0.93832 0.28383 0.0
C1299 C 0.56559 0.89697 0.32774 0.0
C1300 C 0.58675 0.90273 0.32007 0.0
C1301 C 0.59253 0.91664 0.3061 0.0
C1302 C 0.60195 0.89273 0.32542 0.0
C1303 C 0.55806 0.88143 0.34243 0.0
C1304 C 0.61335 0.89689 0.34078 0.0
C1305 C 0.62747 0.88702 0.34556 0.0
C1306 C 0.63053 0.87302 0.33497 0.0
C1307 C 0.61903 0.86895 0.31961 0.0
C1308 C 0.60493 0.8787 0.31491 0.0
H1309 H 0.53919 0.8751 0.34491 0.0
H1310 H 0.56084 0.86661 0.34091 0.0
H1311 H 0.5689 0.89084 0.35312 0.0
H1312 H 0.61151 0.90794 0.34898 0.0
H1313 H 0.63627 0.89064 0.35739 0.0
H1314 H 0.10719 0.5849 0.31244 0.0
H1315 H 0.11571 0.62031 0.32536 0.0
H1316 H 0.16058 0.65892 0.28648 0.0
H1317 H 0.15281 0.62349 0.27398 0.0
H1318 H 0.17985 0.6772 0.31607 0.0
H1319 H 0.08664 0.65929 0.3091 0.0
H1320 H 0.09061 0.63788 0.32029 0.0
H1321 H 0.09724 0.64282 0.29928 0.0
C1322 C 0.11909 0.601 0.30683 0.0
C1323 C 0.12924 0.60161 0.2922 0.0
C1324 C 0.12377 0.62117 0.3141 0.0
C1325 C 0.13843 0.64225 0.30672 0.0
C1326 C 0.14911 0.64285 0.29233 0.0
H1327 H 0.1431 0.77023 0.31513 0.0
H1328 H 0.13816 0.73355 0.3078 0.0
C1329 C 0.14457 0.62268 0.28514 0.0
C1330 C 0.14217 0.66372 0.31367 0.0
H1331 H 0.11338 0.69259 0.3228 0.0
C1332 C 0.16533 0.68057 0.31762 0.0
C1333 C 0.1232 0.66813 0.31551 0.0
C1334 C 0.09804 0.65119 0.3107 0.0
C1335 C 0.17008 0.70184 0.32319 0.0
C1336 C 0.15108 0.70616 0.32514 0.0
C1337 C 0.1279 0.68917 0.32141 0.0
C1338 C 0.15483 0.72871 0.32983 0.0
C1339 C 0.19542 0.71975 0.32634 0.0
C1340 C 0.16585 0.73823 0.34471 0.0
C1341 C 0.16888 0.75943 0.34893 0.0
C1342 C 0.16067 0.77128 0.33841 0.0
C1343 C 0.14957 0.76158 0.32357 0.0
C1344 C 0.1467 0.74056 0.31934 0.0
H1345 H 0.20798 0.71554 0.32077 0.0
H1346 H 0.19848 0.7366 0.3216 0.0
H1347 H 0.19943 0.72107 0.33954 0.0
H1348 H 0.17184 0.72918 0.35313 0.0
H1349 H 0.17737 0.76636 0.36049 0.0
H1350 H 0.86258 0.10194 0.38745 0.0
H1351 H 0.8338 0.06647 0.37439 0.0
H1352 H 0.84437 0.02795 0.4138 0.0
H1353 H 0.87382 0.06339 0.42644 0.0
H1354 H 0.84296 0.0101 0.38491 0.0
H1355 H 0.76675 0.02592 0.3877 0.0
H1356 H 0.79123 0.0477 0.37714 0.0
H1357 H 0.79455 0.04297 0.3984 0.0
C1358 C 0.85885 0.08585 0.39318 0.0
C1359 C 0.87023 0.0853 0.40797 0.0
C1360 C 0.84223 0.06562 0.38584 0.0
C1361 C 0.83651 0.0445 0.39327 0.0
C1362 C 0.84832 0.044 0.40789 0.0
H1363 H 0.73697 0.90291 0.38223 0.0
H1364 H 0.76781 0.9405 0.39047 0.0
C1365 C 0.86502 0.0642 0.41515 0.0
C1366 C 0.81835 0.02285 0.3859 0.0
H1367 H 0.75986 0.99291 0.37423 0.0
C1368 C 0.82481 1.00639 0.38256 0.0
C1369 C 0.79462 0.01797 0.38281 0.0
C1370 C 0.78625 0.03446 0.38682 0.0
C1371 C 0.80823 0.98519 0.37631 0.0
C1372 C 0.78451 0.98024 0.37342 0.0
C1373 C 0.7781 0.99682 0.37641 0.0
C1374 C 0.76586 0.95747 0.36817 0.0
C1375 C 0.81618 0.9682 0.37286 0.0
C1376 C 0.75425 0.95459 0.35295 0.0
C1377 C 0.73658 0.93302 0.34814 0.0
C1378 C 0.72998 0.91402 0.35856 0.0
C1379 C 0.74154 0.91711 0.37387 0.0
C1380 C 0.75929 0.93859 0.37859 0.0
H1381 H 0.83568 0.97635 0.37213 0.0
H1382 H 0.81072 0.95517 0.3827 0.0
H1383 H 0.80782 0.95943 0.36137 0.0
H1384 H 0.75899 0.96901 0.34477 0.0
H1385 H 0.728 0.93129 0.3363 0.0
H1386 H 0.96683 0.8367 0.43184 0.0
H1387 H 1.0022 0.83859 0.42088 0.0
H1388 H 0.96598 0.7656 0.41749 0.0
H1389 H 0.9306 0.76384 0.42831 0.0
H1390 H 0.03091 0.81551 0.42871 0.0
H1391 H 0.9798 0.79274 0.37 0.0
H1392 H 0.97087 0.8025 0.38681 0.0
H1393 H 0.96603 0.7739 0.38679 0.0
C1394 C 0.96685 0.82111 0.42921 0.0
C1395 C 0.94624 0.80016 0.4308 0.0
C1396 C 0.98691 0.82217 0.42295 0.0
C1397 C 0.98646 0.80225 0.41818 0.0
C1398 C 0.96651 0.78113 0.42101 0.0
H1399 H 0.09999 0.78848 0.37976 0.0
H1400 H 0.06657 0.78405 0.39455 0.0
C1401 C 0.94647 0.7801 0.4273 0.0
C1402 C 0.00572 0.80383 0.40861 0.0
H1403 H 0.01826 0.79718 0.37049 0.0
C1404 C 0.0282 0.81143 0.41601 0.0
C1405 C 1.0021 0.79895 0.39197 0.0
C1406 C 0.97847 0.79173 0.38332 0.0
C1407 C 0.04719 0.81392 0.40719 0.0
C1408 C 0.0434 0.80844 0.39063 0.0
C1409 C 0.02099 0.80119 0.38321 0.0
C1410 C 0.0625 0.81009 0.38083 0.0
C1411 C 0.07123 0.82273 0.41558 0.0
C1412 C 0.07051 0.82545 0.3677 0.0
C1413 C 0.08957 0.82793 0.35907 0.0
C1414 C 0.10079 0.815 0.36345 0.0
C1415 C 0.09188 0.79884 0.37612 0.0
C1416 C 0.07288 0.79638 0.3847 0.0
H1417 H 0.0725 0.8314 0.42696 0.0
H1418 H 0.07453 0.80828 0.41865 0.0
H1419 H 0.08536 0.83478 0.40762 0.0
H1420 H 0.0625 0.83602 0.36446 0.0
H1421 H 0.09607 0.84057 0.34942 0.0
H1422 H 0.26709 0.17043 0.41408 0.0
H1423 H 0.26496 0.20565 0.40901 0.0
H1424 H 0.18886 0.1672 0.40894 0.0
H1425 H 0.19115 0.1322 0.4144 0.0
H1426 H 0.24338 0.21382 0.38193 0.0
H1427 H 0.20323 0.22109 0.43693 0.0
H1428 H 0.21657 0.20305 0.4361 0.0
H1429 H 0.18699 0.19362 0.42803 0.0
C1430 C 0.25001 0.16972 0.41331 0.0
C1431 C 0.22927 0.14878 0.4145 0.0
C1432 C 0.24877 0.18973 0.41037 0.0
C1433 C 0.22676 0.18908 0.40875 0.0
C1434 C 0.20605 0.16818 0.41043 0.0
H1435 H 0.18044 0.27058 0.35361 0.0
H1436 H 0.19078 0.2425 0.3652 0.0
C1437 C 0.20731 0.1482 0.41335 0.0
C1438 C 0.22527 0.2098 0.40381 0.0
H1439 H 0.20122 0.24272 0.41363 0.0
C1440 C 0.23446 0.22034 0.38898 0.0
C1441 C 0.21387 0.21845 0.41309 0.0
C1442 C 0.20481 0.20861 0.4295 0.0
C1443 C 0.23156 0.2386 0.38281 0.0
C1444 C 0.2189 0.24635 0.39162 0.0
C1445 C 0.21071 0.23657 0.40682 0.0
C1446 C 0.21282 0.26363 0.38479 0.0
C1447 C 0.2418 0.24928 0.3668 0.0
C1448 C 0.22142 0.28469 0.39216 0.0
C1449 C 0.21553 0.30089 0.38555 0.0
C1450 C 0.20072 0.29614 0.37155 0.0
C1451 C 0.19194 0.27487 0.36436 0.0
C1452 C 0.19792 0.25881 0.37092 0.0
H1453 H 0.25622 0.2458 0.36381 0.0
H1454 H 0.22772 0.24208 0.35715 0.0
H1455 H 0.24879 0.26795 0.36679 0.0
H1456 H 0.23282 0.28865 0.40295 0.0
H1457 H 0.22247 0.31703 0.39145 0.0
H1458 H 0.59431 0.50342 0.73277 0.0
H1459 H 0.63234 0.53502 0.72478 0.0
H1460 H 0.66675 0.52103 0.7663 0.0
H1461 H 0.62859 0.48886 0.77396 0.0
H1462 H 0.66632 0.57407 0.73831 0.0
H1463 H 0.70222 0.51557 0.72949 0.0
H1464 H 0.67145 0.50549 0.73294 0.0
H1465 H 0.69287 0.51495 0.74953 0.0
C1466 C 0.61 0.50735 0.74027 0.0
C1467 C 0.60866 0.49365 0.75386 0.0
C1468 C 0.63171 0.52539 0.73573 0.0
C1469 C 0.65259 0.53013 0.74469 0.0
C1470 C 0.65102 0.51739 0.75895 0.0
H1471 H 0.78896 0.64985 0.72394 0.0
H1472 H 0.75238 0.62236 0.73643 0.0
C1473 C 0.62922 0.49925 0.76346 0.0
C1474 C 0.67589 0.5476 0.73857 0.0
H1475 H 0.72797 0.55463 0.72503 0.0
C1476 C 0.67985 0.56985 0.73549 0.0
C1477 C 0.69342 0.54204 0.73456 0.0
C1478 C 0.68979 0.51819 0.73664 0.0
C1479 C 0.70075 0.5866 0.72856 0.0
C1480 C 0.71847 0.58115 0.72486 0.0
C1481 C 0.71452 0.55891 0.72796 0.0
C1482 C 0.74092 0.59799 0.71731 0.0
C1483 C 0.70324 0.60977 0.72477 0.0
C1484 C 0.74718 0.5933 0.70258 0.0
C1485 C 0.76828 0.60892 0.69545 0.0
C1486 C 0.78368 0.62965 0.70289 0.0
C1487 C 0.77746 0.63422 0.71772 0.0
C1488 C 0.75642 0.61853 0.72488 0.0
H1489 H 0.68585 0.60933 0.72416 0.0
H1490 H 0.71433 0.6216 0.73444 0.0
H1491 H 0.71187 0.61667 0.71313 0.0
H1492 H 0.73563 0.57755 0.69651 0.0
H1493 H 0.77245 0.60474 0.68406 0.0
H1494 H 0.51202 0.09546 0.74209 0.0
H1495 H 0.48116 0.1033 0.73002 0.0
H1496 H 0.51199 0.16655 0.7554 0.0
H1497 H 0.54244 0.15821 0.76778 0.0
H1498 H 0.46443 0.14402 0.75663 0.0
H1499 H 0.49046 0.14821 0.69362 0.0
H1500 H 0.48384 0.12175 0.70363 0.0
H1501 H 0.5086 0.14769 0.71076 0.0
C1502 C 0.51204 0.11098 0.745 0.0
C1503 C 0.52943 0.12638 0.75566 0.0
C1504 C 0.49461 0.11552 0.73809 0.0
C1505 C 0.49463 0.13575 0.74154 0.0
C1506 C 0.51178 0.15093 0.7525 0.0
H1507 H 0.418 0.19198 0.68526 0.0
H1508 H 0.44787 0.18374 0.69817 0.0
C1509 C 0.52907 0.14623 0.75955 0.0
C1510 C 0.4767 0.14101 0.73377 0.0
H1511 H 0.45379 0.1473 0.6971 0.0
C1512 C 0.46214 0.14485 0.74361 0.0
C1513 C 0.47406 0.14244 0.71679 0.0
C1514 C 0.49023 0.14004 0.70559 0.0
C1515 C 0.44472 0.14975 0.73692 0.0
C1516 C 0.44138 0.15017 0.71994 0.0
C1517 C 0.45618 0.14666 0.71012 0.0
C1518 C 0.42306 0.1548 0.71207 0.0
C1519 C 0.43043 0.15491 0.74811 0.0
C1520 C 0.39914 0.14099 0.71539 0.0
C1521 C 0.38203 0.14578 0.70815 0.0
C1522 C 0.38852 0.16422 0.69724 0.0
C1523 C 0.41241 0.1776 0.69357 0.0
C1524 C 0.42952 0.17295 0.70096 0.0
H1525 H 0.43962 0.16035 0.76011 0.0
H1526 H 0.4268 0.16845 0.74295 0.0
H1527 H 0.41329 0.13935 0.74999 0.0
H1528 H 0.39371 0.12652 0.7236 0.0
H1529 H 0.36374 0.13505 0.71112 0.0
H1530 H 0.85442 0.38229 0.75492 0.0
H1531 H 0.84455 0.34501 0.74444 0.0
H1532 H 0.89367 0.37822 0.70655 0.0
H1533 H 0.90402 0.41542 0.71749 0.0
H1534 H 0.82626 0.32545 0.71547 0.0
H1535 H 0.91629 0.33589 0.72624 0.0
H1536 H 0.90755 0.35497 0.73434 0.0
H1537 H 0.91552 0.35787 0.71362 0.0
C1538 C 0.86298 0.38143 0.74435 0.0
C1539 C 0.87999 0.40142 0.73699 0.0
C1540 C 0.85738 0.36027 0.73836 0.0
C1541 C 0.8687 0.35882 0.72489 0.0
C1542 C 0.88514 0.37891 0.71719 0.0
H1543 H 0.85591 0.24379 0.67293 0.0
H1544 H 0.86374 0.28142 0.68094 0.0
C1545 C 0.89088 0.40007 0.72329 0.0
C1546 C 0.86337 0.33625 0.71905 0.0
H1547 H 0.88852 0.30326 0.71197 0.0
C1548 C 0.83986 0.32059 0.71474 0.0
C1549 C 0.88115 0.32989 0.71816 0.0
C1550 C 0.9065 0.34544 0.72348 0.0
C1551 C 0.83369 0.29882 0.70943 0.0
C1552 C 0.85148 0.29258 0.70848 0.0
C1553 C 0.87498 0.30823 0.71266 0.0
C1554 C 0.84599 0.26968 0.70346 0.0
C1555 C 0.80826 0.28268 0.70474 0.0
C1556 C 0.83354 0.25071 0.71355 0.0
C1557 C 0.82916 0.2292 0.70908 0.0
C1558 C 0.83711 0.2263 0.6944 0.0
C1559 C 0.84945 0.24539 0.68428 0.0
C1560 C 0.85398 0.26691 0.68883 0.0
H1561 H 0.79748 0.29143 0.70331 0.0
H1562 H 0.80706 0.27423 0.69327 0.0
H1563 H 0.80056 0.26927 0.71425 0.0
H1564 H 0.82749 0.2526 0.72499 0.0
H1565 H 0.81964 0.21488 0.71717 0.0
H1566 H 0.15604 0.93371 0.63592 0.0
H1567 H 0.18503 0.97078 0.64681 0.0
H1568 H 0.17077 1.00423 0.60558 0.0
H1569 H 0.14115 0.9672 0.59509 0.0
H1570 H 0.22542 1.00335 0.63429 0.0
H1571 H 0.1655 0.03889 0.64201 0.0
H1572 H 0.1547 0.00925 0.63814 0.0
H1573 H 0.16427 0.02985 0.62182 0.0
C1574 C 0.15887 0.94904 0.62938 0.0
C1575 C 0.14631 0.94767 0.61474 0.0
C1576 C 0.17553 0.97019 0.63552 0.0
C1577 C 0.1799 0.9904 0.62715 0.0
C1578 C 0.16739 0.98899 0.61246 0.0
H1579 H 0.30596 0.12244 0.64102 0.0
H1580 H 0.27577 0.08546 0.63104 0.0
C1581 C 0.15066 0.96785 0.60638 0.0
C1582 C 0.19809 0.01285 0.63351 0.0
H1583 H 0.20678 0.06486 0.64425 0.0
C1584 C 0.22131 0.01676 0.63654 0.0
C1585 C 0.19273 0.03031 0.63666 0.0
C1586 C 0.1679 0.02684 0.63465 0.0
C1587 C 0.23933 0.03767 0.64236 0.0
C1588 C 0.23417 0.05543 0.6449 0.0
C1589 C 0.21086 0.0514 0.64212 0.0
C1590 C 0.25251 0.07814 0.65078 0.0
C1591 C 0.2636 0.04031 0.64605 0.0
C1592 C 0.24924 0.08679 0.66492 0.0
C1593 C 0.26635 0.10807 0.67055 0.0
C1594 C 0.28718 0.12125 0.66218 0.0
C1595 C 0.29029 0.11268 0.64789 0.0
C1596 C 0.27308 0.09144 0.64221 0.0
H1597 H 0.26296 0.02358 0.64793 0.0
H1598 H 0.27496 0.04908 0.63572 0.0
H1599 H 0.27197 0.05057 0.65699 0.0
H1600 H 0.23351 0.07695 0.67172 0.0
H1601 H 0.26329 0.11408 0.68158 0.0
H1602 H 0.07318 0.22181 0.62984 0.0
H1603 H 0.03467 0.20963 0.64122 0.0
H1604 H 0.05165 0.27972 0.64481 0.0
H1605 H 0.0902 0.29181 0.63317 0.0
H1606 H 0.02305 0.21899 0.67044 0.0
H1607 H 0.98901 0.25164 0.61869 0.0
H1608 H 0.01551 0.24932 0.61781 0.0
H1609 H 0.0161 0.27239 0.62827 0.0
C1610 C 0.06864 0.23452 0.63321 0.0
C1611 C 0.08438 0.25766 0.63072 0.0
C1612 C 0.04675 0.22762 0.63967 0.0
C1613 C 0.04025 0.24378 0.64371 0.0
C1614 C 0.0562 0.26699 0.64152 0.0
H1615 H 0.91087 0.20398 0.69552 0.0
H1616 H 0.95248 0.22138 0.68881 0.0
C1617 C 0.07811 0.27389 0.63495 0.0
C1618 C 0.01651 0.23603 0.64983 0.0
H1619 H 0.9638 0.23435 0.64029 0.0
C1620 C 0.0101 0.22245 0.66394 0.0
C1621 C 0.99967 0.24043 0.64119 0.0
C1622 C 0.00526 0.25407 0.62557 0.0
C1623 C 0.98708 0.21274 0.66948 0.0
C1624 C 0.97025 0.21714 0.66082 0.0
C1625 C 0.97682 0.23112 0.64692 0.0
C1626 C 0.94528 0.20624 0.66529 0.0
C1627 C 0.98074 0.19715 0.68414 0.0
C1628 C 0.92751 0.19222 0.65421 0.0
C1629 C 0.90381 0.18247 0.65792 0.0
C1630 C 0.8974 0.18654 0.67281 0.0
C1631 C 0.91525 0.20037 0.684 0.0
C1632 C 0.93902 0.21027 0.68022 0.0
H1633 H 0.99405 0.19152 0.68716 0.0
H1634 H 0.97987 0.20628 0.69466 0.0
H1635 H 0.96319 0.1819 0.68225 0.0
H1636 H 0.932 0.1889 0.64262 0.0
H1637 H 0.89053 0.17187 0.64903 0.0
H1638 H 0.80859 0.87029 0.61475 0.0
H1639 H 0.81558 0.83794 0.62032 0.0
H1640 H 0.74077 0.79397 0.62528 0.0
H1641 H 0.73397 0.82664 0.61996 0.0
H1642 H 0.76774 0.79172 0.65152 0.0
H1643 H 0.8037 0.78254 0.59514 0.0
H1644 H 0.8185 0.81117 0.60216 0.0
H1645 H 0.78774 0.79822 0.59591 0.0
C1646 C 0.79368 0.85359 0.61674 0.0
C1647 C 0.7708 0.85079 0.61706 0.0
C1648 C 0.79761 0.83511 0.61979 0.0
C1649 C 0.77867 0.81347 0.62308 0.0
C1650 C 0.75562 0.81049 0.62268 0.0
H1651 H 0.80071 0.69599 0.64419 0.0
H1652 H 0.78573 0.72077 0.63243 0.0
C1653 C 0.7517 0.82902 0.61958 0.0
C1654 C 0.78336 0.79476 0.6287 0.0
H1655 H 0.81176 0.76564 0.61915 0.0
C1656 C 0.77705 0.78577 0.64434 0.0
C1657 C 0.79536 0.78688 0.6193 0.0
C1658 C 0.80152 0.79503 0.60213 0.0
C1659 C 0.78333 0.76988 0.65111 0.0
C1660 C 0.79653 0.76301 0.64206 0.0
C1661 C 0.8019 0.77117 0.62614 0.0
C1662 C 0.8056 0.74799 0.64914 0.0
C1663 C 0.77597 0.76072 0.66795 0.0
C1664 C 0.82197 0.75522 0.66229 0.0
C1665 C 0.8306 0.74116 0.66903 0.0
C1666 C 0.82304 0.71956 0.66273 0.0
C1667 C 0.80679 0.71245 0.64943 0.0
C1668 C 0.79824 0.72659 0.64265 0.0
H1669 H 0.76086 0.7628 0.67149 0.0
H1670 H 0.77095 0.74245 0.66899 0.0
H1671 H 0.79101 0.77017 0.67662 0.0
H1672 H 0.82819 0.77185 0.6673 0.0
H1673 H 0.84317 0.74725 0.6792 0.0
H1674 H 0.05801 0.87036 0.58887 0.0
H1675 H 0.02169 0.83664 0.5976 0.0
H1676 H 0.0603 0.82832 0.63899 0.0
H1677 H 0.09649 0.8617 0.63013 0.0
H1678 H 0.01156 0.78841 0.60715 0.0
H1679 H 0.00588 0.83818 0.65669 0.0
H1680 H 0.02325 0.85147 0.63922 0.0
H1681 H 0.03398 0.83931 0.655 0.0
C1682 C 0.05874 0.86094 0.59959 0.0
C1683 C 0.07989 0.86866 0.60894 0.0
C1684 C 0.03804 0.8418 0.60462 0.0
C1685 C 0.03823 0.83019 0.61908 0.0
C1686 C 0.05967 0.83719 0.62791 0.0
H1687 H 0.93415 0.72987 0.68208 0.0
H1688 H 0.96979 0.75874 0.66929 0.0
C1689 C 0.0803 0.8562 0.62287 0.0
C1690 C 0.0159 0.81171 0.62558 0.0
H1691 H 0.97877 0.79893 0.65663 0.0
C1692 C 0.00427 0.79068 0.61791 0.0
C1693 C 0.00646 0.81471 0.63964 0.0
C1694 C 0.01786 0.83717 0.6481 0.0
C1695 C 0.98379 0.77235 0.62421 0.0
C1696 C 0.97438 0.77532 0.63836 0.0
C1697 C 0.98594 0.79652 0.64586 0.0
C1698 C 0.95274 0.75677 0.64576 0.0
C1699 C 0.97294 0.7498 0.61593 0.0
C1700 C 0.93113 0.74595 0.63688 0.0
C1701 C 0.91072 0.72924 0.64415 0.0
C1702 C 0.91133 0.7232 0.66057 0.0
C1703 C 0.93297 0.73407 0.66944 0.0
C1704 C 0.9534 0.75062 0.66212 0.0
H1705 H 0.98587 0.74842 0.60846 0.0
H1706 H 0.9661 0.73545 0.62482 0.0
H1707 H 0.958 0.7481 0.6078 0.0
H1708 H 0.92989 0.75074 0.62438 0.0
H1709 H 0.89435 0.72139 0.63695 0.0
H1710 H 0.18587 0.29579 0.61519 0.0
H1711 H 0.21947 0.28837 0.61924 0.0
H1712 H 0.17081 0.21696 0.62622 0.0
H1713 H 0.13759 0.22434 0.62134 0.0
H1714 H 0.23084 0.27275 0.64602 0.0
H1715 H 0.21612 0.21337 0.59762 0.0
H1716 H 0.20083 0.22975 0.59755 0.0
H1717 H 0.18986 0.20321 0.60873 0.0
C1718 C 0.18256 0.27851 0.61718 0.0
C1719 C 0.15936 0.26061 0.61813 0.0
C1720 C 0.20164 0.27427 0.61956 0.0
C1721 C 0.19767 0.25206 0.62285 0.0
C1722 C 0.17437 0.23414 0.62331 0.0
H1723 H 0.27838 0.20668 0.68333 0.0
H1724 H 0.25308 0.22155 0.67149 0.0
C1725 C 0.15541 0.23836 0.62078 0.0
C1726 C 0.21756 0.24769 0.62742 0.0
H1727 H 0.23835 0.21091 0.62147 0.0
C1728 C 0.23278 0.25952 0.64045 0.0
C1729 C 0.22041 0.23072 0.62 0.0
C1730 C 0.20607 0.21875 0.60509 0.0
C1731 C 0.24991 0.25399 0.64682 0.0
C1732 C 0.2513 0.23564 0.64031 0.0
C1733 C 0.23698 0.22467 0.6267 0.0
C1734 C 0.26701 0.22712 0.64761 0.0
C1735 C 0.26626 0.26788 0.66046 0.0
C1736 C 0.28264 0.22453 0.63802 0.0
C1737 C 0.29667 0.21552 0.64466 0.0
C1738 C 0.29546 0.20907 0.66107 0.0
C1739 C 0.27986 0.21171 0.67069 0.0
C1740 C 0.26555 0.2204 0.66397 0.0
H1741 H 0.26857 0.28535 0.66015 0.0
H1742 H 0.25851 0.25979 0.67214 0.0
H1743 H 0.28392 0.26907 0.66001 0.0
H1744 H 0.28398 0.22946 0.62536 0.0
H1745 H 0.3086 0.21379 0.63694 0.0
H1746 H 0.79802 0.94436 0.6112 0.0
H1747 H 0.80875 0.98095 0.62325 0.0
H1748 H 0.76772 0.94556 0.66451 0.0
H1749 H 0.75664 0.909 0.65212 0.0
H1750 H 0.75779 0.97814 0.65273 0.0
H1751 H 0.85471 0.01424 0.66019 0.0
H1752 H 0.84414 1.00549 0.63991 0.0
H1753 H 0.83517 0.98462 0.65607 0.0
C1754 C 0.79157 0.9446 0.6229 0.0
C1755 C 0.77663 0.92418 0.63084 0.0
C1756 C 0.79781 0.96538 0.62984 0.0
C1757 C 0.78939 0.966 0.64493 0.0
C1758 C 0.77457 0.94548 0.65293 0.0
H1759 H 0.8358 0.09506 0.69365 0.0
H1760 H 0.82801 0.05662 0.68775 0.0
C1761 C 0.76827 0.92469 0.64592 0.0
C1762 C 0.7947 0.98804 0.65177 0.0
H1763 H 0.83986 0.04066 0.66127 0.0
C1764 C 0.77574 0.99171 0.65479 0.0
C1765 C 0.81811 1.00563 0.65471 0.0
C1766 C 0.83919 1.00224 0.65272 0.0
C1767 C 0.77955 0.0128 0.65998 0.0
C1768 C 0.80294 0.03084 0.66188 0.0
C1769 C 0.82193 0.02689 0.65959 0.0
C1770 C 0.80796 0.05416 0.66547 0.0
C1771 C 0.75845 0.0156 0.66329 0.0
C1772 C 0.79969 0.06564 0.65474 0.0
C1773 C 0.80404 0.08749 0.65806 0.0
C1774 C 0.81697 0.09845 0.67215 0.0
C1775 C 0.82572 0.0871 0.68273 0.0
C1776 C 0.8213 0.06515 0.67938 0.0
H1777 H 0.74279 0.99901 0.66609 0.0
H1778 H 0.76234 0.02713 0.67351 0.0
H1779 H 0.75378 0.023 0.65241 0.0
H1780 H 0.78987 0.0577 0.64373 0.0
H1781 H 0.79721 0.09575 0.64955 0.0
H1782 H 0.54277 0.39548 0.76423 0.0
H1783 H 0.51202 0.35964 0.75269 0.0
H1784 H 0.50215 0.39663 0.71198 0.0
H1785 H 0.53255 0.43256 0.72374 0.0
H1786 H 0.46271 0.35017 0.74392 0.0
H1787 H 0.51091 0.34411 0.69261 0.0
H1788 H 0.52605 0.36083 0.71017 0.0
H1789 H 0.51191 0.37094 0.69537 0.0
C1790 C 0.53401 0.39588 0.75282 0.0
C1791 C 0.53993 0.4167 0.74487 0.0
C1792 C 0.51655 0.37546 0.74622 0.0
C1793 C 0.50493 0.37548 0.73144 0.0
C1794 C 0.51111 0.39623 0.7233 0.0
H1795 H 0.3953 0.26544 0.67399 0.0
H1796 H 0.42638 0.30217 0.68379 0.0
C1797 C 0.52847 0.41669 0.72998 0.0
C1798 C 0.48561 0.35384 0.72493 0.0
H1799 H 0.47111 0.31587 0.69477 0.0
C1800 C 0.46451 0.34263 0.73318 0.0
C1801 C 0.48797 0.3442 0.71085 0.0
C1802 C 0.51044 0.35547 0.70171 0.0
C1803 C 0.44559 0.32206 0.72767 0.0
C1804 C 0.4481 0.31205 0.71378 0.0
C1805 C 0.46917 0.32345 0.70543 0.0
C1806 C 0.42919 0.28967 0.70784 0.0
C1807 C 0.42292 0.31157 0.73661 0.0
C1808 C 0.42061 0.27028 0.71798 0.0
C1809 C 0.40269 0.24932 0.71247 0.0
C1810 C 0.39318 0.24715 0.69657 0.0
C1811 C 0.40215 0.26648 0.68631 0.0
C1812 C 0.41996 0.28751 0.6919 0.0
H1813 H 0.42125 0.32445 0.7435 0.0
H1814 H 0.40725 0.3032 0.72821 0.0
H1815 H 0.42282 0.29859 0.74537 0.0
H1816 H 0.42788 0.27131 0.73018 0.0
H1817 H 0.39645 0.23476 0.72065 0.0
H1818 H 0.57565 0.08167 0.74559 0.0
H1819 H 0.60969 0.08259 0.7333 0.0
H1820 H 0.65651 0.14223 0.76048 0.0
H1821 H 0.62237 0.14074 0.77303 0.0
H1822 H 0.63799 0.11666 0.71402 0.0
H1823 H 0.69202 0.10705 0.76467 0.0
H1824 H 0.66171 0.10027 0.76677 0.0
H1825 H 0.68507 0.12925 0.76794 0.0
C1826 C 0.59334 0.09442 0.74927 0.0
C1827 C 0.59668 0.11107 0.76021 0.0
C1828 C 0.61269 0.09506 0.74222 0.0
C1829 C 0.63567 0.11243 0.74601 0.0
C1830 C 0.63903 0.12839 0.75763 0.0
H1831 H 0.75537 0.16986 0.68411 0.0
H1832 H 0.71865 0.16014 0.6973 0.0
C1833 C 0.61963 0.12757 0.76479 0.0
C1834 C 0.65567 0.11533 0.73652 0.0
H1835 H 0.71149 0.12235 0.73987 0.0
C1836 C 0.65397 0.11764 0.71965 0.0
C1837 C 0.67644 0.11649 0.74386 0.0
C1838 C 0.67886 0.11291 0.76179 0.0
C1839 C 0.67264 0.12148 0.70996 0.0
C1840 C 0.69379 0.12363 0.71737 0.0
C1841 C 0.69533 0.1209 0.7342 0.0
C1842 C 0.71459 0.12856 0.70798 0.0
C1843 C 0.66939 0.12292 0.69188 0.0
C1844 C 0.72446 0.11406 0.70957 0.0
C1845 C 0.74549 0.11972 0.70226 0.0
C1846 C 0.75704 0.13996 0.69312 0.0
C1847 C 0.74665 0.15401 0.6909 0.0
C1848 C 0.72567 0.14845 0.69842 0.0
H1849 H 0.65039 0.11432 0.68798 0.0
H1850 H 0.67718 0.14103 0.68802 0.0
H1851 H 0.67831 0.11516 0.68559 0.0
H1852 H 0.71619 0.09861 0.71685 0.0
H1853 H 0.75306 0.10852 0.70413 0.0
H1854 H 0.9265 0.49975 0.75028 0.0
H1855 H 0.92446 0.53493 0.74485 0.0
H1856 H 0.84914 0.49543 0.73568 0.0
H1857 H 0.85112 0.46055 0.74203 0.0
H1858 H 0.91216 0.54838 0.71758 0.0
H1859 H 0.8514 0.54309 0.76359 0.0
H1860 H 0.86468 0.5249 0.7643 0.0
H1861 H 0.83838 0.51784 0.75188 0.0
C1862 C 0.9095 0.49876 0.74748 0.0
C1863 C 0.88898 0.47756 0.74647 0.0
C1864 C 0.90833 0.51878 0.74428 0.0
C1865 C 0.8866 0.5179 0.74003 0.0
C1866 C 0.86603 0.49666 0.7393 0.0
H1867 H 0.86222 0.61246 0.67993 0.0
H1868 H 0.87019 0.58273 0.69139 0.0
C1869 C 0.86719 0.47672 0.74268 0.0
C1870 C 0.88557 0.53894 0.73516 0.0
H1871 H 0.85519 0.56758 0.74054 0.0
C1872 C 0.89993 0.55275 0.72277 0.0
C1873 C 0.86995 0.54495 0.74209 0.0
C1874 C 0.85545 0.53203 0.75632 0.0
C1875 C 0.8984 0.5718 0.71667 0.0
C1876 C 0.88151 0.5768 0.72278 0.0
C1877 C 0.86787 0.56357 0.73564 0.0
C1878 C 0.87726 0.59527 0.71576 0.0
C1879 C 0.91505 0.58642 0.70382 0.0
C1880 C 0.87781 0.61187 0.7257 0.0
C1881 C 0.87279 0.62867 0.71922 0.0
C1882 C 0.86723 0.62927 0.70264 0.0
C1883 C 0.86676 0.61268 0.69271 0.0
C1884 C 0.87148 0.59574 0.69923 0.0
H1885 H 0.93157 0.58518 0.70456 0.0
H1886 H 0.90644 0.58045 0.69176 0.0
H1887 H 0.91978 0.60453 0.70485 0.0
H1888 H 0.88207 0.6118 0.73851 0.0
H1889 H 0.87328 0.64117 0.72722 0.0
H1890 H 0.49694 0.99318 0.26303 0.0
H1891 H 0.5121 1.00456 0.23582 0.0
H1892 H 0.5056 0.93842 0.22983 0.0
H1893 H 0.48952 0.92684 0.2568 0.0
H1894 H 0.5495 1.00651 0.21966 0.0
H1895 H 0.46293 0.9421 0.19322 0.0
H1896 H 0.46712 0.94942 0.21423 0.0
H1897 H 0.47716 0.93088 0.20709 0.0
C1898 C 0.4991 0.98128 0.25592 0.0
C1899 C 0.49201 0.95917 0.26185 0.0
C1900 C 0.50778 0.98775 0.24045 0.0
C1901 C 0.50952 0.97218 0.23069 0.0
C1902 C 0.50396 0.95055 0.23705 0.0
H1903 H 0.5334 0.98331 0.12716 0.0
H1904 H 0.52988 0.97102 0.15554 0.0
C1905 C 0.4951 0.94404 0.2525 0.0
C1906 C 0.51549 0.97815 0.21354 0.0
H1907 H 0.49245 0.96445 0.17506 0.0
C1908 C 0.53711 0.99723 0.2099 0.0
C1909 C 0.49922 0.96607 0.20082 0.0
C1910 C 0.47522 0.9461 0.20397 0.0
C1911 C 0.54283 1.00465 0.19388 0.0
C1912 C 0.52637 0.99281 0.18122 0.0
C1913 C 0.50504 0.97341 0.18482 0.0
C1914 C 0.53022 1.00097 0.16422 0.0
C1915 C 0.56637 0.02512 0.19061 0.0
C1916 C 0.53141 0.02182 0.15971 0.0
C1917 C 0.53314 0.02877 0.1435 0.0
C1918 C 0.53365 0.01499 0.13146 0.0
C1919 C 0.53275 0.99421 0.13608 0.0
C1920 C 0.53092 0.98723 0.1523 0.0
H1921 H 0.5793 0.02846 0.2009 0.0
H1922 H 0.57384 0.02289 0.17955 0.0
H1923 H 0.56395 0.04029 0.18873 0.0
H1924 H 0.53033 0.03242 0.16868 0.0
H1925 H 0.53334 0.04465 0.14038 0.0
H1926 H 0.07011 0.51621 0.26119 0.0
H1927 H 0.05059 0.50062 0.23487 0.0
H1928 H 0.11255 0.55061 0.21089 0.0
H1929 H 0.1318 0.56609 0.23714 0.0
H1930 H 0.04337 0.52955 0.21109 0.0
H1931 H 0.09343 0.4908 0.18696 0.0
H1932 H 0.09324 0.49527 0.20825 0.0
H1933 H 0.11142 0.51857 0.19518 0.0
C1934 C 0.07968 0.52327 0.25026 0.0
C1935 C 0.10236 0.54217 0.25101 0.0
C1936 C 0.06857 0.51451 0.2353 0.0
C1937 C 0.08021 0.52435 0.22094 0.0
C1938 C 0.1034 0.54251 0.2218 0.0
H1939 H 0.05166 0.52683 0.11899 0.0
H1940 H 0.06827 0.52984 0.14649 0.0
C1941 C 0.11436 0.55136 0.23673 0.0
C1942 C 0.06735 0.51771 0.20507 0.0
H1943 H 0.06902 0.49861 0.16802 0.0
C1944 C 0.04868 0.52244 0.20173 0.0
C1945 C 0.07456 0.50872 0.19287 0.0
C1946 C 0.09414 0.50284 0.19598 0.0
C1947 C 0.03764 0.51929 0.18629 0.0
C1948 C 0.04504 0.51056 0.17397 0.0
C1949 C 0.06334 0.50529 0.17745 0.0
C1950 C 0.03477 0.50781 0.1572 0.0
C1951 C 0.01897 0.52643 0.18316 0.0
C1952 C 0.01043 0.49411 0.15399 0.0
C1953 C 1.00078 0.4927 0.1383 0.0
C1954 C 0.01531 0.5047 0.12541 0.0
C1955 C 0.03982 0.51777 0.12863 0.0
C1956 C 0.04941 0.51932 0.14434 0.0
H1957 H 0.01987 0.53821 0.19247 0.0
H1958 H 0.02077 0.5349 0.17114 0.0
H1959 H 1.00124 0.51118 0.18345 0.0
H1960 H 0.99884 0.48467 0.16366 0.0
H1961 H 0.98184 0.48258 0.13636 0.0
H1962 H 0.432 0.56704 0.23093 0.0
H1963 H 0.4327 0.54964 0.20577 0.0
H1964 H 0.45101 0.50396 0.23302 0.0
H1965 H 0.45024 0.52153 0.25822 0.0
H1966 H 0.48294 0.53007 0.20898 0.0
H1967 H 0.39084 0.48832 0.18369 0.0
H1968 H 0.40128 0.51689 0.19006 0.0
H1969 H 0.39808 0.49527 0.20477 0.0
C1970 C 0.43534 0.55275 0.23149 0.0
C1971 C 0.44087 0.54541 0.24638 0.0
C1972 C 0.43573 0.54281 0.21716 0.0
C1973 C 0.44174 0.52537 0.21749 0.0
C1974 C 0.44616 0.51727 0.23248 0.0
H1975 H 0.45579 0.46166 0.13165 0.0
H1976 H 0.44476 0.46778 0.15803 0.0
C1977 C 0.44556 0.52714 0.24684 0.0
C1978 C 0.44622 0.51771 0.20218 0.0
H1979 H 0.42111 0.4955 0.16538 0.0
C1980 C 0.46934 0.52223 0.19953 0.0
C1981 C 0.42849 0.50748 0.18985 0.0
C1982 C 0.40321 0.50149 0.19224 0.0
C1983 C 0.47536 0.51756 0.18472 0.0
C1984 C 0.45786 0.5082 0.17217 0.0
C1985 C 0.43455 0.50288 0.17498 0.0
C1986 C 0.46373 0.50442 0.15595 0.0
C1987 C 0.50048 0.52287 0.1825 0.0
C1988 C 0.47777 0.523 0.14595 0.0
C1989 C 0.48403 0.51957 0.13088 0.0
C1990 C 0.47647 0.49748 0.12551 0.0
C1991 C 0.46212 0.47888 0.13549 0.0
C1992 C 0.45569 0.48234 0.15052 0.0
H1993 H 0.51062 0.52563 0.1942 0.0
H1994 H 0.50089 0.50889 0.17616 0.0
H1995 H 0.50947 0.53856 0.17497 0.0
H1996 H 0.48404 0.54018 0.14988 0.0
H1997 H 0.49525 0.53426 0.12358 0.0
H1998 H 0.94575 0.46815 0.77259 0.0
H1999 H 0.96099 0.4839 0.79945 0.0
H2000 H 0.89432 0.48037 0.80835 0.0
H2001 H 0.87893 0.46395 0.78156 0.0
H2002 H 0.9659 0.52167 0.81565 0.0
H2003 H 0.90134 0.44039 0.84456 0.0
H2004 H 0.90658 0.44297 0.82328 0.0
H2005 H 0.8888 0.45376 0.83116 0.0
C2006 C 0.93453 0.47099 0.78028 0.0
C2007 C 0.91116 0.46463 0.77526 0.0
C2008 C 0.94321 0.48003 0.79554 0.0
C2009 C 0.92862 0.48285 0.80601 0.0
C2010 C 0.90571 0.4779 0.80057 0.0
H2011 H 0.95561 0.51232 0.9092 0.0
H2012 H 0.93812 0.50606 0.88172 0.0
C2013 C 0.89701 0.46878 0.78528 0.0
C2014 C 0.93703 0.4895 0.82291 0.0
H2015 H 0.9279 0.46932 0.86181 0.0
C2016 C 0.9575 0.51032 0.82576 0.0
C2017 C 0.92606 0.4746 0.83608 0.0
C2018 C 0.90459 0.45159 0.83369 0.0
C2019 C 0.96745 0.51654 0.84142 0.0
C2020 C 0.95682 0.50139 0.85451 0.0
C2021 C 0.93598 0.48089 0.85173 0.0
C2022 C 0.9677 0.50589 0.87106 0.0
C2023 C 0.98929 0.53924 0.84382 0.0
C2024 C 0.98996 0.50749 0.87419 0.0
C2025 C 0.99991 0.51083 0.88988 0.0
C2026 C 0.98774 0.51256 0.90278 0.0
C2027 C 0.96535 0.51082 0.89959 0.0
C2028 C 0.9554 0.50741 0.88389 0.0
H2029 H 0.99131 0.55126 0.83364 0.0
H2030 H 0.98884 0.54699 0.85523 0.0
H2031 H 0.00509 0.53682 0.8445 0.0
H2032 H 0.9995 0.50578 0.86452 0.0
H2033 H 0.01695 0.51165 0.89193 0.0
H2034 H 0.58762 0.45458 0.79922 0.0
H2035 H 0.58245 0.46753 0.82507 0.0
H2036 H 0.56704 0.51647 0.79977 0.0
H2037 H 0.5719 0.50308 0.77386 0.0
H2038 H 0.59985 0.50831 0.84183 0.0
H2039 H 0.50545 0.47418 0.82209 0.0
H2040 H 0.52563 0.46895 0.81126 0.0
H2041 H 0.52629 0.49592 0.80916 0.0
C2042 C 0.58405 0.46871 0.7993 0.0
C2043 C 0.58021 0.47794 0.78467 0.0
C2044 C 0.58093 0.476 0.81402 0.0
C2045 C 0.5738 0.4926 0.81437 0.0
C2046 C 0.57211 0.50333 0.79979 0.0
H2047 H 0.513 0.52606 0.89355 0.0
H2048 H 0.52978 0.52595 0.86793 0.0
C2049 C 0.57523 0.49598 0.78503 0.0
C2050 C 0.5658 0.49674 0.82973 0.0
H2051 H 0.51656 0.48947 0.84802 0.0
C2052 C 0.58168 0.50436 0.84316 0.0
C2053 C 0.54201 0.49136 0.83153 0.0
C2054 C 0.52375 0.48196 0.81782 0.0
C2055 C 0.57445 0.50679 0.85829 0.0
C2056 C 0.55059 0.50109 0.86012 0.0
C2057 C 0.53484 0.49388 0.84662 0.0
C2058 C 0.54133 0.5018 0.87599 0.0
C2059 C 0.59245 0.51556 0.87216 0.0
C2060 C 0.54197 0.48808 0.88905 0.0
C2061 C 0.53218 0.48794 0.9037 0.0
C2062 C 0.52138 0.50143 0.90562 0.0
C2063 C 0.52083 0.51519 0.89249 0.0
C2064 C 0.53059 0.51529 0.87784 0.0
H2065 H 0.61075 0.52505 0.86785 0.0
H2066 H 0.58934 0.52685 0.87984 0.0
H2067 H 0.59103 0.50098 0.87974 0.0
H2068 H 0.54961 0.47708 0.88781 0.0
H2069 H 0.53261 0.47684 0.91341 0.0
H2070 H 0.56696 0.07264 0.78379 0.0
H2071 H 0.56753 0.05462 0.81008 0.0
H2072 H 0.58915 0.11806 0.83344 0.0
H2073 H 0.58841 0.13593 0.80712 0.0
H2074 H 0.60005 0.06421 0.83919 0.0
H2075 H 0.5202 0.07296 0.84739 0.0
H2076 H 0.53313 0.07692 0.82803 0.0
H2077 H 0.54662 0.0988 0.84278 0.0
C2078 C 0.57277 0.08286 0.79451 0.0
C2079 C 0.57746 0.1055 0.79363 0.0
C2080 C 0.57302 0.0726 0.80948 0.0
C2081 C 0.57801 0.08495 0.82368 0.0
C2082 C 0.58505 0.10822 0.82261 0.0
H2083 H 0.57105 0.03694 0.92354 0.0
H2084 H 0.5851 0.05618 0.89756 0.0
C2085 C 0.5847 0.11842 0.80766 0.0
C2086 C 0.57214 0.07281 0.83944 0.0
H2087 H 0.53202 0.0563 0.86886 0.0
C2088 C 0.58527 0.06252 0.84576 0.0
C2089 C 0.55255 0.07033 0.84777 0.0
C2090 C 0.53713 0.08015 0.84114 0.0
C2091 C 0.5794 0.04993 0.86036 0.0
C2092 C 0.56002 0.04778 0.86878 0.0
C2093 C 0.5469 0.05803 0.86238 0.0
C2094 C 0.55259 0.03476 0.88417 0.0
C2095 C 0.59359 0.03864 0.86647 0.0
C2096 C 0.52963 0.01642 0.88527 0.0
C2097 C 0.52143 1.0056 0.90011 0.0
C2098 C 0.53602 0.013 0.91418 0.0
C2099 C 0.55928 0.03099 0.91296 0.0
C2100 C 0.56746 0.04182 0.89809 0.0
H2101 H 0.60412 0.03739 0.85685 0.0
H2102 H 0.606 0.04878 0.87637 0.0
H2103 H 0.58189 0.02132 0.87135 0.0
H2104 H 0.51782 0.01084 0.87467 0.0
H2105 H 0.50336 0.99203 0.90064 0.0
H2106 H 0.1442 0.25249 0.58473 0.0
H2107 H 0.16137 0.26585 0.55818 0.0
H2108 H 0.16763 0.33143 0.56632 0.0
H2109 H 0.1513 0.31823 0.59304 0.0
H2110 H 0.14168 0.27936 0.53361 0.0
H2111 H 0.23113 0.34967 0.54839 0.0
H2112 H 0.21327 0.32892 0.56329 0.0
H2113 H 0.20864 0.35269 0.55786 0.0
C2114 C 0.14992 0.26992 0.58095 0.0
C2115 C 0.14665 0.28445 0.59082 0.0
C2116 C 0.15956 0.2775 0.56581 0.0
C2117 C 0.1661 0.29974 0.56035 0.0
C2118 C 0.16328 0.3144 0.57041 0.0
H2119 H 0.19042 0.37448 0.4713 0.0
H2120 H 0.18488 0.36031 0.49921 0.0
C2121 C 0.15376 0.30684 0.58556 0.0
C2122 C 0.17364 0.30698 0.54359 0.0
H2123 H 0.21597 0.34951 0.52119 0.0
C2124 C 0.15811 0.29448 0.53088 0.0
C2125 C 0.19508 0.32673 0.54006 0.0
C2126 C 0.21309 0.34014 0.55313 0.0
C2127 C 0.16295 0.30173 0.51477 0.0
C2128 C 0.18397 0.3219 0.51129 0.0
C2129 C 0.19983 0.33409 0.52394 0.0
C2130 C 0.18911 0.33116 0.49464 0.0
C2131 C 0.14513 0.28829 0.5016 0.0
C2132 C 0.19378 0.31966 0.48293 0.0
C2133 C 0.19714 0.32779 0.46698 0.0
C2134 C 0.19587 0.34758 0.46246 0.0
C2135 C 0.19179 0.35935 0.47437 0.0
C2136 C 0.18852 0.35124 0.49032 0.0
H2137 H 0.12807 0.27529 0.5065 0.0
H2138 H 0.14176 0.29976 0.49316 0.0
H2139 H 0.15225 0.27948 0.49459 0.0
H2140 H 0.1946 0.30427 0.48612 0.0
H2141 H 0.20067 0.31854 0.45818 0.0
H2142 H 0.77256 0.86413 0.58229 0.0
H2143 H 0.7536 0.84899 0.55585 0.0
H2144 H 0.68787 0.84135 0.57178 0.0
H2145 H 0.7067 0.85573 0.59834 0.0
H2146 H 0.68149 0.8063 0.55174 0.0
H2147 H 0.74053 0.89136 0.52524 0.0
H2148 H 0.75575 0.87799 0.53563 0.0
H2149 H 0.73806 0.8861 0.54672 0.0
C2150 C 0.75391 0.85854 0.58022 0.0
C2151 C 0.74106 0.86128 0.59214 0.0
C2152 C 0.74316 0.85016 0.56512 0.0
C2153 C 0.71948 0.84459 0.56173 0.0
C2154 C 0.7062 0.84573 0.57408 0.0
H2155 H 0.6611 0.85104 0.46651 0.0
H2156 H 0.67219 0.85469 0.49526 0.0
C2157 C 0.71693 0.854 0.58918 0.0
C2158 C 0.70909 0.83953 0.54504 0.0
H2159 H 0.71506 0.86292 0.50711 0.0
C2160 C 0.68881 0.81863 0.54195 0.0
C2161 C 0.71838 0.85586 0.53238 0.0
C2162 C 0.73923 0.87917 0.53512 0.0
C2163 C 0.67777 0.8135 0.52646 0.0
C2164 C 0.6875 0.8296 0.51371 0.0
C2165 C 0.70764 0.85056 0.51687 0.0
C2166 C 0.67738 0.82524 0.4969 0.0
C2167 C 0.65554 0.79113 0.52399 0.0
C2168 C 0.67603 0.80714 0.48831 0.0
C2169 C 0.66935 0.80482 0.47189 0.0
C2170 C 0.6642 0.82074 0.46365 0.0
C2171 C 0.66463 0.8383 0.47246 0.0
C2172 C 0.67119 0.84053 0.4889 0.0
H2173 H 0.64669 0.78388 0.53554 0.0
H2174 H 0.64286 0.79303 0.51534 0.0
H2175 H 0.66012 0.77881 0.51902 0.0
H2176 H 0.68109 0.79534 0.49412 0.0
H2177 H 0.66896 0.79095 0.46553 0.0
H2178 H 0.11137 0.8572 0.58934 0.0
H2179 H 0.11153 0.83906 0.56427 0.0
H2180 H 0.10033 0.8889 0.53644 0.0
H2181 H 0.09969 0.90657 0.56148 0.0
H2182 H 0.07613 0.84549 0.52305 0.0
H2183 H 0.17061 0.87154 0.53748 0.0
H2184 H 0.15043 0.85357 0.55241 0.0
H2185 H 0.1545 0.88169 0.54852 0.0
C2186 C 0.1082 0.86373 0.57785 0.0
C2187 C 0.10564 0.88327 0.57722 0.0
C2188 C 0.10858 0.85359 0.56355 0.0
C2189 C 0.10651 0.86296 0.54845 0.0
C2190 C 0.10212 0.88145 0.54792 0.0
H2191 H 0.13208 0.85716 0.44807 0.0
H2192 H 0.11915 0.86301 0.47369 0.0
C2193 C 0.10172 0.89151 0.56217 0.0
C2194 C 0.11089 0.85495 0.53324 0.0
H2195 H 0.15415 0.85238 0.5132 0.0
C2196 C 0.09313 0.84685 0.52092 0.0
C2197 C 0.13316 0.85691 0.5304 0.0
C2198 C 0.15338 0.86657 0.54281 0.0
C2199 C 0.09701 0.84059 0.5059 0.0
C2200 C 0.11938 0.84284 0.50301 0.0
C2201 C 0.13698 0.85059 0.51542 0.0
C2202 C 0.12529 0.83794 0.48711 0.0
C2203 C 0.07707 0.83147 0.49329 0.0
C2204 C 0.13325 0.82203 0.48608 0.0
C2205 C 0.14069 0.81866 0.47144 0.0
C2206 C 0.14055 0.83127 0.45747 0.0
C2207 C 0.13213 0.84691 0.45848 0.0
C2208 C 0.12469 0.85026 0.47314 0.0
H2209 H 0.05961 0.82475 0.49877 0.0
H2210 H 0.07925 0.8454 0.48471 0.0
H2211 H 0.07712 0.81776 0.48637 0.0
H2212 H 0.13393 0.81235 0.49668 0.0
H2213 H 0.14669 0.80623 0.4711 0.0
H2214 H 0.54398 0.79573 0.11241 0.0
H2215 H 0.55916 0.81307 0.13898 0.0
H2216 H 0.62417 0.81194 0.13242 0.0
H2217 H 0.60906 0.79499 0.10588 0.0
H2218 H 0.57203 0.79205 0.16437 0.0
H2219 H 0.64744 0.87587 0.14912 0.0
H2220 H 0.62426 0.85916 0.13452 0.0
H2221 H 0.64799 0.85293 0.13931 0.0
C2222 C 0.56169 0.79976 0.11659 0.0
C2223 C 0.57548 0.79417 0.1073 0.0
C2224 C 0.5703 0.80953 0.1317 0.0
C2225 C 0.59289 0.81403 0.13756 0.0
C2226 C 0.6069 0.80905 0.12799 0.0
H2227 H 0.67869 0.84073 0.22336 0.0
H2228 H 0.65999 0.83339 0.1963 0.0
C2229 C 0.59826 0.79924 0.11295 0.0
C2230 C 0.6011 0.82181 0.15425 0.0
H2231 H 0.64774 0.86183 0.17625 0.0
C2232 C 0.58834 0.80753 0.16703 0.0
C2233 C 0.62239 0.84197 0.15762 0.0
C2234 C 0.6362 0.85848 0.14442 0.0
C2235 C 0.59702 0.81223 0.18307 0.0
C2236 C 0.61882 0.83192 0.18637 0.0
C2237 C 0.63108 0.84668 0.17365 0.0
C2238 C 0.62997 0.83673 0.2028 0.0
C2239 C 0.58341 0.79554 0.19625 0.0
C2240 C 0.61932 0.84116 0.21538 0.0
C2241 C 0.62999 0.8454 0.23088 0.0
C2242 C 0.65158 0.84543 0.234 0.0
C2243 C 0.66222 0.8411 0.22131 0.0
C2244 C 0.65153 0.83684 0.20586 0.0
H2245 H 0.56938 0.77916 0.19134 0.0
H2246 H 0.59545 0.79211 0.20453 0.0
H2247 H 0.57489 0.80286 0.20342 0.0
H2248 H 0.60286 0.84151 0.21318 0.0
H2249 H 0.62155 0.84903 0.24035 0.0
H2250 H 0.24856 0.78332 0.13204 0.0
H2251 H 0.24499 0.79748 0.15786 0.0
H2252 H 0.23414 0.84916 0.13246 0.0
H2253 H 0.23729 0.83454 0.10657 0.0
H2254 H 0.26579 0.83864 0.17426 0.0
H2255 H 0.17218 0.81115 0.15547 0.0
H2256 H 0.19056 0.80369 0.14446 0.0
H2257 H 0.19373 0.8317 0.14229 0.0
C2258 C 0.24619 0.79816 0.13208 0.0
C2259 C 0.24313 0.80786 0.11744 0.0
C2260 C 0.24404 0.80619 0.14678 0.0
C2261 C 0.23872 0.82404 0.1471 0.0
C2262 C 0.23777 0.83507 0.13249 0.0
H2263 H 0.18666 0.86598 0.22686 0.0
H2264 H 0.20185 0.86393 0.20105 0.0
C2265 C 0.2399 0.82698 0.11775 0.0
C2266 C 0.23195 0.82939 0.1625 0.0
H2267 H 0.18496 0.82661 0.18127 0.0
C2268 C 0.24818 0.83618 0.17576 0.0
C2269 C 0.20887 0.82597 0.16453 0.0
C2270 C 0.19021 0.81754 0.15101 0.0
C2271 C 0.24197 0.83966 0.19095 0.0
C2272 C 0.21879 0.83589 0.19301 0.0
C2273 C 0.20273 0.82953 0.17968 0.0
C2274 C 0.21051 0.83773 0.20897 0.0
C2275 C 0.26033 0.84745 0.20464 0.0
C2276 C 0.21007 0.82351 0.222 0.0
C2277 C 0.20118 0.82448 0.23676 0.0
C2278 C 0.1924 0.83963 0.23881 0.0
C2279 C 0.19293 0.85388 0.2257 0.0
C2280 C 0.20179 0.85286 0.21095 0.0
H2281 H 0.27853 0.85558 0.20015 0.0
H2282 H 0.2587 0.85967 0.21231 0.0
H2283 H 0.25774 0.83254 0.21229 0.0
H2284 H 0.21614 0.81128 0.22066 0.0
H2285 H 0.2007 0.81298 0.24646 0.0
H2286 H 0.24933 0.46016 0.13491 0.0
H2287 H 0.25244 0.44428 0.16154 0.0
H2288 H 0.228 0.37888 0.14028 0.0
H2289 H 0.22562 0.39516 0.11362 0.0
H2290 H 0.21245 0.41221 0.17411 0.0
H2291 H 0.27628 0.37972 0.17406 0.0
H2292 H 0.27614 0.40011 0.1592 0.0
H2293 H 0.25549 0.37036 0.15715 0.0
C2294 C 0.24565 0.44267 0.13596 0.0
C2295 C 0.23735 0.42878 0.12244 0.0
C2296 C 0.24732 0.43358 0.15109 0.0
C2297 C 0.24052 0.4104 0.15292 0.0
C2298 C 0.23383 0.39689 0.13915 0.0
H2299 H 0.16707 0.32437 0.23274 0.0
H2300 H 0.18076 0.3422 0.20638 0.0
C2301 C 0.2324 0.40611 0.12396 0.0
C2302 C 0.23639 0.3997 0.16926 0.0
H2303 H 0.24789 0.36482 0.1949 0.0
C2304 C 0.22047 0.4021 0.17871 0.0
C2305 C 0.24684 0.38652 0.17527 0.0
C2306 C 0.26482 0.38418 0.16596 0.0
C2307 C 0.21426 0.39125 0.19381 0.0
C2308 C 0.22386 0.37725 0.19951 0.0
C2309 C 0.24033 0.37534 0.19035 0.0
C2310 C 0.21662 0.36445 0.21495 0.0
C2311 C 0.19737 0.39479 0.20355 0.0
C2312 C 0.23251 0.37055 0.22833 0.0
C2313 C 0.22478 0.3603 0.24342 0.0
C2314 C 0.20104 0.34372 0.24533 0.0
C2315 C 0.18548 0.33694 0.23168 0.0
C2316 C 0.19323 0.34721 0.21663 0.0
H2317 H 0.19595 0.40996 0.19925 0.0
H2318 H 0.17954 0.37972 0.20243 0.0
H2319 H 0.20303 0.3968 0.21652 0.0
H2320 H 0.25066 0.38379 0.22722 0.0
H2321 H 0.23728 0.36563 0.25365 0.0
H2322 H 0.8101 0.58765 0.91408 0.0
H2323 H 0.82726 0.60195 0.88767 0.0
H2324 H 0.83609 0.66791 0.89803 0.0
H2325 H 0.8197 0.65372 0.92465 0.0
H2326 H 0.80698 0.61736 0.86447 0.0
H2327 H 0.8985 0.68481 0.87835 0.0
H2328 H 0.88085 0.66369 0.89314 0.0
H2329 H 0.87691 0.6881 0.88882 0.0
C2330 C 0.81647 0.60537 0.91086 0.0
C2331 C 0.81378 0.6197 0.92128 0.0
C2332 C 0.82609 0.61348 0.89578 0.0
C2333 C 0.8332 0.63606 0.89095 0.0
C2334 C 0.83123 0.65059 0.90163 0.0
H2335 H 0.86045 0.71296 0.80196 0.0
H2336 H 0.85471 0.69907 0.82999 0.0
C2337 C 0.8217 0.64248 0.91672 0.0
C2338 C 0.84013 0.6437 0.87416 0.0
H2339 H 0.88291 0.68529 0.85149 0.0
C2340 C 0.82373 0.63201 0.86161 0.0
C2341 C 0.86192 0.66289 0.87049 0.0
C2342 C 0.88065 0.67547 0.88341 0.0
C2343 C 0.82819 0.63943 0.84551 0.0
C2344 C 0.84977 0.6589 0.84188 0.0
C2345 C 0.86637 0.67039 0.85437 0.0
C2346 C 0.85498 0.6679 0.82518 0.0
C2347 C 0.80946 0.62687 0.83258 0.0
C2348 C 0.8575 0.65515 0.81332 0.0
C2349 C 0.86084 0.66304 0.79733 0.0
C2350 C 0.8618 0.68389 0.79294 0.0
C2351 C 0.85997 0.69693 0.80497 0.0
C2352 C 0.85663 0.68901 0.82097 0.0
H2353 H 0.79208 0.61519 0.83773 0.0
H2354 H 0.80729 0.63897 0.82405 0.0
H2355 H 0.8149 0.61662 0.82561 0.0
H2356 H 0.85664 0.63897 0.81642 0.0
H2357 H 0.86267 0.65281 0.7884 0.0
H2358 H 0.38853 0.19165 0.92353 0.0
H2359 H 0.37445 0.17907 0.89585 0.0
H2360 H 0.44493 0.19494 0.88415 0.0
H2361 H 0.45897 0.20787 0.91189 0.0
H2362 H 0.42593 0.21593 0.86373 0.0
H2363 H 0.36215 0.12424 0.86965 0.0
H2364 H 0.35687 0.14123 0.88315 0.0
H2365 H 0.38388 0.13976 0.88538 0.0
C2366 C 0.40079 0.19191 0.91508 0.0
C2367 C 0.42474 0.2007 0.91965 0.0
C2368 C 0.39276 0.1846 0.89935 0.0
C2369 C 0.40859 0.18587 0.88796 0.0
C2370 C 0.43239 0.19367 0.89277 0.0
H2371 H 0.36227 0.14654 0.78714 0.0
H2372 H 0.38047 0.14968 0.81432 0.0
C2373 C 0.44038 0.20092 0.90856 0.0
C2374 C 0.40081 0.18171 0.8707 0.0
H2375 H 0.35863 0.14309 0.84513 0.0
C2376 C 0.41146 0.19988 0.85962 0.0
C2377 C 0.38204 0.16074 0.8653 0.0
C2378 C 0.37072 0.14031 0.87647 0.0
C2379 C 0.40312 0.19798 0.84348 0.0
C2380 C 0.38347 0.17745 0.83833 0.0
C2381 C 0.37353 0.1589 0.84918 0.0
C2382 C 0.37238 0.17535 0.82193 0.0
C2383 C 0.41522 0.21807 0.83211 0.0
C2384 C 0.36158 0.18854 0.8173 0.0
C2385 C 0.3512 0.18679 0.80185 0.0
C2386 C 0.35139 0.17179 0.79068 0.0
C2387 C 0.36207 0.15844 0.7954 0.0
C2388 C 0.37235 0.16011 0.81093 0.0
H2389 H 0.43338 0.23012 0.83664 0.0
H2390 H 0.4162 0.21248 0.81993 0.0
H2391 H 0.40493 0.22731 0.83092 0.0
H2392 H 0.36117 0.2002 0.82568 0.0
H2393 H 0.34333 0.19746 0.79856 0.0
H2394 H 0.80719 0.20801 0.92052 0.0
H2395 H 0.80646 0.19217 0.89438 0.0
H2396 H 0.74066 0.19125 0.88106 0.0
H2397 H 0.742 0.20799 0.90712 0.0
H2398 H 0.7774 0.15497 0.87712 0.0
H2399 H 0.78308 0.2323 0.84623 0.0
H2400 H 0.78633 0.23013 0.86784 0.0
H2401 H 0.75746 0.21655 0.85801 0.0
C2402 C 0.7924 0.20402 0.91207 0.0
C2403 C 0.77483 0.20944 0.91564 0.0
C2404 C 0.79195 0.19497 0.89716 0.0
C2405 C 0.77383 0.19107 0.88554 0.0
C2406 C 0.75515 0.19468 0.88965 0.0
H2407 H 0.77326 0.13155 0.79265 0.0
H2408 H 0.76166 0.13722 0.81892 0.0
C2409 C 0.75571 0.20391 0.90458 0.0
C2410 C 0.77573 0.18492 0.86887 0.0
H2411 H 0.7828 0.20466 0.8298 0.0
C2412 C 0.77836 0.16571 0.86674 0.0
C2413 C 0.77742 0.19918 0.85535 0.0
C2414 C 0.77615 0.2208 0.85692 0.0
C2415 C 0.78305 0.16058 0.85157 0.0
C2416 C 0.7846 0.17476 0.83804 0.0
C2417 C 0.78148 0.19371 0.84013 0.0
C2418 C 0.79098 0.17122 0.82185 0.0
C2419 C 0.78736 0.14061 0.85038 0.0
C2420 C 0.81085 0.18867 0.81444 0.0
C2421 C 0.81731 0.18558 0.79935 0.0
C2422 C 0.80409 0.16492 0.79131 0.0
C2423 C 0.78401 0.14754 0.79864 0.0
C2424 C 0.77741 0.15073 0.81369 0.0
H2425 H 0.79153 0.13515 0.86239 0.0
H2426 H 0.77122 0.12604 0.84522 0.0
H2427 H 0.80214 0.14473 0.84238 0.0
H2428 H 0.82161 0.20465 0.82046 0.0
H2429 H 0.83299 0.19923 0.79413 0.0
H2430 H 0.22308 0.1329 0.45074 0.0
H2431 H 0.24163 0.14896 0.47706 0.0
H2432 H 0.30849 0.1591 0.46134 0.0
H2433 H 0.28969 0.14274 0.43516 0.0
H2434 H 0.29592 0.13477 0.48923 0.0
H2435 H 0.2867 0.21191 0.49376 0.0
H2436 H 0.25935 0.18707 0.48864 0.0
H2437 H 0.28302 0.19809 0.47484 0.0
C2438 C 0.24186 0.1392 0.45287 0.0
C2439 C 0.25507 0.13662 0.44116 0.0
C2440 C 0.25246 0.1484 0.46782 0.0
C2441 C 0.2765 0.15538 0.47113 0.0
C2442 C 0.28994 0.15385 0.45904 0.0
H2443 H 0.35691 0.21651 0.56001 0.0
H2444 H 0.34162 0.2093 0.53201 0.0
C2445 C 0.27928 0.14454 0.44415 0.0
C2446 C 0.28696 0.16173 0.48769 0.0
H2447 H 0.29636 0.19769 0.51836 0.0
C2448 C 0.2962 0.14867 0.49554 0.0
C2449 C 0.28744 0.17993 0.49588 0.0
C2450 C 0.27881 0.19521 0.4878 0.0
C2451 C 0.30547 0.15299 0.51144 0.0
C2452 C 0.30506 0.17058 0.51986 0.0
C2453 C 0.29636 0.18403 0.51192 0.0
C2454 C 0.31369 0.17522 0.53691 0.0
C2455 C 0.3158 0.1388 0.51905 0.0
C2456 C 0.3028 0.15857 0.54896 0.0
C2457 C 0.3116 0.16254 0.56493 0.0
C2458 C 0.3314 0.18332 0.56916 0.0
C2459 C 0.3419 0.20018 0.5571 0.0
C2460 C 0.33307 0.19617 0.54113 0.0
H2461 H 0.32043 0.13035 0.50981 0.0
H2462 H 0.33188 0.14933 0.52663 0.0
H2463 H 0.3026 0.12538 0.52687 0.0
H2464 H 0.28758 0.1424 0.54599 0.0
H2465 H 0.30319 0.14914 0.57388 0.0
H2466 H 0.91464 0.11905 0.4637 0.0
H2467 H 0.91017 0.13183 0.48983 0.0
H2468 H 0.89956 0.18436 0.46557 0.0
H2469 H 0.90365 0.17114 0.43937 0.0
H2470 H 0.93028 0.17228 0.50722 0.0
H2471 H 0.83697 0.14482 0.4876 0.0
H2472 H 0.85582 0.13808 0.4765 0.0
H2473 H 0.85876 0.16603 0.47488 0.0
C2474 C 0.91214 0.13379 0.46407 0.0
C2475 C 0.90944 0.14414 0.44964 0.0
C2476 C 0.90947 0.14103 0.47895 0.0
C2477 C 0.90396 0.15871 0.47966 0.0
C2478 C 0.90334 0.17039 0.46531 0.0
H2479 H 0.84903 0.19707 0.55964 0.0
H2480 H 0.86497 0.19588 0.53394 0.0
C2481 C 0.90601 0.16309 0.45038 0.0
C2482 C 0.89667 0.16325 0.49517 0.0
H2483 H 0.84901 0.15938 0.5137 0.0
C2484 C 0.91256 0.16962 0.50862 0.0
C2485 C 0.87346 0.15956 0.49705 0.0
C2486 C 0.85515 0.15155 0.48331 0.0
C2487 C 0.90591 0.17247 0.52384 0.0
C2488 C 0.88261 0.16847 0.52574 0.0
C2489 C 0.86687 0.16248 0.51224 0.0
C2490 C 0.8739 0.1698 0.54168 0.0
C2491 C 0.92395 0.17989 0.53772 0.0
C2492 C 0.87336 0.15537 0.5546 0.0
C2493 C 0.86406 0.15587 0.56931 0.0
C2494 C 0.85492 0.17071 0.57142 0.0
C2495 C 0.85556 0.18518 0.55844 0.0
C2496 C 0.86485 0.18465 0.54374 0.0
H2497 H 0.94227 0.1883 0.53343 0.0
H2498 H 0.92202 0.19176 0.54557 0.0
H2499 H 0.9213 0.16476 0.54512 0.0
H2500 H 0.87968 0.14335 0.5532 0.0
H2501 H 0.86352 0.14422 0.57891 0.0
H2502 H 0.94192 0.80436 0.46765 0.0
H2503 H 0.94301 0.78521 0.49339 0.0
H2504 H 0.88375 0.72306 0.47613 0.0
H2505 H 0.88311 0.74214 0.45047 0.0
H2506 H 0.90523 0.76869 0.51266 0.0
H2507 H 0.92397 0.69931 0.49991 0.0
H2508 H 0.93074 0.72295 0.48606 0.0
H2509 H 0.90126 0.69923 0.48646 0.0
C2510 C 0.92977 0.78641 0.46927 0.0
C2511 C 0.91232 0.77463 0.45732 0.0
C2512 C 0.93031 0.77552 0.48391 0.0
C2513 C 0.91357 0.75265 0.48664 0.0
C2514 C 0.89715 0.74054 0.47421 0.0
H2515 H 0.83999 0.6602 0.56221 0.0
H2516 H 0.85752 0.68005 0.53702 0.0
C2517 C 0.89662 0.75144 0.45963 0.0
C2518 C 0.9106 0.74243 0.50309 0.0
H2519 H 0.90254 0.69455 0.52402 0.0
C2520 C 0.90517 0.75274 0.51527 0.0
C2521 C 0.91035 0.72154 0.50641 0.0
C2522 C 0.91713 0.71024 0.49405 0.0
C2523 C 0.89816 0.74211 0.5304 0.0
C2524 C 0.89699 0.72077 0.53351 0.0
C2525 C 0.90335 0.71087 0.52156 0.0
C2526 C 0.88776 0.70791 0.54873 0.0
C2527 C 0.89083 0.75322 0.5426 0.0
C2528 C 0.89926 0.71676 0.56361 0.0
C2529 C 0.88924 0.70553 0.57799 0.0
C2530 C 0.86764 0.68513 0.57773 0.0
C2531 C 0.85666 0.67584 0.56278 0.0
C2532 C 0.86665 0.68715 0.5484 0.0
H2533 H 0.88803 0.76712 0.53709 0.0
H2534 H 0.8743 0.74058 0.5483 0.0
H2535 H 0.90489 0.76061 0.55224 0.0
H2536 H 0.91581 0.73254 0.56409 0.0
H2537 H 0.89837 0.71285 0.58932 0.0
loop_
_geom_bond_atom_site_label_1
_geom_bond_atom_site_label_2
_geom_bond_distance
_geom_bond_site_symmetry_2
_ccdc_geom_bond_type
C0 N1 1.317 . S
C0 N2 1.348 . S
C0 C3 1.485 . S
N1 C0 1.317 . S
N1 N5 1.370 . S
N2 C0 1.348 . S
N2 C4 1.346 . S
C3 C0 1.485 . S
C3 H7 0.960 . S
C3 H8 0.961 . S
C3 H9 0.960 . S
C4 N2 1.346 . S
C4 N5 1.307 . S
C4 C6 1.486 . S
N5 N1 1.370 . S
N5 C4 1.307 . S
C6 C4 1.486 . S
C6 H10 0.960 . S
C6 H11 0.960 . S
C6 H12 0.959 . S
H7 C3 0.960 . S
H8 C3 0.961 . S
H9 C3 0.960 . S
H10 C6 0.960 . S
H11 C6 0.960 . S
H12 C6 0.959 . S
C13 N14 1.317 . S
C13 N15 1.348 . S
C13 C16 1.485 . S
N14 C13 1.317 . S
N14 N18 1.370 . S
N15 C13 1.348 . S
N15 C17 1.346 . S
C16 C13 1.485 . S
C16 H20 0.960 . S
C16 H21 0.961 . S
C16 H22 0.960 . S
C17 N15 1.346 . S
C17 N18 1.307 . S
C17 C19 1.486 . S
N18 N14 1.370 . S
N18 C17 1.307 . S
C19 C17 1.486 . S
C19 H23 0.960 . S
C19 H24 0.960 . S
C19 H25 0.959 . S
H20 C16 0.960 . S
H21 C16 0.961 . S
H22 C16 0.960 . S
H23 C19 0.960 . S
H24 C19 0.960 . S
H25 C19 0.959 . S
C26 N27 1.317 . S
C26 N28 1.348 . S
C26 C29 1.485 . S
N27 C26 1.317 . S
N27 N31 1.370 . S
N28 C26 1.348 . S
N28 C30 1.346 . S
C29 C26 1.485 . S
C29 H33 0.960 . S
C29 H34 0.961 . S
C29 H35 0.960 . S
C30 N28 1.346 . S
C30 N31 1.307 . S
C30 C32 1.486 . S
N31 N27 1.370 . S
N31 C30 1.307 . S
C32 C30 1.486 . S
C32 H36 0.960 . S
C32 H37 0.960 . S
C32 H38 0.959 . S
H33 C29 0.960 . S
H34 C29 0.961 . S
H35 C29 0.960 . S
H36 C32 0.960 . S
H37 C32 0.960 . S
H38 C32 0.959 . S
C39 N40 1.317 . S
C39 N41 1.348 . S
C39 C42 1.485 . S
N40 C39 1.317 . S
N40 N44 1.370 . S
N41 C39 1.348 . S
N41 C43 1.346 . S
C42 C39 1.485 . S
C42 H46 0.960 . S
C42 H47 0.961 . S
C42 H48 0.960 . S
C43 N41 1.346 . S
C43 N44 1.307 . S
C43 C45 1.486 . S
N44 N40 1.370 . S
N44 C43 1.307 . S
C45 C43 1.486 . S
C45 H49 0.960 . S
C45 H50 0.960 . S
C45 H51 0.959 . S
H46 C42 0.960 . S
H47 C42 0.961 . S
H48 C42 0.960 . S
H49 C45 0.960 . S
H50 C45 0.960 . S
H51 C45 0.959 . S
C52 N53 1.317 . S
C52 N54 1.348 . S
C52 C55 1.485 . S
N53 C52 1.317 . S
N53 N57 1.370 . S
N54 C52 1.348 . S
N54 C56 1.346 . S
C55 C52 1.485 . S
C55 H59 0.960 . S
C55 H60 0.961 . S
C55 H61 0.960 . S
C56 N54 1.346 . S
C56 N57 1.307 . S
C56 C58 1.486 . S
N57 N53 1.370 . S
N57 C56 1.307 . S
C58 C56 1.486 . S
C58 H62 0.960 . S
C58 H63 0.960 . S
C58 H64 0.959 . S
H59 C55 0.960 . S
H60 C55 0.961 . S
H61 C55 0.960 . S
H62 C58 0.960 . S
H63 C58 0.960 . S
H64 C58 0.959 . S
C65 N66 1.317 . S
C65 N67 1.348 . S
C65 C68 1.485 . S
N66 C65 1.317 . S
N66 N70 1.370 . S
N67 C65 1.348 . S
N67 C69 1.346 . S
C68 C65 1.485 . S
C68 H72 0.960 . S
C68 H73 0.961 . S
C68 H74 0.960 . S
C69 N67 1.346 . S
C69 N70 1.307 . S
C69 C71 1.486 . S
N70 N66 1.370 . S
N70 C69 1.307 . S
C71 C69 1.486 . S
C71 H75 0.960 . S
C71 H76 0.960 . S
C71 H77 0.959 . S
H72 C68 0.960 . S
H73 C68 0.961 . S
H74 C68 0.960 . S
H75 C71 0.960 . S
H76 C71 0.960 . S
H77 C71 0.959 . S
C78 N79 1.317 . S
C78 N80 1.348 . S
C78 C81 1.485 . S
N79 C78 1.317 . S
N79 N83 1.370 . S
N80 C78 1.348 . S
N80 C82 1.346 . S
C81 C78 1.485 . S
C81 H85 0.960 . S
C81 H86 0.961 . S
C81 H87 0.960 . S
C82 N80 1.346 . S
C82 N83 1.307 . S
C82 C84 1.486 . S
N83 N79 1.370 . S
N83 C82 1.307 . S
C84 C82 1.486 . S
C84 H88 0.960 . S
C84 H89 0.960 . S
C84 H90 0.959 . S
H85 C81 0.960 . S
H86 C81 0.961 . S
H87 C81 0.960 . S
H88 C84 0.960 . S
H89 C84 0.960 . S
H90 C84 0.959 . S
C91 N92 1.317 . S
C91 N93 1.348 . S
C91 C94 1.485 . S
N92 C91 1.317 . S
N92 N96 1.370 . S
N93 C91 1.348 . S
N93 C95 1.346 . S
C94 C91 1.485 . S
C94 H98 0.960 . S
C94 H99 0.961 . S
C94 H100 0.960 . S
C95 N93 1.346 . S
C95 N96 1.307 . S
C95 C97 1.486 . S
N96 N92 1.370 . S
N96 C95 1.307 . S
C97 C95 1.486 . S
C97 H101 0.960 . S
C97 H102 0.960 . S
C97 H103 0.959 . S
H98 C94 0.960 . S
H99 C94 0.961 . S
H100 C94 0.960 . S
H101 C97 0.960 . S
H102 C97 0.960 . S
H103 C97 0.959 . S
C104 N105 1.317 . S
C104 N106 1.348 . S
C104 C107 1.485 . S
N105 C104 1.317 . S
N105 N109 1.370 . S
N106 C104 1.348 . S
N106 C108 1.346 . S
C107 C104 1.485 . S
C107 H111 0.960 . S
C107 H112 0.961 . S
C107 H113 0.960 . S
C108 N106 1.346 . S
C108 N109 1.307 . S
C108 C110 1.486 . S
N109 N105 1.370 . S
N109 C108 1.307 . S
C110 C108 1.486 . S
C110 H114 0.960 . S
C110 H115 0.960 . S
C110 H116 0.959 . S
H111 C107 0.960 . S
H112 C107 0.961 . S
H113 C107 0.960 . S
H114 C110 0.960 . S
H115 C110 0.960 . S
H116 C110 0.959 . S
C117 N118 1.317 . S
C117 N119 1.348 . S
C117 C120 1.485 . S
N118 C117 1.317 . S
N118 N122 1.370 . S
N119 C117 1.348 . S
N119 C121 1.346 . S
C120 C117 1.485 . S
C120 H124 0.960 . S
C120 H125 0.961 . S
C120 H126 0.960 . S
C121 N119 1.346 . S
C121 N122 1.307 . S
C121 C123 1.486 . S
N122 N118 1.370 . S
N122 C121 1.307 . S
C123 C121 1.486 . S
C123 H127 0.960 . S
C123 H128 0.960 . S
C123 H129 0.959 . S
H124 C120 0.960 . S
H125 C120 0.961 . S
H126 C120 0.960 . S
H127 C123 0.960 . S
H128 C123 0.960 . S
H129 C123 0.959 . S
C130 N131 1.317 . S
C130 N132 1.348 . S
C130 C133 1.499 . S
N131 C130 1.317 . S
N131 N135 1.370 . S
N132 C130 1.348 . S
N132 C134 1.346 . S
C133 C130 1.499 . S
C133 H137 0.949 1_556 S
C133 H138 0.956 1_556 S
C133 H139 0.958 . S
C134 N132 1.346 . S
C134 N135 1.307 . S
C134 C136 1.486 . S
N135 N131 1.370 . S
N135 C134 1.307 . S
C136 C134 1.486 . S
C136 H140 0.960 . S
C136 H141 0.960 . S
C136 H142 0.959 . S
H137 C133 0.949 1_554 S
H138 C133 0.956 1_554 S
H139 C133 0.958 . S
H140 C136 0.960 . S
H141 C136 0.960 . S
H142 C136 0.959 . S
C143 N144 1.317 . S
C143 N145 1.348 . S
C143 C146 1.485 . S
N144 C143 1.317 . S
N144 N148 1.370 . S
N145 C143 1.348 . S
N145 C147 1.346 . S
C146 C143 1.485 . S
C146 H150 0.960 . S
C146 H151 0.961 1_556 S
C146 H152 0.960 . S
C147 N145 1.346 . S
C147 N148 1.307 . S
C147 C149 1.486 . S
N148 N144 1.370 . S
N148 C147 1.307 . S
C149 C147 1.486 . S
C149 H153 0.960 . S
C149 H154 0.960 . S
C149 H155 0.959 . S
H150 C146 0.960 . S
H151 C146 0.961 1_554 S
H152 C146 0.960 . S
H153 C149 0.960 . S
H154 C149 0.960 . S
H155 C149 0.959 . S
C156 N157 1.317 . S
C156 N158 1.348 . S
C156 C159 1.485 . S
N157 C156 1.317 . S
N157 N161 1.370 . S
N158 C156 1.348 . S
N158 C160 1.346 . S
C159 C156 1.485 . S
C159 H163 0.960 . S
C159 H164 0.961 . S
C159 H165 0.960 . S
C160 N158 1.346 . S
C160 N161 1.307 . S
C160 C162 1.486 . S
N161 N157 1.370 . S
N161 C160 1.307 . S
C162 C160 1.486 . S
C162 H166 0.960 . S
C162 H167 0.960 . S
C162 H168 0.959 . S
H163 C159 0.960 . S
H164 C159 0.961 . S
H165 C159 0.960 . S
H166 C162 0.960 . S
H167 C162 0.960 . S
H168 C162 0.959 . S
C169 N170 1.317 . S
C169 N171 1.348 . S
C169 C172 1.485 . S
N170 C169 1.317 . S
N170 N174 1.370 . S
N171 C169 1.348 . S
N171 C173 1.346 . S
C172 C169 1.485 . S
C172 H176 0.960 . S
C172 H177 0.961 . S
C172 H178 0.960 . S
C173 N171 1.346 . S
C173 N174 1.307 . S
C173 C175 1.486 . S
N174 N170 1.370 . S
N174 C173 1.307 . S
C175 C173 1.486 . S
C175 H179 0.960 . S
C175 H180 0.960 . S
C175 H181 0.959 . S
H176 C172 0.960 . S
H177 C172 0.961 . S
H178 C172 0.960 . S
H179 C175 0.960 . S
H180 C175 0.960 . S
H181 C175 0.959 . S
C182 N183 1.317 . S
C182 N184 1.348 . S
C182 C185 1.485 . S
N183 C182 1.317 . S
N183 N187 1.370 . S
N184 C182 1.348 . S
N184 C186 1.346 . S
C185 C182 1.485 . S
C185 H189 0.960 . S
C185 H190 0.961 . S
C185 H191 0.960 . S
C186 N184 1.346 . S
C186 N187 1.307 . S
C186 C188 1.486 . S
N187 N183 1.370 . S
N187 C186 1.307 . S
C188 C186 1.486 . S
C188 H192 0.960 . S
C188 H193 0.960 . S
C188 H194 0.959 . S
H189 C185 0.960 . S
H190 C185 0.961 . S
H191 C185 0.960 . S
H192 C188 0.960 . S
H193 C188 0.960 . S
H194 C188 0.959 . S
C195 N196 1.317 . S
C195 N197 1.348 . S
C195 C198 1.485 . S
N196 C195 1.317 . S
N196 N200 1.370 . S
N197 C195 1.348 . S
N197 C199 1.346 . S
C198 C195 1.485 . S
C198 H202 0.960 . S
C198 H203 0.961 . S
C198 H204 0.960 . S
C199 N197 1.346 . S
C199 N200 1.307 . S
C199 C201 1.486 . S
N200 N196 1.370 . S
N200 C199 1.307 . S
C201 C199 1.486 . S
C201 H205 0.960 . S
C201 H206 0.960 . S
C201 H207 0.959 . S
H202 C198 0.960 . S
H203 C198 0.961 . S
H204 C198 0.960 . S
H205 C201 0.960 . S
H206 C201 0.960 . S
H207 C201 0.959 . S
C208 N209 1.317 . S
C208 N210 1.348 . S
C208 C211 1.485 . S
N209 C208 1.317 . S
N209 N213 1.370 . S
N210 C208 1.348 . S
N210 C212 1.346 . S
C211 C208 1.485 . S
C211 H215 0.960 . S
C211 H216 0.961 . S
C211 H217 0.960 . S
C212 N210 1.346 . S
C212 N213 1.307 . S
C212 C214 1.486 . S
N213 N209 1.370 . S
N213 C212 1.307 . S
C214 C212 1.486 . S
C214 H218 0.960 . S
C214 H219 0.960 . S
C214 H220 0.959 . S
H215 C211 0.960 . S
H216 C211 0.961 . S
H217 C211 0.960 . S
H218 C214 0.960 . S
H219 C214 0.960 . S
H220 C214 0.959 . S
C221 N222 1.317 . S
C221 N223 1.348 . S
C221 C224 1.485 . S
N222 C221 1.317 . S
N222 N226 1.370 . S
N223 C221 1.348 . S
N223 C225 1.346 . S
C224 C221 1.485 . S
C224 H228 0.960 . S
C224 H229 0.961 . S
C224 H230 0.960 . S
C225 N223 1.346 . S
C225 N226 1.307 . S
C225 C227 1.486 . S
N226 N222 1.370 . S
N226 C225 1.307 . S
C227 C225 1.486 . S
C227 H231 0.960 . S
C227 H232 0.960 . S
C227 H233 0.959 . S
H228 C224 0.960 . S
H229 C224 0.961 . S
H230 C224 0.960 . S
H231 C227 0.960 . S
H232 C227 0.960 . S
H233 C227 0.959 . S
Tb234 C244 2.825 1_565 S
Tb234 O245 2.347 1_566 S
Tb234 O248 2.366 1_565 S
Tb234 O253 2.418 . S
Tb234 O254 2.384 1_556 S
Tb234 O257 2.479 . S
Tb234 O258 2.471 1_565 S
Eu235 O246 2.418 . S
Eu235 O247 2.384 . S
Eu235 O250 2.479 . S
Eu235 O251 2.471 1_545 S
Eu235 O252 2.347 1_545 S
Eu235 O255 2.366 1_545 S
Eu235 C265 2.825 1_545 S
C236 O252 1.259 . S
C236 O253 1.265 1_554 S
C237 O254 1.255 . S
C237 O255 1.265 . S
C238 C240 1.380 . S
C238 C241 1.374 . S
C238 C244 1.507 . S
C239 C240 1.384 . S
C239 C243 1.387 . S
C239 H266 0.930 . S
C240 C238 1.380 . S
C240 C239 1.384 . S
C240 H267 0.931 1_545 S
C241 C238 1.374 . S
C241 C242 1.390 . S
C241 H268 0.930 . S
C242 C241 1.390 . S
C242 C243 1.391 . S
C242 H269 0.930 . S
C243 C239 1.387 . S
C243 C242 1.391 . S
C244 Tb234 2.825 1_545 S
C244 C238 1.507 . S
C244 O257 1.238 1_545 S
C244 O258 1.247 . S
O245 Tb234 2.347 1_544 S
O245 C249 1.259 . S
O246 Eu235 2.418 . S
O246 C249 1.265 . S
O247 Eu235 2.384 . S
O247 C256 1.255 . S
O248 Tb234 2.366 1_545 S
O248 C256 1.265 1_556 S
C249 O245 1.259 . S
C249 O246 1.265 . S
O250 Eu235 2.479 . S
O250 C265 1.238 1_545 S
O251 Eu235 2.471 1_565 S
O251 C265 1.247 . S
O252 Eu235 2.347 1_565 S
O252 C236 1.259 . S
O253 Tb234 2.418 . S
O253 C236 1.265 1_556 S
O254 Tb234 2.384 1_554 S
O254 C237 1.255 . S
O255 Eu235 2.366 1_565 S
O255 C237 1.265 . S
C256 O247 1.255 . S
C256 O248 1.265 1_554 S
O257 Tb234 2.479 . S
O257 C244 1.238 1_565 S
O258 Tb234 2.471 1_545 S
O258 C244 1.247 . S
C259 C262 1.380 . S
C259 C263 1.374 . S
C259 C265 1.507 . S
C260 C261 1.387 . S
C260 C264 1.391 . S
C261 C260 1.387 . S
C261 C262 1.384 . S
C261 H270 0.930 . S
C262 C259 1.380 . S
C262 C261 1.384 . S
C262 H271 0.931 1_565 S
C263 C259 1.374 . S
C263 C264 1.390 . S
C263 H272 0.930 . S
C264 C260 1.391 . S
C264 C263 1.390 . S
C264 H273 0.930 . S
C265 Eu235 2.825 1_565 S
C265 O250 1.238 1_565 S
C265 O251 1.247 . S
C265 C259 1.507 . S
H266 C239 0.930 . S
H267 C240 0.931 1_565 S
H268 C241 0.930 . S
H269 C242 0.930 . S
H270 C261 0.930 . S
H271 C262 0.931 1_545 S
H272 C263 0.930 . S
H273 C264 0.930 . S
Tb274 C284 2.825 . S
Tb274 O285 2.347 1_455 S
Tb274 O288 2.366 1_455 S
Tb274 O293 2.418 . S
Tb274 O294 2.384 1_556 S
Tb274 O297 2.479 . S
Tb274 O298 2.472 1_455 S
Eu275 O286 2.418 . S
Eu275 O287 2.384 . S
Eu275 O290 2.479 . S
Eu275 O291 2.471 1_655 S
Eu275 O292 2.347 1_655 S
Eu275 O295 2.366 1_655 S
Eu275 C305 2.825 1_655 S
C276 O292 1.259 . S
C276 O293 1.265 1_554 S
C277 O294 1.255 . S
C277 O295 1.265 . S
C278 C280 1.380 . S
C278 C281 1.373 1_455 S
C278 C284 1.507 . S
C279 C280 1.384 . S
C279 C283 1.387 1_455 S
C279 H306 0.930 . S
C280 C278 1.380 . S
C280 C279 1.384 . S
C280 H307 0.931 . S
C281 C278 1.373 1_655 S
C281 C282 1.390 . S
C281 H308 0.930 . S
C282 C281 1.390 . S
C282 C283 1.391 . S
C282 H309 0.930 . S
C283 C279 1.387 1_655 S
C283 C282 1.391 . S
C284 Tb274 2.825 . S
C284 C278 1.507 . S
C284 O297 1.238 . S
C284 O298 1.247 1_455 S
O285 Tb274 2.347 1_655 S
O285 C289 1.259 1_556 S
O286 Eu275 2.418 . S
O286 C289 1.265 . S
O287 Eu275 2.384 . S
O287 C296 1.255 1_554 S
O288 Tb274 2.366 1_655 S
O288 C296 1.265 . S
C289 O285 1.259 1_554 S
C289 O286 1.265 . S
O290 Eu275 2.479 . S
O290 C305 1.238 1_655 S
O291 Eu275 2.471 1_455 S
O291 C305 1.247 . S
O292 Eu275 2.347 1_455 S
O292 C276 1.259 . S
O293 Tb274 2.418 . S
O293 C276 1.265 1_556 S
O294 Tb274 2.384 1_554 S
O294 C277 1.255 . S
O295 Eu275 2.366 1_455 S
O295 C277 1.265 . S
C296 O287 1.255 1_556 S
C296 O288 1.265 . S
O297 Tb274 2.479 . S
O297 C284 1.238 . S
O298 Tb274 2.472 1_655 S
O298 C284 1.247 1_655 S
C299 C302 1.380 . S
C299 C303 1.374 . S
C299 C305 1.507 . S
C300 C301 1.387 . S
C300 C304 1.391 . S
C301 C300 1.387 . S
C301 C302 1.384 . S
C301 H310 0.938 . S
C302 C299 1.380 . S
C302 C301 1.384 . S
C302 H311 0.931 1_455 S
C303 C299 1.374 . S
C303 C304 1.390 . S
C303 H312 0.930 . S
C304 C300 1.391 . S
C304 C303 1.390 . S
C304 H313 0.930 . S
C305 Eu275 2.825 1_455 S
C305 O290 1.238 1_455 S
C305 O291 1.247 . S
C305 C299 1.507 . S
H306 C279 0.930 . S
H307 C280 0.931 . S
H308 C281 0.930 . S
H309 C282 0.930 . S
H310 C301 0.938 . S
H311 C302 0.931 1_655 S
H312 C303 0.930 . S
H313 C304 0.930 . S
Tb314 C324 2.825 . S
Tb314 O325 2.347 . S
Tb314 O328 2.366 . S
Tb314 O333 2.418 . S
Tb314 O334 2.384 . S
Tb314 O337 2.479 . S
Tb314 O338 2.471 . S
Eu315 O326 2.418 1_556 S
Eu315 O327 2.384 1_556 S
Eu315 O330 2.479 . S
Eu315 O331 2.471 . S
Eu315 O332 2.347 1_556 S
Eu315 O335 2.366 . S
Eu315 C345 2.825 . S
C316 O332 1.259 . S
C316 O333 1.265 . S
C317 O334 1.255 . S
C317 O335 1.265 1_554 S
C318 C320 1.380 . S
C318 C321 1.374 . S
C318 C324 1.507 . S
C319 C320 1.384 . S
C319 C323 1.387 . S
C319 H346 0.930 . S
C320 C318 1.380 . S
C320 C319 1.384 . S
C320 H347 0.931 . S
C321 C318 1.374 . S
C321 C322 1.390 . S
C321 H348 0.930 . S
C322 C321 1.390 . S
C322 C323 1.391 . S
C322 H349 0.930 . S
C323 C319 1.387 . S
C323 C322 1.391 . S
C324 Tb314 2.825 . S
C324 C318 1.507 . S
C324 O337 1.238 . S
C324 O338 1.247 . S
O325 Tb314 2.347 . S
O325 C329 1.259 . S
O326 Eu315 2.418 1_554 S
O326 C329 1.265 . S
O327 Eu315 2.384 1_554 S
O327 C336 1.255 . S
O328 Tb314 2.366 . S
O328 C336 1.265 . S
C329 O325 1.259 . S
C329 O326 1.265 . S
O330 Eu315 2.479 . S
O330 C345 1.238 . S
O331 Eu315 2.471 . S
O331 C345 1.247 . S
O332 Eu315 2.347 1_554 S
O332 C316 1.259 . S
O333 Tb314 2.418 . S
O333 C316 1.265 . S
O334 Tb314 2.384 . S
O334 C317 1.255 . S
O335 Eu315 2.366 . S
O335 C317 1.265 1_556 S
C336 O327 1.255 . S
C336 O328 1.265 . S
O337 Tb314 2.479 . S
O337 C324 1.238 . S
O338 Tb314 2.471 . S
O338 C324 1.247 . S
C339 C342 1.380 . S
C339 C343 1.374 . S
C339 C345 1.507 . S
C340 C341 1.387 . S
C340 C344 1.391 . S
C341 C340 1.387 . S
C341 C342 1.384 . S
C341 H350 0.930 . S
C342 C339 1.380 . S
C342 C341 1.384 . S
C342 H351 0.931 . S
C343 C339 1.374 . S
C343 C344 1.390 . S
C343 H352 0.930 . S
C344 C340 1.391 . S
C344 C343 1.390 . S
C344 H353 0.930 . S
C345 Eu315 2.825 . S
C345 O330 1.238 . S
C345 O331 1.247 . S
C345 C339 1.507 . S
H346 C319 0.930 . S
H347 C320 0.931 . S
H348 C321 0.930 . S
H349 C322 0.930 . S
H350 C341 0.930 . S
H351 C342 0.931 . S
H352 C343 0.930 . S
H353 C344 0.930 . S
Tb354 C364 2.825 . S
Tb354 O365 2.347 . S
Tb354 O368 2.366 . S
Tb354 O373 2.418 . S
Tb354 O374 2.384 . S
Tb354 O377 2.479 . S
Tb354 O378 2.471 . S
Eu355 O366 2.418 . S
Eu355 O367 2.384 . S
Eu355 O370 2.479 . S
Eu355 O371 2.471 . S
Eu355 O372 2.347 . S
Eu355 O375 2.366 . S
Eu355 C385 2.825 . S
C356 O372 1.259 . S
C356 O373 1.265 . S
C357 O374 1.255 . S
C357 O375 1.265 . S
C358 C360 1.380 . S
C358 C361 1.374 . S
C358 C364 1.507 . S
C359 C360 1.384 . S
C359 C363 1.387 . S
C359 H386 0.930 . S
C360 C358 1.380 . S
C360 C359 1.384 . S
C360 H387 0.931 . S
C361 C358 1.374 . S
C361 C362 1.390 . S
C361 H388 0.930 . S
C362 C361 1.390 . S
C362 C363 1.391 . S
C362 H389 0.930 . S
C363 C359 1.387 . S
C363 C362 1.391 . S
C364 Tb354 2.825 . S
C364 C358 1.507 . S
C364 O377 1.238 . S
C364 O378 1.247 . S
O365 Tb354 2.347 . S
O365 C369 1.259 . S
O366 Eu355 2.418 . S
O366 C369 1.265 . S
O367 Eu355 2.384 . S
O367 C376 1.255 . S
O368 Tb354 2.366 . S
O368 C376 1.265 . S
C369 O365 1.259 . S
C369 O366 1.265 . S
O370 Eu355 2.479 . S
O370 C385 1.238 . S
O371 Eu355 2.471 . S
O371 C385 1.247 . S
O372 Eu355 2.347 . S
O372 C356 1.259 . S
O373 Tb354 2.418 . S
O373 C356 1.265 . S
O374 Tb354 2.384 . S
O374 C357 1.255 . S
O375 Eu355 2.366 . S
O375 C357 1.265 . S
C376 O367 1.255 . S
C376 O368 1.265 . S
O377 Tb354 2.479 . S
O377 C364 1.238 . S
O378 Tb354 2.471 . S
O378 C364 1.247 . S
C379 C382 1.380 . S
C379 C383 1.374 . S
C379 C385 1.507 . S
C380 C381 1.387 . S
C380 C384 1.391 . S
C381 C380 1.387 . S
C381 C382 1.384 . S
C381 H390 0.930 . S
C382 C379 1.380 . S
C382 C381 1.384 . S
C382 H391 0.931 . S
C383 C379 1.374 . S
C383 C384 1.390 . S
C383 H392 0.930 . S
C384 C380 1.391 . S
C384 C383 1.390 . S
C384 H393 0.930 . S
C385 Eu355 2.825 . S
C385 O370 1.238 . S
C385 O371 1.247 . S
C385 C379 1.507 . S
H386 C359 0.930 . S
H387 C360 0.931 . S
H388 C361 0.930 . S
H389 C362 0.930 . S
H390 C381 0.930 . S
H391 C382 0.931 . S
H392 C383 0.930 . S
H393 C384 0.930 . S
Tb394 C404 2.825 . S
Tb394 O405 2.347 . S
Tb394 O408 2.366 . S
Tb394 O413 2.418 . S
Tb394 O414 2.384 . S
Tb394 O417 2.479 . S
Tb394 O418 2.471 . S
Eu395 O406 2.418 . S
Eu395 O407 2.384 . S
Eu395 O410 2.479 . S
Eu395 O411 2.471 . S
Eu395 O412 2.347 . S
Eu395 O415 2.366 . S
Eu395 C425 2.825 . S
C396 O412 1.259 . S
C396 O413 1.265 . S
C397 O414 1.255 . S
C397 O415 1.265 . S
C398 C400 1.380 . S
C398 C401 1.374 . S
C398 C404 1.507 . S
C399 C400 1.384 . S
C399 C403 1.387 . S
C399 H426 0.930 . S
C400 C398 1.380 . S
C400 C399 1.384 . S
C400 H427 0.931 . S
C401 C398 1.374 . S
C401 C402 1.390 . S
C401 H428 0.930 . S
C402 C401 1.390 . S
C402 C403 1.391 . S
C402 H429 0.930 . S
C403 C399 1.387 . S
C403 C402 1.391 . S
C404 Tb394 2.825 . S
C404 C398 1.507 . S
C404 O417 1.238 . S
C404 O418 1.247 . S
O405 Tb394 2.347 . S
O405 C409 1.259 . S
O406 Eu395 2.418 . S
O406 C409 1.265 . S
O407 Eu395 2.384 . S
O407 C416 1.255 . S
O408 Tb394 2.366 . S
O408 C416 1.265 . S
C409 O405 1.259 . S
C409 O406 1.265 . S
O410 Eu395 2.479 . S
O410 C425 1.238 . S
O411 Eu395 2.471 . S
O411 C425 1.247 . S
O412 Eu395 2.347 . S
O412 C396 1.259 . S
O413 Tb394 2.418 . S
O413 C396 1.265 . S
O414 Tb394 2.384 . S
O414 C397 1.255 . S
O415 Eu395 2.366 . S
O415 C397 1.265 . S
C416 O407 1.255 . S
C416 O408 1.265 . S
O417 Tb394 2.479 . S
O417 C404 1.238 . S
O418 Tb394 2.471 . S
O418 C404 1.247 . S
C419 C422 1.380 . S
C419 C423 1.374 . S
C419 C425 1.507 . S
C420 C421 1.387 . S
C420 C424 1.391 . S
C421 C420 1.387 . S
C421 C422 1.384 . S
C421 H430 0.930 . S
C422 C419 1.380 . S
C422 C421 1.384 . S
C422 H431 0.931 . S
C423 C419 1.374 . S
C423 C424 1.390 . S
C423 H432 0.930 . S
C424 C420 1.391 . S
C424 C423 1.390 . S
C424 H433 0.930 . S
C425 Eu395 2.825 . S
C425 O410 1.238 . S
C425 O411 1.247 . S
C425 C419 1.507 . S
H426 C399 0.930 . S
H427 C400 0.931 . S
H428 C401 0.930 . S
H429 C402 0.930 . S
H430 C421 0.930 . S
H431 C422 0.931 . S
H432 C423 0.930 . S
H433 C424 0.930 . S
Tb434 C444 2.825 . S
Tb434 O445 2.347 . S
Tb434 O448 2.366 . S
Tb434 O453 2.418 . S
Tb434 O454 2.384 . S
Tb434 O457 2.479 . S
Tb434 O458 2.471 . S
Eu435 O446 2.418 . S
Eu435 O447 2.384 . S
Eu435 O450 2.479 . S
Eu435 O451 2.471 . S
Eu435 O452 2.347 . S
Eu435 O455 2.366 . S
Eu435 C465 2.825 . S
C436 O452 1.259 . S
C436 O453 1.265 . S
C437 O454 1.255 . S
C437 O455 1.265 . S
C438 C440 1.380 . S
C438 C441 1.374 . S
C438 C444 1.507 . S
C439 C440 1.384 . S
C439 C443 1.387 . S
C439 H466 0.930 . S
C440 C438 1.380 . S
C440 C439 1.384 . S
C440 H467 0.931 . S
C441 C438 1.374 . S
C441 C442 1.390 . S
C441 H468 0.930 . S
C442 C441 1.390 . S
C442 C443 1.391 . S
C442 H469 0.930 . S
C443 C439 1.387 . S
C443 C442 1.391 . S
C444 Tb434 2.825 . S
C444 C438 1.507 . S
C444 O457 1.238 . S
C444 O458 1.247 . S
O445 Tb434 2.347 . S
O445 C449 1.259 . S
O446 Eu435 2.418 . S
O446 C449 1.265 . S
O447 Eu435 2.384 . S
O447 C456 1.255 . S
O448 Tb434 2.366 . S
O448 C456 1.265 . S
C449 O445 1.259 . S
C449 O446 1.265 . S
O450 Eu435 2.479 . S
O450 C465 1.238 . S
O451 Eu435 2.471 . S
O451 C465 1.247 . S
O452 Eu435 2.347 . S
O452 C436 1.259 . S
O453 Tb434 2.418 . S
O453 C436 1.265 . S
O454 Tb434 2.384 . S
O454 C437 1.255 . S
O455 Eu435 2.366 . S
O455 C437 1.265 . S
C456 O447 1.255 . S
C456 O448 1.265 . S
O457 Tb434 2.479 . S
O457 C444 1.238 . S
O458 Tb434 2.471 . S
O458 C444 1.247 . S
C459 C462 1.380 . S
C459 C463 1.374 . S
C459 C465 1.507 . S
C460 C461 1.387 . S
C460 C464 1.391 . S
C461 C460 1.387 . S
C461 C462 1.384 . S
C461 H470 0.930 . S
C462 C459 1.380 . S
C462 C461 1.384 . S
C462 H471 0.931 . S
C463 C459 1.374 . S
C463 C464 1.390 . S
C463 H472 0.930 . S
C464 C460 1.391 . S
C464 C463 1.390 . S
C464 H473 0.930 . S
C465 Eu435 2.825 . S
C465 O450 1.238 . S
C465 O451 1.247 . S
C465 C459 1.507 . S
H466 C439 0.930 . S
H467 C440 0.931 . S
H468 C441 0.930 . S
H469 C442 0.930 . S
H470 C461 0.930 . S
H471 C462 0.931 . S
H472 C463 0.930 . S
H473 C464 0.930 . S
Tb474 C484 2.825 . S
Tb474 O485 2.347 . S
Tb474 O488 2.366 . S
Tb474 O493 2.418 . S
Tb474 O494 2.384 . S
Tb474 O497 2.479 . S
Tb474 O498 2.471 . S
Eu475 O486 2.418 . S
Eu475 O487 2.384 . S
Eu475 O490 2.479 . S
Eu475 O491 2.471 . S
Eu475 O492 2.347 . S
Eu475 O495 2.366 . S
Eu475 C505 2.825 . S
C476 O492 1.259 . S
C476 O493 1.265 . S
C477 O494 1.255 . S
C477 O495 1.265 . S
C478 C480 1.380 . S
C478 C481 1.374 . S
C478 C484 1.507 . S
C479 C480 1.384 . S
C479 C483 1.387 . S
C479 H506 0.930 . S
C480 C478 1.380 . S
C480 C479 1.384 . S
C480 H507 0.931 . S
C481 C478 1.374 . S
C481 C482 1.390 . S
C481 H508 0.930 . S
C482 C481 1.390 . S
C482 C483 1.391 . S
C482 H509 0.930 . S
C483 C479 1.387 . S
C483 C482 1.391 . S
C484 Tb474 2.825 . S
C484 C478 1.507 . S
C484 O497 1.238 . S
C484 O498 1.247 . S
O485 Tb474 2.347 . S
O485 C489 1.259 . S
O486 Eu475 2.418 . S
O486 C489 1.265 . S
O487 Eu475 2.384 . S
O487 C496 1.255 . S
O488 Tb474 2.366 . S
O488 C496 1.265 . S
C489 O485 1.259 . S
C489 O486 1.265 . S
O490 Eu475 2.479 . S
O490 C505 1.238 . S
O491 Eu475 2.471 . S
O491 C505 1.247 . S
O492 Eu475 2.347 . S
O492 C476 1.259 . S
O493 Tb474 2.418 . S
O493 C476 1.265 . S
O494 Tb474 2.384 . S
O494 C477 1.255 . S
O495 Eu475 2.366 . S
O495 C477 1.265 . S
C496 O487 1.255 . S
C496 O488 1.265 . S
O497 Tb474 2.479 . S
O497 C484 1.238 . S
O498 Tb474 2.471 . S
O498 C484 1.247 . S
C499 C502 1.380 . S
C499 C503 1.374 . S
C499 C505 1.507 . S
C500 C501 1.387 . S
C500 C504 1.391 . S
C501 C500 1.387 . S
C501 C502 1.384 . S
C501 H510 0.930 . S
C502 C499 1.380 . S
C502 C501 1.384 . S
C502 H511 0.931 . S
C503 C499 1.374 . S
C503 C504 1.390 . S
C503 H512 0.930 . S
C504 C500 1.391 . S
C504 C503 1.390 . S
C504 H513 0.930 . S
C505 Eu475 2.825 . S
C505 O490 1.238 . S
C505 O491 1.247 . S
C505 C499 1.507 . S
H506 C479 0.930 . S
H507 C480 0.931 . S
H508 C481 0.930 . S
H509 C482 0.930 . S
H510 C501 0.930 . S
H511 C502 0.931 . S
H512 C503 0.930 . S
H513 C504 0.930 . S
Tb514 C524 2.825 . S
Tb514 O525 2.347 . S
Tb514 O528 2.366 . S
Tb514 O533 2.418 . S
Tb514 O534 2.384 . S
Tb514 O537 2.479 . S
Tb514 O538 2.471 . S
Eu515 O526 2.418 . S
Eu515 O527 2.384 . S
Eu515 O530 2.479 . S
Eu515 O531 2.471 . S
Eu515 O532 2.347 . S
Eu515 O535 2.366 . S
Eu515 C545 2.825 . S
C516 O532 1.259 . S
C516 O533 1.265 . S
C517 O534 1.255 . S
C517 O535 1.265 . S
C518 C520 1.380 . S
C518 C521 1.374 . S
C518 C524 1.507 . S
C519 C520 1.384 . S
C519 C523 1.387 . S
C519 H546 0.930 . S
C520 C518 1.380 . S
C520 C519 1.384 . S
C520 H547 0.931 . S
C521 C518 1.374 . S
C521 C522 1.390 . S
C521 H548 0.930 . S
C522 C521 1.390 . S
C522 C523 1.391 . S
C522 H549 0.930 . S
C523 C519 1.387 . S
C523 C522 1.391 . S
C524 Tb514 2.825 . S
C524 C518 1.507 . S
C524 O537 1.238 . S
C524 O538 1.247 . S
O525 Tb514 2.347 . S
O525 C529 1.259 . S
O526 Eu515 2.418 . S
O526 C529 1.265 . S
O527 Eu515 2.384 . S
O527 C536 1.255 . S
O528 Tb514 2.366 . S
O528 C536 1.265 . S
C529 O525 1.259 . S
C529 O526 1.265 . S
O530 Eu515 2.479 . S
O530 C545 1.238 . S
O531 Eu515 2.471 . S
O531 C545 1.247 . S
O532 Eu515 2.347 . S
O532 C516 1.259 . S
O533 Tb514 2.418 . S
O533 C516 1.265 . S
O534 Tb514 2.384 . S
O534 C517 1.255 . S
O535 Eu515 2.366 . S
O535 C517 1.265 . S
C536 O527 1.255 . S
C536 O528 1.265 . S
O537 Tb514 2.479 . S
O537 C524 1.238 . S
O538 Tb514 2.471 . S
O538 C524 1.247 . S
C539 C542 1.380 . S
C539 C543 1.374 . S
C539 C545 1.507 . S
C540 C541 1.387 . S
C540 C544 1.391 . S
C541 C540 1.387 . S
C541 C542 1.384 . S
C541 H550 0.930 . S
C542 C539 1.380 . S
C542 C541 1.384 . S
C542 H551 0.931 . S
C543 C539 1.374 . S
C543 C544 1.390 . S
C543 H552 0.930 . S
C544 C540 1.391 . S
C544 C543 1.390 . S
C544 H553 0.930 . S
C545 Eu515 2.825 . S
C545 O530 1.238 . S
C545 O531 1.247 . S
C545 C539 1.507 . S
H546 C519 0.930 . S
H547 C520 0.931 . S
H548 C521 0.930 . S
H549 C522 0.930 . S
H550 C541 0.930 . S
H551 C542 0.931 . S
H552 C543 0.930 . S
H553 C544 0.930 . S
Tb554 C564 2.825 . S
Tb554 O565 2.347 . S
Tb554 O568 2.366 . S
Tb554 O573 2.418 . S
Tb554 O574 2.384 . S
Tb554 O577 2.479 . S
Tb554 O578 2.471 . S
Eu555 O566 2.418 . S
Eu555 O567 2.384 . S
Eu555 O570 2.479 . S
Eu555 O571 2.471 . S
Eu555 O572 2.347 . S
Eu555 O575 2.366 . S
Eu555 C585 2.825 . S
C556 O572 1.259 . S
C556 O573 1.265 . S
C557 O574 1.255 . S
C557 O575 1.265 . S
C558 C560 1.380 . S
C558 C561 1.374 . S
C558 C564 1.507 . S
C559 C560 1.384 . S
C559 C563 1.387 . S
C559 H586 0.930 . S
C560 C558 1.380 . S
C560 C559 1.384 . S
C560 H587 0.931 . S
C561 C558 1.374 . S
C561 C562 1.390 . S
C561 H588 0.930 . S
C562 C561 1.390 . S
C562 C563 1.391 . S
C562 H589 0.930 . S
C563 C559 1.387 . S
C563 C562 1.391 . S
C564 Tb554 2.825 . S
C564 C558 1.507 . S
C564 O577 1.238 . S
C564 O578 1.247 . S
O565 Tb554 2.347 . S
O565 C569 1.259 . S
O566 Eu555 2.418 . S
O566 C569 1.265 . S
O567 Eu555 2.384 . S
O567 C576 1.255 . S
O568 Tb554 2.366 . S
O568 C576 1.265 . S
C569 O565 1.259 . S
C569 O566 1.265 . S
O570 Eu555 2.479 . S
O570 C585 1.238 . S
O571 Eu555 2.471 . S
O571 C585 1.247 . S
O572 Eu555 2.347 . S
O572 C556 1.259 . S
O573 Tb554 2.418 . S
O573 C556 1.265 . S
O574 Tb554 2.384 . S
O574 C557 1.255 . S
O575 Eu555 2.366 . S
O575 C557 1.265 . S
C576 O567 1.255 . S
C576 O568 1.265 . S
O577 Tb554 2.479 . S
O577 C564 1.238 . S
O578 Tb554 2.471 . S
O578 C564 1.247 . S
C579 C582 1.380 . S
C579 C583 1.374 . S
C579 C585 1.507 . S
C580 C581 1.387 . S
C580 C584 1.391 . S
C581 C580 1.387 . S
C581 C582 1.384 . S
C581 H590 0.930 . S
C582 C579 1.380 . S
C582 C581 1.384 . S
C582 H591 0.931 . S
C583 C579 1.374 . S
C583 C584 1.390 . S
C583 H592 0.930 . S
C584 C580 1.391 . S
C584 C583 1.390 . S
C584 H593 0.930 . S
C585 Eu555 2.825 . S
C585 O570 1.238 . S
C585 O571 1.247 . S
C585 C579 1.507 . S
H586 C559 0.930 . S
H587 C560 0.931 . S
H588 C561 0.930 . S
H589 C562 0.930 . S
H590 C581 0.930 . S
H591 C582 0.931 . S
H592 C583 0.930 . S
H593 C584 0.930 . S
H594 C602 0.929 . S
H595 C604 0.930 . S
H596 C606 0.930 . S
H597 C609 0.929 . S
H598 C612 0.930 . S
H599 C614 0.960 . S
H600 C614 0.960 . S
H601 C614 0.960 . S
C602 H594 0.929 . S
C602 C603 1.377 . S
C602 C604 1.384 . S
C603 C602 1.377 . S
C603 C609 1.390 . S
C604 H595 0.930 . S
C604 C602 1.384 . S
C604 C605 1.372 . S
C605 C604 1.372 . S
C605 C606 1.400 . S
C605 C610 1.490 . S
C606 H596 0.930 . S
C606 C605 1.400 . S
C606 C609 1.386 . S
H607 C623 0.930 . S
H608 C624 0.931 . S
C609 H597 0.929 . S
C609 C603 1.390 . S
C609 C606 1.386 . S
C610 C605 1.490 . S
C610 C612 1.395 . S
C610 C613 1.403 . S
H611 C617 0.930 . S
C612 H598 0.930 . S
C612 C610 1.395 . S
C612 C615 1.403 . S
C613 C610 1.403 . S
C613 C614 1.524 . S
C613 C617 1.400 . S
C614 H599 0.960 . S
C614 H600 0.960 . S
C614 H601 0.960 . S
C614 C613 1.524 . S
C615 C612 1.403 . S
C615 C616 1.392 . S
C615 C619 1.495 . S
C616 C615 1.392 . S
C616 C617 1.385 . S
C616 C618 1.478 . S
C617 H611 0.930 . S
C617 C613 1.400 . S
C617 C616 1.385 . S
C618 C616 1.478 . S
C618 C620 1.381 . S
C618 C624 1.383 . S
C619 C615 1.495 . S
C619 H625 0.959 . S
C619 H626 0.961 . S
C619 H627 0.960 . S
C620 C618 1.381 . S
C620 C621 1.394 . S
C620 H628 0.930 . S
C621 C620 1.394 . S
C621 C622 1.383 . S
C621 H629 0.929 . S
C622 C621 1.383 . S
C622 C623 1.377 . S
C623 H607 0.930 . S
C623 C622 1.377 . S
C623 C624 1.379 . S
C624 H608 0.931 . S
C624 C618 1.383 . S
C624 C623 1.379 . S
H625 C619 0.959 . S
H626 C619 0.961 . S
H627 C619 0.960 . S
H628 C620 0.930 . S
H629 C621 0.929 . S
H630 C638 0.929 . S
H631 C640 0.930 . S
H632 C642 0.930 . S
H633 C645 0.929 . S
H634 C648 0.930 . S
H635 C650 0.960 . S
H636 C650 0.960 . S
H637 C650 0.960 . S
C638 H630 0.929 . S
C638 C639 1.377 . S
C638 C640 1.384 . S
C639 C638 1.377 . S
C639 C645 1.390 . S
C640 H631 0.930 . S
C640 C638 1.384 . S
C640 C641 1.372 . S
C641 C640 1.372 . S
C641 C642 1.400 . S
C641 C646 1.490 . S
C642 H632 0.930 . S
C642 C641 1.400 . S
C642 C645 1.386 . S
H643 C659 0.930 . S
H644 C660 0.931 . S
C645 H633 0.929 . S
C645 C639 1.390 . S
C645 C642 1.386 . S
C646 C641 1.490 . S
C646 C648 1.395 . S
C646 C649 1.403 . S
H647 C653 0.930 . S
C648 H634 0.930 . S
C648 C646 1.395 . S
C648 C651 1.403 . S
C649 C646 1.403 . S
C649 C650 1.524 . S
C649 C653 1.400 . S
C650 H635 0.960 . S
C650 H636 0.960 . S
C650 H637 0.960 . S
C650 C649 1.524 . S
C651 C648 1.403 . S
C651 C652 1.392 . S
C651 C655 1.495 . S
C652 C651 1.392 . S
C652 C653 1.385 . S
C652 C654 1.478 . S
C653 H647 0.930 . S
C653 C649 1.400 . S
C653 C652 1.385 . S
C654 C652 1.478 . S
C654 C656 1.381 . S
C654 C660 1.383 . S
C655 C651 1.495 . S
C655 H661 0.959 . S
C655 H662 0.961 . S
C655 H663 0.960 . S
C656 C654 1.381 . S
C656 C657 1.394 . S
C656 H664 0.930 . S
C657 C656 1.394 . S
C657 C658 1.383 . S
C657 H665 0.929 . S
C658 C657 1.383 . S
C658 C659 1.377 . S
C659 H643 0.930 . S
C659 C658 1.377 . S
C659 C660 1.379 . S
C660 H644 0.931 . S
C660 C654 1.383 . S
C660 C659 1.379 . S
H661 C655 0.959 . S
H662 C655 0.961 . S
H663 C655 0.960 . S
H664 C656 0.930 . S
H665 C657 0.929 . S
H666 C674 0.929 . S
H667 C676 0.930 . S
H668 C678 0.930 . S
H669 C681 0.929 . S
H670 C684 0.930 . S
H671 C686 0.960 . S
H672 C686 0.960 . S
H673 C686 0.960 . S
C674 H666 0.929 . S
C674 C675 1.377 . S
C674 C676 1.384 . S
C675 C674 1.377 . S
C675 C681 1.390 . S
C676 H667 0.930 . S
C676 C674 1.384 . S
C676 C677 1.372 . S
C677 C676 1.372 . S
C677 C678 1.400 . S
C677 C682 1.490 . S
C678 H668 0.930 . S
C678 C677 1.400 . S
C678 C681 1.386 . S
H679 C695 0.930 . S
H680 C696 0.931 . S
C681 H669 0.929 . S
C681 C675 1.390 . S
C681 C678 1.386 . S
C682 C677 1.490 . S
C682 C684 1.395 . S
C682 C685 1.403 . S
H683 C689 0.930 . S
C684 H670 0.930 . S
C684 C682 1.395 . S
C684 C687 1.403 . S
C685 C682 1.403 . S
C685 C686 1.524 . S
C685 C689 1.400 . S
C686 H671 0.960 . S
C686 H672 0.960 . S
C686 H673 0.960 . S
C686 C685 1.524 . S
C687 C684 1.403 . S
C687 C688 1.392 . S
C687 C691 1.495 . S
C688 C687 1.392 . S
C688 C689 1.385 . S
C688 C690 1.478 . S
C689 H683 0.930 . S
C689 C685 1.400 . S
C689 C688 1.385 . S
C690 C688 1.478 . S
C690 C692 1.381 . S
C690 C696 1.383 . S
C691 C687 1.495 . S
C691 H697 0.959 . S
C691 H698 0.961 . S
C691 H699 0.960 . S
C692 C690 1.381 . S
C692 C693 1.394 . S
C692 H700 0.930 . S
C693 C692 1.394 . S
C693 C694 1.383 . S
C693 H701 0.929 . S
C694 C693 1.383 . S
C694 C695 1.377 . S
C695 H679 0.930 . S
C695 C694 1.377 . S
C695 C696 1.379 . S
C696 H680 0.931 . S
C696 C690 1.383 . S
C696 C695 1.379 . S
H697 C691 0.959 . S
H698 C691 0.961 . S
H699 C691 0.960 . S
H700 C692 0.930 . S
H701 C693 0.929 . S
H702 C710 0.931 1_554 S
H703 C712 0.930 1_554 S
H704 C714 0.930 . S
H705 C717 0.929 . S
H706 C720 0.930 1_554 S
H707 C722 0.960 . S
H708 C722 0.960 . S
H709 C722 0.960 . S
C710 H702 0.931 1_556 S
C710 C711 1.377 . S
C710 C712 1.384 . S
C711 C710 1.377 . S
C711 C717 1.390 . S
C712 H703 0.930 1_556 S
C712 C710 1.384 . S
C712 C713 1.372 . S
C713 C712 1.372 . S
C713 C714 1.400 . S
C713 C718 1.490 . S
C714 H704 0.930 . S
C714 C713 1.400 . S
C714 C717 1.386 . S
H715 C731 0.930 . S
H716 C732 0.931 . S
C717 H705 0.929 . S
C717 C711 1.390 . S
C717 C714 1.386 . S
C718 C713 1.490 . S
C718 C720 1.395 . S
C718 C721 1.403 . S
H719 C725 0.930 . S
C720 H706 0.930 1_556 S
C720 C718 1.395 . S
C720 C723 1.391 1_556 S
C721 C718 1.403 . S
C721 C722 1.524 . S
C721 C725 1.400 . S
C722 H707 0.960 . S
C722 H708 0.960 . S
C722 H709 0.960 . S
C722 C721 1.524 . S
C723 C720 1.391 1_554 S
C723 C724 1.362 1_554 S
C723 C727 1.540 . S
C724 C723 1.362 1_556 S
C724 C725 1.385 . S
C724 C726 1.478 . S
C725 H719 0.930 . S
C725 C721 1.400 . S
C725 C724 1.385 . S
C726 C724 1.478 . S
C726 C728 1.381 1_556 S
C726 C732 1.383 . S
C727 C723 1.540 . S
C727 H733 0.959 . S
C727 H734 0.961 . S
C727 H735 0.960 . S
C728 C726 1.381 1_554 S
C728 C729 1.394 . S
C728 H736 0.930 . S
C729 C728 1.394 . S
C729 C730 1.383 1_554 S
C729 H737 0.929 . S
C730 C729 1.383 1_556 S
C730 C731 1.377 . S
C731 H715 0.930 . S
C731 C730 1.377 . S
C731 C732 1.379 . S
C732 H716 0.931 . S
C732 C726 1.383 . S
C732 C731 1.379 . S
H733 C727 0.959 . S
H734 C727 0.961 . S
H735 C727 0.960 . S
H736 C728 0.930 . S
H737 C729 0.929 . S
H738 C746 0.929 . S
H739 C748 0.930 . S
H740 C750 0.930 . S
H741 C753 0.929 . S
H742 C756 0.930 . S
H743 C758 0.960 . S
H744 C758 0.960 . S
H745 C758 0.960 . S
C746 H738 0.929 . S
C746 C747 1.377 . S
C746 C748 1.384 . S
C747 C746 1.377 . S
C747 C753 1.390 . S
C748 H739 0.930 . S
C748 C746 1.384 . S
C748 C749 1.372 . S
C749 C748 1.372 . S
C749 C750 1.400 . S
C749 C754 1.490 . S
C750 H740 0.930 . S
C750 C749 1.400 . S
C750 C753 1.386 . S
H751 C767 0.930 . S
H752 C768 0.931 . S
C753 H741 0.929 . S
C753 C747 1.390 . S
C753 C750 1.386 . S
C754 C749 1.490 . S
C754 C756 1.395 . S
C754 C757 1.403 . S
H755 C761 0.930 . S
C756 H742 0.930 . S
C756 C754 1.395 . S
C756 C759 1.403 . S
C757 C754 1.403 . S
C757 C758 1.524 . S
C757 C761 1.400 . S
C758 H743 0.960 . S
C758 H744 0.960 . S
C758 H745 0.960 . S
C758 C757 1.524 . S
C759 C756 1.403 . S
C759 C760 1.392 . S
C759 C763 1.495 . S
C760 C759 1.392 . S
C760 C761 1.385 . S
C760 C762 1.478 . S
C761 H755 0.930 . S
C761 C757 1.400 . S
C761 C760 1.385 . S
C762 C760 1.478 . S
C762 C764 1.381 . S
C762 C768 1.383 . S
C763 C759 1.495 . S
C763 H769 0.959 . S
C763 H770 0.961 . S
C763 H771 0.960 . S
C764 C762 1.381 . S
C764 C765 1.385 1_556 S
C764 H772 0.930 . S
C765 C764 1.385 1_554 S
C765 C766 1.384 . S
C765 H773 0.938 . S
C766 C765 1.384 . S
C766 C767 1.377 1_554 S
C767 H751 0.930 . S
C767 C766 1.377 1_556 S
C767 C768 1.379 . S
C768 H752 0.931 . S
C768 C762 1.383 . S
C768 C767 1.379 . S
H769 C763 0.959 . S
H770 C763 0.961 . S
H771 C763 0.960 . S
H772 C764 0.930 . S
H773 C765 0.938 . S
H774 C782 0.929 . S
H775 C784 0.930 . S
H776 C786 0.930 . S
H777 C789 0.929 . S
H778 C792 0.930 . S
H779 C794 0.960 . S
H780 C794 0.960 . S
H781 C794 0.960 . S
C782 H774 0.929 . S
C782 C783 1.377 . S
C782 C784 1.384 . S
C783 C782 1.377 . S
C783 C789 1.390 . S
C784 H775 0.930 . S
C784 C782 1.384 . S
C784 C785 1.372 . S
C785 C784 1.372 . S
C785 C786 1.400 . S
C785 C790 1.490 . S
C786 H776 0.930 . S
C786 C785 1.400 . S
C786 C789 1.386 . S
H787 C803 0.927 1_556 S
H788 C804 0.931 . S
C789 H777 0.929 . S
C789 C783 1.390 . S
C789 C786 1.386 . S
C790 C785 1.490 . S
C790 C792 1.395 1_556 S
C790 C793 1.403 . S
H791 C797 0.930 . S
C792 H778 0.930 . S
C792 C790 1.395 1_554 S
C792 C795 1.403 . S
C793 C790 1.403 . S
C793 C794 1.524 . S
C793 C797 1.400 . S
C794 H779 0.960 . S
C794 H780 0.960 . S
C794 H781 0.960 . S
C794 C793 1.524 . S
C795 C792 1.403 . S
C795 C796 1.392 1_554 S
C795 C799 1.495 . S
C796 C795 1.392 1_556 S
C796 C797 1.385 . S
C796 C798 1.478 1_556 S
C797 H791 0.930 . S
C797 C793 1.400 . S
C797 C796 1.385 . S
C798 C796 1.478 1_554 S
C798 C800 1.381 . S
C798 C804 1.383 1_554 S
C799 C795 1.495 . S
C799 H805 0.959 . S
C799 H806 0.961 . S
C799 H807 0.960 . S
C800 C798 1.381 . S
C800 C801 1.394 . S
C800 H808 0.930 . S
C801 C800 1.394 . S
C801 C802 1.383 . S
C801 H809 0.929 . S
C802 C801 1.383 . S
C802 C803 1.380 . S
C803 H787 0.927 1_554 S
C803 C802 1.380 . S
C803 C804 1.379 1_554 S
C804 H788 0.931 . S
C804 C798 1.383 1_556 S
C804 C803 1.379 1_556 S
H805 C799 0.959 . S
H806 C799 0.961 . S
H807 C799 0.960 . S
H808 C800 0.930 . S
H809 C801 0.929 . S
H810 C818 0.929 . S
H811 C820 0.930 . S
H812 C822 0.930 . S
H813 C825 0.929 . S
H814 C828 0.930 . S
H815 C830 0.960 . S
H816 C830 0.960 . S
H817 C830 0.960 . S
C818 H810 0.929 . S
C818 C819 1.377 . S
C818 C820 1.384 . S
C819 C818 1.377 . S
C819 C825 1.390 . S
C820 H811 0.930 . S
C820 C818 1.384 . S
C820 C821 1.372 . S
C821 C820 1.372 . S
C821 C822 1.400 . S
C821 C826 1.490 . S
C822 H812 0.930 . S
C822 C821 1.400 . S
C822 C825 1.386 . S
H823 C839 0.930 . S
H824 C840 0.931 . S
C825 H813 0.929 . S
C825 C819 1.390 . S
C825 C822 1.386 . S
C826 C821 1.490 . S
C826 C828 1.395 . S
C826 C829 1.403 . S
H827 C833 0.930 . S
C828 H814 0.930 . S
C828 C826 1.395 . S
C828 C831 1.403 . S
C829 C826 1.403 . S
C829 C830 1.524 . S
C829 C833 1.400 . S
C830 H815 0.960 . S
C830 H816 0.960 . S
C830 H817 0.960 . S
C830 C829 1.524 . S
C831 C828 1.403 . S
C831 C832 1.392 . S
C831 C835 1.495 . S
C832 C831 1.392 . S
C832 C833 1.385 . S
C832 C834 1.478 . S
C833 H827 0.930 . S
C833 C829 1.400 . S
C833 C832 1.385 . S
C834 C832 1.478 . S
C834 C836 1.381 . S
C834 C840 1.383 1_556 S
C835 C831 1.495 . S
C835 H841 0.959 . S
C835 H842 0.961 1_556 S
C835 H843 0.960 . S
C836 C834 1.381 . S
C836 C837 1.394 . S
C836 H844 0.930 . S
C837 C836 1.394 . S
C837 C838 1.418 . S
C837 H845 0.929 . S
C838 C837 1.418 . S
C838 C839 1.353 1_556 S
C839 H823 0.930 . S
C839 C838 1.353 1_554 S
C839 C840 1.379 . S
C840 H824 0.931 . S
C840 C834 1.383 1_554 S
C840 C839 1.379 . S
H841 C835 0.959 . S
H842 C835 0.961 1_554 S
H843 C835 0.960 . S
H844 C836 0.930 . S
H845 C837 0.929 . S
H846 C854 0.929 . S
H847 C856 0.930 . S
H848 C858 0.930 . S
H849 C861 0.929 . S
H850 C864 0.930 . S
H851 C866 0.960 . S
H852 C866 0.960 . S
H853 C866 0.960 . S
C854 H846 0.929 . S
C854 C855 1.377 . S
C854 C856 1.384 . S
C855 C854 1.377 . S
C855 C861 1.390 . S
C856 H847 0.930 . S
C856 C854 1.384 . S
C856 C857 1.372 . S
C857 C856 1.372 . S
C857 C858 1.400 . S
C857 C862 1.490 . S
C858 H848 0.930 . S
C858 C857 1.400 . S
C858 C861 1.386 . S
H859 C875 0.930 . S
H860 C876 0.931 . S
C861 H849 0.929 . S
C861 C855 1.390 . S
C861 C858 1.386 . S
C862 C857 1.490 . S
C862 C864 1.395 . S
C862 C865 1.403 . S
H863 C869 0.930 . S
C864 H850 0.930 . S
C864 C862 1.395 . S
C864 C867 1.403 . S
C865 C862 1.403 . S
C865 C866 1.524 . S
C865 C869 1.400 . S
C866 H851 0.960 . S
C866 H852 0.960 . S
C866 H853 0.960 . S
C866 C865 1.524 . S
C867 C864 1.403 . S
C867 C868 1.392 . S
C867 C871 1.495 . S
C868 C867 1.392 . S
C868 C869 1.385 . S
C868 C870 1.478 . S
C869 H863 0.930 . S
C869 C865 1.400 . S
C869 C868 1.385 . S
C870 C868 1.478 . S
C870 C872 1.381 . S
C870 C876 1.383 . S
C871 C867 1.495 . S
C871 H877 0.959 . S
C871 H878 0.961 . S
C871 H879 0.960 . S
C872 C870 1.381 . S
C872 C873 1.394 . S
C872 H880 0.930 . S
C873 C872 1.394 . S
C873 C874 1.383 . S
C873 H881 0.929 . S
C874 C873 1.383 . S
C874 C875 1.377 . S
C875 H859 0.930 . S
C875 C874 1.377 . S
C875 C876 1.379 . S
C876 H860 0.931 . S
C876 C870 1.383 . S
C876 C875 1.379 . S
H877 C871 0.959 . S
H878 C871 0.961 . S
H879 C871 0.960 . S
H880 C872 0.930 . S
H881 C873 0.929 . S
H882 C890 0.933 1_554 S
H883 C892 0.930 . S
H884 C894 0.930 . S
H885 C897 0.929 . S
H886 C900 0.930 . S
H887 C902 0.960 . S
H888 C902 0.960 . S
H889 C902 0.960 . S
C890 H882 0.933 1_556 S
C890 C891 1.373 . S
C890 C892 1.385 1_556 S
C891 C890 1.373 . S
C891 C897 1.390 . S
C892 H883 0.930 . S
C892 C890 1.385 1_554 S
C892 C893 1.372 1_554 S
C893 C892 1.372 1_556 S
C893 C894 1.400 . S
C893 C898 1.490 . S
C894 H884 0.930 . S
C894 C893 1.400 . S
C894 C897 1.386 . S
H895 C911 0.930 . S
H896 C912 0.931 . S
C897 H885 0.929 . S
C897 C891 1.390 . S
C897 C894 1.386 . S
C898 C893 1.490 . S
C898 C900 1.395 1_556 S
C898 C901 1.403 . S
H899 C905 0.930 . S
C900 H886 0.930 . S
C900 C898 1.395 1_554 S
C900 C903 1.403 . S
C901 C898 1.403 . S
C901 C902 1.524 . S
C901 C905 1.400 . S
C902 H887 0.960 . S
C902 H888 0.960 . S
C902 H889 0.960 . S
C902 C901 1.524 . S
C903 C900 1.403 . S
C903 C904 1.392 . S
C903 C907 1.495 . S
C904 C903 1.392 . S
C904 C905 1.385 1_554 S
C904 C906 1.478 . S
C905 H899 0.930 . S
C905 C901 1.400 . S
C905 C904 1.385 1_556 S
C906 C904 1.478 . S
C906 C908 1.381 . S
C906 C912 1.383 1_554 S
C907 C903 1.495 . S
C907 H913 0.959 . S
C907 H914 0.961 . S
C907 H915 0.960 . S
C908 C906 1.381 . S
C908 C909 1.394 . S
C908 H916 0.930 . S
C909 C908 1.394 . S
C909 C910 1.383 . S
C909 H917 0.929 . S
C910 C909 1.383 . S
C910 C911 1.377 1_554 S
C911 H895 0.930 . S
C911 C910 1.377 1_556 S
C911 C912 1.379 . S
C912 H896 0.931 . S
C912 C906 1.383 1_556 S
C912 C911 1.379 . S
H913 C907 0.959 . S
H914 C907 0.961 . S
H915 C907 0.960 . S
H916 C908 0.930 . S
H917 C909 0.929 . S
H918 C926 0.929 . S
H919 C928 0.930 . S
H920 C930 0.930 . S
H921 C933 0.929 . S
H922 C936 0.930 . S
H923 C938 0.960 . S
H924 C938 0.960 . S
H925 C938 0.960 . S
C926 H918 0.929 . S
C926 C927 1.377 . S
C926 C928 1.384 . S
C927 C926 1.377 . S
C927 C933 1.390 . S
C928 H919 0.930 . S
C928 C926 1.384 . S
C928 C929 1.372 . S
C929 C928 1.372 . S
C929 C930 1.400 . S
C929 C934 1.490 . S
C930 H920 0.930 . S
C930 C929 1.400 . S
C930 C933 1.386 . S
H931 C947 0.930 . S
H932 C948 0.931 . S
C933 H921 0.929 . S
C933 C927 1.390 . S
C933 C930 1.386 . S
C934 C929 1.490 . S
C934 C936 1.395 . S
C934 C937 1.403 . S
H935 C941 0.930 . S
C936 H922 0.930 . S
C936 C934 1.395 . S
C936 C939 1.403 . S
C937 C934 1.403 . S
C937 C938 1.524 . S
C937 C941 1.400 . S
C938 H923 0.960 . S
C938 H924 0.960 . S
C938 H925 0.960 . S
C938 C937 1.524 . S
C939 C936 1.403 . S
C939 C940 1.392 . S
C939 C943 1.495 1_554 S
C940 C939 1.392 . S
C940 C941 1.385 . S
C940 C942 1.478 . S
C941 H935 0.930 . S
C941 C937 1.400 . S
C941 C940 1.385 . S
C942 C940 1.478 . S
C942 C944 1.381 . S
C942 C948 1.383 . S
C943 C939 1.495 1_556 S
C943 H949 0.959 . S
C943 H950 0.961 . S
C943 H951 0.960 . S
C944 C942 1.381 . S
C944 C945 1.394 . S
C944 H952 0.930 . S
C945 C944 1.394 . S
C945 C946 1.383 . S
C945 H953 0.929 . S
C946 C945 1.383 . S
C946 C947 1.377 . S
C947 H931 0.930 . S
C947 C946 1.377 . S
C947 C948 1.379 . S
C948 H932 0.931 . S
C948 C942 1.383 . S
C948 C947 1.379 . S
H949 C943 0.959 . S
H950 C943 0.961 . S
H951 C943 0.960 . S
H952 C944 0.930 . S
H953 C945 0.929 . S
H954 C962 0.929 . S
H955 C964 0.930 . S
H956 C966 0.930 . S
H957 C969 0.929 . S
H958 C972 0.930 . S
H959 C974 0.960 . S
H960 C974 0.960 . S
H961 C974 0.960 . S
C962 H954 0.929 . S
C962 C963 1.377 . S
C962 C964 1.384 . S
C963 C962 1.377 . S
C963 C969 1.390 . S
C964 H955 0.930 . S
C964 C962 1.384 . S
C964 C965 1.372 . S
C965 C964 1.372 . S
C965 C966 1.400 . S
C965 C970 1.490 . S
C966 H956 0.930 . S
C966 C965 1.400 . S
C966 C969 1.386 . S
H967 C983 0.930 . S
H968 C984 0.931 . S
C969 H957 0.929 . S
C969 C963 1.390 . S
C969 C966 1.386 . S
C970 C965 1.490 . S
C970 C972 1.395 . S
C970 C973 1.403 . S
H971 C977 0.930 . S
C972 H958 0.930 . S
C972 C970 1.395 . S
C972 C975 1.403 . S
C973 C970 1.403 . S
C973 C974 1.524 . S
C973 C977 1.400 . S
C974 H959 0.960 . S
C974 H960 0.960 . S
C974 H961 0.960 . S
C974 C973 1.524 . S
C975 C972 1.403 . S
C975 C976 1.392 . S
C975 C979 1.495 . S
C976 C975 1.392 . S
C976 C977 1.385 . S
C976 C978 1.478 . S
C977 H971 0.930 . S
C977 C973 1.400 . S
C977 C976 1.385 . S
C978 C976 1.478 . S
C978 C980 1.381 . S
C978 C984 1.383 . S
C979 C975 1.495 . S
C979 H985 0.959 . S
C979 H986 0.961 . S
C979 H987 0.960 . S
C980 C978 1.381 . S
C980 C981 1.394 . S
C980 H988 0.930 . S
C981 C980 1.394 . S
C981 C982 1.383 . S
C981 H989 0.929 . S
C982 C981 1.383 . S
C982 C983 1.377 . S
C983 H967 0.930 . S
C983 C982 1.377 . S
C983 C984 1.379 . S
C984 H968 0.931 . S
C984 C978 1.383 . S
C984 C983 1.379 . S
H985 C979 0.959 . S
H986 C979 0.961 . S
H987 C979 0.960 . S
H988 C980 0.930 . S
H989 C981 0.929 . S
H990 C998 0.929 . S
H991 C1000 0.930 . S
H992 C1002 0.930 . S
H993 C1005 0.929 . S
H994 C1008 0.930 . S
H995 C1010 0.960 . S
H996 C1010 0.960 . S
H997 C1010 0.960 . S
C998 H990 0.929 . S
C998 C999 1.377 . S
C998 C1000 1.384 . S
C999 C998 1.377 . S
C999 C1005 1.390 . S
C1000 H991 0.930 . S
C1000 C998 1.384 . S
C1000 C1001 1.372 . S
C1001 C1000 1.372 . S
C1001 C1002 1.400 . S
C1001 C1006 1.490 . S
C1002 H992 0.930 . S
C1002 C1001 1.400 . S
C1002 C1005 1.386 . S
H1003 C1019 0.930 . S
H1004 C1020 0.931 . S
C1005 H993 0.929 . S
C1005 C999 1.390 . S
C1005 C1002 1.386 . S
C1006 C1001 1.490 . S
C1006 C1008 1.395 . S
C1006 C1009 1.403 . S
H1007 C1013 0.930 . S
C1008 H994 0.930 . S
C1008 C1006 1.395 . S
C1008 C1011 1.403 . S
C1009 C1006 1.403 . S
C1009 C1010 1.524 . S
C1009 C1013 1.400 . S
C1010 H995 0.960 . S
C1010 H996 0.960 . S
C1010 H997 0.960 . S
C1010 C1009 1.524 . S
C1011 C1008 1.403 . S
C1011 C1012 1.392 . S
C1011 C1015 1.495 . S
C1012 C1011 1.392 . S
C1012 C1013 1.385 . S
C1012 C1014 1.478 . S
C1013 H1007 0.930 . S
C1013 C1009 1.400 . S
C1013 C1012 1.385 . S
C1014 C1012 1.478 . S
C1014 C1016 1.381 . S
C1014 C1020 1.383 . S
C1015 C1011 1.495 . S
C1015 H1021 0.959 . S
C1015 H1022 0.961 . S
C1015 H1023 0.960 . S
C1016 C1014 1.381 . S
C1016 C1017 1.394 . S
C1016 H1024 0.935 1_554 S
C1017 C1016 1.394 . S
C1017 C1018 1.383 . S
C1017 H1025 0.929 1_554 S
C1018 C1017 1.383 . S
C1018 C1019 1.377 . S
C1019 H1003 0.930 . S
C1019 C1018 1.377 . S
C1019 C1020 1.379 . S
C1020 H1004 0.931 . S
C1020 C1014 1.383 . S
C1020 C1019 1.379 . S
H1021 C1015 0.959 . S
H1022 C1015 0.961 . S
H1023 C1015 0.960 . S
H1024 C1016 0.935 1_556 S
H1025 C1017 0.929 1_556 S
H1026 C1034 0.929 . S
H1027 C1036 0.930 . S
H1028 C1038 0.930 . S
H1029 C1041 0.929 . S
H1030 C1044 0.922 1_655 S
H1031 C1046 0.960 . S
H1032 C1046 0.960 . S
H1033 C1046 0.960 . S
C1034 H1026 0.929 . S
C1034 C1035 1.377 . S
C1034 C1036 1.384 . S
C1035 C1034 1.377 . S
C1035 C1041 1.390 . S
C1036 H1027 0.930 . S
C1036 C1034 1.384 . S
C1036 C1037 1.372 . S
C1037 C1036 1.372 . S
C1037 C1038 1.400 . S
C1037 C1042 1.490 . S
C1038 H1028 0.930 . S
C1038 C1037 1.400 . S
C1038 C1041 1.386 . S
H1039 C1055 0.930 . S
H1040 C1056 0.931 . S
C1041 H1029 0.929 . S
C1041 C1035 1.390 . S
C1041 C1038 1.386 . S
C1042 C1037 1.490 . S
C1042 C1044 1.393 1_655 S
C1042 C1045 1.403 . S
H1043 C1049 0.930 . S
C1044 H1030 0.922 1_455 S
C1044 C1042 1.393 1_455 S
C1044 C1047 1.413 . S
C1045 C1042 1.403 . S
C1045 C1046 1.524 . S
C1045 C1049 1.400 1_655 S
C1046 H1031 0.960 . S
C1046 H1032 0.960 . S
C1046 H1033 0.960 . S
C1046 C1045 1.524 . S
C1047 C1044 1.413 . S
C1047 C1048 1.392 . S
C1047 C1051 1.495 . S
C1048 C1047 1.392 . S
C1048 C1049 1.385 . S
C1048 C1050 1.478 . S
C1049 H1043 0.930 . S
C1049 C1045 1.400 1_455 S
C1049 C1048 1.385 . S
C1050 C1048 1.478 . S
C1050 C1052 1.381 . S
C1050 C1056 1.383 . S
C1051 C1047 1.495 . S
C1051 H1057 0.959 . S
C1051 H1058 0.961 . S
C1051 H1059 0.960 . S
C1052 C1050 1.381 . S
C1052 C1053 1.394 . S
C1052 H1060 0.930 . S
C1053 C1052 1.394 . S
C1053 C1054 1.383 . S
C1053 H1061 0.929 . S
C1054 C1053 1.383 . S
C1054 C1055 1.377 . S
C1055 H1039 0.930 . S
C1055 C1054 1.377 . S
C1055 C1056 1.379 . S
C1056 H1040 0.931 . S
C1056 C1050 1.383 . S
C1056 C1055 1.379 . S
H1057 C1051 0.959 . S
H1058 C1051 0.961 . S
H1059 C1051 0.960 . S
H1060 C1052 0.930 . S
H1061 C1053 0.929 . S
H1062 C1070 0.929 . S
H1063 C1072 0.930 . S
H1064 C1074 0.930 . S
H1065 C1077 0.929 . S
H1066 C1080 0.930 . S
H1067 C1082 0.960 . S
H1068 C1082 0.960 . S
H1069 C1082 0.960 . S
C1070 H1062 0.929 . S
C1070 C1071 1.377 . S
C1070 C1072 1.384 . S
C1071 C1070 1.377 . S
C1071 C1077 1.390 . S
C1072 H1063 0.930 . S
C1072 C1070 1.384 . S
C1072 C1073 1.372 . S
C1073 C1072 1.372 . S
C1073 C1074 1.400 . S
C1073 C1078 1.490 . S
C1074 H1064 0.930 . S
C1074 C1073 1.400 . S
C1074 C1077 1.386 . S
H1075 C1091 0.930 . S
H1076 C1092 0.931 . S
C1077 H1065 0.929 . S
C1077 C1071 1.390 . S
C1077 C1074 1.386 . S
C1078 C1073 1.490 . S
C1078 C1080 1.395 . S
C1078 C1081 1.403 . S
H1079 C1085 0.930 . S
C1080 H1066 0.930 . S
C1080 C1078 1.395 . S
C1080 C1083 1.403 . S
C1081 C1078 1.403 . S
C1081 C1082 1.524 . S
C1081 C1085 1.400 . S
C1082 H1067 0.960 . S
C1082 H1068 0.960 . S
C1082 H1069 0.960 . S
C1082 C1081 1.524 . S
C1083 C1080 1.403 . S
C1083 C1084 1.392 . S
C1083 C1087 1.495 . S
C1084 C1083 1.392 . S
C1084 C1085 1.385 . S
C1084 C1086 1.478 . S
C1085 H1079 0.930 . S
C1085 C1081 1.400 . S
C1085 C1084 1.385 . S
C1086 C1084 1.478 . S
C1086 C1088 1.381 . S
C1086 C1092 1.383 . S
C1087 C1083 1.495 . S
C1087 H1093 0.959 . S
C1087 H1094 0.961 . S
C1087 H1095 0.960 . S
C1088 C1086 1.381 . S
C1088 C1089 1.394 . S
C1088 H1096 0.930 . S
C1089 C1088 1.394 . S
C1089 C1090 1.383 . S
C1089 H1097 0.929 . S
C1090 C1089 1.383 . S
C1090 C1091 1.377 . S
C1091 H1075 0.930 . S
C1091 C1090 1.377 . S
C1091 C1092 1.379 . S
C1092 H1076 0.931 . S
C1092 C1086 1.383 . S
C1092 C1091 1.379 . S
H1093 C1087 0.959 . S
H1094 C1087 0.961 . S
H1095 C1087 0.960 . S
H1096 C1088 0.930 . S
H1097 C1089 0.929 . S
H1098 C1106 0.929 . S
H1099 C1108 0.930 . S
H1100 C1110 0.930 . S
H1101 C1113 0.929 . S
H1102 C1116 0.930 . S
H1103 C1118 0.972 . S
H1104 C1118 0.960 . S
H1105 C1118 0.960 . S
C1106 H1098 0.929 . S
C1106 C1107 1.377 . S
C1106 C1108 1.384 . S
C1107 C1106 1.377 . S
C1107 C1113 1.390 . S
C1108 H1099 0.930 . S
C1108 C1106 1.384 . S
C1108 C1109 1.372 . S
C1109 C1108 1.372 . S
C1109 C1110 1.400 . S
C1109 C1114 1.490 . S
C1110 H1100 0.930 . S
C1110 C1109 1.400 . S
C1110 C1113 1.386 . S
H1111 C1127 0.930 . S
H1112 C1128 0.931 . S
C1113 H1101 0.929 . S
C1113 C1107 1.390 . S
C1113 C1110 1.386 . S
C1114 C1109 1.490 . S
C1114 C1116 1.395 . S
C1114 C1117 1.441 . S
H1115 C1121 0.930 . S
C1116 H1102 0.930 . S
C1116 C1114 1.395 . S
C1116 C1119 1.403 1_545 S
C1117 C1114 1.441 . S
C1117 C1118 1.526 . S
C1117 C1121 1.359 1_545 S
C1118 H1103 0.972 . S
C1118 H1104 0.960 . S
C1118 H1105 0.960 . S
C1118 C1117 1.526 . S
C1119 C1116 1.403 1_565 S
C1119 C1120 1.392 . S
C1119 C1123 1.495 . S
C1120 C1119 1.392 . S
C1120 C1121 1.385 . S
C1120 C1122 1.478 . S
C1121 H1115 0.930 . S
C1121 C1117 1.359 1_565 S
C1121 C1120 1.385 . S
C1122 C1120 1.478 . S
C1122 C1124 1.381 . S
C1122 C1128 1.383 . S
C1123 C1119 1.495 . S
C1123 H1129 0.959 . S
C1123 H1130 0.961 . S
C1123 H1131 0.960 . S
C1124 C1122 1.381 . S
C1124 C1125 1.394 . S
C1124 H1132 0.930 . S
C1125 C1124 1.394 . S
C1125 C1126 1.383 . S
C1125 H1133 0.929 . S
C1126 C1125 1.383 . S
C1126 C1127 1.377 . S
C1127 H1111 0.930 . S
C1127 C1126 1.377 . S
C1127 C1128 1.379 . S
C1128 H1112 0.931 . S
C1128 C1122 1.383 . S
C1128 C1127 1.379 . S
H1129 C1123 0.959 . S
H1130 C1123 0.961 . S
H1131 C1123 0.960 . S
H1132 C1124 0.930 . S
H1133 C1125 0.929 . S
H1134 C1142 0.929 . S
H1135 C1144 0.930 . S
H1136 C1146 0.930 . S
H1137 C1149 0.929 . S
H1138 C1152 0.930 . S
H1139 C1154 0.960 . S
H1140 C1154 0.960 . S
H1141 C1154 0.960 . S
C1142 H1134 0.929 . S
C1142 C1143 1.377 . S
C1142 C1144 1.384 . S
C1143 C1142 1.377 . S
C1143 C1149 1.390 . S
C1144 H1135 0.930 . S
C1144 C1142 1.384 . S
C1144 C1145 1.372 . S
C1145 C1144 1.372 . S
C1145 C1146 1.400 . S
C1145 C1150 1.490 . S
C1146 H1136 0.930 . S
C1146 C1145 1.400 . S
C1146 C1149 1.386 . S
H1147 C1163 0.930 . S
H1148 C1164 0.931 . S
C1149 H1137 0.929 . S
C1149 C1143 1.390 . S
C1149 C1146 1.386 . S
C1150 C1145 1.490 . S
C1150 C1152 1.395 . S
C1150 C1153 1.403 . S
H1151 C1157 0.930 . S
C1152 H1138 0.930 . S
C1152 C1150 1.395 . S
C1152 C1155 1.403 . S
C1153 C1150 1.403 . S
C1153 C1154 1.524 . S
C1153 C1157 1.400 . S
C1154 H1139 0.960 . S
C1154 H1140 0.960 . S
C1154 H1141 0.960 . S
C1154 C1153 1.524 . S
C1155 C1152 1.403 . S
C1155 C1156 1.392 . S
C1155 C1159 1.495 . S
C1156 C1155 1.392 . S
C1156 C1157 1.385 . S
C1156 C1158 1.478 . S
C1157 H1151 0.930 . S
C1157 C1153 1.400 . S
C1157 C1156 1.385 . S
C1158 C1156 1.478 . S
C1158 C1160 1.381 . S
C1158 C1164 1.383 . S
C1159 C1155 1.495 . S
C1159 H1165 0.959 . S
C1159 H1166 0.961 . S
C1159 H1167 0.960 . S
C1160 C1158 1.381 . S
C1160 C1161 1.394 . S
C1160 H1168 0.930 . S
C1161 C1160 1.394 . S
C1161 C1162 1.383 . S
C1161 H1169 0.929 . S
C1162 C1161 1.383 . S
C1162 C1163 1.377 . S
C1163 H1147 0.930 . S
C1163 C1162 1.377 . S
C1163 C1164 1.379 . S
C1164 H1148 0.931 . S
C1164 C1158 1.383 . S
C1164 C1163 1.379 . S
H1165 C1159 0.959 . S
H1166 C1159 0.961 . S
H1167 C1159 0.960 . S
H1168 C1160 0.930 . S
H1169 C1161 0.929 . S
H1170 C1178 0.929 . S
H1171 C1180 0.930 . S
H1172 C1182 0.930 . S
H1173 C1185 0.929 . S
H1174 C1188 0.930 . S
H1175 C1190 0.960 . S
H1176 C1190 0.960 . S
H1177 C1190 0.960 . S
C1178 H1170 0.929 . S
C1178 C1179 1.377 . S
C1178 C1180 1.384 . S
C1179 C1178 1.377 . S
C1179 C1185 1.390 . S
C1180 H1171 0.930 . S
C1180 C1178 1.384 . S
C1180 C1181 1.372 . S
C1181 C1180 1.372 . S
C1181 C1182 1.400 . S
C1181 C1186 1.490 . S
C1182 H1172 0.930 . S
C1182 C1181 1.400 . S
C1182 C1185 1.386 . S
H1183 C1199 0.930 . S
H1184 C1200 0.931 . S
C1185 H1173 0.929 . S
C1185 C1179 1.390 . S
C1185 C1182 1.386 . S
C1186 C1181 1.490 . S
C1186 C1188 1.395 . S
C1186 C1189 1.403 . S
H1187 C1193 0.930 . S
C1188 H1174 0.930 . S
C1188 C1186 1.395 . S
C1188 C1191 1.403 . S
C1189 C1186 1.403 . S
C1189 C1190 1.524 . S
C1189 C1193 1.400 . S
C1190 H1175 0.960 . S
C1190 H1176 0.960 . S
C1190 H1177 0.960 . S
C1190 C1189 1.524 . S
C1191 C1188 1.403 . S
C1191 C1192 1.392 . S
C1191 C1195 1.495 . S
C1192 C1191 1.392 . S
C1192 C1193 1.385 . S
C1192 C1194 1.478 . S
C1193 H1187 0.930 . S
C1193 C1189 1.400 . S
C1193 C1192 1.385 . S
C1194 C1192 1.478 . S
C1194 C1196 1.381 . S
C1194 C1200 1.383 . S
C1195 C1191 1.495 . S
C1195 H1201 0.959 . S
C1195 H1202 0.961 . S
C1195 H1203 0.960 . S
C1196 C1194 1.381 . S
C1196 C1197 1.394 . S
C1196 H1204 0.930 . S
C1197 C1196 1.394 . S
C1197 C1198 1.383 . S
C1197 H1205 0.929 . S
C1198 C1197 1.383 . S
C1198 C1199 1.377 . S
C1199 H1183 0.930 . S
C1199 C1198 1.377 . S
C1199 C1200 1.379 . S
C1200 H1184 0.931 . S
C1200 C1194 1.383 . S
C1200 C1199 1.379 . S
H1201 C1195 0.959 . S
H1202 C1195 0.961 . S
H1203 C1195 0.960 . S
H1204 C1196 0.930 . S
H1205 C1197 0.929 . S
H1206 C1214 0.929 . S
H1207 C1216 0.930 . S
H1208 C1218 0.930 . S
H1209 C1221 0.929 . S
H1210 C1224 0.930 . S
H1211 C1226 0.960 . S
H1212 C1226 0.960 . S
H1213 C1226 0.960 . S
C1214 H1206 0.929 . S
C1214 C1215 1.377 . S
C1214 C1216 1.384 . S
C1215 C1214 1.377 . S
C1215 C1221 1.390 . S
C1216 H1207 0.930 . S
C1216 C1214 1.384 . S
C1216 C1217 1.372 . S
C1217 C1216 1.372 . S
C1217 C1218 1.400 . S
C1217 C1222 1.490 . S
C1218 H1208 0.930 . S
C1218 C1217 1.400 . S
C1218 C1221 1.386 . S
H1219 C1235 0.930 . S
H1220 C1236 0.931 . S
C1221 H1209 0.929 . S
C1221 C1215 1.390 . S
C1221 C1218 1.386 . S
C1222 C1217 1.490 . S
C1222 C1224 1.395 . S
C1222 C1225 1.403 . S
H1223 C1229 0.930 . S
C1224 H1210 0.930 . S
C1224 C1222 1.395 . S
C1224 C1227 1.403 . S
C1225 C1222 1.403 . S
C1225 C1226 1.524 . S
C1225 C1229 1.400 . S
C1226 H1211 0.960 . S
C1226 H1212 0.960 . S
C1226 H1213 0.960 . S
C1226 C1225 1.524 . S
C1227 C1224 1.403 . S
C1227 C1228 1.392 . S
C1227 C1231 1.495 . S
C1228 C1227 1.392 . S
C1228 C1229 1.385 . S
C1228 C1230 1.478 . S
C1229 H1223 0.930 . S
C1229 C1225 1.400 . S
C1229 C1228 1.385 . S
C1230 C1228 1.478 . S
C1230 C1232 1.381 . S
C1230 C1236 1.383 . S
C1231 C1227 1.495 . S
C1231 H1237 0.959 . S
C1231 H1238 0.961 . S
C1231 H1239 0.960 . S
C1232 C1230 1.381 . S
C1232 C1233 1.394 . S
C1232 H1240 0.930 . S
C1233 C1232 1.394 . S
C1233 C1234 1.383 . S
C1233 H1241 0.929 . S
C1234 C1233 1.383 . S
C1234 C1235 1.377 . S
C1235 H1219 0.930 . S
C1235 C1234 1.377 . S
C1235 C1236 1.379 . S
C1236 H1220 0.931 . S
C1236 C1230 1.383 . S
C1236 C1235 1.379 . S
H1237 C1231 0.959 . S
H1238 C1231 0.961 . S
H1239 C1231 0.960 . S
H1240 C1232 0.930 . S
H1241 C1233 0.929 . S
H1242 C1250 0.929 . S
H1243 C1252 0.930 . S
H1244 C1254 0.930 . S
H1245 C1257 0.929 . S
H1246 C1260 0.930 . S
H1247 C1262 0.960 . S
H1248 C1262 0.960 . S
H1249 C1262 0.960 . S
C1250 H1242 0.929 . S
C1250 C1251 1.377 . S
C1250 C1252 1.384 . S
C1251 C1250 1.377 . S
C1251 C1257 1.390 . S
C1252 H1243 0.930 . S
C1252 C1250 1.384 . S
C1252 C1253 1.372 . S
C1253 C1252 1.372 . S
C1253 C1254 1.400 . S
C1253 C1258 1.490 . S
C1254 H1244 0.930 . S
C1254 C1253 1.400 . S
C1254 C1257 1.386 . S
H1255 C1271 0.930 . S
H1256 C1272 0.931 . S
C1257 H1245 0.929 . S
C1257 C1251 1.390 . S
C1257 C1254 1.386 . S
C1258 C1253 1.490 . S
C1258 C1260 1.395 . S
C1258 C1261 1.403 . S
H1259 C1265 0.930 . S
C1260 H1246 0.930 . S
C1260 C1258 1.395 . S
C1260 C1263 1.403 . S
C1261 C1258 1.403 . S
C1261 C1262 1.524 . S
C1261 C1265 1.400 . S
C1262 H1247 0.960 . S
C1262 H1248 0.960 . S
C1262 H1249 0.960 . S
C1262 C1261 1.524 . S
C1263 C1260 1.403 . S
C1263 C1264 1.392 . S
C1263 C1267 1.495 . S
C1264 C1263 1.392 . S
C1264 C1265 1.385 . S
C1264 C1266 1.478 . S
C1265 H1259 0.930 . S
C1265 C1261 1.400 . S
C1265 C1264 1.385 . S
C1266 C1264 1.478 . S
C1266 C1268 1.381 . S
C1266 C1272 1.383 . S
C1267 C1263 1.495 . S
C1267 H1273 0.959 . S
C1267 H1274 0.961 . S
C1267 H1275 0.960 . S
C1268 C1266 1.381 . S
C1268 C1269 1.394 . S
C1268 H1276 0.930 . S
C1269 C1268 1.394 . S
C1269 C1270 1.383 . S
C1269 H1277 0.929 . S
C1270 C1269 1.383 . S
C1270 C1271 1.377 . S
C1271 H1255 0.930 . S
C1271 C1270 1.377 . S
C1271 C1272 1.379 . S
C1272 H1256 0.931 . S
C1272 C1266 1.383 . S
C1272 C1271 1.379 . S
H1273 C1267 0.959 . S
H1274 C1267 0.961 . S
H1275 C1267 0.960 . S
H1276 C1268 0.930 . S
H1277 C1269 0.929 . S
H1278 C1286 0.929 . S
H1279 C1288 0.930 . S
H1280 C1290 0.930 . S
H1281 C1293 0.929 . S
H1282 C1296 0.930 . S
H1283 C1298 0.960 . S
H1284 C1298 0.960 . S
H1285 C1298 0.960 . S
C1286 H1278 0.929 . S
C1286 C1287 1.377 . S
C1286 C1288 1.384 . S
C1287 C1286 1.377 . S
C1287 C1293 1.390 . S
C1288 H1279 0.930 . S
C1288 C1286 1.384 . S
C1288 C1289 1.372 . S
C1289 C1288 1.372 . S
C1289 C1290 1.400 . S
C1289 C1294 1.490 . S
C1290 H1280 0.930 . S
C1290 C1289 1.400 . S
C1290 C1293 1.386 . S
H1291 C1307 0.930 . S
H1292 C1308 0.931 . S
C1293 H1281 0.929 . S
C1293 C1287 1.390 . S
C1293 C1290 1.386 . S
C1294 C1289 1.490 . S
C1294 C1296 1.395 . S
C1294 C1297 1.403 . S
H1295 C1301 0.930 . S
C1296 H1282 0.930 . S
C1296 C1294 1.395 . S
C1296 C1299 1.403 . S
C1297 C1294 1.403 . S
C1297 C1298 1.524 . S
C1297 C1301 1.400 . S
C1298 H1283 0.960 . S
C1298 H1284 0.960 . S
C1298 H1285 0.960 . S
C1298 C1297 1.524 . S
C1299 C1296 1.403 . S
C1299 C1300 1.392 . S
C1299 C1303 1.495 . S
C1300 C1299 1.392 . S
C1300 C1301 1.385 . S
C1300 C1302 1.478 . S
C1301 H1295 0.930 . S
C1301 C1297 1.400 . S
C1301 C1300 1.385 . S
C1302 C1300 1.478 . S
C1302 C1304 1.381 . S
C1302 C1308 1.383 . S
C1303 C1299 1.495 . S
C1303 H1309 0.959 . S
C1303 H1310 0.961 . S
C1303 H1311 0.960 . S
C1304 C1302 1.381 . S
C1304 C1305 1.394 . S
C1304 H1312 0.930 . S
C1305 C1304 1.394 . S
C1305 C1306 1.383 . S
C1305 H1313 0.929 . S
C1306 C1305 1.383 . S
C1306 C1307 1.377 . S
C1307 H1291 0.930 . S
C1307 C1306 1.377 . S
C1307 C1308 1.379 . S
C1308 H1292 0.931 . S
C1308 C1302 1.383 . S
C1308 C1307 1.379 . S
H1309 C1303 0.959 . S
H1310 C1303 0.961 . S
H1311 C1303 0.960 . S
H1312 C1304 0.930 . S
H1313 C1305 0.929 . S
H1314 C1322 0.929 . S
H1315 C1324 0.930 . S
H1316 C1326 0.930 . S
H1317 C1329 0.929 . S
H1318 C1332 0.930 . S
H1319 C1334 0.960 . S
H1320 C1334 0.960 . S
H1321 C1334 0.960 . S
C1322 H1314 0.929 . S
C1322 C1323 1.377 . S
C1322 C1324 1.384 . S
C1323 C1322 1.377 . S
C1323 C1329 1.390 . S
C1324 H1315 0.930 . S
C1324 C1322 1.384 . S
C1324 C1325 1.372 . S
C1325 C1324 1.372 . S
C1325 C1326 1.400 . S
C1325 C1330 1.490 . S
C1326 H1316 0.930 . S
C1326 C1325 1.400 . S
C1326 C1329 1.386 . S
H1327 C1343 0.930 . S
H1328 C1344 0.931 . S
C1329 H1317 0.929 . S
C1329 C1323 1.390 . S
C1329 C1326 1.386 . S
C1330 C1325 1.490 . S
C1330 C1332 1.395 . S
C1330 C1333 1.403 . S
H1331 C1337 0.930 . S
C1332 H1318 0.930 . S
C1332 C1330 1.395 . S
C1332 C1335 1.403 . S
C1333 C1330 1.403 . S
C1333 C1334 1.524 . S
C1333 C1337 1.400 . S
C1334 H1319 0.960 . S
C1334 H1320 0.960 . S
C1334 H1321 0.960 . S
C1334 C1333 1.524 . S
C1335 C1332 1.403 . S
C1335 C1336 1.392 . S
C1335 C1339 1.495 . S
C1336 C1335 1.392 . S
C1336 C1337 1.385 . S
C1336 C1338 1.478 . S
C1337 H1331 0.930 . S
C1337 C1333 1.400 . S
C1337 C1336 1.385 . S
C1338 C1336 1.478 . S
C1338 C1340 1.381 . S
C1338 C1344 1.383 . S
C1339 C1335 1.495 . S
C1339 H1345 0.959 . S
C1339 H1346 0.961 . S
C1339 H1347 0.960 . S
C1340 C1338 1.381 . S
C1340 C1341 1.394 . S
C1340 H1348 0.930 . S
C1341 C1340 1.394 . S
C1341 C1342 1.383 . S
C1341 H1349 0.929 . S
C1342 C1341 1.383 . S
C1342 C1343 1.377 . S
C1343 H1327 0.930 . S
C1343 C1342 1.377 . S
C1343 C1344 1.379 . S
C1344 H1328 0.931 . S
C1344 C1338 1.383 . S
C1344 C1343 1.379 . S
H1345 C1339 0.959 . S
H1346 C1339 0.961 . S
H1347 C1339 0.960 . S
H1348 C1340 0.930 . S
H1349 C1341 0.929 . S
H1350 C1358 0.929 . S
H1351 C1360 0.930 . S
H1352 C1362 0.930 . S
H1353 C1365 0.929 . S
H1354 C1368 0.930 . S
H1355 C1370 0.960 . S
H1356 C1370 0.960 . S
H1357 C1370 0.960 . S
C1358 H1350 0.929 . S
C1358 C1359 1.377 . S
C1358 C1360 1.384 . S
C1359 C1358 1.377 . S
C1359 C1365 1.390 . S
C1360 H1351 0.930 . S
C1360 C1358 1.384 . S
C1360 C1361 1.372 . S
C1361 C1360 1.372 . S
C1361 C1362 1.400 . S
C1361 C1366 1.490 . S
C1362 H1352 0.930 . S
C1362 C1361 1.400 . S
C1362 C1365 1.386 . S
H1363 C1379 0.930 . S
H1364 C1380 0.931 . S
C1365 H1353 0.929 . S
C1365 C1359 1.390 . S
C1365 C1362 1.386 . S
C1366 C1361 1.490 . S
C1366 C1368 1.395 . S
C1366 C1369 1.403 . S
H1367 C1373 0.930 . S
C1368 H1354 0.930 . S
C1368 C1366 1.395 . S
C1368 C1371 1.403 1_545 S
C1369 C1366 1.403 . S
C1369 C1370 1.524 . S
C1369 C1373 1.400 1_545 S
C1370 H1355 0.960 . S
C1370 H1356 0.960 . S
C1370 H1357 0.960 . S
C1370 C1369 1.524 . S
C1371 C1368 1.403 1_565 S
C1371 C1372 1.392 . S
C1371 C1375 1.495 . S
C1372 C1371 1.392 . S
C1372 C1373 1.385 . S
C1372 C1374 1.478 . S
C1373 H1367 0.930 . S
C1373 C1369 1.400 1_565 S
C1373 C1372 1.385 . S
C1374 C1372 1.478 . S
C1374 C1376 1.381 . S
C1374 C1380 1.383 . S
C1375 C1371 1.495 . S
C1375 H1381 0.959 . S
C1375 H1382 0.961 . S
C1375 H1383 0.960 . S
C1376 C1374 1.381 . S
C1376 C1377 1.394 . S
C1376 H1384 0.930 . S
C1377 C1376 1.394 . S
C1377 C1378 1.383 . S
C1377 H1385 0.929 . S
C1378 C1377 1.383 . S
C1378 C1379 1.377 . S
C1379 H1363 0.930 . S
C1379 C1378 1.377 . S
C1379 C1380 1.379 . S
C1380 H1364 0.931 . S
C1380 C1374 1.383 . S
C1380 C1379 1.379 . S
H1381 C1375 0.959 . S
H1382 C1375 0.961 . S
H1383 C1375 0.960 . S
H1384 C1376 0.930 . S
H1385 C1377 0.929 . S
H1386 C1394 0.929 . S
H1387 C1396 0.930 . S
H1388 C1398 0.930 . S
H1389 C1401 0.929 . S
H1390 C1404 0.930 . S
H1391 C1406 0.960 1_455 S
H1392 C1406 0.960 . S
H1393 C1406 0.960 . S
C1394 H1386 0.929 . S
C1394 C1395 1.377 . S
C1394 C1396 1.384 . S
C1395 C1394 1.377 . S
C1395 C1401 1.390 . S
C1396 H1387 0.930 . S
C1396 C1394 1.384 . S
C1396 C1397 1.372 . S
C1397 C1396 1.372 . S
C1397 C1398 1.400 . S
C1397 C1402 1.492 . S
C1398 H1388 0.930 . S
C1398 C1397 1.400 . S
C1398 C1401 1.386 . S
H1399 C1415 0.930 . S
H1400 C1416 0.931 . S
C1401 H1389 0.929 . S
C1401 C1395 1.390 . S
C1401 C1398 1.386 . S
C1402 C1397 1.492 . S
C1402 C1404 1.393 1_655 S
C1402 C1405 1.402 1_655 S
H1403 C1409 0.930 . S
C1404 H1390 0.930 . S
C1404 C1402 1.393 1_455 S
C1404 C1407 1.403 . S
C1405 C1402 1.402 1_455 S
C1405 C1406 1.524 1_455 S
C1405 C1409 1.400 . S
C1406 H1391 0.960 1_655 S
C1406 H1392 0.960 . S
C1406 H1393 0.960 . S
C1406 C1405 1.524 1_655 S
C1407 C1404 1.403 . S
C1407 C1408 1.392 . S
C1407 C1411 1.495 . S
C1408 C1407 1.392 . S
C1408 C1409 1.385 . S
C1408 C1410 1.478 . S
C1409 H1403 0.930 . S
C1409 C1405 1.400 . S
C1409 C1408 1.385 . S
C1410 C1408 1.478 . S
C1410 C1412 1.381 . S
C1410 C1416 1.383 . S
C1411 C1407 1.495 . S
C1411 H1417 0.959 . S
C1411 H1418 0.961 . S
C1411 H1419 0.960 . S
C1412 C1410 1.381 . S
C1412 C1413 1.394 . S
C1412 H1420 0.930 . S
C1413 C1412 1.394 . S
C1413 C1414 1.383 . S
C1413 H1421 0.929 . S
C1414 C1413 1.383 . S
C1414 C1415 1.377 . S
C1415 H1399 0.930 . S
C1415 C1414 1.377 . S
C1415 C1416 1.379 . S
C1416 H1400 0.931 . S
C1416 C1410 1.383 . S
C1416 C1415 1.379 . S
H1417 C1411 0.959 . S
H1418 C1411 0.961 . S
H1419 C1411 0.960 . S
H1420 C1412 0.930 . S
H1421 C1413 0.929 . S
H1422 C1430 0.929 . S
H1423 C1432 0.930 . S
H1424 C1434 0.930 . S
H1425 C1437 0.929 . S
H1426 C1440 0.930 . S
H1427 C1442 0.960 . S
H1428 C1442 0.960 . S
H1429 C1442 0.960 . S
C1430 H1422 0.929 . S
C1430 C1431 1.377 . S
C1430 C1432 1.384 . S
C1431 C1430 1.377 . S
C1431 C1437 1.390 . S
C1432 H1423 0.930 . S
C1432 C1430 1.384 . S
C1432 C1433 1.372 . S
C1433 C1432 1.372 . S
C1433 C1434 1.400 . S
C1433 C1438 1.490 . S
C1434 H1424 0.930 . S
C1434 C1433 1.400 . S
C1434 C1437 1.386 . S
H1435 C1451 0.930 . S
H1436 C1452 0.931 . S
C1437 H1425 0.929 . S
C1437 C1431 1.390 . S
C1437 C1434 1.386 . S
C1438 C1433 1.490 . S
C1438 C1440 1.395 . S
C1438 C1441 1.403 . S
H1439 C1445 0.930 . S
C1440 H1426 0.930 . S
C1440 C1438 1.395 . S
C1440 C1443 1.403 . S
C1441 C1438 1.403 . S
C1441 C1442 1.524 . S
C1441 C1445 1.400 . S
C1442 H1427 0.960 . S
C1442 H1428 0.960 . S
C1442 H1429 0.960 . S
C1442 C1441 1.524 . S
C1443 C1440 1.403 . S
C1443 C1444 1.392 . S
C1443 C1447 1.495 . S
C1444 C1443 1.392 . S
C1444 C1445 1.385 . S
C1444 C1446 1.478 . S
C1445 H1439 0.930 . S
C1445 C1441 1.400 . S
C1445 C1444 1.385 . S
C1446 C1444 1.478 . S
C1446 C1448 1.381 . S
C1446 C1452 1.383 . S
C1447 C1443 1.495 . S
C1447 H1453 0.959 . S
C1447 H1454 0.961 . S
C1447 H1455 0.960 . S
C1448 C1446 1.381 . S
C1448 C1449 1.394 . S
C1448 H1456 0.930 . S
C1449 C1448 1.394 . S
C1449 C1450 1.383 . S
C1449 H1457 0.929 . S
C1450 C1449 1.383 . S
C1450 C1451 1.377 . S
C1451 H1435 0.930 . S
C1451 C1450 1.377 . S
C1451 C1452 1.379 . S
C1452 H1436 0.931 . S
C1452 C1446 1.383 . S
C1452 C1451 1.379 . S
H1453 C1447 0.959 . S
H1454 C1447 0.961 . S
H1455 C1447 0.960 . S
H1456 C1448 0.930 . S
H1457 C1449 0.929 . S
H1458 C1466 0.929 . S
H1459 C1468 0.930 . S
H1460 C1470 0.930 . S
H1461 C1473 0.929 . S
H1462 C1476 0.930 . S
H1463 C1478 0.960 . S
H1464 C1478 0.960 . S
H1465 C1478 0.960 . S
C1466 H1458 0.929 . S
C1466 C1467 1.377 . S
C1466 C1468 1.384 . S
C1467 C1466 1.377 . S
C1467 C1473 1.390 . S
C1468 H1459 0.930 . S
C1468 C1466 1.384 . S
C1468 C1469 1.372 . S
C1469 C1468 1.372 . S
C1469 C1470 1.400 . S
C1469 C1474 1.490 . S
C1470 H1460 0.930 . S
C1470 C1469 1.400 . S
C1470 C1473 1.386 . S
H1471 C1487 0.930 . S
H1472 C1488 0.931 . S
C1473 H1461 0.929 . S
C1473 C1467 1.390 . S
C1473 C1470 1.386 . S
C1474 C1469 1.490 . S
C1474 C1476 1.395 . S
C1474 C1477 1.403 . S
H1475 C1481 0.930 . S
C1476 H1462 0.930 . S
C1476 C1474 1.395 . S
C1476 C1479 1.403 . S
C1477 C1474 1.403 . S
C1477 C1478 1.524 . S
C1477 C1481 1.400 . S
C1478 H1463 0.960 . S
C1478 H1464 0.960 . S
C1478 H1465 0.960 . S
C1478 C1477 1.524 . S
C1479 C1476 1.403 . S
C1479 C1480 1.392 . S
C1479 C1483 1.495 . S
C1480 C1479 1.392 . S
C1480 C1481 1.385 . S
C1480 C1482 1.478 . S
C1481 H1475 0.930 . S
C1481 C1477 1.400 . S
C1481 C1480 1.385 . S
C1482 C1480 1.478 . S
C1482 C1484 1.381 . S
C1482 C1488 1.383 . S
C1483 C1479 1.495 . S
C1483 H1489 0.959 . S
C1483 H1490 0.961 . S
C1483 H1491 0.960 . S
C1484 C1482 1.381 . S
C1484 C1485 1.394 . S
C1484 H1492 0.930 . S
C1485 C1484 1.394 . S
C1485 C1486 1.383 . S
C1485 H1493 0.929 . S
C1486 C1485 1.383 . S
C1486 C1487 1.377 . S
C1487 H1471 0.930 . S
C1487 C1486 1.377 . S
C1487 C1488 1.379 . S
C1488 H1472 0.931 . S
C1488 C1482 1.383 . S
C1488 C1487 1.379 . S
H1489 C1483 0.959 . S
H1490 C1483 0.961 . S
H1491 C1483 0.960 . S
H1492 C1484 0.930 . S
H1493 C1485 0.929 . S
H1494 C1502 0.929 . S
H1495 C1504 0.930 . S
H1496 C1506 0.930 . S
H1497 C1509 0.929 . S
H1498 C1512 0.930 . S
H1499 C1514 0.960 . S
H1500 C1514 0.960 . S
H1501 C1514 0.960 . S
C1502 H1494 0.929 . S
C1502 C1503 1.377 . S
C1502 C1504 1.384 . S
C1503 C1502 1.377 . S
C1503 C1509 1.390 . S
C1504 H1495 0.930 . S
C1504 C1502 1.384 . S
C1504 C1505 1.372 . S
C1505 C1504 1.372 . S
C1505 C1506 1.400 . S
C1505 C1510 1.490 . S
C1506 H1496 0.930 . S
C1506 C1505 1.400 . S
C1506 C1509 1.386 . S
H1507 C1523 0.930 . S
H1508 C1524 0.931 . S
C1509 H1497 0.929 . S
C1509 C1503 1.390 . S
C1509 C1506 1.386 . S
C1510 C1505 1.490 . S
C1510 C1512 1.395 . S
C1510 C1513 1.403 . S
H1511 C1517 0.930 . S
C1512 H1498 0.930 . S
C1512 C1510 1.395 . S
C1512 C1515 1.403 . S
C1513 C1510 1.403 . S
C1513 C1514 1.524 . S
C1513 C1517 1.400 . S
C1514 H1499 0.960 . S
C1514 H1500 0.960 . S
C1514 H1501 0.960 . S
C1514 C1513 1.524 . S
C1515 C1512 1.403 . S
C1515 C1516 1.392 . S
C1515 C1519 1.495 . S
C1516 C1515 1.392 . S
C1516 C1517 1.385 . S
C1516 C1518 1.478 . S
C1517 H1511 0.930 . S
C1517 C1513 1.400 . S
C1517 C1516 1.385 . S
C1518 C1516 1.478 . S
C1518 C1520 1.381 . S
C1518 C1524 1.383 . S
C1519 C1515 1.495 . S
C1519 H1525 0.959 . S
C1519 H1526 0.961 . S
C1519 H1527 0.960 . S
C1520 C1518 1.381 . S
C1520 C1521 1.394 . S
C1520 H1528 0.930 . S
C1521 C1520 1.394 . S
C1521 C1522 1.383 . S
C1521 H1529 0.929 . S
C1522 C1521 1.383 . S
C1522 C1523 1.377 . S
C1523 H1507 0.930 . S
C1523 C1522 1.377 . S
C1523 C1524 1.379 . S
C1524 H1508 0.931 . S
C1524 C1518 1.383 . S
C1524 C1523 1.379 . S
H1525 C1519 0.959 . S
H1526 C1519 0.961 . S
H1527 C1519 0.960 . S
H1528 C1520 0.930 . S
H1529 C1521 0.929 . S
H1530 C1538 0.929 . S
H1531 C1540 0.930 . S
H1532 C1542 0.930 . S
H1533 C1545 0.929 . S
H1534 C1548 0.930 . S
H1535 C1550 0.960 . S
H1536 C1550 0.960 . S
H1537 C1550 0.960 . S
C1538 H1530 0.929 . S
C1538 C1539 1.377 . S
C1538 C1540 1.384 . S
C1539 C1538 1.377 . S
C1539 C1545 1.390 . S
C1540 H1531 0.930 . S
C1540 C1538 1.384 . S
C1540 C1541 1.372 . S
C1541 C1540 1.372 . S
C1541 C1542 1.400 . S
C1541 C1546 1.490 . S
C1542 H1532 0.930 . S
C1542 C1541 1.400 . S
C1542 C1545 1.386 . S
H1543 C1559 0.930 . S
H1544 C1560 0.931 . S
C1545 H1533 0.929 . S
C1545 C1539 1.390 . S
C1545 C1542 1.386 . S
C1546 C1541 1.490 . S
C1546 C1548 1.395 . S
C1546 C1549 1.403 . S
H1547 C1553 0.930 . S
C1548 H1534 0.930 . S
C1548 C1546 1.395 . S
C1548 C1551 1.403 . S
C1549 C1546 1.403 . S
C1549 C1550 1.524 . S
C1549 C1553 1.400 . S
C1550 H1535 0.960 . S
C1550 H1536 0.960 . S
C1550 H1537 0.960 . S
C1550 C1549 1.524 . S
C1551 C1548 1.403 . S
C1551 C1552 1.392 . S
C1551 C1555 1.495 . S
C1552 C1551 1.392 . S
C1552 C1553 1.385 . S
C1552 C1554 1.478 . S
C1553 H1547 0.930 . S
C1553 C1549 1.400 . S
C1553 C1552 1.385 . S
C1554 C1552 1.478 . S
C1554 C1556 1.381 . S
C1554 C1560 1.383 . S
C1555 C1551 1.495 . S
C1555 H1561 0.959 . S
C1555 H1562 0.961 . S
C1555 H1563 0.960 . S
C1556 C1554 1.381 . S
C1556 C1557 1.394 . S
C1556 H1564 0.930 . S
C1557 C1556 1.394 . S
C1557 C1558 1.383 . S
C1557 H1565 0.929 . S
C1558 C1557 1.383 . S
C1558 C1559 1.377 . S
C1559 H1543 0.930 . S
C1559 C1558 1.377 . S
C1559 C1560 1.379 . S
C1560 H1544 0.931 . S
C1560 C1554 1.383 . S
C1560 C1559 1.379 . S
H1561 C1555 0.959 . S
H1562 C1555 0.961 . S
H1563 C1555 0.960 . S
H1564 C1556 0.930 . S
H1565 C1557 0.929 . S
H1566 C1574 0.929 . S
H1567 C1576 0.930 . S
H1568 C1578 0.930 . S
H1569 C1581 0.929 . S
H1570 C1584 0.930 1_565 S
H1571 C1586 0.960 . S
H1572 C1586 0.960 1_565 S
H1573 C1586 0.960 1_565 S
C1574 H1566 0.929 . S
C1574 C1575 1.377 . S
C1574 C1576 1.384 . S
C1575 C1574 1.377 . S
C1575 C1581 1.390 . S
C1576 H1567 0.930 . S
C1576 C1574 1.384 . S
C1576 C1577 1.372 . S
C1577 C1576 1.372 . S
C1577 C1578 1.400 . S
C1577 C1582 1.490 . S
C1578 H1568 0.930 . S
C1578 C1577 1.400 . S
C1578 C1581 1.386 . S
H1579 C1595 0.930 . S
H1580 C1596 0.931 . S
C1581 H1569 0.929 . S
C1581 C1575 1.390 . S
C1581 C1578 1.386 . S
C1582 C1577 1.490 . S
C1582 C1584 1.395 1_565 S
C1582 C1585 1.403 1_565 S
H1583 C1589 0.930 . S
C1584 H1570 0.930 1_545 S
C1584 C1582 1.395 1_545 S
C1584 C1587 1.403 . S
C1585 C1582 1.403 1_545 S
C1585 C1586 1.524 . S
C1585 C1589 1.400 . S
C1586 H1571 0.960 . S
C1586 H1572 0.960 1_545 S
C1586 H1573 0.960 1_545 S
C1586 C1585 1.524 . S
C1587 C1584 1.403 . S
C1587 C1588 1.392 . S
C1587 C1591 1.495 . S
C1588 C1587 1.392 . S
C1588 C1589 1.385 . S
C1588 C1590 1.478 . S
C1589 H1583 0.930 . S
C1589 C1585 1.400 . S
C1589 C1588 1.385 . S
C1590 C1588 1.478 . S
C1590 C1592 1.381 . S
C1590 C1596 1.383 . S
C1591 C1587 1.495 . S
C1591 H1597 0.959 . S
C1591 H1598 0.961 . S
C1591 H1599 0.960 . S
C1592 C1590 1.381 . S
C1592 C1593 1.394 . S
C1592 H1600 0.930 . S
C1593 C1592 1.394 . S
C1593 C1594 1.383 . S
C1593 H1601 0.929 . S
C1594 C1593 1.383 . S
C1594 C1595 1.377 . S
C1595 H1579 0.930 . S
C1595 C1594 1.377 . S
C1595 C1596 1.379 . S
C1596 H1580 0.931 . S
C1596 C1590 1.383 . S
C1596 C1595 1.379 . S
H1597 C1591 0.959 . S
H1598 C1591 0.961 . S
H1599 C1591 0.960 . S
H1600 C1592 0.930 . S
H1601 C1593 0.929 . S
H1602 C1610 0.929 . S
H1603 C1612 0.930 . S
H1604 C1614 0.930 . S
H1605 C1617 0.929 . S
H1606 C1620 0.930 . S
H1607 C1622 0.960 . S
H1608 C1622 0.960 . S
H1609 C1622 0.960 . S
C1610 H1602 0.929 . S
C1610 C1611 1.377 . S
C1610 C1612 1.384 . S
C1611 C1610 1.377 . S
C1611 C1617 1.390 . S
C1612 H1603 0.930 . S
C1612 C1610 1.384 . S
C1612 C1613 1.372 . S
C1613 C1612 1.372 . S
C1613 C1614 1.400 . S
C1613 C1618 1.490 1_455 S
C1614 H1604 0.930 . S
C1614 C1613 1.400 . S
C1614 C1617 1.386 . S
H1615 C1631 0.930 . S
H1616 C1632 0.931 . S
C1617 H1605 0.929 . S
C1617 C1611 1.390 . S
C1617 C1614 1.386 . S
C1618 C1613 1.490 1_655 S
C1618 C1620 1.395 . S
C1618 C1621 1.403 . S
H1619 C1625 0.930 . S
C1620 H1606 0.930 . S
C1620 C1618 1.395 . S
C1620 C1623 1.403 . S
C1621 C1618 1.403 . S
C1621 C1622 1.524 . S
C1621 C1625 1.400 . S
C1622 H1607 0.960 . S
C1622 H1608 0.960 . S
C1622 H1609 0.960 . S
C1622 C1621 1.524 . S
C1623 C1620 1.403 . S
C1623 C1624 1.392 . S
C1623 C1627 1.495 . S
C1624 C1623 1.392 . S
C1624 C1625 1.385 . S
C1624 C1626 1.478 . S
C1625 H1619 0.930 . S
C1625 C1621 1.400 . S
C1625 C1624 1.385 . S
C1626 C1624 1.478 . S
C1626 C1628 1.381 . S
C1626 C1632 1.383 . S
C1627 C1623 1.495 . S
C1627 H1633 0.959 . S
C1627 H1634 0.961 . S
C1627 H1635 0.960 . S
C1628 C1626 1.381 . S
C1628 C1629 1.394 . S
C1628 H1636 0.930 . S
C1629 C1628 1.394 . S
C1629 C1630 1.383 . S
C1629 H1637 0.929 . S
C1630 C1629 1.383 . S
C1630 C1631 1.377 . S
C1631 H1615 0.930 . S
C1631 C1630 1.377 . S
C1631 C1632 1.379 . S
C1632 H1616 0.931 . S
C1632 C1626 1.383 . S
C1632 C1631 1.379 . S
H1633 C1627 0.959 . S
H1634 C1627 0.961 . S
H1635 C1627 0.960 . S
H1636 C1628 0.930 . S
H1637 C1629 0.929 . S
H1638 C1646 0.929 . S
H1639 C1648 0.930 . S
H1640 C1650 0.930 . S
H1641 C1653 0.929 . S
H1642 C1656 0.930 . S
H1643 C1658 0.960 . S
H1644 C1658 0.960 . S
H1645 C1658 0.960 . S
C1646 H1638 0.929 . S
C1646 C1647 1.377 . S
C1646 C1648 1.384 . S
C1647 C1646 1.377 . S
C1647 C1653 1.390 . S
C1648 H1639 0.930 . S
C1648 C1646 1.384 . S
C1648 C1649 1.372 . S
C1649 C1648 1.372 . S
C1649 C1650 1.400 . S
C1649 C1654 1.490 . S
C1650 H1640 0.930 . S
C1650 C1649 1.400 . S
C1650 C1653 1.386 . S
H1651 C1667 0.930 . S
H1652 C1668 0.931 . S
C1653 H1641 0.929 . S
C1653 C1647 1.390 . S
C1653 C1650 1.386 . S
C1654 C1649 1.490 . S
C1654 C1656 1.395 . S
C1654 C1657 1.403 . S
H1655 C1661 0.930 . S
C1656 H1642 0.930 . S
C1656 C1654 1.395 . S
C1656 C1659 1.403 . S
C1657 C1654 1.403 . S
C1657 C1658 1.524 . S
C1657 C1661 1.400 . S
C1658 H1643 0.960 . S
C1658 H1644 0.960 . S
C1658 H1645 0.960 . S
C1658 C1657 1.524 . S
C1659 C1656 1.403 . S
C1659 C1660 1.392 . S
C1659 C1663 1.495 . S
C1660 C1659 1.392 . S
C1660 C1661 1.385 . S
C1660 C1662 1.478 . S
C1661 H1655 0.930 . S
C1661 C1657 1.400 . S
C1661 C1660 1.385 . S
C1662 C1660 1.478 . S
C1662 C1664 1.381 . S
C1662 C1668 1.383 . S
C1663 C1659 1.495 . S
C1663 H1669 0.959 . S
C1663 H1670 0.961 . S
C1663 H1671 0.960 . S
C1664 C1662 1.381 . S
C1664 C1665 1.394 . S
C1664 H1672 0.930 . S
C1665 C1664 1.394 . S
C1665 C1666 1.383 . S
C1665 H1673 0.929 . S
C1666 C1665 1.383 . S
C1666 C1667 1.377 . S
C1667 H1651 0.930 . S
C1667 C1666 1.377 . S
C1667 C1668 1.379 . S
C1668 H1652 0.931 . S
C1668 C1662 1.383 . S
C1668 C1667 1.379 . S
H1669 C1663 0.959 . S
H1670 C1663 0.961 . S
H1671 C1663 0.960 . S
H1672 C1664 0.930 . S
H1673 C1665 0.929 . S
H1674 C1682 0.929 . S
H1675 C1684 0.930 . S
H1676 C1686 0.930 . S
H1677 C1689 0.929 . S
H1678 C1692 0.930 . S
H1679 C1694 0.960 . S
H1680 C1694 0.960 . S
H1681 C1694 0.960 . S
C1682 H1674 0.929 . S
C1682 C1683 1.377 . S
C1682 C1684 1.384 . S
C1683 C1682 1.377 . S
C1683 C1689 1.390 . S
C1684 H1675 0.930 . S
C1684 C1682 1.384 . S
C1684 C1685 1.372 . S
C1685 C1684 1.372 . S
C1685 C1686 1.400 . S
C1685 C1690 1.490 . S
C1686 H1676 0.930 . S
C1686 C1685 1.400 . S
C1686 C1689 1.386 . S
H1687 C1703 0.930 . S
H1688 C1704 0.931 . S
C1689 H1677 0.929 . S
C1689 C1683 1.390 . S
C1689 C1686 1.386 . S
C1690 C1685 1.490 . S
C1690 C1692 1.395 . S
C1690 C1693 1.403 . S
H1691 C1697 0.930 . S
C1692 H1678 0.930 . S
C1692 C1690 1.395 . S
C1692 C1695 1.403 . S
C1693 C1690 1.403 . S
C1693 C1694 1.524 . S
C1693 C1697 1.400 . S
C1694 H1679 0.960 . S
C1694 H1680 0.960 . S
C1694 H1681 0.960 . S
C1694 C1693 1.524 . S
C1695 C1692 1.403 . S
C1695 C1696 1.392 1_455 S
C1695 C1699 1.495 1_455 S
C1696 C1695 1.392 1_655 S
C1696 C1697 1.385 1_655 S
C1696 C1698 1.478 . S
C1697 H1691 0.930 . S
C1697 C1693 1.400 . S
C1697 C1696 1.385 1_455 S
C1698 C1696 1.478 . S
C1698 C1700 1.381 . S
C1698 C1704 1.383 . S
C1699 C1695 1.495 1_655 S
C1699 H1705 0.959 . S
C1699 H1706 0.961 . S
C1699 H1707 0.960 . S
C1700 C1698 1.381 . S
C1700 C1701 1.394 . S
C1700 H1708 0.930 . S
C1701 C1700 1.394 . S
C1701 C1702 1.383 . S
C1701 H1709 0.929 . S
C1702 C1701 1.383 . S
C1702 C1703 1.377 . S
C1703 H1687 0.930 . S
C1703 C1702 1.377 . S
C1703 C1704 1.379 . S
C1704 H1688 0.931 . S
C1704 C1698 1.383 . S
C1704 C1703 1.379 . S
H1705 C1699 0.959 . S
H1706 C1699 0.961 . S
H1707 C1699 0.960 . S
H1708 C1700 0.930 . S
H1709 C1701 0.929 . S
H1710 C1718 0.929 . S
H1711 C1720 0.930 . S
H1712 C1722 0.930 . S
H1713 C1725 0.929 . S
H1714 C1728 0.930 . S
H1715 C1730 0.960 . S
H1716 C1730 0.960 . S
H1717 C1730 0.960 . S
C1718 H1710 0.929 . S
C1718 C1719 1.377 . S
C1718 C1720 1.384 . S
C1719 C1718 1.377 . S
C1719 C1725 1.390 . S
C1720 H1711 0.930 . S
C1720 C1718 1.384 . S
C1720 C1721 1.372 . S
C1721 C1720 1.372 . S
C1721 C1722 1.400 . S
C1721 C1726 1.490 . S
C1722 H1712 0.930 . S
C1722 C1721 1.400 . S
C1722 C1725 1.386 . S
H1723 C1739 0.930 . S
H1724 C1740 0.931 . S
C1725 H1713 0.929 . S
C1725 C1719 1.390 . S
C1725 C1722 1.386 . S
C1726 C1721 1.490 . S
C1726 C1728 1.395 . S
C1726 C1729 1.403 . S
H1727 C1733 0.930 . S
C1728 H1714 0.930 . S
C1728 C1726 1.395 . S
C1728 C1731 1.403 . S
C1729 C1726 1.403 . S
C1729 C1730 1.524 . S
C1729 C1733 1.400 . S
C1730 H1715 0.960 . S
C1730 H1716 0.960 . S
C1730 H1717 0.960 . S
C1730 C1729 1.524 . S
C1731 C1728 1.403 . S
C1731 C1732 1.392 . S
C1731 C1735 1.495 . S
C1732 C1731 1.392 . S
C1732 C1733 1.385 . S
C1732 C1734 1.478 . S
C1733 H1727 0.930 . S
C1733 C1729 1.400 . S
C1733 C1732 1.385 . S
C1734 C1732 1.478 . S
C1734 C1736 1.381 . S
C1734 C1740 1.383 . S
C1735 C1731 1.495 . S
C1735 H1741 0.959 . S
C1735 H1742 0.961 . S
C1735 H1743 0.960 . S
C1736 C1734 1.381 . S
C1736 C1737 1.394 . S
C1736 H1744 0.930 . S
C1737 C1736 1.394 . S
C1737 C1738 1.383 . S
C1737 H1745 0.929 . S
C1738 C1737 1.383 . S
C1738 C1739 1.377 . S
C1739 H1723 0.930 . S
C1739 C1738 1.377 . S
C1739 C1740 1.379 . S
C1740 H1724 0.931 . S
C1740 C1734 1.383 . S
C1740 C1739 1.379 . S
H1741 C1735 0.959 . S
H1742 C1735 0.961 . S
H1743 C1735 0.960 . S
H1744 C1736 0.930 . S
H1745 C1737 0.929 . S
H1746 C1754 0.929 . S
H1747 C1756 0.930 . S
H1748 C1758 0.930 . S
H1749 C1761 0.929 . S
H1750 C1764 0.930 . S
H1751 C1766 0.960 . S
H1752 C1766 0.960 . S
H1753 C1766 0.960 . S
C1754 H1746 0.929 . S
C1754 C1755 1.377 . S
C1754 C1756 1.384 . S
C1755 C1754 1.377 . S
C1755 C1761 1.390 . S
C1756 H1747 0.930 . S
C1756 C1754 1.384 . S
C1756 C1757 1.372 . S
C1757 C1756 1.372 . S
C1757 C1758 1.400 . S
C1757 C1762 1.490 . S
C1758 H1748 0.930 . S
C1758 C1757 1.400 . S
C1758 C1761 1.386 . S
H1759 C1775 0.930 . S
H1760 C1776 0.931 . S
C1761 H1749 0.929 . S
C1761 C1755 1.390 . S
C1761 C1758 1.386 . S
C1762 C1757 1.490 . S
C1762 C1764 1.395 . S
C1762 C1765 1.403 . S
H1763 C1769 0.930 . S
C1764 H1750 0.930 . S
C1764 C1762 1.395 . S
C1764 C1767 1.403 1_565 S
C1765 C1762 1.403 . S
C1765 C1766 1.524 . S
C1765 C1769 1.400 1_565 S
C1766 H1751 0.960 . S
C1766 H1752 0.960 . S
C1766 H1753 0.960 . S
C1766 C1765 1.524 . S
C1767 C1764 1.403 1_545 S
C1767 C1768 1.392 . S
C1767 C1771 1.495 . S
C1768 C1767 1.392 . S
C1768 C1769 1.385 . S
C1768 C1770 1.478 . S
C1769 H1763 0.930 . S
C1769 C1765 1.400 1_545 S
C1769 C1768 1.385 . S
C1770 C1768 1.478 . S
C1770 C1772 1.381 . S
C1770 C1776 1.383 . S
C1771 C1767 1.495 . S
C1771 H1777 0.959 . S
C1771 H1778 0.961 . S
C1771 H1779 0.960 . S
C1772 C1770 1.381 . S
C1772 C1773 1.394 . S
C1772 H1780 0.930 . S
C1773 C1772 1.394 . S
C1773 C1774 1.383 . S
C1773 H1781 0.929 . S
C1774 C1773 1.383 . S
C1774 C1775 1.377 . S
C1775 H1759 0.930 . S
C1775 C1774 1.377 . S
C1775 C1776 1.379 . S
C1776 H1760 0.931 . S
C1776 C1770 1.383 . S
C1776 C1775 1.379 . S
H1777 C1771 0.959 . S
H1778 C1771 0.961 . S
H1779 C1771 0.960 . S
H1780 C1772 0.930 . S
H1781 C1773 0.929 . S
H1782 C1790 0.929 . S
H1783 C1792 0.930 . S
H1784 C1794 0.930 . S
H1785 C1797 0.929 . S
H1786 C1800 0.930 . S
H1787 C1802 0.960 . S
H1788 C1802 0.960 . S
H1789 C1802 0.960 . S
C1790 H1782 0.929 . S
C1790 C1791 1.377 . S
C1790 C1792 1.384 . S
C1791 C1790 1.377 . S
C1791 C1797 1.390 . S
C1792 H1783 0.930 . S
C1792 C1790 1.384 . S
C1792 C1793 1.372 . S
C1793 C1792 1.372 . S
C1793 C1794 1.400 . S
C1793 C1798 1.490 . S
C1794 H1784 0.930 . S
C1794 C1793 1.400 . S
C1794 C1797 1.386 . S
H1795 C1811 0.930 . S
H1796 C1812 0.931 . S
C1797 H1785 0.929 . S
C1797 C1791 1.390 . S
C1797 C1794 1.386 . S
C1798 C1793 1.490 . S
C1798 C1800 1.395 . S
C1798 C1801 1.403 . S
H1799 C1805 0.930 . S
C1800 H1786 0.930 . S
C1800 C1798 1.395 . S
C1800 C1803 1.403 . S
C1801 C1798 1.403 . S
C1801 C1802 1.524 . S
C1801 C1805 1.400 . S
C1802 H1787 0.960 . S
C1802 H1788 0.960 . S
C1802 H1789 0.960 . S
C1802 C1801 1.524 . S
C1803 C1800 1.403 . S
C1803 C1804 1.392 . S
C1803 C1807 1.495 . S
C1804 C1803 1.392 . S
C1804 C1805 1.385 . S
C1804 C1806 1.478 . S
C1805 H1799 0.930 . S
C1805 C1801 1.400 . S
C1805 C1804 1.385 . S
C1806 C1804 1.478 . S
C1806 C1808 1.381 . S
C1806 C1812 1.383 . S
C1807 C1803 1.495 . S
C1807 H1813 0.959 . S
C1807 H1814 0.961 . S
C1807 H1815 0.960 . S
C1808 C1806 1.381 . S
C1808 C1809 1.394 . S
C1808 H1816 0.930 . S
C1809 C1808 1.394 . S
C1809 C1810 1.383 . S
C1809 H1817 0.929 . S
C1810 C1809 1.383 . S
C1810 C1811 1.377 . S
C1811 H1795 0.930 . S
C1811 C1810 1.377 . S
C1811 C1812 1.379 . S
C1812 H1796 0.931 . S
C1812 C1806 1.383 . S
C1812 C1811 1.379 . S
H1813 C1807 0.959 . S
H1814 C1807 0.961 . S
H1815 C1807 0.960 . S
H1816 C1808 0.930 . S
H1817 C1809 0.929 . S
H1818 C1826 0.929 . S
H1819 C1828 0.930 . S
H1820 C1830 0.930 . S
H1821 C1833 0.929 . S
H1822 C1836 0.930 . S
H1823 C1838 0.960 . S
H1824 C1838 0.960 . S
H1825 C1838 0.960 . S
C1826 H1818 0.929 . S
C1826 C1827 1.377 . S
C1826 C1828 1.384 . S
C1827 C1826 1.377 . S
C1827 C1833 1.390 . S
C1828 H1819 0.930 . S
C1828 C1826 1.384 . S
C1828 C1829 1.372 . S
C1829 C1828 1.372 . S
C1829 C1830 1.400 . S
C1829 C1834 1.490 . S
C1830 H1820 0.930 . S
C1830 C1829 1.400 . S
C1830 C1833 1.386 . S
H1831 C1847 0.930 . S
H1832 C1848 0.931 . S
C1833 H1821 0.929 . S
C1833 C1827 1.390 . S
C1833 C1830 1.386 . S
C1834 C1829 1.490 . S
C1834 C1836 1.395 . S
C1834 C1837 1.403 . S
H1835 C1841 0.930 . S
C1836 H1822 0.930 . S
C1836 C1834 1.395 . S
C1836 C1839 1.403 . S
C1837 C1834 1.403 . S
C1837 C1838 1.524 . S
C1837 C1841 1.400 . S
C1838 H1823 0.960 . S
C1838 H1824 0.960 . S
C1838 H1825 0.960 . S
C1838 C1837 1.524 . S
C1839 C1836 1.403 . S
C1839 C1840 1.392 . S
C1839 C1843 1.495 . S
C1840 C1839 1.392 . S
C1840 C1841 1.385 . S
C1840 C1842 1.478 . S
C1841 H1835 0.930 . S
C1841 C1837 1.400 . S
C1841 C1840 1.385 . S
C1842 C1840 1.478 . S
C1842 C1844 1.381 . S
C1842 C1848 1.383 . S
C1843 C1839 1.495 . S
C1843 H1849 0.959 . S
C1843 H1850 0.961 . S
C1843 H1851 0.960 . S
C1844 C1842 1.381 . S
C1844 C1845 1.394 . S
C1844 H1852 0.930 . S
C1845 C1844 1.394 . S
C1845 C1846 1.383 . S
C1845 H1853 0.929 . S
C1846 C1845 1.383 . S
C1846 C1847 1.377 . S
C1847 H1831 0.930 . S
C1847 C1846 1.377 . S
C1847 C1848 1.379 . S
C1848 H1832 0.931 . S
C1848 C1842 1.383 . S
C1848 C1847 1.379 . S
H1849 C1843 0.959 . S
H1850 C1843 0.961 . S
H1851 C1843 0.960 . S
H1852 C1844 0.930 . S
H1853 C1845 0.929 . S
H1854 C1862 0.929 . S
H1855 C1864 0.930 . S
H1856 C1866 0.930 . S
H1857 C1869 0.929 . S
H1858 C1872 0.930 . S
H1859 C1874 0.960 . S
H1860 C1874 0.960 . S
H1861 C1874 0.960 . S
C1862 H1854 0.929 . S
C1862 C1863 1.377 . S
C1862 C1864 1.384 . S
C1863 C1862 1.377 . S
C1863 C1869 1.390 . S
C1864 H1855 0.930 . S
C1864 C1862 1.384 . S
C1864 C1865 1.372 . S
C1865 C1864 1.372 . S
C1865 C1866 1.400 . S
C1865 C1870 1.490 . S
C1866 H1856 0.930 . S
C1866 C1865 1.400 . S
C1866 C1869 1.386 . S
H1867 C1883 0.930 . S
H1868 C1884 0.931 . S
C1869 H1857 0.929 . S
C1869 C1863 1.390 . S
C1869 C1866 1.386 . S
C1870 C1865 1.490 . S
C1870 C1872 1.395 . S
C1870 C1873 1.403 . S
H1871 C1877 0.930 . S
C1872 H1858 0.930 . S
C1872 C1870 1.395 . S
C1872 C1875 1.403 . S
C1873 C1870 1.403 . S
C1873 C1874 1.524 . S
C1873 C1877 1.400 . S
C1874 H1859 0.960 . S
C1874 H1860 0.960 . S
C1874 H1861 0.960 . S
C1874 C1873 1.524 . S
C1875 C1872 1.403 . S
C1875 C1876 1.392 . S
C1875 C1879 1.495 . S
C1876 C1875 1.392 . S
C1876 C1877 1.385 . S
C1876 C1878 1.478 . S
C1877 H1871 0.930 . S
C1877 C1873 1.400 . S
C1877 C1876 1.385 . S
C1878 C1876 1.478 . S
C1878 C1880 1.381 . S
C1878 C1884 1.383 . S
C1879 C1875 1.495 . S
C1879 H1885 0.959 . S
C1879 H1886 0.961 . S
C1879 H1887 0.960 . S
C1880 C1878 1.381 . S
C1880 C1881 1.394 . S
C1880 H1888 0.930 . S
C1881 C1880 1.394 . S
C1881 C1882 1.383 . S
C1881 H1889 0.929 . S
C1882 C1881 1.383 . S
C1882 C1883 1.377 . S
C1883 H1867 0.930 . S
C1883 C1882 1.377 . S
C1883 C1884 1.379 . S
C1884 H1868 0.931 . S
C1884 C1878 1.383 . S
C1884 C1883 1.379 . S
H1885 C1879 0.959 . S
H1886 C1879 0.961 . S
H1887 C1879 0.960 . S
H1888 C1880 0.930 . S
H1889 C1881 0.929 . S
H1890 C1898 0.929 . S
H1891 C1900 0.930 . S
H1892 C1902 0.930 . S
H1893 C1905 0.929 . S
H1894 C1908 0.930 . S
H1895 C1910 0.960 . S
H1896 C1910 0.960 . S
H1897 C1910 0.960 . S
C1898 H1890 0.929 . S
C1898 C1899 1.377 . S
C1898 C1900 1.384 . S
C1899 C1898 1.377 . S
C1899 C1905 1.390 . S
C1900 H1891 0.930 . S
C1900 C1898 1.384 . S
C1900 C1901 1.372 . S
C1901 C1900 1.372 . S
C1901 C1902 1.400 . S
C1901 C1906 1.490 . S
C1902 H1892 0.930 . S
C1902 C1901 1.400 . S
C1902 C1905 1.386 . S
H1903 C1919 0.930 . S
H1904 C1920 0.931 . S
C1905 H1893 0.929 . S
C1905 C1899 1.390 . S
C1905 C1902 1.386 . S
C1906 C1901 1.490 . S
C1906 C1908 1.395 . S
C1906 C1909 1.403 . S
H1907 C1913 0.930 . S
C1908 H1894 0.930 . S
C1908 C1906 1.395 . S
C1908 C1911 1.403 . S
C1909 C1906 1.403 . S
C1909 C1910 1.524 . S
C1909 C1913 1.400 . S
C1910 H1895 0.960 . S
C1910 H1896 0.960 . S
C1910 H1897 0.960 . S
C1910 C1909 1.524 . S
C1911 C1908 1.403 . S
C1911 C1912 1.392 . S
C1911 C1915 1.495 . S
C1912 C1911 1.392 . S
C1912 C1913 1.385 . S
C1912 C1914 1.478 . S
C1913 H1907 0.930 . S
C1913 C1909 1.400 . S
C1913 C1912 1.385 . S
C1914 C1912 1.478 . S
C1914 C1916 1.381 . S
C1914 C1920 1.383 . S
C1915 C1911 1.495 . S
C1915 H1921 0.959 . S
C1915 H1922 0.961 . S
C1915 H1923 0.960 . S
C1916 C1914 1.381 . S
C1916 C1917 1.394 . S
C1916 H1924 0.930 . S
C1917 C1916 1.394 . S
C1917 C1918 1.383 . S
C1917 H1925 0.929 . S
C1918 C1917 1.383 . S
C1918 C1919 1.377 . S
C1919 H1903 0.930 . S
C1919 C1918 1.377 . S
C1919 C1920 1.379 . S
C1920 H1904 0.931 . S
C1920 C1914 1.383 . S
C1920 C1919 1.379 . S
H1921 C1915 0.959 . S
H1922 C1915 0.961 . S
H1923 C1915 0.960 . S
H1924 C1916 0.930 . S
H1925 C1917 0.929 . S
H1926 C1934 0.929 . S
H1927 C1936 0.930 . S
H1928 C1938 0.930 . S
H1929 C1941 0.929 . S
H1930 C1944 0.930 . S
H1931 C1946 0.960 . S
H1932 C1946 0.960 . S
H1933 C1946 0.960 . S
C1934 H1926 0.929 . S
C1934 C1935 1.377 . S
C1934 C1936 1.384 . S
C1935 C1934 1.377 . S
C1935 C1941 1.390 . S
C1936 H1927 0.930 . S
C1936 C1934 1.384 . S
C1936 C1937 1.372 . S
C1937 C1936 1.372 . S
C1937 C1938 1.400 . S
C1937 C1942 1.490 . S
C1938 H1928 0.930 . S
C1938 C1937 1.400 . S
C1938 C1941 1.386 . S
H1939 C1955 0.930 . S
H1940 C1956 0.931 . S
C1941 H1929 0.929 . S
C1941 C1935 1.390 . S
C1941 C1938 1.386 . S
C1942 C1937 1.490 . S
C1942 C1944 1.395 . S
C1942 C1945 1.403 . S
H1943 C1949 0.930 . S
C1944 H1930 0.930 . S
C1944 C1942 1.395 . S
C1944 C1947 1.403 . S
C1945 C1942 1.403 . S
C1945 C1946 1.524 . S
C1945 C1949 1.400 . S
C1946 H1931 0.960 . S
C1946 H1932 0.960 . S
C1946 H1933 0.960 . S
C1946 C1945 1.524 . S
C1947 C1944 1.403 . S
C1947 C1948 1.392 . S
C1947 C1951 1.495 . S
C1948 C1947 1.392 . S
C1948 C1949 1.385 . S
C1948 C1950 1.478 . S
C1949 H1943 0.930 . S
C1949 C1945 1.400 . S
C1949 C1948 1.385 . S
C1950 C1948 1.478 . S
C1950 C1952 1.381 . S
C1950 C1956 1.383 . S
C1951 C1947 1.495 . S
C1951 H1957 0.959 1_455 S
C1951 H1958 0.961 . S
C1951 H1959 0.960 1_455 S
C1952 C1950 1.381 . S
C1952 C1953 1.394 . S
C1952 H1960 0.930 . S
C1953 C1952 1.394 . S
C1953 C1954 1.383 . S
C1953 H1961 0.929 . S
C1954 C1953 1.383 . S
C1954 C1955 1.377 . S
C1955 H1939 0.930 . S
C1955 C1954 1.377 . S
C1955 C1956 1.379 . S
C1956 H1940 0.931 . S
C1956 C1950 1.383 . S
C1956 C1955 1.379 . S
H1957 C1951 0.959 1_655 S
H1958 C1951 0.961 . S
H1959 C1951 0.960 1_655 S
H1960 C1952 0.930 . S
H1961 C1953 0.929 . S
H1962 C1970 0.929 . S
H1963 C1972 0.930 . S
H1964 C1974 0.930 . S
H1965 C1977 0.929 . S
H1966 C1980 0.930 . S
H1967 C1982 0.960 . S
H1968 C1982 0.960 . S
H1969 C1982 0.960 . S
C1970 H1962 0.929 . S
C1970 C1971 1.377 . S
C1970 C1972 1.384 . S
C1971 C1970 1.377 . S
C1971 C1977 1.390 . S
C1972 H1963 0.930 . S
C1972 C1970 1.384 . S
C1972 C1973 1.372 . S
C1973 C1972 1.372 . S
C1973 C1974 1.400 . S
C1973 C1978 1.490 . S
C1974 H1964 0.930 . S
C1974 C1973 1.400 . S
C1974 C1977 1.386 . S
H1975 C1991 0.930 . S
H1976 C1992 0.931 . S
C1977 H1965 0.929 . S
C1977 C1971 1.390 . S
C1977 C1974 1.386 . S
C1978 C1973 1.490 . S
C1978 C1980 1.395 . S
C1978 C1981 1.403 . S
H1979 C1985 0.930 . S
C1980 H1966 0.930 . S
C1980 C1978 1.395 . S
C1980 C1983 1.403 . S
C1981 C1978 1.403 . S
C1981 C1982 1.524 . S
C1981 C1985 1.400 . S
C1982 H1967 0.960 . S
C1982 H1968 0.960 . S
C1982 H1969 0.960 . S
C1982 C1981 1.524 . S
C1983 C1980 1.403 . S
C1983 C1984 1.392 . S
C1983 C1987 1.495 . S
C1984 C1983 1.392 . S
C1984 C1985 1.385 . S
C1984 C1986 1.478 . S
C1985 H1979 0.930 . S
C1985 C1981 1.400 . S
C1985 C1984 1.385 . S
C1986 C1984 1.478 . S
C1986 C1988 1.381 . S
C1986 C1992 1.383 . S
C1987 C1983 1.495 . S
C1987 H1993 0.959 . S
C1987 H1994 0.961 . S
C1987 H1995 0.960 . S
C1988 C1986 1.381 . S
C1988 C1989 1.394 . S
C1988 H1996 0.930 . S
C1989 C1988 1.394 . S
C1989 C1990 1.383 . S
C1989 H1997 0.929 . S
C1990 C1989 1.383 . S
C1990 C1991 1.377 . S
C1991 H1975 0.930 . S
C1991 C1990 1.377 . S
C1991 C1992 1.379 . S
C1992 H1976 0.931 . S
C1992 C1986 1.383 . S
C1992 C1991 1.379 . S
H1993 C1987 0.959 . S
H1994 C1987 0.961 . S
H1995 C1987 0.960 . S
H1996 C1988 0.930 . S
H1997 C1989 0.929 . S
H1998 C2006 0.929 . S
H1999 C2008 0.930 . S
H2000 C2010 0.930 . S
H2001 C2013 0.929 . S
H2002 C2016 0.930 1_455 S
H2003 C2018 0.960 . S
H2004 C2018 0.960 . S
H2005 C2018 0.960 . S
C2006 H1998 0.929 . S
C2006 C2007 1.377 . S
C2006 C2008 1.384 . S
C2007 C2006 1.377 . S
C2007 C2013 1.390 . S
C2008 H1999 0.930 . S
C2008 C2006 1.384 . S
C2008 C2009 1.372 . S
C2009 C2008 1.372 . S
C2009 C2010 1.400 . S
C2009 C2014 1.490 . S
C2010 H2000 0.930 . S
C2010 C2009 1.400 . S
C2010 C2013 1.386 . S
H2011 C2027 0.930 . S
H2012 C2028 0.931 . S
C2013 H2001 0.929 . S
C2013 C2007 1.390 . S
C2013 C2010 1.386 . S
C2014 C2009 1.490 . S
C2014 C2016 1.395 . S
C2014 C2017 1.403 . S
H2015 C2021 0.930 . S
C2016 H2002 0.930 1_655 S
C2016 C2014 1.395 . S
C2016 C2019 1.403 . S
C2017 C2014 1.403 . S
C2017 C2018 1.524 . S
C2017 C2021 1.400 . S
C2018 H2003 0.960 . S
C2018 H2004 0.960 . S
C2018 H2005 0.960 . S
C2018 C2017 1.524 . S
C2019 C2016 1.403 . S
C2019 C2020 1.392 . S
C2019 C2023 1.495 1_655 S
C2020 C2019 1.392 . S
C2020 C2021 1.385 . S
C2020 C2022 1.478 . S
C2021 H2015 0.930 . S
C2021 C2017 1.400 . S
C2021 C2020 1.385 . S
C2022 C2020 1.478 . S
C2022 C2024 1.381 . S
C2022 C2028 1.383 . S
C2023 C2019 1.495 1_455 S
C2023 H2029 0.959 . S
C2023 H2030 0.961 . S
C2023 H2031 0.960 . S
C2024 C2022 1.381 . S
C2024 C2025 1.394 . S
C2024 H2032 0.928 1_655 S
C2025 C2024 1.394 . S
C2025 C2026 1.383 . S
C2025 H2033 0.896 1_655 S
C2026 C2025 1.383 . S
C2026 C2027 1.377 . S
C2027 H2011 0.930 . S
C2027 C2026 1.377 . S
C2027 C2028 1.379 . S
C2028 H2012 0.931 . S
C2028 C2022 1.383 . S
C2028 C2027 1.379 . S
H2029 C2023 0.959 . S
H2030 C2023 0.961 . S
H2031 C2023 0.960 . S
H2032 C2024 0.928 1_455 S
H2033 C2025 0.896 1_455 S
H2034 C2042 0.929 . S
H2035 C2044 0.930 . S
H2036 C2046 0.930 . S
H2037 C2049 0.929 . S
H2038 C2052 0.930 . S
H2039 C2054 0.960 . S
H2040 C2054 0.960 . S
H2041 C2054 0.960 . S
C2042 H2034 0.929 . S
C2042 C2043 1.377 . S
C2042 C2044 1.384 . S
C2043 C2042 1.377 . S
C2043 C2049 1.390 . S
C2044 H2035 0.930 . S
C2044 C2042 1.384 . S
C2044 C2045 1.372 . S
C2045 C2044 1.372 . S
C2045 C2046 1.400 . S
C2045 C2050 1.490 . S
C2046 H2036 0.930 . S
C2046 C2045 1.400 . S
C2046 C2049 1.386 . S
H2047 C2063 0.930 . S
H2048 C2064 0.931 . S
C2049 H2037 0.929 . S
C2049 C2043 1.390 . S
C2049 C2046 1.386 . S
C2050 C2045 1.490 . S
C2050 C2052 1.395 . S
C2050 C2053 1.403 . S
H2051 C2057 0.930 . S
C2052 H2038 0.930 . S
C2052 C2050 1.395 . S
C2052 C2055 1.403 . S
C2053 C2050 1.403 . S
C2053 C2054 1.524 . S
C2053 C2057 1.400 . S
C2054 H2039 0.960 . S
C2054 H2040 0.960 . S
C2054 H2041 0.960 . S
C2054 C2053 1.524 . S
C2055 C2052 1.403 . S
C2055 C2056 1.392 . S
C2055 C2059 1.495 . S
C2056 C2055 1.392 . S
C2056 C2057 1.385 . S
C2056 C2058 1.478 . S
C2057 H2051 0.930 . S
C2057 C2053 1.400 . S
C2057 C2056 1.385 . S
C2058 C2056 1.478 . S
C2058 C2060 1.381 . S
C2058 C2064 1.383 . S
C2059 C2055 1.495 . S
C2059 H2065 0.959 . S
C2059 H2066 0.961 . S
C2059 H2067 0.960 . S
C2060 C2058 1.381 . S
C2060 C2061 1.394 . S
C2060 H2068 0.930 . S
C2061 C2060 1.394 . S
C2061 C2062 1.383 . S
C2061 H2069 0.929 . S
C2062 C2061 1.383 . S
C2062 C2063 1.377 . S
C2063 H2047 0.930 . S
C2063 C2062 1.377 . S
C2063 C2064 1.379 . S
C2064 H2048 0.931 . S
C2064 C2058 1.383 . S
C2064 C2063 1.379 . S
H2065 C2059 0.959 . S
H2066 C2059 0.961 . S
H2067 C2059 0.960 . S
H2068 C2060 0.930 . S
H2069 C2061 0.929 . S
H2070 C2078 0.929 . S
H2071 C2080 0.930 . S
H2072 C2082 0.930 . S
H2073 C2085 0.929 . S
H2074 C2088 0.930 . S
H2075 C2090 0.960 . S
H2076 C2090 0.960 . S
H2077 C2090 0.960 . S
C2078 H2070 0.929 . S
C2078 C2079 1.377 . S
C2078 C2080 1.384 . S
C2079 C2078 1.377 . S
C2079 C2085 1.390 . S
C2080 H2071 0.930 . S
C2080 C2078 1.384 . S
C2080 C2081 1.372 . S
C2081 C2080 1.372 . S
C2081 C2082 1.400 . S
C2081 C2086 1.490 . S
C2082 H2072 0.930 . S
C2082 C2081 1.400 . S
C2082 C2085 1.386 . S
H2083 C2099 0.930 . S
H2084 C2100 0.931 . S
C2085 H2073 0.929 . S
C2085 C2079 1.390 . S
C2085 C2082 1.386 . S
C2086 C2081 1.490 . S
C2086 C2088 1.395 . S
C2086 C2089 1.403 . S
H2087 C2093 0.930 . S
C2088 H2074 0.930 . S
C2088 C2086 1.395 . S
C2088 C2091 1.403 . S
C2089 C2086 1.403 . S
C2089 C2090 1.524 . S
C2089 C2093 1.400 . S
C2090 H2075 0.960 . S
C2090 H2076 0.960 . S
C2090 H2077 0.960 . S
C2090 C2089 1.524 . S
C2091 C2088 1.403 . S
C2091 C2092 1.392 . S
C2091 C2095 1.495 . S
C2092 C2091 1.392 . S
C2092 C2093 1.385 . S
C2092 C2094 1.478 . S
C2093 H2087 0.930 . S
C2093 C2089 1.400 . S
C2093 C2092 1.385 . S
C2094 C2092 1.478 . S
C2094 C2096 1.381 . S
C2094 C2100 1.383 . S
C2095 C2091 1.495 . S
C2095 H2101 0.959 . S
C2095 H2102 0.961 . S
C2095 H2103 0.960 . S
C2096 C2094 1.381 . S
C2096 C2097 1.394 . S
C2096 H2104 0.930 . S
C2097 C2096 1.394 . S
C2097 C2098 1.383 . S
C2097 H2105 0.929 . S
C2098 C2097 1.383 . S
C2098 C2099 1.377 . S
C2099 H2083 0.930 . S
C2099 C2098 1.377 . S
C2099 C2100 1.379 . S
C2100 H2084 0.931 . S
C2100 C2094 1.383 . S
C2100 C2099 1.379 . S
H2101 C2095 0.959 . S
H2102 C2095 0.961 . S
H2103 C2095 0.960 . S
H2104 C2096 0.930 . S
H2105 C2097 0.929 . S
H2106 C2114 0.929 . S
H2107 C2116 0.930 . S
H2108 C2118 0.930 . S
H2109 C2121 0.929 . S
H2110 C2124 0.930 . S
H2111 C2126 0.960 . S
H2112 C2126 0.960 . S
H2113 C2126 0.960 . S
C2114 H2106 0.929 . S
C2114 C2115 1.377 . S
C2114 C2116 1.384 . S
C2115 C2114 1.377 . S
C2115 C2121 1.390 . S
C2116 H2107 0.930 . S
C2116 C2114 1.384 . S
C2116 C2117 1.372 . S
C2117 C2116 1.372 . S
C2117 C2118 1.400 . S
C2117 C2122 1.490 . S
C2118 H2108 0.930 . S
C2118 C2117 1.400 . S
C2118 C2121 1.386 . S
H2119 C2135 0.930 . S
H2120 C2136 0.931 . S
C2121 H2109 0.929 . S
C2121 C2115 1.390 . S
C2121 C2118 1.386 . S
C2122 C2117 1.490 . S
C2122 C2124 1.395 . S
C2122 C2125 1.403 . S
H2123 C2129 0.930 . S
C2124 H2110 0.930 . S
C2124 C2122 1.395 . S
C2124 C2127 1.403 . S
C2125 C2122 1.403 . S
C2125 C2126 1.524 . S
C2125 C2129 1.400 . S
C2126 H2111 0.960 . S
C2126 H2112 0.960 . S
C2126 H2113 0.960 . S
C2126 C2125 1.524 . S
C2127 C2124 1.403 . S
C2127 C2128 1.392 . S
C2127 C2131 1.495 . S
C2128 C2127 1.392 . S
C2128 C2129 1.385 . S
C2128 C2130 1.478 . S
C2129 H2123 0.930 . S
C2129 C2125 1.400 . S
C2129 C2128 1.385 . S
C2130 C2128 1.478 . S
C2130 C2132 1.381 . S
C2130 C2136 1.383 . S
C2131 C2127 1.495 . S
C2131 H2137 0.959 . S
C2131 H2138 0.961 . S
C2131 H2139 0.960 . S
C2132 C2130 1.381 . S
C2132 C2133 1.394 . S
C2132 H2140 0.930 . S
C2133 C2132 1.394 . S
C2133 C2134 1.383 . S
C2133 H2141 0.929 . S
C2134 C2133 1.383 . S
C2134 C2135 1.377 . S
C2135 H2119 0.930 . S
C2135 C2134 1.377 . S
C2135 C2136 1.379 . S
C2136 H2120 0.931 . S
C2136 C2130 1.383 . S
C2136 C2135 1.379 . S
H2137 C2131 0.959 . S
H2138 C2131 0.961 . S
H2139 C2131 0.960 . S
H2140 C2132 0.930 . S
H2141 C2133 0.929 . S
H2142 C2150 0.929 . S
H2143 C2152 0.930 . S
H2144 C2154 0.930 . S
H2145 C2157 0.929 . S
H2146 C2160 0.930 . S
H2147 C2162 0.960 . S
H2148 C2162 0.960 . S
H2149 C2162 0.960 . S
C2150 H2142 0.929 . S
C2150 C2151 1.377 . S
C2150 C2152 1.384 . S
C2151 C2150 1.377 . S
C2151 C2157 1.390 . S
C2152 H2143 0.930 . S
C2152 C2150 1.384 . S
C2152 C2153 1.372 . S
C2153 C2152 1.372 . S
C2153 C2154 1.400 . S
C2153 C2158 1.490 . S
C2154 H2144 0.930 . S
C2154 C2153 1.400 . S
C2154 C2157 1.386 . S
H2155 C2171 0.930 . S
H2156 C2172 0.931 . S
C2157 H2145 0.929 . S
C2157 C2151 1.390 . S
C2157 C2154 1.386 . S
C2158 C2153 1.490 . S
C2158 C2160 1.395 . S
C2158 C2161 1.403 . S
H2159 C2165 0.930 . S
C2160 H2146 0.930 . S
C2160 C2158 1.395 . S
C2160 C2163 1.403 . S
C2161 C2158 1.403 . S
C2161 C2162 1.524 . S
C2161 C2165 1.400 . S
C2162 H2147 0.960 . S
C2162 H2148 0.960 . S
C2162 H2149 0.960 . S
C2162 C2161 1.524 . S
C2163 C2160 1.403 . S
C2163 C2164 1.392 . S
C2163 C2167 1.495 . S
C2164 C2163 1.392 . S
C2164 C2165 1.385 . S
C2164 C2166 1.478 . S
C2165 H2159 0.930 . S
C2165 C2161 1.400 . S
C2165 C2164 1.385 . S
C2166 C2164 1.478 . S
C2166 C2168 1.381 . S
C2166 C2172 1.383 . S
C2167 C2163 1.495 . S
C2167 H2173 0.959 . S
C2167 H2174 0.961 . S
C2167 H2175 0.960 . S
C2168 C2166 1.381 . S
C2168 C2169 1.394 . S
C2168 H2176 0.930 . S
C2169 C2168 1.394 . S
C2169 C2170 1.383 . S
C2169 H2177 0.929 . S
C2170 C2169 1.383 . S
C2170 C2171 1.377 . S
C2171 H2155 0.930 . S
C2171 C2170 1.377 . S
C2171 C2172 1.379 . S
C2172 H2156 0.931 . S
C2172 C2166 1.383 . S
C2172 C2171 1.379 . S
H2173 C2167 0.959 . S
H2174 C2167 0.961 . S
H2175 C2167 0.960 . S
H2176 C2168 0.930 . S
H2177 C2169 0.929 . S
H2178 C2186 0.929 . S
H2179 C2188 0.930 . S
H2180 C2190 0.930 . S
H2181 C2193 0.929 . S
H2182 C2196 0.930 . S
H2183 C2198 0.960 . S
H2184 C2198 0.960 . S
H2185 C2198 0.960 . S
C2186 H2178 0.929 . S
C2186 C2187 1.377 . S
C2186 C2188 1.384 . S
C2187 C2186 1.377 . S
C2187 C2193 1.390 . S
C2188 H2179 0.930 . S
C2188 C2186 1.384 . S
C2188 C2189 1.372 . S
C2189 C2188 1.372 . S
C2189 C2190 1.400 . S
C2189 C2194 1.490 . S
C2190 H2180 0.930 . S
C2190 C2189 1.400 . S
C2190 C2193 1.386 . S
H2191 C2207 0.930 . S
H2192 C2208 0.931 . S
C2193 H2181 0.929 . S
C2193 C2187 1.390 . S
C2193 C2190 1.386 . S
C2194 C2189 1.490 . S
C2194 C2196 1.395 . S
C2194 C2197 1.403 . S
H2195 C2201 0.930 . S
C2196 H2182 0.930 . S
C2196 C2194 1.395 . S
C2196 C2199 1.403 . S
C2197 C2194 1.403 . S
C2197 C2198 1.524 . S
C2197 C2201 1.400 . S
C2198 H2183 0.960 . S
C2198 H2184 0.960 . S
C2198 H2185 0.960 . S
C2198 C2197 1.524 . S
C2199 C2196 1.403 . S
C2199 C2200 1.392 . S
C2199 C2203 1.495 . S
C2200 C2199 1.392 . S
C2200 C2201 1.385 . S
C2200 C2202 1.478 . S
C2201 H2195 0.930 . S
C2201 C2197 1.400 . S
C2201 C2200 1.385 . S
C2202 C2200 1.478 . S
C2202 C2204 1.381 . S
C2202 C2208 1.383 . S
C2203 C2199 1.495 . S
C2203 H2209 0.959 . S
C2203 H2210 0.961 . S
C2203 H2211 0.960 . S
C2204 C2202 1.381 . S
C2204 C2205 1.394 . S
C2204 H2212 0.930 . S
C2205 C2204 1.394 . S
C2205 C2206 1.383 . S
C2205 H2213 0.929 . S
C2206 C2205 1.383 . S
C2206 C2207 1.377 . S
C2207 H2191 0.930 . S
C2207 C2206 1.377 . S
C2207 C2208 1.379 . S
C2208 H2192 0.931 . S
C2208 C2202 1.383 . S
C2208 C2207 1.379 . S
H2209 C2203 0.959 . S
H2210 C2203 0.961 . S
H2211 C2203 0.960 . S
H2212 C2204 0.930 . S
H2213 C2205 0.929 . S
H2214 C2222 0.929 . S
H2215 C2224 0.930 . S
H2216 C2226 0.930 . S
H2217 C2229 0.929 . S
H2218 C2232 0.930 . S
H2219 C2234 0.960 . S
H2220 C2234 0.960 . S
H2221 C2234 0.960 . S
C2222 H2214 0.929 . S
C2222 C2223 1.377 . S
C2222 C2224 1.384 . S
C2223 C2222 1.377 . S
C2223 C2229 1.390 . S
C2224 H2215 0.930 . S
C2224 C2222 1.384 . S
C2224 C2225 1.372 . S
C2225 C2224 1.372 . S
C2225 C2226 1.400 . S
C2225 C2230 1.490 . S
C2226 H2216 0.930 . S
C2226 C2225 1.400 . S
C2226 C2229 1.386 . S
H2227 C2243 0.930 . S
H2228 C2244 0.931 . S
C2229 H2217 0.929 . S
C2229 C2223 1.390 . S
C2229 C2226 1.386 . S
C2230 C2225 1.490 . S
C2230 C2232 1.395 . S
C2230 C2233 1.403 . S
H2231 C2237 0.930 . S
C2232 H2218 0.930 . S
C2232 C2230 1.395 . S
C2232 C2235 1.403 . S
C2233 C2230 1.403 . S
C2233 C2234 1.524 . S
C2233 C2237 1.400 . S
C2234 H2219 0.960 . S
C2234 H2220 0.960 . S
C2234 H2221 0.960 . S
C2234 C2233 1.524 . S
C2235 C2232 1.403 . S
C2235 C2236 1.392 . S
C2235 C2239 1.495 . S
C2236 C2235 1.392 . S
C2236 C2237 1.385 . S
C2236 C2238 1.478 . S
C2237 H2231 0.930 . S
C2237 C2233 1.400 . S
C2237 C2236 1.385 . S
C2238 C2236 1.478 . S
C2238 C2240 1.381 . S
C2238 C2244 1.383 . S
C2239 C2235 1.495 . S
C2239 H2245 0.959 . S
C2239 H2246 0.961 . S
C2239 H2247 0.960 . S
C2240 C2238 1.381 . S
C2240 C2241 1.394 . S
C2240 H2248 0.930 . S
C2241 C2240 1.394 . S
C2241 C2242 1.383 . S
C2241 H2249 0.929 . S
C2242 C2241 1.383 . S
C2242 C2243 1.377 . S
C2243 H2227 0.930 . S
C2243 C2242 1.377 . S
C2243 C2244 1.379 . S
C2244 H2228 0.931 . S
C2244 C2238 1.383 . S
C2244 C2243 1.379 . S
H2245 C2239 0.959 . S
H2246 C2239 0.961 . S
H2247 C2239 0.960 . S
H2248 C2240 0.930 . S
H2249 C2241 0.929 . S
H2250 C2258 0.929 . S
H2251 C2260 0.930 . S
H2252 C2262 0.930 . S
H2253 C2265 0.929 . S
H2254 C2268 0.930 . S
H2255 C2270 0.960 . S
H2256 C2270 0.960 . S
H2257 C2270 0.960 . S
C2258 H2250 0.929 . S
C2258 C2259 1.377 . S
C2258 C2260 1.384 . S
C2259 C2258 1.377 . S
C2259 C2265 1.390 . S
C2260 H2251 0.930 . S
C2260 C2258 1.384 . S
C2260 C2261 1.372 . S
C2261 C2260 1.372 . S
C2261 C2262 1.400 . S
C2261 C2266 1.490 . S
C2262 H2252 0.930 . S
C2262 C2261 1.400 . S
C2262 C2265 1.386 . S
H2263 C2279 0.930 . S
H2264 C2280 0.931 . S
C2265 H2253 0.929 . S
C2265 C2259 1.390 . S
C2265 C2262 1.386 . S
C2266 C2261 1.490 . S
C2266 C2268 1.395 . S
C2266 C2269 1.403 . S
H2267 C2273 0.930 . S
C2268 H2254 0.930 . S
C2268 C2266 1.395 . S
C2268 C2271 1.403 . S
C2269 C2266 1.403 . S
C2269 C2270 1.524 . S
C2269 C2273 1.400 . S
C2270 H2255 0.960 . S
C2270 H2256 0.960 . S
C2270 H2257 0.960 . S
C2270 C2269 1.524 . S
C2271 C2268 1.403 . S
C2271 C2272 1.392 . S
C2271 C2275 1.495 . S
C2272 C2271 1.392 . S
C2272 C2273 1.385 . S
C2272 C2274 1.478 . S
C2273 H2267 0.930 . S
C2273 C2269 1.400 . S
C2273 C2272 1.385 . S
C2274 C2272 1.478 . S
C2274 C2276 1.381 . S
C2274 C2280 1.383 . S
C2275 C2271 1.495 . S
C2275 H2281 0.959 . S
C2275 H2282 0.961 . S
C2275 H2283 0.960 . S
C2276 C2274 1.381 . S
C2276 C2277 1.394 . S
C2276 H2284 0.930 . S
C2277 C2276 1.394 . S
C2277 C2278 1.383 . S
C2277 H2285 0.929 . S
C2278 C2277 1.383 . S
C2278 C2279 1.377 . S
C2279 H2263 0.930 . S
C2279 C2278 1.377 . S
C2279 C2280 1.379 . S
C2280 H2264 0.931 . S
C2280 C2274 1.383 . S
C2280 C2279 1.379 . S
H2281 C2275 0.959 . S
H2282 C2275 0.961 . S
H2283 C2275 0.960 . S
H2284 C2276 0.930 . S
H2285 C2277 0.929 . S
H2286 C2294 0.929 . S
H2287 C2296 0.930 . S
H2288 C2298 0.930 . S
H2289 C2301 0.929 . S
H2290 C2304 0.930 . S
H2291 C2306 0.960 . S
H2292 C2306 0.960 . S
H2293 C2306 0.960 . S
C2294 H2286 0.929 . S
C2294 C2295 1.377 . S
C2294 C2296 1.384 . S
C2295 C2294 1.377 . S
C2295 C2301 1.390 . S
C2296 H2287 0.930 . S
C2296 C2294 1.384 . S
C2296 C2297 1.372 . S
C2297 C2296 1.372 . S
C2297 C2298 1.400 . S
C2297 C2302 1.490 . S
C2298 H2288 0.930 . S
C2298 C2297 1.400 . S
C2298 C2301 1.386 . S
H2299 C2315 0.930 . S
H2300 C2316 0.931 . S
C2301 H2289 0.929 . S
C2301 C2295 1.390 . S
C2301 C2298 1.386 . S
C2302 C2297 1.490 . S
C2302 C2304 1.395 . S
C2302 C2305 1.403 . S
H2303 C2309 0.930 . S
C2304 H2290 0.930 . S
C2304 C2302 1.395 . S
C2304 C2307 1.403 . S
C2305 C2302 1.403 . S
C2305 C2306 1.524 . S
C2305 C2309 1.400 . S
C2306 H2291 0.960 . S
C2306 H2292 0.960 . S
C2306 H2293 0.960 . S
C2306 C2305 1.524 . S
C2307 C2304 1.403 . S
C2307 C2308 1.392 . S
C2307 C2311 1.495 . S
C2308 C2307 1.392 . S
C2308 C2309 1.385 . S
C2308 C2310 1.478 . S
C2309 H2303 0.930 . S
C2309 C2305 1.400 . S
C2309 C2308 1.385 . S
C2310 C2308 1.478 . S
C2310 C2312 1.381 . S
C2310 C2316 1.383 . S
C2311 C2307 1.495 . S
C2311 H2317 0.959 . S
C2311 H2318 0.961 . S
C2311 H2319 0.960 . S
C2312 C2310 1.381 . S
C2312 C2313 1.394 . S
C2312 H2320 0.930 . S
C2313 C2312 1.394 . S
C2313 C2314 1.383 . S
C2313 H2321 0.929 . S
C2314 C2313 1.383 . S
C2314 C2315 1.377 . S
C2315 H2299 0.930 . S
C2315 C2314 1.377 . S
C2315 C2316 1.379 . S
C2316 H2300 0.931 . S
C2316 C2310 1.383 . S
C2316 C2315 1.379 . S
H2317 C2311 0.959 . S
H2318 C2311 0.961 . S
H2319 C2311 0.960 . S
H2320 C2312 0.930 . S
H2321 C2313 0.929 . S
H2322 C2330 0.929 . S
H2323 C2332 0.930 . S
H2324 C2334 0.930 . S
H2325 C2337 0.929 . S
H2326 C2340 0.930 . S
H2327 C2342 0.960 . S
H2328 C2342 0.960 . S
H2329 C2342 0.960 . S
C2330 H2322 0.929 . S
C2330 C2331 1.377 . S
C2330 C2332 1.384 . S
C2331 C2330 1.377 . S
C2331 C2337 1.390 . S
C2332 H2323 0.930 . S
C2332 C2330 1.384 . S
C2332 C2333 1.372 . S
C2333 C2332 1.372 . S
C2333 C2334 1.400 . S
C2333 C2338 1.490 . S
C2334 H2324 0.930 . S
C2334 C2333 1.400 . S
C2334 C2337 1.386 . S
H2335 C2351 0.930 . S
H2336 C2352 0.931 . S
C2337 H2325 0.929 . S
C2337 C2331 1.390 . S
C2337 C2334 1.386 . S
C2338 C2333 1.490 . S
C2338 C2340 1.395 . S
C2338 C2341 1.403 . S
H2339 C2345 0.930 . S
C2340 H2326 0.930 . S
C2340 C2338 1.395 . S
C2340 C2343 1.403 . S
C2341 C2338 1.403 . S
C2341 C2342 1.524 . S
C2341 C2345 1.400 . S
C2342 H2327 0.960 . S
C2342 H2328 0.960 . S
C2342 H2329 0.960 . S
C2342 C2341 1.524 . S
C2343 C2340 1.403 . S
C2343 C2344 1.392 . S
C2343 C2347 1.495 . S
C2344 C2343 1.392 . S
C2344 C2345 1.385 . S
C2344 C2346 1.478 . S
C2345 H2339 0.930 . S
C2345 C2341 1.400 . S
C2345 C2344 1.385 . S
C2346 C2344 1.478 . S
C2346 C2348 1.381 . S
C2346 C2352 1.383 . S
C2347 C2343 1.495 . S
C2347 H2353 0.959 . S
C2347 H2354 0.961 . S
C2347 H2355 0.960 . S
C2348 C2346 1.381 . S
C2348 C2349 1.394 . S
C2348 H2356 0.930 . S
C2349 C2348 1.394 . S
C2349 C2350 1.383 . S
C2349 H2357 0.929 . S
C2350 C2349 1.383 . S
C2350 C2351 1.377 . S
C2351 H2335 0.930 . S
C2351 C2350 1.377 . S
C2351 C2352 1.379 . S
C2352 H2336 0.931 . S
C2352 C2346 1.383 . S
C2352 C2351 1.379 . S
H2353 C2347 0.959 . S
H2354 C2347 0.961 . S
H2355 C2347 0.960 . S
H2356 C2348 0.930 . S
H2357 C2349 0.929 . S
H2358 C2366 0.929 . S
H2359 C2368 0.930 . S
H2360 C2370 0.930 . S
H2361 C2373 0.929 . S
H2362 C2376 0.930 . S
H2363 C2378 0.960 . S
H2364 C2378 0.960 . S
H2365 C2378 0.960 . S
C2366 H2358 0.929 . S
C2366 C2367 1.377 . S
C2366 C2368 1.384 . S
C2367 C2366 1.377 . S
C2367 C2373 1.390 . S
C2368 H2359 0.930 . S
C2368 C2366 1.384 . S
C2368 C2369 1.372 . S
C2369 C2368 1.372 . S
C2369 C2370 1.400 . S
C2369 C2374 1.490 . S
C2370 H2360 0.930 . S
C2370 C2369 1.400 . S
C2370 C2373 1.386 . S
H2371 C2387 0.930 . S
H2372 C2388 0.931 . S
C2373 H2361 0.929 . S
C2373 C2367 1.390 . S
C2373 C2370 1.386 . S
C2374 C2369 1.490 . S
C2374 C2376 1.395 . S
C2374 C2377 1.403 . S
H2375 C2381 0.930 . S
C2376 H2362 0.930 . S
C2376 C2374 1.395 . S
C2376 C2379 1.403 . S
C2377 C2374 1.403 . S
C2377 C2378 1.524 . S
C2377 C2381 1.400 . S
C2378 H2363 0.960 . S
C2378 H2364 0.960 . S
C2378 H2365 0.960 . S
C2378 C2377 1.524 . S
C2379 C2376 1.403 . S
C2379 C2380 1.392 . S
C2379 C2383 1.495 . S
C2380 C2379 1.392 . S
C2380 C2381 1.385 . S
C2380 C2382 1.478 . S
C2381 H2375 0.930 . S
C2381 C2377 1.400 . S
C2381 C2380 1.385 . S
C2382 C2380 1.478 . S
C2382 C2384 1.381 . S
C2382 C2388 1.383 . S
C2383 C2379 1.495 . S
C2383 H2389 0.959 . S
C2383 H2390 0.961 . S
C2383 H2391 0.960 . S
C2384 C2382 1.381 . S
C2384 C2385 1.394 . S
C2384 H2392 0.930 . S
C2385 C2384 1.394 . S
C2385 C2386 1.383 . S
C2385 H2393 0.929 . S
C2386 C2385 1.383 . S
C2386 C2387 1.377 . S
C2387 H2371 0.930 . S
C2387 C2386 1.377 . S
C2387 C2388 1.379 . S
C2388 H2372 0.931 . S
C2388 C2382 1.383 . S
C2388 C2387 1.379 . S
H2389 C2383 0.959 . S
H2390 C2383 0.961 . S
H2391 C2383 0.960 . S
H2392 C2384 0.930 . S
H2393 C2385 0.929 . S
H2394 C2402 0.929 . S
H2395 C2404 0.930 . S
H2396 C2406 0.930 . S
H2397 C2409 0.929 . S
H2398 C2412 0.930 . S
H2399 C2414 0.960 . S
H2400 C2414 0.960 . S
H2401 C2414 0.960 . S
C2402 H2394 0.929 . S
C2402 C2403 1.377 . S
C2402 C2404 1.384 . S
C2403 C2402 1.377 . S
C2403 C2409 1.390 . S
C2404 H2395 0.930 . S
C2404 C2402 1.384 . S
C2404 C2405 1.372 . S
C2405 C2404 1.372 . S
C2405 C2406 1.400 . S
C2405 C2410 1.490 . S
C2406 H2396 0.930 . S
C2406 C2405 1.400 . S
C2406 C2409 1.386 . S
H2407 C2423 0.930 . S
H2408 C2424 0.931 . S
C2409 H2397 0.929 . S
C2409 C2403 1.390 . S
C2409 C2406 1.386 . S
C2410 C2405 1.490 . S
C2410 C2412 1.395 . S
C2410 C2413 1.403 . S
H2411 C2417 0.930 . S
C2412 H2398 0.930 . S
C2412 C2410 1.395 . S
C2412 C2415 1.403 . S
C2413 C2410 1.403 . S
C2413 C2414 1.524 . S
C2413 C2417 1.400 . S
C2414 H2399 0.960 . S
C2414 H2400 0.960 . S
C2414 H2401 0.960 . S
C2414 C2413 1.524 . S
C2415 C2412 1.403 . S
C2415 C2416 1.392 . S
C2415 C2419 1.495 . S
C2416 C2415 1.392 . S
C2416 C2417 1.385 . S
C2416 C2418 1.478 . S
C2417 H2411 0.930 . S
C2417 C2413 1.400 . S
C2417 C2416 1.385 . S
C2418 C2416 1.478 . S
C2418 C2420 1.381 . S
C2418 C2424 1.383 . S
C2419 C2415 1.495 . S
C2419 H2425 0.959 . S
C2419 H2426 0.961 . S
C2419 H2427 0.960 . S
C2420 C2418 1.381 . S
C2420 C2421 1.394 . S
C2420 H2428 0.930 . S
C2421 C2420 1.394 . S
C2421 C2422 1.383 . S
C2421 H2429 0.929 . S
C2422 C2421 1.383 . S
C2422 C2423 1.377 . S
C2423 H2407 0.930 . S
C2423 C2422 1.377 . S
C2423 C2424 1.379 . S
C2424 H2408 0.931 . S
C2424 C2418 1.383 . S
C2424 C2423 1.379 . S
H2425 C2419 0.959 . S
H2426 C2419 0.961 . S
H2427 C2419 0.960 . S
H2428 C2420 0.930 . S
H2429 C2421 0.929 . S
H2430 C2438 0.929 . S
H2431 C2440 0.930 . S
H2432 C2442 0.930 . S
H2433 C2445 0.929 . S
H2434 C2448 0.930 . S
H2435 C2450 0.960 . S
H2436 C2450 0.960 . S
H2437 C2450 0.960 . S
C2438 H2430 0.929 . S
C2438 C2439 1.377 . S
C2438 C2440 1.384 . S
C2439 C2438 1.377 . S
C2439 C2445 1.390 . S
C2440 H2431 0.930 . S
C2440 C2438 1.384 . S
C2440 C2441 1.372 . S
C2441 C2440 1.372 . S
C2441 C2442 1.400 . S
C2441 C2446 1.490 . S
C2442 H2432 0.930 . S
C2442 C2441 1.400 . S
C2442 C2445 1.386 . S
H2443 C2459 0.930 . S
H2444 C2460 0.931 . S
C2445 H2433 0.929 . S
C2445 C2439 1.390 . S
C2445 C2442 1.386 . S
C2446 C2441 1.490 . S
C2446 C2448 1.395 . S
C2446 C2449 1.403 . S
H2447 C2453 0.930 . S
C2448 H2434 0.930 . S
C2448 C2446 1.395 . S
C2448 C2451 1.403 . S
C2449 C2446 1.403 . S
C2449 C2450 1.524 . S
C2449 C2453 1.400 . S
C2450 H2435 0.960 . S
C2450 H2436 0.960 . S
C2450 H2437 0.960 . S
C2450 C2449 1.524 . S
C2451 C2448 1.403 . S
C2451 C2452 1.392 . S
C2451 C2455 1.495 . S
C2452 C2451 1.392 . S
C2452 C2453 1.385 . S
C2452 C2454 1.478 . S
C2453 H2447 0.930 . S
C2453 C2449 1.400 . S
C2453 C2452 1.385 . S
C2454 C2452 1.478 . S
C2454 C2456 1.381 . S
C2454 C2460 1.383 . S
C2455 C2451 1.495 . S
C2455 H2461 0.959 . S
C2455 H2462 0.961 . S
C2455 H2463 0.960 . S
C2456 C2454 1.381 . S
C2456 C2457 1.394 . S
C2456 H2464 0.930 . S
C2457 C2456 1.394 . S
C2457 C2458 1.383 . S
C2457 H2465 0.929 . S
C2458 C2457 1.383 . S
C2458 C2459 1.377 . S
C2459 H2443 0.930 . S
C2459 C2458 1.377 . S
C2459 C2460 1.379 . S
C2460 H2444 0.931 . S
C2460 C2454 1.383 . S
C2460 C2459 1.379 . S
H2461 C2455 0.959 . S
H2462 C2455 0.961 . S
H2463 C2455 0.960 . S
H2464 C2456 0.930 . S
H2465 C2457 0.929 . S
H2466 C2474 0.929 . S
H2467 C2476 0.930 . S
H2468 C2478 0.930 . S
H2469 C2481 0.929 . S
H2470 C2484 0.930 . S
H2471 C2486 0.960 . S
H2472 C2486 0.960 . S
H2473 C2486 0.960 . S
C2474 H2466 0.929 . S
C2474 C2475 1.377 . S
C2474 C2476 1.384 . S
C2475 C2474 1.377 . S
C2475 C2481 1.390 . S
C2476 H2467 0.930 . S
C2476 C2474 1.384 . S
C2476 C2477 1.372 . S
C2477 C2476 1.372 . S
C2477 C2478 1.400 . S
C2477 C2482 1.490 . S
C2478 H2468 0.930 . S
C2478 C2477 1.400 . S
C2478 C2481 1.386 . S
H2479 C2495 0.930 . S
H2480 C2496 0.931 . S
C2481 H2469 0.929 . S
C2481 C2475 1.390 . S
C2481 C2478 1.386 . S
C2482 C2477 1.490 . S
C2482 C2484 1.395 . S
C2482 C2485 1.403 . S
H2483 C2489 0.930 . S
C2484 H2470 0.930 . S
C2484 C2482 1.395 . S
C2484 C2487 1.403 . S
C2485 C2482 1.403 . S
C2485 C2486 1.524 . S
C2485 C2489 1.400 . S
C2486 H2471 0.960 . S
C2486 H2472 0.960 . S
C2486 H2473 0.960 . S
C2486 C2485 1.524 . S
C2487 C2484 1.403 . S
C2487 C2488 1.392 . S
C2487 C2491 1.495 . S
C2488 C2487 1.392 . S
C2488 C2489 1.385 . S
C2488 C2490 1.478 . S
C2489 H2483 0.930 . S
C2489 C2485 1.400 . S
C2489 C2488 1.385 . S
C2490 C2488 1.478 . S
C2490 C2492 1.381 . S
C2490 C2496 1.383 . S
C2491 C2487 1.495 . S
C2491 H2497 0.959 . S
C2491 H2498 0.961 . S
C2491 H2499 0.960 . S
C2492 C2490 1.381 . S
C2492 C2493 1.394 . S
C2492 H2500 0.930 . S
C2493 C2492 1.394 . S
C2493 C2494 1.383 . S
C2493 H2501 0.929 . S
C2494 C2493 1.383 . S
C2494 C2495 1.377 . S
C2495 H2479 0.930 . S
C2495 C2494 1.377 . S
C2495 C2496 1.379 . S
C2496 H2480 0.931 . S
C2496 C2490 1.383 . S
C2496 C2495 1.379 . S
H2497 C2491 0.959 . S
H2498 C2491 0.961 . S
H2499 C2491 0.960 . S
H2500 C2492 0.930 . S
H2501 C2493 0.929 . S
H2502 C2510 0.929 . S
H2503 C2512 0.930 . S
H2504 C2514 0.930 . S
H2505 C2517 0.929 . S
H2506 C2520 0.930 . S
H2507 C2522 0.960 . S
H2508 C2522 0.960 . S
H2509 C2522 0.960 . S
C2510 H2502 0.929 . S
C2510 C2511 1.377 . S
C2510 C2512 1.384 . S
C2511 C2510 1.377 . S
C2511 C2517 1.390 . S
C2512 H2503 0.930 . S
C2512 C2510 1.384 . S
C2512 C2513 1.372 . S
C2513 C2512 1.372 . S
C2513 C2514 1.400 . S
C2513 C2518 1.490 . S
C2514 H2504 0.930 . S
C2514 C2513 1.400 . S
C2514 C2517 1.386 . S
H2515 C2531 0.930 . S
H2516 C2532 0.931 . S
C2517 H2505 0.929 . S
C2517 C2511 1.390 . S
C2517 C2514 1.386 . S
C2518 C2513 1.490 . S
C2518 C2520 1.395 . S
C2518 C2521 1.403 . S
H2519 C2525 0.930 . S
C2520 H2506 0.930 . S
C2520 C2518 1.395 . S
C2520 C2523 1.403 . S
C2521 C2518 1.403 . S
C2521 C2522 1.524 . S
C2521 C2525 1.400 . S
C2522 H2507 0.960 . S
C2522 H2508 0.960 . S
C2522 H2509 0.960 . S
C2522 C2521 1.524 . S
C2523 C2520 1.403 . S
C2523 C2524 1.392 . S
C2523 C2527 1.495 . S
C2524 C2523 1.392 . S
C2524 C2525 1.385 . S
C2524 C2526 1.478 . S
C2525 H2519 0.930 . S
C2525 C2521 1.400 . S
C2525 C2524 1.385 . S
C2526 C2524 1.478 . S
C2526 C2528 1.381 . S
C2526 C2532 1.383 . S
C2527 C2523 1.495 . S
C2527 H2533 0.959 . S
C2527 H2534 0.961 . S
C2527 H2535 0.960 . S
C2528 C2526 1.381 . S
C2528 C2529 1.394 . S
C2528 H2536 0.930 . S
C2529 C2528 1.394 . S
C2529 C2530 1.383 . S
C2529 H2537 0.929 . S
C2530 C2529 1.383 . S
C2530 C2531 1.377 . S
C2531 H2515 0.930 . S
C2531 C2530 1.377 . S
C2531 C2532 1.379 . S
C2532 H2516 0.931 . S
C2532 C2526 1.383 . S
C2532 C2531 1.379 . S
H2533 C2527 0.959 . S
H2534 C2527 0.961 . S
H2535 C2527 0.960 . S
H2536 C2528 0.930 . S
H2537 C2529 0.929 . S
C603 N170 2.208 . S
C622 C237 2.246 . S
C639 N184 1.085 . S
C658 C277 1.086 . S
C675 N158 1.705 . S
C694 C329 1.696 . S
C711 N145 1.553 . S
C730 C289 1.530 1_556 S
C766 C317 0.696 . S
C747 N119 0.696 . S
C783 N131 1.888 . S
C802 C249 1.903 . S
C838 C256 1.817 1_556 S
C819 N144 1.824 . S
C874 C296 1.707 . S
C855 N118 1.703 . S
C891 N132 1.574 . S
C910 C316 1.564 . S
C927 N171 1.457 . S
C946 C276 1.447 . S
C963 N183 1.277 . S
C982 C336 1.278 . S
C1018 C236 1.433 . S
C999 N157 1.457 . S
C1054 C357 2.250 . S
C1035 N14 2.210 . S
C1071 N28 1.087 . S
C1090 C397 1.093 . S
C1107 N2 1.701 . S
C1126 C449 1.677 . S
C1143 N223 1.553 . S
C1162 C409 1.539 . S
C1179 N197 0.696 . S
C1198 C437 0.697 . S
C1215 N209 1.892 . S
C1234 C369 1.911 . S
C1251 N222 1.824 . S
C1270 C376 1.830 . S
C1287 N196 1.704 . S
C1306 C416 1.690 . S
C1342 C436 1.563 . S
C1323 N210 1.574 . S
C1359 N15 1.461 . S
C1378 C396 1.446 . S
C1414 C456 1.294 . S
C1395 N27 1.278 . S
C1431 N1 1.455 . S
C1450 C356 1.441 . S
C1486 C477 2.246 . S
C1467 N92 2.207 . S
C1503 N106 1.088 . S
C1522 C517 1.092 . S
C1558 C569 1.694 . S
C1539 N80 1.704 . S
C1594 C529 1.538 . S
C1575 N67 1.554 . S
C1630 C557 0.698 . S
C1611 N41 0.697 . S
C1647 N53 1.888 . S
C1666 C489 1.903 . S
C1683 N66 1.821 . S
C1702 C496 1.835 . S
C1719 N40 1.705 . S
C1738 C536 1.700 . S
C1774 C556 1.592 . S
C1755 N54 1.567 . S
C1791 N93 1.454 . S
C1810 C516 1.471 . S
C1827 N105 1.276 . S
C1846 C576 1.278 . S
C1863 N79 1.456 . S
C1882 C476 1.434 . S
C1899 N200 0.860 . S
C1918 C260 0.852 . S
C1954 C300 2.135 . S
C1935 N213 2.133 . S
C1971 N226 1.578 . S
C1990 C323 1.574 . S
C2007 N83 1.845 . S
C2026 C283 1.828 . S
C2043 N96 1.904 . S
C2062 C340 1.947 . S
C2098 C243 1.024 . S
C2079 N109 1.004 . S
C2115 N44 0.869 . S
C2134 C380 0.874 . S
C2151 N57 2.129 . S
C2170 C420 2.147 . S
C2187 N70 1.577 . S
C2206 C443 1.576 . S
C2223 N161 1.850 . S
C2242 C403 1.836 . S
C2278 C460 1.947 . S
C2259 N174 1.904 . S
C2295 N187 1.010 . S
C2314 C363 0.975 . S
C2331 N122 0.870 . S
C2350 C500 0.879 . S
C2367 N135 2.132 . S
C2386 C540 2.144 . S
C2422 C563 1.575 . S
C2403 N148 1.577 . S
C2439 N5 1.846 . S
C2458 C523 1.818 . S
C2475 N18 1.905 . S
C2494 C580 1.947 . S
C2511 N31 1.011 . S
C2530 C483 0.992 . S
