# Generated by pormake.
# Topology pts, (4,4)-cn, num edge types: 1
# Building blocks:
#     Node 0, Type 0, BuildingBlock: NAWXER_clean_linker_0, # of connection points: 4
#     Node 1, Type 0, BuildingBlock: NAWXER_clean_linker_0, # of connection points: 4
#     Node 2, Type 1, BuildingBlock: AZAVOO_clean_sbu_0, # of connection points: 4
#     Node 3, Type 1, BuildingBlock: AZAVOO_clean_sbu_0, # of connection points: 4
#     Edge 4, Type (0, 1), BuildingBlock: UVAHIK_clean_linker_0, # of connection points: 2
#     Edge 5, Type (0, 1), BuildingBlock: UVAHIK_clean_linker_0, # of connection points: 2
#     Edge 6, Type (0, 1), BuildingBlock: UVAHIK_clean_linker_0, # of connection points: 2
#     Edge 7, Type (0, 1), BuildingBlock: UVAHIK_clean_linker_0, # of connection points: 2
#     Edge 8, Type (0, 1), BuildingBlock: UVAHIK_clean_linker_0, # of connection points: 2
#     Edge 9, Type (0, 1), BuildingBlock: UVAHIK_clean_linker_0, # of connection points: 2
#     Edge 10, Type (0, 1), BuildingBlock: UVAHIK_clean_linker_0, # of connection points: 2
#     Edge 11, Type (0, 1), BuildingBlock: UVAHIK_clean_linker_0, # of connection points: 2
# Relax obj value: 0.000
# Max RMSD: 0.036
# Mean RMSD: 0.020
data_MOF--net-pts--node1-AZAVOO_clean_sbu_0--node2-NAWXER_clean_linker_0--edge1-UVAHIK_clean_linker_0
_symmetry_space_group_name_H-M    P1
_symmetry_Int_Tables_number       1
_symmetry_cell_setting            triclinic
loop_
_symmetry_equiv_pos_as_xyz
'x, y, z'
_cell_length_a     36.172256
_cell_length_b     37.087155
_cell_length_c     53.660542
_cell_angle_alpha  90.02519
_cell_angle_beta   95.906716
_cell_angle_gamma 90.014136
loop_
_atom_site_label
_atom_site_type_symbol
_atom_site_fract_x
_atom_site_fract_y
_atom_site_fract_z
_atom_type_partial_charge
C0 C 0.65919 0.04711 0.95886 0.0
C1 C 0.66244 0.01772 0.94269 0.0
C2 C 0.62896 0.04965 0.97297 0.0
C3 C 0.60141 0.02282 0.97127 0.0
C4 C 0.63455 0.99112 0.94074 0.0
C5 C 0.60413 -0.00617 0.95476 0.0
C6 C 0.56961 0.0253 0.98647 0.0
C7 C 0.66759 -0.00356 0.04023 0.0
C8 C 0.68073 0.02505 0.05586 0.0
C9 C 0.63314 -0.00116 0.02603 0.0
C10 C 0.61111 0.02983 0.02725 0.0
C11 C 0.65874 0.05615 0.05702 0.0
C12 C 0.62395 0.05833 0.04302 0.0
C13 C 0.57433 0.03177 0.01253 0.0
C14 C 0.42318 0.01018 0.04461 0.0
C15 C 0.41948 0.04041 0.05994 0.0
C16 C 0.45164 0.0086 0.02892 0.0
C17 C 0.47702 0.03715 0.02837 0.0
C18 C 0.44451 0.06926 0.05905 0.0
C19 C 0.47333 0.06744 0.04359 0.0
C20 C 0.50864 0.03443 0.0131 0.0
C21 C 0.40837 0.05232 0.95706 0.0
C22 C 0.39798 0.02093 0.94344 0.0
C23 C 0.44252 0.05403 0.97179 0.0
C24 C 0.46699 0.02457 0.97278 0.0
C25 C 0.42219 0.99124 0.94485 0.0
C26 C 0.45666 -0.00677 0.95917 0.0
C27 C 0.50393 0.02685 0.98719 0.0
H28 H 0.6803 0.06793 0.96085 0.0
H29 H 0.62707 0.07268 0.9852 0.0
H30 H 0.63609 0.96841 0.92819 0.0
H31 H 0.583 0.97301 0.953 0.0
H32 H 0.68403 0.97223 0.03895 0.0
H33 H 0.62349 0.97628 0.01427 0.0
H34 H 0.66813 0.07841 0.06913 0.0
H35 H 0.60721 0.08234 0.04433 0.0
H36 H 0.4042 0.98761 0.04492 0.0
H37 H 0.45437 0.98466 0.01768 0.0
H38 H 0.44248 0.0927 0.07089 0.0
H39 H 0.49285 0.08961 0.04357 0.0
H40 H 0.39012 0.07554 0.9562 0.0
H41 H 0.45019 0.0786 0.98196 0.0
H42 H 0.4149 0.96691 0.93429 0.0
H43 H 0.47528 0.9703 0.95966 0.0
N44 N 0.53456 0.02266 0.97477 0.0
N45 N 0.5437 0.03648 0.02488 0.0
C46 C 0.06517 0.62793 0.54154 0.0
C47 C 0.03885 0.63523 0.55843 0.0
C48 C 0.06138 0.59757 0.52605 0.0
C49 C 0.03101 0.57418 0.52699 0.0
C50 C 0.00839 0.61183 0.55919 0.0
C51 C 0.00466 0.58151 0.54374 0.0
C52 C 0.02815 0.54045 0.51228 0.0
C53 C 0.0139 0.62888 0.45477 0.0
C54 C 0.03801 0.6278 0.43581 0.0
C55 C 0.01259 0.60026 0.47157 0.0
C56 C 0.03615 0.57035 0.47026 0.0
C57 C 0.06137 0.59769 0.43446 0.0
C58 C 0.06047 0.56937 0.45151 0.0
C59 C 0.0333 0.53846 0.4866 0.0
C60 C 0.00604 0.38205 0.45986 0.0
C61 C 0.03381 0.37841 0.44344 0.0
C62 C 0.00457 0.41281 0.47485 0.0
C63 C 0.03135 0.44013 0.47413 0.0
C64 C 0.06029 0.40605 0.44268 0.0
C65 C 0.05909 0.43642 0.45786 0.0
C66 C 0.02941 0.47416 0.48837 0.0
C67 C 0.03926 0.38785 0.54865 0.0
C68 C 0.01122 0.38889 0.56501 0.0
C69 C 0.04273 0.4157 0.53149 0.0
C70 C 0.01774 0.44477 0.53 0.0
C71 C 0.98621 0.418 0.56334 0.0
C72 C 0.9895 0.44561 0.54606 0.0
C73 C 0.02279 0.47629 0.51383 0.0
H74 H 0.08923 0.64512 0.54078 0.0
H75 H 0.08268 0.5919 0.51381 0.0
H76 H 0.98734 0.61697 0.57171 0.0
H77 H 0.98117 0.56367 0.54491 0.0
H78 H 0.99576 0.65173 0.4566 0.0
H79 H 0.99248 0.60126 0.48516 0.0
H80 H 0.07975 0.59545 0.41984 0.0
H81 H 0.07851 0.54638 0.44979 0.0
H82 H 0.98531 0.36124 0.46107 0.0
H83 H 0.98211 0.41546 0.4866 0.0
H84 H 0.08152 0.40475 0.42989 0.0
H85 H 0.07975 0.45734 0.45666 0.0
H86 H 0.05881 0.36568 0.54926 0.0
H87 H 0.06548 0.41491 0.51987 0.0
H88 H 0.96472 0.42009 0.5759 0.0
H89 H 0.97025 0.46805 0.54553 0.0
N90 N 0.02257 0.50937 0.52471 0.0
N91 N 0.03416 0.50537 0.47584 0.0
Mg92 Mg 0.08232 -0.00255 0.26439 0.0
O93 O 0.0298 -0.00375 0.23602 0.0
O94 O 0.98196 0.98362 0.25798 0.0
Mg95 Mg 0.00238 0.97932 0.29944 0.0
C96 C 0.99522 0.99023 0.23731 0.0
C97 C 0.14906 0.00475 0.23613 0.0
O98 O 0.15687 0.97966 0.25314 0.0
O99 O 0.06614 0.05301 0.27775 0.0
O100 O 0.01875 0.03923 0.29975 0.0
O101 O 0.09014 0.93785 0.2612 0.0
O102 O 0.05665 0.96369 0.28837 0.0
C103 C 0.04094 0.06216 0.29154 0.0
C104 C 0.06849 0.93461 0.27882 0.0
O105 O 0.11766 0.02037 0.23526 0.0
Mg106 Mg 0.99466 0.00052 0.73644 0.0
O107 O 0.05151 0.00111 0.76027 0.0
O108 O 0.09486 0.00276 0.73337 0.0
Mg109 Mg 0.06709 0.00074 0.69335 0.0
C110 C 0.08546 0.0025 0.75566 0.0
C111 C 0.9621 0.98969 0.78727 0.0
O112 O 0.97953 0.95892 0.78526 0.0
O113 O 0.00095 0.06009 0.72674 0.0
O114 O 0.04395 0.05712 0.69962 0.0
O115 O 0.99543 0.94026 0.73473 0.0
O116 O 0.01815 0.9758 0.70709 0.0
C117 C 0.02151 0.07505 0.71174 0.0
C118 C 0.01267 0.94365 0.71489 0.0
O119 O 0.96447 0.01372 0.77061 0.0
C120 C 0.36749 0.07095 0.07944 0.0
C121 C 0.39081 0.04091 0.07777 0.0
C122 C 0.34077 0.07118 0.09656 0.0
C123 C 0.32115 0.03225 0.15622 0.0
H124 H 0.21716 0.05098 0.13511 0.0
C125 C 0.2079 0.99161 0.21747 0.0
C126 C 0.17623 0.01334 0.21816 0.0
C127 C 0.2338 -0.00115 0.20063 0.0
C128 C 0.24616 0.04635 0.14144 0.0
H129 H 0.40491 0.9879 0.09282 0.0
H130 H 0.35872 0.98854 0.12295 0.0
H131 H 0.2632 0.057 0.10498 0.0
H132 H 0.14694 0.05993 0.20167 0.0
H133 H 0.19286 0.07317 0.17242 0.0
H134 H 0.30467 0.02188 0.1926 0.0
C135 C 0.36089 0.01175 0.11093 0.0
C136 C 0.27246 0.04968 0.12416 0.0
C137 C 0.38709 0.01126 0.09358 0.0
C138 C 0.17107 0.04265 0.20156 0.0
C139 C 0.19728 0.05012 0.18474 0.0
C140 C 0.29505 0.02936 0.17353 0.0
C141 C 0.33751 0.04169 0.11262 0.0
C142 C 0.31004 0.04181 0.13128 0.0
C143 C 0.22905 0.02831 0.18413 0.0
C144 C 0.25707 0.03542 0.16624 0.0
H145 H 0.36975 0.09408 0.06737 0.0
H146 H 0.3231 0.09461 0.09757 0.0
H147 H 0.35008 0.02665 0.16229 0.0
H148 H 0.21262 0.96858 0.2298 0.0
H149 H 0.25734 0.98088 0.20032 0.0
C150 C 0.97414 0.34833 0.59064 0.0
C151 C 0.00883 0.36055 0.58438 0.0
C152 C 0.97201 0.32228 0.60925 0.0
C153 C 0.02879 0.27696 0.66212 0.0
H154 H 0.95697 0.19985 0.64919 0.0
C155 C 0.04876 0.1331 0.69939 0.0
C156 C 0.01805 0.11401 0.70657 0.0
C157 C 0.04459 0.16818 0.69025 0.0
C158 C 0.97665 0.22159 0.65336 0.0
H159 H 0.06849 0.35524 0.59317 0.0
H160 H 0.06482 0.30877 0.62468 0.0
H161 H 0.95546 0.25116 0.62084 0.0
H162 H 0.9593 0.11715 0.7111 0.0
H163 H 0.95177 0.17864 0.69445 0.0
H164 H 0.05124 0.24607 0.69387 0.0
C165 C 0.03918 0.31986 0.61564 0.0
C166 C 0.97584 0.25103 0.63709 0.0
C167 C 0.0413 0.34608 0.59719 0.0
C168 C 0.98343 0.13137 0.70576 0.0
C169 C 0.97909 0.16637 0.69614 0.0
C170 C 0.02982 0.24733 0.67823 0.0
C171 C 0.00452 0.30763 0.62194 0.0
C172 C 0.00254 0.27862 0.64089 0.0
C173 C 0.00949 0.1847 0.68772 0.0
C174 C 0.00433 0.21895 0.67363 0.0
H175 H 0.94855 0.35862 0.581 0.0
H176 H 0.94485 0.31372 0.61373 0.0
H177 H 0.04918 0.29816 0.66597 0.0
H178 H 0.0758 0.12038 0.69995 0.0
H179 H 0.06843 0.18153 0.68371 0.0
C180 C 0.74343 0.04943 0.07194 0.0
C181 C 0.71682 0.0218 0.07144 0.0
C182 C 0.77762 0.04588 0.08652 0.0
C183 C 0.83829 0.97724 0.12158 0.0
H184 H 0.88111 0.0607 0.15732 0.0
C185 C 0.93667 0.97039 0.21261 0.0
C186 C 0.96904 0.99155 0.21432 0.0
C187 C 0.9102 0.9733 0.1919 0.0
C188 C 0.86974 0.0373 0.14713 0.0
H189 H 0.70457 0.96925 0.08612 0.0
H190 H 0.76332 0.9635 0.11221 0.0
H191 H 0.82571 0.06789 0.12772 0.0
H192 H -0.00056 0.03201 0.1956 0.0
H193 H 0.95219 0.03795 0.15949 0.0
H194 H 0.88125 0.94647 0.14226 0.0
C195 C 0.75869 0.98739 0.10073 0.0
C196 C 0.83803 0.04136 0.13012 0.0
C197 C 0.72484 0.99074 0.08591 0.0
C198 C 0.97479 0.01526 0.19466 0.0
C199 C 0.9478 0.01878 0.17413 0.0
C200 C 0.86958 0.97314 0.13888 0.0
C201 C 0.78567 0.01482 0.10118 0.0
C202 C 0.82143 0.01123 0.11748 0.0
C203 C 0.91519 -0.00205 0.17269 0.0
C204 C 0.88519 0.00302 0.15211 0.0
H205 H 0.73801 0.07352 0.06075 0.0
H206 H 0.79782 0.06736 0.0861 0.0
H207 H 0.82699 0.95357 0.11173 0.0
H208 H 0.93159 0.95179 0.22745 0.0
H209 H 0.88516 0.95716 0.19131 0.0
C210 C 0.05491 0.70029 0.56682 0.0
C211 C 0.04326 0.66681 0.57547 0.0
C212 C 0.05767 0.73027 0.58268 0.0
C213 C 0.06196 0.7576 0.64949 0.0
H214 H 0.02086 0.84724 0.62176 0.0
C215 C 0.0187 0.87683 0.70975 0.0
C216 C 0.0248 0.91192 0.7012 0.0
C217 C 0.0266 0.84693 0.69532 0.0
C218 C 0.03302 0.8226 0.62973 0.0
H219 H 0.02681 0.63824 0.60783 0.0
H220 H 0.03062 0.69069 0.63525 0.0
H221 H 0.02427 0.79512 0.59462 0.0
H222 H 0.04526 0.94309 0.67125 0.0
H223 H 0.05949 0.89107 0.64639 0.0
H224 H 0.06983 0.78508 0.68478 0.0
C225 C 0.03798 0.69375 0.6163 0.0
C226 C 0.03499 0.7927 0.61415 0.0
C227 C 0.03528 0.66379 0.60047 0.0
C228 C 0.04028 0.91646 0.67844 0.0
C229 C 0.04816 0.88664 0.66405 0.0
C230 C 0.0599 0.78755 0.66511 0.0
C231 C 0.04883 0.72743 0.60752 0.0
C232 C 0.04915 0.75975 0.62387 0.0
C233 C 0.04066 0.85159 0.67206 0.0
C234 C 0.0451 0.82028 0.65542 0.0
H235 H 0.06109 0.70355 0.54763 0.0
H236 H 0.06652 0.75576 0.57543 0.0
H237 H 0.0735 0.73272 0.65748 0.0
H238 H 0.00679 0.87245 0.72721 0.0
H239 H 0.02024 0.82026 0.7019 0.0
C240 C 0.35574 0.04629 0.90809 0.0
C241 C 0.36295 0.01981 0.92664 0.0
C242 C 0.32411 0.04397 0.89092 0.0
C243 C 0.23018 0.01219 0.87976 0.0
H244 H 0.24857 0.00384 0.81008 0.0
C245 C 0.11096 0.98945 0.80008 0.0
C246 C 0.11524 0.00477 0.77662 0.0
C247 C 0.14022 0.99049 0.81933 0.0
C248 C 0.24272 0.00683 0.82936 0.0
H249 H 0.34243 0.97089 0.94243 0.0
H250 H 0.28611 0.96747 0.91265 0.0
H251 H 0.30071 0.00865 0.84235 0.0
H252 H 0.15266 0.03469 0.75525 0.0
H253 H 0.20263 0.03819 0.78889 0.0
H254 H 0.17219 0.01199 0.86687 0.0
C255 C 0.30527 0.98969 0.91135 0.0
C256 C 0.2727 0.00927 0.84782 0.0
C257 C 0.3374 0.99156 0.92822 0.0
C258 C 0.14877 0.02208 0.77301 0.0
C259 C 0.1776 0.02381 0.79232 0.0
C260 C 0.20002 0.01053 0.8612 0.0
C261 C 0.29877 0.01557 0.89233 0.0
C262 C 0.26669 0.01213 0.87312 0.0
C263 C 0.17409 0.00749 0.81563 0.0
C264 C 0.20589 0.00809 0.83569 0.0
H265 H 0.37519 0.06816 0.90641 0.0
H266 H 0.31953 0.06422 0.87637 0.0
H267 H 0.22502 0.01447 0.89923 0.0
H268 H 0.08539 0.97584 0.80333 0.0
H269 H 0.1365 0.97728 0.83688 0.0
C270 C 0.00167 0.33111 0.41533 0.0
C271 C 0.03476 0.34664 0.42655 0.0
C272 C 0.00273 0.30231 0.39861 0.0
C273 C 0.06608 0.23174 0.37797 0.0
H274 H 0.99036 0.22377 0.32155 0.0
C275 C 0.07124 0.12142 0.30295 0.0
C276 C 0.03919 0.09976 0.30042 0.0
C277 C 0.07105 0.15458 0.31535 0.0
C278 C 0.01171 0.2258 0.3372 0.0
H279 H 0.09497 0.3432 0.42933 0.0
H280 H 0.0968 0.29448 0.39937 0.0
H281 H 0.98967 0.2752 0.34993 0.0
H282 H 0.98117 0.09691 0.30721 0.0
H283 H 0.98071 0.15517 0.32833 0.0
H284 H 0.08827 0.1825 0.36493 0.0
C285 C 0.06994 0.30397 0.40381 0.0
C286 C 0.01118 0.25504 0.35361 0.0
C287 C 0.06889 0.33239 0.42078 0.0
C288 C 0.00635 0.11294 0.30902 0.0
C289 C 0.006 0.14633 0.321 0.0
C290 C 0.06691 0.20286 0.36135 0.0
C291 C 0.03689 0.28856 0.39245 0.0
C292 C 0.03811 0.25816 0.3744 0.0
C293 C 0.03864 0.16692 0.32495 0.0
C294 C 0.03951 0.19941 0.34099 0.0
H295 H 0.97485 0.34159 0.41906 0.0
H296 H 0.97668 0.29076 0.39061 0.0
H297 H 0.08687 0.23275 0.39398 0.0
H298 H 0.09698 0.11192 0.29659 0.0
H299 H 0.0965 0.17016 0.31804 0.0
C300 C 0.71369 0.98202 0.92632 0.0
C301 C 0.69486 0.01492 0.92795 0.0
C302 C 0.74457 0.97956 0.91275 0.0
C303 C 0.81549 0.03561 0.88544 0.0
H304 H 0.82782 0.95017 0.84547 0.0
C305 C 0.91681 0.02688 0.80872 0.0
C306 C 0.9364 -0.00557 0.8068 0.0
C307 C 0.88972 0.02992 0.82542 0.0
C308 C 0.82504 0.97401 0.85679 0.0
H309 H 0.69319 0.07088 0.91627 0.0
H310 H 0.74661 0.06651 0.89221 0.0
H311 H 0.77534 0.95419 0.87033 0.0
H312 H 0.94392 0.9402 0.82165 0.0
H313 H 0.8967 0.94558 0.85074 0.0
H314 H 0.86488 0.05567 0.87133 0.0
C315 C 0.73816 0.04277 0.90191 0.0
C316 C 0.79495 0.97632 0.87108 0.0
C317 C 0.70745 0.04527 0.91562 0.0
C318 C 0.92924 0.96554 0.82257 0.0
C319 C 0.90202 0.96851 0.83913 0.0
C320 C 0.84547 0.03339 0.871 0.0
C321 C 0.75717 0.00989 0.90033 0.0
C322 C 0.78971 0.00719 0.88553 0.0
C323 C 0.88152 0.00051 0.84043 0.0
C324 C 0.85051 0.00259 0.85648 0.0
H325 H 0.70493 0.9583 0.93592 0.0
H326 H 0.75887 0.95395 0.91228 0.0
H327 H 0.8127 0.05953 0.89667 0.0
H328 H 0.92167 0.04967 0.79686 0.0
H329 H 0.87423 0.05486 0.8259 0.0
C330 C 0.005 0.67526 0.40836 0.0
C331 C 0.03818 0.65744 0.41712 0.0
C332 C 0.00517 0.7031 0.39086 0.0
C333 C 0.05594 0.73953 0.34129 0.0
H334 H 0.01399 0.83154 0.35792 0.0
C335 C 0.08578 0.87115 0.28972 0.0
C336 C 0.05941 0.89898 0.28867 0.0
C337 C 0.07986 0.83925 0.30258 0.0
C338 C 0.02509 0.80589 0.35258 0.0
H339 H 0.09762 0.65534 0.41423 0.0
H340 H 0.0975 0.70316 0.38306 0.0
H341 H 0.00987 0.78044 0.38586 0.0
H342 H 0.00479 0.91414 0.29815 0.0
H343 H 0.9936 0.85807 0.31962 0.0
H344 H 0.07075 0.7646 0.30784 0.0
C345 C 0.07145 0.69538 0.38984 0.0
C346 C 0.0229 0.77669 0.36875 0.0
C347 C 0.07143 0.66793 0.40764 0.0
C348 C 0.02596 0.89348 0.2992 0.0
C349 C 0.01968 0.86134 0.31162 0.0
C350 C 0.0576 0.76859 0.32487 0.0
C351 C 0.03837 0.71332 0.38142 0.0
C352 C 0.03876 0.74344 0.36343 0.0
C353 C 0.04709 0.83429 0.31424 0.0
C354 C 0.04266 0.80234 0.33048 0.0
H355 H 0.97873 0.66747 0.41477 0.0
H356 H 0.97926 0.71641 0.38448 0.0
H357 H 0.06804 0.71397 0.33669 0.0
H358 H 0.11191 0.87483 0.28183 0.0
H359 H 0.10182 0.81932 0.30436 0.0
loop_
_geom_bond_atom_site_label_1
_geom_bond_atom_site_label_2
_geom_bond_distance
_geom_bond_site_symmetry_2
_ccdc_geom_bond_type
C0 C1 1.384 . S
C0 C2 1.384 . S
C0 H28 0.931 . S
C1 C0 1.384 . S
C1 C4 1.382 1_545 S
C2 C0 1.384 . S
C2 C3 1.381 . S
C2 H29 0.930 . S
C3 C2 1.381 . S
C3 C5 1.381 1_545 S
C3 C6 1.487 . S
C4 C1 1.382 1_565 S
C4 C5 1.387 . S
C4 H30 0.930 . S
C5 C3 1.381 1_565 S
C5 C4 1.387 . S
C5 H31 0.931 . S
C6 C3 1.487 . S
C6 C13 1.399 1_556 S
C6 N44 1.343 . S
C7 C8 1.384 1_565 S
C7 C9 1.384 . S
C7 H32 0.931 . S
C8 C7 1.384 1_545 S
C8 C11 1.382 . S
C9 C7 1.384 . S
C9 C10 1.381 1_565 S
C9 H33 0.930 . S
C10 C9 1.381 1_545 S
C10 C12 1.381 . S
C10 C13 1.487 . S
C11 C8 1.382 . S
C11 C12 1.387 . S
C11 H34 0.930 . S
C12 C10 1.381 . S
C12 C11 1.387 . S
C12 H35 0.931 . S
C13 C6 1.399 1_554 S
C13 C10 1.487 . S
C13 N45 1.343 . S
C14 C15 1.384 1_565 S
C14 C16 1.384 . S
C14 H36 0.931 . S
C15 C14 1.384 1_545 S
C15 C18 1.382 . S
C16 C14 1.384 . S
C16 C17 1.381 1_565 S
C16 H37 0.930 . S
C17 C16 1.381 1_545 S
C17 C19 1.381 . S
C17 C20 1.487 . S
C18 C15 1.382 . S
C18 C19 1.387 . S
C18 H38 0.930 . S
C19 C17 1.381 . S
C19 C18 1.387 . S
C19 H39 0.931 . S
C20 C17 1.487 . S
C20 C27 1.399 1_554 S
C20 N45 1.343 . S
C21 C22 1.384 . S
C21 C23 1.384 . S
C21 H40 0.931 . S
C22 C21 1.384 . S
C22 C25 1.382 1_545 S
C23 C21 1.384 . S
C23 C24 1.381 . S
C23 H41 0.930 . S
C24 C23 1.381 . S
C24 C26 1.381 1_545 S
C24 C27 1.487 . S
C25 C22 1.382 1_565 S
C25 C26 1.387 . S
C25 H42 0.930 . S
C26 C24 1.381 1_565 S
C26 C25 1.387 . S
C26 H43 0.931 . S
C27 C20 1.399 1_556 S
C27 C24 1.487 . S
C27 N44 1.343 . S
H28 C0 0.931 . S
H29 C2 0.930 . S
H30 C4 0.930 . S
H31 C5 0.931 . S
H32 C7 0.931 . S
H33 C9 0.930 . S
H34 C11 0.930 . S
H35 C12 0.931 . S
H36 C14 0.931 . S
H37 C16 0.930 . S
H38 C18 0.930 . S
H39 C19 0.931 . S
H40 C21 0.931 . S
H41 C23 0.930 . S
H42 C25 0.930 . S
H43 C26 0.931 . S
N44 C6 1.343 . S
N44 C27 1.343 . S
N45 C13 1.343 . S
N45 C20 1.343 . S
C46 C47 1.384 . S
C46 C48 1.384 . S
C46 H74 0.931 . S
C47 C46 1.384 . S
C47 C50 1.382 . S
C48 C46 1.384 . S
C48 C49 1.381 . S
C48 H75 0.930 . S
C49 C48 1.381 . S
C49 C51 1.381 . S
C49 C52 1.487 . S
C50 C47 1.382 . S
C50 C51 1.387 . S
C50 H76 0.930 1_455 S
C51 C49 1.381 . S
C51 C50 1.387 . S
C51 H77 0.931 1_455 S
C52 C49 1.487 . S
C52 C59 1.399 . S
C52 N90 1.343 . S
C53 C54 1.384 . S
C53 C55 1.384 . S
C53 H78 0.931 . S
C54 C53 1.384 . S
C54 C57 1.382 . S
C55 C53 1.384 . S
C55 C56 1.381 . S
C55 H79 0.930 . S
C56 C55 1.381 . S
C56 C58 1.381 . S
C56 C59 1.487 . S
C57 C54 1.382 . S
C57 C58 1.387 . S
C57 H80 0.930 . S
C58 C56 1.381 . S
C58 C57 1.387 . S
C58 H81 0.931 . S
C59 C52 1.399 . S
C59 C56 1.487 . S
C59 N91 1.343 . S
C60 C61 1.384 . S
C60 C62 1.384 . S
C60 H82 0.931 . S
C61 C60 1.384 . S
C61 C64 1.382 . S
C62 C60 1.384 . S
C62 C63 1.381 . S
C62 H83 0.930 . S
C63 C62 1.381 . S
C63 C65 1.381 . S
C63 C66 1.487 . S
C64 C61 1.382 . S
C64 C65 1.387 . S
C64 H84 0.930 . S
C65 C63 1.381 . S
C65 C64 1.387 . S
C65 H85 0.931 . S
C66 C63 1.487 . S
C66 C73 1.399 . S
C66 N91 1.343 . S
C67 C68 1.384 . S
C67 C69 1.384 . S
C67 H86 0.931 . S
C68 C67 1.384 . S
C68 C71 1.382 . S
C69 C67 1.384 . S
C69 C70 1.381 . S
C69 H87 0.930 . S
C70 C69 1.381 . S
C70 C72 1.381 . S
C70 C73 1.487 . S
C71 C68 1.382 . S
C71 C72 1.387 . S
C71 H88 0.930 1_455 S
C72 C70 1.381 . S
C72 C71 1.387 . S
C72 H89 0.931 1_455 S
C73 C66 1.399 . S
C73 C70 1.487 . S
C73 N90 1.343 . S
H74 C46 0.931 . S
H75 C48 0.930 . S
H76 C50 0.930 1_655 S
H77 C51 0.931 1_655 S
H78 C53 0.931 . S
H79 C55 0.930 . S
H80 C57 0.930 . S
H81 C58 0.931 . S
H82 C60 0.931 . S
H83 C62 0.930 . S
H84 C64 0.930 . S
H85 C65 0.931 . S
H86 C67 0.931 . S
H87 C69 0.930 . S
H88 C71 0.930 1_655 S
H89 C72 0.931 1_655 S
N90 C52 1.343 . S
N90 C73 1.343 . S
N91 C59 1.343 . S
N91 C66 1.343 . S
Mg92 O93 2.028 . S
Mg92 O99 1.986 . S
Mg92 O101 2.114 1_545 S
Mg92 O102 2.251 1_545 S
Mg92 O105 2.010 . S
O93 Mg92 2.028 . S
O93 C96 1.250 . S
O94 Mg95 2.028 . S
O94 C96 1.248 1_655 S
Mg95 O94 2.028 . S
Mg95 O100 2.032 1_655 S
Mg95 O102 2.079 1_645 S
C96 O93 1.250 . S
C96 O94 1.248 1_455 S
C97 O98 1.264 . S
C97 O105 1.249 . S
O98 C97 1.264 . S
O99 Mg92 1.986 . S
O99 C103 1.246 . S
O100 Mg95 2.032 1_455 S
O100 C103 1.259 . S
O101 Mg92 2.114 1_565 S
O101 C104 1.252 . S
O102 Mg92 2.251 1_565 S
O102 Mg95 2.079 1_465 S
O102 C104 1.273 . S
C103 O99 1.246 . S
C103 O100 1.259 . S
C104 O101 1.252 . S
C104 O102 1.273 . S
O105 Mg92 2.010 . S
O105 C97 1.249 . S
Mg106 O107 2.012 1_655 S
Mg106 O113 1.983 1_655 S
Mg106 O115 2.113 1_545 S
Mg106 O116 2.235 1_645 S
Mg106 O119 2.031 . S
O107 Mg106 2.012 1_455 S
O107 C110 1.250 . S
O108 Mg109 2.028 . S
O108 C110 1.248 . S
Mg109 O108 2.028 . S
Mg109 O114 2.032 . S
Mg109 O116 2.079 1_545 S
C110 O107 1.250 . S
C110 O108 1.248 . S
C111 O112 1.264 . S
C111 O119 1.249 . S
O112 C111 1.264 . S
O113 Mg106 1.983 1_455 S
O113 C117 1.246 . S
O114 Mg109 2.032 . S
O114 C117 1.259 . S
O115 Mg106 2.113 1_565 S
O115 C118 1.245 1_655 S
O116 Mg106 2.235 1_465 S
O116 Mg109 2.079 1_565 S
O116 C118 1.273 . S
C117 O113 1.246 . S
C117 O114 1.259 . S
C118 O115 1.245 1_455 S
C118 O116 1.273 . S
O119 Mg106 2.031 . S
O119 C111 1.249 . S
C120 C121 1.349 . S
C120 C122 1.327 . S
C120 H145 0.950 . S
C121 C120 1.349 . S
C121 C137 1.349 1_545 S
C122 C120 1.327 . S
C122 C141 1.429 . S
C122 H146 0.950 . S
C123 C140 1.574 . S
C123 C142 1.368 1_565 S
C123 H147 0.949 . S
H124 C128 0.949 . S
C125 C126 1.349 1_565 S
C125 C127 1.327 . S
C125 H148 0.950 . S
C126 C125 1.349 1_545 S
C126 C138 1.349 . S
C127 C125 1.327 . S
C127 C143 1.429 1_565 S
C127 H149 0.950 . S
C128 H124 0.949 . S
C128 C136 1.574 . S
C128 C144 1.368 . S
H129 C137 0.950 . S
H130 C135 0.950 . S
H131 C136 0.949 . S
H132 C138 0.950 . S
H133 C139 0.950 . S
H134 C140 0.949 . S
C135 H130 0.950 . S
C135 C137 1.327 . S
C135 C141 1.429 1_565 S
C136 C128 1.574 . S
C136 H131 0.949 . S
C136 C142 1.368 . S
C137 C121 1.349 1_565 S
C137 H129 0.950 . S
C137 C135 1.327 . S
C138 C126 1.349 . S
C138 H132 0.950 . S
C138 C139 1.327 . S
C139 H133 0.950 . S
C139 C138 1.327 . S
C139 C143 1.429 . S
C140 C123 1.574 . S
C140 H134 0.949 . S
C140 C144 1.368 1_565 S
C141 C122 1.429 . S
C141 C135 1.429 1_545 S
C141 C142 1.523 . S
C142 C123 1.368 1_545 S
C142 C136 1.368 . S
C142 C141 1.523 . S
C143 C127 1.429 1_545 S
C143 C139 1.429 . S
C143 C144 1.523 . S
C144 C128 1.368 . S
C144 C140 1.368 1_545 S
C144 C143 1.523 . S
H145 C120 0.950 . S
H146 C122 0.950 . S
H147 C123 0.949 . S
H148 C125 0.950 . S
H149 C127 0.950 . S
C150 C151 1.349 . S
C150 C152 1.327 . S
C150 H175 0.951 1_455 S
C151 C150 1.349 . S
C151 C167 1.349 . S
C152 C150 1.327 . S
C152 C171 1.429 . S
C152 H176 0.950 1_455 S
C153 C170 1.574 . S
C153 C172 1.368 . S
C153 H177 0.949 . S
H154 C158 0.949 1_655 S
C155 C156 1.349 . S
C155 C157 1.327 . S
C155 H178 0.950 . S
C156 C155 1.349 . S
C156 C168 1.349 . S
C157 C155 1.327 . S
C157 C173 1.429 . S
C157 H179 0.950 . S
C158 H154 0.949 1_455 S
C158 C166 1.574 . S
C158 C174 1.368 . S
H159 C167 0.950 . S
H160 C165 0.950 . S
H161 C166 0.949 1_655 S
H162 C168 0.950 1_655 S
H163 C169 0.950 1_655 S
H164 C170 0.949 . S
C165 H160 0.950 . S
C165 C167 1.327 . S
C165 C171 1.429 . S
C166 C158 1.574 . S
C166 H161 0.949 1_455 S
C166 C172 1.368 . S
C167 C151 1.349 . S
C167 H159 0.950 . S
C167 C165 1.327 . S
C168 C156 1.349 . S
C168 H162 0.950 1_455 S
C168 C169 1.327 . S
C169 H163 0.950 1_455 S
C169 C168 1.327 . S
C169 C173 1.429 . S
C170 C153 1.574 . S
C170 H164 0.949 . S
C170 C174 1.368 . S
C171 C152 1.429 . S
C171 C165 1.429 . S
C171 C172 1.523 . S
C172 C153 1.368 . S
C172 C166 1.368 . S
C172 C171 1.523 . S
C173 C157 1.429 . S
C173 C169 1.429 . S
C173 C174 1.523 . S
C174 C158 1.368 . S
C174 C170 1.368 . S
C174 C173 1.523 . S
H175 C150 0.951 1_655 S
H176 C152 0.950 1_655 S
H177 C153 0.949 . S
H178 C155 0.950 . S
H179 C157 0.950 . S
C180 C181 1.349 . S
C180 C182 1.327 . S
C180 H205 0.950 . S
C181 C180 1.349 . S
C181 C197 1.349 1_545 S
C182 C180 1.327 . S
C182 C201 1.429 . S
C182 H206 0.950 . S
C183 C200 1.574 . S
C183 C202 1.368 1_565 S
C183 H207 0.949 . S
H184 C188 0.949 . S
C185 C186 1.349 1_565 S
C185 C187 1.327 . S
C185 H208 0.950 . S
C186 C185 1.349 1_545 S
C186 C198 1.349 . S
C187 C185 1.327 . S
C187 C203 1.429 1_565 S
C187 H209 0.950 . S
C188 H184 0.949 . S
C188 C196 1.574 . S
C188 C204 1.368 . S
H189 C197 0.950 . S
H190 C195 0.950 . S
H191 C196 0.949 . S
H192 C198 0.950 . S
H193 C199 0.950 . S
H194 C200 0.949 . S
C195 H190 0.950 . S
C195 C197 1.327 . S
C195 C201 1.429 1_565 S
C196 C188 1.574 . S
C196 H191 0.949 . S
C196 C202 1.368 . S
C197 C181 1.349 1_565 S
C197 H189 0.950 . S
C197 C195 1.327 . S
C198 C186 1.349 . S
C198 H192 0.950 . S
C198 C199 1.327 . S
C199 H193 0.950 . S
C199 C198 1.327 . S
C199 C203 1.429 . S
C200 C183 1.574 . S
C200 H194 0.949 . S
C200 C204 1.368 1_565 S
C201 C182 1.429 . S
C201 C195 1.429 1_545 S
C201 C202 1.523 . S
C202 C183 1.368 1_545 S
C202 C196 1.368 . S
C202 C201 1.523 . S
C203 C187 1.429 1_545 S
C203 C199 1.429 . S
C203 C204 1.523 . S
C204 C188 1.368 . S
C204 C200 1.368 1_545 S
C204 C203 1.523 . S
H205 C180 0.950 . S
H206 C182 0.950 . S
H207 C183 0.949 . S
H208 C185 0.950 . S
H209 C187 0.950 . S
C210 C211 1.349 . S
C210 C212 1.327 . S
C210 H235 0.950 . S
C211 C210 1.349 . S
C211 C227 1.349 . S
C212 C210 1.327 . S
C212 C231 1.429 . S
C212 H236 0.950 . S
C213 C230 1.574 . S
C213 C232 1.368 . S
C213 H237 0.949 . S
H214 C218 0.949 . S
C215 C216 1.349 . S
C215 C217 1.327 . S
C215 H238 0.950 . S
C216 C215 1.349 . S
C216 C228 1.349 . S
C217 C215 1.327 . S
C217 C233 1.429 . S
C217 H239 0.950 . S
C218 H214 0.949 . S
C218 C226 1.574 . S
C218 C234 1.368 . S
H219 C227 0.950 . S
H220 C225 0.950 . S
H221 C226 0.949 . S
H222 C228 0.950 . S
H223 C229 0.950 . S
H224 C230 0.949 . S
C225 H220 0.950 . S
C225 C227 1.327 . S
C225 C231 1.429 . S
C226 C218 1.574 . S
C226 H221 0.949 . S
C226 C232 1.368 . S
C227 C211 1.349 . S
C227 H219 0.950 . S
C227 C225 1.327 . S
C228 C216 1.349 . S
C228 H222 0.950 . S
C228 C229 1.327 . S
C229 H223 0.950 . S
C229 C228 1.327 . S
C229 C233 1.429 . S
C230 C213 1.574 . S
C230 H224 0.949 . S
C230 C234 1.368 . S
C231 C212 1.429 . S
C231 C225 1.429 . S
C231 C232 1.523 . S
C232 C213 1.368 . S
C232 C226 1.368 . S
C232 C231 1.523 . S
C233 C217 1.429 . S
C233 C229 1.429 . S
C233 C234 1.523 . S
C234 C218 1.368 . S
C234 C230 1.368 . S
C234 C233 1.523 . S
H235 C210 0.950 . S
H236 C212 0.950 . S
H237 C213 0.949 . S
H238 C215 0.950 . S
H239 C217 0.950 . S
C240 C241 1.349 . S
C240 C242 1.327 . S
C240 H265 0.950 . S
C241 C240 1.349 . S
C241 C257 1.349 1_545 S
C242 C240 1.327 . S
C242 C261 1.429 . S
C242 H266 0.950 . S
C243 C260 1.574 . S
C243 C262 1.368 1_565 S
C243 H267 0.949 . S
H244 C248 0.949 . S
C245 C246 1.349 1_565 S
C245 C247 1.327 . S
C245 H268 0.950 . S
C246 C245 1.349 1_545 S
C246 C258 1.349 . S
C247 C245 1.327 . S
C247 C263 1.429 1_565 S
C247 H269 0.950 . S
C248 H244 0.949 . S
C248 C256 1.574 . S
C248 C264 1.368 . S
H249 C257 0.950 . S
H250 C255 0.950 . S
H251 C256 0.949 . S
H252 C258 0.950 . S
H253 C259 0.950 . S
H254 C260 0.949 . S
C255 H250 0.950 . S
C255 C257 1.327 . S
C255 C261 1.429 1_565 S
C256 C248 1.574 . S
C256 H251 0.949 . S
C256 C262 1.368 . S
C257 C241 1.349 1_565 S
C257 H249 0.950 . S
C257 C255 1.327 . S
C258 C246 1.349 . S
C258 H252 0.950 . S
C258 C259 1.327 . S
C259 H253 0.950 . S
C259 C258 1.327 . S
C259 C263 1.429 . S
C260 C243 1.574 . S
C260 H254 0.949 . S
C260 C264 1.368 1_565 S
C261 C242 1.429 . S
C261 C255 1.429 1_545 S
C261 C262 1.523 . S
C262 C243 1.368 1_545 S
C262 C256 1.368 . S
C262 C261 1.523 . S
C263 C247 1.429 1_545 S
C263 C259 1.429 . S
C263 C264 1.523 . S
C264 C248 1.368 . S
C264 C260 1.368 1_545 S
C264 C263 1.523 . S
H265 C240 0.950 . S
H266 C242 0.950 . S
H267 C243 0.949 . S
H268 C245 0.950 . S
H269 C247 0.950 . S
C270 C271 1.349 . S
C270 C272 1.327 . S
C270 H295 0.950 . S
C271 C270 1.349 . S
C271 C287 1.349 . S
C272 C270 1.327 . S
C272 C291 1.429 . S
C272 H296 0.950 . S
C273 C290 1.574 . S
C273 C292 1.368 . S
C273 H297 0.949 . S
H274 C278 0.949 . S
C275 C276 1.349 . S
C275 C277 1.327 . S
C275 H298 0.950 . S
C276 C275 1.349 . S
C276 C288 1.349 . S
C277 C275 1.327 . S
C277 C293 1.429 . S
C277 H299 0.950 . S
C278 H274 0.949 . S
C278 C286 1.574 . S
C278 C294 1.368 . S
H279 C287 0.950 . S
H280 C285 0.950 . S
H281 C286 0.949 . S
H282 C288 0.950 . S
H283 C289 0.950 . S
H284 C290 0.949 . S
C285 H280 0.950 . S
C285 C287 1.327 . S
C285 C291 1.429 . S
C286 C278 1.574 . S
C286 H281 0.949 . S
C286 C292 1.368 . S
C287 C271 1.349 . S
C287 H279 0.950 . S
C287 C285 1.327 . S
C288 C276 1.349 . S
C288 H282 0.950 . S
C288 C289 1.327 . S
C289 H283 0.950 . S
C289 C288 1.327 . S
C289 C293 1.429 . S
C290 C273 1.574 . S
C290 H284 0.949 . S
C290 C294 1.368 . S
C291 C272 1.429 . S
C291 C285 1.429 . S
C291 C292 1.523 . S
C292 C273 1.368 . S
C292 C286 1.368 . S
C292 C291 1.523 . S
C293 C277 1.429 . S
C293 C289 1.429 . S
C293 C294 1.523 . S
C294 C278 1.368 . S
C294 C290 1.368 . S
C294 C293 1.523 . S
H295 C270 0.950 . S
H296 C272 0.950 . S
H297 C273 0.949 . S
H298 C275 0.950 . S
H299 C277 0.950 . S
C300 C301 1.349 1_565 S
C300 C302 1.327 . S
C300 H325 0.950 . S
C301 C300 1.349 1_545 S
C301 C317 1.349 . S
C302 C300 1.327 . S
C302 C321 1.429 1_565 S
C302 H326 0.950 . S
C303 C320 1.574 . S
C303 C322 1.368 . S
C303 H327 0.949 . S
H304 C308 0.949 . S
C305 C306 1.349 . S
C305 C307 1.327 . S
C305 H328 0.950 . S
C306 C305 1.349 . S
C306 C318 1.349 1_545 S
C307 C305 1.327 . S
C307 C323 1.429 . S
C307 H329 0.950 . S
C308 H304 0.949 . S
C308 C316 1.574 . S
C308 C324 1.368 1_565 S
H309 C317 0.950 . S
H310 C315 0.950 . S
H311 C316 0.949 . S
H312 C318 0.950 . S
H313 C319 0.950 . S
H314 C320 0.949 . S
C315 H310 0.950 . S
C315 C317 1.327 . S
C315 C321 1.429 . S
C316 C308 1.574 . S
C316 H311 0.949 . S
C316 C322 1.368 1_565 S
C317 C301 1.349 . S
C317 H309 0.950 . S
C317 C315 1.327 . S
C318 C306 1.349 1_565 S
C318 H312 0.950 . S
C318 C319 1.327 . S
C319 H313 0.950 . S
C319 C318 1.327 . S
C319 C323 1.429 1_565 S
C320 C303 1.574 . S
C320 H314 0.949 . S
C320 C324 1.368 . S
C321 C302 1.429 1_545 S
C321 C315 1.429 . S
C321 C322 1.523 . S
C322 C303 1.368 . S
C322 C316 1.368 1_545 S
C322 C321 1.523 . S
C323 C307 1.429 . S
C323 C319 1.429 1_545 S
C323 C324 1.523 . S
C324 C308 1.368 1_545 S
C324 C320 1.368 . S
C324 C323 1.523 . S
H325 C300 0.950 . S
H326 C302 0.950 . S
H327 C303 0.949 . S
H328 C305 0.950 . S
H329 C307 0.950 . S
C330 C331 1.349 . S
C330 C332 1.327 . S
C330 H355 0.950 1_455 S
C331 C330 1.349 . S
C331 C347 1.349 . S
C332 C330 1.327 . S
C332 C351 1.429 . S
C332 H356 0.950 1_455 S
C333 C350 1.574 . S
C333 C352 1.368 . S
C333 H357 0.949 . S
H334 C338 0.925 1_655 S
C335 C336 1.349 . S
C335 C337 1.327 . S
C335 H358 0.950 . S
C336 C335 1.349 . S
C336 C348 1.349 . S
C337 C335 1.327 . S
C337 C353 1.429 . S
C337 H359 0.950 . S
C338 H334 0.925 1_455 S
C338 C346 1.574 . S
C338 C354 1.368 . S
H339 C347 0.950 . S
H340 C345 0.950 . S
H341 C346 0.949 1_655 S
H342 C348 0.950 . S
H343 C349 0.950 . S
H344 C350 0.949 . S
C345 H340 0.950 . S
C345 C347 1.327 . S
C345 C351 1.429 . S
C346 C338 1.574 . S
C346 H341 0.949 1_455 S
C346 C352 1.368 . S
C347 C331 1.349 . S
C347 H339 0.950 . S
C347 C345 1.327 . S
C348 C336 1.349 . S
C348 H342 0.950 . S
C348 C349 1.327 . S
C349 H343 0.950 . S
C349 C348 1.327 . S
C349 C353 1.429 . S
C350 C333 1.574 . S
C350 H344 0.949 . S
C350 C354 1.368 . S
C351 C332 1.429 . S
C351 C345 1.429 . S
C351 C352 1.523 . S
C352 C333 1.368 . S
C352 C346 1.368 . S
C352 C351 1.523 . S
C353 C337 1.429 . S
C353 C349 1.429 . S
C353 C354 1.523 . S
C354 C338 1.368 . S
C354 C350 1.368 . S
C354 C353 1.523 . S
H355 C330 0.950 1_655 S
H356 C332 0.950 1_655 S
H357 C333 0.949 . S
H358 C335 0.950 . S
H359 C337 0.950 . S
C126 C97 1.262 . S
C121 C15 1.504 . S
C156 C117 1.471 . S
C151 C68 1.496 . S
C186 C96 1.463 1_655 S
C181 C8 1.503 . S
C216 C118 1.508 . S
C211 C47 1.507 . S
C246 C110 1.463 . S
C241 C22 1.504 . S
C276 C103 1.471 . S
C271 C61 1.496 . S
C306 C111 1.262 . S
C301 C1 1.505 . S
C331 C54 1.507 . S
C336 C104 1.508 . S
