# Generated by pormake.
# Topology zzz, (3,6)-cn, num edge types: 1
# Building blocks:
#     Node 0, Type 0, BuildingBlock: MIDCAF_clean_linker_0, # of connection points: 3
#     Node 1, Type 0, BuildingBlock: MIDCAF_clean_linker_0, # of connection points: 3
#     Node 2, Type 0, BuildingBlock: MIDCAF_clean_linker_0, # of connection points: 3
#     Node 3, Type 0, BuildingBlock: MIDCAF_clean_linker_0, # of connection points: 3
#     Node 4, Type 0, BuildingBlock: MIDCAF_clean_linker_0, # of connection points: 3
#     Node 5, Type 0, BuildingBlock: MIDCAF_clean_linker_0, # of connection points: 3
#     Node 6, Type 0, BuildingBlock: MIDCAF_clean_linker_0, # of connection points: 3
#     Node 7, Type 0, BuildingBlock: MIDCAF_clean_linker_0, # of connection points: 3
#     Node 8, Type 1, BuildingBlock: MIFKUJ_clean_sbu_0, # of connection points: 6
#     Node 9, Type 1, BuildingBlock: MIFKUJ_clean_sbu_0, # of connection points: 6
#     Node 10, Type 1, BuildingBlock: MIFKUJ_clean_sbu_0, # of connection points: 6
#     Node 11, Type 1, BuildingBlock: MIFKUJ_clean_sbu_0, # of connection points: 6
#     Edge 12, Type (0, 1), BuildingBlock: CIFDUS_clean_linker_0, # of connection points: 2
#     Edge 13, Type (0, 1), BuildingBlock: CIFDUS_clean_linker_0, # of connection points: 2
#     Edge 14, Type (0, 1), BuildingBlock: CIFDUS_clean_linker_0, # of connection points: 2
#     Edge 15, Type (0, 1), BuildingBlock: CIFDUS_clean_linker_0, # of connection points: 2
#     Edge 16, Type (0, 1), BuildingBlock: CIFDUS_clean_linker_0, # of connection points: 2
#     Edge 17, Type (0, 1), BuildingBlock: CIFDUS_clean_linker_0, # of connection points: 2
#     Edge 18, Type (0, 1), BuildingBlock: CIFDUS_clean_linker_0, # of connection points: 2
#     Edge 19, Type (0, 1), BuildingBlock: CIFDUS_clean_linker_0, # of connection points: 2
#     Edge 20, Type (0, 1), BuildingBlock: CIFDUS_clean_linker_0, # of connection points: 2
#     Edge 21, Type (0, 1), BuildingBlock: CIFDUS_clean_linker_0, # of connection points: 2
#     Edge 22, Type (0, 1), BuildingBlock: CIFDUS_clean_linker_0, # of connection points: 2
#     Edge 23, Type (0, 1), BuildingBlock: CIFDUS_clean_linker_0, # of connection points: 2
#     Edge 24, Type (0, 1), BuildingBlock: CIFDUS_clean_linker_0, # of connection points: 2
#     Edge 25, Type (0, 1), BuildingBlock: CIFDUS_clean_linker_0, # of connection points: 2
#     Edge 26, Type (0, 1), BuildingBlock: CIFDUS_clean_linker_0, # of connection points: 2
#     Edge 27, Type (0, 1), BuildingBlock: CIFDUS_clean_linker_0, # of connection points: 2
#     Edge 28, Type (0, 1), BuildingBlock: CIFDUS_clean_linker_0, # of connection points: 2
#     Edge 29, Type (0, 1), BuildingBlock: CIFDUS_clean_linker_0, # of connection points: 2
#     Edge 30, Type (0, 1), BuildingBlock: CIFDUS_clean_linker_0, # of connection points: 2
#     Edge 31, Type (0, 1), BuildingBlock: CIFDUS_clean_linker_0, # of connection points: 2
#     Edge 32, Type (0, 1), BuildingBlock: CIFDUS_clean_linker_0, # of connection points: 2
#     Edge 33, Type (0, 1), BuildingBlock: CIFDUS_clean_linker_0, # of connection points: 2
#     Edge 34, Type (0, 1), BuildingBlock: CIFDUS_clean_linker_0, # of connection points: 2
#     Edge 35, Type (0, 1), BuildingBlock: CIFDUS_clean_linker_0, # of connection points: 2
# Relax obj value: 0.321
# Max RMSD: 0.209
# Mean RMSD: 0.194
data_MOF--net-zzz--node1-MIFKUJ_clean_sbu_0--node2-MIDCAF_clean_linker_0--edge1-CIFDUS_clean_linker_0
_symmetry_space_group_name_H-M    P1
_symmetry_Int_Tables_number       1
_symmetry_cell_setting            triclinic
loop_
_symmetry_equiv_pos_as_xyz
'x, y, z'
_cell_length_a     52.337209
_cell_length_b     53.023502
_cell_length_c     19.433341
_cell_angle_alpha  89.845427
_cell_angle_beta   89.855082
_cell_angle_gamma 90.701843
loop_
_atom_site_label
_atom_site_type_symbol
_atom_site_fract_x
_atom_site_fract_y
_atom_site_fract_z
_atom_type_partial_charge
C0 C 0.77625 0.55203 0.28406 0.0
C1 C 0.77814 0.52786 0.31356 0.0
C2 C 0.75757 0.51073 0.30374 0.0
C3 C 0.73773 0.51629 0.25781 0.0
H4 H 0.66096 0.50106 0.08044 0.0
H5 H 0.62251 0.49507 0.00953 0.0
H6 H 0.635 0.56841 0.91795 0.0
H7 H 0.67359 0.57403 0.98733 0.0
H8 H 0.73629 0.53316 0.89252 0.0
H9 H 0.77105 0.52419 0.81158 0.0
H10 H 0.82442 0.52263 0.98081 0.0
H11 H 0.79067 0.53231 0.06014 0.0
H12 H 0.75708 0.57533 0.21103 0.0
H13 H 0.79147 0.56585 0.28985 0.0
H14 H 0.75775 0.49223 0.32737 0.0
H15 H 0.7241 0.50154 0.24463 0.0
N16 N 0.70295 0.53893 0.13266 0.0
N17 N 0.7152 0.53759 0.01544 0.0
N18 N 0.74625 0.53865 0.10089 0.0
C19 C 0.69657 0.53855 0.06424 0.0
C20 C 0.74012 0.53739 0.03369 0.0
C21 C 0.72821 0.53955 0.15048 0.0
C22 C 0.66988 0.53818 0.04011 0.0
C23 C 0.65483 0.51625 0.04717 0.0
C24 C 0.63308 0.51272 0.00604 0.0
C25 C 0.62588 0.53125 0.95807 0.0
C26 C 0.63995 0.55393 0.95487 0.0
C27 C 0.66192 0.55722 0.99485 0.0
C28 C 0.76066 0.53359 0.98277 0.0
C29 C 0.75553 0.53117 0.91207 0.0
C30 C 0.77531 0.52584 0.86591 0.0
C31 C 0.80041 0.52286 0.88998 0.0
C32 C 0.80538 0.52533 0.96048 0.0
C33 C 0.78587 0.5308 0.00611 0.0
C34 C 0.73785 0.53921 0.22171 0.0
C35 C 0.75625 0.55764 0.23911 0.0
C36 C 0.94755 0.76983 0.27639 0.0
C37 C 0.96934 0.77054 0.31864 0.0
C38 C 0.98593 0.74969 0.31644 0.0
C39 C 0.98281 0.73073 0.26666 0.0
H40 H 0.94758 0.64847 0.0934 0.0
H41 H 0.94864 0.6088 0.02667 0.0
H42 H 0.01233 0.63804 0.90864 0.0
H43 H 0.01185 0.67669 0.97518 0.0
H44 H 0.97652 0.73341 0.89408 0.0
H45 H 0.98669 0.76805 0.81452 0.0
H46 H 0.0054 0.81596 0.98734 0.0
H47 H -0.00566 0.78209 0.06604 0.0
H48 H 0.92892 0.75245 0.19062 0.0
H49 H 0.93426 0.7853 0.27585 0.0
H50 H 0.00248 0.74896 0.34964 0.0
H51 H -0.00236 0.71683 0.26063 0.0
N52 N 0.96968 0.69788 0.13064 0.0
N53 N 0.97975 0.71063 0.01717 0.0
N54 N 0.97129 0.74088 0.10017 0.0
C55 C 0.97582 0.6919 0.06393 0.0
C56 C 0.97763 0.73505 0.03499 0.0
C57 C 0.96714 0.72277 0.14815 0.0
C58 C 0.97948 0.66576 0.03914 0.0
C59 C 0.96229 0.64596 0.0548 0.0
C60 C 0.96273 0.62346 0.01626 0.0
C61 C 0.98019 0.62077 0.96155 0.0
C62 C -0.00163 0.63986 0.94959 0.0
C63 C -0.00186 0.66193 0.98808 0.0
C64 C 0.98423 0.75526 0.98609 0.0
C65 C 0.98283 0.75139 0.9147 0.0
C66 C 0.98884 0.77108 0.8693 0.0
C67 C -0.00338 0.79472 0.8949 0.0
C68 C -0.00109 0.79812 0.96621 0.0
C69 C -0.00745 0.77871 0.01129 0.0
C70 C 0.96284 0.73202 0.21883 0.0
C71 C 0.9443 0.75073 0.22753 0.0
C72 C 0.69481 0.9571 0.23648 0.0
C73 C 0.70335 0.95233 0.30335 0.0
C74 C 0.72913 0.94567 0.31321 0.0
C75 C 0.74551 0.94227 0.25614 0.0
H76 H 0.83258 0.93702 0.11191 0.0
H77 H 0.87451 0.94559 0.05642 0.0
H78 H 0.83594 0.97358 0.87633 0.0
H79 H 0.79499 0.96593 0.93099 0.0
H80 H 0.7537 0.9343 0.8732 0.0
H81 H 0.72064 0.94311 0.78838 0.0
H82 H 0.66268 0.91907 0.93343 0.0
H83 H 0.6954 0.91005 0.0182 0.0
H84 H 0.70326 0.95753 0.12964 0.0
H85 H 0.67536 0.96303 0.22726 0.0
H86 H 0.73628 0.94224 0.36459 0.0
H87 H 0.76485 0.93589 0.26429 0.0
N88 N 0.77536 0.94482 0.11294 0.0
N89 N 0.76977 0.93162 -0.00199 0.0
N90 N 0.73584 0.92867 0.07449 0.0
C91 C 0.78513 0.94101 0.04819 0.0
C92 C 0.74519 0.92535 0.01058 0.0
C93 C 0.75033 0.93835 0.1259 0.0
C94 C 0.81054 0.95052 0.02551 0.0
C95 C 0.83326 0.94563 0.06132 0.0
C96 C 0.85712 0.95027 0.02939 0.0
C97 C 0.85829 0.95954 0.96135 0.0
C98 C 0.83558 0.96583 0.92799 0.0
C99 C 0.81212 0.96155 0.95967 0.0
C100 C 0.7271 0.92211 0.95314 0.0
C101 C 0.734 0.93001 0.8863 0.0
C102 C 0.71513 0.93523 0.83779 0.0
C103 C 0.68929 0.93253 0.85573 0.0
C104 C 0.68257 0.92192 0.91948 0.0
C105 C 0.70133 0.91658 0.96768 0.0
C106 C 0.73624 0.9458 0.18899 0.0
C107 C 0.71097 0.95406 0.18047 0.0
C108 C 0.47605 0.68824 0.95707 0.0
C109 C 0.48969 0.68882 0.89499 0.0
C110 C 0.5026 0.71096 0.87467 0.0
C111 C 0.50352 0.7317 0.91855 0.0
H112 H 0.54775 0.80107 0.96834 0.0
H113 H 0.54861 0.8398 0.90046 0.0
H114 H 0.49437 0.87297 0.04023 0.0
H115 H 0.4938 0.83394 0.10884 0.0
H116 H 0.49262 0.76448 0.27838 0.0
H117 H 0.49158 0.73337 0.37178 0.0
H118 H 0.54438 0.68711 0.25783 0.0
H119 H 0.5464 0.7188 0.16819 0.0
H120 H 0.46829 0.7073 0.0516 0.0
H121 H 0.46611 0.67121 0.97354 0.0
H122 H 0.51326 0.7116 0.82681 0.0
H123 H 0.51503 0.74796 0.90385 0.0
N124 N 0.50495 0.77272 0.02013 0.0
N125 N 0.51846 0.78066 0.13395 0.0
N126 N 0.50328 0.74045 0.10158 0.0
C127 C 0.5142 0.78896 0.06812 0.0
C128 C 0.51299 0.75603 0.15022 0.0
C129 C 0.49902 0.74862 0.0369 0.0
C130 C 0.52091 0.81465 0.04417 0.0
C131 C 0.53682 0.81703 0.98614 0.0
C132 C 0.53703 0.83909 0.94673 0.0
C133 C 0.52116 0.85929 0.96405 0.0
C134 C 0.50686 0.85776 0.02557 0.0
C135 C 0.50667 0.83553 0.06526 0.0
C136 C 0.51972 0.74412 0.21641 0.0
C137 C 0.50505 0.74832 0.27559 0.0
C138 C 0.50405 0.7301 0.32828 0.0
C139 C 0.51727 0.70709 0.32194 0.0
C140 C 0.53396 0.70437 0.26564 0.0
C141 C 0.53521 0.72267 0.21388 0.0
C142 C 0.49203 0.7302 0.98379 0.0
C143 C 0.4774 0.70877 0.00159 0.0
C144 C 0.20135 0.46053 0.95634 0.0
C145 C 0.20544 0.44878 0.89285 0.0
C146 C 0.22794 0.43485 0.88314 0.0
C147 C 0.24508 0.43129 0.93802 0.0
H148 H 0.31631 0.47394 0.11241 0.0
H149 H 0.35392 0.48843 0.17691 0.0
H150 H 0.35794 0.41589 0.27735 0.0
H151 H 0.32033 0.40164 0.21365 0.0
H152 H 0.25396 0.4415 0.31025 0.0
H153 H 0.2195 0.45399 0.38689 0.0
H154 H 0.16531 0.41282 0.26134 0.0
H155 H 0.19968 0.40101 0.18355 0.0
H156 H 0.21402 0.46569 0.05962 0.0
H157 H 0.18455 0.47188 0.96479 0.0
H158 H 0.23161 0.42576 0.83431 0.0
H159 H 0.26135 0.41912 0.93115 0.0
N160 N 0.27867 0.43653 0.07654 0.0
N161 N 0.27273 0.42434 0.19246 0.0
N162 N 0.23775 0.42644 0.11901 0.0
C163 C 0.28862 0.43116 0.14001 0.0
C164 C 0.2473 0.4218 0.18212 0.0
C165 C 0.25299 0.43365 0.06603 0.0
C166 C 0.3155 0.43668 0.15798 0.0
C167 C 0.32596 0.46078 0.1459 0.0
C168 C 0.34726 0.46914 0.18349 0.0
C169 C 0.35863 0.45339 0.23288 0.0
C170 C 0.34969 0.42843 0.23957 0.0
C171 C 0.32819 0.42024 0.20294 0.0
C172 C 0.22934 0.42069 0.24037 0.0
C173 C 0.23486 0.43424 0.30064 0.0
C174 C 0.21508 0.44152 0.34438 0.0
C175 C 0.18963 0.43507 0.32867 0.0
C176 C 0.18467 0.41875 0.27334 0.0
C177 C 0.20436 0.41172 0.22933 0.0
C178 C 0.23995 0.44191 0.00266 0.0
C179 C 0.2184 0.45722 0.01033 0.0
C180 C -0.00355 0.21782 0.90788 0.0
C181 C 0.01735 0.20369 0.88477 0.0
C182 C 0.04213 0.21341 0.89509 0.0
C183 C 0.04597 0.23489 0.93611 0.0
H184 H 0.00338 0.32857 0.07487 0.0
H185 H -0.00383 0.36815 0.1369 0.0
H186 H 0.04653 0.34313 0.29871 0.0
H187 H 0.0543 0.30469 0.23595 0.0
H188 H -0.00417 0.24525 0.26354 0.0
H189 H 0.97922 0.20874 0.32667 0.0
H190 H 0.03269 0.16105 0.21951 0.0
H191 H 0.0481 0.19735 0.15404 0.0
H192 H 0.98388 0.24799 0.9721 0.0
H193 H 0.97712 0.21083 0.90036 0.0
H194 H 0.05858 0.2029 0.87804 0.0
H195 H 0.06529 0.23989 0.95122 0.0
N196 N 0.02825 0.28114 0.05638 0.0
N197 N 0.02838 0.26849 0.17297 0.0
N198 N 0.02822 0.23815 0.08669 0.0
C199 C 0.02907 0.28719 0.125 0.0
C200 C 0.02805 0.24404 0.154 0.0
C201 C 0.02834 0.25625 0.03768 0.0
C202 C 0.02923 0.31347 0.1508 0.0
C203 C 0.01356 0.33208 0.12242 0.0
C204 C 0.00918 0.35457 0.15861 0.0
C205 C 0.02043 0.35881 0.2237 0.0
C206 C 0.03764 0.34089 0.24883 0.0
C207 C 0.04199 0.31863 0.21287 0.0
C208 C 0.02311 0.22391 0.20403 0.0
C209 C 0.00437 0.22701 0.25493 0.0
C210 C -0.00523 0.20608 0.29065 0.0
C211 C 0.00412 0.18187 0.27665 0.0
C212 C 0.02435 0.17928 0.22953 0.0
C213 C 0.03353 0.20007 0.19297 0.0
C214 C 0.02511 0.24708 0.96676 0.0
C215 C 0.00031 0.23946 0.94786 0.0
C216 C 0.28723 0.05276 0.92585 0.0
C217 C 0.27951 0.03408 0.87886 0.0
C218 C 0.25463 0.02364 0.88609 0.0
C219 C 0.23904 0.02999 0.94242 0.0
H220 H 0.17102 0.00563 0.10026 0.0
H221 H 0.13152 -0.00839 0.15806 0.0
H222 H 0.13256 0.05956 0.28041 0.0
H223 H 0.17139 0.07342 0.22231 0.0
H224 H 0.23901 0.03515 0.30762 0.0
H225 H 0.27459 0.02928 0.38732 0.0
H226 H 0.3229 0.07558 0.25638 0.0
H227 H 0.28758 0.08152 0.17765 0.0
H228 H 0.27901 0.07298 0.01746 0.0
H229 H 0.30612 0.06125 0.9235 0.0
H230 H 0.24755 0.00973 0.84997 0.0
H231 H 0.22084 0.02036 0.94924 0.0
N232 N 0.21041 0.04424 0.07315 0.0
N233 N 0.21728 0.0515 0.19156 0.0
N234 N 0.25113 0.0555 0.11425 0.0
C235 C 0.20114 0.04591 0.13897 0.0
C236 C 0.24228 0.05631 0.17943 0.0
C237 C 0.23565 0.04962 0.06074 0.0
C238 C 0.17419 0.04056 0.15695 0.0
C239 C 0.16213 0.01792 0.13753 0.0
C240 C 0.13974 0.00979 0.17136 0.0
C241 C 0.12901 0.02429 0.22468 0.0
C242 C 0.14004 0.04794 0.23947 0.0
C243 C 0.16238 0.0559 0.20622 0.0
C244 C 0.26072 0.05853 0.23614 0.0
C245 C 0.25698 0.04481 0.29739 0.0
C246 C 0.27736 0.04128 0.34263 0.0
C247 C 0.30155 0.05171 0.32755 0.0
C248 C 0.30445 0.06743 0.2697 0.0
C249 C 0.28426 0.07073 0.22433 0.0
C250 C 0.24795 0.04712 0.99209 0.0
C251 C 0.27162 0.05934 0.98089 0.0
C252 C 0.52082 0.28405 0.25602 0.0
C253 C 0.51294 0.27919 0.32365 0.0
C254 C 0.5021 0.25572 0.3409 0.0
C255 C 0.49783 0.2377 0.28966 0.0
H256 H 0.43853 0.16685 0.18355 0.0
H257 H 0.43719 0.12646 0.24461 0.0
H258 H 0.51272 0.11006 0.16705 0.0
H259 H 0.51324 0.14986 0.10444 0.0
H260 H 0.49379 0.21422 0.91788 0.0
H261 H 0.49403 0.24512 0.8236 0.0
H262 H 0.45208 0.2968 0.95201 0.0
H263 H 0.45099 0.26573 0.04321 0.0
H264 H 0.52133 0.27105 0.15226 0.0
H265 H 0.52889 0.30227 0.24197 0.0
H266 H 0.49556 0.25196 0.39291 0.0
H267 H 0.48817 0.22018 0.30318 0.0
N268 N 0.48991 0.20232 0.17445 0.0
N269 N 0.47471 0.19858 0.06049 0.0
N270 N 0.4889 0.23773 0.10325 0.0
C271 C 0.48021 0.18791 0.12288 0.0
C272 C 0.47896 0.22385 0.05123 0.0
C273 C 0.49459 0.22718 0.16454 0.0
C274 C 0.47569 0.16105 0.13796 0.0
C275 C 0.4542 0.15391 0.17704 0.0
C276 C 0.45373 0.131 0.21318 0.0
C277 C 0.475 0.11497 0.21196 0.0
C278 C 0.49578 0.12155 0.16886 0.0
C279 C 0.49611 0.14435 0.13241 0.0
C280 C 0.47234 0.23761 0.98763 0.0
C281 C 0.48362 0.23173 0.92423 0.0
C282 C 0.48412 0.24969 0.87081 0.0
C283 C 0.47352 0.27386 0.88024 0.0
C284 C 0.46027 0.27854 0.94181 0.0
C285 C 0.45968 0.26067 0.99455 0.0
C286 C 0.50386 0.24337 0.22075 0.0
C287 C 0.51628 0.26629 0.20485 0.0
Zn288 Zn 0.98866 0.03072 0.61029 0.0
Zn289 Zn -0.00724 0.95014 0.57234 0.0
C290 C -0.00098 0.06682 0.71783 0.0
O291 O 0.97639 0.05872 0.73798 0.0
C292 C 0.98889 0.90692 0.49333 0.0
O293 O 0.01347 0.911 0.50242 0.0
O294 O 0.96925 0.05387 0.54933 0.0
O295 O 0.00921 0.00692 0.54685 0.0
O296 O 0.01833 0.96836 0.51208 0.0
C297 C 0.98444 0.07033 0.52462 0.0
O298 O 0.00893 0.06916 0.53817 0.0
O299 O 0.01006 0.05551 0.6684 0.0
C300 C -0.00778 0.92041 0.68068 0.0
O301 O 0.96847 0.92598 0.66656 0.0
O302 O 0.01004 0.92933 0.64321 0.0
O303 O 0.9736 0.97624 0.62791 0.0
O304 O 0.96294 0.0126 0.67065 0.0
O305 O 0.97334 0.92329 0.51631 0.0
C306 C 0.02184 -0.00785 0.50783 0.0
C307 C 0.95963 -0.0111 0.66844 0.0
Zn308 Zn 0.44866 0.98415 0.59398 0.0
Zn309 Zn 0.5312 -0.01263 0.58851 0.0
C310 C 0.40342 -0.00736 0.66676 0.0
O311 O 0.40124 0.96894 0.64783 0.0
C312 C 0.57847 0.97876 0.52295 0.0
O313 O 0.58217 0.00046 0.55404 0.0
O314 O 0.42605 0.97197 0.51747 0.0
O315 O 0.47907 0.00495 0.55669 0.0
O316 O 0.51836 0.0173 0.53436 0.0
C317 C 0.42621 0.9848 0.46243 0.0
O318 O 0.4464 -0.00132 0.4479 0.0
O319 O 0.42408 0.00457 0.65241 0.0
C320 C 0.56029 0.97636 0.69426 0.0
O321 O 0.55109 0.95506 0.66971 0.0
O322 O 0.55206 -0.00302 0.67028 0.0
O323 O 0.50024 0.96786 0.62409 0.0
O324 O 0.46182 0.9545 0.64994 0.0
O325 O 0.5564 0.96825 0.5269 0.0
C326 C 0.49443 0.0202 0.5265 0.0
C327 C 0.48586 0.95219 0.65574 0.0
Zn328 Zn 0.49752 0.44628 0.59809 0.0
Zn329 Zn 0.49412 0.52754 0.5818 0.0
C330 C 0.49439 0.40585 0.68537 0.0
O331 O 0.51809 0.40702 0.66292 0.0
C332 C 0.49659 0.57268 0.50682 0.0
O333 O 0.4724 0.57017 0.52411 0.0
O334 O 0.50645 0.42091 0.52675 0.0
O335 O 0.47825 0.47432 0.55269 0.0
O336 O 0.46612 0.51189 0.52315 0.0
C337 C 0.48655 0.40824 0.51095 0.0
O338 O 0.46428 0.41509 0.53558 0.0
O339 O 0.47943 0.42379 0.66942 0.0
C340 C 0.49565 0.56163 0.68364 0.0
O341 O 0.51941 0.55904 0.66308 0.0
O342 O 0.47847 0.54773 0.65695 0.0
O343 O 0.51867 0.50226 0.62909 0.0
O344 O 0.52813 0.46192 0.64437 0.0
O345 O 0.51178 0.55492 0.52257 0.0
C346 C 0.46385 0.48819 0.51666 0.0
C347 C 0.53274 0.48522 0.65567 0.0
Zn348 Zn 0.03887 0.49324 0.5972 0.0
Zn349 Zn 0.95674 0.49673 0.57129 0.0
C350 C 0.08265 0.48108 0.67271 0.0
O351 O 0.0888 0.50261 0.6432 0.0
C352 C 0.91501 0.50227 0.48551 0.0
O353 O 0.91636 0.47794 0.49785 0.0
O354 O 0.06407 0.50278 0.52456 0.0
O355 O 0.00849 0.47519 0.55186 0.0
O356 O 0.96943 0.46585 0.52026 0.0
C357 C 0.0622 0.49869 0.46058 0.0
O358 O 0.0397 0.49361 0.4339 0.0
O359 O 0.06015 0.47204 0.664 0.0
C360 C 0.92879 0.50932 0.67885 0.0
O361 O 0.93942 0.53015 0.65524 0.0
O362 O 0.93385 0.48849 0.65005 0.0
O363 O 0.98809 0.514 0.61283 0.0
O364 O 0.0263 0.52395 0.64885 0.0
O365 O 0.93278 0.51661 0.50859 0.0
C366 C -0.00673 0.46133 0.51699 0.0
C367 C 0.00248 0.52827 0.64871 0.0
H368 H 0.0879 0.04871 0.27995 0.0
H369 H 0.12472 0.97632 0.2751 0.0
H370 H 0.09493 0.96018 0.36163 0.0
H371 H 0.05993 0.9671 0.44331 0.0
H372 H 0.02268 0.03905 0.44819 0.0
H373 H 0.05154 0.05512 0.35882 0.0
C374 C 0.08937 0.02937 0.29764 0.0
C375 C 0.10859 0.01379 0.27065 0.0
C376 C 0.07243 0.02029 0.34865 0.0
C377 C 0.10992 -0.01133 0.29375 0.0
C378 C 0.09305 0.97948 0.34401 0.0
C379 C 0.05814 -0.01366 0.42501 0.0
C380 C 0.03961 0.00215 0.45423 0.0
C381 C 0.0745 -0.00479 0.37255 0.0
C382 C 0.03741 0.02688 0.42901 0.0
C383 C 0.05369 0.03592 0.37699 0.0
H384 H 0.45658 0.11075 0.3442 0.0
H385 H 0.49767 0.0693 0.18894 0.0
H386 H 0.50694 0.03642 0.27268 0.0
H387 H 0.50629 0.02094 0.39214 0.0
H388 H 0.4622 0.05983 0.54514 0.0
H389 H 0.45076 0.09208 0.45979 0.0
C390 C 0.46701 0.09428 0.32785 0.0
C391 C 0.47685 0.09297 0.26015 0.0
C392 C 0.47194 0.07509 0.37616 0.0
C393 C 0.49048 0.07136 0.24089 0.0
C394 C 0.49571 0.05242 0.28874 0.0
C395 C 0.49403 0.03644 0.40645 0.0
C396 C 0.48542 0.03843 0.47473 0.0
C397 C 0.48714 0.05443 0.35688 0.0
C398 C 0.46915 0.05816 0.49282 0.0
C399 C 0.46267 0.07654 0.44407 0.0
H400 H 0.40403 0.43346 0.2753 0.0
H401 H 0.35388 0.49634 0.3071 0.0
H402 H 0.38135 0.51205 0.39917 0.0
H403 H 0.41918 0.50762 0.47254 0.0
H404 H 0.47151 0.44731 0.43465 0.0
H405 H 0.44352 0.43043 0.34476 0.0
C406 C 0.39927 0.45068 0.30218 0.0
C407 C 0.37704 0.46381 0.28396 0.0
C408 C 0.41526 0.45971 0.35513 0.0
C409 C 0.37111 0.48613 0.31918 0.0
C410 C 0.38668 0.49501 0.37233 0.0
C411 C 0.42432 0.49066 0.44492 0.0
C412 C 0.44666 0.47777 0.46302 0.0
C413 C 0.4087 0.48189 0.39106 0.0
C414 C 0.45349 0.45634 0.42528 0.0
C415 C 0.43777 0.44712 0.37264 0.0
H416 H 0.04956 0.38659 0.31459 0.0
H417 H 0.97259 0.37857 0.23699 0.0
H418 H 0.95779 0.40936 0.32019 0.0
H419 H 0.96591 0.43683 0.41876 0.0
H420 H 0.04223 0.44401 0.5006 0.0
H421 H 0.05785 0.41477 0.41315 0.0
C422 C 0.02951 0.39149 0.31582 0.0
C423 C 0.01229 0.38006 0.26906 0.0
C424 C 0.02088 0.40877 0.36543 0.0
C425 C 0.98649 0.38721 0.27102 0.0
C426 C 0.97788 0.40462 0.31941 0.0
C427 C 0.98596 0.43192 0.41797 0.0
C428 C 0.00282 0.44256 0.46664 0.0
C429 C -0.00521 0.41518 0.36753 0.0
C430 C 0.02878 0.43608 0.46406 0.0
C431 C 0.03774 0.4194 0.41387 0.0
H432 H 0.87018 0.93854 0.83916 0.0
H433 H 0.90025 -0.012 0.99559 0.0
H434 H 0.93589 2e-05 0.91946 0.0
H435 H 0.95533 0.00011 0.80345 0.0
H436 H 0.92447 0.95137 0.64633 0.0
H437 H 0.89235 0.93514 0.72767 0.0
C438 C 0.88488 0.95156 0.85694 0.0
C439 C 0.88261 0.96253 0.9226 0.0
C440 C 0.90494 0.95864 0.81248 0.0
C441 C 0.90173 0.97925 0.94545 0.0
C442 C 0.92192 -0.01372 0.90165 0.0
C443 C 0.94174 0.98567 0.78744 0.0
C444 C 0.94226 0.97681 0.71916 0.0
C445 C 0.92323 0.97669 0.83432 0.0
C446 C 0.92463 0.95817 0.69885 0.0
C447 C 0.90619 0.94904 0.74522 0.0
H448 H 0.514 0.8556 0.82626 0.0
H449 H 0.51941 0.91026 0.98962 0.0
H450 H 0.51117 0.94431 0.90716 0.0
H451 H 0.50012 0.95822 0.78881 0.0
H452 H 0.49299 0.90292 0.6279 0.0
H453 H 0.50463 0.86942 0.70869 0.0
C454 C 0.51382 0.87501 0.84375 0.0
C455 C 0.51749 0.88037 0.91408 0.0
C456 C 0.50877 0.89435 0.79628 0.0
C457 C 0.51654 0.90559 0.93595 0.0
C458 C 0.51191 0.92506 0.88874 0.0
C459 C 0.50159 0.93885 0.77156 0.0
C460 C 0.49613 0.93291 0.70255 0.0
C461 C 0.5077 0.91964 0.81886 0.0
C462 C 0.49751 0.90782 0.68062 0.0
C463 C 0.504 0.88871 0.72687 0.0
H464 H 0.62268 0.49141 0.87176 0.0
H465 H 0.58439 0.55999 0.92652 0.0
H466 H 0.5526 0.55247 0.83602 0.0
H467 H 0.53538 0.52569 0.74262 0.0
H468 H 0.57522 0.45828 0.68489 0.0
H469 H 0.60659 0.46585 0.77544 0.0
C470 C 0.6072 0.50454 0.86426 0.0
C471 C 0.60564 0.52602 0.9063 0.0
C472 C 0.58944 0.5004 0.81117 0.0
C473 C 0.58585 0.54323 0.89506 0.0
C474 C 0.56775 0.53897 0.84321 0.0
C475 C 0.55138 0.51317 0.74821 0.0
C476 C 0.5532 0.49179 0.70569 0.0
C477 C 0.56943 0.51767 0.80064 0.0
C478 C 0.57343 0.47501 0.71633 0.0
C479 C 0.59136 0.47927 0.76834 0.0
H480 H 0.97106 0.62216 0.82507 0.0
H481 H 0.98823 0.57105 0.99074 0.0
H482 H -0.00525 0.53687 0.90766 0.0
H483 H 0.00016 0.52309 0.78673 0.0
H484 H 0.98246 0.57425 0.62159 0.0
H485 H 0.97133 0.60695 0.70526 0.0
C486 C 0.97574 0.60337 0.84286 0.0
C487 C 0.97929 0.59903 0.91369 0.0
C488 C 0.97957 0.584 0.7948 0.0
C489 C 0.98528 0.57469 0.93648 0.0
C490 C 0.98919 0.55527 0.88894 0.0
C491 C -0.00658 0.5413 0.76942 0.0
C492 C -0.00788 0.54646 0.69844 0.0
C493 C 0.98708 0.55991 0.81789 0.0
C494 C 0.98347 0.56999 0.67606 0.0
C495 C 0.97722 0.58864 0.72386 0.0
H496 H 0.98729 0.17727 0.40878 0.0
H497 H -0.00485 0.13563 0.21931 0.0
H498 H 0.9838 0.09661 0.2789 0.0
H499 H 0.97938 0.07379 0.3884 0.0
H500 H 0.97209 0.11528 0.57729 0.0
H501 H 0.97411 0.15519 0.51388 0.0
C502 C 0.98578 0.15983 0.37998 0.0
C503 C -0.00708 0.15923 0.3103 0.0
C504 C 0.9791 0.13749 0.4144 0.0
C505 C 0.99077 0.13642 0.27376 0.0
C506 C 0.98403 0.11413 0.30753 0.0
C507 C 0.97701 0.09162 0.41484 0.0
C508 C 0.97537 0.092 0.48658 0.0
C509 C 0.97924 0.11431 0.37837 0.0
C510 C 0.97293 0.11491 0.52155 0.0
C511 C 0.97449 0.13763 0.48549 0.0
H512 H 0.31364 0.00401 0.36467 0.0
H513 H 0.34142 0.08095 0.37173 0.0
H514 H 0.38312 0.06647 0.4103 0.0
H515 H 0.41217 0.03206 0.43498 0.0
H516 H 0.38439 0.95517 0.4354 0.0
H517 H 0.34192 0.96951 0.40004 0.0
C518 C 0.32861 0.01764 0.37639 0.0
C519 C 0.32458 0.04351 0.3649 0.0
C520 C 0.35257 0.00916 0.39797 0.0
C521 C 0.34423 0.06094 0.37955 0.0
C522 C 0.36806 0.05268 0.4012 0.0
C523 C 0.39691 0.0184 0.42619 0.0
C524 C 0.40142 -0.00744 0.4352 0.0
C525 C 0.3726 0.02683 0.40863 0.0
C526 C 0.38133 0.97511 0.42681 0.0
C527 C 0.3571 0.98332 0.40735 0.0
H528 H 0.47366 0.30996 0.33508 0.0
H529 H 0.54899 0.29621 0.41407 0.0
H530 H 0.54779 0.33595 0.47904 0.0
H531 H 0.52574 0.37545 0.50797 0.0
H532 H 0.45032 0.38866 0.42741 0.0
H533 H 0.45114 0.34838 0.36691 0.0
C534 C 0.48957 0.31561 0.36758 0.0
C535 C 0.51126 0.30049 0.37102 0.0
C536 C 0.48889 0.33849 0.40285 0.0
C537 C 0.53206 0.30773 0.41191 0.0
C538 C 0.53142 0.33043 0.44826 0.0
C539 C 0.50969 0.36955 0.47643 0.0
C540 C 0.48817 0.38497 0.47097 0.0
C541 C 0.51012 0.34619 0.44294 0.0
C542 C 0.46713 0.37703 0.43165 0.0
C543 C 0.46754 0.35402 0.39744 0.0
H544 H 0.14753 0.4547 0.26952 0.0
H545 H 0.18423 0.44473 0.46634 0.0
H546 H 0.14929 0.46686 0.52287 0.0
H547 H 0.10764 0.48662 0.5168 0.0
H548 H 0.06902 0.49365 0.32165 0.0
H549 H 0.10585 0.47516 0.26337 0.0
C550 C 0.14772 0.45702 0.32496 0.0
C551 C 0.16823 0.44773 0.36392 0.0
C552 C 0.12748 0.46942 0.357 0.0
C553 C 0.16863 0.45165 0.43533 0.0
C554 C 0.14869 0.46429 0.46757 0.0
C555 C 0.10733 0.48457 0.46132 0.0
C556 C 0.08562 0.49161 0.42341 0.0
C557 C 0.12798 0.47305 0.4289 0.0
C558 C 0.08553 0.48846 0.35178 0.0
C559 C 0.10648 0.47774 0.31864 0.0
H560 H 0.98015 0.84189 0.9148 0.0
H561 H 0.02164 0.79606 0.77051 0.0
H562 H 0.02721 0.83259 0.69408 0.0
H563 H 0.01792 0.87709 0.6663 0.0
H564 H 0.97469 0.92141 0.81003 0.0
H565 H 0.97322 0.88612 0.89103 0.0
C566 C 0.99094 0.83998 0.86738 0.0
C567 C 0.0007 0.81647 0.8485 0.0
C568 C -0.0059 0.86086 0.82445 0.0
C569 C 0.01386 0.81404 0.78582 0.0
C570 C 0.01721 0.83491 0.74251 0.0
C571 C 0.00898 0.87908 0.7164 0.0
C572 C -0.00315 0.90163 0.73356 0.0
C573 C 0.00725 0.85838 0.76118 0.0
C574 C 0.98446 0.90413 0.79706 0.0
C575 C 0.98339 0.88397 0.84277 0.0
H576 H 0.65309 0.96544 0.89245 0.0
H577 H 0.68117 0.92285 0.71988 0.0
H578 H 0.64441 0.93585 0.65104 0.0
H579 H 0.6019 0.95438 0.64646 0.0
H580 H 0.57331 -0.00312 0.81828 0.0
H581 H 0.61299 -0.01102 0.88198 0.0
C582 C 0.65112 0.95916 0.8396 0.0
C583 C 0.66918 0.9427 0.81136 0.0
C584 C 0.62996 0.9665 0.80107 0.0
C585 C 0.66716 0.93524 0.74247 0.0
C586 C 0.6462 0.94259 0.70345 0.0
C587 C 0.60462 0.96219 0.69753 0.0
C588 C 0.58492 0.97571 0.72884 0.0
C589 C 0.62713 0.95744 0.73317 0.0
C590 C 0.58841 -0.01376 0.7941 0.0
C591 C 0.61093 0.98163 0.83028 0.0
H592 H 0.45453 0.65826 0.8337 0.0
H593 H 0.53494 0.66653 0.87701 0.0
H594 H 0.54344 0.62627 0.82132 0.0
H595 H 0.52836 0.58981 0.75748 0.0
H596 H 0.44841 0.58175 0.70726 0.0
H597 H 0.43919 0.62078 0.76922 0.0
C598 C 0.47384 0.65115 0.83033 0.0
C599 C 0.49418 0.66522 0.85803 0.0
C600 C 0.47859 0.62812 0.7976 0.0
C601 C 0.51916 0.65604 0.85447 0.0
C602 C 0.52398 0.63303 0.82324 0.0
C603 C 0.50887 0.59647 0.76045 0.0
C604 C 0.48911 0.58301 0.72798 0.0
C605 C 0.50389 0.61905 0.79427 0.0
C606 C 0.46392 0.59174 0.73253 0.0
C607 C 0.45868 0.61412 0.76739 0.0
H608 H 0.84736 0.54407 0.89139 0.0
H609 H 0.80124 0.48911 0.7834 0.0
H610 H 0.83805 0.47806 0.71182 0.0
H611 H 0.8834 0.48451 0.68009 0.0
H612 H 0.92861 0.54005 0.78857 0.0
H613 H 0.89228 0.54961 0.86271 0.0
C614 C 0.84541 0.52947 0.85269 0.0
C615 C 0.82176 0.51727 0.8429 0.0
C616 C 0.86658 0.52298 0.81311 0.0
C617 C 0.81927 0.49889 0.79137 0.0
C618 C 0.84034 0.49238 0.7511 0.0
C619 C 0.88532 0.49823 0.72114 0.0
C620 C 0.90849 0.51138 0.73001 0.0
C621 C 0.86412 0.50422 0.76187 0.0
C622 C 0.91085 0.52963 0.78173 0.0
C623 C 0.8901 0.53523 0.82353 0.0
H624 H 0.0344 0.18016 0.76729 0.0
H625 H -0.00776 0.16711 0.9552 0.0
H626 H 0.98512 0.12311 0.92361 0.0
H627 H 0.98855 0.08884 0.84003 0.0
H628 H 0.02983 0.10115 0.65047 0.0
H629 H 0.03957 0.14464 0.68485 0.0
C630 C 0.02365 0.16761 0.80102 0.0
C631 C 0.01337 0.17704 0.86278 0.0
C632 C 0.01943 0.14215 0.78222 0.0
C633 C -0.00027 0.16051 0.90652 0.0
C634 C -0.0042 0.13528 0.88875 0.0
C635 C -0.0 0.10093 0.80665 0.0
C636 C 0.00856 0.09166 0.743 0.0
C637 C 0.00523 0.12597 0.82636 0.0
C638 C 0.02335 0.10762 0.7003 0.0
C639 C 0.02872 0.13261 0.71967 0.0
H640 H 0.31969 0.05881 0.81389 0.0
H641 H 0.28296 0.98551 0.83085 0.0
H642 H 0.31709 0.96705 0.76375 0.0
H643 H 0.3592 0.9705 0.70971 0.0
H644 H 0.39822 0.04262 0.7011 0.0
H645 H 0.36184 0.0624 0.75819 0.0
C646 C 0.3191 0.03873 0.80368 0.0
C647 C 0.29853 0.02372 0.82869 0.0
C648 C 0.33957 0.02782 0.76776 0.0
C649 C 0.29804 -0.00213 0.81205 0.0
C650 C 0.31786 -0.0129 0.77434 0.0
C651 C 0.35983 -0.00942 0.72018 0.0
C652 C 0.38159 0.00499 0.70161 0.0
C653 C 0.339 0.00174 0.75353 0.0
C654 C 0.38188 0.031 0.71538 0.0
C655 C 0.36101 0.04234 0.74777 0.0
H656 H 0.44296 0.31402 0.84567 0.0
H657 H 0.51737 0.28252 0.80615 0.0
H658 H 0.52955 0.31997 0.74121 0.0
H659 H 0.5208 0.36285 0.70357 0.0
H660 H 0.44755 0.396 0.74592 0.0
H661 H 0.43358 0.35698 0.80376 0.0
C662 C 0.46188 0.31528 0.823 0.0
C663 C 0.47917 0.29521 0.83157 0.0
C664 C 0.46922 0.33742 0.78742 0.0
C665 C 0.50336 0.2972 0.79998 0.0
C666 C 0.51055 0.31887 0.76348 0.0
C667 C 0.50176 0.36171 0.72558 0.0
C668 C 0.48538 0.38257 0.72124 0.0
C669 C 0.49389 0.33929 0.75831 0.0
C670 C 0.46065 0.3804 0.74913 0.0
C671 C 0.45265 0.35803 0.78197 0.0
H672 H 0.15459 0.43882 0.90417 0.0
H673 H 0.21212 0.46424 0.75985 0.0
H674 H 0.17882 0.47439 0.6761 0.0
H675 H 0.13335 0.48027 0.64945 0.0
H676 H 0.0756 0.45404 0.79203 0.0
H677 H 0.10898 0.43974 0.87116 0.0
C678 C 0.15979 0.44631 0.85399 0.0
C679 C 0.18573 0.45112 0.83836 0.0
C680 C 0.14053 0.4521 0.80632 0.0
C681 C 0.19231 0.46042 0.77294 0.0
C682 C 0.17327 0.46635 0.72534 0.0
C683 C 0.12808 0.47109 0.6975 0.0
C684 C 0.10209 0.46847 0.71546 0.0
C685 C 0.14733 0.46292 0.74227 0.0
C686 C 0.09547 0.45623 0.77719 0.0
C687 C 0.11455 0.44823 0.82251 0.0
H688 H 0.93798 0.80584 0.38013 0.0
H689 H 0.01744 0.78997 0.33933 0.0
H690 H 0.02989 0.83008 0.38927 0.0
H691 H 0.01875 0.87043 0.44009 0.0
H692 H 0.93973 0.88824 0.4776 0.0
H693 H 0.92669 0.84704 0.43123 0.0
C694 C 0.95804 0.81108 0.3819 0.0
C695 C 0.97663 0.79433 0.35618 0.0
C696 C 0.96522 0.83482 0.40911 0.0
C697 C 0.00255 0.80173 0.36012 0.0
C698 C 0.00978 0.825 0.38788 0.0
C699 C -0.00139 0.86545 0.43813 0.0
C700 C 0.98026 0.88259 0.46221 0.0
C701 C 0.99131 0.84178 0.41184 0.0
C702 C 0.95429 0.87558 0.4591 0.0
C703 C 0.94684 0.85193 0.43287 0.0
H704 H 0.65633 0.93059 0.31389 0.0
H705 H 0.70842 0.98036 0.42061 0.0
H706 H 0.67446 -0.00858 0.5019 0.0
H707 H 0.6289 -0.00941 0.5337 0.0
H708 H 0.57657 0.9412 0.42598 0.0
H709 H 0.61174 0.92618 0.35407 0.0
C710 C 0.66032 0.94355 0.35573 0.0
C711 C 0.68478 0.95486 0.36096 0.0
C712 C 0.64058 0.95012 0.40128 0.0
C713 C 0.68982 0.97135 0.41573 0.0
C714 C 0.67033 0.97785 0.46171 0.0
C715 C 0.62516 0.97644 0.49469 0.0
C716 C 0.59998 0.96743 0.48419 0.0
C717 C 0.64545 0.96798 0.45352 0.0
C718 C 0.59565 0.94864 0.43464 0.0
C719 C 0.61577 0.94009 0.39346 0.0
H720 H 0.54861 0.66809 0.36328 0.0
H721 H 0.47112 0.69484 0.3809 0.0
H722 H 0.45873 0.6565 0.44096 0.0
H723 H 0.46852 0.6142 0.48127 0.0
H724 H 0.54491 0.5855 0.45995 0.0
H725 H 0.55874 0.62542 0.40663 0.0
C726 C 0.52897 0.66562 0.37999 0.0
C727 C 0.51096 0.68477 0.36703 0.0
C728 C 0.52156 0.64287 0.4128 0.0
C729 C 0.48574 0.68106 0.39087 0.0
C730 C 0.47844 0.65882 0.42456 0.0
C731 C 0.48824 0.61653 0.46498 0.0
C732 C 0.50557 0.59666 0.47411 0.0
C733 C 0.49601 0.63944 0.43458 0.0
C734 C 0.53109 0.60033 0.45318 0.0
C735 C 0.53901 0.62321 0.42285 0.0
H736 H 0.81332 0.55564 0.38944 0.0
H737 H 0.79969 0.48118 0.30597 0.0
H738 H 0.84063 0.46747 0.34932 0.0
H739 H 0.88056 0.47614 0.40983 0.0
H740 H 0.89616 0.55057 0.48931 0.0
H741 H 0.85471 0.5649 0.44633 0.0
C742 C 0.81925 0.53643 0.38037 0.0
C743 C 0.8028 0.51946 0.34522 0.0
C744 C 0.84347 0.52868 0.40382 0.0
C745 C 0.81116 0.4946 0.33469 0.0
C746 C 0.8349 0.48674 0.35861 0.0
C747 C 0.87503 0.49558 0.41746 0.0
C748 C 0.89151 0.51224 0.45278 0.0
C749 C 0.8512 0.50358 0.39308 0.0
C750 C 0.884 0.53739 0.46175 0.0
C751 C 0.86018 0.54552 0.43768 0.0
loop_
_geom_bond_atom_site_label_1
_geom_bond_atom_site_label_2
_geom_bond_distance
_geom_bond_site_symmetry_2
_ccdc_geom_bond_type
C0 C1 1.384 . S
C0 H13 0.947 . S
C0 C35 1.382 . S
C1 C0 1.384 . S
C1 C2 1.378 . S
C2 C1 1.378 . S
C2 C3 1.378 . S
C2 H14 0.952 . S
C3 C2 1.378 . S
C3 H15 0.950 . S
C3 C34 1.383 . S
H4 C23 0.947 . S
H5 C24 0.946 . S
H6 C26 0.953 . S
H7 C27 0.945 . S
H8 C29 0.952 . S
H9 C30 0.949 . S
H10 C32 0.950 . S
H11 C33 0.948 . S
H12 C35 0.951 . S
H13 C0 0.947 . S
H14 C2 0.952 . S
H15 C3 0.950 . S
N16 C19 1.382 . S
N16 C21 1.363 . S
N17 C19 1.371 1_556 S
N17 C20 1.372 . S
N18 C20 1.361 1_554 S
N18 C21 1.377 . S
C19 N16 1.382 . S
C19 N17 1.371 1_554 S
C19 C22 1.481 . S
C20 N17 1.372 . S
C20 N18 1.361 1_556 S
C20 C28 1.457 . S
C21 N16 1.363 . S
C21 N18 1.377 . S
C21 C34 1.479 . S
C22 C19 1.481 . S
C22 C23 1.387 . S
C22 C27 1.380 1_554 S
C23 H4 0.947 . S
C23 C22 1.387 . S
C23 C24 1.388 . S
C24 H5 0.946 . S
C24 C23 1.388 . S
C24 C25 1.384 1_554 S
C25 C24 1.384 1_556 S
C25 C26 1.377 . S
C26 H6 0.953 . S
C26 C25 1.377 . S
C26 C27 1.369 . S
C27 H7 0.945 . S
C27 C22 1.380 1_556 S
C27 C26 1.369 . S
C28 C20 1.457 . S
C28 C29 1.372 . S
C28 C33 1.364 . S
C29 H8 0.952 . S
C29 C28 1.372 . S
C29 C30 1.389 . S
C30 H9 0.949 . S
C30 C29 1.389 . S
C30 C31 1.387 . S
C31 C30 1.387 . S
C31 C32 1.372 . S
C32 H10 0.950 . S
C32 C31 1.372 . S
C32 C33 1.379 . S
C33 H11 0.948 . S
C33 C28 1.364 . S
C33 C32 1.379 . S
C34 C3 1.383 . S
C34 C21 1.479 . S
C34 C35 1.398 . S
C35 C0 1.382 . S
C35 H12 0.951 . S
C35 C34 1.398 . S
C36 C37 1.384 . S
C36 H49 0.947 . S
C36 C71 1.382 . S
C37 C36 1.384 . S
C37 C38 1.378 . S
C38 C37 1.378 . S
C38 C39 1.378 . S
C38 H50 0.952 . S
C39 C38 1.378 . S
C39 H51 0.950 . S
C39 C70 1.383 . S
H40 C59 0.947 . S
H41 C60 0.946 . S
H42 C62 0.953 . S
H43 C63 0.945 . S
H44 C65 0.952 . S
H45 C66 0.949 . S
H46 C68 0.950 . S
H47 C69 0.944 1_554 S
H48 C71 0.951 . S
H49 C36 0.947 . S
H50 C38 0.952 . S
H51 C39 0.950 . S
N52 C55 1.382 . S
N52 C57 1.363 . S
N53 C55 1.371 1_556 S
N53 C56 1.372 . S
N54 C56 1.361 1_554 S
N54 C57 1.377 . S
C55 N52 1.382 . S
C55 N53 1.371 1_554 S
C55 C58 1.480 . S
C56 N53 1.372 . S
C56 N54 1.361 1_556 S
C56 C64 1.457 . S
C57 N52 1.363 . S
C57 N54 1.377 . S
C57 C70 1.479 . S
C58 C55 1.480 . S
C58 C59 1.383 . S
C58 C63 1.385 1_554 S
C59 H40 0.947 . S
C59 C58 1.383 . S
C59 C60 1.388 . S
C60 H41 0.946 . S
C60 C59 1.388 . S
C60 C61 1.384 1_554 S
C61 C60 1.384 1_556 S
C61 C62 1.377 . S
C62 H42 0.953 . S
C62 C61 1.377 . S
C62 C63 1.369 . S
C63 H43 0.945 . S
C63 C58 1.385 1_556 S
C63 C62 1.369 . S
C64 C56 1.457 . S
C64 C65 1.372 . S
C64 C69 1.364 . S
C65 H44 0.952 . S
C65 C64 1.372 . S
C65 C66 1.389 . S
C66 H45 0.949 . S
C66 C65 1.389 . S
C66 C67 1.387 . S
C67 C66 1.387 . S
C67 C68 1.372 . S
C68 H46 0.950 . S
C68 C67 1.372 . S
C68 C69 1.379 . S
C69 H47 0.944 1_556 S
C69 C64 1.364 . S
C69 C68 1.379 . S
C70 C39 1.383 . S
C70 C57 1.479 . S
C70 C71 1.398 . S
C71 C36 1.382 . S
C71 H48 0.951 . S
C71 C70 1.398 . S
C72 C73 1.384 . S
C72 H85 0.947 . S
C72 C107 1.382 . S
C73 C72 1.384 . S
C73 C74 1.378 . S
C74 C73 1.378 . S
C74 C75 1.378 . S
C74 H86 0.952 . S
C75 C74 1.378 . S
C75 H87 0.950 . S
C75 C106 1.383 . S
H76 C95 0.947 . S
H77 C96 0.946 . S
H78 C98 0.953 . S
H79 C99 0.945 . S
H80 C101 0.952 . S
H81 C102 0.949 . S
H82 C104 0.950 . S
H83 C105 0.948 1_554 S
H84 C107 0.951 . S
H85 C72 0.947 . S
H86 C74 0.952 . S
H87 C75 0.950 . S
N88 C91 1.382 . S
N88 C93 1.363 . S
N89 C91 1.371 1_556 S
N89 C92 1.372 . S
N90 C92 1.361 1_554 S
N90 C93 1.377 . S
C91 N88 1.382 . S
C91 N89 1.371 1_554 S
C91 C94 1.480 . S
C92 N89 1.372 . S
C92 N90 1.361 1_556 S
C92 C100 1.457 . S
C93 N88 1.363 . S
C93 N90 1.377 . S
C93 C106 1.479 . S
C94 C91 1.480 . S
C94 C95 1.383 . S
C94 C99 1.385 1_554 S
C95 H76 0.947 . S
C95 C94 1.383 . S
C95 C96 1.388 . S
C96 H77 0.946 . S
C96 C95 1.388 . S
C96 C97 1.384 1_554 S
C97 C96 1.384 1_556 S
C97 C98 1.377 . S
C98 H78 0.953 . S
C98 C97 1.377 . S
C98 C99 1.369 . S
C99 H79 0.945 . S
C99 C94 1.385 1_556 S
C99 C98 1.369 . S
C100 C92 1.457 . S
C100 C101 1.372 . S
C100 C105 1.364 . S
C101 H80 0.952 . S
C101 C100 1.372 . S
C101 C102 1.389 . S
C102 H81 0.949 . S
C102 C101 1.389 . S
C102 C103 1.387 . S
C103 C102 1.387 . S
C103 C104 1.372 . S
C104 H82 0.950 . S
C104 C103 1.372 . S
C104 C105 1.379 . S
C105 H83 0.948 1_556 S
C105 C100 1.364 . S
C105 C104 1.379 . S
C106 C75 1.383 . S
C106 C93 1.479 . S
C106 C107 1.398 . S
C107 C72 1.382 . S
C107 H84 0.951 . S
C107 C106 1.398 . S
C108 C109 1.384 . S
C108 H121 0.947 . S
C108 C143 1.382 . S
C109 C108 1.384 . S
C109 C110 1.378 . S
C110 C109 1.378 . S
C110 C111 1.378 . S
C110 H122 0.952 . S
C111 C110 1.378 . S
C111 H123 0.950 . S
C111 C142 1.383 . S
H112 C131 0.947 . S
H113 C132 0.946 . S
H114 C134 0.953 . S
H115 C135 0.945 . S
H116 C137 0.952 . S
H117 C138 0.949 . S
H118 C140 0.950 . S
H119 C141 0.948 . S
H120 C143 0.951 1_554 S
H121 C108 0.947 . S
H122 C110 0.952 . S
H123 C111 0.950 . S
N124 C127 1.382 1_556 S
N124 C129 1.360 1_556 S
N125 C127 1.371 . S
N125 C128 1.372 . S
N126 C128 1.361 . S
N126 C129 1.387 . S
C127 N124 1.382 1_554 S
C127 N125 1.371 . S
C127 C130 1.480 . S
C128 N125 1.372 . S
C128 N126 1.361 . S
C128 C136 1.457 . S
C129 N124 1.360 1_554 S
C129 N126 1.387 . S
C129 C142 1.471 1_554 S
C130 C127 1.480 . S
C130 C131 1.383 1_554 S
C130 C135 1.385 . S
C131 H112 0.947 . S
C131 C130 1.383 1_556 S
C131 C132 1.388 . S
C132 H113 0.946 . S
C132 C131 1.388 . S
C132 C133 1.384 . S
C133 C132 1.384 . S
C133 C134 1.377 1_556 S
C134 H114 0.953 . S
C134 C133 1.377 1_554 S
C134 C135 1.369 . S
C135 H115 0.945 . S
C135 C130 1.385 . S
C135 C134 1.369 . S
C136 C128 1.457 . S
C136 C137 1.372 . S
C136 C141 1.364 . S
C137 H116 0.952 . S
C137 C136 1.372 . S
C137 C138 1.389 . S
C138 H117 0.949 . S
C138 C137 1.389 . S
C138 C139 1.387 . S
C139 C138 1.387 . S
C139 C140 1.372 . S
C140 H118 0.950 . S
C140 C139 1.372 . S
C140 C141 1.379 . S
C141 H119 0.948 . S
C141 C136 1.364 . S
C141 C140 1.379 . S
C142 C111 1.383 . S
C142 C129 1.471 1_556 S
C142 C143 1.398 . S
C143 C108 1.382 . S
C143 H120 0.951 1_556 S
C143 C142 1.398 . S
C144 C145 1.384 . S
C144 H157 0.947 . S
C144 C179 1.382 1_556 S
C145 C144 1.384 . S
C145 C146 1.378 . S
C146 C145 1.378 . S
C146 C147 1.378 . S
C146 H158 0.952 . S
C147 C146 1.378 . S
C147 H159 0.950 . S
C147 C178 1.383 1_556 S
H148 C167 0.947 . S
H149 C168 0.946 . S
H150 C170 0.953 . S
H151 C171 0.945 . S
H152 C173 0.952 . S
H153 C174 0.949 . S
H154 C176 0.950 . S
H155 C177 0.948 . S
H156 C179 0.951 . S
H157 C144 0.947 . S
H158 C146 0.952 . S
H159 C147 0.950 . S
N160 C163 1.382 . S
N160 C165 1.363 . S
N161 C163 1.371 . S
N161 C164 1.372 . S
N162 C164 1.361 . S
N162 C165 1.377 . S
C163 N160 1.382 . S
C163 N161 1.371 . S
C163 C166 1.480 . S
C164 N161 1.372 . S
C164 N162 1.361 . S
C164 C172 1.457 . S
C165 N160 1.363 . S
C165 N162 1.377 . S
C165 C178 1.479 . S
C166 C163 1.480 . S
C166 C167 1.383 . S
C166 C171 1.385 . S
C167 H148 0.947 . S
C167 C166 1.383 . S
C167 C168 1.388 . S
C168 H149 0.946 . S
C168 C167 1.388 . S
C168 C169 1.384 . S
C169 C168 1.384 . S
C169 C170 1.377 . S
C170 H150 0.953 . S
C170 C169 1.377 . S
C170 C171 1.369 . S
C171 H151 0.945 . S
C171 C166 1.385 . S
C171 C170 1.369 . S
C172 C164 1.457 . S
C172 C173 1.372 . S
C172 C177 1.364 . S
C173 H152 0.952 . S
C173 C172 1.372 . S
C173 C174 1.389 . S
C174 H153 0.949 . S
C174 C173 1.389 . S
C174 C175 1.387 . S
C175 C174 1.387 . S
C175 C176 1.372 . S
C176 H154 0.950 . S
C176 C175 1.372 . S
C176 C177 1.379 . S
C177 H155 0.948 . S
C177 C172 1.364 . S
C177 C176 1.379 . S
C178 C147 1.383 1_554 S
C178 C165 1.479 . S
C178 C179 1.398 . S
C179 C144 1.382 1_554 S
C179 H156 0.951 . S
C179 C178 1.398 . S
C180 C181 1.384 . S
C180 H193 0.947 . S
C180 C215 1.382 . S
C181 C180 1.384 . S
C181 C182 1.378 . S
C182 C181 1.378 . S
C182 C183 1.378 . S
C182 H194 0.952 . S
C183 C182 1.378 . S
C183 H195 0.950 . S
C183 C214 1.383 1_556 S
H184 C203 0.947 . S
H185 C204 0.946 . S
H186 C206 0.953 . S
H187 C207 0.945 . S
H188 C209 0.952 . S
H189 C210 0.949 . S
H190 C212 0.950 . S
H191 C213 0.948 . S
H192 C215 0.951 1_554 S
H193 C180 0.947 . S
H194 C182 0.952 . S
H195 C183 0.950 . S
N196 C199 1.382 . S
N196 C201 1.363 . S
N197 C199 1.371 . S
N197 C200 1.372 . S
N198 C200 1.361 . S
N198 C201 1.377 . S
C199 N196 1.382 . S
C199 N197 1.371 . S
C199 C202 1.480 . S
C200 N197 1.372 . S
C200 N198 1.361 . S
C200 C208 1.457 . S
C201 N196 1.363 . S
C201 N198 1.377 . S
C201 C214 1.479 . S
C202 C199 1.480 . S
C202 C203 1.383 . S
C202 C207 1.385 . S
C203 H184 0.947 . S
C203 C202 1.383 . S
C203 C204 1.388 . S
C204 H185 0.946 . S
C204 C203 1.388 . S
C204 C205 1.384 . S
C205 C204 1.384 . S
C205 C206 1.377 . S
C206 H186 0.953 . S
C206 C205 1.377 . S
C206 C207 1.369 . S
C207 H187 0.945 . S
C207 C202 1.385 . S
C207 C206 1.369 . S
C208 C200 1.457 . S
C208 C209 1.372 . S
C208 C213 1.364 . S
C209 H188 0.952 . S
C209 C208 1.372 . S
C209 C210 1.389 . S
C210 H189 0.949 . S
C210 C209 1.389 . S
C210 C211 1.387 . S
C211 C210 1.387 . S
C211 C212 1.372 . S
C212 H190 0.950 . S
C212 C211 1.372 . S
C212 C213 1.379 . S
C213 H191 0.948 . S
C213 C208 1.364 . S
C213 C212 1.379 . S
C214 C183 1.383 1_554 S
C214 C201 1.479 . S
C214 C215 1.398 1_554 S
C215 C180 1.382 . S
C215 H192 0.951 1_556 S
C215 C214 1.398 1_556 S
C216 C217 1.384 . S
C216 H229 0.947 . S
C216 C251 1.382 1_556 S
C217 C216 1.384 . S
C217 C218 1.378 . S
C218 C217 1.378 . S
C218 C219 1.378 . S
C218 H230 0.952 . S
C219 C218 1.378 . S
C219 H231 0.950 . S
C219 C250 1.383 1_556 S
H220 C239 0.947 . S
H221 C240 0.946 . S
H222 C242 0.953 . S
H223 C243 0.945 . S
H224 C245 0.952 . S
H225 C246 0.949 . S
H226 C248 0.950 . S
H227 C249 0.948 . S
H228 C251 0.951 . S
H229 C216 0.947 . S
H230 C218 0.952 . S
H231 C219 0.950 . S
N232 C235 1.382 . S
N232 C237 1.363 . S
N233 C235 1.371 . S
N233 C236 1.372 . S
N234 C236 1.361 . S
N234 C237 1.377 . S
C235 N232 1.382 . S
C235 N233 1.371 . S
C235 C238 1.480 . S
C236 N233 1.372 . S
C236 N234 1.361 . S
C236 C244 1.457 . S
C237 N232 1.363 . S
C237 N234 1.377 . S
C237 C250 1.479 . S
C238 C235 1.480 . S
C238 C239 1.383 . S
C238 C243 1.385 . S
C239 H220 0.947 . S
C239 C238 1.383 . S
C239 C240 1.388 . S
C240 H221 0.946 . S
C240 C239 1.388 . S
C240 C241 1.384 . S
C241 C240 1.384 . S
C241 C242 1.377 . S
C242 H222 0.953 . S
C242 C241 1.377 . S
C242 C243 1.369 . S
C243 H223 0.945 . S
C243 C238 1.385 . S
C243 C242 1.369 . S
C244 C236 1.457 . S
C244 C245 1.372 . S
C244 C249 1.364 . S
C245 H224 0.952 . S
C245 C244 1.372 . S
C245 C246 1.389 . S
C246 H225 0.949 . S
C246 C245 1.389 . S
C246 C247 1.387 . S
C247 C246 1.387 . S
C247 C248 1.372 . S
C248 H226 0.950 . S
C248 C247 1.372 . S
C248 C249 1.379 . S
C249 H227 0.948 . S
C249 C244 1.364 . S
C249 C248 1.379 . S
C250 C219 1.383 1_554 S
C250 C237 1.479 . S
C250 C251 1.398 . S
C251 C216 1.382 1_554 S
C251 H228 0.951 . S
C251 C250 1.398 . S
C252 C253 1.384 . S
C252 H265 0.947 . S
C252 C287 1.382 . S
C253 C252 1.384 . S
C253 C254 1.378 . S
C254 C253 1.378 . S
C254 C255 1.378 . S
C254 H266 0.952 . S
C255 C254 1.378 . S
C255 H267 0.950 . S
C255 C286 1.383 . S
H256 C275 0.947 . S
H257 C276 0.946 . S
H258 C278 0.953 . S
H259 C279 0.945 . S
H260 C281 0.952 . S
H261 C282 0.949 . S
H262 C284 0.950 . S
H263 C285 0.948 . S
H264 C287 0.951 . S
H265 C252 0.947 . S
H266 C254 0.952 . S
H267 C255 0.950 . S
N268 C271 1.382 . S
N268 C273 1.363 . S
N269 C271 1.371 . S
N269 C272 1.372 . S
N270 C272 1.361 . S
N270 C273 1.377 . S
C271 N268 1.382 . S
C271 N269 1.371 . S
C271 C274 1.480 . S
C272 N269 1.372 . S
C272 N270 1.361 . S
C272 C280 1.457 . S
C273 N268 1.363 . S
C273 N270 1.377 . S
C273 C286 1.479 . S
C274 C271 1.480 . S
C274 C275 1.383 . S
C274 C279 1.385 . S
C275 H256 0.947 . S
C275 C274 1.383 . S
C275 C276 1.388 . S
C276 H257 0.946 . S
C276 C275 1.388 . S
C276 C277 1.384 . S
C277 C276 1.384 . S
C277 C278 1.377 . S
C278 H258 0.953 . S
C278 C277 1.377 . S
C278 C279 1.369 . S
C279 H259 0.945 . S
C279 C274 1.385 . S
C279 C278 1.369 . S
C280 C272 1.457 . S
C280 C281 1.372 1_554 S
C280 C285 1.364 . S
C281 H260 0.952 . S
C281 C280 1.372 1_556 S
C281 C282 1.389 . S
C282 H261 0.949 . S
C282 C281 1.389 . S
C282 C283 1.387 . S
C283 C282 1.387 . S
C283 C284 1.372 . S
C284 H262 0.950 . S
C284 C283 1.372 . S
C284 C285 1.379 1_556 S
C285 H263 0.948 . S
C285 C280 1.364 . S
C285 C284 1.379 1_554 S
C286 C255 1.383 . S
C286 C273 1.479 . S
C286 C287 1.398 . S
C287 C252 1.382 . S
C287 H264 0.951 . S
C287 C286 1.398 . S
Zn288 O294 1.982 . S
Zn288 O295 1.952 1_655 S
Zn288 O299 2.008 1_655 S
Zn288 O304 1.991 . S
Zn289 O296 1.969 . S
Zn289 O302 1.969 . S
Zn289 O303 1.965 1_455 S
Zn289 O305 2.024 1_455 S
C290 O291 1.229 1_455 S
C290 O299 1.058 . S
O291 C290 1.229 1_655 S
C292 O293 1.229 1_655 S
C292 O305 1.058 . S
O293 C292 1.229 1_455 S
O294 Zn288 1.982 . S
O294 C297 1.267 . S
O295 Zn288 1.952 1_455 S
O295 C306 1.260 . S
O296 Zn289 1.969 . S
O296 C306 1.258 1_565 S
C297 O294 1.267 . S
C297 O298 1.228 1_655 S
O298 C297 1.228 1_455 S
O299 Zn288 2.008 1_455 S
O299 C290 1.058 . S
C300 O301 1.228 1_455 S
C300 O302 1.267 . S
O301 C300 1.228 1_655 S
O302 Zn289 1.969 . S
O302 C300 1.267 . S
O303 Zn289 1.965 1_655 S
O303 C307 1.260 1_565 S
O304 Zn288 1.991 . S
O304 C307 1.258 . S
O305 Zn289 2.024 1_655 S
O305 C292 1.058 . S
C306 O295 1.260 . S
C306 O296 1.258 1_545 S
C307 O303 1.260 1_545 S
C307 O304 1.258 . S
Zn308 O314 1.969 1_545 S
Zn308 O315 1.965 . S
Zn308 O319 2.024 . S
Zn308 O324 1.969 1_545 S
Zn309 O316 1.969 1_565 S
Zn309 O322 1.969 1_565 S
Zn309 O323 1.965 . S
Zn309 O325 2.024 . S
C310 O311 1.229 1_545 S
C310 O319 1.058 . S
O311 C310 1.229 1_565 S
C312 O313 1.229 1_565 S
C312 O325 1.058 . S
O313 C312 1.229 1_545 S
O314 Zn308 1.969 1_565 S
O314 C317 1.267 1_565 S
O315 Zn308 1.965 . S
O315 C326 1.260 . S
O316 Zn309 1.969 1_545 S
O316 C326 1.258 . S
C317 O314 1.267 1_545 S
C317 O318 1.228 . S
O318 C317 1.228 . S
O319 Zn308 2.024 . S
O319 C310 1.058 . S
C320 O321 1.228 . S
C320 O322 1.267 1_565 S
O321 C320 1.228 . S
O322 Zn309 1.969 1_545 S
O322 C320 1.267 1_545 S
O323 Zn309 1.965 . S
O323 C327 1.260 . S
O324 Zn308 1.969 1_565 S
O324 C327 1.258 . S
O325 Zn309 2.024 . S
O325 C312 1.058 . S
C326 O315 1.260 . S
C326 O316 1.258 . S
C327 O323 1.260 . S
C327 O324 1.258 . S
Zn328 O334 1.969 . S
Zn328 O335 1.965 . S
Zn328 O339 2.024 . S
Zn328 O344 1.969 . S
Zn329 O336 1.969 . S
Zn329 O342 1.969 . S
Zn329 O343 1.965 . S
Zn329 O345 2.024 . S
C330 O331 1.229 . S
C330 O339 1.058 . S
O331 C330 1.229 . S
C332 O333 1.229 . S
C332 O345 1.058 . S
O333 C332 1.229 . S
O334 Zn328 1.969 . S
O334 C337 1.267 . S
O335 Zn328 1.965 . S
O335 C346 1.260 . S
O336 Zn329 1.969 . S
O336 C346 1.258 . S
C337 O334 1.267 . S
C337 O338 1.228 . S
O338 C337 1.228 . S
O339 Zn328 2.024 . S
O339 C330 1.058 . S
C340 O341 1.228 . S
C340 O342 1.267 . S
O341 C340 1.228 . S
O342 Zn329 1.969 . S
O342 C340 1.267 . S
O343 Zn329 1.965 . S
O343 C347 1.260 . S
O344 Zn328 1.969 . S
O344 C347 1.258 . S
O345 Zn329 2.024 . S
O345 C332 1.058 . S
C346 O335 1.260 . S
C346 O336 1.258 . S
C347 O343 1.260 . S
C347 O344 1.258 . S
Zn348 O354 1.969 . S
Zn348 O355 1.965 . S
Zn348 O359 2.024 . S
Zn348 O364 1.969 . S
Zn349 O356 1.969 . S
Zn349 O362 1.969 . S
Zn349 O363 1.965 . S
Zn349 O365 2.024 . S
C350 O351 1.229 . S
C350 O359 1.058 . S
O351 C350 1.229 . S
C352 O353 1.229 . S
C352 O365 1.058 . S
O353 C352 1.229 . S
O354 Zn348 1.969 . S
O354 C357 1.267 . S
O355 Zn348 1.965 . S
O355 C366 1.286 . S
O356 Zn349 1.969 . S
O356 C366 1.222 1_655 S
C357 O354 1.267 . S
C357 O358 1.228 . S
O358 C357 1.228 . S
O359 Zn348 2.024 . S
O359 C350 1.058 . S
C360 O361 1.228 . S
C360 O362 1.267 . S
O361 C360 1.228 . S
O362 Zn349 1.969 . S
O362 C360 1.267 . S
O363 Zn349 1.965 . S
O363 C367 1.260 1_655 S
O364 Zn348 1.969 . S
O364 C367 1.258 . S
O365 Zn349 2.024 . S
O365 C352 1.058 . S
C366 O355 1.286 . S
C366 O356 1.222 1_455 S
C367 O363 1.260 1_455 S
C367 O364 1.258 . S
H368 C374 0.930 . S
H369 C377 0.930 . S
H370 C378 0.930 1_565 S
H371 C379 0.930 1_565 S
H372 C382 0.930 . S
H373 C383 0.930 . S
C374 H368 0.930 . S
C374 C375 1.355 . S
C374 C376 1.415 . S
C375 C374 1.355 . S
C375 C377 1.419 . S
C376 C374 1.415 . S
C376 C381 1.425 . S
C376 C383 1.409 . S
C377 H369 0.930 . S
C377 C375 1.419 . S
C377 C378 1.362 . S
C378 H370 0.930 1_545 S
C378 C377 1.362 . S
C378 C381 1.409 . S
C379 H371 0.930 1_545 S
C379 C380 1.355 . S
C379 C381 1.415 . S
C380 C379 1.355 . S
C380 C382 1.419 . S
C381 C376 1.425 . S
C381 C378 1.409 . S
C381 C379 1.415 . S
C382 H372 0.930 . S
C382 C380 1.419 . S
C382 C383 1.362 . S
C383 H373 0.930 . S
C383 C376 1.409 . S
C383 C382 1.362 . S
H384 C390 0.930 . S
H385 C393 0.930 . S
H386 C394 0.930 . S
H387 C395 0.930 . S
H388 C398 0.930 . S
H389 C399 0.930 . S
C390 H384 0.930 . S
C390 C391 1.355 . S
C390 C392 1.415 . S
C391 C390 1.355 . S
C391 C393 1.419 . S
C392 C390 1.415 . S
C392 C397 1.425 . S
C392 C399 1.409 . S
C393 H385 0.930 . S
C393 C391 1.419 . S
C393 C394 1.362 . S
C394 H386 0.930 . S
C394 C393 1.362 . S
C394 C397 1.409 . S
C395 H387 0.930 . S
C395 C396 1.355 . S
C395 C397 1.415 . S
C396 C395 1.355 . S
C396 C398 1.419 . S
C397 C392 1.425 . S
C397 C394 1.409 . S
C397 C395 1.415 . S
C398 H388 0.930 . S
C398 C396 1.419 . S
C398 C399 1.362 . S
C399 H389 0.930 . S
C399 C392 1.409 . S
C399 C398 1.362 . S
H400 C406 0.930 . S
H401 C409 0.930 . S
H402 C410 0.930 . S
H403 C411 0.930 . S
H404 C414 0.930 . S
H405 C415 0.930 . S
C406 H400 0.930 . S
C406 C407 1.355 . S
C406 C408 1.415 . S
C407 C406 1.355 . S
C407 C409 1.419 . S
C408 C406 1.415 . S
C408 C413 1.425 . S
C408 C415 1.409 . S
C409 H401 0.930 . S
C409 C407 1.419 . S
C409 C410 1.362 . S
C410 H402 0.930 . S
C410 C409 1.362 . S
C410 C413 1.409 . S
C411 H403 0.930 . S
C411 C412 1.355 . S
C411 C413 1.415 . S
C412 C411 1.355 . S
C412 C414 1.419 . S
C413 C408 1.425 . S
C413 C410 1.409 . S
C413 C411 1.415 . S
C414 H404 0.930 . S
C414 C412 1.419 . S
C414 C415 1.362 . S
C415 H405 0.930 . S
C415 C408 1.409 . S
C415 C414 1.362 . S
H416 C422 0.930 . S
H417 C425 0.930 . S
H418 C426 0.930 . S
H419 C427 0.930 . S
H420 C430 0.930 . S
H421 C431 0.930 . S
C422 H416 0.930 . S
C422 C423 1.355 . S
C422 C424 1.415 . S
C423 C422 1.355 . S
C423 C425 1.419 1_455 S
C424 C422 1.415 . S
C424 C429 1.425 1_455 S
C424 C431 1.409 . S
C425 H417 0.930 . S
C425 C423 1.419 1_655 S
C425 C426 1.362 . S
C426 H418 0.930 . S
C426 C425 1.362 . S
C426 C429 1.409 . S
C427 H419 0.930 . S
C427 C428 1.355 1_655 S
C427 C429 1.415 . S
C428 C427 1.355 1_455 S
C428 C430 1.419 . S
C429 C424 1.425 1_655 S
C429 C426 1.409 . S
C429 C427 1.415 . S
C430 H420 0.930 . S
C430 C428 1.419 . S
C430 C431 1.362 . S
C431 H421 0.930 . S
C431 C424 1.409 . S
C431 C430 1.362 . S
H432 C438 0.930 . S
H433 C441 0.930 1_545 S
H434 C442 0.930 . S
H435 C443 0.930 . S
H436 C446 0.930 . S
H437 C447 0.930 . S
C438 H432 0.930 . S
C438 C439 1.355 . S
C438 C440 1.415 . S
C439 C438 1.355 . S
C439 C441 1.419 . S
C440 C438 1.415 . S
C440 C445 1.425 . S
C440 C447 1.409 . S
C441 H433 0.930 1_565 S
C441 C439 1.419 . S
C441 C442 1.362 1_565 S
C442 H434 0.930 . S
C442 C441 1.362 1_545 S
C442 C445 1.409 1_545 S
C443 H435 0.930 . S
C443 C444 1.355 1_545 S
C443 C445 1.415 1_545 S
C444 C443 1.355 1_565 S
C444 C446 1.419 . S
C445 C440 1.425 . S
C445 C442 1.409 1_565 S
C445 C443 1.415 1_565 S
C446 H436 0.930 . S
C446 C444 1.419 . S
C446 C447 1.362 . S
C447 H437 0.930 . S
C447 C440 1.409 . S
C447 C446 1.362 . S
H448 C454 0.930 . S
H449 C457 0.930 . S
H450 C458 0.930 . S
H451 C459 0.930 . S
H452 C462 0.930 . S
H453 C463 0.930 . S
C454 H448 0.930 . S
C454 C455 1.355 . S
C454 C456 1.415 . S
C455 C454 1.355 . S
C455 C457 1.419 . S
C456 C454 1.415 . S
C456 C461 1.425 . S
C456 C463 1.409 . S
C457 H449 0.930 . S
C457 C455 1.419 . S
C457 C458 1.362 . S
C458 H450 0.930 . S
C458 C457 1.362 . S
C458 C461 1.409 . S
C459 H451 0.930 . S
C459 C460 1.355 . S
C459 C461 1.415 . S
C460 C459 1.355 . S
C460 C462 1.419 . S
C461 C456 1.425 . S
C461 C458 1.409 . S
C461 C459 1.415 . S
C462 H452 0.930 . S
C462 C460 1.419 . S
C462 C463 1.362 . S
C463 H453 0.930 . S
C463 C456 1.409 . S
C463 C462 1.362 . S
H464 C470 0.930 . S
H465 C473 0.930 . S
H466 C474 0.930 . S
H467 C475 0.930 . S
H468 C478 0.930 . S
H469 C479 0.930 . S
C470 H464 0.930 . S
C470 C471 1.355 . S
C470 C472 1.415 . S
C471 C470 1.355 . S
C471 C473 1.419 . S
C472 C470 1.415 . S
C472 C477 1.425 . S
C472 C479 1.409 . S
C473 H465 0.930 . S
C473 C471 1.419 . S
C473 C474 1.362 . S
C474 H466 0.930 . S
C474 C473 1.362 . S
C474 C477 1.409 . S
C475 H467 0.930 . S
C475 C476 1.355 . S
C475 C477 1.415 . S
C476 C475 1.355 . S
C476 C478 1.419 . S
C477 C472 1.425 . S
C477 C474 1.409 . S
C477 C475 1.415 . S
C478 H468 0.930 . S
C478 C476 1.419 . S
C478 C479 1.362 . S
C479 H469 0.930 . S
C479 C472 1.409 . S
C479 C478 1.362 . S
H480 C486 0.930 . S
H481 C489 0.930 . S
H482 C490 0.930 . S
H483 C491 0.931 . S
H484 C494 0.930 . S
H485 C495 0.930 . S
C486 H480 0.930 . S
C486 C487 1.355 . S
C486 C488 1.415 . S
C487 C486 1.355 . S
C487 C489 1.419 . S
C488 C486 1.415 . S
C488 C493 1.425 . S
C488 C495 1.415 . S
C489 H481 0.930 . S
C489 C487 1.419 . S
C489 C490 1.362 . S
C490 H482 0.930 . S
C490 C489 1.362 . S
C490 C493 1.409 . S
C491 H483 0.931 . S
C491 C492 1.355 1_655 S
C491 C493 1.415 . S
C492 C491 1.355 1_455 S
C492 C494 1.419 . S
C493 C488 1.425 . S
C493 C490 1.409 . S
C493 C491 1.415 . S
C494 H484 0.930 . S
C494 C492 1.419 . S
C494 C495 1.359 1_455 S
C495 H485 0.930 . S
C495 C488 1.415 . S
C495 C494 1.359 1_655 S
H496 C502 0.930 . S
H497 C505 0.930 . S
H498 C506 0.930 . S
H499 C507 0.930 . S
H500 C510 0.930 . S
H501 C511 0.930 . S
C502 H496 0.930 . S
C502 C503 1.355 . S
C502 C504 1.415 . S
C503 C502 1.355 . S
C503 C505 1.419 . S
C504 C502 1.415 . S
C504 C509 1.425 1_455 S
C504 C511 1.409 . S
C505 H497 0.930 . S
C505 C503 1.419 . S
C505 C506 1.362 1_455 S
C506 H498 0.930 . S
C506 C505 1.362 1_655 S
C506 C509 1.409 . S
C507 H499 0.930 . S
C507 C508 1.355 . S
C507 C509 1.415 . S
C508 C507 1.355 . S
C508 C510 1.419 1_655 S
C509 C504 1.425 1_655 S
C509 C506 1.409 . S
C509 C507 1.415 . S
C510 H500 0.930 . S
C510 C508 1.419 1_455 S
C510 C511 1.362 . S
C511 H501 0.930 . S
C511 C504 1.409 . S
C511 C510 1.362 . S
H512 C518 0.930 . S
H513 C521 0.930 . S
H514 C522 0.930 . S
H515 C523 0.930 . S
H516 C526 0.930 . S
H517 C527 0.930 . S
C518 H512 0.930 . S
C518 C519 1.355 . S
C518 C520 1.415 . S
C519 C518 1.355 . S
C519 C521 1.419 . S
C520 C518 1.415 . S
C520 C525 1.425 . S
C520 C527 1.409 1_545 S
C521 H513 0.930 . S
C521 C519 1.419 . S
C521 C522 1.362 . S
C522 H514 0.930 . S
C522 C521 1.362 . S
C522 C525 1.409 . S
C523 H515 0.930 . S
C523 C524 1.355 1_545 S
C523 C525 1.415 . S
C524 C523 1.355 1_565 S
C524 C526 1.419 . S
C525 C520 1.425 . S
C525 C522 1.409 . S
C525 C523 1.415 . S
C526 H516 0.930 . S
C526 C524 1.419 . S
C526 C527 1.362 . S
C527 H517 0.930 . S
C527 C520 1.409 1_565 S
C527 C526 1.362 . S
H528 C534 0.930 . S
H529 C537 0.930 . S
H530 C538 0.930 . S
H531 C539 0.930 . S
H532 C542 0.930 . S
H533 C543 0.930 . S
C534 H528 0.930 . S
C534 C535 1.355 . S
C534 C536 1.415 . S
C535 C534 1.355 . S
C535 C537 1.419 . S
C536 C534 1.415 . S
C536 C541 1.425 . S
C536 C543 1.409 . S
C537 H529 0.930 . S
C537 C535 1.419 . S
C537 C538 1.362 . S
C538 H530 0.930 . S
C538 C537 1.362 . S
C538 C541 1.409 . S
C539 H531 0.930 . S
C539 C540 1.355 . S
C539 C541 1.415 . S
C540 C539 1.355 . S
C540 C542 1.419 . S
C541 C536 1.425 . S
C541 C538 1.409 . S
C541 C539 1.415 . S
C542 H532 0.930 . S
C542 C540 1.419 . S
C542 C543 1.362 . S
C543 H533 0.930 . S
C543 C536 1.409 . S
C543 C542 1.362 . S
H544 C550 0.930 . S
H545 C553 0.930 . S
H546 C554 0.930 . S
H547 C555 0.930 . S
H548 C558 0.930 . S
H549 C559 0.930 . S
C550 H544 0.930 . S
C550 C551 1.355 . S
C550 C552 1.415 . S
C551 C550 1.355 . S
C551 C553 1.419 . S
C552 C550 1.415 . S
C552 C557 1.425 . S
C552 C559 1.409 . S
C553 H545 0.930 . S
C553 C551 1.419 . S
C553 C554 1.362 . S
C554 H546 0.930 . S
C554 C553 1.362 . S
C554 C557 1.409 . S
C555 H547 0.930 . S
C555 C556 1.355 . S
C555 C557 1.415 . S
C556 C555 1.355 . S
C556 C558 1.419 . S
C557 C552 1.425 . S
C557 C554 1.409 . S
C557 C555 1.415 . S
C558 H548 0.930 . S
C558 C556 1.419 . S
C558 C559 1.362 . S
C559 H549 0.930 . S
C559 C552 1.409 . S
C559 C558 1.362 . S
H560 C566 0.930 . S
H561 C569 0.930 . S
H562 C570 0.930 . S
H563 C571 0.930 . S
H564 C574 0.930 . S
H565 C575 0.930 . S
C566 H560 0.930 . S
C566 C567 1.355 . S
C566 C568 1.415 . S
C567 C566 1.355 . S
C567 C569 1.419 1_655 S
C568 C566 1.415 . S
C568 C573 1.425 1_655 S
C568 C575 1.409 . S
C569 H561 0.930 . S
C569 C567 1.419 1_455 S
C569 C570 1.362 . S
C570 H562 0.930 . S
C570 C569 1.362 . S
C570 C573 1.409 . S
C571 H563 0.930 . S
C571 C572 1.355 . S
C571 C573 1.415 . S
C572 C571 1.355 . S
C572 C574 1.419 1_455 S
C573 C568 1.425 1_455 S
C573 C570 1.409 . S
C573 C571 1.415 . S
C574 H564 0.930 . S
C574 C572 1.419 1_655 S
C574 C575 1.362 . S
C575 H565 0.930 . S
C575 C568 1.409 . S
C575 C574 1.362 . S
H576 C582 0.930 . S
H577 C585 0.930 . S
H578 C586 0.930 . S
H579 C587 0.930 . S
H580 C590 0.930 . S
H581 C591 0.943 . S
C582 H576 0.930 . S
C582 C583 1.355 . S
C582 C584 1.415 . S
C583 C582 1.355 . S
C583 C585 1.419 . S
C584 C582 1.415 . S
C584 C589 1.425 . S
C584 C591 1.383 1_565 S
C585 H577 0.930 . S
C585 C583 1.419 . S
C585 C586 1.362 . S
C586 H578 0.930 . S
C586 C585 1.362 . S
C586 C589 1.409 . S
C587 H579 0.930 . S
C587 C588 1.355 1_565 S
C587 C589 1.415 . S
C588 C587 1.355 1_545 S
C588 C590 1.419 . S
C589 C584 1.425 . S
C589 C586 1.409 . S
C589 C587 1.415 . S
C590 H580 0.930 . S
C590 C588 1.419 . S
C590 C591 1.378 . S
C591 H581 0.943 . S
C591 C584 1.383 1_545 S
C591 C590 1.378 . S
H592 C598 0.930 . S
H593 C601 0.930 . S
H594 C602 0.930 . S
H595 C603 0.930 . S
H596 C606 0.930 . S
H597 C607 0.930 . S
C598 H592 0.930 . S
C598 C599 1.355 . S
C598 C600 1.415 . S
C599 C598 1.355 . S
C599 C601 1.419 . S
C600 C598 1.415 . S
C600 C605 1.425 . S
C600 C607 1.409 . S
C601 H593 0.930 . S
C601 C599 1.419 . S
C601 C602 1.362 . S
C602 H594 0.930 . S
C602 C601 1.362 . S
C602 C605 1.409 . S
C603 H595 0.930 . S
C603 C604 1.355 . S
C603 C605 1.415 . S
C604 C603 1.355 . S
C604 C606 1.419 . S
C605 C600 1.425 . S
C605 C602 1.409 . S
C605 C603 1.415 . S
C606 H596 0.930 . S
C606 C604 1.419 . S
C606 C607 1.362 . S
C607 H597 0.930 . S
C607 C600 1.409 . S
C607 C606 1.362 . S
H608 C614 0.930 . S
H609 C617 0.930 . S
H610 C618 0.930 . S
H611 C619 0.930 . S
H612 C622 0.930 . S
H613 C623 0.930 . S
C614 H608 0.930 . S
C614 C615 1.355 . S
C614 C616 1.415 . S
C615 C614 1.355 . S
C615 C617 1.419 . S
C616 C614 1.415 . S
C616 C621 1.425 . S
C616 C623 1.409 . S
C617 H609 0.930 . S
C617 C615 1.419 . S
C617 C618 1.362 . S
C618 H610 0.930 . S
C618 C617 1.362 . S
C618 C621 1.409 . S
C619 H611 0.930 . S
C619 C620 1.355 . S
C619 C621 1.415 . S
C620 C619 1.355 . S
C620 C622 1.419 . S
C621 C616 1.425 . S
C621 C618 1.409 . S
C621 C619 1.415 . S
C622 H612 0.930 . S
C622 C620 1.419 . S
C622 C623 1.362 . S
C623 H613 0.930 . S
C623 C616 1.409 . S
C623 C622 1.362 . S
H624 C630 0.930 . S
H625 C633 0.930 . S
H626 C634 0.930 . S
H627 C635 0.930 . S
H628 C638 0.930 . S
H629 C639 0.930 . S
C630 H624 0.930 . S
C630 C631 1.355 . S
C630 C632 1.415 . S
C631 C630 1.355 . S
C631 C633 1.419 . S
C632 C630 1.415 . S
C632 C637 1.425 . S
C632 C639 1.409 . S
C633 H625 0.930 . S
C633 C631 1.419 . S
C633 C634 1.362 . S
C634 H626 0.930 . S
C634 C633 1.362 . S
C634 C637 1.409 . S
C635 H627 0.930 . S
C635 C636 1.355 . S
C635 C637 1.415 . S
C636 C635 1.355 . S
C636 C638 1.419 . S
C637 C632 1.425 . S
C637 C634 1.409 . S
C637 C635 1.415 . S
C638 H628 0.930 . S
C638 C636 1.419 . S
C638 C639 1.362 . S
C639 H629 0.930 . S
C639 C632 1.409 . S
C639 C638 1.362 . S
H640 C646 0.930 . S
H641 C649 0.916 1_565 S
H642 C650 0.930 1_565 S
H643 C651 0.930 1_565 S
H644 C654 0.930 . S
H645 C655 0.930 . S
C646 H640 0.930 . S
C646 C647 1.355 . S
C646 C648 1.415 . S
C647 C646 1.355 . S
C647 C649 1.419 . S
C648 C646 1.415 . S
C648 C653 1.425 . S
C648 C655 1.409 . S
C649 H641 0.916 1_545 S
C649 C647 1.419 . S
C649 C650 1.362 . S
C650 H642 0.930 1_545 S
C650 C649 1.362 . S
C650 C653 1.409 . S
C651 H643 0.930 1_545 S
C651 C652 1.355 . S
C651 C653 1.415 . S
C652 C651 1.355 . S
C652 C654 1.419 . S
C653 C648 1.425 . S
C653 C650 1.409 . S
C653 C651 1.415 . S
C654 H644 0.930 . S
C654 C652 1.419 . S
C654 C655 1.362 . S
C655 H645 0.930 . S
C655 C648 1.409 . S
C655 C654 1.362 . S
H656 C662 0.930 . S
H657 C665 0.930 . S
H658 C666 0.930 . S
H659 C667 0.930 . S
H660 C670 0.930 . S
H661 C671 0.930 . S
C662 H656 0.930 . S
C662 C663 1.355 . S
C662 C664 1.415 . S
C663 C662 1.355 . S
C663 C665 1.419 . S
C664 C662 1.415 . S
C664 C669 1.425 . S
C664 C671 1.409 . S
C665 H657 0.930 . S
C665 C663 1.419 . S
C665 C666 1.362 . S
C666 H658 0.930 . S
C666 C665 1.362 . S
C666 C669 1.409 . S
C667 H659 0.930 . S
C667 C668 1.355 . S
C667 C669 1.415 . S
C668 C667 1.355 . S
C668 C670 1.419 . S
C669 C664 1.425 . S
C669 C666 1.409 . S
C669 C667 1.415 . S
C670 H660 0.930 . S
C670 C668 1.419 . S
C670 C671 1.362 . S
C671 H661 0.930 . S
C671 C664 1.409 . S
C671 C670 1.362 . S
H672 C678 0.930 . S
H673 C681 0.930 . S
H674 C682 0.930 . S
H675 C683 0.930 . S
H676 C686 0.930 . S
H677 C687 0.930 . S
C678 H672 0.930 . S
C678 C679 1.355 . S
C678 C680 1.415 . S
C679 C678 1.355 . S
C679 C681 1.419 . S
C680 C678 1.415 . S
C680 C685 1.425 . S
C680 C687 1.409 . S
C681 H673 0.930 . S
C681 C679 1.419 . S
C681 C682 1.362 . S
C682 H674 0.930 . S
C682 C681 1.362 . S
C682 C685 1.409 . S
C683 H675 0.930 . S
C683 C684 1.355 . S
C683 C685 1.415 . S
C684 C683 1.355 . S
C684 C686 1.419 . S
C685 C680 1.425 . S
C685 C682 1.409 . S
C685 C683 1.415 . S
C686 H676 0.930 . S
C686 C684 1.419 . S
C686 C687 1.362 . S
C687 H677 0.930 . S
C687 C680 1.409 . S
C687 C686 1.362 . S
H688 C694 0.930 . S
H689 C697 0.930 . S
H690 C698 0.930 . S
H691 C699 0.963 . S
H692 C702 0.930 . S
H693 C703 0.930 . S
C694 H688 0.930 . S
C694 C695 1.355 . S
C694 C696 1.415 . S
C695 C694 1.355 . S
C695 C697 1.419 1_655 S
C696 C694 1.415 . S
C696 C701 1.425 . S
C696 C703 1.409 . S
C697 H689 0.930 . S
C697 C695 1.419 1_455 S
C697 C698 1.362 . S
C698 H690 0.930 . S
C698 C697 1.362 . S
C698 C701 1.409 1_455 S
C699 H691 0.963 . S
C699 C700 1.330 1_455 S
C699 C701 1.409 1_455 S
C700 C699 1.330 1_655 S
C700 C702 1.419 . S
C701 C696 1.425 . S
C701 C698 1.409 1_655 S
C701 C699 1.409 1_655 S
C702 H692 0.930 . S
C702 C700 1.419 . S
C702 C703 1.362 . S
C703 H693 0.930 . S
C703 C696 1.409 . S
C703 C702 1.362 . S
H704 C710 0.930 . S
H705 C713 0.930 . S
H706 C714 0.930 1_545 S
H707 C715 0.930 . S
H708 C718 0.930 . S
H709 C719 0.930 . S
C710 H704 0.930 . S
C710 C711 1.355 . S
C710 C712 1.415 . S
C711 C710 1.355 . S
C711 C713 1.419 . S
C712 C710 1.415 . S
C712 C717 1.425 . S
C712 C719 1.409 . S
C713 H705 0.930 . S
C713 C711 1.419 . S
C713 C714 1.362 . S
C714 H706 0.930 1_565 S
C714 C713 1.362 . S
C714 C717 1.409 . S
C715 H707 0.930 . S
C715 C716 1.355 . S
C715 C717 1.415 . S
C716 C715 1.355 . S
C716 C718 1.419 . S
C717 C712 1.425 . S
C717 C714 1.409 . S
C717 C715 1.415 . S
C718 H708 0.930 . S
C718 C716 1.419 . S
C718 C719 1.362 . S
C719 H709 0.930 . S
C719 C712 1.409 . S
C719 C718 1.362 . S
H720 C726 0.930 . S
H721 C729 0.930 . S
H722 C730 0.930 . S
H723 C731 0.930 . S
H724 C734 0.930 . S
H725 C735 0.930 . S
C726 H720 0.930 . S
C726 C727 1.355 . S
C726 C728 1.415 . S
C727 C726 1.355 . S
C727 C729 1.419 . S
C728 C726 1.415 . S
C728 C733 1.425 . S
C728 C735 1.409 . S
C729 H721 0.930 . S
C729 C727 1.419 . S
C729 C730 1.362 . S
C730 H722 0.930 . S
C730 C729 1.362 . S
C730 C733 1.409 . S
C731 H723 0.930 . S
C731 C732 1.355 . S
C731 C733 1.415 . S
C732 C731 1.355 . S
C732 C734 1.419 . S
C733 C728 1.425 . S
C733 C730 1.409 . S
C733 C731 1.415 . S
C734 H724 0.930 . S
C734 C732 1.419 . S
C734 C735 1.362 . S
C735 H725 0.930 . S
C735 C728 1.409 . S
C735 C734 1.362 . S
H736 C742 0.930 . S
H737 C745 0.930 . S
H738 C746 0.930 . S
H739 C747 0.930 . S
H740 C750 0.930 . S
H741 C751 0.930 . S
C742 H736 0.930 . S
C742 C743 1.355 . S
C742 C744 1.415 . S
C743 C742 1.355 . S
C743 C745 1.419 . S
C744 C742 1.415 . S
C744 C749 1.425 . S
C744 C751 1.409 . S
C745 H737 0.930 . S
C745 C743 1.419 . S
C745 C746 1.362 . S
C746 H738 0.930 . S
C746 C745 1.362 . S
C746 C749 1.409 . S
C747 H739 0.930 . S
C747 C748 1.355 . S
C747 C749 1.415 . S
C748 C747 1.355 . S
C748 C750 1.419 . S
C749 C744 1.425 . S
C749 C746 1.409 . S
C749 C747 1.415 . S
C750 H740 0.930 . S
C750 C748 1.419 . S
C750 C751 1.362 . S
C751 H741 0.930 . S
C751 C744 1.409 . S
C751 C750 1.362 . S
C375 C241 1.650 . S
C380 C306 1.686 . S
C396 C326 1.620 . S
C391 C277 1.624 . S
C412 C346 1.681 . S
C407 C169 1.650 . S
C428 C366 1.646 . S
C423 C205 1.615 . S
C444 C307 1.796 1_565 S
C439 C97 1.713 . S
C455 C133 1.713 . S
C460 C327 1.682 . S
C471 C25 1.706 . S
C476 C347 1.737 . S
C487 C61 1.656 . S
C492 C367 1.675 . S
C508 C297 0.692 . S
C503 C211 0.689 . S
C524 C317 0.867 1_565 S
C519 C247 0.850 . S
C540 C337 0.672 . S
C535 C253 0.708 . S
C551 C175 0.901 . S
C556 C357 0.879 . S
C567 C67 0.793 . S
C572 C300 0.774 . S
C588 C320 0.941 1_545 S
C583 C103 0.943 . S
C604 C340 0.685 . S
C599 C109 0.721 . S
C615 C31 0.820 . S
C620 C360 0.794 . S
C631 C181 2.038 . S
C636 C290 1.985 . S
C647 C217 2.147 . S
C652 C310 2.109 . S
C668 C330 2.059 . S
C663 C283 2.032 . S
C684 C350 2.108 . S
C679 C145 2.170 . S
C695 C37 2.082 . S
C700 C292 2.046 . S
C716 C312 2.054 . S
C711 C73 2.073 . S
C732 C332 2.028 . S
C727 C139 2.009 . S
C743 C1 2.071 . S
C748 C352 2.025 . S
