# Generated by pormake.
# Topology bpr, (3,3)-cn, num edge types: 1
# Building blocks:
#     Node 0, Type 0, BuildingBlock: WUSLED_clean_sbu_0, # of connection points: 3
#     Node 1, Type 0, BuildingBlock: WUSLED_clean_sbu_0, # of connection points: 3
#     Node 2, Type 0, BuildingBlock: WUSLED_clean_sbu_0, # of connection points: 3
#     Node 3, Type 0, BuildingBlock: WUSLED_clean_sbu_0, # of connection points: 3
#     Node 4, Type 0, BuildingBlock: WUSLED_clean_sbu_0, # of connection points: 3
#     Node 5, Type 0, BuildingBlock: WUSLED_clean_sbu_0, # of connection points: 3
#     Node 6, Type 0, BuildingBlock: WUSLED_clean_sbu_0, # of connection points: 3
#     Node 7, Type 0, BuildingBlock: WUSLED_clean_sbu_0, # of connection points: 3
#     Node 8, Type 0, BuildingBlock: WUSLED_clean_sbu_0, # of connection points: 3
#     Node 9, Type 0, BuildingBlock: WUSLED_clean_sbu_0, # of connection points: 3
#     Node 10, Type 0, BuildingBlock: WUSLED_clean_sbu_0, # of connection points: 3
#     Node 11, Type 0, BuildingBlock: WUSLED_clean_sbu_0, # of connection points: 3
#     Node 12, Type 0, BuildingBlock: WUSLED_clean_sbu_0, # of connection points: 3
#     Node 13, Type 0, BuildingBlock: WUSLED_clean_sbu_0, # of connection points: 3
#     Node 14, Type 0, BuildingBlock: WUSLED_clean_sbu_0, # of connection points: 3
#     Node 15, Type 0, BuildingBlock: WUSLED_clean_sbu_0, # of connection points: 3
#     Node 16, Type 0, BuildingBlock: WUSLED_clean_sbu_0, # of connection points: 3
#     Node 17, Type 0, BuildingBlock: WUSLED_clean_sbu_0, # of connection points: 3
#     Node 18, Type 0, BuildingBlock: WUSLED_clean_sbu_0, # of connection points: 3
#     Node 19, Type 0, BuildingBlock: WUSLED_clean_sbu_0, # of connection points: 3
#     Node 20, Type 0, BuildingBlock: WUSLED_clean_sbu_0, # of connection points: 3
#     Node 21, Type 0, BuildingBlock: WUSLED_clean_sbu_0, # of connection points: 3
#     Node 22, Type 0, BuildingBlock: WUSLED_clean_sbu_0, # of connection points: 3
#     Node 23, Type 0, BuildingBlock: WUSLED_clean_sbu_0, # of connection points: 3
#     Node 24, Type 0, BuildingBlock: WUSLED_clean_sbu_0, # of connection points: 3
#     Node 25, Type 0, BuildingBlock: WUSLED_clean_sbu_0, # of connection points: 3
#     Node 26, Type 0, BuildingBlock: WUSLED_clean_sbu_0, # of connection points: 3
#     Node 27, Type 0, BuildingBlock: WUSLED_clean_sbu_0, # of connection points: 3
#     Node 28, Type 0, BuildingBlock: WUSLED_clean_sbu_0, # of connection points: 3
#     Node 29, Type 0, BuildingBlock: WUSLED_clean_sbu_0, # of connection points: 3
#     Node 30, Type 0, BuildingBlock: WUSLED_clean_sbu_0, # of connection points: 3
#     Node 31, Type 0, BuildingBlock: WUSLED_clean_sbu_0, # of connection points: 3
#     Node 32, Type 0, BuildingBlock: WUSLED_clean_sbu_0, # of connection points: 3
#     Node 33, Type 0, BuildingBlock: WUSLED_clean_sbu_0, # of connection points: 3
#     Node 34, Type 0, BuildingBlock: WUSLED_clean_sbu_0, # of connection points: 3
#     Node 35, Type 0, BuildingBlock: WUSLED_clean_sbu_0, # of connection points: 3
#     Node 36, Type 0, BuildingBlock: WUSLED_clean_sbu_0, # of connection points: 3
#     Node 37, Type 0, BuildingBlock: WUSLED_clean_sbu_0, # of connection points: 3
#     Node 38, Type 0, BuildingBlock: WUSLED_clean_sbu_0, # of connection points: 3
#     Node 39, Type 0, BuildingBlock: WUSLED_clean_sbu_0, # of connection points: 3
#     Node 40, Type 0, BuildingBlock: WUSLED_clean_sbu_0, # of connection points: 3
#     Node 41, Type 0, BuildingBlock: WUSLED_clean_sbu_0, # of connection points: 3
#     Node 42, Type 0, BuildingBlock: WUSLED_clean_sbu_0, # of connection points: 3
#     Node 43, Type 0, BuildingBlock: WUSLED_clean_sbu_0, # of connection points: 3
#     Node 44, Type 0, BuildingBlock: WUSLED_clean_sbu_0, # of connection points: 3
#     Node 45, Type 0, BuildingBlock: WUSLED_clean_sbu_0, # of connection points: 3
#     Node 46, Type 0, BuildingBlock: WUSLED_clean_sbu_0, # of connection points: 3
#     Node 47, Type 0, BuildingBlock: WUSLED_clean_sbu_0, # of connection points: 3
#     Node 48, Type 1, BuildingBlock: BETDAH_clean_linker_0, # of connection points: 3
#     Node 49, Type 1, BuildingBlock: BETDAH_clean_linker_0, # of connection points: 3
#     Node 50, Type 1, BuildingBlock: BETDAH_clean_linker_0, # of connection points: 3
#     Node 51, Type 1, BuildingBlock: BETDAH_clean_linker_0, # of connection points: 3
#     Node 52, Type 1, BuildingBlock: BETDAH_clean_linker_0, # of connection points: 3
#     Node 53, Type 1, BuildingBlock: BETDAH_clean_linker_0, # of connection points: 3
#     Node 54, Type 1, BuildingBlock: BETDAH_clean_linker_0, # of connection points: 3
#     Node 55, Type 1, BuildingBlock: BETDAH_clean_linker_0, # of connection points: 3
#     Node 56, Type 1, BuildingBlock: BETDAH_clean_linker_0, # of connection points: 3
#     Node 57, Type 1, BuildingBlock: BETDAH_clean_linker_0, # of connection points: 3
#     Node 58, Type 1, BuildingBlock: BETDAH_clean_linker_0, # of connection points: 3
#     Node 59, Type 1, BuildingBlock: BETDAH_clean_linker_0, # of connection points: 3
#     Node 60, Type 1, BuildingBlock: BETDAH_clean_linker_0, # of connection points: 3
#     Node 61, Type 1, BuildingBlock: BETDAH_clean_linker_0, # of connection points: 3
#     Node 62, Type 1, BuildingBlock: BETDAH_clean_linker_0, # of connection points: 3
#     Node 63, Type 1, BuildingBlock: BETDAH_clean_linker_0, # of connection points: 3
#     Node 64, Type 1, BuildingBlock: BETDAH_clean_linker_0, # of connection points: 3
#     Node 65, Type 1, BuildingBlock: BETDAH_clean_linker_0, # of connection points: 3
#     Node 66, Type 1, BuildingBlock: BETDAH_clean_linker_0, # of connection points: 3
#     Node 67, Type 1, BuildingBlock: BETDAH_clean_linker_0, # of connection points: 3
#     Node 68, Type 1, BuildingBlock: BETDAH_clean_linker_0, # of connection points: 3
#     Node 69, Type 1, BuildingBlock: BETDAH_clean_linker_0, # of connection points: 3
#     Node 70, Type 1, BuildingBlock: BETDAH_clean_linker_0, # of connection points: 3
#     Node 71, Type 1, BuildingBlock: BETDAH_clean_linker_0, # of connection points: 3
#     Node 72, Type 1, BuildingBlock: BETDAH_clean_linker_0, # of connection points: 3
#     Node 73, Type 1, BuildingBlock: BETDAH_clean_linker_0, # of connection points: 3
#     Node 74, Type 1, BuildingBlock: BETDAH_clean_linker_0, # of connection points: 3
#     Node 75, Type 1, BuildingBlock: BETDAH_clean_linker_0, # of connection points: 3
#     Node 76, Type 1, BuildingBlock: BETDAH_clean_linker_0, # of connection points: 3
#     Node 77, Type 1, BuildingBlock: BETDAH_clean_linker_0, # of connection points: 3
#     Node 78, Type 1, BuildingBlock: BETDAH_clean_linker_0, # of connection points: 3
#     Node 79, Type 1, BuildingBlock: BETDAH_clean_linker_0, # of connection points: 3
#     Node 80, Type 1, BuildingBlock: BETDAH_clean_linker_0, # of connection points: 3
#     Node 81, Type 1, BuildingBlock: BETDAH_clean_linker_0, # of connection points: 3
#     Node 82, Type 1, BuildingBlock: BETDAH_clean_linker_0, # of connection points: 3
#     Node 83, Type 1, BuildingBlock: BETDAH_clean_linker_0, # of connection points: 3
#     Node 84, Type 1, BuildingBlock: BETDAH_clean_linker_0, # of connection points: 3
#     Node 85, Type 1, BuildingBlock: BETDAH_clean_linker_0, # of connection points: 3
#     Node 86, Type 1, BuildingBlock: BETDAH_clean_linker_0, # of connection points: 3
#     Node 87, Type 1, BuildingBlock: BETDAH_clean_linker_0, # of connection points: 3
#     Node 88, Type 1, BuildingBlock: BETDAH_clean_linker_0, # of connection points: 3
#     Node 89, Type 1, BuildingBlock: BETDAH_clean_linker_0, # of connection points: 3
#     Node 90, Type 1, BuildingBlock: BETDAH_clean_linker_0, # of connection points: 3
#     Node 91, Type 1, BuildingBlock: BETDAH_clean_linker_0, # of connection points: 3
#     Node 92, Type 1, BuildingBlock: BETDAH_clean_linker_0, # of connection points: 3
#     Node 93, Type 1, BuildingBlock: BETDAH_clean_linker_0, # of connection points: 3
#     Node 94, Type 1, BuildingBlock: BETDAH_clean_linker_0, # of connection points: 3
#     Node 95, Type 1, BuildingBlock: BETDAH_clean_linker_0, # of connection points: 3
#     Edge 96, Type (0, 1), BuildingBlock: TEMPAE_clean_linker_10, # of connection points: 2
#     Edge 97, Type (0, 1), BuildingBlock: TEMPAE_clean_linker_10, # of connection points: 2
#     Edge 98, Type (0, 1), BuildingBlock: TEMPAE_clean_linker_10, # of connection points: 2
#     Edge 99, Type (0, 1), BuildingBlock: TEMPAE_clean_linker_10, # of connection points: 2
#     Edge 100, Type (0, 1), BuildingBlock: TEMPAE_clean_linker_10, # of connection points: 2
#     Edge 101, Type (0, 1), BuildingBlock: TEMPAE_clean_linker_10, # of connection points: 2
#     Edge 102, Type (0, 1), BuildingBlock: TEMPAE_clean_linker_10, # of connection points: 2
#     Edge 103, Type (0, 1), BuildingBlock: TEMPAE_clean_linker_10, # of connection points: 2
#     Edge 104, Type (0, 1), BuildingBlock: TEMPAE_clean_linker_10, # of connection points: 2
#     Edge 105, Type (0, 1), BuildingBlock: TEMPAE_clean_linker_10, # of connection points: 2
#     Edge 106, Type (0, 1), BuildingBlock: TEMPAE_clean_linker_10, # of connection points: 2
#     Edge 107, Type (0, 1), BuildingBlock: TEMPAE_clean_linker_10, # of connection points: 2
#     Edge 108, Type (0, 1), BuildingBlock: TEMPAE_clean_linker_10, # of connection points: 2
#     Edge 109, Type (0, 1), BuildingBlock: TEMPAE_clean_linker_10, # of connection points: 2
#     Edge 110, Type (0, 1), BuildingBlock: TEMPAE_clean_linker_10, # of connection points: 2
#     Edge 111, Type (0, 1), BuildingBlock: TEMPAE_clean_linker_10, # of connection points: 2
#     Edge 112, Type (0, 1), BuildingBlock: TEMPAE_clean_linker_10, # of connection points: 2
#     Edge 113, Type (0, 1), BuildingBlock: TEMPAE_clean_linker_10, # of connection points: 2
#     Edge 114, Type (0, 1), BuildingBlock: TEMPAE_clean_linker_10, # of connection points: 2
#     Edge 115, Type (0, 1), BuildingBlock: TEMPAE_clean_linker_10, # of connection points: 2
#     Edge 116, Type (0, 1), BuildingBlock: TEMPAE_clean_linker_10, # of connection points: 2
#     Edge 117, Type (0, 1), BuildingBlock: TEMPAE_clean_linker_10, # of connection points: 2
#     Edge 118, Type (0, 1), BuildingBlock: TEMPAE_clean_linker_10, # of connection points: 2
#     Edge 119, Type (0, 1), BuildingBlock: TEMPAE_clean_linker_10, # of connection points: 2
#     Edge 120, Type (0, 1), BuildingBlock: TEMPAE_clean_linker_10, # of connection points: 2
#     Edge 121, Type (0, 1), BuildingBlock: TEMPAE_clean_linker_10, # of connection points: 2
#     Edge 122, Type (0, 1), BuildingBlock: TEMPAE_clean_linker_10, # of connection points: 2
#     Edge 123, Type (0, 1), BuildingBlock: TEMPAE_clean_linker_10, # of connection points: 2
#     Edge 124, Type (0, 1), BuildingBlock: TEMPAE_clean_linker_10, # of connection points: 2
#     Edge 125, Type (0, 1), BuildingBlock: TEMPAE_clean_linker_10, # of connection points: 2
#     Edge 126, Type (0, 1), BuildingBlock: TEMPAE_clean_linker_10, # of connection points: 2
#     Edge 127, Type (0, 1), BuildingBlock: TEMPAE_clean_linker_10, # of connection points: 2
#     Edge 128, Type (0, 1), BuildingBlock: TEMPAE_clean_linker_10, # of connection points: 2
#     Edge 129, Type (0, 1), BuildingBlock: TEMPAE_clean_linker_10, # of connection points: 2
#     Edge 130, Type (0, 1), BuildingBlock: TEMPAE_clean_linker_10, # of connection points: 2
#     Edge 131, Type (0, 1), BuildingBlock: TEMPAE_clean_linker_10, # of connection points: 2
#     Edge 132, Type (0, 1), BuildingBlock: TEMPAE_clean_linker_10, # of connection points: 2
#     Edge 133, Type (0, 1), BuildingBlock: TEMPAE_clean_linker_10, # of connection points: 2
#     Edge 134, Type (0, 1), BuildingBlock: TEMPAE_clean_linker_10, # of connection points: 2
#     Edge 135, Type (0, 1), BuildingBlock: TEMPAE_clean_linker_10, # of connection points: 2
#     Edge 136, Type (0, 1), BuildingBlock: TEMPAE_clean_linker_10, # of connection points: 2
#     Edge 137, Type (0, 1), BuildingBlock: TEMPAE_clean_linker_10, # of connection points: 2
#     Edge 138, Type (0, 1), BuildingBlock: TEMPAE_clean_linker_10, # of connection points: 2
#     Edge 139, Type (0, 1), BuildingBlock: TEMPAE_clean_linker_10, # of connection points: 2
#     Edge 140, Type (0, 1), BuildingBlock: TEMPAE_clean_linker_10, # of connection points: 2
#     Edge 141, Type (0, 1), BuildingBlock: TEMPAE_clean_linker_10, # of connection points: 2
#     Edge 142, Type (0, 1), BuildingBlock: TEMPAE_clean_linker_10, # of connection points: 2
#     Edge 143, Type (0, 1), BuildingBlock: TEMPAE_clean_linker_10, # of connection points: 2
#     Edge 144, Type (0, 1), BuildingBlock: TEMPAE_clean_linker_10, # of connection points: 2
#     Edge 145, Type (0, 1), BuildingBlock: TEMPAE_clean_linker_10, # of connection points: 2
#     Edge 146, Type (0, 1), BuildingBlock: TEMPAE_clean_linker_10, # of connection points: 2
#     Edge 147, Type (0, 1), BuildingBlock: TEMPAE_clean_linker_10, # of connection points: 2
#     Edge 148, Type (0, 1), BuildingBlock: TEMPAE_clean_linker_10, # of connection points: 2
#     Edge 149, Type (0, 1), BuildingBlock: TEMPAE_clean_linker_10, # of connection points: 2
#     Edge 150, Type (0, 1), BuildingBlock: TEMPAE_clean_linker_10, # of connection points: 2
#     Edge 151, Type (0, 1), BuildingBlock: TEMPAE_clean_linker_10, # of connection points: 2
#     Edge 152, Type (0, 1), BuildingBlock: TEMPAE_clean_linker_10, # of connection points: 2
#     Edge 153, Type (0, 1), BuildingBlock: TEMPAE_clean_linker_10, # of connection points: 2
#     Edge 154, Type (0, 1), BuildingBlock: TEMPAE_clean_linker_10, # of connection points: 2
#     Edge 155, Type (0, 1), BuildingBlock: TEMPAE_clean_linker_10, # of connection points: 2
#     Edge 156, Type (0, 1), BuildingBlock: TEMPAE_clean_linker_10, # of connection points: 2
#     Edge 157, Type (0, 1), BuildingBlock: TEMPAE_clean_linker_10, # of connection points: 2
#     Edge 158, Type (0, 1), BuildingBlock: TEMPAE_clean_linker_10, # of connection points: 2
#     Edge 159, Type (0, 1), BuildingBlock: TEMPAE_clean_linker_10, # of connection points: 2
#     Edge 160, Type (0, 1), BuildingBlock: TEMPAE_clean_linker_10, # of connection points: 2
#     Edge 161, Type (0, 1), BuildingBlock: TEMPAE_clean_linker_10, # of connection points: 2
#     Edge 162, Type (0, 1), BuildingBlock: TEMPAE_clean_linker_10, # of connection points: 2
#     Edge 163, Type (0, 1), BuildingBlock: TEMPAE_clean_linker_10, # of connection points: 2
#     Edge 164, Type (0, 1), BuildingBlock: TEMPAE_clean_linker_10, # of connection points: 2
#     Edge 165, Type (0, 1), BuildingBlock: TEMPAE_clean_linker_10, # of connection points: 2
#     Edge 166, Type (0, 1), BuildingBlock: TEMPAE_clean_linker_10, # of connection points: 2
#     Edge 167, Type (0, 1), BuildingBlock: TEMPAE_clean_linker_10, # of connection points: 2
#     Edge 168, Type (0, 1), BuildingBlock: TEMPAE_clean_linker_10, # of connection points: 2
#     Edge 169, Type (0, 1), BuildingBlock: TEMPAE_clean_linker_10, # of connection points: 2
#     Edge 170, Type (0, 1), BuildingBlock: TEMPAE_clean_linker_10, # of connection points: 2
#     Edge 171, Type (0, 1), BuildingBlock: TEMPAE_clean_linker_10, # of connection points: 2
#     Edge 172, Type (0, 1), BuildingBlock: TEMPAE_clean_linker_10, # of connection points: 2
#     Edge 173, Type (0, 1), BuildingBlock: TEMPAE_clean_linker_10, # of connection points: 2
#     Edge 174, Type (0, 1), BuildingBlock: TEMPAE_clean_linker_10, # of connection points: 2
#     Edge 175, Type (0, 1), BuildingBlock: TEMPAE_clean_linker_10, # of connection points: 2
#     Edge 176, Type (0, 1), BuildingBlock: TEMPAE_clean_linker_10, # of connection points: 2
#     Edge 177, Type (0, 1), BuildingBlock: TEMPAE_clean_linker_10, # of connection points: 2
#     Edge 178, Type (0, 1), BuildingBlock: TEMPAE_clean_linker_10, # of connection points: 2
#     Edge 179, Type (0, 1), BuildingBlock: TEMPAE_clean_linker_10, # of connection points: 2
#     Edge 180, Type (0, 1), BuildingBlock: TEMPAE_clean_linker_10, # of connection points: 2
#     Edge 181, Type (0, 1), BuildingBlock: TEMPAE_clean_linker_10, # of connection points: 2
#     Edge 182, Type (0, 1), BuildingBlock: TEMPAE_clean_linker_10, # of connection points: 2
#     Edge 183, Type (0, 1), BuildingBlock: TEMPAE_clean_linker_10, # of connection points: 2
#     Edge 184, Type (0, 1), BuildingBlock: TEMPAE_clean_linker_10, # of connection points: 2
#     Edge 185, Type (0, 1), BuildingBlock: TEMPAE_clean_linker_10, # of connection points: 2
#     Edge 186, Type (0, 1), BuildingBlock: TEMPAE_clean_linker_10, # of connection points: 2
#     Edge 187, Type (0, 1), BuildingBlock: TEMPAE_clean_linker_10, # of connection points: 2
#     Edge 188, Type (0, 1), BuildingBlock: TEMPAE_clean_linker_10, # of connection points: 2
#     Edge 189, Type (0, 1), BuildingBlock: TEMPAE_clean_linker_10, # of connection points: 2
#     Edge 190, Type (0, 1), BuildingBlock: TEMPAE_clean_linker_10, # of connection points: 2
#     Edge 191, Type (0, 1), BuildingBlock: TEMPAE_clean_linker_10, # of connection points: 2
#     Edge 192, Type (0, 1), BuildingBlock: TEMPAE_clean_linker_10, # of connection points: 2
#     Edge 193, Type (0, 1), BuildingBlock: TEMPAE_clean_linker_10, # of connection points: 2
#     Edge 194, Type (0, 1), BuildingBlock: TEMPAE_clean_linker_10, # of connection points: 2
#     Edge 195, Type (0, 1), BuildingBlock: TEMPAE_clean_linker_10, # of connection points: 2
#     Edge 196, Type (0, 1), BuildingBlock: TEMPAE_clean_linker_10, # of connection points: 2
#     Edge 197, Type (0, 1), BuildingBlock: TEMPAE_clean_linker_10, # of connection points: 2
#     Edge 198, Type (0, 1), BuildingBlock: TEMPAE_clean_linker_10, # of connection points: 2
#     Edge 199, Type (0, 1), BuildingBlock: TEMPAE_clean_linker_10, # of connection points: 2
#     Edge 200, Type (0, 1), BuildingBlock: TEMPAE_clean_linker_10, # of connection points: 2
#     Edge 201, Type (0, 1), BuildingBlock: TEMPAE_clean_linker_10, # of connection points: 2
#     Edge 202, Type (0, 1), BuildingBlock: TEMPAE_clean_linker_10, # of connection points: 2
#     Edge 203, Type (0, 1), BuildingBlock: TEMPAE_clean_linker_10, # of connection points: 2
#     Edge 204, Type (0, 1), BuildingBlock: TEMPAE_clean_linker_10, # of connection points: 2
#     Edge 205, Type (0, 1), BuildingBlock: TEMPAE_clean_linker_10, # of connection points: 2
#     Edge 206, Type (0, 1), BuildingBlock: TEMPAE_clean_linker_10, # of connection points: 2
#     Edge 207, Type (0, 1), BuildingBlock: TEMPAE_clean_linker_10, # of connection points: 2
#     Edge 208, Type (0, 1), BuildingBlock: TEMPAE_clean_linker_10, # of connection points: 2
#     Edge 209, Type (0, 1), BuildingBlock: TEMPAE_clean_linker_10, # of connection points: 2
#     Edge 210, Type (0, 1), BuildingBlock: TEMPAE_clean_linker_10, # of connection points: 2
#     Edge 211, Type (0, 1), BuildingBlock: TEMPAE_clean_linker_10, # of connection points: 2
#     Edge 212, Type (0, 1), BuildingBlock: TEMPAE_clean_linker_10, # of connection points: 2
#     Edge 213, Type (0, 1), BuildingBlock: TEMPAE_clean_linker_10, # of connection points: 2
#     Edge 214, Type (0, 1), BuildingBlock: TEMPAE_clean_linker_10, # of connection points: 2
#     Edge 215, Type (0, 1), BuildingBlock: TEMPAE_clean_linker_10, # of connection points: 2
#     Edge 216, Type (0, 1), BuildingBlock: TEMPAE_clean_linker_10, # of connection points: 2
#     Edge 217, Type (0, 1), BuildingBlock: TEMPAE_clean_linker_10, # of connection points: 2
#     Edge 218, Type (0, 1), BuildingBlock: TEMPAE_clean_linker_10, # of connection points: 2
#     Edge 219, Type (0, 1), BuildingBlock: TEMPAE_clean_linker_10, # of connection points: 2
#     Edge 220, Type (0, 1), BuildingBlock: TEMPAE_clean_linker_10, # of connection points: 2
#     Edge 221, Type (0, 1), BuildingBlock: TEMPAE_clean_linker_10, # of connection points: 2
#     Edge 222, Type (0, 1), BuildingBlock: TEMPAE_clean_linker_10, # of connection points: 2
#     Edge 223, Type (0, 1), BuildingBlock: TEMPAE_clean_linker_10, # of connection points: 2
#     Edge 224, Type (0, 1), BuildingBlock: TEMPAE_clean_linker_10, # of connection points: 2
#     Edge 225, Type (0, 1), BuildingBlock: TEMPAE_clean_linker_10, # of connection points: 2
#     Edge 226, Type (0, 1), BuildingBlock: TEMPAE_clean_linker_10, # of connection points: 2
#     Edge 227, Type (0, 1), BuildingBlock: TEMPAE_clean_linker_10, # of connection points: 2
#     Edge 228, Type (0, 1), BuildingBlock: TEMPAE_clean_linker_10, # of connection points: 2
#     Edge 229, Type (0, 1), BuildingBlock: TEMPAE_clean_linker_10, # of connection points: 2
#     Edge 230, Type (0, 1), BuildingBlock: TEMPAE_clean_linker_10, # of connection points: 2
#     Edge 231, Type (0, 1), BuildingBlock: TEMPAE_clean_linker_10, # of connection points: 2
#     Edge 232, Type (0, 1), BuildingBlock: TEMPAE_clean_linker_10, # of connection points: 2
#     Edge 233, Type (0, 1), BuildingBlock: TEMPAE_clean_linker_10, # of connection points: 2
#     Edge 234, Type (0, 1), BuildingBlock: TEMPAE_clean_linker_10, # of connection points: 2
#     Edge 235, Type (0, 1), BuildingBlock: TEMPAE_clean_linker_10, # of connection points: 2
#     Edge 236, Type (0, 1), BuildingBlock: TEMPAE_clean_linker_10, # of connection points: 2
#     Edge 237, Type (0, 1), BuildingBlock: TEMPAE_clean_linker_10, # of connection points: 2
#     Edge 238, Type (0, 1), BuildingBlock: TEMPAE_clean_linker_10, # of connection points: 2
#     Edge 239, Type (0, 1), BuildingBlock: TEMPAE_clean_linker_10, # of connection points: 2
# Relax obj value: 0.037
# Max RMSD: 0.118
# Mean RMSD: 0.052
data_MOF--net-bpr--node1-WUSLED_clean_sbu_0--node2-BETDAH_clean_linker_0--edge1-TEMPAE_clean_linker_10
_symmetry_space_group_name_H-M    P1
_symmetry_Int_Tables_number       1
_symmetry_cell_setting            triclinic
loop_
_symmetry_equiv_pos_as_xyz
'x, y, z'
_cell_length_a     106.5571
_cell_length_b     96.295814
_cell_length_c     104.4075
_cell_angle_alpha  91.527524
_cell_angle_beta   87.957995
_cell_angle_gamma 112.893
loop_
_atom_site_label
_atom_site_type_symbol
_atom_site_fract_x
_atom_site_fract_y
_atom_site_fract_z
_atom_type_partial_charge
C0 C 0.03874 0.41756 0.31039 0.0
C1 C 0.03939 0.4174 0.32381 0.0
C2 C 0.01837 0.42198 0.32629 0.0
C3 C 0.0293 0.41954 0.33167 0.0
C4 C 0.01821 0.42283 0.31284 0.0
C5 C 0.02821 0.42056 0.30502 0.0
U6 U 0.07408 0.41721 0.30101 0.0
O7 O 0.0792 0.39876 0.29276 0.0
O8 O 0.08455 0.41971 0.28203 0.0
C9 C 0.08456 0.40606 0.28217 0.0
C10 C 0.04831 0.41371 0.30176 0.0
C11 C 0.08183 0.39724 0.27003 0.0
C12 C 0.06768 0.37628 0.25657 0.0
C13 C 0.06911 0.38579 0.26736 0.0
C14 C 0.09148 0.38995 0.25081 0.0
C15 C 0.079 0.37798 0.24841 0.0
C16 C 0.09286 0.39944 0.26148 0.0
C17 C 0.10345 0.43665 0.32489 0.0
C18 C 0.12719 0.43949 0.32301 0.0
C19 C 0.11841 0.44623 0.34289 0.0
C20 C 0.10568 0.44228 0.33748 0.0
C21 C 0.12926 0.44474 0.3358 0.0
C22 C 0.11431 0.43535 0.3176 0.0
C23 C 0.08956 0.43194 0.32 0.0
O24 O 0.05795 0.42498 0.29591 0.0
O25 O 0.05262 0.40362 0.30595 0.0
O26 O 0.08205 0.41742 0.3202 0.0
O27 O 0.0881 0.43852 0.30962 0.0
H28 H 0.04747 0.4152 0.32821 0.0
H29 H 0.02981 0.41869 0.34194 0.0
H30 H 0.01024 0.42509 0.30829 0.0
H31 H 0.02753 0.42084 0.29471 0.0
H32 H 0.05793 0.36717 0.25496 0.0
H33 H 0.06044 0.38388 0.27383 0.0
H34 H 0.10032 0.39176 0.2446 0.0
H35 H 0.10276 0.4082 0.26333 0.0
H36 H 0.13541 0.43819 0.31737 0.0
H37 H 0.11977 0.45039 0.3527 0.0
H38 H 0.09746 0.44343 0.34323 0.0
H39 H 0.11277 0.431 0.30786 0.0
C40 C 0.80439 0.69368 0.5439 0.0
C41 C 0.81021 0.69546 0.55601 0.0
C42 C 0.80498 0.66835 0.55672 0.0
C43 C 0.8105 0.6829 0.56237 0.0
C44 C 0.7991 0.66677 0.54462 0.0
C45 C 0.79879 0.67926 0.53834 0.0
U46 U 0.81066 0.73581 0.53855 0.0
O47 O 0.81833 0.74903 0.52107 0.0
O48 O 0.79758 0.74463 0.52833 0.0
C49 C 0.80667 0.75016 0.51902 0.0
C50 C 0.80423 0.70653 0.5366 0.0
C51 C 0.80167 0.7469 0.5058 0.0
C52 C 0.80024 0.73415 0.48511 0.0
C53 C 0.80389 0.73591 0.49801 0.0
C54 C 0.7915 0.75381 0.4878 0.0
C55 C 0.79421 0.74328 0.47975 0.0
C56 C 0.79525 0.75564 0.50064 0.0
C57 C 0.8263 0.76585 0.56548 0.0
C58 C 0.83969 0.79291 0.56443 0.0
C59 C 0.83063 0.78138 0.58487 0.0
C60 C 0.8247 0.76733 0.57876 0.0
C61 C 0.83837 0.79429 0.57783 0.0
C62 C 0.83364 0.7788 0.55829 0.0
C63 C 0.8211 0.75051 0.55974 0.0
O64 O 0.7956 0.7125 0.54068 0.0
O65 O 0.81613 0.71663 0.53295 0.0
O66 O 0.82845 0.74793 0.55031 0.0
O67 O 0.80791 0.74411 0.55794 0.0
H68 H 0.81459 0.70653 0.56048 0.0
H69 H 0.815 0.68457 0.57171 0.0
H70 H 0.79501 0.65589 0.5398 0.0
H71 H 0.7943 0.67766 0.52898 0.0
H72 H 0.80261 0.72599 0.47925 0.0
H73 H 0.80878 0.72897 0.50179 0.0
H74 H 0.78659 0.7608 0.48417 0.0
H75 H 0.79337 0.76413 0.5065 0.0
H76 H 0.84551 0.80269 0.55875 0.0
H77 H 0.82956 0.78202 0.5952 0.0
H78 H 0.81917 0.7575 0.5845 0.0
H79 H 0.83497 0.77795 0.548 0.0
C80 C 0.48981 0.65504 0.78738 0.0
C81 C 0.47609 0.64738 0.7841 0.0
C82 C 0.48059 0.65973 0.76321 0.0
C83 C 0.47154 0.64969 0.77215 0.0
C84 C 0.49421 0.66765 0.76678 0.0
C85 C 0.49873 0.6653 0.77865 0.0
U86 U 0.4862 0.64437 0.82319 0.0
O87 O 0.49454 0.63039 0.83367 0.0
O88 O 0.50029 0.65423 0.83904 0.0
C89 C 0.50161 0.64152 0.84135 0.0
C90 C 0.49524 0.65232 0.79958 0.0
C91 C 0.51508 0.64228 0.84541 0.0
C92 C 0.53931 0.64751 0.84201 0.0
C93 C 0.52686 0.64712 0.83743 0.0
C94 C 0.52828 0.63829 0.86249 0.0
C95 C 0.54014 0.64296 0.85461 0.0
C96 C 0.51598 0.63796 0.85795 0.0
C97 C 0.4493 0.63466 0.83823 0.0
C98 C 0.43792 0.62147 0.85763 0.0
C99 C 0.42615 0.63199 0.84385 0.0
C100 C 0.43766 0.63742 0.83572 0.0
C101 C 0.42601 0.62369 0.85474 0.0
C102 C 0.44948 0.62684 0.84936 0.0
C103 C 0.46041 0.63916 0.82841 0.0
O104 O 0.49635 0.66209 0.80895 0.0
O105 O 0.49062 0.63832 0.80353 0.0
O106 O 0.46467 0.62874 0.82413 0.0
O107 O 0.47027 0.65253 0.82963 0.0
H108 H 0.46895 0.63945 0.79068 0.0
H109 H 0.461 0.64332 0.7698 0.0
H110 H 0.50144 0.67575 0.76038 0.0
H111 H 0.50932 0.67144 0.78098 0.0
H112 H 0.54821 0.65113 0.83565 0.0
H113 H 0.52643 0.65054 0.82771 0.0
H114 H 0.52852 0.635 0.87228 0.0
H115 H 0.50707 0.63429 0.86432 0.0
H116 H 0.4381 0.61513 0.86598 0.0
H117 H 0.41724 0.6341 0.84148 0.0
H118 H 0.43731 0.64346 0.82721 0.0
H119 H 0.45838 0.62458 0.85147 0.0
C120 C 0.66407 0.32188 0.02192 0.0
C121 C 0.65802 0.31762 0.03417 0.0
C122 C 0.66723 0.34401 0.04144 0.0
C123 C 0.65952 0.32864 0.04384 0.0
C124 C 0.67298 0.34814 0.02911 0.0
C125 C 0.67136 0.33724 0.01948 0.0
U126 U 0.6582 0.28207 0.00679 0.0
O127 O 0.65113 0.27345 0.98736 0.0
O128 O 0.67174 0.27666 0.99292 0.0
C129 C 0.66274 0.27249 0.98384 0.0
C130 C 0.6636 0.31087 0.01151 0.0
C131 C 0.66797 0.27656 0.97053 0.0
C132 C 0.68075 0.2946 0.95411 0.0
C133 C 0.67478 0.29154 0.96653 0.0
C134 C 0.67279 0.26783 0.94951 0.0
C135 C 0.67991 0.28273 0.94556 0.0
C136 C 0.66692 0.2648 0.96185 0.0
C137 C 0.64569 0.24605 0.0277 0.0
C138 C 0.64913 0.2227 0.02364 0.0
C139 C 0.63531 0.2247 0.04194 0.0
C140 C 0.63748 0.23942 0.03845 0.0
C141 C 0.64133 0.21622 0.03475 0.0
C142 C 0.65128 0.23746 0.02014 0.0
C143 C 0.64917 0.26226 0.02534 0.0
O144 O 0.67275 0.30487 0.01183 0.0
O145 O 0.6516 0.30119 0.00796 0.0
O146 O 0.64105 0.26569 0.01799 0.0
O147 O 0.66212 0.27053 0.02312 0.0
H148 H 0.65238 0.30583 0.03631 0.0
H149 H 0.65503 0.32514 0.05329 0.0
H150 H 0.6789 0.35988 0.02696 0.0
H151 H 0.67606 0.34082 0.01012 0.0
H152 H 0.6862 0.30619 0.95125 0.0
H153 H 0.67576 0.3008 0.97307 0.0
H154 H 0.6721 0.25851 0.94313 0.0
H155 H 0.66182 0.25316 0.96474 0.0
H156 H 0.65376 0.21643 0.01777 0.0
H157 H 0.62938 0.22021 0.05061 0.0
H158 H 0.63312 0.24585 0.04445 0.0
H159 H 0.6576 0.24231 0.01176 0.0
C160 C 0.16158 0.76151 0.17545 0.0
C161 C 0.15624 0.75121 0.16532 0.0
C162 C 0.13423 0.75346 0.16829 0.0
C163 C 0.14268 0.74725 0.16175 0.0
C164 C 0.13985 0.76406 0.17821 0.0
C165 C 0.15336 0.76806 0.18169 0.0
U166 U 0.19743 0.76025 0.174 0.0
O167 O 0.21674 0.77704 0.18115 0.0
O168 O 0.20808 0.75438 0.18927 0.0
C169 C 0.2176 0.76803 0.19001 0.0
C170 C 0.17521 0.76473 0.18045 0.0
C171 C 0.22039 0.77444 0.20306 0.0
C172 C 0.21283 0.78182 0.22343 0.0
C173 C 0.21031 0.77699 0.21064 0.0
C174 C 0.23564 0.78211 0.221 0.0
C175 C 0.22548 0.78429 0.2287 0.0
C176 C 0.23309 0.77718 0.20827 0.0
C177 C 0.20753 0.7409 0.14453 0.0
C178 C 0.22468 0.73 0.1431 0.0
C179 C 0.21093 0.72879 0.1248 0.0
C180 C 0.20434 0.73667 0.13176 0.0
C181 C 0.22099 0.72502 0.13043 0.0
C182 C 0.21797 0.73785 0.15012 0.0
C183 C 0.19872 0.74689 0.15202 0.0
O184 O 0.17746 0.75292 0.18395 0.0
O185 O 0.18565 0.77472 0.17426 0.0
O186 O 0.203 0.76161 0.15336 0.0
O187 O 0.19305 0.73957 0.16252 0.0
H188 H 0.16246 0.74603 0.16037 0.0
H189 H 0.13881 0.73924 0.15393 0.0
H190 H 0.13369 0.76894 0.18364 0.0
H191 H 0.15726 0.77596 0.18957 0.0
H192 H 0.20486 0.78339 0.22926 0.0
H193 H 0.20043 0.77489 0.20677 0.0
H194 H 0.2454 0.7838 0.22495 0.0
H195 H 0.24094 0.77517 0.20258 0.0
H196 H 0.23249 0.7275 0.14771 0.0
H197 H 0.20756 0.72495 0.1152 0.0
H198 H 0.19626 0.73883 0.12732 0.0
H199 H 0.22058 0.74106 0.16 0.0
C200 C 0.59603 0.6462 0.53352 0.0
C201 C 0.59336 0.64219 0.52055 0.0
C202 C 0.61461 0.638 0.51801 0.0
C203 C 0.60252 0.63805 0.51289 0.0
C204 C 0.61695 0.64174 0.5311 0.0
C205 C 0.60776 0.64569 0.53872 0.0
U206 U 0.56654 0.65986 0.53964 0.0
O207 O 0.55359 0.65825 0.55706 0.0
O208 O 0.5671 0.68039 0.54977 0.0
C209 C 0.55813 0.67297 0.55865 0.0
C210 C 0.58751 0.65211 0.54166 0.0
C211 C 0.56053 0.67928 0.57185 0.0
C212 C 0.57483 0.689 0.5904 0.0
C213 C 0.57226 0.6811 0.57859 0.0
C214 C 0.55384 0.69292 0.58896 0.0
C215 C 0.56579 0.69533 0.59562 0.0
C216 C 0.55126 0.68498 0.57728 0.0
C217 C 0.54383 0.65932 0.51115 0.0
C218 C 0.53312 0.67673 0.50639 0.0
C219 C 0.52921 0.65471 0.49284 0.0
C220 C 0.53734 0.65031 0.50067 0.0
C221 C 0.5274 0.66824 0.49534 0.0
C222 C 0.5413 0.67231 0.51423 0.0
C223 C 0.55445 0.65594 0.51753 0.0
O224 O 0.58866 0.66582 0.53906 0.0
O225 O 0.57487 0.64289 0.54423 0.0
O226 O 0.55045 0.64577 0.52657 0.0
O227 O 0.56559 0.66762 0.52029 0.0
H228 H 0.58436 0.64255 0.51631 0.0
H229 H 0.60017 0.63503 0.50294 0.0
H230 H 0.62618 0.64224 0.53546 0.0
H231 H 0.61007 0.64884 0.54866 0.0
H232 H 0.58403 0.69038 0.59531 0.0
H233 H 0.57957 0.67679 0.57458 0.0
H234 H 0.54671 0.69774 0.59245 0.0
H235 H 0.5422 0.68382 0.57221 0.0
H236 H 0.53198 0.68725 0.50854 0.0
H237 H 0.52478 0.64784 0.48451 0.0
H238 H 0.53912 0.64023 0.49815 0.0
H239 H 0.5462 0.67944 0.52229 0.0
C240 C 0.3784 0.23556 0.66308 0.0
C241 C 0.38458 0.24373 0.65202 0.0
C242 C 0.40403 0.23661 0.65413 0.0
C243 C 0.39735 0.24422 0.64754 0.0
C244 C 0.39744 0.22809 0.66493 0.0
C245 C 0.38477 0.2275 0.66926 0.0
U246 U 0.34485 0.24321 0.66873 0.0
O247 O 0.34217 0.25647 0.68548 0.0
O248 O 0.3293 0.23199 0.68362 0.0
C249 C 0.33289 0.24438 0.69069 0.0
C250 C 0.36662 0.23697 0.6698 0.0
C251 C 0.32609 0.24469 0.70317 0.0
C252 C 0.31634 0.23272 0.72342 0.0
C253 C 0.3214 0.23193 0.71099 0.0
C254 C 0.32067 0.25905 0.72039 0.0
C255 C 0.31613 0.24637 0.72831 0.0
C256 C 0.32566 0.25824 0.70797 0.0
C257 C 0.33122 0.25446 0.63653 0.0
C258 C 0.31403 0.26276 0.62885 0.0
C259 C 0.33253 0.26288 0.61466 0.0
C260 C 0.3376 0.2571 0.62439 0.0
C261 C 0.32069 0.2659 0.61669 0.0
C262 C 0.31939 0.25732 0.63873 0.0
C263 C 0.33801 0.24971 0.64655 0.0
O264 O 0.36682 0.25063 0.67116 0.0
O265 O 0.35444 0.22654 0.66784 0.0
O266 O 0.34643 0.25994 0.65415 0.0
O267 O 0.33251 0.23607 0.65133 0.0
H268 H 0.37981 0.25013 0.64717 0.0
H269 H 0.4021 0.25076 0.63914 0.0
H270 H 0.40233 0.22235 0.67046 0.0
H271 H 0.38026 0.22135 0.67793 0.0
H272 H 0.3131 0.22283 0.72938 0.0
H273 H 0.32211 0.2215 0.70766 0.0
H274 H 0.32055 0.2697 0.72388 0.0
H275 H 0.32942 0.2683 0.70221 0.0
H276 H 0.3048 0.26472 0.63083 0.0
H277 H 0.33831 0.26553 0.60569 0.0
H278 H 0.34687 0.25516 0.62254 0.0
H279 H 0.31443 0.25563 0.64806 0.0
C280 C 0.93817 0.29438 0.0365 0.0
C281 C 0.94507 0.28499 0.03291 0.0
C282 C 0.94412 0.27712 0.0551 0.0
C283 C 0.94796 0.27637 0.04215 0.0
C284 C 0.93767 0.2869 0.05871 0.0
C285 C 0.9347 0.29541 0.0495 0.0
U286 U 0.93802 0.31161 1.00303 0.0
O287 O 0.92013 0.31007 0.99225 0.0
O288 O 0.93457 0.3322 0.99883 0.0
C289 C 0.92321 0.32467 0.99285 0.0
C290 C 0.93347 0.30227 0.02693 0.0
C291 C 0.91181 0.32976 0.99472 0.0
C292 C 0.89052 0.32873 1.00502 0.0
C293 C 0.9019 0.32466 1.00468 0.0
C294 C 0.89912 0.34322 0.98574 0.0
C295 C 0.88886 0.33774 0.99532 0.0
C296 C 0.91042 0.33929 0.98547 0.0
C297 C 0.96406 0.30984 0.97597 0.0
C298 C 0.96483 0.3149 0.95308 0.0
C299 C 0.98206 0.30773 0.96197 0.0
C300 C 0.97593 0.30696 0.97416 0.0
C301 C 0.9765 0.31145 0.95118 0.0
C302 C 0.95862 0.31404 0.96536 0.0
C303 C 0.95742 0.30755 0.98893 0.0
O304 O 0.94187 0.31592 0.02372 0.0
O305 O 0.927 0.29414 0.01711 0.0
O306 O 0.94486 0.29748 0.98992 0.0
O307 O 0.9595 0.31958 0.99616 0.0
H308 H 0.94785 0.28399 0.02295 0.0
H309 H 0.95291 0.26884 0.03916 0.0
H310 H 0.9345 0.28754 0.06861 0.0
H311 H 0.92931 0.3025 0.05248 0.0
H312 H 0.88278 0.32435 0.01252 0.0
H313 H 0.90277 0.31728 0.01193 0.0
H314 H 0.89827 0.35036 0.97826 0.0
H315 H 0.91794 0.34337 0.97773 0.0
H316 H 0.96022 0.31772 0.945 0.0
H317 H 0.99112 0.30523 0.96097 0.0
H318 H 0.98034 0.30376 0.98219 0.0
H319 H 0.94946 0.31632 0.9665 0.0
C320 C 0.23324 0.04588 0.4182 0.0
C321 C 0.23866 0.06163 0.41682 0.0
C322 C 0.21576 0.06136 0.4142 0.0
C323 C 0.23002 0.06929 0.41486 0.0
C324 C 0.21052 0.04555 0.41536 0.0
C325 C 0.21913 0.03797 0.41739 0.0
U326 U 0.26711 0.03958 0.41614 0.0
O327 O 0.27602 0.02954 0.43024 0.0
O328 O 0.27066 0.01895 0.41121 0.0
C329 C 0.27567 0.01845 0.42243 0.0
C330 C 0.24188 0.03732 0.42065 0.0
C331 C 0.27291 1.00335 0.42778 0.0
C332 C 0.26346 0.98362 0.44383 0.0
C333 C 0.26462 0.99754 0.43876 0.0
C334 C 0.2787 0.9812 0.427 0.0
C335 C 0.27052 0.97528 0.43798 0.0
C336 C 0.27985 0.99498 0.422 0.0
C337 C 0.29784 0.07094 0.39834 0.0
C338 C 0.32045 0.07175 0.39232 0.0
C339 C 0.31397 0.09215 0.38647 0.0
C340 C 0.30121 0.08485 0.39242 0.0
C341 C 0.32383 0.08577 0.38632 0.0
C342 C 0.30755 0.06438 0.39828 0.0
C343 C 0.28394 0.06358 0.40396 0.0
O344 O 0.24561 0.03127 0.41055 0.0
O345 O 0.25169 0.04327 0.42887 0.0
O346 O 0.28262 0.06286 0.41652 0.0
O347 O 0.27576 0.05131 0.39812 0.0
H348 H 0.24954 0.06802 0.41736 0.0
H349 H 0.2345 0.08144 0.41413 0.0
H350 H 0.19972 0.03892 0.4146 0.0
H351 H 0.2147 0.02583 0.41834 0.0
H352 H 0.25704 0.97938 0.45228 0.0
H353 H 0.25921 1.0038 0.44347 0.0
H354 H 0.28452 0.97534 0.42238 0.0
H355 H 0.28648 0.99929 0.41367 0.0
H356 H 0.32779 0.06653 0.39249 0.0
H357 H 0.31599 0.10271 0.38174 0.0
H358 H 0.29383 0.09004 0.39225 0.0
H359 H 0.30513 0.0536 0.40277 0.0
C360 C 0.31714 0.09696 0.67555 0.0
C361 C 0.30525 0.09788 0.67093 0.0
C362 C 0.29385 0.0703 0.67023 0.0
C363 C 0.29375 0.08472 0.66829 0.0
C364 C 0.3055 0.06958 0.67569 0.0
C365 C 0.31699 0.0827 0.67822 0.0
U366 U 0.33854 0.13975 0.68016 0.0
O367 O 0.35873 0.15172 0.68878 0.0
O368 O 0.35597 0.15464 0.66847 0.0
C369 C 0.3645 0.15814 0.67795 0.0
C370 C 0.33019 0.11039 0.67636 0.0
C371 C 0.37875 0.1597 0.67479 0.0
C372 C 0.39547 0.15081 0.66486 0.0
C373 C 0.38195 0.14812 0.66896 0.0
C374 C 0.40278 0.17652 0.67266 0.0
C375 C 0.4061 0.16516 0.66644 0.0
C376 C 0.38936 0.1738 0.67677 0.0
C377 C 0.31697 0.16453 0.68682 0.0
C378 C 0.32185 0.19055 0.68129 0.0
C379 C 0.30008 0.17546 0.69127 0.0
C380 C 0.30417 0.16331 0.69182 0.0
C381 C 0.3087 0.18901 0.68558 0.0
C382 C 0.32598 0.17842 0.68194 0.0
C383 C 0.31962 0.15062 0.68507 0.0
O384 O 0.33281 0.12015 0.66708 0.0
O385 O 0.33358 0.11685 0.68768 0.0
O386 O 0.32599 0.14694 0.69411 0.0
O387 O 0.32345 0.14802 0.67346 0.0
H388 H 0.30503 0.10875 0.66886 0.0
H389 H 0.28505 0.08588 0.66413 0.0
H390 H 0.30592 0.05881 0.67775 0.0
H391 H 0.32597 0.08167 0.68188 0.0
H392 H 0.39753 0.14166 0.6603 0.0
H393 H 0.37398 0.13713 0.66729 0.0
H394 H 0.41045 0.18779 0.67389 0.0
H395 H 0.38717 0.18298 0.68114 0.0
H396 H 0.32869 0.20094 0.67692 0.0
H397 H 0.28988 0.17394 0.69455 0.0
H398 H 0.29701 0.15267 0.69553 0.0
H399 H 0.3359 0.17963 0.67802 0.0
C400 C 0.25552 0.00922 0.87396 0.0
C401 C 0.24177 0.00581 0.8774 0.0
C402 C 0.24653 0.03263 0.88098 0.0
C403 C 0.23731 0.01741 0.88085 0.0
C404 C 0.26014 0.03593 0.87701 0.0
C405 C 0.26455 0.02438 0.87356 0.0
U406 U 0.25312 0.9684 0.86604 0.0
O407 O 0.2677 0.96116 0.85502 0.0
O408 O 0.26351 0.9558 0.87545 0.0
C409 C 0.27025 0.95467 0.86496 0.0
C410 C 0.26106 0.99737 0.87173 0.0
C411 C 0.28424 0.95521 0.86633 0.0
C412 C 0.30736 0.96624 0.87438 0.0
C413 C 0.29478 0.9673 0.87216 0.0
C414 C 0.29906 0.94132 0.86468 0.0
C415 C 0.30951 0.95302 0.87096 0.0
C416 C 0.28664 0.94241 0.86242 0.0
C417 C 0.21754 0.93665 0.85928 0.0
C418 C 0.21107 0.90942 0.85959 0.0
C419 C 0.19424 0.91957 0.85499 0.0
C420 C 0.20417 0.93421 0.85611 0.0
C421 C 0.19744 0.9069 0.85693 0.0
C422 C 0.22101 0.92414 0.8608 0.0
C423 C 0.22715 0.9523 0.86195 0.0
O424 O 0.25774 0.98676 0.88037 0.0
O425 O 0.26099 0.99218 0.85994 0.0
O426 O 0.23598 0.95926 0.85279 0.0
O427 O 0.23243 0.95493 0.87337 0.0
H428 H 0.23459 0.99419 0.87778 0.0
H429 H 0.22677 0.0144 0.88389 0.0
H430 H 0.26747 0.04748 0.87673 0.0
H431 H 0.27519 0.0273 0.8709 0.0
H432 H 0.31519 0.97549 0.87923 0.0
H433 H 0.29316 0.97731 0.87527 0.0
H434 H 0.30039 0.93112 0.86165 0.0
H435 H 0.27869 0.93296 0.85789 0.0
H436 H 0.21404 0.90002 0.86092 0.0
H437 H 0.18391 0.91827 0.85313 0.0
H438 H 0.20125 0.94369 0.85494 0.0
H439 H 0.23129 0.92576 0.86321 0.0
C440 C 0.17853 0.86071 0.13424 0.0
C441 C 0.17593 0.84729 0.1408 0.0
C442 C 0.15151 0.84057 0.13934 0.0
C443 C 0.16252 0.8373 0.14336 0.0
C444 C 0.15425 0.85403 0.1327 0.0
C445 C 0.16764 0.86402 0.13023 0.0
U446 U 0.21636 0.87043 0.13539 0.0
O447 O 0.23304 0.88165 0.12153 0.0
O448 O 0.23318 0.89159 0.14077 0.0
C449 C 0.23899 0.89317 0.12929 0.0
C450 C 0.19253 0.87133 0.13159 0.0
C451 C 0.24349 0.90828 0.1237 0.0
C452 C 0.24114 0.92607 0.10875 0.0
C453 C 0.23578 0.91199 0.11474 0.0
C454 C 0.2616 0.93296 0.12105 0.0
C455 C 0.25429 0.93651 0.11161 0.0
C456 C 0.25626 0.919 0.12701 0.0
C457 C 0.22647 0.8399 0.15028 0.0
C458 C 0.2485 0.83782 0.14934 0.0
C459 C 0.23036 0.8215 0.16325 0.0
C460 C 0.22183 0.82837 0.15929 0.0
C461 C 0.24373 0.82594 0.15818 0.0
C462 C 0.23993 0.84477 0.14542 0.0
C463 C 0.21684 0.84619 0.14593 0.0
O464 O 0.19967 0.87719 0.1418 0.0
O465 O 0.19928 0.86689 0.12273 0.0
O466 O 0.21635 0.84763 0.13349 0.0
O467 O 0.21628 0.8577 0.15262 0.0
H468 H 0.18428 0.84458 0.14396 0.0
H469 H 0.16079 0.82711 0.14856 0.0
H470 H 0.14605 0.85675 0.12919 0.0
H471 H 0.16949 0.8743 0.12511 0.0
H472 H 0.23528 0.92855 0.10154 0.0
H473 H 0.22582 0.90389 0.11214 0.0
H474 H 0.27164 0.94089 0.12362 0.0
H475 H 0.2623 0.9164 0.13398 0.0
H476 H 0.2587 0.84144 0.14516 0.0
H477 H 0.22643 0.81262 0.17025 0.0
H478 H 0.21149 0.82454 0.16318 0.0
H479 H 0.2437 0.85371 0.13846 0.0
C480 C 0.313 0.20115 0.0179 0.0
C481 C 0.31352 0.19926 0.03113 0.0
C482 C 0.31392 0.17422 0.02729 0.0
C483 C 0.31393 0.18588 0.03579 0.0
C484 C 0.31361 0.17643 0.01404 0.0
C485 C 0.31306 0.18966 0.00944 0.0
U486 U 0.31725 0.2432 0.01808 0.0
O487 O 0.32498 0.25937 1.00242 0.0
O488 O 0.30379 0.25266 0.00937 0.0
C489 C 0.31306 0.26002 1.00068 0.0
C490 C 0.31225 0.21478 0.01246 0.0
C491 C 0.3086 0.25812 0.98732 0.0
C492 C 0.30617 0.24566 0.96645 0.0
C493 C 0.3094 0.24645 0.97941 0.0
C494 C 0.30083 0.26783 0.96932 0.0
C495 C 0.30202 0.25647 0.96122 0.0
C496 C 0.30411 0.26864 0.98224 0.0
C497 C 0.33108 0.26894 0.04796 0.0
C498 C 0.34127 0.29637 0.04955 0.0
C499 C 0.33584 0.28144 0.06879 0.0
C500 C 0.33081 0.26827 0.06134 0.0
C501 C 0.34125 0.29568 0.06303 0.0
C502 C 0.3362 0.2831 0.04206 0.0
C503 C 0.32667 0.25463 0.04058 0.0
O504 O 0.30306 0.21939 0.01758 0.0
O505 O 0.32394 0.22586 0.00978 0.0
O506 O 0.33452 0.25404 0.03075 0.0
O507 O 0.31359 0.248 0.03833 0.0
H508 H 0.31351 0.20804 0.03783 0.0
H509 H 0.31405 0.18463 0.04605 0.0
H510 H 0.31398 0.16803 0.00711 0.0
H511 H 0.31272 0.19093 0.99919 0.0
H512 H 0.30702 0.23667 0.96049 0.0
H513 H 0.31278 0.23816 0.98318 0.0
H514 H 0.29781 0.27642 0.96558 0.0
H515 H 0.30344 0.27773 0.9882 0.0
H516 H 0.34525 0.30715 0.0448 0.0
H517 H 0.33587 0.2804 0.07909 0.0
H518 H 0.32698 0.25747 0.06607 0.0
H519 H 0.33648 0.28388 0.03172 0.0
C520 C 0.88562 0.74661 0.17274 0.0
C521 C 0.89275 0.74959 0.16096 0.0
C522 C 0.91121 0.74432 0.16984 0.0
C523 C 0.90538 0.74851 0.15952 0.0
C524 C 0.90405 0.74134 0.18175 0.0
C525 C 0.89129 0.74246 0.18319 0.0
U526 U 0.85185 0.74802 0.1882 0.0
O527 O 0.84467 0.73122 0.20369 0.0
O528 O 0.8569 0.75495 0.20819 0.0
C529 C 0.84942 0.74156 0.21273 0.0
C530 C 0.87256 0.74846 0.17356 0.0
C531 C 0.8401 0.74116 0.22382 0.0
C532 C 0.82763 0.72846 0.24304 0.0
C533 C 0.83481 0.7283 0.23153 0.0
C534 C 0.83036 0.75412 0.23908 0.0
C535 C 0.82571 0.74155 0.24713 0.0
C536 C 0.8374 0.75391 0.22753 0.0
C537 C 0.83058 0.76066 0.16538 0.0
C538 C 0.81492 0.76687 0.15266 0.0
C539 C 0.83788 0.77221 0.14451 0.0
C540 C 0.8406 0.76603 0.1556 0.0
C541 C 0.82506 0.77301 0.14303 0.0
C542 C 0.81775 0.76101 0.16376 0.0
C543 C 0.83334 0.75548 0.17771 0.0
O544 O 0.86139 0.7363 0.17521 0.0
O545 O 0.87235 0.76034 0.17991 0.0
O546 O 0.83255 0.74153 0.17803 0.0
O547 O 0.84367 0.76507 0.184 0.0
H548 H 0.88859 0.75294 0.15283 0.0
H549 H 0.9107 0.75124 0.15031 0.0
H550 H 0.90825 0.73806 0.18988 0.0
H551 H 0.88592 0.74017 0.19239 0.0
H552 H 0.82419 0.71861 0.24906 0.0
H553 H 0.8367 0.71831 0.22891 0.0
H554 H 0.82886 0.76429 0.24191 0.0
H555 H 0.84113 0.76395 0.22174 0.0
H556 H 0.80483 0.76689 0.15178 0.0
H557 H 0.84597 0.7769 0.13738 0.0
H558 H 0.85061 0.76587 0.15671 0.0
H559 H 0.80999 0.75713 0.17128 0.0
C560 C 0.16321 0.81996 0.52676 0.0
C561 C 0.16237 0.817 0.53996 0.0
C562 C 0.16637 0.84339 0.54516 0.0
C563 C 0.16386 0.82859 0.54907 0.0
C564 C 0.16663 0.84603 0.53194 0.0
C565 C 0.16507 0.83449 0.5229 0.0
U566 U 0.1585 0.78008 0.512 0.0
O567 O 0.15266 0.77197 0.4922 0.0
O568 O 0.17289 0.77503 0.49887 0.0
C569 C 0.16446 0.77111 0.48931 0.0
C570 C 0.16347 0.80882 0.51671 0.0
C571 C 0.17044 0.77523 0.4762 0.0
C572 C 0.17846 0.79207 0.45789 0.0
C573 C 0.17264 0.78904 0.4704 0.0
C574 C 0.17992 0.76763 0.45698 0.0
C575 C 0.18215 0.78133 0.45096 0.0
C576 C 0.17412 0.76463 0.46933 0.0
C577 C 0.14499 0.74376 0.53301 0.0
C578 C 0.14939 0.72073 0.53071 0.0
C579 C 0.13371 0.72261 0.54734 0.0
C580 C 0.1359 0.73715 0.54327 0.0
C581 C 0.14067 0.71434 0.54132 0.0
C582 C 0.15148 0.73527 0.52655 0.0
C583 C 0.14853 0.75995 0.53028 0.0
O584 O 0.17253 0.80281 0.51785 0.0
O585 O 0.15177 0.79916 0.51249 0.0
O586 O 0.14081 0.7633 0.52238 0.0
O587 O 0.16155 0.76833 0.52863 0.0
H588 H 0.16097 0.80589 0.5432 0.0
H589 H 0.16361 0.8261 0.55915 0.0
H590 H 0.16826 0.85714 0.52852 0.0
H591 H 0.16573 0.83707 0.5128 0.0
H592 H 0.17994 0.80274 0.45362 0.0
H593 H 0.16989 0.79743 0.47551 0.0
H594 H 0.18288 0.75919 0.45224 0.0
H595 H 0.17259 0.75393 0.47359 0.0
H596 H 0.15479 0.71459 0.52579 0.0
H597 H 0.12704 0.71809 0.5556 0.0
H598 H 0.13086 0.74349 0.54848 0.0
H599 H 0.15851 0.74007 0.51859 0.0
C600 C 0.97868 0.60574 0.72656 0.0
C601 C 0.96613 0.60739 0.72776 0.0
C602 C 0.97068 0.61605 0.75011 0.0
C603 C 0.96216 0.61244 0.73942 0.0
C604 C 0.98307 0.61403 0.74885 0.0
C605 C 0.98699 0.60897 0.73726 0.0
U606 U 0.97539 0.59141 0.69098 0.0
O607 O 0.99022 0.5996 0.67488 0.0
O608 O 0.98383 0.57618 0.68109 0.0
C609 C 0.99137 0.58658 0.67302 0.0
C610 C 0.98374 0.6013 0.71427 0.0
C611 C 1.00488 0.58672 0.66881 0.0
C612 C 0.02977 0.59754 0.66844 0.0
C613 C 0.01722 0.59668 0.67395 0.0
C614 C 0.0178 0.57814 0.65298 0.0
C615 C 0.03015 0.58836 0.65781 0.0
C616 C 1.00534 0.57739 0.65838 0.0
C617 C 0.93993 0.5821 0.67522 0.0
C618 C 0.92933 0.56773 0.65611 0.0
C619 C 0.91887 0.58275 0.66768 0.0
C620 C 0.92939 0.58734 0.67637 0.0
C621 C 0.91849 0.57266 0.65756 0.0
C622 C 0.93997 0.57238 0.66492 0.0
C623 C 0.95013 0.58662 0.6854 0.0
O624 O 0.97856 0.58693 0.71103 0.0
O625 O 0.98533 0.61019 0.70448 0.0
O626 O 0.96028 0.59979 0.68424 0.0
O627 O 0.95373 0.5762 0.69005 0.0
H628 H 0.95952 0.60499 0.71964 0.0
H629 H 0.95258 0.61391 0.73995 0.0
H630 H 0.98981 0.61638 0.75686 0.0
H631 H 0.99668 0.60775 0.73662 0.0
H632 H 0.03917 0.6055 0.67235 0.0
H633 H 0.01716 0.60403 0.68196 0.0
H634 H 0.01779 0.57108 0.64472 0.0
H635 H 0.99598 0.56977 0.65412 0.0
H636 H 0.92938 0.55998 0.64842 0.0
H637 H 0.91093 0.5871 0.66894 0.0
H638 H 0.92918 0.59488 0.68419 0.0
H639 H 0.94804 0.56821 0.66382 0.0
C640 C 0.25384 0.34493 0.46607 0.0
C641 C 0.24831 0.34125 0.45381 0.0
C642 C 0.25019 0.36718 0.45113 0.0
C643 C 0.24658 0.35233 0.44636 0.0
C644 C 0.25615 0.37082 0.46322 0.0
C645 C 0.25795 0.35984 0.47056 0.0
U646 U 0.24775 0.30414 0.4763 0.0
O647 O 0.26025 0.29655 0.48864 0.0
O648 O 0.23941 0.29344 0.49474 0.0
C649 C 0.25064 0.29178 0.49763 0.0
C650 C 0.2546 0.33348 0.47486 0.0
C651 C 0.25465 0.29458 0.51119 0.0
C652 C 0.26067 0.3103 0.53056 0.0
C653 C 0.25858 0.30881 0.51724 0.0
C654 C 0.25527 0.2835 0.5317 0.0
C655 C 0.25863 0.29752 0.53798 0.0
C656 C 0.25333 0.28207 0.5185 0.0
C657 C 0.22971 0.27118 0.45179 0.0
C658 C 0.21998 0.24394 0.45481 0.0
C659 C 0.21602 0.25441 0.43527 0.0
C660 C 0.22396 0.2689 0.43967 0.0
C661 C 0.21366 0.24178 0.44288 0.0
C662 C 0.22789 0.25859 0.45931 0.0
C663 C 0.23643 0.28692 0.45644 0.0
O664 O 0.2429 0.32415 0.47969 0.0
O665 O 0.26297 0.32683 0.47161 0.0
O666 O 0.24961 0.29223 0.45836 0.0
O667 O 0.22961 0.29143 0.46516 0.0
H668 H 0.24503 0.32978 0.45016 0.0
H669 H 0.24196 0.34915 0.43709 0.0
H670 H 0.25927 0.38217 0.46709 0.0
H671 H 0.26227 0.36294 0.47997 0.0
H672 H 0.26331 0.32126 0.53513 0.0
H673 H 0.25965 0.31863 0.51178 0.0
H674 H 0.25387 0.27351 0.53707 0.0
H675 H 0.25034 0.271 0.51404 0.0
H676 H 0.21833 0.23439 0.46087 0.0
H677 H 0.21144 0.2531 0.42598 0.0
H678 H 0.22525 0.27843 0.43371 0.0
H679 H 0.23222 0.26011 0.46873 0.0
C680 C 0.52212 0.41459 0.23085 0.0
C681 C 0.52592 0.42165 0.21889 0.0
C682 C 0.50205 0.41682 0.21463 0.0
C683 C 0.51599 0.42277 0.21087 0.0
C684 C 0.49846 0.40998 0.22673 0.0
C685 C 0.50834 0.40894 0.2347 0.0
U686 U 0.55841 0.41831 0.23932 0.0
O687 O 0.5681 0.42084 0.25813 0.0
O688 O 0.56535 0.40096 0.24586 0.0
C689 C 0.57013 0.40825 0.25657 0.0
C690 C 0.53203 0.4121 0.2392 0.0
C691 C 0.57029 0.39935 0.26789 0.0
C692 C 0.56123 0.38659 0.28811 0.0
C693 C 0.56014 0.39504 0.27766 0.0
C694 C 0.58252 0.38682 0.27905 0.0
C695 C 0.57251 0.38241 0.28895 0.0
C696 C 0.58143 0.39517 0.26875 0.0
C697 C 0.5875 0.43959 0.21446 0.0
C698 C 0.60916 0.43714 0.21 0.0
C699 C 0.60228 0.45315 0.19683 0.0
C700 C 0.59041 0.44976 0.20436 0.0
C701 C 0.61155 0.44648 0.19928 0.0
C702 C 0.59713 0.43361 0.21751 0.0
C703 C 0.57362 0.43405 0.22022 0.0
O704 O 0.5376 0.40295 0.23455 0.0
O705 O 0.54079 0.42398 0.24509 0.0
O706 O 0.57168 0.44027 0.23107 0.0
O707 O 0.56679 0.41939 0.21972 0.0
H708 H 0.53651 0.42609 0.21569 0.0
H709 H 0.51926 0.42828 0.20174 0.0
H710 H 0.4879 0.40496 0.22995 0.0
H711 H 0.50514 0.40336 0.24382 0.0
H712 H 0.55334 0.38346 0.29557 0.0
H713 H 0.55144 0.39817 0.27723 0.0
H714 H 0.59118 0.38358 0.27909 0.0
H715 H 0.58937 0.39834 0.26133 0.0
H716 H 0.61616 0.43187 0.21208 0.0
H717 H 0.60395 0.46051 0.18873 0.0
H718 H 0.58312 0.45447 0.20185 0.0
H719 H 0.59505 0.4257 0.22527 0.0
C720 C 0.37227 0.72248 0.99911 0.0
C721 C 0.37059 0.72486 0.98618 0.0
C722 C 0.36611 0.6986 0.98126 0.0
C723 C 0.36743 0.71292 0.97729 0.0
C724 C 0.36847 0.69645 0.99403 0.0
C725 C 0.37151 0.70832 1.00291 0.0
U726 U 0.3805 0.76341 0.0099 0.0
O727 O 0.36907 0.77217 0.02349 0.0
O728 O 0.39003 0.77514 0.02762 0.0
C729 C 0.37881 0.77652 0.03189 0.0
C730 C 0.37362 0.73412 0.00897 0.0
C731 C 0.37449 0.77184 0.0452 0.0
C732 C 0.36104 0.75322 0.06087 0.0
C733 C 0.36576 0.75699 0.0482 0.0
C734 C 0.37407 0.77895 0.06765 0.0
C735 C 0.36504 0.76422 0.07072 0.0
C736 C 0.37873 0.7827 0.05503 0.0
C737 C 0.3928 0.79443 0.98388 0.0
C738 C 0.3913 0.81902 0.98382 0.0
C739 C 0.40429 0.81228 0.96706 0.0
C740 C 0.40107 0.79829 0.97273 0.0
C741 C 0.39925 0.82272 0.97239 0.0
C742 C 0.38814 0.805 0.98956 0.0
C743 C 0.38846 0.77893 0.98869 0.0
O744 O 0.38607 0.74371 0.01126 0.0
O745 O 0.3648 0.74054 0.00842 0.0
O746 O 0.37561 0.77231 0.99244 0.0
O747 O 0.3969 0.77625 0.99617 0.0
H748 H 0.37119 0.73575 0.98307 0.0
H749 H 0.36559 0.71472 0.96745 0.0
H750 H 0.36738 0.68541 0.99723 0.0
H751 H 0.37276 0.70629 0.01285 0.0
H752 H 0.35419 0.74175 0.06293 0.0
H753 H 0.36242 0.74841 0.04073 0.0
H754 H 0.37719 0.78776 0.07493 0.0
H755 H 0.38542 0.79421 0.0529 0.0
H756 H 0.38737 0.82688 0.98821 0.0
H757 H 0.41027 0.81467 0.95818 0.0
H758 H 0.4047 0.79026 0.96817 0.0
H759 H 0.38178 0.80226 0.9982 0.0
C760 C 0.86694 0.25587 0.85656 0.0
C761 C 0.87248 0.25871 0.86879 0.0
C762 C 0.89009 0.24984 0.86189 0.0
C763 C 0.88389 0.25569 0.87144 0.0
C764 C 0.88468 0.24705 0.84953 0.0
C765 C 0.87307 0.24998 0.84688 0.0
U766 U 0.83677 0.25937 0.83807 0.0
O767 O 0.83127 0.24114 0.82348 0.0
O768 O 0.84443 0.26431 0.81816 0.0
C769 C 0.83791 0.25033 0.81423 0.0
C770 C 0.85479 0.25926 0.8546 0.0
C771 C 0.83121 0.24805 0.80176 0.0
C772 C 0.8286 0.23641 0.78058 0.0
C773 C 0.83346 0.23799 0.79298 0.0
C774 C 0.81849 0.25452 0.78562 0.0
C775 C 0.82106 0.24466 0.77661 0.0
C776 C 0.82356 0.25624 0.79808 0.0
C777 C 0.81383 0.27483 0.85806 0.0
C778 C 0.801 0.28823 0.86851 0.0
C779 C 0.81404 0.27827 0.88128 0.0
C780 C 0.81819 0.27258 0.8701 0.0
C781 C 0.80528 0.28598 0.88054 0.0
C782 C 0.80544 0.28294 0.85737 0.0
C783 C 0.81778 0.26889 0.84608 0.0
O784 O 0.84319 0.24777 0.85283 0.0
O785 O 0.85638 0.27091 0.84749 0.0
O786 O 0.81612 0.25463 0.84604 0.0
O787 O 0.82931 0.27767 0.84054 0.0
H788 H 0.86793 0.26328 0.87636 0.0
H789 H 0.88795 0.258 0.88098 0.0
H790 H 0.88934 0.24251 0.84203 0.0
H791 H 0.86892 0.24769 0.83737 0.0
H792 H 0.83126 0.22906 0.77401 0.0
H793 H 0.83942 0.23165 0.7956 0.0
H794 H 0.8126 0.26096 0.78309 0.0
H795 H 0.82168 0.26409 0.80473 0.0
H796 H 0.79444 0.29438 0.86772 0.0
H797 H 0.81761 0.2766 0.89047 0.0
H798 H 0.82483 0.26652 0.87084 0.0
H799 H 0.8022 0.28509 0.84818 0.0
C800 C 0.42051 0.30566 0.47181 0.0
C801 C 0.41586 0.30231 0.48457 0.0
C802 C 0.40387 0.31931 0.4838 0.0
C803 C 0.40757 0.30901 0.49049 0.0
C804 C 0.40919 0.32319 0.47127 0.0
C805 C 0.41734 0.31637 0.46533 0.0
U806 U 0.44636 0.28701 0.47058 0.0
O807 O 0.44509 0.26551 0.46179 0.0
O808 O 0.46125 0.28674 0.45548 0.0
C809 C 0.45553 0.27203 0.45391 0.0
C810 C 0.42805 0.29763 0.46486 0.0
C811 C 0.45414 0.26613 0.44066 0.0
C812 C 0.44456 0.26253 0.41942 0.0
C813 C 0.44582 0.26893 0.43181 0.0
C814 C 0.45992 0.25061 0.42475 0.0
C815 C 0.45158 0.25321 0.41574 0.0
C816 C 0.46121 0.25704 0.437 0.0
C817 C 0.46466 0.28635 0.5014 0.0
C818 C 0.47467 0.26836 0.50612 0.0
C819 C 0.47726 0.28913 0.52084 0.0
C820 C 0.46995 0.2943 0.5127 0.0
C821 C 0.47938 0.27587 0.51782 0.0
C822 C 0.46737 0.27358 0.49795 0.0
C823 C 0.45544 0.29086 0.49398 0.0
O824 O 0.44121 0.30526 0.46303 0.0
O825 O 0.42497 0.28359 0.46822 0.0
O826 O 0.44409 0.27984 0.49058 0.0
O827 O 0.46112 0.30062 0.48483 0.0
H828 H 0.4183 0.29418 0.48984 0.0
H829 H 0.40364 0.30565 0.50012 0.0
H830 H 0.40689 0.33135 0.46592 0.0
H831 H 0.42095 0.31924 0.45553 0.0
H832 H 0.4381 0.26486 0.41275 0.0
H833 H 0.44025 0.27593 0.4345 0.0
H834 H 0.46519 0.24321 0.42249 0.0
H835 H 0.46761 0.25467 0.44373 0.0
H836 H 0.47629 0.25822 0.50347 0.0
H837 H 0.4806 0.29508 0.52983 0.0
H838 H 0.46795 0.30418 0.5155 0.0
H839 H 0.46344 0.26736 0.48919 0.0
C840 C 0.66553 0.78323 0.34596 0.0
C841 C 0.65763 0.77331 0.3555 0.0
C842 C 0.64063 0.78446 0.35494 0.0
C843 C 0.64521 0.77388 0.35991 0.0
C844 C 0.64882 0.79473 0.34582 0.0
C845 C 0.66114 0.79411 0.34137 0.0
U846 U 0.69557 0.76983 0.34434 0.0
O847 O 0.70367 0.76089 0.32784 0.0
O848 O 0.71664 0.78213 0.33709 0.0
C849 C 0.71558 0.77225 0.32783 0.0
C850 C 0.67784 0.78193 0.33995 0.0
C851 C 0.72179 0.77803 0.31516 0.0
C852 C 0.72275 0.79063 0.29496 0.0
C853 C 0.71692 0.78638 0.3073 0.0
C854 C 0.73837 0.77846 0.29839 0.0
C855 C 0.73337 0.78643 0.29029 0.0
C856 C 0.73267 0.77435 0.31066 0.0
C857 C 0.69891 0.74647 0.37346 0.0
C858 C 0.71121 0.73002 0.37603 0.0
C859 C 0.70072 0.73734 0.39451 0.0
C860 C 0.69611 0.74579 0.38668 0.0
C861 C 0.70798 0.72895 0.3893 0.0
C862 C 0.7067 0.73872 0.36816 0.0
C863 C 0.693 0.75496 0.36572 0.0
O864 O 0.68944 0.78926 0.34561 0.0
O865 O 0.67652 0.76843 0.3358 0.0
O866 O 0.68708 0.74861 0.35505 0.0
O867 O 0.69992 0.76956 0.36481 0.0
H868 H 0.66084 0.76485 0.35922 0.0
H869 H 0.639 0.7658 0.36692 0.0
H870 H 0.64542 0.80287 0.34178 0.0
H871 H 0.66705 0.80185 0.33401 0.0
H872 H 0.71865 0.79674 0.28891 0.0
H873 H 0.70851 0.78933 0.31059 0.0
H874 H 0.74665 0.77523 0.29518 0.0
H875 H 0.73663 0.76799 0.31658 0.0
H876 H 0.71676 0.7237 0.37167 0.0
H877 H 0.69835 0.7372 0.40469 0.0
H878 H 0.69025 0.75179 0.39099 0.0
H879 H 0.70904 0.73914 0.35796 0.0
C880 C 0.08202 0.67526 0.96739 0.0
C881 C 0.07396 0.68376 0.96947 0.0
C882 C 0.07924 0.69349 0.94763 0.0
C883 C 0.07251 0.69274 0.95964 0.0
C884 C 0.08671 0.68435 0.94549 0.0
C885 C 0.08806 0.67537 0.95523 0.0
U886 U 0.07957 0.6609 1.00229 0.0
O887 O 0.08248 0.64091 0.00939 0.0
O888 O 0.09627 0.66374 0.01521 0.0
C889 C 0.093 0.64918 0.01622 0.0
C890 C 0.08555 0.66744 0.97789 0.0
C891 C 0.1043 0.64414 0.01785 0.0
C892 C 0.12088 0.63378 0.01035 0.0
C893 C 0.10988 0.63794 0.00793 0.0
C894 C 0.12054 0.64175 0.03251 0.0
C895 C 0.12644 0.63593 0.02265 0.0
C896 C 0.10961 0.64575 0.03013 0.0
C897 C 0.05585 0.6689 0.02753 0.0
C898 C 0.06029 0.67324 0.05031 0.0
C899 C 0.04036 0.67547 0.04172 0.0
C900 C 0.04388 0.67154 0.02953 0.0
C901 C 0.04883 0.67699 0.05213 0.0
C902 C 0.06375 0.66916 0.0381 0.0
C903 C 0.06091 0.66833 0.01426 0.0
O904 O 0.09221 0.67612 0.98737 0.0
O905 O 0.07625 0.65453 0.98178 0.0
O906 O 0.05817 0.65497 0.00896 0.0
O907 O 0.07345 0.67786 0.01189 0.0
H908 H 0.06921 0.68389 0.9788 0.0
H909 H 0.06669 0.69964 0.96162 0.0
H910 H 0.09183 0.68445 0.93633 0.0
H911 H 0.0943 0.6689 0.95339 0.0
H912 H 0.12527 0.6293 1.00259 0.0
H913 H 0.10589 0.63652 0.99837 0.0
H914 H 0.12448 0.64332 0.0421 0.0
H915 H 0.10537 0.65033 0.03796 0.0
H916 H 0.06692 0.67416 0.0582 0.0
H917 H 0.03154 0.6784 0.04279 0.0
H918 H 0.03769 0.67146 0.0215 0.0
H919 H 0.07302 0.6671 0.03678 0.0
C920 C 0.79601 0.9656 0.65386 0.0
C921 C 0.79247 0.95154 0.65968 0.0
C922 C 0.8157 0.95269 0.65596 0.0
C923 C 0.80223 0.94516 0.66075 0.0
C924 C 0.81907 0.96677 0.65013 0.0
C925 C 0.80937 0.97313 0.64915 0.0
U926 U 0.75942 0.96482 0.65425 0.0
O927 O 0.75194 0.98289 0.65882 0.0
O928 O 0.74971 0.97284 0.63948 0.0
C929 C 0.74793 0.98306 0.64708 0.0
C930 C 0.78596 0.97247 0.65201 0.0
C931 C 0.7505 0.99794 0.64145 0.0
C932 C 0.76237 0.01835 0.62656 0.0
C933 C 0.7614 1.00516 0.6328 0.0
C934 C 0.74182 0.01742 0.6378 0.0
C935 C 0.75245 0.02455 0.62885 0.0
C936 C 0.74089 1.00435 0.64401 0.0
C937 C 0.73065 0.92618 0.66526 0.0
C938 C 0.70663 0.91779 0.67173 0.0
C939 C 0.71633 0.89946 0.66608 0.0
C940 C 0.72896 0.91109 0.66375 0.0
C941 C 0.70494 0.90252 0.67024 0.0
C942 C 0.71939 0.92954 0.66924 0.0
C943 C 0.74449 0.93771 0.66276 0.0
O944 O 0.7776 0.96676 0.64256 0.0
O945 O 0.77991 0.97529 0.66237 0.0
O946 O 0.74902 0.94973 0.67027 0.0
O947 O 0.74833 0.94054 0.6507 0.0
H948 H 0.78217 0.94548 0.66332 0.0
H949 H 0.79923 0.93437 0.66538 0.0
H950 H 0.82917 0.9728 0.64604 0.0
H951 H 0.81229 0.98391 0.6445 0.0
H952 H 0.77079 0.02359 0.61985 0.0
H953 H 0.76895 1.00043 0.63065 0.0
H954 H 0.73383 0.02159 0.63968 0.0
H955 H 0.73232 0.99892 0.65053 0.0
H956 H 0.69818 0.92069 0.67498 0.0
H957 H 0.71554 0.88802 0.66439 0.0
H958 H 0.73749 0.90822 0.66068 0.0
H959 H 0.72045 0.94114 0.67048 0.0
C960 C 0.64858 0.8565 0.41001 0.0
C961 C 0.64437 0.84234 0.40388 0.0
C962 C 0.62172 0.83492 0.41408 0.0
C963 C 0.63107 0.83169 0.40585 0.0
C964 C 0.62627 0.84902 0.42048 0.0
C965 C 0.63948 0.8597 0.41838 0.0
U966 U 0.68624 0.8672 0.40172 0.0
O967 O 0.70083 0.88591 0.39049 0.0
O968 O 0.7045 0.88369 0.41078 0.0
C969 C 0.7086 0.89175 0.40035 0.0
C970 C 0.66248 0.86796 0.40806 0.0
C971 C 0.7139 0.90826 0.40213 0.0
C972 C 0.71297 0.93284 0.39913 0.0
C973 C 0.70682 0.91704 0.39832 0.0
C974 C 0.73304 0.93112 0.40792 0.0
C975 C 0.72622 0.94004 0.40383 0.0
C976 C 0.72695 0.91544 0.40707 0.0
C977 C 0.69881 0.83552 0.39404 0.0
C978 C 0.71877 0.83649 0.38143 0.0
C979 C 0.70836 0.81671 0.39691 0.0
C980 C 0.69861 0.82266 0.40013 0.0
C981 C 0.71841 0.82333 0.3873 0.0
C982 C 0.70912 0.84258 0.38482 0.0
C983 C 0.688 0.84107 0.39732 0.0
O984 O 0.67131 0.86801 0.41654 0.0
O985 O 0.66742 0.8695 0.39621 0.0
O986 O 0.68503 0.84866 0.38844 0.0
O987 O 0.68845 0.84699 0.40886 0.0
H988 H 0.65132 0.83955 0.3975 0.0
H989 H 0.62815 0.82104 0.40074 0.0
H990 H 0.61969 0.85187 0.42725 0.0
H991 H 0.64263 0.87048 0.42337 0.0
H992 H 0.70744 0.93942 0.39597 0.0
H993 H 0.6967 0.91172 0.39451 0.0
H994 H 0.74333 0.93627 0.41137 0.0
H995 H 0.73262 0.90889 0.40997 0.0
H996 H 0.72627 0.84189 0.37395 0.0
H997 H 0.70795 0.80687 0.40197 0.0
H998 H 0.69083 0.81714 0.40737 0.0
H999 H 0.70958 0.85264 0.38008 0.0
C1000 C 0.78258 0.99531 0.05651 0.0
C1001 C 0.79404 0.99442 0.06214 0.0
C1002 C 0.78728 0.96816 0.05479 0.0
C1003 C 0.79637 0.981 0.06127 0.0
C1004 C 0.77609 0.96936 0.04884 0.0
C1005 C 0.77378 0.98273 0.04971 0.0
U1006 U 0.79018 0.03748 0.06486 0.0
O1007 O 0.78242 0.05314 0.05607 0.0
O1008 O 0.77737 0.0468 0.07624 0.0
C1009 C 0.77602 0.05467 0.06667 0.0
C1010 C 0.77899 0.0087 0.0582 0.0
C1011 C 0.7629 0.05655 0.06564 0.0
C1012 C 0.73806 0.04764 0.06732 0.0
C1013 C 0.75004 0.04466 0.06694 0.0
C1014 C 0.75168 0.07423 0.06482 0.0
C1015 C 0.73878 0.06257 0.0666 0.0
C1016 C 0.76352 0.07125 0.06435 0.0
C1017 C 0.82785 0.06259 0.07473 0.0
C1018 C 0.83944 0.08959 0.07908 0.0
C1019 C 0.85035 0.0726 0.08396 0.0
C1020 C 0.83913 0.06045 0.07937 0.0
C1021 C 0.85064 0.08732 0.08404 0.0
C1022 C 0.82808 0.0773 0.0745 0.0
C1023 C 0.81627 0.04905 0.07027 0.0
O1024 O 0.77886 0.01374 0.07001 0.0
O1025 O 0.78431 0.01959 0.04987 0.0
O1026 O 0.81174 0.04919 0.05874 0.0
O1027 O 0.80651 0.04227 0.07873 0.0
H1028 H 0.80099 1.00397 0.06745 0.0
H1029 H 0.80505 0.98054 0.06605 0.0
H1030 H 0.76902 0.9599 0.04354 0.0
H1031 H 0.76491 0.98313 0.04526 0.0
H1032 H 0.72829 0.03837 0.06869 0.0
H1033 H 0.74927 0.03319 0.06797 0.0
H1034 H 0.75267 0.0858 0.06397 0.0
H1035 H 0.77329 0.08061 0.06334 0.0
H1036 H 0.83933 0.10079 0.07904 0.0
H1037 H 0.85886 0.07044 0.08746 0.0
H1038 H 0.83924 0.04925 0.07953 0.0
H1039 H 0.8195 0.07924 0.07092 0.0
C1040 C 0.81433 0.11659 0.83465 0.0
C1041 C 0.80108 0.11552 0.838 0.0
C1042 C 0.79585 0.09091 0.84753 0.0
C1043 C 0.79187 0.10271 0.84435 0.0
C1044 C 0.80894 0.09187 0.84369 0.0
C1045 C 0.81805 0.10456 0.83732 0.0
U1046 U 0.82663 0.1566 0.8206 0.0
O1047 O 0.84495 0.17662 0.82474 0.0
O1048 O 0.84213 0.16692 0.80526 0.0
C1049 C 0.85019 0.17719 0.81308 0.0
C1050 C 0.82477 0.13038 0.82909 0.0
C1051 C 0.86496 0.18056 0.81207 0.0
C1052 C 0.88588 0.18285 0.82224 0.0
C1053 C 0.87164 0.17629 0.82165 0.0
C1054 C 0.88703 0.19683 0.80299 0.0
C1055 C 0.89363 0.19364 0.81321 0.0
C1056 C 0.87279 0.19036 0.80246 0.0
C1057 C 0.80011 0.17487 0.81782 0.0
C1058 C 0.8037 0.20146 0.8181 0.0
C1059 C 0.78098 0.18228 0.81579 0.0
C1060 C 0.7862 0.17108 0.81605 0.0
C1061 C 0.78957 0.19755 0.81729 0.0
C1062 C 0.80895 0.19016 0.81845 0.0
C1063 C 0.80461 0.1626 0.8205 0.0
O1064 O 0.82361 0.13285 0.81696 0.0
O1065 O 0.82813 0.14261 0.83631 0.0
O1066 O 0.81219 0.1646 0.83057 0.0
O1067 O 0.8086 0.15639 0.81066 0.0
H1068 H 0.79801 0.1247 0.83602 0.0
H1069 H 0.78186 0.1023 0.84721 0.0
H1070 H 0.81222 0.08288 0.84582 0.0
H1071 H 0.82818 0.10513 0.83476 0.0
H1072 H 0.89077 0.18035 0.83028 0.0
H1073 H 0.86585 0.16873 0.82917 0.0
H1074 H 0.89276 0.20531 0.79607 0.0
H1075 H 0.86785 0.19388 0.79504 0.0
H1076 H 0.81054 0.21314 0.81922 0.0
H1077 H 0.77009 0.17897 0.81493 0.0
H1078 H 0.77924 0.15937 0.8155 0.0
H1079 H 0.81975 0.19332 0.81978 0.0
C1080 C 0.756 0.85739 0.98765 0.0
C1081 C 0.74652 0.85272 0.97779 0.0
C1082 C 0.75192 0.87895 0.97213 0.0
C1083 C 0.74448 0.86339 0.97014 0.0
C1084 C 0.76179 0.8835 0.98167 0.0
C1085 C 0.76376 0.87283 0.98935 0.0
U1086 U 0.75121 0.81735 0.998 0.0
O1087 O 0.76397 0.80987 0.01011 0.0
O1088 O 0.74295 0.80598 0.01623 0.0
C1089 C 0.75429 0.80449 0.01898 0.0
C1090 C 0.75719 0.84655 0.99689 0.0
C1091 C 0.75815 0.80645 0.03261 0.0
C1092 C 0.76277 0.82041 0.05298 0.0
C1093 C 0.76085 0.81994 0.03964 0.0
C1094 C 0.75967 0.79414 0.05222 0.0
C1095 C 0.76177 0.80733 0.05946 0.0
C1096 C 0.75792 0.79374 0.039 0.0
C1097 C 0.73477 0.7851 0.97245 0.0
C1098 C 0.72505 0.75781 0.97498 0.0
C1099 C 0.72325 0.7686 0.95479 0.0
C1100 C 0.73042 0.78305 0.95977 0.0
C1101 C 0.7203 0.75589 0.96239 0.0
C1102 C 0.73226 0.77237 0.98001 0.0
C1103 C 0.74075 0.80069 0.97759 0.0
O1104 O 0.74562 0.83682 1.00165 0.0
O1105 O 0.76604 0.84046 0.99394 0.0
O1106 O 0.75389 0.80651 0.97974 0.0
O1107 O 0.73348 0.80436 0.98645 0.0
H1108 H 0.74045 0.84084 0.97624 0.0
H1109 H 0.73695 0.85948 0.96276 0.0
H1110 H 0.76762 0.89535 0.98356 0.0
H1111 H 0.7711 0.87671 0.99691 0.0
H1112 H 0.7644 0.83075 0.0583 0.0
H1113 H 0.76106 0.82991 0.03491 0.0
H1114 H 0.75905 0.78396 0.05687 0.0
H1115 H 0.75589 0.78323 0.0338 0.0
H1116 H 0.72281 0.74811 0.98102 0.0
H1117 H 0.7196 0.76738 0.9451 0.0
H1118 H 0.73218 0.7927 0.9538 0.0
H1119 H 0.73549 0.77371 0.98985 0.0
C1120 C 0.15396 0.2771 0.82199 0.0
C1121 C 0.14589 0.2667 0.83114 0.0
C1122 C 0.12886 0.27792 0.83108 0.0
C1123 C 0.13343 0.26708 0.83561 0.0
C1124 C 0.13719 0.28851 0.82216 0.0
C1125 C 0.14956 0.28807 0.81768 0.0
U1126 U 0.18532 0.2662 0.82199 0.0
O1127 O 0.19396 0.25664 0.80631 0.0
O1128 O 0.20624 0.27876 0.81469 0.0
C1129 C 0.20557 0.26843 0.80595 0.0
C1130 C 0.1666 0.27637 0.81629 0.0
C1131 C 0.21143 0.27377 0.79315 0.0
C1132 C 0.21355 0.28824 0.77384 0.0
C1133 C 0.20742 0.28338 0.78594 0.0
C1134 C 0.22756 0.27383 0.77614 0.0
C1135 C 0.22378 0.28357 0.76883 0.0
C1136 C 0.22149 0.26905 0.78814 0.0
C1137 C 0.19087 0.24537 0.85104 0.0
C1138 C 0.20765 0.23402 0.85218 0.0
C1139 C 0.19122 0.23098 0.86963 0.0
C1140 C 0.18572 0.23969 0.86317 0.0
C1141 C 0.20204 0.22784 0.86412 0.0
C1142 C 0.20204 0.24272 0.84562 0.0
C1143 C 0.1837 0.25304 0.84406 0.0
O1144 O 0.17805 0.28476 0.82179 0.0
O1145 O 0.16604 0.2629 0.8129 0.0
O1146 O 0.1773 0.24592 0.83382 0.0
O1147 O 0.19014 0.26763 0.84246 0.0
H1148 H 0.14911 0.25816 0.83466 0.0
H1149 H 0.12734 0.25886 0.84257 0.0
H1150 H 0.13394 0.29687 0.81833 0.0
H1151 H 0.1556 0.29615 0.81059 0.0
H1152 H 0.21039 0.29574 0.76848 0.0
H1153 H 0.19962 0.28712 0.78966 0.0
H1154 H 0.23509 0.26963 0.77251 0.0
H1155 H 0.22466 0.26156 0.79354 0.0
H1156 H 0.21595 0.23163 0.84773 0.0
H1157 H 0.18674 0.22628 0.87882 0.0
H1158 H 0.17712 0.2416 0.86749 0.0
H1159 H 0.20613 0.24701 0.83622 0.0
C1160 C 0.88104 0.21216 0.48246 0.0
C1161 C 0.88036 0.2156 0.46957 0.0
C1162 C 0.8733 0.18912 0.46373 0.0
C1163 C 0.87644 0.2041 0.46025 0.0
C1164 C 0.87473 0.18584 0.47646 0.0
C1165 C 0.87857 0.1973 0.48577 0.0
U1166 U 0.89033 0.25283 0.49464 0.0
O1167 O 0.8788 0.26144 0.50825 0.0
O1168 O 0.89934 0.26339 0.51294 0.0
C1169 C 0.8882 0.26516 0.51694 0.0
C1170 C 0.88272 0.22345 0.49272 0.0
C1171 C 0.88324 0.26037 0.53014 0.0
C1172 C 0.86978 0.24141 0.54561 0.0
C1173 C 0.87542 0.24525 0.53318 0.0
C1174 C 0.87999 0.26769 0.55206 0.0
C1175 C 0.87185 0.25264 0.5552 0.0
C1176 C 0.88563 0.27146 0.53972 0.0
C1177 C 0.90342 0.28442 0.46875 0.0
C1178 C 0.90564 0.31056 0.47031 0.0
C1179 C 0.91143 0.30084 0.45035 0.0
C1180 C 0.90819 0.28683 0.456 0.0
C1181 C 0.91007 0.3129 0.45734 0.0
C1182 C 0.9023 0.29643 0.47596 0.0
C1183 C 0.89887 0.269 0.47377 0.0
O1184 O 0.89526 0.23261 0.49522 0.0
O1185 O 0.87422 0.23031 0.49249 0.0
O1186 O 0.88597 0.26258 0.47737 0.0
O1187 O 0.90709 0.26613 0.4814 0.0
H1188 H 0.88222 0.22703 0.46684 0.0
H1189 H 0.87528 0.20677 0.45046 0.0
H1190 H 0.87222 0.1743 0.4793 0.0
H1191 H 0.87899 0.19444 0.49567 0.0
H1192 H 0.86371 0.2297 0.54766 0.0
H1193 H 0.87344 0.2365 0.52589 0.0
H1194 H 0.88163 0.27674 0.55899 0.0
H1195 H 0.89155 0.2832 0.53756 0.0
H1196 H 0.90463 0.3196 0.47608 0.0
H1197 H 0.91453 0.30198 0.44031 0.0
H1198 H 0.90904 0.27768 0.45025 0.0
H1199 H 0.89863 0.29479 0.48584 0.0
C1200 C 0.53412 0.91723 0.82758 0.0
C1201 C 0.53662 0.92298 0.84017 0.0
C1202 C 0.51337 0.92194 0.84248 0.0
C1203 C 0.52633 0.92535 0.84756 0.0
C1204 C 0.51113 0.91661 0.82974 0.0
C1205 C 0.52138 0.91428 0.8224 0.0
U1206 U 0.57016 0.91783 0.82123 0.0
O1207 O 0.57635 0.89987 0.81363 0.0
O1208 O 0.58223 0.92102 0.8031 0.0
C1209 C 0.58235 0.90742 0.80331 0.0
C1210 C 0.54435 0.91368 0.81978 0.0
C1211 C 0.58028 0.89885 0.79106 0.0
C1212 C 0.56685 0.8782 0.77694 0.0
C1213 C 0.56776 0.88734 0.78789 0.0
C1214 C 0.59076 0.89236 0.772 0.0
C1215 C 0.57847 0.88034 0.76907 0.0
C1216 C 0.59164 0.90146 0.78285 0.0
C1217 C 0.59719 0.9376 0.84705 0.0
C1218 C 0.62032 0.9386 0.84788 0.0
C1219 C 0.61165 0.9506 0.86466 0.0
C1220 C 0.59925 0.94601 0.85849 0.0
C1221 C 0.62236 0.94692 0.85951 0.0
C1222 C 0.60782 0.93396 0.8417 0.0
C1223 C 0.58368 0.93248 0.84128 0.0
O1224 O 0.55433 0.92519 0.8146 0.0
O1225 O 0.54846 0.90376 0.82463 0.0
O1226 O 0.57658 0.91786 0.84102 0.0
O1227 O 0.58284 0.93917 0.83072 0.0
H1228 H 0.54642 0.92535 0.84435 0.0
H1229 H 0.52837 0.9294 0.85735 0.0
H1230 H 0.50137 0.91413 0.82545 0.0
H1231 H 0.51927 0.90992 0.81269 0.0
H1232 H 0.55723 0.86906 0.77494 0.0
H1233 H 0.55883 0.88512 0.79407 0.0
H1234 H 0.59983 0.89457 0.76602 0.0
H1235 H 0.60138 0.91029 0.78508 0.0
H1236 H 0.6284 0.93573 0.84354 0.0
H1237 H 0.61273 0.95676 0.87366 0.0
H1238 H 0.59113 0.94886 0.86278 0.0
H1239 H 0.60642 0.92749 0.83284 0.0
C1240 C 0.98333 0.14287 0.26847 0.0
C1241 C 0.96948 0.13947 0.26624 0.0
C1242 C 0.97503 0.14888 0.24424 0.0
C1243 C 0.96538 0.14248 0.25427 0.0
C1244 C 0.98887 0.15242 0.24669 0.0
C1245 C 0.99292 0.14944 0.25858 0.0
U1246 U 0.97926 0.13123 0.30441 0.0
O1247 O 0.98761 0.11695 0.31456 0.0
O1248 O 0.99368 0.14079 0.32011 0.0
C1249 C 0.99477 0.12793 0.32233 0.0
C1250 C 0.98823 0.13967 0.28081 0.0
C1251 C 1.00786 0.12812 0.32711 0.0
C1252 C 0.03275 0.13735 0.32755 0.0
C1253 C 0.02078 0.13713 0.32195 0.0
C1254 C 0.01903 0.11964 0.34345 0.0
C1255 C 0.03203 0.12857 0.33841 0.0
C1256 C 1.00719 0.11943 0.33789 0.0
C1257 C 0.94264 0.12133 0.32026 0.0
C1258 C 0.93029 0.10578 0.33828 0.0
C1259 C 0.92103 0.12185 0.32806 0.0
C1260 C 0.93228 0.12682 0.31958 0.0
C1261 C 0.91978 0.11115 0.33742 0.0
C1262 C 0.94167 0.11087 0.32979 0.0
C1263 C 0.95352 0.12589 0.31013 0.0
O1264 O 0.98924 0.14921 0.29034 0.0
O1265 O 0.98338 0.12556 0.2845 0.0
O1266 O 0.95773 0.11556 0.30553 0.0
O1267 O 0.96337 0.13928 0.31125 0.0
H1268 H 0.96185 0.13442 0.27372 0.0
H1269 H 0.95464 0.13952 0.2528 0.0
H1270 H 0.99667 0.15767 0.23941 0.0
H1271 H 1.00365 0.15227 0.26005 0.0
H1272 H 0.04255 0.14431 0.32333 0.0
H1273 H 0.02162 0.14402 0.31368 0.0
H1274 H 0.01798 0.11296 0.35191 0.0
H1275 H 0.99739 0.11256 0.3422 0.0
H1276 H 0.92964 0.0976 0.34547 0.0
H1277 H 0.91305 0.12605 0.32702 0.0
H1278 H 0.93273 0.13474 0.31222 0.0
H1279 H 0.94953 0.10644 0.3305 0.0
C1280 C 0.65948 0.2712 0.65119 0.0
C1281 C 0.65822 0.26396 0.63915 0.0
C1282 C 0.63741 0.2682 0.6352 0.0
C1283 C 0.64733 0.2625 0.63123 0.0
C1284 C 0.63882 0.27539 0.64735 0.0
C1285 C 0.64972 0.27693 0.65515 0.0
U1286 U 0.69227 0.26584 0.65974 0.0
O1287 O 0.71032 0.28086 0.67006 0.0
O1288 O 0.69783 0.25862 0.67782 0.0
C1289 C 0.7085 0.27129 0.67935 0.0
C1290 C 0.6706 0.27266 0.65996 0.0
C1291 C 0.7114 0.27753 0.69251 0.0
C1292 C 0.70483 0.28509 0.7133 0.0
C1293 C 0.70171 0.2802 0.70055 0.0
C1294 C 0.72733 0.28485 0.70996 0.0
C1295 C 0.71763 0.28723 0.71828 0.0
C1296 C 0.72426 0.2802 0.69726 0.0
C1297 C 0.70759 0.24683 0.63348 0.0
C1298 C 0.7199 0.23025 0.63474 0.0
C1299 C 0.71622 0.23871 0.6141 0.0
C1300 C 0.70966 0.24722 0.62014 0.0
C1301 C 0.72088 0.22961 0.62127 0.0
C1302 C 0.71324 0.23878 0.64082 0.0
C1303 C 0.69795 0.25313 0.63899 0.0
O1304 O 0.67051 0.26 0.66445 0.0
O1305 O 0.68288 0.2822 0.65659 0.0
O1306 O 0.70251 0.26781 0.64072 0.0
O1307 O 0.6897 0.24552 0.64828 0.0
H1308 H 0.66564 0.25942 0.63589 0.0
H1309 H 0.64678 0.257 0.62197 0.0
H1310 H 0.63133 0.2796 0.65103 0.0
H1311 H 0.65042 0.28248 0.66443 0.0
H1312 H 0.69715 0.28706 0.71925 0.0
H1313 H 0.69173 0.27831 0.69704 0.0
H1314 H 0.7372 0.28603 0.7133 0.0
H1315 H 0.73188 0.27832 0.69118 0.0
H1316 H 0.72342 0.22336 0.64051 0.0
H1317 H 0.71701 0.2386 0.60372 0.0
H1318 H 0.70545 0.25341 0.61431 0.0
H1319 H 0.71185 0.2384 0.65115 0.0
C1320 C 0.08846 0.14836 0.00728 0.0
C1321 C 0.08491 0.14346 0.99462 0.0
C1322 C 0.1058 0.13871 0.99143 0.0
C1323 C 0.09348 0.13861 0.98678 0.0
C1324 C 0.10913 0.14359 1.00417 0.0
C1325 C 0.10054 0.14824 0.01198 0.0
U1326 U 0.06031 0.16368 0.01313 0.0
O1327 O 0.04659 0.16186 0.02998 0.0
O1328 O 0.06118 0.18402 0.02374 0.0
C1329 C 0.05178 0.17648 0.03225 0.0
C1330 C 0.08031 0.15452 0.01561 0.0
C1331 C 0.05436 0.18165 0.04573 0.0
C1332 C 0.06955 0.19126 0.06367 0.0
C1333 C 0.06683 0.18435 0.05148 0.0
C1334 C 0.0472 0.19228 0.06467 0.0
C1335 C 0.05988 0.19564 0.07031 0.0
C1336 C 0.0445 0.18538 0.05255 0.0
C1337 C 0.03964 0.16568 0.98401 0.0
C1338 C 0.02996 0.18417 0.97999 0.0
C1339 C 0.02663 0.16354 0.96492 0.0
C1340 C 0.03387 0.15793 0.97276 0.0
C1341 C 0.02505 0.17702 0.96821 0.0
C1342 C 0.03723 0.17854 0.98784 0.0
C1343 C 0.04952 0.16128 0.99053 0.0
O1344 O 0.08223 0.16858 0.01345 0.0
O1345 O 0.06743 0.14578 0.01772 0.0
O1346 O 0.04468 0.15076 0.99924 0.0
O1347 O 0.06079 0.17245 0.9939 0.0
H1348 H 0.07564 0.14356 0.99077 0.0
H1349 H 0.09044 0.13484 0.97709 0.0
H1350 H 0.11863 0.1443 0.00809 0.0
H1351 H 0.10354 0.15213 0.02166 0.0
H1352 H 0.07934 0.19344 0.06777 0.0
H1353 H 0.07459 0.18154 0.0464 0.0
H1354 H 0.03956 0.19561 0.06935 0.0
H1355 H 0.03485 0.18349 0.04826 0.0
H1356 H 0.02896 0.19463 0.98274 0.0
H1357 H 0.0228 0.15771 0.95598 0.0
H1358 H 0.03559 0.14797 0.96967 0.0
H1359 H 0.04159 0.18467 0.99652 0.0
C1360 C 0.44021 0.79948 0.55966 0.0
C1361 C 0.45098 0.7947 0.55709 0.0
C1362 C 0.44644 0.7817 0.5776 0.0
C1363 C 0.45414 0.78595 0.56606 0.0
C1364 C 0.43602 0.78696 0.58023 0.0
C1365 C 0.43299 0.79577 0.57139 0.0
U1366 U 0.44036 0.81693 0.52633 0.0
O1367 O 0.42275 0.81441 0.51471 0.0
O1368 O 0.43581 0.83684 0.52208 0.0
C1369 C 0.42506 0.82883 0.51541 0.0
C1370 C 0.43556 0.80744 0.55015 0.0
C1371 C 0.41304 0.83295 0.51592 0.0
C1372 C 0.39634 0.84128 0.52662 0.0
C1373 C 0.40755 0.83696 0.52721 0.0
C1374 C 0.39597 0.83722 0.50364 0.0
C1375 C 0.39053 0.84168 0.51474 0.0
C1376 C 0.40707 0.83307 0.50424 0.0
C1377 C 0.46653 0.81498 0.49962 0.0
C1378 C 0.46554 0.81501 0.47629 0.0
C1379 C 0.48534 0.81399 0.48621 0.0
C1380 C 0.47952 0.81459 0.49833 0.0
C1381 C 0.47829 0.81376 0.47501 0.0
C1382 C 0.45967 0.81554 0.48851 0.0
C1383 C 0.46006 0.81314 0.51261 0.0
O1384 O 0.44391 0.82116 0.54705 0.0
O1385 O 0.42924 0.79933 0.54026 0.0
O1386 O 0.44767 0.80277 0.51383 0.0
O1387 O 0.46189 0.82539 0.51947 0.0
H1388 H 0.45668 0.79741 0.54807 0.0
H1389 H 0.46218 0.78198 0.56376 0.0
H1390 H 0.43 0.78397 0.58907 0.0
H1391 H 0.42468 0.79935 0.57359 0.0
H1392 H 0.39242 0.84455 0.53539 0.0
H1393 H 0.41196 0.83688 0.53638 0.0
H1394 H 0.39159 0.83678 0.49437 0.0
H1395 H 0.41106 0.82994 0.49542 0.0
H1396 H 0.45981 0.81484 0.46788 0.0
H1397 H 0.49526 0.81333 0.48562 0.0
H1398 H 0.48501 0.81416 0.50675 0.0
H1399 H 0.44961 0.81583 0.48926 0.0
C1400 C 0.74037 0.55993 0.93231 0.0
C1401 C 0.74601 0.57578 0.93242 0.0
C1402 C 0.72357 0.57623 0.92879 0.0
C1403 C 0.73768 0.58385 0.93072 0.0
C1404 C 0.71813 0.56035 0.92851 0.0
C1405 C 0.7264 0.55234 0.9303 0.0
U1406 U 0.77409 0.55376 0.93019 0.0
O1407 O 0.78228 0.54183 0.94322 0.0
O1408 O 0.77778 0.53379 0.92333 0.0
C1409 C 0.78233 0.53185 0.9344 0.0
C1410 C 0.74869 0.55092 0.93412 0.0
C1411 C 0.77933 0.51621 0.93836 0.0
C1412 C 0.76501 0.49195 0.94768 0.0
C1413 C 0.76688 0.50666 0.94402 0.0
C1414 C 0.78789 0.49632 0.93992 0.0
C1415 C 0.77562 0.48669 0.9458 0.0
C1416 C 0.7897 0.51083 0.9363 0.0
C1417 C 0.80623 0.58641 0.91647 0.0
C1418 C 0.82701 0.58511 0.90706 0.0
C1419 C 0.8251 0.60926 0.90978 0.0
C1420 C 0.81205 0.60212 0.91527 0.0
C1421 C 0.83264 0.60084 0.90535 0.0
C1422 C 0.81388 0.57794 0.91254 0.0
C1423 C 0.79184 0.57926 0.92089 0.0
O1424 O 0.75305 0.54631 0.92357 0.0
O1425 O 0.75791 0.55562 0.94302 0.0
O1426 O 0.78949 0.5768 0.93323 0.0
O1427 O 0.78387 0.5681 0.91373 0.0
H1428 H 0.7568 0.5819 0.93387 0.0
H1429 H 0.74228 0.59605 0.93112 0.0
H1430 H 0.70745 0.554 0.92673 0.0
H1431 H 0.72186 0.54013 0.93006 0.0
H1432 H 0.75542 0.48484 0.95218 0.0
H1433 H 0.75869 0.51058 0.94566 0.0
H1434 H 0.79616 0.49262 0.938 0.0
H1435 H 0.79935 0.51793 0.93187 0.0
H1436 H 0.83254 0.57829 0.90374 0.0
H1437 H 0.82922 0.62141 0.90888 0.0
H1438 H 0.80634 0.60887 0.91828 0.0
H1439 H 0.80957 0.56578 0.91338 0.0
C1440 C 0.80768 0.58758 0.19033 0.0
C1441 C 0.79408 0.58499 0.19377 0.0
C1442 C 0.78603 0.56197 0.18045 0.0
C1443 C 0.78334 0.57224 0.18892 0.0
C1444 C 0.79973 0.56484 0.17708 0.0
C1445 C 0.81034 0.57735 0.18203 0.0
U1446 U 0.82538 0.62942 0.20124 0.0
O1447 O 0.84361 0.64039 0.21293 0.0
O1448 O 0.84386 0.64662 0.1928 0.0
C1449 C 0.85076 0.64862 0.20333 0.0
C1450 C 0.81942 0.60111 0.19446 0.0
C1451 C 0.86509 0.65048 0.20152 0.0
C1452 C 0.88301 0.64096 0.19778 0.0
C1453 C 0.86923 0.63831 0.20042 0.0
C1454 C 0.8884 0.66781 0.19739 0.0
C1455 C 0.89276 0.65579 0.19615 0.0
C1456 C 0.87479 0.66517 0.2001 0.0
C1457 C 0.80324 0.65345 0.2048 0.0
C1458 C 0.80955 0.68002 0.21044 0.0
C1459 C 0.78865 0.66629 0.19936 0.0
C1460 C 0.79136 0.6533 0.19948 0.0
C1461 C 0.79756 0.67989 0.20493 0.0
C1462 C 0.81243 0.66691 0.21028 0.0
C1463 C 0.80575 0.63946 0.20348 0.0
O1464 O 0.82351 0.61227 0.18633 0.0
O1465 O 0.81966 0.60561 0.2065 0.0
O1466 O 0.81044 0.63492 0.21334 0.0
O1467 O 0.81127 0.63767 0.19246 0.0
H1468 H 0.79176 0.59283 0.20009 0.0
H1469 H 0.77298 0.57045 0.19185 0.0
H1470 H 0.80236 0.55763 0.17032 0.0
H1471 H 0.82073 0.57922 0.17912 0.0
H1472 H 0.88599 0.63142 0.19693 0.0
H1473 H 0.86184 0.62685 0.20139 0.0
H1474 H 0.89541 0.67933 0.19582 0.0
H1475 H 0.87176 0.6747 0.20076 0.0
H1476 H 0.81671 0.69016 0.21488 0.0
H1477 H 0.77964 0.6656 0.19449 0.0
H1478 H 0.78425 0.6431 0.19504 0.0
H1479 H 0.82179 0.6673 0.21431 0.0
C1480 C 0.76212 0.51194 0.38609 0.0
C1481 C 0.74914 0.51115 0.38286 0.0
C1482 C 0.7524 0.53391 0.39574 0.0
C1483 C 0.74435 0.52213 0.38758 0.0
C1484 C 0.76544 0.53473 0.39867 0.0
C1485 C 0.77023 0.52394 0.39388 0.0
U1486 U 0.75974 0.47233 0.37337 0.0
O1487 O 0.7751 0.46676 0.3619 0.0
O1488 O 0.76927 0.45799 0.38139 0.0
C1489 C 0.77678 0.45851 0.37102 0.0
C1490 C 0.7675 0.50034 0.38206 0.0
C1491 C 0.79037 0.45796 0.37266 0.0
C1492 C 0.81526 0.46887 0.37357 0.0
C1493 C 0.80278 0.47063 0.37231 0.0
C1494 C 0.80297 0.44196 0.37561 0.0
C1495 C 0.81551 0.45443 0.37509 0.0
C1496 C 0.79067 0.44371 0.37438 0.0
C1497 C 0.72375 0.44191 0.36473 0.0
C1498 C 0.71664 0.41477 0.36127 0.0
C1499 C 0.69989 0.42598 0.3615 0.0
C1500 C 0.71017 0.4402 0.36353 0.0
C1501 C 0.70286 0.41295 0.36047 0.0
C1502 C 0.72698 0.42911 0.36344 0.0
C1503 C 0.73383 0.45701 0.36839 0.0
O1504 O 0.76411 0.48858 0.3895 0.0
O1505 O 0.76745 0.49682 0.36979 0.0
O1506 O 0.74292 0.46469 0.35967 0.0
O1507 O 0.73887 0.45826 0.37985 0.0
H1508 H 0.74265 0.50198 0.37689 0.0
H1509 H 0.73423 0.52115 0.38519 0.0
H1510 H 0.77196 0.54373 0.40477 0.0
H1511 H 0.78028 0.52484 0.39646 0.0
H1512 H 0.82468 0.47876 0.3731 0.0
H1513 H 0.80284 0.48177 0.371 0.0
H1514 H 0.80259 0.43072 0.37709 0.0
H1515 H 0.78126 0.43377 0.37472 0.0
H1516 H 0.71945 0.40512 0.36035 0.0
H1517 H 0.68949 0.42522 0.36124 0.0
H1518 H 0.70742 0.44989 0.3646 0.0
H1519 H 0.7374 0.43014 0.36436 0.0
C1520 C 0.65973 0.33904 0.67515 0.0
C1521 C 0.65554 0.32335 0.67406 0.0
C1522 C 0.6316 0.32015 0.67472 0.0
C1523 C 0.64165 0.314 0.67395 0.0
C1524 C 0.63586 0.33592 0.67574 0.0
C1525 C 0.64978 0.34527 0.67605 0.0
U1526 U 0.70037 0.36617 0.67318 0.0
O1527 O 0.70507 0.38329 0.65825 0.0
O1528 O 0.70578 0.39011 0.67853 0.0
C1529 C 0.70756 0.39446 0.66654 0.0
C1530 C 0.67441 0.34885 0.67443 0.0
C1531 C 0.71909 0.40867 0.66334 0.0
C1532 C 0.72617 0.43373 0.65452 0.0
C1533 C 0.71592 0.42024 0.65842 0.0
C1534 C 0.74325 0.42455 0.66059 0.0
C1535 C 0.74001 0.43619 0.65555 0.0
C1536 C 0.73285 0.41085 0.66444 0.0
C1537 C 0.72554 0.34519 0.67932 0.0
C1538 C 0.74603 0.33994 0.68028 0.0
C1539 C 0.72386 0.31938 0.68101 0.0
C1540 C 0.71754 0.32972 0.68031 0.0
C1541 C 0.73819 0.32441 0.68074 0.0
C1542 C 0.73977 0.35018 0.67956 0.0
C1543 C 0.7199 0.35657 0.67681 0.0
O1544 O 0.68094 0.3566 0.68441 0.0
O1545 O 0.6819 0.34995 0.66395 0.0
O1546 O 0.71454 0.35618 0.6656 0.0
O1547 O 0.71412 0.36147 0.68624 0.0
H1548 H 0.66303 0.31832 0.67319 0.0
H1549 H 0.63877 0.30194 0.67295 0.0
H1550 H 0.62841 0.34103 0.67636 0.0
H1551 H 0.65279 0.35738 0.67674 0.0
H1552 H 0.72316 0.44211 0.65037 0.0
H1553 H 0.70538 0.41873 0.65737 0.0
H1554 H 0.75378 0.42603 0.6616 0.0
H1555 H 0.73553 0.402 0.66816 0.0
H1556 H 0.75706 0.34414 0.67989 0.0
H1557 H 0.71759 0.30747 0.68148 0.0
H1558 H 0.70653 0.32563 0.68015 0.0
H1559 H 0.74611 0.36207 0.67868 0.0
C1560 C 0.47109 0.09385 0.20342 0.0
C1561 C 0.45979 0.09797 0.2034 0.0
C1562 C 0.46115 0.10246 0.22661 0.0
C1563 C 0.45487 0.10223 0.21489 0.0
C1564 C 0.4722 0.09788 0.22654 0.0
C1565 C 0.4771 0.09366 0.2151 0.0
U1566 U 0.47012 0.08201 0.16765 0.0
O1567 O 0.4857 0.09101 0.15233 0.0
O1568 O 0.47897 0.06726 0.15769 0.0
C1569 C 0.4873 0.07823 0.15053 0.0
C1570 C 0.47719 0.09031 0.19144 0.0
C1571 C 0.50142 0.07912 0.14861 0.0
C1572 C 0.52596 0.0921 0.15087 0.0
C1573 C 0.5126 0.09048 0.15433 0.0
C1574 C 0.51708 0.07066 0.13638 0.0
C1575 C 0.52835 0.08237 0.14167 0.0
C1576 C 0.5038 0.06909 0.1398 0.0
C1577 C 0.43628 0.07392 0.14995 0.0
C1578 C 0.42843 0.06141 0.12944 0.0
C1579 C 0.41605 0.0747 0.14061 0.0
C1580 C 0.4254 0.07863 0.15041 0.0
C1581 C 0.41726 0.06582 0.13009 0.0
C1582 C 0.43788 0.06541 0.13933 0.0
C1583 C 0.44534 0.07783 0.16098 0.0
O1584 O 0.47223 0.07616 0.18754 0.0
O1585 O 0.47948 0.09987 0.18203 0.0
O1586 O 0.45556 0.09102 0.16069 0.0
O1587 O 0.44854 0.06708 0.16556 0.0
H1588 H 0.45496 0.09817 0.19449 0.0
H1589 H 0.44641 0.10577 0.21451 0.0
H1590 H 0.47713 0.09759 0.23536 0.0
H1591 H 0.48576 0.09045 0.21535 0.0
H1592 H 0.53442 0.10114 0.15521 0.0
H1593 H 0.51104 0.09834 0.16118 0.0
H1594 H 0.51853 0.0631 0.12915 0.0
H1595 H 0.49534 0.06033 0.13519 0.0
H1596 H 0.42968 0.05458 0.12147 0.0
H1597 H 0.40783 0.07867 0.1413 0.0
H1598 H 0.42404 0.08528 0.15847 0.0
H1599 H 0.44628 0.06172 0.13877 0.0
C1600 C 0.02412 0.91626 0.73647 0.0
C1601 C 0.02773 0.92367 0.72466 0.0
C1602 C 1.00368 0.91797 0.72052 0.0
C1603 C 0.01761 0.92456 0.71678 0.0
C1604 C 1.00028 0.91075 0.73247 0.0
C1605 C 0.01036 0.90997 0.74031 0.0
U1606 U 0.06051 0.91953 0.74371 0.0
O1607 O 0.07083 0.92235 0.76222 0.0
O1608 O 0.06731 0.90214 0.75021 0.0
C1609 C 0.07237 0.90948 0.76082 0.0
C1610 C 0.03426 0.91397 0.7446 0.0
C1611 C 0.07141 0.90027 0.7722 0.0
C1612 C 0.05956 0.88527 0.7907 0.0
C1613 C 0.0601 0.89518 0.78077 0.0
C1614 C 0.08169 0.88594 0.78369 0.0
C1615 C 0.07024 0.88024 0.79198 0.0
C1616 C 0.08226 0.89581 0.77396 0.0
C1617 C 0.08884 0.93845 0.71771 0.0
C1618 C 0.11106 0.93686 0.71521 0.0
C1619 C 0.10326 0.94885 0.69894 0.0
C1620 C 0.09125 0.94612 0.70611 0.0
C1621 C 0.11328 0.94407 0.70325 0.0
C1622 C 0.0989 0.93401 0.72236 0.0
C1623 C 0.07516 0.93395 0.72381 0.0
O1624 O 0.03935 0.90436 0.74005 0.0
O1625 O 0.04348 0.92606 0.74983 0.0
O1626 O 0.07397 0.94081 0.73456 0.0
O1627 O 0.0678 0.91941 0.72381 0.0
H1628 H 0.03831 0.92858 0.72146 0.0
H1629 H 0.02072 0.93038 0.70776 0.0
H1630 H 0.98975 0.90524 0.73565 0.0
H1631 H 1.00733 0.90409 0.74932 0.0
H1632 H 0.05064 0.8811 0.79701 0.0
H1633 H 0.05162 0.89853 0.77961 0.0
H1634 H 0.09018 0.88252 0.78457 0.0
H1635 H 0.09112 0.89967 0.76753 0.0
H1636 H 0.11861 0.9332 0.71894 0.0
H1637 H 0.10438 0.95416 0.68973 0.0
H1638 H 0.08356 0.9495 0.70229 0.0
H1639 H 0.0972 0.92801 0.73131 0.0
C1640 C 0.36414 0.73798 0.38023 0.0
C1641 C 0.37451 0.74724 0.38816 0.0
C1642 C 0.38465 0.72851 0.38821 0.0
C1643 C 0.38466 0.74263 0.39203 0.0
C1644 C 0.37441 0.71932 0.37997 0.0
C1645 C 0.36423 0.72401 0.37602 0.0
U1646 U 0.33881 0.74756 0.35939 0.0
O1647 O 0.33646 0.73231 0.34279 0.0
O1648 O 0.34993 0.75614 0.34113 0.0
C1649 C 0.34423 0.74307 0.33517 0.0
C1650 C 0.35282 0.74271 0.37772 0.0
C1651 C 0.33907 0.74297 0.32212 0.0
C1652 C 0.33422 0.73087 0.30105 0.0
C1653 C 0.33883 0.73144 0.31351 0.0
C1654 C 0.33011 0.75356 0.30543 0.0
C1655 C 0.32981 0.74191 0.29683 0.0
C1656 C 0.33469 0.75409 0.31798 0.0
C1657 C 0.31347 0.76081 0.37783 0.0
C1658 C 0.29891 0.77236 0.38784 0.0
C1659 C 0.3127 0.76394 0.40107 0.0
C1660 C 0.31774 0.75893 0.39002 0.0
C1661 C 0.30324 0.77081 0.40009 0.0
C1662 C 0.30404 0.76754 0.37688 0.0
C1663 C 0.31918 0.75671 0.36591 0.0
O1664 O 0.34146 0.7324 0.37347 0.0
O1665 O 0.35607 0.75595 0.37244 0.0
O1666 O 0.31716 0.74242 0.36427 0.0
O1667 O 0.33162 0.76592 0.36267 0.0
H1668 H 0.37464 0.75802 0.39158 0.0
H1669 H 0.39257 0.75026 0.39801 0.0
H1670 H 0.37406 0.70839 0.37679 0.0
H1671 H 0.35631 0.71658 0.36992 0.0
H1672 H 0.33405 0.72171 0.29472 0.0
H1673 H 0.34222 0.72278 0.31644 0.0
H1674 H 0.32693 0.76234 0.30241 0.0
H1675 H 0.3348 0.76316 0.3244 0.0
H1676 H 0.29195 0.77793 0.38662 0.0
H1677 H 0.31628 0.76255 0.41034 0.0
H1678 H 0.32514 0.75389 0.39096 0.0
H1679 H 0.30095 0.76953 0.36758 0.0
C1680 C 0.92338 0.802 1.00437 0.0
C1681 C 0.92003 0.801 0.01755 0.0
C1682 C 0.90389 0.81275 0.01431 0.0
C1683 C 0.91036 0.8064 0.02251 0.0
C1684 C 0.90777 0.81433 1.00127 0.0
C1685 C 0.91744 0.80902 0.99635 0.0
U1686 U 0.9496 0.78369 1.00587 0.0
O1687 O 0.94936 0.7632 0.99592 0.0
O1688 O 0.96614 0.78493 0.99204 0.0
C1689 C 0.96044 0.77052 0.98903 0.0
C1690 C 0.93213 0.79481 0.99853 0.0
C1691 C 0.96007 0.76647 0.97527 0.0
C1692 C 0.94883 0.76045 0.95471 0.0
C1693 C 0.94942 0.7659 0.96741 0.0
C1694 C 0.96969 0.75659 0.95758 0.0
C1695 C 0.95882 0.75538 0.9498 0.0
C1696 C 0.97031 0.76209 0.97015 0.0
C1697 C 0.96353 0.78011 0.03894 0.0
C1698 C 0.9723 0.76154 0.04528 0.0
C1699 C 0.97281 0.78148 0.06013 0.0
C1700 C 0.96701 0.7873 0.05092 0.0
C1701 C 0.97516 0.76827 0.05756 0.0
C1702 C 0.96655 0.76742 0.03605 0.0
C1703 C 0.95556 0.78516 0.03025 0.0
O1704 O 0.94535 0.8027 0.99864 0.0
O1705 O 0.92871 0.78056 1.00135 0.0
O1706 O 0.9449 0.77445 0.02526 0.0
O1707 O 0.96245 0.7957 0.02202 0.0
H1708 H 0.92454 0.7956 0.02389 0.0
H1709 H 0.9075 0.80502 0.0326 0.0
H1710 H 0.90305 0.81934 0.99479 0.0
H1711 H 0.91995 0.80994 0.98618 0.0
H1712 H 0.94031 0.75959 0.94894 0.0
H1713 H 0.94139 0.76925 0.9712 0.0
H1714 H 0.97759 0.75292 0.95402 0.0
H1715 H 0.97863 0.76249 0.97602 0.0
H1716 H 0.97418 0.75148 0.04293 0.0
H1717 H 0.97481 0.7869 0.06949 0.0
H1718 H 0.96474 0.7971 0.05335 0.0
H1719 H 0.96402 0.76173 0.02683 0.0
C1720 C 0.58476 0.18083 0.46775 0.0
C1721 C 0.57775 0.19046 0.46946 0.0
C1722 C 0.58235 0.19818 0.44692 0.0
C1723 C 0.5765 0.19898 0.45916 0.0
C1724 C 0.58888 0.188 0.44522 0.0
C1725 C 0.59003 0.17947 0.45547 0.0
U1726 U 0.58345 0.16651 0.50321 0.0
O1727 O 0.58523 0.1454 0.50907 0.0
O1728 O 0.6011 0.16741 0.51399 0.0
C1729 C 0.59692 0.15268 0.51462 0.0
C1730 C 0.58796 0.17311 0.47859 0.0
C1731 C 0.60743 0.14612 0.51389 0.0
C1732 C 0.63043 0.1478 0.50832 0.0
C1733 C 0.61962 0.15248 0.50658 0.0
C1734 C 0.61671 0.12989 0.52413 0.0
C1735 C 0.62926 0.13686 0.51751 0.0
C1736 C 0.60595 0.13446 0.52233 0.0
C1737 C 0.56106 0.17386 0.53091 0.0
C1738 C 0.56314 0.17164 0.55395 0.0
C1739 C 0.54544 0.17886 0.54628 0.0
C1740 C 0.54986 0.17781 0.53361 0.0
C1741 C 0.55211 0.17602 0.5567 0.0
C1742 C 0.56756 0.17056 0.54121 0.0
C1743 C 0.56615 0.17433 0.5174 0.0
O1744 O 0.59514 0.18178 0.48783 0.0
O1745 O 0.57844 0.16054 0.48283 0.0
O1746 O 0.56258 0.16144 0.51106 0.0
O1747 O 0.5789 0.18331 0.51509 0.0
H1748 H 0.57354 0.19169 0.47882 0.0
H1749 H 0.57113 0.20638 0.46086 0.0
H1750 H 0.59367 0.18707 0.43611 0.0
H1751 H 0.59554 0.17217 0.45389 0.0
H1752 H 0.63996 0.15339 0.50306 0.0
H1753 H 0.62104 0.16152 0.50002 0.0
H1754 H 0.61537 0.12127 0.53111 0.0
H1755 H 0.59668 0.12941 0.5281 0.0
H1756 H 0.56845 0.16916 0.56167 0.0
H1757 H 0.53707 0.18246 0.54791 0.0
H1758 H 0.54471 0.18048 0.52586 0.0
H1759 H 0.5762 0.16744 0.53941 0.0
C1760 C 0.29148 0.4554 0.14562 0.0
C1761 C 0.28749 0.43994 0.148 0.0
C1762 C 0.31139 0.44285 0.14796 0.0
C1763 C 0.29736 0.43372 0.14915 0.0
C1764 C 0.31522 0.45833 0.14567 0.0
C1765 C 0.3054 0.46449 0.14455 0.0
U1766 U 0.25496 0.45489 0.1459 0.0
O1767 O 0.24777 0.47299 0.15113 0.0
O1768 O 0.24546 0.46375 0.1315 0.0
C1769 C 0.24366 0.47361 0.13951 0.0
C1770 C 0.28147 0.46229 0.14369 0.0
C1771 C 0.24597 0.48867 0.13443 0.0
C1772 C 0.25999 0.51281 0.12473 0.0
C1773 C 0.25871 0.49888 0.12986 0.0
C1774 C 0.23589 0.50633 0.12873 0.0
C1775 C 0.24855 0.51673 0.12412 0.0
C1776 C 0.23466 0.49259 0.13384 0.0
C1777 C 0.2257 0.41682 0.15684 0.0
C1778 C 0.20099 0.40863 0.15642 0.0
C1779 C 0.21097 0.39101 0.16213 0.0
C1780 C 0.22397 0.40233 0.16069 0.0
C1781 C 0.19938 0.39397 0.15983 0.0
C1782 C 0.21411 0.42002 0.15489 0.0
C1783 C 0.23975 0.42771 0.15417 0.0
O1784 O 0.2731 0.45666 0.13422 0.0
O1785 O 0.27545 0.46514 0.15405 0.0
O1786 O 0.24474 0.43954 0.16182 0.0
O1787 O 0.2433 0.43077 0.14207 0.0
H1788 H 0.27679 0.4327 0.14886 0.0
H1789 H 0.294 0.4218 0.15103 0.0
H1790 H 0.32585 0.46569 0.14445 0.0
H1791 H 0.3087 0.47641 0.14263 0.0
H1792 H 0.26992 0.5205 0.12132 0.0
H1793 H 0.2676 0.49607 0.13019 0.0
H1794 H 0.22676 0.50864 0.12816 0.0
H1795 H 0.22471 0.48486 0.13719 0.0
H1796 H 0.19215 0.4111 0.15452 0.0
H1797 H 0.20995 0.37979 0.16469 0.0
H1798 H 0.23276 0.39962 0.16223 0.0
H1799 H 0.21522 0.43112 0.15187 0.0
C1800 C 0.2047 0.42269 0.89921 0.0
C1801 C 0.21756 0.42404 0.90325 0.0
C1802 C 0.22623 0.45139 0.90104 0.0
C1803 C 0.22819 0.43825 0.90423 0.0
C1804 C 0.21332 0.44989 0.89693 0.0
C1805 C 0.20267 0.43571 0.89607 0.0
U1806 U 0.19219 0.38061 0.89195 0.0
O1807 O 0.17485 0.36117 0.89956 0.0
O1808 O 0.17616 0.36645 0.87905 0.0
C1809 C 0.16893 0.35787 0.88841 0.0
C1810 C 0.19349 0.40783 0.89761 0.0
C1811 C 0.15413 0.35396 0.88836 0.0
C1812 C 0.13304 0.35379 0.89823 0.0
C1813 C 0.14733 0.35947 0.89769 0.0
C1814 C 0.13236 0.33768 0.8798 0.0
C1815 C 0.12548 0.3425 0.88952 0.0
C1816 C 0.14655 0.34337 0.87923 0.0
C1817 C 0.21874 0.36371 0.88426 0.0
C1818 C 0.2133 0.33707 0.87989 0.0
C1819 C 0.23558 0.35571 0.87396 0.0
C1820 C 0.23182 0.36714 0.87895 0.0
C1821 C 0.22634 0.34061 0.87425 0.0
C1822 C 0.20946 0.3486 0.88477 0.0
C1823 C 0.21487 0.37622 0.88843 0.0
O1824 O 0.1922 0.4023 0.88587 0.0
O1825 O 0.19221 0.39774 0.90636 0.0
O1826 O 0.20855 0.37493 0.89966 0.0
O1827 O 0.2095 0.38139 0.87953 0.0
H1828 H 0.21939 0.41411 0.9056 0.0
H1829 H 0.23791 0.43893 0.90759 0.0
H1830 H 0.21145 0.45967 0.89418 0.0
H1831 H 0.19287 0.43488 0.89278 0.0
H1832 H 0.12792 0.35761 0.90584 0.0
H1833 H 0.153 0.3677 0.9048 0.0
H1834 H 0.12674 0.32908 0.87292 0.0
H1835 H 0.15161 0.33903 0.87194 0.0
H1836 H 0.20603 0.32549 0.88023 0.0
H1837 H 0.24575 0.35867 0.86984 0.0
H1838 H 0.23908 0.37872 0.87847 0.0
H1839 H 0.19925 0.34577 0.88875 0.0
C1840 C 0.28409 0.49755 0.56624 0.0
C1841 C 0.29721 0.49914 0.56183 0.0
C1842 C 0.29001 0.47162 0.56009 0.0
C1843 C 0.30013 0.48633 0.55878 0.0
C1844 C 0.27698 0.47022 0.56469 0.0
C1845 C 0.27408 0.48296 0.56765 0.0
U1846 U 0.2904 0.5384 0.57863 0.0
O1847 O 0.2822 0.5546 0.57161 0.0
O1848 O 0.27685 0.54571 0.59109 0.0
C1849 C 0.27555 0.5547 0.58245 0.0
C1850 C 0.28025 0.51064 0.56919 0.0
C1851 C 0.26243 0.55676 0.58211 0.0
C1852 C 0.2383 0.54888 0.57729 0.0
C1853 C 0.25034 0.54597 0.57719 0.0
C1854 C 0.25033 0.57318 0.58728 0.0
C1855 C 0.23817 0.56264 0.58226 0.0
C1856 C 0.26222 0.5703 0.58716 0.0
C1857 C 0.32724 0.56279 0.5911 0.0
C1858 C 0.33804 0.58921 0.59778 0.0
C1859 C 0.34951 0.57231 0.60085 0.0
C1860 C 0.33857 0.56049 0.59542 0.0
C1861 C 0.34953 0.58692 0.60205 0.0
C1862 C 0.32699 0.57726 0.59235 0.0
C1863 C 0.31616 0.54974 0.58526 0.0
O1864 O 0.27929 0.51395 0.58137 0.0
O1865 O 0.28578 0.52267 0.56203 0.0
O1866 O 0.31214 0.5514 0.57385 0.0
O1867 O 0.30609 0.54157 0.59291 0.0
H1868 H 0.30517 0.51026 0.56065 0.0
H1869 H 0.31026 0.488 0.55518 0.0
H1870 H 0.26895 0.45922 0.56616 0.0
H1871 H 0.2639 0.48138 0.57106 0.0
H1872 H 0.22917 0.54047 0.5733 0.0
H1873 H 0.2502 0.53538 0.57327 0.0
H1874 H 0.25068 0.58372 0.5915 0.0
H1875 H 0.27136 0.57875 0.59111 0.0
H1876 H 0.33767 0.60029 0.59842 0.0
H1877 H 0.3579 0.56987 0.60424 0.0
H1878 H 0.33898 0.54943 0.5946 0.0
H1879 H 0.31835 0.57933 0.58908 0.0
C1880 C 0.37854 0.69047 0.32552 0.0
C1881 C 0.3867 0.70514 0.32173 0.0
C1882 C 0.40712 0.70269 0.32946 0.0
C1883 C 0.40071 0.71121 0.32374 0.0
C1884 C 0.39892 0.68767 0.33288 0.0
C1885 C 0.38475 0.68165 0.331 0.0
U1886 U 0.33962 0.66292 0.3258 0.0
O1887 O 0.33836 0.6455 0.33952 0.0
O1888 O 0.33837 0.64052 0.31889 0.0
C1889 C 0.33679 0.63516 0.33056 0.0
C1890 C 0.3636 0.68552 0.32447 0.0
C1891 C 0.32541 0.62046 0.33281 0.0
C1892 C 0.3179 0.59331 0.33494 0.0
C1893 C 0.32784 0.60721 0.33126 0.0
C1894 C 0.30255 0.60551 0.34119 0.0
C1895 C 0.30528 0.59231 0.34034 0.0
C1896 C 0.31254 0.61946 0.33747 0.0
C1897 C 0.31221 0.68007 0.3214 0.0
C1898 C 0.29344 0.68661 0.31504 0.0
C1899 C 0.31155 0.7043 0.32757 0.0
C1900 C 0.31815 0.69424 0.32746 0.0
C1901 C 0.29901 0.70047 0.32162 0.0
C1902 C 0.30001 0.67652 0.31491 0.0
C1903 C 0.31732 0.66803 0.32318 0.0
O1904 O 0.35619 0.68155 0.3351 0.0
O1905 O 0.35778 0.67723 0.31446 0.0
O1906 O 0.32386 0.66467 0.31346 0.0
O1907 O 0.32266 0.66786 0.3343 0.0
H1908 H 0.38213 0.7122 0.31757 0.0
H1909 H 0.40636 0.72287 0.32124 0.0
H1910 H 0.40336 0.68057 0.33712 0.0
H1911 H 0.37864 0.67028 0.33403 0.0
H1912 H 0.32024 0.58335 0.33385 0.0
H1913 H 0.33763 0.60769 0.32759 0.0
H1914 H 0.29296 0.60518 0.34529 0.0
H1915 H 0.31039 0.62954 0.33868 0.0
H1916 H 0.28381 0.68339 0.31031 0.0
H1917 H 0.3158 0.71476 0.33288 0.0
H1918 H 0.32752 0.69724 0.3326 0.0
H1919 H 0.29522 0.66563 0.31022 0.0
H1920 H 0.10876 0.3261 0.17891 0.0
H1921 H 0.10319 0.29087 0.15085 0.0
H1922 H 0.06944 0.29021 0.17545 0.0
C1923 C 0.10216 0.31562 0.1744 0.0
C1924 C 0.08841 0.30923 0.17812 0.0
C1925 C 0.10751 0.30937 0.16451 0.0
C1926 C 0.09911 0.29569 0.15861 0.0
C1927 C 0.08532 0.2885 0.16281 0.0
C1928 C 0.08011 0.2954 0.17255 0.0
N1929 N 0.07617 0.27457 0.15752 0.0
C1930 C 0.07824 0.26687 0.14664 0.0
H1931 H 0.76946 0.75916 0.39078 0.0
H1932 H 0.78446 0.766 0.35163 0.0
H1933 H 0.79446 0.73651 0.37593 0.0
C1934 C 0.77513 0.7567 0.38285 0.0
C1935 C 0.78187 0.74712 0.38487 0.0
C1936 C 0.7765 0.76422 0.37122 0.0
C1937 C 0.78338 0.76044 0.36072 0.0
C1938 C 0.7896 0.75006 0.3624 0.0
C1939 C 0.78911 0.74387 0.37455 0.0
N1940 N 0.79741 0.74634 0.35259 0.0
C1941 C 0.79708 0.74793 0.33939 0.0
H1942 H 0.42712 0.68955 0.62653 0.0
H1943 H 0.43727 0.66255 0.65371 0.0
H1944 H 0.46256 0.70943 0.64904 0.0
C1945 C 0.4336 0.68817 0.63372 0.0
C1946 C 0.44515 0.70083 0.63698 0.0
C1947 C 0.43056 0.674 0.63934 0.0
C1948 C 0.43895 0.67322 0.64935 0.0
C1949 C 0.4503 0.68613 0.65312 0.0
C1950 C 0.45342 0.69975 0.64669 0.0
N1951 N 0.46005 0.68527 0.66169 0.0
C1952 C 0.45743 0.67945 0.67405 0.0
H1953 H 0.75075 0.27486 0.80677 0.0
H1954 H 0.73905 0.2737 0.84668 0.0
H1955 H 0.72626 0.29893 0.82029 0.0
C1956 C 0.74537 0.27821 0.81446 0.0
C1957 C 0.73804 0.28703 0.81174 0.0
C1958 C 0.74525 0.27272 0.82678 0.0
C1959 C 0.73909 0.27776 0.8371 0.0
C1960 C 0.73261 0.28774 0.83473 0.0
C1961 C 0.73198 0.29205 0.82206 0.0
N1962 N 0.72618 0.29352 0.84447 0.0
C1963 C 0.72379 0.28973 0.85739 0.0
H1964 H 0.2541 0.77448 0.31345 0.0
H1965 H 0.24823 0.77454 0.3545 0.0
H1966 H 0.24092 0.80702 0.33152 0.0
C1967 C 0.25112 0.77899 0.32208 0.0
C1968 C 0.24705 0.79106 0.32095 0.0
C1969 C 0.25137 0.77256 0.33393 0.0
C1970 C 0.24779 0.77895 0.34517 0.0
C1971 C 0.24408 0.79149 0.34426 0.0
C1972 C 0.2437 0.79737 0.33215 0.0
N1973 N 0.24227 0.79967 0.35525 0.0
C1974 C 0.23425 0.79371 0.36618 0.0
H1975 H 0.61055 0.83658 0.69573 0.0
H1976 H 0.61033 0.79894 0.67234 0.0
H1977 H 0.57408 0.79674 0.69359 0.0
C1978 C 0.6052 0.82529 0.69194 0.0
C1979 C 0.59155 0.8176 0.69557 0.0
C1980 C 0.61232 0.8187 0.68398 0.0
C1981 C 0.60509 0.80418 0.67862 0.0
C1982 C 0.59113 0.79625 0.68205 0.0
C1983 C 0.58464 0.80294 0.69075 0.0
N1984 N 0.58326 0.78127 0.67775 0.0
C1985 C 0.58567 0.77339 0.66715 0.0
H1986 H 0.27733 0.27982 0.87321 0.0
H1987 H 0.2802 0.27233 0.83252 0.0
H1988 H 0.29857 0.25264 0.85902 0.0
C1989 C 0.28094 0.27488 0.86517 0.0
C1990 C 0.28831 0.26607 0.86751 0.0
C1991 C 0.27792 0.27715 0.85264 0.0
C1992 C 0.28246 0.27053 0.84223 0.0
C1993 C 0.29007 0.26174 0.84459 0.0
C1994 C 0.29277 0.25945 0.85722 0.0
N1995 N 0.29525 0.25485 0.83474 0.0
C1996 C 0.29469 0.25629 0.8216 0.0
H1997 H 0.92823 0.18521 0.10588 0.0
H1998 H 0.93687 0.16365 0.13818 0.0
H1999 H 0.96078 0.2106 0.13066 0.0
C2000 C 0.93427 0.18575 0.11417 0.0
C2001 C 0.9448 0.19938 0.11742 0.0
C2002 C 0.93133 0.17284 0.12156 0.0
C2003 C 0.93909 0.17359 0.13247 0.0
C2004 C 0.94982 0.18731 0.13578 0.0
C2005 C 0.95256 0.20006 0.12816 0.0
N2006 N 0.95849 0.18892 0.1463 0.0
C2007 C 0.95635 0.17964 0.15692 0.0
H2008 H 0.16925 0.13793 0.40977 0.0
H2009 H 0.13426 0.14446 0.39657 0.0
H2010 H 0.13669 0.1009 0.39235 0.0
C2011 C 0.15934 0.13322 0.40544 0.0
C2012 C 0.15391 0.11806 0.40146 0.0
C2013 C 0.1523 0.14266 0.40396 0.0
C2014 C 0.1397 0.13715 0.39775 0.0
C2015 C 0.13413 0.12202 0.39335 0.0
C2016 C 0.14124 0.1126 0.3954 0.0
N2017 N 0.1213 0.11545 0.38723 0.0
C2018 C 0.11315 0.12258 0.38267 0.0
H2019 H 0.20395 0.97963 0.6521 0.0
H2020 H 0.18511 0.93984 0.62849 0.0
H2021 H 0.22621 0.97104 0.62012 0.0
C2022 C 0.20444 0.97229 0.64421 0.0
C2023 C 0.21655 0.97651 0.63691 0.0
C2024 C 0.19311 0.95893 0.64165 0.0
C2025 C 0.1937 0.95015 0.6307 0.0
C2026 C 0.20557 0.95469 0.62271 0.0
C2027 C 0.21694 0.96782 0.62598 0.0
N2028 N 0.20677 0.94648 0.61144 0.0
C2029 C 0.19742 0.93273 0.6067 0.0
H2030 H 0.43024 0.90052 0.90423 0.0
H2031 H 0.39825 0.91541 0.9154 0.0
H2032 H 0.42902 0.94059 0.88787 0.0
C2033 C 0.42548 0.90852 0.90329 0.0
C2034 C 0.43126 0.92077 0.89495 0.0
C2035 C 0.41381 0.90666 0.91088 0.0
C2036 C 0.40715 0.91662 0.90947 0.0
C2037 C 0.41244 0.92855 0.90073 0.0
C2038 C 0.42462 0.93077 0.89387 0.0
N2039 N 0.40696 0.9398 0.90005 0.0
C2040 C 0.39365 0.93725 0.89682 0.0
H2041 H 0.32838 0.02999 0.08518 0.0
H2042 H 0.34677 0.06709 0.05938 0.0
H2043 H 0.30365 0.04085 0.05874 0.0
C2044 C 0.32747 0.03709 0.07767 0.0
C2045 C 0.31459 0.03418 0.07275 0.0
C2046 C 0.33919 0.0488 0.07291 0.0
C2047 C 0.33784 0.0581 0.06332 0.0
C2048 C 0.32499 0.05528 0.0583 0.0
C2049 C 0.31346 0.0432 0.06288 0.0
N2050 N 0.32383 0.06327 0.04752 0.0
C2051 C 0.32348 0.07754 0.04843 0.0
H2052 H 0.06045 0.75444 0.11894 0.0
H2053 H 0.01744 0.74291 0.12529 0.0
H2054 H 0.04596 0.77719 0.14824 0.0
C2055 C 0.05209 0.75603 0.12411 0.0
C2056 C 0.05484 0.76719 0.13373 0.0
C2057 C 0.03864 0.74672 0.12121 0.0
C2058 C 0.0278 0.7491 0.12789 0.0
C2059 C 0.03057 0.75964 0.13811 0.0
C2060 C 0.04402 0.76863 0.14078 0.0
N2061 N 0.02053 0.76199 0.14617 0.0
C2062 C 1.00645 0.7547 0.14617 0.0
H2063 H 0.30874 0.83529 0.47057 0.0
H2064 H 0.28009 0.854 0.46012 0.0
H2065 H 0.3045 0.87126 0.49334 0.0
C2066 C 0.30392 0.84317 0.47268 0.0
C2067 C 0.30801 0.85313 0.4832 0.0
C2068 C 0.2936 0.84295 0.46466 0.0
C2069 C 0.28804 0.85402 0.46631 0.0
C2070 C 0.29228 0.86451 0.47659 0.0
C2071 C 0.30191 0.86367 0.48512 0.0
N2072 N 0.28592 0.87477 0.4797 0.0
C2073 C 0.28306 0.88405 0.47121 0.0
H2074 H 0.4819 0.21804 0.59834 0.0
H2075 H 0.52359 0.24955 0.59634 0.0
H2076 H 0.50683 0.22699 0.63149 0.0
C2077 C 0.49152 0.22361 0.60304 0.0
C2078 C 0.49286 0.22043 0.61585 0.0
C2079 C 0.50246 0.23424 0.59612 0.0
C2080 C 0.51524 0.24125 0.60166 0.0
C2081 C 0.51692 0.23867 0.61445 0.0
C2082 C 0.50565 0.22846 0.62152 0.0
N2083 N 0.52953 0.24687 0.6206 0.0
C2084 C 0.5426 0.24946 0.61537 0.0
H2085 H 0.18419 0.15323 0.92883 0.0
H2086 H 0.21737 0.14011 0.91703 0.0
H2087 H 0.1877 0.11485 0.9455 0.0
C2088 C 0.18977 0.146 0.92957 0.0
C2089 C 0.18473 0.134 0.93812 0.0
C2090 C 0.2017 0.14868 0.92202 0.0
C2091 C 0.20807 0.13828 0.92254 0.0
C2092 C 0.20286 0.12592 0.93088 0.0
C2093 C 0.19135 0.12402 0.93874 0.0
N2094 N 0.20984 0.11627 0.93279 0.0
C2095 C 0.21491 0.10939 0.92317 0.0
H2096 H 0.81036 0.3417 0.95945 0.0
H2097 H 0.77795 0.35603 0.95105 0.0
H2098 H 0.80386 0.37548 0.98304 0.0
C2099 C 0.80465 0.34871 0.96156 0.0
C2100 C 0.80838 0.35865 0.97202 0.0
C2101 C 0.79359 0.34737 0.95401 0.0
C2102 C 0.78673 0.35712 0.95655 0.0
C2103 C 0.79059 0.36752 0.96692 0.0
C2104 C 0.80135 0.3681 0.97468 0.0
N2105 N 0.78203 0.37497 0.97132 0.0
C2106 C 0.78064 0.38706 0.96533 0.0
H2107 H 0.97318 0.70318 0.13399 0.0
H2108 H 0.01624 0.71975 0.12979 0.0
H2109 H 0.99738 0.69518 0.16311 0.0
C2110 C 0.98276 0.7048 0.13816 0.0
C2111 C 0.98325 0.69818 0.14992 0.0
C2112 C 0.99458 0.7136 0.13128 0.0
C2113 C 1.00726 0.71425 0.13546 0.0
C2114 C 1.00815 0.7074 0.14692 0.0
C2115 C 0.99621 0.69981 0.15416 0.0
N2116 N 0.02034 0.70608 0.15084 0.0
C2117 C 0.03365 0.71703 0.15098 0.0
H2118 H 0.69618 0.65659 0.45613 0.0
H2119 H 0.72181 0.63645 0.43742 0.0
H2120 H 0.6951 0.6141 0.469 0.0
C2121 C 0.69995 0.64762 0.45551 0.0
C2122 C 0.69429 0.63522 0.46364 0.0
C2123 C 0.70983 0.64817 0.44602 0.0
C2124 C 0.71423 0.63612 0.44473 0.0
C2125 C 0.70905 0.62391 0.45322 0.0
C2126 C 0.69914 0.62359 0.46258 0.0
N2127 N 0.71383 0.61202 0.45315 0.0
C2128 C 0.71937 0.60679 0.44271 0.0
H2129 H 0.93938 0.39764 0.3956 0.0
H2130 H 0.90514 0.40857 0.40656 0.0
H2131 H 0.93147 0.43181 0.37532 0.0
C2132 C 0.93318 0.40393 0.3937 0.0
C2133 C 0.93693 0.41463 0.38384 0.0
C2134 C 0.92156 0.40131 0.40157 0.0
C2135 C 0.9137 0.40999 0.40007 0.0
C2136 C 0.9176 0.42127 0.39071 0.0
C2137 C 0.92893 0.42325 0.38256 0.0
N2138 N 0.91221 0.43268 0.39091 0.0
C2139 C 0.89868 0.4307 0.38927 0.0
H2140 H 0.67849 0.6535 0.92458 0.0
H2141 H 0.6438 0.66082 0.91142 0.0
H2142 H 0.6469 0.61783 0.90499 0.0
C2143 C 0.66875 0.64919 0.91993 0.0
C2144 C 0.66355 0.63436 0.91519 0.0
C2145 C 0.66161 0.65863 0.91905 0.0
C2146 C 0.64937 0.65359 0.9122 0.0
C2147 C 0.64417 0.6388 0.9069 0.0
C2148 C 0.65123 0.62932 0.90863 0.0
N2149 N 0.6316 0.63245 0.90039 0.0
C2150 C 0.62354 0.63961 0.89578 0.0
H2151 H 0.93159 0.67348 0.8867 0.0
H2152 H 0.92653 0.65518 0.84819 0.0
H2153 H 0.95737 0.69888 0.85632 0.0
C2154 C 0.93414 0.67451 0.87655 0.0
C2155 C 0.94411 0.68806 0.87232 0.0
C2156 C 0.92636 0.66337 0.86786 0.0
C2157 C 0.93176 0.66382 0.85516 0.0
C2158 C 0.94375 0.67617 0.8513 0.0
C2159 C 0.94926 0.68867 0.85971 0.0
N2160 N 0.94986 0.67729 0.83878 0.0
C2161 C 0.94879 0.66558 0.8301 0.0
H2162 H 0.268 0.26505 0.68713 0.0
H2163 H 0.2748 0.27355 0.6467 0.0
H2164 H 0.25733 0.29914 0.6704 0.0
C2165 C 0.2672 0.27116 0.67882 0.0
C2166 C 0.26183 0.28228 0.68026 0.0
C2167 C 0.27176 0.26785 0.66684 0.0
C2168 C 0.27112 0.27594 0.65597 0.0
C2169 C 0.26594 0.28738 0.65735 0.0
C2170 C 0.26145 0.29047 0.66948 0.0
N2171 N 0.26553 0.29662 0.64712 0.0
C2172 C 0.26549 0.29347 0.63403 0.0
H2173 H 0.61399 0.33703 0.34878 0.0
H2174 H 0.61545 0.3011 0.37171 0.0
H2175 H 0.5782 0.29661 0.35356 0.0
C2176 C 0.60897 0.32588 0.35285 0.0
C2177 C 0.59526 0.31762 0.35044 0.0
C2178 C 0.61637 0.32009 0.36038 0.0
C2179 C 0.60979 0.30563 0.36586 0.0
C2180 C 0.59588 0.29703 0.36337 0.0
C2181 C 0.58882 0.30314 0.35555 0.0
N2182 N 0.58855 0.28204 0.36787 0.0
C2183 C 0.5916 0.27434 0.37771 0.0
H2184 H 0.31218 0.77549 0.15084 0.0
H2185 H 0.29927 0.76014 0.18935 0.0
H2186 H 0.32941 0.74809 0.16932 0.0
C2187 C 0.31273 0.76929 0.15907 0.0
C2188 C 0.32154 0.76157 0.15841 0.0
C2189 C 0.30445 0.7689 0.17003 0.0
C2190 C 0.30565 0.76101 0.18087 0.0
C2191 C 0.31474 0.75358 0.18051 0.0
C2192 C 0.32249 0.75387 0.16933 0.0
N2193 N 0.31593 0.74488 0.19084 0.0
C2194 C 0.31262 0.74623 0.2037 0.0
H2195 H 0.79025 0.2566 0.689 0.0
H2196 H 0.80495 0.26876 0.65034 0.0
H2197 H 0.82375 0.24671 0.67378 0.0
C2198 C 0.79657 0.25594 0.68084 0.0
C2199 C 0.8064 0.24991 0.68259 0.0
C2200 C 0.79561 0.26248 0.66926 0.0
C2201 C 0.80499 0.2631 0.65915 0.0
C2202 C 0.8151 0.25728 0.66079 0.0
C2203 C 0.81566 0.25065 0.67245 0.0
N2204 N 0.82659 0.26122 0.65227 0.0
C2205 C 0.82672 0.25509 0.64006 0.0
H2206 H 0.41203 0.16296 0.35848 0.0
H2207 H 0.41574 0.13839 0.32449 0.0
H2208 H 0.44558 0.18313 0.33189 0.0
C2209 C 0.41758 0.16233 0.34971 0.0
C2210 C 0.42945 0.17462 0.34622 0.0
C2211 C 0.41259 0.14923 0.34206 0.0
C2212 C 0.41951 0.14849 0.33044 0.0
C2213 C 0.43151 0.16083 0.32677 0.0
C2214 C 0.43628 0.17379 0.33467 0.0
N2215 N 0.43937 0.16087 0.31545 0.0
C2216 C 0.4371 0.14937 0.30633 0.0
H2217 H 0.77922 0.77954 0.20814 0.0
H2218 H 0.76671 0.7644 0.16966 0.0
H2219 H 0.75563 0.79854 0.1878 0.0
C2220 C 0.77425 0.78025 0.19948 0.0
C2221 C 0.76721 0.78986 0.19945 0.0
C2222 C 0.77346 0.77017 0.18924 0.0
C2223 C 0.76773 0.77205 0.1777 0.0
C2224 C 0.762 0.78298 0.17697 0.0
C2225 C 0.76131 0.79135 0.18801 0.0
N2226 N 0.75404 0.78314 0.16639 0.0
C2227 C 0.75918 0.78829 0.15417 0.0
H2228 H 0.11336 0.82557 0.8445 0.0
H2229 H 0.10969 0.79704 0.87638 0.0
H2230 H 0.07362 0.79758 0.85964 0.0
C2231 C 0.10682 0.8173 0.8512 0.0
C2232 C 0.09265 0.81314 0.85124 0.0
C2233 C 0.11304 0.81244 0.86067 0.0
C2234 C 0.10495 0.80085 0.86899 0.0
C2235 C 0.09062 0.79471 0.8679 0.0
C2236 C 0.08461 0.8014 0.85945 0.0
N2237 N 0.08169 0.78267 0.87564 0.0
C2238 C 0.08505 0.77318 0.88352 0.0
H2239 H 0.86902 0.88915 0.63615 0.0
H2240 H 0.90585 0.88109 0.63685 0.0
H2241 H 0.90247 0.91804 0.65879 0.0
C2242 C 0.87915 0.89199 0.63978 0.0
C2243 C 0.88465 0.9044 0.64813 0.0
C2244 C 0.88659 0.8834 0.6358 0.0
C2245 C 0.89976 0.88722 0.64038 0.0
C2246 C 0.90553 0.89953 0.64883 0.0
C2247 C 0.89785 0.90805 0.65285 0.0
N2248 N 0.91983 0.90502 0.65054 0.0
C2249 C 0.92645 0.90694 0.66214 0.0
H2250 H 0.84659 0.10584 0.39504 0.0
H2251 H 0.81875 0.05981 0.38898 0.0
H2252 H 0.81023 0.08742 0.41843 0.0
C2253 C 0.83695 0.09663 0.39721 0.0
C2254 C 0.82869 0.0983 0.40729 0.0
C2255 C 0.83362 0.08281 0.39068 0.0
C2256 C 0.82127 0.07062 0.3938 0.0
C2257 C 0.81266 0.07248 0.40376 0.0
C2258 C 0.81658 0.08623 0.41047 0.0
N2259 N 0.80046 0.06082 0.40823 0.0
C2260 C 0.7932 0.04685 0.40264 0.0
H2261 H 0.61436 0.12168 0.08513 0.0
H2262 H 0.65227 0.11749 0.07456 0.0
H2263 H 0.62498 0.08818 0.10282 0.0
C2264 C 0.62129 0.11598 0.08598 0.0
C2265 C 0.61807 0.10413 0.09462 0.0
C2266 C 0.6336 0.12098 0.0788 0.0
C2267 C 0.64268 0.11359 0.07995 0.0
C2268 C 0.63948 0.10162 0.08866 0.0
C2269 C 0.62731 0.09722 0.09602 0.0
N2270 N 0.64836 0.09423 0.09121 0.0
C2271 C 0.65914 0.09336 0.08373 0.0
H2272 H 0.71989 1.00132 0.8895 0.0
H2273 H 0.71115 0.96491 0.9162 0.0
H2274 H 0.75082 1.00111 0.9143 0.0
C2275 C 0.723 0.9957 0.89688 0.0
C2276 C 0.73636 1.00232 0.90098 0.0
C2277 C 0.71378 0.98199 0.90196 0.0
C2278 C 0.71811 0.9753 0.91193 0.0
C2279 C 0.73149 0.98236 0.91651 0.0
C2280 C 0.74051 0.99578 0.91091 0.0
N2281 N 0.73598 0.97727 0.92743 0.0
C2282 C 0.73371 0.96243 0.93034 0.0
H2283 H 0.97585 0.27749 0.85585 0.0
H2284 H 0.01814 0.28616 0.86355 0.0
H2285 H 0.99663 0.25364 0.8352 0.0
C2286 C 0.98511 0.27558 0.85423 0.0
C2287 C 0.9849 0.26468 0.84492 0.0
C2288 C 0.99681 0.28321 0.86169 0.0
C2289 C 1.0089 0.28071 0.85833 0.0
C2290 C 1.00876 0.27011 0.84865 0.0
C2291 C 0.99675 0.26213 0.84229 0.0
N2292 N 0.01973 0.26548 0.84586 0.0
C2293 C 0.03365 0.27331 0.84742 0.0
H2294 H 0.71288 0.15063 0.56449 0.0
H2295 H 0.73744 0.13017 0.58158 0.0
H2296 H 0.71234 0.10826 0.54969 0.0
C2297 C 0.71651 0.14156 0.56451 0.0
C2298 C 0.71127 0.12938 0.55588 0.0
C2299 C 0.72604 0.14205 0.57363 0.0
C2300 C 0.73016 0.12989 0.57449 0.0
C2301 C 0.72521 0.11767 0.56574 0.0
C2302 C 0.71595 0.11762 0.55645 0.0
N2303 N 0.72975 0.10558 0.56544 0.0
C2304 C 0.73439 0.10018 0.57576 0.0
H2305 H 0.53257 0.74232 0.43134 0.0
H2306 H 0.48916 0.72481 0.42586 0.0
H2307 H 0.5155 0.76648 0.40869 0.0
C2308 C 0.52368 0.74337 0.42748 0.0
C2309 C 0.52556 0.75604 0.42027 0.0
C2310 C 0.51059 0.73252 0.43037 0.0
C2311 C 0.49931 0.7332 0.42405 0.0
C2312 C 0.50129 0.74521 0.41566 0.0
C2313 C 0.5143 0.75674 0.41426 0.0
N2314 N 0.49068 0.74666 0.40865 0.0
C2315 C 0.47694 0.73717 0.40845 0.0
H2316 H 0.81389 0.81345 0.05821 0.0
H2317 H 0.80665 0.84949 0.07771 0.0
H2318 H 0.83181 0.85877 0.04397 0.0
C2319 C 0.81521 0.82516 0.05862 0.0
C2320 C 0.82443 0.83546 0.05007 0.0
C2321 C 0.81003 0.83034 0.06939 0.0
C2322 C 0.81043 0.84515 0.06941 0.0
C2323 C 0.81726 0.85493 0.05937 0.0
C2324 C 0.82487 0.8503 0.05025 0.0
N2325 N 0.81973 0.87051 0.06016 0.0
C2326 C 0.80985 0.87658 0.0596 0.0
H2327 H 0.205 0.64331 0.07005 0.0
H2328 H 0.23535 0.62873 0.08423 0.0
H2329 H 0.21013 0.60494 0.05286 0.0
C2330 C 0.21015 0.63555 0.06976 0.0
C2331 C 0.20611 0.62374 0.06081 0.0
C2332 C 0.22054 0.63746 0.07837 0.0
C2333 C 0.22726 0.62738 0.07772 0.0
C2334 C 0.22353 0.61562 0.06843 0.0
C2335 C 0.21308 0.61402 0.05991 0.0
N2336 N 0.23063 0.60585 0.06679 0.0
C2337 C 0.23427 0.59867 0.07659 0.0
H2338 H 0.03536 0.26124 0.90978 0.0
H2339 H 0.99216 0.24075 0.90294 0.0
H2340 H 0.01738 0.28226 0.88506 0.0
C2341 C 0.02628 0.26139 0.90554 0.0
C2342 C 0.02762 0.27352 0.8978 0.0
C2343 C 0.01353 0.24956 0.90776 0.0
C2344 C 1.00211 0.24963 0.90137 0.0
C2345 C 1.00362 0.26131 0.89288 0.0
C2346 C 0.01633 0.27312 0.89124 0.0
N2347 N 0.99277 0.26169 0.88567 0.0
C2348 C 0.97898 0.2531 0.88762 0.0
H2349 H 0.33349 0.32897 0.54261 0.0
H2350 H 0.30337 0.34646 0.55436 0.0
H2351 H 0.32598 0.36042 0.5187 0.0
C2352 C 0.32819 0.33633 0.54089 0.0
C2353 C 0.33101 0.34464 0.52963 0.0
C2354 C 0.31834 0.33688 0.5498 0.0
C2355 C 0.31137 0.34636 0.5477 0.0
C2356 C 0.31438 0.35524 0.53659 0.0
C2357 C 0.32415 0.35422 0.52755 0.0
N2358 N 0.30599 0.3629 0.5332 0.0
C2359 C 0.30598 0.37607 0.5391 0.0
H2360 H 0.11307 0.62228 0.59701 0.0
H2361 H 0.14852 0.61464 0.58285 0.0
H2362 H 0.12083 0.58494 0.61073 0.0
C2363 C 0.11944 0.61581 0.59695 0.0
C2364 C 0.11565 0.6032 0.60479 0.0
C2365 C 0.13133 0.62024 0.5891 0.0
C2366 C 0.13944 0.61149 0.58895 0.0
C2367 C 0.13562 0.59865 0.59684 0.0
C2368 C 0.12379 0.59476 0.6047 0.0
N2369 N 0.14275 0.58878 0.59706 0.0
C2370 C 0.1558 0.59081 0.59239 0.0
H2371 H 0.36761 0.38523 0.12939 0.0
H2372 H 0.4048 0.37762 0.12726 0.0
H2373 H 0.401 0.41124 0.15332 0.0
C2374 C 0.37784 0.38769 0.1326 0.0
C2375 C 0.38335 0.39909 0.14185 0.0
C2376 C 0.38539 0.37979 0.12722 0.0
C2377 C 0.3986 0.3832 0.13159 0.0
C2378 C 0.40421 0.39416 0.14122 0.0
C2379 C 0.39653 0.40219 0.14641 0.0
N2380 N 0.41818 0.39796 0.14393 0.0
C2381 C 0.42467 0.40258 0.15559 0.0
H2382 H 0.69869 0.47724 0.14911 0.0
H2383 H 0.68167 0.4406 0.12219 0.0
H2384 H 0.72485 0.46795 0.12099 0.0
C2385 C 0.70004 0.47064 0.14099 0.0
C2386 C 0.71313 0.47393 0.13582 0.0
C2387 C 0.68869 0.45877 0.1362 0.0
C2388 C 0.69041 0.44992 0.12582 0.0
C2389 C 0.7035 0.45337 0.12013 0.0
C2390 C 0.71476 0.46546 0.12517 0.0
N2391 N 0.70594 0.44505 0.10949 0.0
C2392 C 0.69655 0.43224 0.10348 0.0
H2393 H 0.82415 0.5298 0.62463 0.0
H2394 H 0.8355 0.56538 0.59701 0.0
H2395 H 0.79341 0.53637 0.60301 0.0
C2396 C 0.82132 0.53603 0.61758 0.0
C2397 C 0.80751 0.53171 0.61483 0.0
C2398 C 0.83159 0.54802 0.61121 0.0
C2399 C 0.82778 0.55627 0.6022 0.0
C2400 C 0.81394 0.552 0.59928 0.0
C2401 C 0.80398 0.53967 0.60549 0.0
N2402 N 0.8099 0.5584 0.58891 0.0
C2403 C 0.8123 0.57361 0.58779 0.0
H2404 H 0.55138 0.22606 0.64511 0.0
H2405 H 0.50877 0.2021 0.64535 0.0
H2406 H 0.5248 0.24632 0.66244 0.0
C2407 C 0.54152 0.22622 0.64735 0.0
C2408 C 0.54009 0.23836 0.6545 0.0
C2409 C 0.53022 0.21393 0.64283 0.0
C2410 C 0.5173 0.21237 0.64748 0.0
C2411 C 0.51528 0.22415 0.65432 0.0
C2412 C 0.52663 0.2373 0.65743 0.0
N2413 N 0.50181 0.22201 0.65858 0.0
C2414 C 0.49485 0.23124 0.65587 0.0
H2415 H 0.35095 0.61521 0.91569 0.0
H2416 H 0.32663 0.56908 0.90521 0.0
H2417 H 0.31455 0.59066 0.93732 0.0
C2418 C 0.34192 0.60497 0.91702 0.0
C2419 C 0.33283 0.60448 0.9271 0.0
C2420 C 0.33985 0.59241 0.90897 0.0
C2421 C 0.32834 0.57892 0.91127 0.0
C2422 C 0.31913 0.57838 0.92155 0.0
C2423 C 0.32159 0.59113 0.92943 0.0
N2424 N 0.30741 0.56537 0.92475 0.0
C2425 C 0.30133 0.55227 0.91751 0.0
H2426 H 0.22495 0.49278 0.36742 0.0
H2427 H 0.21539 0.45658 0.39425 0.0
H2428 H 0.2545 0.49373 0.39468 0.0
C2429 C 0.22793 0.48754 0.37519 0.0
C2430 C 0.24092 0.49463 0.3802 0.0
C2431 C 0.21863 0.47395 0.38026 0.0
C2432 C 0.22258 0.467 0.39021 0.0
C2433 C 0.23561 0.47418 0.39544 0.0
C2434 C 0.24457 0.4881 0.39054 0.0
N2435 N 0.23956 0.46872 0.40647 0.0
C2436 C 0.23755 0.45379 0.40882 0.0
H2437 H 0.48491 0.77524 0.38152 0.0
H2438 H 0.52596 0.78503 0.39257 0.0
H2439 H 0.51159 0.76047 0.35802 0.0
C2440 C 0.49473 0.77478 0.37949 0.0
C2441 C 0.49658 0.76681 0.3685 0.0
C2442 C 0.50524 0.78161 0.38831 0.0
C2443 C 0.51797 0.78063 0.38571 0.0
C2444 C 0.51995 0.77252 0.37498 0.0
C2445 C 0.50954 0.76639 0.36624 0.0
N2446 N 0.52996 0.76621 0.37498 0.0
C2447 C 0.54377 0.77352 0.37197 0.0
C2448 C 0.18256 0.3711 0.14943 0.0
C2449 C 0.18587 0.38128 0.15981 0.0
C2450 C 0.17026 0.35837 0.14938 0.0
C2451 C 0.16104 0.35566 0.16002 0.0
C2452 C 0.1644 0.3659 0.17061 0.0
C2453 C 0.17681 0.37863 0.17037 0.0
C2454 C 0.16705 0.34785 0.13789 0.0
C2455 C 0.15492 0.36339 0.18219 0.0
C2456 C 0.12354 0.33258 0.15438 0.0
C2457 C 0.12152 0.3188 0.16003 0.0
C2458 C 0.13632 0.34457 0.15429 0.0
C2459 C 0.14755 0.34266 0.15965 0.0
C2460 C 0.14578 0.32844 0.16468 0.0
C2461 C 0.13271 0.3167 0.16495 0.0
C2462 C 0.13759 0.35961 0.1492 0.0
C2463 C 0.15752 0.32587 0.17032 0.0
H2464 H 0.18968 0.37313 0.14134 0.0
H2465 H 0.17951 0.3864 0.17848 0.0
H2466 H 0.16494 0.33619 0.14094 0.0
H2467 H 0.15774 0.34768 0.13334 0.0
H2468 H 0.17551 0.35122 0.1306 0.0
H2469 H 0.1588 0.37264 0.18943 0.0
H2470 H 0.14471 0.36244 0.17925 0.0
H2471 H 0.15357 0.35262 0.18678 0.0
H2472 H 0.11478 0.33436 0.151 0.0
H2473 H 0.13108 0.30624 0.16971 0.0
H2474 H 0.14587 0.36357 0.14178 0.0
H2475 H 0.14032 0.36814 0.15709 0.0
H2476 H 0.12799 0.35911 0.145 0.0
H2477 H 0.166 0.32843 0.16311 0.0
H2478 H 0.15456 0.3141 0.17356 0.0
H2479 H 0.16147 0.33362 0.17861 0.0
C2480 C 0.72399 0.8005 0.38333 0.0
C2481 C 0.72818 0.81625 0.38327 0.0
C2482 C 0.73312 0.7936 0.38024 0.0
C2483 C 0.74661 0.80252 0.37619 0.0
C2484 C 0.75087 0.81837 0.37568 0.0
C2485 C 0.74168 0.82507 0.37942 0.0
C2486 C 0.72835 0.77675 0.38167 0.0
C2487 C 0.76515 0.82823 0.37126 0.0
C2488 C 0.77225 0.78543 0.38205 0.0
C2489 C 0.77126 0.77649 0.37095 0.0
C2490 C 0.76444 0.79411 0.38381 0.0
C2491 C 0.75647 0.79523 0.37367 0.0
C2492 C 0.75676 0.78782 0.36179 0.0
C2493 C 0.76393 0.77821 0.36065 0.0
C2494 C 0.76368 0.80079 0.39696 0.0
C2495 C 0.74881 0.78924 0.3506 0.0
H2496 H 0.71353 0.79346 0.38591 0.0
H2497 H 0.74516 0.83724 0.37947 0.0
H2498 H 0.72673 0.77128 0.37206 0.0
H2499 H 0.73606 0.77373 0.38645 0.0
H2500 H 0.71871 0.77212 0.38741 0.0
H2501 H 0.76687 0.84038 0.37137 0.0
H2502 H 0.77274 0.82669 0.37745 0.0
H2503 H 0.76707 0.82485 0.36138 0.0
H2504 H 0.77843 0.78479 0.38986 0.0
H2505 H 0.76323 0.77156 0.35196 0.0
H2506 H 0.75311 0.79551 0.40097 0.0
H2507 H 0.76619 0.81305 0.39636 0.0
H2508 H 0.77065 0.79898 0.40378 0.0
H2509 H 0.7379 0.78192 0.35212 0.0
H2510 H 0.75243 0.78575 0.34143 0.0
H2511 H 0.74958 0.80102 0.34976 0.0
C2512 C 0.35981 0.61072 0.61562 0.0
C2513 C 0.36154 0.5995 0.60773 0.0
C2514 C 0.37104 0.62231 0.62119 0.0
C2515 C 0.38437 0.62266 0.61902 0.0
C2516 C 0.38619 0.61133 0.61117 0.0
C2517 C 0.37485 0.60007 0.60553 0.0
C2518 C 0.36865 0.63432 0.62929 0.0
C2519 C 0.40015 0.61102 0.6088 0.0
C2520 C 0.41497 0.65999 0.62139 0.0
C2521 C 0.41908 0.66028 0.63413 0.0
C2522 C 0.40356 0.64811 0.61658 0.0
C2523 C 0.3965 0.6354 0.62425 0.0
C2524 C 0.40108 0.63499 0.63678 0.0
C2525 C 0.41204 0.64754 0.64168 0.0
C2526 C 0.39894 0.64931 0.60327 0.0
C2527 C 0.39431 0.62138 0.64511 0.0
H2528 H 0.34965 0.61039 0.61757 0.0
H2529 H 0.37647 0.59173 0.59927 0.0
H2530 H 0.37231 0.63438 0.63911 0.0
H2531 H 0.37457 0.64559 0.62519 0.0
H2532 H 0.35772 0.6326 0.62996 0.0
H2533 H 0.39982 0.6012 0.60278 0.0
H2534 H 0.407 0.62147 0.60398 0.0
H2535 H 0.40473 0.61058 0.61809 0.0
H2536 H 0.4206 0.6691 0.61499 0.0
H2537 H 0.41491 0.64735 0.65149 0.0
H2538 H 0.38804 0.64768 0.60364 0.0
H2539 H 0.39989 0.64032 0.59694 0.0
H2540 H 0.40495 0.66039 0.59887 0.0
H2541 H 0.38447 0.6213 0.64902 0.0
H2542 H 0.40072 0.62143 0.65329 0.0
H2543 H 0.39212 0.6108 0.63947 0.0
C2544 C 0.77267 0.20609 0.82832 0.0
C2545 C 0.78347 0.20895 0.81936 0.0
C2546 C 0.76639 0.21633 0.83044 0.0
C2547 C 0.77091 0.22978 0.82334 0.0
C2548 C 0.78187 0.23281 0.81428 0.0
C2549 C 0.78819 0.22245 0.81254 0.0
C2550 C 0.75485 0.21273 0.84026 0.0
C2551 C 0.787 0.24695 0.80641 0.0
C2552 C 0.74573 0.24826 0.81932 0.0
C2553 C 0.75051 0.26061 0.82786 0.0
C2554 C 0.75229 0.23822 0.81775 0.0
C2555 C 0.76374 0.24028 0.82516 0.0
C2556 C 0.76814 0.2522 0.83434 0.0
C2557 C 0.76155 0.26237 0.83551 0.0
C2558 C 0.74734 0.22581 0.80774 0.0
C2559 C 0.7802 0.25465 0.84251 0.0
H2560 H 0.76917 0.19579 0.83379 0.0
H2561 H 0.79658 0.22474 0.80563 0.0
H2562 H 0.75735 0.22189 0.8476 0.0
H2563 H 0.74544 0.21205 0.83559 0.0
H2564 H 0.75272 0.20191 0.84515 0.0
H2565 H 0.79195 0.24528 0.7973 0.0
H2566 H 0.7787 0.25061 0.80406 0.0
H2567 H 0.79465 0.25617 0.81196 0.0
H2568 H 0.73717 0.24688 0.81337 0.0
H2569 H 0.76541 0.27202 0.84196 0.0
H2570 H 0.74493 0.21469 0.81217 0.0
H2571 H 0.75552 0.22739 0.80035 0.0
H2572 H 0.73813 0.22557 0.80292 0.0
H2573 H 0.78011 0.26158 0.85115 0.0
H2574 H 0.78966 0.26054 0.83674 0.0
H2575 H 0.7804 0.24383 0.84565 0.0
C2576 C 0.29771 0.72591 0.32112 0.0
C2577 C 0.29131 0.7104 0.32328 0.0
C2578 C 0.2908 0.73557 0.32344 0.0
C2579 C 0.27716 0.72956 0.3283 0.0
C2580 C 0.27068 0.71388 0.33056 0.0
C2581 C 0.27777 0.70448 0.32788 0.0
C2582 C 0.29836 0.75209 0.32058 0.0
C2583 C 0.25632 0.70707 0.33608 0.0
C2584 C 0.26449 0.75842 0.34351 0.0
C2585 C 0.25609 0.75974 0.33395 0.0
C2586 C 0.27087 0.74805 0.3421 0.0
C2587 C 0.26944 0.73946 0.3306 0.0
C2588 C 0.26081 0.74054 0.32108 0.0
C2589 C 0.25365 0.7499 0.32323 0.0
C2590 C 0.27969 0.74682 0.35261 0.0
C2591 C 0.25987 0.73265 0.30822 0.0
H2592 H 0.30814 0.73047 0.31754 0.0
H2593 H 0.27286 0.69252 0.32977 0.0
H2594 H 0.29225 0.75902 0.32242 0.0
H2595 H 0.30761 0.75671 0.32644 0.0
H2596 H 0.30183 0.75336 0.31037 0.0
H2597 H 0.25302 0.69485 0.33798 0.0
H2598 H 0.25558 0.71298 0.34517 0.0
H2599 H 0.2491 0.70855 0.32937 0.0
H2600 H 0.26651 0.76583 0.35184 0.0
H2601 H 0.24664 0.75009 0.31603 0.0
H2602 H 0.29056 0.75227 0.34949 0.0
H2603 H 0.27754 0.73481 0.35452 0.0
H2604 H 0.27804 0.75229 0.36165 0.0
H2605 H 0.27014 0.73661 0.30348 0.0
H2606 H 0.25281 0.73483 0.30174 0.0
H2607 H 0.25642 0.72031 0.30944 0.0
C2608 C 0.67907 0.89071 0.67013 0.0
C2609 C 0.69152 0.88966 0.67278 0.0
C2610 C 0.66657 0.87828 0.67177 0.0
C2611 C 0.66648 0.86427 0.67577 0.0
C2612 C 0.67894 0.86315 0.67851 0.0
C2613 C 0.69119 0.87588 0.67731 0.0
C2614 C 0.65346 0.88017 0.66931 0.0
C2615 C 0.6794 0.84838 0.68248 0.0
C2616 C 0.63478 0.8362 0.69226 0.0
C2617 C 0.62727 0.82768 0.68191 0.0
C2618 C 0.64731 0.84827 0.69033 0.0
C2619 C 0.65331 0.85105 0.67788 0.0
C2620 C 0.6466 0.84132 0.66759 0.0
C2621 C 0.63348 0.82997 0.66966 0.0
C2622 C 0.65362 0.85865 0.70153 0.0
C2623 C 0.65296 0.8433 0.65428 0.0
H2624 H 0.67906 0.90117 0.66657 0.0
H2625 H 0.70057 0.87492 0.67987 0.0
H2626 H 0.64809 0.87259 0.66133 0.0
H2627 H 0.6466 0.87692 0.67793 0.0
H2628 H 0.65519 0.89193 0.66682 0.0
H2629 H 0.68999 0.84916 0.68354 0.0
H2630 H 0.67377 0.8447 0.69172 0.0
H2631 H 0.67433 0.8395 0.67523 0.0
H2632 H 0.63031 0.83416 0.70187 0.0
H2633 H 0.62788 0.82341 0.66161 0.0
H2634 H 0.65505 0.87037 0.69922 0.0
H2635 H 0.66381 0.85873 0.7034 0.0
H2636 H 0.64725 0.85534 0.71046 0.0
H2637 H 0.65123 0.85251 0.64947 0.0
H2638 H 0.64841 0.83287 0.64837 0.0
H2639 H 0.66413 0.8464 0.6546 0.0
C2640 C 0.23034 0.31682 0.87607 0.0
C2641 C 0.23057 0.32879 0.86862 0.0
C2642 C 0.23664 0.30718 0.87152 0.0
C2643 C 0.24311 0.30953 0.8592 0.0
C2644 C 0.24235 0.32085 0.85129 0.0
C2645 C 0.23618 0.33043 0.85613 0.0
C2646 C 0.23728 0.29526 0.88028 0.0
C2647 C 0.24886 0.32348 0.83802 0.0
C2648 C 0.2749 0.30107 0.85651 0.0
C2649 C 0.26996 0.28654 0.8511 0.0
C2650 C 0.2663 0.30879 0.85885 0.0
C2651 C 0.25245 0.3019 0.85547 0.0
C2652 C 0.24763 0.28765 0.84914 0.0
C2653 C 0.25647 0.28005 0.8471 0.0
C2654 C 0.27187 0.32389 0.86572 0.0
C2655 C 0.23297 0.28001 0.84527 0.0
H2656 H 0.226 0.31558 0.88573 0.0
H2657 H 0.23618 0.3396 0.85032 0.0
H2658 H 0.23435 0.28428 0.87512 0.0
H2659 H 0.2479 0.29849 0.88342 0.0
H2660 H 0.23053 0.29378 0.88893 0.0
H2661 H 0.24592 0.33142 0.83252 0.0
H2662 H 0.26012 0.32823 0.83874 0.0
H2663 H 0.24592 0.31266 0.83259 0.0
H2664 H 0.28531 0.30596 0.85971 0.0
H2665 H 0.2526 0.26868 0.84314 0.0
H2666 H 0.26655 0.32307 0.87517 0.0
H2667 H 0.26999 0.33251 0.86014 0.0
H2668 H 0.28299 0.32787 0.8673 0.0
H2669 H 0.22646 0.27514 0.85387 0.0
H2670 H 0.23159 0.27074 0.8382 0.0
H2671 H 0.22931 0.28819 0.84112 0.0
C2672 C 0.8677 0.09785 0.10135 0.0
C2673 C 0.8625 0.09993 0.0897 0.0
C2674 C 0.87915 0.10919 0.10673 0.0
C2675 C 0.88568 0.12306 0.10035 0.0
C2676 C 0.88053 0.12527 0.08856 0.0
C2677 C 0.86894 0.11373 0.08342 0.0
C2678 C 0.88416 0.10636 0.11936 0.0
C2679 C 0.88732 0.13979 0.08133 0.0
C2680 C 0.90642 0.15775 0.1202 0.0
C2681 C 0.91979 0.15892 0.11767 0.0
C2682 C 0.89527 0.14609 0.11471 0.0
C2683 C 0.89753 0.13541 0.10633 0.0
C2684 C 0.91107 0.13648 0.10386 0.0
C2685 C 0.92204 0.14824 0.10957 0.0
C2686 C 0.88108 0.1454 0.11765 0.0
C2687 C 0.91397 0.12542 0.09496 0.0
H2688 H 0.86271 0.08732 0.10636 0.0
H2689 H 0.86511 0.11538 0.07435 0.0
H2690 H 0.89504 0.10798 0.11836 0.0
H2691 H 0.88346 0.11463 0.12667 0.0
H2692 H 0.87821 0.09481 0.12292 0.0
H2693 H 0.88211 0.13978 0.0723 0.0
H2694 H 0.88743 0.14946 0.08741 0.0
H2695 H 0.89809 0.14164 0.07897 0.0
H2696 H 0.90474 0.16626 0.12621 0.0
H2697 H 0.93242 0.14941 0.10736 0.0
H2698 H 0.87455 0.1342 0.12152 0.0
H2699 H 0.87642 0.14686 0.10871 0.0
H2700 H 0.881 0.15424 0.12469 0.0
H2701 H 0.90899 0.11386 0.09881 0.0
H2702 H 0.92506 0.12812 0.09365 0.0
H2703 H 0.90963 0.12533 0.08544 0.0
C2704 C 0.20744 0.2142 0.43749 0.0
C2705 C 0.20384 0.22674 0.43849 0.0
C2706 C 0.19848 0.20044 0.43213 0.0
C2707 C 0.18556 0.19918 0.42786 0.0
C2708 C 0.18174 0.21167 0.42933 0.0
C2709 C 0.19092 0.22526 0.43455 0.0
C2710 C 0.20297 0.18741 0.4307 0.0
C2711 C 0.168 0.21075 0.42521 0.0
C2712 C 0.16789 0.16969 0.40219 0.0
C2713 C 0.15853 0.15806 0.40953 0.0
C2714 C 0.17668 0.18316 0.40802 0.0
C2715 C 0.17612 0.185 0.42153 0.0
C2716 C 0.16639 0.17339 0.42893 0.0
C2717 C 0.15778 0.16004 0.42284 0.0
C2718 C 0.18692 0.19518 0.39977 0.0
C2719 C 0.16545 0.17478 0.44334 0.0
H2720 H 0.21743 0.21531 0.44048 0.0
H2721 H 0.18803 0.23487 0.43547 0.0
H2722 H 0.19537 0.17727 0.43538 0.0
H2723 H 0.20358 0.18456 0.42039 0.0
H2724 H 0.21306 0.18997 0.43493 0.0
H2725 H 0.16646 0.22135 0.42727 0.0
H2726 H 0.16695 0.20828 0.41477 0.0
H2727 H 0.15978 0.20137 0.4302 0.0
H2728 H 0.1688 0.16792 0.39195 0.0
H2729 H 0.15087 0.15081 0.42856 0.0
H2730 H 0.1974 0.19688 0.40248 0.0
H2731 H 0.18579 0.20608 0.40138 0.0
H2732 H 0.1858 0.19223 0.3894 0.0
H2733 H 0.17472 0.1744 0.44756 0.0
H2734 H 0.1564 0.16556 0.44753 0.0
H2735 H 0.16497 0.18575 0.44617 0.0
C2736 C 0.13066 0.93455 0.69387 0.0
C2737 C 0.12549 0.94593 0.69485 0.0
C2738 C 0.14137 0.93562 0.68515 0.0
C2739 C 0.14703 0.94832 0.67713 0.0
C2740 C 0.14205 0.95997 0.67821 0.0
C2741 C 0.13145 0.95869 0.68709 0.0
C2742 C 0.14655 0.92308 0.68442 0.0
C2743 C 0.1479 0.9738 0.66996 0.0
C2744 C 0.18306 0.95841 0.66388 0.0
C2745 C 0.18105 0.95455 0.65078 0.0
C2746 C 0.17214 0.95666 0.67242 0.0
C2747 C 0.15867 0.94986 0.66809 0.0
C2748 C 0.15641 0.94493 0.65513 0.0
C2749 C 0.16763 0.94753 0.64657 0.0
C2750 C 0.17508 0.96255 0.68602 0.0
C2751 C 0.14215 0.93716 0.65027 0.0
H2752 H 0.12609 0.92456 0.69966 0.0
H2753 H 0.1278 0.96773 0.68793 0.0
H2754 H 0.14576 0.91846 0.67449 0.0
H2755 H 0.15748 0.92753 0.68683 0.0
H2756 H 0.14082 0.91375 0.69104 0.0
H2757 H 0.14309 0.982 0.67216 0.0
H2758 H 0.15903 0.97952 0.67134 0.0
H2759 H 0.14641 0.97047 0.6597 0.0
H2760 H 0.19329 0.96319 0.6675 0.0
H2761 H 0.16585 0.94443 0.63655 0.0
H2762 H 0.17035 0.95324 0.69289 0.0
H2763 H 0.17055 0.971 0.6881 0.0
H2764 H 0.18618 0.96792 0.68778 0.0
H2765 H 0.13643 0.9271 0.65615 0.0
H2766 H 0.14209 0.93355 0.64007 0.0
H2767 H 0.13664 0.94483 0.65126 0.0
C2768 C 0.39057 0.84109 0.96337 0.0
C2769 C 0.40152 0.83685 0.96544 0.0
C2770 C 0.39211 0.85323 0.95541 0.0
C2771 C 0.40495 0.86146 0.94946 0.0
C2772 C 0.41622 0.85772 0.95206 0.0
C2773 C 0.41435 0.84543 0.95995 0.0
C2774 C 0.37982 0.85674 0.95282 0.0
C2775 C 0.43016 0.86641 0.94617 0.0
C2776 C 0.40621 0.87979 0.91733 0.0
C2777 C 0.40958 0.89492 0.92087 0.0
C2778 C 0.4044 0.86878 0.92657 0.0
C2779 C 0.40629 0.87305 0.93969 0.0
C2780 C 0.40959 0.88833 0.94333 0.0
C2781 C 0.41107 0.89907 0.93387 0.0
C2782 C 0.40085 0.85264 0.92225 0.0
C2783 C 0.41199 0.89341 0.95715 0.0
H2784 H 0.3806 0.83444 0.96747 0.0
H2785 H 0.4229 0.84234 0.96166 0.0
H2786 H 0.38213 0.86889 0.95455 0.0
H2787 H 0.37714 0.85426 0.9426 0.0
H2788 H 0.37081 0.85005 0.95888 0.0
H2789 H 0.43798 0.86251 0.94959 0.0
H2790 H 0.4298 0.86516 0.93558 0.0
H2791 H 0.43338 0.8786 0.94848 0.0
H2792 H 0.4053 0.87664 0.90725 0.0
H2793 H 0.41402 0.91084 0.93657 0.0
H2794 H 0.39156 0.84508 0.9275 0.0
H2795 H 0.40924 0.84908 0.92449 0.0
H2796 H 0.39905 0.85104 0.9118 0.0
H2797 H 0.40262 0.88753 0.96304 0.0
H2798 H 0.41496 0.90576 0.95836 0.0
H2799 H 0.42014 0.89035 0.96098 0.0
C2800 C 0.41019 0.06163 0.10698 0.0
C2801 C 0.40667 0.06123 0.1201 0.0
C2802 C 0.40025 0.05884 0.09761 0.0
C2803 C 0.38656 0.05577 0.10148 0.0
C2804 C 0.38289 0.05468 0.11469 0.0
C2805 C 0.39293 0.05725 0.12378 0.0
C2806 C 0.40447 0.05971 0.08361 0.0
C2807 C 0.36838 0.05122 0.11927 0.0
C2808 C 0.36179 0.06538 0.08187 0.0
C2809 C 0.35267 0.05101 0.07813 0.0
C2810 C 0.37345 0.06719 0.08873 0.0
C2811 C 0.37603 0.05434 0.09194 0.0
C2812 C 0.36735 0.03994 0.08741 0.0
C2813 C 0.35584 0.03847 0.08049 0.0
C2814 C 0.38249 0.08276 0.09334 0.0
C2815 C 0.36983 0.02598 0.09044 0.0
H2816 H 0.42076 0.06465 0.10401 0.0
H2817 H 0.39003 0.05642 0.13388 0.0
H2818 H 0.39761 0.04963 0.07832 0.0
H2819 H 0.40359 0.0697 0.07934 0.0
H2820 H 0.41513 0.06058 0.08215 0.0
H2821 H 0.36719 0.0506 0.12988 0.0
H2822 H 0.36503 0.06006 0.11597 0.0
H2823 H 0.36146 0.04032 0.1151 0.0
H2824 H 0.35941 0.07511 0.08006 0.0
H2825 H 0.34902 0.02737 0.07731 0.0
H2826 H 0.39335 0.08495 0.09115 0.0
H2827 H 0.38127 0.08355 0.1039 0.0
H2828 H 0.38 0.09171 0.0889 0.0
H2829 H 0.38003 0.02709 0.08665 0.0
H2830 H 0.36204 0.01558 0.08629 0.0
H2831 H 0.36976 0.02465 0.10097 0.0
C2832 C 0.03366 0.68045 0.06988 0.0
C2833 C 0.04669 0.68453 0.06415 0.0
C2834 C 0.03117 0.68924 0.07987 0.0
C2835 C 0.04193 0.70251 0.08408 0.0
C2836 C 0.05529 0.70603 0.07897 0.0
C2837 C 0.05749 0.69705 0.06903 0.0
C2838 C 0.01702 0.68444 0.08579 0.0
C2839 C 0.06723 0.71948 0.0838 0.0
C2840 C 0.03695 0.73689 0.09853 0.0
C2841 C 0.03659 0.73426 0.11167 0.0
C2842 C 0.03781 0.72615 0.08944 0.0
C2843 C 0.03927 0.71295 0.09362 0.0
C2844 C 0.03881 0.71023 0.10689 0.0
C2845 C 0.03699 0.72063 0.11561 0.0
C2846 C 0.03727 0.72896 0.07536 0.0
C2847 C 0.04068 0.69675 0.11224 0.0
H2848 H 0.02535 0.67058 0.06633 0.0
H2849 H 0.06759 0.70028 0.06465 0.0
H2850 H 0.01717 0.68131 0.09591 0.0
H2851 H 0.01355 0.69392 0.08578 0.0
H2852 H 0.00951 0.67461 0.08068 0.0
H2853 H 0.07714 0.71949 0.08009 0.0
H2854 H 0.0664 0.73003 0.08075 0.0
H2855 H 0.0672 0.71963 0.09444 0.0
H2856 H 0.03681 0.74746 0.09537 0.0
H2857 H 0.0363 0.71814 0.12564 0.0
H2858 H 0.04673 0.72944 0.07027 0.0
H2859 H 0.03592 0.73963 0.07366 0.0
H2860 H 0.02867 0.71945 0.07107 0.0
H2861 H 0.03085 0.68901 0.11655 0.0
H2862 H 0.04812 0.70045 0.12008 0.0
H2863 H 0.04426 0.69038 0.10501 0.0
C2864 C 0.28532 0.77709 0.41244 0.0
C2865 C 0.29869 0.77757 0.41149 0.0
C2866 C 0.2816 0.78582 0.42165 0.0
C2867 C 0.29144 0.79524 0.43019 0.0
C2868 C 0.30457 0.79471 0.43006 0.0
C2869 C 0.30805 0.78595 0.42069 0.0
C2870 C 0.26738 0.78566 0.42166 0.0
C2871 C 0.31522 0.80411 0.43935 0.0
C2872 C 0.29248 0.83333 0.44209 0.0
C2873 C 0.28888 0.83049 0.45505 0.0
C2874 C 0.29237 0.82163 0.43365 0.0
C2875 C 0.28868 0.80681 0.43834 0.0
C2876 C 0.28393 0.80369 0.45119 0.0
C2877 C 0.28402 0.81556 0.45936 0.0
C2878 C 0.29733 0.82539 0.41997 0.0
C2879 C 0.27965 0.78805 0.45656 0.0
H2880 H 0.27788 0.7703 0.40563 0.0
H2881 H 0.31837 0.7864 0.42014 0.0
H2882 H 0.26315 0.78517 0.43157 0.0
H2883 H 0.26771 0.79623 0.41738 0.0
H2884 H 0.26035 0.77598 0.41604 0.0
H2885 H 0.32452 0.80153 0.43872 0.0
H2886 H 0.31818 0.81625 0.43734 0.0
H2887 H 0.31103 0.8022 0.44933 0.0
H2888 H 0.29641 0.84486 0.43879 0.0
H2889 H 0.28129 0.81339 0.46943 0.0
H2890 H 0.29014 0.81725 0.41327 0.0
H2891 H 0.30735 0.82447 0.41851 0.0
H2892 H 0.2985 0.83697 0.41745 0.0
H2893 H 0.27072 0.78014 0.45138 0.0
H2894 H 0.27691 0.78769 0.46695 0.0
H2895 H 0.28797 0.7839 0.45512 0.0
C2896 C 0.4788 0.25377 0.53019 0.0
C2897 C 0.48517 0.26918 0.52749 0.0
C2898 C 0.48271 0.24763 0.54061 0.0
C2899 C 0.49322 0.25714 0.5485 0.0
C2900 C 0.50019 0.27253 0.54544 0.0
C2901 C 0.49609 0.27837 0.53493 0.0
C2902 C 0.47502 0.23116 0.54363 0.0
C2903 C 0.51148 0.28299 0.55365 0.0
C2904 C 0.49021 0.24588 0.58324 0.0
C2905 C 0.49999 0.23957 0.58376 0.0
C2906 C 0.48812 0.2519 0.57186 0.0
C2907 C 0.49586 0.25133 0.56069 0.0
C2908 C 0.50575 0.24492 0.56117 0.0
C2909 C 0.5078 0.23921 0.57279 0.0
C2910 C 0.4777 0.25895 0.57182 0.0
C2911 C 0.51402 0.24393 0.5494 0.0
H2912 H 0.47023 0.24663 0.5246 0.0
H2913 H 0.50117 0.29024 0.53277 0.0
H2914 H 0.48223 0.22566 0.54525 0.0
H2915 H 0.46882 0.23013 0.55259 0.0
H2916 H 0.46812 0.22497 0.53583 0.0
H2917 H 0.51637 0.29445 0.54957 0.0
H2918 H 0.50735 0.28397 0.56339 0.0
H2919 H 0.5194 0.27832 0.55475 0.0
H2920 H 0.48439 0.24637 0.59186 0.0
H2921 H 0.5154 0.23435 0.57331 0.0
H2922 H 0.4697 0.25293 0.56485 0.0
H2923 H 0.48262 0.27086 0.56876 0.0
H2924 H 0.47272 0.2587 0.5814 0.0
H2925 H 0.50719 0.23617 0.54226 0.0
H2926 H 0.52204 0.23975 0.55163 0.0
H2927 H 0.51891 0.25513 0.54488 0.0
C2928 C 0.1968 0.20191 0.87142 0.0
C2929 C 0.20621 0.21681 0.87045 0.0
C2930 C 0.19914 0.19164 0.87926 0.0
C2931 C 0.21123 0.19638 0.88635 0.0
C2932 C 0.22119 0.21123 0.88481 0.0
C2933 C 0.21855 0.22132 0.87683 0.0
C2934 C 0.18818 0.17599 0.88063 0.0
C2935 C 0.23439 0.21656 0.89188 0.0
C2936 C 0.20484 0.17539 0.91749 0.0
C2937 C 0.20711 0.16238 0.91375 0.0
C2938 C 0.20692 0.18704 0.90888 0.0
C2939 C 0.21235 0.18628 0.89644 0.0
C2940 C 0.2165 0.1743 0.89322 0.0
C2941 C 0.21354 0.16229 0.90178 0.0
C2942 C 0.20213 0.19945 0.91276 0.0
C2943 C 0.22319 0.1736 0.88039 0.0
H2944 H 0.18727 0.19849 0.86644 0.0
H2945 H 0.2258 0.23288 0.87604 0.0
H2946 H 0.19251 0.16737 0.87857 0.0
H2947 H 0.18406 0.17438 0.89064 0.0
H2948 H 0.17962 0.17393 0.87409 0.0
H2949 H 0.24077 0.22863 0.89014 0.0
H2950 H 0.23236 0.21495 0.90235 0.0
H2951 H 0.24028 0.2097 0.88877 0.0
H2952 H 0.20073 0.17618 0.92699 0.0
H2953 H 0.21565 0.15255 0.89876 0.0
H2954 H 0.19336 0.19854 0.90688 0.0
H2955 H 0.21031 0.21067 0.91096 0.0
H2956 H 0.19888 0.1989 0.92303 0.0
H2957 H 0.21526 0.16891 0.87309 0.0
H2958 H 0.22903 0.16624 0.88067 0.0
H2959 H 0.23017 0.18501 0.87728 0.0
C2960 C 0.78758 0.28719 0.89647 0.0
C2961 C 0.80121 0.29261 0.8921 0.0
C2962 C 0.78346 0.2943 0.90679 0.0
C2963 C 0.79316 0.30735 0.91259 0.0
C2964 C 0.80697 0.31274 0.9082 0.0
C2965 C 0.81083 0.30523 0.89807 0.0
C2966 C 0.76869 0.28808 0.91123 0.0
C2967 C 0.81767 0.32658 0.91412 0.0
C2968 C 0.78684 0.33836 0.93138 0.0
C2969 C 0.78951 0.33537 0.94383 0.0
C2970 C 0.78647 0.32834 0.92117 0.0
C2971 C 0.78925 0.31537 0.92345 0.0
C2972 C 0.79055 0.31159 0.93619 0.0
C2973 C 0.79027 0.32141 0.94623 0.0
C2974 C 0.78423 0.33229 0.9078 0.0
C2975 C 0.7934 0.29783 0.93914 0.0
H2976 H 0.78015 0.27745 0.89174 0.0
H2977 H 0.82133 0.30948 0.89455 0.0
H2978 H 0.76779 0.28704 0.92181 0.0
H2979 H 0.76393 0.29598 0.90862 0.0
H2980 H 0.76284 0.27687 0.90684 0.0
H2981 H 0.82796 0.32921 0.9097 0.0
H2982 H 0.81493 0.33647 0.91301 0.0
H2983 H 0.81814 0.32492 0.92455 0.0
H2984 H 0.78596 0.34894 0.92946 0.0
H2985 H 0.79168 0.31867 0.95593 0.0
H2986 H 0.77732 0.32214 0.90262 0.0
H2987 H 0.79411 0.33663 0.90238 0.0
H2988 H 0.77984 0.34104 0.90787 0.0
H2989 H 0.78503 0.28751 0.93567 0.0
H2990 H 0.7945 0.29671 0.94956 0.0
H2991 H 0.80292 0.29841 0.93407 0.0
C2992 C 0.97272 0.7453 0.06981 0.0
C2993 C 0.97946 0.76086 0.06796 0.0
C2994 C 0.97593 0.73812 0.07999 0.0
C2995 C 0.98632 0.74661 0.08847 0.0
C2996 C 0.99332 0.76232 0.08658 0.0
C2997 C 0.98974 0.76927 0.0764 0.0
C2998 C 0.96804 0.72142 0.08176 0.0
C2999 C 1.00462 0.77177 0.09524 0.0
C3000 C 0.98444 0.73027 0.12157 0.0
C3001 C 0.99318 0.72248 0.12021 0.0
C3002 C 0.98255 0.73859 0.11153 0.0
C3003 C 0.98938 0.73902 0.09959 0.0
C3004 C 0.99827 0.73126 0.09809 0.0
C3005 C 1.00014 0.72315 0.10843 0.0
C3006 C 0.97274 0.74635 0.11361 0.0
C3007 C 1.00585 0.7315 0.08557 0.0
H3008 H 0.96461 0.73875 0.06348 0.0
H3009 H 0.99505 0.78129 0.07499 0.0
H3010 H 0.97506 0.71542 0.0808 0.0
H3011 H 0.96332 0.71928 0.09154 0.0
H3012 H 0.9599 0.71654 0.07465 0.0
H3013 H 1.00811 0.78401 0.09332 0.0
H3014 H 1.00129 0.76984 0.10546 0.0
H3015 H 0.0134 0.76836 0.09379 0.0
H3016 H 0.97889 0.72976 0.13055 0.0
H3017 H 1.00684 0.71713 0.10723 0.0
H3018 H 0.96314 0.7398 0.10863 0.0
H3019 H 0.97694 0.75785 0.1096 0.0
H3020 H 0.97026 0.74724 0.12393 0.0
H3021 H 1.00934 0.72205 0.08485 0.0
H3022 H 0.01483 0.74232 0.08492 0.0
H3023 H 0.99949 0.73079 0.0772 0.0
C3024 C 0.72345 0.71628 0.39646 0.0
C3025 C 0.71109 0.71834 0.39765 0.0
C3026 C 0.72601 0.70596 0.40428 0.0
C3027 C 0.71597 0.69748 0.41341 0.0
C3028 C 0.70372 0.69987 0.41489 0.0
C3029 C 0.70139 0.7101 0.40696 0.0
C3030 C 0.73944 0.70417 0.40285 0.0
C3031 C 0.69288 0.69143 0.42476 0.0
C3032 C 0.71131 0.65837 0.42407 0.0
C3033 C 0.71456 0.66096 0.43701 0.0
C3034 C 0.71266 0.67036 0.41601 0.0
C3035 C 0.71765 0.68535 0.42095 0.0
C3036 C 0.72205 0.68809 0.43378 0.0
C3037 C 0.72027 0.67583 0.4417 0.0
C3038 C 0.70757 0.66684 0.40252 0.0
C3039 C 0.72763 0.70373 0.43963 0.0
H3040 H 0.73114 0.72278 0.3895 0.0
H3041 H 0.69173 0.71136 0.4079 0.0
H3042 H 0.74481 0.7071 0.41207 0.0
H3043 H 0.7377 0.69225 0.40059 0.0
H3044 H 0.74613 0.71139 0.3952 0.0
H3045 H 0.68383 0.69444 0.42458 0.0
H3046 H 0.68952 0.6791 0.42308 0.0
H3047 H 0.69715 0.69398 0.43448 0.0
H3048 H 0.70675 0.64686 0.4205 0.0
H3049 H 0.72278 0.67786 0.45173 0.0
H3050 H 0.71528 0.67414 0.39558 0.0
H3051 H 0.69823 0.66921 0.40173 0.0
H3052 H 0.70511 0.65486 0.39976 0.0
H3053 H 0.7363 0.7051 0.44584 0.0
H3054 H 0.7196 0.70532 0.44582 0.0
H3055 H 0.73109 0.71268 0.43233 0.0
C3056 C 0.92277 0.33292 0.44116 0.0
C3057 C 0.91256 0.32747 0.45081 0.0
C3058 C 0.9242 0.34558 0.4339 0.0
C3059 C 0.9154 0.35325 0.43646 0.0
C3060 C 0.90554 0.3483 0.44659 0.0
C3061 C 0.90417 0.33544 0.45356 0.0
C3062 C 0.93489 0.35046 0.42322 0.0
C3063 C 0.89612 0.3563 0.44978 0.0
C3064 C 0.92606 0.39262 0.4226 0.0
C3065 C 0.91829 0.38965 0.41155 0.0
C3066 C 0.92497 0.38098 0.431 0.0
C3067 C 0.91606 0.36596 0.42814 0.0
C3068 C 0.90803 0.363 0.41707 0.0
C3069 C 0.90923 0.37489 0.40892 0.0
C3070 C 0.9337 0.38468 0.44267 0.0
C3071 C 0.89862 0.34714 0.41351 0.0
H3072 H 0.92956 0.32715 0.43913 0.0
H3073 H 0.89616 0.33135 0.46086 0.0
H3074 H 0.92996 0.34998 0.41394 0.0
H3075 H 0.94197 0.36231 0.42483 0.0
H3076 H 0.94091 0.34328 0.42243 0.0
H3077 H 0.88984 0.35192 0.45862 0.0
H3078 H 0.90208 0.36857 0.45109 0.0
H3079 H 0.88921 0.35489 0.44171 0.0
H3080 H 0.93333 0.40399 0.42443 0.0
H3081 H 0.90353 0.37255 0.40018 0.0
H3082 H 0.94138 0.37956 0.4416 0.0
H3083 H 0.92736 0.37984 0.45137 0.0
H3084 H 0.93913 0.39703 0.44417 0.0
H3085 H 0.90468 0.34017 0.41147 0.0
H3086 H 0.8926 0.3468 0.40495 0.0
H3087 H 0.89148 0.3419 0.42163 0.0
C3088 C 0.71644 0.73178 0.95029 0.0
C3089 C 0.71118 0.74095 0.95737 0.0
C3090 C 0.70769 0.71842 0.94426 0.0
C3091 C 0.69336 0.71428 0.94523 0.0
C3092 C 0.68807 0.72345 0.95258 0.0
C3093 C 0.69705 0.73667 0.95855 0.0
C3094 C 0.71375 0.70884 0.93671 0.0
C3095 C 0.67292 0.71939 0.954 0.0
C3096 C 0.6717 0.68703 0.91974 0.0
C3097 C 0.66721 0.67328 0.92615 0.0
C3098 C 0.67997 0.70055 0.92593 0.0
C3099 C 0.68388 0.70025 0.93876 0.0
C3100 C 0.67884 0.68646 0.94539 0.0
C3101 C 0.67049 0.67323 0.93906 0.0
C3102 C 0.685 0.71507 0.91858 0.0
C3103 C 0.68287 0.68546 0.95895 0.0
H3104 H 0.7274 0.73522 0.94928 0.0
H3105 H 0.69304 0.74389 0.96393 0.0
H3106 H 0.70947 0.69713 0.94031 0.0
H3107 H 0.71104 0.7083 0.9265 0.0
H3108 H 0.72503 0.7133 0.93727 0.0
H3109 H 0.67044 0.72782 0.95988 0.0
H3110 H 0.66847 0.71851 0.94441 0.0
H3111 H 0.66794 0.70822 0.95855 0.0
H3112 H 0.66937 0.68708 0.90972 0.0
H3113 H 0.6671 0.66258 0.94401 0.0
H3114 H 0.69622 0.71921 0.91711 0.0
H3115 H 0.68278 0.72387 0.92414 0.0
H3116 H 0.68027 0.71365 0.90906 0.0
H3117 H 0.69384 0.68742 0.95901 0.0
H3118 H 0.67693 0.67426 0.96321 0.0
H3119 H 0.68142 0.69427 0.96516 0.0
C3120 C 0.8478 0.61969 0.88956 0.0
C3121 C 0.8461 0.6085 0.89859 0.0
C3122 C 0.86048 0.62747 0.88341 0.0
C3123 C 0.87183 0.62406 0.88638 0.0
C3124 C 0.87014 0.61261 0.89532 0.0
C3125 C 0.85729 0.60489 0.90125 0.0
C3126 C 0.86178 0.63958 0.87395 0.0
C3127 C 0.8821 0.60909 0.89916 0.0
C3128 C 0.90486 0.63911 0.8659 0.0
C3129 C 0.91223 0.65282 0.87222 0.0
C3130 C 0.89154 0.62977 0.87016 0.0
C3131 C 0.88573 0.63376 0.88138 0.0
C3132 C 0.89309 0.64742 0.88783 0.0
C3133 C 0.90574 0.657 0.88282 0.0
C3134 C 0.8836 0.61572 0.86257 0.0
C3135 C 0.88761 0.65215 0.90002 0.0
H3136 H 0.83917 0.62239 0.88728 0.0
H3137 H 0.85611 0.59639 0.9083 0.0
H3138 H 0.86852 0.65076 0.87775 0.0
H3139 H 0.86653 0.63763 0.86481 0.0
H3140 H 0.85178 0.64001 0.87191 0.0
H3141 H 0.87897 0.59921 0.90557 0.0
H3142 H 0.88744 0.60683 0.89055 0.0
H3143 H 0.88952 0.61901 0.90423 0.0
H3144 H 0.90935 0.63565 0.85761 0.0
H3145 H 0.91033 0.66797 0.88735 0.0
H3146 H 0.87379 0.61607 0.85972 0.0
H3147 H 0.88113 0.60564 0.86859 0.0
H3148 H 0.88928 0.61443 0.8538 0.0
H3149 H 0.87936 0.65591 0.89773 0.0
H3150 H 0.89563 0.66156 0.90509 0.0
H3151 H 0.88325 0.64256 0.9067 0.0
C3152 C 0.29812 0.20748 0.69224 0.0
C3153 C 0.30337 0.20067 0.6826 0.0
C3154 C 0.29325 0.21866 0.68925 0.0
C3155 C 0.29294 0.22246 0.67626 0.0
C3156 C 0.29765 0.21503 0.66651 0.0
C3157 C 0.30307 0.20451 0.66981 0.0
C3158 C 0.28858 0.2265 0.69999 0.0
C3159 C 0.29675 0.218 0.65253 0.0
C3160 C 0.26859 0.24092 0.66761 0.0
C3161 C 0.27743 0.25606 0.6664 0.0
C3162 C 0.27351 0.22984 0.67064 0.0
C3163 C 0.28759 0.23407 0.67274 0.0
C3164 C 0.29655 0.24938 0.67133 0.0
C3165 C 0.29137 0.26017 0.66813 0.0
C3166 C 0.26353 0.21374 0.67217 0.0
C3167 C 0.31146 0.25464 0.67413 0.0
H3168 H 0.29813 0.20431 0.70212 0.0
H3169 H 0.30679 0.19894 0.66233 0.0
H3170 H 0.29496 0.23875 0.6999 0.0
H3171 H 0.27791 0.22519 0.69859 0.0
H3172 H 0.28922 0.22205 0.70955 0.0
H3173 H 0.30098 0.21142 0.6461 0.0
H3174 H 0.28595 0.21512 0.65014 0.0
H3175 H 0.30234 0.23011 0.65062 0.0
H3176 H 0.25773 0.23788 0.66675 0.0
H3177 H 0.2981 0.27199 0.66775 0.0
H3178 H 0.26273 0.21057 0.6824 0.0
H3179 H 0.26714 0.20596 0.66663 0.0
H3180 H 0.25319 0.21205 0.66898 0.0
H3181 H 0.3125 0.25511 0.68464 0.0
H3182 H 0.31745 0.26608 0.67036 0.0
H3183 H 0.31584 0.2467 0.67005 0.0
C3184 C 0.69196 0.38506 0.36548 0.0
C3185 C 0.69147 0.39764 0.35931 0.0
C3186 C 0.68073 0.37109 0.3656 0.0
C3187 C 0.66854 0.3696 0.35961 0.0
C3188 C 0.66812 0.38204 0.35295 0.0
C3189 C 0.67958 0.39577 0.35276 0.0
C3190 C 0.68174 0.35801 0.37251 0.0
C3191 C 0.65536 0.38107 0.34644 0.0
C3192 C 0.64038 0.33129 0.35211 0.0
C3193 C 0.6309 0.32994 0.36216 0.0
C3194 C 0.65293 0.3438 0.35141 0.0
C3195 C 0.656 0.35536 0.3609 0.0
C3196 C 0.64664 0.35371 0.37134 0.0
C3197 C 0.63425 0.34102 0.37184 0.0
C3198 C 0.66249 0.34507 0.34008 0.0
C3199 C 0.64933 0.36583 0.38155 0.0
H3200 H 0.70095 0.38623 0.37066 0.0
H3201 H 0.67909 0.40516 0.34761 0.0
H3202 H 0.67444 0.35493 0.38082 0.0
H3203 H 0.67891 0.34799 0.36604 0.0
H3204 H 0.69215 0.36063 0.37601 0.0
H3205 H 0.65699 0.39131 0.34085 0.0
H3206 H 0.65168 0.37111 0.33992 0.0
H3207 H 0.64716 0.37963 0.35377 0.0
H3208 H 0.6376 0.32303 0.34435 0.0
H3209 H 0.62672 0.34029 0.37934 0.0
H3210 H 0.67302 0.34795 0.34334 0.0
H3211 H 0.66275 0.35431 0.33381 0.0
H3212 H 0.65934 0.33448 0.33428 0.0
H3213 H 0.65934 0.36828 0.38589 0.0
H3214 H 0.64132 0.36261 0.38928 0.0
H3215 H 0.64979 0.37641 0.37718 0.0
C3216 C 0.26638 0.82549 0.16369 0.0
C3217 C 0.25239 0.81775 0.16176 0.0
C3218 C 0.27467 0.81768 0.16647 0.0
C3219 C 0.2688 0.80177 0.16744 0.0
C3220 C 0.25461 0.79395 0.16594 0.0
C3221 C 0.24662 0.802 0.16302 0.0
C3222 C 0.2898 0.8264 0.16777 0.0
C3223 C 0.24792 0.77701 0.16711 0.0
C3224 C 0.28961 0.77885 0.15797 0.0
C3225 C 0.29459 0.77662 0.16974 0.0
C3226 C 0.28186 0.78762 0.15712 0.0
C3227 C 0.27765 0.79312 0.16844 0.0
C3228 C 0.28161 0.79 0.18048 0.0
C3229 C 0.2904 0.78225 0.18097 0.0
C3230 C 0.27825 0.79108 0.14402 0.0
C3231 C 0.27673 0.79499 0.19283 0.0
H3232 H 0.27089 0.83766 0.16292 0.0
H3233 H 0.23586 0.79587 0.16137 0.0
H3234 H 0.29326 0.82356 0.17687 0.0
H3235 H 0.29537 0.82318 0.15982 0.0
H3236 H 0.29265 0.83878 0.16757 0.0
H3237 H 0.23674 0.77264 0.16583 0.0
H3238 H 0.25232 0.77148 0.15983 0.0
H3239 H 0.24991 0.77364 0.17667 0.0
H3240 H 0.29176 0.77384 0.14921 0.0
H3241 H 0.29405 0.78077 0.19018 0.0
H3242 H 0.28116 0.8034 0.14307 0.0
H3243 H 0.26709 0.78555 0.14277 0.0
H3244 H 0.28343 0.78718 0.13614 0.0
H3245 H 0.28235 0.8073 0.19424 0.0
H3246 H 0.27839 0.78916 0.20125 0.0
H3247 H 0.26572 0.79281 0.19249 0.0
C3248 C 0.75591 0.31527 0.68769 0.0
C3249 C 0.74516 0.31372 0.67966 0.0
C3250 C 0.76367 0.30641 0.68573 0.0
C3251 C 0.76071 0.29591 0.67536 0.0
C3252 C 0.74967 0.29411 0.6674 0.0
C3253 C 0.74205 0.30304 0.66965 0.0
C3254 C 0.77512 0.30844 0.69464 0.0
C3255 C 0.74612 0.28301 0.6563 0.0
C3256 C 0.78957 0.28436 0.66335 0.0
C3257 C 0.78579 0.2701 0.66882 0.0
C3258 C 0.78129 0.2927 0.66507 0.0
C3259 C 0.76918 0.28686 0.67278 0.0
C3260 C 0.76519 0.27235 0.67806 0.0
C3261 C 0.77324 0.26398 0.67561 0.0
C3262 C 0.78574 0.30797 0.65898 0.0
C3263 C 0.75268 0.26583 0.6867 0.0
H3264 H 0.75837 0.32357 0.69541 0.0
H3265 H 0.73399 0.30213 0.66324 0.0
H3266 H 0.77403 0.29739 0.69851 0.0
H3267 H 0.78503 0.31304 0.68928 0.0
H3268 H 0.77542 0.31621 0.70279 0.0
H3269 H 0.73775 0.28359 0.65058 0.0
H3270 H 0.75521 0.28517 0.64991 0.0
H3271 H 0.74291 0.27138 0.65991 0.0
H3272 H 0.79925 0.28931 0.65818 0.0
H3273 H 0.76999 0.2528 0.67959 0.0
H3274 H 0.78853 0.31689 0.66653 0.0
H3275 H 0.77723 0.30878 0.65365 0.0
H3276 H 0.79464 0.31026 0.65229 0.0
H3277 H 0.75283 0.27406 0.69441 0.0
H3278 H 0.75191 0.25522 0.69125 0.0
H3279 H 0.74342 0.26341 0.68109 0.0
C3280 C 0.34376 0.1096 0.3804 0.0
C3281 C 0.3374 0.09379 0.37974 0.0
C3282 C 0.35601 0.11749 0.37361 0.0
C3283 C 0.36228 0.10943 0.36605 0.0
C3284 C 0.35614 0.09347 0.36555 0.0
C3285 C 0.34378 0.08585 0.37236 0.0
C3286 C 0.3622 0.1345 0.37449 0.0
C3287 C 0.36261 0.08447 0.35776 0.0
C3288 C 0.38792 0.13224 0.34037 0.0
C3289 C 0.40019 0.1366 0.34681 0.0
C3290 C 0.37551 0.1229 0.34632 0.0
C3291 C 0.37544 0.11777 0.35896 0.0
C3292 C 0.38795 0.12155 0.36519 0.0
C3293 C 0.40014 0.13094 0.35906 0.0
C3294 C 0.3624 0.11926 0.33938 0.0
C3295 C 0.38843 0.11643 0.37864 0.0
H3296 H 0.33914 0.11588 0.38627 0.0
H3297 H 0.33895 0.07367 0.37166 0.0
H3298 H 0.37262 0.1384 0.3783 0.0
H3299 H 0.36315 0.13931 0.36479 0.0
H3300 H 0.35604 0.13909 0.38075 0.0
H3301 H 0.35648 0.07215 0.35816 0.0
H3302 H 0.3639 0.08798 0.3476 0.0
H3303 H 0.37292 0.08675 0.36133 0.0
H3304 H 0.38792 0.13685 0.33101 0.0
H3305 H 0.40963 0.13446 0.3641 0.0
H3306 H 0.35626 0.1249 0.34437 0.0
H3307 H 0.35625 0.10695 0.33952 0.0
H3308 H 0.36424 0.12301 0.32927 0.0
H3309 H 0.38391 0.12233 0.38548 0.0
H3310 H 0.39901 0.11881 0.38154 0.0
H3311 H 0.38232 0.10416 0.37951 0.0
C3312 C 0.78057 0.69209 0.20385 0.0
C3313 C 0.79426 0.69368 0.2044 0.0
C3314 C 0.77711 0.70429 0.20111 0.0
C3315 C 0.78748 0.7188 0.1998 0.0
C3316 C 0.80118 0.72089 0.20172 0.0
C3317 C 0.8045 0.70829 0.20365 0.0
C3318 C 0.7623 0.70157 0.1995 0.0
C3319 C 0.8122 0.7365 0.2022 0.0
C3320 C 0.78129 0.74935 0.18163 0.0
C3321 C 0.77702 0.75678 0.19157 0.0
C3322 C 0.7844 0.73673 0.18413 0.0
C3323 C 0.78392 0.73188 0.19692 0.0
C3324 C 0.77978 0.73936 0.20696 0.0
C3325 C 0.77578 0.75111 0.2041 0.0
C3326 C 0.78815 0.72848 0.17311 0.0
C3327 C 0.77931 0.73496 0.22083 0.0
H3328 H 0.77242 0.68118 0.20532 0.0
H3329 H 0.8151 0.70996 0.20435 0.0
H3330 H 0.75881 0.70722 0.20741 0.0
H3331 H 0.76101 0.70646 0.19038 0.0
H3332 H 0.75562 0.68938 0.19952 0.0
H3333 H 0.82251 0.73628 0.20175 0.0
H3334 H 0.81125 0.74344 0.19428 0.0
H3335 H 0.81105 0.74216 0.2113 0.0
H3336 H 0.78224 0.75335 0.1719 0.0
H3337 H 0.77157 0.75573 0.21189 0.0
H3338 H 0.78096 0.71648 0.173 0.0
H3339 H 0.79851 0.72866 0.17441 0.0
H3340 H 0.78792 0.73348 0.1637 0.0
H3341 H 0.76921 0.72603 0.22314 0.0
H3342 H 0.78067 0.74469 0.22738 0.0
H3343 H 0.78725 0.73061 0.22285 0.0
C3344 C 0.18646 0.88053 0.86574 0.0
C3345 C 0.18638 0.89133 0.85697 0.0
C3346 C 0.17554 0.86639 0.86673 0.0
C3347 C 0.1641 0.86291 0.85891 0.0
C3348 C 0.16407 0.87354 0.84979 0.0
C3349 C 0.17522 0.88751 0.84886 0.0
C3350 C 0.17607 0.85531 0.87643 0.0
C3351 C 0.15201 0.87047 0.84136 0.0
C3352 C 0.13778 0.82269 0.85441 0.0
C3353 C 0.12737 0.82249 0.8631 0.0
C3354 C 0.15008 0.8355 0.85335 0.0
C3355 C 0.15181 0.84858 0.86086 0.0
C3356 C 0.14149 0.84819 0.86996 0.0
C3357 C 0.12953 0.83509 0.8711 0.0
C3358 C 0.16084 0.83535 0.84362 0.0
C3359 C 0.1426 0.86199 0.87783 0.0
H3360 H 0.19485 0.88329 0.8722 0.0
H3361 H 0.17507 0.89554 0.84185 0.0
H3362 H 0.16794 0.85353 0.8839 0.0
H3363 H 0.17414 0.84422 0.87173 0.0
H3364 H 0.18605 0.85923 0.88118 0.0
H3365 H 0.15409 0.87921 0.83395 0.0
H3366 H 0.14911 0.85931 0.83653 0.0
H3367 H 0.14311 0.87018 0.84737 0.0
H3368 H 0.13593 0.81321 0.84786 0.0
H3369 H 0.12127 0.83519 0.87743 0.0
H3370 H 0.17099 0.83957 0.84804 0.0
H3371 H 0.16143 0.843 0.83565 0.0
H3372 H 0.15863 0.82389 0.83955 0.0
H3373 H 0.15206 0.86603 0.88339 0.0
H3374 H 0.13376 0.8598 0.88458 0.0
H3375 H 0.14323 0.87123 0.87137 0.0
C3376 C 0.85953 0.81717 0.58231 0.0
C3377 C 0.84559 0.80886 0.58469 0.0
C3378 C 0.86684 0.82992 0.58985 0.0
C3379 C 0.86001 0.83454 0.59993 0.0
C3380 C 0.84581 0.82657 0.602 0.0
C3381 C 0.8388 0.81381 0.5944 0.0
C3382 C 0.88196 0.83808 0.58735 0.0
C3383 C 0.83808 0.8313 0.61246 0.0
C3384 C 0.87976 0.85645 0.62864 0.0
C3385 C 0.88078 0.87108 0.62619 0.0
C3386 C 0.87321 0.84449 0.62007 0.0
C3387 C 0.86775 0.8473 0.60869 0.0
C3388 C 0.86918 0.86218 0.60599 0.0
C3389 C 0.87561 0.87386 0.6148 0.0
C3390 C 0.87177 0.82877 0.62338 0.0
C3391 C 0.86371 0.86572 0.59389 0.0
H3392 H 0.86486 0.81333 0.5749 0.0
H3393 H 0.82799 0.80752 0.59618 0.0
H3394 H 0.88463 0.85037 0.58648 0.0
H3395 H 0.88758 0.83652 0.59557 0.0
H3396 H 0.88553 0.83392 0.5785 0.0
H3397 H 0.82699 0.82424 0.61253 0.0
H3398 H 0.84211 0.83047 0.62194 0.0
H3399 H 0.83954 0.84324 0.61125 0.0
H3400 H 0.88369 0.85429 0.63748 0.0
H3401 H 0.87653 0.88523 0.61284 0.0
H3402 H 0.87596 0.82386 0.61542 0.0
H3403 H 0.86082 0.82142 0.62465 0.0
H3404 H 0.87706 0.82856 0.6323 0.0
H3405 H 0.86838 0.86226 0.58538 0.0
H3406 H 0.86576 0.8779 0.59317 0.0
H3407 H 0.85254 0.85921 0.59357 0.0
C3408 C 0.8998 0.08981 0.34713 0.0
C3409 C 0.90725 0.10536 0.34582 0.0
C3410 C 0.88725 0.08426 0.35399 0.0
C3411 C 0.88212 0.09448 0.35988 0.0
C3412 C 0.88981 0.1102 0.35889 0.0
C3413 C 0.9022 0.11543 0.35181 0.0
C3414 C 0.87929 0.06745 0.35469 0.0
C3415 C 0.88496 0.12152 0.36533 0.0
C3416 C 0.8445 0.08371 0.36893 0.0
C3417 C 0.84443 0.08139 0.38212 0.0
C3418 C 0.85656 0.08724 0.3614 0.0
C3419 C 0.86886 0.08881 0.3673 0.0
C3420 C 0.86864 0.08588 0.38054 0.0
C3421 C 0.85641 0.08202 0.38772 0.0
C3422 C 0.85633 0.09015 0.34731 0.0
C3423 C 0.88151 0.08781 0.38732 0.0
H3424 H 0.90357 0.08198 0.34241 0.0
H3425 H 0.90797 0.12745 0.35092 0.0
H3426 H 0.87731 0.0639 0.36483 0.0
H3427 H 0.86923 0.06447 0.35028 0.0
H3428 H 0.8847 0.06097 0.34971 0.0
H3429 H 0.89223 0.13333 0.36379 0.0
H3430 H 0.87494 0.1202 0.36159 0.0
H3431 H 0.88353 0.11948 0.37579 0.0
H3432 H 0.83535 0.08367 0.36468 0.0
H3433 H 0.85641 0.08063 0.398 0.0
H3434 H 0.86133 0.08376 0.3416 0.0
H3435 H 0.86215 0.1023 0.34541 0.0
H3436 H 0.84579 0.08698 0.34393 0.0
H3437 H 0.88614 0.08025 0.38291 0.0
H3438 H 0.87964 0.08532 0.3977 0.0
H3439 H 0.88908 0.09955 0.38625 0.0
C3440 C 0.62789 0.19094 0.04476 0.0
C3441 C 0.64019 0.20116 0.03937 0.0
C3442 C 0.62706 0.17738 0.05023 0.0
C3443 C 0.63883 0.17393 0.05042 0.0
C3444 C 0.65115 0.18396 0.04465 0.0
C3445 C 0.65167 0.19739 0.03918 0.0
C3446 C 0.61368 0.16698 0.05615 0.0
C3447 C 0.66393 0.18076 0.04467 0.0
C3448 C 0.64036 0.14868 0.07732 0.0
C3449 C 0.63699 0.1347 0.07104 0.0
C3450 C 0.64124 0.16154 0.07067 0.0
C3451 C 0.63852 0.16039 0.0574 0.0
C3452 C 0.63533 0.14631 0.05097 0.0
C3453 C 0.63459 0.13361 0.05788 0.0
C3454 C 0.64466 0.17626 0.07795 0.0
C3455 C 0.63211 0.14448 0.03692 0.0
H3456 H 0.61891 0.19362 0.04482 0.0
H3457 H 0.66126 0.20523 0.03519 0.0
H3458 H 0.61101 0.15529 0.05248 0.0
H3459 H 0.61461 0.16678 0.06669 0.0
H3460 H 0.6052 0.17054 0.05417 0.0
H3461 H 0.67258 0.18938 0.0394 0.0
H3462 H 0.66694 0.18041 0.05468 0.0
H3463 H 0.66201 0.16954 0.04023 0.0
H3464 H 0.64191 0.14942 0.08756 0.0
H3465 H 0.63159 0.1227 0.05313 0.0
H3466 H 0.63588 0.17973 0.07791 0.0
H3467 H 0.65344 0.18528 0.07321 0.0
H3468 H 0.6472 0.17546 0.08806 0.0
H3469 H 0.62229 0.14565 0.03553 0.0
H3470 H 0.63128 0.13332 0.03303 0.0
H3471 H 0.64005 0.15345 0.03129 0.0
C3472 C 0.641 0.96572 0.87257 0.0
C3473 C 0.63543 0.95154 0.86643 0.0
C3474 C 0.65313 0.97011 0.87936 0.0
C3475 C 0.65997 0.96016 0.87998 0.0
C3476 C 0.65437 0.9458 0.87392 0.0
C3477 C 0.64219 0.94167 0.86723 0.0
C3478 C 0.65883 0.9856 0.88554 0.0
C3479 C 0.66135 0.93487 0.87437 0.0
C3480 C 0.69832 0.97651 0.88332 0.0
C3481 C 0.69986 0.9751 0.89648 0.0
C3482 C 0.68545 0.9721 0.878 0.0
C3483 C 0.67364 0.96526 0.88584 0.0
C3484 C 0.67502 0.96312 0.89903 0.0
C3485 C 0.68812 0.96822 0.90424 0.0
C3486 C 0.68451 0.97497 0.86397 0.0
C3487 C 0.66266 0.95569 0.90766 0.0
H3488 H 0.63599 0.97353 0.87188 0.0
H3489 H 0.63789 0.93061 0.86273 0.0
H3490 H 0.66091 0.98477 0.89576 0.0
H3491 H 0.66867 0.99252 0.88074 0.0
H3492 H 0.6518 0.99157 0.88497 0.0
H3493 H 0.65542 0.92391 0.86962 0.0
H3494 H 0.67156 0.93978 0.86958 0.0
H3495 H 0.66292 0.93278 0.88448 0.0
H3496 H 0.70726 0.98133 0.87709 0.0
H3497 H 0.68914 0.96715 0.91442 0.0
H3498 H 0.67821 0.9817 0.86286 0.0
H3499 H 0.67945 0.96412 0.85877 0.0
H3500 H 0.69467 0.98111 0.85935 0.0
H3501 H 0.65679 0.96299 0.90867 0.0
H3502 H 0.66544 0.95358 0.91737 0.0
H3503 H 0.65583 0.94481 0.90339 0.0
C3504 C 0.98411 0.32182 0.92885 0.0
C3505 C 0.98242 0.31075 0.93801 0.0
C3506 C 0.98899 0.32065 0.91626 0.0
C3507 C 0.99187 0.30788 0.91258 0.0
C3508 C 0.9909 0.29714 0.922 0.0
C3509 C 0.98623 0.29871 0.93452 0.0
C3510 C 0.99073 0.33288 0.90681 0.0
C3511 C 0.99417 0.28353 0.91867 0.0
C3512 C 0.98293 0.28929 0.87981 0.0
C3513 C 0.99573 0.29203 0.87374 0.0
C3514 C 0.98171 0.29568 0.89182 0.0
C3515 C 0.9935 0.30421 0.89867 0.0
C3516 C 1.00644 0.30772 0.89255 0.0
C3517 C 1.00734 0.30218 0.87999 0.0
C3518 C 0.96767 0.29289 0.89737 0.0
C3519 C 0.0194 0.31719 0.89922 0.0
H3520 H 0.98155 0.33138 0.93149 0.0
H3521 H 0.98501 0.29008 0.94147 0.0
H3522 H 1.00055 0.3359 0.90138 0.0
H3523 H 0.98248 0.32877 0.89978 0.0
H3524 H 0.99043 0.34318 0.91161 0.0
H3525 H 0.9941 0.27694 0.92726 0.0
H3526 H 0.98656 0.27605 0.91192 0.0
H3527 H 1.00434 0.28707 0.9138 0.0
H3528 H 0.97365 0.28158 0.87563 0.0
H3529 H 0.01731 0.30529 0.87541 0.0
H3530 H 0.95953 0.28626 0.89074 0.0
H3531 H 0.96666 0.30376 0.8994 0.0
H3532 H 0.96606 0.28696 0.90663 0.0
H3533 H 0.02103 0.32925 0.89853 0.0
H3534 H 0.02841 0.31565 0.89475 0.0
H3535 H 0.01878 0.31445 0.90954 0.0
C3536 C 0.73662 0.21579 0.61765 0.0
C3537 C 0.72481 0.21799 0.61461 0.0
C3538 C 0.73981 0.20427 0.61157 0.0
C3539 C 0.73082 0.19459 0.60247 0.0
C3540 C 0.71898 0.19693 0.59932 0.0
C3541 C 0.71617 0.2086 0.60537 0.0
C3542 C 0.75278 0.20249 0.61481 0.0
C3543 C 0.70902 0.18686 0.58976 0.0
C3544 C 0.73799 0.16972 0.57706 0.0
C3545 C 0.73102 0.15539 0.58229 0.0
C3546 C 0.7393 0.18284 0.58407 0.0
C3547 C 0.73322 0.18155 0.5965 0.0
C3548 C 0.72719 0.16715 0.60219 0.0
C3549 C 0.72621 0.15422 0.59502 0.0
C3550 C 0.74607 0.19795 0.57771 0.0
C3551 C 0.72054 0.16527 0.61539 0.0
H3552 H 0.74337 0.22312 0.62472 0.0
H3553 H 0.70693 0.21011 0.60313 0.0
H3554 H 0.7506 0.19068 0.61749 0.0
H3555 H 0.75973 0.20502 0.60625 0.0
H3556 H 0.75814 0.21011 0.62279 0.0
H3557 H 0.70031 0.19023 0.58838 0.0
H3558 H 0.71426 0.18717 0.58033 0.0
H3559 H 0.70495 0.17502 0.59304 0.0
H3560 H 0.74163 0.17059 0.56716 0.0
H3561 H 0.72066 0.14313 0.59898 0.0
H3562 H 0.75271 0.20647 0.58451 0.0
H3563 H 0.73816 0.20193 0.5747 0.0
H3564 H 0.75227 0.19733 0.56909 0.0
H3565 H 0.72748 0.17336 0.62228 0.0
H3566 H 0.71764 0.15365 0.61901 0.0
H3567 H 0.71122 0.16774 0.61509 0.0
C3568 C 0.51193 0.68112 0.4893 0.0
C3569 C 0.52106 0.67437 0.48564 0.0
C3570 C 0.50725 0.68847 0.48027 0.0
C3571 C 0.51209 0.68939 0.46737 0.0
C3572 C 0.52078 0.68196 0.46353 0.0
C3573 C 0.52507 0.67447 0.47269 0.0
C3574 C 0.49771 0.69594 0.48466 0.0
C3575 C 0.52661 0.68307 0.45001 0.0
C3576 C 0.49991 0.7064 0.44012 0.0
C3577 C 0.50932 0.72142 0.4406 0.0
C3578 C 0.50012 0.6959 0.44922 0.0
C3579 C 0.51032 0.70042 0.4586 0.0
C3580 C 0.51952 0.71563 0.45931 0.0
C3581 C 0.51846 0.72597 0.45076 0.0
C3582 C 0.48965 0.67995 0.44866 0.0
C3583 C 0.53095 0.72096 0.46876 0.0
H3584 H 0.50867 0.68094 0.49927 0.0
H3585 H 0.53228 0.66947 0.46981 0.0
H3586 H 0.50332 0.70835 0.48496 0.0
H3587 H 0.48936 0.69342 0.4778 0.0
H3588 H 0.49322 0.69223 0.49436 0.0
H3589 H 0.53163 0.67501 0.44814 0.0
H3590 H 0.51857 0.68092 0.44291 0.0
H3591 H 0.53429 0.69467 0.44845 0.0
H3592 H 0.49265 0.70274 0.43249 0.0
H3593 H 0.52525 0.7377 0.45181 0.0
H3594 H 0.4846 0.67668 0.45822 0.0
H3595 H 0.49469 0.67207 0.44614 0.0
H3596 H 0.48175 0.67852 0.44151 0.0
H3597 H 0.52669 0.71984 0.47869 0.0
H3598 H 0.53791 0.73291 0.4673 0.0
H3599 H 0.53706 0.71391 0.46784 0.0
C3600 C 0.8146 0.78979 0.1341 0.0
C3601 C 0.82244 0.78108 0.13206 0.0
C3602 C 0.81182 0.79748 0.12409 0.0
C3603 C 0.81734 0.79692 0.11162 0.0
C3604 C 0.82566 0.78852 0.10953 0.0
C3605 C 0.8279 0.78052 0.11971 0.0
C3606 C 0.80327 0.80653 0.12723 0.0
C3607 C 0.83242 0.78789 0.09669 0.0
C3608 C 0.80265 0.80634 0.08174 0.0
C3609 C 0.80914 0.82212 0.08148 0.0
C3610 C 0.80545 0.79794 0.09124 0.0
C3611 C 0.81469 0.80552 0.10103 0.0
C3612 C 0.82121 0.82148 0.10081 0.0
C3613 C 0.81815 0.82954 0.09123 0.0
C3614 C 0.7992 0.78095 0.09003 0.0
C3615 C 0.83209 0.8303 0.11014 0.0
H3616 H 0.81074 0.79085 0.14366 0.0
H3617 H 0.83395 0.77383 0.11795 0.0
H3618 H 0.79745 0.80734 0.11893 0.0
H3619 H 0.79602 0.80156 0.13536 0.0
H3620 H 0.81002 0.81808 0.13022 0.0
H3621 H 0.82675 0.77682 0.09202 0.0
H3622 H 0.83286 0.79697 0.09016 0.0
H3623 H 0.84297 0.78865 0.098 0.0
H3624 H 0.796 0.80049 0.07401 0.0
H3625 H 0.82368 0.84165 0.09082 0.0
H3626 H 0.7982 0.7753 0.09934 0.0
H3627 H 0.80576 0.77725 0.08349 0.0
H3628 H 0.78902 0.77703 0.08566 0.0
H3629 H 0.82768 0.83576 0.11748 0.0
H3630 H 0.84051 0.83947 0.10512 0.0
H3631 H 0.83652 0.82323 0.11501 0.0
C3632 C 0.22826 0.70304 0.12995 0.0
C3633 C 0.22639 0.71464 0.12344 0.0
C3634 C 0.2305 0.69133 0.1232 0.0
C3635 C 0.23057 0.69102 0.10964 0.0
C3636 C 0.22988 0.70335 0.10303 0.0
C3637 C 0.228 0.71509 0.11002 0.0
C3638 C 0.23159 0.67861 0.1306 0.0
C3639 C 0.22975 0.70347 0.08858 0.0
C3640 C 0.23713 0.66049 0.08966 0.0
C3641 C 0.22375 0.65003 0.08793 0.0
C3642 C 0.23966 0.67378 0.09703 0.0
C3643 C 0.22855 0.67667 0.10257 0.0
C3644 C 0.21511 0.66586 0.10116 0.0
C3645 C 0.21294 0.6526 0.09414 0.0
C3646 C 0.25414 0.6849 0.09857 0.0
C3647 C 0.20289 0.66852 0.10662 0.0
H3648 H 0.22706 0.70247 0.14029 0.0
H3649 H 0.22702 0.72424 0.10488 0.0
H3650 H 0.22192 0.66853 0.12995 0.0
H3651 H 0.23986 0.67546 0.12644 0.0
H3652 H 0.23358 0.68162 0.14089 0.0
H3653 H 0.23141 0.71479 0.08491 0.0
H3654 H 0.23765 0.69985 0.08426 0.0
H3655 H 0.21971 0.69537 0.0853 0.0
H3656 H 0.24552 0.65861 0.08484 0.0
H3657 H 0.2026 0.64442 0.09302 0.0
H3658 H 0.25624 0.6875 0.10888 0.0
H3659 H 0.25562 0.69564 0.09388 0.0
H3660 H 0.26167 0.6806 0.09435 0.0
H3661 H 0.20352 0.66987 0.11719 0.0
H3662 H 0.1931 0.65914 0.10433 0.0
H3663 H 0.20276 0.67909 0.10277 0.0
C3664 C 0.01089 0.19141 0.9623 0.0
C3665 C 0.01999 0.18463 0.95868 0.0
C3666 C 1.00752 0.20025 0.95363 0.0
C3667 C 0.01365 0.20258 0.94119 0.0
C3668 C 0.02235 0.19519 0.93731 0.0
C3669 C 0.02535 0.18624 0.94608 0.0
C3670 C 0.99797 0.20772 0.95798 0.0
C3671 C 0.02944 0.19775 0.92427 0.0
C3672 C 1.00333 0.22246 0.915 0.0
C3673 C 0.01251 0.23744 0.91684 0.0
C3674 C 1.00314 0.211 0.92319 0.0
C3675 C 0.01274 0.21452 0.93303 0.0
C3676 C 0.02194 0.22957 0.93496 0.0
C3677 C 0.02132 0.24086 0.92721 0.0
C3678 C 0.99281 0.19514 0.92121 0.0
C3679 C 0.0327 0.23379 0.94504 0.0
H3680 H 1.00665 0.19009 0.972 0.0
H3681 H 0.03256 0.18122 0.94329 0.0
H3682 H 1.00378 0.22001 0.95924 0.0
H3683 H 0.99026 0.20618 0.95062 0.0
H3684 H 0.99263 0.20316 0.96721 0.0
H3685 H 0.0346 0.18986 0.92221 0.0
H3686 H 0.02211 0.19645 0.91661 0.0
H3687 H 0.03721 0.20946 0.92384 0.0
H3688 H 0.99648 0.21958 0.90705 0.0
H3689 H 0.02801 0.25243 0.92922 0.0
H3690 H 0.98694 0.19097 0.93028 0.0
H3691 H 0.99807 0.1875 0.9186 0.0
H3692 H 0.98558 0.19442 0.91357 0.0
H3693 H 0.02779 0.23196 0.95473 0.0
H3694 H 0.03992 0.24576 0.9444 0.0
H3695 H 0.03864 0.22655 0.94403 0.0
C3696 C 0.31895 0.27127 0.59346 0.0
C3697 C 0.31625 0.27349 0.60646 0.0
C3698 C 0.31763 0.28058 0.58393 0.0
C3699 C 0.31268 0.29192 0.58736 0.0
C3700 C 0.30849 0.29308 0.60025 0.0
C3701 C 0.31056 0.28408 0.60966 0.0
C3702 C 0.32221 0.27839 0.57044 0.0
C3703 C 0.30204 0.30403 0.60421 0.0
C3704 C 0.32475 0.32937 0.57023 0.0
C3705 C 0.31519 0.32646 0.56065 0.0
C3706 C 0.32417 0.31807 0.57871 0.0
C3707 C 0.31337 0.30366 0.57799 0.0
C3708 C 0.30383 0.30059 0.56807 0.0
C3709 C 0.30495 0.31203 0.55948 0.0
C3710 C 0.33575 0.32123 0.58779 0.0
C3711 C 0.29309 0.28511 0.56562 0.0
H3712 H 0.3227 0.26262 0.59067 0.0
H3713 H 0.30826 0.28592 0.61959 0.0
H3714 H 0.32247 0.28717 0.56368 0.0
H3715 H 0.33257 0.27821 0.57055 0.0
H3716 H 0.31528 0.26723 0.56671 0.0
H3717 H 0.29909 0.30334 0.61456 0.0
H3718 H 0.30899 0.31577 0.60209 0.0
H3719 H 0.29281 0.30151 0.5986 0.0
H3720 H 0.33321 0.34024 0.57054 0.0
H3721 H 0.29818 0.30947 0.55145 0.0
H3722 H 0.33965 0.31209 0.58704 0.0
H3723 H 0.33212 0.3216 0.59782 0.0
H3724 H 0.34434 0.33213 0.58578 0.0
H3725 H 0.29622 0.28012 0.557 0.0
H3726 H 0.28329 0.28593 0.56342 0.0
H3727 H 0.29151 0.27732 0.57368 0.0
C3728 C 0.15143 0.69738 0.54958 0.0
C3729 C 0.1396 0.69967 0.54675 0.0
C3730 C 0.15072 0.6843 0.55584 0.0
C3731 C 0.13786 0.67296 0.55912 0.0
C3732 C 0.12585 0.67496 0.55586 0.0
C3733 C 0.12687 0.68835 0.54989 0.0
C3734 C 0.16377 0.68287 0.55938 0.0
C3735 C 0.11191 0.66312 0.55897 0.0
C3736 C 0.13602 0.63372 0.56792 0.0
C3737 C 0.13482 0.63414 0.58134 0.0
C3738 C 0.13703 0.64623 0.56054 0.0
C3739 C 0.13701 0.65955 0.56672 0.0
C3740 C 0.13619 0.66011 0.58029 0.0
C3741 C 0.13507 0.64745 0.58738 0.0
C3742 C 0.13761 0.64502 0.54612 0.0
C3743 C 0.13625 0.67403 0.58735 0.0
H3744 H 0.1613 0.70615 0.54735 0.0
H3745 H 0.11768 0.69001 0.54771 0.0
H3746 H 0.1641 0.68214 0.56994 0.0
H3747 H 0.16417 0.67234 0.55519 0.0
H3748 H 0.17296 0.69256 0.55603 0.0
H3749 H 0.10367 0.66556 0.55456 0.0
H3750 H 0.11129 0.65186 0.55558 0.0
H3751 H 0.1101 0.66254 0.5695 0.0
H3752 H 0.13557 0.62339 0.56319 0.0
H3753 H 0.13409 0.64783 0.59774 0.0
H3754 H 0.14675 0.65432 0.5422 0.0
H3755 H 0.12856 0.64619 0.54213 0.0
H3756 H 0.13789 0.6341 0.54276 0.0
H3757 H 0.14561 0.68389 0.58472 0.0
H3758 H 0.13576 0.67275 0.59793 0.0
H3759 H 0.12742 0.67655 0.58454 0.0
C3760 C 0.35973 0.32111 0.06765 0.0
C3761 C 0.34729 0.30954 0.07119 0.0
C3762 C 0.36622 0.33337 0.07599 0.0
C3763 C 0.36018 0.33404 0.08818 0.0
C3764 C 0.34738 0.32272 0.09158 0.0
C3765 C 0.34109 0.31068 0.08304 0.0
C3766 C 0.37982 0.34526 0.07197 0.0
C3767 C 0.34048 0.32311 0.10439 0.0
C3768 C 0.38189 0.35501 0.11616 0.0
C3769 C 0.37957 0.36839 0.11676 0.0
C3770 C 0.376 0.34397 0.10666 0.0
C3771 C 0.36739 0.34622 0.09762 0.0
C3772 C 0.36516 0.35979 0.09802 0.0
C3773 C 0.3714 0.37076 0.10746 0.0
C3774 C 0.37873 0.32971 0.10649 0.0
C3775 C 0.35605 0.36265 0.08858 0.0
H3776 H 0.36467 0.32031 0.05857 0.0
H3777 H 0.33134 0.30198 0.08576 0.0
H3778 H 0.37979 0.35669 0.07348 0.0
H3779 H 0.3879 0.34452 0.078 0.0
H3780 H 0.3825 0.34396 0.06175 0.0
H3781 H 0.33033 0.31372 0.10541 0.0
H3782 H 0.34696 0.32239 0.11223 0.0
H3783 H 0.33917 0.33395 0.10568 0.0
H3784 H 0.38807 0.35297 0.12332 0.0
H3785 H 0.36982 0.38122 0.10755 0.0
H3786 H 0.38257 0.32784 0.09685 0.0
H3787 H 0.3691 0.31989 0.1085 0.0
H3788 H 0.38628 0.33005 0.11368 0.0
H3789 H 0.36033 0.36289 0.07871 0.0
H3790 H 0.35486 0.37347 0.09055 0.0
H3791 H 0.34581 0.35337 0.08887 0.0
C3792 C 0.61956 0.44485 0.17679 0.0
C3793 C 0.6227 0.44803 0.18976 0.0
C3794 C 0.62971 0.44619 0.16744 0.0
C3795 C 0.64342 0.45096 0.17109 0.0
C3796 C 0.64672 0.45433 0.18417 0.0
C3797 C 0.63627 0.45266 0.1934 0.0
C3798 C 0.62575 0.44241 0.15365 0.0
C3799 C 0.6613 0.45987 0.18837 0.0
C3800 C 0.66859 0.44187 0.14908 0.0
C3801 C 0.67542 0.45565 0.14296 0.0
C3802 C 0.65802 0.44013 0.15815 0.0
C3803 C 0.65426 0.45246 0.16116 0.0
C3804 C 0.66078 0.4662 0.15459 0.0
C3805 C 0.67119 0.46757 0.1455 0.0
C3806 C 0.65126 0.42529 0.16492 0.0
C3807 C 0.6571 0.47963 0.15747 0.0
H3808 H 0.60904 0.44111 0.17398 0.0
H3809 H 0.63873 0.45522 0.2034 0.0
H3810 H 0.63123 0.45231 0.14754 0.0
H3811 H 0.62877 0.43315 0.15013 0.0
H3812 H 0.61462 0.43891 0.15239 0.0
H3813 H 0.66216 0.46184 0.19889 0.0
H3814 H 0.66578 0.45156 0.18554 0.0
H3815 H 0.66748 0.47057 0.18348 0.0
H3816 H 0.67203 0.43275 0.1473 0.0
H3817 H 0.67654 0.47827 0.14081 0.0
H3818 H 0.64005 0.42103 0.16399 0.0
H3819 H 0.6534 0.42693 0.1753 0.0
H3820 H 0.65488 0.41659 0.16107 0.0
H3821 H 0.6463 0.47683 0.15518 0.0
H3822 H 0.66359 0.48971 0.15192 0.0
H3823 H 0.65818 0.48255 0.16783 0.0
C3824 C 0.90817 0.56621 0.63559 0.0
C3825 C 0.90655 0.56727 0.64895 0.0
C3826 C 0.89695 0.56258 0.62751 0.0
C3827 C 0.88386 0.56007 0.63291 0.0
C3828 C 0.88211 0.56049 0.6464 0.0
C3829 C 0.8934 0.56395 0.6542 0.0
C3830 C 0.89918 0.56193 0.61319 0.0
C3831 C 0.86832 0.55757 0.65264 0.0
C3832 C 0.85539 0.56632 0.61619 0.0
C3833 C 0.84613 0.55146 0.61419 0.0
C3834 C 0.86826 0.56934 0.62132 0.0
C3835 C 0.87187 0.55723 0.62469 0.0
C3836 C 0.86297 0.54227 0.62179 0.0
C3837 C 0.85036 0.5396 0.61638 0.0
C3838 C 0.87758 0.58548 0.624 0.0
C3839 C 0.86638 0.52899 0.62513 0.0
H3840 H 0.91826 0.56871 0.63142 0.0
H3841 H 0.89194 0.56426 0.66452 0.0
H3842 H 0.89164 0.55136 0.60908 0.0
H3843 H 0.89764 0.57144 0.60869 0.0
H3844 H 0.90959 0.56261 0.61056 0.0
H3845 H 0.86865 0.55818 0.66327 0.0
H3846 H 0.86441 0.56597 0.64935 0.0
H3847 H 0.86092 0.54625 0.64976 0.0
H3848 H 0.8523 0.57557 0.61446 0.0
H3849 H 0.84349 0.52809 0.61441 0.0
H3850 H 0.88813 0.58756 0.62058 0.0
H3851 H 0.87787 0.58766 0.6345 0.0
H3852 H 0.87417 0.5936 0.61936 0.0
H3853 H 0.87615 0.53 0.62034 0.0
H3854 H 0.85833 0.51805 0.62226 0.0
H3855 H 0.86773 0.52889 0.63561 0.0
C3856 C 0.53418 0.17448 0.57389 0.0
C3857 C 0.54797 0.17842 0.57028 0.0
C3858 C 0.53022 0.17789 0.58624 0.0
C3859 C 0.54028 0.18565 0.59533 0.0
C3860 C 0.55421 0.18946 0.59179 0.0
C3861 C 0.55784 0.18563 0.57946 0.0
C3862 C 0.51521 0.17368 0.58911 0.0
C3863 C 0.56539 0.19866 0.60069 0.0
C3864 C 0.53072 0.21086 0.61911 0.0
C3865 C 0.53162 0.2052 0.63107 0.0
C3866 C 0.53378 0.20494 0.60757 0.0
C3867 C 0.53654 0.19174 0.60772 0.0
C3868 C 0.53602 0.18481 0.61974 0.0
C3869 C 0.53403 0.19189 0.63133 0.0
C3870 C 0.53413 0.21308 0.59528 0.0
C3871 C 0.53701 0.16965 0.62029 0.0
H3872 H 0.52638 0.16882 0.56699 0.0
H3873 H 0.56852 0.18903 0.57678 0.0
H3874 H 0.51273 0.1736 0.59952 0.0
H3875 H 0.51188 0.18183 0.58442 0.0
H3876 H 0.50919 0.16237 0.58498 0.0
H3877 H 0.5757 0.20056 0.59665 0.0
H3878 H 0.56477 0.20979 0.60259 0.0
H3879 H 0.56409 0.19299 0.61003 0.0
H3880 H 0.52825 0.22051 0.61886 0.0
H3881 H 0.53418 0.18696 0.6405 0.0
H3882 H 0.5242 0.20765 0.59056 0.0
H3883 H 0.54226 0.21273 0.5885 0.0
H3884 H 0.5358 0.22507 0.59711 0.0
H3885 H 0.52812 0.16113 0.61544 0.0
H3886 H 0.5371 0.16606 0.63029 0.0
H3887 H 0.54629 0.16979 0.61506 0.0
C3888 C 0.41301 0.61887 0.87591 0.0
C3889 C 0.41317 0.61689 0.86256 0.0
C3890 C 0.40063 0.61355 0.88309 0.0
C3891 C 0.38819 0.6058 0.87678 0.0
C3892 C 0.3884 0.60332 0.86337 0.0
C3893 C 0.40085 0.60895 0.85644 0.0
C3894 C 0.40081 0.6167 0.89734 0.0
C3895 C 0.37541 0.59512 0.85627 0.0
C3896 C 0.35677 0.58374 0.89753 0.0
C3897 C 0.35041 0.59401 0.89875 0.0
C3898 C 0.36889 0.58719 0.89009 0.0
C3899 C 0.37487 0.60135 0.88397 0.0
C3900 C 0.3681 0.61142 0.8847 0.0
C3901 C 0.35584 0.60747 0.89181 0.0
C3902 C 0.37558 0.57598 0.88919 0.0
C3903 C 0.37418 0.62676 0.87861 0.0
H3904 H 0.42249 0.62508 0.88067 0.0
H3905 H 0.40094 0.60724 0.84614 0.0
H3906 H 0.39481 0.62365 0.89971 0.0
H3907 H 0.39594 0.60598 0.90261 0.0
H3908 H 0.41132 0.62271 0.90083 0.0
H3909 H 0.37741 0.59295 0.84605 0.0
H3910 H 0.36939 0.5842 0.8609 0.0
H3911 H 0.36905 0.60191 0.85666 0.0
H3912 H 0.3527 0.57338 0.90292 0.0
H3913 H 0.35087 0.61539 0.89258 0.0
H3914 H 0.38532 0.5805 0.89434 0.0
H3915 H 0.37805 0.57413 0.87903 0.0
H3916 H 0.36902 0.56495 0.8934 0.0
H3917 H 0.38387 0.63366 0.8833 0.0
H3918 H 0.36726 0.63291 0.87949 0.0
H3919 H 0.37662 0.62571 0.86831 0.0
C3920 C 0.14258 0.44116 0.35369 0.0
C3921 C 0.14243 0.44813 0.34211 0.0
C3922 C 0.15471 0.44468 0.3603 0.0
C3923 C 0.16699 0.45563 0.35532 0.0
C3924 C 0.16691 0.46275 0.34361 0.0
C3925 C 0.15464 0.45878 0.33705 0.0
C3926 C 0.15433 0.43681 0.37271 0.0
C3927 C 0.17975 0.4747 0.33811 0.0
C3928 C 0.19601 0.47538 0.37801 0.0
C3929 C 0.20468 0.46779 0.37528 0.0
C3930 C 0.1836 0.47138 0.37176 0.0
C3931 C 0.17989 0.45965 0.36241 0.0
C3932 C 0.18854 0.45177 0.35981 0.0
C3933 C 0.20083 0.45592 0.36632 0.0
C3934 C 0.1747 0.48004 0.37488 0.0
C3935 C 0.18497 0.43925 0.34989 0.0
H3936 H 0.13314 0.4329 0.35759 0.0
H3937 H 0.1545 0.46429 0.32817 0.0
H3938 H 0.16183 0.43141 0.37221 0.0
H3939 H 0.15723 0.44516 0.38071 0.0
H3940 H 0.14408 0.42805 0.37496 0.0
H3941 H 0.17793 0.47939 0.32908 0.0
H3942 H 0.184 0.48407 0.34516 0.0
H3943 H 0.18757 0.46992 0.33619 0.0
H3944 H 0.19915 0.48474 0.38482 0.0
H3945 H 0.20771 0.4503 0.36405 0.0
H3946 H 0.16421 0.47216 0.37756 0.0
H3947 H 0.17395 0.48618 0.36629 0.0
H3948 H 0.1787 0.48831 0.38285 0.0
H3949 H 0.17487 0.43035 0.3523 0.0
H3950 H 0.19264 0.43407 0.34915 0.0
H3951 H 0.18423 0.44369 0.34037 0.0
C3952 C 0.48947 0.80004 0.46093 0.0
C3953 C 0.48385 0.81102 0.46223 0.0
C3954 C 0.49421 0.79666 0.44899 0.0
C3955 C 0.49336 0.80443 0.43794 0.0
C3956 C 0.4881 0.81588 0.43921 0.0
C3957 C 0.48332 0.81897 0.4513 0.0
C3958 C 0.49968 0.78435 0.44813 0.0
C3959 C 0.48705 0.82449 0.42771 0.0
C3960 C 0.51254 0.79997 0.40732 0.0
C3961 C 0.50234 0.78811 0.40087 0.0
C3962 C 0.50982 0.80554 0.41932 0.0
C3963 C 0.49652 0.79934 0.42496 0.0
C3964 C 0.48619 0.78755 0.41847 0.0
C3965 C 0.48927 0.782 0.40673 0.0
C3966 C 0.52121 0.81793 0.42602 0.0
C3967 C 0.47185 0.78051 0.42404 0.0
H3968 H 0.48977 0.79368 0.46924 0.0
H3969 H 0.47913 0.82757 0.4522 0.0
H3970 H 0.49288 0.77478 0.44228 0.0
H3971 H 0.50989 0.78856 0.44329 0.0
H3972 H 0.50052 0.78007 0.45771 0.0
H3973 H 0.48454 0.83435 0.43049 0.0
H3974 H 0.49675 0.82849 0.42199 0.0
H3975 H 0.47897 0.81691 0.42142 0.0
H3976 H 0.52267 0.80496 0.40302 0.0
H3977 H 0.48137 0.77254 0.40235 0.0
H3978 H 0.52283 0.81397 0.43547 0.0
H3979 H 0.51842 0.82778 0.42785 0.0
H3980 H 0.53096 0.82165 0.42037 0.0
H3981 H 0.4719 0.77494 0.4332 0.0
H3982 H 0.4648 0.77199 0.41747 0.0
H3983 H 0.46779 0.78934 0.42621 0.0
C3984 C 0.05339 0.2024 0.09245 0.0
C3985 C 0.06325 0.20467 0.08255 0.0
C3986 C 0.05605 0.21185 0.10342 0.0
C3987 C 0.06889 0.224 0.10454 0.0
C3988 C 0.07903 0.22601 0.0948 0.0
C3989 C 0.07611 0.21636 0.08398 0.0
C3990 C 0.04494 0.20912 0.11358 0.0
C3991 C 0.09286 0.23872 0.09562 0.0
C3992 C 0.07123 0.25877 0.12446 0.0
C3993 C 0.07705 0.25677 0.13571 0.0
C3994 C 0.06843 0.24814 0.11432 0.0
C3995 C 0.07152 0.23516 0.11545 0.0
C3996 C 0.07741 0.23314 0.12687 0.0
C3997 C 0.08007 0.24396 0.13688 0.0
C3998 C 0.062 0.25069 0.10243 0.0
C3999 C 0.0806 0.21936 0.12863 0.0
H4000 H 0.04348 0.19328 0.09157 0.0
H4001 H 0.08377 0.21839 0.07637 0.0
H4002 H 0.04904 0.20965 0.12328 0.0
H4003 H 0.04084 0.21806 0.11315 0.0
H4004 H 0.0364 0.19801 0.11228 0.0
H4005 H 0.09981 0.23848 0.0875 0.0
H4006 H 0.09173 0.2497 0.09563 0.0
H4007 H 0.09767 0.23811 0.10472 0.0
H4008 H 0.0686 0.26851 0.12369 0.0
H4009 H 0.08427 0.24224 0.14573 0.0
H4010 H 0.052 0.24127 0.10104 0.0
H4011 H 0.06853 0.25087 0.09386 0.0
H4012 H 0.06041 0.26143 0.10294 0.0
H4013 H 0.07099 0.20915 0.12883 0.0
H4014 H 0.08601 0.21993 0.13766 0.0
H4015 H 0.08696 0.21797 0.12045 0.0
C4016 C 0.80766 0.73163 0.26465 0.0
C4017 C 0.82004 0.7426 0.26022 0.0
C4018 C 0.80262 0.73239 0.27721 0.0
C4019 C 0.81031 0.7442 0.28565 0.0
C4020 C 0.82282 0.75528 0.28118 0.0
C4021 C 0.82743 0.75443 0.26852 0.0
C4022 C 0.78914 0.7205 0.2815 0.0
C4023 C 0.83159 0.76776 0.28993 0.0
C4024 C 0.79512 0.75414 0.31666 0.0
C4025 C 0.79948 0.74667 0.32573 0.0
C4026 C 0.79819 0.75307 0.30348 0.0
C4027 C 0.80586 0.74446 0.29941 0.0
C4028 C 0.81003 0.73674 0.30865 0.0
C4029 C 0.80674 0.73791 0.32166 0.0
C4030 C 0.79343 0.76132 0.29393 0.0
C4031 C 0.81826 0.7275 0.30485 0.0
H4032 H 0.8019 0.72249 0.25825 0.0
H4033 H 0.83711 0.76281 0.2652 0.0
H4034 H 0.79058 0.71431 0.28976 0.0
H4035 H 0.78209 0.72593 0.28479 0.0
H4036 H 0.78426 0.71225 0.27373 0.0
H4037 H 0.84083 0.77576 0.28489 0.0
H4038 H 0.82567 0.77415 0.29405 0.0
H4039 H 0.83485 0.76286 0.29804 0.0
H4040 H 0.78947 0.76089 0.31985 0.0
H4041 H 0.81006 0.73212 0.32874 0.0
H4042 H 0.78754 0.75337 0.28637 0.0
H4043 H 0.80235 0.77007 0.28913 0.0
H4044 H 0.78696 0.76685 0.2985 0.0
H4045 H 0.81248 0.71835 0.29809 0.0
H4046 H 0.82086 0.72237 0.31323 0.0
H4047 H 0.82786 0.73469 0.29982 0.0
C4048 C 0.43703 0.75786 0.58998 0.0
C4049 C 0.44831 0.77084 0.58649 0.0
C4050 C 0.43815 0.74753 0.59864 0.0
C4051 C 0.45087 0.75029 0.60417 0.0
C4052 C 0.46234 0.76345 0.60075 0.0
C4053 C 0.46096 0.77349 0.5918 0.0
C4054 C 0.42569 0.73359 0.60182 0.0
C4055 C 0.47605 0.76688 0.60648 0.0
C4056 C 0.44725 0.72748 0.63437 0.0
C4057 C 0.44893 0.71469 0.6293 0.0
C4058 C 0.4487 0.73967 0.62645 0.0
C4059 C 0.45199 0.73903 0.6132 0.0
C4060 C 0.45456 0.7265 0.6083 0.0
C4061 C 0.45287 0.71443 0.61638 0.0
C4062 C 0.44593 0.75282 0.63209 0.0
C4063 C 0.45825 0.72539 0.59433 0.0
H4064 H 0.42726 0.75571 0.58581 0.0
H4065 H 0.4697 0.78355 0.58917 0.0
H4066 H 0.42763 0.72335 0.5992 0.0
H4067 H 0.4234 0.73323 0.61229 0.0
H4068 H 0.41655 0.73313 0.59673 0.0
H4069 H 0.48337 0.77851 0.60434 0.0
H4070 H 0.475 0.76548 0.61703 0.0
H4071 H 0.48037 0.75882 0.60256 0.0
H4072 H 0.44415 0.72762 0.64436 0.0
H4073 H 0.45419 0.70451 0.6125 0.0
H4074 H 0.43632 0.75274 0.62827 0.0
H4075 H 0.45421 0.76362 0.62925 0.0
H4076 H 0.44497 0.75242 0.64271 0.0
H4077 H 0.44935 0.72385 0.58842 0.0
H4078 H 0.4614 0.71579 0.59234 0.0
H4079 H 0.46667 0.73595 0.59124 0.0
C4080 C 0.73411 0.29926 0.73609 0.0
C4081 C 0.72069 0.29094 0.7322 0.0
C4082 C 0.73747 0.30083 0.74911 0.0
C4083 C 0.72713 0.29435 0.75857 0.0
C4084 C 0.71344 0.287 0.75482 0.0
C4085 C 0.71041 0.28521 0.74173 0.0
C4086 C 0.75223 0.3086 0.75265 0.0
C4087 C 0.70205 0.2803 0.76466 0.0
C4088 C 0.73472 0.27837 0.78874 0.0
C4089 C 0.73579 0.28958 0.79806 0.0
C4090 C 0.73259 0.28021 0.77586 0.0
C4091 C 0.73072 0.29326 0.77211 0.0
C4092 C 0.73158 0.30459 0.78139 0.0
C4093 C 0.73433 0.30274 0.79421 0.0
C4094 C 0.7321 0.26796 0.76629 0.0
C4095 C 0.72954 0.31864 0.77784 0.0
H4096 H 0.74214 0.30421 0.72894 0.0
H4097 H 0.70002 0.27868 0.73902 0.0
H4098 H 0.75335 0.31712 0.76036 0.0
H4099 H 0.75585 0.30019 0.75642 0.0
H4100 H 0.75889 0.31424 0.74434 0.0
H4101 H 0.69184 0.27661 0.76039 0.0
H4102 H 0.70296 0.2704 0.76909 0.0
H4103 H 0.70278 0.28864 0.77244 0.0
H4104 H 0.73528 0.26787 0.7915 0.0
H4105 H 0.73529 0.31159 0.8012 0.0
H4106 H 0.73914 0.27288 0.75801 0.0
H4107 H 0.72167 0.26246 0.76253 0.0
H4108 H 0.73493 0.25916 0.77055 0.0
H4109 H 0.73859 0.32614 0.77227 0.0
H4110 H 0.72814 0.325 0.78644 0.0
H4111 H 0.72056 0.3158 0.77172 0.0
C4112 C 0.1856 0.77221 0.42872 0.0
C4113 C 0.18852 0.78417 0.43767 0.0
C4114 C 0.19263 0.774 0.41681 0.0
C4115 C 0.2027 0.78821 0.41348 0.0
C4116 C 0.20515 0.8006 0.42208 0.0
C4117 C 0.19812 0.79843 0.43408 0.0
C4118 C 0.18955 0.76049 0.40796 0.0
C4119 C 0.21543 0.81609 0.41871 0.0
C4120 C 0.23064 0.78816 0.3894 0.0
C4121 C 0.22593 0.79123 0.37791 0.0
C4122 C 0.22329 0.78737 0.40105 0.0
C4123 C 0.21097 0.78983 0.40122 0.0
C4124 C 0.20629 0.7931 0.38957 0.0
C4125 C 0.2138 0.79369 0.37806 0.0
C4126 C 0.22872 0.78393 0.4132 0.0
C4127 C 0.19334 0.79594 0.3892 0.0
H4128 H 0.1779 0.76125 0.4311 0.0
H4129 H 0.20051 0.80781 0.4408 0.0
H4130 H 0.18659 0.76293 0.39847 0.0
H4131 H 0.19884 0.75801 0.40641 0.0
H4132 H 0.18124 0.75026 0.41182 0.0
H4133 H 0.21571 0.82471 0.42611 0.0
H4134 H 0.22574 0.81586 0.41763 0.0
H4135 H 0.21299 0.81957 0.40938 0.0
H4136 H 0.24018 0.78658 0.3893 0.0
H4137 H 0.2103 0.79635 0.36918 0.0
H4138 H 0.22115 0.77346 0.41747 0.0
H4139 H 0.23035 0.79317 0.42033 0.0
H4140 H 0.23849 0.78248 0.4115 0.0
H4141 H 0.18443 0.78512 0.39036 0.0
H4142 H 0.19243 0.80097 0.38 0.0
H4143 H 0.19283 0.80355 0.39718 0.0
C4144 C 0.56738 0.86465 0.74966 0.0
C4145 C 0.57816 0.86975 0.75824 0.0
C4146 C 0.56744 0.85512 0.73919 0.0
C4147 C 0.57851 0.85054 0.73726 0.0
C4148 C 0.58928 0.85545 0.74601 0.0
C4149 C 0.58893 0.86488 0.75638 0.0
C4150 C 0.55582 0.85019 0.73003 0.0
C4151 C 0.60147 0.8512 0.74417 0.0
C4152 C 0.57824 0.81757 0.71604 0.0
C4153 C 0.58527 0.82506 0.70502 0.0
C4154 C 0.57512 0.82559 0.72632 0.0
C4155 C 0.57943 0.84148 0.72567 0.0
C4156 C 0.58584 0.84892 0.71426 0.0
C4157 C 0.58828 0.84055 0.70399 0.0
C4158 C 0.56787 0.81718 0.73814 0.0
C4159 C 0.59072 0.86582 0.71301 0.0
H4160 H 0.55905 0.86841 0.75096 0.0
H4161 H 0.59719 0.86852 0.76307 0.0
H4162 H 0.55957 0.85521 0.7205 0.0
H4163 H 0.55168 0.83776 0.72871 0.0
H4164 H 0.54744 0.85364 0.73341 0.0
H4165 H 0.60886 0.85569 0.75198 0.0
H4166 H 0.59813 0.83876 0.74375 0.0
H4167 H 0.60678 0.85564 0.73491 0.0
H4168 H 0.57586 0.80562 0.71694 0.0
H4169 H 0.59336 0.84635 0.69535 0.0
H4170 H 0.55936 0.82058 0.74112 0.0
H4171 H 0.57504 0.82008 0.74617 0.0
H4172 H 0.56376 0.80477 0.73659 0.0
H4173 H 0.58186 0.86885 0.71146 0.0
H4174 H 0.59804 0.87008 0.7048 0.0
H4175 H 0.59572 0.87175 0.72185 0.0
C4176 C 0.28852 0.25937 0.943 0.0
C4177 C 0.29956 0.25642 0.94728 0.0
C4178 C 0.28663 0.26037 0.92987 0.0
C4179 C 0.29601 0.25837 0.92081 0.0
C4180 C 0.30704 0.25514 0.92504 0.0
C4181 C 0.30867 0.25416 0.93823 0.0
C4182 C 0.2747 0.26375 0.9257 0.0
C4183 C 0.31735 0.25316 0.91565 0.0
C4184 C 0.28545 0.24951 0.8862 0.0
C4185 C 0.29117 0.26384 0.88081 0.0
C4186 C 0.28694 0.24754 0.89924 0.0
C4187 C 0.29455 0.26018 0.90692 0.0
C4188 C 0.30064 0.27463 0.90137 0.0
C4189 C 0.29873 0.2763 0.88838 0.0
C4190 C 0.28008 0.23203 0.90488 0.0
C4191 C 0.30891 0.28837 0.90919 0.0
H4192 H 0.28137 0.26096 0.94994 0.0
H4193 H 0.31733 0.2521 0.94146 0.0
H4194 H 0.27843 0.27452 0.92043 0.0
H4195 H 0.26838 0.25479 0.91903 0.0
H4196 H 0.26813 0.26462 0.93393 0.0
H4197 H 0.32506 0.25015 0.92045 0.0
H4198 H 0.31214 0.24423 0.90849 0.0
H4199 H 0.32269 0.26377 0.91032 0.0
H4200 H 0.27944 0.23996 0.8803 0.0
H4201 H 0.30306 0.28739 0.88413 0.0
H4202 H 0.27249 0.23214 0.9124 0.0
H4203 H 0.28769 0.22873 0.90953 0.0
H4204 H 0.27479 0.22334 0.89754 0.0
H4205 H 0.30214 0.291 0.9163 0.0
H4206 H 0.3141 0.29843 0.90313 0.0
H4207 H 0.31672 0.28619 0.91459 0.0
C4208 C 0.97766 0.14963 0.22004 0.0
C4209 C 0.97091 0.15189 0.23125 0.0
C4210 C 0.97465 0.15325 0.20783 0.0
C4211 C 0.96453 0.15924 0.20662 0.0
C4212 C 0.9574 0.16119 0.21782 0.0
C4213 C 0.96064 0.15748 0.22994 0.0
C4214 C 0.98259 0.15103 0.19625 0.0
C4215 C 0.94656 0.16756 0.21701 0.0
C4216 C 0.96752 0.18394 0.17766 0.0
C4217 C 0.95787 0.1741 0.1694 0.0
C4218 C 0.96971 0.17927 0.18974 0.0
C4219 C 0.96203 0.16432 0.19376 0.0
C4220 C 0.95221 0.15429 0.18539 0.0
C4221 C 0.95025 0.1593 0.17328 0.0
C4222 C 0.98034 0.19037 0.19818 0.0
C4223 C 0.94389 0.13825 0.1892 0.0
H4224 H 0.98541 0.14504 0.22078 0.0
H4225 H 0.95539 0.15941 0.23845 0.0
H4226 H 0.97554 0.14433 0.18875 0.0
H4227 H 0.98892 0.16214 0.19208 0.0
H4228 H 0.9894 0.14524 0.19863 0.0
H4229 H 0.94166 0.16801 0.22649 0.0
H4230 H 0.95111 0.17912 0.21311 0.0
H4231 H 0.9386 0.1606 0.21033 0.0
H4232 H 0.97346 0.19538 0.17462 0.0
H4233 H 0.94283 0.15165 0.16686 0.0
H4234 H 0.98825 0.186 0.20026 0.0
H4235 H 0.97559 0.1918 0.20748 0.0
H4236 H 0.98539 0.2016 0.19369 0.0
H4237 H 0.95073 0.13221 0.19059 0.0
H4238 H 0.93633 0.13202 0.18189 0.0
H4239 H 0.93841 0.13807 0.19847 0.0
C4240 C 0.05598 0.14203 0.3467 0.0
C4241 C 0.04459 0.12858 0.34462 0.0
C4242 C 0.06746 0.14212 0.35315 0.0
C4243 C 0.06777 0.12842 0.35752 0.0
C4244 C 0.05637 0.1148 0.35531 0.0
C4245 C 0.04499 0.11506 0.34898 0.0
C4246 C 0.07927 0.15692 0.35539 0.0
C4247 C 0.05616 0.09988 0.35966 0.0
C4248 C 0.10201 0.12542 0.36308 0.0
C4249 C 0.10266 0.12607 0.37648 0.0
C4250 C 0.09088 0.12645 0.35682 0.0
C4251 C 0.08008 0.12821 0.36411 0.0
C4252 C 0.08086 0.12916 0.37768 0.0
C4253 C 0.09211 0.12802 0.3837 0.0
C4254 C 0.09046 0.12511 0.34239 0.0
C4255 C 0.06967 0.13106 0.38588 0.0
H4256 H 0.05578 0.15257 0.34355 0.0
H4257 H 0.03637 0.10456 0.34733 0.0
H4258 H 0.08133 0.15863 0.36578 0.0
H4259 H 0.08861 0.15672 0.35049 0.0
H4260 H 0.07733 0.16666 0.35184 0.0
H4261 H 0.04686 0.09022 0.35666 0.0
H4262 H 0.06524 0.09811 0.3557 0.0
H4263 H 0.05662 0.09992 0.37026 0.0
H4264 H 0.11002 0.12361 0.35749 0.0
H4265 H 0.09247 0.12826 0.39407 0.0
H4266 H 0.08942 0.13512 0.33833 0.0
H4267 H 0.08141 0.11508 0.33953 0.0
H4268 H 0.09973 0.12404 0.33808 0.0
H4269 H 0.06861 0.14166 0.38336 0.0
H4270 H 0.07166 0.13138 0.39628 0.0
H4271 H 0.05979 0.12166 0.384 0.0
C4272 C 0.18009 0.87026 0.55198 0.0
C4273 C 0.1695 0.85628 0.55464 0.0
C4274 C 0.1835 0.88247 0.56075 0.0
C4275 C 0.17619 0.88084 0.5726 0.0
C4276 C 0.16531 0.86686 0.57528 0.0
C4277 C 0.16217 0.85476 0.56634 0.0
C4278 C 0.19524 0.89702 0.55742 0.0
C4279 C 0.15705 0.86467 0.58764 0.0
C4280 C 0.19532 0.90716 0.59983 0.0
C4281 C 0.19052 0.91877 0.59945 0.0
C4282 C 0.19044 0.89458 0.59144 0.0
C4283 C 0.18045 0.89351 0.5824 0.0
C4284 C 0.17527 0.90505 0.58227 0.0
C4285 C 0.18042 0.91758 0.59075 0.0
C4286 C 0.19639 0.88272 0.5919 0.0
C4287 C 0.16468 0.90449 0.57283 0.0
H4288 H 0.18599 0.87157 0.5431 0.0
H4289 H 0.15387 0.84412 0.56847 0.0
H4290 H 0.19206 0.90668 0.55859 0.0
H4291 H 0.20367 0.89897 0.56407 0.0
H4292 H 0.19919 0.89692 0.54744 0.0
H4293 H 0.1487 0.85332 0.58819 0.0
H4294 H 0.16375 0.86623 0.5959 0.0
H4295 H 0.15256 0.87331 0.58861 0.0
H4296 H 0.2033 0.90818 0.60641 0.0
H4297 H 0.17685 0.92667 0.59028 0.0
H4298 H 0.20184 0.88246 0.5827 0.0
H4299 H 0.18813 0.87141 0.59314 0.0
H4300 H 0.20363 0.88482 0.59981 0.0
H4301 H 0.16924 0.90606 0.56299 0.0
H4302 H 0.16062 0.91337 0.57484 0.0
H4303 H 0.15608 0.89331 0.57302 0.0
C4304 C 0.4889 0.91171 0.84997 0.0
C4305 C 0.50196 0.92322 0.85047 0.0
C4306 C 0.47792 0.91255 0.85729 0.0
C4307 C 0.47995 0.92528 0.86533 0.0
C4308 C 0.49307 0.93703 0.86584 0.0
C4309 C 0.50395 0.93581 0.85849 0.0
C4310 C 0.46415 0.89968 0.85654 0.0
C4311 C 0.49561 0.95087 0.87417 0.0
C4312 C 0.44696 0.92958 0.87545 0.0
C4313 C 0.44435 0.9232 0.88772 0.0
C4314 C 0.45894 0.93122 0.86839 0.0
C4315 C 0.46834 0.92586 0.87345 0.0
C4316 C 0.46599 0.91979 0.88592 0.0
C4317 C 0.45422 0.91884 0.89297 0.0
C4318 C 0.4613 0.93826 0.85531 0.0
C4319 C 0.4756 0.91367 0.89162 0.0
H4320 H 0.48731 0.90183 0.84398 0.0
H4321 H 0.51398 0.94481 0.85886 0.0
H4322 H 0.46073 0.89488 0.8662 0.0
H4323 H 0.45648 0.90385 0.85324 0.0
H4324 H 0.46429 0.89053 0.84991 0.0
H4325 H 0.50593 0.95971 0.87242 0.0
H4326 H 0.4879 0.95567 0.87244 0.0
H4327 H 0.49459 0.94774 0.88441 0.0
H4328 H 0.43949 0.93295 0.87116 0.0
H4329 H 0.45272 0.91446 0.9026 0.0
H4330 H 0.4601 0.92949 0.84782 0.0
H4331 H 0.47185 0.94686 0.85433 0.0
H4332 H 0.45405 0.94368 0.85348 0.0
H4333 H 0.47565 0.90388 0.88579 0.0
H4334 H 0.47268 0.90998 0.90166 0.0
H4335 H 0.48615 0.92232 0.8914 0.0
C4336 C 0.30787 0.1462 0.02533 0.0
C4337 C 0.31442 0.15987 0.03202 0.0
C4338 C 0.30926 0.1329 0.02882 0.0
C4339 C 0.31697 0.13301 0.03961 0.0
C4340 C 0.32303 0.14651 0.04683 0.0
C4341 C 0.32185 0.1598 0.04287 0.0
C4342 C 0.30275 0.11881 0.02073 0.0
C4343 C 0.33109 0.14702 0.05856 0.0
C4344 C 0.31143 0.09453 0.05298 0.0
C4345 C 0.32256 0.09206 0.04747 0.0
C4346 C 0.30967 0.10802 0.05084 0.0
C4347 C 0.31922 0.11916 0.0429 0.0
C4348 C 0.33064 0.11674 0.03755 0.0
C4349 C 0.33217 0.10321 0.03993 0.0
C4350 C 0.29743 0.11019 0.05679 0.0
C4351 C 0.34094 0.12819 0.02888 0.0
H4352 H 0.30171 0.14587 0.0172 0.0
H4353 H 0.32708 0.17022 0.0481 0.0
H4354 H 0.31062 0.11469 0.01712 0.0
H4355 H 0.29526 0.10975 0.02663 0.0
H4356 H 0.29745 0.12073 0.0124 0.0
H4357 H 0.33373 0.1578 0.06401 0.0
H4358 H 0.32524 0.13757 0.06501 0.0
H4359 H 0.34067 0.14568 0.05564 0.0
H4360 H 0.30395 0.08576 0.05872 0.0
H4361 H 0.34069 0.10114 0.03558 0.0
H4362 H 0.29062 0.11065 0.04916 0.0
H4363 H 0.30071 0.12108 0.06214 0.0
H4364 H 0.2915 0.10095 0.06342 0.0
H4365 H 0.33587 0.12957 0.02018 0.0
H4366 H 0.34949 0.12485 0.02587 0.0
H4367 H 0.34518 0.13934 0.0338 0.0
C4368 C 0.92799 0.73745 0.15649 0.0
C4369 C 0.92483 0.74345 0.16796 0.0
C4370 C 0.94123 0.73833 0.15363 0.0
C4371 C 0.95168 0.74538 0.16247 0.0
C4372 C 0.94842 0.75069 0.17443 0.0
C4373 C 0.93503 0.74969 0.17702 0.0
C4374 C 0.94409 0.73244 0.14078 0.0
C4375 C 0.9591 0.75835 0.18423 0.0
C4376 C 0.98462 0.739 0.15694 0.0
C4377 C 0.9923 0.75142 0.14942 0.0
C4378 C 0.9715 0.73712 0.16162 0.0
C4379 C 0.96605 0.74791 0.15871 0.0
C4380 C 0.97406 0.76072 0.15148 0.0
C4381 C 0.98704 0.76224 0.14683 0.0
C4382 C 0.96352 0.72383 0.16991 0.0
C4383 C 0.969 0.77296 0.14883 0.0
H4384 H 0.92013 0.73234 0.14953 0.0
H4385 H 0.93273 0.75444 0.18588 0.0
H4386 H 0.94842 0.74202 0.1341 0.0
H4387 H 0.95155 0.72707 0.1415 0.0
H4388 H 0.93465 0.72413 0.13655 0.0
H4389 H 0.95455 0.75658 0.1941 0.0
H4390 H 0.96755 0.75433 0.18372 0.0
H4391 H 0.9635 0.77066 0.18248 0.0
H4392 H 0.98896 0.73094 0.15935 0.0
H4393 H 0.99326 0.77213 0.14141 0.0
H4394 H 0.95372 0.71706 0.16538 0.0
H4395 H 0.96098 0.72778 0.17934 0.0
H4396 H 0.96924 0.71659 0.1716 0.0
H4397 H 0.96027 0.76851 0.14232 0.0
H4398 H 0.97704 0.78296 0.14435 0.0
H4399 H 0.96532 0.77661 0.15788 0.0
C4400 C 0.37787 0.85395 0.50243 0.0
C4401 C 0.37879 0.84646 0.51351 0.0
C4402 C 0.36595 0.85602 0.49964 0.0
C4403 C 0.3548 0.85136 0.50854 0.0
C4404 C 0.35615 0.84528 0.5204 0.0
C4405 C 0.36801 0.84262 0.52265 0.0
C4406 C 0.365 0.86225 0.48673 0.0
C4407 C 0.34488 0.84095 0.53053 0.0
C4408 C 0.32785 0.86521 0.49811 0.0
C4409 C 0.31869 0.85232 0.49185 0.0
C4410 C 0.33892 0.86469 0.5048 0.0
C4411 C 0.34142 0.85126 0.50458 0.0
C4412 C 0.33181 0.83805 0.49894 0.0
C4413 C 0.32034 0.83862 0.49318 0.0
C4414 C 0.34822 0.87871 0.51166 0.0
C4415 C 0.33408 0.82351 0.49817 0.0
H4416 H 0.38634 0.85768 0.49555 0.0
H4417 H 0.36854 0.83699 0.53134 0.0
H4418 H 0.35622 0.85406 0.48151 0.0
H4419 H 0.36323 0.87281 0.488 0.0
H4420 H 0.37437 0.86468 0.48067 0.0
H4421 H 0.34907 0.84197 0.54027 0.0
H4422 H 0.33882 0.84805 0.53016 0.0
H4423 H 0.33793 0.82902 0.52905 0.0
H4424 H 0.32675 0.87588 0.49744 0.0
H4425 H 0.31295 0.82829 0.48923 0.0
H4426 H 0.35718 0.88488 0.50538 0.0
H4427 H 0.35197 0.87581 0.52058 0.0
H4428 H 0.34295 0.88641 0.51413 0.0
H4429 H 0.3439 0.82539 0.49302 0.0
H4430 H 0.32582 0.81436 0.49312 0.0
H4431 H 0.33473 0.81963 0.50792 0.0
C4432 C 0.61973 0.27739 0.62764 0.0
C4433 C 0.62541 0.26644 0.62709 0.0
C4434 C 0.60722 0.27495 0.622 0.0
C4435 C 0.60011 0.26118 0.61527 0.0
C4436 C 0.60696 0.25122 0.61293 0.0
C4437 C 0.61922 0.25371 0.61916 0.0
C4438 C 0.60161 0.28711 0.62384 0.0
C4439 C 0.60142 0.23767 0.60409 0.0
C4440 C 0.5614 0.24137 0.61922 0.0
C4441 C 0.55673 0.25096 0.61294 0.0
C4442 C 0.57531 0.24397 0.61957 0.0
C4443 C 0.58505 0.25628 0.61272 0.0
C4444 C 0.58003 0.26459 0.60464 0.0
C4445 C 0.56603 0.26225 0.60524 0.0
C4446 C 0.57922 0.23346 0.62759 0.0
C4447 C 0.58917 0.27586 0.59516 0.0
H4448 H 0.62488 0.28783 0.63288 0.0
H4449 H 0.62363 0.24532 0.6181 0.0
H4450 H 0.60391 0.29402 0.61509 0.0
H4451 H 0.59043 0.28234 0.62569 0.0
H4452 H 0.60646 0.29494 0.63189 0.0
H4453 H 0.59985 0.22726 0.6094 0.0
H4454 H 0.5918 0.23651 0.59956 0.0
H4455 H 0.60913 0.23858 0.59637 0.0
H4456 H 0.55422 0.23212 0.62447 0.0
H4457 H 0.56245 0.26932 0.59977 0.0
H4458 H 0.57151 0.22807 0.63524 0.0
H4459 H 0.58917 0.23919 0.6322 0.0
H4460 H 0.57969 0.22415 0.6214 0.0
H4461 H 0.58901 0.28714 0.59735 0.0
H4462 H 0.58507 0.27263 0.58541 0.0
H4463 H 0.59982 0.2766 0.59496 0.0
C4464 C 0.12386 0.12795 0.9884 0.0
C4465 C 0.11558 0.13453 0.98307 0.0
C4466 C 0.13458 0.12616 0.98128 0.0
C4467 C 0.13686 0.13055 0.9683 0.0
C4468 C 0.12788 0.13603 0.96252 0.0
C4469 C 0.11748 0.13814 0.96999 0.0
C4470 C 0.14401 0.12054 0.98794 0.0
C4471 C 0.12969 0.14035 0.94858 0.0
C4472 C 0.17279 0.14499 0.95383 0.0
C4473 C 0.17281 0.13249 0.94664 0.0
C4474 C 0.16129 0.14433 0.96116 0.0
C4475 C 0.14938 0.1309 0.96116 0.0
C4476 C 0.14942 0.11811 0.95413 0.0
C4477 C 0.16122 0.11901 0.94705 0.0
C4478 C 0.16183 0.15812 0.96875 0.0
C4479 C 0.13694 0.1036 0.95386 0.0
H4480 H 0.12227 0.12459 0.99834 0.0
H4481 H 0.11125 0.14324 0.96566 0.0
H4482 H 0.14632 0.11214 0.9819 0.0
H4483 H 0.15381 0.13015 0.98966 0.0
H4484 H 0.13967 0.11537 0.99732 0.0
H4485 H 0.12097 0.14269 0.94512 0.0
H4486 H 0.13913 0.15059 0.9472 0.0
H4487 H 0.13082 0.13122 0.94255 0.0
H4488 H 0.18181 0.15538 0.95362 0.0
H4489 H 0.16122 0.10935 0.94148 0.0
H4490 H 0.15884 0.15516 0.97892 0.0
H4491 H 0.15447 0.16242 0.96492 0.0
H4492 H 0.17213 0.16733 0.96839 0.0
H4493 H 0.13458 0.09879 0.96361 0.0
H4494 H 0.1383 0.09507 0.94721 0.0
H4495 H 0.12799 0.10581 0.9509 0.0
C4496 C 0.25435 0.96055 0.10256 0.0
C4497 C 0.26094 0.95068 0.10434 0.0
C4498 C 0.26125 0.97455 0.0966 0.0
C4499 C 0.27496 0.97862 0.09227 0.0
C4500 C 0.2814 0.96837 0.09358 0.0
C4501 C 0.27431 0.95457 0.09957 0.0
C4502 C 0.25406 0.98518 0.09529 0.0
C4503 C 0.296 0.97221 0.0891 0.0
C4504 C 0.2942 0.01021 0.06926 0.0
C4505 C 0.30265 0.02117 0.07769 0.0
C4506 C 0.28442 0.99659 0.07392 0.0
C4507 C 0.28309 0.99395 0.08728 0.0
C4508 C 0.29099 0.00543 0.09584 0.0
C4509 C 0.30064 0.0189 0.09093 0.0
C4510 C 0.27615 0.98465 0.0645 0.0
C4511 C 0.28988 1.00311 0.11015 0.0
H4512 H 0.24399 0.95756 0.10621 0.0
H4513 H 0.27934 0.94683 0.1007 0.0
H4514 H 0.25932 0.99564 0.10095 0.0
H4515 H 0.25448 0.9885 0.08514 0.0
H4516 H 0.24323 0.98009 0.09863 0.0
H4517 H 0.29924 0.96265 0.09018 0.0
H4518 H 0.29736 0.97551 0.07889 0.0
H4519 H 0.30287 0.98198 0.09473 0.0
H4520 H 0.29577 0.01191 0.05901 0.0
H4521 H 0.30703 0.02748 0.09746 0.0
H4522 H 0.26522 0.98009 0.06747 0.0
H4523 H 0.27956 0.97512 0.06438 0.0
H4524 H 0.27723 0.98904 0.05462 0.0
H4525 H 0.27916 0.99995 0.11356 0.0
H4526 H 0.29642 0.01336 0.1155 0.0
H4527 H 0.29293 0.99371 0.11248 0.0
C4528 C 0.78546 0.46963 0.95539 0.0
C4529 C 0.77432 0.47136 0.9499 0.0
C4530 C 0.78533 0.45532 0.95792 0.0
C4531 C 0.77369 0.44224 0.95509 0.0
C4532 C 0.7621 0.44387 0.95016 0.0
C4533 C 0.76254 0.45841 0.94762 0.0
C4534 C 0.79786 0.45423 0.96335 0.0
C4535 C 0.74933 0.43025 0.94736 0.0
C4536 C 0.78117 0.4067 0.94999 0.0
C4537 C 0.77801 0.40026 0.96214 0.0
C4538 C 0.77916 0.41999 0.94736 0.0
C4539 C 0.77394 0.42699 0.95714 0.0
C4540 C 0.77031 0.42011 0.96929 0.0
C4541 C 0.77243 0.40688 0.97163 0.0
C4542 C 0.78304 0.42684 0.93424 0.0
C4543 C 0.76473 0.42705 0.98003 0.0
H4544 H 0.79447 0.47954 0.95754 0.0
H4545 H 0.75385 0.45958 0.94343 0.0
H4546 H 0.79517 0.44785 0.97241 0.0
H4547 H 0.80203 0.44797 0.95652 0.0
H4548 H 0.80599 0.46547 0.96528 0.0
H4549 H 0.74132 0.43334 0.94324 0.0
H4550 H 0.75173 0.42251 0.94056 0.0
H4551 H 0.74519 0.42393 0.95631 0.0
H4552 H 0.78542 0.40152 0.94263 0.0
H4553 H 0.76995 0.40183 0.98104 0.0
H4554 H 0.79169 0.43793 0.935 0.0
H4555 H 0.77439 0.42887 0.93026 0.0
H4556 H 0.78603 0.41954 0.92743 0.0
H4557 H 0.77304 0.43727 0.98376 0.0
H4558 H 0.76035 0.41914 0.98809 0.0
H4559 H 0.75674 0.4306 0.97653 0.0
C4560 C 0.91769 0.67232 0.19654 0.0
C4561 C 0.90724 0.659 0.19228 0.0
C4562 C 0.9308 0.67739 0.19088 0.0
C4563 C 0.93367 0.66869 0.18095 0.0
C4564 C 0.92365 0.65447 0.17756 0.0
C4565 C 0.9105 0.64984 0.18318 0.0
C4566 C 0.9411 0.6927 0.19473 0.0
C4567 C 0.92652 0.64473 0.16724 0.0
C4568 C 0.95809 0.6915 0.15503 0.0
C4569 C 0.97035 0.6899 0.15769 0.0
C4570 C 0.94608 0.68421 0.16223 0.0
C4571 C 0.94624 0.67549 0.17283 0.0
C4572 C 0.95837 0.67375 0.17577 0.0
C4573 C 0.97014 0.68064 0.16802 0.0
C4574 C 0.93327 0.68627 0.15869 0.0
C4575 C 0.95904 0.66496 0.1873 0.0
H4576 H 0.91545 0.67926 0.20388 0.0
H4577 H 0.90259 0.63951 0.1798 0.0
H4578 H 0.95155 0.69282 0.19478 0.0
H4579 H 0.94112 0.70114 0.18769 0.0
H4580 H 0.9386 0.69631 0.20435 0.0
H4581 H 0.9184 0.6332 0.16692 0.0
H4582 H 0.92726 0.64999 0.15777 0.0
H4583 H 0.93642 0.64382 0.1688 0.0
H4584 H 0.95768 0.69894 0.14769 0.0
H4585 H 0.97908 0.67862 0.17028 0.0
H4586 H 0.92997 0.69204 0.16665 0.0
H4587 H 0.92489 0.67512 0.15713 0.0
H4588 H 0.93472 0.693 0.14988 0.0
H4589 H 0.95824 0.67122 0.19616 0.0
H4590 H 0.96872 0.66315 0.18746 0.0
H4591 H 0.95037 0.65385 0.18754 0.0
C4592 C 0.74166 0.5531 0.39439 0.0
C4593 C 0.74721 0.545 0.40175 0.0
C4594 C 0.73742 0.56408 0.4001 0.0
C4595 C 0.73847 0.56683 0.41352 0.0
C4596 C 0.74393 0.55853 0.42098 0.0
C4597 C 0.74829 0.54785 0.41501 0.0
C4598 C 0.73191 0.57286 0.39177 0.0
C4599 C 0.74498 0.56077 0.43533 0.0
C4600 C 0.73747 0.60277 0.42932 0.0
C4601 C 0.72394 0.59771 0.43388 0.0
C4602 C 0.74226 0.59301 0.42228 0.0
C4603 C 0.73333 0.57783 0.41991 0.0
C4604 C 0.71958 0.57287 0.42436 0.0
C4605 C 0.71506 0.58289 0.43123 0.0
C4606 C 0.75698 0.5988 0.41771 0.0
C4607 C 0.70974 0.55679 0.42228 0.0
H4608 H 0.74091 0.55107 0.38413 0.0
H4609 H 0.75245 0.54155 0.42078 0.0
H4610 H 0.72135 0.57106 0.39493 0.0
H4611 H 0.73815 0.58511 0.39279 0.0
H4612 H 0.7319 0.56959 0.38148 0.0
H4613 H 0.74983 0.55377 0.43971 0.0
H4614 H 0.751 0.57278 0.43772 0.0
H4615 H 0.73466 0.5578 0.43976 0.0
H4616 H 0.74438 0.6142 0.43155 0.0
H4617 H 0.70464 0.57895 0.43495 0.0
H4618 H 0.75758 0.59694 0.40721 0.0
H4619 H 0.76229 0.59246 0.42233 0.0
H4620 H 0.76247 0.611 0.41989 0.0
H4621 H 0.70879 0.5541 0.41187 0.0
H4622 H 0.69944 0.55466 0.42648 0.0
H4623 H 0.71366 0.54894 0.42665 0.0
C4624 C 0.13365 0.81427 0.14007 0.0
C4625 C 0.1372 0.82984 0.14154 0.0
C4626 C 0.11999 0.8042 0.14064 0.0
C4627 C 0.1096 0.8099 0.14227 0.0
C4628 C 0.11313 0.82552 0.14445 0.0
C4629 C 0.12691 0.83524 0.14431 0.0
C4630 C 0.11688 0.78757 0.13877 0.0
C4631 C 0.10257 0.83227 0.14663 0.0
C4632 C 0.07778 0.7843 0.12571 0.0
C4633 C 0.06892 0.77794 0.13609 0.0
C4634 C 0.09081 0.79528 0.12764 0.0
C4635 C 0.09523 0.79969 0.14029 0.0
C4636 C 0.08611 0.79384 0.15082 0.0
C4637 C 0.0731 0.78289 0.14859 0.0
C4638 C 0.09971 0.8024 0.11609 0.0
C4639 C 0.08974 0.79936 0.16441 0.0
H4640 H 0.14148 0.80991 0.13794 0.0
H4641 H 0.12959 0.8472 0.14599 0.0
H4642 H 0.10656 0.78032 0.14238 0.0
H4643 H 0.11768 0.78509 0.12841 0.0
H4644 H 0.12446 0.78444 0.1437 0.0
H4645 H 0.10627 0.84387 0.14278 0.0
H4646 H 0.09271 0.82545 0.14221 0.0
H4647 H 0.10077 0.83314 0.1571 0.0
H4648 H 0.07439 0.78102 0.11601 0.0
H4649 H 0.06622 0.77815 0.15668 0.0
H4650 H 0.1077 0.79776 0.11471 0.0
H4651 H 0.10487 0.81479 0.1175 0.0
H4652 H 0.09379 0.80017 0.10719 0.0
H4653 H 0.08395 0.79057 0.17146 0.0
H4654 H 0.08687 0.80912 0.16635 0.0
H4655 H 0.1008 0.80302 0.16605 0.0
C4656 C 0.26875 0.05491 0.66628 0.0
C4657 C 0.28237 0.05616 0.66583 0.0
C4658 C 0.25812 0.04194 0.66153 0.0
C4659 C 0.26106 0.02975 0.6563 0.0
C4660 C 0.27468 0.03078 0.65609 0.0
C4661 C 0.28512 0.04394 0.66069 0.0
C4662 C 0.24373 0.0413 0.66204 0.0
C4663 C 0.2783 0.018 0.65085 0.0
C4664 C 0.23215 0.99086 0.65435 0.0
C4665 C 0.2287 0.9897 0.64138 0.0
C4666 C 0.24264 1.00372 0.65929 0.0
C4667 C 0.24993 0.01589 0.6511 0.0
C4668 C 0.24669 0.01468 0.63792 0.0
C4669 C 0.23618 1.00157 0.6332 0.0
C4670 C 0.24582 1.00429 0.67332 0.0
C4671 C 0.25412 0.02741 0.62888 0.0
H4672 H 0.26635 0.06406 0.67038 0.0
H4673 H 0.29553 0.04472 0.65997 0.0
H4674 H 0.23961 0.03949 0.65225 0.0
H4675 H 0.23707 0.03162 0.66789 0.0
H4676 H 0.24312 0.05178 0.66617 0.0
H4677 H 0.28916 0.02002 0.65228 0.0
H4678 H 0.27181 0.00728 0.65554 0.0
H4679 H 0.27633 0.01651 0.64044 0.0
H4680 H 0.22651 0.98167 0.66072 0.0
H4681 H 0.2335 1.00082 0.62322 0.0
H4682 H 0.24395 0.01372 0.67817 0.0
H4683 H 0.25674 0.00644 0.67441 0.0
H4684 H 0.23955 0.99367 0.67829 0.0
H4685 H 0.25248 0.03766 0.63211 0.0
H4686 H 0.25065 0.02464 0.61888 0.0
H4687 H 0.26524 0.03019 0.62898 0.0
C4688 C 0.83944 0.46179 0.38336 0.0
C4689 C 0.82854 0.45196 0.37617 0.0
C4690 C 0.8511 0.45859 0.38533 0.0
C4691 C 0.85192 0.44521 0.38004 0.0
C4692 C 0.84116 0.43554 0.37246 0.0
C4693 C 0.82975 0.43908 0.37054 0.0
C4694 C 0.86246 0.4694 0.39324 0.0
C4695 C 0.84154 0.4212 0.36659 0.0
C4696 C 0.88634 0.44163 0.37596 0.0
C4697 C 0.88636 0.43309 0.3866 0.0
C4698 C 0.8753 0.44576 0.37377 0.0
C4699 C 0.86392 0.4412 0.38244 0.0
C4700 C 0.86387 0.43239 0.39317 0.0
C4701 C 0.87513 0.42851 0.39516 0.0
C4702 C 0.87591 0.45518 0.36226 0.0
C4703 C 0.85197 0.42723 0.40262 0.0
H4704 H 0.8387 0.47175 0.38779 0.0
H4705 H 0.82163 0.43158 0.36466 0.0
H4706 H 0.86395 0.46356 0.40172 0.0
H4707 H 0.87217 0.47335 0.38753 0.0
H4708 H 0.8604 0.47937 0.39659 0.0
H4709 H 0.83254 0.41507 0.36065 0.0
H4710 H 0.8509 0.42376 0.36051 0.0
H4711 H 0.84186 0.41362 0.37428 0.0
H4712 H 0.89515 0.44537 0.36945 0.0
H4713 H 0.87525 0.42211 0.40351 0.0
H4714 H 0.87509 0.4659 0.36542 0.0
H4715 H 0.86716 0.44915 0.35603 0.0
H4716 H 0.88549 0.45786 0.35647 0.0
H4717 H 0.85071 0.43717 0.40719 0.0
H4718 H 0.85328 0.42013 0.41025 0.0
H4719 H 0.84242 0.42069 0.39757 0.0
C4720 C 0.70097 0.57877 0.93195 0.0
C4721 C 0.71448 0.5846 0.92706 0.0
C4722 C 0.69204 0.586 0.92992 0.0
C4723 C 0.69673 0.59966 0.92308 0.0
C4724 C 0.7104 0.60584 0.91836 0.0
C4725 C 0.71906 0.59819 0.92031 0.0
C4726 C 0.67752 0.57895 0.93501 0.0
C4727 C 0.71591 0.62061 0.91134 0.0
C4728 C 0.67182 0.61391 0.90819 0.0
C4729 C 0.67105 0.62439 0.91749 0.0
C4730 C 0.67981 0.60545 0.91004 0.0
C4731 C 0.6875 0.60778 0.92128 0.0
C4732 C 0.68653 0.61807 0.9308 0.0
C4733 C 0.67809 0.62591 0.92893 0.0
C4734 C 0.68022 0.5942 0.89985 0.0
C4735 C 0.6946 0.62103 0.9429 0.0
H4736 H 0.69734 0.56851 0.93746 0.0
H4737 H 0.72938 0.60279 0.91636 0.0
H4738 H 0.67534 0.58679 0.94186 0.0
H4739 H 0.67038 0.57679 0.92702 0.0
H4740 H 0.67538 0.56815 0.93995 0.0
H4741 H 0.72678 0.62398 0.90833 0.0
H4742 H 0.70986 0.61977 0.90271 0.0
H4743 H 0.71492 0.62966 0.91759 0.0
H4744 H 0.66647 0.61258 0.89932 0.0
H4745 H 0.67719 0.63347 0.93645 0.0
H4746 H 0.6778 0.58303 0.90419 0.0
H4747 H 0.69063 0.59786 0.8955 0.0
H4748 H 0.67292 0.59291 0.89213 0.0
H4749 H 0.69093 0.61076 0.94883 0.0
H4750 H 0.69372 0.63044 0.94875 0.0
H4751 H 0.70553 0.62382 0.94051 0.0
C4752 C 0.9585 0.73357 0.93621 0.0
C4753 C 0.95749 0.74766 0.93708 0.0
C4754 C 0.95733 0.72585 0.92445 0.0
C4755 C 0.95532 0.73244 0.91315 0.0
C4756 C 0.95453 0.74682 0.9139 0.0
C4757 C 0.95543 0.75418 0.9259 0.0
C4758 C 0.9578 0.71036 0.92423 0.0
C4759 C 0.95257 0.75433 0.90206 0.0
C4760 C 0.96078 0.71167 0.88317 0.0
C4761 C 0.9474 0.70153 0.88101 0.0
C4762 C 0.9635 0.72276 0.89299 0.0
C4763 C 0.95263 0.72343 0.90094 0.0
C4764 C 0.93908 0.71389 0.89815 0.0
C4765 C 0.93666 0.7034 0.88807 0.0
C4766 C 0.97803 0.73325 0.8953 0.0
C4767 C 0.92714 0.71383 0.90646 0.0
H4768 H 0.95992 0.72841 0.94485 0.0
H4769 H 0.95471 0.7651 0.92653 0.0
H4770 H 0.94807 0.70192 0.92064 0.0
H4771 H 0.96607 0.71013 0.91759 0.0
H4772 H 0.95951 0.70688 0.93386 0.0
H4773 H 0.95439 0.76637 0.90388 0.0
H4774 H 0.95953 0.75359 0.89415 0.0
H4775 H 0.942 0.74845 0.89875 0.0
H4776 H 0.96912 0.71051 0.87763 0.0
H4777 H 0.92622 0.69601 0.88613 0.0
H4778 H 0.98154 0.73 0.90419 0.0
H4779 H 0.97874 0.745 0.8967 0.0
H4780 H 0.985 0.73292 0.88724 0.0
H4781 H 0.92782 0.70971 0.91614 0.0
H4782 H 0.91719 0.70647 0.90244 0.0
H4783 H 0.92737 0.72539 0.90767 0.0
C4784 C 0.22245 0.28847 0.74543 0.0
C4785 C 0.23026 0.28819 0.75589 0.0
C4786 C 0.22803 0.29029 0.73287 0.0
C4787 C 0.24164 0.2916 0.73073 0.0
C4788 C 0.24987 0.29251 0.74132 0.0
C4789 C 0.24412 0.29097 0.75376 0.0
C4790 C 0.21907 0.2897 0.72182 0.0
C4791 C 0.26446 0.294 0.73947 0.0
C4792 C 0.24888 0.27267 0.70075 0.0
C4793 C 0.2564 0.28496 0.693 0.0
C4794 C 0.24405 0.27476 0.71298 0.0
C4795 C 0.24657 0.28954 0.71758 0.0
C4796 C 0.25396 0.30205 0.70976 0.0
C4797 C 0.25879 0.29961 0.69753 0.0
C4798 C 0.23639 0.26109 0.72106 0.0
C4799 C 0.25667 0.31797 0.71423 0.0
H4800 H 0.21176 0.28641 0.74693 0.0
H4801 H 0.25037 0.29129 0.76181 0.0
H4802 H 0.22462 0.29868 0.71485 0.0
H4803 H 0.21628 0.27871 0.7167 0.0
H4804 H 0.20955 0.29101 0.72509 0.0
H4805 H 0.26984 0.29594 0.74868 0.0
H4806 H 0.26465 0.28353 0.73492 0.0
H4807 H 0.27015 0.30343 0.73296 0.0
H4808 H 0.24671 0.2613 0.69722 0.0
H4809 H 0.26465 0.30919 0.69163 0.0
H4810 H 0.22601 0.26059 0.72353 0.0
H4811 H 0.24168 0.26194 0.73019 0.0
H4812 H 0.23544 0.25039 0.71611 0.0
H4813 H 0.247 0.31976 0.71444 0.0
H4814 H 0.26413 0.32648 0.70783 0.0
H4815 H 0.26056 0.31993 0.72411 0.0
C4816 C 0.58191 0.2039 0.42327 0.0
C4817 C 0.58252 0.20854 0.43624 0.0
C4818 C 0.58313 0.21394 0.41321 0.0
C4819 C 0.58503 0.2291 0.41607 0.0
C4820 C 0.58526 0.23373 0.4291 0.0
C4821 C 0.58405 0.22349 0.43894 0.0
C4822 C 0.58265 0.20834 0.39952 0.0
C4823 C 0.58697 0.24964 0.43267 0.0
C4824 C 0.60164 0.26079 0.39172 0.0
C4825 C 0.59034 0.26311 0.38737 0.0
C4826 C 0.60004 0.24948 0.40077 0.0
C4827 C 0.58682 0.24027 0.40558 0.0
C4828 C 0.57538 0.24242 0.4009 0.0
C4829 C 0.57729 0.25378 0.3919 0.0
C4830 C 0.6125 0.24745 0.40527 0.0
C4831 C 0.56109 0.23271 0.40541 0.0
H4832 H 0.58049 0.19236 0.42094 0.0
H4833 H 0.58474 0.22742 0.44881 0.0
H4834 H 0.57549 0.21151 0.39399 0.0
H4835 H 0.59288 0.21372 0.39487 0.0
H4836 H 0.5795 0.19591 0.39889 0.0
H4837 H 0.58686 0.25152 0.4432 0.0
H4838 H 0.59675 0.25773 0.42854 0.0
H4839 H 0.57867 0.25222 0.42856 0.0
H4840 H 0.61172 0.2678 0.38807 0.0
H4841 H 0.5685 0.25535 0.38835 0.0
H4842 H 0.61156 0.23571 0.40327 0.0
H4843 H 0.61332 0.24931 0.4158 0.0
H4844 H 0.62203 0.25531 0.40054 0.0
H4845 H 0.55877 0.22077 0.40267 0.0
H4846 H 0.55331 0.23617 0.40125 0.0
H4847 H 0.56019 0.23325 0.41601 0.0
C4848 C 0.33305 0.7389 0.27313 0.0
C4849 C 0.32527 0.7414 0.28339 0.0
C4850 C 0.32924 0.73883 0.26037 0.0
C4851 C 0.31731 0.74125 0.25771 0.0
C4852 C 0.30908 0.74313 0.26804 0.0
C4853 C 0.31323 0.74333 0.28074 0.0
C4854 C 0.33822 0.73655 0.24969 0.0
C4855 C 0.29597 0.74503 0.26564 0.0
C4856 C 0.31835 0.75832 0.22501 0.0
C4857 C 0.31144 0.74552 0.21755 0.0
C4858 C 0.31969 0.75715 0.23826 0.0
C4859 C 0.31405 0.74282 0.24412 0.0
C4860 C 0.30644 0.72996 0.23665 0.0
C4861 C 0.3053 0.73148 0.22342 0.0
C4862 C 0.32782 0.77115 0.24585 0.0
C4863 C 0.30024 0.71444 0.24234 0.0
H4864 H 0.34236 0.73739 0.27508 0.0
H4865 H 0.30699 0.7449 0.28863 0.0
H4866 H 0.33213 0.72712 0.24329 0.0
H4867 H 0.34252 0.74684 0.24379 0.0
H4868 H 0.34677 0.73404 0.25335 0.0
H4869 H 0.29032 0.7455 0.27469 0.0
H4870 H 0.29818 0.75556 0.26028 0.0
H4871 H 0.2893 0.73554 0.25962 0.0
H4872 H 0.32325 0.76914 0.22039 0.0
H4873 H 0.30014 0.72154 0.21755 0.0
H4874 H 0.33721 0.77021 0.24924 0.0
H4875 H 0.32184 0.77227 0.25444 0.0
H4876 H 0.33079 0.78154 0.2401 0.0
H4877 H 0.30817 0.70967 0.24269 0.0
H4878 H 0.29181 0.70668 0.23646 0.0
H4879 H 0.29629 0.7148 0.25227 0.0
C4880 C 0.85155 0.23852 0.56971 0.0
C4881 C 0.86502 0.24911 0.5682 0.0
C4882 C 0.84441 0.23684 0.58157 0.0
C4883 C 0.85076 0.24615 0.59214 0.0
C4884 C 0.8646 0.25615 0.5909 0.0
C4885 C 0.87157 0.25736 0.57904 0.0
C4886 C 0.82982 0.22569 0.58257 0.0
C4887 C 0.87185 0.26624 0.60191 0.0
C4888 C 0.8301 0.25891 0.61677 0.0
C4889 C 0.83041 0.25075 0.62754 0.0
C4890 C 0.83615 0.25697 0.60502 0.0
C4891 C 0.8427 0.24665 0.60406 0.0
C4892 C 0.84246 0.23788 0.61483 0.0
C4893 C 0.83635 0.24009 0.62648 0.0
C4894 C 0.83621 0.26661 0.59384 0.0
C4895 C 0.84914 0.22662 0.6142 0.0
H4896 H 0.84632 0.23205 0.56148 0.0
H4897 H 0.8821 0.26519 0.57817 0.0
H4898 H 0.82789 0.21938 0.59165 0.0
H4899 H 0.82292 0.23185 0.58263 0.0
H4900 H 0.82717 0.21751 0.57442 0.0
H4901 H 0.88282 0.27278 0.59962 0.0
H4902 H 0.86696 0.27429 0.60434 0.0
H4903 H 0.87102 0.25946 0.61055 0.0
H4904 H 0.82567 0.26731 0.61768 0.0
H4905 H 0.83671 0.23392 0.63491 0.0
H4906 H 0.83216 0.25943 0.58525 0.0
H4907 H 0.84683 0.27434 0.59144 0.0
H4908 H 0.83004 0.27346 0.5959 0.0
H4909 H 0.84485 0.21838 0.60628 0.0
H4910 H 0.84773 0.22038 0.62329 0.0
H4911 H 0.86022 0.23247 0.61209 0.0
C4912 C 0.44275 0.10443 0.24171 0.0
C4913 C 0.45662 0.10797 0.23879 0.0
C4914 C 0.43852 0.10988 0.25304 0.0
C4915 C 0.44837 0.11915 0.26169 0.0
C4916 C 0.46236 0.12255 0.2589 0.0
C4917 C 0.46629 0.11699 0.24753 0.0
C4918 C 0.42352 0.10594 0.25565 0.0
C4919 C 0.47323 0.13237 0.26782 0.0
C4920 C 0.44038 0.1475 0.2831 0.0
C4921 C 0.4381 0.14065 0.29507 0.0
C4922 C 0.44343 0.14047 0.27214 0.0
C4923 C 0.44419 0.12617 0.27318 0.0
C4924 C 0.44158 0.11904 0.28529 0.0
C4925 C 0.43859 0.12641 0.29613 0.0
C4926 C 0.44634 0.14861 0.25954 0.0
C4927 C 0.44221 0.1038 0.28682 0.0
H4928 H 0.43516 0.09733 0.23515 0.0
H4929 H 0.47704 0.12003 0.24534 0.0
H4930 H 0.42052 0.10102 0.26532 0.0
H4931 H 0.42137 0.11632 0.25554 0.0
H4932 H 0.41708 0.09782 0.24846 0.0
H4933 H 0.48361 0.13348 0.26455 0.0
H4934 H 0.47301 0.14379 0.26854 0.0
H4935 H 0.47122 0.1276 0.2776 0.0
H4936 H 0.44023 0.15865 0.28237 0.0
H4937 H 0.43701 0.12124 0.30546 0.0
H4938 H 0.43956 0.14139 0.25209 0.0
H4939 H 0.45699 0.15101 0.25626 0.0
H4940 H 0.4449 0.15944 0.26024 0.0
H4941 H 0.43421 0.09526 0.28105 0.0
H4942 H 0.44072 0.10017 0.29697 0.0
H4943 H 0.45218 0.10399 0.28317 0.0
C4944 C 0.77228 0.81726 0.08094 0.0
C4945 C 0.76181 0.80676 0.07376 0.0
C4946 C 0.77269 0.81581 0.09434 0.0
C4947 C 0.7623 0.80367 0.10074 0.0
C4948 C 0.75141 0.79351 0.09355 0.0
C4949 C 0.75138 0.79509 0.08022 0.0
C4950 C 0.78452 0.82688 0.10154 0.0
C4951 C 0.73971 0.78091 0.09997 0.0
C4952 C 0.76722 0.78656 0.13188 0.0
C4953 C 0.76163 0.79349 0.14103 0.0
C4954 C 0.76805 0.7903 0.11884 0.0
C4955 C 0.76295 0.80103 0.11479 0.0
C4956 C 0.75735 0.80811 0.12413 0.0
C4957 C 0.75692 0.80438 0.13715 0.0
C4958 C 0.7739 0.78221 0.10938 0.0
C4959 C 0.7513 0.81918 0.12039 0.0
H4960 H 0.78036 0.82632 0.07602 0.0
H4961 H 0.74311 0.78711 0.07477 0.0
H4962 H 0.78096 0.83099 0.1104 0.0
H4963 H 0.79112 0.82113 0.10448 0.0
H4964 H 0.79073 0.83674 0.09564 0.0
H4965 H 0.73155 0.77466 0.09319 0.0
H4966 H 0.74344 0.77281 0.10415 0.0
H4967 H 0.73526 0.78553 0.10793 0.0
H4968 H 0.77069 0.77797 0.13485 0.0
H4969 H 0.7524 0.80958 0.14426 0.0
H4970 H 0.77915 0.78962 0.10129 0.0
H4971 H 0.76555 0.77217 0.10546 0.0
H4972 H 0.78114 0.77831 0.11401 0.0
H4973 H 0.75961 0.83008 0.11788 0.0
H4974 H 0.74499 0.8213 0.1283 0.0
H4975 H 0.74489 0.81505 0.11185 0.0
C4976 C 0.06705 0.87 0.81445 0.0
C4977 C 0.06949 0.86846 0.8013 0.0
C4978 C 0.06847 0.85992 0.82332 0.0
C4979 C 0.07246 0.84813 0.8189 0.0
C4980 C 0.0741 0.84606 0.80556 0.0
C4981 C 0.07253 0.85617 0.79697 0.0
C4982 C 0.06635 0.8623 0.83744 0.0
C4983 C 0.07847 0.83379 0.80038 0.0
C4984 C 0.09499 0.83714 0.8403 0.0
C4985 C 0.08681 0.8221 0.84349 0.0
C4986 C 0.09049 0.84551 0.83223 0.0
C4987 C 0.07692 0.8394 0.82807 0.0
C4988 C 0.06815 0.82474 0.83198 0.0
C4989 C 0.07327 0.81612 0.83938 0.0
C4990 C 0.10049 0.86079 0.82787 0.0
C4991 C 0.05335 0.8182 0.82846 0.0
H4992 H 0.06469 0.87946 0.81785 0.0
H4993 H 0.0742 0.8548 0.78679 0.0
H4994 H 0.06004 0.85142 0.842 0.0
H4995 H 0.07631 0.86675 0.8422 0.0
H4996 H 0.06136 0.8704 0.83922 0.0
H4997 H 0.0787 0.83326 0.78974 0.0
H4998 H 0.08881 0.83581 0.80375 0.0
H4999 H 0.07147 0.82265 0.80402 0.0
H5000 H 0.10511 0.8426 0.84403 0.0
H5001 H 0.06663 0.8047 0.84179 0.0
H5002 H 0.09716 0.86973 0.83159 0.0
H5003 H 0.10086 0.8613 0.81725 0.0
H5004 H 0.11097 0.86337 0.83116 0.0
H5005 H 0.048 0.82467 0.83354 0.0
H5006 H 0.04819 0.80615 0.8311 0.0
H5007 H 0.05227 0.81923 0.81804 0.0
C5008 C 0.99363 0.91648 0.6986 0.0
C5009 C 0.99261 0.91803 0.71199 0.0
C5010 C 0.9828 0.9153 0.69066 0.0
C5011 C 0.97051 0.9155 0.69619 0.0
C5012 C 0.96954 0.91744 0.70963 0.0
C5013 C 0.98058 0.91883 0.7173 0.0
C5014 C 0.98441 0.91354 0.67636 0.0
C5015 C 0.95666 0.91766 0.71598 0.0
C5016 C 0.94581 0.92367 0.67483 0.0
C5017 C 0.93635 0.90915 0.67203 0.0
C5018 C 0.95689 0.92593 0.68276 0.0
C5019 C 0.95857 0.91334 0.688 0.0
C5020 C 0.94881 0.89863 0.68537 0.0
C5021 C 0.93785 0.89672 0.67737 0.0
C5022 C 0.96702 0.94177 0.68523 0.0
C5023 C 0.95016 0.88489 0.69072 0.0
H5024 H 1.00275 0.91573 0.6943 0.0
H5025 H 0.9797 0.92042 0.72755 0.0
H5026 H 0.9766 0.90269 0.67301 0.0
H5027 H 0.98275 0.92267 0.67135 0.0
H5028 H 0.99465 0.91383 0.6735 0.0
H5029 H 0.9577 0.91993 0.72645 0.0
H5030 H 0.95383 0.92637 0.71161 0.0
H5031 H 0.94814 0.90661 0.71442 0.0
H5032 H 0.94478 0.93326 0.67047 0.0
H5033 H 0.93068 0.88546 0.67498 0.0
H5034 H 0.97725 0.94297 0.68148 0.0
H5035 H 0.96786 0.94414 0.69569 0.0
H5036 H 0.96414 0.95037 0.68068 0.0
H5037 H 0.95969 0.88403 0.68691 0.0
H5038 H 0.94144 0.87431 0.68826 0.0
H5039 H 0.95087 0.88591 0.70131 0.0
C5040 C 0.85266 0.17123 0.4533 0.0
C5041 C 0.86679 0.17669 0.45459 0.0
C5042 C 0.84593 0.15872 0.44539 0.0
C5043 C 0.85358 0.1516 0.43862 0.0
C5044 C 0.86793 0.15725 0.43977 0.0
C5045 C 0.87439 0.16976 0.44782 0.0
C5046 C 0.83063 0.15293 0.4445 0.0
C5047 C 0.8764 0.14995 0.43264 0.0
C5048 C 0.83538 0.11069 0.42856 0.0
C5049 C 0.83374 0.11199 0.41546 0.0
C5050 C 0.8418 0.12351 0.43622 0.0
C5051 C 0.84649 0.13796 0.43065 0.0
C5052 C 0.84447 0.13934 0.41749 0.0
C5053 C 0.83821 0.12629 0.41001 0.0
C5054 C 0.84394 0.12156 0.45017 0.0
C5055 C 0.84913 0.15457 0.41129 0.0
H5056 H 0.84686 0.17661 0.45869 0.0
H5057 H 0.88533 0.17404 0.44895 0.0
H5058 H 0.82774 0.15239 0.43434 0.0
H5059 H 0.82593 0.14131 0.44826 0.0
H5060 H 0.82626 0.16012 0.44998 0.0
H5061 H 0.88742 0.15564 0.43465 0.0
H5062 H 0.87289 0.13793 0.43534 0.0
H5063 H 0.87507 0.1502 0.42217 0.0
H5064 H 0.83212 0.09958 0.43269 0.0
H5065 H 0.83694 0.12723 0.39985 0.0
H5066 H 0.83957 0.12822 0.45634 0.0
H5067 H 0.85501 0.12589 0.45199 0.0
H5068 H 0.83923 0.10958 0.45311 0.0
H5069 H 0.84446 0.16168 0.41644 0.0
H5070 H 0.84643 0.1537 0.40104 0.0
H5071 H 0.86034 0.16046 0.41196 0.0
C5072 C 0.55151 0.09955 0.13351 0.0
C5073 C 0.54242 0.08499 0.1368 0.0
C5074 C 0.56421 0.10203 0.12752 0.0
C5075 C 0.56798 0.08967 0.12477 0.0
C5076 C 0.55911 0.07502 0.12856 0.0
C5077 C 0.54642 0.07284 0.13448 0.0
C5078 C 0.57335 0.11783 0.12362 0.0
C5079 C 0.56285 0.06158 0.12602 0.0
C5080 C 0.59272 0.09533 0.09637 0.0
C5081 C 0.60519 0.09931 0.10239 0.0
C5082 C 0.58048 0.09153 0.10356 0.0
C5083 C 0.58075 0.09203 0.11713 0.0
C5084 C 0.59331 0.09568 0.12327 0.0
C5085 C 0.60539 0.09919 0.11581 0.0
C5086 C 0.56729 0.08734 0.09662 0.0
C5087 C 0.59409 0.09646 0.13769 0.0
H5088 H 0.54846 0.10897 0.13512 0.0
H5089 H 0.53953 0.06158 0.13714 0.0
H5090 H 0.5837 0.12085 0.12737 0.0
H5091 H 0.57439 0.11841 0.11301 0.0
H5092 H 0.56934 0.12634 0.12713 0.0
H5093 H 0.55499 0.05099 0.12985 0.0
H5094 H 0.56419 0.0601 0.11556 0.0
H5095 H 0.57272 0.0635 0.13044 0.0
H5096 H 0.59256 0.09525 0.08598 0.0
H5097 H 0.61506 0.10234 0.12048 0.0
H5098 H 0.56285 0.09585 0.09878 0.0
H5099 H 0.55979 0.07631 0.09999 0.0
H5100 H 0.56872 0.08664 0.08606 0.0
H5101 H 0.59211 0.10637 0.14134 0.0
H5102 H 0.60424 0.09753 0.14096 0.0
H5103 H 0.58618 0.08629 0.14204 0.0
C5104 C 0.75949 0.90355 0.96031 0.0
C5105 C 0.74892 0.89044 0.96484 0.0
C5106 C 0.75672 0.91483 0.95412 0.0
C5107 C 0.74303 0.9131 0.9525 0.0
C5108 C 0.73232 0.89983 0.95692 0.0
C5109 C 0.73538 0.88866 0.96296 0.0
C5110 C 0.76847 0.92877 0.94955 0.0
C5111 C 0.7176 0.89758 0.95556 0.0
C5112 C 0.73602 0.94876 0.94902 0.0
C5113 C 0.73453 0.94911 0.93579 0.0
C5114 C 0.73868 0.93707 0.95458 0.0
C5115 C 0.73988 0.92541 0.94669 0.0
C5116 C 0.73816 0.92564 0.93328 0.0
C5117 C 0.73556 0.93755 0.92797 0.0
C5118 C 0.74051 0.9374 0.96887 0.0
C5119 C 0.73946 0.91353 0.92451 0.0
H5120 H 0.76997 0.905 0.96162 0.0
H5121 H 0.72713 0.87871 0.96658 0.0
H5122 H 0.7672 0.93096 0.9394 0.0
H5123 H 0.76864 0.9387 0.95529 0.0
H5124 H 0.77845 0.92778 0.95041 0.0
H5125 H 0.71045 0.88654 0.95929 0.0
H5126 H 0.71556 0.90668 0.96083 0.0
H5127 H 0.71546 0.89831 0.94533 0.0
H5128 H 0.73547 0.95789 0.95502 0.0
H5129 H 0.73467 0.93801 0.91769 0.0
H5130 H 0.75105 0.93859 0.97086 0.0
H5131 H 0.73347 0.92665 0.97314 0.0
H5132 H 0.73864 0.94685 0.97373 0.0
H5133 H 0.75005 0.91408 0.92461 0.0
H5134 H 0.73694 0.91472 0.91447 0.0
H5135 H 0.73265 0.90221 0.92796 0.0
C5136 C 0.10368 0.26434 0.83554 0.0
C5137 C 0.11524 0.27789 0.83508 0.0
C5138 C 0.0906 0.26425 0.83818 0.0
C5139 C 0.08899 0.27805 0.84053 0.0
C5140 C 0.10067 0.29172 0.84054 0.0
C5141 C 0.11361 0.29148 0.83775 0.0
C5142 C 0.07846 0.2494 0.83797 0.0
C5143 C 0.09948 0.30662 0.84338 0.0
C5144 C 0.05453 0.27958 0.83407 0.0
C5145 C 0.04818 0.27694 0.84624 0.0
C5146 C 0.06783 0.28005 0.83208 0.0
C5147 C 0.07506 0.27818 0.84259 0.0
C5148 C 0.06872 0.27584 0.85496 0.0
C5149 C 0.05526 0.27498 0.8566 0.0
C5150 C 0.07389 0.28183 0.81863 0.0
C5151 C 0.07609 0.27401 0.86643 0.0
H5152 H 0.10479 0.2538 0.83337 0.0
H5153 H 0.1225 0.30199 0.83763 0.0
H5154 H 0.07193 0.24821 0.84672 0.0
H5155 H 0.07215 0.24904 0.82964 0.0
H5156 H 0.08151 0.23961 0.83725 0.0
H5157 H 0.10954 0.31623 0.84314 0.0
H5158 H 0.09287 0.30863 0.8363 0.0
H5159 H 0.09459 0.30633 0.85299 0.0
H5160 H 0.04884 0.28054 0.82596 0.0
H5161 H 0.05016 0.27233 0.8659 0.0
H5162 H 0.07627 0.27187 0.81594 0.0
H5163 H 0.08361 0.29187 0.81816 0.0
H5164 H 0.06692 0.28301 0.81147 0.0
H5165 H 0.08023 0.2652 0.86458 0.0
H5166 H 0.06935 0.27094 0.87513 0.0
H5167 H 0.08488 0.28475 0.86825 0.0
C5168 C 0.64397 0.13346 0.5343 0.0
C5169 C 0.64135 0.13381 0.52126 0.0
C5170 C 0.65556 0.13139 0.53829 0.0
C5171 C 0.66483 0.12952 0.52903 0.0
C5172 C 0.66208 0.12939 0.51583 0.0
C5173 C 0.65043 0.13169 0.51209 0.0
C5174 C 0.65809 0.13171 0.55247 0.0
C5175 C 0.67145 0.12687 0.50569 0.0
C5176 C 0.70058 0.14221 0.54164 0.0
C5177 C 0.70048 0.12884 0.54682 0.0
C5178 C 0.68935 0.14242 0.53514 0.0
C5179 C 0.67782 0.12886 0.53337 0.0
C5180 C 0.67819 0.1151 0.53744 0.0
C5181 C 0.68941 0.11527 0.54426 0.0
C5182 C 0.68944 0.15738 0.53103 0.0
C5183 C 0.66636 0.10027 0.5354 0.0
H5184 H 0.63714 0.1353 0.54147 0.0
H5185 H 0.6484 0.13176 0.502 0.0
H5186 H 0.65916 0.12118 0.5552 0.0
H5187 H 0.66777 0.14124 0.55472 0.0
H5188 H 0.64974 0.13294 0.55845 0.0
H5189 H 0.66776 0.12676 0.49586 0.0
H5190 H 0.68182 0.13584 0.50635 0.0
H5191 H 0.67239 0.11598 0.50732 0.0
H5192 H 0.70926 0.1527 0.5431 0.0
H5193 H 0.68914 0.10483 0.54816 0.0
H5194 H 0.68179 0.16012 0.53689 0.0
H5195 H 0.68655 0.15678 0.52087 0.0
H5196 H 0.69956 0.16672 0.53216 0.0
H5197 H 0.65854 0.09875 0.54313 0.0
H5198 H 0.66961 0.09063 0.53568 0.0
H5199 H 0.66152 0.09995 0.5261 0.0
C5200 C 0.4011 0.72817 0.40479 0.0
C5201 C 0.39566 0.7239 0.39256 0.0
C5202 C 0.41323 0.7268 0.40808 0.0
C5203 C 0.41998 0.72073 0.39903 0.0
C5204 C 0.41355 0.71462 0.38736 0.0
C5205 C 0.40161 0.71646 0.38417 0.0
C5206 C 0.41944 0.73311 0.4208 0.0
C5207 C 0.41987 0.70752 0.37754 0.0
C5208 C 0.45844 0.74096 0.39811 0.0
C5209 C 0.46261 0.73177 0.40554 0.0
C5210 C 0.44466 0.73733 0.39583 0.0
C5211 C 0.43472 0.72374 0.40065 0.0
C5212 C 0.43897 0.71381 0.40744 0.0
C5213 C 0.45293 0.7181 0.41005 0.0
C5214 C 0.44073 0.74838 0.38866 0.0
C5215 C 0.42883 0.69887 0.41216 0.0
H5216 H 0.39624 0.7333 0.41162 0.0
H5217 H 0.39751 0.71294 0.37472 0.0
H5218 H 0.42297 0.72513 0.42547 0.0
H5219 H 0.42846 0.74375 0.4192 0.0
H5220 H 0.41213 0.73555 0.42742 0.0
H5221 H 0.42527 0.71614 0.37027 0.0
H5222 H 0.42713 0.70338 0.3818 0.0
H5223 H 0.4119 0.69798 0.37256 0.0
H5224 H 0.46599 0.75124 0.39422 0.0
H5225 H 0.45621 0.71084 0.41562 0.0
H5226 H 0.4345 0.75273 0.39507 0.0
H5227 H 0.4344 0.74267 0.3804 0.0
H5228 H 0.44975 0.75812 0.3851 0.0
H5229 H 0.42384 0.70067 0.42119 0.0
H5230 H 0.43385 0.69099 0.41411 0.0
H5231 H 0.42076 0.69351 0.40507 0.0
C5232 C 0.88008 0.81095 0.01244 0.0
C5233 C 0.89235 0.81662 0.019 0.0
C5234 C 0.86887 0.81416 0.01667 0.0
C5235 C 0.87004 0.8235 0.02762 0.0
C5236 C 0.88247 0.82945 0.03421 0.0
C5237 C 0.89346 0.82577 0.02991 0.0
C5238 C 0.85564 0.80713 0.00969 0.0
C5239 C 0.88412 0.83958 0.04587 0.0
C5240 C 0.84318 0.84015 0.03295 0.0
C5241 C 0.83526 0.83147 0.04316 0.0
C5242 C 0.85473 0.83796 0.02799 0.0
C5243 C 0.85794 0.82613 0.03269 0.0
C5244 C 0.8496 0.8167 0.04234 0.0
C5245 C 0.83879 0.81983 0.04776 0.0
C5246 C 0.86377 0.84864 0.01804 0.0
C5247 C 0.85226 0.80346 0.0472 0.0
H5248 H 0.87916 0.80366 1.00412 0.0
H5249 H 0.90296 0.83018 0.03496 0.0
H5250 H 0.8475 0.79986 0.01632 0.0
H5251 H 0.85238 0.81602 1.00636 0.0
H5252 H 0.85647 0.80021 1.00127 0.0
H5253 H 0.89483 0.84462 0.04901 0.0
H5254 H 0.8807 0.84879 0.04383 0.0
H5255 H 0.87763 0.83304 0.05392 0.0
H5256 H 0.84066 0.84896 0.02896 0.0
H5257 H 0.83354 0.81328 0.05597 0.0
H5258 H 0.86463 0.84232 0.00925 0.0
H5259 H 0.8742 0.85437 0.02177 0.0
H5260 H 0.85993 0.85735 0.01542 0.0
H5261 H 0.85328 0.79631 0.03905 0.0
H5262 H 0.84399 0.79633 0.05381 0.0
H5263 H 0.86197 0.80756 0.05237 0.0
C5264 C 0.77315 0.06994 0.85262 0.0
C5265 C 0.78687 0.07805 0.85552 0.0
C5266 C 0.7649 0.05748 0.86001 0.0
C5267 C 0.77043 0.05329 0.8707 0.0
C5268 C 0.78421 0.06157 0.87373 0.0
C5269 C 0.79225 0.07377 0.86609 0.0
C5270 C 0.75031 0.04876 0.85634 0.0
C5271 C 0.79049 0.05752 0.88505 0.0
C5272 C 0.7462 0.02996 0.89692 0.0
C5273 C 0.74601 0.01559 0.89415 0.0
C5274 C 0.75416 0.04236 0.8894 0.0
C5275 C 0.76189 0.04023 0.87875 0.0
C5276 C 0.76173 0.02566 0.876 0.0
C5277 C 0.75379 0.01352 0.88377 0.0
C5278 C 0.75419 0.05771 0.89276 0.0
C5279 C 0.76955 0.02276 0.86461 0.0
H5280 H 0.76896 0.07315 0.84443 0.0
H5281 H 0.8028 0.08011 0.86847 0.0
H5282 H 0.74825 0.03656 0.85538 0.0
H5283 H 0.74332 0.04999 0.86401 0.0
H5284 H 0.74787 0.05266 0.8472 0.0
H5285 H 0.80127 0.06531 0.88629 0.0
H5286 H 0.78458 0.05777 0.89396 0.0
H5287 H 0.7901 0.04588 0.8838 0.0
H5288 H 0.73994 0.03141 0.90484 0.0
H5289 H 0.75334 1.00227 0.88151 0.0
H5290 H 0.74984 0.0617 0.88483 0.0
H5291 H 0.76479 0.06598 0.89396 0.0
H5292 H 0.74818 0.05762 0.9017 0.0
H5293 H 0.76486 0.0241 0.85566 0.0
H5294 H 0.76957 0.01123 0.86464 0.0
H5295 H 0.78026 0.03106 0.86442 0.0
C5296 C 0.24128 0.53869 0.12365 0.0
C5297 C 0.24938 0.53127 0.11844 0.0
C5298 C 0.24018 0.55095 0.11747 0.0
C5299 C 0.24755 0.55626 0.10585 0.0
C5300 C 0.25656 0.54959 0.10102 0.0
C5301 C 0.25732 0.53715 0.10732 0.0
C5302 C 0.2305 0.55769 0.12304 0.0
C5303 C 0.26495 0.55521 0.08888 0.0
C5304 C 0.23059 0.57286 0.08251 0.0
C5305 C 0.23754 0.58837 0.08446 0.0
C5306 C 0.23398 0.56239 0.08922 0.0
C5307 C 0.24461 0.56753 0.09814 0.0
C5308 C 0.25177 0.58329 0.10005 0.0
C5309 C 0.24812 0.59355 0.09318 0.0
C5310 C 0.2261 0.54576 0.08676 0.0
C5311 C 0.26317 0.58934 0.10942 0.0
H5312 H 0.23543 0.53464 0.13245 0.0
H5313 H 0.26367 0.53163 0.10318 0.0
H5314 H 0.23578 0.5701 0.12401 0.0
H5315 H 0.22195 0.5554 0.11646 0.0
H5316 H 0.22622 0.55302 0.13258 0.0
H5317 H 0.27214 0.54957 0.08682 0.0
H5318 H 0.25812 0.55319 0.08065 0.0
H5319 H 0.27085 0.56755 0.08963 0.0
H5320 H 0.22252 0.56889 0.07562 0.0
H5321 H 0.2536 0.60559 0.09457 0.0
H5322 H 0.22088 0.54026 0.09575 0.0
H5323 H 0.23319 0.54032 0.08364 0.0
H5324 H 0.21835 0.5436 0.07931 0.0
H5325 H 0.2588 0.58787 0.11933 0.0
H5326 H 0.26939 0.60152 0.10798 0.0
H5327 H 0.26996 0.58305 0.10855 0.0
C5328 C 0.10526 0.31868 0.89225 0.0
C5329 C 0.11058 0.33439 0.89132 0.0
C5330 C 0.09126 0.31043 0.89381 0.0
C5331 C 0.08226 0.31808 0.89423 0.0
C5332 C 0.0876 0.33403 0.89369 0.0
C5333 C 0.10177 0.34205 0.89229 0.0
C5334 C 0.08641 0.29361 0.89564 0.0
C5335 C 0.07839 0.34261 0.89502 0.0
C5336 C 0.04636 0.29306 0.88506 0.0
C5337 C 0.04082 0.28668 0.89692 0.0
C5338 C 0.05964 0.30416 0.88411 0.0
C5339 C 0.06734 0.3092 0.89533 0.0
C5340 C 0.06127 0.30379 0.90743 0.0
C5341 C 0.04813 0.2925 0.90806 0.0
C5342 C 0.06577 0.3097 0.87103 0.0
C5343 C 0.06893 0.30917 0.91967 0.0
H5344 H 0.11213 0.3128 0.89197 0.0
H5345 H 0.10595 0.35425 0.8918 0.0
H5346 H 0.07572 0.28741 0.89285 0.0
H5347 H 0.09304 0.28893 0.89016 0.0
H5348 H 0.08711 0.29143 0.90592 0.0
H5349 H 0.08401 0.35488 0.89347 0.0
H5350 H 0.07001 0.33824 0.88813 0.0
H5351 H 0.07361 0.34097 0.90478 0.0
H5352 H 0.04061 0.28883 0.87646 0.0
H5353 H 0.04369 0.28795 0.9173 0.0
H5354 H 0.07391 0.3055 0.86865 0.0
H5355 H 0.07058 0.32218 0.87097 0.0
H5356 H 0.05807 0.30588 0.86343 0.0
H5357 H 0.07578 0.30313 0.9209 0.0
H5358 H 0.06189 0.30691 0.92817 0.0
H5359 H 0.0753 0.32142 0.91936 0.0
C5360 C 0.28266 0.4448 0.55153 0.0
C5361 C 0.29286 0.45776 0.55674 0.0
C5362 C 0.28489 0.43149 0.54887 0.0
C5363 C 0.29772 0.43102 0.55126 0.0
C5364 C 0.30816 0.4441 0.55624 0.0
C5365 C 0.30561 0.45722 0.55897 0.0
C5366 C 0.27341 0.41787 0.5436 0.0
C5367 C 0.32206 0.4442 0.55873 0.0
C5368 C 0.29994 0.3925 0.55486 0.0
C5369 C 0.30474 0.3902 0.54266 0.0
C5370 C 0.29769 0.40576 0.55784 0.0
C5371 C 0.30028 0.41694 0.54837 0.0
C5372 C 0.30519 0.41457 0.53604 0.0
C5373 C 0.30736 0.40125 0.53336 0.0
C5374 C 0.29234 0.4077 0.57105 0.0
C5375 C 0.30791 0.42597 0.52557 0.0
H5376 H 0.27286 0.44502 0.54944 0.0
H5377 H 0.31358 0.46698 0.56309 0.0
H5378 H 0.27679 0.41381 0.5346 0.0
H5379 H 0.27044 0.40855 0.55057 0.0
H5380 H 0.26428 0.42026 0.54163 0.0
H5381 H 0.32916 0.45525 0.56251 0.0
H5382 H 0.32113 0.43535 0.56573 0.0
H5383 H 0.32658 0.44151 0.54974 0.0
H5384 H 0.29775 0.38384 0.56201 0.0
H5385 H 0.31089 0.39935 0.52386 0.0
H5386 H 0.28239 0.40877 0.57033 0.0
H5387 H 0.29945 0.41824 0.5756 0.0
H5388 H 0.29098 0.3981 0.57737 0.0
H5389 H 0.29827 0.42703 0.52315 0.0
H5390 H 0.31232 0.42281 0.51671 0.0
H5391 H 0.31502 0.43723 0.52892 0.0
C5392 C 0.919 0.20553 0.80832 0.0
C5393 C 0.90766 0.20408 0.81622 0.0
C5394 C 0.93211 0.21615 0.8113 0.0
C5395 C 0.93384 0.22557 0.82238 0.0
C5396 C 0.9221 0.22453 0.82984 0.0
C5397 C 0.90933 0.2137 0.82679 0.0
C5398 C 0.9439 0.2172 0.80239 0.0
C5399 C 0.9224 0.23497 0.84086 0.0
C5400 C 0.9679 0.23914 0.83897 0.0
C5401 C 0.97209 0.25486 0.83862 0.0
C5402 C 0.95583 0.22948 0.83323 0.0
C5403 C 0.94774 0.23567 0.82677 0.0
C5404 C 0.95244 0.25158 0.82568 0.0
C5405 C 0.96434 0.26098 0.83192 0.0
C5406 C 0.95157 0.21266 0.83461 0.0
C5407 C 0.94478 0.25875 0.81815 0.0
H5408 H 0.91764 0.19835 0.79987 0.0
H5409 H 0.90045 0.21303 0.83259 0.0
H5410 H 0.953 0.22778 0.80374 0.0
H5411 H 0.94673 0.20746 0.80398 0.0
H5412 H 0.94082 0.21646 0.79226 0.0
H5413 H 0.91707 0.24226 0.83807 0.0
H5414 H 0.91659 0.22834 0.84919 0.0
H5415 H 0.93274 0.24231 0.84379 0.0
H5416 H 0.97393 0.23436 0.84408 0.0
H5417 H 0.96772 0.27313 0.83138 0.0
H5418 H 0.95419 0.20793 0.8256 0.0
H5419 H 0.94042 0.20694 0.83646 0.0
H5420 H 0.9569 0.20994 0.84252 0.0
H5421 H 0.94045 0.25193 0.80944 0.0
H5422 H 0.95146 0.27036 0.81522 0.0
H5423 H 0.93626 0.25947 0.82415 0.0
C5424 C 0.73364 0.96501 0.39289 0.0
C5425 C 0.73348 0.95674 0.4038 0.0
C5426 C 0.7423 0.98033 0.39196 0.0
C5427 C 0.75101 0.98752 0.40217 0.0
C5428 C 0.7502 0.97947 0.41353 0.0
C5429 C 0.74146 0.9642 0.4142 0.0
C5430 C 0.74269 0.98857 0.37976 0.0
C5431 C 0.75901 0.98679 0.4248 0.0
C5432 C 0.78527 0.01988 0.39623 0.0
C5433 C 0.78244 0.03223 0.40057 0.0
C5434 C 0.77493 0.00529 0.39618 0.0
C5435 C 0.76159 1.0031 0.40076 0.0
C5436 C 0.75869 0.0157 0.40482 0.0
C5437 C 0.76917 0.03013 0.40462 0.0
C5438 C 0.77839 0.99214 0.39173 0.0
C5439 C 0.74467 0.0139 0.40982 0.0
H5440 H 0.72754 0.95932 0.38479 0.0
H5441 H 0.74117 0.95794 0.42277 0.0
H5442 H 0.74246 0.99981 0.38193 0.0
H5443 H 0.75234 0.99042 0.37435 0.0
H5444 H 0.73403 0.98215 0.37353 0.0
H5445 H 0.75651 0.97928 0.43322 0.0
H5446 H 0.76989 0.98981 0.42202 0.0
H5447 H 0.75778 0.99737 0.42768 0.0
H5448 H 0.79561 0.02155 0.39326 0.0
H5449 H 0.7671 0.03976 0.40812 0.0
H5450 H 0.77117 0.98541 0.38436 0.0
H5451 H 0.77734 0.9846 0.39991 0.0
H5452 H 0.78894 0.9958 0.38766 0.0
H5453 H 0.7371 0.00876 0.40228 0.0
H5454 H 0.7442 0.02482 0.4129 0.0
H5455 H 0.74161 0.00617 0.41809 0.0
C5456 C 0.21257 0.55542 0.58526 0.0
C5457 C 0.22562 0.56631 0.58234 0.0
C5458 C 0.20103 0.55927 0.58635 0.0
C5459 C 0.20249 0.57439 0.58446 0.0
C5460 C 0.21555 0.5853 0.58119 0.0
C5461 C 0.22684 0.58114 0.58009 0.0
C5462 C 0.18732 0.54721 0.58976 0.0
C5463 C 0.21768 0.60153 0.57911 0.0
C5464 C 0.17127 0.58349 0.57782 0.0
C5465 C 0.16839 0.58843 0.58989 0.0
C5466 C 0.18228 0.57885 0.5759 0.0
C5467 C 0.19054 0.57902 0.58634 0.0
C5468 C 0.18764 0.58411 0.59854 0.0
C5469 C 0.17663 0.58872 0.60015 0.0
C5470 C 0.18492 0.57352 0.56275 0.0
C5471 C 0.19601 0.58439 0.60998 0.0
H5472 H 0.21142 0.54396 0.58708 0.0
H5473 H 0.23674 0.58964 0.57753 0.0
H5474 H 0.18315 0.55039 0.59874 0.0
H5475 H 0.18003 0.54616 0.58211 0.0
H5476 H 0.18785 0.53604 0.59106 0.0
H5477 H 0.22835 0.60856 0.57614 0.0
H5478 H 0.21078 0.6022 0.57166 0.0
H5479 H 0.21512 0.60639 0.5881 0.0
H5480 H 0.16472 0.58289 0.56994 0.0
H5481 H 0.1742 0.59218 0.60957 0.0
H5482 H 0.18395 0.56165 0.56317 0.0
H5483 H 0.19549 0.58035 0.55941 0.0
H5484 H 0.17775 0.57427 0.5556 0.0
H5485 H 0.19522 0.57281 0.61194 0.0
H5486 H 0.19266 0.58895 0.61874 0.0
H5487 H 0.20692 0.59137 0.60793 0.0
C5488 C 0.32025 0.42236 0.1431 0.0
C5489 C 0.32208 0.4364 0.14877 0.0
C5490 C 0.33067 0.41676 0.14302 0.0
C5491 C 0.34327 0.42537 0.14874 0.0
C5492 C 0.34507 0.43935 0.15472 0.0
C5493 C 0.33448 0.44464 0.15472 0.0
C5494 C 0.3283 0.40179 0.13652 0.0
C5495 C 0.35834 0.44894 0.16085 0.0
C5496 C 0.36653 0.40488 0.15607 0.0
C5497 C 0.37537 0.40835 0.14532 0.0
C5498 C 0.35628 0.41071 0.15754 0.0
C5499 C 0.35479 0.42008 0.14795 0.0
C5500 C 0.36407 0.42404 0.13731 0.0
C5501 C 0.37422 0.41812 0.13614 0.0
C5502 C 0.34665 0.40625 0.16903 0.0
C5503 C 0.36285 0.43386 0.12679 0.0
H5504 H 0.31081 0.41593 0.13836 0.0
H5505 H 0.33597 0.45535 0.15934 0.0
H5506 H 0.33581 0.40338 0.12848 0.0
H5507 H 0.32986 0.39404 0.14338 0.0
H5508 H 0.31788 0.39634 0.13271 0.0
H5509 H 0.35788 0.45913 0.16574 0.0
H5510 H 0.36107 0.44228 0.16794 0.0
H5511 H 0.36665 0.45259 0.15343 0.0
H5512 H 0.36716 0.39698 0.16298 0.0
H5513 H 0.38082 0.42046 0.12764 0.0
H5514 H 0.33622 0.39919 0.16587 0.0
H5515 H 0.34614 0.41641 0.17389 0.0
H5516 H 0.34973 0.39981 0.17607 0.0
H5517 H 0.35328 0.4278 0.12161 0.0
H5518 H 0.37153 0.43693 0.11975 0.0
H5519 H 0.3623 0.44436 0.13089 0.0
C5520 C 0.58253 0.71558 0.60944 0.0
C5521 C 0.56912 0.70534 0.60738 0.0
C5522 C 0.5856 0.72621 0.6196 0.0
C5523 C 0.57504 0.72679 0.62796 0.0
C5524 C 0.56156 0.71611 0.62627 0.0
C5525 C 0.55878 0.70555 0.61606 0.0
C5526 C 0.60014 0.7372 0.62112 0.0
C5527 C 0.54992 0.71616 0.63493 0.0
C5528 C 0.58494 0.74846 0.65979 0.0
C5529 C 0.58438 0.76234 0.65694 0.0
C5530 C 0.58185 0.73676 0.65052 0.0
C5531 C 0.57808 0.73898 0.63808 0.0
C5532 C 0.57748 0.75304 0.63522 0.0
C5533 C 0.58061 0.76453 0.64469 0.0
C5534 C 0.58233 0.7219 0.65412 0.0
C5535 C 0.5733 0.75585 0.62219 0.0
H5536 H 0.59063 0.71572 0.6028 0.0
H5537 H 0.54841 0.69756 0.61479 0.0
H5538 H 0.60083 0.74886 0.61974 0.0
H5539 H 0.60347 0.73664 0.63097 0.0
H5540 H 0.60728 0.73494 0.61417 0.0
H5541 H 0.5406 0.70576 0.63373 0.0
H5542 H 0.55278 0.71729 0.64513 0.0
H5543 H 0.54745 0.72599 0.63267 0.0
H5544 H 0.58748 0.74661 0.66939 0.0
H5545 H 0.57981 0.77512 0.64259 0.0
H5546 H 0.58953 0.7192 0.64757 0.0
H5547 H 0.57213 0.71272 0.65301 0.0
H5548 H 0.58551 0.72197 0.66414 0.0
H5549 H 0.58033 0.75439 0.61467 0.0
H5550 H 0.57331 0.76734 0.62145 0.0
H5551 H 0.56293 0.74748 0.62015 0.0
C5552 C 0.32014 0.25992 0.74943 0.0
C5553 C 0.31198 0.24774 0.74184 0.0
C5554 C 0.31657 0.26145 0.76228 0.0
C5555 C 0.3045 0.25057 0.76769 0.0
C5556 C 0.29616 0.23826 0.76007 0.0
C5557 C 0.30005 0.23695 0.74722 0.0
C5558 C 0.32591 0.27454 0.77016 0.0
C5559 C 0.28319 0.22647 0.76549 0.0
C5560 C 0.30394 0.24634 0.80369 0.0
C5561 C 0.29654 0.25486 0.80796 0.0
C5562 C 0.30635 0.24462 0.79059 0.0
C5563 C 0.30118 0.25159 0.78156 0.0
C5564 C 0.29349 0.26008 0.78586 0.0
C5565 C 0.29128 0.26167 0.79911 0.0
C5566 C 0.31463 0.23554 0.78646 0.0
C5567 C 0.2878 0.26762 0.77648 0.0
H5568 H 0.3295 0.26814 0.74536 0.0
H5569 H 0.29369 0.22756 0.74135 0.0
H5570 H 0.32019 0.28105 0.77445 0.0
H5571 H 0.32991 0.27026 0.77817 0.0
H5572 H 0.33469 0.28229 0.76439 0.0
H5573 H 0.27797 0.21746 0.75837 0.0
H5574 H 0.28541 0.22121 0.77398 0.0
H5575 H 0.27611 0.23186 0.76876 0.0
H5576 H 0.30797 0.2411 0.81065 0.0
H5577 H 0.28554 0.26824 0.80253 0.0
H5578 H 0.32397 0.24279 0.78111 0.0
H5579 H 0.30869 0.22623 0.77989 0.0
H5580 H 0.31769 0.23063 0.79471 0.0
H5581 H 0.29629 0.27645 0.77124 0.0
H5582 H 0.28127 0.27291 0.78129 0.0
H5583 H 0.28173 0.25929 0.76924 0.0
C5584 C 0.95609 0.27185 0.07355 0.0
C5585 C 0.94566 0.26677 0.06465 0.0
C5586 C 0.95725 0.26207 0.08285 0.0
C5587 C 0.94762 0.24694 0.08333 0.0
C5588 C 0.93697 0.24192 0.07442 0.0
C5589 C 0.93619 0.25185 0.06515 0.0
C5590 C 0.96883 0.26786 0.09204 0.0
C5591 C 0.9263 0.22603 0.07475 0.0
C5592 C 0.9546 0.21489 0.09795 0.0
C5593 C 0.94727 0.21289 0.10963 0.0
C5594 C 0.95547 0.22652 0.08963 0.0
C5595 C 0.94862 0.23618 0.09296 0.0
C5596 C 0.94162 0.23449 0.10501 0.0
C5597 C 0.94108 0.22289 0.11321 0.0
C5598 C 0.96322 0.22804 0.07701 0.0
C5599 C 0.93422 0.24452 0.109 0.0
H5600 H 0.96337 0.28344 0.07319 0.0
H5601 H 0.92803 0.24802 0.05835 0.0
H5602 H 0.96489 0.26569 0.10208 0.0
H5603 H 0.97568 0.26174 0.09032 0.0
H5604 H 0.97491 0.28013 0.09099 0.0
H5605 H 0.91852 0.22396 0.06734 0.0
H5606 H 0.93121 0.21783 0.07321 0.0
H5607 H 0.92107 0.22379 0.08431 0.0
H5608 H 0.95933 0.20708 0.09519 0.0
H5609 H 0.93536 0.22124 0.12224 0.0
H5610 H 0.97051 0.23986 0.07571 0.0
H5611 H 0.95601 0.22519 0.06902 0.0
H5612 H 0.96893 0.22054 0.07632 0.0
H5613 H 0.94153 0.25644 0.10942 0.0
H5614 H 0.92896 0.24149 0.11851 0.0
H5615 H 0.92656 0.24376 0.1018 0.0
C5616 C 0.23613 0.80267 0.2464 0.0
C5617 C 0.22784 0.78805 0.24244 0.0
C5618 C 0.23932 0.80598 0.25938 0.0
C5619 C 0.23444 0.79427 0.26847 0.0
C5620 C 0.22587 0.77952 0.26446 0.0
C5621 C 0.22255 0.77664 0.2515 0.0
C5622 C 0.2482 0.8219 0.26329 0.0
C5623 C 0.22072 0.7666 0.27375 0.0
C5624 C 0.25468 0.79555 0.29787 0.0
C5625 C 0.24561 0.79601 0.30783 0.0
C5626 C 0.25137 0.79541 0.28499 0.0
C5627 C 0.23916 0.79696 0.28192 0.0
C5628 C 0.23086 0.79946 0.29188 0.0
C5629 C 0.23404 0.79868 0.30475 0.0
C5630 C 0.26035 0.79225 0.27476 0.0
C5631 C 0.21821 0.80211 0.28894 0.0
H5632 H 0.24022 0.81144 0.23932 0.0
H5633 H 0.21624 0.76532 0.24834 0.0
H5634 H 0.24405 0.82531 0.27217 0.0
H5635 H 0.25856 0.82258 0.26534 0.0
H5636 H 0.24913 0.83008 0.25564 0.0
H5637 H 0.21417 0.75583 0.26908 0.0
H5638 H 0.22947 0.76505 0.27801 0.0
H5639 H 0.21476 0.76916 0.28172 0.0
H5640 H 0.26398 0.79419 0.30014 0.0
H5641 H 0.22702 0.79923 0.31232 0.0
H5642 H 0.26356 0.80114 0.26742 0.0
H5643 H 0.25451 0.78139 0.26983 0.0
H5644 H 0.26961 0.79154 0.27875 0.0
H5645 H 0.22069 0.81116 0.28177 0.0
H5646 H 0.21361 0.80532 0.29765 0.0
H5647 H 0.21052 0.79174 0.2847 0.0
C5648 C 0.7009 0.28803 0.93179 0.0
C5649 C 0.68705 0.28554 0.93281 0.0
C5650 C 0.70753 0.28891 0.91973 0.0
C5651 C 0.70015 0.28742 0.90838 0.0
C5652 C 0.6862 0.28531 0.9094 0.0
C5653 C 0.67979 0.28423 0.9216 0.0
C5654 C 0.72236 0.29114 0.91913 0.0
C5655 C 0.67799 0.28392 0.89761 0.0
C5656 C 0.71976 0.30226 0.87698 0.0
C5657 C 0.71921 0.28899 0.87073 0.0
C5658 C 0.71373 0.30194 0.88924 0.0
C5659 C 0.707 0.28797 0.89547 0.0
C5660 C 0.70668 0.27453 0.88925 0.0
C5661 C 0.71274 0.2752 0.87691 0.0
C5662 C 0.71419 0.31651 0.89535 0.0
C5663 C 0.69971 0.25943 0.89555 0.0
H5664 H 0.70646 0.28884 0.94047 0.0
H5665 H 0.66904 0.28217 0.9224 0.0
H5666 H 0.72361 0.28167 0.91371 0.0
H5667 H 0.72843 0.30164 0.91394 0.0
H5668 H 0.7266 0.29184 0.92881 0.0
H5669 H 0.66751 0.28319 0.90001 0.0
H5670 H 0.68314 0.29375 0.89132 0.0
H5671 H 0.67726 0.27369 0.89202 0.0
H5672 H 0.72458 0.31291 0.87208 0.0
H5673 H 0.71214 0.26491 0.87198 0.0
H5674 H 0.71875 0.31807 0.90493 0.0
H5675 H 0.70368 0.31609 0.89677 0.0
H5676 H 0.72017 0.32647 0.88943 0.0
H5677 H 0.70426 0.25956 0.90497 0.0
H5678 H 0.70053 0.25007 0.88959 0.0
H5679 H 0.68876 0.25712 0.89737 0.0
C5680 C 0.06744 0.36182 0.22939 0.0
C5681 C 0.07824 0.36683 0.23794 0.0
C5682 C 0.06709 0.35166 0.21928 0.0
C5683 C 0.0777 0.34627 0.2178 0.0
C5684 C 0.08849 0.35113 0.22654 0.0
C5685 C 0.08861 0.36129 0.23646 0.0
C5686 C 0.05551 0.34686 0.21009 0.0
C5687 C 0.10014 0.34591 0.2252 0.0
C5688 C 0.0755 0.31134 0.19834 0.0
C5689 C 0.08313 0.31791 0.1873 0.0
C5690 C 0.07286 0.32037 0.20807 0.0
C5691 C 0.07811 0.33627 0.20674 0.0
C5692 C 0.08511 0.34278 0.19525 0.0
C5693 C 0.08727 0.3335 0.18561 0.0
C5694 C 0.06513 0.313 0.22009 0.0
C5695 C 0.09096 0.35963 0.19335 0.0
H5696 H 0.05944 0.36611 0.23042 0.0
H5697 H 0.09688 0.36492 0.24313 0.0
H5698 H 0.05951 0.35036 0.20023 0.0
H5699 H 0.05031 0.33439 0.20991 0.0
H5700 H 0.0479 0.35179 0.21268 0.0
H5701 H 0.10756 0.35043 0.23298 0.0
H5702 H 0.09618 0.33342 0.2253 0.0
H5703 H 0.10561 0.34958 0.21587 0.0
H5704 H 0.07224 0.29931 0.19968 0.0
H5705 H 0.09286 0.33858 0.17692 0.0
H5706 H 0.05697 0.31717 0.22249 0.0
H5707 H 0.07214 0.31604 0.22824 0.0
H5708 H 0.06048 0.30052 0.21911 0.0
H5709 H 0.08259 0.36374 0.19317 0.0
H5710 H 0.0971 0.36293 0.18428 0.0
H5711 H 0.09755 0.36547 0.20143 0.0
C5712 C 0.78692 0.72844 0.45909 0.0
C5713 C 0.79134 0.74232 0.46575 0.0
C5714 C 0.78483 0.72759 0.44582 0.0
C5715 C 0.78703 0.74089 0.43902 0.0
C5716 C 0.79113 0.75488 0.4457 0.0
C5717 C 0.79336 0.75544 0.45892 0.0
C5718 C 0.78049 0.71249 0.43901 0.0
C5719 C 0.79325 0.76929 0.43887 0.0
C5720 C 0.79514 0.74403 0.40317 0.0
C5721 C 0.78258 0.74242 0.39822 0.0
C5722 C 0.79659 0.74289 0.41639 0.0
C5723 C 0.78526 0.7403 0.42488 0.0
C5724 C 0.77242 0.73798 0.41988 0.0
C5725 C 0.77119 0.73879 0.40662 0.0
C5726 C 0.81044 0.7453 0.42133 0.0
C5727 C 0.76014 0.73554 0.42859 0.0
H5728 H 0.78508 0.71819 0.46425 0.0
H5729 H 0.79698 0.76628 0.46383 0.0
H5730 H 0.77081 0.71 0.43404 0.0
H5731 H 0.78829 0.71278 0.43156 0.0
H5732 H 0.77905 0.70315 0.44567 0.0
H5733 H 0.79608 0.77918 0.44551 0.0
H5734 H 0.80141 0.77155 0.43137 0.0
H5735 H 0.7838 0.76813 0.43399 0.0
H5736 H 0.80405 0.74704 0.39682 0.0
H5737 H 0.7614 0.73735 0.40287 0.0
H5738 H 0.80962 0.73612 0.42793 0.0
H5739 H 0.81449 0.75605 0.42686 0.0
H5740 H 0.81786 0.74573 0.41345 0.0
H5741 H 0.75796 0.72546 0.43454 0.0
H5742 H 0.75092 0.73405 0.42316 0.0
H5743 H 0.76227 0.74533 0.43523 0.0
C5744 C 0.48487 0.66385 0.73938 0.0
C5745 C 0.47607 0.66182 0.75016 0.0
C5746 C 0.48108 0.66629 0.72712 0.0
C5747 C 0.46805 0.66659 0.72541 0.0
C5748 C 0.45901 0.66432 0.73617 0.0
C5749 C 0.4631 0.66198 0.74837 0.0
C5750 C 0.49113 0.66874 0.71599 0.0
C5751 C 0.44502 0.6645 0.7348 0.0
C5752 C 0.46423 0.68761 0.6962 0.0
C5753 C 0.45838 0.67585 0.68735 0.0
C5754 C 0.46715 0.68473 0.70868 0.0
C5755 C 0.46411 0.66969 0.71243 0.0
C5756 C 0.45786 0.65774 0.70355 0.0
C5757 C 0.45513 0.66098 0.69109 0.0
C5758 C 0.47392 0.69785 0.7177 0.0
C5759 C 0.45448 0.64157 0.70708 0.0
H5760 H 0.49479 0.66344 0.74048 0.0
H5761 H 0.45621 0.66058 0.75657 0.0
H5762 H 0.48651 0.66043 0.70821 0.0
H5763 H 0.49374 0.68012 0.71201 0.0
H5764 H 0.50069 0.66772 0.71881 0.0
H5765 H 0.43913 0.6625 0.74404 0.0
H5766 H 0.44593 0.67553 0.73104 0.0
H5767 H 0.43919 0.65571 0.72777 0.0
H5768 H 0.46695 0.69915 0.69323 0.0
H5769 H 0.4508 0.6519 0.68416 0.0
H5770 H 0.48412 0.6983 0.72014 0.0
H5771 H 0.46784 0.69635 0.72678 0.0
H5772 H 0.47517 0.70881 0.7135 0.0
H5773 H 0.46403 0.63988 0.70866 0.0
H5774 H 0.44873 0.63352 0.69951 0.0
H5775 H 0.44837 0.63887 0.71618 0.0
C5776 C 0.55289 0.631 0.86731 0.0
C5777 C 0.55314 0.64295 0.85972 0.0
C5778 C 0.56476 0.6311 0.87293 0.0
C5779 C 0.57732 0.64351 0.87102 0.0
C5780 C 0.57772 0.65551 0.86318 0.0
C5781 C 0.56568 0.65506 0.85759 0.0
C5782 C 0.56378 0.61794 0.88102 0.0
C5783 C 0.59087 0.66893 0.86084 0.0
C5784 C 0.6048 0.64899 0.89564 0.0
C5785 C 0.61299 0.64252 0.88921 0.0
C5786 C 0.59338 0.64978 0.88971 0.0
C5787 C 0.59 0.6438 0.87712 0.0
C5788 C 0.59846 0.63747 0.87058 0.0
C5789 C 0.60983 0.63694 0.8767 0.0
C5790 C 0.58469 0.65662 0.89705 0.0
C5791 C 0.59518 0.63069 0.8573 0.0
H5792 H 0.54335 0.62145 0.86887 0.0
H5793 H 0.56602 0.6644 0.85183 0.0
H5794 H 0.5713 0.61326 0.87752 0.0
H5795 H 0.56626 0.6218 0.89107 0.0
H5796 H 0.55346 0.60877 0.88097 0.0
H5797 H 0.58949 0.67751 0.85479 0.0
H5798 H 0.59513 0.67428 0.87011 0.0
H5799 H 0.59851 0.66519 0.85605 0.0
H5800 H 0.6071 0.65307 0.9054 0.0
H5801 H 0.61603 0.63166 0.87182 0.0
H5802 H 0.5743 0.64791 0.89872 0.0
H5803 H 0.58363 0.66565 0.89136 0.0
H5804 H 0.58901 0.66143 0.90646 0.0
H5805 H 0.58533 0.62081 0.85762 0.0
H5806 H 0.60316 0.62698 0.85323 0.0
H5807 H 0.59404 0.63898 0.85074 0.0
C5808 C 0.65963 0.35921 0.05778 0.0
C5809 C 0.6701 0.35583 0.05174 0.0
C5810 C 0.66259 0.37137 0.06663 0.0
C5811 C 0.67632 0.38016 0.06973 0.0
C5812 C 0.68685 0.37645 0.06388 0.0
C5813 C 0.68362 0.36448 0.0549 0.0
C5814 C 0.65106 0.37509 0.07239 0.0
C5815 C 0.7016 0.38524 0.06699 0.0
C5816 C 0.68795 0.42076 0.08244 0.0
C5817 C 0.68947 0.41902 0.0955 0.0
C5818 C 0.68315 0.40818 0.07405 0.0
C5819 C 0.67984 0.39346 0.07881 0.0
C5820 C 0.68096 0.39168 0.09213 0.0
C5821 C 0.68577 0.40449 0.1003 0.0
C5822 C 0.68215 0.41069 0.05998 0.0
C5823 C 0.67759 0.37629 0.09766 0.0
H5824 H 0.64917 0.35266 0.05525 0.0
H5825 H 0.69174 0.36189 0.05027 0.0
H5826 H 0.65143 0.37539 0.083 0.0
H5827 H 0.6522 0.38647 0.06933 0.0
H5828 H 0.64093 0.36683 0.06948 0.0
H5829 H 0.70855 0.3807 0.06188 0.0
H5830 H 0.70466 0.39721 0.06432 0.0
H5831 H 0.70299 0.38502 0.07745 0.0
H5832 H 0.69098 0.43202 0.07869 0.0
H5833 H 0.6871 0.40316 0.11038 0.0
H5834 H 0.67183 0.40358 0.05661 0.0
H5835 H 0.68954 0.4073 0.05434 0.0
H5836 H 0.68427 0.42267 0.05791 0.0
H5837 H 0.66686 0.36891 0.09568 0.0
H5838 H 0.67901 0.37677 0.10817 0.0
H5839 H 0.68414 0.37095 0.09299 0.0
C5840 C 0.99341 0.41656 0.33018 0.0
C5841 C 1.00684 0.42282 0.33453 0.0
C5842 C 0.98235 0.41661 0.3379 0.0
C5843 C 0.9846 0.42271 0.35049 0.0
C5844 C 0.99811 0.42931 0.35492 0.0
C5845 C 1.00904 0.42939 0.34688 0.0
C5846 C 0.96817 0.40976 0.33265 0.0
C5847 C 1.00097 0.43571 0.36836 0.0
C5848 C 0.95629 0.43058 0.36878 0.0
C5849 C 0.94929 0.41692 0.37525 0.0
C5850 C 0.96763 0.43258 0.36056 0.0
C5851 C 0.97272 0.42103 0.35929 0.0
C5852 C 0.96608 0.40747 0.36605 0.0
C5853 C 0.95426 0.40539 0.3735 0.0
C5854 C 0.97404 0.44697 0.35308 0.0
C5855 C 0.97139 0.39501 0.36534 0.0
H5856 H 0.99141 0.41118 0.3208 0.0
H5857 H 0.01933 0.43449 0.35034 0.0
H5858 H 0.96206 0.39931 0.33788 0.0
H5859 H 0.96293 0.41767 0.33411 0.0
H5860 H 0.96826 0.40693 0.32228 0.0
H5861 H 0.01204 0.44183 0.36991 0.0
H5862 H 0.99575 0.44351 0.37049 0.0
H5863 H 0.99688 0.42639 0.37532 0.0
H5864 H 0.95305 0.43986 0.37006 0.0
H5865 H 0.94893 0.3945 0.37781 0.0
H5866 H 0.97367 0.44429 0.34266 0.0
H5867 H 0.98492 0.45281 0.35547 0.0
H5868 H 0.96881 0.45482 0.35502 0.0
H5869 H 0.9699 0.38983 0.35561 0.0
H5870 H 0.96614 0.38603 0.37242 0.0
H5871 H 0.98248 0.39963 0.36711 0.0
C5872 C 0.81731 0.65601 0.56965 0.0
C5873 C 0.80567 0.65489 0.56306 0.0
C5874 C 0.81851 0.64317 0.57468 0.0
C5875 C 0.80792 0.62879 0.57301 0.0
C5876 C 0.79598 0.62763 0.56672 0.0
C5877 C 0.79496 0.64066 0.56194 0.0
C5878 C 0.83136 0.64492 0.58142 0.0
C5879 C 0.7844 0.61256 0.56472 0.0
C5880 C 0.817 0.59418 0.57254 0.0
C5881 C 0.81244 0.58826 0.58471 0.0
C5882 C 0.81566 0.60741 0.56866 0.0
C5883 C 0.80963 0.61489 0.57719 0.0
C5884 C 0.80511 0.60895 0.58958 0.0
C5885 C 0.80656 0.59566 0.59319 0.0
C5886 C 0.82041 0.61317 0.5553 0.0
C5887 C 0.79861 0.61653 0.59896 0.0
H5888 H 0.82571 0.66685 0.57051 0.0
H5889 H 0.78578 0.63965 0.55716 0.0
H5890 H 0.8288 0.63931 0.59085 0.0
H5891 H 0.83706 0.63936 0.57564 0.0
H5892 H 0.83812 0.65694 0.58294 0.0
H5893 H 0.7757 0.6136 0.55988 0.0
H5894 H 0.78805 0.60505 0.55883 0.0
H5895 H 0.7807 0.607 0.57407 0.0
H5896 H 0.8213 0.58824 0.56591 0.0
H5897 H 0.80282 0.59088 0.60253 0.0
H5898 H 0.82807 0.62492 0.55579 0.0
H5899 H 0.81169 0.61333 0.5499 0.0
H5900 H 0.82498 0.60613 0.54988 0.0
H5901 H 0.80608 0.62797 0.60141 0.0
H5902 H 0.79498 0.61007 0.60794 0.0
H5903 H 0.78985 0.61791 0.59456 0.0
C5904 C 0.42136 0.2253 0.65175 0.0
C5905 C 0.41809 0.23788 0.65049 0.0
C5906 C 0.43488 0.22662 0.65141 0.0
C5907 C 0.44567 0.24078 0.64933 0.0
C5908 C 0.44236 0.25338 0.64683 0.0
C5909 C 0.42859 0.25177 0.64746 0.0
C5910 C 0.43741 0.21285 0.65441 0.0
C5911 C 0.45311 0.26874 0.64395 0.0
C5912 C 0.47699 0.2394 0.66475 0.0
C5913 C 0.48448 0.23739 0.6541 0.0
C5914 C 0.46507 0.24215 0.66328 0.0
C5915 C 0.46011 0.24219 0.65084 0.0
C5916 C 0.46825 0.24133 0.64004 0.0
C5917 C 0.48046 0.2392 0.64183 0.0
C5918 C 0.45748 0.2442 0.67519 0.0
C5919 C 0.4638 0.24208 0.62661 0.0
H5920 H 0.4133 0.21441 0.65371 0.0
H5921 H 0.42617 0.2616 0.64629 0.0
H5922 H 0.44675 0.2129 0.64942 0.0
H5923 H 0.43856 0.21267 0.66489 0.0
H5924 H 0.42861 0.20242 0.65181 0.0
H5925 H 0.45081 0.27757 0.64941 0.0
H5926 H 0.46355 0.26982 0.64617 0.0
H5927 H 0.45287 0.27103 0.63362 0.0
H5928 H 0.48012 0.23821 0.67429 0.0
H5929 H 0.48654 0.23835 0.6336 0.0
H5930 H 0.45056 0.23301 0.67876 0.0
H5931 H 0.45134 0.25094 0.67333 0.0
H5932 H 0.46469 0.24988 0.68292 0.0
H5933 H 0.47093 0.24058 0.6192 0.0
H5934 H 0.46326 0.25319 0.62516 0.0
H5935 H 0.45345 0.23336 0.62518 0.0
C5936 C 0.86975 0.33867 0.98265 0.0
C5937 C 0.87622 0.34082 0.99444 0.0
C5938 C 0.85841 0.34236 0.98109 0.0
C5939 C 0.85332 0.34846 0.99157 0.0
C5940 C 0.85961 0.3504 1.0036 0.0
C5941 C 0.87094 0.34644 1.00493 0.0
C5942 C 0.85193 0.33983 0.96813 0.0
C5943 C 0.85442 0.35675 0.01501 0.0
C5944 C 0.83216 0.3694 0.98002 0.0
C5945 C 0.81912 0.35794 0.9803 0.0
C5946 C 0.84335 0.3669 0.98469 0.0
C5947 C 0.84137 0.35261 0.9897 0.0
C5948 C 0.82798 0.34149 0.99096 0.0
C5949 C 0.81704 0.34429 0.98622 0.0
C5950 C 0.85742 0.37911 0.98325 0.0
C5951 C 0.82532 0.32611 0.9962 0.0
H5952 H 0.87363 0.33408 0.97457 0.0
H5953 H 0.87589 0.34813 0.01406 0.0
H5954 H 0.84103 0.33217 0.96902 0.0
H5955 H 0.85234 0.35069 0.96439 0.0
H5956 H 0.85705 0.33488 0.961 0.0
H5957 H 0.86114 0.35887 0.02335 0.0
H5958 H 0.85355 0.36745 0.01247 0.0
H5959 H 0.84407 0.34872 0.01791 0.0
H5960 H 0.83379 0.37987 0.97529 0.0
H5961 H 0.80693 0.33538 0.98633 0.0
H5962 H 0.86319 0.37588 0.9755 0.0
H5963 H 0.8631 0.38046 0.99221 0.0
H5964 H 0.85709 0.39013 0.98084 0.0
H5965 H 0.82872 0.31955 0.98898 0.0
H5966 H 0.81433 0.3197 0.99847 0.0
H5967 H 0.83118 0.32707 1.00498 0.0
C5968 C 0.11145 0.73357 0.1621 0.0
C5969 C 0.1195 0.74866 0.16523 0.0
C5970 C 0.0974 0.72887 0.16001 0.0
C5971 C 0.09115 0.73944 0.16118 0.0
C5972 C 0.09921 0.7546 0.16433 0.0
C5973 C 0.11324 0.75907 0.16611 0.0
C5974 C 0.0892 0.71258 0.1566 0.0
C5975 C 0.09296 0.76611 0.16605 0.0
C5976 C 0.05798 0.73073 0.1439 0.0
C5977 C 0.04811 0.72476 0.15368 0.0
C5978 C 0.07197 0.73571 0.14624 0.0
C5979 C 0.07629 0.73478 0.15874 0.0
C5980 C 0.0664 0.72941 0.16881 0.0
C5981 C 0.05244 0.72436 0.16613 0.0
C5982 C 0.08213 0.7417 0.13524 0.0
C5983 C 0.07051 0.72847 0.18234 0.0
H5984 H 0.11607 0.72533 0.16156 0.0
H5985 H 0.11931 0.7708 0.16827 0.0
H5986 H 0.08064 0.70769 0.16364 0.0
H5987 H 0.0847 0.71182 0.14706 0.0
H5988 H 0.09546 0.70566 0.15639 0.0
H5989 H 0.10084 0.77765 0.16731 0.0
H5990 H 0.08681 0.76583 0.15765 0.0
H5991 H 0.086 0.76337 0.1746 0.0
H5992 H 0.05499 0.73128 0.13431 0.0
H5993 H 0.04487 0.71964 0.17374 0.0
H5994 H 0.0886 0.73506 0.13415 0.0
H5995 H 0.08897 0.75356 0.13729 0.0
H5996 H 0.07712 0.7413 0.12601 0.0
H5997 H 0.07447 0.71942 0.18283 0.0
H5998 H 0.06182 0.72598 0.18932 0.0
H5999 H 0.07881 0.73918 0.18525 0.0
C6000 C 0.62765 0.63956 0.49694 0.0
C6001 C 0.62519 0.63497 0.50979 0.0
C6002 C 0.6385 0.63825 0.48961 0.0
C6003 C 0.64739 0.63255 0.49527 0.0
C6004 C 0.64471 0.62738 0.50803 0.0
C6005 C 0.63357 0.62844 0.51503 0.0
C6006 C 0.64074 0.64344 0.47588 0.0
C6007 C 0.65399 0.62144 0.51457 0.0
C6008 C 0.67089 0.62084 0.47303 0.0
C6009 C 0.68276 0.63406 0.47267 0.0
C6010 C 0.65939 0.62004 0.48054 0.0
C6011 C 0.65982 0.63272 0.488 0.0
C6012 C 0.672 0.64587 0.48809 0.0
C6013 C 0.68326 0.64644 0.48034 0.0
C6014 C 0.64664 0.60582 0.48012 0.0
C6015 C 0.67306 0.65949 0.49618 0.0
H6016 H 0.62143 0.64471 0.49269 0.0
H6017 H 0.63164 0.62438 0.52477 0.0
H6018 H 0.65039 0.65352 0.47495 0.0
H6019 H 0.64173 0.63451 0.46948 0.0
H6020 H 0.63229 0.64633 0.47252 0.0
H6021 H 0.64941 0.61575 0.5237 0.0
H6022 H 0.6565 0.61339 0.50825 0.0
H6023 H 0.66371 0.63097 0.51672 0.0
H6024 H 0.67039 0.61127 0.46705 0.0
H6025 H 0.69246 0.65663 0.48021 0.0
H6026 H 0.6383 0.60827 0.47597 0.0
H6027 H 0.64326 0.60163 0.48996 0.0
H6028 H 0.64815 0.59672 0.47432 0.0
H6029 H 0.66605 0.66444 0.4926 0.0
H6030 H 0.68356 0.66832 0.49604 0.0
H6031 H 0.66991 0.65614 0.50626 0.0
C6032 C 0.74855 0.46422 0.65235 0.0
C6033 C 0.75072 0.45074 0.65095 0.0
C6034 C 0.7575 0.47766 0.64671 0.0
C6035 C 0.76924 0.47787 0.63982 0.0
C6036 C 0.77193 0.46456 0.63891 0.0
C6037 C 0.7626 0.45114 0.64439 0.0
C6038 C 0.75416 0.49153 0.64782 0.0
C6039 C 0.78459 0.4645 0.63199 0.0
C6040 C 0.78622 0.50789 0.61465 0.0
C6041 C 0.79704 0.51845 0.62142 0.0
C6042 C 0.77695 0.49479 0.62058 0.0
C6043 C 0.77867 0.49201 0.63353 0.0
C6044 C 0.78942 0.50274 0.64047 0.0
C6045 C 0.79831 0.5159 0.63441 0.0
C6046 C 0.76542 0.48382 0.61293 0.0
C6047 C 0.79163 0.50033 0.65431 0.0
H6048 H 0.73967 0.46425 0.65771 0.0
H6049 H 0.76442 0.44086 0.64318 0.0
H6050 H 0.76261 0.50092 0.65237 0.0
H6051 H 0.75302 0.49526 0.63812 0.0
H6052 H 0.74462 0.4895 0.65351 0.0
H6053 H 0.7855 0.45343 0.63254 0.0
H6054 H 0.78447 0.46724 0.62175 0.0
H6055 H 0.79378 0.47331 0.63616 0.0
H6056 H 0.78518 0.50964 0.6046 0.0
H6057 H 0.80638 0.52416 0.63986 0.0
H6058 H 0.75553 0.48179 0.61796 0.0
H6059 H 0.76649 0.47282 0.61206 0.0
H6060 H 0.76513 0.48794 0.60315 0.0
H6061 H 0.78354 0.50184 0.66046 0.0
H6062 H 0.80167 0.50841 0.65765 0.0
H6063 H 0.79101 0.4887 0.65571 0.0
C6064 C 0.26891 0.94862 0.43485 0.0
C6065 C 0.26986 0.96064 0.44323 0.0
C6066 C 0.27001 0.93546 0.43924 0.0
C6067 C 0.27214 0.93413 0.45239 0.0
C6068 C 0.27246 0.9459 0.46103 0.0
C6069 C 0.27129 0.95898 0.45636 0.0
C6070 C 0.26935 0.92316 0.42969 0.0
C6071 C 0.27465 0.94499 0.47513 0.0
C6072 C 0.26678 0.89526 0.46525 0.0
C6073 C 0.28013 0.89587 0.46517 0.0
C6074 C 0.26398 0.90757 0.46112 0.0
C6075 C 0.27483 0.92086 0.45687 0.0
C6076 C 0.28835 0.9214 0.45668 0.0
C6077 C 0.29082 0.90891 0.46084 0.0
C6078 C 0.24945 0.90645 0.46152 0.0
C6079 C 0.30023 0.93529 0.45228 0.0
H6080 H 0.26755 0.94964 0.42473 0.0
H6081 H 0.27209 0.96818 0.46293 0.0
H6082 H 0.27924 0.92182 0.42924 0.0
H6083 H 0.26144 0.91224 0.43281 0.0
H6084 H 0.26701 0.92557 0.41992 0.0
H6085 H 0.27329 0.95427 0.48078 0.0
H6086 H 0.26748 0.93406 0.47901 0.0
H6087 H 0.28513 0.94559 0.47651 0.0
H6088 H 0.25854 0.88526 0.46884 0.0
H6089 H 0.30118 0.90948 0.46102 0.0
H6090 H 0.24651 0.90832 0.45183 0.0
H6091 H 0.24851 0.91538 0.46795 0.0
H6092 H 0.24217 0.89532 0.46495 0.0
H6093 H 0.29889 0.9377 0.4422 0.0
H6094 H 0.31013 0.93405 0.45291 0.0
H6095 H 0.30063 0.9452 0.45818 0.0
C6096 C 0.43184 0.17941 0.66673 0.0
C6097 C 0.42029 0.16885 0.66078 0.0
C6098 C 0.4447 0.1854 0.66029 0.0
C6099 C 0.44614 0.18074 0.64744 0.0
C6100 C 0.43514 0.16816 0.64241 0.0
C6101 C 0.42234 0.16268 0.64893 0.0
C6102 C 0.45644 0.19711 0.66725 0.0
C6103 C 0.43659 0.16033 0.63008 0.0
C6104 C 0.46733 0.20796 0.62113 0.0
C6105 C 0.48075 0.20953 0.62341 0.0
C6106 C 0.45608 0.19835 0.62851 0.0
C6107 C 0.4581 0.19005 0.63882 0.0
C6108 C 0.47154 0.19089 0.64061 0.0
C6109 C 0.48249 0.20046 0.63288 0.0
C6110 C 0.44206 0.19683 0.62463 0.0
C6111 C 0.47471 0.18156 0.65041 0.0
H6112 H 0.43073 0.18355 0.67628 0.0
H6113 H 0.41382 0.15397 0.64435 0.0
H6114 H 0.46236 0.19144 0.67182 0.0
H6115 H 0.46339 0.2058 0.6607 0.0
H6116 H 0.45284 0.20284 0.67506 0.0
H6117 H 0.4283 0.15944 0.62355 0.0
H6118 H 0.44658 0.1659 0.62504 0.0
H6119 H 0.43536 0.14864 0.63227 0.0
H6120 H 0.46549 0.21437 0.6136 0.0
H6121 H 0.49246 0.20051 0.63394 0.0
H6122 H 0.43449 0.19378 0.63265 0.0
H6123 H 0.43838 0.18782 0.61719 0.0
H6124 H 0.44232 0.20734 0.62031 0.0
H6125 H 0.48046 0.18909 0.65827 0.0
H6126 H 0.48147 0.1763 0.64602 0.0
H6127 H 0.46549 0.17253 0.6545 0.0
C6128 C 0.2509 0.05654 0.89381 0.0
C6129 C 0.24226 0.04497 0.88589 0.0
C6130 C 0.24697 0.06795 0.89895 0.0
C6131 C 0.23401 0.06785 0.89622 0.0
C6132 C 0.22535 0.05644 0.88801 0.0
C6133 C 0.22955 0.04514 0.88298 0.0
C6134 C 0.25651 0.07974 0.90775 0.0
C6135 C 0.2115 0.05599 0.88477 0.0
C6136 C 0.21732 0.08521 0.92119 0.0
C6137 C 0.21957 0.09919 0.9159 0.0
C6138 C 0.22196 0.07498 0.91487 0.0
C6139 C 0.22902 0.0788 0.90289 0.0
C6140 C 0.23133 0.093 0.89749 0.0
C6141 C 0.22658 0.10309 0.90409 0.0
C6142 C 0.21939 0.06011 0.92111 0.0
C6143 C 0.23895 0.0976 0.88484 0.0
H6144 H 0.26065 0.05645 0.89633 0.0
H6145 H 0.22285 0.03641 0.87677 0.0
H6146 H 0.25735 0.09118 0.90516 0.0
H6147 H 0.25239 0.07769 0.91774 0.0
H6148 H 0.26688 0.07956 0.90747 0.0
H6149 H 0.20625 0.04689 0.87774 0.0
H6150 H 0.205 0.05417 0.89361 0.0
H6151 H 0.21251 0.06695 0.88079 0.0
H6152 H 0.21196 0.08229 0.93039 0.0
H6153 H 0.2284 0.114 0.90008 0.0
H6154 H 0.22921 0.05905 0.9227 0.0
H6155 H 0.21341 0.05066 0.91468 0.0
H6156 H 0.21377 0.05888 0.93046 0.0
H6157 H 0.24954 0.09835 0.8857 0.0
H6158 H 0.2393 0.10865 0.88161 0.0
H6159 H 0.23408 0.08893 0.87736 0.0
C6160 C 0.61159 0.29663 0.68108 0.0
C6161 C 0.61682 0.31005 0.67411 0.0
C6162 C 0.59809 0.28621 0.67966 0.0
C6163 C 0.58956 0.28908 0.67089 0.0
C6164 C 0.59457 0.30298 0.66431 0.0
C6165 C 0.60808 0.31332 0.66606 0.0
C6166 C 0.59328 0.2717 0.687 0.0
C6167 C 0.586 0.30643 0.65467 0.0
C6168 C 0.56543 0.25492 0.65272 0.0
C6169 C 0.55258 0.25195 0.65863 0.0
C6170 C 0.57736 0.26654 0.65692 0.0
C6171 C 0.57665 0.27653 0.66678 0.0
C6172 C 0.5638 0.2742 0.67263 0.0
C6173 C 0.55202 0.26184 0.6687 0.0
C6174 C 0.59086 0.26747 0.65119 0.0
C6175 C 0.56256 0.28436 0.68341 0.0
H6176 H 0.61818 0.29411 0.68749 0.0
H6177 H 0.61201 0.32361 0.66058 0.0
H6178 H 0.58259 0.26851 0.69053 0.0
H6179 H 0.59361 0.26249 0.68056 0.0
H6180 H 0.5998 0.27253 0.69529 0.0
H6181 H 0.59062 0.31833 0.65152 0.0
H6182 H 0.58486 0.29896 0.64612 0.0
H6183 H 0.57563 0.30413 0.65875 0.0
H6184 H 0.56646 0.24811 0.6448 0.0
H6185 H 0.54249 0.25989 0.67379 0.0
H6186 H 0.59534 0.26166 0.65753 0.0
H6187 H 0.59827 0.27926 0.6502 0.0
H6188 H 0.58957 0.26179 0.64173 0.0
H6189 H 0.56694 0.28199 0.69217 0.0
H6190 H 0.55178 0.28265 0.68559 0.0
H6191 H 0.5684 0.29638 0.68105 0.0
C6192 C 0.76229 0.54895 0.17162 0.0
C6193 C 0.77485 0.54848 0.17478 0.0
C6194 C 0.75227 0.53667 0.16537 0.0
C6195 C 0.75495 0.52373 0.16189 0.0
C6196 C 0.76743 0.52306 0.16526 0.0
C6197 C 0.77705 0.53524 0.17185 0.0
C6198 C 0.73886 0.53759 0.16237 0.0
C6199 C 0.77079 0.50957 0.16165 0.0
C6200 C 0.72545 0.48639 0.15556 0.0
C6201 C 0.72482 0.48599 0.14213 0.0
C6202 C 0.7351 0.4986 0.16207 0.0
C6203 C 0.7446 0.51069 0.155 0.0
C6204 C 0.74437 0.51013 0.1414 0.0
C6205 C 0.73445 0.49778 0.13511 0.0
C6206 C 0.73492 0.49867 0.17654 0.0
C6207 C 0.75442 0.52272 0.13351 0.0
H6208 H 0.76038 0.55903 0.17374 0.0
H6209 H 0.78642 0.53438 0.1746 0.0
H6210 H 0.73761 0.53709 0.15185 0.0
H6211 H 0.73029 0.5278 0.16649 0.0
H6212 H 0.73809 0.54811 0.1662 0.0
H6213 H 0.78086 0.51068 0.16514 0.0
H6214 H 0.76288 0.49914 0.16562 0.0
H6215 H 0.77084 0.50817 0.15106 0.0
H6216 H 0.71813 0.47721 0.16104 0.0
H6217 H 0.73394 0.4976 0.12476 0.0
H6218 H 0.73333 0.50876 0.18033 0.0
H6219 H 0.74486 0.49936 0.18 0.0
H6220 H 0.72676 0.48845 0.18061 0.0
H6221 H 0.75269 0.53324 0.1354 0.0
H6222 H 0.75352 0.52014 0.12306 0.0
H6223 H 0.76498 0.52493 0.13629 0.0
C6224 C 0.32112 0.93692 0.87923 0.0
C6225 C 0.32215 0.95084 0.87445 0.0
C6226 C 0.33272 0.93431 0.88242 0.0
C6227 C 0.34581 0.94593 0.88091 0.0
C6228 C 0.347 0.96003 0.87605 0.0
C6229 C 0.33517 0.96234 0.87293 0.0
C6230 C 0.33091 0.91914 0.88761 0.0
C6231 C 0.36077 0.97267 0.87415 0.0
C6232 C 0.37388 0.94395 0.90164 0.0
C6233 C 0.38097 0.93808 0.89303 0.0
C6234 C 0.36252 0.94666 0.89778 0.0
C6235 C 0.35814 0.94343 0.88497 0.0
C6236 C 0.36528 0.93737 0.87625 0.0
C6237 C 0.37664 0.93479 0.8804 0.0
C6238 C 0.3553 0.95317 0.90739 0.0
C6239 C 0.36097 0.93369 0.86255 0.0
H6240 H 0.31114 0.92802 0.88068 0.0
H6241 H 0.33612 0.97308 0.86913 0.0
H6242 H 0.33719 0.91426 0.88187 0.0
H6243 H 0.33447 0.92051 0.8976 0.0
H6244 H 0.32012 0.91102 0.88756 0.0
H6245 H 0.36001 0.98296 0.87033 0.0
H6246 H 0.36611 0.97559 0.88338 0.0
H6247 H 0.36718 0.96897 0.8674 0.0
H6248 H 0.37741 0.94674 0.91136 0.0
H6249 H 0.38229 0.93046 0.87369 0.0
H6250 H 0.34444 0.94544 0.90848 0.0
H6251 H 0.35552 0.96405 0.90389 0.0
H6252 H 0.35999 0.95512 0.91695 0.0
H6253 H 0.35061 0.92464 0.86233 0.0
H6254 H 0.36805 0.92991 0.85677 0.0
H6255 H 0.36045 0.94371 0.85796 0.0
C6256 C 0.19325 0.06403 0.41831 0.0
C6257 C 0.20631 0.06936 0.41239 0.0
C6258 C 0.18406 0.07102 0.41644 0.0
C6259 C 0.18803 0.08394 0.40868 0.0
C6260 C 0.20124 0.08956 0.40282 0.0
C6261 C 0.21015 0.08218 0.40465 0.0
C6262 C 0.17006 0.06453 0.42278 0.0
C6263 C 0.20601 0.10353 0.39472 0.0
C6264 C 0.16162 0.09694 0.39491 0.0
C6265 C 0.1617 0.10828 0.40372 0.0
C6266 C 0.1698 0.08862 0.3966 0.0
C6267 C 0.17861 0.09196 0.40713 0.0
C6268 C 0.17854 0.10315 0.41616 0.0
C6269 C 0.16989 0.11083 0.41453 0.0
C6270 C 0.16918 0.07641 0.38698 0.0
C6271 C 0.1878 0.10724 0.42749 0.0
H6272 H 0.19017 0.0544 0.42455 0.0
H6273 H 0.22009 0.08638 0.39989 0.0
H6274 H 0.16861 0.07296 0.42947 0.0
H6275 H 0.16215 0.06181 0.41543 0.0
H6276 H 0.16836 0.05416 0.42821 0.0
H6277 H 0.21653 0.10645 0.39075 0.0
H6278 H 0.19905 0.10189 0.38665 0.0
H6279 H 0.20575 0.11322 0.40056 0.0
H6280 H 0.15544 0.09478 0.38651 0.0
H6281 H 0.16972 0.11905 0.42175 0.0
H6282 H 0.16716 0.06569 0.39197 0.0
H6283 H 0.17914 0.07955 0.38179 0.0
H6284 H 0.16114 0.07444 0.37985 0.0
H6285 H 0.18471 0.0976 0.43411 0.0
H6286 H 0.18752 0.11721 0.43292 0.0
H6287 H 0.19847 0.10971 0.42425 0.0
C6288 C 0.4369 0.23927 0.39738 0.0
C6289 C 0.44976 0.24541 0.40295 0.0
C6290 C 0.43463 0.22974 0.38652 0.0
C6291 C 0.44536 0.226 0.38125 0.0
C6292 C 0.45858 0.23305 0.3862 0.0
C6293 C 0.46064 0.24279 0.39687 0.0
C6294 C 0.42048 0.22283 0.38124 0.0
C6295 C 0.47034 0.22952 0.38077 0.0
C6296 C 0.43447 0.18604 0.36819 0.0
C6297 C 0.43469 0.18806 0.35491 0.0
C6298 C 0.43814 0.19833 0.37675 0.0
C6299 C 0.44231 0.21312 0.37198 0.0
C6300 C 0.44317 0.21535 0.35856 0.0
C6301 C 0.43929 0.20277 0.35017 0.0
C6302 C 0.43727 0.19541 0.39097 0.0
C6303 C 0.44761 0.23091 0.35303 0.0
H6304 H 0.4284 0.24119 0.40191 0.0
H6305 H 0.47074 0.24789 0.40078 0.0
H6306 H 0.42094 0.22361 0.37064 0.0
H6307 H 0.41581 0.2107 0.38366 0.0
H6308 H 0.41377 0.22839 0.38519 0.0
H6309 H 0.48021 0.23689 0.38495 0.0
H6310 H 0.46852 0.21762 0.38276 0.0
H6311 H 0.47115 0.23082 0.37021 0.0
H6312 H 0.43125 0.17475 0.37192 0.0
H6313 H 0.43945 0.20443 0.33993 0.0
H6314 H 0.42967 0.19929 0.39566 0.0
H6315 H 0.44724 0.2019 0.39535 0.0
H6316 H 0.43427 0.18328 0.3931 0.0
H6317 H 0.439 0.23466 0.35386 0.0
H6318 H 0.45071 0.23106 0.34275 0.0
H6319 H 0.45621 0.2392 0.35836 0.0
C6320 C 0.74293 0.80381 0.27149 0.0
C6321 C 0.73883 0.78944 0.27683 0.0
C6322 C 0.7485 0.8066 0.25889 0.0
C6323 C 0.74976 0.79468 0.25141 0.0
C6324 C 0.74561 0.78017 0.25679 0.0
C6325 C 0.74025 0.77776 0.26939 0.0
C6326 C 0.75303 0.82227 0.25357 0.0
C6327 C 0.74679 0.76712 0.24922 0.0
C6328 C 0.75006 0.79304 0.21503 0.0
C6329 C 0.76367 0.79534 0.21206 0.0
C6330 C 0.74561 0.79392 0.22775 0.0
C6331 C 0.75494 0.79702 0.23781 0.0
C6332 C 0.76889 0.80049 0.23479 0.0
C6333 C 0.77312 0.79985 0.22194 0.0
C6334 C 0.73067 0.79027 0.2305 0.0
C6335 C 0.77922 0.8039 0.24518 0.0
H6336 H 0.74199 0.81292 0.27723 0.0
H6337 H 0.737 0.7666 0.27341 0.0
H6338 H 0.76391 0.82635 0.25042 0.0
H6339 H 0.74708 0.82205 0.24501 0.0
H6340 H 0.75176 0.83042 0.2607 0.0
H6341 H 0.74319 0.75657 0.25482 0.0
H6342 H 0.74072 0.76501 0.24043 0.0
H6343 H 0.75756 0.7699 0.24612 0.0
H6344 H 0.74261 0.78939 0.20756 0.0
H6345 H 0.78371 0.80197 0.21972 0.0
H6346 H 0.72934 0.79878 0.23718 0.0
H6347 H 0.72601 0.77916 0.23522 0.0
H6348 H 0.72505 0.78983 0.22164 0.0
H6349 H 0.77974 0.81414 0.25063 0.0
H6350 H 0.78957 0.80574 0.24127 0.0
H6351 H 0.77607 0.79449 0.25205 0.0
C6352 C 0.06769 0.70646 0.93421 0.0
C6353 C 0.07954 0.70459 0.9377 0.0
C6354 C 0.06818 0.71704 0.92486 0.0
C6355 C 0.08087 0.72619 0.91902 0.0
C6356 C 0.09281 0.72425 0.92249 0.0
C6357 C 0.09199 0.71352 0.9317 0.0
C6358 C 0.05514 0.71842 0.92123 0.0
C6359 C 0.10656 0.73377 0.91666 0.0
C6360 C 0.08283 0.74707 0.88776 0.0
C6361 C 0.08512 0.76167 0.89228 0.0
C6362 C 0.08124 0.73535 0.89631 0.0
C6363 C 0.08189 0.73829 0.90972 0.0
C6364 C 0.0842 0.75308 0.91426 0.0
C6365 C 0.08575 0.76456 0.90549 0.0
C6366 C 0.07869 0.71977 0.89101 0.0
C6367 C 0.08491 0.75677 0.92843 0.0
H6368 H 0.058 0.69952 0.93868 0.0
H6369 H 0.10124 0.71233 0.93444 0.0
H6370 H 0.05594 0.73016 0.92285 0.0
H6371 H 0.05341 0.71581 0.91087 0.0
H6372 H 0.04615 0.7107 0.92677 0.0
H6373 H 0.1148 0.73049 0.91999 0.0
H6374 H 0.10629 0.73276 0.90606 0.0
H6375 H 0.10912 0.74581 0.9192 0.0
H6376 H 0.08204 0.74474 0.87753 0.0
H6377 H 0.08722 0.77578 0.909 0.0
H6378 H 0.06871 0.71166 0.8947 0.0
H6379 H 0.0866 0.71595 0.89428 0.0
H6380 H 0.0787 0.71936 0.88037 0.0
H6381 H 0.07518 0.74971 0.93332 0.0
H6382 H 0.0869 0.76882 0.93042 0.0
H6383 H 0.09311 0.75411 0.93267 0.0
C6384 C 0.81594 0.25581 0.7567 0.0
C6385 C 0.81665 0.24339 0.76297 0.0
C6386 C 0.81322 0.25512 0.74356 0.0
C6387 C 0.81167 0.24191 0.73634 0.0
C6388 C 0.81193 0.22921 0.7426 0.0
C6389 C 0.81406 0.22998 0.75584 0.0
C6390 C 0.81238 0.26869 0.7373 0.0
C6391 C 0.81063 0.21502 0.73523 0.0
C6392 C 0.79626 0.23777 0.70352 0.0
C6393 C 0.80788 0.24497 0.69567 0.0
C6394 C 0.79731 0.23635 0.71673 0.0
C6395 C 0.81034 0.24168 0.72217 0.0
C6396 C 0.82215 0.24763 0.71411 0.0
C6397 C 0.82078 0.2494 0.70099 0.0
C6398 C 0.78444 0.23014 0.72496 0.0
C6399 C 0.83625 0.25292 0.71945 0.0
H6400 H 0.81795 0.2663 0.76191 0.0
H6401 H 0.81399 0.22005 0.76053 0.0
H6402 H 0.82103 0.27358 0.73036 0.0
H6403 H 0.80286 0.26528 0.73186 0.0
H6404 H 0.81262 0.27758 0.7444 0.0
H6405 H 0.80977 0.20566 0.74165 0.0
H6406 H 0.80162 0.21123 0.72905 0.0
H6407 H 0.81975 0.21741 0.72882 0.0
H6408 H 0.78624 0.23396 0.69943 0.0
H6409 H 0.82984 0.25503 0.69508 0.0
H6410 H 0.78354 0.23936 0.73104 0.0
H6411 H 0.78478 0.22141 0.73148 0.0
H6412 H 0.77516 0.22518 0.71913 0.0
H6413 H 0.83832 0.26339 0.72521 0.0
H6414 H 0.84426 0.25528 0.71177 0.0
H6415 H 0.83701 0.24432 0.72591 0.0
C6416 C 0.34532 0.75258 0.08623 0.0
C6417 C 0.35931 0.76081 0.08404 0.0
C6418 C 0.33947 0.75121 0.09866 0.0
C6419 C 0.34782 0.75819 0.10915 0.0
C6420 C 0.36207 0.76567 0.10709 0.0
C6421 C 0.36763 0.76691 0.09458 0.0
C6422 C 0.32423 0.74315 0.10044 0.0
C6423 C 0.37137 0.77292 0.11805 0.0
C6424 C 0.33279 0.77288 0.13729 0.0
C6425 C 0.32917 0.76106 0.14612 0.0
C6426 C 0.33844 0.77181 0.12515 0.0
C6427 C 0.34156 0.75912 0.12197 0.0
C6428 C 0.33876 0.74756 0.13103 0.0
C6429 C 0.33225 0.74845 0.1428 0.0
C6430 C 0.34089 0.78423 0.11564 0.0
C6431 C 0.34242 0.73411 0.12824 0.0
H6432 H 0.3388 0.74789 0.07816 0.0
H6433 H 0.37849 0.773 0.09299 0.0
H6434 H 0.32174 0.73498 0.10835 0.0
H6435 H 0.3197 0.75148 0.1031 0.0
H6436 H 0.31936 0.73703 0.0916 0.0
H6437 H 0.3823 0.77704 0.11506 0.0
H6438 H 0.36923 0.78261 0.12199 0.0
H6439 H 0.36945 0.76476 0.12592 0.0
H6440 H 0.33115 0.78305 0.13973 0.0
H6441 H 0.32939 0.73905 0.14927 0.0
H6442 H 0.33577 0.7794 0.10654 0.0
H6443 H 0.35195 0.78992 0.11337 0.0
H6444 H 0.33706 0.79284 0.11929 0.0
H6445 H 0.33529 0.72651 0.12122 0.0
H6446 H 0.34184 0.72759 0.13702 0.0
H6447 H 0.35286 0.73771 0.12396 0.0
C6448 C 0.95355 0.61671 0.76748 0.0
C6449 C 0.96698 0.62229 0.76242 0.0
C6450 C 0.9501 0.62261 0.779 0.0
C6451 C 0.96024 0.63452 0.78565 0.0
C6452 C 0.97383 0.64007 0.78068 0.0
C6453 C 0.97701 0.63393 0.76921 0.0
C6454 C 0.93553 0.61619 0.78399 0.0
C6455 C 0.98503 0.65271 0.7874 0.0
C6456 C 0.94956 0.66138 0.80675 0.0
C6457 C 0.95033 0.6566 0.81914 0.0
C6458 C 0.9526 0.6542 0.79585 0.0
C6459 C 0.95652 0.64185 0.79731 0.0
C6460 C 0.9572 0.63689 0.80988 0.0
C6461 C 0.95412 0.64435 0.82065 0.0
C6462 C 0.95196 0.6601 0.78275 0.0
C6463 C 0.96129 0.62379 0.81197 0.0
H6464 H 0.94573 0.60759 0.76249 0.0
H6465 H 0.98738 0.63853 0.76539 0.0
H6466 H 0.93512 0.61258 0.79406 0.0
H6467 H 0.93126 0.62502 0.78398 0.0
H6468 H 0.92897 0.60641 0.77816 0.0
H6469 H 0.99513 0.65555 0.78249 0.0
H6470 H 0.98265 0.66295 0.78785 0.0
H6471 H 0.98571 0.64953 0.79741 0.0
H6472 H 0.94688 0.67104 0.80559 0.0
H6473 H 0.95492 0.64079 0.83024 0.0
H6474 H 0.94481 0.65098 0.77673 0.0
H6475 H 0.96214 0.66391 0.77788 0.0
H6476 H 0.9486 0.66968 0.78321 0.0
H6477 H 0.95321 0.61326 0.80841 0.0
H6478 H 0.96284 0.62241 0.82225 0.0
H6479 H 0.97081 0.62527 0.80646 0.0
C6480 C 0.27014 0.30907 0.55867 0.0
C6481 C 0.25916 0.29828 0.55228 0.0
C6482 C 0.2711 0.30875 0.5721 0.0
C6483 C 0.26079 0.29738 0.57933 0.0
C6484 C 0.24919 0.28727 0.57297 0.0
C6485 C 0.24864 0.28767 0.55957 0.0
C6486 C 0.28324 0.32049 0.57847 0.0
C6487 C 0.23727 0.27602 0.58031 0.0
C6488 C 0.2665 0.28358 0.61195 0.0
C6489 C 0.26428 0.29399 0.6203 0.0
C6490 C 0.26531 0.28442 0.59862 0.0
C6491 C 0.26193 0.2961 0.59352 0.0
C6492 C 0.25907 0.30619 0.60218 0.0
C6493 C 0.26052 0.30513 0.61539 0.0
C6494 C 0.26768 0.27255 0.59036 0.0
C6495 C 0.25414 0.31801 0.59787 0.0
H6496 H 0.27817 0.31749 0.55312 0.0
H6497 H 0.23987 0.27963 0.55475 0.0
H6498 H 0.27995 0.32645 0.58624 0.0
H6499 H 0.28935 0.31497 0.58284 0.0
H6500 H 0.28987 0.32905 0.57162 0.0
H6501 H 0.22815 0.27091 0.57432 0.0
H6502 H 0.24007 0.26683 0.58372 0.0
H6503 H 0.23455 0.2815 0.58885 0.0
H6504 H 0.26921 0.2748 0.6158 0.0
H6505 H 0.25852 0.31302 0.62195 0.0
H6506 H 0.27775 0.27236 0.59248 0.0
H6507 H 0.26715 0.27409 0.57997 0.0
H6508 H 0.25993 0.26129 0.59295 0.0
H6509 H 0.26218 0.32937 0.59953 0.0
H6510 H 0.2451 0.31745 0.60381 0.0
H6511 H 0.25136 0.31687 0.58766 0.0
C6512 C 0.58696 0.37594 0.30444 0.0
C6513 C 0.57398 0.37321 0.29976 0.0
C6514 C 0.58897 0.3663 0.31329 0.0
C6515 C 0.57769 0.35368 0.31789 0.0
C6516 C 0.56445 0.35131 0.31381 0.0
C6517 C 0.56275 0.36104 0.30477 0.0
C6518 C 0.60328 0.36935 0.31736 0.0
C6519 C 0.55213 0.33823 0.31875 0.0
C6520 C 0.58676 0.32155 0.3294 0.0
C6521 C 0.58804 0.32461 0.34258 0.0
C6522 C 0.58277 0.3305 0.32132 0.0
C6523 C 0.57995 0.34276 0.32657 0.0
C6524 C 0.58057 0.34536 0.34001 0.0
C6525 C 0.58473 0.33633 0.34782 0.0
C6526 C 0.58239 0.3274 0.30706 0.0
C6527 C 0.57768 0.35824 0.34608 0.0
H6528 H 0.59569 0.38553 0.30098 0.0
H6529 H 0.55268 0.35875 0.30127 0.0
H6530 H 0.60379 0.36988 0.32796 0.0
H6531 H 0.60622 0.35997 0.314 0.0
H6532 H 0.61087 0.38006 0.31345 0.0
H6533 H 0.54246 0.33842 0.31531 0.0
H6534 H 0.55284 0.32746 0.31559 0.0
H6535 H 0.5518 0.33838 0.32939 0.0
H6536 H 0.5896 0.31267 0.32533 0.0
H6537 H 0.58597 0.33885 0.35799 0.0
H6538 H 0.59063 0.33684 0.30215 0.0
H6539 H 0.57257 0.32669 0.30325 0.0
H6540 H 0.58376 0.31677 0.30459 0.0
H6541 H 0.58639 0.36901 0.34402 0.0
H6542 H 0.57621 0.35711 0.35665 0.0
H6543 H 0.56847 0.35895 0.34202 0.0
C6544 C 0.47932 0.41859 0.21111 0.0
C6545 C 0.49113 0.41709 0.20596 0.0
C6546 C 0.46832 0.41722 0.20338 0.0
C6547 C 0.46908 0.41452 0.19003 0.0
C6548 C 0.48121 0.41373 0.18463 0.0
C6549 C 0.49202 0.41496 0.19263 0.0
C6550 C 0.45565 0.41815 0.20959 0.0
C6551 C 0.4826 0.41115 0.17042 0.0
C6552 C 0.43612 0.39413 0.17201 0.0
C6553 C 0.43452 0.40597 0.16571 0.0
C6554 C 0.44718 0.3968 0.18007 0.0
C6555 C 0.45695 0.4117 0.18187 0.0
C6556 C 0.45516 0.42375 0.17571 0.0
C6557 C 0.44398 0.42073 0.16769 0.0
C6558 C 0.44865 0.38359 0.18635 0.0
C6559 C 0.46522 0.43979 0.17737 0.0
H6560 H 0.47856 0.42065 0.2213 0.0
H6561 H 0.50097 0.4137 0.18844 0.0
H6562 H 0.45286 0.42655 0.20466 0.0
H6563 H 0.447 0.40708 0.20866 0.0
H6564 H 0.45695 0.42126 0.21993 0.0
H6565 H 0.49286 0.41145 0.1676 0.0
H6566 H 0.47484 0.40003 0.16756 0.0
H6567 H 0.48071 0.41985 0.16497 0.0
H6568 H 0.42896 0.38267 0.17026 0.0
H6569 H 0.44289 0.42986 0.16261 0.0
H6570 H 0.44921 0.38537 0.19689 0.0
H6571 H 0.45829 0.38267 0.18296 0.0
H6572 H 0.44005 0.37276 0.18424 0.0
H6573 H 0.46526 0.44332 0.18757 0.0
H6574 H 0.4628 0.44778 0.17143 0.0
H6575 H 0.47567 0.44063 0.17474 0.0
C6576 C 0.34676 0.67841 0.97093 0.0
C6577 C 0.36082 0.6855 0.97254 0.0
C6578 C 0.34127 0.66513 0.96358 0.0
C6579 C 0.35013 0.65895 0.95767 0.0
C6580 C 0.36441 0.66629 0.95908 0.0
C6581 C 0.3696 0.67948 0.96662 0.0
C6582 C 0.32601 0.65756 0.96236 0.0
C6583 C 0.37415 0.66011 0.95275 0.0
C6584 C 0.3367 0.61743 0.94848 0.0
C6585 C 0.33554 0.61806 0.93522 0.0
C6586 C 0.3412 0.63068 0.95599 0.0
C6587 C 0.34447 0.64476 0.95004 0.0
C6588 C 0.34272 0.64534 0.93673 0.0
C6589 C 0.3383 0.63195 0.92947 0.0
C6590 C 0.34299 0.62966 0.97016 0.0
C6591 C 0.34593 0.66012 0.93009 0.0
H6592 H 0.34005 0.68311 0.97568 0.0
H6593 H 0.38048 0.68503 0.96799 0.0
H6594 H 0.32332 0.65604 0.95211 0.0
H6595 H 0.32227 0.64617 0.96661 0.0
H6596 H 0.32058 0.6641 0.96722 0.0
H6597 H 0.38496 0.6672 0.95476 0.0
H6598 H 0.37183 0.64852 0.95615 0.0
H6599 H 0.37287 0.65935 0.94222 0.0
H6600 H 0.33468 0.60666 0.95287 0.0
H6601 H 0.33729 0.63236 0.9192 0.0
H6602 H 0.33756 0.63569 0.97574 0.0
H6603 H 0.35395 0.63521 0.97239 0.0
H6604 H 0.33915 0.6178 0.97343 0.0
H6605 H 0.33997 0.66622 0.93467 0.0
H6606 H 0.34363 0.65854 0.91973 0.0
H6607 H 0.35687 0.66739 0.93107 0.0
C6608 C 0.04724 0.57771 0.65003 0.0
C6609 C 0.04324 0.58997 0.65116 0.0
C6610 C 0.05912 0.57882 0.64297 0.0
C6611 C 0.06702 0.5924 0.6366 0.0
C6612 C 0.06296 0.60478 0.6377 0.0
C6613 C 0.05122 0.60347 0.64507 0.0
C6614 C 0.06317 0.56544 0.64226 0.0
C6615 C 0.07085 0.61934 0.63083 0.0
C6616 C 0.1042 0.60198 0.62633 0.0
C6617 C 0.10318 0.59904 0.61312 0.0
C6618 C 0.0925 0.59949 0.63415 0.0
C6619 C 0.07944 0.59374 0.62865 0.0
C6620 C 0.07838 0.59019 0.61535 0.0
C6621 C 0.09027 0.59304 0.60773 0.0
C6622 C 0.09415 0.60349 0.64824 0.0
C6623 C 0.0647 0.58374 0.6091 0.0
H6624 H 0.04104 0.56723 0.65469 0.0
H6625 H 0.04803 0.61287 0.64574 0.0
H6626 H 0.06393 0.56204 0.63212 0.0
H6627 H 0.07338 0.56855 0.64638 0.0
H6628 H 0.05581 0.55559 0.64752 0.0
H6629 H 0.0665 0.62798 0.63278 0.0
H6630 H 0.08162 0.62397 0.63378 0.0
H6631 H 0.07086 0.61718 0.62034 0.0
H6632 H 0.11421 0.6067 0.63046 0.0
H6633 H 0.08951 0.59074 0.5975 0.0
H6634 H 0.08774 0.59366 0.65406 0.0
H6635 H 0.09061 0.61272 0.6505 0.0
H6636 H 0.1049 0.60717 0.65116 0.0
H6637 H 0.05802 0.5732 0.61394 0.0
H6638 H 0.06558 0.58122 0.59874 0.0
H6639 H 0.0596 0.59181 0.61017 0.0
C6640 C 0.25066 0.38125 0.43086 0.0
C6641 C 0.2473 0.37882 0.44396 0.0
C6642 C 0.24863 0.39285 0.42437 0.0
C6643 C 0.24293 0.40212 0.43108 0.0
C6644 C 0.23921 0.39943 0.44422 0.0
C6645 C 0.24145 0.38787 0.45047 0.0
C6646 C 0.25291 0.39547 0.41042 0.0
C6647 C 0.23304 0.40891 0.45177 0.0
C6648 C 0.25082 0.44196 0.41957 0.0
C6649 C 0.23878 0.44036 0.41359 0.0
C6650 C 0.25235 0.42959 0.42511 0.0
C6651 C 0.24156 0.41518 0.42463 0.0
C6652 C 0.22937 0.4135 0.41845 0.0
C6653 C 0.22812 0.42615 0.41299 0.0
C6654 C 0.26545 0.43203 0.4317 0.0
C6655 C 0.21763 0.39837 0.41775 0.0
H6656 H 0.25526 0.37438 0.42578 0.0
H6657 H 0.23861 0.38592 0.46053 0.0
H6658 H 0.24423 0.39519 0.40472 0.0
H6659 H 0.26114 0.40682 0.40928 0.0
H6660 H 0.25665 0.38694 0.4064 0.0
H6661 H 0.23064 0.40534 0.4619 0.0
H6662 H 0.24015 0.42093 0.45166 0.0
H6663 H 0.22352 0.40818 0.44726 0.0
H6664 H 0.25902 0.45302 0.4201 0.0
H6665 H 0.21877 0.42497 0.40842 0.0
H6666 H 0.27016 0.4245 0.42738 0.0
H6667 H 0.26329 0.42912 0.44197 0.0
H6668 H 0.27294 0.44387 0.43103 0.0
H6669 H 0.22088 0.39027 0.41224 0.0
H6670 H 0.20866 0.39902 0.41311 0.0
H6671 H 0.21451 0.39378 0.42752 0.0
C6672 C 0.61568 0.77359 0.35136 0.0
C6673 C 0.62672 0.78378 0.35805 0.0
C6674 C 0.60245 0.77316 0.35351 0.0
C6675 C 0.60013 0.78308 0.36269 0.0
C6676 C 0.61132 0.79355 0.36939 0.0
C6677 C 0.62451 0.79378 0.36697 0.0
C6678 C 0.59091 0.76208 0.34594 0.0
C6679 C 0.60945 0.80423 0.37938 0.0
C6680 C 0.5662 0.78781 0.36121 0.0
C6681 C 0.55819 0.777 0.36999 0.0
C6682 C 0.58005 0.79029 0.35899 0.0
C6683 C 0.58588 0.78174 0.36572 0.0
C6684 C 0.57781 0.77119 0.3749 0.0
C6685 C 0.56404 0.76887 0.37684 0.0
C6686 C 0.5884 0.80186 0.34933 0.0
C6687 C 0.58362 0.76205 0.38245 0.0
H6688 H 0.61747 0.76603 0.34432 0.0
H6689 H 0.63309 0.80175 0.37208 0.0
H6690 H 0.58329 0.75404 0.35252 0.0
H6691 H 0.58565 0.76814 0.34084 0.0
H6692 H 0.59448 0.75557 0.3388 0.0
H6693 H 0.61875 0.81475 0.37996 0.0
H6694 H 0.60068 0.80729 0.37746 0.0
H6695 H 0.60756 0.7987 0.38883 0.0
H6696 H 0.56162 0.79413 0.35597 0.0
H6697 H 0.55779 0.76058 0.38371 0.0
H6698 H 0.59225 0.79635 0.34156 0.0
H6699 H 0.59741 0.81039 0.35399 0.0
H6700 H 0.58246 0.80772 0.34501 0.0
H6701 H 0.58605 0.7541 0.37592 0.0
H6702 H 0.57644 0.75544 0.39011 0.0
H6703 H 0.59327 0.76955 0.38688 0.0
C6704 C 0.14985 0.64433 0.03113 0.0
C6705 C 0.13875 0.63291 0.02543 0.0
C6706 C 0.16093 0.6415 0.03547 0.0
C6707 C 0.16093 0.62682 0.03415 0.0
C6708 C 0.14997 0.61534 0.02799 0.0
C6709 C 0.13901 0.61854 0.02361 0.0
C6710 C 0.17238 0.65412 0.04193 0.0
C6711 C 0.14953 0.59953 0.02656 0.0
C6712 C 0.19525 0.62463 0.04006 0.0
C6713 C 0.194 0.62147 0.05317 0.0
C6714 C 0.1843 0.62564 0.0335 0.0
C6715 C 0.17187 0.62339 0.04024 0.0
C6716 C 0.17041 0.61939 0.05333 0.0
C6717 C 0.18149 0.61854 0.05962 0.0
C6718 C 0.18628 0.62998 0.01957 0.0
C6719 C 0.15744 0.61699 0.06096 0.0
H6720 H 0.14969 0.65546 0.03248 0.0
H6721 H 0.13039 0.60967 0.01931 0.0
H6722 H 0.17287 0.65127 0.05208 0.0
H6723 H 0.18229 0.65557 0.03719 0.0
H6724 H 0.1711 0.66502 0.04172 0.0
H6725 H 0.14083 0.59214 0.02077 0.0
H6726 H 0.15915 0.59972 0.02197 0.0
H6727 H 0.14862 0.59451 0.03616 0.0
H6728 H 0.205 0.62713 0.03513 0.0
H6729 H 0.18061 0.61625 0.0698 0.0
H6730 H 0.18608 0.64134 0.01858 0.0
H6731 H 0.17781 0.62198 0.0139 0.0
H6732 H 0.19609 0.63017 0.01544 0.0
H6733 H 0.15619 0.62787 0.06215 0.0
H6734 H 0.15746 0.61244 0.07063 0.0
H6735 H 0.14847 0.6091 0.05581 0.0
C6736 C 0.90069 0.23493 0.87332 0.0
C6737 C 0.90219 0.24683 0.86517 0.0
C6738 C 0.91212 0.23312 0.87812 0.0
C6739 C 0.92537 0.24344 0.87463 0.0
C6740 C 0.92691 0.25542 0.86624 0.0
C6741 C 0.91527 0.25701 0.86169 0.0
C6742 C 0.90995 0.22066 0.88748 0.0
C6743 C 0.94082 0.26667 0.86211 0.0
C6744 C 0.95702 0.254 0.89425 0.0
C6745 C 0.96436 0.24714 0.88703 0.0
C6746 C 0.94372 0.2519 0.89095 0.0
C6747 C 0.93768 0.24253 0.88033 0.0
C6748 C 0.94445 0.23391 0.87427 0.0
C6749 C 0.95791 0.23669 0.87743 0.0
C6750 C 0.93638 0.26026 0.8984 0.0
C6751 C 0.93806 0.22251 0.86387 0.0
H6752 H 0.89053 0.22732 0.87627 0.0
H6753 H 0.91639 0.26639 0.85558 0.0
H6754 H 0.91682 0.21472 0.88516 0.0
H6755 H 0.91238 0.22561 0.89724 0.0
H6756 H 0.89925 0.21228 0.88766 0.0
H6757 H 0.94508 0.27498 0.86998 0.0
H6758 H 0.94799 0.26102 0.86002 0.0
H6759 H 0.94033 0.27288 0.85345 0.0
H6760 H 0.96199 0.26171 0.90195 0.0
H6761 H 0.96361 0.23126 0.87193 0.0
H6762 H 0.92589 0.25243 0.90111 0.0
H6763 H 0.93544 0.26905 0.89231 0.0
H6764 H 0.94176 0.26572 0.90723 0.0
H6765 H 0.92679 0.2178 0.86448 0.0
H6766 H 0.94161 0.21309 0.86408 0.0
H6767 H 0.94139 0.22811 0.85459 0.0
C6768 C 0.39367 0.32859 0.50269 0.0
C6769 C 0.39386 0.32525 0.48952 0.0
C6770 C 0.38361 0.3331 0.50823 0.0
C6771 C 0.37359 0.33451 0.5004 0.0
C6772 C 0.37403 0.33175 0.48706 0.0
C6773 C 0.38404 0.32702 0.48181 0.0
C6774 C 0.38341 0.33582 0.52253 0.0
C6775 C 0.36364 0.33332 0.47838 0.0
C6776 C 0.33958 0.32773 0.51698 0.0
C6777 C 0.34077 0.34244 0.52012 0.0
C6778 C 0.35004 0.32505 0.51028 0.0
C6779 C 0.36191 0.3374 0.50636 0.0
C6780 C 0.36276 0.35232 0.50867 0.0
C6781 C 0.35216 0.35468 0.51561 0.0
C6782 C 0.34869 0.30896 0.50805 0.0
C6783 C 0.37513 0.3658 0.50444 0.0
H6784 H 0.40131 0.32752 0.50872 0.0
H6785 H 0.38387 0.32424 0.47168 0.0
H6786 H 0.38326 0.34711 0.52464 0.0
H6787 H 0.37398 0.32737 0.52691 0.0
H6788 H 0.39234 0.33508 0.52718 0.0
H6789 H 0.36613 0.33216 0.46809 0.0
H6790 H 0.35343 0.32457 0.48067 0.0
H6791 H 0.36297 0.34446 0.47997 0.0
H6792 H 0.33067 0.31825 0.52032 0.0
H6793 H 0.35313 0.36605 0.51808 0.0
H6794 H 0.35666 0.30694 0.51335 0.0
H6795 H 0.35028 0.3069 0.49774 0.0
H6796 H 0.33856 0.30065 0.51125 0.0
H6797 H 0.38356 0.3675 0.51103 0.0
H6798 H 0.37306 0.37625 0.50456 0.0
H6799 H 0.37866 0.36398 0.49465 0.0
C6800 C 0.28142 0.57285 0.34435 0.0
C6801 C 0.29555 0.57779 0.34589 0.0
C6802 C 0.27232 0.55927 0.34981 0.0
C6803 C 0.27744 0.55046 0.35703 0.0
C6804 C 0.29167 0.55538 0.35858 0.0
C6805 C 0.3005 0.56894 0.35304 0.0
C6806 C 0.25722 0.55437 0.34791 0.0
C6807 C 0.29758 0.54631 0.36613 0.0
C6808 C 0.2544 0.52246 0.38143 0.0
C6809 C 0.25058 0.50885 0.37452 0.0
C6810 C 0.26295 0.53613 0.37578 0.0
C6811 C 0.268 0.5361 0.36302 0.0
C6812 C 0.2643 0.52226 0.35612 0.0
C6813 C 0.25548 0.50884 0.36191 0.0
C6814 C 0.26649 0.55063 0.38341 0.0
C6815 C 0.26959 0.52162 0.34261 0.0
H6816 H 0.27748 0.57953 0.33879 0.0
H6817 H 0.31135 0.57277 0.35451 0.0
H6818 H 0.25302 0.54293 0.34349 0.0
H6819 H 0.25188 0.55372 0.35733 0.0
H6820 H 0.25486 0.56221 0.34173 0.0
H6821 H 0.30889 0.55157 0.36627 0.0
H6822 H 0.29353 0.54513 0.37615 0.0
H6823 H 0.29449 0.53478 0.36194 0.0
H6824 H 0.25046 0.52243 0.39115 0.0
H6825 H 0.25245 0.49827 0.35659 0.0
H6826 H 0.26314 0.5585 0.3783 0.0
H6827 H 0.27769 0.55622 0.38434 0.0
H6828 H 0.26165 0.54876 0.39316 0.0
H6829 H 0.26526 0.52743 0.3361 0.0
H6830 H 0.26687 0.50985 0.33907 0.0
H6831 H 0.28084 0.52757 0.34206 0.0
C6832 C 0.75582 0.03918 0.60836 0.0
C6833 C 0.75257 0.03783 0.62156 0.0
C6834 C 0.75422 0.05052 0.60112 0.0
C6835 C 0.74926 0.06081 0.60718 0.0
C6836 C 0.74663 0.05998 0.62059 0.0
C6837 C 0.74837 0.04859 0.62759 0.0
C6838 C 0.75731 0.0511 0.58687 0.0
C6839 C 0.74138 0.07071 0.62747 0.0
C6840 C 0.75121 0.09592 0.58937 0.0
C6841 C 0.73803 0.09111 0.58465 0.0
C6842 C 0.75506 0.08624 0.59679 0.0
C6843 C 0.74551 0.07143 0.59939 0.0
C6844 C 0.73216 0.06668 0.59465 0.0
C6845 C 0.7286 0.07659 0.58737 0.0
C6846 C 0.76937 0.09178 0.60165 0.0
C6847 C 0.72168 0.05098 0.59705 0.0
H6848 H 0.75902 0.03096 0.60354 0.0
H6849 H 0.74612 0.04793 0.63781 0.0
H6850 H 0.74801 0.04953 0.58156 0.0
H6851 H 0.7651 0.06233 0.58432 0.0
H6852 H 0.7611 0.04233 0.58359 0.0
H6853 H 0.74092 0.06944 0.63804 0.0
H6854 H 0.74795 0.08253 0.62512 0.0
H6855 H 0.73098 0.06861 0.62422 0.0
H6856 H 0.75856 0.10711 0.58707 0.0
H6857 H 0.71847 0.07284 0.58351 0.0
H6858 H 0.77464 0.08468 0.59757 0.0
H6859 H 0.76909 0.09074 0.61223 0.0
H6860 H 0.77544 0.1037 0.59911 0.0
H6861 H 0.72545 0.04251 0.59298 0.0
H6862 H 0.71175 0.04906 0.59274 0.0
H6863 H 0.72001 0.04901 0.60751 0.0
C6864 C 0.604 0.80824 0.41485 0.0
C6865 C 0.6073 0.82384 0.41584 0.0
C6866 C 0.59043 0.79784 0.4159 0.0
C6867 C 0.57989 0.80306 0.41865 0.0
C6868 C 0.58313 0.81871 0.42015 0.0
C6869 C 0.59669 0.82887 0.41845 0.0
C6870 C 0.5874 0.78125 0.41402 0.0
C6871 C 0.57241 0.82486 0.42386 0.0
C6872 C 0.54455 0.77682 0.40867 0.0
C6873 C 0.53917 0.7688 0.41993 0.0
C6874 C 0.55741 0.78878 0.40844 0.0
C6875 C 0.56547 0.79211 0.41946 0.0
C6876 C 0.55996 0.78442 0.43096 0.0
C6877 C 0.54686 0.77298 0.43109 0.0
C6878 C 0.56247 0.79789 0.39642 0.0
C6879 C 0.5679 0.78822 0.44314 0.0
H6880 H 0.612 0.80404 0.41325 0.0
H6881 H 0.59889 0.84082 0.41907 0.0
H6882 H 0.57882 0.77603 0.40742 0.0
H6883 H 0.59638 0.77922 0.41012 0.0
H6884 H 0.58427 0.77546 0.42334 0.0
H6885 H 0.5755 0.8367 0.42075 0.0
H6886 H 0.56234 0.81802 0.41985 0.0
H6887 H 0.57113 0.82469 0.43446 0.0
H6888 H 0.53886 0.7735 0.39999 0.0
H6889 H 0.54265 0.76722 0.43999 0.0
H6890 H 0.57093 0.79535 0.39191 0.0
H6891 H 0.56662 0.81013 0.39868 0.0
H6892 H 0.55422 0.79571 0.38954 0.0
H6893 H 0.57606 0.78377 0.44246 0.0
H6894 H 0.56133 0.78328 0.4517 0.0
H6895 H 0.57285 0.80062 0.44455 0.0
C6896 C 0.7778 0.93968 0.05573 0.0
C6897 C 0.78913 0.95344 0.05455 0.0
C6898 C 0.77933 0.92579 0.05586 0.0
C6899 C 0.79254 0.92554 0.05496 0.0
C6900 C 0.80399 0.93933 0.05351 0.0
C6901 C 0.80216 0.95306 0.05332 0.0
C6902 C 0.76681 0.91143 0.05735 0.0
C6903 C 0.81826 0.9396 0.05236 0.0
C6904 C 0.80076 0.8943 0.06954 0.0
C6905 C 0.8026 0.8865 0.05863 0.0
C6906 C 0.79674 0.90651 0.06853 0.0
C6907 C 0.79456 0.91107 0.05627 0.0
C6908 C 0.79555 0.90252 0.04528 0.0
C6909 C 0.79965 0.89037 0.04659 0.0
C6910 C 0.79567 0.91513 0.08051 0.0
C6911 C 0.79294 0.90666 0.03209 0.0
H6912 H 0.76768 0.93974 0.05688 0.0
H6913 H 0.81099 0.96351 0.05217 0.0
H6914 H 0.76734 0.90253 0.05065 0.0
H6915 H 0.76619 0.9072 0.06723 0.0
H6916 H 0.75731 0.9132 0.05564 0.0
H6917 H 0.82608 0.95118 0.05105 0.0
H6918 H 0.82056 0.93481 0.0611 0.0
H6919 H 0.81906 0.93247 0.0441 0.0
H6920 H 0.80317 0.89136 0.07884 0.0
H6921 H 0.80118 0.88436 0.03814 0.0
H6922 H 0.78581 0.91652 0.08096 0.0
H6923 H 0.80389 0.92658 0.08031 0.0
H6924 H 0.79656 0.90945 0.08935 0.0
H6925 H 0.78293 0.9077 0.03202 0.0
H6926 H 0.79307 0.89822 0.02467 0.0
H6927 H 0.80084 0.91779 0.02944 0.0
C6928 C 0.42719 0.70588 0.34338 0.0
C6929 C 0.42202 0.70998 0.33252 0.0
C6930 C 0.44059 0.71424 0.34734 0.0
C6931 C 0.44884 0.72739 0.34065 0.0
C6932 C 0.44435 0.7306 0.32895 0.0
C6933 C 0.43106 0.72186 0.325 0.0
C6934 C 0.44587 0.70918 0.35881 0.0
C6935 C 0.45364 0.74321 0.32058 0.0
C6936 C 0.47289 0.76066 0.35992 0.0
C6937 C 0.48474 0.75755 0.36025 0.0
C6938 C 0.46123 0.75099 0.35353 0.0
C6939 C 0.46158 0.73834 0.34649 0.0
C6940 C 0.47378 0.73579 0.34585 0.0
C6941 C 0.48491 0.74497 0.35308 0.0
C6942 C 0.44844 0.75423 0.35454 0.0
C6943 C 0.47535 0.7233 0.33776 0.0
H6944 H 0.42066 0.69653 0.34915 0.0
H6945 H 0.4277 0.72457 0.31608 0.0
H6946 H 0.45525 0.70736 0.35607 0.0
H6947 H 0.4486 0.71807 0.36642 0.0
H6948 H 0.43839 0.69843 0.36273 0.0
H6949 H 0.44917 0.74331 0.31115 0.0
H6950 H 0.4558 0.75425 0.32542 0.0
H6951 H 0.46355 0.74205 0.31896 0.0
H6952 H 0.47249 0.77054 0.36478 0.0
H6953 H 0.49356 0.74178 0.35321 0.0
H6954 H 0.43955 0.74391 0.35731 0.0
H6955 H 0.44633 0.75773 0.34511 0.0
H6956 H 0.44929 0.76335 0.36162 0.0
H6957 H 0.47664 0.7149 0.3441 0.0
H6958 H 0.4848 0.72798 0.3317 0.0
H6959 H 0.46667 0.71749 0.33142 0.0
C6960 C 0.25105 0.46855 0.89882 0.0
C6961 C 0.23756 0.46658 0.90205 0.0
C6962 C 0.26185 0.48266 0.90019 0.0
C6963 C 0.25913 0.4952 0.90478 0.0
C6964 C 0.2455 0.49343 0.90768 0.0
C6965 C 0.23492 0.47915 0.90637 0.0
C6966 C 0.27623 0.48407 0.89706 0.0
C6967 C 0.24213 0.50653 0.91249 0.0
C6968 C 0.28694 0.52625 0.92269 0.0
C6969 C 0.29194 0.53753 0.91349 0.0
C6970 C 0.27632 0.51243 0.91992 0.0
C6971 C 0.27061 0.50981 0.90761 0.0
C6972 C 0.27578 0.52117 0.8982 0.0
C6973 C 0.28641 0.53499 0.90128 0.0
C6974 C 0.271 0.50077 0.9303 0.0
C6975 C 0.26995 0.51881 0.88498 0.0
H6976 H 0.25322 0.45903 0.89523 0.0
H6977 H 0.2246 0.47779 0.90905 0.0
H6978 H 0.28125 0.49335 0.89021 0.0
H6979 H 0.28226 0.48695 0.9059 0.0
H6980 H 0.27659 0.4735 0.89287 0.0
H6981 H 0.23097 0.50349 0.91362 0.0
H6982 H 0.24685 0.51057 0.92189 0.0
H6983 H 0.2464 0.51607 0.90575 0.0
H6984 H 0.29107 0.52844 0.93222 0.0
H6985 H 0.29016 0.5439 0.89428 0.0
H6986 H 0.27166 0.49003 0.92695 0.0
H6987 H 0.26009 0.49839 0.93248 0.0
H6988 H 0.27672 0.50447 0.93929 0.0
H6989 H 0.27195 0.50955 0.87997 0.0
H6990 H 0.27441 0.52912 0.87908 0.0
H6991 H 0.25873 0.51539 0.88566 0.0
C6992 C 0.72707 0.07882 0.076 0.0
C6993 C 0.72642 0.06636 0.06832 0.0
C6994 C 0.71589 0.08307 0.07755 0.0
C6995 C 0.70359 0.07468 0.07131 0.0
C6996 C 0.70277 0.06201 0.0636 0.0
C6997 C 0.71416 0.05796 0.06223 0.0
C6998 C 0.7172 0.09646 0.08608 0.0
C6999 C 0.68987 0.05277 0.05676 0.0
C7000 C 0.6718 0.07742 0.08701 0.0
C7001 C 0.66995 0.08842 0.0797 0.0
C7002 C 0.6824 0.07252 0.08412 0.0
C7003 C 0.69143 0.07874 0.07358 0.0
C7004 C 0.68936 0.08963 0.06592 0.0
C7005 C 0.67864 0.0944 0.06911 0.0
C7006 C 0.68416 0.06099 0.09261 0.0
C7007 C 0.69868 0.0965 0.05458 0.0
H7008 H 0.73637 0.08522 0.08097 0.0
H7009 H 0.71355 0.04838 0.05622 0.0
H7010 H 0.71462 0.10475 0.08073 0.0
H7011 H 0.7099 0.09274 0.09435 0.0
H7012 H 0.72764 0.10221 0.0898 0.0
H7013 H 0.69075 0.04313 0.05127 0.0
H7014 H 0.6812 0.04833 0.06376 0.0
H7015 H 0.68737 0.06001 0.05005 0.0
H7016 H 0.66503 0.07279 0.0952 0.0
H7017 H 0.67717 0.1029 0.06344 0.0
H7018 H 0.69405 0.06606 0.09746 0.0
H7019 H 0.68435 0.05128 0.08676 0.0
H7020 H 0.67589 0.05674 0.10005 0.0
H7021 H 0.70901 0.10356 0.05797 0.0
H7022 H 0.69497 0.10362 0.04886 0.0
H7023 H 0.69969 0.08752 0.04826 0.0
C7024 C 0.8227 0.93037 0.65487 0.0
C7025 C 0.82621 0.94594 0.65667 0.0
C7026 C 0.8327 0.92415 0.65456 0.0
C7027 C 0.84661 0.9337 0.65597 0.0
C7028 C 0.85018 0.94933 0.65812 0.0
C7029 C 0.83998 0.95521 0.65856 0.0
C7030 C 0.82843 0.9074 0.65233 0.0
C7031 C 0.86487 0.95996 0.65947 0.0
C7032 C 0.87178 0.91552 0.66301 0.0
C7033 C 0.8767 0.91396 0.65066 0.0
C7034 C 0.86217 0.92219 0.66496 0.0
C7035 C 0.85748 0.9275 0.65431 0.0
C7036 C 0.86293 0.92653 0.6419 0.0
C7037 C 0.87241 0.91975 0.64024 0.0
C7038 C 0.85662 0.92299 0.67832 0.0
C7039 C 0.85837 0.93213 0.63027 0.0
H7040 H 0.81218 0.92305 0.65327 0.0
H7041 H 0.84285 0.96718 0.66026 0.0
H7042 H 0.83278 0.90529 0.64302 0.0
H7043 H 0.83247 0.90254 0.65991 0.0
H7044 H 0.81717 0.90137 0.65223 0.0
H7045 H 0.8659 0.97161 0.66205 0.0
H7046 H 0.86978 0.9559 0.66689 0.0
H7047 H 0.87055 0.9603 0.65029 0.0
H7048 H 0.87496 0.91087 0.67104 0.0
H7049 H 0.87618 0.91851 0.63067 0.0
H7050 H 0.84556 0.91583 0.67883 0.0
H7051 H 0.85776 0.9347 0.68072 0.0
H7052 H 0.86181 0.91914 0.68566 0.0
H7053 H 0.8475 0.92509 0.62858 0.0
H7054 H 0.86443 0.93172 0.62149 0.0
H7055 H 0.85923 0.94389 0.63189 0.0
loop_
_geom_bond_atom_site_label_1
_geom_bond_atom_site_label_2
_geom_bond_distance
_geom_bond_site_symmetry_2
_ccdc_geom_bond_type
C0 C1 1.264 . S
C0 C5 1.479 . S
C0 C10 1.465 . S
C1 C0 1.264 . S
C1 C3 1.339 . S
C1 H28 0.931 . S
C2 C3 1.395 . S
C2 C4 1.320 . S
C3 C1 1.339 . S
C3 C2 1.395 . S
C3 H29 0.929 . S
C4 C2 1.320 . S
C4 C5 1.405 . S
C4 H30 0.872 1_455 S
C5 C0 1.479 . S
C5 C4 1.405 . S
C5 H31 0.931 . S
U6 O7 2.454 . S
U6 O8 2.458 . S
U6 C9 2.984 . S
U6 C10 2.847 . S
U6 C23 2.882 . S
U6 O24 2.441 . S
U6 O25 2.420 . S
U6 O26 2.455 . S
U6 O27 2.449 . S
O7 U6 2.454 . S
O7 C9 1.353 . S
O8 U6 2.458 . S
O8 C9 1.286 . S
C9 U6 2.984 . S
C9 O7 1.353 . S
C9 O8 1.286 . S
C9 C11 1.363 . S
C10 C0 1.465 . S
C10 U6 2.847 . S
C10 O24 1.249 . S
C10 O25 1.202 . S
C11 C9 1.363 . S
C11 C13 1.408 . S
C11 C16 1.342 . S
C12 C13 1.310 . S
C12 C15 1.461 . S
C12 H32 0.932 . S
C13 C11 1.408 . S
C13 C12 1.310 . S
C13 H33 0.930 . S
C14 C15 1.474 . S
C14 C16 1.285 . S
C14 H34 0.929 . S
C15 C12 1.461 . S
C15 C14 1.474 . S
C16 C11 1.342 . S
C16 C14 1.285 . S
C16 H35 0.930 . S
C17 C20 1.424 . S
C17 C22 1.245 . S
C17 C23 1.428 . S
C18 C21 1.260 . S
C18 C22 1.477 . S
C18 H36 0.932 . S
C19 C20 1.384 . S
C19 C21 1.479 . S
C19 H37 0.929 . S
C20 C17 1.424 . S
C20 C19 1.384 . S
C20 H38 0.928 . S
C21 C18 1.260 . S
C21 C19 1.479 . S
C22 C17 1.245 . S
C22 C18 1.477 . S
C22 H39 0.932 . S
C23 U6 2.882 . S
C23 C17 1.428 . S
C23 O26 1.301 . S
C23 O27 1.282 . S
O24 U6 2.441 . S
O24 C10 1.249 . S
O25 U6 2.420 . S
O25 C10 1.202 . S
O26 U6 2.455 . S
O26 C23 1.301 . S
O27 U6 2.449 . S
O27 C23 1.282 . S
H28 C1 0.931 . S
H29 C3 0.929 . S
H30 C4 0.872 1_655 S
H31 C5 0.931 . S
H32 C12 0.932 . S
H33 C13 0.930 . S
H34 C14 0.929 . S
H35 C16 0.930 . S
H36 C18 0.932 . S
H37 C19 0.929 . S
H38 C20 0.928 . S
H39 C22 0.932 . S
C40 C41 1.264 . S
C40 C45 1.479 . S
C40 C50 1.465 . S
C41 C40 1.264 . S
C41 C43 1.339 . S
C41 H68 0.931 . S
C42 C43 1.395 . S
C42 C44 1.320 . S
C43 C41 1.339 . S
C43 C42 1.395 . S
C43 H69 0.929 . S
C44 C42 1.320 . S
C44 C45 1.405 . S
C44 H70 0.930 . S
C45 C40 1.479 . S
C45 C44 1.405 . S
C45 H71 0.931 . S
U46 O47 2.454 . S
U46 O48 2.458 . S
U46 C49 2.984 . S
U46 C50 2.847 . S
U46 C63 2.882 . S
U46 O64 2.441 . S
U46 O65 2.420 . S
U46 O66 2.455 . S
U46 O67 2.449 . S
O47 U46 2.454 . S
O47 C49 1.353 . S
O48 U46 2.458 . S
O48 C49 1.286 . S
C49 U46 2.984 . S
C49 O47 1.353 . S
C49 O48 1.286 . S
C49 C51 1.363 . S
C50 C40 1.465 . S
C50 U46 2.847 . S
C50 O64 1.249 . S
C50 O65 1.202 . S
C51 C49 1.363 . S
C51 C53 1.408 . S
C51 C56 1.342 . S
C52 C53 1.310 . S
C52 C55 1.461 . S
C52 H72 0.932 . S
C53 C51 1.408 . S
C53 C52 1.310 . S
C53 H73 0.930 . S
C54 C55 1.474 . S
C54 C56 1.285 . S
C54 H74 0.929 . S
C55 C52 1.461 . S
C55 C54 1.474 . S
C56 C51 1.342 . S
C56 C54 1.285 . S
C56 H75 0.930 . S
C57 C60 1.424 . S
C57 C62 1.245 . S
C57 C63 1.428 . S
C58 C61 1.260 . S
C58 C62 1.477 . S
C58 H76 0.932 . S
C59 C60 1.384 . S
C59 C61 1.479 . S
C59 H77 0.929 . S
C60 C57 1.424 . S
C60 C59 1.384 . S
C60 H78 0.928 . S
C61 C58 1.260 . S
C61 C59 1.479 . S
C62 C57 1.245 . S
C62 C58 1.477 . S
C62 H79 0.932 . S
C63 U46 2.882 . S
C63 C57 1.428 . S
C63 O66 1.301 . S
C63 O67 1.282 . S
O64 U46 2.441 . S
O64 C50 1.249 . S
O65 U46 2.420 . S
O65 C50 1.202 . S
O66 U46 2.455 . S
O66 C63 1.301 . S
O67 U46 2.449 . S
O67 C63 1.282 . S
H68 C41 0.931 . S
H69 C43 0.929 . S
H70 C44 0.930 . S
H71 C45 0.931 . S
H72 C52 0.932 . S
H73 C53 0.930 . S
H74 C54 0.929 . S
H75 C56 0.930 . S
H76 C58 0.932 . S
H77 C59 0.929 . S
H78 C60 0.928 . S
H79 C62 0.932 . S
C80 C81 1.264 . S
C80 C85 1.479 . S
C80 C90 1.465 . S
C81 C80 1.264 . S
C81 C83 1.339 . S
C81 H108 0.931 . S
C82 C83 1.395 . S
C82 C84 1.320 . S
C83 C81 1.339 . S
C83 C82 1.395 . S
C83 H109 0.929 . S
C84 C82 1.320 . S
C84 C85 1.405 . S
C84 H110 0.930 . S
C85 C80 1.479 . S
C85 C84 1.405 . S
C85 H111 0.931 . S
U86 O87 2.454 . S
U86 O88 2.458 . S
U86 C89 2.984 . S
U86 C90 2.847 . S
U86 C103 2.882 . S
U86 O104 2.441 . S
U86 O105 2.420 . S
U86 O106 2.455 . S
U86 O107 2.449 . S
O87 U86 2.454 . S
O87 C89 1.353 . S
O88 U86 2.458 . S
O88 C89 1.286 . S
C89 U86 2.984 . S
C89 O87 1.353 . S
C89 O88 1.286 . S
C89 C91 1.363 . S
C90 C80 1.465 . S
C90 U86 2.847 . S
C90 O104 1.249 . S
C90 O105 1.202 . S
C91 C89 1.363 . S
C91 C93 1.408 . S
C91 C96 1.342 . S
C92 C93 1.310 . S
C92 C95 1.461 . S
C92 H112 0.932 . S
C93 C91 1.408 . S
C93 C92 1.310 . S
C93 H113 0.930 . S
C94 C95 1.474 . S
C94 C96 1.285 . S
C94 H114 0.929 . S
C95 C92 1.461 . S
C95 C94 1.474 . S
C96 C91 1.342 . S
C96 C94 1.285 . S
C96 H115 0.930 . S
C97 C100 1.424 . S
C97 C102 1.245 . S
C97 C103 1.428 . S
C98 C101 1.260 . S
C98 C102 1.477 . S
C98 H116 0.932 . S
C99 C100 1.384 . S
C99 C101 1.479 . S
C99 H117 0.929 . S
C100 C97 1.424 . S
C100 C99 1.384 . S
C100 H118 0.928 . S
C101 C98 1.260 . S
C101 C99 1.479 . S
C102 C97 1.245 . S
C102 C98 1.477 . S
C102 H119 0.932 . S
C103 U86 2.882 . S
C103 C97 1.428 . S
C103 O106 1.301 . S
C103 O107 1.282 . S
O104 U86 2.441 . S
O104 C90 1.249 . S
O105 U86 2.420 . S
O105 C90 1.202 . S
O106 U86 2.455 . S
O106 C103 1.301 . S
O107 U86 2.449 . S
O107 C103 1.282 . S
H108 C81 0.931 . S
H109 C83 0.929 . S
H110 C84 0.930 . S
H111 C85 0.931 . S
H112 C92 0.932 . S
H113 C93 0.930 . S
H114 C94 0.929 . S
H115 C96 0.930 . S
H116 C98 0.932 . S
H117 C99 0.929 . S
H118 C100 0.928 . S
H119 C102 0.932 . S
C120 C121 1.264 . S
C120 C125 1.479 . S
C120 C130 1.465 . S
C121 C120 1.264 . S
C121 C123 1.339 . S
C121 H148 0.931 . S
C122 C123 1.395 . S
C122 C124 1.320 . S
C123 C121 1.339 . S
C123 C122 1.395 . S
C123 H149 0.929 . S
C124 C122 1.320 . S
C124 C125 1.405 . S
C124 H150 0.930 . S
C125 C120 1.479 . S
C125 C124 1.405 . S
C125 H151 0.931 . S
U126 O127 2.454 . S
U126 O128 2.458 . S
U126 C129 2.984 . S
U126 C130 2.847 1_556 S
U126 C143 2.882 1_556 S
U126 O144 2.439 1_556 S
U126 O145 2.420 1_556 S
U126 O146 2.455 . S
U126 O147 2.449 1_556 S
O127 U126 2.454 . S
O127 C129 1.353 . S
O128 U126 2.458 . S
O128 C129 1.286 . S
C129 U126 2.984 . S
C129 O127 1.353 . S
C129 O128 1.286 . S
C129 C131 1.363 . S
C130 C120 1.465 . S
C130 U126 2.847 1_554 S
C130 O144 1.269 . S
C130 O145 1.202 . S
C131 C129 1.363 . S
C131 C133 1.408 . S
C131 C136 1.342 . S
C132 C133 1.310 . S
C132 C135 1.461 . S
C132 H152 0.932 . S
C133 C131 1.408 . S
C133 C132 1.310 . S
C133 H153 0.930 . S
C134 C135 1.474 . S
C134 C136 1.285 . S
C134 H154 0.929 . S
C135 C132 1.461 . S
C135 C134 1.474 . S
C136 C131 1.342 . S
C136 C134 1.285 . S
C136 H155 0.930 . S
C137 C140 1.424 . S
C137 C142 1.245 . S
C137 C143 1.428 . S
C138 C141 1.260 . S
C138 C142 1.477 . S
C138 H156 0.932 . S
C139 C140 1.384 . S
C139 C141 1.479 . S
C139 H157 0.929 . S
C140 C137 1.424 . S
C140 C139 1.384 . S
C140 H158 0.928 . S
C141 C138 1.260 . S
C141 C139 1.479 . S
C142 C137 1.245 . S
C142 C138 1.477 . S
C142 H159 0.932 . S
C143 U126 2.882 1_554 S
C143 C137 1.428 . S
C143 O146 1.301 1_554 S
C143 O147 1.282 . S
O144 U126 2.439 1_554 S
O144 C130 1.269 . S
O145 U126 2.420 1_554 S
O145 C130 1.202 . S
O146 U126 2.455 . S
O146 C143 1.301 1_556 S
O147 U126 2.449 1_554 S
O147 C143 1.282 . S
H148 C121 0.931 . S
H149 C123 0.929 . S
H150 C124 0.930 . S
H151 C125 0.931 . S
H152 C132 0.932 . S
H153 C133 0.930 . S
H154 C134 0.929 . S
H155 C136 0.930 . S
H156 C138 0.932 . S
H157 C139 0.929 . S
H158 C140 0.928 . S
H159 C142 0.932 . S
C160 C161 1.264 . S
C160 C165 1.479 . S
C160 C170 1.465 . S
C161 C160 1.264 . S
C161 C163 1.339 . S
C161 H188 0.931 . S
C162 C163 1.395 . S
C162 C164 1.320 . S
C163 C161 1.339 . S
C163 C162 1.395 . S
C163 H189 0.929 . S
C164 C162 1.320 . S
C164 C165 1.405 . S
C164 H190 0.930 . S
C165 C160 1.479 . S
C165 C164 1.405 . S
C165 H191 0.931 . S
U166 O167 2.454 . S
U166 O168 2.458 . S
U166 C169 2.984 . S
U166 C170 2.847 . S
U166 C183 2.882 . S
U166 O184 2.441 . S
U166 O185 2.420 . S
U166 O186 2.455 . S
U166 O187 2.449 . S
O167 U166 2.454 . S
O167 C169 1.353 . S
O168 U166 2.458 . S
O168 C169 1.286 . S
C169 U166 2.984 . S
C169 O167 1.353 . S
C169 O168 1.286 . S
C169 C171 1.363 . S
C170 C160 1.465 . S
C170 U166 2.847 . S
C170 O184 1.249 . S
C170 O185 1.202 . S
C171 C169 1.363 . S
C171 C173 1.408 . S
C171 C176 1.342 . S
C172 C173 1.310 . S
C172 C175 1.461 . S
C172 H192 0.932 . S
C173 C171 1.408 . S
C173 C172 1.310 . S
C173 H193 0.930 . S
C174 C175 1.474 . S
C174 C176 1.285 . S
C174 H194 0.929 . S
C175 C172 1.461 . S
C175 C174 1.474 . S
C176 C171 1.342 . S
C176 C174 1.285 . S
C176 H195 0.930 . S
C177 C180 1.424 . S
C177 C182 1.245 . S
C177 C183 1.428 . S
C178 C181 1.260 . S
C178 C182 1.477 . S
C178 H196 0.932 . S
C179 C180 1.384 . S
C179 C181 1.479 . S
C179 H197 0.929 . S
C180 C177 1.424 . S
C180 C179 1.384 . S
C180 H198 0.928 . S
C181 C178 1.260 . S
C181 C179 1.479 . S
C182 C177 1.245 . S
C182 C178 1.477 . S
C182 H199 0.932 . S
C183 U166 2.882 . S
C183 C177 1.428 . S
C183 O186 1.301 . S
C183 O187 1.282 . S
O184 U166 2.441 . S
O184 C170 1.249 . S
O185 U166 2.420 . S
O185 C170 1.202 . S
O186 U166 2.455 . S
O186 C183 1.301 . S
O187 U166 2.449 . S
O187 C183 1.282 . S
H188 C161 0.931 . S
H189 C163 0.929 . S
H190 C164 0.930 . S
H191 C165 0.931 . S
H192 C172 0.932 . S
H193 C173 0.930 . S
H194 C174 0.929 . S
H195 C176 0.930 . S
H196 C178 0.932 . S
H197 C179 0.929 . S
H198 C180 0.928 . S
H199 C182 0.932 . S
C200 C201 1.264 . S
C200 C205 1.479 . S
C200 C210 1.465 . S
C201 C200 1.264 . S
C201 C203 1.339 . S
C201 H228 0.931 . S
C202 C203 1.395 . S
C202 C204 1.320 . S
C203 C201 1.339 . S
C203 C202 1.395 . S
C203 H229 0.929 . S
C204 C202 1.320 . S
C204 C205 1.405 . S
C204 H230 0.930 . S
C205 C200 1.479 . S
C205 C204 1.405 . S
C205 H231 0.931 . S
U206 O207 2.454 . S
U206 O208 2.458 . S
U206 C209 2.984 . S
U206 C210 2.847 . S
U206 C223 2.882 . S
U206 O224 2.441 . S
U206 O225 2.420 . S
U206 O226 2.455 . S
U206 O227 2.449 . S
O207 U206 2.454 . S
O207 C209 1.353 . S
O208 U206 2.458 . S
O208 C209 1.286 . S
C209 U206 2.984 . S
C209 O207 1.353 . S
C209 O208 1.286 . S
C209 C211 1.363 . S
C210 C200 1.465 . S
C210 U206 2.847 . S
C210 O224 1.249 . S
C210 O225 1.202 . S
C211 C209 1.363 . S
C211 C213 1.408 . S
C211 C216 1.342 . S
C212 C213 1.310 . S
C212 C215 1.461 . S
C212 H232 0.932 . S
C213 C211 1.408 . S
C213 C212 1.310 . S
C213 H233 0.930 . S
C214 C215 1.474 . S
C214 C216 1.285 . S
C214 H234 0.929 . S
C215 C212 1.461 . S
C215 C214 1.474 . S
C216 C211 1.342 . S
C216 C214 1.285 . S
C216 H235 0.930 . S
C217 C220 1.424 . S
C217 C222 1.245 . S
C217 C223 1.428 . S
C218 C221 1.260 . S
C218 C222 1.477 . S
C218 H236 0.932 . S
C219 C220 1.384 . S
C219 C221 1.479 . S
C219 H237 0.929 . S
C220 C217 1.424 . S
C220 C219 1.384 . S
C220 H238 0.928 . S
C221 C218 1.260 . S
C221 C219 1.479 . S
C222 C217 1.245 . S
C222 C218 1.477 . S
C222 H239 0.932 . S
C223 U206 2.882 . S
C223 C217 1.428 . S
C223 O226 1.301 . S
C223 O227 1.282 . S
O224 U206 2.441 . S
O224 C210 1.249 . S
O225 U206 2.420 . S
O225 C210 1.202 . S
O226 U206 2.455 . S
O226 C223 1.301 . S
O227 U206 2.449 . S
O227 C223 1.282 . S
H228 C201 0.931 . S
H229 C203 0.929 . S
H230 C204 0.930 . S
H231 C205 0.931 . S
H232 C212 0.932 . S
H233 C213 0.930 . S
H234 C214 0.929 . S
H235 C216 0.930 . S
H236 C218 0.932 . S
H237 C219 0.929 . S
H238 C220 0.928 . S
H239 C222 0.932 . S
C240 C241 1.264 . S
C240 C245 1.479 . S
C240 C250 1.465 . S
C241 C240 1.264 . S
C241 C243 1.339 . S
C241 H268 0.931 . S
C242 C243 1.395 . S
C242 C244 1.320 . S
C243 C241 1.339 . S
C243 C242 1.395 . S
C243 H269 0.929 . S
C244 C242 1.320 . S
C244 C245 1.405 . S
C244 H270 0.930 . S
C245 C240 1.479 . S
C245 C244 1.405 . S
C245 H271 0.931 . S
U246 O247 2.454 . S
U246 O248 2.458 . S
U246 C249 2.984 . S
U246 C250 2.847 . S
U246 C263 2.882 . S
U246 O264 2.441 . S
U246 O265 2.420 . S
U246 O266 2.455 . S
U246 O267 2.449 . S
O247 U246 2.454 . S
O247 C249 1.353 . S
O248 U246 2.458 . S
O248 C249 1.286 . S
C249 U246 2.984 . S
C249 O247 1.353 . S
C249 O248 1.286 . S
C249 C251 1.363 . S
C250 C240 1.465 . S
C250 U246 2.847 . S
C250 O264 1.249 . S
C250 O265 1.202 . S
C251 C249 1.363 . S
C251 C253 1.408 . S
C251 C256 1.342 . S
C252 C253 1.310 . S
C252 C255 1.461 . S
C252 H272 0.932 . S
C253 C251 1.408 . S
C253 C252 1.310 . S
C253 H273 0.930 . S
C254 C255 1.474 . S
C254 C256 1.285 . S
C254 H274 0.929 . S
C255 C252 1.461 . S
C255 C254 1.474 . S
C256 C251 1.342 . S
C256 C254 1.285 . S
C256 H275 0.930 . S
C257 C260 1.424 . S
C257 C262 1.245 . S
C257 C263 1.428 . S
C258 C261 1.260 . S
C258 C262 1.477 . S
C258 H276 0.932 . S
C259 C260 1.384 . S
C259 C261 1.479 . S
C259 H277 0.929 . S
C260 C257 1.424 . S
C260 C259 1.384 . S
C260 H278 0.928 . S
C261 C258 1.260 . S
C261 C259 1.479 . S
C262 C257 1.245 . S
C262 C258 1.477 . S
C262 H279 0.932 . S
C263 U246 2.882 . S
C263 C257 1.428 . S
C263 O266 1.301 . S
C263 O267 1.282 . S
O264 U246 2.441 . S
O264 C250 1.249 . S
O265 U246 2.420 . S
O265 C250 1.202 . S
O266 U246 2.455 . S
O266 C263 1.301 . S
O267 U246 2.449 . S
O267 C263 1.282 . S
H268 C241 0.931 . S
H269 C243 0.929 . S
H270 C244 0.930 . S
H271 C245 0.931 . S
H272 C252 0.932 . S
H273 C253 0.930 . S
H274 C254 0.929 . S
H275 C256 0.930 . S
H276 C258 0.932 . S
H277 C259 0.929 . S
H278 C260 0.928 . S
H279 C262 0.932 . S
C280 C281 1.264 . S
C280 C285 1.479 . S
C280 C290 1.465 . S
C281 C280 1.264 . S
C281 C283 1.339 . S
C281 H308 0.931 . S
C282 C283 1.395 . S
C282 C284 1.320 . S
C283 C281 1.339 . S
C283 C282 1.395 . S
C283 H309 0.929 . S
C284 C282 1.320 . S
C284 C285 1.405 . S
C284 H310 0.930 . S
C285 C280 1.479 . S
C285 C284 1.405 . S
C285 H311 0.931 . S
U286 O287 2.424 1_556 S
U286 O288 2.496 . S
U286 C289 2.991 . S
U286 C290 2.777 1_556 S
U286 C303 2.948 . S
U286 O304 2.362 1_556 S
U286 O305 2.373 1_556 S
U286 O306 2.534 . S
U286 O307 2.491 . S
O287 U286 2.424 1_554 S
O287 C289 1.353 1_554 S
O288 U286 2.496 . S
O288 C289 1.286 . S
C289 U286 2.991 . S
C289 O287 1.353 1_556 S
C289 O288 1.286 . S
C289 C291 1.363 . S
C290 C280 1.465 . S
C290 U286 2.777 1_554 S
C290 O304 1.249 . S
C290 O305 1.202 . S
C291 C289 1.363 . S
C291 C293 1.408 1_556 S
C291 C296 1.342 . S
C292 C293 1.310 . S
C292 C295 1.461 1_554 S
C292 H312 0.932 . S
C293 C291 1.408 1_554 S
C293 C292 1.310 . S
C293 H313 0.930 . S
C294 C295 1.474 . S
C294 C296 1.285 . S
C294 H314 0.929 . S
C295 C292 1.461 1_556 S
C295 C294 1.474 . S
C296 C291 1.342 . S
C296 C294 1.285 . S
C296 H315 0.930 . S
C297 C300 1.424 . S
C297 C302 1.245 . S
C297 C303 1.428 . S
C298 C301 1.260 . S
C298 C302 1.477 . S
C298 H316 0.932 . S
C299 C300 1.384 . S
C299 C301 1.479 . S
C299 H317 0.929 . S
C300 C297 1.424 . S
C300 C299 1.384 . S
C300 H318 0.928 . S
C301 C298 1.260 . S
C301 C299 1.479 . S
C302 C297 1.245 . S
C302 C298 1.477 . S
C302 H319 0.932 . S
C303 U286 2.948 . S
C303 C297 1.428 . S
C303 O306 1.301 . S
C303 O307 1.282 . S
O304 U286 2.362 1_554 S
O304 C290 1.249 . S
O305 U286 2.373 1_554 S
O305 C290 1.202 . S
O306 U286 2.534 . S
O306 C303 1.301 . S
O307 U286 2.491 . S
O307 C303 1.282 . S
H308 C281 0.931 . S
H309 C283 0.929 . S
H310 C284 0.930 . S
H311 C285 0.931 . S
H312 C292 0.932 . S
H313 C293 0.930 . S
H314 C294 0.929 . S
H315 C296 0.930 . S
H316 C298 0.932 . S
H317 C299 0.929 . S
H318 C300 0.928 . S
H319 C302 0.932 . S
C320 C321 1.264 . S
C320 C325 1.479 . S
C320 C330 1.465 . S
C321 C320 1.264 . S
C321 C323 1.339 . S
C321 H348 0.931 . S
C322 C323 1.395 . S
C322 C324 1.320 . S
C323 C321 1.339 . S
C323 C322 1.395 . S
C323 H349 0.929 . S
C324 C322 1.320 . S
C324 C325 1.405 . S
C324 H350 0.930 . S
C325 C320 1.479 . S
C325 C324 1.405 . S
C325 H351 0.931 . S
U326 O327 2.454 . S
U326 O328 2.458 . S
U326 C329 2.984 . S
U326 C330 2.847 . S
U326 C343 2.882 . S
U326 O344 2.441 . S
U326 O345 2.420 . S
U326 O346 2.455 . S
U326 O347 2.449 . S
O327 U326 2.454 . S
O327 C329 1.353 . S
O328 U326 2.458 . S
O328 C329 1.286 . S
C329 U326 2.984 . S
C329 O327 1.353 . S
C329 O328 1.286 . S
C329 C331 1.363 1_545 S
C330 C320 1.465 . S
C330 U326 2.847 . S
C330 O344 1.249 . S
C330 O345 1.202 . S
C331 C329 1.363 1_565 S
C331 C333 1.408 . S
C331 C336 1.342 . S
C332 C333 1.310 . S
C332 C335 1.461 . S
C332 H352 0.932 . S
C333 C331 1.408 . S
C333 C332 1.310 . S
C333 H353 0.930 . S
C334 C335 1.474 . S
C334 C336 1.285 . S
C334 H354 0.929 . S
C335 C332 1.461 . S
C335 C334 1.474 . S
C336 C331 1.342 . S
C336 C334 1.285 . S
C336 H355 0.950 . S
C337 C340 1.424 . S
C337 C342 1.245 . S
C337 C343 1.428 . S
C338 C341 1.260 . S
C338 C342 1.477 . S
C338 H356 0.932 . S
C339 C340 1.384 . S
C339 C341 1.479 . S
C339 H357 0.929 . S
C340 C337 1.424 . S
C340 C339 1.384 . S
C340 H358 0.928 . S
C341 C338 1.260 . S
C341 C339 1.479 . S
C342 C337 1.245 . S
C342 C338 1.477 . S
C342 H359 0.932 . S
C343 U326 2.882 . S
C343 C337 1.428 . S
C343 O346 1.301 . S
C343 O347 1.282 . S
O344 U326 2.441 . S
O344 C330 1.249 . S
O345 U326 2.420 . S
O345 C330 1.202 . S
O346 U326 2.455 . S
O346 C343 1.301 . S
O347 U326 2.449 . S
O347 C343 1.282 . S
H348 C321 0.931 . S
H349 C323 0.929 . S
H350 C324 0.930 . S
H351 C325 0.931 . S
H352 C332 0.932 . S
H353 C333 0.930 . S
H354 C334 0.929 . S
H355 C336 0.950 . S
H356 C338 0.932 . S
H357 C339 0.929 . S
H358 C340 0.928 . S
H359 C342 0.932 . S
C360 C361 1.264 . S
C360 C365 1.479 . S
C360 C370 1.465 . S
C361 C360 1.264 . S
C361 C363 1.339 . S
C361 H388 0.931 . S
C362 C363 1.395 . S
C362 C364 1.320 . S
C363 C361 1.339 . S
C363 C362 1.395 . S
C363 H389 0.929 . S
C364 C362 1.320 . S
C364 C365 1.405 . S
C364 H390 0.930 . S
C365 C360 1.479 . S
C365 C364 1.405 . S
C365 H391 0.931 . S
U366 O367 2.454 . S
U366 O368 2.458 . S
U366 C369 2.984 . S
U366 C370 2.847 . S
U366 C383 2.882 . S
U366 O384 2.441 . S
U366 O385 2.420 . S
U366 O386 2.455 . S
U366 O387 2.449 . S
O367 U366 2.454 . S
O367 C369 1.353 . S
O368 U366 2.458 . S
O368 C369 1.286 . S
C369 U366 2.984 . S
C369 O367 1.353 . S
C369 O368 1.286 . S
C369 C371 1.363 . S
C370 C360 1.465 . S
C370 U366 2.847 . S
C370 O384 1.249 . S
C370 O385 1.202 . S
C371 C369 1.363 . S
C371 C373 1.408 . S
C371 C376 1.342 . S
C372 C373 1.310 . S
C372 C375 1.461 . S
C372 H392 0.932 . S
C373 C371 1.408 . S
C373 C372 1.310 . S
C373 H393 0.930 . S
C374 C375 1.474 . S
C374 C376 1.285 . S
C374 H394 0.929 . S
C375 C372 1.461 . S
C375 C374 1.474 . S
C376 C371 1.342 . S
C376 C374 1.285 . S
C376 H395 0.930 . S
C377 C380 1.424 . S
C377 C382 1.245 . S
C377 C383 1.428 . S
C378 C381 1.260 . S
C378 C382 1.477 . S
C378 H396 0.932 . S
C379 C380 1.384 . S
C379 C381 1.479 . S
C379 H397 0.929 . S
C380 C377 1.424 . S
C380 C379 1.384 . S
C380 H398 0.928 . S
C381 C378 1.260 . S
C381 C379 1.479 . S
C382 C377 1.245 . S
C382 C378 1.477 . S
C382 H399 0.932 . S
C383 U366 2.882 . S
C383 C377 1.428 . S
C383 O386 1.301 . S
C383 O387 1.282 . S
O384 U366 2.441 . S
O384 C370 1.249 . S
O385 U366 2.420 . S
O385 C370 1.202 . S
O386 U366 2.455 . S
O386 C383 1.301 . S
O387 U366 2.449 . S
O387 C383 1.282 . S
H388 C361 0.931 . S
H389 C363 0.929 . S
H390 C364 0.930 . S
H391 C365 0.931 . S
H392 C372 0.932 . S
H393 C373 0.930 . S
H394 C374 0.929 . S
H395 C376 0.930 . S
H396 C378 0.932 . S
H397 C379 0.929 . S
H398 C380 0.928 . S
H399 C382 0.932 . S
C400 C401 1.264 . S
C400 C405 1.479 . S
C400 C410 1.465 1_545 S
C401 C400 1.264 . S
C401 C403 1.339 . S
C401 H428 0.931 1_545 S
C402 C403 1.395 . S
C402 C404 1.320 . S
C403 C401 1.339 . S
C403 C402 1.395 . S
C403 H429 0.929 . S
C404 C402 1.320 . S
C404 C405 1.405 . S
C404 H430 0.930 . S
C405 C400 1.479 . S
C405 C404 1.405 . S
C405 H431 0.931 . S
U406 O407 2.454 . S
U406 O408 2.458 . S
U406 C409 2.984 . S
U406 C410 2.847 . S
U406 C423 2.882 . S
U406 O424 2.441 . S
U406 O425 2.420 . S
U406 O426 2.455 . S
U406 O427 2.449 . S
O407 U406 2.454 . S
O407 C409 1.353 . S
O408 U406 2.458 . S
O408 C409 1.286 . S
C409 U406 2.984 . S
C409 O407 1.353 . S
C409 O408 1.286 . S
C409 C411 1.363 . S
C410 C400 1.465 1_565 S
C410 U406 2.847 . S
C410 O424 1.249 . S
C410 O425 1.202 . S
C411 C409 1.363 . S
C411 C413 1.408 . S
C411 C416 1.342 . S
C412 C413 1.310 . S
C412 C415 1.461 . S
C412 H432 0.932 . S
C413 C411 1.408 . S
C413 C412 1.310 . S
C413 H433 0.930 . S
C414 C415 1.474 . S
C414 C416 1.285 . S
C414 H434 0.929 . S
C415 C412 1.461 . S
C415 C414 1.474 . S
C416 C411 1.342 . S
C416 C414 1.285 . S
C416 H435 0.930 . S
C417 C420 1.424 . S
C417 C422 1.245 . S
C417 C423 1.428 . S
C418 C421 1.260 . S
C418 C422 1.477 . S
C418 H436 0.932 . S
C419 C420 1.384 . S
C419 C421 1.479 . S
C419 H437 0.929 . S
C420 C417 1.424 . S
C420 C419 1.384 . S
C420 H438 0.928 . S
C421 C418 1.260 . S
C421 C419 1.479 . S
C422 C417 1.245 . S
C422 C418 1.477 . S
C422 H439 0.932 . S
C423 U406 2.882 . S
C423 C417 1.428 . S
C423 O426 1.301 . S
C423 O427 1.282 . S
O424 U406 2.441 . S
O424 C410 1.249 . S
O425 U406 2.420 . S
O425 C410 1.202 . S
O426 U406 2.455 . S
O426 C423 1.301 . S
O427 U406 2.449 . S
O427 C423 1.282 . S
H428 C401 0.931 1_565 S
H429 C403 0.929 . S
H430 C404 0.930 . S
H431 C405 0.931 . S
H432 C412 0.932 . S
H433 C413 0.930 . S
H434 C414 0.929 . S
H435 C416 0.930 . S
H436 C418 0.932 . S
H437 C419 0.929 . S
H438 C420 0.928 . S
H439 C422 0.932 . S
C440 C441 1.264 . S
C440 C445 1.479 . S
C440 C450 1.465 . S
C441 C440 1.264 . S
C441 C443 1.339 . S
C441 H468 0.931 . S
C442 C443 1.395 . S
C442 C444 1.320 . S
C443 C441 1.339 . S
C443 C442 1.395 . S
C443 H469 0.929 . S
C444 C442 1.320 . S
C444 C445 1.405 . S
C444 H470 0.930 . S
C445 C440 1.479 . S
C445 C444 1.405 . S
C445 H471 0.931 . S
U446 O447 2.454 . S
U446 O448 2.458 . S
U446 C449 2.984 . S
U446 C450 2.847 . S
U446 C463 2.882 . S
U446 O464 2.441 . S
U446 O465 2.420 . S
U446 O466 2.455 . S
U446 O467 2.449 . S
O447 U446 2.454 . S
O447 C449 1.353 . S
O448 U446 2.458 . S
O448 C449 1.286 . S
C449 U446 2.984 . S
C449 O447 1.353 . S
C449 O448 1.286 . S
C449 C451 1.363 . S
C450 C440 1.465 . S
C450 U446 2.847 . S
C450 O464 1.249 . S
C450 O465 1.202 . S
C451 C449 1.363 . S
C451 C453 1.408 . S
C451 C456 1.342 . S
C452 C453 1.310 . S
C452 C455 1.461 . S
C452 H472 0.932 . S
C453 C451 1.408 . S
C453 C452 1.310 . S
C453 H473 0.930 . S
C454 C455 1.474 . S
C454 C456 1.285 . S
C454 H474 0.929 . S
C455 C452 1.461 . S
C455 C454 1.474 . S
C456 C451 1.342 . S
C456 C454 1.285 . S
C456 H475 0.930 . S
C457 C460 1.424 . S
C457 C462 1.245 . S
C457 C463 1.428 . S
C458 C461 1.260 . S
C458 C462 1.477 . S
C458 H476 0.932 . S
C459 C460 1.384 . S
C459 C461 1.479 . S
C459 H477 0.929 . S
C460 C457 1.424 . S
C460 C459 1.384 . S
C460 H478 0.928 . S
C461 C458 1.260 . S
C461 C459 1.479 . S
C462 C457 1.245 . S
C462 C458 1.477 . S
C462 H479 0.932 . S
C463 U446 2.882 . S
C463 C457 1.428 . S
C463 O466 1.301 . S
C463 O467 1.282 . S
O464 U446 2.441 . S
O464 C450 1.249 . S
O465 U446 2.420 . S
O465 C450 1.202 . S
O466 U446 2.455 . S
O466 C463 1.301 . S
O467 U446 2.449 . S
O467 C463 1.282 . S
H468 C441 0.931 . S
H469 C443 0.929 . S
H470 C444 0.930 . S
H471 C445 0.931 . S
H472 C452 0.932 . S
H473 C453 0.930 . S
H474 C454 0.929 . S
H475 C456 0.930 . S
H476 C458 0.932 . S
H477 C459 0.929 . S
H478 C460 0.928 . S
H479 C462 0.932 . S
C480 C481 1.264 . S
C480 C485 1.479 . S
C480 C490 1.465 . S
C481 C480 1.264 . S
C481 C483 1.339 . S
C481 H508 0.931 . S
C482 C483 1.395 . S
C482 C484 1.320 . S
C483 C481 1.339 . S
C483 C482 1.395 . S
C483 H509 0.929 . S
C484 C482 1.320 . S
C484 C485 1.405 . S
C484 H510 0.930 . S
C485 C480 1.479 . S
C485 C484 1.405 . S
C485 H511 0.931 . S
U486 O487 2.454 1_554 S
U486 O488 2.458 1_554 S
U486 C489 2.984 1_554 S
U486 C490 2.847 . S
U486 C503 2.882 . S
U486 O504 2.441 . S
U486 O505 2.420 . S
U486 O506 2.455 . S
U486 O507 2.449 . S
O487 U486 2.454 1_556 S
O487 C489 1.353 . S
O488 U486 2.458 1_556 S
O488 C489 1.286 . S
C489 U486 2.984 1_556 S
C489 O487 1.353 . S
C489 O488 1.286 . S
C489 C491 1.363 . S
C490 C480 1.465 . S
C490 U486 2.847 . S
C490 O504 1.249 . S
C490 O505 1.202 . S
C491 C489 1.363 . S
C491 C493 1.408 . S
C491 C496 1.342 . S
C492 C493 1.310 . S
C492 C495 1.461 . S
C492 H512 0.932 . S
C493 C491 1.408 . S
C493 C492 1.310 . S
C493 H513 0.930 . S
C494 C495 1.474 . S
C494 C496 1.285 . S
C494 H514 0.929 . S
C495 C492 1.461 . S
C495 C494 1.474 . S
C496 C491 1.342 . S
C496 C494 1.285 . S
C496 H515 0.930 . S
C497 C500 1.424 . S
C497 C502 1.245 . S
C497 C503 1.428 . S
C498 C501 1.260 . S
C498 C502 1.477 . S
C498 H516 0.932 . S
C499 C500 1.384 . S
C499 C501 1.479 . S
C499 H517 0.929 . S
C500 C497 1.424 . S
C500 C499 1.384 . S
C500 H518 0.928 . S
C501 C498 1.260 . S
C501 C499 1.479 . S
C502 C497 1.245 . S
C502 C498 1.477 . S
C502 H519 0.932 . S
C503 U486 2.882 . S
C503 C497 1.428 . S
C503 O506 1.301 . S
C503 O507 1.282 . S
O504 U486 2.441 . S
O504 C490 1.249 . S
O505 U486 2.420 . S
O505 C490 1.202 . S
O506 U486 2.455 . S
O506 C503 1.301 . S
O507 U486 2.449 . S
O507 C503 1.282 . S
H508 C481 0.931 . S
H509 C483 0.929 . S
H510 C484 0.930 . S
H511 C485 0.931 . S
H512 C492 0.932 . S
H513 C493 0.930 . S
H514 C494 0.929 . S
H515 C496 0.930 . S
H516 C498 0.932 . S
H517 C499 0.929 . S
H518 C500 0.928 . S
H519 C502 0.932 . S
C520 C521 1.264 . S
C520 C525 1.479 . S
C520 C530 1.465 . S
C521 C520 1.264 . S
C521 C523 1.339 . S
C521 H548 0.931 . S
C522 C523 1.395 . S
C522 C524 1.320 . S
C523 C521 1.339 . S
C523 C522 1.395 . S
C523 H549 0.929 . S
C524 C522 1.320 . S
C524 C525 1.405 . S
C524 H550 0.930 . S
C525 C520 1.479 . S
C525 C524 1.405 . S
C525 H551 0.931 . S
U526 O527 2.454 . S
U526 O528 2.458 . S
U526 C529 2.984 . S
U526 C530 2.847 . S
U526 C543 2.882 . S
U526 O544 2.441 . S
U526 O545 2.420 . S
U526 O546 2.455 . S
U526 O547 2.449 . S
O527 U526 2.454 . S
O527 C529 1.353 . S
O528 U526 2.458 . S
O528 C529 1.286 . S
C529 U526 2.984 . S
C529 O527 1.353 . S
C529 O528 1.286 . S
C529 C531 1.363 . S
C530 C520 1.465 . S
C530 U526 2.847 . S
C530 O544 1.249 . S
C530 O545 1.202 . S
C531 C529 1.363 . S
C531 C533 1.408 . S
C531 C536 1.342 . S
C532 C533 1.310 . S
C532 C535 1.461 . S
C532 H552 0.932 . S
C533 C531 1.408 . S
C533 C532 1.310 . S
C533 H553 0.930 . S
C534 C535 1.474 . S
C534 C536 1.285 . S
C534 H554 0.929 . S
C535 C532 1.461 . S
C535 C534 1.474 . S
C536 C531 1.342 . S
C536 C534 1.285 . S
C536 H555 0.930 . S
C537 C540 1.424 . S
C537 C542 1.245 . S
C537 C543 1.428 . S
C538 C541 1.260 . S
C538 C542 1.477 . S
C538 H556 0.932 . S
C539 C540 1.384 . S
C539 C541 1.479 . S
C539 H557 0.929 . S
C540 C537 1.424 . S
C540 C539 1.384 . S
C540 H558 0.928 . S
C541 C538 1.260 . S
C541 C539 1.479 . S
C542 C537 1.245 . S
C542 C538 1.477 . S
C542 H559 0.932 . S
C543 U526 2.882 . S
C543 C537 1.428 . S
C543 O546 1.301 . S
C543 O547 1.282 . S
O544 U526 2.441 . S
O544 C530 1.249 . S
O545 U526 2.420 . S
O545 C530 1.202 . S
O546 U526 2.455 . S
O546 C543 1.301 . S
O547 U526 2.449 . S
O547 C543 1.282 . S
H548 C521 0.931 . S
H549 C523 0.929 . S
H550 C524 0.930 . S
H551 C525 0.931 . S
H552 C532 0.932 . S
H553 C533 0.930 . S
H554 C534 0.929 . S
H555 C536 0.930 . S
H556 C538 0.932 . S
H557 C539 0.929 . S
H558 C540 0.928 . S
H559 C542 0.932 . S
C560 C561 1.264 . S
C560 C565 1.479 . S
C560 C570 1.465 . S
C561 C560 1.264 . S
C561 C563 1.339 . S
C561 H588 0.931 . S
C562 C563 1.395 . S
C562 C564 1.320 . S
C563 C561 1.339 . S
C563 C562 1.395 . S
C563 H589 0.929 . S
C564 C562 1.320 . S
C564 C565 1.405 . S
C564 H590 0.930 . S
C565 C560 1.479 . S
C565 C564 1.405 . S
C565 H591 0.931 . S
U566 O567 2.454 . S
U566 O568 2.458 . S
U566 C569 2.984 . S
U566 C570 2.847 . S
U566 C583 2.882 . S
U566 O584 2.441 . S
U566 O585 2.420 . S
U566 O586 2.455 . S
U566 O587 2.449 . S
O567 U566 2.454 . S
O567 C569 1.353 . S
O568 U566 2.458 . S
O568 C569 1.286 . S
C569 U566 2.984 . S
C569 O567 1.353 . S
C569 O568 1.286 . S
C569 C571 1.363 . S
C570 C560 1.465 . S
C570 U566 2.847 . S
C570 O584 1.249 . S
C570 O585 1.202 . S
C571 C569 1.363 . S
C571 C573 1.408 . S
C571 C576 1.342 . S
C572 C573 1.310 . S
C572 C575 1.461 . S
C572 H592 0.932 . S
C573 C571 1.408 . S
C573 C572 1.310 . S
C573 H593 0.930 . S
C574 C575 1.474 . S
C574 C576 1.285 . S
C574 H594 0.929 . S
C575 C572 1.461 . S
C575 C574 1.474 . S
C576 C571 1.342 . S
C576 C574 1.285 . S
C576 H595 0.930 . S
C577 C580 1.424 . S
C577 C582 1.245 . S
C577 C583 1.428 . S
C578 C581 1.260 . S
C578 C582 1.477 . S
C578 H596 0.932 . S
C579 C580 1.384 . S
C579 C581 1.479 . S
C579 H597 0.929 . S
C580 C577 1.424 . S
C580 C579 1.384 . S
C580 H598 0.928 . S
C581 C578 1.260 . S
C581 C579 1.479 . S
C582 C577 1.245 . S
C582 C578 1.477 . S
C582 H599 0.932 . S
C583 U566 2.882 . S
C583 C577 1.428 . S
C583 O586 1.301 . S
C583 O587 1.282 . S
O584 U566 2.441 . S
O584 C570 1.249 . S
O585 U566 2.420 . S
O585 C570 1.202 . S
O586 U566 2.455 . S
O586 C583 1.301 . S
O587 U566 2.449 . S
O587 C583 1.282 . S
H588 C561 0.931 . S
H589 C563 0.929 . S
H590 C564 0.930 . S
H591 C565 0.931 . S
H592 C572 0.932 . S
H593 C573 0.930 . S
H594 C574 0.929 . S
H595 C576 0.930 . S
H596 C578 0.932 . S
H597 C579 0.929 . S
H598 C580 0.928 . S
H599 C582 0.932 . S
C600 C601 1.264 . S
C600 C605 1.479 . S
C600 C610 1.465 . S
C601 C600 1.264 . S
C601 C603 1.339 . S
C601 H628 0.931 . S
C602 C603 1.395 . S
C602 C604 1.320 . S
C603 C601 1.339 . S
C603 C602 1.395 . S
C603 H629 0.929 . S
C604 C602 1.320 . S
C604 C605 1.405 . S
C604 H630 0.930 . S
C605 C600 1.479 . S
C605 C604 1.405 . S
C605 H631 0.931 . S
U606 O607 2.454 . S
U606 O608 2.458 . S
U606 C609 2.984 . S
U606 C610 2.847 . S
U606 C623 2.882 . S
U606 O624 2.441 . S
U606 O625 2.420 . S
U606 O626 2.455 . S
U606 O627 2.449 . S
O607 U606 2.454 . S
O607 C609 1.353 . S
O608 U606 2.458 . S
O608 C609 1.286 . S
C609 U606 2.984 . S
C609 O607 1.353 . S
C609 O608 1.286 . S
C609 C611 1.363 1_655 S
C610 C600 1.465 . S
C610 U606 2.847 . S
C610 O624 1.249 . S
C610 O625 1.202 . S
C611 C609 1.363 1_455 S
C611 C613 1.408 . S
C611 C616 1.342 . S
C612 C613 1.310 . S
C612 C615 1.461 . S
C612 H632 0.932 . S
C613 C611 1.408 . S
C613 C612 1.310 . S
C613 H633 0.930 . S
C614 C615 1.474 . S
C614 C616 1.285 . S
C614 H634 0.929 . S
C615 C612 1.461 . S
C615 C614 1.474 . S
C616 C611 1.342 . S
C616 C614 1.285 . S
C616 H635 0.930 1_455 S
C617 C620 1.424 . S
C617 C622 1.245 . S
C617 C623 1.428 . S
C618 C621 1.260 . S
C618 C622 1.477 . S
C618 H636 0.932 . S
C619 C620 1.384 . S
C619 C621 1.479 . S
C619 H637 0.929 . S
C620 C617 1.424 . S
C620 C619 1.384 . S
C620 H638 0.928 . S
C621 C618 1.260 . S
C621 C619 1.479 . S
C622 C617 1.245 . S
C622 C618 1.477 . S
C622 H639 0.932 . S
C623 U606 2.882 . S
C623 C617 1.428 . S
C623 O626 1.301 . S
C623 O627 1.282 . S
O624 U606 2.441 . S
O624 C610 1.249 . S
O625 U606 2.420 . S
O625 C610 1.202 . S
O626 U606 2.455 . S
O626 C623 1.301 . S
O627 U606 2.449 . S
O627 C623 1.282 . S
H628 C601 0.931 . S
H629 C603 0.929 . S
H630 C604 0.930 . S
H631 C605 0.931 . S
H632 C612 0.932 . S
H633 C613 0.930 . S
H634 C614 0.929 . S
H635 C616 0.930 1_655 S
H636 C618 0.932 . S
H637 C619 0.929 . S
H638 C620 0.928 . S
H639 C622 0.932 . S
C640 C641 1.264 . S
C640 C645 1.479 . S
C640 C650 1.465 . S
C641 C640 1.264 . S
C641 C643 1.339 . S
C641 H668 0.931 . S
C642 C643 1.395 . S
C642 C644 1.320 . S
C643 C641 1.339 . S
C643 C642 1.395 . S
C643 H669 0.929 . S
C644 C642 1.320 . S
C644 C645 1.405 . S
C644 H670 0.930 . S
C645 C640 1.479 . S
C645 C644 1.405 . S
C645 H671 0.931 . S
U646 O647 2.454 . S
U646 O648 2.458 . S
U646 C649 2.984 . S
U646 C650 2.847 . S
U646 C663 2.882 . S
U646 O664 2.441 . S
U646 O665 2.420 . S
U646 O666 2.455 . S
U646 O667 2.449 . S
O647 U646 2.454 . S
O647 C649 1.353 . S
O648 U646 2.458 . S
O648 C649 1.286 . S
C649 U646 2.984 . S
C649 O647 1.353 . S
C649 O648 1.286 . S
C649 C651 1.363 . S
C650 C640 1.465 . S
C650 U646 2.847 . S
C650 O664 1.249 . S
C650 O665 1.202 . S
C651 C649 1.363 . S
C651 C653 1.408 . S
C651 C656 1.342 . S
C652 C653 1.310 . S
C652 C655 1.461 . S
C652 H672 0.932 . S
C653 C651 1.408 . S
C653 C652 1.310 . S
C653 H673 0.930 . S
C654 C655 1.474 . S
C654 C656 1.285 . S
C654 H674 0.929 . S
C655 C652 1.461 . S
C655 C654 1.474 . S
C656 C651 1.342 . S
C656 C654 1.285 . S
C656 H675 0.930 . S
C657 C660 1.424 . S
C657 C662 1.245 . S
C657 C663 1.428 . S
C658 C661 1.260 . S
C658 C662 1.477 . S
C658 H676 0.932 . S
C659 C660 1.384 . S
C659 C661 1.479 . S
C659 H677 0.929 . S
C660 C657 1.424 . S
C660 C659 1.384 . S
C660 H678 0.928 . S
C661 C658 1.260 . S
C661 C659 1.479 . S
C662 C657 1.245 . S
C662 C658 1.477 . S
C662 H679 0.932 . S
C663 U646 2.882 . S
C663 C657 1.428 . S
C663 O666 1.301 . S
C663 O667 1.282 . S
O664 U646 2.441 . S
O664 C650 1.249 . S
O665 U646 2.420 . S
O665 C650 1.202 . S
O666 U646 2.455 . S
O666 C663 1.301 . S
O667 U646 2.449 . S
O667 C663 1.282 . S
H668 C641 0.931 . S
H669 C643 0.929 . S
H670 C644 0.930 . S
H671 C645 0.931 . S
H672 C652 0.932 . S
H673 C653 0.930 . S
H674 C654 0.929 . S
H675 C656 0.930 . S
H676 C658 0.932 . S
H677 C659 0.929 . S
H678 C660 0.928 . S
H679 C662 0.932 . S
C680 C681 1.264 . S
C680 C685 1.479 . S
C680 C690 1.465 . S
C681 C680 1.264 . S
C681 C683 1.339 . S
C681 H708 0.931 . S
C682 C683 1.395 . S
C682 C684 1.320 . S
C683 C681 1.339 . S
C683 C682 1.395 . S
C683 H709 0.929 . S
C684 C682 1.320 . S
C684 C685 1.405 . S
C684 H710 0.930 . S
C685 C680 1.479 . S
C685 C684 1.405 . S
C685 H711 0.931 . S
U686 O687 2.454 . S
U686 O688 2.458 . S
U686 C689 2.984 . S
U686 C690 2.847 . S
U686 C703 2.882 . S
U686 O704 2.441 . S
U686 O705 2.420 . S
U686 O706 2.455 . S
U686 O707 2.449 . S
O687 U686 2.454 . S
O687 C689 1.353 . S
O688 U686 2.458 . S
O688 C689 1.286 . S
C689 U686 2.984 . S
C689 O687 1.353 . S
C689 O688 1.286 . S
C689 C691 1.363 . S
C690 C680 1.465 . S
C690 U686 2.847 . S
C690 O704 1.249 . S
C690 O705 1.202 . S
C691 C689 1.363 . S
C691 C693 1.408 . S
C691 C696 1.342 . S
C692 C693 1.310 . S
C692 C695 1.461 . S
C692 H712 0.932 . S
C693 C691 1.408 . S
C693 C692 1.310 . S
C693 H713 0.930 . S
C694 C695 1.474 . S
C694 C696 1.285 . S
C694 H714 0.929 . S
C695 C692 1.461 . S
C695 C694 1.474 . S
C696 C691 1.342 . S
C696 C694 1.285 . S
C696 H715 0.930 . S
C697 C700 1.424 . S
C697 C702 1.245 . S
C697 C703 1.428 . S
C698 C701 1.260 . S
C698 C702 1.477 . S
C698 H716 0.932 . S
C699 C700 1.384 . S
C699 C701 1.479 . S
C699 H717 0.929 . S
C700 C697 1.424 . S
C700 C699 1.384 . S
C700 H718 0.928 . S
C701 C698 1.260 . S
C701 C699 1.479 . S
C702 C697 1.245 . S
C702 C698 1.477 . S
C702 H719 0.932 . S
C703 U686 2.882 . S
C703 C697 1.428 . S
C703 O706 1.301 . S
C703 O707 1.282 . S
O704 U686 2.441 . S
O704 C690 1.249 . S
O705 U686 2.420 . S
O705 C690 1.202 . S
O706 U686 2.455 . S
O706 C703 1.301 . S
O707 U686 2.449 . S
O707 C703 1.282 . S
H708 C681 0.931 . S
H709 C683 0.929 . S
H710 C684 0.930 . S
H711 C685 0.931 . S
H712 C692 0.932 . S
H713 C693 0.930 . S
H714 C694 0.929 . S
H715 C696 0.930 . S
H716 C698 0.932 . S
H717 C699 0.929 . S
H718 C700 0.928 . S
H719 C702 0.932 . S
C720 C721 1.264 . S
C720 C725 1.479 . S
C720 C730 1.465 . S
C721 C720 1.264 . S
C721 C723 1.339 . S
C721 H748 0.931 . S
C722 C723 1.395 . S
C722 C724 1.320 . S
C723 C721 1.339 . S
C723 C722 1.395 . S
C723 H749 0.929 . S
C724 C722 1.320 . S
C724 C725 1.405 . S
C724 H750 0.930 . S
C725 C720 1.479 . S
C725 C724 1.405 . S
C725 H751 0.931 . S
U726 O727 2.440 1_556 S
U726 O728 2.445 1_556 S
U726 C729 2.970 1_556 S
U726 C730 2.854 . S
U726 C743 2.890 . S
U726 O744 2.441 . S
U726 O745 2.432 . S
U726 O746 2.457 . S
U726 O747 2.462 . S
O727 U726 2.440 1_554 S
O727 C729 1.353 . S
O728 U726 2.445 1_554 S
O728 C729 1.286 . S
C729 U726 2.970 1_554 S
C729 O727 1.353 . S
C729 O728 1.286 . S
C729 C731 1.363 . S
C730 C720 1.465 . S
C730 U726 2.854 . S
C730 O744 1.314 . S
C730 O745 1.202 . S
C731 C729 1.363 . S
C731 C733 1.408 . S
C731 C736 1.342 . S
C732 C733 1.310 . S
C732 C735 1.461 . S
C732 H752 0.932 . S
C733 C731 1.408 . S
C733 C732 1.310 . S
C733 H753 0.930 . S
C734 C735 1.474 . S
C734 C736 1.285 . S
C734 H754 0.929 . S
C735 C732 1.461 . S
C735 C734 1.474 . S
C736 C731 1.342 . S
C736 C734 1.285 . S
C736 H755 0.930 . S
C737 C740 1.424 . S
C737 C742 1.245 . S
C737 C743 1.428 . S
C738 C741 1.260 . S
C738 C742 1.477 . S
C738 H756 0.932 . S
C739 C740 1.384 . S
C739 C741 1.479 . S
C739 H757 0.929 . S
C740 C737 1.424 . S
C740 C739 1.384 . S
C740 H758 0.928 . S
C741 C738 1.260 . S
C741 C739 1.479 . S
C742 C737 1.245 . S
C742 C738 1.477 . S
C742 H759 0.932 . S
C743 U726 2.890 . S
C743 C737 1.428 . S
C743 O746 1.301 . S
C743 O747 1.282 . S
O744 U726 2.441 . S
O744 C730 1.314 . S
O745 U726 2.432 . S
O745 C730 1.202 . S
O746 U726 2.457 . S
O746 C743 1.301 . S
O747 U726 2.462 . S
O747 C743 1.282 . S
H748 C721 0.931 . S
H749 C723 0.929 . S
H750 C724 0.930 . S
H751 C725 0.931 . S
H752 C732 0.932 . S
H753 C733 0.930 . S
H754 C734 0.929 . S
H755 C736 0.930 . S
H756 C738 0.932 . S
H757 C739 0.929 . S
H758 C740 0.928 . S
H759 C742 0.932 . S
C760 C761 1.264 . S
C760 C765 1.479 . S
C760 C770 1.465 . S
C761 C760 1.264 . S
C761 C763 1.339 . S
C761 H788 0.931 . S
C762 C763 1.395 . S
C762 C764 1.320 . S
C763 C761 1.339 . S
C763 C762 1.395 . S
C763 H789 0.929 . S
C764 C762 1.320 . S
C764 C765 1.405 . S
C764 H790 0.930 . S
C765 C760 1.479 . S
C765 C764 1.405 . S
C765 H791 0.931 . S
U766 O767 2.454 . S
U766 O768 2.458 . S
U766 C769 2.984 . S
U766 C770 2.847 . S
U766 C783 2.882 . S
U766 O784 2.441 . S
U766 O785 2.420 . S
U766 O786 2.455 . S
U766 O787 2.449 . S
O767 U766 2.454 . S
O767 C769 1.353 . S
O768 U766 2.458 . S
O768 C769 1.286 . S
C769 U766 2.984 . S
C769 O767 1.353 . S
C769 O768 1.286 . S
C769 C771 1.363 . S
C770 C760 1.465 . S
C770 U766 2.847 . S
C770 O784 1.249 . S
C770 O785 1.202 . S
C771 C769 1.363 . S
C771 C773 1.408 . S
C771 C776 1.342 . S
C772 C773 1.310 . S
C772 C775 1.461 . S
C772 H792 0.932 . S
C773 C771 1.408 . S
C773 C772 1.310 . S
C773 H793 0.930 . S
C774 C775 1.474 . S
C774 C776 1.285 . S
C774 H794 0.929 . S
C775 C772 1.461 . S
C775 C774 1.474 . S
C776 C771 1.342 . S
C776 C774 1.285 . S
C776 H795 0.930 . S
C777 C780 1.424 . S
C777 C782 1.245 . S
C777 C783 1.428 . S
C778 C781 1.260 . S
C778 C782 1.477 . S
C778 H796 0.932 . S
C779 C780 1.384 . S
C779 C781 1.479 . S
C779 H797 0.929 . S
C780 C777 1.424 . S
C780 C779 1.384 . S
C780 H798 0.928 . S
C781 C778 1.260 . S
C781 C779 1.479 . S
C782 C777 1.245 . S
C782 C778 1.477 . S
C782 H799 0.932 . S
C783 U766 2.882 . S
C783 C777 1.428 . S
C783 O786 1.301 . S
C783 O787 1.282 . S
O784 U766 2.441 . S
O784 C770 1.249 . S
O785 U766 2.420 . S
O785 C770 1.202 . S
O786 U766 2.455 . S
O786 C783 1.301 . S
O787 U766 2.449 . S
O787 C783 1.282 . S
H788 C761 0.931 . S
H789 C763 0.929 . S
H790 C764 0.930 . S
H791 C765 0.931 . S
H792 C772 0.932 . S
H793 C773 0.930 . S
H794 C774 0.929 . S
H795 C776 0.930 . S
H796 C778 0.932 . S
H797 C779 0.929 . S
H798 C780 0.928 . S
H799 C782 0.932 . S
C800 C801 1.264 . S
C800 C805 1.479 . S
C800 C810 1.465 . S
C801 C800 1.264 . S
C801 C803 1.339 . S
C801 H828 0.931 . S
C802 C803 1.395 . S
C802 C804 1.320 . S
C803 C801 1.339 . S
C803 C802 1.395 . S
C803 H829 0.929 . S
C804 C802 1.320 . S
C804 C805 1.405 . S
C804 H830 0.930 . S
C805 C800 1.479 . S
C805 C804 1.405 . S
C805 H831 0.931 . S
U806 O807 2.454 . S
U806 O808 2.458 . S
U806 C809 2.984 . S
U806 C810 2.847 . S
U806 C823 2.882 . S
U806 O824 2.441 . S
U806 O825 2.420 . S
U806 O826 2.455 . S
U806 O827 2.449 . S
O807 U806 2.454 . S
O807 C809 1.353 . S
O808 U806 2.458 . S
O808 C809 1.286 . S
C809 U806 2.984 . S
C809 O807 1.353 . S
C809 O808 1.286 . S
C809 C811 1.363 . S
C810 C800 1.465 . S
C810 U806 2.847 . S
C810 O824 1.249 . S
C810 O825 1.202 . S
C811 C809 1.363 . S
C811 C813 1.408 . S
C811 C816 1.342 . S
C812 C813 1.310 . S
C812 C815 1.461 . S
C812 H832 0.932 . S
C813 C811 1.408 . S
C813 C812 1.310 . S
C813 H833 0.930 . S
C814 C815 1.474 . S
C814 C816 1.285 . S
C814 H834 0.929 . S
C815 C812 1.461 . S
C815 C814 1.474 . S
C816 C811 1.342 . S
C816 C814 1.285 . S
C816 H835 0.930 . S
C817 C820 1.424 . S
C817 C822 1.245 . S
C817 C823 1.428 . S
C818 C821 1.260 . S
C818 C822 1.477 . S
C818 H836 0.932 . S
C819 C820 1.384 . S
C819 C821 1.479 . S
C819 H837 0.929 . S
C820 C817 1.424 . S
C820 C819 1.384 . S
C820 H838 0.928 . S
C821 C818 1.260 . S
C821 C819 1.479 . S
C822 C817 1.245 . S
C822 C818 1.477 . S
C822 H839 0.932 . S
C823 U806 2.882 . S
C823 C817 1.428 . S
C823 O826 1.301 . S
C823 O827 1.282 . S
O824 U806 2.441 . S
O824 C810 1.249 . S
O825 U806 2.420 . S
O825 C810 1.202 . S
O826 U806 2.455 . S
O826 C823 1.301 . S
O827 U806 2.449 . S
O827 C823 1.282 . S
H828 C801 0.931 . S
H829 C803 0.929 . S
H830 C804 0.930 . S
H831 C805 0.931 . S
H832 C812 0.932 . S
H833 C813 0.930 . S
H834 C814 0.929 . S
H835 C816 0.930 . S
H836 C818 0.932 . S
H837 C819 0.929 . S
H838 C820 0.928 . S
H839 C822 0.932 . S
C840 C841 1.264 . S
C840 C845 1.479 . S
C840 C850 1.465 . S
C841 C840 1.264 . S
C841 C843 1.339 . S
C841 H868 0.931 . S
C842 C843 1.395 . S
C842 C844 1.320 . S
C843 C841 1.339 . S
C843 C842 1.395 . S
C843 H869 0.929 . S
C844 C842 1.320 . S
C844 C845 1.405 . S
C844 H870 0.930 . S
C845 C840 1.479 . S
C845 C844 1.405 . S
C845 H871 0.931 . S
U846 O847 2.454 . S
U846 O848 2.458 . S
U846 C849 2.984 . S
U846 C850 2.847 . S
U846 C863 2.882 . S
U846 O864 2.441 . S
U846 O865 2.420 . S
U846 O866 2.455 . S
U846 O867 2.449 . S
O847 U846 2.454 . S
O847 C849 1.353 . S
O848 U846 2.458 . S
O848 C849 1.286 . S
C849 U846 2.984 . S
C849 O847 1.353 . S
C849 O848 1.286 . S
C849 C851 1.363 . S
C850 C840 1.465 . S
C850 U846 2.847 . S
C850 O864 1.249 . S
C850 O865 1.202 . S
C851 C849 1.363 . S
C851 C853 1.408 . S
C851 C856 1.342 . S
C852 C853 1.310 . S
C852 C855 1.461 . S
C852 H872 0.932 . S
C853 C851 1.408 . S
C853 C852 1.310 . S
C853 H873 0.930 . S
C854 C855 1.474 . S
C854 C856 1.285 . S
C854 H874 0.929 . S
C855 C852 1.461 . S
C855 C854 1.474 . S
C856 C851 1.342 . S
C856 C854 1.285 . S
C856 H875 0.930 . S
C857 C860 1.424 . S
C857 C862 1.245 . S
C857 C863 1.428 . S
C858 C861 1.260 . S
C858 C862 1.477 . S
C858 H876 0.932 . S
C859 C860 1.384 . S
C859 C861 1.479 . S
C859 H877 0.929 . S
C860 C857 1.424 . S
C860 C859 1.384 . S
C860 H878 0.928 . S
C861 C858 1.260 . S
C861 C859 1.479 . S
C862 C857 1.245 . S
C862 C858 1.477 . S
C862 H879 0.932 . S
C863 U846 2.882 . S
C863 C857 1.428 . S
C863 O866 1.301 . S
C863 O867 1.282 . S
O864 U846 2.441 . S
O864 C850 1.249 . S
O865 U846 2.420 . S
O865 C850 1.202 . S
O866 U846 2.455 . S
O866 C863 1.301 . S
O867 U846 2.449 . S
O867 C863 1.282 . S
H868 C841 0.931 . S
H869 C843 0.929 . S
H870 C844 0.930 . S
H871 C845 0.931 . S
H872 C852 0.932 . S
H873 C853 0.930 . S
H874 C854 0.929 . S
H875 C856 0.930 . S
H876 C858 0.932 . S
H877 C859 0.929 . S
H878 C860 0.928 . S
H879 C862 0.932 . S
C880 C881 1.264 . S
C880 C885 1.479 . S
C880 C890 1.465 . S
C881 C880 1.264 . S
C881 C883 1.339 . S
C881 H908 0.931 . S
C882 C883 1.395 . S
C882 C884 1.320 . S
C883 C881 1.339 . S
C883 C882 1.395 . S
C883 H909 0.929 . S
C884 C882 1.320 . S
C884 C885 1.405 . S
C884 H910 0.930 . S
C885 C880 1.479 . S
C885 C884 1.405 . S
C885 H911 0.931 . S
U886 O887 2.454 . S
U886 O888 2.458 1_556 S
U886 C889 2.984 1_556 S
U886 C890 2.847 . S
U886 C903 2.882 1_556 S
U886 O904 2.441 . S
U886 O905 2.420 . S
U886 O906 2.455 1_556 S
U886 O907 2.449 1_556 S
O887 U886 2.454 . S
O887 C889 1.353 1_556 S
O888 U886 2.458 1_554 S
O888 C889 1.286 . S
C889 U886 2.984 1_554 S
C889 O887 1.353 1_554 S
C889 O888 1.286 . S
C889 C891 1.363 . S
C890 C880 1.465 . S
C890 U886 2.847 . S
C890 O904 1.249 . S
C890 O905 1.202 . S
C891 C889 1.363 . S
C891 C893 1.408 1_554 S
C891 C896 1.342 . S
C892 C893 1.310 . S
C892 C895 1.461 1_556 S
C892 H912 0.932 . S
C893 C891 1.408 1_556 S
C893 C892 1.310 . S
C893 H913 0.930 . S
C894 C895 1.474 . S
C894 C896 1.285 . S
C894 H914 0.929 . S
C895 C892 1.461 1_554 S
C895 C894 1.474 . S
C896 C891 1.342 . S
C896 C894 1.285 . S
C896 H915 0.930 . S
C897 C900 1.424 . S
C897 C902 1.245 . S
C897 C903 1.428 . S
C898 C901 1.260 . S
C898 C902 1.477 . S
C898 H916 0.932 . S
C899 C900 1.384 . S
C899 C901 1.479 . S
C899 H917 0.929 . S
C900 C897 1.424 . S
C900 C899 1.384 . S
C900 H918 0.928 . S
C901 C898 1.260 . S
C901 C899 1.479 . S
C902 C897 1.245 . S
C902 C898 1.477 . S
C902 H919 0.932 . S
C903 U886 2.882 1_554 S
C903 C897 1.428 . S
C903 O906 1.301 . S
C903 O907 1.282 . S
O904 U886 2.441 . S
O904 C890 1.249 . S
O905 U886 2.420 . S
O905 C890 1.202 . S
O906 U886 2.455 1_554 S
O906 C903 1.301 . S
O907 U886 2.449 1_554 S
O907 C903 1.282 . S
H908 C881 0.931 . S
H909 C883 0.929 . S
H910 C884 0.930 . S
H911 C885 0.931 . S
H912 C892 0.932 . S
H913 C893 0.930 . S
H914 C894 0.929 . S
H915 C896 0.930 . S
H916 C898 0.932 . S
H917 C899 0.929 . S
H918 C900 0.928 . S
H919 C902 0.932 . S
C920 C921 1.264 . S
C920 C925 1.479 . S
C920 C930 1.465 . S
C921 C920 1.264 . S
C921 C923 1.339 . S
C921 H948 0.931 . S
C922 C923 1.395 . S
C922 C924 1.320 . S
C923 C921 1.339 . S
C923 C922 1.395 . S
C923 H949 0.929 . S
C924 C922 1.320 . S
C924 C925 1.405 . S
C924 H950 0.930 . S
C925 C920 1.479 . S
C925 C924 1.405 . S
C925 H951 0.931 . S
U926 O927 2.454 . S
U926 O928 2.458 . S
U926 C929 2.984 . S
U926 C930 2.847 . S
U926 C943 2.882 . S
U926 O944 2.441 . S
U926 O945 2.420 . S
U926 O946 2.455 . S
U926 O947 2.449 . S
O927 U926 2.454 . S
O927 C929 1.353 . S
O928 U926 2.458 . S
O928 C929 1.286 . S
C929 U926 2.984 . S
C929 O927 1.353 . S
C929 O928 1.286 . S
C929 C931 1.363 . S
C930 C920 1.465 . S
C930 U926 2.847 . S
C930 O944 1.249 . S
C930 O945 1.202 . S
C931 C929 1.363 . S
C931 C933 1.408 1_565 S
C931 C936 1.342 . S
C932 C933 1.310 . S
C932 C935 1.461 . S
C932 H952 0.932 . S
C933 C931 1.408 1_545 S
C933 C932 1.310 . S
C933 H953 0.930 . S
C934 C935 1.474 . S
C934 C936 1.285 1_545 S
C934 H954 0.929 . S
C935 C932 1.461 . S
C935 C934 1.474 . S
C936 C931 1.342 . S
C936 C934 1.285 1_565 S
C936 H955 0.930 . S
C937 C940 1.424 . S
C937 C942 1.245 . S
C937 C943 1.428 . S
C938 C941 1.260 . S
C938 C942 1.477 . S
C938 H956 0.932 . S
C939 C940 1.384 . S
C939 C941 1.479 . S
C939 H957 0.929 . S
C940 C937 1.424 . S
C940 C939 1.384 . S
C940 H958 0.928 . S
C941 C938 1.260 . S
C941 C939 1.479 . S
C942 C937 1.245 . S
C942 C938 1.477 . S
C942 H959 0.932 . S
C943 U926 2.882 . S
C943 C937 1.428 . S
C943 O946 1.301 . S
C943 O947 1.282 . S
O944 U926 2.441 . S
O944 C930 1.249 . S
O945 U926 2.420 . S
O945 C930 1.202 . S
O946 U926 2.455 . S
O946 C943 1.301 . S
O947 U926 2.449 . S
O947 C943 1.282 . S
H948 C921 0.931 . S
H949 C923 0.929 . S
H950 C924 0.930 . S
H951 C925 0.931 . S
H952 C932 0.932 . S
H953 C933 0.930 . S
H954 C934 0.929 . S
H955 C936 0.930 . S
H956 C938 0.932 . S
H957 C939 0.929 . S
H958 C940 0.928 . S
H959 C942 0.932 . S
C960 C961 1.264 . S
C960 C965 1.479 . S
C960 C970 1.465 . S
C961 C960 1.264 . S
C961 C963 1.339 . S
C961 H988 0.931 . S
C962 C963 1.395 . S
C962 C964 1.320 . S
C963 C961 1.339 . S
C963 C962 1.395 . S
C963 H989 0.929 . S
C964 C962 1.320 . S
C964 C965 1.405 . S
C964 H990 0.930 . S
C965 C960 1.479 . S
C965 C964 1.405 . S
C965 H991 0.931 . S
U966 O967 2.454 . S
U966 O968 2.458 . S
U966 C969 2.984 . S
U966 C970 2.847 . S
U966 C983 2.882 . S
U966 O984 2.441 . S
U966 O985 2.420 . S
U966 O986 2.455 . S
U966 O987 2.449 . S
O967 U966 2.454 . S
O967 C969 1.353 . S
O968 U966 2.458 . S
O968 C969 1.286 . S
C969 U966 2.984 . S
C969 O967 1.353 . S
C969 O968 1.286 . S
C969 C971 1.363 . S
C970 C960 1.465 . S
C970 U966 2.847 . S
C970 O984 1.249 . S
C970 O985 1.202 . S
C971 C969 1.363 . S
C971 C973 1.408 . S
C971 C976 1.342 . S
C972 C973 1.310 . S
C972 C975 1.461 . S
C972 H992 0.932 . S
C973 C971 1.408 . S
C973 C972 1.310 . S
C973 H993 0.930 . S
C974 C975 1.474 . S
C974 C976 1.285 . S
C974 H994 0.929 . S
C975 C972 1.461 . S
C975 C974 1.474 . S
C976 C971 1.342 . S
C976 C974 1.285 . S
C976 H995 0.930 . S
C977 C980 1.424 . S
C977 C982 1.245 . S
C977 C983 1.428 . S
C978 C981 1.260 . S
C978 C982 1.477 . S
C978 H996 0.932 . S
C979 C980 1.384 . S
C979 C981 1.479 . S
C979 H997 0.929 . S
C980 C977 1.424 . S
C980 C979 1.384 . S
C980 H998 0.928 . S
C981 C978 1.260 . S
C981 C979 1.479 . S
C982 C977 1.245 . S
C982 C978 1.477 . S
C982 H999 0.932 . S
C983 U966 2.882 . S
C983 C977 1.428 . S
C983 O986 1.301 . S
C983 O987 1.282 . S
O984 U966 2.441 . S
O984 C970 1.249 . S
O985 U966 2.420 . S
O985 C970 1.202 . S
O986 U966 2.455 . S
O986 C983 1.301 . S
O987 U966 2.449 . S
O987 C983 1.282 . S
H988 C961 0.931 . S
H989 C963 0.929 . S
H990 C964 0.930 . S
H991 C965 0.931 . S
H992 C972 0.932 . S
H993 C973 0.930 . S
H994 C974 0.929 . S
H995 C976 0.930 . S
H996 C978 0.932 . S
H997 C979 0.929 . S
H998 C980 0.928 . S
H999 C982 0.932 . S
C1000 C1001 1.264 . S
C1000 C1005 1.479 . S
C1000 C1010 1.465 1_565 S
C1001 C1000 1.264 . S
C1001 C1003 1.339 . S
C1001 H1028 0.931 . S
C1002 C1003 1.395 . S
C1002 C1004 1.320 . S
C1003 C1001 1.339 . S
C1003 C1002 1.395 . S
C1003 H1029 0.929 . S
C1004 C1002 1.320 . S
C1004 C1005 1.405 . S
C1004 H1030 0.930 . S
C1005 C1000 1.479 . S
C1005 C1004 1.405 . S
C1005 H1031 0.931 . S
U1006 O1007 2.454 . S
U1006 O1008 2.458 . S
U1006 C1009 2.984 . S
U1006 C1010 2.847 . S
U1006 C1023 2.882 . S
U1006 O1024 2.441 . S
U1006 O1025 2.420 . S
U1006 O1026 2.455 . S
U1006 O1027 2.449 . S
O1007 U1006 2.454 . S
O1007 C1009 1.353 . S
O1008 U1006 2.458 . S
O1008 C1009 1.286 . S
C1009 U1006 2.984 . S
C1009 O1007 1.353 . S
C1009 O1008 1.286 . S
C1009 C1011 1.363 . S
C1010 C1000 1.465 1_545 S
C1010 U1006 2.847 . S
C1010 O1024 1.249 . S
C1010 O1025 1.202 . S
C1011 C1009 1.363 . S
C1011 C1013 1.408 . S
C1011 C1016 1.342 . S
C1012 C1013 1.310 . S
C1012 C1015 1.461 . S
C1012 H1032 0.932 . S
C1013 C1011 1.408 . S
C1013 C1012 1.310 . S
C1013 H1033 0.930 . S
C1014 C1015 1.474 . S
C1014 C1016 1.285 . S
C1014 H1034 0.929 . S
C1015 C1012 1.461 . S
C1015 C1014 1.474 . S
C1016 C1011 1.342 . S
C1016 C1014 1.285 . S
C1016 H1035 0.930 . S
C1017 C1020 1.424 . S
C1017 C1022 1.245 . S
C1017 C1023 1.428 . S
C1018 C1021 1.260 . S
C1018 C1022 1.477 . S
C1018 H1036 0.932 . S
C1019 C1020 1.384 . S
C1019 C1021 1.479 . S
C1019 H1037 0.929 . S
C1020 C1017 1.424 . S
C1020 C1019 1.384 . S
C1020 H1038 0.928 . S
C1021 C1018 1.260 . S
C1021 C1019 1.479 . S
C1022 C1017 1.245 . S
C1022 C1018 1.477 . S
C1022 H1039 0.932 . S
C1023 U1006 2.882 . S
C1023 C1017 1.428 . S
C1023 O1026 1.301 . S
C1023 O1027 1.282 . S
O1024 U1006 2.441 . S
O1024 C1010 1.249 . S
O1025 U1006 2.420 . S
O1025 C1010 1.202 . S
O1026 U1006 2.455 . S
O1026 C1023 1.301 . S
O1027 U1006 2.449 . S
O1027 C1023 1.282 . S
H1028 C1001 0.931 . S
H1029 C1003 0.929 . S
H1030 C1004 0.930 . S
H1031 C1005 0.931 . S
H1032 C1012 0.932 . S
H1033 C1013 0.930 . S
H1034 C1014 0.929 . S
H1035 C1016 0.930 . S
H1036 C1018 0.932 . S
H1037 C1019 0.929 . S
H1038 C1020 0.928 . S
H1039 C1022 0.932 . S
C1040 C1041 1.264 . S
C1040 C1045 1.479 . S
C1040 C1050 1.465 . S
C1041 C1040 1.264 . S
C1041 C1043 1.339 . S
C1041 H1068 0.931 . S
C1042 C1043 1.395 . S
C1042 C1044 1.320 . S
C1043 C1041 1.339 . S
C1043 C1042 1.395 . S
C1043 H1069 0.929 . S
C1044 C1042 1.320 . S
C1044 C1045 1.405 . S
C1044 H1070 0.930 . S
C1045 C1040 1.479 . S
C1045 C1044 1.405 . S
C1045 H1071 0.931 . S
U1046 O1047 2.454 . S
U1046 O1048 2.458 . S
U1046 C1049 2.984 . S
U1046 C1050 2.847 . S
U1046 C1063 2.882 . S
U1046 O1064 2.441 . S
U1046 O1065 2.420 . S
U1046 O1066 2.455 . S
U1046 O1067 2.449 . S
O1047 U1046 2.454 . S
O1047 C1049 1.353 . S
O1048 U1046 2.458 . S
O1048 C1049 1.286 . S
C1049 U1046 2.984 . S
C1049 O1047 1.353 . S
C1049 O1048 1.286 . S
C1049 C1051 1.363 . S
C1050 C1040 1.465 . S
C1050 U1046 2.847 . S
C1050 O1064 1.249 . S
C1050 O1065 1.202 . S
C1051 C1049 1.363 . S
C1051 C1053 1.408 . S
C1051 C1056 1.342 . S
C1052 C1053 1.310 . S
C1052 C1055 1.461 . S
C1052 H1072 0.932 . S
C1053 C1051 1.408 . S
C1053 C1052 1.310 . S
C1053 H1073 0.930 . S
C1054 C1055 1.474 . S
C1054 C1056 1.285 . S
C1054 H1074 0.929 . S
C1055 C1052 1.461 . S
C1055 C1054 1.474 . S
C1056 C1051 1.342 . S
C1056 C1054 1.285 . S
C1056 H1075 0.930 . S
C1057 C1060 1.424 . S
C1057 C1062 1.245 . S
C1057 C1063 1.428 . S
C1058 C1061 1.260 . S
C1058 C1062 1.477 . S
C1058 H1076 0.932 . S
C1059 C1060 1.384 . S
C1059 C1061 1.479 . S
C1059 H1077 0.929 . S
C1060 C1057 1.424 . S
C1060 C1059 1.384 . S
C1060 H1078 0.928 . S
C1061 C1058 1.260 . S
C1061 C1059 1.479 . S
C1062 C1057 1.245 . S
C1062 C1058 1.477 . S
C1062 H1079 0.932 . S
C1063 U1046 2.882 . S
C1063 C1057 1.428 . S
C1063 O1066 1.301 . S
C1063 O1067 1.282 . S
O1064 U1046 2.441 . S
O1064 C1050 1.249 . S
O1065 U1046 2.420 . S
O1065 C1050 1.202 . S
O1066 U1046 2.455 . S
O1066 C1063 1.301 . S
O1067 U1046 2.449 . S
O1067 C1063 1.282 . S
H1068 C1041 0.931 . S
H1069 C1043 0.929 . S
H1070 C1044 0.930 . S
H1071 C1045 0.931 . S
H1072 C1052 0.932 . S
H1073 C1053 0.930 . S
H1074 C1054 0.929 . S
H1075 C1056 0.930 . S
H1076 C1058 0.932 . S
H1077 C1059 0.929 . S
H1078 C1060 0.928 . S
H1079 C1062 0.932 . S
C1080 C1081 1.264 . S
C1080 C1085 1.479 . S
C1080 C1090 1.465 . S
C1081 C1080 1.264 . S
C1081 C1083 1.339 . S
C1081 H1108 0.931 . S
C1082 C1083 1.395 . S
C1082 C1084 1.320 . S
C1083 C1081 1.339 . S
C1083 C1082 1.395 . S
C1083 H1109 0.929 . S
C1084 C1082 1.320 . S
C1084 C1085 1.405 . S
C1084 H1110 0.930 . S
C1085 C1080 1.479 . S
C1085 C1084 1.405 . S
C1085 H1111 0.931 . S
U1086 O1087 2.454 1_556 S
U1086 O1088 2.458 1_556 S
U1086 C1089 2.984 1_556 S
U1086 C1090 2.847 . S
U1086 C1103 2.882 . S
U1086 O1104 2.441 . S
U1086 O1105 2.420 . S
U1086 O1106 2.455 . S
U1086 O1107 2.449 . S
O1087 U1086 2.454 1_554 S
O1087 C1089 1.353 . S
O1088 U1086 2.458 1_554 S
O1088 C1089 1.286 . S
C1089 U1086 2.984 1_554 S
C1089 O1087 1.353 . S
C1089 O1088 1.286 . S
C1089 C1091 1.363 . S
C1090 C1080 1.465 . S
C1090 U1086 2.847 . S
C1090 O1104 1.249 . S
C1090 O1105 1.202 . S
C1091 C1089 1.363 . S
C1091 C1093 1.408 . S
C1091 C1096 1.342 . S
C1092 C1093 1.310 . S
C1092 C1095 1.461 . S
C1092 H1112 0.932 . S
C1093 C1091 1.408 . S
C1093 C1092 1.310 . S
C1093 H1113 0.930 . S
C1094 C1095 1.474 . S
C1094 C1096 1.285 . S
C1094 H1114 0.929 . S
C1095 C1092 1.461 . S
C1095 C1094 1.474 . S
C1096 C1091 1.342 . S
C1096 C1094 1.285 . S
C1096 H1115 0.930 . S
C1097 C1100 1.424 . S
C1097 C1102 1.245 . S
C1097 C1103 1.428 . S
C1098 C1101 1.260 . S
C1098 C1102 1.477 . S
C1098 H1116 0.932 . S
C1099 C1100 1.384 . S
C1099 C1101 1.479 . S
C1099 H1117 0.929 . S
C1100 C1097 1.424 . S
C1100 C1099 1.384 . S
C1100 H1118 0.928 . S
C1101 C1098 1.260 . S
C1101 C1099 1.479 . S
C1102 C1097 1.245 . S
C1102 C1098 1.477 . S
C1102 H1119 0.932 . S
C1103 U1086 2.882 . S
C1103 C1097 1.428 . S
C1103 O1106 1.301 . S
C1103 O1107 1.282 . S
O1104 U1086 2.441 . S
O1104 C1090 1.249 . S
O1105 U1086 2.420 . S
O1105 C1090 1.202 . S
O1106 U1086 2.455 . S
O1106 C1103 1.301 . S
O1107 U1086 2.449 . S
O1107 C1103 1.282 . S
H1108 C1081 0.931 . S
H1109 C1083 0.929 . S
H1110 C1084 0.930 . S
H1111 C1085 0.931 . S
H1112 C1092 0.932 . S
H1113 C1093 0.930 . S
H1114 C1094 0.929 . S
H1115 C1096 0.930 . S
H1116 C1098 0.932 . S
H1117 C1099 0.929 . S
H1118 C1100 0.928 . S
H1119 C1102 0.932 . S
C1120 C1121 1.264 . S
C1120 C1125 1.479 . S
C1120 C1130 1.465 . S
C1121 C1120 1.264 . S
C1121 C1123 1.339 . S
C1121 H1148 0.931 . S
C1122 C1123 1.395 . S
C1122 C1124 1.320 . S
C1123 C1121 1.339 . S
C1123 C1122 1.395 . S
C1123 H1149 0.929 . S
C1124 C1122 1.320 . S
C1124 C1125 1.405 . S
C1124 H1150 0.930 . S
C1125 C1120 1.479 . S
C1125 C1124 1.405 . S
C1125 H1151 0.931 . S
U1126 O1127 2.454 . S
U1126 O1128 2.458 . S
U1126 C1129 2.984 . S
U1126 C1130 2.847 . S
U1126 C1143 2.882 . S
U1126 O1144 2.441 . S
U1126 O1145 2.420 . S
U1126 O1146 2.455 . S
U1126 O1147 2.449 . S
O1127 U1126 2.454 . S
O1127 C1129 1.353 . S
O1128 U1126 2.458 . S
O1128 C1129 1.286 . S
C1129 U1126 2.984 . S
C1129 O1127 1.353 . S
C1129 O1128 1.286 . S
C1129 C1131 1.363 . S
C1130 C1120 1.465 . S
C1130 U1126 2.847 . S
C1130 O1144 1.249 . S
C1130 O1145 1.202 . S
C1131 C1129 1.363 . S
C1131 C1133 1.408 . S
C1131 C1136 1.342 . S
C1132 C1133 1.310 . S
C1132 C1135 1.461 . S
C1132 H1152 0.932 . S
C1133 C1131 1.408 . S
C1133 C1132 1.310 . S
C1133 H1153 0.930 . S
C1134 C1135 1.474 . S
C1134 C1136 1.285 . S
C1134 H1154 0.929 . S
C1135 C1132 1.461 . S
C1135 C1134 1.474 . S
C1136 C1131 1.342 . S
C1136 C1134 1.285 . S
C1136 H1155 0.930 . S
C1137 C1140 1.424 . S
C1137 C1142 1.245 . S
C1137 C1143 1.428 . S
C1138 C1141 1.260 . S
C1138 C1142 1.477 . S
C1138 H1156 0.932 . S
C1139 C1140 1.384 . S
C1139 C1141 1.479 . S
C1139 H1157 0.929 . S
C1140 C1137 1.424 . S
C1140 C1139 1.384 . S
C1140 H1158 0.928 . S
C1141 C1138 1.260 . S
C1141 C1139 1.479 . S
C1142 C1137 1.245 . S
C1142 C1138 1.477 . S
C1142 H1159 0.932 . S
C1143 U1126 2.882 . S
C1143 C1137 1.428 . S
C1143 O1146 1.301 . S
C1143 O1147 1.282 . S
O1144 U1126 2.441 . S
O1144 C1130 1.249 . S
O1145 U1126 2.420 . S
O1145 C1130 1.202 . S
O1146 U1126 2.455 . S
O1146 C1143 1.301 . S
O1147 U1126 2.449 . S
O1147 C1143 1.282 . S
H1148 C1121 0.931 . S
H1149 C1123 0.929 . S
H1150 C1124 0.930 . S
H1151 C1125 0.931 . S
H1152 C1132 0.932 . S
H1153 C1133 0.930 . S
H1154 C1134 0.929 . S
H1155 C1136 0.930 . S
H1156 C1138 0.932 . S
H1157 C1139 0.929 . S
H1158 C1140 0.928 . S
H1159 C1142 0.932 . S
C1160 C1161 1.264 . S
C1160 C1165 1.479 . S
C1160 C1170 1.465 . S
C1161 C1160 1.264 . S
C1161 C1163 1.339 . S
C1161 H1188 0.931 . S
C1162 C1163 1.395 . S
C1162 C1164 1.320 . S
C1163 C1161 1.339 . S
C1163 C1162 1.395 . S
C1163 H1189 0.929 . S
C1164 C1162 1.320 . S
C1164 C1165 1.405 . S
C1164 H1190 0.930 . S
C1165 C1160 1.479 . S
C1165 C1164 1.405 . S
C1165 H1191 0.931 . S
U1166 O1167 2.454 . S
U1166 O1168 2.458 . S
U1166 C1169 2.984 . S
U1166 C1170 2.847 . S
U1166 C1183 2.882 . S
U1166 O1184 2.441 . S
U1166 O1185 2.420 . S
U1166 O1186 2.455 . S
U1166 O1187 2.449 . S
O1167 U1166 2.454 . S
O1167 C1169 1.353 . S
O1168 U1166 2.458 . S
O1168 C1169 1.286 . S
C1169 U1166 2.984 . S
C1169 O1167 1.353 . S
C1169 O1168 1.286 . S
C1169 C1171 1.363 . S
C1170 C1160 1.465 . S
C1170 U1166 2.847 . S
C1170 O1184 1.249 . S
C1170 O1185 1.202 . S
C1171 C1169 1.363 . S
C1171 C1173 1.408 . S
C1171 C1176 1.342 . S
C1172 C1173 1.310 . S
C1172 C1175 1.461 . S
C1172 H1192 0.932 . S
C1173 C1171 1.408 . S
C1173 C1172 1.310 . S
C1173 H1193 0.930 . S
C1174 C1175 1.474 . S
C1174 C1176 1.285 . S
C1174 H1194 0.929 . S
C1175 C1172 1.461 . S
C1175 C1174 1.474 . S
C1176 C1171 1.342 . S
C1176 C1174 1.285 . S
C1176 H1195 0.930 . S
C1177 C1180 1.424 . S
C1177 C1182 1.245 . S
C1177 C1183 1.428 . S
C1178 C1181 1.260 . S
C1178 C1182 1.477 . S
C1178 H1196 0.932 . S
C1179 C1180 1.384 . S
C1179 C1181 1.479 . S
C1179 H1197 0.929 . S
C1180 C1177 1.424 . S
C1180 C1179 1.384 . S
C1180 H1198 0.928 . S
C1181 C1178 1.260 . S
C1181 C1179 1.479 . S
C1182 C1177 1.245 . S
C1182 C1178 1.477 . S
C1182 H1199 0.932 . S
C1183 U1166 2.882 . S
C1183 C1177 1.428 . S
C1183 O1186 1.301 . S
C1183 O1187 1.282 . S
O1184 U1166 2.441 . S
O1184 C1170 1.249 . S
O1185 U1166 2.420 . S
O1185 C1170 1.202 . S
O1186 U1166 2.455 . S
O1186 C1183 1.301 . S
O1187 U1166 2.449 . S
O1187 C1183 1.282 . S
H1188 C1161 0.931 . S
H1189 C1163 0.929 . S
H1190 C1164 0.930 . S
H1191 C1165 0.931 . S
H1192 C1172 0.932 . S
H1193 C1173 0.930 . S
H1194 C1174 0.929 . S
H1195 C1176 0.930 . S
H1196 C1178 0.932 . S
H1197 C1179 0.929 . S
H1198 C1180 0.928 . S
H1199 C1182 0.932 . S
C1200 C1201 1.264 . S
C1200 C1205 1.479 . S
C1200 C1210 1.465 . S
C1201 C1200 1.264 . S
C1201 C1203 1.339 . S
C1201 H1228 0.931 . S
C1202 C1203 1.395 . S
C1202 C1204 1.320 . S
C1203 C1201 1.339 . S
C1203 C1202 1.395 . S
C1203 H1229 0.929 . S
C1204 C1202 1.320 . S
C1204 C1205 1.405 . S
C1204 H1230 0.930 . S
C1205 C1200 1.479 . S
C1205 C1204 1.405 . S
C1205 H1231 0.931 . S
U1206 O1207 2.454 . S
U1206 O1208 2.458 . S
U1206 C1209 2.984 . S
U1206 C1210 2.847 . S
U1206 C1223 2.882 . S
U1206 O1224 2.441 . S
U1206 O1225 2.420 . S
U1206 O1226 2.455 . S
U1206 O1227 2.449 . S
O1207 U1206 2.454 . S
O1207 C1209 1.353 . S
O1208 U1206 2.458 . S
O1208 C1209 1.286 . S
C1209 U1206 2.984 . S
C1209 O1207 1.353 . S
C1209 O1208 1.286 . S
C1209 C1211 1.363 . S
C1210 C1200 1.465 . S
C1210 U1206 2.847 . S
C1210 O1224 1.249 . S
C1210 O1225 1.202 . S
C1211 C1209 1.363 . S
C1211 C1213 1.408 . S
C1211 C1216 1.342 . S
C1212 C1213 1.310 . S
C1212 C1215 1.461 . S
C1212 H1232 0.932 . S
C1213 C1211 1.408 . S
C1213 C1212 1.310 . S
C1213 H1233 0.930 . S
C1214 C1215 1.474 . S
C1214 C1216 1.285 . S
C1214 H1234 0.929 . S
C1215 C1212 1.461 . S
C1215 C1214 1.474 . S
C1216 C1211 1.342 . S
C1216 C1214 1.285 . S
C1216 H1235 0.930 . S
C1217 C1220 1.424 . S
C1217 C1222 1.245 . S
C1217 C1223 1.428 . S
C1218 C1221 1.260 . S
C1218 C1222 1.477 . S
C1218 H1236 0.932 . S
C1219 C1220 1.384 . S
C1219 C1221 1.479 . S
C1219 H1237 0.929 . S
C1220 C1217 1.424 . S
C1220 C1219 1.384 . S
C1220 H1238 0.928 . S
C1221 C1218 1.260 . S
C1221 C1219 1.479 . S
C1222 C1217 1.245 . S
C1222 C1218 1.477 . S
C1222 H1239 0.932 . S
C1223 U1206 2.882 . S
C1223 C1217 1.428 . S
C1223 O1226 1.301 . S
C1223 O1227 1.282 . S
O1224 U1206 2.441 . S
O1224 C1210 1.249 . S
O1225 U1206 2.420 . S
O1225 C1210 1.202 . S
O1226 U1206 2.455 . S
O1226 C1223 1.301 . S
O1227 U1206 2.449 . S
O1227 C1223 1.282 . S
H1228 C1201 0.931 . S
H1229 C1203 0.929 . S
H1230 C1204 0.930 . S
H1231 C1205 0.931 . S
H1232 C1212 0.932 . S
H1233 C1213 0.930 . S
H1234 C1214 0.929 . S
H1235 C1216 0.930 . S
H1236 C1218 0.932 . S
H1237 C1219 0.929 . S
H1238 C1220 0.928 . S
H1239 C1222 0.932 . S
C1240 C1241 1.264 . S
C1240 C1245 1.479 . S
C1240 C1250 1.465 . S
C1241 C1240 1.264 . S
C1241 C1243 1.339 . S
C1241 H1268 0.931 . S
C1242 C1243 1.395 . S
C1242 C1244 1.320 . S
C1243 C1241 1.339 . S
C1243 C1242 1.395 . S
C1243 H1269 0.929 . S
C1244 C1242 1.320 . S
C1244 C1245 1.405 . S
C1244 H1270 0.930 . S
C1245 C1240 1.479 . S
C1245 C1244 1.405 . S
C1245 H1271 0.931 . S
U1246 O1247 2.454 . S
U1246 O1248 2.458 . S
U1246 C1249 2.984 . S
U1246 C1250 2.847 . S
U1246 C1263 2.882 . S
U1246 O1264 2.441 . S
U1246 O1265 2.420 . S
U1246 O1266 2.455 . S
U1246 O1267 2.449 . S
O1247 U1246 2.454 . S
O1247 C1249 1.353 . S
O1248 U1246 2.458 . S
O1248 C1249 1.286 . S
C1249 U1246 2.984 . S
C1249 O1247 1.353 . S
C1249 O1248 1.286 . S
C1249 C1251 1.363 1_655 S
C1250 C1240 1.465 . S
C1250 U1246 2.847 . S
C1250 O1264 1.249 . S
C1250 O1265 1.202 . S
C1251 C1249 1.363 1_455 S
C1251 C1253 1.408 . S
C1251 C1256 1.342 . S
C1252 C1253 1.310 . S
C1252 C1255 1.461 . S
C1252 H1272 0.932 . S
C1253 C1251 1.408 . S
C1253 C1252 1.310 . S
C1253 H1273 0.930 . S
C1254 C1255 1.474 . S
C1254 C1256 1.285 . S
C1254 H1274 0.929 . S
C1255 C1252 1.461 . S
C1255 C1254 1.474 . S
C1256 C1251 1.342 . S
C1256 C1254 1.285 . S
C1256 H1275 0.930 1_455 S
C1257 C1260 1.424 . S
C1257 C1262 1.245 . S
C1257 C1263 1.428 . S
C1258 C1261 1.260 . S
C1258 C1262 1.477 . S
C1258 H1276 0.932 . S
C1259 C1260 1.384 . S
C1259 C1261 1.479 . S
C1259 H1277 0.929 . S
C1260 C1257 1.424 . S
C1260 C1259 1.384 . S
C1260 H1278 0.928 . S
C1261 C1258 1.260 . S
C1261 C1259 1.479 . S
C1262 C1257 1.245 . S
C1262 C1258 1.477 . S
C1262 H1279 0.932 . S
C1263 U1246 2.882 . S
C1263 C1257 1.428 . S
C1263 O1266 1.301 . S
C1263 O1267 1.282 . S
O1264 U1246 2.441 . S
O1264 C1250 1.249 . S
O1265 U1246 2.420 . S
O1265 C1250 1.202 . S
O1266 U1246 2.455 . S
O1266 C1263 1.301 . S
O1267 U1246 2.449 . S
O1267 C1263 1.282 . S
H1268 C1241 0.931 . S
H1269 C1243 0.929 . S
H1270 C1244 0.930 . S
H1271 C1245 0.931 . S
H1272 C1252 0.932 . S
H1273 C1253 0.930 . S
H1274 C1254 0.929 . S
H1275 C1256 0.930 1_655 S
H1276 C1258 0.932 . S
H1277 C1259 0.929 . S
H1278 C1260 0.928 . S
H1279 C1262 0.932 . S
C1280 C1281 1.264 . S
C1280 C1285 1.479 . S
C1280 C1290 1.465 . S
C1281 C1280 1.264 . S
C1281 C1283 1.339 . S
C1281 H1308 0.931 . S
C1282 C1283 1.395 . S
C1282 C1284 1.320 . S
C1283 C1281 1.339 . S
C1283 C1282 1.395 . S
C1283 H1309 0.929 . S
C1284 C1282 1.320 . S
C1284 C1285 1.405 . S
C1284 H1310 0.930 . S
C1285 C1280 1.479 . S
C1285 C1284 1.405 . S
C1285 H1311 0.931 . S
U1286 O1287 2.454 . S
U1286 O1288 2.458 . S
U1286 C1289 2.984 . S
U1286 C1290 2.847 . S
U1286 C1303 2.882 . S
U1286 O1304 2.441 . S
U1286 O1305 2.420 . S
U1286 O1306 2.455 . S
U1286 O1307 2.449 . S
O1287 U1286 2.454 . S
O1287 C1289 1.353 . S
O1288 U1286 2.458 . S
O1288 C1289 1.286 . S
C1289 U1286 2.984 . S
C1289 O1287 1.353 . S
C1289 O1288 1.286 . S
C1289 C1291 1.363 . S
C1290 C1280 1.465 . S
C1290 U1286 2.847 . S
C1290 O1304 1.249 . S
C1290 O1305 1.202 . S
C1291 C1289 1.363 . S
C1291 C1293 1.408 . S
C1291 C1296 1.342 . S
C1292 C1293 1.310 . S
C1292 C1295 1.461 . S
C1292 H1312 0.932 . S
C1293 C1291 1.408 . S
C1293 C1292 1.310 . S
C1293 H1313 0.930 . S
C1294 C1295 1.474 . S
C1294 C1296 1.285 . S
C1294 H1314 0.929 . S
C1295 C1292 1.461 . S
C1295 C1294 1.474 . S
C1296 C1291 1.342 . S
C1296 C1294 1.285 . S
C1296 H1315 0.930 . S
C1297 C1300 1.424 . S
C1297 C1302 1.245 . S
C1297 C1303 1.428 . S
C1298 C1301 1.260 . S
C1298 C1302 1.477 . S
C1298 H1316 0.932 . S
C1299 C1300 1.384 . S
C1299 C1301 1.479 . S
C1299 H1317 0.929 . S
C1300 C1297 1.424 . S
C1300 C1299 1.384 . S
C1300 H1318 0.928 . S
C1301 C1298 1.260 . S
C1301 C1299 1.479 . S
C1302 C1297 1.245 . S
C1302 C1298 1.477 . S
C1302 H1319 0.932 . S
C1303 U1286 2.882 . S
C1303 C1297 1.428 . S
C1303 O1306 1.301 . S
C1303 O1307 1.282 . S
O1304 U1286 2.441 . S
O1304 C1290 1.249 . S
O1305 U1286 2.420 . S
O1305 C1290 1.202 . S
O1306 U1286 2.455 . S
O1306 C1303 1.301 . S
O1307 U1286 2.449 . S
O1307 C1303 1.282 . S
H1308 C1281 0.931 . S
H1309 C1283 0.929 . S
H1310 C1284 0.930 . S
H1311 C1285 0.931 . S
H1312 C1292 0.932 . S
H1313 C1293 0.930 . S
H1314 C1294 0.929 . S
H1315 C1296 0.930 . S
H1316 C1298 0.932 . S
H1317 C1299 0.929 . S
H1318 C1300 0.928 . S
H1319 C1302 0.932 . S
C1320 C1321 1.264 . S
C1320 C1325 1.479 . S
C1320 C1330 1.465 . S
C1321 C1320 1.264 . S
C1321 C1323 1.339 . S
C1321 H1348 0.931 . S
C1322 C1323 1.395 . S
C1322 C1324 1.320 . S
C1323 C1321 1.339 . S
C1323 C1322 1.395 . S
C1323 H1349 0.929 . S
C1324 C1322 1.320 . S
C1324 C1325 1.405 . S
C1324 H1350 0.930 . S
C1325 C1320 1.479 . S
C1325 C1324 1.405 . S
C1325 H1351 0.931 1_556 S
U1326 O1327 2.454 . S
U1326 O1328 2.458 . S
U1326 C1329 2.984 . S
U1326 C1330 2.847 1_554 S
U1326 C1343 2.882 1_554 S
U1326 O1344 2.441 . S
U1326 O1345 2.420 1_554 S
U1326 O1346 2.455 1_554 S
U1326 O1347 2.449 1_554 S
O1327 U1326 2.454 . S
O1327 C1329 1.353 . S
O1328 U1326 2.458 . S
O1328 C1329 1.286 . S
C1329 U1326 2.984 . S
C1329 O1327 1.353 . S
C1329 O1328 1.286 . S
C1329 C1331 1.363 . S
C1330 C1320 1.465 . S
C1330 U1326 2.847 1_556 S
C1330 O1344 1.249 1_556 S
C1330 O1345 1.202 . S
C1331 C1329 1.363 . S
C1331 C1333 1.408 . S
C1331 C1336 1.342 . S
C1332 C1333 1.310 . S
C1332 C1335 1.461 . S
C1332 H1352 0.932 . S
C1333 C1331 1.408 . S
C1333 C1332 1.310 . S
C1333 H1353 0.930 . S
C1334 C1335 1.474 . S
C1334 C1336 1.285 . S
C1334 H1354 0.929 . S
C1335 C1332 1.461 . S
C1335 C1334 1.474 . S
C1336 C1331 1.342 . S
C1336 C1334 1.285 . S
C1336 H1355 0.930 . S
C1337 C1340 1.424 . S
C1337 C1342 1.245 . S
C1337 C1343 1.428 . S
C1338 C1341 1.260 . S
C1338 C1342 1.477 . S
C1338 H1356 0.932 1_455 S
C1339 C1340 1.384 . S
C1339 C1341 1.479 . S
C1339 H1357 0.929 . S
C1340 C1337 1.424 . S
C1340 C1339 1.384 . S
C1340 H1358 0.928 . S
C1341 C1338 1.260 . S
C1341 C1339 1.479 . S
C1342 C1337 1.245 . S
C1342 C1338 1.477 . S
C1342 H1359 0.932 . S
C1343 U1326 2.882 1_556 S
C1343 C1337 1.428 . S
C1343 O1346 1.301 . S
C1343 O1347 1.282 . S
O1344 U1326 2.441 . S
O1344 C1330 1.249 1_554 S
O1345 U1326 2.420 1_556 S
O1345 C1330 1.202 . S
O1346 U1326 2.455 1_556 S
O1346 C1343 1.301 . S
O1347 U1326 2.449 1_556 S
O1347 C1343 1.282 . S
H1348 C1321 0.931 . S
H1349 C1323 0.929 . S
H1350 C1324 0.930 . S
H1351 C1325 0.931 1_554 S
H1352 C1332 0.932 . S
H1353 C1333 0.930 . S
H1354 C1334 0.929 . S
H1355 C1336 0.930 . S
H1356 C1338 0.932 1_655 S
H1357 C1339 0.929 . S
H1358 C1340 0.928 . S
H1359 C1342 0.932 . S
C1360 C1361 1.264 . S
C1360 C1365 1.479 . S
C1360 C1370 1.465 . S
C1361 C1360 1.264 . S
C1361 C1363 1.339 . S
C1361 H1388 0.931 . S
C1362 C1363 1.395 . S
C1362 C1364 1.320 . S
C1363 C1361 1.339 . S
C1363 C1362 1.395 . S
C1363 H1389 0.929 . S
C1364 C1362 1.320 . S
C1364 C1365 1.405 . S
C1364 H1390 0.930 . S
C1365 C1360 1.479 . S
C1365 C1364 1.405 . S
C1365 H1391 0.931 . S
U1366 O1367 2.454 . S
U1366 O1368 2.458 . S
U1366 C1369 2.984 . S
U1366 C1370 2.847 . S
U1366 C1383 2.882 . S
U1366 O1384 2.441 . S
U1366 O1385 2.420 . S
U1366 O1386 2.455 . S
U1366 O1387 2.449 . S
O1367 U1366 2.454 . S
O1367 C1369 1.353 . S
O1368 U1366 2.458 . S
O1368 C1369 1.286 . S
C1369 U1366 2.984 . S
C1369 O1367 1.353 . S
C1369 O1368 1.286 . S
C1369 C1371 1.363 . S
C1370 C1360 1.465 . S
C1370 U1366 2.847 . S
C1370 O1384 1.249 . S
C1370 O1385 1.202 . S
C1371 C1369 1.363 . S
C1371 C1373 1.408 . S
C1371 C1376 1.342 . S
C1372 C1373 1.310 . S
C1372 C1375 1.461 . S
C1372 H1392 0.932 . S
C1373 C1371 1.408 . S
C1373 C1372 1.310 . S
C1373 H1393 0.930 . S
C1374 C1375 1.474 . S
C1374 C1376 1.285 . S
C1374 H1394 0.929 . S
C1375 C1372 1.461 . S
C1375 C1374 1.474 . S
C1376 C1371 1.342 . S
C1376 C1374 1.285 . S
C1376 H1395 0.930 . S
C1377 C1380 1.424 . S
C1377 C1382 1.245 . S
C1377 C1383 1.428 . S
C1378 C1381 1.260 . S
C1378 C1382 1.477 . S
C1378 H1396 0.932 . S
C1379 C1380 1.384 . S
C1379 C1381 1.479 . S
C1379 H1397 0.929 . S
C1380 C1377 1.424 . S
C1380 C1379 1.384 . S
C1380 H1398 0.928 . S
C1381 C1378 1.260 . S
C1381 C1379 1.479 . S
C1382 C1377 1.245 . S
C1382 C1378 1.477 . S
C1382 H1399 0.932 . S
C1383 U1366 2.882 . S
C1383 C1377 1.428 . S
C1383 O1386 1.301 . S
C1383 O1387 1.282 . S
O1384 U1366 2.441 . S
O1384 C1370 1.249 . S
O1385 U1366 2.420 . S
O1385 C1370 1.202 . S
O1386 U1366 2.455 . S
O1386 C1383 1.301 . S
O1387 U1366 2.449 . S
O1387 C1383 1.282 . S
H1388 C1361 0.931 . S
H1389 C1363 0.929 . S
H1390 C1364 0.930 . S
H1391 C1365 0.931 . S
H1392 C1372 0.932 . S
H1393 C1373 0.930 . S
H1394 C1374 0.929 . S
H1395 C1376 0.930 . S
H1396 C1378 0.932 . S
H1397 C1379 0.929 . S
H1398 C1380 0.928 . S
H1399 C1382 0.932 . S
C1400 C1401 1.264 . S
C1400 C1405 1.479 . S
C1400 C1410 1.465 . S
C1401 C1400 1.264 . S
C1401 C1403 1.339 . S
C1401 H1428 0.931 . S
C1402 C1403 1.395 . S
C1402 C1404 1.320 . S
C1403 C1401 1.339 . S
C1403 C1402 1.395 . S
C1403 H1429 0.929 . S
C1404 C1402 1.320 . S
C1404 C1405 1.405 . S
C1404 H1430 0.930 . S
C1405 C1400 1.479 . S
C1405 C1404 1.405 . S
C1405 H1431 0.931 . S
U1406 O1407 2.454 . S
U1406 O1408 2.458 . S
U1406 C1409 2.984 . S
U1406 C1410 2.847 . S
U1406 C1423 2.882 . S
U1406 O1424 2.441 . S
U1406 O1425 2.420 . S
U1406 O1426 2.455 . S
U1406 O1427 2.449 . S
O1407 U1406 2.454 . S
O1407 C1409 1.353 . S
O1408 U1406 2.458 . S
O1408 C1409 1.286 . S
C1409 U1406 2.984 . S
C1409 O1407 1.353 . S
C1409 O1408 1.286 . S
C1409 C1411 1.363 . S
C1410 C1400 1.465 . S
C1410 U1406 2.847 . S
C1410 O1424 1.249 . S
C1410 O1425 1.202 . S
C1411 C1409 1.363 . S
C1411 C1413 1.408 . S
C1411 C1416 1.342 . S
C1412 C1413 1.310 . S
C1412 C1415 1.461 . S
C1412 H1432 0.932 . S
C1413 C1411 1.408 . S
C1413 C1412 1.310 . S
C1413 H1433 0.930 . S
C1414 C1415 1.474 . S
C1414 C1416 1.285 . S
C1414 H1434 0.929 . S
C1415 C1412 1.461 . S
C1415 C1414 1.474 . S
C1416 C1411 1.342 . S
C1416 C1414 1.285 . S
C1416 H1435 0.930 . S
C1417 C1420 1.424 . S
C1417 C1422 1.245 . S
C1417 C1423 1.428 . S
C1418 C1421 1.260 . S
C1418 C1422 1.477 . S
C1418 H1436 0.932 . S
C1419 C1420 1.384 . S
C1419 C1421 1.479 . S
C1419 H1437 0.929 . S
C1420 C1417 1.424 . S
C1420 C1419 1.384 . S
C1420 H1438 0.928 . S
C1421 C1418 1.260 . S
C1421 C1419 1.479 . S
C1422 C1417 1.245 . S
C1422 C1418 1.477 . S
C1422 H1439 0.932 . S
C1423 U1406 2.882 . S
C1423 C1417 1.428 . S
C1423 O1426 1.301 . S
C1423 O1427 1.282 . S
O1424 U1406 2.441 . S
O1424 C1410 1.249 . S
O1425 U1406 2.420 . S
O1425 C1410 1.202 . S
O1426 U1406 2.455 . S
O1426 C1423 1.301 . S
O1427 U1406 2.449 . S
O1427 C1423 1.282 . S
H1428 C1401 0.931 . S
H1429 C1403 0.929 . S
H1430 C1404 0.930 . S
H1431 C1405 0.931 . S
H1432 C1412 0.932 . S
H1433 C1413 0.930 . S
H1434 C1414 0.929 . S
H1435 C1416 0.930 . S
H1436 C1418 0.932 . S
H1437 C1419 0.929 . S
H1438 C1420 0.928 . S
H1439 C1422 0.932 . S
C1440 C1441 1.264 . S
C1440 C1445 1.479 . S
C1440 C1450 1.465 . S
C1441 C1440 1.264 . S
C1441 C1443 1.339 . S
C1441 H1468 0.931 . S
C1442 C1443 1.395 . S
C1442 C1444 1.320 . S
C1443 C1441 1.339 . S
C1443 C1442 1.395 . S
C1443 H1469 0.929 . S
C1444 C1442 1.320 . S
C1444 C1445 1.405 . S
C1444 H1470 0.930 . S
C1445 C1440 1.479 . S
C1445 C1444 1.405 . S
C1445 H1471 0.931 . S
U1446 O1447 2.454 . S
U1446 O1448 2.458 . S
U1446 C1449 2.984 . S
U1446 C1450 2.847 . S
U1446 C1463 2.882 . S
U1446 O1464 2.441 . S
U1446 O1465 2.420 . S
U1446 O1466 2.455 . S
U1446 O1467 2.449 . S
O1447 U1446 2.454 . S
O1447 C1449 1.353 . S
O1448 U1446 2.458 . S
O1448 C1449 1.286 . S
C1449 U1446 2.984 . S
C1449 O1447 1.353 . S
C1449 O1448 1.286 . S
C1449 C1451 1.363 . S
C1450 C1440 1.465 . S
C1450 U1446 2.847 . S
C1450 O1464 1.249 . S
C1450 O1465 1.202 . S
C1451 C1449 1.363 . S
C1451 C1453 1.408 . S
C1451 C1456 1.342 . S
C1452 C1453 1.310 . S
C1452 C1455 1.461 . S
C1452 H1472 0.932 . S
C1453 C1451 1.408 . S
C1453 C1452 1.310 . S
C1453 H1473 0.930 . S
C1454 C1455 1.474 . S
C1454 C1456 1.285 . S
C1454 H1474 0.929 . S
C1455 C1452 1.461 . S
C1455 C1454 1.474 . S
C1456 C1451 1.342 . S
C1456 C1454 1.285 . S
C1456 H1475 0.930 . S
C1457 C1460 1.424 . S
C1457 C1462 1.245 . S
C1457 C1463 1.428 . S
C1458 C1461 1.260 . S
C1458 C1462 1.477 . S
C1458 H1476 0.932 . S
C1459 C1460 1.384 . S
C1459 C1461 1.479 . S
C1459 H1477 0.929 . S
C1460 C1457 1.424 . S
C1460 C1459 1.384 . S
C1460 H1478 0.928 . S
C1461 C1458 1.260 . S
C1461 C1459 1.479 . S
C1462 C1457 1.245 . S
C1462 C1458 1.477 . S
C1462 H1479 0.932 . S
C1463 U1446 2.882 . S
C1463 C1457 1.428 . S
C1463 O1466 1.301 . S
C1463 O1467 1.282 . S
O1464 U1446 2.441 . S
O1464 C1450 1.249 . S
O1465 U1446 2.420 . S
O1465 C1450 1.202 . S
O1466 U1446 2.455 . S
O1466 C1463 1.301 . S
O1467 U1446 2.449 . S
O1467 C1463 1.282 . S
H1468 C1441 0.931 . S
H1469 C1443 0.929 . S
H1470 C1444 0.930 . S
H1471 C1445 0.931 . S
H1472 C1452 0.932 . S
H1473 C1453 0.930 . S
H1474 C1454 0.929 . S
H1475 C1456 0.930 . S
H1476 C1458 0.932 . S
H1477 C1459 0.929 . S
H1478 C1460 0.928 . S
H1479 C1462 0.932 . S
C1480 C1481 1.264 . S
C1480 C1485 1.479 . S
C1480 C1490 1.465 . S
C1481 C1480 1.264 . S
C1481 C1483 1.339 . S
C1481 H1508 0.931 . S
C1482 C1483 1.395 . S
C1482 C1484 1.320 . S
C1483 C1481 1.339 . S
C1483 C1482 1.395 . S
C1483 H1509 0.929 . S
C1484 C1482 1.320 . S
C1484 C1485 1.405 . S
C1484 H1510 0.930 . S
C1485 C1480 1.479 . S
C1485 C1484 1.405 . S
C1485 H1511 0.931 . S
U1486 O1487 2.454 . S
U1486 O1488 2.458 . S
U1486 C1489 2.984 . S
U1486 C1490 2.847 . S
U1486 C1503 2.882 . S
U1486 O1504 2.441 . S
U1486 O1505 2.420 . S
U1486 O1506 2.455 . S
U1486 O1507 2.449 . S
O1487 U1486 2.454 . S
O1487 C1489 1.353 . S
O1488 U1486 2.458 . S
O1488 C1489 1.286 . S
C1489 U1486 2.984 . S
C1489 O1487 1.353 . S
C1489 O1488 1.286 . S
C1489 C1491 1.363 . S
C1490 C1480 1.465 . S
C1490 U1486 2.847 . S
C1490 O1504 1.249 . S
C1490 O1505 1.202 . S
C1491 C1489 1.363 . S
C1491 C1493 1.408 . S
C1491 C1496 1.342 . S
C1492 C1493 1.310 . S
C1492 C1495 1.461 . S
C1492 H1512 0.932 . S
C1493 C1491 1.408 . S
C1493 C1492 1.310 . S
C1493 H1513 0.930 . S
C1494 C1495 1.474 . S
C1494 C1496 1.285 . S
C1494 H1514 0.929 . S
C1495 C1492 1.461 . S
C1495 C1494 1.474 . S
C1496 C1491 1.342 . S
C1496 C1494 1.285 . S
C1496 H1515 0.930 . S
C1497 C1500 1.424 . S
C1497 C1502 1.245 . S
C1497 C1503 1.428 . S
C1498 C1501 1.260 . S
C1498 C1502 1.477 . S
C1498 H1516 0.932 . S
C1499 C1500 1.384 . S
C1499 C1501 1.479 . S
C1499 H1517 0.929 . S
C1500 C1497 1.424 . S
C1500 C1499 1.384 . S
C1500 H1518 0.928 . S
C1501 C1498 1.260 . S
C1501 C1499 1.479 . S
C1502 C1497 1.245 . S
C1502 C1498 1.477 . S
C1502 H1519 0.932 . S
C1503 U1486 2.882 . S
C1503 C1497 1.428 . S
C1503 O1506 1.301 . S
C1503 O1507 1.282 . S
O1504 U1486 2.441 . S
O1504 C1490 1.249 . S
O1505 U1486 2.420 . S
O1505 C1490 1.202 . S
O1506 U1486 2.455 . S
O1506 C1503 1.301 . S
O1507 U1486 2.449 . S
O1507 C1503 1.282 . S
H1508 C1481 0.931 . S
H1509 C1483 0.929 . S
H1510 C1484 0.930 . S
H1511 C1485 0.931 . S
H1512 C1492 0.932 . S
H1513 C1493 0.930 . S
H1514 C1494 0.929 . S
H1515 C1496 0.930 . S
H1516 C1498 0.932 . S
H1517 C1499 0.929 . S
H1518 C1500 0.928 . S
H1519 C1502 0.932 . S
C1520 C1521 1.264 . S
C1520 C1525 1.479 . S
C1520 C1530 1.465 . S
C1521 C1520 1.264 . S
C1521 C1523 1.339 . S
C1521 H1548 0.931 . S
C1522 C1523 1.395 . S
C1522 C1524 1.320 . S
C1523 C1521 1.339 . S
C1523 C1522 1.395 . S
C1523 H1549 0.929 . S
C1524 C1522 1.320 . S
C1524 C1525 1.405 . S
C1524 H1550 0.930 . S
C1525 C1520 1.479 . S
C1525 C1524 1.405 . S
C1525 H1551 0.931 . S
U1526 O1527 2.454 . S
U1526 O1528 2.458 . S
U1526 C1529 2.984 . S
U1526 C1530 2.847 . S
U1526 C1543 2.882 . S
U1526 O1544 2.441 . S
U1526 O1545 2.420 . S
U1526 O1546 2.455 . S
U1526 O1547 2.449 . S
O1527 U1526 2.454 . S
O1527 C1529 1.353 . S
O1528 U1526 2.458 . S
O1528 C1529 1.286 . S
C1529 U1526 2.984 . S
C1529 O1527 1.353 . S
C1529 O1528 1.286 . S
C1529 C1531 1.363 . S
C1530 C1520 1.465 . S
C1530 U1526 2.847 . S
C1530 O1544 1.249 . S
C1530 O1545 1.202 . S
C1531 C1529 1.363 . S
C1531 C1533 1.408 . S
C1531 C1536 1.342 . S
C1532 C1533 1.310 . S
C1532 C1535 1.461 . S
C1532 H1552 0.932 . S
C1533 C1531 1.408 . S
C1533 C1532 1.310 . S
C1533 H1553 0.930 . S
C1534 C1535 1.474 . S
C1534 C1536 1.285 . S
C1534 H1554 0.929 . S
C1535 C1532 1.461 . S
C1535 C1534 1.474 . S
C1536 C1531 1.342 . S
C1536 C1534 1.285 . S
C1536 H1555 0.930 . S
C1537 C1540 1.424 . S
C1537 C1542 1.245 . S
C1537 C1543 1.428 . S
C1538 C1541 1.260 . S
C1538 C1542 1.477 . S
C1538 H1556 0.932 . S
C1539 C1540 1.384 . S
C1539 C1541 1.479 . S
C1539 H1557 0.929 . S
C1540 C1537 1.424 . S
C1540 C1539 1.384 . S
C1540 H1558 0.928 . S
C1541 C1538 1.260 . S
C1541 C1539 1.479 . S
C1542 C1537 1.245 . S
C1542 C1538 1.477 . S
C1542 H1559 0.932 . S
C1543 U1526 2.882 . S
C1543 C1537 1.428 . S
C1543 O1546 1.301 . S
C1543 O1547 1.282 . S
O1544 U1526 2.441 . S
O1544 C1530 1.249 . S
O1545 U1526 2.420 . S
O1545 C1530 1.202 . S
O1546 U1526 2.455 . S
O1546 C1543 1.301 . S
O1547 U1526 2.449 . S
O1547 C1543 1.282 . S
H1548 C1521 0.931 . S
H1549 C1523 0.929 . S
H1550 C1524 0.930 . S
H1551 C1525 0.931 . S
H1552 C1532 0.932 . S
H1553 C1533 0.930 . S
H1554 C1534 0.929 . S
H1555 C1536 0.930 . S
H1556 C1538 0.932 . S
H1557 C1539 0.929 . S
H1558 C1540 0.928 . S
H1559 C1542 0.932 . S
C1560 C1561 1.264 . S
C1560 C1565 1.479 . S
C1560 C1570 1.465 . S
C1561 C1560 1.264 . S
C1561 C1563 1.339 . S
C1561 H1588 0.931 . S
C1562 C1563 1.395 . S
C1562 C1564 1.320 . S
C1563 C1561 1.339 . S
C1563 C1562 1.395 . S
C1563 H1589 0.929 . S
C1564 C1562 1.320 . S
C1564 C1565 1.405 . S
C1564 H1590 0.930 . S
C1565 C1560 1.479 . S
C1565 C1564 1.405 . S
C1565 H1591 0.931 . S
U1566 O1567 2.454 . S
U1566 O1568 2.458 . S
U1566 C1569 2.984 . S
U1566 C1570 2.847 . S
U1566 C1583 2.882 . S
U1566 O1584 2.441 . S
U1566 O1585 2.420 . S
U1566 O1586 2.455 . S
U1566 O1587 2.449 . S
O1567 U1566 2.454 . S
O1567 C1569 1.353 . S
O1568 U1566 2.458 . S
O1568 C1569 1.286 . S
C1569 U1566 2.984 . S
C1569 O1567 1.353 . S
C1569 O1568 1.286 . S
C1569 C1571 1.363 . S
C1570 C1560 1.465 . S
C1570 U1566 2.847 . S
C1570 O1584 1.249 . S
C1570 O1585 1.202 . S
C1571 C1569 1.363 . S
C1571 C1573 1.408 . S
C1571 C1576 1.342 . S
C1572 C1573 1.310 . S
C1572 C1575 1.461 . S
C1572 H1592 0.932 . S
C1573 C1571 1.408 . S
C1573 C1572 1.310 . S
C1573 H1593 0.930 . S
C1574 C1575 1.474 . S
C1574 C1576 1.285 . S
C1574 H1594 0.929 . S
C1575 C1572 1.461 . S
C1575 C1574 1.474 . S
C1576 C1571 1.342 . S
C1576 C1574 1.285 . S
C1576 H1595 0.930 . S
C1577 C1580 1.424 . S
C1577 C1582 1.245 . S
C1577 C1583 1.428 . S
C1578 C1581 1.260 . S
C1578 C1582 1.477 . S
C1578 H1596 0.932 . S
C1579 C1580 1.384 . S
C1579 C1581 1.479 . S
C1579 H1597 0.929 . S
C1580 C1577 1.424 . S
C1580 C1579 1.384 . S
C1580 H1598 0.928 . S
C1581 C1578 1.260 . S
C1581 C1579 1.479 . S
C1582 C1577 1.245 . S
C1582 C1578 1.477 . S
C1582 H1599 0.932 . S
C1583 U1566 2.882 . S
C1583 C1577 1.428 . S
C1583 O1586 1.301 . S
C1583 O1587 1.282 . S
O1584 U1566 2.441 . S
O1584 C1570 1.249 . S
O1585 U1566 2.420 . S
O1585 C1570 1.202 . S
O1586 U1566 2.455 . S
O1586 C1583 1.301 . S
O1587 U1566 2.449 . S
O1587 C1583 1.282 . S
H1588 C1561 0.931 . S
H1589 C1563 0.929 . S
H1590 C1564 0.930 . S
H1591 C1565 0.931 . S
H1592 C1572 0.932 . S
H1593 C1573 0.930 . S
H1594 C1574 0.929 . S
H1595 C1576 0.930 . S
H1596 C1578 0.932 . S
H1597 C1579 0.929 . S
H1598 C1580 0.928 . S
H1599 C1582 0.932 . S
C1600 C1601 1.264 . S
C1600 C1605 1.479 . S
C1600 C1610 1.465 . S
C1601 C1600 1.264 . S
C1601 C1603 1.339 . S
C1601 H1628 0.931 . S
C1602 C1603 1.395 1_655 S
C1602 C1604 1.320 . S
C1603 C1601 1.339 . S
C1603 C1602 1.395 1_455 S
C1603 H1629 0.929 . S
C1604 C1602 1.320 . S
C1604 C1605 1.405 1_655 S
C1604 H1630 0.930 . S
C1605 C1600 1.479 . S
C1605 C1604 1.405 1_455 S
C1605 H1631 0.931 . S
U1606 O1607 2.454 . S
U1606 O1608 2.458 . S
U1606 C1609 2.984 . S
U1606 C1610 2.847 . S
U1606 C1623 2.882 . S
U1606 O1624 2.441 . S
U1606 O1625 2.420 . S
U1606 O1626 2.455 . S
U1606 O1627 2.449 . S
O1607 U1606 2.454 . S
O1607 C1609 1.353 . S
O1608 U1606 2.458 . S
O1608 C1609 1.286 . S
C1609 U1606 2.984 . S
C1609 O1607 1.353 . S
C1609 O1608 1.286 . S
C1609 C1611 1.363 . S
C1610 C1600 1.465 . S
C1610 U1606 2.847 . S
C1610 O1624 1.249 . S
C1610 O1625 1.202 . S
C1611 C1609 1.363 . S
C1611 C1613 1.408 . S
C1611 C1616 1.342 . S
C1612 C1613 1.310 . S
C1612 C1615 1.461 . S
C1612 H1632 0.932 . S
C1613 C1611 1.408 . S
C1613 C1612 1.310 . S
C1613 H1633 0.930 . S
C1614 C1615 1.474 . S
C1614 C1616 1.285 . S
C1614 H1634 0.929 . S
C1615 C1612 1.461 . S
C1615 C1614 1.474 . S
C1616 C1611 1.342 . S
C1616 C1614 1.285 . S
C1616 H1635 0.930 . S
C1617 C1620 1.424 . S
C1617 C1622 1.245 . S
C1617 C1623 1.428 . S
C1618 C1621 1.260 . S
C1618 C1622 1.477 . S
C1618 H1636 0.932 . S
C1619 C1620 1.384 . S
C1619 C1621 1.479 . S
C1619 H1637 0.929 . S
C1620 C1617 1.424 . S
C1620 C1619 1.384 . S
C1620 H1638 0.928 . S
C1621 C1618 1.260 . S
C1621 C1619 1.479 . S
C1622 C1617 1.245 . S
C1622 C1618 1.477 . S
C1622 H1639 0.932 . S
C1623 U1606 2.882 . S
C1623 C1617 1.428 . S
C1623 O1626 1.301 . S
C1623 O1627 1.282 . S
O1624 U1606 2.441 . S
O1624 C1610 1.249 . S
O1625 U1606 2.420 . S
O1625 C1610 1.202 . S
O1626 U1606 2.455 . S
O1626 C1623 1.301 . S
O1627 U1606 2.449 . S
O1627 C1623 1.282 . S
H1628 C1601 0.931 . S
H1629 C1603 0.929 . S
H1630 C1604 0.930 . S
H1631 C1605 0.931 . S
H1632 C1612 0.932 . S
H1633 C1613 0.930 . S
H1634 C1614 0.929 . S
H1635 C1616 0.930 . S
H1636 C1618 0.932 . S
H1637 C1619 0.929 . S
H1638 C1620 0.928 . S
H1639 C1622 0.932 . S
C1640 C1641 1.264 . S
C1640 C1645 1.479 . S
C1640 C1650 1.465 . S
C1641 C1640 1.264 . S
C1641 C1643 1.339 . S
C1641 H1668 0.931 . S
C1642 C1643 1.395 . S
C1642 C1644 1.320 . S
C1643 C1641 1.339 . S
C1643 C1642 1.395 . S
C1643 H1669 0.929 . S
C1644 C1642 1.320 . S
C1644 C1645 1.405 . S
C1644 H1670 0.930 . S
C1645 C1640 1.479 . S
C1645 C1644 1.405 . S
C1645 H1671 0.931 . S
U1646 O1647 2.454 . S
U1646 O1648 2.458 . S
U1646 C1649 2.984 . S
U1646 C1650 2.847 . S
U1646 C1663 2.882 . S
U1646 O1664 2.441 . S
U1646 O1665 2.420 . S
U1646 O1666 2.455 . S
U1646 O1667 2.449 . S
O1647 U1646 2.454 . S
O1647 C1649 1.353 . S
O1648 U1646 2.458 . S
O1648 C1649 1.286 . S
C1649 U1646 2.984 . S
C1649 O1647 1.353 . S
C1649 O1648 1.286 . S
C1649 C1651 1.363 . S
C1650 C1640 1.465 . S
C1650 U1646 2.847 . S
C1650 O1664 1.249 . S
C1650 O1665 1.202 . S
C1651 C1649 1.363 . S
C1651 C1653 1.408 . S
C1651 C1656 1.342 . S
C1652 C1653 1.310 . S
C1652 C1655 1.461 . S
C1652 H1672 0.932 . S
C1653 C1651 1.408 . S
C1653 C1652 1.310 . S
C1653 H1673 0.930 . S
C1654 C1655 1.474 . S
C1654 C1656 1.285 . S
C1654 H1674 0.929 . S
C1655 C1652 1.461 . S
C1655 C1654 1.474 . S
C1656 C1651 1.342 . S
C1656 C1654 1.285 . S
C1656 H1675 0.930 . S
C1657 C1660 1.424 . S
C1657 C1662 1.245 . S
C1657 C1663 1.428 . S
C1658 C1661 1.260 . S
C1658 C1662 1.477 . S
C1658 H1676 0.932 . S
C1659 C1660 1.384 . S
C1659 C1661 1.479 . S
C1659 H1677 0.929 . S
C1660 C1657 1.424 . S
C1660 C1659 1.384 . S
C1660 H1678 0.928 . S
C1661 C1658 1.260 . S
C1661 C1659 1.479 . S
C1662 C1657 1.245 . S
C1662 C1658 1.477 . S
C1662 H1679 0.932 . S
C1663 U1646 2.882 . S
C1663 C1657 1.428 . S
C1663 O1666 1.301 . S
C1663 O1667 1.282 . S
O1664 U1646 2.441 . S
O1664 C1650 1.249 . S
O1665 U1646 2.420 . S
O1665 C1650 1.202 . S
O1666 U1646 2.455 . S
O1666 C1663 1.301 . S
O1667 U1646 2.449 . S
O1667 C1663 1.282 . S
H1668 C1641 0.931 . S
H1669 C1643 0.929 . S
H1670 C1644 0.930 . S
H1671 C1645 0.931 . S
H1672 C1652 0.932 . S
H1673 C1653 0.930 . S
H1674 C1654 0.929 . S
H1675 C1656 0.930 . S
H1676 C1658 0.932 . S
H1677 C1659 0.929 . S
H1678 C1660 0.928 . S
H1679 C1662 0.932 . S
C1680 C1681 1.264 . S
C1680 C1685 1.479 1_554 S
C1680 C1690 1.465 . S
C1681 C1680 1.264 . S
C1681 C1683 1.339 . S
C1681 H1708 0.931 . S
C1682 C1683 1.395 . S
C1682 C1684 1.320 . S
C1683 C1681 1.339 . S
C1683 C1682 1.395 . S
C1683 H1709 0.929 . S
C1684 C1682 1.320 . S
C1684 C1685 1.405 1_554 S
C1684 H1710 0.930 1_554 S
C1685 C1680 1.479 1_556 S
C1685 C1684 1.405 1_556 S
C1685 H1711 0.931 . S
U1686 O1687 2.461 1_554 S
U1686 O1688 2.462 1_554 S
U1686 C1689 2.991 1_554 S
U1686 C1690 2.846 . S
U1686 C1703 2.877 . S
U1686 O1704 2.443 1_554 S
U1686 O1705 2.417 . S
U1686 O1706 2.452 . S
U1686 O1707 2.442 . S
O1687 U1686 2.461 1_556 S
O1687 C1689 1.353 . S
O1688 U1686 2.462 1_556 S
O1688 C1689 1.286 . S
C1689 U1686 2.991 1_556 S
C1689 O1687 1.353 . S
C1689 O1688 1.286 . S
C1689 C1691 1.363 . S
C1690 C1680 1.465 . S
C1690 U1686 2.846 . S
C1690 O1704 1.249 1_554 S
C1690 O1705 1.202 . S
C1691 C1689 1.363 . S
C1691 C1693 1.408 . S
C1691 C1696 1.342 . S
C1692 C1693 1.310 . S
C1692 C1695 1.461 . S
C1692 H1712 0.932 . S
C1693 C1691 1.408 . S
C1693 C1692 1.310 . S
C1693 H1713 0.930 . S
C1694 C1695 1.474 . S
C1694 C1696 1.285 . S
C1694 H1714 0.929 . S
C1695 C1692 1.461 . S
C1695 C1694 1.474 . S
C1696 C1691 1.342 . S
C1696 C1694 1.285 . S
C1696 H1715 0.930 . S
C1697 C1700 1.424 . S
C1697 C1702 1.245 . S
C1697 C1703 1.428 . S
C1698 C1701 1.260 . S
C1698 C1702 1.477 . S
C1698 H1716 0.932 . S
C1699 C1700 1.384 . S
C1699 C1701 1.479 . S
C1699 H1717 0.929 . S
C1700 C1697 1.424 . S
C1700 C1699 1.384 . S
C1700 H1718 0.928 . S
C1701 C1698 1.260 . S
C1701 C1699 1.479 . S
C1702 C1697 1.245 . S
C1702 C1698 1.477 . S
C1702 H1719 0.932 . S
C1703 U1686 2.877 . S
C1703 C1697 1.428 . S
C1703 O1706 1.301 . S
C1703 O1707 1.282 . S
O1704 U1686 2.443 1_556 S
O1704 C1690 1.249 1_556 S
O1705 U1686 2.417 . S
O1705 C1690 1.202 . S
O1706 U1686 2.452 . S
O1706 C1703 1.301 . S
O1707 U1686 2.442 . S
O1707 C1703 1.282 . S
H1708 C1681 0.931 . S
H1709 C1683 0.929 . S
H1710 C1684 0.930 1_556 S
H1711 C1685 0.931 . S
H1712 C1692 0.932 . S
H1713 C1693 0.930 . S
H1714 C1694 0.929 . S
H1715 C1696 0.930 . S
H1716 C1698 0.932 . S
H1717 C1699 0.929 . S
H1718 C1700 0.928 . S
H1719 C1702 0.932 . S
C1720 C1721 1.264 . S
C1720 C1725 1.479 . S
C1720 C1730 1.465 . S
C1721 C1720 1.264 . S
C1721 C1723 1.339 . S
C1721 H1748 0.931 . S
C1722 C1723 1.395 . S
C1722 C1724 1.320 . S
C1723 C1721 1.339 . S
C1723 C1722 1.395 . S
C1723 H1749 0.929 . S
C1724 C1722 1.320 . S
C1724 C1725 1.405 . S
C1724 H1750 0.930 . S
C1725 C1720 1.479 . S
C1725 C1724 1.405 . S
C1725 H1751 0.931 . S
U1726 O1727 2.454 . S
U1726 O1728 2.458 . S
U1726 C1729 2.984 . S
U1726 C1730 2.847 . S
U1726 C1743 2.882 . S
U1726 O1744 2.441 . S
U1726 O1745 2.420 . S
U1726 O1746 2.455 . S
U1726 O1747 2.449 . S
O1727 U1726 2.454 . S
O1727 C1729 1.353 . S
O1728 U1726 2.458 . S
O1728 C1729 1.286 . S
C1729 U1726 2.984 . S
C1729 O1727 1.353 . S
C1729 O1728 1.286 . S
C1729 C1731 1.363 . S
C1730 C1720 1.465 . S
C1730 U1726 2.847 . S
C1730 O1744 1.249 . S
C1730 O1745 1.202 . S
C1731 C1729 1.363 . S
C1731 C1733 1.408 . S
C1731 C1736 1.342 . S
C1732 C1733 1.310 . S
C1732 C1735 1.461 . S
C1732 H1752 0.932 . S
C1733 C1731 1.408 . S
C1733 C1732 1.310 . S
C1733 H1753 0.930 . S
C1734 C1735 1.474 . S
C1734 C1736 1.285 . S
C1734 H1754 0.929 . S
C1735 C1732 1.461 . S
C1735 C1734 1.474 . S
C1736 C1731 1.342 . S
C1736 C1734 1.285 . S
C1736 H1755 0.930 . S
C1737 C1740 1.424 . S
C1737 C1742 1.245 . S
C1737 C1743 1.428 . S
C1738 C1741 1.260 . S
C1738 C1742 1.477 . S
C1738 H1756 0.932 . S
C1739 C1740 1.384 . S
C1739 C1741 1.479 . S
C1739 H1757 0.929 . S
C1740 C1737 1.424 . S
C1740 C1739 1.384 . S
C1740 H1758 0.928 . S
C1741 C1738 1.260 . S
C1741 C1739 1.479 . S
C1742 C1737 1.245 . S
C1742 C1738 1.477 . S
C1742 H1759 0.932 . S
C1743 U1726 2.882 . S
C1743 C1737 1.428 . S
C1743 O1746 1.301 . S
C1743 O1747 1.282 . S
O1744 U1726 2.441 . S
O1744 C1730 1.249 . S
O1745 U1726 2.420 . S
O1745 C1730 1.202 . S
O1746 U1726 2.455 . S
O1746 C1743 1.301 . S
O1747 U1726 2.449 . S
O1747 C1743 1.282 . S
H1748 C1721 0.931 . S
H1749 C1723 0.929 . S
H1750 C1724 0.930 . S
H1751 C1725 0.931 . S
H1752 C1732 0.932 . S
H1753 C1733 0.930 . S
H1754 C1734 0.929 . S
H1755 C1736 0.930 . S
H1756 C1738 0.932 . S
H1757 C1739 0.929 . S
H1758 C1740 0.928 . S
H1759 C1742 0.932 . S
C1760 C1761 1.264 . S
C1760 C1765 1.479 . S
C1760 C1770 1.465 . S
C1761 C1760 1.264 . S
C1761 C1763 1.339 . S
C1761 H1788 0.931 . S
C1762 C1763 1.395 . S
C1762 C1764 1.320 . S
C1763 C1761 1.339 . S
C1763 C1762 1.395 . S
C1763 H1789 0.929 . S
C1764 C1762 1.320 . S
C1764 C1765 1.405 . S
C1764 H1790 0.930 . S
C1765 C1760 1.479 . S
C1765 C1764 1.405 . S
C1765 H1791 0.931 . S
U1766 O1767 2.454 . S
U1766 O1768 2.458 . S
U1766 C1769 2.984 . S
U1766 C1770 2.847 . S
U1766 C1783 2.882 . S
U1766 O1784 2.441 . S
U1766 O1785 2.420 . S
U1766 O1786 2.455 . S
U1766 O1787 2.449 . S
O1767 U1766 2.454 . S
O1767 C1769 1.353 . S
O1768 U1766 2.458 . S
O1768 C1769 1.286 . S
C1769 U1766 2.984 . S
C1769 O1767 1.353 . S
C1769 O1768 1.286 . S
C1769 C1771 1.363 . S
C1770 C1760 1.465 . S
C1770 U1766 2.847 . S
C1770 O1784 1.249 . S
C1770 O1785 1.202 . S
C1771 C1769 1.363 . S
C1771 C1773 1.408 . S
C1771 C1776 1.342 . S
C1772 C1773 1.310 . S
C1772 C1775 1.461 . S
C1772 H1792 0.932 . S
C1773 C1771 1.408 . S
C1773 C1772 1.310 . S
C1773 H1793 0.930 . S
C1774 C1775 1.474 . S
C1774 C1776 1.285 . S
C1774 H1794 0.929 . S
C1775 C1772 1.461 . S
C1775 C1774 1.474 . S
C1776 C1771 1.342 . S
C1776 C1774 1.285 . S
C1776 H1795 0.930 . S
C1777 C1780 1.424 . S
C1777 C1782 1.245 . S
C1777 C1783 1.428 . S
C1778 C1781 1.260 . S
C1778 C1782 1.477 . S
C1778 H1796 0.932 . S
C1779 C1780 1.384 . S
C1779 C1781 1.479 . S
C1779 H1797 0.929 . S
C1780 C1777 1.424 . S
C1780 C1779 1.384 . S
C1780 H1798 0.928 . S
C1781 C1778 1.260 . S
C1781 C1779 1.479 . S
C1782 C1777 1.245 . S
C1782 C1778 1.477 . S
C1782 H1799 0.932 . S
C1783 U1766 2.882 . S
C1783 C1777 1.428 . S
C1783 O1786 1.301 . S
C1783 O1787 1.282 . S
O1784 U1766 2.441 . S
O1784 C1770 1.249 . S
O1785 U1766 2.420 . S
O1785 C1770 1.202 . S
O1786 U1766 2.455 . S
O1786 C1783 1.301 . S
O1787 U1766 2.449 . S
O1787 C1783 1.282 . S
H1788 C1761 0.931 . S
H1789 C1763 0.929 . S
H1790 C1764 0.930 . S
H1791 C1765 0.931 . S
H1792 C1772 0.932 . S
H1793 C1773 0.930 . S
H1794 C1774 0.929 . S
H1795 C1776 0.930 . S
H1796 C1778 0.932 . S
H1797 C1779 0.929 . S
H1798 C1780 0.928 . S
H1799 C1782 0.932 . S
C1800 C1801 1.264 . S
C1800 C1805 1.479 . S
C1800 C1810 1.465 . S
C1801 C1800 1.264 . S
C1801 C1803 1.339 . S
C1801 H1828 0.931 . S
C1802 C1803 1.395 . S
C1802 C1804 1.320 . S
C1803 C1801 1.339 . S
C1803 C1802 1.395 . S
C1803 H1829 0.929 . S
C1804 C1802 1.320 . S
C1804 C1805 1.405 . S
C1804 H1830 0.930 . S
C1805 C1800 1.479 . S
C1805 C1804 1.405 . S
C1805 H1831 0.931 . S
U1806 O1807 2.454 . S
U1806 O1808 2.458 . S
U1806 C1809 2.984 . S
U1806 C1810 2.847 . S
U1806 C1823 2.882 . S
U1806 O1824 2.441 . S
U1806 O1825 2.420 . S
U1806 O1826 2.455 . S
U1806 O1827 2.449 . S
O1807 U1806 2.454 . S
O1807 C1809 1.353 . S
O1808 U1806 2.458 . S
O1808 C1809 1.286 . S
C1809 U1806 2.984 . S
C1809 O1807 1.353 . S
C1809 O1808 1.286 . S
C1809 C1811 1.363 . S
C1810 C1800 1.465 . S
C1810 U1806 2.847 . S
C1810 O1824 1.249 . S
C1810 O1825 1.202 . S
C1811 C1809 1.363 . S
C1811 C1813 1.408 . S
C1811 C1816 1.342 . S
C1812 C1813 1.310 . S
C1812 C1815 1.461 . S
C1812 H1832 0.932 . S
C1813 C1811 1.408 . S
C1813 C1812 1.310 . S
C1813 H1833 0.930 . S
C1814 C1815 1.474 . S
C1814 C1816 1.285 . S
C1814 H1834 0.929 . S
C1815 C1812 1.461 . S
C1815 C1814 1.474 . S
C1816 C1811 1.342 . S
C1816 C1814 1.285 . S
C1816 H1835 0.930 . S
C1817 C1820 1.424 . S
C1817 C1822 1.245 . S
C1817 C1823 1.428 . S
C1818 C1821 1.260 . S
C1818 C1822 1.477 . S
C1818 H1836 0.932 . S
C1819 C1820 1.384 . S
C1819 C1821 1.479 . S
C1819 H1837 0.929 . S
C1820 C1817 1.424 . S
C1820 C1819 1.384 . S
C1820 H1838 0.928 . S
C1821 C1818 1.260 . S
C1821 C1819 1.479 . S
C1822 C1817 1.245 . S
C1822 C1818 1.477 . S
C1822 H1839 0.932 . S
C1823 U1806 2.882 . S
C1823 C1817 1.428 . S
C1823 O1826 1.301 . S
C1823 O1827 1.282 . S
O1824 U1806 2.441 . S
O1824 C1810 1.249 . S
O1825 U1806 2.420 . S
O1825 C1810 1.202 . S
O1826 U1806 2.455 . S
O1826 C1823 1.301 . S
O1827 U1806 2.449 . S
O1827 C1823 1.282 . S
H1828 C1801 0.931 . S
H1829 C1803 0.929 . S
H1830 C1804 0.930 . S
H1831 C1805 0.931 . S
H1832 C1812 0.932 . S
H1833 C1813 0.930 . S
H1834 C1814 0.929 . S
H1835 C1816 0.930 . S
H1836 C1818 0.932 . S
H1837 C1819 0.929 . S
H1838 C1820 0.928 . S
H1839 C1822 0.932 . S
C1840 C1841 1.264 . S
C1840 C1845 1.479 . S
C1840 C1850 1.465 . S
C1841 C1840 1.264 . S
C1841 C1843 1.339 . S
C1841 H1868 0.931 . S
C1842 C1843 1.395 . S
C1842 C1844 1.320 . S
C1843 C1841 1.339 . S
C1843 C1842 1.395 . S
C1843 H1869 0.929 . S
C1844 C1842 1.320 . S
C1844 C1845 1.405 . S
C1844 H1870 0.930 . S
C1845 C1840 1.479 . S
C1845 C1844 1.405 . S
C1845 H1871 0.931 . S
U1846 O1847 2.454 . S
U1846 O1848 2.458 . S
U1846 C1849 2.984 . S
U1846 C1850 2.847 . S
U1846 C1863 2.882 . S
U1846 O1864 2.441 . S
U1846 O1865 2.420 . S
U1846 O1866 2.455 . S
U1846 O1867 2.449 . S
O1847 U1846 2.454 . S
O1847 C1849 1.353 . S
O1848 U1846 2.458 . S
O1848 C1849 1.286 . S
C1849 U1846 2.984 . S
C1849 O1847 1.353 . S
C1849 O1848 1.286 . S
C1849 C1851 1.363 . S
C1850 C1840 1.465 . S
C1850 U1846 2.847 . S
C1850 O1864 1.249 . S
C1850 O1865 1.202 . S
C1851 C1849 1.363 . S
C1851 C1853 1.408 . S
C1851 C1856 1.342 . S
C1852 C1853 1.310 . S
C1852 C1855 1.461 . S
C1852 H1872 0.932 . S
C1853 C1851 1.408 . S
C1853 C1852 1.310 . S
C1853 H1873 0.930 . S
C1854 C1855 1.474 . S
C1854 C1856 1.285 . S
C1854 H1874 0.929 . S
C1855 C1852 1.461 . S
C1855 C1854 1.474 . S
C1856 C1851 1.342 . S
C1856 C1854 1.285 . S
C1856 H1875 0.930 . S
C1857 C1860 1.424 . S
C1857 C1862 1.245 . S
C1857 C1863 1.428 . S
C1858 C1861 1.260 . S
C1858 C1862 1.477 . S
C1858 H1876 0.932 . S
C1859 C1860 1.384 . S
C1859 C1861 1.479 . S
C1859 H1877 0.929 . S
C1860 C1857 1.424 . S
C1860 C1859 1.384 . S
C1860 H1878 0.928 . S
C1861 C1858 1.260 . S
C1861 C1859 1.479 . S
C1862 C1857 1.245 . S
C1862 C1858 1.477 . S
C1862 H1879 0.932 . S
C1863 U1846 2.882 . S
C1863 C1857 1.428 . S
C1863 O1866 1.301 . S
C1863 O1867 1.282 . S
O1864 U1846 2.441 . S
O1864 C1850 1.249 . S
O1865 U1846 2.420 . S
O1865 C1850 1.202 . S
O1866 U1846 2.455 . S
O1866 C1863 1.301 . S
O1867 U1846 2.449 . S
O1867 C1863 1.282 . S
H1868 C1841 0.931 . S
H1869 C1843 0.929 . S
H1870 C1844 0.930 . S
H1871 C1845 0.931 . S
H1872 C1852 0.932 . S
H1873 C1853 0.930 . S
H1874 C1854 0.929 . S
H1875 C1856 0.930 . S
H1876 C1858 0.932 . S
H1877 C1859 0.929 . S
H1878 C1860 0.928 . S
H1879 C1862 0.932 . S
C1880 C1881 1.264 . S
C1880 C1885 1.479 . S
C1880 C1890 1.465 . S
C1881 C1880 1.264 . S
C1881 C1883 1.339 . S
C1881 H1908 0.931 . S
C1882 C1883 1.395 . S
C1882 C1884 1.320 . S
C1883 C1881 1.339 . S
C1883 C1882 1.395 . S
C1883 H1909 0.929 . S
C1884 C1882 1.320 . S
C1884 C1885 1.405 . S
C1884 H1910 0.930 . S
C1885 C1880 1.479 . S
C1885 C1884 1.405 . S
C1885 H1911 0.931 . S
U1886 O1887 2.454 . S
U1886 O1888 2.458 . S
U1886 C1889 2.984 . S
U1886 C1890 2.847 . S
U1886 C1903 2.882 . S
U1886 O1904 2.441 . S
U1886 O1905 2.420 . S
U1886 O1906 2.455 . S
U1886 O1907 2.449 . S
O1887 U1886 2.454 . S
O1887 C1889 1.353 . S
O1888 U1886 2.458 . S
O1888 C1889 1.286 . S
C1889 U1886 2.984 . S
C1889 O1887 1.353 . S
C1889 O1888 1.286 . S
C1889 C1891 1.363 . S
C1890 C1880 1.465 . S
C1890 U1886 2.847 . S
C1890 O1904 1.249 . S
C1890 O1905 1.202 . S
C1891 C1889 1.363 . S
C1891 C1893 1.408 . S
C1891 C1896 1.342 . S
C1892 C1893 1.310 . S
C1892 C1895 1.461 . S
C1892 H1912 0.932 . S
C1893 C1891 1.408 . S
C1893 C1892 1.310 . S
C1893 H1913 0.930 . S
C1894 C1895 1.474 . S
C1894 C1896 1.285 . S
C1894 H1914 0.929 . S
C1895 C1892 1.461 . S
C1895 C1894 1.474 . S
C1896 C1891 1.342 . S
C1896 C1894 1.285 . S
C1896 H1915 0.930 . S
C1897 C1900 1.424 . S
C1897 C1902 1.245 . S
C1897 C1903 1.428 . S
C1898 C1901 1.260 . S
C1898 C1902 1.477 . S
C1898 H1916 0.932 . S
C1899 C1900 1.384 . S
C1899 C1901 1.479 . S
C1899 H1917 0.929 . S
C1900 C1897 1.424 . S
C1900 C1899 1.384 . S
C1900 H1918 0.928 . S
C1901 C1898 1.260 . S
C1901 C1899 1.479 . S
C1902 C1897 1.245 . S
C1902 C1898 1.477 . S
C1902 H1919 0.932 . S
C1903 U1886 2.882 . S
C1903 C1897 1.428 . S
C1903 O1906 1.301 . S
C1903 O1907 1.282 . S
O1904 U1886 2.441 . S
O1904 C1890 1.249 . S
O1905 U1886 2.420 . S
O1905 C1890 1.202 . S
O1906 U1886 2.455 . S
O1906 C1903 1.301 . S
O1907 U1886 2.449 . S
O1907 C1903 1.282 . S
H1908 C1881 0.931 . S
H1909 C1883 0.929 . S
H1910 C1884 0.930 . S
H1911 C1885 0.931 . S
H1912 C1892 0.932 . S
H1913 C1893 0.930 . S
H1914 C1894 0.929 . S
H1915 C1896 0.930 . S
H1916 C1898 0.932 . S
H1917 C1899 0.929 . S
H1918 C1900 0.928 . S
H1919 C1902 0.932 . S
H1920 C1923 0.929 . S
H1921 C1926 0.929 . S
H1922 C1928 0.930 . S
C1923 H1920 0.929 . S
C1923 C1924 1.398 . S
C1923 C1925 1.396 . S
C1924 C1923 1.398 . S
C1924 C1928 1.407 . S
C1925 C1923 1.396 . S
C1925 C1926 1.394 . S
C1926 H1921 0.929 . S
C1926 C1925 1.394 . S
C1926 C1927 1.382 . S
C1927 C1926 1.382 . S
C1927 C1928 1.392 . S
C1927 N1929 1.420 . S
C1928 H1922 0.930 . S
C1928 C1924 1.407 . S
C1928 C1927 1.392 . S
N1929 C1927 1.420 . S
N1929 C1930 1.244 . S
C1930 N1929 1.244 . S
H1931 C1934 0.929 . S
H1932 C1937 0.929 . S
H1933 C1939 0.930 . S
C1934 H1931 0.929 . S
C1934 C1935 1.398 . S
C1934 C1936 1.396 . S
C1935 C1934 1.398 . S
C1935 C1939 1.407 . S
C1936 C1934 1.396 . S
C1936 C1937 1.394 . S
C1937 H1932 0.929 . S
C1937 C1936 1.394 . S
C1937 C1938 1.382 . S
C1938 C1937 1.382 . S
C1938 C1939 1.392 . S
C1938 N1940 1.420 . S
C1939 H1933 0.930 . S
C1939 C1935 1.407 . S
C1939 C1938 1.392 . S
N1940 C1938 1.420 . S
N1940 C1941 1.244 . S
C1941 N1940 1.244 . S
H1942 C1945 0.929 . S
H1943 C1948 0.929 . S
H1944 C1950 0.930 . S
C1945 H1942 0.929 . S
C1945 C1946 1.398 . S
C1945 C1947 1.396 . S
C1946 C1945 1.398 . S
C1946 C1950 1.407 . S
C1947 C1945 1.396 . S
C1947 C1948 1.394 . S
C1948 H1943 0.929 . S
C1948 C1947 1.394 . S
C1948 C1949 1.382 . S
C1949 C1948 1.382 . S
C1949 C1950 1.392 . S
C1949 N1951 1.420 . S
C1950 H1944 0.930 . S
C1950 C1946 1.407 . S
C1950 C1949 1.392 . S
N1951 C1949 1.420 . S
N1951 C1952 1.244 . S
C1952 N1951 1.244 . S
H1953 C1956 0.929 . S
H1954 C1959 0.929 . S
H1955 C1961 0.930 . S
C1956 H1953 0.929 . S
C1956 C1957 1.398 . S
C1956 C1958 1.396 . S
C1957 C1956 1.398 . S
C1957 C1961 1.407 . S
C1958 C1956 1.396 . S
C1958 C1959 1.394 . S
C1959 H1954 0.929 . S
C1959 C1958 1.394 . S
C1959 C1960 1.382 . S
C1960 C1959 1.382 . S
C1960 C1961 1.392 . S
C1960 N1962 1.420 . S
C1961 H1955 0.930 . S
C1961 C1957 1.407 . S
C1961 C1960 1.392 . S
N1962 C1960 1.420 . S
N1962 C1963 1.244 . S
C1963 N1962 1.244 . S
H1964 C1967 0.929 . S
H1965 C1970 0.929 . S
H1966 C1972 0.930 . S
C1967 H1964 0.929 . S
C1967 C1968 1.398 . S
C1967 C1969 1.396 . S
C1968 C1967 1.398 . S
C1968 C1972 1.407 . S
C1969 C1967 1.396 . S
C1969 C1970 1.394 . S
C1970 H1965 0.929 . S
C1970 C1969 1.394 . S
C1970 C1971 1.382 . S
C1971 C1970 1.382 . S
C1971 C1972 1.392 . S
C1971 N1973 1.420 . S
C1972 H1966 0.930 . S
C1972 C1968 1.407 . S
C1972 C1971 1.392 . S
N1973 C1971 1.420 . S
N1973 C1974 1.244 . S
C1974 N1973 1.244 . S
H1975 C1978 0.929 . S
H1976 C1981 0.929 . S
H1977 C1983 0.930 . S
C1978 H1975 0.929 . S
C1978 C1979 1.398 . S
C1978 C1980 1.396 . S
C1979 C1978 1.398 . S
C1979 C1983 1.407 . S
C1980 C1978 1.396 . S
C1980 C1981 1.394 . S
C1981 H1976 0.929 . S
C1981 C1980 1.394 . S
C1981 C1982 1.382 . S
C1982 C1981 1.382 . S
C1982 C1983 1.392 . S
C1982 N1984 1.420 . S
C1983 H1977 0.930 . S
C1983 C1979 1.407 . S
C1983 C1982 1.392 . S
N1984 C1982 1.420 . S
N1984 C1985 1.244 . S
C1985 N1984 1.244 . S
H1986 C1989 0.929 . S
H1987 C1992 0.929 . S
H1988 C1994 0.930 . S
C1989 H1986 0.929 . S
C1989 C1990 1.398 . S
C1989 C1991 1.396 . S
C1990 C1989 1.398 . S
C1990 C1994 1.407 . S
C1991 C1989 1.396 . S
C1991 C1992 1.394 . S
C1992 H1987 0.929 . S
C1992 C1991 1.394 . S
C1992 C1993 1.382 . S
C1993 C1992 1.382 . S
C1993 C1994 1.392 . S
C1993 N1995 1.420 . S
C1994 H1988 0.930 . S
C1994 C1990 1.407 . S
C1994 C1993 1.392 . S
N1995 C1993 1.420 . S
N1995 C1996 1.244 . S
C1996 N1995 1.244 . S
H1997 C2000 0.929 . S
H1998 C2003 0.929 . S
H1999 C2005 0.930 . S
C2000 H1997 0.929 . S
C2000 C2001 1.398 . S
C2000 C2002 1.396 . S
C2001 C2000 1.398 . S
C2001 C2005 1.407 . S
C2002 C2000 1.396 . S
C2002 C2003 1.394 . S
C2003 H1998 0.929 . S
C2003 C2002 1.394 . S
C2003 C2004 1.382 . S
C2004 C2003 1.382 . S
C2004 C2005 1.392 . S
C2004 N2006 1.420 . S
C2005 H1999 0.930 . S
C2005 C2001 1.407 . S
C2005 C2004 1.392 . S
N2006 C2004 1.420 . S
N2006 C2007 1.244 . S
C2007 N2006 1.244 . S
H2008 C2011 0.929 . S
H2009 C2014 0.929 . S
H2010 C2016 0.930 . S
C2011 H2008 0.929 . S
C2011 C2012 1.398 . S
C2011 C2013 1.396 . S
C2012 C2011 1.398 . S
C2012 C2016 1.407 . S
C2013 C2011 1.396 . S
C2013 C2014 1.394 . S
C2014 H2009 0.929 . S
C2014 C2013 1.394 . S
C2014 C2015 1.382 . S
C2015 C2014 1.382 . S
C2015 C2016 1.392 . S
C2015 N2017 1.420 . S
C2016 H2010 0.930 . S
C2016 C2012 1.407 . S
C2016 C2015 1.392 . S
N2017 C2015 1.420 . S
N2017 C2018 1.244 . S
C2018 N2017 1.244 . S
H2019 C2022 0.929 . S
H2020 C2025 0.929 . S
H2021 C2027 0.930 . S
C2022 H2019 0.929 . S
C2022 C2023 1.398 . S
C2022 C2024 1.396 . S
C2023 C2022 1.398 . S
C2023 C2027 1.407 . S
C2024 C2022 1.396 . S
C2024 C2025 1.394 . S
C2025 H2020 0.929 . S
C2025 C2024 1.394 . S
C2025 C2026 1.382 . S
C2026 C2025 1.382 . S
C2026 C2027 1.392 . S
C2026 N2028 1.420 . S
C2027 H2021 0.930 . S
C2027 C2023 1.407 . S
C2027 C2026 1.392 . S
N2028 C2026 1.420 . S
N2028 C2029 1.244 . S
C2029 N2028 1.244 . S
H2030 C2033 0.929 . S
H2031 C2036 0.929 . S
H2032 C2038 0.930 . S
C2033 H2030 0.929 . S
C2033 C2034 1.398 . S
C2033 C2035 1.396 . S
C2034 C2033 1.398 . S
C2034 C2038 1.407 . S
C2035 C2033 1.396 . S
C2035 C2036 1.394 . S
C2036 H2031 0.929 . S
C2036 C2035 1.394 . S
C2036 C2037 1.382 . S
C2037 C2036 1.382 . S
C2037 C2038 1.392 . S
C2037 N2039 1.420 . S
C2038 H2032 0.930 . S
C2038 C2034 1.407 . S
C2038 C2037 1.392 . S
N2039 C2037 1.420 . S
N2039 C2040 1.244 . S
C2040 N2039 1.244 . S
H2041 C2044 0.929 . S
H2042 C2047 0.929 . S
H2043 C2049 0.930 . S
C2044 H2041 0.929 . S
C2044 C2045 1.398 . S
C2044 C2046 1.396 . S
C2045 C2044 1.398 . S
C2045 C2049 1.407 . S
C2046 C2044 1.396 . S
C2046 C2047 1.394 . S
C2047 H2042 0.929 . S
C2047 C2046 1.394 . S
C2047 C2048 1.382 . S
C2048 C2047 1.382 . S
C2048 C2049 1.392 . S
C2048 N2050 1.420 . S
C2049 H2043 0.930 . S
C2049 C2045 1.407 . S
C2049 C2048 1.392 . S
N2050 C2048 1.420 . S
N2050 C2051 1.244 . S
C2051 N2050 1.244 . S
H2052 C2055 0.929 . S
H2053 C2058 0.929 . S
H2054 C2060 0.930 . S
C2055 H2052 0.929 . S
C2055 C2056 1.398 . S
C2055 C2057 1.396 . S
C2056 C2055 1.398 . S
C2056 C2060 1.407 . S
C2057 C2055 1.396 . S
C2057 C2058 1.394 . S
C2058 H2053 0.929 . S
C2058 C2057 1.394 . S
C2058 C2059 1.382 . S
C2059 C2058 1.382 . S
C2059 C2060 1.392 . S
C2059 N2061 1.420 . S
C2060 H2054 0.930 . S
C2060 C2056 1.407 . S
C2060 C2059 1.392 . S
N2061 C2059 1.420 . S
N2061 C2062 1.244 1_455 S
C2062 N2061 1.244 1_655 S
H2063 C2066 0.929 . S
H2064 C2069 0.929 . S
H2065 C2071 0.930 . S
C2066 H2063 0.929 . S
C2066 C2067 1.398 . S
C2066 C2068 1.396 . S
C2067 C2066 1.398 . S
C2067 C2071 1.407 . S
C2068 C2066 1.396 . S
C2068 C2069 1.394 . S
C2069 H2064 0.929 . S
C2069 C2068 1.394 . S
C2069 C2070 1.382 . S
C2070 C2069 1.382 . S
C2070 C2071 1.392 . S
C2070 N2072 1.420 . S
C2071 H2065 0.930 . S
C2071 C2067 1.407 . S
C2071 C2070 1.392 . S
N2072 C2070 1.420 . S
N2072 C2073 1.244 . S
C2073 N2072 1.244 . S
H2074 C2077 0.929 . S
H2075 C2080 0.929 . S
H2076 C2082 0.930 . S
C2077 H2074 0.929 . S
C2077 C2078 1.398 . S
C2077 C2079 1.396 . S
C2078 C2077 1.398 . S
C2078 C2082 1.407 . S
C2079 C2077 1.396 . S
C2079 C2080 1.394 . S
C2080 H2075 0.929 . S
C2080 C2079 1.394 . S
C2080 C2081 1.382 . S
C2081 C2080 1.382 . S
C2081 C2082 1.392 . S
C2081 N2083 1.420 . S
C2082 H2076 0.930 . S
C2082 C2078 1.407 . S
C2082 C2081 1.392 . S
N2083 C2081 1.420 . S
N2083 C2084 1.244 . S
C2084 N2083 1.244 . S
H2085 C2088 0.929 . S
H2086 C2091 0.929 . S
H2087 C2093 0.930 . S
C2088 H2085 0.929 . S
C2088 C2089 1.398 . S
C2088 C2090 1.396 . S
C2089 C2088 1.398 . S
C2089 C2093 1.407 . S
C2090 C2088 1.396 . S
C2090 C2091 1.394 . S
C2091 H2086 0.929 . S
C2091 C2090 1.394 . S
C2091 C2092 1.382 . S
C2092 C2091 1.382 . S
C2092 C2093 1.392 . S
C2092 N2094 1.420 . S
C2093 H2087 0.930 . S
C2093 C2089 1.407 . S
C2093 C2092 1.392 . S
N2094 C2092 1.420 . S
N2094 C2095 1.244 . S
C2095 N2094 1.244 . S
H2096 C2099 0.929 . S
H2097 C2102 0.929 . S
H2098 C2104 0.930 . S
C2099 H2096 0.929 . S
C2099 C2100 1.398 . S
C2099 C2101 1.396 . S
C2100 C2099 1.398 . S
C2100 C2104 1.407 . S
C2101 C2099 1.396 . S
C2101 C2102 1.394 . S
C2102 H2097 0.929 . S
C2102 C2101 1.394 . S
C2102 C2103 1.382 . S
C2103 C2102 1.382 . S
C2103 C2104 1.392 . S
C2103 N2105 1.420 . S
C2104 H2098 0.930 . S
C2104 C2100 1.407 . S
C2104 C2103 1.392 . S
N2105 C2103 1.420 . S
N2105 C2106 1.244 . S
C2106 N2105 1.244 . S
H2107 C2110 0.929 . S
H2108 C2113 0.929 . S
H2109 C2115 0.930 . S
C2110 H2107 0.929 . S
C2110 C2111 1.398 . S
C2110 C2112 1.396 . S
C2111 C2110 1.398 . S
C2111 C2115 1.407 . S
C2112 C2110 1.396 . S
C2112 C2113 1.394 1_655 S
C2113 H2108 0.929 . S
C2113 C2112 1.394 1_455 S
C2113 C2114 1.382 . S
C2114 C2113 1.382 . S
C2114 C2115 1.392 1_455 S
C2114 N2116 1.420 . S
C2115 H2109 0.930 . S
C2115 C2111 1.407 . S
C2115 C2114 1.392 1_655 S
N2116 C2114 1.420 . S
N2116 C2117 1.244 . S
C2117 N2116 1.244 . S
H2118 C2121 0.929 . S
H2119 C2124 0.929 . S
H2120 C2126 0.930 . S
C2121 H2118 0.929 . S
C2121 C2122 1.398 . S
C2121 C2123 1.396 . S
C2122 C2121 1.398 . S
C2122 C2126 1.407 . S
C2123 C2121 1.396 . S
C2123 C2124 1.394 . S
C2124 H2119 0.929 . S
C2124 C2123 1.394 . S
C2124 C2125 1.382 . S
C2125 C2124 1.382 . S
C2125 C2126 1.392 . S
C2125 N2127 1.420 . S
C2126 H2120 0.930 . S
C2126 C2122 1.407 . S
C2126 C2125 1.392 . S
N2127 C2125 1.420 . S
N2127 C2128 1.244 . S
C2128 N2127 1.244 . S
H2129 C2132 0.929 . S
H2130 C2135 0.929 . S
H2131 C2137 0.930 . S
C2132 H2129 0.929 . S
C2132 C2133 1.398 . S
C2132 C2134 1.396 . S
C2133 C2132 1.398 . S
C2133 C2137 1.407 . S
C2134 C2132 1.396 . S
C2134 C2135 1.394 . S
C2135 H2130 0.929 . S
C2135 C2134 1.394 . S
C2135 C2136 1.382 . S
C2136 C2135 1.382 . S
C2136 C2137 1.392 . S
C2136 N2138 1.420 . S
C2137 H2131 0.930 . S
C2137 C2133 1.407 . S
C2137 C2136 1.392 . S
N2138 C2136 1.420 . S
N2138 C2139 1.244 . S
C2139 N2138 1.244 . S
H2140 C2143 0.929 . S
H2141 C2146 0.929 . S
H2142 C2148 0.930 . S
C2143 H2140 0.929 . S
C2143 C2144 1.398 . S
C2143 C2145 1.396 . S
C2144 C2143 1.398 . S
C2144 C2148 1.407 . S
C2145 C2143 1.396 . S
C2145 C2146 1.394 . S
C2146 H2141 0.929 . S
C2146 C2145 1.394 . S
C2146 C2147 1.382 . S
C2147 C2146 1.382 . S
C2147 C2148 1.392 . S
C2147 N2149 1.420 . S
C2148 H2142 0.930 . S
C2148 C2144 1.407 . S
C2148 C2147 1.392 . S
N2149 C2147 1.420 . S
N2149 C2150 1.244 . S
C2150 N2149 1.244 . S
H2151 C2154 0.929 . S
H2152 C2157 0.929 . S
H2153 C2159 0.930 . S
C2154 H2151 0.929 . S
C2154 C2155 1.398 . S
C2154 C2156 1.396 . S
C2155 C2154 1.398 . S
C2155 C2159 1.407 . S
C2156 C2154 1.396 . S
C2156 C2157 1.394 . S
C2157 H2152 0.929 . S
C2157 C2156 1.394 . S
C2157 C2158 1.382 . S
C2158 C2157 1.382 . S
C2158 C2159 1.392 . S
C2158 N2160 1.420 . S
C2159 H2153 0.930 . S
C2159 C2155 1.407 . S
C2159 C2158 1.392 . S
N2160 C2158 1.420 . S
N2160 C2161 1.244 . S
C2161 N2160 1.244 . S
H2162 C2165 0.929 . S
H2163 C2168 0.929 . S
H2164 C2170 0.930 . S
C2165 H2162 0.929 . S
C2165 C2166 1.398 . S
C2165 C2167 1.396 . S
C2166 C2165 1.398 . S
C2166 C2170 1.407 . S
C2167 C2165 1.396 . S
C2167 C2168 1.394 . S
C2168 H2163 0.929 . S
C2168 C2167 1.394 . S
C2168 C2169 1.382 . S
C2169 C2168 1.382 . S
C2169 C2170 1.392 . S
C2169 N2171 1.420 . S
C2170 H2164 0.930 . S
C2170 C2166 1.407 . S
C2170 C2169 1.392 . S
N2171 C2169 1.420 . S
N2171 C2172 1.244 . S
C2172 N2171 1.244 . S
H2173 C2176 0.929 . S
H2174 C2179 0.929 . S
H2175 C2181 0.930 . S
C2176 H2173 0.929 . S
C2176 C2177 1.398 . S
C2176 C2178 1.396 . S
C2177 C2176 1.398 . S
C2177 C2181 1.407 . S
C2178 C2176 1.396 . S
C2178 C2179 1.394 . S
C2179 H2174 0.929 . S
C2179 C2178 1.394 . S
C2179 C2180 1.382 . S
C2180 C2179 1.382 . S
C2180 C2181 1.392 . S
C2180 N2182 1.420 . S
C2181 H2175 0.930 . S
C2181 C2177 1.407 . S
C2181 C2180 1.392 . S
N2182 C2180 1.420 . S
N2182 C2183 1.244 . S
C2183 N2182 1.244 . S
H2184 C2187 0.929 . S
H2185 C2190 0.929 . S
H2186 C2192 0.930 . S
C2187 H2184 0.929 . S
C2187 C2188 1.398 . S
C2187 C2189 1.396 . S
C2188 C2187 1.398 . S
C2188 C2192 1.407 . S
C2189 C2187 1.396 . S
C2189 C2190 1.394 . S
C2190 H2185 0.929 . S
C2190 C2189 1.394 . S
C2190 C2191 1.382 . S
C2191 C2190 1.382 . S
C2191 C2192 1.392 . S
C2191 N2193 1.420 . S
C2192 H2186 0.930 . S
C2192 C2188 1.407 . S
C2192 C2191 1.392 . S
N2193 C2191 1.420 . S
N2193 C2194 1.244 . S
C2194 N2193 1.244 . S
H2195 C2198 0.929 . S
H2196 C2201 0.929 . S
H2197 C2203 0.930 . S
C2198 H2195 0.929 . S
C2198 C2199 1.398 . S
C2198 C2200 1.396 . S
C2199 C2198 1.398 . S
C2199 C2203 1.407 . S
C2200 C2198 1.396 . S
C2200 C2201 1.394 . S
C2201 H2196 0.929 . S
C2201 C2200 1.394 . S
C2201 C2202 1.382 . S
C2202 C2201 1.382 . S
C2202 C2203 1.392 . S
C2202 N2204 1.420 . S
C2203 H2197 0.930 . S
C2203 C2199 1.407 . S
C2203 C2202 1.392 . S
N2204 C2202 1.420 . S
N2204 C2205 1.244 . S
C2205 N2204 1.244 . S
H2206 C2209 0.929 . S
H2207 C2212 0.929 . S
H2208 C2214 0.930 . S
C2209 H2206 0.929 . S
C2209 C2210 1.398 . S
C2209 C2211 1.396 . S
C2210 C2209 1.398 . S
C2210 C2214 1.407 . S
C2211 C2209 1.396 . S
C2211 C2212 1.394 . S
C2212 H2207 0.929 . S
C2212 C2211 1.394 . S
C2212 C2213 1.382 . S
C2213 C2212 1.382 . S
C2213 C2214 1.392 . S
C2213 N2215 1.420 . S
C2214 H2208 0.930 . S
C2214 C2210 1.407 . S
C2214 C2213 1.392 . S
N2215 C2213 1.420 . S
N2215 C2216 1.244 . S
C2216 N2215 1.244 . S
H2217 C2220 0.929 . S
H2218 C2223 0.929 . S
H2219 C2225 0.930 . S
C2220 H2217 0.929 . S
C2220 C2221 1.398 . S
C2220 C2222 1.396 . S
C2221 C2220 1.398 . S
C2221 C2225 1.407 . S
C2222 C2220 1.396 . S
C2222 C2223 1.394 . S
C2223 H2218 0.929 . S
C2223 C2222 1.394 . S
C2223 C2224 1.382 . S
C2224 C2223 1.382 . S
C2224 C2225 1.392 . S
C2224 N2226 1.420 . S
C2225 H2219 0.930 . S
C2225 C2221 1.407 . S
C2225 C2224 1.392 . S
N2226 C2224 1.420 . S
N2226 C2227 1.244 . S
C2227 N2226 1.244 . S
H2228 C2231 0.929 . S
H2229 C2234 0.929 . S
H2230 C2236 0.930 . S
C2231 H2228 0.929 . S
C2231 C2232 1.398 . S
C2231 C2233 1.396 . S
C2232 C2231 1.398 . S
C2232 C2236 1.407 . S
C2233 C2231 1.396 . S
C2233 C2234 1.394 . S
C2234 H2229 0.929 . S
C2234 C2233 1.394 . S
C2234 C2235 1.382 . S
C2235 C2234 1.382 . S
C2235 C2236 1.392 . S
C2235 N2237 1.420 . S
C2236 H2230 0.930 . S
C2236 C2232 1.407 . S
C2236 C2235 1.392 . S
N2237 C2235 1.420 . S
N2237 C2238 1.244 . S
C2238 N2237 1.244 . S
H2239 C2242 0.929 . S
H2240 C2245 0.929 . S
H2241 C2247 0.930 . S
C2242 H2239 0.929 . S
C2242 C2243 1.398 . S
C2242 C2244 1.396 . S
C2243 C2242 1.398 . S
C2243 C2247 1.407 . S
C2244 C2242 1.396 . S
C2244 C2245 1.394 . S
C2245 H2240 0.929 . S
C2245 C2244 1.394 . S
C2245 C2246 1.382 . S
C2246 C2245 1.382 . S
C2246 C2247 1.392 . S
C2246 N2248 1.420 . S
C2247 H2241 0.930 . S
C2247 C2243 1.407 . S
C2247 C2246 1.392 . S
N2248 C2246 1.420 . S
N2248 C2249 1.244 . S
C2249 N2248 1.244 . S
H2250 C2253 0.929 . S
H2251 C2256 0.929 . S
H2252 C2258 0.930 . S
C2253 H2250 0.929 . S
C2253 C2254 1.398 . S
C2253 C2255 1.396 . S
C2254 C2253 1.398 . S
C2254 C2258 1.407 . S
C2255 C2253 1.396 . S
C2255 C2256 1.394 . S
C2256 H2251 0.929 . S
C2256 C2255 1.394 . S
C2256 C2257 1.382 . S
C2257 C2256 1.382 . S
C2257 C2258 1.392 . S
C2257 N2259 1.420 . S
C2258 H2252 0.930 . S
C2258 C2254 1.407 . S
C2258 C2257 1.392 . S
N2259 C2257 1.420 . S
N2259 C2260 1.244 . S
C2260 N2259 1.244 . S
H2261 C2264 0.929 . S
H2262 C2267 0.929 . S
H2263 C2269 0.930 . S
C2264 H2261 0.929 . S
C2264 C2265 1.398 . S
C2264 C2266 1.396 . S
C2265 C2264 1.398 . S
C2265 C2269 1.407 . S
C2266 C2264 1.396 . S
C2266 C2267 1.394 . S
C2267 H2262 0.929 . S
C2267 C2266 1.394 . S
C2267 C2268 1.382 . S
C2268 C2267 1.382 . S
C2268 C2269 1.392 . S
C2268 N2270 1.420 . S
C2269 H2263 0.930 . S
C2269 C2265 1.407 . S
C2269 C2268 1.392 . S
N2270 C2268 1.420 . S
N2270 C2271 1.244 . S
C2271 N2270 1.244 . S
H2272 C2275 0.972 . S
H2273 C2278 0.929 . S
H2274 C2280 0.930 . S
C2275 H2272 0.972 . S
C2275 C2276 1.398 . S
C2275 C2277 1.396 . S
C2276 C2275 1.398 . S
C2276 C2280 1.407 . S
C2277 C2275 1.396 . S
C2277 C2278 1.394 . S
C2278 H2273 0.929 . S
C2278 C2277 1.394 . S
C2278 C2279 1.382 . S
C2279 C2278 1.382 . S
C2279 C2280 1.392 . S
C2279 N2281 1.420 . S
C2280 H2274 0.930 . S
C2280 C2276 1.407 . S
C2280 C2279 1.392 . S
N2281 C2279 1.420 . S
N2281 C2282 1.244 . S
C2282 N2281 1.244 . S
H2283 C2286 0.929 . S
H2284 C2289 0.929 . S
H2285 C2291 0.930 . S
C2286 H2283 0.929 . S
C2286 C2287 1.398 . S
C2286 C2288 1.396 . S
C2287 C2286 1.398 . S
C2287 C2291 1.407 . S
C2288 C2286 1.396 . S
C2288 C2289 1.394 1_655 S
C2289 H2284 0.929 . S
C2289 C2288 1.394 1_455 S
C2289 C2290 1.382 . S
C2290 C2289 1.382 . S
C2290 C2291 1.392 1_455 S
C2290 N2292 1.420 . S
C2291 H2285 0.930 . S
C2291 C2287 1.407 . S
C2291 C2290 1.392 1_655 S
N2292 C2290 1.420 . S
N2292 C2293 1.244 . S
C2293 N2292 1.244 . S
H2294 C2297 0.929 . S
H2295 C2300 0.929 . S
H2296 C2302 0.930 . S
C2297 H2294 0.929 . S
C2297 C2298 1.398 . S
C2297 C2299 1.396 . S
C2298 C2297 1.398 . S
C2298 C2302 1.407 . S
C2299 C2297 1.396 . S
C2299 C2300 1.394 . S
C2300 H2295 0.929 . S
C2300 C2299 1.394 . S
C2300 C2301 1.382 . S
C2301 C2300 1.382 . S
C2301 C2302 1.392 . S
C2301 N2303 1.420 . S
C2302 H2296 0.930 . S
C2302 C2298 1.407 . S
C2302 C2301 1.392 . S
N2303 C2301 1.420 . S
N2303 C2304 1.244 . S
C2304 N2303 1.244 . S
H2305 C2308 0.929 . S
H2306 C2311 0.929 . S
H2307 C2313 0.930 . S
C2308 H2305 0.929 . S
C2308 C2309 1.398 . S
C2308 C2310 1.396 . S
C2309 C2308 1.398 . S
C2309 C2313 1.407 . S
C2310 C2308 1.396 . S
C2310 C2311 1.394 . S
C2311 H2306 0.929 . S
C2311 C2310 1.394 . S
C2311 C2312 1.382 . S
C2312 C2311 1.382 . S
C2312 C2313 1.392 . S
C2312 N2314 1.420 . S
C2313 H2307 0.930 . S
C2313 C2309 1.407 . S
C2313 C2312 1.392 . S
N2314 C2312 1.420 . S
N2314 C2315 1.244 . S
C2315 N2314 1.244 . S
H2316 C2319 0.929 . S
H2317 C2322 0.929 . S
H2318 C2324 0.930 . S
C2319 H2316 0.929 . S
C2319 C2320 1.398 . S
C2319 C2321 1.396 . S
C2320 C2319 1.398 . S
C2320 C2324 1.407 . S
C2321 C2319 1.396 . S
C2321 C2322 1.394 . S
C2322 H2317 0.929 . S
C2322 C2321 1.394 . S
C2322 C2323 1.382 . S
C2323 C2322 1.382 . S
C2323 C2324 1.392 . S
C2323 N2325 1.420 . S
C2324 H2318 0.930 . S
C2324 C2320 1.407 . S
C2324 C2323 1.392 . S
N2325 C2323 1.420 . S
N2325 C2326 1.244 . S
C2326 N2325 1.244 . S
H2327 C2330 0.929 . S
H2328 C2333 0.929 . S
H2329 C2335 0.930 . S
C2330 H2327 0.929 . S
C2330 C2331 1.398 . S
C2330 C2332 1.396 . S
C2331 C2330 1.398 . S
C2331 C2335 1.407 . S
C2332 C2330 1.396 . S
C2332 C2333 1.394 . S
C2333 H2328 0.929 . S
C2333 C2332 1.394 . S
C2333 C2334 1.382 . S
C2334 C2333 1.382 . S
C2334 C2335 1.392 . S
C2334 N2336 1.420 . S
C2335 H2329 0.930 . S
C2335 C2331 1.407 . S
C2335 C2334 1.392 . S
N2336 C2334 1.420 . S
N2336 C2337 1.244 . S
C2337 N2336 1.244 . S
H2338 C2341 0.929 . S
H2339 C2344 0.929 . S
H2340 C2346 0.930 . S
C2341 H2338 0.929 . S
C2341 C2342 1.398 . S
C2341 C2343 1.396 . S
C2342 C2341 1.398 . S
C2342 C2346 1.407 . S
C2343 C2341 1.396 . S
C2343 C2344 1.394 1_455 S
C2344 H2339 0.929 . S
C2344 C2343 1.394 1_655 S
C2344 C2345 1.382 . S
C2345 C2344 1.382 . S
C2345 C2346 1.392 1_655 S
C2345 N2347 1.420 . S
C2346 H2340 0.930 . S
C2346 C2342 1.407 . S
C2346 C2345 1.392 1_455 S
N2347 C2345 1.420 . S
N2347 C2348 1.244 . S
C2348 N2347 1.244 . S
H2349 C2352 0.929 . S
H2350 C2355 0.929 . S
H2351 C2357 0.930 . S
C2352 H2349 0.929 . S
C2352 C2353 1.398 . S
C2352 C2354 1.396 . S
C2353 C2352 1.398 . S
C2353 C2357 1.407 . S
C2354 C2352 1.396 . S
C2354 C2355 1.394 . S
C2355 H2350 0.929 . S
C2355 C2354 1.394 . S
C2355 C2356 1.382 . S
C2356 C2355 1.382 . S
C2356 C2357 1.392 . S
C2356 N2358 1.420 . S
C2357 H2351 0.930 . S
C2357 C2353 1.407 . S
C2357 C2356 1.392 . S
N2358 C2356 1.420 . S
N2358 C2359 1.244 . S
C2359 N2358 1.244 . S
H2360 C2363 0.929 . S
H2361 C2366 0.929 . S
H2362 C2368 0.930 . S
C2363 H2360 0.929 . S
C2363 C2364 1.398 . S
C2363 C2365 1.396 . S
C2364 C2363 1.398 . S
C2364 C2368 1.407 . S
C2365 C2363 1.396 . S
C2365 C2366 1.394 . S
C2366 H2361 0.929 . S
C2366 C2365 1.394 . S
C2366 C2367 1.382 . S
C2367 C2366 1.382 . S
C2367 C2368 1.392 . S
C2367 N2369 1.420 . S
C2368 H2362 0.930 . S
C2368 C2364 1.407 . S
C2368 C2367 1.392 . S
N2369 C2367 1.420 . S
N2369 C2370 1.244 . S
C2370 N2369 1.244 . S
H2371 C2374 0.929 . S
H2372 C2377 0.929 . S
H2373 C2379 0.930 . S
C2374 H2371 0.929 . S
C2374 C2375 1.398 . S
C2374 C2376 1.396 . S
C2375 C2374 1.398 . S
C2375 C2379 1.407 . S
C2376 C2374 1.396 . S
C2376 C2377 1.394 . S
C2377 H2372 0.929 . S
C2377 C2376 1.394 . S
C2377 C2378 1.382 . S
C2378 C2377 1.382 . S
C2378 C2379 1.392 . S
C2378 N2380 1.420 . S
C2379 H2373 0.930 . S
C2379 C2375 1.407 . S
C2379 C2378 1.392 . S
N2380 C2378 1.420 . S
N2380 C2381 1.244 . S
C2381 N2380 1.244 . S
H2382 C2385 0.929 . S
H2383 C2388 0.929 . S
H2384 C2390 0.930 . S
C2385 H2382 0.929 . S
C2385 C2386 1.398 . S
C2385 C2387 1.396 . S
C2386 C2385 1.398 . S
C2386 C2390 1.407 . S
C2387 C2385 1.396 . S
C2387 C2388 1.394 . S
C2388 H2383 0.929 . S
C2388 C2387 1.394 . S
C2388 C2389 1.382 . S
C2389 C2388 1.382 . S
C2389 C2390 1.392 . S
C2389 N2391 1.420 . S
C2390 H2384 0.930 . S
C2390 C2386 1.407 . S
C2390 C2389 1.392 . S
N2391 C2389 1.420 . S
N2391 C2392 1.244 . S
C2392 N2391 1.244 . S
H2393 C2396 0.929 . S
H2394 C2399 0.929 . S
H2395 C2401 0.930 . S
C2396 H2393 0.929 . S
C2396 C2397 1.398 . S
C2396 C2398 1.396 . S
C2397 C2396 1.398 . S
C2397 C2401 1.407 . S
C2398 C2396 1.396 . S
C2398 C2399 1.394 . S
C2399 H2394 0.929 . S
C2399 C2398 1.394 . S
C2399 C2400 1.382 . S
C2400 C2399 1.382 . S
C2400 C2401 1.392 . S
C2400 N2402 1.420 . S
C2401 H2395 0.930 . S
C2401 C2397 1.407 . S
C2401 C2400 1.392 . S
N2402 C2400 1.420 . S
N2402 C2403 1.244 . S
C2403 N2402 1.244 . S
H2404 C2407 0.929 . S
H2405 C2410 0.929 . S
H2406 C2412 0.930 . S
C2407 H2404 0.929 . S
C2407 C2408 1.398 . S
C2407 C2409 1.396 . S
C2408 C2407 1.398 . S
C2408 C2412 1.407 . S
C2409 C2407 1.396 . S
C2409 C2410 1.394 . S
C2410 H2405 0.929 . S
C2410 C2409 1.394 . S
C2410 C2411 1.382 . S
C2411 C2410 1.382 . S
C2411 C2412 1.392 . S
C2411 N2413 1.420 . S
C2412 H2406 0.930 . S
C2412 C2408 1.407 . S
C2412 C2411 1.392 . S
N2413 C2411 1.420 . S
N2413 C2414 1.244 . S
C2414 N2413 1.244 . S
H2415 C2418 0.929 . S
H2416 C2421 0.929 . S
H2417 C2423 0.930 . S
C2418 H2415 0.929 . S
C2418 C2419 1.398 . S
C2418 C2420 1.396 . S
C2419 C2418 1.398 . S
C2419 C2423 1.407 . S
C2420 C2418 1.396 . S
C2420 C2421 1.394 . S
C2421 H2416 0.929 . S
C2421 C2420 1.394 . S
C2421 C2422 1.382 . S
C2422 C2421 1.382 . S
C2422 C2423 1.392 . S
C2422 N2424 1.420 . S
C2423 H2417 0.930 . S
C2423 C2419 1.407 . S
C2423 C2422 1.392 . S
N2424 C2422 1.420 . S
N2424 C2425 1.244 . S
C2425 N2424 1.244 . S
H2426 C2429 0.929 . S
H2427 C2432 0.929 . S
H2428 C2434 0.930 . S
C2429 H2426 0.929 . S
C2429 C2430 1.398 . S
C2429 C2431 1.396 . S
C2430 C2429 1.398 . S
C2430 C2434 1.407 . S
C2431 C2429 1.396 . S
C2431 C2432 1.394 . S
C2432 H2427 0.929 . S
C2432 C2431 1.394 . S
C2432 C2433 1.382 . S
C2433 C2432 1.382 . S
C2433 C2434 1.392 . S
C2433 N2435 1.420 . S
C2434 H2428 0.930 . S
C2434 C2430 1.407 . S
C2434 C2433 1.392 . S
N2435 C2433 1.420 . S
N2435 C2436 1.244 . S
C2436 N2435 1.244 . S
H2437 C2440 0.929 . S
H2438 C2443 0.929 . S
H2439 C2445 0.930 . S
C2440 H2437 0.929 . S
C2440 C2441 1.398 . S
C2440 C2442 1.396 . S
C2441 C2440 1.398 . S
C2441 C2445 1.407 . S
C2442 C2440 1.396 . S
C2442 C2443 1.394 . S
C2443 H2438 0.929 . S
C2443 C2442 1.394 . S
C2443 C2444 1.382 . S
C2444 C2443 1.382 . S
C2444 C2445 1.392 . S
C2444 N2446 1.420 . S
C2445 H2439 0.930 . S
C2445 C2441 1.407 . S
C2445 C2444 1.392 . S
N2446 C2444 1.420 . S
N2446 C2447 1.244 . S
C2447 N2446 1.244 . S
C2448 C2449 1.391 . S
C2448 C2450 1.394 . S
C2448 H2464 0.931 . S
C2449 C2448 1.391 . S
C2449 C2453 1.376 . S
C2450 C2448 1.394 . S
C2450 C2451 1.369 . S
C2450 C2454 1.531 . S
C2451 C2450 1.369 . S
C2451 C2452 1.410 . S
C2451 C2459 1.503 . S
C2452 C2451 1.410 . S
C2452 C2453 1.392 . S
C2452 C2455 1.511 . S
C2453 C2449 1.376 . S
C2453 C2452 1.392 . S
C2453 H2465 0.929 . S
C2454 C2450 1.531 . S
C2454 H2466 0.960 . S
C2454 H2467 0.962 . S
C2454 H2468 0.960 . S
C2455 C2452 1.511 . S
C2455 H2469 0.961 . S
C2455 H2470 0.961 . S
C2455 H2471 0.961 . S
C2456 C2457 1.370 . S
C2456 C2458 1.363 . S
C2456 H2472 0.931 . S
C2457 C2456 1.370 . S
C2457 C2461 1.408 . S
C2458 C2456 1.363 . S
C2458 C2459 1.370 . S
C2458 C2462 1.524 . S
C2459 C2451 1.503 . S
C2459 C2458 1.370 . S
C2459 C2460 1.403 . S
C2460 C2459 1.403 . S
C2460 C2461 1.404 . S
C2460 C2463 1.539 . S
C2461 C2457 1.408 . S
C2461 C2460 1.404 . S
C2461 H2473 0.930 . S
C2462 C2458 1.524 . S
C2462 H2474 0.956 . S
C2462 H2475 0.961 . S
C2462 H2476 0.961 . S
C2463 C2460 1.539 . S
C2463 H2477 0.958 . S
C2463 H2478 0.961 . S
C2463 H2479 0.960 . S
H2464 C2448 0.931 . S
H2465 C2453 0.929 . S
H2466 C2454 0.960 . S
H2467 C2454 0.962 . S
H2468 C2454 0.960 . S
H2469 C2455 0.961 . S
H2470 C2455 0.961 . S
H2471 C2455 0.961 . S
H2472 C2456 0.931 . S
H2473 C2461 0.930 . S
H2474 C2462 0.956 . S
H2475 C2462 0.961 . S
H2476 C2462 0.961 . S
H2477 C2463 0.958 . S
H2478 C2463 0.961 . S
H2479 C2463 0.960 . S
C2480 C2481 1.391 . S
C2480 C2482 1.394 . S
C2480 H2496 0.931 . S
C2481 C2480 1.391 . S
C2481 C2485 1.376 . S
C2482 C2480 1.394 . S
C2482 C2483 1.369 . S
C2482 C2486 1.531 . S
C2483 C2482 1.369 . S
C2483 C2484 1.410 . S
C2483 C2491 1.503 . S
C2484 C2483 1.410 . S
C2484 C2485 1.392 . S
C2484 C2487 1.511 . S
C2485 C2481 1.376 . S
C2485 C2484 1.392 . S
C2485 H2497 0.929 . S
C2486 C2482 1.531 . S
C2486 H2498 0.960 . S
C2486 H2499 0.962 . S
C2486 H2500 0.960 . S
C2487 C2484 1.511 . S
C2487 H2501 0.961 . S
C2487 H2502 0.961 . S
C2487 H2503 0.961 . S
C2488 C2489 1.370 . S
C2488 C2490 1.363 . S
C2488 H2504 0.931 . S
C2489 C2488 1.370 . S
C2489 C2493 1.408 . S
C2490 C2488 1.363 . S
C2490 C2491 1.370 . S
C2490 C2494 1.524 . S
C2491 C2483 1.503 . S
C2491 C2490 1.370 . S
C2491 C2492 1.403 . S
C2492 C2491 1.403 . S
C2492 C2493 1.404 . S
C2492 C2495 1.539 . S
C2493 C2489 1.408 . S
C2493 C2492 1.404 . S
C2493 H2505 0.930 . S
C2494 C2490 1.524 . S
C2494 H2506 0.956 . S
C2494 H2507 0.961 . S
C2494 H2508 0.961 . S
C2495 C2492 1.539 . S
C2495 H2509 0.958 . S
C2495 H2510 0.961 . S
C2495 H2511 0.960 . S
H2496 C2480 0.931 . S
H2497 C2485 0.929 . S
H2498 C2486 0.960 . S
H2499 C2486 0.962 . S
H2500 C2486 0.960 . S
H2501 C2487 0.961 . S
H2502 C2487 0.961 . S
H2503 C2487 0.961 . S
H2504 C2488 0.931 . S
H2505 C2493 0.930 . S
H2506 C2494 0.956 . S
H2507 C2494 0.961 . S
H2508 C2494 0.961 . S
H2509 C2495 0.958 . S
H2510 C2495 0.961 . S
H2511 C2495 0.960 . S
C2512 C2513 1.391 . S
C2512 C2514 1.394 . S
C2512 H2528 0.931 . S
C2513 C2512 1.391 . S
C2513 C2517 1.376 . S
C2514 C2512 1.394 . S
C2514 C2515 1.369 . S
C2514 C2518 1.531 . S
C2515 C2514 1.369 . S
C2515 C2516 1.410 . S
C2515 C2523 1.503 . S
C2516 C2515 1.410 . S
C2516 C2517 1.392 . S
C2516 C2519 1.511 . S
C2517 C2513 1.376 . S
C2517 C2516 1.392 . S
C2517 H2529 0.929 . S
C2518 C2514 1.531 . S
C2518 H2530 0.960 . S
C2518 H2531 0.962 . S
C2518 H2532 0.960 . S
C2519 C2516 1.511 . S
C2519 H2533 0.961 . S
C2519 H2534 0.961 . S
C2519 H2535 0.961 . S
C2520 C2521 1.370 . S
C2520 C2522 1.363 . S
C2520 H2536 0.931 . S
C2521 C2520 1.370 . S
C2521 C2525 1.408 . S
C2522 C2520 1.363 . S
C2522 C2523 1.370 . S
C2522 C2526 1.524 . S
C2523 C2515 1.503 . S
C2523 C2522 1.370 . S
C2523 C2524 1.403 . S
C2524 C2523 1.403 . S
C2524 C2525 1.404 . S
C2524 C2527 1.539 . S
C2525 C2521 1.408 . S
C2525 C2524 1.404 . S
C2525 H2537 0.930 . S
C2526 C2522 1.524 . S
C2526 H2538 0.956 . S
C2526 H2539 0.961 . S
C2526 H2540 0.961 . S
C2527 C2524 1.539 . S
C2527 H2541 0.958 . S
C2527 H2542 0.961 . S
C2527 H2543 0.960 . S
H2528 C2512 0.931 . S
H2529 C2517 0.929 . S
H2530 C2518 0.960 . S
H2531 C2518 0.962 . S
H2532 C2518 0.960 . S
H2533 C2519 0.961 . S
H2534 C2519 0.961 . S
H2535 C2519 0.961 . S
H2536 C2520 0.931 . S
H2537 C2525 0.930 . S
H2538 C2526 0.956 . S
H2539 C2526 0.961 . S
H2540 C2526 0.961 . S
H2541 C2527 0.958 . S
H2542 C2527 0.961 . S
H2543 C2527 0.960 . S
C2544 C2545 1.391 . S
C2544 C2546 1.394 . S
C2544 H2560 0.931 . S
C2545 C2544 1.391 . S
C2545 C2549 1.376 . S
C2546 C2544 1.394 . S
C2546 C2547 1.369 . S
C2546 C2550 1.531 . S
C2547 C2546 1.369 . S
C2547 C2548 1.410 . S
C2547 C2555 1.503 . S
C2548 C2547 1.410 . S
C2548 C2549 1.392 . S
C2548 C2551 1.511 . S
C2549 C2545 1.376 . S
C2549 C2548 1.392 . S
C2549 H2561 0.929 . S
C2550 C2546 1.531 . S
C2550 H2562 0.960 . S
C2550 H2563 0.962 . S
C2550 H2564 0.960 . S
C2551 C2548 1.511 . S
C2551 H2565 0.961 . S
C2551 H2566 0.961 . S
C2551 H2567 0.961 . S
C2552 C2553 1.370 . S
C2552 C2554 1.363 . S
C2552 H2568 0.931 . S
C2553 C2552 1.370 . S
C2553 C2557 1.408 . S
C2554 C2552 1.363 . S
C2554 C2555 1.370 . S
C2554 C2558 1.524 . S
C2555 C2547 1.503 . S
C2555 C2554 1.370 . S
C2555 C2556 1.403 . S
C2556 C2555 1.403 . S
C2556 C2557 1.404 . S
C2556 C2559 1.539 . S
C2557 C2553 1.408 . S
C2557 C2556 1.404 . S
C2557 H2569 0.930 . S
C2558 C2554 1.524 . S
C2558 H2570 0.956 . S
C2558 H2571 0.961 . S
C2558 H2572 0.961 . S
C2559 C2556 1.539 . S
C2559 H2573 0.958 . S
C2559 H2574 0.961 . S
C2559 H2575 0.960 . S
H2560 C2544 0.931 . S
H2561 C2549 0.929 . S
H2562 C2550 0.960 . S
H2563 C2550 0.962 . S
H2564 C2550 0.960 . S
H2565 C2551 0.961 . S
H2566 C2551 0.961 . S
H2567 C2551 0.961 . S
H2568 C2552 0.931 . S
H2569 C2557 0.930 . S
H2570 C2558 0.956 . S
H2571 C2558 0.961 . S
H2572 C2558 0.961 . S
H2573 C2559 0.958 . S
H2574 C2559 0.961 . S
H2575 C2559 0.960 . S
C2576 C2577 1.391 . S
C2576 C2578 1.394 . S
C2576 H2592 0.931 . S
C2577 C2576 1.391 . S
C2577 C2581 1.376 . S
C2578 C2576 1.394 . S
C2578 C2579 1.369 . S
C2578 C2582 1.531 . S
C2579 C2578 1.369 . S
C2579 C2580 1.410 . S
C2579 C2587 1.503 . S
C2580 C2579 1.410 . S
C2580 C2581 1.392 . S
C2580 C2583 1.511 . S
C2581 C2577 1.376 . S
C2581 C2580 1.392 . S
C2581 H2593 0.929 . S
C2582 C2578 1.531 . S
C2582 H2594 0.960 . S
C2582 H2595 0.962 . S
C2582 H2596 0.960 . S
C2583 C2580 1.511 . S
C2583 H2597 0.961 . S
C2583 H2598 0.961 . S
C2583 H2599 0.961 . S
C2584 C2585 1.370 . S
C2584 C2586 1.363 . S
C2584 H2600 0.931 . S
C2585 C2584 1.370 . S
C2585 C2589 1.408 . S
C2586 C2584 1.363 . S
C2586 C2587 1.370 . S
C2586 C2590 1.524 . S
C2587 C2579 1.503 . S
C2587 C2586 1.370 . S
C2587 C2588 1.403 . S
C2588 C2587 1.403 . S
C2588 C2589 1.404 . S
C2588 C2591 1.539 . S
C2589 C2585 1.408 . S
C2589 C2588 1.404 . S
C2589 H2601 0.930 . S
C2590 C2586 1.524 . S
C2590 H2602 0.956 . S
C2590 H2603 0.961 . S
C2590 H2604 0.961 . S
C2591 C2588 1.539 . S
C2591 H2605 0.958 . S
C2591 H2606 0.961 . S
C2591 H2607 0.960 . S
H2592 C2576 0.931 . S
H2593 C2581 0.929 . S
H2594 C2582 0.960 . S
H2595 C2582 0.962 . S
H2596 C2582 0.960 . S
H2597 C2583 0.961 . S
H2598 C2583 0.961 . S
H2599 C2583 0.961 . S
H2600 C2584 0.931 . S
H2601 C2589 0.930 . S
H2602 C2590 0.956 . S
H2603 C2590 0.961 . S
H2604 C2590 0.961 . S
H2605 C2591 0.958 . S
H2606 C2591 0.961 . S
H2607 C2591 0.960 . S
C2608 C2609 1.391 . S
C2608 C2610 1.394 . S
C2608 H2624 0.931 . S
C2609 C2608 1.391 . S
C2609 C2613 1.376 . S
C2610 C2608 1.394 . S
C2610 C2611 1.369 . S
C2610 C2614 1.531 . S
C2611 C2610 1.369 . S
C2611 C2612 1.410 . S
C2611 C2619 1.503 . S
C2612 C2611 1.410 . S
C2612 C2613 1.392 . S
C2612 C2615 1.511 . S
C2613 C2609 1.376 . S
C2613 C2612 1.392 . S
C2613 H2625 0.929 . S
C2614 C2610 1.531 . S
C2614 H2626 0.960 . S
C2614 H2627 0.962 . S
C2614 H2628 0.960 . S
C2615 C2612 1.511 . S
C2615 H2629 0.961 . S
C2615 H2630 0.961 . S
C2615 H2631 0.961 . S
C2616 C2617 1.370 . S
C2616 C2618 1.363 . S
C2616 H2632 0.931 . S
C2617 C2616 1.370 . S
C2617 C2621 1.408 . S
C2618 C2616 1.363 . S
C2618 C2619 1.370 . S
C2618 C2622 1.524 . S
C2619 C2611 1.503 . S
C2619 C2618 1.370 . S
C2619 C2620 1.403 . S
C2620 C2619 1.403 . S
C2620 C2621 1.404 . S
C2620 C2623 1.539 . S
C2621 C2617 1.408 . S
C2621 C2620 1.404 . S
C2621 H2633 0.930 . S
C2622 C2618 1.524 . S
C2622 H2634 0.956 . S
C2622 H2635 0.961 . S
C2622 H2636 0.961 . S
C2623 C2620 1.539 . S
C2623 H2637 0.958 . S
C2623 H2638 0.961 . S
C2623 H2639 0.960 . S
H2624 C2608 0.931 . S
H2625 C2613 0.929 . S
H2626 C2614 0.960 . S
H2627 C2614 0.962 . S
H2628 C2614 0.960 . S
H2629 C2615 0.961 . S
H2630 C2615 0.961 . S
H2631 C2615 0.961 . S
H2632 C2616 0.931 . S
H2633 C2621 0.930 . S
H2634 C2622 0.956 . S
H2635 C2622 0.961 . S
H2636 C2622 0.961 . S
H2637 C2623 0.958 . S
H2638 C2623 0.961 . S
H2639 C2623 0.960 . S
C2640 C2641 1.391 . S
C2640 C2642 1.394 . S
C2640 H2656 0.931 . S
C2641 C2640 1.391 . S
C2641 C2645 1.376 . S
C2642 C2640 1.394 . S
C2642 C2643 1.369 . S
C2642 C2646 1.531 . S
C2643 C2642 1.369 . S
C2643 C2644 1.410 . S
C2643 C2651 1.503 . S
C2644 C2643 1.410 . S
C2644 C2645 1.392 . S
C2644 C2647 1.511 . S
C2645 C2641 1.376 . S
C2645 C2644 1.392 . S
C2645 H2657 0.929 . S
C2646 C2642 1.531 . S
C2646 H2658 0.960 . S
C2646 H2659 0.962 . S
C2646 H2660 0.960 . S
C2647 C2644 1.511 . S
C2647 H2661 0.961 . S
C2647 H2662 0.961 . S
C2647 H2663 0.961 . S
C2648 C2649 1.370 . S
C2648 C2650 1.363 . S
C2648 H2664 0.931 . S
C2649 C2648 1.370 . S
C2649 C2653 1.408 . S
C2650 C2648 1.363 . S
C2650 C2651 1.370 . S
C2650 C2654 1.524 . S
C2651 C2643 1.503 . S
C2651 C2650 1.370 . S
C2651 C2652 1.403 . S
C2652 C2651 1.403 . S
C2652 C2653 1.404 . S
C2652 C2655 1.539 . S
C2653 C2649 1.408 . S
C2653 C2652 1.404 . S
C2653 H2665 0.930 . S
C2654 C2650 1.524 . S
C2654 H2666 0.956 . S
C2654 H2667 0.961 . S
C2654 H2668 0.961 . S
C2655 C2652 1.539 . S
C2655 H2669 0.958 . S
C2655 H2670 0.961 . S
C2655 H2671 0.960 . S
H2656 C2640 0.931 . S
H2657 C2645 0.929 . S
H2658 C2646 0.960 . S
H2659 C2646 0.962 . S
H2660 C2646 0.960 . S
H2661 C2647 0.961 . S
H2662 C2647 0.961 . S
H2663 C2647 0.961 . S
H2664 C2648 0.931 . S
H2665 C2653 0.930 . S
H2666 C2654 0.956 . S
H2667 C2654 0.961 . S
H2668 C2654 0.961 . S
H2669 C2655 0.958 . S
H2670 C2655 0.961 . S
H2671 C2655 0.960 . S
C2672 C2673 1.391 . S
C2672 C2674 1.394 . S
C2672 H2688 0.931 . S
C2673 C2672 1.391 . S
C2673 C2677 1.376 . S
C2674 C2672 1.394 . S
C2674 C2675 1.369 . S
C2674 C2678 1.531 . S
C2675 C2674 1.369 . S
C2675 C2676 1.410 . S
C2675 C2683 1.503 . S
C2676 C2675 1.410 . S
C2676 C2677 1.392 . S
C2676 C2679 1.511 . S
C2677 C2673 1.376 . S
C2677 C2676 1.392 . S
C2677 H2689 0.929 . S
C2678 C2674 1.531 . S
C2678 H2690 0.960 . S
C2678 H2691 0.962 . S
C2678 H2692 0.960 . S
C2679 C2676 1.511 . S
C2679 H2693 0.961 . S
C2679 H2694 0.961 . S
C2679 H2695 0.961 . S
C2680 C2681 1.370 . S
C2680 C2682 1.363 . S
C2680 H2696 0.931 . S
C2681 C2680 1.370 . S
C2681 C2685 1.408 . S
C2682 C2680 1.363 . S
C2682 C2683 1.370 . S
C2682 C2686 1.524 . S
C2683 C2675 1.503 . S
C2683 C2682 1.370 . S
C2683 C2684 1.403 . S
C2684 C2683 1.403 . S
C2684 C2685 1.404 . S
C2684 C2687 1.539 . S
C2685 C2681 1.408 . S
C2685 C2684 1.404 . S
C2685 H2697 0.930 . S
C2686 C2682 1.524 . S
C2686 H2698 0.956 . S
C2686 H2699 0.961 . S
C2686 H2700 0.961 . S
C2687 C2684 1.539 . S
C2687 H2701 0.958 . S
C2687 H2702 0.961 . S
C2687 H2703 0.960 . S
H2688 C2672 0.931 . S
H2689 C2677 0.929 . S
H2690 C2678 0.960 . S
H2691 C2678 0.962 . S
H2692 C2678 0.960 . S
H2693 C2679 0.961 . S
H2694 C2679 0.961 . S
H2695 C2679 0.961 . S
H2696 C2680 0.931 . S
H2697 C2685 0.930 . S
H2698 C2686 0.956 . S
H2699 C2686 0.961 . S
H2700 C2686 0.961 . S
H2701 C2687 0.958 . S
H2702 C2687 0.961 . S
H2703 C2687 0.960 . S
C2704 C2705 1.391 . S
C2704 C2706 1.394 . S
C2704 H2720 0.931 . S
C2705 C2704 1.391 . S
C2705 C2709 1.376 . S
C2706 C2704 1.394 . S
C2706 C2707 1.369 . S
C2706 C2710 1.531 . S
C2707 C2706 1.369 . S
C2707 C2708 1.410 . S
C2707 C2715 1.503 . S
C2708 C2707 1.410 . S
C2708 C2709 1.392 . S
C2708 C2711 1.511 . S
C2709 C2705 1.376 . S
C2709 C2708 1.392 . S
C2709 H2721 0.929 . S
C2710 C2706 1.531 . S
C2710 H2722 0.960 . S
C2710 H2723 0.962 . S
C2710 H2724 0.960 . S
C2711 C2708 1.511 . S
C2711 H2725 0.961 . S
C2711 H2726 0.961 . S
C2711 H2727 0.961 . S
C2712 C2713 1.370 . S
C2712 C2714 1.363 . S
C2712 H2728 0.931 . S
C2713 C2712 1.370 . S
C2713 C2717 1.408 . S
C2714 C2712 1.363 . S
C2714 C2715 1.370 . S
C2714 C2718 1.524 . S
C2715 C2707 1.503 . S
C2715 C2714 1.370 . S
C2715 C2716 1.403 . S
C2716 C2715 1.403 . S
C2716 C2717 1.404 . S
C2716 C2719 1.539 . S
C2717 C2713 1.408 . S
C2717 C2716 1.404 . S
C2717 H2729 0.930 . S
C2718 C2714 1.524 . S
C2718 H2730 0.956 . S
C2718 H2731 0.961 . S
C2718 H2732 0.961 . S
C2719 C2716 1.539 . S
C2719 H2733 0.958 . S
C2719 H2734 0.961 . S
C2719 H2735 0.960 . S
H2720 C2704 0.931 . S
H2721 C2709 0.929 . S
H2722 C2710 0.960 . S
H2723 C2710 0.962 . S
H2724 C2710 0.960 . S
H2725 C2711 0.961 . S
H2726 C2711 0.961 . S
H2727 C2711 0.961 . S
H2728 C2712 0.931 . S
H2729 C2717 0.930 . S
H2730 C2718 0.956 . S
H2731 C2718 0.961 . S
H2732 C2718 0.961 . S
H2733 C2719 0.958 . S
H2734 C2719 0.961 . S
H2735 C2719 0.960 . S
C2736 C2737 1.391 . S
C2736 C2738 1.394 . S
C2736 H2752 0.931 . S
C2737 C2736 1.391 . S
C2737 C2741 1.376 . S
C2738 C2736 1.394 . S
C2738 C2739 1.369 . S
C2738 C2742 1.531 . S
C2739 C2738 1.369 . S
C2739 C2740 1.410 . S
C2739 C2747 1.503 . S
C2740 C2739 1.410 . S
C2740 C2741 1.392 . S
C2740 C2743 1.511 . S
C2741 C2737 1.376 . S
C2741 C2740 1.392 . S
C2741 H2753 0.929 . S
C2742 C2738 1.531 . S
C2742 H2754 0.960 . S
C2742 H2755 0.962 . S
C2742 H2756 0.960 . S
C2743 C2740 1.511 . S
C2743 H2757 0.961 . S
C2743 H2758 0.961 . S
C2743 H2759 0.961 . S
C2744 C2745 1.370 . S
C2744 C2746 1.363 . S
C2744 H2760 0.931 . S
C2745 C2744 1.370 . S
C2745 C2749 1.408 . S
C2746 C2744 1.363 . S
C2746 C2747 1.370 . S
C2746 C2750 1.524 . S
C2747 C2739 1.503 . S
C2747 C2746 1.370 . S
C2747 C2748 1.403 . S
C2748 C2747 1.403 . S
C2748 C2749 1.404 . S
C2748 C2751 1.539 . S
C2749 C2745 1.408 . S
C2749 C2748 1.404 . S
C2749 H2761 0.930 . S
C2750 C2746 1.524 . S
C2750 H2762 0.956 . S
C2750 H2763 0.961 . S
C2750 H2764 0.961 . S
C2751 C2748 1.539 . S
C2751 H2765 0.958 . S
C2751 H2766 0.961 . S
C2751 H2767 0.960 . S
H2752 C2736 0.931 . S
H2753 C2741 0.929 . S
H2754 C2742 0.960 . S
H2755 C2742 0.962 . S
H2756 C2742 0.960 . S
H2757 C2743 0.961 . S
H2758 C2743 0.961 . S
H2759 C2743 0.961 . S
H2760 C2744 0.931 . S
H2761 C2749 0.930 . S
H2762 C2750 0.956 . S
H2763 C2750 0.961 . S
H2764 C2750 0.961 . S
H2765 C2751 0.958 . S
H2766 C2751 0.961 . S
H2767 C2751 0.960 . S
C2768 C2769 1.391 . S
C2768 C2770 1.394 . S
C2768 H2784 0.931 . S
C2769 C2768 1.391 . S
C2769 C2773 1.376 . S
C2770 C2768 1.394 . S
C2770 C2771 1.369 . S
C2770 C2774 1.531 . S
C2771 C2770 1.369 . S
C2771 C2772 1.410 . S
C2771 C2779 1.503 . S
C2772 C2771 1.410 . S
C2772 C2773 1.392 . S
C2772 C2775 1.511 . S
C2773 C2769 1.376 . S
C2773 C2772 1.392 . S
C2773 H2785 0.929 . S
C2774 C2770 1.531 . S
C2774 H2786 0.960 . S
C2774 H2787 0.962 . S
C2774 H2788 0.960 . S
C2775 C2772 1.511 . S
C2775 H2789 0.961 . S
C2775 H2790 0.961 . S
C2775 H2791 0.961 . S
C2776 C2777 1.370 . S
C2776 C2778 1.363 . S
C2776 H2792 0.931 . S
C2777 C2776 1.370 . S
C2777 C2781 1.408 . S
C2778 C2776 1.363 . S
C2778 C2779 1.370 . S
C2778 C2782 1.524 . S
C2779 C2771 1.503 . S
C2779 C2778 1.370 . S
C2779 C2780 1.403 . S
C2780 C2779 1.403 . S
C2780 C2781 1.404 . S
C2780 C2783 1.539 . S
C2781 C2777 1.408 . S
C2781 C2780 1.404 . S
C2781 H2793 0.930 . S
C2782 C2778 1.524 . S
C2782 H2794 0.956 . S
C2782 H2795 0.961 . S
C2782 H2796 0.961 . S
C2783 C2780 1.539 . S
C2783 H2797 0.958 . S
C2783 H2798 0.961 . S
C2783 H2799 0.960 . S
H2784 C2768 0.931 . S
H2785 C2773 0.929 . S
H2786 C2774 0.960 . S
H2787 C2774 0.962 . S
H2788 C2774 0.960 . S
H2789 C2775 0.961 . S
H2790 C2775 0.961 . S
H2791 C2775 0.961 . S
H2792 C2776 0.931 . S
H2793 C2781 0.930 . S
H2794 C2782 0.956 . S
H2795 C2782 0.961 . S
H2796 C2782 0.961 . S
H2797 C2783 0.958 . S
H2798 C2783 0.961 . S
H2799 C2783 0.960 . S
C2800 C2801 1.391 . S
C2800 C2802 1.394 . S
C2800 H2816 0.931 . S
C2801 C2800 1.391 . S
C2801 C2805 1.376 . S
C2802 C2800 1.394 . S
C2802 C2803 1.369 . S
C2802 C2806 1.531 . S
C2803 C2802 1.369 . S
C2803 C2804 1.410 . S
C2803 C2811 1.503 . S
C2804 C2803 1.410 . S
C2804 C2805 1.392 . S
C2804 C2807 1.511 . S
C2805 C2801 1.376 . S
C2805 C2804 1.392 . S
C2805 H2817 0.929 . S
C2806 C2802 1.531 . S
C2806 H2818 0.960 . S
C2806 H2819 0.962 . S
C2806 H2820 0.960 . S
C2807 C2804 1.511 . S
C2807 H2821 0.961 . S
C2807 H2822 0.961 . S
C2807 H2823 0.961 . S
C2808 C2809 1.370 . S
C2808 C2810 1.363 . S
C2808 H2824 0.931 . S
C2809 C2808 1.370 . S
C2809 C2813 1.408 . S
C2810 C2808 1.363 . S
C2810 C2811 1.370 . S
C2810 C2814 1.524 . S
C2811 C2803 1.503 . S
C2811 C2810 1.370 . S
C2811 C2812 1.403 . S
C2812 C2811 1.403 . S
C2812 C2813 1.404 . S
C2812 C2815 1.539 . S
C2813 C2809 1.408 . S
C2813 C2812 1.404 . S
C2813 H2825 0.930 . S
C2814 C2810 1.524 . S
C2814 H2826 0.956 . S
C2814 H2827 0.961 . S
C2814 H2828 0.961 . S
C2815 C2812 1.539 . S
C2815 H2829 0.958 . S
C2815 H2830 0.961 . S
C2815 H2831 0.960 . S
H2816 C2800 0.931 . S
H2817 C2805 0.929 . S
H2818 C2806 0.960 . S
H2819 C2806 0.962 . S
H2820 C2806 0.960 . S
H2821 C2807 0.961 . S
H2822 C2807 0.961 . S
H2823 C2807 0.961 . S
H2824 C2808 0.931 . S
H2825 C2813 0.930 . S
H2826 C2814 0.956 . S
H2827 C2814 0.961 . S
H2828 C2814 0.961 . S
H2829 C2815 0.958 . S
H2830 C2815 0.961 . S
H2831 C2815 0.960 . S
C2832 C2833 1.391 . S
C2832 C2834 1.394 . S
C2832 H2848 0.931 . S
C2833 C2832 1.391 . S
C2833 C2837 1.376 . S
C2834 C2832 1.394 . S
C2834 C2835 1.369 . S
C2834 C2838 1.531 . S
C2835 C2834 1.369 . S
C2835 C2836 1.410 . S
C2835 C2843 1.503 . S
C2836 C2835 1.410 . S
C2836 C2837 1.392 . S
C2836 C2839 1.511 . S
C2837 C2833 1.376 . S
C2837 C2836 1.392 . S
C2837 H2849 0.929 . S
C2838 C2834 1.531 . S
C2838 H2850 0.960 . S
C2838 H2851 0.962 1_455 S
C2838 H2852 0.960 . S
C2839 C2836 1.511 . S
C2839 H2853 0.961 . S
C2839 H2854 0.961 . S
C2839 H2855 0.961 . S
C2840 C2841 1.370 . S
C2840 C2842 1.363 . S
C2840 H2856 0.931 . S
C2841 C2840 1.370 . S
C2841 C2845 1.408 . S
C2842 C2840 1.363 . S
C2842 C2843 1.370 . S
C2842 C2846 1.524 . S
C2843 C2835 1.503 . S
C2843 C2842 1.370 . S
C2843 C2844 1.403 . S
C2844 C2843 1.403 . S
C2844 C2845 1.404 . S
C2844 C2847 1.539 . S
C2845 C2841 1.408 . S
C2845 C2844 1.404 . S
C2845 H2857 0.930 . S
C2846 C2842 1.524 . S
C2846 H2858 0.956 . S
C2846 H2859 0.961 . S
C2846 H2860 0.961 . S
C2847 C2844 1.539 . S
C2847 H2861 0.958 . S
C2847 H2862 0.961 . S
C2847 H2863 0.960 . S
H2848 C2832 0.931 . S
H2849 C2837 0.929 . S
H2850 C2838 0.960 . S
H2851 C2838 0.962 1_655 S
H2852 C2838 0.960 . S
H2853 C2839 0.961 . S
H2854 C2839 0.961 . S
H2855 C2839 0.961 . S
H2856 C2840 0.931 . S
H2857 C2845 0.930 . S
H2858 C2846 0.956 . S
H2859 C2846 0.961 . S
H2860 C2846 0.961 . S
H2861 C2847 0.958 . S
H2862 C2847 0.961 . S
H2863 C2847 0.960 . S
C2864 C2865 1.391 . S
C2864 C2866 1.394 . S
C2864 H2880 0.931 . S
C2865 C2864 1.391 . S
C2865 C2869 1.376 . S
C2866 C2864 1.394 . S
C2866 C2867 1.369 . S
C2866 C2870 1.531 . S
C2867 C2866 1.369 . S
C2867 C2868 1.410 . S
C2867 C2875 1.503 . S
C2868 C2867 1.410 . S
C2868 C2869 1.392 . S
C2868 C2871 1.511 . S
C2869 C2865 1.376 . S
C2869 C2868 1.392 . S
C2869 H2881 0.929 . S
C2870 C2866 1.531 . S
C2870 H2882 0.960 . S
C2870 H2883 0.962 . S
C2870 H2884 0.960 . S
C2871 C2868 1.511 . S
C2871 H2885 0.961 . S
C2871 H2886 0.961 . S
C2871 H2887 0.961 . S
C2872 C2873 1.370 . S
C2872 C2874 1.363 . S
C2872 H2888 0.931 . S
C2873 C2872 1.370 . S
C2873 C2877 1.408 . S
C2874 C2872 1.363 . S
C2874 C2875 1.370 . S
C2874 C2878 1.524 . S
C2875 C2867 1.503 . S
C2875 C2874 1.370 . S
C2875 C2876 1.403 . S
C2876 C2875 1.403 . S
C2876 C2877 1.404 . S
C2876 C2879 1.539 . S
C2877 C2873 1.408 . S
C2877 C2876 1.404 . S
C2877 H2889 0.930 . S
C2878 C2874 1.524 . S
C2878 H2890 0.956 . S
C2878 H2891 0.961 . S
C2878 H2892 0.961 . S
C2879 C2876 1.539 . S
C2879 H2893 0.958 . S
C2879 H2894 0.961 . S
C2879 H2895 0.960 . S
H2880 C2864 0.931 . S
H2881 C2869 0.929 . S
H2882 C2870 0.960 . S
H2883 C2870 0.962 . S
H2884 C2870 0.960 . S
H2885 C2871 0.961 . S
H2886 C2871 0.961 . S
H2887 C2871 0.961 . S
H2888 C2872 0.931 . S
H2889 C2877 0.930 . S
H2890 C2878 0.956 . S
H2891 C2878 0.961 . S
H2892 C2878 0.961 . S
H2893 C2879 0.958 . S
H2894 C2879 0.961 . S
H2895 C2879 0.960 . S
C2896 C2897 1.391 . S
C2896 C2898 1.394 . S
C2896 H2912 0.931 . S
C2897 C2896 1.391 . S
C2897 C2901 1.376 . S
C2898 C2896 1.394 . S
C2898 C2899 1.369 . S
C2898 C2902 1.531 . S
C2899 C2898 1.369 . S
C2899 C2900 1.410 . S
C2899 C2907 1.503 . S
C2900 C2899 1.410 . S
C2900 C2901 1.392 . S
C2900 C2903 1.511 . S
C2901 C2897 1.376 . S
C2901 C2900 1.392 . S
C2901 H2913 0.929 . S
C2902 C2898 1.531 . S
C2902 H2914 0.960 . S
C2902 H2915 0.962 . S
C2902 H2916 0.960 . S
C2903 C2900 1.511 . S
C2903 H2917 0.961 . S
C2903 H2918 0.961 . S
C2903 H2919 0.961 . S
C2904 C2905 1.370 . S
C2904 C2906 1.363 . S
C2904 H2920 0.931 . S
C2905 C2904 1.370 . S
C2905 C2909 1.408 . S
C2906 C2904 1.363 . S
C2906 C2907 1.370 . S
C2906 C2910 1.524 . S
C2907 C2899 1.503 . S
C2907 C2906 1.370 . S
C2907 C2908 1.403 . S
C2908 C2907 1.403 . S
C2908 C2909 1.404 . S
C2908 C2911 1.539 . S
C2909 C2905 1.408 . S
C2909 C2908 1.404 . S
C2909 H2921 0.930 . S
C2910 C2906 1.524 . S
C2910 H2922 0.956 . S
C2910 H2923 0.961 . S
C2910 H2924 0.961 . S
C2911 C2908 1.539 . S
C2911 H2925 0.958 . S
C2911 H2926 0.961 . S
C2911 H2927 0.960 . S
H2912 C2896 0.931 . S
H2913 C2901 0.929 . S
H2914 C2902 0.960 . S
H2915 C2902 0.962 . S
H2916 C2902 0.960 . S
H2917 C2903 0.961 . S
H2918 C2903 0.961 . S
H2919 C2903 0.961 . S
H2920 C2904 0.931 . S
H2921 C2909 0.930 . S
H2922 C2910 0.956 . S
H2923 C2910 0.961 . S
H2924 C2910 0.961 . S
H2925 C2911 0.958 . S
H2926 C2911 0.961 . S
H2927 C2911 0.960 . S
C2928 C2929 1.391 . S
C2928 C2930 1.394 . S
C2928 H2944 0.931 . S
C2929 C2928 1.391 . S
C2929 C2933 1.376 . S
C2930 C2928 1.394 . S
C2930 C2931 1.369 . S
C2930 C2934 1.531 . S
C2931 C2930 1.369 . S
C2931 C2932 1.410 . S
C2931 C2939 1.503 . S
C2932 C2931 1.410 . S
C2932 C2933 1.392 . S
C2932 C2935 1.511 . S
C2933 C2929 1.376 . S
C2933 C2932 1.392 . S
C2933 H2945 0.929 . S
C2934 C2930 1.531 . S
C2934 H2946 0.960 . S
C2934 H2947 0.962 . S
C2934 H2948 0.960 . S
C2935 C2932 1.511 . S
C2935 H2949 0.961 . S
C2935 H2950 0.961 . S
C2935 H2951 0.961 . S
C2936 C2937 1.370 . S
C2936 C2938 1.363 . S
C2936 H2952 0.931 . S
C2937 C2936 1.370 . S
C2937 C2941 1.408 . S
C2938 C2936 1.363 . S
C2938 C2939 1.370 . S
C2938 C2942 1.524 . S
C2939 C2931 1.503 . S
C2939 C2938 1.370 . S
C2939 C2940 1.403 . S
C2940 C2939 1.403 . S
C2940 C2941 1.404 . S
C2940 C2943 1.539 . S
C2941 C2937 1.408 . S
C2941 C2940 1.404 . S
C2941 H2953 0.930 . S
C2942 C2938 1.524 . S
C2942 H2954 0.956 . S
C2942 H2955 0.961 . S
C2942 H2956 0.961 . S
C2943 C2940 1.539 . S
C2943 H2957 0.958 . S
C2943 H2958 0.961 . S
C2943 H2959 0.960 . S
H2944 C2928 0.931 . S
H2945 C2933 0.929 . S
H2946 C2934 0.960 . S
H2947 C2934 0.962 . S
H2948 C2934 0.960 . S
H2949 C2935 0.961 . S
H2950 C2935 0.961 . S
H2951 C2935 0.961 . S
H2952 C2936 0.931 . S
H2953 C2941 0.930 . S
H2954 C2942 0.956 . S
H2955 C2942 0.961 . S
H2956 C2942 0.961 . S
H2957 C2943 0.958 . S
H2958 C2943 0.961 . S
H2959 C2943 0.960 . S
C2960 C2961 1.391 . S
C2960 C2962 1.394 . S
C2960 H2976 0.931 . S
C2961 C2960 1.391 . S
C2961 C2965 1.376 . S
C2962 C2960 1.394 . S
C2962 C2963 1.369 . S
C2962 C2966 1.531 . S
C2963 C2962 1.369 . S
C2963 C2964 1.410 . S
C2963 C2971 1.503 . S
C2964 C2963 1.410 . S
C2964 C2965 1.392 . S
C2964 C2967 1.511 . S
C2965 C2961 1.376 . S
C2965 C2964 1.392 . S
C2965 H2977 0.929 . S
C2966 C2962 1.531 . S
C2966 H2978 0.960 . S
C2966 H2979 0.962 . S
C2966 H2980 0.960 . S
C2967 C2964 1.511 . S
C2967 H2981 0.961 . S
C2967 H2982 0.961 . S
C2967 H2983 0.961 . S
C2968 C2969 1.370 . S
C2968 C2970 1.363 . S
C2968 H2984 0.931 . S
C2969 C2968 1.370 . S
C2969 C2973 1.408 . S
C2970 C2968 1.363 . S
C2970 C2971 1.370 . S
C2970 C2974 1.524 . S
C2971 C2963 1.503 . S
C2971 C2970 1.370 . S
C2971 C2972 1.403 . S
C2972 C2971 1.403 . S
C2972 C2973 1.404 . S
C2972 C2975 1.539 . S
C2973 C2969 1.408 . S
C2973 C2972 1.404 . S
C2973 H2985 0.930 . S
C2974 C2970 1.524 . S
C2974 H2986 0.956 . S
C2974 H2987 0.961 . S
C2974 H2988 0.961 . S
C2975 C2972 1.539 . S
C2975 H2989 0.958 . S
C2975 H2990 0.961 . S
C2975 H2991 0.960 . S
H2976 C2960 0.931 . S
H2977 C2965 0.929 . S
H2978 C2966 0.960 . S
H2979 C2966 0.962 . S
H2980 C2966 0.960 . S
H2981 C2967 0.961 . S
H2982 C2967 0.961 . S
H2983 C2967 0.961 . S
H2984 C2968 0.931 . S
H2985 C2973 0.930 . S
H2986 C2974 0.956 . S
H2987 C2974 0.961 . S
H2988 C2974 0.961 . S
H2989 C2975 0.958 . S
H2990 C2975 0.961 . S
H2991 C2975 0.960 . S
C2992 C2993 1.391 . S
C2992 C2994 1.394 . S
C2992 H3008 0.931 . S
C2993 C2992 1.391 . S
C2993 C2997 1.376 . S
C2994 C2992 1.394 . S
C2994 C2995 1.369 . S
C2994 C2998 1.531 . S
C2995 C2994 1.369 . S
C2995 C2996 1.410 . S
C2995 C3003 1.503 . S
C2996 C2995 1.410 . S
C2996 C2997 1.392 . S
C2996 C2999 1.511 1_655 S
C2997 C2993 1.376 . S
C2997 C2996 1.392 . S
C2997 H3009 0.929 . S
C2998 C2994 1.531 . S
C2998 H3010 0.960 . S
C2998 H3011 0.962 . S
C2998 H3012 0.960 . S
C2999 C2996 1.511 1_455 S
C2999 H3013 0.961 . S
C2999 H3014 0.961 . S
C2999 H3015 0.961 . S
C3000 C3001 1.370 . S
C3000 C3002 1.363 . S
C3000 H3016 0.931 . S
C3001 C3000 1.370 . S
C3001 C3005 1.372 1_655 S
C3002 C3000 1.363 . S
C3002 C3003 1.370 . S
C3002 C3006 1.524 . S
C3003 C2995 1.503 . S
C3003 C3002 1.370 . S
C3003 C3004 1.446 . S
C3004 C3003 1.446 . S
C3004 C3005 1.372 1_655 S
C3004 C3007 1.509 1_655 S
C3005 C3001 1.372 1_455 S
C3005 C3004 1.372 1_455 S
C3005 H3017 0.985 . S
C3006 C3002 1.524 . S
C3006 H3018 0.956 . S
C3006 H3019 0.961 . S
C3006 H3020 0.961 . S
C3007 C3004 1.509 1_455 S
C3007 H3021 0.958 . S
C3007 H3022 0.961 . S
C3007 H3023 0.960 . S
H3008 C2992 0.931 . S
H3009 C2997 0.929 . S
H3010 C2998 0.960 . S
H3011 C2998 0.962 . S
H3012 C2998 0.960 . S
H3013 C2999 0.961 . S
H3014 C2999 0.961 . S
H3015 C2999 0.961 . S
H3016 C3000 0.931 . S
H3017 C3005 0.985 . S
H3018 C3006 0.956 . S
H3019 C3006 0.961 . S
H3020 C3006 0.961 . S
H3021 C3007 0.958 . S
H3022 C3007 0.961 . S
H3023 C3007 0.960 . S
C3024 C3025 1.391 . S
C3024 C3026 1.394 . S
C3024 H3040 0.931 . S
C3025 C3024 1.391 . S
C3025 C3029 1.376 . S
C3026 C3024 1.394 . S
C3026 C3027 1.369 . S
C3026 C3030 1.531 . S
C3027 C3026 1.369 . S
C3027 C3028 1.410 . S
C3027 C3035 1.503 . S
C3028 C3027 1.410 . S
C3028 C3029 1.392 . S
C3028 C3031 1.511 . S
C3029 C3025 1.376 . S
C3029 C3028 1.392 . S
C3029 H3041 0.929 . S
C3030 C3026 1.531 . S
C3030 H3042 0.960 . S
C3030 H3043 0.962 . S
C3030 H3044 0.960 . S
C3031 C3028 1.511 . S
C3031 H3045 0.961 . S
C3031 H3046 0.961 . S
C3031 H3047 0.961 . S
C3032 C3033 1.370 . S
C3032 C3034 1.363 . S
C3032 H3048 0.931 . S
C3033 C3032 1.370 . S
C3033 C3037 1.408 . S
C3034 C3032 1.363 . S
C3034 C3035 1.370 . S
C3034 C3038 1.524 . S
C3035 C3027 1.503 . S
C3035 C3034 1.370 . S
C3035 C3036 1.403 . S
C3036 C3035 1.403 . S
C3036 C3037 1.404 . S
C3036 C3039 1.539 . S
C3037 C3033 1.408 . S
C3037 C3036 1.404 . S
C3037 H3049 0.930 . S
C3038 C3034 1.524 . S
C3038 H3050 0.956 . S
C3038 H3051 0.961 . S
C3038 H3052 0.961 . S
C3039 C3036 1.539 . S
C3039 H3053 0.958 . S
C3039 H3054 0.961 . S
C3039 H3055 0.960 . S
H3040 C3024 0.931 . S
H3041 C3029 0.929 . S
H3042 C3030 0.960 . S
H3043 C3030 0.962 . S
H3044 C3030 0.960 . S
H3045 C3031 0.961 . S
H3046 C3031 0.961 . S
H3047 C3031 0.961 . S
H3048 C3032 0.931 . S
H3049 C3037 0.930 . S
H3050 C3038 0.956 . S
H3051 C3038 0.961 . S
H3052 C3038 0.961 . S
H3053 C3039 0.958 . S
H3054 C3039 0.961 . S
H3055 C3039 0.960 . S
C3056 C3057 1.391 . S
C3056 C3058 1.394 . S
C3056 H3072 0.931 . S
C3057 C3056 1.391 . S
C3057 C3061 1.376 . S
C3058 C3056 1.394 . S
C3058 C3059 1.369 . S
C3058 C3062 1.531 . S
C3059 C3058 1.369 . S
C3059 C3060 1.410 . S
C3059 C3067 1.503 . S
C3060 C3059 1.410 . S
C3060 C3061 1.392 . S
C3060 C3063 1.511 . S
C3061 C3057 1.376 . S
C3061 C3060 1.392 . S
C3061 H3073 0.929 . S
C3062 C3058 1.531 . S
C3062 H3074 0.960 . S
C3062 H3075 0.962 . S
C3062 H3076 0.960 . S
C3063 C3060 1.511 . S
C3063 H3077 0.961 . S
C3063 H3078 0.961 . S
C3063 H3079 0.961 . S
C3064 C3065 1.370 . S
C3064 C3066 1.363 . S
C3064 H3080 0.931 . S
C3065 C3064 1.370 . S
C3065 C3069 1.408 . S
C3066 C3064 1.363 . S
C3066 C3067 1.370 . S
C3066 C3070 1.524 . S
C3067 C3059 1.503 . S
C3067 C3066 1.370 . S
C3067 C3068 1.403 . S
C3068 C3067 1.403 . S
C3068 C3069 1.404 . S
C3068 C3071 1.539 . S
C3069 C3065 1.408 . S
C3069 C3068 1.404 . S
C3069 H3081 0.930 . S
C3070 C3066 1.524 . S
C3070 H3082 0.956 . S
C3070 H3083 0.961 . S
C3070 H3084 0.961 . S
C3071 C3068 1.539 . S
C3071 H3085 0.958 . S
C3071 H3086 0.961 . S
C3071 H3087 0.960 . S
H3072 C3056 0.931 . S
H3073 C3061 0.929 . S
H3074 C3062 0.960 . S
H3075 C3062 0.962 . S
H3076 C3062 0.960 . S
H3077 C3063 0.961 . S
H3078 C3063 0.961 . S
H3079 C3063 0.961 . S
H3080 C3064 0.931 . S
H3081 C3069 0.930 . S
H3082 C3070 0.956 . S
H3083 C3070 0.961 . S
H3084 C3070 0.961 . S
H3085 C3071 0.958 . S
H3086 C3071 0.961 . S
H3087 C3071 0.960 . S
C3088 C3089 1.391 . S
C3088 C3090 1.394 . S
C3088 H3104 0.931 . S
C3089 C3088 1.391 . S
C3089 C3093 1.376 . S
C3090 C3088 1.394 . S
C3090 C3091 1.369 . S
C3090 C3094 1.531 . S
C3091 C3090 1.369 . S
C3091 C3092 1.410 . S
C3091 C3099 1.503 . S
C3092 C3091 1.410 . S
C3092 C3093 1.392 . S
C3092 C3095 1.511 . S
C3093 C3089 1.376 . S
C3093 C3092 1.392 . S
C3093 H3105 0.929 . S
C3094 C3090 1.531 . S
C3094 H3106 0.960 . S
C3094 H3107 0.962 . S
C3094 H3108 0.960 . S
C3095 C3092 1.511 . S
C3095 H3109 0.961 . S
C3095 H3110 0.961 . S
C3095 H3111 0.961 . S
C3096 C3097 1.370 . S
C3096 C3098 1.363 . S
C3096 H3112 0.931 . S
C3097 C3096 1.370 . S
C3097 C3101 1.408 . S
C3098 C3096 1.363 . S
C3098 C3099 1.370 . S
C3098 C3102 1.524 . S
C3099 C3091 1.503 . S
C3099 C3098 1.370 . S
C3099 C3100 1.403 . S
C3100 C3099 1.403 . S
C3100 C3101 1.404 . S
C3100 C3103 1.539 . S
C3101 C3097 1.408 . S
C3101 C3100 1.404 . S
C3101 H3113 0.930 . S
C3102 C3098 1.524 . S
C3102 H3114 0.956 . S
C3102 H3115 0.961 . S
C3102 H3116 0.961 . S
C3103 C3100 1.539 . S
C3103 H3117 0.958 . S
C3103 H3118 0.961 . S
C3103 H3119 0.960 . S
H3104 C3088 0.931 . S
H3105 C3093 0.929 . S
H3106 C3094 0.960 . S
H3107 C3094 0.962 . S
H3108 C3094 0.960 . S
H3109 C3095 0.961 . S
H3110 C3095 0.961 . S
H3111 C3095 0.961 . S
H3112 C3096 0.931 . S
H3113 C3101 0.930 . S
H3114 C3102 0.956 . S
H3115 C3102 0.961 . S
H3116 C3102 0.961 . S
H3117 C3103 0.958 . S
H3118 C3103 0.961 . S
H3119 C3103 0.960 . S
C3120 C3121 1.391 . S
C3120 C3122 1.394 . S
C3120 H3136 0.931 . S
C3121 C3120 1.391 . S
C3121 C3125 1.376 . S
C3122 C3120 1.394 . S
C3122 C3123 1.369 . S
C3122 C3126 1.531 . S
C3123 C3122 1.369 . S
C3123 C3124 1.410 . S
C3123 C3131 1.503 . S
C3124 C3123 1.410 . S
C3124 C3125 1.392 . S
C3124 C3127 1.511 . S
C3125 C3121 1.376 . S
C3125 C3124 1.392 . S
C3125 H3137 0.929 . S
C3126 C3122 1.531 . S
C3126 H3138 0.960 . S
C3126 H3139 0.962 . S
C3126 H3140 0.960 . S
C3127 C3124 1.511 . S
C3127 H3141 0.961 . S
C3127 H3142 0.961 . S
C3127 H3143 0.961 . S
C3128 C3129 1.370 . S
C3128 C3130 1.363 . S
C3128 H3144 0.931 . S
C3129 C3128 1.370 . S
C3129 C3133 1.408 . S
C3130 C3128 1.363 . S
C3130 C3131 1.370 . S
C3130 C3134 1.524 . S
C3131 C3123 1.503 . S
C3131 C3130 1.370 . S
C3131 C3132 1.403 . S
C3132 C3131 1.403 . S
C3132 C3133 1.404 . S
C3132 C3135 1.539 . S
C3133 C3129 1.408 . S
C3133 C3132 1.404 . S
C3133 H3145 0.930 . S
C3134 C3130 1.524 . S
C3134 H3146 0.956 . S
C3134 H3147 0.961 . S
C3134 H3148 0.961 . S
C3135 C3132 1.539 . S
C3135 H3149 0.958 . S
C3135 H3150 0.961 . S
C3135 H3151 0.960 . S
H3136 C3120 0.931 . S
H3137 C3125 0.929 . S
H3138 C3126 0.960 . S
H3139 C3126 0.962 . S
H3140 C3126 0.960 . S
H3141 C3127 0.961 . S
H3142 C3127 0.961 . S
H3143 C3127 0.961 . S
H3144 C3128 0.931 . S
H3145 C3133 0.930 . S
H3146 C3134 0.956 . S
H3147 C3134 0.961 . S
H3148 C3134 0.961 . S
H3149 C3135 0.958 . S
H3150 C3135 0.961 . S
H3151 C3135 0.960 . S
C3152 C3153 1.391 . S
C3152 C3154 1.394 . S
C3152 H3168 0.931 . S
C3153 C3152 1.391 . S
C3153 C3157 1.376 . S
C3154 C3152 1.394 . S
C3154 C3155 1.369 . S
C3154 C3158 1.531 . S
C3155 C3154 1.369 . S
C3155 C3156 1.410 . S
C3155 C3163 1.503 . S
C3156 C3155 1.410 . S
C3156 C3157 1.392 . S
C3156 C3159 1.511 . S
C3157 C3153 1.376 . S
C3157 C3156 1.392 . S
C3157 H3169 0.929 . S
C3158 C3154 1.531 . S
C3158 H3170 0.960 . S
C3158 H3171 0.962 . S
C3158 H3172 0.960 . S
C3159 C3156 1.511 . S
C3159 H3173 0.961 . S
C3159 H3174 0.961 . S
C3159 H3175 0.961 . S
C3160 C3161 1.370 . S
C3160 C3162 1.363 . S
C3160 H3176 0.931 . S
C3161 C3160 1.370 . S
C3161 C3165 1.408 . S
C3162 C3160 1.363 . S
C3162 C3163 1.370 . S
C3162 C3166 1.524 . S
C3163 C3155 1.503 . S
C3163 C3162 1.370 . S
C3163 C3164 1.403 . S
C3164 C3163 1.403 . S
C3164 C3165 1.404 . S
C3164 C3167 1.539 . S
C3165 C3161 1.408 . S
C3165 C3164 1.404 . S
C3165 H3177 0.930 . S
C3166 C3162 1.524 . S
C3166 H3178 0.956 . S
C3166 H3179 0.961 . S
C3166 H3180 0.961 . S
C3167 C3164 1.539 . S
C3167 H3181 0.958 . S
C3167 H3182 0.961 . S
C3167 H3183 0.960 . S
H3168 C3152 0.931 . S
H3169 C3157 0.929 . S
H3170 C3158 0.960 . S
H3171 C3158 0.962 . S
H3172 C3158 0.960 . S
H3173 C3159 0.961 . S
H3174 C3159 0.961 . S
H3175 C3159 0.961 . S
H3176 C3160 0.931 . S
H3177 C3165 0.930 . S
H3178 C3166 0.956 . S
H3179 C3166 0.961 . S
H3180 C3166 0.961 . S
H3181 C3167 0.958 . S
H3182 C3167 0.961 . S
H3183 C3167 0.960 . S
C3184 C3185 1.391 . S
C3184 C3186 1.394 . S
C3184 H3200 0.931 . S
C3185 C3184 1.391 . S
C3185 C3189 1.376 . S
C3186 C3184 1.394 . S
C3186 C3187 1.369 . S
C3186 C3190 1.531 . S
C3187 C3186 1.369 . S
C3187 C3188 1.410 . S
C3187 C3195 1.503 . S
C3188 C3187 1.410 . S
C3188 C3189 1.392 . S
C3188 C3191 1.511 . S
C3189 C3185 1.376 . S
C3189 C3188 1.392 . S
C3189 H3201 0.929 . S
C3190 C3186 1.531 . S
C3190 H3202 0.960 . S
C3190 H3203 0.962 . S
C3190 H3204 0.960 . S
C3191 C3188 1.511 . S
C3191 H3205 0.961 . S
C3191 H3206 0.961 . S
C3191 H3207 0.961 . S
C3192 C3193 1.370 . S
C3192 C3194 1.363 . S
C3192 H3208 0.931 . S
C3193 C3192 1.370 . S
C3193 C3197 1.408 . S
C3194 C3192 1.363 . S
C3194 C3195 1.370 . S
C3194 C3198 1.524 . S
C3195 C3187 1.503 . S
C3195 C3194 1.370 . S
C3195 C3196 1.403 . S
C3196 C3195 1.403 . S
C3196 C3197 1.404 . S
C3196 C3199 1.539 . S
C3197 C3193 1.408 . S
C3197 C3196 1.404 . S
C3197 H3209 0.930 . S
C3198 C3194 1.524 . S
C3198 H3210 0.956 . S
C3198 H3211 0.961 . S
C3198 H3212 0.961 . S
C3199 C3196 1.539 . S
C3199 H3213 0.958 . S
C3199 H3214 0.961 . S
C3199 H3215 0.960 . S
H3200 C3184 0.931 . S
H3201 C3189 0.929 . S
H3202 C3190 0.960 . S
H3203 C3190 0.962 . S
H3204 C3190 0.960 . S
H3205 C3191 0.961 . S
H3206 C3191 0.961 . S
H3207 C3191 0.961 . S
H3208 C3192 0.931 . S
H3209 C3197 0.930 . S
H3210 C3198 0.956 . S
H3211 C3198 0.961 . S
H3212 C3198 0.961 . S
H3213 C3199 0.958 . S
H3214 C3199 0.961 . S
H3215 C3199 0.960 . S
C3216 C3217 1.391 . S
C3216 C3218 1.394 . S
C3216 H3232 0.931 . S
C3217 C3216 1.391 . S
C3217 C3221 1.376 . S
C3218 C3216 1.394 . S
C3218 C3219 1.369 . S
C3218 C3222 1.531 . S
C3219 C3218 1.369 . S
C3219 C3220 1.410 . S
C3219 C3227 1.503 . S
C3220 C3219 1.410 . S
C3220 C3221 1.392 . S
C3220 C3223 1.511 . S
C3221 C3217 1.376 . S
C3221 C3220 1.392 . S
C3221 H3233 0.929 . S
C3222 C3218 1.531 . S
C3222 H3234 0.960 . S
C3222 H3235 0.962 . S
C3222 H3236 0.960 . S
C3223 C3220 1.511 . S
C3223 H3237 0.961 . S
C3223 H3238 0.961 . S
C3223 H3239 0.961 . S
C3224 C3225 1.370 . S
C3224 C3226 1.363 . S
C3224 H3240 0.931 . S
C3225 C3224 1.370 . S
C3225 C3229 1.408 . S
C3226 C3224 1.363 . S
C3226 C3227 1.370 . S
C3226 C3230 1.524 . S
C3227 C3219 1.503 . S
C3227 C3226 1.370 . S
C3227 C3228 1.403 . S
C3228 C3227 1.403 . S
C3228 C3229 1.404 . S
C3228 C3231 1.539 . S
C3229 C3225 1.408 . S
C3229 C3228 1.404 . S
C3229 H3241 0.930 . S
C3230 C3226 1.524 . S
C3230 H3242 0.956 . S
C3230 H3243 0.961 . S
C3230 H3244 0.961 . S
C3231 C3228 1.539 . S
C3231 H3245 0.958 . S
C3231 H3246 0.961 . S
C3231 H3247 0.960 . S
H3232 C3216 0.931 . S
H3233 C3221 0.929 . S
H3234 C3222 0.960 . S
H3235 C3222 0.962 . S
H3236 C3222 0.960 . S
H3237 C3223 0.961 . S
H3238 C3223 0.961 . S
H3239 C3223 0.961 . S
H3240 C3224 0.931 . S
H3241 C3229 0.930 . S
H3242 C3230 0.956 . S
H3243 C3230 0.961 . S
H3244 C3230 0.961 . S
H3245 C3231 0.958 . S
H3246 C3231 0.961 . S
H3247 C3231 0.960 . S
C3248 C3249 1.391 . S
C3248 C3250 1.394 . S
C3248 H3264 0.931 . S
C3249 C3248 1.391 . S
C3249 C3253 1.376 . S
C3250 C3248 1.394 . S
C3250 C3251 1.369 . S
C3250 C3254 1.531 . S
C3251 C3250 1.369 . S
C3251 C3252 1.410 . S
C3251 C3259 1.503 . S
C3252 C3251 1.410 . S
C3252 C3253 1.392 . S
C3252 C3255 1.511 . S
C3253 C3249 1.376 . S
C3253 C3252 1.392 . S
C3253 H3265 0.929 . S
C3254 C3250 1.531 . S
C3254 H3266 0.960 . S
C3254 H3267 0.962 . S
C3254 H3268 0.960 . S
C3255 C3252 1.511 . S
C3255 H3269 0.961 . S
C3255 H3270 0.961 . S
C3255 H3271 0.961 . S
C3256 C3257 1.370 . S
C3256 C3258 1.363 . S
C3256 H3272 0.931 . S
C3257 C3256 1.370 . S
C3257 C3261 1.408 . S
C3258 C3256 1.363 . S
C3258 C3259 1.370 . S
C3258 C3262 1.524 . S
C3259 C3251 1.503 . S
C3259 C3258 1.370 . S
C3259 C3260 1.403 . S
C3260 C3259 1.403 . S
C3260 C3261 1.404 . S
C3260 C3263 1.539 . S
C3261 C3257 1.408 . S
C3261 C3260 1.404 . S
C3261 H3273 0.930 . S
C3262 C3258 1.524 . S
C3262 H3274 0.956 . S
C3262 H3275 0.961 . S
C3262 H3276 0.961 . S
C3263 C3260 1.539 . S
C3263 H3277 0.958 . S
C3263 H3278 0.961 . S
C3263 H3279 0.960 . S
H3264 C3248 0.931 . S
H3265 C3253 0.929 . S
H3266 C3254 0.960 . S
H3267 C3254 0.962 . S
H3268 C3254 0.960 . S
H3269 C3255 0.961 . S
H3270 C3255 0.961 . S
H3271 C3255 0.961 . S
H3272 C3256 0.931 . S
H3273 C3261 0.930 . S
H3274 C3262 0.956 . S
H3275 C3262 0.961 . S
H3276 C3262 0.961 . S
H3277 C3263 0.958 . S
H3278 C3263 0.961 . S
H3279 C3263 0.960 . S
C3280 C3281 1.391 . S
C3280 C3282 1.394 . S
C3280 H3296 0.931 . S
C3281 C3280 1.391 . S
C3281 C3285 1.376 . S
C3282 C3280 1.394 . S
C3282 C3283 1.369 . S
C3282 C3286 1.531 . S
C3283 C3282 1.369 . S
C3283 C3284 1.410 . S
C3283 C3291 1.503 . S
C3284 C3283 1.410 . S
C3284 C3285 1.392 . S
C3284 C3287 1.511 . S
C3285 C3281 1.376 . S
C3285 C3284 1.392 . S
C3285 H3297 0.929 . S
C3286 C3282 1.531 . S
C3286 H3298 0.960 . S
C3286 H3299 0.962 . S
C3286 H3300 0.960 . S
C3287 C3284 1.511 . S
C3287 H3301 0.961 . S
C3287 H3302 0.961 . S
C3287 H3303 0.961 . S
C3288 C3289 1.370 . S
C3288 C3290 1.363 . S
C3288 H3304 0.931 . S
C3289 C3288 1.370 . S
C3289 C3293 1.408 . S
C3290 C3288 1.363 . S
C3290 C3291 1.370 . S
C3290 C3294 1.524 . S
C3291 C3283 1.503 . S
C3291 C3290 1.370 . S
C3291 C3292 1.403 . S
C3292 C3291 1.403 . S
C3292 C3293 1.404 . S
C3292 C3295 1.539 . S
C3293 C3289 1.408 . S
C3293 C3292 1.404 . S
C3293 H3305 0.930 . S
C3294 C3290 1.524 . S
C3294 H3306 0.956 . S
C3294 H3307 0.961 . S
C3294 H3308 0.961 . S
C3295 C3292 1.539 . S
C3295 H3309 0.958 . S
C3295 H3310 0.961 . S
C3295 H3311 0.960 . S
H3296 C3280 0.931 . S
H3297 C3285 0.929 . S
H3298 C3286 0.960 . S
H3299 C3286 0.962 . S
H3300 C3286 0.960 . S
H3301 C3287 0.961 . S
H3302 C3287 0.961 . S
H3303 C3287 0.961 . S
H3304 C3288 0.931 . S
H3305 C3293 0.930 . S
H3306 C3294 0.956 . S
H3307 C3294 0.961 . S
H3308 C3294 0.961 . S
H3309 C3295 0.958 . S
H3310 C3295 0.961 . S
H3311 C3295 0.960 . S
C3312 C3313 1.391 . S
C3312 C3314 1.394 . S
C3312 H3328 0.931 . S
C3313 C3312 1.391 . S
C3313 C3317 1.376 . S
C3314 C3312 1.394 . S
C3314 C3315 1.369 . S
C3314 C3318 1.531 . S
C3315 C3314 1.369 . S
C3315 C3316 1.410 . S
C3315 C3323 1.503 . S
C3316 C3315 1.410 . S
C3316 C3317 1.392 . S
C3316 C3319 1.511 . S
C3317 C3313 1.376 . S
C3317 C3316 1.392 . S
C3317 H3329 0.929 . S
C3318 C3314 1.531 . S
C3318 H3330 0.960 . S
C3318 H3331 0.962 . S
C3318 H3332 0.960 . S
C3319 C3316 1.511 . S
C3319 H3333 0.961 . S
C3319 H3334 0.961 . S
C3319 H3335 0.961 . S
C3320 C3321 1.370 . S
C3320 C3322 1.363 . S
C3320 H3336 0.931 . S
C3321 C3320 1.370 . S
C3321 C3325 1.408 . S
C3322 C3320 1.363 . S
C3322 C3323 1.370 . S
C3322 C3326 1.524 . S
C3323 C3315 1.503 . S
C3323 C3322 1.370 . S
C3323 C3324 1.403 . S
C3324 C3323 1.403 . S
C3324 C3325 1.404 . S
C3324 C3327 1.539 . S
C3325 C3321 1.408 . S
C3325 C3324 1.404 . S
C3325 H3337 0.930 . S
C3326 C3322 1.524 . S
C3326 H3338 0.956 . S
C3326 H3339 0.961 . S
C3326 H3340 0.961 . S
C3327 C3324 1.539 . S
C3327 H3341 0.958 . S
C3327 H3342 0.961 . S
C3327 H3343 0.960 . S
H3328 C3312 0.931 . S
H3329 C3317 0.929 . S
H3330 C3318 0.960 . S
H3331 C3318 0.962 . S
H3332 C3318 0.960 . S
H3333 C3319 0.961 . S
H3334 C3319 0.961 . S
H3335 C3319 0.961 . S
H3336 C3320 0.931 . S
H3337 C3325 0.930 . S
H3338 C3326 0.956 . S
H3339 C3326 0.961 . S
H3340 C3326 0.961 . S
H3341 C3327 0.958 . S
H3342 C3327 0.961 . S
H3343 C3327 0.960 . S
C3344 C3345 1.391 . S
C3344 C3346 1.394 . S
C3344 H3360 0.931 . S
C3345 C3344 1.391 . S
C3345 C3349 1.376 . S
C3346 C3344 1.394 . S
C3346 C3347 1.369 . S
C3346 C3350 1.531 . S
C3347 C3346 1.369 . S
C3347 C3348 1.410 . S
C3347 C3355 1.503 . S
C3348 C3347 1.410 . S
C3348 C3349 1.392 . S
C3348 C3351 1.511 . S
C3349 C3345 1.376 . S
C3349 C3348 1.392 . S
C3349 H3361 0.929 . S
C3350 C3346 1.531 . S
C3350 H3362 0.960 . S
C3350 H3363 0.962 . S
C3350 H3364 0.960 . S
C3351 C3348 1.511 . S
C3351 H3365 0.961 . S
C3351 H3366 0.961 . S
C3351 H3367 0.961 . S
C3352 C3353 1.370 . S
C3352 C3354 1.363 . S
C3352 H3368 0.931 . S
C3353 C3352 1.370 . S
C3353 C3357 1.408 . S
C3354 C3352 1.363 . S
C3354 C3355 1.370 . S
C3354 C3358 1.524 . S
C3355 C3347 1.503 . S
C3355 C3354 1.370 . S
C3355 C3356 1.403 . S
C3356 C3355 1.403 . S
C3356 C3357 1.404 . S
C3356 C3359 1.539 . S
C3357 C3353 1.408 . S
C3357 C3356 1.404 . S
C3357 H3369 0.930 . S
C3358 C3354 1.524 . S
C3358 H3370 0.956 . S
C3358 H3371 0.961 . S
C3358 H3372 0.961 . S
C3359 C3356 1.539 . S
C3359 H3373 0.958 . S
C3359 H3374 0.961 . S
C3359 H3375 0.960 . S
H3360 C3344 0.931 . S
H3361 C3349 0.929 . S
H3362 C3350 0.960 . S
H3363 C3350 0.962 . S
H3364 C3350 0.960 . S
H3365 C3351 0.961 . S
H3366 C3351 0.961 . S
H3367 C3351 0.961 . S
H3368 C3352 0.931 . S
H3369 C3357 0.930 . S
H3370 C3358 0.956 . S
H3371 C3358 0.961 . S
H3372 C3358 0.961 . S
H3373 C3359 0.958 . S
H3374 C3359 0.961 . S
H3375 C3359 0.960 . S
C3376 C3377 1.391 . S
C3376 C3378 1.394 . S
C3376 H3392 0.931 . S
C3377 C3376 1.391 . S
C3377 C3381 1.376 . S
C3378 C3376 1.394 . S
C3378 C3379 1.369 . S
C3378 C3382 1.531 . S
C3379 C3378 1.369 . S
C3379 C3380 1.410 . S
C3379 C3387 1.503 . S
C3380 C3379 1.410 . S
C3380 C3381 1.392 . S
C3380 C3383 1.511 . S
C3381 C3377 1.376 . S
C3381 C3380 1.392 . S
C3381 H3393 0.929 . S
C3382 C3378 1.531 . S
C3382 H3394 0.960 . S
C3382 H3395 0.962 . S
C3382 H3396 0.960 . S
C3383 C3380 1.511 . S
C3383 H3397 0.961 . S
C3383 H3398 0.961 . S
C3383 H3399 0.961 . S
C3384 C3385 1.370 . S
C3384 C3386 1.363 . S
C3384 H3400 0.931 . S
C3385 C3384 1.370 . S
C3385 C3389 1.408 . S
C3386 C3384 1.363 . S
C3386 C3387 1.370 . S
C3386 C3390 1.524 . S
C3387 C3379 1.503 . S
C3387 C3386 1.370 . S
C3387 C3388 1.403 . S
C3388 C3387 1.403 . S
C3388 C3389 1.404 . S
C3388 C3391 1.539 . S
C3389 C3385 1.408 . S
C3389 C3388 1.404 . S
C3389 H3401 0.930 . S
C3390 C3386 1.524 . S
C3390 H3402 0.956 . S
C3390 H3403 0.961 . S
C3390 H3404 0.961 . S
C3391 C3388 1.539 . S
C3391 H3405 0.958 . S
C3391 H3406 0.961 . S
C3391 H3407 0.960 . S
H3392 C3376 0.931 . S
H3393 C3381 0.929 . S
H3394 C3382 0.960 . S
H3395 C3382 0.962 . S
H3396 C3382 0.960 . S
H3397 C3383 0.961 . S
H3398 C3383 0.961 . S
H3399 C3383 0.961 . S
H3400 C3384 0.931 . S
H3401 C3389 0.930 . S
H3402 C3390 0.956 . S
H3403 C3390 0.961 . S
H3404 C3390 0.961 . S
H3405 C3391 0.958 . S
H3406 C3391 0.961 . S
H3407 C3391 0.960 . S
C3408 C3409 1.391 . S
C3408 C3410 1.394 . S
C3408 H3424 0.931 . S
C3409 C3408 1.391 . S
C3409 C3413 1.376 . S
C3410 C3408 1.394 . S
C3410 C3411 1.369 . S
C3410 C3414 1.531 . S
C3411 C3410 1.369 . S
C3411 C3412 1.410 . S
C3411 C3419 1.503 . S
C3412 C3411 1.410 . S
C3412 C3413 1.392 . S
C3412 C3415 1.511 . S
C3413 C3409 1.376 . S
C3413 C3412 1.392 . S
C3413 H3425 0.929 . S
C3414 C3410 1.531 . S
C3414 H3426 0.960 . S
C3414 H3427 0.962 . S
C3414 H3428 0.960 . S
C3415 C3412 1.511 . S
C3415 H3429 0.961 . S
C3415 H3430 0.961 . S
C3415 H3431 0.961 . S
C3416 C3417 1.370 . S
C3416 C3418 1.363 . S
C3416 H3432 0.931 . S
C3417 C3416 1.370 . S
C3417 C3421 1.408 . S
C3418 C3416 1.363 . S
C3418 C3419 1.370 . S
C3418 C3422 1.524 . S
C3419 C3411 1.503 . S
C3419 C3418 1.370 . S
C3419 C3420 1.403 . S
C3420 C3419 1.403 . S
C3420 C3421 1.404 . S
C3420 C3423 1.539 . S
C3421 C3417 1.408 . S
C3421 C3420 1.404 . S
C3421 H3433 0.930 . S
C3422 C3418 1.524 . S
C3422 H3434 0.956 . S
C3422 H3435 0.961 . S
C3422 H3436 0.961 . S
C3423 C3420 1.539 . S
C3423 H3437 0.958 . S
C3423 H3438 0.961 . S
C3423 H3439 0.960 . S
H3424 C3408 0.931 . S
H3425 C3413 0.929 . S
H3426 C3414 0.960 . S
H3427 C3414 0.962 . S
H3428 C3414 0.960 . S
H3429 C3415 0.961 . S
H3430 C3415 0.961 . S
H3431 C3415 0.961 . S
H3432 C3416 0.931 . S
H3433 C3421 0.930 . S
H3434 C3422 0.956 . S
H3435 C3422 0.961 . S
H3436 C3422 0.961 . S
H3437 C3423 0.958 . S
H3438 C3423 0.961 . S
H3439 C3423 0.960 . S
C3440 C3441 1.391 . S
C3440 C3442 1.394 . S
C3440 H3456 0.931 . S
C3441 C3440 1.391 . S
C3441 C3445 1.376 . S
C3442 C3440 1.394 . S
C3442 C3443 1.369 . S
C3442 C3446 1.531 . S
C3443 C3442 1.369 . S
C3443 C3444 1.410 . S
C3443 C3451 1.503 . S
C3444 C3443 1.410 . S
C3444 C3445 1.392 . S
C3444 C3447 1.511 . S
C3445 C3441 1.376 . S
C3445 C3444 1.392 . S
C3445 H3457 0.929 . S
C3446 C3442 1.531 . S
C3446 H3458 0.960 . S
C3446 H3459 0.962 . S
C3446 H3460 0.960 . S
C3447 C3444 1.511 . S
C3447 H3461 0.961 . S
C3447 H3462 0.961 . S
C3447 H3463 0.961 . S
C3448 C3449 1.370 . S
C3448 C3450 1.363 . S
C3448 H3464 0.931 . S
C3449 C3448 1.370 . S
C3449 C3453 1.408 . S
C3450 C3448 1.363 . S
C3450 C3451 1.370 . S
C3450 C3454 1.524 . S
C3451 C3443 1.503 . S
C3451 C3450 1.370 . S
C3451 C3452 1.403 . S
C3452 C3451 1.403 . S
C3452 C3453 1.404 . S
C3452 C3455 1.539 . S
C3453 C3449 1.408 . S
C3453 C3452 1.404 . S
C3453 H3465 0.930 . S
C3454 C3450 1.524 . S
C3454 H3466 0.956 . S
C3454 H3467 0.961 . S
C3454 H3468 0.961 . S
C3455 C3452 1.539 . S
C3455 H3469 0.958 . S
C3455 H3470 0.961 . S
C3455 H3471 0.960 . S
H3456 C3440 0.931 . S
H3457 C3445 0.929 . S
H3458 C3446 0.960 . S
H3459 C3446 0.962 . S
H3460 C3446 0.960 . S
H3461 C3447 0.961 . S
H3462 C3447 0.961 . S
H3463 C3447 0.961 . S
H3464 C3448 0.931 . S
H3465 C3453 0.930 . S
H3466 C3454 0.956 . S
H3467 C3454 0.961 . S
H3468 C3454 0.961 . S
H3469 C3455 0.958 . S
H3470 C3455 0.961 . S
H3471 C3455 0.960 . S
C3472 C3473 1.391 . S
C3472 C3474 1.394 . S
C3472 H3488 0.931 . S
C3473 C3472 1.391 . S
C3473 C3477 1.376 . S
C3474 C3472 1.394 . S
C3474 C3475 1.369 . S
C3474 C3478 1.531 . S
C3475 C3474 1.369 . S
C3475 C3476 1.410 . S
C3475 C3483 1.503 . S
C3476 C3475 1.410 . S
C3476 C3477 1.392 . S
C3476 C3479 1.511 . S
C3477 C3473 1.376 . S
C3477 C3476 1.392 . S
C3477 H3489 0.929 . S
C3478 C3474 1.531 . S
C3478 H3490 0.960 . S
C3478 H3491 0.962 . S
C3478 H3492 0.960 . S
C3479 C3476 1.511 . S
C3479 H3493 0.961 . S
C3479 H3494 0.961 . S
C3479 H3495 0.961 . S
C3480 C3481 1.370 . S
C3480 C3482 1.363 . S
C3480 H3496 0.931 . S
C3481 C3480 1.370 . S
C3481 C3485 1.408 . S
C3482 C3480 1.363 . S
C3482 C3483 1.370 . S
C3482 C3486 1.524 . S
C3483 C3475 1.503 . S
C3483 C3482 1.370 . S
C3483 C3484 1.403 . S
C3484 C3483 1.403 . S
C3484 C3485 1.404 . S
C3484 C3487 1.539 . S
C3485 C3481 1.408 . S
C3485 C3484 1.404 . S
C3485 H3497 0.930 . S
C3486 C3482 1.524 . S
C3486 H3498 0.956 . S
C3486 H3499 0.961 . S
C3486 H3500 0.961 . S
C3487 C3484 1.539 . S
C3487 H3501 0.958 . S
C3487 H3502 0.961 . S
C3487 H3503 0.960 . S
H3488 C3472 0.931 . S
H3489 C3477 0.929 . S
H3490 C3478 0.960 . S
H3491 C3478 0.962 . S
H3492 C3478 0.960 . S
H3493 C3479 0.961 . S
H3494 C3479 0.961 . S
H3495 C3479 0.961 . S
H3496 C3480 0.931 . S
H3497 C3485 0.930 . S
H3498 C3486 0.956 . S
H3499 C3486 0.961 . S
H3500 C3486 0.961 . S
H3501 C3487 0.958 . S
H3502 C3487 0.961 . S
H3503 C3487 0.960 . S
C3504 C3505 1.391 . S
C3504 C3506 1.394 . S
C3504 H3520 0.931 . S
C3505 C3504 1.391 . S
C3505 C3509 1.376 . S
C3506 C3504 1.394 . S
C3506 C3507 1.369 . S
C3506 C3510 1.531 . S
C3507 C3506 1.369 . S
C3507 C3508 1.410 . S
C3507 C3515 1.503 . S
C3508 C3507 1.410 . S
C3508 C3509 1.392 . S
C3508 C3511 1.511 . S
C3509 C3505 1.376 . S
C3509 C3508 1.392 . S
C3509 H3521 0.929 . S
C3510 C3506 1.531 . S
C3510 H3522 0.960 . S
C3510 H3523 0.962 . S
C3510 H3524 0.960 . S
C3511 C3508 1.511 . S
C3511 H3525 0.961 . S
C3511 H3526 0.961 . S
C3511 H3527 0.882 1_655 S
C3512 C3513 1.370 . S
C3512 C3514 1.363 . S
C3512 H3528 0.931 . S
C3513 C3512 1.370 . S
C3513 C3517 1.408 1_655 S
C3514 C3512 1.363 . S
C3514 C3515 1.370 . S
C3514 C3518 1.524 . S
C3515 C3507 1.503 . S
C3515 C3514 1.370 . S
C3515 C3516 1.376 1_655 S
C3516 C3515 1.376 1_455 S
C3516 C3517 1.413 . S
C3516 C3519 1.559 . S
C3517 C3513 1.408 1_455 S
C3517 C3516 1.413 . S
C3517 H3529 0.930 . S
C3518 C3514 1.524 . S
C3518 H3530 0.956 . S
C3518 H3531 0.961 . S
C3518 H3532 0.961 . S
C3519 C3516 1.559 . S
C3519 H3533 0.958 . S
C3519 H3534 0.961 . S
C3519 H3535 0.960 . S
H3520 C3504 0.931 . S
H3521 C3509 0.929 . S
H3522 C3510 0.960 . S
H3523 C3510 0.962 . S
H3524 C3510 0.960 . S
H3525 C3511 0.961 . S
H3526 C3511 0.961 . S
H3527 C3511 0.882 1_455 S
H3528 C3512 0.931 . S
H3529 C3517 0.930 . S
H3530 C3518 0.956 . S
H3531 C3518 0.961 . S
H3532 C3518 0.961 . S
H3533 C3519 0.958 . S
H3534 C3519 0.961 . S
H3535 C3519 0.960 . S
C3536 C3537 1.391 . S
C3536 C3538 1.394 . S
C3536 H3552 0.931 . S
C3537 C3536 1.391 . S
C3537 C3541 1.376 . S
C3538 C3536 1.394 . S
C3538 C3539 1.369 . S
C3538 C3542 1.531 . S
C3539 C3538 1.369 . S
C3539 C3540 1.410 . S
C3539 C3547 1.503 . S
C3540 C3539 1.410 . S
C3540 C3541 1.392 . S
C3540 C3543 1.511 . S
C3541 C3537 1.376 . S
C3541 C3540 1.392 . S
C3541 H3553 0.929 . S
C3542 C3538 1.531 . S
C3542 H3554 0.960 . S
C3542 H3555 0.962 . S
C3542 H3556 0.960 . S
C3543 C3540 1.511 . S
C3543 H3557 0.961 . S
C3543 H3558 0.961 . S
C3543 H3559 0.961 . S
C3544 C3545 1.370 . S
C3544 C3546 1.363 . S
C3544 H3560 0.931 . S
C3545 C3544 1.370 . S
C3545 C3549 1.408 . S
C3546 C3544 1.363 . S
C3546 C3547 1.370 . S
C3546 C3550 1.524 . S
C3547 C3539 1.503 . S
C3547 C3546 1.370 . S
C3547 C3548 1.403 . S
C3548 C3547 1.403 . S
C3548 C3549 1.404 . S
C3548 C3551 1.539 . S
C3549 C3545 1.408 . S
C3549 C3548 1.404 . S
C3549 H3561 0.930 . S
C3550 C3546 1.524 . S
C3550 H3562 0.956 . S
C3550 H3563 0.961 . S
C3550 H3564 0.961 . S
C3551 C3548 1.539 . S
C3551 H3565 0.958 . S
C3551 H3566 0.961 . S
C3551 H3567 0.960 . S
H3552 C3536 0.931 . S
H3553 C3541 0.929 . S
H3554 C3542 0.960 . S
H3555 C3542 0.962 . S
H3556 C3542 0.960 . S
H3557 C3543 0.961 . S
H3558 C3543 0.961 . S
H3559 C3543 0.961 . S
H3560 C3544 0.931 . S
H3561 C3549 0.930 . S
H3562 C3550 0.956 . S
H3563 C3550 0.961 . S
H3564 C3550 0.961 . S
H3565 C3551 0.958 . S
H3566 C3551 0.961 . S
H3567 C3551 0.960 . S
C3568 C3569 1.391 . S
C3568 C3570 1.394 . S
C3568 H3584 0.931 . S
C3569 C3568 1.391 . S
C3569 C3573 1.376 . S
C3570 C3568 1.394 . S
C3570 C3571 1.369 . S
C3570 C3574 1.531 . S
C3571 C3570 1.369 . S
C3571 C3572 1.410 . S
C3571 C3579 1.503 . S
C3572 C3571 1.410 . S
C3572 C3573 1.392 . S
C3572 C3575 1.511 . S
C3573 C3569 1.376 . S
C3573 C3572 1.392 . S
C3573 H3585 0.929 . S
C3574 C3570 1.531 . S
C3574 H3586 0.960 . S
C3574 H3587 0.962 . S
C3574 H3588 0.960 . S
C3575 C3572 1.511 . S
C3575 H3589 0.961 . S
C3575 H3590 0.961 . S
C3575 H3591 0.961 . S
C3576 C3577 1.370 . S
C3576 C3578 1.363 . S
C3576 H3592 0.931 . S
C3577 C3576 1.370 . S
C3577 C3581 1.408 . S
C3578 C3576 1.363 . S
C3578 C3579 1.370 . S
C3578 C3582 1.524 . S
C3579 C3571 1.503 . S
C3579 C3578 1.370 . S
C3579 C3580 1.403 . S
C3580 C3579 1.403 . S
C3580 C3581 1.404 . S
C3580 C3583 1.539 . S
C3581 C3577 1.408 . S
C3581 C3580 1.404 . S
C3581 H3593 0.930 . S
C3582 C3578 1.524 . S
C3582 H3594 0.956 . S
C3582 H3595 0.961 . S
C3582 H3596 0.961 . S
C3583 C3580 1.539 . S
C3583 H3597 0.958 . S
C3583 H3598 0.961 . S
C3583 H3599 0.960 . S
H3584 C3568 0.931 . S
H3585 C3573 0.929 . S
H3586 C3574 0.960 . S
H3587 C3574 0.962 . S
H3588 C3574 0.960 . S
H3589 C3575 0.961 . S
H3590 C3575 0.961 . S
H3591 C3575 0.961 . S
H3592 C3576 0.931 . S
H3593 C3581 0.930 . S
H3594 C3582 0.956 . S
H3595 C3582 0.961 . S
H3596 C3582 0.961 . S
H3597 C3583 0.958 . S
H3598 C3583 0.961 . S
H3599 C3583 0.960 . S
C3600 C3601 1.391 . S
C3600 C3602 1.394 . S
C3600 H3616 0.931 . S
C3601 C3600 1.391 . S
C3601 C3605 1.376 . S
C3602 C3600 1.394 . S
C3602 C3603 1.369 . S
C3602 C3606 1.531 . S
C3603 C3602 1.369 . S
C3603 C3604 1.410 . S
C3603 C3611 1.503 . S
C3604 C3603 1.410 . S
C3604 C3605 1.392 . S
C3604 C3607 1.511 . S
C3605 C3601 1.376 . S
C3605 C3604 1.392 . S
C3605 H3617 0.929 . S
C3606 C3602 1.531 . S
C3606 H3618 0.960 . S
C3606 H3619 0.962 . S
C3606 H3620 0.960 . S
C3607 C3604 1.511 . S
C3607 H3621 0.961 . S
C3607 H3622 0.961 . S
C3607 H3623 0.961 . S
C3608 C3609 1.370 . S
C3608 C3610 1.363 . S
C3608 H3624 0.931 . S
C3609 C3608 1.370 . S
C3609 C3613 1.408 . S
C3610 C3608 1.363 . S
C3610 C3611 1.370 . S
C3610 C3614 1.524 . S
C3611 C3603 1.503 . S
C3611 C3610 1.370 . S
C3611 C3612 1.403 . S
C3612 C3611 1.403 . S
C3612 C3613 1.404 . S
C3612 C3615 1.539 . S
C3613 C3609 1.408 . S
C3613 C3612 1.404 . S
C3613 H3625 0.930 . S
C3614 C3610 1.524 . S
C3614 H3626 0.956 . S
C3614 H3627 0.961 . S
C3614 H3628 0.961 . S
C3615 C3612 1.539 . S
C3615 H3629 0.958 . S
C3615 H3630 0.961 . S
C3615 H3631 0.960 . S
H3616 C3600 0.931 . S
H3617 C3605 0.929 . S
H3618 C3606 0.960 . S
H3619 C3606 0.962 . S
H3620 C3606 0.960 . S
H3621 C3607 0.961 . S
H3622 C3607 0.961 . S
H3623 C3607 0.961 . S
H3624 C3608 0.931 . S
H3625 C3613 0.930 . S
H3626 C3614 0.956 . S
H3627 C3614 0.961 . S
H3628 C3614 0.961 . S
H3629 C3615 0.958 . S
H3630 C3615 0.961 . S
H3631 C3615 0.960 . S
C3632 C3633 1.391 . S
C3632 C3634 1.394 . S
C3632 H3648 0.931 . S
C3633 C3632 1.391 . S
C3633 C3637 1.376 . S
C3634 C3632 1.394 . S
C3634 C3635 1.369 . S
C3634 C3638 1.531 . S
C3635 C3634 1.369 . S
C3635 C3636 1.410 . S
C3635 C3643 1.503 . S
C3636 C3635 1.410 . S
C3636 C3637 1.392 . S
C3636 C3639 1.511 . S
C3637 C3633 1.376 . S
C3637 C3636 1.392 . S
C3637 H3649 0.929 . S
C3638 C3634 1.531 . S
C3638 H3650 0.960 . S
C3638 H3651 0.962 . S
C3638 H3652 0.960 . S
C3639 C3636 1.511 . S
C3639 H3653 0.961 . S
C3639 H3654 0.961 . S
C3639 H3655 0.961 . S
C3640 C3641 1.370 . S
C3640 C3642 1.363 . S
C3640 H3656 0.931 . S
C3641 C3640 1.370 . S
C3641 C3645 1.408 . S
C3642 C3640 1.363 . S
C3642 C3643 1.370 . S
C3642 C3646 1.524 . S
C3643 C3635 1.503 . S
C3643 C3642 1.370 . S
C3643 C3644 1.403 . S
C3644 C3643 1.403 . S
C3644 C3645 1.404 . S
C3644 C3647 1.539 . S
C3645 C3641 1.408 . S
C3645 C3644 1.404 . S
C3645 H3657 0.930 . S
C3646 C3642 1.524 . S
C3646 H3658 0.956 . S
C3646 H3659 0.961 . S
C3646 H3660 0.961 . S
C3647 C3644 1.539 . S
C3647 H3661 0.958 . S
C3647 H3662 0.961 . S
C3647 H3663 0.960 . S
H3648 C3632 0.931 . S
H3649 C3637 0.929 . S
H3650 C3638 0.960 . S
H3651 C3638 0.962 . S
H3652 C3638 0.960 . S
H3653 C3639 0.961 . S
H3654 C3639 0.961 . S
H3655 C3639 0.961 . S
H3656 C3640 0.931 . S
H3657 C3645 0.930 . S
H3658 C3646 0.956 . S
H3659 C3646 0.961 . S
H3660 C3646 0.961 . S
H3661 C3647 0.958 . S
H3662 C3647 0.961 . S
H3663 C3647 0.960 . S
C3664 C3665 1.391 1_655 S
C3664 C3666 1.394 . S
C3664 H3680 0.931 . S
C3665 C3664 1.391 1_455 S
C3665 C3669 1.376 . S
C3666 C3664 1.394 . S
C3666 C3667 1.369 1_655 S
C3666 C3670 1.531 . S
C3667 C3666 1.369 1_455 S
C3667 C3668 1.410 . S
C3667 C3675 1.503 . S
C3668 C3667 1.410 . S
C3668 C3669 1.392 . S
C3668 C3671 1.511 . S
C3669 C3665 1.376 . S
C3669 C3668 1.392 . S
C3669 H3681 0.929 . S
C3670 C3666 1.531 . S
C3670 H3682 0.960 . S
C3670 H3683 0.962 . S
C3670 H3684 0.960 . S
C3671 C3668 1.511 . S
C3671 H3685 0.961 . S
C3671 H3686 0.961 . S
C3671 H3687 0.961 . S
C3672 C3673 1.370 1_655 S
C3672 C3674 1.363 . S
C3672 H3688 0.931 . S
C3673 C3672 1.370 1_455 S
C3673 C3677 1.408 . S
C3674 C3672 1.363 . S
C3674 C3675 1.370 1_655 S
C3674 C3678 1.524 . S
C3675 C3667 1.503 . S
C3675 C3674 1.370 1_455 S
C3675 C3676 1.403 . S
C3676 C3675 1.403 . S
C3676 C3677 1.404 . S
C3676 C3679 1.539 . S
C3677 C3673 1.408 . S
C3677 C3676 1.404 . S
C3677 H3689 0.930 . S
C3678 C3674 1.524 . S
C3678 H3690 0.956 . S
C3678 H3691 0.961 . S
C3678 H3692 0.961 . S
C3679 C3676 1.539 . S
C3679 H3693 0.958 . S
C3679 H3694 0.961 . S
C3679 H3695 0.960 . S
H3680 C3664 0.931 . S
H3681 C3669 0.929 . S
H3682 C3670 0.960 . S
H3683 C3670 0.962 . S
H3684 C3670 0.960 . S
H3685 C3671 0.961 . S
H3686 C3671 0.961 . S
H3687 C3671 0.961 . S
H3688 C3672 0.931 . S
H3689 C3677 0.930 . S
H3690 C3678 0.956 . S
H3691 C3678 0.961 . S
H3692 C3678 0.961 . S
H3693 C3679 0.958 . S
H3694 C3679 0.961 . S
H3695 C3679 0.960 . S
C3696 C3697 1.391 . S
C3696 C3698 1.394 . S
C3696 H3712 0.931 . S
C3697 C3696 1.391 . S
C3697 C3701 1.376 . S
C3698 C3696 1.394 . S
C3698 C3699 1.369 . S
C3698 C3702 1.531 . S
C3699 C3698 1.369 . S
C3699 C3700 1.410 . S
C3699 C3707 1.503 . S
C3700 C3699 1.410 . S
C3700 C3701 1.392 . S
C3700 C3703 1.511 . S
C3701 C3697 1.376 . S
C3701 C3700 1.392 . S
C3701 H3713 0.929 . S
C3702 C3698 1.531 . S
C3702 H3714 0.960 . S
C3702 H3715 0.962 . S
C3702 H3716 0.960 . S
C3703 C3700 1.511 . S
C3703 H3717 0.961 . S
C3703 H3718 0.961 . S
C3703 H3719 0.961 . S
C3704 C3705 1.370 . S
C3704 C3706 1.363 . S
C3704 H3720 0.931 . S
C3705 C3704 1.370 . S
C3705 C3709 1.408 . S
C3706 C3704 1.363 . S
C3706 C3707 1.370 . S
C3706 C3710 1.524 . S
C3707 C3699 1.503 . S
C3707 C3706 1.370 . S
C3707 C3708 1.403 . S
C3708 C3707 1.403 . S
C3708 C3709 1.404 . S
C3708 C3711 1.539 . S
C3709 C3705 1.408 . S
C3709 C3708 1.404 . S
C3709 H3721 0.930 . S
C3710 C3706 1.524 . S
C3710 H3722 0.956 . S
C3710 H3723 0.961 . S
C3710 H3724 0.961 . S
C3711 C3708 1.539 . S
C3711 H3725 0.958 . S
C3711 H3726 0.961 . S
C3711 H3727 0.960 . S
H3712 C3696 0.931 . S
H3713 C3701 0.929 . S
H3714 C3702 0.960 . S
H3715 C3702 0.962 . S
H3716 C3702 0.960 . S
H3717 C3703 0.961 . S
H3718 C3703 0.961 . S
H3719 C3703 0.961 . S
H3720 C3704 0.931 . S
H3721 C3709 0.930 . S
H3722 C3710 0.956 . S
H3723 C3710 0.961 . S
H3724 C3710 0.961 . S
H3725 C3711 0.958 . S
H3726 C3711 0.961 . S
H3727 C3711 0.960 . S
C3728 C3729 1.391 . S
C3728 C3730 1.394 . S
C3728 H3744 0.931 . S
C3729 C3728 1.391 . S
C3729 C3733 1.376 . S
C3730 C3728 1.394 . S
C3730 C3731 1.369 . S
C3730 C3734 1.531 . S
C3731 C3730 1.369 . S
C3731 C3732 1.410 . S
C3731 C3739 1.503 . S
C3732 C3731 1.410 . S
C3732 C3733 1.392 . S
C3732 C3735 1.511 . S
C3733 C3729 1.376 . S
C3733 C3732 1.392 . S
C3733 H3745 0.929 . S
C3734 C3730 1.531 . S
C3734 H3746 0.960 . S
C3734 H3747 0.962 . S
C3734 H3748 0.960 . S
C3735 C3732 1.511 . S
C3735 H3749 0.961 . S
C3735 H3750 0.961 . S
C3735 H3751 0.961 . S
C3736 C3737 1.370 . S
C3736 C3738 1.363 . S
C3736 H3752 0.931 . S
C3737 C3736 1.370 . S
C3737 C3741 1.408 . S
C3738 C3736 1.363 . S
C3738 C3739 1.370 . S
C3738 C3742 1.524 . S
C3739 C3731 1.503 . S
C3739 C3738 1.370 . S
C3739 C3740 1.403 . S
C3740 C3739 1.403 . S
C3740 C3741 1.404 . S
C3740 C3743 1.539 . S
C3741 C3737 1.408 . S
C3741 C3740 1.404 . S
C3741 H3753 0.930 . S
C3742 C3738 1.524 . S
C3742 H3754 0.956 . S
C3742 H3755 0.961 . S
C3742 H3756 0.961 . S
C3743 C3740 1.539 . S
C3743 H3757 0.958 . S
C3743 H3758 0.961 . S
C3743 H3759 0.960 . S
H3744 C3728 0.931 . S
H3745 C3733 0.929 . S
H3746 C3734 0.960 . S
H3747 C3734 0.962 . S
H3748 C3734 0.960 . S
H3749 C3735 0.961 . S
H3750 C3735 0.961 . S
H3751 C3735 0.961 . S
H3752 C3736 0.931 . S
H3753 C3741 0.930 . S
H3754 C3742 0.956 . S
H3755 C3742 0.961 . S
H3756 C3742 0.961 . S
H3757 C3743 0.958 . S
H3758 C3743 0.961 . S
H3759 C3743 0.960 . S
C3760 C3761 1.391 . S
C3760 C3762 1.394 . S
C3760 H3776 0.931 . S
C3761 C3760 1.391 . S
C3761 C3765 1.376 . S
C3762 C3760 1.394 . S
C3762 C3763 1.369 . S
C3762 C3766 1.531 . S
C3763 C3762 1.369 . S
C3763 C3764 1.410 . S
C3763 C3771 1.503 . S
C3764 C3763 1.410 . S
C3764 C3765 1.392 . S
C3764 C3767 1.511 . S
C3765 C3761 1.376 . S
C3765 C3764 1.392 . S
C3765 H3777 0.929 . S
C3766 C3762 1.531 . S
C3766 H3778 0.960 . S
C3766 H3779 0.962 . S
C3766 H3780 0.960 . S
C3767 C3764 1.511 . S
C3767 H3781 0.961 . S
C3767 H3782 0.961 . S
C3767 H3783 0.961 . S
C3768 C3769 1.370 . S
C3768 C3770 1.363 . S
C3768 H3784 0.931 . S
C3769 C3768 1.370 . S
C3769 C3773 1.408 . S
C3770 C3768 1.363 . S
C3770 C3771 1.370 . S
C3770 C3774 1.524 . S
C3771 C3763 1.503 . S
C3771 C3770 1.370 . S
C3771 C3772 1.403 . S
C3772 C3771 1.403 . S
C3772 C3773 1.404 . S
C3772 C3775 1.539 . S
C3773 C3769 1.408 . S
C3773 C3772 1.404 . S
C3773 H3785 0.930 . S
C3774 C3770 1.524 . S
C3774 H3786 0.956 . S
C3774 H3787 0.961 . S
C3774 H3788 0.961 . S
C3775 C3772 1.539 . S
C3775 H3789 0.958 . S
C3775 H3790 0.961 . S
C3775 H3791 0.960 . S
H3776 C3760 0.931 . S
H3777 C3765 0.929 . S
H3778 C3766 0.960 . S
H3779 C3766 0.962 . S
H3780 C3766 0.960 . S
H3781 C3767 0.961 . S
H3782 C3767 0.961 . S
H3783 C3767 0.961 . S
H3784 C3768 0.931 . S
H3785 C3773 0.930 . S
H3786 C3774 0.956 . S
H3787 C3774 0.961 . S
H3788 C3774 0.961 . S
H3789 C3775 0.958 . S
H3790 C3775 0.961 . S
H3791 C3775 0.960 . S
C3792 C3793 1.391 . S
C3792 C3794 1.394 . S
C3792 H3808 0.931 . S
C3793 C3792 1.391 . S
C3793 C3797 1.376 . S
C3794 C3792 1.394 . S
C3794 C3795 1.369 . S
C3794 C3798 1.531 . S
C3795 C3794 1.369 . S
C3795 C3796 1.410 . S
C3795 C3803 1.503 . S
C3796 C3795 1.410 . S
C3796 C3797 1.392 . S
C3796 C3799 1.511 . S
C3797 C3793 1.376 . S
C3797 C3796 1.392 . S
C3797 H3809 0.929 . S
C3798 C3794 1.531 . S
C3798 H3810 0.960 . S
C3798 H3811 0.962 . S
C3798 H3812 0.960 . S
C3799 C3796 1.511 . S
C3799 H3813 0.961 . S
C3799 H3814 0.961 . S
C3799 H3815 0.961 . S
C3800 C3801 1.370 . S
C3800 C3802 1.363 . S
C3800 H3816 0.931 . S
C3801 C3800 1.370 . S
C3801 C3805 1.408 . S
C3802 C3800 1.363 . S
C3802 C3803 1.370 . S
C3802 C3806 1.524 . S
C3803 C3795 1.503 . S
C3803 C3802 1.370 . S
C3803 C3804 1.403 . S
C3804 C3803 1.403 . S
C3804 C3805 1.404 . S
C3804 C3807 1.539 . S
C3805 C3801 1.408 . S
C3805 C3804 1.404 . S
C3805 H3817 0.930 . S
C3806 C3802 1.524 . S
C3806 H3818 0.956 . S
C3806 H3819 0.961 . S
C3806 H3820 0.961 . S
C3807 C3804 1.539 . S
C3807 H3821 0.958 . S
C3807 H3822 0.961 . S
C3807 H3823 0.960 . S
H3808 C3792 0.931 . S
H3809 C3797 0.929 . S
H3810 C3798 0.960 . S
H3811 C3798 0.962 . S
H3812 C3798 0.960 . S
H3813 C3799 0.961 . S
H3814 C3799 0.961 . S
H3815 C3799 0.961 . S
H3816 C3800 0.931 . S
H3817 C3805 0.930 . S
H3818 C3806 0.956 . S
H3819 C3806 0.961 . S
H3820 C3806 0.961 . S
H3821 C3807 0.958 . S
H3822 C3807 0.961 . S
H3823 C3807 0.960 . S
C3824 C3825 1.391 . S
C3824 C3826 1.394 . S
C3824 H3840 0.931 . S
C3825 C3824 1.391 . S
C3825 C3829 1.376 . S
C3826 C3824 1.394 . S
C3826 C3827 1.369 . S
C3826 C3830 1.531 . S
C3827 C3826 1.369 . S
C3827 C3828 1.410 . S
C3827 C3835 1.503 . S
C3828 C3827 1.410 . S
C3828 C3829 1.392 . S
C3828 C3831 1.511 . S
C3829 C3825 1.376 . S
C3829 C3828 1.392 . S
C3829 H3841 0.929 . S
C3830 C3826 1.531 . S
C3830 H3842 0.960 . S
C3830 H3843 0.962 . S
C3830 H3844 0.960 . S
C3831 C3828 1.511 . S
C3831 H3845 0.961 . S
C3831 H3846 0.961 . S
C3831 H3847 0.961 . S
C3832 C3833 1.370 . S
C3832 C3834 1.363 . S
C3832 H3848 0.931 . S
C3833 C3832 1.370 . S
C3833 C3837 1.408 . S
C3834 C3832 1.363 . S
C3834 C3835 1.370 . S
C3834 C3838 1.524 . S
C3835 C3827 1.503 . S
C3835 C3834 1.370 . S
C3835 C3836 1.403 . S
C3836 C3835 1.403 . S
C3836 C3837 1.404 . S
C3836 C3839 1.539 . S
C3837 C3833 1.408 . S
C3837 C3836 1.404 . S
C3837 H3849 0.930 . S
C3838 C3834 1.524 . S
C3838 H3850 0.956 . S
C3838 H3851 0.961 . S
C3838 H3852 0.961 . S
C3839 C3836 1.539 . S
C3839 H3853 0.958 . S
C3839 H3854 0.961 . S
C3839 H3855 0.960 . S
H3840 C3824 0.931 . S
H3841 C3829 0.929 . S
H3842 C3830 0.960 . S
H3843 C3830 0.962 . S
H3844 C3830 0.960 . S
H3845 C3831 0.961 . S
H3846 C3831 0.961 . S
H3847 C3831 0.961 . S
H3848 C3832 0.931 . S
H3849 C3837 0.930 . S
H3850 C3838 0.956 . S
H3851 C3838 0.961 . S
H3852 C3838 0.961 . S
H3853 C3839 0.958 . S
H3854 C3839 0.961 . S
H3855 C3839 0.960 . S
C3856 C3857 1.391 . S
C3856 C3858 1.394 . S
C3856 H3872 0.931 . S
C3857 C3856 1.391 . S
C3857 C3861 1.376 . S
C3858 C3856 1.394 . S
C3858 C3859 1.369 . S
C3858 C3862 1.531 . S
C3859 C3858 1.369 . S
C3859 C3860 1.410 . S
C3859 C3867 1.503 . S
C3860 C3859 1.410 . S
C3860 C3861 1.392 . S
C3860 C3863 1.511 . S
C3861 C3857 1.376 . S
C3861 C3860 1.392 . S
C3861 H3873 0.929 . S
C3862 C3858 1.531 . S
C3862 H3874 0.960 . S
C3862 H3875 0.962 . S
C3862 H3876 0.960 . S
C3863 C3860 1.511 . S
C3863 H3877 0.961 . S
C3863 H3878 0.961 . S
C3863 H3879 0.961 . S
C3864 C3865 1.370 . S
C3864 C3866 1.363 . S
C3864 H3880 0.931 . S
C3865 C3864 1.370 . S
C3865 C3869 1.408 . S
C3866 C3864 1.363 . S
C3866 C3867 1.370 . S
C3866 C3870 1.524 . S
C3867 C3859 1.503 . S
C3867 C3866 1.370 . S
C3867 C3868 1.403 . S
C3868 C3867 1.403 . S
C3868 C3869 1.404 . S
C3868 C3871 1.539 . S
C3869 C3865 1.408 . S
C3869 C3868 1.404 . S
C3869 H3881 0.930 . S
C3870 C3866 1.524 . S
C3870 H3882 0.956 . S
C3870 H3883 0.961 . S
C3870 H3884 0.961 . S
C3871 C3868 1.539 . S
C3871 H3885 0.958 . S
C3871 H3886 0.961 . S
C3871 H3887 0.960 . S
H3872 C3856 0.931 . S
H3873 C3861 0.929 . S
H3874 C3862 0.960 . S
H3875 C3862 0.962 . S
H3876 C3862 0.960 . S
H3877 C3863 0.961 . S
H3878 C3863 0.961 . S
H3879 C3863 0.961 . S
H3880 C3864 0.931 . S
H3881 C3869 0.930 . S
H3882 C3870 0.956 . S
H3883 C3870 0.961 . S
H3884 C3870 0.961 . S
H3885 C3871 0.958 . S
H3886 C3871 0.961 . S
H3887 C3871 0.960 . S
C3888 C3889 1.391 . S
C3888 C3890 1.394 . S
C3888 H3904 0.931 . S
C3889 C3888 1.391 . S
C3889 C3893 1.376 . S
C3890 C3888 1.394 . S
C3890 C3891 1.369 . S
C3890 C3894 1.531 . S
C3891 C3890 1.369 . S
C3891 C3892 1.410 . S
C3891 C3899 1.503 . S
C3892 C3891 1.410 . S
C3892 C3893 1.392 . S
C3892 C3895 1.511 . S
C3893 C3889 1.376 . S
C3893 C3892 1.392 . S
C3893 H3905 0.929 . S
C3894 C3890 1.531 . S
C3894 H3906 0.960 . S
C3894 H3907 0.962 . S
C3894 H3908 0.960 . S
C3895 C3892 1.511 . S
C3895 H3909 0.961 . S
C3895 H3910 0.961 . S
C3895 H3911 0.961 . S
C3896 C3897 1.370 . S
C3896 C3898 1.363 . S
C3896 H3912 0.931 . S
C3897 C3896 1.370 . S
C3897 C3901 1.408 . S
C3898 C3896 1.363 . S
C3898 C3899 1.370 . S
C3898 C3902 1.524 . S
C3899 C3891 1.503 . S
C3899 C3898 1.370 . S
C3899 C3900 1.403 . S
C3900 C3899 1.403 . S
C3900 C3901 1.404 . S
C3900 C3903 1.539 . S
C3901 C3897 1.408 . S
C3901 C3900 1.404 . S
C3901 H3913 0.930 . S
C3902 C3898 1.524 . S
C3902 H3914 0.956 . S
C3902 H3915 0.961 . S
C3902 H3916 0.961 . S
C3903 C3900 1.539 . S
C3903 H3917 0.958 . S
C3903 H3918 0.961 . S
C3903 H3919 0.960 . S
H3904 C3888 0.931 . S
H3905 C3893 0.929 . S
H3906 C3894 0.960 . S
H3907 C3894 0.962 . S
H3908 C3894 0.960 . S
H3909 C3895 0.961 . S
H3910 C3895 0.961 . S
H3911 C3895 0.961 . S
H3912 C3896 0.931 . S
H3913 C3901 0.930 . S
H3914 C3902 0.956 . S
H3915 C3902 0.961 . S
H3916 C3902 0.961 . S
H3917 C3903 0.958 . S
H3918 C3903 0.961 . S
H3919 C3903 0.960 . S
C3920 C3921 1.391 . S
C3920 C3922 1.394 . S
C3920 H3936 0.931 . S
C3921 C3920 1.391 . S
C3921 C3925 1.376 . S
C3922 C3920 1.394 . S
C3922 C3923 1.369 . S
C3922 C3926 1.531 . S
C3923 C3922 1.369 . S
C3923 C3924 1.410 . S
C3923 C3931 1.503 . S
C3924 C3923 1.410 . S
C3924 C3925 1.392 . S
C3924 C3927 1.511 . S
C3925 C3921 1.376 . S
C3925 C3924 1.392 . S
C3925 H3937 0.929 . S
C3926 C3922 1.531 . S
C3926 H3938 0.960 . S
C3926 H3939 0.962 . S
C3926 H3940 0.960 . S
C3927 C3924 1.511 . S
C3927 H3941 0.961 . S
C3927 H3942 0.961 . S
C3927 H3943 0.961 . S
C3928 C3929 1.370 . S
C3928 C3930 1.363 . S
C3928 H3944 0.931 . S
C3929 C3928 1.370 . S
C3929 C3933 1.408 . S
C3930 C3928 1.363 . S
C3930 C3931 1.370 . S
C3930 C3934 1.524 . S
C3931 C3923 1.503 . S
C3931 C3930 1.370 . S
C3931 C3932 1.403 . S
C3932 C3931 1.403 . S
C3932 C3933 1.404 . S
C3932 C3935 1.539 . S
C3933 C3929 1.408 . S
C3933 C3932 1.404 . S
C3933 H3945 0.930 . S
C3934 C3930 1.524 . S
C3934 H3946 0.956 . S
C3934 H3947 0.961 . S
C3934 H3948 0.961 . S
C3935 C3932 1.539 . S
C3935 H3949 0.958 . S
C3935 H3950 0.961 . S
C3935 H3951 0.960 . S
H3936 C3920 0.931 . S
H3937 C3925 0.929 . S
H3938 C3926 0.960 . S
H3939 C3926 0.962 . S
H3940 C3926 0.960 . S
H3941 C3927 0.961 . S
H3942 C3927 0.961 . S
H3943 C3927 0.961 . S
H3944 C3928 0.931 . S
H3945 C3933 0.930 . S
H3946 C3934 0.956 . S
H3947 C3934 0.961 . S
H3948 C3934 0.961 . S
H3949 C3935 0.958 . S
H3950 C3935 0.961 . S
H3951 C3935 0.960 . S
C3952 C3953 1.391 . S
C3952 C3954 1.394 . S
C3952 H3968 0.931 . S
C3953 C3952 1.391 . S
C3953 C3957 1.376 . S
C3954 C3952 1.394 . S
C3954 C3955 1.369 . S
C3954 C3958 1.531 . S
C3955 C3954 1.369 . S
C3955 C3956 1.410 . S
C3955 C3963 1.503 . S
C3956 C3955 1.410 . S
C3956 C3957 1.392 . S
C3956 C3959 1.511 . S
C3957 C3953 1.376 . S
C3957 C3956 1.392 . S
C3957 H3969 0.929 . S
C3958 C3954 1.531 . S
C3958 H3970 0.960 . S
C3958 H3971 0.962 . S
C3958 H3972 0.960 . S
C3959 C3956 1.511 . S
C3959 H3973 0.961 . S
C3959 H3974 0.961 . S
C3959 H3975 0.961 . S
C3960 C3961 1.370 . S
C3960 C3962 1.363 . S
C3960 H3976 0.931 . S
C3961 C3960 1.370 . S
C3961 C3965 1.408 . S
C3962 C3960 1.363 . S
C3962 C3963 1.370 . S
C3962 C3966 1.524 . S
C3963 C3955 1.503 . S
C3963 C3962 1.370 . S
C3963 C3964 1.403 . S
C3964 C3963 1.403 . S
C3964 C3965 1.404 . S
C3964 C3967 1.539 . S
C3965 C3961 1.408 . S
C3965 C3964 1.404 . S
C3965 H3977 0.930 . S
C3966 C3962 1.524 . S
C3966 H3978 0.956 . S
C3966 H3979 0.961 . S
C3966 H3980 0.961 . S
C3967 C3964 1.539 . S
C3967 H3981 0.958 . S
C3967 H3982 0.961 . S
C3967 H3983 0.960 . S
H3968 C3952 0.931 . S
H3969 C3957 0.929 . S
H3970 C3958 0.960 . S
H3971 C3958 0.962 . S
H3972 C3958 0.960 . S
H3973 C3959 0.961 . S
H3974 C3959 0.961 . S
H3975 C3959 0.961 . S
H3976 C3960 0.931 . S
H3977 C3965 0.930 . S
H3978 C3966 0.956 . S
H3979 C3966 0.961 . S
H3980 C3966 0.961 . S
H3981 C3967 0.958 . S
H3982 C3967 0.961 . S
H3983 C3967 0.960 . S
C3984 C3985 1.391 . S
C3984 C3986 1.394 . S
C3984 H4000 0.931 . S
C3985 C3984 1.391 . S
C3985 C3989 1.376 . S
C3986 C3984 1.394 . S
C3986 C3987 1.369 . S
C3986 C3990 1.531 . S
C3987 C3986 1.369 . S
C3987 C3988 1.410 . S
C3987 C3995 1.503 . S
C3988 C3987 1.410 . S
C3988 C3989 1.392 . S
C3988 C3991 1.511 . S
C3989 C3985 1.376 . S
C3989 C3988 1.392 . S
C3989 H4001 0.929 . S
C3990 C3986 1.531 . S
C3990 H4002 0.960 . S
C3990 H4003 0.962 . S
C3990 H4004 0.960 . S
C3991 C3988 1.511 . S
C3991 H4005 0.961 . S
C3991 H4006 0.961 . S
C3991 H4007 0.961 . S
C3992 C3993 1.370 . S
C3992 C3994 1.363 . S
C3992 H4008 0.931 . S
C3993 C3992 1.370 . S
C3993 C3997 1.408 . S
C3994 C3992 1.363 . S
C3994 C3995 1.370 . S
C3994 C3998 1.524 . S
C3995 C3987 1.503 . S
C3995 C3994 1.370 . S
C3995 C3996 1.403 . S
C3996 C3995 1.403 . S
C3996 C3997 1.404 . S
C3996 C3999 1.539 . S
C3997 C3993 1.408 . S
C3997 C3996 1.404 . S
C3997 H4009 0.930 . S
C3998 C3994 1.524 . S
C3998 H4010 0.956 . S
C3998 H4011 0.961 . S
C3998 H4012 0.961 . S
C3999 C3996 1.539 . S
C3999 H4013 0.958 . S
C3999 H4014 0.961 . S
C3999 H4015 0.960 . S
H4000 C3984 0.931 . S
H4001 C3989 0.929 . S
H4002 C3990 0.960 . S
H4003 C3990 0.962 . S
H4004 C3990 0.960 . S
H4005 C3991 0.961 . S
H4006 C3991 0.961 . S
H4007 C3991 0.961 . S
H4008 C3992 0.931 . S
H4009 C3997 0.930 . S
H4010 C3998 0.956 . S
H4011 C3998 0.961 . S
H4012 C3998 0.961 . S
H4013 C3999 0.958 . S
H4014 C3999 0.961 . S
H4015 C3999 0.960 . S
C4016 C4017 1.391 . S
C4016 C4018 1.394 . S
C4016 H4032 0.931 . S
C4017 C4016 1.391 . S
C4017 C4021 1.376 . S
C4018 C4016 1.394 . S
C4018 C4019 1.369 . S
C4018 C4022 1.531 . S
C4019 C4018 1.369 . S
C4019 C4020 1.410 . S
C4019 C4027 1.503 . S
C4020 C4019 1.410 . S
C4020 C4021 1.392 . S
C4020 C4023 1.511 . S
C4021 C4017 1.376 . S
C4021 C4020 1.392 . S
C4021 H4033 0.929 . S
C4022 C4018 1.531 . S
C4022 H4034 0.960 . S
C4022 H4035 0.962 . S
C4022 H4036 0.960 . S
C4023 C4020 1.511 . S
C4023 H4037 0.961 . S
C4023 H4038 0.961 . S
C4023 H4039 0.961 . S
C4024 C4025 1.370 . S
C4024 C4026 1.363 . S
C4024 H4040 0.931 . S
C4025 C4024 1.370 . S
C4025 C4029 1.408 . S
C4026 C4024 1.363 . S
C4026 C4027 1.370 . S
C4026 C4030 1.524 . S
C4027 C4019 1.503 . S
C4027 C4026 1.370 . S
C4027 C4028 1.403 . S
C4028 C4027 1.403 . S
C4028 C4029 1.404 . S
C4028 C4031 1.539 . S
C4029 C4025 1.408 . S
C4029 C4028 1.404 . S
C4029 H4041 0.930 . S
C4030 C4026 1.524 . S
C4030 H4042 0.956 . S
C4030 H4043 0.961 . S
C4030 H4044 0.961 . S
C4031 C4028 1.539 . S
C4031 H4045 0.958 . S
C4031 H4046 0.961 . S
C4031 H4047 0.960 . S
H4032 C4016 0.931 . S
H4033 C4021 0.929 . S
H4034 C4022 0.960 . S
H4035 C4022 0.962 . S
H4036 C4022 0.960 . S
H4037 C4023 0.961 . S
H4038 C4023 0.961 . S
H4039 C4023 0.961 . S
H4040 C4024 0.931 . S
H4041 C4029 0.930 . S
H4042 C4030 0.956 . S
H4043 C4030 0.961 . S
H4044 C4030 0.961 . S
H4045 C4031 0.958 . S
H4046 C4031 0.961 . S
H4047 C4031 0.960 . S
C4048 C4049 1.391 . S
C4048 C4050 1.394 . S
C4048 H4064 0.931 . S
C4049 C4048 1.391 . S
C4049 C4053 1.376 . S
C4050 C4048 1.394 . S
C4050 C4051 1.369 . S
C4050 C4054 1.531 . S
C4051 C4050 1.369 . S
C4051 C4052 1.410 . S
C4051 C4059 1.503 . S
C4052 C4051 1.410 . S
C4052 C4053 1.392 . S
C4052 C4055 1.511 . S
C4053 C4049 1.376 . S
C4053 C4052 1.392 . S
C4053 H4065 0.929 . S
C4054 C4050 1.531 . S
C4054 H4066 0.960 . S
C4054 H4067 0.962 . S
C4054 H4068 0.960 . S
C4055 C4052 1.511 . S
C4055 H4069 0.961 . S
C4055 H4070 0.961 . S
C4055 H4071 0.961 . S
C4056 C4057 1.370 . S
C4056 C4058 1.363 . S
C4056 H4072 0.931 . S
C4057 C4056 1.370 . S
C4057 C4061 1.408 . S
C4058 C4056 1.363 . S
C4058 C4059 1.370 . S
C4058 C4062 1.524 . S
C4059 C4051 1.503 . S
C4059 C4058 1.370 . S
C4059 C4060 1.403 . S
C4060 C4059 1.403 . S
C4060 C4061 1.404 . S
C4060 C4063 1.539 . S
C4061 C4057 1.408 . S
C4061 C4060 1.404 . S
C4061 H4073 0.930 . S
C4062 C4058 1.524 . S
C4062 H4074 0.956 . S
C4062 H4075 0.961 . S
C4062 H4076 0.961 . S
C4063 C4060 1.539 . S
C4063 H4077 0.958 . S
C4063 H4078 0.961 . S
C4063 H4079 0.960 . S
H4064 C4048 0.931 . S
H4065 C4053 0.929 . S
H4066 C4054 0.960 . S
H4067 C4054 0.962 . S
H4068 C4054 0.960 . S
H4069 C4055 0.961 . S
H4070 C4055 0.961 . S
H4071 C4055 0.961 . S
H4072 C4056 0.931 . S
H4073 C4061 0.930 . S
H4074 C4062 0.956 . S
H4075 C4062 0.961 . S
H4076 C4062 0.961 . S
H4077 C4063 0.958 . S
H4078 C4063 0.961 . S
H4079 C4063 0.960 . S
C4080 C4081 1.391 . S
C4080 C4082 1.394 . S
C4080 H4096 0.931 . S
C4081 C4080 1.391 . S
C4081 C4085 1.376 . S
C4082 C4080 1.394 . S
C4082 C4083 1.369 . S
C4082 C4086 1.531 . S
C4083 C4082 1.369 . S
C4083 C4084 1.410 . S
C4083 C4091 1.503 . S
C4084 C4083 1.410 . S
C4084 C4085 1.392 . S
C4084 C4087 1.511 . S
C4085 C4081 1.376 . S
C4085 C4084 1.392 . S
C4085 H4097 0.929 . S
C4086 C4082 1.531 . S
C4086 H4098 0.960 . S
C4086 H4099 0.962 . S
C4086 H4100 0.960 . S
C4087 C4084 1.511 . S
C4087 H4101 0.961 . S
C4087 H4102 0.961 . S
C4087 H4103 0.961 . S
C4088 C4089 1.370 . S
C4088 C4090 1.363 . S
C4088 H4104 0.931 . S
C4089 C4088 1.370 . S
C4089 C4093 1.408 . S
C4090 C4088 1.363 . S
C4090 C4091 1.370 . S
C4090 C4094 1.524 . S
C4091 C4083 1.503 . S
C4091 C4090 1.370 . S
C4091 C4092 1.403 . S
C4092 C4091 1.403 . S
C4092 C4093 1.404 . S
C4092 C4095 1.539 . S
C4093 C4089 1.408 . S
C4093 C4092 1.404 . S
C4093 H4105 0.930 . S
C4094 C4090 1.524 . S
C4094 H4106 0.956 . S
C4094 H4107 0.961 . S
C4094 H4108 0.961 . S
C4095 C4092 1.539 . S
C4095 H4109 0.958 . S
C4095 H4110 0.961 . S
C4095 H4111 0.960 . S
H4096 C4080 0.931 . S
H4097 C4085 0.929 . S
H4098 C4086 0.960 . S
H4099 C4086 0.962 . S
H4100 C4086 0.960 . S
H4101 C4087 0.961 . S
H4102 C4087 0.961 . S
H4103 C4087 0.961 . S
H4104 C4088 0.931 . S
H4105 C4093 0.930 . S
H4106 C4094 0.956 . S
H4107 C4094 0.961 . S
H4108 C4094 0.961 . S
H4109 C4095 0.958 . S
H4110 C4095 0.961 . S
H4111 C4095 0.960 . S
C4112 C4113 1.391 . S
C4112 C4114 1.394 . S
C4112 H4128 0.931 . S
C4113 C4112 1.391 . S
C4113 C4117 1.376 . S
C4114 C4112 1.394 . S
C4114 C4115 1.369 . S
C4114 C4118 1.531 . S
C4115 C4114 1.369 . S
C4115 C4116 1.410 . S
C4115 C4123 1.503 . S
C4116 C4115 1.410 . S
C4116 C4117 1.392 . S
C4116 C4119 1.511 . S
C4117 C4113 1.376 . S
C4117 C4116 1.392 . S
C4117 H4129 0.929 . S
C4118 C4114 1.531 . S
C4118 H4130 0.960 . S
C4118 H4131 0.962 . S
C4118 H4132 0.960 . S
C4119 C4116 1.511 . S
C4119 H4133 0.961 . S
C4119 H4134 0.961 . S
C4119 H4135 0.961 . S
C4120 C4121 1.370 . S
C4120 C4122 1.363 . S
C4120 H4136 0.931 . S
C4121 C4120 1.370 . S
C4121 C4125 1.408 . S
C4122 C4120 1.363 . S
C4122 C4123 1.370 . S
C4122 C4126 1.524 . S
C4123 C4115 1.503 . S
C4123 C4122 1.370 . S
C4123 C4124 1.403 . S
C4124 C4123 1.403 . S
C4124 C4125 1.404 . S
C4124 C4127 1.539 . S
C4125 C4121 1.408 . S
C4125 C4124 1.404 . S
C4125 H4137 0.930 . S
C4126 C4122 1.524 . S
C4126 H4138 0.956 . S
C4126 H4139 0.961 . S
C4126 H4140 0.961 . S
C4127 C4124 1.539 . S
C4127 H4141 0.958 . S
C4127 H4142 0.961 . S
C4127 H4143 0.960 . S
H4128 C4112 0.931 . S
H4129 C4117 0.929 . S
H4130 C4118 0.960 . S
H4131 C4118 0.962 . S
H4132 C4118 0.960 . S
H4133 C4119 0.961 . S
H4134 C4119 0.961 . S
H4135 C4119 0.961 . S
H4136 C4120 0.931 . S
H4137 C4125 0.930 . S
H4138 C4126 0.956 . S
H4139 C4126 0.961 . S
H4140 C4126 0.961 . S
H4141 C4127 0.958 . S
H4142 C4127 0.961 . S
H4143 C4127 0.960 . S
C4144 C4145 1.391 . S
C4144 C4146 1.394 . S
C4144 H4160 0.931 . S
C4145 C4144 1.391 . S
C4145 C4149 1.376 . S
C4146 C4144 1.394 . S
C4146 C4147 1.369 . S
C4146 C4150 1.531 . S
C4147 C4146 1.369 . S
C4147 C4148 1.410 . S
C4147 C4155 1.503 . S
C4148 C4147 1.410 . S
C4148 C4149 1.392 . S
C4148 C4151 1.511 . S
C4149 C4145 1.376 . S
C4149 C4148 1.392 . S
C4149 H4161 0.929 . S
C4150 C4146 1.531 . S
C4150 H4162 0.960 . S
C4150 H4163 0.962 . S
C4150 H4164 0.960 . S
C4151 C4148 1.511 . S
C4151 H4165 0.961 . S
C4151 H4166 0.961 . S
C4151 H4167 0.961 . S
C4152 C4153 1.370 . S
C4152 C4154 1.363 . S
C4152 H4168 0.931 . S
C4153 C4152 1.370 . S
C4153 C4157 1.408 . S
C4154 C4152 1.363 . S
C4154 C4155 1.370 . S
C4154 C4158 1.524 . S
C4155 C4147 1.503 . S
C4155 C4154 1.370 . S
C4155 C4156 1.403 . S
C4156 C4155 1.403 . S
C4156 C4157 1.404 . S
C4156 C4159 1.539 . S
C4157 C4153 1.408 . S
C4157 C4156 1.404 . S
C4157 H4169 0.930 . S
C4158 C4154 1.524 . S
C4158 H4170 0.956 . S
C4158 H4171 0.961 . S
C4158 H4172 0.961 . S
C4159 C4156 1.539 . S
C4159 H4173 0.958 . S
C4159 H4174 0.961 . S
C4159 H4175 0.960 . S
H4160 C4144 0.931 . S
H4161 C4149 0.929 . S
H4162 C4150 0.960 . S
H4163 C4150 0.962 . S
H4164 C4150 0.960 . S
H4165 C4151 0.961 . S
H4166 C4151 0.961 . S
H4167 C4151 0.961 . S
H4168 C4152 0.931 . S
H4169 C4157 0.930 . S
H4170 C4158 0.956 . S
H4171 C4158 0.961 . S
H4172 C4158 0.961 . S
H4173 C4159 0.958 . S
H4174 C4159 0.961 . S
H4175 C4159 0.960 . S
C4176 C4177 1.391 . S
C4176 C4178 1.394 . S
C4176 H4192 0.931 . S
C4177 C4176 1.391 . S
C4177 C4181 1.376 . S
C4178 C4176 1.394 . S
C4178 C4179 1.369 . S
C4178 C4182 1.531 . S
C4179 C4178 1.369 . S
C4179 C4180 1.410 . S
C4179 C4187 1.503 . S
C4180 C4179 1.410 . S
C4180 C4181 1.392 . S
C4180 C4183 1.511 . S
C4181 C4177 1.376 . S
C4181 C4180 1.392 . S
C4181 H4193 0.929 . S
C4182 C4178 1.531 . S
C4182 H4194 0.960 . S
C4182 H4195 0.962 . S
C4182 H4196 0.960 . S
C4183 C4180 1.511 . S
C4183 H4197 0.961 . S
C4183 H4198 0.961 . S
C4183 H4199 0.961 . S
C4184 C4185 1.370 . S
C4184 C4186 1.363 . S
C4184 H4200 0.931 . S
C4185 C4184 1.370 . S
C4185 C4189 1.408 . S
C4186 C4184 1.363 . S
C4186 C4187 1.370 . S
C4186 C4190 1.524 . S
C4187 C4179 1.503 . S
C4187 C4186 1.370 . S
C4187 C4188 1.403 . S
C4188 C4187 1.403 . S
C4188 C4189 1.404 . S
C4188 C4191 1.539 . S
C4189 C4185 1.408 . S
C4189 C4188 1.404 . S
C4189 H4201 0.930 . S
C4190 C4186 1.524 . S
C4190 H4202 0.956 . S
C4190 H4203 0.961 . S
C4190 H4204 0.961 . S
C4191 C4188 1.539 . S
C4191 H4205 0.958 . S
C4191 H4206 0.961 . S
C4191 H4207 0.960 . S
H4192 C4176 0.931 . S
H4193 C4181 0.929 . S
H4194 C4182 0.960 . S
H4195 C4182 0.962 . S
H4196 C4182 0.960 . S
H4197 C4183 0.961 . S
H4198 C4183 0.961 . S
H4199 C4183 0.961 . S
H4200 C4184 0.931 . S
H4201 C4189 0.930 . S
H4202 C4190 0.956 . S
H4203 C4190 0.961 . S
H4204 C4190 0.961 . S
H4205 C4191 0.958 . S
H4206 C4191 0.961 . S
H4207 C4191 0.960 . S
C4208 C4209 1.391 . S
C4208 C4210 1.394 . S
C4208 H4224 0.931 . S
C4209 C4208 1.391 . S
C4209 C4213 1.376 . S
C4210 C4208 1.394 . S
C4210 C4211 1.369 . S
C4210 C4214 1.531 . S
C4211 C4210 1.369 . S
C4211 C4212 1.410 . S
C4211 C4219 1.503 . S
C4212 C4211 1.410 . S
C4212 C4213 1.392 . S
C4212 C4215 1.511 . S
C4213 C4209 1.376 . S
C4213 C4212 1.392 . S
C4213 H4225 0.929 . S
C4214 C4210 1.531 . S
C4214 H4226 0.960 . S
C4214 H4227 0.962 . S
C4214 H4228 0.960 . S
C4215 C4212 1.511 . S
C4215 H4229 0.961 . S
C4215 H4230 0.961 . S
C4215 H4231 0.961 . S
C4216 C4217 1.370 . S
C4216 C4218 1.363 . S
C4216 H4232 0.931 . S
C4217 C4216 1.370 . S
C4217 C4221 1.408 . S
C4218 C4216 1.363 . S
C4218 C4219 1.370 . S
C4218 C4222 1.524 . S
C4219 C4211 1.503 . S
C4219 C4218 1.370 . S
C4219 C4220 1.403 . S
C4220 C4219 1.403 . S
C4220 C4221 1.404 . S
C4220 C4223 1.539 . S
C4221 C4217 1.408 . S
C4221 C4220 1.404 . S
C4221 H4233 0.930 . S
C4222 C4218 1.524 . S
C4222 H4234 0.956 . S
C4222 H4235 0.961 . S
C4222 H4236 0.961 . S
C4223 C4220 1.539 . S
C4223 H4237 0.958 . S
C4223 H4238 0.961 . S
C4223 H4239 0.960 . S
H4224 C4208 0.931 . S
H4225 C4213 0.929 . S
H4226 C4214 0.960 . S
H4227 C4214 0.962 . S
H4228 C4214 0.960 . S
H4229 C4215 0.961 . S
H4230 C4215 0.961 . S
H4231 C4215 0.961 . S
H4232 C4216 0.931 . S
H4233 C4221 0.930 . S
H4234 C4222 0.956 . S
H4235 C4222 0.961 . S
H4236 C4222 0.961 . S
H4237 C4223 0.958 . S
H4238 C4223 0.961 . S
H4239 C4223 0.960 . S
C4240 C4241 1.391 . S
C4240 C4242 1.394 . S
C4240 H4256 0.931 . S
C4241 C4240 1.391 . S
C4241 C4245 1.376 . S
C4242 C4240 1.394 . S
C4242 C4243 1.369 . S
C4242 C4246 1.531 . S
C4243 C4242 1.369 . S
C4243 C4244 1.410 . S
C4243 C4251 1.503 . S
C4244 C4243 1.410 . S
C4244 C4245 1.392 . S
C4244 C4247 1.511 . S
C4245 C4241 1.376 . S
C4245 C4244 1.392 . S
C4245 H4257 0.929 . S
C4246 C4242 1.531 . S
C4246 H4258 0.960 . S
C4246 H4259 0.962 . S
C4246 H4260 0.960 . S
C4247 C4244 1.511 . S
C4247 H4261 0.961 . S
C4247 H4262 0.961 . S
C4247 H4263 0.961 . S
C4248 C4249 1.370 . S
C4248 C4250 1.363 . S
C4248 H4264 0.931 . S
C4249 C4248 1.370 . S
C4249 C4253 1.408 . S
C4250 C4248 1.363 . S
C4250 C4251 1.370 . S
C4250 C4254 1.524 . S
C4251 C4243 1.503 . S
C4251 C4250 1.370 . S
C4251 C4252 1.403 . S
C4252 C4251 1.403 . S
C4252 C4253 1.404 . S
C4252 C4255 1.539 . S
C4253 C4249 1.408 . S
C4253 C4252 1.404 . S
C4253 H4265 0.930 . S
C4254 C4250 1.524 . S
C4254 H4266 0.956 . S
C4254 H4267 0.961 . S
C4254 H4268 0.961 . S
C4255 C4252 1.539 . S
C4255 H4269 0.958 . S
C4255 H4270 0.961 . S
C4255 H4271 0.960 . S
H4256 C4240 0.931 . S
H4257 C4245 0.929 . S
H4258 C4246 0.960 . S
H4259 C4246 0.962 . S
H4260 C4246 0.960 . S
H4261 C4247 0.961 . S
H4262 C4247 0.961 . S
H4263 C4247 0.961 . S
H4264 C4248 0.931 . S
H4265 C4253 0.930 . S
H4266 C4254 0.956 . S
H4267 C4254 0.961 . S
H4268 C4254 0.961 . S
H4269 C4255 0.958 . S
H4270 C4255 0.961 . S
H4271 C4255 0.960 . S
C4272 C4273 1.391 . S
C4272 C4274 1.394 . S
C4272 H4288 0.931 . S
C4273 C4272 1.391 . S
C4273 C4277 1.376 . S
C4274 C4272 1.394 . S
C4274 C4275 1.369 . S
C4274 C4278 1.531 . S
C4275 C4274 1.369 . S
C4275 C4276 1.410 . S
C4275 C4283 1.503 . S
C4276 C4275 1.410 . S
C4276 C4277 1.392 . S
C4276 C4279 1.511 . S
C4277 C4273 1.376 . S
C4277 C4276 1.392 . S
C4277 H4289 0.929 . S
C4278 C4274 1.531 . S
C4278 H4290 0.960 . S
C4278 H4291 0.962 . S
C4278 H4292 0.960 . S
C4279 C4276 1.511 . S
C4279 H4293 0.961 . S
C4279 H4294 0.961 . S
C4279 H4295 0.961 . S
C4280 C4281 1.370 . S
C4280 C4282 1.363 . S
C4280 H4296 0.931 . S
C4281 C4280 1.370 . S
C4281 C4285 1.408 . S
C4282 C4280 1.363 . S
C4282 C4283 1.370 . S
C4282 C4286 1.524 . S
C4283 C4275 1.503 . S
C4283 C4282 1.370 . S
C4283 C4284 1.403 . S
C4284 C4283 1.403 . S
C4284 C4285 1.404 . S
C4284 C4287 1.539 . S
C4285 C4281 1.408 . S
C4285 C4284 1.404 . S
C4285 H4297 0.930 . S
C4286 C4282 1.524 . S
C4286 H4298 0.956 . S
C4286 H4299 0.961 . S
C4286 H4300 0.961 . S
C4287 C4284 1.539 . S
C4287 H4301 0.958 . S
C4287 H4302 0.961 . S
C4287 H4303 0.960 . S
H4288 C4272 0.931 . S
H4289 C4277 0.929 . S
H4290 C4278 0.960 . S
H4291 C4278 0.962 . S
H4292 C4278 0.960 . S
H4293 C4279 0.961 . S
H4294 C4279 0.961 . S
H4295 C4279 0.961 . S
H4296 C4280 0.931 . S
H4297 C4285 0.930 . S
H4298 C4286 0.956 . S
H4299 C4286 0.961 . S
H4300 C4286 0.961 . S
H4301 C4287 0.958 . S
H4302 C4287 0.961 . S
H4303 C4287 0.960 . S
C4304 C4305 1.391 . S
C4304 C4306 1.394 . S
C4304 H4320 0.931 . S
C4305 C4304 1.391 . S
C4305 C4309 1.376 . S
C4306 C4304 1.394 . S
C4306 C4307 1.369 . S
C4306 C4310 1.531 . S
C4307 C4306 1.369 . S
C4307 C4308 1.410 . S
C4307 C4315 1.503 . S
C4308 C4307 1.410 . S
C4308 C4309 1.392 . S
C4308 C4311 1.511 . S
C4309 C4305 1.376 . S
C4309 C4308 1.392 . S
C4309 H4321 0.929 . S
C4310 C4306 1.531 . S
C4310 H4322 0.960 . S
C4310 H4323 0.962 . S
C4310 H4324 0.960 . S
C4311 C4308 1.511 . S
C4311 H4325 0.961 . S
C4311 H4326 0.961 . S
C4311 H4327 0.961 . S
C4312 C4313 1.370 . S
C4312 C4314 1.363 . S
C4312 H4328 0.931 . S
C4313 C4312 1.370 . S
C4313 C4317 1.408 . S
C4314 C4312 1.363 . S
C4314 C4315 1.370 . S
C4314 C4318 1.524 . S
C4315 C4307 1.503 . S
C4315 C4314 1.370 . S
C4315 C4316 1.403 . S
C4316 C4315 1.403 . S
C4316 C4317 1.404 . S
C4316 C4319 1.539 . S
C4317 C4313 1.408 . S
C4317 C4316 1.404 . S
C4317 H4329 0.930 . S
C4318 C4314 1.524 . S
C4318 H4330 0.956 . S
C4318 H4331 0.961 . S
C4318 H4332 0.961 . S
C4319 C4316 1.539 . S
C4319 H4333 0.958 . S
C4319 H4334 0.961 . S
C4319 H4335 0.960 . S
H4320 C4304 0.931 . S
H4321 C4309 0.929 . S
H4322 C4310 0.960 . S
H4323 C4310 0.962 . S
H4324 C4310 0.960 . S
H4325 C4311 0.961 . S
H4326 C4311 0.961 . S
H4327 C4311 0.961 . S
H4328 C4312 0.931 . S
H4329 C4317 0.930 . S
H4330 C4318 0.956 . S
H4331 C4318 0.961 . S
H4332 C4318 0.961 . S
H4333 C4319 0.958 . S
H4334 C4319 0.961 . S
H4335 C4319 0.960 . S
C4336 C4337 1.391 . S
C4336 C4338 1.394 . S
C4336 H4352 0.931 . S
C4337 C4336 1.391 . S
C4337 C4341 1.376 . S
C4338 C4336 1.394 . S
C4338 C4339 1.369 . S
C4338 C4342 1.531 . S
C4339 C4338 1.369 . S
C4339 C4340 1.410 . S
C4339 C4347 1.503 . S
C4340 C4339 1.410 . S
C4340 C4341 1.392 . S
C4340 C4343 1.511 . S
C4341 C4337 1.376 . S
C4341 C4340 1.392 . S
C4341 H4353 0.929 . S
C4342 C4338 1.531 . S
C4342 H4354 0.960 . S
C4342 H4355 0.962 . S
C4342 H4356 0.960 . S
C4343 C4340 1.511 . S
C4343 H4357 0.961 . S
C4343 H4358 0.961 . S
C4343 H4359 0.961 . S
C4344 C4345 1.370 . S
C4344 C4346 1.363 . S
C4344 H4360 0.931 . S
C4345 C4344 1.370 . S
C4345 C4349 1.408 . S
C4346 C4344 1.363 . S
C4346 C4347 1.370 . S
C4346 C4350 1.524 . S
C4347 C4339 1.503 . S
C4347 C4346 1.370 . S
C4347 C4348 1.403 . S
C4348 C4347 1.403 . S
C4348 C4349 1.404 . S
C4348 C4351 1.539 . S
C4349 C4345 1.408 . S
C4349 C4348 1.404 . S
C4349 H4361 0.930 . S
C4350 C4346 1.524 . S
C4350 H4362 0.956 . S
C4350 H4363 0.961 . S
C4350 H4364 0.961 . S
C4351 C4348 1.539 . S
C4351 H4365 0.958 . S
C4351 H4366 0.961 . S
C4351 H4367 0.960 . S
H4352 C4336 0.931 . S
H4353 C4341 0.929 . S
H4354 C4342 0.960 . S
H4355 C4342 0.962 . S
H4356 C4342 0.960 . S
H4357 C4343 0.961 . S
H4358 C4343 0.961 . S
H4359 C4343 0.961 . S
H4360 C4344 0.931 . S
H4361 C4349 0.930 . S
H4362 C4350 0.956 . S
H4363 C4350 0.961 . S
H4364 C4350 0.961 . S
H4365 C4351 0.958 . S
H4366 C4351 0.961 . S
H4367 C4351 0.960 . S
C4368 C4369 1.391 . S
C4368 C4370 1.394 . S
C4368 H4384 0.931 . S
C4369 C4368 1.391 . S
C4369 C4373 1.376 . S
C4370 C4368 1.394 . S
C4370 C4371 1.369 . S
C4370 C4374 1.531 . S
C4371 C4370 1.369 . S
C4371 C4372 1.410 . S
C4371 C4379 1.503 . S
C4372 C4371 1.410 . S
C4372 C4373 1.392 . S
C4372 C4375 1.511 . S
C4373 C4369 1.376 . S
C4373 C4372 1.392 . S
C4373 H4385 0.929 . S
C4374 C4370 1.531 . S
C4374 H4386 0.960 . S
C4374 H4387 0.962 . S
C4374 H4388 0.960 . S
C4375 C4372 1.511 . S
C4375 H4389 0.961 . S
C4375 H4390 0.961 . S
C4375 H4391 0.961 . S
C4376 C4377 1.370 . S
C4376 C4378 1.363 . S
C4376 H4392 0.931 . S
C4377 C4376 1.370 . S
C4377 C4381 1.408 . S
C4378 C4376 1.363 . S
C4378 C4379 1.370 . S
C4378 C4382 1.524 . S
C4379 C4371 1.503 . S
C4379 C4378 1.370 . S
C4379 C4380 1.403 . S
C4380 C4379 1.403 . S
C4380 C4381 1.404 . S
C4380 C4383 1.539 . S
C4381 C4377 1.408 . S
C4381 C4380 1.404 . S
C4381 H4393 0.930 . S
C4382 C4378 1.524 . S
C4382 H4394 0.956 . S
C4382 H4395 0.961 . S
C4382 H4396 0.961 . S
C4383 C4380 1.539 . S
C4383 H4397 0.958 . S
C4383 H4398 0.961 . S
C4383 H4399 0.960 . S
H4384 C4368 0.931 . S
H4385 C4373 0.929 . S
H4386 C4374 0.960 . S
H4387 C4374 0.962 . S
H4388 C4374 0.960 . S
H4389 C4375 0.961 . S
H4390 C4375 0.961 . S
H4391 C4375 0.961 . S
H4392 C4376 0.931 . S
H4393 C4381 0.930 . S
H4394 C4382 0.956 . S
H4395 C4382 0.961 . S
H4396 C4382 0.961 . S
H4397 C4383 0.958 . S
H4398 C4383 0.961 . S
H4399 C4383 0.960 . S
C4400 C4401 1.391 . S
C4400 C4402 1.394 . S
C4400 H4416 0.931 . S
C4401 C4400 1.391 . S
C4401 C4405 1.376 . S
C4402 C4400 1.394 . S
C4402 C4403 1.369 . S
C4402 C4406 1.531 . S
C4403 C4402 1.369 . S
C4403 C4404 1.410 . S
C4403 C4411 1.503 . S
C4404 C4403 1.410 . S
C4404 C4405 1.392 . S
C4404 C4407 1.511 . S
C4405 C4401 1.376 . S
C4405 C4404 1.392 . S
C4405 H4417 0.929 . S
C4406 C4402 1.531 . S
C4406 H4418 0.960 . S
C4406 H4419 0.962 . S
C4406 H4420 0.960 . S
C4407 C4404 1.511 . S
C4407 H4421 0.961 . S
C4407 H4422 0.961 . S
C4407 H4423 0.961 . S
C4408 C4409 1.370 . S
C4408 C4410 1.363 . S
C4408 H4424 0.931 . S
C4409 C4408 1.370 . S
C4409 C4413 1.408 . S
C4410 C4408 1.363 . S
C4410 C4411 1.370 . S
C4410 C4414 1.524 . S
C4411 C4403 1.503 . S
C4411 C4410 1.370 . S
C4411 C4412 1.403 . S
C4412 C4411 1.403 . S
C4412 C4413 1.404 . S
C4412 C4415 1.539 . S
C4413 C4409 1.408 . S
C4413 C4412 1.404 . S
C4413 H4425 0.930 . S
C4414 C4410 1.524 . S
C4414 H4426 0.956 . S
C4414 H4427 0.961 . S
C4414 H4428 0.961 . S
C4415 C4412 1.539 . S
C4415 H4429 0.958 . S
C4415 H4430 0.961 . S
C4415 H4431 0.960 . S
H4416 C4400 0.931 . S
H4417 C4405 0.929 . S
H4418 C4406 0.960 . S
H4419 C4406 0.962 . S
H4420 C4406 0.960 . S
H4421 C4407 0.961 . S
H4422 C4407 0.961 . S
H4423 C4407 0.961 . S
H4424 C4408 0.931 . S
H4425 C4413 0.930 . S
H4426 C4414 0.956 . S
H4427 C4414 0.961 . S
H4428 C4414 0.961 . S
H4429 C4415 0.958 . S
H4430 C4415 0.961 . S
H4431 C4415 0.960 . S
C4432 C4433 1.391 . S
C4432 C4434 1.394 . S
C4432 H4448 0.931 . S
C4433 C4432 1.391 . S
C4433 C4437 1.376 . S
C4434 C4432 1.394 . S
C4434 C4435 1.369 . S
C4434 C4438 1.531 . S
C4435 C4434 1.369 . S
C4435 C4436 1.410 . S
C4435 C4443 1.503 . S
C4436 C4435 1.410 . S
C4436 C4437 1.392 . S
C4436 C4439 1.511 . S
C4437 C4433 1.376 . S
C4437 C4436 1.392 . S
C4437 H4449 0.929 . S
C4438 C4434 1.531 . S
C4438 H4450 0.960 . S
C4438 H4451 0.962 . S
C4438 H4452 0.960 . S
C4439 C4436 1.511 . S
C4439 H4453 0.961 . S
C4439 H4454 0.961 . S
C4439 H4455 0.961 . S
C4440 C4441 1.370 . S
C4440 C4442 1.363 . S
C4440 H4456 0.931 . S
C4441 C4440 1.370 . S
C4441 C4445 1.408 . S
C4442 C4440 1.363 . S
C4442 C4443 1.370 . S
C4442 C4446 1.524 . S
C4443 C4435 1.503 . S
C4443 C4442 1.370 . S
C4443 C4444 1.403 . S
C4444 C4443 1.403 . S
C4444 C4445 1.404 . S
C4444 C4447 1.539 . S
C4445 C4441 1.408 . S
C4445 C4444 1.404 . S
C4445 H4457 0.930 . S
C4446 C4442 1.524 . S
C4446 H4458 0.956 . S
C4446 H4459 0.961 . S
C4446 H4460 0.961 . S
C4447 C4444 1.539 . S
C4447 H4461 0.958 . S
C4447 H4462 0.961 . S
C4447 H4463 0.960 . S
H4448 C4432 0.931 . S
H4449 C4437 0.929 . S
H4450 C4438 0.960 . S
H4451 C4438 0.962 . S
H4452 C4438 0.960 . S
H4453 C4439 0.961 . S
H4454 C4439 0.961 . S
H4455 C4439 0.961 . S
H4456 C4440 0.931 . S
H4457 C4445 0.930 . S
H4458 C4446 0.956 . S
H4459 C4446 0.961 . S
H4460 C4446 0.961 . S
H4461 C4447 0.958 . S
H4462 C4447 0.961 . S
H4463 C4447 0.960 . S
C4464 C4465 1.391 . S
C4464 C4466 1.394 . S
C4464 H4480 0.931 . S
C4465 C4464 1.391 . S
C4465 C4469 1.376 . S
C4466 C4464 1.394 . S
C4466 C4467 1.369 . S
C4466 C4470 1.531 . S
C4467 C4466 1.369 . S
C4467 C4468 1.410 . S
C4467 C4475 1.503 . S
C4468 C4467 1.410 . S
C4468 C4469 1.392 . S
C4468 C4471 1.511 . S
C4469 C4465 1.376 . S
C4469 C4468 1.392 . S
C4469 H4481 0.929 . S
C4470 C4466 1.531 . S
C4470 H4482 0.960 . S
C4470 H4483 0.962 . S
C4470 H4484 0.960 . S
C4471 C4468 1.511 . S
C4471 H4485 0.961 . S
C4471 H4486 0.961 . S
C4471 H4487 0.961 . S
C4472 C4473 1.370 . S
C4472 C4474 1.363 . S
C4472 H4488 0.931 . S
C4473 C4472 1.370 . S
C4473 C4477 1.408 . S
C4474 C4472 1.363 . S
C4474 C4475 1.370 . S
C4474 C4478 1.524 . S
C4475 C4467 1.503 . S
C4475 C4474 1.370 . S
C4475 C4476 1.403 . S
C4476 C4475 1.403 . S
C4476 C4477 1.404 . S
C4476 C4479 1.539 . S
C4477 C4473 1.408 . S
C4477 C4476 1.404 . S
C4477 H4489 0.930 . S
C4478 C4474 1.524 . S
C4478 H4490 0.956 . S
C4478 H4491 0.961 . S
C4478 H4492 0.961 . S
C4479 C4476 1.539 . S
C4479 H4493 0.958 . S
C4479 H4494 0.961 . S
C4479 H4495 0.960 . S
H4480 C4464 0.931 . S
H4481 C4469 0.929 . S
H4482 C4470 0.960 . S
H4483 C4470 0.962 . S
H4484 C4470 0.960 . S
H4485 C4471 0.961 . S
H4486 C4471 0.961 . S
H4487 C4471 0.961 . S
H4488 C4472 0.931 . S
H4489 C4477 0.930 . S
H4490 C4478 0.956 . S
H4491 C4478 0.961 . S
H4492 C4478 0.961 . S
H4493 C4479 0.958 . S
H4494 C4479 0.961 . S
H4495 C4479 0.960 . S
C4496 C4497 1.391 . S
C4496 C4498 1.394 . S
C4496 H4512 0.931 . S
C4497 C4496 1.391 . S
C4497 C4501 1.376 . S
C4498 C4496 1.394 . S
C4498 C4499 1.369 . S
C4498 C4502 1.531 . S
C4499 C4498 1.369 . S
C4499 C4500 1.410 . S
C4499 C4507 1.503 . S
C4500 C4499 1.410 . S
C4500 C4501 1.392 . S
C4500 C4503 1.511 . S
C4501 C4497 1.376 . S
C4501 C4500 1.392 . S
C4501 H4513 0.929 . S
C4502 C4498 1.531 . S
C4502 H4514 0.960 . S
C4502 H4515 0.962 . S
C4502 H4516 0.960 . S
C4503 C4500 1.511 . S
C4503 H4517 0.961 . S
C4503 H4518 0.961 . S
C4503 H4519 0.961 . S
C4504 C4505 1.370 1_565 S
C4504 C4506 1.363 . S
C4504 H4520 0.931 . S
C4505 C4504 1.370 1_545 S
C4505 C4509 1.408 . S
C4506 C4504 1.363 . S
C4506 C4507 1.370 . S
C4506 C4510 1.524 . S
C4507 C4499 1.503 . S
C4507 C4506 1.370 . S
C4507 C4508 1.403 1_565 S
C4508 C4507 1.403 1_545 S
C4508 C4509 1.404 . S
C4508 C4511 1.539 . S
C4509 C4505 1.408 . S
C4509 C4508 1.404 . S
C4509 H4521 0.930 . S
C4510 C4506 1.524 . S
C4510 H4522 0.956 . S
C4510 H4523 0.961 . S
C4510 H4524 0.961 . S
C4511 C4508 1.539 . S
C4511 H4525 0.958 . S
C4511 H4526 0.961 . S
C4511 H4527 0.960 1_545 S
H4512 C4496 0.931 . S
H4513 C4501 0.929 . S
H4514 C4502 0.960 . S
H4515 C4502 0.962 . S
H4516 C4502 0.960 . S
H4517 C4503 0.961 . S
H4518 C4503 0.961 . S
H4519 C4503 0.961 . S
H4520 C4504 0.931 . S
H4521 C4509 0.930 . S
H4522 C4510 0.956 . S
H4523 C4510 0.961 . S
H4524 C4510 0.961 . S
H4525 C4511 0.958 . S
H4526 C4511 0.961 . S
H4527 C4511 0.960 1_565 S
C4528 C4529 1.391 . S
C4528 C4530 1.394 . S
C4528 H4544 0.931 . S
C4529 C4528 1.391 . S
C4529 C4533 1.376 . S
C4530 C4528 1.394 . S
C4530 C4531 1.369 . S
C4530 C4534 1.531 . S
C4531 C4530 1.369 . S
C4531 C4532 1.410 . S
C4531 C4539 1.503 . S
C4532 C4531 1.410 . S
C4532 C4533 1.392 . S
C4532 C4535 1.511 . S
C4533 C4529 1.376 . S
C4533 C4532 1.392 . S
C4533 H4545 0.929 . S
C4534 C4530 1.531 . S
C4534 H4546 0.960 . S
C4534 H4547 0.962 . S
C4534 H4548 0.960 . S
C4535 C4532 1.511 . S
C4535 H4549 0.961 . S
C4535 H4550 0.961 . S
C4535 H4551 0.961 . S
C4536 C4537 1.370 . S
C4536 C4538 1.363 . S
C4536 H4552 0.931 . S
C4537 C4536 1.370 . S
C4537 C4541 1.408 . S
C4538 C4536 1.363 . S
C4538 C4539 1.370 . S
C4538 C4542 1.524 . S
C4539 C4531 1.503 . S
C4539 C4538 1.370 . S
C4539 C4540 1.403 . S
C4540 C4539 1.403 . S
C4540 C4541 1.404 . S
C4540 C4543 1.539 . S
C4541 C4537 1.408 . S
C4541 C4540 1.404 . S
C4541 H4553 0.930 . S
C4542 C4538 1.524 . S
C4542 H4554 0.956 . S
C4542 H4555 0.961 . S
C4542 H4556 0.961 . S
C4543 C4540 1.539 . S
C4543 H4557 0.958 . S
C4543 H4558 0.961 . S
C4543 H4559 0.960 . S
H4544 C4528 0.931 . S
H4545 C4533 0.929 . S
H4546 C4534 0.960 . S
H4547 C4534 0.962 . S
H4548 C4534 0.960 . S
H4549 C4535 0.961 . S
H4550 C4535 0.961 . S
H4551 C4535 0.961 . S
H4552 C4536 0.931 . S
H4553 C4541 0.930 . S
H4554 C4542 0.956 . S
H4555 C4542 0.961 . S
H4556 C4542 0.961 . S
H4557 C4543 0.958 . S
H4558 C4543 0.961 . S
H4559 C4543 0.960 . S
C4560 C4561 1.391 . S
C4560 C4562 1.394 . S
C4560 H4576 0.931 . S
C4561 C4560 1.391 . S
C4561 C4565 1.376 . S
C4562 C4560 1.394 . S
C4562 C4563 1.369 . S
C4562 C4566 1.531 . S
C4563 C4562 1.369 . S
C4563 C4564 1.410 . S
C4563 C4571 1.503 . S
C4564 C4563 1.410 . S
C4564 C4565 1.392 . S
C4564 C4567 1.511 . S
C4565 C4561 1.376 . S
C4565 C4564 1.392 . S
C4565 H4577 0.929 . S
C4566 C4562 1.531 . S
C4566 H4578 0.960 . S
C4566 H4579 0.962 . S
C4566 H4580 0.960 . S
C4567 C4564 1.511 . S
C4567 H4581 0.961 . S
C4567 H4582 0.961 . S
C4567 H4583 0.961 . S
C4568 C4569 1.370 . S
C4568 C4570 1.363 . S
C4568 H4584 0.931 . S
C4569 C4568 1.370 . S
C4569 C4573 1.408 . S
C4570 C4568 1.363 . S
C4570 C4571 1.370 . S
C4570 C4574 1.524 . S
C4571 C4563 1.503 . S
C4571 C4570 1.370 . S
C4571 C4572 1.403 . S
C4572 C4571 1.403 . S
C4572 C4573 1.404 . S
C4572 C4575 1.539 . S
C4573 C4569 1.408 . S
C4573 C4572 1.404 . S
C4573 H4585 0.930 . S
C4574 C4570 1.524 . S
C4574 H4586 0.956 . S
C4574 H4587 0.961 . S
C4574 H4588 0.961 . S
C4575 C4572 1.539 . S
C4575 H4589 0.958 . S
C4575 H4590 0.961 . S
C4575 H4591 0.960 . S
H4576 C4560 0.931 . S
H4577 C4565 0.929 . S
H4578 C4566 0.960 . S
H4579 C4566 0.962 . S
H4580 C4566 0.960 . S
H4581 C4567 0.961 . S
H4582 C4567 0.961 . S
H4583 C4567 0.961 . S
H4584 C4568 0.931 . S
H4585 C4573 0.930 . S
H4586 C4574 0.956 . S
H4587 C4574 0.961 . S
H4588 C4574 0.961 . S
H4589 C4575 0.958 . S
H4590 C4575 0.961 . S
H4591 C4575 0.960 . S
C4592 C4593 1.391 . S
C4592 C4594 1.394 . S
C4592 H4608 0.931 . S
C4593 C4592 1.391 . S
C4593 C4597 1.376 . S
C4594 C4592 1.394 . S
C4594 C4595 1.369 . S
C4594 C4598 1.531 . S
C4595 C4594 1.369 . S
C4595 C4596 1.410 . S
C4595 C4603 1.503 . S
C4596 C4595 1.410 . S
C4596 C4597 1.392 . S
C4596 C4599 1.511 . S
C4597 C4593 1.376 . S
C4597 C4596 1.392 . S
C4597 H4609 0.929 . S
C4598 C4594 1.531 . S
C4598 H4610 0.960 . S
C4598 H4611 0.962 . S
C4598 H4612 0.960 . S
C4599 C4596 1.511 . S
C4599 H4613 0.961 . S
C4599 H4614 0.961 . S
C4599 H4615 0.961 . S
C4600 C4601 1.370 . S
C4600 C4602 1.363 . S
C4600 H4616 0.931 . S
C4601 C4600 1.370 . S
C4601 C4605 1.408 . S
C4602 C4600 1.363 . S
C4602 C4603 1.370 . S
C4602 C4606 1.524 . S
C4603 C4595 1.503 . S
C4603 C4602 1.370 . S
C4603 C4604 1.403 . S
C4604 C4603 1.403 . S
C4604 C4605 1.404 . S
C4604 C4607 1.539 . S
C4605 C4601 1.408 . S
C4605 C4604 1.404 . S
C4605 H4617 0.930 . S
C4606 C4602 1.524 . S
C4606 H4618 0.956 . S
C4606 H4619 0.961 . S
C4606 H4620 0.961 . S
C4607 C4604 1.539 . S
C4607 H4621 0.958 . S
C4607 H4622 0.961 . S
C4607 H4623 0.960 . S
H4608 C4592 0.931 . S
H4609 C4597 0.929 . S
H4610 C4598 0.960 . S
H4611 C4598 0.962 . S
H4612 C4598 0.960 . S
H4613 C4599 0.961 . S
H4614 C4599 0.961 . S
H4615 C4599 0.961 . S
H4616 C4600 0.931 . S
H4617 C4605 0.930 . S
H4618 C4606 0.956 . S
H4619 C4606 0.961 . S
H4620 C4606 0.961 . S
H4621 C4607 0.958 . S
H4622 C4607 0.961 . S
H4623 C4607 0.960 . S
C4624 C4625 1.391 . S
C4624 C4626 1.394 . S
C4624 H4640 0.931 . S
C4625 C4624 1.391 . S
C4625 C4629 1.376 . S
C4626 C4624 1.394 . S
C4626 C4627 1.369 . S
C4626 C4630 1.531 . S
C4627 C4626 1.369 . S
C4627 C4628 1.410 . S
C4627 C4635 1.503 . S
C4628 C4627 1.410 . S
C4628 C4629 1.392 . S
C4628 C4631 1.511 . S
C4629 C4625 1.376 . S
C4629 C4628 1.392 . S
C4629 H4641 0.929 . S
C4630 C4626 1.531 . S
C4630 H4642 0.960 . S
C4630 H4643 0.962 . S
C4630 H4644 0.960 . S
C4631 C4628 1.511 . S
C4631 H4645 0.961 . S
C4631 H4646 0.961 . S
C4631 H4647 0.961 . S
C4632 C4633 1.370 . S
C4632 C4634 1.363 . S
C4632 H4648 0.931 . S
C4633 C4632 1.370 . S
C4633 C4637 1.408 . S
C4634 C4632 1.363 . S
C4634 C4635 1.370 . S
C4634 C4638 1.524 . S
C4635 C4627 1.503 . S
C4635 C4634 1.370 . S
C4635 C4636 1.403 . S
C4636 C4635 1.403 . S
C4636 C4637 1.404 . S
C4636 C4639 1.539 . S
C4637 C4633 1.408 . S
C4637 C4636 1.404 . S
C4637 H4649 0.930 . S
C4638 C4634 1.524 . S
C4638 H4650 0.956 . S
C4638 H4651 0.961 . S
C4638 H4652 0.961 . S
C4639 C4636 1.539 . S
C4639 H4653 0.958 . S
C4639 H4654 0.961 . S
C4639 H4655 0.960 . S
H4640 C4624 0.931 . S
H4641 C4629 0.929 . S
H4642 C4630 0.960 . S
H4643 C4630 0.962 . S
H4644 C4630 0.960 . S
H4645 C4631 0.961 . S
H4646 C4631 0.961 . S
H4647 C4631 0.961 . S
H4648 C4632 0.931 . S
H4649 C4637 0.930 . S
H4650 C4638 0.956 . S
H4651 C4638 0.961 . S
H4652 C4638 0.961 . S
H4653 C4639 0.958 . S
H4654 C4639 0.961 . S
H4655 C4639 0.960 . S
C4656 C4657 1.391 . S
C4656 C4658 1.394 . S
C4656 H4672 0.931 . S
C4657 C4656 1.391 . S
C4657 C4661 1.376 . S
C4658 C4656 1.394 . S
C4658 C4659 1.369 . S
C4658 C4662 1.531 . S
C4659 C4658 1.369 . S
C4659 C4660 1.410 . S
C4659 C4667 1.503 . S
C4660 C4659 1.410 . S
C4660 C4661 1.392 . S
C4660 C4663 1.511 . S
C4661 C4657 1.376 . S
C4661 C4660 1.392 . S
C4661 H4673 0.929 . S
C4662 C4658 1.531 . S
C4662 H4674 0.960 . S
C4662 H4675 0.962 . S
C4662 H4676 0.960 . S
C4663 C4660 1.511 . S
C4663 H4677 0.961 . S
C4663 H4678 0.961 . S
C4663 H4679 0.961 . S
C4664 C4665 1.370 . S
C4664 C4666 1.363 . S
C4664 H4680 0.931 . S
C4665 C4664 1.370 . S
C4665 C4669 1.408 . S
C4666 C4664 1.363 . S
C4666 C4667 1.370 1_565 S
C4666 C4670 1.524 . S
C4667 C4659 1.503 . S
C4667 C4666 1.370 1_545 S
C4667 C4668 1.403 . S
C4668 C4667 1.403 . S
C4668 C4669 1.404 1_545 S
C4668 C4671 1.539 . S
C4669 C4665 1.408 . S
C4669 C4668 1.404 1_565 S
C4669 H4681 0.930 . S
C4670 C4666 1.524 . S
C4670 H4682 0.939 1_565 S
C4670 H4683 0.961 . S
C4670 H4684 0.961 . S
C4671 C4668 1.539 . S
C4671 H4685 0.958 . S
C4671 H4686 0.961 . S
C4671 H4687 0.960 . S
H4672 C4656 0.931 . S
H4673 C4661 0.929 . S
H4674 C4662 0.960 . S
H4675 C4662 0.962 . S
H4676 C4662 0.960 . S
H4677 C4663 0.961 . S
H4678 C4663 0.961 . S
H4679 C4663 0.961 . S
H4680 C4664 0.931 . S
H4681 C4669 0.930 . S
H4682 C4670 0.939 1_545 S
H4683 C4670 0.961 . S
H4684 C4670 0.961 . S
H4685 C4671 0.958 . S
H4686 C4671 0.961 . S
H4687 C4671 0.960 . S
C4688 C4689 1.391 . S
C4688 C4690 1.394 . S
C4688 H4704 0.931 . S
C4689 C4688 1.391 . S
C4689 C4693 1.376 . S
C4690 C4688 1.394 . S
C4690 C4691 1.369 . S
C4690 C4694 1.531 . S
C4691 C4690 1.369 . S
C4691 C4692 1.410 . S
C4691 C4699 1.503 . S
C4692 C4691 1.410 . S
C4692 C4693 1.392 . S
C4692 C4695 1.511 . S
C4693 C4689 1.376 . S
C4693 C4692 1.392 . S
C4693 H4705 0.929 . S
C4694 C4690 1.531 . S
C4694 H4706 0.960 . S
C4694 H4707 0.962 . S
C4694 H4708 0.960 . S
C4695 C4692 1.511 . S
C4695 H4709 0.961 . S
C4695 H4710 0.961 . S
C4695 H4711 0.961 . S
C4696 C4697 1.370 . S
C4696 C4698 1.363 . S
C4696 H4712 0.931 . S
C4697 C4696 1.370 . S
C4697 C4701 1.408 . S
C4698 C4696 1.363 . S
C4698 C4699 1.370 . S
C4698 C4702 1.524 . S
C4699 C4691 1.503 . S
C4699 C4698 1.370 . S
C4699 C4700 1.403 . S
C4700 C4699 1.403 . S
C4700 C4701 1.404 . S
C4700 C4703 1.539 . S
C4701 C4697 1.408 . S
C4701 C4700 1.404 . S
C4701 H4713 0.930 . S
C4702 C4698 1.524 . S
C4702 H4714 0.956 . S
C4702 H4715 0.961 . S
C4702 H4716 0.961 . S
C4703 C4700 1.539 . S
C4703 H4717 0.958 . S
C4703 H4718 0.961 . S
C4703 H4719 0.960 . S
H4704 C4688 0.931 . S
H4705 C4693 0.929 . S
H4706 C4694 0.960 . S
H4707 C4694 0.962 . S
H4708 C4694 0.960 . S
H4709 C4695 0.961 . S
H4710 C4695 0.961 . S
H4711 C4695 0.961 . S
H4712 C4696 0.931 . S
H4713 C4701 0.930 . S
H4714 C4702 0.956 . S
H4715 C4702 0.961 . S
H4716 C4702 0.961 . S
H4717 C4703 0.958 . S
H4718 C4703 0.961 . S
H4719 C4703 0.960 . S
C4720 C4721 1.391 . S
C4720 C4722 1.394 . S
C4720 H4736 0.931 . S
C4721 C4720 1.391 . S
C4721 C4725 1.376 . S
C4722 C4720 1.394 . S
C4722 C4723 1.369 . S
C4722 C4726 1.531 . S
C4723 C4722 1.369 . S
C4723 C4724 1.410 . S
C4723 C4731 1.503 . S
C4724 C4723 1.410 . S
C4724 C4725 1.392 . S
C4724 C4727 1.511 . S
C4725 C4721 1.376 . S
C4725 C4724 1.392 . S
C4725 H4737 0.929 . S
C4726 C4722 1.531 . S
C4726 H4738 0.960 . S
C4726 H4739 0.962 . S
C4726 H4740 0.960 . S
C4727 C4724 1.511 . S
C4727 H4741 0.961 . S
C4727 H4742 0.961 . S
C4727 H4743 0.961 . S
C4728 C4729 1.370 . S
C4728 C4730 1.363 . S
C4728 H4744 0.931 . S
C4729 C4728 1.370 . S
C4729 C4733 1.408 . S
C4730 C4728 1.363 . S
C4730 C4731 1.370 . S
C4730 C4734 1.524 . S
C4731 C4723 1.503 . S
C4731 C4730 1.370 . S
C4731 C4732 1.403 . S
C4732 C4731 1.403 . S
C4732 C4733 1.404 . S
C4732 C4735 1.539 . S
C4733 C4729 1.408 . S
C4733 C4732 1.404 . S
C4733 H4745 0.930 . S
C4734 C4730 1.524 . S
C4734 H4746 0.956 . S
C4734 H4747 0.961 . S
C4734 H4748 0.961 . S
C4735 C4732 1.539 . S
C4735 H4749 0.958 . S
C4735 H4750 0.961 . S
C4735 H4751 0.960 . S
H4736 C4720 0.931 . S
H4737 C4725 0.929 . S
H4738 C4726 0.960 . S
H4739 C4726 0.962 . S
H4740 C4726 0.960 . S
H4741 C4727 0.961 . S
H4742 C4727 0.961 . S
H4743 C4727 0.961 . S
H4744 C4728 0.931 . S
H4745 C4733 0.930 . S
H4746 C4734 0.956 . S
H4747 C4734 0.961 . S
H4748 C4734 0.961 . S
H4749 C4735 0.958 . S
H4750 C4735 0.961 . S
H4751 C4735 0.960 . S
C4752 C4753 1.391 . S
C4752 C4754 1.394 . S
C4752 H4768 0.931 . S
C4753 C4752 1.391 . S
C4753 C4757 1.376 . S
C4754 C4752 1.394 . S
C4754 C4755 1.369 . S
C4754 C4758 1.531 . S
C4755 C4754 1.369 . S
C4755 C4756 1.410 . S
C4755 C4763 1.503 . S
C4756 C4755 1.410 . S
C4756 C4757 1.392 . S
C4756 C4759 1.511 . S
C4757 C4753 1.376 . S
C4757 C4756 1.392 . S
C4757 H4769 0.929 . S
C4758 C4754 1.531 . S
C4758 H4770 0.960 . S
C4758 H4771 0.962 . S
C4758 H4772 0.960 . S
C4759 C4756 1.511 . S
C4759 H4773 0.961 . S
C4759 H4774 0.961 . S
C4759 H4775 0.961 . S
C4760 C4761 1.370 . S
C4760 C4762 1.363 . S
C4760 H4776 0.931 . S
C4761 C4760 1.370 . S
C4761 C4765 1.408 . S
C4762 C4760 1.363 . S
C4762 C4763 1.370 . S
C4762 C4766 1.524 . S
C4763 C4755 1.503 . S
C4763 C4762 1.370 . S
C4763 C4764 1.403 . S
C4764 C4763 1.403 . S
C4764 C4765 1.404 . S
C4764 C4767 1.539 . S
C4765 C4761 1.408 . S
C4765 C4764 1.404 . S
C4765 H4777 0.930 . S
C4766 C4762 1.524 . S
C4766 H4778 0.956 . S
C4766 H4779 0.961 . S
C4766 H4780 0.961 . S
C4767 C4764 1.539 . S
C4767 H4781 0.958 . S
C4767 H4782 0.961 . S
C4767 H4783 0.960 . S
H4768 C4752 0.931 . S
H4769 C4757 0.929 . S
H4770 C4758 0.960 . S
H4771 C4758 0.962 . S
H4772 C4758 0.960 . S
H4773 C4759 0.961 . S
H4774 C4759 0.961 . S
H4775 C4759 0.961 . S
H4776 C4760 0.931 . S
H4777 C4765 0.930 . S
H4778 C4766 0.956 . S
H4779 C4766 0.961 . S
H4780 C4766 0.961 . S
H4781 C4767 0.958 . S
H4782 C4767 0.961 . S
H4783 C4767 0.960 . S
C4784 C4785 1.391 . S
C4784 C4786 1.394 . S
C4784 H4800 0.931 . S
C4785 C4784 1.391 . S
C4785 C4789 1.376 . S
C4786 C4784 1.394 . S
C4786 C4787 1.369 . S
C4786 C4790 1.531 . S
C4787 C4786 1.369 . S
C4787 C4788 1.410 . S
C4787 C4795 1.503 . S
C4788 C4787 1.410 . S
C4788 C4789 1.392 . S
C4788 C4791 1.511 . S
C4789 C4785 1.376 . S
C4789 C4788 1.392 . S
C4789 H4801 0.929 . S
C4790 C4786 1.531 . S
C4790 H4802 0.960 . S
C4790 H4803 0.962 . S
C4790 H4804 0.960 . S
C4791 C4788 1.511 . S
C4791 H4805 0.961 . S
C4791 H4806 0.961 . S
C4791 H4807 0.961 . S
C4792 C4793 1.370 . S
C4792 C4794 1.363 . S
C4792 H4808 0.931 . S
C4793 C4792 1.370 . S
C4793 C4797 1.408 . S
C4794 C4792 1.363 . S
C4794 C4795 1.370 . S
C4794 C4798 1.524 . S
C4795 C4787 1.503 . S
C4795 C4794 1.370 . S
C4795 C4796 1.403 . S
C4796 C4795 1.403 . S
C4796 C4797 1.404 . S
C4796 C4799 1.539 . S
C4797 C4793 1.408 . S
C4797 C4796 1.404 . S
C4797 H4809 0.930 . S
C4798 C4794 1.524 . S
C4798 H4810 0.956 . S
C4798 H4811 0.961 . S
C4798 H4812 0.961 . S
C4799 C4796 1.539 . S
C4799 H4813 0.958 . S
C4799 H4814 0.961 . S
C4799 H4815 0.960 . S
H4800 C4784 0.931 . S
H4801 C4789 0.929 . S
H4802 C4790 0.960 . S
H4803 C4790 0.962 . S
H4804 C4790 0.960 . S
H4805 C4791 0.961 . S
H4806 C4791 0.961 . S
H4807 C4791 0.961 . S
H4808 C4792 0.931 . S
H4809 C4797 0.930 . S
H4810 C4798 0.956 . S
H4811 C4798 0.961 . S
H4812 C4798 0.961 . S
H4813 C4799 0.958 . S
H4814 C4799 0.961 . S
H4815 C4799 0.960 . S
C4816 C4817 1.391 . S
C4816 C4818 1.394 . S
C4816 H4832 0.931 . S
C4817 C4816 1.391 . S
C4817 C4821 1.376 . S
C4818 C4816 1.394 . S
C4818 C4819 1.369 . S
C4818 C4822 1.531 . S
C4819 C4818 1.369 . S
C4819 C4820 1.410 . S
C4819 C4827 1.503 . S
C4820 C4819 1.410 . S
C4820 C4821 1.392 . S
C4820 C4823 1.511 . S
C4821 C4817 1.376 . S
C4821 C4820 1.392 . S
C4821 H4833 0.929 . S
C4822 C4818 1.531 . S
C4822 H4834 0.960 . S
C4822 H4835 0.962 . S
C4822 H4836 0.960 . S
C4823 C4820 1.511 . S
C4823 H4837 0.961 . S
C4823 H4838 0.961 . S
C4823 H4839 0.961 . S
C4824 C4825 1.370 . S
C4824 C4826 1.363 . S
C4824 H4840 0.931 . S
C4825 C4824 1.370 . S
C4825 C4829 1.408 . S
C4826 C4824 1.363 . S
C4826 C4827 1.370 . S
C4826 C4830 1.524 . S
C4827 C4819 1.503 . S
C4827 C4826 1.370 . S
C4827 C4828 1.403 . S
C4828 C4827 1.403 . S
C4828 C4829 1.404 . S
C4828 C4831 1.539 . S
C4829 C4825 1.408 . S
C4829 C4828 1.404 . S
C4829 H4841 0.930 . S
C4830 C4826 1.524 . S
C4830 H4842 0.956 . S
C4830 H4843 0.961 . S
C4830 H4844 0.961 . S
C4831 C4828 1.539 . S
C4831 H4845 0.958 . S
C4831 H4846 0.961 . S
C4831 H4847 0.960 . S
H4832 C4816 0.931 . S
H4833 C4821 0.929 . S
H4834 C4822 0.960 . S
H4835 C4822 0.962 . S
H4836 C4822 0.960 . S
H4837 C4823 0.961 . S
H4838 C4823 0.961 . S
H4839 C4823 0.961 . S
H4840 C4824 0.931 . S
H4841 C4829 0.930 . S
H4842 C4830 0.956 . S
H4843 C4830 0.961 . S
H4844 C4830 0.961 . S
H4845 C4831 0.958 . S
H4846 C4831 0.961 . S
H4847 C4831 0.960 . S
C4848 C4849 1.391 . S
C4848 C4850 1.394 . S
C4848 H4864 0.931 . S
C4849 C4848 1.391 . S
C4849 C4853 1.376 . S
C4850 C4848 1.394 . S
C4850 C4851 1.369 . S
C4850 C4854 1.531 . S
C4851 C4850 1.369 . S
C4851 C4852 1.410 . S
C4851 C4859 1.503 . S
C4852 C4851 1.410 . S
C4852 C4853 1.392 . S
C4852 C4855 1.511 . S
C4853 C4849 1.376 . S
C4853 C4852 1.392 . S
C4853 H4865 0.929 . S
C4854 C4850 1.531 . S
C4854 H4866 0.960 . S
C4854 H4867 0.962 . S
C4854 H4868 0.960 . S
C4855 C4852 1.511 . S
C4855 H4869 0.961 . S
C4855 H4870 0.961 . S
C4855 H4871 0.961 . S
C4856 C4857 1.370 . S
C4856 C4858 1.363 . S
C4856 H4872 0.931 . S
C4857 C4856 1.370 . S
C4857 C4861 1.408 . S
C4858 C4856 1.363 . S
C4858 C4859 1.370 . S
C4858 C4862 1.524 . S
C4859 C4851 1.503 . S
C4859 C4858 1.370 . S
C4859 C4860 1.403 . S
C4860 C4859 1.403 . S
C4860 C4861 1.404 . S
C4860 C4863 1.539 . S
C4861 C4857 1.408 . S
C4861 C4860 1.404 . S
C4861 H4873 0.930 . S
C4862 C4858 1.524 . S
C4862 H4874 0.956 . S
C4862 H4875 0.961 . S
C4862 H4876 0.961 . S
C4863 C4860 1.539 . S
C4863 H4877 0.958 . S
C4863 H4878 0.961 . S
C4863 H4879 0.960 . S
H4864 C4848 0.931 . S
H4865 C4853 0.929 . S
H4866 C4854 0.960 . S
H4867 C4854 0.962 . S
H4868 C4854 0.960 . S
H4869 C4855 0.961 . S
H4870 C4855 0.961 . S
H4871 C4855 0.961 . S
H4872 C4856 0.931 . S
H4873 C4861 0.930 . S
H4874 C4862 0.956 . S
H4875 C4862 0.961 . S
H4876 C4862 0.961 . S
H4877 C4863 0.958 . S
H4878 C4863 0.961 . S
H4879 C4863 0.960 . S
C4880 C4881 1.391 . S
C4880 C4882 1.394 . S
C4880 H4896 0.931 . S
C4881 C4880 1.391 . S
C4881 C4885 1.376 . S
C4882 C4880 1.394 . S
C4882 C4883 1.369 . S
C4882 C4886 1.531 . S
C4883 C4882 1.369 . S
C4883 C4884 1.410 . S
C4883 C4891 1.503 . S
C4884 C4883 1.410 . S
C4884 C4885 1.392 . S
C4884 C4887 1.511 . S
C4885 C4881 1.376 . S
C4885 C4884 1.392 . S
C4885 H4897 0.929 . S
C4886 C4882 1.531 . S
C4886 H4898 0.960 . S
C4886 H4899 0.962 . S
C4886 H4900 0.960 . S
C4887 C4884 1.511 . S
C4887 H4901 0.961 . S
C4887 H4902 0.961 . S
C4887 H4903 0.961 . S
C4888 C4889 1.370 . S
C4888 C4890 1.363 . S
C4888 H4904 0.931 . S
C4889 C4888 1.370 . S
C4889 C4893 1.408 . S
C4890 C4888 1.363 . S
C4890 C4891 1.370 . S
C4890 C4894 1.524 . S
C4891 C4883 1.503 . S
C4891 C4890 1.370 . S
C4891 C4892 1.403 . S
C4892 C4891 1.403 . S
C4892 C4893 1.404 . S
C4892 C4895 1.539 . S
C4893 C4889 1.408 . S
C4893 C4892 1.404 . S
C4893 H4905 0.930 . S
C4894 C4890 1.524 . S
C4894 H4906 0.956 . S
C4894 H4907 0.961 . S
C4894 H4908 0.961 . S
C4895 C4892 1.539 . S
C4895 H4909 0.958 . S
C4895 H4910 0.961 . S
C4895 H4911 0.960 . S
H4896 C4880 0.931 . S
H4897 C4885 0.929 . S
H4898 C4886 0.960 . S
H4899 C4886 0.962 . S
H4900 C4886 0.960 . S
H4901 C4887 0.961 . S
H4902 C4887 0.961 . S
H4903 C4887 0.961 . S
H4904 C4888 0.931 . S
H4905 C4893 0.930 . S
H4906 C4894 0.956 . S
H4907 C4894 0.961 . S
H4908 C4894 0.961 . S
H4909 C4895 0.958 . S
H4910 C4895 0.961 . S
H4911 C4895 0.960 . S
C4912 C4913 1.391 . S
C4912 C4914 1.394 . S
C4912 H4928 0.931 . S
C4913 C4912 1.391 . S
C4913 C4917 1.376 . S
C4914 C4912 1.394 . S
C4914 C4915 1.369 . S
C4914 C4918 1.531 . S
C4915 C4914 1.369 . S
C4915 C4916 1.410 . S
C4915 C4923 1.503 . S
C4916 C4915 1.410 . S
C4916 C4917 1.392 . S
C4916 C4919 1.511 . S
C4917 C4913 1.376 . S
C4917 C4916 1.392 . S
C4917 H4929 0.929 . S
C4918 C4914 1.531 . S
C4918 H4930 0.960 . S
C4918 H4931 0.962 . S
C4918 H4932 0.960 . S
C4919 C4916 1.511 . S
C4919 H4933 0.961 . S
C4919 H4934 0.961 . S
C4919 H4935 0.961 . S
C4920 C4921 1.370 . S
C4920 C4922 1.363 . S
C4920 H4936 0.931 . S
C4921 C4920 1.370 . S
C4921 C4925 1.408 . S
C4922 C4920 1.363 . S
C4922 C4923 1.370 . S
C4922 C4926 1.524 . S
C4923 C4915 1.503 . S
C4923 C4922 1.370 . S
C4923 C4924 1.403 . S
C4924 C4923 1.403 . S
C4924 C4925 1.404 . S
C4924 C4927 1.539 . S
C4925 C4921 1.408 . S
C4925 C4924 1.404 . S
C4925 H4937 0.930 . S
C4926 C4922 1.524 . S
C4926 H4938 0.956 . S
C4926 H4939 0.961 . S
C4926 H4940 0.961 . S
C4927 C4924 1.539 . S
C4927 H4941 0.958 . S
C4927 H4942 0.961 . S
C4927 H4943 0.960 . S
H4928 C4912 0.931 . S
H4929 C4917 0.929 . S
H4930 C4918 0.960 . S
H4931 C4918 0.962 . S
H4932 C4918 0.960 . S
H4933 C4919 0.961 . S
H4934 C4919 0.961 . S
H4935 C4919 0.961 . S
H4936 C4920 0.931 . S
H4937 C4925 0.930 . S
H4938 C4926 0.956 . S
H4939 C4926 0.961 . S
H4940 C4926 0.961 . S
H4941 C4927 0.958 . S
H4942 C4927 0.961 . S
H4943 C4927 0.960 . S
C4944 C4945 1.391 . S
C4944 C4946 1.394 . S
C4944 H4960 0.931 . S
C4945 C4944 1.391 . S
C4945 C4949 1.376 . S
C4946 C4944 1.394 . S
C4946 C4947 1.369 . S
C4946 C4950 1.531 . S
C4947 C4946 1.369 . S
C4947 C4948 1.410 . S
C4947 C4955 1.503 . S
C4948 C4947 1.410 . S
C4948 C4949 1.392 . S
C4948 C4951 1.511 . S
C4949 C4945 1.376 . S
C4949 C4948 1.392 . S
C4949 H4961 0.929 . S
C4950 C4946 1.531 . S
C4950 H4962 0.960 . S
C4950 H4963 0.962 . S
C4950 H4964 0.960 . S
C4951 C4948 1.511 . S
C4951 H4965 0.961 . S
C4951 H4966 0.961 . S
C4951 H4967 0.961 . S
C4952 C4953 1.370 . S
C4952 C4954 1.363 . S
C4952 H4968 0.931 . S
C4953 C4952 1.370 . S
C4953 C4957 1.408 . S
C4954 C4952 1.363 . S
C4954 C4955 1.370 . S
C4954 C4958 1.524 . S
C4955 C4947 1.503 . S
C4955 C4954 1.370 . S
C4955 C4956 1.403 . S
C4956 C4955 1.403 . S
C4956 C4957 1.404 . S
C4956 C4959 1.539 . S
C4957 C4953 1.408 . S
C4957 C4956 1.404 . S
C4957 H4969 0.930 . S
C4958 C4954 1.524 . S
C4958 H4970 0.956 . S
C4958 H4971 0.961 . S
C4958 H4972 0.961 . S
C4959 C4956 1.539 . S
C4959 H4973 0.958 . S
C4959 H4974 0.961 . S
C4959 H4975 0.960 . S
H4960 C4944 0.931 . S
H4961 C4949 0.929 . S
H4962 C4950 0.960 . S
H4963 C4950 0.962 . S
H4964 C4950 0.960 . S
H4965 C4951 0.961 . S
H4966 C4951 0.961 . S
H4967 C4951 0.961 . S
H4968 C4952 0.931 . S
H4969 C4957 0.930 . S
H4970 C4958 0.956 . S
H4971 C4958 0.961 . S
H4972 C4958 0.961 . S
H4973 C4959 0.958 . S
H4974 C4959 0.961 . S
H4975 C4959 0.960 . S
C4976 C4977 1.391 . S
C4976 C4978 1.394 . S
C4976 H4992 0.931 . S
C4977 C4976 1.391 . S
C4977 C4981 1.376 . S
C4978 C4976 1.394 . S
C4978 C4979 1.369 . S
C4978 C4982 1.531 . S
C4979 C4978 1.369 . S
C4979 C4980 1.410 . S
C4979 C4987 1.503 . S
C4980 C4979 1.410 . S
C4980 C4981 1.392 . S
C4980 C4983 1.511 . S
C4981 C4977 1.376 . S
C4981 C4980 1.392 . S
C4981 H4993 0.929 . S
C4982 C4978 1.531 . S
C4982 H4994 0.960 . S
C4982 H4995 0.962 . S
C4982 H4996 0.960 . S
C4983 C4980 1.511 . S
C4983 H4997 0.961 . S
C4983 H4998 0.961 . S
C4983 H4999 0.961 . S
C4984 C4985 1.370 . S
C4984 C4986 1.363 . S
C4984 H5000 0.931 . S
C4985 C4984 1.370 . S
C4985 C4989 1.408 . S
C4986 C4984 1.363 . S
C4986 C4987 1.370 . S
C4986 C4990 1.524 . S
C4987 C4979 1.503 . S
C4987 C4986 1.370 . S
C4987 C4988 1.403 . S
C4988 C4987 1.403 . S
C4988 C4989 1.404 . S
C4988 C4991 1.539 . S
C4989 C4985 1.408 . S
C4989 C4988 1.404 . S
C4989 H5001 0.930 . S
C4990 C4986 1.524 . S
C4990 H5002 0.956 . S
C4990 H5003 0.961 . S
C4990 H5004 0.961 . S
C4991 C4988 1.539 . S
C4991 H5005 0.958 . S
C4991 H5006 0.961 . S
C4991 H5007 0.960 . S
H4992 C4976 0.931 . S
H4993 C4981 0.929 . S
H4994 C4982 0.960 . S
H4995 C4982 0.962 . S
H4996 C4982 0.960 . S
H4997 C4983 0.961 . S
H4998 C4983 0.961 . S
H4999 C4983 0.961 . S
H5000 C4984 0.931 . S
H5001 C4989 0.930 . S
H5002 C4990 0.956 . S
H5003 C4990 0.961 . S
H5004 C4990 0.961 . S
H5005 C4991 0.958 . S
H5006 C4991 0.961 . S
H5007 C4991 0.960 . S
C5008 C5009 1.391 . S
C5008 C5010 1.394 . S
C5008 H5024 0.931 . S
C5009 C5008 1.391 . S
C5009 C5013 1.376 . S
C5010 C5008 1.394 . S
C5010 C5011 1.369 . S
C5010 C5014 1.531 . S
C5011 C5010 1.369 . S
C5011 C5012 1.410 . S
C5011 C5019 1.503 . S
C5012 C5011 1.410 . S
C5012 C5013 1.392 . S
C5012 C5015 1.511 . S
C5013 C5009 1.376 . S
C5013 C5012 1.392 . S
C5013 H5025 0.929 . S
C5014 C5010 1.531 . S
C5014 H5026 0.960 . S
C5014 H5027 0.962 . S
C5014 H5028 0.960 . S
C5015 C5012 1.511 . S
C5015 H5029 0.961 . S
C5015 H5030 0.961 . S
C5015 H5031 0.961 . S
C5016 C5017 1.370 . S
C5016 C5018 1.363 . S
C5016 H5032 0.931 . S
C5017 C5016 1.370 . S
C5017 C5021 1.408 . S
C5018 C5016 1.363 . S
C5018 C5019 1.370 . S
C5018 C5022 1.524 . S
C5019 C5011 1.503 . S
C5019 C5018 1.370 . S
C5019 C5020 1.403 . S
C5020 C5019 1.403 . S
C5020 C5021 1.404 . S
C5020 C5023 1.539 . S
C5021 C5017 1.408 . S
C5021 C5020 1.404 . S
C5021 H5033 0.930 . S
C5022 C5018 1.524 . S
C5022 H5034 0.956 . S
C5022 H5035 0.961 . S
C5022 H5036 0.961 . S
C5023 C5020 1.539 . S
C5023 H5037 0.958 . S
C5023 H5038 0.961 . S
C5023 H5039 0.960 . S
H5024 C5008 0.931 . S
H5025 C5013 0.929 . S
H5026 C5014 0.960 . S
H5027 C5014 0.962 . S
H5028 C5014 0.960 . S
H5029 C5015 0.961 . S
H5030 C5015 0.961 . S
H5031 C5015 0.961 . S
H5032 C5016 0.931 . S
H5033 C5021 0.930 . S
H5034 C5022 0.956 . S
H5035 C5022 0.961 . S
H5036 C5022 0.961 . S
H5037 C5023 0.958 . S
H5038 C5023 0.961 . S
H5039 C5023 0.960 . S
C5040 C5041 1.391 . S
C5040 C5042 1.394 . S
C5040 H5056 0.931 . S
C5041 C5040 1.391 . S
C5041 C5045 1.376 . S
C5042 C5040 1.394 . S
C5042 C5043 1.369 . S
C5042 C5046 1.531 . S
C5043 C5042 1.369 . S
C5043 C5044 1.410 . S
C5043 C5051 1.503 . S
C5044 C5043 1.410 . S
C5044 C5045 1.392 . S
C5044 C5047 1.511 . S
C5045 C5041 1.376 . S
C5045 C5044 1.392 . S
C5045 H5057 0.929 . S
C5046 C5042 1.531 . S
C5046 H5058 0.960 . S
C5046 H5059 0.962 . S
C5046 H5060 0.960 . S
C5047 C5044 1.511 . S
C5047 H5061 0.961 . S
C5047 H5062 0.961 . S
C5047 H5063 0.961 . S
C5048 C5049 1.370 . S
C5048 C5050 1.363 . S
C5048 H5064 0.931 . S
C5049 C5048 1.370 . S
C5049 C5053 1.408 . S
C5050 C5048 1.363 . S
C5050 C5051 1.370 . S
C5050 C5054 1.524 . S
C5051 C5043 1.503 . S
C5051 C5050 1.370 . S
C5051 C5052 1.403 . S
C5052 C5051 1.403 . S
C5052 C5053 1.404 . S
C5052 C5055 1.539 . S
C5053 C5049 1.408 . S
C5053 C5052 1.404 . S
C5053 H5065 0.930 . S
C5054 C5050 1.524 . S
C5054 H5066 0.956 . S
C5054 H5067 0.961 . S
C5054 H5068 0.961 . S
C5055 C5052 1.539 . S
C5055 H5069 0.958 . S
C5055 H5070 0.961 . S
C5055 H5071 0.960 . S
H5056 C5040 0.931 . S
H5057 C5045 0.929 . S
H5058 C5046 0.960 . S
H5059 C5046 0.962 . S
H5060 C5046 0.960 . S
H5061 C5047 0.961 . S
H5062 C5047 0.961 . S
H5063 C5047 0.961 . S
H5064 C5048 0.931 . S
H5065 C5053 0.930 . S
H5066 C5054 0.956 . S
H5067 C5054 0.961 . S
H5068 C5054 0.961 . S
H5069 C5055 0.958 . S
H5070 C5055 0.961 . S
H5071 C5055 0.960 . S
C5072 C5073 1.391 . S
C5072 C5074 1.394 . S
C5072 H5088 0.931 . S
C5073 C5072 1.391 . S
C5073 C5077 1.376 . S
C5074 C5072 1.394 . S
C5074 C5075 1.369 . S
C5074 C5078 1.531 . S
C5075 C5074 1.369 . S
C5075 C5076 1.410 . S
C5075 C5083 1.503 . S
C5076 C5075 1.410 . S
C5076 C5077 1.392 . S
C5076 C5079 1.511 . S
C5077 C5073 1.376 . S
C5077 C5076 1.392 . S
C5077 H5089 0.929 . S
C5078 C5074 1.531 . S
C5078 H5090 0.960 . S
C5078 H5091 0.962 . S
C5078 H5092 0.960 . S
C5079 C5076 1.511 . S
C5079 H5093 0.961 . S
C5079 H5094 0.961 . S
C5079 H5095 0.961 . S
C5080 C5081 1.370 . S
C5080 C5082 1.363 . S
C5080 H5096 0.931 . S
C5081 C5080 1.370 . S
C5081 C5085 1.408 . S
C5082 C5080 1.363 . S
C5082 C5083 1.370 . S
C5082 C5086 1.524 . S
C5083 C5075 1.503 . S
C5083 C5082 1.370 . S
C5083 C5084 1.403 . S
C5084 C5083 1.403 . S
C5084 C5085 1.404 . S
C5084 C5087 1.539 . S
C5085 C5081 1.408 . S
C5085 C5084 1.404 . S
C5085 H5097 0.930 . S
C5086 C5082 1.524 . S
C5086 H5098 0.956 . S
C5086 H5099 0.961 . S
C5086 H5100 0.961 . S
C5087 C5084 1.539 . S
C5087 H5101 0.958 . S
C5087 H5102 0.961 . S
C5087 H5103 0.960 . S
H5088 C5072 0.931 . S
H5089 C5077 0.929 . S
H5090 C5078 0.960 . S
H5091 C5078 0.962 . S
H5092 C5078 0.960 . S
H5093 C5079 0.961 . S
H5094 C5079 0.961 . S
H5095 C5079 0.961 . S
H5096 C5080 0.931 . S
H5097 C5085 0.930 . S
H5098 C5086 0.956 . S
H5099 C5086 0.961 . S
H5100 C5086 0.961 . S
H5101 C5087 0.958 . S
H5102 C5087 0.961 . S
H5103 C5087 0.960 . S
C5104 C5105 1.391 . S
C5104 C5106 1.394 . S
C5104 H5120 0.931 . S
C5105 C5104 1.391 . S
C5105 C5109 1.376 . S
C5106 C5104 1.394 . S
C5106 C5107 1.369 . S
C5106 C5110 1.531 . S
C5107 C5106 1.369 . S
C5107 C5108 1.410 . S
C5107 C5115 1.503 . S
C5108 C5107 1.410 . S
C5108 C5109 1.392 . S
C5108 C5111 1.511 . S
C5109 C5105 1.376 . S
C5109 C5108 1.392 . S
C5109 H5121 0.929 . S
C5110 C5106 1.531 . S
C5110 H5122 0.960 . S
C5110 H5123 0.962 . S
C5110 H5124 0.960 . S
C5111 C5108 1.511 . S
C5111 H5125 0.961 . S
C5111 H5126 0.961 . S
C5111 H5127 0.961 . S
C5112 C5113 1.370 . S
C5112 C5114 1.363 . S
C5112 H5128 0.931 . S
C5113 C5112 1.370 . S
C5113 C5117 1.408 . S
C5114 C5112 1.363 . S
C5114 C5115 1.370 . S
C5114 C5118 1.524 . S
C5115 C5107 1.503 . S
C5115 C5114 1.370 . S
C5115 C5116 1.403 . S
C5116 C5115 1.403 . S
C5116 C5117 1.404 . S
C5116 C5119 1.539 . S
C5117 C5113 1.408 . S
C5117 C5116 1.404 . S
C5117 H5129 0.930 . S
C5118 C5114 1.524 . S
C5118 H5130 0.956 . S
C5118 H5131 0.961 . S
C5118 H5132 0.961 . S
C5119 C5116 1.539 . S
C5119 H5133 0.958 . S
C5119 H5134 0.961 . S
C5119 H5135 0.960 . S
H5120 C5104 0.931 . S
H5121 C5109 0.929 . S
H5122 C5110 0.960 . S
H5123 C5110 0.962 . S
H5124 C5110 0.960 . S
H5125 C5111 0.961 . S
H5126 C5111 0.961 . S
H5127 C5111 0.961 . S
H5128 C5112 0.931 . S
H5129 C5117 0.930 . S
H5130 C5118 0.956 . S
H5131 C5118 0.961 . S
H5132 C5118 0.961 . S
H5133 C5119 0.958 . S
H5134 C5119 0.961 . S
H5135 C5119 0.960 . S
C5136 C5137 1.391 . S
C5136 C5138 1.394 . S
C5136 H5152 0.931 . S
C5137 C5136 1.391 . S
C5137 C5141 1.376 . S
C5138 C5136 1.394 . S
C5138 C5139 1.369 . S
C5138 C5142 1.531 . S
C5139 C5138 1.369 . S
C5139 C5140 1.410 . S
C5139 C5147 1.503 . S
C5140 C5139 1.410 . S
C5140 C5141 1.392 . S
C5140 C5143 1.511 . S
C5141 C5137 1.376 . S
C5141 C5140 1.392 . S
C5141 H5153 0.929 . S
C5142 C5138 1.531 . S
C5142 H5154 0.960 . S
C5142 H5155 0.962 . S
C5142 H5156 0.960 . S
C5143 C5140 1.511 . S
C5143 H5157 0.961 . S
C5143 H5158 0.961 . S
C5143 H5159 0.961 . S
C5144 C5145 1.370 . S
C5144 C5146 1.363 . S
C5144 H5160 0.931 . S
C5145 C5144 1.370 . S
C5145 C5149 1.408 . S
C5146 C5144 1.363 . S
C5146 C5147 1.370 . S
C5146 C5150 1.524 . S
C5147 C5139 1.503 . S
C5147 C5146 1.370 . S
C5147 C5148 1.403 . S
C5148 C5147 1.403 . S
C5148 C5149 1.404 . S
C5148 C5151 1.539 . S
C5149 C5145 1.408 . S
C5149 C5148 1.404 . S
C5149 H5161 0.930 . S
C5150 C5146 1.524 . S
C5150 H5162 0.956 . S
C5150 H5163 0.961 . S
C5150 H5164 0.961 . S
C5151 C5148 1.539 . S
C5151 H5165 0.958 . S
C5151 H5166 0.961 . S
C5151 H5167 0.960 . S
H5152 C5136 0.931 . S
H5153 C5141 0.929 . S
H5154 C5142 0.960 . S
H5155 C5142 0.962 . S
H5156 C5142 0.960 . S
H5157 C5143 0.961 . S
H5158 C5143 0.961 . S
H5159 C5143 0.961 . S
H5160 C5144 0.931 . S
H5161 C5149 0.930 . S
H5162 C5150 0.956 . S
H5163 C5150 0.961 . S
H5164 C5150 0.961 . S
H5165 C5151 0.958 . S
H5166 C5151 0.961 . S
H5167 C5151 0.960 . S
C5168 C5169 1.391 . S
C5168 C5170 1.394 . S
C5168 H5184 0.931 . S
C5169 C5168 1.391 . S
C5169 C5173 1.376 . S
C5170 C5168 1.394 . S
C5170 C5171 1.369 . S
C5170 C5174 1.531 . S
C5171 C5170 1.369 . S
C5171 C5172 1.410 . S
C5171 C5179 1.503 . S
C5172 C5171 1.410 . S
C5172 C5173 1.392 . S
C5172 C5175 1.511 . S
C5173 C5169 1.376 . S
C5173 C5172 1.392 . S
C5173 H5185 0.929 . S
C5174 C5170 1.531 . S
C5174 H5186 0.960 . S
C5174 H5187 0.962 . S
C5174 H5188 0.960 . S
C5175 C5172 1.511 . S
C5175 H5189 0.961 . S
C5175 H5190 0.961 . S
C5175 H5191 0.961 . S
C5176 C5177 1.370 . S
C5176 C5178 1.363 . S
C5176 H5192 0.931 . S
C5177 C5176 1.370 . S
C5177 C5181 1.408 . S
C5178 C5176 1.363 . S
C5178 C5179 1.370 . S
C5178 C5182 1.524 . S
C5179 C5171 1.503 . S
C5179 C5178 1.370 . S
C5179 C5180 1.403 . S
C5180 C5179 1.403 . S
C5180 C5181 1.404 . S
C5180 C5183 1.539 . S
C5181 C5177 1.408 . S
C5181 C5180 1.404 . S
C5181 H5193 0.930 . S
C5182 C5178 1.524 . S
C5182 H5194 0.956 . S
C5182 H5195 0.961 . S
C5182 H5196 0.961 . S
C5183 C5180 1.539 . S
C5183 H5197 0.958 . S
C5183 H5198 0.961 . S
C5183 H5199 0.960 . S
H5184 C5168 0.931 . S
H5185 C5173 0.929 . S
H5186 C5174 0.960 . S
H5187 C5174 0.962 . S
H5188 C5174 0.960 . S
H5189 C5175 0.961 . S
H5190 C5175 0.961 . S
H5191 C5175 0.961 . S
H5192 C5176 0.931 . S
H5193 C5181 0.930 . S
H5194 C5182 0.956 . S
H5195 C5182 0.961 . S
H5196 C5182 0.961 . S
H5197 C5183 0.958 . S
H5198 C5183 0.961 . S
H5199 C5183 0.960 . S
C5200 C5201 1.391 . S
C5200 C5202 1.394 . S
C5200 H5216 0.931 . S
C5201 C5200 1.391 . S
C5201 C5205 1.376 . S
C5202 C5200 1.394 . S
C5202 C5203 1.369 . S
C5202 C5206 1.531 . S
C5203 C5202 1.369 . S
C5203 C5204 1.410 . S
C5203 C5211 1.503 . S
C5204 C5203 1.410 . S
C5204 C5205 1.392 . S
C5204 C5207 1.511 . S
C5205 C5201 1.376 . S
C5205 C5204 1.392 . S
C5205 H5217 0.929 . S
C5206 C5202 1.531 . S
C5206 H5218 0.960 . S
C5206 H5219 0.962 . S
C5206 H5220 0.960 . S
C5207 C5204 1.511 . S
C5207 H5221 0.961 . S
C5207 H5222 0.961 . S
C5207 H5223 0.961 . S
C5208 C5209 1.370 . S
C5208 C5210 1.363 . S
C5208 H5224 0.931 . S
C5209 C5208 1.370 . S
C5209 C5213 1.408 . S
C5210 C5208 1.363 . S
C5210 C5211 1.370 . S
C5210 C5214 1.524 . S
C5211 C5203 1.503 . S
C5211 C5210 1.370 . S
C5211 C5212 1.403 . S
C5212 C5211 1.403 . S
C5212 C5213 1.404 . S
C5212 C5215 1.539 . S
C5213 C5209 1.408 . S
C5213 C5212 1.404 . S
C5213 H5225 0.930 . S
C5214 C5210 1.524 . S
C5214 H5226 0.956 . S
C5214 H5227 0.961 . S
C5214 H5228 0.961 . S
C5215 C5212 1.539 . S
C5215 H5229 0.958 . S
C5215 H5230 0.961 . S
C5215 H5231 0.960 . S
H5216 C5200 0.931 . S
H5217 C5205 0.929 . S
H5218 C5206 0.960 . S
H5219 C5206 0.962 . S
H5220 C5206 0.960 . S
H5221 C5207 0.961 . S
H5222 C5207 0.961 . S
H5223 C5207 0.961 . S
H5224 C5208 0.931 . S
H5225 C5213 0.930 . S
H5226 C5214 0.956 . S
H5227 C5214 0.961 . S
H5228 C5214 0.961 . S
H5229 C5215 0.958 . S
H5230 C5215 0.961 . S
H5231 C5215 0.960 . S
C5232 C5233 1.391 . S
C5232 C5234 1.394 . S
C5232 H5248 0.931 . S
C5233 C5232 1.391 . S
C5233 C5237 1.376 . S
C5234 C5232 1.394 . S
C5234 C5235 1.369 . S
C5234 C5238 1.531 . S
C5235 C5234 1.369 . S
C5235 C5236 1.410 . S
C5235 C5243 1.503 . S
C5236 C5235 1.410 . S
C5236 C5237 1.392 . S
C5236 C5239 1.511 . S
C5237 C5233 1.376 . S
C5237 C5236 1.392 . S
C5237 H5249 0.929 . S
C5238 C5234 1.531 . S
C5238 H5250 0.960 . S
C5238 H5251 0.962 . S
C5238 H5252 0.960 . S
C5239 C5236 1.511 . S
C5239 H5253 0.961 . S
C5239 H5254 0.961 . S
C5239 H5255 0.961 . S
C5240 C5241 1.370 . S
C5240 C5242 1.363 . S
C5240 H5256 0.931 . S
C5241 C5240 1.370 . S
C5241 C5245 1.408 . S
C5242 C5240 1.363 . S
C5242 C5243 1.370 . S
C5242 C5246 1.524 . S
C5243 C5235 1.503 . S
C5243 C5242 1.370 . S
C5243 C5244 1.403 . S
C5244 C5243 1.403 . S
C5244 C5245 1.404 . S
C5244 C5247 1.539 . S
C5245 C5241 1.408 . S
C5245 C5244 1.404 . S
C5245 H5257 0.930 . S
C5246 C5242 1.524 . S
C5246 H5258 0.956 . S
C5246 H5259 0.961 . S
C5246 H5260 0.961 . S
C5247 C5244 1.539 . S
C5247 H5261 0.958 . S
C5247 H5262 0.961 . S
C5247 H5263 0.960 . S
H5248 C5232 0.931 . S
H5249 C5237 0.929 . S
H5250 C5238 0.960 . S
H5251 C5238 0.962 . S
H5252 C5238 0.960 . S
H5253 C5239 0.961 . S
H5254 C5239 0.961 . S
H5255 C5239 0.961 . S
H5256 C5240 0.931 . S
H5257 C5245 0.930 . S
H5258 C5246 0.956 . S
H5259 C5246 0.961 . S
H5260 C5246 0.961 . S
H5261 C5247 0.958 . S
H5262 C5247 0.961 . S
H5263 C5247 0.960 . S
C5264 C5265 1.391 . S
C5264 C5266 1.394 . S
C5264 H5280 0.931 . S
C5265 C5264 1.391 . S
C5265 C5269 1.376 . S
C5266 C5264 1.394 . S
C5266 C5267 1.369 . S
C5266 C5270 1.531 . S
C5267 C5266 1.369 . S
C5267 C5268 1.410 . S
C5267 C5275 1.503 . S
C5268 C5267 1.410 . S
C5268 C5269 1.392 . S
C5268 C5271 1.511 . S
C5269 C5265 1.376 . S
C5269 C5268 1.392 . S
C5269 H5281 0.929 . S
C5270 C5266 1.531 . S
C5270 H5282 0.960 . S
C5270 H5283 0.962 . S
C5270 H5284 0.960 . S
C5271 C5268 1.511 . S
C5271 H5285 0.961 . S
C5271 H5286 0.961 . S
C5271 H5287 0.961 . S
C5272 C5273 1.370 . S
C5272 C5274 1.363 . S
C5272 H5288 0.931 . S
C5273 C5272 1.370 . S
C5273 C5277 1.408 . S
C5274 C5272 1.363 . S
C5274 C5275 1.370 . S
C5274 C5278 1.524 . S
C5275 C5267 1.503 . S
C5275 C5274 1.370 . S
C5275 C5276 1.403 . S
C5276 C5275 1.403 . S
C5276 C5277 1.404 . S
C5276 C5279 1.539 . S
C5277 C5273 1.408 . S
C5277 C5276 1.404 . S
C5277 H5289 0.930 1_545 S
C5278 C5274 1.524 . S
C5278 H5290 0.956 . S
C5278 H5291 0.961 . S
C5278 H5292 0.961 . S
C5279 C5276 1.539 . S
C5279 H5293 0.958 . S
C5279 H5294 0.961 . S
C5279 H5295 0.960 . S
H5280 C5264 0.931 . S
H5281 C5269 0.929 . S
H5282 C5270 0.960 . S
H5283 C5270 0.962 . S
H5284 C5270 0.960 . S
H5285 C5271 0.961 . S
H5286 C5271 0.961 . S
H5287 C5271 0.961 . S
H5288 C5272 0.931 . S
H5289 C5277 0.930 1_565 S
H5290 C5278 0.956 . S
H5291 C5278 0.961 . S
H5292 C5278 0.961 . S
H5293 C5279 0.958 . S
H5294 C5279 0.961 . S
H5295 C5279 0.960 . S
C5296 C5297 1.391 . S
C5296 C5298 1.394 . S
C5296 H5312 0.931 . S
C5297 C5296 1.391 . S
C5297 C5301 1.376 . S
C5298 C5296 1.394 . S
C5298 C5299 1.369 . S
C5298 C5302 1.531 . S
C5299 C5298 1.369 . S
C5299 C5300 1.410 . S
C5299 C5307 1.503 . S
C5300 C5299 1.410 . S
C5300 C5301 1.392 . S
C5300 C5303 1.511 . S
C5301 C5297 1.376 . S
C5301 C5300 1.392 . S
C5301 H5313 0.929 . S
C5302 C5298 1.531 . S
C5302 H5314 0.960 . S
C5302 H5315 0.962 . S
C5302 H5316 0.960 . S
C5303 C5300 1.511 . S
C5303 H5317 0.961 . S
C5303 H5318 0.961 . S
C5303 H5319 0.961 . S
C5304 C5305 1.370 . S
C5304 C5306 1.363 . S
C5304 H5320 0.931 . S
C5305 C5304 1.370 . S
C5305 C5309 1.408 . S
C5306 C5304 1.363 . S
C5306 C5307 1.370 . S
C5306 C5310 1.524 . S
C5307 C5299 1.503 . S
C5307 C5306 1.370 . S
C5307 C5308 1.403 . S
C5308 C5307 1.403 . S
C5308 C5309 1.404 . S
C5308 C5311 1.539 . S
C5309 C5305 1.408 . S
C5309 C5308 1.404 . S
C5309 H5321 0.930 . S
C5310 C5306 1.524 . S
C5310 H5322 0.956 . S
C5310 H5323 0.961 . S
C5310 H5324 0.961 . S
C5311 C5308 1.539 . S
C5311 H5325 0.958 . S
C5311 H5326 0.961 . S
C5311 H5327 0.960 . S
H5312 C5296 0.931 . S
H5313 C5301 0.929 . S
H5314 C5302 0.960 . S
H5315 C5302 0.962 . S
H5316 C5302 0.960 . S
H5317 C5303 0.961 . S
H5318 C5303 0.961 . S
H5319 C5303 0.961 . S
H5320 C5304 0.931 . S
H5321 C5309 0.930 . S
H5322 C5310 0.956 . S
H5323 C5310 0.961 . S
H5324 C5310 0.961 . S
H5325 C5311 0.958 . S
H5326 C5311 0.961 . S
H5327 C5311 0.960 . S
C5328 C5329 1.391 . S
C5328 C5330 1.394 . S
C5328 H5344 0.931 . S
C5329 C5328 1.391 . S
C5329 C5333 1.376 . S
C5330 C5328 1.394 . S
C5330 C5331 1.369 . S
C5330 C5334 1.531 . S
C5331 C5330 1.369 . S
C5331 C5332 1.410 . S
C5331 C5339 1.503 . S
C5332 C5331 1.410 . S
C5332 C5333 1.392 . S
C5332 C5335 1.511 . S
C5333 C5329 1.376 . S
C5333 C5332 1.392 . S
C5333 H5345 0.929 . S
C5334 C5330 1.531 . S
C5334 H5346 0.960 . S
C5334 H5347 0.962 . S
C5334 H5348 0.960 . S
C5335 C5332 1.511 . S
C5335 H5349 0.961 . S
C5335 H5350 0.961 . S
C5335 H5351 0.961 . S
C5336 C5337 1.370 . S
C5336 C5338 1.363 . S
C5336 H5352 0.931 . S
C5337 C5336 1.370 . S
C5337 C5341 1.408 . S
C5338 C5336 1.363 . S
C5338 C5339 1.370 . S
C5338 C5342 1.524 . S
C5339 C5331 1.503 . S
C5339 C5338 1.370 . S
C5339 C5340 1.403 . S
C5340 C5339 1.403 . S
C5340 C5341 1.404 . S
C5340 C5343 1.539 . S
C5341 C5337 1.408 . S
C5341 C5340 1.404 . S
C5341 H5353 0.930 . S
C5342 C5338 1.524 . S
C5342 H5354 0.956 . S
C5342 H5355 0.961 . S
C5342 H5356 0.961 . S
C5343 C5340 1.539 . S
C5343 H5357 0.958 . S
C5343 H5358 0.961 . S
C5343 H5359 0.960 . S
H5344 C5328 0.931 . S
H5345 C5333 0.929 . S
H5346 C5334 0.960 . S
H5347 C5334 0.962 . S
H5348 C5334 0.960 . S
H5349 C5335 0.961 . S
H5350 C5335 0.961 . S
H5351 C5335 0.961 . S
H5352 C5336 0.931 . S
H5353 C5341 0.930 . S
H5354 C5342 0.956 . S
H5355 C5342 0.961 . S
H5356 C5342 0.961 . S
H5357 C5343 0.958 . S
H5358 C5343 0.961 . S
H5359 C5343 0.960 . S
C5360 C5361 1.391 . S
C5360 C5362 1.394 . S
C5360 H5376 0.931 . S
C5361 C5360 1.391 . S
C5361 C5365 1.376 . S
C5362 C5360 1.394 . S
C5362 C5363 1.369 . S
C5362 C5366 1.531 . S
C5363 C5362 1.369 . S
C5363 C5364 1.410 . S
C5363 C5371 1.503 . S
C5364 C5363 1.410 . S
C5364 C5365 1.392 . S
C5364 C5367 1.511 . S
C5365 C5361 1.376 . S
C5365 C5364 1.392 . S
C5365 H5377 0.929 . S
C5366 C5362 1.531 . S
C5366 H5378 0.960 . S
C5366 H5379 0.962 . S
C5366 H5380 0.960 . S
C5367 C5364 1.511 . S
C5367 H5381 0.961 . S
C5367 H5382 0.961 . S
C5367 H5383 0.961 . S
C5368 C5369 1.370 . S
C5368 C5370 1.363 . S
C5368 H5384 0.931 . S
C5369 C5368 1.370 . S
C5369 C5373 1.408 . S
C5370 C5368 1.363 . S
C5370 C5371 1.370 . S
C5370 C5374 1.524 . S
C5371 C5363 1.503 . S
C5371 C5370 1.370 . S
C5371 C5372 1.403 . S
C5372 C5371 1.403 . S
C5372 C5373 1.404 . S
C5372 C5375 1.539 . S
C5373 C5369 1.408 . S
C5373 C5372 1.404 . S
C5373 H5385 0.930 . S
C5374 C5370 1.524 . S
C5374 H5386 0.956 . S
C5374 H5387 0.961 . S
C5374 H5388 0.961 . S
C5375 C5372 1.539 . S
C5375 H5389 0.958 . S
C5375 H5390 0.961 . S
C5375 H5391 0.960 . S
H5376 C5360 0.931 . S
H5377 C5365 0.929 . S
H5378 C5366 0.960 . S
H5379 C5366 0.962 . S
H5380 C5366 0.960 . S
H5381 C5367 0.961 . S
H5382 C5367 0.961 . S
H5383 C5367 0.961 . S
H5384 C5368 0.931 . S
H5385 C5373 0.930 . S
H5386 C5374 0.956 . S
H5387 C5374 0.961 . S
H5388 C5374 0.961 . S
H5389 C5375 0.958 . S
H5390 C5375 0.961 . S
H5391 C5375 0.960 . S
C5392 C5393 1.391 . S
C5392 C5394 1.394 . S
C5392 H5408 0.931 . S
C5393 C5392 1.391 . S
C5393 C5397 1.376 . S
C5394 C5392 1.394 . S
C5394 C5395 1.369 . S
C5394 C5398 1.531 . S
C5395 C5394 1.369 . S
C5395 C5396 1.410 . S
C5395 C5403 1.503 . S
C5396 C5395 1.410 . S
C5396 C5397 1.392 . S
C5396 C5399 1.511 . S
C5397 C5393 1.376 . S
C5397 C5396 1.392 . S
C5397 H5409 0.929 . S
C5398 C5394 1.531 . S
C5398 H5410 0.960 . S
C5398 H5411 0.962 . S
C5398 H5412 0.960 . S
C5399 C5396 1.511 . S
C5399 H5413 0.961 . S
C5399 H5414 0.961 . S
C5399 H5415 0.961 . S
C5400 C5401 1.370 . S
C5400 C5402 1.363 . S
C5400 H5416 0.931 . S
C5401 C5400 1.370 . S
C5401 C5405 1.408 . S
C5402 C5400 1.363 . S
C5402 C5403 1.370 . S
C5402 C5406 1.524 . S
C5403 C5395 1.503 . S
C5403 C5402 1.370 . S
C5403 C5404 1.403 . S
C5404 C5403 1.403 . S
C5404 C5405 1.404 . S
C5404 C5407 1.539 . S
C5405 C5401 1.408 . S
C5405 C5404 1.404 . S
C5405 H5417 0.930 . S
C5406 C5402 1.524 . S
C5406 H5418 0.956 . S
C5406 H5419 0.961 . S
C5406 H5420 0.961 . S
C5407 C5404 1.539 . S
C5407 H5421 0.958 . S
C5407 H5422 0.961 . S
C5407 H5423 0.960 . S
H5408 C5392 0.931 . S
H5409 C5397 0.929 . S
H5410 C5398 0.960 . S
H5411 C5398 0.962 . S
H5412 C5398 0.960 . S
H5413 C5399 0.961 . S
H5414 C5399 0.961 . S
H5415 C5399 0.961 . S
H5416 C5400 0.931 . S
H5417 C5405 0.930 . S
H5418 C5406 0.956 . S
H5419 C5406 0.961 . S
H5420 C5406 0.961 . S
H5421 C5407 0.958 . S
H5422 C5407 0.961 . S
H5423 C5407 0.960 . S
C5424 C5425 1.391 . S
C5424 C5426 1.394 . S
C5424 H5440 0.931 . S
C5425 C5424 1.391 . S
C5425 C5429 1.376 . S
C5426 C5424 1.394 . S
C5426 C5427 1.369 . S
C5426 C5430 1.531 . S
C5427 C5426 1.369 . S
C5427 C5428 1.410 . S
C5427 C5435 1.503 . S
C5428 C5427 1.410 . S
C5428 C5429 1.392 . S
C5428 C5431 1.511 . S
C5429 C5425 1.376 . S
C5429 C5428 1.392 . S
C5429 H5441 0.929 . S
C5430 C5426 1.531 . S
C5430 H5442 0.960 . S
C5430 H5443 0.962 . S
C5430 H5444 0.960 . S
C5431 C5428 1.511 . S
C5431 H5445 0.961 . S
C5431 H5446 0.961 . S
C5431 H5447 0.961 . S
C5432 C5433 1.370 . S
C5432 C5434 1.363 1_545 S
C5432 H5448 0.931 . S
C5433 C5432 1.370 . S
C5433 C5437 1.408 . S
C5434 C5432 1.363 1_565 S
C5434 C5435 1.370 . S
C5434 C5438 1.524 . S
C5435 C5427 1.503 . S
C5435 C5434 1.370 . S
C5435 C5436 1.403 1_565 S
C5436 C5435 1.403 1_545 S
C5436 C5437 1.404 . S
C5436 C5439 1.539 . S
C5437 C5433 1.408 . S
C5437 C5436 1.404 . S
C5437 H5449 0.930 . S
C5438 C5434 1.524 . S
C5438 H5450 0.956 . S
C5438 H5451 0.961 . S
C5438 H5452 0.961 . S
C5439 C5436 1.539 . S
C5439 H5453 0.958 . S
C5439 H5454 0.961 . S
C5439 H5455 0.994 . S
H5440 C5424 0.931 . S
H5441 C5429 0.929 . S
H5442 C5430 0.960 . S
H5443 C5430 0.962 . S
H5444 C5430 0.960 . S
H5445 C5431 0.961 . S
H5446 C5431 0.961 . S
H5447 C5431 0.961 . S
H5448 C5432 0.931 . S
H5449 C5437 0.930 . S
H5450 C5438 0.956 . S
H5451 C5438 0.961 . S
H5452 C5438 0.961 . S
H5453 C5439 0.958 . S
H5454 C5439 0.961 . S
H5455 C5439 0.994 . S
C5456 C5457 1.391 . S
C5456 C5458 1.394 . S
C5456 H5472 0.931 . S
C5457 C5456 1.391 . S
C5457 C5461 1.376 . S
C5458 C5456 1.394 . S
C5458 C5459 1.369 . S
C5458 C5462 1.531 . S
C5459 C5458 1.369 . S
C5459 C5460 1.410 . S
C5459 C5467 1.503 . S
C5460 C5459 1.410 . S
C5460 C5461 1.392 . S
C5460 C5463 1.511 . S
C5461 C5457 1.376 . S
C5461 C5460 1.392 . S
C5461 H5473 0.929 . S
C5462 C5458 1.531 . S
C5462 H5474 0.960 . S
C5462 H5475 0.962 . S
C5462 H5476 0.960 . S
C5463 C5460 1.511 . S
C5463 H5477 0.961 . S
C5463 H5478 0.961 . S
C5463 H5479 0.961 . S
C5464 C5465 1.370 . S
C5464 C5466 1.363 . S
C5464 H5480 0.931 . S
C5465 C5464 1.370 . S
C5465 C5469 1.408 . S
C5466 C5464 1.363 . S
C5466 C5467 1.370 . S
C5466 C5470 1.524 . S
C5467 C5459 1.503 . S
C5467 C5466 1.370 . S
C5467 C5468 1.403 . S
C5468 C5467 1.403 . S
C5468 C5469 1.404 . S
C5468 C5471 1.539 . S
C5469 C5465 1.408 . S
C5469 C5468 1.404 . S
C5469 H5481 0.930 . S
C5470 C5466 1.524 . S
C5470 H5482 0.956 . S
C5470 H5483 0.961 . S
C5470 H5484 0.961 . S
C5471 C5468 1.539 . S
C5471 H5485 0.958 . S
C5471 H5486 0.961 . S
C5471 H5487 0.960 . S
H5472 C5456 0.931 . S
H5473 C5461 0.929 . S
H5474 C5462 0.960 . S
H5475 C5462 0.962 . S
H5476 C5462 0.960 . S
H5477 C5463 0.961 . S
H5478 C5463 0.961 . S
H5479 C5463 0.961 . S
H5480 C5464 0.931 . S
H5481 C5469 0.930 . S
H5482 C5470 0.956 . S
H5483 C5470 0.961 . S
H5484 C5470 0.961 . S
H5485 C5471 0.958 . S
H5486 C5471 0.961 . S
H5487 C5471 0.960 . S
C5488 C5489 1.391 . S
C5488 C5490 1.394 . S
C5488 H5504 0.931 . S
C5489 C5488 1.391 . S
C5489 C5493 1.376 . S
C5490 C5488 1.394 . S
C5490 C5491 1.369 . S
C5490 C5494 1.531 . S
C5491 C5490 1.369 . S
C5491 C5492 1.410 . S
C5491 C5499 1.503 . S
C5492 C5491 1.410 . S
C5492 C5493 1.392 . S
C5492 C5495 1.511 . S
C5493 C5489 1.376 . S
C5493 C5492 1.392 . S
C5493 H5505 0.929 . S
C5494 C5490 1.531 . S
C5494 H5506 0.960 . S
C5494 H5507 0.962 . S
C5494 H5508 0.960 . S
C5495 C5492 1.511 . S
C5495 H5509 0.961 . S
C5495 H5510 0.961 . S
C5495 H5511 0.961 . S
C5496 C5497 1.370 . S
C5496 C5498 1.363 . S
C5496 H5512 0.931 . S
C5497 C5496 1.370 . S
C5497 C5501 1.408 . S
C5498 C5496 1.363 . S
C5498 C5499 1.370 . S
C5498 C5502 1.524 . S
C5499 C5491 1.503 . S
C5499 C5498 1.370 . S
C5499 C5500 1.403 . S
C5500 C5499 1.403 . S
C5500 C5501 1.404 . S
C5500 C5503 1.539 . S
C5501 C5497 1.408 . S
C5501 C5500 1.404 . S
C5501 H5513 0.930 . S
C5502 C5498 1.524 . S
C5502 H5514 0.956 . S
C5502 H5515 0.961 . S
C5502 H5516 0.961 . S
C5503 C5500 1.539 . S
C5503 H5517 0.958 . S
C5503 H5518 0.961 . S
C5503 H5519 0.960 . S
H5504 C5488 0.931 . S
H5505 C5493 0.929 . S
H5506 C5494 0.960 . S
H5507 C5494 0.962 . S
H5508 C5494 0.960 . S
H5509 C5495 0.961 . S
H5510 C5495 0.961 . S
H5511 C5495 0.961 . S
H5512 C5496 0.931 . S
H5513 C5501 0.930 . S
H5514 C5502 0.956 . S
H5515 C5502 0.961 . S
H5516 C5502 0.961 . S
H5517 C5503 0.958 . S
H5518 C5503 0.961 . S
H5519 C5503 0.960 . S
C5520 C5521 1.391 . S
C5520 C5522 1.394 . S
C5520 H5536 0.931 . S
C5521 C5520 1.391 . S
C5521 C5525 1.376 . S
C5522 C5520 1.394 . S
C5522 C5523 1.369 . S
C5522 C5526 1.531 . S
C5523 C5522 1.369 . S
C5523 C5524 1.410 . S
C5523 C5531 1.503 . S
C5524 C5523 1.410 . S
C5524 C5525 1.392 . S
C5524 C5527 1.511 . S
C5525 C5521 1.376 . S
C5525 C5524 1.392 . S
C5525 H5537 0.929 . S
C5526 C5522 1.531 . S
C5526 H5538 0.960 . S
C5526 H5539 0.962 . S
C5526 H5540 0.960 . S
C5527 C5524 1.511 . S
C5527 H5541 0.961 . S
C5527 H5542 0.961 . S
C5527 H5543 0.961 . S
C5528 C5529 1.370 . S
C5528 C5530 1.363 . S
C5528 H5544 0.931 . S
C5529 C5528 1.370 . S
C5529 C5533 1.408 . S
C5530 C5528 1.363 . S
C5530 C5531 1.370 . S
C5530 C5534 1.524 . S
C5531 C5523 1.503 . S
C5531 C5530 1.370 . S
C5531 C5532 1.403 . S
C5532 C5531 1.403 . S
C5532 C5533 1.404 . S
C5532 C5535 1.539 . S
C5533 C5529 1.408 . S
C5533 C5532 1.404 . S
C5533 H5545 0.930 . S
C5534 C5530 1.524 . S
C5534 H5546 0.956 . S
C5534 H5547 0.961 . S
C5534 H5548 0.961 . S
C5535 C5532 1.539 . S
C5535 H5549 0.958 . S
C5535 H5550 0.961 . S
C5535 H5551 0.960 . S
H5536 C5520 0.931 . S
H5537 C5525 0.929 . S
H5538 C5526 0.960 . S
H5539 C5526 0.962 . S
H5540 C5526 0.960 . S
H5541 C5527 0.961 . S
H5542 C5527 0.961 . S
H5543 C5527 0.961 . S
H5544 C5528 0.931 . S
H5545 C5533 0.930 . S
H5546 C5534 0.956 . S
H5547 C5534 0.961 . S
H5548 C5534 0.961 . S
H5549 C5535 0.958 . S
H5550 C5535 0.961 . S
H5551 C5535 0.960 . S
C5552 C5553 1.391 . S
C5552 C5554 1.394 . S
C5552 H5568 0.931 . S
C5553 C5552 1.391 . S
C5553 C5557 1.376 . S
C5554 C5552 1.394 . S
C5554 C5555 1.369 . S
C5554 C5558 1.531 . S
C5555 C5554 1.369 . S
C5555 C5556 1.410 . S
C5555 C5563 1.503 . S
C5556 C5555 1.410 . S
C5556 C5557 1.392 . S
C5556 C5559 1.511 . S
C5557 C5553 1.376 . S
C5557 C5556 1.392 . S
C5557 H5569 0.929 . S
C5558 C5554 1.531 . S
C5558 H5570 0.960 . S
C5558 H5571 0.962 . S
C5558 H5572 0.960 . S
C5559 C5556 1.511 . S
C5559 H5573 0.961 . S
C5559 H5574 0.961 . S
C5559 H5575 0.961 . S
C5560 C5561 1.370 . S
C5560 C5562 1.363 . S
C5560 H5576 0.931 . S
C5561 C5560 1.370 . S
C5561 C5565 1.408 . S
C5562 C5560 1.363 . S
C5562 C5563 1.370 . S
C5562 C5566 1.524 . S
C5563 C5555 1.503 . S
C5563 C5562 1.370 . S
C5563 C5564 1.403 . S
C5564 C5563 1.403 . S
C5564 C5565 1.404 . S
C5564 C5567 1.539 . S
C5565 C5561 1.408 . S
C5565 C5564 1.404 . S
C5565 H5577 0.930 . S
C5566 C5562 1.524 . S
C5566 H5578 0.956 . S
C5566 H5579 0.961 . S
C5566 H5580 0.961 . S
C5567 C5564 1.539 . S
C5567 H5581 0.958 . S
C5567 H5582 0.961 . S
C5567 H5583 0.960 . S
H5568 C5552 0.931 . S
H5569 C5557 0.929 . S
H5570 C5558 0.960 . S
H5571 C5558 0.962 . S
H5572 C5558 0.960 . S
H5573 C5559 0.961 . S
H5574 C5559 0.961 . S
H5575 C5559 0.961 . S
H5576 C5560 0.931 . S
H5577 C5565 0.930 . S
H5578 C5566 0.956 . S
H5579 C5566 0.961 . S
H5580 C5566 0.961 . S
H5581 C5567 0.958 . S
H5582 C5567 0.961 . S
H5583 C5567 0.960 . S
C5584 C5585 1.391 . S
C5584 C5586 1.394 . S
C5584 H5600 0.931 . S
C5585 C5584 1.391 . S
C5585 C5589 1.376 . S
C5586 C5584 1.394 . S
C5586 C5587 1.369 . S
C5586 C5590 1.531 . S
C5587 C5586 1.369 . S
C5587 C5588 1.410 . S
C5587 C5595 1.503 . S
C5588 C5587 1.410 . S
C5588 C5589 1.392 . S
C5588 C5591 1.511 . S
C5589 C5585 1.376 . S
C5589 C5588 1.392 . S
C5589 H5601 0.929 . S
C5590 C5586 1.531 . S
C5590 H5602 0.960 . S
C5590 H5603 0.962 . S
C5590 H5604 0.960 . S
C5591 C5588 1.511 . S
C5591 H5605 0.961 . S
C5591 H5606 0.961 . S
C5591 H5607 0.961 . S
C5592 C5593 1.370 . S
C5592 C5594 1.363 . S
C5592 H5608 0.931 . S
C5593 C5592 1.370 . S
C5593 C5597 1.408 . S
C5594 C5592 1.363 . S
C5594 C5595 1.370 . S
C5594 C5598 1.524 . S
C5595 C5587 1.503 . S
C5595 C5594 1.370 . S
C5595 C5596 1.403 . S
C5596 C5595 1.403 . S
C5596 C5597 1.404 . S
C5596 C5599 1.539 . S
C5597 C5593 1.408 . S
C5597 C5596 1.404 . S
C5597 H5609 0.930 . S
C5598 C5594 1.524 . S
C5598 H5610 0.956 . S
C5598 H5611 0.961 . S
C5598 H5612 0.961 . S
C5599 C5596 1.539 . S
C5599 H5613 0.958 . S
C5599 H5614 0.961 . S
C5599 H5615 0.960 . S
H5600 C5584 0.931 . S
H5601 C5589 0.929 . S
H5602 C5590 0.960 . S
H5603 C5590 0.962 . S
H5604 C5590 0.960 . S
H5605 C5591 0.961 . S
H5606 C5591 0.961 . S
H5607 C5591 0.961 . S
H5608 C5592 0.931 . S
H5609 C5597 0.930 . S
H5610 C5598 0.956 . S
H5611 C5598 0.961 . S
H5612 C5598 0.961 . S
H5613 C5599 0.958 . S
H5614 C5599 0.961 . S
H5615 C5599 0.960 . S
C5616 C5617 1.391 . S
C5616 C5618 1.394 . S
C5616 H5632 0.931 . S
C5617 C5616 1.391 . S
C5617 C5621 1.376 . S
C5618 C5616 1.394 . S
C5618 C5619 1.369 . S
C5618 C5622 1.531 . S
C5619 C5618 1.369 . S
C5619 C5620 1.410 . S
C5619 C5627 1.503 . S
C5620 C5619 1.410 . S
C5620 C5621 1.392 . S
C5620 C5623 1.511 . S
C5621 C5617 1.376 . S
C5621 C5620 1.392 . S
C5621 H5633 0.929 . S
C5622 C5618 1.531 . S
C5622 H5634 0.960 . S
C5622 H5635 0.962 . S
C5622 H5636 0.960 . S
C5623 C5620 1.511 . S
C5623 H5637 0.961 . S
C5623 H5638 0.961 . S
C5623 H5639 0.961 . S
C5624 C5625 1.370 . S
C5624 C5626 1.363 . S
C5624 H5640 0.931 . S
C5625 C5624 1.370 . S
C5625 C5629 1.408 . S
C5626 C5624 1.363 . S
C5626 C5627 1.370 . S
C5626 C5630 1.524 . S
C5627 C5619 1.503 . S
C5627 C5626 1.370 . S
C5627 C5628 1.403 . S
C5628 C5627 1.403 . S
C5628 C5629 1.404 . S
C5628 C5631 1.539 . S
C5629 C5625 1.408 . S
C5629 C5628 1.404 . S
C5629 H5641 0.930 . S
C5630 C5626 1.524 . S
C5630 H5642 0.956 . S
C5630 H5643 0.961 . S
C5630 H5644 0.961 . S
C5631 C5628 1.539 . S
C5631 H5645 0.958 . S
C5631 H5646 0.961 . S
C5631 H5647 0.960 . S
H5632 C5616 0.931 . S
H5633 C5621 0.929 . S
H5634 C5622 0.960 . S
H5635 C5622 0.962 . S
H5636 C5622 0.960 . S
H5637 C5623 0.961 . S
H5638 C5623 0.961 . S
H5639 C5623 0.961 . S
H5640 C5624 0.931 . S
H5641 C5629 0.930 . S
H5642 C5630 0.956 . S
H5643 C5630 0.961 . S
H5644 C5630 0.961 . S
H5645 C5631 0.958 . S
H5646 C5631 0.961 . S
H5647 C5631 0.960 . S
C5648 C5649 1.391 . S
C5648 C5650 1.394 . S
C5648 H5664 0.931 . S
C5649 C5648 1.391 . S
C5649 C5653 1.376 . S
C5650 C5648 1.394 . S
C5650 C5651 1.369 . S
C5650 C5654 1.531 . S
C5651 C5650 1.369 . S
C5651 C5652 1.410 . S
C5651 C5659 1.503 . S
C5652 C5651 1.410 . S
C5652 C5653 1.392 . S
C5652 C5655 1.511 . S
C5653 C5649 1.376 . S
C5653 C5652 1.392 . S
C5653 H5665 0.929 . S
C5654 C5650 1.531 . S
C5654 H5666 0.960 . S
C5654 H5667 0.962 . S
C5654 H5668 0.960 . S
C5655 C5652 1.511 . S
C5655 H5669 0.961 . S
C5655 H5670 0.961 . S
C5655 H5671 0.961 . S
C5656 C5657 1.370 . S
C5656 C5658 1.363 . S
C5656 H5672 0.931 . S
C5657 C5656 1.370 . S
C5657 C5661 1.408 . S
C5658 C5656 1.363 . S
C5658 C5659 1.370 . S
C5658 C5662 1.524 . S
C5659 C5651 1.503 . S
C5659 C5658 1.370 . S
C5659 C5660 1.403 . S
C5660 C5659 1.403 . S
C5660 C5661 1.404 . S
C5660 C5663 1.539 . S
C5661 C5657 1.408 . S
C5661 C5660 1.404 . S
C5661 H5673 0.930 . S
C5662 C5658 1.524 . S
C5662 H5674 0.956 . S
C5662 H5675 0.961 . S
C5662 H5676 0.961 . S
C5663 C5660 1.539 . S
C5663 H5677 0.958 . S
C5663 H5678 0.961 . S
C5663 H5679 0.960 . S
H5664 C5648 0.931 . S
H5665 C5653 0.929 . S
H5666 C5654 0.960 . S
H5667 C5654 0.962 . S
H5668 C5654 0.960 . S
H5669 C5655 0.961 . S
H5670 C5655 0.961 . S
H5671 C5655 0.961 . S
H5672 C5656 0.931 . S
H5673 C5661 0.930 . S
H5674 C5662 0.956 . S
H5675 C5662 0.961 . S
H5676 C5662 0.961 . S
H5677 C5663 0.958 . S
H5678 C5663 0.961 . S
H5679 C5663 0.960 . S
C5680 C5681 1.391 . S
C5680 C5682 1.394 . S
C5680 H5696 0.931 . S
C5681 C5680 1.391 . S
C5681 C5685 1.376 . S
C5682 C5680 1.394 . S
C5682 C5683 1.369 . S
C5682 C5686 1.531 . S
C5683 C5682 1.369 . S
C5683 C5684 1.410 . S
C5683 C5691 1.503 . S
C5684 C5683 1.410 . S
C5684 C5685 1.392 . S
C5684 C5687 1.511 . S
C5685 C5681 1.376 . S
C5685 C5684 1.392 . S
C5685 H5697 0.929 . S
C5686 C5682 1.531 . S
C5686 H5698 0.960 . S
C5686 H5699 0.962 . S
C5686 H5700 0.960 . S
C5687 C5684 1.511 . S
C5687 H5701 0.961 . S
C5687 H5702 0.961 . S
C5687 H5703 0.961 . S
C5688 C5689 1.370 . S
C5688 C5690 1.363 . S
C5688 H5704 0.931 . S
C5689 C5688 1.370 . S
C5689 C5693 1.408 . S
C5690 C5688 1.363 . S
C5690 C5691 1.370 . S
C5690 C5694 1.524 . S
C5691 C5683 1.503 . S
C5691 C5690 1.370 . S
C5691 C5692 1.403 . S
C5692 C5691 1.403 . S
C5692 C5693 1.404 . S
C5692 C5695 1.539 . S
C5693 C5689 1.408 . S
C5693 C5692 1.404 . S
C5693 H5705 0.930 . S
C5694 C5690 1.524 . S
C5694 H5706 0.956 . S
C5694 H5707 0.961 . S
C5694 H5708 0.961 . S
C5695 C5692 1.539 . S
C5695 H5709 0.958 . S
C5695 H5710 0.961 . S
C5695 H5711 0.960 . S
H5696 C5680 0.931 . S
H5697 C5685 0.929 . S
H5698 C5686 0.960 . S
H5699 C5686 0.962 . S
H5700 C5686 0.960 . S
H5701 C5687 0.961 . S
H5702 C5687 0.961 . S
H5703 C5687 0.961 . S
H5704 C5688 0.931 . S
H5705 C5693 0.930 . S
H5706 C5694 0.956 . S
H5707 C5694 0.961 . S
H5708 C5694 0.961 . S
H5709 C5695 0.958 . S
H5710 C5695 0.961 . S
H5711 C5695 0.960 . S
C5712 C5713 1.391 . S
C5712 C5714 1.394 . S
C5712 H5728 0.931 . S
C5713 C5712 1.391 . S
C5713 C5717 1.376 . S
C5714 C5712 1.394 . S
C5714 C5715 1.369 . S
C5714 C5718 1.531 . S
C5715 C5714 1.369 . S
C5715 C5716 1.410 . S
C5715 C5723 1.503 . S
C5716 C5715 1.410 . S
C5716 C5717 1.392 . S
C5716 C5719 1.511 . S
C5717 C5713 1.376 . S
C5717 C5716 1.392 . S
C5717 H5729 0.929 . S
C5718 C5714 1.531 . S
C5718 H5730 0.960 . S
C5718 H5731 0.962 . S
C5718 H5732 0.960 . S
C5719 C5716 1.511 . S
C5719 H5733 0.961 . S
C5719 H5734 0.961 . S
C5719 H5735 0.961 . S
C5720 C5721 1.370 . S
C5720 C5722 1.363 . S
C5720 H5736 0.931 . S
C5721 C5720 1.370 . S
C5721 C5725 1.408 . S
C5722 C5720 1.363 . S
C5722 C5723 1.370 . S
C5722 C5726 1.524 . S
C5723 C5715 1.503 . S
C5723 C5722 1.370 . S
C5723 C5724 1.403 . S
C5724 C5723 1.403 . S
C5724 C5725 1.404 . S
C5724 C5727 1.539 . S
C5725 C5721 1.408 . S
C5725 C5724 1.404 . S
C5725 H5737 0.930 . S
C5726 C5722 1.524 . S
C5726 H5738 0.956 . S
C5726 H5739 0.961 . S
C5726 H5740 0.961 . S
C5727 C5724 1.539 . S
C5727 H5741 0.958 . S
C5727 H5742 0.961 . S
C5727 H5743 0.960 . S
H5728 C5712 0.931 . S
H5729 C5717 0.929 . S
H5730 C5718 0.960 . S
H5731 C5718 0.962 . S
H5732 C5718 0.960 . S
H5733 C5719 0.961 . S
H5734 C5719 0.961 . S
H5735 C5719 0.961 . S
H5736 C5720 0.931 . S
H5737 C5725 0.930 . S
H5738 C5726 0.956 . S
H5739 C5726 0.961 . S
H5740 C5726 0.961 . S
H5741 C5727 0.958 . S
H5742 C5727 0.961 . S
H5743 C5727 0.960 . S
C5744 C5745 1.391 . S
C5744 C5746 1.394 . S
C5744 H5760 0.931 . S
C5745 C5744 1.391 . S
C5745 C5749 1.376 . S
C5746 C5744 1.394 . S
C5746 C5747 1.369 . S
C5746 C5750 1.531 . S
C5747 C5746 1.369 . S
C5747 C5748 1.410 . S
C5747 C5755 1.503 . S
C5748 C5747 1.410 . S
C5748 C5749 1.392 . S
C5748 C5751 1.511 . S
C5749 C5745 1.376 . S
C5749 C5748 1.392 . S
C5749 H5761 0.929 . S
C5750 C5746 1.531 . S
C5750 H5762 0.960 . S
C5750 H5763 0.962 . S
C5750 H5764 0.960 . S
C5751 C5748 1.511 . S
C5751 H5765 0.961 . S
C5751 H5766 0.961 . S
C5751 H5767 0.961 . S
C5752 C5753 1.370 . S
C5752 C5754 1.363 . S
C5752 H5768 0.931 . S
C5753 C5752 1.370 . S
C5753 C5757 1.408 . S
C5754 C5752 1.363 . S
C5754 C5755 1.370 . S
C5754 C5758 1.524 . S
C5755 C5747 1.503 . S
C5755 C5754 1.370 . S
C5755 C5756 1.403 . S
C5756 C5755 1.403 . S
C5756 C5757 1.404 . S
C5756 C5759 1.539 . S
C5757 C5753 1.408 . S
C5757 C5756 1.404 . S
C5757 H5769 0.930 . S
C5758 C5754 1.524 . S
C5758 H5770 0.956 . S
C5758 H5771 0.961 . S
C5758 H5772 0.961 . S
C5759 C5756 1.539 . S
C5759 H5773 0.958 . S
C5759 H5774 0.961 . S
C5759 H5775 0.960 . S
H5760 C5744 0.931 . S
H5761 C5749 0.929 . S
H5762 C5750 0.960 . S
H5763 C5750 0.962 . S
H5764 C5750 0.960 . S
H5765 C5751 0.961 . S
H5766 C5751 0.961 . S
H5767 C5751 0.961 . S
H5768 C5752 0.931 . S
H5769 C5757 0.930 . S
H5770 C5758 0.956 . S
H5771 C5758 0.961 . S
H5772 C5758 0.961 . S
H5773 C5759 0.958 . S
H5774 C5759 0.961 . S
H5775 C5759 0.960 . S
C5776 C5777 1.391 . S
C5776 C5778 1.394 . S
C5776 H5792 0.931 . S
C5777 C5776 1.391 . S
C5777 C5781 1.376 . S
C5778 C5776 1.394 . S
C5778 C5779 1.369 . S
C5778 C5782 1.531 . S
C5779 C5778 1.369 . S
C5779 C5780 1.410 . S
C5779 C5787 1.503 . S
C5780 C5779 1.410 . S
C5780 C5781 1.392 . S
C5780 C5783 1.511 . S
C5781 C5777 1.376 . S
C5781 C5780 1.392 . S
C5781 H5793 0.929 . S
C5782 C5778 1.531 . S
C5782 H5794 0.960 . S
C5782 H5795 0.962 . S
C5782 H5796 0.960 . S
C5783 C5780 1.511 . S
C5783 H5797 0.961 . S
C5783 H5798 0.961 . S
C5783 H5799 0.961 . S
C5784 C5785 1.370 . S
C5784 C5786 1.363 . S
C5784 H5800 0.931 . S
C5785 C5784 1.370 . S
C5785 C5789 1.408 . S
C5786 C5784 1.363 . S
C5786 C5787 1.370 . S
C5786 C5790 1.524 . S
C5787 C5779 1.503 . S
C5787 C5786 1.370 . S
C5787 C5788 1.403 . S
C5788 C5787 1.403 . S
C5788 C5789 1.404 . S
C5788 C5791 1.539 . S
C5789 C5785 1.408 . S
C5789 C5788 1.404 . S
C5789 H5801 0.930 . S
C5790 C5786 1.524 . S
C5790 H5802 0.956 . S
C5790 H5803 0.961 . S
C5790 H5804 0.961 . S
C5791 C5788 1.539 . S
C5791 H5805 0.958 . S
C5791 H5806 0.961 . S
C5791 H5807 0.960 . S
H5792 C5776 0.931 . S
H5793 C5781 0.929 . S
H5794 C5782 0.960 . S
H5795 C5782 0.962 . S
H5796 C5782 0.960 . S
H5797 C5783 0.961 . S
H5798 C5783 0.961 . S
H5799 C5783 0.961 . S
H5800 C5784 0.931 . S
H5801 C5789 0.930 . S
H5802 C5790 0.956 . S
H5803 C5790 0.961 . S
H5804 C5790 0.961 . S
H5805 C5791 0.958 . S
H5806 C5791 0.961 . S
H5807 C5791 0.960 . S
C5808 C5809 1.391 . S
C5808 C5810 1.394 . S
C5808 H5824 0.931 . S
C5809 C5808 1.391 . S
C5809 C5813 1.376 . S
C5810 C5808 1.394 . S
C5810 C5811 1.369 . S
C5810 C5814 1.531 . S
C5811 C5810 1.369 . S
C5811 C5812 1.410 . S
C5811 C5819 1.503 . S
C5812 C5811 1.410 . S
C5812 C5813 1.392 . S
C5812 C5815 1.511 . S
C5813 C5809 1.376 . S
C5813 C5812 1.392 . S
C5813 H5825 0.929 . S
C5814 C5810 1.531 . S
C5814 H5826 0.960 . S
C5814 H5827 0.962 . S
C5814 H5828 0.960 . S
C5815 C5812 1.511 . S
C5815 H5829 0.961 . S
C5815 H5830 0.961 . S
C5815 H5831 0.961 . S
C5816 C5817 1.370 . S
C5816 C5818 1.363 . S
C5816 H5832 0.931 . S
C5817 C5816 1.370 . S
C5817 C5821 1.408 . S
C5818 C5816 1.363 . S
C5818 C5819 1.370 . S
C5818 C5822 1.524 . S
C5819 C5811 1.503 . S
C5819 C5818 1.370 . S
C5819 C5820 1.403 . S
C5820 C5819 1.403 . S
C5820 C5821 1.404 . S
C5820 C5823 1.539 . S
C5821 C5817 1.408 . S
C5821 C5820 1.404 . S
C5821 H5833 0.930 . S
C5822 C5818 1.524 . S
C5822 H5834 0.956 . S
C5822 H5835 0.961 . S
C5822 H5836 0.961 . S
C5823 C5820 1.539 . S
C5823 H5837 0.958 . S
C5823 H5838 0.961 . S
C5823 H5839 0.960 . S
H5824 C5808 0.931 . S
H5825 C5813 0.929 . S
H5826 C5814 0.960 . S
H5827 C5814 0.962 . S
H5828 C5814 0.960 . S
H5829 C5815 0.961 . S
H5830 C5815 0.961 . S
H5831 C5815 0.961 . S
H5832 C5816 0.931 . S
H5833 C5821 0.930 . S
H5834 C5822 0.956 . S
H5835 C5822 0.961 . S
H5836 C5822 0.961 . S
H5837 C5823 0.958 . S
H5838 C5823 0.961 . S
H5839 C5823 0.960 . S
C5840 C5841 1.391 . S
C5840 C5842 1.394 . S
C5840 H5856 0.931 . S
C5841 C5840 1.391 . S
C5841 C5845 1.376 . S
C5842 C5840 1.394 . S
C5842 C5843 1.369 . S
C5842 C5846 1.531 . S
C5843 C5842 1.369 . S
C5843 C5844 1.410 . S
C5843 C5851 1.503 . S
C5844 C5843 1.410 . S
C5844 C5845 1.392 . S
C5844 C5847 1.511 . S
C5845 C5841 1.376 . S
C5845 C5844 1.392 . S
C5845 H5857 0.929 1_655 S
C5846 C5842 1.531 . S
C5846 H5858 0.960 . S
C5846 H5859 0.962 . S
C5846 H5860 0.960 . S
C5847 C5844 1.511 . S
C5847 H5861 1.011 . S
C5847 H5862 0.961 . S
C5847 H5863 0.961 . S
C5848 C5849 1.370 . S
C5848 C5850 1.363 . S
C5848 H5864 0.931 . S
C5849 C5848 1.370 . S
C5849 C5853 1.408 . S
C5850 C5848 1.363 . S
C5850 C5851 1.370 . S
C5850 C5854 1.524 . S
C5851 C5843 1.503 . S
C5851 C5850 1.370 . S
C5851 C5852 1.403 . S
C5852 C5851 1.403 . S
C5852 C5853 1.404 . S
C5852 C5855 1.539 . S
C5853 C5849 1.408 . S
C5853 C5852 1.404 . S
C5853 H5865 0.930 . S
C5854 C5850 1.524 . S
C5854 H5866 0.956 . S
C5854 H5867 0.961 . S
C5854 H5868 0.961 . S
C5855 C5852 1.539 . S
C5855 H5869 0.958 . S
C5855 H5870 0.961 . S
C5855 H5871 0.960 . S
H5856 C5840 0.931 . S
H5857 C5845 0.929 1_455 S
H5858 C5846 0.960 . S
H5859 C5846 0.962 . S
H5860 C5846 0.960 . S
H5861 C5847 1.011 . S
H5862 C5847 0.961 . S
H5863 C5847 0.961 . S
H5864 C5848 0.931 . S
H5865 C5853 0.930 . S
H5866 C5854 0.956 . S
H5867 C5854 0.961 . S
H5868 C5854 0.961 . S
H5869 C5855 0.958 . S
H5870 C5855 0.961 . S
H5871 C5855 0.960 . S
C5872 C5873 1.391 . S
C5872 C5874 1.394 . S
C5872 H5888 0.931 . S
C5873 C5872 1.391 . S
C5873 C5877 1.376 . S
C5874 C5872 1.394 . S
C5874 C5875 1.369 . S
C5874 C5878 1.531 . S
C5875 C5874 1.369 . S
C5875 C5876 1.410 . S
C5875 C5883 1.503 . S
C5876 C5875 1.410 . S
C5876 C5877 1.392 . S
C5876 C5879 1.511 . S
C5877 C5873 1.376 . S
C5877 C5876 1.392 . S
C5877 H5889 0.929 . S
C5878 C5874 1.531 . S
C5878 H5890 0.960 . S
C5878 H5891 0.962 . S
C5878 H5892 0.960 . S
C5879 C5876 1.511 . S
C5879 H5893 0.961 . S
C5879 H5894 0.961 . S
C5879 H5895 0.961 . S
C5880 C5881 1.370 . S
C5880 C5882 1.363 . S
C5880 H5896 0.931 . S
C5881 C5880 1.370 . S
C5881 C5885 1.408 . S
C5882 C5880 1.363 . S
C5882 C5883 1.370 . S
C5882 C5886 1.524 . S
C5883 C5875 1.503 . S
C5883 C5882 1.370 . S
C5883 C5884 1.403 . S
C5884 C5883 1.403 . S
C5884 C5885 1.404 . S
C5884 C5887 1.539 . S
C5885 C5881 1.408 . S
C5885 C5884 1.404 . S
C5885 H5897 0.930 . S
C5886 C5882 1.524 . S
C5886 H5898 0.956 . S
C5886 H5899 0.961 . S
C5886 H5900 0.961 . S
C5887 C5884 1.539 . S
C5887 H5901 0.958 . S
C5887 H5902 0.961 . S
C5887 H5903 0.960 . S
H5888 C5872 0.931 . S
H5889 C5877 0.929 . S
H5890 C5878 0.960 . S
H5891 C5878 0.962 . S
H5892 C5878 0.960 . S
H5893 C5879 0.961 . S
H5894 C5879 0.961 . S
H5895 C5879 0.961 . S
H5896 C5880 0.931 . S
H5897 C5885 0.930 . S
H5898 C5886 0.956 . S
H5899 C5886 0.961 . S
H5900 C5886 0.961 . S
H5901 C5887 0.958 . S
H5902 C5887 0.961 . S
H5903 C5887 0.960 . S
C5904 C5905 1.391 . S
C5904 C5906 1.394 . S
C5904 H5920 0.931 . S
C5905 C5904 1.391 . S
C5905 C5909 1.376 . S
C5906 C5904 1.394 . S
C5906 C5907 1.369 . S
C5906 C5910 1.531 . S
C5907 C5906 1.369 . S
C5907 C5908 1.410 . S
C5907 C5915 1.503 . S
C5908 C5907 1.410 . S
C5908 C5909 1.392 . S
C5908 C5911 1.511 . S
C5909 C5905 1.376 . S
C5909 C5908 1.392 . S
C5909 H5921 0.929 . S
C5910 C5906 1.531 . S
C5910 H5922 0.960 . S
C5910 H5923 0.962 . S
C5910 H5924 0.960 . S
C5911 C5908 1.511 . S
C5911 H5925 0.961 . S
C5911 H5926 0.961 . S
C5911 H5927 0.961 . S
C5912 C5913 1.370 . S
C5912 C5914 1.363 . S
C5912 H5928 0.931 . S
C5913 C5912 1.370 . S
C5913 C5917 1.408 . S
C5914 C5912 1.363 . S
C5914 C5915 1.370 . S
C5914 C5918 1.524 . S
C5915 C5907 1.503 . S
C5915 C5914 1.370 . S
C5915 C5916 1.403 . S
C5916 C5915 1.403 . S
C5916 C5917 1.404 . S
C5916 C5919 1.539 . S
C5917 C5913 1.408 . S
C5917 C5916 1.404 . S
C5917 H5929 0.930 . S
C5918 C5914 1.524 . S
C5918 H5930 0.956 . S
C5918 H5931 0.961 . S
C5918 H5932 0.961 . S
C5919 C5916 1.539 . S
C5919 H5933 0.958 . S
C5919 H5934 0.961 . S
C5919 H5935 0.960 . S
H5920 C5904 0.931 . S
H5921 C5909 0.929 . S
H5922 C5910 0.960 . S
H5923 C5910 0.962 . S
H5924 C5910 0.960 . S
H5925 C5911 0.961 . S
H5926 C5911 0.961 . S
H5927 C5911 0.961 . S
H5928 C5912 0.931 . S
H5929 C5917 0.930 . S
H5930 C5918 0.956 . S
H5931 C5918 0.961 . S
H5932 C5918 0.961 . S
H5933 C5919 0.958 . S
H5934 C5919 0.961 . S
H5935 C5919 0.960 . S
C5936 C5937 1.391 . S
C5936 C5938 1.394 . S
C5936 H5952 0.931 . S
C5937 C5936 1.391 . S
C5937 C5941 1.376 1_556 S
C5938 C5936 1.394 . S
C5938 C5939 1.369 . S
C5938 C5942 1.531 . S
C5939 C5938 1.369 . S
C5939 C5940 1.410 . S
C5939 C5947 1.503 . S
C5940 C5939 1.410 . S
C5940 C5941 1.392 1_556 S
C5940 C5943 1.511 1_556 S
C5941 C5937 1.376 1_554 S
C5941 C5940 1.392 1_554 S
C5941 H5953 0.929 . S
C5942 C5938 1.531 . S
C5942 H5954 0.960 . S
C5942 H5955 0.962 . S
C5942 H5956 0.960 . S
C5943 C5940 1.511 1_554 S
C5943 H5957 0.961 . S
C5943 H5958 0.961 . S
C5943 H5959 0.961 . S
C5944 C5945 1.370 . S
C5944 C5946 1.363 . S
C5944 H5960 0.931 . S
C5945 C5944 1.370 . S
C5945 C5949 1.408 . S
C5946 C5944 1.363 . S
C5946 C5947 1.370 . S
C5946 C5950 1.524 . S
C5947 C5939 1.503 . S
C5947 C5946 1.370 . S
C5947 C5948 1.403 . S
C5948 C5947 1.403 . S
C5948 C5949 1.404 . S
C5948 C5951 1.539 . S
C5949 C5945 1.408 . S
C5949 C5948 1.404 . S
C5949 H5961 0.930 . S
C5950 C5946 1.524 . S
C5950 H5962 0.956 . S
C5950 H5963 0.961 . S
C5950 H5964 0.961 . S
C5951 C5948 1.539 . S
C5951 H5965 0.958 . S
C5951 H5966 0.961 . S
C5951 H5967 0.960 . S
H5952 C5936 0.931 . S
H5953 C5941 0.929 . S
H5954 C5942 0.960 . S
H5955 C5942 0.962 . S
H5956 C5942 0.960 . S
H5957 C5943 0.961 . S
H5958 C5943 0.961 . S
H5959 C5943 0.961 . S
H5960 C5944 0.931 . S
H5961 C5949 0.930 . S
H5962 C5950 0.956 . S
H5963 C5950 0.961 . S
H5964 C5950 0.961 . S
H5965 C5951 0.958 . S
H5966 C5951 0.961 . S
H5967 C5951 0.960 . S
C5968 C5969 1.391 . S
C5968 C5970 1.394 . S
C5968 H5984 0.931 . S
C5969 C5968 1.391 . S
C5969 C5973 1.376 . S
C5970 C5968 1.394 . S
C5970 C5971 1.369 . S
C5970 C5974 1.531 . S
C5971 C5970 1.369 . S
C5971 C5972 1.410 . S
C5971 C5979 1.503 . S
C5972 C5971 1.410 . S
C5972 C5973 1.392 . S
C5972 C5975 1.511 . S
C5973 C5969 1.376 . S
C5973 C5972 1.392 . S
C5973 H5985 0.929 . S
C5974 C5970 1.531 . S
C5974 H5986 0.960 . S
C5974 H5987 0.962 . S
C5974 H5988 0.960 . S
C5975 C5972 1.511 . S
C5975 H5989 0.961 . S
C5975 H5990 0.961 . S
C5975 H5991 0.961 . S
C5976 C5977 1.370 . S
C5976 C5978 1.363 . S
C5976 H5992 0.931 . S
C5977 C5976 1.370 . S
C5977 C5981 1.408 . S
C5978 C5976 1.363 . S
C5978 C5979 1.370 . S
C5978 C5982 1.524 . S
C5979 C5971 1.503 . S
C5979 C5978 1.370 . S
C5979 C5980 1.403 . S
C5980 C5979 1.403 . S
C5980 C5981 1.404 . S
C5980 C5983 1.539 . S
C5981 C5977 1.408 . S
C5981 C5980 1.404 . S
C5981 H5993 0.930 . S
C5982 C5978 1.524 . S
C5982 H5994 0.956 . S
C5982 H5995 0.961 . S
C5982 H5996 0.961 . S
C5983 C5980 1.539 . S
C5983 H5997 0.958 . S
C5983 H5998 0.961 . S
C5983 H5999 0.960 . S
H5984 C5968 0.931 . S
H5985 C5973 0.929 . S
H5986 C5974 0.960 . S
H5987 C5974 0.962 . S
H5988 C5974 0.960 . S
H5989 C5975 0.961 . S
H5990 C5975 0.961 . S
H5991 C5975 0.961 . S
H5992 C5976 0.931 . S
H5993 C5981 0.930 . S
H5994 C5982 0.956 . S
H5995 C5982 0.961 . S
H5996 C5982 0.961 . S
H5997 C5983 0.958 . S
H5998 C5983 0.961 . S
H5999 C5983 0.960 . S
C6000 C6001 1.391 . S
C6000 C6002 1.394 . S
C6000 H6016 0.931 . S
C6001 C6000 1.391 . S
C6001 C6005 1.376 . S
C6002 C6000 1.394 . S
C6002 C6003 1.369 . S
C6002 C6006 1.531 . S
C6003 C6002 1.369 . S
C6003 C6004 1.410 . S
C6003 C6011 1.503 . S
C6004 C6003 1.410 . S
C6004 C6005 1.392 . S
C6004 C6007 1.511 . S
C6005 C6001 1.376 . S
C6005 C6004 1.392 . S
C6005 H6017 0.929 . S
C6006 C6002 1.531 . S
C6006 H6018 0.960 . S
C6006 H6019 0.962 . S
C6006 H6020 0.960 . S
C6007 C6004 1.511 . S
C6007 H6021 0.961 . S
C6007 H6022 0.961 . S
C6007 H6023 0.961 . S
C6008 C6009 1.370 . S
C6008 C6010 1.363 . S
C6008 H6024 0.931 . S
C6009 C6008 1.370 . S
C6009 C6013 1.408 . S
C6010 C6008 1.363 . S
C6010 C6011 1.370 . S
C6010 C6014 1.524 . S
C6011 C6003 1.503 . S
C6011 C6010 1.370 . S
C6011 C6012 1.403 . S
C6012 C6011 1.403 . S
C6012 C6013 1.404 . S
C6012 C6015 1.539 . S
C6013 C6009 1.408 . S
C6013 C6012 1.404 . S
C6013 H6025 0.930 . S
C6014 C6010 1.524 . S
C6014 H6026 0.956 . S
C6014 H6027 0.961 . S
C6014 H6028 0.961 . S
C6015 C6012 1.539 . S
C6015 H6029 0.958 . S
C6015 H6030 0.961 . S
C6015 H6031 0.960 . S
H6016 C6000 0.931 . S
H6017 C6005 0.929 . S
H6018 C6006 0.960 . S
H6019 C6006 0.962 . S
H6020 C6006 0.960 . S
H6021 C6007 0.961 . S
H6022 C6007 0.961 . S
H6023 C6007 0.961 . S
H6024 C6008 0.931 . S
H6025 C6013 0.930 . S
H6026 C6014 0.956 . S
H6027 C6014 0.961 . S
H6028 C6014 0.961 . S
H6029 C6015 0.958 . S
H6030 C6015 0.961 . S
H6031 C6015 0.960 . S
C6032 C6033 1.391 . S
C6032 C6034 1.394 . S
C6032 H6048 0.931 . S
C6033 C6032 1.391 . S
C6033 C6037 1.376 . S
C6034 C6032 1.394 . S
C6034 C6035 1.369 . S
C6034 C6038 1.531 . S
C6035 C6034 1.369 . S
C6035 C6036 1.410 . S
C6035 C6043 1.503 . S
C6036 C6035 1.410 . S
C6036 C6037 1.392 . S
C6036 C6039 1.511 . S
C6037 C6033 1.376 . S
C6037 C6036 1.392 . S
C6037 H6049 0.929 . S
C6038 C6034 1.531 . S
C6038 H6050 0.960 . S
C6038 H6051 0.962 . S
C6038 H6052 0.960 . S
C6039 C6036 1.511 . S
C6039 H6053 0.961 . S
C6039 H6054 0.961 . S
C6039 H6055 0.961 . S
C6040 C6041 1.370 . S
C6040 C6042 1.363 . S
C6040 H6056 0.931 . S
C6041 C6040 1.370 . S
C6041 C6045 1.408 . S
C6042 C6040 1.363 . S
C6042 C6043 1.370 . S
C6042 C6046 1.524 . S
C6043 C6035 1.503 . S
C6043 C6042 1.370 . S
C6043 C6044 1.403 . S
C6044 C6043 1.403 . S
C6044 C6045 1.404 . S
C6044 C6047 1.539 . S
C6045 C6041 1.408 . S
C6045 C6044 1.404 . S
C6045 H6057 0.930 . S
C6046 C6042 1.524 . S
C6046 H6058 0.956 . S
C6046 H6059 0.961 . S
C6046 H6060 0.961 . S
C6047 C6044 1.539 . S
C6047 H6061 0.958 . S
C6047 H6062 0.961 . S
C6047 H6063 0.960 . S
H6048 C6032 0.931 . S
H6049 C6037 0.929 . S
H6050 C6038 0.960 . S
H6051 C6038 0.962 . S
H6052 C6038 0.960 . S
H6053 C6039 0.961 . S
H6054 C6039 0.961 . S
H6055 C6039 0.961 . S
H6056 C6040 0.931 . S
H6057 C6045 0.930 . S
H6058 C6046 0.956 . S
H6059 C6046 0.961 . S
H6060 C6046 0.961 . S
H6061 C6047 0.958 . S
H6062 C6047 0.961 . S
H6063 C6047 0.960 . S
C6064 C6065 1.391 . S
C6064 C6066 1.394 . S
C6064 H6080 0.931 . S
C6065 C6064 1.391 . S
C6065 C6069 1.376 . S
C6066 C6064 1.394 . S
C6066 C6067 1.369 . S
C6066 C6070 1.531 . S
C6067 C6066 1.369 . S
C6067 C6068 1.410 . S
C6067 C6075 1.503 . S
C6068 C6067 1.410 . S
C6068 C6069 1.392 . S
C6068 C6071 1.511 . S
C6069 C6065 1.376 . S
C6069 C6068 1.392 . S
C6069 H6081 0.929 . S
C6070 C6066 1.531 . S
C6070 H6082 0.960 . S
C6070 H6083 0.962 . S
C6070 H6084 0.960 . S
C6071 C6068 1.511 . S
C6071 H6085 0.961 . S
C6071 H6086 0.961 . S
C6071 H6087 0.961 . S
C6072 C6073 1.370 . S
C6072 C6074 1.363 . S
C6072 H6088 0.931 . S
C6073 C6072 1.370 . S
C6073 C6077 1.408 . S
C6074 C6072 1.363 . S
C6074 C6075 1.370 . S
C6074 C6078 1.524 . S
C6075 C6067 1.503 . S
C6075 C6074 1.370 . S
C6075 C6076 1.403 . S
C6076 C6075 1.403 . S
C6076 C6077 1.404 . S
C6076 C6079 1.539 . S
C6077 C6073 1.408 . S
C6077 C6076 1.404 . S
C6077 H6089 0.930 . S
C6078 C6074 1.524 . S
C6078 H6090 0.956 . S
C6078 H6091 0.961 . S
C6078 H6092 0.961 . S
C6079 C6076 1.539 . S
C6079 H6093 0.958 . S
C6079 H6094 0.961 . S
C6079 H6095 0.960 . S
H6080 C6064 0.931 . S
H6081 C6069 0.929 . S
H6082 C6070 0.960 . S
H6083 C6070 0.962 . S
H6084 C6070 0.960 . S
H6085 C6071 0.961 . S
H6086 C6071 0.961 . S
H6087 C6071 0.961 . S
H6088 C6072 0.931 . S
H6089 C6077 0.930 . S
H6090 C6078 0.956 . S
H6091 C6078 0.961 . S
H6092 C6078 0.961 . S
H6093 C6079 0.958 . S
H6094 C6079 0.961 . S
H6095 C6079 0.960 . S
C6096 C6097 1.391 . S
C6096 C6098 1.394 . S
C6096 H6112 0.931 . S
C6097 C6096 1.391 . S
C6097 C6101 1.376 . S
C6098 C6096 1.394 . S
C6098 C6099 1.369 . S
C6098 C6102 1.531 . S
C6099 C6098 1.369 . S
C6099 C6100 1.410 . S
C6099 C6107 1.503 . S
C6100 C6099 1.410 . S
C6100 C6101 1.392 . S
C6100 C6103 1.511 . S
C6101 C6097 1.376 . S
C6101 C6100 1.392 . S
C6101 H6113 0.929 . S
C6102 C6098 1.531 . S
C6102 H6114 0.960 . S
C6102 H6115 0.962 . S
C6102 H6116 0.960 . S
C6103 C6100 1.511 . S
C6103 H6117 0.961 . S
C6103 H6118 0.961 . S
C6103 H6119 0.961 . S
C6104 C6105 1.370 . S
C6104 C6106 1.363 . S
C6104 H6120 0.931 . S
C6105 C6104 1.370 . S
C6105 C6109 1.408 . S
C6106 C6104 1.363 . S
C6106 C6107 1.370 . S
C6106 C6110 1.524 . S
C6107 C6099 1.503 . S
C6107 C6106 1.370 . S
C6107 C6108 1.403 . S
C6108 C6107 1.403 . S
C6108 C6109 1.404 . S
C6108 C6111 1.539 . S
C6109 C6105 1.408 . S
C6109 C6108 1.404 . S
C6109 H6121 0.930 . S
C6110 C6106 1.524 . S
C6110 H6122 0.956 . S
C6110 H6123 0.961 . S
C6110 H6124 0.961 . S
C6111 C6108 1.539 . S
C6111 H6125 0.958 . S
C6111 H6126 0.961 . S
C6111 H6127 0.960 . S
H6112 C6096 0.931 . S
H6113 C6101 0.929 . S
H6114 C6102 0.960 . S
H6115 C6102 0.962 . S
H6116 C6102 0.960 . S
H6117 C6103 0.961 . S
H6118 C6103 0.961 . S
H6119 C6103 0.961 . S
H6120 C6104 0.931 . S
H6121 C6109 0.930 . S
H6122 C6110 0.956 . S
H6123 C6110 0.961 . S
H6124 C6110 0.961 . S
H6125 C6111 0.958 . S
H6126 C6111 0.961 . S
H6127 C6111 0.960 . S
C6128 C6129 1.391 . S
C6128 C6130 1.394 . S
C6128 H6144 0.931 . S
C6129 C6128 1.391 . S
C6129 C6133 1.376 . S
C6130 C6128 1.394 . S
C6130 C6131 1.369 . S
C6130 C6134 1.531 . S
C6131 C6130 1.369 . S
C6131 C6132 1.410 . S
C6131 C6139 1.503 . S
C6132 C6131 1.410 . S
C6132 C6133 1.392 . S
C6132 C6135 1.511 . S
C6133 C6129 1.376 . S
C6133 C6132 1.392 . S
C6133 H6145 0.929 . S
C6134 C6130 1.531 . S
C6134 H6146 0.960 . S
C6134 H6147 0.962 . S
C6134 H6148 0.960 . S
C6135 C6132 1.511 . S
C6135 H6149 0.961 . S
C6135 H6150 0.961 . S
C6135 H6151 0.961 . S
C6136 C6137 1.370 . S
C6136 C6138 1.363 . S
C6136 H6152 0.931 . S
C6137 C6136 1.370 . S
C6137 C6141 1.408 . S
C6138 C6136 1.363 . S
C6138 C6139 1.370 . S
C6138 C6142 1.524 . S
C6139 C6131 1.503 . S
C6139 C6138 1.370 . S
C6139 C6140 1.403 . S
C6140 C6139 1.403 . S
C6140 C6141 1.404 . S
C6140 C6143 1.539 . S
C6141 C6137 1.408 . S
C6141 C6140 1.404 . S
C6141 H6153 0.930 . S
C6142 C6138 1.524 . S
C6142 H6154 0.956 . S
C6142 H6155 0.961 . S
C6142 H6156 0.961 . S
C6143 C6140 1.539 . S
C6143 H6157 0.958 . S
C6143 H6158 0.961 . S
C6143 H6159 0.960 . S
H6144 C6128 0.931 . S
H6145 C6133 0.929 . S
H6146 C6134 0.960 . S
H6147 C6134 0.962 . S
H6148 C6134 0.960 . S
H6149 C6135 0.961 . S
H6150 C6135 0.961 . S
H6151 C6135 0.961 . S
H6152 C6136 0.931 . S
H6153 C6141 0.930 . S
H6154 C6142 0.956 . S
H6155 C6142 0.961 . S
H6156 C6142 0.961 . S
H6157 C6143 0.958 . S
H6158 C6143 0.961 . S
H6159 C6143 0.960 . S
C6160 C6161 1.391 . S
C6160 C6162 1.394 . S
C6160 H6176 0.931 . S
C6161 C6160 1.391 . S
C6161 C6165 1.376 . S
C6162 C6160 1.394 . S
C6162 C6163 1.369 . S
C6162 C6166 1.531 . S
C6163 C6162 1.369 . S
C6163 C6164 1.410 . S
C6163 C6171 1.503 . S
C6164 C6163 1.410 . S
C6164 C6165 1.392 . S
C6164 C6167 1.511 . S
C6165 C6161 1.376 . S
C6165 C6164 1.392 . S
C6165 H6177 0.929 . S
C6166 C6162 1.531 . S
C6166 H6178 0.960 . S
C6166 H6179 0.962 . S
C6166 H6180 0.960 . S
C6167 C6164 1.511 . S
C6167 H6181 0.961 . S
C6167 H6182 0.961 . S
C6167 H6183 0.961 . S
C6168 C6169 1.370 . S
C6168 C6170 1.363 . S
C6168 H6184 0.931 . S
C6169 C6168 1.370 . S
C6169 C6173 1.408 . S
C6170 C6168 1.363 . S
C6170 C6171 1.370 . S
C6170 C6174 1.524 . S
C6171 C6163 1.503 . S
C6171 C6170 1.370 . S
C6171 C6172 1.403 . S
C6172 C6171 1.403 . S
C6172 C6173 1.404 . S
C6172 C6175 1.539 . S
C6173 C6169 1.408 . S
C6173 C6172 1.404 . S
C6173 H6185 0.930 . S
C6174 C6170 1.524 . S
C6174 H6186 0.956 . S
C6174 H6187 0.961 . S
C6174 H6188 0.961 . S
C6175 C6172 1.539 . S
C6175 H6189 0.958 . S
C6175 H6190 0.961 . S
C6175 H6191 0.960 . S
H6176 C6160 0.931 . S
H6177 C6165 0.929 . S
H6178 C6166 0.960 . S
H6179 C6166 0.962 . S
H6180 C6166 0.960 . S
H6181 C6167 0.961 . S
H6182 C6167 0.961 . S
H6183 C6167 0.961 . S
H6184 C6168 0.931 . S
H6185 C6173 0.930 . S
H6186 C6174 0.956 . S
H6187 C6174 0.961 . S
H6188 C6174 0.961 . S
H6189 C6175 0.958 . S
H6190 C6175 0.961 . S
H6191 C6175 0.960 . S
C6192 C6193 1.391 . S
C6192 C6194 1.394 . S
C6192 H6208 0.931 . S
C6193 C6192 1.391 . S
C6193 C6197 1.376 . S
C6194 C6192 1.394 . S
C6194 C6195 1.369 . S
C6194 C6198 1.531 . S
C6195 C6194 1.369 . S
C6195 C6196 1.410 . S
C6195 C6203 1.503 . S
C6196 C6195 1.410 . S
C6196 C6197 1.392 . S
C6196 C6199 1.511 . S
C6197 C6193 1.376 . S
C6197 C6196 1.392 . S
C6197 H6209 0.929 . S
C6198 C6194 1.531 . S
C6198 H6210 0.960 . S
C6198 H6211 0.962 . S
C6198 H6212 0.960 . S
C6199 C6196 1.511 . S
C6199 H6213 0.961 . S
C6199 H6214 0.961 . S
C6199 H6215 0.961 . S
C6200 C6201 1.370 . S
C6200 C6202 1.363 . S
C6200 H6216 0.931 . S
C6201 C6200 1.370 . S
C6201 C6205 1.408 . S
C6202 C6200 1.363 . S
C6202 C6203 1.370 . S
C6202 C6206 1.524 . S
C6203 C6195 1.503 . S
C6203 C6202 1.370 . S
C6203 C6204 1.403 . S
C6204 C6203 1.403 . S
C6204 C6205 1.404 . S
C6204 C6207 1.539 . S
C6205 C6201 1.408 . S
C6205 C6204 1.404 . S
C6205 H6217 0.930 . S
C6206 C6202 1.524 . S
C6206 H6218 0.956 . S
C6206 H6219 0.961 . S
C6206 H6220 0.961 . S
C6207 C6204 1.539 . S
C6207 H6221 0.958 . S
C6207 H6222 0.961 . S
C6207 H6223 0.960 . S
H6208 C6192 0.931 . S
H6209 C6197 0.929 . S
H6210 C6198 0.960 . S
H6211 C6198 0.962 . S
H6212 C6198 0.960 . S
H6213 C6199 0.961 . S
H6214 C6199 0.961 . S
H6215 C6199 0.961 . S
H6216 C6200 0.931 . S
H6217 C6205 0.930 . S
H6218 C6206 0.956 . S
H6219 C6206 0.961 . S
H6220 C6206 0.961 . S
H6221 C6207 0.958 . S
H6222 C6207 0.961 . S
H6223 C6207 0.960 . S
C6224 C6225 1.391 . S
C6224 C6226 1.394 . S
C6224 H6240 0.931 . S
C6225 C6224 1.391 . S
C6225 C6229 1.376 . S
C6226 C6224 1.394 . S
C6226 C6227 1.369 . S
C6226 C6230 1.531 . S
C6227 C6226 1.369 . S
C6227 C6228 1.410 . S
C6227 C6235 1.503 . S
C6228 C6227 1.410 . S
C6228 C6229 1.392 . S
C6228 C6231 1.511 . S
C6229 C6225 1.376 . S
C6229 C6228 1.392 . S
C6229 H6241 0.929 . S
C6230 C6226 1.531 . S
C6230 H6242 0.960 . S
C6230 H6243 0.962 . S
C6230 H6244 0.960 . S
C6231 C6228 1.511 . S
C6231 H6245 0.961 . S
C6231 H6246 0.961 . S
C6231 H6247 0.961 . S
C6232 C6233 1.370 . S
C6232 C6234 1.363 . S
C6232 H6248 0.931 . S
C6233 C6232 1.370 . S
C6233 C6237 1.408 . S
C6234 C6232 1.363 . S
C6234 C6235 1.370 . S
C6234 C6238 1.524 . S
C6235 C6227 1.503 . S
C6235 C6234 1.370 . S
C6235 C6236 1.403 . S
C6236 C6235 1.403 . S
C6236 C6237 1.404 . S
C6236 C6239 1.539 . S
C6237 C6233 1.408 . S
C6237 C6236 1.404 . S
C6237 H6249 0.930 . S
C6238 C6234 1.524 . S
C6238 H6250 0.956 . S
C6238 H6251 0.961 . S
C6238 H6252 0.961 . S
C6239 C6236 1.539 . S
C6239 H6253 0.958 . S
C6239 H6254 0.961 . S
C6239 H6255 0.960 . S
H6240 C6224 0.931 . S
H6241 C6229 0.929 . S
H6242 C6230 0.960 . S
H6243 C6230 0.962 . S
H6244 C6230 0.960 . S
H6245 C6231 0.961 . S
H6246 C6231 0.961 . S
H6247 C6231 0.961 . S
H6248 C6232 0.931 . S
H6249 C6237 0.930 . S
H6250 C6238 0.956 . S
H6251 C6238 0.961 . S
H6252 C6238 0.961 . S
H6253 C6239 0.958 . S
H6254 C6239 0.961 . S
H6255 C6239 0.960 . S
C6256 C6257 1.391 . S
C6256 C6258 1.394 . S
C6256 H6272 0.931 . S
C6257 C6256 1.391 . S
C6257 C6261 1.376 . S
C6258 C6256 1.394 . S
C6258 C6259 1.369 . S
C6258 C6262 1.531 . S
C6259 C6258 1.369 . S
C6259 C6260 1.410 . S
C6259 C6267 1.503 . S
C6260 C6259 1.410 . S
C6260 C6261 1.392 . S
C6260 C6263 1.511 . S
C6261 C6257 1.376 . S
C6261 C6260 1.392 . S
C6261 H6273 0.929 . S
C6262 C6258 1.531 . S
C6262 H6274 0.960 . S
C6262 H6275 0.962 . S
C6262 H6276 0.960 . S
C6263 C6260 1.511 . S
C6263 H6277 0.961 . S
C6263 H6278 0.961 . S
C6263 H6279 0.961 . S
C6264 C6265 1.370 . S
C6264 C6266 1.363 . S
C6264 H6280 0.931 . S
C6265 C6264 1.370 . S
C6265 C6269 1.408 . S
C6266 C6264 1.363 . S
C6266 C6267 1.370 . S
C6266 C6270 1.524 . S
C6267 C6259 1.503 . S
C6267 C6266 1.370 . S
C6267 C6268 1.403 . S
C6268 C6267 1.403 . S
C6268 C6269 1.404 . S
C6268 C6271 1.539 . S
C6269 C6265 1.408 . S
C6269 C6268 1.404 . S
C6269 H6281 0.930 . S
C6270 C6266 1.524 . S
C6270 H6282 0.956 . S
C6270 H6283 0.961 . S
C6270 H6284 0.961 . S
C6271 C6268 1.539 . S
C6271 H6285 0.958 . S
C6271 H6286 0.961 . S
C6271 H6287 0.960 . S
H6272 C6256 0.931 . S
H6273 C6261 0.929 . S
H6274 C6262 0.960 . S
H6275 C6262 0.962 . S
H6276 C6262 0.960 . S
H6277 C6263 0.961 . S
H6278 C6263 0.961 . S
H6279 C6263 0.961 . S
H6280 C6264 0.931 . S
H6281 C6269 0.930 . S
H6282 C6270 0.956 . S
H6283 C6270 0.961 . S
H6284 C6270 0.961 . S
H6285 C6271 0.958 . S
H6286 C6271 0.961 . S
H6287 C6271 0.960 . S
C6288 C6289 1.391 . S
C6288 C6290 1.394 . S
C6288 H6304 0.931 . S
C6289 C6288 1.391 . S
C6289 C6293 1.376 . S
C6290 C6288 1.394 . S
C6290 C6291 1.369 . S
C6290 C6294 1.531 . S
C6291 C6290 1.369 . S
C6291 C6292 1.410 . S
C6291 C6299 1.503 . S
C6292 C6291 1.410 . S
C6292 C6293 1.392 . S
C6292 C6295 1.511 . S
C6293 C6289 1.376 . S
C6293 C6292 1.392 . S
C6293 H6305 0.929 . S
C6294 C6290 1.531 . S
C6294 H6306 0.960 . S
C6294 H6307 0.962 . S
C6294 H6308 0.960 . S
C6295 C6292 1.511 . S
C6295 H6309 0.961 . S
C6295 H6310 0.961 . S
C6295 H6311 0.961 . S
C6296 C6297 1.370 . S
C6296 C6298 1.363 . S
C6296 H6312 0.931 . S
C6297 C6296 1.370 . S
C6297 C6301 1.408 . S
C6298 C6296 1.363 . S
C6298 C6299 1.370 . S
C6298 C6302 1.524 . S
C6299 C6291 1.503 . S
C6299 C6298 1.370 . S
C6299 C6300 1.403 . S
C6300 C6299 1.403 . S
C6300 C6301 1.404 . S
C6300 C6303 1.539 . S
C6301 C6297 1.408 . S
C6301 C6300 1.404 . S
C6301 H6313 0.930 . S
C6302 C6298 1.524 . S
C6302 H6314 0.956 . S
C6302 H6315 0.961 . S
C6302 H6316 0.961 . S
C6303 C6300 1.539 . S
C6303 H6317 0.958 . S
C6303 H6318 0.961 . S
C6303 H6319 0.960 . S
H6304 C6288 0.931 . S
H6305 C6293 0.929 . S
H6306 C6294 0.960 . S
H6307 C6294 0.962 . S
H6308 C6294 0.960 . S
H6309 C6295 0.961 . S
H6310 C6295 0.961 . S
H6311 C6295 0.961 . S
H6312 C6296 0.931 . S
H6313 C6301 0.930 . S
H6314 C6302 0.956 . S
H6315 C6302 0.961 . S
H6316 C6302 0.961 . S
H6317 C6303 0.958 . S
H6318 C6303 0.961 . S
H6319 C6303 0.960 . S
C6320 C6321 1.391 . S
C6320 C6322 1.394 . S
C6320 H6336 0.931 . S
C6321 C6320 1.391 . S
C6321 C6325 1.376 . S
C6322 C6320 1.394 . S
C6322 C6323 1.369 . S
C6322 C6326 1.531 . S
C6323 C6322 1.369 . S
C6323 C6324 1.410 . S
C6323 C6331 1.503 . S
C6324 C6323 1.410 . S
C6324 C6325 1.392 . S
C6324 C6327 1.511 . S
C6325 C6321 1.376 . S
C6325 C6324 1.392 . S
C6325 H6337 0.929 . S
C6326 C6322 1.531 . S
C6326 H6338 0.960 . S
C6326 H6339 0.962 . S
C6326 H6340 0.960 . S
C6327 C6324 1.511 . S
C6327 H6341 0.961 . S
C6327 H6342 0.961 . S
C6327 H6343 0.961 . S
C6328 C6329 1.370 . S
C6328 C6330 1.363 . S
C6328 H6344 0.931 . S
C6329 C6328 1.370 . S
C6329 C6333 1.408 . S
C6330 C6328 1.363 . S
C6330 C6331 1.370 . S
C6330 C6334 1.524 . S
C6331 C6323 1.503 . S
C6331 C6330 1.370 . S
C6331 C6332 1.403 . S
C6332 C6331 1.403 . S
C6332 C6333 1.404 . S
C6332 C6335 1.539 . S
C6333 C6329 1.408 . S
C6333 C6332 1.404 . S
C6333 H6345 0.930 . S
C6334 C6330 1.524 . S
C6334 H6346 0.956 . S
C6334 H6347 0.961 . S
C6334 H6348 0.961 . S
C6335 C6332 1.539 . S
C6335 H6349 0.958 . S
C6335 H6350 0.961 . S
C6335 H6351 0.960 . S
H6336 C6320 0.931 . S
H6337 C6325 0.929 . S
H6338 C6326 0.960 . S
H6339 C6326 0.962 . S
H6340 C6326 0.960 . S
H6341 C6327 0.961 . S
H6342 C6327 0.961 . S
H6343 C6327 0.961 . S
H6344 C6328 0.931 . S
H6345 C6333 0.930 . S
H6346 C6334 0.956 . S
H6347 C6334 0.961 . S
H6348 C6334 0.961 . S
H6349 C6335 0.958 . S
H6350 C6335 0.961 . S
H6351 C6335 0.960 . S
C6352 C6353 1.391 . S
C6352 C6354 1.394 . S
C6352 H6368 0.931 . S
C6353 C6352 1.391 . S
C6353 C6357 1.376 . S
C6354 C6352 1.394 . S
C6354 C6355 1.369 . S
C6354 C6358 1.531 . S
C6355 C6354 1.369 . S
C6355 C6356 1.410 . S
C6355 C6363 1.503 . S
C6356 C6355 1.410 . S
C6356 C6357 1.392 . S
C6356 C6359 1.511 . S
C6357 C6353 1.376 . S
C6357 C6356 1.392 . S
C6357 H6369 0.929 . S
C6358 C6354 1.531 . S
C6358 H6370 0.960 . S
C6358 H6371 0.962 . S
C6358 H6372 0.960 . S
C6359 C6356 1.511 . S
C6359 H6373 0.961 . S
C6359 H6374 0.961 . S
C6359 H6375 0.961 . S
C6360 C6361 1.370 . S
C6360 C6362 1.363 . S
C6360 H6376 0.931 . S
C6361 C6360 1.370 . S
C6361 C6365 1.408 . S
C6362 C6360 1.363 . S
C6362 C6363 1.370 . S
C6362 C6366 1.524 . S
C6363 C6355 1.503 . S
C6363 C6362 1.370 . S
C6363 C6364 1.403 . S
C6364 C6363 1.403 . S
C6364 C6365 1.404 . S
C6364 C6367 1.539 . S
C6365 C6361 1.408 . S
C6365 C6364 1.404 . S
C6365 H6377 0.930 . S
C6366 C6362 1.524 . S
C6366 H6378 0.956 . S
C6366 H6379 0.961 . S
C6366 H6380 0.961 . S
C6367 C6364 1.539 . S
C6367 H6381 0.958 . S
C6367 H6382 0.961 . S
C6367 H6383 0.960 . S
H6368 C6352 0.931 . S
H6369 C6357 0.929 . S
H6370 C6358 0.960 . S
H6371 C6358 0.962 . S
H6372 C6358 0.960 . S
H6373 C6359 0.961 . S
H6374 C6359 0.961 . S
H6375 C6359 0.961 . S
H6376 C6360 0.931 . S
H6377 C6365 0.930 . S
H6378 C6366 0.956 . S
H6379 C6366 0.961 . S
H6380 C6366 0.961 . S
H6381 C6367 0.958 . S
H6382 C6367 0.961 . S
H6383 C6367 0.960 . S
C6384 C6385 1.391 . S
C6384 C6386 1.394 . S
C6384 H6400 0.931 . S
C6385 C6384 1.391 . S
C6385 C6389 1.376 . S
C6386 C6384 1.394 . S
C6386 C6387 1.369 . S
C6386 C6390 1.531 . S
C6387 C6386 1.369 . S
C6387 C6388 1.410 . S
C6387 C6395 1.503 . S
C6388 C6387 1.410 . S
C6388 C6389 1.392 . S
C6388 C6391 1.511 . S
C6389 C6385 1.376 . S
C6389 C6388 1.392 . S
C6389 H6401 0.929 . S
C6390 C6386 1.531 . S
C6390 H6402 0.960 . S
C6390 H6403 0.962 . S
C6390 H6404 0.960 . S
C6391 C6388 1.511 . S
C6391 H6405 0.961 . S
C6391 H6406 0.961 . S
C6391 H6407 0.961 . S
C6392 C6393 1.370 . S
C6392 C6394 1.363 . S
C6392 H6408 0.931 . S
C6393 C6392 1.370 . S
C6393 C6397 1.408 . S
C6394 C6392 1.363 . S
C6394 C6395 1.370 . S
C6394 C6398 1.524 . S
C6395 C6387 1.503 . S
C6395 C6394 1.370 . S
C6395 C6396 1.403 . S
C6396 C6395 1.403 . S
C6396 C6397 1.404 . S
C6396 C6399 1.539 . S
C6397 C6393 1.408 . S
C6397 C6396 1.404 . S
C6397 H6409 0.930 . S
C6398 C6394 1.524 . S
C6398 H6410 0.956 . S
C6398 H6411 0.961 . S
C6398 H6412 0.961 . S
C6399 C6396 1.539 . S
C6399 H6413 0.958 . S
C6399 H6414 0.961 . S
C6399 H6415 0.960 . S
H6400 C6384 0.931 . S
H6401 C6389 0.929 . S
H6402 C6390 0.960 . S
H6403 C6390 0.962 . S
H6404 C6390 0.960 . S
H6405 C6391 0.961 . S
H6406 C6391 0.961 . S
H6407 C6391 0.961 . S
H6408 C6392 0.931 . S
H6409 C6397 0.930 . S
H6410 C6398 0.956 . S
H6411 C6398 0.961 . S
H6412 C6398 0.961 . S
H6413 C6399 0.958 . S
H6414 C6399 0.961 . S
H6415 C6399 0.960 . S
C6416 C6417 1.391 . S
C6416 C6418 1.394 . S
C6416 H6432 0.931 . S
C6417 C6416 1.391 . S
C6417 C6421 1.376 . S
C6418 C6416 1.394 . S
C6418 C6419 1.369 . S
C6418 C6422 1.531 . S
C6419 C6418 1.369 . S
C6419 C6420 1.410 . S
C6419 C6427 1.503 . S
C6420 C6419 1.410 . S
C6420 C6421 1.392 . S
C6420 C6423 1.511 . S
C6421 C6417 1.376 . S
C6421 C6420 1.392 . S
C6421 H6433 0.929 . S
C6422 C6418 1.531 . S
C6422 H6434 0.960 . S
C6422 H6435 0.962 . S
C6422 H6436 0.960 . S
C6423 C6420 1.511 . S
C6423 H6437 0.961 . S
C6423 H6438 0.961 . S
C6423 H6439 0.961 . S
C6424 C6425 1.370 . S
C6424 C6426 1.363 . S
C6424 H6440 0.931 . S
C6425 C6424 1.370 . S
C6425 C6429 1.408 . S
C6426 C6424 1.363 . S
C6426 C6427 1.370 . S
C6426 C6430 1.524 . S
C6427 C6419 1.503 . S
C6427 C6426 1.370 . S
C6427 C6428 1.403 . S
C6428 C6427 1.403 . S
C6428 C6429 1.404 . S
C6428 C6431 1.539 . S
C6429 C6425 1.408 . S
C6429 C6428 1.404 . S
C6429 H6441 0.930 . S
C6430 C6426 1.524 . S
C6430 H6442 0.956 . S
C6430 H6443 0.961 . S
C6430 H6444 0.961 . S
C6431 C6428 1.539 . S
C6431 H6445 0.958 . S
C6431 H6446 0.961 . S
C6431 H6447 0.960 . S
H6432 C6416 0.931 . S
H6433 C6421 0.929 . S
H6434 C6422 0.960 . S
H6435 C6422 0.962 . S
H6436 C6422 0.960 . S
H6437 C6423 0.961 . S
H6438 C6423 0.961 . S
H6439 C6423 0.961 . S
H6440 C6424 0.931 . S
H6441 C6429 0.930 . S
H6442 C6430 0.956 . S
H6443 C6430 0.961 . S
H6444 C6430 0.961 . S
H6445 C6431 0.958 . S
H6446 C6431 0.961 . S
H6447 C6431 0.960 . S
C6448 C6449 1.391 . S
C6448 C6450 1.394 . S
C6448 H6464 0.931 . S
C6449 C6448 1.391 . S
C6449 C6453 1.376 . S
C6450 C6448 1.394 . S
C6450 C6451 1.369 . S
C6450 C6454 1.531 . S
C6451 C6450 1.369 . S
C6451 C6452 1.410 . S
C6451 C6459 1.503 . S
C6452 C6451 1.410 . S
C6452 C6453 1.392 . S
C6452 C6455 1.511 . S
C6453 C6449 1.376 . S
C6453 C6452 1.392 . S
C6453 H6465 0.929 . S
C6454 C6450 1.531 . S
C6454 H6466 0.960 . S
C6454 H6467 0.962 . S
C6454 H6468 0.960 . S
C6455 C6452 1.511 . S
C6455 H6469 0.961 . S
C6455 H6470 0.961 . S
C6455 H6471 0.961 . S
C6456 C6457 1.370 . S
C6456 C6458 1.363 . S
C6456 H6472 0.931 . S
C6457 C6456 1.370 . S
C6457 C6461 1.408 . S
C6458 C6456 1.363 . S
C6458 C6459 1.370 . S
C6458 C6462 1.524 . S
C6459 C6451 1.503 . S
C6459 C6458 1.370 . S
C6459 C6460 1.403 . S
C6460 C6459 1.403 . S
C6460 C6461 1.404 . S
C6460 C6463 1.539 . S
C6461 C6457 1.408 . S
C6461 C6460 1.404 . S
C6461 H6473 0.930 . S
C6462 C6458 1.524 . S
C6462 H6474 0.956 . S
C6462 H6475 0.961 . S
C6462 H6476 0.961 . S
C6463 C6460 1.539 . S
C6463 H6477 0.958 . S
C6463 H6478 0.961 . S
C6463 H6479 0.960 . S
H6464 C6448 0.931 . S
H6465 C6453 0.929 . S
H6466 C6454 0.960 . S
H6467 C6454 0.962 . S
H6468 C6454 0.960 . S
H6469 C6455 0.961 . S
H6470 C6455 0.961 . S
H6471 C6455 0.961 . S
H6472 C6456 0.931 . S
H6473 C6461 0.930 . S
H6474 C6462 0.956 . S
H6475 C6462 0.961 . S
H6476 C6462 0.961 . S
H6477 C6463 0.958 . S
H6478 C6463 0.961 . S
H6479 C6463 0.960 . S
C6480 C6481 1.391 . S
C6480 C6482 1.394 . S
C6480 H6496 0.931 . S
C6481 C6480 1.391 . S
C6481 C6485 1.376 . S
C6482 C6480 1.394 . S
C6482 C6483 1.369 . S
C6482 C6486 1.531 . S
C6483 C6482 1.369 . S
C6483 C6484 1.410 . S
C6483 C6491 1.503 . S
C6484 C6483 1.410 . S
C6484 C6485 1.392 . S
C6484 C6487 1.511 . S
C6485 C6481 1.376 . S
C6485 C6484 1.392 . S
C6485 H6497 0.929 . S
C6486 C6482 1.531 . S
C6486 H6498 0.960 . S
C6486 H6499 0.962 . S
C6486 H6500 0.960 . S
C6487 C6484 1.511 . S
C6487 H6501 0.961 . S
C6487 H6502 0.961 . S
C6487 H6503 0.961 . S
C6488 C6489 1.370 . S
C6488 C6490 1.363 . S
C6488 H6504 0.931 . S
C6489 C6488 1.370 . S
C6489 C6493 1.408 . S
C6490 C6488 1.363 . S
C6490 C6491 1.370 . S
C6490 C6494 1.524 . S
C6491 C6483 1.503 . S
C6491 C6490 1.370 . S
C6491 C6492 1.403 . S
C6492 C6491 1.403 . S
C6492 C6493 1.404 . S
C6492 C6495 1.539 . S
C6493 C6489 1.408 . S
C6493 C6492 1.404 . S
C6493 H6505 0.930 . S
C6494 C6490 1.524 . S
C6494 H6506 0.956 . S
C6494 H6507 0.961 . S
C6494 H6508 0.961 . S
C6495 C6492 1.539 . S
C6495 H6509 0.958 . S
C6495 H6510 0.961 . S
C6495 H6511 0.960 . S
H6496 C6480 0.931 . S
H6497 C6485 0.929 . S
H6498 C6486 0.960 . S
H6499 C6486 0.962 . S
H6500 C6486 0.960 . S
H6501 C6487 0.961 . S
H6502 C6487 0.961 . S
H6503 C6487 0.961 . S
H6504 C6488 0.931 . S
H6505 C6493 0.930 . S
H6506 C6494 0.956 . S
H6507 C6494 0.961 . S
H6508 C6494 0.961 . S
H6509 C6495 0.958 . S
H6510 C6495 0.961 . S
H6511 C6495 0.960 . S
C6512 C6513 1.391 . S
C6512 C6514 1.394 . S
C6512 H6528 0.931 . S
C6513 C6512 1.391 . S
C6513 C6517 1.376 . S
C6514 C6512 1.394 . S
C6514 C6515 1.369 . S
C6514 C6518 1.531 . S
C6515 C6514 1.369 . S
C6515 C6516 1.410 . S
C6515 C6523 1.503 . S
C6516 C6515 1.410 . S
C6516 C6517 1.392 . S
C6516 C6519 1.511 . S
C6517 C6513 1.376 . S
C6517 C6516 1.392 . S
C6517 H6529 0.929 . S
C6518 C6514 1.531 . S
C6518 H6530 0.960 . S
C6518 H6531 0.962 . S
C6518 H6532 0.960 . S
C6519 C6516 1.511 . S
C6519 H6533 0.961 . S
C6519 H6534 0.961 . S
C6519 H6535 0.961 . S
C6520 C6521 1.370 . S
C6520 C6522 1.363 . S
C6520 H6536 0.931 . S
C6521 C6520 1.370 . S
C6521 C6525 1.408 . S
C6522 C6520 1.363 . S
C6522 C6523 1.370 . S
C6522 C6526 1.524 . S
C6523 C6515 1.503 . S
C6523 C6522 1.370 . S
C6523 C6524 1.403 . S
C6524 C6523 1.403 . S
C6524 C6525 1.404 . S
C6524 C6527 1.539 . S
C6525 C6521 1.408 . S
C6525 C6524 1.404 . S
C6525 H6537 0.930 . S
C6526 C6522 1.524 . S
C6526 H6538 0.956 . S
C6526 H6539 0.961 . S
C6526 H6540 0.961 . S
C6527 C6524 1.539 . S
C6527 H6541 0.958 . S
C6527 H6542 0.961 . S
C6527 H6543 0.960 . S
H6528 C6512 0.931 . S
H6529 C6517 0.929 . S
H6530 C6518 0.960 . S
H6531 C6518 0.962 . S
H6532 C6518 0.960 . S
H6533 C6519 0.961 . S
H6534 C6519 0.961 . S
H6535 C6519 0.961 . S
H6536 C6520 0.931 . S
H6537 C6525 0.930 . S
H6538 C6526 0.956 . S
H6539 C6526 0.961 . S
H6540 C6526 0.961 . S
H6541 C6527 0.958 . S
H6542 C6527 0.961 . S
H6543 C6527 0.960 . S
C6544 C6545 1.391 . S
C6544 C6546 1.394 . S
C6544 H6560 0.931 . S
C6545 C6544 1.391 . S
C6545 C6549 1.376 . S
C6546 C6544 1.394 . S
C6546 C6547 1.369 . S
C6546 C6550 1.531 . S
C6547 C6546 1.369 . S
C6547 C6548 1.410 . S
C6547 C6555 1.503 . S
C6548 C6547 1.410 . S
C6548 C6549 1.392 . S
C6548 C6551 1.511 . S
C6549 C6545 1.376 . S
C6549 C6548 1.392 . S
C6549 H6561 0.929 . S
C6550 C6546 1.531 . S
C6550 H6562 0.960 . S
C6550 H6563 0.962 . S
C6550 H6564 0.960 . S
C6551 C6548 1.511 . S
C6551 H6565 0.961 . S
C6551 H6566 0.961 . S
C6551 H6567 0.961 . S
C6552 C6553 1.370 . S
C6552 C6554 1.363 . S
C6552 H6568 0.931 . S
C6553 C6552 1.370 . S
C6553 C6557 1.408 . S
C6554 C6552 1.363 . S
C6554 C6555 1.370 . S
C6554 C6558 1.524 . S
C6555 C6547 1.503 . S
C6555 C6554 1.370 . S
C6555 C6556 1.403 . S
C6556 C6555 1.403 . S
C6556 C6557 1.404 . S
C6556 C6559 1.539 . S
C6557 C6553 1.408 . S
C6557 C6556 1.404 . S
C6557 H6569 0.930 . S
C6558 C6554 1.524 . S
C6558 H6570 0.956 . S
C6558 H6571 0.961 . S
C6558 H6572 0.961 . S
C6559 C6556 1.539 . S
C6559 H6573 0.958 . S
C6559 H6574 0.961 . S
C6559 H6575 0.960 . S
H6560 C6544 0.931 . S
H6561 C6549 0.929 . S
H6562 C6550 0.960 . S
H6563 C6550 0.962 . S
H6564 C6550 0.960 . S
H6565 C6551 0.961 . S
H6566 C6551 0.961 . S
H6567 C6551 0.961 . S
H6568 C6552 0.931 . S
H6569 C6557 0.930 . S
H6570 C6558 0.956 . S
H6571 C6558 0.961 . S
H6572 C6558 0.961 . S
H6573 C6559 0.958 . S
H6574 C6559 0.961 . S
H6575 C6559 0.960 . S
C6576 C6577 1.391 . S
C6576 C6578 1.394 . S
C6576 H6592 0.931 . S
C6577 C6576 1.391 . S
C6577 C6581 1.376 . S
C6578 C6576 1.394 . S
C6578 C6579 1.369 . S
C6578 C6582 1.531 . S
C6579 C6578 1.369 . S
C6579 C6580 1.410 . S
C6579 C6587 1.503 . S
C6580 C6579 1.410 . S
C6580 C6581 1.392 . S
C6580 C6583 1.511 . S
C6581 C6577 1.376 . S
C6581 C6580 1.392 . S
C6581 H6593 0.929 . S
C6582 C6578 1.531 . S
C6582 H6594 0.960 . S
C6582 H6595 0.962 . S
C6582 H6596 0.960 . S
C6583 C6580 1.511 . S
C6583 H6597 0.961 . S
C6583 H6598 0.961 . S
C6583 H6599 0.961 . S
C6584 C6585 1.370 . S
C6584 C6586 1.363 . S
C6584 H6600 0.931 . S
C6585 C6584 1.370 . S
C6585 C6589 1.408 . S
C6586 C6584 1.363 . S
C6586 C6587 1.370 . S
C6586 C6590 1.524 . S
C6587 C6579 1.503 . S
C6587 C6586 1.370 . S
C6587 C6588 1.403 . S
C6588 C6587 1.403 . S
C6588 C6589 1.404 . S
C6588 C6591 1.539 . S
C6589 C6585 1.408 . S
C6589 C6588 1.404 . S
C6589 H6601 0.930 . S
C6590 C6586 1.524 . S
C6590 H6602 0.956 . S
C6590 H6603 0.961 . S
C6590 H6604 0.961 . S
C6591 C6588 1.539 . S
C6591 H6605 0.958 . S
C6591 H6606 0.961 . S
C6591 H6607 0.960 . S
H6592 C6576 0.931 . S
H6593 C6581 0.929 . S
H6594 C6582 0.960 . S
H6595 C6582 0.962 . S
H6596 C6582 0.960 . S
H6597 C6583 0.961 . S
H6598 C6583 0.961 . S
H6599 C6583 0.961 . S
H6600 C6584 0.931 . S
H6601 C6589 0.930 . S
H6602 C6590 0.956 . S
H6603 C6590 0.961 . S
H6604 C6590 0.961 . S
H6605 C6591 0.958 . S
H6606 C6591 0.961 . S
H6607 C6591 0.960 . S
C6608 C6609 1.391 . S
C6608 C6610 1.394 . S
C6608 H6624 0.931 . S
C6609 C6608 1.391 . S
C6609 C6613 1.376 . S
C6610 C6608 1.394 . S
C6610 C6611 1.369 . S
C6610 C6614 1.531 . S
C6611 C6610 1.369 . S
C6611 C6612 1.410 . S
C6611 C6619 1.503 . S
C6612 C6611 1.410 . S
C6612 C6613 1.392 . S
C6612 C6615 1.511 . S
C6613 C6609 1.376 . S
C6613 C6612 1.392 . S
C6613 H6625 0.929 . S
C6614 C6610 1.531 . S
C6614 H6626 0.960 . S
C6614 H6627 0.962 . S
C6614 H6628 0.960 . S
C6615 C6612 1.511 . S
C6615 H6629 0.961 . S
C6615 H6630 0.961 . S
C6615 H6631 0.961 . S
C6616 C6617 1.370 . S
C6616 C6618 1.363 . S
C6616 H6632 0.931 . S
C6617 C6616 1.370 . S
C6617 C6621 1.408 . S
C6618 C6616 1.363 . S
C6618 C6619 1.370 . S
C6618 C6622 1.524 . S
C6619 C6611 1.503 . S
C6619 C6618 1.370 . S
C6619 C6620 1.403 . S
C6620 C6619 1.403 . S
C6620 C6621 1.404 . S
C6620 C6623 1.539 . S
C6621 C6617 1.408 . S
C6621 C6620 1.404 . S
C6621 H6633 0.930 . S
C6622 C6618 1.524 . S
C6622 H6634 0.956 . S
C6622 H6635 0.961 . S
C6622 H6636 0.961 . S
C6623 C6620 1.539 . S
C6623 H6637 0.958 . S
C6623 H6638 0.961 . S
C6623 H6639 0.960 . S
H6624 C6608 0.931 . S
H6625 C6613 0.929 . S
H6626 C6614 0.960 . S
H6627 C6614 0.962 . S
H6628 C6614 0.960 . S
H6629 C6615 0.961 . S
H6630 C6615 0.961 . S
H6631 C6615 0.961 . S
H6632 C6616 0.931 . S
H6633 C6621 0.930 . S
H6634 C6622 0.956 . S
H6635 C6622 0.961 . S
H6636 C6622 0.961 . S
H6637 C6623 0.958 . S
H6638 C6623 0.961 . S
H6639 C6623 0.960 . S
C6640 C6641 1.391 . S
C6640 C6642 1.394 . S
C6640 H6656 0.931 . S
C6641 C6640 1.391 . S
C6641 C6645 1.376 . S
C6642 C6640 1.394 . S
C6642 C6643 1.369 . S
C6642 C6646 1.531 . S
C6643 C6642 1.369 . S
C6643 C6644 1.410 . S
C6643 C6651 1.503 . S
C6644 C6643 1.410 . S
C6644 C6645 1.392 . S
C6644 C6647 1.511 . S
C6645 C6641 1.376 . S
C6645 C6644 1.392 . S
C6645 H6657 0.929 . S
C6646 C6642 1.531 . S
C6646 H6658 0.960 . S
C6646 H6659 0.962 . S
C6646 H6660 0.960 . S
C6647 C6644 1.511 . S
C6647 H6661 0.961 . S
C6647 H6662 0.961 . S
C6647 H6663 0.961 . S
C6648 C6649 1.370 . S
C6648 C6650 1.363 . S
C6648 H6664 0.931 . S
C6649 C6648 1.370 . S
C6649 C6653 1.408 . S
C6650 C6648 1.363 . S
C6650 C6651 1.370 . S
C6650 C6654 1.524 . S
C6651 C6643 1.503 . S
C6651 C6650 1.370 . S
C6651 C6652 1.403 . S
C6652 C6651 1.403 . S
C6652 C6653 1.404 . S
C6652 C6655 1.539 . S
C6653 C6649 1.408 . S
C6653 C6652 1.404 . S
C6653 H6665 0.930 . S
C6654 C6650 1.524 . S
C6654 H6666 0.956 . S
C6654 H6667 0.961 . S
C6654 H6668 0.961 . S
C6655 C6652 1.539 . S
C6655 H6669 0.958 . S
C6655 H6670 0.961 . S
C6655 H6671 0.960 . S
H6656 C6640 0.931 . S
H6657 C6645 0.929 . S
H6658 C6646 0.960 . S
H6659 C6646 0.962 . S
H6660 C6646 0.960 . S
H6661 C6647 0.961 . S
H6662 C6647 0.961 . S
H6663 C6647 0.961 . S
H6664 C6648 0.931 . S
H6665 C6653 0.930 . S
H6666 C6654 0.956 . S
H6667 C6654 0.961 . S
H6668 C6654 0.961 . S
H6669 C6655 0.958 . S
H6670 C6655 0.961 . S
H6671 C6655 0.960 . S
C6672 C6673 1.391 . S
C6672 C6674 1.394 . S
C6672 H6688 0.931 . S
C6673 C6672 1.391 . S
C6673 C6677 1.376 . S
C6674 C6672 1.394 . S
C6674 C6675 1.369 . S
C6674 C6678 1.531 . S
C6675 C6674 1.369 . S
C6675 C6676 1.410 . S
C6675 C6683 1.503 . S
C6676 C6675 1.410 . S
C6676 C6677 1.392 . S
C6676 C6679 1.511 . S
C6677 C6673 1.376 . S
C6677 C6676 1.392 . S
C6677 H6689 0.929 . S
C6678 C6674 1.531 . S
C6678 H6690 0.960 . S
C6678 H6691 0.962 . S
C6678 H6692 0.960 . S
C6679 C6676 1.511 . S
C6679 H6693 0.961 . S
C6679 H6694 0.961 . S
C6679 H6695 0.961 . S
C6680 C6681 1.370 . S
C6680 C6682 1.363 . S
C6680 H6696 0.931 . S
C6681 C6680 1.370 . S
C6681 C6685 1.408 . S
C6682 C6680 1.363 . S
C6682 C6683 1.370 . S
C6682 C6686 1.524 . S
C6683 C6675 1.503 . S
C6683 C6682 1.370 . S
C6683 C6684 1.403 . S
C6684 C6683 1.403 . S
C6684 C6685 1.404 . S
C6684 C6687 1.539 . S
C6685 C6681 1.408 . S
C6685 C6684 1.404 . S
C6685 H6697 0.930 . S
C6686 C6682 1.524 . S
C6686 H6698 0.956 . S
C6686 H6699 0.961 . S
C6686 H6700 0.961 . S
C6687 C6684 1.539 . S
C6687 H6701 0.958 . S
C6687 H6702 0.961 . S
C6687 H6703 0.960 . S
H6688 C6672 0.931 . S
H6689 C6677 0.929 . S
H6690 C6678 0.960 . S
H6691 C6678 0.962 . S
H6692 C6678 0.960 . S
H6693 C6679 0.961 . S
H6694 C6679 0.961 . S
H6695 C6679 0.961 . S
H6696 C6680 0.931 . S
H6697 C6685 0.930 . S
H6698 C6686 0.956 . S
H6699 C6686 0.961 . S
H6700 C6686 0.961 . S
H6701 C6687 0.958 . S
H6702 C6687 0.961 . S
H6703 C6687 0.960 . S
C6704 C6705 1.391 . S
C6704 C6706 1.394 . S
C6704 H6720 0.931 . S
C6705 C6704 1.391 . S
C6705 C6709 1.376 . S
C6706 C6704 1.394 . S
C6706 C6707 1.369 . S
C6706 C6710 1.531 . S
C6707 C6706 1.369 . S
C6707 C6708 1.410 . S
C6707 C6715 1.503 . S
C6708 C6707 1.410 . S
C6708 C6709 1.392 . S
C6708 C6711 1.511 . S
C6709 C6705 1.376 . S
C6709 C6708 1.392 . S
C6709 H6721 0.929 . S
C6710 C6706 1.531 . S
C6710 H6722 0.960 . S
C6710 H6723 0.962 . S
C6710 H6724 0.960 . S
C6711 C6708 1.511 . S
C6711 H6725 0.961 . S
C6711 H6726 0.961 . S
C6711 H6727 0.961 . S
C6712 C6713 1.370 . S
C6712 C6714 1.363 . S
C6712 H6728 0.931 . S
C6713 C6712 1.370 . S
C6713 C6717 1.408 . S
C6714 C6712 1.363 . S
C6714 C6715 1.370 . S
C6714 C6718 1.524 . S
C6715 C6707 1.503 . S
C6715 C6714 1.370 . S
C6715 C6716 1.403 . S
C6716 C6715 1.403 . S
C6716 C6717 1.404 . S
C6716 C6719 1.539 . S
C6717 C6713 1.408 . S
C6717 C6716 1.404 . S
C6717 H6729 0.930 . S
C6718 C6714 1.524 . S
C6718 H6730 0.956 . S
C6718 H6731 0.961 . S
C6718 H6732 0.961 . S
C6719 C6716 1.539 . S
C6719 H6733 0.958 . S
C6719 H6734 0.961 . S
C6719 H6735 0.960 . S
H6720 C6704 0.931 . S
H6721 C6709 0.929 . S
H6722 C6710 0.960 . S
H6723 C6710 0.962 . S
H6724 C6710 0.960 . S
H6725 C6711 0.961 . S
H6726 C6711 0.961 . S
H6727 C6711 0.961 . S
H6728 C6712 0.931 . S
H6729 C6717 0.930 . S
H6730 C6718 0.956 . S
H6731 C6718 0.961 . S
H6732 C6718 0.961 . S
H6733 C6719 0.958 . S
H6734 C6719 0.961 . S
H6735 C6719 0.960 . S
C6736 C6737 1.391 . S
C6736 C6738 1.394 . S
C6736 H6752 0.931 . S
C6737 C6736 1.391 . S
C6737 C6741 1.376 . S
C6738 C6736 1.394 . S
C6738 C6739 1.369 . S
C6738 C6742 1.531 . S
C6739 C6738 1.369 . S
C6739 C6740 1.410 . S
C6739 C6747 1.503 . S
C6740 C6739 1.410 . S
C6740 C6741 1.392 . S
C6740 C6743 1.511 . S
C6741 C6737 1.376 . S
C6741 C6740 1.392 . S
C6741 H6753 0.929 . S
C6742 C6738 1.531 . S
C6742 H6754 0.960 . S
C6742 H6755 0.962 . S
C6742 H6756 0.960 . S
C6743 C6740 1.511 . S
C6743 H6757 0.961 . S
C6743 H6758 0.961 . S
C6743 H6759 0.961 . S
C6744 C6745 1.370 . S
C6744 C6746 1.363 . S
C6744 H6760 0.931 . S
C6745 C6744 1.370 . S
C6745 C6749 1.408 . S
C6746 C6744 1.363 . S
C6746 C6747 1.370 . S
C6746 C6750 1.524 . S
C6747 C6739 1.503 . S
C6747 C6746 1.370 . S
C6747 C6748 1.403 . S
C6748 C6747 1.403 . S
C6748 C6749 1.404 . S
C6748 C6751 1.539 . S
C6749 C6745 1.408 . S
C6749 C6748 1.404 . S
C6749 H6761 0.930 . S
C6750 C6746 1.524 . S
C6750 H6762 0.956 . S
C6750 H6763 0.961 . S
C6750 H6764 0.961 . S
C6751 C6748 1.539 . S
C6751 H6765 0.958 . S
C6751 H6766 0.961 . S
C6751 H6767 0.960 . S
H6752 C6736 0.931 . S
H6753 C6741 0.929 . S
H6754 C6742 0.960 . S
H6755 C6742 0.962 . S
H6756 C6742 0.960 . S
H6757 C6743 0.961 . S
H6758 C6743 0.961 . S
H6759 C6743 0.961 . S
H6760 C6744 0.931 . S
H6761 C6749 0.930 . S
H6762 C6750 0.956 . S
H6763 C6750 0.961 . S
H6764 C6750 0.961 . S
H6765 C6751 0.958 . S
H6766 C6751 0.961 . S
H6767 C6751 0.960 . S
C6768 C6769 1.391 . S
C6768 C6770 1.394 . S
C6768 H6784 0.931 . S
C6769 C6768 1.391 . S
C6769 C6773 1.376 . S
C6770 C6768 1.394 . S
C6770 C6771 1.369 . S
C6770 C6774 1.531 . S
C6771 C6770 1.369 . S
C6771 C6772 1.410 . S
C6771 C6779 1.503 . S
C6772 C6771 1.410 . S
C6772 C6773 1.392 . S
C6772 C6775 1.511 . S
C6773 C6769 1.376 . S
C6773 C6772 1.392 . S
C6773 H6785 0.929 . S
C6774 C6770 1.531 . S
C6774 H6786 0.960 . S
C6774 H6787 0.962 . S
C6774 H6788 0.960 . S
C6775 C6772 1.511 . S
C6775 H6789 0.961 . S
C6775 H6790 0.961 . S
C6775 H6791 0.961 . S
C6776 C6777 1.370 . S
C6776 C6778 1.363 . S
C6776 H6792 0.931 . S
C6777 C6776 1.370 . S
C6777 C6781 1.408 . S
C6778 C6776 1.363 . S
C6778 C6779 1.370 . S
C6778 C6782 1.524 . S
C6779 C6771 1.503 . S
C6779 C6778 1.370 . S
C6779 C6780 1.403 . S
C6780 C6779 1.403 . S
C6780 C6781 1.404 . S
C6780 C6783 1.539 . S
C6781 C6777 1.408 . S
C6781 C6780 1.404 . S
C6781 H6793 0.930 . S
C6782 C6778 1.524 . S
C6782 H6794 0.956 . S
C6782 H6795 0.961 . S
C6782 H6796 0.961 . S
C6783 C6780 1.539 . S
C6783 H6797 0.958 . S
C6783 H6798 0.961 . S
C6783 H6799 0.960 . S
H6784 C6768 0.931 . S
H6785 C6773 0.929 . S
H6786 C6774 0.960 . S
H6787 C6774 0.962 . S
H6788 C6774 0.960 . S
H6789 C6775 0.961 . S
H6790 C6775 0.961 . S
H6791 C6775 0.961 . S
H6792 C6776 0.931 . S
H6793 C6781 0.930 . S
H6794 C6782 0.956 . S
H6795 C6782 0.961 . S
H6796 C6782 0.961 . S
H6797 C6783 0.958 . S
H6798 C6783 0.961 . S
H6799 C6783 0.960 . S
C6800 C6801 1.391 . S
C6800 C6802 1.394 . S
C6800 H6816 0.931 . S
C6801 C6800 1.391 . S
C6801 C6805 1.376 . S
C6802 C6800 1.394 . S
C6802 C6803 1.369 . S
C6802 C6806 1.531 . S
C6803 C6802 1.369 . S
C6803 C6804 1.410 . S
C6803 C6811 1.503 . S
C6804 C6803 1.410 . S
C6804 C6805 1.392 . S
C6804 C6807 1.511 . S
C6805 C6801 1.376 . S
C6805 C6804 1.392 . S
C6805 H6817 0.929 . S
C6806 C6802 1.531 . S
C6806 H6818 0.960 . S
C6806 H6819 0.962 . S
C6806 H6820 0.960 . S
C6807 C6804 1.511 . S
C6807 H6821 0.961 . S
C6807 H6822 0.961 . S
C6807 H6823 0.961 . S
C6808 C6809 1.370 . S
C6808 C6810 1.363 . S
C6808 H6824 0.931 . S
C6809 C6808 1.370 . S
C6809 C6813 1.408 . S
C6810 C6808 1.363 . S
C6810 C6811 1.370 . S
C6810 C6814 1.524 . S
C6811 C6803 1.503 . S
C6811 C6810 1.370 . S
C6811 C6812 1.403 . S
C6812 C6811 1.403 . S
C6812 C6813 1.404 . S
C6812 C6815 1.539 . S
C6813 C6809 1.408 . S
C6813 C6812 1.404 . S
C6813 H6825 0.930 . S
C6814 C6810 1.524 . S
C6814 H6826 0.956 . S
C6814 H6827 0.961 . S
C6814 H6828 0.961 . S
C6815 C6812 1.539 . S
C6815 H6829 0.958 . S
C6815 H6830 0.961 . S
C6815 H6831 0.960 . S
H6816 C6800 0.931 . S
H6817 C6805 0.929 . S
H6818 C6806 0.960 . S
H6819 C6806 0.962 . S
H6820 C6806 0.960 . S
H6821 C6807 0.961 . S
H6822 C6807 0.961 . S
H6823 C6807 0.961 . S
H6824 C6808 0.931 . S
H6825 C6813 0.930 . S
H6826 C6814 0.956 . S
H6827 C6814 0.961 . S
H6828 C6814 0.961 . S
H6829 C6815 0.958 . S
H6830 C6815 0.961 . S
H6831 C6815 0.960 . S
C6832 C6833 1.391 . S
C6832 C6834 1.394 . S
C6832 H6848 0.931 . S
C6833 C6832 1.391 . S
C6833 C6837 1.376 . S
C6834 C6832 1.394 . S
C6834 C6835 1.369 . S
C6834 C6838 1.531 . S
C6835 C6834 1.369 . S
C6835 C6836 1.410 . S
C6835 C6843 1.503 . S
C6836 C6835 1.410 . S
C6836 C6837 1.392 . S
C6836 C6839 1.511 . S
C6837 C6833 1.376 . S
C6837 C6836 1.392 . S
C6837 H6849 0.929 . S
C6838 C6834 1.531 . S
C6838 H6850 0.960 . S
C6838 H6851 0.962 . S
C6838 H6852 0.960 . S
C6839 C6836 1.511 . S
C6839 H6853 0.961 . S
C6839 H6854 0.961 . S
C6839 H6855 0.961 . S
C6840 C6841 1.370 . S
C6840 C6842 1.363 . S
C6840 H6856 0.931 . S
C6841 C6840 1.370 . S
C6841 C6845 1.408 . S
C6842 C6840 1.363 . S
C6842 C6843 1.370 . S
C6842 C6846 1.524 . S
C6843 C6835 1.503 . S
C6843 C6842 1.370 . S
C6843 C6844 1.403 . S
C6844 C6843 1.403 . S
C6844 C6845 1.404 . S
C6844 C6847 1.539 . S
C6845 C6841 1.408 . S
C6845 C6844 1.404 . S
C6845 H6857 0.930 . S
C6846 C6842 1.524 . S
C6846 H6858 0.956 . S
C6846 H6859 0.961 . S
C6846 H6860 0.961 . S
C6847 C6844 1.539 . S
C6847 H6861 0.958 . S
C6847 H6862 0.961 . S
C6847 H6863 0.960 . S
H6848 C6832 0.931 . S
H6849 C6837 0.929 . S
H6850 C6838 0.960 . S
H6851 C6838 0.962 . S
H6852 C6838 0.960 . S
H6853 C6839 0.961 . S
H6854 C6839 0.961 . S
H6855 C6839 0.961 . S
H6856 C6840 0.931 . S
H6857 C6845 0.930 . S
H6858 C6846 0.956 . S
H6859 C6846 0.961 . S
H6860 C6846 0.961 . S
H6861 C6847 0.958 . S
H6862 C6847 0.961 . S
H6863 C6847 0.960 . S
C6864 C6865 1.391 . S
C6864 C6866 1.394 . S
C6864 H6880 0.931 . S
C6865 C6864 1.391 . S
C6865 C6869 1.376 . S
C6866 C6864 1.394 . S
C6866 C6867 1.369 . S
C6866 C6870 1.531 . S
C6867 C6866 1.369 . S
C6867 C6868 1.410 . S
C6867 C6875 1.503 . S
C6868 C6867 1.410 . S
C6868 C6869 1.392 . S
C6868 C6871 1.511 . S
C6869 C6865 1.376 . S
C6869 C6868 1.392 . S
C6869 H6881 0.929 . S
C6870 C6866 1.531 . S
C6870 H6882 0.960 . S
C6870 H6883 0.962 . S
C6870 H6884 0.960 . S
C6871 C6868 1.511 . S
C6871 H6885 0.961 . S
C6871 H6886 0.961 . S
C6871 H6887 0.961 . S
C6872 C6873 1.370 . S
C6872 C6874 1.363 . S
C6872 H6888 0.931 . S
C6873 C6872 1.370 . S
C6873 C6877 1.408 . S
C6874 C6872 1.363 . S
C6874 C6875 1.370 . S
C6874 C6878 1.524 . S
C6875 C6867 1.503 . S
C6875 C6874 1.370 . S
C6875 C6876 1.403 . S
C6876 C6875 1.403 . S
C6876 C6877 1.404 . S
C6876 C6879 1.539 . S
C6877 C6873 1.408 . S
C6877 C6876 1.404 . S
C6877 H6889 0.930 . S
C6878 C6874 1.524 . S
C6878 H6890 0.956 . S
C6878 H6891 0.961 . S
C6878 H6892 0.961 . S
C6879 C6876 1.539 . S
C6879 H6893 0.958 . S
C6879 H6894 0.961 . S
C6879 H6895 0.960 . S
H6880 C6864 0.931 . S
H6881 C6869 0.929 . S
H6882 C6870 0.960 . S
H6883 C6870 0.962 . S
H6884 C6870 0.960 . S
H6885 C6871 0.961 . S
H6886 C6871 0.961 . S
H6887 C6871 0.961 . S
H6888 C6872 0.931 . S
H6889 C6877 0.930 . S
H6890 C6878 0.956 . S
H6891 C6878 0.961 . S
H6892 C6878 0.961 . S
H6893 C6879 0.958 . S
H6894 C6879 0.961 . S
H6895 C6879 0.960 . S
C6896 C6897 1.391 . S
C6896 C6898 1.394 . S
C6896 H6912 0.931 . S
C6897 C6896 1.391 . S
C6897 C6901 1.376 . S
C6898 C6896 1.394 . S
C6898 C6899 1.369 . S
C6898 C6902 1.531 . S
C6899 C6898 1.369 . S
C6899 C6900 1.410 . S
C6899 C6907 1.503 . S
C6900 C6899 1.410 . S
C6900 C6901 1.392 . S
C6900 C6903 1.511 . S
C6901 C6897 1.376 . S
C6901 C6900 1.392 . S
C6901 H6913 0.929 . S
C6902 C6898 1.531 . S
C6902 H6914 0.960 . S
C6902 H6915 0.962 . S
C6902 H6916 0.960 . S
C6903 C6900 1.511 . S
C6903 H6917 0.961 . S
C6903 H6918 0.961 . S
C6903 H6919 0.961 . S
C6904 C6905 1.370 . S
C6904 C6906 1.363 . S
C6904 H6920 0.931 . S
C6905 C6904 1.370 . S
C6905 C6909 1.408 . S
C6906 C6904 1.363 . S
C6906 C6907 1.370 . S
C6906 C6910 1.524 . S
C6907 C6899 1.503 . S
C6907 C6906 1.370 . S
C6907 C6908 1.403 . S
C6908 C6907 1.403 . S
C6908 C6909 1.404 . S
C6908 C6911 1.539 . S
C6909 C6905 1.408 . S
C6909 C6908 1.404 . S
C6909 H6921 0.930 . S
C6910 C6906 1.524 . S
C6910 H6922 0.956 . S
C6910 H6923 0.961 . S
C6910 H6924 0.961 . S
C6911 C6908 1.539 . S
C6911 H6925 0.958 . S
C6911 H6926 0.961 . S
C6911 H6927 0.960 . S
H6912 C6896 0.931 . S
H6913 C6901 0.929 . S
H6914 C6902 0.960 . S
H6915 C6902 0.962 . S
H6916 C6902 0.960 . S
H6917 C6903 0.961 . S
H6918 C6903 0.961 . S
H6919 C6903 0.961 . S
H6920 C6904 0.931 . S
H6921 C6909 0.930 . S
H6922 C6910 0.956 . S
H6923 C6910 0.961 . S
H6924 C6910 0.961 . S
H6925 C6911 0.958 . S
H6926 C6911 0.961 . S
H6927 C6911 0.960 . S
C6928 C6929 1.391 . S
C6928 C6930 1.394 . S
C6928 H6944 0.931 . S
C6929 C6928 1.391 . S
C6929 C6933 1.376 . S
C6930 C6928 1.394 . S
C6930 C6931 1.369 . S
C6930 C6934 1.531 . S
C6931 C6930 1.369 . S
C6931 C6932 1.410 . S
C6931 C6939 1.503 . S
C6932 C6931 1.410 . S
C6932 C6933 1.392 . S
C6932 C6935 1.511 . S
C6933 C6929 1.376 . S
C6933 C6932 1.392 . S
C6933 H6945 0.929 . S
C6934 C6930 1.531 . S
C6934 H6946 0.960 . S
C6934 H6947 0.962 . S
C6934 H6948 0.960 . S
C6935 C6932 1.511 . S
C6935 H6949 0.961 . S
C6935 H6950 0.961 . S
C6935 H6951 0.961 . S
C6936 C6937 1.370 . S
C6936 C6938 1.363 . S
C6936 H6952 0.931 . S
C6937 C6936 1.370 . S
C6937 C6941 1.408 . S
C6938 C6936 1.363 . S
C6938 C6939 1.370 . S
C6938 C6942 1.524 . S
C6939 C6931 1.503 . S
C6939 C6938 1.370 . S
C6939 C6940 1.403 . S
C6940 C6939 1.403 . S
C6940 C6941 1.404 . S
C6940 C6943 1.539 . S
C6941 C6937 1.408 . S
C6941 C6940 1.404 . S
C6941 H6953 0.930 . S
C6942 C6938 1.524 . S
C6942 H6954 0.956 . S
C6942 H6955 0.961 . S
C6942 H6956 0.961 . S
C6943 C6940 1.539 . S
C6943 H6957 0.958 . S
C6943 H6958 0.961 . S
C6943 H6959 0.960 . S
H6944 C6928 0.931 . S
H6945 C6933 0.929 . S
H6946 C6934 0.960 . S
H6947 C6934 0.962 . S
H6948 C6934 0.960 . S
H6949 C6935 0.961 . S
H6950 C6935 0.961 . S
H6951 C6935 0.961 . S
H6952 C6936 0.931 . S
H6953 C6941 0.930 . S
H6954 C6942 0.956 . S
H6955 C6942 0.961 . S
H6956 C6942 0.961 . S
H6957 C6943 0.958 . S
H6958 C6943 0.961 . S
H6959 C6943 0.960 . S
C6960 C6961 1.391 . S
C6960 C6962 1.394 . S
C6960 H6976 0.931 . S
C6961 C6960 1.391 . S
C6961 C6965 1.376 . S
C6962 C6960 1.394 . S
C6962 C6963 1.369 . S
C6962 C6966 1.531 . S
C6963 C6962 1.369 . S
C6963 C6964 1.410 . S
C6963 C6971 1.503 . S
C6964 C6963 1.410 . S
C6964 C6965 1.392 . S
C6964 C6967 1.511 . S
C6965 C6961 1.376 . S
C6965 C6964 1.392 . S
C6965 H6977 0.929 . S
C6966 C6962 1.531 . S
C6966 H6978 0.960 . S
C6966 H6979 0.962 . S
C6966 H6980 0.960 . S
C6967 C6964 1.511 . S
C6967 H6981 0.961 . S
C6967 H6982 0.961 . S
C6967 H6983 0.961 . S
C6968 C6969 1.370 . S
C6968 C6970 1.363 . S
C6968 H6984 0.931 . S
C6969 C6968 1.370 . S
C6969 C6973 1.408 . S
C6970 C6968 1.363 . S
C6970 C6971 1.370 . S
C6970 C6974 1.524 . S
C6971 C6963 1.503 . S
C6971 C6970 1.370 . S
C6971 C6972 1.403 . S
C6972 C6971 1.403 . S
C6972 C6973 1.404 . S
C6972 C6975 1.539 . S
C6973 C6969 1.408 . S
C6973 C6972 1.404 . S
C6973 H6985 0.930 . S
C6974 C6970 1.524 . S
C6974 H6986 0.956 . S
C6974 H6987 0.961 . S
C6974 H6988 0.961 . S
C6975 C6972 1.539 . S
C6975 H6989 0.958 . S
C6975 H6990 0.961 . S
C6975 H6991 0.960 . S
H6976 C6960 0.931 . S
H6977 C6965 0.929 . S
H6978 C6966 0.960 . S
H6979 C6966 0.962 . S
H6980 C6966 0.960 . S
H6981 C6967 0.961 . S
H6982 C6967 0.961 . S
H6983 C6967 0.961 . S
H6984 C6968 0.931 . S
H6985 C6973 0.930 . S
H6986 C6974 0.956 . S
H6987 C6974 0.961 . S
H6988 C6974 0.961 . S
H6989 C6975 0.958 . S
H6990 C6975 0.961 . S
H6991 C6975 0.960 . S
C6992 C6993 1.391 . S
C6992 C6994 1.394 . S
C6992 H7008 0.931 . S
C6993 C6992 1.391 . S
C6993 C6997 1.376 . S
C6994 C6992 1.394 . S
C6994 C6995 1.369 . S
C6994 C6998 1.531 . S
C6995 C6994 1.369 . S
C6995 C6996 1.410 . S
C6995 C7003 1.503 . S
C6996 C6995 1.410 . S
C6996 C6997 1.392 . S
C6996 C6999 1.511 . S
C6997 C6993 1.376 . S
C6997 C6996 1.392 . S
C6997 H7009 0.929 . S
C6998 C6994 1.531 . S
C6998 H7010 0.960 . S
C6998 H7011 0.962 . S
C6998 H7012 0.960 . S
C6999 C6996 1.511 . S
C6999 H7013 0.961 . S
C6999 H7014 0.961 . S
C6999 H7015 0.961 . S
C7000 C7001 1.370 . S
C7000 C7002 1.363 . S
C7000 H7016 0.931 . S
C7001 C7000 1.370 . S
C7001 C7005 1.408 . S
C7002 C7000 1.363 . S
C7002 C7003 1.370 . S
C7002 C7006 1.524 . S
C7003 C6995 1.503 . S
C7003 C7002 1.370 . S
C7003 C7004 1.403 . S
C7004 C7003 1.403 . S
C7004 C7005 1.404 . S
C7004 C7007 1.539 . S
C7005 C7001 1.408 . S
C7005 C7004 1.404 . S
C7005 H7017 0.930 . S
C7006 C7002 1.524 . S
C7006 H7018 0.956 . S
C7006 H7019 0.961 . S
C7006 H7020 0.961 . S
C7007 C7004 1.539 . S
C7007 H7021 0.958 . S
C7007 H7022 0.961 . S
C7007 H7023 0.960 . S
H7008 C6992 0.931 . S
H7009 C6997 0.929 . S
H7010 C6998 0.960 . S
H7011 C6998 0.962 . S
H7012 C6998 0.960 . S
H7013 C6999 0.961 . S
H7014 C6999 0.961 . S
H7015 C6999 0.961 . S
H7016 C7000 0.931 . S
H7017 C7005 0.930 . S
H7018 C7006 0.956 . S
H7019 C7006 0.961 . S
H7020 C7006 0.961 . S
H7021 C7007 0.958 . S
H7022 C7007 0.961 . S
H7023 C7007 0.960 . S
C7024 C7025 1.391 . S
C7024 C7026 1.394 . S
C7024 H7040 0.931 . S
C7025 C7024 1.391 . S
C7025 C7029 1.376 . S
C7026 C7024 1.394 . S
C7026 C7027 1.369 . S
C7026 C7030 1.531 . S
C7027 C7026 1.369 . S
C7027 C7028 1.410 . S
C7027 C7035 1.503 . S
C7028 C7027 1.410 . S
C7028 C7029 1.392 . S
C7028 C7031 1.511 . S
C7029 C7025 1.376 . S
C7029 C7028 1.392 . S
C7029 H7041 0.929 . S
C7030 C7026 1.531 . S
C7030 H7042 0.960 . S
C7030 H7043 0.962 . S
C7030 H7044 0.960 . S
C7031 C7028 1.511 . S
C7031 H7045 0.961 . S
C7031 H7046 0.961 . S
C7031 H7047 0.961 . S
C7032 C7033 1.370 . S
C7032 C7034 1.363 . S
C7032 H7048 0.931 . S
C7033 C7032 1.370 . S
C7033 C7037 1.408 . S
C7034 C7032 1.363 . S
C7034 C7035 1.370 . S
C7034 C7038 1.524 . S
C7035 C7027 1.503 . S
C7035 C7034 1.370 . S
C7035 C7036 1.403 . S
C7036 C7035 1.403 . S
C7036 C7037 1.404 . S
C7036 C7039 1.539 . S
C7037 C7033 1.408 . S
C7037 C7036 1.404 . S
C7037 H7049 0.930 . S
C7038 C7034 1.524 . S
C7038 H7050 0.956 . S
C7038 H7051 0.961 . S
C7038 H7052 0.961 . S
C7039 C7036 1.539 . S
C7039 H7053 0.958 . S
C7039 H7054 0.961 . S
C7039 H7055 0.960 . S
H7040 C7024 0.931 . S
H7041 C7029 0.929 . S
H7042 C7030 0.960 . S
H7043 C7030 0.962 . S
H7044 C7030 0.960 . S
H7045 C7031 0.961 . S
H7046 C7031 0.961 . S
H7047 C7031 0.961 . S
H7048 C7032 0.931 . S
H7049 C7037 0.930 . S
H7050 C7038 0.956 . S
H7051 C7038 0.961 . S
H7052 C7038 0.961 . S
H7053 C7039 0.958 . S
H7054 C7039 0.961 . S
H7055 C7039 0.960 . S
C2449 C1781 1.439 . S
C2457 C1925 1.421 . S
C2481 C981 1.197 . S
C2489 C1936 1.234 . S
C2521 C1947 1.558 . S
C2513 C1861 1.570 . S
C2545 C1061 1.710 . S
C2553 C1958 1.845 . S
C2577 C1901 1.790 . S
C2585 C1969 1.716 . S
C2609 C941 1.529 . S
C2617 C1980 1.518 . S
C2641 C1821 1.213 . S
C2649 C1991 1.207 . S
C2673 C1021 1.533 . S
C2681 C2002 1.521 . S
C2705 C661 1.808 . S
C2713 C2013 1.781 . S
C2737 C1621 1.671 . S
C2745 C2024 1.673 . S
C2769 C741 1.688 . S
C2777 C2035 1.724 . S
C2801 C1581 1.687 . S
C2809 C2046 1.677 . S
C2833 C901 1.801 . S
C2841 C2057 1.832 . S
C2873 C2068 1.734 . S
C2865 C1661 1.707 . S
C2905 C2079 1.978 . S
C2897 C821 1.859 . S
C2929 C1141 1.503 . S
C2937 C2090 1.544 . S
C2969 C2101 1.495 . S
C2961 C781 1.487 . S
C3001 C2112 1.692 . S
C2993 C1701 1.591 . S
C3025 C861 1.687 . S
C3033 C2123 1.709 . S
C3057 C1181 1.885 . S
C3065 C2134 1.996 . S
C3097 C2145 1.780 . S
C3089 C1101 1.812 . S
C3121 C1421 1.461 . S
C3129 C2156 1.441 . S
C3161 C2167 1.724 . S
C3153 C381 1.742 . S
C3193 C2178 1.544 . S
C3185 C1501 1.566 . S
C3225 C2189 1.390 . S
C3217 C461 1.378 . S
C3257 C2200 1.597 . S
C3249 C1541 1.554 . S
C3281 C341 1.440 . S
C3289 C2211 1.439 . S
C3321 C2222 1.810 . S
C3313 C1461 1.864 . S
C3345 C421 1.525 . S
C3353 C2233 1.494 . S
C3385 C2244 1.805 . S
C3377 C61 1.790 . S
C3417 C2255 1.530 . S
C3409 C1261 1.563 . S
C3441 C141 1.805 . S
C3449 C2266 1.778 . S
C3481 C2277 1.714 . S
C3473 C1221 1.671 . S
C3513 C2288 1.836 . S
C3505 C301 1.748 . S
C3537 C1301 1.539 . S
C3545 C2299 1.514 . S
C3577 C2310 1.878 . S
C3569 C221 1.815 . S
C3609 C2321 1.393 . S
C3601 C541 1.462 . S
C3633 C181 1.504 . S
C3641 C2332 1.476 . S
C3673 C2343 1.818 . S
C3665 C1341 1.748 . S
C3697 C261 1.718 . S
C3705 C2354 1.679 . S
C3737 C2365 1.828 . S
C3729 C581 1.854 . S
C3761 C501 1.781 . S
C3769 C2376 1.776 . S
C3793 C701 1.623 . S
C3801 C2387 1.592 . S
C3833 C2398 1.736 . S
C3825 C621 1.738 . S
C3857 C1741 1.969 . S
C3865 C2409 1.993 . S
C3889 C101 1.505 . S
C3897 C2420 1.493 . S
C3929 C2431 1.797 . S
C3921 C21 1.751 . S
C3961 C2442 1.950 . S
C3953 C1381 1.800 . S
C3985 C1335 1.932 . S
C3993 C1930 1.967 . S
C4017 C535 1.430 . S
C4025 C1941 1.432 . S
C4049 C1362 1.857 . S
C4057 C1946 1.991 . S
C4089 C1957 1.671 . S
C4081 C1295 1.653 . S
C4113 C575 1.693 . S
C4121 C1974 1.673 . S
C4145 C1215 1.629 . S
C4153 C1979 1.587 . S
C4185 C1990 1.525 . S
C4177 C495 1.536 . S
C4209 C1242 1.508 . S
C4217 C2007 1.498 . S
C4241 C1255 1.675 . S
C4249 C2018 1.660 . S
C4281 C2029 1.517 . S
C4273 C562 1.569 . S
C4305 C1202 1.712 . S
C4313 C2034 1.781 . S
C4345 C2051 1.503 . S
C4337 C482 1.452 . S
C4369 C522 1.527 . S
C4377 C2062 1.517 . S
C4401 C1375 2.044 . S
C4409 C2067 2.099 . S
C4441 C2084 1.670 . S
C4433 C1282 1.696 . S
C4473 C2089 2.175 . S
C4465 C1322 2.185 . S
C4497 C455 1.585 . S
C4505 C2045 1.567 . S
C4529 C1415 1.868 . S
C4537 C2106 1.848 . S
C4561 C1455 1.802 . S
C4569 C2111 1.851 . S
C4601 C2128 1.830 . S
C4593 C1482 1.898 . S
C4633 C2056 1.516 . S
C4625 C442 1.509 . S
C4657 C362 1.972 . S
C4665 C2023 1.988 . S
C4689 C1495 1.694 . S
C4697 C2139 1.725 . S
C4729 C2144 1.580 . S
C4721 C1402 1.598 . S
C4761 C2155 1.688 . S
C4753 C1695 1.673 . S
C4785 C1135 1.514 . S
C4793 C2166 1.512 . S
C4825 C2183 1.900 . S
C4817 C1722 1.901 . S
C4857 C2194 1.693 . S
C4849 C1655 1.684 . S
C4881 C1175 1.821 . S
C4889 C2205 1.857 . S
C4913 C1562 1.631 . S
C4921 C2216 1.612 . S
C4945 C1095 1.563 . S
C4953 C2227 1.571 . S
C4985 C2232 1.787 . S
C4977 C1615 1.812 . S
C5017 C2249 1.988 . S
C5009 C1602 1.980 . S
C5041 C1162 1.636 . S
C5049 C2254 1.704 . S
C5081 C2265 1.595 . S
C5073 C1575 1.587 . S
C5105 C1082 1.674 . S
C5113 C2282 1.648 . S
C5145 C2293 1.600 . S
C5137 C1122 1.591 . S
C5169 C1735 2.130 . S
C5177 C2298 2.123 . S
C5209 C2315 1.623 . S
C5201 C1642 1.585 . S
C5233 C1682 1.758 . S
C5241 C2320 1.812 . S
C5265 C1042 2.063 . S
C5273 C2276 2.106 1_545 S
C5297 C1775 1.861 . S
C5305 C2337 1.804 . S
C5329 C1815 1.242 . S
C5337 C2342 1.211 . S
C5369 C2359 1.742 . S
C5361 C1842 1.746 . S
C5393 C1055 1.750 . S
C5401 C2287 1.828 . S
C5425 C975 1.446 . S
C5433 C2260 1.449 . S
C5465 C2370 1.598 . S
C5457 C1855 1.597 . S
C5489 C1762 1.512 . S
C5497 C2375 1.516 . S
C5529 C1985 1.932 . S
C5521 C215 1.856 . S
C5561 C1996 1.553 . S
C5553 C255 1.541 . S
C5593 C2001 1.954 . S
C5585 C282 1.885 . S
C5625 C1968 1.570 . S
C5617 C175 1.542 . S
C5657 C1963 1.600 . S
C5649 C135 1.621 . S
C5681 C15 1.734 . S
C5689 C1924 1.676 . S
C5713 C55 1.566 . S
C5721 C1935 1.526 . S
C5745 C82 1.486 . S
C5753 C1952 1.504 . S
C5777 C95 1.630 . S
C5785 C2150 1.612 . S
C5809 C122 1.558 . S
C5817 C2392 1.496 . S
C5841 C2 1.777 1_655 S
C5849 C2133 1.868 . S
C5873 C42 1.503 . S
C5881 C2403 1.499 . S
C5905 C242 1.619 . S
C5913 C2414 1.589 . S
C5945 C2100 2.066 . S
C5937 C295 2.023 . S
C5969 C162 1.556 . S
C5977 C2117 1.557 . S
C6001 C202 2.306 . S
C6009 C2122 2.344 . S
C6041 C2397 2.017 . S
C6033 C1535 1.994 . S
C6065 C335 1.920 . S
C6073 C2073 1.895 . S
C6097 C375 1.924 . S
C6105 C2078 1.979 . S
C6129 C402 1.818 . S
C6137 C2095 1.739 . S
C6169 C2408 1.975 . S
C6161 C1522 1.886 . S
C6201 C2386 2.032 . S
C6193 C1442 2.024 . S
C6233 C2040 1.628 . S
C6225 C415 1.633 . S
C6257 C322 1.624 . S
C6265 C2012 1.619 . S
C6289 C815 1.728 . S
C6297 C2210 1.750 . S
C6321 C855 1.630 . S
C6329 C2221 1.637 . S
C6353 C882 1.964 . S
C6361 C2238 1.980 . S
C6385 C775 1.517 . S
C6393 C2199 1.557 . S
C6425 C2188 1.880 . S
C6417 C735 1.861 . S
C6457 C2161 1.646 . S
C6449 C602 1.674 . S
C6489 C2172 1.512 . S
C6481 C655 1.509 . S
C6513 C695 1.836 . S
C6521 C2177 1.784 . S
C6553 C2381 1.994 . S
C6545 C682 1.982 . S
C6577 C722 1.400 . S
C6585 C2419 1.429 . S
C6609 C615 1.713 . S
C6617 C2364 1.736 . S
C6649 C2436 1.545 . S
C6641 C642 1.554 . S
C6673 C842 1.581 . S
C6681 C2447 1.640 . S
C6713 C2331 2.181 . S
C6705 C895 2.169 . S
C6737 C762 1.501 . S
C6745 C2348 1.552 . S
C6769 C802 1.974 . S
C6777 C2353 2.007 . S
C6801 C1895 2.038 . S
C6809 C2430 2.017 . S
C6841 C2304 1.872 . S
C6833 C935 1.913 . S
C6865 C962 1.405 . S
C6873 C2309 1.374 . S
C6897 C1002 1.747 . S
C6905 C2326 1.740 . S
C6929 C1882 1.946 . S
C6937 C2441 1.950 . S
C6961 C1802 1.289 . S
C6969 C2425 1.276 . S
C7001 C2271 1.569 . S
C6993 C1015 1.596 . S
C7033 C2243 1.593 . S
C7025 C922 1.584 . S
