# Generated by pormake.
# Topology pyr, (3,6)-cn, num edge types: 1
# Building blocks:
#     Node 0, Type 0, BuildingBlock: CUQRIR_clean_linker_1, # of connection points: 3
#     Node 1, Type 0, BuildingBlock: CUQRIR_clean_linker_1, # of connection points: 3
#     Node 2, Type 0, BuildingBlock: CUQRIR_clean_linker_1, # of connection points: 3
#     Node 3, Type 0, BuildingBlock: CUQRIR_clean_linker_1, # of connection points: 3
#     Node 4, Type 0, BuildingBlock: CUQRIR_clean_linker_1, # of connection points: 3
#     Node 5, Type 0, BuildingBlock: CUQRIR_clean_linker_1, # of connection points: 3
#     Node 6, Type 0, BuildingBlock: CUQRIR_clean_linker_1, # of connection points: 3
#     Node 7, Type 0, BuildingBlock: CUQRIR_clean_linker_1, # of connection points: 3
#     Node 8, Type 1, BuildingBlock: FUNLAD_clean_sbu_0, # of connection points: 6
#     Node 9, Type 1, BuildingBlock: FUNLAD_clean_sbu_0, # of connection points: 6
#     Node 10, Type 1, BuildingBlock: FUNLAD_clean_sbu_0, # of connection points: 6
#     Node 11, Type 1, BuildingBlock: FUNLAD_clean_sbu_0, # of connection points: 6
#     Edge 12, Type (0, 1), BuildingBlock: KIFKEQ_clean_linker_1, # of connection points: 2
#     Edge 13, Type (0, 1), BuildingBlock: KIFKEQ_clean_linker_1, # of connection points: 2
#     Edge 14, Type (0, 1), BuildingBlock: KIFKEQ_clean_linker_1, # of connection points: 2
#     Edge 15, Type (0, 1), BuildingBlock: KIFKEQ_clean_linker_1, # of connection points: 2
#     Edge 16, Type (0, 1), BuildingBlock: KIFKEQ_clean_linker_1, # of connection points: 2
#     Edge 17, Type (0, 1), BuildingBlock: KIFKEQ_clean_linker_1, # of connection points: 2
#     Edge 18, Type (0, 1), BuildingBlock: KIFKEQ_clean_linker_1, # of connection points: 2
#     Edge 19, Type (0, 1), BuildingBlock: KIFKEQ_clean_linker_1, # of connection points: 2
#     Edge 20, Type (0, 1), BuildingBlock: KIFKEQ_clean_linker_1, # of connection points: 2
#     Edge 21, Type (0, 1), BuildingBlock: KIFKEQ_clean_linker_1, # of connection points: 2
#     Edge 22, Type (0, 1), BuildingBlock: KIFKEQ_clean_linker_1, # of connection points: 2
#     Edge 23, Type (0, 1), BuildingBlock: KIFKEQ_clean_linker_1, # of connection points: 2
#     Edge 24, Type (0, 1), BuildingBlock: KIFKEQ_clean_linker_1, # of connection points: 2
#     Edge 25, Type (0, 1), BuildingBlock: KIFKEQ_clean_linker_1, # of connection points: 2
#     Edge 26, Type (0, 1), BuildingBlock: KIFKEQ_clean_linker_1, # of connection points: 2
#     Edge 27, Type (0, 1), BuildingBlock: KIFKEQ_clean_linker_1, # of connection points: 2
#     Edge 28, Type (0, 1), BuildingBlock: KIFKEQ_clean_linker_1, # of connection points: 2
#     Edge 29, Type (0, 1), BuildingBlock: KIFKEQ_clean_linker_1, # of connection points: 2
#     Edge 30, Type (0, 1), BuildingBlock: KIFKEQ_clean_linker_1, # of connection points: 2
#     Edge 31, Type (0, 1), BuildingBlock: KIFKEQ_clean_linker_1, # of connection points: 2
#     Edge 32, Type (0, 1), BuildingBlock: KIFKEQ_clean_linker_1, # of connection points: 2
#     Edge 33, Type (0, 1), BuildingBlock: KIFKEQ_clean_linker_1, # of connection points: 2
#     Edge 34, Type (0, 1), BuildingBlock: KIFKEQ_clean_linker_1, # of connection points: 2
#     Edge 35, Type (0, 1), BuildingBlock: KIFKEQ_clean_linker_1, # of connection points: 2
# Relax obj value: 0.186
# Max RMSD: 0.226
# Mean RMSD: 0.154
data_MOF--net-pry--node1-FUNLAD_clean_sbu_0--node2-CUQRIR_clean_linker_1--edge1-KIFKEQ_clean_linker_1
_symmetry_space_group_name_H-M    P1
_symmetry_Int_Tables_number       1
_symmetry_cell_setting            triclinic
loop_
_symmetry_equiv_pos_as_xyz
'x, y, z'
_cell_length_a     33.079662
_cell_length_b     35.130711
_cell_length_c     34.903605
_cell_angle_alpha  88.088988
_cell_angle_beta   92.27221
_cell_angle_gamma 85.619699
loop_
_atom_site_label
_atom_site_type_symbol
_atom_site_fract_x
_atom_site_fract_y
_atom_site_fract_z
_atom_type_partial_charge
C0 C 0.17701 0.26312 0.22451 0.0
N1 N 0.20371 0.23228 0.23258 0.0
N2 N 0.183 0.27902 0.18941 0.0
C3 C 0.14426 0.27704 0.25047 0.0
C4 C 0.2144 0.25666 0.17643 0.0
N5 N 0.22688 0.2281 0.20239 0.0
C6 C 0.23421 0.26389 0.13905 0.0
H7 H 0.11897 0.29349 0.23399 0.0
H8 H 0.15736 0.29591 0.27176 0.0
H9 H 0.1323 0.25272 0.26636 0.0
H10 H 0.23073 0.29466 0.13035 0.0
H11 H 0.21936 0.24764 0.11646 0.0
H12 H 0.26695 0.25419 0.14097 0.0
C13 C 0.4166 0.923 0.69708 0.0
N14 N 0.40791 0.9525 0.72031 0.0
N15 N 0.44483 0.89725 0.71394 0.0
C16 C 0.39483 0.91756 0.65907 0.0
C17 C 0.45253 0.91182 0.74884 0.0
N18 N 0.42999 0.94545 0.75294 0.0
C19 C 0.48289 0.89379 0.77846 0.0
H20 H 0.3625 0.92854 0.65945 0.0
H21 H 0.39614 0.88703 0.65176 0.0
H22 H 0.40944 0.93371 0.63627 0.0
H23 H 0.49874 0.91604 0.79355 0.0
H24 H 0.50548 0.87384 0.76525 0.0
H25 H 0.46663 0.87757 0.80003 0.0
C26 C 0.59609 0.52825 1.02147 0.0
N27 N 0.63439 0.51916 0.03606 0.0
N28 N 0.59515 0.5555 0.99293 0.0
C29 C 0.56067 0.50483 1.029 0.0
C30 C 0.63353 0.56639 0.99461 0.0
N31 N 0.6576 0.5437 1.01958 0.0
C32 C 0.64832 0.59635 0.96787 0.0
H33 H 0.5662 0.47596 1.01738 0.0
H34 H 0.53212 0.51882 1.01555 0.0
H35 H 0.55719 0.50132 0.06037 0.0
H36 H 0.62458 0.62024 0.96292 0.0
H37 H 0.65451 0.58374 0.93977 0.0
H38 H 0.67639 0.60772 0.97977 0.0
C39 C 0.92082 0.629 0.4687 0.0
N40 N 0.95162 0.64923 0.45722 0.0
N41 N 0.91178 0.63661 0.50529 0.0
C42 C 0.8959 0.60578 0.44264 0.0
C43 C 0.93864 0.66205 0.5157 0.0
N44 N 0.96302 0.66958 0.48657 0.0
C45 C 0.93704 0.68371 0.55212 0.0
H46 H 0.86788 0.62327 0.43264 0.0
H47 H 0.88678 0.58008 0.45839 0.0
H48 H 0.91297 0.59672 0.41734 0.0
H49 H 0.96799 0.68408 0.56547 0.0
H50 H 0.91713 0.67077 0.57296 0.0
H51 H 0.92546 0.71375 0.54524 0.0
C52 C 0.89008 0.9274 0.89402 0.0
N53 N 0.9218 0.92182 0.87086 0.0
N54 N 0.8707 0.96245 0.88732 0.0
C55 C 0.87882 0.89896 0.92435 0.0
C56 C 0.89207 0.97829 0.85938 0.0
N57 N 0.9234 0.95377 0.84935 0.0
C58 C 0.88089 1.01689 0.84029 0.0
H59 H 0.85788 0.87945 0.91113 0.0
H60 H 0.86339 0.91352 0.94808 0.0
H61 H 0.90588 0.88141 0.93647 0.0
H62 H 0.84836 0.02591 0.84349 0.0
H63 H 0.88728 1.01661 0.80932 0.0
H64 H 0.89947 0.03815 0.85386 0.0
C65 C 0.73207 0.25442 0.41614 0.0
N66 N 0.7407 0.2234 0.39479 0.0
N67 N 0.69343 0.26928 0.40881 0.0
C68 C 0.76079 0.26919 0.44565 0.0
C69 C 0.67865 0.24604 0.38229 0.0
N70 N 0.70715 0.21787 0.37388 0.0
C71 C 0.63733 0.25256 0.3625 0.0
H72 H 0.77979 0.24527 0.46041 0.0
H73 H 0.74411 0.28581 0.46731 0.0
H74 H 0.78119 0.28811 0.43104 0.0
H75 H 0.62448 0.28241 0.36514 0.0
H76 H 0.61666 0.23305 0.37588 0.0
H77 H 0.63883 0.24613 0.33166 0.0
C78 C 0.43232 0.6146 0.09515 0.0
N79 N 0.46179 0.63696 0.10642 0.0
N80 N 0.41704 0.62533 0.05949 0.0
C81 C 0.41248 0.58801 0.12197 0.0
C82 C 0.43958 0.65429 0.04916 0.0
N83 N 0.46591 0.66216 0.07794 0.0
C84 C 0.43199 0.67805 1.01256 0.0
H85 H 0.39981 0.56458 0.10595 0.0
H86 H 0.38721 0.60422 0.13577 0.0
H87 H 0.43451 0.57573 0.14474 0.0
H88 H 0.40743 0.70076 1.01633 0.0
H89 H 0.42206 0.65995 0.98903 0.0
H90 H 0.4598 0.69175 1.00469 0.0
C91 C 0.09937 0.52755 0.55877 0.0
N92 N 0.13646 0.51761 0.54529 0.0
N93 N 0.10076 0.55629 0.58364 0.0
C94 C 0.06355 0.50365 0.55466 0.0
C95 C 0.13921 0.56649 0.58107 0.0
N96 N 0.16118 0.54252 0.55886 0.0
C97 C 0.15621 0.59727 0.60439 0.0
H98 H 0.03583 0.51867 0.56559 0.0
H99 H 0.07007 0.476 0.57088 0.0
H100 H 0.05798 0.49745 0.52403 0.0
H101 H 0.16482 0.58566 0.63378 0.0
H102 H 0.13279 0.62131 0.60688 0.0
H103 H 0.18326 0.60809 0.59115 0.0
C104 C 0.1197 0.10329 0.4756 0.0
N105 N 0.09099 0.1657 0.57124 0.0
C106 C 0.12948 0.17581 0.5665 0.0
C107 C 0.13778 0.21395 0.5653 0.0
C108 C 0.10631 0.24227 0.56903 0.0
C109 C 0.06733 0.23136 0.57665 0.0
C110 C 0.06017 0.19249 0.57734 0.0
Zn111 Zn 0.0824 0.11096 0.55598 0.0
C112 C 1.0067 0.10653 0.50694 0.0
N113 N 0.07629 0.99964 0.51375 0.0
C114 C 0.10736 0.97893 0.49776 0.0
C115 C 0.04127 0.98382 0.52209 0.0
C116 C 0.03716 0.94534 0.51612 0.0
C117 C 0.06908 0.92308 0.50077 0.0
C118 C 0.10419 0.94028 0.4906 0.0
Zn119 Zn 0.08192 0.05395 0.53077 0.0
O120 O 0.11258 0.12478 0.50358 0.0
C121 C 0.15664 0.0592 0.58113 0.0
O122 O 0.10974 0.06906 0.47809 0.0
H123 H 1.01685 1.00082 0.53453 0.0
H124 H 0.15352 0.15455 0.56059 0.0
H125 H 0.13499 0.9921 0.49157 0.0
O126 O 0.13829 0.09172 0.5854 0.0
O127 O 0.14112 0.03657 0.55791 0.0
H128 H 0.02966 0.18401 0.58029 0.0
O129 O 0.05475 0.03912 0.58403 0.0
O130 O 0.05213 0.09611 0.60799 0.0
O131 O 0.02236 0.07247 0.50394 0.0
O132 O 0.02572 0.12934 0.52725 0.0
C133 C 0.04552 0.06081 0.61139 0.0
H134 H 0.16829 0.22131 0.55977 0.0
H135 H 0.0423 0.25265 0.57964 0.0
H136 H 1.00948 0.93291 0.52386 0.0
H137 H 0.12931 0.92372 0.47863 0.0
C138 C 0.62913 0.06115 0.03315 0.0
N139 N 0.57106 0.17109 0.03639 0.0
C140 C 0.61063 0.17871 0.04155 0.0
C141 C 0.6219 0.21596 0.0395 0.0
C142 C 0.59234 0.24632 0.03221 0.0
C143 C 0.55178 0.23782 1.02535 0.0
C144 C 0.54172 0.19972 1.02767 0.0
Zn145 Zn 0.55968 0.11646 0.05345 0.0
C146 C 0.51618 0.07041 0.99743 0.0
N147 N 0.54806 1.00441 0.09883 0.0
C148 C 0.58096 0.9815 0.11231 0.0
C149 C 0.51084 0.99078 0.09455 0.0
C150 C 0.50591 0.95236 0.10262 0.0
C151 C 0.53971 0.92768 0.11472 0.0
C152 C 0.5775 0.9427 0.12021 0.0
Zn153 Zn 0.55521 0.05857 0.07951 0.0
O154 O 0.6141 0.0953 1.02766 0.0
C155 C 0.59992 0.10322 0.13492 0.0
O156 O 0.61119 0.03875 0.0549 0.0
H157 H 0.48524 1.00939 0.08336 0.0
H158 H 0.63355 0.15615 0.05002 0.0
H159 H 0.61024 0.99302 0.11557 0.0
O160 O 0.59298 0.12672 0.10649 0.0
O161 O 0.58706 0.07014 0.13252 0.0
H162 H 0.51034 0.19328 1.0244 0.0
O163 O 0.49881 0.079 0.10364 0.0
O164 O 0.50436 0.13671 0.07945 0.0
O165 O 0.52397 0.04719 1.02611 0.0
O166 O 0.52641 0.10466 1.00009 0.0
C167 C 0.48491 0.11379 0.09942 0.0
H168 H 0.65332 0.22092 0.04594 0.0
H169 H 0.52797 0.26037 1.01936 0.0
H170 H 0.47637 0.9417 0.0975 0.0
H171 H 0.60417 0.92448 0.12964 0.0
C172 C 0.56479 0.50858 0.5221 0.0
N173 N 0.55561 0.54751 0.63505 0.0
C174 C 0.5322 0.52127 0.6507 0.0
C175 C 0.53166 0.51593 0.69055 0.0
C176 C 0.55618 0.53713 0.71399 0.0
C177 C 0.58165 0.56227 0.69712 0.0
C178 C 0.58052 0.56743 0.65745 0.0
Zn179 Zn 0.54698 0.56613 0.57916 0.0
C180 C 0.62201 0.59689 0.54855 0.0
N181 N 0.52682 0.61418 0.46599 0.0
C182 C 0.50436 0.59256 0.44303 0.0
C183 C 0.54327 0.64582 0.45174 0.0
C184 C 0.53751 0.6565 0.41276 0.0
C185 C 0.51415 0.63467 0.38871 0.0
C186 C 0.49739 0.60247 0.40433 0.0
Zn187 Zn 0.53661 0.5946 0.52157 0.0
O188 O 0.56295 0.51079 0.55833 0.0
C189 C 0.46125 0.56377 0.55117 0.0
O190 O 0.55519 0.53849 0.50097 0.0
H191 H 0.56126 0.66244 0.47046 0.0
H192 H 0.51245 0.50586 0.6325 0.0
H193 H 0.4923 0.56706 0.45459 0.0
O194 O 0.48483 0.55391 0.57997 0.0
O195 O 0.47518 0.58116 0.52274 0.0
H196 H 0.59785 0.5891 0.64485 0.0
O197 O 0.51942 0.65026 0.54349 0.0
O198 O 0.53146 0.62178 0.59996 0.0
O199 O 0.59747 0.60814 0.52086 0.0
O200 O 0.60913 0.57825 0.5768 0.0
C201 C 0.52105 0.65207 0.57994 0.0
H202 H 0.51179 0.49615 0.70293 0.0
H203 H 0.60066 0.57929 0.71457 0.0
H204 H 0.55094 0.68153 0.40159 0.0
H205 H 0.47985 0.58451 0.38654 0.0
C206 C 1.01671 0.66904 0.98931 0.0
N207 N 0.0256 0.62627 0.10476 0.0
C208 C 0.04081 0.65825 0.11868 0.0
C209 C 0.03445 0.66818 0.15667 0.0
C210 C 1.01204 0.64503 0.18012 0.0
C211 C 0.99727 0.61208 0.16495 0.0
C212 C 1.00436 0.60326 0.12721 0.0
Zn213 Zn 0.03325 0.60867 0.05017 0.0
C214 C 0.95496 0.58068 1.0188 0.0
N215 N 0.04524 0.5656 0.93862 0.0
C216 C 0.0695 0.58643 0.91693 0.0
C217 C 0.02274 0.5388 0.92275 0.0
C218 C 0.02347 0.53292 0.8833 0.0
C219 C 0.04816 0.55436 0.86064 0.0
C220 C 0.07179 0.58089 0.87787 0.0
Zn221 Zn 0.03895 0.58219 0.99363 0.0
O222 O 1.01844 0.66587 1.02585 0.0
C223 C 0.11723 0.60856 1.02633 0.0
O224 O 0.02314 0.63906 0.97034 0.0
H225 H 1.00331 0.52285 0.94037 0.0
H226 H 0.05778 0.67603 0.10034 0.0
H227 H 0.08604 0.60856 0.92953 0.0
O228 O 0.09527 0.61903 0.05372 0.0
O229 O 0.10114 0.59307 0.99777 0.0
H230 H 0.99284 0.57777 0.11588 0.0
O231 O 0.05553 0.52579 1.017 0.0
O232 O 0.04938 0.55119 0.07321 0.0
O233 O 0.97673 0.57047 0.9912 0.0
O234 O 0.97083 0.59787 0.04634 0.0
C235 C 0.05784 0.52199 0.05346 0.0
H236 H 0.04632 0.69386 0.16738 0.0
H237 H 0.98062 0.59297 0.18223 0.0
H238 H 1.00495 0.51212 0.87062 0.0
H239 H 0.09084 0.59812 0.86099 0.0
H240 H 0.23103 0.24648 0.30391 0.0
H241 H 0.17289 0.16364 0.23777 0.0
H242 H 0.21642 0.21222 0.36333 0.0
H243 H 0.15614 0.12981 0.29689 0.0
H244 H 0.14442 0.06542 0.41128 0.0
H245 H 0.17203 0.09234 0.35321 0.0
H246 H 0.16168 0.20431 0.40124 0.0
H247 H 0.13586 0.1772 0.45933 0.0
C248 C 0.216 0.22022 0.30226 0.0
C249 C 0.20381 0.20723 0.26635 0.0
C250 C 0.20679 0.20087 0.3363 0.0
C251 C 0.18425 0.1683 0.33548 0.0
C252 C 0.17383 0.15437 0.29918 0.0
C253 C 0.18354 0.17359 0.26512 0.0
C254 C 0.1484 0.09573 0.40952 0.0
C255 C 0.13786 0.11899 0.44025 0.0
C256 C 0.16406 0.11134 0.37598 0.0
C257 C 0.16947 0.15075 0.37201 0.0
C258 C 0.15908 0.17378 0.40303 0.0
C259 C 0.14379 0.15818 0.43652 0.0
H260 H 0.40334 0.93139 0.82355 0.0
H261 H 0.46452 1.01267 0.75704 0.0
H262 H 0.4186 0.96493 0.88199 0.0
H263 H 0.48195 0.0458 0.81558 0.0
H264 H 0.49695 0.99772 0.98348 0.0
H265 H 0.47205 0.9717 0.92459 0.0
H266 H 0.46745 0.08362 0.86867 0.0
H267 H 0.49425 0.10957 0.92808 0.0
C268 C 0.41948 0.95701 0.8215 0.0
C269 C 0.43221 0.96972 0.78572 0.0
C270 C 0.42899 0.97604 0.85513 0.0
C271 C 0.45245 1.00804 0.85428 0.0
C272 C 0.46365 1.02165 0.81792 0.0
C273 C 0.4536 1.00276 0.78417 0.0
C274 C 0.49043 1.01709 0.95883 0.0
C275 C 0.49773 0.05598 0.96101 0.0
C276 C 0.47565 1.00206 0.92472 0.0
C277 C 0.46707 0.02527 0.89119 0.0
C278 C 0.47389 0.06443 0.89342 0.0
C279 C 0.48904 0.07952 0.92775 0.0
H280 H 0.59711 0.49053 0.95496 0.0
H281 H 0.55139 0.60901 0.947 0.0
H282 H 0.5785 0.48344 0.88794 0.0
H283 H 0.53358 0.60211 0.87836 0.0
H284 H 0.49079 0.55515 0.75675 0.0
H285 H 0.49042 0.5591 0.82711 0.0
H286 H 0.61742 0.51952 0.83487 0.0
H287 H 0.61785 0.51623 0.76511 0.0
C288 C 0.58148 0.51471 0.93919 0.0
C289 C 0.57522 0.55029 0.95625 0.0
C290 C 0.57127 0.51071 0.9007 0.0
C291 C 0.55503 0.54227 0.87815 0.0
C292 C 0.54591 0.57732 0.89547 0.0
C293 C 0.5561 0.58133 0.93447 0.0
C294 C 0.5183 0.54675 0.77381 0.0
C295 C 0.55429 0.53498 0.756 0.0
C296 C 0.51816 0.54939 0.81374 0.0
C297 C 0.55382 0.53951 0.8361 0.0
C298 C 0.58945 0.52695 0.81815 0.0
C299 C 0.58976 0.52498 0.77843 0.0
H300 H 0.9038 0.68261 0.40016 0.0
H301 H 0.02401 0.63081 0.42734 0.0
H302 H 0.92 0.69032 0.33286 0.0
H303 H 0.04037 0.63657 0.35943 0.0
H304 H 0.06452 0.66884 0.2358 0.0
H305 H 0.05152 0.67676 0.30384 0.0
H306 H 0.92805 0.64788 0.28262 0.0
H307 H 0.9405 0.64194 0.21514 0.0
C308 C 0.93371 0.67277 0.39133 0.0
C309 C 0.96253 0.6555 0.41822 0.0
C310 C 0.94307 0.67704 0.35295 0.0
C311 C 0.98128 0.66344 0.34052 0.0
C312 C 1.01075 0.64759 0.36798 0.0
C313 C 1.00145 0.64391 0.40666 0.0
C314 C 0.03441 0.6651 0.24571 0.0
C315 C 1.00363 0.6544 0.22028 0.0
C316 C 0.02708 0.66917 0.2847 0.0
C317 C 0.9888 0.66277 0.29881 0.0
C318 C 0.95775 0.65356 0.27287 0.0
C319 C 0.965 0.64967 0.23415 0.0
H320 H 0.23421 0.16352 0.16309 0.0
H321 H 0.30136 0.2387 0.23126 0.0
H322 H 0.29795 0.13254 0.14134 0.0
H323 H 0.36535 0.20846 0.20934 0.0
H324 H 0.45694 0.18767 0.11195 0.0
H325 H 0.39541 0.21028 0.1435 0.0
H326 H 0.36484 0.09397 0.16107 0.0
H327 H 0.42682 0.07118 0.12994 0.0
C328 C 0.2628 0.17221 0.17466 0.0
C329 C 0.26303 0.20277 0.19957 0.0
C330 C 0.2993 0.15482 0.16195 0.0
C331 C 0.33686 0.16827 0.17322 0.0
C332 C 0.33702 0.19759 0.19979 0.0
C333 C 0.30052 0.21448 0.21293 0.0
C334 C 0.4372 0.16685 0.12256 0.0
C335 C 0.44696 0.12757 0.11827 0.0
C336 C 0.40203 0.17982 0.14097 0.0
C337 C 0.37521 0.15396 0.15511 0.0
C338 C 0.38474 0.11468 0.15053 0.0
C339 C 0.42034 0.10164 0.13271 0.0
H340 H 0.33606 0.96233 0.75407 0.0
H341 H 0.40644 1.00624 0.66396 0.0
H342 H 0.27371 0.99307 0.72203 0.0
H343 H 0.34437 0.0357 0.63114 0.0
H344 H 0.21901 1.00639 0.56536 0.0
H345 H 0.28157 0.98903 0.60443 0.0
H346 H 0.24171 0.0678 0.68978 0.0
H347 H 0.17993 0.08626 0.65031 0.0
C348 C 0.33836 0.98023 0.72851 0.0
C349 C 0.37605 0.9823 0.71167 0.0
C350 C 0.30271 0.99723 0.7098 0.0
C351 C 0.30424 1.01606 0.67371 0.0
C352 C 0.3423 1.02104 0.65871 0.0
C353 C 0.37783 1.00482 0.6778 0.0
C354 C 0.22365 1.0201 0.59235 0.0
C355 C 0.19456 0.04784 0.60455 0.0
C356 C 0.25947 1.01028 0.61464 0.0
C357 C 0.26646 0.02722 0.65006 0.0
C358 C 0.23711 0.0544 0.66261 0.0
C359 C 0.20184 0.06497 0.63989 0.0
H360 H 0.70652 0.5468 0.08271 0.0
H361 H 0.70715 0.53322 0.96065 0.0
H362 H 0.78033 0.55075 0.08468 0.0
H363 H 0.77989 0.53948 0.96159 0.0
H364 H 0.91589 0.53041 0.97508 0.0
H365 H 0.84566 0.51444 0.97823 0.0
H366 H 0.82641 0.59568 0.06738 0.0
H367 H 0.89701 0.61014 0.06539 0.0
C368 C 0.72269 0.54449 0.05641 0.0
C369 C 0.70136 0.54084 1.02145 0.0
C370 C 0.76477 0.54718 0.05731 0.0
C371 C 0.78621 0.54626 1.02315 0.0
C372 C 0.76478 0.54023 0.98853 0.0
C373 C 0.72296 0.53717 0.9878 0.0
C374 C 0.89661 0.54481 0.99534 0.0
C375 C 0.91197 0.57171 1.01979 0.0
C376 C 0.85624 0.53574 0.99713 0.0
C377 C 0.83006 0.55375 1.02305 0.0
C378 C 0.84566 0.58059 0.04758 0.0
C379 C 0.88613 0.58926 0.04614 0.0
H380 H 0.85258 0.69215 0.51099 0.0
H381 H 0.88301 0.57183 0.53271 0.0
H382 H 0.78235 0.68432 0.52722 0.0
H383 H 0.81239 0.56336 0.54838 0.0
H384 H 0.65694 0.64213 0.49645 0.0
H385 H 0.72839 0.65295 0.49231 0.0
H386 H 0.75678 0.58024 0.59352 0.0
H387 H 0.68491 0.56911 0.59766 0.0
C388 C 0.84418 0.66419 0.5202 0.0
C389 C 0.87278 0.63258 0.52094 0.0
C390 C 0.80407 0.65957 0.52905 0.0
C391 C 0.7918 0.62316 0.53868 0.0
C392 C 0.82103 0.5918 0.54132 0.0
C393 C 0.86125 0.5965 0.53235 0.0
C394 C 0.6783 0.6286 0.518 0.0
C395 C 0.66525 0.6047 0.54733 0.0
C396 C 0.71924 0.63502 0.51577 0.0
C397 C 0.74816 0.61758 0.54271 0.0
C398 C 0.73516 0.5939 0.57227 0.0
C399 C 0.69404 0.58768 0.5747 0.0
H400 H 0.17588 0.35023 0.21649 0.0
H401 H 0.1438 0.28417 0.11985 0.0
H402 H 0.14412 0.40816 0.18363 0.0
H403 H 0.11064 0.34157 0.08699 0.0
H404 H 0.09328 0.45773 1.02175 0.0
H405 H 0.12214 0.39901 0.05472 0.0
H406 H 0.08363 0.4427 0.16281 0.0
H407 H 0.05631 0.50188 0.12992 0.0
C408 C 0.1614 0.34817 0.18835 0.0
C409 C 0.16223 0.31283 0.17069 0.0
C410 C 0.14298 0.38132 0.16943 0.0
C411 C 0.12454 0.37999 0.13236 0.0
C412 C 0.12501 0.34422 0.11507 0.0
C413 C 0.14375 0.31118 0.13393 0.0
C414 C 0.09073 0.4547 0.05252 0.0
C415 C 0.07249 0.48473 0.07308 0.0
C416 C 0.10719 0.4208 0.07155 0.0
C417 C 0.1056 0.41572 0.11173 0.0
C418 C 0.08639 0.44553 0.13206 0.0
C419 C 0.0703 0.47952 0.11309 0.0
H420 H 0.62204 0.47898 0.10139 0.0
H421 H 0.67248 0.47056 0.98996 0.0
H422 H 0.61794 0.40956 0.10484 0.0
H423 H 0.66805 0.40206 0.99256 0.0
H424 H 0.66144 0.27595 1.00746 0.0
H425 H 0.68382 0.3393 1.01742 0.0
H426 H 0.57155 0.37129 0.07152 0.0
H427 H 0.55031 0.30704 0.06379 0.0
C428 C 0.63411 0.46195 0.07856 0.0
C429 C 0.64773 0.47991 0.04553 0.0
C430 C 0.63101 0.4224 0.08006 0.0
C431 C 0.64163 0.4003 0.0485 0.0
C432 C 0.65971 0.41792 1.01749 0.0
C433 C 0.66283 0.45728 1.01614 0.0
C434 C 0.64167 0.29633 1.02188 0.0
C435 C 0.60401 0.28628 0.03481 0.0
C436 C 0.65446 0.3328 1.02741 0.0
C437 C 0.62973 0.36042 0.04561 0.0
C438 C 0.59186 0.35053 0.05819 0.0
C439 C 0.57921 0.31389 0.05295 0.0
H440 H 0.94677 0.73269 0.44142 0.0
H441 H 0.03211 0.67959 0.52708 0.0
H442 H 0.98342 0.79041 0.44115 0.0
H443 H 0.06836 0.73822 0.5282 0.0
H444 H 0.05884 0.87089 0.5575 0.0
H445 H 0.04219 0.8048 0.55067 0.0
H446 H 0.05288 0.8169 0.42802 0.0
H447 H 0.07018 0.88319 0.4351 0.0
C448 C 0.97418 0.73311 0.45931 0.0
C449 C 0.98717 0.70179 0.48385 0.0
C450 C 0.99508 0.76609 0.45929 0.0
C451 C 0.02885 0.76862 0.48447 0.0
C452 C 0.04245 0.73687 0.50844 0.0
C453 C 0.02185 0.70356 0.50792 0.0
C454 C 0.05853 0.85902 0.52923 0.0
C455 C 0.06551 0.88184 0.49677 0.0
C456 C 0.0493 0.82124 0.52534 0.0
C457 C 0.04622 0.80586 0.48882 0.0
C458 C 0.05505 0.8282 0.45647 0.0
C459 C 0.06501 0.86591 0.46047 0.0
H460 H 0.48414 0.8906 0.64811 0.0
H461 H 0.44104 0.82501 0.74222 0.0
H462 H 0.50414 0.83176 0.61578 0.0
H463 H 0.45998 0.76578 0.70988 0.0
H464 H 0.52818 0.66446 0.65674 0.0
H465 H 0.51329 0.72323 0.68999 0.0
H466 H 0.47627 0.78162 0.58194 0.0
H467 H 0.49241 0.72269 0.54841 0.0
C468 C 0.4794 0.86337 0.66198 0.0
C469 C 0.46133 0.86226 0.69772 0.0
C470 C 0.49036 0.8296 0.6433 0.0
C471 C 0.48342 0.79365 0.65981 0.0
C472 C 0.46633 0.79268 0.69627 0.0
C473 C 0.4555 0.82656 0.71498 0.0
C474 C 0.51688 0.6898 0.63991 0.0
C475 C 0.51149 0.68862 0.59971 0.0
C476 C 0.50806 0.72363 0.65915 0.0
C477 C 0.49338 0.75753 0.63893 0.0
C478 C 0.48806 0.7564 0.59864 0.0
C479 C 0.49706 0.72246 0.57931 0.0
H480 H 0.97942 1.00533 0.84779 0.0
H481 H 0.92454 0.92154 0.78027 0.0
H482 H 1.01111 0.03022 0.79096 0.0
H483 H 0.95482 0.94678 0.72271 0.0
H484 H 0.0347 0.98559 0.62782 0.0
H485 H 1.0111 0.95643 0.68605 0.0
H486 H 0.9945 0.06774 0.73468 0.0
H487 H 1.01965 0.09683 0.67652 0.0
C488 C 0.97522 0.99153 0.8208 0.0
C489 C 0.9503 0.96095 0.81861 0.0
C490 C 0.99263 1.00629 0.78792 0.0
C491 C 0.98526 0.99117 0.75158 0.0
C492 C 0.9618 0.9592 0.74991 0.0
C493 C 0.9446 0.94434 0.78297 0.0
C494 C 0.026 1.00403 0.65085 0.0
C495 C 0.02916 0.04379 0.64713 0.0
C496 C 1.01217 0.98715 0.68445 0.0
C497 C 1.00071 1.00938 0.71565 0.0
C498 C 1.00364 0.04928 0.71183 0.0
C499 C 1.01774 0.06618 0.67818 0.0
H500 H 0.74679 0.21549 0.30776 0.0
H501 H 0.65499 0.16284 0.37003 0.0
H502 H 0.72602 0.18331 0.24957 0.0
H503 H 0.63349 0.13097 0.31224 0.0
H504 H 0.61366 0.0637 0.2045 0.0
H505 H 0.64657 0.08505 0.2632 0.0
H506 H 0.66806 0.19143 0.2048 0.0
H507 H 0.63576 0.16999 0.14631 0.0
C508 C 0.7231 0.19591 0.30923 0.0
C509 C 0.70281 0.19127 0.34344 0.0
C510 C 0.71062 0.17796 0.27579 0.0
C511 C 0.67756 0.15478 0.27578 0.0
C512 C 0.65918 0.14823 0.31089 0.0
C513 C 0.67155 0.16635 0.34416 0.0
C514 C 0.6257 0.09152 0.20409 0.0
C515 C 0.62179 0.11509 0.1705 0.0
C516 C 0.64448 0.10389 0.23789 0.0
C517 C 0.6602 0.14007 0.23906 0.0
C518 C 0.65703 0.16319 0.20513 0.0
C519 C 0.63809 0.15096 0.1715 0.0
H520 H 0.42088 0.68266 0.15351 0.0
H521 H 0.52699 0.60471 0.14711 0.0
H522 H 0.43604 0.69004 0.22205 0.0
H523 H 0.54234 0.61117 0.21602 0.0
H524 H 0.57127 0.64957 0.33685 0.0
H525 H 0.56127 0.65612 0.26684 0.0
H526 H 0.43283 0.64591 0.27759 0.0
H527 H 0.4428 0.63997 0.34706 0.0
C528 C 0.44768 0.66746 0.16708 0.0
C529 C 0.4728 0.64304 0.14579 0.0
C530 C 0.45634 0.67149 0.20608 0.0
C531 C 0.49025 0.65101 0.22445 0.0
C532 C 0.51624 0.62762 0.20258 0.0
C533 C 0.50746 0.62363 0.16344 0.0
C534 C 0.54086 0.64961 0.32413 0.0
C535 C 0.5078 0.64412 0.3472 0.0
C536 C 0.53519 0.65297 0.28416 0.0
C537 C 0.49631 0.65136 0.26675 0.0
C538 C 0.46309 0.64765 0.2901 0.0
C539 C 0.4688 0.64399 0.32986 0.0
H540 H 0.05554 0.61185 0.6186 0.0
H541 H 0.10767 0.49564 0.63211 0.0
H542 H 0.03571 0.60924 0.68613 0.0
H543 H 0.08745 0.49265 0.69818 0.0
H544 H 0.1137 0.5322 0.82121 0.0
H545 H 0.11908 0.53197 0.75169 0.0
H546 H 0.99174 0.56898 0.73656 0.0
H547 H 0.98633 0.56874 0.80682 0.0
C548 C 0.06157 0.58559 0.63569 0.0
C549 C 0.08262 0.55385 0.62033 0.0
C550 C 0.05023 0.58398 0.674 0.0
C551 C 0.0603 0.55074 0.69712 0.0
C552 C 0.07948 0.51858 0.68096 0.0
C553 C 0.0907 0.5202 0.64313 0.0
C554 C 0.08679 0.53966 0.80297 0.0
C555 C 0.04957 0.55003 0.81897 0.0
C556 C 0.0898 0.53964 0.76335 0.0
C557 C 0.05576 0.55046 0.73898 0.0
C558 C 1.01834 0.56066 0.75491 0.0
C559 C 1.01517 0.56011 0.79482 0.0
H560 H 0.7988 0.93191 0.89319 0.0
H561 H 0.86336 0.02905 0.92393 0.0
H562 H 0.74085 0.95619 0.92915 0.0
H563 H 0.80543 0.05381 0.96001 0.0
H564 H 0.67673 0.10311 0.98831 0.0
H565 H 0.73477 0.08031 0.95209 0.0
H566 H 0.72321 0.96538 0.99581 0.0
H567 H 0.66481 0.9881 0.03173 0.0
C568 C 0.8004 0.95855 0.90768 0.0
C569 C 0.83547 0.97858 0.90598 0.0
C570 C 0.76739 0.9724 0.92844 0.0
C571 C 0.76853 1.00682 0.94784 0.0
C572 C 0.80334 0.02737 0.94523 0.0
C573 C 0.83648 1.01333 0.92457 0.0
C574 C 0.68664 0.07298 0.99037 0.0
C575 C 0.66596 0.04744 1.01293 0.0
C576 C 0.72009 0.05993 0.96969 0.0
C577 C 0.73364 1.02096 0.97082 0.0
C578 C 0.71327 0.9955 0.99379 0.0
C579 C 0.67994 1.00857 1.01465 0.0
H580 H 0.81426 0.24373 0.37629 0.0
H581 H 0.75252 0.15076 0.42349 0.0
H582 H 0.87959 0.21233 0.39962 0.0
H583 H 0.81796 0.11886 0.44731 0.0
H584 H 0.97257 0.17983 0.49871 0.0
H585 H 0.90937 0.20337 0.46503 0.0
H586 H 0.88755 0.08851 0.43432 0.0
H587 H 0.95145 0.06469 0.46829 0.0
C588 C 0.81495 0.21581 0.39052 0.0
C589 C 0.77843 0.19953 0.3978 0.0
C590 C 0.85228 0.19803 0.40446 0.0
C591 C 0.85419 0.16333 0.42614 0.0
C592 C 0.81781 0.14549 0.43074 0.0
C593 C 0.7803 0.16351 0.41683 0.0
C594 C 0.95448 0.15942 0.4848 0.0
C595 C 0.9674 0.12026 0.48634 0.0
C596 C 0.91822 0.17304 0.4651 0.0
C597 C 0.8933 0.14799 0.44646 0.0
C598 C 0.90585 0.10868 0.44832 0.0
C599 C 0.94258 0.09503 0.46773 0.0
H600 H 0.38035 0.5664 1.02908 0.0
H601 H 0.359 0.68119 0.06734 0.0
H602 H 0.30672 0.56271 1.0184 0.0
H603 H 0.28616 0.67838 0.05585 0.0
H604 H 0.17292 0.58563 0.97427 0.0
H605 H 0.24623 0.59016 0.97873 0.0
H606 H 0.23469 0.64415 0.08758 0.0
H607 H 0.16153 0.64015 0.08298 0.0
C608 C 0.3598 0.591 0.03429 0.0
C609 C 0.37489 0.62421 0.04841 0.0
C610 C 0.31789 0.58904 1.02822 0.0
C611 C 0.29069 0.62022 0.03656 0.0
C612 C 0.30624 0.65374 0.04965 0.0
C613 C 0.34784 0.6556 0.0557 0.0
C614 C 0.18601 0.59867 0.99906 0.0
C615 C 0.16139 0.61266 1.02825 0.0
C616 C 0.22802 0.60099 1.00169 0.0
C617 C 0.24618 0.61755 0.03343 0.0
C618 C 0.2215 0.63171 0.06248 0.0
C619 C 0.17959 0.6293 0.05992 0.0
H620 H 0.21639 0.53615 0.61838 0.0
H621 H 0.20408 0.53903 0.49507 0.0
H622 H 0.28956 0.53796 0.61522 0.0
H623 H 0.27804 0.53846 0.49129 0.0
H624 H 0.40082 0.59159 0.49996 0.0
H625 H 0.32902 0.58139 0.50078 0.0
H626 H 0.35188 0.50621 0.60119 0.0
H627 H 0.42361 0.51782 0.60124 0.0
C628 C 0.22961 0.53714 0.59054 0.0
C629 C 0.20476 0.539 0.55689 0.0
C630 C 0.27164 0.53747 0.58863 0.0
C631 C 0.28993 0.53888 0.55295 0.0
C632 C 0.26502 0.53836 0.51926 0.0
C633 C 0.2228 0.53836 0.52128 0.0
C634 C 0.39056 0.57277 0.52216 0.0
C635 C 0.4179 0.55579 0.55075 0.0
C636 C 0.34933 0.56661 0.52243 0.0
C637 C 0.33439 0.54299 0.55108 0.0
C638 C 0.36204 0.52514 0.57907 0.0
C639 C 0.40326 0.53165 0.57903 0.0
H640 H 0.99134 0.91142 0.91354 0.0
H641 H 0.91103 0.85512 0.83839 0.0
H642 H 1.01984 0.84932 0.94059 0.0
H643 H 0.93888 0.79295 0.86505 0.0
H644 H 1.00807 0.68324 0.91167 0.0
H645 H 0.99438 0.74431 0.87667 0.0
H646 H 0.99225 0.80225 0.98379 0.0
H647 H 1.00642 0.74092 1.01897 0.0
C648 C 0.98147 0.88559 0.9013 0.0
C649 C 0.94965 0.88806 0.87322 0.0
C650 C 0.99695 0.84998 0.91747 0.0
C651 C 0.98117 0.8159 0.90567 0.0
C652 C 0.95205 0.81835 0.8749 0.0
C653 C 0.93644 0.85398 0.85905 0.0
C654 C 1.00476 0.70895 0.92792 0.0
C655 C 1.00816 0.7069 0.96835 0.0
C656 C 0.99683 0.74411 0.90771 0.0
C657 C 0.99227 0.7785 0.92719 0.0
C658 C 0.99618 0.77653 0.96764 0.0
C659 C 1.00391 0.74125 0.98793 0.0
H660 H 0.42072 0.72858 0.07802 0.0
H661 H 0.54313 0.67794 0.09447 0.0
H662 H 0.44333 0.79093 0.09242 0.0
H663 H 0.56636 0.74073 0.11048 0.0
H664 H 0.58782 0.87102 0.08415 0.0
H665 H 0.57365 0.80413 0.07877 0.0
H666 H 0.46852 0.82389 0.14716 0.0
H667 H 0.48228 0.89086 0.15179 0.0
C668 C 0.45272 0.73119 0.08402 0.0
C669 C 0.48056 0.69908 0.08382 0.0
C670 C 0.4656 0.76663 0.09317 0.0
C671 C 0.50661 0.7707 0.10293 0.0
C672 C 0.53462 0.73845 0.10282 0.0
C673 C 0.52154 0.70275 0.09359 0.0
C674 C 0.5623 0.86075 0.09882 0.0
C675 C 0.53578 0.88609 0.11796 0.0
C676 C 0.5542 0.82247 0.09575 0.0
C677 C 0.51954 0.80898 0.11191 0.0
C678 C 0.49489 0.83374 0.13358 0.0
C679 C 0.5028 0.87198 0.13638 0.0
H680 H 0.17696 0.47037 0.5972 0.0
H681 H 0.12009 0.47569 0.48385 0.0
H682 H 0.17411 0.4012 0.60045 0.0
H683 H 0.11696 0.40599 0.48686 0.0
H684 H 0.14138 0.27297 0.50738 0.0
H685 H 0.15825 0.3391 0.49686 0.0
H686 H 0.10639 0.36846 0.60457 0.0
H687 H 0.08924 0.30233 0.61495 0.0
C688 C 0.16589 0.45635 0.57215 0.0
C689 C 0.14897 0.47808 0.54017 0.0
C690 C 0.16346 0.41695 0.5743 0.0
C691 C 0.14444 0.39854 0.54429 0.0
C692 C 0.13164 0.41963 0.51045 0.0
C693 C 0.13379 0.45929 0.50848 0.0
C694 C 0.13361 0.29367 0.52876 0.0
C695 C 0.11424 0.28271 0.56211 0.0
C696 C 0.14318 0.33137 0.52266 0.0
C697 C 0.13414 0.35859 0.55014 0.0
C698 C 0.11429 0.34774 0.58326 0.0
C699 C 0.10412 0.31015 0.58906 0.0
H700 H 0.71641 0.34117 0.40311 0.0
H701 H 0.62559 0.27361 0.44964 0.0
H702 H 0.68336 0.3987 0.42995 0.0
H703 H 0.59233 0.331 0.47696 0.0
H704 H 0.5882 0.49844 0.44846 0.0
H705 H 0.61805 0.44039 0.4208 0.0
H706 H 0.60715 0.37837 0.52821 0.0
H707 H 0.57756 0.43662 0.55615 0.0
C708 C 0.6893 0.3388 0.41914 0.0
C709 C 0.67347 0.30312 0.42435 0.0
C710 C 0.67022 0.37166 0.43434 0.0
C711 C 0.6351 0.36956 0.45563 0.0
C712 C 0.61943 0.33366 0.46097 0.0
C713 C 0.63824 0.30087 0.44523 0.0
C714 C 0.59187 0.47241 0.4662 0.0
C715 C 0.58042 0.47236 0.50463 0.0
C716 C 0.60927 0.43914 0.45035 0.0
C717 C 0.61521 0.40467 0.47228 0.0
C718 C 0.60281 0.40433 0.51041 0.0
C719 C 0.58595 0.43779 0.52648 0.0
loop_
_geom_bond_atom_site_label_1
_geom_bond_atom_site_label_2
_geom_bond_distance
_geom_bond_site_symmetry_2
_ccdc_geom_bond_type
C0 N1 1.317 . S
C0 N2 1.348 . S
C0 C3 1.485 . S
N1 C0 1.317 . S
N1 N5 1.370 . S
N2 C0 1.348 . S
N2 C4 1.346 . S
C3 C0 1.485 . S
C3 H7 0.960 . S
C3 H8 0.961 . S
C3 H9 0.960 . S
C4 N2 1.346 . S
C4 N5 1.307 . S
C4 C6 1.486 . S
N5 N1 1.370 . S
N5 C4 1.307 . S
C6 C4 1.486 . S
C6 H10 0.960 . S
C6 H11 0.960 . S
C6 H12 0.959 . S
H7 C3 0.960 . S
H8 C3 0.961 . S
H9 C3 0.960 . S
H10 C6 0.960 . S
H11 C6 0.960 . S
H12 C6 0.959 . S
C13 N14 1.317 . S
C13 N15 1.348 . S
C13 C16 1.485 . S
N14 C13 1.317 . S
N14 N18 1.370 . S
N15 C13 1.348 . S
N15 C17 1.346 . S
C16 C13 1.485 . S
C16 H20 0.960 . S
C16 H21 0.961 . S
C16 H22 0.960 . S
C17 N15 1.346 . S
C17 N18 1.307 . S
C17 C19 1.486 . S
N18 N14 1.370 . S
N18 C17 1.307 . S
C19 C17 1.486 . S
C19 H23 0.960 . S
C19 H24 0.960 . S
C19 H25 0.959 . S
H20 C16 0.960 . S
H21 C16 0.961 . S
H22 C16 0.960 . S
H23 C19 0.960 . S
H24 C19 0.960 . S
H25 C19 0.959 . S
C26 N27 1.317 . S
C26 N28 1.348 . S
C26 C29 1.485 . S
N27 C26 1.317 . S
N27 N31 1.370 . S
N28 C26 1.348 . S
N28 C30 1.346 . S
C29 C26 1.485 . S
C29 H33 0.960 . S
C29 H34 0.961 . S
C29 H35 0.960 . S
C30 N28 1.346 . S
C30 N31 1.307 . S
C30 C32 1.486 . S
N31 N27 1.370 . S
N31 C30 1.307 . S
C32 C30 1.486 . S
C32 H36 0.960 . S
C32 H37 0.960 . S
C32 H38 0.959 . S
H33 C29 0.960 . S
H34 C29 0.961 . S
H35 C29 0.960 . S
H36 C32 0.960 . S
H37 C32 0.960 . S
H38 C32 0.959 . S
C39 N40 1.317 . S
C39 N41 1.348 . S
C39 C42 1.485 . S
N40 C39 1.317 . S
N40 N44 1.370 . S
N41 C39 1.348 . S
N41 C43 1.346 . S
C42 C39 1.485 . S
C42 H46 0.960 . S
C42 H47 0.961 . S
C42 H48 0.960 . S
C43 N41 1.346 . S
C43 N44 1.307 . S
C43 C45 1.486 . S
N44 N40 1.370 . S
N44 C43 1.307 . S
C45 C43 1.486 . S
C45 H49 0.960 . S
C45 H50 0.960 . S
C45 H51 0.959 . S
H46 C42 0.960 . S
H47 C42 0.961 . S
H48 C42 0.960 . S
H49 C45 0.960 . S
H50 C45 0.960 . S
H51 C45 0.959 . S
C52 N53 1.317 . S
C52 N54 1.348 . S
C52 C55 1.485 . S
N53 C52 1.317 . S
N53 N57 1.370 . S
N54 C52 1.348 . S
N54 C56 1.346 . S
C55 C52 1.485 . S
C55 H59 0.960 . S
C55 H60 0.961 . S
C55 H61 0.960 . S
C56 N54 1.346 . S
C56 N57 1.307 . S
C56 C58 1.486 1_565 S
N57 N53 1.370 . S
N57 C56 1.307 . S
C58 C56 1.486 1_545 S
C58 H62 0.960 . S
C58 H63 0.960 . S
C58 H64 0.959 . S
H59 C55 0.960 . S
H60 C55 0.961 . S
H61 C55 0.960 . S
H62 C58 0.960 . S
H63 C58 0.960 . S
H64 C58 0.959 . S
C65 N66 1.317 . S
C65 N67 1.348 . S
C65 C68 1.485 . S
N66 C65 1.317 . S
N66 N70 1.370 . S
N67 C65 1.348 . S
N67 C69 1.346 . S
C68 C65 1.485 . S
C68 H72 0.960 . S
C68 H73 0.961 . S
C68 H74 0.960 . S
C69 N67 1.346 . S
C69 N70 1.307 . S
C69 C71 1.486 . S
N70 N66 1.370 . S
N70 C69 1.307 . S
C71 C69 1.486 . S
C71 H75 0.960 . S
C71 H76 0.960 . S
C71 H77 0.959 . S
H72 C68 0.960 . S
H73 C68 0.961 . S
H74 C68 0.960 . S
H75 C71 0.960 . S
H76 C71 0.960 . S
H77 C71 0.959 . S
C78 N79 1.317 . S
C78 N80 1.348 . S
C78 C81 1.485 . S
N79 C78 1.317 . S
N79 N83 1.370 . S
N80 C78 1.348 . S
N80 C82 1.346 . S
C81 C78 1.485 . S
C81 H85 0.960 . S
C81 H86 0.961 . S
C81 H87 0.960 . S
C82 N80 1.346 . S
C82 N83 1.307 . S
C82 C84 1.486 . S
N83 N79 1.370 . S
N83 C82 1.307 . S
C84 C82 1.486 . S
C84 H88 0.960 . S
C84 H89 0.960 . S
C84 H90 0.959 . S
H85 C81 0.960 . S
H86 C81 0.961 . S
H87 C81 0.960 . S
H88 C84 0.960 . S
H89 C84 0.960 . S
H90 C84 0.959 . S
C91 N92 1.317 . S
C91 N93 1.348 . S
C91 C94 1.485 . S
N92 C91 1.317 . S
N92 N96 1.370 . S
N93 C91 1.348 . S
N93 C95 1.346 . S
C94 C91 1.485 . S
C94 H98 0.960 . S
C94 H99 0.961 . S
C94 H100 0.960 . S
C95 N93 1.346 . S
C95 N96 1.307 . S
C95 C97 1.486 . S
N96 N92 1.370 . S
N96 C95 1.307 . S
C97 C95 1.486 . S
C97 H101 0.960 . S
C97 H102 0.960 . S
C97 H103 0.959 . S
H98 C94 0.960 . S
H99 C94 0.961 . S
H100 C94 0.960 . S
H101 C97 0.960 . S
H102 C97 0.960 . S
H103 C97 0.959 . S
C104 O120 1.251 . S
C104 O122 1.254 . S
N105 C106 1.333 . S
N105 C110 1.307 . S
N105 Zn111 2.020 . S
C106 N105 1.333 . S
C106 C107 1.379 . S
C106 H124 0.952 . S
C107 C106 1.379 . S
C107 C108 1.390 . S
C107 H134 0.949 . S
C108 C107 1.390 . S
C108 C109 1.357 . S
C109 C108 1.357 . S
C109 C110 1.370 . S
C109 H135 0.950 . S
C110 N105 1.307 . S
C110 C109 1.370 . S
C110 H128 0.948 . S
Zn111 N105 2.020 . S
Zn111 O120 2.039 . S
Zn111 O126 2.034 . S
Zn111 O130 2.025 . S
Zn111 O132 2.024 . S
C112 O131 1.246 1_655 S
C112 O132 1.249 1_655 S
N113 C114 1.307 . S
N113 C115 1.333 . S
N113 Zn119 2.020 1_565 S
C114 N113 1.307 . S
C114 C118 1.370 . S
C114 H125 0.948 . S
C115 N113 1.333 . S
C115 C116 1.379 1_455 S
C115 H123 0.952 . S
C116 C115 1.379 1_655 S
C116 C117 1.390 1_655 S
C116 H136 0.949 . S
C117 C116 1.390 1_455 S
C117 C118 1.357 . S
C118 C114 1.370 . S
C118 C117 1.357 . S
C118 H137 0.950 . S
Zn119 N113 2.020 1_545 S
Zn119 O122 2.025 . S
Zn119 O127 2.024 . S
Zn119 O129 2.039 . S
Zn119 O131 2.034 . S
O120 C104 1.251 . S
O120 Zn111 2.039 . S
C121 O126 1.246 . S
C121 O127 1.249 . S
O122 C104 1.254 . S
O122 Zn119 2.025 . S
H123 C115 0.952 . S
H124 C106 0.952 . S
H125 C114 0.948 . S
O126 Zn111 2.034 . S
O126 C121 1.246 . S
O127 Zn119 2.024 . S
O127 C121 1.249 . S
H128 C110 0.948 . S
O129 Zn119 2.039 . S
O129 C133 1.251 . S
O130 Zn111 2.025 . S
O130 C133 1.254 . S
O131 C112 1.246 1_455 S
O131 Zn119 2.034 . S
O132 Zn111 2.024 . S
O132 C112 1.249 1_455 S
C133 O129 1.251 . S
C133 O130 1.254 . S
H134 C107 0.949 . S
H135 C109 0.950 . S
H136 C116 0.949 . S
H137 C118 0.950 . S
C138 O154 1.251 . S
C138 O156 1.254 . S
N139 C140 1.333 . S
N139 C144 1.307 1_554 S
N139 Zn145 2.020 . S
C140 N139 1.333 . S
C140 C141 1.379 . S
C140 H158 0.952 . S
C141 C140 1.379 . S
C141 C142 1.390 1_554 S
C141 H168 0.949 . S
C142 C141 1.390 1_556 S
C142 C143 1.357 . S
C143 C142 1.357 . S
C143 C144 1.370 . S
C143 H169 0.950 . S
C144 N139 1.307 1_556 S
C144 C143 1.370 . S
C144 H162 0.948 . S
Zn145 N139 2.020 . S
Zn145 O154 2.039 . S
Zn145 O160 2.034 . S
Zn145 O164 2.025 . S
Zn145 O166 2.024 1_554 S
C146 O165 1.242 1_556 S
C146 O166 1.249 . S
N147 C148 1.307 . S
N147 C149 1.333 . S
N147 Zn153 2.020 1_565 S
C148 N147 1.307 . S
C148 C152 1.370 . S
C148 H159 0.948 . S
C149 N147 1.333 . S
C149 C150 1.379 . S
C149 H157 0.952 . S
C150 C149 1.379 . S
C150 C151 1.390 . S
C150 H170 0.949 . S
C151 C150 1.390 . S
C151 C152 1.357 . S
C152 C148 1.370 . S
C152 C151 1.357 . S
C152 H171 0.950 . S
Zn153 N147 2.020 1_545 S
Zn153 O156 2.025 . S
Zn153 O161 2.024 . S
Zn153 O163 2.039 . S
Zn153 O165 2.039 . S
O154 C138 1.251 . S
O154 Zn145 2.039 . S
C155 O160 1.246 . S
C155 O161 1.249 . S
O156 C138 1.254 . S
O156 Zn153 2.025 . S
H157 C149 0.952 . S
H158 C140 0.952 . S
H159 C148 0.948 . S
O160 Zn145 2.034 . S
O160 C155 1.246 . S
O161 Zn153 2.024 . S
O161 C155 1.249 . S
H162 C144 0.948 . S
O163 Zn153 2.039 . S
O163 C167 1.251 . S
O164 Zn145 2.025 . S
O164 C167 1.254 . S
O165 C146 1.242 1_554 S
O165 Zn153 2.039 . S
O166 Zn145 2.024 1_556 S
O166 C146 1.249 . S
C167 O163 1.251 . S
C167 O164 1.254 . S
H168 C141 0.949 . S
H169 C143 0.950 . S
H170 C150 0.949 . S
H171 C152 0.950 . S
C172 O188 1.251 . S
C172 O190 1.254 . S
N173 C174 1.333 . S
N173 C178 1.307 . S
N173 Zn179 2.020 . S
C174 N173 1.333 . S
C174 C175 1.379 . S
C174 H192 0.952 . S
C175 C174 1.379 . S
C175 C176 1.390 . S
C175 H202 0.949 . S
C176 C175 1.390 . S
C176 C177 1.357 . S
C177 C176 1.357 . S
C177 C178 1.370 . S
C177 H203 0.950 . S
C178 N173 1.307 . S
C178 C177 1.370 . S
C178 H196 0.948 . S
Zn179 N173 2.020 . S
Zn179 O188 2.039 . S
Zn179 O194 2.034 . S
Zn179 O198 2.025 . S
Zn179 O200 2.024 . S
C180 O199 1.246 . S
C180 O200 1.249 . S
N181 C182 1.307 . S
N181 C183 1.333 . S
N181 Zn187 2.020 . S
C182 N181 1.307 . S
C182 C186 1.370 . S
C182 H193 0.948 . S
C183 N181 1.333 . S
C183 C184 1.379 . S
C183 H191 0.952 . S
C184 C183 1.379 . S
C184 C185 1.390 . S
C184 H204 0.949 . S
C185 C184 1.390 . S
C185 C186 1.357 . S
C186 C182 1.370 . S
C186 C185 1.357 . S
C186 H205 0.950 . S
Zn187 N181 2.020 . S
Zn187 O190 2.025 . S
Zn187 O195 2.024 . S
Zn187 O197 2.039 . S
Zn187 O199 2.034 . S
O188 C172 1.251 . S
O188 Zn179 2.039 . S
C189 O194 1.246 . S
C189 O195 1.249 . S
O190 C172 1.254 . S
O190 Zn187 2.025 . S
H191 C183 0.952 . S
H192 C174 0.952 . S
H193 C182 0.948 . S
O194 Zn179 2.034 . S
O194 C189 1.246 . S
O195 Zn187 2.024 . S
O195 C189 1.249 . S
H196 C178 0.948 . S
O197 Zn187 2.039 . S
O197 C201 1.251 . S
O198 Zn179 2.025 . S
O198 C201 1.254 . S
O199 C180 1.246 . S
O199 Zn187 2.034 . S
O200 Zn179 2.024 . S
O200 C180 1.249 . S
C201 O197 1.251 . S
C201 O198 1.254 . S
H202 C175 0.949 . S
H203 C177 0.950 . S
H204 C184 0.949 . S
H205 C186 0.950 . S
C206 O222 1.251 1_556 S
C206 O224 1.254 1_655 S
N207 C208 1.333 . S
N207 C212 1.307 . S
N207 Zn213 2.020 1_655 S
C208 N207 1.333 . S
C208 C209 1.379 . S
C208 H226 0.952 . S
C209 C208 1.379 . S
C209 C210 1.390 . S
C209 H236 0.949 . S
C210 C209 1.390 . S
C210 C211 1.357 . S
C211 C210 1.357 . S
C211 C212 1.370 . S
C211 H237 0.950 . S
C212 N207 1.307 . S
C212 C211 1.370 . S
C212 H230 0.948 . S
Zn213 N207 2.020 1_455 S
Zn213 O222 2.039 1_455 S
Zn213 O228 2.034 . S
Zn213 O232 2.025 . S
Zn213 O234 2.024 1_455 S
C214 O233 1.246 . S
C214 O234 1.249 1_556 S
N215 C216 1.307 . S
N215 C217 1.333 . S
N215 Zn221 2.020 . S
C216 N215 1.307 . S
C216 C220 1.370 . S
C216 H227 0.948 . S
C217 N215 1.333 . S
C217 C218 1.379 . S
C217 H225 0.952 . S
C218 C217 1.379 . S
C218 C219 1.390 . S
C218 H238 0.949 . S
C219 C218 1.390 . S
C219 C220 1.357 . S
C220 C216 1.370 . S
C220 C219 1.357 . S
C220 H239 0.950 . S
Zn221 N215 2.020 . S
Zn221 O224 2.025 . S
Zn221 O229 2.024 . S
Zn221 O231 2.039 . S
Zn221 O233 2.034 1_455 S
O222 C206 1.251 1_554 S
O222 Zn213 2.039 1_655 S
C223 O228 1.246 . S
C223 O229 1.249 1_554 S
O224 C206 1.254 1_455 S
O224 Zn221 2.025 . S
H225 C217 0.952 . S
H226 C208 0.952 . S
H227 C216 0.948 . S
O228 Zn213 2.034 . S
O228 C223 1.246 . S
O229 Zn221 2.024 . S
O229 C223 1.249 1_556 S
H230 C212 0.948 . S
O231 Zn221 2.039 . S
O231 C235 1.250 1_556 S
O232 Zn213 2.025 . S
O232 C235 1.254 . S
O233 C214 1.246 . S
O233 Zn221 2.034 1_655 S
O234 Zn213 2.024 1_655 S
O234 C214 1.249 1_554 S
C235 O231 1.250 1_554 S
C235 O232 1.254 . S
H236 C209 0.949 . S
H237 C211 0.950 . S
H238 C218 0.949 . S
H239 C220 0.950 . S
H240 C248 0.950 . S
H241 C253 0.950 . S
H242 C250 0.950 . S
H243 C252 0.950 . S
H244 C254 0.950 . S
H245 C256 0.950 . S
H246 C258 0.950 . S
H247 C259 0.950 . S
C248 H240 0.950 . S
C248 C249 1.386 . S
C248 C250 1.391 . S
C249 C248 1.386 . S
C249 C253 1.393 . S
C250 H242 0.950 . S
C250 C248 1.391 . S
C250 C251 1.400 . S
C251 C250 1.400 . S
C251 C252 1.398 . S
C251 C257 1.491 . S
C252 H243 0.950 . S
C252 C251 1.398 . S
C252 C253 1.391 . S
C253 H241 0.950 . S
C253 C249 1.393 . S
C253 C252 1.391 . S
C254 H244 0.950 . S
C254 C255 1.386 . S
C254 C256 1.391 . S
C255 C254 1.386 . S
C255 C259 1.393 . S
C256 H245 0.950 . S
C256 C254 1.391 . S
C256 C257 1.400 . S
C257 C251 1.491 . S
C257 C256 1.400 . S
C257 C258 1.398 . S
C258 H246 0.950 . S
C258 C257 1.398 . S
C258 C259 1.391 . S
C259 H247 0.950 . S
C259 C255 1.393 . S
C259 C258 1.391 . S
H260 C268 0.950 1_545 S
H261 C273 0.950 . S
H262 C270 0.950 . S
H263 C272 0.950 . S
H264 C274 0.950 1_565 S
H265 C276 0.950 . S
H266 C278 0.950 . S
H267 C279 0.950 . S
C268 H260 0.950 1_565 S
C268 C269 1.386 . S
C268 C270 1.391 1_565 S
C269 C268 1.386 . S
C269 C273 1.393 . S
C270 H262 0.950 . S
C270 C268 1.391 1_545 S
C270 C271 1.400 1_545 S
C271 C270 1.400 1_565 S
C271 C272 1.398 . S
C271 C277 1.491 1_565 S
C272 H263 0.950 . S
C272 C271 1.398 . S
C272 C273 1.391 . S
C273 H261 0.950 . S
C273 C269 1.393 . S
C273 C272 1.391 . S
C274 H264 0.950 1_545 S
C274 C275 1.386 . S
C274 C276 1.391 1_545 S
C275 C274 1.386 . S
C275 C279 1.393 . S
C276 H265 0.950 . S
C276 C274 1.391 1_565 S
C276 C277 1.400 1_565 S
C277 C271 1.491 1_545 S
C277 C276 1.400 1_545 S
C277 C278 1.398 . S
C278 H266 0.950 . S
C278 C277 1.398 . S
C278 C279 1.391 . S
C279 H267 0.950 . S
C279 C275 1.393 . S
C279 C278 1.391 . S
H280 C288 0.950 . S
H281 C293 0.950 . S
H282 C290 0.950 . S
H283 C292 0.950 . S
H284 C294 0.950 . S
H285 C296 0.950 . S
H286 C298 0.950 . S
H287 C299 0.950 . S
C288 H280 0.950 . S
C288 C289 1.386 . S
C288 C290 1.391 . S
C289 C288 1.386 . S
C289 C293 1.393 . S
C290 H282 0.950 . S
C290 C288 1.391 . S
C290 C291 1.400 . S
C291 C290 1.400 . S
C291 C292 1.398 . S
C291 C297 1.491 . S
C292 H283 0.950 . S
C292 C291 1.398 . S
C292 C293 1.391 . S
C293 H281 0.950 . S
C293 C289 1.393 . S
C293 C292 1.391 . S
C294 H284 0.950 . S
C294 C295 1.386 . S
C294 C296 1.391 . S
C295 C294 1.386 . S
C295 C299 1.393 . S
C296 H285 0.950 . S
C296 C294 1.391 . S
C296 C297 1.400 . S
C297 C291 1.491 . S
C297 C296 1.400 . S
C297 C298 1.398 . S
C298 H286 0.950 . S
C298 C297 1.398 . S
C298 C299 1.391 . S
C299 H287 0.950 . S
C299 C295 1.393 . S
C299 C298 1.391 . S
H300 C308 0.950 . S
H301 C313 0.950 . S
H302 C310 0.950 . S
H303 C312 0.950 . S
H304 C314 0.950 1_455 S
H305 C316 0.950 . S
H306 C318 0.950 . S
H307 C319 0.950 . S
C308 H300 0.950 . S
C308 C309 1.386 . S
C308 C310 1.391 . S
C309 C308 1.386 . S
C309 C313 1.393 . S
C310 H302 0.950 . S
C310 C308 1.391 . S
C310 C311 1.400 . S
C311 C310 1.400 . S
C311 C312 1.398 . S
C311 C317 1.491 . S
C312 H303 0.950 . S
C312 C311 1.398 . S
C312 C313 1.391 . S
C313 H301 0.950 . S
C313 C309 1.393 . S
C313 C312 1.391 . S
C314 H304 0.950 1_655 S
C314 C315 1.386 . S
C314 C316 1.391 . S
C315 C314 1.386 . S
C315 C319 1.393 . S
C316 H305 0.950 . S
C316 C314 1.391 . S
C316 C317 1.400 . S
C317 C311 1.491 . S
C317 C316 1.400 . S
C317 C318 1.398 . S
C318 H306 0.950 . S
C318 C317 1.398 . S
C318 C319 1.391 . S
C319 H307 0.950 . S
C319 C315 1.393 . S
C319 C318 1.391 . S
H320 C328 0.950 . S
H321 C333 0.950 . S
H322 C330 0.950 . S
H323 C332 0.950 . S
H324 C334 0.950 . S
H325 C336 0.950 . S
H326 C338 0.950 . S
H327 C339 0.950 . S
C328 H320 0.950 . S
C328 C329 1.386 . S
C328 C330 1.391 . S
C329 C328 1.386 . S
C329 C333 1.393 . S
C330 H322 0.950 . S
C330 C328 1.391 . S
C330 C331 1.400 . S
C331 C330 1.400 . S
C331 C332 1.398 . S
C331 C337 1.491 . S
C332 H323 0.950 . S
C332 C331 1.398 . S
C332 C333 1.391 . S
C333 H321 0.950 . S
C333 C329 1.393 . S
C333 C332 1.391 . S
C334 H324 0.950 . S
C334 C335 1.386 . S
C334 C336 1.391 . S
C335 C334 1.386 . S
C335 C339 1.393 . S
C336 H325 0.950 . S
C336 C334 1.391 . S
C336 C337 1.400 . S
C337 C331 1.491 . S
C337 C336 1.400 . S
C337 C338 1.398 . S
C338 H326 0.950 . S
C338 C337 1.398 . S
C338 C339 1.391 . S
C339 H327 0.950 . S
C339 C335 1.393 . S
C339 C338 1.391 . S
H340 C348 0.950 . S
H341 C353 0.950 . S
H342 C350 0.950 1_545 S
H343 C352 0.950 . S
H344 C354 0.950 . S
H345 C356 0.950 . S
H346 C358 0.950 . S
H347 C359 0.950 . S
C348 H340 0.950 . S
C348 C349 1.386 . S
C348 C350 1.391 . S
C349 C348 1.386 . S
C349 C353 1.393 . S
C350 H342 0.950 1_565 S
C350 C348 1.391 . S
C350 C351 1.400 . S
C351 C350 1.400 . S
C351 C352 1.398 . S
C351 C357 1.491 . S
C352 H343 0.950 . S
C352 C351 1.398 . S
C352 C353 1.391 . S
C353 H341 0.950 . S
C353 C349 1.393 . S
C353 C352 1.391 . S
C354 H344 0.950 . S
C354 C355 1.386 1_565 S
C354 C356 1.391 . S
C355 C354 1.386 1_545 S
C355 C359 1.393 . S
C356 H345 0.950 . S
C356 C354 1.391 . S
C356 C357 1.400 . S
C357 C351 1.491 . S
C357 C356 1.400 . S
C357 C358 1.398 1_565 S
C358 H346 0.950 . S
C358 C357 1.398 1_545 S
C358 C359 1.391 . S
C359 H347 0.950 . S
C359 C355 1.393 . S
C359 C358 1.391 . S
H360 C368 0.950 . S
H361 C373 0.950 . S
H362 C370 0.950 . S
H363 C372 0.950 . S
H364 C374 0.950 . S
H365 C376 0.950 . S
H366 C378 0.950 1_554 S
H367 C379 0.950 . S
C368 H360 0.950 . S
C368 C369 1.386 . S
C368 C370 1.391 . S
C369 C368 1.386 . S
C369 C373 1.393 . S
C370 H362 0.950 . S
C370 C368 1.391 . S
C370 C371 1.400 . S
C371 C370 1.400 . S
C371 C372 1.398 . S
C371 C377 1.491 . S
C372 H363 0.950 . S
C372 C371 1.398 . S
C372 C373 1.391 . S
C373 H361 0.950 . S
C373 C369 1.393 . S
C373 C372 1.391 . S
C374 H364 0.950 . S
C374 C375 1.386 . S
C374 C376 1.391 . S
C375 C374 1.386 . S
C375 C379 1.393 1_556 S
C376 H365 0.950 . S
C376 C374 1.391 . S
C376 C377 1.400 . S
C377 C371 1.491 . S
C377 C376 1.400 . S
C377 C378 1.398 . S
C378 H366 0.950 1_556 S
C378 C377 1.398 . S
C378 C379 1.391 1_556 S
C379 H367 0.950 . S
C379 C375 1.393 1_554 S
C379 C378 1.391 1_554 S
H380 C388 0.950 . S
H381 C393 0.950 . S
H382 C390 0.950 . S
H383 C392 0.950 . S
H384 C394 0.950 . S
H385 C396 0.950 . S
H386 C398 0.950 . S
H387 C399 0.950 . S
C388 H380 0.950 . S
C388 C389 1.386 . S
C388 C390 1.391 . S
C389 C388 1.386 . S
C389 C393 1.393 . S
C390 H382 0.950 . S
C390 C388 1.391 . S
C390 C391 1.400 . S
C391 C390 1.400 . S
C391 C392 1.398 . S
C391 C397 1.491 . S
C392 H383 0.950 . S
C392 C391 1.398 . S
C392 C393 1.391 . S
C393 H381 0.950 . S
C393 C389 1.393 . S
C393 C392 1.391 . S
C394 H384 0.950 . S
C394 C395 1.386 . S
C394 C396 1.391 . S
C395 C394 1.386 . S
C395 C399 1.393 . S
C396 H385 0.950 . S
C396 C394 1.391 . S
C396 C397 1.400 . S
C397 C391 1.491 . S
C397 C396 1.400 . S
C397 C398 1.398 . S
C398 H386 0.950 . S
C398 C397 1.398 . S
C398 C399 1.391 . S
C399 H387 0.950 . S
C399 C395 1.393 . S
C399 C398 1.391 . S
H400 C408 0.950 . S
H401 C413 0.950 . S
H402 C410 0.950 . S
H403 C412 0.950 . S
H404 C414 0.950 . S
H405 C416 0.950 . S
H406 C418 0.950 . S
H407 C419 0.950 . S
C408 H400 0.950 . S
C408 C409 1.386 . S
C408 C410 1.391 . S
C409 C408 1.386 . S
C409 C413 1.393 . S
C410 H402 0.950 . S
C410 C408 1.391 . S
C410 C411 1.400 . S
C411 C410 1.400 . S
C411 C412 1.398 . S
C411 C417 1.491 . S
C412 H403 0.950 . S
C412 C411 1.398 . S
C412 C413 1.391 . S
C413 H401 0.950 . S
C413 C409 1.393 . S
C413 C412 1.391 . S
C414 H404 0.950 . S
C414 C415 1.386 . S
C414 C416 1.391 . S
C415 C414 1.386 . S
C415 C419 1.393 . S
C416 H405 0.950 . S
C416 C414 1.391 . S
C416 C417 1.400 . S
C417 C411 1.491 . S
C417 C416 1.400 . S
C417 C418 1.398 . S
C418 H406 0.950 . S
C418 C417 1.398 . S
C418 C419 1.391 . S
C419 H407 0.950 . S
C419 C415 1.393 . S
C419 C418 1.391 . S
H420 C428 0.950 . S
H421 C433 0.950 . S
H422 C430 0.950 . S
H423 C432 0.950 . S
H424 C434 0.950 . S
H425 C436 0.950 . S
H426 C438 0.950 . S
H427 C439 0.950 1_554 S
C428 H420 0.950 . S
C428 C429 1.386 . S
C428 C430 1.391 . S
C429 C428 1.386 . S
C429 C433 1.393 . S
C430 H422 0.950 . S
C430 C428 1.391 . S
C430 C431 1.400 . S
C431 C430 1.400 . S
C431 C432 1.398 . S
C431 C437 1.491 . S
C432 H423 0.950 . S
C432 C431 1.398 . S
C432 C433 1.391 . S
C433 H421 0.950 . S
C433 C429 1.393 . S
C433 C432 1.391 . S
C434 H424 0.950 . S
C434 C435 1.386 . S
C434 C436 1.391 . S
C435 C434 1.386 . S
C435 C439 1.393 . S
C436 H425 0.950 . S
C436 C434 1.391 . S
C436 C437 1.400 . S
C437 C431 1.491 . S
C437 C436 1.400 . S
C437 C438 1.398 . S
C438 H426 0.950 . S
C438 C437 1.398 . S
C438 C439 1.391 . S
C439 H427 0.950 1_556 S
C439 C435 1.393 . S
C439 C438 1.391 . S
H440 C448 0.950 . S
H441 C453 0.950 . S
H442 C450 0.950 . S
H443 C452 0.950 . S
H444 C454 0.950 . S
H445 C456 0.950 . S
H446 C458 0.950 . S
H447 C459 0.950 1_455 S
C448 H440 0.950 . S
C448 C449 1.386 . S
C448 C450 1.391 . S
C449 C448 1.386 . S
C449 C453 1.393 . S
C450 H442 0.950 . S
C450 C448 1.391 . S
C450 C451 1.400 . S
C451 C450 1.400 . S
C451 C452 1.398 . S
C451 C457 1.491 . S
C452 H443 0.950 . S
C452 C451 1.398 . S
C452 C453 1.391 . S
C453 H441 0.950 . S
C453 C449 1.393 . S
C453 C452 1.391 . S
C454 H444 0.950 . S
C454 C455 1.383 1_655 S
C454 C456 1.391 . S
C455 C454 1.383 1_455 S
C455 C459 1.392 1_455 S
C456 H445 0.950 . S
C456 C454 1.391 . S
C456 C457 1.400 . S
C457 C451 1.491 . S
C457 C456 1.400 . S
C457 C458 1.398 . S
C458 H446 0.950 . S
C458 C457 1.398 . S
C458 C459 1.391 . S
C459 H447 0.950 1_655 S
C459 C455 1.392 1_655 S
C459 C458 1.391 . S
H460 C468 0.950 . S
H461 C473 0.950 . S
H462 C470 0.950 . S
H463 C472 0.950 . S
H464 C474 0.950 . S
H465 C476 0.950 . S
H466 C478 0.950 . S
H467 C479 0.950 . S
C468 H460 0.950 . S
C468 C469 1.386 . S
C468 C470 1.391 . S
C469 C468 1.386 . S
C469 C473 1.393 . S
C470 H462 0.950 . S
C470 C468 1.391 . S
C470 C471 1.400 . S
C471 C470 1.400 . S
C471 C472 1.398 . S
C471 C477 1.491 . S
C472 H463 0.950 . S
C472 C471 1.398 . S
C472 C473 1.391 . S
C473 H461 0.950 . S
C473 C469 1.393 . S
C473 C472 1.391 . S
C474 H464 0.950 . S
C474 C475 1.386 . S
C474 C476 1.391 . S
C475 C474 1.386 . S
C475 C479 1.393 . S
C476 H465 0.950 . S
C476 C474 1.391 . S
C476 C477 1.400 . S
C477 C471 1.491 . S
C477 C476 1.400 . S
C477 C478 1.398 . S
C478 H466 0.950 . S
C478 C477 1.398 . S
C478 C479 1.391 . S
C479 H467 0.950 . S
C479 C475 1.393 . S
C479 C478 1.391 . S
H480 C488 0.950 1_455 S
H481 C493 0.950 . S
H482 C490 0.950 . S
H483 C492 0.950 1_545 S
H484 C494 0.950 . S
H485 C496 0.950 . S
H486 C498 0.950 . S
H487 C499 0.950 1_565 S
C488 H480 0.950 1_655 S
C488 C489 1.386 . S
C488 C490 1.391 1_655 S
C489 C488 1.386 . S
C489 C493 1.393 . S
C490 H482 0.950 . S
C490 C488 1.391 1_455 S
C490 C491 1.400 1_455 S
C491 C490 1.400 1_655 S
C491 C492 1.398 . S
C491 C497 1.488 1_565 S
C492 H483 0.950 1_565 S
C492 C491 1.398 . S
C492 C493 1.391 . S
C493 H481 0.950 . S
C493 C489 1.393 . S
C493 C492 1.391 . S
C494 H484 0.950 . S
C494 C495 1.386 1_655 S
C494 C496 1.391 . S
C495 C494 1.386 1_455 S
C495 C499 1.393 . S
C496 H485 0.950 . S
C496 C494 1.391 . S
C496 C497 1.404 . S
C497 C491 1.488 1_545 S
C497 C496 1.404 . S
C497 C498 1.397 1_645 S
C498 H486 0.950 . S
C498 C497 1.397 1_465 S
C498 C499 1.391 1_565 S
C499 H487 0.950 1_545 S
C499 C495 1.393 . S
C499 C498 1.391 1_545 S
H500 C508 0.950 . S
H501 C513 0.950 . S
H502 C510 0.950 . S
H503 C512 0.950 . S
H504 C514 0.950 . S
H505 C516 0.950 . S
H506 C518 0.950 . S
H507 C519 0.950 . S
C508 H500 0.950 . S
C508 C509 1.386 . S
C508 C510 1.391 . S
C509 C508 1.386 . S
C509 C513 1.393 . S
C510 H502 0.950 . S
C510 C508 1.391 . S
C510 C511 1.400 . S
C511 C510 1.400 . S
C511 C512 1.398 . S
C511 C517 1.491 . S
C512 H503 0.950 . S
C512 C511 1.398 . S
C512 C513 1.391 . S
C513 H501 0.950 . S
C513 C509 1.393 . S
C513 C512 1.391 . S
C514 H504 0.950 . S
C514 C515 1.386 . S
C514 C516 1.391 . S
C515 C514 1.386 . S
C515 C519 1.393 . S
C516 H505 0.950 . S
C516 C514 1.391 . S
C516 C517 1.400 . S
C517 C511 1.491 . S
C517 C516 1.400 . S
C517 C518 1.398 . S
C518 H506 0.950 . S
C518 C517 1.398 . S
C518 C519 1.391 . S
C519 H507 0.950 . S
C519 C515 1.393 . S
C519 C518 1.391 . S
H520 C528 0.950 . S
H521 C533 0.950 . S
H522 C530 0.950 . S
H523 C532 0.950 . S
H524 C534 0.950 . S
H525 C536 0.950 . S
H526 C538 0.950 . S
H527 C539 0.950 . S
C528 H520 0.950 . S
C528 C529 1.386 . S
C528 C530 1.391 . S
C529 C528 1.386 . S
C529 C533 1.393 . S
C530 H522 0.950 . S
C530 C528 1.391 . S
C530 C531 1.400 . S
C531 C530 1.400 . S
C531 C532 1.398 . S
C531 C537 1.491 . S
C532 H523 0.950 . S
C532 C531 1.398 . S
C532 C533 1.391 . S
C533 H521 0.950 . S
C533 C529 1.393 . S
C533 C532 1.391 . S
C534 H524 0.950 . S
C534 C535 1.386 . S
C534 C536 1.391 . S
C535 C534 1.386 . S
C535 C539 1.393 . S
C536 H525 0.950 . S
C536 C534 1.391 . S
C536 C537 1.400 . S
C537 C531 1.491 . S
C537 C536 1.400 . S
C537 C538 1.398 . S
C538 H526 0.950 . S
C538 C537 1.398 . S
C538 C539 1.391 . S
C539 H527 0.950 . S
C539 C535 1.393 . S
C539 C538 1.391 . S
H540 C548 0.950 . S
H541 C553 0.950 . S
H542 C550 0.950 . S
H543 C552 0.950 . S
H544 C554 0.950 . S
H545 C556 0.950 . S
H546 C558 0.950 . S
H547 C559 0.950 . S
C548 H540 0.950 . S
C548 C549 1.386 . S
C548 C550 1.391 . S
C549 C548 1.386 . S
C549 C553 1.393 . S
C550 H542 0.950 . S
C550 C548 1.391 . S
C550 C551 1.400 . S
C551 C550 1.400 . S
C551 C552 1.398 . S
C551 C557 1.491 . S
C552 H543 0.950 . S
C552 C551 1.398 . S
C552 C553 1.391 . S
C553 H541 0.950 . S
C553 C549 1.393 . S
C553 C552 1.391 . S
C554 H544 0.950 . S
C554 C555 1.386 . S
C554 C556 1.391 . S
C555 C554 1.386 . S
C555 C559 1.393 . S
C556 H545 0.950 . S
C556 C554 1.391 . S
C556 C557 1.400 . S
C557 C551 1.491 . S
C557 C556 1.400 . S
C557 C558 1.398 . S
C558 H546 0.950 . S
C558 C557 1.398 . S
C558 C559 1.391 . S
C559 H547 0.950 . S
C559 C555 1.393 . S
C559 C558 1.391 . S
H560 C568 0.950 . S
H561 C573 0.950 . S
H562 C570 0.950 . S
H563 C572 0.950 . S
H564 C574 0.950 . S
H565 C576 0.950 . S
H566 C578 0.950 1_565 S
H567 C579 0.950 . S
C568 H560 0.950 . S
C568 C569 1.386 . S
C568 C570 1.391 . S
C569 C568 1.386 . S
C569 C573 1.393 1_565 S
C570 H562 0.950 . S
C570 C568 1.391 . S
C570 C571 1.400 1_565 S
C571 C570 1.400 1_545 S
C571 C572 1.398 . S
C571 C577 1.491 . S
C572 H563 0.950 . S
C572 C571 1.398 . S
C572 C573 1.391 . S
C573 H561 0.950 . S
C573 C569 1.393 1_545 S
C573 C572 1.391 . S
C574 H564 0.950 . S
C574 C575 1.386 . S
C574 C576 1.391 . S
C575 C574 1.386 . S
C575 C579 1.393 1_554 S
C576 H565 0.950 . S
C576 C574 1.391 . S
C576 C577 1.400 1_554 S
C577 C571 1.491 . S
C577 C576 1.400 1_556 S
C577 C578 1.398 . S
C578 H566 0.950 1_545 S
C578 C577 1.398 . S
C578 C579 1.391 . S
C579 H567 0.950 . S
C579 C575 1.393 1_556 S
C579 C578 1.391 . S
H580 C588 0.950 . S
H581 C593 0.950 . S
H582 C590 0.950 . S
H583 C592 0.950 . S
H584 C594 0.950 . S
H585 C596 0.950 . S
H586 C598 0.950 . S
H587 C599 0.950 . S
C588 H580 0.950 . S
C588 C589 1.386 . S
C588 C590 1.391 . S
C589 C588 1.386 . S
C589 C593 1.393 . S
C590 H582 0.950 . S
C590 C588 1.391 . S
C590 C591 1.400 . S
C591 C590 1.400 . S
C591 C592 1.398 . S
C591 C597 1.491 . S
C592 H583 0.950 . S
C592 C591 1.398 . S
C592 C593 1.391 . S
C593 H581 0.950 . S
C593 C589 1.393 . S
C593 C592 1.391 . S
C594 H584 0.950 . S
C594 C595 1.386 . S
C594 C596 1.391 . S
C595 C594 1.386 . S
C595 C599 1.393 . S
C596 H585 0.950 . S
C596 C594 1.391 . S
C596 C597 1.400 . S
C597 C591 1.491 . S
C597 C596 1.400 . S
C597 C598 1.398 . S
C598 H586 0.950 . S
C598 C597 1.398 . S
C598 C599 1.391 . S
C599 H587 0.950 . S
C599 C595 1.393 . S
C599 C598 1.391 . S
H600 C608 0.950 . S
H601 C613 0.950 . S
H602 C610 0.950 . S
H603 C612 0.950 . S
H604 C614 0.950 . S
H605 C616 0.950 . S
H606 C618 0.950 . S
H607 C619 0.950 . S
C608 H600 0.950 . S
C608 C609 1.386 . S
C608 C610 1.391 . S
C609 C608 1.386 . S
C609 C613 1.393 . S
C610 H602 0.950 . S
C610 C608 1.391 . S
C610 C611 1.400 . S
C611 C610 1.400 . S
C611 C612 1.398 . S
C611 C617 1.491 . S
C612 H603 0.950 . S
C612 C611 1.398 . S
C612 C613 1.391 . S
C613 H601 0.950 . S
C613 C609 1.393 . S
C613 C612 1.391 . S
C614 H604 0.950 . S
C614 C615 1.386 . S
C614 C616 1.391 . S
C615 C614 1.386 . S
C615 C619 1.393 . S
C616 H605 0.950 . S
C616 C614 1.391 . S
C616 C617 1.400 . S
C617 C611 1.491 . S
C617 C616 1.400 . S
C617 C618 1.398 . S
C618 H606 0.950 . S
C618 C617 1.398 . S
C618 C619 1.391 . S
C619 H607 0.950 . S
C619 C615 1.393 . S
C619 C618 1.391 . S
H620 C628 0.950 . S
H621 C633 0.950 . S
H622 C630 0.950 . S
H623 C632 0.950 . S
H624 C634 0.950 . S
H625 C636 0.950 . S
H626 C638 0.950 . S
H627 C639 0.950 . S
C628 H620 0.950 . S
C628 C629 1.386 . S
C628 C630 1.391 . S
C629 C628 1.386 . S
C629 C633 1.393 . S
C630 H622 0.950 . S
C630 C628 1.391 . S
C630 C631 1.400 . S
C631 C630 1.400 . S
C631 C632 1.398 . S
C631 C637 1.491 . S
C632 H623 0.950 . S
C632 C631 1.398 . S
C632 C633 1.391 . S
C633 H621 0.950 . S
C633 C629 1.393 . S
C633 C632 1.391 . S
C634 H624 0.950 . S
C634 C635 1.386 . S
C634 C636 1.391 . S
C635 C634 1.386 . S
C635 C639 1.393 . S
C636 H625 0.950 . S
C636 C634 1.391 . S
C636 C637 1.400 . S
C637 C631 1.491 . S
C637 C636 1.400 . S
C637 C638 1.398 . S
C638 H626 0.950 . S
C638 C637 1.398 . S
C638 C639 1.391 . S
C639 H627 0.950 . S
C639 C635 1.393 . S
C639 C638 1.391 . S
H640 C648 0.950 . S
H641 C653 0.950 . S
H642 C650 0.950 . S
H643 C652 0.950 . S
H644 C654 0.950 . S
H645 C656 0.950 . S
H646 C658 0.950 1_554 S
H647 C659 0.950 1_554 S
C648 H640 0.950 . S
C648 C649 1.386 . S
C648 C650 1.391 . S
C649 C648 1.386 . S
C649 C653 1.393 . S
C650 H642 0.950 . S
C650 C648 1.391 . S
C650 C651 1.400 . S
C651 C650 1.400 . S
C651 C652 1.398 . S
C651 C657 1.491 . S
C652 H643 0.950 . S
C652 C651 1.398 . S
C652 C653 1.391 . S
C653 H641 0.950 . S
C653 C649 1.393 . S
C653 C652 1.391 . S
C654 H644 0.950 . S
C654 C655 1.386 . S
C654 C656 1.391 . S
C655 C654 1.386 . S
C655 C659 1.393 . S
C656 H645 0.950 . S
C656 C654 1.391 . S
C656 C657 1.400 . S
C657 C651 1.491 . S
C657 C656 1.400 . S
C657 C658 1.398 . S
C658 H646 0.950 1_556 S
C658 C657 1.398 . S
C658 C659 1.391 . S
C659 H647 0.950 1_556 S
C659 C655 1.393 . S
C659 C658 1.391 . S
H660 C668 0.950 . S
H661 C673 0.950 . S
H662 C670 0.950 . S
H663 C672 0.950 . S
H664 C674 0.950 . S
H665 C676 0.950 . S
H666 C678 0.950 . S
H667 C679 0.950 . S
C668 H660 0.950 . S
C668 C669 1.386 . S
C668 C670 1.391 . S
C669 C668 1.386 . S
C669 C673 1.393 . S
C670 H662 0.950 . S
C670 C668 1.391 . S
C670 C671 1.400 . S
C671 C670 1.400 . S
C671 C672 1.398 . S
C671 C677 1.491 . S
C672 H663 0.950 . S
C672 C671 1.398 . S
C672 C673 1.391 . S
C673 H661 0.950 . S
C673 C669 1.393 . S
C673 C672 1.391 . S
C674 H664 0.950 . S
C674 C675 1.386 . S
C674 C676 1.391 . S
C675 C674 1.386 . S
C675 C679 1.393 . S
C676 H665 0.950 . S
C676 C674 1.391 . S
C676 C677 1.400 . S
C677 C671 1.491 . S
C677 C676 1.400 . S
C677 C678 1.398 . S
C678 H666 0.950 . S
C678 C677 1.398 . S
C678 C679 1.391 . S
C679 H667 0.950 . S
C679 C675 1.393 . S
C679 C678 1.391 . S
H680 C688 0.950 . S
H681 C693 0.950 . S
H682 C690 0.950 . S
H683 C692 0.950 . S
H684 C694 0.950 . S
H685 C696 0.950 . S
H686 C698 0.950 . S
H687 C699 0.950 . S
C688 H680 0.950 . S
C688 C689 1.386 . S
C688 C690 1.391 . S
C689 C688 1.386 . S
C689 C693 1.393 . S
C690 H682 0.950 . S
C690 C688 1.391 . S
C690 C691 1.400 . S
C691 C690 1.400 . S
C691 C692 1.398 . S
C691 C697 1.491 . S
C692 H683 0.950 . S
C692 C691 1.398 . S
C692 C693 1.391 . S
C693 H681 0.950 . S
C693 C689 1.393 . S
C693 C692 1.391 . S
C694 H684 0.950 . S
C694 C695 1.386 . S
C694 C696 1.391 . S
C695 C694 1.386 . S
C695 C699 1.393 . S
C696 H685 0.950 . S
C696 C694 1.391 . S
C696 C697 1.400 . S
C697 C691 1.491 . S
C697 C696 1.400 . S
C697 C698 1.398 . S
C698 H686 0.950 . S
C698 C697 1.398 . S
C698 C699 1.391 . S
C699 H687 0.950 . S
C699 C695 1.393 . S
C699 C698 1.391 . S
H700 C708 0.950 . S
H701 C713 0.950 . S
H702 C710 0.950 . S
H703 C712 0.950 . S
H704 C714 0.950 . S
H705 C716 0.950 . S
H706 C718 0.950 . S
H707 C719 0.950 . S
C708 H700 0.950 . S
C708 C709 1.386 . S
C708 C710 1.391 . S
C709 C708 1.386 . S
C709 C713 1.393 . S
C710 H702 0.950 . S
C710 C708 1.391 . S
C710 C711 1.400 . S
C711 C710 1.400 . S
C711 C712 1.398 . S
C711 C717 1.491 . S
C712 H703 0.950 . S
C712 C711 1.398 . S
C712 C713 1.391 . S
C713 H701 0.950 . S
C713 C709 1.393 . S
C713 C712 1.391 . S
C714 H704 0.950 . S
C714 C715 1.386 . S
C714 C716 1.391 . S
C715 C714 1.386 . S
C715 C719 1.393 . S
C716 H705 0.950 . S
C716 C714 1.391 . S
C716 C717 1.400 . S
C717 C711 1.491 . S
C717 C716 1.400 . S
C717 C718 1.398 . S
C718 H706 0.950 . S
C718 C717 1.398 . S
C718 C719 1.391 . S
C719 H707 0.950 . S
C719 C715 1.393 . S
C719 C718 1.391 . S
C249 N1 2.161 . S
C255 C104 2.206 . S
C269 N18 2.589 . S
C275 C146 2.637 . S
C295 C176 0.606 . S
C289 N28 0.607 . S
C309 N40 1.156 . S
C315 C210 1.154 . S
C335 C167 2.209 . S
C329 N5 2.162 . S
C355 C121 1.899 . S
C349 N14 1.837 . S
C375 C214 1.285 . S
C369 N31 1.253 . S
C395 C180 0.853 . S
C389 N41 0.847 . S
C409 N2 2.067 . S
C415 C235 2.087 . S
C435 C142 1.164 . S
C429 N27 1.121 . S
C449 N44 1.247 . S
C455 C117 1.268 . S
C469 N15 1.964 . S
C475 C201 1.967 . S
C495 C133 2.618 . S
C489 N57 2.581 . S
C509 N70 2.008 . S
C515 C155 2.053 . S
C529 N79 0.933 . S
C535 C185 0.945 . S
C549 N93 0.804 . S
C555 C219 0.816 . S
C569 N54 1.744 . S
C575 C138 1.754 . S
C595 C112 2.271 . S
C589 N66 2.216 . S
C615 C223 0.632 . S
C609 N80 0.628 . S
C635 C189 1.389 . S
C629 N96 1.358 . S
C649 N53 2.077 . S
C655 C206 2.136 . S
C675 C151 1.159 . S
C669 N83 1.175 . S
C695 C108 1.236 . S
C689 N92 1.195 . S
C709 N67 2.044 . S
C715 C172 2.063 . S
