# Generated by pormake.
# Topology csq, (4,8)-cn, num edge types: 1
# Building blocks:
#     Node 0, Type 0, BuildingBlock: MUDLON_clean_linker_0, # of connection points: 4
#     Node 1, Type 0, BuildingBlock: MUDLON_clean_linker_0, # of connection points: 4
#     Node 2, Type 0, BuildingBlock: MUDLON_clean_linker_0, # of connection points: 4
#     Node 3, Type 0, BuildingBlock: MUDLON_clean_linker_0, # of connection points: 4
#     Node 4, Type 0, BuildingBlock: MUDLON_clean_linker_0, # of connection points: 4
#     Node 5, Type 0, BuildingBlock: MUDLON_clean_linker_0, # of connection points: 4
#     Node 6, Type 1, BuildingBlock: TAGTUT_clean_sbu_1, # of connection points: 8
#     Node 7, Type 1, BuildingBlock: TAGTUT_clean_sbu_1, # of connection points: 8
#     Node 8, Type 1, BuildingBlock: TAGTUT_clean_sbu_1, # of connection points: 8
#     Edge 9, Type (0, 1), BuildingBlock: ZUJKAS_clean_linker_0, # of connection points: 2
#     Edge 10, Type (0, 1), BuildingBlock: ZUJKAS_clean_linker_0, # of connection points: 2
#     Edge 11, Type (0, 1), BuildingBlock: ZUJKAS_clean_linker_0, # of connection points: 2
#     Edge 12, Type (0, 1), BuildingBlock: ZUJKAS_clean_linker_0, # of connection points: 2
#     Edge 13, Type (0, 1), BuildingBlock: ZUJKAS_clean_linker_0, # of connection points: 2
#     Edge 14, Type (0, 1), BuildingBlock: ZUJKAS_clean_linker_0, # of connection points: 2
#     Edge 15, Type (0, 1), BuildingBlock: ZUJKAS_clean_linker_0, # of connection points: 2
#     Edge 16, Type (0, 1), BuildingBlock: ZUJKAS_clean_linker_0, # of connection points: 2
#     Edge 17, Type (0, 1), BuildingBlock: ZUJKAS_clean_linker_0, # of connection points: 2
#     Edge 18, Type (0, 1), BuildingBlock: ZUJKAS_clean_linker_0, # of connection points: 2
#     Edge 19, Type (0, 1), BuildingBlock: ZUJKAS_clean_linker_0, # of connection points: 2
#     Edge 20, Type (0, 1), BuildingBlock: ZUJKAS_clean_linker_0, # of connection points: 2
#     Edge 21, Type (0, 1), BuildingBlock: ZUJKAS_clean_linker_0, # of connection points: 2
#     Edge 22, Type (0, 1), BuildingBlock: ZUJKAS_clean_linker_0, # of connection points: 2
#     Edge 23, Type (0, 1), BuildingBlock: ZUJKAS_clean_linker_0, # of connection points: 2
#     Edge 24, Type (0, 1), BuildingBlock: ZUJKAS_clean_linker_0, # of connection points: 2
#     Edge 25, Type (0, 1), BuildingBlock: ZUJKAS_clean_linker_0, # of connection points: 2
#     Edge 26, Type (0, 1), BuildingBlock: ZUJKAS_clean_linker_0, # of connection points: 2
#     Edge 27, Type (0, 1), BuildingBlock: ZUJKAS_clean_linker_0, # of connection points: 2
#     Edge 28, Type (0, 1), BuildingBlock: ZUJKAS_clean_linker_0, # of connection points: 2
#     Edge 29, Type (0, 1), BuildingBlock: ZUJKAS_clean_linker_0, # of connection points: 2
#     Edge 30, Type (0, 1), BuildingBlock: ZUJKAS_clean_linker_0, # of connection points: 2
#     Edge 31, Type (0, 1), BuildingBlock: ZUJKAS_clean_linker_0, # of connection points: 2
#     Edge 32, Type (0, 1), BuildingBlock: ZUJKAS_clean_linker_0, # of connection points: 2
# Relax obj value: 0.045
# Max RMSD: 0.135
# Mean RMSD: 0.093
data_MOF--net-csq--node1-TAGTUT_clean_sbu_1--node2-MUDLON_clean_linker_0--edge1-ZUJKAS_clean_linker_0
_symmetry_space_group_name_H-M    P1
_symmetry_Int_Tables_number       1
_symmetry_cell_setting            triclinic
loop_
_symmetry_equiv_pos_as_xyz
'x, y, z'
_cell_length_a     85.146508
_cell_length_b     84.217139
_cell_length_c     28.597909
_cell_angle_alpha  92.365475
_cell_angle_beta   92.166184
_cell_angle_gamma 119.92272
loop_
_atom_site_label
_atom_site_type_symbol
_atom_site_fract_x
_atom_site_fract_y
_atom_site_fract_z
_atom_type_partial_charge
H0 H 0.31986 0.50002 0.16414 0.0
N1 N 0.29286 0.46665 0.12642 0.0
H2 H 0.3378 0.50593 0.23839 0.0
H3 H 0.2897 0.44235 0.18706 0.0
H4 H 0.30768 0.4481 0.26134 0.0
H5 H 0.30049 0.44397 0.07902 0.0
H6 H 0.31898 0.45022 0.01139 0.0
H7 H 0.3077 0.49837 0.08047 0.0
H8 H 0.32641 0.50488 0.01261 0.0
H9 H 0.2901 0.49659 0.15518 0.0
H10 H 0.25944 0.4404 0.09869 0.0
H11 H 0.26199 0.49706 0.16502 0.0
H12 H 0.23122 0.44097 0.10564 0.0
H13 H 0.1899 0.49692 0.20889 0.0
H14 H 0.1762 0.50253 0.27707 0.0
H15 H 0.13236 0.44619 0.26053 0.0
H16 H 0.14592 0.44097 0.19196 0.0
H17 H 0.15545 0.44123 0.0813 0.0
H18 H 0.14408 0.44725 0.00822 0.0
H19 H 0.17035 0.50489 0.05397 0.0
H20 H 0.18101 0.49853 0.12746 0.0
H21 H 0.20768 0.49583 0.13804 0.0
H22 H 0.23665 0.49706 0.1292 0.0
H23 H 0.21226 0.44036 0.16337 0.0
N24 N 0.17528 0.46513 0.15234 0.0
H25 H 0.18311 0.43906 0.16925 0.0
C26 C 0.30341 0.4707 0.17028 0.0
C27 C 0.31699 0.48866 0.18538 0.0
C28 C 0.32718 0.49202 0.2279 0.0
C29 C 0.32411 0.47747 0.2557 0.0
C30 C 0.31043 0.45956 0.24053 0.0
C31 C 0.30014 0.45625 0.1983 0.0
C32 C 0.30271 0.47063 0.0846 0.0
C33 C 0.30599 0.45723 0.06437 0.0
C34 C 0.31665 0.46089 0.026 0.0
C35 C 0.32431 0.47811 0.00685 0.0
C36 C 0.32063 0.49145 0.02642 0.0
C37 C 0.30999 0.48778 0.06522 0.0
C38 C 0.27682 0.4683 0.12677 0.0
C39 C 0.27732 0.48442 0.14425 0.0
C40 C 0.26116 0.48468 0.1496 0.0
C41 C 0.2442 0.46894 0.13693 0.0
C42 C 0.24392 0.45318 0.1172 0.0
C43 C 0.26004 0.45288 0.11252 0.0
C44 C 0.16879 0.46851 0.19527 0.0
C45 C 0.17741 0.48579 0.22023 0.0
C46 C 0.16961 0.48893 0.25936 0.0
C47 C 0.15305 0.47486 0.27404 0.0
C48 C 0.14491 0.45744 0.24977 0.0
C49 C 0.15269 0.45436 0.21082 0.0
C50 C 0.16902 0.46935 0.1097 0.0
C51 C 0.15871 0.45513 0.07537 0.0
C52 C 0.15238 0.45866 0.0335 0.0
C53 C 0.15636 0.47659 0.02498 0.0
C54 C 0.16684 0.49089 0.0595 0.0
C55 C 0.17307 0.4873 0.10152 0.0
C56 C 0.19314 0.4672 0.15366 0.0
C57 C 0.20858 0.48369 0.14373 0.0
C58 C 0.22523 0.48439 0.13895 0.0
C59 C 0.22683 0.46871 0.1447 0.0
C60 C 0.2115 0.45256 0.15718 0.0
C61 C 0.19486 0.45183 0.16127 0.0
H62 H 0.71574 0.12784 0.19596 0.0
N63 N 0.72304 0.15567 0.14362 0.0
H64 H 0.69926 0.12013 0.26755 0.0
H65 H 0.70993 0.17565 0.18824 0.0
H66 H 0.69322 0.16794 0.25966 0.0
H67 H 0.69272 0.15751 0.11649 0.0
H68 H 0.67334 0.1434 0.04515 0.0
H69 H 0.72745 0.13667 0.07391 0.0
H70 H 0.7085 0.12313 0.00069 0.0
H71 H 0.75605 0.16695 0.18201 0.0
H72 H 0.72508 0.18538 0.1016 0.0
H73 H 0.78344 0.19663 0.177 0.0
H74 H 0.75253 0.21449 0.09298 0.0
H75 H 0.86875 0.28458 0.15492 0.0
H76 H 0.88673 0.31097 0.21076 0.0
H77 H 0.84205 0.3216 0.21307 0.0
H78 H 0.82458 0.29574 0.1561 0.0
H79 H 0.82371 0.29529 0.07126 0.0
H80 H 0.83703 0.31533 0.00744 0.0
H81 H 0.87336 0.29396 0.98936 0.0
H82 H 0.8598 0.27387 0.05291 0.0
H83 H 0.83272 0.24198 0.1167 0.0
H84 H 0.80467 0.21322 0.12487 0.0
H85 H 0.77502 0.24262 0.12614 0.0
N86 N 0.83702 0.27511 0.11135 0.0
H87 H 0.80289 0.27087 0.11392 0.0
C88 C 0.71395 0.15217 0.18672 0.0
C89 C 0.71098 0.13671 0.20999 0.0
C90 C 0.70167 0.13241 0.25093 0.0
C91 C 0.69497 0.14346 0.26923 0.0
C92 C 0.69812 0.15912 0.24617 0.0
C93 C 0.70767 0.16354 0.20544 0.0
C94 C 0.71142 0.14784 0.10108 0.0
C95 C 0.69623 0.14991 0.09181 0.0
C96 C 0.68525 0.14203 0.05039 0.0
C97 C 0.68932 0.1321 0.01694 0.0
C98 C 0.70477 0.13041 0.0259 0.0
C99 C 0.71566 0.13818 0.06759 0.0
C100 C 0.73861 0.17375 0.14157 0.0
C101 C 0.75523 0.1774 0.16297 0.0
C102 C 0.77091 0.19433 0.15952 0.0
C103 C 0.77041 0.20797 0.13368 0.0
C104 C 0.75354 0.20447 0.11342 0.0
C105 C 0.73777 0.18765 0.11785 0.0
C106 C 0.84531 0.28804 0.15147 0.0
C107 C 0.86271 0.29235 0.16853 0.0
C108 C 0.87295 0.30745 0.20044 0.0
C109 C 0.8659 0.31854 0.21612 0.0
C110 C 0.84801 0.31355 0.20105 0.0
C111 C 0.83785 0.29852 0.16883 0.0
C112 C 0.84086 0.28312 0.06687 0.0
C113 C 0.83409 0.29445 0.05254 0.0
C114 C 0.84185 0.30604 0.01629 0.0
C115 C 0.85644 0.30644 0.99379 0.0
C116 C 0.86207 0.29392 0.00564 0.0
C117 C 0.85434 0.2824 0.0419 0.0
C118 C 0.82001 0.25859 0.11558 0.0
C119 C 0.8201 0.24211 0.11855 0.0
C120 C 0.80404 0.22573 0.1238 0.0
C121 C 0.78747 0.2255 0.12708 0.0
C122 C 0.78741 0.24212 0.1235 0.0
C123 C 0.80349 0.25846 0.11721 0.0
H124 H 0.61044 0.88562 0.98482 0.0
N125 N 0.59655 0.86009 0.04643 0.0
H126 H 0.59347 0.89227 0.92557 0.0
H127 H 0.56139 0.83624 0.01288 0.0
H128 H 0.54425 0.84297 0.95423 0.0
H129 H 0.56507 0.84724 0.09182 0.0
H130 H 0.55714 0.8654 0.14385 0.0
H131 H 0.61879 0.89382 0.08479 0.0
H132 H 0.61087 0.91227 0.13671 0.0
H133 H 0.59964 0.83749 0.98287 0.0
H134 H 0.59168 0.84289 0.13007 0.0
H135 H 0.59833 0.80839 0.99508 0.0
H136 H 0.59002 0.81381 0.14134 0.0
H137 H 0.60908 0.72493 0.05217 0.0
H138 H 0.59638 0.70011 0.99016 0.0
H139 H 0.54782 0.70421 0.97712 0.0
H140 H 0.56072 0.72915 0.03904 0.0
H141 H 0.55729 0.71966 0.11803 0.0
H142 H 0.5475 0.69714 0.17662 0.0
H143 H 0.60354 0.71489 0.21717 0.0
H144 H 0.61329 0.73796 0.15912 0.0
H145 H 0.61703 0.76949 0.05222 0.0
H146 H 0.61786 0.79855 0.04083 0.0
H147 H 0.56895 0.77967 0.11441 0.0
N148 N 0.59233 0.74067 0.09268 0.0
H149 H 0.56805 0.75076 0.12541 0.0
C150 C 0.58722 0.86065 0.00374 0.0
C151 C 0.59614 0.87591 0.97701 0.0
C152 C 0.5864 0.87968 0.94327 0.0
C153 C 0.56748 0.86827 0.93587 0.0
C154 C 0.55878 0.85213 0.95979 0.0
C155 C 0.56858 0.84826 0.99321 0.0
C156 C 0.59263 0.8692 0.08438 0.0
C157 C 0.57526 0.86132 0.10196 0.0
C158 C 0.57069 0.87177 0.13147 0.0
C159 C 0.58329 0.89034 0.14377 0.0
C160 C 0.6009 0.89796 0.12807 0.0
C161 C 0.60548 0.88746 0.09858 0.0
C162 C 0.59459 0.84223 0.05446 0.0
C163 C 0.59711 0.83231 0.01746 0.0
C164 C 0.59657 0.81575 0.02451 0.0
C165 C 0.59375 0.80873 0.06898 0.0
C166 C 0.59171 0.81869 0.10639 0.0
C167 C 0.59249 0.83539 0.09955 0.0
C168 C 0.58585 0.72877 0.05034 0.0
C169 C 0.59592 0.72079 0.03496 0.0
C170 C 0.58864 0.70664 0.9996 0.0
C171 C 0.57104 0.70014 0.97914 0.0
C172 C 0.56132 0.70882 0.99274 0.0
C173 C 0.56871 0.72311 0.02791 0.0
C174 C 0.58617 0.73072 0.13429 0.0
C175 C 0.56756 0.71931 0.14063 0.0
C176 C 0.56192 0.70617 0.17382 0.0
C177 C 0.57472 0.70397 0.20098 0.0
C178 C 0.59331 0.71628 0.19705 0.0
C179 C 0.59894 0.72951 0.16399 0.0
C180 C 0.59263 0.75788 0.08977 0.0
C181 C 0.60655 0.77168 0.06611 0.0
C182 C 0.60693 0.78818 0.05934 0.0
C183 C 0.59342 0.79129 0.0766 0.0
C184 C 0.57959 0.77763 0.10099 0.0
C185 C 0.57908 0.761 0.10722 0.0
H186 H 0.8516 0.56202 0.12625 0.0
N187 N 0.82682 0.53572 0.06624 0.0
H188 H 0.86491 0.55832 0.19984 0.0
H189 H 0.81894 0.50322 0.10235 0.0
H190 H 0.83172 0.49942 0.17642 0.0
H191 H 0.81455 0.50282 0.01672 0.0
H192 H 0.82802 0.49727 0.94791 0.0
H193 H 0.85323 0.56065 0.01928 0.0
H194 H 0.86656 0.55542 0.95013 0.0
H195 H 0.82004 0.56293 0.05611 0.0
H196 H 0.79395 0.50509 0.07624 0.0
H197 H 0.79115 0.56212 0.06269 0.0
H198 H 0.76521 0.50425 0.0861 0.0
H199 H 0.70322 0.55865 0.1445 0.0
H200 H 0.68538 0.55237 0.21337 0.0
H201 H 0.67728 0.4974 0.20884 0.0
H202 H 0.69511 0.50388 0.13941 0.0
H203 H 0.68187 0.50243 0.06004 0.0
H204 H 0.66356 0.496 0.98646 0.0
H205 H 0.69509 0.5532 0.95768 0.0
H206 H 0.71359 0.55937 0.03105 0.0
H207 H 0.74336 0.56129 0.12551 0.0
H208 H 0.77142 0.56042 0.11877 0.0
H209 H 0.74058 0.50556 0.05157 0.0
N210 N 0.70999 0.53583 0.09451 0.0
H211 H 0.71258 0.50622 0.06141 0.0
C212 C 0.83418 0.53297 0.10922 0.0
C213 C 0.84724 0.54834 0.13713 0.0
C214 C 0.85481 0.5462 0.17894 0.0
C215 C 0.84923 0.52858 0.19387 0.0
C216 C 0.83606 0.51315 0.16598 0.0
C217 C 0.82873 0.51531 0.1237 0.0
C218 C 0.83302 0.53217 0.02308 0.0
C219 C 0.82578 0.51433 0.00203 0.0
C220 C 0.83344 0.51122 0.96256 0.0
C221 C 0.8485 0.52589 0.94371 0.0
C222 C 0.8552 0.54377 0.96413 0.0
C223 C 0.84754 0.54683 0.00338 0.0
C224 C 0.80922 0.53419 0.06618 0.0
C225 C 0.80802 0.55005 0.062 0.0
C226 C 0.79151 0.54957 0.06647 0.0
C227 C 0.77578 0.53318 0.07599 0.0
C228 C 0.77693 0.51711 0.07864 0.0
C229 C 0.79345 0.51758 0.0734 0.0
C230 C 0.70047 0.5318 0.13691 0.0
C231 C 0.69774 0.54533 0.15876 0.0
C232 C 0.68762 0.54171 0.19826 0.0
C233 C 0.67991 0.52437 0.21684 0.0
C234 C 0.68288 0.51084 0.19522 0.0
C235 C 0.69312 0.51453 0.15565 0.0
C236 C 0.69906 0.53146 0.05109 0.0
C237 C 0.68489 0.51356 0.03786 0.0
C238 C 0.67438 0.50992 0.99577 0.0
C239 C 0.67783 0.52408 0.9661 0.0
C240 C 0.69221 0.54191 0.97926 0.0
C241 C 0.7027 0.54552 0.0213 0.0
C242 C 0.72594 0.53399 0.09354 0.0
C243 C 0.7427 0.54901 0.10995 0.0
C244 C 0.75875 0.54854 0.1054 0.0
C245 C 0.75844 0.53306 0.0836 0.0
C246 C 0.74146 0.51771 0.06867 0.0
C247 C 0.72536 0.5181 0.07397 0.0
H248 H 0.17762 0.7029 0.1511 0.0
N249 N 0.17057 0.72705 0.10666 0.0
H250 H 0.16031 0.68401 0.21283 0.0
H251 H 0.14934 0.73327 0.16074 0.0
H252 H 0.13268 0.71521 0.22499 0.0
H253 H 0.14168 0.72053 0.05284 0.0
H254 H 0.12446 0.69487 0.99406 0.0
H255 H 0.18189 0.70401 0.07023 0.0
H256 H 0.16489 0.67853 0.01184 0.0
H257 H 0.20314 0.72778 0.11664 0.0
H258 H 0.17865 0.76127 0.09686 0.0
H259 H 0.23307 0.75424 0.10936 0.0
H260 H 0.2086 0.7883 0.09411 0.0
H261 H 0.31883 0.83211 0.12671 0.0
H262 H 0.33744 0.84412 0.20053 0.0
H263 H 0.31004 0.87415 0.23504 0.0
H264 H 0.29157 0.86218 0.16054 0.0
H265 H 0.30125 0.8682 0.04426 0.0
H266 H 0.31698 0.87534 0.97152 0.0
H267 H 0.32092 0.82624 0.97655 0.0
H268 H 0.3049 0.81909 0.04929 0.0
H269 H 0.28568 0.80869 0.13983 0.0
H270 H 0.25628 0.78134 0.14386 0.0
H271 H 0.23246 0.8033 0.04829 0.0
N272 N 0.29268 0.83965 0.09471 0.0
H273 H 0.26174 0.83139 0.04809 0.0
C274 C 0.16446 0.71926 0.15071 0.0
C275 C 0.16809 0.70591 0.16753 0.0
C276 C 0.1582 0.69514 0.20325 0.0
C277 C 0.14473 0.69776 0.22328 0.0
C278 C 0.14252 0.71241 0.20942 0.0
C279 C 0.1522 0.72294 0.17321 0.0
C280 C 0.16302 0.71425 0.06606 0.0
C281 C 0.14704 0.71169 0.04301 0.0
C282 C 0.13724 0.69704 0.00954 0.0
C283 C 0.14325 0.68459 0.99879 0.0
C284 C 0.15981 0.68777 0.01997 0.0
C285 C 0.16965 0.70249 0.05323 0.0
C286 C 0.18861 0.7425 0.10587 0.0
C287 C 0.20418 0.74082 0.11061 0.0
C288 C 0.22141 0.75615 0.10725 0.0
C289 C 0.22344 0.77356 0.10052 0.0
C290 C 0.20773 0.77515 0.09766 0.0
C291 C 0.19055 0.75975 0.09982 0.0
C292 C 0.30388 0.84641 0.138 0.0
C293 C 0.31685 0.84131 0.14999 0.0
C294 C 0.32735 0.84804 0.1925 0.0
C295 C 0.32518 0.86006 0.22367 0.0
C296 C 0.31214 0.86504 0.2116 0.0
C297 C 0.30158 0.85822 0.16922 0.0
C298 C 0.30207 0.84328 0.05219 0.0
C299 C 0.30549 0.85899 0.02953 0.0
C300 C 0.31435 0.86295 0.9879 0.0
C301 C 0.32009 0.85129 0.9682 0.0
C302 C 0.31672 0.83551 0.99107 0.0
C303 C 0.30764 0.83145 0.0326 0.0
C304 C 0.27587 0.8224 0.09443 0.0
C305 C 0.27416 0.80777 0.12006 0.0
C306 C 0.25723 0.7919 0.12186 0.0
C307 C 0.24174 0.79005 0.09696 0.0
C308 C 0.24382 0.80436 0.06933 0.0
C309 C 0.26062 0.82038 0.06861 0.0
H310 H 0.53664 0.34481 0.09019 0.0
N311 N 0.51395 0.31567 0.13335 0.0
H312 H 0.52888 0.35882 0.02714 0.0
H313 H 0.48207 0.29869 0.07793 0.0
H314 H 0.47427 0.31227 0.01402 0.0
H315 H 0.47959 0.30393 0.16025 0.0
H316 H 0.47113 0.31949 0.2195 0.0
H317 H 0.5362 0.34282 0.19484 0.0
H318 H 0.52791 0.35872 0.25371 0.0
H319 H 0.54312 0.31245 0.14415 0.0
H320 H 0.48468 0.28065 0.13085 0.0
H321 H 0.5445 0.28454 0.15447 0.0
H322 H 0.48584 0.25255 0.13844 0.0
H323 H 0.53928 0.18829 0.13138 0.0
H324 H 0.52812 0.16274 0.07178 0.0
H325 H 0.47575 0.1594 0.06369 0.0
H326 H 0.48709 0.185 0.12356 0.0
H327 H 0.48705 0.17842 0.20522 0.0
H328 H 0.48158 0.15826 0.26848 0.0
H329 H 0.53948 0.18282 0.29848 0.0
H330 H 0.54481 0.20356 0.23603 0.0
H331 H 0.54234 0.23031 0.12757 0.0
H332 H 0.54019 0.25762 0.11454 0.0
H333 H 0.49232 0.23611 0.19379 0.0
N334 N 0.5203 0.20138 0.17221 0.0
H335 H 0.49406 0.20857 0.20449 0.0
C336 C 0.51004 0.32077 0.08888 0.0
C337 C 0.52318 0.33738 0.07259 0.0
C338 C 0.51868 0.34535 0.03652 0.0
C339 C 0.50085 0.33678 0.01583 0.0
C340 C 0.48803 0.3194 0.02981 0.0
C341 C 0.49255 0.31149 0.06614 0.0
C342 C 0.50859 0.32227 0.17329 0.0
C343 C 0.49022 0.31555 0.18131 0.0
C344 C 0.48539 0.32458 0.21492 0.0
C345 C 0.49884 0.34044 0.24098 0.0
C346 C 0.51722 0.34644 0.23462 0.0
C347 C 0.522 0.33742 0.20103 0.0
C348 C 0.51391 0.29866 0.13605 0.0
C349 C 0.5306 0.29936 0.14257 0.0
C350 C 0.53133 0.28336 0.14821 0.0
C351 C 0.51527 0.2662 0.147 0.0
C352 C 0.49847 0.26552 0.14009 0.0
C353 C 0.49778 0.28162 0.13502 0.0
C354 C 0.51406 0.18848 0.13184 0.0
C355 C 0.52554 0.18229 0.11587 0.0
C356 C 0.51913 0.16772 0.08187 0.0
C357 C 0.50102 0.159 0.06326 0.0
C358 C 0.4897 0.16572 0.07786 0.0
C359 C 0.49619 0.1804 0.1118 0.0
C360 C 0.51645 0.19269 0.216 0.0
C361 C 0.49859 0.18008 0.22654 0.0
C362 C 0.49546 0.1683 0.2624 0.0
C363 C 0.51008 0.16867 0.28798 0.0
C364 C 0.52788 0.18222 0.27974 0.0
C365 C 0.53099 0.19412 0.24409 0.0
C366 C 0.51859 0.21744 0.16738 0.0
C367 C 0.53141 0.23155 0.14214 0.0
C368 C 0.53019 0.24719 0.13497 0.0
C369 C 0.51615 0.2492 0.15342 0.0
C370 C 0.50319 0.23497 0.17856 0.0
C371 C 0.5043 0.21918 0.18519 0.0
C372 C 0.98613 0.4521 0.73583 0.0
C373 C 0.03985 0.48777 0.6889 0.0
C374 C 0.01896 0.53825 0.68196 0.0
Mg375 Mg 0.00201 0.46375 0.63887 0.0
O376 O 0.99579 0.48176 0.65319 0.0
Mg377 Mg 0.00651 0.49708 0.71374 0.0
Mg378 Mg 0.00176 0.5016 0.60983 0.0
O379 O 0.00773 0.5215 0.56676 0.0
Mg380 Mg 0.00108 0.5392 0.58178 0.0
Mg381 Mg 0.99716 0.50627 0.50609 0.0
C382 C 0.98477 0.46494 0.53784 0.0
C383 C 0.03231 0.50311 0.54029 0.0
O384 O 0.99245 0.46913 0.74915 0.0
O385 O 0.98797 0.44693 0.69458 0.0
O386 O 0.03285 0.49584 0.71153 0.0
O387 O 0.03076 0.47541 0.65594 0.0
O388 O 0.99032 0.45699 0.56619 0.0
O389 O 0.98582 0.48039 0.54939 0.0
C390 C 0.97141 0.50036 0.67971 0.0
O391 O 0.9762 0.50198 0.63718 0.0
O392 O 0.98073 0.49836 0.71265 0.0
O393 O 0.01103 0.53434 0.47131 0.0
O394 O 0.01473 0.55622 0.52594 0.0
O395 O 0.97077 0.50737 0.50825 0.0
C396 C 0.01686 0.55126 0.48476 0.0
O397 O 0.97221 0.52713 0.56486 0.0
O398 O 0.01315 0.5462 0.65434 0.0
C399 C 0.96344 0.51505 0.53108 0.0
O400 O 0.01778 0.52279 0.66996 0.0
O401 O 0.02731 0.50123 0.58262 0.0
O402 O 0.02309 0.50522 0.50725 0.0
C403 C 0.47232 0.00958 0.76089 0.0
C404 C 0.45227 0.95909 0.67583 0.0
C405 C 0.52191 0.97674 0.67223 0.0
Mg406 Mg 0.46874 -0.0006 0.65366 0.0
O407 O 0.49236 0.00401 0.66909 0.0
Mg408 Mg 0.4953 0.98952 0.71899 0.0
Mg409 Mg 0.50509 0.99895 0.61878 0.0
O410 O 0.51767 0.99395 0.56808 0.0
Mg411 Mg 0.54105 0.99792 0.5821 0.0
Mg412 Mg 0.51485 0.00871 0.51848 0.0
C413 C 0.48897 0.02223 0.56651 0.0
C414 C 0.47501 0.97381 0.53395 0.0
O415 O 0.48265 0.00263 0.76727 0.0
O416 O 0.4657 0.00995 0.7202 0.0
O417 O 0.46683 0.96435 0.70168 0.0
O418 O 0.45039 0.97009 0.64981 0.0
O419 O 0.47517 0.01576 0.59186 0.0
O420 O 0.5021 0.01903 0.57382 0.0
C421 C 0.53498 0.02447 0.70357 0.0
O422 O 0.53172 0.02141 0.65889 0.0
O423 O 0.52335 0.01457 0.7322 0.0
O424 O 0.52722 0.99554 0.46911 0.0
O425 O 0.54289 0.98653 0.51563 0.0
O426 O 0.54361 0.03367 0.53484 0.0
C427 C 0.53674 0.98767 0.47501 0.0
O428 O 0.56009 0.02696 0.58384 0.0
O429 O 0.5354 0.98293 0.64592 0.0
C430 C 0.55837 0.03836 0.55918 0.0
O431 O 0.50828 0.97911 0.66432 0.0
O432 O 0.47855 0.97636 0.5786 0.0
O433 O 0.48656 0.98407 0.50561 0.0
C434 C 0.53571 0.55183 0.47705 0.0
C435 C 0.5528 0.51591 0.53353 0.0
C436 C 0.48216 0.468 0.54555 0.0
Mg437 Mg 0.54106 0.54186 0.5777 0.0
O438 O 0.51631 0.52498 0.5634 0.0
Mg439 Mg 0.51009 0.50792 0.50609 0.0
Mg440 Mg 0.50348 0.50673 0.61023 0.0
O441 O 0.49096 0.4885 0.65722 0.0
Mg442 Mg 0.46658 0.47005 0.64507 0.0
Mg443 Mg 0.49741 0.50549 0.71478 0.0
C444 C 0.52509 0.54492 0.67572 0.0
C445 C 0.53476 0.50799 0.68245 0.0
O446 O 0.52393 0.53484 0.46565 0.0
O447 O 0.54361 0.55742 0.51831 0.0
O448 O 0.5373 0.50805 0.51074 0.0
O449 O 0.55707 0.52878 0.5653 0.0
O450 O 0.53813 0.55127 0.64789 0.0
O451 O 0.51018 0.5297 0.66592 0.0
C452 C 0.47316 0.50685 0.53722 0.0
O453 O 0.47732 0.50607 0.58044 0.0
O454 O 0.48347 0.50777 0.50473 0.0
O455 O 0.48534 0.47881 0.75539 0.0
O456 O 0.46609 0.45512 0.70479 0.0
O457 O 0.46945 0.50383 0.71167 0.0
C458 C 0.47451 0.46152 0.7453 0.0
O459 O 0.4497 0.48201 0.65899 0.0
O460 O 0.46945 0.46089 0.5742 0.0
C461 C 0.45369 0.49503 0.6901 0.0
O462 O 0.4965 0.48376 0.55494 0.0
O463 O 0.52983 0.50764 0.63924 0.0
O464 O 0.52472 0.50717 0.7155 0.0
H465 H 0.11687 0.46299 0.27702 0.0
H466 H 0.10133 0.46901 0.33914 0.0
H467 H 0.15225 0.5009 0.42103 0.0
H468 H 0.16803 0.49489 0.3586 0.0
H469 H 0.09886 0.46114 0.43318 0.0
H470 H 0.13279 0.53648 0.41415 0.0
H471 H 0.13404 0.52094 0.3711 0.0
H472 H 0.14736 0.52715 0.42593 0.0
C473 C 0.1248 0.47111 0.30842 0.0
C474 C 0.14373 0.47843 0.31277 0.0
C475 C 0.11587 0.47459 0.34392 0.0
C476 C 0.12561 0.48551 0.38465 0.0
C477 C 0.14448 0.49267 0.3896 0.0
H478 H 0.05397 0.49348 0.59304 0.0
H479 H 0.07943 0.49023 0.56626 0.0
C480 C 0.15348 0.48923 0.35388 0.0
C481 C 0.11578 0.48966 0.42072 0.0
H482 H 0.10939 0.52412 0.4654 0.0
C483 C 0.10135 0.47495 0.441 0.0
C484 C 0.11906 0.5077 0.43082 0.0
C485 C 0.13405 0.52401 0.40925 0.0
C486 C 0.0895 0.47763 0.46887 0.0
C487 C 0.09229 0.49556 0.47717 0.0
C488 C 0.10736 0.5104 0.45924 0.0
C489 C 0.07807 0.49878 0.49653 0.0
C490 C 0.07336 0.46113 0.48648 0.0
C491 C 0.06925 0.50516 0.46694 0.0
C492 C 0.05485 0.507 0.48204 0.0
C493 C 0.04879 0.50252 0.52735 0.0
C494 C 0.05811 0.49683 0.55786 0.0
C495 C 0.07263 0.49492 0.54252 0.0
H496 H 0.07203 0.44799 0.4724 0.0
H497 H 0.07485 0.46173 0.52533 0.0
H498 H 0.06064 0.46117 0.47658 0.0
H499 H 0.0732 0.50826 0.43139 0.0
H500 H 0.04825 0.51164 0.45752 0.0
H501 H 0.70257 0.1324 0.3514 0.0
H502 H 0.68292 0.1202 0.41649 0.0
H503 H 0.64295 0.12968 0.3461 0.0
H504 H 0.66268 0.14219 0.28127 0.0
H505 H 0.6463 0.13767 0.44295 0.0
H506 H 0.63861 0.06905 0.40022 0.0
H507 H 0.66164 0.08713 0.41319 0.0
H508 H 0.64898 0.08756 0.36195 0.0
C509 C 0.68965 0.13201 0.35002 0.0
C510 C 0.68406 0.13805 0.31102 0.0
C511 C 0.67844 0.12502 0.38717 0.0
C512 C 0.66131 0.12367 0.38568 0.0
C513 C 0.65609 0.13055 0.34792 0.0
H514 H 0.56026 0.06565 0.50672 0.0
H515 H 0.58737 0.08971 0.47459 0.0
C516 C 0.66738 0.13771 0.31093 0.0
C517 C 0.6483 0.11394 0.42163 0.0
H518 H 0.62372 0.07179 0.46478 0.0
C519 C 0.64144 0.1233 0.44802 0.0
C520 C 0.64193 0.09517 0.42809 0.0
C521 C 0.64801 0.08405 0.39913 0.0
C522 C 0.62827 0.11432 0.48045 0.0
C523 C 0.62171 0.09549 0.48624 0.0
C524 C 0.62892 0.0863 0.46072 0.0
C525 C 0.60611 0.08435 0.51462 0.0
C526 C 0.62143 0.12502 0.50802 0.0
C527 C 0.60763 0.07371 0.54911 0.0
C528 C 0.59208 0.0598 0.5675 0.0
C529 C 0.57471 0.05613 0.55115 0.0
C530 C 0.57339 0.06797 0.5199 0.0
C531 C 0.58894 0.08187 0.50162 0.0
H532 H 0.63154 0.13994 0.51109 0.0
H533 H 0.60886 0.12316 0.48958 0.0
H534 H 0.61818 0.12013 0.54376 0.0
H535 H 0.62076 0.0754 0.55963 0.0
H536 H 0.59364 0.05106 0.59176 0.0
H537 H 0.5883 0.70247 0.28831 0.0
H538 H 0.58004 0.67505 0.33114 0.0
H539 H 0.53933 0.64157 0.22093 0.0
H540 H 0.54785 0.66869 0.17724 0.0
H541 H 0.54611 0.64929 0.36313 0.0
H542 H 0.57014 0.61669 0.23291 0.0
H543 H 0.57628 0.64054 0.23293 0.0
H544 H 0.55419 0.62289 0.20962 0.0
C545 C 0.57762 0.68927 0.27317 0.0
C546 C 0.56876 0.68778 0.22936 0.0
C547 C 0.57287 0.67364 0.29773 0.0
C548 C 0.55929 0.65628 0.27876 0.0
C549 C 0.55006 0.65481 0.23575 0.0
H550 H 0.51764 0.54803 0.39168 0.0
H551 H 0.52243 0.57263 0.34068 0.0
C552 C 0.55479 0.67039 0.21118 0.0
C553 C 0.55481 0.6397 0.30405 0.0
H554 H 0.55561 0.59951 0.29706 0.0
C555 C 0.54816 0.6384 0.34868 0.0
C556 C 0.55739 0.62546 0.28487 0.0
C557 C 0.56503 0.62645 0.23762 0.0
C558 C 0.54413 0.62327 0.37487 0.0
C559 C 0.5471 0.60924 0.35618 0.0
C560 C 0.55334 0.6103 0.31112 0.0
C561 C 0.54494 0.59406 0.38444 0.0
C562 C 0.53675 0.6224 0.42244 0.0
C563 C 0.55643 0.59795 0.42479 0.0
C564 C 0.5538 0.58405 0.45373 0.0
C565 C 0.53963 0.56589 0.44286 0.0
C566 C 0.52864 0.56185 0.4011 0.0
C567 C 0.53132 0.57587 0.37202 0.0
H568 H 0.53089 0.63153 0.42644 0.0
H569 H 0.52614 0.60814 0.42846 0.0
H570 H 0.54795 0.6269 0.45 0.0
H571 H 0.56724 0.61187 0.43438 0.0
H572 H 0.56268 0.58766 0.48526 0.0
H573 H 0.83195 0.50787 0.26645 0.0
H574 H 0.84589 0.50443 0.33918 0.0
H575 H 0.89908 0.53997 0.29123 0.0
H576 H 0.88519 0.54403 0.21984 0.0
H577 H 0.86593 0.49015 0.35531 0.0
H578 H 0.90645 0.56277 0.41981 0.0
H579 H 0.88933 0.55519 0.37196 0.0
H580 H 0.9121 0.56029 0.36134 0.0
C581 C 0.84661 0.51505 0.27181 0.0
C582 C 0.85752 0.52636 0.23784 0.0
C583 C 0.85457 0.51311 0.31334 0.0
C584 C 0.87357 0.52232 0.32143 0.0
C585 C 0.88442 0.5333 0.28688 0.0
H586 H 0.94294 0.49304 0.45454 0.0
H587 H 0.91762 0.49308 0.41346 0.0
C588 C 0.87648 0.53549 0.24584 0.0
C589 C 0.88219 0.51968 0.36441 0.0
H590 H 0.91773 0.54292 0.44616 0.0
C591 C 0.87702 0.50172 0.37577 0.0
C592 C 0.89624 0.53467 0.39248 0.0
C593 C 0.90116 0.55428 0.38605 0.0
C594 C 0.88645 0.49838 0.41183 0.0
C595 C 0.90192 0.51338 0.436 0.0
C596 C 0.90613 0.53133 0.4272 0.0
C597 C 0.91518 0.51094 0.46582 0.0
C598 C 0.87984 0.47878 0.42302 0.0
C599 C 0.92245 0.52095 0.50939 0.0
C600 C 0.93743 0.52134 0.53273 0.0
C601 C 0.9454 0.5117 0.51287 0.0
C602 C 0.93724 0.50067 0.47101 0.0
C603 C 0.92251 0.5005 0.44752 0.0
H604 H 0.86479 0.47048 0.41812 0.0
H605 H 0.88539 0.47257 0.39847 0.0
H606 H 0.88406 0.47786 0.45956 0.0
H607 H 0.91706 0.52913 0.52429 0.0
H608 H 0.94331 0.52991 0.56499 0.0
H609 H 0.34221 0.89564 0.25974 0.0
H610 H 0.36379 0.90929 0.32817 0.0
H611 H 0.35653 0.85615 0.35575 0.0
H612 H 0.33496 0.84237 0.28685 0.0
H613 H 0.36231 0.90301 0.42402 0.0
H614 H 0.41081 0.88681 0.33809 0.0
H615 H 0.39101 0.8846 0.30653 0.0
H616 H 0.38872 0.86769 0.3462 0.0
C617 C 0.34497 0.88679 0.28077 0.0
C618 C 0.33702 0.86796 0.26763 0.0
C619 C 0.35731 0.89461 0.31989 0.0
C620 C 0.36194 0.88378 0.34668 0.0
C621 C 0.35339 0.86481 0.33504 0.0
H622 H 0.44794 0.9449 0.57743 0.0
H623 H 0.41882 0.92017 0.54073 0.0
C624 C 0.34111 0.85698 0.29566 0.0
C625 C 0.37678 0.8928 0.3842 0.0
H626 H 0.42117 0.90524 0.40823 0.0
C627 C 0.37508 0.90323 0.42124 0.0
C628 C 0.39343 0.89306 0.38031 0.0
C629 C 0.39626 0.88257 0.34056 0.0
C630 C 0.38992 0.9147 0.45297 0.0
C631 C 0.40677 0.91563 0.44748 0.0
C632 C 0.40814 0.90435 0.41234 0.0
C633 C 0.42381 0.93048 0.47156 0.0
C634 C 0.38791 0.92668 0.4901 0.0
C635 C 0.43612 0.94436 0.44487 0.0
C636 C 0.45256 0.95838 0.46551 0.0
C637 C 0.45716 0.95888 0.51352 0.0
C638 C 0.44473 0.94501 0.54053 0.0
C639 C 0.42813 0.93088 0.51964 0.0
H640 H 0.37405 0.92488 0.48844 0.0
H641 H 0.39081 0.92332 0.52535 0.0
H642 H 0.3979 0.94135 0.48605 0.0
H643 H 0.43299 0.94432 0.40775 0.0
H644 H 0.46167 0.96883 0.44354 0.0
H645 H 0.47236 0.34914 0.22307 0.0
H646 H 0.46618 0.37012 0.26988 0.0
H647 H 0.50836 0.37883 0.37344 0.0
H648 H 0.51423 0.35737 0.32766 0.0
H649 H 0.4768 0.37412 0.41177 0.0
H650 H 0.50009 0.42608 0.27842 0.0
H651 H 0.48245 0.40343 0.25765 0.0
H652 H 0.50452 0.40722 0.27632 0.0
C653 C 0.48008 0.35523 0.25627 0.0
C654 C 0.49385 0.35166 0.2716 0.0
C655 C 0.47669 0.3674 0.28261 0.0
C656 C 0.48708 0.37629 0.32453 0.0
C657 C 0.50032 0.37222 0.34089 0.0
H658 H 0.50949 0.47301 0.48989 0.0
H659 H 0.5089 0.45076 0.43129 0.0
C660 C 0.50371 0.36003 0.31464 0.0
C661 C 0.48441 0.39007 0.35125 0.0
H662 H 0.48865 0.43248 0.34627 0.0
C663 C 0.47927 0.38684 0.39743 0.0
C664 C 0.48787 0.40671 0.33243 0.0
C665 C 0.49419 0.41122 0.28364 0.0
C666 C 0.47766 0.39989 0.42561 0.0
C667 C 0.48092 0.41646 0.40666 0.0
C668 C 0.48594 0.41966 0.36037 0.0
C669 C 0.48039 0.43109 0.43573 0.0
C670 C 0.47312 0.39611 0.47595 0.0
C671 C 0.46434 0.42777 0.45575 0.0
C672 C 0.46464 0.44042 0.48941 0.0
C673 C 0.48099 0.45667 0.50323 0.0
C674 C 0.4967 0.46064 0.48011 0.0
C675 C 0.4964 0.44791 0.44666 0.0
H676 H 0.475 0.38473 0.48777 0.0
H677 H 0.4817 0.40855 0.49972 0.0
H678 H 0.4587 0.39215 0.47939 0.0
H679 H 0.45176 0.41503 0.44689 0.0
H680 H 0.45225 0.43707 0.5061 0.0
H681 H 0.53726 0.86896 0.9606 0.0
H682 H 0.52242 0.88372 0.92108 0.0
H683 H 0.55918 0.89724 0.81048 0.0
H684 H 0.57406 0.88243 0.8497 0.0
H685 H 0.5427 0.92209 0.90244 0.0
H686 H 0.50796 0.87685 0.74127 0.0
H687 H 0.51416 0.86892 0.79278 0.0
H688 H 0.53101 0.88206 0.75287 0.0
C689 C 0.54183 0.8746 0.92714 0.0
C690 C 0.55678 0.8745 0.90807 0.0
C691 C 0.53341 0.88311 0.90482 0.0
C692 C 0.53962 0.89141 0.86276 0.0
C693 C 0.55403 0.89066 0.8426 0.0
H694 H 0.55149 0.98008 0.72087 0.0
H695 H 0.55233 0.95889 0.77518 0.0
C696 C 0.56257 0.8823 0.86511 0.0
C697 C 0.53243 0.90255 0.84235 0.0
H698 H 0.51354 0.90773 0.74103 0.0
C699 C 0.53598 0.91879 0.86752 0.0
C700 C 0.52353 0.89809 0.79707 0.0
C701 C 0.51877 0.88044 0.76949 0.0
C702 C 0.53192 0.93131 0.84723 0.0
C703 C 0.52416 0.92744 0.80073 0.0
C704 C 0.51951 0.91065 0.77673 0.0
C705 C 0.52313 0.9416 0.77413 0.0
C706 C 0.53658 0.94891 0.87493 0.0
C707 C 0.50639 0.93905 0.75628 0.0
C708 C 0.50586 0.95131 0.72549 0.0
C709 C 0.52209 0.96596 0.71138 0.0
C710 C 0.53877 0.96887 0.731 0.0
C711 C 0.53928 0.95683 0.76219 0.0
H712 H 0.53768 0.94763 0.91327 0.0
H713 H 0.54987 0.96006 0.86492 0.0
H714 H 0.52622 0.95296 0.86728 0.0
H715 H 0.4938 0.92728 0.76494 0.0
H716 H 0.49282 0.9487 0.71061 0.0
H717 H 0.64088 0.5026 0.95443 0.0
H718 H 0.62116 0.49873 0.88575 0.0
H719 H 0.66793 0.53393 0.81104 0.0
H720 H 0.68788 0.5378 0.87985 0.0
H721 H 0.64285 0.54453 0.80762 0.0
H722 H 0.60859 0.47011 0.75977 0.0
H723 H 0.60738 0.47435 0.82111 0.0
H724 H 0.62917 0.48184 0.79772 0.0
C725 C 0.64705 0.50915 0.92304 0.0
C726 C 0.66599 0.52051 0.92272 0.0
C727 C 0.63573 0.50687 0.88364 0.0
C728 C 0.64306 0.51575 0.84284 0.0
C729 C 0.66198 0.52681 0.84198 0.0
H730 H 0.55709 0.50064 0.62881 0.0
H731 H 0.58636 0.50347 0.65548 0.0
C732 C 0.67334 0.52912 0.88146 0.0
C733 C 0.63076 0.51506 0.80359 0.0
H734 H 0.59148 0.48535 0.73899 0.0
C735 C 0.63193 0.5316 0.79158 0.0
C736 C 0.61668 0.49826 0.78186 0.0
C737 C 0.6155 0.48016 0.79042 0.0
C738 C 0.61841 0.53164 0.76206 0.0
C739 C 0.6033 0.51474 0.74455 0.0
C740 C 0.60301 0.4983 0.75282 0.0
C741 C 0.58636 0.51378 0.72608 0.0
C742 C 0.61981 0.54973 0.75213 0.0
C743 C 0.57676 0.51852 0.75697 0.0
C744 C 0.56019 0.51676 0.7422 0.0
C745 C 0.55275 0.51023 0.696 0.0
C746 C 0.56251 0.50574 0.66456 0.0
C747 C 0.57916 0.50733 0.67971 0.0
H748 H 0.63417 0.56107 0.75508 0.0
H749 H 0.61373 0.54908 0.71654 0.0
H750 H 0.61232 0.55302 0.77816 0.0
H751 H 0.58196 0.52329 0.79303 0.0
H752 H 0.55317 0.5205 0.7673 0.0
H753 H 0.12472 0.68111 0.91522 0.0
H754 H 0.10351 0.65258 0.8689 0.0
H755 H 0.114 0.62128 0.96818 0.0
H756 H 0.1351 0.64968 0.0149 0.0
H757 H 0.11138 0.62283 0.8322 0.0
H758 H 0.05662 0.60099 0.95689 0.0
H759 H 0.07423 0.62469 0.95499 0.0
H760 H 0.07942 0.60856 0.98005 0.0
C761 C 0.12254 0.66815 0.92706 0.0
C762 C 0.13156 0.66761 0.96861 0.0
C763 C 0.1105 0.65192 0.90057 0.0
C764 C 0.10716 0.63491 0.91549 0.0
C765 C 0.11638 0.63431 0.95638 0.0
H766 H 0.04325 0.53325 0.73576 0.0
H767 H 0.06438 0.55433 0.79946 0.0
C768 C 0.12852 0.65054 0.98273 0.0
C769 C 0.09376 0.61782 0.88845 0.0
H770 H 0.05017 0.58219 0.88745 0.0
C771 C 0.09808 0.61377 0.8444 0.0
C772 C 0.07645 0.60618 0.90472 0.0
C773 C 0.07123 0.61025 0.95165 0.0
C774 C 0.0853 0.59853 0.8155 0.0
C775 C 0.06784 0.58708 0.83132 0.0
C776 C 0.06366 0.59091 0.87582 0.0
C777 C 0.05322 0.57246 0.79966 0.0
C778 C 0.09025 0.59522 0.76737 0.0
C779 C 0.03949 0.57527 0.78052 0.0
C780 C 0.02746 0.56333 0.74421 0.0
C781 C 0.02892 0.54831 0.72664 0.0
C782 C 0.04178 0.54469 0.74852 0.0
C783 C 0.05392 0.55676 0.78471 0.0
H784 H 0.10357 0.60667 0.75833 0.0
H785 H 0.09098 0.58242 0.76607 0.0
H786 H 0.07967 0.5934 0.74032 0.0
H787 H 0.03873 0.5873 0.79182 0.0
H788 H 0.01759 0.56639 0.7284 0.0
H789 H 0.51731 0.15308 0.9894 0.0
H790 H 0.50683 0.12445 0.9416 0.0
H791 H 0.45806 0.09845 0.0164 0.0
H792 H 0.4687 0.12697 0.06537 0.0
H793 H 0.47551 0.07787 0.00899 0.0
H794 H 0.46657 0.10076 0.8363 0.0
H795 H 0.48853 0.11583 0.86524 0.0
H796 H 0.46852 0.11338 0.89089 0.0
C797 C 0.50431 0.1413 0.9955 0.0
C798 C 0.49381 0.14228 0.03105 0.0
C799 C 0.49827 0.12501 0.96792 0.0
C800 C 0.48158 0.10943 0.97514 0.0
C801 C 0.47093 0.11039 0.01014 0.0
H802 H 0.44499 0.01731 0.76845 0.0
H803 H 0.44361 0.03859 0.82647 0.0
C804 C 0.47695 0.12672 0.03775 0.0
C805 C 0.4758 0.09195 0.9475 0.0
H806 H 0.46908 0.07364 0.83516 0.0
C807 C 0.47381 0.0768 0.97099 0.0
C808 C 0.4733 0.09051 0.89808 0.0
C809 C 0.47415 0.10593 0.87115 0.0
C810 C 0.4703 0.06051 0.94608 0.0
C811 C 0.46907 0.05956 0.89649 0.0
C812 C 0.47016 0.07441 0.87321 0.0
C813 C 0.46781 0.04391 0.86756 0.0
C814 C 0.4681 0.0446 0.9731 0.0
C815 C 0.48153 0.03933 0.87233 0.0
C816 C 0.48224 0.02698 0.83947 0.0
C817 C 0.46944 0.01932 0.8008 0.0
C818 C 0.45513 0.02311 0.79767 0.0
C819 C 0.45431 0.03526 0.8308 0.0
H820 H 0.46318 0.04502 0.00832 0.0
H821 H 0.45846 0.03123 0.95398 0.0
H822 H 0.48148 0.04543 0.9783 0.0
H823 H 0.49233 0.04613 0.89977 0.0
H824 H 0.49351 0.02445 0.84261 0.0
H825 H 0.32488 0.49529 0.92655 0.0
H826 H 0.34411 0.50018 0.8605 0.0
H827 H 0.37066 0.47524 0.93328 0.0
H828 H 0.35149 0.47018 0.9987 0.0
H829 H 0.38088 0.51925 0.85338 0.0
H830 H 0.3549 0.44555 0.80861 0.0
H831 H 0.34383 0.45352 0.848 0.0
H832 H 0.36301 0.45164 0.86909 0.0
C833 C 0.33488 0.49093 0.92844 0.0
C834 C 0.33646 0.48209 0.96756 0.0
C835 C 0.34581 0.49367 0.89065 0.0
C836 C 0.35852 0.48764 0.89134 0.0
C837 C 0.36056 0.47947 0.93117 0.0
H838 H 0.45638 0.51838 0.76324 0.0
H839 H 0.43167 0.51812 0.80348 0.0
C840 C 0.34961 0.47662 0.96865 0.0
C841 C 0.36988 0.48996 0.85102 0.0
H842 H 0.38385 0.4665 0.77997 0.0
C843 C 0.38134 0.50769 0.83678 0.0
C844 C 0.37017 0.47486 0.82829 0.0
C845 C 0.35716 0.45531 0.83892 0.0
C846 C 0.39388 0.51081 0.80265 0.0
C847 C 0.3953 0.49588 0.78305 0.0
C848 C 0.38301 0.47804 0.7952 0.0
C849 C 0.41036 0.49841 0.75355 0.0
C850 C 0.40555 0.53013 0.7883 0.0
C851 C 0.40681 0.48754 0.71151 0.0
C852 C 0.42103 0.48741 0.6886 0.0
C853 C 0.43909 0.49811 0.70738 0.0
C854 C 0.44267 0.50993 0.74761 0.0
C855 C 0.42849 0.50993 0.77063 0.0
H856 H 0.39831 0.53801 0.79111 0.0
H857 H 0.418 0.53731 0.81229 0.0
H858 H 0.40959 0.53026 0.75179 0.0
H859 H 0.39296 0.47853 0.69754 0.0
H860 H 0.41774 0.4782 0.65762 0.0
H861 H 0.86717 0.3428 0.00686 0.0
H862 H 0.8884 0.36791 0.96206 0.0
H863 H 0.89259 0.32908 0.86779 0.0
H864 H 0.87093 0.30378 0.91171 0.0
H865 H 0.92419 0.37606 0.95034 0.0
H866 H 0.88542 0.36233 0.77873 0.0
H867 H 0.87467 0.35231 0.83144 0.0
H868 H 0.88627 0.34291 0.79942 0.0
C869 C 0.87216 0.33952 0.97577 0.0
C870 C 0.86728 0.32126 0.96269 0.0
C871 C 0.88444 0.35392 0.9505 0.0
C872 C 0.89197 0.35034 0.9115 0.0
C873 C 0.88672 0.33211 0.89741 0.0
H874 H 0.97371 0.41527 0.72432 0.0
H875 H 0.9518 0.3911 0.77003 0.0
C876 C 0.87446 0.31769 0.92272 0.0
C877 C 0.90627 0.36575 0.88765 0.0
H878 H 0.91688 0.3845 0.7819 0.0
C879 C 0.92258 0.37801 0.91358 0.0
C880 C 0.9041 0.36819 0.83973 0.0
C881 C 0.88662 0.35585 0.81071 0.0
C882 C 0.93698 0.39243 0.89254 0.0
C883 C 0.93486 0.39478 0.84451 0.0
C884 C 0.91848 0.38261 0.8187 0.0
C885 C 0.94945 0.40968 0.81998 0.0
C886 C 0.95449 0.4047 0.92153 0.0
C887 C 0.95565 0.42819 0.83343 0.0
C888 C 0.96829 0.44211 0.80748 0.0
C889 C 0.9748 0.43772 0.76731 0.0
C890 C 0.96896 0.41917 0.75493 0.0
C891 C 0.9564 0.40531 0.78095 0.0
H892 H 0.95554 0.39832 0.95387 0.0
H893 H 0.96641 0.40794 0.90099 0.0
H894 H 0.95505 0.4178 0.93222 0.0
H895 H 0.95023 0.43185 0.86301 0.0
H896 H 0.97238 0.45623 0.81781 0.0
H897 H 0.83336 0.50274 0.86372 0.0
H898 H 0.84929 0.49695 0.80135 0.0
H899 H 0.90073 0.53559 0.87372 0.0
H900 H 0.88502 0.54147 0.93564 0.0
H901 H 0.90067 0.53949 0.77811 0.0
H902 H 0.8738 0.46634 0.81569 0.0
H903 H 0.8572 0.47292 0.80145 0.0
H904 H 0.87142 0.48224 0.85485 0.0
C905 C 0.84806 0.50996 0.86632 0.0
C906 C 0.8579 0.52257 0.90474 0.0
C907 C 0.85715 0.50665 0.83064 0.0
C908 C 0.87623 0.51571 0.83302 0.0
C909 C 0.88602 0.5285 0.87091 0.0
H910 H 0.9579 0.49567 0.76573 0.0
H911 H 0.93251 0.49832 0.79119 0.0
C912 C 0.87699 0.53188 0.90632 0.0
C913 C 0.88626 0.51154 0.79755 0.0
H914 H 0.89571 0.47831 0.76044 0.0
C915 C 0.89938 0.52603 0.7735 0.0
C916 C 0.88455 0.49396 0.7916 0.0
C917 C 0.8711 0.47796 0.81741 0.0
C918 C 0.9115 0.52369 0.74588 0.0
C919 C 0.91034 0.50633 0.74177 0.0
C920 C 0.89649 0.49158 0.76342 0.0
C921 C 0.92522 0.50402 0.72326 0.0
C922 C 0.92627 0.54007 0.72401 0.0
C923 C 0.92957 0.50616 0.67608 0.0
C924 C 0.94436 0.50465 0.66103 0.0
C925 C 0.95502 0.50108 0.69302 0.0
C926 C 0.95021 0.49857 0.73987 0.0
C927 C 0.93556 0.50001 0.75466 0.0
H928 H 0.92639 0.55299 0.73444 0.0
H929 H 0.93977 0.5418 0.73431 0.0
H930 H 0.9242 0.53781 0.68524 0.0
H931 H 0.9216 0.50903 0.65103 0.0
H932 H 0.94751 0.50644 0.6247 0.0
H933 H 0.31134 0.86251 0.88806 0.0
H934 H 0.32962 0.87411 0.82044 0.0
H935 H 0.36975 0.86303 0.88304 0.0
H936 H 0.35136 0.85115 0.95042 0.0
H937 H 0.3626 0.90379 0.82716 0.0
H938 H 0.36775 0.84566 0.74808 0.0
H939 H 0.35098 0.84255 0.78908 0.0
H940 H 0.37387 0.84953 0.80991 0.0
C941 C 0.32393 0.86228 0.88701 0.0
C942 C 0.32998 0.85603 0.92464 0.0
C943 C 0.33431 0.86882 0.84826 0.0
C944 C 0.35098 0.86927 0.84631 0.0
C945 C 0.35673 0.86239 0.88306 0.0
H946 H 0.45114 0.93248 0.72953 0.0
H947 H 0.42421 0.9077 0.76049 0.0
C948 C 0.34626 0.85569 0.92172 0.0
C949 C 0.36336 0.87912 0.80923 0.0
H950 H 0.39053 0.87593 0.72877 0.0
C951 C 0.36841 0.89758 0.80495 0.0
C952 C 0.37102 0.87104 0.78043 0.0
C953 C 0.36549 0.85104 0.78174 0.0
C954 C 0.38154 0.90844 0.77448 0.0
C955 C 0.38964 0.90054 0.7467 0.0
C956 C 0.38421 0.88192 0.74983 0.0
C957 C 0.40519 0.9121 0.71871 0.0
C958 C 0.38736 0.92858 0.77434 0.0
C959 C 0.40338 0.92199 0.68256 0.0
C960 C 0.41883 0.93634 0.66487 0.0
C961 C 0.43629 0.94095 0.68312 0.0
C962 C 0.43793 0.92955 0.71526 0.0
C963 C 0.42251 0.91529 0.73297 0.0
H964 H 0.38218 0.93316 0.80402 0.0
H965 H 0.4024 0.93716 0.77638 0.0
H966 H 0.38202 0.9311 0.74121 0.0
H967 H 0.39008 0.91944 0.67034 0.0
H968 H 0.41705 0.94463 0.63957 0.0
H969 H 0.52007 0.35888 0.94686 0.0
H970 H 0.51271 0.37883 0.90269 0.0
H971 H 0.4616 0.35712 0.96688 0.0
H972 H 0.4692 0.33782 0.01289 0.0
H973 H 0.48491 0.37211 0.83988 0.0
H974 H 0.48429 0.41188 0.99881 0.0
H975 H 0.49276 0.39608 0.00058 0.0
H976 H 0.46872 0.38764 0.99838 0.0
C977 C 0.50728 0.35836 0.95166 0.0
C978 C 0.49533 0.34686 0.98381 0.0
C979 C 0.50305 0.3697 0.9262 0.0
C980 C 0.4868 0.36975 0.93234 0.0
C981 C 0.47441 0.35761 0.96247 0.0
H982 H 0.44938 0.42493 0.74426 0.0
H983 H 0.4506 0.40218 0.79225 0.0
C984 C 0.47867 0.34636 0.98818 0.0
C985 C 0.48306 0.3828 0.90782 0.0
H986 H 0.47555 0.41874 0.92623 0.0
C987 C 0.48281 0.38228 0.85871 0.0
C988 C 0.4806 0.39623 0.93259 0.0
C989 C 0.48177 0.39817 0.98551 0.0
C990 C 0.48018 0.39482 0.8336 0.0
C991 C 0.47727 0.40796 0.85829 0.0
C992 C 0.47753 0.4085 0.90741 0.0
C993 C 0.47496 0.42189 0.83374 0.0
C994 C 0.48117 0.39427 0.781 0.0
C995 C 0.48757 0.44063 0.84322 0.0
C996 C 0.48675 0.45373 0.81636 0.0
C997 C 0.47334 0.44827 0.77939 0.0
C998 C 0.46003 0.42958 0.77206 0.0
C999 C 0.46077 0.41653 0.79922 0.0
H1000 H 0.48799 0.38664 0.76912 0.0
H1001 H 0.46721 0.38722 0.764 0.0
H1002 H 0.48862 0.40836 0.76872 0.0
H1003 H 0.49855 0.44507 0.87002 0.0
H1004 H 0.49721 0.46799 0.82299 0.0
H1005 H 0.1531 0.46128 0.93585 0.0
H1006 H 0.13897 0.46551 0.86493 0.0
H1007 H 0.12932 0.50436 0.94296 0.0
H1008 H 0.14295 0.49992 0.01419 0.0
H1009 H 0.10263 0.45826 0.85729 0.0
H1010 H 0.15119 0.53034 0.82259 0.0
H1011 H 0.15734 0.51696 0.85894 0.0
H1012 H 0.14498 0.52731 0.88227 0.0
C1013 C 0.148 0.47075 0.93798 0.0
C1014 C 0.14913 0.48021 0.9809 0.0
C1015 C 0.14008 0.47326 0.89729 0.0
C1016 C 0.13336 0.48545 0.89855 0.0
C1017 C 0.13482 0.49522 0.94097 0.0
H1018 H 0.06224 0.51206 0.76024 0.0
H1019 H 0.0876 0.51198 0.802 0.0
C1020 C 0.14263 0.49264 0.98172 0.0
C1021 C 0.12322 0.48669 0.85691 0.0
H1022 H 0.12118 0.51719 0.78546 0.0
C1023 C 0.10682 0.47103 0.84084 0.0
C1024 C 0.12876 0.50339 0.83571 0.0
C1025 C 0.14662 0.52043 0.85042 0.0
C1026 C 0.09518 0.47187 0.80619 0.0
C1027 C 0.10038 0.48878 0.78612 0.0
C1028 C 0.11724 0.50424 0.80067 0.0
C1029 C 0.08749 0.49116 0.75485 0.0
C1030 C 0.07692 0.45495 0.79376 0.0
C1031 C 0.07963 0.48024 0.71278 0.0
C1032 C 0.06488 0.48008 0.68887 0.0
C1033 C 0.05789 0.49098 0.70653 0.0
C1034 C 0.06704 0.50325 0.74597 0.0
C1035 C 0.08163 0.50328 0.76993 0.0
H1036 H 0.07364 0.44423 0.81908 0.0
H1037 H 0.06595 0.45845 0.7928 0.0
H1038 H 0.07698 0.44898 0.7585 0.0
H1039 H 0.0843 0.47116 0.69974 0.0
H1040 H 0.05835 0.47067 0.65819 0.0
H1041 H 0.67119 0.14489 0.96289 0.0
H1042 H 0.64782 0.12798 0.89943 0.0
H1043 H 0.65687 0.08215 0.90815 0.0
H1044 H 0.6795 0.09848 0.97337 0.0
H1045 H 0.64602 0.1113 0.81154 0.0
H1046 H 0.60378 0.06 0.93552 0.0
H1047 H 0.62398 0.08128 0.95491 0.0
H1048 H 0.62574 0.06234 0.92969 0.0
C1049 C 0.66818 0.13119 0.95148 0.0
C1050 C 0.67699 0.12293 0.97403 0.0
C1051 C 0.65497 0.12163 0.91477 0.0
C1052 C 0.65037 0.10369 0.89971 0.0
C1053 C 0.65999 0.09587 0.91986 0.0
H1054 H 0.56871 0.03546 0.67234 0.0
H1055 H 0.59804 0.05622 0.71497 0.0
C1056 C 0.67307 0.10533 0.9569 0.0
C1057 C 0.63447 0.09265 0.86602 0.0
H1058 H 0.59212 0.05477 0.85713 0.0
C1059 C 0.63423 0.0989 0.82131 0.0
C1060 C 0.61903 0.0766 0.87917 0.0
C1061 C 0.618 0.06971 0.92754 0.0
C1062 C 0.61888 0.08955 0.78949 0.0
C1063 C 0.60353 0.07347 0.80271 0.0
C1064 C 0.60393 0.06711 0.84709 0.0
C1065 C 0.5864 0.06333 0.7726 0.0
C1066 C 0.61898 0.09724 0.74273 0.0
C1067 C 0.57018 0.06063 0.79042 0.0
C1068 C 0.55352 0.0487 0.76643 0.0
C1069 C 0.55273 0.03934 0.72385 0.0
C1070 C 0.56898 0.0428 0.70455 0.0
C1071 C 0.58574 0.05464 0.72895 0.0
H1072 H 0.63006 0.11174 0.74222 0.0
H1073 H 0.62106 0.08899 0.71499 0.0
H1074 H 0.60581 0.09649 0.73394 0.0
H1075 H 0.57038 0.06721 0.82398 0.0
H1076 H 0.54119 0.0463 0.78203 0.0
H1077 H 0.53694 0.6705 0.98054 0.0
H1078 H 0.52406 0.64128 0.93321 0.0
H1079 H 0.57299 0.66247 0.85912 0.0
H1080 H 0.58587 0.69178 0.90576 0.0
H1081 H 0.53844 0.6423 0.80183 0.0
H1082 H 0.54397 0.60506 0.95264 0.0
H1083 H 0.53259 0.61804 0.96067 0.0
H1084 H 0.5565 0.62981 0.95294 0.0
C1085 C 0.5448 0.66904 0.9535 0.0
C1086 C 0.56243 0.68338 0.94686 0.0
C1087 C 0.5375 0.65231 0.9269 0.0
C1088 C 0.54771 0.64971 0.89329 0.0
C1089 C 0.56498 0.66424 0.88519 0.0
H1090 H 0.55631 0.57299 0.71858 0.0
H1091 H 0.559 0.59632 0.77702 0.0
C1092 C 0.57232 0.68092 0.91187 0.0
C1093 C 0.54081 0.63173 0.86733 0.0
H1094 H 0.53427 0.58865 0.87877 0.0
C1095 C 0.53722 0.63046 0.81869 0.0
C1096 C 0.53932 0.61639 0.88965 0.0
C1097 C 0.54337 0.61727 0.94182 0.0
C1098 C 0.5327 0.61437 0.79145 0.0
C1099 C 0.5319 0.59931 0.8135 0.0
C1100 C 0.53482 0.60027 0.86231 0.0
C1101 C 0.53016 0.58343 0.78528 0.0
C1102 C 0.52953 0.61374 0.73897 0.0
C1103 C 0.51306 0.56815 0.77228 0.0
C1104 C 0.51145 0.55469 0.73892 0.0
C1105 C 0.52692 0.55655 0.71797 0.0
C1106 C 0.54412 0.57127 0.73371 0.0
C1107 C 0.54571 0.58459 0.76713 0.0
H1108 H 0.52879 0.62584 0.7278 0.0
H1109 H 0.5408 0.61336 0.72161 0.0
H1110 H 0.51673 0.60105 0.72661 0.0
H1111 H 0.50094 0.56713 0.78609 0.0
H1112 H 0.49802 0.54352 0.72743 0.0
H1113 H 0.52771 0.17118 0.37296 0.0
H1114 H 0.52442 0.1458 0.41859 0.0
H1115 H 0.48184 0.10705 0.31874 0.0
H1116 H 0.48547 0.1321 0.27213 0.0
H1117 H 0.49458 0.11864 0.46026 0.0
H1118 H 0.51776 0.08822 0.32259 0.0
H1119 H 0.52083 0.11099 0.32075 0.0
H1120 H 0.49921 0.09118 0.30256 0.0
C1121 C 0.51767 0.15725 0.3607 0.0
C1122 C 0.5069 0.15369 0.31882 0.0
C1123 C 0.51577 0.14279 0.38687 0.0
C1124 C 0.50314 0.12455 0.37146 0.0
C1125 C 0.49192 0.121 0.3307 0.0
H1126 H 0.46244 0.02892 0.53334 0.0
H1127 H 0.46603 0.05336 0.48407 0.0
C1128 C 0.49384 0.1354 0.3045 0.0
C1129 C 0.50167 0.10916 0.39785 0.0
H1130 H 0.50455 0.07016 0.38723 0.0
C1131 C 0.49683 0.10808 0.44442 0.0
C1132 C 0.50489 0.09556 0.37723 0.0
C1133 C 0.51114 0.09659 0.32819 0.0
C1134 C 0.4947 0.09349 0.47064 0.0
C1135 C 0.49714 0.07947 0.44934 0.0
C1136 C 0.50243 0.0808 0.40317 0.0
C1137 C 0.4945 0.06347 0.47484 0.0
C1138 C 0.49008 0.09336 0.52112 0.0
C1139 C 0.50907 0.06043 0.48373 0.0
C1140 C 0.50703 0.04632 0.51149 0.0
C1141 C 0.49036 0.03503 0.53082 0.0
C1142 C 0.47552 0.03748 0.51949 0.0
C1143 C 0.47756 0.05153 0.49159 0.0
H1144 H 0.49338 0.10723 0.53547 0.0
H1145 H 0.47529 0.08396 0.52336 0.0
H1146 H 0.49749 0.08843 0.54349 0.0
H1147 H 0.52222 0.06941 0.47071 0.0
H1148 H 0.51874 0.04484 0.51952 0.0
H1149 H 0.34042 0.45823 0.28258 0.0
H1150 H 0.36148 0.46499 0.35046 0.0
H1151 H 0.35523 0.51098 0.39522 0.0
H1152 H 0.3344 0.5045 0.32622 0.0
H1153 H 0.38926 0.52128 0.39696 0.0
H1154 H 0.35676 0.45702 0.48629 0.0
H1155 H 0.35832 0.45174 0.42597 0.0
H1156 H 0.34466 0.46185 0.44105 0.0
C1157 C 0.34323 0.46955 0.3074 0.0
C1158 C 0.33574 0.48082 0.29915 0.0
C1159 C 0.35518 0.47333 0.3465 0.0
C1160 C 0.35964 0.48823 0.37879 0.0
C1161 C 0.35187 0.4993 0.37111 0.0
H1162 H 0.44476 0.50143 0.59124 0.0
H1163 H 0.41598 0.49935 0.56404 0.0
C1164 C 0.34006 0.49565 0.3316 0.0
C1165 C 0.37404 0.49339 0.41698 0.0
H1166 H 0.39019 0.47459 0.49541 0.0
C1167 C 0.38921 0.51118 0.41939 0.0
C1168 C 0.37392 0.48049 0.44745 0.0
C1169 C 0.35741 0.46179 0.4504 0.0
C1170 C 0.40486 0.5158 0.44784 0.0
C1171 C 0.40556 0.50214 0.47356 0.0
C1172 C 0.3898 0.48495 0.47493 0.0
C1173 C 0.42312 0.50444 0.49214 0.0
C1174 C 0.42085 0.53504 0.44832 0.0
C1175 C 0.43649 0.50774 0.46076 0.0
C1176 C 0.45272 0.50883 0.47597 0.0
C1177 C 0.45602 0.50648 0.52306 0.0
C1178 C 0.44266 0.50329 0.55481 0.0
C1179 C 0.42624 0.50213 0.53934 0.0
H1180 H 0.41625 0.54512 0.44296 0.0
H1181 H 0.42934 0.53904 0.48183 0.0
H1182 H 0.42938 0.53584 0.4191 0.0
H1183 H 0.43421 0.50907 0.42396 0.0
H1184 H 0.46259 0.51128 0.45032 0.0
H1185 H 0.86758 0.35174 0.20964 0.0
H1186 H 0.88827 0.38081 0.25418 0.0
H1187 H 0.91203 0.35414 0.33101 0.0
H1188 H 0.89102 0.32485 0.28795 0.0
H1189 H 0.89403 0.38703 0.36209 0.0
H1190 H 0.9546 0.40014 0.26673 0.0
H1191 H 0.93162 0.38561 0.24174 0.0
H1192 H 0.94095 0.37722 0.28503 0.0
C1193 C 0.87696 0.35194 0.23662 0.0
C1194 C 0.87764 0.33592 0.24519 0.0
C1195 C 0.88887 0.3686 0.26167 0.0
C1196 C 0.90177 0.36957 0.29523 0.0
C1197 C 0.90229 0.35363 0.30462 0.0
H1198 H 0.98428 0.43483 0.49765 0.0
H1199 H 0.96467 0.41486 0.43142 0.0
C1200 C 0.89031 0.33694 0.27992 0.0
C1201 C 0.91471 0.38718 0.32101 0.0
H1202 H 0.95996 0.41827 0.33788 0.0
C1203 C 0.90841 0.39412 0.35644 0.0
C1204 C 0.93339 0.39631 0.31308 0.0
C1205 C 0.94062 0.38958 0.27435 0.0
C1206 C 0.92055 0.40936 0.38648 0.0
C1207 C 0.93939 0.41804 0.37993 0.0
C1208 C 0.94552 0.41164 0.34271 0.0
C1209 C 0.95305 0.43188 0.41523 0.0
C1210 C 0.9132 0.41522 0.42678 0.0
C1211 C 0.95363 0.44854 0.4269 0.0
C1212 C 0.96481 0.46003 0.46527 0.0
C1213 C 0.97561 0.45501 0.49227 0.0
C1214 C 0.97597 0.43901 0.47809 0.0
C1215 C 0.96479 0.42758 0.44004 0.0
H1216 H 0.89876 0.40506 0.43151 0.0
H1217 H 0.92131 0.41716 0.46005 0.0
H1218 H 0.91409 0.42851 0.41998 0.0
H1219 H 0.94495 0.45231 0.40747 0.0
H1220 H 0.9643 0.47231 0.47509 0.0
H1221 H 0.55151 0.89074 0.13251 0.0
H1222 H 0.54199 0.90928 0.17818 0.0
H1223 H 0.59293 0.93471 0.26142 0.0
H1224 H 0.60253 0.91611 0.21611 0.0
H1225 H 0.538 0.90886 0.27346 0.0
H1226 H 0.58795 0.97878 0.22618 0.0
H1227 H 0.5838 0.95826 0.19253 0.0
H1228 H 0.59836 0.96597 0.24562 0.0
C1229 C 0.56067 0.90024 0.16065 0.0
C1230 C 0.57774 0.9019 0.17095 0.0
C1231 C 0.55527 0.91092 0.18638 0.0
C1232 C 0.56687 0.92355 0.22261 0.0
C1233 C 0.58396 0.92536 0.2328 0.0
H1234 H 0.55199 0.96592 0.47581 0.0
H1235 H 0.55745 0.95087 0.40912 0.0
C1236 C 0.5894 0.91468 0.20705 0.0
C1237 C 0.56058 0.93381 0.25218 0.0
H1238 H 0.57223 0.97691 0.29581 0.0
C1239 C 0.54529 0.92375 0.27774 0.0
C1240 C 0.56997 0.95322 0.25719 0.0
C1241 C 0.58583 0.96471 0.22855 0.0
C1242 C 0.53981 0.93258 0.31029 0.0
C1243 C 0.54995 0.9519 0.31758 0.0
C1244 C 0.56458 0.96206 0.29019 0.0
C1245 C 0.54673 0.96149 0.35707 0.0
C1246 C 0.52356 0.92119 0.33786 0.0
C1247 C 0.53913 0.97267 0.34956 0.0
C1248 C 0.53588 0.98132 0.38782 0.0
C1249 C 0.54041 0.97903 0.43394 0.0
C1250 C 0.54833 0.96803 0.44089 0.0
C1251 C 0.55142 0.95935 0.40284 0.0
H1252 H 0.5148 0.90719 0.32072 0.0
H1253 H 0.52831 0.91983 0.37335 0.0
H1254 H 0.51529 0.92794 0.34212 0.0
H1255 H 0.53553 0.9745 0.31427 0.0
H1256 H 0.52982 0.98974 0.38127 0.0
H1257 H 0.64778 0.49301 0.22949 0.0
H1258 H 0.62716 0.48772 0.29193 0.0
H1259 H 0.66444 0.54148 0.35727 0.0
H1260 H 0.68539 0.54669 0.29572 0.0
H1261 H 0.64795 0.5133 0.42217 0.0
H1262 H 0.59739 0.51417 0.29505 0.0
H1263 H 0.60444 0.49788 0.27975 0.0
H1264 H 0.62056 0.52205 0.28153 0.0
C1265 C 0.65179 0.50358 0.2576 0.0
C1266 C 0.66819 0.52036 0.25724 0.0
C1267 C 0.6399 0.50059 0.29308 0.0
C1268 C 0.64412 0.51433 0.32884 0.0
C1269 C 0.66085 0.53073 0.32987 0.0
H1270 H 0.58983 0.53711 0.54859 0.0
H1271 H 0.61248 0.53468 0.50368 0.0
C1272 C 0.67274 0.53374 0.29442 0.0
C1273 C 0.6307 0.5121 0.3635 0.0
H1274 H 0.58914 0.50836 0.37263 0.0
C1275 C 0.63505 0.51214 0.41142 0.0
C1276 C 0.6139 0.51066 0.34943 0.0
C1277 C 0.60878 0.51133 0.29873 0.0
C1278 C 0.62295 0.5106 0.44559 0.0
C1279 C 0.60623 0.50934 0.43149 0.0
C1280 C 0.60188 0.50916 0.38351 0.0
C1281 C 0.59322 0.50901 0.46544 0.0
C1282 C 0.62812 0.51012 0.49631 0.0
C1283 C 0.57487 0.49522 0.45988 0.0
C1284 C 0.56186 0.49668 0.48516 0.0
C1285 C 0.5669 0.51201 0.5166 0.0
C1286 C 0.58547 0.52507 0.52491 0.0
C1287 C 0.59848 0.52367 0.49925 0.0
H1288 H 0.63811 0.50534 0.49969 0.0
H1289 H 0.63449 0.52419 0.51354 0.0
H1290 H 0.61602 0.501 0.51531 0.0
H1291 H 0.57046 0.48375 0.43415 0.0
H1292 H 0.5477 0.4863 0.47806 0.0
H1293 H 0.10829 0.68501 0.22529 0.0
H1294 H 0.08649 0.66106 0.2713 0.0
H1295 H 0.12934 0.65416 0.33433 0.0
H1296 H 0.15155 0.67901 0.2905 0.0
H1297 H 0.07732 0.62582 0.26687 0.0
H1298 H 0.10381 0.65616 0.44806 0.0
H1299 H 0.11157 0.66942 0.39737 0.0
H1300 H 0.1204 0.65484 0.41384 0.0
C1301 C 0.11326 0.67887 0.24999 0.0
C1302 C 0.13179 0.68414 0.25441 0.0
C1303 C 0.10069 0.66497 0.27586 0.0
C1304 C 0.10627 0.65592 0.30659 0.0
C1305 C 0.12475 0.66119 0.31152 0.0
H1306 H 0.03433 0.54873 0.40881 0.0
H1307 H 0.05547 0.57383 0.36368 0.0
C1308 C 0.13741 0.67527 0.28596 0.0
C1309 C 0.09255 0.64037 0.33149 0.0
H1310 H 0.0808 0.62467 0.44004 0.0
C1311 C 0.07803 0.6256 0.30478 0.0
C1312 C 0.09338 0.64019 0.38094 0.0
C1313 C 0.10802 0.65608 0.41179 0.0
C1314 C 0.06437 0.61063 0.3261 0.0
C1315 C 0.06553 0.61017 0.37544 0.0
C1316 C 0.07999 0.62498 0.40217 0.0
C1317 C 0.05179 0.59464 0.40036 0.0
C1318 C 0.04865 0.59567 0.2956 0.0
C1319 C 0.04279 0.59799 0.4362 0.0
C1320 C 0.03091 0.58374 0.46245 0.0
C1321 C 0.02773 0.5658 0.45327 0.0
C1322 C 0.03632 0.56234 0.41638 0.0
C1323 C 0.04838 0.57668 0.39046 0.0
H1324 H 0.04701 0.60062 0.26134 0.0
H1325 H 0.05121 0.58414 0.28843 0.0
H1326 H 0.03573 0.59035 0.31319 0.0
H1327 H 0.04521 0.61174 0.44442 0.0
H1328 H 0.02449 0.58686 0.49054 0.0
loop_
_geom_bond_atom_site_label_1
_geom_bond_atom_site_label_2
_geom_bond_distance
_geom_bond_site_symmetry_2
_ccdc_geom_bond_type
H0 C27 0.929 . S
N1 C26 1.433 . S
N1 C32 1.435 . S
N1 C38 1.423 . S
H2 C28 0.930 . S
H3 C31 0.931 . S
H4 C30 0.929 . S
H5 C33 0.930 . S
H6 C34 0.932 . S
H7 C37 0.929 . S
H8 C36 0.931 . S
H9 C39 0.929 . S
H10 C43 0.932 . S
H11 C40 0.931 . S
H12 C42 0.929 . S
H13 C45 0.929 . S
H14 C46 0.930 . S
H15 C48 0.929 . S
H16 C49 0.931 . S
H17 C51 0.930 . S
H18 C52 0.932 . S
H19 C54 0.931 . S
H20 C55 0.929 . S
H21 C57 0.929 . S
H22 C58 0.931 . S
H23 C60 0.929 . S
N24 C44 1.433 . S
N24 C50 1.435 . S
N24 C56 1.423 . S
H25 C61 0.932 . S
C26 N1 1.433 . S
C26 C27 1.363 . S
C26 C31 1.370 . S
C27 H0 0.929 . S
C27 C26 1.363 . S
C27 C28 1.385 . S
C28 H2 0.930 . S
C28 C27 1.385 . S
C28 C29 1.357 . S
C29 C28 1.357 . S
C29 C30 1.406 . S
C30 H4 0.929 . S
C30 C29 1.406 . S
C30 C31 1.391 . S
C31 H3 0.931 . S
C31 C26 1.370 . S
C31 C30 1.391 . S
C32 N1 1.435 . S
C32 C33 1.358 . S
C32 C37 1.371 . S
C33 H5 0.930 . S
C33 C32 1.358 . S
C33 C34 1.405 . S
C34 H6 0.932 . S
C34 C33 1.405 . S
C34 C35 1.383 . S
C35 C34 1.383 . S
C35 C36 1.393 . S
C36 H8 0.931 . S
C36 C35 1.393 . S
C36 C37 1.382 . S
C37 H7 0.929 . S
C37 C32 1.371 . S
C37 C36 1.382 . S
C38 N1 1.423 . S
C38 C39 1.362 . S
C38 C43 1.388 . S
C39 H9 0.929 . S
C39 C38 1.362 . S
C39 C40 1.376 . S
C40 H11 0.931 . S
C40 C39 1.376 . S
C40 C41 1.396 . S
C41 C40 1.396 . S
C41 C42 1.348 . S
C41 C59 1.472 . S
C42 H12 0.929 . S
C42 C41 1.348 . S
C42 C43 1.443 . S
C43 H10 0.932 . S
C43 C38 1.388 . S
C43 C42 1.443 . S
C44 N24 1.433 . S
C44 C45 1.363 . S
C44 C49 1.370 . S
C45 H13 0.929 . S
C45 C44 1.363 . S
C45 C46 1.385 . S
C46 H14 0.930 . S
C46 C45 1.385 . S
C46 C47 1.357 . S
C47 C46 1.357 . S
C47 C48 1.406 . S
C48 H15 0.929 . S
C48 C47 1.406 . S
C48 C49 1.391 . S
C49 H16 0.931 . S
C49 C44 1.370 . S
C49 C48 1.391 . S
C50 N24 1.435 . S
C50 C51 1.358 . S
C50 C55 1.371 . S
C51 H17 0.930 . S
C51 C50 1.358 . S
C51 C52 1.405 . S
C52 H18 0.932 . S
C52 C51 1.405 . S
C52 C53 1.383 . S
C53 C52 1.383 . S
C53 C54 1.393 . S
C54 H19 0.931 . S
C54 C53 1.393 . S
C54 C55 1.382 . S
C55 H20 0.929 . S
C55 C50 1.371 . S
C55 C54 1.382 . S
C56 N24 1.423 . S
C56 C57 1.362 . S
C56 C61 1.388 . S
C57 H21 0.929 . S
C57 C56 1.362 . S
C57 C58 1.376 . S
C58 H22 0.931 . S
C58 C57 1.376 . S
C58 C59 1.396 . S
C59 C41 1.472 . S
C59 C58 1.396 . S
C59 C60 1.348 . S
C60 H23 0.929 . S
C60 C59 1.348 . S
C60 C61 1.443 . S
C61 H25 0.932 . S
C61 C56 1.388 . S
C61 C60 1.443 . S
H62 C89 0.929 . S
N63 C88 1.433 . S
N63 C94 1.435 . S
N63 C100 1.423 . S
H64 C90 0.930 . S
H65 C93 0.931 . S
H66 C92 0.929 . S
H67 C95 0.930 . S
H68 C96 0.932 . S
H69 C99 0.929 . S
H70 C98 0.931 1_556 S
H71 C101 0.929 . S
H72 C105 0.932 . S
H73 C102 0.931 . S
H74 C104 0.929 . S
H75 C107 0.929 . S
H76 C108 0.930 . S
H77 C110 0.929 . S
H78 C111 0.931 . S
H79 C113 0.930 . S
H80 C114 0.932 . S
H81 C116 0.931 1_556 S
H82 C117 0.929 . S
H83 C119 0.929 . S
H84 C120 0.931 . S
H85 C122 0.929 . S
N86 C106 1.433 . S
N86 C112 1.435 . S
N86 C118 1.423 . S
H87 C123 0.932 . S
C88 N63 1.433 . S
C88 C89 1.363 . S
C88 C93 1.370 . S
C89 H62 0.929 . S
C89 C88 1.363 . S
C89 C90 1.385 . S
C90 H64 0.930 . S
C90 C89 1.385 . S
C90 C91 1.357 . S
C91 C90 1.357 . S
C91 C92 1.406 . S
C92 H66 0.929 . S
C92 C91 1.406 . S
C92 C93 1.391 . S
C93 H65 0.931 . S
C93 C88 1.370 . S
C93 C92 1.391 . S
C94 N63 1.435 . S
C94 C95 1.358 . S
C94 C99 1.371 . S
C95 H67 0.930 . S
C95 C94 1.358 . S
C95 C96 1.405 . S
C96 H68 0.932 . S
C96 C95 1.405 . S
C96 C97 1.383 . S
C97 C96 1.383 . S
C97 C98 1.393 . S
C98 H70 0.931 1_554 S
C98 C97 1.393 . S
C98 C99 1.382 . S
C99 H69 0.929 . S
C99 C94 1.371 . S
C99 C98 1.382 . S
C100 N63 1.423 . S
C100 C101 1.362 . S
C100 C105 1.388 . S
C101 H71 0.929 . S
C101 C100 1.362 . S
C101 C102 1.376 . S
C102 H73 0.931 . S
C102 C101 1.376 . S
C102 C103 1.396 . S
C103 C102 1.396 . S
C103 C104 1.348 . S
C103 C121 1.472 . S
C104 H74 0.929 . S
C104 C103 1.348 . S
C104 C105 1.443 . S
C105 H72 0.932 . S
C105 C100 1.388 . S
C105 C104 1.443 . S
C106 N86 1.433 . S
C106 C107 1.363 . S
C106 C111 1.370 . S
C107 H75 0.929 . S
C107 C106 1.363 . S
C107 C108 1.385 . S
C108 H76 0.930 . S
C108 C107 1.385 . S
C108 C109 1.357 . S
C109 C108 1.357 . S
C109 C110 1.406 . S
C110 H77 0.929 . S
C110 C109 1.406 . S
C110 C111 1.391 . S
C111 H78 0.931 . S
C111 C106 1.370 . S
C111 C110 1.391 . S
C112 N86 1.435 . S
C112 C113 1.358 . S
C112 C117 1.371 . S
C113 H79 0.930 . S
C113 C112 1.358 . S
C113 C114 1.405 . S
C114 H80 0.932 . S
C114 C113 1.405 . S
C114 C115 1.383 . S
C115 C114 1.383 . S
C115 C116 1.393 . S
C116 H81 0.931 1_554 S
C116 C115 1.393 . S
C116 C117 1.382 . S
C117 H82 0.929 . S
C117 C112 1.371 . S
C117 C116 1.382 . S
C118 N86 1.423 . S
C118 C119 1.362 . S
C118 C123 1.388 . S
C119 H83 0.929 . S
C119 C118 1.362 . S
C119 C120 1.376 . S
C120 H84 0.931 . S
C120 C119 1.376 . S
C120 C121 1.396 . S
C121 C103 1.472 . S
C121 C120 1.396 . S
C121 C122 1.348 . S
C122 H85 0.929 . S
C122 C121 1.348 . S
C122 C123 1.443 . S
C123 H87 0.932 . S
C123 C118 1.388 . S
C123 C122 1.443 . S
H124 C151 0.929 . S
N125 C150 1.433 1_554 S
N125 C156 1.435 . S
N125 C162 1.423 . S
H126 C152 0.930 . S
H127 C155 0.931 . S
H128 C154 0.929 . S
H129 C157 0.930 . S
H130 C158 0.932 . S
H131 C161 0.929 . S
H132 C160 0.931 . S
H133 C163 0.929 1_556 S
H134 C167 0.932 . S
H135 C164 0.931 1_556 S
H136 C166 0.929 . S
H137 C169 0.929 . S
H138 C170 0.930 . S
H139 C172 0.929 . S
H140 C173 0.931 . S
H141 C175 0.930 . S
H142 C176 0.932 . S
H143 C178 0.931 . S
H144 C179 0.929 . S
H145 C181 0.929 1_556 S
H146 C182 0.931 1_556 S
H147 C184 0.929 . S
N148 C168 1.433 1_554 S
N148 C174 1.435 . S
N148 C180 1.423 . S
H149 C185 0.932 . S
C150 N125 1.433 1_556 S
C150 C151 1.363 . S
C150 C155 1.370 . S
C151 H124 0.929 . S
C151 C150 1.363 . S
C151 C152 1.385 . S
C152 H126 0.930 . S
C152 C151 1.385 . S
C152 C153 1.357 . S
C153 C152 1.357 . S
C153 C154 1.406 . S
C154 H128 0.929 . S
C154 C153 1.406 . S
C154 C155 1.391 . S
C155 H127 0.931 . S
C155 C150 1.370 . S
C155 C154 1.391 . S
C156 N125 1.435 . S
C156 C157 1.358 . S
C156 C161 1.371 . S
C157 H129 0.930 . S
C157 C156 1.358 . S
C157 C158 1.405 . S
C158 H130 0.932 . S
C158 C157 1.405 . S
C158 C159 1.383 . S
C159 C158 1.383 . S
C159 C160 1.393 . S
C160 H132 0.931 . S
C160 C159 1.393 . S
C160 C161 1.382 . S
C161 H131 0.929 . S
C161 C156 1.371 . S
C161 C160 1.382 . S
C162 N125 1.423 . S
C162 C163 1.362 . S
C162 C167 1.388 . S
C163 H133 0.929 1_554 S
C163 C162 1.362 . S
C163 C164 1.376 . S
C164 H135 0.931 1_554 S
C164 C163 1.376 . S
C164 C165 1.396 . S
C165 C164 1.396 . S
C165 C166 1.348 . S
C165 C183 1.472 . S
C166 H136 0.929 . S
C166 C165 1.348 . S
C166 C167 1.443 . S
C167 H134 0.932 . S
C167 C162 1.388 . S
C167 C166 1.443 . S
C168 N148 1.433 1_556 S
C168 C169 1.363 . S
C168 C173 1.370 . S
C169 H137 0.929 . S
C169 C168 1.363 . S
C169 C170 1.385 . S
C170 H138 0.930 . S
C170 C169 1.385 . S
C170 C171 1.357 . S
C171 C170 1.357 . S
C171 C172 1.406 . S
C172 H139 0.929 . S
C172 C171 1.406 . S
C172 C173 1.391 . S
C173 H140 0.931 . S
C173 C168 1.370 . S
C173 C172 1.391 . S
C174 N148 1.435 . S
C174 C175 1.358 . S
C174 C179 1.371 . S
C175 H141 0.930 . S
C175 C174 1.358 . S
C175 C176 1.405 . S
C176 H142 0.932 . S
C176 C175 1.405 . S
C176 C177 1.383 . S
C177 C176 1.383 . S
C177 C178 1.393 . S
C178 H143 0.931 . S
C178 C177 1.393 . S
C178 C179 1.382 . S
C179 H144 0.929 . S
C179 C174 1.371 . S
C179 C178 1.382 . S
C180 N148 1.423 . S
C180 C181 1.362 . S
C180 C185 1.388 . S
C181 H145 0.929 1_554 S
C181 C180 1.362 . S
C181 C182 1.376 . S
C182 H146 0.931 1_554 S
C182 C181 1.376 . S
C182 C183 1.396 . S
C183 C165 1.472 . S
C183 C182 1.396 . S
C183 C184 1.348 . S
C184 H147 0.929 . S
C184 C183 1.348 . S
C184 C185 1.443 . S
C185 H149 0.932 . S
C185 C180 1.388 . S
C185 C184 1.443 . S
H186 C213 0.929 . S
N187 C212 1.433 . S
N187 C218 1.435 . S
N187 C224 1.423 . S
H188 C214 0.930 . S
H189 C217 0.931 . S
H190 C216 0.929 . S
H191 C219 0.930 . S
H192 C220 0.932 . S
H193 C223 0.929 . S
H194 C222 0.931 . S
H195 C225 0.929 . S
H196 C229 0.932 . S
H197 C226 0.931 . S
H198 C228 0.929 1_556 S
H199 C231 0.929 . S
H200 C232 0.930 . S
H201 C234 0.929 . S
H202 C235 0.931 . S
H203 C237 0.930 . S
H204 C238 0.932 . S
H205 C240 0.931 . S
H206 C241 0.929 . S
H207 C243 0.929 . S
H208 C244 0.931 . S
H209 C246 0.929 1_556 S
N210 C230 1.433 . S
N210 C236 1.435 . S
N210 C242 1.423 . S
H211 C247 0.932 1_556 S
C212 N187 1.433 . S
C212 C213 1.363 . S
C212 C217 1.370 . S
C213 H186 0.929 . S
C213 C212 1.363 . S
C213 C214 1.385 . S
C214 H188 0.930 . S
C214 C213 1.385 . S
C214 C215 1.357 . S
C215 C214 1.357 . S
C215 C216 1.406 . S
C216 H190 0.929 . S
C216 C215 1.406 . S
C216 C217 1.391 . S
C217 H189 0.931 . S
C217 C212 1.370 . S
C217 C216 1.391 . S
C218 N187 1.435 . S
C218 C219 1.358 . S
C218 C223 1.371 1_554 S
C219 H191 0.930 . S
C219 C218 1.358 . S
C219 C220 1.405 1_554 S
C220 H192 0.932 . S
C220 C219 1.405 1_556 S
C220 C221 1.383 . S
C221 C220 1.383 . S
C221 C222 1.393 . S
C222 H194 0.931 . S
C222 C221 1.393 . S
C222 C223 1.382 . S
C223 H193 0.929 . S
C223 C218 1.371 1_556 S
C223 C222 1.382 . S
C224 N187 1.423 . S
C224 C225 1.362 . S
C224 C229 1.388 . S
C225 H195 0.929 . S
C225 C224 1.362 . S
C225 C226 1.376 . S
C226 H197 0.931 . S
C226 C225 1.376 . S
C226 C227 1.396 . S
C227 C226 1.396 . S
C227 C228 1.348 . S
C227 C245 1.472 . S
C228 H198 0.929 1_554 S
C228 C227 1.348 . S
C228 C229 1.443 . S
C229 H196 0.932 . S
C229 C224 1.388 . S
C229 C228 1.443 . S
C230 N210 1.433 . S
C230 C231 1.363 . S
C230 C235 1.370 . S
C231 H199 0.929 . S
C231 C230 1.363 . S
C231 C232 1.385 . S
C232 H200 0.930 . S
C232 C231 1.385 . S
C232 C233 1.357 . S
C233 C232 1.357 . S
C233 C234 1.406 . S
C234 H201 0.929 . S
C234 C233 1.406 . S
C234 C235 1.391 . S
C235 H202 0.931 . S
C235 C230 1.370 . S
C235 C234 1.391 . S
C236 N210 1.435 . S
C236 C237 1.358 . S
C236 C241 1.371 1_554 S
C237 H203 0.930 . S
C237 C236 1.358 . S
C237 C238 1.405 1_554 S
C238 H204 0.932 . S
C238 C237 1.405 1_556 S
C238 C239 1.383 . S
C239 C238 1.383 . S
C239 C240 1.393 . S
C240 H205 0.931 . S
C240 C239 1.393 . S
C240 C241 1.382 . S
C241 H206 0.929 . S
C241 C236 1.371 1_556 S
C241 C240 1.382 . S
C242 N210 1.423 . S
C242 C243 1.362 . S
C242 C247 1.388 . S
C243 H207 0.929 . S
C243 C242 1.362 . S
C243 C244 1.376 . S
C244 H208 0.931 . S
C244 C243 1.376 . S
C244 C245 1.396 . S
C245 C227 1.472 . S
C245 C244 1.396 . S
C245 C246 1.348 . S
C246 H209 0.929 1_554 S
C246 C245 1.348 . S
C246 C247 1.443 . S
C247 H211 0.932 1_554 S
C247 C242 1.388 . S
C247 C246 1.443 . S
H248 C275 0.929 . S
N249 C274 1.433 . S
N249 C280 1.435 . S
N249 C286 1.423 . S
H250 C276 0.930 . S
H251 C279 0.931 . S
H252 C278 0.929 . S
H253 C281 0.930 . S
H254 C282 0.932 . S
H255 C285 0.928 . S
H256 C284 0.931 . S
H257 C287 0.929 . S
H258 C291 0.932 . S
H259 C288 0.931 . S
H260 C290 0.929 . S
H261 C293 0.929 . S
H262 C294 0.930 . S
H263 C296 0.929 . S
H264 C297 0.931 . S
H265 C299 0.930 . S
H266 C300 0.932 . S
H267 C302 0.931 . S
H268 C303 0.929 . S
H269 C305 0.929 . S
H270 C306 0.931 . S
H271 C308 0.929 . S
N272 C292 1.433 . S
N272 C298 1.435 . S
N272 C304 1.423 . S
H273 C309 0.932 . S
C274 N249 1.433 . S
C274 C275 1.363 . S
C274 C279 1.370 . S
C275 H248 0.929 . S
C275 C274 1.363 . S
C275 C276 1.385 . S
C276 H250 0.930 . S
C276 C275 1.385 . S
C276 C277 1.357 . S
C277 C276 1.357 . S
C277 C278 1.406 . S
C278 H252 0.929 . S
C278 C277 1.406 . S
C278 C279 1.391 . S
C279 H251 0.931 . S
C279 C274 1.370 . S
C279 C278 1.391 . S
C280 N249 1.435 . S
C280 C281 1.358 . S
C280 C285 1.371 . S
C281 H253 0.930 . S
C281 C280 1.358 . S
C281 C282 1.405 . S
C282 H254 0.932 . S
C282 C281 1.405 . S
C282 C283 1.383 1_554 S
C283 C282 1.383 1_556 S
C283 C284 1.393 . S
C284 H256 0.931 . S
C284 C283 1.393 . S
C284 C285 1.382 1_556 S
C285 H255 0.928 . S
C285 C280 1.371 . S
C285 C284 1.382 1_554 S
C286 N249 1.423 . S
C286 C287 1.362 . S
C286 C291 1.388 . S
C287 H257 0.929 . S
C287 C286 1.362 . S
C287 C288 1.376 . S
C288 H259 0.931 . S
C288 C287 1.376 . S
C288 C289 1.396 . S
C289 C288 1.396 . S
C289 C290 1.348 . S
C289 C307 1.472 . S
C290 H260 0.929 . S
C290 C289 1.348 . S
C290 C291 1.443 . S
C291 H258 0.932 . S
C291 C286 1.388 . S
C291 C290 1.443 . S
C292 N272 1.433 . S
C292 C293 1.363 . S
C292 C297 1.370 . S
C293 H261 0.929 . S
C293 C292 1.363 . S
C293 C294 1.385 . S
C294 H262 0.930 . S
C294 C293 1.385 . S
C294 C295 1.357 . S
C295 C294 1.357 . S
C295 C296 1.406 . S
C296 H263 0.929 . S
C296 C295 1.406 . S
C296 C297 1.391 . S
C297 H264 0.931 . S
C297 C292 1.370 . S
C297 C296 1.391 . S
C298 N272 1.435 . S
C298 C299 1.358 . S
C298 C303 1.371 . S
C299 H265 0.930 . S
C299 C298 1.358 . S
C299 C300 1.405 . S
C300 H266 0.932 . S
C300 C299 1.405 . S
C300 C301 1.383 1_554 S
C301 C300 1.383 1_556 S
C301 C302 1.393 . S
C302 H267 0.931 . S
C302 C301 1.393 . S
C302 C303 1.382 1_556 S
C303 H268 0.929 . S
C303 C298 1.371 . S
C303 C302 1.382 1_554 S
C304 N272 1.423 . S
C304 C305 1.362 . S
C304 C309 1.388 . S
C305 H269 0.929 . S
C305 C304 1.362 . S
C305 C306 1.376 . S
C306 H270 0.931 . S
C306 C305 1.376 . S
C306 C307 1.396 . S
C307 C289 1.472 . S
C307 C306 1.396 . S
C307 C308 1.348 . S
C308 H271 0.929 . S
C308 C307 1.348 . S
C308 C309 1.443 . S
C309 H273 0.932 . S
C309 C304 1.388 . S
C309 C308 1.443 . S
H310 C337 0.929 . S
N311 C336 1.433 . S
N311 C342 1.435 . S
N311 C348 1.423 . S
H312 C338 0.930 . S
H313 C341 0.931 . S
H314 C340 0.929 . S
H315 C343 0.930 . S
H316 C344 0.932 . S
H317 C347 0.929 . S
H318 C346 0.931 . S
H319 C349 0.929 . S
H320 C353 0.932 . S
H321 C350 0.931 . S
H322 C352 0.929 . S
H323 C355 0.929 . S
H324 C356 0.930 . S
H325 C358 0.929 . S
H326 C359 0.931 . S
H327 C361 0.930 . S
H328 C362 0.932 . S
H329 C364 0.931 . S
H330 C365 0.929 . S
H331 C367 0.929 . S
H332 C368 0.931 . S
H333 C370 0.929 . S
N334 C354 1.433 . S
N334 C360 1.435 . S
N334 C366 1.423 . S
H335 C371 0.932 . S
C336 N311 1.433 . S
C336 C337 1.363 . S
C336 C341 1.370 . S
C337 H310 0.929 . S
C337 C336 1.363 . S
C337 C338 1.385 . S
C338 H312 0.930 . S
C338 C337 1.385 . S
C338 C339 1.357 . S
C339 C338 1.357 . S
C339 C340 1.406 . S
C340 H314 0.929 . S
C340 C339 1.406 . S
C340 C341 1.391 . S
C341 H313 0.931 . S
C341 C336 1.370 . S
C341 C340 1.391 . S
C342 N311 1.435 . S
C342 C343 1.358 . S
C342 C347 1.371 . S
C343 H315 0.930 . S
C343 C342 1.358 . S
C343 C344 1.405 . S
C344 H316 0.932 . S
C344 C343 1.405 . S
C344 C345 1.383 . S
C345 C344 1.383 . S
C345 C346 1.393 . S
C346 H318 0.931 . S
C346 C345 1.393 . S
C346 C347 1.382 . S
C347 H317 0.929 . S
C347 C342 1.371 . S
C347 C346 1.382 . S
C348 N311 1.423 . S
C348 C349 1.362 . S
C348 C353 1.388 . S
C349 H319 0.929 . S
C349 C348 1.362 . S
C349 C350 1.376 . S
C350 H321 0.931 . S
C350 C349 1.376 . S
C350 C351 1.396 . S
C351 C350 1.396 . S
C351 C352 1.348 . S
C351 C369 1.472 . S
C352 H322 0.929 . S
C352 C351 1.348 . S
C352 C353 1.443 . S
C353 H320 0.932 . S
C353 C348 1.388 . S
C353 C352 1.443 . S
C354 N334 1.433 . S
C354 C355 1.363 . S
C354 C359 1.370 . S
C355 H323 0.929 . S
C355 C354 1.363 . S
C355 C356 1.385 . S
C356 H324 0.930 . S
C356 C355 1.385 . S
C356 C357 1.357 . S
C357 C356 1.357 . S
C357 C358 1.406 . S
C358 H325 0.929 . S
C358 C357 1.406 . S
C358 C359 1.391 . S
C359 H326 0.931 . S
C359 C354 1.370 . S
C359 C358 1.391 . S
C360 N334 1.435 . S
C360 C361 1.358 . S
C360 C365 1.371 . S
C361 H327 0.930 . S
C361 C360 1.358 . S
C361 C362 1.405 . S
C362 H328 0.932 . S
C362 C361 1.405 . S
C362 C363 1.383 . S
C363 C362 1.383 . S
C363 C364 1.393 . S
C364 H329 0.931 . S
C364 C363 1.393 . S
C364 C365 1.382 . S
C365 H330 0.929 . S
C365 C360 1.371 . S
C365 C364 1.382 . S
C366 N334 1.423 . S
C366 C367 1.362 . S
C366 C371 1.388 . S
C367 H331 0.929 . S
C367 C366 1.362 . S
C367 C368 1.376 . S
C368 H332 0.931 . S
C368 C367 1.376 . S
C368 C369 1.396 . S
C369 C351 1.472 . S
C369 C368 1.396 . S
C369 C370 1.348 . S
C370 H333 0.929 . S
C370 C369 1.348 . S
C370 C371 1.443 . S
C371 H335 0.932 . S
C371 C366 1.388 . S
C371 C370 1.443 . S
C372 O384 1.241 . S
C372 O385 1.280 . S
C373 O386 1.277 . S
C373 O387 1.245 . S
C374 O398 1.247 . S
C374 O400 1.289 . S
Mg375 O376 1.927 1_655 S
Mg375 O385 1.985 . S
Mg375 O387 1.987 1_655 S
Mg375 O388 2.062 . S
O376 Mg375 1.927 1_455 S
O376 Mg377 1.986 . S
O376 Mg378 1.917 . S
Mg377 O376 1.986 . S
Mg377 O384 2.042 1_455 S
Mg377 O386 2.041 . S
Mg377 O392 2.038 1_455 S
Mg377 O400 2.238 . S
Mg378 O376 1.917 . S
Mg378 O379 1.917 . S
Mg378 O389 2.106 1_455 S
Mg378 O391 2.079 1_455 S
Mg378 O400 2.106 . S
Mg378 O401 2.079 . S
O379 Mg378 1.917 . S
O379 Mg380 1.926 . S
O379 Mg381 1.986 . S
Mg380 O379 1.926 . S
Mg380 O394 1.984 . S
Mg380 O397 1.988 1_455 S
Mg380 O398 2.061 . S
Mg381 O379 1.986 . S
Mg381 O389 2.238 1_455 S
Mg381 O393 2.042 . S
Mg381 O395 2.041 1_455 S
Mg381 O402 2.038 . S
C382 O388 1.247 . S
C382 O389 1.289 . S
C383 O401 1.245 . S
C383 O402 1.274 . S
O384 C372 1.241 . S
O384 Mg377 2.042 1_655 S
O385 C372 1.280 . S
O385 Mg375 1.985 . S
O386 C373 1.277 . S
O386 Mg377 2.041 . S
O387 C373 1.245 . S
O387 Mg375 1.987 1_455 S
O388 Mg375 2.062 . S
O388 C382 1.247 . S
O389 Mg378 2.106 1_655 S
O389 Mg381 2.238 1_655 S
O389 C382 1.289 . S
C390 O391 1.245 . S
C390 O392 1.274 . S
O391 Mg378 2.079 1_655 S
O391 C390 1.245 . S
O392 Mg377 2.038 1_655 S
O392 C390 1.274 . S
O393 Mg381 2.042 . S
O393 C396 1.241 . S
O394 Mg380 1.984 . S
O394 C396 1.280 . S
O395 Mg381 2.041 1_655 S
O395 C399 1.277 . S
C396 O393 1.241 . S
C396 O394 1.280 . S
O397 Mg380 1.988 1_655 S
O397 C399 1.245 . S
O398 C374 1.247 . S
O398 Mg380 2.061 . S
C399 O395 1.277 . S
C399 O397 1.245 . S
O400 C374 1.289 . S
O400 Mg377 2.238 . S
O400 Mg378 2.106 . S
O401 Mg378 2.079 . S
O401 C383 1.245 . S
O402 Mg381 2.038 . S
O402 C383 1.274 . S
C403 O415 1.241 . S
C403 O416 1.280 . S
C404 O417 1.277 . S
C404 O418 1.245 . S
C405 O429 1.247 . S
C405 O431 1.289 . S
Mg406 O407 1.926 . S
Mg406 O416 1.984 . S
Mg406 O418 1.988 1_545 S
Mg406 O419 2.061 . S
O407 Mg406 1.926 . S
O407 Mg408 1.986 . S
O407 Mg409 1.917 . S
Mg408 O407 1.986 . S
Mg408 O415 2.042 . S
Mg408 O417 2.041 1_545 S
Mg408 O423 2.038 . S
Mg408 O431 2.238 1_545 S
Mg409 O407 1.917 . S
Mg409 O410 1.917 1_545 S
Mg409 O420 2.106 . S
Mg409 O422 2.079 . S
Mg409 O431 2.106 1_545 S
Mg409 O432 2.079 1_545 S
O410 Mg409 1.917 1_565 S
O410 Mg411 1.926 . S
O410 Mg412 1.986 1_565 S
Mg411 O410 1.926 . S
Mg411 O425 1.984 . S
Mg411 O428 1.988 1_565 S
Mg411 O429 2.061 . S
Mg412 O410 1.986 1_545 S
Mg412 O420 2.238 . S
Mg412 O424 2.042 1_545 S
Mg412 O426 2.041 . S
Mg412 O433 2.038 1_545 S
C413 O419 1.247 . S
C413 O420 1.289 . S
C414 O432 1.245 . S
C414 O433 1.274 . S
O415 C403 1.241 . S
O415 Mg408 2.042 . S
O416 C403 1.280 . S
O416 Mg406 1.984 . S
O417 C404 1.277 . S
O417 Mg408 2.041 1_565 S
O418 C404 1.245 . S
O418 Mg406 1.988 1_565 S
O419 Mg406 2.061 . S
O419 C413 1.247 . S
O420 Mg409 2.106 . S
O420 Mg412 2.238 . S
O420 C413 1.289 . S
C421 O422 1.245 . S
C421 O423 1.274 . S
O422 Mg409 2.079 . S
O422 C421 1.245 . S
O423 Mg408 2.038 . S
O423 C421 1.274 . S
O424 Mg412 2.042 1_565 S
O424 C427 1.241 . S
O425 Mg411 1.984 . S
O425 C427 1.280 . S
O426 Mg412 2.041 . S
O426 C430 1.277 . S
C427 O424 1.241 . S
C427 O425 1.280 . S
O428 Mg411 1.988 1_545 S
O428 C430 1.245 . S
O429 C405 1.247 . S
O429 Mg411 2.061 . S
C430 O426 1.277 . S
C430 O428 1.245 . S
O431 C405 1.289 . S
O431 Mg408 2.238 1_565 S
O431 Mg409 2.106 1_565 S
O432 Mg409 2.079 1_565 S
O432 C414 1.245 . S
O433 Mg412 2.038 1_565 S
O433 C414 1.274 . S
C434 O446 1.241 . S
C434 O447 1.280 . S
C435 O448 1.277 . S
C435 O449 1.245 . S
C436 O460 1.247 . S
C436 O462 1.289 . S
Mg437 O438 1.926 . S
Mg437 O447 1.984 . S
Mg437 O449 1.988 . S
Mg437 O450 2.061 . S
O438 Mg437 1.926 . S
O438 Mg439 1.986 . S
O438 Mg440 1.917 . S
Mg439 O438 1.986 . S
Mg439 O446 2.042 . S
Mg439 O448 2.041 . S
Mg439 O454 2.038 . S
Mg439 O462 2.238 . S
Mg440 O438 1.917 . S
Mg440 O441 1.917 . S
Mg440 O451 2.106 . S
Mg440 O453 2.079 . S
Mg440 O462 2.106 . S
Mg440 O463 2.079 . S
O441 Mg440 1.917 . S
O441 Mg442 1.926 . S
O441 Mg443 1.986 . S
Mg442 O441 1.926 . S
Mg442 O456 1.984 . S
Mg442 O459 1.988 . S
Mg442 O460 2.061 . S
Mg443 O441 1.986 . S
Mg443 O451 2.238 . S
Mg443 O455 2.042 . S
Mg443 O457 2.041 . S
Mg443 O464 2.038 . S
C444 O450 1.247 . S
C444 O451 1.289 . S
C445 O463 1.245 . S
C445 O464 1.274 . S
O446 C434 1.241 . S
O446 Mg439 2.042 . S
O447 C434 1.280 . S
O447 Mg437 1.984 . S
O448 C435 1.277 . S
O448 Mg439 2.041 . S
O449 C435 1.245 . S
O449 Mg437 1.988 . S
O450 Mg437 2.061 . S
O450 C444 1.247 . S
O451 Mg440 2.106 . S
O451 Mg443 2.238 . S
O451 C444 1.289 . S
C452 O453 1.245 . S
C452 O454 1.274 . S
O453 Mg440 2.079 . S
O453 C452 1.245 . S
O454 Mg439 2.038 . S
O454 C452 1.274 . S
O455 Mg443 2.042 . S
O455 C458 1.241 . S
O456 Mg442 1.984 . S
O456 C458 1.280 . S
O457 Mg443 2.041 . S
O457 C461 1.277 . S
C458 O455 1.241 . S
C458 O456 1.280 . S
O459 Mg442 1.988 . S
O459 C461 1.245 . S
O460 C436 1.247 . S
O460 Mg442 2.061 . S
C461 O457 1.277 . S
C461 O459 1.245 . S
O462 C436 1.289 . S
O462 Mg439 2.238 . S
O462 Mg440 2.106 . S
O463 Mg440 2.079 . S
O463 C445 1.245 . S
O464 Mg443 2.038 . S
O464 C445 1.274 . S
H465 C473 0.929 . S
H466 C475 0.930 . S
H467 C477 0.930 . S
H468 C480 0.929 . S
H469 C483 0.930 . S
H470 C485 0.960 . S
H471 C485 0.960 . S
H472 C485 0.960 . S
C473 H465 0.929 . S
C473 C474 1.377 . S
C473 C475 1.384 . S
C474 C473 1.377 . S
C474 C480 1.390 . S
C475 H466 0.930 . S
C475 C473 1.384 . S
C475 C476 1.372 . S
C476 C475 1.372 . S
C476 C477 1.400 . S
C476 C481 1.490 . S
C477 H467 0.930 . S
C477 C476 1.400 . S
C477 C480 1.386 . S
H478 C494 0.930 . S
H479 C495 0.931 . S
C480 H468 0.929 . S
C480 C474 1.390 . S
C480 C477 1.386 . S
C481 C476 1.490 . S
C481 C483 1.395 . S
C481 C484 1.403 . S
H482 C488 0.930 . S
C483 H469 0.930 . S
C483 C481 1.395 . S
C483 C486 1.403 . S
C484 C481 1.403 . S
C484 C485 1.524 . S
C484 C488 1.400 . S
C485 H470 0.960 . S
C485 H471 0.960 . S
C485 H472 0.960 . S
C485 C484 1.524 . S
C486 C483 1.403 . S
C486 C487 1.392 . S
C486 C490 1.495 . S
C487 C486 1.392 . S
C487 C488 1.385 . S
C487 C489 1.478 . S
C488 H482 0.930 . S
C488 C484 1.400 . S
C488 C487 1.385 . S
C489 C487 1.478 . S
C489 C491 1.381 . S
C489 C495 1.383 . S
C490 C486 1.495 . S
C490 H496 0.959 . S
C490 H497 0.961 . S
C490 H498 0.960 . S
C491 C489 1.381 . S
C491 C492 1.394 . S
C491 H499 0.930 . S
C492 C491 1.394 . S
C492 C493 1.383 . S
C492 H500 0.929 . S
C493 C492 1.383 . S
C493 C494 1.377 . S
C494 H478 0.930 . S
C494 C493 1.377 . S
C494 C495 1.379 . S
C495 H479 0.931 . S
C495 C489 1.383 . S
C495 C494 1.379 . S
H496 C490 0.959 . S
H497 C490 0.961 . S
H498 C490 0.960 . S
H499 C491 0.930 . S
H500 C492 0.929 . S
H501 C509 0.929 . S
H502 C511 0.930 . S
H503 C513 0.930 . S
H504 C516 0.929 . S
H505 C519 0.930 . S
H506 C521 0.960 . S
H507 C521 0.960 . S
H508 C521 0.960 . S
C509 H501 0.929 . S
C509 C510 1.377 . S
C509 C511 1.384 . S
C510 C509 1.377 . S
C510 C516 1.390 . S
C511 H502 0.930 . S
C511 C509 1.384 . S
C511 C512 1.372 . S
C512 C511 1.372 . S
C512 C513 1.400 . S
C512 C517 1.490 . S
C513 H503 0.930 . S
C513 C512 1.400 . S
C513 C516 1.386 . S
H514 C530 0.930 . S
H515 C531 0.931 . S
C516 H504 0.929 . S
C516 C510 1.390 . S
C516 C513 1.386 . S
C517 C512 1.490 . S
C517 C519 1.395 . S
C517 C520 1.403 . S
H518 C524 0.930 . S
C519 H505 0.930 . S
C519 C517 1.395 . S
C519 C522 1.403 . S
C520 C517 1.403 . S
C520 C521 1.524 . S
C520 C524 1.400 . S
C521 H506 0.960 . S
C521 H507 0.960 . S
C521 H508 0.960 . S
C521 C520 1.524 . S
C522 C519 1.403 . S
C522 C523 1.392 . S
C522 C526 1.495 . S
C523 C522 1.392 . S
C523 C524 1.385 . S
C523 C525 1.478 . S
C524 H518 0.930 . S
C524 C520 1.400 . S
C524 C523 1.385 . S
C525 C523 1.478 . S
C525 C527 1.381 . S
C525 C531 1.383 . S
C526 C522 1.495 . S
C526 H532 0.959 . S
C526 H533 0.961 . S
C526 H534 0.960 . S
C527 C525 1.381 . S
C527 C528 1.394 . S
C527 H535 0.930 . S
C528 C527 1.394 . S
C528 C529 1.383 . S
C528 H536 0.929 . S
C529 C528 1.383 . S
C529 C530 1.377 . S
C530 H514 0.930 . S
C530 C529 1.377 . S
C530 C531 1.379 . S
C531 H515 0.931 . S
C531 C525 1.383 . S
C531 C530 1.379 . S
H532 C526 0.959 . S
H533 C526 0.961 . S
H534 C526 0.960 . S
H535 C527 0.930 . S
H536 C528 0.929 . S
H537 C545 0.929 . S
H538 C547 0.930 . S
H539 C549 0.930 . S
H540 C552 0.929 . S
H541 C555 0.930 . S
H542 C557 0.960 . S
H543 C557 0.960 . S
H544 C557 0.960 . S
C545 H537 0.929 . S
C545 C546 1.377 . S
C545 C547 1.384 . S
C546 C545 1.377 . S
C546 C552 1.390 . S
C547 H538 0.930 . S
C547 C545 1.384 . S
C547 C548 1.372 . S
C548 C547 1.372 . S
C548 C549 1.400 . S
C548 C553 1.490 . S
C549 H539 0.930 . S
C549 C548 1.400 . S
C549 C552 1.386 . S
H550 C566 0.930 . S
H551 C567 0.931 . S
C552 H540 0.929 . S
C552 C546 1.390 . S
C552 C549 1.386 . S
C553 C548 1.490 . S
C553 C555 1.395 . S
C553 C556 1.403 . S
H554 C560 0.930 . S
C555 H541 0.930 . S
C555 C553 1.395 . S
C555 C558 1.403 . S
C556 C553 1.403 . S
C556 C557 1.524 . S
C556 C560 1.400 . S
C557 H542 0.960 . S
C557 H543 0.960 . S
C557 H544 0.960 . S
C557 C556 1.524 . S
C558 C555 1.403 . S
C558 C559 1.392 . S
C558 C562 1.495 . S
C559 C558 1.392 . S
C559 C560 1.385 . S
C559 C561 1.478 . S
C560 H554 0.930 . S
C560 C556 1.400 . S
C560 C559 1.385 . S
C561 C559 1.478 . S
C561 C563 1.381 . S
C561 C567 1.383 . S
C562 C558 1.495 . S
C562 H568 0.959 . S
C562 H569 0.961 . S
C562 H570 0.960 . S
C563 C561 1.381 . S
C563 C564 1.394 . S
C563 H571 0.930 . S
C564 C563 1.394 . S
C564 C565 1.383 . S
C564 H572 0.929 . S
C565 C564 1.383 . S
C565 C566 1.377 . S
C566 H550 0.930 . S
C566 C565 1.377 . S
C566 C567 1.379 . S
C567 H551 0.931 . S
C567 C561 1.383 . S
C567 C566 1.379 . S
H568 C562 0.959 . S
H569 C562 0.961 . S
H570 C562 0.960 . S
H571 C563 0.930 . S
H572 C564 0.929 . S
H573 C581 0.929 . S
H574 C583 0.930 . S
H575 C585 0.930 . S
H576 C588 0.929 . S
H577 C591 0.930 . S
H578 C593 0.960 . S
H579 C593 0.960 . S
H580 C593 0.960 . S
C581 H573 0.929 . S
C581 C582 1.377 . S
C581 C583 1.384 . S
C582 C581 1.377 . S
C582 C588 1.390 . S
C583 H574 0.930 . S
C583 C581 1.384 . S
C583 C584 1.372 . S
C584 C583 1.372 . S
C584 C585 1.400 . S
C584 C589 1.490 . S
C585 H575 0.930 . S
C585 C584 1.400 . S
C585 C588 1.386 . S
H586 C602 0.930 . S
H587 C603 0.931 . S
C588 H576 0.929 . S
C588 C582 1.390 . S
C588 C585 1.386 . S
C589 C584 1.490 . S
C589 C591 1.395 . S
C589 C592 1.403 . S
H590 C596 0.930 . S
C591 H577 0.930 . S
C591 C589 1.395 . S
C591 C594 1.403 . S
C592 C589 1.403 . S
C592 C593 1.524 . S
C592 C596 1.400 . S
C593 H578 0.960 . S
C593 H579 0.960 . S
C593 H580 0.960 . S
C593 C592 1.524 . S
C594 C591 1.403 . S
C594 C595 1.392 . S
C594 C598 1.495 . S
C595 C594 1.392 . S
C595 C596 1.385 . S
C595 C597 1.478 . S
C596 H590 0.930 . S
C596 C592 1.400 . S
C596 C595 1.385 . S
C597 C595 1.478 . S
C597 C599 1.381 . S
C597 C603 1.383 . S
C598 C594 1.495 . S
C598 H604 0.959 . S
C598 H605 0.961 . S
C598 H606 0.960 . S
C599 C597 1.381 . S
C599 C600 1.394 . S
C599 H607 0.930 . S
C600 C599 1.394 . S
C600 C601 1.383 . S
C600 H608 0.929 . S
C601 C600 1.383 . S
C601 C602 1.377 . S
C602 H586 0.930 . S
C602 C601 1.377 . S
C602 C603 1.379 . S
C603 H587 0.931 . S
C603 C597 1.383 . S
C603 C602 1.379 . S
H604 C598 0.959 . S
H605 C598 0.961 . S
H606 C598 0.960 . S
H607 C599 0.930 . S
H608 C600 0.929 . S
H609 C617 0.929 . S
H610 C619 0.930 . S
H611 C621 0.930 . S
H612 C624 0.929 . S
H613 C627 0.930 . S
H614 C629 0.960 . S
H615 C629 0.960 . S
H616 C629 0.960 . S
C617 H609 0.929 . S
C617 C618 1.377 . S
C617 C619 1.384 . S
C618 C617 1.377 . S
C618 C624 1.390 . S
C619 H610 0.930 . S
C619 C617 1.384 . S
C619 C620 1.372 . S
C620 C619 1.372 . S
C620 C621 1.400 . S
C620 C625 1.490 . S
C621 H611 0.930 . S
C621 C620 1.400 . S
C621 C624 1.386 . S
H622 C638 0.930 . S
H623 C639 0.931 . S
C624 H612 0.929 . S
C624 C618 1.390 . S
C624 C621 1.386 . S
C625 C620 1.490 . S
C625 C627 1.395 . S
C625 C628 1.403 . S
H626 C632 0.930 . S
C627 H613 0.930 . S
C627 C625 1.395 . S
C627 C630 1.403 . S
C628 C625 1.403 . S
C628 C629 1.524 . S
C628 C632 1.400 . S
C629 H614 0.960 . S
C629 H615 0.960 . S
C629 H616 0.960 . S
C629 C628 1.524 . S
C630 C627 1.403 . S
C630 C631 1.392 . S
C630 C634 1.495 . S
C631 C630 1.392 . S
C631 C632 1.385 . S
C631 C633 1.478 . S
C632 H626 0.930 . S
C632 C628 1.400 . S
C632 C631 1.385 . S
C633 C631 1.478 . S
C633 C635 1.381 . S
C633 C639 1.383 . S
C634 C630 1.495 . S
C634 H640 0.959 . S
C634 H641 0.961 . S
C634 H642 0.960 . S
C635 C633 1.381 . S
C635 C636 1.394 . S
C635 H643 0.930 . S
C636 C635 1.394 . S
C636 C637 1.383 . S
C636 H644 0.929 . S
C637 C636 1.383 . S
C637 C638 1.377 . S
C638 H622 0.930 . S
C638 C637 1.377 . S
C638 C639 1.379 . S
C639 H623 0.931 . S
C639 C633 1.383 . S
C639 C638 1.379 . S
H640 C634 0.959 . S
H641 C634 0.961 . S
H642 C634 0.960 . S
H643 C635 0.930 . S
H644 C636 0.929 . S
H645 C653 0.929 . S
H646 C655 0.930 . S
H647 C657 0.930 . S
H648 C660 0.929 . S
H649 C663 0.930 . S
H650 C665 0.960 . S
H651 C665 0.960 . S
H652 C665 0.960 . S
C653 H645 0.929 . S
C653 C654 1.377 . S
C653 C655 1.384 . S
C654 C653 1.377 . S
C654 C660 1.390 . S
C655 H646 0.930 . S
C655 C653 1.384 . S
C655 C656 1.372 . S
C656 C655 1.372 . S
C656 C657 1.400 . S
C656 C661 1.490 . S
C657 H647 0.930 . S
C657 C656 1.400 . S
C657 C660 1.386 . S
H658 C674 0.930 . S
H659 C675 0.931 . S
C660 H648 0.929 . S
C660 C654 1.390 . S
C660 C657 1.386 . S
C661 C656 1.490 . S
C661 C663 1.395 . S
C661 C664 1.403 . S
H662 C668 0.930 . S
C663 H649 0.930 . S
C663 C661 1.395 . S
C663 C666 1.403 . S
C664 C661 1.403 . S
C664 C665 1.524 . S
C664 C668 1.400 . S
C665 H650 0.960 . S
C665 H651 0.960 . S
C665 H652 0.960 . S
C665 C664 1.524 . S
C666 C663 1.403 . S
C666 C667 1.392 . S
C666 C670 1.495 . S
C667 C666 1.392 . S
C667 C668 1.385 . S
C667 C669 1.478 . S
C668 H662 0.930 . S
C668 C664 1.400 . S
C668 C667 1.385 . S
C669 C667 1.478 . S
C669 C671 1.381 . S
C669 C675 1.383 . S
C670 C666 1.495 . S
C670 H676 0.959 . S
C670 H677 0.961 . S
C670 H678 0.960 . S
C671 C669 1.381 . S
C671 C672 1.394 . S
C671 H679 0.930 . S
C672 C671 1.394 . S
C672 C673 1.383 . S
C672 H680 0.929 . S
C673 C672 1.383 . S
C673 C674 1.377 . S
C674 H658 0.930 . S
C674 C673 1.377 . S
C674 C675 1.379 . S
C675 H659 0.931 . S
C675 C669 1.383 . S
C675 C674 1.379 . S
H676 C670 0.959 . S
H677 C670 0.961 . S
H678 C670 0.960 . S
H679 C671 0.930 . S
H680 C672 0.929 . S
H681 C689 0.929 . S
H682 C691 0.930 . S
H683 C693 0.930 . S
H684 C696 0.929 . S
H685 C699 0.930 . S
H686 C701 0.960 . S
H687 C701 0.960 . S
H688 C701 0.960 . S
C689 H681 0.929 . S
C689 C690 1.377 . S
C689 C691 1.384 . S
C690 C689 1.377 . S
C690 C696 1.390 . S
C691 H682 0.930 . S
C691 C689 1.384 . S
C691 C692 1.372 . S
C692 C691 1.372 . S
C692 C693 1.400 . S
C692 C697 1.490 . S
C693 H683 0.930 . S
C693 C692 1.400 . S
C693 C696 1.386 . S
H694 C710 0.930 . S
H695 C711 0.931 . S
C696 H684 0.929 . S
C696 C690 1.390 . S
C696 C693 1.386 . S
C697 C692 1.490 . S
C697 C699 1.395 . S
C697 C700 1.403 . S
H698 C704 0.930 . S
C699 H685 0.930 . S
C699 C697 1.395 . S
C699 C702 1.403 . S
C700 C697 1.403 . S
C700 C701 1.524 . S
C700 C704 1.400 . S
C701 H686 0.960 . S
C701 H687 0.960 . S
C701 H688 0.960 . S
C701 C700 1.524 . S
C702 C699 1.403 . S
C702 C703 1.392 . S
C702 C706 1.495 . S
C703 C702 1.392 . S
C703 C704 1.385 . S
C703 C705 1.478 . S
C704 H698 0.930 . S
C704 C700 1.400 . S
C704 C703 1.385 . S
C705 C703 1.478 . S
C705 C707 1.381 . S
C705 C711 1.383 . S
C706 C702 1.495 . S
C706 H712 0.959 . S
C706 H713 0.961 . S
C706 H714 0.960 . S
C707 C705 1.381 . S
C707 C708 1.394 . S
C707 H715 0.930 . S
C708 C707 1.394 . S
C708 C709 1.383 . S
C708 H716 0.929 . S
C709 C708 1.383 . S
C709 C710 1.377 . S
C710 H694 0.930 . S
C710 C709 1.377 . S
C710 C711 1.379 . S
C711 H695 0.931 . S
C711 C705 1.383 . S
C711 C710 1.379 . S
H712 C706 0.959 . S
H713 C706 0.961 . S
H714 C706 0.960 . S
H715 C707 0.930 . S
H716 C708 0.929 . S
H717 C725 0.929 . S
H718 C727 0.930 . S
H719 C729 0.930 . S
H720 C732 0.929 . S
H721 C735 0.930 . S
H722 C737 0.960 . S
H723 C737 0.960 . S
H724 C737 0.960 . S
C725 H717 0.929 . S
C725 C726 1.377 . S
C725 C727 1.384 . S
C726 C725 1.377 . S
C726 C732 1.390 . S
C727 H718 0.930 . S
C727 C725 1.384 . S
C727 C728 1.372 . S
C728 C727 1.372 . S
C728 C729 1.400 . S
C728 C733 1.490 . S
C729 H719 0.930 . S
C729 C728 1.400 . S
C729 C732 1.386 . S
H730 C746 0.930 . S
H731 C747 0.931 . S
C732 H720 0.929 . S
C732 C726 1.390 . S
C732 C729 1.386 . S
C733 C728 1.490 . S
C733 C735 1.395 . S
C733 C736 1.403 . S
H734 C740 0.930 . S
C735 H721 0.930 . S
C735 C733 1.395 . S
C735 C738 1.403 . S
C736 C733 1.403 . S
C736 C737 1.524 . S
C736 C740 1.400 . S
C737 H722 0.960 . S
C737 H723 0.960 . S
C737 H724 0.960 . S
C737 C736 1.524 . S
C738 C735 1.403 . S
C738 C739 1.392 . S
C738 C742 1.495 . S
C739 C738 1.392 . S
C739 C740 1.385 . S
C739 C741 1.478 . S
C740 H734 0.930 . S
C740 C736 1.400 . S
C740 C739 1.385 . S
C741 C739 1.478 . S
C741 C743 1.381 . S
C741 C747 1.383 . S
C742 C738 1.495 . S
C742 H748 0.959 . S
C742 H749 0.961 . S
C742 H750 0.960 . S
C743 C741 1.381 . S
C743 C744 1.394 . S
C743 H751 0.930 . S
C744 C743 1.394 . S
C744 C745 1.383 . S
C744 H752 0.929 . S
C745 C744 1.383 . S
C745 C746 1.377 . S
C746 H730 0.930 . S
C746 C745 1.377 . S
C746 C747 1.379 . S
C747 H731 0.931 . S
C747 C741 1.383 . S
C747 C746 1.379 . S
H748 C742 0.959 . S
H749 C742 0.961 . S
H750 C742 0.960 . S
H751 C743 0.930 . S
H752 C744 0.929 . S
H753 C761 0.929 . S
H754 C763 0.930 . S
H755 C765 0.930 . S
H756 C768 0.929 . S
H757 C771 0.930 . S
H758 C773 0.960 . S
H759 C773 0.960 . S
H760 C773 0.960 . S
C761 H753 0.929 . S
C761 C762 1.377 . S
C761 C763 1.384 . S
C762 C761 1.377 . S
C762 C768 1.390 . S
C763 H754 0.930 . S
C763 C761 1.384 . S
C763 C764 1.372 . S
C764 C763 1.372 . S
C764 C765 1.400 . S
C764 C769 1.490 . S
C765 H755 0.930 . S
C765 C764 1.400 . S
C765 C768 1.386 . S
H766 C782 0.930 . S
H767 C783 0.931 . S
C768 H756 0.929 . S
C768 C762 1.390 . S
C768 C765 1.386 . S
C769 C764 1.490 . S
C769 C771 1.395 . S
C769 C772 1.403 . S
H770 C776 0.930 . S
C771 H757 0.930 . S
C771 C769 1.395 . S
C771 C774 1.403 . S
C772 C769 1.403 . S
C772 C773 1.524 . S
C772 C776 1.400 . S
C773 H758 0.960 . S
C773 H759 0.960 . S
C773 H760 0.960 . S
C773 C772 1.524 . S
C774 C771 1.403 . S
C774 C775 1.392 . S
C774 C778 1.495 . S
C775 C774 1.392 . S
C775 C776 1.385 . S
C775 C777 1.478 . S
C776 H770 0.930 . S
C776 C772 1.400 . S
C776 C775 1.385 . S
C777 C775 1.478 . S
C777 C779 1.381 . S
C777 C783 1.383 . S
C778 C774 1.495 . S
C778 H784 0.959 . S
C778 H785 0.961 . S
C778 H786 0.960 . S
C779 C777 1.381 . S
C779 C780 1.394 . S
C779 H787 0.930 . S
C780 C779 1.394 . S
C780 C781 1.383 . S
C780 H788 0.929 . S
C781 C780 1.383 . S
C781 C782 1.377 . S
C782 H766 0.930 . S
C782 C781 1.377 . S
C782 C783 1.379 . S
C783 H767 0.931 . S
C783 C777 1.383 . S
C783 C782 1.379 . S
H784 C778 0.959 . S
H785 C778 0.961 . S
H786 C778 0.960 . S
H787 C779 0.930 . S
H788 C780 0.929 . S
H789 C797 0.929 . S
H790 C799 0.930 . S
H791 C801 0.930 . S
H792 C804 0.929 . S
H793 C807 0.930 . S
H794 C809 0.960 . S
H795 C809 0.960 . S
H796 C809 0.960 . S
C797 H789 0.929 . S
C797 C798 1.377 1_556 S
C797 C799 1.384 . S
C798 C797 1.377 1_554 S
C798 C804 1.390 . S
C799 H790 0.930 . S
C799 C797 1.384 . S
C799 C800 1.372 . S
C800 C799 1.372 . S
C800 C801 1.400 . S
C800 C805 1.490 . S
C801 H791 0.930 . S
C801 C800 1.400 . S
C801 C804 1.386 1_556 S
H802 C818 0.930 . S
H803 C819 0.931 . S
C804 H792 0.929 . S
C804 C798 1.390 . S
C804 C801 1.386 1_554 S
C805 C800 1.490 . S
C805 C807 1.395 . S
C805 C808 1.403 . S
H806 C812 0.930 . S
C807 H793 0.930 . S
C807 C805 1.395 . S
C807 C810 1.403 . S
C808 C805 1.403 . S
C808 C809 1.524 . S
C808 C812 1.400 . S
C809 H794 0.960 . S
C809 H795 0.960 . S
C809 H796 0.960 . S
C809 C808 1.524 . S
C810 C807 1.403 . S
C810 C811 1.392 . S
C810 C814 1.495 . S
C811 C810 1.392 . S
C811 C812 1.385 . S
C811 C813 1.478 . S
C812 H806 0.930 . S
C812 C808 1.400 . S
C812 C811 1.385 . S
C813 C811 1.478 . S
C813 C815 1.381 . S
C813 C819 1.383 . S
C814 C810 1.495 . S
C814 H820 0.959 . S
C814 H821 0.961 . S
C814 H822 0.960 . S
C815 C813 1.381 . S
C815 C816 1.394 . S
C815 H823 0.930 . S
C816 C815 1.394 . S
C816 C817 1.383 . S
C816 H824 0.929 . S
C817 C816 1.383 . S
C817 C818 1.377 . S
C818 H802 0.930 . S
C818 C817 1.377 . S
C818 C819 1.379 . S
C819 H803 0.931 . S
C819 C813 1.383 . S
C819 C818 1.379 . S
H820 C814 0.959 . S
H821 C814 0.961 . S
H822 C814 0.960 . S
H823 C815 0.930 . S
H824 C816 0.929 . S
H825 C833 0.929 . S
H826 C835 0.930 . S
H827 C837 0.930 . S
H828 C840 0.930 1_554 S
H829 C843 0.930 . S
H830 C845 0.960 . S
H831 C845 0.960 . S
H832 C845 0.960 . S
C833 H825 0.929 . S
C833 C834 1.377 . S
C833 C835 1.384 . S
C834 C833 1.377 . S
C834 C840 1.389 . S
C835 H826 0.930 . S
C835 C833 1.384 . S
C835 C836 1.372 . S
C836 C835 1.372 . S
C836 C837 1.400 . S
C836 C841 1.490 . S
C837 H827 0.930 . S
C837 C836 1.400 . S
C837 C840 1.385 . S
H838 C854 0.930 . S
H839 C855 0.931 . S
C840 H828 0.930 1_556 S
C840 C834 1.389 . S
C840 C837 1.385 . S
C841 C836 1.490 . S
C841 C843 1.395 . S
C841 C844 1.403 . S
H842 C848 0.930 . S
C843 H829 0.930 . S
C843 C841 1.395 . S
C843 C846 1.403 . S
C844 C841 1.403 . S
C844 C845 1.524 . S
C844 C848 1.400 . S
C845 H830 0.960 . S
C845 H831 0.960 . S
C845 H832 0.960 . S
C845 C844 1.524 . S
C846 C843 1.403 . S
C846 C847 1.392 . S
C846 C850 1.495 . S
C847 C846 1.392 . S
C847 C848 1.385 . S
C847 C849 1.478 . S
C848 H842 0.930 . S
C848 C844 1.400 . S
C848 C847 1.385 . S
C849 C847 1.478 . S
C849 C851 1.381 . S
C849 C855 1.383 . S
C850 C846 1.495 . S
C850 H856 0.959 . S
C850 H857 0.961 . S
C850 H858 0.960 . S
C851 C849 1.381 . S
C851 C852 1.394 . S
C851 H859 0.930 . S
C852 C851 1.394 . S
C852 C853 1.383 . S
C852 H860 0.929 . S
C853 C852 1.383 . S
C853 C854 1.377 . S
C854 H838 0.930 . S
C854 C853 1.377 . S
C854 C855 1.379 . S
C855 H839 0.931 . S
C855 C849 1.383 . S
C855 C854 1.379 . S
H856 C850 0.959 . S
H857 C850 0.961 . S
H858 C850 0.960 . S
H859 C851 0.930 . S
H860 C852 0.929 . S
H861 C869 0.929 . S
H862 C871 0.930 . S
H863 C873 0.930 . S
H864 C876 0.929 . S
H865 C879 0.930 . S
H866 C881 0.960 . S
H867 C881 0.960 . S
H868 C881 0.960 . S
C869 H861 0.929 . S
C869 C870 1.377 1_554 S
C869 C871 1.384 1_554 S
C870 C869 1.377 1_556 S
C870 C876 1.390 . S
C871 H862 0.930 . S
C871 C869 1.384 1_556 S
C871 C872 1.372 . S
C872 C871 1.372 . S
C872 C873 1.400 . S
C872 C877 1.490 . S
C873 H863 0.930 . S
C873 C872 1.400 . S
C873 C876 1.386 . S
H874 C890 0.930 . S
H875 C891 0.931 . S
C876 H864 0.929 . S
C876 C870 1.390 . S
C876 C873 1.386 . S
C877 C872 1.490 . S
C877 C879 1.395 . S
C877 C880 1.403 . S
H878 C884 0.930 . S
C879 H865 0.930 . S
C879 C877 1.395 . S
C879 C882 1.403 . S
C880 C877 1.403 . S
C880 C881 1.524 . S
C880 C884 1.400 . S
C881 H866 0.960 . S
C881 H867 0.960 . S
C881 H868 0.960 . S
C881 C880 1.524 . S
C882 C879 1.403 . S
C882 C883 1.392 . S
C882 C886 1.495 . S
C883 C882 1.392 . S
C883 C884 1.385 . S
C883 C885 1.478 . S
C884 H878 0.930 . S
C884 C880 1.400 . S
C884 C883 1.385 . S
C885 C883 1.478 . S
C885 C887 1.381 . S
C885 C891 1.383 . S
C886 C882 1.495 . S
C886 H892 0.959 . S
C886 H893 0.961 . S
C886 H894 0.960 . S
C887 C885 1.381 . S
C887 C888 1.394 . S
C887 H895 0.930 . S
C888 C887 1.394 . S
C888 C889 1.383 . S
C888 H896 0.929 . S
C889 C888 1.383 . S
C889 C890 1.377 . S
C890 H874 0.930 . S
C890 C889 1.377 . S
C890 C891 1.379 . S
C891 H875 0.931 . S
C891 C885 1.383 . S
C891 C890 1.379 . S
H892 C886 0.959 . S
H893 C886 0.961 . S
H894 C886 0.960 . S
H895 C887 0.930 . S
H896 C888 0.929 . S
H897 C905 0.929 . S
H898 C907 0.930 . S
H899 C909 0.930 . S
H900 C912 0.929 . S
H901 C915 0.930 . S
H902 C917 0.960 . S
H903 C917 0.960 . S
H904 C917 0.960 . S
C905 H897 0.929 . S
C905 C906 1.377 . S
C905 C907 1.384 . S
C906 C905 1.377 . S
C906 C912 1.390 . S
C907 H898 0.930 . S
C907 C905 1.384 . S
C907 C908 1.372 . S
C908 C907 1.372 . S
C908 C909 1.400 . S
C908 C913 1.490 . S
C909 H899 0.930 . S
C909 C908 1.400 . S
C909 C912 1.386 . S
H910 C926 0.930 . S
H911 C927 0.931 . S
C912 H900 0.929 . S
C912 C906 1.390 . S
C912 C909 1.386 . S
C913 C908 1.490 . S
C913 C915 1.395 . S
C913 C916 1.403 . S
H914 C920 0.930 . S
C915 H901 0.930 . S
C915 C913 1.395 . S
C915 C918 1.403 . S
C916 C913 1.403 . S
C916 C917 1.524 . S
C916 C920 1.400 . S
C917 H902 0.960 . S
C917 H903 0.960 . S
C917 H904 0.960 . S
C917 C916 1.524 . S
C918 C915 1.403 . S
C918 C919 1.392 . S
C918 C922 1.495 . S
C919 C918 1.392 . S
C919 C920 1.385 . S
C919 C921 1.478 . S
C920 H914 0.930 . S
C920 C916 1.400 . S
C920 C919 1.385 . S
C921 C919 1.478 . S
C921 C923 1.381 . S
C921 C927 1.383 . S
C922 C918 1.495 . S
C922 H928 0.959 . S
C922 H929 0.961 . S
C922 H930 0.960 . S
C923 C921 1.381 . S
C923 C924 1.394 . S
C923 H931 0.930 . S
C924 C923 1.394 . S
C924 C925 1.383 . S
C924 H932 0.929 . S
C925 C924 1.383 . S
C925 C926 1.377 . S
C926 H910 0.930 . S
C926 C925 1.377 . S
C926 C927 1.379 . S
C927 H911 0.931 . S
C927 C921 1.383 . S
C927 C926 1.379 . S
H928 C922 0.959 . S
H929 C922 0.961 . S
H930 C922 0.960 . S
H931 C923 0.930 . S
H932 C924 0.929 . S
H933 C941 0.929 . S
H934 C943 0.930 . S
H935 C945 0.930 . S
H936 C948 0.929 . S
H937 C951 0.930 . S
H938 C953 0.960 . S
H939 C953 0.960 . S
H940 C953 0.960 . S
C941 H933 0.929 . S
C941 C942 1.377 . S
C941 C943 1.384 . S
C942 C941 1.377 . S
C942 C948 1.390 . S
C943 H934 0.930 . S
C943 C941 1.384 . S
C943 C944 1.372 . S
C944 C943 1.372 . S
C944 C945 1.400 . S
C944 C949 1.490 . S
C945 H935 0.930 . S
C945 C944 1.400 . S
C945 C948 1.386 . S
H946 C962 0.930 . S
H947 C963 0.931 . S
C948 H936 0.929 . S
C948 C942 1.390 . S
C948 C945 1.386 . S
C949 C944 1.490 . S
C949 C951 1.395 . S
C949 C952 1.403 . S
H950 C956 0.930 . S
C951 H937 0.930 . S
C951 C949 1.395 . S
C951 C954 1.403 . S
C952 C949 1.403 . S
C952 C953 1.524 . S
C952 C956 1.400 . S
C953 H938 0.960 . S
C953 H939 0.960 . S
C953 H940 0.960 . S
C953 C952 1.524 . S
C954 C951 1.403 . S
C954 C955 1.392 . S
C954 C958 1.495 . S
C955 C954 1.392 . S
C955 C956 1.385 . S
C955 C957 1.478 . S
C956 H950 0.930 . S
C956 C952 1.400 . S
C956 C955 1.385 . S
C957 C955 1.478 . S
C957 C959 1.381 . S
C957 C963 1.383 . S
C958 C954 1.495 . S
C958 H964 0.959 . S
C958 H965 0.961 . S
C958 H966 0.960 . S
C959 C957 1.381 . S
C959 C960 1.394 . S
C959 H967 0.930 . S
C960 C959 1.394 . S
C960 C961 1.383 . S
C960 H968 0.929 . S
C961 C960 1.383 . S
C961 C962 1.377 . S
C962 H946 0.930 . S
C962 C961 1.377 . S
C962 C963 1.379 . S
C963 H947 0.931 . S
C963 C957 1.383 . S
C963 C962 1.379 . S
H964 C958 0.959 . S
H965 C958 0.961 . S
H966 C958 0.960 . S
H967 C959 0.930 . S
H968 C960 0.929 . S
H969 C977 0.929 1_554 S
H970 C979 0.930 . S
H971 C981 0.930 . S
H972 C984 0.929 . S
H973 C987 0.930 . S
H974 C989 0.960 . S
H975 C989 0.960 1_554 S
H976 C989 0.960 . S
C977 H969 0.929 1_556 S
C977 C978 1.377 1_556 S
C977 C979 1.384 . S
C978 C977 1.377 1_554 S
C978 C984 1.390 . S
C979 H970 0.930 . S
C979 C977 1.384 . S
C979 C980 1.372 . S
C980 C979 1.372 . S
C980 C981 1.400 . S
C980 C985 1.490 . S
C981 H971 0.930 . S
C981 C980 1.400 . S
C981 C984 1.386 1_556 S
H982 C998 0.930 . S
H983 C999 0.931 . S
C984 H972 0.929 . S
C984 C978 1.390 . S
C984 C981 1.386 1_554 S
C985 C980 1.490 . S
C985 C987 1.395 . S
C985 C988 1.403 . S
H986 C992 0.930 . S
C987 H973 0.930 . S
C987 C985 1.395 . S
C987 C990 1.403 . S
C988 C985 1.403 . S
C988 C989 1.524 . S
C988 C992 1.400 . S
C989 H974 0.960 . S
C989 H975 0.960 1_556 S
C989 H976 0.960 . S
C989 C988 1.524 . S
C990 C987 1.403 . S
C990 C991 1.392 . S
C990 C994 1.495 . S
C991 C990 1.392 . S
C991 C992 1.385 . S
C991 C993 1.478 . S
C992 H986 0.930 . S
C992 C988 1.400 . S
C992 C991 1.385 . S
C993 C991 1.478 . S
C993 C995 1.381 . S
C993 C999 1.383 . S
C994 C990 1.495 . S
C994 H1000 0.959 . S
C994 H1001 0.961 . S
C994 H1002 0.960 . S
C995 C993 1.381 . S
C995 C996 1.394 . S
C995 H1003 0.930 . S
C996 C995 1.394 . S
C996 C997 1.383 . S
C996 H1004 0.929 . S
C997 C996 1.383 . S
C997 C998 1.377 . S
C998 H982 0.930 . S
C998 C997 1.377 . S
C998 C999 1.379 . S
C999 H983 0.931 . S
C999 C993 1.383 . S
C999 C998 1.379 . S
H1000 C994 0.959 . S
H1001 C994 0.961 . S
H1002 C994 0.960 . S
H1003 C995 0.930 . S
H1004 C996 0.929 . S
H1005 C1013 0.929 . S
H1006 C1015 0.930 . S
H1007 C1017 0.930 . S
H1008 C1020 0.929 . S
H1009 C1023 0.930 . S
H1010 C1025 0.960 . S
H1011 C1025 0.960 . S
H1012 C1025 0.960 . S
C1013 H1005 0.929 . S
C1013 C1014 1.377 . S
C1013 C1015 1.384 . S
C1014 C1013 1.377 . S
C1014 C1020 1.390 . S
C1015 H1006 0.930 . S
C1015 C1013 1.384 . S
C1015 C1016 1.372 . S
C1016 C1015 1.372 . S
C1016 C1017 1.400 . S
C1016 C1021 1.490 . S
C1017 H1007 0.930 . S
C1017 C1016 1.400 . S
C1017 C1020 1.386 . S
H1018 C1034 0.930 . S
H1019 C1035 0.931 . S
C1020 H1008 0.929 . S
C1020 C1014 1.390 . S
C1020 C1017 1.386 . S
C1021 C1016 1.490 . S
C1021 C1023 1.395 . S
C1021 C1024 1.403 . S
H1022 C1028 0.930 . S
C1023 H1009 0.930 . S
C1023 C1021 1.395 . S
C1023 C1026 1.403 . S
C1024 C1021 1.403 . S
C1024 C1025 1.524 . S
C1024 C1028 1.400 . S
C1025 H1010 0.960 . S
C1025 H1011 0.960 . S
C1025 H1012 0.960 . S
C1025 C1024 1.524 . S
C1026 C1023 1.403 . S
C1026 C1027 1.392 . S
C1026 C1030 1.495 . S
C1027 C1026 1.392 . S
C1027 C1028 1.385 . S
C1027 C1029 1.478 . S
C1028 H1022 0.930 . S
C1028 C1024 1.400 . S
C1028 C1027 1.385 . S
C1029 C1027 1.478 . S
C1029 C1031 1.381 . S
C1029 C1035 1.383 . S
C1030 C1026 1.495 . S
C1030 H1036 0.959 . S
C1030 H1037 0.961 . S
C1030 H1038 0.960 . S
C1031 C1029 1.381 . S
C1031 C1032 1.394 . S
C1031 H1039 0.930 . S
C1032 C1031 1.394 . S
C1032 C1033 1.383 . S
C1032 H1040 0.929 . S
C1033 C1032 1.383 . S
C1033 C1034 1.377 . S
C1034 H1018 0.930 . S
C1034 C1033 1.377 . S
C1034 C1035 1.379 . S
C1035 H1019 0.931 . S
C1035 C1029 1.383 . S
C1035 C1034 1.379 . S
H1036 C1030 0.959 . S
H1037 C1030 0.961 . S
H1038 C1030 0.960 . S
H1039 C1031 0.930 . S
H1040 C1032 0.929 . S
H1041 C1049 0.929 . S
H1042 C1051 0.930 . S
H1043 C1053 0.930 . S
H1044 C1056 0.929 . S
H1045 C1059 0.930 . S
H1046 C1061 0.960 . S
H1047 C1061 0.960 . S
H1048 C1061 0.960 . S
C1049 H1041 0.929 . S
C1049 C1050 1.377 . S
C1049 C1051 1.384 . S
C1050 C1049 1.377 . S
C1050 C1056 1.390 . S
C1051 H1042 0.930 . S
C1051 C1049 1.384 . S
C1051 C1052 1.372 . S
C1052 C1051 1.372 . S
C1052 C1053 1.400 . S
C1052 C1057 1.490 . S
C1053 H1043 0.930 . S
C1053 C1052 1.400 . S
C1053 C1056 1.386 . S
H1054 C1070 0.930 . S
H1055 C1071 0.931 . S
C1056 H1044 0.929 . S
C1056 C1050 1.390 . S
C1056 C1053 1.386 . S
C1057 C1052 1.490 . S
C1057 C1059 1.395 . S
C1057 C1060 1.403 . S
H1058 C1064 0.930 . S
C1059 H1045 0.930 . S
C1059 C1057 1.395 . S
C1059 C1062 1.403 . S
C1060 C1057 1.403 . S
C1060 C1061 1.524 . S
C1060 C1064 1.400 . S
C1061 H1046 0.960 . S
C1061 H1047 0.960 . S
C1061 H1048 0.960 . S
C1061 C1060 1.524 . S
C1062 C1059 1.403 . S
C1062 C1063 1.392 . S
C1062 C1066 1.495 . S
C1063 C1062 1.392 . S
C1063 C1064 1.385 . S
C1063 C1065 1.478 . S
C1064 H1058 0.930 . S
C1064 C1060 1.400 . S
C1064 C1063 1.385 . S
C1065 C1063 1.478 . S
C1065 C1067 1.381 . S
C1065 C1071 1.383 . S
C1066 C1062 1.495 . S
C1066 H1072 0.959 . S
C1066 H1073 0.961 . S
C1066 H1074 0.960 . S
C1067 C1065 1.381 . S
C1067 C1068 1.394 . S
C1067 H1075 0.930 . S
C1068 C1067 1.394 . S
C1068 C1069 1.383 . S
C1068 H1076 0.929 . S
C1069 C1068 1.383 . S
C1069 C1070 1.377 . S
C1070 H1054 0.930 . S
C1070 C1069 1.377 . S
C1070 C1071 1.379 . S
C1071 H1055 0.931 . S
C1071 C1065 1.383 . S
C1071 C1070 1.379 . S
H1072 C1066 0.959 . S
H1073 C1066 0.961 . S
H1074 C1066 0.960 . S
H1075 C1067 0.930 . S
H1076 C1068 0.929 . S
H1077 C1085 0.929 . S
H1078 C1087 0.930 . S
H1079 C1089 0.930 . S
H1080 C1092 0.929 . S
H1081 C1095 0.930 . S
H1082 C1097 0.960 . S
H1083 C1097 0.960 . S
H1084 C1097 0.960 . S
C1085 H1077 0.929 . S
C1085 C1086 1.377 . S
C1085 C1087 1.384 . S
C1086 C1085 1.377 . S
C1086 C1092 1.390 . S
C1087 H1078 0.930 . S
C1087 C1085 1.384 . S
C1087 C1088 1.372 . S
C1088 C1087 1.372 . S
C1088 C1089 1.400 . S
C1088 C1093 1.490 . S
C1089 H1079 0.930 . S
C1089 C1088 1.400 . S
C1089 C1092 1.386 . S
H1090 C1106 0.930 . S
H1091 C1107 0.931 . S
C1092 H1080 0.929 . S
C1092 C1086 1.390 . S
C1092 C1089 1.386 . S
C1093 C1088 1.490 . S
C1093 C1095 1.395 . S
C1093 C1096 1.403 . S
H1094 C1100 0.930 . S
C1095 H1081 0.930 . S
C1095 C1093 1.395 . S
C1095 C1098 1.403 . S
C1096 C1093 1.403 . S
C1096 C1097 1.524 . S
C1096 C1100 1.400 . S
C1097 H1082 0.960 . S
C1097 H1083 0.960 . S
C1097 H1084 0.960 . S
C1097 C1096 1.524 . S
C1098 C1095 1.403 . S
C1098 C1099 1.392 . S
C1098 C1102 1.495 . S
C1099 C1098 1.392 . S
C1099 C1100 1.385 . S
C1099 C1101 1.478 . S
C1100 H1094 0.930 . S
C1100 C1096 1.400 . S
C1100 C1099 1.385 . S
C1101 C1099 1.478 . S
C1101 C1103 1.381 . S
C1101 C1107 1.383 . S
C1102 C1098 1.495 . S
C1102 H1108 0.959 . S
C1102 H1109 0.961 . S
C1102 H1110 0.960 . S
C1103 C1101 1.381 . S
C1103 C1104 1.394 . S
C1103 H1111 0.930 . S
C1104 C1103 1.394 . S
C1104 C1105 1.383 . S
C1104 H1112 0.929 . S
C1105 C1104 1.383 . S
C1105 C1106 1.377 . S
C1106 H1090 0.930 . S
C1106 C1105 1.377 . S
C1106 C1107 1.379 . S
C1107 H1091 0.931 . S
C1107 C1101 1.383 . S
C1107 C1106 1.379 . S
H1108 C1102 0.959 . S
H1109 C1102 0.961 . S
H1110 C1102 0.960 . S
H1111 C1103 0.930 . S
H1112 C1104 0.929 . S
H1113 C1121 0.929 . S
H1114 C1123 0.930 . S
H1115 C1125 0.930 . S
H1116 C1128 0.929 . S
H1117 C1131 0.930 . S
H1118 C1133 0.960 . S
H1119 C1133 0.960 . S
H1120 C1133 0.960 . S
C1121 H1113 0.929 . S
C1121 C1122 1.377 . S
C1121 C1123 1.384 . S
C1122 C1121 1.377 . S
C1122 C1128 1.390 . S
C1123 H1114 0.930 . S
C1123 C1121 1.384 . S
C1123 C1124 1.372 . S
C1124 C1123 1.372 . S
C1124 C1125 1.400 . S
C1124 C1129 1.490 . S
C1125 H1115 0.930 . S
C1125 C1124 1.400 . S
C1125 C1128 1.386 . S
H1126 C1142 0.930 . S
H1127 C1143 0.931 . S
C1128 H1116 0.929 . S
C1128 C1122 1.390 . S
C1128 C1125 1.386 . S
C1129 C1124 1.490 . S
C1129 C1131 1.395 . S
C1129 C1132 1.403 . S
H1130 C1136 0.930 . S
C1131 H1117 0.930 . S
C1131 C1129 1.395 . S
C1131 C1134 1.403 . S
C1132 C1129 1.403 . S
C1132 C1133 1.524 . S
C1132 C1136 1.400 . S
C1133 H1118 0.960 . S
C1133 H1119 0.960 . S
C1133 H1120 0.960 . S
C1133 C1132 1.524 . S
C1134 C1131 1.403 . S
C1134 C1135 1.392 . S
C1134 C1138 1.495 . S
C1135 C1134 1.392 . S
C1135 C1136 1.385 . S
C1135 C1137 1.478 . S
C1136 H1130 0.930 . S
C1136 C1132 1.400 . S
C1136 C1135 1.385 . S
C1137 C1135 1.478 . S
C1137 C1139 1.381 . S
C1137 C1143 1.383 . S
C1138 C1134 1.495 . S
C1138 H1144 0.959 . S
C1138 H1145 0.961 . S
C1138 H1146 0.960 . S
C1139 C1137 1.381 . S
C1139 C1140 1.394 . S
C1139 H1147 0.930 . S
C1140 C1139 1.394 . S
C1140 C1141 1.383 . S
C1140 H1148 0.929 . S
C1141 C1140 1.383 . S
C1141 C1142 1.377 . S
C1142 H1126 0.930 . S
C1142 C1141 1.377 . S
C1142 C1143 1.379 . S
C1143 H1127 0.931 . S
C1143 C1137 1.383 . S
C1143 C1142 1.379 . S
H1144 C1138 0.959 . S
H1145 C1138 0.961 . S
H1146 C1138 0.960 . S
H1147 C1139 0.930 . S
H1148 C1140 0.929 . S
H1149 C1157 0.929 . S
H1150 C1159 0.930 . S
H1151 C1161 0.930 . S
H1152 C1164 0.929 . S
H1153 C1167 0.930 . S
H1154 C1169 0.960 . S
H1155 C1169 0.960 . S
H1156 C1169 0.960 . S
C1157 H1149 0.929 . S
C1157 C1158 1.377 . S
C1157 C1159 1.384 . S
C1158 C1157 1.377 . S
C1158 C1164 1.390 . S
C1159 H1150 0.930 . S
C1159 C1157 1.384 . S
C1159 C1160 1.372 . S
C1160 C1159 1.372 . S
C1160 C1161 1.400 . S
C1160 C1165 1.490 . S
C1161 H1151 0.930 . S
C1161 C1160 1.400 . S
C1161 C1164 1.386 . S
H1162 C1178 0.930 . S
H1163 C1179 0.931 . S
C1164 H1152 0.929 . S
C1164 C1158 1.390 . S
C1164 C1161 1.386 . S
C1165 C1160 1.490 . S
C1165 C1167 1.395 . S
C1165 C1168 1.403 . S
H1166 C1172 0.930 . S
C1167 H1153 0.930 . S
C1167 C1165 1.395 . S
C1167 C1170 1.403 . S
C1168 C1165 1.403 . S
C1168 C1169 1.524 . S
C1168 C1172 1.400 . S
C1169 H1154 0.960 . S
C1169 H1155 0.960 . S
C1169 H1156 0.960 . S
C1169 C1168 1.524 . S
C1170 C1167 1.403 . S
C1170 C1171 1.392 . S
C1170 C1174 1.495 . S
C1171 C1170 1.392 . S
C1171 C1172 1.385 . S
C1171 C1173 1.478 . S
C1172 H1166 0.930 . S
C1172 C1168 1.400 . S
C1172 C1171 1.385 . S
C1173 C1171 1.478 . S
C1173 C1175 1.381 . S
C1173 C1179 1.383 . S
C1174 C1170 1.495 . S
C1174 H1180 0.959 . S
C1174 H1181 0.961 . S
C1174 H1182 0.960 . S
C1175 C1173 1.381 . S
C1175 C1176 1.394 . S
C1175 H1183 0.930 . S
C1176 C1175 1.394 . S
C1176 C1177 1.383 . S
C1176 H1184 0.929 . S
C1177 C1176 1.383 . S
C1177 C1178 1.377 . S
C1178 H1162 0.930 . S
C1178 C1177 1.377 . S
C1178 C1179 1.379 . S
C1179 H1163 0.931 . S
C1179 C1173 1.383 . S
C1179 C1178 1.379 . S
H1180 C1174 0.959 . S
H1181 C1174 0.961 . S
H1182 C1174 0.960 . S
H1183 C1175 0.930 . S
H1184 C1176 0.929 . S
H1185 C1193 0.929 . S
H1186 C1195 0.930 . S
H1187 C1197 0.930 . S
H1188 C1200 0.929 . S
H1189 C1203 0.930 . S
H1190 C1205 0.960 . S
H1191 C1205 0.960 . S
H1192 C1205 0.960 . S
C1193 H1185 0.929 . S
C1193 C1194 1.377 . S
C1193 C1195 1.384 . S
C1194 C1193 1.377 . S
C1194 C1200 1.390 . S
C1195 H1186 0.930 . S
C1195 C1193 1.384 . S
C1195 C1196 1.372 . S
C1196 C1195 1.372 . S
C1196 C1197 1.400 . S
C1196 C1201 1.490 . S
C1197 H1187 0.930 . S
C1197 C1196 1.400 . S
C1197 C1200 1.386 . S
H1198 C1214 0.930 . S
H1199 C1215 0.931 . S
C1200 H1188 0.929 . S
C1200 C1194 1.390 . S
C1200 C1197 1.386 . S
C1201 C1196 1.490 . S
C1201 C1203 1.395 . S
C1201 C1204 1.403 . S
H1202 C1208 0.930 . S
C1203 H1189 0.930 . S
C1203 C1201 1.395 . S
C1203 C1206 1.403 . S
C1204 C1201 1.403 . S
C1204 C1205 1.524 . S
C1204 C1208 1.400 . S
C1205 H1190 0.960 . S
C1205 H1191 0.960 . S
C1205 H1192 0.960 . S
C1205 C1204 1.524 . S
C1206 C1203 1.403 . S
C1206 C1207 1.392 . S
C1206 C1210 1.495 . S
C1207 C1206 1.392 . S
C1207 C1208 1.385 . S
C1207 C1209 1.478 . S
C1208 H1202 0.930 . S
C1208 C1204 1.400 . S
C1208 C1207 1.385 . S
C1209 C1207 1.478 . S
C1209 C1211 1.381 . S
C1209 C1215 1.383 . S
C1210 C1206 1.495 . S
C1210 H1216 0.959 . S
C1210 H1217 0.961 . S
C1210 H1218 0.960 . S
C1211 C1209 1.381 . S
C1211 C1212 1.394 . S
C1211 H1219 0.930 . S
C1212 C1211 1.394 . S
C1212 C1213 1.383 . S
C1212 H1220 0.929 . S
C1213 C1212 1.383 . S
C1213 C1214 1.377 . S
C1214 H1198 0.930 . S
C1214 C1213 1.377 . S
C1214 C1215 1.379 . S
C1215 H1199 0.931 . S
C1215 C1209 1.383 . S
C1215 C1214 1.379 . S
H1216 C1210 0.959 . S
H1217 C1210 0.961 . S
H1218 C1210 0.960 . S
H1219 C1211 0.930 . S
H1220 C1212 0.929 . S
H1221 C1229 0.929 . S
H1222 C1231 0.930 . S
H1223 C1233 0.930 . S
H1224 C1236 0.929 . S
H1225 C1239 0.930 . S
H1226 C1241 0.960 . S
H1227 C1241 0.960 . S
H1228 C1241 0.960 . S
C1229 H1221 0.929 . S
C1229 C1230 1.377 . S
C1229 C1231 1.384 . S
C1230 C1229 1.377 . S
C1230 C1236 1.390 . S
C1231 H1222 0.930 . S
C1231 C1229 1.384 . S
C1231 C1232 1.372 . S
C1232 C1231 1.372 . S
C1232 C1233 1.400 . S
C1232 C1237 1.490 . S
C1233 H1223 0.930 . S
C1233 C1232 1.400 . S
C1233 C1236 1.386 . S
H1234 C1250 0.930 . S
H1235 C1251 0.931 . S
C1236 H1224 0.929 . S
C1236 C1230 1.390 . S
C1236 C1233 1.386 . S
C1237 C1232 1.490 . S
C1237 C1239 1.395 . S
C1237 C1240 1.403 . S
H1238 C1244 0.930 . S
C1239 H1225 0.930 . S
C1239 C1237 1.395 . S
C1239 C1242 1.403 . S
C1240 C1237 1.403 . S
C1240 C1241 1.524 . S
C1240 C1244 1.400 . S
C1241 H1226 0.960 . S
C1241 H1227 0.960 . S
C1241 H1228 0.960 . S
C1241 C1240 1.524 . S
C1242 C1239 1.403 . S
C1242 C1243 1.392 . S
C1242 C1246 1.495 . S
C1243 C1242 1.392 . S
C1243 C1244 1.385 . S
C1243 C1245 1.478 . S
C1244 H1238 0.930 . S
C1244 C1240 1.400 . S
C1244 C1243 1.385 . S
C1245 C1243 1.478 . S
C1245 C1247 1.381 . S
C1245 C1251 1.383 . S
C1246 C1242 1.495 . S
C1246 H1252 0.959 . S
C1246 H1253 0.961 . S
C1246 H1254 0.960 . S
C1247 C1245 1.381 . S
C1247 C1248 1.394 . S
C1247 H1255 0.930 . S
C1248 C1247 1.394 . S
C1248 C1249 1.383 . S
C1248 H1256 0.929 . S
C1249 C1248 1.383 . S
C1249 C1250 1.377 . S
C1250 H1234 0.930 . S
C1250 C1249 1.377 . S
C1250 C1251 1.379 . S
C1251 H1235 0.931 . S
C1251 C1245 1.383 . S
C1251 C1250 1.379 . S
H1252 C1246 0.959 . S
H1253 C1246 0.961 . S
H1254 C1246 0.960 . S
H1255 C1247 0.930 . S
H1256 C1248 0.929 . S
H1257 C1265 0.929 . S
H1258 C1267 0.930 . S
H1259 C1269 0.930 . S
H1260 C1272 0.929 . S
H1261 C1275 0.930 . S
H1262 C1277 0.960 . S
H1263 C1277 0.960 . S
H1264 C1277 0.960 . S
C1265 H1257 0.929 . S
C1265 C1266 1.377 . S
C1265 C1267 1.384 . S
C1266 C1265 1.377 . S
C1266 C1272 1.390 . S
C1267 H1258 0.930 . S
C1267 C1265 1.384 . S
C1267 C1268 1.372 . S
C1268 C1267 1.372 . S
C1268 C1269 1.400 . S
C1268 C1273 1.490 . S
C1269 H1259 0.930 . S
C1269 C1268 1.400 . S
C1269 C1272 1.386 . S
H1270 C1286 0.930 . S
H1271 C1287 0.931 . S
C1272 H1260 0.929 . S
C1272 C1266 1.390 . S
C1272 C1269 1.386 . S
C1273 C1268 1.490 . S
C1273 C1275 1.395 . S
C1273 C1276 1.403 . S
H1274 C1280 0.930 . S
C1275 H1261 0.930 . S
C1275 C1273 1.395 . S
C1275 C1278 1.403 . S
C1276 C1273 1.403 . S
C1276 C1277 1.524 . S
C1276 C1280 1.400 . S
C1277 H1262 0.960 . S
C1277 H1263 0.960 . S
C1277 H1264 0.960 . S
C1277 C1276 1.524 . S
C1278 C1275 1.403 . S
C1278 C1279 1.392 . S
C1278 C1282 1.495 . S
C1279 C1278 1.392 . S
C1279 C1280 1.385 . S
C1279 C1281 1.478 . S
C1280 H1274 0.930 . S
C1280 C1276 1.400 . S
C1280 C1279 1.385 . S
C1281 C1279 1.478 . S
C1281 C1283 1.381 . S
C1281 C1287 1.383 . S
C1282 C1278 1.495 . S
C1282 H1288 0.959 . S
C1282 H1289 0.961 . S
C1282 H1290 0.960 . S
C1283 C1281 1.381 . S
C1283 C1284 1.394 . S
C1283 H1291 0.930 . S
C1284 C1283 1.394 . S
C1284 C1285 1.383 . S
C1284 H1292 0.929 . S
C1285 C1284 1.383 . S
C1285 C1286 1.377 . S
C1286 H1270 0.930 . S
C1286 C1285 1.377 . S
C1286 C1287 1.379 . S
C1287 H1271 0.931 . S
C1287 C1281 1.383 . S
C1287 C1286 1.379 . S
H1288 C1282 0.959 . S
H1289 C1282 0.961 . S
H1290 C1282 0.960 . S
H1291 C1283 0.930 . S
H1292 C1284 0.929 . S
H1293 C1301 0.929 . S
H1294 C1303 0.930 . S
H1295 C1305 0.930 . S
H1296 C1308 0.929 . S
H1297 C1311 0.930 . S
H1298 C1313 0.960 . S
H1299 C1313 0.960 . S
H1300 C1313 0.960 . S
C1301 H1293 0.929 . S
C1301 C1302 1.377 . S
C1301 C1303 1.384 . S
C1302 C1301 1.377 . S
C1302 C1308 1.390 . S
C1303 H1294 0.930 . S
C1303 C1301 1.384 . S
C1303 C1304 1.372 . S
C1304 C1303 1.372 . S
C1304 C1305 1.400 . S
C1304 C1309 1.490 . S
C1305 H1295 0.930 . S
C1305 C1304 1.400 . S
C1305 C1308 1.386 . S
H1306 C1322 0.930 . S
H1307 C1323 0.931 . S
C1308 H1296 0.929 . S
C1308 C1302 1.390 . S
C1308 C1305 1.386 . S
C1309 C1304 1.490 . S
C1309 C1311 1.395 . S
C1309 C1312 1.403 . S
H1310 C1316 0.930 . S
C1311 H1297 0.930 . S
C1311 C1309 1.395 . S
C1311 C1314 1.403 . S
C1312 C1309 1.403 . S
C1312 C1313 1.524 . S
C1312 C1316 1.400 . S
C1313 H1298 0.960 . S
C1313 H1299 0.960 . S
C1313 H1300 0.960 . S
C1313 C1312 1.524 . S
C1314 C1311 1.403 . S
C1314 C1315 1.392 . S
C1314 C1318 1.495 . S
C1315 C1314 1.392 . S
C1315 C1316 1.385 . S
C1315 C1317 1.478 . S
C1316 H1310 0.930 . S
C1316 C1312 1.400 . S
C1316 C1315 1.385 . S
C1317 C1315 1.478 . S
C1317 C1319 1.381 . S
C1317 C1323 1.383 . S
C1318 C1314 1.495 . S
C1318 H1324 0.959 . S
C1318 H1325 0.961 . S
C1318 H1326 0.960 . S
C1319 C1317 1.381 . S
C1319 C1320 1.394 . S
C1319 H1327 0.930 . S
C1320 C1319 1.394 . S
C1320 C1321 1.383 . S
C1320 H1328 0.929 . S
C1321 C1320 1.383 . S
C1321 C1322 1.377 . S
C1322 H1306 0.930 . S
C1322 C1321 1.377 . S
C1322 C1323 1.379 . S
C1323 H1307 0.931 . S
C1323 C1317 1.383 . S
C1323 C1322 1.379 . S
H1324 C1318 0.959 . S
H1325 C1318 0.961 . S
H1326 C1318 0.960 . S
H1327 C1319 0.930 . S
H1328 C1320 0.929 . S
C474 C47 2.015 . S
C493 C383 2.117 . S
C510 C91 1.899 . S
C529 C430 1.989 . S
C565 C434 1.912 . S
C546 C177 1.965 . S
C601 C399 1.861 . S
C582 C215 1.812 . S
C618 C295 1.928 . S
C637 C414 1.989 . S
C673 C436 0.704 . S
C654 C345 0.749 . S
C709 C405 1.583 . S
C690 C153 1.555 . S
C726 C239 1.260 . S
C745 C445 1.208 . S
C781 C374 1.118 . S
C762 C283 1.164 . S
C798 C357 1.716 . S
C817 C403 1.771 . S
C834 C35 2.019 1_556 S
C853 C461 1.983 . S
C889 C372 1.483 . S
C870 C115 1.550 1_556 S
C925 C390 1.713 . S
C906 C221 1.757 . S
C961 C404 1.563 . S
C942 C301 1.597 . S
C997 C458 2.208 . S
C978 C339 2.155 . S
C1033 C373 1.510 . S
C1014 C53 1.571 1_556 S
C1069 C421 1.673 . S
C1050 C97 1.732 1_556 S
C1086 C171 1.095 . S
C1105 C444 1.134 . S
C1141 C413 1.174 . S
C1122 C363 1.234 . S
C1177 C452 1.630 . S
C1158 C29 1.543 . S
C1213 C382 1.486 . S
C1194 C109 1.443 . S
C1249 C427 1.471 . S
C1230 C159 1.510 . S
C1266 C233 2.265 . S
C1285 C435 2.307 . S
C1302 C277 1.789 . S
C1321 C396 1.845 . S
