# Generated by pormake.
# Topology anh, (6,3)-cn, num edge types: 1
# Building blocks:
#     Node 0, Type 0, BuildingBlock: MIFKUJ_clean_sbu_0, # of connection points: 6
#     Node 1, Type 0, BuildingBlock: MIFKUJ_clean_sbu_0, # of connection points: 6
#     Node 2, Type 0, BuildingBlock: MIFKUJ_clean_sbu_0, # of connection points: 6
#     Node 3, Type 1, BuildingBlock: PAMTOO_clean_linker_0, # of connection points: 3
#     Node 4, Type 1, BuildingBlock: PAMTOO_clean_linker_0, # of connection points: 3
#     Node 5, Type 1, BuildingBlock: PAMTOO_clean_linker_0, # of connection points: 3
#     Node 6, Type 1, BuildingBlock: PAMTOO_clean_linker_0, # of connection points: 3
#     Node 7, Type 1, BuildingBlock: PAMTOO_clean_linker_0, # of connection points: 3
#     Node 8, Type 1, BuildingBlock: PAMTOO_clean_linker_0, # of connection points: 3
#     Edge 9, Type (0, 1), BuildingBlock: ZUJKAS_clean_linker_0, # of connection points: 2
#     Edge 10, Type (0, 1), BuildingBlock: ZUJKAS_clean_linker_0, # of connection points: 2
#     Edge 11, Type (0, 1), BuildingBlock: ZUJKAS_clean_linker_0, # of connection points: 2
#     Edge 12, Type (0, 1), BuildingBlock: ZUJKAS_clean_linker_0, # of connection points: 2
#     Edge 13, Type (0, 1), BuildingBlock: ZUJKAS_clean_linker_0, # of connection points: 2
#     Edge 14, Type (0, 1), BuildingBlock: ZUJKAS_clean_linker_0, # of connection points: 2
#     Edge 15, Type (0, 1), BuildingBlock: ZUJKAS_clean_linker_0, # of connection points: 2
#     Edge 16, Type (0, 1), BuildingBlock: ZUJKAS_clean_linker_0, # of connection points: 2
#     Edge 17, Type (0, 1), BuildingBlock: ZUJKAS_clean_linker_0, # of connection points: 2
#     Edge 18, Type (0, 1), BuildingBlock: ZUJKAS_clean_linker_0, # of connection points: 2
#     Edge 19, Type (0, 1), BuildingBlock: ZUJKAS_clean_linker_0, # of connection points: 2
#     Edge 20, Type (0, 1), BuildingBlock: ZUJKAS_clean_linker_0, # of connection points: 2
#     Edge 21, Type (0, 1), BuildingBlock: ZUJKAS_clean_linker_0, # of connection points: 2
#     Edge 22, Type (0, 1), BuildingBlock: ZUJKAS_clean_linker_0, # of connection points: 2
#     Edge 23, Type (0, 1), BuildingBlock: ZUJKAS_clean_linker_0, # of connection points: 2
#     Edge 24, Type (0, 1), BuildingBlock: ZUJKAS_clean_linker_0, # of connection points: 2
#     Edge 25, Type (0, 1), BuildingBlock: ZUJKAS_clean_linker_0, # of connection points: 2
#     Edge 26, Type (0, 1), BuildingBlock: ZUJKAS_clean_linker_0, # of connection points: 2
# Relax obj value: 0.084
# Max RMSD: 0.146
# Mean RMSD: 0.109
data_MOF--net-anh--node1-MIFKUJ_clean_sbu_0--node2-PAMTOO_clean_linker_0--edge1-ZUJKAS_clean_linker_0
_symmetry_space_group_name_H-M    P1
_symmetry_Int_Tables_number       1
_symmetry_cell_setting            triclinic
loop_
_symmetry_equiv_pos_as_xyz
'x, y, z'
_cell_length_a     40.609996
_cell_length_b     40.808294
_cell_length_c     61.109319
_cell_angle_alpha  88.774424
_cell_angle_beta   93.466885
_cell_angle_gamma 120.22812
loop_
_atom_site_label
_atom_site_type_symbol
_atom_site_fract_x
_atom_site_fract_y
_atom_site_fract_z
_atom_type_partial_charge
Zn0 Zn 0.07533 0.55153 0.16193 0.0
Zn1 Zn 0.96557 0.47461 0.16433 0.0
C2 C 0.13264 0.53263 0.16792 0.0
O3 O 0.13529 0.54989 0.1864 0.0
C4 C 0.90332 0.48433 0.14867 0.0
O5 O 0.89756 0.45623 0.13588 0.0
O6 O 0.11009 0.60768 0.16292 0.0
O7 O 0.03127 0.54011 0.14104 0.0
O8 O 0.99214 0.47943 0.13653 0.0
C9 C 0.1319 0.62449 0.14744 0.0
O10 O 0.13086 0.60462 0.13051 0.0
O11 O 0.10692 0.52836 0.15338 0.0
C12 C 0.91545 0.40152 0.18376 0.0
O13 O 0.92915 0.41965 0.20259 0.0
O14 O 0.92782 0.41915 0.16605 0.0
O15 O 0.99747 0.49157 0.19327 0.0
O16 O 0.05908 0.53545 0.19243 0.0
O17 O 0.93285 0.49927 0.16177 0.0
C18 C 0.01854 0.51043 0.12946 0.0
C19 C 0.03006 0.51304 0.20291 0.0
Zn20 Zn 0.63684 0.08169 0.4973 0.0
Zn21 Zn 0.60434 0.97444 0.49929 0.0
C22 C 0.71402 0.13391 0.50861 0.0
O23 O 0.6971 0.13418 0.52621 0.0
C24 C 0.53385 0.9123 0.48065 0.0
O25 O 0.55763 0.90901 0.46846 0.0
O26 O 0.62082 0.12083 0.49752 0.0
O27 O 0.60576 0.04791 0.47175 0.0
O28 O 0.6263 0.00729 0.47283 0.0
C29 C 0.63589 0.1489 0.48469 0.0
O30 O 0.66178 0.15184 0.47164 0.0
O31 O 0.69385 0.11116 0.49298 0.0
C32 C 0.61304 0.91345 0.51526 0.0
O33 O 0.58816 0.91169 0.52872 0.0
O34 O 0.62581 0.93962 0.50113 0.0
O35 O 0.61328 -0.00122 0.52922 0.0
O36 O 0.6289 0.05932 0.52727 0.0
O37 O 0.54707 0.93972 0.49432 0.0
C38 C 0.60788 0.02123 0.46295 0.0
C39 C 0.62136 0.0299 0.53832 0.0
Zn40 Zn 0.64902 0.54343 0.83436 0.0
Zn41 Zn 0.57347 0.58635 0.83167 0.0
C42 C 0.60635 0.46146 0.83636 0.0
O43 O 0.5889 0.4674 0.8519 0.0
C44 C 0.58327 0.65716 0.81973 0.0
O45 O 0.55716 0.63478 0.80487 0.0
O46 O 0.70528 0.57501 0.83058 0.0
O47 O 0.61802 0.56045 0.81767 0.0
O48 O 0.57901 0.57406 0.80035 0.0
C49 C 0.71866 0.56529 0.81533 0.0
O50 O 0.69489 0.53778 0.80182 0.0
O51 O 0.63197 0.48958 0.82645 0.0
C52 C 0.50711 0.57933 0.84925 0.0
O53 O 0.53311 0.60862 0.86092 0.0
O54 O 0.51767 0.56347 0.83592 0.0
O55 O 0.59786 0.56764 0.85584 0.0
O56 O 0.6366 0.54576 0.86548 0.0
O57 O 0.59673 0.64287 0.83374 0.0
C58 C 0.60294 0.56304 0.79961 0.0
C59 C 0.6131 0.55604 0.87064 0.0
H60 H 0.59671 0.05236 0.2336 0.0
H61 H 0.47716 0.97005 0.22394 0.0
H62 H 0.53809 0.03984 0.17049 0.0
H63 H 0.45469 0.01948 0.16651 0.0
C64 C 0.44671 -0.00092 0.18027 0.0
O65 O 0.47222 0.98616 0.18262 0.0
H66 H 0.44713 0.01413 0.19539 0.0
C67 C 0.57115 0.03786 0.22284 0.0
C68 C 0.57187 0.04936 0.20095 0.0
C69 C 0.53722 0.00934 0.23138 0.0
C70 C 0.50369 0.99211 0.2177 0.0
C71 C 0.50427 0.00325 0.19582 0.0
C72 C 0.53818 0.03165 0.18747 0.0
H73 H 0.6663 0.60883 0.57956 0.0
H74 H 0.65035 0.49851 0.56574 0.0
H75 H 0.6473 0.56808 0.513 0.0
H76 H 0.59266 0.48542 0.5031 0.0
C77 C 0.60284 0.47533 0.51759 0.0
O78 O 0.64012 0.50257 0.52334 0.0
H79 H 0.58385 0.47048 0.53119 0.0
C80 C 0.66219 0.58726 0.5679 0.0
C81 C 0.6578 0.59295 0.5454 0.0
C82 C 0.65963 0.55334 0.57553 0.0
C83 C 0.65297 0.52511 0.56026 0.0
C84 C 0.64872 0.53067 0.5378 0.0
C85 C 0.65163 0.56463 0.53038 0.0
H86 H 0.04033 0.56148 0.90373 0.0
H87 H 0.13671 0.54641 0.89666 0.0
H88 H 0.09292 0.58324 0.84186 0.0
H89 H 0.12428 0.53831 0.82509 0.0
C90 C 0.13431 0.53384 0.8416 0.0
O91 O 0.14302 0.56427 0.85502 0.0
H92 H 0.11097 0.50693 0.84815 0.0
C93 C 0.06216 0.56289 0.89373 0.0
C94 C 0.06337 0.57385 0.87171 0.0
C95 C 0.08861 0.5532 0.90293 0.0
C96 C 0.11636 0.55424 0.88988 0.0
C97 C 0.11733 0.56459 0.86783 0.0
C98 C 0.09139 0.5749 0.85889 0.0
H99 H 0.03369 0.46112 0.43513 0.0
H100 H 0.13872 0.5677 0.44339 0.0
H101 H 0.09791 0.49068 0.49732 0.0
H102 H 0.15398 0.57905 0.51352 0.0
C103 C 0.15662 0.58646 0.49587 0.0
O104 O 0.15328 0.5563 0.48406 0.0
H105 H 0.13323 0.59226 0.49075 0.0
C106 C 0.05806 0.48112 0.44543 0.0
C107 C 0.06229 0.47151 0.46721 0.0
C108 C 0.08519 0.51571 0.43662 0.0
C109 C 0.11716 0.54103 0.44992 0.0
C110 C 0.1215 0.5322 0.4718 0.0
C111 C 0.09396 0.4976 0.48051 0.0
H112 H 0.6129 0.99547 0.77272 0.0
H113 H 0.61996 0.10397 0.77748 0.0
H114 H 0.62294 0.04484 0.83595 0.0
H115 H 0.58534 0.09103 0.8441 0.0
C116 C 0.59018 0.10308 0.82732 0.0
O117 O 0.62302 0.10535 0.82038 0.0
H118 H 0.56483 0.08393 0.81645 0.0
C119 C 0.61503 0.01838 0.78252 0.0
C120 C 0.61747 0.01628 0.80543 0.0
C121 C 0.61617 0.04991 0.77217 0.0
C122 C 0.61975 0.07968 0.78512 0.0
C123 C 0.6219 0.07766 0.80807 0.0
C124 C 0.62146 0.0463 0.81822 0.0
H125 H 0.5969 0.52255 0.10262 0.0
H126 H 0.48508 0.51036 0.10141 0.0
H127 H 0.54305 0.5114 0.16293 0.0
H128 H 0.45495 0.46272 0.16463 0.0
C129 C 0.44953 0.47273 0.14848 0.0
O130 O 0.4809 0.50733 0.14397 0.0
H131 H 0.44453 0.45097 0.13598 0.0
C132 C 0.57255 0.51882 0.11111 0.0
C133 C 0.57371 0.51722 0.13403 0.0
C134 C 0.54068 0.51601 0.09906 0.0
C135 C 0.50991 0.51237 0.11036 0.0
C136 C 0.51064 0.51049 0.13334 0.0
C137 C 0.54249 0.51271 0.14519 0.0
H138 H 0.14516 0.50757 0.12947 0.0
H139 H 0.19474 0.49149 0.12349 0.0
H140 H 0.23307 0.51474 0.19169 0.0
H141 H 0.18394 0.53053 0.19781 0.0
H142 H 0.27482 0.54034 0.13113 0.0
H143 H 0.22303 0.41098 0.1815 0.0
H144 H 0.19283 0.42989 0.17236 0.0
H145 H 0.22577 0.45031 0.19582 0.0
C146 C 0.16386 0.50877 0.14322 0.0
C147 C 0.16056 0.52031 0.16412 0.0
C148 C 0.1922 0.49966 0.13978 0.0
C149 C 0.21728 0.50143 0.15722 0.0
C150 C 0.21361 0.51245 0.17809 0.0
H151 H 0.42099 0.48906 0.18354 0.0
H152 H 0.36397 0.49527 0.18401 0.0
C153 C 0.18559 0.52173 0.18151 0.0
C154 C 0.24885 0.49405 0.15363 0.0
H155 H 0.28824 0.44107 0.17214 0.0
C156 C 0.27753 0.51829 0.13981 0.0
C157 C 0.25238 0.46535 0.16506 0.0
C158 C 0.22169 0.4374 0.17936 0.0
C159 C 0.31048 0.51569 0.13788 0.0
C160 C 0.3145 0.48764 0.1498 0.0
C161 C 0.28527 0.46272 0.16312 0.0
C162 C 0.34928 0.48435 0.14924 0.0
C163 C 0.34143 0.54402 0.12384 0.0
C164 C 0.35996 0.4761 0.12957 0.0
C165 C 0.39253 0.47262 0.12931 0.0
C166 C 0.41462 0.47673 0.14877 0.0
C167 C 0.40414 0.48532 0.16839 0.0
C168 C 0.37162 0.48884 0.16865 0.0
H169 H 0.33807 0.56897 0.12006 0.0
H170 H 0.37011 0.5541 0.13205 0.0
H171 H 0.34007 0.53023 0.1081 0.0
H172 H 0.3429 0.47197 0.11446 0.0
H173 H 0.40029 0.46633 0.11395 0.0
H174 H 0.75596 0.15008 0.47218 0.0
H175 H 0.82054 0.2034 0.46753 0.0
H176 H 0.82771 0.23782 0.53469 0.0
H177 H 0.76378 0.18452 0.53958 0.0
H178 H 0.84103 0.27803 0.47163 0.0
H179 H 0.93116 0.24683 0.53014 0.0
H180 H 0.88303 0.2114 0.52133 0.0
H181 H 0.89134 0.24528 0.54239 0.0
C182 C 0.7716 0.16854 0.48608 0.0
C183 C 0.75464 0.16304 0.50624 0.0
C184 C 0.80848 0.19905 0.48339 0.0
C185 C 0.82919 0.22441 0.50083 0.0
C186 C 0.81273 0.21824 0.52114 0.0
H187 H 0.02478 0.45475 0.50544 0.0
H188 H 0.96993 0.39347 0.51529 0.0
C189 C 0.77595 0.18783 0.52384 0.0
C190 C 0.8663 0.25929 0.49727 0.0
H191 H 0.95989 0.31 0.51619 0.0
C192 C 0.86705 0.2848 0.48126 0.0
C193 C 0.90023 0.26831 0.50997 0.0
C194 C 0.90161 0.24136 0.52678 0.0
C195 C 0.90057 0.31923 0.4778 0.0
C196 C 0.93434 0.32835 0.49056 0.0
C197 C 0.93381 0.30296 0.50656 0.0
C198 C 0.97062 0.36364 0.48664 0.0
C199 C 0.89968 0.34595 0.46062 0.0
C200 C 0.98975 0.36662 0.46772 0.0
C201 C 0.02088 0.40129 0.46214 0.0
C202 C 0.03349 0.43376 0.47533 0.0
C203 C 0.01575 0.4302 0.49501 0.0
C204 C 0.98443 0.39531 0.50061 0.0
H205 H 0.87009 0.33757 0.4546 0.0
H206 H 0.91387 0.37534 0.4673 0.0
H207 H 0.9156 0.34605 0.44646 0.0
H208 H 0.97966 0.34241 0.45684 0.0
H209 H 0.03437 0.40301 0.44706 0.0
H210 H 0.55343 0.69349 0.79509 0.0
H211 H 0.56689 0.7585 0.79958 0.0
H212 H 0.65 0.77714 0.85234 0.0
H213 H 0.63665 0.71179 0.84811 0.0
H214 H 0.56536 0.78909 0.84857 0.0
H215 H 0.69594 0.86782 0.80122 0.0
H216 H 0.65978 0.82 0.7934 0.0
H217 H 0.68871 0.82824 0.81824 0.0
C218 C 0.57485 0.71142 0.80754 0.0
C219 C 0.59386 0.69742 0.82133 0.0
C220 C 0.58243 0.74851 0.81007 0.0
C221 C 0.60932 0.77232 0.82629 0.0
C222 C 0.62916 0.75898 0.83973 0.0
H223 H 0.66998 0.01152 0.83341 0.0
H224 H 0.67028 0.95321 0.84434 0.0
C225 C 0.62148 0.72173 0.83728 0.0
C226 C 0.61501 0.81054 0.82963 0.0
H227 H 0.66733 0.90194 0.81273 0.0
C228 C 0.58802 0.81398 0.84109 0.0
C229 C 0.64476 0.84274 0.81998 0.0
C230 C 0.67414 0.83991 0.80748 0.0
C231 C 0.58904 0.84876 0.84232 0.0
C232 C 0.61741 0.88055 0.8315 0.0
C233 C 0.64568 0.87752 0.82108 0.0
C234 C 0.61522 0.91542 0.82813 0.0
C235 C 0.55912 0.85091 0.85467 0.0
C236 C 0.58399 0.91329 0.81572 0.0
C237 C 0.58392 0.94627 0.80942 0.0
C238 C 0.61505 0.98197 0.81546 0.0
C239 C 0.64553 0.9842 0.82879 0.0
C240 C 0.64578 0.95105 0.83493 0.0
H241 H 0.54809 0.82912 0.86767 0.0
H242 H 0.57061 0.87936 0.86228 0.0
H243 H 0.53472 0.8455 0.8431 0.0
H244 H 0.56049 0.88616 0.80993 0.0
H245 H 0.5602 0.94397 0.79907 0.0
H246 H 0.83882 0.4592 0.1219 0.0
H247 H 0.78713 0.47269 0.12472 0.0
H248 H 0.84778 0.54681 0.18007 0.0
H249 H 0.89985 0.53323 0.17748 0.0
H250 H 0.76938 0.49404 0.18653 0.0
H251 H 0.78729 0.57096 0.10835 0.0
H252 H 0.78452 0.526 0.10515 0.0
H253 H 0.82404 0.5631 0.12102 0.0
C254 C 0.84148 0.47871 0.13455 0.0
C255 C 0.87362 0.49526 0.1494 0.0
C256 C 0.81188 0.48646 0.1361 0.0
C257 C 0.81376 0.51104 0.15246 0.0
C258 C 0.84585 0.52785 0.16727 0.0
H259 H 0.64292 0.58055 0.14017 0.0
H260 H 0.7037 0.58317 0.14972 0.0
C261 C 0.87564 0.52021 0.16569 0.0
C262 C 0.78154 0.51813 0.15428 0.0
H263 H 0.72768 0.54788 0.12469 0.0
C264 C 0.76049 0.50629 0.17316 0.0
C265 C 0.7703 0.53459 0.13698 0.0
C266 C 0.79293 0.54975 0.11681 0.0
C267 C 0.72745 0.50891 0.17473 0.0
C268 C 0.71494 0.5233 0.15684 0.0
C269 C 0.73703 0.53664 0.1384 0.0
C270 C 0.67813 0.52307 0.15609 0.0
C271 C 0.70621 0.49611 0.19547 0.0
C272 C 0.64338 0.48871 0.15731 0.0
C273 C 0.60862 0.48736 0.15216 0.0
C274 C 0.60817 0.52028 0.14557 0.0
C275 C 0.64266 0.55497 0.14559 0.0
C276 C 0.67733 0.55639 0.15089 0.0
H277 H 0.7254 0.49794 0.20973 0.0
H278 H 0.69299 0.51335 0.19909 0.0
H279 H 0.68322 0.46604 0.1935 0.0
H280 H 0.64318 0.46247 0.16073 0.0
H281 H 0.58238 0.4602 0.15173 0.0
H282 H 0.47789 0.90658 0.50621 0.0
H283 H 0.41252 0.8533 0.5079 0.0
H284 H 0.43248 0.79546 0.45665 0.0
H285 H 0.49759 0.84871 0.45461 0.0
H286 H 0.36162 0.7904 0.45127 0.0
H287 H 0.38643 0.75147 0.53576 0.0
H288 H 0.39691 0.79963 0.53295 0.0
H289 H 0.4249 0.78421 0.51939 0.0
C290 C 0.46829 0.88268 0.49515 0.0
C291 C 0.49313 0.88186 0.48037 0.0
C292 C 0.43097 0.85211 0.49626 0.0
C293 C 0.41783 0.82005 0.4827 0.0
C294 C 0.44207 0.81979 0.46737 0.0
H295 H 0.22726 0.59346 0.50203 0.0
H296 H 0.28998 0.65025 0.49808 0.0
C297 C 0.47934 0.85031 0.46623 0.0
C298 C 0.37914 0.78641 0.48469 0.0
H299 H 0.32328 0.7173 0.52012 0.0
C300 C 0.35318 0.77443 0.46632 0.0
C301 C 0.36837 0.76524 0.50425 0.0
C302 C 0.39567 0.77548 0.52417 0.0
C303 C 0.31669 0.74202 0.46701 0.0
C304 C 0.30558 0.72137 0.48673 0.0
C305 C 0.33166 0.73326 0.50506 0.0
C306 C 0.26739 0.68687 0.48863 0.0
C307 C 0.29079 0.72971 0.44642 0.0
C308 C 0.23381 0.68857 0.48485 0.0
C309 C 0.19801 0.65608 0.4869 0.0
C310 C 0.19511 0.62131 0.49291 0.0
C311 C 0.22872 0.61979 0.49706 0.0
C312 C 0.2645 0.65222 0.4949 0.0
H313 H 0.30704 0.74197 0.43153 0.0
H314 H 0.27459 0.69833 0.44466 0.0
H315 H 0.27 0.73966 0.44723 0.0
H316 H 0.23526 0.71514 0.48057 0.0
H317 H 0.17259 0.65821 0.48396 0.0
H318 H 0.633 0.43891 0.80326 0.0
H319 H 0.62704 0.37683 0.79831 0.0
H320 H 0.55972 0.33555 0.85509 0.0
H321 H 0.56483 0.39724 0.85989 0.0
H322 H 0.65386 0.34349 0.82764 0.0
H323 H 0.49807 0.24993 0.81137 0.0
H324 H 0.52124 0.30093 0.80959 0.0
H325 H 0.50968 0.27815 0.8358 0.0
C326 C 0.6164 0.41643 0.81449 0.0
C327 C 0.59942 0.42297 0.832 0.0
C328 C 0.61305 0.381 0.81164 0.0
C329 C 0.59262 0.35148 0.82619 0.0
C330 C 0.57489 0.35767 0.84337 0.0
H331 H 0.56704 0.13391 0.85797 0.0
H332 H 0.56864 0.1948 0.85665 0.0
C333 C 0.57801 0.39303 0.84616 0.0
C334 C 0.59245 0.31525 0.82452 0.0
H335 H 0.53374 0.2192 0.82147 0.0
C336 C 0.62763 0.31632 0.82602 0.0
C337 C 0.55818 0.2799 0.82239 0.0
C338 C 0.51967 0.27708 0.81947 0.0
C339 C 0.6294 0.28286 0.82621 0.0
C340 C 0.59511 0.24753 0.8247 0.0
C341 C 0.55996 0.24643 0.82278 0.0
C342 C 0.59508 0.21129 0.82556 0.0
C343 C 0.66784 0.28545 0.82868 0.0
C344 C 0.6092 0.20046 0.80844 0.0
C345 C 0.60829 0.16575 0.80916 0.0
C346 C 0.59368 0.1416 0.82716 0.0
C347 C 0.57923 0.15241 0.84416 0.0
C348 C 0.57995 0.187 0.84338 0.0
H349 H 0.69102 0.31437 0.8337 0.0
H350 H 0.66744 0.26486 0.841 0.0
H351 H 0.6746 0.27829 0.81277 0.0
H352 H 0.62035 0.21857 0.79437 0.0
H353 H 0.61869 0.15765 0.79557 0.0
H354 H 0.58969 0.85341 0.54287 0.0
H355 H 0.60288 0.80141 0.54146 0.0
H356 H 0.67184 0.85268 0.48614 0.0
H357 H 0.65901 0.90521 0.48747 0.0
H358 H 0.58521 0.75259 0.50305 0.0
H359 H 0.73958 0.82877 0.53055 0.0
H360 H 0.70873 0.84723 0.53609 0.0
H361 H 0.72369 0.84903 0.50887 0.0
C362 C 0.60795 0.8539 0.53051 0.0
C363 C 0.6233 0.88345 0.51529 0.0
C364 C 0.61538 0.82411 0.52971 0.0
C365 C 0.63841 0.82336 0.51376 0.0
C366 C 0.65432 0.85303 0.49872 0.0
H367 H 0.69397 0.63979 0.51126 0.0
H368 H 0.69046 0.69586 0.49899 0.0
C369 C 0.64689 0.88293 0.4995 0.0
C370 C 0.64435 0.79057 0.5127 0.0
H371 H 0.70934 0.76264 0.5259 0.0
C372 C 0.61247 0.75482 0.50773 0.0
C373 C 0.68008 0.79375 0.51847 0.0
C374 C 0.71509 0.83166 0.52391 0.0
C375 C 0.61492 0.72183 0.50952 0.0
C376 C 0.64998 0.72473 0.51683 0.0
C377 C 0.68248 0.76064 0.5204 0.0
C378 C 0.65207 0.69082 0.52359 0.0
C379 C 0.57969 0.68399 0.50425 0.0
C380 C 0.63207 0.66998 0.54158 0.0
C381 C 0.63418 0.63838 0.54864 0.0
C382 C 0.65642 0.627 0.53786 0.0
C383 C 0.67651 0.64791 0.51979 0.0
C384 C 0.6746 0.67986 0.51281 0.0
H385 H 0.55909 0.68709 0.49284 0.0
H386 H 0.58714 0.66413 0.49682 0.0
H387 H 0.56531 0.67127 0.51961 0.0
H388 H 0.61492 0.67833 0.55027 0.0
H389 H 0.618 0.62254 0.56241 0.0
H390 H 0.77511 0.61431 0.84461 0.0
H391 H 0.84045 0.6262 0.84885 0.0
H392 H 0.82096 0.55923 0.79076 0.0
H393 H 0.75555 0.54698 0.7864 0.0
H394 H 0.84203 0.53361 0.82944 0.0
H395 H 0.94082 0.68732 0.81697 0.0
H396 H 0.90286 0.6763 0.83468 0.0
H397 H 0.89174 0.66301 0.8062 0.0
C398 C 0.78503 0.60298 0.83238 0.0
C399 C 0.76001 0.57927 0.81534 0.0
C400 C 0.82246 0.61 0.83477 0.0
C401 C 0.83547 0.59369 0.82006 0.0
C402 C 0.81139 0.57215 0.80221 0.0
H403 H 0.02482 0.55086 0.83173 0.0
H404 H 0.97228 0.55939 0.81711 0.0
C405 C 0.77401 0.56515 0.79979 0.0
C406 C 0.8717 0.59415 0.82516 0.0
H407 H 0.96792 0.65227 0.83384 0.0
C408 C 0.86964 0.55947 0.83012 0.0
C409 C 0.90745 0.62803 0.82628 0.0
C410 C 0.91108 0.6658 0.82059 0.0
C411 C 0.90236 0.5578 0.83668 0.0
C412 C 0.93816 0.59167 0.83787 0.0
C413 C 0.94036 0.62639 0.83276 0.0
C414 C 0.97325 0.5913 0.8452 0.0
C415 C 0.89819 0.51997 0.84304 0.0
C416 C 0.992 0.60776 0.86541 0.0
C417 C 0.02222 0.60322 0.87374 0.0
C418 C 0.03416 0.58222 0.86192 0.0
C419 C 0.01645 0.56738 0.84116 0.0
C420 C 0.98629 0.57198 0.83285 0.0
H421 H 0.86808 0.49829 0.84575 0.0
H422 H 0.90804 0.50954 0.82969 0.0
H423 H 0.91596 0.52275 0.8582 0.0
H424 H 0.98233 0.62288 0.8751 0.0
H425 H 0.03577 0.61551 0.88961 0.0
H426 H 0.18106 0.67 0.11689 0.0
H427 H 0.23044 0.73699 0.1212 0.0
H428 H 0.19542 0.73839 0.1862 0.0
H429 H 0.14601 0.67167 0.18212 0.0
H430 H 0.22124 0.80472 0.1361 0.0
H431 H 0.3136 0.76842 0.19008 0.0
H432 H 0.27705 0.73473 0.17095 0.0
H433 H 0.26401 0.74628 0.19596 0.0
C434 C 0.18365 0.68465 0.13203 0.0
C435 C 0.15983 0.66549 0.14923 0.0
C436 C 0.21173 0.72287 0.13441 0.0
C437 C 0.21648 0.74228 0.15404 0.0
C438 C 0.19211 0.72364 0.17097 0.0
H439 H 0.3946 0.95541 0.2098 0.0
H440 H 0.33535 0.89483 0.20287 0.0
C441 C 0.16394 0.68556 0.16859 0.0
C442 C 0.24829 0.78145 0.15742 0.0
H443 H 0.33457 0.83324 0.18521 0.0
C444 C 0.24611 0.81114 0.14678 0.0
C445 C 0.28045 0.78937 0.17139 0.0
C446 C 0.28431 0.75812 0.1827 0.0
C447 C 0.27532 0.84897 0.15009 0.0
C448 C 0.30758 0.8569 0.16408 0.0
C449 C 0.30966 0.82705 0.17462 0.0
C450 C 0.34016 0.89579 0.16774 0.0
C451 C 0.2711 0.88011 0.13896 0.0
C452 C 0.36213 0.91647 0.15025 0.0
C453 C 0.39571 0.95112 0.15419 0.0
C454 C 0.4077 0.96553 0.17565 0.0
C455 C 0.38533 0.94519 0.19308 0.0
C456 C 0.35172 0.91062 0.18914 0.0
H457 H 0.24084 0.87046 0.13383 0.0
H458 H 0.28218 0.90527 0.14993 0.0
H459 H 0.28775 0.88897 0.12406 0.0
H460 H 0.35428 0.90503 0.13371 0.0
H461 H 0.41313 0.96595 0.14061 0.0
H462 H 0.57022 0.14256 0.49832 0.0
H463 H 0.55395 0.19259 0.49991 0.0
H464 H 0.66266 0.2725 0.47456 0.0
H465 H 0.67812 0.22223 0.47192 0.0
H466 H 0.58573 0.25266 0.5238 0.0
H467 H 0.59621 0.29963 0.43798 0.0
H468 H 0.59591 0.25658 0.44574 0.0
H469 H 0.63974 0.30169 0.44762 0.0
C470 C 0.59037 0.17072 0.49281 0.0
C471 C 0.62538 0.17857 0.48495 0.0
C472 C 0.58104 0.19925 0.49368 0.0
C473 C 0.60675 0.23621 0.48697 0.0
C474 C 0.64175 0.24399 0.47911 0.0
H475 H 0.64126 0.44353 0.53881 0.0
H476 H 0.63717 0.38321 0.53074 0.0
C477 C 0.65075 0.21531 0.47782 0.0
C478 C 0.59862 0.26737 0.49004 0.0
H479 H 0.60398 0.3456 0.46537 0.0
C480 C 0.58908 0.27258 0.51088 0.0
C481 C 0.60206 0.29297 0.47311 0.0
C482 C 0.6086 0.28713 0.44982 0.0
C483 C 0.58498 0.30374 0.51558 0.0
C484 C 0.59204 0.33124 0.49924 0.0
C485 C 0.59937 0.32493 0.47805 0.0
C486 C 0.59405 0.36763 0.50413 0.0
C487 C 0.57325 0.30685 0.53807 0.0
C488 C 0.57209 0.37953 0.49141 0.0
C489 C 0.57515 0.41452 0.49566 0.0
C490 C 0.60052 0.43829 0.51253 0.0
C491 C 0.62202 0.42607 0.52544 0.0
C492 C 0.61928 0.39136 0.52104 0.0
H493 H 0.55587 0.2784 0.54534 0.0
H494 H 0.59918 0.32306 0.54908 0.0
H495 H 0.55652 0.3216 0.53754 0.0
H496 H 0.55248 0.36168 0.47826 0.0
H497 H 0.55774 0.42304 0.48577 0.0
H498 H 0.44551 0.51691 0.83001 0.0
H499 H 0.37888 0.50164 0.82807 0.0
H500 H 0.41062 0.60177 0.86649 0.0
H501 H 0.47694 0.61667 0.86903 0.0
H502 H 0.34579 0.54099 0.87951 0.0
H503 H 0.33781 0.55627 0.78909 0.0
H504 H 0.35078 0.52188 0.79807 0.0
H505 H 0.38227 0.57121 0.80472 0.0
C506 C 0.43821 0.5355 0.83819 0.0
C507 C 0.46647 0.56811 0.84958 0.0
C508 C 0.40022 0.52689 0.83691 0.0
C509 C 0.39003 0.55102 0.84674 0.0
C510 C 0.41798 0.58289 0.8587 0.0
H511 H 0.19923 0.58426 0.82233 0.0
H512 H 0.25983 0.58464 0.8228 0.0
C513 C 0.45585 0.59133 0.86016 0.0
C514 C 0.35037 0.54353 0.84453 0.0
H515 H 0.28105 0.53647 0.8072 0.0
C516 C 0.33151 0.53981 0.86371 0.0
C517 C 0.33215 0.54255 0.82387 0.0
C518 C 0.35185 0.54853 0.80276 0.0
C519 C 0.29505 0.53566 0.86285 0.0
C520 C 0.27654 0.53403 0.84218 0.0
C521 C 0.2952 0.53728 0.82298 0.0
C522 C 0.23896 0.5317 0.84025 0.0
C523 C 0.27745 0.53467 0.8841 0.0
C524 C 0.207 0.50131 0.84937 0.0
C525 C 0.17263 0.50135 0.84934 0.0
C526 C 0.16963 0.53139 0.83978 0.0
C527 C 0.20106 0.56083 0.82975 0.0
C528 C 0.23551 0.561 0.82999 0.0
H529 H 0.29911 0.54579 0.8981 0.0
H530 H 0.26289 0.55156 0.88295 0.0
H531 H 0.25596 0.50491 0.88775 0.0
H532 H 0.20889 0.47803 0.85693 0.0
H533 H 0.14868 0.47833 0.85715 0.0
H534 H 0.88392 0.35365 0.21803 0.0
H535 H 0.82699 0.29048 0.21658 0.0
H536 H 0.81627 0.29785 0.14624 0.0
H537 H 0.8735 0.36054 0.14745 0.0
H538 H 0.75596 0.27566 0.20129 0.0
H539 H 0.80153 0.19204 0.15399 0.0
H540 H 0.83509 0.23768 0.16617 0.0
H541 H 0.80863 0.23476 0.14091 0.0
C542 C 0.8698 0.34159 0.20223 0.0
C543 C 0.8832 0.36209 0.18288 0.0
C544 C 0.8373 0.30553 0.20143 0.0
C545 C 0.8177 0.28939 0.18128 0.0
C546 C 0.83144 0.30944 0.1619 0.0
H547 H 0.57916 0.10876 0.17592 0.0
H548 H 0.63845 0.1662 0.16728 0.0
C549 C 0.86406 0.34538 0.16266 0.0
C550 C 0.78122 0.25297 0.18083 0.0
H551 H 0.73583 0.16196 0.16122 0.0
C552 C 0.75154 0.25079 0.19254 0.0
C553 C 0.77565 0.22067 0.16934 0.0
C554 C 0.80699 0.22115 0.15703 0.0
C555 C 0.71649 0.21701 0.19334 0.0
C556 C 0.71076 0.18477 0.18173 0.0
C557 C 0.74029 0.18695 0.16986 0.0
C558 C 0.67531 0.14785 0.18333 0.0
C559 C 0.68633 0.21581 0.20719 0.0
C560 C 0.67664 0.11787 0.19413 0.0
C561 C 0.64292 0.08491 0.19886 0.0
C562 C 0.60733 0.08147 0.19286 0.0
C563 C 0.60614 0.11055 0.18072 0.0
C564 C 0.63993 0.14349 0.17593 0.0
H565 H 0.69818 0.24051 0.2186 0.0
H566 H 0.66365 0.21624 0.19633 0.0
H567 H 0.67296 0.18941 0.21694 0.0
H568 H 0.70375 0.12068 0.19982 0.0
H569 H 0.64468 0.06263 0.20786 0.0
H570 H 0.06282 0.57394 0.10608 0.0
H571 H 0.08063 0.5772 0.06824 0.0
H572 H 0.02235 0.45515 0.06458 0.0
H573 H 0.00447 0.45147 0.10255 0.0
H574 H 0.10455 0.50582 0.04475 0.0
H575 H 0.98725 0.53337 0.01769 0.0
H576 H 0.01767 0.55949 0.04117 0.0
H577 H 0.98662 0.5092 0.04291 0.0
C578 C 0.05439 0.54777 0.09741 0.0
C579 C 0.03213 0.51243 0.10729 0.0
C580 C 0.06457 0.54973 0.0758 0.0
C581 C 0.05276 0.51642 0.06374 0.0
C582 C 0.03182 0.48112 0.07375 0.0
H583 H 0.0273 0.49761 0.92268 0.0
H584 H 0.02089 0.48461 0.96194 0.0
C585 C 0.02148 0.47911 0.09536 0.0
C586 C 0.05921 0.51851 0.04012 0.0
H587 H 0.02748 0.53595 0.99084 0.0
C588 C 0.08774 0.51228 0.03287 0.0
C589 C 0.03687 0.52656 0.02481 0.0
C590 C 0.00518 0.53237 0.03187 0.0
C591 C 0.09482 0.51438 0.01048 0.0
C592 C 0.07299 0.52332 0.99517 0.0
C593 C 0.0442 0.52909 0.00256 0.0
C594 C 0.07918 0.52713 0.97136 0.0
C595 C 0.12515 0.50651 0.00343 0.0
C596 C 0.11437 0.55469 0.96356 0.0
C597 C 0.11816 0.5618 0.94108 0.0
C598 C 0.08662 0.54193 0.92617 0.0
C599 C 0.05193 0.51342 0.93392 0.0
C600 C 0.04829 0.50599 0.95629 0.0
H601 H 0.13126 0.48969 0.01584 0.0
H602 H 0.11656 0.49101 0.9875 0.0
H603 H 0.15198 0.53383 0.00146 0.0
H604 H 0.13834 0.57196 0.97489 0.0
H605 H 0.14508 0.58417 0.93545 0.0
H606 H 0.63421 0.99288 0.43256 0.0
H607 H 0.61642 0.98387 0.39318 0.0
H608 H 0.53262 0.01719 0.40184 0.0
H609 H 0.55147 0.02789 0.44092 0.0
H610 H 0.55218 0.94036 0.36861 0.0
H611 H 0.59474 0.09134 0.35656 0.0
H612 H 0.60551 0.07436 0.38191 0.0
H613 H 0.55889 0.0687 0.37612 0.0
C614 C 0.6119 -0.00187 0.42604 0.0
C615 C 0.5947 0.01177 0.43969 0.0
C616 C 0.60174 0.99295 0.40356 0.0
C617 C 0.57394 0.00089 0.39446 0.0
C618 C 0.55509 0.01218 0.40835 0.0
H619 H 0.48676 0.00275 0.26115 0.0
H620 H 0.49188 0.99537 0.30095 0.0
C621 C 0.56572 0.01807 0.43069 0.0
C622 C 0.56541 -0.00154 0.3704 0.0
H623 H 0.56217 0.04983 0.3263 0.0
C624 C 0.55443 0.96431 0.35935 0.0
C625 C 0.56867 0.02987 0.35828 0.0
C626 C 0.58298 0.06823 0.36878 0.0
C627 C 0.54614 0.9606 0.33658 0.0
C628 C 0.54882 0.99179 0.32464 0.0
C629 C 0.55965 0.02583 0.33563 0.0
C630 C 0.54258 0.99069 0.30052 0.0
C631 C 0.5344 0.92341 0.32541 0.0
C632 C 0.56915 0.99003 0.2872 0.0
C633 C 0.56641 0.99441 0.26456 0.0
C634 C 0.537 -0.00052 0.25487 0.0
C635 C 0.50946 -0.0015 0.26816 0.0
C636 C 0.51243 0.99444 0.29085 0.0
H637 H 0.52619 0.89998 0.33733 0.0
H638 H 0.51009 0.91574 0.31326 0.0
H639 H 0.55868 0.92626 0.31645 0.0
H640 H 0.59292 0.9877 0.29441 0.0
H641 H 0.5879 0.9949 0.25466 0.0
H642 H 0.55123 0.51784 0.76788 0.0
H643 H 0.56416 0.50555 0.73122 0.0
H644 H 0.68525 0.57364 0.74726 0.0
H645 H 0.67212 0.58503 0.78411 0.0
H646 H 0.59807 0.56031 0.70262 0.0
H647 H 0.68173 0.48729 0.71435 0.0
H648 H 0.65513 0.49104 0.73584 0.0
H649 H 0.70129 0.53033 0.73012 0.0
C650 C 0.58056 0.52932 0.76367 0.0
C651 C 0.61077 0.55186 0.77875 0.0
C652 C 0.58795 0.52228 0.7428 0.0
C653 C 0.62569 0.53823 0.73654 0.0
C654 C 0.65595 0.56003 0.75187 0.0
H655 H 0.70883 0.60241 0.6075 0.0
H656 H 0.70305 0.59524 0.64723 0.0
C657 C 0.64849 0.56659 0.7729 0.0
C658 C 0.63296 0.53632 0.71323 0.0
H659 H 0.68179 0.51341 0.67874 0.0
C660 C 0.61603 0.54962 0.69745 0.0
C661 C 0.65664 0.52262 0.70647 0.0
C662 C 0.67446 0.50668 0.72256 0.0
C663 C 0.62244 0.55006 0.67517 0.0
C664 C 0.64657 0.53707 0.66847 0.0
C665 C 0.66338 0.52344 0.68408 0.0
C666 C 0.65457 0.53827 0.64515 0.0
C667 C 0.60374 0.56483 0.65884 0.0
C668 C 0.62974 0.50817 0.63101 0.0
C669 C 0.63277 0.51224 0.60832 0.0
C670 C 0.66059 0.54659 0.59948 0.0
C671 C 0.68683 0.57581 0.61383 0.0
C672 C 0.6838 0.57167 0.6365 0.0
H673 H 0.58521 0.57338 0.66672 0.0
H674 H 0.62599 0.58973 0.65028 0.0
H675 H 0.58617 0.54268 0.64625 0.0
H676 H 0.60676 0.48235 0.63748 0.0
H677 H 0.61191 0.48937 0.59771 0.0
H678 H 0.65699 0.09367 0.56398 0.0
H679 H 0.65703 0.09818 0.60373 0.0
H680 H 0.58573 0.97655 0.60703 0.0
H681 H 0.58683 0.97168 0.56727 0.0
H682 H 0.59971 0.07993 0.62887 0.0
H683 H 0.66653 0.99427 0.65363 0.0
H684 H 0.66573 0.00962 0.6258 0.0
H685 H 0.62453 0.96853 0.63586 0.0
C686 C 0.64156 0.06781 0.57317 0.0
C687 C 0.62202 0.03227 0.56248 0.0
C688 C 0.6416 0.07046 0.5959 0.0
C689 C 0.62187 0.03769 0.60844 0.0
C690 C 0.60206 0.00215 0.5978 0.0
H691 H 0.56793 0.99278 0.74383 0.0
H692 H 0.56903 0.99206 0.70391 0.0
C693 C 0.6025 -0.00059 0.57505 0.0
C694 C 0.62093 0.04104 0.6325 0.0
H695 H 0.63802 0.00954 0.68171 0.0
C696 C 0.60838 0.06476 0.64042 0.0
C697 C 0.63241 0.02137 0.64758 0.0
C698 C 0.64843 0.99734 0.64031 0.0
C699 C 0.60621 0.06867 0.66297 0.0
C700 C 0.61688 0.04836 0.67793 0.0
C701 C 0.62967 0.02489 0.67009 0.0
C702 C 0.61436 0.05038 0.70184 0.0
C703 C 0.59182 0.09383 0.67066 0.0
C704 C 0.63918 0.08367 0.7138 0.0
C705 C 0.63882 0.08413 0.73667 0.0
C706 C 0.61375 0.05121 0.74787 0.0
C707 C 0.58801 0.0184 0.73569 0.0
C708 C 0.58847 0.01795 0.71291 0.0
H709 H 0.57856 0.10236 0.65696 0.0
H710 H 0.57056 0.07921 0.68324 0.0
H711 H 0.61605 0.11991 0.67833 0.0
H712 H 0.65966 0.10887 0.7055 0.0
H713 H 0.65918 0.1097 0.74563 0.0
H714 H 0.63136 0.52226 0.90444 0.0
H715 H 0.61349 0.51605 0.94231 0.0
H716 H 0.55424 0.57745 0.92739 0.0
H717 H 0.5713 0.58303 0.88916 0.0
H718 H 0.63179 0.57127 0.97216 0.0
H719 H 0.47409 0.48541 0.95841 0.0
H720 H 0.50616 0.49253 0.93726 0.0
H721 H 0.49607 0.52925 0.94371 0.0
C722 C 0.61446 0.53443 0.90914 0.0
C723 C 0.60272 0.55314 0.89373 0.0
C724 C 0.60421 0.53078 0.93082 0.0
C725 C 0.58206 0.54579 0.93764 0.0
C726 C 0.57057 0.56485 0.92239 0.0
H727 H 0.51918 0.5565 0.07122 0.0
H728 H 0.52651 0.56405 0.03148 0.0
C729 C 0.5806 0.56828 0.90059 0.0
C730 C 0.57247 0.5425 0.96095 0.0
H731 H 0.4983 0.50555 0.9949 0.0
C732 C 0.60259 0.55696 0.9771 0.0
C733 C 0.53432 0.52392 0.96738 0.0
C734 C 0.50075 0.50657 0.95082 0.0
C735 C 0.59568 0.55298 0.99946 0.0
C736 C 0.55763 0.53384 0.00588 0.0
C737 C 0.52742 0.52022 0.98984 0.0
C738 C 0.54906 0.52628 0.02925 0.0
C739 C 0.62919 0.5691 0.01611 0.0
C740 C 0.55809 0.50158 0.04086 0.0
C741 C 0.55382 0.49713 0.06338 0.0
C742 C 0.54042 0.5173 0.07476 0.0
C743 C 0.52947 0.54053 0.06288 0.0
C744 C 0.53376 0.54497 0.04025 0.0
H745 H 0.65608 0.59026 0.00873 0.0
H746 H 0.62397 0.58274 0.02997 0.0
H747 H 0.63318 0.54576 0.0228 0.0
H748 H 0.56936 0.48645 0.03255 0.0
H749 H 0.56176 0.47843 0.07201 0.0
H750 H 0.09629 0.54191 0.22851 0.0
H751 H 0.10387 0.54453 0.26845 0.0
H752 H 0.98167 0.48886 0.27225 0.0
H753 H 0.97371 0.4852 0.2322 0.0
H754 H 0.08378 0.58009 0.29715 0.0
H755 H 0.00782 0.4254 0.31319 0.0
H756 H 0.02126 0.44441 0.28617 0.0
H757 H 0.97951 0.44072 0.29729 0.0
C758 C 0.07095 0.52993 0.23781 0.0
C759 C 0.03435 0.51314 0.22715 0.0
C760 C 0.07537 0.53153 0.26066 0.0
C761 C 0.04335 0.5165 0.27335 0.0
C762 C 0.00675 0.49985 0.26279 0.0
H763 H 0.02011 0.50444 0.41404 0.0
H764 H 0.01015 0.50853 0.37443 0.0
C765 C 0.00225 0.49788 0.23989 0.0
C766 C 0.04858 0.51919 0.2976 0.0
H767 H 0.02648 0.46621 0.34412 0.0
C768 C 0.07131 0.55518 0.30742 0.0
C769 C 0.03228 0.48665 0.31097 0.0
C770 C 0.00915 0.44708 0.3014 0.0
C771 C 0.07805 0.55952 0.33027 0.0
C772 C 0.06179 0.52701 0.34356 0.0
C773 C 0.03874 0.49109 0.33381 0.0
C774 C 0.06904 0.52924 0.36765 0.0
C775 C 0.10218 0.59879 0.34006 0.0
C776 C 0.10563 0.54018 0.37693 0.0
C777 C 0.11138 0.53762 0.39956 0.0
C778 C 0.08054 0.52386 0.4132 0.0
C779 C 0.0443 0.5146 0.4039 0.0
C780 C 0.03858 0.51706 0.38132 0.0
H781 H 0.10538 0.6211 0.3282 0.0
H782 H 0.08959 0.60188 0.35496 0.0
H783 H 0.13105 0.60356 0.34492 0.0
H784 H 0.12939 0.54912 0.36658 0.0
H785 H 0.13952 0.54456 0.40619 0.0
loop_
_geom_bond_atom_site_label_1
_geom_bond_atom_site_label_2
_geom_bond_distance
_geom_bond_site_symmetry_2
_ccdc_geom_bond_type
Zn0 O6 1.969 . S
Zn0 O7 1.965 . S
Zn0 O11 2.024 . S
Zn0 O16 1.969 . S
Zn1 O8 1.969 . S
Zn1 O14 1.969 . S
Zn1 O15 1.965 . S
Zn1 O17 2.024 . S
C2 O3 1.229 . S
C2 O11 1.058 . S
O3 C2 1.229 . S
C4 O5 1.229 . S
C4 O17 1.058 . S
O5 C4 1.229 . S
O6 Zn0 1.969 . S
O6 C9 1.267 . S
O7 Zn0 1.965 . S
O7 C18 1.260 . S
O8 Zn1 1.969 . S
O8 C18 1.258 1_655 S
C9 O6 1.267 . S
C9 O10 1.228 . S
O10 C9 1.228 . S
O11 Zn0 2.024 . S
O11 C2 1.058 . S
C12 O13 1.228 . S
C12 O14 1.267 . S
O13 C12 1.228 . S
O14 Zn1 1.969 . S
O14 C12 1.267 . S
O15 Zn1 1.965 . S
O15 C19 1.260 1_655 S
O16 Zn0 1.969 . S
O16 C19 1.258 . S
O17 Zn1 2.024 . S
O17 C4 1.058 . S
C18 O7 1.260 . S
C18 O8 1.258 1_455 S
C19 O15 1.260 1_455 S
C19 O16 1.258 . S
Zn20 O26 1.969 . S
Zn20 O27 1.965 . S
Zn20 O31 2.024 . S
Zn20 O36 1.969 . S
Zn21 O28 1.969 . S
Zn21 O34 1.969 . S
Zn21 O35 1.965 1_565 S
Zn21 O37 2.024 . S
C22 O23 1.229 . S
C22 O31 1.058 . S
O23 C22 1.229 . S
C24 O25 1.229 . S
C24 O37 1.058 . S
O25 C24 1.229 . S
O26 Zn20 1.969 . S
O26 C29 1.267 . S
O27 Zn20 1.965 . S
O27 C38 1.260 . S
O28 Zn21 1.969 . S
O28 C38 1.258 1_565 S
C29 O26 1.267 . S
C29 O30 1.228 . S
O30 C29 1.228 . S
O31 Zn20 2.024 . S
O31 C22 1.058 . S
C32 O33 1.228 . S
C32 O34 1.267 . S
O33 C32 1.228 . S
O34 Zn21 1.969 . S
O34 C32 1.267 . S
O35 Zn21 1.965 1_545 S
O35 C39 1.260 . S
O36 Zn20 1.969 . S
O36 C39 1.258 . S
O37 Zn21 2.024 . S
O37 C24 1.058 . S
C38 O27 1.260 . S
C38 O28 1.258 1_545 S
C39 O35 1.260 . S
C39 O36 1.258 . S
Zn40 O46 1.969 . S
Zn40 O47 1.965 . S
Zn40 O51 2.024 . S
Zn40 O56 1.969 . S
Zn41 O48 1.969 . S
Zn41 O54 1.969 . S
Zn41 O55 1.965 . S
Zn41 O57 2.024 . S
C42 O43 1.229 . S
C42 O51 1.058 . S
O43 C42 1.229 . S
C44 O45 1.229 . S
C44 O57 1.058 . S
O45 C44 1.229 . S
O46 Zn40 1.969 . S
O46 C49 1.267 . S
O47 Zn40 1.965 . S
O47 C58 1.260 . S
O48 Zn41 1.969 . S
O48 C58 1.258 . S
C49 O46 1.267 . S
C49 O50 1.228 . S
O50 C49 1.228 . S
O51 Zn40 2.024 . S
O51 C42 1.058 . S
C52 O53 1.228 . S
C52 O54 1.267 . S
O53 C52 1.228 . S
O54 Zn41 1.969 . S
O54 C52 1.267 . S
O55 Zn41 1.965 . S
O55 C59 1.260 . S
O56 Zn40 1.969 . S
O56 C59 1.258 . S
O57 Zn41 2.024 . S
O57 C44 1.058 . S
C58 O47 1.260 . S
C58 O48 1.258 . S
C59 O55 1.260 . S
C59 O56 1.258 . S
H60 C67 0.929 . S
H61 C70 0.930 1_565 S
H62 C72 0.929 . S
H63 C64 0.969 . S
C64 H63 0.969 . S
C64 O65 1.550 . S
C64 H66 0.973 . S
O65 C64 1.550 . S
O65 C71 1.412 1_565 S
H66 C64 0.973 . S
C67 H60 0.929 . S
C67 C68 1.400 . S
C67 C69 1.364 . S
C68 C67 1.400 . S
C68 C72 1.377 . S
C69 C67 1.364 . S
C69 C70 1.374 . S
C70 H61 0.930 1_545 S
C70 C69 1.374 . S
C70 C71 1.383 . S
C71 O65 1.412 1_545 S
C71 C70 1.383 . S
C71 C72 1.394 . S
C72 H62 0.929 . S
C72 C68 1.377 . S
C72 C71 1.394 . S
H73 C80 0.929 . S
H74 C83 0.930 . S
H75 C85 0.929 . S
H76 C77 0.969 . S
C77 H76 0.969 . S
C77 O78 1.550 . S
C77 H79 0.973 . S
O78 C77 1.550 . S
O78 C84 1.412 . S
H79 C77 0.973 . S
C80 H73 0.929 . S
C80 C81 1.400 . S
C80 C82 1.364 . S
C81 C80 1.400 . S
C81 C85 1.377 . S
C82 C80 1.364 . S
C82 C83 1.374 . S
C83 H74 0.930 . S
C83 C82 1.374 . S
C83 C84 1.383 . S
C84 O78 1.412 . S
C84 C83 1.383 . S
C84 C85 1.394 . S
C85 H75 0.929 . S
C85 C81 1.377 . S
C85 C84 1.394 . S
H86 C93 0.929 . S
H87 C96 0.930 . S
H88 C98 0.929 . S
H89 C90 0.969 . S
C90 H89 0.969 . S
C90 O91 1.550 . S
C90 H92 0.973 . S
O91 C90 1.550 . S
O91 C97 1.412 . S
H92 C90 0.973 . S
C93 H86 0.929 . S
C93 C94 1.400 . S
C93 C95 1.364 . S
C94 C93 1.400 . S
C94 C98 1.377 . S
C95 C93 1.364 . S
C95 C96 1.374 . S
C96 H87 0.930 . S
C96 C95 1.374 . S
C96 C97 1.383 . S
C97 O91 1.412 . S
C97 C96 1.383 . S
C97 C98 1.394 . S
C98 H88 0.929 . S
C98 C94 1.377 . S
C98 C97 1.394 . S
H99 C106 0.929 . S
H100 C109 0.930 . S
H101 C111 0.929 . S
H102 C103 0.969 . S
C103 H102 0.969 . S
C103 O104 1.550 . S
C103 H105 0.973 . S
O104 C103 1.550 . S
O104 C110 1.412 . S
H105 C103 0.973 . S
C106 H99 0.929 . S
C106 C107 1.400 . S
C106 C108 1.364 . S
C107 C106 1.400 . S
C107 C111 1.377 . S
C108 C106 1.364 . S
C108 C109 1.374 . S
C109 H100 0.930 . S
C109 C108 1.374 . S
C109 C110 1.383 . S
C110 O104 1.412 . S
C110 C109 1.383 . S
C110 C111 1.394 . S
C111 H101 0.929 . S
C111 C107 1.377 . S
C111 C110 1.394 . S
H112 C119 0.929 1_565 S
H113 C122 0.930 . S
H114 C124 0.929 . S
H115 C116 0.969 . S
C116 H115 0.969 . S
C116 O117 1.550 . S
C116 H118 0.973 . S
O117 C116 1.550 . S
O117 C123 1.412 . S
H118 C116 0.973 . S
C119 H112 0.929 1_545 S
C119 C120 1.400 . S
C119 C121 1.364 . S
C120 C119 1.400 . S
C120 C124 1.377 . S
C121 C119 1.364 . S
C121 C122 1.374 . S
C122 H113 0.930 . S
C122 C121 1.374 . S
C122 C123 1.383 . S
C123 O117 1.412 . S
C123 C122 1.383 . S
C123 C124 1.394 . S
C124 H114 0.929 . S
C124 C120 1.377 . S
C124 C123 1.394 . S
H125 C132 0.929 . S
H126 C135 0.930 . S
H127 C137 0.929 . S
H128 C129 0.969 . S
C129 H128 0.969 . S
C129 O130 1.550 . S
C129 H131 0.973 . S
O130 C129 1.550 . S
O130 C136 1.412 . S
H131 C129 0.973 . S
C132 H125 0.929 . S
C132 C133 1.400 . S
C132 C134 1.364 . S
C133 C132 1.400 . S
C133 C137 1.377 . S
C134 C132 1.364 . S
C134 C135 1.374 . S
C135 H126 0.930 . S
C135 C134 1.374 . S
C135 C136 1.383 . S
C136 O130 1.412 . S
C136 C135 1.383 . S
C136 C137 1.394 . S
C137 H127 0.929 . S
C137 C133 1.377 . S
C137 C136 1.394 . S
H138 C146 0.929 . S
H139 C148 0.930 . S
H140 C150 0.930 . S
H141 C153 0.929 . S
H142 C156 0.930 . S
H143 C158 0.960 . S
H144 C158 0.960 . S
H145 C158 0.960 . S
C146 H138 0.929 . S
C146 C147 1.377 . S
C146 C148 1.384 . S
C147 C146 1.377 . S
C147 C153 1.390 . S
C148 H139 0.930 . S
C148 C146 1.384 . S
C148 C149 1.372 . S
C149 C148 1.372 . S
C149 C150 1.400 . S
C149 C154 1.490 . S
C150 H140 0.930 . S
C150 C149 1.400 . S
C150 C153 1.386 . S
H151 C167 0.930 . S
H152 C168 0.931 . S
C153 H141 0.929 . S
C153 C147 1.390 . S
C153 C150 1.386 . S
C154 C149 1.490 . S
C154 C156 1.395 . S
C154 C157 1.403 . S
H155 C161 0.930 . S
C156 H142 0.930 . S
C156 C154 1.395 . S
C156 C159 1.403 . S
C157 C154 1.403 . S
C157 C158 1.524 . S
C157 C161 1.400 . S
C158 H143 0.960 . S
C158 H144 0.960 . S
C158 H145 0.960 . S
C158 C157 1.524 . S
C159 C156 1.403 . S
C159 C160 1.392 . S
C159 C163 1.495 . S
C160 C159 1.392 . S
C160 C161 1.385 . S
C160 C162 1.478 . S
C161 H155 0.930 . S
C161 C157 1.400 . S
C161 C160 1.385 . S
C162 C160 1.478 . S
C162 C164 1.381 . S
C162 C168 1.383 . S
C163 C159 1.495 . S
C163 H169 0.959 . S
C163 H170 0.961 . S
C163 H171 0.960 . S
C164 C162 1.381 . S
C164 C165 1.394 . S
C164 H172 0.930 . S
C165 C164 1.394 . S
C165 C166 1.383 . S
C165 H173 0.929 . S
C166 C165 1.383 . S
C166 C167 1.377 . S
C167 H151 0.930 . S
C167 C166 1.377 . S
C167 C168 1.379 . S
C168 H152 0.931 . S
C168 C162 1.383 . S
C168 C167 1.379 . S
H169 C163 0.959 . S
H170 C163 0.961 . S
H171 C163 0.960 . S
H172 C164 0.930 . S
H173 C165 0.929 . S
H174 C182 0.929 . S
H175 C184 0.930 . S
H176 C186 0.930 . S
H177 C189 0.929 . S
H178 C192 0.930 . S
H179 C194 0.960 . S
H180 C194 0.960 . S
H181 C194 0.960 . S
C182 H174 0.929 . S
C182 C183 1.377 . S
C182 C184 1.384 . S
C183 C182 1.377 . S
C183 C189 1.390 . S
C184 H175 0.930 . S
C184 C182 1.384 . S
C184 C185 1.372 . S
C185 C184 1.372 . S
C185 C186 1.400 . S
C185 C190 1.490 . S
C186 H176 0.930 . S
C186 C185 1.400 . S
C186 C189 1.386 . S
H187 C203 0.930 1_455 S
H188 C204 0.931 . S
C189 H177 0.929 . S
C189 C183 1.390 . S
C189 C186 1.386 . S
C190 C185 1.490 . S
C190 C192 1.395 . S
C190 C193 1.403 . S
H191 C197 0.930 . S
C192 H178 0.930 . S
C192 C190 1.395 . S
C192 C195 1.403 . S
C193 C190 1.403 . S
C193 C194 1.524 . S
C193 C197 1.400 . S
C194 H179 0.960 . S
C194 H180 0.960 . S
C194 H181 0.960 . S
C194 C193 1.524 . S
C195 C192 1.403 . S
C195 C196 1.392 . S
C195 C199 1.495 . S
C196 C195 1.392 . S
C196 C197 1.385 . S
C196 C198 1.478 . S
C197 H191 0.930 . S
C197 C193 1.400 . S
C197 C196 1.385 . S
C198 C196 1.478 . S
C198 C200 1.381 . S
C198 C204 1.383 . S
C199 C195 1.495 . S
C199 H205 0.959 . S
C199 H206 0.961 . S
C199 H207 0.960 . S
C200 C198 1.381 . S
C200 C201 1.394 1_655 S
C200 H208 0.930 . S
C201 C200 1.394 1_455 S
C201 C202 1.383 . S
C201 H209 0.929 . S
C202 C201 1.383 . S
C202 C203 1.377 1_455 S
C203 H187 0.930 1_655 S
C203 C202 1.377 1_655 S
C203 C204 1.379 . S
C204 H188 0.931 . S
C204 C198 1.383 . S
C204 C203 1.379 . S
H205 C199 0.959 . S
H206 C199 0.961 . S
H207 C199 0.960 . S
H208 C200 0.930 . S
H209 C201 0.929 . S
H210 C218 0.929 . S
H211 C220 0.930 . S
H212 C222 0.930 . S
H213 C225 0.929 . S
H214 C228 0.930 . S
H215 C230 0.960 . S
H216 C230 0.960 . S
H217 C230 0.960 . S
C218 H210 0.929 . S
C218 C219 1.377 . S
C218 C220 1.384 . S
C219 C218 1.377 . S
C219 C225 1.390 . S
C220 H211 0.930 . S
C220 C218 1.384 . S
C220 C221 1.372 . S
C221 C220 1.372 . S
C221 C222 1.400 . S
C221 C226 1.490 . S
C222 H212 0.930 . S
C222 C221 1.400 . S
C222 C225 1.386 . S
H223 C239 0.930 . S
H224 C240 0.931 . S
C225 H213 0.929 . S
C225 C219 1.390 . S
C225 C222 1.386 . S
C226 C221 1.490 . S
C226 C228 1.395 . S
C226 C229 1.403 . S
H227 C233 0.930 . S
C228 H214 0.930 . S
C228 C226 1.395 . S
C228 C231 1.403 . S
C229 C226 1.403 . S
C229 C230 1.524 . S
C229 C233 1.400 . S
C230 H215 0.960 . S
C230 H216 0.960 . S
C230 H217 0.960 . S
C230 C229 1.524 . S
C231 C228 1.403 . S
C231 C232 1.392 . S
C231 C235 1.495 . S
C232 C231 1.392 . S
C232 C233 1.385 . S
C232 C234 1.478 . S
C233 H227 0.930 . S
C233 C229 1.400 . S
C233 C232 1.385 . S
C234 C232 1.478 . S
C234 C236 1.381 . S
C234 C240 1.383 . S
C235 C231 1.495 . S
C235 H241 0.959 . S
C235 H242 0.961 . S
C235 H243 0.960 . S
C236 C234 1.381 . S
C236 C237 1.394 . S
C236 H244 0.930 . S
C237 C236 1.394 . S
C237 C238 1.383 . S
C237 H245 0.929 . S
C238 C237 1.383 . S
C238 C239 1.377 . S
C239 H223 0.930 . S
C239 C238 1.377 . S
C239 C240 1.379 . S
C240 H224 0.931 . S
C240 C234 1.383 . S
C240 C239 1.379 . S
H241 C235 0.959 . S
H242 C235 0.961 . S
H243 C235 0.960 . S
H244 C236 0.930 . S
H245 C237 0.929 . S
H246 C254 0.929 . S
H247 C256 0.930 . S
H248 C258 0.930 . S
H249 C261 0.929 . S
H250 C264 0.930 . S
H251 C266 0.960 . S
H252 C266 0.960 . S
H253 C266 0.960 . S
C254 H246 0.929 . S
C254 C255 1.377 . S
C254 C256 1.384 . S
C255 C254 1.377 . S
C255 C261 1.390 . S
C256 H247 0.930 . S
C256 C254 1.384 . S
C256 C257 1.372 . S
C257 C256 1.372 . S
C257 C258 1.400 . S
C257 C262 1.490 . S
C258 H248 0.930 . S
C258 C257 1.400 . S
C258 C261 1.386 . S
H259 C275 0.930 . S
H260 C276 0.931 . S
C261 H249 0.929 . S
C261 C255 1.390 . S
C261 C258 1.386 . S
C262 C257 1.490 . S
C262 C264 1.395 . S
C262 C265 1.403 . S
H263 C269 0.930 . S
C264 H250 0.930 . S
C264 C262 1.395 . S
C264 C267 1.403 . S
C265 C262 1.403 . S
C265 C266 1.524 . S
C265 C269 1.400 . S
C266 H251 0.960 . S
C266 H252 0.960 . S
C266 H253 0.960 . S
C266 C265 1.524 . S
C267 C264 1.403 . S
C267 C268 1.392 . S
C267 C271 1.495 . S
C268 C267 1.392 . S
C268 C269 1.385 . S
C268 C270 1.478 . S
C269 H263 0.930 . S
C269 C265 1.400 . S
C269 C268 1.385 . S
C270 C268 1.478 . S
C270 C272 1.381 . S
C270 C276 1.383 . S
C271 C267 1.495 . S
C271 H277 0.959 . S
C271 H278 0.961 . S
C271 H279 0.960 . S
C272 C270 1.381 . S
C272 C273 1.394 . S
C272 H280 0.930 . S
C273 C272 1.394 . S
C273 C274 1.383 . S
C273 H281 0.929 . S
C274 C273 1.383 . S
C274 C275 1.377 . S
C275 H259 0.930 . S
C275 C274 1.377 . S
C275 C276 1.379 . S
C276 H260 0.931 . S
C276 C270 1.383 . S
C276 C275 1.379 . S
H277 C271 0.959 . S
H278 C271 0.961 . S
H279 C271 0.960 . S
H280 C272 0.930 . S
H281 C273 0.929 . S
H282 C290 0.929 . S
H283 C292 0.930 . S
H284 C294 0.930 . S
H285 C297 0.929 . S
H286 C300 0.930 . S
H287 C302 0.960 . S
H288 C302 0.960 . S
H289 C302 0.960 . S
C290 H282 0.929 . S
C290 C291 1.377 . S
C290 C292 1.384 . S
C291 C290 1.377 . S
C291 C297 1.390 . S
C292 H283 0.930 . S
C292 C290 1.384 . S
C292 C293 1.372 . S
C293 C292 1.372 . S
C293 C294 1.400 . S
C293 C298 1.490 . S
C294 H284 0.930 . S
C294 C293 1.400 . S
C294 C297 1.386 . S
H295 C311 0.930 . S
H296 C312 0.931 . S
C297 H285 0.929 . S
C297 C291 1.390 . S
C297 C294 1.386 . S
C298 C293 1.490 . S
C298 C300 1.395 . S
C298 C301 1.403 . S
H299 C305 0.930 . S
C300 H286 0.930 . S
C300 C298 1.395 . S
C300 C303 1.403 . S
C301 C298 1.403 . S
C301 C302 1.524 . S
C301 C305 1.400 . S
C302 H287 0.960 . S
C302 H288 0.960 . S
C302 H289 0.960 . S
C302 C301 1.524 . S
C303 C300 1.403 . S
C303 C304 1.392 . S
C303 C307 1.495 . S
C304 C303 1.392 . S
C304 C305 1.385 . S
C304 C306 1.478 . S
C305 H299 0.930 . S
C305 C301 1.400 . S
C305 C304 1.385 . S
C306 C304 1.478 . S
C306 C308 1.381 . S
C306 C312 1.383 . S
C307 C303 1.495 . S
C307 H313 0.959 . S
C307 H314 0.961 . S
C307 H315 0.960 . S
C308 C306 1.381 . S
C308 C309 1.394 . S
C308 H316 0.930 . S
C309 C308 1.394 . S
C309 C310 1.383 . S
C309 H317 0.929 . S
C310 C309 1.383 . S
C310 C311 1.377 . S
C311 H295 0.930 . S
C311 C310 1.377 . S
C311 C312 1.379 . S
C312 H296 0.931 . S
C312 C306 1.383 . S
C312 C311 1.379 . S
H313 C307 0.959 . S
H314 C307 0.961 . S
H315 C307 0.960 . S
H316 C308 0.930 . S
H317 C309 0.929 . S
H318 C326 0.929 . S
H319 C328 0.930 . S
H320 C330 0.930 . S
H321 C333 0.929 . S
H322 C336 0.930 . S
H323 C338 0.960 . S
H324 C338 0.960 . S
H325 C338 0.960 . S
C326 H318 0.929 . S
C326 C327 1.377 . S
C326 C328 1.384 . S
C327 C326 1.377 . S
C327 C333 1.390 . S
C328 H319 0.930 . S
C328 C326 1.384 . S
C328 C329 1.372 . S
C329 C328 1.372 . S
C329 C330 1.400 . S
C329 C334 1.490 . S
C330 H320 0.930 . S
C330 C329 1.400 . S
C330 C333 1.386 . S
H331 C347 0.930 . S
H332 C348 0.931 . S
C333 H321 0.929 . S
C333 C327 1.390 . S
C333 C330 1.386 . S
C334 C329 1.490 . S
C334 C336 1.395 . S
C334 C337 1.403 . S
H335 C341 0.930 . S
C336 H322 0.930 . S
C336 C334 1.395 . S
C336 C339 1.403 . S
C337 C334 1.403 . S
C337 C338 1.524 . S
C337 C341 1.400 . S
C338 H323 0.960 . S
C338 H324 0.960 . S
C338 H325 0.960 . S
C338 C337 1.524 . S
C339 C336 1.403 . S
C339 C340 1.392 . S
C339 C343 1.495 . S
C340 C339 1.392 . S
C340 C341 1.385 . S
C340 C342 1.478 . S
C341 H335 0.930 . S
C341 C337 1.400 . S
C341 C340 1.385 . S
C342 C340 1.478 . S
C342 C344 1.381 . S
C342 C348 1.383 . S
C343 C339 1.495 . S
C343 H349 0.959 . S
C343 H350 0.961 . S
C343 H351 0.960 . S
C344 C342 1.381 . S
C344 C345 1.394 . S
C344 H352 0.930 . S
C345 C344 1.394 . S
C345 C346 1.383 . S
C345 H353 0.929 . S
C346 C345 1.383 . S
C346 C347 1.377 . S
C347 H331 0.930 . S
C347 C346 1.377 . S
C347 C348 1.379 . S
C348 H332 0.931 . S
C348 C342 1.383 . S
C348 C347 1.379 . S
H349 C343 0.959 . S
H350 C343 0.961 . S
H351 C343 0.960 . S
H352 C344 0.930 . S
H353 C345 0.929 . S
H354 C362 0.929 . S
H355 C364 0.930 . S
H356 C366 0.930 . S
H357 C369 0.929 . S
H358 C372 0.930 . S
H359 C374 0.960 . S
H360 C374 0.960 . S
H361 C374 0.960 . S
C362 H354 0.929 . S
C362 C363 1.377 . S
C362 C364 1.384 . S
C363 C362 1.377 . S
C363 C369 1.390 . S
C364 H355 0.930 . S
C364 C362 1.384 . S
C364 C365 1.372 . S
C365 C364 1.372 . S
C365 C366 1.400 . S
C365 C370 1.490 . S
C366 H356 0.930 . S
C366 C365 1.400 . S
C366 C369 1.386 . S
H367 C383 0.930 . S
H368 C384 0.931 . S
C369 H357 0.929 . S
C369 C363 1.390 . S
C369 C366 1.386 . S
C370 C365 1.490 . S
C370 C372 1.395 . S
C370 C373 1.403 . S
H371 C377 0.930 . S
C372 H358 0.930 . S
C372 C370 1.395 . S
C372 C375 1.403 . S
C373 C370 1.403 . S
C373 C374 1.524 . S
C373 C377 1.400 . S
C374 H359 0.960 . S
C374 H360 0.960 . S
C374 H361 0.960 . S
C374 C373 1.524 . S
C375 C372 1.403 . S
C375 C376 1.392 . S
C375 C379 1.495 . S
C376 C375 1.392 . S
C376 C377 1.385 . S
C376 C378 1.478 . S
C377 H371 0.930 . S
C377 C373 1.400 . S
C377 C376 1.385 . S
C378 C376 1.478 . S
C378 C380 1.381 . S
C378 C384 1.383 . S
C379 C375 1.495 . S
C379 H385 0.959 . S
C379 H386 0.961 . S
C379 H387 0.960 . S
C380 C378 1.381 . S
C380 C381 1.394 . S
C380 H388 0.930 . S
C381 C380 1.394 . S
C381 C382 1.383 . S
C381 H389 0.929 . S
C382 C381 1.383 . S
C382 C383 1.377 . S
C383 H367 0.930 . S
C383 C382 1.377 . S
C383 C384 1.379 . S
C384 H368 0.931 . S
C384 C378 1.383 . S
C384 C383 1.379 . S
H385 C379 0.959 . S
H386 C379 0.961 . S
H387 C379 0.960 . S
H388 C380 0.930 . S
H389 C381 0.929 . S
H390 C398 0.929 . S
H391 C400 0.930 . S
H392 C402 0.930 . S
H393 C405 0.929 . S
H394 C408 0.930 . S
H395 C410 0.960 . S
H396 C410 0.960 . S
H397 C410 0.960 . S
C398 H390 0.929 . S
C398 C399 1.377 . S
C398 C400 1.384 . S
C399 C398 1.377 . S
C399 C405 1.390 . S
C400 H391 0.930 . S
C400 C398 1.384 . S
C400 C401 1.372 . S
C401 C400 1.372 . S
C401 C402 1.400 . S
C401 C406 1.490 . S
C402 H392 0.930 . S
C402 C401 1.400 . S
C402 C405 1.386 . S
H403 C419 0.930 . S
H404 C420 0.931 . S
C405 H393 0.929 . S
C405 C399 1.390 . S
C405 C402 1.386 . S
C406 C401 1.490 . S
C406 C408 1.395 . S
C406 C409 1.403 . S
H407 C413 0.930 . S
C408 H394 0.930 . S
C408 C406 1.395 . S
C408 C411 1.403 . S
C409 C406 1.403 . S
C409 C410 1.524 . S
C409 C413 1.400 . S
C410 H395 0.960 . S
C410 H396 0.960 . S
C410 H397 0.960 . S
C410 C409 1.524 . S
C411 C408 1.403 . S
C411 C412 1.392 . S
C411 C415 1.495 . S
C412 C411 1.392 . S
C412 C413 1.385 . S
C412 C414 1.478 . S
C413 H407 0.930 . S
C413 C409 1.400 . S
C413 C412 1.385 . S
C414 C412 1.478 . S
C414 C416 1.381 . S
C414 C420 1.383 . S
C415 C411 1.495 . S
C415 H421 0.959 . S
C415 H422 0.961 . S
C415 H423 0.960 . S
C416 C414 1.381 . S
C416 C417 1.394 1_655 S
C416 H424 0.930 . S
C417 C416 1.394 1_455 S
C417 C418 1.383 . S
C417 H425 0.929 . S
C418 C417 1.383 . S
C418 C419 1.377 . S
C419 H403 0.930 . S
C419 C418 1.377 . S
C419 C420 1.379 1_455 S
C420 H404 0.931 . S
C420 C414 1.383 . S
C420 C419 1.379 1_655 S
H421 C415 0.959 . S
H422 C415 0.961 . S
H423 C415 0.960 . S
H424 C416 0.930 . S
H425 C417 0.929 . S
H426 C434 0.929 . S
H427 C436 0.930 . S
H428 C438 0.930 . S
H429 C441 0.929 . S
H430 C444 0.930 . S
H431 C446 0.960 . S
H432 C446 0.960 . S
H433 C446 0.960 . S
C434 H426 0.929 . S
C434 C435 1.377 . S
C434 C436 1.384 . S
C435 C434 1.377 . S
C435 C441 1.390 . S
C436 H427 0.930 . S
C436 C434 1.384 . S
C436 C437 1.372 . S
C437 C436 1.372 . S
C437 C438 1.400 . S
C437 C442 1.490 . S
C438 H428 0.930 . S
C438 C437 1.400 . S
C438 C441 1.386 . S
H439 C455 0.930 . S
H440 C456 0.931 . S
C441 H429 0.929 . S
C441 C435 1.390 . S
C441 C438 1.386 . S
C442 C437 1.490 . S
C442 C444 1.395 . S
C442 C445 1.403 . S
H443 C449 0.930 . S
C444 H430 0.930 . S
C444 C442 1.395 . S
C444 C447 1.403 . S
C445 C442 1.403 . S
C445 C446 1.524 . S
C445 C449 1.400 . S
C446 H431 0.960 . S
C446 H432 0.960 . S
C446 H433 0.960 . S
C446 C445 1.524 . S
C447 C444 1.403 . S
C447 C448 1.392 . S
C447 C451 1.495 . S
C448 C447 1.392 . S
C448 C449 1.385 . S
C448 C450 1.478 . S
C449 H443 0.930 . S
C449 C445 1.400 . S
C449 C448 1.385 . S
C450 C448 1.478 . S
C450 C452 1.381 . S
C450 C456 1.383 . S
C451 C447 1.495 . S
C451 H457 0.959 . S
C451 H458 0.961 . S
C451 H459 0.960 . S
C452 C450 1.381 . S
C452 C453 1.394 . S
C452 H460 0.930 . S
C453 C452 1.394 . S
C453 C454 1.383 . S
C453 H461 0.929 . S
C454 C453 1.383 . S
C454 C455 1.377 . S
C455 H439 0.930 . S
C455 C454 1.377 . S
C455 C456 1.379 . S
C456 H440 0.931 . S
C456 C450 1.383 . S
C456 C455 1.379 . S
H457 C451 0.959 . S
H458 C451 0.961 . S
H459 C451 0.960 . S
H460 C452 0.930 . S
H461 C453 0.929 . S
H462 C470 0.929 . S
H463 C472 0.930 . S
H464 C474 0.930 . S
H465 C477 0.929 . S
H466 C480 0.930 . S
H467 C482 0.960 . S
H468 C482 0.960 . S
H469 C482 0.960 . S
C470 H462 0.929 . S
C470 C471 1.377 . S
C470 C472 1.384 . S
C471 C470 1.377 . S
C471 C477 1.390 . S
C472 H463 0.930 . S
C472 C470 1.384 . S
C472 C473 1.372 . S
C473 C472 1.372 . S
C473 C474 1.400 . S
C473 C478 1.490 . S
C474 H464 0.930 . S
C474 C473 1.400 . S
C474 C477 1.386 . S
H475 C491 0.930 . S
H476 C492 0.931 . S
C477 H465 0.929 . S
C477 C471 1.390 . S
C477 C474 1.386 . S
C478 C473 1.490 . S
C478 C480 1.395 . S
C478 C481 1.403 . S
H479 C485 0.930 . S
C480 H466 0.930 . S
C480 C478 1.395 . S
C480 C483 1.403 . S
C481 C478 1.403 . S
C481 C482 1.524 . S
C481 C485 1.400 . S
C482 H467 0.960 . S
C482 H468 0.960 . S
C482 H469 0.960 . S
C482 C481 1.524 . S
C483 C480 1.403 . S
C483 C484 1.392 . S
C483 C487 1.495 . S
C484 C483 1.392 . S
C484 C485 1.385 . S
C484 C486 1.478 . S
C485 H479 0.930 . S
C485 C481 1.400 . S
C485 C484 1.385 . S
C486 C484 1.478 . S
C486 C488 1.381 . S
C486 C492 1.383 . S
C487 C483 1.495 . S
C487 H493 0.959 . S
C487 H494 0.961 . S
C487 H495 0.960 . S
C488 C486 1.381 . S
C488 C489 1.394 . S
C488 H496 0.930 . S
C489 C488 1.394 . S
C489 C490 1.383 . S
C489 H497 0.929 . S
C490 C489 1.383 . S
C490 C491 1.377 . S
C491 H475 0.930 . S
C491 C490 1.377 . S
C491 C492 1.379 . S
C492 H476 0.931 . S
C492 C486 1.383 . S
C492 C491 1.379 . S
H493 C487 0.959 . S
H494 C487 0.961 . S
H495 C487 0.960 . S
H496 C488 0.930 . S
H497 C489 0.929 . S
H498 C506 0.929 . S
H499 C508 0.930 . S
H500 C510 0.930 . S
H501 C513 0.929 . S
H502 C516 0.930 . S
H503 C518 0.960 . S
H504 C518 0.960 . S
H505 C518 0.960 . S
C506 H498 0.929 . S
C506 C507 1.377 . S
C506 C508 1.384 . S
C507 C506 1.377 . S
C507 C513 1.390 . S
C508 H499 0.930 . S
C508 C506 1.384 . S
C508 C509 1.372 . S
C509 C508 1.372 . S
C509 C510 1.400 . S
C509 C514 1.490 . S
C510 H500 0.930 . S
C510 C509 1.400 . S
C510 C513 1.386 . S
H511 C527 0.930 . S
H512 C528 0.931 . S
C513 H501 0.929 . S
C513 C507 1.390 . S
C513 C510 1.386 . S
C514 C509 1.490 . S
C514 C516 1.395 . S
C514 C517 1.403 . S
H515 C521 0.930 . S
C516 H502 0.930 . S
C516 C514 1.395 . S
C516 C519 1.403 . S
C517 C514 1.403 . S
C517 C518 1.524 . S
C517 C521 1.400 . S
C518 H503 0.960 . S
C518 H504 0.960 . S
C518 H505 0.960 . S
C518 C517 1.524 . S
C519 C516 1.403 . S
C519 C520 1.392 . S
C519 C523 1.495 . S
C520 C519 1.392 . S
C520 C521 1.385 . S
C520 C522 1.478 . S
C521 H515 0.930 . S
C521 C517 1.400 . S
C521 C520 1.385 . S
C522 C520 1.478 . S
C522 C524 1.381 . S
C522 C528 1.383 . S
C523 C519 1.495 . S
C523 H529 0.959 . S
C523 H530 0.961 . S
C523 H531 0.960 . S
C524 C522 1.381 . S
C524 C525 1.394 . S
C524 H532 0.930 . S
C525 C524 1.394 . S
C525 C526 1.383 . S
C525 H533 0.929 . S
C526 C525 1.383 . S
C526 C527 1.377 . S
C527 H511 0.930 . S
C527 C526 1.377 . S
C527 C528 1.379 . S
C528 H512 0.931 . S
C528 C522 1.383 . S
C528 C527 1.379 . S
H529 C523 0.959 . S
H530 C523 0.961 . S
H531 C523 0.960 . S
H532 C524 0.930 . S
H533 C525 0.929 . S
H534 C542 0.929 . S
H535 C544 0.930 . S
H536 C546 0.930 . S
H537 C549 0.929 . S
H538 C552 0.930 . S
H539 C554 0.960 . S
H540 C554 0.960 . S
H541 C554 0.960 . S
C542 H534 0.929 . S
C542 C543 1.377 . S
C542 C544 1.384 . S
C543 C542 1.377 . S
C543 C549 1.390 . S
C544 H535 0.930 . S
C544 C542 1.384 . S
C544 C545 1.372 . S
C545 C544 1.372 . S
C545 C546 1.400 . S
C545 C550 1.490 . S
C546 H536 0.930 . S
C546 C545 1.400 . S
C546 C549 1.386 . S
H547 C563 0.930 . S
H548 C564 0.931 . S
C549 H537 0.929 . S
C549 C543 1.390 . S
C549 C546 1.386 . S
C550 C545 1.490 . S
C550 C552 1.395 . S
C550 C553 1.403 . S
H551 C557 0.930 . S
C552 H538 0.930 . S
C552 C550 1.395 . S
C552 C555 1.403 . S
C553 C550 1.403 . S
C553 C554 1.524 . S
C553 C557 1.400 . S
C554 H539 0.960 . S
C554 H540 0.960 . S
C554 H541 0.960 . S
C554 C553 1.524 . S
C555 C552 1.403 . S
C555 C556 1.392 . S
C555 C559 1.495 . S
C556 C555 1.392 . S
C556 C557 1.385 . S
C556 C558 1.478 . S
C557 H551 0.930 . S
C557 C553 1.400 . S
C557 C556 1.385 . S
C558 C556 1.478 . S
C558 C560 1.381 . S
C558 C564 1.383 . S
C559 C555 1.495 . S
C559 H565 0.959 . S
C559 H566 0.961 . S
C559 H567 0.960 . S
C560 C558 1.381 . S
C560 C561 1.394 . S
C560 H568 0.930 . S
C561 C560 1.394 . S
C561 C562 1.383 . S
C561 H569 0.929 . S
C562 C561 1.383 . S
C562 C563 1.377 . S
C563 H547 0.930 . S
C563 C562 1.377 . S
C563 C564 1.379 . S
C564 H548 0.931 . S
C564 C558 1.383 . S
C564 C563 1.379 . S
H565 C559 0.959 . S
H566 C559 0.961 . S
H567 C559 0.960 . S
H568 C560 0.930 . S
H569 C561 0.929 . S
H570 C578 0.929 . S
H571 C580 0.930 . S
H572 C582 0.930 1_655 S
H573 C585 0.929 . S
H574 C588 0.930 . S
H575 C590 0.960 . S
H576 C590 0.960 . S
H577 C590 0.960 . S
C578 H570 0.929 . S
C578 C579 1.377 . S
C578 C580 1.384 . S
C579 C578 1.377 . S
C579 C585 1.390 1_455 S
C580 H571 0.930 . S
C580 C578 1.384 . S
C580 C581 1.372 . S
C581 C580 1.372 . S
C581 C582 1.400 . S
C581 C586 1.490 . S
C582 H572 0.930 1_455 S
C582 C581 1.400 . S
C582 C585 1.386 1_455 S
H583 C599 0.930 . S
H584 C600 0.931 . S
C585 H573 0.929 . S
C585 C579 1.390 1_655 S
C585 C582 1.386 1_655 S
C586 C581 1.490 . S
C586 C588 1.395 . S
C586 C589 1.403 . S
H587 C593 0.895 1_556 S
C588 H574 0.930 . S
C588 C586 1.395 . S
C588 C591 1.403 . S
C589 C586 1.403 . S
C589 C590 1.524 1_455 S
C589 C593 1.451 . S
C590 H575 0.960 . S
C590 H576 0.960 . S
C590 H577 0.960 . S
C590 C589 1.524 1_655 S
C591 C588 1.403 . S
C591 C592 1.392 1_554 S
C591 C595 1.495 . S
C592 C591 1.392 1_556 S
C592 C593 1.369 1_556 S
C592 C594 1.478 . S
C593 H587 0.895 1_554 S
C593 C589 1.451 . S
C593 C592 1.369 1_554 S
C594 C592 1.478 . S
C594 C596 1.381 . S
C594 C600 1.383 . S
C595 C591 1.495 . S
C595 H601 0.959 . S
C595 H602 0.961 1_554 S
C595 H603 0.960 1_554 S
C596 C594 1.381 . S
C596 C597 1.394 . S
C596 H604 0.930 . S
C597 C596 1.394 . S
C597 C598 1.383 . S
C597 H605 0.929 . S
C598 C597 1.383 . S
C598 C599 1.377 . S
C599 H583 0.930 . S
C599 C598 1.377 . S
C599 C600 1.379 . S
C600 H584 0.931 . S
C600 C594 1.383 . S
C600 C599 1.379 . S
H601 C595 0.959 . S
H602 C595 0.961 1_556 S
H603 C595 0.960 1_556 S
H604 C596 0.930 . S
H605 C597 0.929 . S
H606 C614 0.929 . S
H607 C616 0.930 . S
H608 C618 0.930 1_565 S
H609 C621 0.929 1_565 S
H610 C624 0.930 . S
H611 C626 0.960 . S
H612 C626 0.960 . S
H613 C626 0.960 . S
C614 H606 0.929 . S
C614 C615 1.377 . S
C614 C616 1.384 . S
C615 C614 1.377 . S
C615 C621 1.390 . S
C616 H607 0.930 . S
C616 C614 1.384 . S
C616 C617 1.372 . S
C617 C616 1.372 . S
C617 C618 1.400 . S
C617 C622 1.490 . S
C618 H608 0.930 1_545 S
C618 C617 1.400 . S
C618 C621 1.386 . S
H619 C635 0.930 1_565 S
H620 C636 0.931 1_565 S
C621 H609 0.929 1_545 S
C621 C615 1.390 . S
C621 C618 1.386 . S
C622 C617 1.490 . S
C622 C624 1.395 . S
C622 C625 1.403 . S
H623 C629 0.930 . S
C624 H610 0.930 . S
C624 C622 1.395 . S
C624 C627 1.403 . S
C625 C622 1.403 . S
C625 C626 1.524 . S
C625 C629 1.400 . S
C626 H611 0.960 . S
C626 H612 0.960 . S
C626 H613 0.960 . S
C626 C625 1.524 . S
C627 C624 1.403 . S
C627 C628 1.392 . S
C627 C631 1.495 . S
C628 C627 1.392 . S
C628 C629 1.385 . S
C628 C630 1.478 . S
C629 H623 0.930 . S
C629 C625 1.400 . S
C629 C628 1.385 . S
C630 C628 1.478 . S
C630 C632 1.381 . S
C630 C636 1.383 . S
C631 C627 1.495 . S
C631 H637 0.959 1_545 S
C631 H638 0.961 1_545 S
C631 H639 0.960 . S
C632 C630 1.381 . S
C632 C633 1.394 . S
C632 H640 0.930 . S
C633 C632 1.394 . S
C633 C634 1.383 . S
C633 H641 0.929 . S
C634 C633 1.383 . S
C634 C635 1.377 . S
C635 H619 0.930 1_545 S
C635 C634 1.377 . S
C635 C636 1.379 . S
C636 H620 0.931 1_545 S
C636 C630 1.383 . S
C636 C635 1.379 . S
H637 C631 0.959 1_565 S
H638 C631 0.961 1_565 S
H639 C631 0.960 . S
H640 C632 0.930 . S
H641 C633 0.929 . S
H642 C650 0.929 . S
H643 C652 0.930 . S
H644 C654 0.930 . S
H645 C657 0.929 . S
H646 C660 0.930 . S
H647 C662 0.960 . S
H648 C662 0.960 . S
H649 C662 0.960 . S
C650 H642 0.929 . S
C650 C651 1.377 . S
C650 C652 1.384 . S
C651 C650 1.377 . S
C651 C657 1.390 . S
C652 H643 0.930 . S
C652 C650 1.384 . S
C652 C653 1.372 . S
C653 C652 1.372 . S
C653 C654 1.400 . S
C653 C658 1.490 . S
C654 H644 0.930 . S
C654 C653 1.400 . S
C654 C657 1.386 . S
H655 C671 0.930 . S
H656 C672 0.931 . S
C657 H645 0.929 . S
C657 C651 1.390 . S
C657 C654 1.386 . S
C658 C653 1.490 . S
C658 C660 1.395 . S
C658 C661 1.403 . S
H659 C665 0.930 . S
C660 H646 0.930 . S
C660 C658 1.395 . S
C660 C663 1.403 . S
C661 C658 1.403 . S
C661 C662 1.524 . S
C661 C665 1.400 . S
C662 H647 0.960 . S
C662 H648 0.960 . S
C662 H649 0.960 . S
C662 C661 1.524 . S
C663 C660 1.403 . S
C663 C664 1.392 . S
C663 C667 1.495 . S
C664 C663 1.392 . S
C664 C665 1.385 . S
C664 C666 1.478 . S
C665 H659 0.930 . S
C665 C661 1.400 . S
C665 C664 1.385 . S
C666 C664 1.478 . S
C666 C668 1.381 . S
C666 C672 1.383 . S
C667 C663 1.495 . S
C667 H673 0.959 . S
C667 H674 0.961 . S
C667 H675 0.960 . S
C668 C666 1.381 . S
C668 C669 1.394 . S
C668 H676 0.930 . S
C669 C668 1.394 . S
C669 C670 1.383 . S
C669 H677 0.929 . S
C670 C669 1.383 . S
C670 C671 1.377 . S
C671 H655 0.930 . S
C671 C670 1.377 . S
C671 C672 1.379 . S
C672 H656 0.931 . S
C672 C666 1.383 . S
C672 C671 1.379 . S
H673 C667 0.959 . S
H674 C667 0.961 . S
H675 C667 0.960 . S
H676 C668 0.930 . S
H677 C669 0.929 . S
H678 C686 0.929 . S
H679 C688 0.930 . S
H680 C690 0.930 1_565 S
H681 C693 0.929 1_565 S
H682 C696 0.930 . S
H683 C698 0.960 . S
H684 C698 0.960 . S
H685 C698 0.960 . S
C686 H678 0.929 . S
C686 C687 1.377 . S
C686 C688 1.384 . S
C687 C686 1.377 . S
C687 C693 1.390 . S
C688 H679 0.930 . S
C688 C686 1.384 . S
C688 C689 1.372 . S
C689 C688 1.372 . S
C689 C690 1.400 . S
C689 C694 1.490 . S
C690 H680 0.930 1_545 S
C690 C689 1.400 . S
C690 C693 1.386 . S
H691 C707 0.930 . S
H692 C708 0.931 . S
C693 H681 0.929 1_545 S
C693 C687 1.390 . S
C693 C690 1.386 . S
C694 C689 1.490 . S
C694 C696 1.395 . S
C694 C697 1.421 . S
H695 C701 0.930 1_565 S
C696 H682 0.930 . S
C696 C694 1.395 . S
C696 C699 1.403 . S
C697 C694 1.421 . S
C697 C698 1.500 1_545 S
C697 C701 1.406 . S
C698 H683 0.960 . S
C698 H684 0.960 . S
C698 H685 0.960 . S
C698 C697 1.500 1_565 S
C699 C696 1.403 . S
C699 C700 1.392 . S
C699 C703 1.495 . S
C700 C699 1.392 . S
C700 C701 1.385 . S
C700 C702 1.478 . S
C701 H695 0.930 1_545 S
C701 C697 1.406 . S
C701 C700 1.385 . S
C702 C700 1.478 . S
C702 C704 1.381 . S
C702 C708 1.383 . S
C703 C699 1.495 . S
C703 H709 0.959 . S
C703 H710 0.961 . S
C703 H711 0.960 . S
C704 C702 1.381 . S
C704 C705 1.394 . S
C704 H712 0.930 . S
C705 C704 1.394 . S
C705 C706 1.383 . S
C705 H713 0.929 . S
C706 C705 1.383 . S
C706 C707 1.377 . S
C707 H691 0.930 . S
C707 C706 1.377 . S
C707 C708 1.379 . S
C708 H692 0.931 . S
C708 C702 1.383 . S
C708 C707 1.379 . S
H709 C703 0.959 . S
H710 C703 0.961 . S
H711 C703 0.960 . S
H712 C704 0.930 . S
H713 C705 0.929 . S
H714 C722 0.929 . S
H715 C724 0.930 . S
H716 C726 0.930 . S
H717 C729 0.929 . S
H718 C732 0.930 . S
H719 C734 0.960 . S
H720 C734 0.960 . S
H721 C734 0.960 . S
C722 H714 0.929 . S
C722 C723 1.377 . S
C722 C724 1.384 . S
C723 C722 1.377 . S
C723 C729 1.390 . S
C724 H715 0.930 . S
C724 C722 1.384 . S
C724 C725 1.372 . S
C725 C724 1.372 . S
C725 C726 1.400 . S
C725 C730 1.490 . S
C726 H716 0.930 . S
C726 C725 1.400 . S
C726 C729 1.386 . S
H727 C743 0.930 . S
H728 C744 0.931 . S
C729 H717 0.929 . S
C729 C723 1.390 . S
C729 C726 1.386 . S
C730 C725 1.490 . S
C730 C732 1.395 . S
C730 C733 1.403 . S
H731 C737 0.930 . S
C732 H718 0.930 . S
C732 C730 1.395 . S
C732 C735 1.403 . S
C733 C730 1.403 . S
C733 C734 1.524 . S
C733 C737 1.400 . S
C734 H719 0.960 . S
C734 H720 0.960 . S
C734 H721 0.960 . S
C734 C733 1.524 . S
C735 C732 1.403 . S
C735 C736 1.392 1_556 S
C735 C739 1.495 1_556 S
C736 C735 1.392 1_554 S
C736 C737 1.385 1_554 S
C736 C738 1.478 . S
C737 H731 0.930 . S
C737 C733 1.400 . S
C737 C736 1.385 1_556 S
C738 C736 1.478 . S
C738 C740 1.381 . S
C738 C744 1.383 . S
C739 C735 1.495 1_554 S
C739 H745 0.959 . S
C739 H746 0.961 . S
C739 H747 0.960 . S
C740 C738 1.381 . S
C740 C741 1.394 . S
C740 H748 0.930 . S
C741 C740 1.394 . S
C741 C742 1.383 . S
C741 H749 0.929 . S
C742 C741 1.383 . S
C742 C743 1.377 . S
C743 H727 0.930 . S
C743 C742 1.377 . S
C743 C744 1.379 . S
C744 H728 0.931 . S
C744 C738 1.383 . S
C744 C743 1.379 . S
H745 C739 0.959 . S
H746 C739 0.961 . S
H747 C739 0.960 . S
H748 C740 0.930 . S
H749 C741 0.929 . S
H750 C758 0.929 . S
H751 C760 0.930 . S
H752 C762 0.930 . S
H753 C765 0.929 . S
H754 C768 0.930 . S
H755 C770 0.960 . S
H756 C770 0.960 . S
H757 C770 0.960 . S
C758 H750 0.929 . S
C758 C759 1.377 . S
C758 C760 1.384 . S
C759 C758 1.377 . S
C759 C765 1.390 1_455 S
C760 H751 0.930 . S
C760 C758 1.384 . S
C760 C761 1.372 . S
C761 C760 1.372 . S
C761 C762 1.400 1_455 S
C761 C766 1.490 . S
C762 H752 0.930 . S
C762 C761 1.400 1_655 S
C762 C765 1.386 . S
H763 C779 0.930 . S
H764 C780 0.931 . S
C765 H753 0.929 . S
C765 C759 1.390 1_655 S
C765 C762 1.386 . S
C766 C761 1.490 . S
C766 C768 1.395 . S
C766 C769 1.403 . S
H767 C773 0.930 . S
C768 H754 0.930 . S
C768 C766 1.395 . S
C768 C771 1.403 . S
C769 C766 1.403 . S
C769 C770 1.524 1_455 S
C769 C773 1.400 . S
C770 H755 0.960 . S
C770 H756 0.960 . S
C770 H757 0.960 . S
C770 C769 1.524 1_655 S
C771 C768 1.403 . S
C771 C772 1.392 . S
C771 C775 1.495 . S
C772 C771 1.392 . S
C772 C773 1.385 . S
C772 C774 1.478 . S
C773 H767 0.930 . S
C773 C769 1.400 . S
C773 C772 1.385 . S
C774 C772 1.478 . S
C774 C776 1.381 . S
C774 C780 1.383 . S
C775 C771 1.495 . S
C775 H781 0.959 . S
C775 H782 0.961 . S
C775 H783 0.960 . S
C776 C774 1.381 . S
C776 C777 1.394 . S
C776 H784 0.930 . S
C777 C776 1.394 . S
C777 C778 1.383 . S
C777 H785 0.929 . S
C778 C777 1.383 . S
C778 C779 1.377 . S
C779 H763 0.930 . S
C779 C778 1.377 . S
C779 C780 1.379 . S
C780 H764 0.931 . S
C780 C774 1.383 . S
C780 C779 1.379 . S
H781 C775 0.959 . S
H782 C775 0.961 . S
H783 C775 0.960 . S
H784 C776 0.930 . S
H785 C777 0.929 . S
C147 C2 1.381 . S
C166 C129 1.335 . S
C183 C22 1.239 . S
C202 C107 1.307 . S
C219 C44 1.255 . S
C238 C120 1.356 1_565 S
C255 C4 1.408 . S
C274 C133 1.506 . S
C310 C103 1.507 . S
C291 C24 1.606 . S
C346 C116 1.514 . S
C327 C42 1.532 . S
C363 C32 1.196 . S
C382 C81 1.211 . S
C399 C49 1.084 . S
C418 C94 1.081 . S
C435 C9 1.253 . S
C454 C64 1.193 . S
C490 C77 1.110 . S
C471 C29 1.225 . S
C526 C90 1.198 . S
C507 C52 1.309 . S
C543 C12 1.166 . S
C562 C68 1.176 . S
C598 C95 1.521 . S
C579 C18 1.516 . S
C615 C38 1.525 . S
C634 C69 1.550 . S
C651 C58 1.512 . S
C670 C82 1.506 . S
C706 C121 1.599 . S
C687 C39 1.576 . S
C742 C134 1.524 . S
C723 C59 1.513 . S
C759 C19 1.533 . S
C778 C108 1.581 . S
