# Generated by pormake.
# Topology zzz, (3,6)-cn, num edge types: 1
# Building blocks:
#     Node 0, Type 0, BuildingBlock: BETDIP_clean_linker_0, # of connection points: 3
#     Node 1, Type 0, BuildingBlock: BETDIP_clean_linker_0, # of connection points: 3
#     Node 2, Type 0, BuildingBlock: BETDIP_clean_linker_0, # of connection points: 3
#     Node 3, Type 0, BuildingBlock: BETDIP_clean_linker_0, # of connection points: 3
#     Node 4, Type 0, BuildingBlock: BETDIP_clean_linker_0, # of connection points: 3
#     Node 5, Type 0, BuildingBlock: BETDIP_clean_linker_0, # of connection points: 3
#     Node 6, Type 0, BuildingBlock: BETDIP_clean_linker_0, # of connection points: 3
#     Node 7, Type 0, BuildingBlock: BETDIP_clean_linker_0, # of connection points: 3
#     Node 8, Type 1, BuildingBlock: JUFBIX_clean_sbu_0, # of connection points: 6
#     Node 9, Type 1, BuildingBlock: JUFBIX_clean_sbu_0, # of connection points: 6
#     Node 10, Type 1, BuildingBlock: JUFBIX_clean_sbu_0, # of connection points: 6
#     Node 11, Type 1, BuildingBlock: JUFBIX_clean_sbu_0, # of connection points: 6
#     Edge 12, Type (0, 1), BuildingBlock: EZIPEK_clean_linker_0, # of connection points: 2
#     Edge 13, Type (0, 1), BuildingBlock: EZIPEK_clean_linker_0, # of connection points: 2
#     Edge 14, Type (0, 1), BuildingBlock: EZIPEK_clean_linker_0, # of connection points: 2
#     Edge 15, Type (0, 1), BuildingBlock: EZIPEK_clean_linker_0, # of connection points: 2
#     Edge 16, Type (0, 1), BuildingBlock: EZIPEK_clean_linker_0, # of connection points: 2
#     Edge 17, Type (0, 1), BuildingBlock: EZIPEK_clean_linker_0, # of connection points: 2
#     Edge 18, Type (0, 1), BuildingBlock: EZIPEK_clean_linker_0, # of connection points: 2
#     Edge 19, Type (0, 1), BuildingBlock: EZIPEK_clean_linker_0, # of connection points: 2
#     Edge 20, Type (0, 1), BuildingBlock: EZIPEK_clean_linker_0, # of connection points: 2
#     Edge 21, Type (0, 1), BuildingBlock: EZIPEK_clean_linker_0, # of connection points: 2
#     Edge 22, Type (0, 1), BuildingBlock: EZIPEK_clean_linker_0, # of connection points: 2
#     Edge 23, Type (0, 1), BuildingBlock: EZIPEK_clean_linker_0, # of connection points: 2
#     Edge 24, Type (0, 1), BuildingBlock: EZIPEK_clean_linker_0, # of connection points: 2
#     Edge 25, Type (0, 1), BuildingBlock: EZIPEK_clean_linker_0, # of connection points: 2
#     Edge 26, Type (0, 1), BuildingBlock: EZIPEK_clean_linker_0, # of connection points: 2
#     Edge 27, Type (0, 1), BuildingBlock: EZIPEK_clean_linker_0, # of connection points: 2
#     Edge 28, Type (0, 1), BuildingBlock: EZIPEK_clean_linker_0, # of connection points: 2
#     Edge 29, Type (0, 1), BuildingBlock: EZIPEK_clean_linker_0, # of connection points: 2
#     Edge 30, Type (0, 1), BuildingBlock: EZIPEK_clean_linker_0, # of connection points: 2
#     Edge 31, Type (0, 1), BuildingBlock: EZIPEK_clean_linker_0, # of connection points: 2
#     Edge 32, Type (0, 1), BuildingBlock: EZIPEK_clean_linker_0, # of connection points: 2
#     Edge 33, Type (0, 1), BuildingBlock: EZIPEK_clean_linker_0, # of connection points: 2
#     Edge 34, Type (0, 1), BuildingBlock: EZIPEK_clean_linker_0, # of connection points: 2
#     Edge 35, Type (0, 1), BuildingBlock: EZIPEK_clean_linker_0, # of connection points: 2
# Relax obj value: 0.113
# Max RMSD: 0.172
# Mean RMSD: 0.083
data_MOF--net-zzz--node1-JUFBIX_clean_sbu_0--node2-BETDIP_clean_linker_0--edge1-EZIPEK_clean_linker_0
_symmetry_space_group_name_H-M    P1
_symmetry_Int_Tables_number       1
_symmetry_cell_setting            triclinic
loop_
_symmetry_equiv_pos_as_xyz
'x, y, z'
_cell_length_a     38.501977
_cell_length_b     38.140903
_cell_length_c     13.177762
_cell_angle_alpha  78.352778
_cell_angle_beta   90.119374
_cell_angle_gamma 91.510816
loop_
_atom_site_label
_atom_site_type_symbol
_atom_site_fract_x
_atom_site_fract_y
_atom_site_fract_z
_atom_type_partial_charge
H0 H 0.82812 0.53695 0.40168 0.0
H1 H 0.85391 0.5037 0.11689 0.0
H2 H 0.93245 0.50775 0.34356 0.0
H3 H 0.81685 0.55223 0.05776 0.0
C4 C 0.79562 0.54014 0.10823 0.0
C5 C 0.84648 0.5266 0.35373 0.0
C6 C 0.88139 0.52146 0.38621 0.0
C7 C 0.83619 0.52025 0.25554 0.0
C8 C 0.86087 0.50801 0.19321 0.0
C9 C 0.89552 0.50444 0.22438 0.0
C10 C 0.90525 0.50975 0.3216 0.0
N11 N 0.802 0.52817 0.21662 0.0
H12 H 0.02355 0.7611 0.41357 0.0
H13 H 0.99464 0.79093 0.0915 0.0
H14 H 0.98397 0.86537 0.28783 0.0
H15 H 0.97333 0.72993 0.12707 0.0
C16 C 0.99841 0.7203 0.15688 0.0
C17 C 1.01139 0.77957 0.35125 0.0
C18 C 1.00319 0.81441 0.36431 0.0
C19 C 1.00521 0.7696 0.25427 0.0
C20 C 0.99525 0.79615 0.16911 0.0
C21 C 0.99157 0.83126 0.18098 0.0
C22 C 0.98913 0.83818 0.28008 0.0
N23 N 0.0142 0.73511 0.23753 0.0
H24 H 0.78074 1.00562 0.33581 0.0
H25 H 0.75001 1.01491 0.01502 0.0
H26 H 0.67325 1.01536 0.24827 0.0
H27 H 0.79983 0.98464 0.00922 0.0
C28 C 0.81768 0.99897 0.05122 0.0
C29 C 0.76092 1.00873 0.27649 0.0
C30 C 0.72561 1.01011 0.30417 0.0
C31 C 0.77027 1.01049 0.17143 0.0
C32 C 0.74388 1.01359 0.09581 0.0
C33 C 0.7091 1.01534 0.12443 0.0
C34 C 0.70045 1.01442 0.22715 0.0
N35 N 0.80601 1.0098 0.14298 0.0
H36 H 0.52291 0.73786 0.35599 0.0
H37 H 0.51549 0.72094 0.04062 0.0
H38 H 0.51054 0.63187 0.29528 0.0
H39 H 0.53047 0.77731 0.99374 0.0
C40 C 0.52345 0.79164 0.05346 0.0
C41 C 0.52027 0.72019 0.30143 0.0
C42 C 0.51814 0.68276 0.33831 0.0
C43 C 0.51906 0.7348 0.19354 0.0
C44 C 0.51586 0.71109 0.12337 0.0
C45 C 0.5126 0.67388 0.16057 0.0
C46 C 0.51306 0.66062 0.2671 0.0
N47 N 0.52049 0.77301 0.15902 0.0
H48 H 0.26436 0.50417 0.12931 0.0
H49 H 0.23441 0.50818 0.44231 0.0
H50 H 0.15656 0.50777 0.21117 0.0
H51 H 0.28279 0.55722 0.38496 0.0
C52 C 0.29962 0.53509 0.38117 0.0
C53 C 0.24447 0.50411 0.18733 0.0
C54 C 0.20902 0.50375 0.1598 0.0
C55 C 0.25385 0.50667 0.28947 0.0
C56 C 0.22762 0.50718 0.36327 0.0
C57 C 0.19263 0.50834 0.33446 0.0
C58 C 0.18373 0.5062 0.23368 0.0
N59 N 0.28932 0.51049 0.3174 0.0
H60 H 0.11411 0.2492 0.24525 0.0
H61 H 0.05361 0.24578 0.52288 0.0
H62 H 0.06176 0.15161 0.39617 0.0
H63 H 0.04278 0.31308 0.34786 0.0
C64 C 0.06622 0.3131 0.39372 0.0
C65 C 0.09827 0.23446 0.30826 0.0
C66 C 0.0893 0.1981 0.31199 0.0
C67 C 0.08484 0.2521 0.38368 0.0
C68 C 0.06351 0.2329 0.46346 0.0
C69 C 0.05557 0.19668 0.46807 0.0
C70 C 0.06879 0.17958 0.39334 0.0
N71 N 0.09259 0.28902 0.3795 0.0
H72 H 0.26571 0.02879 0.30706 0.0
H73 H 0.29228 1.01312 0.63251 0.0
H74 H 0.37222 0.01902 0.40477 0.0
H75 H 0.24459 0.04689 0.6377 0.0
C76 C 0.22646 0.03504 0.5902 0.0
C77 C 0.28482 0.02527 0.36844 0.0
C78 C 0.32035 0.0235 0.34442 0.0
C79 C 0.27427 0.02295 0.47253 0.0
C80 C 0.29958 0.01684 0.55173 0.0
C81 C 0.33485 1.01586 0.52635 0.0
C82 C 0.34479 0.01972 0.4235 0.0
N83 N 0.23839 0.02624 0.496 0.0
H84 H 0.52741 0.29261 0.32116 0.0
H85 H 0.54995 0.30679 0.63268 0.0
H86 H 0.55368 0.39679 0.37873 0.0
H87 H 0.5252 0.2526 0.6781 0.0
C88 C 0.52918 0.23771 0.61733 0.0
C89 C 0.53544 0.30946 0.3745 0.0
C90 C 0.53996 0.3466 0.33845 0.0
C91 C 0.53993 0.29426 0.48049 0.0
C92 C 0.54787 0.31717 0.55035 0.0
C93 C 0.55259 0.35427 0.51311 0.0
C94 C 0.55053 0.36808 0.40701 0.0
N95 N 0.53564 0.25629 0.51348 0.0
Co96 Co 0.03182 0.04725 0.88323 0.0
C97 C 0.95751 0.02611 0.87568 0.0
Co98 Co 1.00948 1.00665 0.72799 0.0
C99 C 0.06953 0.07796 0.0213 0.0
C100 C 0.03745 0.03596 0.10929 0.0
N101 N 0.04853 0.04994 0.01222 0.0
N102 N 0.07109 0.08316 0.11919 0.0
C103 C 0.05128 0.05656 0.17547 0.0
H104 H 0.08013 0.09679 0.95544 0.0
H105 H 0.01797 1.01474 0.12904 0.0
C106 C 0.08416 0.02795 0.74545 0.0
N107 N 1.00269 0.97981 0.62328 0.0
C108 C 0.99558 0.9447 0.62179 0.0
C109 C 0.02446 0.99052 0.54258 0.0
N110 N 0.0141 0.93291 0.54703 0.0
C111 C 0.03309 0.96207 0.50164 0.0
C112 C 1.00555 0.07046 0.68078 0.0
O113 O 0.07797 0.04281 0.82445 0.0
O114 O 0.05992 1.01305 0.69856 0.0
O115 O 0.9983 0.05018 0.62057 0.0
O116 O 0.01668 0.05342 0.76403 0.0
O117 O 0.96306 1.00906 0.79881 0.0
H118 H 0.0376 0.01642 0.52356 0.0
H119 H 0.97867 0.92805 0.67802 0.0
O120 O 0.98234 0.04286 0.91722 0.0
O121 O 0.02992 0.99544 0.93517 0.0
O122 O 0.01751 0.96445 0.81793 0.0
C123 C 0.02464 0.96542 0.9098 0.0
H124 H 0.04457 0.05434 0.25631 0.0
H125 H 0.05389 0.9628 0.44618 0.0
Co126 Co 0.50904 0.01833 0.89331 0.0
C127 C 0.5209 0.94614 0.89263 0.0
Co128 Co 0.53637 1.00992 0.75177 0.0
C129 C 0.44778 1.01559 0.02132 0.0
C130 C 0.48979 0.04398 0.07817 0.0
N131 N 0.48181 0.025 0.00487 0.0
N132 N 0.4343 0.02802 0.10101 0.0
C133 C 0.46064 0.04584 0.13745 0.0
H134 H 0.4326 1.0007 0.97431 0.0
H135 H 0.51474 0.05695 0.08536 0.0
C136 C 0.5254 0.08207 0.75424 0.0
N137 N 0.56374 1.00427 0.63887 0.0
C138 C 0.59746 0.99458 0.64079 0.0
C139 C 0.55703 0.01689 0.53771 0.0
N140 N 0.61199 1.00132 0.54558 0.0
C141 C 0.58665 1.01521 0.48037 0.0
C142 C 0.46632 1.00995 0.72703 0.0
O143 O 0.51058 0.06902 0.84043 0.0
O144 O 0.53865 0.06091 0.70252 0.0
O145 O 0.49395 1.0068 0.67703 0.0
O146 O 0.46827 1.01455 0.81904 0.0
O147 O 0.53411 0.95898 0.80363 0.0
H148 H 0.53304 0.02913 0.5083 0.0
H149 H 0.61198 0.98513 0.71092 0.0
O150 O 0.50805 0.96745 0.94491 0.0
O151 O 0.55088 0.02225 0.96688 0.0
O152 O 0.57722 1.01321 0.82712 0.0
C153 C 0.57865 0.01877 0.91836 0.0
H154 H 0.45854 0.06021 0.20004 0.0
H155 H 0.58999 0.02545 0.39806 0.0
Co156 Co 0.55778 0.51792 0.85182 0.0
C157 C 0.5235 0.45877 0.98758 0.0
Co158 Co 0.50124 0.50909 0.82759 0.0
C159 C 0.63569 0.53007 0.88017 0.0
C160 C 0.60292 0.52456 0.01316 0.0
N161 N 0.60174 0.52577 0.90983 0.0
N162 N 0.65694 0.53184 0.96182 0.0
C163 C 0.6362 0.52847 0.04466 0.0
H164 H 0.6447 0.53072 0.80206 0.0
H165 H 0.58092 0.51923 0.06465 0.0
C166 C 0.53426 0.56847 0.691 0.0
N167 N 0.45711 0.49913 0.77789 0.0
C168 C 0.43544 0.52041 0.71309 0.0
C169 C 0.44318 0.46576 0.78582 0.0
N170 N 0.40907 0.50141 0.6804 0.0
C171 C 0.4137 0.46712 0.72641 0.0
C172 C 0.50738 0.55612 0.94777 0.0
O173 O 0.56262 0.55883 0.73815 0.0
O174 O 0.50681 0.5497 0.71882 0.0
O175 O 0.48291 0.53962 0.91056 0.0
O176 O 0.53867 0.54878 0.93231 0.0
O177 O 0.49616 0.46907 0.93813 0.0
H178 H 0.45479 0.44152 0.82714 0.0
H179 H 0.43958 0.54896 0.68687 0.0
O180 O 0.55175 0.47644 0.96328 0.0
O181 O 0.5759 0.48773 0.76846 0.0
O182 O 0.52029 0.47856 0.74522 0.0
C183 C 0.55175 0.47162 0.7286 0.0
H184 H 0.64484 0.52758 0.1234 0.0
H185 H 0.39778 0.44457 0.71385 0.0
Co186 Co 0.04684 0.54767 0.76443 0.0
C187 C 0.0999 0.50803 0.87899 0.0
Co188 Co 0.04267 0.48899 0.77686 0.0
C189 C 0.03137 0.6129 0.83427 0.0
C190 C 0.08181 0.61521 0.76554 0.0
N191 N 0.05171 0.59581 0.77684 0.0
N192 N 0.04829 0.64063 0.86399 0.0
C193 C 0.07991 0.6424 0.81971 0.0
H194 H 1.00602 0.60298 0.86368 0.0
H195 H 0.10505 0.60784 0.73044 0.0
C196 C 0.98999 0.52976 0.66087 0.0
N197 N 0.03858 0.44056 0.76922 0.0
C198 C 0.05965 0.4205 0.72302 0.0
C199 C 1.00993 0.41983 0.79461 0.0
N200 N 0.04583 0.38739 0.72095 0.0
C201 C 0.01395 0.38795 0.76398 0.0
C202 C 1.006 0.50842 0.92838 0.0
O203 O 1.00509 0.55643 0.68844 0.0
O204 O 1.00316 0.49888 0.6866 0.0
O205 O 1.01247 0.48134 0.89068 0.0
O206 O 0.02052 0.53836 0.88973 0.0
O207 O 0.08231 0.48022 0.86799 0.0
H208 H 0.98635 0.42835 0.82578 0.0
H209 H 0.08326 0.43149 0.68385 0.0
O210 O 0.08844 0.53841 0.83794 0.0
O211 O 0.07319 0.55589 0.6396 0.0
O212 O 0.07269 0.49714 0.66355 0.0
C213 C 0.08331 0.52742 0.61357 0.0
H214 H 0.10098 0.66042 0.83212 0.0
H215 H 0.9931 0.36838 0.76537 0.0
C216 C 0.17271 0.06516 0.63504 0.0
C217 C 0.18883 0.03353 0.61942 0.0
C218 C 0.1365 0.99801 0.6872 0.0
C219 C 0.12015 0.0298 0.7013 0.0
N220 N 0.11926 0.09435 0.6622 0.0
N221 N 0.1848 0.97045 0.61761 0.0
C222 C 0.13736 0.0636 0.66823 0.0
C223 C 0.17019 1.00021 0.6407 0.0
N224 N 0.19124 0.0969 0.61811 0.0
N225 N 0.12053 0.9654 0.72272 0.0
H226 H 0.21035 0.96998 0.59228 0.0
H227 H 0.17109 0.94658 0.61759 0.0
H228 H 0.09553 0.9624 0.75337 0.0
H229 H 0.13264 0.94104 0.72811 0.0
H230 H 0.18272 0.11979 0.64117 0.0
H231 H 0.21608 0.1 0.58554 0.0
H232 H 0.12902 0.11967 0.62779 0.0
H233 H 0.09307 0.09443 0.68202 0.0
C234 C 0.50982 0.17574 0.59218 0.0
C235 C 0.52961 0.19765 0.64748 0.0
C236 C 0.54518 0.14392 0.77559 0.0
C237 C 0.52775 0.12177 0.71559 0.0
N238 N 0.49873 0.11668 0.55592 0.0
N239 N 0.57184 0.20193 0.78006 0.0
C240 C 0.512 0.1377 0.62007 0.0
C241 C 0.54879 0.18152 0.73612 0.0
N242 N 0.48691 0.19101 0.51786 0.0
N243 N 0.55841 0.1292 0.87058 0.0
H244 H 0.57589 0.22934 0.75243 0.0
H245 H 0.58947 0.19122 0.8373 0.0
H246 H 0.55881 0.10174 0.90001 0.0
H247 H 0.56717 0.14438 0.92338 0.0
H248 H 0.46901 0.17624 0.48309 0.0
H249 H 0.48303 0.21848 0.49862 0.0
H250 H 0.49085 0.12693 0.48031 0.0
H251 H 0.49783 0.08881 0.57472 0.0
C252 C 0.3226 0.52893 0.56312 0.0
C253 C 0.32875 0.52791 0.45704 0.0
C254 C 0.38928 0.51178 0.49843 0.0
C255 C 0.3832 0.51369 0.60311 0.0
N256 N 0.34698 0.52938 0.73342 0.0
N257 N 0.36967 0.52601 0.31998 0.0
C258 C 0.3507 0.52407 0.6346 0.0
C259 C 0.36259 0.52134 0.42354 0.0
N260 N 0.2896 0.53276 0.59687 0.0
N261 N 0.42055 0.50017 0.47152 0.0
H262 H 0.35111 0.53407 0.2629 0.0
H263 H 0.39454 0.52506 0.29 0.0
H264 H 0.44097 0.4948 0.524 0.0
H265 H 0.42567 0.49405 0.39962 0.0
H266 H 0.28277 0.52945 0.67465 0.0
H267 H 0.26816 0.53674 0.54811 0.0
H268 H 0.32526 0.54062 0.75966 0.0
H269 H 0.36707 0.52507 0.78746 0.0
C270 C 0.03653 0.31837 0.55997 0.0
C271 C 0.06478 0.32817 0.48969 0.0
C272 C 0.08921 0.36607 0.60454 0.0
C273 C 0.05779 0.36108 0.6624 0.0
N274 N 0.01928 0.3124 0.73842 0.0
N275 N 0.11909 0.36089 0.4462 0.0
C276 C 0.03635 0.33125 0.65335 0.0
C277 C 0.09185 0.35141 0.51324 0.0
N278 N 1.00946 0.29724 0.53817 0.0
N279 N 0.11762 0.3806 0.64411 0.0
H280 H 0.1216 0.35126 0.37802 0.0
H281 H 0.13798 0.38013 0.4544 0.0
H282 H 0.11757 0.38525 0.71951 0.0
H283 H 0.14216 0.38294 0.61001 0.0
H284 H 0.98697 0.29271 0.58345 0.0
H285 H 1.00821 0.28622 0.47205 0.0
H286 H 1.00557 0.28845 0.73854 0.0
H287 H 0.02341 0.31814 0.81179 0.0
C288 C 0.85741 0.02216 0.8982 0.0
C289 C 0.8532 1.00876 0.00649 0.0
C290 C 0.91527 0.01973 0.03016 0.0
C291 C 0.92116 0.02557 0.92054 0.0
N292 N 0.89598 0.03677 0.74935 0.0
N293 N 0.88047 0.98645 0.17096 0.0
C294 C 0.8916 0.02782 0.85433 0.0
C295 C 0.88273 1.00522 0.07115 0.0
N296 N 0.82879 0.03128 0.83794 0.0
N297 N 0.93952 0.029 0.0966 0.0
H298 H 0.85771 0.97336 0.20275 0.0
H299 H 0.90226 0.98018 0.21759 0.0
H300 H 0.96213 0.04377 0.07385 0.0
H301 H 0.93452 0.02692 0.17536 0.0
H302 H 0.83005 0.04459 0.76082 0.0
H303 H 0.80352 0.02859 0.86726 0.0
H304 H 0.87658 0.03344 0.69668 0.0
H305 H 0.9193 0.04737 0.71467 0.0
C306 C 0.49258 0.8507 0.02851 0.0
C307 C 0.52358 0.83176 0.02296 0.0
C308 C 0.55368 0.88839 0.94211 0.0
C309 C 0.52176 0.90669 0.93744 0.0
N310 N 0.45956 0.90378 0.96177 0.0
N311 N 0.58299 0.8318 0.96544 0.0
C312 C 0.49091 0.88751 0.97778 0.0
C313 C 0.55387 0.85043 0.97681 0.0
N314 N 0.46444 0.83341 0.08098 0.0
N315 N 0.58423 0.9074 0.91839 0.0
H316 H 0.58532 0.80458 -0.00316 0.0
H317 H 0.60418 0.84285 0.91991 0.0
H318 H 0.58566 0.93514 0.89416 0.0
H319 H 0.60859 0.89621 0.93212 0.0
H320 H 0.44256 0.84654 0.0985 0.0
H321 H 0.46391 0.80616 0.11398 0.0
H322 H 0.43577 0.89032 0.97895 0.0
H323 H 0.45691 0.93011 0.92196 0.0
C324 C 0.74495 0.56948 0.00672 0.0
C325 C 0.76064 0.5377 0.06053 0.0
C326 C 0.71171 0.50178 0.01136 0.0
C327 C 0.69426 0.53366 0.96979 0.0
N328 N 0.69273 0.59757 0.92773 0.0
N329 N 0.76107 0.47321 0.10693 0.0
C330 C 0.71084 0.56743 0.96558 0.0
C331 C 0.74465 0.50364 0.06047 0.0
N332 N 0.76256 0.60164 -0.00432 0.0
N333 N 0.69604 0.46982 0.00418 0.0
H334 H 0.78604 0.47347 0.13747 0.0
H335 H 0.75011 0.44754 0.11733 0.0
H336 H 0.67212 0.46846 0.96751 0.0
H337 H 0.70707 0.44494 0.02822 0.0
H338 H 0.75436 0.62512 0.94806 0.0
H339 H 0.78659 0.60468 0.02998 0.0
H340 H 0.70099 0.62331 0.93326 0.0
H341 H 0.66828 0.59645 0.89391 0.0
C342 C 0.03353 0.71699 -0.00023 0.0
C343 C 0.01773 0.69899 0.09355 0.0
C344 C 0.02781 0.6416 0.0431 0.0
C345 C 0.03778 0.66009 0.94203 0.0
N346 N 0.04444 0.71596 0.81963 0.0
N347 N 0.9968 0.64393 0.20159 0.0
C348 C 0.0392 0.69801 0.91925 0.0
C349 C 0.01402 0.66116 0.11452 0.0
N350 N 0.04398 0.75201 0.98858 0.0
N351 N 0.03308 0.60573 0.07277 0.0
H352 H 0.98791 0.65732 0.25779 0.0
H353 H 0.9896 0.61686 0.21452 0.0
H354 H 0.04514 0.59095 0.02525 0.0
H355 H 0.02902 0.59152 0.14823 0.0
H356 H 0.05783 0.76588 0.92439 0.0
H357 H 0.04297 0.76548 0.04972 0.0
H358 H 0.04245 0.74363 0.79686 0.0
H359 H 0.04712 0.70283 0.75803 0.0
C360 C 1.00073 0.16145 0.50856 0.0
C361 C 0.03158 0.1756 0.54559 0.0
C362 C 0.02599 0.13122 0.70526 0.0
C363 C 1.0044 0.11029 0.65255 0.0
N364 N 0.96069 0.11027 0.5219 0.0
N365 N 0.07222 0.176 0.68528 0.0
C366 C 0.98791 0.12721 0.56009 0.0
C367 C 0.04332 0.16179 0.64708 0.0
N368 N 0.9851 0.18035 0.42223 0.0
N369 N 0.02876 0.12286 0.81019 0.0
H370 H 0.08541 0.19882 0.64528 0.0
H371 H 0.08394 0.16385 0.75445 0.0
H372 H 0.01289 0.10311 0.85464 0.0
H373 H 0.04224 0.13922 0.85218 0.0
H374 H 0.96189 0.17251 0.39183 0.0
H375 H 0.99457 0.20561 0.38523 0.0
H376 H 0.94961 0.11917 0.44954 0.0
H377 H 0.94874 0.08719 0.5651 0.0
C378 C 0.37691 0.04164 0.63611 0.0
C379 C 0.36312 1.01097 0.60383 0.0
C380 C 0.41589 0.97805 0.66217 0.0
C381 C 0.43148 1.0103 0.68021 0.0
N382 N 0.4279 0.07328 0.6827 0.0
N383 N 0.36778 0.94957 0.58748 0.0
C384 C 0.41211 0.04214 0.66805 0.0
C385 C 0.382 0.97883 0.61884 0.0
N386 N 0.35632 0.07037 0.63524 0.0
N387 N 0.4331 0.94662 0.6892 0.0
H388 H 0.34212 0.94872 0.5621 0.0
H389 H 0.38152 0.92679 0.58307 0.0
H390 H 0.45828 0.94526 0.71885 0.0
H391 H 0.42179 0.92158 0.6887 0.0
H392 H 0.36348 0.09224 0.66748 0.0
H393 H 0.3306 0.07104 0.6104 0.0
H394 H 0.41675 0.09829 0.66312 0.0
H395 H 0.45343 0.07477 0.70778 0.0
C396 C 0.52576 0.40516 0.57012 0.0
C397 C 0.55328 0.38089 0.58162 0.0
C398 C 0.58449 0.41761 0.68775 0.0
C399 C 0.55792 0.44366 0.66592 0.0
N400 N 0.51268 0.46743 0.54636 0.0
N401 N 0.61194 0.36713 0.63587 0.0
C402 C 0.53147 0.439 0.59459 0.0
C403 C 0.58364 0.38795 0.63611 0.0
N404 N 0.49416 0.39606 0.53428 0.0
N405 N 0.60994 0.42018 0.75838 0.0
H406 H 0.6117 0.34481 0.60131 0.0
H407 H 0.63619 0.37342 0.66356 0.0
H408 H 0.61339 0.44177 0.79462 0.0
H409 H 0.62677 0.39948 0.78592 0.0
H410 H 0.47269 0.41238 0.53087 0.0
H411 H 0.48865 0.37066 0.51924 0.0
H412 H 0.49501 0.4656 0.48742 0.0
H413 H 0.51838 0.49351 0.5554 0.0
C414 C 0.16654 0.5444 0.45449 0.0
C415 C 0.16476 0.51433 0.40617 0.0
C416 C 0.10512 0.50226 0.46759 0.0
C417 C 0.10947 0.52765 0.53191 0.0
N418 N 0.14948 0.56569 0.6062 0.0
N419 N 0.13441 0.45944 0.38888 0.0
C420 C 0.1415 0.54705 0.53074 0.0
C421 C 0.13459 0.49167 0.41904 0.0
N422 N 0.19122 0.57095 0.42628 0.0
N423 N 0.07288 0.48834 0.45268 0.0
H424 H 0.15636 0.44952 0.35916 0.0
H425 H 0.11365 0.44103 0.40425 0.0
H426 H 0.05041 0.49677 0.48387 0.0
H427 H 0.0682 0.47166 0.40018 0.0
H428 H 0.19138 0.59452 0.45496 0.0
H429 H 0.20884 0.57141 0.36608 0.0
H430 H 0.17392 0.57758 0.61194 0.0
H431 H 0.13359 0.56535 0.67001 0.0
C432 C 0.03465 0.87013 0.06082 0.0
C433 C 0.9996 0.86241 0.09593 0.0
C434 C 0.98606 0.92502 0.03564 0.0
C435 C 0.01921 0.93198 0.98857 0.0
N436 N 0.07492 0.91085 0.95092 0.0
N437 N 0.94042 0.88096 0.09481 0.0
C438 C 0.04332 0.90424 -0.00154 0.0
C439 C 0.97474 0.88936 0.07463 0.0
N440 N 0.06023 0.84621 0.09267 0.0
N441 N 0.96637 0.95262 0.05031 0.0
H442 H 0.93155 0.85473 0.12354 0.0
H443 H 0.9208 0.8993 0.07317 0.0
H444 H 0.97652 0.97861 0.03662 0.0
H445 H 0.94303 0.949 0.09143 0.0
H446 H 0.08656 0.85243 0.07982 0.0
H447 H 0.05587 0.821 0.13887 0.0
H448 H 0.09188 0.89077 0.94259 0.0
H449 H 0.08358 0.93673 0.91779 0.0
C450 C 0.67 0.0463 0.98392 0.0
C451 C 0.67998 1.01453 0.05191 0.0
C452 C 0.6226 0.9871 0.03869 0.0
C453 C 0.61283 0.01835 0.96791 0.0
N454 N 0.62938 0.0742 0.85366 0.0
N455 N 0.67005 0.95167 0.12057 0.0
C456 C 0.63729 0.04684 0.93385 0.0
C457 C 0.6576 0.98385 0.07104 0.0
N458 N 0.69093 0.07637 0.9712 0.0
N459 N 0.59842 0.96086 0.07662 0.0
H460 H 0.6959 0.94862 0.14407 0.0
H461 H 0.65592 0.92759 0.12879 0.0
H462 H 0.57246 0.96194 0.05393 0.0
H463 H 0.60346 0.93927 0.13654 0.0
H464 H 0.68312 0.10149 0.93263 0.0
H465 H 0.7155 0.0766 0.00459 0.0
H466 H 0.64753 0.09361 0.81867 0.0
H467 H 0.60534 0.07607 0.81671 0.0
C468 C 0.53389 0.6176 0.11796 0.0
C469 C 0.51118 0.64672 0.09291 0.0
C470 C 0.48237 0.6157 0.96792 0.0
C471 C 0.50181 0.58466 0.00727 0.0
N472 N 0.5356 0.55337 0.14921 0.0
N473 N 0.4584 0.66968 0.00689 0.0
C474 C 0.52419 0.58478 0.09198 0.0
C475 C 0.48376 0.64486 0.02127 0.0
N476 N 0.56463 0.62114 0.1672 0.0
N477 N 0.4638 0.61822 0.87855 0.0
H478 H 0.45792 0.69078 0.04615 0.0
H479 H 0.43628 0.66733 0.96275 0.0
H480 H 0.46204 0.59772 0.83709 0.0
H481 H 0.4523 0.64185 0.84182 0.0
H482 H 0.58266 0.60079 0.18136 0.0
H483 H 0.57343 0.64559 0.18313 0.0
H484 H 0.55047 0.55224 0.21603 0.0
H485 H 0.5267 0.52859 0.13579 0.0
C486 C 0.9285 0.53469 0.06845 0.0
C487 C 0.92314 0.50397 0.14763 0.0
C488 C 0.97572 0.47814 0.09331 0.0
C489 C 0.97786 0.50659 0.00527 0.0
N490 N 0.94841 0.55555 0.89459 0.0
N491 N 0.93873 0.44408 0.22902 0.0
C492 C 0.95208 0.53312 0.98855 0.0
C493 C 0.94586 0.47483 0.15815 0.0
N494 N 0.91213 0.56592 0.0708 0.0
N495 N 1.00267 0.45538 0.11762 0.0
H496 H 0.917 0.441 0.2775 0.0
H497 H 0.95265 0.42077 0.2334 0.0
H498 H 0.02559 0.45794 0.07442 0.0
H499 H 1.00373 0.43627 0.1862 0.0
H500 H 0.91826 0.58983 0.01925 0.0
H501 H 0.89548 0.56913 0.13036 0.0
H502 H 0.92777 0.57292 0.87758 0.0
H503 H 0.96299 0.55366 0.82999 0.0
C504 C 0.071 0.17915 0.1518 0.0
C505 C 0.09675 0.17817 0.22881 0.0
C506 C 0.11196 0.11776 0.20858 0.0
C507 C 0.08149 0.11622 0.14923 0.0
N508 N 0.03017 0.14448 0.0696 0.0
N509 N 0.14427 0.1486 0.32501 0.0
C510 C 0.06086 0.14692 0.12025 0.0
C511 C 0.11868 0.14832 0.2533 0.0
N512 N 0.05524 0.21064 0.11289 0.0
N513 N 0.13395 0.08972 0.22285 0.0
H514 H 0.1501 0.17142 0.35494 0.0
H515 H 0.15881 0.12643 0.35656 0.0
H516 H 0.12891 0.06702 0.19169 0.0
H517 H 0.15798 0.08988 0.25909 0.0
H518 H 0.03806 0.21394 0.05074 0.0
H519 H 0.06228 0.23439 0.13615 0.0
H520 H 1.01227 0.16488 0.05561 0.0
H521 H 0.02099 0.12089 0.04943 0.0
C522 C 0.34846 0.99234 0.22245 0.0
C523 C 0.33475 0.02471 0.23923 0.0
C524 C 0.37982 0.05821 0.12593 0.0
C525 C 0.39837 0.02616 0.13359 0.0
N526 N 0.40021 0.96196 0.18686 0.0
N527 N 0.33389 0.08877 0.19694 0.0
C528 C 0.38223 0.99278 0.17847 0.0
C529 C 0.34882 0.05781 0.18494 0.0
N530 N 0.32993 0.9612 0.25596 0.0
N531 N 0.3921 0.08878 0.06247 0.0
H532 H 0.31053 0.08856 0.23719 0.0
H533 H 0.34497 0.11415 0.17016 0.0
H534 H 0.41439 0.08916 0.01724 0.0
H535 H 0.37871 0.11262 0.04756 0.0
H536 H 0.33712 0.93658 0.24116 0.0
H537 H 0.30552 0.9611 0.29051 0.0
H538 H 0.39114 0.9372 0.22788 0.0
H539 H 0.42545 0.96149 0.15891 0.0
C540 C 0.55381 0.37103 0.15103 0.0
C541 C 0.5296 0.36566 0.23343 0.0
C542 C 0.49889 0.41941 0.15074 0.0
C543 C 0.52331 0.42514 0.06808 0.0
N544 N 0.56601 0.39939 0.97306 0.0
N545 N 0.47319 0.37709 0.29512 0.0
C546 C 0.54834 0.39872 0.06304 0.0
C547 C 0.49989 0.38717 0.22659 0.0
N548 N 0.58275 0.35074 0.15875 0.0
N549 N 0.47652 0.44566 0.16163 0.0
H550 H 0.47352 0.35332 0.35065 0.0
H551 H 0.44961 0.39012 0.28978 0.0
H552 H 0.47588 0.47038 0.11074 0.0
H553 H 0.46082 0.44423 0.2267 0.0
H554 H 0.6035 0.35634 0.10688 0.0
H555 H 0.58661 0.3293 0.22043 0.0
H556 H 0.58243 0.37919 0.96208 0.0
H557 H 0.56095 0.41803 0.90575 0.0
C558 C 0.17984 0.5389 0.01146 0.0
C559 C 0.19585 0.50644 0.05255 0.0
C560 C 0.15593 0.47672 0.94925 0.0
C561 C 0.13367 0.50668 0.93697 0.0
N562 N 0.12308 0.56329 0.98951 0.0
N563 N 0.1998 0.44338 0.05867 0.0
C564 C 0.14543 0.53746 0.97513 0.0
C565 C 0.18442 0.475 0.01954 0.0
N566 N 0.19549 0.57045 0.0217 0.0
N567 N 0.15104 0.45078 0.89247 0.0
H568 H 0.22148 0.44208 0.10695 0.0
H569 H 0.19005 0.41879 0.04662 0.0
H570 H 0.13286 0.45256 0.8332 0.0
H571 H 0.16812 0.42985 0.89532 0.0
H572 H 0.1852 0.59523 0.98938 0.0
H573 H 0.22029 0.57123 0.05368 0.0
H574 H 0.13078 0.58495 0.02229 0.0
H575 H 0.09619 0.5602 0.98565 0.0
C576 C 1.00061 0.83355 0.53861 0.0
C577 C 0.01866 0.83241 0.44569 0.0
C578 C 0.03108 0.89529 0.42086 0.0
C579 C 0.01612 0.89776 0.51813 0.0
N580 N 1.00092 0.86188 0.68761 0.0
N581 N 0.06568 0.85862 0.33397 0.0
C582 C 1.00494 0.86468 0.58372 0.0
C583 C 0.04108 0.8616 0.40549 0.0
N584 N 0.97932 0.8056 0.58251 0.0
N585 N 0.02979 0.92276 0.3368 0.0
H586 H 0.07139 0.83376 0.31727 0.0
H587 H 0.08155 0.88039 0.29953 0.0
H588 H 0.01454 0.94503 0.33572 0.0
H589 H 0.03894 0.92034 0.26403 0.0
H590 H 0.96345 0.80646 0.64598 0.0
H591 H 0.97701 0.78248 0.55168 0.0
H592 H 0.99392 0.83774 0.73685 0.0
H593 H 1.01031 0.88163 0.72549 0.0
C594 C 0.69624 0.97107 0.45257 0.0
C595 C 0.71182 1.00501 0.4118 0.0
C596 C 0.66829 0.03346 0.50176 0.0
C597 C 0.64841 1.00098 0.51978 0.0
N598 N 0.64414 0.93782 0.52532 0.0
N599 N 0.71756 0.06756 0.41189 0.0
C600 C 0.66307 0.96917 0.5016 0.0
C601 C 0.6999 0.03578 0.44427 0.0
N602 N 0.71254 0.94116 0.43787 0.0
N603 N 0.6562 0.06202 0.53768 0.0
H604 H 0.74114 0.06887 0.37205 0.0
H605 H 0.70901 0.09218 0.42277 0.0
H606 H 0.63301 0.06051 0.57939 0.0
H607 H 0.66993 0.08616 0.53263 0.0
H608 H 0.70385 0.91513 0.46864 0.0
H609 H 0.73665 0.9429 0.4007 0.0
H610 H 0.65158 0.91397 0.506 0.0
H611 H 0.62002 0.93612 0.5622 0.0
C612 C 0.49263 0.63885 0.4839 0.0
C613 C 0.5198 0.66395 0.44985 0.0
C614 C 0.55486 0.63181 0.59418 0.0
C615 C 0.53112 0.60169 0.60672 0.0
N616 N 0.48281 0.57545 0.52535 0.0
N617 N 0.57935 0.68247 0.47107 0.0
C618 C 0.50113 0.60492 0.54195 0.0
C619 C 0.55169 0.66017 0.50508 0.0
N620 N 0.45959 0.6458 0.44975 0.0
N621 N 0.57936 0.63458 0.6673 0.0
H622 H 0.57777 0.70387 0.40821 0.0
H623 H 0.60418 0.67821 0.50207 0.0
H624 H 0.58088 0.61669 0.73794 0.0
H625 H 0.5953 0.65735 0.66317 0.0
H626 H 0.43866 0.62835 0.4756 0.0
H627 H 0.45325 0.67047 0.4039 0.0
H628 H 0.46201 0.57719 0.47385 0.0
H629 H 0.49153 0.54949 0.54948 0.0
C630 C 0.90013 0.5057 0.57085 0.0
C631 C 0.89658 0.53214 0.47973 0.0
C632 C 0.95121 0.56146 0.51651 0.0
C633 C 0.95603 0.53373 0.60508 0.0
N634 N 0.92879 0.48783 0.73641 0.0
N635 N 0.91097 0.59138 0.38677 0.0
C636 C 0.92837 0.50853 0.63889 0.0
C637 C 0.91924 0.56257 0.46166 0.0
N638 N 0.87766 0.47683 0.58881 0.0
N639 N 0.97792 0.58473 0.47892 0.0
H640 H 0.88787 0.59183 0.34485 0.0
H641 H 0.92497 0.61562 0.37392 0.0
H642 H 1.00258 0.58371 0.51173 0.0
H643 H 0.97668 0.60316 0.40916 0.0
H644 H 0.88133 0.45424 0.6467 0.0
H645 H 0.85599 0.4752 0.54207 0.0
H646 H 0.90807 0.4711 0.76798 0.0
H647 H 0.94827 0.49031 0.78976 0.0
loop_
_geom_bond_atom_site_label_1
_geom_bond_atom_site_label_2
_geom_bond_distance
_geom_bond_site_symmetry_2
_ccdc_geom_bond_type
H0 C5 0.930 . S
H1 C8 0.930 . S
H2 C10 0.930 . S
H3 C4 1.016 . S
C4 H3 1.016 . S
C4 N11 1.286 . S
C5 H0 0.930 . S
C5 C6 1.397 . S
C5 C7 1.361 . S
C6 C5 1.397 . S
C6 C10 1.390 . S
C7 C5 1.361 . S
C7 C8 1.393 . S
C7 N11 1.413 . S
C8 H1 0.930 . S
C8 C7 1.393 . S
C8 C9 1.399 . S
C9 C8 1.399 . S
C9 C10 1.381 . S
C10 H2 0.930 . S
C10 C6 1.390 . S
C10 C9 1.381 . S
N11 C4 1.286 . S
N11 C7 1.413 . S
H12 C17 0.930 . S
H13 C20 0.930 1_556 S
H14 C22 0.930 . S
H15 C16 1.016 1_556 S
C16 H15 1.016 1_554 S
C16 N23 1.286 . S
C17 H12 0.930 . S
C17 C18 1.397 . S
C17 C19 1.361 . S
C18 C17 1.397 . S
C18 C22 1.390 . S
C19 C17 1.361 . S
C19 C20 1.393 . S
C19 N23 1.413 . S
C20 H13 0.930 1_554 S
C20 C19 1.393 . S
C20 C21 1.399 . S
C21 C20 1.399 . S
C21 C22 1.381 . S
C22 H14 0.930 . S
C22 C18 1.390 . S
C22 C21 1.381 . S
N23 C16 1.286 . S
N23 C19 1.413 . S
H24 C29 0.930 . S
H25 C32 0.930 . S
H26 C34 0.930 . S
H27 C28 1.016 . S
C28 H27 1.016 . S
C28 N35 1.286 1_566 S
C29 H24 0.930 . S
C29 C30 1.397 . S
C29 C31 1.361 . S
C30 C29 1.397 . S
C30 C34 1.390 1_545 S
C31 C29 1.361 . S
C31 C32 1.393 1_554 S
C31 N35 1.413 . S
C32 H25 0.930 . S
C32 C31 1.393 1_556 S
C32 C33 1.401 . S
C33 C32 1.401 . S
C33 C34 1.383 1_546 S
C34 H26 0.930 . S
C34 C30 1.390 1_565 S
C34 C33 1.383 1_564 S
N35 C28 1.286 1_544 S
N35 C31 1.413 . S
H36 C41 0.930 . S
H37 C44 0.920 1_556 S
H38 C46 0.930 . S
H39 C40 1.016 1_556 S
C40 H39 1.016 1_554 S
C40 N47 1.286 . S
C41 H36 0.930 . S
C41 C42 1.397 . S
C41 C43 1.361 . S
C42 C41 1.397 . S
C42 C46 1.390 . S
C43 C41 1.361 . S
C43 C44 1.393 . S
C43 N47 1.413 . S
C44 H37 0.920 1_554 S
C44 C43 1.393 . S
C44 C45 1.399 . S
C45 C44 1.399 . S
C45 C46 1.381 . S
C46 H38 0.930 . S
C46 C42 1.390 . S
C46 C45 1.381 . S
N47 C40 1.286 . S
N47 C43 1.413 . S
H48 C53 0.930 . S
H49 C56 0.930 . S
H50 C58 0.930 . S
H51 C52 1.016 . S
C52 H51 1.016 . S
C52 N59 1.286 . S
C53 H48 0.930 . S
C53 C54 1.397 . S
C53 C55 1.361 . S
C54 C53 1.397 . S
C54 C58 1.390 . S
C55 C53 1.361 . S
C55 C56 1.393 . S
C55 N59 1.413 . S
C56 H49 0.930 . S
C56 C55 1.393 . S
C56 C57 1.399 . S
C57 C56 1.399 . S
C57 C58 1.381 . S
C58 H50 0.930 . S
C58 C54 1.390 . S
C58 C57 1.381 . S
N59 C52 1.286 . S
N59 C55 1.413 . S
H60 C65 0.930 . S
H61 C68 0.930 . S
H62 C70 0.930 . S
H63 C64 1.016 . S
C64 H63 1.016 . S
C64 N71 1.286 . S
C65 H60 0.930 . S
C65 C66 1.397 . S
C65 C67 1.361 . S
C66 C65 1.397 . S
C66 C70 1.390 . S
C67 C65 1.361 . S
C67 C68 1.393 . S
C67 N71 1.413 . S
C68 H61 0.930 . S
C68 C67 1.393 . S
C68 C69 1.399 . S
C69 C68 1.399 . S
C69 C70 1.381 . S
C70 H62 0.930 . S
C70 C66 1.390 . S
C70 C69 1.381 . S
N71 C64 1.286 . S
N71 C67 1.413 . S
H72 C77 0.930 . S
H73 C80 0.930 . S
H74 C82 0.930 . S
H75 C76 1.021 . S
C76 H75 1.021 . S
C76 N83 1.277 1_565 S
C77 H72 0.930 . S
C77 C78 1.397 . S
C77 C79 1.361 . S
C78 C77 1.397 . S
C78 C82 1.390 1_545 S
C79 C77 1.361 . S
C79 C80 1.393 . S
C79 N83 1.413 . S
C80 H73 0.930 . S
C80 C79 1.393 . S
C80 C81 1.406 . S
C81 C80 1.406 . S
C81 C82 1.372 1_545 S
C82 H74 0.930 . S
C82 C78 1.390 1_565 S
C82 C81 1.372 1_565 S
N83 C76 1.277 1_545 S
N83 C79 1.413 . S
H84 C89 0.930 . S
H85 C92 0.930 . S
H86 C94 0.930 . S
H87 C88 1.016 . S
C88 H87 1.016 . S
C88 N95 1.286 . S
C89 H84 0.930 . S
C89 C90 1.397 . S
C89 C91 1.361 . S
C90 C89 1.397 . S
C90 C94 1.390 . S
C91 C89 1.361 . S
C91 C92 1.393 . S
C91 N95 1.413 . S
C92 H85 0.930 . S
C92 C91 1.393 . S
C92 C93 1.399 . S
C93 C92 1.399 . S
C93 C94 1.381 . S
C94 H86 0.930 . S
C94 C90 1.390 . S
C94 C93 1.381 . S
N95 C88 1.286 . S
N95 C91 1.413 . S
Co96 N101 2.057 1_556 S
Co96 O113 2.021 . S
Co96 O116 2.062 . S
Co96 O120 2.117 1_455 S
Co96 O121 2.020 1_545 S
C97 O117 1.259 1_545 S
C97 O120 1.258 . S
Co98 N107 2.057 . S
Co98 O114 2.117 . S
Co98 O115 2.020 1_565 S
Co98 O117 2.021 1_455 S
Co98 O122 2.062 . S
C99 N101 1.316 . S
C99 N102 1.347 . S
C99 H104 0.931 . S
C100 N101 1.375 . S
C100 C103 1.350 . S
C100 H105 0.930 1_455 S
N101 Co96 2.057 1_554 S
N101 C99 1.316 . S
N101 C100 1.375 . S
N102 C99 1.347 . S
N102 C103 1.373 . S
C103 C100 1.350 . S
C103 N102 1.373 . S
C103 H124 0.912 1_455 S
H104 C99 0.931 . S
H105 C100 0.930 1_655 S
C106 O113 1.259 1_565 S
C106 O114 1.258 . S
N107 Co98 2.057 . S
N107 C108 1.316 1_455 S
N107 C109 1.375 . S
C108 N107 1.316 1_655 S
C108 N110 1.347 . S
C108 H119 0.931 . S
C109 N107 1.375 . S
C109 C111 1.350 . S
C109 H118 0.930 . S
N110 C108 1.347 . S
N110 C111 1.373 1_655 S
C111 C109 1.350 . S
C111 N110 1.373 1_455 S
C111 H125 0.931 . S
C112 O115 1.256 . S
C112 O116 1.255 . S
O113 Co96 2.021 . S
O113 C106 1.259 1_545 S
O114 Co98 2.117 . S
O114 C106 1.258 . S
O115 Co98 2.020 1_545 S
O115 C112 1.256 . S
O116 Co96 2.062 . S
O116 C112 1.255 . S
O117 C97 1.259 1_565 S
O117 Co98 2.021 1_655 S
H118 C109 0.930 . S
H119 C108 0.931 . S
O120 Co96 2.117 1_655 S
O120 C97 1.258 . S
O121 Co96 2.020 1_565 S
O121 C123 1.256 . S
O122 Co98 2.062 . S
O122 C123 1.255 . S
C123 O121 1.256 . S
C123 O122 1.255 . S
H124 C103 0.912 1_655 S
H125 C111 0.931 . S
Co126 N131 2.057 1_546 S
Co126 O143 2.021 . S
Co126 O146 2.062 . S
Co126 O150 2.117 1_545 S
Co126 O151 2.020 . S
C127 O147 1.259 . S
C127 O150 1.258 . S
Co128 N137 2.057 1_565 S
Co128 O144 2.117 1_565 S
Co128 O145 2.020 . S
Co128 O147 2.021 . S
Co128 O152 2.062 . S
C129 N131 1.316 1_545 S
C129 N132 1.347 . S
C129 H134 0.931 . S
C130 N131 1.375 . S
C130 C133 1.350 . S
C130 H135 0.930 . S
N131 Co126 2.057 1_564 S
N131 C129 1.316 1_565 S
N131 C130 1.375 . S
N132 C129 1.347 . S
N132 C133 1.373 1_545 S
C133 C130 1.350 . S
C133 N132 1.373 1_565 S
C133 H154 0.931 . S
H134 C129 0.931 . S
H135 C130 0.930 . S
C136 O143 1.259 . S
C136 O144 1.258 . S
N137 Co128 2.057 1_545 S
N137 C138 1.316 1_545 S
N137 C139 1.375 . S
C138 N137 1.316 1_565 S
C138 N140 1.347 . S
C138 H149 0.931 . S
C139 N137 1.375 . S
C139 C141 1.350 . S
C139 H148 0.930 . S
N140 C138 1.347 . S
N140 C141 1.373 1_565 S
C141 C139 1.350 . S
C141 N140 1.373 1_545 S
C141 H155 0.931 . S
C142 O145 1.256 . S
C142 O146 1.255 1_565 S
O143 Co126 2.021 . S
O143 C136 1.259 . S
O144 Co128 2.117 1_545 S
O144 C136 1.258 . S
O145 Co128 2.020 . S
O145 C142 1.256 . S
O146 Co126 2.062 . S
O146 C142 1.255 1_545 S
O147 C127 1.259 . S
O147 Co128 2.021 . S
H148 C139 0.930 . S
H149 C138 0.931 . S
O150 Co126 2.117 1_565 S
O150 C127 1.258 . S
O151 Co126 2.020 . S
O151 C153 1.256 . S
O152 Co128 2.062 . S
O152 C153 1.255 1_565 S
C153 O151 1.256 . S
C153 O152 1.255 1_545 S
H154 C133 0.931 . S
H155 C141 0.931 . S
Co156 N161 2.057 . S
Co156 O173 2.021 . S
Co156 O176 2.062 . S
Co156 O180 2.117 . S
Co156 O181 2.020 . S
C157 O177 1.259 . S
C157 O180 1.258 . S
Co158 N167 2.057 . S
Co158 O174 2.117 . S
Co158 O175 2.020 . S
Co158 O177 2.021 . S
Co158 O182 2.062 . S
C159 N161 1.316 . S
C159 N162 1.347 . S
C159 H164 0.931 . S
C160 N161 1.375 . S
C160 C163 1.350 1_556 S
C160 H165 0.930 1_556 S
N161 Co156 2.057 . S
N161 C159 1.316 . S
N161 C160 1.375 . S
N162 C159 1.347 . S
N162 C163 1.373 1_556 S
C163 C160 1.350 1_554 S
C163 N162 1.373 1_554 S
C163 H184 0.931 . S
H164 C159 0.931 . S
H165 C160 0.930 1_554 S
C166 O173 1.259 . S
C166 O174 1.258 . S
N167 Co158 2.057 . S
N167 C168 1.316 . S
N167 C169 1.375 . S
C168 N167 1.316 . S
C168 N170 1.347 . S
C168 H179 0.931 . S
C169 N167 1.375 . S
C169 C171 1.350 . S
C169 H178 0.930 . S
N170 C168 1.347 . S
N170 C171 1.373 . S
C171 C169 1.350 . S
C171 N170 1.373 . S
C171 H185 0.931 . S
C172 O175 1.256 . S
C172 O176 1.255 . S
O173 Co156 2.021 . S
O173 C166 1.259 . S
O174 Co158 2.117 . S
O174 C166 1.258 . S
O175 Co158 2.020 . S
O175 C172 1.256 . S
O176 Co156 2.062 . S
O176 C172 1.255 . S
O177 C157 1.259 . S
O177 Co158 2.021 . S
H178 C169 0.930 . S
H179 C168 0.931 . S
O180 Co156 2.117 . S
O180 C157 1.258 . S
O181 Co156 2.020 . S
O181 C183 1.256 . S
O182 Co158 2.062 . S
O182 C183 1.255 . S
C183 O181 1.256 . S
C183 O182 1.255 . S
H184 C163 0.931 . S
H185 C171 0.931 . S
Co186 N191 2.057 . S
Co186 O203 2.021 1_455 S
Co186 O206 2.062 1_455 S
Co186 O210 2.117 . S
Co186 O211 2.020 . S
C187 O207 1.259 . S
C187 O210 1.258 . S
Co188 N197 2.057 . S
Co188 O204 2.117 1_455 S
Co188 O205 2.020 1_455 S
Co188 O207 2.021 . S
Co188 O212 2.062 . S
C189 N191 1.316 . S
C189 N192 1.347 . S
C189 H194 0.931 1_455 S
C190 N191 1.375 . S
C190 C193 1.350 . S
C190 H195 0.930 . S
N191 Co186 2.057 . S
N191 C189 1.316 . S
N191 C190 1.375 . S
N192 C189 1.347 . S
N192 C193 1.373 . S
C193 C190 1.350 . S
C193 N192 1.373 . S
C193 H214 0.931 . S
H194 C189 0.931 1_655 S
H195 C190 0.930 . S
C196 O203 1.259 . S
C196 O204 1.258 . S
N197 Co188 2.057 . S
N197 C198 1.316 . S
N197 C199 1.375 1_455 S
C198 N197 1.316 . S
C198 N200 1.347 . S
C198 H209 0.931 . S
C199 N197 1.375 1_655 S
C199 C201 1.350 1_655 S
C199 H208 0.930 . S
N200 C198 1.347 . S
N200 C201 1.373 . S
C201 C199 1.350 1_455 S
C201 N200 1.373 . S
C201 H215 0.931 1_455 S
C202 O205 1.256 . S
C202 O206 1.255 . S
O203 Co186 2.021 1_655 S
O203 C196 1.259 . S
O204 Co188 2.117 1_655 S
O204 C196 1.258 . S
O205 Co188 2.020 1_655 S
O205 C202 1.256 . S
O206 Co186 2.062 1_655 S
O206 C202 1.255 . S
O207 C187 1.259 . S
O207 Co188 2.021 . S
H208 C199 0.930 . S
H209 C198 0.931 . S
O210 Co186 2.117 . S
O210 C187 1.258 . S
O211 Co186 2.020 . S
O211 C213 1.256 . S
O212 Co188 2.062 . S
O212 C213 1.255 . S
C213 O211 1.256 . S
C213 O212 1.255 . S
H214 C193 0.931 . S
H215 C201 0.931 1_655 S
C216 C217 1.363 1_545 S
C216 C222 1.379 . S
C216 N224 1.356 . S
C217 C216 1.363 1_565 S
C217 C223 1.363 . S
C218 C219 1.363 . S
C218 C223 1.379 . S
C218 N225 1.356 . S
C219 C218 1.363 . S
C219 C222 1.363 1_565 S
N220 C222 1.356 . S
N220 H232 0.984 . S
N220 H233 0.985 . S
N221 C223 1.356 . S
N221 H226 0.984 . S
N221 H227 0.985 . S
C222 C216 1.379 . S
C222 C219 1.363 1_545 S
C222 N220 1.356 . S
C223 C217 1.363 . S
C223 C218 1.379 . S
C223 N221 1.356 . S
N224 C216 1.356 . S
N224 H230 0.984 . S
N224 H231 0.984 . S
N225 C218 1.356 . S
N225 H228 0.984 . S
N225 H229 0.985 . S
H226 N221 0.984 . S
H227 N221 0.985 . S
H228 N225 0.984 . S
H229 N225 0.985 . S
H230 N224 0.984 . S
H231 N224 0.984 . S
H232 N220 0.984 . S
H233 N220 0.985 . S
C234 C235 1.363 . S
C234 C240 1.379 . S
C234 N242 1.356 . S
C235 C234 1.363 . S
C235 C241 1.363 . S
C236 C237 1.363 . S
C236 C241 1.379 . S
C236 N243 1.356 . S
C237 C236 1.363 . S
C237 C240 1.363 . S
N238 C240 1.356 . S
N238 H250 0.984 . S
N238 H251 0.985 . S
N239 C241 1.356 . S
N239 H244 0.984 . S
N239 H245 0.985 . S
C240 C234 1.379 . S
C240 C237 1.363 . S
C240 N238 1.356 . S
C241 C235 1.363 . S
C241 C236 1.379 . S
C241 N239 1.356 . S
N242 C234 1.356 . S
N242 H248 0.984 . S
N242 H249 0.984 . S
N243 C236 1.356 . S
N243 H246 0.984 . S
N243 H247 0.985 . S
H244 N239 0.984 . S
H245 N239 0.985 . S
H246 N243 0.984 . S
H247 N243 0.985 . S
H248 N242 0.984 . S
H249 N242 0.984 . S
H250 N238 0.984 . S
H251 N238 0.985 . S
C252 C253 1.363 . S
C252 C258 1.379 . S
C252 N260 1.356 . S
C253 C252 1.363 . S
C253 C259 1.363 . S
C254 C255 1.363 . S
C254 C259 1.379 . S
C254 N261 1.356 . S
C255 C254 1.363 . S
C255 C258 1.363 . S
N256 C258 1.356 . S
N256 H268 0.984 . S
N256 H269 0.985 . S
N257 C259 1.356 . S
N257 H262 0.984 . S
N257 H263 0.985 . S
C258 C252 1.379 . S
C258 C255 1.363 . S
C258 N256 1.356 . S
C259 C253 1.363 . S
C259 C254 1.379 . S
C259 N257 1.356 . S
N260 C252 1.356 . S
N260 H266 0.984 . S
N260 H267 0.984 . S
N261 C254 1.356 . S
N261 H264 0.984 . S
N261 H265 0.985 . S
H262 N257 0.984 . S
H263 N257 0.985 . S
H264 N261 0.984 . S
H265 N261 0.985 . S
H266 N260 0.984 . S
H267 N260 0.984 . S
H268 N256 0.984 . S
H269 N256 0.985 . S
C270 C271 1.363 . S
C270 C276 1.379 . S
C270 N278 1.356 . S
C271 C270 1.363 . S
C271 C277 1.363 . S
C272 C273 1.363 . S
C272 C277 1.379 . S
C272 N279 1.356 . S
C273 C272 1.363 . S
C273 C276 1.363 . S
N274 C276 1.356 1_655 S
N274 H286 0.984 . S
N274 H287 0.985 . S
N275 C277 1.356 . S
N275 H280 0.984 . S
N275 H281 0.985 . S
C276 C270 1.379 . S
C276 C273 1.363 . S
C276 N274 1.356 1_455 S
C277 C271 1.363 . S
C277 C272 1.379 . S
C277 N275 1.356 . S
N278 C270 1.356 . S
N278 H284 0.984 . S
N278 H285 0.984 . S
N279 C272 1.356 . S
N279 H282 0.984 . S
N279 H283 0.985 . S
H280 N275 0.984 . S
H281 N275 0.985 . S
H282 N279 0.984 . S
H283 N279 0.985 . S
H284 N278 0.984 . S
H285 N278 0.984 . S
H286 N274 0.984 . S
H287 N274 0.985 . S
C288 C289 1.363 . S
C288 C294 1.379 . S
C288 N296 1.356 . S
C289 C288 1.363 . S
C289 C295 1.363 1_545 S
C290 C291 1.363 1_565 S
C290 C295 1.379 . S
C290 N297 1.356 . S
C291 C290 1.363 1_545 S
C291 C294 1.363 . S
N292 C294 1.356 . S
N292 H304 0.984 . S
N292 H305 0.985 . S
N293 C295 1.356 1_554 S
N293 H298 0.984 . S
N293 H299 0.985 . S
C294 C288 1.379 . S
C294 C291 1.363 . S
C294 N292 1.356 . S
C295 C289 1.363 1_565 S
C295 C290 1.379 . S
C295 N293 1.356 1_556 S
N296 C288 1.356 . S
N296 H302 0.984 . S
N296 H303 0.984 . S
N297 C290 1.356 . S
N297 H300 0.984 . S
N297 H301 0.985 1_556 S
H298 N293 0.984 . S
H299 N293 0.985 . S
H300 N297 0.984 . S
H301 N297 0.985 1_554 S
H302 N296 0.984 . S
H303 N296 0.984 . S
H304 N292 0.984 . S
H305 N292 0.985 . S
C306 C307 1.363 . S
C306 C312 1.379 . S
C306 N314 1.356 . S
C307 C306 1.363 . S
C307 C313 1.363 1_554 S
C308 C309 1.363 . S
C308 C313 1.379 . S
C308 N315 1.356 . S
C309 C308 1.363 . S
C309 C312 1.363 1_556 S
N310 C312 1.356 . S
N310 H322 0.984 . S
N310 H323 0.985 1_554 S
N311 C313 1.356 . S
N311 H316 0.984 . S
N311 H317 0.985 . S
C312 C306 1.379 . S
C312 C309 1.363 1_554 S
C312 N310 1.356 . S
C313 C307 1.363 1_556 S
C313 C308 1.379 . S
C313 N311 1.356 . S
N314 C306 1.356 . S
N314 H320 0.984 . S
N314 H321 0.984 . S
N315 C308 1.356 . S
N315 H318 0.984 . S
N315 H319 0.985 . S
H316 N311 0.984 . S
H317 N311 0.985 . S
H318 N315 0.984 . S
H319 N315 0.985 . S
H320 N314 0.984 . S
H321 N314 0.984 . S
H322 N310 0.984 . S
H323 N310 0.985 1_556 S
C324 C325 1.363 1_556 S
C324 C330 1.379 . S
C324 N332 1.356 . S
C325 C324 1.363 1_554 S
C325 C331 1.363 . S
C326 C327 1.363 1_554 S
C326 C331 1.379 . S
C326 N333 1.356 . S
C327 C326 1.363 1_556 S
C327 C330 1.363 . S
N328 C330 1.356 . S
N328 H340 0.984 . S
N328 H341 0.985 . S
N329 C331 1.356 . S
N329 H334 0.984 . S
N329 H335 0.985 . S
C330 C324 1.379 . S
C330 C327 1.363 . S
C330 N328 1.356 . S
C331 C325 1.363 . S
C331 C326 1.379 . S
C331 N329 1.356 . S
N332 C324 1.356 . S
N332 H338 0.984 . S
N332 H339 0.984 1_556 S
N333 C326 1.356 . S
N333 H336 0.984 1_554 S
N333 H337 0.985 . S
H334 N329 0.984 . S
H335 N329 0.985 . S
H336 N333 0.984 1_556 S
H337 N333 0.985 . S
H338 N332 0.984 . S
H339 N332 0.984 1_554 S
H340 N328 0.984 . S
H341 N328 0.985 . S
C342 C343 1.363 1_556 S
C342 C348 1.378 1_655 S
C342 N350 1.356 . S
C343 C342 1.363 1_554 S
C343 C349 1.363 . S
C344 C345 1.363 . S
C344 C349 1.379 1_556 S
C344 N351 1.356 . S
C345 C344 1.363 . S
C345 C348 1.363 1_655 S
N346 C348 1.358 . S
N346 H358 0.984 . S
N346 H359 0.985 . S
N347 C349 1.356 . S
N347 H352 0.984 . S
N347 H353 0.985 . S
C348 C342 1.378 1_455 S
C348 C345 1.363 1_455 S
C348 N346 1.358 . S
C349 C343 1.363 . S
C349 C344 1.379 1_554 S
C349 N347 1.356 . S
N350 C342 1.356 . S
N350 H356 0.984 . S
N350 H357 0.984 . S
N351 C344 1.356 . S
N351 H354 0.984 . S
N351 H355 0.985 1_556 S
H352 N347 0.984 . S
H353 N347 0.985 . S
H354 N351 0.984 . S
H355 N351 0.985 1_554 S
H356 N350 0.984 . S
H357 N350 0.984 . S
H358 N346 0.984 . S
H359 N346 0.985 . S
C360 C361 1.363 . S
C360 C366 1.379 . S
C360 N368 1.356 . S
C361 C360 1.363 . S
C361 C367 1.363 . S
C362 C363 1.363 . S
C362 C367 1.379 . S
C362 N369 1.356 . S
C363 C362 1.363 . S
C363 C366 1.363 . S
N364 C366 1.356 . S
N364 H376 0.984 . S
N364 H377 0.985 1_455 S
N365 C367 1.356 . S
N365 H370 0.984 . S
N365 H371 0.985 . S
C366 C360 1.379 . S
C366 C363 1.363 . S
C366 N364 1.356 . S
C367 C361 1.363 . S
C367 C362 1.379 . S
C367 N365 1.356 . S
N368 C360 1.356 . S
N368 H374 0.984 . S
N368 H375 0.984 . S
N369 C362 1.356 . S
N369 H372 0.984 . S
N369 H373 0.985 . S
H370 N365 0.984 . S
H371 N365 0.985 . S
H372 N369 0.984 . S
H373 N369 0.985 . S
H374 N368 0.984 . S
H375 N368 0.984 . S
H376 N364 0.984 . S
H377 N364 0.985 1_655 S
C378 C379 1.361 . S
C378 C384 1.382 . S
C378 N386 1.358 1_565 S
C379 C378 1.361 . S
C379 C385 1.361 . S
C380 C381 1.363 . S
C380 C385 1.379 . S
C380 N387 1.356 . S
C381 C380 1.363 . S
C381 C384 1.363 . S
N382 C384 1.356 . S
N382 H394 0.984 . S
N382 H395 0.985 . S
N383 C385 1.356 . S
N383 H388 0.984 1_565 S
N383 H389 0.985 . S
C384 C378 1.382 . S
C384 C381 1.363 . S
C384 N382 1.356 . S
C385 C379 1.361 . S
C385 C380 1.379 . S
C385 N383 1.356 . S
N386 C378 1.358 1_545 S
N386 H392 0.984 . S
N386 H393 0.984 . S
N387 C380 1.356 . S
N387 H390 0.984 . S
N387 H391 0.985 . S
H388 N383 0.984 1_545 S
H389 N383 0.985 . S
H390 N387 0.984 . S
H391 N387 0.985 . S
H392 N386 0.984 . S
H393 N386 0.984 . S
H394 N382 0.984 . S
H395 N382 0.985 . S
C396 C397 1.363 . S
C396 C402 1.379 . S
C396 N404 1.356 . S
C397 C396 1.363 . S
C397 C403 1.363 . S
C398 C399 1.363 . S
C398 C403 1.379 . S
C398 N405 1.356 . S
C399 C398 1.363 . S
C399 C402 1.363 . S
N400 C402 1.356 . S
N400 H412 0.984 . S
N400 H413 0.985 . S
N401 C403 1.356 . S
N401 H406 0.984 . S
N401 H407 0.985 . S
C402 C396 1.379 . S
C402 C399 1.363 . S
C402 N400 1.356 . S
C403 C397 1.363 . S
C403 C398 1.379 . S
C403 N401 1.356 . S
N404 C396 1.356 . S
N404 H410 0.984 . S
N404 H411 0.984 . S
N405 C398 1.356 . S
N405 H408 0.984 . S
N405 H409 0.985 . S
H406 N401 0.984 . S
H407 N401 0.985 . S
H408 N405 0.984 . S
H409 N405 0.985 . S
H410 N404 0.984 . S
H411 N404 0.984 . S
H412 N400 0.984 . S
H413 N400 0.985 . S
C414 C415 1.363 . S
C414 C420 1.379 . S
C414 N422 1.356 . S
C415 C414 1.363 . S
C415 C421 1.363 . S
C416 C417 1.363 . S
C416 C421 1.379 . S
C416 N423 1.356 . S
C417 C416 1.363 . S
C417 C420 1.363 . S
N418 C420 1.356 . S
N418 H430 0.984 . S
N418 H431 0.985 . S
N419 C421 1.356 . S
N419 H424 0.984 . S
N419 H425 0.985 . S
C420 C414 1.379 . S
C420 C417 1.363 . S
C420 N418 1.356 . S
C421 C415 1.363 . S
C421 C416 1.379 . S
C421 N419 1.356 . S
N422 C414 1.356 . S
N422 H428 0.984 . S
N422 H429 0.984 . S
N423 C416 1.356 . S
N423 H426 0.984 . S
N423 H427 0.985 . S
H424 N419 0.984 . S
H425 N419 0.985 . S
H426 N423 0.984 . S
H427 N423 0.985 . S
H428 N422 0.984 . S
H429 N422 0.984 . S
H430 N418 0.984 . S
H431 N418 0.985 . S
C432 C433 1.363 . S
C432 C438 1.379 1_655 S
C432 N440 1.356 . S
C433 C432 1.363 . S
C433 C439 1.363 1_556 S
C434 C435 1.363 1_654 S
C434 C439 1.379 . S
C434 N441 1.356 . S
C435 C434 1.363 1_456 S
C435 C438 1.363 . S
N436 C438 1.356 . S
N436 H448 0.984 . S
N436 H449 0.985 . S
N437 C439 1.356 . S
N437 H442 0.984 . S
N437 H443 0.985 . S
C438 C432 1.379 1_455 S
C438 C435 1.363 . S
C438 N436 1.356 . S
C439 C433 1.363 1_554 S
C439 C434 1.379 . S
C439 N437 1.356 . S
N440 C432 1.356 . S
N440 H446 0.984 . S
N440 H447 0.984 . S
N441 C434 1.356 . S
N441 H444 0.984 1_655 S
N441 H445 0.985 . S
H442 N437 0.984 . S
H443 N437 0.985 . S
H444 N441 0.984 1_455 S
H445 N441 0.985 . S
H446 N440 0.984 . S
H447 N440 0.984 . S
H448 N436 0.984 . S
H449 N436 0.985 . S
C450 C451 1.382 . S
C450 C456 1.379 . S
C450 N458 1.356 . S
C451 C450 1.382 . S
C451 C457 1.346 1_545 S
C452 C453 1.363 1_565 S
C452 C457 1.379 . S
C452 N459 1.356 1_556 S
C453 C452 1.363 1_545 S
C453 C456 1.363 . S
N454 C456 1.356 . S
N454 H466 0.984 . S
N454 H467 0.985 . S
N455 C457 1.356 1_554 S
N455 H460 0.984 . S
N455 H461 0.985 . S
C456 C450 1.379 . S
C456 C453 1.363 . S
C456 N454 1.356 . S
C457 C451 1.346 1_565 S
C457 C452 1.379 . S
C457 N455 1.356 1_556 S
N458 C450 1.356 . S
N458 H464 0.984 . S
N458 H465 0.984 . S
N459 C452 1.356 1_554 S
N459 H462 0.984 . S
N459 H463 0.985 . S
H460 N455 0.984 . S
H461 N455 0.985 . S
H462 N459 0.984 . S
H463 N459 0.985 . S
H464 N458 0.984 . S
H465 N458 0.984 . S
H466 N454 0.984 . S
H467 N454 0.985 . S
C468 C469 1.363 . S
C468 C474 1.379 . S
C468 N476 1.356 . S
C469 C468 1.363 . S
C469 C475 1.363 1_554 S
C470 C471 1.363 . S
C470 C475 1.379 . S
C470 N477 1.356 . S
C471 C470 1.363 . S
C471 C474 1.363 1_556 S
N472 C474 1.356 . S
N472 H484 0.984 . S
N472 H485 0.985 . S
N473 C475 1.356 . S
N473 H478 0.984 . S
N473 H479 0.985 . S
C474 C468 1.379 . S
C474 C471 1.363 1_554 S
C474 N472 1.356 . S
C475 C469 1.363 1_556 S
C475 C470 1.379 . S
C475 N473 1.356 . S
N476 C468 1.356 . S
N476 H482 0.984 . S
N476 H483 0.984 . S
N477 C470 1.356 . S
N477 H480 0.984 . S
N477 H481 0.985 . S
H478 N473 0.984 . S
H479 N473 0.985 . S
H480 N477 0.984 . S
H481 N477 0.985 . S
H482 N476 0.984 . S
H483 N476 0.984 . S
H484 N472 0.984 . S
H485 N472 0.985 . S
C486 C487 1.363 1_556 S
C486 C492 1.379 . S
C486 N494 1.356 . S
C487 C486 1.363 1_554 S
C487 C493 1.363 . S
C488 C489 1.363 1_554 S
C488 C493 1.379 . S
C488 N495 1.356 . S
C489 C488 1.363 1_556 S
C489 C492 1.363 . S
N490 C492 1.356 . S
N490 H502 0.984 . S
N490 H503 0.985 . S
N491 C493 1.356 . S
N491 H496 0.984 . S
N491 H497 0.985 . S
C492 C486 1.379 . S
C492 C489 1.363 . S
C492 N490 1.356 . S
C493 C487 1.363 . S
C493 C488 1.379 . S
C493 N491 1.356 . S
N494 C486 1.356 . S
N494 H500 0.984 . S
N494 H501 0.984 1_556 S
N495 C488 1.356 . S
N495 H498 0.984 . S
N495 H499 0.985 . S
H496 N491 0.984 . S
H497 N491 0.985 . S
H498 N495 0.984 . S
H499 N495 0.985 . S
H500 N494 0.984 . S
H501 N494 0.984 1_554 S
H502 N490 0.984 . S
H503 N490 0.985 . S
C504 C505 1.363 . S
C504 C510 1.379 . S
C504 N512 1.356 . S
C505 C504 1.363 . S
C505 C511 1.363 . S
C506 C507 1.363 . S
C506 C511 1.379 . S
C506 N513 1.356 . S
C507 C506 1.363 . S
C507 C510 1.363 . S
N508 C510 1.356 . S
N508 H520 0.984 . S
N508 H521 0.985 . S
N509 C511 1.356 . S
N509 H514 0.984 . S
N509 H515 0.985 . S
C510 C504 1.379 . S
C510 C507 1.363 . S
C510 N508 1.356 . S
C511 C505 1.363 . S
C511 C506 1.379 . S
C511 N509 1.356 . S
N512 C504 1.356 . S
N512 H518 0.984 . S
N512 H519 0.984 . S
N513 C506 1.356 . S
N513 H516 0.984 . S
N513 H517 0.985 . S
H514 N509 0.984 . S
H515 N509 0.985 . S
H516 N513 0.984 . S
H517 N513 0.985 . S
H518 N512 0.984 . S
H519 N512 0.984 . S
H520 N508 0.984 . S
H521 N508 0.985 . S
C522 C523 1.363 1_565 S
C522 C528 1.379 . S
C522 N530 1.356 . S
C523 C522 1.363 1_545 S
C523 C529 1.363 . S
C524 C525 1.363 . S
C524 C529 1.379 . S
C524 N531 1.356 . S
C525 C524 1.363 . S
C525 C528 1.363 1_545 S
N526 C528 1.356 . S
N526 H538 0.984 . S
N526 H539 0.985 . S
N527 C529 1.356 . S
N527 H532 0.984 . S
N527 H533 0.985 . S
C528 C522 1.379 . S
C528 C525 1.363 1_565 S
C528 N526 1.356 . S
C529 C523 1.363 . S
C529 C524 1.379 . S
C529 N527 1.356 . S
N530 C522 1.356 . S
N530 H536 0.984 . S
N530 H537 0.984 . S
N531 C524 1.356 . S
N531 H534 0.984 . S
N531 H535 0.985 . S
H532 N527 0.984 . S
H533 N527 0.985 . S
H534 N531 0.984 . S
H535 N531 0.985 . S
H536 N530 0.984 . S
H537 N530 0.984 . S
H538 N526 0.984 . S
H539 N526 0.985 . S
C540 C541 1.363 . S
C540 C546 1.379 . S
C540 N548 1.356 . S
C541 C540 1.363 . S
C541 C547 1.363 . S
C542 C543 1.363 . S
C542 C547 1.379 . S
C542 N549 1.356 . S
C543 C542 1.363 . S
C543 C546 1.363 . S
N544 C546 1.356 1_556 S
N544 H556 0.984 . S
N544 H557 0.985 . S
N545 C547 1.356 . S
N545 H550 0.984 . S
N545 H551 0.985 . S
C546 C540 1.379 . S
C546 C543 1.363 . S
C546 N544 1.356 1_554 S
C547 C541 1.363 . S
C547 C542 1.379 . S
C547 N545 1.356 . S
N548 C540 1.356 . S
N548 H554 0.984 . S
N548 H555 0.984 . S
N549 C542 1.356 . S
N549 H552 0.984 . S
N549 H553 0.985 . S
H550 N545 0.984 . S
H551 N545 0.985 . S
H552 N549 0.984 . S
H553 N549 0.985 . S
H554 N548 0.984 . S
H555 N548 0.984 . S
H556 N544 0.984 . S
H557 N544 0.985 . S
C558 C559 1.363 . S
C558 C564 1.379 . S
C558 N566 1.356 . S
C559 C558 1.363 . S
C559 C565 1.363 . S
C560 C561 1.363 . S
C560 C565 1.379 . S
C560 N567 1.356 . S
C561 C560 1.363 . S
C561 C564 1.363 . S
N562 C564 1.356 . S
N562 H574 0.984 . S
N562 H575 0.985 . S
N563 C565 1.356 . S
N563 H568 0.984 . S
N563 H569 0.985 . S
C564 C558 1.379 . S
C564 C561 1.363 . S
C564 N562 1.356 . S
C565 C559 1.363 . S
C565 C560 1.379 . S
C565 N563 1.356 . S
N566 C558 1.356 . S
N566 H572 0.984 . S
N566 H573 0.984 . S
N567 C560 1.356 . S
N567 H570 0.984 1_554 S
N567 H571 0.985 1_554 S
H568 N563 0.984 . S
H569 N563 0.985 . S
H570 N567 0.984 1_556 S
H571 N567 0.985 1_556 S
H572 N566 0.984 . S
H573 N566 0.984 . S
H574 N562 0.984 . S
H575 N562 0.985 . S
C576 C577 1.363 . S
C576 C582 1.379 . S
C576 N584 1.356 . S
C577 C576 1.363 . S
C577 C583 1.363 . S
C578 C579 1.363 . S
C578 C583 1.379 . S
C578 N585 1.356 . S
C579 C578 1.363 . S
C579 C582 1.363 . S
N580 C582 1.356 . S
N580 H592 0.984 . S
N580 H593 0.985 . S
N581 C583 1.356 . S
N581 H586 0.984 . S
N581 H587 0.985 . S
C582 C576 1.379 . S
C582 C579 1.363 . S
C582 N580 1.356 . S
C583 C577 1.363 . S
C583 C578 1.379 . S
C583 N581 1.356 . S
N584 C576 1.356 . S
N584 H590 0.984 . S
N584 H591 0.984 . S
N585 C578 1.356 . S
N585 H588 0.984 . S
N585 H589 0.985 . S
H586 N581 0.984 . S
H587 N581 0.985 . S
H588 N585 0.984 . S
H589 N585 0.985 . S
H590 N584 0.984 . S
H591 N584 0.984 . S
H592 N580 0.984 . S
H593 N580 0.985 . S
C594 C595 1.363 . S
C594 C600 1.379 . S
C594 N602 1.356 . S
C595 C594 1.363 . S
C595 C601 1.363 1_565 S
C596 C597 1.363 1_545 S
C596 C601 1.379 . S
C596 N603 1.356 . S
C597 C596 1.363 1_565 S
C597 C600 1.363 . S
N598 C600 1.356 . S
N598 H610 0.984 . S
N598 H611 0.985 . S
N599 C601 1.356 . S
N599 H604 0.984 . S
N599 H605 0.985 . S
C600 C594 1.379 . S
C600 C597 1.363 . S
C600 N598 1.356 . S
C601 C595 1.363 1_545 S
C601 C596 1.379 . S
C601 N599 1.356 . S
N602 C594 1.356 . S
N602 H608 0.984 . S
N602 H609 0.984 . S
N603 C596 1.356 . S
N603 H606 0.984 . S
N603 H607 0.985 . S
H604 N599 0.984 . S
H605 N599 0.985 . S
H606 N603 0.984 . S
H607 N603 0.985 . S
H608 N602 0.984 . S
H609 N602 0.984 . S
H610 N598 0.984 . S
H611 N598 0.985 . S
C612 C613 1.363 . S
C612 C618 1.379 . S
C612 N620 1.356 . S
C613 C612 1.363 . S
C613 C619 1.363 . S
C614 C615 1.363 . S
C614 C619 1.379 . S
C614 N621 1.356 . S
C615 C614 1.363 . S
C615 C618 1.363 . S
N616 C618 1.356 . S
N616 H628 0.984 . S
N616 H629 0.985 . S
N617 C619 1.356 . S
N617 H622 0.984 . S
N617 H623 0.985 . S
C618 C612 1.379 . S
C618 C615 1.363 . S
C618 N616 1.356 . S
C619 C613 1.363 . S
C619 C614 1.379 . S
C619 N617 1.356 . S
N620 C612 1.356 . S
N620 H626 0.984 . S
N620 H627 0.984 . S
N621 C614 1.356 . S
N621 H624 0.984 . S
N621 H625 0.985 . S
H622 N617 0.984 . S
H623 N617 0.985 . S
H624 N621 0.984 . S
H625 N621 0.985 . S
H626 N620 0.984 . S
H627 N620 0.984 . S
H628 N616 0.984 . S
H629 N616 0.985 . S
C630 C631 1.363 . S
C630 C636 1.379 . S
C630 N638 1.356 . S
C631 C630 1.363 . S
C631 C637 1.363 . S
C632 C633 1.363 . S
C632 C637 1.379 . S
C632 N639 1.356 . S
C633 C632 1.363 . S
C633 C636 1.363 . S
N634 C636 1.356 . S
N634 H646 0.984 . S
N634 H647 0.985 . S
N635 C637 1.356 . S
N635 H640 0.984 . S
N635 H641 0.985 . S
C636 C630 1.379 . S
C636 C633 1.363 . S
C636 N634 1.356 . S
C637 C631 1.363 . S
C637 C632 1.379 . S
C637 N635 1.356 . S
N638 C630 1.356 . S
N638 H644 0.984 . S
N638 H645 0.984 . S
N639 C632 1.356 . S
N639 H642 0.984 . S
N639 H643 0.985 . S
H640 N635 0.984 . S
H641 N635 0.985 . S
H642 N639 0.984 . S
H643 N639 0.985 . S
H644 N638 0.984 . S
H645 N638 0.984 . S
H646 N634 0.984 . S
H647 N634 0.985 . S
C217 C76 1.704 . S
C219 C106 1.720 . S
C237 C136 1.803 . S
C235 C88 1.770 . S
C255 N170 1.381 . S
C253 C52 1.387 . S
C273 N200 1.479 . S
C271 C64 1.448 . S
C291 C97 1.720 . S
C289 C28 1.709 1_545 S
C307 C40 1.782 . S
C309 C127 1.806 . S
C325 C4 1.391 . S
C327 N162 1.381 . S
C343 C16 1.466 . S
C345 N192 1.479 1_655 S
C363 C112 0.727 . S
C361 C69 0.732 . S
C381 C142 1.102 . S
C379 C81 1.039 1_565 S
C399 C183 1.357 . S
C397 C93 1.325 . S
C415 C57 0.847 . S
C417 C213 0.845 . S
C433 C21 0.736 1_556 S
C435 C123 0.730 . S
C453 C153 1.102 . S
C451 C33 1.034 . S
C471 C172 1.357 . S
C469 C45 1.316 . S
C487 C9 0.845 . S
C489 C202 0.845 . S
C505 C66 1.472 . S
C507 N102 1.490 . S
C523 C78 1.431 . S
C525 N132 1.445 . S
C543 C157 1.669 1_554 S
C541 C90 1.640 . S
C561 C187 1.597 1_554 S
C559 C54 1.565 . S
C577 C18 1.460 . S
C579 N110 1.495 . S
C597 N140 1.445 . S
C595 C30 1.438 1_565 S
C615 C166 1.668 . S
C613 C42 1.633 . S
C631 C6 1.565 . S
C633 C196 1.597 . S
