# Generated by pormake.
# Topology ptr, (4,4)-cn, num edge types: 1
# Building blocks:
#     Node 0, Type 0, BuildingBlock: NAHDIM_clean_sbu_0, # of connection points: 4
#     Node 1, Type 0, BuildingBlock: NAHDIM_clean_sbu_0, # of connection points: 4
#     Node 2, Type 0, BuildingBlock: NAHDIM_clean_sbu_0, # of connection points: 4
#     Node 3, Type 0, BuildingBlock: NAHDIM_clean_sbu_0, # of connection points: 4
#     Node 4, Type 0, BuildingBlock: NAHDIM_clean_sbu_0, # of connection points: 4
#     Node 5, Type 0, BuildingBlock: NAHDIM_clean_sbu_0, # of connection points: 4
#     Node 6, Type 0, BuildingBlock: NAHDIM_clean_sbu_0, # of connection points: 4
#     Node 7, Type 0, BuildingBlock: NAHDIM_clean_sbu_0, # of connection points: 4
#     Node 8, Type 0, BuildingBlock: NAHDIM_clean_sbu_0, # of connection points: 4
#     Node 9, Type 0, BuildingBlock: NAHDIM_clean_sbu_0, # of connection points: 4
#     Node 10, Type 0, BuildingBlock: NAHDIM_clean_sbu_0, # of connection points: 4
#     Node 11, Type 0, BuildingBlock: NAHDIM_clean_sbu_0, # of connection points: 4
#     Node 12, Type 0, BuildingBlock: NAHDIM_clean_sbu_0, # of connection points: 4
#     Node 13, Type 0, BuildingBlock: NAHDIM_clean_sbu_0, # of connection points: 4
#     Node 14, Type 0, BuildingBlock: NAHDIM_clean_sbu_0, # of connection points: 4
#     Node 15, Type 0, BuildingBlock: NAHDIM_clean_sbu_0, # of connection points: 4
#     Node 16, Type 0, BuildingBlock: NAHDIM_clean_sbu_0, # of connection points: 4
#     Node 17, Type 0, BuildingBlock: NAHDIM_clean_sbu_0, # of connection points: 4
#     Node 18, Type 1, BuildingBlock: NAWXER_clean_linker_0, # of connection points: 4
#     Node 19, Type 1, BuildingBlock: NAWXER_clean_linker_0, # of connection points: 4
#     Node 20, Type 1, BuildingBlock: NAWXER_clean_linker_0, # of connection points: 4
#     Node 21, Type 1, BuildingBlock: NAWXER_clean_linker_0, # of connection points: 4
#     Node 22, Type 1, BuildingBlock: NAWXER_clean_linker_0, # of connection points: 4
#     Node 23, Type 1, BuildingBlock: NAWXER_clean_linker_0, # of connection points: 4
#     Node 24, Type 1, BuildingBlock: NAWXER_clean_linker_0, # of connection points: 4
#     Node 25, Type 1, BuildingBlock: NAWXER_clean_linker_0, # of connection points: 4
#     Node 26, Type 1, BuildingBlock: NAWXER_clean_linker_0, # of connection points: 4
#     Node 27, Type 1, BuildingBlock: NAWXER_clean_linker_0, # of connection points: 4
#     Node 28, Type 1, BuildingBlock: NAWXER_clean_linker_0, # of connection points: 4
#     Node 29, Type 1, BuildingBlock: NAWXER_clean_linker_0, # of connection points: 4
#     Node 30, Type 1, BuildingBlock: NAWXER_clean_linker_0, # of connection points: 4
#     Node 31, Type 1, BuildingBlock: NAWXER_clean_linker_0, # of connection points: 4
#     Node 32, Type 1, BuildingBlock: NAWXER_clean_linker_0, # of connection points: 4
#     Node 33, Type 1, BuildingBlock: NAWXER_clean_linker_0, # of connection points: 4
#     Node 34, Type 1, BuildingBlock: NAWXER_clean_linker_0, # of connection points: 4
#     Node 35, Type 1, BuildingBlock: NAWXER_clean_linker_0, # of connection points: 4
#     Edge 36, Type (0, 1), BuildingBlock: OJICUG_clean_linker_0, # of connection points: 2
#     Edge 37, Type (0, 1), BuildingBlock: OJICUG_clean_linker_0, # of connection points: 2
#     Edge 38, Type (0, 1), BuildingBlock: OJICUG_clean_linker_0, # of connection points: 2
#     Edge 39, Type (0, 1), BuildingBlock: OJICUG_clean_linker_0, # of connection points: 2
#     Edge 40, Type (0, 1), BuildingBlock: OJICUG_clean_linker_0, # of connection points: 2
#     Edge 41, Type (0, 1), BuildingBlock: OJICUG_clean_linker_0, # of connection points: 2
#     Edge 42, Type (0, 1), BuildingBlock: OJICUG_clean_linker_0, # of connection points: 2
#     Edge 43, Type (0, 1), BuildingBlock: OJICUG_clean_linker_0, # of connection points: 2
#     Edge 44, Type (0, 1), BuildingBlock: OJICUG_clean_linker_0, # of connection points: 2
#     Edge 45, Type (0, 1), BuildingBlock: OJICUG_clean_linker_0, # of connection points: 2
#     Edge 46, Type (0, 1), BuildingBlock: OJICUG_clean_linker_0, # of connection points: 2
#     Edge 47, Type (0, 1), BuildingBlock: OJICUG_clean_linker_0, # of connection points: 2
#     Edge 48, Type (0, 1), BuildingBlock: OJICUG_clean_linker_0, # of connection points: 2
#     Edge 49, Type (0, 1), BuildingBlock: OJICUG_clean_linker_0, # of connection points: 2
#     Edge 50, Type (0, 1), BuildingBlock: OJICUG_clean_linker_0, # of connection points: 2
#     Edge 51, Type (0, 1), BuildingBlock: OJICUG_clean_linker_0, # of connection points: 2
#     Edge 52, Type (0, 1), BuildingBlock: OJICUG_clean_linker_0, # of connection points: 2
#     Edge 53, Type (0, 1), BuildingBlock: OJICUG_clean_linker_0, # of connection points: 2
#     Edge 54, Type (0, 1), BuildingBlock: OJICUG_clean_linker_0, # of connection points: 2
#     Edge 55, Type (0, 1), BuildingBlock: OJICUG_clean_linker_0, # of connection points: 2
#     Edge 56, Type (0, 1), BuildingBlock: OJICUG_clean_linker_0, # of connection points: 2
#     Edge 57, Type (0, 1), BuildingBlock: OJICUG_clean_linker_0, # of connection points: 2
#     Edge 58, Type (0, 1), BuildingBlock: OJICUG_clean_linker_0, # of connection points: 2
#     Edge 59, Type (0, 1), BuildingBlock: OJICUG_clean_linker_0, # of connection points: 2
#     Edge 60, Type (0, 1), BuildingBlock: OJICUG_clean_linker_0, # of connection points: 2
#     Edge 61, Type (0, 1), BuildingBlock: OJICUG_clean_linker_0, # of connection points: 2
#     Edge 62, Type (0, 1), BuildingBlock: OJICUG_clean_linker_0, # of connection points: 2
#     Edge 63, Type (0, 1), BuildingBlock: OJICUG_clean_linker_0, # of connection points: 2
#     Edge 64, Type (0, 1), BuildingBlock: OJICUG_clean_linker_0, # of connection points: 2
#     Edge 65, Type (0, 1), BuildingBlock: OJICUG_clean_linker_0, # of connection points: 2
#     Edge 66, Type (0, 1), BuildingBlock: OJICUG_clean_linker_0, # of connection points: 2
#     Edge 67, Type (0, 1), BuildingBlock: OJICUG_clean_linker_0, # of connection points: 2
#     Edge 68, Type (0, 1), BuildingBlock: OJICUG_clean_linker_0, # of connection points: 2
#     Edge 69, Type (0, 1), BuildingBlock: OJICUG_clean_linker_0, # of connection points: 2
#     Edge 70, Type (0, 1), BuildingBlock: OJICUG_clean_linker_0, # of connection points: 2
#     Edge 71, Type (0, 1), BuildingBlock: OJICUG_clean_linker_0, # of connection points: 2
#     Edge 72, Type (0, 1), BuildingBlock: OJICUG_clean_linker_0, # of connection points: 2
#     Edge 73, Type (0, 1), BuildingBlock: OJICUG_clean_linker_0, # of connection points: 2
#     Edge 74, Type (0, 1), BuildingBlock: OJICUG_clean_linker_0, # of connection points: 2
#     Edge 75, Type (0, 1), BuildingBlock: OJICUG_clean_linker_0, # of connection points: 2
#     Edge 76, Type (0, 1), BuildingBlock: OJICUG_clean_linker_0, # of connection points: 2
#     Edge 77, Type (0, 1), BuildingBlock: OJICUG_clean_linker_0, # of connection points: 2
#     Edge 78, Type (0, 1), BuildingBlock: OJICUG_clean_linker_0, # of connection points: 2
#     Edge 79, Type (0, 1), BuildingBlock: OJICUG_clean_linker_0, # of connection points: 2
#     Edge 80, Type (0, 1), BuildingBlock: OJICUG_clean_linker_0, # of connection points: 2
#     Edge 81, Type (0, 1), BuildingBlock: OJICUG_clean_linker_0, # of connection points: 2
#     Edge 82, Type (0, 1), BuildingBlock: OJICUG_clean_linker_0, # of connection points: 2
#     Edge 83, Type (0, 1), BuildingBlock: OJICUG_clean_linker_0, # of connection points: 2
#     Edge 84, Type (0, 1), BuildingBlock: OJICUG_clean_linker_0, # of connection points: 2
#     Edge 85, Type (0, 1), BuildingBlock: OJICUG_clean_linker_0, # of connection points: 2
#     Edge 86, Type (0, 1), BuildingBlock: OJICUG_clean_linker_0, # of connection points: 2
#     Edge 87, Type (0, 1), BuildingBlock: OJICUG_clean_linker_0, # of connection points: 2
#     Edge 88, Type (0, 1), BuildingBlock: OJICUG_clean_linker_0, # of connection points: 2
#     Edge 89, Type (0, 1), BuildingBlock: OJICUG_clean_linker_0, # of connection points: 2
#     Edge 90, Type (0, 1), BuildingBlock: OJICUG_clean_linker_0, # of connection points: 2
#     Edge 91, Type (0, 1), BuildingBlock: OJICUG_clean_linker_0, # of connection points: 2
#     Edge 92, Type (0, 1), BuildingBlock: OJICUG_clean_linker_0, # of connection points: 2
#     Edge 93, Type (0, 1), BuildingBlock: OJICUG_clean_linker_0, # of connection points: 2
#     Edge 94, Type (0, 1), BuildingBlock: OJICUG_clean_linker_0, # of connection points: 2
#     Edge 95, Type (0, 1), BuildingBlock: OJICUG_clean_linker_0, # of connection points: 2
#     Edge 96, Type (0, 1), BuildingBlock: OJICUG_clean_linker_0, # of connection points: 2
#     Edge 97, Type (0, 1), BuildingBlock: OJICUG_clean_linker_0, # of connection points: 2
#     Edge 98, Type (0, 1), BuildingBlock: OJICUG_clean_linker_0, # of connection points: 2
#     Edge 99, Type (0, 1), BuildingBlock: OJICUG_clean_linker_0, # of connection points: 2
#     Edge 100, Type (0, 1), BuildingBlock: OJICUG_clean_linker_0, # of connection points: 2
#     Edge 101, Type (0, 1), BuildingBlock: OJICUG_clean_linker_0, # of connection points: 2
#     Edge 102, Type (0, 1), BuildingBlock: OJICUG_clean_linker_0, # of connection points: 2
#     Edge 103, Type (0, 1), BuildingBlock: OJICUG_clean_linker_0, # of connection points: 2
#     Edge 104, Type (0, 1), BuildingBlock: OJICUG_clean_linker_0, # of connection points: 2
#     Edge 105, Type (0, 1), BuildingBlock: OJICUG_clean_linker_0, # of connection points: 2
#     Edge 106, Type (0, 1), BuildingBlock: OJICUG_clean_linker_0, # of connection points: 2
#     Edge 107, Type (0, 1), BuildingBlock: OJICUG_clean_linker_0, # of connection points: 2
# Relax obj value: 0.073
# Max RMSD: 0.266
# Mean RMSD: 0.109
data_MOF--net-ptr--node1-NAHDIM_clean_sbu_0--node2-NAWXER_clean_linker_0--edge1-OJICUG_clean_linker_0
_symmetry_space_group_name_H-M    P1
_symmetry_Int_Tables_number       1
_symmetry_cell_setting            triclinic
loop_
_symmetry_equiv_pos_as_xyz
'x, y, z'
_cell_length_a     69.130001
_cell_length_b     67.71056
_cell_length_c     48.842357
_cell_angle_alpha  91.790474
_cell_angle_beta   88.984515
_cell_angle_gamma 122.02136
loop_
_atom_site_label
_atom_site_type_symbol
_atom_site_fract_x
_atom_site_fract_y
_atom_site_fract_z
_atom_type_partial_charge
C0 C 0.0424 0.32928 0.0154 0.0
O1 O 0.02663 0.31327 0.99908 0.0
O2 O -0.0022 0.32791 0.98048 0.0
Zn3 Zn 0.02323 0.35648 0.99956 0.0
O4 O 0.01101 0.36757 0.0299 0.0
C5 C 0.03641 0.37997 0.94724 0.0
O6 O 0.02591 0.35872 0.93659 0.0
O7 O 0.04497 0.34932 0.01725 0.0
C8 C 0.99178 0.36582 0.03009 0.0
O9 O 0.97766 0.35515 0.00951 0.0
C10 C 0.98184 0.31085 0.99331 0.0
O11 O 0.98147 0.31183 0.02021 0.0
O12 O 0.03844 0.38284 0.97312 0.0
C13 C 0.69807 0.67392 0.9716 0.0
O14 O 0.68562 0.68187 0.96295 0.0
O15 O 0.66722 0.68251 0.02779 0.0
Zn16 Zn 0.66145 0.65337 0.00836 0.0
O17 O 0.63845 0.64361 0.97807 0.0
C18 C 0.65246 0.62956 0.06036 0.0
O19 O 0.66639 0.65046 0.071 0.0
O20 O 0.69103 0.66038 0.99177 0.0
C21 C 0.61726 0.63026 0.98289 0.0
O22 O 0.61047 0.62373 0.00811 0.0
C23 C 0.65205 0.68394 0.0411 0.0
O24 O 0.63115 0.66569 0.04201 0.0
O25 O 0.64905 0.62709 0.03466 0.0
C26 C 0.32569 0.02232 0.97024 0.0
O27 O 0.31873 0.00192 0.95847 0.0
O28 O 0.31005 0.98186 0.03249 0.0
Zn29 Zn 0.33839 0.00206 0.01046 0.0
O30 O 0.34367 0.98445 0.98008 0.0
C31 C 0.36401 0.00152 0.0545 0.0
O32 O 0.34498 0.98117 0.05673 0.0
O33 O 0.33543 0.02711 0.99348 0.0
C34 C 0.34491 0.96664 0.98349 0.0
O35 O 0.34074 0.95743 0.00778 0.0
C36 C 0.28989 0.96835 0.02363 0.0
O37 O 0.28605 0.96605 0.99714 0.0
O38 O 0.3655 0.01521 0.03615 0.0
C39 C 0.97863 0.68029 0.9771 0.0
O40 O 0.00017 0.69682 0.98042 0.0
O41 O 0.01452 0.6858 0.02934 0.0
Zn42 Zn 0.99417 0.65647 0.00719 0.0
O43 O 0.01169 0.6501 0.97857 0.0
C44 C 0.97829 0.63032 0.0579 0.0
O45 O 0.98579 0.6508 0.06978 0.0
O46 O 0.97131 0.66051 0.98742 0.0
C47 C 0.02045 0.63841 0.98483 0.0
O48 O 0.01932 0.63231 0.01037 0.0
C49 C 0.03512 0.69322 0.03528 0.0
O50 O 0.04429 0.68143 0.02663 0.0
O51 O 0.97909 0.62881 0.03193 0.0
C52 C 0.30281 0.33912 0.04914 0.0
O53 O 0.31801 0.33567 0.05993 0.0
O54 O 0.32823 0.32489 0.98505 0.0
Zn55 Zn 0.33514 0.35379 0.00614 0.0
O56 O 0.359 0.36193 0.03472 0.0
C57 C 0.34585 0.37757 0.95452 0.0
O58 O 0.33275 0.35626 0.94452 0.0
O59 O 0.30631 0.34744 0.02529 0.0
C60 C 0.37965 0.36948 0.02858 0.0
O61 O 0.38562 0.37141 0.00264 0.0
C62 C 0.3278 0.30793 0.99606 0.0
O63 O 0.3324 0.30926 0.02227 0.0
O64 O 0.34824 0.3808 0.98034 0.0
C65 C 0.66003 0.96643 0.04663 0.0
O66 O 0.66221 0.98502 0.05898 0.0
O67 O 0.67363 0.00941 0.98579 0.0
Zn68 Zn 0.64577 0.98389 0.00478 0.0
O69 O 0.63299 0.99521 0.0347 0.0
C70 C 0.61281 0.98089 0.97105 0.0
O71 O 0.62204 0.00164 0.98281 0.0
O72 O 0.65307 0.96174 0.02194 0.0
C73 C 0.6387 0.01566 0.0426 0.0
O74 O 0.65621 0.03376 0.03116 0.0
C75 C 0.69259 0.02399 0.99706 0.0
O76 O 0.69478 0.02369 0.02367 0.0
O77 O 0.62067 0.96819 0.9764 0.0
C78 C 0.68091 0.65288 0.37457 0.0
O79 O 0.65913 0.63727 0.37112 0.0
O80 O 0.64521 0.65488 0.32457 0.0
Zn81 Zn 0.66837 0.68163 0.34807 0.0
O82 O 0.65359 0.69009 0.37799 0.0
C83 C 0.68835 0.70758 0.29864 0.0
O84 O 0.68116 0.68683 0.28774 0.0
O85 O 0.6891 0.6733 0.36572 0.0
C86 C 0.64296 0.70006 0.37247 0.0
O87 O 0.64043 0.70333 0.34673 0.0
C88 C 0.62541 0.63914 0.33227 0.0
O89 O 0.61876 0.63984 0.35746 0.0
O90 O 0.68575 0.70955 0.32421 0.0
C91 C 0.36626 0.01446 0.31608 0.0
O92 O 0.36323 0.03198 0.3193 0.0
O93 O 0.33421 0.02157 0.36683 0.0
Zn94 Zn 0.32431 0.99193 0.34517 0.0
O95 O 0.30125 0.98607 0.31619 0.0
C96 C 0.31144 0.96603 0.39615 0.0
O97 O 0.32531 0.98648 0.40785 0.0
O98 O 0.35165 0.99488 0.32602 0.0
C99 C 0.28015 0.97427 0.32218 0.0
O100 O 0.27409 0.96742 0.34746 0.0
C101 C 0.32026 0.0273 0.37492 0.0
O102 O 0.29854 0.01359 0.36889 0.0
O103 O 0.30945 0.96442 0.37021 0.0
C104 C 0.9937 0.35575 0.29794 0.0
O105 O 0.99008 0.33655 0.28566 0.0
O106 O 0.97865 0.31327 0.36022 0.0
Zn107 Zn 0.00653 0.33684 0.33958 0.0
O108 O 0.01673 0.32323 0.30962 0.0
C109 C 0.03423 0.33571 0.37827 0.0
O110 O 0.01961 0.31374 0.37163 0.0
O111 O 0.00096 0.36025 0.3225 0.0
C112 C 0.01018 0.30243 0.30231 0.0
O113 O 0.99334 0.28494 0.3154 0.0
C114 C 0.95805 0.30281 0.35231 0.0
O115 O 0.95343 0.30608 0.3275 0.0
O116 O 0.03235 0.35127 0.36689 0.0
C117 C 0.63948 0.00796 0.30938 0.0
O118 O 0.66126 0.02433 0.30964 0.0
O119 O 0.67875 0.01899 0.35836 0.0
Zn120 Zn 0.6576 0.98754 0.34057 0.0
O121 O 0.67339 0.97933 0.3113 0.0
C122 C 0.65866 0.96654 0.38968 0.0
O123 O 0.67841 0.98635 0.39127 0.0
O124 O 0.63282 0.98924 0.322 0.0
C125 C 0.68659 0.97234 0.31718 0.0
O126 O 0.69109 0.9716 0.34299 0.0
C127 C 0.70027 0.03092 0.3554 0.0
O128 O 0.71022 0.02292 0.33946 0.0
O129 O 0.64544 0.96286 0.36974 0.0
C130 C 0.94994 0.64433 0.3597 0.0
O131 O 0.95155 0.62711 0.34944 0.0
O132 O 0.99501 0.64542 0.3231 0.0
Zn133 Zn -0.0025 0.67294 0.34333 0.0
O134 O 0.01955 0.6851 0.37485 0.0
C135 C 0.0268 0.70128 0.30265 0.0
O136 O 0.03422 0.68743 0.30749 0.0
O137 O 0.96697 0.66511 0.3583 0.0
C138 C 0.03648 0.68298 0.3788 0.0
O139 O 0.04067 0.67052 0.36138 0.0
C140 C 0.99373 0.6274 0.33214 0.0
O141 O 0.994 0.62494 0.35869 0.0
O142 O 0.00972 0.69867 0.31613 0.0
C143 C 0.34364 0.30685 0.36507 0.0
O144 O 0.3603 0.32847 0.36148 0.0
O145 O 0.34526 0.34784 0.3192 0.0
Zn146 Zn 0.31793 0.324 0.34081 0.0
O147 O 0.30874 0.33724 0.37247 0.0
C148 C 0.28925 0.32411 0.30186 0.0
O149 O 0.30462 0.34632 0.30598 0.0
O150 O 0.32374 0.30032 0.35667 0.0
C151 C 0.31089 0.35702 0.37564 0.0
O152 O 0.32185 0.37295 0.35714 0.0
C153 C 0.36265 0.36682 0.32767 0.0
O154 O 0.36438 0.37282 0.35377 0.0
O155 O 0.29115 0.30919 0.31475 0.0
C156 C 0.35094 0.98997 0.71054 0.0
O157 O 0.32894 0.97439 0.70958 0.0
O158 O 0.31242 0.98286 0.66172 0.0
Zn159 Zn 0.33537 0.01354 0.68014 0.0
O160 O 0.32095 0.02334 0.70948 0.0
C161 C 0.33846 0.03661 0.63055 0.0
O162 O 0.31871 0.01718 0.6265 0.0
O163 O 0.35863 0.00922 0.69868 0.0
C164 C 0.31145 0.03447 0.70391 0.0
O165 O 0.30972 0.03849 0.67822 0.0
C166 C 0.29103 0.97426 0.66114 0.0
O167 O 0.28251 0.98552 0.67346 0.0
O168 O 0.34979 0.03897 0.65197 0.0
C169 C 0.03179 0.34222 0.64373 0.0
O170 O 0.02475 0.35677 0.64238 0.0
O171 O 0.00241 0.35296 0.69324 0.0
Zn172 Zn 0.99313 0.32133 0.67722 0.0
O173 O 0.96914 0.31108 0.64791 0.0
C174 C 0.97045 0.30068 0.72751 0.0
O175 O 0.96988 0.31976 0.72862 0.0
O176 O 0.02075 0.32441 0.65853 0.0
C177 C 0.94798 0.30005 0.6536 0.0
O178 O 0.94154 0.29608 0.67932 0.0
C179 C 0.99009 0.36171 0.69248 0.0
O180 O 0.97005 0.34991 0.68054 0.0
O181 O 0.98053 0.29741 0.70743 0.0
C182 C 0.67008 0.69787 0.64026 0.0
O183 O 0.66612 0.67863 0.62772 0.0
O184 O 0.65963 0.65719 0.70224 0.0
Zn185 Zn 0.68687 0.68124 0.68084 0.0
O186 O 0.69681 0.66733 0.65093 0.0
C187 C 0.71211 0.6979 0.73207 0.0
O188 O 0.69169 0.68772 0.74318 0.0
O189 O 0.67929 0.70313 0.66385 0.0
C190 C 0.69179 0.64644 0.64765 0.0
O191 O 0.67753 0.63048 0.66464 0.0
C192 C 0.64076 0.64168 0.69157 0.0
O193 O 0.63858 0.64014 0.6648 0.0
O194 O 0.71394 0.69831 0.70613 0.0
C195 C 0.29071 0.34244 0.66525 0.0
O196 O 0.30686 0.35962 0.68007 0.0
O197 O 0.33778 0.34809 0.69873 0.0
Zn198 Zn 0.31329 0.3184 0.68041 0.0
O199 O 0.32554 0.3079 0.64929 0.0
C200 C 0.31672 0.29197 0.71988 0.0
O201 O 0.33793 0.30652 0.7124 0.0
O202 O 0.28926 0.3229 0.66409 0.0
C203 C 0.34593 0.31329 0.64478 0.0
O204 O 0.36229 0.32801 0.66149 0.0
C205 C 0.35315 0.36619 0.68679 0.0
O206 O 0.354 0.36641 0.6599 0.0
O207 O 0.30099 0.29334 0.70873 0.0
C208 C 0.62425 0.99258 0.70957 0.0
O209 O 0.63004 0.97698 0.70774 0.0
O210 O 0.66106 0.9893 0.66372 0.0
Zn211 Zn 0.66688 0.01871 0.68279 0.0
O212 O 0.68989 0.02858 0.71317 0.0
C213 C 0.67596 0.04191 0.63027 0.0
O214 O 0.66135 0.021 0.62016 0.0
O215 O 0.63751 0.01258 0.69966 0.0
C216 C 0.71105 0.04201 0.70817 0.0
O217 O 0.71766 0.04837 0.68287 0.0
C218 C 0.67619 0.98794 0.65021 0.0
O219 O 0.69689 0.00643 0.64858 0.0
O220 O 0.67968 0.04471 0.65592 0.0
C221 C 0.98882 0.63453 0.71096 0.0
O222 O 0.99018 0.65275 0.72325 0.0
O223 O 0.00439 0.67657 0.64759 0.0
Zn224 Zn 0.97616 0.65217 0.66717 0.0
O225 O 0.9643 0.66559 0.69531 0.0
C226 C 0.94784 0.6513 0.62798 0.0
O227 O 0.96101 0.67335 0.63546 0.0
O228 O 0.98275 0.63006 0.68594 0.0
C229 C 0.97202 0.68658 0.70294 0.0
O230 O 0.99101 0.70344 0.69221 0.0
C231 C 0.02434 0.68853 0.65768 0.0
O232 O 0.02754 0.68604 0.68345 0.0
O233 O 0.95111 0.63648 0.63887 0.0
C234 C 0.22155 0.32356 0.13497 0.0
C235 C 0.2204 0.31196 0.11015 0.0
C236 C 0.20176 0.31709 0.14992 0.0
C237 C 0.1805 0.29842 0.14077 0.0
C238 C 0.19911 0.29364 0.10064 0.0
C239 C 0.17932 0.28694 0.11584 0.0
C240 C 0.15926 0.29254 0.15547 0.0
C241 C 0.20279 0.28293 0.21379 0.0
C242 C 0.21057 0.29925 0.23574 0.0
C243 C 0.18481 0.27946 0.1973 0.0
C244 C 0.17442 0.29229 0.20256 0.0
C245 C 0.19936 0.31115 0.2417 0.0
C246 C 0.1814 0.3076 0.22538 0.0
C247 C 0.15677 0.29065 0.18422 0.0
C248 C 0.06298 0.27463 0.20589 0.0
C249 C 0.06917 0.29114 0.22745 0.0
C250 C 0.07984 0.27377 0.19046 0.0
C251 C 0.10304 0.28925 0.19668 0.0
C252 C 0.09236 0.30633 0.23373 0.0
C253 C 0.10907 0.30528 0.21864 0.0
C254 C 0.12144 0.28891 0.18122 0.0
C255 C 0.09229 0.31577 0.12075 0.0
C256 C 0.08611 0.30402 0.0951 0.0
C257 C 0.10363 0.31067 0.14 0.0
C258 C 0.10858 0.29334 0.13429 0.0
C259 C 0.09079 0.28645 0.08961 0.0
C260 C 0.10195 0.28122 0.10898 0.0
C261 C 0.12369 0.29031 0.15242 0.0
H262 H 0.23771 0.33803 0.14248 0.0
H263 H 0.20308 0.32708 0.16831 0.0
H264 H 0.1978 0.28441 0.08156 0.0
H265 H 0.16306 0.27283 0.10807 0.0
H266 H 0.21112 0.2735 0.20881 0.0
H267 H 0.17936 0.26716 0.18014 0.0
H268 H 0.20476 0.32353 0.25878 0.0
H269 H 0.17352 0.31752 0.23003 0.0
H270 H 0.04519 0.26271 0.20073 0.0
H271 H 0.07481 0.26101 0.17386 0.0
H272 H 0.09758 0.31898 0.2505 0.0
H273 H 0.12683 0.31729 0.22393 0.0
H274 H 0.08874 0.32922 0.12581 0.0
H275 H 0.10933 0.32099 0.15885 0.0
H276 H 0.0866 0.27728 0.06996 0.0
H277 H 0.10601 0.26814 0.10386 0.0
N278 N 0.14247 0.29194 0.14076 0.0
N279 N 0.13807 0.28912 0.1959 0.0
C280 C 0.66968 0.89875 0.13233 0.0
C281 C 0.68059 0.90764 0.10715 0.0
C282 C 0.67473 0.88491 0.14751 0.0
C283 C 0.69122 0.88017 0.13814 0.0
C284 C 0.6966 0.90232 0.0974 0.0
C285 C 0.70182 0.88866 0.11275 0.0
C286 C 0.6962 0.8649 0.15356 0.0
C287 C 0.71378 0.92635 0.21069 0.0
C288 C 0.70311 0.91987 0.23641 0.0
C289 C 0.71335 0.90956 0.19273 0.0
C290 C 0.70157 0.886 0.19998 0.0
C291 C 0.69178 0.89646 0.24375 0.0
C292 C 0.69096 0.87973 0.22573 0.0
C293 C 0.70067 0.86749 0.18202 0.0
C294 C 0.71507 0.78842 0.20484 0.0
C295 C 0.70384 0.7824 0.23032 0.0
C296 C 0.71442 0.80478 0.18864 0.0
C297 C 0.70212 0.815 0.19744 0.0
C298 C 0.692 0.79305 0.23923 0.0
C299 C 0.6912 0.80916 0.22303 0.0
C300 C 0.70075 0.83222 0.18091 0.0
C301 C 0.66696 0.76614 0.1299 0.0
C302 C 0.6773 0.76783 0.10432 0.0
C303 C 0.67315 0.78614 0.14573 0.0
C304 C 0.69012 0.80818 0.13654 0.0
C305 C 0.694 0.78998 0.09496 0.0
C306 C 0.70027 0.80998 0.11089 0.0
C307 C 0.69599 0.82947 0.15258 0.0
H308 H 0.65694 0.90219 0.14009 0.0
H309 H 0.66558 0.87775 0.16645 0.0
H310 H 0.70531 0.90899 0.07811 0.0
H311 H 0.71428 0.88485 0.10488 0.0
H312 H 0.72271 0.94439 0.20473 0.0
H313 H 0.72231 0.91502 0.17337 0.0
H314 H 0.68319 0.891 0.26334 0.0
H315 H 0.6818 0.86174 0.23193 0.0
H316 H 0.72451 0.78064 0.19758 0.0
H317 H 0.72355 0.80946 0.16934 0.0
H318 H 0.68285 0.78852 0.25852 0.0
H319 H 0.68164 0.8168 0.23036 0.0
H320 H 0.65415 0.74936 0.1378 0.0
H321 H 0.66449 0.78436 0.16503 0.0
H322 H 0.702 0.79191 0.07513 0.0
H323 H 0.71305 0.82687 0.10318 0.0
N324 N 0.69421 0.84607 0.13998 0.0
N325 N 0.70282 0.85106 0.19435 0.0
C326 C 0.09841 0.77531 0.1265 0.0
C327 C 0.08624 0.77589 0.10414 0.0
C328 C 0.11117 0.79504 0.14328 0.0
C329 C 0.11178 0.81567 0.13827 0.0
C330 C 0.08684 0.79656 0.09914 0.0
C331 C 0.09969 0.81637 0.11596 0.0
C332 C 0.1268 0.83699 0.15473 0.0
C333 C 0.07161 0.78621 0.2114 0.0
C334 C 0.08022 0.77882 0.23191 0.0
C335 C 0.08651 0.80544 0.19559 0.0
C336 C 0.11016 0.81753 0.20024 0.0
C337 C 0.1038 0.79135 0.23688 0.0
C338 C 0.11857 0.81053 0.22132 0.0
C339 C 0.1266 0.83749 0.1836 0.0
C340 C 0.20727 0.93309 0.21554 0.0
C341 C 0.21298 0.92542 0.2387 0.0
C342 C 0.19066 0.91684 0.19715 0.0
C343 C 0.18006 0.8928 0.20146 0.0
C344 C 0.20258 0.90148 0.24269 0.0
C345 C 0.1864 0.8854 0.22428 0.0
C346 C 0.1613 0.87478 0.18398 0.0
C347 C 0.2205 0.90951 0.12477 0.0
C348 C 0.2166 0.91878 0.10163 0.0
C349 C 0.20275 0.8959 0.14286 0.0
C350 C 0.18079 0.89152 0.13837 0.0
C351 C 0.19465 0.91461 0.0974 0.0
C352 C 0.1769 0.90099 0.11552 0.0
C353 C 0.16131 0.87446 0.15502 0.0
H354 H 0.09815 0.7596 0.13097 0.0
H355 H 0.12095 0.79429 0.15986 0.0
H356 H 0.07784 0.79758 0.08185 0.0
H357 H 0.10033 0.83227 0.11146 0.0
H358 H 0.05347 0.77685 0.20724 0.0
H359 H 0.0796 0.8108 0.17976 0.0
H360 H 0.11086 0.78627 0.25287 0.0
H361 H 0.13671 0.81964 0.22542 0.0
H362 H 0.21514 0.95154 0.21217 0.0
H363 H 0.18575 0.92306 0.18007 0.0
H364 H 0.20697 0.89517 0.26019 0.0
H365 H 0.17867 0.86701 0.22808 0.0
H366 H 0.23707 0.91198 0.12834 0.0
H367 H 0.20601 0.88805 0.15972 0.0
H368 H 0.19114 0.9217 0.07994 0.0
H369 H 0.15998 0.89749 0.11144 0.0
N370 N 0.14396 0.85561 0.14157 0.0
N371 N 0.14383 0.85633 0.19693 0.0
C372 C 0.31148 0.09586 0.80924 0.0
C373 C 0.29405 0.0837 0.78972 0.0
C374 C 0.31074 0.11134 0.82812 0.0
C375 C 0.29238 0.11473 0.8282 0.0
C376 C 0.27561 0.08702 0.78993 0.0
C377 C 0.27486 0.10248 0.80892 0.0
C378 C 0.2925 0.13259 0.84653 0.0
C379 C 0.2887 0.07824 0.90071 0.0
C380 C 0.30818 0.08661 0.91719 0.0
C381 C 0.28487 0.0937 0.88708 0.0
C382 C 0.30051 0.11781 0.88955 0.0
C383 C 0.32351 0.11081 0.92007 0.0
C384 C 0.31962 0.12623 0.90652 0.0
C385 C 0.29713 0.13452 0.87487 0.0
C386 C 0.28918 0.21628 0.9113 0.0
C387 C 0.30746 0.22686 0.92993 0.0
C388 C 0.28555 0.19753 0.89448 0.0
C389 C 0.30038 0.18932 0.8957 0.0
C390 C 0.32186 0.21817 0.93161 0.0
C391 C 0.31831 0.19955 0.91472 0.0
C392 C 0.29728 0.16983 0.87777 0.0
C393 C 0.31485 0.22755 0.82012 0.0
C394 C 0.29908 0.22222 0.79902 0.0
C395 C 0.31256 0.21015 0.83694 0.0
C396 C 0.29408 0.18709 0.83361 0.0
C397 C 0.28037 0.1992 0.79597 0.0
C398 C 0.27798 0.18179 0.81303 0.0
C399 C 0.29299 0.16813 0.84931 0.0
H400 H 0.32618 0.09413 0.80922 0.0
H401 H 0.32491 0.12122 0.84209 0.0
H402 H 0.26189 0.07784 0.77524 0.0
H403 H 0.26068 0.10506 0.8084 0.0
H404 H 0.27631 0.05973 0.89851 0.0
H405 H 0.26969 0.08683 0.87465 0.0
H406 H 0.33879 0.11785 0.93234 0.0
H407 H 0.33187 0.14479 0.9088 0.0
H408 H 0.27758 0.22238 0.9099 0.0
H409 H 0.27118 0.18948 0.88057 0.0
H410 H 0.33621 0.22609 0.94557 0.0
H411 H 0.3299 0.19343 0.91614 0.0
H412 H 0.32933 0.24513 0.82325 0.0
H413 H 0.32571 0.21467 0.85194 0.0
H414 H 0.26809 0.19442 0.77971 0.0
H415 H 0.26379 0.16406 0.80976 0.0
N416 N 0.29054 0.14943 0.8349 0.0
N417 N 0.29933 0.15304 0.88932 0.0
C418 C 0.92057 0.21807 0.91251 0.0
C419 C 0.91422 0.22874 0.93283 0.0
C420 C 0.90399 0.19935 0.89663 0.0
C421 C 0.88079 0.1913 0.90046 0.0
C422 C 0.89095 0.21997 0.93743 0.0
C423 C 0.8744 0.20139 0.92142 0.0
C424 C 0.86297 0.17245 0.88286 0.0
C425 C 0.90541 0.23225 0.8273 0.0
C426 C 0.91416 0.2274 0.80352 0.0
C427 C 0.88948 0.2143 0.84376 0.0
C428 C 0.8826 0.19105 0.83769 0.0
C429 C 0.90717 0.20408 0.79738 0.0
C430 C 0.89159 0.18614 0.81429 0.0
C431 C 0.86446 0.17168 0.85396 0.0
C432 C 0.77111 0.099 0.81707 0.0
C433 C 0.77655 0.0883 0.79574 0.0
C434 C 0.78763 0.11384 0.83626 0.0
C435 C 0.8098 0.118 0.83467 0.0
C436 C 0.7986 0.09207 0.79464 0.0
C437 C 0.81508 0.10689 0.81382 0.0
C438 C 0.82822 0.13585 0.85252 0.0
C439 C 0.77736 0.07999 0.90875 0.0
C440 C 0.76925 0.08813 0.93012 0.0
C441 C 0.79594 0.09569 0.89275 0.0
C442 C 0.80638 0.11983 0.89742 0.0
C443 C 0.77996 0.11223 0.93505 0.0
C444 C 0.7983 0.12789 0.91888 0.0
C445 C 0.82643 0.13702 0.88133 0.0
H446 H 0.93838 0.22422 0.90889 0.0
H447 H 0.9093 0.19137 0.88116 0.0
H448 H 0.88556 0.22792 0.95284 0.0
H449 H 0.85659 0.19533 0.92491 0.0
H450 H 0.91056 0.24994 0.83308 0.0
H451 H 0.88219 0.21868 0.8609 0.0
H452 H 0.91311 0.19951 0.77903 0.0
H453 H 0.88625 0.16833 0.80879 0.0
H454 H 0.75441 0.09677 0.81821 0.0
H455 H 0.78333 0.12275 0.85166 0.0
H456 H 0.80325 0.08391 0.77863 0.0
H457 H 0.83213 0.11001 0.81209 0.0
H458 H 0.76963 0.06147 0.90479 0.0
H459 H 0.8023 0.08892 0.87705 0.0
H460 H 0.77397 0.119 0.95123 0.0
H461 H 0.80613 0.1464 0.92307 0.0
N462 N 0.84395 0.15525 0.89527 0.0
N463 N 0.84714 0.15321 0.84006 0.0
C464 C 0.79511 0.71909 0.90172 0.0
C465 C 0.78253 0.69861 0.91678 0.0
C466 C 0.81428 0.72338 0.88664 0.0
C467 C 0.82114 0.70723 0.88633 0.0
C468 C 0.78993 0.68287 0.917 0.0
C469 C 0.80914 0.68724 0.90209 0.0
C470 C 0.84039 0.71051 0.86923 0.0
C471 C 0.78356 0.69539 0.81343 0.0
C472 C 0.78845 0.71385 0.79641 0.0
C473 C 0.80095 0.69552 0.82759 0.0
C474 C 0.8236 0.71433 0.8255 0.0
C475 C 0.81124 0.73241 0.79372 0.0
C476 C 0.82868 0.7326 0.80813 0.0
C477 C 0.84192 0.71444 0.84084 0.0
C478 C 0.90782 0.68816 0.80349 0.0
C479 C 0.91999 0.70452 0.7831 0.0
C480 C 0.89365 0.691 0.82167 0.0
C481 C 0.89175 0.71059 0.82037 0.0
C482 C 0.9181 0.72416 0.78182 0.0
C483 C 0.90399 0.72709 0.80022 0.0
C484 C 0.87558 0.7128 0.8385 0.0
C485 C 0.9283 0.71494 0.89364 0.0
C486 C 0.91942 0.69732 0.91316 0.0
C487 C 0.91377 0.71904 0.87864 0.0
C488 C 0.89004 0.70526 0.88246 0.0
C489 C 0.8957 0.68397 0.91734 0.0
C490 C 0.88122 0.68789 0.90216 0.0
C491 C 0.87411 0.70912 0.86704 0.0
H492 H 0.79014 0.7318 0.90155 0.0
H493 H 0.8236 0.73916 0.87502 0.0
H494 H 0.78051 0.66678 0.92802 0.0
H495 H 0.81417 0.67457 0.90213 0.0
H496 H 0.7663 0.68054 0.81533 0.0
H497 H 0.7967 0.68079 0.84007 0.0
H498 H 0.81553 0.74683 0.78067 0.0
H499 H 0.84609 0.74712 0.80595 0.0
H500 H 0.90903 0.67294 0.80525 0.0
H501 H 0.88384 0.6776 0.83641 0.0
H502 H 0.92697 0.7369 0.76612 0.0
H503 H 0.90247 0.74212 0.79855 0.0
H504 H 0.94647 0.72549 0.88976 0.0
H505 H 0.92112 0.73302 0.86417 0.0
H506 H 0.88826 0.67064 0.93262 0.0
H507 H 0.863 0.67719 0.90577 0.0
N508 N 0.85648 0.70799 0.88115 0.0
N509 N 0.85954 0.71557 0.82656 0.0
C510 C 0.72867 0.61271 0.45432 0.0
C511 C 0.73772 0.63007 0.43444 0.0
C512 C 0.74298 0.60795 0.46882 0.0
C513 C 0.76662 0.62076 0.464 0.0
C514 C 0.76126 0.64217 0.42905 0.0
C515 C 0.7755 0.6376 0.44367 0.0
C516 C 0.7826 0.61695 0.47935 0.0
C517 C 0.7504 0.64059 0.54227 0.0
C518 C 0.73997 0.6258 0.56455 0.0
C519 C 0.76405 0.63713 0.52386 0.0
C520 C 0.76694 0.61827 0.5266 0.0
C521 C 0.74303 0.60699 0.56737 0.0
C522 C 0.75641 0.60331 0.54861 0.0
C523 C 0.78257 0.61538 0.50818 0.0
C524 C 0.87691 0.64039 0.53123 0.0
C525 C 0.87354 0.62594 0.5532 0.0
C526 C 0.85856 0.6364 0.51534 0.0
C527 C 0.83644 0.61746 0.52049 0.0
C528 C 0.85143 0.60682 0.5582 0.0
C529 C 0.83302 0.60271 0.54207 0.0
C530 C 0.81673 0.61457 0.50523 0.0
C531 C 0.86198 0.60766 0.44329 0.0
C532 C 0.87111 0.62534 0.42385 0.0
C533 C 0.84398 0.60417 0.4603 0.0
C534 C 0.83499 0.61842 0.45822 0.0
C535 C 0.86154 0.639 0.42127 0.0
C536 C 0.84364 0.63553 0.43821 0.0
C537 C 0.81655 0.61593 0.47643 0.0
H538 H 0.71061 0.60307 0.45901 0.0
H539 H 0.73561 0.59443 0.48387 0.0
H540 H 0.76875 0.6552 0.41342 0.0
H541 H 0.79363 0.64756 0.43929 0.0
H542 H 0.74828 0.6551 0.53917 0.0
H543 H 0.77268 0.64953 0.50776 0.0
H544 H 0.73566 0.5955 0.58452 0.0
H545 H 0.75879 0.58893 0.55148 0.0
H546 H 0.89372 0.65514 0.52663 0.0
H547 H 0.86163 0.64858 0.4995 0.0
H548 H 0.84819 0.59556 0.5752 0.0
H549 H 0.81605 0.58825 0.54674 0.0
H550 H 0.86906 0.59689 0.44577 0.0
H551 H 0.83723 0.59051 0.47517 0.0
H552 H 0.86792 0.65245 0.40616 0.0
H553 H 0.83686 0.64662 0.43604 0.0
N554 N 0.79954 0.61709 0.46481 0.0
N555 N 0.79956 0.61406 0.51992 0.0
C556 C 0.34425 0.2388 0.45761 0.0
C557 C 0.35916 0.24942 0.43543 0.0
C558 C 0.34774 0.22542 0.47572 0.0
C559 C 0.36635 0.22259 0.47218 0.0
C560 C 0.37777 0.24655 0.43192 0.0
C561 C 0.38121 0.23311 0.45002 0.0
C562 C 0.36892 0.20668 0.48965 0.0
C563 C 0.3785 0.26525 0.54692 0.0
C564 C 0.36079 0.25743 0.56628 0.0
C565 C 0.381 0.24918 0.53095 0.0
C566 C 0.36595 0.22515 0.53443 0.0
C567 C 0.34586 0.23339 0.56964 0.0
C568 C 0.34852 0.21744 0.55403 0.0
C569 C 0.3683 0.20762 0.51856 0.0
C570 C 0.37889 0.1275 0.54865 0.0
C571 C 0.36102 0.11677 0.56771 0.0
C572 C 0.38174 0.14604 0.53338 0.0
C573 C 0.36693 0.1542 0.5373 0.0
C574 C 0.34668 0.1254 0.57214 0.0
C575 C 0.34978 0.14413 0.55729 0.0
C576 C 0.36847 0.17256 0.5201 0.0
C577 C 0.33783 0.10861 0.46596 0.0
C578 C 0.3508 0.11004 0.4428 0.0
C579 C 0.34397 0.12839 0.48211 0.0
C580 C 0.36345 0.14997 0.47574 0.0
C581 C 0.37044 0.1316 0.43655 0.0
C582 C 0.3766 0.15146 0.45279 0.0
C583 C 0.36838 0.17123 0.49121 0.0
H584 H 0.32985 0.24081 0.46098 0.0
H585 H 0.33556 0.21684 0.4921 0.0
H586 H 0.38939 0.25428 0.41484 0.0
H587 H 0.3954 0.23075 0.4466 0.0
H588 H 0.39026 0.28372 0.54403 0.0
H589 H 0.39477 0.25547 0.51618 0.0
H590 H 0.33229 0.2269 0.58472 0.0
H591 H 0.3368 0.19899 0.55713 0.0
H592 H 0.39011 0.12107 0.54495 0.0
H593 H 0.39526 0.15377 0.51827 0.0
H594 H 0.33289 0.11744 0.58689 0.0
H595 H 0.33821 0.15018 0.56069 0.0
H596 H 0.32272 0.09222 0.47142 0.0
H597 H 0.33304 0.12691 0.49911 0.0
H598 H 0.38061 0.13326 0.41863 0.0
H599 H 0.39143 0.16805 0.44724 0.0
N600 N 0.36895 0.1885 0.4771 0.0
N601 N 0.36816 0.19056 0.53264 0.0
C602 C 0.76317 0.1085 0.44872 0.0
C603 C 0.75192 0.11109 0.42679 0.0
C604 C 0.77597 0.12702 0.46708 0.0
C605 C 0.77779 0.14845 0.46373 0.0
C606 C 0.75333 0.13238 0.42375 0.0
C607 C 0.76648 0.15107 0.44191 0.0
C608 C 0.79363 0.16867 0.48109 0.0
C609 C 0.73409 0.12203 0.53551 0.0
C610 C 0.7397 0.11469 0.55906 0.0
C611 C 0.7513 0.13928 0.51924 0.0
C612 C 0.77441 0.14912 0.52595 0.0
C613 C 0.76278 0.12455 0.56568 0.0
C614 C 0.77991 0.14156 0.54935 0.0
C615 C 0.79311 0.16816 0.50994 0.0
C616 C 0.87744 0.25936 0.54554 0.0
C617 C 0.88218 0.25022 0.5681 0.0
C618 C 0.86071 0.24438 0.52649 0.0
C619 C 0.84896 0.22009 0.52952 0.0
C620 C 0.87071 0.22602 0.57075 0.0
C621 C 0.85436 0.21115 0.55167 0.0
C622 C 0.82973 0.20352 0.51159 0.0
C623 C 0.88874 0.23743 0.45129 0.0
C624 C 0.88561 0.24907 0.43006 0.0
C625 C 0.87093 0.22374 0.46933 0.0
C626 C 0.84967 0.22147 0.46656 0.0
C627 C 0.8644 0.24712 0.42778 0.0
C628 C 0.84656 0.23328 0.44569 0.0
C629 C 0.82984 0.20441 0.48273 0.0
H630 H 0.76219 0.09218 0.45151 0.0
H631 H 0.78503 0.12482 0.4834 0.0
H632 H 0.74485 0.13474 0.40687 0.0
H633 H 0.76803 0.16763 0.4388 0.0
H634 H 0.71641 0.11486 0.5301 0.0
H635 H 0.74648 0.14525 0.50183 0.0
H636 H 0.76763 0.119 0.58348 0.0
H637 H 0.79755 0.1488 0.55506 0.0
H638 H 0.88607 0.27803 0.54322 0.0
H639 H 0.85651 0.25179 0.51002 0.0
H640 H 0.87432 0.21856 0.58777 0.0
H641 H 0.84565 0.19252 0.55449 0.0
H642 H 0.90468 0.23818 0.4534 0.0
H643 H 0.8735 0.21419 0.48474 0.0
H644 H 0.86147 0.25613 0.412 0.0
H645 H 0.83018 0.23152 0.44301 0.0
N646 N 0.81177 0.18691 0.46865 0.0
N647 N 0.81124 0.18555 0.52391 0.0
C648 C 0.95294 0.54587 0.14588 0.0
C649 C 0.96647 0.55459 0.12223 0.0
C650 C 0.95296 0.52856 0.16084 0.0
C651 C 0.96696 0.52009 0.15276 0.0
C652 C 0.98019 0.54588 0.11404 0.0
C653 C 0.98041 0.52884 0.12911 0.0
C654 C 0.9671 0.50138 0.16766 0.0
C655 C 0.99199 0.55997 0.23032 0.0
C656 C 0.97845 0.55461 0.25403 0.0
C657 C 0.98809 0.54248 0.21123 0.0
C658 C 0.97036 0.51934 0.21529 0.0
C659 C 0.96083 0.5314 0.25816 0.0
C660 C 0.95691 0.51391 0.239 0.0
C661 C 0.96743 0.50044 0.19653 0.0
C662 C 0.99152 0.42899 0.21452 0.0
C663 C 0.97814 0.4182 0.23773 0.0
C664 C 0.98821 0.44423 0.19964 0.0
C665 C 0.97099 0.44846 0.20719 0.0
C666 C 0.9613 0.42287 0.24573 0.0
C667 C 0.95776 0.43785 0.23057 0.0
C668 C 0.96812 0.46557 0.19254 0.0
C669 C 0.95679 0.41078 0.12849 0.0
C670 C 0.97471 0.41966 0.10934 0.0
C671 C 0.9544 0.42595 0.14634 0.0
C672 C 0.96976 0.45014 0.14496 0.0
C673 C 0.98978 0.44385 0.10781 0.0
C674 C 0.98718 0.45895 0.12526 0.0
C675 C 0.96803 0.46664 0.16371 0.0
H676 H 0.94203 0.55212 0.15248 0.0
H677 H 0.94182 0.52161 0.17845 0.0
H678 H 0.99102 0.55246 0.09611 0.0
H679 H 0.9913 0.52261 0.12231 0.0
H680 H 0.00597 0.57762 0.22683 0.0
H681 H -0.0007 0.54697 0.19365 0.0
H682 H 0.95 0.52678 0.27612 0.0
H683 H 0.94339 0.4961 0.24274 0.0
H684 H 0.00492 0.42605 0.20825 0.0
H685 H -0.00049 0.45307 0.18263 0.0
H686 H 0.95075 0.41474 0.26353 0.0
H687 H 0.94468 0.4412 0.23712 0.0
H688 H 0.94496 0.39216 0.12995 0.0
H689 H 0.94066 0.41885 0.16119 0.0
H690 H 0.00355 0.45109 0.09298 0.0
H691 H -0.00089 0.47756 0.12378 0.0
N692 N 0.96756 0.48447 0.15249 0.0
N693 N 0.96767 0.48246 0.20776 0.0
C694 C 0.44961 0.41002 0.13744 0.0
C695 C 0.446 0.41847 0.11336 0.0
C696 C 0.46536 0.42555 0.15705 0.0
C697 C 0.47713 0.44973 0.15313 0.0
C698 C 0.45782 0.44255 0.10953 0.0
C699 C 0.47311 0.45797 0.12919 0.0
C700 C 0.49496 0.46698 0.17219 0.0
C701 C 0.4325 0.42995 0.22761 0.0
C702 C 0.43603 0.42141 0.25169 0.0
C703 C 0.45084 0.44405 0.21034 0.0
C704 C 0.47291 0.44942 0.21659 0.0
C705 C 0.45805 0.42654 0.25763 0.0
C706 C 0.47629 0.44043 0.24029 0.0
C707 C 0.49306 0.46687 0.20106 0.0
C708 C 0.56338 0.5649 0.2329 0.0
C709 C 0.57031 0.56146 0.25822 0.0
C710 C 0.55017 0.54605 0.21506 0.0
C711 C 0.54414 0.52346 0.2219 0.0
C712 C 0.56396 0.53883 0.26528 0.0
C713 C 0.55095 0.51999 0.24727 0.0
C714 C 0.52883 0.50318 0.20403 0.0
C715 C 0.59162 0.54804 0.15297 0.0
C716 C 0.58733 0.55519 0.12831 0.0
C717 C 0.57351 0.53095 0.16846 0.0
C718 C 0.55083 0.52121 0.15983 0.0
C719 C 0.56468 0.54522 0.11962 0.0
C720 C 0.54667 0.52843 0.13518 0.0
C721 C 0.5312 0.50279 0.17531 0.0
H722 H 0.44067 0.39145 0.14073 0.0
H723 H 0.4686 0.41864 0.17488 0.0
H724 H 0.45506 0.44951 0.09134 0.0
H725 H 0.48192 0.47648 0.12556 0.0
H726 H 0.41574 0.42648 0.2227 0.0
H727 H 0.44789 0.45143 0.19273 0.0
H728 H 0.46123 0.41998 0.27586 0.0
H729 H 0.4932 0.44458 0.24571 0.0
H730 H 0.5677 0.58212 0.22719 0.0
H731 H 0.54427 0.5491 0.19619 0.0
H732 H 0.56918 0.53574 0.28465 0.0
H733 H 0.54614 0.50267 0.25319 0.0
H734 H 0.60895 0.55533 0.15998 0.0
H735 H 0.57727 0.52522 0.18697 0.0
H736 H 0.56085 0.55063 0.1009 0.0
H737 H 0.52939 0.52119 0.12799 0.0
N738 N 0.51407 0.48483 0.16068 0.0
N739 N 0.51009 0.48501 0.21572 0.0
C740 C 0.45172 0.04185 0.23051 0.0
C741 C 0.4423 0.02553 0.25153 0.0
C742 C 0.46945 0.04383 0.21417 0.0
C743 C 0.47778 0.0292 0.21817 0.0
C744 C 0.45134 0.01158 0.2561 0.0
C745 C 0.46886 0.01341 0.23962 0.0
C746 C 0.49596 0.03023 0.2006 0.0
C747 C 0.43636 0.00752 0.1456 0.0
C748 C 0.44039 0.02136 0.12273 0.0
C749 C 0.45441 0.01064 0.16139 0.0
C750 C 0.47695 0.02834 0.15551 0.0
C751 C 0.46302 0.0389 0.1166 0.0
C752 C 0.48111 0.04232 0.13283 0.0
C753 C 0.49622 0.03107 0.17166 0.0
C754 C 0.56727 0.00979 0.13912 0.0
C755 C 0.57917 0.02615 0.11862 0.0
C756 C 0.55155 0.01132 0.15592 0.0
C757 C 0.54776 0.02958 0.15308 0.0
C758 C 0.57513 0.04426 0.11559 0.0
C759 C 0.55949 0.04588 0.13259 0.0
C760 C 0.53081 0.03108 0.17046 0.0
C761 C 0.58538 0.03819 0.22642 0.0
C762 C 0.57715 0.02142 0.24696 0.0
C763 C 0.57034 0.04129 0.2111 0.0
C764 C 0.54671 0.02726 0.21552 0.0
C765 C 0.55353 0.00799 0.2519 0.0
C766 C 0.53852 0.01086 0.23633 0.0
C767 C 0.53018 0.02963 0.19932 0.0
H768 H 0.44514 0.05283 0.22634 0.0
H769 H 0.47648 0.05664 0.19827 0.0
H770 H 0.4449 -0.00077 0.27249 0.0
H771 H 0.47521 0.00214 0.24339 0.0
H772 H 0.41921 0.99405 0.15129 0.0
H773 H 0.45069 -0.00107 0.17803 0.0
H774 H 0.46686 0.04962 0.0989 0.0
H775 H 0.49839 0.05578 0.12753 0.0
H776 H 0.57006 0.99572 0.1422 0.0
H777 H 0.54223 -0.00188 0.17104 0.0
H778 H 0.58364 0.0569 0.0997 0.0
H779 H 0.55656 0.05989 0.12975 0.0
H780 H 0.60344 0.04877 0.22191 0.0
H781 H 0.57719 0.05459 0.19578 0.0
H782 H 0.54658 0.99534 0.26796 0.0
H783 H 0.52039 4e-05 0.24043 0.0
N784 N 0.51283 0.02934 0.21312 0.0
N785 N 0.51383 0.03181 0.15779 0.0
C786 C 0.54712 0.98693 0.79474 0.0
C787 C 0.54436 0.97219 0.77227 0.0
C788 C 0.52847 0.98226 0.81107 0.0
C789 C 0.50674 0.96273 0.8053 0.0
C790 C 0.52257 0.95265 0.76649 0.0
C791 C 0.50385 0.9481 0.78274 0.0
C792 C 0.48681 0.95859 0.82159 0.0
C793 C 0.52891 0.94484 0.87966 0.0
C794 C 0.53868 0.96193 0.90082 0.0
C795 C 0.51204 0.94344 0.86272 0.0
C796 C 0.50462 0.95901 0.86682 0.0
C797 C 0.53148 0.9778 0.9042 0.0
C798 C 0.51446 0.97614 0.88766 0.0
C799 C 0.48611 0.9574 0.85036 0.0
C800 C 0.39294 0.94186 0.87824 0.0
C801 C 0.39908 0.95332 0.90396 0.0
C802 C 0.40962 0.94256 0.86084 0.0
C803 C 0.43278 0.95548 0.86853 0.0
C804 C 0.42205 0.96577 0.91187 0.0
C805 C 0.43871 0.96694 0.89431 0.0
C806 C 0.45101 0.95631 0.85107 0.0
C807 C 0.42055 0.9856 0.79696 0.0
C808 C 0.40896 0.97126 0.77408 0.0
C809 C 0.43418 0.981 0.813 0.0
C810 C 0.43645 0.96199 0.80639 0.0
C811 C 0.41128 0.95226 0.76749 0.0
C812 C 0.42513 0.94782 0.78336 0.0
C813 C 0.45198 0.95798 0.82222 0.0
H814 H 0.56373 0.00202 0.79976 0.0
H815 H 0.53097 0.99414 0.82795 0.0
H816 H 0.51994 0.94115 0.74912 0.0
H817 H 0.48713 0.93316 0.77773 0.0
H818 H 0.53392 0.93226 0.87654 0.0
H819 H 0.50447 0.92994 0.84684 0.0
H820 H 0.53905 0.99168 0.91961 0.0
H821 H 0.50911 0.98845 0.891 0.0
H822 H 0.37524 0.93201 0.8719 0.0
H823 H 0.40428 0.9327 0.84167 0.0
H824 H 0.42716 0.97487 0.93156 0.0
H825 H 0.45634 0.97692 0.90095 0.0
H826 H 0.41895 0.00028 0.80256 0.0
H827 H 0.4432 0.99247 0.83034 0.0
H828 H 0.40271 0.94108 0.74979 0.0
H829 H 0.42698 0.9333 0.77771 0.0
N830 N 0.46969 0.95877 0.80859 0.0
N831 N 0.46826 0.95625 0.8639 0.0
C832 C 0.00453 0.5702 0.79627 0.0
C833 C 0.0148 0.57972 0.77099 0.0
C834 C 0.0109 0.55704 0.81073 0.0
C835 C 0.02805 0.55359 0.80051 0.0
C836 C 0.03173 0.57599 0.76062 0.0
C837 C 0.03824 0.56301 0.77522 0.0
C838 C 0.03374 0.5382 0.81444 0.0
C839 C 0.04946 0.59624 0.87632 0.0
C840 C 0.03812 0.58825 0.9015 0.0
C841 C 0.04957 0.58055 0.85698 0.0
C842 C 0.03784 0.5566 0.86233 0.0
C843 C 0.02666 0.56437 0.90681 0.0
C844 C 0.02653 0.54878 0.88749 0.0
C845 C 0.03778 0.53932 0.84292 0.0
C846 C 0.05524 0.46092 0.85692 0.0
C847 C 0.045 0.45407 0.88283 0.0
C848 C 0.05372 0.47758 0.84241 0.0
C849 C 0.04139 0.48719 0.85328 0.0
C850 C 0.03311 0.46404 0.89385 0.0
C851 C 0.03132 0.48038 0.87926 0.0
C852 C 0.03936 0.50492 0.83861 0.0
C853 C 0.00489 0.44208 0.78183 0.0
C854 C 0.01734 0.44472 0.75774 0.0
C855 C 0.01103 0.46122 0.79925 0.0
C856 C 0.02966 0.48331 0.79278 0.0
C857 C 0.03607 0.46683 0.75135 0.0
C858 C 0.042 0.48608 0.76861 0.0
C859 C 0.0351 0.50371 0.81028 0.0
H860 H 0.99114 0.57242 0.80453 0.0
H861 H 0.00203 0.54914 0.82958 0.0
H862 H 0.04004 0.58323 0.74129 0.0
H863 H 0.05122 0.56023 0.76669 0.0
H864 H 0.05852 0.6146 0.87182 0.0
H865 H 0.05896 0.58715 0.83805 0.0
H866 H 0.01744 0.55765 0.92583 0.0
H867 H 0.01737 0.53043 0.89219 0.0
H868 H 0.06472 0.45368 0.84809 0.0
H869 H 0.0624 0.48309 0.82291 0.0
H870 H 0.0248 0.45889 0.91363 0.0
H871 H 0.02179 0.48751 0.88824 0.0
H872 H 0.99047 0.42517 0.78725 0.0
H873 H 0.00103 0.45885 0.81757 0.0
H874 H 0.04581 0.46927 0.73278 0.0
H875 H 0.05623 0.50309 0.76316 0.0
N876 N 0.03271 0.52048 0.79928 0.0
N877 N 0.04046 0.52266 0.85369 0.0
C878 C 0.55573 0.59032 0.78042 0.0
C879 C 0.564 0.58108 0.76058 0.0
C880 C 0.53661 0.57551 0.79629 0.0
C881 C 0.52574 0.5512 0.79298 0.0
C882 C 0.55303 0.5568 0.75723 0.0
C883 C 0.53413 0.54205 0.77325 0.0
C884 C 0.50478 0.53497 0.80841 0.0
C885 C 0.55803 0.57272 0.87436 0.0
C886 C 0.55266 0.58429 0.89462 0.0
C887 C 0.54177 0.55791 0.85495 0.0
C888 C 0.51996 0.5547 0.85514 0.0
C889 C 0.53094 0.58133 0.8945 0.0
C890 C 0.51473 0.5666 0.87501 0.0
C891 C 0.50178 0.53711 0.83682 0.0
C892 C 0.42016 0.44397 0.86303 0.0
C893 C 0.40927 0.4504 0.88274 0.0
C894 C 0.43791 0.46079 0.84705 0.0
C895 C 0.44491 0.48437 0.85004 0.0
C896 C 0.41641 0.47403 0.88587 0.0
C897 C 0.4341 0.49085 0.86974 0.0
C898 C 0.46463 0.50248 0.83434 0.0
C899 C 0.41104 0.45639 0.77239 0.0
C900 C 0.41796 0.44555 0.75302 0.0
C901 C 0.42706 0.47447 0.78947 0.0
C902 C 0.45019 0.48161 0.7879 0.0
C903 C 0.44118 0.45324 0.75086 0.0
C904 C 0.45713 0.47109 0.76813 0.0
C905 C 0.46754 0.50054 0.80587 0.0
H906 H 0.56367 0.60899 0.78314 0.0
H907 H 0.53009 0.58309 0.81068 0.0
H908 H 0.55914 0.5492 0.74228 0.0
H909 H 0.526 0.52338 0.77017 0.0
H910 H 0.57445 0.57428 0.87426 0.0
H911 H 0.54599 0.54831 0.84047 0.0
H912 H 0.52637 0.59012 0.90975 0.0
H913 H 0.49793 0.56419 0.87571 0.0
H914 H 0.41548 0.42601 0.86055 0.0
H915 H 0.44651 0.45538 0.83278 0.0
H916 H 0.40833 0.47954 0.90082 0.0
H917 H 0.43941 0.50897 0.87268 0.0
H918 H 0.39327 0.451 0.77416 0.0
H919 H 0.42136 0.48286 0.80383 0.0
H920 H 0.44694 0.44507 0.73624 0.0
H921 H 0.4749 0.47645 0.76633 0.0
N922 N 0.48751 0.51678 0.79418 0.0
N923 N 0.48179 0.52083 0.84859 0.0
C924 C 0.64716 0.7637 0.47704 0.0
C925 C 0.62903 0.75165 0.45837 0.0
C926 C 0.64773 0.78002 0.49573 0.0
C927 C 0.63 0.78436 0.49645 0.0
C928 C 0.6112 0.7559 0.45927 0.0
C929 C 0.61175 0.77219 0.47807 0.0
C930 C 0.63156 0.80319 0.5143 0.0
C931 C 0.62859 0.74988 0.57003 0.0
C932 C 0.64821 0.75862 0.58633 0.0
C933 C 0.6246 0.76505 0.55591 0.0
C934 C 0.64029 0.78921 0.55761 0.0
C935 C 0.66358 0.78284 0.58844 0.0
C936 C 0.65959 0.79795 0.57434 0.0
C937 C 0.63687 0.80574 0.5425 0.0
C938 C 0.6329 0.89038 0.57614 0.0
C939 C 0.65262 0.90216 0.5925 0.0
C940 C 0.62786 0.87041 0.56087 0.0
C941 C 0.64255 0.862 0.56159 0.0
C942 C 0.66681 0.89319 0.59391 0.0
C943 C 0.66174 0.87322 0.57873 0.0
C944 C 0.63842 0.84181 0.54434 0.0
C945 C 0.65608 0.89931 0.48676 0.0
C946 C 0.64095 0.89409 0.46491 0.0
C947 C 0.65373 0.88178 0.50336 0.0
C948 C 0.63546 0.85866 0.49959 0.0
C949 C 0.62273 0.87088 0.46099 0.0
C950 C 0.62001 0.85339 0.47817 0.0
C951 C 0.63381 0.83966 0.51592 0.0
H952 H 0.66143 0.76126 0.47646 0.0
H953 H 0.66243 0.78979 0.50899 0.0
H954 H 0.59696 0.74683 0.44524 0.0
H955 H 0.59804 0.7755 0.47805 0.0
H956 H 0.61622 0.73133 0.56836 0.0
H957 H 0.60926 0.75791 0.54373 0.0
H958 H 0.67899 0.79015 0.60052 0.0
H959 H 0.67191 0.81653 0.57605 0.0
H960 H 0.62167 0.89692 0.57462 0.0
H961 H 0.61272 0.86175 0.54818 0.0
H962 H 0.68189 0.90166 0.60672 0.0
H963 H 0.67319 0.8669 0.57979 0.0
H964 H 0.67011 0.91695 0.4909 0.0
H965 H 0.66665 0.88638 0.5187 0.0
H966 H 0.61094 0.86599 0.44414 0.0
H967 H 0.60605 0.83562 0.4744 0.0
N968 N 0.63022 0.82023 0.50217 0.0
N969 N 0.64002 0.82492 0.55636 0.0
C970 C 0.11415 0.73835 0.47803 0.0
C971 C 0.10426 0.74472 0.45798 0.0
C972 C 0.13146 0.75542 0.49497 0.0
C973 C 0.13924 0.77907 0.49185 0.0
C974 C 0.1122 0.7684 0.45487 0.0
C975 C 0.12965 0.7854 0.47148 0.0
C976 C 0.15771 0.79754 0.50908 0.0
C977 C 0.09724 0.76037 0.56571 0.0
C978 C 0.10049 0.74945 0.58766 0.0
C979 C 0.11554 0.7755 0.54909 0.0
C980 C 0.13748 0.77996 0.55394 0.0
C981 C 0.12252 0.75394 0.5924 0.0
C982 C 0.14085 0.7692 0.57583 0.0
C983 C 0.15724 0.79753 0.53798 0.0
C984 C 0.22411 0.89561 0.56931 0.0
C985 C 0.23523 0.89331 0.59165 0.0
C986 C 0.21065 0.8766 0.55176 0.0
C987 C 0.20809 0.85495 0.55625 0.0
C988 C 0.23278 0.87167 0.596 0.0
C989 C 0.2191 0.85257 0.57859 0.0
C990 C 0.19232 0.83439 0.53914 0.0
C991 C 0.25178 0.88152 0.48535 0.0
C992 C 0.24614 0.88904 0.46198 0.0
C993 C 0.23467 0.86367 0.50108 0.0
C994 C 0.21155 0.85333 0.49405 0.0
C995 C 0.22305 0.87839 0.45474 0.0
C996 C 0.20598 0.86073 0.47056 0.0
C997 C 0.19303 0.83424 0.5102 0.0
H998 H 0.10832 0.72021 0.48076 0.0
H999 H 0.13891 0.7502 0.5103 0.0
H1000 H 0.10509 0.77379 0.43932 0.0
H1001 H 0.1355 0.80354 0.46862 0.0
H1002 H 0.08066 0.75776 0.56179 0.0
H1003 H 0.11265 0.78423 0.53292 0.0
H1004 H 0.12561 0.74564 0.6089 0.0
H1005 H 0.15771 0.77264 0.58014 0.0
H1006 H 0.22583 0.91213 0.56541 0.0
H1007 H 0.20185 0.87867 0.53503 0.0
H1008 H 0.24102 0.86941 0.61323 0.0
H1009 H 0.21703 0.8359 0.5826 0.0
H1010 H 0.26944 0.88917 0.4912 0.0
H1011 H 0.23956 0.8578 0.51851 0.0
H1012 H 0.21813 0.88397 0.43703 0.0
H1013 H 0.18833 0.853 0.46457 0.0
N1014 N 0.17557 0.81586 0.49634 0.0
N1015 N 0.1746 0.81595 0.55188 0.0
C1016 C 0.25831 0.38405 0.47282 0.0
C1017 C 0.25205 0.36606 0.45316 0.0
C1018 C 0.24158 0.38477 0.48866 0.0
C1019 C 0.21838 0.36768 0.48475 0.0
C1020 C 0.22884 0.34903 0.44939 0.0
C1021 C 0.21219 0.34997 0.46482 0.0
C1022 C 0.20026 0.36836 0.50044 0.0
C1023 C 0.23333 0.34711 0.56211 0.0
C1024 C 0.24067 0.36053 0.5866 0.0
C1025 C 0.22081 0.35065 0.54288 0.0
C1026 C 0.21582 0.36808 0.54739 0.0
C1027 C 0.23586 0.37815 0.59092 0.0
C1028 C 0.22355 0.38183 0.57154 0.0
C1029 C 0.19978 0.36975 0.52936 0.0
C1030 C 0.10493 0.34152 0.55597 0.0
C1031 C 0.1081 0.35799 0.57648 0.0
C1032 C 0.12316 0.3452 0.53938 0.0
C1033 C 0.14486 0.36539 0.54305 0.0
C1034 C 0.12981 0.37825 0.58 0.0
C1035 C 0.1481 0.38179 0.5636 0.0
C1036 C 0.1646 0.36834 0.52732 0.0
C1037 C 0.1192 0.37464 0.46834 0.0
C1038 C 0.11009 0.35697 0.44787 0.0
C1039 C 0.13725 0.37818 0.48472 0.0
C1040 C 0.14641 0.36405 0.48091 0.0
C1041 C 0.11984 0.34344 0.44356 0.0
C1042 C 0.13785 0.34701 0.45983 0.0
C1043 C 0.16498 0.3668 0.49846 0.0
H1044 H 0.2761 0.3974 0.47604 0.0
H1045 H 0.2467 0.39879 0.50368 0.0
H1046 H 0.22355 0.33515 0.43411 0.0
H1047 H 0.1944 0.3367 0.46135 0.0
H1048 H 0.23694 0.33358 0.55792 0.0
H1049 H 0.2143 0.33907 0.52507 0.0
H1050 H 0.24093 0.3886 0.6097 0.0
H1051 H 0.21952 0.39507 0.57578 0.0
H1052 H 0.08834 0.32582 0.55274 0.0
H1053 H 0.12042 0.33203 0.52408 0.0
H1054 H 0.13276 0.39111 0.59585 0.0
H1055 H 0.16481 0.39729 0.56703 0.0
H1056 H 0.11206 0.38537 0.47209 0.0
H1057 H 0.14397 0.39188 0.50038 0.0
H1058 H 0.1135 0.33001 0.42758 0.0
H1059 H 0.14479 0.33608 0.45627 0.0
N1060 N 0.18278 0.3668 0.48618 0.0
N1061 N 0.18204 0.36989 0.54158 0.0
C1062 C 0.0038 0.39368 0.07009 0.0
C1063 C 0.9865 0.37778 0.05207 0.0
H1064 H 0.01349 0.41935 0.10233 0.0
C1065 C 0.96467 0.37447 0.05444 0.0
H1066 H 0.02079 0.39662 0.06889 0.0
C1067 C 0.96046 0.38738 0.07391 0.0
C1068 C 0.97811 0.404 0.09097 0.0
H1069 H 0.95097 0.36226 0.04093 0.0
H1070 H 0.9437 0.38504 0.07491 0.0
C1071 C -0.00032 0.40675 0.08919 0.0
C1072 C 0.62183 0.58786 0.0665 0.0
C1073 C 0.63816 0.6096 0.0782 0.0
H1074 H 0.59318 0.55356 0.07328 0.0
C1075 C 0.63915 0.61248 0.1069 0.0
H1076 H 0.62069 0.58494 0.0445 0.0
C1077 C 0.6233 0.59438 0.12342 0.0
C1078 C 0.60615 0.57317 0.1115 0.0
H1079 H 0.65157 0.629 0.11655 0.0
H1080 H 0.62377 0.59737 0.14538 0.0
C1081 C 0.60599 0.56988 0.08296 0.0
C1082 C 0.3842 0.98905 0.08432 0.0
C1083 C 0.38375 0.00716 0.07174 0.0
H1084 H 0.40256 0.97913 0.10905 0.0
C1085 C 0.40225 0.03015 0.07558 0.0
H1086 H 0.37039 0.97109 0.08139 0.0
C1087 C 0.42067 0.03491 0.09218 0.0
C1088 C 0.42105 0.01671 0.10488 0.0
H1089 H 0.40234 0.04445 0.06611 0.0
H1090 H 0.43441 0.05285 0.09533 0.0
C1091 C 0.40266 0.99372 0.1004 0.0
C1092 C 0.36628 0.94781 0.96871 0.0
C1093 C 0.35523 0.9594 0.96181 0.0
H1094 H 0.38908 0.93697 0.95555 0.0
C1095 C 0.3565 0.96638 0.93466 0.0
H1096 H 0.36569 0.94228 0.98944 0.0
C1097 C 0.3696 0.96296 0.91519 0.0
C1098 C 0.38191 0.95288 0.92271 0.0
H1099 H 0.34809 0.97529 0.92876 0.0
H1100 H 0.37118 0.96939 0.89472 0.0
C1101 C 0.37971 0.94481 0.94939 0.0
C1102 C 0.04911 0.42183 0.94212 0.0
C1103 C 0.04213 0.39997 0.92992 0.0
H1104 H 0.05563 0.4561 0.9367 0.0
C1105 C 0.03848 0.3969 0.90144 0.0
H1106 H 0.05219 0.42488 0.96396 0.0
C1107 C 0.04054 0.41491 0.8858 0.0
C1108 C 0.0461 0.43622 0.89839 0.0
H1109 H 0.03316 0.38031 0.89138 0.0
H1110 H 0.03666 0.41174 0.86413 0.0
C1111 C 0.05097 0.43971 0.92655 0.0
C1112 C 0.60807 0.62397 0.93275 0.0
C1113 C 0.60064 0.62039 0.96014 0.0
H1114 H 0.59867 0.6155 0.89047 0.0
C1115 C 0.57719 0.60613 0.96566 0.0
H1116 H 0.62603 0.63492 0.9278 0.0
C1117 C 0.56157 0.59506 0.9443 0.0
C1118 C 0.56907 0.59793 0.91696 0.0
H1119 H 0.5709 0.60305 0.98653 0.0
H1120 H 0.5437 0.58353 0.94929 0.0
C1121 C 0.59244 0.61278 0.91137 0.0
C1122 C 0.03665 0.61442 0.97028 0.0
C1123 C 0.0287 0.62885 0.96321 0.0
H1124 H 0.04624 0.59056 0.95614 0.0
C1125 C 0.02671 0.63214 0.93533 0.0
H1126 H 0.03863 0.6117 0.99153 0.0
C1127 C 0.03111 0.61997 0.91501 0.0
C1128 C 0.03748 0.6043 0.92227 0.0
H1129 H 0.02074 0.64324 0.92921 0.0
H1130 H 0.02827 0.62183 0.89376 0.0
C1131 C 0.04096 0.60226 0.95003 0.0
C1132 C 0.35944 0.39287 0.90744 0.0
C1133 C 0.36015 0.39701 0.93591 0.0
H1134 H 0.37416 0.40655 0.86833 0.0
C1135 C 0.37598 0.41943 0.94648 0.0
H1136 H 0.34739 0.37586 0.89857 0.0
C1137 C 0.39139 0.43701 0.92911 0.0
C1138 C 0.39135 0.43254 0.90079 0.0
H1139 H 0.37701 0.42322 0.96831 0.0
H1140 H 0.40396 0.4538 0.93804 0.0
C1141 C 0.37488 0.41042 0.8901 0.0
C1142 C 0.59115 0.96366 0.92727 0.0
C1143 C 0.59243 0.97232 0.95407 0.0
H1144 H 0.57338 0.95411 0.88891 0.0
C1145 C 0.57497 0.97528 0.96398 0.0
H1146 H 0.6046 0.96143 0.91923 0.0
C1147 C 0.55692 0.97057 0.9471 0.0
C1148 C 0.55628 0.96353 0.91955 0.0
H1149 H 0.57554 0.98172 0.98474 0.0
H1150 H 0.54376 0.97307 0.95555 0.0
C1151 C 0.57327 0.95947 0.91 0.0
C1152 C 0.62995 0.04086 0.07261 0.0
C1153 C 0.62422 0.01864 0.06292 0.0
H1154 H 0.62045 0.06071 0.09816 0.0
C1155 C 0.60387 -0.00098 0.0721 0.0
H1156 H 0.64551 0.05632 0.06598 0.0
C1157 C 0.58944 0.00153 0.09018 0.0
C1158 C 0.595 0.02371 0.0998 0.0
H1159 H 0.59881 0.98162 0.06494 0.0
H1160 H 0.57363 0.98602 0.09614 0.0
C1161 C 0.6155 0.04337 0.0909 0.0
C1162 C 0.97214 0.61137 0.10332 0.0
C1163 C 0.97224 0.60986 0.07453 0.0
H1164 H 0.97015 0.59496 0.14105 0.0
C1165 C 0.96838 0.58919 0.06172 0.0
H1166 H 0.97501 0.62702 0.11383 0.0
C1167 C 0.96571 0.57096 0.07729 0.0
C1168 C 0.96666 0.57287 0.10603 0.0
H1169 H 0.96825 0.58737 0.0396 0.0
H1170 H 0.96336 0.5555 0.06681 0.0
C1171 C 0.96928 0.59299 0.11893 0.0
C1172 C 0.42029 0.39341 0.04384 0.0
C1173 C 0.39708 0.37891 0.05041 0.0
H1174 H 0.45406 0.41725 0.05889 0.0
C1175 C 0.39056 0.37521 0.07816 0.0
H1176 H 0.42588 0.39653 0.0227 0.0
C1177 C 0.40677 0.38691 0.09888 0.0
C1178 C 0.42969 0.40266 0.09215 0.0
H1179 H 0.37281 0.36398 0.08387 0.0
H1180 H 0.4012 0.38469 0.12004 0.0
C1181 C 0.43641 0.40529 0.06452 0.0
C1182 C 0.62757 0.72455 0.38876 0.0
C1183 C 0.63642 0.7107 0.39479 0.0
H1184 H 0.61843 0.74848 0.4041 0.0
C1185 C 0.64074 0.70868 0.42227 0.0
H1186 H 0.62402 0.72645 0.36783 0.0
C1187 C 0.63743 0.72122 0.44308 0.0
C1188 C 0.6297 0.73602 0.43688 0.0
H1189 H 0.64739 0.69799 0.42765 0.0
H1190 H 0.64141 0.71973 0.46397 0.0
C1191 C 0.62425 0.73709 0.40959 0.0
C1192 C 0.29779 0.94715 0.44175 0.0
C1193 C 0.2962 0.94559 0.41301 0.0
H1194 H 0.2832 0.9305 0.47978 0.0
C1195 C 0.27888 0.92474 0.40054 0.0
H1196 H 0.31094 0.96295 0.45201 0.0
C1197 C 0.263 0.90623 0.41644 0.0
C1198 C 0.26412 0.90805 0.44518 0.0
H1199 H 0.27717 0.92289 0.37846 0.0
H1200 H 0.24966 0.89053 0.40621 0.0
C1201 C 0.28196 0.92853 0.45767 0.0
C1202 C 0.05412 0.3238 0.40957 0.0
C1203 C 0.05304 0.34174 0.39744 0.0
H1204 H 0.07271 0.3146 0.43519 0.0
C1205 C 0.07039 0.36501 0.4031 0.0
H1206 H 0.04097 0.30568 0.40589 0.0
C1207 C 0.08877 0.37012 0.41999 0.0
C1208 C 0.09012 0.35205 0.43135 0.0
H1209 H 0.07001 0.37921 0.39409 0.0
H1210 H 0.10222 0.38815 0.4235 0.0
C1211 C 0.0724 0.32889 0.42629 0.0
C1212 C 0.01926 0.27628 0.27461 0.0
C1213 C 0.02314 0.29856 0.28059 0.0
H1214 H 0.03085 0.25637 0.25273 0.0
C1215 C 0.04073 0.31776 0.26672 0.0
H1216 H 0.00579 0.26113 0.28486 0.0
C1217 C 0.05493 0.31503 0.24854 0.0
C1218 C 0.05188 0.29303 0.24364 0.0
H1219 H 0.04404 0.33514 0.27049 0.0
H1220 H 0.06876 0.33029 0.23881 0.0
C1221 C 0.03351 0.27352 0.25618 0.0
C1222 C 0.69507 0.72499 0.25221 0.0
C1223 C 0.69596 0.72779 0.28092 0.0
H1224 H 0.69684 0.74012 0.21363 0.0
C1225 C 0.7021 0.74959 0.29256 0.0
H1226 H 0.69046 0.70843 0.24258 0.0
C1227 C 0.70584 0.76772 0.27597 0.0
C1228 C 0.70351 0.76447 0.24738 0.0
H1229 H 0.70318 0.75243 0.31457 0.0
H1230 H 0.70987 0.7841 0.28561 0.0
C1231 C 0.69882 0.74317 0.2356 0.0
C1232 C 0.26877 0.96945 0.27266 0.0
C1233 C 0.26261 0.96547 0.30049 0.0
H1234 H 0.25752 0.95991 0.2309 0.0
C1235 C 0.23948 0.95095 0.30742 0.0
H1236 H 0.28645 0.98067 0.26667 0.0
C1237 C 0.2231 0.93918 0.28705 0.0
C1238 C 0.22948 0.94181 0.25934 0.0
H1239 H 0.23409 0.94771 0.32863 0.0
H1240 H 0.20556 0.9271 0.29298 0.0
C1241 C 0.25226 0.95771 0.25218 0.0
C1242 C 0.68945 0.96267 0.26784 0.0
C1243 C 0.69441 0.96236 0.29559 0.0
H1244 H 0.68873 0.94955 0.22702 0.0
C1245 C 0.70517 0.95058 0.30286 0.0
H1246 H 0.68131 0.97175 0.26157 0.0
C1247 C 0.70929 0.93789 0.28316 0.0
C1248 C 0.70299 0.93697 0.25577 0.0
H1249 H 0.7094 0.95014 0.32399 0.0
H1250 H 0.71655 0.92797 0.28951 0.0
C1251 C 0.69381 0.95012 0.24804 0.0
C1252 C 0.05835 0.72285 0.26922 0.0
C1253 C 0.03907 0.72017 0.28289 0.0
H1254 H 0.08616 0.74328 0.24214 0.0
C1255 C 0.03238 0.7361 0.27812 0.0
H1256 H 0.06387 0.71079 0.27218 0.0
C1257 C 0.04525 0.7548 0.26071 0.0
C1258 C 0.06505 0.75791 0.24802 0.0
H1259 H 0.01755 0.73442 0.28827 0.0
H1260 H 0.04021 0.76728 0.25797 0.0
C1261 C 0.07118 0.7415 0.25204 0.0
C1262 C 0.26705 0.33451 0.27244 0.0
C1263 C 0.26955 0.31717 0.28381 0.0
H1264 H 0.24661 0.34234 0.24829 0.0
C1265 C 0.25284 0.29362 0.27835 0.0
H1266 H 0.27962 0.35282 0.27607 0.0
C1267 C 0.2338 0.28761 0.26222 0.0
C1268 C 0.2311 0.30507 0.2516 0.0
H1269 H 0.25433 0.27988 0.28677 0.0
H1270 H 0.22094 0.26938 0.25863 0.0
C1271 C 0.24805 0.32853 0.25661 0.0
C1272 C 0.29967 0.38199 0.40197 0.0
C1273 C 0.29819 0.36055 0.39803 0.0
H1274 H 0.28629 0.40062 0.42288 0.0
C1275 C 0.28295 0.34174 0.41437 0.0
H1276 H 0.31129 0.39684 0.3898 0.0
C1277 C 0.26862 0.34389 0.43302 0.0
C1278 C 0.26936 0.36495 0.43605 0.0
H1279 H 0.28141 0.32501 0.41203 0.0
H1280 H 0.25652 0.32886 0.44465 0.0
C1281 C 0.28546 0.3842 0.42095 0.0
C1282 C 0.63109 0.92987 0.41437 0.0
C1283 C 0.65355 0.94799 0.40898 0.0
H1284 H 0.60931 0.89909 0.43701 0.0
C1285 C 0.67164 0.9482 0.42185 0.0
H1286 H 0.61682 0.92933 0.40471 0.0
C1287 C 0.66747 0.93064 0.4396 0.0
C1288 C 0.64503 0.91263 0.44561 0.0
H1289 H 0.68918 0.9617 0.41773 0.0
H1290 H 0.68203 0.93109 0.4482 0.0
C1291 C 0.62684 0.91248 0.43274 0.0
C1292 C 0.07187 0.69532 0.40601 0.0
C1293 C 0.05269 0.6968 0.40117 0.0
H1294 H 0.10327 0.70932 0.42811 0.0
C1295 C 0.04979 0.71283 0.41685 0.0
H1296 H 0.07455 0.6831 0.39435 0.0
C1297 C 0.06622 0.72782 0.43592 0.0
C1298 C 0.08581 0.727 0.43998 0.0
H1299 H 0.03517 0.71438 0.41382 0.0
H1300 H 0.0638 0.74041 0.44718 0.0
C1301 C 0.08825 0.71023 0.42538 0.0
C1302 C 0.30851 0.04267 0.75372 0.0
C1303 C 0.30457 0.04485 0.72616 0.0
H1304 H 0.30793 0.05295 0.79549 0.0
C1305 C 0.29539 0.05838 0.71994 0.0
H1306 H 0.31544 0.03226 0.75924 0.0
C1307 C 0.29118 0.07029 0.7407 0.0
C1308 C 0.29605 0.06894 0.76815 0.0
H1309 H 0.29211 0.0604 0.69893 0.0
H1310 H 0.28501 0.08135 0.73509 0.0
C1311 C 0.30432 0.05461 0.77449 0.0
C1312 C 0.94 0.28285 0.763 0.0
C1313 C 0.95699 0.28224 0.74752 0.0
H1314 H 0.91279 0.26591 0.79162 0.0
C1315 C 0.9602 0.26363 0.75078 0.0
H1316 H 0.93683 0.29676 0.76072 0.0
C1317 C 0.94665 0.246 0.76926 0.0
C1318 C 0.92937 0.24645 0.78452 0.0
H1319 H 0.97321 0.26273 0.73915 0.0
H1320 H 0.9498 0.2321 0.77163 0.0
C1321 C 0.92625 0.26513 0.78099 0.0
C1322 C 0.75405 0.71433 0.73716 0.0
C1323 C 0.73243 0.70536 0.74925 0.0
H1324 H 0.78871 0.724 0.74258 0.0
C1325 C 0.73004 0.70152 0.77755 0.0
H1326 H 0.7565 0.71756 0.71542 0.0
C1327 C 0.74852 0.70524 0.79309 0.0
C1328 C 0.7698 0.71297 0.7807 0.0
H1329 H 0.71368 0.69477 0.78757 0.0
H1330 H 0.74599 0.70151 0.81472 0.0
C1331 C 0.77255 0.71813 0.75274 0.0
C1332 C 0.72262 0.65887 0.61268 0.0
C1333 C 0.70339 0.6408 0.62587 0.0
H1334 H 0.74953 0.6684 0.58394 0.0
C1335 C 0.69596 0.61761 0.61854 0.0
H1336 H 0.72897 0.67695 0.61803 0.0
C1337 C 0.70757 0.61264 0.5984 0.0
C1338 C 0.72701 0.63077 0.58541 0.0
H1339 H 0.68114 0.6033 0.62828 0.0
H1340 H 0.70123 0.59459 0.59293 0.0
C1341 C 0.73436 0.65394 0.59291 0.0
C1342 C 0.32943 0.05585 0.59461 0.0
C1343 C 0.34542 0.05655 0.61265 0.0
H1344 H 0.32193 0.07452 0.56649 0.0
C1345 C 0.36728 0.07691 0.61454 0.0
H1346 H 0.31244 0.04048 0.59265 0.0
C1347 C 0.37278 0.09635 0.59915 0.0
C1348 C 0.35636 0.09582 0.5821 0.0
H1349 H 0.37996 0.07794 0.62823 0.0
H1350 H 0.38954 0.11204 0.60127 0.0
C1351 C 0.33478 0.07534 0.5797 0.0
C1352 C 0.90779 0.27383 0.63793 0.0
C1353 C 0.93078 0.28969 0.6315 0.0
H1354 H 0.87439 0.24902 0.62269 0.0
C1355 C 0.93726 0.29425 0.60382 0.0
H1356 H 0.90219 0.27001 0.65901 0.0
C1357 C 0.92119 0.28231 0.58298 0.0
C1358 C 0.89852 0.2655 0.58956 0.0
H1359 H 0.95484 0.3065 0.59823 0.0
H1360 H 0.92668 0.2854 0.56179 0.0
C1361 C 0.89186 0.26177 0.61717 0.0
C1362 C 0.37261 0.30549 0.61784 0.0
C1363 C 0.35053 0.30112 0.62236 0.0
H1364 H 0.39323 0.29508 0.59621 0.0
C1365 C 0.33243 0.28386 0.60628 0.0
H1366 H 0.38694 0.31875 0.62979 0.0
C1367 C 0.33604 0.2704 0.5872 0.0
C1368 C 0.35786 0.27397 0.58363 0.0
H1369 H 0.31524 0.28016 0.609 0.0
H1370 H 0.32163 0.25674 0.57569 0.0
C1371 C 0.37625 0.29206 0.59854 0.0
C1372 C 0.70808 0.08282 0.62281 0.0
C1373 C 0.69041 0.06141 0.61186 0.0
H1374 H 0.73732 0.11644 0.61466 0.0
C1375 C 0.68795 0.05836 0.58324 0.0
H1376 H 0.71043 0.08585 0.64474 0.0
C1377 C 0.70345 0.07601 0.56596 0.0
C1378 C 0.72175 0.09693 0.57701 0.0
H1379 H 0.6745 0.04209 0.57416 0.0
H1380 H 0.70166 0.07292 0.54399 0.0
C1381 C 0.72359 0.10033 0.60558 0.0
C1382 C 0.91386 0.62084 0.60055 0.0
C1383 C 0.92911 0.64431 0.60826 0.0
H1384 H 0.88436 0.59655 0.57684 0.0
C1385 C 0.92604 0.66146 0.59748 0.0
H1386 H 0.91577 0.60722 0.60853 0.0
C1387 C 0.90812 0.65538 0.57964 0.0
C1388 C 0.89278 0.63198 0.57189 0.0
H1389 H 0.93735 0.6797 0.60306 0.0
H1390 H 0.90605 0.6691 0.57234 0.0
C1391 C 0.89582 0.61473 0.58255 0.0
C1392 C 0.93771 0.67342 0.73254 0.0
C1393 C 0.95905 0.69161 0.72344 0.0
H1394 H 0.90859 0.6633 0.75782 0.0
C1395 C 0.96752 0.71431 0.73396 0.0
H1396 H 0.93054 0.65574 0.72472 0.0
C1397 C 0.95491 0.71863 0.75333 0.0
C1398 C 0.93361 0.70033 0.7625 0.0
H1399 H 0.98391 0.72871 0.72736 0.0
H1400 H 0.96197 0.73623 0.76139 0.0
C1401 C 0.92514 0.67773 0.75171 0.0
C1402 C 0.32966 0.27258 0.75073 0.0
C1403 C 0.31172 0.27422 0.74042 0.0
H1404 H 0.33969 0.25481 0.77665 0.0
C1405 C 0.2894 0.25869 0.74969 0.0
H1406 H 0.34706 0.28413 0.74393 0.0
C1407 C 0.28517 0.24186 0.76889 0.0
C1408 C 0.3032 0.24027 0.77914 0.0
H1409 H 0.27522 0.25953 0.74214 0.0
H1410 H 0.26784 0.23022 0.77584 0.0
C1411 C 0.32545 0.25583 0.76973 0.0
C1412 C 0.72077 0.04818 0.75824 0.0
C1413 C 0.72787 0.0521 0.73073 0.0
H1414 H 0.73063 0.05637 0.80044 0.0
C1415 C 0.7512 0.06688 0.7249 0.0
H1416 H 0.70292 0.03685 0.76343 0.0
C1417 C 0.767 0.07807 0.74605 0.0
C1418 C 0.75986 0.07476 0.77355 0.0
H1419 H 0.75726 0.07028 0.70395 0.0
H1420 H 0.78474 0.08997 0.74077 0.0
C1421 C 0.73661 0.05946 0.77944 0.0
C1422 C 0.07237 0.34026 0.05099 0.0
C1423 C 0.05481 0.3231 0.03424 0.0
H1424 H 0.09628 0.34778 0.0829 0.0
C1425 C 0.04807 0.2997 0.03705 0.0
H1426 H 0.07802 0.35846 0.04926 0.0
C1427 C 0.05823 0.29351 0.0567 0.0
C1428 C 0.07551 0.3106 0.07386 0.0
H1429 H 0.03447 0.28601 0.0246 0.0
H1430 H 0.05215 0.27524 0.05887 0.0
C1431 C 0.08266 0.33409 0.0705 0.0
C1432 C 0.6416 0.70788 0.07048 0.0
C1433 C 0.6583 0.70563 0.05653 0.0
H1434 H 0.63443 0.72946 0.09609 0.0
C1435 C 0.6812 0.72414 0.05796 0.0
H1436 H 0.6238 0.69398 0.06968 0.0
C1437 C 0.68732 0.74434 0.07332 0.0
C1438 C 0.67067 0.74655 0.0875 0.0
H1439 H 0.69451 0.72293 0.04754 0.0
H1440 H 0.70518 0.75805 0.07451 0.0
C1441 C 0.64772 0.72815 0.08576 0.0
C1442 C 0.24855 0.94021 0.03431 0.0
C1443 C 0.27097 0.9558 0.04338 0.0
H1444 H 0.21383 0.91611 0.04558 0.0
C1445 C 0.27526 0.9595 0.0717 0.0
H1446 H 0.24469 0.93697 0.01264 0.0
C1447 C 0.25759 0.94776 0.09053 0.0
C1448 C 0.23519 0.93198 0.08153 0.0
H1449 H 0.29232 0.97151 0.07942 0.0
H1450 H 0.26147 0.95115 0.11219 0.0
C1451 C 0.23084 0.9284 0.05319 0.0
C1452 C 0.31262 0.03421 0.93009 0.0
C1453 C 0.3216 0.03904 0.95675 0.0
H1454 H 0.30172 0.04554 0.8966 0.0
C1455 C 0.32619 0.05966 0.97039 0.0
H1456 H 0.30899 0.01853 0.91895 0.0
C1457 C 0.32173 0.07505 0.95765 0.0
C1458 C 0.3127 0.0702 0.93096 0.0
H1459 H 0.33299 0.06381 0.991 0.0
H1460 H 0.32509 0.09061 0.96886 0.0
C1461 C 0.30828 0.04963 0.91733 0.0
C1462 C 0.96677 0.28766 0.94957 0.0
C1463 C 0.96453 0.28976 0.978 0.0
H1464 H 0.95261 0.26672 0.91307 0.0
C1465 C 0.94579 0.27145 0.9916 0.0
H1466 H 0.98103 0.30144 0.93847 0.0
C1467 C 0.92952 0.25153 0.977 0.0
C1468 C 0.93177 0.24947 0.94857 0.0
H1469 H 0.94363 0.27252 0.0135 0.0
H1470 H 0.91524 0.23766 0.98797 0.0
C1471 C 0.9506 0.2677 0.93503 0.0
C1472 C 0.72558 0.69208 0.93288 0.0
C1473 C 0.71991 0.68071 0.958 0.0
H1474 H 0.74953 0.70623 0.89995 0.0
C1475 C 0.73526 0.67591 0.96993 0.0
H1476 H 0.71406 0.69595 0.92312 0.0
C1477 C 0.75581 0.68219 0.95688 0.0
C1478 C 0.76134 0.69318 0.93147 0.0
H1479 H 0.73146 0.66738 0.98942 0.0
H1480 H 0.76738 0.67846 0.96676 0.0
C1481 C 0.74602 0.69815 0.9197 0.0
C1482 C 0.97024 0.70739 0.95409 0.0
C1483 C 0.96341 0.68459 0.96098 0.0
H1484 H 0.96159 0.72937 0.93421 0.0
C1485 C 0.94213 0.66598 0.9519 0.0
H1486 H 0.98651 0.72212 0.9609 0.0
C1487 C 0.92801 0.67009 0.93613 0.0
C1488 C 0.93473 0.69294 0.92938 0.0
H1489 H 0.93649 0.64819 0.95665 0.0
H1490 H 0.91193 0.6553 0.92899 0.0
C1491 C 0.95602 0.71154 0.9386 0.0
C1492 C 0.31599 0.28512 0.95171 0.0
C1493 C 0.32212 0.28694 0.97939 0.0
H1494 H 0.30662 0.26474 0.9144 0.0
C1495 C 0.32283 0.26857 0.99089 0.0
H1496 H 0.31526 0.29896 0.94222 0.0
C1497 C 0.3178 0.24893 0.97492 0.0
C1498 C 0.31187 0.24723 0.94719 0.0
H1499 H 0.3274 0.2694 0.01217 0.0
H1500 H 0.31848 0.23503 0.98432 0.0
C1501 C 0.31087 0.26545 0.9358 0.0
C1502 C 0.71123 0.03773 0.95131 0.0
C1503 C 0.71218 0.04054 0.98002 0.0
H1504 H 0.72858 0.0505 0.91309 0.0
C1505 C 0.73211 0.05904 0.99219 0.0
H1506 H 0.69615 0.02361 0.94127 0.0
C1507 C 0.75063 0.0745 0.97599 0.0
C1508 C 0.74969 0.0716 0.94731 0.0
H1509 H 0.73339 0.06167 0.01423 0.0
H1510 H 0.7658 0.08859 0.98591 0.0
C1511 C 0.72984 0.05302 0.93515 0.0
C1512 C 0.66636 0.93318 0.04829 0.0
C1513 C 0.66533 0.95125 0.06173 0.0
H1514 H 0.67208 0.90518 0.05215 0.0
C1515 C 0.66945 0.95487 0.09008 0.0
H1516 H 0.6633 0.92998 0.02646 0.0
C1517 C 0.67434 0.94068 0.10472 0.0
C1518 C 0.67543 0.92264 0.09134 0.0
H1519 H 0.66879 0.96864 0.10109 0.0
H1520 H 0.67754 0.944 0.12652 0.0
C1521 C 0.6715 0.91908 0.06294 0.0
C1522 C 0.07061 0.72209 0.06076 0.0
C1523 C 0.04841 0.71469 0.0523 0.0
H1524 H 0.10004 0.74737 0.08355 0.0
C1525 C 0.03888 0.72784 0.06054 0.0
H1526 H 0.07846 0.7124 0.05469 0.0
C1527 C 0.05124 0.74786 0.07712 0.0
C1528 C 0.07332 0.75506 0.08589 0.0
H1529 H 0.02181 0.72262 0.05434 0.0
H1530 H 0.04335 0.75745 0.08351 0.0
C1531 C 0.08292 0.74205 0.07742 0.0
C1532 C 0.26259 0.33001 0.05138 0.0
C1533 C 0.2818 0.33276 0.06457 0.0
H1534 H 0.22788 0.32098 0.05553 0.0
C1535 C 0.28065 0.32872 0.09277 0.0
H1536 H 0.26295 0.33292 0.02964 0.0
C1537 C 0.26074 0.32208 0.10752 0.0
C1538 C 0.24145 0.31905 0.09432 0.0
H1539 H 0.29518 0.33071 0.10353 0.0
H1540 H 0.26032 0.31899 0.12922 0.0
C1541 C 0.2425 0.32303 0.06611 0.0
C1542 C 0.71732 0.66457 0.39837 0.0
C1543 C 0.69544 0.64697 0.38964 0.0
H1544 H 0.74746 0.67314 0.42006 0.0
C1545 C 0.68736 0.62373 0.39601 0.0
H1546 H 0.72394 0.68266 0.39405 0.0
C1547 C 0.70099 0.61819 0.41064 0.0
C1548 C 0.72291 0.6358 0.41937 0.0
H1549 H 0.67056 0.60977 0.38951 0.0
H1550 H 0.69447 0.60008 0.41472 0.0
C1551 C 0.73084 0.65907 0.4132 0.0
C1552 C 0.31267 0.0546 0.40154 0.0
C1553 C 0.32828 0.04882 0.39162 0.0
H1554 H 0.30761 0.07861 0.42516 0.0
C1555 C 0.35153 0.06362 0.39814 0.0
H1556 H 0.29467 0.04364 0.39679 0.0
C1557 C 0.35894 0.08366 0.41453 0.0
C1558 C 0.34324 0.08921 0.42478 0.0
H1559 H 0.364 0.05965 0.39078 0.0
H1560 H 0.37689 0.09456 0.41961 0.0
C1561 C 0.32006 0.07457 0.41794 0.0
C1562 C 0.91667 0.27524 0.36325 0.0
C1563 C 0.9395 0.28849 0.37185 0.0
H1564 H 0.88182 0.25206 0.37468 0.0
C1565 C 0.9445 0.28856 0.39966 0.0
H1566 H 0.91226 0.27475 0.34196 0.0
C1567 C 0.92706 0.27591 0.4185 0.0
C1568 C 0.90418 0.26268 0.40998 0.0
H1569 H 0.96191 0.29871 0.40704 0.0
H1570 H 0.93152 0.27681 0.43984 0.0
C1571 C 0.89921 0.2624 0.38208 0.0
C1572 C 0.98822 0.38956 0.2967 0.0
C1573 C 0.98964 0.37184 0.28291 0.0
H1574 H 0.98322 0.41807 0.29314 0.0
C1575 C 0.98704 0.36941 0.25429 0.0
H1576 H 0.99009 0.39179 0.31875 0.0
C1577 C 0.98333 0.3845 0.23971 0.0
C1578 C 0.98183 0.40214 0.25345 0.0
H1579 H 0.98808 0.35596 0.24303 0.0
H1580 H 0.98143 0.38223 0.21766 0.0
C1581 C 0.98416 0.40447 0.28211 0.0
C1582 C 0.59149 0.59909 0.32302 0.0
C1583 C 0.61072 0.61952 0.31333 0.0
H1584 H 0.56365 0.56456 0.31308 0.0
C1585 C 0.61632 0.62081 0.28536 0.0
H1586 H 0.58678 0.59757 0.34446 0.0
C1587 C 0.60307 0.60202 0.26747 0.0
C1588 C 0.58408 0.58146 0.27722 0.0
H1589 H 0.63103 0.63634 0.27725 0.0
H1590 H 0.60792 0.60341 0.24607 0.0
C1591 C 0.57836 0.58016 0.30513 0.0
C1592 C 0.38707 -0.00213 0.29221 0.0
C1593 C 0.38595 0.01734 0.30019 0.0
H1594 H 0.40533 0.98509 0.27005 0.0
C1595 C 0.40358 0.03958 0.29229 0.0
H1596 H 0.37367 0.98048 0.29779 0.0
C1597 C 0.42193 0.04229 0.27668 0.0
C1598 C 0.42297 0.02279 0.26844 0.0
H1599 H 0.40327 0.05496 0.29823 0.0
H1600 H 0.4354 0.0597 0.27129 0.0
C1601 C 0.4053 0.00055 0.27641 0.0
C1602 C 0.60163 0.99227 0.28682 0.0
C1603 C 0.62326 0.01131 0.29405 0.0
H1604 H 0.57044 0.98036 0.26553 0.0
C1605 C 0.6296 0.03369 0.28592 0.0
H1606 H 0.59637 0.97479 0.2926 0.0
C1607 C 0.61461 0.03699 0.27087 0.0
C1608 C 0.59304 0.01794 0.26325 0.0
H1609 H 0.64612 0.04874 0.29137 0.0
H1610 H 0.61989 0.05455 0.26546 0.0
C1611 C 0.58675 0.99552 0.27141 0.0
C1612 C 0.99115 0.6124 0.28419 0.0
C1613 C 0.99051 0.60885 0.3125 0.0
H1614 H 0.98753 0.598 0.2437 0.0
C1615 C 0.98613 0.58735 0.32153 0.0
H1616 H 0.99446 0.62875 0.2765 0.0
C1617 C 0.98221 0.56968 0.30258 0.0
C1618 C 0.9827 0.57325 0.27429 0.0
H1619 H 0.98553 0.58409 0.34319 0.0
H1620 H 0.97897 0.5533 0.31006 0.0
C1621 C 0.98729 0.59482 0.26533 0.0
C1622 C 0.40241 0.39975 0.31778 0.0
C1623 C 0.38119 0.38133 0.30824 0.0
H1624 H 0.43635 0.42687 0.30733 0.0
C1625 C 0.37798 0.3765 0.27988 0.0
H1626 H 0.40543 0.40393 0.33948 0.0
C1627 C 0.39567 0.38967 0.26148 0.0
C1628 C 0.417 0.40779 0.27107 0.0
H1629 H 0.3618 0.36246 0.27184 0.0
H1630 H 0.39279 0.38538 0.23979 0.0
C1631 C 0.42016 0.41278 0.29939 0.0
C1632 C 0.32939 0.26948 0.38949 0.0
C1633 C 0.34767 0.29122 0.3812 0.0
H1634 H 0.31871 0.23915 0.413 0.0
C1635 C 0.36985 0.29861 0.38991 0.0
H1636 H 0.31211 0.26326 0.38313 0.0
C1637 C 0.37361 0.28487 0.40709 0.0
C1638 C 0.35527 0.26345 0.41605 0.0
H1639 H 0.38433 0.31527 0.38389 0.0
H1640 H 0.39082 0.29135 0.41399 0.0
C1641 C 0.33315 0.25576 0.40679 0.0
C1642 C 0.70371 0.06395 0.38382 0.0
C1643 C 0.71397 0.05257 0.37182 0.0
H1644 H 0.7079 0.09171 0.41049 0.0
C1645 C 0.73711 0.06134 0.37691 0.0
H1646 H 0.6859 0.0576 0.38013 0.0
C1647 C 0.74952 0.0806 0.39452 0.0
C1648 C 0.73911 0.09164 0.40695 0.0
H1649 H 0.74545 0.05289 0.36799 0.0
H1650 H 0.76723 0.08679 0.39863 0.0
C1651 C 0.71624 0.08346 0.40106 0.0
C1652 C 0.9112 0.61634 0.37881 0.0
C1653 C 0.92923 0.63943 0.37488 0.0
H1654 H 0.8786 0.59377 0.3973 0.0
C1655 C 0.92778 0.65777 0.38675 0.0
H1656 H 0.9118 0.60182 0.36994 0.0
C1657 C 0.90887 0.65313 0.4025 0.0
C1658 C 0.89096 0.63006 0.40674 0.0
H1659 H 0.94142 0.67574 0.38422 0.0
H1660 H 0.90849 0.66764 0.41184 0.0
C1661 C 0.89227 0.6117 0.39464 0.0
C1662 C 0.35831 0.96252 0.73447 0.0
C1663 C 0.3662 0.98522 0.72594 0.0
H1664 H 0.36571 0.94035 0.75632 0.0
C1665 C 0.38845 0.00327 0.73292 0.0
H1666 H 0.34127 0.94823 0.72938 0.0
C1667 C 0.40237 -0.00125 0.74856 0.0
C1668 C 0.3944 0.97606 0.75717 0.0
H1669 H 0.39499 0.02094 0.72668 0.0
H1670 H 0.41942 0.01297 0.75379 0.0
C1671 C 0.37232 0.95797 0.74978 0.0
C1672 C 0.98133 0.38971 0.71504 0.0
C1673 C -0.00261 0.38386 0.70735 0.0
H1674 H 0.97514 0.41362 0.73727 0.0
C1675 C 0.02029 0.3988 0.71522 0.0
H1676 H 0.96356 0.37851 0.70932 0.0
C1677 C 0.02692 0.41898 0.73095 0.0
C1678 C 0.0107 0.42435 0.73943 0.0
H1679 H 0.03305 0.39476 0.70948 0.0
H1680 H 0.04459 0.43 0.7372 0.0
C1681 C 0.9879 0.40969 0.73114 0.0
C1682 C 0.62214 0.63035 0.73772 0.0
C1683 C 0.62125 0.62601 0.70927 0.0
H1684 H 0.60467 0.61959 0.77622 0.0
C1685 C 0.60141 0.6068 0.69787 0.0
H1686 H 0.63716 0.64504 0.74715 0.0
C1687 C 0.58288 0.59221 0.71456 0.0
C1688 C 0.58371 0.59663 0.74296 0.0
H1689 H 0.60017 0.60299 0.67604 0.0
H1690 H 0.56775 0.5776 0.70518 0.0
C1691 C 0.6035 0.61588 0.75437 0.0
C1692 C 0.65456 0.70754 0.60041 0.0
C1693 C 0.66398 0.71316 0.62688 0.0
H1694 H 0.6424 0.71752 0.5668 0.0
C1695 C 0.66759 0.73352 0.64025 0.0
H1696 H 0.65156 0.69198 0.5895 0.0
C1697 C 0.66215 0.74808 0.62728 0.0
C1698 C 0.653 0.74261 0.60064 0.0
H1699 H 0.67469 0.73829 0.66071 0.0
H1700 H 0.66505 0.7636 0.63817 0.0
C1701 C 0.64914 0.72209 0.58744 0.0
C1702 C 0.25404 0.94648 0.63766 0.0
C1703 C 0.27626 0.9528 0.6447 0.0
H1704 H 0.22366 0.92268 0.61525 0.0
C1705 C 0.2846 0.93895 0.6349 0.0
H1706 H 0.24714 0.95681 0.64487 0.0
C1707 C 0.27112 0.91937 0.61808 0.0
C1708 C 0.24914 0.91343 0.61048 0.0
H1709 H 0.30165 0.94335 0.64003 0.0
H1710 H 0.27809 0.9092 0.61046 0.0
C1711 C 0.24066 0.92706 0.62058 0.0
C1712 C 0.06605 0.368 0.6153 0.0
C1713 C 0.05174 0.34632 0.62741 0.0
H1714 H 0.09509 0.38864 0.58975 0.0
C1715 C 0.05632 0.32857 0.62302 0.0
H1716 H 0.063 0.38204 0.61833 0.0
C1717 C 0.07462 0.33234 0.60644 0.0
C1718 C 0.08883 0.354 0.59425 0.0
H1719 H 0.04556 0.31168 0.63204 0.0
H1720 H 0.07775 0.31836 0.60328 0.0
C1721 C 0.08448 0.37184 0.59903 0.0
C1722 C 0.2584 0.32836 0.63221 0.0
C1723 C 0.27663 0.3468 0.64695 0.0
H1724 H 0.23246 0.31815 0.60212 0.0
C1725 C 0.28241 0.36972 0.64247 0.0
H1726 H 0.25346 0.3105 0.63529 0.0
C1727 C 0.2707 0.37417 0.62304 0.0
C1728 C 0.25277 0.35578 0.60782 0.0
H1729 H 0.29648 0.38435 0.65334 0.0
H1730 H 0.27613 0.39209 0.61946 0.0
C1731 C 0.24653 0.33279 0.61297 0.0
C1732 C 0.64765 0.94666 0.63592 0.0
C1733 C 0.67025 0.96589 0.63583 0.0
H1734 H 0.6244 0.91141 0.62245 0.0
C1735 C 0.68701 0.96392 0.6216 0.0
H1736 H 0.63433 0.9476 0.64672 0.0
C1737 C 0.68128 0.94319 0.60769 0.0
C1738 C 0.65867 0.92402 0.60763 0.0
H1739 H 0.70455 0.97842 0.62108 0.0
H1740 H 0.69451 0.94229 0.59658 0.0
C1741 C 0.64192 0.92596 0.6219 0.0
C1742 C 0.06567 0.71927 0.6511 0.0
C1743 C 0.04382 0.70433 0.64 0.0
H1744 H 0.10058 0.7455 0.64346 0.0
C1745 C 0.04077 0.70427 0.6116 0.0
H1746 H 0.06858 0.71979 0.6729 0.0
C1747 C 0.05915 0.71873 0.59468 0.0
C1748 C 0.08103 0.73377 0.60573 0.0
H1749 H 0.0242 0.69285 0.60232 0.0
H1750 H 0.05623 0.71789 0.57285 0.0
C1751 C 0.08406 0.73388 0.63417 0.0
C1752 C -0.00252 0.60292 0.71255 0.0
C1753 C 0.9949 0.61999 0.72614 0.0
H1754 H 0.00582 0.57678 0.71611 0.0
C1755 C -0.00132 0.6235 0.75456 0.0
H1756 H 0.99471 0.59981 0.69068 0.0
C1757 C 0.00497 0.61033 0.76907 0.0
C1758 C 0.00781 0.59345 0.75549 0.0
H1759 H -0.00316 0.63651 0.76568 0.0
H1760 H 0.00799 0.61363 0.7909 0.0
C1761 C 0.00399 0.58985 0.72707 0.0
C1762 C 0.38912 0.40548 0.69139 0.0
C1763 C 0.36951 0.3869 0.70335 0.0
H1764 H 0.41991 0.43874 0.69782 0.0
C1765 C 0.36565 0.3881 0.73155 0.0
H1766 H 0.39253 0.40505 0.66972 0.0
C1767 C 0.38117 0.40739 0.74751 0.0
C1768 C 0.40098 0.42577 0.73567 0.0
H1769 H 0.35065 0.3741 0.74138 0.0
H1770 H 0.37794 0.40767 0.76926 0.0
C1771 C 0.40481 0.4247 0.70745 0.0
C1772 C 0.599 0.00493 0.73109 0.0
C1773 C 0.6032 0.98722 0.72429 0.0
H1774 H 0.57702 0.01401 0.75158 0.0
C1775 C 0.58747 0.96438 0.73253 0.0
H1776 H 0.61079 0.0227 0.72501 0.0
C1777 C 0.56813 0.95941 0.74765 0.0
C1778 C 0.56424 0.97722 0.75503 0.0
H1779 H 0.59019 0.95032 0.72756 0.0
H1780 H 0.55652 0.94174 0.75417 0.0
C1781 C 0.57976 -0.0 0.74643 0.0
loop_
_geom_bond_atom_site_label_1
_geom_bond_atom_site_label_2
_geom_bond_distance
_geom_bond_site_symmetry_2
_ccdc_geom_bond_type
C0 O1 1.160 . S
C0 O7 1.185 . S
O1 C0 1.160 . S
O2 Zn3 1.899 1_656 S
O2 C10 1.284 . S
Zn3 O2 1.899 1_454 S
Zn3 O4 2.032 . S
Zn3 O7 2.086 . S
Zn3 O12 1.977 1_554 S
O4 Zn3 2.032 . S
O4 C8 1.278 1_455 S
C5 O6 1.203 1_455 S
C5 O12 1.267 . S
O6 C5 1.203 1_655 S
O7 C0 1.185 . S
O7 Zn3 2.086 . S
C8 O4 1.278 1_655 S
C8 O9 1.211 . S
O9 C8 1.211 . S
C10 O2 1.284 . S
C10 O11 1.273 1_556 S
O11 C10 1.273 1_554 S
O12 Zn3 1.977 1_556 S
O12 C5 1.267 . S
C13 O14 1.160 . S
C13 O20 1.179 1_556 S
O14 C13 1.160 . S
O15 Zn16 1.899 . S
O15 C23 1.284 . S
Zn16 O15 1.899 . S
Zn16 O17 2.032 1_554 S
Zn16 O20 2.090 . S
Zn16 O25 1.977 . S
O17 Zn16 2.032 1_556 S
O17 C21 1.278 . S
C18 O19 1.203 . S
C18 O25 1.267 . S
O19 C18 1.203 . S
O20 C13 1.179 1_554 S
O20 Zn16 2.090 . S
C21 O17 1.278 . S
C21 O22 1.211 . S
O22 C21 1.211 . S
C23 O15 1.284 . S
C23 O24 1.273 . S
O24 C23 1.273 . S
O25 Zn16 1.977 . S
O25 C18 1.267 . S
C26 O27 1.160 . S
C26 O33 1.185 1_556 S
O27 C26 1.160 . S
O28 Zn29 1.899 1_565 S
O28 C36 1.284 . S
Zn29 O28 1.899 1_545 S
Zn29 O30 2.032 1_554 S
Zn29 O33 2.086 . S
Zn29 O38 1.977 . S
O30 Zn29 2.032 1_556 S
O30 C34 1.278 1_545 S
C31 O32 1.203 1_545 S
C31 O38 1.267 . S
O32 C31 1.203 1_565 S
O33 C26 1.185 1_554 S
O33 Zn29 2.086 . S
C34 O30 1.278 1_565 S
C34 O35 1.211 . S
O35 C34 1.211 . S
C36 O28 1.284 . S
C36 O37 1.273 . S
O37 C36 1.273 . S
O38 Zn29 1.977 . S
O38 C31 1.267 . S
C39 O40 1.160 . S
C39 O46 1.185 1_556 S
O40 C39 1.160 . S
O41 Zn42 1.899 1_455 S
O41 C49 1.284 . S
Zn42 O41 1.899 1_655 S
Zn42 O43 2.032 1_654 S
Zn42 O46 2.086 . S
Zn42 O51 1.977 . S
O43 Zn42 2.032 1_456 S
O43 C47 1.278 . S
C44 O45 1.203 1_655 S
C44 O51 1.267 . S
O45 C44 1.203 1_455 S
O46 C39 1.185 1_554 S
O46 Zn42 2.086 . S
C47 O43 1.278 . S
C47 O48 1.211 . S
O48 C47 1.211 . S
C49 O41 1.284 . S
C49 O50 1.273 . S
O50 C49 1.273 . S
O51 Zn42 1.977 . S
O51 C44 1.267 . S
C52 O53 1.160 . S
C52 O59 1.185 . S
O53 C52 1.160 . S
O54 Zn55 1.899 1_556 S
O54 C62 1.284 . S
Zn55 O54 1.899 1_554 S
Zn55 O56 2.032 . S
Zn55 O59 2.086 . S
Zn55 O64 1.977 1_554 S
O56 Zn55 2.032 . S
O56 C60 1.278 . S
C57 O58 1.203 . S
C57 O64 1.267 . S
O58 C57 1.203 . S
O59 C52 1.185 . S
O59 Zn55 2.086 . S
C60 O56 1.278 . S
C60 O61 1.211 . S
O61 C60 1.211 . S
C62 O54 1.284 . S
C62 O63 1.266 1_556 S
O63 C62 1.266 1_554 S
O64 Zn55 1.977 1_556 S
O64 C57 1.267 . S
C65 O66 1.160 . S
C65 O72 1.185 . S
O66 C65 1.160 . S
O67 Zn68 1.899 1_546 S
O67 C75 1.284 . S
Zn68 O67 1.899 1_564 S
Zn68 O69 2.032 1_565 S
Zn68 O72 2.086 . S
Zn68 O77 1.977 1_554 S
O69 Zn68 2.032 1_545 S
O69 C73 1.278 . S
C70 O71 1.203 1_565 S
C70 O77 1.267 . S
O71 C70 1.203 1_545 S
O72 C65 1.185 . S
O72 Zn68 2.086 . S
C73 O69 1.278 . S
C73 O74 1.211 . S
O74 C73 1.211 . S
C75 O67 1.284 . S
C75 O76 1.273 1_556 S
O76 C75 1.273 1_554 S
O77 Zn68 1.977 1_556 S
O77 C70 1.267 . S
C78 O79 1.160 . S
C78 O85 1.185 . S
O79 C78 1.160 . S
O80 Zn81 1.899 . S
O80 C88 1.284 . S
Zn81 O80 1.899 . S
Zn81 O82 2.032 . S
Zn81 O85 2.086 . S
Zn81 O90 1.977 . S
O82 Zn81 2.032 . S
O82 C86 1.278 . S
C83 O84 1.203 . S
C83 O90 1.267 . S
O84 C83 1.203 . S
O85 C78 1.185 . S
O85 Zn81 2.086 . S
C86 O82 1.278 . S
C86 O87 1.211 . S
O87 C86 1.211 . S
C88 O80 1.284 . S
C88 O89 1.273 . S
O89 C88 1.273 . S
O90 Zn81 1.977 . S
O90 C83 1.267 . S
C91 O92 1.160 1_565 S
C91 O98 1.185 . S
O92 C91 1.160 1_545 S
O93 Zn94 1.899 1_545 S
O93 C101 1.284 . S
Zn94 O93 1.899 1_565 S
Zn94 O95 2.032 . S
Zn94 O98 2.086 . S
Zn94 O103 1.977 . S
O95 Zn94 2.032 . S
O95 C99 1.278 . S
C96 O97 1.203 . S
C96 O103 1.267 . S
O97 C96 1.203 . S
O98 C91 1.185 . S
O98 Zn94 2.086 . S
C99 O95 1.278 . S
C99 O100 1.211 . S
O100 C99 1.211 . S
C101 O93 1.284 . S
C101 O102 1.273 . S
O102 C101 1.273 . S
O103 Zn94 1.977 . S
O103 C96 1.267 . S
C104 O105 1.160 1_455 S
C104 O111 1.185 . S
O105 C104 1.160 1_655 S
O106 Zn107 1.899 1_655 S
O106 C114 1.284 . S
Zn107 O106 1.899 1_455 S
Zn107 O108 2.032 . S
Zn107 O111 2.086 . S
Zn107 O116 1.977 . S
O108 Zn107 2.032 . S
O108 C112 1.278 . S
C109 O110 1.203 . S
C109 O116 1.267 . S
O110 C109 1.203 . S
O111 C104 1.185 . S
O111 Zn107 2.086 . S
C112 O108 1.278 . S
C112 O113 1.211 . S
O113 C112 1.211 . S
C114 O106 1.284 . S
C114 O115 1.273 . S
O115 C114 1.273 . S
O116 Zn107 1.977 . S
O116 C109 1.267 . S
C117 O118 1.160 1_565 S
C117 O124 1.185 . S
O118 C117 1.160 1_545 S
O119 Zn120 1.899 1_545 S
O119 C127 1.284 . S
Zn120 O119 1.899 1_565 S
Zn120 O121 2.032 . S
Zn120 O124 2.086 . S
Zn120 O129 1.977 . S
O121 Zn120 2.032 . S
O121 C125 1.278 . S
C122 O123 1.203 . S
C122 O129 1.267 . S
O123 C122 1.203 . S
O124 C117 1.185 . S
O124 Zn120 2.086 . S
C125 O121 1.278 . S
C125 O126 1.211 . S
O126 C125 1.211 . S
C127 O119 1.284 . S
C127 O128 1.273 . S
O128 C127 1.273 . S
O129 Zn120 1.977 . S
O129 C122 1.267 . S
C130 O131 1.160 . S
C130 O137 1.185 . S
O131 C130 1.160 . S
O132 Zn133 1.908 1_655 S
O132 C140 1.249 1_655 S
Zn133 O132 1.908 1_455 S
Zn133 O134 2.032 . S
Zn133 O137 2.086 1_455 S
Zn133 O142 1.977 . S
O134 Zn133 2.032 . S
O134 C138 1.278 . S
C135 O136 1.203 . S
C135 O142 1.267 . S
O136 C135 1.203 . S
O137 C130 1.185 . S
O137 Zn133 2.086 1_655 S
C138 O134 1.278 . S
C138 O139 1.211 . S
O139 C138 1.211 . S
C140 O132 1.249 1_455 S
C140 O141 1.273 . S
O141 C140 1.273 . S
O142 Zn133 1.977 . S
O142 C135 1.267 . S
C143 O144 1.160 . S
C143 O150 1.185 . S
O144 C143 1.160 . S
O145 Zn146 1.899 . S
O145 C153 1.284 . S
Zn146 O145 1.899 . S
Zn146 O147 2.032 . S
Zn146 O150 2.086 . S
Zn146 O155 1.977 . S
O147 Zn146 2.032 . S
O147 C151 1.278 . S
C148 O149 1.203 . S
C148 O155 1.267 . S
O149 C148 1.203 . S
O150 C143 1.185 . S
O150 Zn146 2.086 . S
C151 O147 1.278 . S
C151 O152 1.211 . S
O152 C151 1.211 . S
C153 O145 1.284 . S
C153 O154 1.273 . S
O154 C153 1.273 . S
O155 Zn146 1.977 . S
O155 C148 1.267 . S
C156 O157 1.160 1_545 S
C156 O163 1.185 . S
O157 C156 1.160 1_565 S
O158 Zn159 1.899 1_565 S
O158 C166 1.284 . S
Zn159 O158 1.899 1_545 S
Zn159 O160 2.032 . S
Zn159 O163 2.086 . S
Zn159 O168 1.977 . S
O160 Zn159 2.032 . S
O160 C164 1.278 . S
C161 O162 1.203 . S
C161 O168 1.267 . S
O162 C161 1.203 . S
O163 C156 1.185 . S
O163 Zn159 2.086 . S
C164 O160 1.278 . S
C164 O165 1.211 . S
O165 C164 1.211 . S
C166 O158 1.284 . S
C166 O167 1.273 . S
O167 C166 1.273 . S
O168 Zn159 1.977 . S
O168 C161 1.267 . S
C169 O170 1.160 . S
C169 O176 1.185 . S
O170 C169 1.160 . S
O171 Zn172 1.899 1_455 S
O171 C179 1.284 1_455 S
Zn172 O171 1.899 1_655 S
Zn172 O173 2.032 . S
Zn172 O176 2.086 1_655 S
Zn172 O181 1.977 . S
O173 Zn172 2.032 . S
O173 C177 1.278 . S
C174 O175 1.203 . S
C174 O181 1.267 . S
O175 C174 1.203 . S
O176 C169 1.185 . S
O176 Zn172 2.086 1_455 S
C177 O173 1.278 . S
C177 O178 1.211 . S
O178 C177 1.211 . S
C179 O171 1.284 1_655 S
C179 O180 1.273 . S
O180 C179 1.273 . S
O181 Zn172 1.977 . S
O181 C174 1.267 . S
C182 O183 1.160 . S
C182 O189 1.185 . S
O183 C182 1.160 . S
O184 Zn185 1.899 . S
O184 C192 1.284 . S
Zn185 O184 1.899 . S
Zn185 O186 2.032 . S
Zn185 O189 2.086 . S
Zn185 O194 1.977 . S
O186 Zn185 2.032 . S
O186 C190 1.278 . S
C187 O188 1.203 . S
C187 O194 1.267 . S
O188 C187 1.203 . S
O189 C182 1.185 . S
O189 Zn185 2.086 . S
C190 O186 1.278 . S
C190 O191 1.211 . S
O191 C190 1.211 . S
C192 O184 1.284 . S
C192 O193 1.273 . S
O193 C192 1.273 . S
O194 Zn185 1.977 . S
O194 C187 1.267 . S
C195 O196 1.160 . S
C195 O202 1.185 . S
O196 C195 1.160 . S
O197 Zn198 1.899 . S
O197 C205 1.284 . S
Zn198 O197 1.899 . S
Zn198 O199 2.032 . S
Zn198 O202 2.086 . S
Zn198 O207 1.977 . S
O199 Zn198 2.032 . S
O199 C203 1.278 . S
C200 O201 1.203 . S
C200 O207 1.267 . S
O201 C200 1.203 . S
O202 C195 1.185 . S
O202 Zn198 2.086 . S
C203 O199 1.278 . S
C203 O204 1.211 . S
O204 C203 1.211 . S
C205 O197 1.284 . S
C205 O206 1.273 . S
O206 C205 1.273 . S
O207 Zn198 1.977 . S
O207 C200 1.267 . S
C208 O209 1.160 1_545 S
C208 O215 1.185 . S
O209 C208 1.160 1_565 S
O210 Zn211 1.899 1_565 S
O210 C218 1.284 . S
Zn211 O210 1.899 1_545 S
Zn211 O212 2.032 . S
Zn211 O215 2.086 . S
Zn211 O220 1.977 . S
O212 Zn211 2.032 . S
O212 C216 1.278 . S
C213 O214 1.203 . S
C213 O220 1.267 . S
O214 C213 1.203 . S
O215 C208 1.185 . S
O215 Zn211 2.086 . S
C216 O212 1.278 . S
C216 O217 1.211 . S
O217 C216 1.211 . S
C218 O210 1.284 . S
C218 O219 1.273 . S
O219 C218 1.273 . S
O220 Zn211 1.977 . S
O220 C213 1.267 . S
C221 O222 1.160 1_655 S
C221 O228 1.185 . S
O222 C221 1.160 1_455 S
O223 Zn224 1.899 1_455 S
O223 C231 1.284 . S
Zn224 O223 1.899 1_655 S
Zn224 O225 2.032 . S
Zn224 O228 2.086 . S
Zn224 O233 1.977 . S
O225 Zn224 2.032 . S
O225 C229 1.278 . S
C226 O227 1.203 . S
C226 O233 1.267 . S
O227 C226 1.203 . S
O228 C221 1.185 . S
O228 Zn224 2.086 . S
C229 O225 1.278 . S
C229 O230 1.211 . S
O230 C229 1.211 . S
C231 O223 1.284 . S
C231 O232 1.273 . S
O232 C231 1.273 . S
O233 Zn224 1.977 . S
O233 C226 1.267 . S
C234 C235 1.384 . S
C234 C236 1.384 . S
C234 H262 0.931 . S
C235 C234 1.384 . S
C235 C238 1.382 . S
C236 C234 1.384 . S
C236 C237 1.381 . S
C236 H263 0.930 . S
C237 C236 1.381 . S
C237 C239 1.381 . S
C237 C240 1.487 . S
C238 C235 1.382 . S
C238 C239 1.387 . S
C238 H264 0.930 . S
C239 C237 1.381 . S
C239 C238 1.387 . S
C239 H265 0.931 . S
C240 C237 1.487 . S
C240 C247 1.399 . S
C240 N278 1.343 . S
C241 C242 1.384 . S
C241 C243 1.384 . S
C241 H266 0.931 . S
C242 C241 1.384 . S
C242 C245 1.382 . S
C243 C241 1.384 . S
C243 C244 1.381 . S
C243 H267 0.930 . S
C244 C243 1.381 . S
C244 C246 1.381 . S
C244 C247 1.487 . S
C245 C242 1.382 . S
C245 C246 1.387 . S
C245 H268 0.930 . S
C246 C244 1.381 . S
C246 C245 1.387 . S
C246 H269 0.931 . S
C247 C240 1.399 . S
C247 C244 1.487 . S
C247 N279 1.343 . S
C248 C249 1.384 . S
C248 C250 1.384 . S
C248 H270 0.931 . S
C249 C248 1.384 . S
C249 C252 1.382 . S
C250 C248 1.384 . S
C250 C251 1.381 . S
C250 H271 0.930 . S
C251 C250 1.381 . S
C251 C253 1.381 . S
C251 C254 1.487 . S
C252 C249 1.382 . S
C252 C253 1.387 . S
C252 H272 0.930 . S
C253 C251 1.381 . S
C253 C252 1.387 . S
C253 H273 0.931 . S
C254 C251 1.487 . S
C254 C261 1.399 . S
C254 N279 1.343 . S
C255 C256 1.384 . S
C255 C257 1.384 . S
C255 H274 0.931 . S
C256 C255 1.384 . S
C256 C259 1.382 . S
C257 C255 1.384 . S
C257 C258 1.381 . S
C257 H275 0.930 . S
C258 C257 1.381 . S
C258 C260 1.381 . S
C258 C261 1.487 . S
C259 C256 1.382 . S
C259 C260 1.387 . S
C259 H276 0.930 . S
C260 C258 1.381 . S
C260 C259 1.387 . S
C260 H277 0.931 . S
C261 C254 1.399 . S
C261 C258 1.487 . S
C261 N278 1.343 . S
H262 C234 0.931 . S
H263 C236 0.930 . S
H264 C238 0.930 . S
H265 C239 0.931 . S
H266 C241 0.931 . S
H267 C243 0.930 . S
H268 C245 0.930 . S
H269 C246 0.931 . S
H270 C248 0.931 . S
H271 C250 0.930 . S
H272 C252 0.930 . S
H273 C253 0.931 . S
H274 C255 0.931 . S
H275 C257 0.930 . S
H276 C259 0.930 . S
H277 C260 0.931 . S
N278 C240 1.343 . S
N278 C261 1.343 . S
N279 C247 1.343 . S
N279 C254 1.343 . S
C280 C281 1.384 . S
C280 C282 1.384 . S
C280 H308 0.931 . S
C281 C280 1.384 . S
C281 C284 1.382 . S
C282 C280 1.384 . S
C282 C283 1.381 . S
C282 H309 0.930 . S
C283 C282 1.381 . S
C283 C285 1.381 . S
C283 C286 1.487 . S
C284 C281 1.382 . S
C284 C285 1.387 . S
C284 H310 0.930 . S
C285 C283 1.381 . S
C285 C284 1.387 . S
C285 H311 0.931 . S
C286 C283 1.487 . S
C286 C293 1.399 . S
C286 N324 1.343 . S
C287 C288 1.384 . S
C287 C289 1.384 . S
C287 H312 0.931 . S
C288 C287 1.384 . S
C288 C291 1.382 . S
C289 C287 1.384 . S
C289 C290 1.381 . S
C289 H313 0.930 . S
C290 C289 1.381 . S
C290 C292 1.381 . S
C290 C293 1.487 . S
C291 C288 1.382 . S
C291 C292 1.387 . S
C291 H314 0.930 . S
C292 C290 1.381 . S
C292 C291 1.387 . S
C292 H315 0.931 . S
C293 C286 1.399 . S
C293 C290 1.487 . S
C293 N325 1.343 . S
C294 C295 1.384 . S
C294 C296 1.384 . S
C294 H316 0.931 . S
C295 C294 1.384 . S
C295 C298 1.382 . S
C296 C294 1.384 . S
C296 C297 1.381 . S
C296 H317 0.930 . S
C297 C296 1.381 . S
C297 C299 1.381 . S
C297 C300 1.487 . S
C298 C295 1.382 . S
C298 C299 1.387 . S
C298 H318 0.930 . S
C299 C297 1.381 . S
C299 C298 1.387 . S
C299 H319 0.931 . S
C300 C297 1.487 . S
C300 C307 1.399 . S
C300 N325 1.343 . S
C301 C302 1.384 . S
C301 C303 1.384 . S
C301 H320 0.931 . S
C302 C301 1.384 . S
C302 C305 1.382 . S
C303 C301 1.384 . S
C303 C304 1.381 . S
C303 H321 0.930 . S
C304 C303 1.381 . S
C304 C306 1.381 . S
C304 C307 1.487 . S
C305 C302 1.382 . S
C305 C306 1.387 . S
C305 H322 0.930 . S
C306 C304 1.381 . S
C306 C305 1.387 . S
C306 H323 0.931 . S
C307 C300 1.399 . S
C307 C304 1.487 . S
C307 N324 1.343 . S
H308 C280 0.931 . S
H309 C282 0.930 . S
H310 C284 0.930 . S
H311 C285 0.931 . S
H312 C287 0.931 . S
H313 C289 0.930 . S
H314 C291 0.930 . S
H315 C292 0.931 . S
H316 C294 0.931 . S
H317 C296 0.930 . S
H318 C298 0.930 . S
H319 C299 0.931 . S
H320 C301 0.931 . S
H321 C303 0.930 . S
H322 C305 0.930 . S
H323 C306 0.931 . S
N324 C286 1.343 . S
N324 C307 1.343 . S
N325 C293 1.343 . S
N325 C300 1.343 . S
C326 C327 1.384 . S
C326 C328 1.384 . S
C326 H354 0.931 . S
C327 C326 1.384 . S
C327 C330 1.382 . S
C328 C326 1.384 . S
C328 C329 1.381 . S
C328 H355 0.930 . S
C329 C328 1.381 . S
C329 C331 1.381 . S
C329 C332 1.487 . S
C330 C327 1.382 . S
C330 C331 1.387 . S
C330 H356 0.930 . S
C331 C329 1.381 . S
C331 C330 1.387 . S
C331 H357 0.931 . S
C332 C329 1.487 . S
C332 C339 1.399 . S
C332 N370 1.343 . S
C333 C334 1.384 . S
C333 C335 1.384 . S
C333 H358 0.931 . S
C334 C333 1.384 . S
C334 C337 1.382 . S
C335 C333 1.384 . S
C335 C336 1.381 . S
C335 H359 0.930 . S
C336 C335 1.381 . S
C336 C338 1.381 . S
C336 C339 1.487 . S
C337 C334 1.382 . S
C337 C338 1.387 . S
C337 H360 0.930 . S
C338 C336 1.381 . S
C338 C337 1.387 . S
C338 H361 0.931 . S
C339 C332 1.399 . S
C339 C336 1.487 . S
C339 N371 1.343 . S
C340 C341 1.384 . S
C340 C342 1.384 . S
C340 H362 0.931 . S
C341 C340 1.384 . S
C341 C344 1.382 . S
C342 C340 1.384 . S
C342 C343 1.381 . S
C342 H363 0.930 . S
C343 C342 1.381 . S
C343 C345 1.381 . S
C343 C346 1.487 . S
C344 C341 1.382 . S
C344 C345 1.387 . S
C344 H364 0.930 . S
C345 C343 1.381 . S
C345 C344 1.387 . S
C345 H365 0.931 . S
C346 C343 1.487 . S
C346 C353 1.399 . S
C346 N371 1.343 . S
C347 C348 1.384 . S
C347 C349 1.384 . S
C347 H366 0.931 . S
C348 C347 1.384 . S
C348 C351 1.382 . S
C349 C347 1.384 . S
C349 C350 1.381 . S
C349 H367 0.930 . S
C350 C349 1.381 . S
C350 C352 1.381 . S
C350 C353 1.487 . S
C351 C348 1.382 . S
C351 C352 1.387 . S
C351 H368 0.930 . S
C352 C350 1.381 . S
C352 C351 1.387 . S
C352 H369 0.931 . S
C353 C346 1.399 . S
C353 C350 1.487 . S
C353 N370 1.343 . S
H354 C326 0.931 . S
H355 C328 0.930 . S
H356 C330 0.930 . S
H357 C331 0.931 . S
H358 C333 0.931 . S
H359 C335 0.930 . S
H360 C337 0.930 . S
H361 C338 0.931 . S
H362 C340 0.931 . S
H363 C342 0.930 . S
H364 C344 0.930 . S
H365 C345 0.931 . S
H366 C347 0.931 . S
H367 C349 0.930 . S
H368 C351 0.930 . S
H369 C352 0.931 . S
N370 C332 1.343 . S
N370 C353 1.343 . S
N371 C339 1.343 . S
N371 C346 1.343 . S
C372 C373 1.384 . S
C372 C374 1.384 . S
C372 H400 0.931 . S
C373 C372 1.384 . S
C373 C376 1.382 . S
C374 C372 1.384 . S
C374 C375 1.381 . S
C374 H401 0.930 . S
C375 C374 1.381 . S
C375 C377 1.381 . S
C375 C378 1.487 . S
C376 C373 1.382 . S
C376 C377 1.387 . S
C376 H402 0.930 . S
C377 C375 1.381 . S
C377 C376 1.387 . S
C377 H403 0.931 . S
C378 C375 1.487 . S
C378 C385 1.399 . S
C378 N416 1.343 . S
C379 C380 1.384 . S
C379 C381 1.384 . S
C379 H404 0.931 . S
C380 C379 1.384 . S
C380 C383 1.382 . S
C381 C379 1.384 . S
C381 C382 1.381 . S
C381 H405 0.930 . S
C382 C381 1.381 . S
C382 C384 1.381 . S
C382 C385 1.487 . S
C383 C380 1.382 . S
C383 C384 1.387 . S
C383 H406 0.930 . S
C384 C382 1.381 . S
C384 C383 1.387 . S
C384 H407 0.931 . S
C385 C378 1.399 . S
C385 C382 1.487 . S
C385 N417 1.343 . S
C386 C387 1.384 . S
C386 C388 1.384 . S
C386 H408 0.931 . S
C387 C386 1.384 . S
C387 C390 1.382 . S
C388 C386 1.384 . S
C388 C389 1.381 . S
C388 H409 0.930 . S
C389 C388 1.381 . S
C389 C391 1.381 . S
C389 C392 1.487 . S
C390 C387 1.382 . S
C390 C391 1.387 . S
C390 H410 0.930 . S
C391 C389 1.381 . S
C391 C390 1.387 . S
C391 H411 0.931 . S
C392 C389 1.487 . S
C392 C399 1.399 . S
C392 N417 1.343 . S
C393 C394 1.384 . S
C393 C395 1.384 . S
C393 H412 0.931 . S
C394 C393 1.384 . S
C394 C397 1.382 . S
C395 C393 1.384 . S
C395 C396 1.381 . S
C395 H413 0.930 . S
C396 C395 1.381 . S
C396 C398 1.381 . S
C396 C399 1.487 . S
C397 C394 1.382 . S
C397 C398 1.387 . S
C397 H414 0.930 . S
C398 C396 1.381 . S
C398 C397 1.387 . S
C398 H415 0.931 . S
C399 C392 1.399 . S
C399 C396 1.487 . S
C399 N416 1.343 . S
H400 C372 0.931 . S
H401 C374 0.930 . S
H402 C376 0.930 . S
H403 C377 0.931 . S
H404 C379 0.931 . S
H405 C381 0.930 . S
H406 C383 0.930 . S
H407 C384 0.931 . S
H408 C386 0.931 . S
H409 C388 0.930 . S
H410 C390 0.930 . S
H411 C391 0.931 . S
H412 C393 0.931 . S
H413 C395 0.930 . S
H414 C397 0.930 . S
H415 C398 0.931 . S
N416 C378 1.343 . S
N416 C399 1.343 . S
N417 C385 1.343 . S
N417 C392 1.343 . S
C418 C419 1.384 . S
C418 C420 1.384 . S
C418 H446 0.931 . S
C419 C418 1.384 . S
C419 C422 1.382 . S
C420 C418 1.384 . S
C420 C421 1.381 . S
C420 H447 0.930 . S
C421 C420 1.381 . S
C421 C423 1.381 . S
C421 C424 1.487 . S
C422 C419 1.382 . S
C422 C423 1.387 . S
C422 H448 0.930 . S
C423 C421 1.381 . S
C423 C422 1.387 . S
C423 H449 0.931 . S
C424 C421 1.487 . S
C424 C431 1.399 . S
C424 N462 1.343 . S
C425 C426 1.384 . S
C425 C427 1.384 . S
C425 H450 0.931 . S
C426 C425 1.384 . S
C426 C429 1.382 . S
C427 C425 1.384 . S
C427 C428 1.381 . S
C427 H451 0.930 . S
C428 C427 1.381 . S
C428 C430 1.381 . S
C428 C431 1.487 . S
C429 C426 1.382 . S
C429 C430 1.387 . S
C429 H452 0.930 . S
C430 C428 1.381 . S
C430 C429 1.387 . S
C430 H453 0.931 . S
C431 C424 1.399 . S
C431 C428 1.487 . S
C431 N463 1.343 . S
C432 C433 1.384 . S
C432 C434 1.384 . S
C432 H454 0.931 . S
C433 C432 1.384 . S
C433 C436 1.382 . S
C434 C432 1.384 . S
C434 C435 1.381 . S
C434 H455 0.930 . S
C435 C434 1.381 . S
C435 C437 1.381 . S
C435 C438 1.487 . S
C436 C433 1.382 . S
C436 C437 1.387 . S
C436 H456 0.930 . S
C437 C435 1.381 . S
C437 C436 1.387 . S
C437 H457 0.931 . S
C438 C435 1.487 . S
C438 C445 1.399 . S
C438 N463 1.343 . S
C439 C440 1.384 . S
C439 C441 1.384 . S
C439 H458 0.931 . S
C440 C439 1.384 . S
C440 C443 1.382 . S
C441 C439 1.384 . S
C441 C442 1.381 . S
C441 H459 0.930 . S
C442 C441 1.381 . S
C442 C444 1.381 . S
C442 C445 1.487 . S
C443 C440 1.382 . S
C443 C444 1.387 . S
C443 H460 0.930 . S
C444 C442 1.381 . S
C444 C443 1.387 . S
C444 H461 0.931 . S
C445 C438 1.399 . S
C445 C442 1.487 . S
C445 N462 1.343 . S
H446 C418 0.931 . S
H447 C420 0.930 . S
H448 C422 0.930 . S
H449 C423 0.931 . S
H450 C425 0.931 . S
H451 C427 0.930 . S
H452 C429 0.930 . S
H453 C430 0.931 . S
H454 C432 0.931 . S
H455 C434 0.930 . S
H456 C436 0.930 . S
H457 C437 0.931 . S
H458 C439 0.931 . S
H459 C441 0.930 . S
H460 C443 0.930 . S
H461 C444 0.931 . S
N462 C424 1.343 . S
N462 C445 1.343 . S
N463 C431 1.343 . S
N463 C438 1.343 . S
C464 C465 1.384 . S
C464 C466 1.384 . S
C464 H492 0.931 . S
C465 C464 1.384 . S
C465 C468 1.382 . S
C466 C464 1.384 . S
C466 C467 1.381 . S
C466 H493 0.930 . S
C467 C466 1.381 . S
C467 C469 1.381 . S
C467 C470 1.487 . S
C468 C465 1.382 . S
C468 C469 1.387 . S
C468 H494 0.930 . S
C469 C467 1.381 . S
C469 C468 1.387 . S
C469 H495 0.931 . S
C470 C467 1.487 . S
C470 C477 1.399 . S
C470 N508 1.343 . S
C471 C472 1.384 . S
C471 C473 1.384 . S
C471 H496 0.931 . S
C472 C471 1.384 . S
C472 C475 1.382 . S
C473 C471 1.384 . S
C473 C474 1.381 . S
C473 H497 0.930 . S
C474 C473 1.381 . S
C474 C476 1.381 . S
C474 C477 1.487 . S
C475 C472 1.382 . S
C475 C476 1.387 . S
C475 H498 0.930 . S
C476 C474 1.381 . S
C476 C475 1.387 . S
C476 H499 0.931 . S
C477 C470 1.399 . S
C477 C474 1.487 . S
C477 N509 1.343 . S
C478 C479 1.384 . S
C478 C480 1.384 . S
C478 H500 0.931 . S
C479 C478 1.384 . S
C479 C482 1.382 . S
C480 C478 1.384 . S
C480 C481 1.381 . S
C480 H501 0.930 . S
C481 C480 1.381 . S
C481 C483 1.381 . S
C481 C484 1.487 . S
C482 C479 1.382 . S
C482 C483 1.387 . S
C482 H502 0.930 . S
C483 C481 1.381 . S
C483 C482 1.387 . S
C483 H503 0.931 . S
C484 C481 1.487 . S
C484 C491 1.399 . S
C484 N509 1.343 . S
C485 C486 1.384 . S
C485 C487 1.384 . S
C485 H504 0.931 . S
C486 C485 1.384 . S
C486 C489 1.382 . S
C487 C485 1.384 . S
C487 C488 1.381 . S
C487 H505 0.930 . S
C488 C487 1.381 . S
C488 C490 1.381 . S
C488 C491 1.487 . S
C489 C486 1.382 . S
C489 C490 1.387 . S
C489 H506 0.930 . S
C490 C488 1.381 . S
C490 C489 1.387 . S
C490 H507 0.931 . S
C491 C484 1.399 . S
C491 C488 1.487 . S
C491 N508 1.343 . S
H492 C464 0.931 . S
H493 C466 0.930 . S
H494 C468 0.930 . S
H495 C469 0.931 . S
H496 C471 0.931 . S
H497 C473 0.930 . S
H498 C475 0.930 . S
H499 C476 0.931 . S
H500 C478 0.931 . S
H501 C480 0.930 . S
H502 C482 0.930 . S
H503 C483 0.931 . S
H504 C485 0.931 . S
H505 C487 0.930 . S
H506 C489 0.930 . S
H507 C490 0.931 . S
N508 C470 1.343 . S
N508 C491 1.343 . S
N509 C477 1.343 . S
N509 C484 1.343 . S
C510 C511 1.384 . S
C510 C512 1.384 . S
C510 H538 0.931 . S
C511 C510 1.384 . S
C511 C514 1.382 . S
C512 C510 1.384 . S
C512 C513 1.381 . S
C512 H539 0.930 . S
C513 C512 1.381 . S
C513 C515 1.381 . S
C513 C516 1.487 . S
C514 C511 1.382 . S
C514 C515 1.387 . S
C514 H540 0.930 . S
C515 C513 1.381 . S
C515 C514 1.387 . S
C515 H541 0.931 . S
C516 C513 1.487 . S
C516 C523 1.399 . S
C516 N554 1.343 . S
C517 C518 1.384 . S
C517 C519 1.384 . S
C517 H542 0.931 . S
C518 C517 1.384 . S
C518 C521 1.382 . S
C519 C517 1.384 . S
C519 C520 1.381 . S
C519 H543 0.930 . S
C520 C519 1.381 . S
C520 C522 1.381 . S
C520 C523 1.487 . S
C521 C518 1.382 . S
C521 C522 1.387 . S
C521 H544 0.930 . S
C522 C520 1.381 . S
C522 C521 1.387 . S
C522 H545 0.931 . S
C523 C516 1.399 . S
C523 C520 1.487 . S
C523 N555 1.343 . S
C524 C525 1.384 . S
C524 C526 1.384 . S
C524 H546 0.931 . S
C525 C524 1.384 . S
C525 C528 1.382 . S
C526 C524 1.384 . S
C526 C527 1.381 . S
C526 H547 0.930 . S
C527 C526 1.381 . S
C527 C529 1.381 . S
C527 C530 1.487 . S
C528 C525 1.382 . S
C528 C529 1.387 . S
C528 H548 0.930 . S
C529 C527 1.381 . S
C529 C528 1.387 . S
C529 H549 0.931 . S
C530 C527 1.487 . S
C530 C537 1.399 . S
C530 N555 1.343 . S
C531 C532 1.384 . S
C531 C533 1.384 . S
C531 H550 0.931 . S
C532 C531 1.384 . S
C532 C535 1.382 . S
C533 C531 1.384 . S
C533 C534 1.381 . S
C533 H551 0.930 . S
C534 C533 1.381 . S
C534 C536 1.381 . S
C534 C537 1.487 . S
C535 C532 1.382 . S
C535 C536 1.387 . S
C535 H552 0.930 . S
C536 C534 1.381 . S
C536 C535 1.387 . S
C536 H553 0.931 . S
C537 C530 1.399 . S
C537 C534 1.487 . S
C537 N554 1.343 . S
H538 C510 0.931 . S
H539 C512 0.930 . S
H540 C514 0.930 . S
H541 C515 0.931 . S
H542 C517 0.931 . S
H543 C519 0.930 . S
H544 C521 0.930 . S
H545 C522 0.931 . S
H546 C524 0.931 . S
H547 C526 0.930 . S
H548 C528 0.930 . S
H549 C529 0.931 . S
H550 C531 0.931 . S
H551 C533 0.930 . S
H552 C535 0.930 . S
H553 C536 0.931 . S
N554 C516 1.343 . S
N554 C537 1.343 . S
N555 C523 1.343 . S
N555 C530 1.343 . S
C556 C557 1.384 . S
C556 C558 1.384 . S
C556 H584 0.931 . S
C557 C556 1.384 . S
C557 C560 1.382 . S
C558 C556 1.384 . S
C558 C559 1.381 . S
C558 H585 0.930 . S
C559 C558 1.381 . S
C559 C561 1.381 . S
C559 C562 1.487 . S
C560 C557 1.382 . S
C560 C561 1.387 . S
C560 H586 0.930 . S
C561 C559 1.381 . S
C561 C560 1.387 . S
C561 H587 0.931 . S
C562 C559 1.487 . S
C562 C569 1.399 . S
C562 N600 1.343 . S
C563 C564 1.384 . S
C563 C565 1.384 . S
C563 H588 0.931 . S
C564 C563 1.384 . S
C564 C567 1.382 . S
C565 C563 1.384 . S
C565 C566 1.381 . S
C565 H589 0.930 . S
C566 C565 1.381 . S
C566 C568 1.381 . S
C566 C569 1.487 . S
C567 C564 1.382 . S
C567 C568 1.387 . S
C567 H590 0.930 . S
C568 C566 1.381 . S
C568 C567 1.387 . S
C568 H591 0.931 . S
C569 C562 1.399 . S
C569 C566 1.487 . S
C569 N601 1.343 . S
C570 C571 1.384 . S
C570 C572 1.384 . S
C570 H592 0.931 . S
C571 C570 1.384 . S
C571 C574 1.382 . S
C572 C570 1.384 . S
C572 C573 1.381 . S
C572 H593 0.930 . S
C573 C572 1.381 . S
C573 C575 1.381 . S
C573 C576 1.487 . S
C574 C571 1.382 . S
C574 C575 1.387 . S
C574 H594 0.930 . S
C575 C573 1.381 . S
C575 C574 1.387 . S
C575 H595 0.931 . S
C576 C573 1.487 . S
C576 C583 1.399 . S
C576 N601 1.343 . S
C577 C578 1.384 . S
C577 C579 1.384 . S
C577 H596 0.931 . S
C578 C577 1.384 . S
C578 C581 1.382 . S
C579 C577 1.384 . S
C579 C580 1.381 . S
C579 H597 0.930 . S
C580 C579 1.381 . S
C580 C582 1.381 . S
C580 C583 1.487 . S
C581 C578 1.382 . S
C581 C582 1.387 . S
C581 H598 0.930 . S
C582 C580 1.381 . S
C582 C581 1.387 . S
C582 H599 0.931 . S
C583 C576 1.399 . S
C583 C580 1.487 . S
C583 N600 1.343 . S
H584 C556 0.931 . S
H585 C558 0.930 . S
H586 C560 0.930 . S
H587 C561 0.931 . S
H588 C563 0.931 . S
H589 C565 0.930 . S
H590 C567 0.930 . S
H591 C568 0.931 . S
H592 C570 0.931 . S
H593 C572 0.930 . S
H594 C574 0.930 . S
H595 C575 0.931 . S
H596 C577 0.931 . S
H597 C579 0.930 . S
H598 C581 0.930 . S
H599 C582 0.931 . S
N600 C562 1.343 . S
N600 C583 1.343 . S
N601 C569 1.343 . S
N601 C576 1.343 . S
C602 C603 1.384 . S
C602 C604 1.384 . S
C602 H630 0.931 . S
C603 C602 1.384 . S
C603 C606 1.382 . S
C604 C602 1.384 . S
C604 C605 1.381 . S
C604 H631 0.930 . S
C605 C604 1.381 . S
C605 C607 1.381 . S
C605 C608 1.487 . S
C606 C603 1.382 . S
C606 C607 1.387 . S
C606 H632 0.930 . S
C607 C605 1.381 . S
C607 C606 1.387 . S
C607 H633 0.931 . S
C608 C605 1.487 . S
C608 C615 1.399 . S
C608 N646 1.343 . S
C609 C610 1.384 . S
C609 C611 1.384 . S
C609 H634 0.931 . S
C610 C609 1.384 . S
C610 C613 1.382 . S
C611 C609 1.384 . S
C611 C612 1.381 . S
C611 H635 0.930 . S
C612 C611 1.381 . S
C612 C614 1.381 . S
C612 C615 1.487 . S
C613 C610 1.382 . S
C613 C614 1.387 . S
C613 H636 0.930 . S
C614 C612 1.381 . S
C614 C613 1.387 . S
C614 H637 0.931 . S
C615 C608 1.399 . S
C615 C612 1.487 . S
C615 N647 1.343 . S
C616 C617 1.384 . S
C616 C618 1.384 . S
C616 H638 0.931 . S
C617 C616 1.384 . S
C617 C620 1.382 . S
C618 C616 1.384 . S
C618 C619 1.381 . S
C618 H639 0.930 . S
C619 C618 1.381 . S
C619 C621 1.381 . S
C619 C622 1.487 . S
C620 C617 1.382 . S
C620 C621 1.387 . S
C620 H640 0.930 . S
C621 C619 1.381 . S
C621 C620 1.387 . S
C621 H641 0.931 . S
C622 C619 1.487 . S
C622 C629 1.399 . S
C622 N647 1.343 . S
C623 C624 1.384 . S
C623 C625 1.384 . S
C623 H642 0.931 . S
C624 C623 1.384 . S
C624 C627 1.382 . S
C625 C623 1.384 . S
C625 C626 1.381 . S
C625 H643 0.930 . S
C626 C625 1.381 . S
C626 C628 1.381 . S
C626 C629 1.487 . S
C627 C624 1.382 . S
C627 C628 1.387 . S
C627 H644 0.930 . S
C628 C626 1.381 . S
C628 C627 1.387 . S
C628 H645 0.931 . S
C629 C622 1.399 . S
C629 C626 1.487 . S
C629 N646 1.343 . S
H630 C602 0.931 . S
H631 C604 0.930 . S
H632 C606 0.930 . S
H633 C607 0.931 . S
H634 C609 0.931 . S
H635 C611 0.930 . S
H636 C613 0.930 . S
H637 C614 0.931 . S
H638 C616 0.931 . S
H639 C618 0.930 . S
H640 C620 0.930 . S
H641 C621 0.931 . S
H642 C623 0.931 . S
H643 C625 0.930 . S
H644 C627 0.930 . S
H645 C628 0.931 . S
N646 C608 1.343 . S
N646 C629 1.343 . S
N647 C615 1.343 . S
N647 C622 1.343 . S
C648 C649 1.384 . S
C648 C650 1.384 . S
C648 H676 0.931 . S
C649 C648 1.384 . S
C649 C652 1.382 1_655 S
C650 C648 1.384 . S
C650 C651 1.429 . S
C650 H677 0.930 . S
C651 C650 1.429 . S
C651 C653 1.358 1_655 S
C651 C654 1.465 1_655 S
C652 C649 1.382 1_455 S
C652 C653 1.387 . S
C652 H678 0.930 . S
C653 C651 1.358 1_455 S
C653 C652 1.387 . S
C653 H679 0.931 . S
C654 C651 1.465 1_455 S
C654 C661 1.399 1_455 S
C654 N692 1.342 . S
C655 C656 1.384 . S
C655 C657 1.384 . S
C655 H680 0.931 . S
C656 C655 1.384 . S
C656 C659 1.382 1_455 S
C657 C655 1.384 . S
C657 C658 1.380 1_455 S
C657 H681 0.930 . S
C658 C657 1.380 1_655 S
C658 C660 1.387 . S
C658 C661 1.494 . S
C659 C656 1.382 1_655 S
C659 C660 1.387 . S
C659 H682 0.930 . S
C660 C658 1.387 . S
C660 C659 1.387 . S
C660 H683 0.931 . S
C661 C654 1.399 1_655 S
C661 C658 1.494 . S
C661 N693 1.358 . S
C662 C663 1.384 . S
C662 C664 1.384 . S
C662 H684 0.931 . S
C663 C662 1.384 . S
C663 C666 1.382 1_455 S
C664 C662 1.384 . S
C664 C665 1.381 . S
C664 H685 0.930 . S
C665 C664 1.381 . S
C665 C667 1.381 1_455 S
C665 C668 1.488 . S
C666 C663 1.382 1_655 S
C666 C667 1.387 . S
C666 H686 0.930 . S
C667 C665 1.381 1_655 S
C667 C666 1.387 . S
C667 H687 0.931 . S
C668 C665 1.488 . S
C668 C675 1.399 . S
C668 N693 1.313 1_455 S
C669 C670 1.384 . S
C669 C671 1.384 . S
C669 H688 0.931 . S
C670 C669 1.384 . S
C670 C673 1.382 1_655 S
C671 C669 1.384 . S
C671 C672 1.378 1_655 S
C671 H689 0.930 . S
C672 C671 1.378 1_455 S
C672 C674 1.395 . S
C672 C675 1.494 . S
C673 C670 1.382 1_455 S
C673 C674 1.387 . S
C673 H690 0.930 . S
C674 C672 1.395 . S
C674 C673 1.387 . S
C674 H691 0.931 . S
C675 C668 1.399 . S
C675 C672 1.494 . S
C675 N692 1.326 . S
H676 C648 0.931 . S
H677 C650 0.930 . S
H678 C652 0.930 . S
H679 C653 0.931 . S
H680 C655 0.931 . S
H681 C657 0.930 . S
H682 C659 0.930 . S
H683 C660 0.931 . S
H684 C662 0.931 . S
H685 C664 0.930 . S
H686 C666 0.930 . S
H687 C667 0.931 . S
H688 C669 0.931 . S
H689 C671 0.930 . S
H690 C673 0.930 . S
H691 C674 0.931 . S
N692 C654 1.342 . S
N692 C675 1.326 . S
N693 C661 1.358 . S
N693 C668 1.313 1_655 S
C694 C695 1.384 . S
C694 C696 1.384 . S
C694 H722 0.931 . S
C695 C694 1.384 . S
C695 C698 1.382 . S
C696 C694 1.384 . S
C696 C697 1.381 . S
C696 H723 0.930 . S
C697 C696 1.381 . S
C697 C699 1.381 . S
C697 C700 1.487 . S
C698 C695 1.382 . S
C698 C699 1.387 . S
C698 H724 0.930 . S
C699 C697 1.381 . S
C699 C698 1.387 . S
C699 H725 0.931 . S
C700 C697 1.487 . S
C700 C707 1.399 . S
C700 N738 1.343 . S
C701 C702 1.384 . S
C701 C703 1.384 . S
C701 H726 0.931 . S
C702 C701 1.384 . S
C702 C705 1.382 . S
C703 C701 1.384 . S
C703 C704 1.381 . S
C703 H727 0.930 . S
C704 C703 1.381 . S
C704 C706 1.381 . S
C704 C707 1.487 . S
C705 C702 1.382 . S
C705 C706 1.387 . S
C705 H728 0.930 . S
C706 C704 1.381 . S
C706 C705 1.387 . S
C706 H729 0.931 . S
C707 C700 1.399 . S
C707 C704 1.487 . S
C707 N739 1.343 . S
C708 C709 1.384 . S
C708 C710 1.384 . S
C708 H730 0.931 . S
C709 C708 1.384 . S
C709 C712 1.382 . S
C710 C708 1.384 . S
C710 C711 1.381 . S
C710 H731 0.930 . S
C711 C710 1.381 . S
C711 C713 1.381 . S
C711 C714 1.487 . S
C712 C709 1.382 . S
C712 C713 1.387 . S
C712 H732 0.930 . S
C713 C711 1.381 . S
C713 C712 1.387 . S
C713 H733 0.931 . S
C714 C711 1.487 . S
C714 C721 1.399 . S
C714 N739 1.343 . S
C715 C716 1.384 . S
C715 C717 1.384 . S
C715 H734 0.931 . S
C716 C715 1.384 . S
C716 C719 1.382 . S
C717 C715 1.384 . S
C717 C718 1.381 . S
C717 H735 0.930 . S
C718 C717 1.381 . S
C718 C720 1.381 . S
C718 C721 1.487 . S
C719 C716 1.382 . S
C719 C720 1.387 . S
C719 H736 0.930 . S
C720 C718 1.381 . S
C720 C719 1.387 . S
C720 H737 0.931 . S
C721 C714 1.399 . S
C721 C718 1.487 . S
C721 N738 1.343 . S
H722 C694 0.931 . S
H723 C696 0.930 . S
H724 C698 0.930 . S
H725 C699 0.931 . S
H726 C701 0.931 . S
H727 C703 0.930 . S
H728 C705 0.930 . S
H729 C706 0.931 . S
H730 C708 0.931 . S
H731 C710 0.930 . S
H732 C712 0.930 . S
H733 C713 0.931 . S
H734 C715 0.931 . S
H735 C717 0.930 . S
H736 C719 0.930 . S
H737 C720 0.931 . S
N738 C700 1.343 . S
N738 C721 1.343 . S
N739 C707 1.343 . S
N739 C714 1.343 . S
C740 C741 1.384 1_545 S
C740 C742 1.384 . S
C740 H768 0.931 . S
C741 C740 1.384 1_565 S
C741 C744 1.382 . S
C742 C740 1.384 . S
C742 C743 1.381 1_545 S
C742 H769 0.930 . S
C743 C742 1.381 1_565 S
C743 C745 1.381 . S
C743 C746 1.487 . S
C744 C741 1.382 . S
C744 C745 1.387 . S
C744 H770 0.930 . S
C745 C743 1.381 . S
C745 C744 1.387 . S
C745 H771 0.931 . S
C746 C743 1.487 . S
C746 C753 1.399 1_565 S
C746 N784 1.343 . S
C747 C748 1.384 1_565 S
C747 C749 1.384 . S
C747 H772 0.931 . S
C748 C747 1.384 1_545 S
C748 C751 1.382 . S
C749 C747 1.384 . S
C749 C750 1.381 1_565 S
C749 H773 0.930 . S
C750 C749 1.381 1_545 S
C750 C752 1.381 . S
C750 C753 1.487 . S
C751 C748 1.382 . S
C751 C752 1.387 . S
C751 H774 0.930 . S
C752 C750 1.381 . S
C752 C751 1.387 . S
C752 H775 0.931 . S
C753 C746 1.399 1_545 S
C753 C750 1.487 . S
C753 N785 1.343 . S
C754 C755 1.384 1_565 S
C754 C756 1.384 . S
C754 H776 0.931 . S
C755 C754 1.384 1_545 S
C755 C758 1.382 . S
C756 C754 1.384 . S
C756 C757 1.381 1_565 S
C756 H777 0.930 . S
C757 C756 1.381 1_545 S
C757 C759 1.381 . S
C757 C760 1.487 . S
C758 C755 1.382 . S
C758 C759 1.387 . S
C758 H778 0.930 . S
C759 C757 1.381 . S
C759 C758 1.387 . S
C759 H779 0.931 . S
C760 C757 1.487 . S
C760 C767 1.399 1_545 S
C760 N785 1.343 . S
C761 C762 1.384 1_545 S
C761 C763 1.384 . S
C761 H780 0.931 . S
C762 C761 1.384 1_565 S
C762 C765 1.382 . S
C763 C761 1.384 . S
C763 C764 1.381 1_545 S
C763 H781 0.930 . S
C764 C763 1.381 1_565 S
C764 C766 1.381 . S
C764 C767 1.487 . S
C765 C762 1.382 . S
C765 C766 1.387 . S
C765 H782 0.930 . S
C766 C764 1.381 . S
C766 C765 1.387 . S
C766 H783 0.931 . S
C767 C760 1.399 1_565 S
C767 C764 1.487 . S
C767 N784 1.343 . S
H768 C740 0.931 . S
H769 C742 0.930 . S
H770 C744 0.930 . S
H771 C745 0.931 . S
H772 C747 0.931 . S
H773 C749 0.930 . S
H774 C751 0.930 . S
H775 C752 0.931 . S
H776 C754 0.931 . S
H777 C756 0.930 . S
H778 C758 0.930 . S
H779 C759 0.931 . S
H780 C761 0.931 . S
H781 C763 0.930 . S
H782 C765 0.930 . S
H783 C766 0.931 . S
N784 C746 1.343 . S
N784 C767 1.343 . S
N785 C753 1.343 . S
N785 C760 1.343 . S
C786 C787 1.384 . S
C786 C788 1.384 . S
C786 H814 0.931 . S
C787 C786 1.384 . S
C787 C790 1.382 1_545 S
C788 C786 1.384 . S
C788 C789 1.381 1_545 S
C788 H815 0.930 . S
C789 C788 1.381 1_565 S
C789 C791 1.383 . S
C789 C792 1.495 . S
C790 C787 1.382 1_565 S
C790 C791 1.387 . S
C790 H816 0.930 . S
C791 C789 1.383 . S
C791 C790 1.387 . S
C791 H817 0.931 . S
C792 C789 1.495 . S
C792 C799 1.400 1_565 S
C792 N830 1.333 . S
C793 C794 1.384 . S
C793 C795 1.384 . S
C793 H818 0.931 . S
C794 C793 1.384 . S
C794 C797 1.382 1_565 S
C795 C793 1.384 . S
C795 C796 1.419 . S
C795 H819 0.930 . S
C796 C795 1.419 . S
C796 C798 1.364 1_565 S
C796 C799 1.467 1_565 S
C797 C794 1.382 1_545 S
C797 C798 1.387 . S
C797 H820 0.930 . S
C798 C796 1.364 1_545 S
C798 C797 1.387 . S
C798 H821 0.931 . S
C799 C792 1.400 1_545 S
C799 C796 1.467 1_545 S
C799 N831 1.344 . S
C800 C801 1.384 . S
C800 C802 1.384 . S
C800 H822 0.931 . S
C801 C800 1.384 . S
C801 C804 1.382 1_565 S
C802 C800 1.384 . S
C802 C803 1.379 1_565 S
C802 H823 0.930 . S
C803 C802 1.379 1_545 S
C803 C805 1.390 . S
C803 C806 1.495 . S
C804 C801 1.382 1_545 S
C804 C805 1.387 . S
C804 H824 0.930 . S
C805 C803 1.390 . S
C805 C804 1.387 . S
C805 H825 0.931 . S
C806 C803 1.495 . S
C806 C813 1.400 . S
C806 N831 1.327 . S
C807 C808 1.384 . S
C807 C809 1.384 . S
C807 H826 0.931 . S
C808 C807 1.384 . S
C808 C811 1.382 1_545 S
C809 C807 1.384 . S
C809 C810 1.432 . S
C809 H827 0.930 . S
C810 C809 1.432 . S
C810 C812 1.358 1_545 S
C810 C813 1.461 . S
C811 C808 1.382 1_565 S
C811 C812 1.387 . S
C811 H828 0.930 . S
C812 C810 1.358 1_565 S
C812 C811 1.387 . S
C812 H829 0.931 . S
C813 C806 1.400 . S
C813 C810 1.461 . S
C813 N830 1.344 1_545 S
H814 C786 0.931 . S
H815 C788 0.930 . S
H816 C790 0.930 . S
H817 C791 0.931 . S
H818 C793 0.931 . S
H819 C795 0.930 . S
H820 C797 0.930 . S
H821 C798 0.931 . S
H822 C800 0.931 . S
H823 C802 0.930 . S
H824 C804 0.930 . S
H825 C805 0.931 . S
H826 C807 0.931 . S
H827 C809 0.930 . S
H828 C811 0.930 . S
H829 C812 0.931 . S
N830 C792 1.333 . S
N830 C813 1.344 1_565 S
N831 C799 1.344 . S
N831 C806 1.327 . S
C832 C833 1.384 . S
C832 C834 1.384 . S
C832 H860 0.931 . S
C833 C832 1.384 . S
C833 C836 1.382 1_655 S
C834 C832 1.384 . S
C834 C835 1.381 . S
C834 H861 0.930 . S
C835 C834 1.381 . S
C835 C837 1.381 1_655 S
C835 C838 1.491 . S
C836 C833 1.382 1_455 S
C836 C837 1.387 . S
C836 H862 0.930 . S
C837 C835 1.381 1_455 S
C837 C836 1.387 . S
C837 H863 0.931 . S
C838 C835 1.491 . S
C838 C845 1.399 . S
C838 N876 1.316 1_655 S
C839 C840 1.384 . S
C839 C841 1.384 . S
C839 H864 0.931 . S
C840 C839 1.384 . S
C840 C843 1.382 1_455 S
C841 C839 1.384 . S
C841 C842 1.380 1_455 S
C841 H865 0.930 . S
C842 C841 1.380 1_655 S
C842 C844 1.388 . S
C842 C845 1.497 . S
C843 C840 1.382 1_655 S
C843 C844 1.387 . S
C843 H866 0.930 . S
C844 C842 1.388 . S
C844 C843 1.387 . S
C844 H867 0.931 . S
C845 C838 1.399 . S
C845 C842 1.497 . S
C845 N877 1.328 . S
C846 C847 1.384 . S
C846 C848 1.384 . S
C846 H868 0.931 . S
C847 C846 1.384 . S
C847 C850 1.382 1_455 S
C848 C846 1.384 . S
C848 C849 1.381 . S
C848 H869 0.930 . S
C849 C848 1.381 . S
C849 C851 1.381 1_455 S
C849 C852 1.484 . S
C850 C847 1.382 1_655 S
C850 C851 1.387 . S
C850 H870 0.930 . S
C851 C849 1.381 1_655 S
C851 C850 1.387 . S
C851 H871 0.931 . S
C852 C849 1.484 . S
C852 C859 1.399 . S
C852 N877 1.346 1_455 S
C853 C854 1.384 . S
C853 C855 1.384 . S
C853 H872 0.931 . S
C854 C853 1.384 . S
C854 C857 1.382 1_655 S
C855 C853 1.384 . S
C855 C856 1.382 1_655 S
C855 H873 0.930 . S
C856 C855 1.382 1_455 S
C856 C858 1.380 . S
C856 C859 1.497 . S
C857 C854 1.382 1_455 S
C857 C858 1.387 . S
C857 H874 0.930 . S
C858 C856 1.380 . S
C858 C857 1.387 . S
C858 H875 0.931 . S
C859 C852 1.399 . S
C859 C856 1.497 . S
C859 N876 1.355 . S
H860 C832 0.931 . S
H861 C834 0.930 . S
H862 C836 0.930 . S
H863 C837 0.931 . S
H864 C839 0.931 . S
H865 C841 0.930 . S
H866 C843 0.930 . S
H867 C844 0.931 . S
H868 C846 0.931 . S
H869 C848 0.930 . S
H870 C850 0.930 . S
H871 C851 0.931 . S
H872 C853 0.931 . S
H873 C855 0.930 . S
H874 C857 0.930 . S
H875 C858 0.931 . S
N876 C838 1.316 1_455 S
N876 C859 1.355 . S
N877 C845 1.328 . S
N877 C852 1.346 1_655 S
C878 C879 1.384 . S
C878 C880 1.384 . S
C878 H906 0.931 . S
C879 C878 1.384 . S
C879 C882 1.382 . S
C880 C878 1.384 . S
C880 C881 1.381 . S
C880 H907 0.930 . S
C881 C880 1.381 . S
C881 C883 1.381 . S
C881 C884 1.487 . S
C882 C879 1.382 . S
C882 C883 1.387 . S
C882 H908 0.930 . S
C883 C881 1.381 . S
C883 C882 1.387 . S
C883 H909 0.931 . S
C884 C881 1.487 . S
C884 C891 1.399 . S
C884 N922 1.343 . S
C885 C886 1.384 . S
C885 C887 1.384 . S
C885 H910 0.931 . S
C886 C885 1.384 . S
C886 C889 1.382 . S
C887 C885 1.384 . S
C887 C888 1.381 . S
C887 H911 0.930 . S
C888 C887 1.381 . S
C888 C890 1.381 . S
C888 C891 1.487 . S
C889 C886 1.382 . S
C889 C890 1.387 . S
C889 H912 0.930 . S
C890 C888 1.381 . S
C890 C889 1.387 . S
C890 H913 0.931 . S
C891 C884 1.399 . S
C891 C888 1.487 . S
C891 N923 1.343 . S
C892 C893 1.384 . S
C892 C894 1.384 . S
C892 H914 0.931 . S
C893 C892 1.384 . S
C893 C896 1.382 . S
C894 C892 1.384 . S
C894 C895 1.381 . S
C894 H915 0.930 . S
C895 C894 1.381 . S
C895 C897 1.381 . S
C895 C898 1.487 . S
C896 C893 1.382 . S
C896 C897 1.387 . S
C896 H916 0.930 . S
C897 C895 1.381 . S
C897 C896 1.387 . S
C897 H917 0.931 . S
C898 C895 1.487 . S
C898 C905 1.399 . S
C898 N923 1.343 . S
C899 C900 1.384 . S
C899 C901 1.384 . S
C899 H918 0.931 . S
C900 C899 1.384 . S
C900 C903 1.382 . S
C901 C899 1.384 . S
C901 C902 1.381 . S
C901 H919 0.930 . S
C902 C901 1.381 . S
C902 C904 1.381 . S
C902 C905 1.487 . S
C903 C900 1.382 . S
C903 C904 1.387 . S
C903 H920 0.930 . S
C904 C902 1.381 . S
C904 C903 1.387 . S
C904 H921 0.931 . S
C905 C898 1.399 . S
C905 C902 1.487 . S
C905 N922 1.343 . S
H906 C878 0.931 . S
H907 C880 0.930 . S
H908 C882 0.930 . S
H909 C883 0.931 . S
H910 C885 0.931 . S
H911 C887 0.930 . S
H912 C889 0.930 . S
H913 C890 0.931 . S
H914 C892 0.931 . S
H915 C894 0.930 . S
H916 C896 0.930 . S
H917 C897 0.931 . S
H918 C899 0.931 . S
H919 C901 0.930 . S
H920 C903 0.930 . S
H921 C904 0.931 . S
N922 C884 1.343 . S
N922 C905 1.343 . S
N923 C891 1.343 . S
N923 C898 1.343 . S
C924 C925 1.384 . S
C924 C926 1.384 . S
C924 H952 0.931 . S
C925 C924 1.384 . S
C925 C928 1.382 . S
C926 C924 1.384 . S
C926 C927 1.381 . S
C926 H953 0.930 . S
C927 C926 1.381 . S
C927 C929 1.381 . S
C927 C930 1.487 . S
C928 C925 1.382 . S
C928 C929 1.387 . S
C928 H954 0.930 . S
C929 C927 1.381 . S
C929 C928 1.387 . S
C929 H955 0.931 . S
C930 C927 1.487 . S
C930 C937 1.399 . S
C930 N968 1.343 . S
C931 C932 1.384 . S
C931 C933 1.384 . S
C931 H956 0.931 . S
C932 C931 1.384 . S
C932 C935 1.382 . S
C933 C931 1.384 . S
C933 C934 1.381 . S
C933 H957 0.930 . S
C934 C933 1.381 . S
C934 C936 1.381 . S
C934 C937 1.487 . S
C935 C932 1.382 . S
C935 C936 1.387 . S
C935 H958 0.930 . S
C936 C934 1.381 . S
C936 C935 1.387 . S
C936 H959 0.931 . S
C937 C930 1.399 . S
C937 C934 1.487 . S
C937 N969 1.343 . S
C938 C939 1.384 . S
C938 C940 1.384 . S
C938 H960 0.931 . S
C939 C938 1.384 . S
C939 C942 1.382 . S
C940 C938 1.384 . S
C940 C941 1.381 . S
C940 H961 0.930 . S
C941 C940 1.381 . S
C941 C943 1.381 . S
C941 C944 1.487 . S
C942 C939 1.382 . S
C942 C943 1.387 . S
C942 H962 0.930 . S
C943 C941 1.381 . S
C943 C942 1.387 . S
C943 H963 0.931 . S
C944 C941 1.487 . S
C944 C951 1.399 . S
C944 N969 1.343 . S
C945 C946 1.384 . S
C945 C947 1.384 . S
C945 H964 0.931 . S
C946 C945 1.384 . S
C946 C949 1.382 . S
C947 C945 1.384 . S
C947 C948 1.381 . S
C947 H965 0.930 . S
C948 C947 1.381 . S
C948 C950 1.381 . S
C948 C951 1.487 . S
C949 C946 1.382 . S
C949 C950 1.387 . S
C949 H966 0.930 . S
C950 C948 1.381 . S
C950 C949 1.387 . S
C950 H967 0.931 . S
C951 C944 1.399 . S
C951 C948 1.487 . S
C951 N968 1.343 . S
H952 C924 0.931 . S
H953 C926 0.930 . S
H954 C928 0.930 . S
H955 C929 0.931 . S
H956 C931 0.931 . S
H957 C933 0.930 . S
H958 C935 0.930 . S
H959 C936 0.931 . S
H960 C938 0.931 . S
H961 C940 0.930 . S
H962 C942 0.930 . S
H963 C943 0.931 . S
H964 C945 0.931 . S
H965 C947 0.930 . S
H966 C949 0.930 . S
H967 C950 0.931 . S
N968 C930 1.343 . S
N968 C951 1.343 . S
N969 C937 1.343 . S
N969 C944 1.343 . S
C970 C971 1.384 . S
C970 C972 1.384 . S
C970 H998 0.931 . S
C971 C970 1.384 . S
C971 C974 1.382 . S
C972 C970 1.384 . S
C972 C973 1.381 . S
C972 H999 0.930 . S
C973 C972 1.381 . S
C973 C975 1.381 . S
C973 C976 1.487 . S
C974 C971 1.382 . S
C974 C975 1.387 . S
C974 H1000 0.930 . S
C975 C973 1.381 . S
C975 C974 1.387 . S
C975 H1001 0.931 . S
C976 C973 1.487 . S
C976 C983 1.399 . S
C976 N1014 1.343 . S
C977 C978 1.384 . S
C977 C979 1.384 . S
C977 H1002 0.931 . S
C978 C977 1.384 . S
C978 C981 1.382 . S
C979 C977 1.384 . S
C979 C980 1.381 . S
C979 H1003 0.930 . S
C980 C979 1.381 . S
C980 C982 1.381 . S
C980 C983 1.487 . S
C981 C978 1.382 . S
C981 C982 1.387 . S
C981 H1004 0.930 . S
C982 C980 1.381 . S
C982 C981 1.387 . S
C982 H1005 0.931 . S
C983 C976 1.399 . S
C983 C980 1.487 . S
C983 N1015 1.343 . S
C984 C985 1.384 . S
C984 C986 1.384 . S
C984 H1006 0.931 . S
C985 C984 1.384 . S
C985 C988 1.382 . S
C986 C984 1.384 . S
C986 C987 1.381 . S
C986 H1007 0.930 . S
C987 C986 1.381 . S
C987 C989 1.381 . S
C987 C990 1.487 . S
C988 C985 1.382 . S
C988 C989 1.387 . S
C988 H1008 0.930 . S
C989 C987 1.381 . S
C989 C988 1.387 . S
C989 H1009 0.931 . S
C990 C987 1.487 . S
C990 C997 1.399 . S
C990 N1015 1.343 . S
C991 C992 1.384 . S
C991 C993 1.384 . S
C991 H1010 0.931 . S
C992 C991 1.384 . S
C992 C995 1.382 . S
C993 C991 1.384 . S
C993 C994 1.381 . S
C993 H1011 0.930 . S
C994 C993 1.381 . S
C994 C996 1.381 . S
C994 C997 1.487 . S
C995 C992 1.382 . S
C995 C996 1.387 . S
C995 H1012 0.930 . S
C996 C994 1.381 . S
C996 C995 1.387 . S
C996 H1013 0.931 . S
C997 C990 1.399 . S
C997 C994 1.487 . S
C997 N1014 1.343 . S
H998 C970 0.931 . S
H999 C972 0.930 . S
H1000 C974 0.930 . S
H1001 C975 0.931 . S
H1002 C977 0.931 . S
H1003 C979 0.930 . S
H1004 C981 0.930 . S
H1005 C982 0.931 . S
H1006 C984 0.931 . S
H1007 C986 0.930 . S
H1008 C988 0.930 . S
H1009 C989 0.931 . S
H1010 C991 0.931 . S
H1011 C993 0.930 . S
H1012 C995 0.930 . S
H1013 C996 0.931 . S
N1014 C976 1.343 . S
N1014 C997 1.343 . S
N1015 C983 1.343 . S
N1015 C990 1.343 . S
C1016 C1017 1.384 . S
C1016 C1018 1.384 . S
C1016 H1044 0.931 . S
C1017 C1016 1.384 . S
C1017 C1020 1.382 . S
C1018 C1016 1.384 . S
C1018 C1019 1.381 . S
C1018 H1045 0.930 . S
C1019 C1018 1.381 . S
C1019 C1021 1.381 . S
C1019 C1022 1.487 . S
C1020 C1017 1.382 . S
C1020 C1021 1.387 . S
C1020 H1046 0.930 . S
C1021 C1019 1.381 . S
C1021 C1020 1.387 . S
C1021 H1047 0.931 . S
C1022 C1019 1.487 . S
C1022 C1029 1.399 . S
C1022 N1060 1.343 . S
C1023 C1024 1.384 . S
C1023 C1025 1.384 . S
C1023 H1048 0.931 . S
C1024 C1023 1.384 . S
C1024 C1027 1.382 . S
C1025 C1023 1.384 . S
C1025 C1026 1.381 . S
C1025 H1049 0.930 . S
C1026 C1025 1.381 . S
C1026 C1028 1.381 . S
C1026 C1029 1.487 . S
C1027 C1024 1.382 . S
C1027 C1028 1.387 . S
C1027 H1050 0.930 . S
C1028 C1026 1.381 . S
C1028 C1027 1.387 . S
C1028 H1051 0.931 . S
C1029 C1022 1.399 . S
C1029 C1026 1.487 . S
C1029 N1061 1.343 . S
C1030 C1031 1.384 . S
C1030 C1032 1.384 . S
C1030 H1052 0.931 . S
C1031 C1030 1.384 . S
C1031 C1034 1.382 . S
C1032 C1030 1.384 . S
C1032 C1033 1.381 . S
C1032 H1053 0.930 . S
C1033 C1032 1.381 . S
C1033 C1035 1.381 . S
C1033 C1036 1.487 . S
C1034 C1031 1.382 . S
C1034 C1035 1.387 . S
C1034 H1054 0.930 . S
C1035 C1033 1.381 . S
C1035 C1034 1.387 . S
C1035 H1055 0.931 . S
C1036 C1033 1.487 . S
C1036 C1043 1.399 . S
C1036 N1061 1.343 . S
C1037 C1038 1.384 . S
C1037 C1039 1.384 . S
C1037 H1056 0.931 . S
C1038 C1037 1.384 . S
C1038 C1041 1.382 . S
C1039 C1037 1.384 . S
C1039 C1040 1.381 . S
C1039 H1057 0.930 . S
C1040 C1039 1.381 . S
C1040 C1042 1.381 . S
C1040 C1043 1.487 . S
C1041 C1038 1.382 . S
C1041 C1042 1.387 . S
C1041 H1058 0.930 . S
C1042 C1040 1.381 . S
C1042 C1041 1.387 . S
C1042 H1059 0.931 . S
C1043 C1036 1.399 . S
C1043 C1040 1.487 . S
C1043 N1060 1.343 . S
H1044 C1016 0.931 . S
H1045 C1018 0.930 . S
H1046 C1020 0.930 . S
H1047 C1021 0.931 . S
H1048 C1023 0.931 . S
H1049 C1025 0.930 . S
H1050 C1027 0.930 . S
H1051 C1028 0.931 . S
H1052 C1030 0.931 . S
H1053 C1032 0.930 . S
H1054 C1034 0.930 . S
H1055 C1035 0.931 . S
H1056 C1037 0.931 . S
H1057 C1039 0.930 . S
H1058 C1041 0.930 . S
H1059 C1042 0.931 . S
N1060 C1022 1.343 . S
N1060 C1043 1.343 . S
N1061 C1029 1.343 . S
N1061 C1036 1.343 . S
C1062 C1063 1.387 1_455 S
C1062 H1066 0.950 . S
C1062 C1071 1.390 . S
C1063 C1062 1.387 1_655 S
C1063 C1065 1.387 . S
H1064 C1071 0.950 . S
C1065 C1063 1.387 . S
C1065 C1067 1.390 . S
C1065 H1069 0.950 . S
H1066 C1062 0.950 . S
C1067 C1065 1.390 . S
C1067 C1068 1.387 . S
C1067 H1070 0.950 . S
C1068 C1067 1.387 . S
C1068 C1071 1.387 1_655 S
H1069 C1065 0.950 . S
H1070 C1067 0.950 . S
C1071 C1062 1.390 . S
C1071 H1064 0.950 . S
C1071 C1068 1.387 1_455 S
C1072 C1073 1.387 . S
C1072 H1076 0.950 . S
C1072 C1081 1.390 . S
C1073 C1072 1.387 . S
C1073 C1075 1.387 . S
H1074 C1081 0.950 . S
C1075 C1073 1.387 . S
C1075 C1077 1.390 . S
C1075 H1079 0.950 . S
H1076 C1072 0.950 . S
C1077 C1075 1.390 . S
C1077 C1078 1.387 . S
C1077 H1080 0.950 . S
C1078 C1077 1.387 . S
C1078 C1081 1.387 . S
H1079 C1075 0.950 . S
H1080 C1077 0.950 . S
C1081 C1072 1.390 . S
C1081 H1074 0.950 . S
C1081 C1078 1.387 . S
C1082 C1083 1.333 1_565 S
C1082 H1086 0.972 . S
C1082 C1091 1.424 . S
C1083 C1082 1.333 1_545 S
C1083 C1085 1.387 . S
H1084 C1091 0.950 . S
C1085 C1083 1.387 . S
C1085 C1087 1.390 . S
C1085 H1089 0.950 . S
H1086 C1082 0.972 . S
C1087 C1085 1.390 . S
C1087 C1088 1.387 . S
C1087 H1090 0.950 . S
C1088 C1087 1.387 . S
C1088 C1091 1.387 1_545 S
H1089 C1085 0.950 . S
H1090 C1087 0.950 . S
C1091 C1082 1.424 . S
C1091 H1084 0.950 . S
C1091 C1088 1.387 1_565 S
C1092 C1093 1.387 . S
C1092 H1096 0.950 . S
C1092 C1101 1.390 . S
C1093 C1092 1.387 . S
C1093 C1095 1.387 . S
H1094 C1101 0.950 . S
C1095 C1093 1.387 . S
C1095 C1097 1.390 . S
C1095 H1099 0.950 . S
H1096 C1092 0.950 . S
C1097 C1095 1.390 . S
C1097 C1098 1.387 . S
C1097 H1100 0.950 . S
C1098 C1097 1.387 . S
C1098 C1101 1.387 . S
H1099 C1095 0.950 . S
H1100 C1097 0.950 . S
C1101 C1092 1.390 . S
C1101 H1094 0.950 . S
C1101 C1098 1.387 . S
C1102 C1103 1.387 . S
C1102 H1106 0.950 . S
C1102 C1111 1.390 . S
C1103 C1102 1.387 . S
C1103 C1105 1.387 . S
H1104 C1111 0.950 . S
C1105 C1103 1.387 . S
C1105 C1107 1.390 . S
C1105 H1109 0.950 . S
H1106 C1102 0.950 . S
C1107 C1105 1.390 . S
C1107 C1108 1.387 . S
C1107 H1110 0.950 . S
C1108 C1107 1.387 . S
C1108 C1111 1.387 . S
H1109 C1105 0.950 . S
H1110 C1107 0.950 . S
C1111 C1102 1.390 . S
C1111 H1104 0.950 . S
C1111 C1108 1.387 . S
C1112 C1113 1.387 . S
C1112 H1116 0.950 . S
C1112 C1121 1.390 . S
C1113 C1112 1.387 . S
C1113 C1115 1.387 . S
H1114 C1121 0.950 . S
C1115 C1113 1.387 . S
C1115 C1117 1.390 . S
C1115 H1119 0.950 . S
H1116 C1112 0.950 . S
C1117 C1115 1.390 . S
C1117 C1118 1.387 . S
C1117 H1120 0.950 . S
C1118 C1117 1.387 . S
C1118 C1121 1.387 . S
H1119 C1115 0.950 . S
H1120 C1117 0.950 . S
C1121 C1112 1.390 . S
C1121 H1114 0.950 . S
C1121 C1118 1.387 . S
C1122 C1123 1.387 . S
C1122 H1126 0.950 . S
C1122 C1131 1.390 . S
C1123 C1122 1.387 . S
C1123 C1125 1.387 1_455 S
H1124 C1131 0.950 . S
C1125 C1123 1.387 1_655 S
C1125 C1127 1.390 . S
C1125 H1129 0.950 . S
H1126 C1122 0.950 . S
C1127 C1125 1.390 . S
C1127 C1128 1.387 1_655 S
C1127 H1130 0.950 . S
C1128 C1127 1.387 1_455 S
C1128 C1131 1.387 . S
H1129 C1125 0.950 . S
H1130 C1127 0.950 . S
C1131 C1122 1.390 . S
C1131 H1124 0.950 . S
C1131 C1128 1.387 . S
C1132 C1133 1.387 . S
C1132 H1136 0.950 . S
C1132 C1141 1.390 . S
C1133 C1132 1.387 . S
C1133 C1135 1.387 . S
H1134 C1141 0.950 . S
C1135 C1133 1.387 . S
C1135 C1137 1.390 . S
C1135 H1139 0.950 . S
H1136 C1132 0.950 . S
C1137 C1135 1.390 . S
C1137 C1138 1.387 . S
C1137 H1140 0.950 . S
C1138 C1137 1.387 . S
C1138 C1141 1.387 . S
H1139 C1135 0.950 . S
H1140 C1137 0.950 . S
C1141 C1132 1.390 . S
C1141 H1134 0.950 . S
C1141 C1138 1.387 . S
C1142 C1143 1.387 . S
C1142 H1146 0.950 . S
C1142 C1151 1.390 . S
C1143 C1142 1.387 . S
C1143 C1145 1.350 1_565 S
H1144 C1151 0.950 . S
C1145 C1143 1.350 1_545 S
C1145 C1147 1.414 . S
C1145 H1149 0.965 . S
H1146 C1142 0.950 . S
C1147 C1145 1.414 . S
C1147 C1148 1.387 1_545 S
C1147 H1150 0.950 . S
C1148 C1147 1.387 1_565 S
C1148 C1151 1.387 . S
H1149 C1145 0.965 . S
H1150 C1147 0.950 . S
C1151 C1142 1.390 . S
C1151 H1144 0.950 . S
C1151 C1148 1.387 . S
C1152 C1153 1.387 . S
C1152 H1156 0.950 . S
C1152 C1161 1.390 . S
C1153 C1152 1.387 . S
C1153 C1155 1.387 1_545 S
H1154 C1161 0.950 . S
C1155 C1153 1.387 1_565 S
C1155 C1157 1.390 . S
C1155 H1159 0.950 . S
H1156 C1152 0.950 . S
C1157 C1155 1.390 . S
C1157 C1158 1.387 1_565 S
C1157 H1160 0.950 . S
C1158 C1157 1.387 1_545 S
C1158 C1161 1.387 . S
H1159 C1155 0.950 . S
H1160 C1157 0.950 . S
C1161 C1152 1.390 . S
C1161 H1154 0.950 . S
C1161 C1158 1.387 . S
C1162 C1163 1.387 . S
C1162 H1166 0.950 . S
C1162 C1171 1.390 . S
C1163 C1162 1.387 . S
C1163 C1165 1.387 . S
H1164 C1171 0.950 . S
C1165 C1163 1.387 . S
C1165 C1167 1.390 . S
C1165 H1169 0.950 . S
H1166 C1162 0.950 . S
C1167 C1165 1.390 . S
C1167 C1168 1.387 . S
C1167 H1170 0.950 . S
C1168 C1167 1.387 . S
C1168 C1171 1.387 . S
H1169 C1165 0.950 . S
H1170 C1167 0.950 . S
C1171 C1162 1.390 . S
C1171 H1164 0.950 . S
C1171 C1168 1.387 . S
C1172 C1173 1.387 . S
C1172 H1176 0.950 . S
C1172 C1181 1.390 . S
C1173 C1172 1.387 . S
C1173 C1175 1.387 . S
H1174 C1181 0.950 . S
C1175 C1173 1.387 . S
C1175 C1177 1.390 . S
C1175 H1179 0.950 . S
H1176 C1172 0.950 . S
C1177 C1175 1.390 . S
C1177 C1178 1.387 . S
C1177 H1180 0.950 . S
C1178 C1177 1.387 . S
C1178 C1181 1.387 . S
H1179 C1175 0.950 . S
H1180 C1177 0.950 . S
C1181 C1172 1.390 . S
C1181 H1174 0.950 . S
C1181 C1178 1.387 . S
C1182 C1183 1.387 . S
C1182 H1186 0.950 . S
C1182 C1191 1.390 . S
C1183 C1182 1.387 . S
C1183 C1185 1.387 . S
H1184 C1191 0.950 . S
C1185 C1183 1.387 . S
C1185 C1187 1.390 . S
C1185 H1189 0.950 . S
H1186 C1182 0.950 . S
C1187 C1185 1.390 . S
C1187 C1188 1.387 . S
C1187 H1190 0.950 . S
C1188 C1187 1.387 . S
C1188 C1191 1.387 . S
H1189 C1185 0.950 . S
H1190 C1187 0.950 . S
C1191 C1182 1.390 . S
C1191 H1184 0.950 . S
C1191 C1188 1.387 . S
C1192 C1193 1.387 . S
C1192 H1196 0.950 . S
C1192 C1201 1.390 . S
C1193 C1192 1.387 . S
C1193 C1195 1.387 . S
H1194 C1201 0.950 . S
C1195 C1193 1.387 . S
C1195 C1197 1.390 . S
C1195 H1199 0.950 . S
H1196 C1192 0.950 . S
C1197 C1195 1.390 . S
C1197 C1198 1.387 . S
C1197 H1200 0.950 . S
C1198 C1197 1.387 . S
C1198 C1201 1.387 . S
H1199 C1195 0.950 . S
H1200 C1197 0.950 . S
C1201 C1192 1.390 . S
C1201 H1194 0.950 . S
C1201 C1198 1.387 . S
C1202 C1203 1.387 . S
C1202 H1206 0.950 . S
C1202 C1211 1.390 . S
C1203 C1202 1.387 . S
C1203 C1205 1.387 . S
H1204 C1211 0.950 . S
C1205 C1203 1.387 . S
C1205 C1207 1.390 . S
C1205 H1209 0.950 . S
H1206 C1202 0.950 . S
C1207 C1205 1.390 . S
C1207 C1208 1.387 . S
C1207 H1210 0.950 . S
C1208 C1207 1.387 . S
C1208 C1211 1.387 . S
H1209 C1205 0.950 . S
H1210 C1207 0.950 . S
C1211 C1202 1.390 . S
C1211 H1204 0.950 . S
C1211 C1208 1.387 . S
C1212 C1213 1.387 . S
C1212 H1216 0.950 . S
C1212 C1221 1.390 . S
C1213 C1212 1.387 . S
C1213 C1215 1.387 . S
H1214 C1221 0.950 . S
C1215 C1213 1.387 . S
C1215 C1217 1.390 . S
C1215 H1219 0.950 . S
H1216 C1212 0.950 . S
C1217 C1215 1.390 . S
C1217 C1218 1.387 . S
C1217 H1220 0.950 . S
C1218 C1217 1.387 . S
C1218 C1221 1.387 . S
H1219 C1215 0.950 . S
H1220 C1217 0.950 . S
C1221 C1212 1.390 . S
C1221 H1214 0.950 . S
C1221 C1218 1.387 . S
C1222 C1223 1.387 . S
C1222 H1226 0.950 . S
C1222 C1231 1.390 . S
C1223 C1222 1.387 . S
C1223 C1225 1.387 . S
H1224 C1231 0.950 . S
C1225 C1223 1.387 . S
C1225 C1227 1.390 . S
C1225 H1229 0.950 . S
H1226 C1222 0.950 . S
C1227 C1225 1.390 . S
C1227 C1228 1.387 . S
C1227 H1230 0.950 . S
C1228 C1227 1.387 . S
C1228 C1231 1.387 . S
H1229 C1225 0.950 . S
H1230 C1227 0.950 . S
C1231 C1222 1.390 . S
C1231 H1224 0.950 . S
C1231 C1228 1.387 . S
C1232 C1233 1.387 . S
C1232 H1236 0.950 . S
C1232 C1241 1.390 . S
C1233 C1232 1.387 . S
C1233 C1235 1.387 . S
H1234 C1241 0.950 . S
C1235 C1233 1.387 . S
C1235 C1237 1.390 . S
C1235 H1239 0.950 . S
H1236 C1232 0.950 . S
C1237 C1235 1.390 . S
C1237 C1238 1.387 . S
C1237 H1240 0.950 . S
C1238 C1237 1.387 . S
C1238 C1241 1.387 . S
H1239 C1235 0.950 . S
H1240 C1237 0.950 . S
C1241 C1232 1.390 . S
C1241 H1234 0.950 . S
C1241 C1238 1.387 . S
C1242 C1243 1.387 . S
C1242 H1246 0.950 . S
C1242 C1251 1.390 . S
C1243 C1242 1.387 . S
C1243 C1245 1.387 . S
H1244 C1251 0.950 . S
C1245 C1243 1.387 . S
C1245 C1247 1.390 . S
C1245 H1249 0.950 . S
H1246 C1242 0.950 . S
C1247 C1245 1.390 . S
C1247 C1248 1.387 . S
C1247 H1250 0.950 . S
C1248 C1247 1.387 . S
C1248 C1251 1.387 . S
H1249 C1245 0.950 . S
H1250 C1247 0.950 . S
C1251 C1242 1.390 . S
C1251 H1244 0.950 . S
C1251 C1248 1.387 . S
C1252 C1253 1.387 . S
C1252 H1256 0.950 . S
C1252 C1261 1.390 . S
C1253 C1252 1.387 . S
C1253 C1255 1.387 . S
H1254 C1261 0.950 . S
C1255 C1253 1.387 . S
C1255 C1257 1.390 . S
C1255 H1259 0.950 . S
H1256 C1252 0.950 . S
C1257 C1255 1.390 . S
C1257 C1258 1.387 . S
C1257 H1260 0.950 . S
C1258 C1257 1.387 . S
C1258 C1261 1.387 . S
H1259 C1255 0.950 . S
H1260 C1257 0.950 . S
C1261 C1252 1.390 . S
C1261 H1254 0.950 . S
C1261 C1258 1.387 . S
C1262 C1263 1.387 . S
C1262 H1266 0.950 . S
C1262 C1271 1.390 . S
C1263 C1262 1.387 . S
C1263 C1265 1.387 . S
H1264 C1271 0.950 . S
C1265 C1263 1.387 . S
C1265 C1267 1.390 . S
C1265 H1269 0.950 . S
H1266 C1262 0.950 . S
C1267 C1265 1.390 . S
C1267 C1268 1.387 . S
C1267 H1270 0.950 . S
C1268 C1267 1.387 . S
C1268 C1271 1.387 . S
H1269 C1265 0.950 . S
H1270 C1267 0.950 . S
C1271 C1262 1.390 . S
C1271 H1264 0.950 . S
C1271 C1268 1.387 . S
C1272 C1273 1.387 . S
C1272 H1276 0.950 . S
C1272 C1281 1.390 . S
C1273 C1272 1.387 . S
C1273 C1275 1.387 . S
H1274 C1281 0.950 . S
C1275 C1273 1.387 . S
C1275 C1277 1.390 . S
C1275 H1279 0.950 . S
H1276 C1272 0.950 . S
C1277 C1275 1.390 . S
C1277 C1278 1.387 . S
C1277 H1280 0.950 . S
C1278 C1277 1.387 . S
C1278 C1281 1.387 . S
H1279 C1275 0.950 . S
H1280 C1277 0.950 . S
C1281 C1272 1.390 . S
C1281 H1274 0.950 . S
C1281 C1278 1.387 . S
C1282 C1283 1.387 . S
C1282 H1286 0.950 . S
C1282 C1291 1.390 . S
C1283 C1282 1.387 . S
C1283 C1285 1.387 . S
H1284 C1291 0.950 . S
C1285 C1283 1.387 . S
C1285 C1287 1.390 . S
C1285 H1289 0.950 . S
H1286 C1282 0.950 . S
C1287 C1285 1.390 . S
C1287 C1288 1.387 . S
C1287 H1290 0.950 . S
C1288 C1287 1.387 . S
C1288 C1291 1.387 . S
H1289 C1285 0.950 . S
H1290 C1287 0.950 . S
C1291 C1282 1.390 . S
C1291 H1284 0.950 . S
C1291 C1288 1.387 . S
C1292 C1293 1.387 . S
C1292 H1296 0.950 . S
C1292 C1301 1.390 . S
C1293 C1292 1.387 . S
C1293 C1295 1.387 . S
H1294 C1301 0.950 . S
C1295 C1293 1.387 . S
C1295 C1297 1.390 . S
C1295 H1299 0.950 . S
H1296 C1292 0.950 . S
C1297 C1295 1.390 . S
C1297 C1298 1.387 . S
C1297 H1300 0.950 . S
C1298 C1297 1.387 . S
C1298 C1301 1.387 . S
H1299 C1295 0.950 . S
H1300 C1297 0.950 . S
C1301 C1292 1.390 . S
C1301 H1294 0.950 . S
C1301 C1298 1.387 . S
C1302 C1303 1.387 . S
C1302 H1306 0.950 . S
C1302 C1311 1.390 . S
C1303 C1302 1.387 . S
C1303 C1305 1.387 . S
H1304 C1311 0.950 . S
C1305 C1303 1.387 . S
C1305 C1307 1.390 . S
C1305 H1309 0.950 . S
H1306 C1302 0.950 . S
C1307 C1305 1.390 . S
C1307 C1308 1.387 . S
C1307 H1310 0.950 . S
C1308 C1307 1.387 . S
C1308 C1311 1.387 . S
H1309 C1305 0.950 . S
H1310 C1307 0.950 . S
C1311 C1302 1.390 . S
C1311 H1304 0.950 . S
C1311 C1308 1.387 . S
C1312 C1313 1.387 . S
C1312 H1316 0.950 . S
C1312 C1321 1.390 . S
C1313 C1312 1.387 . S
C1313 C1315 1.387 . S
H1314 C1321 0.950 . S
C1315 C1313 1.387 . S
C1315 C1317 1.390 . S
C1315 H1319 0.950 . S
H1316 C1312 0.950 . S
C1317 C1315 1.390 . S
C1317 C1318 1.387 . S
C1317 H1320 0.950 . S
C1318 C1317 1.387 . S
C1318 C1321 1.387 . S
H1319 C1315 0.950 . S
H1320 C1317 0.950 . S
C1321 C1312 1.390 . S
C1321 H1314 0.950 . S
C1321 C1318 1.387 . S
C1322 C1323 1.387 . S
C1322 H1326 0.950 . S
C1322 C1331 1.390 . S
C1323 C1322 1.387 . S
C1323 C1325 1.387 . S
H1324 C1331 0.950 . S
C1325 C1323 1.387 . S
C1325 C1327 1.390 . S
C1325 H1329 0.950 . S
H1326 C1322 0.950 . S
C1327 C1325 1.390 . S
C1327 C1328 1.387 . S
C1327 H1330 0.950 . S
C1328 C1327 1.387 . S
C1328 C1331 1.387 . S
H1329 C1325 0.950 . S
H1330 C1327 0.950 . S
C1331 C1322 1.390 . S
C1331 H1324 0.950 . S
C1331 C1328 1.387 . S
C1332 C1333 1.387 . S
C1332 H1336 0.950 . S
C1332 C1341 1.390 . S
C1333 C1332 1.387 . S
C1333 C1335 1.387 . S
H1334 C1341 0.950 . S
C1335 C1333 1.387 . S
C1335 C1337 1.390 . S
C1335 H1339 0.950 . S
H1336 C1332 0.950 . S
C1337 C1335 1.390 . S
C1337 C1338 1.387 . S
C1337 H1340 0.950 . S
C1338 C1337 1.387 . S
C1338 C1341 1.387 . S
H1339 C1335 0.950 . S
H1340 C1337 0.950 . S
C1341 C1332 1.390 . S
C1341 H1334 0.950 . S
C1341 C1338 1.387 . S
C1342 C1343 1.387 . S
C1342 H1346 0.950 . S
C1342 C1351 1.390 . S
C1343 C1342 1.387 . S
C1343 C1345 1.387 . S
H1344 C1351 0.950 . S
C1345 C1343 1.387 . S
C1345 C1347 1.390 . S
C1345 H1349 0.950 . S
H1346 C1342 0.950 . S
C1347 C1345 1.390 . S
C1347 C1348 1.387 . S
C1347 H1350 0.950 . S
C1348 C1347 1.387 . S
C1348 C1351 1.387 . S
H1349 C1345 0.950 . S
H1350 C1347 0.950 . S
C1351 C1342 1.390 . S
C1351 H1344 0.950 . S
C1351 C1348 1.387 . S
C1352 C1353 1.387 . S
C1352 H1356 0.950 . S
C1352 C1361 1.390 . S
C1353 C1352 1.387 . S
C1353 C1355 1.387 . S
H1354 C1361 0.950 . S
C1355 C1353 1.387 . S
C1355 C1357 1.390 . S
C1355 H1359 0.950 . S
H1356 C1352 0.950 . S
C1357 C1355 1.390 . S
C1357 C1358 1.387 . S
C1357 H1360 0.950 . S
C1358 C1357 1.387 . S
C1358 C1361 1.387 . S
H1359 C1355 0.950 . S
H1360 C1357 0.950 . S
C1361 C1352 1.390 . S
C1361 H1354 0.950 . S
C1361 C1358 1.387 . S
C1362 C1363 1.387 . S
C1362 H1366 0.950 . S
C1362 C1371 1.390 . S
C1363 C1362 1.387 . S
C1363 C1365 1.387 . S
H1364 C1371 0.950 . S
C1365 C1363 1.387 . S
C1365 C1367 1.390 . S
C1365 H1369 0.950 . S
H1366 C1362 0.950 . S
C1367 C1365 1.390 . S
C1367 C1368 1.387 . S
C1367 H1370 0.950 . S
C1368 C1367 1.387 . S
C1368 C1371 1.387 . S
H1369 C1365 0.950 . S
H1370 C1367 0.950 . S
C1371 C1362 1.390 . S
C1371 H1364 0.950 . S
C1371 C1368 1.387 . S
C1372 C1373 1.387 . S
C1372 H1376 0.950 . S
C1372 C1381 1.390 . S
C1373 C1372 1.387 . S
C1373 C1375 1.387 . S
H1374 C1381 0.950 . S
C1375 C1373 1.387 . S
C1375 C1377 1.390 . S
C1375 H1379 0.950 . S
H1376 C1372 0.950 . S
C1377 C1375 1.390 . S
C1377 C1378 1.387 . S
C1377 H1380 0.950 . S
C1378 C1377 1.387 . S
C1378 C1381 1.387 . S
H1379 C1375 0.950 . S
H1380 C1377 0.950 . S
C1381 C1372 1.390 . S
C1381 H1374 0.950 . S
C1381 C1378 1.387 . S
C1382 C1383 1.387 . S
C1382 H1386 0.950 . S
C1382 C1391 1.390 . S
C1383 C1382 1.387 . S
C1383 C1385 1.387 . S
H1384 C1391 0.950 . S
C1385 C1383 1.387 . S
C1385 C1387 1.390 . S
C1385 H1389 0.950 . S
H1386 C1382 0.950 . S
C1387 C1385 1.390 . S
C1387 C1388 1.387 . S
C1387 H1390 0.950 . S
C1388 C1387 1.387 . S
C1388 C1391 1.387 . S
H1389 C1385 0.950 . S
H1390 C1387 0.950 . S
C1391 C1382 1.390 . S
C1391 H1384 0.950 . S
C1391 C1388 1.387 . S
C1392 C1393 1.387 . S
C1392 H1396 0.950 . S
C1392 C1401 1.390 . S
C1393 C1392 1.387 . S
C1393 C1395 1.387 . S
H1394 C1401 0.950 . S
C1395 C1393 1.387 . S
C1395 C1397 1.390 . S
C1395 H1399 0.950 . S
H1396 C1392 0.950 . S
C1397 C1395 1.390 . S
C1397 C1398 1.387 . S
C1397 H1400 0.950 . S
C1398 C1397 1.387 . S
C1398 C1401 1.387 . S
H1399 C1395 0.950 . S
H1400 C1397 0.950 . S
C1401 C1392 1.390 . S
C1401 H1394 0.950 . S
C1401 C1398 1.387 . S
C1402 C1403 1.387 . S
C1402 H1406 0.950 . S
C1402 C1411 1.390 . S
C1403 C1402 1.387 . S
C1403 C1405 1.387 . S
H1404 C1411 0.950 . S
C1405 C1403 1.387 . S
C1405 C1407 1.390 . S
C1405 H1409 0.950 . S
H1406 C1402 0.950 . S
C1407 C1405 1.390 . S
C1407 C1408 1.387 . S
C1407 H1410 0.950 . S
C1408 C1407 1.387 . S
C1408 C1411 1.387 . S
H1409 C1405 0.950 . S
H1410 C1407 0.950 . S
C1411 C1402 1.390 . S
C1411 H1404 0.950 . S
C1411 C1408 1.387 . S
C1412 C1413 1.387 . S
C1412 H1416 0.950 . S
C1412 C1421 1.390 . S
C1413 C1412 1.387 . S
C1413 C1415 1.387 . S
H1414 C1421 0.950 . S
C1415 C1413 1.387 . S
C1415 C1417 1.390 . S
C1415 H1419 0.950 . S
H1416 C1412 0.950 . S
C1417 C1415 1.390 . S
C1417 C1418 1.387 . S
C1417 H1420 0.950 . S
C1418 C1417 1.387 . S
C1418 C1421 1.387 . S
H1419 C1415 0.950 . S
H1420 C1417 0.950 . S
C1421 C1412 1.390 . S
C1421 H1414 0.950 . S
C1421 C1418 1.387 . S
C1422 C1423 1.387 . S
C1422 H1426 0.950 . S
C1422 C1431 1.390 . S
C1423 C1422 1.387 . S
C1423 C1425 1.387 . S
H1424 C1431 0.950 . S
C1425 C1423 1.387 . S
C1425 C1427 1.390 . S
C1425 H1429 0.950 . S
H1426 C1422 0.950 . S
C1427 C1425 1.390 . S
C1427 C1428 1.387 . S
C1427 H1430 0.950 . S
C1428 C1427 1.387 . S
C1428 C1431 1.387 . S
H1429 C1425 0.950 . S
H1430 C1427 0.950 . S
C1431 C1422 1.390 . S
C1431 H1424 0.950 . S
C1431 C1428 1.387 . S
C1432 C1433 1.387 . S
C1432 H1436 0.950 . S
C1432 C1441 1.390 . S
C1433 C1432 1.387 . S
C1433 C1435 1.387 . S
H1434 C1441 0.950 . S
C1435 C1433 1.387 . S
C1435 C1437 1.390 . S
C1435 H1439 0.950 . S
H1436 C1432 0.950 . S
C1437 C1435 1.390 . S
C1437 C1438 1.387 . S
C1437 H1440 0.950 . S
C1438 C1437 1.387 . S
C1438 C1441 1.387 . S
H1439 C1435 0.950 . S
H1440 C1437 0.950 . S
C1441 C1432 1.390 . S
C1441 H1434 0.950 . S
C1441 C1438 1.387 . S
C1442 C1443 1.387 . S
C1442 H1446 0.950 . S
C1442 C1451 1.390 . S
C1443 C1442 1.387 . S
C1443 C1445 1.387 . S
H1444 C1451 0.950 . S
C1445 C1443 1.387 . S
C1445 C1447 1.390 . S
C1445 H1449 0.950 . S
H1446 C1442 0.950 . S
C1447 C1445 1.390 . S
C1447 C1448 1.387 . S
C1447 H1450 0.950 . S
C1448 C1447 1.387 . S
C1448 C1451 1.387 . S
H1449 C1445 0.950 . S
H1450 C1447 0.950 . S
C1451 C1442 1.390 . S
C1451 H1444 0.950 . S
C1451 C1448 1.387 . S
C1452 C1453 1.387 . S
C1452 H1456 0.950 . S
C1452 C1461 1.390 . S
C1453 C1452 1.387 . S
C1453 C1455 1.387 . S
H1454 C1461 0.950 . S
C1455 C1453 1.387 . S
C1455 C1457 1.390 . S
C1455 H1459 0.950 1_556 S
H1456 C1452 0.950 . S
C1457 C1455 1.390 . S
C1457 C1458 1.387 . S
C1457 H1460 0.950 . S
C1458 C1457 1.387 . S
C1458 C1461 1.387 . S
H1459 C1455 0.950 1_554 S
H1460 C1457 0.950 . S
C1461 C1452 1.390 . S
C1461 H1454 0.950 . S
C1461 C1458 1.387 . S
C1462 C1463 1.387 . S
C1462 H1466 0.950 . S
C1462 C1471 1.390 . S
C1463 C1462 1.387 . S
C1463 C1465 1.387 . S
H1464 C1471 0.950 . S
C1465 C1463 1.387 . S
C1465 C1467 1.390 . S
C1465 H1469 0.950 1_556 S
H1466 C1462 0.950 . S
C1467 C1465 1.390 . S
C1467 C1468 1.387 . S
C1467 H1470 0.950 . S
C1468 C1467 1.387 . S
C1468 C1471 1.387 . S
H1469 C1465 0.950 1_554 S
H1470 C1467 0.950 . S
C1471 C1462 1.390 . S
C1471 H1464 0.950 . S
C1471 C1468 1.387 . S
C1472 C1473 1.387 . S
C1472 H1476 0.950 . S
C1472 C1481 1.390 . S
C1473 C1472 1.387 . S
C1473 C1475 1.387 . S
H1474 C1481 0.950 . S
C1475 C1473 1.387 . S
C1475 C1477 1.390 . S
C1475 H1479 0.950 1_556 S
H1476 C1472 0.950 . S
C1477 C1475 1.390 . S
C1477 C1478 1.387 . S
C1477 H1480 0.950 . S
C1478 C1477 1.387 . S
C1478 C1481 1.387 . S
H1479 C1475 0.950 1_554 S
H1480 C1477 0.950 . S
C1481 C1472 1.390 . S
C1481 H1474 0.950 . S
C1481 C1478 1.387 . S
C1482 C1483 1.387 . S
C1482 H1486 0.950 . S
C1482 C1491 1.390 . S
C1483 C1482 1.387 . S
C1483 C1485 1.387 . S
H1484 C1491 0.950 . S
C1485 C1483 1.387 . S
C1485 C1487 1.390 . S
C1485 H1489 0.950 . S
H1486 C1482 0.950 . S
C1487 C1485 1.390 . S
C1487 C1488 1.387 . S
C1487 H1490 0.950 . S
C1488 C1487 1.387 . S
C1488 C1491 1.387 . S
H1489 C1485 0.950 . S
H1490 C1487 0.950 . S
C1491 C1482 1.390 . S
C1491 H1484 0.950 . S
C1491 C1488 1.387 . S
C1492 C1493 1.387 . S
C1492 H1496 0.950 . S
C1492 C1501 1.390 . S
C1493 C1492 1.387 . S
C1493 C1495 1.387 . S
H1494 C1501 0.950 . S
C1495 C1493 1.387 . S
C1495 C1497 1.390 . S
C1495 H1499 0.950 . S
H1496 C1492 0.950 . S
C1497 C1495 1.390 . S
C1497 C1498 1.387 . S
C1497 H1500 0.950 . S
C1498 C1497 1.387 . S
C1498 C1501 1.387 . S
H1499 C1495 0.950 . S
H1500 C1497 0.950 . S
C1501 C1492 1.390 . S
C1501 H1494 0.950 . S
C1501 C1498 1.387 . S
C1502 C1503 1.387 . S
C1502 H1506 0.950 . S
C1502 C1511 1.390 . S
C1503 C1502 1.387 . S
C1503 C1505 1.387 . S
H1504 C1511 0.950 . S
C1505 C1503 1.387 . S
C1505 C1507 1.390 . S
C1505 H1509 0.960 . S
H1506 C1502 0.950 . S
C1507 C1505 1.390 . S
C1507 C1508 1.387 . S
C1507 H1510 0.950 . S
C1508 C1507 1.387 . S
C1508 C1511 1.387 . S
H1509 C1505 0.960 . S
H1510 C1507 0.950 . S
C1511 C1502 1.390 . S
C1511 H1504 0.950 . S
C1511 C1508 1.387 . S
C1512 C1513 1.387 . S
C1512 H1516 0.950 . S
C1512 C1521 1.390 . S
C1513 C1512 1.387 . S
C1513 C1515 1.387 . S
H1514 C1521 0.950 . S
C1515 C1513 1.387 . S
C1515 C1517 1.390 . S
C1515 H1519 0.950 . S
H1516 C1512 0.950 . S
C1517 C1515 1.390 . S
C1517 C1518 1.387 . S
C1517 H1520 0.950 . S
C1518 C1517 1.387 . S
C1518 C1521 1.387 . S
H1519 C1515 0.950 . S
H1520 C1517 0.950 . S
C1521 C1512 1.390 . S
C1521 H1514 0.950 . S
C1521 C1518 1.387 . S
C1522 C1523 1.387 . S
C1522 H1526 0.950 . S
C1522 C1531 1.390 . S
C1523 C1522 1.387 . S
C1523 C1525 1.387 . S
H1524 C1531 0.950 . S
C1525 C1523 1.387 . S
C1525 C1527 1.390 . S
C1525 H1529 0.950 . S
H1526 C1522 0.950 . S
C1527 C1525 1.390 . S
C1527 C1528 1.387 . S
C1527 H1530 0.950 . S
C1528 C1527 1.387 . S
C1528 C1531 1.387 . S
H1529 C1525 0.950 . S
H1530 C1527 0.950 . S
C1531 C1522 1.390 . S
C1531 H1524 0.950 . S
C1531 C1528 1.387 . S
C1532 C1533 1.387 . S
C1532 H1536 0.950 . S
C1532 C1541 1.390 . S
C1533 C1532 1.387 . S
C1533 C1535 1.387 . S
H1534 C1541 0.950 . S
C1535 C1533 1.387 . S
C1535 C1537 1.390 . S
C1535 H1539 0.950 . S
H1536 C1532 0.950 . S
C1537 C1535 1.390 . S
C1537 C1538 1.387 . S
C1537 H1540 0.950 . S
C1538 C1537 1.387 . S
C1538 C1541 1.387 . S
H1539 C1535 0.950 . S
H1540 C1537 0.950 . S
C1541 C1532 1.390 . S
C1541 H1534 0.950 . S
C1541 C1538 1.387 . S
C1542 C1543 1.387 . S
C1542 H1546 0.950 . S
C1542 C1551 1.390 . S
C1543 C1542 1.387 . S
C1543 C1545 1.387 . S
H1544 C1551 0.950 . S
C1545 C1543 1.387 . S
C1545 C1547 1.390 . S
C1545 H1549 0.950 . S
H1546 C1542 0.950 . S
C1547 C1545 1.390 . S
C1547 C1548 1.387 . S
C1547 H1550 0.950 . S
C1548 C1547 1.387 . S
C1548 C1551 1.387 . S
H1549 C1545 0.950 . S
H1550 C1547 0.950 . S
C1551 C1542 1.390 . S
C1551 H1544 0.950 . S
C1551 C1548 1.387 . S
C1552 C1553 1.387 . S
C1552 H1556 0.950 . S
C1552 C1561 1.390 . S
C1553 C1552 1.387 . S
C1553 C1555 1.387 . S
H1554 C1561 0.950 . S
C1555 C1553 1.387 . S
C1555 C1557 1.390 . S
C1555 H1559 0.950 . S
H1556 C1552 0.950 . S
C1557 C1555 1.390 . S
C1557 C1558 1.387 . S
C1557 H1560 0.950 . S
C1558 C1557 1.387 . S
C1558 C1561 1.387 . S
H1559 C1555 0.950 . S
H1560 C1557 0.950 . S
C1561 C1552 1.390 . S
C1561 H1554 0.950 . S
C1561 C1558 1.387 . S
C1562 C1563 1.387 . S
C1562 H1566 0.950 . S
C1562 C1571 1.390 . S
C1563 C1562 1.387 . S
C1563 C1565 1.387 . S
H1564 C1571 0.950 . S
C1565 C1563 1.387 . S
C1565 C1567 1.390 . S
C1565 H1569 0.950 . S
H1566 C1562 0.950 . S
C1567 C1565 1.390 . S
C1567 C1568 1.387 . S
C1567 H1570 0.950 . S
C1568 C1567 1.387 . S
C1568 C1571 1.387 . S
H1569 C1565 0.950 . S
H1570 C1567 0.950 . S
C1571 C1562 1.390 . S
C1571 H1564 0.950 . S
C1571 C1568 1.387 . S
C1572 C1573 1.387 . S
C1572 H1576 0.950 . S
C1572 C1581 1.390 . S
C1573 C1572 1.387 . S
C1573 C1575 1.387 . S
H1574 C1581 0.950 . S
C1575 C1573 1.387 . S
C1575 C1577 1.390 . S
C1575 H1579 0.950 . S
H1576 C1572 0.950 . S
C1577 C1575 1.390 . S
C1577 C1578 1.387 . S
C1577 H1580 0.944 1_455 S
C1578 C1577 1.387 . S
C1578 C1581 1.387 . S
H1579 C1575 0.950 . S
H1580 C1577 0.944 1_655 S
C1581 C1572 1.390 . S
C1581 H1574 0.950 . S
C1581 C1578 1.387 . S
C1582 C1583 1.387 . S
C1582 H1586 0.950 . S
C1582 C1591 1.390 . S
C1583 C1582 1.387 . S
C1583 C1585 1.387 . S
H1584 C1591 0.950 . S
C1585 C1583 1.387 . S
C1585 C1587 1.390 . S
C1585 H1589 0.950 . S
H1586 C1582 0.950 . S
C1587 C1585 1.390 . S
C1587 C1588 1.387 . S
C1587 H1590 0.950 . S
C1588 C1587 1.387 . S
C1588 C1591 1.387 . S
H1589 C1585 0.950 . S
H1590 C1587 0.950 . S
C1591 C1582 1.390 . S
C1591 H1584 0.950 . S
C1591 C1588 1.387 . S
C1592 C1593 1.387 . S
C1592 H1596 0.950 . S
C1592 C1601 1.390 . S
C1593 C1592 1.387 . S
C1593 C1595 1.387 1_565 S
H1594 C1601 0.950 . S
C1595 C1593 1.387 1_545 S
C1595 C1597 1.390 . S
C1595 H1599 0.950 . S
H1596 C1592 0.950 . S
C1597 C1595 1.390 . S
C1597 C1598 1.387 1_545 S
C1597 H1600 0.950 . S
C1598 C1597 1.387 1_565 S
C1598 C1601 1.387 . S
H1599 C1595 0.950 . S
H1600 C1597 0.950 . S
C1601 C1592 1.390 . S
C1601 H1594 0.950 . S
C1601 C1598 1.387 . S
C1602 C1603 1.387 . S
C1602 H1606 0.950 . S
C1602 C1611 1.390 . S
C1603 C1602 1.387 . S
C1603 C1605 1.387 1_565 S
H1604 C1611 0.950 . S
C1605 C1603 1.387 1_545 S
C1605 C1607 1.390 . S
C1605 H1609 0.950 . S
H1606 C1602 0.950 . S
C1607 C1605 1.390 . S
C1607 C1608 1.387 1_545 S
C1607 H1610 0.950 . S
C1608 C1607 1.387 1_565 S
C1608 C1611 1.387 . S
H1609 C1605 0.950 . S
H1610 C1607 0.950 . S
C1611 C1602 1.390 . S
C1611 H1604 0.950 . S
C1611 C1608 1.387 . S
C1612 C1613 1.387 . S
C1612 H1616 0.950 . S
C1612 C1621 1.390 . S
C1613 C1612 1.387 . S
C1613 C1615 1.387 . S
H1614 C1621 0.950 . S
C1615 C1613 1.387 . S
C1615 C1617 1.390 . S
C1615 H1619 0.950 . S
H1616 C1612 0.950 . S
C1617 C1615 1.390 . S
C1617 C1618 1.387 . S
C1617 H1620 0.958 1_455 S
C1618 C1617 1.387 . S
C1618 C1621 1.387 . S
H1619 C1615 0.950 . S
H1620 C1617 0.958 1_655 S
C1621 C1612 1.390 . S
C1621 H1614 0.950 . S
C1621 C1618 1.387 . S
C1622 C1623 1.387 . S
C1622 H1626 0.950 . S
C1622 C1631 1.390 . S
C1623 C1622 1.387 . S
C1623 C1625 1.387 . S
H1624 C1631 0.950 . S
C1625 C1623 1.387 . S
C1625 C1627 1.390 . S
C1625 H1629 0.950 . S
H1626 C1622 0.950 . S
C1627 C1625 1.390 . S
C1627 C1628 1.387 . S
C1627 H1630 0.950 . S
C1628 C1627 1.387 . S
C1628 C1631 1.387 . S
H1629 C1625 0.950 . S
H1630 C1627 0.950 . S
C1631 C1622 1.390 . S
C1631 H1624 0.950 . S
C1631 C1628 1.387 . S
C1632 C1633 1.387 . S
C1632 H1636 0.950 . S
C1632 C1641 1.390 . S
C1633 C1632 1.387 . S
C1633 C1635 1.387 . S
H1634 C1641 0.950 . S
C1635 C1633 1.387 . S
C1635 C1637 1.390 . S
C1635 H1639 0.950 . S
H1636 C1632 0.950 . S
C1637 C1635 1.390 . S
C1637 C1638 1.387 . S
C1637 H1640 0.950 . S
C1638 C1637 1.387 . S
C1638 C1641 1.387 . S
H1639 C1635 0.950 . S
H1640 C1637 0.950 . S
C1641 C1632 1.390 . S
C1641 H1634 0.950 . S
C1641 C1638 1.387 . S
C1642 C1643 1.387 . S
C1642 H1646 0.950 . S
C1642 C1651 1.390 . S
C1643 C1642 1.387 . S
C1643 C1645 1.387 . S
H1644 C1651 0.950 . S
C1645 C1643 1.387 . S
C1645 C1647 1.390 . S
C1645 H1649 0.950 . S
H1646 C1642 0.950 . S
C1647 C1645 1.390 . S
C1647 C1648 1.387 . S
C1647 H1650 0.950 . S
C1648 C1647 1.387 . S
C1648 C1651 1.387 . S
H1649 C1645 0.950 . S
H1650 C1647 0.950 . S
C1651 C1642 1.390 . S
C1651 H1644 0.950 . S
C1651 C1648 1.387 . S
C1652 C1653 1.387 . S
C1652 H1656 0.950 . S
C1652 C1661 1.390 . S
C1653 C1652 1.387 . S
C1653 C1655 1.387 . S
H1654 C1661 0.950 . S
C1655 C1653 1.387 . S
C1655 C1657 1.390 . S
C1655 H1659 0.950 . S
H1656 C1652 0.950 . S
C1657 C1655 1.390 . S
C1657 C1658 1.387 . S
C1657 H1660 0.950 . S
C1658 C1657 1.387 . S
C1658 C1661 1.387 . S
H1659 C1655 0.950 . S
H1660 C1657 0.950 . S
C1661 C1652 1.390 . S
C1661 H1654 0.950 . S
C1661 C1658 1.387 . S
C1662 C1663 1.387 1_565 S
C1662 H1666 0.950 . S
C1662 C1671 1.390 . S
C1663 C1662 1.387 1_545 S
C1663 C1665 1.387 . S
H1664 C1671 0.950 . S
C1665 C1663 1.387 . S
C1665 C1667 1.390 . S
C1665 H1669 0.950 . S
H1666 C1662 0.950 . S
C1667 C1665 1.390 . S
C1667 C1668 1.387 . S
C1667 H1670 0.950 . S
C1668 C1667 1.387 . S
C1668 C1671 1.387 1_545 S
H1669 C1665 0.950 . S
H1670 C1667 0.950 . S
C1671 C1662 1.390 . S
C1671 H1664 0.950 . S
C1671 C1668 1.387 1_565 S
C1672 C1673 1.387 . S
C1672 H1676 0.950 . S
C1672 C1681 1.390 . S
C1673 C1672 1.387 . S
C1673 C1675 1.387 1_655 S
H1674 C1681 0.950 . S
C1675 C1673 1.387 1_455 S
C1675 C1677 1.390 . S
C1675 H1679 0.950 . S
H1676 C1672 0.950 . S
C1677 C1675 1.390 . S
C1677 C1678 1.387 1_455 S
C1677 H1680 0.950 . S
C1678 C1677 1.387 1_655 S
C1678 C1681 1.387 . S
H1679 C1675 0.950 . S
H1680 C1677 0.950 . S
C1681 C1672 1.390 . S
C1681 H1674 0.950 . S
C1681 C1678 1.387 . S
C1682 C1683 1.387 . S
C1682 H1686 0.950 . S
C1682 C1691 1.390 . S
C1683 C1682 1.387 . S
C1683 C1685 1.387 . S
H1684 C1691 0.950 . S
C1685 C1683 1.387 . S
C1685 C1687 1.390 . S
C1685 H1689 0.950 . S
H1686 C1682 0.950 . S
C1687 C1685 1.390 . S
C1687 C1688 1.387 . S
C1687 H1690 0.950 . S
C1688 C1687 1.387 . S
C1688 C1691 1.387 . S
H1689 C1685 0.950 . S
H1690 C1687 0.950 . S
C1691 C1682 1.390 . S
C1691 H1684 0.950 . S
C1691 C1688 1.387 . S
C1692 C1693 1.387 . S
C1692 H1696 0.950 . S
C1692 C1701 1.390 . S
C1693 C1692 1.387 . S
C1693 C1695 1.387 . S
H1694 C1701 0.950 . S
C1695 C1693 1.387 . S
C1695 C1697 1.390 . S
C1695 H1699 0.950 . S
H1696 C1692 0.950 . S
C1697 C1695 1.390 . S
C1697 C1698 1.387 . S
C1697 H1700 0.950 . S
C1698 C1697 1.387 . S
C1698 C1701 1.387 . S
H1699 C1695 0.950 . S
H1700 C1697 0.950 . S
C1701 C1692 1.390 . S
C1701 H1694 0.950 . S
C1701 C1698 1.387 . S
C1702 C1703 1.387 . S
C1702 H1706 0.950 . S
C1702 C1711 1.390 . S
C1703 C1702 1.387 . S
C1703 C1705 1.387 . S
H1704 C1711 0.950 . S
C1705 C1703 1.387 . S
C1705 C1707 1.390 . S
C1705 H1709 0.950 . S
H1706 C1702 0.950 . S
C1707 C1705 1.390 . S
C1707 C1708 1.387 . S
C1707 H1710 0.950 . S
C1708 C1707 1.387 . S
C1708 C1711 1.387 . S
H1709 C1705 0.950 . S
H1710 C1707 0.950 . S
C1711 C1702 1.390 . S
C1711 H1704 0.950 . S
C1711 C1708 1.387 . S
C1712 C1713 1.387 . S
C1712 H1716 0.950 . S
C1712 C1721 1.390 . S
C1713 C1712 1.387 . S
C1713 C1715 1.387 . S
H1714 C1721 0.950 . S
C1715 C1713 1.387 . S
C1715 C1717 1.390 . S
C1715 H1719 0.950 . S
H1716 C1712 0.950 . S
C1717 C1715 1.390 . S
C1717 C1718 1.387 . S
C1717 H1720 0.950 . S
C1718 C1717 1.387 . S
C1718 C1721 1.387 . S
H1719 C1715 0.950 . S
H1720 C1717 0.950 . S
C1721 C1712 1.390 . S
C1721 H1714 0.950 . S
C1721 C1718 1.387 . S
C1722 C1723 1.387 . S
C1722 H1726 0.950 . S
C1722 C1731 1.390 . S
C1723 C1722 1.387 . S
C1723 C1725 1.387 . S
H1724 C1731 0.950 . S
C1725 C1723 1.387 . S
C1725 C1727 1.390 . S
C1725 H1729 0.950 . S
H1726 C1722 0.950 . S
C1727 C1725 1.390 . S
C1727 C1728 1.387 . S
C1727 H1730 0.950 . S
C1728 C1727 1.387 . S
C1728 C1731 1.387 . S
H1729 C1725 0.950 . S
H1730 C1727 0.950 . S
C1731 C1722 1.390 . S
C1731 H1724 0.950 . S
C1731 C1728 1.387 . S
C1732 C1733 1.387 . S
C1732 H1736 0.950 . S
C1732 C1741 1.390 . S
C1733 C1732 1.387 . S
C1733 C1735 1.387 . S
H1734 C1741 0.950 . S
C1735 C1733 1.387 . S
C1735 C1737 1.390 . S
C1735 H1739 0.950 . S
H1736 C1732 0.950 . S
C1737 C1735 1.390 . S
C1737 C1738 1.387 . S
C1737 H1740 0.950 . S
C1738 C1737 1.387 . S
C1738 C1741 1.387 . S
H1739 C1735 0.950 . S
H1740 C1737 0.950 . S
C1741 C1732 1.390 . S
C1741 H1734 0.950 . S
C1741 C1738 1.387 . S
C1742 C1743 1.387 . S
C1742 H1746 0.950 . S
C1742 C1751 1.390 . S
C1743 C1742 1.387 . S
C1743 C1745 1.387 . S
H1744 C1751 0.950 . S
C1745 C1743 1.387 . S
C1745 C1747 1.390 . S
C1745 H1749 0.950 . S
H1746 C1742 0.950 . S
C1747 C1745 1.390 . S
C1747 C1748 1.387 . S
C1747 H1750 0.950 . S
C1748 C1747 1.387 . S
C1748 C1751 1.387 . S
H1749 C1745 0.950 . S
H1750 C1747 0.950 . S
C1751 C1742 1.390 . S
C1751 H1744 0.950 . S
C1751 C1748 1.387 . S
C1752 C1753 1.387 . S
C1752 H1756 0.950 . S
C1752 C1761 1.390 . S
C1753 C1752 1.387 . S
C1753 C1755 1.387 . S
H1754 C1761 0.950 . S
C1755 C1753 1.387 . S
C1755 C1757 1.390 . S
C1755 H1759 0.950 . S
H1756 C1752 0.950 . S
C1757 C1755 1.390 . S
C1757 C1758 1.387 . S
C1757 H1760 0.950 . S
C1758 C1757 1.387 . S
C1758 C1761 1.387 . S
H1759 C1755 0.950 . S
H1760 C1757 0.950 . S
C1761 C1752 1.390 . S
C1761 H1754 0.950 . S
C1761 C1758 1.387 . S
C1762 C1763 1.387 . S
C1762 H1766 0.950 . S
C1762 C1771 1.390 . S
C1763 C1762 1.387 . S
C1763 C1765 1.387 . S
H1764 C1771 0.950 . S
C1765 C1763 1.387 . S
C1765 C1767 1.390 . S
C1765 H1769 0.950 . S
H1766 C1762 0.950 . S
C1767 C1765 1.390 . S
C1767 C1768 1.387 . S
C1767 H1770 0.950 . S
C1768 C1767 1.387 . S
C1768 C1771 1.387 . S
H1769 C1765 0.950 . S
H1770 C1767 0.950 . S
C1771 C1762 1.390 . S
C1771 H1764 0.950 . S
C1771 C1768 1.387 . S
C1772 C1773 1.387 . S
C1772 H1776 0.950 . S
C1772 C1781 1.390 . S
C1773 C1772 1.387 . S
C1773 C1775 1.387 1_545 S
H1774 C1781 0.950 . S
C1775 C1773 1.387 1_565 S
C1775 C1777 1.390 . S
C1775 H1779 0.950 . S
H1776 C1772 0.950 . S
C1777 C1775 1.390 . S
C1777 C1778 1.387 1_565 S
C1777 H1780 0.950 . S
C1778 C1777 1.387 1_545 S
C1778 C1781 1.387 . S
H1779 C1775 0.950 . S
H1780 C1777 0.950 . S
C1781 C1772 1.390 . S
C1781 H1774 0.950 . S
C1781 C1778 1.387 . S
C1063 C8 1.417 . S
C1068 C670 1.496 . S
C1073 C18 1.503 . S
C1078 C716 1.531 . S
C1088 C748 1.524 . S
C1083 C31 1.413 . S
C1093 C34 1.419 . S
C1098 C801 1.501 . S
C1103 C5 1.415 . S
C1108 C847 1.518 . S
C1113 C21 1.525 . S
C1118 C886 1.559 . S
C1123 C47 1.415 . S
C1128 C840 1.497 . S
C1138 C893 1.537 . S
C1133 C57 1.501 . S
C1148 C794 1.527 . S
C1143 C70 1.430 . S
C1153 C73 1.406 . S
C1158 C755 1.492 . S
C1168 C649 1.519 . S
C1163 C44 1.425 . S
C1173 C60 1.522 . S
C1178 C695 1.545 . S
C1183 C86 1.598 . S
C1188 C925 1.623 . S
C1193 C96 1.575 . S
C1198 C992 1.568 . S
C1208 C1038 1.605 . S
C1203 C109 1.625 . S
C1213 C112 1.608 . S
C1218 C249 1.612 . S
C1223 C83 1.619 . S
C1228 C295 1.614 . S
C1233 C99 1.596 . S
C1238 C341 1.594 . S
C1243 C125 1.530 . S
C1248 C288 1.542 . S
C1253 C135 1.563 . S
C1258 C334 1.572 . S
C1268 C242 1.614 . S
C1263 C148 1.618 . S
C1278 C1017 1.673 . S
C1273 C151 1.674 . S
C1288 C946 1.607 . S
C1283 C122 1.612 . S
C1298 C971 1.615 . S
C1293 C138 1.618 . S
C1303 C164 1.530 . S
C1308 C373 1.556 . S
C1313 C174 1.555 . S
C1318 C426 1.575 . S
C1323 C187 1.612 . S
C1328 C472 1.623 . S
C1333 C190 1.674 . S
C1338 C518 1.688 . S
C1348 C571 1.606 . S
C1343 C161 1.626 . S
C1358 C617 1.620 . S
C1353 C177 1.623 . S
C1368 C564 1.618 . S
C1363 C203 1.607 . S
C1378 C610 1.578 . S
C1373 C213 1.585 . S
C1383 C226 1.621 . S
C1388 C525 1.617 . S
C1398 C479 1.621 . S
C1393 C229 1.602 . S
C1403 C200 1.613 . S
C1408 C394 1.624 . S
C1418 C433 1.612 . S
C1413 C216 1.599 . S
C1428 C256 1.594 . S
C1423 C0 1.503 . S
C1433 C23 1.550 . S
C1438 C302 1.509 . S
C1448 C348 1.597 . S
C1443 C36 1.630 . S
C1458 C380 1.602 . S
C1453 C26 1.525 . S
C1468 C419 1.558 . S
C1463 C10 1.619 . S
C1478 C465 1.520 . S
C1473 C13 1.475 . S
C1483 C39 1.505 . S
C1488 C486 1.578 . S
C1493 C62 1.536 . S
C1498 C387 1.478 . S
C1503 C75 1.614 . S
C1508 C440 1.562 . S
C1513 C65 1.543 . S
C1518 C281 1.636 . S
C1528 C327 1.585 . S
C1523 C49 1.626 . S
C1533 C52 1.476 . S
C1538 C235 1.544 . S
C1548 C511 1.524 . S
C1543 C78 1.475 . S
C1553 C101 1.617 . S
C1558 C578 1.576 . S
C1563 C114 1.620 . S
C1568 C624 1.586 . S
C1578 C663 1.352 . S
C1573 C104 1.319 . S
C1583 C88 1.530 . S
C1588 C709 1.497 . S
C1593 C91 1.264 . S
C1598 C741 1.281 . S
C1603 C117 1.292 . S
C1608 C762 1.306 . S
C1613 C140 1.311 . S
C1618 C656 1.311 . S
C1628 C702 1.511 . S
C1623 C153 1.535 . S
C1633 C143 1.496 . S
C1638 C557 1.567 . S
C1643 C127 1.624 . S
C1648 C603 1.582 . S
C1658 C532 1.575 . S
C1653 C130 1.549 . S
C1668 C808 1.326 . S
C1663 C156 1.297 . S
C1673 C179 1.305 . S
C1678 C854 1.307 . S
C1683 C192 1.532 . S
C1688 C879 1.493 . S
C1698 C932 1.531 . S
C1693 C182 1.482 . S
C1708 C985 1.582 . S
C1703 C166 1.624 . S
C1713 C169 1.551 . S
C1718 C1031 1.599 . S
C1723 C195 1.478 . S
C1728 C1024 1.548 . S
C1733 C218 1.612 . S
C1738 C939 1.554 . S
C1748 C978 1.571 . S
C1743 C231 1.603 . S
C1758 C833 1.340 . S
C1753 C221 1.312 . S
C1768 C900 1.488 . S
C1763 C205 1.537 . S
C1773 C208 1.273 . S
C1778 C787 1.301 . S
