# Generated by pormake.
# Topology rtl, (3,6)-cn, num edge types: 1
# Building blocks:
#     Node 0, Type 0, BuildingBlock: CUQRIR_clean_linker_1, # of connection points: 3
#     Node 1, Type 0, BuildingBlock: CUQRIR_clean_linker_1, # of connection points: 3
#     Node 2, Type 0, BuildingBlock: CUQRIR_clean_linker_1, # of connection points: 3
#     Node 3, Type 0, BuildingBlock: CUQRIR_clean_linker_1, # of connection points: 3
#     Node 4, Type 1, BuildingBlock: VOLQOD_clean_sbu_1, # of connection points: 6
#     Node 5, Type 1, BuildingBlock: VOLQOD_clean_sbu_1, # of connection points: 6
#     Edge 6, Type (0, 1), BuildingBlock: FUNLAD_clean_linker_0, # of connection points: 2
#     Edge 7, Type (0, 1), BuildingBlock: FUNLAD_clean_linker_0, # of connection points: 2
#     Edge 8, Type (0, 1), BuildingBlock: FUNLAD_clean_linker_0, # of connection points: 2
#     Edge 9, Type (0, 1), BuildingBlock: FUNLAD_clean_linker_0, # of connection points: 2
#     Edge 10, Type (0, 1), BuildingBlock: FUNLAD_clean_linker_0, # of connection points: 2
#     Edge 11, Type (0, 1), BuildingBlock: FUNLAD_clean_linker_0, # of connection points: 2
#     Edge 12, Type (0, 1), BuildingBlock: FUNLAD_clean_linker_0, # of connection points: 2
#     Edge 13, Type (0, 1), BuildingBlock: FUNLAD_clean_linker_0, # of connection points: 2
#     Edge 14, Type (0, 1), BuildingBlock: FUNLAD_clean_linker_0, # of connection points: 2
#     Edge 15, Type (0, 1), BuildingBlock: FUNLAD_clean_linker_0, # of connection points: 2
#     Edge 16, Type (0, 1), BuildingBlock: FUNLAD_clean_linker_0, # of connection points: 2
#     Edge 17, Type (0, 1), BuildingBlock: FUNLAD_clean_linker_0, # of connection points: 2
# Relax obj value: 0.040
# Max RMSD: 0.143
# Mean RMSD: 0.105
data_MOF--net-rtl--node1-VOLQOD_clean_sbu_1--node2-CUQRIR_clean_linker_1--edge1-FUNLAD_clean_linker_0
_symmetry_space_group_name_H-M    P1
_symmetry_Int_Tables_number       1
_symmetry_cell_setting            triclinic
loop_
_symmetry_equiv_pos_as_xyz
'x, y, z'
_cell_length_a     41.5677
_cell_length_b     42.138563
_cell_length_c     23.586191
_cell_angle_alpha  89.916148
_cell_angle_beta   90.364215
_cell_angle_gamma 89.792198
loop_
_atom_site_label
_atom_site_type_symbol
_atom_site_fract_x
_atom_site_fract_y
_atom_site_fract_z
_atom_type_partial_charge
C0 C 0.24064 0.7971 0.96422 0.0
N1 N 0.21621 0.81714 0.97664 0.0
N2 N 0.25075 0.78171 0.01149 0.0
C3 C 0.2538 0.79187 0.90572 0.0
C4 C 0.23142 0.79276 0.05295 0.0
N5 N 0.21019 0.81415 0.03164 0.0
C6 C 0.23311 0.78233 0.11392 0.0
H7 H 0.23376 0.78992 0.87462 0.0
H8 H 0.26913 0.77033 0.90354 0.0
H9 H 0.26853 0.81267 0.89358 0.0
H10 H 0.25762 0.77401 0.12548 0.0
H11 H 0.21621 0.76234 0.12025 0.0
H12 H 0.22607 0.80199 0.14258 0.0
C13 C 0.7256 0.69871 0.55263 0.0
N14 N 0.70362 0.67674 0.53707 0.0
N15 N 0.73909 0.71208 0.50631 0.0
C16 C 0.73566 0.70533 0.61284 0.0
C17 C 0.72461 0.69735 0.46204 0.0
N18 N 0.70318 0.67568 0.48079 0.0
C19 C 0.72955 0.70591 0.40077 0.0
H20 H 0.72013 0.72442 0.63016 0.0
H21 H 0.76104 0.71332 0.61496 0.0
H22 H 0.73284 0.68392 0.63975 0.0
H23 H 0.7485 0.69032 0.38291 0.0
H24 H 0.73739 0.73093 0.3964 0.0
H25 H 0.70712 0.70241 0.37585 0.0
C26 C 0.79679 0.21583 0.04358 0.0
N27 N 0.81837 0.19473 0.02307 0.0
N28 N 0.78358 0.23304 0.00084 0.0
C29 C 0.79036 0.22122 0.10554 0.0
C30 C 0.79792 0.2217 0.95361 0.0
N31 N 0.81939 0.19861 0.96717 0.0
C32 C 0.78862 0.23106 0.89408 0.0
H33 H 0.77065 0.20529 0.11914 0.0
H34 H 0.78289 0.24612 0.11347 0.0
H35 H 0.81202 0.21571 0.13153 0.0
H36 H 0.80444 0.25062 0.87982 0.0
H37 H 0.76332 0.23951 0.89216 0.0
H38 H 0.79147 0.2108 0.86452 0.0
C39 C 0.27282 0.28578 0.45695 0.0
N40 N 0.29508 0.30725 0.47386 0.0
N41 N 0.25965 0.27128 0.50243 0.0
C42 C 0.26425 0.27866 0.39623 0.0
C43 C 0.27477 0.2844 0.54754 0.0
N44 N 0.29646 0.30611 0.53015 0.0
C45 C 0.26871 0.27573 0.60845 0.0
H46 H 0.24576 0.29591 0.38162 0.0
H47 H 0.25418 0.25448 0.39152 0.0
H48 H 0.28566 0.28104 0.3687 0.0
H49 H 0.24442 0.26554 0.61427 0.0
H50 H 0.27145 0.29681 0.63618 0.0
H51 H 0.28668 0.25767 0.62196 0.0
O52 O 0.92883 0.96048 0.50607 0.0
Zn53 Zn 0.95512 0.00061 0.50413 0.0
O54 O 0.00114 -0.00947 0.50115 0.0
Zn55 Zn 0.02301 0.00927 0.56652 0.0
Zn56 Zn 0.0077 0.94447 0.50238 0.0
Zn57 Zn 0.01908 0.00798 0.43148 0.0
O58 O 0.05508 0.04231 0.5424 0.0
O59 O 0.0532 0.04029 0.4484 0.0
O60 O 0.9444 0.02582 0.57433 0.0
O61 O 0.99139 0.02976 0.61915 0.0
O62 O 0.0465 0.97623 0.61228 0.0
O63 O 0.03417 0.93076 0.57028 0.0
O64 O 0.03077 0.9295 0.43219 0.0
O65 O 0.94079 0.02576 0.43551 0.0
O66 O 0.03911 0.97394 0.38398 0.0
O67 O 0.98506 0.02935 0.38384 0.0
C68 C 0.93611 0.93109 0.50686 0.0
C69 C 0.06475 0.05171 0.4941 0.0
C70 C 0.04829 0.94611 0.60966 0.0
C71 C 0.96124 0.03494 0.61656 0.0
C72 C 0.04185 0.94398 0.38911 0.0
C73 C 0.95524 0.03493 0.39095 0.0
O74 O 0.96531 0.92184 0.50587 0.0
O75 O 0.56966 0.45605 0.00615 0.0
Zn76 Zn 0.54592 0.49761 0.0029 0.0
O77 O 0.49947 0.49101 0.00584 0.0
Zn78 Zn 0.47955 0.50914 0.93793 0.0
Zn79 Zn 0.49044 0.44562 0.00778 0.0
Zn80 Zn 0.482 0.51135 0.07396 0.0
O81 O 0.44713 0.54225 0.9586 0.0
O82 O 0.4503 0.54587 0.0524 0.0
O83 O 0.559 0.52095 0.93185 0.0
O84 O 0.51233 0.53026 0.88865 0.0
O85 O 0.45736 0.47602 0.8904 0.0
O86 O 0.46671 0.43151 0.938 0.0
O87 O 0.46252 0.43474 0.07399 0.0
O88 O 0.56103 0.52288 0.07007 0.0
O89 O 0.45815 0.47969 0.12249 0.0
O90 O 0.51725 0.53109 0.12151 0.0
C91 C 0.56081 0.42728 0.01104 0.0
C92 C 0.43843 0.55487 0.00505 0.0
C93 C 0.4547 0.44608 0.89555 0.0
C94 C 0.54281 0.53279 0.89089 0.0
C95 C 0.45195 0.45031 0.1162 0.0
C96 C 0.54742 0.53409 0.11395 0.0
O97 O 0.53117 0.41988 0.01303 0.0
C98 C 0.24308 0.21621 0.48558 0.0
C99 C 0.23553 0.24708 0.503 0.0
C100 C 0.2199 0.19234 0.48797 0.0
C101 C 0.18875 0.19911 0.50796 0.0
C102 C 0.18146 0.23009 0.52573 0.0
C103 C 0.20462 0.25395 0.52288 0.0
C104 C 0.1638 0.17422 0.51302 0.0
C105 C 0.16267 0.14853 0.47923 0.0
C106 C 0.13744 0.12392 0.48419 0.0
C107 C 0.12817 0.10699 0.43566 0.0
C108 C 0.10446 0.08367 0.43879 0.0
C109 C 0.08989 0.07642 0.49085 0.0
H110 H 0.13043 0.12837 0.57507 0.0
C111 C 0.09964 0.09295 0.53971 0.0
C112 C 0.12316 0.11647 0.53645 0.0
H113 H 0.08907 0.08781 0.58055 0.0
H114 H 0.26707 0.21061 0.47089 0.0
H115 H 0.22671 0.16855 0.47553 0.0
H116 H 0.15778 0.23585 0.54172 0.0
H117 H 0.19864 0.27774 0.5367 0.0
H118 H 0.14484 0.1781 0.54377 0.0
H119 H 0.17964 0.14623 0.44464 0.0
H120 H 0.13906 0.11207 0.39503 0.0
H121 H 0.0977 0.07123 0.40039 0.0
C122 C 0.26601 0.72631 0.99503 0.0
C123 C 0.27377 0.75646 0.01565 0.0
C124 C 0.28808 0.70141 -0.00015 0.0
C125 C 0.31844 0.70645 0.02514 0.0
C126 C 0.32583 0.73668 0.04653 0.0
C127 C 0.30368 0.76156 0.04157 0.0
C128 C 0.34255 0.68058 0.03097 0.0
C129 C 0.34387 0.65582 0.99505 0.0
C130 C 0.36833 0.63021 -0.00071 0.0
C131 C 0.37621 0.61327 0.95016 0.0
C132 C 0.39897 0.5889 0.9521 0.0
C133 C 0.41414 0.58062 0.00352 0.0
H134 H 0.37698 0.63362 0.09011 0.0
C135 C 0.40587 0.59722 0.05302 0.0
C136 C 0.38316 0.62176 0.05099 0.0
H137 H 0.41692 0.59129 0.09339 0.0
H138 H 0.24271 0.72211 0.97569 0.0
H139 H 0.281 0.67824 0.98466 0.0
H140 H 0.34887 0.74111 0.06667 0.0
H141 H 0.30973 0.78479 0.05798 0.0
H142 H 0.36078 0.68308 0.06382 0.0
H143 H 0.3276 0.65507 0.95887 0.0
H144 H 0.36491 0.6191 0.90991 0.0
H145 H 0.40459 0.57651 0.91317 0.0
C146 C 0.75944 0.7646 0.53441 0.0
C147 C 0.76346 0.73615 0.50455 0.0
C148 C 0.78331 0.78784 0.53336 0.0
C149 C 0.81158 0.78311 0.50174 0.0
C150 C 0.81551 0.75444 0.4722 0.0
C151 C 0.79166 0.7312 0.4735 0.0
C152 C 0.83801 0.80678 0.50007 0.0
C153 C 0.83421 0.8377 0.51307 0.0
C154 C 0.86088 0.8611 0.51143 0.0
C155 C 0.85334 0.89349 0.50637 0.0
C156 C 0.87769 0.91626 0.50494 0.0
C157 C 0.91019 0.9071 0.50882 0.0
H158 H 0.90031 0.82745 0.52253 0.0
C159 C 0.91773 0.87472 0.51476 0.0
C160 C 0.8934 0.85199 0.5164 0.0
H161 H 0.94248 0.86684 0.51861 0.0
H162 H 0.73778 0.76877 0.55858 0.0
H163 H 0.77961 0.80907 0.55819 0.0
H164 H 0.83713 0.74996 0.44802 0.0
H165 H 0.79533 0.70918 0.45081 0.0
H166 H 0.86118 0.79839 0.48522 0.0
H167 H 0.81045 0.84681 0.52289 0.0
H168 H 0.82851 0.90123 0.50308 0.0
H169 H 0.871 0.94101 0.50055 0.0
C170 C 0.73088 0.25255 0.03311 0.0
C171 C 0.75984 0.25778 0.00453 0.0
C172 C 0.70758 0.27645 0.03584 0.0
C173 C 0.71273 0.30595 0.00923 0.0
C174 C 0.74206 0.31118 0.98153 0.0
C175 C 0.76537 0.28732 0.97914 0.0
C176 C 0.68861 0.33207 0.00997 0.0
C177 C 0.65713 0.3278 0.02091 0.0
C178 C 0.63298 0.3539 0.01936 0.0
C179 C 0.60033 0.34613 0.01307 0.0
C180 C 0.57684 0.36989 0.01064 0.0
C181 C 0.58553 0.40201 0.01449 0.0
H182 H 0.66622 0.39317 0.03186 0.0
C183 C 0.61812 0.40981 0.02185 0.0
C184 C 0.64157 0.38606 0.02472 0.0
H185 H 0.62558 0.43431 0.0259 0.0
H186 H 0.72626 0.22984 0.05293 0.0
H187 H 0.68586 0.27163 0.05926 0.0
H188 H 0.74689 0.33374 0.96123 0.0
H189 H 0.78781 0.29188 0.95758 0.0
H190 H 0.6971 0.35541 0.99783 0.0
H191 H 0.64807 0.30405 0.02824 0.0
H192 H 0.59296 0.32157 0.00943 0.0
H193 H 0.55192 0.36304 0.00518 0.0
C194 C 0.16349 0.81495 0.0953 0.0
C195 C 0.18605 0.8313 0.06253 0.0
C196 C 0.14158 0.8316 0.1287 0.0
C197 C 0.14194 0.865 0.12981 0.0
C198 C 0.16349 0.88127 0.09463 0.0
C199 C 0.18551 0.86454 0.06148 0.0
C200 C 0.12065 0.88358 0.16768 0.0
C201 C 0.11091 0.87266 0.21851 0.0
C202 C 0.09209 0.89161 0.26 0.0
C203 C 0.07773 0.87576 0.30571 0.0
C204 C 0.06115 0.89263 0.34737 0.0
C205 C 0.05863 0.92585 0.34435 0.0
H206 H 0.10082 0.93839 0.22367 0.0
C207 C 0.07284 0.94174 0.29849 0.0
C208 C 0.08948 0.92491 0.25695 0.0
H209 H 0.07157 0.96735 0.295 0.0
H210 H 0.16305 0.78926 0.09531 0.0
H211 H 0.12445 0.81825 0.15344 0.0
H212 H 0.16401 0.90697 0.09421 0.0
H213 H 0.20273 0.87749 0.03623 0.0
H214 H 0.11457 0.90747 0.15418 0.0
H215 H 0.11768 0.8488 0.23148 0.0
H216 H 0.07951 0.85018 0.30947 0.0
H217 H 0.05051 0.8796 0.38211 0.0
C218 C 0.66507 0.6706 0.61483 0.0
C219 C 0.68524 0.65689 0.57425 0.0
C220 C 0.64826 0.65149 0.6528 0.0
C221 C 0.65139 0.61823 0.65072 0.0
C222 C 0.67164 0.60461 0.60991 0.0
C223 C 0.68824 0.62379 0.57162 0.0
C224 C 0.63518 0.5974 0.69241 0.0
C225 C 0.60692 0.60507 0.71644 0.0
C226 C 0.5911 0.58512 0.75989 0.0
C227 C 0.55753 0.58651 0.76488 0.0
C228 C 0.54186 0.56912 0.8068 0.0
C229 C 0.55952 0.55036 0.84541 0.0
H230 H 0.63485 0.56529 0.79661 0.0
C231 C 0.59319 0.54909 0.84064 0.0
C232 C 0.60885 0.56624 0.79823 0.0
H233 H 0.60751 0.53497 0.86983 0.0
H234 H 0.66262 0.69615 0.61732 0.0
H235 H 0.63361 0.66291 0.68464 0.0
H236 H 0.67469 0.57909 0.60776 0.0
H237 H 0.70399 0.61293 0.54076 0.0
H238 H 0.64638 0.57467 0.70205 0.0
H239 H 0.59416 0.62625 0.70241 0.0
H240 H 0.54335 0.60112 0.73622 0.0
H241 H 0.5159 0.5708 0.80945 0.0
C242 C 0.82215 0.15067 0.09104 0.0
C243 C 0.83735 0.17275 0.05588 0.0
C244 C 0.84027 0.13102 0.12673 0.0
C245 C 0.87406 0.13348 0.12846 0.0
C246 C 0.88923 0.15467 0.09115 0.0
C247 C 0.871 0.17421 0.05519 0.0
C248 C 0.89415 0.11457 0.16869 0.0
C249 C 0.88282 0.10321 0.21823 0.0
C250 C 0.90234 0.08549 0.26116 0.0
C251 C 0.88816 0.07861 0.31369 0.0
C252 C 0.90523 0.06219 0.35574 0.0
C253 C 0.93705 0.05228 0.34636 0.0
H254 H 0.94606 0.07926 0.21167 0.0
C255 C 0.95127 0.05895 0.29377 0.0
C256 C 0.93413 0.0752 0.25153 0.0
H257 H 0.97567 0.05141 0.28493 0.0
H258 H 0.79617 0.14892 0.09111 0.0
H259 H 0.82762 0.11406 0.15274 0.0
H260 H 0.9152 0.15675 0.09095 0.0
H261 H 0.88303 0.19115 0.02811 0.0
H262 H 0.91933 0.11185 0.1582 0.0
H263 H 0.85805 0.10818 0.22958 0.0
H264 H 0.86371 0.08604 0.32245 0.0
H265 H 0.89348 0.05744 0.3957 0.0
C266 C 0.33832 0.31068 0.60369 0.0
C267 C 0.3168 0.3252 0.56573 0.0
C268 C 0.35753 0.32907 0.63942 0.0
C269 C 0.35533 0.36242 0.63799 0.0
C270 C 0.33452 0.37687 0.59845 0.0
C271 C 0.31527 0.35838 0.56276 0.0
C272 C 0.37454 0.38274 0.67675 0.0
C273 C 0.38387 0.37304 0.72881 0.0
C274 C 0.40253 0.39268 0.76962 0.0
C275 C 0.41708 0.37741 0.81614 0.0
C276 C 0.43419 0.39468 0.85666 0.0
C277 C 0.43705 0.42779 0.85182 0.0
H278 H 0.39389 0.43887 0.73055 0.0
C279 C 0.4225 0.44319 0.80532 0.0
C280 C 0.40533 0.42588 0.76472 0.0
H281 H 0.42405 0.4687 0.8005 0.0
H282 H 0.34035 0.28507 0.60533 0.0
H283 H 0.37426 0.31704 0.66752 0.0
H284 H 0.33266 0.40249 0.59598 0.0
H285 H 0.29883 0.36989 0.53338 0.0
H286 H 0.38006 0.4065 0.66217 0.0
H287 H 0.37748 0.34936 0.7429 0.0
H288 H 0.41521 0.35192 0.82126 0.0
H289 H 0.44504 0.38201 0.89194 0.0
C290 C 0.69552 0.63663 0.40452 0.0
C291 C 0.68245 0.65617 0.44656 0.0
C292 C 0.67543 0.61919 0.36871 0.0
C293 C 0.64175 0.62117 0.37417 0.0
C294 C 0.62882 0.63973 0.41795 0.0
C295 C 0.649 0.65724 0.45368 0.0
C296 C 0.61957 0.60421 0.33503 0.0
C297 C 0.62724 0.59784 0.28075 0.0
C298 C 0.60579 0.58138 0.23958 0.0
C299 C 0.61951 0.56923 0.18987 0.0
C300 C 0.60059 0.55395 0.14927 0.0
C301 C 0.56729 0.55057 0.15715 0.0
H302 H 0.56052 0.58796 0.2842 0.0
C303 C 0.55338 0.56295 0.20665 0.0
C304 C 0.57237 0.57826 0.2474 0.0
H305 H 0.52776 0.56094 0.21392 0.0
H306 H 0.72134 0.63504 0.39935 0.0
H307 H 0.68641 0.60412 0.33712 0.0
H308 H 0.60302 0.64137 0.42354 0.0
H309 H 0.63853 0.67225 0.48594 0.0
H310 H 0.59611 0.5979 0.35131 0.0
H311 H 0.65063 0.60499 0.26508 0.0
H312 H 0.64511 0.57144 0.18242 0.0
H313 H 0.61217 0.54479 0.11165 0.0
C314 C 0.838 0.14734 0.92859 0.0
C315 C 0.83874 0.18062 0.92823 0.0
C316 C 0.85461 0.13007 0.88742 0.0
C317 C 0.87194 0.14594 0.84493 0.0
C318 C 0.87307 0.17918 0.84536 0.0
C319 C 0.85698 0.19635 0.88708 0.0
C320 C 0.88719 0.12865 0.79751 0.0
C321 C 0.90058 0.09976 0.80339 0.0
C322 C 0.91574 0.08318 0.75509 0.0
C323 C 0.94426 0.06599 0.76392 0.0
C324 C 0.95926 0.05064 0.7187 0.0
C325 C 0.94546 0.05146 0.66412 0.0
H326 H 0.87942 0.09649 0.69289 0.0
C327 C 0.91642 0.068 0.65562 0.0
C328 C 0.90182 0.08394 0.7006 0.0
H329 H 0.90519 0.06893 0.61408 0.0
H330 H 0.82364 0.13479 0.95944 0.0
H331 H 0.85272 0.10445 0.88751 0.0
H332 H 0.88625 0.19192 0.81308 0.0
H333 H 0.85815 0.22201 0.88659 0.0
H334 H 0.88868 0.14079 0.75689 0.0
H335 H 0.90225 0.08883 0.84508 0.0
H336 H 0.95524 0.06489 0.80567 0.0
H337 H 0.98146 0.0378 0.72663 0.0
C338 C 0.30092 0.34617 0.39646 0.0
C339 C 0.31493 0.32672 0.4382 0.0
C340 C 0.3202 0.36461 0.36115 0.0
C341 C 0.35386 0.36416 0.36754 0.0
C342 C 0.36777 0.34547 0.41048 0.0
C343 C 0.34849 0.32658 0.44507 0.0
C344 C 0.37492 0.38295 0.3299 0.0
C345 C 0.36859 0.38628 0.27422 0.0
C346 C 0.39054 0.40293 0.23505 0.0
C347 C 0.39373 0.39156 0.17955 0.0
C348 C 0.41413 0.40668 0.14138 0.0
C349 C 0.43112 0.43402 0.15752 0.0
H350 H 0.40504 0.43991 0.29373 0.0
C351 C 0.4275 0.44579 0.21286 0.0
C352 C 0.40757 0.43023 0.25149 0.0
H353 H 0.44021 0.46688 0.22639 0.0
H354 H 0.27503 0.34718 0.39145 0.0
H355 H 0.30873 0.37946 0.32937 0.0
H356 H 0.39364 0.34487 0.41634 0.0
H357 H 0.35977 0.31157 0.47679 0.0
H358 H 0.39735 0.39194 0.34737 0.0
H359 H 0.34791 0.3743 0.2558 0.0
H360 H 0.38065 0.3707 0.16585 0.0
H361 H 0.41615 0.39722 0.09886 0.0
C362 C 0.16475 0.83021 0.92999 0.0
C363 C 0.19775 0.83574 0.93697 0.0
C364 C 0.14701 0.84741 0.88979 0.0
C365 C 0.16214 0.87044 0.85591 0.0
C366 C 0.19502 0.8765 0.86435 0.0
C367 C 0.21274 0.85912 0.90428 0.0
C368 C 0.14428 0.88896 0.81229 0.0
C369 C 0.11843 0.87757 0.78433 0.0
C370 C 0.10108 0.89571 0.7395 0.0
C371 C 0.08396 0.87907 0.69763 0.0
C372 C 0.0671 0.89534 0.65507 0.0
C373 C 0.06669 0.9287 0.65391 0.0
H374 H 0.11251 0.94281 0.77115 0.0
C375 C 0.08355 0.94537 0.69626 0.0
C376 C 0.10049 0.92909 0.73863 0.0
H377 H 0.08353 0.97107 0.697 0.0
H378 H 0.15289 0.81229 0.9552 0.0
H379 H 0.12151 0.84279 0.88578 0.0
H380 H 0.20714 0.89438 0.83937 0.0
H381 H 0.23813 0.86391 0.90985 0.0
H382 H 0.15409 0.91187 0.80048 0.0
H383 H 0.11064 0.85339 0.79219 0.0
H384 H 0.08377 0.85335 0.69761 0.0
H385 H 0.05422 0.88174 0.62336 0.0
loop_
_geom_bond_atom_site_label_1
_geom_bond_atom_site_label_2
_geom_bond_distance
_geom_bond_site_symmetry_2
_ccdc_geom_bond_type
C0 N1 1.317 . S
C0 N2 1.348 1_556 S
C0 C3 1.485 . S
N1 C0 1.317 . S
N1 N5 1.370 1_556 S
N2 C0 1.348 1_554 S
N2 C4 1.346 . S
C3 C0 1.485 . S
C3 H7 0.960 . S
C3 H8 0.961 . S
C3 H9 0.960 . S
C4 N2 1.346 . S
C4 N5 1.307 . S
C4 C6 1.486 . S
N5 N1 1.370 1_554 S
N5 C4 1.307 . S
C6 C4 1.486 . S
C6 H10 0.960 . S
C6 H11 0.960 . S
C6 H12 0.959 . S
H7 C3 0.960 . S
H8 C3 0.961 . S
H9 C3 0.960 . S
H10 C6 0.960 . S
H11 C6 0.960 . S
H12 C6 0.959 . S
C13 N14 1.317 . S
C13 N15 1.348 . S
C13 C16 1.485 . S
N14 C13 1.317 . S
N14 N18 1.370 . S
N15 C13 1.348 . S
N15 C17 1.346 . S
C16 C13 1.485 . S
C16 H20 0.960 . S
C16 H21 0.961 . S
C16 H22 0.960 . S
C17 N15 1.346 . S
C17 N18 1.307 . S
C17 C19 1.486 . S
N18 N14 1.370 . S
N18 C17 1.307 . S
C19 C17 1.486 . S
C19 H23 0.960 . S
C19 H24 0.960 . S
C19 H25 0.959 . S
H20 C16 0.960 . S
H21 C16 0.961 . S
H22 C16 0.960 . S
H23 C19 0.960 . S
H24 C19 0.960 . S
H25 C19 0.959 . S
C26 N27 1.317 . S
C26 N28 1.348 . S
C26 C29 1.485 . S
N27 C26 1.317 . S
N27 N31 1.370 1_554 S
N28 C26 1.348 . S
N28 C30 1.346 1_554 S
C29 C26 1.485 . S
C29 H33 0.960 . S
C29 H34 0.961 . S
C29 H35 0.960 . S
C30 N28 1.346 1_556 S
C30 N31 1.307 . S
C30 C32 1.486 . S
N31 N27 1.370 1_556 S
N31 C30 1.307 . S
C32 C30 1.486 . S
C32 H36 0.960 . S
C32 H37 0.960 . S
C32 H38 0.959 . S
H33 C29 0.960 . S
H34 C29 0.961 . S
H35 C29 0.960 . S
H36 C32 0.960 . S
H37 C32 0.960 . S
H38 C32 0.959 . S
C39 N40 1.317 . S
C39 N41 1.348 . S
C39 C42 1.485 . S
N40 C39 1.317 . S
N40 N44 1.370 . S
N41 C39 1.348 . S
N41 C43 1.346 . S
C42 C39 1.485 . S
C42 H46 0.960 . S
C42 H47 0.961 . S
C42 H48 0.960 . S
C43 N41 1.346 . S
C43 N44 1.307 . S
C43 C45 1.486 . S
N44 N40 1.370 . S
N44 C43 1.307 . S
C45 C43 1.486 . S
C45 H49 0.960 . S
C45 H50 0.960 . S
C45 H51 0.959 . S
H46 C42 0.960 . S
H47 C42 0.961 . S
H48 C42 0.960 . S
H49 C45 0.960 . S
H50 C45 0.960 . S
H51 C45 0.959 . S
O52 Zn53 1.953 1_565 S
O52 C68 1.225 . S
Zn53 O52 1.953 1_545 S
Zn53 O54 1.949 1_655 S
Zn53 O60 1.919 . S
Zn53 O65 1.924 . S
O54 Zn53 1.949 1_455 S
O54 Zn55 1.923 . S
O54 Zn56 1.950 1_545 S
O54 Zn57 1.945 . S
Zn55 O54 1.923 . S
Zn55 O58 1.933 . S
Zn55 O61 1.941 . S
Zn55 O62 1.965 1_545 S
Zn56 O54 1.950 1_565 S
Zn56 O63 1.938 . S
Zn56 O64 1.906 . S
Zn56 O74 1.953 1_455 S
Zn57 O54 1.945 . S
Zn57 O59 1.932 . S
Zn57 O66 1.977 1_545 S
Zn57 O67 1.910 1_455 S
O58 Zn55 1.933 . S
O58 C69 1.226 . S
O59 Zn57 1.932 . S
O59 C69 1.307 . S
O60 Zn53 1.919 . S
O60 C71 1.253 . S
O61 Zn55 1.941 . S
O61 C71 1.283 1_455 S
O62 Zn55 1.965 1_565 S
O62 C70 1.303 . S
O63 Zn56 1.938 . S
O63 C70 1.247 . S
O64 Zn56 1.906 . S
O64 C72 1.304 . S
O65 Zn53 1.924 . S
O65 C73 1.311 . S
O66 Zn57 1.977 1_565 S
O66 C72 1.272 . S
O67 Zn57 1.910 1_655 S
O67 C73 1.231 . S
C68 O52 1.225 . S
C68 O74 1.298 . S
C69 O58 1.226 . S
C69 O59 1.307 . S
C70 O62 1.303 . S
C70 O63 1.247 . S
C71 O60 1.253 . S
C71 O61 1.283 1_655 S
C72 O64 1.304 . S
C72 O66 1.272 . S
C73 O65 1.311 . S
C73 O67 1.231 . S
O74 Zn56 1.953 1_655 S
O74 C68 1.298 . S
O75 Zn76 1.953 . S
O75 C91 1.222 1_556 S
Zn76 O75 1.953 . S
Zn76 O77 1.949 1_556 S
Zn76 O83 1.919 . S
Zn76 O88 1.924 1_556 S
O77 Zn76 1.949 1_554 S
O77 Zn78 1.923 1_554 S
O77 Zn79 1.950 . S
O77 Zn80 1.945 . S
Zn78 O77 1.923 1_556 S
Zn78 O81 1.933 . S
Zn78 O84 1.941 . S
Zn78 O85 1.965 . S
Zn79 O77 1.950 . S
Zn79 O86 1.938 1_554 S
Zn79 O87 1.906 . S
Zn79 O97 1.953 . S
Zn80 O77 1.945 . S
Zn80 O82 1.932 . S
Zn80 O89 1.977 . S
Zn80 O90 1.910 . S
O81 Zn78 1.933 . S
O81 C92 1.226 1_556 S
O82 Zn80 1.932 . S
O82 C92 1.307 . S
O83 Zn76 1.919 . S
O83 C94 1.253 . S
O84 Zn78 1.941 . S
O84 C94 1.283 . S
O85 Zn78 1.965 . S
O85 C93 1.303 . S
O86 Zn79 1.938 1_556 S
O86 C93 1.247 . S
O87 Zn79 1.906 . S
O87 C95 1.304 . S
O88 Zn76 1.924 1_554 S
O88 C96 1.311 . S
O89 Zn80 1.977 . S
O89 C95 1.272 . S
O90 Zn80 1.910 . S
O90 C96 1.231 . S
C91 O75 1.222 1_554 S
C91 O97 1.301 . S
C92 O81 1.226 1_554 S
C92 O82 1.307 . S
C93 O85 1.303 . S
C93 O86 1.247 . S
C94 O83 1.253 . S
C94 O84 1.283 . S
C95 O87 1.304 . S
C95 O89 1.272 . S
C96 O88 1.311 . S
C96 O90 1.231 . S
O97 Zn79 1.953 . S
O97 C91 1.301 . S
C98 C99 1.386 . S
C98 C100 1.383 . S
C98 H114 0.951 . S
C99 C98 1.386 . S
C99 C103 1.383 . S
C100 C98 1.383 . S
C100 C101 1.402 . S
C100 H115 0.951 . S
C101 C100 1.402 . S
C101 C102 1.375 . S
C101 C104 1.481 . S
C102 C101 1.375 . S
C102 C103 1.367 . S
C102 H116 0.951 . S
C103 C99 1.383 . S
C103 C102 1.367 . S
C103 H117 0.950 . S
C104 C101 1.481 . S
C104 C105 1.297 . S
C104 H118 0.950 . S
C105 C104 1.297 . S
C105 C106 1.479 . S
C105 H119 0.950 . S
C106 C105 1.479 . S
C106 C107 1.375 . S
C106 C112 1.404 . S
C107 C106 1.375 . S
C107 C108 1.369 . S
C107 H120 0.950 . S
C108 C107 1.369 . S
C108 C109 1.392 . S
C108 H121 0.951 . S
C109 C108 1.392 . S
C109 C111 1.384 . S
H110 C112 0.949 . S
C111 C109 1.384 . S
C111 C112 1.385 . S
C111 H113 0.950 . S
C112 C106 1.404 . S
C112 H110 0.949 . S
C112 C111 1.385 . S
H113 C111 0.950 . S
H114 C98 0.951 . S
H115 C100 0.951 . S
H116 C102 0.951 . S
H117 C103 0.950 . S
H118 C104 0.950 . S
H119 C105 0.950 . S
H120 C107 0.950 . S
H121 C108 0.951 . S
C122 C123 1.386 1_556 S
C122 C124 1.383 . S
C122 H138 0.951 . S
C123 C122 1.386 1_554 S
C123 C127 1.383 . S
C124 C122 1.383 . S
C124 C125 1.402 1_556 S
C124 H139 0.951 . S
C125 C124 1.402 1_554 S
C125 C126 1.375 . S
C125 C128 1.481 . S
C126 C125 1.375 . S
C126 C127 1.367 . S
C126 H140 0.951 . S
C127 C123 1.383 . S
C127 C126 1.367 . S
C127 H141 0.950 . S
C128 C125 1.481 . S
C128 C129 1.297 1_554 S
C128 H142 0.950 . S
C129 C128 1.297 1_556 S
C129 C130 1.479 . S
C129 H143 0.950 . S
C130 C129 1.479 . S
C130 C131 1.375 . S
C130 C136 1.404 1_556 S
C131 C130 1.375 . S
C131 C132 1.369 . S
C131 H144 0.950 . S
C132 C131 1.369 . S
C132 C133 1.392 . S
C132 H145 0.951 . S
C133 C132 1.392 . S
C133 C135 1.384 1_556 S
H134 C136 0.949 . S
C135 C133 1.384 1_554 S
C135 C136 1.385 . S
C135 H137 0.950 . S
C136 C130 1.404 1_554 S
C136 H134 0.949 . S
C136 C135 1.385 . S
H137 C135 0.950 . S
H138 C122 0.951 . S
H139 C124 0.951 . S
H140 C126 0.951 . S
H141 C127 0.950 . S
H142 C128 0.950 . S
H143 C129 0.950 . S
H144 C131 0.950 . S
H145 C132 0.951 . S
C146 C147 1.386 . S
C146 C148 1.383 . S
C146 H162 0.951 . S
C147 C146 1.386 . S
C147 C151 1.383 . S
C148 C146 1.383 . S
C148 C149 1.402 . S
C148 H163 0.951 . S
C149 C148 1.402 . S
C149 C150 1.375 . S
C149 C152 1.481 . S
C150 C149 1.375 . S
C150 C151 1.367 . S
C150 H164 0.951 . S
C151 C147 1.383 . S
C151 C150 1.367 . S
C151 H165 0.950 . S
C152 C149 1.481 . S
C152 C153 1.297 . S
C152 H166 0.950 . S
C153 C152 1.297 . S
C153 C154 1.479 . S
C153 H167 0.950 . S
C154 C153 1.479 . S
C154 C155 1.375 . S
C154 C160 1.404 . S
C155 C154 1.375 . S
C155 C156 1.369 . S
C155 H168 0.950 . S
C156 C155 1.369 . S
C156 C157 1.392 . S
C156 H169 0.951 . S
C157 C156 1.392 . S
C157 C159 1.384 . S
H158 C160 0.949 . S
C159 C157 1.384 . S
C159 C160 1.385 . S
C159 H161 0.950 . S
C160 C154 1.404 . S
C160 H158 0.949 . S
C160 C159 1.385 . S
H161 C159 0.950 . S
H162 C146 0.951 . S
H163 C148 0.951 . S
H164 C150 0.951 . S
H165 C151 0.950 . S
H166 C152 0.950 . S
H167 C153 0.950 . S
H168 C155 0.950 . S
H169 C156 0.951 . S
C170 C171 1.386 . S
C170 C172 1.383 . S
C170 H186 0.951 . S
C171 C170 1.386 . S
C171 C175 1.383 1_554 S
C172 C170 1.383 . S
C172 C173 1.402 . S
C172 H187 0.951 . S
C173 C172 1.402 . S
C173 C174 1.379 . S
C173 C176 1.481 . S
C174 C173 1.379 . S
C174 C175 1.366 1_554 S
C174 H188 0.949 1_554 S
C175 C171 1.383 1_556 S
C175 C174 1.366 1_556 S
C175 H189 0.950 . S
C176 C173 1.481 . S
C176 C177 1.297 . S
C176 H190 0.950 . S
C177 C176 1.297 . S
C177 C178 1.479 . S
C177 H191 0.950 . S
C178 C177 1.479 . S
C178 C179 1.375 . S
C178 C184 1.404 . S
C179 C178 1.375 . S
C179 C180 1.369 . S
C179 H192 0.950 . S
C180 C179 1.369 . S
C180 C181 1.392 . S
C180 H193 0.951 . S
C181 C180 1.392 . S
C181 C183 1.384 . S
H182 C184 0.949 . S
C183 C181 1.384 . S
C183 C184 1.385 . S
C183 H185 0.950 . S
C184 C178 1.404 . S
C184 H182 0.949 . S
C184 C183 1.385 . S
H185 C183 0.950 . S
H186 C170 0.951 . S
H187 C172 0.951 . S
H188 C174 0.949 1_556 S
H189 C175 0.950 . S
H190 C176 0.950 . S
H191 C177 0.950 . S
H192 C179 0.950 . S
H193 C180 0.951 . S
C194 C195 1.386 . S
C194 C196 1.383 . S
C194 H210 0.951 . S
C195 C194 1.386 . S
C195 C199 1.383 . S
C196 C194 1.383 . S
C196 C197 1.402 . S
C196 H211 0.951 . S
C197 C196 1.402 . S
C197 C198 1.375 . S
C197 C200 1.481 . S
C198 C197 1.375 . S
C198 C199 1.367 . S
C198 H212 0.951 . S
C199 C195 1.383 . S
C199 C198 1.367 . S
C199 H213 0.950 . S
C200 C197 1.481 . S
C200 C201 1.297 . S
C200 H214 0.950 . S
C201 C200 1.297 . S
C201 C202 1.479 . S
C201 H215 0.950 . S
C202 C201 1.479 . S
C202 C203 1.375 . S
C202 C208 1.404 . S
C203 C202 1.375 . S
C203 C204 1.369 . S
C203 H216 0.950 . S
C204 C203 1.369 . S
C204 C205 1.392 . S
C204 H217 0.951 . S
C205 C204 1.392 . S
C205 C207 1.384 . S
H206 C208 0.949 . S
C207 C205 1.384 . S
C207 C208 1.385 . S
C207 H209 0.950 . S
C208 C202 1.404 . S
C208 H206 0.949 . S
C208 C207 1.385 . S
H209 C207 0.950 . S
H210 C194 0.951 . S
H211 C196 0.951 . S
H212 C198 0.951 . S
H213 C199 0.950 . S
H214 C200 0.950 . S
H215 C201 0.950 . S
H216 C203 0.950 . S
H217 C204 0.951 . S
C218 C219 1.386 . S
C218 C220 1.383 . S
C218 H234 0.951 . S
C219 C218 1.386 . S
C219 C223 1.383 . S
C220 C218 1.383 . S
C220 C221 1.402 . S
C220 H235 0.951 . S
C221 C220 1.402 . S
C221 C222 1.375 . S
C221 C224 1.481 . S
C222 C221 1.375 . S
C222 C223 1.367 . S
C222 H236 0.951 . S
C223 C219 1.383 . S
C223 C222 1.367 . S
C223 H237 0.950 . S
C224 C221 1.481 . S
C224 C225 1.297 . S
C224 H238 0.950 . S
C225 C224 1.297 . S
C225 C226 1.479 . S
C225 H239 0.950 . S
C226 C225 1.479 . S
C226 C227 1.375 . S
C226 C232 1.404 . S
C227 C226 1.375 . S
C227 C228 1.369 . S
C227 H240 0.950 . S
C228 C227 1.369 . S
C228 C229 1.392 . S
C228 H241 0.951 . S
C229 C228 1.392 . S
C229 C231 1.384 . S
H230 C232 0.949 . S
C231 C229 1.384 . S
C231 C232 1.385 . S
C231 H233 0.950 . S
C232 C226 1.404 . S
C232 H230 0.949 . S
C232 C231 1.385 . S
H233 C231 0.950 . S
H234 C218 0.951 . S
H235 C220 0.951 . S
H236 C222 0.951 . S
H237 C223 0.950 . S
H238 C224 0.950 . S
H239 C225 0.950 . S
H240 C227 0.950 . S
H241 C228 0.951 . S
C242 C243 1.386 . S
C242 C244 1.383 . S
C242 H258 0.951 . S
C243 C242 1.386 . S
C243 C247 1.383 . S
C244 C242 1.383 . S
C244 C245 1.402 . S
C244 H259 0.951 . S
C245 C244 1.402 . S
C245 C246 1.375 . S
C245 C248 1.481 . S
C246 C245 1.375 . S
C246 C247 1.367 . S
C246 H260 0.951 . S
C247 C243 1.383 . S
C247 C246 1.367 . S
C247 H261 0.950 . S
C248 C245 1.481 . S
C248 C249 1.297 . S
C248 H262 0.950 . S
C249 C248 1.297 . S
C249 C250 1.479 . S
C249 H263 0.950 . S
C250 C249 1.479 . S
C250 C251 1.375 . S
C250 C256 1.404 . S
C251 C250 1.375 . S
C251 C252 1.369 . S
C251 H264 0.950 . S
C252 C251 1.369 . S
C252 C253 1.392 . S
C252 H265 0.951 . S
C253 C252 1.392 . S
C253 C255 1.384 . S
H254 C256 0.949 . S
C255 C253 1.384 . S
C255 C256 1.385 . S
C255 H257 0.950 . S
C256 C250 1.404 . S
C256 H254 0.949 . S
C256 C255 1.385 . S
H257 C255 0.950 . S
H258 C242 0.951 . S
H259 C244 0.951 . S
H260 C246 0.951 . S
H261 C247 0.950 . S
H262 C248 0.950 . S
H263 C249 0.950 . S
H264 C251 0.950 . S
H265 C252 0.951 . S
C266 C267 1.386 . S
C266 C268 1.383 . S
C266 H282 0.951 . S
C267 C266 1.386 . S
C267 C271 1.383 . S
C268 C266 1.383 . S
C268 C269 1.402 . S
C268 H283 0.951 . S
C269 C268 1.402 . S
C269 C270 1.375 . S
C269 C272 1.481 . S
C270 C269 1.375 . S
C270 C271 1.367 . S
C270 H284 0.951 . S
C271 C267 1.383 . S
C271 C270 1.367 . S
C271 H285 0.950 . S
C272 C269 1.481 . S
C272 C273 1.297 . S
C272 H286 0.950 . S
C273 C272 1.297 . S
C273 C274 1.479 . S
C273 H287 0.950 . S
C274 C273 1.479 . S
C274 C275 1.375 . S
C274 C280 1.404 . S
C275 C274 1.375 . S
C275 C276 1.369 . S
C275 H288 0.950 . S
C276 C275 1.369 . S
C276 C277 1.392 . S
C276 H289 0.951 . S
C277 C276 1.392 . S
C277 C279 1.384 . S
H278 C280 0.949 . S
C279 C277 1.384 . S
C279 C280 1.385 . S
C279 H281 0.950 . S
C280 C274 1.404 . S
C280 H278 0.949 . S
C280 C279 1.385 . S
H281 C279 0.950 . S
H282 C266 0.951 . S
H283 C268 0.951 . S
H284 C270 0.951 . S
H285 C271 0.950 . S
H286 C272 0.950 . S
H287 C273 0.950 . S
H288 C275 0.950 . S
H289 C276 0.951 . S
C290 C291 1.386 . S
C290 C292 1.383 . S
C290 H306 0.951 . S
C291 C290 1.386 . S
C291 C295 1.383 . S
C292 C290 1.383 . S
C292 C293 1.402 . S
C292 H307 0.951 . S
C293 C292 1.402 . S
C293 C294 1.375 . S
C293 C296 1.481 . S
C294 C293 1.375 . S
C294 C295 1.367 . S
C294 H308 0.951 . S
C295 C291 1.383 . S
C295 C294 1.367 . S
C295 H309 0.950 . S
C296 C293 1.481 . S
C296 C297 1.297 . S
C296 H310 0.950 . S
C297 C296 1.297 . S
C297 C298 1.479 . S
C297 H311 0.950 . S
C298 C297 1.479 . S
C298 C299 1.375 . S
C298 C304 1.404 . S
C299 C298 1.375 . S
C299 C300 1.369 . S
C299 H312 0.950 . S
C300 C299 1.369 . S
C300 C301 1.392 . S
C300 H313 0.951 . S
C301 C300 1.392 . S
C301 C303 1.384 . S
H302 C304 0.949 . S
C303 C301 1.384 . S
C303 C304 1.385 . S
C303 H305 0.950 . S
C304 C298 1.404 . S
C304 H302 0.949 . S
C304 C303 1.385 . S
H305 C303 0.950 . S
H306 C290 0.951 . S
H307 C292 0.951 . S
H308 C294 0.951 . S
H309 C295 0.950 . S
H310 C296 0.950 . S
H311 C297 0.950 . S
H312 C299 0.950 . S
H313 C300 0.951 . S
C314 C315 1.386 . S
C314 C316 1.383 . S
C314 H330 0.951 . S
C315 C314 1.386 . S
C315 C319 1.383 . S
C316 C314 1.383 . S
C316 C317 1.402 . S
C316 H331 0.951 . S
C317 C316 1.402 . S
C317 C318 1.375 . S
C317 C320 1.481 . S
C318 C317 1.375 . S
C318 C319 1.367 . S
C318 H332 0.951 . S
C319 C315 1.383 . S
C319 C318 1.367 . S
C319 H333 0.950 . S
C320 C317 1.481 . S
C320 C321 1.297 . S
C320 H334 0.950 . S
C321 C320 1.297 . S
C321 C322 1.479 . S
C321 H335 0.950 . S
C322 C321 1.479 . S
C322 C323 1.375 . S
C322 C328 1.404 . S
C323 C322 1.375 . S
C323 C324 1.369 . S
C323 H336 0.950 . S
C324 C323 1.369 . S
C324 C325 1.392 . S
C324 H337 0.951 . S
C325 C324 1.392 . S
C325 C327 1.384 . S
H326 C328 0.949 . S
C327 C325 1.384 . S
C327 C328 1.385 . S
C327 H329 0.950 . S
C328 C322 1.404 . S
C328 H326 0.949 . S
C328 C327 1.385 . S
H329 C327 0.950 . S
H330 C314 0.951 . S
H331 C316 0.951 . S
H332 C318 0.951 . S
H333 C319 0.950 . S
H334 C320 0.950 . S
H335 C321 0.950 . S
H336 C323 0.950 . S
H337 C324 0.951 . S
C338 C339 1.386 . S
C338 C340 1.383 . S
C338 H354 0.951 . S
C339 C338 1.386 . S
C339 C343 1.383 . S
C340 C338 1.383 . S
C340 C341 1.402 . S
C340 H355 0.951 . S
C341 C340 1.402 . S
C341 C342 1.375 . S
C341 C344 1.481 . S
C342 C341 1.375 . S
C342 C343 1.367 . S
C342 H356 0.951 . S
C343 C339 1.383 . S
C343 C342 1.367 . S
C343 H357 0.950 . S
C344 C341 1.481 . S
C344 C345 1.297 . S
C344 H358 0.950 . S
C345 C344 1.297 . S
C345 C346 1.479 . S
C345 H359 0.950 . S
C346 C345 1.479 . S
C346 C347 1.375 . S
C346 C352 1.404 . S
C347 C346 1.375 . S
C347 C348 1.369 . S
C347 H360 0.950 . S
C348 C347 1.369 . S
C348 C349 1.392 . S
C348 H361 0.951 . S
C349 C348 1.392 . S
C349 C351 1.384 . S
H350 C352 0.949 . S
C351 C349 1.384 . S
C351 C352 1.385 . S
C351 H353 0.950 . S
C352 C346 1.404 . S
C352 H350 0.949 . S
C352 C351 1.385 . S
H353 C351 0.950 . S
H354 C338 0.951 . S
H355 C340 0.951 . S
H356 C342 0.951 . S
H357 C343 0.950 . S
H358 C344 0.950 . S
H359 C345 0.950 . S
H360 C347 0.950 . S
H361 C348 0.951 . S
C362 C363 1.386 . S
C362 C364 1.383 . S
C362 H378 0.951 . S
C363 C362 1.386 . S
C363 C367 1.383 . S
C364 C362 1.383 . S
C364 C365 1.402 . S
C364 H379 0.951 . S
C365 C364 1.402 . S
C365 C366 1.375 . S
C365 C368 1.481 . S
C366 C365 1.375 . S
C366 C367 1.367 . S
C366 H380 0.951 . S
C367 C363 1.383 . S
C367 C366 1.367 . S
C367 H381 0.950 . S
C368 C365 1.481 . S
C368 C369 1.297 . S
C368 H382 0.950 . S
C369 C368 1.297 . S
C369 C370 1.479 . S
C369 H383 0.950 . S
C370 C369 1.479 . S
C370 C371 1.375 . S
C370 C376 1.404 . S
C371 C370 1.375 . S
C371 C372 1.369 . S
C371 H384 0.950 . S
C372 C371 1.369 . S
C372 C373 1.392 . S
C372 H385 0.951 . S
C373 C372 1.392 . S
C373 C375 1.384 . S
H374 C376 0.949 . S
C375 C373 1.384 . S
C375 C376 1.385 . S
C375 H377 0.950 . S
C376 C370 1.404 . S
C376 H374 0.949 . S
C376 C375 1.385 . S
H377 C375 0.950 . S
H378 C362 0.951 . S
H379 C364 0.951 . S
H380 C366 0.951 . S
H381 C367 0.950 . S
H382 C368 0.950 . S
H383 C369 0.950 . S
H384 C371 0.950 . S
H385 C372 0.951 . S
C109 C69 1.480 . S
C99 N41 1.493 . S
C123 N2 1.489 . S
C133 C92 1.489 1_556 S
C147 N15 1.526 . S
C157 C68 1.517 . S
C171 N28 1.524 . S
C181 C91 1.523 . S
C205 C72 1.467 . S
C195 N5 1.465 . S
C229 C94 1.465 . S
C219 N14 1.525 . S
C243 N27 1.479 . S
C253 C73 1.428 . S
C267 N44 1.515 . S
C277 C93 1.456 . S
C301 C96 1.473 . S
C291 N18 1.484 . S
C325 C71 1.415 . S
C315 N31 1.516 . S
C349 C95 1.456 . S
C339 N40 1.476 . S
C363 N1 1.520 . S
C373 C70 1.502 . S
