# Generated by pormake.
# Topology tbo, (3,4)-cn, num edge types: 1
# Building blocks:
#     Node 0, Type 0, BuildingBlock: WUSLED_clean_sbu_0, # of connection points: 3
#     Node 1, Type 0, BuildingBlock: WUSLED_clean_sbu_0, # of connection points: 3
#     Node 2, Type 0, BuildingBlock: WUSLED_clean_sbu_0, # of connection points: 3
#     Node 3, Type 0, BuildingBlock: WUSLED_clean_sbu_0, # of connection points: 3
#     Node 4, Type 0, BuildingBlock: WUSLED_clean_sbu_0, # of connection points: 3
#     Node 5, Type 0, BuildingBlock: WUSLED_clean_sbu_0, # of connection points: 3
#     Node 6, Type 0, BuildingBlock: WUSLED_clean_sbu_0, # of connection points: 3
#     Node 7, Type 0, BuildingBlock: WUSLED_clean_sbu_0, # of connection points: 3
#     Node 8, Type 0, BuildingBlock: WUSLED_clean_sbu_0, # of connection points: 3
#     Node 9, Type 0, BuildingBlock: WUSLED_clean_sbu_0, # of connection points: 3
#     Node 10, Type 0, BuildingBlock: WUSLED_clean_sbu_0, # of connection points: 3
#     Node 11, Type 0, BuildingBlock: WUSLED_clean_sbu_0, # of connection points: 3
#     Node 12, Type 0, BuildingBlock: WUSLED_clean_sbu_0, # of connection points: 3
#     Node 13, Type 0, BuildingBlock: WUSLED_clean_sbu_0, # of connection points: 3
#     Node 14, Type 0, BuildingBlock: WUSLED_clean_sbu_0, # of connection points: 3
#     Node 15, Type 0, BuildingBlock: WUSLED_clean_sbu_0, # of connection points: 3
#     Node 16, Type 0, BuildingBlock: WUSLED_clean_sbu_0, # of connection points: 3
#     Node 17, Type 0, BuildingBlock: WUSLED_clean_sbu_0, # of connection points: 3
#     Node 18, Type 0, BuildingBlock: WUSLED_clean_sbu_0, # of connection points: 3
#     Node 19, Type 0, BuildingBlock: WUSLED_clean_sbu_0, # of connection points: 3
#     Node 20, Type 0, BuildingBlock: WUSLED_clean_sbu_0, # of connection points: 3
#     Node 21, Type 0, BuildingBlock: WUSLED_clean_sbu_0, # of connection points: 3
#     Node 22, Type 0, BuildingBlock: WUSLED_clean_sbu_0, # of connection points: 3
#     Node 23, Type 0, BuildingBlock: WUSLED_clean_sbu_0, # of connection points: 3
#     Node 24, Type 0, BuildingBlock: WUSLED_clean_sbu_0, # of connection points: 3
#     Node 25, Type 0, BuildingBlock: WUSLED_clean_sbu_0, # of connection points: 3
#     Node 26, Type 0, BuildingBlock: WUSLED_clean_sbu_0, # of connection points: 3
#     Node 27, Type 0, BuildingBlock: WUSLED_clean_sbu_0, # of connection points: 3
#     Node 28, Type 0, BuildingBlock: WUSLED_clean_sbu_0, # of connection points: 3
#     Node 29, Type 0, BuildingBlock: WUSLED_clean_sbu_0, # of connection points: 3
#     Node 30, Type 0, BuildingBlock: WUSLED_clean_sbu_0, # of connection points: 3
#     Node 31, Type 0, BuildingBlock: WUSLED_clean_sbu_0, # of connection points: 3
#     Node 32, Type 1, BuildingBlock: MUDLON_clean_linker_0, # of connection points: 4
#     Node 33, Type 1, BuildingBlock: MUDLON_clean_linker_0, # of connection points: 4
#     Node 34, Type 1, BuildingBlock: MUDLON_clean_linker_0, # of connection points: 4
#     Node 35, Type 1, BuildingBlock: MUDLON_clean_linker_0, # of connection points: 4
#     Node 36, Type 1, BuildingBlock: MUDLON_clean_linker_0, # of connection points: 4
#     Node 37, Type 1, BuildingBlock: MUDLON_clean_linker_0, # of connection points: 4
#     Node 38, Type 1, BuildingBlock: MUDLON_clean_linker_0, # of connection points: 4
#     Node 39, Type 1, BuildingBlock: MUDLON_clean_linker_0, # of connection points: 4
#     Node 40, Type 1, BuildingBlock: MUDLON_clean_linker_0, # of connection points: 4
#     Node 41, Type 1, BuildingBlock: MUDLON_clean_linker_0, # of connection points: 4
#     Node 42, Type 1, BuildingBlock: MUDLON_clean_linker_0, # of connection points: 4
#     Node 43, Type 1, BuildingBlock: MUDLON_clean_linker_0, # of connection points: 4
#     Node 44, Type 1, BuildingBlock: MUDLON_clean_linker_0, # of connection points: 4
#     Node 45, Type 1, BuildingBlock: MUDLON_clean_linker_0, # of connection points: 4
#     Node 46, Type 1, BuildingBlock: MUDLON_clean_linker_0, # of connection points: 4
#     Node 47, Type 1, BuildingBlock: MUDLON_clean_linker_0, # of connection points: 4
#     Node 48, Type 1, BuildingBlock: MUDLON_clean_linker_0, # of connection points: 4
#     Node 49, Type 1, BuildingBlock: MUDLON_clean_linker_0, # of connection points: 4
#     Node 50, Type 1, BuildingBlock: MUDLON_clean_linker_0, # of connection points: 4
#     Node 51, Type 1, BuildingBlock: MUDLON_clean_linker_0, # of connection points: 4
#     Node 52, Type 1, BuildingBlock: MUDLON_clean_linker_0, # of connection points: 4
#     Node 53, Type 1, BuildingBlock: MUDLON_clean_linker_0, # of connection points: 4
#     Node 54, Type 1, BuildingBlock: MUDLON_clean_linker_0, # of connection points: 4
#     Node 55, Type 1, BuildingBlock: MUDLON_clean_linker_0, # of connection points: 4
#     Edge 56, Type (0, 1), BuildingBlock: MIFKUJ_clean_linker_0, # of connection points: 2
#     Edge 57, Type (0, 1), BuildingBlock: MIFKUJ_clean_linker_0, # of connection points: 2
#     Edge 58, Type (0, 1), BuildingBlock: MIFKUJ_clean_linker_0, # of connection points: 2
#     Edge 59, Type (0, 1), BuildingBlock: MIFKUJ_clean_linker_0, # of connection points: 2
#     Edge 60, Type (0, 1), BuildingBlock: MIFKUJ_clean_linker_0, # of connection points: 2
#     Edge 61, Type (0, 1), BuildingBlock: MIFKUJ_clean_linker_0, # of connection points: 2
#     Edge 62, Type (0, 1), BuildingBlock: MIFKUJ_clean_linker_0, # of connection points: 2
#     Edge 63, Type (0, 1), BuildingBlock: MIFKUJ_clean_linker_0, # of connection points: 2
#     Edge 64, Type (0, 1), BuildingBlock: MIFKUJ_clean_linker_0, # of connection points: 2
#     Edge 65, Type (0, 1), BuildingBlock: MIFKUJ_clean_linker_0, # of connection points: 2
#     Edge 66, Type (0, 1), BuildingBlock: MIFKUJ_clean_linker_0, # of connection points: 2
#     Edge 67, Type (0, 1), BuildingBlock: MIFKUJ_clean_linker_0, # of connection points: 2
#     Edge 68, Type (0, 1), BuildingBlock: MIFKUJ_clean_linker_0, # of connection points: 2
#     Edge 69, Type (0, 1), BuildingBlock: MIFKUJ_clean_linker_0, # of connection points: 2
#     Edge 70, Type (0, 1), BuildingBlock: MIFKUJ_clean_linker_0, # of connection points: 2
#     Edge 71, Type (0, 1), BuildingBlock: MIFKUJ_clean_linker_0, # of connection points: 2
#     Edge 72, Type (0, 1), BuildingBlock: MIFKUJ_clean_linker_0, # of connection points: 2
#     Edge 73, Type (0, 1), BuildingBlock: MIFKUJ_clean_linker_0, # of connection points: 2
#     Edge 74, Type (0, 1), BuildingBlock: MIFKUJ_clean_linker_0, # of connection points: 2
#     Edge 75, Type (0, 1), BuildingBlock: MIFKUJ_clean_linker_0, # of connection points: 2
#     Edge 76, Type (0, 1), BuildingBlock: MIFKUJ_clean_linker_0, # of connection points: 2
#     Edge 77, Type (0, 1), BuildingBlock: MIFKUJ_clean_linker_0, # of connection points: 2
#     Edge 78, Type (0, 1), BuildingBlock: MIFKUJ_clean_linker_0, # of connection points: 2
#     Edge 79, Type (0, 1), BuildingBlock: MIFKUJ_clean_linker_0, # of connection points: 2
#     Edge 80, Type (0, 1), BuildingBlock: MIFKUJ_clean_linker_0, # of connection points: 2
#     Edge 81, Type (0, 1), BuildingBlock: MIFKUJ_clean_linker_0, # of connection points: 2
#     Edge 82, Type (0, 1), BuildingBlock: MIFKUJ_clean_linker_0, # of connection points: 2
#     Edge 83, Type (0, 1), BuildingBlock: MIFKUJ_clean_linker_0, # of connection points: 2
#     Edge 84, Type (0, 1), BuildingBlock: MIFKUJ_clean_linker_0, # of connection points: 2
#     Edge 85, Type (0, 1), BuildingBlock: MIFKUJ_clean_linker_0, # of connection points: 2
#     Edge 86, Type (0, 1), BuildingBlock: MIFKUJ_clean_linker_0, # of connection points: 2
#     Edge 87, Type (0, 1), BuildingBlock: MIFKUJ_clean_linker_0, # of connection points: 2
#     Edge 88, Type (0, 1), BuildingBlock: MIFKUJ_clean_linker_0, # of connection points: 2
#     Edge 89, Type (0, 1), BuildingBlock: MIFKUJ_clean_linker_0, # of connection points: 2
#     Edge 90, Type (0, 1), BuildingBlock: MIFKUJ_clean_linker_0, # of connection points: 2
#     Edge 91, Type (0, 1), BuildingBlock: MIFKUJ_clean_linker_0, # of connection points: 2
#     Edge 92, Type (0, 1), BuildingBlock: MIFKUJ_clean_linker_0, # of connection points: 2
#     Edge 93, Type (0, 1), BuildingBlock: MIFKUJ_clean_linker_0, # of connection points: 2
#     Edge 94, Type (0, 1), BuildingBlock: MIFKUJ_clean_linker_0, # of connection points: 2
#     Edge 95, Type (0, 1), BuildingBlock: MIFKUJ_clean_linker_0, # of connection points: 2
#     Edge 96, Type (0, 1), BuildingBlock: MIFKUJ_clean_linker_0, # of connection points: 2
#     Edge 97, Type (0, 1), BuildingBlock: MIFKUJ_clean_linker_0, # of connection points: 2
#     Edge 98, Type (0, 1), BuildingBlock: MIFKUJ_clean_linker_0, # of connection points: 2
#     Edge 99, Type (0, 1), BuildingBlock: MIFKUJ_clean_linker_0, # of connection points: 2
#     Edge 100, Type (0, 1), BuildingBlock: MIFKUJ_clean_linker_0, # of connection points: 2
#     Edge 101, Type (0, 1), BuildingBlock: MIFKUJ_clean_linker_0, # of connection points: 2
#     Edge 102, Type (0, 1), BuildingBlock: MIFKUJ_clean_linker_0, # of connection points: 2
#     Edge 103, Type (0, 1), BuildingBlock: MIFKUJ_clean_linker_0, # of connection points: 2
#     Edge 104, Type (0, 1), BuildingBlock: MIFKUJ_clean_linker_0, # of connection points: 2
#     Edge 105, Type (0, 1), BuildingBlock: MIFKUJ_clean_linker_0, # of connection points: 2
#     Edge 106, Type (0, 1), BuildingBlock: MIFKUJ_clean_linker_0, # of connection points: 2
#     Edge 107, Type (0, 1), BuildingBlock: MIFKUJ_clean_linker_0, # of connection points: 2
#     Edge 108, Type (0, 1), BuildingBlock: MIFKUJ_clean_linker_0, # of connection points: 2
#     Edge 109, Type (0, 1), BuildingBlock: MIFKUJ_clean_linker_0, # of connection points: 2
#     Edge 110, Type (0, 1), BuildingBlock: MIFKUJ_clean_linker_0, # of connection points: 2
#     Edge 111, Type (0, 1), BuildingBlock: MIFKUJ_clean_linker_0, # of connection points: 2
#     Edge 112, Type (0, 1), BuildingBlock: MIFKUJ_clean_linker_0, # of connection points: 2
#     Edge 113, Type (0, 1), BuildingBlock: MIFKUJ_clean_linker_0, # of connection points: 2
#     Edge 114, Type (0, 1), BuildingBlock: MIFKUJ_clean_linker_0, # of connection points: 2
#     Edge 115, Type (0, 1), BuildingBlock: MIFKUJ_clean_linker_0, # of connection points: 2
#     Edge 116, Type (0, 1), BuildingBlock: MIFKUJ_clean_linker_0, # of connection points: 2
#     Edge 117, Type (0, 1), BuildingBlock: MIFKUJ_clean_linker_0, # of connection points: 2
#     Edge 118, Type (0, 1), BuildingBlock: MIFKUJ_clean_linker_0, # of connection points: 2
#     Edge 119, Type (0, 1), BuildingBlock: MIFKUJ_clean_linker_0, # of connection points: 2
#     Edge 120, Type (0, 1), BuildingBlock: MIFKUJ_clean_linker_0, # of connection points: 2
#     Edge 121, Type (0, 1), BuildingBlock: MIFKUJ_clean_linker_0, # of connection points: 2
#     Edge 122, Type (0, 1), BuildingBlock: MIFKUJ_clean_linker_0, # of connection points: 2
#     Edge 123, Type (0, 1), BuildingBlock: MIFKUJ_clean_linker_0, # of connection points: 2
#     Edge 124, Type (0, 1), BuildingBlock: MIFKUJ_clean_linker_0, # of connection points: 2
#     Edge 125, Type (0, 1), BuildingBlock: MIFKUJ_clean_linker_0, # of connection points: 2
#     Edge 126, Type (0, 1), BuildingBlock: MIFKUJ_clean_linker_0, # of connection points: 2
#     Edge 127, Type (0, 1), BuildingBlock: MIFKUJ_clean_linker_0, # of connection points: 2
#     Edge 128, Type (0, 1), BuildingBlock: MIFKUJ_clean_linker_0, # of connection points: 2
#     Edge 129, Type (0, 1), BuildingBlock: MIFKUJ_clean_linker_0, # of connection points: 2
#     Edge 130, Type (0, 1), BuildingBlock: MIFKUJ_clean_linker_0, # of connection points: 2
#     Edge 131, Type (0, 1), BuildingBlock: MIFKUJ_clean_linker_0, # of connection points: 2
#     Edge 132, Type (0, 1), BuildingBlock: MIFKUJ_clean_linker_0, # of connection points: 2
#     Edge 133, Type (0, 1), BuildingBlock: MIFKUJ_clean_linker_0, # of connection points: 2
#     Edge 134, Type (0, 1), BuildingBlock: MIFKUJ_clean_linker_0, # of connection points: 2
#     Edge 135, Type (0, 1), BuildingBlock: MIFKUJ_clean_linker_0, # of connection points: 2
#     Edge 136, Type (0, 1), BuildingBlock: MIFKUJ_clean_linker_0, # of connection points: 2
#     Edge 137, Type (0, 1), BuildingBlock: MIFKUJ_clean_linker_0, # of connection points: 2
#     Edge 138, Type (0, 1), BuildingBlock: MIFKUJ_clean_linker_0, # of connection points: 2
#     Edge 139, Type (0, 1), BuildingBlock: MIFKUJ_clean_linker_0, # of connection points: 2
#     Edge 140, Type (0, 1), BuildingBlock: MIFKUJ_clean_linker_0, # of connection points: 2
#     Edge 141, Type (0, 1), BuildingBlock: MIFKUJ_clean_linker_0, # of connection points: 2
#     Edge 142, Type (0, 1), BuildingBlock: MIFKUJ_clean_linker_0, # of connection points: 2
#     Edge 143, Type (0, 1), BuildingBlock: MIFKUJ_clean_linker_0, # of connection points: 2
#     Edge 144, Type (0, 1), BuildingBlock: MIFKUJ_clean_linker_0, # of connection points: 2
#     Edge 145, Type (0, 1), BuildingBlock: MIFKUJ_clean_linker_0, # of connection points: 2
#     Edge 146, Type (0, 1), BuildingBlock: MIFKUJ_clean_linker_0, # of connection points: 2
#     Edge 147, Type (0, 1), BuildingBlock: MIFKUJ_clean_linker_0, # of connection points: 2
#     Edge 148, Type (0, 1), BuildingBlock: MIFKUJ_clean_linker_0, # of connection points: 2
#     Edge 149, Type (0, 1), BuildingBlock: MIFKUJ_clean_linker_0, # of connection points: 2
#     Edge 150, Type (0, 1), BuildingBlock: MIFKUJ_clean_linker_0, # of connection points: 2
#     Edge 151, Type (0, 1), BuildingBlock: MIFKUJ_clean_linker_0, # of connection points: 2
# Relax obj value: 0.001
# Max RMSD: 0.044
# Mean RMSD: 0.020
data_MOF--net-tbo--node1-WUSLED_clean_sbu_0--node2-MUDLON_clean_linker_0--edge1-MIFKUJ_clean_linker_0
_symmetry_space_group_name_H-M    P1
_symmetry_Int_Tables_number       1
_symmetry_cell_setting            triclinic
loop_
_symmetry_equiv_pos_as_xyz
'x, y, z'
_cell_length_a     141.09117
_cell_length_b     141.59596
_cell_length_c     141.27907
_cell_angle_alpha  89.537027
_cell_angle_beta   90.404171
_cell_angle_gamma 90.972732
loop_
_atom_site_label
_atom_site_type_symbol
_atom_site_fract_x
_atom_site_fract_y
_atom_site_fract_z
_atom_type_partial_charge
C0 C 0.19062 0.1547 0.19271 0.0
C1 C 0.20018 0.15574 0.19546 0.0
C2 C 0.20105 0.13885 0.19884 0.0
C3 C 0.20532 0.1479 0.19852 0.0
C4 C 0.19153 0.13782 0.19596 0.0
C5 C 0.18637 0.14566 0.19297 0.0
U6 U 0.18577 0.17649 0.17707 0.0
O7 O 0.1723 0.1814 0.1709 0.0
O8 O 0.18034 0.19042 0.18079 0.0
C9 C 0.17245 0.18919 0.1759 0.0
C10 C 0.18486 0.16291 0.18983 0.0
C11 C 0.16352 0.19157 0.18069 0.0
C12 C 0.15444 0.19461 0.19491 0.0
C13 C 0.16278 0.19162 0.19061 0.0
C14 C 0.14737 0.19722 0.17947 0.0
C15 C 0.14666 0.19757 0.1894 0.0
C16 C 0.15571 0.19429 0.17518 0.0
C17 C 0.20342 0.18324 0.15746 0.0
C18 C 0.20097 0.19602 0.14614 0.0
C19 C 0.21556 0.18725 0.14594 0.0
C20 C 0.21233 0.1817 0.15352 0.0
C21 C 0.20993 0.19449 0.14214 0.0
C22 C 0.19775 0.19045 0.15375 0.0
C23 C 0.20017 0.17721 0.16536 0.0
O24 O 0.18849 0.17135 0.19155 0.0
O25 O 0.18068 0.16233 0.18151 0.0
O26 O 0.19241 0.17218 0.16378 0.0
O27 O 0.20035 0.18114 0.17376 0.0
H28 H 0.20369 0.1626 0.1953 0.0
H29 H 0.21268 0.14891 0.20059 0.0
H30 H 0.188 0.13097 0.19622 0.0
H31 H 0.179 0.14468 0.19095 0.0
H32 H 0.1542 0.19485 0.20257 0.0
H33 H 0.1687 0.18954 0.19503 0.0
H34 H 0.14149 0.19926 0.17499 0.0
H35 H 0.15611 0.19428 0.16753 0.0
H36 H 0.1965 0.20159 0.14346 0.0
H37 H 0.22242 0.18577 0.14295 0.0
H38 H 0.21678 0.17614 0.15627 0.0
H39 H 0.19085 0.19176 0.15674 0.0
C40 C 0.8196 0.18011 0.15901 0.0
C41 C 0.8237 0.18899 0.15701 0.0
C42 C 0.81363 0.19056 0.14299 0.0
C43 C 0.82074 0.19418 0.14908 0.0
C44 C 0.80961 0.18161 0.14502 0.0
C45 C 0.81257 0.17645 0.15296 0.0
U46 U 0.83633 0.17573 0.17991 0.0
O47 O 0.83317 0.17115 0.19448 0.0
O48 O 0.84202 0.1624 0.18547 0.0
C49 C 0.83754 0.16309 0.19356 0.0
C50 C 0.82255 0.17459 0.16735 0.0
C51 C 0.83214 0.15463 0.19657 0.0
C52 C 0.81885 0.14363 0.19475 0.0
C53 C 0.82392 0.15168 0.19171 0.0
C54 C 0.8302 0.14143 0.2075 0.0
C55 C 0.82194 0.1384 0.20268 0.0
C56 C 0.83524 0.14947 0.20446 0.0
C57 C 0.85738 0.19259 0.18421 0.0
C58 C 0.86953 0.18971 0.19613 0.0
C59 C 0.86956 0.20449 0.18737 0.0
C60 C 0.86148 0.20148 0.18237 0.0
C61 C 0.87369 0.19864 0.1943 0.0
C62 C 0.86142 0.18671 0.19114 0.0
C63 C 0.84892 0.18956 0.17882 0.0
O64 O 0.83059 0.17013 0.16651 0.0
O65 O 0.82171 0.17882 0.17554 0.0
O66 O 0.84081 0.1903 0.18324 0.0
O67 O 0.84966 0.18158 0.17421 0.0
H68 H 0.82915 0.19193 0.16161 0.0
H69 H 0.82391 0.20109 0.14779 0.0
H70 H 0.80424 0.17853 0.14042 0.0
H71 H 0.80936 0.16957 0.15437 0.0
H72 H 0.81257 0.14145 0.19083 0.0
H73 H 0.82144 0.15559 0.18558 0.0
H74 H 0.83269 0.13767 0.21371 0.0
H75 H 0.84156 0.15168 0.20832 0.0
H76 H 0.87247 0.18508 0.20149 0.0
H77 H 0.87265 0.21135 0.18569 0.0
H78 H 0.85846 0.20609 0.17703 0.0
H79 H 0.8583 0.17983 0.19268 0.0
C80 C 0.82047 0.83604 0.15689 0.0
C81 C 0.82634 0.82918 0.15303 0.0
C82 C 0.81429 0.82544 0.14108 0.0
C83 C 0.82329 0.82394 0.14517 0.0
C84 C 0.80848 0.83236 0.145 0.0
C85 C 0.81155 0.8376 0.15282 0.0
U86 U 0.83724 0.84134 0.1778 0.0
O87 O 0.8422 0.85502 0.1834 0.0
O88 O 0.83373 0.84543 0.19236 0.0
C89 C 0.83773 0.85383 0.19146 0.0
C90 C 0.82342 0.84156 0.16522 0.0
C91 C 0.832 0.86183 0.19455 0.0
C92 C 0.81974 0.87342 0.19173 0.0
C93 C 0.82497 0.86569 0.18868 0.0
C94 C 0.82846 0.8734 0.20657 0.0
C95 C 0.82146 0.87741 0.20071 0.0
C96 C 0.83367 0.8657 0.20351 0.0
C97 C 0.85919 0.82602 0.18231 0.0
C98 C 0.86692 0.82007 0.19658 0.0
C99 C 0.87617 0.82312 0.18248 0.0
C100 C 0.86799 0.82605 0.17771 0.0
C101 C 0.87572 0.82 0.19195 0.0
C102 C 0.85875 0.82306 0.19183 0.0
C103 C 0.85056 0.82864 0.17691 0.0
O104 O 0.8228 0.83711 0.1734 0.0
O105 O 0.8313 0.84658 0.16434 0.0
O106 O 0.85097 0.83672 0.17227 0.0
O107 O 0.84236 0.8271 0.18107 0.0
H108 H 0.83324 0.82785 0.15612 0.0
H109 H 0.8279 0.8186 0.14239 0.0
H110 H 0.80158 0.83379 0.14196 0.0
H111 H 0.80693 0.84288 0.1557 0.0
H112 H 0.81447 0.87637 0.187 0.0
H113 H 0.82357 0.86278 0.18174 0.0
H114 H 0.82986 0.87616 0.21358 0.0
H115 H 0.83904 0.86278 0.20815 0.0
H116 H 0.86636 0.81781 0.2039 0.0
H117 H 0.8828 0.82307 0.17868 0.0
H118 H 0.86851 0.82822 0.17036 0.0
H119 H 0.8521 0.82296 0.1956 0.0
C120 C 0.16616 0.81678 0.18247 0.0
C121 C 0.16576 0.81687 0.1924 0.0
C122 C 0.14944 0.81085 0.19193 0.0
C123 C 0.15751 0.8139 0.19708 0.0
C124 C 0.14986 0.81092 0.18198 0.0
C125 C 0.15813 0.81382 0.17731 0.0
U126 U 0.18792 0.83298 0.17859 0.0
O127 O 0.20247 0.82947 0.17458 0.0
O128 O 0.19396 0.83852 0.16529 0.0
C129 C 0.20188 0.83387 0.16637 0.0
C130 C 0.17484 0.81962 0.17732 0.0
C131 C 0.20492 0.82847 0.1581 0.0
C132 C 0.20383 0.81466 0.14801 0.0
C133 C 0.20074 0.8197 0.15587 0.0
C134 C 0.21525 0.82716 0.14451 0.0
C135 C 0.21113 0.81834 0.14222 0.0
C136 C 0.21217 0.83216 0.15237 0.0
C137 C 0.19244 0.85397 0.19509 0.0
C138 C 0.20582 0.86488 0.19332 0.0
C139 C 0.19434 0.86729 0.20571 0.0
C140 C 0.18929 0.85924 0.20277 0.0
C141 C 0.20266 0.87024 0.20101 0.0
C142 C 0.20074 0.85682 0.19037 0.0
C143 C 0.18691 0.84562 0.19206 0.0
O144 O 0.17442 0.82764 0.17259 0.0
O145 O 0.18293 0.81854 0.18185 0.0
O146 O 0.19109 0.83745 0.19317 0.0
O147 O 0.18253 0.84643 0.18386 0.0
H148 H 0.17185 0.81915 0.19655 0.0
H149 H 0.15751 0.81385 0.20475 0.0
H150 H 0.14376 0.8088 0.17776 0.0
H151 H 0.15827 0.81374 0.16964 0.0
H152 H 0.20044 0.80794 0.1464 0.0
H153 H 0.1951 0.81676 0.16021 0.0
H154 H 0.22097 0.83013 0.1403 0.0
H155 H 0.2155 0.83892 0.15401 0.0
H156 H 0.21213 0.867 0.18948 0.0
H157 H 0.19178 0.87114 0.21174 0.0
H158 H 0.18291 0.85712 0.20651 0.0
H159 H 0.20325 0.85285 0.1844 0.0
C160 C 0.16625 0.80993 0.83598 0.0
C161 C 0.16305 0.81504 0.82806 0.0
C162 C 0.14981 0.8039 0.82607 0.0
C163 C 0.15489 0.81205 0.82315 0.0
C164 C 0.15307 0.79884 0.83403 0.0
C165 C 0.16121 0.80184 0.83893 0.0
U166 U 0.18718 0.82697 0.8402 0.0
O167 O 0.1932 0.83239 0.85352 0.0
O168 O 0.20195 0.82386 0.84418 0.0
C169 C 0.20119 0.82787 0.85249 0.0
C170 C 0.1748 0.81293 0.84123 0.0
C171 C 0.20444 0.82222 0.86071 0.0
C172 C 0.20148 0.81409 0.87568 0.0
C173 C 0.19816 0.81916 0.86782 0.0
C174 C 0.21737 0.81484 0.86933 0.0
C175 C 0.21115 0.81189 0.87657 0.0
C176 C 0.21406 0.81997 0.86152 0.0
C177 C 0.19035 0.84869 0.82403 0.0
C178 C 0.20331 0.86012 0.82566 0.0
C179 C 0.19105 0.86258 0.81385 0.0
C180 C 0.18654 0.85417 0.81668 0.0
C181 C 0.19947 0.86569 0.81832 0.0
C182 C 0.19878 0.85169 0.8285 0.0
C183 C 0.18536 0.83996 0.82696 0.0
O184 O 0.1828 0.81245 0.83657 0.0
O185 O 0.17406 0.82076 0.84608 0.0
O186 O 0.18106 0.8403 0.83517 0.0
O187 O 0.18996 0.83207 0.82571 0.0
H188 H 0.16687 0.82131 0.82568 0.0
H189 H 0.15264 0.81605 0.81699 0.0
H190 H 0.14927 0.79263 0.83656 0.0
H191 H 0.16357 0.79783 0.84505 0.0
H192 H 0.19649 0.81206 0.88114 0.0
H193 H 0.19069 0.82076 0.86737 0.0
H194 H 0.22482 0.81314 0.86966 0.0
H195 H 0.21903 0.82221 0.8561 0.0
H196 H 0.20974 0.86234 0.8293 0.0
H197 H 0.18797 0.8666 0.80808 0.0
H198 H 0.18006 0.85194 0.81313 0.0
H199 H 0.2018 0.84755 0.83422 0.0
C200 C 0.1597 0.17882 0.82718 0.0
C201 C 0.15575 0.18594 0.8327 0.0
C202 C 0.1438 0.1888 0.82047 0.0
C203 C 0.14784 0.19087 0.82938 0.0
C204 C 0.14781 0.18164 0.81502 0.0
C205 C 0.15568 0.17671 0.81835 0.0
U206 U 0.18108 0.17504 0.84375 0.0
O207 O 0.18667 0.16186 0.84976 0.0
O208 O 0.19548 0.17051 0.8402 0.0
C209 C 0.19452 0.16244 0.84481 0.0
C210 C 0.16806 0.17357 0.83042 0.0
C211 C 0.19737 0.15386 0.83965 0.0
C212 C 0.19514 0.13724 0.83566 0.0
C213 C 0.19203 0.14538 0.84017 0.0
C214 C 0.20893 0.14587 0.82994 0.0
C215 C 0.20365 0.13737 0.83052 0.0
C216 C 0.20584 0.15399 0.83449 0.0
C217 C 0.1864 0.19256 0.8638 0.0
C218 C 0.20012 0.19157 0.87426 0.0
C219 C 0.18884 0.20409 0.87625 0.0
C220 C 0.18347 0.20057 0.86867 0.0
C221 C 0.19726 0.19968 0.87912 0.0
C222 C 0.19473 0.18805 0.86665 0.0
C223 C 0.1807 0.18914 0.85572 0.0
O224 O 0.17628 0.17787 0.82915 0.0
O225 O 0.16735 0.16936 0.83872 0.0
O226 O 0.17607 0.18111 0.85707 0.0
O227 O 0.18482 0.18971 0.84742 0.0
H228 H 0.1588 0.18769 0.83953 0.0
H229 H 0.14498 0.1964 0.83371 0.0
H230 H 0.14481 0.17976 0.80819 0.0
H231 H 0.15862 0.17123 0.814 0.0
H232 H 0.19087 0.13083 0.83618 0.0
H233 H 0.18548 0.145 0.84411 0.0
H234 H 0.21557 0.14619 0.82616 0.0
H235 H 0.21017 0.16037 0.83407 0.0
H236 H 0.20661 0.18805 0.87622 0.0
H237 H 0.18634 0.21025 0.87992 0.0
H238 H 0.17703 0.20412 0.86659 0.0
H239 H 0.1971 0.18185 0.86295 0.0
C240 C 0.82304 0.15404 0.84048 0.0
C241 C 0.82709 0.15201 0.8317 0.0
C242 C 0.81685 0.13803 0.83019 0.0
C243 C 0.82402 0.14408 0.82659 0.0
C244 C 0.81291 0.14007 0.83906 0.0
C245 C 0.81598 0.148 0.84413 0.0
U246 U 0.83979 0.17511 0.84547 0.0
O247 O 0.83644 0.18962 0.84956 0.0
O248 O 0.84474 0.18071 0.85919 0.0
C249 C 0.84018 0.18866 0.85806 0.0
C250 C 0.82598 0.16243 0.8459 0.0
C251 C 0.83435 0.19165 0.86616 0.0
C252 C 0.81977 0.19785 0.87263 0.0
C253 C 0.82495 0.19459 0.86493 0.0
C254 C 0.83322 0.19512 0.88298 0.0
C255 C 0.82386 0.1982 0.88174 0.0
C256 C 0.83841 0.19193 0.87527 0.0
C257 C 0.8617 0.17968 0.82992 0.0
C258 C 0.86992 0.19455 0.82643 0.0
C259 C 0.87803 0.17977 0.82451 0.0
C260 C 0.8699 0.17483 0.82749 0.0
C261 C 0.87813 0.1897 0.82384 0.0
C262 C 0.8618 0.1896 0.82947 0.0
C263 C 0.8531 0.17423 0.83262 0.0
O264 O 0.83384 0.16165 0.85086 0.0
O265 O 0.82536 0.17056 0.84141 0.0
O266 O 0.84494 0.17836 0.83115 0.0
O267 O 0.85352 0.16968 0.84076 0.0
H268 H 0.83257 0.15661 0.82878 0.0
H269 H 0.82714 0.14278 0.81976 0.0
H270 H 0.80751 0.13549 0.84212 0.0
H271 H 0.81281 0.14943 0.85093 0.0
H272 H 0.81255 0.20008 0.87147 0.0
H273 H 0.82158 0.19446 0.85802 0.0
H274 H 0.83661 0.1954 0.88987 0.0
H275 H 0.84567 0.18978 0.8764 0.0
H276 H 0.86967 0.20218 0.82591 0.0
H277 H 0.88426 0.17579 0.82276 0.0
H278 H 0.87 0.16718 0.82782 0.0
H279 H 0.85558 0.19353 0.83134 0.0
C280 C 0.83715 0.85837 0.82411 0.0
C281 C 0.8286 0.86088 0.82835 0.0
C282 C 0.82741 0.87454 0.81778 0.0
C283 C 0.82376 0.86889 0.82521 0.0
C284 C 0.83599 0.87196 0.81359 0.0
C285 C 0.84081 0.86396 0.81672 0.0
U286 U 0.84056 0.83717 0.84073 0.0
O287 O 0.84498 0.82272 0.83752 0.0
O288 O 0.85368 0.83157 0.84697 0.0
C289 C 0.85297 0.8236 0.84229 0.0
C290 C 0.84235 0.84997 0.82726 0.0
C291 C 0.86157 0.82074 0.83728 0.0
C292 C 0.87233 0.82202 0.82394 0.0
C293 C 0.86416 0.82492 0.82862 0.0
C294 C 0.87541 0.8108 0.83658 0.0
C295 C 0.87806 0.81492 0.82786 0.0
C296 C 0.86724 0.81369 0.84122 0.0
C297 C 0.82263 0.83279 0.86081 0.0
C298 C 0.82294 0.81939 0.87169 0.0
C299 C 0.81102 0.83137 0.87337 0.0
C300 C 0.8148 0.83627 0.86561 0.0
C301 C 0.815 0.82283 0.8765 0.0
C302 C 0.82671 0.82432 0.8639 0.0
C303 C 0.82633 0.83809 0.85259 0.0
O304 O 0.8466 0.85066 0.83554 0.0
O305 O 0.83791 0.84183 0.82607 0.0
O306 O 0.82576 0.83375 0.84441 0.0
O307 O 0.83447 0.84256 0.85389 0.0
H308 H 0.82569 0.85665 0.83409 0.0
H309 H 0.81722 0.87072 0.82866 0.0
H310 H 0.83894 0.87605 0.80777 0.0
H311 H 0.84739 0.86211 0.81335 0.0
H312 H 0.87421 0.82541 0.8173 0.0
H313 H 0.85987 0.83042 0.82548 0.0
H314 H 0.87956 0.80523 0.83974 0.0
H315 H 0.86534 0.81037 0.8479 0.0
H316 H 0.82613 0.8128 0.87385 0.0
H317 H 0.80503 0.83432 0.87699 0.0
H318 H 0.81158 0.84282 0.86335 0.0
H319 H 0.83278 0.82153 0.86026 0.0
C320 C 0.18314 0.65464 0.69303 0.0
C321 C 0.1843 0.64701 0.68684 0.0
C322 C 0.19369 0.6387 0.69873 0.0
C323 C 0.18949 0.63912 0.68968 0.0
C324 C 0.19258 0.64636 0.70487 0.0
C325 C 0.18733 0.65422 0.70206 0.0
U326 U 0.17759 0.67567 0.67669 0.0
O327 O 0.16389 0.68114 0.67173 0.0
O328 O 0.17346 0.69014 0.68017 0.0
C329 C 0.16509 0.68924 0.67609 0.0
C330 C 0.17747 0.66297 0.69034 0.0
C331 C 0.15697 0.69249 0.68161 0.0
C332 C 0.14677 0.69164 0.69541 0.0
C333 C 0.15446 0.68825 0.69027 0.0
C334 C 0.14402 0.70343 0.68323 0.0
C335 C 0.14149 0.69932 0.69198 0.0
C336 C 0.15168 0.70005 0.67812 0.0
C337 C 0.19326 0.68018 0.65491 0.0
C338 C 0.19236 0.69415 0.64483 0.0
C339 C 0.20283 0.68145 0.64072 0.0
C340 C 0.19993 0.6764 0.64877 0.0
C341 C 0.19911 0.6904 0.63865 0.0
C342 C 0.18945 0.68907 0.65288 0.0
C343 C 0.19054 0.67479 0.66345 0.0
O344 O 0.18181 0.67122 0.69108 0.0
O345 O 0.1722 0.66224 0.68265 0.0
O346 O 0.18237 0.67021 0.663 0.0
O347 O 0.19191 0.67915 0.67154 0.0
H348 H 0.18119 0.64712 0.67981 0.0
H349 H 0.19029 0.63338 0.68474 0.0
H350 H 0.19564 0.64622 0.71192 0.0
H351 H 0.1865 0.65997 0.70699 0.0
H352 H 0.14507 0.68835 0.70215 0.0
H353 H 0.15848 0.6824 0.69307 0.0
H354 H 0.14003 0.70923 0.68028 0.0
H355 H 0.15349 0.70337 0.67141 0.0
H356 H 0.18929 0.70097 0.6434 0.0
H357 H 0.20813 0.67841 0.63621 0.0
H358 H 0.20297 0.66957 0.65024 0.0
H359 H 0.18426 0.69208 0.65755 0.0
C360 C 0.82284 0.68345 0.66345 0.0
C361 C 0.82102 0.69318 0.66371 0.0
C362 C 0.81691 0.69318 0.6469 0.0
C363 C 0.81805 0.69797 0.65554 0.0
C364 C 0.81886 0.68347 0.64666 0.0
C365 C 0.82176 0.67867 0.65484 0.0
U366 U 0.83892 0.67955 0.68512 0.0
O367 O 0.83536 0.67503 0.69961 0.0
O368 O 0.84468 0.66638 0.69099 0.0
C369 C 0.83994 0.66706 0.69892 0.0
C370 C 0.82569 0.67812 0.67203 0.0
C371 C 0.83465 0.65851 0.70189 0.0
C372 C 0.82135 0.64749 0.70018 0.0
C373 C 0.82632 0.65561 0.69717 0.0
C374 C 0.83302 0.64509 0.7126 0.0
C375 C 0.82463 0.64214 0.70796 0.0
C376 C 0.83797 0.6532 0.70959 0.0
C377 C 0.85954 0.6968 0.68994 0.0
C378 C 0.86998 0.69537 0.70363 0.0
C379 C 0.87286 0.7077 0.69195 0.0
C380 C 0.86498 0.70454 0.68676 0.0
C381 C 0.87547 0.70317 0.70046 0.0
C382 C 0.86208 0.69222 0.69841 0.0
C383 C 0.85132 0.69359 0.68431 0.0
O384 O 0.83381 0.67374 0.67155 0.0
O385 O 0.82439 0.68226 0.68022 0.0
O386 O 0.84304 0.69422 0.68845 0.0
O387 O 0.85237 0.68558 0.67983 0.0
H388 H 0.8218 0.69708 0.67024 0.0
H389 H 0.8165 0.70541 0.65604 0.0
H390 H 0.81822 0.67956 0.64012 0.0
H391 H 0.82314 0.67117 0.65446 0.0
H392 H 0.81487 0.64548 0.69651 0.0
H393 H 0.82365 0.65965 0.69121 0.0
H394 H 0.83584 0.64107 0.7185 0.0
H395 H 0.84441 0.65532 0.71328 0.0
H396 H 0.87172 0.69178 0.71019 0.0
H397 H 0.877 0.71362 0.68922 0.0
H398 H 0.86314 0.70814 0.68021 0.0
H399 H 0.85795 0.68622 0.70097 0.0
C400 C 0.82566 0.33144 0.66099 0.0
C401 C 0.83011 0.323 0.65864 0.0
C402 C 0.81987 0.32131 0.64473 0.0
C403 C 0.82725 0.31797 0.65058 0.0
C404 C 0.81553 0.32985 0.6471 0.0
C405 C 0.8184 0.33485 0.65515 0.0
U406 U 0.84153 0.33567 0.68275 0.0
O407 O 0.84686 0.34899 0.68885 0.0
O408 O 0.83752 0.33966 0.69722 0.0
C409 C 0.84184 0.34794 0.6966 0.0
C410 C 0.82836 0.33672 0.66955 0.0
C411 C 0.83627 0.35615 0.6996 0.0
C412 C 0.82889 0.37129 0.6964 0.0
C413 C 0.83377 0.36339 0.69323 0.0
C414 C 0.82872 0.36472 0.71227 0.0
C415 C 0.82637 0.3721 0.70599 0.0
C416 C 0.83364 0.35687 0.70911 0.0
C417 C 0.86244 0.31914 0.68758 0.0
C418 C 0.87219 0.31939 0.70185 0.0
C419 C 0.87623 0.30915 0.68889 0.0
C420 C 0.86843 0.31241 0.68373 0.0
C421 C 0.87819 0.31255 0.69804 0.0
C422 C 0.86438 0.32266 0.69666 0.0
C423 C 0.85421 0.32231 0.68201 0.0
O424 O 0.82716 0.33217 0.67761 0.0
O425 O 0.83646 0.34144 0.66914 0.0
O426 O 0.85522 0.33051 0.67769 0.0
O427 O 0.8459 0.32117 0.68605 0.0
H428 H 0.83574 0.32026 0.66309 0.0
H429 H 0.83068 0.31139 0.64902 0.0
H430 H 0.80995 0.33271 0.6427 0.0
H431 H 0.81491 0.34138 0.65684 0.0
H432 H 0.82728 0.37685 0.69137 0.0
H433 H 0.83568 0.36301 0.68583 0.0
H434 H 0.82675 0.36498 0.71965 0.0
H435 H 0.83546 0.35136 0.71414 0.0
H436 H 0.87344 0.3221 0.7089 0.0
H437 H 0.88076 0.30401 0.68565 0.0
H438 H 0.86707 0.30965 0.67671 0.0
H439 H 0.85983 0.32788 0.69975 0.0
C440 C 0.16216 0.31266 0.68683 0.0
C441 C 0.16043 0.31664 0.69571 0.0
C442 C 0.14594 0.30711 0.69725 0.0
C443 C 0.15241 0.31386 0.70089 0.0
C444 C 0.14772 0.30319 0.68832 0.0
C445 C 0.15575 0.30594 0.68318 0.0
U446 U 0.18325 0.32924 0.68198 0.0
O447 O 0.1978 0.32607 0.67765 0.0
O448 O 0.1888 0.33475 0.66845 0.0
C449 C 0.19687 0.33033 0.6694 0.0
C450 C 0.17054 0.31548 0.68127 0.0
C451 C 0.19986 0.3249 0.66112 0.0
C452 C 0.19872 0.31104 0.65109 0.0
C453 C 0.19571 0.31609 0.65899 0.0
C454 C 0.20999 0.3236 0.64737 0.0
C455 C 0.20592 0.31472 0.64519 0.0
C456 C 0.20698 0.32862 0.65526 0.0
C457 C 0.18729 0.35052 0.69842 0.0
C458 C 0.20033 0.36189 0.69696 0.0
C459 C 0.18858 0.36375 0.7092 0.0
C460 C 0.18384 0.3556 0.70608 0.0
C461 C 0.19691 0.367 0.70471 0.0
C462 C 0.19556 0.3537 0.69385 0.0
C463 C 0.18212 0.34196 0.69535 0.0
O464 O 0.16978 0.3234 0.67642 0.0
O465 O 0.17875 0.31472 0.68564 0.0
O466 O 0.18663 0.33397 0.69643 0.0
O467 O 0.17761 0.3426 0.68721 0.0
H468 H 0.16528 0.32189 0.69862 0.0
H469 H 0.1512 0.3171 0.70769 0.0
H470 H 0.14296 0.29789 0.68536 0.0
H471 H 0.15697 0.30279 0.67634 0.0
H472 H 0.1955 0.30419 0.64969 0.0
H473 H 0.19019 0.3131 0.66345 0.0
H474 H 0.21543 0.32673 0.64292 0.0
H475 H 0.21023 0.33544 0.65677 0.0
H476 H 0.20676 0.36414 0.6934 0.0
H477 H 0.18564 0.36758 0.71506 0.0
H478 H 0.17744 0.35327 0.70966 0.0
H479 H 0.19833 0.34985 0.68791 0.0
C480 C 0.1615 0.30891 0.3347 0.0
C481 C 0.15656 0.3149 0.32851 0.0
C482 C 0.14582 0.30193 0.3242 0.0
C483 C 0.14876 0.31145 0.32333 0.0
C484 C 0.15088 0.29595 0.33035 0.0
C485 C 0.15864 0.29942 0.33555 0.0
U486 U 0.18116 0.32714 0.33985 0.0
O487 O 0.18602 0.33297 0.35347 0.0
O488 O 0.19583 0.32504 0.34469 0.0
C489 C 0.19439 0.3291 0.35288 0.0
C490 C 0.16958 0.31243 0.34037 0.0
C491 C 0.19742 0.32371 0.36129 0.0
C492 C 0.19683 0.30954 0.37113 0.0
C493 C 0.19388 0.31454 0.36307 0.0
C494 C 0.20682 0.32284 0.37572 0.0
C495 C 0.20332 0.31364 0.37756 0.0
C496 C 0.2039 0.32781 0.36765 0.0
C497 C 0.1841 0.34875 0.32347 0.0
C498 C 0.19557 0.36146 0.32624 0.0
C499 C 0.1856 0.36171 0.3122 0.0
C500 C 0.18132 0.35318 0.31503 0.0
C501 C 0.19275 0.36599 0.31778 0.0
C502 C 0.19127 0.35291 0.32906 0.0
C503 C 0.17939 0.33983 0.3263 0.0
O504 O 0.17786 0.31235 0.33617 0.0
O505 O 0.16814 0.32023 0.34509 0.0
O506 O 0.17462 0.34004 0.33425 0.0
O507 O 0.18447 0.33219 0.32545 0.0
H508 H 0.15871 0.32224 0.32771 0.0
H509 H 0.14509 0.3162 0.31857 0.0
H510 H 0.14874 0.28862 0.33126 0.0
H511 H 0.16237 0.2947 0.3403 0.0
H512 H 0.19392 0.30251 0.37239 0.0
H513 H 0.18882 0.31128 0.35824 0.0
H514 H 0.21193 0.32615 0.38045 0.0
H515 H 0.20671 0.33487 0.36638 0.0
H516 H 0.20099 0.36459 0.33074 0.0
H517 H 0.18337 0.3649 0.30558 0.0
H518 H 0.17583 0.35004 0.31061 0.0
H519 H 0.1935 0.34956 0.33561 0.0
C520 C 0.1556 0.68439 0.32342 0.0
C521 C 0.14933 0.68831 0.32994 0.0
C522 C 0.13988 0.69491 0.31701 0.0
C523 C 0.14153 0.69349 0.32677 0.0
C524 C 0.14629 0.69108 0.31054 0.0
C525 C 0.15403 0.68586 0.31372 0.0
U526 U 0.17669 0.67932 0.33995 0.0
O527 O 0.18172 0.66587 0.34583 0.0
O528 O 0.19093 0.67428 0.33642 0.0
C529 C 0.18962 0.6662 0.34093 0.0
C530 C 0.16374 0.67868 0.32651 0.0
C531 C 0.19207 0.65758 0.33565 0.0
C532 C 0.18824 0.6418 0.32984 0.0
C533 C 0.18556 0.65004 0.33447 0.0
C534 C 0.2039 0.64854 0.32731 0.0
C535 C 0.19745 0.64093 0.32625 0.0
C536 C 0.20125 0.65675 0.33199 0.0
C537 C 0.18196 0.69666 0.36038 0.0
C538 C 0.19551 0.69597 0.37109 0.0
C539 C 0.18371 0.70801 0.3731 0.0
C540 C 0.17863 0.70444 0.36535 0.0
C541 C 0.19225 0.70387 0.37604 0.0
C542 C 0.19041 0.6924 0.3633 0.0
C543 C 0.17652 0.69327 0.35211 0.0
O544 O 0.17214 0.68264 0.32535 0.0
O545 O 0.16288 0.67415 0.33463 0.0
O546 O 0.17168 0.68534 0.3533 0.0
O547 O 0.1809 0.69378 0.34394 0.0
H548 H 0.15041 0.68732 0.33748 0.0
H549 H 0.13672 0.69624 0.33196 0.0
H550 H 0.14538 0.69217 0.303 0.0
H551 H 0.1588 0.68295 0.30857 0.0
H552 H 0.18307 0.63611 0.32905 0.0
H553 H 0.17842 0.65046 0.33716 0.0
H554 H 0.21108 0.64807 0.32472 0.0
H555 H 0.20642 0.66243 0.33286 0.0
H556 H 0.20209 0.69266 0.37311 0.0
H557 H 0.18089 0.71398 0.37683 0.0
H558 H 0.1721 0.70779 0.36322 0.0
H559 H 0.19308 0.68638 0.35953 0.0
C560 C 0.82754 0.65906 0.33486 0.0
C561 C 0.8344 0.65342 0.33065 0.0
C562 C 0.82205 0.64273 0.32463 0.0
C563 C 0.83169 0.64532 0.32562 0.0
C564 C 0.81521 0.64852 0.32874 0.0
C565 C 0.81793 0.65658 0.33382 0.0
U566 U 0.84339 0.68078 0.33946 0.0
O567 O 0.83969 0.69504 0.3441 0.0
O568 O 0.84916 0.68641 0.35284 0.0
C569 C 0.84438 0.69427 0.35213 0.0
C570 C 0.83022 0.66749 0.34042 0.0
C571 C 0.83926 0.69709 0.36067 0.0
C572 C 0.82602 0.69545 0.37153 0.0
C573 C 0.83082 0.6925 0.36344 0.0
C574 C 0.8381 0.70753 0.37415 0.0
C575 C 0.82959 0.70304 0.37697 0.0
C576 C 0.84287 0.70458 0.36609 0.0
C577 C 0.86385 0.68647 0.32236 0.0
C578 C 0.87848 0.69533 0.3254 0.0
C579 C 0.87276 0.69344 0.30931 0.0
C580 C 0.86496 0.68821 0.31264 0.0
C581 C 0.87968 0.69701 0.31563 0.0
C582 C 0.87063 0.69013 0.32873 0.0
C583 C 0.85568 0.68067 0.32559 0.0
O584 O 0.83831 0.6671 0.34507 0.0
O585 O 0.82889 0.67567 0.3362 0.0
O586 O 0.84735 0.68464 0.32485 0.0
O587 O 0.8568 0.67591 0.33354 0.0
H588 H 0.84187 0.65522 0.33131 0.0
H589 H 0.83717 0.641 0.32266 0.0
H590 H 0.80772 0.64688 0.32798 0.0
H591 H 0.81252 0.66087 0.33695 0.0
H592 H 0.81945 0.69189 0.37344 0.0
H593 H 0.82792 0.6867 0.35933 0.0
H594 H 0.84115 0.71328 0.37824 0.0
H595 H 0.8494 0.70818 0.36407 0.0
H596 H 0.88369 0.69787 0.33047 0.0
H597 H 0.87332 0.69474 0.30177 0.0
H598 H 0.85979 0.68549 0.30761 0.0
H599 H 0.86992 0.68892 0.33627 0.0
C600 C 0.84556 0.35868 0.32373 0.0
C601 C 0.8356 0.35894 0.32377 0.0
C602 C 0.83604 0.37516 0.31775 0.0
C603 C 0.8309 0.36708 0.32077 0.0
C604 C 0.84601 0.3749 0.31789 0.0
C605 C 0.8507 0.36674 0.32082 0.0
U606 U 0.84955 0.33712 0.33986 0.0
O607 O 0.85328 0.32257 0.33621 0.0
O608 O 0.86287 0.33107 0.34513 0.0
C609 C 0.86157 0.32314 0.34049 0.0
C610 C 0.85072 0.35008 0.32649 0.0
C611 C 0.8697 0.31994 0.33498 0.0
C612 C 0.8809 0.32192 0.32207 0.0
C613 C 0.87312 0.32513 0.32718 0.0
C614 C 0.88187 0.3083 0.3325 0.0
C615 C 0.8854 0.31347 0.32469 0.0
C616 C 0.87411 0.31151 0.33758 0.0
C617 C 0.83315 0.33286 0.36114 0.0
C618 C 0.83331 0.31874 0.37106 0.0
C619 C 0.82356 0.33193 0.37534 0.0
C620 C 0.8267 0.33691 0.36734 0.0
C621 C 0.82681 0.32278 0.37731 0.0
C622 C 0.83648 0.32375 0.36306 0.0
C623 C 0.83627 0.33826 0.35274 0.0
O624 O 0.85559 0.35056 0.33444 0.0
O625 O 0.84612 0.34199 0.32545 0.0
O626 O 0.83497 0.33407 0.34455 0.0
O627 O 0.84457 0.34255 0.35349 0.0
H628 H 0.83145 0.35283 0.32601 0.0
H629 H 0.82322 0.36696 0.32066 0.0
H630 H 0.85022 0.38101 0.31579 0.0
H631 H 0.85838 0.36671 0.32078 0.0
H632 H 0.88348 0.32612 0.31616 0.0
H633 H 0.86979 0.33167 0.32507 0.0
H634 H 0.88504 0.30169 0.33463 0.0
H635 H 0.87154 0.30739 0.34356 0.0
H636 H 0.83603 0.31174 0.37241 0.0
H637 H 0.81845 0.33521 0.3799 0.0
H638 H 0.82405 0.34393 0.36596 0.0
H639 H 0.84151 0.32053 0.35837 0.0
C640 C 0.68857 0.15878 0.69911 0.0
C641 C 0.69605 0.15519 0.6938 0.0
C642 C 0.69845 0.14276 0.70562 0.0
C643 C 0.70094 0.14723 0.69702 0.0
C644 C 0.69094 0.14643 0.71088 0.0
C645 C 0.68606 0.15436 0.70765 0.0
U646 U 0.68447 0.17929 0.68176 0.0
O647 O 0.67112 0.18479 0.67598 0.0
O648 O 0.68039 0.19394 0.68459 0.0
C649 C 0.67218 0.19297 0.68023 0.0
C650 C 0.68331 0.1671 0.69586 0.0
C651 C 0.66389 0.19629 0.68544 0.0
C652 C 0.6516 0.19405 0.69729 0.0
C653 C 0.65956 0.19074 0.69251 0.0
C654 C 0.65231 0.2085 0.688 0.0
C655 C 0.64789 0.20298 0.69509 0.0
C656 C 0.66022 0.20518 0.68323 0.0
C657 C 0.70105 0.18283 0.66054 0.0
C658 C 0.70002 0.19605 0.6495 0.0
C659 C 0.71135 0.18369 0.64685 0.0
C660 C 0.70826 0.17904 0.65506 0.0
C661 C 0.70727 0.19226 0.64394 0.0
C662 C 0.69692 0.19136 0.65772 0.0
C663 C 0.69796 0.17777 0.66915 0.0
O664 O 0.6879 0.17523 0.69644 0.0
O665 O 0.6786 0.16611 0.68786 0.0
O666 O 0.68977 0.17325 0.66853 0.0
O667 O 0.69905 0.1824 0.67713 0.0
H668 H 0.69811 0.15854 0.68719 0.0
H669 H 0.70675 0.14466 0.69284 0.0
H670 H 0.68874 0.1431 0.71745 0.0
H671 H 0.68029 0.15703 0.71182 0.0
H672 H 0.64844 0.18966 0.70277 0.0
H673 H 0.66232 0.18386 0.69434 0.0
H674 H 0.64957 0.21534 0.68603 0.0
H675 H 0.66346 0.20955 0.67777 0.0
H676 H 0.69667 0.20258 0.64743 0.0
H677 H 0.71703 0.18064 0.64284 0.0
H678 H 0.71155 0.17247 0.65715 0.0
H679 H 0.69132 0.19438 0.66187 0.0
C680 C 0.32192 0.17495 0.66193 0.0
C681 C 0.3266 0.1831 0.65852 0.0
C682 C 0.31536 0.18409 0.64536 0.0
C683 C 0.32334 0.18764 0.65031 0.0
C684 C 0.31074 0.17589 0.64882 0.0
C685 C 0.314 0.17137 0.65702 0.0
U686 U 0.33923 0.17232 0.6827 0.0
O687 O 0.3364 0.16877 0.69762 0.0
O688 O 0.34521 0.15951 0.6891 0.0
C689 C 0.34085 0.16071 0.69719 0.0
C690 C 0.32517 0.17012 0.67058 0.0
C691 C 0.33561 0.1524 0.70086 0.0
C692 C 0.32359 0.14003 0.6991 0.0
C693 C 0.32838 0.14802 0.69553 0.0
C694 C 0.33314 0.14081 0.7134 0.0
C695 C 0.32594 0.1363 0.70807 0.0
C696 C 0.33793 0.14878 0.70981 0.0
C697 C 0.36023 0.18962 0.68524 0.0
C698 C 0.37089 0.18965 0.69883 0.0
C699 C 0.37414 0.19996 0.68543 0.0
C700 C 0.36598 0.19652 0.68087 0.0
C701 C 0.3767 0.19658 0.69448 0.0
C702 C 0.36274 0.18618 0.69424 0.0
C703 C 0.35167 0.18613 0.68029 0.0
O704 O 0.33325 0.1657 0.66989 0.0
O705 O 0.32448 0.17497 0.67843 0.0
O706 O 0.34365 0.18713 0.68482 0.0
O707 O 0.3524 0.17783 0.67629 0.0
H708 H 0.33275 0.18594 0.66222 0.0
H709 H 0.32712 0.19388 0.64779 0.0
H710 H 0.30451 0.17304 0.64527 0.0
H711 H 0.31029 0.1651 0.65958 0.0
H712 H 0.31815 0.13668 0.69478 0.0
H713 H 0.32649 0.15074 0.68859 0.0
H714 H 0.33503 0.13825 0.72039 0.0
H715 H 0.34346 0.15211 0.71404 0.0
H716 H 0.37272 0.18682 0.70574 0.0
H717 H 0.37836 0.20539 0.68193 0.0
H718 H 0.36413 0.19926 0.67393 0.0
H719 H 0.35839 0.18081 0.69769 0.0
C720 C 0.32135 0.8335 0.66115 0.0
C721 C 0.32563 0.82513 0.65828 0.0
C722 C 0.31491 0.82411 0.64467 0.0
C723 C 0.32243 0.82047 0.65012 0.0
C724 C 0.31068 0.83252 0.64761 0.0
C725 C 0.31387 0.83715 0.65576 0.0
U726 U 0.33819 0.8367 0.68236 0.0
O727 O 0.3444 0.84975 0.68831 0.0
O728 O 0.33506 0.84075 0.697 0.0
C729 C 0.33982 0.84878 0.69634 0.0
C730 C 0.32457 0.83852 0.66971 0.0
C731 C 0.33485 0.8572 0.69958 0.0
C732 C 0.32194 0.86832 0.6983 0.0
C733 C 0.32657 0.8603 0.69505 0.0
C734 C 0.33386 0.87023 0.7106 0.0
C735 C 0.32554 0.8734 0.70612 0.0
C736 C 0.33845 0.86221 0.70736 0.0
C737 C 0.35853 0.8194 0.68629 0.0
C738 C 0.36921 0.82001 0.69987 0.0
C739 C 0.3717 0.80861 0.68747 0.0
C740 C 0.36379 0.81201 0.68258 0.0
C741 C 0.37451 0.81255 0.6962 0.0
C742 C 0.36128 0.82341 0.69496 0.0
C743 C 0.35023 0.82282 0.68099 0.0
O744 O 0.32349 0.83388 0.67774 0.0
O745 O 0.33283 0.8429 0.66906 0.0
O746 O 0.35137 0.831 0.67664 0.0
O747 O 0.34205 0.82198 0.68534 0.0
H748 H 0.33145 0.82222 0.66235 0.0
H749 H 0.32593 0.81407 0.64802 0.0
H750 H 0.30479 0.83546 0.64367 0.0
H751 H 0.31046 0.8436 0.65789 0.0
H752 H 0.31562 0.87062 0.69462 0.0
H753 H 0.3237 0.85652 0.68901 0.0
H754 H 0.33675 0.87386 0.71672 0.0
H755 H 0.34482 0.8599 0.71096 0.0
H756 H 0.3711 0.82314 0.70661 0.0
H757 H 0.37569 0.80298 0.68435 0.0
H758 H 0.3618 0.80887 0.67588 0.0
H759 H 0.35729 0.82913 0.69792 0.0
C760 C 0.66242 0.81837 0.68323 0.0
C761 C 0.65959 0.82286 0.69155 0.0
C762 C 0.64593 0.81212 0.69283 0.0
C763 C 0.65143 0.81975 0.69632 0.0
C764 C 0.64884 0.80767 0.68448 0.0
C765 C 0.657 0.81077 0.67974 0.0
U766 U 0.68351 0.83534 0.67984 0.0
O767 O 0.69823 0.83244 0.67588 0.0
O768 O 0.68949 0.84145 0.66677 0.0
C769 C 0.69757 0.83707 0.66781 0.0
C770 C 0.67096 0.82153 0.67811 0.0
C771 C 0.70095 0.83209 0.65941 0.0
C772 C 0.69945 0.81952 0.64782 0.0
C773 C 0.69611 0.82411 0.65587 0.0
C774 C 0.71248 0.83084 0.64682 0.0
C775 C 0.70767 0.82285 0.64318 0.0
C776 C 0.70914 0.8354 0.65484 0.0
C777 C 0.68714 0.85594 0.69702 0.0
C778 C 0.70042 0.86707 0.69604 0.0
C779 C 0.68842 0.86901 0.70802 0.0
C780 C 0.6836 0.86098 0.70468 0.0
C781 C 0.69691 0.87215 0.70376 0.0
C782 C 0.69558 0.85902 0.6927 0.0
C783 C 0.68193 0.84752 0.69366 0.0
O784 O 0.67029 0.82965 0.6736 0.0
O785 O 0.67901 0.82066 0.68276 0.0
O786 O 0.68637 0.83947 0.69458 0.0
O787 O 0.67761 0.84844 0.68544 0.0
H788 H 0.66369 0.82876 0.69433 0.0
H789 H 0.64935 0.8234 0.70266 0.0
H790 H 0.64487 0.8017 0.68167 0.0
H791 H 0.65909 0.80721 0.67334 0.0
H792 H 0.69552 0.81345 0.64517 0.0
H793 H 0.68975 0.82146 0.65931 0.0
H794 H 0.71891 0.83351 0.64353 0.0
H795 H 0.71299 0.84153 0.6575 0.0
H796 H 0.70698 0.86923 0.69265 0.0
H797 H 0.68543 0.87282 0.71386 0.0
H798 H 0.67707 0.85872 0.70807 0.0
H799 H 0.69842 0.8552 0.68678 0.0
C800 C 0.65968 0.81616 0.3372 0.0
C801 C 0.65273 0.82245 0.33402 0.0
C802 C 0.64349 0.8094 0.32726 0.0
C803 C 0.6447 0.8191 0.32914 0.0
C804 C 0.65055 0.80316 0.33036 0.0
C805 C 0.65853 0.8065 0.3353 0.0
U806 U 0.68007 0.83385 0.34144 0.0
O807 O 0.68597 0.83951 0.35472 0.0
O808 O 0.69496 0.83135 0.3453 0.0
C809 C 0.69419 0.83545 0.35357 0.0
C810 C 0.66814 0.81946 0.34251 0.0
C811 C 0.69771 0.83 0.36173 0.0
C812 C 0.69574 0.81756 0.37356 0.0
C813 C 0.69227 0.82263 0.36576 0.0
C814 C 0.71015 0.82711 0.37331 0.0
C815 C 0.70474 0.81973 0.37742 0.0
C816 C 0.70666 0.83219 0.36555 0.0
C817 C 0.68254 0.85532 0.32477 0.0
C818 C 0.69446 0.86779 0.32665 0.0
C819 C 0.68384 0.86794 0.3131 0.0
C820 C 0.67948 0.85962 0.31636 0.0
C821 C 0.69137 0.87217 0.31821 0.0
C822 C 0.69008 0.85943 0.32991 0.0
C823 C 0.67779 0.84656 0.32799 0.0
O824 O 0.6762 0.81914 0.33793 0.0
O825 O 0.66722 0.82723 0.34743 0.0
O826 O 0.67359 0.84695 0.33625 0.0
O827 O 0.68258 0.83878 0.32684 0.0
H828 H 0.65347 0.82995 0.33536 0.0
H829 H 0.63938 0.82411 0.32697 0.0
H830 H 0.64998 0.79567 0.32889 0.0
H831 H 0.66384 0.80153 0.33763 0.0
H832 H 0.69144 0.81185 0.37648 0.0
H833 H 0.68535 0.82081 0.36286 0.0
H834 H 0.71704 0.82905 0.37618 0.0
H835 H 0.71094 0.83787 0.36254 0.0
H836 H 0.70018 0.87088 0.3308 0.0
H837 H 0.68138 0.87101 0.3065 0.0
H838 H 0.67371 0.85651 0.31228 0.0
H839 H 0.69254 0.85618 0.33642 0.0
C840 C 0.65877 0.18463 0.32489 0.0
C841 C 0.65091 0.18526 0.33092 0.0
C842 C 0.64291 0.19553 0.31958 0.0
C843 C 0.64307 0.19064 0.32828 0.0
C844 C 0.65079 0.19492 0.31358 0.0
C845 C 0.6586 0.1895 0.31619 0.0
U846 U 0.68055 0.17878 0.34024 0.0
O847 O 0.68579 0.16508 0.3453 0.0
O848 O 0.69465 0.17399 0.33603 0.0
C849 C 0.69365 0.1658 0.34038 0.0
C850 C 0.66703 0.17872 0.32735 0.0
C851 C 0.69613 0.15746 0.33482 0.0
C852 C 0.69308 0.14642 0.322 0.0
C853 C 0.69047 0.15434 0.32722 0.0
C854 C 0.707 0.14469 0.33196 0.0
C855 C 0.70142 0.14153 0.32428 0.0
C856 C 0.70438 0.15257 0.33716 0.0
C857 C 0.68697 0.19511 0.36107 0.0
C858 C 0.69876 0.19183 0.37326 0.0
C859 C 0.69196 0.20739 0.37203 0.0
C860 C 0.6864 0.20439 0.36436 0.0
C861 C 0.69822 0.20116 0.37658 0.0
C862 C 0.69321 0.18884 0.36554 0.0
C863 C 0.68099 0.19221 0.35298 0.0
O864 O 0.67542 0.18265 0.32598 0.0
O865 O 0.66654 0.17379 0.33527 0.0
O866 O 0.67614 0.18426 0.35402 0.0
O867 O 0.68491 0.19311 0.3446 0.0
H868 H 0.65078 0.1816 0.33768 0.0
H869 H 0.63715 0.19103 0.3331 0.0
H870 H 0.65084 0.1985 0.30678 0.0
H871 H 0.6645 0.18906 0.31136 0.0
H872 H 0.68867 0.14423 0.31608 0.0
H873 H 0.68407 0.15805 0.3253 0.0
H874 H 0.71337 0.14102 0.33402 0.0
H875 H 0.70881 0.15486 0.34304 0.0
H876 H 0.70357 0.18688 0.37654 0.0
H877 H 0.69126 0.21457 0.37447 0.0
H878 H 0.68162 0.20932 0.36101 0.0
H879 H 0.69378 0.18165 0.36306 0.0
C880 C 0.32753 0.15239 0.3369 0.0
C881 C 0.33256 0.15029 0.32867 0.0
C882 C 0.32216 0.13665 0.3258 0.0
C883 C 0.32989 0.14249 0.32316 0.0
C884 C 0.31717 0.13881 0.33407 0.0
C885 C 0.31983 0.14661 0.33956 0.0
U886 U 0.3436 0.17366 0.34257 0.0
O887 O 0.34001 0.18784 0.3475 0.0
O888 O 0.34893 0.17873 0.35636 0.0
C889 C 0.34418 0.18663 0.35577 0.0
C890 C 0.33019 0.16056 0.34277 0.0
C891 C 0.33873 0.18919 0.36425 0.0
C892 C 0.32399 0.19334 0.37194 0.0
C893 C 0.32886 0.19037 0.36392 0.0
C894 C 0.33873 0.19376 0.38082 0.0
C895 C 0.32887 0.19516 0.38049 0.0
C896 C 0.34359 0.19085 0.37279 0.0
C897 C 0.36475 0.17954 0.32652 0.0
C898 C 0.37413 0.19407 0.32753 0.0
C899 C 0.37898 0.18158 0.31709 0.0
C900 C 0.37115 0.17608 0.31991 0.0
C901 C 0.38055 0.19066 0.32082 0.0
C902 C 0.36631 0.18854 0.33037 0.0
C903 C 0.35644 0.17371 0.32918 0.0
O904 O 0.3382 0.15982 0.3475 0.0
O905 O 0.32917 0.16888 0.33874 0.0
O906 O 0.34818 0.17779 0.32826 0.0
O907 O 0.35726 0.16883 0.33709 0.0
H908 H 0.33855 0.15468 0.32653 0.0
H909 H 0.33396 0.14098 0.31689 0.0
H910 H 0.3111 0.13456 0.33625 0.0
H911 H 0.31585 0.14814 0.34588 0.0
H912 H 0.31643 0.19443 0.37137 0.0
H913 H 0.3249 0.18913 0.35743 0.0
H914 H 0.34271 0.19491 0.3873 0.0
H915 H 0.35119 0.18998 0.37322 0.0
H916 H 0.37519 0.20098 0.33062 0.0
H917 H 0.3837 0.17878 0.31183 0.0
H918 H 0.37005 0.16915 0.31685 0.0
H919 H 0.36145 0.19131 0.33553 0.0
C920 C 0.33978 0.85593 0.3199 0.0
C921 C 0.33167 0.8592 0.32445 0.0
C922 C 0.33085 0.87249 0.31338 0.0
C923 C 0.32723 0.8674 0.32121 0.0
C924 C 0.33899 0.86915 0.30888 0.0
C925 C 0.3434 0.86096 0.31211 0.0
U926 U 0.34246 0.83484 0.33687 0.0
O927 O 0.34599 0.8201 0.33369 0.0
O928 O 0.35536 0.82859 0.34285 0.0
C929 C 0.35414 0.82063 0.33824 0.0
C930 C 0.34454 0.8473 0.32312 0.0
C931 C 0.36244 0.81716 0.3331 0.0
C932 C 0.37697 0.8199 0.32422 0.0
C933 C 0.36893 0.82338 0.3287 0.0
C934 C 0.37198 0.80393 0.32826 0.0
C935 C 0.37864 0.81012 0.32402 0.0
C936 C 0.36399 0.80742 0.33277 0.0
C937 C 0.32524 0.83155 0.35762 0.0
C938 C 0.3262 0.81867 0.36907 0.0
C939 C 0.31407 0.83046 0.3706 0.0
C940 C 0.31746 0.83507 0.36248 0.0
C941 C 0.31841 0.82222 0.37403 0.0
C942 C 0.32959 0.82331 0.36093 0.0
C943 C 0.32874 0.83664 0.34918 0.0
O944 O 0.34906 0.84791 0.33127 0.0
O945 O 0.3396 0.83941 0.32222 0.0
O946 O 0.32766 0.83221 0.34109 0.0
O947 O 0.33709 0.8408 0.35009 0.0
H948 H 0.32879 0.8554 0.3305 0.0
H949 H 0.32104 0.86982 0.3249 0.0
H950 H 0.34188 0.87279 0.30275 0.0
H951 H 0.34964 0.85852 0.3085 0.0
H952 H 0.38197 0.82488 0.32111 0.0
H953 H 0.36786 0.83094 0.32883 0.0
H954 H 0.37291 0.79636 0.32809 0.0
H955 H 0.35903 0.8025 0.33607 0.0
H956 H 0.32976 0.8124 0.37155 0.0
H957 H 0.30798 0.83331 0.37413 0.0
H958 H 0.314 0.84141 0.36001 0.0
H959 H 0.33564 0.8205 0.35727 0.0
C960 C 0.69025 0.65649 0.20152 0.0
C961 C 0.69641 0.6519 0.19537 0.0
C962 C 0.70056 0.64067 0.20788 0.0
C963 C 0.70151 0.64406 0.19852 0.0
C964 C 0.69447 0.64542 0.21402 0.0
C965 C 0.68937 0.65324 0.21086 0.0
U966 U 0.68492 0.67688 0.1843 0.0
O967 O 0.67121 0.68149 0.17851 0.0
O968 O 0.67981 0.69114 0.18723 0.0
C969 C 0.67167 0.68965 0.18286 0.0
C970 C 0.68454 0.66454 0.1983 0.0
C971 C 0.66313 0.69224 0.18811 0.0
C972 C 0.65331 0.69155 0.2022 0.0
C973 C 0.66149 0.68893 0.19736 0.0
C974 C 0.64831 0.70071 0.18855 0.0
C975 C 0.64661 0.69747 0.19784 0.0
C976 C 0.65649 0.69812 0.18375 0.0
C977 C 0.70133 0.68153 0.16307 0.0
C978 C 0.69834 0.69317 0.15069 0.0
C979 C 0.71275 0.68413 0.15049 0.0
C980 C 0.70995 0.67944 0.15878 0.0
C981 C 0.70696 0.69102 0.14629 0.0
C982 C 0.69554 0.68846 0.15901 0.0
C983 C 0.69852 0.67632 0.1717 0.0
O984 O 0.68866 0.67291 0.19896 0.0
O985 O 0.67987 0.66335 0.1903 0.0
O986 O 0.69063 0.67128 0.17107 0.0
O987 O 0.69928 0.68102 0.17966 0.0
H988 H 0.69719 0.65433 0.18812 0.0
H989 H 0.70605 0.64054 0.19356 0.0
H990 H 0.69369 0.64314 0.22131 0.0
H991 H 0.68469 0.65672 0.21572 0.0
H992 H 0.65217 0.68885 0.2093 0.0
H993 H 0.66652 0.68433 0.20082 0.0
H994 H 0.64338 0.70538 0.18503 0.0
H995 H 0.65764 0.70075 0.17662 0.0
H996 H 0.69367 0.69838 0.14762 0.0
H997 H 0.7195 0.6824 0.14741 0.0
H998 H 0.71453 0.67414 0.16184 0.0
H999 H 0.68885 0.69017 0.16224 0.0
C1000 C 0.32274 0.67387 0.16329 0.0
C1001 C 0.32719 0.68246 0.16078 0.0
C1002 C 0.31708 0.68364 0.14674 0.0
C1003 C 0.32438 0.68731 0.15257 0.0
C1004 C 0.31272 0.67498 0.14929 0.0
C1005 C 0.31553 0.67016 0.15749 0.0
U1006 U 0.3391 0.66984 0.18467 0.0
O1007 O 0.33561 0.66588 0.19932 0.0
O1008 O 0.3442 0.65644 0.19075 0.0
C1009 C 0.33954 0.65755 0.19868 0.0
C1010 C 0.32553 0.66866 0.17189 0.0
C1011 C 0.33384 0.64932 0.202 0.0
C1012 C 0.31896 0.64223 0.20738 0.0
C1013 C 0.32405 0.64995 0.20363 0.0
C1014 C 0.33327 0.63303 0.20764 0.0
C1015 C 0.32353 0.63371 0.2095 0.0
C1016 C 0.33837 0.64077 0.20397 0.0
C1017 C 0.36055 0.68642 0.18912 0.0
C1018 C 0.37647 0.68396 0.19537 0.0
C1019 C 0.36874 0.69884 0.19796 0.0
C1020 C 0.36079 0.69555 0.19294 0.0
C1021 C 0.3767 0.6931 0.1992 0.0
C1022 C 0.36848 0.68064 0.19041 0.0
C1023 C 0.35214 0.68327 0.18359 0.0
O1024 O 0.33348 0.66401 0.17134 0.0
O1025 O 0.32468 0.67323 0.17989 0.0
O1026 O 0.34388 0.68442 0.18764 0.0
O1027 O 0.35273 0.67517 0.17914 0.0
H1028 H 0.33279 0.68542 0.16519 0.0
H1029 H 0.32782 0.694 0.15088 0.0
H1030 H 0.3072 0.67187 0.1449 0.0
H1031 H 0.31206 0.66351 0.1593 0.0
H1032 H 0.31144 0.64293 0.20863 0.0
H1033 H 0.32033 0.65643 0.20213 0.0
H1034 H 0.33701 0.6266 0.20929 0.0
H1035 H 0.34592 0.64013 0.20282 0.0
H1036 H 0.38246 0.67934 0.19629 0.0
H1037 H 0.36873 0.70596 0.20071 0.0
H1038 H 0.35482 0.70018 0.19198 0.0
H1039 H 0.36854 0.67356 0.18757 0.0
C1040 C 0.32155 0.33521 0.16381 0.0
C1041 C 0.32712 0.32798 0.16017 0.0
C1042 C 0.31555 0.32526 0.14751 0.0
C1043 C 0.32416 0.32306 0.15207 0.0
C1044 C 0.31004 0.33254 0.15121 0.0
C1045 C 0.31302 0.33745 0.15928 0.0
U1046 U 0.33798 0.33971 0.18519 0.0
O1047 O 0.34318 0.3532 0.19106 0.0
O1048 O 0.33429 0.34371 0.19971 0.0
C1049 C 0.33849 0.35204 0.199 0.0
C1050 C 0.32446 0.34049 0.17231 0.0
C1051 C 0.33281 0.36011 0.20197 0.0
C1052 C 0.31995 0.37109 0.19937 0.0
C1053 C 0.32529 0.36342 0.19638 0.0
C1054 C 0.3296 0.37219 0.21359 0.0
C1055 C 0.32203 0.37556 0.20803 0.0
C1056 C 0.33492 0.36454 0.21058 0.0
C1057 C 0.35924 0.32367 0.18984 0.0
C1058 C 0.37101 0.32642 0.20223 0.0
C1059 C 0.37142 0.31211 0.19297 0.0
C1060 C 0.36348 0.31505 0.18783 0.0
C1061 C 0.37529 0.31775 0.20024 0.0
C1062 C 0.36303 0.32935 0.19708 0.0
C1063 C 0.35087 0.32657 0.18431 0.0
O1064 O 0.32355 0.33592 0.1804 0.0
O1065 O 0.33248 0.34531 0.17169 0.0
O1066 O 0.35163 0.33474 0.17987 0.0
O1067 O 0.34266 0.32529 0.18849 0.0
H1068 H 0.33373 0.32614 0.16361 0.0
H1069 H 0.32853 0.31744 0.14947 0.0
H1070 H 0.30346 0.33453 0.14781 0.0
H1071 H 0.30864 0.34303 0.16197 0.0
H1072 H 0.31412 0.37342 0.19497 0.0
H1073 H 0.32353 0.36004 0.18972 0.0
H1074 H 0.33148 0.37553 0.22022 0.0
H1075 H 0.34072 0.3621 0.21498 0.0
H1076 H 0.37374 0.33088 0.20784 0.0
H1077 H 0.3746 0.30547 0.19116 0.0
H1078 H 0.36066 0.31059 0.18225 0.0
H1079 H 0.35981 0.33602 0.19876 0.0
C1080 C 0.66344 0.32087 0.18969 0.0
C1081 C 0.66383 0.31798 0.19924 0.0
C1082 C 0.6468 0.31475 0.19918 0.0
C1083 C 0.6556 0.31493 0.20391 0.0
C1084 C 0.6464 0.31778 0.18968 0.0
C1085 C 0.65464 0.32077 0.18499 0.0
U1086 U 0.68574 0.3364 0.1854 0.0
O1087 O 0.7 0.33227 0.18088 0.0
O1088 O 0.69163 0.34193 0.17206 0.0
C1089 C 0.6993 0.33681 0.17276 0.0
C1090 C 0.6721 0.32358 0.18438 0.0
C1091 C 0.70192 0.33144 0.16428 0.0
C1092 C 0.69785 0.3235 0.14954 0.0
C1093 C 0.69508 0.32819 0.15774 0.0
C1094 C 0.71428 0.32502 0.15443 0.0
C1095 C 0.7075 0.32194 0.14773 0.0
C1096 C 0.71152 0.32974 0.16259 0.0
C1097 C 0.69158 0.35693 0.20221 0.0
C1098 C 0.70399 0.36874 0.19939 0.0
C1099 C 0.69503 0.36897 0.21395 0.0
C1100 C 0.68981 0.36103 0.21099 0.0
C1101 C 0.70213 0.37299 0.20816 0.0
C1102 C 0.69875 0.36078 0.19644 0.0
C1103 C 0.68571 0.34881 0.19914 0.0
O1104 O 0.67185 0.33169 0.17978 0.0
O1105 O 0.68029 0.3221 0.18859 0.0
O1106 O 0.68962 0.34048 0.19996 0.0
O1107 O 0.6811 0.34994 0.1911 0.0
H1108 H 0.6705 0.31798 0.20308 0.0
H1109 H 0.65613 0.31273 0.21126 0.0
H1110 H 0.63975 0.31763 0.1858 0.0
H1111 H 0.65414 0.32288 0.17762 0.0
H1112 H 0.69243 0.32131 0.14451 0.0
H1113 H 0.68762 0.32937 0.15891 0.0
H1114 H 0.72175 0.32378 0.15339 0.0
H1115 H 0.7169 0.33214 0.16756 0.0
H1116 H 0.70934 0.37168 0.19472 0.0
H1117 H 0.69351 0.37193 0.22081 0.0
H1118 H 0.68433 0.35813 0.21556 0.0
H1119 H 0.70021 0.35769 0.18962 0.0
C1120 C 0.6596 0.31989 0.83573 0.0
C1121 C 0.65602 0.32546 0.82831 0.0
C1122 C 0.64374 0.31355 0.82509 0.0
C1123 C 0.64814 0.32233 0.82305 0.0
C1124 C 0.64738 0.30802 0.83255 0.0
C1125 C 0.65524 0.31117 0.83781 0.0
U1126 U 0.68041 0.33693 0.84018 0.0
O1127 O 0.68593 0.34278 0.85356 0.0
O1128 O 0.69501 0.33404 0.84477 0.0
C1129 C 0.69406 0.33844 0.85285 0.0
C1130 C 0.6679 0.32302 0.8413 0.0
C1131 C 0.6971 0.33317 0.86133 0.0
C1132 C 0.69599 0.31948 0.87179 0.0
C1133 C 0.69289 0.32444 0.86376 0.0
C1134 C 0.70746 0.33198 0.87507 0.0
C1135 C 0.70335 0.32318 0.87753 0.0
C1136 C 0.70436 0.33691 0.86704 0.0
C1137 C 0.68469 0.35774 0.8232 0.0
C1138 C 0.69848 0.36822 0.82432 0.0
C1139 C 0.68632 0.3712 0.81253 0.0
C1140 C 0.6812 0.36327 0.81573 0.0
C1141 C 0.69505 0.37375 0.81675 0.0
C1142 C 0.69334 0.36028 0.82752 0.0
C1143 C 0.67928 0.34933 0.8263 0.0
O1144 O 0.67612 0.32226 0.83707 0.0
O1145 O 0.66701 0.33106 0.84576 0.0
O1146 O 0.67471 0.35014 0.83432 0.0
O1147 O 0.68369 0.34126 0.82557 0.0
H1148 H 0.65934 0.33221 0.82657 0.0
H1149 H 0.64558 0.32671 0.81729 0.0
H1150 H 0.6441 0.30129 0.8344 0.0
H1151 H 0.6579 0.30678 0.84353 0.0
H1152 H 0.69274 0.31269 0.87342 0.0
H1153 H 0.68726 0.32144 0.85941 0.0
H1154 H 0.71302 0.33512 0.87939 0.0
H1155 H 0.70766 0.34367 0.86529 0.0
H1156 H 0.70522 0.36992 0.82766 0.0
H1157 H 0.68338 0.37537 0.8068 0.0
H1158 H 0.67451 0.36143 0.81235 0.0
H1159 H 0.69615 0.35608 0.83331 0.0
C1160 C 0.65858 0.67852 0.82022 0.0
C1161 C 0.65478 0.686 0.82534 0.0
C1162 C 0.64289 0.68848 0.81296 0.0
C1163 C 0.64698 0.69092 0.82175 0.0
C1164 C 0.64675 0.68095 0.8079 0.0
C1165 C 0.65452 0.67604 0.8115 0.0
U1166 U 0.67875 0.6742 0.83809 0.0
O1167 O 0.68392 0.66074 0.84389 0.0
O1168 O 0.6934 0.66986 0.83547 0.0
C1169 C 0.69219 0.66164 0.83972 0.0
C1170 C 0.66677 0.67323 0.82378 0.0
C1171 C 0.69526 0.65339 0.83435 0.0
C1172 C 0.69347 0.64258 0.82113 0.0
C1173 C 0.69037 0.65042 0.82619 0.0
C1174 C 0.70636 0.64064 0.83236 0.0
C1175 C 0.70153 0.63762 0.82414 0.0
C1176 C 0.70325 0.64845 0.8374 0.0
C1177 C 0.68235 0.69067 0.85933 0.0
C1178 C 0.69531 0.68925 0.87068 0.0
C1179 C 0.68346 0.70121 0.87279 0.0
C1180 C 0.67881 0.69818 0.86456 0.0
C1181 C 0.69177 0.69679 0.87597 0.0
C1182 C 0.69063 0.6862 0.86244 0.0
C1183 C 0.67733 0.68767 0.85067 0.0
O1184 O 0.67501 0.67769 0.82334 0.0
O1185 O 0.6655 0.66863 0.83181 0.0
O1186 O 0.67264 0.67959 0.85125 0.0
O1187 O 0.68209 0.68867 0.84275 0.0
H1188 H 0.65785 0.68803 0.83209 0.0
H1189 H 0.64424 0.69673 0.82579 0.0
H1190 H 0.64371 0.67877 0.80119 0.0
H1191 H 0.65734 0.67027 0.80746 0.0
H1192 H 0.68964 0.64052 0.81479 0.0
H1193 H 0.68419 0.65418 0.82371 0.0
H1194 H 0.71249 0.63691 0.83497 0.0
H1195 H 0.70709 0.65063 0.84371 0.0
H1196 H 0.70164 0.68563 0.87297 0.0
H1197 H 0.68061 0.70713 0.87658 0.0
H1198 H 0.67245 0.70173 0.86225 0.0
H1199 H 0.69346 0.68037 0.85849 0.0
C1200 C 0.32558 0.6509 0.83457 0.0
C1201 C 0.32622 0.65066 0.82466 0.0
C1202 C 0.31855 0.63507 0.82444 0.0
C1203 C 0.32272 0.64284 0.81965 0.0
C1204 C 0.31809 0.6353 0.83439 0.0
C1205 C 0.32155 0.64314 0.83939 0.0
U1206 U 0.34232 0.67217 0.83862 0.0
O1207 O 0.3391 0.68652 0.8434 0.0
O1208 O 0.34854 0.67759 0.85186 0.0
C1209 C 0.34392 0.68556 0.85133 0.0
C1210 C 0.32885 0.6592 0.84001 0.0
C1211 C 0.33897 0.68835 0.85999 0.0
C1212 C 0.32768 0.68516 0.87258 0.0
C1213 C 0.33222 0.68237 0.86429 0.0
C1214 C 0.33657 0.69995 0.87227 0.0
C1215 C 0.32982 0.69398 0.87669 0.0
C1216 C 0.3411 0.69715 0.86401 0.0
C1217 C 0.36262 0.6775 0.82128 0.0
C1218 C 0.37018 0.69255 0.81719 0.0
C1219 C 0.37876 0.67803 0.81533 0.0
C1220 C 0.3709 0.67288 0.81866 0.0
C1221 C 0.37849 0.68794 0.81448 0.0
C1222 C 0.36234 0.6874 0.82059 0.0
C1223 C 0.35435 0.67182 0.82454 0.0
O1224 O 0.33714 0.65846 0.84423 0.0
O1225 O 0.32763 0.66748 0.83592 0.0
O1226 O 0.34603 0.67583 0.82394 0.0
O1227 O 0.35557 0.66704 0.83245 0.0
H1228 H 0.32934 0.65655 0.82079 0.0
H1229 H 0.3231 0.64298 0.812 0.0
H1230 H 0.3151 0.6294 0.83835 0.0
H1231 H 0.32103 0.64317 0.84704 0.0
H1232 H 0.3226 0.68035 0.87584 0.0
H1233 H 0.33049 0.67554 0.86127 0.0
H1234 H 0.33828 0.70685 0.87513 0.0
H1235 H 0.34626 0.70187 0.86075 0.0
H1236 H 0.36965 0.70015 0.81654 0.0
H1237 H 0.38507 0.67423 0.81349 0.0
H1238 H 0.37129 0.66526 0.81917 0.0
H1239 H 0.35605 0.69116 0.82259 0.0
C1240 C 0.339 0.3592 0.8169 0.0
C1241 C 0.33128 0.36268 0.82192 0.0
C1242 C 0.32941 0.37534 0.81025 0.0
C1243 C 0.32651 0.37068 0.81862 0.0
C1244 C 0.33715 0.37176 0.80526 0.0
C1245 C 0.34189 0.36377 0.80856 0.0
U1246 U 0.34288 0.33861 0.83428 0.0
O1247 O 0.34701 0.324 0.83141 0.0
O1248 O 0.35625 0.33312 0.84008 0.0
C1249 C 0.35525 0.32499 0.83572 0.0
C1250 C 0.34416 0.35085 0.82024 0.0
C1251 C 0.36354 0.32192 0.83035 0.0
C1252 C 0.37333 0.32246 0.81624 0.0
C1253 C 0.36547 0.32558 0.82129 0.0
C1254 C 0.37745 0.31211 0.82931 0.0
C1255 C 0.37941 0.31568 0.82019 0.0
C1256 C 0.36958 0.3152 0.83432 0.0
C1257 C 0.32608 0.33494 0.85534 0.0
C1258 C 0.32786 0.32251 0.86716 0.0
C1259 C 0.31464 0.33314 0.86802 0.0
C1260 C 0.31786 0.33786 0.8599 0.0
C1261 C 0.31958 0.32539 0.87176 0.0
C1262 C 0.33108 0.32724 0.85901 0.0
C1263 C 0.32928 0.34004 0.84679 0.0
O1264 O 0.34877 0.35183 0.82829 0.0
O1265 O 0.33955 0.34274 0.81959 0.0
O1266 O 0.32826 0.33545 0.83879 0.0
O1267 O 0.33748 0.34453 0.84751 0.0
H1268 H 0.32896 0.35923 0.8284 0.0
H1269 H 0.32065 0.37329 0.8227 0.0
H1270 H 0.33948 0.37505 0.79871 0.0
H1271 H 0.34781 0.36116 0.80457 0.0
H1272 H 0.37469 0.32544 0.80929 0.0
H1273 H 0.3609 0.33082 0.81812 0.0
H1274 H 0.3819 0.30679 0.83252 0.0
H1275 H 0.36819 0.31229 0.84131 0.0
H1276 H 0.33179 0.31651 0.86979 0.0
H1277 H 0.30832 0.33566 0.87144 0.0
H1278 H 0.31393 0.34382 0.85717 0.0
H1279 H 0.33744 0.32487 0.85556 0.0
H1280 H 0.27113 0.23987 0.9683 0.0
N1281 N 0.26975 0.25774 0.97362 0.0
H1282 H 0.26076 0.23124 0.95732 0.0
H1283 H 0.25255 0.26367 0.96683 0.0
H1284 H 0.24189 0.25498 0.95639 0.0
H1285 H 0.26417 0.27574 0.96949 0.0
H1286 H 0.27148 0.28643 0.95781 0.0
H1287 H 0.28619 0.25561 0.96499 0.0
H1288 H 0.29362 0.26626 0.95338 0.0
H1289 H 0.28157 0.25299 0.98747 0.0
H1290 H 0.25502 0.26673 0.98228 0.0
H1291 H 0.27989 0.2556 0.00446 0.0
H1292 H 0.25294 0.26885 0.99917 0.0
H1293 H 0.26802 0.25119 0.05088 0.0
H1294 H 0.26078 0.24008 0.06198 0.0
H1295 H 0.2344 0.25504 0.05973 0.0
H1296 H 0.24165 0.2659 0.04822 0.0
H1297 H 0.25509 0.28285 0.05183 0.0
H1298 H 0.26414 0.29139 0.06394 0.0
H1299 H 0.28747 0.27241 0.06018 0.0
H1300 H 0.27846 0.26422 0.04773 0.0
H1301 H 0.26956 0.25271 0.03486 0.0
H1302 H 0.27187 0.25068 0.01797 0.0
H1303 H 0.25777 0.27708 0.01253 0.0
N1304 N 0.2598 0.26699 0.04337 0.0
H1305 H 0.25497 0.2787 0.02948 0.0
C1306 C 0.26261 0.25235 0.96853 0.0
C1307 C 0.26465 0.24311 0.96586 0.0
C1308 C 0.25868 0.23818 0.95959 0.0
C1309 C 0.25047 0.2424 0.95587 0.0
C1310 C 0.24822 0.25153 0.95893 0.0
C1311 C 0.25426 0.25649 0.9651 0.0
C1312 C 0.27464 0.26484 0.96806 0.0
C1313 C 0.27065 0.27368 0.9661 0.0
C1314 C 0.27482 0.27977 0.95939 0.0
C1315 C 0.2831 0.27717 0.95462 0.0
C1316 C 0.2873 0.26852 0.95698 0.0
C1317 C 0.28308 0.26243 0.9636 0.0
C1318 C 0.26841 0.25953 0.98357 0.0
C1319 C 0.27533 0.2565 0.99002 0.0
C1320 C 0.2743 0.25793 0.99975 0.0
C1321 C 0.26622 0.26238 0.00331 0.0
C1322 C 0.25933 0.26551 0.99677 0.0
C1323 C 0.26044 0.26419 0.98702 0.0
C1324 C 0.25532 0.25934 0.04856 0.0
C1325 C 0.26059 0.2519 0.05247 0.0
C1326 C 0.25647 0.24562 0.05899 0.0
C1327 C 0.24702 0.24671 0.06188 0.0
C1328 C 0.24165 0.25389 0.05762 0.0
C1329 C 0.24577 0.26012 0.05103 0.0
C1330 C 0.26605 0.27289 0.04896 0.0
C1331 C 0.26226 0.28073 0.05345 0.0
C1332 C 0.2674 0.2855 0.06046 0.0
C1333 C 0.27646 0.28246 0.06322 0.0
C1334 C 0.28052 0.27496 0.05826 0.0
C1335 C 0.27537 0.27023 0.05115 0.0
C1336 C 0.26191 0.26581 0.03347 0.0
C1337 C 0.26689 0.25804 0.03007 0.0
C1338 C 0.26831 0.25694 0.02033 0.0
C1339 C 0.26496 0.26367 0.01375 0.0
C1340 C 0.26026 0.2716 0.01727 0.0
C1341 C 0.25872 0.2726 0.02698 0.0
H1342 H 0.76749 0.26008 0.96811 0.0
N1343 N 0.75213 0.25174 0.97679 0.0
H1344 H 0.77819 0.25257 0.95709 0.0
H1345 H 0.7533 0.23335 0.97321 0.0
H1346 H 0.76411 0.22571 0.96219 0.0
H1347 H 0.73701 0.24836 0.96597 0.0
H1348 H 0.72948 0.25919 0.95476 0.0
H1349 H 0.75596 0.2707 0.97513 0.0
H1350 H 0.74844 0.28163 0.96394 0.0
H1351 H 0.76926 0.2562 0.98554 0.0
H1352 H 0.73927 0.25254 0.9904 0.0
H1353 H 0.77185 0.25901 1.00224 0.0
H1354 H 0.7417 0.25605 0.00712 0.0
H1355 H 0.77957 0.26772 0.05601 0.0
H1356 H 0.78751 0.25698 0.06703 0.0
H1357 H 0.7681 0.23453 0.05883 0.0
H1358 H 0.76012 0.24533 0.04803 0.0
H1359 H 0.74902 0.2565 0.05572 0.0
H1360 H 0.73933 0.26451 0.06727 0.0
H1361 H 0.75287 0.29111 0.05966 0.0
H1362 H 0.76295 0.28286 0.04853 0.0
H1363 H 0.77346 0.27165 0.03147 0.0
H1364 H 0.77052 0.26927 0.0146 0.0
H1365 H 0.74708 0.25036 0.02143 0.0
N1366 N 0.76394 0.26435 0.04596 0.0
H1367 H 0.74968 0.25345 0.03821 0.0
C1368 C 0.75951 0.24727 0.97146 0.0
C1369 C 0.76674 0.25257 0.96696 0.0
C1370 C 0.77285 0.24827 0.96062 0.0
C1371 C 0.77192 0.23857 0.95869 0.0
C1372 C 0.76502 0.23319 0.96357 0.0
C1373 C 0.75886 0.23752 0.96986 0.0
C1374 C 0.74702 0.2587 0.97136 0.0
C1375 C 0.73939 0.25567 0.96569 0.0
C1376 C 0.7351 0.26188 0.9593 0.0
C1377 C 0.73839 0.27127 0.95842 0.0
C1378 C 0.74582 0.27441 0.96437 0.0
C1379 C 0.75008 0.26819 0.97081 0.0
C1380 C 0.75401 0.25402 0.98662 0.0
C1381 C 0.76317 0.25609 0.99013 0.0
C1382 C 0.76465 0.25781 0.99979 0.0
C1383 C 0.75701 0.25775 0.00617 0.0
C1384 C 0.74783 0.25594 1.00256 0.0
C1385 C 0.74639 0.25403 0.99295 0.0
C1386 C 0.76928 0.25738 0.05115 0.0
C1387 C 0.77717 0.26042 0.05646 0.0
C1388 C 0.7817 0.25427 0.06274 0.0
C1389 C 0.77841 0.24489 0.06387 0.0
C1390 C 0.77073 0.24174 0.05824 0.0
C1391 C 0.7662 0.24791 0.05196 0.0
C1392 C 0.75684 0.26909 0.05137 0.0
C1393 C 0.74983 0.26406 0.05646 0.0
C1394 C 0.74423 0.2687 0.06305 0.0
C1395 C 0.7454 0.27848 0.06457 0.0
C1396 C 0.75194 0.28355 0.05892 0.0
C1397 C 0.75763 0.27888 0.05245 0.0
C1398 C 0.76192 0.26263 0.0361 0.0
C1399 C 0.76767 0.26702 0.02928 0.0
C1400 C 0.76602 0.26556 0.01962 0.0
C1401 C 0.75861 0.25952 0.01653 0.0
C1402 C 0.75279 0.25515 0.02344 0.0
C1403 C 0.75435 0.25678 0.03311 0.0
H1404 H 0.74988 0.77848 0.9694 0.0
N1405 N 0.75151 0.76043 0.97429 0.0
H1406 H 0.75968 0.7875 0.95814 0.0
H1407 H 0.76815 0.75463 0.96651 0.0
H1408 H 0.77792 0.76352 0.95526 0.0
H1409 H 0.75691 0.74242 0.97041 0.0
H1410 H 0.74895 0.73153 0.95936 0.0
H1411 H 0.73467 0.76249 0.96618 0.0
H1412 H 0.7266 0.75168 0.95523 0.0
H1413 H 0.74 0.7649 0.98827 0.0
H1414 H 0.76687 0.75214 0.98277 0.0
H1415 H 0.74242 0.76258 0.00527 0.0
H1416 H 0.76964 0.75025 0.99973 0.0
H1417 H 0.75512 0.76746 0.05164 0.0
H1418 H 0.76251 0.77873 0.06244 0.0
H1419 H 0.78918 0.76447 0.05973 0.0
H1420 H 0.78174 0.75337 0.04863 0.0
H1421 H 0.76787 0.73643 0.05376 0.0
H1422 H 0.75811 0.72786 0.06531 0.0
H1423 H 0.7347 0.74615 0.05883 0.0
H1424 H 0.74457 0.75468 0.04723 0.0
H1425 H 0.75358 0.76614 0.03535 0.0
H1426 H 0.7509 0.76806 0.01841 0.0
H1427 H 0.76536 0.74189 0.01341 0.0
N1428 N 0.76345 0.75189 0.04412 0.0
H1429 H 0.76844 0.74034 0.0304 0.0
C1430 C 0.75829 0.76593 0.96888 0.0
C1431 C 0.75612 0.77527 0.9665 0.0
C1432 C 0.76167 0.78037 0.95999 0.0
C1433 C 0.76954 0.7762 0.95574 0.0
C1434 C 0.77196 0.76697 0.95847 0.0
C1435 C 0.76637 0.76186 0.96494 0.0
C1436 C 0.74637 0.75328 0.96906 0.0
C1437 C 0.75025 0.74442 0.9672 0.0
C1438 C 0.74571 0.73823 0.96086 0.0
C1439 C 0.73716 0.74075 0.95638 0.0
C1440 C 0.73311 0.74946 0.95862 0.0
C1441 C 0.7377 0.75565 0.96487 0.0
C1442 C 0.75326 0.7588 0.98424 0.0
C1443 C 0.74647 0.76166 0.99076 0.0
C1444 C 0.74792 0.7604 1.00049 0.0
C1445 C 0.75628 0.7563 0.00398 0.0
C1446 C 0.76306 0.75333 0.99738 0.0
C1447 C 0.76153 0.7545 0.98762 0.0
C1448 C 0.76791 0.75958 0.04922 0.0
C1449 C 0.76261 0.7669 0.05311 0.0
C1450 C 0.76683 0.77329 0.05943 0.0
C1451 C 0.77643 0.77246 0.06207 0.0
C1452 C 0.78181 0.7654 0.05781 0.0
C1453 C 0.77758 0.75904 0.05146 0.0
C1454 C 0.75698 0.74616 0.04966 0.0
C1455 C 0.76056 0.73843 0.05468 0.0
C1456 C 0.75497 0.73355 0.06127 0.0
C1457 C 0.74562 0.73634 0.06303 0.0
C1458 C 0.7419 0.7439 0.05772 0.0
C1459 C 0.74751 0.74874 0.05105 0.0
C1460 C 0.76136 0.75313 0.03417 0.0
C1461 C 0.75624 0.76084 0.03064 0.0
C1462 C 0.75462 0.76188 0.02088 0.0
C1463 C 0.75794 0.75516 0.01443 0.0
C1464 C 0.76287 0.74735 0.01806 0.0
C1465 C 0.76457 0.74639 0.02779 0.0
H1466 H 0.27739 0.7505 0.96836 0.0
N1467 N 0.26177 0.74232 0.97663 0.0
H1468 H 0.28791 0.74295 0.95716 0.0
H1469 H 0.26261 0.72401 0.97293 0.0
H1470 H 0.27321 0.71631 0.96183 0.0
H1471 H 0.24702 0.738 0.9657 0.0
H1472 H 0.23926 0.74809 0.95402 0.0
H1473 H 0.26461 0.7615 0.97458 0.0
H1474 H 0.25664 0.77176 0.96327 0.0
H1475 H 0.27527 0.75401 0.98467 0.0
H1476 H 0.25217 0.73477 0.99095 0.0
H1477 H 0.27736 0.75722 1.00145 0.0
H1478 H 0.2546 0.73737 0.00787 0.0
H1479 H 0.28735 0.75782 0.05654 0.0
H1480 H 0.29435 0.74678 0.06788 0.0
H1481 H 0.27386 0.72536 0.05945 0.0
H1482 H 0.26686 0.73655 0.04816 0.0
H1483 H 0.25563 0.7481 0.054 0.0
H1484 H 0.24538 0.75633 0.06491 0.0
H1485 H 0.26239 0.78175 0.06124 0.0
H1486 H 0.27248 0.77347 0.05012 0.0
H1487 H 0.28496 0.75487 0.03255 0.0
H1488 H 0.28282 0.75144 0.01578 0.0
H1489 H 0.25269 0.7477 0.02025 0.0
N1490 N 0.27193 0.75518 0.04599 0.0
H1491 H 0.25501 0.75049 0.03702 0.0
C1492 C 0.2692 0.73778 0.9715 0.0
C1493 C 0.27659 0.74299 0.96718 0.0
C1494 C 0.28261 0.73865 0.96075 0.0
C1495 C 0.28134 0.72904 0.95851 0.0
C1496 C 0.27428 0.72376 0.96327 0.0
C1497 C 0.26829 0.7281 0.96969 0.0
C1498 C 0.25634 0.74894 0.97109 0.0
C1499 C 0.249 0.74541 0.96532 0.0
C1500 C 0.24456 0.75122 0.95865 0.0
C1501 C 0.24733 0.76077 0.95762 0.0
C1502 C 0.25443 0.76441 0.96372 0.0
C1503 C 0.25893 0.75855 0.97032 0.0
C1504 C 0.26342 0.74426 0.98652 0.0
C1505 C 0.27063 0.75047 0.98966 0.0
C1506 C 0.27191 0.75219 0.99934 0.0
C1507 C 0.26615 0.74758 0.00615 0.0
C1508 C 0.25906 0.74124 0.00293 0.0
C1509 C 0.25769 0.73967 0.99324 0.0
C1510 C 0.27662 0.74802 0.05154 0.0
C1511 C 0.28451 0.75068 0.05703 0.0
C1512 C 0.2885 0.74435 0.06348 0.0
C1513 C 0.28465 0.73518 0.06461 0.0
C1514 C 0.27692 0.73241 0.05884 0.0
C1515 C 0.27295 0.73876 0.05234 0.0
C1516 C 0.26483 0.7602 0.05117 0.0
C1517 C 0.25704 0.75549 0.05536 0.0
C1518 C 0.25122 0.7602 0.06169 0.0
C1519 C 0.2531 0.76969 0.06406 0.0
C1520 C 0.26065 0.77448 0.05953 0.0
C1521 C 0.26644 0.76977 0.05317 0.0
C1522 C 0.27021 0.75304 0.03612 0.0
C1523 C 0.27791 0.75325 0.0299 0.0
C1524 C 0.27663 0.75138 0.02026 0.0
C1525 C 0.26755 0.74936 0.01652 0.0
C1526 C 0.25982 0.74908 0.02281 0.0
C1527 C 0.26114 0.75079 0.03249 0.0
H1528 H 0.96788 0.24413 0.27811 0.0
N1529 N 0.97704 0.24691 0.26198 0.0
H1530 H 0.958 0.25533 0.28647 0.0
H1531 H 0.97573 0.26578 0.25793 0.0
H1532 H 0.96579 0.27709 0.26622 0.0
H1533 H 0.96873 0.25522 0.24649 0.0
H1534 H 0.95674 0.24811 0.23619 0.0
H1535 H 0.97129 0.22892 0.26178 0.0
H1536 H 0.95903 0.22177 0.25164 0.0
H1537 H 0.9913 0.24388 0.27389 0.0
H1538 H 0.98532 0.25336 0.24544 0.0
H1539 H 0.00826 0.24591 0.27104 0.0
H1540 H 1.00218 0.25481 0.24231 0.0
H1541 H 0.05469 0.24503 0.26433 0.0
H1542 H 0.06592 0.25088 0.27626 0.0
H1543 H 0.06304 0.27918 0.26504 0.0
H1544 H 0.05168 0.27325 0.25325 0.0
H1545 H 0.05754 0.26148 0.23573 0.0
H1546 H 0.06884 0.25251 0.22662 0.0
H1547 H 0.05931 0.22686 0.24068 0.0
H1548 H 0.04836 0.236 0.25005 0.0
H1549 H 0.03826 0.24194 0.26123 0.0
H1550 H 0.0213 0.23972 0.26362 0.0
H1551 H 0.01596 0.26348 0.245 0.0
N1552 N 0.04689 0.25537 0.24993 0.0
H1553 H 0.03296 0.26516 0.24217 0.0
C1554 C 0.9725 0.2541 0.26742 0.0
C1555 C 0.9676 0.25137 0.27561 0.0
C1556 C 0.96198 0.25779 0.28037 0.0
C1557 C 0.96107 0.2671 0.27699 0.0
C1558 C 0.96626 0.26994 0.26894 0.0
C1559 C 0.97197 0.2635 0.26423 0.0
C1560 C 0.97099 0.24256 0.2549 0.0
C1561 C 0.96684 0.24786 0.24755 0.0
C1562 C 0.95988 0.2438 0.24171 0.0
C1563 C 0.95682 0.23439 0.24314 0.0
C1564 C 0.96126 0.229 0.25026 0.0
C1565 C 0.96827 0.23307 0.25607 0.0
C1566 C 0.98698 0.24835 0.25991 0.0
C1567 C 0.99366 0.24632 0.26699 0.0
C1568 C 0.00338 0.24739 0.2653 0.0
C1569 C 0.00671 0.25043 0.25639 0.0
C1570 C 0.99996 0.25256 0.2493 0.0
C1571 C 0.99023 0.25164 0.25106 0.0
C1572 C 0.05233 0.25874 0.25791 0.0
C1573 C 0.05629 0.25251 0.26459 0.0
C1574 C 0.0628 0.25586 0.27135 0.0
C1575 C 0.06545 0.26549 0.27156 0.0
C1576 C 0.0611 0.27175 0.26516 0.0
C1577 C 0.05462 0.26838 0.2584 0.0
C1578 C 0.05203 0.24947 0.24352 0.0
C1579 C 0.05776 0.25389 0.23668 0.0
C1580 C 0.06421 0.24871 0.23146 0.0
C1581 C 0.06507 0.23891 0.23291 0.0
C1582 C 0.05899 0.23441 0.23948 0.0
C1583 C 0.05259 0.23963 0.24478 0.0
C1584 C 0.03689 0.25362 0.25134 0.0
C1585 C 0.03345 0.24653 0.25749 0.0
C1586 C 0.02369 0.24538 0.25898 0.0
C1587 C 0.01714 0.25143 0.25454 0.0
C1588 C 0.02067 0.25854 0.24842 0.0
C1589 C 0.03042 0.25956 0.24682 0.0
H1590 H 0.77608 0.04621 0.2658 0.0
N1591 N 0.75792 0.04104 0.26487 0.0
H1592 H 0.78448 0.0574 0.25544 0.0
H1593 H 0.75116 0.04832 0.24817 0.0
H1594 H 0.75957 0.05912 0.23755 0.0
H1595 H 0.73966 0.04555 0.26029 0.0
H1596 H 0.73016 0.05747 0.26816 0.0
H1597 H 0.76151 0.04892 0.28148 0.0
H1598 H 0.75197 0.06058 0.2896 0.0
H1599 H 0.76406 0.02689 0.27555 0.0
H1600 H 0.74723 0.03284 0.25074 0.0
H1601 H 0.76156 0.00994 0.27315 0.0
H1602 H 0.74513 0.016 0.24793 0.0
H1603 H 0.76442 0.96374 0.26028 0.0
H1604 H 0.77501 0.95316 0.25213 0.0
H1605 H 0.75915 0.9573 0.22619 0.0
H1606 H 0.74844 0.96782 0.23451 0.0
H1607 H 0.73257 0.96159 0.24987 0.0
H1608 H 0.72475 0.95043 0.2607 0.0
H1609 H 0.74515 0.95771 0.28252 0.0
H1610 H 0.7529 0.96891 0.27158 0.0
H1611 H 0.76392 0.98044 0.26092 0.0
H1612 H 0.76597 0.99729 0.26373 0.0
H1613 H 0.73767 1.00201 0.25291 0.0
N1614 N 0.74832 0.97161 0.25291 0.0
H1615 H 0.73593 0.98515 0.24965 0.0
C1616 C 0.76305 0.04633 0.25774 0.0
C1617 C 0.77253 0.04887 0.25952 0.0
C1618 C 0.77731 0.05526 0.25357 0.0
C1619 C 0.7727 0.05923 0.24566 0.0
C1620 C 0.76331 0.05633 0.24366 0.0
C1621 C 0.75851 0.05 0.24967 0.0
C1622 C 0.75134 0.04642 0.27029 0.0
C1623 C 0.74231 0.04869 0.26676 0.0
C1624 C 0.73688 0.0555 0.2713 0.0
C1625 C 0.74038 0.06012 0.27943 0.0
C1626 C 0.74914 0.05733 0.28324 0.0
C1627 C 0.75456 0.05059 0.27869 0.0
C1628 C 0.75594 0.03115 0.26332 0.0
C1629 C 0.75986 0.02452 0.26955 0.0
C1630 C 0.75849 0.01482 0.2681 0.0
C1631 C 0.75321 0.0115 0.26027 0.0
C1632 C 0.74915 0.01821 0.25409 0.0
C1633 C 0.75043 0.02792 0.25564 0.0
C1634 C 0.75562 0.96664 0.24798 0.0
C1635 C 0.76332 0.96257 0.2528 0.0
C1636 C 0.7694 0.95649 0.24811 0.0
C1637 C 0.7679 0.95431 0.23851 0.0
C1638 C 0.76043 0.95871 0.23362 0.0
C1639 C 0.75437 0.9648 0.23832 0.0
C1640 C 0.74329 0.96605 0.2599 0.0
C1641 C 0.73523 0.96089 0.25704 0.0
C1642 C 0.73077 0.95454 0.26325 0.0
C1643 C 0.73434 0.95316 0.27247 0.0
C1644 C 0.74229 0.95854 0.27543 0.0
C1645 C 0.74671 0.96497 0.26921 0.0
C1646 C 0.74979 0.98152 0.25491 0.0
C1647 C 0.75818 0.98508 0.25907 0.0
C1648 C 0.7593 0.99477 0.26077 0.0
C1649 C 0.752 1.00112 0.25853 0.0
C1650 C 0.74355 0.99745 0.25455 0.0
C1651 C 0.7425 0.98779 0.25274 0.0
H1652 H 0.05824 0.77324 0.27641 0.0
N1653 N 0.0463 0.76883 0.26247 0.0
H1654 H 0.06867 0.76262 0.28511 0.0
H1655 H 0.04558 0.74955 0.26186 0.0
H1656 H 0.05563 0.73877 0.27083 0.0
H1657 H 0.05404 0.75899 0.24807 0.0
H1658 H 0.06599 0.76504 0.23704 0.0
H1659 H 0.05069 0.7869 0.25925 0.0
H1660 H 0.06217 0.7932 0.24786 0.0
H1661 H 0.03513 0.78037 0.27171 0.0
H1662 H 0.03458 0.75743 0.25194 0.0
H1663 H 0.01788 0.78092 0.27128 0.0
H1664 H 0.01719 0.75741 0.25189 0.0
H1665 H 0.96284 0.77569 0.27583 0.0
H1666 H 0.95202 0.7647 0.28385 0.0
H1667 H 0.96449 0.74148 0.26892 0.0
H1668 H 0.97508 0.75269 0.26068 0.0
H1669 H 0.96791 0.76251 0.24711 0.0
H1670 H 0.95673 0.76892 0.23548 0.0
H1671 H 0.96003 0.7965 0.24802 0.0
H1672 H 0.97113 0.78999 0.25969 0.0
H1673 H 0.98728 0.77469 0.27658 0.0
H1674 H 0.00444 0.77319 0.27659 0.0
H1675 H 0.0033 0.76514 0.24713 0.0
N1676 N 0.97521 0.7719 0.26241 0.0
H1677 H 0.98601 0.76607 0.24743 0.0
C1678 C 0.05109 0.76221 0.26856 0.0
C1679 C 0.05753 0.76569 0.27532 0.0
C1680 C 0.06347 0.75958 0.28031 0.0
C1681 C 0.06306 0.74979 0.27868 0.0
C1682 C 0.05628 0.74627 0.27217 0.0
C1683 C 0.05041 0.75242 0.26711 0.0
C1684 C 0.0516 0.77251 0.25456 0.0
C1685 C 0.05569 0.76648 0.24794 0.0
C1686 C 0.0625 0.76998 0.2416 0.0
C1687 C 0.06523 0.77961 0.24165 0.0
C1688 C 0.0605 0.78571 0.24779 0.0
C1689 C 0.05382 0.78217 0.25422 0.0
C1690 C 0.0361 0.76877 0.26202 0.0
C1691 C 0.03123 0.77535 0.26738 0.0
C1692 C 0.02134 0.77557 0.26717 0.0
C1693 C 0.01602 0.76909 0.26168 0.0
C1694 C 0.02098 0.76255 0.25618 0.0
C1695 C 0.03093 0.76245 0.25629 0.0
C1696 C 0.96977 0.76501 0.26774 0.0
C1697 C 0.96331 0.76821 0.27441 0.0
C1698 C 0.95716 0.76189 0.27901 0.0
C1699 C 0.95737 0.75216 0.27707 0.0
C1700 C 0.96404 0.74893 0.27051 0.0
C1701 C 0.97017 0.7553 0.26587 0.0
C1702 C 0.97031 0.7758 0.25431 0.0
C1703 C 0.96638 0.76997 0.24723 0.0
C1704 C 0.95995 0.77363 0.24062 0.0
C1705 C 0.95741 0.7832 0.2409 0.0
C1706 C 0.96187 0.78913 0.24758 0.0
C1707 C 0.96822 0.78544 0.25424 0.0
C1708 C 0.98534 0.77065 0.26201 0.0
C1709 C 0.99074 0.77255 0.27015 0.0
C1710 C 1.0006 0.77177 0.27009 0.0
C1711 C 0.00539 0.76923 0.2618 0.0
C1712 C 0.99992 0.76708 0.25367 0.0
C1713 C 0.98999 0.7677 0.2538 0.0
H1714 H 0.29067 0.96472 0.24836 0.0
N1715 N 0.2731 0.97103 0.24981 0.0
H1716 H 0.29861 0.95367 0.25908 0.0
H1717 H 0.26699 0.96583 0.26732 0.0
H1718 H 0.2749 0.95494 0.27821 0.0
H1719 H 0.25499 0.96657 0.25469 0.0
H1720 H 0.24477 0.95464 0.24706 0.0
H1721 H 0.27605 0.96292 0.23322 0.0
H1722 H 0.26582 0.95126 0.22531 0.0
H1723 H 0.28016 0.98266 0.23673 0.0
H1724 H 0.26467 0.98218 0.26286 0.0
H1725 H 0.27982 0.99989 0.23642 0.0
H1726 H 0.26469 0.9995 0.26295 0.0
H1727 H 0.28853 0.05358 0.24524 0.0
H1728 H 0.29617 0.06413 0.2567 0.0
H1729 H 0.27822 0.05255 0.27873 0.0
H1730 H 0.27058 0.04202 0.26712 0.0
H1731 H 0.25807 0.04846 0.25685 0.0
H1732 H 0.24669 0.0595 0.25006 0.0
H1733 H 0.26066 0.05782 0.22305 0.0
H1734 H 0.27214 0.04687 0.22996 0.0
H1735 H 0.28718 0.03011 0.24293 0.0
H1736 H 0.28685 0.01291 0.24382 0.0
H1737 H 0.25879 0.01359 0.25591 0.0
N1738 N 0.27389 0.04194 0.24809 0.0
H1739 H 0.25946 0.0309 0.25541 0.0
C1740 C 0.2783 0.96612 0.25706 0.0
C1741 C 0.28733 0.96279 0.25499 0.0
C1742 C 0.29184 0.95647 0.26114 0.0
C1743 C 0.28736 0.95334 0.26949 0.0
C1744 C 0.27849 0.95709 0.27178 0.0
C1745 C 0.27399 0.96341 0.26561 0.0
C1746 C 0.26628 0.96555 0.24451 0.0
C1747 C 0.25729 0.96335 0.2482 0.0
C1748 C 0.25146 0.95655 0.2438 0.0
C1749 C 0.25453 0.95187 0.23563 0.0
C1750 C 0.26331 0.95455 0.23169 0.0
C1751 C 0.26912 0.96129 0.23612 0.0
C1752 C 0.27255 0.98117 0.24985 0.0
C1753 C 0.27674 0.98632 0.24244 0.0
C1754 C 0.2766 0.99619 0.24235 0.0
C1755 C 0.27236 1.00118 0.24975 0.0
C1756 C 0.26798 0.99595 0.2571 0.0
C1757 C 0.26803 0.98603 0.25712 0.0
C1758 C 0.27902 0.04705 0.25532 0.0
C1759 C 0.28639 0.0532 0.25258 0.0
C1760 C 0.29075 0.05921 0.25915 0.0
C1761 C 0.28779 0.05921 0.26864 0.0
C1762 C 0.28059 0.05279 0.27145 0.0
C1763 C 0.27626 0.04674 0.26486 0.0
C1764 C 0.26602 0.04688 0.2439 0.0
C1765 C 0.2586 0.05032 0.24943 0.0
C1766 C 0.25212 0.05667 0.24555 0.0
C1767 C 0.25284 0.0596 0.23604 0.0
C1768 C 0.25989 0.05566 0.23038 0.0
C1769 C 0.26644 0.0494 0.2343 0.0
C1770 C 0.27333 0.03179 0.24896 0.0
C1771 C 0.28098 0.02653 0.2458 0.0
C1772 C 0.28072 0.01667 0.24624 0.0
C1773 C 0.27271 0.01177 0.24978 0.0
C1774 C 0.2651 0.01708 0.25317 0.0
C1775 C 0.26542 0.02701 0.25282 0.0
H1776 H 0.05351 0.74347 0.76156 0.0
N1777 N 0.0463 0.76051 0.75596 0.0
H1778 H 0.06406 0.73369 0.75238 0.0
H1779 H 0.04994 0.76209 0.73758 0.0
H1780 H 0.0604 0.75222 0.72823 0.0
H1781 H 0.05676 0.77612 0.75396 0.0
H1782 H 0.06875 0.78239 0.76493 0.0
H1783 H 0.04946 0.75416 0.77401 0.0
H1784 H 0.06152 0.76034 0.78506 0.0
H1785 H 0.03671 0.74451 0.76208 0.0
H1786 H 0.03345 0.77391 0.75497 0.0
H1787 H 0.01978 0.74305 0.7652 0.0
H1788 H 0.01659 0.77272 0.75862 0.0
H1789 H 0.96808 0.73742 0.77267 0.0
H1790 H 0.95618 0.72947 0.76272 0.0
H1791 H 0.96003 0.75111 0.74128 0.0
H1792 H 0.97164 0.75908 0.75133 0.0
H1793 H 0.97098 0.77129 0.76274 0.0
H1794 H 0.96009 0.78193 0.77048 0.0
H1795 H 0.9596 0.76356 0.79505 0.0
H1796 H 0.9706 0.753 0.78725 0.0
H1797 H 0.9905 0.74513 0.7783 0.0
H1798 H 0.00754 0.74665 0.77548 0.0
H1799 H 1.00204 0.76707 0.75325 0.0
N1800 N 0.97654 0.75403 0.7695 0.0
H1801 H 0.9852 0.76592 0.75657 0.0
C1802 C 0.05089 0.75355 0.75023 0.0
C1803 C 0.05476 0.74532 0.75423 0.0
C1804 C 0.06082 0.7397 0.74895 0.0
C1805 C 0.06317 0.74222 0.73959 0.0
C1806 C 0.05886 0.75016 0.73546 0.0
C1807 C 0.05279 0.75575 0.74075 0.0
C1808 C 0.05227 0.76469 0.76315 0.0
C1809 C 0.05765 0.77277 0.76082 0.0
C1810 C 0.06447 0.77634 0.7671 0.0
C1811 C 0.06612 0.77183 0.77585 0.0
C1812 C 0.06049 0.7639 0.77833 0.0
C1813 C 0.05358 0.76038 0.77205 0.0
C1814 C 0.03636 0.75932 0.75812 0.0
C1815 C 0.03238 0.75068 0.76122 0.0
C1816 C 0.02265 0.74989 0.76311 0.0
C1817 C 0.0167 0.75775 0.76213 0.0
C1818 C 0.02081 0.76643 0.75924 0.0
C1819 C 0.03048 0.76716 0.75722 0.0
C1820 C 0.97082 0.7488 0.76278 0.0
C1821 C 0.96648 0.74032 0.76573 0.0
C1822 C 0.95969 0.73579 0.76002 0.0
C1823 C 0.95708 0.73969 0.75121 0.0
C1824 C 0.96175 0.74799 0.74809 0.0
C1825 C 0.96852 0.75252 0.75381 0.0
C1826 C 0.97164 0.76132 0.77444 0.0
C1827 C 0.96874 0.76965 0.76987 0.0
C1828 C 0.96241 0.7757 0.77428 0.0
C1829 C 0.95889 0.77357 0.78336 0.0
C1830 C 0.96223 0.76549 0.78811 0.0
C1831 C 0.96852 0.75944 0.78367 0.0
C1832 C 0.98653 0.75531 0.76763 0.0
C1833 C 0.99302 0.74996 0.77286 0.0
C1834 C 0.00277 0.75079 0.77116 0.0
C1835 C 0.00627 0.75694 0.76407 0.0
C1836 C 0.9997 0.76234 0.75886 0.0
C1837 C 0.98997 0.7616 0.76067 0.0
H1838 H 0.28163 0.04934 0.77773 0.0
N1839 N 0.2663 0.03882 0.77422 0.0
H1840 H 0.28969 0.0604 0.76697 0.0
H1841 H 0.26264 0.04084 0.75526 0.0
H1842 H 0.27068 0.05186 0.74438 0.0
H1843 H 0.25079 0.04704 0.76598 0.0
H1844 H 0.2401 0.058 0.77353 0.0
H1845 H 0.26517 0.04253 0.7926 0.0
H1846 H 0.25452 0.05358 0.80024 0.0
H1847 H 0.27848 0.02517 0.77779 0.0
H1848 H 0.2508 0.03012 0.76588 0.0
H1849 H 0.27672 0.00834 0.77438 0.0
H1850 H 0.24874 0.01329 0.76288 0.0
H1851 H 0.27583 0.96608 0.76505 0.0
H1852 H 0.28592 0.955 0.75673 0.0
H1853 H 0.26392 0.95096 0.73563 0.0
H1854 H 0.25378 0.96174 0.74423 0.0
H1855 H 0.23914 0.96406 0.76033 0.0
H1856 H 0.23136 0.95201 0.7702 0.0
H1857 H 0.25691 0.94976 0.78708 0.0
H1858 H 0.26468 0.96148 0.77696 0.0
H1859 H 0.26716 0.9775 0.77572 0.0
H1860 H 0.26905 0.99429 0.77898 0.0
H1861 H 0.25348 1.0008 0.75333 0.0
N1862 N 0.25722 0.96955 0.76091 0.0
H1863 H 0.25122 0.98391 0.75044 0.0
C1864 C 0.27157 0.04428 0.76732 0.0
C1865 C 0.27934 0.04974 0.77041 0.0
C1866 C 0.28393 0.05604 0.76424 0.0
C1867 C 0.28081 0.05705 0.75482 0.0
C1868 C 0.27318 0.05134 0.75163 0.0
C1869 C 0.26862 0.04499 0.75782 0.0
C1870 C 0.25882 0.04393 0.77874 0.0
C1871 C 0.25154 0.04824 0.77349 0.0
C1872 C 0.24547 0.05459 0.77782 0.0
C1873 C 0.24652 0.05676 0.78747 0.0
C1874 C 0.25346 0.05203 0.79281 0.0
C1875 C 0.25955 0.04571 0.78847 0.0
C1876 C 0.26477 0.02892 0.77221 0.0
C1877 C 0.27197 0.02259 0.77453 0.0
C1878 C 0.27091 0.01294 0.77263 0.0
C1879 C 0.26255 0.00935 0.7684 0.0
C1880 C 0.25533 0.01575 0.76603 0.0
C1881 C 0.25646 0.02543 0.76784 0.0
C1882 C 0.26401 0.96466 0.75528 0.0
C1883 C 0.27324 0.96291 0.75857 0.0
C1884 C 0.27902 0.95659 0.75377 0.0
C1885 C 0.27567 0.95195 0.74558 0.0
C1886 C 0.26665 0.95421 0.74203 0.0
C1887 C 0.26089 0.96046 0.74685 0.0
C1888 C 0.25243 0.96377 0.76791 0.0
C1889 C 0.24296 0.96111 0.7663 0.0
C1890 C 0.23854 0.95422 0.77197 0.0
C1891 C 0.24352 0.94984 0.77943 0.0
C1892 C 0.2529 0.95286 0.78131 0.0
C1893 C 0.25733 0.95971 0.7756 0.0
C1894 C 0.25893 0.97942 0.76287 0.0
C1895 C 0.2641 0.9825 0.77083 0.0
C1896 C 0.26525 0.99218 0.77263 0.0
C1897 C 0.26139 0.999 0.76645 0.0
C1898 C 0.25639 0.99583 0.75838 0.0
C1899 C 0.25516 0.98617 0.75666 0.0
H1900 H 0.96615 0.24647 0.76261 0.0
N1901 N 0.97586 0.26152 0.77028 0.0
H1902 H 0.95504 0.236 0.77083 0.0
H1903 H 0.9732 0.26024 0.78888 0.0
H1904 H 0.96235 0.24948 0.79731 0.0
H1905 H 0.96555 0.27661 0.77355 0.0
H1906 H 0.9544 0.28428 0.76277 0.0
H1907 H 0.97381 0.25785 0.75136 0.0
H1908 H 0.96276 0.26557 0.74041 0.0
H1909 H 0.98366 0.24533 0.76326 0.0
H1910 H 0.99026 0.27366 0.77237 0.0
H1911 H 1.00044 0.24248 0.76087 0.0
H1912 H 0.00705 0.27112 0.76943 0.0
H1913 H 0.05199 0.2329 0.75545 0.0
H1914 H 0.06338 0.22394 0.76496 0.0
H1915 H 0.06175 0.24474 0.78705 0.0
H1916 H 0.05041 0.2536 0.77754 0.0
H1917 H 0.05243 0.26625 0.76625 0.0
H1918 H 0.06411 0.27657 0.75843 0.0
H1919 H 0.0622 0.25923 0.73343 0.0
H1920 H 0.05051 0.24899 0.74134 0.0
H1921 H 0.03054 0.24251 0.74954 0.0
H1922 H 0.01367 0.24545 0.75161 0.0
H1923 H 0.02048 0.26376 0.77515 0.0
N1924 N 0.04505 0.24973 0.75924 0.0
H1925 H 0.03728 0.26124 0.77256 0.0
C1926 C 0.97048 0.25422 0.77514 0.0
C1927 C 0.96546 0.24711 0.7702 0.0
C1928 C 0.95912 0.24107 0.77494 0.0
C1929 C 0.95769 0.24193 0.78475 0.0
C1930 C 0.9631 0.24873 0.78973 0.0
C1931 C 0.96939 0.25481 0.78496 0.0
C1932 C 0.97051 0.2667 0.76328 0.0
C1933 C 0.9651 0.27431 0.76627 0.0
C1934 C 0.95875 0.27869 0.76008 0.0
C1935 C 0.95764 0.27553 0.75071 0.0
C1936 C 0.96334 0.2681 0.74761 0.0
C1937 C 0.96973 0.26373 0.75383 0.0
C1938 C 0.98568 0.2597 0.76817 0.0
C1939 C 0.9887 0.25098 0.76469 0.0
C1940 C 0.99836 0.24939 0.76322 0.0
C1941 C 0.00523 0.25653 0.76501 0.0
C1942 C 1.00209 0.26534 0.7682 0.0
C1943 C 0.99246 0.26686 0.7698 0.0
C1944 C 0.05026 0.24386 0.76577 0.0
C1945 C 0.05391 0.23538 0.76245 0.0
C1946 C 0.06049 0.23033 0.76785 0.0
C1947 C 0.06354 0.23368 0.77672 0.0
C1948 C 0.05949 0.24193 0.78027 0.0
C1949 C 0.05296 0.24701 0.77482 0.0
C1950 C 0.05061 0.25683 0.75435 0.0
C1951 C 0.05438 0.26478 0.75904 0.0
C1952 C 0.06111 0.27064 0.75457 0.0
C1953 C 0.06415 0.26869 0.74532 0.0
C1954 C 0.05997 0.26101 0.74051 0.0
C1955 C 0.05329 0.25514 0.745 0.0
C1956 C 0.03518 0.25152 0.76094 0.0
C1957 C 0.02835 0.24715 0.75514 0.0
C1958 C 0.01868 0.2488 0.7564 0.0
C1959 C 0.01559 0.25481 0.7636 0.0
C1960 C 0.02251 0.25919 0.76943 0.0
C1961 C 0.03219 0.25764 0.76806 0.0
H1962 H 0.78506 0.96611 0.7537 0.0
N1963 N 0.76721 0.9717 0.75442 0.0
H1964 H 0.79296 0.95516 0.76454 0.0
H1965 H 0.76043 0.9657 0.77151 0.0
H1966 H 0.76828 0.95486 0.78249 0.0
H1967 H 0.74872 0.96887 0.75928 0.0
H1968 H 0.73751 0.9577 0.7518 0.0
H1969 H 0.76971 0.96229 0.7385 0.0
H1970 H 0.75864 0.95115 0.73095 0.0
H1971 H 0.77321 0.98372 0.74122 0.0
H1972 H 0.75938 0.98246 0.76826 0.0
H1973 H 0.77259 1.00092 0.7413 0.0
H1974 H 0.75912 0.99977 0.7687 0.0
H1975 H 0.78268 0.05308 0.75241 0.0
H1976 H 0.79019 0.06356 0.76401 0.0
H1977 H 0.76999 0.05401 0.78503 0.0
H1978 H 0.76249 0.04358 0.77326 0.0
H1979 H 0.7501 0.04784 0.76185 0.0
H1980 H 0.73914 0.05906 0.75468 0.0
H1981 H 0.75678 0.06076 0.72981 0.0
H1982 H 0.76757 0.04938 0.737 0.0
H1983 H 0.78013 0.03107 0.74825 0.0
H1984 H 0.77997 0.01384 0.74865 0.0
H1985 H 0.7526 0.01393 0.76225 0.0
N1986 N 0.76709 0.0426 0.75458 0.0
H1987 H 0.75311 0.03124 0.7622 0.0
C1988 C 0.77221 0.96674 0.7618 0.0
C1989 C 0.78148 0.96385 0.7601 0.0
C1990 C 0.78597 0.9576 0.76632 0.0
C1991 C 0.78123 0.95406 0.77437 0.0
C1992 C 0.77208 0.95733 0.77629 0.0
C1993 C 0.76761 0.96362 0.77007 0.0
C1994 C 0.76004 0.96635 0.74942 0.0
C1995 C 0.75085 0.96511 0.75302 0.0
C1996 C 0.74448 0.9587 0.74877 0.0
C1997 C 0.74719 0.9535 0.7408 0.0
C1998 C 0.75627 0.95511 0.737 0.0
C1999 C 0.76262 0.96145 0.74129 0.0
C2000 C 0.76647 0.98183 0.75476 0.0
C2001 C 0.77009 0.9872 0.74721 0.0
C2002 C 0.7698 0.99705 0.74733 0.0
C2003 C 0.76595 1.00183 0.75509 0.0
C2004 C 0.7621 0.99638 0.76259 0.0
C2005 C 0.76232 0.98647 0.7624 0.0
C2006 C 0.77207 0.04758 0.76197 0.0
C2007 C 0.78001 0.05313 0.75958 0.0
C2008 C 0.78429 0.05909 0.76623 0.0
C2009 C 0.78068 0.05966 0.77546 0.0
C2010 C 0.77288 0.05383 0.77795 0.0
C2011 C 0.76862 0.04782 0.77127 0.0
C2012 C 0.75964 0.04773 0.74991 0.0
C2013 C 0.75147 0.05042 0.75475 0.0
C2014 C 0.74526 0.05693 0.75068 0.0
C2015 C 0.74711 0.0609 0.74169 0.0
C2016 C 0.75505 0.05779 0.73668 0.0
C2017 C 0.76124 0.05128 0.74077 0.0
C2018 C 0.76661 0.03243 0.75505 0.0
C2019 C 0.77411 0.02734 0.75133 0.0
C2020 C 0.77395 0.01748 0.7515 0.0
C2021 C 0.76619 0.0124 0.75534 0.0
C2022 C 0.75872 0.01755 0.75927 0.0
C2023 C 0.75894 0.02748 0.75917 0.0
H2024 H 0.25983 0.75021 0.46678 0.0
N2025 N 0.25379 0.76687 0.47425 0.0
H2026 H 0.25113 0.74033 0.45554 0.0
H2027 H 0.23565 0.76819 0.46932 0.0
H2028 H 0.22683 0.75825 0.45806 0.0
H2029 H 0.25179 0.78321 0.46523 0.0
H2030 H 0.26271 0.79062 0.45391 0.0
H2031 H 0.27198 0.76139 0.47095 0.0
H2032 H 0.28296 0.76869 0.45956 0.0
H2033 H 0.26228 0.75172 0.4829 0.0
H2034 H 0.24927 0.77845 0.48811 0.0
H2035 H 0.26443 0.74926 0.49986 0.0
H2036 H 0.25179 0.77631 0.50513 0.0
H2037 H 0.26294 0.73737 0.54785 0.0
H2038 H 0.25211 0.72878 0.55844 0.0
H2039 H 0.23615 0.75424 0.56222 0.0
H2040 H 0.24711 0.76278 0.55183 0.0
H2041 H 0.25919 0.77425 0.54759 0.0
H2042 H 0.26684 0.78425 0.55958 0.0
H2043 H 0.28705 0.76228 0.56529 0.0
H2044 H 0.2791 0.75226 0.55356 0.0
H2045 H 0.27494 0.75118 0.53027 0.0
H2046 H 0.2731 0.75407 0.51328 0.0
H2047 H 0.24651 0.76779 0.51848 0.0
N2048 N 0.26328 0.75579 0.54407 0.0
H2049 H 0.24869 0.76525 0.53544 0.0
C2050 C 0.24835 0.75994 0.46898 0.0
C2051 C 0.25255 0.75189 0.46516 0.0
C2052 C 0.24756 0.74623 0.45869 0.0
C2053 C 0.2383 0.74853 0.45583 0.0
C2054 C 0.23398 0.75634 0.46001 0.0
C2055 C 0.23897 0.76197 0.46651 0.0
C2056 C 0.26104 0.77177 0.4689 0.0
C2057 C 0.25868 0.78015 0.46418 0.0
C2058 C 0.26493 0.78436 0.45772 0.0
C2059 C 0.27369 0.78021 0.45579 0.0
C2060 C 0.27622 0.77199 0.46081 0.0
C2061 C 0.26997 0.76783 0.46736 0.0
C2062 C 0.25549 0.76525 0.48421 0.0
C2063 C 0.25991 0.75709 0.48768 0.0
C2064 C 0.26123 0.75574 0.49744 0.0
C2065 C 0.25827 0.76257 0.50397 0.0
C2066 C 0.25399 0.77079 0.50041 0.0
C2067 C 0.25261 0.77208 0.49066 0.0
C2068 C 0.25585 0.75068 0.549 0.0
C2069 C 0.25697 0.74102 0.55081 0.0
C2070 C 0.25076 0.73613 0.55686 0.0
C2071 C 0.24328 0.74083 0.56125 0.0
C2072 C 0.24192 0.75043 0.55908 0.0
C2073 C 0.24814 0.75531 0.55303 0.0
C2074 C 0.26856 0.76247 0.54975 0.0
C2075 C 0.26533 0.77166 0.55135 0.0
C2076 C 0.26975 0.77738 0.55819 0.0
C2077 C 0.27749 0.77403 0.56353 0.0
C2078 C 0.28099 0.76502 0.56149 0.0
C2079 C 0.27654 0.75932 0.55471 0.0
C2080 C 0.26195 0.7579 0.53414 0.0
C2081 C 0.26875 0.75486 0.52771 0.0
C2082 C 0.26762 0.75645 0.51798 0.0
C2083 C 0.2596 0.7611 0.51441 0.0
C2084 C 0.25284 0.76428 0.52092 0.0
C2085 C 0.25403 0.76276 0.53067 0.0
H2086 H 0.7723 0.77937 0.55272 0.0
N2087 N 0.7689 0.76242 0.54544 0.0
H2088 H 0.7624 0.78792 0.56383 0.0
H2089 H 0.75046 0.75791 0.55 0.0
H2090 H 0.74052 0.7664 0.56094 0.0
H2091 H 0.76147 0.74586 0.55252 0.0
H2092 H 0.76887 0.73573 0.56435 0.0
H2093 H 0.78687 0.76311 0.55114 0.0
H2094 H 0.79458 0.7527 0.56264 0.0
H2095 H 0.77886 0.77008 0.53143 0.0
H2096 H 0.75585 0.75052 0.53701 0.0
H2097 H 0.77719 0.76721 0.51447 0.0
H2098 H 0.75364 0.74807 0.52011 0.0
H2099 H 0.76697 0.76701 0.46756 0.0
H2100 H 0.75896 0.77736 0.45635 0.0
H2101 H 0.73319 0.76075 0.45957 0.0
H2102 H 0.74123 0.75058 0.47108 0.0
H2103 H 0.75676 0.73519 0.46606 0.0
H2104 H 0.76771 0.72782 0.45511 0.0
H2105 H 0.78932 0.74846 0.46264 0.0
H2106 H 0.77826 0.75576 0.47362 0.0
H2107 H 0.76623 0.7673 0.48417 0.0
H2108 H 0.76819 0.77002 0.50102 0.0
H2109 H 0.75967 0.74105 0.50675 0.0
N2110 N 0.75953 0.75094 0.47577 0.0
H2111 H 0.75713 0.73861 0.48982 0.0
C2112 C 0.76217 0.76802 0.55048 0.0
C2113 C 0.76527 0.77664 0.55432 0.0
C2114 C 0.7596 0.78151 0.56066 0.0
C2115 C 0.75069 0.7778 0.56335 0.0
C2116 C 0.7474 0.76938 0.55914 0.0
C2117 C 0.75308 0.76454 0.55277 0.0
C2118 C 0.77361 0.75532 0.55102 0.0
C2119 C 0.76872 0.74735 0.5546 0.0
C2120 C 0.77301 0.7415 0.56136 0.0
C2121 C 0.78231 0.74344 0.5646 0.0
C2122 C 0.78735 0.7511 0.56052 0.0
C2123 C 0.78301 0.757 0.55385 0.0
C2124 C 0.76742 0.76066 0.5355 0.0
C2125 C 0.77334 0.76527 0.52896 0.0
C2126 C 0.77231 0.76366 0.51924 0.0
C2127 C 0.76522 0.75744 0.5158 0.0
C2128 C 0.75927 0.75281 0.52242 0.0
C2129 C 0.76042 0.75433 0.53216 0.0
C2130 C 0.75466 0.75802 0.47025 0.0
C2131 C 0.75954 0.76571 0.46606 0.0
C2132 C 0.75497 0.77158 0.45954 0.0
C2133 C 0.74545 0.76984 0.45695 0.0
C2134 C 0.74049 0.76237 0.46145 0.0
C2135 C 0.74506 0.75654 0.46802 0.0
C2136 C 0.76667 0.746 0.47062 0.0
C2137 C 0.76393 0.73797 0.46549 0.0
C2138 C 0.77021 0.73378 0.45925 0.0
C2139 C 0.77938 0.73758 0.45795 0.0
C2140 C 0.78226 0.74543 0.46339 0.0
C2141 C 0.77598 0.74958 0.46971 0.0
C2142 C 0.76136 0.75274 0.48568 0.0
C2143 C 0.7647 0.76153 0.489 0.0
C2144 C 0.76593 0.76306 0.49873 0.0
C2145 C 0.76404 0.75579 0.50538 0.0
C2146 C 0.76097 0.74692 0.50195 0.0
C2147 C 0.75961 0.74547 0.49225 0.0
H2148 H 0.78627 0.24933 0.55264 0.0
N2149 N 0.76949 0.25192 0.5445 0.0
H2150 H 0.79422 0.25948 0.56427 0.0
H2151 H 0.76442 0.26996 0.54904 0.0
H2152 H 0.77244 0.28027 0.56032 0.0
H2153 H 0.75217 0.25815 0.55012 0.0
H2154 H 0.74152 0.25013 0.56129 0.0
H2155 H 0.77078 0.23436 0.55099 0.0
H2156 H 0.76021 0.22628 0.5622 0.0
H2157 H 0.77766 0.2424 0.53077 0.0
H2158 H 0.75785 0.26463 0.53556 0.0
H2159 H 0.77553 0.2443 0.51368 0.0
H2160 H 0.75617 0.26709 0.51861 0.0
H2161 H 0.77658 0.25451 0.46648 0.0
H2162 H 0.78778 0.26197 0.45554 0.0
H2163 H 0.77404 0.28871 0.45932 0.0
H2164 H 0.76298 0.28118 0.47044 0.0
H2165 H 0.74634 0.26734 0.46391 0.0
H2166 H 0.73799 0.25743 0.45234 0.0
H2167 H 0.75546 0.23388 0.46042 0.0
H2168 H 0.76366 0.24388 0.47213 0.0
H2169 H 0.77709 0.25607 0.48362 0.0
H2170 H 0.77898 0.25357 0.50056 0.0
H2171 H 0.74978 0.26131 0.50471 0.0
N2172 N 0.76123 0.26285 0.47444 0.0
H2173 H 0.7482 0.26441 0.48777 0.0
C2174 C 0.7748 0.25886 0.54988 0.0
C2175 C 0.78335 0.25618 0.55414 0.0
C2176 C 0.78788 0.26201 0.56079 0.0
C2177 C 0.78394 0.27069 0.56332 0.0
C2178 C 0.7756 0.27357 0.55868 0.0
C2179 C 0.77105 0.2677 0.55207 0.0
C2180 C 0.76229 0.24682 0.54971 0.0
C2181 C 0.75388 0.25113 0.55257 0.0
C2182 C 0.74783 0.24656 0.55902 0.0
C2183 C 0.75004 0.23758 0.5627 0.0
C2184 C 0.75823 0.23313 0.55945 0.0
C2185 C 0.76428 0.23772 0.55304 0.0
C2186 C 0.76806 0.25343 0.53448 0.0
C2187 C 0.77295 0.24778 0.52811 0.0
C2188 C 0.77177 0.24895 0.51833 0.0
C2189 C 0.76572 0.25591 0.51463 0.0
C2190 C 0.7608 0.26156 0.52109 0.0
C2191 C 0.76187 0.26026 0.53088 0.0
C2192 C 0.76894 0.26732 0.46934 0.0
C2193 C 0.77611 0.26202 0.46515 0.0
C2194 C 0.78247 0.26629 0.4588 0.0
C2195 C 0.78176 0.27593 0.45645 0.0
C2196 C 0.77487 0.2813 0.46102 0.0
C2197 C 0.76853 0.27702 0.46738 0.0
C2198 C 0.75559 0.25637 0.46885 0.0
C2199 C 0.74822 0.25999 0.4633 0.0
C2200 C 0.74354 0.25434 0.45664 0.0
C2201 C 0.74616 0.2449 0.45535 0.0
C2202 C 0.75326 0.24111 0.46125 0.0
C2203 C 0.75796 0.24681 0.46794 0.0
C2204 C 0.7625 0.2606 0.48437 0.0
C2205 C 0.7711 0.25729 0.48813 0.0
C2206 C 0.77214 0.25576 0.4979 0.0
C2207 C 0.76456 0.2573 0.50415 0.0
C2208 C 0.75588 0.26028 0.50026 0.0
C2209 C 0.75491 0.26197 0.49053 0.0
H2210 H 0.27988 0.25942 0.46771 0.0
N2211 N 0.26443 0.25426 0.4771 0.0
H2212 H 0.28896 0.24996 0.45674 0.0
H2213 H 0.26239 0.23511 0.47453 0.0
H2214 H 0.27164 0.22548 0.4639 0.0
H2215 H 0.24926 0.24541 0.46865 0.0
H2216 H 0.23827 0.25254 0.4573 0.0
H2217 H 0.26309 0.27244 0.4727 0.0
H2218 H 0.25225 0.27963 0.46126 0.0
H2219 H 0.27264 0.26325 0.49145 0.0
H2220 H 0.25193 0.2415 0.48508 0.0
H2221 H 0.26962 0.26117 0.50834 0.0
H2222 H 0.24932 0.23884 0.50192 0.0
H2223 H 0.26812 0.25021 0.5553 0.0
H2224 H 0.27816 0.2417 0.56644 0.0
H2225 H 0.26193 0.2161 0.5612 0.0
H2226 H 0.25177 0.22477 0.55011 0.0
H2227 H 0.23669 0.24044 0.55665 0.0
H2228 H 0.22963 0.2513 0.56784 0.0
H2229 H 0.25004 0.27291 0.55963 0.0
H2230 H 0.25712 0.26188 0.54852 0.0
H2231 H 0.26891 0.24943 0.53832 0.0
H2232 H 0.27187 0.25173 0.52154 0.0
H2233 H 0.2425 0.24477 0.51542 0.0
N2234 N 0.25217 0.24323 0.54643 0.0
H2235 H 0.2398 0.24187 0.53225 0.0
C2236 C 0.27051 0.24801 0.47201 0.0
C2237 C 0.27818 0.25196 0.46704 0.0
C2238 C 0.28338 0.24652 0.46078 0.0
C2239 C 0.28104 0.23692 0.45937 0.0
C2240 C 0.27357 0.23287 0.46467 0.0
C2241 C 0.26832 0.23837 0.47088 0.0
C2242 C 0.25698 0.25844 0.47154 0.0
C2243 C 0.24981 0.25292 0.46724 0.0
C2244 C 0.24359 0.25699 0.46067 0.0
C2245 C 0.2444 0.26665 0.45831 0.0
C2246 C 0.25133 0.2722 0.46298 0.0
C2247 C 0.25754 0.26812 0.46951 0.0
C2248 C 0.26265 0.25247 0.487 0.0
C2249 C 0.26755 0.25791 0.49373 0.0
C2250 C 0.26585 0.25664 0.50341 0.0
C2251 C 0.25925 0.24978 0.50662 0.0
C2252 C 0.25436 0.24429 0.49979 0.0
C2253 C 0.25596 0.24569 0.4901 0.0
C2254 C 0.25917 0.2381 0.55183 0.0
C2255 C 0.26682 0.24273 0.55637 0.0
C2256 C 0.27259 0.23783 0.56275 0.0
C2257 C 0.27082 0.22822 0.56477 0.0
C2258 C 0.26341 0.22353 0.5599 0.0
C2259 C 0.25766 0.22843 0.5535 0.0
C2260 C 0.24738 0.25034 0.55176 0.0
C2261 C 0.23949 0.24759 0.55714 0.0
C2262 C 0.23547 0.25383 0.56352 0.0
C2263 C 0.23929 0.26299 0.56468 0.0
C2264 C 0.247 0.26587 0.55901 0.0
C2265 C 0.25101 0.2596 0.55259 0.0
C2266 C 0.25412 0.2453 0.53659 0.0
C2267 C 0.26311 0.24833 0.53341 0.0
C2268 C 0.26477 0.24974 0.52373 0.0
C2269 C 0.25745 0.24839 0.51699 0.0
C2270 C 0.2484 0.24566 0.52028 0.0
C2271 C 0.2468 0.24409 0.52993 0.0
H2272 H 0.77047 0.46259 0.78032 0.0
N2273 N 0.76705 0.47192 0.76433 0.0
H2274 H 0.75998 0.45127 0.78843 0.0
H2275 H 0.74822 0.46869 0.76025 0.0
H2276 H 0.73765 0.45756 0.76838 0.0
H2277 H 0.75967 0.46285 0.74882 0.0
H2278 H 0.76785 0.45136 0.7392 0.0
H2279 H 0.78557 0.46892 0.76406 0.0
H2280 H 0.79398 0.45777 0.75416 0.0
H2281 H 0.77428 0.48641 0.77387 0.0
H2282 H 0.75581 0.47961 0.75044 0.0
H2283 H 0.77144 0.50321 0.77137 0.0
H2284 H 0.75231 0.49629 0.74827 0.0
H2285 H 0.75982 0.54872 0.77057 0.0
H2286 H 0.75138 0.55951 0.78073 0.0
H2287 H 0.72601 0.55528 0.76389 0.0
H2288 H 0.73462 0.54455 0.75361 0.0
H2289 H 0.75044 0.55114 0.73869 0.0
H2290 H 0.76143 0.56276 0.73173 0.0
H2291 H 0.78264 0.55521 0.75253 0.0
H2292 H 0.77156 0.54356 0.75942 0.0
H2293 H 0.75751 0.53176 0.77106 0.0
H2294 H 0.76069 0.51511 0.77324 0.0
H2295 H 0.75776 0.51089 0.74307 0.0
N2296 N 0.75303 0.54077 0.75419 0.0
H2297 H 0.75394 0.52752 0.74105 0.0
C2298 C 0.76017 0.46652 0.76971 0.0
C2299 C 0.76324 0.46165 0.77781 0.0
C2300 C 0.75723 0.4552 0.78244 0.0
C2301 C 0.74798 0.45345 0.77902 0.0
C2302 C 0.74478 0.45863 0.77112 0.0
C2303 C 0.75081 0.46509 0.7665 0.0
C2304 C 0.77201 0.46668 0.75726 0.0
C2305 C 0.76719 0.46191 0.74993 0.0
C2306 C 0.77191 0.45534 0.74439 0.0
C2307 C 0.78157 0.45348 0.74599 0.0
C2308 C 0.7865 0.45881 0.75288 0.0
C2309 C 0.78175 0.46529 0.75847 0.0
C2310 C 0.76519 0.48175 0.76246 0.0
C2311 C 0.76952 0.48857 0.76825 0.0
C2312 C 0.76779 0.49818 0.76684 0.0
C2313 C 0.76154 0.50123 0.75967 0.0
C2314 C 0.75725 0.49432 0.75381 0.0
C2315 C 0.75913 0.4847 0.75512 0.0
C2316 C 0.74782 0.54576 0.76131 0.0
C2317 C 0.75239 0.54993 0.76916 0.0
C2318 C 0.74754 0.55611 0.775 0.0
C2319 C 0.73803 0.55833 0.77309 0.0
C2320 C 0.73336 0.55383 0.76548 0.0
C2321 C 0.73823 0.54761 0.75967 0.0
C2322 C 0.76016 0.54653 0.74955 0.0
C2323 C 0.75753 0.55188 0.74161 0.0
C2324 C 0.76382 0.55849 0.73765 0.0
C2325 C 0.7729 0.55994 0.7416 0.0
C2326 C 0.77566 0.55434 0.74939 0.0
C2327 C 0.76936 0.54765 0.75331 0.0
C2328 C 0.75534 0.53097 0.75585 0.0
C2329 C 0.75747 0.52731 0.76489 0.0
C2330 C 0.75941 0.5177 0.76613 0.0
C2331 C 0.75949 0.51152 0.75834 0.0
C2332 C 0.75757 0.51528 0.74929 0.0
C2333 C 0.75546 0.52484 0.74809 0.0
H2334 H 0.25626 0.55008 0.76313 0.0
N2335 N 0.26518 0.5408 0.74891 0.0
H2336 H 0.26374 0.56084 0.77443 0.0
H2337 H 0.28365 0.54296 0.75228 0.0
H2338 H 0.29131 0.55328 0.76395 0.0
H2339 H 0.27024 0.55241 0.73497 0.0
H2340 H 0.26038 0.56398 0.72673 0.0
H2341 H 0.24576 0.54199 0.75013 0.0
H2342 H 0.23587 0.55348 0.74189 0.0
H2343 H 0.25311 0.53241 0.76168 0.0
H2344 H 0.27309 0.52679 0.73964 0.0
H2345 H 0.25042 0.51548 0.76403 0.0
H2346 H 0.271 0.50982 0.74232 0.0
H2347 H 0.2541 0.46145 0.77673 0.0
H2348 H 0.2658 0.45089 0.7837 0.0
H2349 H 0.28562 0.45888 0.76175 0.0
H2350 H 0.27376 0.4694 0.75478 0.0
H2351 H 0.26144 0.46295 0.74424 0.0
H2352 H 0.25287 0.45091 0.73516 0.0
H2353 H 0.22869 0.45378 0.75344 0.0
H2354 H 0.23738 0.46583 0.76254 0.0
H2355 H 0.25469 0.485 0.77306 0.0
H2356 H 0.25698 0.50192 0.77028 0.0
H2357 H 0.26141 0.49656 0.74055 0.0
N2358 N 0.25543 0.4711 0.76063 0.0
H2359 H 0.25972 0.47969 0.74355 0.0
C2360 C 0.26942 0.54583 0.75675 0.0
C2361 C 0.26391 0.55067 0.76333 0.0
C2362 C 0.26823 0.5568 0.76985 0.0
C2363 C 0.27816 0.55809 0.77004 0.0
C2364 C 0.28365 0.5527 0.76386 0.0
C2365 C 0.27931 0.5467 0.75726 0.0
C2366 C 0.25879 0.54627 0.74312 0.0
C2367 C 0.2627 0.55247 0.73635 0.0
C2368 C 0.25708 0.55912 0.73172 0.0
C2369 C 0.24737 0.55969 0.73372 0.0
C2370 C 0.24333 0.55318 0.74016 0.0
C2371 C 0.24899 0.54657 0.74487 0.0
C2372 C 0.26318 0.53086 0.75034 0.0
C2373 C 0.25688 0.52752 0.7573 0.0
C2374 C 0.25547 0.51778 0.75873 0.0
C2375 C 0.2605 0.51115 0.75339 0.0
C2376 C 0.26683 0.5146 0.74645 0.0
C2377 C 0.26809 0.52432 0.74493 0.0
C2378 C 0.26305 0.46618 0.76528 0.0
C2379 C 0.26105 0.46106 0.77356 0.0
C2380 C 0.26776 0.45504 0.77753 0.0
C2381 C 0.27665 0.45399 0.77327 0.0
C2382 C 0.2788 0.45943 0.76514 0.0
C2383 C 0.27206 0.46549 0.76118 0.0
C2384 C 0.25001 0.46537 0.75407 0.0
C2385 C 0.25421 0.4612 0.74615 0.0
C2386 C 0.2493 0.45429 0.74096 0.0
C2387 C 0.24013 0.45132 0.74363 0.0
C2388 C 0.23579 0.45582 0.75127 0.0
C2389 C 0.24069 0.46277 0.75642 0.0
C2390 C 0.25694 0.48103 0.75856 0.0
C2391 C 0.25621 0.48751 0.76595 0.0
C2392 C 0.25742 0.49721 0.76431 0.0
C2393 C 0.25929 0.50074 0.75515 0.0
C2394 C 0.26009 0.49419 0.74773 0.0
C2395 C 0.25903 0.48445 0.74942 0.0
H2396 H 0.27133 0.55004 0.28107 0.0
N2397 N 0.2574 0.53897 0.27468 0.0
H2398 H 0.28103 0.56137 0.27199 0.0
H2399 H 0.25793 0.54055 0.25525 0.0
H2400 H 0.26766 0.55174 0.24616 0.0
H2401 H 0.24397 0.54818 0.2642 0.0
H2402 H 0.23284 0.55973 0.27021 0.0
H2403 H 0.2532 0.54203 0.29269 0.0
H2404 H 0.24205 0.55354 0.29878 0.0
H2405 H 0.26579 0.52453 0.28313 0.0
H2406 H 0.24535 0.5312 0.26143 0.0
H2407 H 0.26363 0.50771 0.27992 0.0
H2408 H 0.2436 0.51449 0.25765 0.0
H2409 H 0.2646 0.46178 0.26675 0.0
H2410 H 0.27517 0.4512 0.25856 0.0
H2411 H 0.26024 0.45663 0.23232 0.0
H2412 H 0.24951 0.46708 0.24068 0.0
H2413 H 0.2334 0.45985 0.25514 0.0
H2414 H 0.22548 0.44801 0.26513 0.0
H2415 H 0.24474 0.45487 0.28809 0.0
H2416 H 0.25264 0.46673 0.27795 0.0
H2417 H 0.26494 0.47892 0.26614 0.0
H2418 H 0.26689 0.49562 0.26962 0.0
H2419 H 0.23745 0.5 0.26235 0.0
N2420 N 0.24879 0.47005 0.25922 0.0
H2421 H 0.23578 0.48334 0.25828 0.0
C2422 C 0.26396 0.54437 0.2689 0.0
C2423 C 0.27064 0.55025 0.27343 0.0
C2424 C 0.2761 0.55676 0.26825 0.0
C2425 C 0.27505 0.55747 0.25838 0.0
C2426 C 0.26866 0.5513 0.25376 0.0
C2427 C 0.2631 0.54486 0.25897 0.0
C2428 C 0.24945 0.54425 0.27803 0.0
C2429 C 0.24343 0.54912 0.27177 0.0
C2430 C 0.23712 0.55579 0.27521 0.0
C2431 C 0.23663 0.55762 0.28497 0.0
C2432 C 0.2422 0.55226 0.29123 0.0
C2433 C 0.24856 0.54567 0.28778 0.0
C2434 C 0.25584 0.52913 0.27249 0.0
C2435 C 0.26091 0.52234 0.27759 0.0
C2436 C 0.25972 0.51271 0.27566 0.0
C2437 C 0.25349 0.50962 0.26844 0.0
C2438 C 0.24836 0.5165 0.26335 0.0
C2439 C 0.24945 0.52613 0.26541 0.0
C2440 C 0.25623 0.46526 0.25431 0.0
C2441 C 0.26371 0.46087 0.2592 0.0
C2442 C 0.26978 0.45481 0.25448 0.0
C2443 C 0.26851 0.45297 0.24478 0.0
C2444 C 0.26133 0.45775 0.23982 0.0
C2445 C 0.25526 0.46381 0.24455 0.0
C2446 C 0.24357 0.46414 0.26578 0.0
C2447 C 0.23577 0.45892 0.26239 0.0
C2448 C 0.23126 0.45217 0.26813 0.0
C2449 C 0.23449 0.45047 0.27742 0.0
C2450 C 0.24215 0.45594 0.28093 0.0
C2451 C 0.24663 0.46275 0.27518 0.0
C2452 C 0.25021 0.47985 0.26178 0.0
C2453 C 0.25892 0.48345 0.26521 0.0
C2454 C 0.25999 0.49307 0.26731 0.0
C2455 C 0.25235 0.4993 0.26625 0.0
C2456 C 0.24359 0.49557 0.26305 0.0
C2457 C 0.24258 0.486 0.2608 0.0
H2458 H 0.77965 0.46396 0.25885 0.0
N2459 N 0.76465 0.47271 0.26706 0.0
H2460 H 0.79034 0.45298 0.2666 0.0
H2461 H 0.76664 0.46983 0.2856 0.0
H2462 H 0.77769 0.45921 0.29359 0.0
H2463 H 0.74949 0.46228 0.27136 0.0
H2464 H 0.74107 0.45091 0.26127 0.0
H2465 H 0.76757 0.47028 0.24812 0.0
H2466 H 0.75918 0.45888 0.2379 0.0
H2467 H 0.7811 0.48183 0.26128 0.0
H2468 H 0.75155 0.48595 0.26721 0.0
H2469 H 0.78324 0.49868 0.25844 0.0
H2470 H 0.75341 0.50275 0.2637 0.0
H2471 H 0.78738 0.55457 0.24955 0.0
H2472 H 0.79538 0.56611 0.25967 0.0
H2473 H 0.78107 0.55405 0.28402 0.0
H2474 H 0.77274 0.54294 0.27375 0.0
H2475 H 0.75894 0.55047 0.26342 0.0
H2476 H 0.74784 0.56168 0.25652 0.0
H2477 H 0.75999 0.55723 0.22894 0.0
H2478 H 0.77124 0.54619 0.23601 0.0
H2479 H 0.78304 0.52845 0.24625 0.0
H2480 H 0.7808 0.51146 0.24863 0.0
H2481 H 0.7591 0.51692 0.26929 0.0
N2482 N 0.77374 0.54238 0.25428 0.0
H2483 H 0.76093 0.53379 0.26626 0.0
C2484 C 0.77224 0.46766 0.27165 0.0
C2485 C 0.77923 0.46305 0.26644 0.0
C2486 C 0.78542 0.45679 0.27092 0.0
C2487 C 0.78484 0.45507 0.28074 0.0
C2488 C 0.77821 0.46016 0.28599 0.0
C2489 C 0.77197 0.46634 0.28148 0.0
C2490 C 0.75912 0.46709 0.2605 0.0
C2491 C 0.7515 0.46169 0.26401 0.0
C2492 C 0.7467 0.45521 0.25822 0.0
C2493 C 0.74947 0.45396 0.24878 0.0
C2494 C 0.75695 0.45961 0.24517 0.0
C2495 C 0.76171 0.46615 0.25097 0.0
C2496 C 0.76614 0.48258 0.26462 0.0
C2497 C 0.77502 0.48632 0.26189 0.0
C2498 C 0.77621 0.49604 0.26016 0.0
C2499 C 0.76852 0.50224 0.26089 0.0
C2500 C 0.75959 0.49836 0.2633 0.0
C2501 C 0.75847 0.48869 0.26521 0.0
C2502 C 0.77951 0.54781 0.26082 0.0
C2503 C 0.78613 0.55431 0.2571 0.0
C2504 C 0.79071 0.5609 0.26294 0.0
C2505 C 0.78887 0.5611 0.27272 0.0
C2506 C 0.78255 0.55427 0.27651 0.0
C2507 C 0.77785 0.54777 0.27063 0.0
C2508 C 0.76594 0.54749 0.2502 0.0
C2509 C 0.75906 0.55172 0.25586 0.0
C2510 C 0.75271 0.55816 0.25188 0.0
C2511 C 0.75309 0.56047 0.24218 0.0
C2512 C 0.75961 0.55577 0.23647 0.0
C2513 C 0.76597 0.54937 0.24045 0.0
C2514 C 0.77227 0.53241 0.25614 0.0
C2515 C 0.77779 0.52593 0.25127 0.0
C2516 C 0.77654 0.5162 0.25273 0.0
C2517 C 0.76979 0.51267 0.25922 0.0
C2518 C 0.76426 0.51925 0.26411 0.0
C2519 C 0.7654 0.52898 0.2625 0.0
H2520 H 0.55299 0.28218 0.75019 0.0
N2521 N 0.54701 0.26428 0.74971 0.0
H2522 H 0.56387 0.28935 0.76175 0.0
H2523 H 0.55246 0.25635 0.76648 0.0
H2524 H 0.56316 0.26347 0.77818 0.0
H2525 H 0.54984 0.24561 0.75338 0.0
H2526 H 0.56178 0.23576 0.74588 0.0
H2527 H 0.55668 0.26841 0.73416 0.0
H2528 H 0.56837 0.2586 0.72639 0.0
H2529 H 0.53532 0.27039 0.73633 0.0
H2530 H 0.53576 0.25593 0.76324 0.0
H2531 H 0.51803 0.26987 0.73626 0.0
H2532 H 0.51841 0.25582 0.76356 0.0
H2533 H 0.46602 0.27954 0.74469 0.0
H2534 H 0.45482 0.28753 0.75493 0.0
H2535 H 0.46225 0.2687 0.77794 0.0
H2536 H 0.47369 0.26097 0.76765 0.0
H2537 H 0.4697 0.2479 0.75718 0.0
H2538 H 0.45868 0.23629 0.75033 0.0
H2539 H 0.45899 0.2519 0.7239 0.0
H2540 H 0.47017 0.26336 0.73081 0.0
H2541 H 0.48807 0.2774 0.74279 0.0
H2542 H 0.50534 0.27714 0.74345 0.0
H2543 H 0.50394 0.24978 0.75725 0.0
N2544 N 0.47589 0.26425 0.74874 0.0
H2545 H 0.48662 0.25041 0.757 0.0
C2546 C 0.55189 0.26878 0.75749 0.0
C2547 C 0.55501 0.27816 0.75642 0.0
C2548 C 0.56123 0.28224 0.76304 0.0
C2549 C 0.56447 0.27696 0.77087 0.0
C2550 C 0.56093 0.26768 0.77217 0.0
C2551 C 0.55471 0.26362 0.76553 0.0
C2552 C 0.55247 0.25775 0.74434 0.0
C2553 C 0.55377 0.2484 0.7474 0.0
C2554 C 0.56058 0.24278 0.74308 0.0
C2555 C 0.56616 0.24645 0.73563 0.0
C2556 C 0.56436 0.25562 0.73224 0.0
C2557 C 0.55761 0.2612 0.73658 0.0
C2558 C 0.53683 0.26333 0.7498 0.0
C2559 C 0.53165 0.26713 0.74225 0.0
C2560 C 0.52175 0.26691 0.7423 0.0
C2561 C 0.51673 0.26297 0.75001 0.0
C2562 C 0.52197 0.25889 0.75748 0.0
C2563 C 0.53193 0.259 0.75735 0.0
C2564 C 0.47062 0.26968 0.75541 0.0
C2565 C 0.46536 0.2773 0.75201 0.0
C2566 C 0.4589 0.28177 0.75784 0.0
C2567 C 0.4575 0.27865 0.76722 0.0
C2568 C 0.46316 0.2713 0.77077 0.0
C2569 C 0.46968 0.26685 0.76491 0.0
C2570 C 0.47079 0.25647 0.74446 0.0
C2571 C 0.46759 0.24868 0.74984 0.0
C2572 C 0.4612 0.2421 0.74594 0.0
C2573 C 0.45787 0.2432 0.73658 0.0
C2574 C 0.46148 0.25076 0.73109 0.0
C2575 C 0.46786 0.25732 0.73501 0.0
C2576 C 0.48605 0.26391 0.74971 0.0
C2577 C 0.49151 0.27139 0.74601 0.0
C2578 C 0.5014 0.27116 0.74631 0.0
C2579 C 0.50613 0.26334 0.75023 0.0
C2580 C 0.50061 0.25593 0.7542 0.0
C2581 C 0.49066 0.25624 0.754 0.0
H2582 H 0.4667 0.74635 0.75445 0.0
N2583 N 0.4759 0.76147 0.76262 0.0
H2584 H 0.45559 0.73556 0.7622 0.0
H2585 H 0.4729 0.75972 0.78113 0.0
H2586 H 0.462 0.74865 0.78909 0.0
H2587 H 0.46594 0.77662 0.76661 0.0
H2588 H 0.45433 0.78449 0.75647 0.0
H2589 H 0.47321 0.7583 0.74368 0.0
H2590 H 0.46158 0.76612 0.73343 0.0
H2591 H 0.48373 0.74629 0.7537 0.0
H2592 H 0.49027 0.77316 0.76646 0.0
H2593 H 0.50054 0.74373 0.7511 0.0
H2594 H 0.50712 0.77094 0.76345 0.0
H2595 H 0.5502 0.73284 0.74864 0.0
H2596 H 0.56137 0.72368 0.75824 0.0
H2597 H 0.56343 0.74657 0.77819 0.0
H2598 H 0.5524 0.75567 0.76856 0.0
H2599 H 0.55032 0.76821 0.75743 0.0
H2600 H 0.56191 0.7789 0.74992 0.0
H2601 H 0.56425 0.75952 0.72662 0.0
H2602 H 0.5527 0.74889 0.73422 0.0
H2603 H 0.5308 0.74537 0.74011 0.0
H2604 H 0.51391 0.74818 0.74228 0.0
H2605 H 0.52034 0.76249 0.76855 0.0
N2606 N 0.54514 0.7506 0.75123 0.0
H2607 H 0.53716 0.76006 0.76601 0.0
C2608 C 0.47063 0.75392 0.76722 0.0
C2609 C 0.46586 0.74683 0.76203 0.0
C2610 C 0.4595 0.7406 0.76651 0.0
C2611 C 0.45779 0.74127 0.77628 0.0
C2612 C 0.46298 0.74804 0.78153 0.0
C2613 C 0.4693 0.7543 0.77702 0.0
C2614 C 0.47042 0.7669 0.75593 0.0
C2615 C 0.46518 0.77447 0.7593 0.0
C2616 C 0.45855 0.77894 0.75349 0.0
C2617 C 0.45698 0.77589 0.74415 0.0
C2618 C 0.46254 0.76856 0.74063 0.0
C2619 C 0.46924 0.76412 0.74645 0.0
C2620 C 0.48572 0.75989 0.76042 0.0
C2621 C 0.48877 0.75169 0.75589 0.0
C2622 C 0.49844 0.75027 0.75433 0.0
C2623 C 0.5053 0.75709 0.75712 0.0
C2624 C 0.50214 0.76541 0.7614 0.0
C2625 C 0.4925 0.76675 0.76305 0.0
C2626 C 0.55033 0.74487 0.7579 0.0
C2627 C 0.55288 0.73576 0.75521 0.0
C2628 C 0.55932 0.73059 0.76065 0.0
C2629 C 0.56331 0.73443 0.76896 0.0
C2630 C 0.5604 0.74338 0.7719 0.0
C2631 C 0.55403 0.74859 0.76639 0.0
C2632 C 0.55068 0.75773 0.74636 0.0
C2633 C 0.55323 0.76633 0.75065 0.0
C2634 C 0.55989 0.77242 0.74637 0.0
C2635 C 0.56406 0.77004 0.7377 0.0
C2636 C 0.56112 0.76163 0.73324 0.0
C2637 C 0.55453 0.75554 0.73756 0.0
C2638 C 0.53526 0.75239 0.75291 0.0
C2639 C 0.52852 0.74912 0.74632 0.0
C2640 C 0.51885 0.75069 0.74763 0.0
C2641 C 0.51566 0.75553 0.75563 0.0
C2642 C 0.52248 0.75884 0.76222 0.0
C2643 C 0.53217 0.75736 0.76084 0.0
H2644 H 0.55716 0.77028 0.25118 0.0
N2645 N 0.54606 0.75558 0.2554 0.0
H2646 H 0.56829 0.7786 0.26162 0.0
H2647 H 0.54724 0.75346 0.27477 0.0
H2648 H 0.55796 0.76199 0.28533 0.0
H2649 H 0.55453 0.74065 0.26429 0.0
H2650 H 0.56593 0.73 0.25723 0.0
H2651 H 0.55012 0.75404 0.23717 0.0
H2652 H 0.5616 0.74352 0.23004 0.0
H2653 H 0.53178 0.76467 0.24736 0.0
H2654 H 0.53787 0.74221 0.26708 0.0
H2655 H 0.51481 0.76209 0.24977 0.0
H2656 H 0.52104 0.74005 0.27018 0.0
H2657 H 0.46693 0.75976 0.26026 0.0
H2658 H 0.45605 0.7704 0.2679 0.0
H2659 H 0.46461 0.75939 0.29525 0.0
H2660 H 0.47503 0.7483 0.2874 0.0
H2661 H 0.46492 0.7314 0.27372 0.0
H2662 H 0.45304 0.72346 0.26372 0.0
H2663 H 0.46299 0.73956 0.23956 0.0
H2664 H 0.47488 0.74748 0.24965 0.0
H2665 H 0.48549 0.76195 0.26288 0.0
H2666 H 0.50228 0.76421 0.25972 0.0
H2667 H 0.50669 0.73443 0.26483 0.0
N2668 N 0.47663 0.74544 0.26888 0.0
H2669 H 0.48997 0.73243 0.2687 0.0
C2670 C 0.5513 0.76129 0.26213 0.0
C2671 C 0.55719 0.76858 0.25867 0.0
C2672 C 0.56354 0.77334 0.26467 0.0
C2673 C 0.56409 0.77096 0.27435 0.0
C2674 C 0.55788 0.76391 0.27789 0.0
C2675 C 0.55161 0.75908 0.27185 0.0
C2676 C 0.55144 0.74814 0.25122 0.0
C2677 C 0.55584 0.74116 0.25677 0.0
C2678 C 0.56244 0.73514 0.25273 0.0
C2679 C 0.56475 0.73595 0.24308 0.0
C2680 C 0.55994 0.74261 0.23747 0.0
C2681 C 0.55337 0.74864 0.24152 0.0
C2682 C 0.53612 0.75376 0.25711 0.0
C2683 C 0.52943 0.75925 0.25231 0.0
C2684 C 0.51971 0.75781 0.25379 0.0
C2685 C 0.51641 0.7509 0.26026 0.0
C2686 C 0.52319 0.74535 0.26503 0.0
C2687 C 0.5329 0.74667 0.26338 0.0
C2688 C 0.47169 0.7531 0.27327 0.0
C2689 C 0.46653 0.75969 0.2679 0.0
C2690 C 0.46034 0.76585 0.27232 0.0
C2691 C 0.45928 0.7657 0.28223 0.0
C2692 C 0.465 0.75955 0.2876 0.0
C2693 C 0.47107 0.75329 0.28315 0.0
C2694 C 0.47079 0.73997 0.26245 0.0
C2695 C 0.46465 0.73306 0.26623 0.0
C2696 C 0.45783 0.72861 0.26053 0.0
C2697 C 0.45703 0.73095 0.25088 0.0
C2698 C 0.46348 0.73757 0.24696 0.0
C2699 C 0.47027 0.74209 0.25271 0.0
C2700 C 0.48643 0.747 0.26621 0.0
C2701 C 0.49004 0.7559 0.26339 0.0
C2702 C 0.49972 0.75717 0.26147 0.0
C2703 C 0.506 0.74953 0.26207 0.0
C2704 C 0.50224 0.74057 0.26453 0.0
C2705 C 0.49262 0.73937 0.26665 0.0
H2706 H 0.5575 0.27351 0.28409 0.0
N2707 N 0.54619 0.26859 0.26981 0.0
H2708 H 0.56875 0.26348 0.2926 0.0
H2709 H 0.54704 0.24935 0.26864 0.0
H2710 H 0.55827 0.23927 0.27708 0.0
H2711 H 0.55233 0.25885 0.25455 0.0
H2712 H 0.56364 0.26477 0.24269 0.0
H2713 H 0.55148 0.28649 0.26697 0.0
H2714 H 0.56262 0.29252 0.25505 0.0
H2715 H 0.53483 0.27995 0.27902 0.0
H2716 H 0.53462 0.25642 0.25994 0.0
H2717 H 0.51755 0.27989 0.27897 0.0
H2718 H 0.51724 0.25585 0.26025 0.0
H2719 H 0.4645 0.27226 0.28613 0.0
H2720 H 0.45348 0.26104 0.29367 0.0
H2721 H 0.46214 0.23942 0.27428 0.0
H2722 H 0.47336 0.2507 0.26696 0.0
H2723 H 0.46872 0.2618 0.25438 0.0
H2724 H 0.45753 0.26895 0.24328 0.0
H2725 H 0.45814 0.29452 0.25979 0.0
H2726 H 0.46949 0.28732 0.27074 0.0
H2727 H 0.4872 0.27278 0.28497 0.0
H2728 H 0.50442 0.27177 0.28475 0.0
H2729 H 0.50309 0.26324 0.25544 0.0
N2730 N 0.47503 0.26948 0.27099 0.0
H2731 H 0.48579 0.26372 0.25596 0.0
C2732 C 0.5514 0.2622 0.27579 0.0
C2733 C 0.55749 0.26599 0.28271 0.0
C2734 C 0.56396 0.26028 0.28748 0.0
C2735 C 0.56446 0.25059 0.28544 0.0
C2736 C 0.55801 0.24668 0.27885 0.0
C2737 C 0.55157 0.25245 0.27402 0.0
C2738 C 0.55113 0.27225 0.26166 0.0
C2739 C 0.5544 0.26624 0.25458 0.0
C2740 C 0.56089 0.26962 0.24785 0.0
C2741 C 0.56408 0.27909 0.248 0.0
C2742 C 0.56026 0.28521 0.25471 0.0
C2743 C 0.55389 0.2818 0.2615 0.0
C2744 C 0.53599 0.26812 0.26964 0.0
C2745 C 0.531 0.27467 0.27492 0.0
C2746 C 0.5211 0.27455 0.27493 0.0
C2747 C 0.51589 0.26776 0.26973 0.0
C2748 C 0.52095 0.26122 0.26432 0.0
C2749 C 0.53091 0.26144 0.26422 0.0
C2750 C 0.46968 0.26231 0.27601 0.0
C2751 C 0.46413 0.26504 0.28365 0.0
C2752 C 0.45778 0.25865 0.28787 0.0
C2753 C 0.45681 0.24937 0.28448 0.0
C2754 C 0.46273 0.2465 0.27708 0.0
C2755 C 0.46911 0.25294 0.27286 0.0
C2756 C 0.46998 0.27407 0.26338 0.0
C2757 C 0.46665 0.26903 0.25546 0.0
C2758 C 0.46016 0.2731 0.24917 0.0
C2759 C 0.45683 0.28229 0.25068 0.0
C2760 C 0.4606 0.28748 0.25833 0.0
C2761 C 0.46709 0.28339 0.2646 0.0
C2762 C 0.48519 0.26848 0.27049 0.0
C2763 C 0.49064 0.27064 0.27852 0.0
C2764 C 0.50052 0.27014 0.27833 0.0
C2765 C 0.50526 0.2676 0.27001 0.0
C2766 C 0.49974 0.26518 0.262 0.0
C2767 C 0.4898 0.26554 0.26225 0.0
H2768 H 0.19988 0.20049 0.12657 0.0
H2769 H 0.20577 0.20958 0.11297 0.0
H2770 H 0.23374 0.2105 0.12549 0.0
H2771 H 0.22784 0.20168 0.13924 0.0
H2772 H 0.22945 0.2273 0.11797 0.0
H2773 H 0.22814 0.19504 0.10775 0.0
H2774 H 0.22062 0.17948 0.10485 0.0
H2775 H 0.20047 0.19227 0.086 0.0
H2776 H 0.2078 0.20795 0.0889 0.0
H2777 H 0.25612 0.24067 0.07799 0.0
H2778 H 0.24952 0.23177 0.09127 0.0
H2779 H 0.22216 0.23104 0.07746 0.0
H2780 H 0.22885 0.23955 0.06385 0.0
H2781 H 0.22566 0.21443 0.08557 0.0
H2782 H 0.22747 0.24679 0.0956 0.0
H2783 H 0.23545 0.26217 0.09833 0.0
H2784 H 0.25506 0.24903 0.1175 0.0
H2785 H 0.24725 0.23354 0.1148 0.0
C2786 C 0.20726 0.20273 0.12649 0.0
C2787 C 0.2134 0.2003 0.13398 0.0
C2788 C 0.21064 0.20785 0.11866 0.0
C2789 C 0.22024 0.21062 0.11813 0.0
C2790 C 0.22632 0.20841 0.1257 0.0
C2791 C 0.22295 0.20329 0.13353 0.0
C2792 C 0.22398 0.21572 0.10966 0.0
C2793 C 0.2287 0.22444 0.1109 0.0
C2794 C 0.22286 0.21209 0.10039 0.0
C2795 C 0.21845 0.20268 0.09862 0.0
C2796 C 0.22206 0.19455 0.10305 0.0
C2797 C 0.21784 0.18571 0.10139 0.0
C2798 C 0.21006 0.18489 0.09526 0.0
C2799 C 0.20649 0.19292 0.09076 0.0
C2800 C 0.21068 0.20178 0.0924 0.0
C2801 C 0.24874 0.23848 0.07765 0.0
C2802 C 0.24303 0.24086 0.0698 0.0
C2803 C 0.24494 0.23349 0.08534 0.0
C2804 C 0.23529 0.23089 0.08547 0.0
C2805 C 0.22961 0.23303 0.07756 0.0
C2806 C 0.23343 0.23797 0.06981 0.0
C2807 C 0.23114 0.226 0.09389 0.0
C2808 C 0.22636 0.21733 0.09264 0.0
C2809 C 0.23223 0.22966 0.10315 0.0
C2810 C 0.23682 0.23899 0.10494 0.0
C2811 C 0.23351 0.24717 0.10036 0.0
C2812 C 0.238 0.25591 0.10191 0.0
C2813 C 0.24577 0.25657 0.10807 0.0
C2814 C 0.24904 0.2485 0.11273 0.0
C2815 C 0.24457 0.23975 0.1112 0.0
H2816 H 0.24925 0.26333 0.10925 0.0
H2817 H 0.2068 0.17804 0.09399 0.0
H2818 H 0.82437 0.20125 0.13066 0.0
H2819 H 0.81894 0.21026 0.11686 0.0
H2820 H 0.79013 0.20132 0.12242 0.0
H2821 H 0.79547 0.19239 0.13627 0.0
H2822 H 0.79428 0.19975 0.10388 0.0
H2823 H 0.7978 0.22348 0.12784 0.0
H2824 H 0.80626 0.23259 0.14019 0.0
H2825 H 0.82694 0.24189 0.11984 0.0
H2826 H 0.81867 0.23273 0.1074 0.0
H2827 H 0.76905 0.23273 0.07587 0.0
H2828 H 0.77571 0.22314 0.08861 0.0
H2829 H 0.80377 0.23347 0.08171 0.0
H2830 H 0.79716 0.24307 0.06886 0.0
H2831 H 0.80077 0.23414 0.10045 0.0
H2832 H 0.79681 0.21093 0.07628 0.0
H2833 H 0.78825 0.2019 0.06396 0.0
H2834 H 0.76836 0.19162 0.08464 0.0
H2835 H 0.77673 0.2007 0.09707 0.0
C2836 C 0.81687 0.20128 0.12901 0.0
C2837 C 0.81036 0.19609 0.1346 0.0
C2838 C 0.81378 0.20641 0.1211 0.0
C2839 C 0.80412 0.20652 0.11864 0.0
C2840 C 0.79762 0.20132 0.12416 0.0
C2841 C 0.8007 0.19619 0.13206 0.0
C2842 C 0.80075 0.21202 0.11029 0.0
C2843 C 0.79561 0.20729 0.10318 0.0
C2844 C 0.8027 0.22182 0.10925 0.0
C2845 C 0.80768 0.22733 0.11672 0.0
C2846 C 0.8042 0.2274 0.12602 0.0
C2847 C 0.80895 0.23259 0.13303 0.0
C2848 C 0.81715 0.23779 0.13081 0.0
C2849 C 0.8206 0.23784 0.12156 0.0
C2850 C 0.81588 0.23266 0.11452 0.0
C2851 C 0.77666 0.23284 0.07693 0.0
C2852 C 0.78257 0.23865 0.07129 0.0
C2853 C 0.78046 0.22736 0.08425 0.0
C2854 C 0.79026 0.2275 0.08608 0.0
C2855 C 0.79619 0.23325 0.08044 0.0
C2856 C 0.79239 0.23875 0.07311 0.0
C2857 C 0.79424 0.22188 0.09406 0.0
C2858 C 0.79949 0.22659 0.10111 0.0
C2859 C 0.79239 0.21206 0.09505 0.0
C2860 C 0.78735 0.20657 0.08759 0.0
C2861 C 0.79057 0.2068 0.07819 0.0
C2862 C 0.78576 0.20167 0.07119 0.0
C2863 C 0.77775 0.19621 0.07351 0.0
C2864 C 0.77456 0.19586 0.08285 0.0
C2865 C 0.77934 0.20099 0.08988 0.0
H2866 H 0.77404 0.19223 0.06808 0.0
H2867 H 0.82081 0.2418 0.13624 0.0
H2868 H 0.79659 0.81778 0.13807 0.0
H2869 H 0.79088 0.80886 0.12439 0.0
H2870 H 0.81858 0.81116 0.11177 0.0
H2871 H 0.8243 0.82033 0.12537 0.0
H2872 H 0.80463 0.81475 0.09891 0.0
H2873 H 0.81121 0.79056 0.12175 0.0
H2874 H 0.81042 0.78252 0.13728 0.0
H2875 H 0.7802 0.77952 0.13446 0.0
H2876 H 0.78079 0.78767 0.11896 0.0
H2877 H 0.79436 0.78039 0.06317 0.0
H2878 H 0.80137 0.78933 0.0763 0.0
H2879 H 0.77493 0.7872 0.09137 0.0
H2880 H 0.76801 0.77796 0.07849 0.0
H2881 H 0.7892 0.78323 0.10284 0.0
H2882 H 0.78247 0.80796 0.08038 0.0
H2883 H 0.78312 0.81613 0.06491 0.0
H2884 H 0.81346 0.8182 0.06703 0.0
H2885 H 0.813 0.80992 0.08246 0.0
C2886 C 0.80147 0.81645 0.13237 0.0
C2887 C 0.81091 0.81979 0.13283 0.0
C2888 C 0.79821 0.81127 0.12458 0.0
C2889 C 0.80432 0.80925 0.11709 0.0
C2890 C 0.81374 0.81261 0.11748 0.0
C2891 C 0.81702 0.81778 0.12529 0.0
C2892 C 0.80081 0.80372 0.10882 0.0
C2893 C 0.80139 0.80779 0.09974 0.0
C2894 C 0.79641 0.79472 0.10993 0.0
C2895 C 0.79604 0.7898 0.11923 0.0
C2896 C 0.80439 0.78825 0.12448 0.0
C2897 C 0.80398 0.78367 0.13327 0.0
C2898 C 0.79527 0.78053 0.13687 0.0
C2899 C 0.78695 0.78196 0.13167 0.0
C2900 C 0.78731 0.78655 0.12288 0.0
C2901 C 0.79004 0.7818 0.06929 0.0
C2902 C 0.7806 0.77847 0.06973 0.0
C2903 C 0.79404 0.787 0.07676 0.0
C2904 C 0.78866 0.78902 0.08481 0.0
C2905 C 0.77923 0.78575 0.08524 0.0
C2906 C 0.77524 0.78055 0.0778 0.0
C2907 C 0.79289 0.79431 0.09292 0.0
C2908 C 0.79247 0.79018 0.10199 0.0
C2909 C 0.79741 0.80325 0.0918 0.0
C2910 C 0.79771 0.80823 0.08252 0.0
C2911 C 0.78929 0.81009 0.07751 0.0
C2912 C 0.78962 0.81475 0.06875 0.0
C2913 C 0.79833 0.81766 0.06498 0.0
C2914 C 0.80672 0.81593 0.06996 0.0
C2915 C 0.80643 0.81126 0.07871 0.0
H2916 H 0.79858 0.82127 0.0582 0.0
H2917 H 0.79497 0.77698 0.14367 0.0
H2918 H 0.21428 0.79932 0.14094 0.0
H2919 H 0.22044 0.7907 0.12743 0.0
H2920 H 0.22206 0.81663 0.11124 0.0
H2921 H 0.21567 0.82525 0.12463 0.0
H2922 H 0.21517 0.80225 0.10058 0.0
H2923 H 0.24175 0.8075 0.12152 0.0
H2924 H 0.25044 0.80684 0.13671 0.0
H2925 H 0.24816 0.77656 0.1368 0.0
H2926 H 0.23933 0.77705 0.12167 0.0
H2927 H 0.24698 0.78802 0.06463 0.0
H2928 H 0.23904 0.79586 0.07767 0.0
H2929 H 0.23879 0.76978 0.09367 0.0
H2930 H 0.24703 0.762 0.08085 0.0
H2931 H 0.2446 0.7839 0.10448 0.0
H2932 H 0.21846 0.77851 0.08333 0.0
H2933 H 0.20974 0.77909 0.06816 0.0
H2934 H 0.21109 0.8094 0.06842 0.0
H2935 H 0.21994 0.809 0.08354 0.0
C2936 C 0.21583 0.80317 0.13447 0.0
C2937 C 0.21453 0.81299 0.1339 0.0
C2938 C 0.21943 0.79825 0.12677 0.0
C2939 C 0.22183 0.80304 0.11835 0.0
C2940 C 0.2203 0.81279 0.11767 0.0
C2941 C 0.21672 0.81772 0.12537 0.0
C2942 C 0.22611 0.79794 0.11031 0.0
C2943 C 0.22166 0.79832 0.1014 0.0
C2944 C 0.23447 0.79263 0.11143 0.0
C2945 C 0.23979 0.79232 0.12051 0.0
C2946 C 0.24303 0.80071 0.12482 0.0
C2947 C 0.248 0.80036 0.13341 0.0
C2948 C 0.24983 0.79166 0.13773 0.0
C2949 C 0.24672 0.78329 0.13345 0.0
C2950 C 0.24174 0.7836 0.12487 0.0
C2951 C 0.24525 0.78395 0.07093 0.0
C2952 C 0.24764 0.77436 0.07166 0.0
C2953 C 0.24062 0.78842 0.07835 0.0
C2954 C 0.23823 0.78339 0.08663 0.0
C2955 C 0.24053 0.77381 0.08734 0.0
C2956 C 0.24516 0.76934 0.07995 0.0
C2957 C 0.23367 0.7882 0.09471 0.0
C2958 C 0.23808 0.78778 0.10364 0.0
C2959 C 0.22527 0.79345 0.09361 0.0
C2960 C 0.21994 0.79372 0.08452 0.0
C2961 C 0.21696 0.78529 0.08011 0.0
C2962 C 0.21199 0.78559 0.07153 0.0
C2963 C 0.20988 0.79427 0.06731 0.0
C2964 C 0.21274 0.80268 0.07169 0.0
C2965 C 0.21773 0.80242 0.08027 0.0
H2966 H 0.20603 0.79449 0.06067 0.0
H2967 H 0.25367 0.79141 0.14438 0.0
H2968 H 0.22801 0.8146 0.88608 0.0
H2969 H 0.23392 0.80597 0.89988 0.0
H2970 H 0.20831 0.78893 0.90035 0.0
H2971 H 0.20243 0.79733 0.88636 0.0
H2972 H 0.21358 0.79573 0.91818 0.0
H2973 H 0.22786 0.7796 0.89221 0.0
H2974 H 0.23716 0.77844 0.87756 0.0
H2975 H 0.26157 0.7902 0.89179 0.0
H2976 H 0.25237 0.79155 0.9065 0.0
H2977 H 0.22903 0.76063 0.95071 0.0
H2978 H 0.22279 0.76938 0.93717 0.0
H2979 H 0.24991 0.78345 0.93362 0.0
H2980 H 0.25638 0.77428 0.94676 0.0
H2981 H 0.24371 0.77822 0.91725 0.0
H2982 H 0.22985 0.79461 0.9431 0.0
H2983 H 0.22077 0.79629 0.95782 0.0
H2984 H 0.19593 0.78481 0.94411 0.0
H2985 H 0.20489 0.78295 0.92933 0.0
C2986 C 0.22367 0.80894 0.88901 0.0
C2987 C 0.21474 0.80666 0.88504 0.0
C2988 C 0.22705 0.80404 0.89695 0.0
C2989 C 0.22158 0.79677 0.90111 0.0
C2990 C 0.21263 0.79454 0.89726 0.0
C2991 C 0.20927 0.79939 0.88928 0.0
C2992 C 0.22521 0.79152 0.90949 0.0
C2993 C 0.2201 0.79179 0.91796 0.0
C2994 C 0.23385 0.7866 0.90925 0.0
C2995 C 0.2394 0.78577 0.90043 0.0
C2996 C 0.23519 0.78201 0.89219 0.0
C2997 C 0.24044 0.78131 0.88388 0.0
C2998 C 0.24994 0.78427 0.88374 0.0
C2999 C 0.25421 0.78792 0.89191 0.0
C3000 C 0.24898 0.78865 0.90024 0.0
C3001 C 0.2337 0.76554 0.94703 0.0
C3002 C 0.24324 0.76671 0.94988 0.0
C3003 C 0.23008 0.77064 0.93934 0.0
C3004 C 0.23584 0.77719 0.93441 0.0
C3005 C 0.24531 0.77847 0.93731 0.0
C3006 C 0.24897 0.77329 0.94493 0.0
C3007 C 0.23211 0.78244 0.92603 0.0
C3008 C 0.23719 0.78216 0.91752 0.0
C3009 C 0.22349 0.78743 0.92626 0.0
C3010 C 0.21807 0.78855 0.93513 0.0
C3011 C 0.22247 0.79238 0.94324 0.0
C3012 C 0.21734 0.79337 0.95159 0.0
C3013 C 0.20778 0.79064 0.95191 0.0
C3014 C 0.20333 0.78692 0.94386 0.0
C3015 C 0.20843 0.7859 0.93549 0.0
H3016 H 0.20382 0.79141 0.95838 0.0
H3017 H 0.254 0.78371 0.8773 0.0
H3018 H 0.20635 0.19005 0.89341 0.0
H3019 H 0.21565 0.19665 0.90656 0.0
H3020 H 0.21037 0.2248 0.89613 0.0
H3021 H 0.20134 0.21826 0.88284 0.0
H3022 H 0.22858 0.22299 0.9013 0.0
H3023 H 0.19813 0.21537 0.91503 0.0
H3024 H 0.18465 0.20486 0.91917 0.0
H3025 H 0.20326 0.18694 0.93508 0.0
H3026 H 0.21689 0.19728 0.93093 0.0
H3027 H 0.24157 0.25044 0.94053 0.0
H3028 H 0.23258 0.24262 0.92802 0.0
H3029 H 0.23765 0.21557 0.94118 0.0
H3030 H 0.24618 0.22341 0.95412 0.0
H3031 H 0.22017 0.21594 0.93468 0.0
H3032 H 0.25052 0.22366 0.92157 0.0
H3033 H 0.26415 0.23399 0.91746 0.0
H3034 H 0.24608 0.25134 0.90031 0.0
H3035 H 0.23231 0.24119 0.90442 0.0
C3036 C 0.20725 0.19764 0.89387 0.0
C3037 C 0.20304 0.20362 0.88709 0.0
C3038 C 0.21249 0.20141 0.90144 0.0
C3039 C 0.21362 0.21124 0.90241 0.0
C3040 C 0.20957 0.2172 0.89557 0.0
C3041 C 0.20433 0.21345 0.88801 0.0
C3042 C 0.21902 0.21536 0.91052 0.0
C3043 C 0.22667 0.22153 0.9086 0.0
C3044 C 0.21673 0.21324 0.92005 0.0
C3045 C 0.20854 0.20704 0.92259 0.0
C3046 C 0.19936 0.20915 0.91935 0.0
C3047 C 0.19169 0.20323 0.92171 0.0
C3048 C 0.1931 0.19523 0.92736 0.0
C3049 C 0.20218 0.19314 0.93069 0.0
C3050 C 0.20988 0.19903 0.92834 0.0
C3051 C 0.24064 0.24284 0.94092 0.0
C3052 C 0.24465 0.23759 0.9484 0.0
C3053 C 0.2356 0.23836 0.93364 0.0
C3054 C 0.2346 0.22847 0.93351 0.0
C3055 C 0.23838 0.2232 0.94107 0.0
C3056 C 0.24335 0.2277 0.94843 0.0
C3057 C 0.22966 0.22368 0.92547 0.0
C3058 C 0.22211 0.21737 0.92739 0.0
C3059 C 0.23208 0.22563 0.91592 0.0
C3060 C 0.24037 0.2317 0.91337 0.0
C3061 C 0.24944 0.22971 0.91697 0.0
C3062 C 0.2572 0.23553 0.91464 0.0
C3063 C 0.25598 0.24332 0.90865 0.0
C3064 C 0.24701 0.2453 0.90496 0.0
C3065 C 0.23923 0.23951 0.90728 0.0
H3066 H 0.26199 0.24782 0.90685 0.0
H3067 H 0.18715 0.19065 0.92918 0.0
H3068 H 0.82267 0.19103 0.89978 0.0
H3069 H 0.81414 0.19756 0.91322 0.0
H3070 H 0.80439 0.22041 0.89551 0.0
H3071 H 0.81299 0.21399 0.88208 0.0
H3072 H 0.81135 0.22657 0.9127 0.0
H3073 H 0.78953 0.20266 0.90122 0.0
H3074 H 0.78467 0.18655 0.8965 0.0
H3075 H 0.79119 0.17621 0.9244 0.0
H3076 H 0.79622 0.19224 0.92926 0.0
H3077 H 0.77558 0.24556 0.94104 0.0
H3078 H 0.78473 0.23838 0.92849 0.0
H3079 H 0.79059 0.21458 0.94676 0.0
H3080 H 0.78121 0.22169 0.95932 0.0
H3081 H 0.78629 0.20851 0.92983 0.0
H3082 H 0.80768 0.23215 0.94167 0.0
H3083 H 0.81286 0.24809 0.94664 0.0
H3084 H 0.8078 0.25872 0.91854 0.0
H3085 H 0.80246 0.24287 0.91343 0.0
C3086 C 0.81873 0.19746 0.89876 0.0
C3087 C 0.81849 0.20198 0.88986 0.0
C3088 C 0.81381 0.20114 0.90643 0.0
C3089 C 0.80858 0.20944 0.90535 0.0
C3090 C 0.80836 0.21399 0.89649 0.0
C3091 C 0.81322 0.21027 0.88881 0.0
C3092 C 0.80342 0.21347 0.91348 0.0
C3093 C 0.8058 0.22267 0.91639 0.0
C3094 C 0.79639 0.20826 0.91847 0.0
C3095 C 0.79335 0.19863 0.91557 0.0
C3096 C 0.79001 0.19693 0.90632 0.0
C3097 C 0.78721 0.18782 0.90363 0.0
C3098 C 0.78765 0.18036 0.91014 0.0
C3099 C 0.79087 0.18199 0.91936 0.0
C3100 C 0.79369 0.19109 0.92209 0.0
C3101 C 0.77891 0.23885 0.94243 0.0
C3102 C 0.77775 0.23424 0.9512 0.0
C3103 C 0.78416 0.23474 0.93524 0.0
C3104 C 0.78852 0.226 0.93671 0.0
C3105 C 0.78732 0.22134 0.94545 0.0
C3106 C 0.78197 0.2254 0.95262 0.0
C3107 C 0.79414 0.22168 0.92903 0.0
C3108 C 0.79188 0.21241 0.9262 0.0
C3109 C 0.80135 0.2268 0.92415 0.0
C3110 C 0.80459 0.23633 0.92719 0.0
C3111 C 0.80761 0.2379 0.93657 0.0
C3112 C 0.81058 0.24692 0.93941 0.0
C3113 C 0.81064 0.25441 0.93292 0.0
C3114 C 0.80774 0.25291 0.92356 0.0
C3115 C 0.80475 0.24391 0.92069 0.0
H3116 H 0.81295 0.26139 0.93513 0.0
H3117 H 0.78547 0.17331 0.90804 0.0
H3118 H 0.82429 0.81374 0.89103 0.0
H3119 H 0.81731 0.80567 0.90477 0.0
H3120 H 0.78932 0.81209 0.89437 0.0
H3121 H 0.79622 0.82007 0.88061 0.0
H3122 H 0.79104 0.81614 0.91284 0.0
H3123 H 0.79827 0.78982 0.89286 0.0
H3124 H 0.80863 0.77986 0.88328 0.0
H3125 H 0.8262 0.77458 0.90763 0.0
H3126 H 0.81602 0.78461 0.91733 0.0
H3127 H 0.76216 0.78626 0.94095 0.0
H3128 H 0.77062 0.79412 0.92802 0.0
H3129 H 0.79728 0.78532 0.94003 0.0
H3130 H 0.7888 0.77731 0.95298 0.0
H3131 H 0.79725 0.78278 0.92148 0.0
H3132 H 0.78974 0.80847 0.94167 0.0
H3133 H 0.77948 0.81843 0.95134 0.0
H3134 H 0.76268 0.82508 0.9268 0.0
H3135 H 0.77277 0.81506 0.91699 0.0
C3136 C 0.81665 0.81333 0.8916 0.0
C3137 C 0.81082 0.81759 0.88471 0.0
C3138 C 0.81266 0.80873 0.89948 0.0
C3139 C 0.80278 0.80824 0.9006 0.0
C3140 C 0.79696 0.81242 0.8937 0.0
C3141 C 0.80093 0.81701 0.88584 0.0
C3142 C 0.79844 0.80357 0.90904 0.0
C3143 C 0.79232 0.80882 0.91467 0.0
C3144 C 0.80033 0.7941 0.91161 0.0
C3145 C 0.80644 0.78805 0.9058 0.0
C3146 C 0.80439 0.7866 0.89616 0.0
C3147 C 0.81022 0.78093 0.89071 0.0
C3148 C 0.81808 0.77661 0.89484 0.0
C3149 C 0.82012 0.77794 0.90443 0.0
C3150 C 0.81432 0.78361 0.90991 0.0
C3151 C 0.76983 0.7861 0.94092 0.0
C3152 C 0.77481 0.78124 0.94806 0.0
C3153 C 0.77467 0.7906 0.93351 0.0
C3154 C 0.78461 0.79046 0.93311 0.0
C3155 C 0.78961 0.78555 0.94018 0.0
C3156 C 0.78476 0.78098 0.94758 0.0
C3157 C 0.78973 0.79532 0.92521 0.0
C3158 C 0.79601 0.79012 0.91969 0.0
C3159 C 0.78801 0.80486 0.92275 0.0
C3160 C 0.78197 0.81095 0.92861 0.0
C3161 C 0.78382 0.81201 0.93835 0.0
C3162 C 0.77804 0.81767 0.94385 0.0
C3163 C 0.77042 0.82237 0.93969 0.0
C3164 C 0.76858 0.82143 0.93001 0.0
C3165 C 0.77433 0.81577 0.92447 0.0
H3166 H 0.76596 0.82675 0.94397 0.0
H3167 H 0.82258 0.77222 0.89061 0.0
H3168 H 0.13582 0.21241 0.1835 0.0
H3169 H 0.12167 0.21859 0.19087 0.0
H3170 H 0.12381 0.19776 0.21319 0.0
H3171 H 0.13777 0.19122 0.20559 0.0
H3172 H 0.10584 0.19946 0.20791 0.0
H3173 H 0.13069 0.22088 0.21672 0.0
H3174 H 0.14437 0.23169 0.21439 0.0
H3175 H 0.12728 0.24986 0.19709 0.0
H3176 H 0.11352 0.23908 0.19921 0.0
H3177 H 0.07575 0.22433 0.23994 0.0
H3178 H 0.08897 0.21651 0.23238 0.0
H3179 H 0.08531 0.2339 0.20749 0.0
H3180 H 0.07182 0.24151 0.21481 0.0
H3181 H 0.1041 0.23373 0.21463 0.0
H3182 H 0.07912 0.2117 0.20623 0.0
H3183 H 0.06566 0.20082 0.20941 0.0
H3184 H 0.08344 0.18377 0.22718 0.0
H3185 H 0.09698 0.19463 0.22421 0.0
C3186 C 0.13323 0.20903 0.1899 0.0
C3187 C 0.13797 0.20129 0.19393 0.0
C3188 C 0.12518 0.21266 0.19418 0.0
C3189 C 0.12173 0.20874 0.20267 0.0
C3190 C 0.12635 0.20093 0.20666 0.0
C3191 C 0.13439 0.19726 0.20235 0.0
C3192 C 0.11334 0.21284 0.20737 0.0
C3193 C 0.10553 0.20693 0.2095 0.0
C3194 C 0.11284 0.22262 0.20935 0.0
C3195 C 0.1211 0.22912 0.20805 0.0
C3196 C 0.12987 0.22714 0.21236 0.0
C3197 C 0.13763 0.23327 0.21108 0.0
C3198 C 0.1367 0.24145 0.20557 0.0
C3199 C 0.12799 0.24352 0.20134 0.0
C3200 C 0.1202 0.23741 0.20258 0.0
C3201 C 0.07757 0.22636 0.23277 0.0
C3202 C 0.07267 0.2336 0.22802 0.0
C3203 C 0.08519 0.2219 0.22848 0.0
C3204 C 0.08813 0.22463 0.21938 0.0
C3205 C 0.08319 0.23173 0.21455 0.0
C3206 C 0.0755 0.2361 0.21878 0.0
C3207 C 0.09661 0.22037 0.21505 0.0
C3208 C 0.10444 0.22626 0.21303 0.0
C3209 C 0.09717 0.21057 0.2133 0.0
C3210 C 0.08904 0.20403 0.21508 0.0
C3211 C 0.08014 0.20568 0.21089 0.0
C3212 C 0.0725 0.19951 0.21264 0.0
C3213 C 0.07369 0.19163 0.21851 0.0
C3214 C 0.08253 0.18989 0.22264 0.0
C3215 C 0.09019 0.19604 0.22092 0.0
H3216 H 0.06777 0.18685 0.21985 0.0
H3217 H 0.14272 0.24619 0.2046 0.0
H3218 H 0.80265 0.13591 0.20389 0.0
H3219 H 0.79389 0.12211 0.20997 0.0
H3220 H 0.82023 0.10795 0.21537 0.0
H3221 H 0.82902 0.12158 0.20903 0.0
H3222 H 0.80712 0.09599 0.20785 0.0
H3223 H 0.80836 0.11865 0.23318 0.0
H3224 H 0.80593 0.13417 0.24048 0.0
H3225 H 0.77602 0.13171 0.23503 0.0
H3226 H 0.77829 0.11622 0.22757 0.0
H3227 H 0.79145 0.06073 0.24051 0.0
H3228 H 0.79934 0.07385 0.23227 0.0
H3229 H 0.7726 0.08792 0.22926 0.0
H3230 H 0.76475 0.07511 0.23795 0.0
H3231 H 0.78544 0.09998 0.23497 0.0
H3232 H 0.78389 0.07712 0.21023 0.0
H3233 H 0.78614 0.06162 0.2028 0.0
H3234 H 0.81625 0.06443 0.20683 0.0
H3235 H 0.81416 0.07989 0.21441 0.0
C3236 C 0.80658 0.12981 0.20625 0.0
C3237 C 0.81655 0.12989 0.20603 0.0
C3238 C 0.80156 0.12196 0.2098 0.0
C3239 C 0.80641 0.11404 0.21325 0.0
C3240 C 0.81634 0.11399 0.21279 0.0
C3241 C 0.82136 0.12183 0.20924 0.0
C3242 C 0.80117 0.1059 0.21755 0.0
C3243 C 0.80245 0.09684 0.21384 0.0
C3244 C 0.79489 0.10703 0.22521 0.0
C3245 C 0.79351 0.11632 0.22973 0.0
C3246 C 0.80128 0.12145 0.23347 0.0
C3247 C 0.79992 0.13024 0.23765 0.0
C3248 C 0.79083 0.13394 0.2382 0.0
C3249 C 0.78306 0.12884 0.23459 0.0
C3250 C 0.78437 0.12006 0.23039 0.0
C3251 C 0.78724 0.06662 0.23813 0.0
C3252 C 0.77744 0.06682 0.23991 0.0
C3253 C 0.79175 0.07409 0.2333 0.0
C3254 C 0.78656 0.08186 0.23003 0.0
C3255 C 0.77676 0.08201 0.23168 0.0
C3256 C 0.77226 0.07459 0.23657 0.0
C3257 C 0.79139 0.09003 0.22529 0.0
C3258 C 0.79005 0.09911 0.22893 0.0
C3259 C 0.79758 0.08891 0.21754 0.0
C3260 C 0.79886 0.07962 0.21296 0.0
C3261 C 0.79098 0.0744 0.2096 0.0
C3262 C 0.79223 0.06563 0.20535 0.0
C3263 C 0.80133 0.06204 0.20437 0.0
C3264 C 0.8092 0.06722 0.20761 0.0
C3265 C 0.80799 0.07599 0.21187 0.0
H3266 H 0.80229 0.05524 0.20107 0.0
H3267 H 0.7898 0.14074 0.24143 0.0
H3268 H 0.87727 0.80425 0.20313 0.0
H3269 H 0.89143 0.79829 0.21106 0.0
H3270 H 0.90784 0.82179 0.19991 0.0
H3271 H 0.89369 0.8277 0.19183 0.0
H3272 H 0.91759 0.80631 0.19842 0.0
H3273 H 0.90069 0.82071 0.22347 0.0
H3274 H 0.88699 0.82396 0.23361 0.0
H3275 H 0.88596 0.79493 0.24262 0.0
H3276 H 0.89957 0.79147 0.23243 0.0
H3277 H 0.95676 0.79981 0.23076 0.0
H3278 H 0.94321 0.80618 0.22195 0.0
H3279 H 0.92669 0.7812 0.22886 0.0
H3280 H 0.94016 0.77482 0.23766 0.0
H3281 H 0.91735 0.798 0.2326 0.0
H3282 H 0.93451 0.78393 0.20711 0.0
H3283 H 0.9485 0.78126 0.19718 0.0
H3284 H 0.94942 0.81064 0.18941 0.0
H3285 H 0.93551 0.81351 0.19941 0.0
C3286 C 0.88387 0.8082 0.20244 0.0
C3287 C 0.88434 0.81648 0.19689 0.0
C3288 C 0.89198 0.80479 0.20699 0.0
C3289 C 0.9007 0.80966 0.20622 0.0
C3290 C 0.9012 0.8179 0.20062 0.0
C3291 C 0.89311 0.82127 0.196 0.0
C3292 C 0.90931 0.80609 0.21119 0.0
C3293 C 0.91757 0.80463 0.20593 0.0
C3294 C 0.90928 0.80376 0.22096 0.0
C3295 C 0.9011 0.80581 0.22711 0.0
C3296 C 0.8975 0.815 0.22756 0.0
C3297 C 0.88975 0.81688 0.23332 0.0
C3298 C 0.88559 0.80965 0.23874 0.0
C3299 C 0.88918 0.80052 0.23841 0.0
C3300 C 0.89691 0.7986 0.23265 0.0
C3301 C 0.95026 0.79565 0.23033 0.0
C3302 C 0.94955 0.78679 0.23487 0.0
C3303 C 0.94254 0.79928 0.22527 0.0
C3304 C 0.93395 0.79415 0.22473 0.0
C3305 C 0.93325 0.78527 0.22918 0.0
C3306 C 0.94099 0.7816 0.23414 0.0
C3307 C 0.92555 0.79815 0.21982 0.0
C3308 C 0.91735 0.79971 0.2251 0.0
C3309 C 0.92568 0.80067 0.21011 0.0
C3310 C 0.93403 0.79895 0.20409 0.0
C3311 C 0.93775 0.78984 0.20335 0.0
C3312 C 0.94565 0.78828 0.1977 0.0
C3313 C 0.94986 0.79578 0.19269 0.0
C3314 C 0.94616 0.80484 0.19331 0.0
C3315 C 0.93826 0.80644 0.19896 0.0
H3316 H 0.95598 0.79456 0.18831 0.0
H3317 H 0.8796 0.81112 0.2432 0.0
H3318 H 0.19544 0.88714 0.2066 0.0
H3319 H 0.20412 0.9011 0.21221 0.0
H3320 H 0.23058 0.88699 0.20792 0.0
H3321 H 0.22192 0.87286 0.20258 0.0
H3322 H 0.23051 0.89573 0.2247 0.0
H3323 H 0.22307 0.90417 0.19261 0.0
H3324 H 0.2127 0.90658 0.17871 0.0
H3325 H 0.19692 0.92711 0.19395 0.0
H3326 H 0.20713 0.92473 0.20799 0.0
H3327 H 0.26127 0.93526 0.22884 0.0
H3328 H 0.25227 0.9218 0.22263 0.0
H3329 H 0.22616 0.93636 0.22746 0.0
H3330 H 0.23517 0.95007 0.2334 0.0
H3331 H 0.22586 0.9275 0.2105 0.0
H3332 H 0.23344 0.91909 0.24258 0.0
H3333 H 0.24393 0.9167 0.2564 0.0
H3334 H 0.25952 0.89607 0.24109 0.0
H3335 H 0.24921 0.89844 0.22712 0.0
C3336 C 0.20311 0.88697 0.2069 0.0
C3337 C 0.20798 0.87886 0.20414 0.0
C3338 C 0.20807 0.89501 0.21002 0.0
C3339 C 0.21802 0.89514 0.2104 0.0
C3340 C 0.22291 0.88706 0.20767 0.0
C3341 C 0.21795 0.87902 0.20454 0.0
C3342 C 0.22331 0.90365 0.21382 0.0
C3343 C 0.22959 0.90265 0.2215 0.0
C3344 C 0.22194 0.91274 0.20983 0.0
C3345 C 0.2158 0.9142 0.20138 0.0
C3346 C 0.21734 0.90914 0.19302 0.0
C3347 C 0.2115 0.91051 0.18511 0.0
C3348 C 0.20414 0.91698 0.18545 0.0
C3349 C 0.20262 0.9221 0.1937 0.0
C3350 C 0.20843 0.92075 0.20163 0.0
C3351 C 0.25362 0.93569 0.22846 0.0
C3352 C 0.24895 0.94379 0.23161 0.0
C3353 C 0.24847 0.92793 0.225 0.0
C3354 C 0.23853 0.92801 0.2247 0.0
C3355 C 0.23383 0.93612 0.22767 0.0
C3356 C 0.23899 0.94392 0.23113 0.0
C3357 C 0.23308 0.91957 0.22135 0.0
C3358 C 0.22677 0.92058 0.2137 0.0
C3359 C 0.23443 0.91049 0.22537 0.0
C3360 C 0.2406 0.909 0.23378 0.0
C3361 C 0.23915 0.91409 0.24214 0.0
C3362 C 0.24506 0.91274 0.25 0.0
C3363 C 0.2524 0.90625 0.24962 0.0
C3364 C 0.25383 0.9011 0.24138 0.0
C3365 C 0.24796 0.90244 0.23349 0.0
H3366 H 0.25696 0.90521 0.25571 0.0
H3367 H 0.19963 0.91803 0.17932 0.0
H3368 H 0.14441 0.78576 0.82168 0.0
H3369 H 0.12999 0.78043 0.81355 0.0
H3370 H 0.12123 0.80932 0.81029 0.0
H3371 H 0.13551 0.8147 0.81873 0.0
H3372 H 0.10669 0.79831 0.81587 0.0
H3373 H 0.13017 0.79712 0.79166 0.0
H3374 H 0.14529 0.79271 0.78441 0.0
H3375 H 0.13766 0.76334 0.78718 0.0
H3376 H 0.12254 0.76757 0.79457 0.0
H3377 H 0.07112 0.79 0.78051 0.0
H3378 H 0.08506 0.79536 0.7895 0.0
H3379 H 0.09312 0.76643 0.79409 0.0
H3380 H 0.07926 0.76102 0.78498 0.0
H3381 H 0.10794 0.77747 0.78786 0.0
H3382 H 0.08427 0.77888 0.81199 0.0
H3383 H 0.06909 0.78352 0.81898 0.0
H3384 H 0.07705 0.81279 0.816 0.0
H3385 H 0.09223 0.80833 0.80887 0.0
C3386 C 0.13939 0.79099 0.8193 0.0
C3387 C 0.14113 0.80067 0.82087 0.0
C3388 C 0.13118 0.78793 0.81456 0.0
C3389 C 0.12456 0.79447 0.81121 0.0
C3390 C 0.12625 0.80414 0.81279 0.0
C3391 C 0.13446 0.80721 0.81754 0.0
C3392 C 0.11582 0.79121 0.80617 0.0
C3393 C 0.10697 0.79386 0.80967 0.0
C3394 C 0.11616 0.78524 0.79819 0.0
C3395 C 0.12526 0.78266 0.79376 0.0
C3396 C 0.13175 0.78972 0.7908 0.0
C3397 C 0.14032 0.78725 0.78665 0.0
C3398 C 0.14245 0.77775 0.78536 0.0
C3399 C 0.13601 0.7707 0.78819 0.0
C3400 C 0.12743 0.77313 0.79236 0.0
C3401 C 0.07584 0.78478 0.78347 0.0
C3402 C 0.07408 0.77508 0.78204 0.0
C3403 C 0.08377 0.78785 0.78866 0.0
C3404 C 0.09012 0.78129 0.79251 0.0
C3405 C 0.08831 0.77161 0.7912 0.0
C3406 C 0.08035 0.76853 0.78606 0.0
C3407 C 0.09882 0.78455 0.79758 0.0
C3408 C 0.10767 0.78191 0.79408 0.0
C3409 C 0.09847 0.79057 0.80552 0.0
C3410 C 0.08935 0.79327 0.80981 0.0
C3411 C 0.08275 0.78631 0.81275 0.0
C3412 C 0.07415 0.7889 0.81675 0.0
C3413 C 0.0721 0.79844 0.81791 0.0
C3414 C 0.07865 0.8054 0.81509 0.0
C3415 C 0.08725 0.80285 0.81107 0.0
H3416 H 0.06544 0.80044 0.82101 0.0
H3417 H 0.14908 0.77586 0.78214 0.0
H3418 H 0.20379 0.11938 0.83781 0.0
H3419 H 0.21002 0.10517 0.83051 0.0
H3420 H 0.21778 0.12141 0.80572 0.0
H3421 H 0.21141 0.13562 0.81291 0.0
H3422 H 0.20953 0.10431 0.80112 0.0
H3423 H 0.23435 0.1158 0.82183 0.0
H3424 H 0.24116 0.12106 0.83706 0.0
H3425 H 0.23433 0.09408 0.84958 0.0
H3426 H 0.22735 0.0887 0.83444 0.0
H3427 H 0.24247 0.07403 0.77985 0.0
H3428 H 0.23414 0.087 0.78719 0.0
H3429 H 0.22963 0.06995 0.81225 0.0
H3430 H 0.23809 0.05694 0.80495 0.0
H3431 H 0.23545 0.08693 0.81709 0.0
H3432 H 0.21131 0.07503 0.79631 0.0
H3433 H 0.20434 0.06969 0.78117 0.0
H3434 H 0.20954 0.09713 0.76893 0.0
H3435 H 0.21665 0.1026 0.78395 0.0
C3436 C 0.20673 0.11991 0.83076 0.0
C3437 C 0.20713 0.12865 0.82596 0.0
C3438 C 0.21035 0.11179 0.82662 0.0
C3439 C 0.21446 0.11224 0.8176 0.0
C3440 C 0.21467 0.1209 0.81269 0.0
C3441 C 0.2111 0.12903 0.81684 0.0
C3442 C 0.2187 0.10373 0.81334 0.0
C3443 C 0.21526 0.10056 0.80456 0.0
C3444 C 0.22601 0.09868 0.81795 0.0
C3445 C 0.23023 0.10189 0.82704 0.0
C3446 C 0.23423 0.11102 0.82785 0.0
C3447 C 0.23813 0.11401 0.83646 0.0
C3448 C 0.23816 0.10792 0.84429 0.0
C3449 C 0.23429 0.0988 0.84351 0.0
C3450 C 0.23037 0.09577 0.83492 0.0
C3451 C 0.23956 0.07297 0.78686 0.0
C3452 C 0.24089 0.06441 0.79178 0.0
C3453 C 0.23479 0.08041 0.79106 0.0
C3454 C 0.23112 0.07944 0.80024 0.0
C3455 C 0.23238 0.07088 0.80516 0.0
C3456 C 0.23722 0.06344 0.80098 0.0
C3457 C 0.22631 0.0875 0.80482 0.0
C3458 C 0.22966 0.09061 0.81366 0.0
C3459 C 0.21889 0.09246 0.80028 0.0
C3460 C 0.21459 0.0892 0.79124 0.0
C3461 C 0.21103 0.07991 0.79037 0.0
C3462 C 0.20704 0.07686 0.78181 0.0
C3463 C 0.20652 0.08306 0.77409 0.0
C3464 C 0.20996 0.09233 0.77491 0.0
C3465 C 0.21396 0.09541 0.78345 0.0
H3466 H 0.20343 0.08069 0.76747 0.0
H3467 H 0.24119 0.11025 0.85095 0.0
H3468 H 0.88554 0.20669 0.82996 0.0
H3469 H 0.89932 0.2154 0.8238 0.0
H3470 H 0.90403 0.19325 0.80369 0.0
H3471 H 0.89015 0.1846 0.80963 0.0
H3472 H 0.92059 0.19919 0.81252 0.0
H3473 H 0.89403 0.21321 0.79647 0.0
H3474 H 0.87854 0.22097 0.79546 0.0
H3475 H 0.88954 0.24429 0.81164 0.0
H3476 H 0.90507 0.2366 0.81287 0.0
H3477 H 0.95246 0.22338 0.78162 0.0
H3478 H 0.93934 0.21447 0.78875 0.0
H3479 H 0.93296 0.23831 0.80627 0.0
H3480 H 0.94571 0.24745 0.79881 0.0
H3481 H 0.9173 0.23149 0.79917 0.0
H3482 H 0.94388 0.2179 0.81512 0.0
H3483 H 0.95939 0.21023 0.81649 0.0
H3484 H 0.94856 0.18631 0.80109 0.0
H3485 H 0.933 0.1939 0.79952 0.0
C3486 C 0.88944 0.2037 0.82417 0.0
C3487 C 0.88668 0.19494 0.82029 0.0
C3488 C 0.89735 0.20867 0.82068 0.0
C3489 C 0.90267 0.205 0.81324 0.0
C3490 C 0.90005 0.1962 0.80946 0.0
C3491 C 0.89212 0.19125 0.8129 0.0
C3492 C 0.91091 0.21038 0.80932 0.0
C3493 C 0.91987 0.20622 0.8095 0.0
C3494 C 0.91 0.21964 0.8056 0.0
C3495 C 0.90068 0.22428 0.80484 0.0
C3496 C 0.89312 0.21996 0.79988 0.0
C3497 C 0.88434 0.22435 0.79926 0.0
C3498 C 0.88305 0.23311 0.80351 0.0
C3499 C 0.89055 0.2375 0.80837 0.0
C3500 C 0.89934 0.23313 0.80902 0.0
C3501 C 0.94825 0.22676 0.78696 0.0
C3502 C 0.95019 0.23616 0.78962 0.0
C3503 C 0.9408 0.2216 0.79112 0.0
C3504 C 0.9352 0.22566 0.79814 0.0
C3505 C 0.93719 0.235 0.80089 0.0
C3506 C 0.94458 0.24019 0.79669 0.0
C3507 C 0.92705 0.22033 0.80237 0.0
C3508 C 0.91807 0.22449 0.80223 0.0
C3509 C 0.92796 0.2111 0.80618 0.0
C3510 C 0.9373 0.20651 0.80713 0.0
C3511 C 0.94482 0.21104 0.81197 0.0
C3512 C 0.95362 0.2067 0.81279 0.0
C3513 C 0.95497 0.1978 0.80886 0.0
C3514 C 0.94751 0.19321 0.80412 0.0
C3515 C 0.9387 0.19752 0.80327 0.0
H3516 H 0.96178 0.19446 0.80951 0.0
H3517 H 0.87624 0.2365 0.80302 0.0
H3518 H 0.80826 0.87655 0.81506 0.0
H3519 H 0.79996 0.89035 0.80889 0.0
H3520 H 0.82661 0.90548 0.80628 0.0
H3521 H 0.83493 0.89182 0.81273 0.0
H3522 H 0.81318 0.91676 0.81318 0.0
H3523 H 0.81586 0.89541 0.78707 0.0
H3524 H 0.81393 0.88022 0.77879 0.0
H3525 H 0.78374 0.88144 0.78201 0.0
H3526 H 0.7855 0.89658 0.79042 0.0
H3527 H 0.79977 0.95255 0.78018 0.0
H3528 H 0.80705 0.93935 0.78864 0.0
H3529 H 0.77979 0.92522 0.79045 0.0
H3530 H 0.77252 0.93825 0.78176 0.0
H3531 H 0.79298 0.9134 0.78449 0.0
H3532 H 0.79026 0.93519 0.80997 0.0
H3533 H 0.79224 0.95043 0.81813 0.0
H3534 H 0.82249 0.94848 0.81603 0.0
H3535 H 0.82069 0.93328 0.80774 0.0
C3536 C 0.81235 0.88285 0.81329 0.0
C3537 C 0.82228 0.88304 0.81434 0.0
C3538 C 0.8076 0.89071 0.80968 0.0
C3539 C 0.81267 0.89892 0.807 0.0
C3540 C 0.82255 0.89922 0.80827 0.0
C3541 C 0.8273 0.89137 0.81187 0.0
C3542 C 0.80773 0.90712 0.80268 0.0
C3543 C 0.80884 0.91605 0.80685 0.0
C3544 C 0.80189 0.90617 0.79453 0.0
C3545 C 0.80082 0.89708 0.78946 0.0
C3546 C 0.80881 0.8924 0.78608 0.0
C3547 C 0.80775 0.88381 0.78135 0.0
C3548 C 0.79872 0.87986 0.7799 0.0
C3549 C 0.79073 0.8845 0.78315 0.0
C3550 C 0.79175 0.89309 0.78789 0.0
C3551 C 0.79532 0.94665 0.7824 0.0
C3552 C 0.78555 0.94648 0.78029 0.0
C3553 C 0.79948 0.93914 0.78731 0.0
C3554 C 0.79396 0.93131 0.79025 0.0
C3555 C 0.78419 0.93119 0.78828 0.0
C3556 C 0.78003 0.9387 0.78339 0.0
C3557 C 0.79844 0.92306 0.79497 0.0
C3558 C 0.79726 0.91411 0.79086 0.0
C3559 C 0.80423 0.92401 0.80315 0.0
C3560 C 0.80534 0.93314 0.80815 0.0
C3561 C 0.79734 0.93805 0.81118 0.0
C3562 C 0.79843 0.94667 0.81584 0.0
C3563 C 0.80749 0.95043 0.81758 0.0
C3564 C 0.81548 0.94556 0.81467 0.0
C3565 C 0.81443 0.93694 0.81 0.0
H3566 H 0.80832 0.95711 0.82119 0.0
H3567 H 0.79791 0.8732 0.77624 0.0
H3568 H 0.21268 0.1378 0.21438 0.0
H3569 H 0.22129 0.12412 0.22031 0.0
H3570 H 0.21028 0.10745 0.19715 0.0
H3571 H 0.20151 0.1211 0.19128 0.0
H3572 H 0.20939 0.09743 0.21268 0.0
H3573 H 0.23368 0.11595 0.19782 0.0
H3574 H 0.24334 0.13021 0.1943 0.0
H3575 H 0.25272 0.13127 0.22326 0.0
H3576 H 0.24301 0.11709 0.22698 0.0
H3577 H 0.24319 0.06023 0.21913 0.0
H3578 H 0.23408 0.07343 0.21259 0.0
H3579 H 0.24005 0.08959 0.23773 0.0
H3580 H 0.2491 0.07644 0.24431 0.0
H3581 H 0.24367 0.09952 0.22062 0.0
H3582 H 0.21883 0.08072 0.23511 0.0
H3583 H 0.20944 0.06614 0.23796 0.0
H3584 H 0.20156 0.06525 0.20856 0.0
H3585 H 0.21102 0.07975 0.20551 0.0
C3586 C 0.21216 0.13125 0.2105 0.0
C3587 C 0.20644 0.13055 0.20233 0.0
C3588 C 0.2171 0.12342 0.21389 0.0
C3589 C 0.21657 0.11475 0.20911 0.0
C3590 C 0.21082 0.11404 0.20097 0.0
C3591 C 0.2058 0.12184 0.19762 0.0
C3592 C 0.22188 0.10642 0.21269 0.0
C3593 C 0.21692 0.09787 0.21427 0.0
C3594 C 0.23169 0.10697 0.21491 0.0
C3595 C 0.23754 0.11551 0.2127 0.0
C3596 C 0.23774 0.11927 0.20345 0.0
C3597 C 0.24324 0.12733 0.20142 0.0
C3598 C 0.24862 0.13165 0.20856 0.0
C3599 C 0.24854 0.12792 0.21774 0.0
C3600 C 0.24305 0.11986 0.21981 0.0
C3601 C 0.2425 0.06658 0.22327 0.0
C3602 C 0.24681 0.06728 0.23225 0.0
C3603 C 0.23728 0.0741 0.21955 0.0
C3604 C 0.23638 0.08248 0.22469 0.0
C3605 C 0.24065 0.08318 0.23366 0.0
C3606 C 0.24575 0.07564 0.23744 0.0
C3607 C 0.23116 0.09062 0.22065 0.0
C3608 C 0.23615 0.09911 0.21898 0.0
C3609 C 0.22142 0.08997 0.21824 0.0
C3610 C 0.21572 0.08126 0.22006 0.0
C3611 C 0.21517 0.07737 0.22924 0.0
C3612 C 0.20982 0.06913 0.23089 0.0
C3613 C 0.20493 0.06476 0.22344 0.0
C3614 C 0.20536 0.06863 0.21432 0.0
C3615 C 0.21071 0.07686 0.21263 0.0
H3616 H 0.20078 0.05838 0.22474 0.0
H3617 H 0.25288 0.13789 0.20696 0.0
H3618 H 0.21848 0.86933 0.81589 0.0
H3619 H 0.22606 0.88401 0.81033 0.0
H3620 H 0.19872 0.89708 0.80828 0.0
H3621 H 0.19111 0.88246 0.81384 0.0
H3622 H 0.2087 0.90052 0.79274 0.0
H3623 H 0.21455 0.90261 0.82615 0.0
H3624 H 0.22019 0.89715 0.84178 0.0
H3625 H 0.24855 0.89551 0.83115 0.0
H3626 H 0.24305 0.90083 0.81541 0.0
H3627 H 0.22507 0.94757 0.7853 0.0
H3628 H 0.21776 0.93363 0.79276 0.0
H3629 H 0.24476 0.91983 0.79314 0.0
H3630 H 0.2521 0.93363 0.78551 0.0
H3631 H 0.23499 0.91694 0.80976 0.0
H3632 H 0.22911 0.91442 0.77636 0.0
H3633 H 0.22355 0.91986 0.76069 0.0
H3634 H 0.19527 0.92223 0.77136 0.0
H3635 H 0.2007 0.91694 0.78715 0.0
C3636 C 0.21409 0.87537 0.81438 0.0
C3637 C 0.20418 0.8747 0.81529 0.0
C3638 C 0.21844 0.88376 0.81119 0.0
C3639 C 0.21297 0.89169 0.80895 0.0
C3640 C 0.20309 0.89106 0.80993 0.0
C3641 C 0.19874 0.88268 0.81309 0.0
C3642 C 0.21749 0.90054 0.80527 0.0
C3643 C 0.21435 0.90418 0.79655 0.0
C3644 C 0.22503 0.90521 0.81011 0.0
C3645 C 0.22836 0.90203 0.81957 0.0
C3646 C 0.22197 0.90101 0.82712 0.0
C3647 C 0.22515 0.89795 0.83601 0.0
C3648 C 0.23472 0.89596 0.83745 0.0
C3649 C 0.24114 0.89704 0.83002 0.0
C3650 C 0.23799 0.90008 0.82111 0.0
C3651 C 0.22946 0.94157 0.78695 0.0
C3652 C 0.23918 0.94173 0.78474 0.0
C3653 C 0.22527 0.93362 0.79125 0.0
C3654 C 0.2307 0.92565 0.79342 0.0
C3655 C 0.24045 0.92591 0.79155 0.0
C3656 C 0.24464 0.93384 0.78722 0.0
C3657 C 0.22614 0.91691 0.79729 0.0
C3658 C 0.22931 0.91329 0.80601 0.0
C3659 C 0.21862 0.91224 0.79246 0.0
C3660 C 0.21533 0.91538 0.78296 0.0
C3661 C 0.22172 0.91618 0.77539 0.0
C3662 C 0.21859 0.91922 0.76648 0.0
C3663 C 0.20907 0.92141 0.76504 0.0
C3664 C 0.20265 0.92054 0.7725 0.0
C3665 C 0.20575 0.91752 0.78142 0.0
H3666 H 0.20666 0.92376 0.75813 0.0
H3667 H 0.23716 0.8936 0.84434 0.0
H3668 H 0.14079 0.19541 0.80246 0.0
H3669 H 0.12693 0.2035 0.79622 0.0
H3670 H 0.11413 0.20248 0.82386 0.0
H3671 H 0.12793 0.19411 0.83012 0.0
H3672 H 0.10146 0.19753 0.81034 0.0
H3673 H 0.12324 0.22309 0.81522 0.0
H3674 H 0.13842 0.2319 0.8142 0.0
H3675 H 0.13613 0.2325 0.78388 0.0
H3676 H 0.12099 0.22356 0.78471 0.0
H3677 H 0.06488 0.22956 0.79573 0.0
H3678 H 0.07824 0.22238 0.80418 0.0
H3679 H 0.09335 0.22016 0.77788 0.0
H3680 H 0.08011 0.22739 0.76944 0.0
H3681 H 0.10451 0.22755 0.79216 0.0
H3682 H 0.08315 0.20099 0.78753 0.0
H3683 H 0.06791 0.1923 0.78878 0.0
H3684 H 0.06937 0.19398 0.81909 0.0
H3685 H 0.08457 0.2028 0.81802 0.0
C3686 C 0.13502 0.19686 0.80722 0.0
C3687 C 0.13548 0.19409 0.8168 0.0
C3688 C 0.12712 0.20158 0.80366 0.0
C3689 C 0.11951 0.2037 0.80958 0.0
C3690 C 0.11993 0.20095 0.81915 0.0
C3691 C 0.12786 0.19623 0.82274 0.0
C3692 C 0.11106 0.20859 0.80568 0.0
C3693 C 0.10211 0.20419 0.80652 0.0
C3694 C 0.1119 0.21721 0.80057 0.0
C3695 C 0.12101 0.22258 0.80003 0.0
C3696 C 0.12601 0.22503 0.80833 0.0
C3697 C 0.1346 0.23006 0.80778 0.0
C3698 C 0.13825 0.23274 0.79898 0.0
C3699 C 0.1333 0.23041 0.79069 0.0
C3700 C 0.1247 0.22537 0.7912 0.0
C3701 C 0.07105 0.22753 0.79176 0.0
C3702 C 0.07141 0.22898 0.78191 0.0
C3703 C 0.07866 0.22339 0.79659 0.0
C3704 C 0.08678 0.22069 0.79166 0.0
C3705 C 0.08715 0.22218 0.78183 0.0
C3706 C 0.07954 0.22623 0.77701 0.0
C3707 C 0.09497 0.21641 0.79668 0.0
C3708 C 0.10387 0.22094 0.79607 0.0
C3709 C 0.09407 0.20795 0.80203 0.0
C3710 C 0.08494 0.20265 0.80269 0.0
C3711 C 0.08018 0.19958 0.79446 0.0
C3712 C 0.07156 0.19462 0.79514 0.0
C3713 C 0.06766 0.19261 0.80401 0.0
C3714 C 0.07239 0.19555 0.81223 0.0
C3715 C 0.08101 0.20053 0.81159 0.0
H3716 H 0.06099 0.18877 0.80452 0.0
H3717 H 0.1449 0.23664 0.79857 0.0
H3718 H 0.79857 0.13148 0.82811 0.0
H3719 H 0.79293 0.11761 0.81945 0.0
H3720 H 0.82156 0.11181 0.81106 0.0
H3721 H 0.8273 0.12565 0.81982 0.0
H3722 H 0.80929 0.11006 0.79633 0.0
H3723 H 0.81093 0.09877 0.82836 0.0
H3724 H 0.80778 0.09898 0.8455 0.0
H3725 H 0.77785 0.09693 0.84002 0.0
H3726 H 0.78081 0.09685 0.82283 0.0
H3727 H 0.79939 0.06433 0.77855 0.0
H3728 H 0.80585 0.07709 0.78835 0.0
H3729 H 0.77764 0.08381 0.79737 0.0
H3730 H 0.77111 0.0711 0.78754 0.0
H3731 H 0.79014 0.08478 0.81199 0.0
H3732 H 0.78837 0.09666 0.78011 0.0
H3733 H 0.79133 0.0966 0.76293 0.0
H3734 H 0.82136 0.09771 0.76813 0.0
H3735 H 0.81857 0.09764 0.78535 0.0
C3736 C 0.8037 0.12721 0.82452 0.0
C3737 C 0.81341 0.12966 0.82473 0.0
C3738 C 0.80045 0.11928 0.81955 0.0
C3739 C 0.80683 0.11359 0.8147 0.0
C3740 C 0.81651 0.11609 0.81476 0.0
C3741 C 0.81977 0.12403 0.81974 0.0
C3742 C 0.80338 0.10509 0.80951 0.0
C3743 C 0.80524 0.10446 0.79979 0.0
C3744 C 0.79789 0.09789 0.81397 0.0
C3745 C 0.79609 0.09789 0.8243 0.0
C3746 C 0.80367 0.09844 0.8308 0.0
C3747 C 0.80192 0.09853 0.84053 0.0
C3748 C 0.79262 0.098 0.84385 0.0
C3749 C 0.78505 0.09735 0.83744 0.0
C3750 C 0.78676 0.09728 0.82771 0.0
C3751 C 0.79455 0.06851 0.78263 0.0
C3752 C 0.78472 0.06673 0.78219 0.0
C3753 C 0.79826 0.0758 0.78824 0.0
C3754 C 0.79222 0.08151 0.79348 0.0
C3755 C 0.78244 0.0795 0.79338 0.0
C3756 C 0.77872 0.0722 0.78778 0.0
C3757 C 0.79605 0.08976 0.79882 0.0
C3758 C 0.79424 0.09036 0.80855 0.0
C3759 C 0.80157 0.09695 0.79437 0.0
C3760 C 0.80326 0.09704 0.78402 0.0
C3761 C 0.79561 0.09681 0.77759 0.0
C3762 C 0.79725 0.09681 0.76784 0.0
C3763 C 0.80653 0.09712 0.76444 0.0
C3764 C 0.81417 0.09745 0.77077 0.0
C3765 C 0.81257 0.09744 0.78053 0.0
H3766 H 0.80779 0.09712 0.75689 0.0
H3767 H 0.79128 0.09806 0.85138 0.0
H3768 H 0.89538 0.81073 0.8356 0.0
H3769 H 0.90932 0.80478 0.82756 0.0
H3770 H 0.89441 0.80606 0.80084 0.0
H3771 H 0.88033 0.81176 0.80888 0.0
H3772 H 0.90333 0.78964 0.8028 0.0
H3773 H 0.91186 0.82223 0.80634 0.0
H3774 H 0.91444 0.83719 0.81486 0.0
H3775 H 0.93545 0.82413 0.83251 0.0
H3776 H 0.9329 0.80904 0.82418 0.0
H3777 H 0.94329 0.78082 0.77447 0.0
H3778 H 0.93002 0.78898 0.78158 0.0
H3779 H 0.94357 0.78707 0.80897 0.0
H3780 H 0.95701 0.7791 0.80185 0.0
H3781 H 0.93536 0.80429 0.80619 0.0
H3782 H 0.92629 0.77157 0.803 0.0
H3783 H 0.92371 0.75663 0.79444 0.0
H3784 H 0.90362 0.77009 0.77602 0.0
H3785 H 0.90619 0.78516 0.78439 0.0
C3786 C 0.89505 0.80972 0.82801 0.0
C3787 C 0.88671 0.81172 0.82289 0.0
C3788 C 0.90306 0.8064 0.82341 0.0
C3789 C 0.90297 0.80506 0.81357 0.0
C3790 C 0.89468 0.80707 0.80843 0.0
C3791 C 0.88665 0.81041 0.81303 0.0
C3792 C 0.9114 0.80124 0.80871 0.0
C3793 C 0.9103 0.79294 0.80341 0.0
C3794 C 0.92056 0.80541 0.80968 0.0
C3795 C 0.92212 0.81447 0.8147 0.0
C3796 C 0.91697 0.82252 0.81209 0.0
C3797 C 0.91844 0.83103 0.81687 0.0
C3798 C 0.92509 0.8316 0.82423 0.0
C3799 C 0.9303 0.82367 0.82681 0.0
C3800 C 0.92885 0.81514 0.82206 0.0
C3801 C 0.94355 0.78229 0.78197 0.0
C3802 C 0.95122 0.77927 0.78759 0.0
C3803 C 0.93591 0.78688 0.78605 0.0
C3804 C 0.93573 0.78852 0.79584 0.0
C3805 C 0.94353 0.78585 0.80141 0.0
C3806 C 0.95118 0.78123 0.79734 0.0
C3807 C 0.92726 0.7927 0.8003 0.0
C3808 C 0.92837 0.80104 0.80554 0.0
C3809 C 0.9181 0.78858 0.79927 0.0
C3810 C 0.91651 0.77952 0.79426 0.0
C3811 C 0.92138 0.77137 0.79707 0.0
C3812 C 0.91991 0.76287 0.79226 0.0
C3813 C 0.91352 0.76242 0.78467 0.0
C3814 C 0.90857 0.77046 0.78189 0.0
C3815 C 0.91003 0.77898 0.78667 0.0
H3816 H 0.91239 0.75584 0.78095 0.0
H3817 H 0.92621 0.8382 0.82792 0.0
H3818 H 0.82812 0.89277 0.21058 0.0
H3819 H 0.81915 0.90606 0.21648 0.0
H3820 H 0.79358 0.89435 0.20406 0.0
H3821 H 0.8025 0.88093 0.19821 0.0
H3822 H 0.79505 0.91336 0.201 0.0
H3823 H 0.7976 0.89219 0.22754 0.0
H3824 H 0.80592 0.88212 0.23912 0.0
H3825 H 0.82186 0.90621 0.24907 0.0
H3826 H 0.81372 0.9164 0.23745 0.0
H3827 H 0.76184 0.94035 0.22649 0.0
H3828 H 0.77116 0.92787 0.21947 0.0
H3829 H 0.79639 0.93908 0.23298 0.0
H3830 H 0.7871 0.95162 0.24004 0.0
H3831 H 0.79523 0.92044 0.23534 0.0
H3832 H 0.79246 0.94171 0.20895 0.0
H3833 H 0.78411 0.95175 0.19738 0.0
H3834 H 0.76856 0.92755 0.18712 0.0
H3835 H 0.77673 0.91737 0.19873 0.0
C3836 C 0.82057 0.89296 0.20916 0.0
C3837 C 0.81603 0.88571 0.20398 0.0
C3838 C 0.81546 0.90059 0.21252 0.0
C3839 C 0.80567 0.90115 0.21082 0.0
C3840 C 0.80113 0.89407 0.20546 0.0
C3841 C 0.80625 0.88641 0.2021 0.0
C3842 C 0.80016 0.90908 0.21474 0.0
C3843 C 0.79499 0.91484 0.20852 0.0
C3844 C 0.80024 0.91115 0.22454 0.0
C3845 C 0.80512 0.90504 0.23156 0.0
C3846 C 0.80294 0.89533 0.23214 0.0
C3847 C 0.80761 0.8896 0.23873 0.0
C3848 C 0.81443 0.89352 0.24481 0.0
C3849 C 0.81658 0.90318 0.24434 0.0
C3850 C 0.81194 0.90894 0.23777 0.0
C3851 C 0.7694 0.94028 0.22784 0.0
C3852 C 0.77372 0.94704 0.2338 0.0
C3853 C 0.77473 0.93311 0.22383 0.0
C3854 C 0.78451 0.93257 0.22561 0.0
C3855 C 0.78886 0.93934 0.23151 0.0
C3856 C 0.78353 0.9465 0.23555 0.0
C3857 C 0.79013 0.92477 0.22159 0.0
C3858 C 0.79531 0.919 0.22781 0.0
C3859 C 0.79005 0.9227 0.21179 0.0
C3860 C 0.78515 0.92879 0.20478 0.0
C3861 C 0.78721 0.93854 0.20428 0.0
C3862 C 0.78251 0.94425 0.1977 0.0
C3863 C 0.77579 0.94029 0.19153 0.0
C3864 C 0.77376 0.93061 0.19191 0.0
C3865 C 0.77843 0.92486 0.19849 0.0
H3866 H 0.77216 0.94473 0.18645 0.0
H3867 H 0.81804 0.88907 0.2499 0.0
H3868 H 0.13731 0.79627 0.18707 0.0
H3869 H 0.12282 0.79108 0.19509 0.0
H3870 H 0.12726 0.81254 0.21621 0.0
H3871 H 0.14163 0.81797 0.20811 0.0
H3872 H 0.12264 0.79498 0.22395 0.0
H3873 H 0.11092 0.81568 0.19944 0.0
H3874 H 0.1091 0.82137 0.183 0.0
H3875 H 0.09673 0.79466 0.17503 0.0
H3876 H 0.0986 0.78876 0.19141 0.0
H3877 H 0.07861 0.79301 0.24657 0.0
H3878 H 0.09242 0.79831 0.23769 0.0
H3879 H 0.08497 0.77909 0.21521 0.0
H3880 H 0.07071 0.77415 0.2238 0.0
H3881 H 0.09125 0.79502 0.20787 0.0
H3882 H 0.10264 0.77412 0.23192 0.0
H3883 H 0.10469 0.76783 0.24812 0.0
H3884 H 0.11799 0.79392 0.25668 0.0
H3885 H 0.1159 0.80042 0.24056 0.0
C3886 C 0.13516 0.79999 0.19335 0.0
C3887 C 0.14066 0.80759 0.1969 0.0
C3888 C 0.12688 0.79698 0.19795 0.0
C3889 C 0.12392 0.80147 0.20621 0.0
C3890 C 0.12943 0.80896 0.20986 0.0
C3891 C 0.13768 0.81202 0.20523 0.0
C3892 C 0.1151 0.79832 0.21109 0.0
C3893 C 0.11575 0.7951 0.22048 0.0
C3894 C 0.10617 0.79819 0.20646 0.0
C3895 C 0.10499 0.80175 0.19663 0.0
C3896 C 0.10788 0.81099 0.19416 0.0
C3897 C 0.10683 0.81426 0.18486 0.0
C3898 C 0.10282 0.80837 0.17796 0.0
C3899 C 0.09984 0.79921 0.18037 0.0
C3900 C 0.10089 0.7959 0.18967 0.0
C3901 C 0.07974 0.79003 0.23965 0.0
C3902 C 0.07347 0.78313 0.23594 0.0
C3903 C 0.08777 0.79297 0.23463 0.0
C3904 C 0.08988 0.78896 0.22586 0.0
C3905 C 0.08354 0.78225 0.222 0.0
C3906 C 0.07542 0.77936 0.22697 0.0
C3907 C 0.09874 0.79174 0.2208 0.0
C3908 C 0.09812 0.79487 0.21136 0.0
C3909 C 0.10773 0.79169 0.22535 0.0
C3910 C 0.10904 0.78779 0.23505 0.0
C3911 C 0.10594 0.77855 0.23727 0.0
C3912 C 0.10712 0.77494 0.24644 0.0
C3913 C 0.11144 0.78048 0.25343 0.0
C3914 C 0.11463 0.78964 0.25126 0.0
C3915 C 0.11346 0.79329 0.24211 0.0
H3916 H 0.11234 0.77768 0.26052 0.0
H3917 H 0.10202 0.81092 0.17076 0.0
H3918 H 0.8775 0.21616 0.20158 0.0
H3919 H 0.89194 0.22166 0.20959 0.0
H3920 H 0.9039 0.19398 0.20694 0.0
H3921 H 0.88944 0.18842 0.19891 0.0
H3922 H 0.90745 0.20112 0.22422 0.0
H3923 H 0.91076 0.21202 0.19222 0.0
H3924 H 0.90586 0.22007 0.17749 0.0
H3925 H 0.90432 0.24637 0.19228 0.0
H3926 H 0.90908 0.23845 0.20714 0.0
H3927 H 0.95458 0.21649 0.23592 0.0
H3928 H 0.9408 0.20991 0.22747 0.0
H3929 H 0.92682 0.23667 0.22945 0.0
H3930 H 0.94047 0.24325 0.23796 0.0
H3931 H 0.92483 0.22938 0.21199 0.0
H3932 H 0.92092 0.21836 0.24406 0.0
H3933 H 0.92572 0.21031 0.25884 0.0
H3934 H 0.92842 0.18424 0.24386 0.0
H3935 H 0.92376 0.19217 0.22896 0.0
C3936 C 0.88322 0.21125 0.20265 0.0
C3937 C 0.88234 0.20187 0.19953 0.0
C3938 C 0.89147 0.21441 0.20724 0.0
C3939 C 0.89908 0.20828 0.20873 0.0
C3940 C 0.89814 0.19884 0.20585 0.0
C3941 C 0.88986 0.19567 0.20128 0.0
C3942 C 0.90801 0.21177 0.21325 0.0
C3943 C 0.91133 0.20721 0.22146 0.0
C3944 C 0.913 0.21982 0.20975 0.0
C3945 C 0.9102 0.22462 0.20081 0.0
C3946 C 0.90931 0.21951 0.19235 0.0
C3947 C 0.90657 0.22405 0.18397 0.0
C3948 C 0.90476 0.23372 0.18395 0.0
C3949 C 0.90572 0.23888 0.19231 0.0
C3950 C 0.90845 0.23436 0.20071 0.0
C3951 C 0.94856 0.22096 0.2346 0.0
C3952 C 0.94866 0.23041 0.23762 0.0
C3953 C 0.94069 0.21719 0.22975 0.0
C3954 C 0.93274 0.22277 0.22789 0.0
C3955 C 0.93288 0.23223 0.23077 0.0
C3956 C 0.94073 0.236 0.2356 0.0
C3957 C 0.92422 0.21879 0.223 0.0
C3958 C 0.92098 0.22326 0.21472 0.0
C3959 C 0.91932 0.21066 0.22642 0.0
C3960 C 0.92209 0.20588 0.23538 0.0
C3961 C 0.92261 0.21093 0.24391 0.0
C3962 C 0.92529 0.20639 0.2523 0.0
C3963 C 0.9274 0.19678 0.25228 0.0
C3964 C 0.92681 0.19169 0.24386 0.0
C3965 C 0.92414 0.1962 0.23544 0.0
H3966 H 0.92947 0.19328 0.25879 0.0
H3967 H 0.90263 0.23723 0.17746 0.0
H3968 H 0.20332 0.70935 0.63724 0.0
H3969 H 0.20957 0.71802 0.62353 0.0
H3970 H 0.20878 0.69241 0.60721 0.0
H3971 H 0.2025 0.68371 0.62086 0.0
H3972 H 0.22538 0.70135 0.6052 0.0
H3973 H 0.19274 0.71012 0.60334 0.0
H3974 H 0.17769 0.71635 0.60924 0.0
H3975 H 0.19125 0.74317 0.61458 0.0
H3976 H 0.20642 0.73706 0.60884 0.0
H3977 H 0.23613 0.72266 0.56095 0.0
H3978 H 0.22755 0.71426 0.57354 0.0
H3979 H 0.22851 0.73936 0.59062 0.0
H3980 H 0.23712 0.74779 0.57812 0.0
H3981 H 0.21143 0.73057 0.59192 0.0
H3982 H 0.24407 0.72173 0.59448 0.0
H3983 H 0.25923 0.71563 0.58874 0.0
H3984 H 0.24572 0.68902 0.5823 0.0
H3985 H 0.23043 0.69502 0.58789 0.0
C3986 C 0.20433 0.70559 0.63069 0.0
C3987 C 0.20242 0.69582 0.63017 0.0
C3988 C 0.20792 0.71056 0.62285 0.0
C3989 C 0.2096 0.70589 0.6143 0.0
C3990 C 0.20758 0.69616 0.61373 0.0
C3991 C 0.20401 0.69119 0.62156 0.0
C3992 C 0.21381 0.71103 0.60607 0.0
C3993 C 0.22223 0.70765 0.6022 0.0
C3994 C 0.20986 0.7194 0.6023 0.0
C3995 C 0.20074 0.7231 0.60574 0.0
C3996 C 0.19254 0.71732 0.60584 0.0
C3997 C 0.18398 0.72084 0.60915 0.0
C3998 C 0.18352 0.73014 0.61231 0.0
C3999 C 0.19162 0.73596 0.61215 0.0
C4000 C 0.2002 0.73248 0.60886 0.0
C4001 C 0.23451 0.7264 0.56738 0.0
C4002 C 0.23736 0.7359 0.56853 0.0
C4003 C 0.22959 0.72159 0.57457 0.0
C4004 C 0.22749 0.72614 0.58308 0.0
C4005 C 0.23003 0.7357 0.58412 0.0
C4006 C 0.23493 0.74052 0.57693 0.0
C4007 C 0.22296 0.72086 0.59105 0.0
C4008 C 0.21452 0.72423 0.59489 0.0
C4009 C 0.2269 0.71249 0.59483 0.0
C4010 C 0.23609 0.70885 0.59151 0.0
C4011 C 0.24432 0.7146 0.59178 0.0
C4012 C 0.25294 0.71116 0.58856 0.0
C4013 C 0.25343 0.70195 0.58513 0.0
C4014 C 0.24532 0.69616 0.58494 0.0
C4015 C 0.23668 0.69957 0.58814 0.0
H4016 H 0.26011 0.6993 0.58265 0.0
H4017 H 0.17689 0.73285 0.61486 0.0
H4018 H 0.80478 0.68665 0.63303 0.0
H4019 H 0.79942 0.69494 0.61879 0.0
H4020 H 0.81582 0.71957 0.62691 0.0
H4021 H 0.82146 0.71125 0.64105 0.0
H4022 H 0.79747 0.72381 0.62133 0.0
H4023 H 0.82363 0.70603 0.60966 0.0
H4024 H 0.8328 0.69162 0.60704 0.0
H4025 H 0.80935 0.67931 0.59171 0.0
H4026 H 0.79999 0.6936 0.59436 0.0
H4027 H 0.79367 0.74998 0.57904 0.0
H4028 H 0.79994 0.74121 0.5925 0.0
H4029 H 0.78623 0.71576 0.58231 0.0
H4030 H 0.78037 0.72439 0.56846 0.0
H4031 H 0.80312 0.71174 0.58901 0.0
H4032 H 0.77682 0.72904 0.60056 0.0
H4033 H 0.76718 0.7431 0.60332 0.0
H4034 H 0.7901 0.75587 0.61906 0.0
H4035 H 0.79993 0.74193 0.61628 0.0
C4036 C 0.80738 0.69378 0.63174 0.0
C4037 C 0.8136 0.69825 0.63821 0.0
C4038 C 0.80426 0.69853 0.62361 0.0
C4039 C 0.80727 0.70785 0.62176 0.0
C4040 C 0.8134 0.71238 0.62822 0.0
C4041 C 0.81657 0.70762 0.63632 0.0
C4042 C 0.80393 0.71293 0.61315 0.0
C4043 C 0.79881 0.72125 0.61425 0.0
C4044 C 0.80544 0.70943 0.60393 0.0
C4045 C 0.81108 0.70085 0.60229 0.0
C4046 C 0.8204 0.70022 0.6058 0.0
C4047 C 0.82564 0.69208 0.6043 0.0
C4048 C 0.82165 0.68455 0.59923 0.0
C4049 C 0.81242 0.68515 0.59564 0.0
C4050 C 0.80715 0.69327 0.59714 0.0
C4051 C 0.79212 0.74248 0.57952 0.0
C4052 C 0.78648 0.73792 0.57261 0.0
C4053 C 0.79561 0.73749 0.58733 0.0
C4054 C 0.7934 0.72785 0.58855 0.0
C4055 C 0.78798 0.72321 0.58157 0.0
C4056 C 0.78455 0.72818 0.57369 0.0
C4057 C 0.79667 0.72267 0.59716 0.0
C4058 C 0.80176 0.71432 0.59607 0.0
C4059 C 0.79505 0.7261 0.60641 0.0
C4060 C 0.78914 0.73447 0.60813 0.0
C4061 C 0.77983 0.73487 0.60455 0.0
C4062 C 0.77432 0.74282 0.60612 0.0
C4063 C 0.77803 0.75038 0.61134 0.0
C4064 C 0.78724 0.75001 0.61501 0.0
C4065 C 0.79278 0.74209 0.61344 0.0
H4066 H 0.77376 0.75653 0.61255 0.0
H4067 H 0.82572 0.67825 0.59807 0.0
H4068 H 0.80164 0.31831 0.63853 0.0
H4069 H 0.79625 0.30969 0.62455 0.0
H4070 H 0.82518 0.30313 0.61791 0.0
H4071 H 0.83067 0.31204 0.63175 0.0
H4072 H 0.81558 0.30854 0.60225 0.0
H4073 H 0.81041 0.28643 0.62758 0.0
H4074 H 0.80443 0.2809 0.64305 0.0
H4075 H 0.77585 0.28584 0.63389 0.0
H4076 H 0.78167 0.29153 0.6184 0.0
H4077 H 0.80279 0.2738 0.56769 0.0
H4078 H 0.80944 0.2822 0.58134 0.0
H4079 H 0.78125 0.28898 0.59039 0.0
H4080 H 0.77454 0.28026 0.57706 0.0
H4081 H 0.79128 0.28294 0.6049 0.0
H4082 H 0.79644 0.3056 0.57981 0.0
H4083 H 0.80239 0.31123 0.56435 0.0
H4084 H 0.83091 0.30528 0.57305 0.0
H4085 H 0.82512 0.29949 0.58852 0.0
C4086 C 0.80688 0.31511 0.63406 0.0
C4087 C 0.8166 0.31589 0.63628 0.0
C4088 C 0.80377 0.31009 0.62611 0.0
C4089 C 0.8103 0.30566 0.62023 0.0
C4090 C 0.82001 0.30646 0.62236 0.0
C4091 C 0.82313 0.31149 0.63033 0.0
C4092 C 0.80694 0.30025 0.61182 0.0
C4093 C 0.81037 0.30284 0.60284 0.0
C4094 C 0.80001 0.29294 0.61255 0.0
C4095 C 0.79649 0.28949 0.62185 0.0
C4096 C 0.80286 0.28641 0.62889 0.0
C4097 C 0.79949 0.28323 0.63766 0.0
C4098 C 0.78977 0.28304 0.63946 0.0
C4099 C 0.78338 0.286 0.63248 0.0
C4100 C 0.78671 0.28919 0.6237 0.0
C4101 C 0.798 0.27706 0.5726 0.0
C4102 C 0.78812 0.27637 0.57122 0.0
C4103 C 0.80182 0.28194 0.58036 0.0
C4104 C 0.79586 0.28632 0.58687 0.0
C4105 C 0.78601 0.2857 0.58547 0.0
C4106 C 0.78218 0.28079 0.57775 0.0
C4107 C 0.79981 0.2913 0.5953 0.0
C4108 C 0.79651 0.28862 0.6043 0.0
C4109 C 0.80684 0.29853 0.59457 0.0
C4110 C 0.81034 0.30202 0.58528 0.0
C4111 C 0.80397 0.30542 0.5784 0.0
C4112 C 0.80732 0.30865 0.56964 0.0
C4113 C 0.81702 0.30858 0.56771 0.0
C4114 C 0.82339 0.30531 0.57455 0.0
C4115 C 0.82009 0.30206 0.58331 0.0
H4116 H 0.81959 0.31109 0.56093 0.0
H4117 H 0.78718 0.28058 0.64625 0.0
H4118 H 0.19519 0.30444 0.63252 0.0
H4119 H 0.20061 0.29591 0.61864 0.0
H4120 H 0.22946 0.30445 0.62487 0.0
H4121 H 0.22411 0.31292 0.6388 0.0
H4122 H 0.22552 0.30678 0.60637 0.0
H4123 H 0.22163 0.28201 0.62944 0.0
H4124 H 0.21313 0.2724 0.6414 0.0
H4125 H 0.19228 0.26429 0.62058 0.0
H4126 H 0.20059 0.27397 0.60852 0.0
H4127 H 0.24938 0.27445 0.57678 0.0
H4128 H 0.24338 0.28369 0.58992 0.0
H4129 H 0.21482 0.27473 0.58299 0.0
H4130 H 0.22076 0.26553 0.56977 0.0
H4131 H 0.21829 0.27274 0.60161 0.0
H4132 H 0.22251 0.29729 0.57841 0.0
H4133 H 0.2312 0.3068 0.56651 0.0
H4134 H 0.25161 0.31524 0.58763 0.0
H4135 H 0.24311 0.30567 0.59963 0.0
C4136 C 0.2027 0.30442 0.63101 0.0
C4137 C 0.2092 0.30938 0.6368 0.0
C4138 C 0.20579 0.29955 0.62305 0.0
C4139 C 0.21546 0.29948 0.62073 0.0
C4140 C 0.22196 0.30444 0.62648 0.0
C4141 C 0.21888 0.3093 0.63444 0.0
C4142 C 0.2188 0.29432 0.61228 0.0
C4143 C 0.22404 0.29931 0.60539 0.0
C4144 C 0.21669 0.28462 0.61087 0.0
C4145 C 0.21167 0.2788 0.6181 0.0
C4146 C 0.21519 0.27825 0.62743 0.0
C4147 C 0.21041 0.27277 0.63422 0.0
C4148 C 0.20216 0.26776 0.63176 0.0
C4149 C 0.19867 0.26819 0.62248 0.0
C4150 C 0.20341 0.27367 0.61567 0.0
C4151 C 0.2418 0.27459 0.57792 0.0
C4152 C 0.23556 0.26924 0.57219 0.0
C4153 C 0.23838 0.27985 0.58547 0.0
C4154 C 0.22863 0.27995 0.58743 0.0
C4155 C 0.22237 0.27474 0.58164 0.0
C4156 C 0.22578 0.26947 0.57409 0.0
C4157 C 0.22502 0.2852 0.59571 0.0
C4158 C 0.21974 0.28022 0.60257 0.0
C4159 C 0.22711 0.29491 0.5971 0.0
C4160 C 0.23222 0.30069 0.5899 0.0
C4161 C 0.22889 0.30111 0.5805 0.0
C4162 C 0.23378 0.30653 0.57374 0.0
C4163 C 0.24196 0.3116 0.5763 0.0
C4164 C 0.24527 0.31129 0.58565 0.0
C4165 C 0.24042 0.30588 0.59244 0.0
H4166 H 0.24573 0.31579 0.57106 0.0
H4167 H 0.19847 0.26352 0.63702 0.0
H4168 H 0.20814 0.29499 0.37905 0.0
H4169 H 0.21393 0.28658 0.39308 0.0
H4170 H 0.2115 0.31195 0.40952 0.0
H4171 H 0.20572 0.3204 0.39553 0.0
H4172 H 0.22811 0.30403 0.41268 0.0
H4173 H 0.19569 0.29314 0.41189 0.0
H4174 H 0.18133 0.28596 0.40474 0.0
H4175 H 0.19614 0.26012 0.40042 0.0
H4176 H 0.21063 0.26719 0.40743 0.0
H4177 H 0.23601 0.28398 0.45782 0.0
H4178 H 0.22794 0.29147 0.44442 0.0
H4179 H 0.23154 0.26635 0.42786 0.0
H4180 H 0.23967 0.25883 0.44121 0.0
H4181 H 0.21415 0.27394 0.42482 0.0
H4182 H 0.24654 0.28482 0.42513 0.0
H4183 H 0.26103 0.29186 0.43217 0.0
H4184 H 0.24635 0.31766 0.43713 0.0
H4185 H 0.23172 0.31071 0.43025 0.0
C4186 C 0.20872 0.29875 0.38568 0.0
C4187 C 0.20649 0.30838 0.38616 0.0
C4188 C 0.21203 0.29393 0.3937 0.0
C4189 C 0.21308 0.2986 0.40239 0.0
C4190 C 0.21077 0.30819 0.4029 0.0
C4191 C 0.2075 0.31302 0.39488 0.0
C4192 C 0.21693 0.29364 0.41087 0.0
C4193 C 0.22495 0.29753 0.41541 0.0
C4194 C 0.21299 0.28501 0.4143 0.0
C4195 C 0.20427 0.28073 0.41011 0.0
C4196 C 0.19591 0.28595 0.40935 0.0
C4197 C 0.18774 0.2819 0.40533 0.0
C4198 C 0.18783 0.2726 0.4021 0.0
C4199 C 0.19608 0.26732 0.40291 0.0
C4200 C 0.20427 0.27135 0.40692 0.0
C4201 C 0.23506 0.28004 0.45134 0.0
C4202 C 0.23856 0.27083 0.45057 0.0
C4203 C 0.23043 0.28432 0.44369 0.0
C4204 C 0.22927 0.27952 0.43508 0.0
C4205 C 0.23236 0.27018 0.43443 0.0
C4206 C 0.23698 0.26589 0.44208 0.0
C4207 C 0.22525 0.2844 0.42665 0.0
C4208 C 0.21725 0.28047 0.4221 0.0
C4209 C 0.22921 0.293 0.42317 0.0
C4210 C 0.23801 0.29721 0.42726 0.0
C4211 C 0.24638 0.29197 0.42779 0.0
C4212 C 0.25462 0.29595 0.43174 0.0
C4213 C 0.2546 0.30519 0.43512 0.0
C4214 C 0.24635 0.31049 0.43453 0.0
C4215 C 0.23808 0.30654 0.4306 0.0
H4216 H 0.26099 0.30826 0.43817 0.0
H4217 H 0.18149 0.26947 0.39899 0.0
H4218 H 0.20144 0.69437 0.39036 0.0
H4219 H 0.20994 0.70111 0.40396 0.0
H4220 H 0.20368 0.72917 0.39389 0.0
H4221 H 0.19548 0.72251 0.38016 0.0
H4222 H 0.22155 0.72841 0.39999 0.0
H4223 H 0.19101 0.71856 0.41194 0.0
H4224 H 0.17793 0.70725 0.41516 0.0
H4225 H 0.19673 0.68997 0.43157 0.0
H4226 H 0.20996 0.70113 0.42834 0.0
H4227 H 0.22831 0.75583 0.44093 0.0
H4228 H 0.22109 0.74738 0.42765 0.0
H4229 H 0.23036 0.72092 0.43953 0.0
H4230 H 0.2375 0.72935 0.45298 0.0
H4231 H 0.21193 0.71985 0.43271 0.0
H4232 H 0.24224 0.73032 0.42155 0.0
H4233 H 0.25522 0.74178 0.41844 0.0
H4234 H 0.23678 0.758 0.40057 0.0
H4235 H 0.22364 0.7467 0.40368 0.0
C4236 C 0.20197 0.70197 0.39099 0.0
C4237 C 0.1977 0.70789 0.38419 0.0
C4238 C 0.20675 0.70582 0.39882 0.0
C4239 C 0.20734 0.71566 0.40003 0.0
C4240 C 0.20329 0.72157 0.39314 0.0
C4241 C 0.19852 0.71774 0.38533 0.0
C4242 C 0.21209 0.71986 0.4085 0.0
C4243 C 0.21938 0.7266 0.40713 0.0
C4244 C 0.20944 0.71733 0.41785 0.0
C4245 C 0.2015 0.71062 0.41981 0.0
C4246 C 0.19237 0.71231 0.41617 0.0
C4247 C 0.18493 0.70593 0.41801 0.0
C4248 C 0.1865 0.69788 0.42354 0.0
C4249 C 0.19552 0.6962 0.42727 0.0
C4250 C 0.203 0.70255 0.42544 0.0
C4251 C 0.2287 0.7482 0.44081 0.0
C4252 C 0.23348 0.74327 0.44804 0.0
C4253 C 0.22465 0.74338 0.43315 0.0
C4254 C 0.22528 0.73352 0.43253 0.0
C4255 C 0.22982 0.72853 0.43984 0.0
C4256 C 0.23394 0.73336 0.44749 0.0
C4257 C 0.22127 0.7285 0.42417 0.0
C4258 C 0.21414 0.72161 0.42556 0.0
C4259 C 0.22404 0.7309 0.41483 0.0
C4260 C 0.23193 0.7377 0.41292 0.0
C4261 C 0.24093 0.73637 0.41702 0.0
C4262 C 0.24832 0.74283 0.41525 0.0
C4263 C 0.24682 0.75062 0.40932 0.0
C4264 C 0.23793 0.75196 0.40516 0.0
C4265 C 0.23051 0.74553 0.40692 0.0
H4266 H 0.25256 0.7556 0.40794 0.0
H4267 H 0.18073 0.69295 0.42495 0.0
H4268 H 0.82069 0.6923 0.39066 0.0
H4269 H 0.81256 0.69778 0.40478 0.0
H4270 H 0.81886 0.72667 0.39681 0.0
H4271 H 0.82693 0.72125 0.38267 0.0
H4272 H 0.82244 0.72379 0.4153 0.0
H4273 H 0.79667 0.71709 0.3938 0.0
H4274 H 0.78706 0.70731 0.38288 0.0
H4275 H 0.78152 0.68728 0.40523 0.0
H4276 H 0.79121 0.69689 0.41626 0.0
H4277 H 0.79028 0.74741 0.44517 0.0
H4278 H 0.79936 0.74114 0.43204 0.0
H4279 H 0.79155 0.71276 0.44058 0.0
H4280 H 0.7824 0.71901 0.45371 0.0
H4281 H 0.78902 0.71487 0.42216 0.0
H4282 H 0.81436 0.72187 0.44385 0.0
H4283 H 0.82393 0.73171 0.45476 0.0
H4284 H 0.8303 0.75115 0.43212 0.0
H4285 H 0.82066 0.7415 0.4211 0.0
C4286 C 0.82026 0.69982 0.39185 0.0
C4287 C 0.82448 0.70633 0.38551 0.0
C4288 C 0.81563 0.70295 0.39995 0.0
C4289 C 0.81504 0.71265 0.40184 0.0
C4290 C 0.81925 0.71915 0.39554 0.0
C4291 C 0.82389 0.71604 0.38745 0.0
C4292 C 0.8101 0.71605 0.41041 0.0
C4293 C 0.8151 0.72192 0.41675 0.0
C4294 C 0.80059 0.71344 0.41244 0.0
C4295 C 0.79475 0.70766 0.40582 0.0
C4296 C 0.79347 0.71056 0.39636 0.0
C4297 C 0.788 0.70506 0.39016 0.0
C4298 C 0.78371 0.69666 0.39335 0.0
C4299 C 0.78486 0.69377 0.40276 0.0
C4300 C 0.79034 0.69925 0.40899 0.0
C4301 C 0.79064 0.73983 0.44437 0.0
C4302 C 0.78563 0.73371 0.45051 0.0
C4303 C 0.79583 0.73624 0.43684 0.0
C4304 C 0.79622 0.72646 0.43534 0.0
C4305 C 0.79135 0.72033 0.44156 0.0
C4306 C 0.78612 0.72391 0.44907 0.0
C4307 C 0.80135 0.72264 0.42706 0.0
C4308 C 0.79638 0.7167 0.42076 0.0
C4309 C 0.81088 0.72519 0.42507 0.0
C4310 C 0.81671 0.731 0.43167 0.0
C4311 C 0.81774 0.72828 0.44122 0.0
C4312 C 0.82319 0.73382 0.44742 0.0
C4313 C 0.8277 0.74206 0.44414 0.0
C4314 C 0.82679 0.74477 0.43465 0.0
C4315 C 0.82134 0.73926 0.42842 0.0
H4316 H 0.83192 0.74634 0.44895 0.0
H4317 H 0.77947 0.69241 0.38853 0.0
H4318 H 0.82162 0.30404 0.37858 0.0
H4319 H 0.81511 0.29556 0.39229 0.0
H4320 H 0.81722 0.32101 0.40879 0.0
H4321 H 0.82399 0.32947 0.3952 0.0
H4322 H 0.82266 0.3058 0.41908 0.0
H4323 H 0.79618 0.31396 0.39919 0.0
H4324 H 0.78696 0.31454 0.38431 0.0
H4325 H 0.78555 0.28423 0.38374 0.0
H4326 H 0.79488 0.28347 0.39855 0.0
H4327 H 0.79018 0.2936 0.45585 0.0
H4328 H 0.79879 0.30097 0.44268 0.0
H4329 H 0.79549 0.27536 0.42657 0.0
H4330 H 0.78661 0.26806 0.43956 0.0
H4331 H 0.79104 0.29023 0.41603 0.0
H4332 H 0.81701 0.28202 0.43628 0.0
H4333 H 0.8262 0.28145 0.45117 0.0
H4334 H 0.82859 0.31173 0.45114 0.0
H4335 H 0.81929 0.31249 0.43631 0.0
C4336 C 0.82083 0.30781 0.38516 0.0
C4337 C 0.82327 0.31746 0.38576 0.0
C4338 C 0.81703 0.30297 0.39297 0.0
C4339 C 0.81555 0.30768 0.40154 0.0
C4340 C 0.81825 0.31723 0.40225 0.0
C4341 C 0.82204 0.32208 0.39444 0.0
C4342 C 0.81095 0.30274 0.40968 0.0
C4343 C 0.81571 0.30248 0.41844 0.0
C4344 C 0.80196 0.29822 0.40881 0.0
C4345 C 0.79632 0.29866 0.39992 0.0
C4346 C 0.79397 0.30742 0.39585 0.0
C4347 C 0.78871 0.30778 0.38744 0.0
C4348 C 0.78569 0.29943 0.38307 0.0
C4349 C 0.7879 0.29069 0.38712 0.0
C4350 C 0.79317 0.2903 0.39553 0.0
C4351 C 0.79129 0.28953 0.44951 0.0
C4352 C 0.7877 0.28022 0.44879 0.0
C4353 C 0.79629 0.29372 0.44201 0.0
C4354 C 0.79787 0.28869 0.43364 0.0
C4355 C 0.7944 0.27937 0.43296 0.0
C4356 C 0.7894 0.27518 0.44044 0.0
C4357 C 0.80275 0.29327 0.42545 0.0
C4358 C 0.79803 0.29349 0.41667 0.0
C4359 C 0.81177 0.29774 0.42631 0.0
C4360 C 0.81737 0.29731 0.43523 0.0
C4361 C 0.81943 0.28856 0.43949 0.0
C4362 C 0.82467 0.28821 0.44791 0.0
C4363 C 0.82796 0.29655 0.45211 0.0
C4364 C 0.82603 0.30527 0.44789 0.0
C4365 C 0.82078 0.30567 0.43946 0.0
H4366 H 0.83202 0.29626 0.45863 0.0
H4367 H 0.78161 0.29972 0.37656 0.0
H4368 H 0.12777 0.68947 0.70188 0.0
H4369 H 0.11435 0.69587 0.71052 0.0
H4370 H 0.12342 0.72415 0.70291 0.0
H4371 H 0.13698 0.71784 0.69456 0.0
H4372 H 0.1183 0.72342 0.72096 0.0
H4373 H 0.10491 0.71273 0.69136 0.0
H4374 H 0.10125 0.70111 0.67889 0.0
H4375 H 0.08624 0.68368 0.699 0.0
H4376 H 0.08993 0.69514 0.71162 0.0
H4377 H 0.07738 0.74977 0.72869 0.0
H4378 H 0.09029 0.74157 0.72106 0.0
H4379 H 0.07927 0.7149 0.73148 0.0
H4380 H 0.06612 0.72306 0.73899 0.0
H4381 H 0.08524 0.71374 0.71302 0.0
H4382 H 0.09783 0.72501 0.74241 0.0
H4383 H 0.10136 0.73679 0.75475 0.0
H4384 H 0.11784 0.75322 0.73497 0.0
H4385 H 0.11429 0.7416 0.72246 0.0
C4386 C 0.12696 0.69705 0.70213 0.0
C4387 C 0.13343 0.70313 0.69746 0.0
C4388 C 0.11923 0.7007 0.707 0.0
C4389 C 0.11779 0.71049 0.70727 0.0
C4390 C 0.12434 0.71657 0.70277 0.0
C4391 C 0.13206 0.71294 0.69792 0.0
C4392 C 0.10947 0.71448 0.71218 0.0
C4393 C 0.11107 0.72136 0.71915 0.0
C4394 C 0.10002 0.71163 0.71003 0.0
C4395 C 0.09779 0.70474 0.70245 0.0
C4396 C 0.1009 0.70638 0.69314 0.0
C4397 C 0.09881 0.69983 0.68604 0.0
C4398 C 0.09354 0.69164 0.68816 0.0
C4399 C 0.09034 0.69001 0.69738 0.0
C4400 C 0.09242 0.69653 0.7045 0.0
C4401 C 0.07758 0.74214 0.72924 0.0
C4402 C 0.07068 0.73708 0.73445 0.0
C4403 C 0.08504 0.73747 0.72495 0.0
C4404 C 0.08583 0.72763 0.72581 0.0
C4405 C 0.07883 0.7225 0.73077 0.0
C4406 C 0.07135 0.72718 0.7351 0.0
C4407 C 0.09409 0.72278 0.72165 0.0
C4408 C 0.09247 0.71574 0.71486 0.0
C4409 C 0.10353 0.72549 0.72395 0.0
C4410 C 0.10573 0.73247 0.73147 0.0
C4411 C 0.10215 0.73117 0.74067 0.0
C4412 C 0.10416 0.73781 0.7477 0.0
C4413 C 0.1098 0.74576 0.74564 0.0
C4414 C 0.11346 0.74707 0.73655 0.0
C4415 C 0.11146 0.74045 0.72949 0.0
H4416 H 0.11135 0.7509 0.75109 0.0
H4417 H 0.09192 0.68658 0.68266 0.0
H4418 H 0.81605 0.62836 0.69717 0.0
H4419 H 0.80759 0.61415 0.70265 0.0
H4420 H 0.81289 0.62212 0.73162 0.0
H4421 H 0.82129 0.63638 0.72621 0.0
H4422 H 0.81643 0.6037 0.729 0.0
H4423 H 0.79112 0.62485 0.72155 0.0
H4424 H 0.78195 0.63572 0.71146 0.0
H4425 H 0.77683 0.61355 0.69141 0.0
H4426 H 0.78609 0.60257 0.70132 0.0
H4427 H 0.78336 0.57279 0.75179 0.0
H4428 H 0.79263 0.58626 0.7458 0.0
H4429 H 0.78582 0.57816 0.71714 0.0
H4430 H 0.77646 0.56471 0.72311 0.0
H4431 H 0.78328 0.59642 0.71925 0.0
H4432 H 0.80828 0.57512 0.72692 0.0
H4433 H 0.81743 0.56426 0.73704 0.0
H4434 H 0.82314 0.58666 0.75669 0.0
H4435 H 0.81392 0.59763 0.74674 0.0
C4436 C 0.81533 0.62715 0.70471 0.0
C4437 C 0.81936 0.63353 0.71125 0.0
C4438 C 0.81051 0.619 0.70783 0.0
C4439 C 0.80954 0.61709 0.71755 0.0
C4440 C 0.81358 0.62343 0.72409 0.0
C4441 C 0.8184 0.63157 0.72098 0.0
C4442 C 0.8044 0.60847 0.72093 0.0
C4443 C 0.80914 0.60216 0.72696 0.0
C4444 C 0.79497 0.60633 0.71809 0.0
C4445 C 0.78938 0.61292 0.71213 0.0
C4446 C 0.78811 0.62231 0.71495 0.0
C4447 C 0.78288 0.62849 0.70927 0.0
C4448 C 0.77883 0.62533 0.70079 0.0
C4449 C 0.77998 0.61599 0.69798 0.0
C4450 C 0.78521 0.60978 0.70362 0.0
C4451 C 0.78398 0.57378 0.74421 0.0
C4452 C 0.77919 0.56766 0.73793 0.0
C4453 C 0.78927 0.5815 0.74078 0.0
C4454 C 0.79001 0.5832 0.731 0.0
C4455 C 0.78535 0.57702 0.72471 0.0
C4456 C 0.78 0.56933 0.72813 0.0
C4457 C 0.7953 0.59163 0.72734 0.0
C4458 C 0.79058 0.59792 0.72127 0.0
C4459 C 0.80476 0.59374 0.73014 0.0
C4460 C 0.81034 0.58717 0.73612 0.0
C4461 C 0.81143 0.57771 0.73343 0.0
C4462 C 0.81664 0.57154 0.73913 0.0
C4463 C 0.82084 0.57477 0.74752 0.0
C4464 C 0.81987 0.58417 0.7502 0.0
C4465 C 0.81466 0.59037 0.74453 0.0
H4466 H 0.82487 0.56998 0.75192 0.0
H4467 H 0.77479 0.63013 0.6964 0.0
H4468 H 0.88442 0.29434 0.69919 0.0
H4469 H 0.89813 0.28841 0.70785 0.0
H4470 H 0.90423 0.3164 0.71832 0.0
H4471 H 0.89068 0.32248 0.70938 0.0
H4472 H 0.92016 0.30814 0.71264 0.0
H4473 H 0.89405 0.29935 0.73252 0.0
H4474 H 0.87851 0.29213 0.73638 0.0
H4475 H 0.88857 0.26491 0.72833 0.0
H4476 H 0.90414 0.27199 0.7243 0.0
H4477 H 0.95255 0.2941 0.7489 0.0
H4478 H 0.93934 0.30052 0.73976 0.0
H4479 H 0.93264 0.27272 0.72911 0.0
H4480 H 0.94563 0.26619 0.7385 0.0
H4481 H 0.91703 0.28109 0.73499 0.0
H4482 H 0.94317 0.28996 0.71507 0.0
H4483 H 0.9587 0.29722 0.71129 0.0
H4484 H 0.94859 0.32436 0.71952 0.0
H4485 H 0.93303 0.31723 0.72348 0.0
C4486 C 0.88871 0.29927 0.70326 0.0
C4487 C 0.88643 0.3089 0.70356 0.0
C4488 C 0.89651 0.29584 0.7083 0.0
C4489 C 0.90217 0.30193 0.71384 0.0
C4490 C 0.89995 0.31155 0.71413 0.0
C4491 C 0.89215 0.315 0.70907 0.0
C4492 C 0.91045 0.29824 0.71923 0.0
C4493 C 0.91945 0.30231 0.71763 0.0
C4494 C 0.90959 0.2905 0.72559 0.0
C4495 C 0.90024 0.28622 0.72803 0.0
C4496 C 0.89293 0.29183 0.73151 0.0
C4497 C 0.88412 0.28777 0.73373 0.0
C4498 C 0.88255 0.27807 0.73258 0.0
C4499 C 0.8898 0.27242 0.72921 0.0
C4500 C 0.89862 0.27646 0.72696 0.0
C4501 C 0.94827 0.28934 0.74461 0.0
C4502 C 0.95017 0.27961 0.74446 0.0
C4503 C 0.94076 0.29304 0.73932 0.0
C4504 C 0.93502 0.28712 0.73368 0.0
C4505 C 0.93698 0.27744 0.73339 0.0
C4506 C 0.94448 0.27373 0.73869 0.0
C4507 C 0.92675 0.29095 0.72837 0.0
C4508 C 0.91774 0.28692 0.73 0.0
C4509 C 0.92761 0.29873 0.72205 0.0
C4510 C 0.93696 0.30304 0.71966 0.0
C4511 C 0.94428 0.29746 0.71615 0.0
C4512 C 0.95309 0.30156 0.71396 0.0
C4513 C 0.95464 0.31124 0.71519 0.0
C4514 C 0.94738 0.31686 0.71858 0.0
C4515 C 0.93856 0.31279 0.72079 0.0
H4516 H 0.96147 0.3144 0.71349 0.0
H4517 H 0.87572 0.27494 0.73431 0.0
H4518 H 0.20515 0.3813 0.69418 0.0
H4519 H 0.2127 0.39588 0.69996 0.0
H4520 H 0.20747 0.38698 0.72874 0.0
H4521 H 0.20002 0.37239 0.72305 0.0
H4522 H 0.20219 0.40496 0.72582 0.0
H4523 H 0.22964 0.38631 0.71923 0.0
H4524 H 0.24001 0.37676 0.70927 0.0
H4525 H 0.24366 0.40015 0.69003 0.0
H4526 H 0.23319 0.4098 0.69982 0.0
H4527 H 0.2308 0.43652 0.75208 0.0
H4528 H 0.22355 0.42269 0.74461 0.0
H4529 H 0.23158 0.43352 0.71713 0.0
H4530 H 0.23901 0.44738 0.72462 0.0
H4531 H 0.23506 0.41526 0.71821 0.0
H4532 H 0.20829 0.43419 0.72499 0.0
H4533 H 0.19788 0.44386 0.7348 0.0
H4534 H 0.19271 0.42015 0.7533 0.0
H4535 H 0.2032 0.41037 0.74368 0.0
C4536 C 0.20573 0.38238 0.70175 0.0
C4537 C 0.20193 0.37568 0.70815 0.0
C4538 C 0.21003 0.39074 0.70504 0.0
C4539 C 0.21067 0.39252 0.71479 0.0
C4540 C 0.207 0.38579 0.72118 0.0
C4541 C 0.20271 0.37746 0.71791 0.0
C4542 C 0.21492 0.4015 0.71839 0.0
C4543 C 0.20941 0.40716 0.72424 0.0
C4544 C 0.22424 0.40454 0.71608 0.0
C4545 C 0.23055 0.39874 0.7102 0.0
C4546 C 0.23258 0.38939 0.71284 0.0
C4547 C 0.2385 0.38397 0.70723 0.0
C4548 C 0.24247 0.38784 0.69901 0.0
C4549 C 0.24056 0.39715 0.69639 0.0
C4550 C 0.23465 0.40261 0.70197 0.0
C4551 C 0.23091 0.43604 0.74443 0.0
C4552 C 0.23539 0.44311 0.73894 0.0
C4553 C 0.22677 0.42811 0.74016 0.0
C4554 C 0.22686 0.42711 0.73027 0.0
C4555 C 0.23139 0.43413 0.72476 0.0
C4556 C 0.23562 0.44205 0.72905 0.0
C4557 C 0.22237 0.41865 0.72578 0.0
C4558 C 0.22782 0.4131 0.71975 0.0
C4559 C 0.21296 0.41573 0.72788 0.0
C4560 C 0.2066 0.42157 0.73365 0.0
C4561 C 0.20499 0.43106 0.73119 0.0
C4562 C 0.19906 0.43655 0.73671 0.0
C4563 C 0.19465 0.43263 0.74468 0.0
C4564 C 0.19614 0.42318 0.74713 0.0
C4565 C 0.20206 0.41766 0.74164 0.0
H4566 H 0.19007 0.4369 0.74895 0.0
H4567 H 0.24705 0.38362 0.69468 0.0
H4568 H 0.12873 0.31042 0.32128 0.0
H4569 H 0.11491 0.30419 0.31265 0.0
H4570 H 0.13011 0.27883 0.30645 0.0
H4571 H 0.14402 0.28509 0.31489 0.0
H4572 H 0.12069 0.28535 0.291 0.0
H4573 H 0.11354 0.27875 0.32357 0.0
H4574 H 0.11138 0.28255 0.34041 0.0
H4575 H 0.08933 0.30183 0.33297 0.0
H4576 H 0.09145 0.29824 0.31606 0.0
H4577 H 0.0822 0.25684 0.27565 0.0
H4578 H 0.09549 0.26296 0.28506 0.0
H4579 H 0.07986 0.28813 0.29095 0.0
H4580 H 0.06638 0.28192 0.28176 0.0
H4581 H 0.08939 0.28188 0.30657 0.0
H4582 H 0.09651 0.28847 0.27402 0.0
H4583 H 0.09863 0.28465 0.25718 0.0
H4584 H 0.12076 0.26544 0.26459 0.0
H4585 H 0.11867 0.26903 0.2815 0.0
C4586 C 0.12916 0.30355 0.31801 0.0
C4587 C 0.13747 0.29824 0.3188 0.0
C4588 C 0.12123 0.29997 0.31315 0.0
C4589 C 0.12144 0.29099 0.30899 0.0
C4590 C 0.12977 0.28575 0.30963 0.0
C4591 C 0.13769 0.28931 0.31452 0.0
C4592 C 0.11298 0.28708 0.30396 0.0
C4593 C 0.11388 0.28447 0.29445 0.0
C4594 C 0.10403 0.28615 0.30838 0.0
C4595 C 0.10272 0.2883 0.31854 0.0
C4596 C 0.10829 0.28386 0.32551 0.0
C4597 C 0.10706 0.28596 0.33507 0.0
C4598 C 0.10024 0.29244 0.33775 0.0
C4599 C 0.09462 0.29682 0.33088 0.0
C4600 C 0.09582 0.29475 0.32131 0.0
C4601 C 0.0815 0.2636 0.27909 0.0
C4602 C 0.07322 0.2689 0.27793 0.0
C4603 C 0.08915 0.26713 0.28439 0.0
C4604 C 0.08873 0.27607 0.28859 0.0
C4605 C 0.08036 0.28124 0.28773 0.0
C4606 C 0.07269 0.27771 0.28242 0.0
C4607 C 0.09712 0.28011 0.29364 0.0
C4608 C 0.0962 0.28276 0.30313 0.0
C4609 C 0.10606 0.28109 0.2892 0.0
C4610 C 0.10737 0.27895 0.27904 0.0
C4611 C 0.10178 0.28337 0.27207 0.0
C4612 C 0.10298 0.28126 0.26251 0.0
C4613 C 0.10981 0.27479 0.25982 0.0
C4614 C 0.11546 0.27044 0.26668 0.0
C4615 C 0.11428 0.27252 0.27626 0.0
H4616 H 0.11073 0.27316 0.25241 0.0
H4617 H 0.0993 0.29406 0.34516 0.0
H4618 H 0.20781 0.63909 0.31004 0.0
H4619 H 0.21317 0.62451 0.30276 0.0
H4620 H 0.19918 0.60813 0.32458 0.0
H4621 H 0.1939 0.6227 0.33198 0.0
H4622 H 0.21737 0.60234 0.32153 0.0
H4623 H 0.18978 0.60898 0.30273 0.0
H4624 H 0.17944 0.61876 0.29265 0.0
H4625 H 0.20152 0.62154 0.272 0.0
H4626 H 0.21205 0.61189 0.28203 0.0
H4627 H 0.22507 0.55795 0.3005 0.0
H4628 H 0.2171 0.5716 0.30715 0.0
H4629 H 0.22784 0.58913 0.28439 0.0
H4630 H 0.23564 0.57549 0.27764 0.0
H4631 H 0.2105 0.59402 0.28811 0.0
H4632 H 0.23841 0.58856 0.30687 0.0
H4633 H 0.24931 0.57927 0.31683 0.0
H4634 H 0.22738 0.57491 0.3374 0.0
H4635 H 0.2163 0.58406 0.32749 0.0
C4636 C 0.20588 0.63239 0.3133 0.0
C4637 C 0.20041 0.63206 0.32159 0.0
C4638 C 0.20889 0.62405 0.30908 0.0
C4639 C 0.20652 0.61522 0.31308 0.0
C4640 C 0.20107 0.61487 0.32136 0.0
C4641 C 0.198 0.6232 0.32553 0.0
C4642 C 0.20997 0.60636 0.30879 0.0
C4643 C 0.21573 0.60044 0.31427 0.0
C4644 C 0.20806 0.60401 0.29923 0.0
C4645 C 0.20173 0.60978 0.29317 0.0
C4646 C 0.19246 0.61174 0.29608 0.0
C4647 C 0.18656 0.61725 0.29036 0.0
C4648 C 0.18983 0.62079 0.2817 0.0
C4649 C 0.199 0.61881 0.27872 0.0
C4650 C 0.20493 0.61331 0.28441 0.0
C4651 C 0.22567 0.5647 0.29689 0.0
C4652 C 0.23101 0.56564 0.28856 0.0
C4653 C 0.22114 0.57251 0.30071 0.0
C4654 C 0.222 0.58146 0.29638 0.0
C4655 C 0.22706 0.58233 0.28788 0.0
C4656 C 0.2315 0.5745 0.284 0.0
C4657 C 0.21794 0.58999 0.30084 0.0
C4658 C 0.21208 0.59588 0.29539 0.0
C4659 C 0.21985 0.59238 0.3104 0.0
C4660 C 0.2265 0.5869 0.31639 0.0
C4661 C 0.23589 0.58556 0.31348 0.0
C4662 C 0.2421 0.58033 0.31912 0.0
C4663 C 0.23903 0.57648 0.32773 0.0
C4664 C 0.22974 0.57788 0.33073 0.0
C4665 C 0.2235 0.58309 0.3251 0.0
H4666 H 0.24385 0.57243 0.33209 0.0
H4667 H 0.18525 0.62505 0.27729 0.0
H4668 H 0.88992 0.69369 0.29958 0.0
H4669 H 0.90348 0.70268 0.29348 0.0
H4670 H 0.9025 0.72119 0.31754 0.0
H4671 H 0.8886 0.71253 0.32345 0.0
H4672 H 0.90523 0.73121 0.30216 0.0
H4673 H 0.91953 0.70371 0.31543 0.0
H4674 H 0.92189 0.68667 0.31803 0.0
H4675 H 0.92837 0.68329 0.28861 0.0
H4676 H 0.92592 0.7003 0.2858 0.0
H4677 H 0.95058 0.75247 0.29524 0.0
H4678 H 0.93789 0.7427 0.30205 0.0
H4679 H 0.93561 0.72698 0.27611 0.0
H4680 H 0.9481 0.73691 0.2691 0.0
H4681 H 0.93486 0.71553 0.29269 0.0
H4682 H 0.92018 0.74327 0.27968 0.0
H4683 H 0.91813 0.76041 0.27749 0.0
H4684 H 0.91273 0.76335 0.30719 0.0
H4685 H 0.91489 0.74623 0.30958 0.0
C4686 C 0.89251 0.69973 0.30354 0.0
C4687 C 0.88812 0.70237 0.31203 0.0
C4688 C 0.90036 0.7048 0.3001 0.0
C4689 C 0.90413 0.71254 0.30511 0.0
C4690 C 0.89977 0.71522 0.31356 0.0
C4691 C 0.89186 0.71019 0.31698 0.0
C4692 C 0.91248 0.71796 0.30143 0.0
C4693 C 0.91176 0.72778 0.30024 0.0
C4694 C 0.92095 0.7135 0.29872 0.0
C4695 C 0.92245 0.70327 0.30039 0.0
C4696 C 0.92139 0.69932 0.3095 0.0
C4697 C 0.92275 0.68967 0.31101 0.0
C4698 C 0.92526 0.6839 0.30349 0.0
C4699 C 0.92642 0.68777 0.29443 0.0
C4700 C 0.92505 0.69742 0.29288 0.0
C4701 C 0.94737 0.74697 0.29095 0.0
C4702 C 0.95033 0.74557 0.28157 0.0
C4703 C 0.94014 0.74135 0.29488 0.0
C4704 C 0.93574 0.73418 0.28955 0.0
C4705 C 0.93893 0.73248 0.28035 0.0
C4706 C 0.94611 0.73814 0.27637 0.0
C4707 C 0.92757 0.72872 0.29347 0.0
C4708 C 0.92833 0.71892 0.29467 0.0
C4709 C 0.91916 0.7332 0.29626 0.0
C4710 C 0.9178 0.74348 0.29483 0.0
C4711 C 0.91863 0.74758 0.28576 0.0
C4712 C 0.91744 0.75729 0.28448 0.0
C4713 C 0.91532 0.76297 0.2922 0.0
C4714 C 0.91438 0.75894 0.30122 0.0
C4715 C 0.91558 0.74924 0.30254 0.0
H4716 H 0.9144 0.77048 0.2912 0.0
H4717 H 0.92631 0.67643 0.30467 0.0
H4718 H 0.81968 0.3828 0.32461 0.0
H4719 H 0.8113 0.39663 0.31867 0.0
H4720 H 0.83271 0.40106 0.2974 0.0
H4721 H 0.84101 0.3871 0.3031 0.0
H4722 H 0.82786 0.41767 0.30635 0.0
H4723 H 0.81204 0.39139 0.29123 0.0
H4724 H 0.80362 0.376 0.29075 0.0
H4725 H 0.78143 0.38698 0.30792 0.0
H4726 H 0.78979 0.40241 0.30862 0.0
H4727 H 0.80321 0.4501 0.27681 0.0
H4728 H 0.81208 0.43693 0.28343 0.0
H4729 H 0.78875 0.43002 0.30196 0.0
H4730 H 0.77961 0.44278 0.29498 0.0
H4731 H 0.79474 0.41466 0.29462 0.0
H4732 H 0.81016 0.44089 0.30983 0.0
H4733 H 0.81851 0.4563 0.31077 0.0
H4734 H 0.84127 0.44563 0.29416 0.0
H4735 H 0.83299 0.43018 0.293 0.0
C4736 C 0.82257 0.38664 0.3186 0.0
C4737 C 0.83103 0.38377 0.31433 0.0
C4738 C 0.81779 0.39458 0.31525 0.0
C4739 C 0.82134 0.39985 0.30755 0.0
C4740 C 0.82985 0.39712 0.30337 0.0
C4741 C 0.83461 0.38915 0.30668 0.0
C4742 C 0.81612 0.40811 0.30377 0.0
C4743 C 0.82065 0.41701 0.30368 0.0
C4744 C 0.80664 0.40729 0.30051 0.0
C4745 C 0.80159 0.39803 0.30006 0.0
C4746 C 0.8054 0.3905 0.29497 0.0
C4747 C 0.80063 0.38177 0.29464 0.0
C4748 C 0.792 0.3805 0.29932 0.0
C4749 C 0.78812 0.38797 0.30431 0.0
C4750 C 0.79286 0.39671 0.30467 0.0
C4751 C 0.79993 0.44577 0.28227 0.0
C4752 C 0.79066 0.44756 0.28534 0.0
C4753 C 0.80507 0.43828 0.28614 0.0
C4754 C 0.80115 0.43251 0.2933 0.0
C4755 C 0.79197 0.43437 0.29647 0.0
C4756 C 0.78678 0.44178 0.29254 0.0
C4757 C 0.80644 0.42431 0.29723 0.0
C4758 C 0.80193 0.41538 0.29732 0.0
C4759 C 0.81591 0.42514 0.30056 0.0
C4760 C 0.82091 0.43441 0.30125 0.0
C4761 C 0.81691 0.44185 0.30632 0.0
C4762 C 0.82164 0.45059 0.3069 0.0
C4763 C 0.8304 0.45195 0.30251 0.0
C4764 C 0.83447 0.44457 0.29754 0.0
C4765 C 0.82977 0.43582 0.29693 0.0
H4766 H 0.83405 0.45872 0.30297 0.0
H4767 H 0.78832 0.37374 0.29906 0.0
H4768 H 0.18902 0.62 0.69629 0.0
H4769 H 0.19792 0.6062 0.70159 0.0
H4770 H 0.21956 0.62455 0.71344 0.0
H4771 H 0.21075 0.63837 0.70807 0.0
H4772 H 0.22699 0.60976 0.70326 0.0
H4773 H 0.20373 0.61412 0.72767 0.0
H4774 H 0.18753 0.61587 0.73379 0.0
H4775 H 0.17967 0.5886 0.7229 0.0
H4776 H 0.19579 0.58675 0.71659 0.0
H4777 H 0.2521 0.5784 0.73267 0.0
H4778 H 0.24277 0.59128 0.72614 0.0
H4779 H 0.22037 0.57149 0.71878 0.0
H4780 H 0.22964 0.55856 0.7256 0.0
H4781 H 0.2129 0.5865 0.72578 0.0
H4782 H 0.23595 0.58155 0.70185 0.0
H4783 H 0.25192 0.57957 0.69526 0.0
H4784 H 0.25995 0.60746 0.70436 0.0
H4785 H 0.24406 0.60956 0.71113 0.0
C4786 C 0.19571 0.6211 0.69996 0.0
C4787 C 0.19916 0.63029 0.70179 0.0
C4788 C 0.20075 0.6132 0.70304 0.0
C4789 C 0.20937 0.61434 0.70798 0.0
C4790 C 0.21292 0.6235 0.70966 0.0
C4791 C 0.20784 0.63139 0.70665 0.0
C4792 C 0.21468 0.606 0.71145 0.0
C4793 C 0.22396 0.60472 0.70826 0.0
C4794 C 0.21061 0.59926 0.71774 0.0
C4795 C 0.20093 0.60034 0.72157 0.0
C4796 C 0.19852 0.60853 0.72651 0.0
C4797 C 0.18936 0.60954 0.73003 0.0
C4798 C 0.18257 0.60236 0.72871 0.0
C4799 C 0.18493 0.59416 0.7239 0.0
C4800 C 0.19408 0.59312 0.72036 0.0
C4801 C 0.24523 0.57677 0.72958 0.0
C4802 C 0.24165 0.56745 0.72955 0.0
C4803 C 0.23989 0.58415 0.72582 0.0
C4804 C 0.23092 0.58237 0.72177 0.0
C4805 C 0.22728 0.57306 0.72183 0.0
C4806 C 0.23258 0.56567 0.72571 0.0
C4807 C 0.2253 0.59027 0.71767 0.0
C4808 C 0.21595 0.59148 0.72073 0.0
C4809 C 0.22928 0.5969 0.71117 0.0
C4810 C 0.23883 0.59568 0.70707 0.0
C4811 C 0.24114 0.58724 0.7025 0.0
C4812 C 0.25017 0.5861 0.69873 0.0
C4813 C 0.25695 0.59338 0.69941 0.0
C4814 C 0.25469 0.60182 0.70385 0.0
C4815 C 0.24567 0.603 0.70765 0.0
H4816 H 0.26394 0.59248 0.69648 0.0
H4817 H 0.17548 0.60315 0.73144 0.0
H4818 H 0.18403 0.38134 0.30995 0.0
H4819 H 0.19138 0.39597 0.3041 0.0
H4820 H 0.21884 0.38614 0.31295 0.0
H4821 H 0.21154 0.3714 0.31876 0.0
H4822 H 0.21655 0.40485 0.31712 0.0
H4823 H 0.21254 0.38494 0.2901 0.0
H4824 H 0.2038 0.37454 0.27904 0.0
H4825 H 0.185 0.39711 0.27199 0.0
H4826 H 0.19356 0.40762 0.28312 0.0
H4827 H 0.24357 0.43742 0.28851 0.0
H4828 H 0.23661 0.42362 0.29654 0.0
H4829 H 0.20877 0.43185 0.28713 0.0
H4830 H 0.21568 0.44566 0.27909 0.0
H4831 H 0.21165 0.41376 0.28342 0.0
H4832 H 0.21582 0.43375 0.31048 0.0
H4833 H 0.22469 0.44406 0.32152 0.0
H4834 H 0.24337 0.42135 0.32841 0.0
H4835 H 0.23469 0.41093 0.31731 0.0
C4836 C 0.19164 0.38225 0.31061 0.0
C4837 C 0.1972 0.37513 0.31473 0.0
C4838 C 0.19583 0.39064 0.30729 0.0
C4839 C 0.20568 0.39211 0.30797 0.0
C4840 C 0.21123 0.38516 0.31235 0.0
C4841 C 0.20704 0.37675 0.31568 0.0
C4842 C 0.21016 0.40077 0.30385 0.0
C4843 C 0.21558 0.40675 0.30972 0.0
C4844 C 0.20878 0.40333 0.29424 0.0
C4845 C 0.20364 0.39704 0.28751 0.0
C4846 C 0.2065 0.38767 0.28625 0.0
C4847 C 0.20158 0.38176 0.27996 0.0
C4848 C 0.19383 0.38516 0.27484 0.0
C4849 C 0.191 0.39449 0.27598 0.0
C4850 C 0.19588 0.40042 0.28226 0.0
C4851 C 0.23594 0.4364 0.28831 0.0
C4852 C 0.23018 0.44264 0.28313 0.0
C4853 C 0.23197 0.42849 0.2929 0.0
C4854 C 0.22215 0.4267 0.29247 0.0
C4855 C 0.21637 0.43306 0.28752 0.0
C4856 C 0.22033 0.44094 0.28292 0.0
C4857 C 0.21795 0.41794 0.29671 0.0
C4858 C 0.21261 0.4119 0.29083 0.0
C4859 C 0.21944 0.41534 0.3063 0.0
C4860 C 0.22466 0.42159 0.31299 0.0
C4861 C 0.22187 0.43098 0.31429 0.0
C4862 C 0.22686 0.43684 0.32057 0.0
C4863 C 0.23461 0.43337 0.32564 0.0
C4864 C 0.23737 0.42403 0.32447 0.0
C4865 C 0.23242 0.41814 0.31819 0.0
H4866 H 0.23846 0.43792 0.3305 0.0
H4867 H 0.19004 0.38057 0.26997 0.0
H4868 H 0.12864 0.69128 0.30149 0.0
H4869 H 0.11531 0.7004 0.29551 0.0
H4870 H 0.11851 0.71968 0.31882 0.0
H4871 H 0.13205 0.71074 0.32474 0.0
H4872 H 0.0996 0.71436 0.31529 0.0
H4873 H 0.12647 0.72631 0.29791 0.0
H4874 H 0.14065 0.72507 0.28791 0.0
H4875 H 0.12377 0.71242 0.26585 0.0
H4876 H 0.10951 0.71347 0.27577 0.0
H4877 H 0.07065 0.75086 0.29668 0.0
H4878 H 0.08324 0.74136 0.30355 0.0
H4879 H 0.08374 0.72445 0.2783 0.0
H4880 H 0.07161 0.7343 0.27112 0.0
H4881 H 0.10089 0.72859 0.28312 0.0
H4882 H 0.07403 0.71641 0.30015 0.0
H4883 H 0.05974 0.71718 0.31004 0.0
H4884 H 0.07619 0.72958 0.33256 0.0
H4885 H 0.09057 0.72899 0.32275 0.0
C4886 C 0.1266 0.69752 0.30531 0.0
C4887 C 0.13151 0.7003 0.31357 0.0
C4888 C 0.11893 0.7027 0.3019 0.0
C4889 C 0.11597 0.71077 0.30668 0.0
C4890 C 0.12068 0.71346 0.31504 0.0
C4891 C 0.1284 0.70831 0.31843 0.0
C4892 C 0.10806 0.71648 0.30282 0.0
C4893 C 0.0999 0.71758 0.30831 0.0
C4894 C 0.10839 0.72048 0.29362 0.0
C4895 C 0.11694 0.71989 0.28762 0.0
C4896 C 0.1258 0.7232 0.29095 0.0
C4897 C 0.13384 0.72254 0.2853 0.0
C4898 C 0.13311 0.71864 0.27626 0.0
C4899 C 0.12433 0.71542 0.27285 0.0
C4900 C 0.11626 0.71605 0.27849 0.0
C4901 C 0.07345 0.74515 0.29254 0.0
C4902 C 0.07007 0.7434 0.2833 0.0
C4903 C 0.08059 0.73962 0.29655 0.0
C4904 C 0.0844 0.73209 0.2915 0.0
C4905 C 0.08092 0.7302 0.28236 0.0
C4906 C 0.07387 0.73579 0.2783 0.0
C4907 C 0.09231 0.72643 0.29554 0.0
C4908 C 0.10052 0.72536 0.2901 0.0
C4909 C 0.09198 0.7224 0.30476 0.0
C4910 C 0.08336 0.72274 0.31068 0.0
C4911 C 0.07459 0.71936 0.30718 0.0
C4912 C 0.06647 0.71975 0.31278 0.0
C4913 C 0.06705 0.72345 0.32191 0.0
C4914 C 0.07575 0.72673 0.32548 0.0
C4915 C 0.08389 0.72636 0.3199 0.0
H4916 H 0.06076 0.72374 0.32623 0.0
H4917 H 0.13935 0.71814 0.27189 0.0
H4918 H 0.80761 0.63019 0.3289 0.0
H4919 H 0.80268 0.61609 0.32027 0.0
H4920 H 0.82517 0.62099 0.30021 0.0
H4921 H 0.82983 0.63543 0.30851 0.0
H4922 H 0.80984 0.61598 0.29111 0.0
H4923 H 0.82638 0.60354 0.31783 0.0
H4924 H 0.83044 0.60137 0.3347 0.0
H4925 H 0.80234 0.59064 0.34014 0.0
H4926 H 0.79806 0.59288 0.32332 0.0
H4927 H 0.80652 0.56966 0.27138 0.0
H4928 H 0.81268 0.58315 0.28034 0.0
H4929 H 0.7872 0.5832 0.29697 0.0
H4930 H 0.78074 0.57004 0.28778 0.0
H4931 H 0.80477 0.58529 0.30767 0.0
H4932 H 0.7885 0.59848 0.28054 0.0
H4933 H 0.78513 0.6003 0.26348 0.0
H4934 H 0.81397 0.60919 0.2587 0.0
H4935 H 0.81754 0.60727 0.27573 0.0
C4936 C 0.81146 0.62836 0.32259 0.0
C4937 C 0.81914 0.634 0.31943 0.0
C4938 C 0.8087 0.62019 0.31773 0.0
C4939 C 0.81364 0.61735 0.30966 0.0
C4940 C 0.82127 0.62298 0.30644 0.0
C4941 C 0.82399 0.6312 0.31126 0.0
C4942 C 0.81072 0.60862 0.3045 0.0
C4943 C 0.80889 0.60925 0.29473 0.0
C4944 C 0.80933 0.59983 0.3092 0.0
C4945 C 0.81187 0.59846 0.31932 0.0
C4946 C 0.82104 0.60079 0.32263 0.0
C4947 C 0.82339 0.59954 0.33219 0.0
C4948 C 0.81664 0.59589 0.33849 0.0
C4949 C 0.80755 0.59348 0.33525 0.0
C4950 C 0.80516 0.59473 0.32571 0.0
C4951 C 0.80216 0.57256 0.27688 0.0
C4952 C 0.79307 0.56874 0.27877 0.0
C4953 C 0.80574 0.58024 0.28205 0.0
C4954 C 0.80037 0.5842 0.28928 0.0
C4955 C 0.79147 0.58022 0.29144 0.0
C4956 C 0.78782 0.57263 0.28619 0.0
C4957 C 0.80387 0.59271 0.29437 0.0
C4958 C 0.80579 0.59203 0.3041 0.0
C4959 C 0.80546 0.60142 0.28962 0.0
C4960 C 0.80331 0.60262 0.27939 0.0
C4961 C 0.79414 0.60073 0.27584 0.0
C4962 C 0.79219 0.6018 0.26618 0.0
C4963 C 0.79934 0.60483 0.26001 0.0
C4964 C 0.80844 0.60683 0.26349 0.0
C4965 C 0.81043 0.60575 0.27315 0.0
H4966 H 0.79781 0.60566 0.25253 0.0
H4967 H 0.81847 0.59492 0.34588 0.0
H4968 H 0.90149 0.30538 0.3318 0.0
H4969 H 0.91472 0.29896 0.32304 0.0
H4970 H 0.90159 0.30747 0.29673 0.0
H4971 H 0.88812 0.31361 0.30545 0.0
H4972 H 0.90788 0.28995 0.29549 0.0
H4973 H 0.92111 0.3194 0.30568 0.0
H4974 H 0.92541 0.33194 0.317 0.0
H4975 H 0.9429 0.31262 0.33252 0.0
H4976 H 0.93859 0.29991 0.32137 0.0
H4977 H 0.94834 0.27879 0.26834 0.0
H4978 H 0.93611 0.28819 0.27583 0.0
H4979 H 0.94597 0.27918 0.30337 0.0
H4980 H 0.95832 0.2699 0.29593 0.0
H4981 H 0.94144 0.29801 0.30304 0.0
H4982 H 0.92719 0.26839 0.29337 0.0
H4983 H 0.92288 0.25591 0.28198 0.0
H4984 H 0.90731 0.27591 0.26529 0.0
H4985 H 0.91164 0.28855 0.27652 0.0
C4986 C 0.90137 0.30585 0.32414 0.0
C4987 C 0.8937 0.31 0.31934 0.0
C4988 C 0.90902 0.30227 0.31914 0.0
C4989 C 0.90923 0.30282 0.30921 0.0
C4990 C 0.90161 0.30699 0.30438 0.0
C4991 C 0.89395 0.31058 0.30939 0.0
C4992 C 0.91724 0.29872 0.3039 0.0
C4993 C 0.91521 0.29186 0.29702 0.0
C4994 C 0.92683 0.30105 0.30601 0.0
C4995 C 0.92946 0.30868 0.31273 0.0
C4996 C 0.92581 0.3178 0.31155 0.0
C4997 C 0.92826 0.32494 0.31793 0.0
C4998 C 0.93441 0.32307 0.32549 0.0
C4999 C 0.93813 0.31405 0.32667 0.0
C5000 C 0.93569 0.30688 0.32031 0.0
C5001 C 0.94802 0.27896 0.276 0.0
C5002 C 0.95428 0.27356 0.28154 0.0
C5003 C 0.94097 0.28426 0.28026 0.0
C5004 C 0.94004 0.28429 0.29016 0.0
C5005 C 0.94653 0.27924 0.29572 0.0
C5006 C 0.95355 0.2739 0.29146 0.0
C5007 C 0.93206 0.28922 0.29471 0.0
C5008 C 0.9341 0.29621 0.30145 0.0
C5009 C 0.92248 0.28703 0.29246 0.0
C5010 C 0.91983 0.27943 0.28573 0.0
C5011 C 0.92291 0.27014 0.28723 0.0
C5012 C 0.92046 0.26304 0.28081 0.0
C5013 C 0.91485 0.26512 0.2729 0.0
C5014 C 0.91167 0.27431 0.27141 0.0
C5015 C 0.91412 0.28145 0.2778 0.0
H5016 H 0.91295 0.25961 0.26793 0.0
H5017 H 0.9363 0.32861 0.33042 0.0
H5018 H 0.8292 0.38128 0.72282 0.0
H5019 H 0.821 0.39504 0.72874 0.0
H5020 H 0.80447 0.3964 0.703 0.0
H5021 H 0.81249 0.38244 0.69708 0.0
H5022 H 0.81138 0.41401 0.7086 0.0
H5023 H 0.7943 0.38791 0.72239 0.0
H5024 H 0.79241 0.37291 0.73121 0.0
H5025 H 0.80476 0.38572 0.75593 0.0
H5026 H 0.80685 0.40077 0.74722 0.0
H5027 H 0.77921 0.44758 0.72752 0.0
H5028 H 0.78625 0.43389 0.71999 0.0
H5029 H 0.80185 0.42787 0.74564 0.0
H5030 H 0.7945 0.44116 0.75335 0.0
H5031 H 0.79437 0.41228 0.73919 0.0
H5032 H 0.81233 0.43805 0.72534 0.0
H5033 H 0.81458 0.45305 0.71659 0.0
H5034 H 0.80094 0.44097 0.69215 0.0
H5035 H 0.7985 0.42593 0.70081 0.0
C5036 C 0.82374 0.3844 0.71844 0.0
C5037 C 0.82146 0.38065 0.70949 0.0
C5038 C 0.81909 0.39231 0.72183 0.0
C5039 C 0.81205 0.3967 0.71636 0.0
C5040 C 0.80988 0.39313 0.70734 0.0
C5041 C 0.8145 0.38516 0.70396 0.0
C5042 C 0.80697 0.40496 0.72013 0.0
C5043 C 0.80753 0.41361 0.71522 0.0
C5044 C 0.80209 0.40448 0.72884 0.0
C5045 C 0.8008 0.39545 0.73412 0.0
C5046 C 0.79668 0.38751 0.72968 0.0
C5047 C 0.79556 0.379 0.73467 0.0
C5048 C 0.79848 0.37836 0.74412 0.0
C5049 C 0.80251 0.38623 0.74861 0.0
C5050 C 0.80365 0.39475 0.74365 0.0
C5051 C 0.78411 0.44332 0.73158 0.0
C5052 C 0.7863 0.44555 0.74106 0.0
C5053 C 0.78821 0.43554 0.72722 0.0
C5054 C 0.79467 0.42987 0.73221 0.0
C5055 C 0.79691 0.43213 0.74163 0.0
C5056 C 0.79278 0.43984 0.746 0.0
C5057 C 0.79893 0.42143 0.72778 0.0
C5058 C 0.79818 0.41271 0.73256 0.0
C5059 C 0.80367 0.42187 0.71897 0.0
C5060 C 0.80514 0.4309 0.71376 0.0
C5061 C 0.80974 0.43862 0.71813 0.0
C5062 C 0.81106 0.44712 0.71318 0.0
C5063 C 0.80788 0.44797 0.70383 0.0
C5064 C 0.80339 0.44031 0.6994 0.0
C5065 C 0.80204 0.43179 0.70432 0.0
H5066 H 0.80891 0.45456 0.70001 0.0
H5067 H 0.79761 0.37176 0.74797 0.0
H5068 H 0.12787 0.30409 0.69059 0.0
H5069 H 0.11397 0.29867 0.69944 0.0
H5070 H 0.13064 0.29809 0.72514 0.0
H5071 H 0.14466 0.3033 0.71627 0.0
H5072 H 0.11997 0.28227 0.72343 0.0
H5073 H 0.11468 0.31542 0.72127 0.0
H5074 H 0.11317 0.33091 0.71336 0.0
H5075 H 0.0898 0.3202 0.69678 0.0
H5076 H 0.09126 0.30459 0.7045 0.0
H5077 H 0.08073 0.27462 0.75371 0.0
H5078 H 0.0944 0.28233 0.7462 0.0
H5079 H 0.07947 0.28257 0.71946 0.0
H5080 H 0.06567 0.27503 0.72698 0.0
H5081 H 0.08942 0.29912 0.72242 0.0
H5082 H 0.09534 0.26577 0.72412 0.0
H5083 H 0.09688 0.25032 0.73213 0.0
H5084 H 0.11918 0.26161 0.74975 0.0
H5085 H 0.11768 0.27717 0.74194 0.0
C5086 C 0.1286 0.30278 0.69812 0.0
C5087 C 0.13739 0.30413 0.70272 0.0
C5088 C 0.12061 0.29976 0.70319 0.0
C5089 C 0.12122 0.29806 0.71298 0.0
C5090 C 0.12998 0.29939 0.7176 0.0
C5091 C 0.13798 0.30244 0.71253 0.0
C5092 C 0.11277 0.29462 0.71833 0.0
C5093 C 0.11334 0.28604 0.72334 0.0
C5094 C 0.10405 0.29943 0.71806 0.0
C5095 C 0.10314 0.30881 0.7134 0.0
C5096 C 0.10927 0.31634 0.71588 0.0
C5097 C 0.10841 0.32515 0.71144 0.0
C5098 C 0.10141 0.32653 0.70455 0.0
C5099 C 0.09523 0.31911 0.70211 0.0
C5100 C 0.09607 0.31029 0.70652 0.0
C5101 C 0.08027 0.27648 0.74627 0.0
C5102 C 0.07211 0.27418 0.74094 0.0
C5103 C 0.08814 0.2808 0.74197 0.0
C5104 C 0.08801 0.28291 0.73224 0.0
C5105 C 0.07974 0.28097 0.72697 0.0
C5106 C 0.07188 0.27661 0.73126 0.0
C5107 C 0.09663 0.28677 0.72747 0.0
C5108 C 0.09608 0.2954 0.72256 0.0
C5109 C 0.10538 0.28202 0.72784 0.0
C5110 C 0.10633 0.27266 0.73252 0.0
C5111 C 0.10052 0.26498 0.72976 0.0
C5112 C 0.1014 0.2562 0.73425 0.0
C5113 C 0.10811 0.255 0.74146 0.0
C5114 C 0.11398 0.26256 0.74418 0.0
C5115 C 0.11312 0.27136 0.73971 0.0
H5116 H 0.10877 0.24819 0.74493 0.0
H5117 H 0.10076 0.33335 0.70113 0.0
H5118 H 0.88897 0.69259 0.70953 0.0
H5119 H 0.903 0.69826 0.71818 0.0
H5120 H 0.89516 0.72706 0.71239 0.0
H5121 H 0.88109 0.72146 0.70381 0.0
H5122 H 0.91362 0.72451 0.70895 0.0
H5123 H 0.8921 0.71719 0.73428 0.0
H5124 H 0.88113 0.70715 0.7436 0.0
H5125 H 0.90342 0.68755 0.74917 0.0
H5126 H 0.9145 0.69742 0.73976 0.0
H5127 H 0.94305 0.74892 0.74162 0.0
H5128 H 0.9297 0.74209 0.73284 0.0
H5129 H 0.93944 0.71409 0.73948 0.0
H5130 H 0.95293 0.72088 0.74825 0.0
H5131 H 0.92054 0.71549 0.74226 0.0
H5132 H 0.94223 0.72323 0.71738 0.0
H5133 H 0.95316 0.73344 0.70819 0.0
H5134 H 0.93048 0.75236 0.70182 0.0
H5135 H 0.91944 0.74233 0.7111 0.0
C5136 C 0.89016 0.70013 0.7102 0.0
C5137 C 0.88389 0.70657 0.70596 0.0
C5138 C 0.8982 0.70336 0.71513 0.0
C5139 C 0.90012 0.71309 0.71599 0.0
C5140 C 0.89386 0.71952 0.71179 0.0
C5141 C 0.88583 0.7163 0.70686 0.0
C5142 C 0.90871 0.7166 0.72109 0.0
C5143 C 0.91507 0.72262 0.71627 0.0
C5144 C 0.91075 0.71394 0.73057 0.0
C5145 C 0.9041 0.70799 0.73622 0.0
C5146 C 0.89464 0.7107 0.73742 0.0
C5147 C 0.88841 0.70505 0.74273 0.0
C5148 C 0.89157 0.6967 0.74695 0.0
C5149 C 0.90098 0.69401 0.74588 0.0
C5150 C 0.90724 0.69963 0.74056 0.0
C5151 C 0.94247 0.74131 0.74109 0.0
C5152 C 0.94913 0.73546 0.74558 0.0
C5153 C 0.9348 0.73741 0.73609 0.0
C5154 C 0.93362 0.72757 0.7354 0.0
C5155 C 0.94021 0.7217 0.73991 0.0
C5156 C 0.9479 0.72559 0.74493 0.0
C5157 C 0.92539 0.72347 0.73013 0.0
C5158 C 0.91911 0.71733 0.73493 0.0
C5159 C 0.92341 0.72604 0.72063 0.0
C5160 C 0.93002 0.73206 0.71501 0.0
C5161 C 0.93959 0.7296 0.71408 0.0
C5162 C 0.9458 0.73535 0.70885 0.0
C5163 C 0.94252 0.74355 0.70444 0.0
C5164 C 0.93301 0.74601 0.70524 0.0
C5165 C 0.92677 0.74029 0.71048 0.0
H5166 H 0.94735 0.74799 0.70039 0.0
H5167 H 0.88673 0.69234 0.75107 0.0
H5168 H 0.71169 0.18441 0.62691 0.0
H5169 H 0.71804 0.19233 0.61285 0.0
H5170 H 0.71678 0.21916 0.62698 0.0
H5171 H 0.71045 0.21126 0.64112 0.0
H5172 H 0.71086 0.22064 0.60872 0.0
H5173 H 0.73766 0.20787 0.62512 0.0
H5174 H 0.74699 0.19547 0.63299 0.0
H5175 H 0.74719 0.17959 0.60723 0.0
H5176 H 0.73774 0.19184 0.59924 0.0
H5177 H 0.74254 0.24608 0.57823 0.0
H5178 H 0.73424 0.23859 0.59149 0.0
H5179 H 0.73628 0.21151 0.57796 0.0
H5180 H 0.74462 0.21897 0.56467 0.0
H5181 H 0.7416 0.21026 0.59593 0.0
H5182 H 0.71498 0.22335 0.57942 0.0
H5183 H 0.70575 0.2359 0.57166 0.0
H5184 H 0.70536 0.25137 0.59767 0.0
H5185 H 0.7147 0.23897 0.60555 0.0
C5186 C 0.7128 0.19199 0.62706 0.0
C5187 C 0.71064 0.19718 0.6352 0.0
C5188 C 0.71641 0.19652 0.619 0.0
C5189 C 0.71802 0.20633 0.61889 0.0
C5190 C 0.71561 0.21158 0.62689 0.0
C5191 C 0.71197 0.20706 0.63497 0.0
C5192 C 0.72243 0.21106 0.61052 0.0
C5193 C 0.71763 0.21845 0.60599 0.0
C5194 C 0.73119 0.20809 0.60683 0.0
C5195 C 0.73691 0.20073 0.61161 0.0
C5196 C 0.73963 0.2017 0.62116 0.0
C5197 C 0.74495 0.1947 0.62563 0.0
C5198 C 0.74766 0.18673 0.62062 0.0
C5199 C 0.74508 0.18576 0.61111 0.0
C5200 C 0.73975 0.19273 0.6066 0.0
C5201 C 0.74106 0.23856 0.57798 0.0
C5202 C 0.74424 0.23313 0.57036 0.0
C5203 C 0.73632 0.23428 0.58559 0.0
C5204 C 0.73455 0.22448 0.58572 0.0
C5205 C 0.73757 0.21907 0.57804 0.0
C5206 C 0.74235 0.22334 0.57045 0.0
C5207 C 0.73 0.21981 0.59405 0.0
C5208 C 0.7348 0.21244 0.59862 0.0
C5209 C 0.72126 0.22282 0.59777 0.0
C5210 C 0.71562 0.23027 0.59305 0.0
C5211 C 0.71299 0.22946 0.58346 0.0
C5212 C 0.70773 0.23654 0.57905 0.0
C5213 C 0.70499 0.24444 0.58416 0.0
C5214 C 0.70749 0.24526 0.59371 0.0
C5215 C 0.71276 0.2382 0.59816 0.0
H5216 H 0.70092 0.24991 0.58073 0.0
H5217 H 0.75178 0.18132 0.6241 0.0
H5218 H 0.30881 0.17605 0.62893 0.0
H5219 H 0.30229 0.18398 0.61498 0.0
H5220 H 0.30749 0.21103 0.62802 0.0
H5221 H 0.31374 0.20313 0.64214 0.0
H5222 H 0.29026 0.21035 0.6204 0.0
H5223 H 0.32148 0.20345 0.61006 0.0
H5224 H 0.33532 0.19351 0.6071 0.0
H5225 H 0.31867 0.1763 0.58816 0.0
H5226 H 0.30469 0.18606 0.5911 0.0
H5227 H 0.28993 0.22933 0.56857 0.0
H5228 H 0.29847 0.22227 0.58196 0.0
H5229 H 0.2725 0.20897 0.59155 0.0
H5230 H 0.2639 0.21616 0.57836 0.0
H5231 H 0.30136 0.20416 0.58782 0.0
H5232 H 0.27198 0.20981 0.61558 0.0
H5233 H 0.25899 0.22082 0.61859 0.0
H5234 H 0.27367 0.24257 0.60288 0.0
H5235 H 0.2868 0.23174 0.5999 0.0
C5236 C 0.30853 0.18368 0.62886 0.0
C5237 C 0.31179 0.18894 0.63667 0.0
C5238 C 0.30489 0.18822 0.62082 0.0
C5239 C 0.30448 0.19812 0.6204 0.0
C5240 C 0.30776 0.20339 0.62817 0.0
C5241 C 0.31141 0.19886 0.63621 0.0
C5242 C 0.30034 0.20293 0.61197 0.0
C5243 C 0.2927 0.209 0.61329 0.0
C5244 C 0.30362 0.20131 0.60268 0.0
C5245 C 0.31202 0.19544 0.60086 0.0
C5246 C 0.32075 0.1975 0.60532 0.0
C5247 C 0.32862 0.19191 0.60363 0.0
C5248 C 0.32787 0.18426 0.59746 0.0
C5249 C 0.31924 0.18222 0.59294 0.0
C5250 C 0.31135 0.18778 0.59461 0.0
C5251 C 0.28604 0.2249 0.57353 0.0
C5252 C 0.27622 0.22333 0.5724 0.0
C5253 C 0.29094 0.22082 0.58114 0.0
C5254 C 0.2861 0.21518 0.58782 0.0
C5255 C 0.27636 0.21339 0.58655 0.0
C5256 C 0.27147 0.21743 0.57895 0.0
C5257 C 0.29115 0.21137 0.59626 0.0
C5258 C 0.29894 0.2055 0.59494 0.0
C5259 C 0.28812 0.2133 0.60557 0.0
C5260 C 0.28033 0.21992 0.60744 0.0
C5261 C 0.27245 0.21695 0.61281 0.0
C5262 C 0.26506 0.22316 0.6145 0.0
C5263 C 0.26549 0.23238 0.61091 0.0
C5264 C 0.27333 0.23542 0.60563 0.0
C5265 C 0.28074 0.22924 0.60393 0.0
H5266 H 0.25976 0.23717 0.61222 0.0
H5267 H 0.33397 0.17994 0.59617 0.0
H5268 H 0.30965 0.83196 0.62765 0.0
H5269 H 0.30356 0.82389 0.61359 0.0
H5270 H 0.30624 0.79703 0.62789 0.0
H5271 H 0.31232 0.80506 0.642 0.0
H5272 H 0.31253 0.79601 0.61013 0.0
H5273 H 0.28463 0.80755 0.62512 0.0
H5274 H 0.27444 0.81955 0.63218 0.0
H5275 H 0.27406 0.83493 0.60587 0.0
H5276 H 0.28436 0.82308 0.59868 0.0
H5277 H 0.28328 0.76749 0.58087 0.0
H5278 H 0.29003 0.77646 0.59401 0.0
H5279 H 0.28752 0.80222 0.57777 0.0
H5280 H 0.28083 0.79324 0.56446 0.0
H5281 H 0.28148 0.80435 0.59594 0.0
H5282 H 0.30896 0.79229 0.58081 0.0
H5283 H 0.31896 0.78007 0.57385 0.0
H5284 H 0.31998 0.76545 0.60058 0.0
H5285 H 0.30987 0.77752 0.60767 0.0
C5286 C 0.30888 0.82434 0.62784 0.0
C5287 C 0.31144 0.81917 0.636 0.0
C5288 C 0.3054 0.81973 0.61978 0.0
C5289 C 0.30432 0.80985 0.6197 0.0
C5290 C 0.30702 0.80466 0.62777 0.0
C5291 C 0.31052 0.80926 0.63583 0.0
C5292 C 0.30039 0.80492 0.61123 0.0
C5293 C 0.30569 0.79776 0.6071 0.0
C5294 C 0.29156 0.80736 0.6071 0.0
C5295 C 0.28535 0.81448 0.6114 0.0
C5296 C 0.28244 0.81353 0.62086 0.0
C5297 C 0.27663 0.8203 0.62488 0.0
C5298 C 0.27363 0.82801 0.61948 0.0
C5299 C 0.2764 0.82896 0.61005 0.0
C5300 C 0.28222 0.82222 0.60599 0.0
C5301 C 0.28429 0.77504 0.58 0.0
C5302 C 0.28161 0.77961 0.57153 0.0
C5303 C 0.28812 0.78017 0.58756 0.0
C5304 C 0.28941 0.79 0.58684 0.0
C5305 C 0.28661 0.79463 0.57847 0.0
C5306 C 0.28277 0.78949 0.57088 0.0
C5307 C 0.29361 0.79539 0.5949 0.0
C5308 C 0.28835 0.80264 0.59894 0.0
C5309 C 0.30246 0.79301 0.59897 0.0
C5310 C 0.30859 0.78577 0.59475 0.0
C5311 C 0.31126 0.78643 0.58519 0.0
C5312 C 0.31695 0.77954 0.58122 0.0
C5313 C 0.32008 0.77197 0.58677 0.0
C5314 C 0.31754 0.77131 0.59629 0.0
C5315 C 0.31184 0.77818 0.60029 0.0
H5316 H 0.32449 0.76664 0.58368 0.0
H5317 H 0.26913 0.83324 0.62261 0.0
H5318 H 0.70855 0.80381 0.63983 0.0
H5319 H 0.71493 0.79598 0.62594 0.0
H5320 H 0.72162 0.82312 0.61336 0.0
H5321 H 0.71496 0.83099 0.62707 0.0
H5322 H 0.71427 0.8114 0.60038 0.0
H5323 H 0.73873 0.80985 0.62413 0.0
H5324 H 0.74556 0.80606 0.63979 0.0
H5325 H 0.739 0.77666 0.63565 0.0
H5326 H 0.73201 0.78029 0.62001 0.0
H5327 H 0.74784 0.79672 0.56615 0.0
H5328 H 0.73972 0.8041 0.57937 0.0
H5329 H 0.73295 0.77658 0.59103 0.0
H5330 H 0.74125 0.76917 0.57798 0.0
H5331 H 0.73996 0.78819 0.60442 0.0
H5332 H 0.71595 0.78977 0.58033 0.0
H5333 H 0.70933 0.79368 0.56461 0.0
H5334 H 0.71526 0.82312 0.56929 0.0
H5335 H 0.72205 0.81938 0.58499 0.0
C5336 C 0.71126 0.80812 0.63406 0.0
C5337 C 0.71129 0.81804 0.63461 0.0
C5338 C 0.715 0.80363 0.62616 0.0
C5339 C 0.71888 0.80895 0.61865 0.0
C5340 C 0.7187 0.81885 0.61907 0.0
C5341 C 0.71497 0.82334 0.62697 0.0
C5342 C 0.72325 0.80424 0.61041 0.0
C5343 C 0.71996 0.80641 0.60126 0.0
C5344 C 0.73055 0.79756 0.61155 0.0
C5345 C 0.73475 0.79536 0.62095 0.0
C5346 C 0.73867 0.80259 0.6266 0.0
C5347 C 0.74258 0.80047 0.63546 0.0
C5348 C 0.74269 0.79113 0.63873 0.0
C5349 C 0.7389 0.78389 0.63312 0.0
C5350 C 0.73497 0.78597 0.62425 0.0
C5351 C 0.74461 0.79224 0.57152 0.0
C5352 C 0.74517 0.78235 0.57098 0.0
C5353 C 0.7399 0.79647 0.57904 0.0
C5354 C 0.73565 0.7909 0.58616 0.0
C5355 C 0.73615 0.78103 0.5856 0.0
C5356 C 0.74082 0.7768 0.57808 0.0
C5357 C 0.73098 0.79535 0.59438 0.0
C5358 C 0.73424 0.79315 0.60354 0.0
C5359 C 0.72368 0.80201 0.59324 0.0
C5360 C 0.71959 0.80428 0.5838 0.0
C5361 C 0.71591 0.79707 0.57798 0.0
C5362 C 0.71212 0.79926 0.56908 0.0
C5363 C 0.7119 0.80864 0.56594 0.0
C5364 C 0.71545 0.81586 0.57172 0.0
C5365 C 0.71926 0.81371 0.58063 0.0
H5366 H 0.70895 0.81031 0.55905 0.0
H5367 H 0.74573 0.7895 0.64559 0.0
H5368 H 0.69524 0.81391 0.39337 0.0
H5369 H 0.70157 0.80529 0.40705 0.0
H5370 H 0.72909 0.80494 0.39396 0.0
H5371 H 0.72276 0.81333 0.38017 0.0
H5372 H 0.7245 0.78794 0.40161 0.0
H5373 H 0.7244 0.82038 0.41155 0.0
H5374 H 0.71723 0.83583 0.41454 0.0
H5375 H 0.69781 0.82281 0.43416 0.0
H5376 H 0.70478 0.80725 0.43118 0.0
H5377 H 0.7535 0.77596 0.44038 0.0
H5378 H 0.74604 0.78444 0.42731 0.0
H5379 H 0.71959 0.78436 0.44243 0.0
H5380 H 0.72713 0.77618 0.45577 0.0
H5381 H 0.72279 0.80117 0.43396 0.0
H5382 H 0.72321 0.76882 0.42451 0.0
H5383 H 0.73035 0.75336 0.42157 0.0
H5384 H 0.74898 0.76606 0.40102 0.0
H5385 H 0.74205 0.78164 0.40394 0.0
C5386 C 0.70262 0.81192 0.39337 0.0
C5387 C 0.7085 0.81435 0.38569 0.0
C5388 C 0.70625 0.80707 0.40123 0.0
C5389 C 0.71584 0.80456 0.40158 0.0
C5390 C 0.72168 0.80683 0.39386 0.0
C5391 C 0.71806 0.81169 0.38602 0.0
C5392 C 0.71982 0.79958 0.40998 0.0
C5393 C 0.72422 0.79088 0.40867 0.0
C5394 C 0.71922 0.80329 0.41924 0.0
C5395 C 0.71504 0.81264 0.42106 0.0
C5396 C 0.71855 0.8208 0.41644 0.0
C5397 C 0.71453 0.82958 0.41815 0.0
C5398 C 0.70705 0.83029 0.42452 0.0
C5399 C 0.70359 0.82224 0.42922 0.0
C5400 C 0.70758 0.81344 0.42752 0.0
C5401 C 0.74614 0.77787 0.44103 0.0
C5402 C 0.74093 0.77537 0.44916 0.0
C5403 C 0.74184 0.78263 0.43348 0.0
C5404 C 0.73221 0.7849 0.43381 0.0
C5405 C 0.72702 0.78263 0.44199 0.0
C5406 C 0.73133 0.77789 0.44958 0.0
C5407 C 0.72757 0.78957 0.42557 0.0
C5408 C 0.72303 0.7982 0.42691 0.0
C5409 C 0.72802 0.78579 0.41633 0.0
C5410 C 0.73216 0.77641 0.41451 0.0
C5411 C 0.72888 0.76833 0.41942 0.0
C5412 C 0.73288 0.75954 0.41774 0.0
C5413 C 0.74013 0.75873 0.41113 0.0
C5414 C 0.74337 0.7667 0.40615 0.0
C5415 C 0.7394 0.77551 0.4078 0.0
H5416 H 0.74322 0.75192 0.40984 0.0
H5417 H 0.70395 0.83709 0.42583 0.0
H5418 H 0.70775 0.21803 0.37846 0.0
H5419 H 0.71669 0.22381 0.39215 0.0
H5420 H 0.71115 0.19751 0.40688 0.0
H5421 H 0.70194 0.19176 0.39324 0.0
H5422 H 0.70811 0.2124 0.41818 0.0
H5423 H 0.7331 0.20251 0.39826 0.0
H5424 H 0.74223 0.20132 0.38351 0.0
H5425 H 0.74741 0.23129 0.38358 0.0
H5426 H 0.73819 0.23268 0.39826 0.0
H5427 H 0.73994 0.22637 0.45568 0.0
H5428 H 0.73268 0.21737 0.44264 0.0
H5429 H 0.73538 0.24178 0.42434 0.0
H5430 H 0.74276 0.2507 0.43721 0.0
H5431 H 0.74066 0.2259 0.41541 0.0
H5432 H 0.71432 0.23585 0.43438 0.0
H5433 H 0.70508 0.23709 0.44905 0.0
H5434 H 0.70252 0.20687 0.45074 0.0
H5435 H 0.71186 0.20544 0.43613 0.0
C5436 C 0.7084 0.21348 0.38461 0.0
C5437 C 0.7041 0.20444 0.38475 0.0
C5438 C 0.7136 0.21676 0.39241 0.0
C5439 C 0.71469 0.21106 0.40052 0.0
C5440 C 0.71044 0.20202 0.40068 0.0
C5441 C 0.70524 0.19871 0.39286 0.0
C5442 C 0.71998 0.21474 0.4089 0.0
C5443 C 0.7153 0.21518 0.41762 0.0
C5444 C 0.72931 0.21851 0.40815 0.0
C5445 C 0.73488 0.21771 0.39933 0.0
C5446 C 0.73612 0.20886 0.39509 0.0
C5447 C 0.74132 0.20815 0.38675 0.0
C5448 C 0.74538 0.21623 0.3826 0.0
C5449 C 0.74425 0.22504 0.3868 0.0
C5450 C 0.73905 0.22579 0.39514 0.0
C5451 C 0.73903 0.22978 0.44886 0.0
C5452 C 0.74184 0.23928 0.44751 0.0
C5453 C 0.73484 0.22466 0.44143 0.0
C5454 C 0.73341 0.22893 0.43252 0.0
C5455 C 0.73639 0.23834 0.43114 0.0
C5456 C 0.74052 0.24346 0.43854 0.0
C5457 C 0.72872 0.22372 0.42463 0.0
C5458 C 0.73352 0.223 0.416 0.0
C5459 C 0.7195 0.21969 0.42546 0.0
C5460 C 0.71389 0.22054 0.43423 0.0
C5461 C 0.71186 0.22947 0.43792 0.0
C5462 C 0.70659 0.23021 0.44622 0.0
C5463 C 0.70324 0.22206 0.45084 0.0
C5464 C 0.70513 0.21317 0.44716 0.0
C5465 C 0.71041 0.21239 0.43888 0.0
H5466 H 0.69916 0.22265 0.45726 0.0
H5467 H 0.74941 0.21566 0.37614 0.0
H5468 H 0.33505 0.20841 0.3933 0.0
H5469 H 0.32677 0.21423 0.40712 0.0
H5470 H 0.30276 0.19613 0.4006 0.0
H5471 H 0.31109 0.19007 0.38684 0.0
H5472 H 0.29755 0.2143 0.40483 0.0
H5473 H 0.31715 0.1904 0.41856 0.0
H5474 H 0.33211 0.18217 0.42174 0.0
H5475 H 0.34389 0.20723 0.43445 0.0
H5476 H 0.32904 0.21565 0.43122 0.0
H5477 H 0.27353 0.22347 0.44743 0.0
H5478 H 0.28146 0.2152 0.43474 0.0
H5479 H 0.30763 0.22993 0.44145 0.0
H5480 H 0.2999 0.2378 0.45454 0.0
H5481 H 0.31135 0.21253 0.43718 0.0
H5482 H 0.29257 0.2368 0.42274 0.0
H5483 H 0.27795 0.24553 0.41928 0.0
H5484 H 0.26505 0.22048 0.40763 0.0
H5485 H 0.27955 0.21157 0.41114 0.0
C5486 C 0.32807 0.20553 0.39486 0.0
C5487 C 0.32378 0.1987 0.38895 0.0
C5488 C 0.32332 0.20891 0.40276 0.0
C5489 C 0.31418 0.20555 0.40496 0.0
C5490 C 0.30982 0.19882 0.39904 0.0
C5491 C 0.31458 0.1954 0.39115 0.0
C5492 C 0.30913 0.20921 0.41334 0.0
C5493 C 0.30048 0.21378 0.41193 0.0
C5494 C 0.31308 0.20874 0.42257 0.0
C5495 C 0.322 0.20368 0.42457 0.0
C5496 C 0.32295 0.19418 0.42196 0.0
C5497 C 0.33141 0.18948 0.42379 0.0
C5498 C 0.33896 0.19418 0.42827 0.0
C5499 C 0.33805 0.2036 0.43096 0.0
C5500 C 0.3296 0.20833 0.42915 0.0
C5501 C 0.28102 0.22482 0.44636 0.0
C5502 C 0.28603 0.23138 0.45202 0.0
C5503 C 0.28552 0.22017 0.43899 0.0
C5504 C 0.29511 0.22208 0.43697 0.0
C5505 C 0.30021 0.22838 0.4428 0.0
C5506 C 0.29574 0.23295 0.45024 0.0
C5507 C 0.29977 0.21771 0.42869 0.0
C5508 C 0.30837 0.21301 0.4301 0.0
C5509 C 0.29582 0.21814 0.41944 0.0
C5510 C 0.28711 0.2235 0.4173 0.0
C5511 C 0.28659 0.23314 0.41951 0.0
C5512 C 0.27833 0.23812 0.41753 0.0
C5513 C 0.27057 0.23356 0.41326 0.0
C5514 C 0.27106 0.224 0.41095 0.0
C5515 C 0.2793 0.21898 0.41292 0.0
H5516 H 0.26418 0.23743 0.41174 0.0
H5517 H 0.3455 0.19053 0.42968 0.0
H5518 H 0.31243 0.83037 0.39041 0.0
H5519 H 0.30596 0.82257 0.40447 0.0
H5520 H 0.30996 0.79539 0.39168 0.0
H5521 H 0.31617 0.80317 0.37742 0.0
H5522 H 0.29285 0.79622 0.39968 0.0
H5523 H 0.32465 0.80324 0.40945 0.0
H5524 H 0.33892 0.8132 0.41202 0.0
H5525 H 0.32343 0.83087 0.43077 0.0
H5526 H 0.30901 0.8211 0.42822 0.0
H5527 H 0.28277 0.77053 0.44194 0.0
H5528 H 0.29156 0.77707 0.42844 0.0
H5529 H 0.28696 0.80526 0.43856 0.0
H5530 H 0.27827 0.79877 0.45215 0.0
H5531 H 0.30513 0.80307 0.43194 0.0
H5532 H 0.2732 0.79662 0.42138 0.0
H5533 H 0.25887 0.78674 0.4188 0.0
H5534 H 0.27473 0.76795 0.40152 0.0
H5535 H 0.2892 0.77766 0.4041 0.0
C5536 C 0.31189 0.82273 0.39055 0.0
C5537 C 0.31481 0.81741 0.38275 0.0
C5538 C 0.30828 0.81827 0.39865 0.0
C5539 C 0.30757 0.80838 0.3992 0.0
C5540 C 0.31048 0.80303 0.39144 0.0
C5541 C 0.3141 0.80749 0.38332 0.0
C5542 C 0.30355 0.80367 0.40778 0.0
C5543 C 0.29565 0.79759 0.40671 0.0
C5544 C 0.30706 0.8056 0.417 0.0
C5545 C 0.31572 0.81148 0.41858 0.0
C5546 C 0.32426 0.80929 0.41407 0.0
C5547 C 0.33238 0.8149 0.41553 0.0
C5548 C 0.33208 0.82268 0.42154 0.0
C5549 C 0.32365 0.82485 0.42611 0.0
C5550 C 0.3155 0.81927 0.42467 0.0
C5551 C 0.28378 0.77812 0.44139 0.0
C5552 C 0.2798 0.78414 0.44811 0.0
C5553 C 0.28873 0.78185 0.43362 0.0
C5554 C 0.28982 0.79166 0.43243 0.0
C5555 C 0.28618 0.79767 0.43932 0.0
C5556 C 0.28118 0.79395 0.44705 0.0
C5557 C 0.29442 0.79569 0.42383 0.0
C5558 C 0.3024 0.80165 0.42489 0.0
C5559 C 0.29099 0.79365 0.41461 0.0
C5560 C 0.28231 0.78781 0.41302 0.0
C5561 C 0.27365 0.79034 0.41709 0.0
C5562 C 0.2655 0.78478 0.41562 0.0
C5563 C 0.2659 0.77671 0.41002 0.0
C5564 C 0.27444 0.7742 0.40586 0.0
C5565 C 0.28262 0.77973 0.40733 0.0
H5566 H 0.25958 0.77243 0.40887 0.0
H5567 H 0.33837 0.82701 0.42266 0.0
H5568 H 0.63164 0.19323 0.70001 0.0
H5569 H 0.61755 0.19937 0.70774 0.0
H5570 H 0.6308 0.22701 0.70899 0.0
H5571 H 0.64498 0.22088 0.70154 0.0
H5572 H 0.622 0.22279 0.7253 0.0
H5573 H 0.6142 0.22156 0.69204 0.0
H5574 H 0.61211 0.21386 0.67655 0.0
H5575 H 0.59149 0.19465 0.68848 0.0
H5576 H 0.59354 0.20216 0.70408 0.0
H5577 H 0.5838 0.25324 0.73113 0.0
H5578 H 0.59719 0.24462 0.72498 0.0
H5579 H 0.58061 0.21877 0.72569 0.0
H5580 H 0.56698 0.22745 0.73161 0.0
H5581 H 0.59062 0.22053 0.70931 0.0
H5582 H 0.59748 0.22281 0.74235 0.0
H5583 H 0.59949 0.23078 0.7577 0.0
H5584 H 0.62188 0.24818 0.74617 0.0
H5585 H 0.61991 0.2404 0.73071 0.0
C5586 C 0.6316 0.20059 0.70204 0.0
C5587 C 0.63943 0.20657 0.7001 0.0
C5588 C 0.6235 0.20411 0.70638 0.0
C5589 C 0.62306 0.21369 0.70884 0.0
C5590 C 0.63095 0.21961 0.70713 0.0
C5591 C 0.63903 0.21611 0.70278 0.0
C5592 C 0.61436 0.21763 0.71309 0.0
C5593 C 0.61515 0.22236 0.72176 0.0
C5594 C 0.60536 0.21685 0.70862 0.0
C5595 C 0.6041 0.21235 0.69925 0.0
C5596 C 0.60927 0.21564 0.69138 0.0
C5597 C 0.60809 0.21132 0.68257 0.0
C5598 C 0.60169 0.20375 0.68154 0.0
C5599 C 0.59645 0.2005 0.6893 0.0
C5600 C 0.59762 0.20479 0.69812 0.0
C5601 C 0.58293 0.24574 0.72988 0.0
C5602 C 0.57427 0.24106 0.73182 0.0
C5603 C 0.59065 0.2408 0.72646 0.0
C5604 C 0.58996 0.23102 0.72499 0.0
C5605 C 0.58132 0.2263 0.72682 0.0
C5606 C 0.57355 0.23126 0.73026 0.0
C5607 C 0.59829 0.22583 0.72144 0.0
C5608 C 0.59744 0.22087 0.71291 0.0
C5609 C 0.60724 0.2264 0.72603 0.0
C5610 C 0.6085 0.23106 0.73534 0.0
C5611 C 0.60279 0.22838 0.74307 0.0
C5612 C 0.60393 0.23286 0.75179 0.0
C5613 C 0.6108 0.23999 0.7529 0.0
C5614 C 0.61656 0.24265 0.7453 0.0
C5615 C 0.61544 0.2382 0.73655 0.0
H5616 H 0.61167 0.24346 0.75967 0.0
H5617 H 0.60078 0.20042 0.67472 0.0
H5618 H 0.30699 0.13162 0.70685 0.0
H5619 H 0.29888 0.11767 0.71341 0.0
H5620 H 0.32542 0.10777 0.72474 0.0
H5621 H 0.33363 0.12149 0.7179 0.0
H5622 H 0.3155 0.0935 0.7172 0.0
H5623 H 0.30909 0.11879 0.73873 0.0
H5624 H 0.3034 0.13448 0.74327 0.0
H5625 H 0.27544 0.12709 0.73332 0.0
H5626 H 0.281 0.11139 0.7286 0.0
H5627 H 0.29966 0.06162 0.75297 0.0
H5628 H 0.30673 0.07457 0.74375 0.0
H5629 H 0.27905 0.08201 0.73321 0.0
H5630 H 0.2719 0.0692 0.74263 0.0
H5631 H 0.28871 0.09733 0.73933 0.0
H5632 H 0.29498 0.07153 0.71884 0.0
H5633 H 0.30074 0.0558 0.71456 0.0
H5634 H 0.32903 0.06407 0.72276 0.0
H5635 H 0.32341 0.07982 0.72722 0.0
C5636 C 0.31113 0.12642 0.71064 0.0
C5637 C 0.32097 0.12772 0.71189 0.0
C5638 C 0.30646 0.11848 0.71447 0.0
C5639 C 0.31151 0.11172 0.71969 0.0
C5640 C 0.32135 0.1129 0.72078 0.0
C5641 C 0.32603 0.12081 0.71694 0.0
C5642 C 0.30657 0.10347 0.72415 0.0
C5643 C 0.3097 0.09435 0.72211 0.0
C5644 C 0.29884 0.10453 0.73037 0.0
C5645 C 0.29548 0.11396 0.73322 0.0
C5646 C 0.30175 0.12054 0.73744 0.0
C5647 C 0.29854 0.12943 0.74006 0.0
C5648 C 0.28907 0.13179 0.73856 0.0
C5649 C 0.28278 0.12526 0.73446 0.0
C5650 C 0.28595 0.11636 0.73182 0.0
C5651 C 0.29508 0.06599 0.74867 0.0
C5652 C 0.28521 0.06437 0.74854 0.0
C5653 C 0.29913 0.07335 0.74334 0.0
C5654 C 0.29343 0.07923 0.73772 0.0
C5655 C 0.28359 0.07755 0.73747 0.0
C5656 C 0.27953 0.07017 0.74279 0.0
C5657 C 0.2977 0.08737 0.73247 0.0
C5658 C 0.29446 0.09648 0.73436 0.0
C5659 C 0.30534 0.08629 0.72614 0.0
C5660 C 0.30875 0.07683 0.72344 0.0
C5661 C 0.30241 0.06997 0.7198 0.0
C5662 C 0.30566 0.06106 0.71733 0.0
C5663 C 0.31524 0.05893 0.71841 0.0
C5664 C 0.3216 0.06572 0.72194 0.0
C5665 C 0.31839 0.07465 0.72443 0.0
H5666 H 0.31774 0.05202 0.71649 0.0
H5667 H 0.28661 0.13868 0.74059 0.0
H5668 H 0.38823 0.82262 0.70587 0.0
H5669 H 0.40225 0.81657 0.71401 0.0
H5670 H 0.39414 0.78817 0.70615 0.0
H5671 H 0.37993 0.79413 0.69831 0.0
H5672 H 0.40023 0.7885 0.72401 0.0
H5673 H 0.41165 0.80058 0.69429 0.0
H5674 H 0.41402 0.81254 0.6817 0.0
H5675 H 0.42874 0.83065 0.70133 0.0
H5676 H 0.42634 0.81885 0.71408 0.0
H5677 H 0.44406 0.76643 0.73305 0.0
H5678 H 0.43031 0.77286 0.72473 0.0
H5679 H 0.43809 0.80084 0.73419 0.0
H5680 H 0.45197 0.79447 0.74238 0.0
H5681 H 0.43224 0.80086 0.71568 0.0
H5682 H 0.42095 0.78856 0.74536 0.0
H5683 H 0.41871 0.77645 0.75781 0.0
H5684 H 0.40381 0.75856 0.73811 0.0
H5685 H 0.40608 0.77052 0.72549 0.0
C5686 C 0.38936 0.81508 0.70596 0.0
C5687 C 0.38296 0.80888 0.70137 0.0
C5688 C 0.39744 0.81163 0.71055 0.0
C5689 C 0.39934 0.80192 0.71058 0.0
C5690 C 0.39287 0.7957 0.70618 0.0
C5691 C 0.38478 0.79913 0.70162 0.0
C5692 C 0.4081 0.79823 0.71515 0.0
C5693 C 0.40723 0.79112 0.7221 0.0
C5694 C 0.41725 0.80178 0.71281 0.0
C5695 C 0.41873 0.80887 0.70516 0.0
C5696 C 0.41533 0.80714 0.69594 0.0
C5697 C 0.41669 0.81389 0.68878 0.0
C5698 C 0.42151 0.82236 0.69072 0.0
C5699 C 0.425 0.82409 0.69984 0.0
C5700 C 0.42365 0.81738 0.70703 0.0
C5701 C 0.44295 0.77397 0.73323 0.0
C5702 C 0.44911 0.77993 0.73841 0.0
C5703 C 0.43503 0.77763 0.72855 0.0
C5704 C 0.43309 0.78731 0.72895 0.0
C5705 C 0.43941 0.79333 0.73382 0.0
C5706 C 0.44731 0.78968 0.73854 0.0
C5707 C 0.42435 0.79112 0.7245 0.0
C5708 C 0.42523 0.79825 0.71758 0.0
C5709 C 0.41521 0.78758 0.72685 0.0
C5710 C 0.41377 0.7804 0.73445 0.0
C5711 C 0.41726 0.78202 0.74366 0.0
C5712 C 0.41597 0.77518 0.75075 0.0
C5713 C 0.41115 0.76673 0.74875 0.0
C5714 C 0.40756 0.76511 0.73965 0.0
C5715 C 0.40884 0.77192 0.73252 0.0
H5716 H 0.41016 0.76144 0.75425 0.0
H5717 H 0.42256 0.82757 0.68517 0.0
H5718 H 0.69976 0.87738 0.72221 0.0
H5719 H 0.70772 0.89162 0.72813 0.0
H5720 H 0.71373 0.90052 0.6995 0.0
H5721 H 0.70569 0.8863 0.6935 0.0
H5722 H 0.72902 0.90299 0.71091 0.0
H5723 H 0.69605 0.91065 0.71192 0.0
H5724 H 0.67926 0.90817 0.71616 0.0
H5725 H 0.68669 0.90859 0.74568 0.0
H5726 H 0.70355 0.91094 0.74161 0.0
H5727 H 0.74369 0.94962 0.7221 0.0
H5728 H 0.73463 0.93628 0.71557 0.0
H5729 H 0.72751 0.92694 0.74381 0.0
H5730 H 0.73653 0.94028 0.75039 0.0
H5731 H 0.71255 0.92493 0.73224 0.0
H5732 H 0.74541 0.91673 0.73142 0.0
H5733 H 0.76229 0.91897 0.7274 0.0
H5734 H 0.75518 0.91928 0.6978 0.0
H5735 H 0.73823 0.91718 0.70165 0.0
C5736 C 0.70269 0.8824 0.71715 0.0
C5737 C 0.70202 0.88071 0.70737 0.0
C5738 C 0.70726 0.89054 0.72056 0.0
C5739 C 0.71121 0.89721 0.71426 0.0
C5740 C 0.71072 0.89547 0.70449 0.0
C5741 C 0.70615 0.88732 0.70108 0.0
C5742 C 0.7159 0.90597 0.71787 0.0
C5743 C 0.72538 0.90786 0.71545 0.0
C5744 C 0.71122 0.91223 0.72399 0.0
C5745 C 0.70107 0.91088 0.72646 0.0
C5746 C 0.69411 0.91014 0.71931 0.0
C5747 C 0.68458 0.90878 0.72168 0.0
C5748 C 0.68191 0.9082 0.73118 0.0
C5749 C 0.68877 0.90903 0.73833 0.0
C5750 C 0.69831 0.91038 0.73599 0.0
C5751 C 0.74016 0.94474 0.72692 0.0
C5752 C 0.74088 0.94599 0.73677 0.0
C5753 C 0.73499 0.93711 0.72318 0.0
C5754 C 0.73052 0.9305 0.7292 0.0
C5755 C 0.73091 0.93193 0.73902 0.0
C5756 C 0.73604 0.93959 0.74277 0.0
C5757 C 0.72569 0.92194 0.72528 0.0
C5758 C 0.71619 0.92008 0.72766 0.0
C5759 C 0.73036 0.91569 0.71916 0.0
C5760 C 0.74055 0.9169 0.71682 0.0
C5761 C 0.74744 0.91735 0.72405 0.0
C5762 C 0.75702 0.91858 0.72181 0.0
C5763 C 0.7598 0.91929 0.71236 0.0
C5764 C 0.75301 0.91875 0.70512 0.0
C5765 C 0.74342 0.91753 0.70733 0.0
H5766 H 0.76722 0.92025 0.71063 0.0
H5767 H 0.67453 0.90714 0.733 0.0
H5768 H 0.63345 0.79292 0.33049 0.0
H5769 H 0.61971 0.78678 0.32175 0.0
H5770 H 0.62007 0.81158 0.30385 0.0
H5771 H 0.634 0.81768 0.31236 0.0
H5772 H 0.60184 0.80644 0.3102 0.0
H5773 H 0.6285 0.79193 0.29541 0.0
H5774 H 0.64323 0.78282 0.29512 0.0
H5775 H 0.62858 0.7588 0.30712 0.0
H5776 H 0.61378 0.76782 0.3076 0.0
H5777 H 0.57087 0.78932 0.27405 0.0
H5778 H 0.58394 0.79609 0.28329 0.0
H5779 H 0.58699 0.76962 0.29825 0.0
H5780 H 0.57435 0.76262 0.28863 0.0
H5781 H 0.60355 0.77583 0.2935 0.0
H5782 H 0.57696 0.78985 0.30847 0.0
H5783 H 0.56213 0.79876 0.30933 0.0
H5784 H 0.57627 0.82332 0.29783 0.0
H5785 H 0.59117 0.81452 0.29678 0.0
C5786 C 0.6307 0.79704 0.32463 0.0
C5787 C 0.63491 0.80578 0.32211 0.0
C5788 C 0.6228 0.79353 0.31967 0.0
C5789 C 0.61891 0.79869 0.31211 0.0
C5790 C 0.62294 0.8075 0.30969 0.0
C5791 C 0.63089 0.81099 0.31459 0.0
C5792 C 0.61073 0.79481 0.30664 0.0
C5793 C 0.60222 0.79981 0.30644 0.0
C5794 C 0.61118 0.78603 0.30196 0.0
C5795 C 0.62006 0.78058 0.30163 0.0
C5796 C 0.62844 0.78473 0.29806 0.0
C5797 C 0.6368 0.77958 0.29785 0.0
C5798 C 0.63685 0.77024 0.30112 0.0
C5799 C 0.62853 0.76603 0.30459 0.0
C5800 C 0.62015 0.77116 0.30483 0.0
C5801 C 0.57434 0.78491 0.27927 0.0
C5802 C 0.57151 0.7754 0.28056 0.0
C5803 C 0.58175 0.78884 0.28465 0.0
C5804 C 0.58641 0.78341 0.29157 0.0
C5805 C 0.58351 0.77397 0.29298 0.0
C5806 C 0.57617 0.77001 0.28753 0.0
C5807 C 0.59456 0.78742 0.29708 0.0
C5808 C 0.6031 0.78245 0.29727 0.0
C5809 C 0.5941 0.79618 0.30183 0.0
C5810 C 0.58516 0.80149 0.30246 0.0
C5811 C 0.57689 0.79713 0.30606 0.0
C5812 C 0.56848 0.80216 0.30659 0.0
C5813 C 0.56825 0.81159 0.30361 0.0
C5814 C 0.57645 0.81601 0.30012 0.0
C5815 C 0.58489 0.81101 0.29956 0.0
H5816 H 0.56173 0.81548 0.30404 0.0
H5817 H 0.64333 0.76627 0.30095 0.0
H5818 H 0.7193 0.1372 0.31854 0.0
H5819 H 0.72435 0.12328 0.31 0.0
H5820 H 0.69538 0.11314 0.30854 0.0
H5821 H 0.69029 0.12698 0.31738 0.0
H5822 H 0.7071 0.09912 0.31354 0.0
H5823 H 0.70618 0.12227 0.28893 0.0
H5824 H 0.70944 0.13762 0.28115 0.0
H5825 H 0.73934 0.1326 0.28261 0.0
H5826 H 0.73628 0.11727 0.29053 0.0
H5827 H 0.72118 0.06215 0.28217 0.0
H5828 H 0.7131 0.07582 0.28871 0.0
H5829 H 0.74007 0.09012 0.29258 0.0
H5830 H 0.74812 0.07669 0.28583 0.0
H5831 H 0.72738 0.10183 0.28508 0.0
H5832 H 0.72817 0.07946 0.31115 0.0
H5833 H 0.72488 0.06415 0.31901 0.0
H5834 H 0.69501 0.06777 0.31462 0.0
H5835 H 0.69814 0.08306 0.30662 0.0
C5836 C 0.71399 0.132 0.31645 0.0
C5837 C 0.70439 0.13321 0.31868 0.0
C5838 C 0.71688 0.12408 0.31147 0.0
C5839 C 0.71023 0.1172 0.30852 0.0
C5840 C 0.70063 0.11837 0.31071 0.0
C5841 C 0.69772 0.12632 0.3157 0.0
C5842 C 0.71342 0.10869 0.30337 0.0
C5843 C 0.71138 0.09971 0.30721 0.0
C5844 C 0.71912 0.10943 0.29518 0.0
C5845 C 0.721 0.11864 0.29039 0.0
C5846 C 0.71346 0.12446 0.28766 0.0
C5847 C 0.71527 0.13316 0.28321 0.0
C5848 C 0.72459 0.13609 0.2814 0.0
C5849 C 0.73212 0.13032 0.28402 0.0
C5850 C 0.73035 0.12162 0.28848 0.0
C5851 C 0.72538 0.06823 0.28437 0.0
C5852 C 0.73532 0.06827 0.28355 0.0
C5853 C 0.72075 0.07601 0.28817 0.0
C5854 C 0.72598 0.08398 0.29123 0.0
C5855 C 0.73587 0.08406 0.29031 0.0
C5856 C 0.74048 0.07631 0.28653 0.0
C5857 C 0.72125 0.09229 0.29538 0.0
C5858 C 0.723 0.10125 0.29134 0.0
C5859 C 0.71528 0.09152 0.30337 0.0
C5860 C 0.7134 0.08234 0.30819 0.0
C5861 C 0.72091 0.07695 0.31179 0.0
C5862 C 0.71907 0.06829 0.31628 0.0
C5863 C 0.70974 0.06497 0.31728 0.0
C5864 C 0.70223 0.07034 0.31382 0.0
C5865 C 0.70403 0.079 0.30931 0.0
H5866 H 0.70833 0.05826 0.32076 0.0
H5867 H 0.72598 0.14282 0.27796 0.0
H5868 H 0.39879 0.18517 0.31763 0.0
H5869 H 0.41202 0.19479 0.31161 0.0
H5870 H 0.39415 0.2192 0.31075 0.0
H5871 H 0.38082 0.20957 0.31654 0.0
H5872 H 0.40408 0.21768 0.29465 0.0
H5873 H 0.41097 0.21665 0.32795 0.0
H5874 H 0.41379 0.20906 0.34346 0.0
H5875 H 0.43766 0.1946 0.33219 0.0
H5876 H 0.43491 0.20201 0.31657 0.0
H5877 H 0.4386 0.25375 0.28888 0.0
H5878 H 0.42617 0.24336 0.29518 0.0
H5879 H 0.44532 0.21994 0.29485 0.0
H5880 H 0.45794 0.23041 0.28876 0.0
H5881 H 0.43511 0.22036 0.31125 0.0
H5882 H 0.42843 0.22179 0.27803 0.0
H5883 H 0.42565 0.22955 0.2626 0.0
H5884 H 0.40132 0.24334 0.27378 0.0
H5885 H 0.40404 0.23577 0.28933 0.0
C5886 C 0.39766 0.19258 0.31613 0.0
C5887 C 0.38873 0.19659 0.31757 0.0
C5888 C 0.40526 0.19809 0.31276 0.0
C5889 C 0.40411 0.20774 0.31079 0.0
C5890 C 0.39522 0.21178 0.31224 0.0
C5891 C 0.38762 0.20628 0.31563 0.0
C5892 C 0.4121 0.21359 0.307 0.0
C5893 C 0.41082 0.21836 0.29835 0.0
C5894 C 0.421 0.21427 0.31167 0.0
C5895 C 0.42267 0.2098 0.32106 0.0
C5896 C 0.41677 0.21179 0.32875 0.0
C5897 C 0.41837 0.20753 0.33757 0.0
C5898 C 0.42588 0.20133 0.3388 0.0
C5899 C 0.43183 0.19939 0.33122 0.0
C5900 C 0.43026 0.20362 0.32239 0.0
C5901 C 0.44023 0.24641 0.29024 0.0
C5902 C 0.44929 0.24293 0.28834 0.0
C5903 C 0.43307 0.24045 0.29376 0.0
C5904 C 0.43477 0.23084 0.29539 0.0
C5905 C 0.44384 0.22733 0.29361 0.0
C5906 C 0.45102 0.2333 0.29007 0.0
C5907 C 0.42704 0.22451 0.29896 0.0
C5908 C 0.42838 0.21965 0.30755 0.0
C5909 C 0.41818 0.22375 0.29423 0.0
C5910 C 0.41649 0.22827 0.28487 0.0
C5911 C 0.42253 0.22654 0.27722 0.0
C5912 C 0.42096 0.23089 0.26845 0.0
C5913 C 0.41333 0.23695 0.26721 0.0
C5914 C 0.40724 0.23865 0.27475 0.0
C5915 C 0.40879 0.23432 0.28354 0.0
H5916 H 0.41212 0.24031 0.26041 0.0
H5917 H 0.42711 0.19804 0.34564 0.0
H5918 H 0.31178 0.87571 0.31154 0.0
H5919 H 0.30413 0.88981 0.30519 0.0
H5920 H 0.33153 0.90294 0.30056 0.0
H5921 H 0.33922 0.889 0.30719 0.0
H5922 H 0.31938 0.91541 0.30762 0.0
H5923 H 0.31902 0.89286 0.28237 0.0
H5924 H 0.31559 0.87751 0.27485 0.0
H5925 H 0.28583 0.88097 0.27962 0.0
H5926 H 0.2891 0.89629 0.28729 0.0
H5927 H 0.3061 0.95094 0.27427 0.0
H5928 H 0.31311 0.93758 0.28268 0.0
H5929 H 0.2853 0.92508 0.28652 0.0
H5930 H 0.27827 0.93823 0.27784 0.0
H5931 H 0.29729 0.9123 0.28031 0.0
H5932 H 0.29764 0.93524 0.30506 0.0
H5933 H 0.30116 0.95064 0.31242 0.0
H5934 H 0.33096 0.94657 0.30848 0.0
H5935 H 0.32761 0.93119 0.30097 0.0
C5936 C 0.31618 0.88164 0.30929 0.0
C5937 C 0.32613 0.88119 0.30983 0.0
C5938 C 0.3118 0.88967 0.30558 0.0
C5939 C 0.31725 0.89739 0.30227 0.0
C5940 C 0.32717 0.89706 0.30302 0.0
C5941 C 0.33156 0.88904 0.30674 0.0
C5942 C 0.31266 0.90575 0.29787 0.0
C5943 C 0.31462 0.91475 0.30159 0.0
C5944 C 0.30629 0.90488 0.29012 0.0
C5945 C 0.30431 0.89567 0.2855 0.0
C5946 C 0.31175 0.89031 0.28189 0.0
C5947 C 0.30984 0.88163 0.27758 0.0
C5948 C 0.3005 0.87826 0.27678 0.0
C5949 C 0.29306 0.88358 0.28026 0.0
C5950 C 0.29494 0.89227 0.28458 0.0
C5951 C 0.30147 0.94536 0.27692 0.0
C5952 C 0.29161 0.94569 0.27538 0.0
C5953 C 0.30548 0.93775 0.2818 0.0
C5954 C 0.29973 0.93034 0.28531 0.0
C5955 C 0.28988 0.93072 0.2839 0.0
C5956 C 0.28586 0.93831 0.27902 0.0
C5957 C 0.304 0.92199 0.29006 0.0
C5958 C 0.30199 0.91298 0.28639 0.0
C5959 C 0.31033 0.92286 0.29784 0.0
C5960 C 0.31237 0.9321 0.30237 0.0
C5961 C 0.30494 0.93766 0.30569 0.0
C5962 C 0.30691 0.94638 0.3099 0.0
C5963 C 0.31628 0.9496 0.3109 0.0
C5964 C 0.3237 0.94408 0.3077 0.0
C5965 C 0.32178 0.93535 0.30347 0.0
H5966 H 0.31778 0.95635 0.31416 0.0
H5967 H 0.29903 0.87153 0.27344 0.0
H5968 H 0.70459 0.12769 0.69535 0.0
H5969 H 0.71277 0.11367 0.70119 0.0
H5970 H 0.71195 0.1245 0.72961 0.0
H5971 H 0.70404 0.13865 0.72379 0.0
H5972 H 0.72896 0.11731 0.72595 0.0
H5973 H 0.6965 0.1071 0.72228 0.0
H5974 H 0.6814 0.10461 0.71369 0.0
H5975 H 0.69533 0.08706 0.69362 0.0
H5976 H 0.71055 0.08954 0.70202 0.0
H5977 H 0.7399 0.07582 0.75137 0.0
H5978 H 0.73137 0.08932 0.74498 0.0
H5979 H 0.73295 0.07768 0.71694 0.0
H5980 H 0.74122 0.06394 0.72333 0.0
H5981 H 0.71575 0.08519 0.72 0.0
H5982 H 0.74816 0.09519 0.72383 0.0
H5983 H 0.76325 0.09764 0.73246 0.0
H5984 H 0.74941 0.11562 0.75221 0.0
H5985 H 0.73421 0.11317 0.74377 0.0
C5986 C 0.70623 0.12714 0.70283 0.0
C5987 C 0.70361 0.13429 0.7091 0.0
C5988 C 0.71083 0.11907 0.70617 0.0
C5989 C 0.71287 0.11796 0.71586 0.0
C5990 C 0.71042 0.12517 0.72211 0.0
C5991 C 0.70582 0.13323 0.71878 0.0
C5992 C 0.71755 0.1093 0.71952 0.0
C5993 C 0.726 0.1103 0.72474 0.0
C5994 C 0.71383 0.10012 0.71776 0.0
C5995 C 0.70468 0.09858 0.71272 0.0
C5996 C 0.69636 0.10277 0.71599 0.0
C5997 C 0.68778 0.10135 0.71116 0.0
C5998 C 0.68741 0.0957 0.7031 0.0
C5999 C 0.69563 0.09144 0.69986 0.0
C6000 C 0.70423 0.09284 0.70466 0.0
C6001 C 0.73828 0.07601 0.74386 0.0
C6002 C 0.74128 0.06877 0.73786 0.0
C6003 C 0.7335 0.08381 0.7402 0.0
C6004 C 0.73166 0.08461 0.73045 0.0
C6005 C 0.73434 0.07725 0.72448 0.0
C6006 C 0.73913 0.06943 0.72814 0.0
C6007 C 0.72712 0.09321 0.72648 0.0
C6008 C 0.71871 0.0922 0.72119 0.0
C6009 C 0.73088 0.10239 0.72817 0.0
C6010 C 0.74003 0.10393 0.73322 0.0
C6011 C 0.74832 0.09961 0.73006 0.0
C6012 C 0.75689 0.10101 0.73491 0.0
C6013 C 0.75728 0.10677 0.74289 0.0
C6014 C 0.7491 0.11116 0.74603 0.0
C6015 C 0.7405 0.10978 0.74121 0.0
H6016 H 0.76393 0.10784 0.74664 0.0
H6017 H 0.68076 0.09461 0.69937 0.0
H6018 H 0.71032 0.87697 0.31815 0.0
H6019 H 0.7178 0.89129 0.31159 0.0
H6020 H 0.69032 0.90173 0.30358 0.0
H6021 H 0.68279 0.88752 0.31021 0.0
H6022 H 0.70265 0.90315 0.28916 0.0
H6023 H 0.70263 0.91111 0.3222 0.0
H6024 H 0.70608 0.90867 0.33917 0.0
H6025 H 0.73589 0.90814 0.33333 0.0
H6026 H 0.7326 0.91044 0.3163 0.0
H6027 H 0.71551 0.94937 0.27544 0.0
H6028 H 0.70847 0.93616 0.28432 0.0
H6029 H 0.73638 0.92689 0.29238 0.0
H6030 H 0.74346 0.94015 0.28354 0.0
H6031 H 0.72423 0.92475 0.30691 0.0
H6032 H 0.72452 0.91654 0.27411 0.0
H6033 H 0.72139 0.91872 0.25705 0.0
H6034 H 0.69146 0.91927 0.2623 0.0
H6035 H 0.69443 0.91723 0.27942 0.0
C6036 C 0.70586 0.88238 0.31513 0.0
C6037 C 0.69595 0.88106 0.31467 0.0
C6038 C 0.71015 0.89056 0.31136 0.0
C6039 C 0.70462 0.89761 0.30712 0.0
C6040 C 0.69473 0.89637 0.30678 0.0
C6041 C 0.69045 0.88821 0.31054 0.0
C6042 C 0.70912 0.90611 0.30269 0.0
C6043 C 0.70726 0.90795 0.29308 0.0
C6044 C 0.71537 0.91221 0.30772 0.0
C6045 C 0.71736 0.91085 0.31796 0.0
C6046 C 0.70991 0.91039 0.32452 0.0
C6047 C 0.71184 0.90905 0.33416 0.0
C6048 C 0.7212 0.90822 0.33732 0.0
C6049 C 0.72865 0.90876 0.33086 0.0
C6050 C 0.72676 0.9101 0.32122 0.0
C6051 C 0.72015 0.94455 0.27914 0.0
C6052 C 0.73005 0.94576 0.27871 0.0
C6053 C 0.71612 0.93699 0.28421 0.0
C6054 C 0.7219 0.93042 0.28887 0.0
C6055 C 0.73177 0.93186 0.28882 0.0
C6056 C 0.73581 0.93945 0.28379 0.0
C6057 C 0.71766 0.92185 0.29341 0.0
C6058 C 0.7196 0.91997 0.303 0.0
C6059 C 0.71152 0.91565 0.28836 0.0
C6060 C 0.7097 0.91682 0.27806 0.0
C6061 C 0.71728 0.91719 0.27163 0.0
C6062 C 0.71553 0.9184 0.26195 0.0
C6063 C 0.70623 0.91916 0.25859 0.0
C6064 C 0.69866 0.91869 0.26491 0.0
C6065 C 0.70037 0.91751 0.27461 0.0
H6066 H 0.70489 0.92009 0.25109 0.0
H6067 H 0.72268 0.90718 0.34478 0.0
H6068 H 0.62411 0.19067 0.32121 0.0
H6069 H 0.61037 0.19984 0.31618 0.0
H6070 H 0.62901 0.22222 0.30631 0.0
H6071 H 0.64277 0.21315 0.31144 0.0
H6072 H 0.61388 0.22893 0.31638 0.0
H6073 H 0.61903 0.20732 0.29078 0.0
H6074 H 0.62106 0.19163 0.28369 0.0
H6075 H 0.59346 0.18296 0.29338 0.0
H6076 H 0.59131 0.19856 0.30065 0.0
H6077 H 0.58321 0.25528 0.28722 0.0
H6078 H 0.59594 0.24574 0.29376 0.0
H6079 H 0.57587 0.22319 0.29979 0.0
H6080 H 0.56308 0.2327 0.29303 0.0
H6081 H 0.59118 0.21614 0.29255 0.0
H6082 H 0.5855 0.23774 0.31756 0.0
H6083 H 0.58331 0.25328 0.32492 0.0
H6084 H 0.61152 0.26177 0.31693 0.0
H6085 H 0.61384 0.24633 0.30941 0.0
C6086 C 0.62528 0.19758 0.31805 0.0
C6087 C 0.63454 0.20117 0.3167 0.0
C6088 C 0.61742 0.20278 0.31511 0.0
C6089 C 0.61866 0.21168 0.31079 0.0
C6090 C 0.62788 0.21536 0.3096 0.0
C6091 C 0.63574 0.21014 0.31248 0.0
C6092 C 0.61036 0.21714 0.30742 0.0
C6093 C 0.60896 0.22618 0.3111 0.0
C6094 C 0.60379 0.21344 0.30074 0.0
C6095 C 0.60505 0.20407 0.29634 0.0
C6096 C 0.61342 0.20204 0.29147 0.0
C6097 C 0.61459 0.19317 0.2874 0.0
C6098 C 0.6074 0.18629 0.28811 0.0
C6099 C 0.59902 0.18829 0.29286 0.0
C6100 C 0.59783 0.19714 0.29694 0.0
C6101 C 0.58147 0.24834 0.29004 0.0
C6102 C 0.57211 0.24478 0.2897 0.0
C6103 C 0.58877 0.24288 0.2938 0.0
C6104 C 0.58687 0.23379 0.29745 0.0
C6105 C 0.57753 0.23019 0.29705 0.0
C6106 C 0.57022 0.23562 0.29319 0.0
C6107 C 0.5947 0.228 0.30144 0.0
C6108 C 0.59603 0.21889 0.29789 0.0
C6109 C 0.60117 0.23161 0.30829 0.0
C6110 C 0.59982 0.2409 0.31285 0.0
C6111 C 0.59122 0.24294 0.31732 0.0
C6112 C 0.58995 0.25173 0.32152 0.0
C6113 C 0.59726 0.25851 0.32137 0.0
C6114 C 0.60586 0.25651 0.31703 0.0
C6115 C 0.60716 0.24774 0.31281 0.0
H6116 H 0.59627 0.26532 0.32463 0.0
H6117 H 0.60832 0.17943 0.28496 0.0
H6118 H 0.31644 0.11903 0.33187 0.0
H6119 H 0.31116 0.10563 0.32227 0.0
H6120 H 0.31619 0.122 0.29686 0.0
H6121 H 0.3212 0.13553 0.30644 0.0
H6122 H 0.29961 0.11288 0.29569 0.0
H6123 H 0.3314 0.10472 0.30378 0.0
H6124 H 0.34502 0.10186 0.3144 0.0
H6125 H 0.32939 0.07963 0.32846 0.0
H6126 H 0.31563 0.08245 0.318 0.0
H6127 H 0.30636 0.06493 0.27069 0.0
H6128 H 0.31268 0.07776 0.28051 0.0
H6129 H 0.28477 0.08229 0.29167 0.0
H6130 H 0.27836 0.06965 0.28169 0.0
H6131 H 0.31355 0.08109 0.29926 0.0
H6132 H 0.28179 0.10603 0.29419 0.0
H6133 H 0.26919 0.10921 0.28243 0.0
H6134 H 0.28669 0.09856 0.26032 0.0
H6135 H 0.29943 0.09544 0.27191 0.0
C6136 C 0.31637 0.11981 0.32424 0.0
C6137 C 0.31924 0.12837 0.31993 0.0
C6138 C 0.31343 0.1121 0.31875 0.0
C6139 C 0.31336 0.11277 0.30883 0.0
C6140 C 0.31621 0.12131 0.3045 0.0
C6141 C 0.31916 0.12902 0.30999 0.0
C6142 C 0.31012 0.10462 0.30297 0.0
C6143 C 0.30266 0.10593 0.29649 0.0
C6144 C 0.31418 0.09558 0.30388 0.0
C6145 C 0.32245 0.09385 0.31017 0.0
C6146 C 0.33084 0.09927 0.30919 0.0
C6147 C 0.33859 0.09765 0.31517 0.0
C6148 C 0.33806 0.09059 0.32212 0.0
C6149 C 0.32979 0.08511 0.32308 0.0
C6150 C 0.32201 0.08671 0.31713 0.0
C6151 C 0.30157 0.06865 0.27525 0.0
C6152 C 0.29184 0.0663 0.27535 0.0
C6153 C 0.30521 0.07594 0.28091 0.0
C6154 C 0.29919 0.08107 0.28674 0.0
C6155 C 0.28953 0.07851 0.28714 0.0
C6156 C 0.28589 0.07121 0.28149 0.0
C6157 C 0.30293 0.08933 0.29213 0.0
C6158 C 0.31049 0.08804 0.29851 0.0
C6159 C 0.29908 0.09844 0.291 0.0
C6160 C 0.29152 0.10041 0.28394 0.0
C6161 C 0.28296 0.1044 0.28681 0.0
C6162 C 0.27579 0.10619 0.28018 0.0
C6163 C 0.27713 0.10406 0.27064 0.0
C6164 C 0.28565 0.10017 0.26772 0.0
C6165 C 0.29284 0.09838 0.27432 0.0
H6166 H 0.27157 0.10544 0.26552 0.0
H6167 H 0.34407 0.08934 0.32674 0.0
H6168 H 0.38958 0.79546 0.33022 0.0
H6169 H 0.40368 0.78913 0.32291 0.0
H6170 H 0.40198 0.81012 0.3007 0.0
H6171 H 0.38754 0.81624 0.30774 0.0
H6172 H 0.40605 0.79366 0.29336 0.0
H6173 H 0.4186 0.81192 0.31878 0.0
H6174 H 0.42023 0.81755 0.33519 0.0
H6175 H 0.4279 0.78974 0.34445 0.0
H6176 H 0.42619 0.7839 0.32811 0.0
H6177 H 0.45296 0.78344 0.27728 0.0
H6178 H 0.43978 0.792 0.28412 0.0
H6179 H 0.4356 0.76969 0.30466 0.0
H6180 H 0.44841 0.76086 0.29765 0.0
H6181 H 0.4352 0.78825 0.31236 0.0
H6182 H 0.4215 0.77011 0.28665 0.0
H6183 H 0.42014 0.76495 0.27006 0.0
H6184 H 0.4151 0.79351 0.26116 0.0
H6185 H 0.41657 0.79886 0.2777 0.0
C6186 C 0.39211 0.79869 0.32372 0.0
C6187 C 0.38737 0.80637 0.31958 0.0
C6188 C 0.40028 0.79512 0.31961 0.0
C6189 C 0.40401 0.79923 0.31132 0.0
C6190 C 0.39928 0.80686 0.30712 0.0
C6191 C 0.39106 0.81041 0.31121 0.0
C6192 C 0.41275 0.79543 0.30701 0.0
C6193 C 0.41248 0.79265 0.29748 0.0
C6194 C 0.42113 0.79398 0.31238 0.0
C6195 C 0.42219 0.79746 0.32223 0.0
C6196 C 0.42057 0.80699 0.32433 0.0
C6197 C 0.42152 0.81022 0.33361 0.0
C6198 C 0.42415 0.804 0.34086 0.0
C6199 C 0.42586 0.79454 0.33883 0.0
C6200 C 0.42491 0.79127 0.32955 0.0
C6201 C 0.44922 0.78029 0.28321 0.0
C6202 C 0.45181 0.7714 0.28686 0.0
C6203 C 0.44171 0.78524 0.28714 0.0
C6204 C 0.43669 0.78146 0.29487 0.0
C6205 C 0.43942 0.77276 0.29873 0.0
C6206 C 0.44682 0.76775 0.29473 0.0
C6207 C 0.42842 0.78639 0.29881 0.0
C6208 C 0.42879 0.78937 0.30825 0.0
C6209 C 0.42018 0.78811 0.29333 0.0
C6210 C 0.41926 0.7849 0.2834 0.0
C6211 C 0.42019 0.7753 0.28115 0.0
C6212 C 0.41938 0.77234 0.27176 0.0
C6213 C 0.41757 0.77891 0.26456 0.0
C6214 C 0.41653 0.78844 0.26674 0.0
C6215 C 0.41734 0.79144 0.27612 0.0
H6216 H 0.41694 0.7766 0.25729 0.0
H6217 H 0.42488 0.80652 0.34805 0.0
H6218 H 0.33355 0.89007 0.71222 0.0
H6219 H 0.32554 0.90381 0.71853 0.0
H6220 H 0.29846 0.88983 0.71432 0.0
H6221 H 0.30643 0.87604 0.70803 0.0
H6222 H 0.29775 0.90794 0.70876 0.0
H6223 H 0.30875 0.89123 0.73633 0.0
H6224 H 0.32057 0.88351 0.74659 0.0
H6225 H 0.33634 0.90962 0.74872 0.0
H6226 H 0.32468 0.91747 0.73835 0.0
H6227 H 0.26905 0.93517 0.73845 0.0
H6228 H 0.27802 0.9226 0.73124 0.0
H6229 H 0.30395 0.93858 0.73557 0.0
H6230 H 0.29497 0.95133 0.74273 0.0
H6231 H 0.30586 0.92011 0.7407 0.0
H6232 H 0.29428 0.93697 0.71364 0.0
H6233 H 0.28222 0.94458 0.70357 0.0
H6234 H 0.26733 0.91806 0.70066 0.0
H6235 H 0.27922 0.91031 0.71082 0.0
C6236 C 0.32589 0.88988 0.71269 0.0
C6237 C 0.32064 0.88191 0.70966 0.0
C6238 C 0.32132 0.89776 0.7163 0.0
C6239 C 0.3114 0.89782 0.71702 0.0
C6240 C 0.30612 0.88996 0.71383 0.0
C6241 C 0.31069 0.88208 0.7102 0.0
C6242 C 0.30652 0.90606 0.72115 0.0
C6243 C 0.29945 0.91053 0.71579 0.0
C6244 C 0.30889 0.90961 0.73023 0.0
C6245 C 0.3159 0.90491 0.73648 0.0
C6246 C 0.31478 0.89531 0.73892 0.0
C6247 C 0.32145 0.89091 0.74477 0.0
C6248 C 0.32922 0.89607 0.74828 0.0
C6249 C 0.33033 0.90563 0.74598 0.0
C6250 C 0.32369 0.91006 0.74012 0.0
C6251 C 0.27664 0.93612 0.73774 0.0
C6252 C 0.28126 0.94435 0.74108 0.0
C6253 C 0.28177 0.92889 0.73364 0.0
C6254 C 0.29165 0.92969 0.73274 0.0
C6255 C 0.29633 0.93782 0.73617 0.0
C6256 C 0.29118 0.94509 0.74028 0.0
C6257 C 0.29705 0.92194 0.72834 0.0
C6258 C 0.3042 0.91756 0.73365 0.0
C6259 C 0.29474 0.91845 0.71923 0.0
C6260 C 0.2876 0.92308 0.71306 0.0
C6261 C 0.28839 0.93278 0.71091 0.0
C6262 C 0.2816 0.93711 0.70518 0.0
C6263 C 0.274 0.93181 0.70149 0.0
C6264 C 0.27321 0.92216 0.70352 0.0
C6265 C 0.27998 0.91779 0.70926 0.0
H6266 H 0.26875 0.93518 0.69706 0.0
H6267 H 0.33437 0.89265 0.75281 0.0
H6268 H 0.64327 0.81006 0.71197 0.0
H6269 H 0.62911 0.80415 0.72014 0.0
H6270 H 0.61485 0.80043 0.69329 0.0
H6271 H 0.62887 0.80661 0.68509 0.0
H6272 H 0.60314 0.8079 0.70603 0.0
H6273 H 0.62439 0.78174 0.70514 0.0
H6274 H 0.63945 0.77352 0.70787 0.0
H6275 H 0.63708 0.77796 0.73778 0.0
H6276 H 0.62206 0.78632 0.73522 0.0
H6277 H 0.56668 0.77506 0.7191 0.0
H6278 H 0.58031 0.78341 0.71217 0.0
H6279 H 0.59273 0.78668 0.73996 0.0
H6280 H 0.57921 0.77815 0.74691 0.0
H6281 H 0.60542 0.78012 0.7275 0.0
H6282 H 0.58358 0.80552 0.72837 0.0
H6283 H 0.56842 0.81352 0.72552 0.0
H6284 H 0.57178 0.81033 0.69554 0.0
H6285 H 0.58689 0.80219 0.69821 0.0
C6286 C 0.63709 0.80809 0.7078 0.0
C6287 C 0.63724 0.80876 0.69786 0.0
C6288 C 0.62902 0.80463 0.71248 0.0
C6289 C 0.62094 0.80173 0.70732 0.0
C6290 C 0.621 0.80259 0.69742 0.0
C6291 C 0.62906 0.80604 0.69274 0.0
C6292 C 0.61249 0.79764 0.71221 0.0
C6293 C 0.60362 0.80177 0.71065 0.0
C6294 C 0.61314 0.78978 0.71842 0.0
C6295 C 0.62216 0.78475 0.71998 0.0
C6296 C 0.62712 0.78103 0.71229 0.0
C6297 C 0.63564 0.77634 0.71381 0.0
C6298 C 0.63923 0.77524 0.72299 0.0
C6299 C 0.6343 0.77883 0.73067 0.0
C6300 C 0.62578 0.78354 0.72919 0.0
C6301 C 0.57229 0.7776 0.72374 0.0
C6302 C 0.57185 0.77594 0.73356 0.0
C6303 C 0.58005 0.78244 0.71978 0.0
C6304 C 0.58753 0.78573 0.72555 0.0
C6305 C 0.58704 0.78422 0.73537 0.0
C6306 C 0.57926 0.77942 0.73934 0.0
C6307 C 0.59605 0.79034 0.72128 0.0
C6308 C 0.60494 0.7863 0.72294 0.0
C6309 C 0.59541 0.79826 0.71514 0.0
C6310 C 0.58633 0.80317 0.7135 0.0
C6311 C 0.58105 0.80646 0.72117 0.0
C6312 C 0.57247 0.81103 0.71959 0.0
C6313 C 0.56913 0.81241 0.71036 0.0
C6314 C 0.57437 0.80925 0.70269 0.0
C6315 C 0.58295 0.80466 0.70423 0.0
H6316 H 0.56249 0.81596 0.70915 0.0
H6317 H 0.64583 0.7716 0.72415 0.0
H6318 H 0.39411 0.20047 0.68677 0.0
H6319 H 0.40809 0.20734 0.69457 0.0
H6320 H 0.39298 0.20795 0.72099 0.0
H6321 H 0.37886 0.20132 0.71316 0.0
H6322 H 0.40216 0.22439 0.71777 0.0
H6323 H 0.41013 0.19173 0.71729 0.0
H6324 H 0.4125 0.17611 0.71018 0.0
H6325 H 0.43387 0.18795 0.69191 0.0
H6326 H 0.43154 0.20368 0.69881 0.0
H6327 H 0.44207 0.23662 0.74583 0.0
H6328 H 0.42872 0.22755 0.7393 0.0
H6329 H 0.4425 0.22695 0.71216 0.0
H6330 H 0.45605 0.23579 0.71873 0.0
H6331 H 0.43396 0.21004 0.71634 0.0
H6332 H 0.42539 0.2428 0.71639 0.0
H6333 H 0.42304 0.2584 0.72357 0.0
H6334 H 0.4027 0.24622 0.74278 0.0
H6335 H 0.40503 0.23052 0.7358 0.0
C6336 C 0.39374 0.2021 0.69424 0.0
C6337 C 0.38535 0.20036 0.69934 0.0
C6338 C 0.40178 0.20594 0.69871 0.0
C6339 C 0.40163 0.20808 0.7084 0.0
C6340 C 0.39328 0.20633 0.71352 0.0
C6341 C 0.38523 0.20247 0.70905 0.0
C6342 C 0.41008 0.21245 0.71308 0.0
C6343 C 0.40908 0.22117 0.7176 0.0
C6344 C 0.41916 0.20836 0.71267 0.0
C6345 C 0.42059 0.19891 0.70851 0.0
C6346 C 0.41528 0.19102 0.7117 0.0
C6347 C 0.41663 0.18215 0.70772 0.0
C6348 C 0.42331 0.18104 0.70058 0.0
C6349 C 0.42869 0.18881 0.69743 0.0
C6350 C 0.42736 0.19771 0.70138 0.0
C6351 C 0.44237 0.2344 0.73852 0.0
C6352 C 0.45014 0.23697 0.7328 0.0
C6353 C 0.43467 0.22929 0.73477 0.0
C6354 C 0.43454 0.22669 0.7252 0.0
C6355 C 0.44243 0.22892 0.71956 0.0
C6356 C 0.45014 0.23404 0.7233 0.0
C6357 C 0.42602 0.22198 0.721 0.0
C6358 C 0.42702 0.21322 0.71656 0.0
C6359 C 0.41692 0.22602 0.72148 0.0
C6360 C 0.41546 0.23547 0.72564 0.0
C6361 C 0.42047 0.24344 0.72219 0.0
C6362 C 0.41913 0.2523 0.72622 0.0
C6363 C 0.41275 0.25329 0.73364 0.0
C6364 C 0.40766 0.24543 0.73704 0.0
C6365 C 0.40898 0.23655 0.73304 0.0
H6366 H 0.41172 0.26016 0.73675 0.0
H6367 H 0.42435 0.17416 0.69751 0.0
H6368 H 0.70532 0.70977 0.14141 0.0
H6369 H 0.71079 0.71768 0.12692 0.0
H6370 H 0.72089 0.69117 0.11649 0.0
H6371 H 0.71539 0.68321 0.13087 0.0
H6372 H 0.73405 0.70487 0.11442 0.0
H6373 H 0.7007 0.70123 0.10759 0.0
H6374 H 0.68363 0.70298 0.11061 0.0
H6375 H 0.68714 0.73316 0.1107 0.0
H6376 H 0.70427 0.73159 0.10781 0.0
H6377 H 0.74421 0.71747 0.06734 0.0
H6378 H 0.73664 0.71009 0.0811 0.0
H6379 H 0.72705 0.73731 0.09014 0.0
H6380 H 0.7346 0.74475 0.07636 0.0
H6381 H 0.71356 0.72386 0.09316 0.0
H6382 H 0.74663 0.72774 0.10004 0.0
H6383 H 0.76377 0.72632 0.09722 0.0
H6384 H 0.7609 0.69608 0.09746 0.0
H6385 H 0.7437 0.69732 0.10014 0.0
C6386 C 0.70859 0.7056 0.13598 0.0
C6387 C 0.70994 0.69585 0.13734 0.0
C6388 C 0.71173 0.71014 0.1277 0.0
C6389 C 0.71622 0.70502 0.12058 0.0
C6390 C 0.71749 0.69528 0.12189 0.0
C6391 C 0.71437 0.69075 0.13015 0.0
C6392 C 0.71989 0.7098 0.11188 0.0
C6393 C 0.72953 0.70891 0.10971 0.0
C6394 C 0.71408 0.71533 0.10588 0.0
C6395 C 0.70378 0.71629 0.10758 0.0
C6396 C 0.69784 0.70824 0.10833 0.0
C6397 C 0.68815 0.7092 0.11 0.0
C6398 C 0.68431 0.71818 0.11087 0.0
C6399 C 0.69013 0.72621 0.11004 0.0
C6400 C 0.69983 0.72529 0.10838 0.0
C6401 C 0.74046 0.72189 0.07223 0.0
C6402 C 0.74009 0.73171 0.07078 0.0
C6403 C 0.73613 0.71766 0.0801 0.0
C6404 C 0.73142 0.72316 0.08677 0.0
C6405 C 0.73066 0.73292 0.08512 0.0
C6406 C 0.73496 0.73716 0.07721 0.0
C6407 C 0.72767 0.71879 0.09563 0.0
C6408 C 0.71806 0.7198 0.09787 0.0
C6409 C 0.73351 0.7134 0.10175 0.0
C6410 C 0.74386 0.71263 0.1002 0.0
C6411 C 0.74964 0.72079 0.09942 0.0
C6412 C 0.75937 0.72001 0.09786 0.0
C6413 C 0.76341 0.71111 0.09714 0.0
C6414 C 0.75775 0.70297 0.098 0.0
C6415 C 0.74801 0.7037 0.09955 0.0
H6416 H 0.77095 0.71053 0.09593 0.0
H6417 H 0.6768 0.71891 0.11216 0.0
H6418 H 0.32818 0.69307 0.13372 0.0
H6419 H 0.32304 0.7014 0.11939 0.0
H6420 H 0.29393 0.69411 0.12561 0.0
H6421 H 0.29899 0.68586 0.13999 0.0
H6422 H 0.2978 0.69121 0.1072 0.0
H6423 H 0.30262 0.71626 0.12956 0.0
H6424 H 0.31157 0.72574 0.14127 0.0
H6425 H 0.33255 0.73271 0.12036 0.0
H6426 H 0.32379 0.72316 0.10855 0.0
H6427 H 0.27449 0.72383 0.07676 0.0
H6428 H 0.28047 0.71446 0.09004 0.0
H6429 H 0.30911 0.72293 0.08308 0.0
H6430 H 0.30318 0.73231 0.06975 0.0
H6431 H 0.306 0.72498 0.10153 0.0
H6432 H 0.30084 0.70036 0.07897 0.0
H6433 H 0.29182 0.69095 0.06726 0.0
H6434 H 0.27144 0.68317 0.0885 0.0
H6435 H 0.28027 0.69265 0.1003 0.0
C6436 C 0.32067 0.69332 0.1321 0.0
C6437 C 0.314 0.68879 0.13803 0.0
C6438 C 0.31775 0.69806 0.12389 0.0
C6439 C 0.30809 0.69844 0.12145 0.0
C6440 C 0.30142 0.69389 0.12732 0.0
C6441 C 0.30433 0.68915 0.13553 0.0
C6442 C 0.30491 0.70355 0.11279 0.0
C6443 C 0.2995 0.69862 0.10601 0.0
C6444 C 0.30733 0.71317 0.11111 0.0
C6445 C 0.3126 0.71892 0.1182 0.0
C6446 C 0.30919 0.71975 0.12748 0.0
C6447 C 0.31422 0.72514 0.13413 0.0
C6448 C 0.32264 0.7298 0.13157 0.0
C6449 C 0.32603 0.72909 0.12234 0.0
C6450 C 0.32103 0.72369 0.11566 0.0
C6451 C 0.28208 0.72355 0.07793 0.0
C6452 C 0.28835 0.72882 0.07217 0.0
C6453 C 0.28549 0.7182 0.08555 0.0
C6454 C 0.29525 0.71793 0.08754 0.0
C6455 C 0.30155 0.72305 0.08171 0.0
C6456 C 0.29814 0.72842 0.07409 0.0
C6457 C 0.29885 0.71265 0.09593 0.0
C6458 C 0.30434 0.71755 0.10268 0.0
C6459 C 0.2965 0.70301 0.09758 0.0
C6460 C 0.29118 0.69729 0.0905 0.0
C6461 C 0.29439 0.69671 0.08112 0.0
C6462 C 0.28932 0.69135 0.07447 0.0
C6463 C 0.28105 0.68648 0.07713 0.0
C6464 C 0.27784 0.68695 0.08645 0.0
C6465 C 0.28289 0.69231 0.09312 0.0
H6466 H 0.27713 0.68234 0.07197 0.0
H6467 H 0.32652 0.73397 0.13673 0.0
H6468 H 0.32614 0.31957 0.13239 0.0
H6469 H 0.32058 0.3115 0.11809 0.0
H6470 H 0.292 0.3113 0.12875 0.0
H6471 H 0.29755 0.31909 0.14317 0.0
H6472 H 0.29584 0.29473 0.12087 0.0
H6473 H 0.29947 0.32751 0.11211 0.0
H6474 H 0.30807 0.34272 0.11026 0.0
H6475 H 0.32816 0.32966 0.09204 0.0
H6476 H 0.31974 0.31434 0.09388 0.0
H6477 H 0.26836 0.28769 0.07986 0.0
H6478 H 0.27604 0.29433 0.09383 0.0
H6479 H 0.30321 0.29293 0.08015 0.0
H6480 H 0.29547 0.2866 0.06588 0.0
H6481 H 0.30141 0.30942 0.08934 0.0
H6482 H 0.29673 0.27673 0.09723 0.0
H6483 H 0.28756 0.26182 0.09885 0.0
H6484 H 0.26901 0.27488 0.11864 0.0
H6485 H 0.278 0.28991 0.11705 0.0
C6486 C 0.31869 0.31771 0.13175 0.0
C6487 C 0.31229 0.32005 0.13892 0.0
C6488 C 0.31551 0.31316 0.12352 0.0
C6489 C 0.30584 0.31089 0.12227 0.0
C6490 C 0.29948 0.313 0.12952 0.0
C6491 C 0.30266 0.31754 0.13773 0.0
C6492 C 0.30228 0.30646 0.11337 0.0
C6493 C 0.297 0.29798 0.11398 0.0
C6494 C 0.30397 0.31056 0.10435 0.0
C6495 C 0.30904 0.31976 0.10322 0.0
C6496 C 0.30576 0.32787 0.10777 0.0
C6497 C 0.3106 0.33651 0.10672 0.0
C6498 C 0.31867 0.33715 0.10106 0.0
C6499 C 0.32191 0.32915 0.09643 0.0
C6500 C 0.31711 0.32049 0.09748 0.0
C6501 C 0.27595 0.28892 0.07972 0.0
C6502 C 0.28128 0.28665 0.07168 0.0
C6503 C 0.28036 0.2926 0.08779 0.0
C6504 C 0.29023 0.29399 0.08812 0.0
C6505 C 0.29559 0.29186 0.08009 0.0
C6506 C 0.29116 0.28818 0.07196 0.0
C6507 C 0.29487 0.29775 0.09684 0.0
C6508 C 0.30034 0.3061 0.09621 0.0
C6509 C 0.29332 0.29354 0.10585 0.0
C6510 C 0.288 0.28447 0.10696 0.0
C6511 C 0.29066 0.27644 0.10189 0.0
C6512 C 0.2855 0.26796 0.10281 0.0
C6513 C 0.2777 0.26741 0.10883 0.0
C6514 C 0.27506 0.27532 0.11398 0.0
C6515 C 0.2802 0.28381 0.11308 0.0
H6516 H 0.2737 0.26085 0.10953 0.0
H6517 H 0.3224 0.34384 0.10025 0.0
H6518 H 0.72297 0.32634 0.13683 0.0
H6519 H 0.72808 0.31876 0.12236 0.0
H6520 H 0.70385 0.2998 0.12355 0.0
H6521 H 0.69893 0.30707 0.13835 0.0
H6522 H 0.71906 0.29037 0.11882 0.0
H6523 H 0.70473 0.31861 0.10778 0.0
H6524 H 0.70164 0.33568 0.10704 0.0
H6525 H 0.73056 0.34124 0.09922 0.0
H6526 H 0.73387 0.3242 0.10005 0.0
H6527 H 0.72727 0.27502 0.07118 0.0
H6528 H 0.71964 0.28216 0.08481 0.0
H6529 H 0.74431 0.29995 0.08936 0.0
H6530 H 0.75215 0.29264 0.07606 0.0
H6531 H 0.72716 0.30968 0.09046 0.0
H6532 H 0.7414 0.28121 0.10274 0.0
H6533 H 0.74409 0.26405 0.10332 0.0
H6534 H 0.71447 0.25892 0.10839 0.0
H6535 H 0.71158 0.27605 0.1077 0.0
C6536 C 0.71877 0.32048 0.13411 0.0
C6537 C 0.71053 0.31733 0.1388 0.0
C6538 C 0.72164 0.31623 0.12574 0.0
C6539 C 0.71627 0.30881 0.12175 0.0
C6540 C 0.70808 0.30556 0.12645 0.0
C6541 C 0.70523 0.30978 0.13487 0.0
C6542 C 0.71932 0.30439 0.11276 0.0
C6543 C 0.72065 0.29458 0.11256 0.0
C6544 C 0.72152 0.30987 0.1046 0.0
C6545 C 0.71956 0.32013 0.10405 0.0
C6546 C 0.71045 0.32348 0.10597 0.0
C6547 C 0.70865 0.33315 0.10552 0.0
C6548 C 0.7159 0.33955 0.1031 0.0
C6549 C 0.72496 0.33628 0.1011 0.0
C6550 C 0.72679 0.32661 0.10155 0.0
C6551 C 0.73112 0.2804 0.0751 0.0
C6552 C 0.74036 0.28323 0.07245 0.0
C6553 C 0.72671 0.28451 0.08287 0.0
C6554 C 0.73142 0.29157 0.08811 0.0
C6555 C 0.74053 0.29456 0.08537 0.0
C6556 C 0.74497 0.2904 0.07769 0.0
C6557 C 0.72702 0.29573 0.0966 0.0
C6558 C 0.72544 0.30548 0.09669 0.0
C6559 C 0.72452 0.29019 0.10461 0.0
C6560 C 0.72625 0.2799 0.10506 0.0
C6561 C 0.73544 0.27641 0.10389 0.0
C6562 C 0.73701 0.26669 0.10425 0.0
C6563 C 0.72945 0.26039 0.10585 0.0
C6564 C 0.72031 0.2638 0.10713 0.0
C6565 C 0.71871 0.27352 0.10676 0.0
H6566 H 0.73068 0.25287 0.10614 0.0
H6567 H 0.7145 0.34703 0.10275 0.0
H6568 H 0.69283 0.31314 0.89058 0.0
H6569 H 0.69855 0.30456 0.90453 0.0
H6570 H 0.72729 0.3129 0.89783 0.0
H6571 H 0.72167 0.32119 0.8837 0.0
H6572 H 0.72648 0.29481 0.90286 0.0
H6573 H 0.71486 0.32373 0.9155 0.0
H6574 H 0.70309 0.33608 0.9182 0.0
H6575 H 0.68444 0.31565 0.93129 0.0
H6576 H 0.69605 0.30314 0.92855 0.0
H6577 H 0.74816 0.28323 0.94655 0.0
H6578 H 0.74192 0.29243 0.93326 0.0
H6579 H 0.71362 0.28241 0.93962 0.0
H6580 H 0.71979 0.27334 0.95308 0.0
H6581 H 0.714 0.30125 0.93488 0.0
H6582 H 0.72573 0.27237 0.92225 0.0
H6583 H 0.7376 0.26009 0.91963 0.0
H6584 H 0.75614 0.2806 0.90652 0.0
H6585 H 0.74444 0.29304 0.90919 0.0
C6586 C 0.70038 0.31308 0.89202 0.0
C6587 C 0.70678 0.3179 0.88602 0.0
C6588 C 0.70363 0.30825 0.90006 0.0
C6589 C 0.71334 0.30819 0.90232 0.0
C6590 C 0.71976 0.31288 0.89627 0.0
C6591 C 0.71652 0.31769 0.88823 0.0
C6592 C 0.71686 0.30318 0.91092 0.0
C6593 C 0.72383 0.29631 0.90987 0.0
C6594 C 0.71326 0.30497 0.92006 0.0
C6595 C 0.70629 0.31248 0.92174 0.0
C6596 C 0.70822 0.32186 0.91889 0.0
C6597 C 0.70158 0.32889 0.92044 0.0
C6598 C 0.69301 0.32665 0.92489 0.0
C6599 C 0.69108 0.31738 0.92783 0.0
C6600 C 0.69768 0.31031 0.92629 0.0
C6601 C 0.74059 0.28311 0.94524 0.0
C6602 C 0.73448 0.27752 0.95087 0.0
C6603 C 0.73704 0.28831 0.93758 0.0
C6604 C 0.72732 0.288 0.93536 0.0
C6605 C 0.72115 0.28272 0.94117 0.0
C6606 C 0.7247 0.27749 0.94882 0.0
C6607 C 0.72365 0.29294 0.9268 0.0
C6608 C 0.71664 0.29976 0.92786 0.0
C6609 C 0.72722 0.29113 0.91767 0.0
C6610 C 0.73425 0.28365 0.916 0.0
C6611 C 0.73237 0.27428 0.91887 0.0
C6612 C 0.73906 0.26728 0.91737 0.0
C6613 C 0.74763 0.26957 0.91293 0.0
C6614 C 0.74951 0.27885 0.90997 0.0
C6615 C 0.74284 0.28587 0.91147 0.0
H6616 H 0.7528 0.26414 0.91177 0.0
H6617 H 0.68789 0.33211 0.92608 0.0
H6618 H 0.6838 0.70213 0.89268 0.0
H6619 H 0.69178 0.70855 0.90668 0.0
H6620 H 0.71887 0.7054 0.89322 0.0
H6621 H 0.71092 0.69901 0.87913 0.0
H6622 H 0.71957 0.70014 0.91186 0.0
H6623 H 0.7087 0.72675 0.89384 0.0
H6624 H 0.69697 0.7363 0.88521 0.0
H6625 H 0.68045 0.73855 0.91048 0.0
H6626 H 0.69202 0.72889 0.91923 0.0
H6627 H 0.74589 0.73165 0.94189 0.0
H6628 H 0.73842 0.72304 0.9288 0.0
H6629 H 0.7109 0.72758 0.94091 0.0
H6630 H 0.71833 0.73628 0.95396 0.0
H6631 H 0.7106 0.73193 0.92284 0.0
H6632 H 0.72163 0.70547 0.941 0.0
H6633 H 0.73337 0.6959 0.94959 0.0
H6634 H 0.74964 0.69337 0.92419 0.0
H6635 H 0.73805 0.70304 0.91547 0.0
C6636 C 0.69146 0.70284 0.89267 0.0
C6637 C 0.6967 0.70014 0.88472 0.0
C6638 C 0.69601 0.70648 0.90069 0.0
C6639 C 0.70592 0.70759 0.90096 0.0
C6640 C 0.71122 0.70462 0.89318 0.0
C6641 C 0.70666 0.70095 0.88513 0.0
C6642 C 0.7107 0.71211 0.90923 0.0
C6643 C 0.7177 0.70714 0.91421 0.0
C6644 C 0.70813 0.72117 0.91241 0.0
C6645 C 0.70119 0.72702 0.90717 0.0
C6646 C 0.70253 0.72922 0.89754 0.0
C6647 C 0.69591 0.73466 0.89263 0.0
C6648 C 0.68795 0.73801 0.89728 0.0
C6649 C 0.68661 0.73594 0.90687 0.0
C6650 C 0.6932 0.73049 0.91182 0.0
C6651 C 0.73826 0.73065 0.94187 0.0
C6652 C 0.73271 0.73466 0.94898 0.0
C6653 C 0.73399 0.72573 0.93436 0.0
C6654 C 0.72408 0.7246 0.93387 0.0
C6655 C 0.71855 0.72839 0.9411 0.0
C6656 C 0.72281 0.73336 0.94856 0.0
C6657 C 0.71943 0.71994 0.92558 0.0
C6658 C 0.71247 0.72491 0.92056 0.0
C6659 C 0.72205 0.71089 0.92238 0.0
C6660 C 0.72901 0.70506 0.9276 0.0
C6661 C 0.72775 0.70294 0.93726 0.0
C6662 C 0.73437 0.69748 0.94215 0.0
C6663 C 0.74226 0.69405 0.93744 0.0
C6664 C 0.74353 0.69604 0.92783 0.0
C6665 C 0.73693 0.7015 0.92291 0.0
H6666 H 0.74738 0.68982 0.94124 0.0
H6667 H 0.68284 0.74222 0.89347 0.0
H6668 H 0.33763 0.70346 0.89179 0.0
H6669 H 0.32966 0.70899 0.90594 0.0
H6670 H 0.30329 0.69669 0.89595 0.0
H6671 H 0.31114 0.69145 0.88158 0.0
H6672 H 0.30055 0.71397 0.90238 0.0
H6673 H 0.31628 0.68644 0.91403 0.0
H6674 H 0.32982 0.676 0.91694 0.0
H6675 H 0.34389 0.69781 0.93295 0.0
H6676 H 0.33048 0.70843 0.93003 0.0
H6677 H 0.27467 0.7172 0.94472 0.0
H6678 H 0.28329 0.71083 0.93135 0.0
H6679 H 0.30885 0.72502 0.9409 0.0
H6680 H 0.3003 0.73128 0.95448 0.0
H6681 H 0.31217 0.70687 0.93486 0.0
H6682 H 0.29634 0.73435 0.92315 0.0
H6683 H 0.28269 0.74467 0.92031 0.0
H6684 H 0.2687 0.72273 0.90441 0.0
H6685 H 0.28222 0.71222 0.90727 0.0
C6686 C 0.33012 0.70197 0.89256 0.0
C6687 C 0.32503 0.69701 0.88552 0.0
C6688 C 0.32559 0.70505 0.90072 0.0
C6689 C 0.31589 0.70317 0.90208 0.0
C6690 C 0.31079 0.6982 0.89508 0.0
C6691 C 0.31531 0.69514 0.8869 0.0
C6692 C 0.311 0.7066 0.91067 0.0
C6693 C 0.30302 0.71229 0.90948 0.0
C6694 C 0.31435 0.70464 0.91995 0.0
C6695 C 0.32241 0.69826 0.92173 0.0
C6696 C 0.32229 0.68904 0.91811 0.0
C6697 C 0.32994 0.68308 0.91977 0.0
C6698 C 0.33772 0.68625 0.9251 0.0
C6699 C 0.33786 0.69537 0.92881 0.0
C6700 C 0.33024 0.70136 0.92716 0.0
C6701 C 0.28217 0.71885 0.94409 0.0
C6702 C 0.2868 0.72475 0.95069 0.0
C6703 C 0.28706 0.71527 0.93638 0.0
C6704 C 0.29668 0.71754 0.93505 0.0
C6705 C 0.30141 0.72321 0.94176 0.0
C6706 C 0.29651 0.72683 0.94948 0.0
C6707 C 0.30171 0.71417 0.92654 0.0
C6708 C 0.30971 0.70852 0.92775 0.0
C6709 C 0.29837 0.71615 0.91727 0.0
C6710 C 0.29026 0.72247 0.9155 0.0
C6711 C 0.29032 0.7317 0.91911 0.0
C6712 C 0.28261 0.73759 0.91749 0.0
C6713 C 0.27482 0.73435 0.91221 0.0
C6714 C 0.27474 0.72522 0.90851 0.0
C6715 C 0.28242 0.7193 0.91012 0.0
H6716 H 0.26886 0.73892 0.91096 0.0
H6717 H 0.34364 0.68163 0.92638 0.0
H6718 H 0.32996 0.31871 0.88683 0.0
H6719 H 0.32409 0.31084 0.90117 0.0
H6720 H 0.29541 0.31297 0.89071 0.0
H6721 H 0.30122 0.32078 0.87634 0.0
H6722 H 0.29649 0.31805 0.9089 0.0
H6723 H 0.30721 0.29198 0.89042 0.0
H6724 H 0.31872 0.283 0.88119 0.0
H6725 H 0.33729 0.28167 0.90536 0.0
H6726 H 0.32594 0.29075 0.9147 0.0
H6727 H 0.2734 0.2858 0.94023 0.0
H6728 H 0.27989 0.29443 0.92665 0.0
H6729 H 0.3082 0.29052 0.93757 0.0
H6730 H 0.30172 0.28175 0.95113 0.0
H6731 H 0.30776 0.28667 0.91947 0.0
H6732 H 0.29689 0.31236 0.93814 0.0
H6733 H 0.2854 0.32134 0.9474 0.0
H6734 H 0.26722 0.32352 0.923 0.0
H6735 H 0.27855 0.31444 0.91362 0.0
C6736 C 0.32241 0.3174 0.88753 0.0
C6737 C 0.31607 0.32039 0.88042 0.0
C6738 C 0.31906 0.31292 0.89575 0.0
C6739 C 0.3093 0.31125 0.89701 0.0
C6740 C 0.30296 0.31421 0.88992 0.0
C6741 C 0.3063 0.3187 0.88172 0.0
C6742 C 0.30566 0.30651 0.90574 0.0
C6743 C 0.29887 0.31114 0.91115 0.0
C6744 C 0.30895 0.2976 0.90883 0.0
C6745 C 0.31577 0.29212 0.90323 0.0
C6746 C 0.31378 0.28983 0.89374 0.0
C6747 C 0.32027 0.28472 0.88849 0.0
C6748 C 0.32874 0.28179 0.89267 0.0
C6749 C 0.33073 0.28395 0.90212 0.0
C6750 C 0.32427 0.28908 0.9074 0.0
C6751 C 0.281 0.28692 0.93983 0.0
C6752 C 0.28704 0.28312 0.94679 0.0
C6753 C 0.28471 0.29186 0.93204 0.0
C6754 C 0.29455 0.29324 0.9311 0.0
C6755 C 0.3006 0.28955 0.93811 0.0
C6756 C 0.29688 0.28454 0.94586 0.0
C6757 C 0.29855 0.2982 0.92264 0.0
C6758 C 0.3054 0.29361 0.91726 0.0
C6759 C 0.29534 0.30715 0.91959 0.0
C6760 C 0.28853 0.31265 0.9252 0.0
C6761 C 0.29041 0.3147 0.93477 0.0
C6762 C 0.28394 0.31982 0.94003 0.0
C6763 C 0.27558 0.32298 0.9358 0.0
C6764 C 0.2737 0.32105 0.92628 0.0
C6765 C 0.28015 0.31593 0.92098 0.0
H6766 H 0.27057 0.32694 0.93988 0.0
H6767 H 0.33376 0.27783 0.8886 0.0
H6768 H 0.64497 0.70288 0.21636 0.0
H6769 H 0.63077 0.70825 0.22442 0.0
H6770 H 0.61437 0.70395 0.19889 0.0
H6771 H 0.62853 0.69859 0.1908 0.0
H6772 H 0.6107 0.72063 0.20623 0.0
H6773 H 0.61245 0.68887 0.21827 0.0
H6774 H 0.62005 0.67528 0.22605 0.0
H6775 H 0.62399 0.69139 0.25143 0.0
H6776 H 0.61652 0.70513 0.24376 0.0
H6777 H 0.5654 0.72738 0.22573 0.0
H6778 H 0.57896 0.71977 0.21848 0.0
H6779 H 0.59552 0.72454 0.24382 0.0
H6780 H 0.58201 0.73216 0.25112 0.0
H6781 H 0.59901 0.70739 0.23669 0.0
H6782 H 0.59782 0.73916 0.22471 0.0
H6783 H 0.5904 0.75294 0.21709 0.0
H6784 H 0.58573 0.73699 0.19171 0.0
H6785 H 0.593 0.72306 0.19924 0.0
C6786 C 0.63831 0.70295 0.2125 0.0
C6787 C 0.6379 0.70032 0.20292 0.0
C6788 C 0.63019 0.70603 0.21712 0.0
C6789 C 0.62146 0.70644 0.21229 0.0
C6790 C 0.62102 0.70372 0.20276 0.0
C6791 C 0.62913 0.70069 0.19814 0.0
C6792 C 0.61285 0.71004 0.21704 0.0
C6793 C 0.60807 0.71762 0.21281 0.0
C6794 C 0.60954 0.70632 0.22577 0.0
C6795 C 0.61401 0.69806 0.23041 0.0
C6796 C 0.615 0.68954 0.22549 0.0
C6797 C 0.61927 0.6818 0.22988 0.0
C6798 C 0.62252 0.68248 0.23922 0.0
C6799 C 0.62148 0.69088 0.2442 0.0
C6800 C 0.61722 0.69864 0.23983 0.0
C6801 C 0.57192 0.72678 0.22978 0.0
C6802 C 0.57262 0.73044 0.23899 0.0
C6803 C 0.57967 0.72243 0.22562 0.0
C6804 C 0.58832 0.72171 0.23054 0.0
C6805 C 0.58892 0.72501 0.23988 0.0
C6806 C 0.58117 0.72934 0.24405 0.0
C6807 C 0.59684 0.71791 0.22583 0.0
C6808 C 0.60163 0.71034 0.23008 0.0
C6809 C 0.60019 0.72166 0.21713 0.0
C6810 C 0.59587 0.73004 0.21257 0.0
C6811 C 0.59515 0.73857 0.21753 0.0
C6812 C 0.59098 0.74641 0.21323 0.0
C6813 C 0.58758 0.74583 0.20393 0.0
C6814 C 0.58836 0.73742 0.19892 0.0
C6815 C 0.59251 0.72955 0.20319 0.0
H6816 H 0.58435 0.75191 0.20061 0.0
H6817 H 0.62583 0.67648 0.24261 0.0
H6818 H 0.32422 0.61493 0.20505 0.0
H6819 H 0.31597 0.60168 0.21289 0.0
H6820 H 0.30271 0.62108 0.23187 0.0
H6821 H 0.31099 0.63433 0.22412 0.0
H6822 H 0.3106 0.60577 0.24115 0.0
H6823 H 0.29004 0.61147 0.21438 0.0
H6824 H 0.28623 0.61341 0.19743 0.0
H6825 H 0.29572 0.58532 0.19205 0.0
H6826 H 0.29971 0.58325 0.20897 0.0
H6827 H 0.27639 0.57615 0.26265 0.0
H6828 H 0.28462 0.5887 0.25389 0.0
H6829 H 0.29362 0.56844 0.23329 0.0
H6830 H 0.28507 0.55587 0.24192 0.0
H6831 H 0.28853 0.58376 0.22452 0.0
H6832 H 0.30894 0.57766 0.25091 0.0
H6833 H 0.31321 0.57542 0.26773 0.0
H6834 H 0.3049 0.60379 0.27365 0.0
H6835 H 0.30045 0.60615 0.25689 0.0
C6836 C 0.31955 0.61636 0.21089 0.0
C6837 C 0.31824 0.62568 0.21396 0.0
C6838 C 0.31479 0.6088 0.21532 0.0
C6839 C 0.30869 0.6104 0.22293 0.0
C6840 C 0.30738 0.61969 0.226 0.0
C6841 C 0.31206 0.62725 0.22152 0.0
C6842 C 0.30385 0.60239 0.22787 0.0
C6843 C 0.30569 0.60102 0.23755 0.0
C6844 C 0.29769 0.59602 0.22309 0.0
C6845 C 0.29527 0.59724 0.21292 0.0
C6846 C 0.29139 0.60573 0.20957 0.0
C6847 C 0.28919 0.60685 0.19997 0.0
C6848 C 0.29076 0.5995 0.19366 0.0
C6849 C 0.29452 0.59101 0.19695 0.0
C6850 C 0.29675 0.58986 0.20654 0.0
C6851 C 0.28018 0.57436 0.25629 0.0
C6852 C 0.28018 0.56501 0.25303 0.0
C6853 C 0.28491 0.58154 0.25129 0.0
C6854 C 0.28993 0.57951 0.24302 0.0
C6855 C 0.28983 0.57019 0.23966 0.0
C6856 C 0.28497 0.56301 0.2446 0.0
C6857 C 0.2952 0.58716 0.23787 0.0
C6858 C 0.29347 0.58847 0.22814 0.0
C6859 C 0.30156 0.59343 0.24258 0.0
C6860 C 0.30429 0.59205 0.25266 0.0
C6861 C 0.30796 0.5834 0.25581 0.0
C6862 C 0.31043 0.58211 0.26533 0.0
C6863 C 0.30931 0.58945 0.27176 0.0
C6864 C 0.30576 0.59811 0.26867 0.0
C6865 C 0.30327 0.59943 0.25916 0.0
H6866 H 0.31122 0.58844 0.27913 0.0
H6867 H 0.28904 0.60038 0.18623 0.0
H6868 H 0.37896 0.29993 0.20686 0.0
H6869 H 0.39302 0.29453 0.21535 0.0
H6870 H 0.40477 0.32284 0.21471 0.0
H6871 H 0.39081 0.32827 0.20595 0.0
H6872 H 0.41797 0.31006 0.21017 0.0
H6873 H 0.39551 0.31371 0.23499 0.0
H6874 H 0.38023 0.31154 0.24315 0.0
H6875 H 0.38418 0.28154 0.24406 0.0
H6876 H 0.39943 0.28352 0.23578 0.0
H6877 H 0.4547 0.30045 0.24401 0.0
H6878 H 0.4411 0.30692 0.23545 0.0
H6879 H 0.42756 0.27939 0.23544 0.0
H6880 H 0.44095 0.27294 0.24425 0.0
H6881 H 0.41538 0.29256 0.24063 0.0
H6882 H 0.43763 0.28892 0.21534 0.0
H6883 H 0.4529 0.29112 0.20718 0.0
H6884 H 0.44939 0.32118 0.20723 0.0
H6885 H 0.43414 0.31916 0.21551 0.0
C6886 C 0.38455 0.30502 0.20847 0.0
C6887 C 0.38374 0.31454 0.20571 0.0
C6888 C 0.39256 0.30193 0.21341 0.0
C6889 C 0.39993 0.3083 0.21576 0.0
C6890 C 0.39917 0.31781 0.213 0.0
C6891 C 0.39114 0.32091 0.20806 0.0
C6892 C 0.40846 0.30497 0.22099 0.0
C6893 C 0.41742 0.30636 0.2169 0.0
C6894 C 0.40774 0.29998 0.22969 0.0
C6895 C 0.39857 0.29876 0.23468 0.0
C6896 C 0.39308 0.30664 0.23686 0.0
C6897 C 0.38443 0.30545 0.24152 0.0
C6898 C 0.38122 0.29641 0.2441 0.0
C6899 C 0.38667 0.28854 0.24204 0.0
C6900 C 0.39532 0.2897 0.23737 0.0
C6901 C 0.44883 0.29577 0.24218 0.0
C6902 C 0.44896 0.28615 0.2448 0.0
C6903 C 0.44109 0.29947 0.23722 0.0
C6904 C 0.43332 0.29363 0.23473 0.0
C6905 C 0.43347 0.28403 0.23726 0.0
C6906 C 0.4412 0.28033 0.24221 0.0
C6907 C 0.4249 0.29755 0.22976 0.0
C6908 C 0.41594 0.29628 0.2339 0.0
C6909 C 0.42563 0.30266 0.22112 0.0
C6910 C 0.43479 0.30389 0.21614 0.0
C6911 C 0.44015 0.296 0.21369 0.0
C6912 C 0.4488 0.29722 0.20902 0.0
C6913 C 0.45213 0.30629 0.20671 0.0
C6914 C 0.44681 0.31416 0.20903 0.0
C6915 C 0.43816 0.31299 0.21371 0.0
H6916 H 0.45882 0.30721 0.2031 0.0
H6917 H 0.37452 0.2955 0.24771 0.0
H6918 H 0.69514 0.38848 0.21705 0.0
H6919 H 0.70383 0.40246 0.22252 0.0
H6920 H 0.72976 0.39135 0.21149 0.0
H6921 H 0.72114 0.37713 0.20627 0.0
H6922 H 0.73259 0.39835 0.22882 0.0
H6923 H 0.71841 0.40949 0.20019 0.0
H6924 H 0.70549 0.41228 0.18872 0.0
H6925 H 0.69104 0.429 0.20913 0.0
H6926 H 0.70381 0.4262 0.22078 0.0
H6927 H 0.75796 0.44142 0.23697 0.0
H6928 H 0.75052 0.42815 0.22856 0.0
H6929 H 0.72321 0.43596 0.23926 0.0
H6930 H 0.73057 0.44936 0.2475 0.0
H6931 H 0.72204 0.43071 0.22083 0.0
H6932 H 0.73571 0.41847 0.24974 0.0
H6933 H 0.74863 0.41562 0.2612 0.0
H6934 H 0.76414 0.40093 0.24 0.0
H6935 H 0.75136 0.40381 0.22837 0.0
C6936 C 0.7027 0.38895 0.21583 0.0
C6937 C 0.70744 0.38164 0.21123 0.0
C6938 C 0.70765 0.39702 0.21888 0.0
C6939 C 0.71744 0.39803 0.21732 0.0
C6940 C 0.7222 0.39075 0.21274 0.0
C6941 C 0.71725 0.38266 0.20969 0.0
C6942 C 0.72268 0.40658 0.22071 0.0
C6943 C 0.73039 0.40542 0.22692 0.0
C6944 C 0.71972 0.41584 0.21838 0.0
C6945 C 0.71204 0.41757 0.21138 0.0
C6946 C 0.71245 0.4137 0.20226 0.0
C6947 C 0.70515 0.4153 0.19572 0.0
C6948 C 0.69744 0.4208 0.1982 0.0
C6949 C 0.69702 0.42473 0.20722 0.0
C6950 C 0.70429 0.42316 0.21379 0.0
C6951 C 0.75035 0.44042 0.23739 0.0
C6952 C 0.74486 0.44643 0.24295 0.0
C6953 C 0.74611 0.43278 0.23265 0.0
C6954 C 0.73632 0.43098 0.23339 0.0
C6955 C 0.73078 0.43718 0.23862 0.0
C6956 C 0.73501 0.4448 0.24338 0.0
C6957 C 0.73186 0.42246 0.22901 0.0
C6958 C 0.7243 0.42363 0.22263 0.0
C6959 C 0.73496 0.41322 0.23116 0.0
C6960 C 0.74263 0.41145 0.23816 0.0
C6961 C 0.74191 0.4147 0.2475 0.0
C6962 C 0.7492 0.41307 0.25403 0.0
C6963 C 0.75721 0.40812 0.25132 0.0
C6964 C 0.75794 0.40478 0.24208 0.0
C6965 C 0.75067 0.4064 0.23552 0.0
H6966 H 0.76285 0.40687 0.25639 0.0
H6967 H 0.6918 0.42202 0.19312 0.0
H6968 H 0.64018 0.29567 0.81859 0.0
H6969 H 0.62644 0.28997 0.80957 0.0
H6970 H 0.61481 0.31794 0.80961 0.0
H6971 H 0.62845 0.32366 0.81887 0.0
H6972 H 0.60135 0.30462 0.81359 0.0
H6973 H 0.625 0.30955 0.78988 0.0
H6974 H 0.64065 0.30803 0.78245 0.0
H6975 H 0.63666 0.27793 0.78117 0.0
H6976 H 0.62103 0.27926 0.78872 0.0
H6977 H 0.56639 0.29499 0.77779 0.0
H6978 H 0.57956 0.30157 0.78714 0.0
H6979 H 0.59281 0.27434 0.78765 0.0
H6980 H 0.57986 0.2678 0.77808 0.0
H6981 H 0.60534 0.28798 0.78315 0.0
H6982 H 0.58184 0.28306 0.80724 0.0
H6983 H 0.56617 0.28463 0.81464 0.0
H6984 H 0.56987 0.31478 0.8151 0.0
H6985 H 0.58551 0.3134 0.80758 0.0
C6986 C 0.63467 0.30061 0.81674 0.0
C6987 C 0.63543 0.31013 0.81945 0.0
C6988 C 0.62685 0.29735 0.81151 0.0
C6989 C 0.61963 0.30355 0.80882 0.0
C6990 C 0.62031 0.31304 0.81157 0.0
C6991 C 0.62815 0.31631 0.8168 0.0
C6992 C 0.61136 0.30007 0.8032 0.0
C6993 C 0.60221 0.30111 0.80686 0.0
C6994 C 0.61248 0.29532 0.7945 0.0
C6995 C 0.62188 0.2945 0.78995 0.0
C6996 C 0.62749 0.3026 0.78809 0.0
C6997 C 0.63635 0.30177 0.78384 0.0
C6998 C 0.63966 0.29289 0.78136 0.0
C6999 C 0.63409 0.28481 0.78311 0.0
C7000 C 0.62523 0.2856 0.78736 0.0
C7001 C 0.5721 0.2904 0.7799 0.0
C7002 C 0.57204 0.28085 0.7772 0.0
C7003 C 0.5796 0.29415 0.78531 0.0
C7004 C 0.58715 0.28843 0.78816 0.0
C7005 C 0.58705 0.27889 0.78556 0.0
C7006 C 0.57958 0.27513 0.78016 0.0
C7007 C 0.59534 0.29243 0.79359 0.0
C7008 C 0.60447 0.29151 0.78987 0.0
C7009 C 0.5942 0.29728 0.80222 0.0
C7010 C 0.5848 0.29813 0.80675 0.0
C7011 C 0.57928 0.29003 0.80884 0.0
C7012 C 0.57041 0.29088 0.81308 0.0
C7013 C 0.56702 0.2998 0.81532 0.0
C7014 C 0.5725 0.30788 0.81335 0.0
C7015 C 0.58137 0.30707 0.80911 0.0
H7016 H 0.56015 0.30045 0.81859 0.0
H7017 H 0.64652 0.29226 0.77807 0.0
H7018 H 0.69096 0.62336 0.81594 0.0
H7019 H 0.69669 0.60971 0.80729 0.0
H7020 H 0.72553 0.61935 0.81168 0.0
H7021 H 0.71986 0.63315 0.82007 0.0
H7022 H 0.72313 0.61349 0.794 0.0
H7023 H 0.71597 0.60134 0.825 0.0
H7024 H 0.70594 0.59819 0.83893 0.0
H7025 H 0.6863 0.58229 0.82172 0.0
H7026 H 0.69616 0.58546 0.80765 0.0
H7027 H 0.73875 0.56135 0.79227 0.0
H7028 H 0.73209 0.57453 0.801 0.0
H7029 H 0.7198 0.58533 0.77515 0.0
H7030 H 0.72661 0.57233 0.76635 0.0
H7031 H 0.71423 0.58084 0.8039 0.0
H7032 H 0.72179 0.60943 0.77538 0.0
H7033 H 0.73294 0.61254 0.7623 0.0
H7034 H 0.75383 0.5955 0.77619 0.0
H7035 H 0.74286 0.5924 0.7894 0.0
C7036 C 0.69852 0.62263 0.81498 0.0
C7037 C 0.70495 0.62934 0.81875 0.0
C7038 C 0.70179 0.61477 0.81011 0.0
C7039 C 0.71156 0.61343 0.80892 0.0
C7040 C 0.71797 0.6202 0.81253 0.0
C7041 C 0.71472 0.62805 0.8174 0.0
C7042 C 0.71512 0.60499 0.80393 0.0
C7043 C 0.72114 0.60636 0.79615 0.0
C7044 C 0.71267 0.59566 0.80681 0.0
C7045 C 0.70676 0.59371 0.81526 0.0
C7046 C 0.70948 0.59723 0.82417 0.0
C7047 C 0.70383 0.59543 0.83209 0.0
C7048 C 0.69547 0.59006 0.8312 0.0
C7049 C 0.69276 0.58646 0.82239 0.0
C7050 C 0.69838 0.58825 0.81445 0.0
C7051 C 0.73461 0.56652 0.78845 0.0
C7052 C 0.73325 0.56579 0.7786 0.0
C7053 C 0.73076 0.57402 0.79346 0.0
C7054 C 0.72553 0.58098 0.78872 0.0
C7055 C 0.72389 0.5801 0.77895 0.0
C7056 C 0.72772 0.57261 0.77394 0.0
C7057 C 0.72212 0.58936 0.79391 0.0
C7058 C 0.71615 0.58798 0.80172 0.0
C7059 C 0.72474 0.59868 0.79117 0.0
C7060 C 0.73145 0.60061 0.78332 0.0
C7061 C 0.72877 0.60638 0.77565 0.0
C7062 C 0.73506 0.60813 0.76821 0.0
C7063 C 0.74408 0.60419 0.7684 0.0
C7064 C 0.74684 0.59852 0.77603 0.0
C7065 C 0.74058 0.59675 0.78349 0.0
H7066 H 0.74893 0.60555 0.76263 0.0
H7067 H 0.69111 0.58868 0.83735 0.0
H7068 H 0.39047 0.68302 0.80016 0.0
H7069 H 0.40418 0.69187 0.79411 0.0
H7070 H 0.39895 0.71422 0.81384 0.0
H7071 H 0.38537 0.7053 0.82015 0.0
H7072 H 0.40251 0.72081 0.79553 0.0
H7073 H 0.4165 0.6995 0.8182 0.0
H7074 H 0.41961 0.68392 0.82538 0.0
H7075 H 0.43162 0.67457 0.79931 0.0
H7076 H 0.42845 0.69006 0.79193 0.0
H7077 H 0.44527 0.74655 0.78994 0.0
H7078 H 0.43224 0.73729 0.79671 0.0
H7079 H 0.43956 0.71361 0.77935 0.0
H7080 H 0.45294 0.72269 0.77287 0.0
H7081 H 0.43485 0.70758 0.7964 0.0
H7082 H 0.42098 0.72821 0.77347 0.0
H7083 H 0.41765 0.74342 0.7656 0.0
H7084 H 0.40512 0.75359 0.7911 0.0
H7085 H 0.4085 0.73848 0.79916 0.0
C7086 C 0.39229 0.68975 0.80333 0.0
C7087 C 0.3868 0.6934 0.8107 0.0
C7088 C 0.40011 0.69483 0.79981 0.0
C7089 C 0.40263 0.70367 0.80357 0.0
C7090 C 0.39712 0.70741 0.81083 0.0
C7091 C 0.38932 0.70231 0.81439 0.0
C7092 C 0.41099 0.70903 0.7999 0.0
C7093 C 0.40961 0.71798 0.79584 0.0
C7094 C 0.42019 0.70521 0.80004 0.0
C7095 C 0.42215 0.69591 0.80449 0.0
C7096 C 0.41973 0.6941 0.81398 0.0
C7097 C 0.42152 0.68529 0.81809 0.0
C7098 C 0.42579 0.67825 0.8128 0.0
C7099 C 0.4283 0.68002 0.80339 0.0
C7100 C 0.42652 0.68882 0.79924 0.0
C7101 C 0.44425 0.73931 0.78768 0.0
C7102 C 0.45018 0.73539 0.78082 0.0
C7103 C 0.43669 0.73406 0.79147 0.0
C7104 C 0.43478 0.72481 0.78841 0.0
C7105 C 0.44084 0.72076 0.78178 0.0
C7106 C 0.44845 0.726 0.77802 0.0
C7107 C 0.42641 0.7194 0.79205 0.0
C7108 C 0.42777 0.71043 0.79609 0.0
C7109 C 0.41716 0.72316 0.79178 0.0
C7110 C 0.41508 0.73225 0.78695 0.0
C7111 C 0.41758 0.73372 0.77742 0.0
C7112 C 0.41567 0.74232 0.77292 0.0
C7113 C 0.4112 0.74948 0.77785 0.0
C7114 C 0.4086 0.74804 0.78729 0.0
C7115 C 0.4105 0.73946 0.79183 0.0
H7116 H 0.40973 0.75613 0.77436 0.0
H7117 H 0.42716 0.67144 0.81599 0.0
H7118 H 0.31027 0.37858 0.80997 0.0
H7119 H 0.3021 0.39242 0.80372 0.0
H7120 H 0.32897 0.40512 0.79594 0.0
H7121 H 0.3372 0.39146 0.80247 0.0
H7122 H 0.31787 0.41802 0.8034 0.0
H7123 H 0.31468 0.39451 0.77938 0.0
H7124 H 0.3105 0.37887 0.77285 0.0
H7125 H 0.28142 0.3826 0.78052 0.0
H7126 H 0.28545 0.39821 0.78722 0.0
H7127 H 0.28747 0.44179 0.76316 0.0
H7128 H 0.29745 0.42913 0.76925 0.0
H7129 H 0.29058 0.43685 0.79784 0.0
H7130 H 0.28086 0.44972 0.79181 0.0
H7131 H 0.29258 0.41392 0.77914 0.0
H7132 H 0.30883 0.4314 0.81265 0.0
H7133 H 0.31405 0.44719 0.81807 0.0
H7134 H 0.31893 0.45586 0.78929 0.0
H7135 H 0.31386 0.4401 0.78372 0.0
C7136 C 0.31446 0.38436 0.80704 0.0
C7137 C 0.3244 0.38386 0.80668 0.0
C7138 C 0.30977 0.39224 0.80338 0.0
C7139 C 0.31491 0.39977 0.79924 0.0
C7140 C 0.32484 0.39939 0.79906 0.0
C7141 C 0.32953 0.39152 0.80272 0.0
C7142 C 0.30994 0.40799 0.79499 0.0
C7143 C 0.31233 0.41712 0.79811 0.0
C7144 C 0.30284 0.40686 0.78793 0.0
C7145 C 0.30039 0.39749 0.78388 0.0
C7146 C 0.30741 0.39196 0.77974 0.0
C7147 C 0.30507 0.38311 0.77599 0.0
C7148 C 0.29571 0.37973 0.77629 0.0
C7149 C 0.28867 0.38522 0.78031 0.0
C7150 C 0.29098 0.39407 0.78407 0.0
C7151 C 0.28824 0.44093 0.77075 0.0
C7152 C 0.28336 0.4468 0.77699 0.0
C7153 C 0.29388 0.43362 0.77422 0.0
C7154 C 0.2948 0.43204 0.78401 0.0
C7155 C 0.29007 0.43798 0.79026 0.0
C7156 C 0.28445 0.4453 0.7868 0.0
C7157 C 0.3004 0.42395 0.78767 0.0
C7158 C 0.29811 0.41483 0.78444 0.0
C7159 C 0.30772 0.42511 0.79449 0.0
C7160 C 0.31088 0.43459 0.79777 0.0
C7161 C 0.31105 0.43667 0.80749 0.0
C7162 C 0.31398 0.44561 0.81058 0.0
C7163 C 0.31679 0.45253 0.80402 0.0
C7164 C 0.31671 0.45051 0.79436 0.0
C7165 C 0.3138 0.44157 0.79123 0.0
H7166 H 0.31905 0.45945 0.80643 0.0
H7167 H 0.29391 0.37288 0.77339 0.0
H7168 H 0.71883 0.63571 0.20383 0.0
H7169 H 0.72733 0.62177 0.20934 0.0
H7170 H 0.70275 0.61252 0.22507 0.0
H7171 H 0.69416 0.62636 0.21951 0.0
H7172 H 0.71877 0.61096 0.23558 0.0
H7173 H 0.70839 0.602 0.20443 0.0
H7174 H 0.70657 0.60381 0.18714 0.0
H7175 H 0.73682 0.60399 0.18398 0.0
H7176 H 0.73883 0.60232 0.20127 0.0
H7177 H 0.73449 0.56451 0.24598 0.0
H7178 H 0.72528 0.5778 0.23998 0.0
H7179 H 0.74919 0.58732 0.22338 0.0
H7180 H 0.75844 0.57413 0.22938 0.0
H7181 H 0.73319 0.58855 0.21326 0.0
H7182 H 0.74372 0.59794 0.24419 0.0
H7183 H 0.74582 0.59637 0.26147 0.0
H7184 H 0.71561 0.59567 0.26506 0.0
H7185 H 0.71334 0.5971 0.24777 0.0
C7186 C 0.71519 0.63066 0.20838 0.0
C7187 C 0.70579 0.63218 0.21121 0.0
C7188 C 0.72007 0.6227 0.21154 0.0
C7189 C 0.71565 0.61604 0.21756 0.0
C7190 C 0.70631 0.61756 0.22045 0.0
C7191 C 0.70142 0.62551 0.21729 0.0
C7192 C 0.72079 0.60754 0.22091 0.0
C7193 C 0.7218 0.60599 0.2307 0.0
C7194 C 0.72495 0.60115 0.21456 0.0
C7195 C 0.72376 0.60212 0.20415 0.0
C7196 C 0.71466 0.6025 0.20005 0.0
C7197 C 0.71359 0.60349 0.19025 0.0
C7198 C 0.72158 0.60404 0.18447 0.0
C7199 C 0.73064 0.60358 0.18847 0.0
C7200 C 0.73175 0.6026 0.19827 0.0
C7201 C 0.7378 0.56944 0.24107 0.0
C7202 C 0.74722 0.56822 0.23817 0.0
C7203 C 0.73252 0.57704 0.23764 0.0
C7204 C 0.73657 0.58364 0.2313 0.0
C7205 C 0.74589 0.58233 0.22824 0.0
C7206 C 0.75116 0.57473 0.23165 0.0
C7207 C 0.73117 0.59198 0.22793 0.0
C7208 C 0.73012 0.59351 0.21815 0.0
C7209 C 0.72702 0.59837 0.23429 0.0
C7210 C 0.72836 0.59753 0.24468 0.0
C7211 C 0.73753 0.59738 0.24866 0.0
C7212 C 0.73875 0.59652 0.25845 0.0
C7213 C 0.73085 0.5959 0.26436 0.0
C7214 C 0.72172 0.59614 0.26048 0.0
C7215 C 0.72046 0.59698 0.25068 0.0
H7216 H 0.73181 0.59524 0.27194 0.0
H7217 H 0.72074 0.60481 0.17688 0.0
H7218 H 0.70496 0.38707 0.82703 0.0
H7219 H 0.71397 0.40074 0.82105 0.0
H7220 H 0.70644 0.39315 0.79243 0.0
H7221 H 0.69772 0.3793 0.79833 0.0
H7222 H 0.7247 0.39803 0.79356 0.0
H7223 H 0.69541 0.41121 0.80397 0.0
H7224 H 0.68271 0.4144 0.81536 0.0
H7225 H 0.70286 0.42809 0.83384 0.0
H7226 H 0.71571 0.42486 0.82261 0.0
H7227 H 0.73671 0.44048 0.76986 0.0
H7228 H 0.72762 0.42735 0.77674 0.0
H7229 H 0.73679 0.43567 0.80468 0.0
H7230 H 0.74571 0.44904 0.79786 0.0
H7231 H 0.7181 0.43049 0.80441 0.0
H7232 H 0.74731 0.41761 0.79377 0.0
H7233 H 0.75995 0.4145 0.78229 0.0
H7234 H 0.73986 0.40024 0.76419 0.0
H7235 H 0.72707 0.40339 0.7755 0.0
C7236 C 0.70529 0.38825 0.81946 0.0
C7237 C 0.70057 0.38209 0.81317 0.0
C7238 C 0.71037 0.39614 0.81606 0.0
C7239 C 0.71079 0.39806 0.80629 0.0
C7240 C 0.70619 0.39185 0.8 0.0
C7241 C 0.70113 0.38397 0.80339 0.0
C7242 C 0.71607 0.40648 0.8026 0.0
C7243 C 0.72317 0.40513 0.79585 0.0
C7244 C 0.71425 0.41574 0.80576 0.0
C7245 C 0.70654 0.41771 0.8125 0.0
C7246 C 0.69715 0.41484 0.8105 0.0
C7247 C 0.68992 0.41666 0.81692 0.0
C7248 C 0.69198 0.42142 0.82533 0.0
C7249 C 0.70127 0.42439 0.82733 0.0
C7250 C 0.70853 0.42257 0.82094 0.0
C7251 C 0.73668 0.43964 0.77748 0.0
C7252 C 0.74196 0.44582 0.7833 0.0
C7253 C 0.73155 0.43205 0.7814 0.0
C7254 C 0.73164 0.43043 0.79122 0.0
C7255 C 0.73666 0.43675 0.79709 0.0
C7256 C 0.74181 0.44435 0.79317 0.0
C7257 C 0.72665 0.42204 0.79531 0.0
C7258 C 0.71963 0.42338 0.80214 0.0
C7259 C 0.72853 0.41277 0.79223 0.0
C7260 C 0.73622 0.41081 0.78544 0.0
C7261 C 0.74558 0.41387 0.78731 0.0
C7262 C 0.75277 0.41209 0.78084 0.0
C7263 C 0.75071 0.40719 0.77251 0.0
C7264 C 0.74145 0.40404 0.77064 0.0
C7265 C 0.73422 0.40582 0.77708 0.0
H7266 H 0.75629 0.40582 0.76751 0.0
H7267 H 0.68638 0.42283 0.83029 0.0
H7268 H 0.62728 0.69478 0.8224 0.0
H7269 H 0.61359 0.70299 0.81577 0.0
H7270 H 0.62601 0.70198 0.78799 0.0
H7271 H 0.63983 0.69406 0.79461 0.0
H7272 H 0.61865 0.71886 0.79093 0.0
H7273 H 0.60816 0.6866 0.79467 0.0
H7274 H 0.60508 0.67169 0.80332 0.0
H7275 H 0.58626 0.68591 0.82201 0.0
H7276 H 0.58933 0.70095 0.81353 0.0
H7277 H 0.57877 0.72607 0.76141 0.0
H7278 H 0.59194 0.71865 0.76979 0.0
H7279 H 0.57864 0.72425 0.7965 0.0
H7280 H 0.56537 0.73171 0.78812 0.0
H7281 H 0.5861 0.70572 0.7951 0.0
H7282 H 0.59609 0.7379 0.79046 0.0
H7283 H 0.59904 0.75253 0.78129 0.0
H7284 H 0.61879 0.73808 0.76378 0.0
H7285 H 0.61584 0.72332 0.77276 0.0
C7286 C 0.62715 0.6964 0.8149 0.0
C7287 C 0.63464 0.6937 0.80903 0.0
C7288 C 0.61927 0.70102 0.8111 0.0
C7289 C 0.6187 0.703 0.80135 0.0
C7290 C 0.62626 0.7005 0.79552 0.0
C7291 C 0.63412 0.69589 0.79931 0.0
C7292 C 0.61023 0.70763 0.79716 0.0
C7293 C 0.61155 0.71592 0.79177 0.0
C7294 C 0.60092 0.70395 0.79843 0.0
C7295 C 0.59906 0.69492 0.80354 0.0
C7296 C 0.60343 0.68657 0.80067 0.0
C7297 C 0.60167 0.67809 0.80554 0.0
C7298 C 0.5955 0.67785 0.81323 0.0
C7299 C 0.59106 0.6861 0.81606 0.0
C7300 C 0.5928 0.6946 0.81123 0.0
C7301 C 0.57858 0.72562 0.76906 0.0
C7302 C 0.57102 0.72946 0.77411 0.0
C7303 C 0.58615 0.72144 0.77384 0.0
C7304 C 0.58631 0.72097 0.78377 0.0
C7305 C 0.57866 0.72456 0.78884 0.0
C7306 C 0.57112 0.72885 0.78405 0.0
C7307 C 0.59457 0.71685 0.78879 0.0
C7308 C 0.5932 0.70867 0.79433 0.0
C7309 C 0.60385 0.7206 0.78762 0.0
C7310 C 0.60568 0.72948 0.78223 0.0
C7311 C 0.601 0.73782 0.7846 0.0
C7312 C 0.60268 0.74614 0.77945 0.0
C7313 C 0.60908 0.74623 0.77194 0.0
C7314 C 0.61383 0.738 0.76959 0.0
C7315 C 0.61216 0.72965 0.77471 0.0
H7316 H 0.61038 0.75268 0.76796 0.0
H7317 H 0.59415 0.67128 0.81698 0.0
H7318 H 0.32565 0.62676 0.80853 0.0
H7319 H 0.31887 0.61351 0.79963 0.0
H7320 H 0.29579 0.6113 0.81941 0.0
H7321 H 0.30238 0.62468 0.82823 0.0
H7322 H 0.30322 0.59389 0.81511 0.0
H7323 H 0.29217 0.62137 0.79836 0.0
H7324 H 0.29395 0.63667 0.79004 0.0
H7325 H 0.31148 0.62382 0.76919 0.0
H7326 H 0.30991 0.60847 0.77748 0.0
H7327 H 0.27302 0.5636 0.78797 0.0
H7328 H 0.27988 0.5764 0.79739 0.0
H7329 H 0.30076 0.5818 0.77577 0.0
H7330 H 0.29357 0.5695 0.76603 0.0
H7331 H 0.29441 0.59766 0.78125 0.0
H7332 H 0.30582 0.5703 0.79769 0.0
H7333 H 0.30457 0.55493 0.80597 0.0
H7334 H 0.28716 0.56725 0.82724 0.0
H7335 H 0.2882 0.58267 0.81902 0.0
C7336 C 0.31908 0.62353 0.81095 0.0
C7337 C 0.31456 0.62684 0.81911 0.0
C7338 C 0.31524 0.61592 0.80587 0.0
C7339 C 0.30679 0.61145 0.80882 0.0
C7340 C 0.30234 0.61462 0.81702 0.0
C7341 C 0.30615 0.62226 0.82208 0.0
C7342 C 0.30254 0.60354 0.80328 0.0
C7343 C 0.30118 0.59472 0.80773 0.0
C7344 C 0.30009 0.60458 0.79361 0.0
C7345 C 0.301 0.61379 0.78859 0.0
C7346 C 0.29647 0.62182 0.79205 0.0
C7347 C 0.29743 0.6305 0.78733 0.0
C7348 C 0.30285 0.63122 0.77911 0.0
C7349 C 0.3073 0.62326 0.77557 0.0
C7350 C 0.30637 0.61457 0.78027 0.0
C7351 C 0.27903 0.56754 0.78517 0.0
C7352 C 0.28273 0.56543 0.7762 0.0
C7353 C 0.28304 0.5748 0.79064 0.0
C7354 C 0.29094 0.58002 0.78737 0.0
C7355 C 0.29469 0.57787 0.77848 0.0
C7356 C 0.29062 0.57072 0.77296 0.0
C7357 C 0.29514 0.58791 0.79303 0.0
C7358 C 0.29646 0.59677 0.78862 0.0
C7359 C 0.29763 0.58687 0.80272 0.0
C7360 C 0.29701 0.57762 0.80769 0.0
C7361 C 0.30166 0.56972 0.8041 0.0
C7362 C 0.301 0.561 0.80878 0.0
C7363 C 0.29577 0.56011 0.81711 0.0
C7364 C 0.2912 0.56795 0.82078 0.0
C7365 C 0.29183 0.57668 0.81612 0.0
H7366 H 0.29526 0.55336 0.82073 0.0
H7367 H 0.30358 0.63794 0.77546 0.0
H7368 H 0.39734 0.31223 0.82686 0.0
H7369 H 0.41078 0.30608 0.81813 0.0
H7370 H 0.39382 0.30535 0.79262 0.0
H7371 H 0.38027 0.31126 0.80136 0.0
H7372 H 0.4035 0.28928 0.79487 0.0
H7373 H 0.41077 0.32244 0.79593 0.0
H7374 H 0.41346 0.33791 0.80347 0.0
H7375 H 0.43656 0.32661 0.81968 0.0
H7376 H 0.43392 0.31102 0.81233 0.0
H7377 H 0.43962 0.28315 0.76138 0.0
H7378 H 0.42682 0.2896 0.7707 0.0
H7379 H 0.44475 0.28939 0.79555 0.0
H7380 H 0.45777 0.28318 0.78614 0.0
H7381 H 0.43483 0.30571 0.79409 0.0
H7382 H 0.42766 0.27255 0.79263 0.0
H7383 H 0.42501 0.25723 0.78479 0.0
H7384 H 0.40165 0.26868 0.76908 0.0
H7385 H 0.40424 0.28412 0.77674 0.0
C7386 C 0.39645 0.31072 0.8194 0.0
C7387 C 0.38771 0.31224 0.81481 0.0
C7388 C 0.40417 0.30728 0.8144 0.0
C7389 C 0.40335 0.30532 0.80469 0.0
C7390 C 0.39464 0.30683 0.8001 0.0
C7391 C 0.38691 0.31028 0.80509 0.0
C7392 C 0.41151 0.30154 0.79937 0.0
C7393 C 0.41031 0.29294 0.7946 0.0
C7394 C 0.42048 0.30618 0.79922 0.0
C7395 C 0.42208 0.31554 0.80365 0.0
C7396 C 0.41637 0.32323 0.80116 0.0
C7397 C 0.41789 0.33202 0.80539 0.0
C7398 C 0.42516 0.33323 0.81207 0.0
C7399 C 0.43092 0.32566 0.81452 0.0
C7400 C 0.42942 0.31684 0.81032 0.0
C7401 C 0.44091 0.28459 0.7688 0.0
C7402 C 0.44976 0.28267 0.773 0.0
C7403 C 0.43353 0.28818 0.77415 0.0
C7404 C 0.43477 0.28988 0.78386 0.0
C7405 C 0.44362 0.2881 0.78807 0.0
C7406 C 0.45103 0.28449 0.78271 0.0
C7407 C 0.42679 0.29349 0.78955 0.0
C7408 C 0.42802 0.30204 0.79439 0.0
C7409 C 0.41783 0.28882 0.78976 0.0
C7410 C 0.4162 0.27952 0.7852 0.0
C7411 C 0.422 0.27182 0.78746 0.0
C7412 C 0.4205 0.26312 0.78305 0.0
C7413 C 0.41318 0.26199 0.77642 0.0
C7414 C 0.40732 0.26957 0.77421 0.0
C7415 C 0.4088 0.27829 0.77859 0.0
H7416 H 0.41204 0.25524 0.77302 0.0
H7417 H 0.42633 0.34005 0.81533 0.0
H7418 H 0.3158 0.37907 0.22598 0.0
H7419 H 0.30672 0.39251 0.23141 0.0
H7420 H 0.30609 0.40379 0.20297 0.0
H7421 H 0.31542 0.39048 0.19752 0.0
H7422 H 0.30994 0.41754 0.21553 0.0
H7423 H 0.28667 0.39278 0.21217 0.0
H7424 H 0.27968 0.37687 0.21463 0.0
H7425 H 0.2789 0.38153 0.24461 0.0
H7426 H 0.286 0.39742 0.24234 0.0
H7427 H 0.26231 0.4397 0.23207 0.0
H7428 H 0.27134 0.4271 0.22489 0.0
H7429 H 0.29644 0.43653 0.2399 0.0
H7430 H 0.28752 0.44937 0.24689 0.0
H7431 H 0.27982 0.41255 0.23293 0.0
H7432 H 0.31601 0.43146 0.2268 0.0
H7433 H 0.32229 0.44744 0.22318 0.0
H7434 H 0.29586 0.45467 0.20997 0.0
H7435 H 0.28947 0.43869 0.21339 0.0
C7436 C 0.3138 0.38444 0.22088 0.0
C7437 C 0.31634 0.38368 0.2113 0.0
C7438 C 0.30854 0.39209 0.22399 0.0
C7439 C 0.30564 0.39913 0.21759 0.0
C7440 C 0.30822 0.39844 0.20804 0.0
C7441 C 0.31348 0.39078 0.20492 0.0
C7442 C 0.29992 0.4072 0.22087 0.0
C7443 C 0.30335 0.41645 0.21933 0.0
C7444 C 0.29124 0.4058 0.22571 0.0
C7445 C 0.28695 0.39626 0.22709 0.0
C7446 C 0.28507 0.39038 0.2193 0.0
C7447 C 0.28108 0.38138 0.22065 0.0
C7448 C 0.27887 0.37818 0.22977 0.0
C7449 C 0.28062 0.38401 0.23755 0.0
C7450 C 0.28463 0.39302 0.23623 0.0
C7451 C 0.2698 0.43923 0.23371 0.0
C7452 C 0.27419 0.44561 0.24003 0.0
C7453 C 0.27493 0.43195 0.22967 0.0
C7454 C 0.28459 0.43088 0.23181 0.0
C7455 C 0.28903 0.43727 0.23805 0.0
C7456 C 0.28389 0.44456 0.2421 0.0
C7457 C 0.28991 0.4229 0.22772 0.0
C7458 C 0.28641 0.41365 0.22913 0.0
C7459 C 0.29843 0.42431 0.22263 0.0
C7460 C 0.30224 0.43391 0.22044 0.0
C7461 C 0.31155 0.43645 0.22309 0.0
C7462 C 0.31513 0.44551 0.22108 0.0
C7463 C 0.30947 0.45208 0.21638 0.0
C7464 C 0.30023 0.44959 0.21364 0.0
C7465 C 0.29662 0.44053 0.21563 0.0
H7466 H 0.31224 0.45909 0.21483 0.0
H7467 H 0.27577 0.37121 0.23081 0.0
H7468 H 0.62907 0.32236 0.19877 0.0
H7469 H 0.61469 0.31628 0.20649 0.0
H7470 H 0.63045 0.2931 0.21828 0.0
H7471 H 0.64482 0.29907 0.21049 0.0
H7472 H 0.61332 0.28733 0.21043 0.0
H7473 H 0.62477 0.31112 0.23206 0.0
H7474 H 0.6302 0.3271 0.23663 0.0
H7475 H 0.6035 0.33841 0.22774 0.0
H7476 H 0.59795 0.32251 0.22299 0.0
H7477 H 0.58084 0.27041 0.24486 0.0
H7478 H 0.59443 0.27645 0.23594 0.0
H7479 H 0.57877 0.30131 0.22824 0.0
H7480 H 0.56523 0.29539 0.23745 0.0
H7481 H 0.5956 0.30646 0.23341 0.0
H7482 H 0.58379 0.28291 0.21208 0.0
H7483 H 0.57819 0.26709 0.20718 0.0
H7484 H 0.60513 0.25551 0.21484 0.0
H7485 H 0.61086 0.27124 0.21992 0.0
C7486 C 0.62946 0.31595 0.20298 0.0
C7487 C 0.6381 0.31121 0.20404 0.0
C7488 C 0.62126 0.31252 0.20743 0.0
C7489 C 0.62151 0.30427 0.21301 0.0
C7490 C 0.63009 0.29949 0.21403 0.0
C7491 C 0.63832 0.30295 0.20963 0.0
C7492 C 0.61281 0.30058 0.21774 0.0
C7493 C 0.60949 0.29146 0.21554 0.0
C7494 C 0.60767 0.30608 0.22419 0.0
C7495 C 0.61098 0.31564 0.22707 0.0
C7496 C 0.62008 0.31703 0.231 0.0
C7497 C 0.62318 0.32607 0.23364 0.0
C7498 C 0.61721 0.33377 0.23245 0.0
C7499 C 0.60812 0.33244 0.22864 0.0
C7500 C 0.605 0.32341 0.22598 0.0
C7501 C 0.58023 0.27709 0.24112 0.0
C7502 C 0.57194 0.2824 0.24179 0.0
C7503 C 0.58802 0.28054 0.23601 0.0
C7504 C 0.58762 0.2893 0.23127 0.0
C7505 C 0.57928 0.29455 0.23182 0.0
C7506 C 0.57153 0.29115 0.23706 0.0
C7507 C 0.59605 0.29315 0.22612 0.0
C7508 C 0.59935 0.30231 0.22826 0.0
C7509 C 0.60113 0.28771 0.21954 0.0
C7510 C 0.59772 0.27825 0.21645 0.0
C7511 C 0.5885 0.27698 0.21278 0.0
C7512 C 0.58531 0.26803 0.20996 0.0
C7513 C 0.5913 0.26029 0.21072 0.0
C7514 C 0.6005 0.2615 0.21427 0.0
C7515 C 0.60373 0.27044 0.21711 0.0
H7516 H 0.58881 0.25337 0.20853 0.0
H7517 H 0.61962 0.34076 0.2345 0.0
H7518 H 0.39533 0.69149 0.19424 0.0
H7519 H 0.40931 0.69778 0.20255 0.0
H7520 H 0.39135 0.70909 0.22414 0.0
H7521 H 0.37734 0.70294 0.21578 0.0
H7522 H 0.4042 0.72171 0.21953 0.0
H7523 H 0.40478 0.68884 0.2277 0.0
H7524 H 0.40477 0.67169 0.22478 0.0
H7525 H 0.43064 0.67475 0.20915 0.0
H7526 H 0.43074 0.69195 0.21187 0.0
H7527 H 0.4384 0.72945 0.25568 0.0
H7528 H 0.42526 0.72296 0.24629 0.0
H7529 H 0.4445 0.71692 0.22363 0.0
H7530 H 0.45776 0.72343 0.23305 0.0
H7531 H 0.4316 0.7018 0.22813 0.0
H7532 H 0.43098 0.73501 0.22096 0.0
H7533 H 0.43082 0.75195 0.22482 0.0
H7534 H 0.40461 0.7479 0.23968 0.0
H7535 H 0.40468 0.7309 0.23602 0.0
C7536 C 0.39437 0.69524 0.20081 0.0
C7537 C 0.38523 0.6967 0.20437 0.0
C7538 C 0.40237 0.69883 0.20556 0.0
C7539 C 0.40141 0.70383 0.21405 0.0
C7540 C 0.39228 0.70528 0.2176 0.0
C7541 C 0.38428 0.70177 0.21282 0.0
C7542 C 0.40989 0.70769 0.21914 0.0
C7543 C 0.41013 0.71731 0.22149 0.0
C7544 C 0.41775 0.70203 0.22155 0.0
C7545 C 0.41771 0.69169 0.2199 0.0
C7546 C 0.41043 0.68587 0.22357 0.0
C7547 C 0.41041 0.67614 0.22197 0.0
C7548 C 0.41768 0.67214 0.21676 0.0
C7549 C 0.425 0.67786 0.21317 0.0
C7550 C 0.42505 0.6876 0.21474 0.0
C7551 C 0.43986 0.72668 0.24872 0.0
C7552 C 0.44912 0.72692 0.24511 0.0
C7553 C 0.43233 0.72303 0.24334 0.0
C7554 C 0.4339 0.71951 0.23424 0.0
C7555 C 0.44315 0.71962 0.23064 0.0
C7556 C 0.45069 0.72338 0.23599 0.0
C7557 C 0.42582 0.71575 0.22854 0.0
C7558 C 0.42567 0.70617 0.2261 0.0
C7559 C 0.41798 0.72142 0.22614 0.0
C7560 C 0.41788 0.73166 0.22828 0.0
C7561 C 0.42522 0.73771 0.22511 0.0
C7562 C 0.42514 0.74733 0.22725 0.0
C7563 C 0.41772 0.751 0.23251 0.0
C7564 C 0.41035 0.74505 0.23562 0.0
C7565 C 0.4104 0.73542 0.2335 0.0
H7566 H 0.41767 0.75845 0.23417 0.0
H7567 H 0.41766 0.6646 0.21553 0.0
loop_
_geom_bond_atom_site_label_1
_geom_bond_atom_site_label_2
_geom_bond_distance
_geom_bond_site_symmetry_2
_ccdc_geom_bond_type
C0 C1 1.264 . S
C0 C5 1.479 . S
C0 C10 1.465 . S
C1 C0 1.264 . S
C1 C3 1.339 . S
C1 H28 0.931 . S
C2 C3 1.395 . S
C2 C4 1.320 . S
C3 C1 1.339 . S
C3 C2 1.395 . S
C3 H29 0.929 . S
C4 C2 1.320 . S
C4 C5 1.405 . S
C4 H30 0.930 . S
C5 C0 1.479 . S
C5 C4 1.405 . S
C5 H31 0.931 . S
U6 O7 2.454 . S
U6 O8 2.458 . S
U6 C9 2.984 . S
U6 C10 2.847 . S
U6 C23 2.882 . S
U6 O24 2.441 . S
U6 O25 2.420 . S
U6 O26 2.455 . S
U6 O27 2.449 . S
O7 U6 2.454 . S
O7 C9 1.353 . S
O8 U6 2.458 . S
O8 C9 1.286 . S
C9 U6 2.984 . S
C9 O7 1.353 . S
C9 O8 1.286 . S
C9 C11 1.363 . S
C10 C0 1.465 . S
C10 U6 2.847 . S
C10 O24 1.249 . S
C10 O25 1.202 . S
C11 C9 1.363 . S
C11 C13 1.408 . S
C11 C16 1.342 . S
C12 C13 1.310 . S
C12 C15 1.461 . S
C12 H32 0.932 . S
C13 C11 1.408 . S
C13 C12 1.310 . S
C13 H33 0.930 . S
C14 C15 1.474 . S
C14 C16 1.285 . S
C14 H34 0.929 . S
C15 C12 1.461 . S
C15 C14 1.474 . S
C16 C11 1.342 . S
C16 C14 1.285 . S
C16 H35 0.930 . S
C17 C20 1.424 . S
C17 C22 1.245 . S
C17 C23 1.428 . S
C18 C21 1.260 . S
C18 C22 1.477 . S
C18 H36 0.932 . S
C19 C20 1.384 . S
C19 C21 1.479 . S
C19 H37 0.929 . S
C20 C17 1.424 . S
C20 C19 1.384 . S
C20 H38 0.928 . S
C21 C18 1.260 . S
C21 C19 1.479 . S
C22 C17 1.245 . S
C22 C18 1.477 . S
C22 H39 0.932 . S
C23 U6 2.882 . S
C23 C17 1.428 . S
C23 O26 1.301 . S
C23 O27 1.282 . S
O24 U6 2.441 . S
O24 C10 1.249 . S
O25 U6 2.420 . S
O25 C10 1.202 . S
O26 U6 2.455 . S
O26 C23 1.301 . S
O27 U6 2.449 . S
O27 C23 1.282 . S
H28 C1 0.931 . S
H29 C3 0.929 . S
H30 C4 0.930 . S
H31 C5 0.931 . S
H32 C12 0.932 . S
H33 C13 0.930 . S
H34 C14 0.929 . S
H35 C16 0.930 . S
H36 C18 0.932 . S
H37 C19 0.929 . S
H38 C20 0.928 . S
H39 C22 0.932 . S
C40 C41 1.264 . S
C40 C45 1.479 . S
C40 C50 1.465 . S
C41 C40 1.264 . S
C41 C43 1.339 . S
C41 H68 0.931 . S
C42 C43 1.395 . S
C42 C44 1.320 . S
C43 C41 1.339 . S
C43 C42 1.395 . S
C43 H69 0.929 . S
C44 C42 1.320 . S
C44 C45 1.405 . S
C44 H70 0.930 . S
C45 C40 1.479 . S
C45 C44 1.405 . S
C45 H71 0.931 . S
U46 O47 2.454 . S
U46 O48 2.458 . S
U46 C49 2.984 . S
U46 C50 2.847 . S
U46 C63 2.882 . S
U46 O64 2.441 . S
U46 O65 2.420 . S
U46 O66 2.455 . S
U46 O67 2.449 . S
O47 U46 2.454 . S
O47 C49 1.353 . S
O48 U46 2.458 . S
O48 C49 1.286 . S
C49 U46 2.984 . S
C49 O47 1.353 . S
C49 O48 1.286 . S
C49 C51 1.363 . S
C50 C40 1.465 . S
C50 U46 2.847 . S
C50 O64 1.249 . S
C50 O65 1.202 . S
C51 C49 1.363 . S
C51 C53 1.408 . S
C51 C56 1.342 . S
C52 C53 1.310 . S
C52 C55 1.461 . S
C52 H72 0.932 . S
C53 C51 1.408 . S
C53 C52 1.310 . S
C53 H73 0.930 . S
C54 C55 1.474 . S
C54 C56 1.285 . S
C54 H74 0.929 . S
C55 C52 1.461 . S
C55 C54 1.474 . S
C56 C51 1.342 . S
C56 C54 1.285 . S
C56 H75 0.930 . S
C57 C60 1.424 . S
C57 C62 1.245 . S
C57 C63 1.428 . S
C58 C61 1.260 . S
C58 C62 1.477 . S
C58 H76 0.932 . S
C59 C60 1.384 . S
C59 C61 1.479 . S
C59 H77 0.929 . S
C60 C57 1.424 . S
C60 C59 1.384 . S
C60 H78 0.928 . S
C61 C58 1.260 . S
C61 C59 1.479 . S
C62 C57 1.245 . S
C62 C58 1.477 . S
C62 H79 0.932 . S
C63 U46 2.882 . S
C63 C57 1.428 . S
C63 O66 1.301 . S
C63 O67 1.282 . S
O64 U46 2.441 . S
O64 C50 1.249 . S
O65 U46 2.420 . S
O65 C50 1.202 . S
O66 U46 2.455 . S
O66 C63 1.301 . S
O67 U46 2.449 . S
O67 C63 1.282 . S
H68 C41 0.931 . S
H69 C43 0.929 . S
H70 C44 0.930 . S
H71 C45 0.931 . S
H72 C52 0.932 . S
H73 C53 0.930 . S
H74 C54 0.929 . S
H75 C56 0.930 . S
H76 C58 0.932 . S
H77 C59 0.929 . S
H78 C60 0.928 . S
H79 C62 0.932 . S
C80 C81 1.264 . S
C80 C85 1.479 . S
C80 C90 1.465 . S
C81 C80 1.264 . S
C81 C83 1.339 . S
C81 H108 0.931 . S
C82 C83 1.395 . S
C82 C84 1.320 . S
C83 C81 1.339 . S
C83 C82 1.395 . S
C83 H109 0.929 . S
C84 C82 1.320 . S
C84 C85 1.405 . S
C84 H110 0.930 . S
C85 C80 1.479 . S
C85 C84 1.405 . S
C85 H111 0.931 . S
U86 O87 2.454 . S
U86 O88 2.458 . S
U86 C89 2.984 . S
U86 C90 2.847 . S
U86 C103 2.882 . S
U86 O104 2.441 . S
U86 O105 2.420 . S
U86 O106 2.455 . S
U86 O107 2.449 . S
O87 U86 2.454 . S
O87 C89 1.353 . S
O88 U86 2.458 . S
O88 C89 1.286 . S
C89 U86 2.984 . S
C89 O87 1.353 . S
C89 O88 1.286 . S
C89 C91 1.363 . S
C90 C80 1.465 . S
C90 U86 2.847 . S
C90 O104 1.249 . S
C90 O105 1.202 . S
C91 C89 1.363 . S
C91 C93 1.408 . S
C91 C96 1.342 . S
C92 C93 1.310 . S
C92 C95 1.461 . S
C92 H112 0.932 . S
C93 C91 1.408 . S
C93 C92 1.310 . S
C93 H113 0.930 . S
C94 C95 1.474 . S
C94 C96 1.285 . S
C94 H114 0.929 . S
C95 C92 1.461 . S
C95 C94 1.474 . S
C96 C91 1.342 . S
C96 C94 1.285 . S
C96 H115 0.930 . S
C97 C100 1.424 . S
C97 C102 1.245 . S
C97 C103 1.428 . S
C98 C101 1.260 . S
C98 C102 1.477 . S
C98 H116 0.932 . S
C99 C100 1.384 . S
C99 C101 1.479 . S
C99 H117 0.929 . S
C100 C97 1.424 . S
C100 C99 1.384 . S
C100 H118 0.928 . S
C101 C98 1.260 . S
C101 C99 1.479 . S
C102 C97 1.245 . S
C102 C98 1.477 . S
C102 H119 0.932 . S
C103 U86 2.882 . S
C103 C97 1.428 . S
C103 O106 1.301 . S
C103 O107 1.282 . S
O104 U86 2.441 . S
O104 C90 1.249 . S
O105 U86 2.420 . S
O105 C90 1.202 . S
O106 U86 2.455 . S
O106 C103 1.301 . S
O107 U86 2.449 . S
O107 C103 1.282 . S
H108 C81 0.931 . S
H109 C83 0.929 . S
H110 C84 0.930 . S
H111 C85 0.931 . S
H112 C92 0.932 . S
H113 C93 0.930 . S
H114 C94 0.929 . S
H115 C96 0.930 . S
H116 C98 0.932 . S
H117 C99 0.929 . S
H118 C100 0.928 . S
H119 C102 0.932 . S
C120 C121 1.264 . S
C120 C125 1.479 . S
C120 C130 1.465 . S
C121 C120 1.264 . S
C121 C123 1.339 . S
C121 H148 0.931 . S
C122 C123 1.395 . S
C122 C124 1.320 . S
C123 C121 1.339 . S
C123 C122 1.395 . S
C123 H149 0.929 . S
C124 C122 1.320 . S
C124 C125 1.405 . S
C124 H150 0.930 . S
C125 C120 1.479 . S
C125 C124 1.405 . S
C125 H151 0.931 . S
U126 O127 2.454 . S
U126 O128 2.458 . S
U126 C129 2.984 . S
U126 C130 2.847 . S
U126 C143 2.882 . S
U126 O144 2.441 . S
U126 O145 2.420 . S
U126 O146 2.455 . S
U126 O147 2.449 . S
O127 U126 2.454 . S
O127 C129 1.353 . S
O128 U126 2.458 . S
O128 C129 1.286 . S
C129 U126 2.984 . S
C129 O127 1.353 . S
C129 O128 1.286 . S
C129 C131 1.363 . S
C130 C120 1.465 . S
C130 U126 2.847 . S
C130 O144 1.249 . S
C130 O145 1.202 . S
C131 C129 1.363 . S
C131 C133 1.408 . S
C131 C136 1.342 . S
C132 C133 1.310 . S
C132 C135 1.461 . S
C132 H152 0.932 . S
C133 C131 1.408 . S
C133 C132 1.310 . S
C133 H153 0.930 . S
C134 C135 1.474 . S
C134 C136 1.285 . S
C134 H154 0.929 . S
C135 C132 1.461 . S
C135 C134 1.474 . S
C136 C131 1.342 . S
C136 C134 1.285 . S
C136 H155 0.930 . S
C137 C140 1.424 . S
C137 C142 1.245 . S
C137 C143 1.428 . S
C138 C141 1.260 . S
C138 C142 1.477 . S
C138 H156 0.932 . S
C139 C140 1.384 . S
C139 C141 1.479 . S
C139 H157 0.929 . S
C140 C137 1.424 . S
C140 C139 1.384 . S
C140 H158 0.928 . S
C141 C138 1.260 . S
C141 C139 1.479 . S
C142 C137 1.245 . S
C142 C138 1.477 . S
C142 H159 0.932 . S
C143 U126 2.882 . S
C143 C137 1.428 . S
C143 O146 1.301 . S
C143 O147 1.282 . S
O144 U126 2.441 . S
O144 C130 1.249 . S
O145 U126 2.420 . S
O145 C130 1.202 . S
O146 U126 2.455 . S
O146 C143 1.301 . S
O147 U126 2.449 . S
O147 C143 1.282 . S
H148 C121 0.931 . S
H149 C123 0.929 . S
H150 C124 0.930 . S
H151 C125 0.931 . S
H152 C132 0.932 . S
H153 C133 0.930 . S
H154 C134 0.929 . S
H155 C136 0.930 . S
H156 C138 0.932 . S
H157 C139 0.929 . S
H158 C140 0.928 . S
H159 C142 0.932 . S
C160 C161 1.264 . S
C160 C165 1.479 . S
C160 C170 1.465 . S
C161 C160 1.264 . S
C161 C163 1.339 . S
C161 H188 0.931 . S
C162 C163 1.395 . S
C162 C164 1.320 . S
C163 C161 1.339 . S
C163 C162 1.395 . S
C163 H189 0.929 . S
C164 C162 1.320 . S
C164 C165 1.405 . S
C164 H190 0.930 . S
C165 C160 1.479 . S
C165 C164 1.405 . S
C165 H191 0.931 . S
U166 O167 2.454 . S
U166 O168 2.458 . S
U166 C169 2.984 . S
U166 C170 2.847 . S
U166 C183 2.882 . S
U166 O184 2.441 . S
U166 O185 2.420 . S
U166 O186 2.455 . S
U166 O187 2.449 . S
O167 U166 2.454 . S
O167 C169 1.353 . S
O168 U166 2.458 . S
O168 C169 1.286 . S
C169 U166 2.984 . S
C169 O167 1.353 . S
C169 O168 1.286 . S
C169 C171 1.363 . S
C170 C160 1.465 . S
C170 U166 2.847 . S
C170 O184 1.249 . S
C170 O185 1.202 . S
C171 C169 1.363 . S
C171 C173 1.408 . S
C171 C176 1.342 . S
C172 C173 1.310 . S
C172 C175 1.461 . S
C172 H192 0.932 . S
C173 C171 1.408 . S
C173 C172 1.310 . S
C173 H193 0.930 . S
C174 C175 1.474 . S
C174 C176 1.285 . S
C174 H194 0.929 . S
C175 C172 1.461 . S
C175 C174 1.474 . S
C176 C171 1.342 . S
C176 C174 1.285 . S
C176 H195 0.930 . S
C177 C180 1.424 . S
C177 C182 1.245 . S
C177 C183 1.428 . S
C178 C181 1.260 . S
C178 C182 1.477 . S
C178 H196 0.932 . S
C179 C180 1.384 . S
C179 C181 1.479 . S
C179 H197 0.929 . S
C180 C177 1.424 . S
C180 C179 1.384 . S
C180 H198 0.928 . S
C181 C178 1.260 . S
C181 C179 1.479 . S
C182 C177 1.245 . S
C182 C178 1.477 . S
C182 H199 0.932 . S
C183 U166 2.882 . S
C183 C177 1.428 . S
C183 O186 1.301 . S
C183 O187 1.282 . S
O184 U166 2.441 . S
O184 C170 1.249 . S
O185 U166 2.420 . S
O185 C170 1.202 . S
O186 U166 2.455 . S
O186 C183 1.301 . S
O187 U166 2.449 . S
O187 C183 1.282 . S
H188 C161 0.931 . S
H189 C163 0.929 . S
H190 C164 0.930 . S
H191 C165 0.931 . S
H192 C172 0.932 . S
H193 C173 0.930 . S
H194 C174 0.929 . S
H195 C176 0.930 . S
H196 C178 0.932 . S
H197 C179 0.929 . S
H198 C180 0.928 . S
H199 C182 0.932 . S
C200 C201 1.264 . S
C200 C205 1.479 . S
C200 C210 1.465 . S
C201 C200 1.264 . S
C201 C203 1.339 . S
C201 H228 0.931 . S
C202 C203 1.395 . S
C202 C204 1.320 . S
C203 C201 1.339 . S
C203 C202 1.395 . S
C203 H229 0.929 . S
C204 C202 1.320 . S
C204 C205 1.405 . S
C204 H230 0.930 . S
C205 C200 1.479 . S
C205 C204 1.405 . S
C205 H231 0.931 . S
U206 O207 2.454 . S
U206 O208 2.458 . S
U206 C209 2.984 . S
U206 C210 2.847 . S
U206 C223 2.882 . S
U206 O224 2.441 . S
U206 O225 2.420 . S
U206 O226 2.455 . S
U206 O227 2.449 . S
O207 U206 2.454 . S
O207 C209 1.353 . S
O208 U206 2.458 . S
O208 C209 1.286 . S
C209 U206 2.984 . S
C209 O207 1.353 . S
C209 O208 1.286 . S
C209 C211 1.363 . S
C210 C200 1.465 . S
C210 U206 2.847 . S
C210 O224 1.249 . S
C210 O225 1.202 . S
C211 C209 1.363 . S
C211 C213 1.408 . S
C211 C216 1.342 . S
C212 C213 1.310 . S
C212 C215 1.461 . S
C212 H232 0.932 . S
C213 C211 1.408 . S
C213 C212 1.310 . S
C213 H233 0.930 . S
C214 C215 1.474 . S
C214 C216 1.285 . S
C214 H234 0.929 . S
C215 C212 1.461 . S
C215 C214 1.474 . S
C216 C211 1.342 . S
C216 C214 1.285 . S
C216 H235 0.930 . S
C217 C220 1.424 . S
C217 C222 1.245 . S
C217 C223 1.428 . S
C218 C221 1.260 . S
C218 C222 1.477 . S
C218 H236 0.932 . S
C219 C220 1.384 . S
C219 C221 1.479 . S
C219 H237 0.929 . S
C220 C217 1.424 . S
C220 C219 1.384 . S
C220 H238 0.928 . S
C221 C218 1.260 . S
C221 C219 1.479 . S
C222 C217 1.245 . S
C222 C218 1.477 . S
C222 H239 0.932 . S
C223 U206 2.882 . S
C223 C217 1.428 . S
C223 O226 1.301 . S
C223 O227 1.282 . S
O224 U206 2.441 . S
O224 C210 1.249 . S
O225 U206 2.420 . S
O225 C210 1.202 . S
O226 U206 2.455 . S
O226 C223 1.301 . S
O227 U206 2.449 . S
O227 C223 1.282 . S
H228 C201 0.931 . S
H229 C203 0.929 . S
H230 C204 0.930 . S
H231 C205 0.931 . S
H232 C212 0.932 . S
H233 C213 0.930 . S
H234 C214 0.929 . S
H235 C216 0.930 . S
H236 C218 0.932 . S
H237 C219 0.929 . S
H238 C220 0.928 . S
H239 C222 0.932 . S
C240 C241 1.264 . S
C240 C245 1.479 . S
C240 C250 1.465 . S
C241 C240 1.264 . S
C241 C243 1.339 . S
C241 H268 0.931 . S
C242 C243 1.395 . S
C242 C244 1.320 . S
C243 C241 1.339 . S
C243 C242 1.395 . S
C243 H269 0.929 . S
C244 C242 1.320 . S
C244 C245 1.405 . S
C244 H270 0.930 . S
C245 C240 1.479 . S
C245 C244 1.405 . S
C245 H271 0.931 . S
U246 O247 2.454 . S
U246 O248 2.458 . S
U246 C249 2.984 . S
U246 C250 2.847 . S
U246 C263 2.882 . S
U246 O264 2.441 . S
U246 O265 2.420 . S
U246 O266 2.455 . S
U246 O267 2.449 . S
O247 U246 2.454 . S
O247 C249 1.353 . S
O248 U246 2.458 . S
O248 C249 1.286 . S
C249 U246 2.984 . S
C249 O247 1.353 . S
C249 O248 1.286 . S
C249 C251 1.363 . S
C250 C240 1.465 . S
C250 U246 2.847 . S
C250 O264 1.249 . S
C250 O265 1.202 . S
C251 C249 1.363 . S
C251 C253 1.408 . S
C251 C256 1.342 . S
C252 C253 1.310 . S
C252 C255 1.461 . S
C252 H272 0.932 . S
C253 C251 1.408 . S
C253 C252 1.310 . S
C253 H273 0.930 . S
C254 C255 1.474 . S
C254 C256 1.285 . S
C254 H274 0.929 . S
C255 C252 1.461 . S
C255 C254 1.474 . S
C256 C251 1.342 . S
C256 C254 1.285 . S
C256 H275 0.930 . S
C257 C260 1.424 . S
C257 C262 1.245 . S
C257 C263 1.428 . S
C258 C261 1.260 . S
C258 C262 1.477 . S
C258 H276 0.932 . S
C259 C260 1.384 . S
C259 C261 1.479 . S
C259 H277 0.929 . S
C260 C257 1.424 . S
C260 C259 1.384 . S
C260 H278 0.928 . S
C261 C258 1.260 . S
C261 C259 1.479 . S
C262 C257 1.245 . S
C262 C258 1.477 . S
C262 H279 0.932 . S
C263 U246 2.882 . S
C263 C257 1.428 . S
C263 O266 1.301 . S
C263 O267 1.282 . S
O264 U246 2.441 . S
O264 C250 1.249 . S
O265 U246 2.420 . S
O265 C250 1.202 . S
O266 U246 2.455 . S
O266 C263 1.301 . S
O267 U246 2.449 . S
O267 C263 1.282 . S
H268 C241 0.931 . S
H269 C243 0.929 . S
H270 C244 0.930 . S
H271 C245 0.931 . S
H272 C252 0.932 . S
H273 C253 0.930 . S
H274 C254 0.929 . S
H275 C256 0.930 . S
H276 C258 0.932 . S
H277 C259 0.929 . S
H278 C260 0.928 . S
H279 C262 0.932 . S
C280 C281 1.264 . S
C280 C285 1.479 . S
C280 C290 1.465 . S
C281 C280 1.264 . S
C281 C283 1.339 . S
C281 H308 0.931 . S
C282 C283 1.395 . S
C282 C284 1.320 . S
C283 C281 1.339 . S
C283 C282 1.395 . S
C283 H309 0.929 . S
C284 C282 1.320 . S
C284 C285 1.405 . S
C284 H310 0.930 . S
C285 C280 1.479 . S
C285 C284 1.405 . S
C285 H311 0.931 . S
U286 O287 2.454 . S
U286 O288 2.458 . S
U286 C289 2.984 . S
U286 C290 2.847 . S
U286 C303 2.882 . S
U286 O304 2.441 . S
U286 O305 2.420 . S
U286 O306 2.455 . S
U286 O307 2.449 . S
O287 U286 2.454 . S
O287 C289 1.353 . S
O288 U286 2.458 . S
O288 C289 1.286 . S
C289 U286 2.984 . S
C289 O287 1.353 . S
C289 O288 1.286 . S
C289 C291 1.363 . S
C290 C280 1.465 . S
C290 U286 2.847 . S
C290 O304 1.249 . S
C290 O305 1.202 . S
C291 C289 1.363 . S
C291 C293 1.408 . S
C291 C296 1.342 . S
C292 C293 1.310 . S
C292 C295 1.461 . S
C292 H312 0.932 . S
C293 C291 1.408 . S
C293 C292 1.310 . S
C293 H313 0.930 . S
C294 C295 1.474 . S
C294 C296 1.285 . S
C294 H314 0.929 . S
C295 C292 1.461 . S
C295 C294 1.474 . S
C296 C291 1.342 . S
C296 C294 1.285 . S
C296 H315 0.930 . S
C297 C300 1.424 . S
C297 C302 1.245 . S
C297 C303 1.428 . S
C298 C301 1.260 . S
C298 C302 1.477 . S
C298 H316 0.932 . S
C299 C300 1.384 . S
C299 C301 1.479 . S
C299 H317 0.929 . S
C300 C297 1.424 . S
C300 C299 1.384 . S
C300 H318 0.928 . S
C301 C298 1.260 . S
C301 C299 1.479 . S
C302 C297 1.245 . S
C302 C298 1.477 . S
C302 H319 0.932 . S
C303 U286 2.882 . S
C303 C297 1.428 . S
C303 O306 1.301 . S
C303 O307 1.282 . S
O304 U286 2.441 . S
O304 C290 1.249 . S
O305 U286 2.420 . S
O305 C290 1.202 . S
O306 U286 2.455 . S
O306 C303 1.301 . S
O307 U286 2.449 . S
O307 C303 1.282 . S
H308 C281 0.931 . S
H309 C283 0.929 . S
H310 C284 0.930 . S
H311 C285 0.931 . S
H312 C292 0.932 . S
H313 C293 0.930 . S
H314 C294 0.929 . S
H315 C296 0.930 . S
H316 C298 0.932 . S
H317 C299 0.929 . S
H318 C300 0.928 . S
H319 C302 0.932 . S
C320 C321 1.264 . S
C320 C325 1.479 . S
C320 C330 1.465 . S
C321 C320 1.264 . S
C321 C323 1.339 . S
C321 H348 0.931 . S
C322 C323 1.395 . S
C322 C324 1.320 . S
C323 C321 1.339 . S
C323 C322 1.395 . S
C323 H349 0.929 . S
C324 C322 1.320 . S
C324 C325 1.405 . S
C324 H350 0.930 . S
C325 C320 1.479 . S
C325 C324 1.405 . S
C325 H351 0.931 . S
U326 O327 2.454 . S
U326 O328 2.458 . S
U326 C329 2.984 . S
U326 C330 2.847 . S
U326 C343 2.882 . S
U326 O344 2.441 . S
U326 O345 2.420 . S
U326 O346 2.455 . S
U326 O347 2.449 . S
O327 U326 2.454 . S
O327 C329 1.353 . S
O328 U326 2.458 . S
O328 C329 1.286 . S
C329 U326 2.984 . S
C329 O327 1.353 . S
C329 O328 1.286 . S
C329 C331 1.363 . S
C330 C320 1.465 . S
C330 U326 2.847 . S
C330 O344 1.249 . S
C330 O345 1.202 . S
C331 C329 1.363 . S
C331 C333 1.408 . S
C331 C336 1.342 . S
C332 C333 1.310 . S
C332 C335 1.461 . S
C332 H352 0.932 . S
C333 C331 1.408 . S
C333 C332 1.310 . S
C333 H353 0.930 . S
C334 C335 1.474 . S
C334 C336 1.285 . S
C334 H354 0.929 . S
C335 C332 1.461 . S
C335 C334 1.474 . S
C336 C331 1.342 . S
C336 C334 1.285 . S
C336 H355 0.930 . S
C337 C340 1.424 . S
C337 C342 1.245 . S
C337 C343 1.428 . S
C338 C341 1.260 . S
C338 C342 1.477 . S
C338 H356 0.932 . S
C339 C340 1.384 . S
C339 C341 1.479 . S
C339 H357 0.929 . S
C340 C337 1.424 . S
C340 C339 1.384 . S
C340 H358 0.928 . S
C341 C338 1.260 . S
C341 C339 1.479 . S
C342 C337 1.245 . S
C342 C338 1.477 . S
C342 H359 0.932 . S
C343 U326 2.882 . S
C343 C337 1.428 . S
C343 O346 1.301 . S
C343 O347 1.282 . S
O344 U326 2.441 . S
O344 C330 1.249 . S
O345 U326 2.420 . S
O345 C330 1.202 . S
O346 U326 2.455 . S
O346 C343 1.301 . S
O347 U326 2.449 . S
O347 C343 1.282 . S
H348 C321 0.931 . S
H349 C323 0.929 . S
H350 C324 0.930 . S
H351 C325 0.931 . S
H352 C332 0.932 . S
H353 C333 0.930 . S
H354 C334 0.929 . S
H355 C336 0.930 . S
H356 C338 0.932 . S
H357 C339 0.929 . S
H358 C340 0.928 . S
H359 C342 0.932 . S
C360 C361 1.264 . S
C360 C365 1.479 . S
C360 C370 1.465 . S
C361 C360 1.264 . S
C361 C363 1.339 . S
C361 H388 0.931 . S
C362 C363 1.395 . S
C362 C364 1.320 . S
C363 C361 1.339 . S
C363 C362 1.395 . S
C363 H389 0.929 . S
C364 C362 1.320 . S
C364 C365 1.405 . S
C364 H390 0.930 . S
C365 C360 1.479 . S
C365 C364 1.405 . S
C365 H391 0.931 . S
U366 O367 2.454 . S
U366 O368 2.458 . S
U366 C369 2.984 . S
U366 C370 2.847 . S
U366 C383 2.882 . S
U366 O384 2.441 . S
U366 O385 2.420 . S
U366 O386 2.455 . S
U366 O387 2.449 . S
O367 U366 2.454 . S
O367 C369 1.353 . S
O368 U366 2.458 . S
O368 C369 1.286 . S
C369 U366 2.984 . S
C369 O367 1.353 . S
C369 O368 1.286 . S
C369 C371 1.363 . S
C370 C360 1.465 . S
C370 U366 2.847 . S
C370 O384 1.249 . S
C370 O385 1.202 . S
C371 C369 1.363 . S
C371 C373 1.408 . S
C371 C376 1.342 . S
C372 C373 1.310 . S
C372 C375 1.461 . S
C372 H392 0.932 . S
C373 C371 1.408 . S
C373 C372 1.310 . S
C373 H393 0.930 . S
C374 C375 1.474 . S
C374 C376 1.285 . S
C374 H394 0.929 . S
C375 C372 1.461 . S
C375 C374 1.474 . S
C376 C371 1.342 . S
C376 C374 1.285 . S
C376 H395 0.930 . S
C377 C380 1.424 . S
C377 C382 1.245 . S
C377 C383 1.428 . S
C378 C381 1.260 . S
C378 C382 1.477 . S
C378 H396 0.932 . S
C379 C380 1.384 . S
C379 C381 1.479 . S
C379 H397 0.929 . S
C380 C377 1.424 . S
C380 C379 1.384 . S
C380 H398 0.928 . S
C381 C378 1.260 . S
C381 C379 1.479 . S
C382 C377 1.245 . S
C382 C378 1.477 . S
C382 H399 0.932 . S
C383 U366 2.882 . S
C383 C377 1.428 . S
C383 O386 1.301 . S
C383 O387 1.282 . S
O384 U366 2.441 . S
O384 C370 1.249 . S
O385 U366 2.420 . S
O385 C370 1.202 . S
O386 U366 2.455 . S
O386 C383 1.301 . S
O387 U366 2.449 . S
O387 C383 1.282 . S
H388 C361 0.931 . S
H389 C363 0.929 . S
H390 C364 0.930 . S
H391 C365 0.931 . S
H392 C372 0.932 . S
H393 C373 0.930 . S
H394 C374 0.929 . S
H395 C376 0.930 . S
H396 C378 0.932 . S
H397 C379 0.929 . S
H398 C380 0.928 . S
H399 C382 0.932 . S
C400 C401 1.264 . S
C400 C405 1.479 . S
C400 C410 1.465 . S
C401 C400 1.264 . S
C401 C403 1.339 . S
C401 H428 0.931 . S
C402 C403 1.395 . S
C402 C404 1.320 . S
C403 C401 1.339 . S
C403 C402 1.395 . S
C403 H429 0.929 . S
C404 C402 1.320 . S
C404 C405 1.405 . S
C404 H430 0.930 . S
C405 C400 1.479 . S
C405 C404 1.405 . S
C405 H431 0.931 . S
U406 O407 2.454 . S
U406 O408 2.458 . S
U406 C409 2.984 . S
U406 C410 2.847 . S
U406 C423 2.882 . S
U406 O424 2.441 . S
U406 O425 2.420 . S
U406 O426 2.455 . S
U406 O427 2.449 . S
O407 U406 2.454 . S
O407 C409 1.353 . S
O408 U406 2.458 . S
O408 C409 1.286 . S
C409 U406 2.984 . S
C409 O407 1.353 . S
C409 O408 1.286 . S
C409 C411 1.363 . S
C410 C400 1.465 . S
C410 U406 2.847 . S
C410 O424 1.249 . S
C410 O425 1.202 . S
C411 C409 1.363 . S
C411 C413 1.408 . S
C411 C416 1.342 . S
C412 C413 1.310 . S
C412 C415 1.461 . S
C412 H432 0.932 . S
C413 C411 1.408 . S
C413 C412 1.310 . S
C413 H433 0.930 . S
C414 C415 1.474 . S
C414 C416 1.285 . S
C414 H434 0.929 . S
C415 C412 1.461 . S
C415 C414 1.474 . S
C416 C411 1.342 . S
C416 C414 1.285 . S
C416 H435 0.930 . S
C417 C420 1.424 . S
C417 C422 1.245 . S
C417 C423 1.428 . S
C418 C421 1.260 . S
C418 C422 1.477 . S
C418 H436 0.932 . S
C419 C420 1.384 . S
C419 C421 1.479 . S
C419 H437 0.929 . S
C420 C417 1.424 . S
C420 C419 1.384 . S
C420 H438 0.928 . S
C421 C418 1.260 . S
C421 C419 1.479 . S
C422 C417 1.245 . S
C422 C418 1.477 . S
C422 H439 0.932 . S
C423 U406 2.882 . S
C423 C417 1.428 . S
C423 O426 1.301 . S
C423 O427 1.282 . S
O424 U406 2.441 . S
O424 C410 1.249 . S
O425 U406 2.420 . S
O425 C410 1.202 . S
O426 U406 2.455 . S
O426 C423 1.301 . S
O427 U406 2.449 . S
O427 C423 1.282 . S
H428 C401 0.931 . S
H429 C403 0.929 . S
H430 C404 0.930 . S
H431 C405 0.931 . S
H432 C412 0.932 . S
H433 C413 0.930 . S
H434 C414 0.929 . S
H435 C416 0.930 . S
H436 C418 0.932 . S
H437 C419 0.929 . S
H438 C420 0.928 . S
H439 C422 0.932 . S
C440 C441 1.264 . S
C440 C445 1.479 . S
C440 C450 1.465 . S
C441 C440 1.264 . S
C441 C443 1.339 . S
C441 H468 0.931 . S
C442 C443 1.395 . S
C442 C444 1.320 . S
C443 C441 1.339 . S
C443 C442 1.395 . S
C443 H469 0.929 . S
C444 C442 1.320 . S
C444 C445 1.405 . S
C444 H470 0.930 . S
C445 C440 1.479 . S
C445 C444 1.405 . S
C445 H471 0.931 . S
U446 O447 2.454 . S
U446 O448 2.458 . S
U446 C449 2.984 . S
U446 C450 2.847 . S
U446 C463 2.882 . S
U446 O464 2.441 . S
U446 O465 2.420 . S
U446 O466 2.455 . S
U446 O467 2.449 . S
O447 U446 2.454 . S
O447 C449 1.353 . S
O448 U446 2.458 . S
O448 C449 1.286 . S
C449 U446 2.984 . S
C449 O447 1.353 . S
C449 O448 1.286 . S
C449 C451 1.363 . S
C450 C440 1.465 . S
C450 U446 2.847 . S
C450 O464 1.249 . S
C450 O465 1.202 . S
C451 C449 1.363 . S
C451 C453 1.408 . S
C451 C456 1.342 . S
C452 C453 1.310 . S
C452 C455 1.461 . S
C452 H472 0.932 . S
C453 C451 1.408 . S
C453 C452 1.310 . S
C453 H473 0.930 . S
C454 C455 1.474 . S
C454 C456 1.285 . S
C454 H474 0.929 . S
C455 C452 1.461 . S
C455 C454 1.474 . S
C456 C451 1.342 . S
C456 C454 1.285 . S
C456 H475 0.930 . S
C457 C460 1.424 . S
C457 C462 1.245 . S
C457 C463 1.428 . S
C458 C461 1.260 . S
C458 C462 1.477 . S
C458 H476 0.932 . S
C459 C460 1.384 . S
C459 C461 1.479 . S
C459 H477 0.929 . S
C460 C457 1.424 . S
C460 C459 1.384 . S
C460 H478 0.928 . S
C461 C458 1.260 . S
C461 C459 1.479 . S
C462 C457 1.245 . S
C462 C458 1.477 . S
C462 H479 0.932 . S
C463 U446 2.882 . S
C463 C457 1.428 . S
C463 O466 1.301 . S
C463 O467 1.282 . S
O464 U446 2.441 . S
O464 C450 1.249 . S
O465 U446 2.420 . S
O465 C450 1.202 . S
O466 U446 2.455 . S
O466 C463 1.301 . S
O467 U446 2.449 . S
O467 C463 1.282 . S
H468 C441 0.931 . S
H469 C443 0.929 . S
H470 C444 0.930 . S
H471 C445 0.931 . S
H472 C452 0.932 . S
H473 C453 0.930 . S
H474 C454 0.929 . S
H475 C456 0.930 . S
H476 C458 0.932 . S
H477 C459 0.929 . S
H478 C460 0.928 . S
H479 C462 0.932 . S
C480 C481 1.264 . S
C480 C485 1.479 . S
C480 C490 1.465 . S
C481 C480 1.264 . S
C481 C483 1.339 . S
C481 H508 0.931 . S
C482 C483 1.395 . S
C482 C484 1.320 . S
C483 C481 1.339 . S
C483 C482 1.395 . S
C483 H509 0.929 . S
C484 C482 1.320 . S
C484 C485 1.405 . S
C484 H510 0.930 . S
C485 C480 1.479 . S
C485 C484 1.405 . S
C485 H511 0.931 . S
U486 O487 2.454 . S
U486 O488 2.458 . S
U486 C489 2.984 . S
U486 C490 2.847 . S
U486 C503 2.882 . S
U486 O504 2.441 . S
U486 O505 2.420 . S
U486 O506 2.455 . S
U486 O507 2.449 . S
O487 U486 2.454 . S
O487 C489 1.353 . S
O488 U486 2.458 . S
O488 C489 1.286 . S
C489 U486 2.984 . S
C489 O487 1.353 . S
C489 O488 1.286 . S
C489 C491 1.363 . S
C490 C480 1.465 . S
C490 U486 2.847 . S
C490 O504 1.249 . S
C490 O505 1.202 . S
C491 C489 1.363 . S
C491 C493 1.408 . S
C491 C496 1.342 . S
C492 C493 1.310 . S
C492 C495 1.461 . S
C492 H512 0.932 . S
C493 C491 1.408 . S
C493 C492 1.310 . S
C493 H513 0.930 . S
C494 C495 1.474 . S
C494 C496 1.285 . S
C494 H514 0.929 . S
C495 C492 1.461 . S
C495 C494 1.474 . S
C496 C491 1.342 . S
C496 C494 1.285 . S
C496 H515 0.930 . S
C497 C500 1.424 . S
C497 C502 1.245 . S
C497 C503 1.428 . S
C498 C501 1.260 . S
C498 C502 1.477 . S
C498 H516 0.932 . S
C499 C500 1.384 . S
C499 C501 1.479 . S
C499 H517 0.929 . S
C500 C497 1.424 . S
C500 C499 1.384 . S
C500 H518 0.928 . S
C501 C498 1.260 . S
C501 C499 1.479 . S
C502 C497 1.245 . S
C502 C498 1.477 . S
C502 H519 0.932 . S
C503 U486 2.882 . S
C503 C497 1.428 . S
C503 O506 1.301 . S
C503 O507 1.282 . S
O504 U486 2.441 . S
O504 C490 1.249 . S
O505 U486 2.420 . S
O505 C490 1.202 . S
O506 U486 2.455 . S
O506 C503 1.301 . S
O507 U486 2.449 . S
O507 C503 1.282 . S
H508 C481 0.931 . S
H509 C483 0.929 . S
H510 C484 0.930 . S
H511 C485 0.931 . S
H512 C492 0.932 . S
H513 C493 0.930 . S
H514 C494 0.929 . S
H515 C496 0.930 . S
H516 C498 0.932 . S
H517 C499 0.929 . S
H518 C500 0.928 . S
H519 C502 0.932 . S
C520 C521 1.264 . S
C520 C525 1.479 . S
C520 C530 1.465 . S
C521 C520 1.264 . S
C521 C523 1.339 . S
C521 H548 0.931 . S
C522 C523 1.395 . S
C522 C524 1.320 . S
C523 C521 1.339 . S
C523 C522 1.395 . S
C523 H549 0.929 . S
C524 C522 1.320 . S
C524 C525 1.405 . S
C524 H550 0.930 . S
C525 C520 1.479 . S
C525 C524 1.405 . S
C525 H551 0.931 . S
U526 O527 2.454 . S
U526 O528 2.458 . S
U526 C529 2.984 . S
U526 C530 2.847 . S
U526 C543 2.882 . S
U526 O544 2.441 . S
U526 O545 2.420 . S
U526 O546 2.455 . S
U526 O547 2.449 . S
O527 U526 2.454 . S
O527 C529 1.353 . S
O528 U526 2.458 . S
O528 C529 1.286 . S
C529 U526 2.984 . S
C529 O527 1.353 . S
C529 O528 1.286 . S
C529 C531 1.363 . S
C530 C520 1.465 . S
C530 U526 2.847 . S
C530 O544 1.249 . S
C530 O545 1.202 . S
C531 C529 1.363 . S
C531 C533 1.408 . S
C531 C536 1.342 . S
C532 C533 1.310 . S
C532 C535 1.461 . S
C532 H552 0.932 . S
C533 C531 1.408 . S
C533 C532 1.310 . S
C533 H553 0.930 . S
C534 C535 1.474 . S
C534 C536 1.285 . S
C534 H554 0.929 . S
C535 C532 1.461 . S
C535 C534 1.474 . S
C536 C531 1.342 . S
C536 C534 1.285 . S
C536 H555 0.930 . S
C537 C540 1.424 . S
C537 C542 1.245 . S
C537 C543 1.428 . S
C538 C541 1.260 . S
C538 C542 1.477 . S
C538 H556 0.932 . S
C539 C540 1.384 . S
C539 C541 1.479 . S
C539 H557 0.929 . S
C540 C537 1.424 . S
C540 C539 1.384 . S
C540 H558 0.928 . S
C541 C538 1.260 . S
C541 C539 1.479 . S
C542 C537 1.245 . S
C542 C538 1.477 . S
C542 H559 0.932 . S
C543 U526 2.882 . S
C543 C537 1.428 . S
C543 O546 1.301 . S
C543 O547 1.282 . S
O544 U526 2.441 . S
O544 C530 1.249 . S
O545 U526 2.420 . S
O545 C530 1.202 . S
O546 U526 2.455 . S
O546 C543 1.301 . S
O547 U526 2.449 . S
O547 C543 1.282 . S
H548 C521 0.931 . S
H549 C523 0.929 . S
H550 C524 0.930 . S
H551 C525 0.931 . S
H552 C532 0.932 . S
H553 C533 0.930 . S
H554 C534 0.929 . S
H555 C536 0.930 . S
H556 C538 0.932 . S
H557 C539 0.929 . S
H558 C540 0.928 . S
H559 C542 0.932 . S
C560 C561 1.264 . S
C560 C565 1.479 . S
C560 C570 1.465 . S
C561 C560 1.264 . S
C561 C563 1.339 . S
C561 H588 0.931 . S
C562 C563 1.395 . S
C562 C564 1.320 . S
C563 C561 1.339 . S
C563 C562 1.395 . S
C563 H589 0.929 . S
C564 C562 1.320 . S
C564 C565 1.405 . S
C564 H590 0.930 . S
C565 C560 1.479 . S
C565 C564 1.405 . S
C565 H591 0.931 . S
U566 O567 2.454 . S
U566 O568 2.458 . S
U566 C569 2.984 . S
U566 C570 2.847 . S
U566 C583 2.882 . S
U566 O584 2.441 . S
U566 O585 2.420 . S
U566 O586 2.455 . S
U566 O587 2.449 . S
O567 U566 2.454 . S
O567 C569 1.353 . S
O568 U566 2.458 . S
O568 C569 1.286 . S
C569 U566 2.984 . S
C569 O567 1.353 . S
C569 O568 1.286 . S
C569 C571 1.363 . S
C570 C560 1.465 . S
C570 U566 2.847 . S
C570 O584 1.249 . S
C570 O585 1.202 . S
C571 C569 1.363 . S
C571 C573 1.408 . S
C571 C576 1.342 . S
C572 C573 1.310 . S
C572 C575 1.461 . S
C572 H592 0.932 . S
C573 C571 1.408 . S
C573 C572 1.310 . S
C573 H593 0.930 . S
C574 C575 1.474 . S
C574 C576 1.285 . S
C574 H594 0.929 . S
C575 C572 1.461 . S
C575 C574 1.474 . S
C576 C571 1.342 . S
C576 C574 1.285 . S
C576 H595 0.930 . S
C577 C580 1.424 . S
C577 C582 1.245 . S
C577 C583 1.428 . S
C578 C581 1.260 . S
C578 C582 1.477 . S
C578 H596 0.932 . S
C579 C580 1.384 . S
C579 C581 1.479 . S
C579 H597 0.929 . S
C580 C577 1.424 . S
C580 C579 1.384 . S
C580 H598 0.928 . S
C581 C578 1.260 . S
C581 C579 1.479 . S
C582 C577 1.245 . S
C582 C578 1.477 . S
C582 H599 0.932 . S
C583 U566 2.882 . S
C583 C577 1.428 . S
C583 O586 1.301 . S
C583 O587 1.282 . S
O584 U566 2.441 . S
O584 C570 1.249 . S
O585 U566 2.420 . S
O585 C570 1.202 . S
O586 U566 2.455 . S
O586 C583 1.301 . S
O587 U566 2.449 . S
O587 C583 1.282 . S
H588 C561 0.931 . S
H589 C563 0.929 . S
H590 C564 0.930 . S
H591 C565 0.931 . S
H592 C572 0.932 . S
H593 C573 0.930 . S
H594 C574 0.929 . S
H595 C576 0.930 . S
H596 C578 0.932 . S
H597 C579 0.929 . S
H598 C580 0.928 . S
H599 C582 0.932 . S
C600 C601 1.264 . S
C600 C605 1.479 . S
C600 C610 1.465 . S
C601 C600 1.264 . S
C601 C603 1.339 . S
C601 H628 0.931 . S
C602 C603 1.395 . S
C602 C604 1.320 . S
C603 C601 1.339 . S
C603 C602 1.395 . S
C603 H629 0.929 . S
C604 C602 1.320 . S
C604 C605 1.405 . S
C604 H630 0.930 . S
C605 C600 1.479 . S
C605 C604 1.405 . S
C605 H631 0.931 . S
U606 O607 2.454 . S
U606 O608 2.458 . S
U606 C609 2.984 . S
U606 C610 2.847 . S
U606 C623 2.882 . S
U606 O624 2.441 . S
U606 O625 2.420 . S
U606 O626 2.455 . S
U606 O627 2.449 . S
O607 U606 2.454 . S
O607 C609 1.353 . S
O608 U606 2.458 . S
O608 C609 1.286 . S
C609 U606 2.984 . S
C609 O607 1.353 . S
C609 O608 1.286 . S
C609 C611 1.363 . S
C610 C600 1.465 . S
C610 U606 2.847 . S
C610 O624 1.249 . S
C610 O625 1.202 . S
C611 C609 1.363 . S
C611 C613 1.408 . S
C611 C616 1.342 . S
C612 C613 1.310 . S
C612 C615 1.461 . S
C612 H632 0.932 . S
C613 C611 1.408 . S
C613 C612 1.310 . S
C613 H633 0.930 . S
C614 C615 1.474 . S
C614 C616 1.285 . S
C614 H634 0.929 . S
C615 C612 1.461 . S
C615 C614 1.474 . S
C616 C611 1.342 . S
C616 C614 1.285 . S
C616 H635 0.930 . S
C617 C620 1.424 . S
C617 C622 1.245 . S
C617 C623 1.428 . S
C618 C621 1.260 . S
C618 C622 1.477 . S
C618 H636 0.932 . S
C619 C620 1.384 . S
C619 C621 1.479 . S
C619 H637 0.929 . S
C620 C617 1.424 . S
C620 C619 1.384 . S
C620 H638 0.928 . S
C621 C618 1.260 . S
C621 C619 1.479 . S
C622 C617 1.245 . S
C622 C618 1.477 . S
C622 H639 0.932 . S
C623 U606 2.882 . S
C623 C617 1.428 . S
C623 O626 1.301 . S
C623 O627 1.282 . S
O624 U606 2.441 . S
O624 C610 1.249 . S
O625 U606 2.420 . S
O625 C610 1.202 . S
O626 U606 2.455 . S
O626 C623 1.301 . S
O627 U606 2.449 . S
O627 C623 1.282 . S
H628 C601 0.931 . S
H629 C603 0.929 . S
H630 C604 0.930 . S
H631 C605 0.931 . S
H632 C612 0.932 . S
H633 C613 0.930 . S
H634 C614 0.929 . S
H635 C616 0.930 . S
H636 C618 0.932 . S
H637 C619 0.929 . S
H638 C620 0.928 . S
H639 C622 0.932 . S
C640 C641 1.264 . S
C640 C645 1.479 . S
C640 C650 1.465 . S
C641 C640 1.264 . S
C641 C643 1.339 . S
C641 H668 0.931 . S
C642 C643 1.395 . S
C642 C644 1.320 . S
C643 C641 1.339 . S
C643 C642 1.395 . S
C643 H669 0.929 . S
C644 C642 1.320 . S
C644 C645 1.405 . S
C644 H670 0.930 . S
C645 C640 1.479 . S
C645 C644 1.405 . S
C645 H671 0.931 . S
U646 O647 2.454 . S
U646 O648 2.458 . S
U646 C649 2.984 . S
U646 C650 2.847 . S
U646 C663 2.882 . S
U646 O664 2.441 . S
U646 O665 2.420 . S
U646 O666 2.455 . S
U646 O667 2.449 . S
O647 U646 2.454 . S
O647 C649 1.353 . S
O648 U646 2.458 . S
O648 C649 1.286 . S
C649 U646 2.984 . S
C649 O647 1.353 . S
C649 O648 1.286 . S
C649 C651 1.363 . S
C650 C640 1.465 . S
C650 U646 2.847 . S
C650 O664 1.249 . S
C650 O665 1.202 . S
C651 C649 1.363 . S
C651 C653 1.408 . S
C651 C656 1.342 . S
C652 C653 1.310 . S
C652 C655 1.461 . S
C652 H672 0.932 . S
C653 C651 1.408 . S
C653 C652 1.310 . S
C653 H673 0.930 . S
C654 C655 1.474 . S
C654 C656 1.285 . S
C654 H674 0.929 . S
C655 C652 1.461 . S
C655 C654 1.474 . S
C656 C651 1.342 . S
C656 C654 1.285 . S
C656 H675 0.930 . S
C657 C660 1.424 . S
C657 C662 1.245 . S
C657 C663 1.428 . S
C658 C661 1.260 . S
C658 C662 1.477 . S
C658 H676 0.932 . S
C659 C660 1.384 . S
C659 C661 1.479 . S
C659 H677 0.929 . S
C660 C657 1.424 . S
C660 C659 1.384 . S
C660 H678 0.928 . S
C661 C658 1.260 . S
C661 C659 1.479 . S
C662 C657 1.245 . S
C662 C658 1.477 . S
C662 H679 0.932 . S
C663 U646 2.882 . S
C663 C657 1.428 . S
C663 O666 1.301 . S
C663 O667 1.282 . S
O664 U646 2.441 . S
O664 C650 1.249 . S
O665 U646 2.420 . S
O665 C650 1.202 . S
O666 U646 2.455 . S
O666 C663 1.301 . S
O667 U646 2.449 . S
O667 C663 1.282 . S
H668 C641 0.931 . S
H669 C643 0.929 . S
H670 C644 0.930 . S
H671 C645 0.931 . S
H672 C652 0.932 . S
H673 C653 0.930 . S
H674 C654 0.929 . S
H675 C656 0.930 . S
H676 C658 0.932 . S
H677 C659 0.929 . S
H678 C660 0.928 . S
H679 C662 0.932 . S
C680 C681 1.264 . S
C680 C685 1.479 . S
C680 C690 1.465 . S
C681 C680 1.264 . S
C681 C683 1.339 . S
C681 H708 0.931 . S
C682 C683 1.395 . S
C682 C684 1.320 . S
C683 C681 1.339 . S
C683 C682 1.395 . S
C683 H709 0.929 . S
C684 C682 1.320 . S
C684 C685 1.405 . S
C684 H710 0.930 . S
C685 C680 1.479 . S
C685 C684 1.405 . S
C685 H711 0.931 . S
U686 O687 2.454 . S
U686 O688 2.458 . S
U686 C689 2.984 . S
U686 C690 2.847 . S
U686 C703 2.882 . S
U686 O704 2.441 . S
U686 O705 2.420 . S
U686 O706 2.455 . S
U686 O707 2.449 . S
O687 U686 2.454 . S
O687 C689 1.353 . S
O688 U686 2.458 . S
O688 C689 1.286 . S
C689 U686 2.984 . S
C689 O687 1.353 . S
C689 O688 1.286 . S
C689 C691 1.363 . S
C690 C680 1.465 . S
C690 U686 2.847 . S
C690 O704 1.249 . S
C690 O705 1.202 . S
C691 C689 1.363 . S
C691 C693 1.408 . S
C691 C696 1.342 . S
C692 C693 1.310 . S
C692 C695 1.461 . S
C692 H712 0.932 . S
C693 C691 1.408 . S
C693 C692 1.310 . S
C693 H713 0.930 . S
C694 C695 1.474 . S
C694 C696 1.285 . S
C694 H714 0.929 . S
C695 C692 1.461 . S
C695 C694 1.474 . S
C696 C691 1.342 . S
C696 C694 1.285 . S
C696 H715 0.930 . S
C697 C700 1.424 . S
C697 C702 1.245 . S
C697 C703 1.428 . S
C698 C701 1.260 . S
C698 C702 1.477 . S
C698 H716 0.932 . S
C699 C700 1.384 . S
C699 C701 1.479 . S
C699 H717 0.929 . S
C700 C697 1.424 . S
C700 C699 1.384 . S
C700 H718 0.928 . S
C701 C698 1.260 . S
C701 C699 1.479 . S
C702 C697 1.245 . S
C702 C698 1.477 . S
C702 H719 0.932 . S
C703 U686 2.882 . S
C703 C697 1.428 . S
C703 O706 1.301 . S
C703 O707 1.282 . S
O704 U686 2.441 . S
O704 C690 1.249 . S
O705 U686 2.420 . S
O705 C690 1.202 . S
O706 U686 2.455 . S
O706 C703 1.301 . S
O707 U686 2.449 . S
O707 C703 1.282 . S
H708 C681 0.931 . S
H709 C683 0.929 . S
H710 C684 0.930 . S
H711 C685 0.931 . S
H712 C692 0.932 . S
H713 C693 0.930 . S
H714 C694 0.929 . S
H715 C696 0.930 . S
H716 C698 0.932 . S
H717 C699 0.929 . S
H718 C700 0.928 . S
H719 C702 0.932 . S
C720 C721 1.264 . S
C720 C725 1.479 . S
C720 C730 1.465 . S
C721 C720 1.264 . S
C721 C723 1.339 . S
C721 H748 0.931 . S
C722 C723 1.395 . S
C722 C724 1.320 . S
C723 C721 1.339 . S
C723 C722 1.395 . S
C723 H749 0.929 . S
C724 C722 1.320 . S
C724 C725 1.405 . S
C724 H750 0.930 . S
C725 C720 1.479 . S
C725 C724 1.405 . S
C725 H751 0.931 . S
U726 O727 2.454 . S
U726 O728 2.458 . S
U726 C729 2.984 . S
U726 C730 2.847 . S
U726 C743 2.882 . S
U726 O744 2.441 . S
U726 O745 2.420 . S
U726 O746 2.455 . S
U726 O747 2.449 . S
O727 U726 2.454 . S
O727 C729 1.353 . S
O728 U726 2.458 . S
O728 C729 1.286 . S
C729 U726 2.984 . S
C729 O727 1.353 . S
C729 O728 1.286 . S
C729 C731 1.363 . S
C730 C720 1.465 . S
C730 U726 2.847 . S
C730 O744 1.249 . S
C730 O745 1.202 . S
C731 C729 1.363 . S
C731 C733 1.408 . S
C731 C736 1.342 . S
C732 C733 1.310 . S
C732 C735 1.461 . S
C732 H752 0.932 . S
C733 C731 1.408 . S
C733 C732 1.310 . S
C733 H753 0.930 . S
C734 C735 1.474 . S
C734 C736 1.285 . S
C734 H754 0.929 . S
C735 C732 1.461 . S
C735 C734 1.474 . S
C736 C731 1.342 . S
C736 C734 1.285 . S
C736 H755 0.930 . S
C737 C740 1.424 . S
C737 C742 1.245 . S
C737 C743 1.428 . S
C738 C741 1.260 . S
C738 C742 1.477 . S
C738 H756 0.932 . S
C739 C740 1.384 . S
C739 C741 1.479 . S
C739 H757 0.929 . S
C740 C737 1.424 . S
C740 C739 1.384 . S
C740 H758 0.928 . S
C741 C738 1.260 . S
C741 C739 1.479 . S
C742 C737 1.245 . S
C742 C738 1.477 . S
C742 H759 0.932 . S
C743 U726 2.882 . S
C743 C737 1.428 . S
C743 O746 1.301 . S
C743 O747 1.282 . S
O744 U726 2.441 . S
O744 C730 1.249 . S
O745 U726 2.420 . S
O745 C730 1.202 . S
O746 U726 2.455 . S
O746 C743 1.301 . S
O747 U726 2.449 . S
O747 C743 1.282 . S
H748 C721 0.931 . S
H749 C723 0.929 . S
H750 C724 0.930 . S
H751 C725 0.931 . S
H752 C732 0.932 . S
H753 C733 0.930 . S
H754 C734 0.929 . S
H755 C736 0.930 . S
H756 C738 0.932 . S
H757 C739 0.929 . S
H758 C740 0.928 . S
H759 C742 0.932 . S
C760 C761 1.264 . S
C760 C765 1.479 . S
C760 C770 1.465 . S
C761 C760 1.264 . S
C761 C763 1.339 . S
C761 H788 0.931 . S
C762 C763 1.395 . S
C762 C764 1.320 . S
C763 C761 1.339 . S
C763 C762 1.395 . S
C763 H789 0.929 . S
C764 C762 1.320 . S
C764 C765 1.405 . S
C764 H790 0.930 . S
C765 C760 1.479 . S
C765 C764 1.405 . S
C765 H791 0.931 . S
U766 O767 2.454 . S
U766 O768 2.458 . S
U766 C769 2.984 . S
U766 C770 2.847 . S
U766 C783 2.882 . S
U766 O784 2.441 . S
U766 O785 2.420 . S
U766 O786 2.455 . S
U766 O787 2.449 . S
O767 U766 2.454 . S
O767 C769 1.353 . S
O768 U766 2.458 . S
O768 C769 1.286 . S
C769 U766 2.984 . S
C769 O767 1.353 . S
C769 O768 1.286 . S
C769 C771 1.363 . S
C770 C760 1.465 . S
C770 U766 2.847 . S
C770 O784 1.249 . S
C770 O785 1.202 . S
C771 C769 1.363 . S
C771 C773 1.408 . S
C771 C776 1.342 . S
C772 C773 1.310 . S
C772 C775 1.461 . S
C772 H792 0.932 . S
C773 C771 1.408 . S
C773 C772 1.310 . S
C773 H793 0.930 . S
C774 C775 1.474 . S
C774 C776 1.285 . S
C774 H794 0.929 . S
C775 C772 1.461 . S
C775 C774 1.474 . S
C776 C771 1.342 . S
C776 C774 1.285 . S
C776 H795 0.930 . S
C777 C780 1.424 . S
C777 C782 1.245 . S
C777 C783 1.428 . S
C778 C781 1.260 . S
C778 C782 1.477 . S
C778 H796 0.932 . S
C779 C780 1.384 . S
C779 C781 1.479 . S
C779 H797 0.929 . S
C780 C777 1.424 . S
C780 C779 1.384 . S
C780 H798 0.928 . S
C781 C778 1.260 . S
C781 C779 1.479 . S
C782 C777 1.245 . S
C782 C778 1.477 . S
C782 H799 0.932 . S
C783 U766 2.882 . S
C783 C777 1.428 . S
C783 O786 1.301 . S
C783 O787 1.282 . S
O784 U766 2.441 . S
O784 C770 1.249 . S
O785 U766 2.420 . S
O785 C770 1.202 . S
O786 U766 2.455 . S
O786 C783 1.301 . S
O787 U766 2.449 . S
O787 C783 1.282 . S
H788 C761 0.931 . S
H789 C763 0.929 . S
H790 C764 0.930 . S
H791 C765 0.931 . S
H792 C772 0.932 . S
H793 C773 0.930 . S
H794 C774 0.929 . S
H795 C776 0.930 . S
H796 C778 0.932 . S
H797 C779 0.929 . S
H798 C780 0.928 . S
H799 C782 0.932 . S
C800 C801 1.264 . S
C800 C805 1.479 . S
C800 C810 1.465 . S
C801 C800 1.264 . S
C801 C803 1.339 . S
C801 H828 0.931 . S
C802 C803 1.395 . S
C802 C804 1.320 . S
C803 C801 1.339 . S
C803 C802 1.395 . S
C803 H829 0.929 . S
C804 C802 1.320 . S
C804 C805 1.405 . S
C804 H830 0.930 . S
C805 C800 1.479 . S
C805 C804 1.405 . S
C805 H831 0.931 . S
U806 O807 2.454 . S
U806 O808 2.458 . S
U806 C809 2.984 . S
U806 C810 2.847 . S
U806 C823 2.882 . S
U806 O824 2.441 . S
U806 O825 2.420 . S
U806 O826 2.455 . S
U806 O827 2.449 . S
O807 U806 2.454 . S
O807 C809 1.353 . S
O808 U806 2.458 . S
O808 C809 1.286 . S
C809 U806 2.984 . S
C809 O807 1.353 . S
C809 O808 1.286 . S
C809 C811 1.363 . S
C810 C800 1.465 . S
C810 U806 2.847 . S
C810 O824 1.249 . S
C810 O825 1.202 . S
C811 C809 1.363 . S
C811 C813 1.408 . S
C811 C816 1.342 . S
C812 C813 1.310 . S
C812 C815 1.461 . S
C812 H832 0.932 . S
C813 C811 1.408 . S
C813 C812 1.310 . S
C813 H833 0.930 . S
C814 C815 1.474 . S
C814 C816 1.285 . S
C814 H834 0.929 . S
C815 C812 1.461 . S
C815 C814 1.474 . S
C816 C811 1.342 . S
C816 C814 1.285 . S
C816 H835 0.930 . S
C817 C820 1.424 . S
C817 C822 1.245 . S
C817 C823 1.428 . S
C818 C821 1.260 . S
C818 C822 1.477 . S
C818 H836 0.932 . S
C819 C820 1.384 . S
C819 C821 1.479 . S
C819 H837 0.929 . S
C820 C817 1.424 . S
C820 C819 1.384 . S
C820 H838 0.928 . S
C821 C818 1.260 . S
C821 C819 1.479 . S
C822 C817 1.245 . S
C822 C818 1.477 . S
C822 H839 0.932 . S
C823 U806 2.882 . S
C823 C817 1.428 . S
C823 O826 1.301 . S
C823 O827 1.282 . S
O824 U806 2.441 . S
O824 C810 1.249 . S
O825 U806 2.420 . S
O825 C810 1.202 . S
O826 U806 2.455 . S
O826 C823 1.301 . S
O827 U806 2.449 . S
O827 C823 1.282 . S
H828 C801 0.931 . S
H829 C803 0.929 . S
H830 C804 0.930 . S
H831 C805 0.931 . S
H832 C812 0.932 . S
H833 C813 0.930 . S
H834 C814 0.929 . S
H835 C816 0.930 . S
H836 C818 0.932 . S
H837 C819 0.929 . S
H838 C820 0.928 . S
H839 C822 0.932 . S
C840 C841 1.264 . S
C840 C845 1.479 . S
C840 C850 1.465 . S
C841 C840 1.264 . S
C841 C843 1.339 . S
C841 H868 0.931 . S
C842 C843 1.395 . S
C842 C844 1.320 . S
C843 C841 1.339 . S
C843 C842 1.395 . S
C843 H869 0.929 . S
C844 C842 1.320 . S
C844 C845 1.405 . S
C844 H870 0.930 . S
C845 C840 1.479 . S
C845 C844 1.405 . S
C845 H871 0.931 . S
U846 O847 2.454 . S
U846 O848 2.458 . S
U846 C849 2.984 . S
U846 C850 2.847 . S
U846 C863 2.882 . S
U846 O864 2.441 . S
U846 O865 2.420 . S
U846 O866 2.455 . S
U846 O867 2.449 . S
O847 U846 2.454 . S
O847 C849 1.353 . S
O848 U846 2.458 . S
O848 C849 1.286 . S
C849 U846 2.984 . S
C849 O847 1.353 . S
C849 O848 1.286 . S
C849 C851 1.363 . S
C850 C840 1.465 . S
C850 U846 2.847 . S
C850 O864 1.249 . S
C850 O865 1.202 . S
C851 C849 1.363 . S
C851 C853 1.408 . S
C851 C856 1.342 . S
C852 C853 1.310 . S
C852 C855 1.461 . S
C852 H872 0.932 . S
C853 C851 1.408 . S
C853 C852 1.310 . S
C853 H873 0.930 . S
C854 C855 1.474 . S
C854 C856 1.285 . S
C854 H874 0.929 . S
C855 C852 1.461 . S
C855 C854 1.474 . S
C856 C851 1.342 . S
C856 C854 1.285 . S
C856 H875 0.930 . S
C857 C860 1.424 . S
C857 C862 1.245 . S
C857 C863 1.428 . S
C858 C861 1.260 . S
C858 C862 1.477 . S
C858 H876 0.932 . S
C859 C860 1.384 . S
C859 C861 1.479 . S
C859 H877 0.929 . S
C860 C857 1.424 . S
C860 C859 1.384 . S
C860 H878 0.928 . S
C861 C858 1.260 . S
C861 C859 1.479 . S
C862 C857 1.245 . S
C862 C858 1.477 . S
C862 H879 0.932 . S
C863 U846 2.882 . S
C863 C857 1.428 . S
C863 O866 1.301 . S
C863 O867 1.282 . S
O864 U846 2.441 . S
O864 C850 1.249 . S
O865 U846 2.420 . S
O865 C850 1.202 . S
O866 U846 2.455 . S
O866 C863 1.301 . S
O867 U846 2.449 . S
O867 C863 1.282 . S
H868 C841 0.931 . S
H869 C843 0.929 . S
H870 C844 0.930 . S
H871 C845 0.931 . S
H872 C852 0.932 . S
H873 C853 0.930 . S
H874 C854 0.929 . S
H875 C856 0.930 . S
H876 C858 0.932 . S
H877 C859 0.929 . S
H878 C860 0.928 . S
H879 C862 0.932 . S
C880 C881 1.264 . S
C880 C885 1.479 . S
C880 C890 1.465 . S
C881 C880 1.264 . S
C881 C883 1.339 . S
C881 H908 0.931 . S
C882 C883 1.395 . S
C882 C884 1.320 . S
C883 C881 1.339 . S
C883 C882 1.395 . S
C883 H909 0.929 . S
C884 C882 1.320 . S
C884 C885 1.405 . S
C884 H910 0.930 . S
C885 C880 1.479 . S
C885 C884 1.405 . S
C885 H911 0.931 . S
U886 O887 2.454 . S
U886 O888 2.458 . S
U886 C889 2.984 . S
U886 C890 2.847 . S
U886 C903 2.882 . S
U886 O904 2.441 . S
U886 O905 2.420 . S
U886 O906 2.455 . S
U886 O907 2.449 . S
O887 U886 2.454 . S
O887 C889 1.353 . S
O888 U886 2.458 . S
O888 C889 1.286 . S
C889 U886 2.984 . S
C889 O887 1.353 . S
C889 O888 1.286 . S
C889 C891 1.363 . S
C890 C880 1.465 . S
C890 U886 2.847 . S
C890 O904 1.249 . S
C890 O905 1.202 . S
C891 C889 1.363 . S
C891 C893 1.408 . S
C891 C896 1.342 . S
C892 C893 1.310 . S
C892 C895 1.461 . S
C892 H912 0.932 . S
C893 C891 1.408 . S
C893 C892 1.310 . S
C893 H913 0.930 . S
C894 C895 1.474 . S
C894 C896 1.285 . S
C894 H914 0.929 . S
C895 C892 1.461 . S
C895 C894 1.474 . S
C896 C891 1.342 . S
C896 C894 1.285 . S
C896 H915 0.930 . S
C897 C900 1.424 . S
C897 C902 1.245 . S
C897 C903 1.428 . S
C898 C901 1.260 . S
C898 C902 1.477 . S
C898 H916 0.932 . S
C899 C900 1.384 . S
C899 C901 1.479 . S
C899 H917 0.929 . S
C900 C897 1.424 . S
C900 C899 1.384 . S
C900 H918 0.928 . S
C901 C898 1.260 . S
C901 C899 1.479 . S
C902 C897 1.245 . S
C902 C898 1.477 . S
C902 H919 0.932 . S
C903 U886 2.882 . S
C903 C897 1.428 . S
C903 O906 1.301 . S
C903 O907 1.282 . S
O904 U886 2.441 . S
O904 C890 1.249 . S
O905 U886 2.420 . S
O905 C890 1.202 . S
O906 U886 2.455 . S
O906 C903 1.301 . S
O907 U886 2.449 . S
O907 C903 1.282 . S
H908 C881 0.931 . S
H909 C883 0.929 . S
H910 C884 0.930 . S
H911 C885 0.931 . S
H912 C892 0.932 . S
H913 C893 0.930 . S
H914 C894 0.929 . S
H915 C896 0.930 . S
H916 C898 0.932 . S
H917 C899 0.929 . S
H918 C900 0.928 . S
H919 C902 0.932 . S
C920 C921 1.264 . S
C920 C925 1.479 . S
C920 C930 1.465 . S
C921 C920 1.264 . S
C921 C923 1.339 . S
C921 H948 0.931 . S
C922 C923 1.395 . S
C922 C924 1.320 . S
C923 C921 1.339 . S
C923 C922 1.395 . S
C923 H949 0.929 . S
C924 C922 1.320 . S
C924 C925 1.405 . S
C924 H950 0.930 . S
C925 C920 1.479 . S
C925 C924 1.405 . S
C925 H951 0.931 . S
U926 O927 2.454 . S
U926 O928 2.458 . S
U926 C929 2.984 . S
U926 C930 2.847 . S
U926 C943 2.882 . S
U926 O944 2.441 . S
U926 O945 2.420 . S
U926 O946 2.455 . S
U926 O947 2.449 . S
O927 U926 2.454 . S
O927 C929 1.353 . S
O928 U926 2.458 . S
O928 C929 1.286 . S
C929 U926 2.984 . S
C929 O927 1.353 . S
C929 O928 1.286 . S
C929 C931 1.363 . S
C930 C920 1.465 . S
C930 U926 2.847 . S
C930 O944 1.249 . S
C930 O945 1.202 . S
C931 C929 1.363 . S
C931 C933 1.408 . S
C931 C936 1.342 . S
C932 C933 1.310 . S
C932 C935 1.461 . S
C932 H952 0.932 . S
C933 C931 1.408 . S
C933 C932 1.310 . S
C933 H953 0.930 . S
C934 C935 1.474 . S
C934 C936 1.285 . S
C934 H954 0.929 . S
C935 C932 1.461 . S
C935 C934 1.474 . S
C936 C931 1.342 . S
C936 C934 1.285 . S
C936 H955 0.930 . S
C937 C940 1.424 . S
C937 C942 1.245 . S
C937 C943 1.428 . S
C938 C941 1.260 . S
C938 C942 1.477 . S
C938 H956 0.932 . S
C939 C940 1.384 . S
C939 C941 1.479 . S
C939 H957 0.929 . S
C940 C937 1.424 . S
C940 C939 1.384 . S
C940 H958 0.928 . S
C941 C938 1.260 . S
C941 C939 1.479 . S
C942 C937 1.245 . S
C942 C938 1.477 . S
C942 H959 0.932 . S
C943 U926 2.882 . S
C943 C937 1.428 . S
C943 O946 1.301 . S
C943 O947 1.282 . S
O944 U926 2.441 . S
O944 C930 1.249 . S
O945 U926 2.420 . S
O945 C930 1.202 . S
O946 U926 2.455 . S
O946 C943 1.301 . S
O947 U926 2.449 . S
O947 C943 1.282 . S
H948 C921 0.931 . S
H949 C923 0.929 . S
H950 C924 0.930 . S
H951 C925 0.931 . S
H952 C932 0.932 . S
H953 C933 0.930 . S
H954 C934 0.929 . S
H955 C936 0.930 . S
H956 C938 0.932 . S
H957 C939 0.929 . S
H958 C940 0.928 . S
H959 C942 0.932 . S
C960 C961 1.264 . S
C960 C965 1.479 . S
C960 C970 1.465 . S
C961 C960 1.264 . S
C961 C963 1.339 . S
C961 H988 0.931 . S
C962 C963 1.395 . S
C962 C964 1.320 . S
C963 C961 1.339 . S
C963 C962 1.395 . S
C963 H989 0.929 . S
C964 C962 1.320 . S
C964 C965 1.405 . S
C964 H990 0.930 . S
C965 C960 1.479 . S
C965 C964 1.405 . S
C965 H991 0.931 . S
U966 O967 2.454 . S
U966 O968 2.458 . S
U966 C969 2.984 . S
U966 C970 2.847 . S
U966 C983 2.882 . S
U966 O984 2.441 . S
U966 O985 2.420 . S
U966 O986 2.455 . S
U966 O987 2.449 . S
O967 U966 2.454 . S
O967 C969 1.353 . S
O968 U966 2.458 . S
O968 C969 1.286 . S
C969 U966 2.984 . S
C969 O967 1.353 . S
C969 O968 1.286 . S
C969 C971 1.363 . S
C970 C960 1.465 . S
C970 U966 2.847 . S
C970 O984 1.249 . S
C970 O985 1.202 . S
C971 C969 1.363 . S
C971 C973 1.408 . S
C971 C976 1.342 . S
C972 C973 1.310 . S
C972 C975 1.461 . S
C972 H992 0.932 . S
C973 C971 1.408 . S
C973 C972 1.310 . S
C973 H993 0.930 . S
C974 C975 1.474 . S
C974 C976 1.285 . S
C974 H994 0.929 . S
C975 C972 1.461 . S
C975 C974 1.474 . S
C976 C971 1.342 . S
C976 C974 1.285 . S
C976 H995 0.930 . S
C977 C980 1.424 . S
C977 C982 1.245 . S
C977 C983 1.428 . S
C978 C981 1.260 . S
C978 C982 1.477 . S
C978 H996 0.932 . S
C979 C980 1.384 . S
C979 C981 1.479 . S
C979 H997 0.929 . S
C980 C977 1.424 . S
C980 C979 1.384 . S
C980 H998 0.928 . S
C981 C978 1.260 . S
C981 C979 1.479 . S
C982 C977 1.245 . S
C982 C978 1.477 . S
C982 H999 0.932 . S
C983 U966 2.882 . S
C983 C977 1.428 . S
C983 O986 1.301 . S
C983 O987 1.282 . S
O984 U966 2.441 . S
O984 C970 1.249 . S
O985 U966 2.420 . S
O985 C970 1.202 . S
O986 U966 2.455 . S
O986 C983 1.301 . S
O987 U966 2.449 . S
O987 C983 1.282 . S
H988 C961 0.931 . S
H989 C963 0.929 . S
H990 C964 0.930 . S
H991 C965 0.931 . S
H992 C972 0.932 . S
H993 C973 0.930 . S
H994 C974 0.929 . S
H995 C976 0.930 . S
H996 C978 0.932 . S
H997 C979 0.929 . S
H998 C980 0.928 . S
H999 C982 0.932 . S
C1000 C1001 1.264 . S
C1000 C1005 1.479 . S
C1000 C1010 1.465 . S
C1001 C1000 1.264 . S
C1001 C1003 1.339 . S
C1001 H1028 0.931 . S
C1002 C1003 1.395 . S
C1002 C1004 1.320 . S
C1003 C1001 1.339 . S
C1003 C1002 1.395 . S
C1003 H1029 0.929 . S
C1004 C1002 1.320 . S
C1004 C1005 1.405 . S
C1004 H1030 0.930 . S
C1005 C1000 1.479 . S
C1005 C1004 1.405 . S
C1005 H1031 0.931 . S
U1006 O1007 2.454 . S
U1006 O1008 2.458 . S
U1006 C1009 2.984 . S
U1006 C1010 2.847 . S
U1006 C1023 2.882 . S
U1006 O1024 2.441 . S
U1006 O1025 2.420 . S
U1006 O1026 2.455 . S
U1006 O1027 2.449 . S
O1007 U1006 2.454 . S
O1007 C1009 1.353 . S
O1008 U1006 2.458 . S
O1008 C1009 1.286 . S
C1009 U1006 2.984 . S
C1009 O1007 1.353 . S
C1009 O1008 1.286 . S
C1009 C1011 1.363 . S
C1010 C1000 1.465 . S
C1010 U1006 2.847 . S
C1010 O1024 1.249 . S
C1010 O1025 1.202 . S
C1011 C1009 1.363 . S
C1011 C1013 1.408 . S
C1011 C1016 1.342 . S
C1012 C1013 1.310 . S
C1012 C1015 1.461 . S
C1012 H1032 0.932 . S
C1013 C1011 1.408 . S
C1013 C1012 1.310 . S
C1013 H1033 0.930 . S
C1014 C1015 1.474 . S
C1014 C1016 1.285 . S
C1014 H1034 0.929 . S
C1015 C1012 1.461 . S
C1015 C1014 1.474 . S
C1016 C1011 1.342 . S
C1016 C1014 1.285 . S
C1016 H1035 0.930 . S
C1017 C1020 1.424 . S
C1017 C1022 1.245 . S
C1017 C1023 1.428 . S
C1018 C1021 1.260 . S
C1018 C1022 1.477 . S
C1018 H1036 0.932 . S
C1019 C1020 1.384 . S
C1019 C1021 1.479 . S
C1019 H1037 0.929 . S
C1020 C1017 1.424 . S
C1020 C1019 1.384 . S
C1020 H1038 0.928 . S
C1021 C1018 1.260 . S
C1021 C1019 1.479 . S
C1022 C1017 1.245 . S
C1022 C1018 1.477 . S
C1022 H1039 0.932 . S
C1023 U1006 2.882 . S
C1023 C1017 1.428 . S
C1023 O1026 1.301 . S
C1023 O1027 1.282 . S
O1024 U1006 2.441 . S
O1024 C1010 1.249 . S
O1025 U1006 2.420 . S
O1025 C1010 1.202 . S
O1026 U1006 2.455 . S
O1026 C1023 1.301 . S
O1027 U1006 2.449 . S
O1027 C1023 1.282 . S
H1028 C1001 0.931 . S
H1029 C1003 0.929 . S
H1030 C1004 0.930 . S
H1031 C1005 0.931 . S
H1032 C1012 0.932 . S
H1033 C1013 0.930 . S
H1034 C1014 0.929 . S
H1035 C1016 0.930 . S
H1036 C1018 0.932 . S
H1037 C1019 0.929 . S
H1038 C1020 0.928 . S
H1039 C1022 0.932 . S
C1040 C1041 1.264 . S
C1040 C1045 1.479 . S
C1040 C1050 1.465 . S
C1041 C1040 1.264 . S
C1041 C1043 1.339 . S
C1041 H1068 0.931 . S
C1042 C1043 1.395 . S
C1042 C1044 1.320 . S
C1043 C1041 1.339 . S
C1043 C1042 1.395 . S
C1043 H1069 0.929 . S
C1044 C1042 1.320 . S
C1044 C1045 1.405 . S
C1044 H1070 0.930 . S
C1045 C1040 1.479 . S
C1045 C1044 1.405 . S
C1045 H1071 0.931 . S
U1046 O1047 2.454 . S
U1046 O1048 2.458 . S
U1046 C1049 2.984 . S
U1046 C1050 2.847 . S
U1046 C1063 2.882 . S
U1046 O1064 2.441 . S
U1046 O1065 2.420 . S
U1046 O1066 2.455 . S
U1046 O1067 2.449 . S
O1047 U1046 2.454 . S
O1047 C1049 1.353 . S
O1048 U1046 2.458 . S
O1048 C1049 1.286 . S
C1049 U1046 2.984 . S
C1049 O1047 1.353 . S
C1049 O1048 1.286 . S
C1049 C1051 1.363 . S
C1050 C1040 1.465 . S
C1050 U1046 2.847 . S
C1050 O1064 1.249 . S
C1050 O1065 1.202 . S
C1051 C1049 1.363 . S
C1051 C1053 1.408 . S
C1051 C1056 1.342 . S
C1052 C1053 1.310 . S
C1052 C1055 1.461 . S
C1052 H1072 0.932 . S
C1053 C1051 1.408 . S
C1053 C1052 1.310 . S
C1053 H1073 0.930 . S
C1054 C1055 1.474 . S
C1054 C1056 1.285 . S
C1054 H1074 0.929 . S
C1055 C1052 1.461 . S
C1055 C1054 1.474 . S
C1056 C1051 1.342 . S
C1056 C1054 1.285 . S
C1056 H1075 0.930 . S
C1057 C1060 1.424 . S
C1057 C1062 1.245 . S
C1057 C1063 1.428 . S
C1058 C1061 1.260 . S
C1058 C1062 1.477 . S
C1058 H1076 0.932 . S
C1059 C1060 1.384 . S
C1059 C1061 1.479 . S
C1059 H1077 0.929 . S
C1060 C1057 1.424 . S
C1060 C1059 1.384 . S
C1060 H1078 0.928 . S
C1061 C1058 1.260 . S
C1061 C1059 1.479 . S
C1062 C1057 1.245 . S
C1062 C1058 1.477 . S
C1062 H1079 0.932 . S
C1063 U1046 2.882 . S
C1063 C1057 1.428 . S
C1063 O1066 1.301 . S
C1063 O1067 1.282 . S
O1064 U1046 2.441 . S
O1064 C1050 1.249 . S
O1065 U1046 2.420 . S
O1065 C1050 1.202 . S
O1066 U1046 2.455 . S
O1066 C1063 1.301 . S
O1067 U1046 2.449 . S
O1067 C1063 1.282 . S
H1068 C1041 0.931 . S
H1069 C1043 0.929 . S
H1070 C1044 0.930 . S
H1071 C1045 0.931 . S
H1072 C1052 0.932 . S
H1073 C1053 0.930 . S
H1074 C1054 0.929 . S
H1075 C1056 0.930 . S
H1076 C1058 0.932 . S
H1077 C1059 0.929 . S
H1078 C1060 0.928 . S
H1079 C1062 0.932 . S
C1080 C1081 1.264 . S
C1080 C1085 1.479 . S
C1080 C1090 1.465 . S
C1081 C1080 1.264 . S
C1081 C1083 1.339 . S
C1081 H1108 0.931 . S
C1082 C1083 1.395 . S
C1082 C1084 1.320 . S
C1083 C1081 1.339 . S
C1083 C1082 1.395 . S
C1083 H1109 0.929 . S
C1084 C1082 1.320 . S
C1084 C1085 1.405 . S
C1084 H1110 0.930 . S
C1085 C1080 1.479 . S
C1085 C1084 1.405 . S
C1085 H1111 0.931 . S
U1086 O1087 2.454 . S
U1086 O1088 2.458 . S
U1086 C1089 2.984 . S
U1086 C1090 2.847 . S
U1086 C1103 2.882 . S
U1086 O1104 2.441 . S
U1086 O1105 2.420 . S
U1086 O1106 2.455 . S
U1086 O1107 2.449 . S
O1087 U1086 2.454 . S
O1087 C1089 1.353 . S
O1088 U1086 2.458 . S
O1088 C1089 1.286 . S
C1089 U1086 2.984 . S
C1089 O1087 1.353 . S
C1089 O1088 1.286 . S
C1089 C1091 1.363 . S
C1090 C1080 1.465 . S
C1090 U1086 2.847 . S
C1090 O1104 1.249 . S
C1090 O1105 1.202 . S
C1091 C1089 1.363 . S
C1091 C1093 1.408 . S
C1091 C1096 1.342 . S
C1092 C1093 1.310 . S
C1092 C1095 1.461 . S
C1092 H1112 0.932 . S
C1093 C1091 1.408 . S
C1093 C1092 1.310 . S
C1093 H1113 0.930 . S
C1094 C1095 1.474 . S
C1094 C1096 1.285 . S
C1094 H1114 0.929 . S
C1095 C1092 1.461 . S
C1095 C1094 1.474 . S
C1096 C1091 1.342 . S
C1096 C1094 1.285 . S
C1096 H1115 0.930 . S
C1097 C1100 1.424 . S
C1097 C1102 1.245 . S
C1097 C1103 1.428 . S
C1098 C1101 1.260 . S
C1098 C1102 1.477 . S
C1098 H1116 0.932 . S
C1099 C1100 1.384 . S
C1099 C1101 1.479 . S
C1099 H1117 0.929 . S
C1100 C1097 1.424 . S
C1100 C1099 1.384 . S
C1100 H1118 0.928 . S
C1101 C1098 1.260 . S
C1101 C1099 1.479 . S
C1102 C1097 1.245 . S
C1102 C1098 1.477 . S
C1102 H1119 0.932 . S
C1103 U1086 2.882 . S
C1103 C1097 1.428 . S
C1103 O1106 1.301 . S
C1103 O1107 1.282 . S
O1104 U1086 2.441 . S
O1104 C1090 1.249 . S
O1105 U1086 2.420 . S
O1105 C1090 1.202 . S
O1106 U1086 2.455 . S
O1106 C1103 1.301 . S
O1107 U1086 2.449 . S
O1107 C1103 1.282 . S
H1108 C1081 0.931 . S
H1109 C1083 0.929 . S
H1110 C1084 0.930 . S
H1111 C1085 0.931 . S
H1112 C1092 0.932 . S
H1113 C1093 0.930 . S
H1114 C1094 0.929 . S
H1115 C1096 0.930 . S
H1116 C1098 0.932 . S
H1117 C1099 0.929 . S
H1118 C1100 0.928 . S
H1119 C1102 0.932 . S
C1120 C1121 1.264 . S
C1120 C1125 1.479 . S
C1120 C1130 1.465 . S
C1121 C1120 1.264 . S
C1121 C1123 1.339 . S
C1121 H1148 0.931 . S
C1122 C1123 1.395 . S
C1122 C1124 1.320 . S
C1123 C1121 1.339 . S
C1123 C1122 1.395 . S
C1123 H1149 0.929 . S
C1124 C1122 1.320 . S
C1124 C1125 1.405 . S
C1124 H1150 0.930 . S
C1125 C1120 1.479 . S
C1125 C1124 1.405 . S
C1125 H1151 0.931 . S
U1126 O1127 2.454 . S
U1126 O1128 2.458 . S
U1126 C1129 2.984 . S
U1126 C1130 2.847 . S
U1126 C1143 2.882 . S
U1126 O1144 2.441 . S
U1126 O1145 2.420 . S
U1126 O1146 2.455 . S
U1126 O1147 2.449 . S
O1127 U1126 2.454 . S
O1127 C1129 1.353 . S
O1128 U1126 2.458 . S
O1128 C1129 1.286 . S
C1129 U1126 2.984 . S
C1129 O1127 1.353 . S
C1129 O1128 1.286 . S
C1129 C1131 1.363 . S
C1130 C1120 1.465 . S
C1130 U1126 2.847 . S
C1130 O1144 1.249 . S
C1130 O1145 1.202 . S
C1131 C1129 1.363 . S
C1131 C1133 1.408 . S
C1131 C1136 1.342 . S
C1132 C1133 1.310 . S
C1132 C1135 1.461 . S
C1132 H1152 0.932 . S
C1133 C1131 1.408 . S
C1133 C1132 1.310 . S
C1133 H1153 0.930 . S
C1134 C1135 1.474 . S
C1134 C1136 1.285 . S
C1134 H1154 0.929 . S
C1135 C1132 1.461 . S
C1135 C1134 1.474 . S
C1136 C1131 1.342 . S
C1136 C1134 1.285 . S
C1136 H1155 0.930 . S
C1137 C1140 1.424 . S
C1137 C1142 1.245 . S
C1137 C1143 1.428 . S
C1138 C1141 1.260 . S
C1138 C1142 1.477 . S
C1138 H1156 0.932 . S
C1139 C1140 1.384 . S
C1139 C1141 1.479 . S
C1139 H1157 0.929 . S
C1140 C1137 1.424 . S
C1140 C1139 1.384 . S
C1140 H1158 0.928 . S
C1141 C1138 1.260 . S
C1141 C1139 1.479 . S
C1142 C1137 1.245 . S
C1142 C1138 1.477 . S
C1142 H1159 0.932 . S
C1143 U1126 2.882 . S
C1143 C1137 1.428 . S
C1143 O1146 1.301 . S
C1143 O1147 1.282 . S
O1144 U1126 2.441 . S
O1144 C1130 1.249 . S
O1145 U1126 2.420 . S
O1145 C1130 1.202 . S
O1146 U1126 2.455 . S
O1146 C1143 1.301 . S
O1147 U1126 2.449 . S
O1147 C1143 1.282 . S
H1148 C1121 0.931 . S
H1149 C1123 0.929 . S
H1150 C1124 0.930 . S
H1151 C1125 0.931 . S
H1152 C1132 0.932 . S
H1153 C1133 0.930 . S
H1154 C1134 0.929 . S
H1155 C1136 0.930 . S
H1156 C1138 0.932 . S
H1157 C1139 0.929 . S
H1158 C1140 0.928 . S
H1159 C1142 0.932 . S
C1160 C1161 1.264 . S
C1160 C1165 1.479 . S
C1160 C1170 1.465 . S
C1161 C1160 1.264 . S
C1161 C1163 1.339 . S
C1161 H1188 0.931 . S
C1162 C1163 1.395 . S
C1162 C1164 1.320 . S
C1163 C1161 1.339 . S
C1163 C1162 1.395 . S
C1163 H1189 0.929 . S
C1164 C1162 1.320 . S
C1164 C1165 1.405 . S
C1164 H1190 0.930 . S
C1165 C1160 1.479 . S
C1165 C1164 1.405 . S
C1165 H1191 0.931 . S
U1166 O1167 2.454 . S
U1166 O1168 2.458 . S
U1166 C1169 2.984 . S
U1166 C1170 2.847 . S
U1166 C1183 2.882 . S
U1166 O1184 2.441 . S
U1166 O1185 2.420 . S
U1166 O1186 2.455 . S
U1166 O1187 2.449 . S
O1167 U1166 2.454 . S
O1167 C1169 1.353 . S
O1168 U1166 2.458 . S
O1168 C1169 1.286 . S
C1169 U1166 2.984 . S
C1169 O1167 1.353 . S
C1169 O1168 1.286 . S
C1169 C1171 1.363 . S
C1170 C1160 1.465 . S
C1170 U1166 2.847 . S
C1170 O1184 1.249 . S
C1170 O1185 1.202 . S
C1171 C1169 1.363 . S
C1171 C1173 1.408 . S
C1171 C1176 1.342 . S
C1172 C1173 1.310 . S
C1172 C1175 1.461 . S
C1172 H1192 0.932 . S
C1173 C1171 1.408 . S
C1173 C1172 1.310 . S
C1173 H1193 0.930 . S
C1174 C1175 1.474 . S
C1174 C1176 1.285 . S
C1174 H1194 0.929 . S
C1175 C1172 1.461 . S
C1175 C1174 1.474 . S
C1176 C1171 1.342 . S
C1176 C1174 1.285 . S
C1176 H1195 0.930 . S
C1177 C1180 1.424 . S
C1177 C1182 1.245 . S
C1177 C1183 1.428 . S
C1178 C1181 1.260 . S
C1178 C1182 1.477 . S
C1178 H1196 0.932 . S
C1179 C1180 1.384 . S
C1179 C1181 1.479 . S
C1179 H1197 0.929 . S
C1180 C1177 1.424 . S
C1180 C1179 1.384 . S
C1180 H1198 0.928 . S
C1181 C1178 1.260 . S
C1181 C1179 1.479 . S
C1182 C1177 1.245 . S
C1182 C1178 1.477 . S
C1182 H1199 0.932 . S
C1183 U1166 2.882 . S
C1183 C1177 1.428 . S
C1183 O1186 1.301 . S
C1183 O1187 1.282 . S
O1184 U1166 2.441 . S
O1184 C1170 1.249 . S
O1185 U1166 2.420 . S
O1185 C1170 1.202 . S
O1186 U1166 2.455 . S
O1186 C1183 1.301 . S
O1187 U1166 2.449 . S
O1187 C1183 1.282 . S
H1188 C1161 0.931 . S
H1189 C1163 0.929 . S
H1190 C1164 0.930 . S
H1191 C1165 0.931 . S
H1192 C1172 0.932 . S
H1193 C1173 0.930 . S
H1194 C1174 0.929 . S
H1195 C1176 0.930 . S
H1196 C1178 0.932 . S
H1197 C1179 0.929 . S
H1198 C1180 0.928 . S
H1199 C1182 0.932 . S
C1200 C1201 1.264 . S
C1200 C1205 1.479 . S
C1200 C1210 1.465 . S
C1201 C1200 1.264 . S
C1201 C1203 1.339 . S
C1201 H1228 0.931 . S
C1202 C1203 1.395 . S
C1202 C1204 1.320 . S
C1203 C1201 1.339 . S
C1203 C1202 1.395 . S
C1203 H1229 0.929 . S
C1204 C1202 1.320 . S
C1204 C1205 1.405 . S
C1204 H1230 0.930 . S
C1205 C1200 1.479 . S
C1205 C1204 1.405 . S
C1205 H1231 0.931 . S
U1206 O1207 2.454 . S
U1206 O1208 2.458 . S
U1206 C1209 2.984 . S
U1206 C1210 2.847 . S
U1206 C1223 2.882 . S
U1206 O1224 2.441 . S
U1206 O1225 2.420 . S
U1206 O1226 2.455 . S
U1206 O1227 2.449 . S
O1207 U1206 2.454 . S
O1207 C1209 1.353 . S
O1208 U1206 2.458 . S
O1208 C1209 1.286 . S
C1209 U1206 2.984 . S
C1209 O1207 1.353 . S
C1209 O1208 1.286 . S
C1209 C1211 1.363 . S
C1210 C1200 1.465 . S
C1210 U1206 2.847 . S
C1210 O1224 1.249 . S
C1210 O1225 1.202 . S
C1211 C1209 1.363 . S
C1211 C1213 1.408 . S
C1211 C1216 1.342 . S
C1212 C1213 1.310 . S
C1212 C1215 1.461 . S
C1212 H1232 0.932 . S
C1213 C1211 1.408 . S
C1213 C1212 1.310 . S
C1213 H1233 0.930 . S
C1214 C1215 1.474 . S
C1214 C1216 1.285 . S
C1214 H1234 0.929 . S
C1215 C1212 1.461 . S
C1215 C1214 1.474 . S
C1216 C1211 1.342 . S
C1216 C1214 1.285 . S
C1216 H1235 0.930 . S
C1217 C1220 1.424 . S
C1217 C1222 1.245 . S
C1217 C1223 1.428 . S
C1218 C1221 1.260 . S
C1218 C1222 1.477 . S
C1218 H1236 0.932 . S
C1219 C1220 1.384 . S
C1219 C1221 1.479 . S
C1219 H1237 0.929 . S
C1220 C1217 1.424 . S
C1220 C1219 1.384 . S
C1220 H1238 0.928 . S
C1221 C1218 1.260 . S
C1221 C1219 1.479 . S
C1222 C1217 1.245 . S
C1222 C1218 1.477 . S
C1222 H1239 0.932 . S
C1223 U1206 2.882 . S
C1223 C1217 1.428 . S
C1223 O1226 1.301 . S
C1223 O1227 1.282 . S
O1224 U1206 2.441 . S
O1224 C1210 1.249 . S
O1225 U1206 2.420 . S
O1225 C1210 1.202 . S
O1226 U1206 2.455 . S
O1226 C1223 1.301 . S
O1227 U1206 2.449 . S
O1227 C1223 1.282 . S
H1228 C1201 0.931 . S
H1229 C1203 0.929 . S
H1230 C1204 0.930 . S
H1231 C1205 0.931 . S
H1232 C1212 0.932 . S
H1233 C1213 0.930 . S
H1234 C1214 0.929 . S
H1235 C1216 0.930 . S
H1236 C1218 0.932 . S
H1237 C1219 0.929 . S
H1238 C1220 0.928 . S
H1239 C1222 0.932 . S
C1240 C1241 1.264 . S
C1240 C1245 1.479 . S
C1240 C1250 1.465 . S
C1241 C1240 1.264 . S
C1241 C1243 1.339 . S
C1241 H1268 0.931 . S
C1242 C1243 1.395 . S
C1242 C1244 1.320 . S
C1243 C1241 1.339 . S
C1243 C1242 1.395 . S
C1243 H1269 0.929 . S
C1244 C1242 1.320 . S
C1244 C1245 1.405 . S
C1244 H1270 0.930 . S
C1245 C1240 1.479 . S
C1245 C1244 1.405 . S
C1245 H1271 0.931 . S
U1246 O1247 2.454 . S
U1246 O1248 2.458 . S
U1246 C1249 2.984 . S
U1246 C1250 2.847 . S
U1246 C1263 2.882 . S
U1246 O1264 2.441 . S
U1246 O1265 2.420 . S
U1246 O1266 2.455 . S
U1246 O1267 2.449 . S
O1247 U1246 2.454 . S
O1247 C1249 1.353 . S
O1248 U1246 2.458 . S
O1248 C1249 1.286 . S
C1249 U1246 2.984 . S
C1249 O1247 1.353 . S
C1249 O1248 1.286 . S
C1249 C1251 1.363 . S
C1250 C1240 1.465 . S
C1250 U1246 2.847 . S
C1250 O1264 1.249 . S
C1250 O1265 1.202 . S
C1251 C1249 1.363 . S
C1251 C1253 1.408 . S
C1251 C1256 1.342 . S
C1252 C1253 1.310 . S
C1252 C1255 1.461 . S
C1252 H1272 0.932 . S
C1253 C1251 1.408 . S
C1253 C1252 1.310 . S
C1253 H1273 0.930 . S
C1254 C1255 1.474 . S
C1254 C1256 1.285 . S
C1254 H1274 0.929 . S
C1255 C1252 1.461 . S
C1255 C1254 1.474 . S
C1256 C1251 1.342 . S
C1256 C1254 1.285 . S
C1256 H1275 0.930 . S
C1257 C1260 1.424 . S
C1257 C1262 1.245 . S
C1257 C1263 1.428 . S
C1258 C1261 1.260 . S
C1258 C1262 1.477 . S
C1258 H1276 0.932 . S
C1259 C1260 1.384 . S
C1259 C1261 1.479 . S
C1259 H1277 0.929 . S
C1260 C1257 1.424 . S
C1260 C1259 1.384 . S
C1260 H1278 0.928 . S
C1261 C1258 1.260 . S
C1261 C1259 1.479 . S
C1262 C1257 1.245 . S
C1262 C1258 1.477 . S
C1262 H1279 0.932 . S
C1263 U1246 2.882 . S
C1263 C1257 1.428 . S
C1263 O1266 1.301 . S
C1263 O1267 1.282 . S
O1264 U1246 2.441 . S
O1264 C1250 1.249 . S
O1265 U1246 2.420 . S
O1265 C1250 1.202 . S
O1266 U1246 2.455 . S
O1266 C1263 1.301 . S
O1267 U1246 2.449 . S
O1267 C1263 1.282 . S
H1268 C1241 0.931 . S
H1269 C1243 0.929 . S
H1270 C1244 0.930 . S
H1271 C1245 0.931 . S
H1272 C1252 0.932 . S
H1273 C1253 0.930 . S
H1274 C1254 0.929 . S
H1275 C1256 0.930 . S
H1276 C1258 0.932 . S
H1277 C1259 0.929 . S
H1278 C1260 0.928 . S
H1279 C1262 0.932 . S
H1280 C1307 0.929 . S
N1281 C1306 1.433 . S
N1281 C1312 1.435 . S
N1281 C1318 1.423 . S
H1282 C1308 0.930 . S
H1283 C1311 0.931 . S
H1284 C1310 0.929 . S
H1285 C1313 0.930 . S
H1286 C1314 0.932 . S
H1287 C1317 0.929 . S
H1288 C1316 0.931 . S
H1289 C1319 0.929 . S
H1290 C1323 0.932 . S
H1291 C1320 0.931 . S
H1292 C1322 0.929 . S
H1293 C1325 0.929 . S
H1294 C1326 0.930 . S
H1295 C1328 0.929 . S
H1296 C1329 0.931 . S
H1297 C1331 0.930 . S
H1298 C1332 0.932 . S
H1299 C1334 0.931 . S
H1300 C1335 0.929 . S
H1301 C1337 0.929 . S
H1302 C1338 0.931 . S
H1303 C1340 0.929 . S
N1304 C1324 1.433 . S
N1304 C1330 1.435 . S
N1304 C1336 1.423 . S
H1305 C1341 0.932 . S
C1306 N1281 1.433 . S
C1306 C1307 1.363 . S
C1306 C1311 1.370 . S
C1307 H1280 0.929 . S
C1307 C1306 1.363 . S
C1307 C1308 1.385 . S
C1308 H1282 0.930 . S
C1308 C1307 1.385 . S
C1308 C1309 1.357 . S
C1309 C1308 1.357 . S
C1309 C1310 1.406 . S
C1310 H1284 0.929 . S
C1310 C1309 1.406 . S
C1310 C1311 1.391 . S
C1311 H1283 0.931 . S
C1311 C1306 1.370 . S
C1311 C1310 1.391 . S
C1312 N1281 1.435 . S
C1312 C1313 1.358 . S
C1312 C1317 1.371 . S
C1313 H1285 0.930 . S
C1313 C1312 1.358 . S
C1313 C1314 1.405 . S
C1314 H1286 0.932 . S
C1314 C1313 1.405 . S
C1314 C1315 1.383 . S
C1315 C1314 1.383 . S
C1315 C1316 1.393 . S
C1316 H1288 0.931 . S
C1316 C1315 1.393 . S
C1316 C1317 1.382 . S
C1317 H1287 0.929 . S
C1317 C1312 1.371 . S
C1317 C1316 1.382 . S
C1318 N1281 1.423 . S
C1318 C1319 1.362 . S
C1318 C1323 1.388 . S
C1319 H1289 0.929 . S
C1319 C1318 1.362 . S
C1319 C1320 1.376 . S
C1320 H1291 0.931 . S
C1320 C1319 1.376 . S
C1320 C1321 1.357 1_556 S
C1321 C1320 1.357 1_554 S
C1321 C1322 1.308 1_554 S
C1321 C1339 1.549 . S
C1322 H1292 0.929 . S
C1322 C1321 1.308 1_556 S
C1322 C1323 1.443 . S
C1323 H1290 0.932 . S
C1323 C1318 1.388 . S
C1323 C1322 1.443 . S
C1324 N1304 1.433 . S
C1324 C1325 1.363 . S
C1324 C1329 1.370 . S
C1325 H1293 0.929 . S
C1325 C1324 1.363 . S
C1325 C1326 1.385 . S
C1326 H1294 0.930 . S
C1326 C1325 1.385 . S
C1326 C1327 1.357 . S
C1327 C1326 1.357 . S
C1327 C1328 1.406 . S
C1328 H1295 0.929 . S
C1328 C1327 1.406 . S
C1328 C1329 1.391 . S
C1329 H1296 0.931 . S
C1329 C1324 1.370 . S
C1329 C1328 1.391 . S
C1330 N1304 1.435 . S
C1330 C1331 1.358 . S
C1330 C1335 1.371 . S
C1331 H1297 0.930 . S
C1331 C1330 1.358 . S
C1331 C1332 1.405 . S
C1332 H1298 0.932 . S
C1332 C1331 1.405 . S
C1332 C1333 1.383 . S
C1333 C1332 1.383 . S
C1333 C1334 1.393 . S
C1334 H1299 0.931 . S
C1334 C1333 1.393 . S
C1334 C1335 1.382 . S
C1335 H1300 0.929 . S
C1335 C1330 1.371 . S
C1335 C1334 1.382 . S
C1336 N1304 1.423 . S
C1336 C1337 1.362 . S
C1336 C1341 1.388 . S
C1337 H1301 0.929 . S
C1337 C1336 1.362 . S
C1337 C1338 1.376 . S
C1338 H1302 0.931 . S
C1338 C1337 1.376 . S
C1338 C1339 1.396 . S
C1339 C1321 1.549 . S
C1339 C1338 1.396 . S
C1339 C1340 1.348 . S
C1340 H1303 0.929 . S
C1340 C1339 1.348 . S
C1340 C1341 1.443 . S
C1341 H1305 0.932 . S
C1341 C1336 1.388 . S
C1341 C1340 1.443 . S
H1342 C1369 0.929 . S
N1343 C1368 1.433 . S
N1343 C1374 1.435 . S
N1343 C1380 1.423 . S
H1344 C1370 0.930 . S
H1345 C1373 0.931 . S
H1346 C1372 0.929 . S
H1347 C1375 0.930 . S
H1348 C1376 0.932 . S
H1349 C1379 0.929 . S
H1350 C1378 0.931 . S
H1351 C1381 0.929 . S
H1352 C1385 0.932 . S
H1353 C1382 0.881 1_554 S
H1354 C1384 0.929 1_554 S
H1355 C1387 0.929 . S
H1356 C1388 0.930 . S
H1357 C1390 0.929 . S
H1358 C1391 0.931 . S
H1359 C1393 0.930 . S
H1360 C1394 0.932 . S
H1361 C1396 0.931 . S
H1362 C1397 0.929 . S
H1363 C1399 0.929 . S
H1364 C1400 0.931 . S
H1365 C1402 0.929 . S
N1366 C1386 1.433 . S
N1366 C1392 1.435 . S
N1366 C1398 1.423 . S
H1367 C1403 0.932 . S
C1368 N1343 1.433 . S
C1368 C1369 1.363 . S
C1368 C1373 1.370 . S
C1369 H1342 0.929 . S
C1369 C1368 1.363 . S
C1369 C1370 1.385 . S
C1370 H1344 0.930 . S
C1370 C1369 1.385 . S
C1370 C1371 1.357 . S
C1371 C1370 1.357 . S
C1371 C1372 1.406 . S
C1372 H1346 0.929 . S
C1372 C1371 1.406 . S
C1372 C1373 1.391 . S
C1373 H1345 0.931 . S
C1373 C1368 1.370 . S
C1373 C1372 1.391 . S
C1374 N1343 1.435 . S
C1374 C1375 1.358 . S
C1374 C1379 1.371 . S
C1375 H1347 0.930 . S
C1375 C1374 1.358 . S
C1375 C1376 1.405 . S
C1376 H1348 0.932 . S
C1376 C1375 1.405 . S
C1376 C1377 1.383 . S
C1377 C1376 1.383 . S
C1377 C1378 1.393 . S
C1378 H1350 0.931 . S
C1378 C1377 1.393 . S
C1378 C1379 1.382 . S
C1379 H1349 0.929 . S
C1379 C1374 1.371 . S
C1379 C1378 1.382 . S
C1380 N1343 1.423 . S
C1380 C1381 1.362 . S
C1380 C1385 1.388 . S
C1381 H1351 0.929 . S
C1381 C1380 1.362 . S
C1381 C1382 1.376 . S
C1382 H1353 0.881 1_556 S
C1382 C1381 1.376 . S
C1382 C1383 1.396 1_556 S
C1383 C1382 1.396 1_554 S
C1383 C1384 1.348 1_554 S
C1383 C1401 1.472 . S
C1384 H1354 0.929 1_556 S
C1384 C1383 1.348 1_556 S
C1384 C1385 1.443 . S
C1385 H1352 0.932 . S
C1385 C1380 1.388 . S
C1385 C1384 1.443 . S
C1386 N1366 1.433 . S
C1386 C1387 1.363 . S
C1386 C1391 1.370 . S
C1387 H1355 0.929 . S
C1387 C1386 1.363 . S
C1387 C1388 1.385 . S
C1388 H1356 0.930 . S
C1388 C1387 1.385 . S
C1388 C1389 1.357 . S
C1389 C1388 1.357 . S
C1389 C1390 1.406 . S
C1390 H1357 0.929 . S
C1390 C1389 1.406 . S
C1390 C1391 1.391 . S
C1391 H1358 0.931 . S
C1391 C1386 1.370 . S
C1391 C1390 1.391 . S
C1392 N1366 1.435 . S
C1392 C1393 1.358 . S
C1392 C1397 1.371 . S
C1393 H1359 0.930 . S
C1393 C1392 1.358 . S
C1393 C1394 1.405 . S
C1394 H1360 0.932 . S
C1394 C1393 1.405 . S
C1394 C1395 1.383 . S
C1395 C1394 1.383 . S
C1395 C1396 1.393 . S
C1396 H1361 0.931 . S
C1396 C1395 1.393 . S
C1396 C1397 1.382 . S
C1397 H1362 0.929 . S
C1397 C1392 1.371 . S
C1397 C1396 1.382 . S
C1398 N1366 1.423 . S
C1398 C1399 1.362 . S
C1398 C1403 1.388 . S
C1399 H1363 0.929 . S
C1399 C1398 1.362 . S
C1399 C1400 1.376 . S
C1400 H1364 0.931 . S
C1400 C1399 1.376 . S
C1400 C1401 1.396 . S
C1401 C1383 1.472 . S
C1401 C1400 1.396 . S
C1401 C1402 1.348 . S
C1402 H1365 0.929 . S
C1402 C1401 1.348 . S
C1402 C1403 1.443 . S
C1403 H1367 0.932 . S
C1403 C1398 1.388 . S
C1403 C1402 1.443 . S
H1404 C1431 0.929 . S
N1405 C1430 1.433 . S
N1405 C1436 1.435 . S
N1405 C1442 1.423 . S
H1406 C1432 0.930 . S
H1407 C1435 0.931 . S
H1408 C1434 0.929 . S
H1409 C1437 0.930 . S
H1410 C1438 0.932 . S
H1411 C1441 0.929 . S
H1412 C1440 0.931 . S
H1413 C1443 0.929 . S
H1414 C1447 0.932 . S
H1415 C1444 0.931 . S
H1416 C1446 0.980 . S
H1417 C1449 0.929 . S
H1418 C1450 0.930 . S
H1419 C1452 0.929 . S
H1420 C1453 0.931 . S
H1421 C1455 0.930 . S
H1422 C1456 0.932 . S
H1423 C1458 0.931 . S
H1424 C1459 0.929 . S
H1425 C1461 0.929 . S
H1426 C1462 0.931 . S
H1427 C1464 0.929 . S
N1428 C1448 1.433 . S
N1428 C1454 1.435 . S
N1428 C1460 1.423 . S
H1429 C1465 0.932 . S
C1430 N1405 1.433 . S
C1430 C1431 1.363 . S
C1430 C1435 1.370 . S
C1431 H1404 0.929 . S
C1431 C1430 1.363 . S
C1431 C1432 1.385 . S
C1432 H1406 0.930 . S
C1432 C1431 1.385 . S
C1432 C1433 1.357 . S
C1433 C1432 1.357 . S
C1433 C1434 1.406 . S
C1434 H1408 0.929 . S
C1434 C1433 1.406 . S
C1434 C1435 1.391 . S
C1435 H1407 0.931 . S
C1435 C1430 1.370 . S
C1435 C1434 1.391 . S
C1436 N1405 1.435 . S
C1436 C1437 1.358 . S
C1436 C1441 1.371 . S
C1437 H1409 0.930 . S
C1437 C1436 1.358 . S
C1437 C1438 1.405 . S
C1438 H1410 0.932 . S
C1438 C1437 1.405 . S
C1438 C1439 1.383 . S
C1439 C1438 1.383 . S
C1439 C1440 1.393 . S
C1440 H1412 0.931 . S
C1440 C1439 1.393 . S
C1440 C1441 1.382 . S
C1441 H1411 0.929 . S
C1441 C1436 1.371 . S
C1441 C1440 1.382 . S
C1442 N1405 1.423 . S
C1442 C1443 1.362 . S
C1442 C1447 1.388 . S
C1443 H1413 0.929 . S
C1443 C1442 1.362 . S
C1443 C1444 1.376 . S
C1444 H1415 0.931 . S
C1444 C1443 1.376 . S
C1444 C1445 1.349 1_556 S
C1445 C1444 1.349 1_554 S
C1445 C1446 1.304 1_554 S
C1445 C1463 1.562 . S
C1446 H1416 0.980 . S
C1446 C1445 1.304 1_556 S
C1446 C1447 1.443 . S
C1447 H1414 0.932 . S
C1447 C1442 1.388 . S
C1447 C1446 1.443 . S
C1448 N1428 1.433 . S
C1448 C1449 1.363 . S
C1448 C1453 1.370 . S
C1449 H1417 0.929 . S
C1449 C1448 1.363 . S
C1449 C1450 1.385 . S
C1450 H1418 0.930 . S
C1450 C1449 1.385 . S
C1450 C1451 1.357 . S
C1451 C1450 1.357 . S
C1451 C1452 1.406 . S
C1452 H1419 0.929 . S
C1452 C1451 1.406 . S
C1452 C1453 1.391 . S
C1453 H1420 0.931 . S
C1453 C1448 1.370 . S
C1453 C1452 1.391 . S
C1454 N1428 1.435 . S
C1454 C1455 1.358 . S
C1454 C1459 1.371 . S
C1455 H1421 0.930 . S
C1455 C1454 1.358 . S
C1455 C1456 1.405 . S
C1456 H1422 0.932 . S
C1456 C1455 1.405 . S
C1456 C1457 1.383 . S
C1457 C1456 1.383 . S
C1457 C1458 1.393 . S
C1458 H1423 0.931 . S
C1458 C1457 1.393 . S
C1458 C1459 1.382 . S
C1459 H1424 0.929 . S
C1459 C1454 1.371 . S
C1459 C1458 1.382 . S
C1460 N1428 1.423 . S
C1460 C1461 1.362 . S
C1460 C1465 1.388 . S
C1461 H1425 0.929 . S
C1461 C1460 1.362 . S
C1461 C1462 1.376 . S
C1462 H1426 0.931 . S
C1462 C1461 1.376 . S
C1462 C1463 1.396 . S
C1463 C1445 1.562 . S
C1463 C1462 1.396 . S
C1463 C1464 1.348 . S
C1464 H1427 0.929 . S
C1464 C1463 1.348 . S
C1464 C1465 1.443 . S
C1465 H1429 0.932 . S
C1465 C1460 1.388 . S
C1465 C1464 1.443 . S
H1466 C1493 0.929 . S
N1467 C1492 1.433 . S
N1467 C1498 1.435 . S
N1467 C1504 1.423 . S
H1468 C1494 0.930 . S
H1469 C1497 0.931 . S
H1470 C1496 0.929 . S
H1471 C1499 0.930 . S
H1472 C1500 0.932 . S
H1473 C1503 0.929 . S
H1474 C1502 0.931 . S
H1475 C1505 0.929 . S
H1476 C1509 0.932 . S
H1477 C1506 0.909 1_554 S
H1478 C1508 0.928 1_554 S
H1479 C1511 0.929 . S
H1480 C1512 0.930 . S
H1481 C1514 0.929 . S
H1482 C1515 0.931 . S
H1483 C1517 0.930 . S
H1484 C1518 0.932 . S
H1485 C1520 0.931 . S
H1486 C1521 0.929 . S
H1487 C1523 0.929 . S
H1488 C1524 0.931 . S
H1489 C1526 0.929 . S
N1490 C1510 1.433 . S
N1490 C1516 1.435 . S
N1490 C1522 1.423 . S
H1491 C1527 0.932 . S
C1492 N1467 1.433 . S
C1492 C1493 1.363 . S
C1492 C1497 1.370 . S
C1493 H1466 0.929 . S
C1493 C1492 1.363 . S
C1493 C1494 1.385 . S
C1494 H1468 0.930 . S
C1494 C1493 1.385 . S
C1494 C1495 1.357 . S
C1495 C1494 1.357 . S
C1495 C1496 1.406 . S
C1496 H1470 0.929 . S
C1496 C1495 1.406 . S
C1496 C1497 1.391 . S
C1497 H1469 0.931 . S
C1497 C1492 1.370 . S
C1497 C1496 1.391 . S
C1498 N1467 1.435 . S
C1498 C1499 1.358 . S
C1498 C1503 1.371 . S
C1499 H1471 0.930 . S
C1499 C1498 1.358 . S
C1499 C1500 1.405 . S
C1500 H1472 0.932 . S
C1500 C1499 1.405 . S
C1500 C1501 1.383 . S
C1501 C1500 1.383 . S
C1501 C1502 1.393 . S
C1502 H1474 0.931 . S
C1502 C1501 1.393 . S
C1502 C1503 1.382 . S
C1503 H1473 0.929 . S
C1503 C1498 1.371 . S
C1503 C1502 1.382 . S
C1504 N1467 1.423 . S
C1504 C1505 1.362 . S
C1504 C1509 1.388 . S
C1505 H1475 0.929 . S
C1505 C1504 1.362 . S
C1505 C1506 1.376 . S
C1506 H1477 0.909 1_556 S
C1506 C1505 1.376 . S
C1506 C1507 1.396 1_556 S
C1507 C1506 1.396 1_554 S
C1507 C1508 1.348 1_554 S
C1507 C1525 1.472 . S
C1508 H1478 0.928 1_556 S
C1508 C1507 1.348 1_556 S
C1508 C1509 1.443 . S
C1509 H1476 0.932 . S
C1509 C1504 1.388 . S
C1509 C1508 1.443 . S
C1510 N1490 1.433 . S
C1510 C1511 1.363 . S
C1510 C1515 1.370 . S
C1511 H1479 0.929 . S
C1511 C1510 1.363 . S
C1511 C1512 1.385 . S
C1512 H1480 0.930 . S
C1512 C1511 1.385 . S
C1512 C1513 1.357 . S
C1513 C1512 1.357 . S
C1513 C1514 1.406 . S
C1514 H1481 0.929 . S
C1514 C1513 1.406 . S
C1514 C1515 1.391 . S
C1515 H1482 0.931 . S
C1515 C1510 1.370 . S
C1515 C1514 1.391 . S
C1516 N1490 1.435 . S
C1516 C1517 1.358 . S
C1516 C1521 1.371 . S
C1517 H1483 0.930 . S
C1517 C1516 1.358 . S
C1517 C1518 1.405 . S
C1518 H1484 0.932 . S
C1518 C1517 1.405 . S
C1518 C1519 1.383 . S
C1519 C1518 1.383 . S
C1519 C1520 1.393 . S
C1520 H1485 0.931 . S
C1520 C1519 1.393 . S
C1520 C1521 1.382 . S
C1521 H1486 0.929 . S
C1521 C1516 1.371 . S
C1521 C1520 1.382 . S
C1522 N1490 1.423 . S
C1522 C1523 1.362 . S
C1522 C1527 1.388 . S
C1523 H1487 0.929 . S
C1523 C1522 1.362 . S
C1523 C1524 1.376 . S
C1524 H1488 0.931 . S
C1524 C1523 1.376 . S
C1524 C1525 1.396 . S
C1525 C1507 1.472 . S
C1525 C1524 1.396 . S
C1525 C1526 1.348 . S
C1526 H1489 0.929 . S
C1526 C1525 1.348 . S
C1526 C1527 1.443 . S
C1527 H1491 0.932 . S
C1527 C1522 1.388 . S
C1527 C1526 1.443 . S
H1528 C1555 0.929 . S
N1529 C1554 1.433 . S
N1529 C1560 1.435 . S
N1529 C1566 1.423 . S
H1530 C1556 0.930 . S
H1531 C1559 0.931 . S
H1532 C1558 0.929 . S
H1533 C1561 0.930 . S
H1534 C1562 0.932 . S
H1535 C1565 0.929 . S
H1536 C1564 0.931 . S
H1537 C1567 0.929 . S
H1538 C1571 0.932 . S
H1539 C1568 0.886 1_455 S
H1540 C1570 0.917 1_455 S
H1541 C1573 0.929 . S
H1542 C1574 0.930 . S
H1543 C1576 0.929 . S
H1544 C1577 0.931 . S
H1545 C1579 0.930 . S
H1546 C1580 0.932 . S
H1547 C1582 0.931 . S
H1548 C1583 0.929 . S
H1549 C1585 0.929 . S
H1550 C1586 0.931 . S
H1551 C1588 0.929 . S
N1552 C1572 1.433 . S
N1552 C1578 1.435 . S
N1552 C1584 1.423 . S
H1553 C1589 0.932 . S
C1554 N1529 1.433 . S
C1554 C1555 1.363 . S
C1554 C1559 1.370 . S
C1555 H1528 0.929 . S
C1555 C1554 1.363 . S
C1555 C1556 1.385 . S
C1556 H1530 0.930 . S
C1556 C1555 1.385 . S
C1556 C1557 1.357 . S
C1557 C1556 1.357 . S
C1557 C1558 1.406 . S
C1558 H1532 0.929 . S
C1558 C1557 1.406 . S
C1558 C1559 1.391 . S
C1559 H1531 0.931 . S
C1559 C1554 1.370 . S
C1559 C1558 1.391 . S
C1560 N1529 1.435 . S
C1560 C1561 1.358 . S
C1560 C1565 1.371 . S
C1561 H1533 0.930 . S
C1561 C1560 1.358 . S
C1561 C1562 1.405 . S
C1562 H1534 0.932 . S
C1562 C1561 1.405 . S
C1562 C1563 1.383 . S
C1563 C1562 1.383 . S
C1563 C1564 1.393 . S
C1564 H1536 0.931 . S
C1564 C1563 1.393 . S
C1564 C1565 1.382 . S
C1565 H1535 0.929 . S
C1565 C1560 1.371 . S
C1565 C1564 1.382 . S
C1566 N1529 1.423 . S
C1566 C1567 1.362 . S
C1566 C1571 1.388 . S
C1567 H1537 0.929 . S
C1567 C1566 1.362 . S
C1567 C1568 1.376 . S
C1568 H1539 0.886 1_655 S
C1568 C1567 1.376 . S
C1568 C1569 1.396 1_655 S
C1569 C1568 1.396 1_455 S
C1569 C1570 1.348 1_455 S
C1569 C1587 1.472 . S
C1570 H1540 0.917 1_655 S
C1570 C1569 1.348 1_655 S
C1570 C1571 1.443 . S
C1571 H1538 0.932 . S
C1571 C1566 1.388 . S
C1571 C1570 1.443 . S
C1572 N1552 1.433 . S
C1572 C1573 1.363 . S
C1572 C1577 1.370 . S
C1573 H1541 0.929 . S
C1573 C1572 1.363 . S
C1573 C1574 1.385 . S
C1574 H1542 0.930 . S
C1574 C1573 1.385 . S
C1574 C1575 1.357 . S
C1575 C1574 1.357 . S
C1575 C1576 1.406 . S
C1576 H1543 0.929 . S
C1576 C1575 1.406 . S
C1576 C1577 1.391 . S
C1577 H1544 0.931 . S
C1577 C1572 1.370 . S
C1577 C1576 1.391 . S
C1578 N1552 1.435 . S
C1578 C1579 1.358 . S
C1578 C1583 1.371 . S
C1579 H1545 0.930 . S
C1579 C1578 1.358 . S
C1579 C1580 1.405 . S
C1580 H1546 0.932 . S
C1580 C1579 1.405 . S
C1580 C1581 1.383 . S
C1581 C1580 1.383 . S
C1581 C1582 1.393 . S
C1582 H1547 0.931 . S
C1582 C1581 1.393 . S
C1582 C1583 1.382 . S
C1583 H1548 0.929 . S
C1583 C1578 1.371 . S
C1583 C1582 1.382 . S
C1584 N1552 1.423 . S
C1584 C1585 1.362 . S
C1584 C1589 1.388 . S
C1585 H1549 0.929 . S
C1585 C1584 1.362 . S
C1585 C1586 1.376 . S
C1586 H1550 0.931 . S
C1586 C1585 1.376 . S
C1586 C1587 1.396 . S
C1587 C1569 1.472 . S
C1587 C1586 1.396 . S
C1587 C1588 1.348 . S
C1588 H1551 0.929 . S
C1588 C1587 1.348 . S
C1588 C1589 1.443 . S
C1589 H1553 0.932 . S
C1589 C1584 1.388 . S
C1589 C1588 1.443 . S
H1590 C1617 0.929 . S
N1591 C1616 1.433 . S
N1591 C1622 1.435 . S
N1591 C1628 1.423 . S
H1592 C1618 0.930 . S
H1593 C1621 0.931 . S
H1594 C1620 0.929 . S
H1595 C1623 0.930 . S
H1596 C1624 0.932 . S
H1597 C1627 0.929 . S
H1598 C1626 0.931 . S
H1599 C1629 0.929 . S
H1600 C1633 0.932 . S
H1601 C1630 0.931 . S
H1602 C1632 0.929 . S
H1603 C1635 0.929 . S
H1604 C1636 0.930 . S
H1605 C1638 0.929 . S
H1606 C1639 0.931 . S
H1607 C1641 0.930 . S
H1608 C1642 0.932 . S
H1609 C1644 0.931 . S
H1610 C1645 0.929 . S
H1611 C1647 0.929 . S
H1612 C1648 0.931 . S
H1613 C1650 0.929 . S
N1614 C1634 1.433 . S
N1614 C1640 1.435 . S
N1614 C1646 1.423 . S
H1615 C1651 0.932 . S
C1616 N1591 1.433 . S
C1616 C1617 1.363 . S
C1616 C1621 1.370 . S
C1617 H1590 0.929 . S
C1617 C1616 1.363 . S
C1617 C1618 1.385 . S
C1618 H1592 0.930 . S
C1618 C1617 1.385 . S
C1618 C1619 1.357 . S
C1619 C1618 1.357 . S
C1619 C1620 1.406 . S
C1620 H1594 0.929 . S
C1620 C1619 1.406 . S
C1620 C1621 1.391 . S
C1621 H1593 0.931 . S
C1621 C1616 1.370 . S
C1621 C1620 1.391 . S
C1622 N1591 1.435 . S
C1622 C1623 1.358 . S
C1622 C1627 1.371 . S
C1623 H1595 0.930 . S
C1623 C1622 1.358 . S
C1623 C1624 1.405 . S
C1624 H1596 0.932 . S
C1624 C1623 1.405 . S
C1624 C1625 1.383 . S
C1625 C1624 1.383 . S
C1625 C1626 1.393 . S
C1626 H1598 0.931 . S
C1626 C1625 1.393 . S
C1626 C1627 1.382 . S
C1627 H1597 0.929 . S
C1627 C1622 1.371 . S
C1627 C1626 1.382 . S
C1628 N1591 1.423 . S
C1628 C1629 1.362 . S
C1628 C1633 1.388 . S
C1629 H1599 0.929 . S
C1629 C1628 1.362 . S
C1629 C1630 1.376 . S
C1630 H1601 0.931 . S
C1630 C1629 1.376 . S
C1630 C1631 1.396 . S
C1631 C1630 1.396 . S
C1631 C1632 1.348 . S
C1631 C1649 1.472 1_545 S
C1632 H1602 0.929 . S
C1632 C1631 1.348 . S
C1632 C1633 1.443 . S
C1633 H1600 0.932 . S
C1633 C1628 1.388 . S
C1633 C1632 1.443 . S
C1634 N1614 1.433 . S
C1634 C1635 1.363 . S
C1634 C1639 1.370 . S
C1635 H1603 0.929 . S
C1635 C1634 1.363 . S
C1635 C1636 1.385 . S
C1636 H1604 0.930 . S
C1636 C1635 1.385 . S
C1636 C1637 1.357 . S
C1637 C1636 1.357 . S
C1637 C1638 1.406 . S
C1638 H1605 0.929 . S
C1638 C1637 1.406 . S
C1638 C1639 1.391 . S
C1639 H1606 0.931 . S
C1639 C1634 1.370 . S
C1639 C1638 1.391 . S
C1640 N1614 1.435 . S
C1640 C1641 1.358 . S
C1640 C1645 1.371 . S
C1641 H1607 0.930 . S
C1641 C1640 1.358 . S
C1641 C1642 1.405 . S
C1642 H1608 0.932 . S
C1642 C1641 1.405 . S
C1642 C1643 1.383 . S
C1643 C1642 1.383 . S
C1643 C1644 1.393 . S
C1644 H1609 0.931 . S
C1644 C1643 1.393 . S
C1644 C1645 1.382 . S
C1645 H1610 0.929 . S
C1645 C1640 1.371 . S
C1645 C1644 1.382 . S
C1646 N1614 1.423 . S
C1646 C1647 1.362 . S
C1646 C1651 1.388 . S
C1647 H1611 0.929 . S
C1647 C1646 1.362 . S
C1647 C1648 1.376 . S
C1648 H1612 0.931 . S
C1648 C1647 1.376 . S
C1648 C1649 1.396 . S
C1649 C1631 1.472 1_565 S
C1649 C1648 1.396 . S
C1649 C1650 1.348 . S
C1650 H1613 0.929 . S
C1650 C1649 1.348 . S
C1650 C1651 1.443 . S
C1651 H1615 0.932 . S
C1651 C1646 1.388 . S
C1651 C1650 1.443 . S
H1652 C1679 0.929 . S
N1653 C1678 1.433 . S
N1653 C1684 1.435 . S
N1653 C1690 1.423 . S
H1654 C1680 0.930 . S
H1655 C1683 0.931 . S
H1656 C1682 0.929 . S
H1657 C1685 0.930 . S
H1658 C1686 0.932 . S
H1659 C1689 0.929 . S
H1660 C1688 0.931 . S
H1661 C1691 0.929 . S
H1662 C1695 0.932 . S
H1663 C1692 0.931 . S
H1664 C1694 0.929 . S
H1665 C1697 0.929 . S
H1666 C1698 0.930 . S
H1667 C1700 0.929 . S
H1668 C1701 0.931 . S
H1669 C1703 0.930 . S
H1670 C1704 0.932 . S
H1671 C1706 0.931 . S
H1672 C1707 0.929 . S
H1673 C1709 0.929 . S
H1674 C1710 0.929 . S
H1675 C1712 0.895 1_455 S
N1676 C1696 1.433 . S
N1676 C1702 1.435 . S
N1676 C1708 1.423 . S
H1677 C1713 0.932 . S
C1678 N1653 1.433 . S
C1678 C1679 1.363 . S
C1678 C1683 1.370 . S
C1679 H1652 0.929 . S
C1679 C1678 1.363 . S
C1679 C1680 1.385 . S
C1680 H1654 0.930 . S
C1680 C1679 1.385 . S
C1680 C1681 1.357 . S
C1681 C1680 1.357 . S
C1681 C1682 1.406 . S
C1682 H1656 0.929 . S
C1682 C1681 1.406 . S
C1682 C1683 1.391 . S
C1683 H1655 0.931 . S
C1683 C1678 1.370 . S
C1683 C1682 1.391 . S
C1684 N1653 1.435 . S
C1684 C1685 1.358 . S
C1684 C1689 1.371 . S
C1685 H1657 0.930 . S
C1685 C1684 1.358 . S
C1685 C1686 1.405 . S
C1686 H1658 0.932 . S
C1686 C1685 1.405 . S
C1686 C1687 1.383 . S
C1687 C1686 1.383 . S
C1687 C1688 1.393 . S
C1688 H1660 0.931 . S
C1688 C1687 1.393 . S
C1688 C1689 1.382 . S
C1689 H1659 0.929 . S
C1689 C1684 1.371 . S
C1689 C1688 1.382 . S
C1690 N1653 1.423 . S
C1690 C1691 1.362 . S
C1690 C1695 1.388 . S
C1691 H1661 0.929 . S
C1691 C1690 1.362 . S
C1691 C1692 1.376 . S
C1692 H1663 0.931 . S
C1692 C1691 1.376 . S
C1692 C1693 1.396 . S
C1693 C1692 1.396 . S
C1693 C1694 1.348 . S
C1693 C1711 1.472 . S
C1694 H1664 0.929 . S
C1694 C1693 1.348 . S
C1694 C1695 1.443 . S
C1695 H1662 0.932 . S
C1695 C1690 1.388 . S
C1695 C1694 1.443 . S
C1696 N1676 1.433 . S
C1696 C1697 1.363 . S
C1696 C1701 1.370 . S
C1697 H1665 0.929 . S
C1697 C1696 1.363 . S
C1697 C1698 1.385 . S
C1698 H1666 0.930 . S
C1698 C1697 1.385 . S
C1698 C1699 1.357 . S
C1699 C1698 1.357 . S
C1699 C1700 1.406 . S
C1700 H1667 0.929 . S
C1700 C1699 1.406 . S
C1700 C1701 1.391 . S
C1701 H1668 0.931 . S
C1701 C1696 1.370 . S
C1701 C1700 1.391 . S
C1702 N1676 1.435 . S
C1702 C1703 1.358 . S
C1702 C1707 1.371 . S
C1703 H1669 0.930 . S
C1703 C1702 1.358 . S
C1703 C1704 1.405 . S
C1704 H1670 0.932 . S
C1704 C1703 1.405 . S
C1704 C1705 1.383 . S
C1705 C1704 1.383 . S
C1705 C1706 1.393 . S
C1706 H1671 0.931 . S
C1706 C1705 1.393 . S
C1706 C1707 1.382 . S
C1707 H1672 0.929 . S
C1707 C1702 1.371 . S
C1707 C1706 1.382 . S
C1708 N1676 1.423 . S
C1708 C1709 1.362 . S
C1708 C1713 1.388 . S
C1709 H1673 0.929 . S
C1709 C1708 1.362 . S
C1709 C1710 1.376 . S
C1710 H1674 0.929 . S
C1710 C1709 1.376 . S
C1710 C1711 1.396 1_655 S
C1711 C1693 1.472 . S
C1711 C1710 1.396 1_455 S
C1711 C1712 1.348 1_455 S
C1712 H1675 0.895 1_655 S
C1712 C1711 1.348 1_655 S
C1712 C1713 1.443 . S
C1713 H1677 0.932 . S
C1713 C1708 1.388 . S
C1713 C1712 1.443 . S
H1714 C1741 0.929 . S
N1715 C1740 1.433 . S
N1715 C1746 1.435 . S
N1715 C1752 1.423 . S
H1716 C1742 0.930 . S
H1717 C1745 0.931 . S
H1718 C1744 0.929 . S
H1719 C1747 0.930 . S
H1720 C1748 0.932 . S
H1721 C1751 0.929 . S
H1722 C1750 0.931 . S
H1723 C1753 0.929 . S
H1724 C1757 0.932 . S
H1725 C1754 0.931 . S
H1726 C1756 0.929 . S
H1727 C1759 0.929 . S
H1728 C1760 0.930 . S
H1729 C1762 0.929 . S
H1730 C1763 0.931 . S
H1731 C1765 0.930 . S
H1732 C1766 0.932 . S
H1733 C1768 0.931 . S
H1734 C1769 0.929 . S
H1735 C1771 0.929 . S
H1736 C1772 0.931 . S
H1737 C1774 0.929 . S
N1738 C1758 1.433 . S
N1738 C1764 1.435 . S
N1738 C1770 1.423 . S
H1739 C1775 0.932 . S
C1740 N1715 1.433 . S
C1740 C1741 1.363 . S
C1740 C1745 1.370 . S
C1741 H1714 0.929 . S
C1741 C1740 1.363 . S
C1741 C1742 1.385 . S
C1742 H1716 0.930 . S
C1742 C1741 1.385 . S
C1742 C1743 1.357 . S
C1743 C1742 1.357 . S
C1743 C1744 1.406 . S
C1744 H1718 0.929 . S
C1744 C1743 1.406 . S
C1744 C1745 1.391 . S
C1745 H1717 0.931 . S
C1745 C1740 1.370 . S
C1745 C1744 1.391 . S
C1746 N1715 1.435 . S
C1746 C1747 1.358 . S
C1746 C1751 1.371 . S
C1747 H1719 0.930 . S
C1747 C1746 1.358 . S
C1747 C1748 1.405 . S
C1748 H1720 0.932 . S
C1748 C1747 1.405 . S
C1748 C1749 1.383 . S
C1749 C1748 1.383 . S
C1749 C1750 1.393 . S
C1750 H1722 0.931 . S
C1750 C1749 1.393 . S
C1750 C1751 1.382 . S
C1751 H1721 0.929 . S
C1751 C1746 1.371 . S
C1751 C1750 1.382 . S
C1752 N1715 1.423 . S
C1752 C1753 1.362 . S
C1752 C1757 1.388 . S
C1753 H1723 0.929 . S
C1753 C1752 1.362 . S
C1753 C1754 1.376 . S
C1754 H1725 0.931 . S
C1754 C1753 1.376 . S
C1754 C1755 1.396 . S
C1755 C1754 1.396 . S
C1755 C1756 1.348 . S
C1755 C1773 1.472 1_565 S
C1756 H1726 0.929 . S
C1756 C1755 1.348 . S
C1756 C1757 1.443 . S
C1757 H1724 0.932 . S
C1757 C1752 1.388 . S
C1757 C1756 1.443 . S
C1758 N1738 1.433 . S
C1758 C1759 1.363 . S
C1758 C1763 1.370 . S
C1759 H1727 0.929 . S
C1759 C1758 1.363 . S
C1759 C1760 1.385 . S
C1760 H1728 0.930 . S
C1760 C1759 1.385 . S
C1760 C1761 1.357 . S
C1761 C1760 1.357 . S
C1761 C1762 1.406 . S
C1762 H1729 0.929 . S
C1762 C1761 1.406 . S
C1762 C1763 1.391 . S
C1763 H1730 0.931 . S
C1763 C1758 1.370 . S
C1763 C1762 1.391 . S
C1764 N1738 1.435 . S
C1764 C1765 1.358 . S
C1764 C1769 1.371 . S
C1765 H1731 0.930 . S
C1765 C1764 1.358 . S
C1765 C1766 1.405 . S
C1766 H1732 0.932 . S
C1766 C1765 1.405 . S
C1766 C1767 1.383 . S
C1767 C1766 1.383 . S
C1767 C1768 1.393 . S
C1768 H1733 0.931 . S
C1768 C1767 1.393 . S
C1768 C1769 1.382 . S
C1769 H1734 0.929 . S
C1769 C1764 1.371 . S
C1769 C1768 1.382 . S
C1770 N1738 1.423 . S
C1770 C1771 1.362 . S
C1770 C1775 1.388 . S
C1771 H1735 0.929 . S
C1771 C1770 1.362 . S
C1771 C1772 1.376 . S
C1772 H1736 0.931 . S
C1772 C1771 1.376 . S
C1772 C1773 1.396 . S
C1773 C1755 1.472 1_545 S
C1773 C1772 1.396 . S
C1773 C1774 1.348 . S
C1774 H1737 0.929 . S
C1774 C1773 1.348 . S
C1774 C1775 1.443 . S
C1775 H1739 0.932 . S
C1775 C1770 1.388 . S
C1775 C1774 1.443 . S
H1776 C1803 0.929 . S
N1777 C1802 1.433 . S
N1777 C1808 1.435 . S
N1777 C1814 1.423 . S
H1778 C1804 0.930 . S
H1779 C1807 0.931 . S
H1780 C1806 0.929 . S
H1781 C1809 0.930 . S
H1782 C1810 0.932 . S
H1783 C1813 0.929 . S
H1784 C1812 0.931 . S
H1785 C1815 0.929 . S
H1786 C1819 0.932 . S
H1787 C1816 0.931 . S
H1788 C1818 0.929 . S
H1789 C1821 0.929 . S
H1790 C1822 0.930 . S
H1791 C1824 0.929 . S
H1792 C1825 0.931 . S
H1793 C1827 0.930 . S
H1794 C1828 0.932 . S
H1795 C1830 0.931 . S
H1796 C1831 0.929 . S
H1797 C1833 0.929 . S
H1798 C1834 0.919 1_455 S
H1799 C1836 0.929 1_455 S
N1800 C1820 1.433 . S
N1800 C1826 1.435 . S
N1800 C1832 1.423 . S
H1801 C1837 0.932 . S
C1802 N1777 1.433 . S
C1802 C1803 1.363 . S
C1802 C1807 1.370 . S
C1803 H1776 0.929 . S
C1803 C1802 1.363 . S
C1803 C1804 1.385 . S
C1804 H1778 0.930 . S
C1804 C1803 1.385 . S
C1804 C1805 1.357 . S
C1805 C1804 1.357 . S
C1805 C1806 1.406 . S
C1806 H1780 0.929 . S
C1806 C1805 1.406 . S
C1806 C1807 1.391 . S
C1807 H1779 0.931 . S
C1807 C1802 1.370 . S
C1807 C1806 1.391 . S
C1808 N1777 1.435 . S
C1808 C1809 1.358 . S
C1808 C1813 1.371 . S
C1809 H1781 0.930 . S
C1809 C1808 1.358 . S
C1809 C1810 1.405 . S
C1810 H1782 0.932 . S
C1810 C1809 1.405 . S
C1810 C1811 1.383 . S
C1811 C1810 1.383 . S
C1811 C1812 1.393 . S
C1812 H1784 0.931 . S
C1812 C1811 1.393 . S
C1812 C1813 1.382 . S
C1813 H1783 0.929 . S
C1813 C1808 1.371 . S
C1813 C1812 1.382 . S
C1814 N1777 1.423 . S
C1814 C1815 1.362 . S
C1814 C1819 1.388 . S
C1815 H1785 0.929 . S
C1815 C1814 1.362 . S
C1815 C1816 1.376 . S
C1816 H1787 0.931 . S
C1816 C1815 1.376 . S
C1816 C1817 1.396 . S
C1817 C1816 1.396 . S
C1817 C1818 1.348 . S
C1817 C1835 1.472 . S
C1818 H1788 0.929 . S
C1818 C1817 1.348 . S
C1818 C1819 1.443 . S
C1819 H1786 0.932 . S
C1819 C1814 1.388 . S
C1819 C1818 1.443 . S
C1820 N1800 1.433 . S
C1820 C1821 1.363 . S
C1820 C1825 1.370 . S
C1821 H1789 0.929 . S
C1821 C1820 1.363 . S
C1821 C1822 1.385 . S
C1822 H1790 0.930 . S
C1822 C1821 1.385 . S
C1822 C1823 1.357 . S
C1823 C1822 1.357 . S
C1823 C1824 1.406 . S
C1824 H1791 0.929 . S
C1824 C1823 1.406 . S
C1824 C1825 1.391 . S
C1825 H1792 0.931 . S
C1825 C1820 1.370 . S
C1825 C1824 1.391 . S
C1826 N1800 1.435 . S
C1826 C1827 1.358 . S
C1826 C1831 1.371 . S
C1827 H1793 0.930 . S
C1827 C1826 1.358 . S
C1827 C1828 1.405 . S
C1828 H1794 0.932 . S
C1828 C1827 1.405 . S
C1828 C1829 1.383 . S
C1829 C1828 1.383 . S
C1829 C1830 1.393 . S
C1830 H1795 0.931 . S
C1830 C1829 1.393 . S
C1830 C1831 1.382 . S
C1831 H1796 0.929 . S
C1831 C1826 1.371 . S
C1831 C1830 1.382 . S
C1832 N1800 1.423 . S
C1832 C1833 1.362 . S
C1832 C1837 1.388 . S
C1833 H1797 0.929 . S
C1833 C1832 1.362 . S
C1833 C1834 1.376 . S
C1834 H1798 0.919 1_655 S
C1834 C1833 1.376 . S
C1834 C1835 1.396 1_655 S
C1835 C1817 1.472 . S
C1835 C1834 1.396 1_455 S
C1835 C1836 1.348 1_455 S
C1836 H1799 0.929 1_655 S
C1836 C1835 1.348 1_655 S
C1836 C1837 1.443 . S
C1837 H1801 0.932 . S
C1837 C1832 1.388 . S
C1837 C1836 1.443 . S
H1838 C1865 0.929 . S
N1839 C1864 1.433 . S
N1839 C1870 1.435 . S
N1839 C1876 1.423 . S
H1840 C1866 0.930 . S
H1841 C1869 0.931 . S
H1842 C1868 0.929 . S
H1843 C1871 0.930 . S
H1844 C1872 0.932 . S
H1845 C1875 0.929 . S
H1846 C1874 0.931 . S
H1847 C1877 0.929 . S
H1848 C1881 0.932 . S
H1849 C1878 0.931 . S
H1850 C1880 0.929 . S
H1851 C1883 0.929 . S
H1852 C1884 0.930 . S
H1853 C1886 0.929 . S
H1854 C1887 0.931 . S
H1855 C1889 0.930 . S
H1856 C1890 0.932 . S
H1857 C1892 0.931 . S
H1858 C1893 0.929 . S
H1859 C1895 0.929 . S
H1860 C1896 0.931 . S
H1861 C1898 0.929 . S
N1862 C1882 1.433 . S
N1862 C1888 1.435 . S
N1862 C1894 1.423 . S
H1863 C1899 0.932 . S
C1864 N1839 1.433 . S
C1864 C1865 1.363 . S
C1864 C1869 1.370 . S
C1865 H1838 0.929 . S
C1865 C1864 1.363 . S
C1865 C1866 1.385 . S
C1866 H1840 0.930 . S
C1866 C1865 1.385 . S
C1866 C1867 1.357 . S
C1867 C1866 1.357 . S
C1867 C1868 1.406 . S
C1868 H1842 0.929 . S
C1868 C1867 1.406 . S
C1868 C1869 1.391 . S
C1869 H1841 0.931 . S
C1869 C1864 1.370 . S
C1869 C1868 1.391 . S
C1870 N1839 1.435 . S
C1870 C1871 1.358 . S
C1870 C1875 1.371 . S
C1871 H1843 0.930 . S
C1871 C1870 1.358 . S
C1871 C1872 1.405 . S
C1872 H1844 0.932 . S
C1872 C1871 1.405 . S
C1872 C1873 1.383 . S
C1873 C1872 1.383 . S
C1873 C1874 1.393 . S
C1874 H1846 0.931 . S
C1874 C1873 1.393 . S
C1874 C1875 1.382 . S
C1875 H1845 0.929 . S
C1875 C1870 1.371 . S
C1875 C1874 1.382 . S
C1876 N1839 1.423 . S
C1876 C1877 1.362 . S
C1876 C1881 1.388 . S
C1877 H1847 0.929 . S
C1877 C1876 1.362 . S
C1877 C1878 1.376 . S
C1878 H1849 0.931 . S
C1878 C1877 1.376 . S
C1878 C1879 1.396 . S
C1879 C1878 1.396 . S
C1879 C1880 1.348 . S
C1879 C1897 1.472 1_545 S
C1880 H1850 0.929 . S
C1880 C1879 1.348 . S
C1880 C1881 1.443 . S
C1881 H1848 0.932 . S
C1881 C1876 1.388 . S
C1881 C1880 1.443 . S
C1882 N1862 1.433 . S
C1882 C1883 1.363 . S
C1882 C1887 1.370 . S
C1883 H1851 0.929 . S
C1883 C1882 1.363 . S
C1883 C1884 1.385 . S
C1884 H1852 0.930 . S
C1884 C1883 1.385 . S
C1884 C1885 1.357 . S
C1885 C1884 1.357 . S
C1885 C1886 1.406 . S
C1886 H1853 0.929 . S
C1886 C1885 1.406 . S
C1886 C1887 1.391 . S
C1887 H1854 0.931 . S
C1887 C1882 1.370 . S
C1887 C1886 1.391 . S
C1888 N1862 1.435 . S
C1888 C1889 1.358 . S
C1888 C1893 1.371 . S
C1889 H1855 0.930 . S
C1889 C1888 1.358 . S
C1889 C1890 1.405 . S
C1890 H1856 0.932 . S
C1890 C1889 1.405 . S
C1890 C1891 1.383 . S
C1891 C1890 1.383 . S
C1891 C1892 1.393 . S
C1892 H1857 0.931 . S
C1892 C1891 1.393 . S
C1892 C1893 1.382 . S
C1893 H1858 0.929 . S
C1893 C1888 1.371 . S
C1893 C1892 1.382 . S
C1894 N1862 1.423 . S
C1894 C1895 1.362 . S
C1894 C1899 1.388 . S
C1895 H1859 0.929 . S
C1895 C1894 1.362 . S
C1895 C1896 1.376 . S
C1896 H1860 0.931 . S
C1896 C1895 1.376 . S
C1896 C1897 1.396 . S
C1897 C1879 1.472 1_565 S
C1897 C1896 1.396 . S
C1897 C1898 1.348 . S
C1898 H1861 0.929 . S
C1898 C1897 1.348 . S
C1898 C1899 1.443 . S
C1899 H1863 0.932 . S
C1899 C1894 1.388 . S
C1899 C1898 1.443 . S
H1900 C1927 0.929 . S
N1901 C1926 1.433 . S
N1901 C1932 1.435 . S
N1901 C1938 1.423 . S
H1902 C1928 0.930 . S
H1903 C1931 0.931 . S
H1904 C1930 0.929 . S
H1905 C1933 0.930 . S
H1906 C1934 0.932 . S
H1907 C1937 0.929 . S
H1908 C1936 0.931 . S
H1909 C1939 0.929 . S
H1910 C1943 0.932 . S
H1911 C1940 0.978 . S
H1912 C1942 0.931 1_455 S
H1913 C1945 0.929 . S
H1914 C1946 0.930 . S
H1915 C1948 0.929 . S
H1916 C1949 0.931 . S
H1917 C1951 0.930 . S
H1918 C1952 0.932 . S
H1919 C1954 0.931 . S
H1920 C1955 0.929 . S
H1921 C1957 0.929 . S
H1922 C1958 0.931 . S
H1923 C1960 0.929 . S
N1924 C1944 1.433 . S
N1924 C1950 1.435 . S
N1924 C1956 1.423 . S
H1925 C1961 0.932 . S
C1926 N1901 1.433 . S
C1926 C1927 1.363 . S
C1926 C1931 1.370 . S
C1927 H1900 0.929 . S
C1927 C1926 1.363 . S
C1927 C1928 1.385 . S
C1928 H1902 0.930 . S
C1928 C1927 1.385 . S
C1928 C1929 1.357 . S
C1929 C1928 1.357 . S
C1929 C1930 1.406 . S
C1930 H1904 0.929 . S
C1930 C1929 1.406 . S
C1930 C1931 1.391 . S
C1931 H1903 0.931 . S
C1931 C1926 1.370 . S
C1931 C1930 1.391 . S
C1932 N1901 1.435 . S
C1932 C1933 1.358 . S
C1932 C1937 1.371 . S
C1933 H1905 0.930 . S
C1933 C1932 1.358 . S
C1933 C1934 1.405 . S
C1934 H1906 0.932 . S
C1934 C1933 1.405 . S
C1934 C1935 1.383 . S
C1935 C1934 1.383 . S
C1935 C1936 1.393 . S
C1936 H1908 0.931 . S
C1936 C1935 1.393 . S
C1936 C1937 1.382 . S
C1937 H1907 0.929 . S
C1937 C1932 1.371 . S
C1937 C1936 1.382 . S
C1938 N1901 1.423 . S
C1938 C1939 1.362 . S
C1938 C1943 1.388 . S
C1939 H1909 0.929 . S
C1939 C1938 1.362 . S
C1939 C1940 1.376 . S
C1940 H1911 0.978 . S
C1940 C1939 1.376 . S
C1940 C1941 1.396 1_655 S
C1941 C1940 1.396 1_455 S
C1941 C1942 1.348 1_455 S
C1941 C1959 1.472 . S
C1942 H1912 0.931 1_655 S
C1942 C1941 1.348 1_655 S
C1942 C1943 1.443 . S
C1943 H1910 0.932 . S
C1943 C1938 1.388 . S
C1943 C1942 1.443 . S
C1944 N1924 1.433 . S
C1944 C1945 1.363 . S
C1944 C1949 1.370 . S
C1945 H1913 0.929 . S
C1945 C1944 1.363 . S
C1945 C1946 1.385 . S
C1946 H1914 0.930 . S
C1946 C1945 1.385 . S
C1946 C1947 1.357 . S
C1947 C1946 1.357 . S
C1947 C1948 1.406 . S
C1948 H1915 0.929 . S
C1948 C1947 1.406 . S
C1948 C1949 1.391 . S
C1949 H1916 0.931 . S
C1949 C1944 1.370 . S
C1949 C1948 1.391 . S
C1950 N1924 1.435 . S
C1950 C1951 1.358 . S
C1950 C1955 1.371 . S
C1951 H1917 0.930 . S
C1951 C1950 1.358 . S
C1951 C1952 1.405 . S
C1952 H1918 0.932 . S
C1952 C1951 1.405 . S
C1952 C1953 1.383 . S
C1953 C1952 1.383 . S
C1953 C1954 1.393 . S
C1954 H1919 0.931 . S
C1954 C1953 1.393 . S
C1954 C1955 1.382 . S
C1955 H1920 0.929 . S
C1955 C1950 1.371 . S
C1955 C1954 1.382 . S
C1956 N1924 1.423 . S
C1956 C1957 1.362 . S
C1956 C1961 1.388 . S
C1957 H1921 0.929 . S
C1957 C1956 1.362 . S
C1957 C1958 1.376 . S
C1958 H1922 0.931 . S
C1958 C1957 1.376 . S
C1958 C1959 1.396 . S
C1959 C1941 1.472 . S
C1959 C1958 1.396 . S
C1959 C1960 1.348 . S
C1960 H1923 0.929 . S
C1960 C1959 1.348 . S
C1960 C1961 1.443 . S
C1961 H1925 0.932 . S
C1961 C1956 1.388 . S
C1961 C1960 1.443 . S
H1962 C1989 0.929 . S
N1963 C1988 1.433 . S
N1963 C1994 1.435 . S
N1963 C2000 1.423 . S
H1964 C1990 0.930 . S
H1965 C1993 0.931 . S
H1966 C1992 0.929 . S
H1967 C1995 0.930 . S
H1968 C1996 0.932 . S
H1969 C1999 0.929 . S
H1970 C1998 0.931 . S
H1971 C2001 0.929 . S
H1972 C2005 0.932 . S
H1973 C2002 0.931 . S
H1974 C2004 0.929 . S
H1975 C2007 0.929 . S
H1976 C2008 0.930 . S
H1977 C2010 0.929 . S
H1978 C2011 0.931 . S
H1979 C2013 0.930 . S
H1980 C2014 0.932 . S
H1981 C2016 0.931 . S
H1982 C2017 0.929 . S
H1983 C2019 0.929 . S
H1984 C2020 0.931 . S
H1985 C2022 0.929 . S
N1986 C2006 1.433 . S
N1986 C2012 1.435 . S
N1986 C2018 1.423 . S
H1987 C2023 0.932 . S
C1988 N1963 1.433 . S
C1988 C1989 1.363 . S
C1988 C1993 1.370 . S
C1989 H1962 0.929 . S
C1989 C1988 1.363 . S
C1989 C1990 1.385 . S
C1990 H1964 0.930 . S
C1990 C1989 1.385 . S
C1990 C1991 1.357 . S
C1991 C1990 1.357 . S
C1991 C1992 1.406 . S
C1992 H1966 0.929 . S
C1992 C1991 1.406 . S
C1992 C1993 1.391 . S
C1993 H1965 0.931 . S
C1993 C1988 1.370 . S
C1993 C1992 1.391 . S
C1994 N1963 1.435 . S
C1994 C1995 1.358 . S
C1994 C1999 1.371 . S
C1995 H1967 0.930 . S
C1995 C1994 1.358 . S
C1995 C1996 1.405 . S
C1996 H1968 0.932 . S
C1996 C1995 1.405 . S
C1996 C1997 1.383 . S
C1997 C1996 1.383 . S
C1997 C1998 1.393 . S
C1998 H1970 0.931 . S
C1998 C1997 1.393 . S
C1998 C1999 1.382 . S
C1999 H1969 0.929 . S
C1999 C1994 1.371 . S
C1999 C1998 1.382 . S
C2000 N1963 1.423 . S
C2000 C2001 1.362 . S
C2000 C2005 1.388 . S
C2001 H1971 0.929 . S
C2001 C2000 1.362 . S
C2001 C2002 1.376 . S
C2002 H1973 0.931 . S
C2002 C2001 1.376 . S
C2002 C2003 1.420 . S
C2003 C2002 1.420 . S
C2003 C2004 1.371 . S
C2003 C2021 1.429 1_565 S
C2004 H1974 0.929 . S
C2004 C2003 1.371 . S
C2004 C2005 1.443 . S
C2005 H1972 0.932 . S
C2005 C2000 1.388 . S
C2005 C2004 1.443 . S
C2006 N1986 1.433 . S
C2006 C2007 1.363 . S
C2006 C2011 1.370 . S
C2007 H1975 0.929 . S
C2007 C2006 1.363 . S
C2007 C2008 1.385 . S
C2008 H1976 0.930 . S
C2008 C2007 1.385 . S
C2008 C2009 1.357 . S
C2009 C2008 1.357 . S
C2009 C2010 1.406 . S
C2010 H1977 0.929 . S
C2010 C2009 1.406 . S
C2010 C2011 1.391 . S
C2011 H1978 0.931 . S
C2011 C2006 1.370 . S
C2011 C2010 1.391 . S
C2012 N1986 1.435 . S
C2012 C2013 1.358 . S
C2012 C2017 1.371 . S
C2013 H1979 0.930 . S
C2013 C2012 1.358 . S
C2013 C2014 1.405 . S
C2014 H1980 0.932 . S
C2014 C2013 1.405 . S
C2014 C2015 1.383 . S
C2015 C2014 1.383 . S
C2015 C2016 1.393 . S
C2016 H1981 0.931 . S
C2016 C2015 1.393 . S
C2016 C2017 1.382 . S
C2017 H1982 0.929 . S
C2017 C2012 1.371 . S
C2017 C2016 1.382 . S
C2018 N1986 1.423 . S
C2018 C2019 1.362 . S
C2018 C2023 1.388 . S
C2019 H1983 0.929 . S
C2019 C2018 1.362 . S
C2019 C2020 1.376 . S
C2020 H1984 0.931 . S
C2020 C2019 1.376 . S
C2020 C2021 1.396 . S
C2021 C2003 1.429 1_545 S
C2021 C2020 1.396 . S
C2021 C2022 1.348 . S
C2022 H1985 0.929 . S
C2022 C2021 1.348 . S
C2022 C2023 1.443 . S
C2023 H1987 0.932 . S
C2023 C2018 1.388 . S
C2023 C2022 1.443 . S
H2024 C2051 0.929 . S
N2025 C2050 1.433 . S
N2025 C2056 1.435 . S
N2025 C2062 1.423 . S
H2026 C2052 0.930 . S
H2027 C2055 0.931 . S
H2028 C2054 0.929 . S
H2029 C2057 0.930 . S
H2030 C2058 0.932 . S
H2031 C2061 0.929 . S
H2032 C2060 0.931 . S
H2033 C2063 0.929 . S
H2034 C2067 0.932 . S
H2035 C2064 0.931 . S
H2036 C2066 0.929 . S
H2037 C2069 0.929 . S
H2038 C2070 0.930 . S
H2039 C2072 0.929 . S
H2040 C2073 0.931 . S
H2041 C2075 0.930 . S
H2042 C2076 0.932 . S
H2043 C2078 0.931 . S
H2044 C2079 0.929 . S
H2045 C2081 0.929 . S
H2046 C2082 0.931 . S
H2047 C2084 0.929 . S
N2048 C2068 1.433 . S
N2048 C2074 1.435 . S
N2048 C2080 1.423 . S
H2049 C2085 0.932 . S
C2050 N2025 1.433 . S
C2050 C2051 1.363 . S
C2050 C2055 1.370 . S
C2051 H2024 0.929 . S
C2051 C2050 1.363 . S
C2051 C2052 1.385 . S
C2052 H2026 0.930 . S
C2052 C2051 1.385 . S
C2052 C2053 1.357 . S
C2053 C2052 1.357 . S
C2053 C2054 1.406 . S
C2054 H2028 0.929 . S
C2054 C2053 1.406 . S
C2054 C2055 1.391 . S
C2055 H2027 0.931 . S
C2055 C2050 1.370 . S
C2055 C2054 1.391 . S
C2056 N2025 1.435 . S
C2056 C2057 1.358 . S
C2056 C2061 1.371 . S
C2057 H2029 0.930 . S
C2057 C2056 1.358 . S
C2057 C2058 1.405 . S
C2058 H2030 0.932 . S
C2058 C2057 1.405 . S
C2058 C2059 1.383 . S
C2059 C2058 1.383 . S
C2059 C2060 1.393 . S
C2060 H2032 0.931 . S
C2060 C2059 1.393 . S
C2060 C2061 1.382 . S
C2061 H2031 0.929 . S
C2061 C2056 1.371 . S
C2061 C2060 1.382 . S
C2062 N2025 1.423 . S
C2062 C2063 1.362 . S
C2062 C2067 1.388 . S
C2063 H2033 0.929 . S
C2063 C2062 1.362 . S
C2063 C2064 1.376 . S
C2064 H2035 0.931 . S
C2064 C2063 1.376 . S
C2064 C2065 1.396 . S
C2065 C2064 1.396 . S
C2065 C2066 1.348 . S
C2065 C2083 1.472 . S
C2066 H2036 0.929 . S
C2066 C2065 1.348 . S
C2066 C2067 1.443 . S
C2067 H2034 0.932 . S
C2067 C2062 1.388 . S
C2067 C2066 1.443 . S
C2068 N2048 1.433 . S
C2068 C2069 1.363 . S
C2068 C2073 1.370 . S
C2069 H2037 0.929 . S
C2069 C2068 1.363 . S
C2069 C2070 1.385 . S
C2070 H2038 0.930 . S
C2070 C2069 1.385 . S
C2070 C2071 1.357 . S
C2071 C2070 1.357 . S
C2071 C2072 1.406 . S
C2072 H2039 0.929 . S
C2072 C2071 1.406 . S
C2072 C2073 1.391 . S
C2073 H2040 0.931 . S
C2073 C2068 1.370 . S
C2073 C2072 1.391 . S
C2074 N2048 1.435 . S
C2074 C2075 1.358 . S
C2074 C2079 1.371 . S
C2075 H2041 0.930 . S
C2075 C2074 1.358 . S
C2075 C2076 1.405 . S
C2076 H2042 0.932 . S
C2076 C2075 1.405 . S
C2076 C2077 1.383 . S
C2077 C2076 1.383 . S
C2077 C2078 1.393 . S
C2078 H2043 0.931 . S
C2078 C2077 1.393 . S
C2078 C2079 1.382 . S
C2079 H2044 0.929 . S
C2079 C2074 1.371 . S
C2079 C2078 1.382 . S
C2080 N2048 1.423 . S
C2080 C2081 1.362 . S
C2080 C2085 1.388 . S
C2081 H2045 0.929 . S
C2081 C2080 1.362 . S
C2081 C2082 1.376 . S
C2082 H2046 0.931 . S
C2082 C2081 1.376 . S
C2082 C2083 1.396 . S
C2083 C2065 1.472 . S
C2083 C2082 1.396 . S
C2083 C2084 1.348 . S
C2084 H2047 0.929 . S
C2084 C2083 1.348 . S
C2084 C2085 1.443 . S
C2085 H2049 0.932 . S
C2085 C2080 1.388 . S
C2085 C2084 1.443 . S
H2086 C2113 0.929 . S
N2087 C2112 1.433 . S
N2087 C2118 1.435 . S
N2087 C2124 1.423 . S
H2088 C2114 0.930 . S
H2089 C2117 0.931 . S
H2090 C2116 0.929 . S
H2091 C2119 0.930 . S
H2092 C2120 0.932 . S
H2093 C2123 0.929 . S
H2094 C2122 0.931 . S
H2095 C2125 0.929 . S
H2096 C2129 0.932 . S
H2097 C2126 0.931 . S
H2098 C2128 0.929 . S
H2099 C2131 0.929 . S
H2100 C2132 0.930 . S
H2101 C2134 0.929 . S
H2102 C2135 0.931 . S
H2103 C2137 0.930 . S
H2104 C2138 0.932 . S
H2105 C2140 0.931 . S
H2106 C2141 0.929 . S
H2107 C2143 0.929 . S
H2108 C2144 0.931 . S
H2109 C2146 0.929 . S
N2110 C2130 1.433 . S
N2110 C2136 1.435 . S
N2110 C2142 1.423 . S
H2111 C2147 0.932 . S
C2112 N2087 1.433 . S
C2112 C2113 1.363 . S
C2112 C2117 1.370 . S
C2113 H2086 0.929 . S
C2113 C2112 1.363 . S
C2113 C2114 1.385 . S
C2114 H2088 0.930 . S
C2114 C2113 1.385 . S
C2114 C2115 1.357 . S
C2115 C2114 1.357 . S
C2115 C2116 1.406 . S
C2116 H2090 0.929 . S
C2116 C2115 1.406 . S
C2116 C2117 1.391 . S
C2117 H2089 0.931 . S
C2117 C2112 1.370 . S
C2117 C2116 1.391 . S
C2118 N2087 1.435 . S
C2118 C2119 1.358 . S
C2118 C2123 1.371 . S
C2119 H2091 0.930 . S
C2119 C2118 1.358 . S
C2119 C2120 1.405 . S
C2120 H2092 0.932 . S
C2120 C2119 1.405 . S
C2120 C2121 1.383 . S
C2121 C2120 1.383 . S
C2121 C2122 1.393 . S
C2122 H2094 0.931 . S
C2122 C2121 1.393 . S
C2122 C2123 1.382 . S
C2123 H2093 0.929 . S
C2123 C2118 1.371 . S
C2123 C2122 1.382 . S
C2124 N2087 1.423 . S
C2124 C2125 1.362 . S
C2124 C2129 1.388 . S
C2125 H2095 0.929 . S
C2125 C2124 1.362 . S
C2125 C2126 1.376 . S
C2126 H2097 0.931 . S
C2126 C2125 1.376 . S
C2126 C2127 1.396 . S
C2127 C2126 1.396 . S
C2127 C2128 1.348 . S
C2127 C2145 1.472 . S
C2128 H2098 0.929 . S
C2128 C2127 1.348 . S
C2128 C2129 1.443 . S
C2129 H2096 0.932 . S
C2129 C2124 1.388 . S
C2129 C2128 1.443 . S
C2130 N2110 1.433 . S
C2130 C2131 1.363 . S
C2130 C2135 1.370 . S
C2131 H2099 0.929 . S
C2131 C2130 1.363 . S
C2131 C2132 1.385 . S
C2132 H2100 0.930 . S
C2132 C2131 1.385 . S
C2132 C2133 1.357 . S
C2133 C2132 1.357 . S
C2133 C2134 1.406 . S
C2134 H2101 0.929 . S
C2134 C2133 1.406 . S
C2134 C2135 1.391 . S
C2135 H2102 0.931 . S
C2135 C2130 1.370 . S
C2135 C2134 1.391 . S
C2136 N2110 1.435 . S
C2136 C2137 1.358 . S
C2136 C2141 1.371 . S
C2137 H2103 0.930 . S
C2137 C2136 1.358 . S
C2137 C2138 1.405 . S
C2138 H2104 0.932 . S
C2138 C2137 1.405 . S
C2138 C2139 1.383 . S
C2139 C2138 1.383 . S
C2139 C2140 1.393 . S
C2140 H2105 0.931 . S
C2140 C2139 1.393 . S
C2140 C2141 1.382 . S
C2141 H2106 0.929 . S
C2141 C2136 1.371 . S
C2141 C2140 1.382 . S
C2142 N2110 1.423 . S
C2142 C2143 1.362 . S
C2142 C2147 1.388 . S
C2143 H2107 0.929 . S
C2143 C2142 1.362 . S
C2143 C2144 1.376 . S
C2144 H2108 0.931 . S
C2144 C2143 1.376 . S
C2144 C2145 1.396 . S
C2145 C2127 1.472 . S
C2145 C2144 1.396 . S
C2145 C2146 1.348 . S
C2146 H2109 0.929 . S
C2146 C2145 1.348 . S
C2146 C2147 1.443 . S
C2147 H2111 0.932 . S
C2147 C2142 1.388 . S
C2147 C2146 1.443 . S
H2148 C2175 0.929 . S
N2149 C2174 1.433 . S
N2149 C2180 1.435 . S
N2149 C2186 1.423 . S
H2150 C2176 0.930 . S
H2151 C2179 0.931 . S
H2152 C2178 0.929 . S
H2153 C2181 0.930 . S
H2154 C2182 0.932 . S
H2155 C2185 0.929 . S
H2156 C2184 0.931 . S
H2157 C2187 0.929 . S
H2158 C2191 0.932 . S
H2159 C2188 0.931 . S
H2160 C2190 0.929 . S
H2161 C2193 0.929 . S
H2162 C2194 0.930 . S
H2163 C2196 0.929 . S
H2164 C2197 0.931 . S
H2165 C2199 0.930 . S
H2166 C2200 0.932 . S
H2167 C2202 0.931 . S
H2168 C2203 0.929 . S
H2169 C2205 0.929 . S
H2170 C2206 0.931 . S
H2171 C2208 0.929 . S
N2172 C2192 1.433 . S
N2172 C2198 1.435 . S
N2172 C2204 1.423 . S
H2173 C2209 0.932 . S
C2174 N2149 1.433 . S
C2174 C2175 1.363 . S
C2174 C2179 1.370 . S
C2175 H2148 0.929 . S
C2175 C2174 1.363 . S
C2175 C2176 1.385 . S
C2176 H2150 0.930 . S
C2176 C2175 1.385 . S
C2176 C2177 1.357 . S
C2177 C2176 1.357 . S
C2177 C2178 1.406 . S
C2178 H2152 0.929 . S
C2178 C2177 1.406 . S
C2178 C2179 1.391 . S
C2179 H2151 0.931 . S
C2179 C2174 1.370 . S
C2179 C2178 1.391 . S
C2180 N2149 1.435 . S
C2180 C2181 1.358 . S
C2180 C2185 1.371 . S
C2181 H2153 0.930 . S
C2181 C2180 1.358 . S
C2181 C2182 1.405 . S
C2182 H2154 0.932 . S
C2182 C2181 1.405 . S
C2182 C2183 1.383 . S
C2183 C2182 1.383 . S
C2183 C2184 1.393 . S
C2184 H2156 0.931 . S
C2184 C2183 1.393 . S
C2184 C2185 1.382 . S
C2185 H2155 0.929 . S
C2185 C2180 1.371 . S
C2185 C2184 1.382 . S
C2186 N2149 1.423 . S
C2186 C2187 1.362 . S
C2186 C2191 1.388 . S
C2187 H2157 0.929 . S
C2187 C2186 1.362 . S
C2187 C2188 1.376 . S
C2188 H2159 0.931 . S
C2188 C2187 1.376 . S
C2188 C2189 1.396 . S
C2189 C2188 1.396 . S
C2189 C2190 1.348 . S
C2189 C2207 1.472 . S
C2190 H2160 0.929 . S
C2190 C2189 1.348 . S
C2190 C2191 1.443 . S
C2191 H2158 0.932 . S
C2191 C2186 1.388 . S
C2191 C2190 1.443 . S
C2192 N2172 1.433 . S
C2192 C2193 1.363 . S
C2192 C2197 1.370 . S
C2193 H2161 0.929 . S
C2193 C2192 1.363 . S
C2193 C2194 1.385 . S
C2194 H2162 0.930 . S
C2194 C2193 1.385 . S
C2194 C2195 1.357 . S
C2195 C2194 1.357 . S
C2195 C2196 1.406 . S
C2196 H2163 0.929 . S
C2196 C2195 1.406 . S
C2196 C2197 1.391 . S
C2197 H2164 0.931 . S
C2197 C2192 1.370 . S
C2197 C2196 1.391 . S
C2198 N2172 1.435 . S
C2198 C2199 1.358 . S
C2198 C2203 1.371 . S
C2199 H2165 0.930 . S
C2199 C2198 1.358 . S
C2199 C2200 1.405 . S
C2200 H2166 0.932 . S
C2200 C2199 1.405 . S
C2200 C2201 1.383 . S
C2201 C2200 1.383 . S
C2201 C2202 1.393 . S
C2202 H2167 0.931 . S
C2202 C2201 1.393 . S
C2202 C2203 1.382 . S
C2203 H2168 0.929 . S
C2203 C2198 1.371 . S
C2203 C2202 1.382 . S
C2204 N2172 1.423 . S
C2204 C2205 1.362 . S
C2204 C2209 1.388 . S
C2205 H2169 0.929 . S
C2205 C2204 1.362 . S
C2205 C2206 1.376 . S
C2206 H2170 0.931 . S
C2206 C2205 1.376 . S
C2206 C2207 1.396 . S
C2207 C2189 1.472 . S
C2207 C2206 1.396 . S
C2207 C2208 1.348 . S
C2208 H2171 0.929 . S
C2208 C2207 1.348 . S
C2208 C2209 1.443 . S
C2209 H2173 0.932 . S
C2209 C2204 1.388 . S
C2209 C2208 1.443 . S
H2210 C2237 0.929 . S
N2211 C2236 1.433 . S
N2211 C2242 1.435 . S
N2211 C2248 1.423 . S
H2212 C2238 0.930 . S
H2213 C2241 0.931 . S
H2214 C2240 0.929 . S
H2215 C2243 0.930 . S
H2216 C2244 0.932 . S
H2217 C2247 0.929 . S
H2218 C2246 0.931 . S
H2219 C2249 0.929 . S
H2220 C2253 0.932 . S
H2221 C2250 0.931 . S
H2222 C2252 0.929 . S
H2223 C2255 0.929 . S
H2224 C2256 0.930 . S
H2225 C2258 0.929 . S
H2226 C2259 0.931 . S
H2227 C2261 0.930 . S
H2228 C2262 0.932 . S
H2229 C2264 0.931 . S
H2230 C2265 0.929 . S
H2231 C2267 0.929 . S
H2232 C2268 0.931 . S
H2233 C2270 0.929 . S
N2234 C2254 1.433 . S
N2234 C2260 1.435 . S
N2234 C2266 1.423 . S
H2235 C2271 0.932 . S
C2236 N2211 1.433 . S
C2236 C2237 1.363 . S
C2236 C2241 1.370 . S
C2237 H2210 0.929 . S
C2237 C2236 1.363 . S
C2237 C2238 1.385 . S
C2238 H2212 0.930 . S
C2238 C2237 1.385 . S
C2238 C2239 1.357 . S
C2239 C2238 1.357 . S
C2239 C2240 1.406 . S
C2240 H2214 0.929 . S
C2240 C2239 1.406 . S
C2240 C2241 1.391 . S
C2241 H2213 0.931 . S
C2241 C2236 1.370 . S
C2241 C2240 1.391 . S
C2242 N2211 1.435 . S
C2242 C2243 1.358 . S
C2242 C2247 1.371 . S
C2243 H2215 0.930 . S
C2243 C2242 1.358 . S
C2243 C2244 1.405 . S
C2244 H2216 0.932 . S
C2244 C2243 1.405 . S
C2244 C2245 1.383 . S
C2245 C2244 1.383 . S
C2245 C2246 1.393 . S
C2246 H2218 0.931 . S
C2246 C2245 1.393 . S
C2246 C2247 1.382 . S
C2247 H2217 0.929 . S
C2247 C2242 1.371 . S
C2247 C2246 1.382 . S
C2248 N2211 1.423 . S
C2248 C2249 1.362 . S
C2248 C2253 1.388 . S
C2249 H2219 0.929 . S
C2249 C2248 1.362 . S
C2249 C2250 1.376 . S
C2250 H2221 0.931 . S
C2250 C2249 1.376 . S
C2250 C2251 1.396 . S
C2251 C2250 1.396 . S
C2251 C2252 1.348 . S
C2251 C2269 1.472 . S
C2252 H2222 0.929 . S
C2252 C2251 1.348 . S
C2252 C2253 1.443 . S
C2253 H2220 0.932 . S
C2253 C2248 1.388 . S
C2253 C2252 1.443 . S
C2254 N2234 1.433 . S
C2254 C2255 1.363 . S
C2254 C2259 1.370 . S
C2255 H2223 0.929 . S
C2255 C2254 1.363 . S
C2255 C2256 1.385 . S
C2256 H2224 0.930 . S
C2256 C2255 1.385 . S
C2256 C2257 1.357 . S
C2257 C2256 1.357 . S
C2257 C2258 1.406 . S
C2258 H2225 0.929 . S
C2258 C2257 1.406 . S
C2258 C2259 1.391 . S
C2259 H2226 0.931 . S
C2259 C2254 1.370 . S
C2259 C2258 1.391 . S
C2260 N2234 1.435 . S
C2260 C2261 1.358 . S
C2260 C2265 1.371 . S
C2261 H2227 0.930 . S
C2261 C2260 1.358 . S
C2261 C2262 1.405 . S
C2262 H2228 0.932 . S
C2262 C2261 1.405 . S
C2262 C2263 1.383 . S
C2263 C2262 1.383 . S
C2263 C2264 1.393 . S
C2264 H2229 0.931 . S
C2264 C2263 1.393 . S
C2264 C2265 1.382 . S
C2265 H2230 0.929 . S
C2265 C2260 1.371 . S
C2265 C2264 1.382 . S
C2266 N2234 1.423 . S
C2266 C2267 1.362 . S
C2266 C2271 1.388 . S
C2267 H2231 0.929 . S
C2267 C2266 1.362 . S
C2267 C2268 1.376 . S
C2268 H2232 0.931 . S
C2268 C2267 1.376 . S
C2268 C2269 1.396 . S
C2269 C2251 1.472 . S
C2269 C2268 1.396 . S
C2269 C2270 1.348 . S
C2270 H2233 0.929 . S
C2270 C2269 1.348 . S
C2270 C2271 1.443 . S
C2271 H2235 0.932 . S
C2271 C2266 1.388 . S
C2271 C2270 1.443 . S
H2272 C2299 0.929 . S
N2273 C2298 1.433 . S
N2273 C2304 1.435 . S
N2273 C2310 1.423 . S
H2274 C2300 0.930 . S
H2275 C2303 0.931 . S
H2276 C2302 0.929 . S
H2277 C2305 0.930 . S
H2278 C2306 0.932 . S
H2279 C2309 0.929 . S
H2280 C2308 0.931 . S
H2281 C2311 0.929 . S
H2282 C2315 0.932 . S
H2283 C2312 0.931 . S
H2284 C2314 0.929 . S
H2285 C2317 0.929 . S
H2286 C2318 0.930 . S
H2287 C2320 0.929 . S
H2288 C2321 0.931 . S
H2289 C2323 0.930 . S
H2290 C2324 0.932 . S
H2291 C2326 0.931 . S
H2292 C2327 0.929 . S
H2293 C2329 0.929 . S
H2294 C2330 0.931 . S
H2295 C2332 0.929 . S
N2296 C2316 1.433 . S
N2296 C2322 1.435 . S
N2296 C2328 1.423 . S
H2297 C2333 0.932 . S
C2298 N2273 1.433 . S
C2298 C2299 1.363 . S
C2298 C2303 1.370 . S
C2299 H2272 0.929 . S
C2299 C2298 1.363 . S
C2299 C2300 1.385 . S
C2300 H2274 0.930 . S
C2300 C2299 1.385 . S
C2300 C2301 1.357 . S
C2301 C2300 1.357 . S
C2301 C2302 1.406 . S
C2302 H2276 0.929 . S
C2302 C2301 1.406 . S
C2302 C2303 1.391 . S
C2303 H2275 0.931 . S
C2303 C2298 1.370 . S
C2303 C2302 1.391 . S
C2304 N2273 1.435 . S
C2304 C2305 1.358 . S
C2304 C2309 1.371 . S
C2305 H2277 0.930 . S
C2305 C2304 1.358 . S
C2305 C2306 1.405 . S
C2306 H2278 0.932 . S
C2306 C2305 1.405 . S
C2306 C2307 1.383 . S
C2307 C2306 1.383 . S
C2307 C2308 1.393 . S
C2308 H2280 0.931 . S
C2308 C2307 1.393 . S
C2308 C2309 1.382 . S
C2309 H2279 0.929 . S
C2309 C2304 1.371 . S
C2309 C2308 1.382 . S
C2310 N2273 1.423 . S
C2310 C2311 1.362 . S
C2310 C2315 1.388 . S
C2311 H2281 0.929 . S
C2311 C2310 1.362 . S
C2311 C2312 1.376 . S
C2312 H2283 0.931 . S
C2312 C2311 1.376 . S
C2312 C2313 1.396 . S
C2313 C2312 1.396 . S
C2313 C2314 1.348 . S
C2313 C2331 1.472 . S
C2314 H2284 0.929 . S
C2314 C2313 1.348 . S
C2314 C2315 1.443 . S
C2315 H2282 0.932 . S
C2315 C2310 1.388 . S
C2315 C2314 1.443 . S
C2316 N2296 1.433 . S
C2316 C2317 1.363 . S
C2316 C2321 1.370 . S
C2317 H2285 0.929 . S
C2317 C2316 1.363 . S
C2317 C2318 1.385 . S
C2318 H2286 0.930 . S
C2318 C2317 1.385 . S
C2318 C2319 1.357 . S
C2319 C2318 1.357 . S
C2319 C2320 1.406 . S
C2320 H2287 0.929 . S
C2320 C2319 1.406 . S
C2320 C2321 1.391 . S
C2321 H2288 0.931 . S
C2321 C2316 1.370 . S
C2321 C2320 1.391 . S
C2322 N2296 1.435 . S
C2322 C2323 1.358 . S
C2322 C2327 1.371 . S
C2323 H2289 0.930 . S
C2323 C2322 1.358 . S
C2323 C2324 1.405 . S
C2324 H2290 0.932 . S
C2324 C2323 1.405 . S
C2324 C2325 1.383 . S
C2325 C2324 1.383 . S
C2325 C2326 1.393 . S
C2326 H2291 0.931 . S
C2326 C2325 1.393 . S
C2326 C2327 1.382 . S
C2327 H2292 0.929 . S
C2327 C2322 1.371 . S
C2327 C2326 1.382 . S
C2328 N2296 1.423 . S
C2328 C2329 1.362 . S
C2328 C2333 1.388 . S
C2329 H2293 0.929 . S
C2329 C2328 1.362 . S
C2329 C2330 1.376 . S
C2330 H2294 0.931 . S
C2330 C2329 1.376 . S
C2330 C2331 1.396 . S
C2331 C2313 1.472 . S
C2331 C2330 1.396 . S
C2331 C2332 1.348 . S
C2332 H2295 0.929 . S
C2332 C2331 1.348 . S
C2332 C2333 1.443 . S
C2333 H2297 0.932 . S
C2333 C2328 1.388 . S
C2333 C2332 1.443 . S
H2334 C2361 0.929 . S
N2335 C2360 1.433 . S
N2335 C2366 1.435 . S
N2335 C2372 1.423 . S
H2336 C2362 0.930 . S
H2337 C2365 0.931 . S
H2338 C2364 0.929 . S
H2339 C2367 0.930 . S
H2340 C2368 0.932 . S
H2341 C2371 0.929 . S
H2342 C2370 0.931 . S
H2343 C2373 0.929 . S
H2344 C2377 0.932 . S
H2345 C2374 0.931 . S
H2346 C2376 0.929 . S
H2347 C2379 0.929 . S
H2348 C2380 0.930 . S
H2349 C2382 0.929 . S
H2350 C2383 0.931 . S
H2351 C2385 0.930 . S
H2352 C2386 0.932 . S
H2353 C2388 0.931 . S
H2354 C2389 0.929 . S
H2355 C2391 0.929 . S
H2356 C2392 0.931 . S
H2357 C2394 0.929 . S
N2358 C2378 1.433 . S
N2358 C2384 1.435 . S
N2358 C2390 1.423 . S
H2359 C2395 0.932 . S
C2360 N2335 1.433 . S
C2360 C2361 1.363 . S
C2360 C2365 1.370 . S
C2361 H2334 0.929 . S
C2361 C2360 1.363 . S
C2361 C2362 1.385 . S
C2362 H2336 0.930 . S
C2362 C2361 1.385 . S
C2362 C2363 1.357 . S
C2363 C2362 1.357 . S
C2363 C2364 1.406 . S
C2364 H2338 0.929 . S
C2364 C2363 1.406 . S
C2364 C2365 1.391 . S
C2365 H2337 0.931 . S
C2365 C2360 1.370 . S
C2365 C2364 1.391 . S
C2366 N2335 1.435 . S
C2366 C2367 1.358 . S
C2366 C2371 1.371 . S
C2367 H2339 0.930 . S
C2367 C2366 1.358 . S
C2367 C2368 1.405 . S
C2368 H2340 0.932 . S
C2368 C2367 1.405 . S
C2368 C2369 1.383 . S
C2369 C2368 1.383 . S
C2369 C2370 1.393 . S
C2370 H2342 0.931 . S
C2370 C2369 1.393 . S
C2370 C2371 1.382 . S
C2371 H2341 0.929 . S
C2371 C2366 1.371 . S
C2371 C2370 1.382 . S
C2372 N2335 1.423 . S
C2372 C2373 1.362 . S
C2372 C2377 1.388 . S
C2373 H2343 0.929 . S
C2373 C2372 1.362 . S
C2373 C2374 1.376 . S
C2374 H2345 0.931 . S
C2374 C2373 1.376 . S
C2374 C2375 1.396 . S
C2375 C2374 1.396 . S
C2375 C2376 1.348 . S
C2375 C2393 1.472 . S
C2376 H2346 0.929 . S
C2376 C2375 1.348 . S
C2376 C2377 1.443 . S
C2377 H2344 0.932 . S
C2377 C2372 1.388 . S
C2377 C2376 1.443 . S
C2378 N2358 1.433 . S
C2378 C2379 1.363 . S
C2378 C2383 1.370 . S
C2379 H2347 0.929 . S
C2379 C2378 1.363 . S
C2379 C2380 1.385 . S
C2380 H2348 0.930 . S
C2380 C2379 1.385 . S
C2380 C2381 1.357 . S
C2381 C2380 1.357 . S
C2381 C2382 1.406 . S
C2382 H2349 0.929 . S
C2382 C2381 1.406 . S
C2382 C2383 1.391 . S
C2383 H2350 0.931 . S
C2383 C2378 1.370 . S
C2383 C2382 1.391 . S
C2384 N2358 1.435 . S
C2384 C2385 1.358 . S
C2384 C2389 1.371 . S
C2385 H2351 0.930 . S
C2385 C2384 1.358 . S
C2385 C2386 1.405 . S
C2386 H2352 0.932 . S
C2386 C2385 1.405 . S
C2386 C2387 1.383 . S
C2387 C2386 1.383 . S
C2387 C2388 1.393 . S
C2388 H2353 0.931 . S
C2388 C2387 1.393 . S
C2388 C2389 1.382 . S
C2389 H2354 0.929 . S
C2389 C2384 1.371 . S
C2389 C2388 1.382 . S
C2390 N2358 1.423 . S
C2390 C2391 1.362 . S
C2390 C2395 1.388 . S
C2391 H2355 0.929 . S
C2391 C2390 1.362 . S
C2391 C2392 1.376 . S
C2392 H2356 0.931 . S
C2392 C2391 1.376 . S
C2392 C2393 1.396 . S
C2393 C2375 1.472 . S
C2393 C2392 1.396 . S
C2393 C2394 1.348 . S
C2394 H2357 0.929 . S
C2394 C2393 1.348 . S
C2394 C2395 1.443 . S
C2395 H2359 0.932 . S
C2395 C2390 1.388 . S
C2395 C2394 1.443 . S
H2396 C2423 0.929 . S
N2397 C2422 1.433 . S
N2397 C2428 1.435 . S
N2397 C2434 1.423 . S
H2398 C2424 0.930 . S
H2399 C2427 0.931 . S
H2400 C2426 0.929 . S
H2401 C2429 0.930 . S
H2402 C2430 0.932 . S
H2403 C2433 0.929 . S
H2404 C2432 0.931 . S
H2405 C2435 0.929 . S
H2406 C2439 0.932 . S
H2407 C2436 0.931 . S
H2408 C2438 0.929 . S
H2409 C2441 0.929 . S
H2410 C2442 0.930 . S
H2411 C2444 0.929 . S
H2412 C2445 0.931 . S
H2413 C2447 0.930 . S
H2414 C2448 0.932 . S
H2415 C2450 0.931 . S
H2416 C2451 0.929 . S
H2417 C2453 0.929 . S
H2418 C2454 0.931 . S
H2419 C2456 0.929 . S
N2420 C2440 1.433 . S
N2420 C2446 1.435 . S
N2420 C2452 1.423 . S
H2421 C2457 0.932 . S
C2422 N2397 1.433 . S
C2422 C2423 1.363 . S
C2422 C2427 1.370 . S
C2423 H2396 0.929 . S
C2423 C2422 1.363 . S
C2423 C2424 1.385 . S
C2424 H2398 0.930 . S
C2424 C2423 1.385 . S
C2424 C2425 1.357 . S
C2425 C2424 1.357 . S
C2425 C2426 1.406 . S
C2426 H2400 0.929 . S
C2426 C2425 1.406 . S
C2426 C2427 1.391 . S
C2427 H2399 0.931 . S
C2427 C2422 1.370 . S
C2427 C2426 1.391 . S
C2428 N2397 1.435 . S
C2428 C2429 1.358 . S
C2428 C2433 1.371 . S
C2429 H2401 0.930 . S
C2429 C2428 1.358 . S
C2429 C2430 1.405 . S
C2430 H2402 0.932 . S
C2430 C2429 1.405 . S
C2430 C2431 1.383 . S
C2431 C2430 1.383 . S
C2431 C2432 1.393 . S
C2432 H2404 0.931 . S
C2432 C2431 1.393 . S
C2432 C2433 1.382 . S
C2433 H2403 0.929 . S
C2433 C2428 1.371 . S
C2433 C2432 1.382 . S
C2434 N2397 1.423 . S
C2434 C2435 1.362 . S
C2434 C2439 1.388 . S
C2435 H2405 0.929 . S
C2435 C2434 1.362 . S
C2435 C2436 1.376 . S
C2436 H2407 0.931 . S
C2436 C2435 1.376 . S
C2436 C2437 1.396 . S
C2437 C2436 1.396 . S
C2437 C2438 1.348 . S
C2437 C2455 1.472 . S
C2438 H2408 0.929 . S
C2438 C2437 1.348 . S
C2438 C2439 1.443 . S
C2439 H2406 0.932 . S
C2439 C2434 1.388 . S
C2439 C2438 1.443 . S
C2440 N2420 1.433 . S
C2440 C2441 1.363 . S
C2440 C2445 1.370 . S
C2441 H2409 0.929 . S
C2441 C2440 1.363 . S
C2441 C2442 1.385 . S
C2442 H2410 0.930 . S
C2442 C2441 1.385 . S
C2442 C2443 1.357 . S
C2443 C2442 1.357 . S
C2443 C2444 1.406 . S
C2444 H2411 0.929 . S
C2444 C2443 1.406 . S
C2444 C2445 1.391 . S
C2445 H2412 0.931 . S
C2445 C2440 1.370 . S
C2445 C2444 1.391 . S
C2446 N2420 1.435 . S
C2446 C2447 1.358 . S
C2446 C2451 1.371 . S
C2447 H2413 0.930 . S
C2447 C2446 1.358 . S
C2447 C2448 1.405 . S
C2448 H2414 0.932 . S
C2448 C2447 1.405 . S
C2448 C2449 1.383 . S
C2449 C2448 1.383 . S
C2449 C2450 1.393 . S
C2450 H2415 0.931 . S
C2450 C2449 1.393 . S
C2450 C2451 1.382 . S
C2451 H2416 0.929 . S
C2451 C2446 1.371 . S
C2451 C2450 1.382 . S
C2452 N2420 1.423 . S
C2452 C2453 1.362 . S
C2452 C2457 1.388 . S
C2453 H2417 0.929 . S
C2453 C2452 1.362 . S
C2453 C2454 1.376 . S
C2454 H2418 0.931 . S
C2454 C2453 1.376 . S
C2454 C2455 1.396 . S
C2455 C2437 1.472 . S
C2455 C2454 1.396 . S
C2455 C2456 1.348 . S
C2456 H2419 0.929 . S
C2456 C2455 1.348 . S
C2456 C2457 1.443 . S
C2457 H2421 0.932 . S
C2457 C2452 1.388 . S
C2457 C2456 1.443 . S
H2458 C2485 0.929 . S
N2459 C2484 1.433 . S
N2459 C2490 1.435 . S
N2459 C2496 1.423 . S
H2460 C2486 0.930 . S
H2461 C2489 0.931 . S
H2462 C2488 0.929 . S
H2463 C2491 0.930 . S
H2464 C2492 0.932 . S
H2465 C2495 0.929 . S
H2466 C2494 0.931 . S
H2467 C2497 0.929 . S
H2468 C2501 0.932 . S
H2469 C2498 0.931 . S
H2470 C2500 0.929 . S
H2471 C2503 0.929 . S
H2472 C2504 0.930 . S
H2473 C2506 0.929 . S
H2474 C2507 0.931 . S
H2475 C2509 0.930 . S
H2476 C2510 0.932 . S
H2477 C2512 0.931 . S
H2478 C2513 0.929 . S
H2479 C2515 0.929 . S
H2480 C2516 0.931 . S
H2481 C2518 0.929 . S
N2482 C2502 1.433 . S
N2482 C2508 1.435 . S
N2482 C2514 1.423 . S
H2483 C2519 0.932 . S
C2484 N2459 1.433 . S
C2484 C2485 1.363 . S
C2484 C2489 1.370 . S
C2485 H2458 0.929 . S
C2485 C2484 1.363 . S
C2485 C2486 1.385 . S
C2486 H2460 0.930 . S
C2486 C2485 1.385 . S
C2486 C2487 1.357 . S
C2487 C2486 1.357 . S
C2487 C2488 1.406 . S
C2488 H2462 0.929 . S
C2488 C2487 1.406 . S
C2488 C2489 1.391 . S
C2489 H2461 0.931 . S
C2489 C2484 1.370 . S
C2489 C2488 1.391 . S
C2490 N2459 1.435 . S
C2490 C2491 1.358 . S
C2490 C2495 1.371 . S
C2491 H2463 0.930 . S
C2491 C2490 1.358 . S
C2491 C2492 1.405 . S
C2492 H2464 0.932 . S
C2492 C2491 1.405 . S
C2492 C2493 1.383 . S
C2493 C2492 1.383 . S
C2493 C2494 1.393 . S
C2494 H2466 0.931 . S
C2494 C2493 1.393 . S
C2494 C2495 1.382 . S
C2495 H2465 0.929 . S
C2495 C2490 1.371 . S
C2495 C2494 1.382 . S
C2496 N2459 1.423 . S
C2496 C2497 1.362 . S
C2496 C2501 1.388 . S
C2497 H2467 0.929 . S
C2497 C2496 1.362 . S
C2497 C2498 1.376 . S
C2498 H2469 0.931 . S
C2498 C2497 1.376 . S
C2498 C2499 1.396 . S
C2499 C2498 1.396 . S
C2499 C2500 1.348 . S
C2499 C2517 1.472 . S
C2500 H2470 0.929 . S
C2500 C2499 1.348 . S
C2500 C2501 1.443 . S
C2501 H2468 0.932 . S
C2501 C2496 1.388 . S
C2501 C2500 1.443 . S
C2502 N2482 1.433 . S
C2502 C2503 1.363 . S
C2502 C2507 1.370 . S
C2503 H2471 0.929 . S
C2503 C2502 1.363 . S
C2503 C2504 1.385 . S
C2504 H2472 0.930 . S
C2504 C2503 1.385 . S
C2504 C2505 1.357 . S
C2505 C2504 1.357 . S
C2505 C2506 1.406 . S
C2506 H2473 0.929 . S
C2506 C2505 1.406 . S
C2506 C2507 1.391 . S
C2507 H2474 0.931 . S
C2507 C2502 1.370 . S
C2507 C2506 1.391 . S
C2508 N2482 1.435 . S
C2508 C2509 1.358 . S
C2508 C2513 1.371 . S
C2509 H2475 0.930 . S
C2509 C2508 1.358 . S
C2509 C2510 1.405 . S
C2510 H2476 0.932 . S
C2510 C2509 1.405 . S
C2510 C2511 1.383 . S
C2511 C2510 1.383 . S
C2511 C2512 1.393 . S
C2512 H2477 0.931 . S
C2512 C2511 1.393 . S
C2512 C2513 1.382 . S
C2513 H2478 0.929 . S
C2513 C2508 1.371 . S
C2513 C2512 1.382 . S
C2514 N2482 1.423 . S
C2514 C2515 1.362 . S
C2514 C2519 1.388 . S
C2515 H2479 0.929 . S
C2515 C2514 1.362 . S
C2515 C2516 1.376 . S
C2516 H2480 0.931 . S
C2516 C2515 1.376 . S
C2516 C2517 1.396 . S
C2517 C2499 1.472 . S
C2517 C2516 1.396 . S
C2517 C2518 1.348 . S
C2518 H2481 0.929 . S
C2518 C2517 1.348 . S
C2518 C2519 1.443 . S
C2519 H2483 0.932 . S
C2519 C2514 1.388 . S
C2519 C2518 1.443 . S
H2520 C2547 0.929 . S
N2521 C2546 1.433 . S
N2521 C2552 1.435 . S
N2521 C2558 1.423 . S
H2522 C2548 0.930 . S
H2523 C2551 0.931 . S
H2524 C2550 0.929 . S
H2525 C2553 0.930 . S
H2526 C2554 0.932 . S
H2527 C2557 0.929 . S
H2528 C2556 0.931 . S
H2529 C2559 0.929 . S
H2530 C2563 0.932 . S
H2531 C2560 0.931 . S
H2532 C2562 0.929 . S
H2533 C2565 0.929 . S
H2534 C2566 0.930 . S
H2535 C2568 0.929 . S
H2536 C2569 0.931 . S
H2537 C2571 0.930 . S
H2538 C2572 0.932 . S
H2539 C2574 0.931 . S
H2540 C2575 0.929 . S
H2541 C2577 0.929 . S
H2542 C2578 0.931 . S
H2543 C2580 0.929 . S
N2544 C2564 1.433 . S
N2544 C2570 1.435 . S
N2544 C2576 1.423 . S
H2545 C2581 0.932 . S
C2546 N2521 1.433 . S
C2546 C2547 1.363 . S
C2546 C2551 1.370 . S
C2547 H2520 0.929 . S
C2547 C2546 1.363 . S
C2547 C2548 1.385 . S
C2548 H2522 0.930 . S
C2548 C2547 1.385 . S
C2548 C2549 1.357 . S
C2549 C2548 1.357 . S
C2549 C2550 1.406 . S
C2550 H2524 0.929 . S
C2550 C2549 1.406 . S
C2550 C2551 1.391 . S
C2551 H2523 0.931 . S
C2551 C2546 1.370 . S
C2551 C2550 1.391 . S
C2552 N2521 1.435 . S
C2552 C2553 1.358 . S
C2552 C2557 1.371 . S
C2553 H2525 0.930 . S
C2553 C2552 1.358 . S
C2553 C2554 1.405 . S
C2554 H2526 0.932 . S
C2554 C2553 1.405 . S
C2554 C2555 1.383 . S
C2555 C2554 1.383 . S
C2555 C2556 1.393 . S
C2556 H2528 0.931 . S
C2556 C2555 1.393 . S
C2556 C2557 1.382 . S
C2557 H2527 0.929 . S
C2557 C2552 1.371 . S
C2557 C2556 1.382 . S
C2558 N2521 1.423 . S
C2558 C2559 1.362 . S
C2558 C2563 1.388 . S
C2559 H2529 0.929 . S
C2559 C2558 1.362 . S
C2559 C2560 1.376 . S
C2560 H2531 0.931 . S
C2560 C2559 1.376 . S
C2560 C2561 1.396 . S
C2561 C2560 1.396 . S
C2561 C2562 1.348 . S
C2561 C2579 1.472 . S
C2562 H2532 0.929 . S
C2562 C2561 1.348 . S
C2562 C2563 1.443 . S
C2563 H2530 0.932 . S
C2563 C2558 1.388 . S
C2563 C2562 1.443 . S
C2564 N2544 1.433 . S
C2564 C2565 1.363 . S
C2564 C2569 1.370 . S
C2565 H2533 0.929 . S
C2565 C2564 1.363 . S
C2565 C2566 1.385 . S
C2566 H2534 0.930 . S
C2566 C2565 1.385 . S
C2566 C2567 1.357 . S
C2567 C2566 1.357 . S
C2567 C2568 1.406 . S
C2568 H2535 0.929 . S
C2568 C2567 1.406 . S
C2568 C2569 1.391 . S
C2569 H2536 0.931 . S
C2569 C2564 1.370 . S
C2569 C2568 1.391 . S
C2570 N2544 1.435 . S
C2570 C2571 1.358 . S
C2570 C2575 1.371 . S
C2571 H2537 0.930 . S
C2571 C2570 1.358 . S
C2571 C2572 1.405 . S
C2572 H2538 0.932 . S
C2572 C2571 1.405 . S
C2572 C2573 1.383 . S
C2573 C2572 1.383 . S
C2573 C2574 1.393 . S
C2574 H2539 0.931 . S
C2574 C2573 1.393 . S
C2574 C2575 1.382 . S
C2575 H2540 0.929 . S
C2575 C2570 1.371 . S
C2575 C2574 1.382 . S
C2576 N2544 1.423 . S
C2576 C2577 1.362 . S
C2576 C2581 1.388 . S
C2577 H2541 0.929 . S
C2577 C2576 1.362 . S
C2577 C2578 1.376 . S
C2578 H2542 0.931 . S
C2578 C2577 1.376 . S
C2578 C2579 1.396 . S
C2579 C2561 1.472 . S
C2579 C2578 1.396 . S
C2579 C2580 1.348 . S
C2580 H2543 0.929 . S
C2580 C2579 1.348 . S
C2580 C2581 1.443 . S
C2581 H2545 0.932 . S
C2581 C2576 1.388 . S
C2581 C2580 1.443 . S
H2582 C2609 0.929 . S
N2583 C2608 1.433 . S
N2583 C2614 1.435 . S
N2583 C2620 1.423 . S
H2584 C2610 0.930 . S
H2585 C2613 0.931 . S
H2586 C2612 0.929 . S
H2587 C2615 0.930 . S
H2588 C2616 0.932 . S
H2589 C2619 0.929 . S
H2590 C2618 0.931 . S
H2591 C2621 0.929 . S
H2592 C2625 0.932 . S
H2593 C2622 0.931 . S
H2594 C2624 0.929 . S
H2595 C2627 0.929 . S
H2596 C2628 0.930 . S
H2597 C2630 0.929 . S
H2598 C2631 0.931 . S
H2599 C2633 0.930 . S
H2600 C2634 0.932 . S
H2601 C2636 0.931 . S
H2602 C2637 0.929 . S
H2603 C2639 0.929 . S
H2604 C2640 0.931 . S
H2605 C2642 0.929 . S
N2606 C2626 1.433 . S
N2606 C2632 1.435 . S
N2606 C2638 1.423 . S
H2607 C2643 0.932 . S
C2608 N2583 1.433 . S
C2608 C2609 1.363 . S
C2608 C2613 1.370 . S
C2609 H2582 0.929 . S
C2609 C2608 1.363 . S
C2609 C2610 1.385 . S
C2610 H2584 0.930 . S
C2610 C2609 1.385 . S
C2610 C2611 1.357 . S
C2611 C2610 1.357 . S
C2611 C2612 1.406 . S
C2612 H2586 0.929 . S
C2612 C2611 1.406 . S
C2612 C2613 1.391 . S
C2613 H2585 0.931 . S
C2613 C2608 1.370 . S
C2613 C2612 1.391 . S
C2614 N2583 1.435 . S
C2614 C2615 1.358 . S
C2614 C2619 1.371 . S
C2615 H2587 0.930 . S
C2615 C2614 1.358 . S
C2615 C2616 1.405 . S
C2616 H2588 0.932 . S
C2616 C2615 1.405 . S
C2616 C2617 1.383 . S
C2617 C2616 1.383 . S
C2617 C2618 1.393 . S
C2618 H2590 0.931 . S
C2618 C2617 1.393 . S
C2618 C2619 1.382 . S
C2619 H2589 0.929 . S
C2619 C2614 1.371 . S
C2619 C2618 1.382 . S
C2620 N2583 1.423 . S
C2620 C2621 1.362 . S
C2620 C2625 1.388 . S
C2621 H2591 0.929 . S
C2621 C2620 1.362 . S
C2621 C2622 1.376 . S
C2622 H2593 0.931 . S
C2622 C2621 1.376 . S
C2622 C2623 1.396 . S
C2623 C2622 1.396 . S
C2623 C2624 1.348 . S
C2623 C2641 1.472 . S
C2624 H2594 0.929 . S
C2624 C2623 1.348 . S
C2624 C2625 1.443 . S
C2625 H2592 0.932 . S
C2625 C2620 1.388 . S
C2625 C2624 1.443 . S
C2626 N2606 1.433 . S
C2626 C2627 1.363 . S
C2626 C2631 1.370 . S
C2627 H2595 0.929 . S
C2627 C2626 1.363 . S
C2627 C2628 1.385 . S
C2628 H2596 0.930 . S
C2628 C2627 1.385 . S
C2628 C2629 1.357 . S
C2629 C2628 1.357 . S
C2629 C2630 1.406 . S
C2630 H2597 0.929 . S
C2630 C2629 1.406 . S
C2630 C2631 1.391 . S
C2631 H2598 0.931 . S
C2631 C2626 1.370 . S
C2631 C2630 1.391 . S
C2632 N2606 1.435 . S
C2632 C2633 1.358 . S
C2632 C2637 1.371 . S
C2633 H2599 0.930 . S
C2633 C2632 1.358 . S
C2633 C2634 1.405 . S
C2634 H2600 0.932 . S
C2634 C2633 1.405 . S
C2634 C2635 1.383 . S
C2635 C2634 1.383 . S
C2635 C2636 1.393 . S
C2636 H2601 0.931 . S
C2636 C2635 1.393 . S
C2636 C2637 1.382 . S
C2637 H2602 0.929 . S
C2637 C2632 1.371 . S
C2637 C2636 1.382 . S
C2638 N2606 1.423 . S
C2638 C2639 1.362 . S
C2638 C2643 1.388 . S
C2639 H2603 0.929 . S
C2639 C2638 1.362 . S
C2639 C2640 1.376 . S
C2640 H2604 0.931 . S
C2640 C2639 1.376 . S
C2640 C2641 1.396 . S
C2641 C2623 1.472 . S
C2641 C2640 1.396 . S
C2641 C2642 1.348 . S
C2642 H2605 0.929 . S
C2642 C2641 1.348 . S
C2642 C2643 1.443 . S
C2643 H2607 0.932 . S
C2643 C2638 1.388 . S
C2643 C2642 1.443 . S
H2644 C2671 0.929 . S
N2645 C2670 1.433 . S
N2645 C2676 1.435 . S
N2645 C2682 1.423 . S
H2646 C2672 0.930 . S
H2647 C2675 0.931 . S
H2648 C2674 0.929 . S
H2649 C2677 0.930 . S
H2650 C2678 0.932 . S
H2651 C2681 0.929 . S
H2652 C2680 0.931 . S
H2653 C2683 0.929 . S
H2654 C2687 0.932 . S
H2655 C2684 0.931 . S
H2656 C2686 0.929 . S
H2657 C2689 0.929 . S
H2658 C2690 0.930 . S
H2659 C2692 0.929 . S
H2660 C2693 0.931 . S
H2661 C2695 0.930 . S
H2662 C2696 0.932 . S
H2663 C2698 0.931 . S
H2664 C2699 0.929 . S
H2665 C2701 0.929 . S
H2666 C2702 0.931 . S
H2667 C2704 0.929 . S
N2668 C2688 1.433 . S
N2668 C2694 1.435 . S
N2668 C2700 1.423 . S
H2669 C2705 0.932 . S
C2670 N2645 1.433 . S
C2670 C2671 1.363 . S
C2670 C2675 1.370 . S
C2671 H2644 0.929 . S
C2671 C2670 1.363 . S
C2671 C2672 1.385 . S
C2672 H2646 0.930 . S
C2672 C2671 1.385 . S
C2672 C2673 1.357 . S
C2673 C2672 1.357 . S
C2673 C2674 1.406 . S
C2674 H2648 0.929 . S
C2674 C2673 1.406 . S
C2674 C2675 1.391 . S
C2675 H2647 0.931 . S
C2675 C2670 1.370 . S
C2675 C2674 1.391 . S
C2676 N2645 1.435 . S
C2676 C2677 1.358 . S
C2676 C2681 1.371 . S
C2677 H2649 0.930 . S
C2677 C2676 1.358 . S
C2677 C2678 1.405 . S
C2678 H2650 0.932 . S
C2678 C2677 1.405 . S
C2678 C2679 1.383 . S
C2679 C2678 1.383 . S
C2679 C2680 1.393 . S
C2680 H2652 0.931 . S
C2680 C2679 1.393 . S
C2680 C2681 1.382 . S
C2681 H2651 0.929 . S
C2681 C2676 1.371 . S
C2681 C2680 1.382 . S
C2682 N2645 1.423 . S
C2682 C2683 1.362 . S
C2682 C2687 1.388 . S
C2683 H2653 0.929 . S
C2683 C2682 1.362 . S
C2683 C2684 1.376 . S
C2684 H2655 0.931 . S
C2684 C2683 1.376 . S
C2684 C2685 1.396 . S
C2685 C2684 1.396 . S
C2685 C2686 1.348 . S
C2685 C2703 1.472 . S
C2686 H2656 0.929 . S
C2686 C2685 1.348 . S
C2686 C2687 1.443 . S
C2687 H2654 0.932 . S
C2687 C2682 1.388 . S
C2687 C2686 1.443 . S
C2688 N2668 1.433 . S
C2688 C2689 1.363 . S
C2688 C2693 1.370 . S
C2689 H2657 0.929 . S
C2689 C2688 1.363 . S
C2689 C2690 1.385 . S
C2690 H2658 0.930 . S
C2690 C2689 1.385 . S
C2690 C2691 1.357 . S
C2691 C2690 1.357 . S
C2691 C2692 1.406 . S
C2692 H2659 0.929 . S
C2692 C2691 1.406 . S
C2692 C2693 1.391 . S
C2693 H2660 0.931 . S
C2693 C2688 1.370 . S
C2693 C2692 1.391 . S
C2694 N2668 1.435 . S
C2694 C2695 1.358 . S
C2694 C2699 1.371 . S
C2695 H2661 0.930 . S
C2695 C2694 1.358 . S
C2695 C2696 1.405 . S
C2696 H2662 0.932 . S
C2696 C2695 1.405 . S
C2696 C2697 1.383 . S
C2697 C2696 1.383 . S
C2697 C2698 1.393 . S
C2698 H2663 0.931 . S
C2698 C2697 1.393 . S
C2698 C2699 1.382 . S
C2699 H2664 0.929 . S
C2699 C2694 1.371 . S
C2699 C2698 1.382 . S
C2700 N2668 1.423 . S
C2700 C2701 1.362 . S
C2700 C2705 1.388 . S
C2701 H2665 0.929 . S
C2701 C2700 1.362 . S
C2701 C2702 1.376 . S
C2702 H2666 0.931 . S
C2702 C2701 1.376 . S
C2702 C2703 1.396 . S
C2703 C2685 1.472 . S
C2703 C2702 1.396 . S
C2703 C2704 1.348 . S
C2704 H2667 0.929 . S
C2704 C2703 1.348 . S
C2704 C2705 1.443 . S
C2705 H2669 0.932 . S
C2705 C2700 1.388 . S
C2705 C2704 1.443 . S
H2706 C2733 0.929 . S
N2707 C2732 1.433 . S
N2707 C2738 1.435 . S
N2707 C2744 1.423 . S
H2708 C2734 0.930 . S
H2709 C2737 0.931 . S
H2710 C2736 0.929 . S
H2711 C2739 0.930 . S
H2712 C2740 0.932 . S
H2713 C2743 0.929 . S
H2714 C2742 0.931 . S
H2715 C2745 0.929 . S
H2716 C2749 0.932 . S
H2717 C2746 0.931 . S
H2718 C2748 0.929 . S
H2719 C2751 0.929 . S
H2720 C2752 0.930 . S
H2721 C2754 0.929 . S
H2722 C2755 0.931 . S
H2723 C2757 0.930 . S
H2724 C2758 0.932 . S
H2725 C2760 0.931 . S
H2726 C2761 0.929 . S
H2727 C2763 0.929 . S
H2728 C2764 0.931 . S
H2729 C2766 0.929 . S
N2730 C2750 1.433 . S
N2730 C2756 1.435 . S
N2730 C2762 1.423 . S
H2731 C2767 0.932 . S
C2732 N2707 1.433 . S
C2732 C2733 1.363 . S
C2732 C2737 1.370 . S
C2733 H2706 0.929 . S
C2733 C2732 1.363 . S
C2733 C2734 1.385 . S
C2734 H2708 0.930 . S
C2734 C2733 1.385 . S
C2734 C2735 1.357 . S
C2735 C2734 1.357 . S
C2735 C2736 1.406 . S
C2736 H2710 0.929 . S
C2736 C2735 1.406 . S
C2736 C2737 1.391 . S
C2737 H2709 0.931 . S
C2737 C2732 1.370 . S
C2737 C2736 1.391 . S
C2738 N2707 1.435 . S
C2738 C2739 1.358 . S
C2738 C2743 1.371 . S
C2739 H2711 0.930 . S
C2739 C2738 1.358 . S
C2739 C2740 1.405 . S
C2740 H2712 0.932 . S
C2740 C2739 1.405 . S
C2740 C2741 1.383 . S
C2741 C2740 1.383 . S
C2741 C2742 1.393 . S
C2742 H2714 0.931 . S
C2742 C2741 1.393 . S
C2742 C2743 1.382 . S
C2743 H2713 0.929 . S
C2743 C2738 1.371 . S
C2743 C2742 1.382 . S
C2744 N2707 1.423 . S
C2744 C2745 1.362 . S
C2744 C2749 1.388 . S
C2745 H2715 0.929 . S
C2745 C2744 1.362 . S
C2745 C2746 1.376 . S
C2746 H2717 0.931 . S
C2746 C2745 1.376 . S
C2746 C2747 1.396 . S
C2747 C2746 1.396 . S
C2747 C2748 1.348 . S
C2747 C2765 1.472 . S
C2748 H2718 0.929 . S
C2748 C2747 1.348 . S
C2748 C2749 1.443 . S
C2749 H2716 0.932 . S
C2749 C2744 1.388 . S
C2749 C2748 1.443 . S
C2750 N2730 1.433 . S
C2750 C2751 1.363 . S
C2750 C2755 1.370 . S
C2751 H2719 0.929 . S
C2751 C2750 1.363 . S
C2751 C2752 1.385 . S
C2752 H2720 0.930 . S
C2752 C2751 1.385 . S
C2752 C2753 1.357 . S
C2753 C2752 1.357 . S
C2753 C2754 1.406 . S
C2754 H2721 0.929 . S
C2754 C2753 1.406 . S
C2754 C2755 1.391 . S
C2755 H2722 0.931 . S
C2755 C2750 1.370 . S
C2755 C2754 1.391 . S
C2756 N2730 1.435 . S
C2756 C2757 1.358 . S
C2756 C2761 1.371 . S
C2757 H2723 0.930 . S
C2757 C2756 1.358 . S
C2757 C2758 1.405 . S
C2758 H2724 0.932 . S
C2758 C2757 1.405 . S
C2758 C2759 1.383 . S
C2759 C2758 1.383 . S
C2759 C2760 1.393 . S
C2760 H2725 0.931 . S
C2760 C2759 1.393 . S
C2760 C2761 1.382 . S
C2761 H2726 0.929 . S
C2761 C2756 1.371 . S
C2761 C2760 1.382 . S
C2762 N2730 1.423 . S
C2762 C2763 1.362 . S
C2762 C2767 1.388 . S
C2763 H2727 0.929 . S
C2763 C2762 1.362 . S
C2763 C2764 1.376 . S
C2764 H2728 0.931 . S
C2764 C2763 1.376 . S
C2764 C2765 1.396 . S
C2765 C2747 1.472 . S
C2765 C2764 1.396 . S
C2765 C2766 1.348 . S
C2766 H2729 0.929 . S
C2766 C2765 1.348 . S
C2766 C2767 1.443 . S
C2767 H2731 0.932 . S
C2767 C2762 1.388 . S
C2767 C2766 1.443 . S
H2768 C2786 0.951 . S
H2769 C2788 0.951 . S
H2770 C2790 0.950 . S
H2771 C2791 0.950 . S
H2772 C2793 0.950 . S
H2773 C2796 0.950 . S
H2774 C2797 0.950 . S
H2775 C2799 0.950 . S
H2776 C2800 0.950 . S
H2777 C2801 0.951 . S
H2778 C2803 0.951 . S
H2779 C2805 0.950 . S
H2780 C2806 0.950 . S
H2781 C2808 0.950 . S
H2782 C2811 0.950 . S
H2783 C2812 0.950 . S
H2784 C2814 0.950 . S
H2785 C2815 0.950 . S
C2786 H2768 0.951 . S
C2786 C2787 1.366 . S
C2786 C2788 1.388 . S
C2787 C2786 1.366 . S
C2787 C2791 1.385 . S
C2788 H2769 0.951 . S
C2788 C2786 1.388 . S
C2788 C2789 1.366 . S
C2789 C2788 1.366 . S
C2789 C2790 1.414 . S
C2789 C2792 1.499 . S
C2790 H2770 0.950 . S
C2790 C2789 1.414 . S
C2790 C2791 1.374 . S
C2791 H2771 0.950 . S
C2791 C2787 1.385 . S
C2791 C2790 1.374 . S
C2792 C2789 1.499 . S
C2792 C2793 1.373 . S
C2792 C2794 1.389 . S
C2793 H2772 0.950 . S
C2793 C2792 1.373 . S
C2793 C2809 1.377 . S
C2794 C2792 1.389 . S
C2794 C2795 1.524 . S
C2794 C2808 1.377 . S
C2795 C2794 1.524 . S
C2795 C2796 1.397 . S
C2795 C2800 1.363 . S
C2796 H2773 0.950 . S
C2796 C2795 1.397 . S
C2796 C2797 1.334 . S
C2797 H2774 0.950 . S
C2797 C2796 1.334 . S
C2797 C2798 1.287 . S
C2798 C2797 1.287 . S
C2798 C2799 1.524 . S
C2798 H2817 0.913 . S
C2799 H2775 0.950 . S
C2799 C2798 1.524 . S
C2799 C2800 1.415 . S
C2800 H2776 0.950 . S
C2800 C2795 1.363 . S
C2800 C2799 1.415 . S
C2801 H2777 0.951 . S
C2801 C2802 1.366 . S
C2801 C2803 1.388 . S
C2802 C2801 1.366 . S
C2802 C2806 1.385 . S
C2803 H2778 0.951 . S
C2803 C2801 1.388 . S
C2803 C2804 1.366 . S
C2804 C2803 1.366 . S
C2804 C2805 1.414 . S
C2804 C2807 1.499 . S
C2805 H2779 0.950 . S
C2805 C2804 1.414 . S
C2805 C2806 1.374 . S
C2806 H2780 0.950 . S
C2806 C2802 1.385 . S
C2806 C2805 1.374 . S
C2807 C2804 1.499 . S
C2807 C2808 1.373 . S
C2807 C2809 1.389 . S
C2808 H2781 0.950 . S
C2808 C2794 1.377 . S
C2808 C2807 1.373 . S
C2809 C2793 1.377 . S
C2809 C2807 1.389 . S
C2809 C2810 1.524 . S
C2810 C2809 1.524 . S
C2810 C2811 1.397 . S
C2810 C2815 1.363 . S
C2811 H2782 0.950 . S
C2811 C2810 1.397 . S
C2811 C2812 1.334 . S
C2812 H2783 0.950 . S
C2812 C2811 1.334 . S
C2812 C2813 1.287 . S
C2813 C2812 1.287 . S
C2813 C2814 1.524 . S
C2813 H2816 0.999 . S
C2814 H2784 0.950 . S
C2814 C2813 1.524 . S
C2814 C2815 1.415 . S
C2815 H2785 0.950 . S
C2815 C2810 1.363 . S
C2815 C2814 1.415 . S
H2816 C2813 0.999 . S
H2817 C2798 0.913 . S
H2818 C2836 0.951 . S
H2819 C2838 0.951 . S
H2820 C2840 0.950 . S
H2821 C2841 0.950 . S
H2822 C2843 0.950 . S
H2823 C2846 0.950 . S
H2824 C2847 0.950 . S
H2825 C2849 0.950 . S
H2826 C2850 0.950 . S
H2827 C2851 0.951 . S
H2828 C2853 0.951 . S
H2829 C2855 0.950 . S
H2830 C2856 0.950 . S
H2831 C2858 0.950 . S
H2832 C2861 0.950 . S
H2833 C2862 0.950 . S
H2834 C2864 0.950 . S
H2835 C2865 0.950 . S
C2836 H2818 0.951 . S
C2836 C2837 1.366 . S
C2836 C2838 1.388 . S
C2837 C2836 1.366 . S
C2837 C2841 1.385 . S
C2838 H2819 0.951 . S
C2838 C2836 1.388 . S
C2838 C2839 1.366 . S
C2839 C2838 1.366 . S
C2839 C2840 1.414 . S
C2839 C2842 1.499 . S
C2840 H2820 0.950 . S
C2840 C2839 1.414 . S
C2840 C2841 1.374 . S
C2841 H2821 0.950 . S
C2841 C2837 1.385 . S
C2841 C2840 1.374 . S
C2842 C2839 1.499 . S
C2842 C2843 1.373 . S
C2842 C2844 1.389 . S
C2843 H2822 0.950 . S
C2843 C2842 1.373 . S
C2843 C2859 1.377 . S
C2844 C2842 1.389 . S
C2844 C2845 1.524 . S
C2844 C2858 1.377 . S
C2845 C2844 1.524 . S
C2845 C2846 1.397 . S
C2845 C2850 1.363 . S
C2846 H2823 0.950 . S
C2846 C2845 1.397 . S
C2846 C2847 1.334 . S
C2847 H2824 0.950 . S
C2847 C2846 1.334 . S
C2847 C2848 1.287 . S
C2848 C2847 1.287 . S
C2848 C2849 1.524 . S
C2848 H2867 0.913 . S
C2849 H2825 0.950 . S
C2849 C2848 1.524 . S
C2849 C2850 1.415 . S
C2850 H2826 0.950 . S
C2850 C2845 1.363 . S
C2850 C2849 1.415 . S
C2851 H2827 0.951 . S
C2851 C2852 1.366 . S
C2851 C2853 1.388 . S
C2852 C2851 1.366 . S
C2852 C2856 1.385 . S
C2853 H2828 0.951 . S
C2853 C2851 1.388 . S
C2853 C2854 1.366 . S
C2854 C2853 1.366 . S
C2854 C2855 1.414 . S
C2854 C2857 1.499 . S
C2855 H2829 0.950 . S
C2855 C2854 1.414 . S
C2855 C2856 1.374 . S
C2856 H2830 0.950 . S
C2856 C2852 1.385 . S
C2856 C2855 1.374 . S
C2857 C2854 1.499 . S
C2857 C2858 1.373 . S
C2857 C2859 1.389 . S
C2858 H2831 0.950 . S
C2858 C2844 1.377 . S
C2858 C2857 1.373 . S
C2859 C2843 1.377 . S
C2859 C2857 1.389 . S
C2859 C2860 1.524 . S
C2860 C2859 1.524 . S
C2860 C2861 1.397 . S
C2860 C2865 1.363 . S
C2861 H2832 0.950 . S
C2861 C2860 1.397 . S
C2861 C2862 1.334 . S
C2862 H2833 0.950 . S
C2862 C2861 1.334 . S
C2862 C2863 1.287 . S
C2863 C2862 1.287 . S
C2863 C2864 1.524 . S
C2863 H2866 0.999 . S
C2864 H2834 0.950 . S
C2864 C2863 1.524 . S
C2864 C2865 1.415 . S
C2865 H2835 0.950 . S
C2865 C2860 1.363 . S
C2865 C2864 1.415 . S
H2866 C2863 0.999 . S
H2867 C2848 0.913 . S
H2868 C2886 0.951 . S
H2869 C2888 0.951 . S
H2870 C2890 0.950 . S
H2871 C2891 0.950 . S
H2872 C2893 0.950 . S
H2873 C2896 0.950 . S
H2874 C2897 0.950 . S
H2875 C2899 0.950 . S
H2876 C2900 0.950 . S
H2877 C2901 0.951 . S
H2878 C2903 0.951 . S
H2879 C2905 0.950 . S
H2880 C2906 0.950 . S
H2881 C2908 0.950 . S
H2882 C2911 0.950 . S
H2883 C2912 0.950 . S
H2884 C2914 0.950 . S
H2885 C2915 0.950 . S
C2886 H2868 0.951 . S
C2886 C2887 1.366 . S
C2886 C2888 1.388 . S
C2887 C2886 1.366 . S
C2887 C2891 1.385 . S
C2888 H2869 0.951 . S
C2888 C2886 1.388 . S
C2888 C2889 1.366 . S
C2889 C2888 1.366 . S
C2889 C2890 1.414 . S
C2889 C2892 1.499 . S
C2890 H2870 0.950 . S
C2890 C2889 1.414 . S
C2890 C2891 1.374 . S
C2891 H2871 0.950 . S
C2891 C2887 1.385 . S
C2891 C2890 1.374 . S
C2892 C2889 1.499 . S
C2892 C2893 1.373 . S
C2892 C2894 1.389 . S
C2893 H2872 0.950 . S
C2893 C2892 1.373 . S
C2893 C2909 1.377 . S
C2894 C2892 1.389 . S
C2894 C2895 1.524 . S
C2894 C2908 1.377 . S
C2895 C2894 1.524 . S
C2895 C2896 1.397 . S
C2895 C2900 1.363 . S
C2896 H2873 0.950 . S
C2896 C2895 1.397 . S
C2896 C2897 1.334 . S
C2897 H2874 0.950 . S
C2897 C2896 1.334 . S
C2897 C2898 1.287 . S
C2898 C2897 1.287 . S
C2898 C2899 1.524 . S
C2898 H2917 0.913 . S
C2899 H2875 0.950 . S
C2899 C2898 1.524 . S
C2899 C2900 1.415 . S
C2900 H2876 0.950 . S
C2900 C2895 1.363 . S
C2900 C2899 1.415 . S
C2901 H2877 0.951 . S
C2901 C2902 1.366 . S
C2901 C2903 1.388 . S
C2902 C2901 1.366 . S
C2902 C2906 1.385 . S
C2903 H2878 0.951 . S
C2903 C2901 1.388 . S
C2903 C2904 1.366 . S
C2904 C2903 1.366 . S
C2904 C2905 1.414 . S
C2904 C2907 1.499 . S
C2905 H2879 0.950 . S
C2905 C2904 1.414 . S
C2905 C2906 1.374 . S
C2906 H2880 0.950 . S
C2906 C2902 1.385 . S
C2906 C2905 1.374 . S
C2907 C2904 1.499 . S
C2907 C2908 1.373 . S
C2907 C2909 1.389 . S
C2908 H2881 0.950 . S
C2908 C2894 1.377 . S
C2908 C2907 1.373 . S
C2909 C2893 1.377 . S
C2909 C2907 1.389 . S
C2909 C2910 1.524 . S
C2910 C2909 1.524 . S
C2910 C2911 1.397 . S
C2910 C2915 1.363 . S
C2911 H2882 0.950 . S
C2911 C2910 1.397 . S
C2911 C2912 1.334 . S
C2912 H2883 0.950 . S
C2912 C2911 1.334 . S
C2912 C2913 1.287 . S
C2913 C2912 1.287 . S
C2913 C2914 1.524 . S
C2913 H2916 0.999 . S
C2914 H2884 0.950 . S
C2914 C2913 1.524 . S
C2914 C2915 1.415 . S
C2915 H2885 0.950 . S
C2915 C2910 1.363 . S
C2915 C2914 1.415 . S
H2916 C2913 0.999 . S
H2917 C2898 0.913 . S
H2918 C2936 0.951 . S
H2919 C2938 0.951 . S
H2920 C2940 0.950 . S
H2921 C2941 0.950 . S
H2922 C2943 0.950 . S
H2923 C2946 0.950 . S
H2924 C2947 0.950 . S
H2925 C2949 0.950 . S
H2926 C2950 0.950 . S
H2927 C2951 0.951 . S
H2928 C2953 0.951 . S
H2929 C2955 0.950 . S
H2930 C2956 0.950 . S
H2931 C2958 0.950 . S
H2932 C2961 0.950 . S
H2933 C2962 0.950 . S
H2934 C2964 0.950 . S
H2935 C2965 0.950 . S
C2936 H2918 0.951 . S
C2936 C2937 1.366 . S
C2936 C2938 1.388 . S
C2937 C2936 1.366 . S
C2937 C2941 1.385 . S
C2938 H2919 0.951 . S
C2938 C2936 1.388 . S
C2938 C2939 1.366 . S
C2939 C2938 1.366 . S
C2939 C2940 1.414 . S
C2939 C2942 1.499 . S
C2940 H2920 0.950 . S
C2940 C2939 1.414 . S
C2940 C2941 1.374 . S
C2941 H2921 0.950 . S
C2941 C2937 1.385 . S
C2941 C2940 1.374 . S
C2942 C2939 1.499 . S
C2942 C2943 1.373 . S
C2942 C2944 1.389 . S
C2943 H2922 0.950 . S
C2943 C2942 1.373 . S
C2943 C2959 1.377 . S
C2944 C2942 1.389 . S
C2944 C2945 1.524 . S
C2944 C2958 1.377 . S
C2945 C2944 1.524 . S
C2945 C2946 1.397 . S
C2945 C2950 1.363 . S
C2946 H2923 0.950 . S
C2946 C2945 1.397 . S
C2946 C2947 1.334 . S
C2947 H2924 0.950 . S
C2947 C2946 1.334 . S
C2947 C2948 1.287 . S
C2948 C2947 1.287 . S
C2948 C2949 1.524 . S
C2948 H2967 0.913 . S
C2949 H2925 0.950 . S
C2949 C2948 1.524 . S
C2949 C2950 1.415 . S
C2950 H2926 0.950 . S
C2950 C2945 1.363 . S
C2950 C2949 1.415 . S
C2951 H2927 0.951 . S
C2951 C2952 1.366 . S
C2951 C2953 1.388 . S
C2952 C2951 1.366 . S
C2952 C2956 1.385 . S
C2953 H2928 0.951 . S
C2953 C2951 1.388 . S
C2953 C2954 1.366 . S
C2954 C2953 1.366 . S
C2954 C2955 1.414 . S
C2954 C2957 1.499 . S
C2955 H2929 0.950 . S
C2955 C2954 1.414 . S
C2955 C2956 1.374 . S
C2956 H2930 0.950 . S
C2956 C2952 1.385 . S
C2956 C2955 1.374 . S
C2957 C2954 1.499 . S
C2957 C2958 1.373 . S
C2957 C2959 1.389 . S
C2958 H2931 0.950 . S
C2958 C2944 1.377 . S
C2958 C2957 1.373 . S
C2959 C2943 1.377 . S
C2959 C2957 1.389 . S
C2959 C2960 1.524 . S
C2960 C2959 1.524 . S
C2960 C2961 1.397 . S
C2960 C2965 1.363 . S
C2961 H2932 0.950 . S
C2961 C2960 1.397 . S
C2961 C2962 1.334 . S
C2962 H2933 0.950 . S
C2962 C2961 1.334 . S
C2962 C2963 1.287 . S
C2963 C2962 1.287 . S
C2963 C2964 1.524 . S
C2963 H2966 0.999 . S
C2964 H2934 0.950 . S
C2964 C2963 1.524 . S
C2964 C2965 1.415 . S
C2965 H2935 0.950 . S
C2965 C2960 1.363 . S
C2965 C2964 1.415 . S
H2966 C2963 0.999 . S
H2967 C2948 0.913 . S
H2968 C2986 0.951 . S
H2969 C2988 0.951 . S
H2970 C2990 0.950 . S
H2971 C2991 0.950 . S
H2972 C2993 0.950 . S
H2973 C2996 0.950 . S
H2974 C2997 0.950 . S
H2975 C2999 0.950 . S
H2976 C3000 0.950 . S
H2977 C3001 0.951 . S
H2978 C3003 0.951 . S
H2979 C3005 0.950 . S
H2980 C3006 0.950 . S
H2981 C3008 0.950 . S
H2982 C3011 0.950 . S
H2983 C3012 0.950 . S
H2984 C3014 0.950 . S
H2985 C3015 0.950 . S
C2986 H2968 0.951 . S
C2986 C2987 1.366 . S
C2986 C2988 1.388 . S
C2987 C2986 1.366 . S
C2987 C2991 1.385 . S
C2988 H2969 0.951 . S
C2988 C2986 1.388 . S
C2988 C2989 1.366 . S
C2989 C2988 1.366 . S
C2989 C2990 1.414 . S
C2989 C2992 1.499 . S
C2990 H2970 0.950 . S
C2990 C2989 1.414 . S
C2990 C2991 1.374 . S
C2991 H2971 0.950 . S
C2991 C2987 1.385 . S
C2991 C2990 1.374 . S
C2992 C2989 1.499 . S
C2992 C2993 1.373 . S
C2992 C2994 1.389 . S
C2993 H2972 0.950 . S
C2993 C2992 1.373 . S
C2993 C3009 1.377 . S
C2994 C2992 1.389 . S
C2994 C2995 1.524 . S
C2994 C3008 1.377 . S
C2995 C2994 1.524 . S
C2995 C2996 1.397 . S
C2995 C3000 1.363 . S
C2996 H2973 0.950 . S
C2996 C2995 1.397 . S
C2996 C2997 1.334 . S
C2997 H2974 0.950 . S
C2997 C2996 1.334 . S
C2997 C2998 1.287 . S
C2998 C2997 1.287 . S
C2998 C2999 1.524 . S
C2998 H3017 0.913 . S
C2999 H2975 0.950 . S
C2999 C2998 1.524 . S
C2999 C3000 1.415 . S
C3000 H2976 0.950 . S
C3000 C2995 1.363 . S
C3000 C2999 1.415 . S
C3001 H2977 0.951 . S
C3001 C3002 1.366 . S
C3001 C3003 1.388 . S
C3002 C3001 1.366 . S
C3002 C3006 1.385 . S
C3003 H2978 0.951 . S
C3003 C3001 1.388 . S
C3003 C3004 1.366 . S
C3004 C3003 1.366 . S
C3004 C3005 1.414 . S
C3004 C3007 1.499 . S
C3005 H2979 0.950 . S
C3005 C3004 1.414 . S
C3005 C3006 1.374 . S
C3006 H2980 0.950 . S
C3006 C3002 1.385 . S
C3006 C3005 1.374 . S
C3007 C3004 1.499 . S
C3007 C3008 1.373 . S
C3007 C3009 1.389 . S
C3008 H2981 0.950 . S
C3008 C2994 1.377 . S
C3008 C3007 1.373 . S
C3009 C2993 1.377 . S
C3009 C3007 1.389 . S
C3009 C3010 1.524 . S
C3010 C3009 1.524 . S
C3010 C3011 1.397 . S
C3010 C3015 1.363 . S
C3011 H2982 0.950 . S
C3011 C3010 1.397 . S
C3011 C3012 1.334 . S
C3012 H2983 0.950 . S
C3012 C3011 1.334 . S
C3012 C3013 1.287 . S
C3013 C3012 1.287 . S
C3013 C3014 1.524 . S
C3013 H3016 0.999 . S
C3014 H2984 0.950 . S
C3014 C3013 1.524 . S
C3014 C3015 1.415 . S
C3015 H2985 0.950 . S
C3015 C3010 1.363 . S
C3015 C3014 1.415 . S
H3016 C3013 0.999 . S
H3017 C2998 0.913 . S
H3018 C3036 0.951 . S
H3019 C3038 0.951 . S
H3020 C3040 0.950 . S
H3021 C3041 0.950 . S
H3022 C3043 0.950 . S
H3023 C3046 0.950 . S
H3024 C3047 0.950 . S
H3025 C3049 0.950 . S
H3026 C3050 0.950 . S
H3027 C3051 0.951 . S
H3028 C3053 0.951 . S
H3029 C3055 0.950 . S
H3030 C3056 0.950 . S
H3031 C3058 0.950 . S
H3032 C3061 0.950 . S
H3033 C3062 0.950 . S
H3034 C3064 0.950 . S
H3035 C3065 0.950 . S
C3036 H3018 0.951 . S
C3036 C3037 1.366 . S
C3036 C3038 1.388 . S
C3037 C3036 1.366 . S
C3037 C3041 1.385 . S
C3038 H3019 0.951 . S
C3038 C3036 1.388 . S
C3038 C3039 1.366 . S
C3039 C3038 1.366 . S
C3039 C3040 1.414 . S
C3039 C3042 1.499 . S
C3040 H3020 0.950 . S
C3040 C3039 1.414 . S
C3040 C3041 1.374 . S
C3041 H3021 0.950 . S
C3041 C3037 1.385 . S
C3041 C3040 1.374 . S
C3042 C3039 1.499 . S
C3042 C3043 1.373 . S
C3042 C3044 1.389 . S
C3043 H3022 0.950 . S
C3043 C3042 1.373 . S
C3043 C3059 1.377 . S
C3044 C3042 1.389 . S
C3044 C3045 1.524 . S
C3044 C3058 1.377 . S
C3045 C3044 1.524 . S
C3045 C3046 1.397 . S
C3045 C3050 1.363 . S
C3046 H3023 0.950 . S
C3046 C3045 1.397 . S
C3046 C3047 1.334 . S
C3047 H3024 0.950 . S
C3047 C3046 1.334 . S
C3047 C3048 1.287 . S
C3048 C3047 1.287 . S
C3048 C3049 1.524 . S
C3048 H3067 0.913 . S
C3049 H3025 0.950 . S
C3049 C3048 1.524 . S
C3049 C3050 1.415 . S
C3050 H3026 0.950 . S
C3050 C3045 1.363 . S
C3050 C3049 1.415 . S
C3051 H3027 0.951 . S
C3051 C3052 1.366 . S
C3051 C3053 1.388 . S
C3052 C3051 1.366 . S
C3052 C3056 1.385 . S
C3053 H3028 0.951 . S
C3053 C3051 1.388 . S
C3053 C3054 1.366 . S
C3054 C3053 1.366 . S
C3054 C3055 1.414 . S
C3054 C3057 1.499 . S
C3055 H3029 0.950 . S
C3055 C3054 1.414 . S
C3055 C3056 1.374 . S
C3056 H3030 0.950 . S
C3056 C3052 1.385 . S
C3056 C3055 1.374 . S
C3057 C3054 1.499 . S
C3057 C3058 1.373 . S
C3057 C3059 1.389 . S
C3058 H3031 0.950 . S
C3058 C3044 1.377 . S
C3058 C3057 1.373 . S
C3059 C3043 1.377 . S
C3059 C3057 1.389 . S
C3059 C3060 1.524 . S
C3060 C3059 1.524 . S
C3060 C3061 1.397 . S
C3060 C3065 1.363 . S
C3061 H3032 0.950 . S
C3061 C3060 1.397 . S
C3061 C3062 1.334 . S
C3062 H3033 0.950 . S
C3062 C3061 1.334 . S
C3062 C3063 1.287 . S
C3063 C3062 1.287 . S
C3063 C3064 1.524 . S
C3063 H3066 0.999 . S
C3064 H3034 0.950 . S
C3064 C3063 1.524 . S
C3064 C3065 1.415 . S
C3065 H3035 0.950 . S
C3065 C3060 1.363 . S
C3065 C3064 1.415 . S
H3066 C3063 0.999 . S
H3067 C3048 0.913 . S
H3068 C3086 0.951 . S
H3069 C3088 0.951 . S
H3070 C3090 0.950 . S
H3071 C3091 0.950 . S
H3072 C3093 0.950 . S
H3073 C3096 0.950 . S
H3074 C3097 0.950 . S
H3075 C3099 0.950 . S
H3076 C3100 0.950 . S
H3077 C3101 0.951 . S
H3078 C3103 0.951 . S
H3079 C3105 0.950 . S
H3080 C3106 0.950 . S
H3081 C3108 0.950 . S
H3082 C3111 0.950 . S
H3083 C3112 0.950 . S
H3084 C3114 0.950 . S
H3085 C3115 0.950 . S
C3086 H3068 0.951 . S
C3086 C3087 1.366 . S
C3086 C3088 1.388 . S
C3087 C3086 1.366 . S
C3087 C3091 1.385 . S
C3088 H3069 0.951 . S
C3088 C3086 1.388 . S
C3088 C3089 1.366 . S
C3089 C3088 1.366 . S
C3089 C3090 1.414 . S
C3089 C3092 1.499 . S
C3090 H3070 0.950 . S
C3090 C3089 1.414 . S
C3090 C3091 1.374 . S
C3091 H3071 0.950 . S
C3091 C3087 1.385 . S
C3091 C3090 1.374 . S
C3092 C3089 1.499 . S
C3092 C3093 1.373 . S
C3092 C3094 1.389 . S
C3093 H3072 0.950 . S
C3093 C3092 1.373 . S
C3093 C3109 1.377 . S
C3094 C3092 1.389 . S
C3094 C3095 1.524 . S
C3094 C3108 1.377 . S
C3095 C3094 1.524 . S
C3095 C3096 1.397 . S
C3095 C3100 1.363 . S
C3096 H3073 0.950 . S
C3096 C3095 1.397 . S
C3096 C3097 1.334 . S
C3097 H3074 0.950 . S
C3097 C3096 1.334 . S
C3097 C3098 1.287 . S
C3098 C3097 1.287 . S
C3098 C3099 1.524 . S
C3098 H3117 0.913 . S
C3099 H3075 0.950 . S
C3099 C3098 1.524 . S
C3099 C3100 1.415 . S
C3100 H3076 0.950 . S
C3100 C3095 1.363 . S
C3100 C3099 1.415 . S
C3101 H3077 0.951 . S
C3101 C3102 1.366 . S
C3101 C3103 1.388 . S
C3102 C3101 1.366 . S
C3102 C3106 1.385 . S
C3103 H3078 0.951 . S
C3103 C3101 1.388 . S
C3103 C3104 1.366 . S
C3104 C3103 1.366 . S
C3104 C3105 1.414 . S
C3104 C3107 1.499 . S
C3105 H3079 0.950 . S
C3105 C3104 1.414 . S
C3105 C3106 1.374 . S
C3106 H3080 0.950 . S
C3106 C3102 1.385 . S
C3106 C3105 1.374 . S
C3107 C3104 1.499 . S
C3107 C3108 1.373 . S
C3107 C3109 1.389 . S
C3108 H3081 0.950 . S
C3108 C3094 1.377 . S
C3108 C3107 1.373 . S
C3109 C3093 1.377 . S
C3109 C3107 1.389 . S
C3109 C3110 1.524 . S
C3110 C3109 1.524 . S
C3110 C3111 1.397 . S
C3110 C3115 1.363 . S
C3111 H3082 0.950 . S
C3111 C3110 1.397 . S
C3111 C3112 1.334 . S
C3112 H3083 0.950 . S
C3112 C3111 1.334 . S
C3112 C3113 1.287 . S
C3113 C3112 1.287 . S
C3113 C3114 1.524 . S
C3113 H3116 0.999 . S
C3114 H3084 0.950 . S
C3114 C3113 1.524 . S
C3114 C3115 1.415 . S
C3115 H3085 0.950 . S
C3115 C3110 1.363 . S
C3115 C3114 1.415 . S
H3116 C3113 0.999 . S
H3117 C3098 0.913 . S
H3118 C3136 0.951 . S
H3119 C3138 0.951 . S
H3120 C3140 0.950 . S
H3121 C3141 0.950 . S
H3122 C3143 0.950 . S
H3123 C3146 0.950 . S
H3124 C3147 0.950 . S
H3125 C3149 0.950 . S
H3126 C3150 0.950 . S
H3127 C3151 0.951 . S
H3128 C3153 0.951 . S
H3129 C3155 0.950 . S
H3130 C3156 0.950 . S
H3131 C3158 0.950 . S
H3132 C3161 0.950 . S
H3133 C3162 0.950 . S
H3134 C3164 0.950 . S
H3135 C3165 0.950 . S
C3136 H3118 0.951 . S
C3136 C3137 1.366 . S
C3136 C3138 1.388 . S
C3137 C3136 1.366 . S
C3137 C3141 1.385 . S
C3138 H3119 0.951 . S
C3138 C3136 1.388 . S
C3138 C3139 1.366 . S
C3139 C3138 1.366 . S
C3139 C3140 1.414 . S
C3139 C3142 1.499 . S
C3140 H3120 0.950 . S
C3140 C3139 1.414 . S
C3140 C3141 1.374 . S
C3141 H3121 0.950 . S
C3141 C3137 1.385 . S
C3141 C3140 1.374 . S
C3142 C3139 1.499 . S
C3142 C3143 1.373 . S
C3142 C3144 1.389 . S
C3143 H3122 0.950 . S
C3143 C3142 1.373 . S
C3143 C3159 1.377 . S
C3144 C3142 1.389 . S
C3144 C3145 1.524 . S
C3144 C3158 1.377 . S
C3145 C3144 1.524 . S
C3145 C3146 1.397 . S
C3145 C3150 1.363 . S
C3146 H3123 0.950 . S
C3146 C3145 1.397 . S
C3146 C3147 1.334 . S
C3147 H3124 0.950 . S
C3147 C3146 1.334 . S
C3147 C3148 1.287 . S
C3148 C3147 1.287 . S
C3148 C3149 1.524 . S
C3148 H3167 0.913 . S
C3149 H3125 0.950 . S
C3149 C3148 1.524 . S
C3149 C3150 1.415 . S
C3150 H3126 0.950 . S
C3150 C3145 1.363 . S
C3150 C3149 1.415 . S
C3151 H3127 0.951 . S
C3151 C3152 1.366 . S
C3151 C3153 1.388 . S
C3152 C3151 1.366 . S
C3152 C3156 1.385 . S
C3153 H3128 0.951 . S
C3153 C3151 1.388 . S
C3153 C3154 1.366 . S
C3154 C3153 1.366 . S
C3154 C3155 1.414 . S
C3154 C3157 1.499 . S
C3155 H3129 0.950 . S
C3155 C3154 1.414 . S
C3155 C3156 1.374 . S
C3156 H3130 0.950 . S
C3156 C3152 1.385 . S
C3156 C3155 1.374 . S
C3157 C3154 1.499 . S
C3157 C3158 1.373 . S
C3157 C3159 1.389 . S
C3158 H3131 0.950 . S
C3158 C3144 1.377 . S
C3158 C3157 1.373 . S
C3159 C3143 1.377 . S
C3159 C3157 1.389 . S
C3159 C3160 1.524 . S
C3160 C3159 1.524 . S
C3160 C3161 1.397 . S
C3160 C3165 1.363 . S
C3161 H3132 0.950 . S
C3161 C3160 1.397 . S
C3161 C3162 1.334 . S
C3162 H3133 0.950 . S
C3162 C3161 1.334 . S
C3162 C3163 1.287 . S
C3163 C3162 1.287 . S
C3163 C3164 1.524 . S
C3163 H3166 0.999 . S
C3164 H3134 0.950 . S
C3164 C3163 1.524 . S
C3164 C3165 1.415 . S
C3165 H3135 0.950 . S
C3165 C3160 1.363 . S
C3165 C3164 1.415 . S
H3166 C3163 0.999 . S
H3167 C3148 0.913 . S
H3168 C3186 0.951 . S
H3169 C3188 0.951 . S
H3170 C3190 0.950 . S
H3171 C3191 0.950 . S
H3172 C3193 0.950 . S
H3173 C3196 0.950 . S
H3174 C3197 0.950 . S
H3175 C3199 0.950 . S
H3176 C3200 0.950 . S
H3177 C3201 0.951 . S
H3178 C3203 0.951 . S
H3179 C3205 0.950 . S
H3180 C3206 0.950 . S
H3181 C3208 0.950 . S
H3182 C3211 0.950 . S
H3183 C3212 0.950 . S
H3184 C3214 0.950 . S
H3185 C3215 0.950 . S
C3186 H3168 0.951 . S
C3186 C3187 1.366 . S
C3186 C3188 1.388 . S
C3187 C3186 1.366 . S
C3187 C3191 1.385 . S
C3188 H3169 0.951 . S
C3188 C3186 1.388 . S
C3188 C3189 1.366 . S
C3189 C3188 1.366 . S
C3189 C3190 1.414 . S
C3189 C3192 1.499 . S
C3190 H3170 0.950 . S
C3190 C3189 1.414 . S
C3190 C3191 1.374 . S
C3191 H3171 0.950 . S
C3191 C3187 1.385 . S
C3191 C3190 1.374 . S
C3192 C3189 1.499 . S
C3192 C3193 1.373 . S
C3192 C3194 1.389 . S
C3193 H3172 0.950 . S
C3193 C3192 1.373 . S
C3193 C3209 1.377 . S
C3194 C3192 1.389 . S
C3194 C3195 1.524 . S
C3194 C3208 1.377 . S
C3195 C3194 1.524 . S
C3195 C3196 1.397 . S
C3195 C3200 1.363 . S
C3196 H3173 0.950 . S
C3196 C3195 1.397 . S
C3196 C3197 1.334 . S
C3197 H3174 0.950 . S
C3197 C3196 1.334 . S
C3197 C3198 1.287 . S
C3198 C3197 1.287 . S
C3198 C3199 1.524 . S
C3198 H3217 0.913 . S
C3199 H3175 0.950 . S
C3199 C3198 1.524 . S
C3199 C3200 1.415 . S
C3200 H3176 0.950 . S
C3200 C3195 1.363 . S
C3200 C3199 1.415 . S
C3201 H3177 0.951 . S
C3201 C3202 1.366 . S
C3201 C3203 1.388 . S
C3202 C3201 1.366 . S
C3202 C3206 1.385 . S
C3203 H3178 0.951 . S
C3203 C3201 1.388 . S
C3203 C3204 1.366 . S
C3204 C3203 1.366 . S
C3204 C3205 1.414 . S
C3204 C3207 1.499 . S
C3205 H3179 0.950 . S
C3205 C3204 1.414 . S
C3205 C3206 1.374 . S
C3206 H3180 0.950 . S
C3206 C3202 1.385 . S
C3206 C3205 1.374 . S
C3207 C3204 1.499 . S
C3207 C3208 1.373 . S
C3207 C3209 1.389 . S
C3208 H3181 0.950 . S
C3208 C3194 1.377 . S
C3208 C3207 1.373 . S
C3209 C3193 1.377 . S
C3209 C3207 1.389 . S
C3209 C3210 1.524 . S
C3210 C3209 1.524 . S
C3210 C3211 1.397 . S
C3210 C3215 1.363 . S
C3211 H3182 0.950 . S
C3211 C3210 1.397 . S
C3211 C3212 1.334 . S
C3212 H3183 0.950 . S
C3212 C3211 1.334 . S
C3212 C3213 1.287 . S
C3213 C3212 1.287 . S
C3213 C3214 1.524 . S
C3213 H3216 0.999 . S
C3214 H3184 0.950 . S
C3214 C3213 1.524 . S
C3214 C3215 1.415 . S
C3215 H3185 0.950 . S
C3215 C3210 1.363 . S
C3215 C3214 1.415 . S
H3216 C3213 0.999 . S
H3217 C3198 0.913 . S
H3218 C3236 0.951 . S
H3219 C3238 0.951 . S
H3220 C3240 0.950 . S
H3221 C3241 0.950 . S
H3222 C3243 0.950 . S
H3223 C3246 0.950 . S
H3224 C3247 0.950 . S
H3225 C3249 0.950 . S
H3226 C3250 0.950 . S
H3227 C3251 0.951 . S
H3228 C3253 0.951 . S
H3229 C3255 0.950 . S
H3230 C3256 0.950 . S
H3231 C3258 0.950 . S
H3232 C3261 0.950 . S
H3233 C3262 0.950 . S
H3234 C3264 0.950 . S
H3235 C3265 0.950 . S
C3236 H3218 0.951 . S
C3236 C3237 1.366 . S
C3236 C3238 1.388 . S
C3237 C3236 1.366 . S
C3237 C3241 1.385 . S
C3238 H3219 0.951 . S
C3238 C3236 1.388 . S
C3238 C3239 1.366 . S
C3239 C3238 1.366 . S
C3239 C3240 1.414 . S
C3239 C3242 1.499 . S
C3240 H3220 0.950 . S
C3240 C3239 1.414 . S
C3240 C3241 1.374 . S
C3241 H3221 0.950 . S
C3241 C3237 1.385 . S
C3241 C3240 1.374 . S
C3242 C3239 1.499 . S
C3242 C3243 1.373 . S
C3242 C3244 1.389 . S
C3243 H3222 0.950 . S
C3243 C3242 1.373 . S
C3243 C3259 1.377 . S
C3244 C3242 1.389 . S
C3244 C3245 1.524 . S
C3244 C3258 1.377 . S
C3245 C3244 1.524 . S
C3245 C3246 1.397 . S
C3245 C3250 1.363 . S
C3246 H3223 0.950 . S
C3246 C3245 1.397 . S
C3246 C3247 1.334 . S
C3247 H3224 0.950 . S
C3247 C3246 1.334 . S
C3247 C3248 1.287 . S
C3248 C3247 1.287 . S
C3248 C3249 1.524 . S
C3248 H3267 0.913 . S
C3249 H3225 0.950 . S
C3249 C3248 1.524 . S
C3249 C3250 1.415 . S
C3250 H3226 0.950 . S
C3250 C3245 1.363 . S
C3250 C3249 1.415 . S
C3251 H3227 0.951 . S
C3251 C3252 1.366 . S
C3251 C3253 1.388 . S
C3252 C3251 1.366 . S
C3252 C3256 1.385 . S
C3253 H3228 0.951 . S
C3253 C3251 1.388 . S
C3253 C3254 1.366 . S
C3254 C3253 1.366 . S
C3254 C3255 1.414 . S
C3254 C3257 1.499 . S
C3255 H3229 0.950 . S
C3255 C3254 1.414 . S
C3255 C3256 1.374 . S
C3256 H3230 0.950 . S
C3256 C3252 1.385 . S
C3256 C3255 1.374 . S
C3257 C3254 1.499 . S
C3257 C3258 1.373 . S
C3257 C3259 1.389 . S
C3258 H3231 0.950 . S
C3258 C3244 1.377 . S
C3258 C3257 1.373 . S
C3259 C3243 1.377 . S
C3259 C3257 1.389 . S
C3259 C3260 1.524 . S
C3260 C3259 1.524 . S
C3260 C3261 1.397 . S
C3260 C3265 1.363 . S
C3261 H3232 0.950 . S
C3261 C3260 1.397 . S
C3261 C3262 1.334 . S
C3262 H3233 0.950 . S
C3262 C3261 1.334 . S
C3262 C3263 1.287 . S
C3263 C3262 1.287 . S
C3263 C3264 1.524 . S
C3263 H3266 0.999 . S
C3264 H3234 0.950 . S
C3264 C3263 1.524 . S
C3264 C3265 1.415 . S
C3265 H3235 0.950 . S
C3265 C3260 1.363 . S
C3265 C3264 1.415 . S
H3266 C3263 0.999 . S
H3267 C3248 0.913 . S
H3268 C3286 0.951 . S
H3269 C3288 0.951 . S
H3270 C3290 0.950 . S
H3271 C3291 0.950 . S
H3272 C3293 0.950 . S
H3273 C3296 0.950 . S
H3274 C3297 0.950 . S
H3275 C3299 0.950 . S
H3276 C3300 0.950 . S
H3277 C3301 0.951 . S
H3278 C3303 0.951 . S
H3279 C3305 0.950 . S
H3280 C3306 0.950 . S
H3281 C3308 0.950 . S
H3282 C3311 0.950 . S
H3283 C3312 0.950 . S
H3284 C3314 0.950 . S
H3285 C3315 0.950 . S
C3286 H3268 0.951 . S
C3286 C3287 1.366 . S
C3286 C3288 1.388 . S
C3287 C3286 1.366 . S
C3287 C3291 1.385 . S
C3288 H3269 0.951 . S
C3288 C3286 1.388 . S
C3288 C3289 1.366 . S
C3289 C3288 1.366 . S
C3289 C3290 1.414 . S
C3289 C3292 1.499 . S
C3290 H3270 0.950 . S
C3290 C3289 1.414 . S
C3290 C3291 1.374 . S
C3291 H3271 0.950 . S
C3291 C3287 1.385 . S
C3291 C3290 1.374 . S
C3292 C3289 1.499 . S
C3292 C3293 1.373 . S
C3292 C3294 1.389 . S
C3293 H3272 0.950 . S
C3293 C3292 1.373 . S
C3293 C3309 1.377 . S
C3294 C3292 1.389 . S
C3294 C3295 1.524 . S
C3294 C3308 1.377 . S
C3295 C3294 1.524 . S
C3295 C3296 1.397 . S
C3295 C3300 1.363 . S
C3296 H3273 0.950 . S
C3296 C3295 1.397 . S
C3296 C3297 1.334 . S
C3297 H3274 0.950 . S
C3297 C3296 1.334 . S
C3297 C3298 1.287 . S
C3298 C3297 1.287 . S
C3298 C3299 1.524 . S
C3298 H3317 0.913 . S
C3299 H3275 0.950 . S
C3299 C3298 1.524 . S
C3299 C3300 1.415 . S
C3300 H3276 0.950 . S
C3300 C3295 1.363 . S
C3300 C3299 1.415 . S
C3301 H3277 0.951 . S
C3301 C3302 1.366 . S
C3301 C3303 1.388 . S
C3302 C3301 1.366 . S
C3302 C3306 1.385 . S
C3303 H3278 0.951 . S
C3303 C3301 1.388 . S
C3303 C3304 1.366 . S
C3304 C3303 1.366 . S
C3304 C3305 1.414 . S
C3304 C3307 1.499 . S
C3305 H3279 0.950 . S
C3305 C3304 1.414 . S
C3305 C3306 1.374 . S
C3306 H3280 0.950 . S
C3306 C3302 1.385 . S
C3306 C3305 1.374 . S
C3307 C3304 1.499 . S
C3307 C3308 1.373 . S
C3307 C3309 1.389 . S
C3308 H3281 0.950 . S
C3308 C3294 1.377 . S
C3308 C3307 1.373 . S
C3309 C3293 1.377 . S
C3309 C3307 1.389 . S
C3309 C3310 1.524 . S
C3310 C3309 1.524 . S
C3310 C3311 1.397 . S
C3310 C3315 1.363 . S
C3311 H3282 0.950 . S
C3311 C3310 1.397 . S
C3311 C3312 1.334 . S
C3312 H3283 0.950 . S
C3312 C3311 1.334 . S
C3312 C3313 1.287 . S
C3313 C3312 1.287 . S
C3313 C3314 1.524 . S
C3313 H3316 0.999 . S
C3314 H3284 0.950 . S
C3314 C3313 1.524 . S
C3314 C3315 1.415 . S
C3315 H3285 0.950 . S
C3315 C3310 1.363 . S
C3315 C3314 1.415 . S
H3316 C3313 0.999 . S
H3317 C3298 0.913 . S
H3318 C3336 0.951 . S
H3319 C3338 0.951 . S
H3320 C3340 0.950 . S
H3321 C3341 0.950 . S
H3322 C3343 0.950 . S
H3323 C3346 0.950 . S
H3324 C3347 0.950 . S
H3325 C3349 0.950 . S
H3326 C3350 0.950 . S
H3327 C3351 0.951 . S
H3328 C3353 0.951 . S
H3329 C3355 0.950 . S
H3330 C3356 0.950 . S
H3331 C3358 0.950 . S
H3332 C3361 0.950 . S
H3333 C3362 0.950 . S
H3334 C3364 0.950 . S
H3335 C3365 0.950 . S
C3336 H3318 0.951 . S
C3336 C3337 1.366 . S
C3336 C3338 1.388 . S
C3337 C3336 1.366 . S
C3337 C3341 1.385 . S
C3338 H3319 0.951 . S
C3338 C3336 1.388 . S
C3338 C3339 1.366 . S
C3339 C3338 1.366 . S
C3339 C3340 1.414 . S
C3339 C3342 1.499 . S
C3340 H3320 0.950 . S
C3340 C3339 1.414 . S
C3340 C3341 1.374 . S
C3341 H3321 0.950 . S
C3341 C3337 1.385 . S
C3341 C3340 1.374 . S
C3342 C3339 1.499 . S
C3342 C3343 1.373 . S
C3342 C3344 1.389 . S
C3343 H3322 0.950 . S
C3343 C3342 1.373 . S
C3343 C3359 1.377 . S
C3344 C3342 1.389 . S
C3344 C3345 1.524 . S
C3344 C3358 1.377 . S
C3345 C3344 1.524 . S
C3345 C3346 1.397 . S
C3345 C3350 1.363 . S
C3346 H3323 0.950 . S
C3346 C3345 1.397 . S
C3346 C3347 1.334 . S
C3347 H3324 0.950 . S
C3347 C3346 1.334 . S
C3347 C3348 1.287 . S
C3348 C3347 1.287 . S
C3348 C3349 1.524 . S
C3348 H3367 0.913 . S
C3349 H3325 0.950 . S
C3349 C3348 1.524 . S
C3349 C3350 1.415 . S
C3350 H3326 0.950 . S
C3350 C3345 1.363 . S
C3350 C3349 1.415 . S
C3351 H3327 0.951 . S
C3351 C3352 1.366 . S
C3351 C3353 1.388 . S
C3352 C3351 1.366 . S
C3352 C3356 1.385 . S
C3353 H3328 0.951 . S
C3353 C3351 1.388 . S
C3353 C3354 1.366 . S
C3354 C3353 1.366 . S
C3354 C3355 1.414 . S
C3354 C3357 1.499 . S
C3355 H3329 0.950 . S
C3355 C3354 1.414 . S
C3355 C3356 1.374 . S
C3356 H3330 0.950 . S
C3356 C3352 1.385 . S
C3356 C3355 1.374 . S
C3357 C3354 1.499 . S
C3357 C3358 1.373 . S
C3357 C3359 1.389 . S
C3358 H3331 0.950 . S
C3358 C3344 1.377 . S
C3358 C3357 1.373 . S
C3359 C3343 1.377 . S
C3359 C3357 1.389 . S
C3359 C3360 1.524 . S
C3360 C3359 1.524 . S
C3360 C3361 1.397 . S
C3360 C3365 1.363 . S
C3361 H3332 0.950 . S
C3361 C3360 1.397 . S
C3361 C3362 1.334 . S
C3362 H3333 0.950 . S
C3362 C3361 1.334 . S
C3362 C3363 1.287 . S
C3363 C3362 1.287 . S
C3363 C3364 1.524 . S
C3363 H3366 0.999 . S
C3364 H3334 0.950 . S
C3364 C3363 1.524 . S
C3364 C3365 1.415 . S
C3365 H3335 0.950 . S
C3365 C3360 1.363 . S
C3365 C3364 1.415 . S
H3366 C3363 0.999 . S
H3367 C3348 0.913 . S
H3368 C3386 0.951 . S
H3369 C3388 0.951 . S
H3370 C3390 0.950 . S
H3371 C3391 0.950 . S
H3372 C3393 0.950 . S
H3373 C3396 0.950 . S
H3374 C3397 0.950 . S
H3375 C3399 0.950 . S
H3376 C3400 0.950 . S
H3377 C3401 0.951 . S
H3378 C3403 0.951 . S
H3379 C3405 0.950 . S
H3380 C3406 0.950 . S
H3381 C3408 0.950 . S
H3382 C3411 0.950 . S
H3383 C3412 0.950 . S
H3384 C3414 0.950 . S
H3385 C3415 0.950 . S
C3386 H3368 0.951 . S
C3386 C3387 1.366 . S
C3386 C3388 1.388 . S
C3387 C3386 1.366 . S
C3387 C3391 1.385 . S
C3388 H3369 0.951 . S
C3388 C3386 1.388 . S
C3388 C3389 1.366 . S
C3389 C3388 1.366 . S
C3389 C3390 1.414 . S
C3389 C3392 1.499 . S
C3390 H3370 0.950 . S
C3390 C3389 1.414 . S
C3390 C3391 1.374 . S
C3391 H3371 0.950 . S
C3391 C3387 1.385 . S
C3391 C3390 1.374 . S
C3392 C3389 1.499 . S
C3392 C3393 1.373 . S
C3392 C3394 1.389 . S
C3393 H3372 0.950 . S
C3393 C3392 1.373 . S
C3393 C3409 1.377 . S
C3394 C3392 1.389 . S
C3394 C3395 1.524 . S
C3394 C3408 1.377 . S
C3395 C3394 1.524 . S
C3395 C3396 1.397 . S
C3395 C3400 1.363 . S
C3396 H3373 0.950 . S
C3396 C3395 1.397 . S
C3396 C3397 1.334 . S
C3397 H3374 0.950 . S
C3397 C3396 1.334 . S
C3397 C3398 1.287 . S
C3398 C3397 1.287 . S
C3398 C3399 1.524 . S
C3398 H3417 0.913 . S
C3399 H3375 0.950 . S
C3399 C3398 1.524 . S
C3399 C3400 1.415 . S
C3400 H3376 0.950 . S
C3400 C3395 1.363 . S
C3400 C3399 1.415 . S
C3401 H3377 0.951 . S
C3401 C3402 1.366 . S
C3401 C3403 1.388 . S
C3402 C3401 1.366 . S
C3402 C3406 1.385 . S
C3403 H3378 0.951 . S
C3403 C3401 1.388 . S
C3403 C3404 1.366 . S
C3404 C3403 1.366 . S
C3404 C3405 1.414 . S
C3404 C3407 1.499 . S
C3405 H3379 0.950 . S
C3405 C3404 1.414 . S
C3405 C3406 1.374 . S
C3406 H3380 0.950 . S
C3406 C3402 1.385 . S
C3406 C3405 1.374 . S
C3407 C3404 1.499 . S
C3407 C3408 1.373 . S
C3407 C3409 1.389 . S
C3408 H3381 0.950 . S
C3408 C3394 1.377 . S
C3408 C3407 1.373 . S
C3409 C3393 1.377 . S
C3409 C3407 1.389 . S
C3409 C3410 1.524 . S
C3410 C3409 1.524 . S
C3410 C3411 1.397 . S
C3410 C3415 1.363 . S
C3411 H3382 0.950 . S
C3411 C3410 1.397 . S
C3411 C3412 1.334 . S
C3412 H3383 0.950 . S
C3412 C3411 1.334 . S
C3412 C3413 1.287 . S
C3413 C3412 1.287 . S
C3413 C3414 1.524 . S
C3413 H3416 0.999 . S
C3414 H3384 0.950 . S
C3414 C3413 1.524 . S
C3414 C3415 1.415 . S
C3415 H3385 0.950 . S
C3415 C3410 1.363 . S
C3415 C3414 1.415 . S
H3416 C3413 0.999 . S
H3417 C3398 0.913 . S
H3418 C3436 0.951 . S
H3419 C3438 0.951 . S
H3420 C3440 0.950 . S
H3421 C3441 0.950 . S
H3422 C3443 0.950 . S
H3423 C3446 0.950 . S
H3424 C3447 0.950 . S
H3425 C3449 0.950 . S
H3426 C3450 0.950 . S
H3427 C3451 0.951 . S
H3428 C3453 0.951 . S
H3429 C3455 0.950 . S
H3430 C3456 0.950 . S
H3431 C3458 0.950 . S
H3432 C3461 0.950 . S
H3433 C3462 0.950 . S
H3434 C3464 0.950 . S
H3435 C3465 0.950 . S
C3436 H3418 0.951 . S
C3436 C3437 1.366 . S
C3436 C3438 1.388 . S
C3437 C3436 1.366 . S
C3437 C3441 1.385 . S
C3438 H3419 0.951 . S
C3438 C3436 1.388 . S
C3438 C3439 1.366 . S
C3439 C3438 1.366 . S
C3439 C3440 1.414 . S
C3439 C3442 1.499 . S
C3440 H3420 0.950 . S
C3440 C3439 1.414 . S
C3440 C3441 1.374 . S
C3441 H3421 0.950 . S
C3441 C3437 1.385 . S
C3441 C3440 1.374 . S
C3442 C3439 1.499 . S
C3442 C3443 1.373 . S
C3442 C3444 1.389 . S
C3443 H3422 0.950 . S
C3443 C3442 1.373 . S
C3443 C3459 1.377 . S
C3444 C3442 1.389 . S
C3444 C3445 1.524 . S
C3444 C3458 1.377 . S
C3445 C3444 1.524 . S
C3445 C3446 1.397 . S
C3445 C3450 1.363 . S
C3446 H3423 0.950 . S
C3446 C3445 1.397 . S
C3446 C3447 1.334 . S
C3447 H3424 0.950 . S
C3447 C3446 1.334 . S
C3447 C3448 1.287 . S
C3448 C3447 1.287 . S
C3448 C3449 1.524 . S
C3448 H3467 0.913 . S
C3449 H3425 0.950 . S
C3449 C3448 1.524 . S
C3449 C3450 1.415 . S
C3450 H3426 0.950 . S
C3450 C3445 1.363 . S
C3450 C3449 1.415 . S
C3451 H3427 0.951 . S
C3451 C3452 1.366 . S
C3451 C3453 1.388 . S
C3452 C3451 1.366 . S
C3452 C3456 1.385 . S
C3453 H3428 0.951 . S
C3453 C3451 1.388 . S
C3453 C3454 1.366 . S
C3454 C3453 1.366 . S
C3454 C3455 1.414 . S
C3454 C3457 1.499 . S
C3455 H3429 0.950 . S
C3455 C3454 1.414 . S
C3455 C3456 1.374 . S
C3456 H3430 0.950 . S
C3456 C3452 1.385 . S
C3456 C3455 1.374 . S
C3457 C3454 1.499 . S
C3457 C3458 1.373 . S
C3457 C3459 1.389 . S
C3458 H3431 0.950 . S
C3458 C3444 1.377 . S
C3458 C3457 1.373 . S
C3459 C3443 1.377 . S
C3459 C3457 1.389 . S
C3459 C3460 1.524 . S
C3460 C3459 1.524 . S
C3460 C3461 1.397 . S
C3460 C3465 1.363 . S
C3461 H3432 0.950 . S
C3461 C3460 1.397 . S
C3461 C3462 1.334 . S
C3462 H3433 0.950 . S
C3462 C3461 1.334 . S
C3462 C3463 1.287 . S
C3463 C3462 1.287 . S
C3463 C3464 1.524 . S
C3463 H3466 0.999 . S
C3464 H3434 0.950 . S
C3464 C3463 1.524 . S
C3464 C3465 1.415 . S
C3465 H3435 0.950 . S
C3465 C3460 1.363 . S
C3465 C3464 1.415 . S
H3466 C3463 0.999 . S
H3467 C3448 0.913 . S
H3468 C3486 0.951 . S
H3469 C3488 0.951 . S
H3470 C3490 0.950 . S
H3471 C3491 0.950 . S
H3472 C3493 0.950 . S
H3473 C3496 0.950 . S
H3474 C3497 0.950 . S
H3475 C3499 0.950 . S
H3476 C3500 0.950 . S
H3477 C3501 0.951 . S
H3478 C3503 0.951 . S
H3479 C3505 0.950 . S
H3480 C3506 0.950 . S
H3481 C3508 0.950 . S
H3482 C3511 0.950 . S
H3483 C3512 0.950 . S
H3484 C3514 0.950 . S
H3485 C3515 0.950 . S
C3486 H3468 0.951 . S
C3486 C3487 1.366 . S
C3486 C3488 1.388 . S
C3487 C3486 1.366 . S
C3487 C3491 1.385 . S
C3488 H3469 0.951 . S
C3488 C3486 1.388 . S
C3488 C3489 1.366 . S
C3489 C3488 1.366 . S
C3489 C3490 1.414 . S
C3489 C3492 1.499 . S
C3490 H3470 0.950 . S
C3490 C3489 1.414 . S
C3490 C3491 1.374 . S
C3491 H3471 0.950 . S
C3491 C3487 1.385 . S
C3491 C3490 1.374 . S
C3492 C3489 1.499 . S
C3492 C3493 1.373 . S
C3492 C3494 1.389 . S
C3493 H3472 0.950 . S
C3493 C3492 1.373 . S
C3493 C3509 1.377 . S
C3494 C3492 1.389 . S
C3494 C3495 1.524 . S
C3494 C3508 1.377 . S
C3495 C3494 1.524 . S
C3495 C3496 1.397 . S
C3495 C3500 1.363 . S
C3496 H3473 0.950 . S
C3496 C3495 1.397 . S
C3496 C3497 1.334 . S
C3497 H3474 0.950 . S
C3497 C3496 1.334 . S
C3497 C3498 1.287 . S
C3498 C3497 1.287 . S
C3498 C3499 1.524 . S
C3498 H3517 0.913 . S
C3499 H3475 0.950 . S
C3499 C3498 1.524 . S
C3499 C3500 1.415 . S
C3500 H3476 0.950 . S
C3500 C3495 1.363 . S
C3500 C3499 1.415 . S
C3501 H3477 0.951 . S
C3501 C3502 1.366 . S
C3501 C3503 1.388 . S
C3502 C3501 1.366 . S
C3502 C3506 1.385 . S
C3503 H3478 0.951 . S
C3503 C3501 1.388 . S
C3503 C3504 1.366 . S
C3504 C3503 1.366 . S
C3504 C3505 1.414 . S
C3504 C3507 1.499 . S
C3505 H3479 0.950 . S
C3505 C3504 1.414 . S
C3505 C3506 1.374 . S
C3506 H3480 0.950 . S
C3506 C3502 1.385 . S
C3506 C3505 1.374 . S
C3507 C3504 1.499 . S
C3507 C3508 1.373 . S
C3507 C3509 1.389 . S
C3508 H3481 0.950 . S
C3508 C3494 1.377 . S
C3508 C3507 1.373 . S
C3509 C3493 1.377 . S
C3509 C3507 1.389 . S
C3509 C3510 1.524 . S
C3510 C3509 1.524 . S
C3510 C3511 1.397 . S
C3510 C3515 1.363 . S
C3511 H3482 0.950 . S
C3511 C3510 1.397 . S
C3511 C3512 1.334 . S
C3512 H3483 0.950 . S
C3512 C3511 1.334 . S
C3512 C3513 1.287 . S
C3513 C3512 1.287 . S
C3513 C3514 1.524 . S
C3513 H3516 0.999 . S
C3514 H3484 0.950 . S
C3514 C3513 1.524 . S
C3514 C3515 1.415 . S
C3515 H3485 0.950 . S
C3515 C3510 1.363 . S
C3515 C3514 1.415 . S
H3516 C3513 0.999 . S
H3517 C3498 0.913 . S
H3518 C3536 0.951 . S
H3519 C3538 0.951 . S
H3520 C3540 0.950 . S
H3521 C3541 0.950 . S
H3522 C3543 0.950 . S
H3523 C3546 0.950 . S
H3524 C3547 0.950 . S
H3525 C3549 0.950 . S
H3526 C3550 0.950 . S
H3527 C3551 0.951 . S
H3528 C3553 0.951 . S
H3529 C3555 0.950 . S
H3530 C3556 0.950 . S
H3531 C3558 0.950 . S
H3532 C3561 0.950 . S
H3533 C3562 0.950 . S
H3534 C3564 0.950 . S
H3535 C3565 0.950 . S
C3536 H3518 0.951 . S
C3536 C3537 1.366 . S
C3536 C3538 1.388 . S
C3537 C3536 1.366 . S
C3537 C3541 1.385 . S
C3538 H3519 0.951 . S
C3538 C3536 1.388 . S
C3538 C3539 1.366 . S
C3539 C3538 1.366 . S
C3539 C3540 1.414 . S
C3539 C3542 1.499 . S
C3540 H3520 0.950 . S
C3540 C3539 1.414 . S
C3540 C3541 1.374 . S
C3541 H3521 0.950 . S
C3541 C3537 1.385 . S
C3541 C3540 1.374 . S
C3542 C3539 1.499 . S
C3542 C3543 1.373 . S
C3542 C3544 1.389 . S
C3543 H3522 0.950 . S
C3543 C3542 1.373 . S
C3543 C3559 1.377 . S
C3544 C3542 1.389 . S
C3544 C3545 1.524 . S
C3544 C3558 1.377 . S
C3545 C3544 1.524 . S
C3545 C3546 1.397 . S
C3545 C3550 1.363 . S
C3546 H3523 0.950 . S
C3546 C3545 1.397 . S
C3546 C3547 1.334 . S
C3547 H3524 0.950 . S
C3547 C3546 1.334 . S
C3547 C3548 1.287 . S
C3548 C3547 1.287 . S
C3548 C3549 1.524 . S
C3548 H3567 0.913 . S
C3549 H3525 0.950 . S
C3549 C3548 1.524 . S
C3549 C3550 1.415 . S
C3550 H3526 0.950 . S
C3550 C3545 1.363 . S
C3550 C3549 1.415 . S
C3551 H3527 0.951 . S
C3551 C3552 1.366 . S
C3551 C3553 1.388 . S
C3552 C3551 1.366 . S
C3552 C3556 1.385 . S
C3553 H3528 0.951 . S
C3553 C3551 1.388 . S
C3553 C3554 1.366 . S
C3554 C3553 1.366 . S
C3554 C3555 1.414 . S
C3554 C3557 1.499 . S
C3555 H3529 0.950 . S
C3555 C3554 1.414 . S
C3555 C3556 1.374 . S
C3556 H3530 0.950 . S
C3556 C3552 1.385 . S
C3556 C3555 1.374 . S
C3557 C3554 1.499 . S
C3557 C3558 1.373 . S
C3557 C3559 1.389 . S
C3558 H3531 0.950 . S
C3558 C3544 1.377 . S
C3558 C3557 1.373 . S
C3559 C3543 1.377 . S
C3559 C3557 1.389 . S
C3559 C3560 1.524 . S
C3560 C3559 1.524 . S
C3560 C3561 1.397 . S
C3560 C3565 1.363 . S
C3561 H3532 0.950 . S
C3561 C3560 1.397 . S
C3561 C3562 1.334 . S
C3562 H3533 0.950 . S
C3562 C3561 1.334 . S
C3562 C3563 1.287 . S
C3563 C3562 1.287 . S
C3563 C3564 1.524 . S
C3563 H3566 0.999 . S
C3564 H3534 0.950 . S
C3564 C3563 1.524 . S
C3564 C3565 1.415 . S
C3565 H3535 0.950 . S
C3565 C3560 1.363 . S
C3565 C3564 1.415 . S
H3566 C3563 0.999 . S
H3567 C3548 0.913 . S
H3568 C3586 0.951 . S
H3569 C3588 0.951 . S
H3570 C3590 0.950 . S
H3571 C3591 0.950 . S
H3572 C3593 0.950 . S
H3573 C3596 0.950 . S
H3574 C3597 0.950 . S
H3575 C3599 0.950 . S
H3576 C3600 0.950 . S
H3577 C3601 0.951 . S
H3578 C3603 0.951 . S
H3579 C3605 0.950 . S
H3580 C3606 0.950 . S
H3581 C3608 0.950 . S
H3582 C3611 0.950 . S
H3583 C3612 0.950 . S
H3584 C3614 0.950 . S
H3585 C3615 0.950 . S
C3586 H3568 0.951 . S
C3586 C3587 1.366 . S
C3586 C3588 1.388 . S
C3587 C3586 1.366 . S
C3587 C3591 1.385 . S
C3588 H3569 0.951 . S
C3588 C3586 1.388 . S
C3588 C3589 1.366 . S
C3589 C3588 1.366 . S
C3589 C3590 1.414 . S
C3589 C3592 1.499 . S
C3590 H3570 0.950 . S
C3590 C3589 1.414 . S
C3590 C3591 1.374 . S
C3591 H3571 0.950 . S
C3591 C3587 1.385 . S
C3591 C3590 1.374 . S
C3592 C3589 1.499 . S
C3592 C3593 1.373 . S
C3592 C3594 1.389 . S
C3593 H3572 0.950 . S
C3593 C3592 1.373 . S
C3593 C3609 1.377 . S
C3594 C3592 1.389 . S
C3594 C3595 1.524 . S
C3594 C3608 1.377 . S
C3595 C3594 1.524 . S
C3595 C3596 1.397 . S
C3595 C3600 1.363 . S
C3596 H3573 0.950 . S
C3596 C3595 1.397 . S
C3596 C3597 1.334 . S
C3597 H3574 0.950 . S
C3597 C3596 1.334 . S
C3597 C3598 1.287 . S
C3598 C3597 1.287 . S
C3598 C3599 1.524 . S
C3598 H3617 0.913 . S
C3599 H3575 0.950 . S
C3599 C3598 1.524 . S
C3599 C3600 1.415 . S
C3600 H3576 0.950 . S
C3600 C3595 1.363 . S
C3600 C3599 1.415 . S
C3601 H3577 0.951 . S
C3601 C3602 1.366 . S
C3601 C3603 1.388 . S
C3602 C3601 1.366 . S
C3602 C3606 1.385 . S
C3603 H3578 0.951 . S
C3603 C3601 1.388 . S
C3603 C3604 1.366 . S
C3604 C3603 1.366 . S
C3604 C3605 1.414 . S
C3604 C3607 1.499 . S
C3605 H3579 0.950 . S
C3605 C3604 1.414 . S
C3605 C3606 1.374 . S
C3606 H3580 0.950 . S
C3606 C3602 1.385 . S
C3606 C3605 1.374 . S
C3607 C3604 1.499 . S
C3607 C3608 1.373 . S
C3607 C3609 1.389 . S
C3608 H3581 0.950 . S
C3608 C3594 1.377 . S
C3608 C3607 1.373 . S
C3609 C3593 1.377 . S
C3609 C3607 1.389 . S
C3609 C3610 1.524 . S
C3610 C3609 1.524 . S
C3610 C3611 1.397 . S
C3610 C3615 1.363 . S
C3611 H3582 0.950 . S
C3611 C3610 1.397 . S
C3611 C3612 1.334 . S
C3612 H3583 0.950 . S
C3612 C3611 1.334 . S
C3612 C3613 1.287 . S
C3613 C3612 1.287 . S
C3613 C3614 1.524 . S
C3613 H3616 0.999 . S
C3614 H3584 0.950 . S
C3614 C3613 1.524 . S
C3614 C3615 1.415 . S
C3615 H3585 0.950 . S
C3615 C3610 1.363 . S
C3615 C3614 1.415 . S
H3616 C3613 0.999 . S
H3617 C3598 0.913 . S
H3618 C3636 0.951 . S
H3619 C3638 0.951 . S
H3620 C3640 0.950 . S
H3621 C3641 0.950 . S
H3622 C3643 0.950 . S
H3623 C3646 0.950 . S
H3624 C3647 0.950 . S
H3625 C3649 0.950 . S
H3626 C3650 0.950 . S
H3627 C3651 0.951 . S
H3628 C3653 0.951 . S
H3629 C3655 0.950 . S
H3630 C3656 0.950 . S
H3631 C3658 0.950 . S
H3632 C3661 0.950 . S
H3633 C3662 0.950 . S
H3634 C3664 0.950 . S
H3635 C3665 0.950 . S
C3636 H3618 0.951 . S
C3636 C3637 1.366 . S
C3636 C3638 1.388 . S
C3637 C3636 1.366 . S
C3637 C3641 1.385 . S
C3638 H3619 0.951 . S
C3638 C3636 1.388 . S
C3638 C3639 1.366 . S
C3639 C3638 1.366 . S
C3639 C3640 1.414 . S
C3639 C3642 1.499 . S
C3640 H3620 0.950 . S
C3640 C3639 1.414 . S
C3640 C3641 1.374 . S
C3641 H3621 0.950 . S
C3641 C3637 1.385 . S
C3641 C3640 1.374 . S
C3642 C3639 1.499 . S
C3642 C3643 1.373 . S
C3642 C3644 1.389 . S
C3643 H3622 0.950 . S
C3643 C3642 1.373 . S
C3643 C3659 1.377 . S
C3644 C3642 1.389 . S
C3644 C3645 1.524 . S
C3644 C3658 1.377 . S
C3645 C3644 1.524 . S
C3645 C3646 1.397 . S
C3645 C3650 1.363 . S
C3646 H3623 0.950 . S
C3646 C3645 1.397 . S
C3646 C3647 1.334 . S
C3647 H3624 0.950 . S
C3647 C3646 1.334 . S
C3647 C3648 1.287 . S
C3648 C3647 1.287 . S
C3648 C3649 1.524 . S
C3648 H3667 0.913 . S
C3649 H3625 0.950 . S
C3649 C3648 1.524 . S
C3649 C3650 1.415 . S
C3650 H3626 0.950 . S
C3650 C3645 1.363 . S
C3650 C3649 1.415 . S
C3651 H3627 0.951 . S
C3651 C3652 1.366 . S
C3651 C3653 1.388 . S
C3652 C3651 1.366 . S
C3652 C3656 1.385 . S
C3653 H3628 0.951 . S
C3653 C3651 1.388 . S
C3653 C3654 1.366 . S
C3654 C3653 1.366 . S
C3654 C3655 1.414 . S
C3654 C3657 1.499 . S
C3655 H3629 0.950 . S
C3655 C3654 1.414 . S
C3655 C3656 1.374 . S
C3656 H3630 0.950 . S
C3656 C3652 1.385 . S
C3656 C3655 1.374 . S
C3657 C3654 1.499 . S
C3657 C3658 1.373 . S
C3657 C3659 1.389 . S
C3658 H3631 0.950 . S
C3658 C3644 1.377 . S
C3658 C3657 1.373 . S
C3659 C3643 1.377 . S
C3659 C3657 1.389 . S
C3659 C3660 1.524 . S
C3660 C3659 1.524 . S
C3660 C3661 1.397 . S
C3660 C3665 1.363 . S
C3661 H3632 0.950 . S
C3661 C3660 1.397 . S
C3661 C3662 1.334 . S
C3662 H3633 0.950 . S
C3662 C3661 1.334 . S
C3662 C3663 1.287 . S
C3663 C3662 1.287 . S
C3663 C3664 1.524 . S
C3663 H3666 0.999 . S
C3664 H3634 0.950 . S
C3664 C3663 1.524 . S
C3664 C3665 1.415 . S
C3665 H3635 0.950 . S
C3665 C3660 1.363 . S
C3665 C3664 1.415 . S
H3666 C3663 0.999 . S
H3667 C3648 0.913 . S
H3668 C3686 0.951 . S
H3669 C3688 0.951 . S
H3670 C3690 0.950 . S
H3671 C3691 0.950 . S
H3672 C3693 0.950 . S
H3673 C3696 0.950 . S
H3674 C3697 0.950 . S
H3675 C3699 0.950 . S
H3676 C3700 0.950 . S
H3677 C3701 0.951 . S
H3678 C3703 0.951 . S
H3679 C3705 0.950 . S
H3680 C3706 0.950 . S
H3681 C3708 0.950 . S
H3682 C3711 0.950 . S
H3683 C3712 0.950 . S
H3684 C3714 0.950 . S
H3685 C3715 0.950 . S
C3686 H3668 0.951 . S
C3686 C3687 1.366 . S
C3686 C3688 1.388 . S
C3687 C3686 1.366 . S
C3687 C3691 1.385 . S
C3688 H3669 0.951 . S
C3688 C3686 1.388 . S
C3688 C3689 1.366 . S
C3689 C3688 1.366 . S
C3689 C3690 1.414 . S
C3689 C3692 1.499 . S
C3690 H3670 0.950 . S
C3690 C3689 1.414 . S
C3690 C3691 1.374 . S
C3691 H3671 0.950 . S
C3691 C3687 1.385 . S
C3691 C3690 1.374 . S
C3692 C3689 1.499 . S
C3692 C3693 1.373 . S
C3692 C3694 1.389 . S
C3693 H3672 0.950 . S
C3693 C3692 1.373 . S
C3693 C3709 1.377 . S
C3694 C3692 1.389 . S
C3694 C3695 1.524 . S
C3694 C3708 1.377 . S
C3695 C3694 1.524 . S
C3695 C3696 1.397 . S
C3695 C3700 1.363 . S
C3696 H3673 0.950 . S
C3696 C3695 1.397 . S
C3696 C3697 1.334 . S
C3697 H3674 0.950 . S
C3697 C3696 1.334 . S
C3697 C3698 1.287 . S
C3698 C3697 1.287 . S
C3698 C3699 1.524 . S
C3698 H3717 0.913 . S
C3699 H3675 0.950 . S
C3699 C3698 1.524 . S
C3699 C3700 1.415 . S
C3700 H3676 0.950 . S
C3700 C3695 1.363 . S
C3700 C3699 1.415 . S
C3701 H3677 0.951 . S
C3701 C3702 1.366 . S
C3701 C3703 1.388 . S
C3702 C3701 1.366 . S
C3702 C3706 1.385 . S
C3703 H3678 0.951 . S
C3703 C3701 1.388 . S
C3703 C3704 1.366 . S
C3704 C3703 1.366 . S
C3704 C3705 1.414 . S
C3704 C3707 1.499 . S
C3705 H3679 0.950 . S
C3705 C3704 1.414 . S
C3705 C3706 1.374 . S
C3706 H3680 0.950 . S
C3706 C3702 1.385 . S
C3706 C3705 1.374 . S
C3707 C3704 1.499 . S
C3707 C3708 1.373 . S
C3707 C3709 1.389 . S
C3708 H3681 0.950 . S
C3708 C3694 1.377 . S
C3708 C3707 1.373 . S
C3709 C3693 1.377 . S
C3709 C3707 1.389 . S
C3709 C3710 1.524 . S
C3710 C3709 1.524 . S
C3710 C3711 1.397 . S
C3710 C3715 1.363 . S
C3711 H3682 0.950 . S
C3711 C3710 1.397 . S
C3711 C3712 1.334 . S
C3712 H3683 0.950 . S
C3712 C3711 1.334 . S
C3712 C3713 1.287 . S
C3713 C3712 1.287 . S
C3713 C3714 1.524 . S
C3713 H3716 0.999 . S
C3714 H3684 0.950 . S
C3714 C3713 1.524 . S
C3714 C3715 1.415 . S
C3715 H3685 0.950 . S
C3715 C3710 1.363 . S
C3715 C3714 1.415 . S
H3716 C3713 0.999 . S
H3717 C3698 0.913 . S
H3718 C3736 0.951 . S
H3719 C3738 0.951 . S
H3720 C3740 0.950 . S
H3721 C3741 0.950 . S
H3722 C3743 0.950 . S
H3723 C3746 0.950 . S
H3724 C3747 0.950 . S
H3725 C3749 0.950 . S
H3726 C3750 0.950 . S
H3727 C3751 0.951 . S
H3728 C3753 0.951 . S
H3729 C3755 0.950 . S
H3730 C3756 0.950 . S
H3731 C3758 0.950 . S
H3732 C3761 0.950 . S
H3733 C3762 0.950 . S
H3734 C3764 0.950 . S
H3735 C3765 0.950 . S
C3736 H3718 0.951 . S
C3736 C3737 1.366 . S
C3736 C3738 1.388 . S
C3737 C3736 1.366 . S
C3737 C3741 1.385 . S
C3738 H3719 0.951 . S
C3738 C3736 1.388 . S
C3738 C3739 1.366 . S
C3739 C3738 1.366 . S
C3739 C3740 1.414 . S
C3739 C3742 1.499 . S
C3740 H3720 0.950 . S
C3740 C3739 1.414 . S
C3740 C3741 1.374 . S
C3741 H3721 0.950 . S
C3741 C3737 1.385 . S
C3741 C3740 1.374 . S
C3742 C3739 1.499 . S
C3742 C3743 1.373 . S
C3742 C3744 1.389 . S
C3743 H3722 0.950 . S
C3743 C3742 1.373 . S
C3743 C3759 1.377 . S
C3744 C3742 1.389 . S
C3744 C3745 1.524 . S
C3744 C3758 1.377 . S
C3745 C3744 1.524 . S
C3745 C3746 1.397 . S
C3745 C3750 1.363 . S
C3746 H3723 0.950 . S
C3746 C3745 1.397 . S
C3746 C3747 1.334 . S
C3747 H3724 0.950 . S
C3747 C3746 1.334 . S
C3747 C3748 1.287 . S
C3748 C3747 1.287 . S
C3748 C3749 1.524 . S
C3748 H3767 0.913 . S
C3749 H3725 0.950 . S
C3749 C3748 1.524 . S
C3749 C3750 1.415 . S
C3750 H3726 0.950 . S
C3750 C3745 1.363 . S
C3750 C3749 1.415 . S
C3751 H3727 0.951 . S
C3751 C3752 1.366 . S
C3751 C3753 1.388 . S
C3752 C3751 1.366 . S
C3752 C3756 1.385 . S
C3753 H3728 0.951 . S
C3753 C3751 1.388 . S
C3753 C3754 1.366 . S
C3754 C3753 1.366 . S
C3754 C3755 1.414 . S
C3754 C3757 1.499 . S
C3755 H3729 0.950 . S
C3755 C3754 1.414 . S
C3755 C3756 1.374 . S
C3756 H3730 0.950 . S
C3756 C3752 1.385 . S
C3756 C3755 1.374 . S
C3757 C3754 1.499 . S
C3757 C3758 1.373 . S
C3757 C3759 1.389 . S
C3758 H3731 0.950 . S
C3758 C3744 1.377 . S
C3758 C3757 1.373 . S
C3759 C3743 1.377 . S
C3759 C3757 1.389 . S
C3759 C3760 1.524 . S
C3760 C3759 1.524 . S
C3760 C3761 1.397 . S
C3760 C3765 1.363 . S
C3761 H3732 0.950 . S
C3761 C3760 1.397 . S
C3761 C3762 1.334 . S
C3762 H3733 0.950 . S
C3762 C3761 1.334 . S
C3762 C3763 1.287 . S
C3763 C3762 1.287 . S
C3763 C3764 1.524 . S
C3763 H3766 0.999 . S
C3764 H3734 0.950 . S
C3764 C3763 1.524 . S
C3764 C3765 1.415 . S
C3765 H3735 0.950 . S
C3765 C3760 1.363 . S
C3765 C3764 1.415 . S
H3766 C3763 0.999 . S
H3767 C3748 0.913 . S
H3768 C3786 0.951 . S
H3769 C3788 0.951 . S
H3770 C3790 0.950 . S
H3771 C3791 0.950 . S
H3772 C3793 0.950 . S
H3773 C3796 0.950 . S
H3774 C3797 0.950 . S
H3775 C3799 0.950 . S
H3776 C3800 0.950 . S
H3777 C3801 0.951 . S
H3778 C3803 0.951 . S
H3779 C3805 0.950 . S
H3780 C3806 0.950 . S
H3781 C3808 0.950 . S
H3782 C3811 0.950 . S
H3783 C3812 0.950 . S
H3784 C3814 0.950 . S
H3785 C3815 0.950 . S
C3786 H3768 0.951 . S
C3786 C3787 1.366 . S
C3786 C3788 1.388 . S
C3787 C3786 1.366 . S
C3787 C3791 1.385 . S
C3788 H3769 0.951 . S
C3788 C3786 1.388 . S
C3788 C3789 1.366 . S
C3789 C3788 1.366 . S
C3789 C3790 1.414 . S
C3789 C3792 1.499 . S
C3790 H3770 0.950 . S
C3790 C3789 1.414 . S
C3790 C3791 1.374 . S
C3791 H3771 0.950 . S
C3791 C3787 1.385 . S
C3791 C3790 1.374 . S
C3792 C3789 1.499 . S
C3792 C3793 1.373 . S
C3792 C3794 1.389 . S
C3793 H3772 0.950 . S
C3793 C3792 1.373 . S
C3793 C3809 1.377 . S
C3794 C3792 1.389 . S
C3794 C3795 1.524 . S
C3794 C3808 1.377 . S
C3795 C3794 1.524 . S
C3795 C3796 1.397 . S
C3795 C3800 1.363 . S
C3796 H3773 0.950 . S
C3796 C3795 1.397 . S
C3796 C3797 1.334 . S
C3797 H3774 0.950 . S
C3797 C3796 1.334 . S
C3797 C3798 1.287 . S
C3798 C3797 1.287 . S
C3798 C3799 1.524 . S
C3798 H3817 0.913 . S
C3799 H3775 0.950 . S
C3799 C3798 1.524 . S
C3799 C3800 1.415 . S
C3800 H3776 0.950 . S
C3800 C3795 1.363 . S
C3800 C3799 1.415 . S
C3801 H3777 0.951 . S
C3801 C3802 1.366 . S
C3801 C3803 1.388 . S
C3802 C3801 1.366 . S
C3802 C3806 1.385 . S
C3803 H3778 0.951 . S
C3803 C3801 1.388 . S
C3803 C3804 1.366 . S
C3804 C3803 1.366 . S
C3804 C3805 1.414 . S
C3804 C3807 1.499 . S
C3805 H3779 0.950 . S
C3805 C3804 1.414 . S
C3805 C3806 1.374 . S
C3806 H3780 0.950 . S
C3806 C3802 1.385 . S
C3806 C3805 1.374 . S
C3807 C3804 1.499 . S
C3807 C3808 1.373 . S
C3807 C3809 1.389 . S
C3808 H3781 0.950 . S
C3808 C3794 1.377 . S
C3808 C3807 1.373 . S
C3809 C3793 1.377 . S
C3809 C3807 1.389 . S
C3809 C3810 1.524 . S
C3810 C3809 1.524 . S
C3810 C3811 1.397 . S
C3810 C3815 1.363 . S
C3811 H3782 0.950 . S
C3811 C3810 1.397 . S
C3811 C3812 1.334 . S
C3812 H3783 0.950 . S
C3812 C3811 1.334 . S
C3812 C3813 1.287 . S
C3813 C3812 1.287 . S
C3813 C3814 1.524 . S
C3813 H3816 0.999 . S
C3814 H3784 0.950 . S
C3814 C3813 1.524 . S
C3814 C3815 1.415 . S
C3815 H3785 0.950 . S
C3815 C3810 1.363 . S
C3815 C3814 1.415 . S
H3816 C3813 0.999 . S
H3817 C3798 0.913 . S
H3818 C3836 0.951 . S
H3819 C3838 0.951 . S
H3820 C3840 0.950 . S
H3821 C3841 0.950 . S
H3822 C3843 0.950 . S
H3823 C3846 0.950 . S
H3824 C3847 0.950 . S
H3825 C3849 0.950 . S
H3826 C3850 0.950 . S
H3827 C3851 0.951 . S
H3828 C3853 0.951 . S
H3829 C3855 0.950 . S
H3830 C3856 0.950 . S
H3831 C3858 0.950 . S
H3832 C3861 0.950 . S
H3833 C3862 0.950 . S
H3834 C3864 0.950 . S
H3835 C3865 0.950 . S
C3836 H3818 0.951 . S
C3836 C3837 1.366 . S
C3836 C3838 1.388 . S
C3837 C3836 1.366 . S
C3837 C3841 1.385 . S
C3838 H3819 0.951 . S
C3838 C3836 1.388 . S
C3838 C3839 1.366 . S
C3839 C3838 1.366 . S
C3839 C3840 1.414 . S
C3839 C3842 1.499 . S
C3840 H3820 0.950 . S
C3840 C3839 1.414 . S
C3840 C3841 1.374 . S
C3841 H3821 0.950 . S
C3841 C3837 1.385 . S
C3841 C3840 1.374 . S
C3842 C3839 1.499 . S
C3842 C3843 1.373 . S
C3842 C3844 1.389 . S
C3843 H3822 0.950 . S
C3843 C3842 1.373 . S
C3843 C3859 1.377 . S
C3844 C3842 1.389 . S
C3844 C3845 1.524 . S
C3844 C3858 1.377 . S
C3845 C3844 1.524 . S
C3845 C3846 1.397 . S
C3845 C3850 1.363 . S
C3846 H3823 0.950 . S
C3846 C3845 1.397 . S
C3846 C3847 1.334 . S
C3847 H3824 0.950 . S
C3847 C3846 1.334 . S
C3847 C3848 1.287 . S
C3848 C3847 1.287 . S
C3848 C3849 1.524 . S
C3848 H3867 0.913 . S
C3849 H3825 0.950 . S
C3849 C3848 1.524 . S
C3849 C3850 1.415 . S
C3850 H3826 0.950 . S
C3850 C3845 1.363 . S
C3850 C3849 1.415 . S
C3851 H3827 0.951 . S
C3851 C3852 1.366 . S
C3851 C3853 1.388 . S
C3852 C3851 1.366 . S
C3852 C3856 1.385 . S
C3853 H3828 0.951 . S
C3853 C3851 1.388 . S
C3853 C3854 1.366 . S
C3854 C3853 1.366 . S
C3854 C3855 1.414 . S
C3854 C3857 1.499 . S
C3855 H3829 0.950 . S
C3855 C3854 1.414 . S
C3855 C3856 1.374 . S
C3856 H3830 0.950 . S
C3856 C3852 1.385 . S
C3856 C3855 1.374 . S
C3857 C3854 1.499 . S
C3857 C3858 1.373 . S
C3857 C3859 1.389 . S
C3858 H3831 0.950 . S
C3858 C3844 1.377 . S
C3858 C3857 1.373 . S
C3859 C3843 1.377 . S
C3859 C3857 1.389 . S
C3859 C3860 1.524 . S
C3860 C3859 1.524 . S
C3860 C3861 1.397 . S
C3860 C3865 1.363 . S
C3861 H3832 0.950 . S
C3861 C3860 1.397 . S
C3861 C3862 1.334 . S
C3862 H3833 0.950 . S
C3862 C3861 1.334 . S
C3862 C3863 1.287 . S
C3863 C3862 1.287 . S
C3863 C3864 1.524 . S
C3863 H3866 0.999 . S
C3864 H3834 0.950 . S
C3864 C3863 1.524 . S
C3864 C3865 1.415 . S
C3865 H3835 0.950 . S
C3865 C3860 1.363 . S
C3865 C3864 1.415 . S
H3866 C3863 0.999 . S
H3867 C3848 0.913 . S
H3868 C3886 0.951 . S
H3869 C3888 0.951 . S
H3870 C3890 0.950 . S
H3871 C3891 0.950 . S
H3872 C3893 0.950 . S
H3873 C3896 0.950 . S
H3874 C3897 0.950 . S
H3875 C3899 0.950 . S
H3876 C3900 0.950 . S
H3877 C3901 0.951 . S
H3878 C3903 0.951 . S
H3879 C3905 0.950 . S
H3880 C3906 0.950 . S
H3881 C3908 0.950 . S
H3882 C3911 0.950 . S
H3883 C3912 0.950 . S
H3884 C3914 0.950 . S
H3885 C3915 0.950 . S
C3886 H3868 0.951 . S
C3886 C3887 1.366 . S
C3886 C3888 1.388 . S
C3887 C3886 1.366 . S
C3887 C3891 1.385 . S
C3888 H3869 0.951 . S
C3888 C3886 1.388 . S
C3888 C3889 1.366 . S
C3889 C3888 1.366 . S
C3889 C3890 1.414 . S
C3889 C3892 1.499 . S
C3890 H3870 0.950 . S
C3890 C3889 1.414 . S
C3890 C3891 1.374 . S
C3891 H3871 0.950 . S
C3891 C3887 1.385 . S
C3891 C3890 1.374 . S
C3892 C3889 1.499 . S
C3892 C3893 1.373 . S
C3892 C3894 1.389 . S
C3893 H3872 0.950 . S
C3893 C3892 1.373 . S
C3893 C3909 1.377 . S
C3894 C3892 1.389 . S
C3894 C3895 1.524 . S
C3894 C3908 1.377 . S
C3895 C3894 1.524 . S
C3895 C3896 1.397 . S
C3895 C3900 1.363 . S
C3896 H3873 0.950 . S
C3896 C3895 1.397 . S
C3896 C3897 1.334 . S
C3897 H3874 0.950 . S
C3897 C3896 1.334 . S
C3897 C3898 1.287 . S
C3898 C3897 1.287 . S
C3898 C3899 1.524 . S
C3898 H3917 0.913 . S
C3899 H3875 0.950 . S
C3899 C3898 1.524 . S
C3899 C3900 1.415 . S
C3900 H3876 0.950 . S
C3900 C3895 1.363 . S
C3900 C3899 1.415 . S
C3901 H3877 0.951 . S
C3901 C3902 1.366 . S
C3901 C3903 1.388 . S
C3902 C3901 1.366 . S
C3902 C3906 1.385 . S
C3903 H3878 0.951 . S
C3903 C3901 1.388 . S
C3903 C3904 1.366 . S
C3904 C3903 1.366 . S
C3904 C3905 1.414 . S
C3904 C3907 1.499 . S
C3905 H3879 0.950 . S
C3905 C3904 1.414 . S
C3905 C3906 1.374 . S
C3906 H3880 0.950 . S
C3906 C3902 1.385 . S
C3906 C3905 1.374 . S
C3907 C3904 1.499 . S
C3907 C3908 1.373 . S
C3907 C3909 1.389 . S
C3908 H3881 0.950 . S
C3908 C3894 1.377 . S
C3908 C3907 1.373 . S
C3909 C3893 1.377 . S
C3909 C3907 1.389 . S
C3909 C3910 1.524 . S
C3910 C3909 1.524 . S
C3910 C3911 1.397 . S
C3910 C3915 1.363 . S
C3911 H3882 0.950 . S
C3911 C3910 1.397 . S
C3911 C3912 1.334 . S
C3912 H3883 0.950 . S
C3912 C3911 1.334 . S
C3912 C3913 1.287 . S
C3913 C3912 1.287 . S
C3913 C3914 1.524 . S
C3913 H3916 0.999 . S
C3914 H3884 0.950 . S
C3914 C3913 1.524 . S
C3914 C3915 1.415 . S
C3915 H3885 0.950 . S
C3915 C3910 1.363 . S
C3915 C3914 1.415 . S
H3916 C3913 0.999 . S
H3917 C3898 0.913 . S
H3918 C3936 0.951 . S
H3919 C3938 0.951 . S
H3920 C3940 0.950 . S
H3921 C3941 0.950 . S
H3922 C3943 0.950 . S
H3923 C3946 0.950 . S
H3924 C3947 0.950 . S
H3925 C3949 0.950 . S
H3926 C3950 0.950 . S
H3927 C3951 0.951 . S
H3928 C3953 0.951 . S
H3929 C3955 0.950 . S
H3930 C3956 0.950 . S
H3931 C3958 0.950 . S
H3932 C3961 0.950 . S
H3933 C3962 0.950 . S
H3934 C3964 0.950 . S
H3935 C3965 0.950 . S
C3936 H3918 0.951 . S
C3936 C3937 1.366 . S
C3936 C3938 1.388 . S
C3937 C3936 1.366 . S
C3937 C3941 1.385 . S
C3938 H3919 0.951 . S
C3938 C3936 1.388 . S
C3938 C3939 1.366 . S
C3939 C3938 1.366 . S
C3939 C3940 1.414 . S
C3939 C3942 1.499 . S
C3940 H3920 0.950 . S
C3940 C3939 1.414 . S
C3940 C3941 1.374 . S
C3941 H3921 0.950 . S
C3941 C3937 1.385 . S
C3941 C3940 1.374 . S
C3942 C3939 1.499 . S
C3942 C3943 1.373 . S
C3942 C3944 1.389 . S
C3943 H3922 0.950 . S
C3943 C3942 1.373 . S
C3943 C3959 1.377 . S
C3944 C3942 1.389 . S
C3944 C3945 1.524 . S
C3944 C3958 1.377 . S
C3945 C3944 1.524 . S
C3945 C3946 1.397 . S
C3945 C3950 1.363 . S
C3946 H3923 0.950 . S
C3946 C3945 1.397 . S
C3946 C3947 1.334 . S
C3947 H3924 0.950 . S
C3947 C3946 1.334 . S
C3947 C3948 1.287 . S
C3948 C3947 1.287 . S
C3948 C3949 1.524 . S
C3948 H3967 0.913 . S
C3949 H3925 0.950 . S
C3949 C3948 1.524 . S
C3949 C3950 1.415 . S
C3950 H3926 0.950 . S
C3950 C3945 1.363 . S
C3950 C3949 1.415 . S
C3951 H3927 0.951 . S
C3951 C3952 1.366 . S
C3951 C3953 1.388 . S
C3952 C3951 1.366 . S
C3952 C3956 1.385 . S
C3953 H3928 0.951 . S
C3953 C3951 1.388 . S
C3953 C3954 1.366 . S
C3954 C3953 1.366 . S
C3954 C3955 1.414 . S
C3954 C3957 1.499 . S
C3955 H3929 0.950 . S
C3955 C3954 1.414 . S
C3955 C3956 1.374 . S
C3956 H3930 0.950 . S
C3956 C3952 1.385 . S
C3956 C3955 1.374 . S
C3957 C3954 1.499 . S
C3957 C3958 1.373 . S
C3957 C3959 1.389 . S
C3958 H3931 0.950 . S
C3958 C3944 1.377 . S
C3958 C3957 1.373 . S
C3959 C3943 1.377 . S
C3959 C3957 1.389 . S
C3959 C3960 1.524 . S
C3960 C3959 1.524 . S
C3960 C3961 1.397 . S
C3960 C3965 1.363 . S
C3961 H3932 0.950 . S
C3961 C3960 1.397 . S
C3961 C3962 1.334 . S
C3962 H3933 0.950 . S
C3962 C3961 1.334 . S
C3962 C3963 1.287 . S
C3963 C3962 1.287 . S
C3963 C3964 1.524 . S
C3963 H3966 0.999 . S
C3964 H3934 0.950 . S
C3964 C3963 1.524 . S
C3964 C3965 1.415 . S
C3965 H3935 0.950 . S
C3965 C3960 1.363 . S
C3965 C3964 1.415 . S
H3966 C3963 0.999 . S
H3967 C3948 0.913 . S
H3968 C3986 0.951 . S
H3969 C3988 0.951 . S
H3970 C3990 0.950 . S
H3971 C3991 0.950 . S
H3972 C3993 0.950 . S
H3973 C3996 0.950 . S
H3974 C3997 0.950 . S
H3975 C3999 0.950 . S
H3976 C4000 0.950 . S
H3977 C4001 0.951 . S
H3978 C4003 0.951 . S
H3979 C4005 0.950 . S
H3980 C4006 0.950 . S
H3981 C4008 0.950 . S
H3982 C4011 0.950 . S
H3983 C4012 0.950 . S
H3984 C4014 0.950 . S
H3985 C4015 0.950 . S
C3986 H3968 0.951 . S
C3986 C3987 1.366 . S
C3986 C3988 1.388 . S
C3987 C3986 1.366 . S
C3987 C3991 1.385 . S
C3988 H3969 0.951 . S
C3988 C3986 1.388 . S
C3988 C3989 1.366 . S
C3989 C3988 1.366 . S
C3989 C3990 1.414 . S
C3989 C3992 1.499 . S
C3990 H3970 0.950 . S
C3990 C3989 1.414 . S
C3990 C3991 1.374 . S
C3991 H3971 0.950 . S
C3991 C3987 1.385 . S
C3991 C3990 1.374 . S
C3992 C3989 1.499 . S
C3992 C3993 1.373 . S
C3992 C3994 1.389 . S
C3993 H3972 0.950 . S
C3993 C3992 1.373 . S
C3993 C4009 1.377 . S
C3994 C3992 1.389 . S
C3994 C3995 1.524 . S
C3994 C4008 1.377 . S
C3995 C3994 1.524 . S
C3995 C3996 1.397 . S
C3995 C4000 1.363 . S
C3996 H3973 0.950 . S
C3996 C3995 1.397 . S
C3996 C3997 1.334 . S
C3997 H3974 0.950 . S
C3997 C3996 1.334 . S
C3997 C3998 1.287 . S
C3998 C3997 1.287 . S
C3998 C3999 1.524 . S
C3998 H4017 0.913 . S
C3999 H3975 0.950 . S
C3999 C3998 1.524 . S
C3999 C4000 1.415 . S
C4000 H3976 0.950 . S
C4000 C3995 1.363 . S
C4000 C3999 1.415 . S
C4001 H3977 0.951 . S
C4001 C4002 1.366 . S
C4001 C4003 1.388 . S
C4002 C4001 1.366 . S
C4002 C4006 1.385 . S
C4003 H3978 0.951 . S
C4003 C4001 1.388 . S
C4003 C4004 1.366 . S
C4004 C4003 1.366 . S
C4004 C4005 1.414 . S
C4004 C4007 1.499 . S
C4005 H3979 0.950 . S
C4005 C4004 1.414 . S
C4005 C4006 1.374 . S
C4006 H3980 0.950 . S
C4006 C4002 1.385 . S
C4006 C4005 1.374 . S
C4007 C4004 1.499 . S
C4007 C4008 1.373 . S
C4007 C4009 1.389 . S
C4008 H3981 0.950 . S
C4008 C3994 1.377 . S
C4008 C4007 1.373 . S
C4009 C3993 1.377 . S
C4009 C4007 1.389 . S
C4009 C4010 1.524 . S
C4010 C4009 1.524 . S
C4010 C4011 1.397 . S
C4010 C4015 1.363 . S
C4011 H3982 0.950 . S
C4011 C4010 1.397 . S
C4011 C4012 1.334 . S
C4012 H3983 0.950 . S
C4012 C4011 1.334 . S
C4012 C4013 1.287 . S
C4013 C4012 1.287 . S
C4013 C4014 1.524 . S
C4013 H4016 0.999 . S
C4014 H3984 0.950 . S
C4014 C4013 1.524 . S
C4014 C4015 1.415 . S
C4015 H3985 0.950 . S
C4015 C4010 1.363 . S
C4015 C4014 1.415 . S
H4016 C4013 0.999 . S
H4017 C3998 0.913 . S
H4018 C4036 0.951 . S
H4019 C4038 0.951 . S
H4020 C4040 0.950 . S
H4021 C4041 0.950 . S
H4022 C4043 0.950 . S
H4023 C4046 0.950 . S
H4024 C4047 0.950 . S
H4025 C4049 0.950 . S
H4026 C4050 0.950 . S
H4027 C4051 0.951 . S
H4028 C4053 0.951 . S
H4029 C4055 0.950 . S
H4030 C4056 0.950 . S
H4031 C4058 0.950 . S
H4032 C4061 0.950 . S
H4033 C4062 0.950 . S
H4034 C4064 0.950 . S
H4035 C4065 0.950 . S
C4036 H4018 0.951 . S
C4036 C4037 1.366 . S
C4036 C4038 1.388 . S
C4037 C4036 1.366 . S
C4037 C4041 1.385 . S
C4038 H4019 0.951 . S
C4038 C4036 1.388 . S
C4038 C4039 1.366 . S
C4039 C4038 1.366 . S
C4039 C4040 1.414 . S
C4039 C4042 1.499 . S
C4040 H4020 0.950 . S
C4040 C4039 1.414 . S
C4040 C4041 1.374 . S
C4041 H4021 0.950 . S
C4041 C4037 1.385 . S
C4041 C4040 1.374 . S
C4042 C4039 1.499 . S
C4042 C4043 1.373 . S
C4042 C4044 1.389 . S
C4043 H4022 0.950 . S
C4043 C4042 1.373 . S
C4043 C4059 1.377 . S
C4044 C4042 1.389 . S
C4044 C4045 1.524 . S
C4044 C4058 1.377 . S
C4045 C4044 1.524 . S
C4045 C4046 1.397 . S
C4045 C4050 1.363 . S
C4046 H4023 0.950 . S
C4046 C4045 1.397 . S
C4046 C4047 1.334 . S
C4047 H4024 0.950 . S
C4047 C4046 1.334 . S
C4047 C4048 1.287 . S
C4048 C4047 1.287 . S
C4048 C4049 1.524 . S
C4048 H4067 0.913 . S
C4049 H4025 0.950 . S
C4049 C4048 1.524 . S
C4049 C4050 1.415 . S
C4050 H4026 0.950 . S
C4050 C4045 1.363 . S
C4050 C4049 1.415 . S
C4051 H4027 0.951 . S
C4051 C4052 1.366 . S
C4051 C4053 1.388 . S
C4052 C4051 1.366 . S
C4052 C4056 1.385 . S
C4053 H4028 0.951 . S
C4053 C4051 1.388 . S
C4053 C4054 1.366 . S
C4054 C4053 1.366 . S
C4054 C4055 1.414 . S
C4054 C4057 1.499 . S
C4055 H4029 0.950 . S
C4055 C4054 1.414 . S
C4055 C4056 1.374 . S
C4056 H4030 0.950 . S
C4056 C4052 1.385 . S
C4056 C4055 1.374 . S
C4057 C4054 1.499 . S
C4057 C4058 1.373 . S
C4057 C4059 1.389 . S
C4058 H4031 0.950 . S
C4058 C4044 1.377 . S
C4058 C4057 1.373 . S
C4059 C4043 1.377 . S
C4059 C4057 1.389 . S
C4059 C4060 1.524 . S
C4060 C4059 1.524 . S
C4060 C4061 1.397 . S
C4060 C4065 1.363 . S
C4061 H4032 0.950 . S
C4061 C4060 1.397 . S
C4061 C4062 1.334 . S
C4062 H4033 0.950 . S
C4062 C4061 1.334 . S
C4062 C4063 1.287 . S
C4063 C4062 1.287 . S
C4063 C4064 1.524 . S
C4063 H4066 0.999 . S
C4064 H4034 0.950 . S
C4064 C4063 1.524 . S
C4064 C4065 1.415 . S
C4065 H4035 0.950 . S
C4065 C4060 1.363 . S
C4065 C4064 1.415 . S
H4066 C4063 0.999 . S
H4067 C4048 0.913 . S
H4068 C4086 0.951 . S
H4069 C4088 0.951 . S
H4070 C4090 0.950 . S
H4071 C4091 0.950 . S
H4072 C4093 0.950 . S
H4073 C4096 0.950 . S
H4074 C4097 0.950 . S
H4075 C4099 0.950 . S
H4076 C4100 0.950 . S
H4077 C4101 0.951 . S
H4078 C4103 0.951 . S
H4079 C4105 0.950 . S
H4080 C4106 0.950 . S
H4081 C4108 0.950 . S
H4082 C4111 0.950 . S
H4083 C4112 0.950 . S
H4084 C4114 0.950 . S
H4085 C4115 0.950 . S
C4086 H4068 0.951 . S
C4086 C4087 1.366 . S
C4086 C4088 1.388 . S
C4087 C4086 1.366 . S
C4087 C4091 1.385 . S
C4088 H4069 0.951 . S
C4088 C4086 1.388 . S
C4088 C4089 1.366 . S
C4089 C4088 1.366 . S
C4089 C4090 1.414 . S
C4089 C4092 1.499 . S
C4090 H4070 0.950 . S
C4090 C4089 1.414 . S
C4090 C4091 1.374 . S
C4091 H4071 0.950 . S
C4091 C4087 1.385 . S
C4091 C4090 1.374 . S
C4092 C4089 1.499 . S
C4092 C4093 1.373 . S
C4092 C4094 1.389 . S
C4093 H4072 0.950 . S
C4093 C4092 1.373 . S
C4093 C4109 1.377 . S
C4094 C4092 1.389 . S
C4094 C4095 1.524 . S
C4094 C4108 1.377 . S
C4095 C4094 1.524 . S
C4095 C4096 1.397 . S
C4095 C4100 1.363 . S
C4096 H4073 0.950 . S
C4096 C4095 1.397 . S
C4096 C4097 1.334 . S
C4097 H4074 0.950 . S
C4097 C4096 1.334 . S
C4097 C4098 1.287 . S
C4098 C4097 1.287 . S
C4098 C4099 1.524 . S
C4098 H4117 0.913 . S
C4099 H4075 0.950 . S
C4099 C4098 1.524 . S
C4099 C4100 1.415 . S
C4100 H4076 0.950 . S
C4100 C4095 1.363 . S
C4100 C4099 1.415 . S
C4101 H4077 0.951 . S
C4101 C4102 1.366 . S
C4101 C4103 1.388 . S
C4102 C4101 1.366 . S
C4102 C4106 1.385 . S
C4103 H4078 0.951 . S
C4103 C4101 1.388 . S
C4103 C4104 1.366 . S
C4104 C4103 1.366 . S
C4104 C4105 1.414 . S
C4104 C4107 1.499 . S
C4105 H4079 0.950 . S
C4105 C4104 1.414 . S
C4105 C4106 1.374 . S
C4106 H4080 0.950 . S
C4106 C4102 1.385 . S
C4106 C4105 1.374 . S
C4107 C4104 1.499 . S
C4107 C4108 1.373 . S
C4107 C4109 1.389 . S
C4108 H4081 0.950 . S
C4108 C4094 1.377 . S
C4108 C4107 1.373 . S
C4109 C4093 1.377 . S
C4109 C4107 1.389 . S
C4109 C4110 1.524 . S
C4110 C4109 1.524 . S
C4110 C4111 1.397 . S
C4110 C4115 1.363 . S
C4111 H4082 0.950 . S
C4111 C4110 1.397 . S
C4111 C4112 1.334 . S
C4112 H4083 0.950 . S
C4112 C4111 1.334 . S
C4112 C4113 1.287 . S
C4113 C4112 1.287 . S
C4113 C4114 1.524 . S
C4113 H4116 0.999 . S
C4114 H4084 0.950 . S
C4114 C4113 1.524 . S
C4114 C4115 1.415 . S
C4115 H4085 0.950 . S
C4115 C4110 1.363 . S
C4115 C4114 1.415 . S
H4116 C4113 0.999 . S
H4117 C4098 0.913 . S
H4118 C4136 0.951 . S
H4119 C4138 0.951 . S
H4120 C4140 0.950 . S
H4121 C4141 0.950 . S
H4122 C4143 0.950 . S
H4123 C4146 0.950 . S
H4124 C4147 0.950 . S
H4125 C4149 0.950 . S
H4126 C4150 0.950 . S
H4127 C4151 0.951 . S
H4128 C4153 0.951 . S
H4129 C4155 0.950 . S
H4130 C4156 0.950 . S
H4131 C4158 0.950 . S
H4132 C4161 0.950 . S
H4133 C4162 0.950 . S
H4134 C4164 0.950 . S
H4135 C4165 0.950 . S
C4136 H4118 0.951 . S
C4136 C4137 1.366 . S
C4136 C4138 1.388 . S
C4137 C4136 1.366 . S
C4137 C4141 1.385 . S
C4138 H4119 0.951 . S
C4138 C4136 1.388 . S
C4138 C4139 1.366 . S
C4139 C4138 1.366 . S
C4139 C4140 1.414 . S
C4139 C4142 1.499 . S
C4140 H4120 0.950 . S
C4140 C4139 1.414 . S
C4140 C4141 1.374 . S
C4141 H4121 0.950 . S
C4141 C4137 1.385 . S
C4141 C4140 1.374 . S
C4142 C4139 1.499 . S
C4142 C4143 1.373 . S
C4142 C4144 1.389 . S
C4143 H4122 0.950 . S
C4143 C4142 1.373 . S
C4143 C4159 1.377 . S
C4144 C4142 1.389 . S
C4144 C4145 1.524 . S
C4144 C4158 1.377 . S
C4145 C4144 1.524 . S
C4145 C4146 1.397 . S
C4145 C4150 1.363 . S
C4146 H4123 0.950 . S
C4146 C4145 1.397 . S
C4146 C4147 1.334 . S
C4147 H4124 0.950 . S
C4147 C4146 1.334 . S
C4147 C4148 1.287 . S
C4148 C4147 1.287 . S
C4148 C4149 1.524 . S
C4148 H4167 0.913 . S
C4149 H4125 0.950 . S
C4149 C4148 1.524 . S
C4149 C4150 1.415 . S
C4150 H4126 0.950 . S
C4150 C4145 1.363 . S
C4150 C4149 1.415 . S
C4151 H4127 0.951 . S
C4151 C4152 1.366 . S
C4151 C4153 1.388 . S
C4152 C4151 1.366 . S
C4152 C4156 1.385 . S
C4153 H4128 0.951 . S
C4153 C4151 1.388 . S
C4153 C4154 1.366 . S
C4154 C4153 1.366 . S
C4154 C4155 1.414 . S
C4154 C4157 1.499 . S
C4155 H4129 0.950 . S
C4155 C4154 1.414 . S
C4155 C4156 1.374 . S
C4156 H4130 0.950 . S
C4156 C4152 1.385 . S
C4156 C4155 1.374 . S
C4157 C4154 1.499 . S
C4157 C4158 1.373 . S
C4157 C4159 1.389 . S
C4158 H4131 0.950 . S
C4158 C4144 1.377 . S
C4158 C4157 1.373 . S
C4159 C4143 1.377 . S
C4159 C4157 1.389 . S
C4159 C4160 1.524 . S
C4160 C4159 1.524 . S
C4160 C4161 1.397 . S
C4160 C4165 1.363 . S
C4161 H4132 0.950 . S
C4161 C4160 1.397 . S
C4161 C4162 1.334 . S
C4162 H4133 0.950 . S
C4162 C4161 1.334 . S
C4162 C4163 1.287 . S
C4163 C4162 1.287 . S
C4163 C4164 1.524 . S
C4163 H4166 0.999 . S
C4164 H4134 0.950 . S
C4164 C4163 1.524 . S
C4164 C4165 1.415 . S
C4165 H4135 0.950 . S
C4165 C4160 1.363 . S
C4165 C4164 1.415 . S
H4166 C4163 0.999 . S
H4167 C4148 0.913 . S
H4168 C4186 0.951 . S
H4169 C4188 0.951 . S
H4170 C4190 0.950 . S
H4171 C4191 0.950 . S
H4172 C4193 0.950 . S
H4173 C4196 0.950 . S
H4174 C4197 0.950 . S
H4175 C4199 0.950 . S
H4176 C4200 0.950 . S
H4177 C4201 0.951 . S
H4178 C4203 0.951 . S
H4179 C4205 0.950 . S
H4180 C4206 0.950 . S
H4181 C4208 0.950 . S
H4182 C4211 0.950 . S
H4183 C4212 0.950 . S
H4184 C4214 0.950 . S
H4185 C4215 0.950 . S
C4186 H4168 0.951 . S
C4186 C4187 1.366 . S
C4186 C4188 1.388 . S
C4187 C4186 1.366 . S
C4187 C4191 1.385 . S
C4188 H4169 0.951 . S
C4188 C4186 1.388 . S
C4188 C4189 1.366 . S
C4189 C4188 1.366 . S
C4189 C4190 1.414 . S
C4189 C4192 1.499 . S
C4190 H4170 0.950 . S
C4190 C4189 1.414 . S
C4190 C4191 1.374 . S
C4191 H4171 0.950 . S
C4191 C4187 1.385 . S
C4191 C4190 1.374 . S
C4192 C4189 1.499 . S
C4192 C4193 1.373 . S
C4192 C4194 1.389 . S
C4193 H4172 0.950 . S
C4193 C4192 1.373 . S
C4193 C4209 1.377 . S
C4194 C4192 1.389 . S
C4194 C4195 1.524 . S
C4194 C4208 1.377 . S
C4195 C4194 1.524 . S
C4195 C4196 1.397 . S
C4195 C4200 1.363 . S
C4196 H4173 0.950 . S
C4196 C4195 1.397 . S
C4196 C4197 1.334 . S
C4197 H4174 0.950 . S
C4197 C4196 1.334 . S
C4197 C4198 1.287 . S
C4198 C4197 1.287 . S
C4198 C4199 1.524 . S
C4198 H4217 0.913 . S
C4199 H4175 0.950 . S
C4199 C4198 1.524 . S
C4199 C4200 1.415 . S
C4200 H4176 0.950 . S
C4200 C4195 1.363 . S
C4200 C4199 1.415 . S
C4201 H4177 0.951 . S
C4201 C4202 1.366 . S
C4201 C4203 1.388 . S
C4202 C4201 1.366 . S
C4202 C4206 1.385 . S
C4203 H4178 0.951 . S
C4203 C4201 1.388 . S
C4203 C4204 1.366 . S
C4204 C4203 1.366 . S
C4204 C4205 1.414 . S
C4204 C4207 1.499 . S
C4205 H4179 0.950 . S
C4205 C4204 1.414 . S
C4205 C4206 1.374 . S
C4206 H4180 0.950 . S
C4206 C4202 1.385 . S
C4206 C4205 1.374 . S
C4207 C4204 1.499 . S
C4207 C4208 1.373 . S
C4207 C4209 1.389 . S
C4208 H4181 0.950 . S
C4208 C4194 1.377 . S
C4208 C4207 1.373 . S
C4209 C4193 1.377 . S
C4209 C4207 1.389 . S
C4209 C4210 1.524 . S
C4210 C4209 1.524 . S
C4210 C4211 1.397 . S
C4210 C4215 1.363 . S
C4211 H4182 0.950 . S
C4211 C4210 1.397 . S
C4211 C4212 1.334 . S
C4212 H4183 0.950 . S
C4212 C4211 1.334 . S
C4212 C4213 1.287 . S
C4213 C4212 1.287 . S
C4213 C4214 1.524 . S
C4213 H4216 0.999 . S
C4214 H4184 0.950 . S
C4214 C4213 1.524 . S
C4214 C4215 1.415 . S
C4215 H4185 0.950 . S
C4215 C4210 1.363 . S
C4215 C4214 1.415 . S
H4216 C4213 0.999 . S
H4217 C4198 0.913 . S
H4218 C4236 0.951 . S
H4219 C4238 0.951 . S
H4220 C4240 0.950 . S
H4221 C4241 0.950 . S
H4222 C4243 0.950 . S
H4223 C4246 0.950 . S
H4224 C4247 0.950 . S
H4225 C4249 0.950 . S
H4226 C4250 0.950 . S
H4227 C4251 0.951 . S
H4228 C4253 0.951 . S
H4229 C4255 0.950 . S
H4230 C4256 0.950 . S
H4231 C4258 0.950 . S
H4232 C4261 0.950 . S
H4233 C4262 0.950 . S
H4234 C4264 0.950 . S
H4235 C4265 0.950 . S
C4236 H4218 0.951 . S
C4236 C4237 1.366 . S
C4236 C4238 1.388 . S
C4237 C4236 1.366 . S
C4237 C4241 1.385 . S
C4238 H4219 0.951 . S
C4238 C4236 1.388 . S
C4238 C4239 1.366 . S
C4239 C4238 1.366 . S
C4239 C4240 1.414 . S
C4239 C4242 1.499 . S
C4240 H4220 0.950 . S
C4240 C4239 1.414 . S
C4240 C4241 1.374 . S
C4241 H4221 0.950 . S
C4241 C4237 1.385 . S
C4241 C4240 1.374 . S
C4242 C4239 1.499 . S
C4242 C4243 1.373 . S
C4242 C4244 1.389 . S
C4243 H4222 0.950 . S
C4243 C4242 1.373 . S
C4243 C4259 1.377 . S
C4244 C4242 1.389 . S
C4244 C4245 1.524 . S
C4244 C4258 1.377 . S
C4245 C4244 1.524 . S
C4245 C4246 1.397 . S
C4245 C4250 1.363 . S
C4246 H4223 0.950 . S
C4246 C4245 1.397 . S
C4246 C4247 1.334 . S
C4247 H4224 0.950 . S
C4247 C4246 1.334 . S
C4247 C4248 1.287 . S
C4248 C4247 1.287 . S
C4248 C4249 1.524 . S
C4248 H4267 0.913 . S
C4249 H4225 0.950 . S
C4249 C4248 1.524 . S
C4249 C4250 1.415 . S
C4250 H4226 0.950 . S
C4250 C4245 1.363 . S
C4250 C4249 1.415 . S
C4251 H4227 0.951 . S
C4251 C4252 1.366 . S
C4251 C4253 1.388 . S
C4252 C4251 1.366 . S
C4252 C4256 1.385 . S
C4253 H4228 0.951 . S
C4253 C4251 1.388 . S
C4253 C4254 1.366 . S
C4254 C4253 1.366 . S
C4254 C4255 1.414 . S
C4254 C4257 1.499 . S
C4255 H4229 0.950 . S
C4255 C4254 1.414 . S
C4255 C4256 1.374 . S
C4256 H4230 0.950 . S
C4256 C4252 1.385 . S
C4256 C4255 1.374 . S
C4257 C4254 1.499 . S
C4257 C4258 1.373 . S
C4257 C4259 1.389 . S
C4258 H4231 0.950 . S
C4258 C4244 1.377 . S
C4258 C4257 1.373 . S
C4259 C4243 1.377 . S
C4259 C4257 1.389 . S
C4259 C4260 1.524 . S
C4260 C4259 1.524 . S
C4260 C4261 1.397 . S
C4260 C4265 1.363 . S
C4261 H4232 0.950 . S
C4261 C4260 1.397 . S
C4261 C4262 1.334 . S
C4262 H4233 0.950 . S
C4262 C4261 1.334 . S
C4262 C4263 1.287 . S
C4263 C4262 1.287 . S
C4263 C4264 1.524 . S
C4263 H4266 0.999 . S
C4264 H4234 0.950 . S
C4264 C4263 1.524 . S
C4264 C4265 1.415 . S
C4265 H4235 0.950 . S
C4265 C4260 1.363 . S
C4265 C4264 1.415 . S
H4266 C4263 0.999 . S
H4267 C4248 0.913 . S
H4268 C4286 0.951 . S
H4269 C4288 0.951 . S
H4270 C4290 0.950 . S
H4271 C4291 0.950 . S
H4272 C4293 0.950 . S
H4273 C4296 0.950 . S
H4274 C4297 0.950 . S
H4275 C4299 0.950 . S
H4276 C4300 0.950 . S
H4277 C4301 0.951 . S
H4278 C4303 0.951 . S
H4279 C4305 0.950 . S
H4280 C4306 0.950 . S
H4281 C4308 0.950 . S
H4282 C4311 0.950 . S
H4283 C4312 0.950 . S
H4284 C4314 0.950 . S
H4285 C4315 0.950 . S
C4286 H4268 0.951 . S
C4286 C4287 1.366 . S
C4286 C4288 1.388 . S
C4287 C4286 1.366 . S
C4287 C4291 1.385 . S
C4288 H4269 0.951 . S
C4288 C4286 1.388 . S
C4288 C4289 1.366 . S
C4289 C4288 1.366 . S
C4289 C4290 1.414 . S
C4289 C4292 1.499 . S
C4290 H4270 0.950 . S
C4290 C4289 1.414 . S
C4290 C4291 1.374 . S
C4291 H4271 0.950 . S
C4291 C4287 1.385 . S
C4291 C4290 1.374 . S
C4292 C4289 1.499 . S
C4292 C4293 1.373 . S
C4292 C4294 1.389 . S
C4293 H4272 0.950 . S
C4293 C4292 1.373 . S
C4293 C4309 1.377 . S
C4294 C4292 1.389 . S
C4294 C4295 1.524 . S
C4294 C4308 1.377 . S
C4295 C4294 1.524 . S
C4295 C4296 1.397 . S
C4295 C4300 1.363 . S
C4296 H4273 0.950 . S
C4296 C4295 1.397 . S
C4296 C4297 1.334 . S
C4297 H4274 0.950 . S
C4297 C4296 1.334 . S
C4297 C4298 1.287 . S
C4298 C4297 1.287 . S
C4298 C4299 1.524 . S
C4298 H4317 0.913 . S
C4299 H4275 0.950 . S
C4299 C4298 1.524 . S
C4299 C4300 1.415 . S
C4300 H4276 0.950 . S
C4300 C4295 1.363 . S
C4300 C4299 1.415 . S
C4301 H4277 0.951 . S
C4301 C4302 1.366 . S
C4301 C4303 1.388 . S
C4302 C4301 1.366 . S
C4302 C4306 1.385 . S
C4303 H4278 0.951 . S
C4303 C4301 1.388 . S
C4303 C4304 1.366 . S
C4304 C4303 1.366 . S
C4304 C4305 1.414 . S
C4304 C4307 1.499 . S
C4305 H4279 0.950 . S
C4305 C4304 1.414 . S
C4305 C4306 1.374 . S
C4306 H4280 0.950 . S
C4306 C4302 1.385 . S
C4306 C4305 1.374 . S
C4307 C4304 1.499 . S
C4307 C4308 1.373 . S
C4307 C4309 1.389 . S
C4308 H4281 0.950 . S
C4308 C4294 1.377 . S
C4308 C4307 1.373 . S
C4309 C4293 1.377 . S
C4309 C4307 1.389 . S
C4309 C4310 1.524 . S
C4310 C4309 1.524 . S
C4310 C4311 1.397 . S
C4310 C4315 1.363 . S
C4311 H4282 0.950 . S
C4311 C4310 1.397 . S
C4311 C4312 1.334 . S
C4312 H4283 0.950 . S
C4312 C4311 1.334 . S
C4312 C4313 1.287 . S
C4313 C4312 1.287 . S
C4313 C4314 1.524 . S
C4313 H4316 0.999 . S
C4314 H4284 0.950 . S
C4314 C4313 1.524 . S
C4314 C4315 1.415 . S
C4315 H4285 0.950 . S
C4315 C4310 1.363 . S
C4315 C4314 1.415 . S
H4316 C4313 0.999 . S
H4317 C4298 0.913 . S
H4318 C4336 0.951 . S
H4319 C4338 0.951 . S
H4320 C4340 0.950 . S
H4321 C4341 0.950 . S
H4322 C4343 0.950 . S
H4323 C4346 0.950 . S
H4324 C4347 0.950 . S
H4325 C4349 0.950 . S
H4326 C4350 0.950 . S
H4327 C4351 0.951 . S
H4328 C4353 0.951 . S
H4329 C4355 0.950 . S
H4330 C4356 0.950 . S
H4331 C4358 0.950 . S
H4332 C4361 0.950 . S
H4333 C4362 0.950 . S
H4334 C4364 0.950 . S
H4335 C4365 0.950 . S
C4336 H4318 0.951 . S
C4336 C4337 1.366 . S
C4336 C4338 1.388 . S
C4337 C4336 1.366 . S
C4337 C4341 1.385 . S
C4338 H4319 0.951 . S
C4338 C4336 1.388 . S
C4338 C4339 1.366 . S
C4339 C4338 1.366 . S
C4339 C4340 1.414 . S
C4339 C4342 1.499 . S
C4340 H4320 0.950 . S
C4340 C4339 1.414 . S
C4340 C4341 1.374 . S
C4341 H4321 0.950 . S
C4341 C4337 1.385 . S
C4341 C4340 1.374 . S
C4342 C4339 1.499 . S
C4342 C4343 1.373 . S
C4342 C4344 1.389 . S
C4343 H4322 0.950 . S
C4343 C4342 1.373 . S
C4343 C4359 1.377 . S
C4344 C4342 1.389 . S
C4344 C4345 1.524 . S
C4344 C4358 1.377 . S
C4345 C4344 1.524 . S
C4345 C4346 1.397 . S
C4345 C4350 1.363 . S
C4346 H4323 0.950 . S
C4346 C4345 1.397 . S
C4346 C4347 1.334 . S
C4347 H4324 0.950 . S
C4347 C4346 1.334 . S
C4347 C4348 1.287 . S
C4348 C4347 1.287 . S
C4348 C4349 1.524 . S
C4348 H4367 0.913 . S
C4349 H4325 0.950 . S
C4349 C4348 1.524 . S
C4349 C4350 1.415 . S
C4350 H4326 0.950 . S
C4350 C4345 1.363 . S
C4350 C4349 1.415 . S
C4351 H4327 0.951 . S
C4351 C4352 1.366 . S
C4351 C4353 1.388 . S
C4352 C4351 1.366 . S
C4352 C4356 1.385 . S
C4353 H4328 0.951 . S
C4353 C4351 1.388 . S
C4353 C4354 1.366 . S
C4354 C4353 1.366 . S
C4354 C4355 1.414 . S
C4354 C4357 1.499 . S
C4355 H4329 0.950 . S
C4355 C4354 1.414 . S
C4355 C4356 1.374 . S
C4356 H4330 0.950 . S
C4356 C4352 1.385 . S
C4356 C4355 1.374 . S
C4357 C4354 1.499 . S
C4357 C4358 1.373 . S
C4357 C4359 1.389 . S
C4358 H4331 0.950 . S
C4358 C4344 1.377 . S
C4358 C4357 1.373 . S
C4359 C4343 1.377 . S
C4359 C4357 1.389 . S
C4359 C4360 1.524 . S
C4360 C4359 1.524 . S
C4360 C4361 1.397 . S
C4360 C4365 1.363 . S
C4361 H4332 0.950 . S
C4361 C4360 1.397 . S
C4361 C4362 1.334 . S
C4362 H4333 0.950 . S
C4362 C4361 1.334 . S
C4362 C4363 1.287 . S
C4363 C4362 1.287 . S
C4363 C4364 1.524 . S
C4363 H4366 0.999 . S
C4364 H4334 0.950 . S
C4364 C4363 1.524 . S
C4364 C4365 1.415 . S
C4365 H4335 0.950 . S
C4365 C4360 1.363 . S
C4365 C4364 1.415 . S
H4366 C4363 0.999 . S
H4367 C4348 0.913 . S
H4368 C4386 0.951 . S
H4369 C4388 0.951 . S
H4370 C4390 0.950 . S
H4371 C4391 0.950 . S
H4372 C4393 0.950 . S
H4373 C4396 0.950 . S
H4374 C4397 0.950 . S
H4375 C4399 0.950 . S
H4376 C4400 0.950 . S
H4377 C4401 0.951 . S
H4378 C4403 0.951 . S
H4379 C4405 0.950 . S
H4380 C4406 0.950 . S
H4381 C4408 0.950 . S
H4382 C4411 0.950 . S
H4383 C4412 0.950 . S
H4384 C4414 0.950 . S
H4385 C4415 0.950 . S
C4386 H4368 0.951 . S
C4386 C4387 1.366 . S
C4386 C4388 1.388 . S
C4387 C4386 1.366 . S
C4387 C4391 1.385 . S
C4388 H4369 0.951 . S
C4388 C4386 1.388 . S
C4388 C4389 1.366 . S
C4389 C4388 1.366 . S
C4389 C4390 1.414 . S
C4389 C4392 1.499 . S
C4390 H4370 0.950 . S
C4390 C4389 1.414 . S
C4390 C4391 1.374 . S
C4391 H4371 0.950 . S
C4391 C4387 1.385 . S
C4391 C4390 1.374 . S
C4392 C4389 1.499 . S
C4392 C4393 1.373 . S
C4392 C4394 1.389 . S
C4393 H4372 0.950 . S
C4393 C4392 1.373 . S
C4393 C4409 1.377 . S
C4394 C4392 1.389 . S
C4394 C4395 1.524 . S
C4394 C4408 1.377 . S
C4395 C4394 1.524 . S
C4395 C4396 1.397 . S
C4395 C4400 1.363 . S
C4396 H4373 0.950 . S
C4396 C4395 1.397 . S
C4396 C4397 1.334 . S
C4397 H4374 0.950 . S
C4397 C4396 1.334 . S
C4397 C4398 1.287 . S
C4398 C4397 1.287 . S
C4398 C4399 1.524 . S
C4398 H4417 0.913 . S
C4399 H4375 0.950 . S
C4399 C4398 1.524 . S
C4399 C4400 1.415 . S
C4400 H4376 0.950 . S
C4400 C4395 1.363 . S
C4400 C4399 1.415 . S
C4401 H4377 0.951 . S
C4401 C4402 1.366 . S
C4401 C4403 1.388 . S
C4402 C4401 1.366 . S
C4402 C4406 1.385 . S
C4403 H4378 0.951 . S
C4403 C4401 1.388 . S
C4403 C4404 1.366 . S
C4404 C4403 1.366 . S
C4404 C4405 1.414 . S
C4404 C4407 1.499 . S
C4405 H4379 0.950 . S
C4405 C4404 1.414 . S
C4405 C4406 1.374 . S
C4406 H4380 0.950 . S
C4406 C4402 1.385 . S
C4406 C4405 1.374 . S
C4407 C4404 1.499 . S
C4407 C4408 1.373 . S
C4407 C4409 1.389 . S
C4408 H4381 0.950 . S
C4408 C4394 1.377 . S
C4408 C4407 1.373 . S
C4409 C4393 1.377 . S
C4409 C4407 1.389 . S
C4409 C4410 1.524 . S
C4410 C4409 1.524 . S
C4410 C4411 1.397 . S
C4410 C4415 1.363 . S
C4411 H4382 0.950 . S
C4411 C4410 1.397 . S
C4411 C4412 1.334 . S
C4412 H4383 0.950 . S
C4412 C4411 1.334 . S
C4412 C4413 1.287 . S
C4413 C4412 1.287 . S
C4413 C4414 1.524 . S
C4413 H4416 0.999 . S
C4414 H4384 0.950 . S
C4414 C4413 1.524 . S
C4414 C4415 1.415 . S
C4415 H4385 0.950 . S
C4415 C4410 1.363 . S
C4415 C4414 1.415 . S
H4416 C4413 0.999 . S
H4417 C4398 0.913 . S
H4418 C4436 0.951 . S
H4419 C4438 0.951 . S
H4420 C4440 0.950 . S
H4421 C4441 0.950 . S
H4422 C4443 0.950 . S
H4423 C4446 0.950 . S
H4424 C4447 0.950 . S
H4425 C4449 0.950 . S
H4426 C4450 0.950 . S
H4427 C4451 0.951 . S
H4428 C4453 0.951 . S
H4429 C4455 0.950 . S
H4430 C4456 0.950 . S
H4431 C4458 0.950 . S
H4432 C4461 0.950 . S
H4433 C4462 0.950 . S
H4434 C4464 0.950 . S
H4435 C4465 0.950 . S
C4436 H4418 0.951 . S
C4436 C4437 1.366 . S
C4436 C4438 1.388 . S
C4437 C4436 1.366 . S
C4437 C4441 1.385 . S
C4438 H4419 0.951 . S
C4438 C4436 1.388 . S
C4438 C4439 1.366 . S
C4439 C4438 1.366 . S
C4439 C4440 1.414 . S
C4439 C4442 1.499 . S
C4440 H4420 0.950 . S
C4440 C4439 1.414 . S
C4440 C4441 1.374 . S
C4441 H4421 0.950 . S
C4441 C4437 1.385 . S
C4441 C4440 1.374 . S
C4442 C4439 1.499 . S
C4442 C4443 1.373 . S
C4442 C4444 1.389 . S
C4443 H4422 0.950 . S
C4443 C4442 1.373 . S
C4443 C4459 1.377 . S
C4444 C4442 1.389 . S
C4444 C4445 1.524 . S
C4444 C4458 1.377 . S
C4445 C4444 1.524 . S
C4445 C4446 1.397 . S
C4445 C4450 1.363 . S
C4446 H4423 0.950 . S
C4446 C4445 1.397 . S
C4446 C4447 1.334 . S
C4447 H4424 0.950 . S
C4447 C4446 1.334 . S
C4447 C4448 1.287 . S
C4448 C4447 1.287 . S
C4448 C4449 1.524 . S
C4448 H4467 0.913 . S
C4449 H4425 0.950 . S
C4449 C4448 1.524 . S
C4449 C4450 1.415 . S
C4450 H4426 0.950 . S
C4450 C4445 1.363 . S
C4450 C4449 1.415 . S
C4451 H4427 0.951 . S
C4451 C4452 1.366 . S
C4451 C4453 1.388 . S
C4452 C4451 1.366 . S
C4452 C4456 1.385 . S
C4453 H4428 0.951 . S
C4453 C4451 1.388 . S
C4453 C4454 1.366 . S
C4454 C4453 1.366 . S
C4454 C4455 1.414 . S
C4454 C4457 1.499 . S
C4455 H4429 0.950 . S
C4455 C4454 1.414 . S
C4455 C4456 1.374 . S
C4456 H4430 0.950 . S
C4456 C4452 1.385 . S
C4456 C4455 1.374 . S
C4457 C4454 1.499 . S
C4457 C4458 1.373 . S
C4457 C4459 1.389 . S
C4458 H4431 0.950 . S
C4458 C4444 1.377 . S
C4458 C4457 1.373 . S
C4459 C4443 1.377 . S
C4459 C4457 1.389 . S
C4459 C4460 1.524 . S
C4460 C4459 1.524 . S
C4460 C4461 1.397 . S
C4460 C4465 1.363 . S
C4461 H4432 0.950 . S
C4461 C4460 1.397 . S
C4461 C4462 1.334 . S
C4462 H4433 0.950 . S
C4462 C4461 1.334 . S
C4462 C4463 1.287 . S
C4463 C4462 1.287 . S
C4463 C4464 1.524 . S
C4463 H4466 0.999 . S
C4464 H4434 0.950 . S
C4464 C4463 1.524 . S
C4464 C4465 1.415 . S
C4465 H4435 0.950 . S
C4465 C4460 1.363 . S
C4465 C4464 1.415 . S
H4466 C4463 0.999 . S
H4467 C4448 0.913 . S
H4468 C4486 0.951 . S
H4469 C4488 0.951 . S
H4470 C4490 0.950 . S
H4471 C4491 0.950 . S
H4472 C4493 0.950 . S
H4473 C4496 0.950 . S
H4474 C4497 0.950 . S
H4475 C4499 0.950 . S
H4476 C4500 0.950 . S
H4477 C4501 0.951 . S
H4478 C4503 0.951 . S
H4479 C4505 0.950 . S
H4480 C4506 0.950 . S
H4481 C4508 0.950 . S
H4482 C4511 0.950 . S
H4483 C4512 0.950 . S
H4484 C4514 0.950 . S
H4485 C4515 0.950 . S
C4486 H4468 0.951 . S
C4486 C4487 1.366 . S
C4486 C4488 1.388 . S
C4487 C4486 1.366 . S
C4487 C4491 1.385 . S
C4488 H4469 0.951 . S
C4488 C4486 1.388 . S
C4488 C4489 1.366 . S
C4489 C4488 1.366 . S
C4489 C4490 1.414 . S
C4489 C4492 1.499 . S
C4490 H4470 0.950 . S
C4490 C4489 1.414 . S
C4490 C4491 1.374 . S
C4491 H4471 0.950 . S
C4491 C4487 1.385 . S
C4491 C4490 1.374 . S
C4492 C4489 1.499 . S
C4492 C4493 1.373 . S
C4492 C4494 1.389 . S
C4493 H4472 0.950 . S
C4493 C4492 1.373 . S
C4493 C4509 1.377 . S
C4494 C4492 1.389 . S
C4494 C4495 1.524 . S
C4494 C4508 1.377 . S
C4495 C4494 1.524 . S
C4495 C4496 1.397 . S
C4495 C4500 1.363 . S
C4496 H4473 0.950 . S
C4496 C4495 1.397 . S
C4496 C4497 1.334 . S
C4497 H4474 0.950 . S
C4497 C4496 1.334 . S
C4497 C4498 1.287 . S
C4498 C4497 1.287 . S
C4498 C4499 1.524 . S
C4498 H4517 0.913 . S
C4499 H4475 0.950 . S
C4499 C4498 1.524 . S
C4499 C4500 1.415 . S
C4500 H4476 0.950 . S
C4500 C4495 1.363 . S
C4500 C4499 1.415 . S
C4501 H4477 0.951 . S
C4501 C4502 1.366 . S
C4501 C4503 1.388 . S
C4502 C4501 1.366 . S
C4502 C4506 1.385 . S
C4503 H4478 0.951 . S
C4503 C4501 1.388 . S
C4503 C4504 1.366 . S
C4504 C4503 1.366 . S
C4504 C4505 1.414 . S
C4504 C4507 1.499 . S
C4505 H4479 0.950 . S
C4505 C4504 1.414 . S
C4505 C4506 1.374 . S
C4506 H4480 0.950 . S
C4506 C4502 1.385 . S
C4506 C4505 1.374 . S
C4507 C4504 1.499 . S
C4507 C4508 1.373 . S
C4507 C4509 1.389 . S
C4508 H4481 0.950 . S
C4508 C4494 1.377 . S
C4508 C4507 1.373 . S
C4509 C4493 1.377 . S
C4509 C4507 1.389 . S
C4509 C4510 1.524 . S
C4510 C4509 1.524 . S
C4510 C4511 1.397 . S
C4510 C4515 1.363 . S
C4511 H4482 0.950 . S
C4511 C4510 1.397 . S
C4511 C4512 1.334 . S
C4512 H4483 0.950 . S
C4512 C4511 1.334 . S
C4512 C4513 1.287 . S
C4513 C4512 1.287 . S
C4513 C4514 1.524 . S
C4513 H4516 0.999 . S
C4514 H4484 0.950 . S
C4514 C4513 1.524 . S
C4514 C4515 1.415 . S
C4515 H4485 0.950 . S
C4515 C4510 1.363 . S
C4515 C4514 1.415 . S
H4516 C4513 0.999 . S
H4517 C4498 0.913 . S
H4518 C4536 0.951 . S
H4519 C4538 0.951 . S
H4520 C4540 0.950 . S
H4521 C4541 0.950 . S
H4522 C4543 0.950 . S
H4523 C4546 0.950 . S
H4524 C4547 0.950 . S
H4525 C4549 0.950 . S
H4526 C4550 0.950 . S
H4527 C4551 0.951 . S
H4528 C4553 0.951 . S
H4529 C4555 0.950 . S
H4530 C4556 0.950 . S
H4531 C4558 0.950 . S
H4532 C4561 0.950 . S
H4533 C4562 0.950 . S
H4534 C4564 0.950 . S
H4535 C4565 0.950 . S
C4536 H4518 0.951 . S
C4536 C4537 1.366 . S
C4536 C4538 1.388 . S
C4537 C4536 1.366 . S
C4537 C4541 1.385 . S
C4538 H4519 0.951 . S
C4538 C4536 1.388 . S
C4538 C4539 1.366 . S
C4539 C4538 1.366 . S
C4539 C4540 1.414 . S
C4539 C4542 1.499 . S
C4540 H4520 0.950 . S
C4540 C4539 1.414 . S
C4540 C4541 1.374 . S
C4541 H4521 0.950 . S
C4541 C4537 1.385 . S
C4541 C4540 1.374 . S
C4542 C4539 1.499 . S
C4542 C4543 1.373 . S
C4542 C4544 1.389 . S
C4543 H4522 0.950 . S
C4543 C4542 1.373 . S
C4543 C4559 1.377 . S
C4544 C4542 1.389 . S
C4544 C4545 1.524 . S
C4544 C4558 1.377 . S
C4545 C4544 1.524 . S
C4545 C4546 1.397 . S
C4545 C4550 1.363 . S
C4546 H4523 0.950 . S
C4546 C4545 1.397 . S
C4546 C4547 1.334 . S
C4547 H4524 0.950 . S
C4547 C4546 1.334 . S
C4547 C4548 1.287 . S
C4548 C4547 1.287 . S
C4548 C4549 1.524 . S
C4548 H4567 0.913 . S
C4549 H4525 0.950 . S
C4549 C4548 1.524 . S
C4549 C4550 1.415 . S
C4550 H4526 0.950 . S
C4550 C4545 1.363 . S
C4550 C4549 1.415 . S
C4551 H4527 0.951 . S
C4551 C4552 1.366 . S
C4551 C4553 1.388 . S
C4552 C4551 1.366 . S
C4552 C4556 1.385 . S
C4553 H4528 0.951 . S
C4553 C4551 1.388 . S
C4553 C4554 1.366 . S
C4554 C4553 1.366 . S
C4554 C4555 1.414 . S
C4554 C4557 1.499 . S
C4555 H4529 0.950 . S
C4555 C4554 1.414 . S
C4555 C4556 1.374 . S
C4556 H4530 0.950 . S
C4556 C4552 1.385 . S
C4556 C4555 1.374 . S
C4557 C4554 1.499 . S
C4557 C4558 1.373 . S
C4557 C4559 1.389 . S
C4558 H4531 0.950 . S
C4558 C4544 1.377 . S
C4558 C4557 1.373 . S
C4559 C4543 1.377 . S
C4559 C4557 1.389 . S
C4559 C4560 1.524 . S
C4560 C4559 1.524 . S
C4560 C4561 1.397 . S
C4560 C4565 1.363 . S
C4561 H4532 0.950 . S
C4561 C4560 1.397 . S
C4561 C4562 1.334 . S
C4562 H4533 0.950 . S
C4562 C4561 1.334 . S
C4562 C4563 1.287 . S
C4563 C4562 1.287 . S
C4563 C4564 1.524 . S
C4563 H4566 0.999 . S
C4564 H4534 0.950 . S
C4564 C4563 1.524 . S
C4564 C4565 1.415 . S
C4565 H4535 0.950 . S
C4565 C4560 1.363 . S
C4565 C4564 1.415 . S
H4566 C4563 0.999 . S
H4567 C4548 0.913 . S
H4568 C4586 0.951 . S
H4569 C4588 0.951 . S
H4570 C4590 0.950 . S
H4571 C4591 0.950 . S
H4572 C4593 0.950 . S
H4573 C4596 0.950 . S
H4574 C4597 0.950 . S
H4575 C4599 0.950 . S
H4576 C4600 0.950 . S
H4577 C4601 0.951 . S
H4578 C4603 0.951 . S
H4579 C4605 0.950 . S
H4580 C4606 0.950 . S
H4581 C4608 0.950 . S
H4582 C4611 0.950 . S
H4583 C4612 0.950 . S
H4584 C4614 0.950 . S
H4585 C4615 0.950 . S
C4586 H4568 0.951 . S
C4586 C4587 1.366 . S
C4586 C4588 1.388 . S
C4587 C4586 1.366 . S
C4587 C4591 1.385 . S
C4588 H4569 0.951 . S
C4588 C4586 1.388 . S
C4588 C4589 1.366 . S
C4589 C4588 1.366 . S
C4589 C4590 1.414 . S
C4589 C4592 1.499 . S
C4590 H4570 0.950 . S
C4590 C4589 1.414 . S
C4590 C4591 1.374 . S
C4591 H4571 0.950 . S
C4591 C4587 1.385 . S
C4591 C4590 1.374 . S
C4592 C4589 1.499 . S
C4592 C4593 1.373 . S
C4592 C4594 1.389 . S
C4593 H4572 0.950 . S
C4593 C4592 1.373 . S
C4593 C4609 1.377 . S
C4594 C4592 1.389 . S
C4594 C4595 1.524 . S
C4594 C4608 1.377 . S
C4595 C4594 1.524 . S
C4595 C4596 1.397 . S
C4595 C4600 1.363 . S
C4596 H4573 0.950 . S
C4596 C4595 1.397 . S
C4596 C4597 1.334 . S
C4597 H4574 0.950 . S
C4597 C4596 1.334 . S
C4597 C4598 1.287 . S
C4598 C4597 1.287 . S
C4598 C4599 1.524 . S
C4598 H4617 0.913 . S
C4599 H4575 0.950 . S
C4599 C4598 1.524 . S
C4599 C4600 1.415 . S
C4600 H4576 0.950 . S
C4600 C4595 1.363 . S
C4600 C4599 1.415 . S
C4601 H4577 0.951 . S
C4601 C4602 1.366 . S
C4601 C4603 1.388 . S
C4602 C4601 1.366 . S
C4602 C4606 1.385 . S
C4603 H4578 0.951 . S
C4603 C4601 1.388 . S
C4603 C4604 1.366 . S
C4604 C4603 1.366 . S
C4604 C4605 1.414 . S
C4604 C4607 1.499 . S
C4605 H4579 0.950 . S
C4605 C4604 1.414 . S
C4605 C4606 1.374 . S
C4606 H4580 0.950 . S
C4606 C4602 1.385 . S
C4606 C4605 1.374 . S
C4607 C4604 1.499 . S
C4607 C4608 1.373 . S
C4607 C4609 1.389 . S
C4608 H4581 0.950 . S
C4608 C4594 1.377 . S
C4608 C4607 1.373 . S
C4609 C4593 1.377 . S
C4609 C4607 1.389 . S
C4609 C4610 1.524 . S
C4610 C4609 1.524 . S
C4610 C4611 1.397 . S
C4610 C4615 1.363 . S
C4611 H4582 0.950 . S
C4611 C4610 1.397 . S
C4611 C4612 1.334 . S
C4612 H4583 0.950 . S
C4612 C4611 1.334 . S
C4612 C4613 1.287 . S
C4613 C4612 1.287 . S
C4613 C4614 1.524 . S
C4613 H4616 0.999 . S
C4614 H4584 0.950 . S
C4614 C4613 1.524 . S
C4614 C4615 1.415 . S
C4615 H4585 0.950 . S
C4615 C4610 1.363 . S
C4615 C4614 1.415 . S
H4616 C4613 0.999 . S
H4617 C4598 0.913 . S
H4618 C4636 0.951 . S
H4619 C4638 0.951 . S
H4620 C4640 0.950 . S
H4621 C4641 0.950 . S
H4622 C4643 0.950 . S
H4623 C4646 0.950 . S
H4624 C4647 0.950 . S
H4625 C4649 0.950 . S
H4626 C4650 0.950 . S
H4627 C4651 0.951 . S
H4628 C4653 0.951 . S
H4629 C4655 0.950 . S
H4630 C4656 0.950 . S
H4631 C4658 0.950 . S
H4632 C4661 0.950 . S
H4633 C4662 0.950 . S
H4634 C4664 0.950 . S
H4635 C4665 0.950 . S
C4636 H4618 0.951 . S
C4636 C4637 1.366 . S
C4636 C4638 1.388 . S
C4637 C4636 1.366 . S
C4637 C4641 1.385 . S
C4638 H4619 0.951 . S
C4638 C4636 1.388 . S
C4638 C4639 1.366 . S
C4639 C4638 1.366 . S
C4639 C4640 1.414 . S
C4639 C4642 1.499 . S
C4640 H4620 0.950 . S
C4640 C4639 1.414 . S
C4640 C4641 1.374 . S
C4641 H4621 0.950 . S
C4641 C4637 1.385 . S
C4641 C4640 1.374 . S
C4642 C4639 1.499 . S
C4642 C4643 1.373 . S
C4642 C4644 1.389 . S
C4643 H4622 0.950 . S
C4643 C4642 1.373 . S
C4643 C4659 1.377 . S
C4644 C4642 1.389 . S
C4644 C4645 1.524 . S
C4644 C4658 1.377 . S
C4645 C4644 1.524 . S
C4645 C4646 1.397 . S
C4645 C4650 1.363 . S
C4646 H4623 0.950 . S
C4646 C4645 1.397 . S
C4646 C4647 1.334 . S
C4647 H4624 0.950 . S
C4647 C4646 1.334 . S
C4647 C4648 1.287 . S
C4648 C4647 1.287 . S
C4648 C4649 1.524 . S
C4648 H4667 0.913 . S
C4649 H4625 0.950 . S
C4649 C4648 1.524 . S
C4649 C4650 1.415 . S
C4650 H4626 0.950 . S
C4650 C4645 1.363 . S
C4650 C4649 1.415 . S
C4651 H4627 0.951 . S
C4651 C4652 1.366 . S
C4651 C4653 1.388 . S
C4652 C4651 1.366 . S
C4652 C4656 1.385 . S
C4653 H4628 0.951 . S
C4653 C4651 1.388 . S
C4653 C4654 1.366 . S
C4654 C4653 1.366 . S
C4654 C4655 1.414 . S
C4654 C4657 1.499 . S
C4655 H4629 0.950 . S
C4655 C4654 1.414 . S
C4655 C4656 1.374 . S
C4656 H4630 0.950 . S
C4656 C4652 1.385 . S
C4656 C4655 1.374 . S
C4657 C4654 1.499 . S
C4657 C4658 1.373 . S
C4657 C4659 1.389 . S
C4658 H4631 0.950 . S
C4658 C4644 1.377 . S
C4658 C4657 1.373 . S
C4659 C4643 1.377 . S
C4659 C4657 1.389 . S
C4659 C4660 1.524 . S
C4660 C4659 1.524 . S
C4660 C4661 1.397 . S
C4660 C4665 1.363 . S
C4661 H4632 0.950 . S
C4661 C4660 1.397 . S
C4661 C4662 1.334 . S
C4662 H4633 0.950 . S
C4662 C4661 1.334 . S
C4662 C4663 1.287 . S
C4663 C4662 1.287 . S
C4663 C4664 1.524 . S
C4663 H4666 0.999 . S
C4664 H4634 0.950 . S
C4664 C4663 1.524 . S
C4664 C4665 1.415 . S
C4665 H4635 0.950 . S
C4665 C4660 1.363 . S
C4665 C4664 1.415 . S
H4666 C4663 0.999 . S
H4667 C4648 0.913 . S
H4668 C4686 0.951 . S
H4669 C4688 0.951 . S
H4670 C4690 0.950 . S
H4671 C4691 0.950 . S
H4672 C4693 0.950 . S
H4673 C4696 0.950 . S
H4674 C4697 0.950 . S
H4675 C4699 0.950 . S
H4676 C4700 0.950 . S
H4677 C4701 0.951 . S
H4678 C4703 0.951 . S
H4679 C4705 0.950 . S
H4680 C4706 0.950 . S
H4681 C4708 0.950 . S
H4682 C4711 0.950 . S
H4683 C4712 0.950 . S
H4684 C4714 0.950 . S
H4685 C4715 0.950 . S
C4686 H4668 0.951 . S
C4686 C4687 1.366 . S
C4686 C4688 1.388 . S
C4687 C4686 1.366 . S
C4687 C4691 1.385 . S
C4688 H4669 0.951 . S
C4688 C4686 1.388 . S
C4688 C4689 1.366 . S
C4689 C4688 1.366 . S
C4689 C4690 1.414 . S
C4689 C4692 1.499 . S
C4690 H4670 0.950 . S
C4690 C4689 1.414 . S
C4690 C4691 1.374 . S
C4691 H4671 0.950 . S
C4691 C4687 1.385 . S
C4691 C4690 1.374 . S
C4692 C4689 1.499 . S
C4692 C4693 1.373 . S
C4692 C4694 1.389 . S
C4693 H4672 0.950 . S
C4693 C4692 1.373 . S
C4693 C4709 1.377 . S
C4694 C4692 1.389 . S
C4694 C4695 1.524 . S
C4694 C4708 1.377 . S
C4695 C4694 1.524 . S
C4695 C4696 1.397 . S
C4695 C4700 1.363 . S
C4696 H4673 0.950 . S
C4696 C4695 1.397 . S
C4696 C4697 1.334 . S
C4697 H4674 0.950 . S
C4697 C4696 1.334 . S
C4697 C4698 1.287 . S
C4698 C4697 1.287 . S
C4698 C4699 1.524 . S
C4698 H4717 0.913 . S
C4699 H4675 0.950 . S
C4699 C4698 1.524 . S
C4699 C4700 1.415 . S
C4700 H4676 0.950 . S
C4700 C4695 1.363 . S
C4700 C4699 1.415 . S
C4701 H4677 0.951 . S
C4701 C4702 1.366 . S
C4701 C4703 1.388 . S
C4702 C4701 1.366 . S
C4702 C4706 1.385 . S
C4703 H4678 0.951 . S
C4703 C4701 1.388 . S
C4703 C4704 1.366 . S
C4704 C4703 1.366 . S
C4704 C4705 1.414 . S
C4704 C4707 1.499 . S
C4705 H4679 0.950 . S
C4705 C4704 1.414 . S
C4705 C4706 1.374 . S
C4706 H4680 0.950 . S
C4706 C4702 1.385 . S
C4706 C4705 1.374 . S
C4707 C4704 1.499 . S
C4707 C4708 1.373 . S
C4707 C4709 1.389 . S
C4708 H4681 0.950 . S
C4708 C4694 1.377 . S
C4708 C4707 1.373 . S
C4709 C4693 1.377 . S
C4709 C4707 1.389 . S
C4709 C4710 1.524 . S
C4710 C4709 1.524 . S
C4710 C4711 1.397 . S
C4710 C4715 1.363 . S
C4711 H4682 0.950 . S
C4711 C4710 1.397 . S
C4711 C4712 1.334 . S
C4712 H4683 0.950 . S
C4712 C4711 1.334 . S
C4712 C4713 1.287 . S
C4713 C4712 1.287 . S
C4713 C4714 1.524 . S
C4713 H4716 0.999 . S
C4714 H4684 0.950 . S
C4714 C4713 1.524 . S
C4714 C4715 1.415 . S
C4715 H4685 0.950 . S
C4715 C4710 1.363 . S
C4715 C4714 1.415 . S
H4716 C4713 0.999 . S
H4717 C4698 0.913 . S
H4718 C4736 0.951 . S
H4719 C4738 0.951 . S
H4720 C4740 0.950 . S
H4721 C4741 0.950 . S
H4722 C4743 0.950 . S
H4723 C4746 0.950 . S
H4724 C4747 0.950 . S
H4725 C4749 0.950 . S
H4726 C4750 0.950 . S
H4727 C4751 0.951 . S
H4728 C4753 0.951 . S
H4729 C4755 0.950 . S
H4730 C4756 0.950 . S
H4731 C4758 0.950 . S
H4732 C4761 0.950 . S
H4733 C4762 0.950 . S
H4734 C4764 0.950 . S
H4735 C4765 0.950 . S
C4736 H4718 0.951 . S
C4736 C4737 1.366 . S
C4736 C4738 1.388 . S
C4737 C4736 1.366 . S
C4737 C4741 1.385 . S
C4738 H4719 0.951 . S
C4738 C4736 1.388 . S
C4738 C4739 1.366 . S
C4739 C4738 1.366 . S
C4739 C4740 1.414 . S
C4739 C4742 1.499 . S
C4740 H4720 0.950 . S
C4740 C4739 1.414 . S
C4740 C4741 1.374 . S
C4741 H4721 0.950 . S
C4741 C4737 1.385 . S
C4741 C4740 1.374 . S
C4742 C4739 1.499 . S
C4742 C4743 1.373 . S
C4742 C4744 1.389 . S
C4743 H4722 0.950 . S
C4743 C4742 1.373 . S
C4743 C4759 1.377 . S
C4744 C4742 1.389 . S
C4744 C4745 1.524 . S
C4744 C4758 1.377 . S
C4745 C4744 1.524 . S
C4745 C4746 1.397 . S
C4745 C4750 1.363 . S
C4746 H4723 0.950 . S
C4746 C4745 1.397 . S
C4746 C4747 1.334 . S
C4747 H4724 0.950 . S
C4747 C4746 1.334 . S
C4747 C4748 1.287 . S
C4748 C4747 1.287 . S
C4748 C4749 1.524 . S
C4748 H4767 0.913 . S
C4749 H4725 0.950 . S
C4749 C4748 1.524 . S
C4749 C4750 1.415 . S
C4750 H4726 0.950 . S
C4750 C4745 1.363 . S
C4750 C4749 1.415 . S
C4751 H4727 0.951 . S
C4751 C4752 1.366 . S
C4751 C4753 1.388 . S
C4752 C4751 1.366 . S
C4752 C4756 1.385 . S
C4753 H4728 0.951 . S
C4753 C4751 1.388 . S
C4753 C4754 1.366 . S
C4754 C4753 1.366 . S
C4754 C4755 1.414 . S
C4754 C4757 1.499 . S
C4755 H4729 0.950 . S
C4755 C4754 1.414 . S
C4755 C4756 1.374 . S
C4756 H4730 0.950 . S
C4756 C4752 1.385 . S
C4756 C4755 1.374 . S
C4757 C4754 1.499 . S
C4757 C4758 1.373 . S
C4757 C4759 1.389 . S
C4758 H4731 0.950 . S
C4758 C4744 1.377 . S
C4758 C4757 1.373 . S
C4759 C4743 1.377 . S
C4759 C4757 1.389 . S
C4759 C4760 1.524 . S
C4760 C4759 1.524 . S
C4760 C4761 1.397 . S
C4760 C4765 1.363 . S
C4761 H4732 0.950 . S
C4761 C4760 1.397 . S
C4761 C4762 1.334 . S
C4762 H4733 0.950 . S
C4762 C4761 1.334 . S
C4762 C4763 1.287 . S
C4763 C4762 1.287 . S
C4763 C4764 1.524 . S
C4763 H4766 0.999 . S
C4764 H4734 0.950 . S
C4764 C4763 1.524 . S
C4764 C4765 1.415 . S
C4765 H4735 0.950 . S
C4765 C4760 1.363 . S
C4765 C4764 1.415 . S
H4766 C4763 0.999 . S
H4767 C4748 0.913 . S
H4768 C4786 0.951 . S
H4769 C4788 0.951 . S
H4770 C4790 0.950 . S
H4771 C4791 0.950 . S
H4772 C4793 0.950 . S
H4773 C4796 0.950 . S
H4774 C4797 0.950 . S
H4775 C4799 0.950 . S
H4776 C4800 0.950 . S
H4777 C4801 0.951 . S
H4778 C4803 0.951 . S
H4779 C4805 0.950 . S
H4780 C4806 0.950 . S
H4781 C4808 0.950 . S
H4782 C4811 0.950 . S
H4783 C4812 0.950 . S
H4784 C4814 0.950 . S
H4785 C4815 0.950 . S
C4786 H4768 0.951 . S
C4786 C4787 1.366 . S
C4786 C4788 1.388 . S
C4787 C4786 1.366 . S
C4787 C4791 1.385 . S
C4788 H4769 0.951 . S
C4788 C4786 1.388 . S
C4788 C4789 1.366 . S
C4789 C4788 1.366 . S
C4789 C4790 1.414 . S
C4789 C4792 1.499 . S
C4790 H4770 0.950 . S
C4790 C4789 1.414 . S
C4790 C4791 1.374 . S
C4791 H4771 0.950 . S
C4791 C4787 1.385 . S
C4791 C4790 1.374 . S
C4792 C4789 1.499 . S
C4792 C4793 1.373 . S
C4792 C4794 1.389 . S
C4793 H4772 0.950 . S
C4793 C4792 1.373 . S
C4793 C4809 1.377 . S
C4794 C4792 1.389 . S
C4794 C4795 1.524 . S
C4794 C4808 1.377 . S
C4795 C4794 1.524 . S
C4795 C4796 1.397 . S
C4795 C4800 1.363 . S
C4796 H4773 0.950 . S
C4796 C4795 1.397 . S
C4796 C4797 1.334 . S
C4797 H4774 0.950 . S
C4797 C4796 1.334 . S
C4797 C4798 1.287 . S
C4798 C4797 1.287 . S
C4798 C4799 1.524 . S
C4798 H4817 0.913 . S
C4799 H4775 0.950 . S
C4799 C4798 1.524 . S
C4799 C4800 1.415 . S
C4800 H4776 0.950 . S
C4800 C4795 1.363 . S
C4800 C4799 1.415 . S
C4801 H4777 0.951 . S
C4801 C4802 1.366 . S
C4801 C4803 1.388 . S
C4802 C4801 1.366 . S
C4802 C4806 1.385 . S
C4803 H4778 0.951 . S
C4803 C4801 1.388 . S
C4803 C4804 1.366 . S
C4804 C4803 1.366 . S
C4804 C4805 1.414 . S
C4804 C4807 1.499 . S
C4805 H4779 0.950 . S
C4805 C4804 1.414 . S
C4805 C4806 1.374 . S
C4806 H4780 0.950 . S
C4806 C4802 1.385 . S
C4806 C4805 1.374 . S
C4807 C4804 1.499 . S
C4807 C4808 1.373 . S
C4807 C4809 1.389 . S
C4808 H4781 0.950 . S
C4808 C4794 1.377 . S
C4808 C4807 1.373 . S
C4809 C4793 1.377 . S
C4809 C4807 1.389 . S
C4809 C4810 1.524 . S
C4810 C4809 1.524 . S
C4810 C4811 1.397 . S
C4810 C4815 1.363 . S
C4811 H4782 0.950 . S
C4811 C4810 1.397 . S
C4811 C4812 1.334 . S
C4812 H4783 0.950 . S
C4812 C4811 1.334 . S
C4812 C4813 1.287 . S
C4813 C4812 1.287 . S
C4813 C4814 1.524 . S
C4813 H4816 0.999 . S
C4814 H4784 0.950 . S
C4814 C4813 1.524 . S
C4814 C4815 1.415 . S
C4815 H4785 0.950 . S
C4815 C4810 1.363 . S
C4815 C4814 1.415 . S
H4816 C4813 0.999 . S
H4817 C4798 0.913 . S
H4818 C4836 0.951 . S
H4819 C4838 0.951 . S
H4820 C4840 0.950 . S
H4821 C4841 0.950 . S
H4822 C4843 0.950 . S
H4823 C4846 0.950 . S
H4824 C4847 0.950 . S
H4825 C4849 0.950 . S
H4826 C4850 0.950 . S
H4827 C4851 0.951 . S
H4828 C4853 0.951 . S
H4829 C4855 0.950 . S
H4830 C4856 0.950 . S
H4831 C4858 0.950 . S
H4832 C4861 0.950 . S
H4833 C4862 0.950 . S
H4834 C4864 0.950 . S
H4835 C4865 0.950 . S
C4836 H4818 0.951 . S
C4836 C4837 1.366 . S
C4836 C4838 1.388 . S
C4837 C4836 1.366 . S
C4837 C4841 1.385 . S
C4838 H4819 0.951 . S
C4838 C4836 1.388 . S
C4838 C4839 1.366 . S
C4839 C4838 1.366 . S
C4839 C4840 1.414 . S
C4839 C4842 1.499 . S
C4840 H4820 0.950 . S
C4840 C4839 1.414 . S
C4840 C4841 1.374 . S
C4841 H4821 0.950 . S
C4841 C4837 1.385 . S
C4841 C4840 1.374 . S
C4842 C4839 1.499 . S
C4842 C4843 1.373 . S
C4842 C4844 1.389 . S
C4843 H4822 0.950 . S
C4843 C4842 1.373 . S
C4843 C4859 1.377 . S
C4844 C4842 1.389 . S
C4844 C4845 1.524 . S
C4844 C4858 1.377 . S
C4845 C4844 1.524 . S
C4845 C4846 1.397 . S
C4845 C4850 1.363 . S
C4846 H4823 0.950 . S
C4846 C4845 1.397 . S
C4846 C4847 1.334 . S
C4847 H4824 0.950 . S
C4847 C4846 1.334 . S
C4847 C4848 1.287 . S
C4848 C4847 1.287 . S
C4848 C4849 1.524 . S
C4848 H4867 0.913 . S
C4849 H4825 0.950 . S
C4849 C4848 1.524 . S
C4849 C4850 1.415 . S
C4850 H4826 0.950 . S
C4850 C4845 1.363 . S
C4850 C4849 1.415 . S
C4851 H4827 0.951 . S
C4851 C4852 1.366 . S
C4851 C4853 1.388 . S
C4852 C4851 1.366 . S
C4852 C4856 1.385 . S
C4853 H4828 0.951 . S
C4853 C4851 1.388 . S
C4853 C4854 1.366 . S
C4854 C4853 1.366 . S
C4854 C4855 1.414 . S
C4854 C4857 1.499 . S
C4855 H4829 0.950 . S
C4855 C4854 1.414 . S
C4855 C4856 1.374 . S
C4856 H4830 0.950 . S
C4856 C4852 1.385 . S
C4856 C4855 1.374 . S
C4857 C4854 1.499 . S
C4857 C4858 1.373 . S
C4857 C4859 1.389 . S
C4858 H4831 0.950 . S
C4858 C4844 1.377 . S
C4858 C4857 1.373 . S
C4859 C4843 1.377 . S
C4859 C4857 1.389 . S
C4859 C4860 1.524 . S
C4860 C4859 1.524 . S
C4860 C4861 1.397 . S
C4860 C4865 1.363 . S
C4861 H4832 0.950 . S
C4861 C4860 1.397 . S
C4861 C4862 1.334 . S
C4862 H4833 0.950 . S
C4862 C4861 1.334 . S
C4862 C4863 1.287 . S
C4863 C4862 1.287 . S
C4863 C4864 1.524 . S
C4863 H4866 0.999 . S
C4864 H4834 0.950 . S
C4864 C4863 1.524 . S
C4864 C4865 1.415 . S
C4865 H4835 0.950 . S
C4865 C4860 1.363 . S
C4865 C4864 1.415 . S
H4866 C4863 0.999 . S
H4867 C4848 0.913 . S
H4868 C4886 0.951 . S
H4869 C4888 0.951 . S
H4870 C4890 0.950 . S
H4871 C4891 0.950 . S
H4872 C4893 0.950 . S
H4873 C4896 0.950 . S
H4874 C4897 0.950 . S
H4875 C4899 0.950 . S
H4876 C4900 0.950 . S
H4877 C4901 0.951 . S
H4878 C4903 0.951 . S
H4879 C4905 0.950 . S
H4880 C4906 0.950 . S
H4881 C4908 0.950 . S
H4882 C4911 0.950 . S
H4883 C4912 0.950 . S
H4884 C4914 0.950 . S
H4885 C4915 0.950 . S
C4886 H4868 0.951 . S
C4886 C4887 1.366 . S
C4886 C4888 1.388 . S
C4887 C4886 1.366 . S
C4887 C4891 1.385 . S
C4888 H4869 0.951 . S
C4888 C4886 1.388 . S
C4888 C4889 1.366 . S
C4889 C4888 1.366 . S
C4889 C4890 1.414 . S
C4889 C4892 1.499 . S
C4890 H4870 0.950 . S
C4890 C4889 1.414 . S
C4890 C4891 1.374 . S
C4891 H4871 0.950 . S
C4891 C4887 1.385 . S
C4891 C4890 1.374 . S
C4892 C4889 1.499 . S
C4892 C4893 1.373 . S
C4892 C4894 1.389 . S
C4893 H4872 0.950 . S
C4893 C4892 1.373 . S
C4893 C4909 1.377 . S
C4894 C4892 1.389 . S
C4894 C4895 1.524 . S
C4894 C4908 1.377 . S
C4895 C4894 1.524 . S
C4895 C4896 1.397 . S
C4895 C4900 1.363 . S
C4896 H4873 0.950 . S
C4896 C4895 1.397 . S
C4896 C4897 1.334 . S
C4897 H4874 0.950 . S
C4897 C4896 1.334 . S
C4897 C4898 1.287 . S
C4898 C4897 1.287 . S
C4898 C4899 1.524 . S
C4898 H4917 0.913 . S
C4899 H4875 0.950 . S
C4899 C4898 1.524 . S
C4899 C4900 1.415 . S
C4900 H4876 0.950 . S
C4900 C4895 1.363 . S
C4900 C4899 1.415 . S
C4901 H4877 0.951 . S
C4901 C4902 1.366 . S
C4901 C4903 1.388 . S
C4902 C4901 1.366 . S
C4902 C4906 1.385 . S
C4903 H4878 0.951 . S
C4903 C4901 1.388 . S
C4903 C4904 1.366 . S
C4904 C4903 1.366 . S
C4904 C4905 1.414 . S
C4904 C4907 1.499 . S
C4905 H4879 0.950 . S
C4905 C4904 1.414 . S
C4905 C4906 1.374 . S
C4906 H4880 0.950 . S
C4906 C4902 1.385 . S
C4906 C4905 1.374 . S
C4907 C4904 1.499 . S
C4907 C4908 1.373 . S
C4907 C4909 1.389 . S
C4908 H4881 0.950 . S
C4908 C4894 1.377 . S
C4908 C4907 1.373 . S
C4909 C4893 1.377 . S
C4909 C4907 1.389 . S
C4909 C4910 1.524 . S
C4910 C4909 1.524 . S
C4910 C4911 1.397 . S
C4910 C4915 1.363 . S
C4911 H4882 0.950 . S
C4911 C4910 1.397 . S
C4911 C4912 1.334 . S
C4912 H4883 0.950 . S
C4912 C4911 1.334 . S
C4912 C4913 1.287 . S
C4913 C4912 1.287 . S
C4913 C4914 1.524 . S
C4913 H4916 0.999 . S
C4914 H4884 0.950 . S
C4914 C4913 1.524 . S
C4914 C4915 1.415 . S
C4915 H4885 0.950 . S
C4915 C4910 1.363 . S
C4915 C4914 1.415 . S
H4916 C4913 0.999 . S
H4917 C4898 0.913 . S
H4918 C4936 0.951 . S
H4919 C4938 0.951 . S
H4920 C4940 0.950 . S
H4921 C4941 0.950 . S
H4922 C4943 0.950 . S
H4923 C4946 0.950 . S
H4924 C4947 0.950 . S
H4925 C4949 0.950 . S
H4926 C4950 0.950 . S
H4927 C4951 0.951 . S
H4928 C4953 0.951 . S
H4929 C4955 0.950 . S
H4930 C4956 0.950 . S
H4931 C4958 0.950 . S
H4932 C4961 0.950 . S
H4933 C4962 0.950 . S
H4934 C4964 0.950 . S
H4935 C4965 0.950 . S
C4936 H4918 0.951 . S
C4936 C4937 1.366 . S
C4936 C4938 1.388 . S
C4937 C4936 1.366 . S
C4937 C4941 1.385 . S
C4938 H4919 0.951 . S
C4938 C4936 1.388 . S
C4938 C4939 1.366 . S
C4939 C4938 1.366 . S
C4939 C4940 1.414 . S
C4939 C4942 1.499 . S
C4940 H4920 0.950 . S
C4940 C4939 1.414 . S
C4940 C4941 1.374 . S
C4941 H4921 0.950 . S
C4941 C4937 1.385 . S
C4941 C4940 1.374 . S
C4942 C4939 1.499 . S
C4942 C4943 1.373 . S
C4942 C4944 1.389 . S
C4943 H4922 0.950 . S
C4943 C4942 1.373 . S
C4943 C4959 1.377 . S
C4944 C4942 1.389 . S
C4944 C4945 1.524 . S
C4944 C4958 1.377 . S
C4945 C4944 1.524 . S
C4945 C4946 1.397 . S
C4945 C4950 1.363 . S
C4946 H4923 0.950 . S
C4946 C4945 1.397 . S
C4946 C4947 1.334 . S
C4947 H4924 0.950 . S
C4947 C4946 1.334 . S
C4947 C4948 1.287 . S
C4948 C4947 1.287 . S
C4948 C4949 1.524 . S
C4948 H4967 0.913 . S
C4949 H4925 0.950 . S
C4949 C4948 1.524 . S
C4949 C4950 1.415 . S
C4950 H4926 0.950 . S
C4950 C4945 1.363 . S
C4950 C4949 1.415 . S
C4951 H4927 0.951 . S
C4951 C4952 1.366 . S
C4951 C4953 1.388 . S
C4952 C4951 1.366 . S
C4952 C4956 1.385 . S
C4953 H4928 0.951 . S
C4953 C4951 1.388 . S
C4953 C4954 1.366 . S
C4954 C4953 1.366 . S
C4954 C4955 1.414 . S
C4954 C4957 1.499 . S
C4955 H4929 0.950 . S
C4955 C4954 1.414 . S
C4955 C4956 1.374 . S
C4956 H4930 0.950 . S
C4956 C4952 1.385 . S
C4956 C4955 1.374 . S
C4957 C4954 1.499 . S
C4957 C4958 1.373 . S
C4957 C4959 1.389 . S
C4958 H4931 0.950 . S
C4958 C4944 1.377 . S
C4958 C4957 1.373 . S
C4959 C4943 1.377 . S
C4959 C4957 1.389 . S
C4959 C4960 1.524 . S
C4960 C4959 1.524 . S
C4960 C4961 1.397 . S
C4960 C4965 1.363 . S
C4961 H4932 0.950 . S
C4961 C4960 1.397 . S
C4961 C4962 1.334 . S
C4962 H4933 0.950 . S
C4962 C4961 1.334 . S
C4962 C4963 1.287 . S
C4963 C4962 1.287 . S
C4963 C4964 1.524 . S
C4963 H4966 0.999 . S
C4964 H4934 0.950 . S
C4964 C4963 1.524 . S
C4964 C4965 1.415 . S
C4965 H4935 0.950 . S
C4965 C4960 1.363 . S
C4965 C4964 1.415 . S
H4966 C4963 0.999 . S
H4967 C4948 0.913 . S
H4968 C4986 0.951 . S
H4969 C4988 0.951 . S
H4970 C4990 0.950 . S
H4971 C4991 0.950 . S
H4972 C4993 0.950 . S
H4973 C4996 0.950 . S
H4974 C4997 0.950 . S
H4975 C4999 0.950 . S
H4976 C5000 0.950 . S
H4977 C5001 0.951 . S
H4978 C5003 0.951 . S
H4979 C5005 0.950 . S
H4980 C5006 0.950 . S
H4981 C5008 0.950 . S
H4982 C5011 0.950 . S
H4983 C5012 0.950 . S
H4984 C5014 0.950 . S
H4985 C5015 0.950 . S
C4986 H4968 0.951 . S
C4986 C4987 1.366 . S
C4986 C4988 1.388 . S
C4987 C4986 1.366 . S
C4987 C4991 1.385 . S
C4988 H4969 0.951 . S
C4988 C4986 1.388 . S
C4988 C4989 1.366 . S
C4989 C4988 1.366 . S
C4989 C4990 1.414 . S
C4989 C4992 1.499 . S
C4990 H4970 0.950 . S
C4990 C4989 1.414 . S
C4990 C4991 1.374 . S
C4991 H4971 0.950 . S
C4991 C4987 1.385 . S
C4991 C4990 1.374 . S
C4992 C4989 1.499 . S
C4992 C4993 1.373 . S
C4992 C4994 1.389 . S
C4993 H4972 0.950 . S
C4993 C4992 1.373 . S
C4993 C5009 1.377 . S
C4994 C4992 1.389 . S
C4994 C4995 1.524 . S
C4994 C5008 1.377 . S
C4995 C4994 1.524 . S
C4995 C4996 1.397 . S
C4995 C5000 1.363 . S
C4996 H4973 0.950 . S
C4996 C4995 1.397 . S
C4996 C4997 1.334 . S
C4997 H4974 0.950 . S
C4997 C4996 1.334 . S
C4997 C4998 1.287 . S
C4998 C4997 1.287 . S
C4998 C4999 1.524 . S
C4998 H5017 0.913 . S
C4999 H4975 0.950 . S
C4999 C4998 1.524 . S
C4999 C5000 1.415 . S
C5000 H4976 0.950 . S
C5000 C4995 1.363 . S
C5000 C4999 1.415 . S
C5001 H4977 0.951 . S
C5001 C5002 1.366 . S
C5001 C5003 1.388 . S
C5002 C5001 1.366 . S
C5002 C5006 1.385 . S
C5003 H4978 0.951 . S
C5003 C5001 1.388 . S
C5003 C5004 1.366 . S
C5004 C5003 1.366 . S
C5004 C5005 1.414 . S
C5004 C5007 1.499 . S
C5005 H4979 0.950 . S
C5005 C5004 1.414 . S
C5005 C5006 1.374 . S
C5006 H4980 0.950 . S
C5006 C5002 1.385 . S
C5006 C5005 1.374 . S
C5007 C5004 1.499 . S
C5007 C5008 1.373 . S
C5007 C5009 1.389 . S
C5008 H4981 0.950 . S
C5008 C4994 1.377 . S
C5008 C5007 1.373 . S
C5009 C4993 1.377 . S
C5009 C5007 1.389 . S
C5009 C5010 1.524 . S
C5010 C5009 1.524 . S
C5010 C5011 1.397 . S
C5010 C5015 1.363 . S
C5011 H4982 0.950 . S
C5011 C5010 1.397 . S
C5011 C5012 1.334 . S
C5012 H4983 0.950 . S
C5012 C5011 1.334 . S
C5012 C5013 1.287 . S
C5013 C5012 1.287 . S
C5013 C5014 1.524 . S
C5013 H5016 0.999 . S
C5014 H4984 0.950 . S
C5014 C5013 1.524 . S
C5014 C5015 1.415 . S
C5015 H4985 0.950 . S
C5015 C5010 1.363 . S
C5015 C5014 1.415 . S
H5016 C5013 0.999 . S
H5017 C4998 0.913 . S
H5018 C5036 0.951 . S
H5019 C5038 0.951 . S
H5020 C5040 0.950 . S
H5021 C5041 0.950 . S
H5022 C5043 0.950 . S
H5023 C5046 0.950 . S
H5024 C5047 0.950 . S
H5025 C5049 0.950 . S
H5026 C5050 0.950 . S
H5027 C5051 0.951 . S
H5028 C5053 0.951 . S
H5029 C5055 0.950 . S
H5030 C5056 0.950 . S
H5031 C5058 0.950 . S
H5032 C5061 0.950 . S
H5033 C5062 0.950 . S
H5034 C5064 0.950 . S
H5035 C5065 0.950 . S
C5036 H5018 0.951 . S
C5036 C5037 1.366 . S
C5036 C5038 1.388 . S
C5037 C5036 1.366 . S
C5037 C5041 1.385 . S
C5038 H5019 0.951 . S
C5038 C5036 1.388 . S
C5038 C5039 1.366 . S
C5039 C5038 1.366 . S
C5039 C5040 1.414 . S
C5039 C5042 1.499 . S
C5040 H5020 0.950 . S
C5040 C5039 1.414 . S
C5040 C5041 1.374 . S
C5041 H5021 0.950 . S
C5041 C5037 1.385 . S
C5041 C5040 1.374 . S
C5042 C5039 1.499 . S
C5042 C5043 1.373 . S
C5042 C5044 1.389 . S
C5043 H5022 0.950 . S
C5043 C5042 1.373 . S
C5043 C5059 1.377 . S
C5044 C5042 1.389 . S
C5044 C5045 1.524 . S
C5044 C5058 1.377 . S
C5045 C5044 1.524 . S
C5045 C5046 1.397 . S
C5045 C5050 1.363 . S
C5046 H5023 0.950 . S
C5046 C5045 1.397 . S
C5046 C5047 1.334 . S
C5047 H5024 0.950 . S
C5047 C5046 1.334 . S
C5047 C5048 1.287 . S
C5048 C5047 1.287 . S
C5048 C5049 1.524 . S
C5048 H5067 0.913 . S
C5049 H5025 0.950 . S
C5049 C5048 1.524 . S
C5049 C5050 1.415 . S
C5050 H5026 0.950 . S
C5050 C5045 1.363 . S
C5050 C5049 1.415 . S
C5051 H5027 0.951 . S
C5051 C5052 1.366 . S
C5051 C5053 1.388 . S
C5052 C5051 1.366 . S
C5052 C5056 1.385 . S
C5053 H5028 0.951 . S
C5053 C5051 1.388 . S
C5053 C5054 1.366 . S
C5054 C5053 1.366 . S
C5054 C5055 1.414 . S
C5054 C5057 1.499 . S
C5055 H5029 0.950 . S
C5055 C5054 1.414 . S
C5055 C5056 1.374 . S
C5056 H5030 0.950 . S
C5056 C5052 1.385 . S
C5056 C5055 1.374 . S
C5057 C5054 1.499 . S
C5057 C5058 1.373 . S
C5057 C5059 1.389 . S
C5058 H5031 0.950 . S
C5058 C5044 1.377 . S
C5058 C5057 1.373 . S
C5059 C5043 1.377 . S
C5059 C5057 1.389 . S
C5059 C5060 1.524 . S
C5060 C5059 1.524 . S
C5060 C5061 1.397 . S
C5060 C5065 1.363 . S
C5061 H5032 0.950 . S
C5061 C5060 1.397 . S
C5061 C5062 1.334 . S
C5062 H5033 0.950 . S
C5062 C5061 1.334 . S
C5062 C5063 1.287 . S
C5063 C5062 1.287 . S
C5063 C5064 1.524 . S
C5063 H5066 0.999 . S
C5064 H5034 0.950 . S
C5064 C5063 1.524 . S
C5064 C5065 1.415 . S
C5065 H5035 0.950 . S
C5065 C5060 1.363 . S
C5065 C5064 1.415 . S
H5066 C5063 0.999 . S
H5067 C5048 0.913 . S
H5068 C5086 0.951 . S
H5069 C5088 0.951 . S
H5070 C5090 0.950 . S
H5071 C5091 0.950 . S
H5072 C5093 0.950 . S
H5073 C5096 0.950 . S
H5074 C5097 0.950 . S
H5075 C5099 0.950 . S
H5076 C5100 0.950 . S
H5077 C5101 0.951 . S
H5078 C5103 0.951 . S
H5079 C5105 0.950 . S
H5080 C5106 0.950 . S
H5081 C5108 0.950 . S
H5082 C5111 0.950 . S
H5083 C5112 0.950 . S
H5084 C5114 0.950 . S
H5085 C5115 0.950 . S
C5086 H5068 0.951 . S
C5086 C5087 1.366 . S
C5086 C5088 1.388 . S
C5087 C5086 1.366 . S
C5087 C5091 1.385 . S
C5088 H5069 0.951 . S
C5088 C5086 1.388 . S
C5088 C5089 1.366 . S
C5089 C5088 1.366 . S
C5089 C5090 1.414 . S
C5089 C5092 1.499 . S
C5090 H5070 0.950 . S
C5090 C5089 1.414 . S
C5090 C5091 1.374 . S
C5091 H5071 0.950 . S
C5091 C5087 1.385 . S
C5091 C5090 1.374 . S
C5092 C5089 1.499 . S
C5092 C5093 1.373 . S
C5092 C5094 1.389 . S
C5093 H5072 0.950 . S
C5093 C5092 1.373 . S
C5093 C5109 1.377 . S
C5094 C5092 1.389 . S
C5094 C5095 1.524 . S
C5094 C5108 1.377 . S
C5095 C5094 1.524 . S
C5095 C5096 1.397 . S
C5095 C5100 1.363 . S
C5096 H5073 0.950 . S
C5096 C5095 1.397 . S
C5096 C5097 1.334 . S
C5097 H5074 0.950 . S
C5097 C5096 1.334 . S
C5097 C5098 1.287 . S
C5098 C5097 1.287 . S
C5098 C5099 1.524 . S
C5098 H5117 0.913 . S
C5099 H5075 0.950 . S
C5099 C5098 1.524 . S
C5099 C5100 1.415 . S
C5100 H5076 0.950 . S
C5100 C5095 1.363 . S
C5100 C5099 1.415 . S
C5101 H5077 0.951 . S
C5101 C5102 1.366 . S
C5101 C5103 1.388 . S
C5102 C5101 1.366 . S
C5102 C5106 1.385 . S
C5103 H5078 0.951 . S
C5103 C5101 1.388 . S
C5103 C5104 1.366 . S
C5104 C5103 1.366 . S
C5104 C5105 1.414 . S
C5104 C5107 1.499 . S
C5105 H5079 0.950 . S
C5105 C5104 1.414 . S
C5105 C5106 1.374 . S
C5106 H5080 0.950 . S
C5106 C5102 1.385 . S
C5106 C5105 1.374 . S
C5107 C5104 1.499 . S
C5107 C5108 1.373 . S
C5107 C5109 1.389 . S
C5108 H5081 0.950 . S
C5108 C5094 1.377 . S
C5108 C5107 1.373 . S
C5109 C5093 1.377 . S
C5109 C5107 1.389 . S
C5109 C5110 1.524 . S
C5110 C5109 1.524 . S
C5110 C5111 1.397 . S
C5110 C5115 1.363 . S
C5111 H5082 0.950 . S
C5111 C5110 1.397 . S
C5111 C5112 1.334 . S
C5112 H5083 0.950 . S
C5112 C5111 1.334 . S
C5112 C5113 1.287 . S
C5113 C5112 1.287 . S
C5113 C5114 1.524 . S
C5113 H5116 0.999 . S
C5114 H5084 0.950 . S
C5114 C5113 1.524 . S
C5114 C5115 1.415 . S
C5115 H5085 0.950 . S
C5115 C5110 1.363 . S
C5115 C5114 1.415 . S
H5116 C5113 0.999 . S
H5117 C5098 0.913 . S
H5118 C5136 0.951 . S
H5119 C5138 0.951 . S
H5120 C5140 0.950 . S
H5121 C5141 0.950 . S
H5122 C5143 0.950 . S
H5123 C5146 0.950 . S
H5124 C5147 0.950 . S
H5125 C5149 0.950 . S
H5126 C5150 0.950 . S
H5127 C5151 0.951 . S
H5128 C5153 0.951 . S
H5129 C5155 0.950 . S
H5130 C5156 0.950 . S
H5131 C5158 0.950 . S
H5132 C5161 0.950 . S
H5133 C5162 0.950 . S
H5134 C5164 0.950 . S
H5135 C5165 0.950 . S
C5136 H5118 0.951 . S
C5136 C5137 1.366 . S
C5136 C5138 1.388 . S
C5137 C5136 1.366 . S
C5137 C5141 1.385 . S
C5138 H5119 0.951 . S
C5138 C5136 1.388 . S
C5138 C5139 1.366 . S
C5139 C5138 1.366 . S
C5139 C5140 1.414 . S
C5139 C5142 1.499 . S
C5140 H5120 0.950 . S
C5140 C5139 1.414 . S
C5140 C5141 1.374 . S
C5141 H5121 0.950 . S
C5141 C5137 1.385 . S
C5141 C5140 1.374 . S
C5142 C5139 1.499 . S
C5142 C5143 1.373 . S
C5142 C5144 1.389 . S
C5143 H5122 0.950 . S
C5143 C5142 1.373 . S
C5143 C5159 1.377 . S
C5144 C5142 1.389 . S
C5144 C5145 1.524 . S
C5144 C5158 1.377 . S
C5145 C5144 1.524 . S
C5145 C5146 1.397 . S
C5145 C5150 1.363 . S
C5146 H5123 0.950 . S
C5146 C5145 1.397 . S
C5146 C5147 1.334 . S
C5147 H5124 0.950 . S
C5147 C5146 1.334 . S
C5147 C5148 1.287 . S
C5148 C5147 1.287 . S
C5148 C5149 1.524 . S
C5148 H5167 0.913 . S
C5149 H5125 0.950 . S
C5149 C5148 1.524 . S
C5149 C5150 1.415 . S
C5150 H5126 0.950 . S
C5150 C5145 1.363 . S
C5150 C5149 1.415 . S
C5151 H5127 0.951 . S
C5151 C5152 1.366 . S
C5151 C5153 1.388 . S
C5152 C5151 1.366 . S
C5152 C5156 1.385 . S
C5153 H5128 0.951 . S
C5153 C5151 1.388 . S
C5153 C5154 1.366 . S
C5154 C5153 1.366 . S
C5154 C5155 1.414 . S
C5154 C5157 1.499 . S
C5155 H5129 0.950 . S
C5155 C5154 1.414 . S
C5155 C5156 1.374 . S
C5156 H5130 0.950 . S
C5156 C5152 1.385 . S
C5156 C5155 1.374 . S
C5157 C5154 1.499 . S
C5157 C5158 1.373 . S
C5157 C5159 1.389 . S
C5158 H5131 0.950 . S
C5158 C5144 1.377 . S
C5158 C5157 1.373 . S
C5159 C5143 1.377 . S
C5159 C5157 1.389 . S
C5159 C5160 1.524 . S
C5160 C5159 1.524 . S
C5160 C5161 1.397 . S
C5160 C5165 1.363 . S
C5161 H5132 0.950 . S
C5161 C5160 1.397 . S
C5161 C5162 1.334 . S
C5162 H5133 0.950 . S
C5162 C5161 1.334 . S
C5162 C5163 1.287 . S
C5163 C5162 1.287 . S
C5163 C5164 1.524 . S
C5163 H5166 0.999 . S
C5164 H5134 0.950 . S
C5164 C5163 1.524 . S
C5164 C5165 1.415 . S
C5165 H5135 0.950 . S
C5165 C5160 1.363 . S
C5165 C5164 1.415 . S
H5166 C5163 0.999 . S
H5167 C5148 0.913 . S
H5168 C5186 0.951 . S
H5169 C5188 0.951 . S
H5170 C5190 0.950 . S
H5171 C5191 0.950 . S
H5172 C5193 0.950 . S
H5173 C5196 0.950 . S
H5174 C5197 0.950 . S
H5175 C5199 0.950 . S
H5176 C5200 0.950 . S
H5177 C5201 0.951 . S
H5178 C5203 0.951 . S
H5179 C5205 0.950 . S
H5180 C5206 0.950 . S
H5181 C5208 0.950 . S
H5182 C5211 0.950 . S
H5183 C5212 0.950 . S
H5184 C5214 0.950 . S
H5185 C5215 0.950 . S
C5186 H5168 0.951 . S
C5186 C5187 1.366 . S
C5186 C5188 1.388 . S
C5187 C5186 1.366 . S
C5187 C5191 1.385 . S
C5188 H5169 0.951 . S
C5188 C5186 1.388 . S
C5188 C5189 1.366 . S
C5189 C5188 1.366 . S
C5189 C5190 1.414 . S
C5189 C5192 1.499 . S
C5190 H5170 0.950 . S
C5190 C5189 1.414 . S
C5190 C5191 1.374 . S
C5191 H5171 0.950 . S
C5191 C5187 1.385 . S
C5191 C5190 1.374 . S
C5192 C5189 1.499 . S
C5192 C5193 1.373 . S
C5192 C5194 1.389 . S
C5193 H5172 0.950 . S
C5193 C5192 1.373 . S
C5193 C5209 1.377 . S
C5194 C5192 1.389 . S
C5194 C5195 1.524 . S
C5194 C5208 1.377 . S
C5195 C5194 1.524 . S
C5195 C5196 1.397 . S
C5195 C5200 1.363 . S
C5196 H5173 0.950 . S
C5196 C5195 1.397 . S
C5196 C5197 1.334 . S
C5197 H5174 0.950 . S
C5197 C5196 1.334 . S
C5197 C5198 1.287 . S
C5198 C5197 1.287 . S
C5198 C5199 1.524 . S
C5198 H5217 0.913 . S
C5199 H5175 0.950 . S
C5199 C5198 1.524 . S
C5199 C5200 1.415 . S
C5200 H5176 0.950 . S
C5200 C5195 1.363 . S
C5200 C5199 1.415 . S
C5201 H5177 0.951 . S
C5201 C5202 1.366 . S
C5201 C5203 1.388 . S
C5202 C5201 1.366 . S
C5202 C5206 1.385 . S
C5203 H5178 0.951 . S
C5203 C5201 1.388 . S
C5203 C5204 1.366 . S
C5204 C5203 1.366 . S
C5204 C5205 1.414 . S
C5204 C5207 1.499 . S
C5205 H5179 0.950 . S
C5205 C5204 1.414 . S
C5205 C5206 1.374 . S
C5206 H5180 0.950 . S
C5206 C5202 1.385 . S
C5206 C5205 1.374 . S
C5207 C5204 1.499 . S
C5207 C5208 1.373 . S
C5207 C5209 1.389 . S
C5208 H5181 0.950 . S
C5208 C5194 1.377 . S
C5208 C5207 1.373 . S
C5209 C5193 1.377 . S
C5209 C5207 1.389 . S
C5209 C5210 1.524 . S
C5210 C5209 1.524 . S
C5210 C5211 1.397 . S
C5210 C5215 1.363 . S
C5211 H5182 0.950 . S
C5211 C5210 1.397 . S
C5211 C5212 1.334 . S
C5212 H5183 0.950 . S
C5212 C5211 1.334 . S
C5212 C5213 1.287 . S
C5213 C5212 1.287 . S
C5213 C5214 1.524 . S
C5213 H5216 0.999 . S
C5214 H5184 0.950 . S
C5214 C5213 1.524 . S
C5214 C5215 1.415 . S
C5215 H5185 0.950 . S
C5215 C5210 1.363 . S
C5215 C5214 1.415 . S
H5216 C5213 0.999 . S
H5217 C5198 0.913 . S
H5218 C5236 0.951 . S
H5219 C5238 0.951 . S
H5220 C5240 0.950 . S
H5221 C5241 0.950 . S
H5222 C5243 0.950 . S
H5223 C5246 0.950 . S
H5224 C5247 0.950 . S
H5225 C5249 0.950 . S
H5226 C5250 0.950 . S
H5227 C5251 0.951 . S
H5228 C5253 0.951 . S
H5229 C5255 0.950 . S
H5230 C5256 0.950 . S
H5231 C5258 0.950 . S
H5232 C5261 0.950 . S
H5233 C5262 0.950 . S
H5234 C5264 0.950 . S
H5235 C5265 0.950 . S
C5236 H5218 0.951 . S
C5236 C5237 1.366 . S
C5236 C5238 1.388 . S
C5237 C5236 1.366 . S
C5237 C5241 1.385 . S
C5238 H5219 0.951 . S
C5238 C5236 1.388 . S
C5238 C5239 1.366 . S
C5239 C5238 1.366 . S
C5239 C5240 1.414 . S
C5239 C5242 1.499 . S
C5240 H5220 0.950 . S
C5240 C5239 1.414 . S
C5240 C5241 1.374 . S
C5241 H5221 0.950 . S
C5241 C5237 1.385 . S
C5241 C5240 1.374 . S
C5242 C5239 1.499 . S
C5242 C5243 1.373 . S
C5242 C5244 1.389 . S
C5243 H5222 0.950 . S
C5243 C5242 1.373 . S
C5243 C5259 1.377 . S
C5244 C5242 1.389 . S
C5244 C5245 1.524 . S
C5244 C5258 1.377 . S
C5245 C5244 1.524 . S
C5245 C5246 1.397 . S
C5245 C5250 1.363 . S
C5246 H5223 0.950 . S
C5246 C5245 1.397 . S
C5246 C5247 1.334 . S
C5247 H5224 0.950 . S
C5247 C5246 1.334 . S
C5247 C5248 1.287 . S
C5248 C5247 1.287 . S
C5248 C5249 1.524 . S
C5248 H5267 0.913 . S
C5249 H5225 0.950 . S
C5249 C5248 1.524 . S
C5249 C5250 1.415 . S
C5250 H5226 0.950 . S
C5250 C5245 1.363 . S
C5250 C5249 1.415 . S
C5251 H5227 0.951 . S
C5251 C5252 1.366 . S
C5251 C5253 1.388 . S
C5252 C5251 1.366 . S
C5252 C5256 1.385 . S
C5253 H5228 0.951 . S
C5253 C5251 1.388 . S
C5253 C5254 1.366 . S
C5254 C5253 1.366 . S
C5254 C5255 1.414 . S
C5254 C5257 1.499 . S
C5255 H5229 0.950 . S
C5255 C5254 1.414 . S
C5255 C5256 1.374 . S
C5256 H5230 0.950 . S
C5256 C5252 1.385 . S
C5256 C5255 1.374 . S
C5257 C5254 1.499 . S
C5257 C5258 1.373 . S
C5257 C5259 1.389 . S
C5258 H5231 0.950 . S
C5258 C5244 1.377 . S
C5258 C5257 1.373 . S
C5259 C5243 1.377 . S
C5259 C5257 1.389 . S
C5259 C5260 1.524 . S
C5260 C5259 1.524 . S
C5260 C5261 1.397 . S
C5260 C5265 1.363 . S
C5261 H5232 0.950 . S
C5261 C5260 1.397 . S
C5261 C5262 1.334 . S
C5262 H5233 0.950 . S
C5262 C5261 1.334 . S
C5262 C5263 1.287 . S
C5263 C5262 1.287 . S
C5263 C5264 1.524 . S
C5263 H5266 0.999 . S
C5264 H5234 0.950 . S
C5264 C5263 1.524 . S
C5264 C5265 1.415 . S
C5265 H5235 0.950 . S
C5265 C5260 1.363 . S
C5265 C5264 1.415 . S
H5266 C5263 0.999 . S
H5267 C5248 0.913 . S
H5268 C5286 0.951 . S
H5269 C5288 0.951 . S
H5270 C5290 0.950 . S
H5271 C5291 0.950 . S
H5272 C5293 0.950 . S
H5273 C5296 0.950 . S
H5274 C5297 0.950 . S
H5275 C5299 0.950 . S
H5276 C5300 0.950 . S
H5277 C5301 0.951 . S
H5278 C5303 0.951 . S
H5279 C5305 0.950 . S
H5280 C5306 0.950 . S
H5281 C5308 0.950 . S
H5282 C5311 0.950 . S
H5283 C5312 0.950 . S
H5284 C5314 0.950 . S
H5285 C5315 0.950 . S
C5286 H5268 0.951 . S
C5286 C5287 1.366 . S
C5286 C5288 1.388 . S
C5287 C5286 1.366 . S
C5287 C5291 1.385 . S
C5288 H5269 0.951 . S
C5288 C5286 1.388 . S
C5288 C5289 1.366 . S
C5289 C5288 1.366 . S
C5289 C5290 1.414 . S
C5289 C5292 1.499 . S
C5290 H5270 0.950 . S
C5290 C5289 1.414 . S
C5290 C5291 1.374 . S
C5291 H5271 0.950 . S
C5291 C5287 1.385 . S
C5291 C5290 1.374 . S
C5292 C5289 1.499 . S
C5292 C5293 1.373 . S
C5292 C5294 1.389 . S
C5293 H5272 0.950 . S
C5293 C5292 1.373 . S
C5293 C5309 1.377 . S
C5294 C5292 1.389 . S
C5294 C5295 1.524 . S
C5294 C5308 1.377 . S
C5295 C5294 1.524 . S
C5295 C5296 1.397 . S
C5295 C5300 1.363 . S
C5296 H5273 0.950 . S
C5296 C5295 1.397 . S
C5296 C5297 1.334 . S
C5297 H5274 0.950 . S
C5297 C5296 1.334 . S
C5297 C5298 1.287 . S
C5298 C5297 1.287 . S
C5298 C5299 1.524 . S
C5298 H5317 0.913 . S
C5299 H5275 0.950 . S
C5299 C5298 1.524 . S
C5299 C5300 1.415 . S
C5300 H5276 0.950 . S
C5300 C5295 1.363 . S
C5300 C5299 1.415 . S
C5301 H5277 0.951 . S
C5301 C5302 1.366 . S
C5301 C5303 1.388 . S
C5302 C5301 1.366 . S
C5302 C5306 1.385 . S
C5303 H5278 0.951 . S
C5303 C5301 1.388 . S
C5303 C5304 1.366 . S
C5304 C5303 1.366 . S
C5304 C5305 1.414 . S
C5304 C5307 1.499 . S
C5305 H5279 0.950 . S
C5305 C5304 1.414 . S
C5305 C5306 1.374 . S
C5306 H5280 0.950 . S
C5306 C5302 1.385 . S
C5306 C5305 1.374 . S
C5307 C5304 1.499 . S
C5307 C5308 1.373 . S
C5307 C5309 1.389 . S
C5308 H5281 0.950 . S
C5308 C5294 1.377 . S
C5308 C5307 1.373 . S
C5309 C5293 1.377 . S
C5309 C5307 1.389 . S
C5309 C5310 1.524 . S
C5310 C5309 1.524 . S
C5310 C5311 1.397 . S
C5310 C5315 1.363 . S
C5311 H5282 0.950 . S
C5311 C5310 1.397 . S
C5311 C5312 1.334 . S
C5312 H5283 0.950 . S
C5312 C5311 1.334 . S
C5312 C5313 1.287 . S
C5313 C5312 1.287 . S
C5313 C5314 1.524 . S
C5313 H5316 0.999 . S
C5314 H5284 0.950 . S
C5314 C5313 1.524 . S
C5314 C5315 1.415 . S
C5315 H5285 0.950 . S
C5315 C5310 1.363 . S
C5315 C5314 1.415 . S
H5316 C5313 0.999 . S
H5317 C5298 0.913 . S
H5318 C5336 0.951 . S
H5319 C5338 0.951 . S
H5320 C5340 0.950 . S
H5321 C5341 0.950 . S
H5322 C5343 0.950 . S
H5323 C5346 0.950 . S
H5324 C5347 0.950 . S
H5325 C5349 0.950 . S
H5326 C5350 0.950 . S
H5327 C5351 0.951 . S
H5328 C5353 0.951 . S
H5329 C5355 0.950 . S
H5330 C5356 0.950 . S
H5331 C5358 0.950 . S
H5332 C5361 0.950 . S
H5333 C5362 0.950 . S
H5334 C5364 0.950 . S
H5335 C5365 0.950 . S
C5336 H5318 0.951 . S
C5336 C5337 1.366 . S
C5336 C5338 1.388 . S
C5337 C5336 1.366 . S
C5337 C5341 1.385 . S
C5338 H5319 0.951 . S
C5338 C5336 1.388 . S
C5338 C5339 1.366 . S
C5339 C5338 1.366 . S
C5339 C5340 1.414 . S
C5339 C5342 1.499 . S
C5340 H5320 0.950 . S
C5340 C5339 1.414 . S
C5340 C5341 1.374 . S
C5341 H5321 0.950 . S
C5341 C5337 1.385 . S
C5341 C5340 1.374 . S
C5342 C5339 1.499 . S
C5342 C5343 1.373 . S
C5342 C5344 1.389 . S
C5343 H5322 0.950 . S
C5343 C5342 1.373 . S
C5343 C5359 1.377 . S
C5344 C5342 1.389 . S
C5344 C5345 1.524 . S
C5344 C5358 1.377 . S
C5345 C5344 1.524 . S
C5345 C5346 1.397 . S
C5345 C5350 1.363 . S
C5346 H5323 0.950 . S
C5346 C5345 1.397 . S
C5346 C5347 1.334 . S
C5347 H5324 0.950 . S
C5347 C5346 1.334 . S
C5347 C5348 1.287 . S
C5348 C5347 1.287 . S
C5348 C5349 1.524 . S
C5348 H5367 0.913 . S
C5349 H5325 0.950 . S
C5349 C5348 1.524 . S
C5349 C5350 1.415 . S
C5350 H5326 0.950 . S
C5350 C5345 1.363 . S
C5350 C5349 1.415 . S
C5351 H5327 0.951 . S
C5351 C5352 1.366 . S
C5351 C5353 1.388 . S
C5352 C5351 1.366 . S
C5352 C5356 1.385 . S
C5353 H5328 0.951 . S
C5353 C5351 1.388 . S
C5353 C5354 1.366 . S
C5354 C5353 1.366 . S
C5354 C5355 1.414 . S
C5354 C5357 1.499 . S
C5355 H5329 0.950 . S
C5355 C5354 1.414 . S
C5355 C5356 1.374 . S
C5356 H5330 0.950 . S
C5356 C5352 1.385 . S
C5356 C5355 1.374 . S
C5357 C5354 1.499 . S
C5357 C5358 1.373 . S
C5357 C5359 1.389 . S
C5358 H5331 0.950 . S
C5358 C5344 1.377 . S
C5358 C5357 1.373 . S
C5359 C5343 1.377 . S
C5359 C5357 1.389 . S
C5359 C5360 1.524 . S
C5360 C5359 1.524 . S
C5360 C5361 1.397 . S
C5360 C5365 1.363 . S
C5361 H5332 0.950 . S
C5361 C5360 1.397 . S
C5361 C5362 1.334 . S
C5362 H5333 0.950 . S
C5362 C5361 1.334 . S
C5362 C5363 1.287 . S
C5363 C5362 1.287 . S
C5363 C5364 1.524 . S
C5363 H5366 0.999 . S
C5364 H5334 0.950 . S
C5364 C5363 1.524 . S
C5364 C5365 1.415 . S
C5365 H5335 0.950 . S
C5365 C5360 1.363 . S
C5365 C5364 1.415 . S
H5366 C5363 0.999 . S
H5367 C5348 0.913 . S
H5368 C5386 0.951 . S
H5369 C5388 0.951 . S
H5370 C5390 0.950 . S
H5371 C5391 0.950 . S
H5372 C5393 0.950 . S
H5373 C5396 0.950 . S
H5374 C5397 0.950 . S
H5375 C5399 0.950 . S
H5376 C5400 0.950 . S
H5377 C5401 0.951 . S
H5378 C5403 0.951 . S
H5379 C5405 0.950 . S
H5380 C5406 0.950 . S
H5381 C5408 0.950 . S
H5382 C5411 0.950 . S
H5383 C5412 0.950 . S
H5384 C5414 0.950 . S
H5385 C5415 0.950 . S
C5386 H5368 0.951 . S
C5386 C5387 1.366 . S
C5386 C5388 1.388 . S
C5387 C5386 1.366 . S
C5387 C5391 1.385 . S
C5388 H5369 0.951 . S
C5388 C5386 1.388 . S
C5388 C5389 1.366 . S
C5389 C5388 1.366 . S
C5389 C5390 1.414 . S
C5389 C5392 1.499 . S
C5390 H5370 0.950 . S
C5390 C5389 1.414 . S
C5390 C5391 1.374 . S
C5391 H5371 0.950 . S
C5391 C5387 1.385 . S
C5391 C5390 1.374 . S
C5392 C5389 1.499 . S
C5392 C5393 1.373 . S
C5392 C5394 1.389 . S
C5393 H5372 0.950 . S
C5393 C5392 1.373 . S
C5393 C5409 1.377 . S
C5394 C5392 1.389 . S
C5394 C5395 1.524 . S
C5394 C5408 1.377 . S
C5395 C5394 1.524 . S
C5395 C5396 1.397 . S
C5395 C5400 1.363 . S
C5396 H5373 0.950 . S
C5396 C5395 1.397 . S
C5396 C5397 1.334 . S
C5397 H5374 0.950 . S
C5397 C5396 1.334 . S
C5397 C5398 1.287 . S
C5398 C5397 1.287 . S
C5398 C5399 1.524 . S
C5398 H5417 0.913 . S
C5399 H5375 0.950 . S
C5399 C5398 1.524 . S
C5399 C5400 1.415 . S
C5400 H5376 0.950 . S
C5400 C5395 1.363 . S
C5400 C5399 1.415 . S
C5401 H5377 0.951 . S
C5401 C5402 1.366 . S
C5401 C5403 1.388 . S
C5402 C5401 1.366 . S
C5402 C5406 1.385 . S
C5403 H5378 0.951 . S
C5403 C5401 1.388 . S
C5403 C5404 1.366 . S
C5404 C5403 1.366 . S
C5404 C5405 1.414 . S
C5404 C5407 1.499 . S
C5405 H5379 0.950 . S
C5405 C5404 1.414 . S
C5405 C5406 1.374 . S
C5406 H5380 0.950 . S
C5406 C5402 1.385 . S
C5406 C5405 1.374 . S
C5407 C5404 1.499 . S
C5407 C5408 1.373 . S
C5407 C5409 1.389 . S
C5408 H5381 0.950 . S
C5408 C5394 1.377 . S
C5408 C5407 1.373 . S
C5409 C5393 1.377 . S
C5409 C5407 1.389 . S
C5409 C5410 1.524 . S
C5410 C5409 1.524 . S
C5410 C5411 1.397 . S
C5410 C5415 1.363 . S
C5411 H5382 0.950 . S
C5411 C5410 1.397 . S
C5411 C5412 1.334 . S
C5412 H5383 0.950 . S
C5412 C5411 1.334 . S
C5412 C5413 1.287 . S
C5413 C5412 1.287 . S
C5413 C5414 1.524 . S
C5413 H5416 0.999 . S
C5414 H5384 0.950 . S
C5414 C5413 1.524 . S
C5414 C5415 1.415 . S
C5415 H5385 0.950 . S
C5415 C5410 1.363 . S
C5415 C5414 1.415 . S
H5416 C5413 0.999 . S
H5417 C5398 0.913 . S
H5418 C5436 0.951 . S
H5419 C5438 0.951 . S
H5420 C5440 0.950 . S
H5421 C5441 0.950 . S
H5422 C5443 0.950 . S
H5423 C5446 0.950 . S
H5424 C5447 0.950 . S
H5425 C5449 0.950 . S
H5426 C5450 0.950 . S
H5427 C5451 0.951 . S
H5428 C5453 0.951 . S
H5429 C5455 0.950 . S
H5430 C5456 0.950 . S
H5431 C5458 0.950 . S
H5432 C5461 0.950 . S
H5433 C5462 0.950 . S
H5434 C5464 0.950 . S
H5435 C5465 0.950 . S
C5436 H5418 0.951 . S
C5436 C5437 1.366 . S
C5436 C5438 1.388 . S
C5437 C5436 1.366 . S
C5437 C5441 1.385 . S
C5438 H5419 0.951 . S
C5438 C5436 1.388 . S
C5438 C5439 1.366 . S
C5439 C5438 1.366 . S
C5439 C5440 1.414 . S
C5439 C5442 1.499 . S
C5440 H5420 0.950 . S
C5440 C5439 1.414 . S
C5440 C5441 1.374 . S
C5441 H5421 0.950 . S
C5441 C5437 1.385 . S
C5441 C5440 1.374 . S
C5442 C5439 1.499 . S
C5442 C5443 1.373 . S
C5442 C5444 1.389 . S
C5443 H5422 0.950 . S
C5443 C5442 1.373 . S
C5443 C5459 1.377 . S
C5444 C5442 1.389 . S
C5444 C5445 1.524 . S
C5444 C5458 1.377 . S
C5445 C5444 1.524 . S
C5445 C5446 1.397 . S
C5445 C5450 1.363 . S
C5446 H5423 0.950 . S
C5446 C5445 1.397 . S
C5446 C5447 1.334 . S
C5447 H5424 0.950 . S
C5447 C5446 1.334 . S
C5447 C5448 1.287 . S
C5448 C5447 1.287 . S
C5448 C5449 1.524 . S
C5448 H5467 0.913 . S
C5449 H5425 0.950 . S
C5449 C5448 1.524 . S
C5449 C5450 1.415 . S
C5450 H5426 0.950 . S
C5450 C5445 1.363 . S
C5450 C5449 1.415 . S
C5451 H5427 0.951 . S
C5451 C5452 1.366 . S
C5451 C5453 1.388 . S
C5452 C5451 1.366 . S
C5452 C5456 1.385 . S
C5453 H5428 0.951 . S
C5453 C5451 1.388 . S
C5453 C5454 1.366 . S
C5454 C5453 1.366 . S
C5454 C5455 1.414 . S
C5454 C5457 1.499 . S
C5455 H5429 0.950 . S
C5455 C5454 1.414 . S
C5455 C5456 1.374 . S
C5456 H5430 0.950 . S
C5456 C5452 1.385 . S
C5456 C5455 1.374 . S
C5457 C5454 1.499 . S
C5457 C5458 1.373 . S
C5457 C5459 1.389 . S
C5458 H5431 0.950 . S
C5458 C5444 1.377 . S
C5458 C5457 1.373 . S
C5459 C5443 1.377 . S
C5459 C5457 1.389 . S
C5459 C5460 1.524 . S
C5460 C5459 1.524 . S
C5460 C5461 1.397 . S
C5460 C5465 1.363 . S
C5461 H5432 0.950 . S
C5461 C5460 1.397 . S
C5461 C5462 1.334 . S
C5462 H5433 0.950 . S
C5462 C5461 1.334 . S
C5462 C5463 1.287 . S
C5463 C5462 1.287 . S
C5463 C5464 1.524 . S
C5463 H5466 0.999 . S
C5464 H5434 0.950 . S
C5464 C5463 1.524 . S
C5464 C5465 1.415 . S
C5465 H5435 0.950 . S
C5465 C5460 1.363 . S
C5465 C5464 1.415 . S
H5466 C5463 0.999 . S
H5467 C5448 0.913 . S
H5468 C5486 0.951 . S
H5469 C5488 0.951 . S
H5470 C5490 0.950 . S
H5471 C5491 0.950 . S
H5472 C5493 0.950 . S
H5473 C5496 0.950 . S
H5474 C5497 0.950 . S
H5475 C5499 0.950 . S
H5476 C5500 0.950 . S
H5477 C5501 0.951 . S
H5478 C5503 0.951 . S
H5479 C5505 0.950 . S
H5480 C5506 0.950 . S
H5481 C5508 0.950 . S
H5482 C5511 0.950 . S
H5483 C5512 0.950 . S
H5484 C5514 0.950 . S
H5485 C5515 0.950 . S
C5486 H5468 0.951 . S
C5486 C5487 1.366 . S
C5486 C5488 1.388 . S
C5487 C5486 1.366 . S
C5487 C5491 1.385 . S
C5488 H5469 0.951 . S
C5488 C5486 1.388 . S
C5488 C5489 1.366 . S
C5489 C5488 1.366 . S
C5489 C5490 1.414 . S
C5489 C5492 1.499 . S
C5490 H5470 0.950 . S
C5490 C5489 1.414 . S
C5490 C5491 1.374 . S
C5491 H5471 0.950 . S
C5491 C5487 1.385 . S
C5491 C5490 1.374 . S
C5492 C5489 1.499 . S
C5492 C5493 1.373 . S
C5492 C5494 1.389 . S
C5493 H5472 0.950 . S
C5493 C5492 1.373 . S
C5493 C5509 1.377 . S
C5494 C5492 1.389 . S
C5494 C5495 1.524 . S
C5494 C5508 1.377 . S
C5495 C5494 1.524 . S
C5495 C5496 1.397 . S
C5495 C5500 1.363 . S
C5496 H5473 0.950 . S
C5496 C5495 1.397 . S
C5496 C5497 1.334 . S
C5497 H5474 0.950 . S
C5497 C5496 1.334 . S
C5497 C5498 1.287 . S
C5498 C5497 1.287 . S
C5498 C5499 1.524 . S
C5498 H5517 0.913 . S
C5499 H5475 0.950 . S
C5499 C5498 1.524 . S
C5499 C5500 1.415 . S
C5500 H5476 0.950 . S
C5500 C5495 1.363 . S
C5500 C5499 1.415 . S
C5501 H5477 0.951 . S
C5501 C5502 1.366 . S
C5501 C5503 1.388 . S
C5502 C5501 1.366 . S
C5502 C5506 1.385 . S
C5503 H5478 0.951 . S
C5503 C5501 1.388 . S
C5503 C5504 1.366 . S
C5504 C5503 1.366 . S
C5504 C5505 1.414 . S
C5504 C5507 1.499 . S
C5505 H5479 0.950 . S
C5505 C5504 1.414 . S
C5505 C5506 1.374 . S
C5506 H5480 0.950 . S
C5506 C5502 1.385 . S
C5506 C5505 1.374 . S
C5507 C5504 1.499 . S
C5507 C5508 1.373 . S
C5507 C5509 1.389 . S
C5508 H5481 0.950 . S
C5508 C5494 1.377 . S
C5508 C5507 1.373 . S
C5509 C5493 1.377 . S
C5509 C5507 1.389 . S
C5509 C5510 1.524 . S
C5510 C5509 1.524 . S
C5510 C5511 1.397 . S
C5510 C5515 1.363 . S
C5511 H5482 0.950 . S
C5511 C5510 1.397 . S
C5511 C5512 1.334 . S
C5512 H5483 0.950 . S
C5512 C5511 1.334 . S
C5512 C5513 1.287 . S
C5513 C5512 1.287 . S
C5513 C5514 1.524 . S
C5513 H5516 0.999 . S
C5514 H5484 0.950 . S
C5514 C5513 1.524 . S
C5514 C5515 1.415 . S
C5515 H5485 0.950 . S
C5515 C5510 1.363 . S
C5515 C5514 1.415 . S
H5516 C5513 0.999 . S
H5517 C5498 0.913 . S
H5518 C5536 0.951 . S
H5519 C5538 0.951 . S
H5520 C5540 0.950 . S
H5521 C5541 0.950 . S
H5522 C5543 0.950 . S
H5523 C5546 0.950 . S
H5524 C5547 0.950 . S
H5525 C5549 0.950 . S
H5526 C5550 0.950 . S
H5527 C5551 0.951 . S
H5528 C5553 0.951 . S
H5529 C5555 0.950 . S
H5530 C5556 0.950 . S
H5531 C5558 0.950 . S
H5532 C5561 0.950 . S
H5533 C5562 0.950 . S
H5534 C5564 0.950 . S
H5535 C5565 0.950 . S
C5536 H5518 0.951 . S
C5536 C5537 1.366 . S
C5536 C5538 1.388 . S
C5537 C5536 1.366 . S
C5537 C5541 1.385 . S
C5538 H5519 0.951 . S
C5538 C5536 1.388 . S
C5538 C5539 1.366 . S
C5539 C5538 1.366 . S
C5539 C5540 1.414 . S
C5539 C5542 1.499 . S
C5540 H5520 0.950 . S
C5540 C5539 1.414 . S
C5540 C5541 1.374 . S
C5541 H5521 0.950 . S
C5541 C5537 1.385 . S
C5541 C5540 1.374 . S
C5542 C5539 1.499 . S
C5542 C5543 1.373 . S
C5542 C5544 1.389 . S
C5543 H5522 0.950 . S
C5543 C5542 1.373 . S
C5543 C5559 1.377 . S
C5544 C5542 1.389 . S
C5544 C5545 1.524 . S
C5544 C5558 1.377 . S
C5545 C5544 1.524 . S
C5545 C5546 1.397 . S
C5545 C5550 1.363 . S
C5546 H5523 0.950 . S
C5546 C5545 1.397 . S
C5546 C5547 1.334 . S
C5547 H5524 0.950 . S
C5547 C5546 1.334 . S
C5547 C5548 1.287 . S
C5548 C5547 1.287 . S
C5548 C5549 1.524 . S
C5548 H5567 0.913 . S
C5549 H5525 0.950 . S
C5549 C5548 1.524 . S
C5549 C5550 1.415 . S
C5550 H5526 0.950 . S
C5550 C5545 1.363 . S
C5550 C5549 1.415 . S
C5551 H5527 0.951 . S
C5551 C5552 1.366 . S
C5551 C5553 1.388 . S
C5552 C5551 1.366 . S
C5552 C5556 1.385 . S
C5553 H5528 0.951 . S
C5553 C5551 1.388 . S
C5553 C5554 1.366 . S
C5554 C5553 1.366 . S
C5554 C5555 1.414 . S
C5554 C5557 1.499 . S
C5555 H5529 0.950 . S
C5555 C5554 1.414 . S
C5555 C5556 1.374 . S
C5556 H5530 0.950 . S
C5556 C5552 1.385 . S
C5556 C5555 1.374 . S
C5557 C5554 1.499 . S
C5557 C5558 1.373 . S
C5557 C5559 1.389 . S
C5558 H5531 0.950 . S
C5558 C5544 1.377 . S
C5558 C5557 1.373 . S
C5559 C5543 1.377 . S
C5559 C5557 1.389 . S
C5559 C5560 1.524 . S
C5560 C5559 1.524 . S
C5560 C5561 1.397 . S
C5560 C5565 1.363 . S
C5561 H5532 0.950 . S
C5561 C5560 1.397 . S
C5561 C5562 1.334 . S
C5562 H5533 0.950 . S
C5562 C5561 1.334 . S
C5562 C5563 1.287 . S
C5563 C5562 1.287 . S
C5563 C5564 1.524 . S
C5563 H5566 0.999 . S
C5564 H5534 0.950 . S
C5564 C5563 1.524 . S
C5564 C5565 1.415 . S
C5565 H5535 0.950 . S
C5565 C5560 1.363 . S
C5565 C5564 1.415 . S
H5566 C5563 0.999 . S
H5567 C5548 0.913 . S
H5568 C5586 0.951 . S
H5569 C5588 0.951 . S
H5570 C5590 0.950 . S
H5571 C5591 0.950 . S
H5572 C5593 0.950 . S
H5573 C5596 0.950 . S
H5574 C5597 0.950 . S
H5575 C5599 0.950 . S
H5576 C5600 0.950 . S
H5577 C5601 0.951 . S
H5578 C5603 0.951 . S
H5579 C5605 0.950 . S
H5580 C5606 0.950 . S
H5581 C5608 0.950 . S
H5582 C5611 0.950 . S
H5583 C5612 0.950 . S
H5584 C5614 0.950 . S
H5585 C5615 0.950 . S
C5586 H5568 0.951 . S
C5586 C5587 1.366 . S
C5586 C5588 1.388 . S
C5587 C5586 1.366 . S
C5587 C5591 1.385 . S
C5588 H5569 0.951 . S
C5588 C5586 1.388 . S
C5588 C5589 1.366 . S
C5589 C5588 1.366 . S
C5589 C5590 1.414 . S
C5589 C5592 1.499 . S
C5590 H5570 0.950 . S
C5590 C5589 1.414 . S
C5590 C5591 1.374 . S
C5591 H5571 0.950 . S
C5591 C5587 1.385 . S
C5591 C5590 1.374 . S
C5592 C5589 1.499 . S
C5592 C5593 1.373 . S
C5592 C5594 1.389 . S
C5593 H5572 0.950 . S
C5593 C5592 1.373 . S
C5593 C5609 1.377 . S
C5594 C5592 1.389 . S
C5594 C5595 1.524 . S
C5594 C5608 1.377 . S
C5595 C5594 1.524 . S
C5595 C5596 1.397 . S
C5595 C5600 1.363 . S
C5596 H5573 0.950 . S
C5596 C5595 1.397 . S
C5596 C5597 1.334 . S
C5597 H5574 0.950 . S
C5597 C5596 1.334 . S
C5597 C5598 1.287 . S
C5598 C5597 1.287 . S
C5598 C5599 1.524 . S
C5598 H5617 0.913 . S
C5599 H5575 0.950 . S
C5599 C5598 1.524 . S
C5599 C5600 1.415 . S
C5600 H5576 0.950 . S
C5600 C5595 1.363 . S
C5600 C5599 1.415 . S
C5601 H5577 0.951 . S
C5601 C5602 1.366 . S
C5601 C5603 1.388 . S
C5602 C5601 1.366 . S
C5602 C5606 1.385 . S
C5603 H5578 0.951 . S
C5603 C5601 1.388 . S
C5603 C5604 1.366 . S
C5604 C5603 1.366 . S
C5604 C5605 1.414 . S
C5604 C5607 1.499 . S
C5605 H5579 0.950 . S
C5605 C5604 1.414 . S
C5605 C5606 1.374 . S
C5606 H5580 0.950 . S
C5606 C5602 1.385 . S
C5606 C5605 1.374 . S
C5607 C5604 1.499 . S
C5607 C5608 1.373 . S
C5607 C5609 1.389 . S
C5608 H5581 0.950 . S
C5608 C5594 1.377 . S
C5608 C5607 1.373 . S
C5609 C5593 1.377 . S
C5609 C5607 1.389 . S
C5609 C5610 1.524 . S
C5610 C5609 1.524 . S
C5610 C5611 1.397 . S
C5610 C5615 1.363 . S
C5611 H5582 0.950 . S
C5611 C5610 1.397 . S
C5611 C5612 1.334 . S
C5612 H5583 0.950 . S
C5612 C5611 1.334 . S
C5612 C5613 1.287 . S
C5613 C5612 1.287 . S
C5613 C5614 1.524 . S
C5613 H5616 0.999 . S
C5614 H5584 0.950 . S
C5614 C5613 1.524 . S
C5614 C5615 1.415 . S
C5615 H5585 0.950 . S
C5615 C5610 1.363 . S
C5615 C5614 1.415 . S
H5616 C5613 0.999 . S
H5617 C5598 0.913 . S
H5618 C5636 0.951 . S
H5619 C5638 0.951 . S
H5620 C5640 0.950 . S
H5621 C5641 0.950 . S
H5622 C5643 0.950 . S
H5623 C5646 0.950 . S
H5624 C5647 0.950 . S
H5625 C5649 0.950 . S
H5626 C5650 0.950 . S
H5627 C5651 0.951 . S
H5628 C5653 0.951 . S
H5629 C5655 0.950 . S
H5630 C5656 0.950 . S
H5631 C5658 0.950 . S
H5632 C5661 0.950 . S
H5633 C5662 0.950 . S
H5634 C5664 0.950 . S
H5635 C5665 0.950 . S
C5636 H5618 0.951 . S
C5636 C5637 1.366 . S
C5636 C5638 1.388 . S
C5637 C5636 1.366 . S
C5637 C5641 1.385 . S
C5638 H5619 0.951 . S
C5638 C5636 1.388 . S
C5638 C5639 1.366 . S
C5639 C5638 1.366 . S
C5639 C5640 1.414 . S
C5639 C5642 1.499 . S
C5640 H5620 0.950 . S
C5640 C5639 1.414 . S
C5640 C5641 1.374 . S
C5641 H5621 0.950 . S
C5641 C5637 1.385 . S
C5641 C5640 1.374 . S
C5642 C5639 1.499 . S
C5642 C5643 1.373 . S
C5642 C5644 1.389 . S
C5643 H5622 0.950 . S
C5643 C5642 1.373 . S
C5643 C5659 1.377 . S
C5644 C5642 1.389 . S
C5644 C5645 1.524 . S
C5644 C5658 1.377 . S
C5645 C5644 1.524 . S
C5645 C5646 1.397 . S
C5645 C5650 1.363 . S
C5646 H5623 0.950 . S
C5646 C5645 1.397 . S
C5646 C5647 1.334 . S
C5647 H5624 0.950 . S
C5647 C5646 1.334 . S
C5647 C5648 1.287 . S
C5648 C5647 1.287 . S
C5648 C5649 1.524 . S
C5648 H5667 0.913 . S
C5649 H5625 0.950 . S
C5649 C5648 1.524 . S
C5649 C5650 1.415 . S
C5650 H5626 0.950 . S
C5650 C5645 1.363 . S
C5650 C5649 1.415 . S
C5651 H5627 0.951 . S
C5651 C5652 1.366 . S
C5651 C5653 1.388 . S
C5652 C5651 1.366 . S
C5652 C5656 1.385 . S
C5653 H5628 0.951 . S
C5653 C5651 1.388 . S
C5653 C5654 1.366 . S
C5654 C5653 1.366 . S
C5654 C5655 1.414 . S
C5654 C5657 1.499 . S
C5655 H5629 0.950 . S
C5655 C5654 1.414 . S
C5655 C5656 1.374 . S
C5656 H5630 0.950 . S
C5656 C5652 1.385 . S
C5656 C5655 1.374 . S
C5657 C5654 1.499 . S
C5657 C5658 1.373 . S
C5657 C5659 1.389 . S
C5658 H5631 0.950 . S
C5658 C5644 1.377 . S
C5658 C5657 1.373 . S
C5659 C5643 1.377 . S
C5659 C5657 1.389 . S
C5659 C5660 1.524 . S
C5660 C5659 1.524 . S
C5660 C5661 1.397 . S
C5660 C5665 1.363 . S
C5661 H5632 0.950 . S
C5661 C5660 1.397 . S
C5661 C5662 1.334 . S
C5662 H5633 0.950 . S
C5662 C5661 1.334 . S
C5662 C5663 1.287 . S
C5663 C5662 1.287 . S
C5663 C5664 1.524 . S
C5663 H5666 0.999 . S
C5664 H5634 0.950 . S
C5664 C5663 1.524 . S
C5664 C5665 1.415 . S
C5665 H5635 0.950 . S
C5665 C5660 1.363 . S
C5665 C5664 1.415 . S
H5666 C5663 0.999 . S
H5667 C5648 0.913 . S
H5668 C5686 0.951 . S
H5669 C5688 0.951 . S
H5670 C5690 0.950 . S
H5671 C5691 0.950 . S
H5672 C5693 0.950 . S
H5673 C5696 0.950 . S
H5674 C5697 0.950 . S
H5675 C5699 0.950 . S
H5676 C5700 0.950 . S
H5677 C5701 0.951 . S
H5678 C5703 0.951 . S
H5679 C5705 0.950 . S
H5680 C5706 0.950 . S
H5681 C5708 0.950 . S
H5682 C5711 0.950 . S
H5683 C5712 0.950 . S
H5684 C5714 0.950 . S
H5685 C5715 0.950 . S
C5686 H5668 0.951 . S
C5686 C5687 1.366 . S
C5686 C5688 1.388 . S
C5687 C5686 1.366 . S
C5687 C5691 1.385 . S
C5688 H5669 0.951 . S
C5688 C5686 1.388 . S
C5688 C5689 1.366 . S
C5689 C5688 1.366 . S
C5689 C5690 1.414 . S
C5689 C5692 1.499 . S
C5690 H5670 0.950 . S
C5690 C5689 1.414 . S
C5690 C5691 1.374 . S
C5691 H5671 0.950 . S
C5691 C5687 1.385 . S
C5691 C5690 1.374 . S
C5692 C5689 1.499 . S
C5692 C5693 1.373 . S
C5692 C5694 1.389 . S
C5693 H5672 0.950 . S
C5693 C5692 1.373 . S
C5693 C5709 1.377 . S
C5694 C5692 1.389 . S
C5694 C5695 1.524 . S
C5694 C5708 1.377 . S
C5695 C5694 1.524 . S
C5695 C5696 1.397 . S
C5695 C5700 1.363 . S
C5696 H5673 0.950 . S
C5696 C5695 1.397 . S
C5696 C5697 1.334 . S
C5697 H5674 0.950 . S
C5697 C5696 1.334 . S
C5697 C5698 1.287 . S
C5698 C5697 1.287 . S
C5698 C5699 1.524 . S
C5698 H5717 0.913 . S
C5699 H5675 0.950 . S
C5699 C5698 1.524 . S
C5699 C5700 1.415 . S
C5700 H5676 0.950 . S
C5700 C5695 1.363 . S
C5700 C5699 1.415 . S
C5701 H5677 0.951 . S
C5701 C5702 1.366 . S
C5701 C5703 1.388 . S
C5702 C5701 1.366 . S
C5702 C5706 1.385 . S
C5703 H5678 0.951 . S
C5703 C5701 1.388 . S
C5703 C5704 1.366 . S
C5704 C5703 1.366 . S
C5704 C5705 1.414 . S
C5704 C5707 1.499 . S
C5705 H5679 0.950 . S
C5705 C5704 1.414 . S
C5705 C5706 1.374 . S
C5706 H5680 0.950 . S
C5706 C5702 1.385 . S
C5706 C5705 1.374 . S
C5707 C5704 1.499 . S
C5707 C5708 1.373 . S
C5707 C5709 1.389 . S
C5708 H5681 0.950 . S
C5708 C5694 1.377 . S
C5708 C5707 1.373 . S
C5709 C5693 1.377 . S
C5709 C5707 1.389 . S
C5709 C5710 1.524 . S
C5710 C5709 1.524 . S
C5710 C5711 1.397 . S
C5710 C5715 1.363 . S
C5711 H5682 0.950 . S
C5711 C5710 1.397 . S
C5711 C5712 1.334 . S
C5712 H5683 0.950 . S
C5712 C5711 1.334 . S
C5712 C5713 1.287 . S
C5713 C5712 1.287 . S
C5713 C5714 1.524 . S
C5713 H5716 0.999 . S
C5714 H5684 0.950 . S
C5714 C5713 1.524 . S
C5714 C5715 1.415 . S
C5715 H5685 0.950 . S
C5715 C5710 1.363 . S
C5715 C5714 1.415 . S
H5716 C5713 0.999 . S
H5717 C5698 0.913 . S
H5718 C5736 0.951 . S
H5719 C5738 0.951 . S
H5720 C5740 0.950 . S
H5721 C5741 0.950 . S
H5722 C5743 0.950 . S
H5723 C5746 0.950 . S
H5724 C5747 0.950 . S
H5725 C5749 0.950 . S
H5726 C5750 0.950 . S
H5727 C5751 0.951 . S
H5728 C5753 0.951 . S
H5729 C5755 0.950 . S
H5730 C5756 0.950 . S
H5731 C5758 0.950 . S
H5732 C5761 0.950 . S
H5733 C5762 0.950 . S
H5734 C5764 0.950 . S
H5735 C5765 0.950 . S
C5736 H5718 0.951 . S
C5736 C5737 1.366 . S
C5736 C5738 1.388 . S
C5737 C5736 1.366 . S
C5737 C5741 1.385 . S
C5738 H5719 0.951 . S
C5738 C5736 1.388 . S
C5738 C5739 1.366 . S
C5739 C5738 1.366 . S
C5739 C5740 1.414 . S
C5739 C5742 1.499 . S
C5740 H5720 0.950 . S
C5740 C5739 1.414 . S
C5740 C5741 1.374 . S
C5741 H5721 0.950 . S
C5741 C5737 1.385 . S
C5741 C5740 1.374 . S
C5742 C5739 1.499 . S
C5742 C5743 1.373 . S
C5742 C5744 1.389 . S
C5743 H5722 0.950 . S
C5743 C5742 1.373 . S
C5743 C5759 1.377 . S
C5744 C5742 1.389 . S
C5744 C5745 1.524 . S
C5744 C5758 1.377 . S
C5745 C5744 1.524 . S
C5745 C5746 1.397 . S
C5745 C5750 1.363 . S
C5746 H5723 0.950 . S
C5746 C5745 1.397 . S
C5746 C5747 1.334 . S
C5747 H5724 0.950 . S
C5747 C5746 1.334 . S
C5747 C5748 1.287 . S
C5748 C5747 1.287 . S
C5748 C5749 1.524 . S
C5748 H5767 0.913 . S
C5749 H5725 0.950 . S
C5749 C5748 1.524 . S
C5749 C5750 1.415 . S
C5750 H5726 0.950 . S
C5750 C5745 1.363 . S
C5750 C5749 1.415 . S
C5751 H5727 0.951 . S
C5751 C5752 1.366 . S
C5751 C5753 1.388 . S
C5752 C5751 1.366 . S
C5752 C5756 1.385 . S
C5753 H5728 0.951 . S
C5753 C5751 1.388 . S
C5753 C5754 1.366 . S
C5754 C5753 1.366 . S
C5754 C5755 1.414 . S
C5754 C5757 1.499 . S
C5755 H5729 0.950 . S
C5755 C5754 1.414 . S
C5755 C5756 1.374 . S
C5756 H5730 0.950 . S
C5756 C5752 1.385 . S
C5756 C5755 1.374 . S
C5757 C5754 1.499 . S
C5757 C5758 1.373 . S
C5757 C5759 1.389 . S
C5758 H5731 0.950 . S
C5758 C5744 1.377 . S
C5758 C5757 1.373 . S
C5759 C5743 1.377 . S
C5759 C5757 1.389 . S
C5759 C5760 1.524 . S
C5760 C5759 1.524 . S
C5760 C5761 1.397 . S
C5760 C5765 1.363 . S
C5761 H5732 0.950 . S
C5761 C5760 1.397 . S
C5761 C5762 1.334 . S
C5762 H5733 0.950 . S
C5762 C5761 1.334 . S
C5762 C5763 1.287 . S
C5763 C5762 1.287 . S
C5763 C5764 1.524 . S
C5763 H5766 0.999 . S
C5764 H5734 0.950 . S
C5764 C5763 1.524 . S
C5764 C5765 1.415 . S
C5765 H5735 0.950 . S
C5765 C5760 1.363 . S
C5765 C5764 1.415 . S
H5766 C5763 0.999 . S
H5767 C5748 0.913 . S
H5768 C5786 0.951 . S
H5769 C5788 0.951 . S
H5770 C5790 0.950 . S
H5771 C5791 0.950 . S
H5772 C5793 0.950 . S
H5773 C5796 0.950 . S
H5774 C5797 0.950 . S
H5775 C5799 0.950 . S
H5776 C5800 0.950 . S
H5777 C5801 0.951 . S
H5778 C5803 0.951 . S
H5779 C5805 0.950 . S
H5780 C5806 0.950 . S
H5781 C5808 0.950 . S
H5782 C5811 0.950 . S
H5783 C5812 0.950 . S
H5784 C5814 0.950 . S
H5785 C5815 0.950 . S
C5786 H5768 0.951 . S
C5786 C5787 1.366 . S
C5786 C5788 1.388 . S
C5787 C5786 1.366 . S
C5787 C5791 1.385 . S
C5788 H5769 0.951 . S
C5788 C5786 1.388 . S
C5788 C5789 1.366 . S
C5789 C5788 1.366 . S
C5789 C5790 1.414 . S
C5789 C5792 1.499 . S
C5790 H5770 0.950 . S
C5790 C5789 1.414 . S
C5790 C5791 1.374 . S
C5791 H5771 0.950 . S
C5791 C5787 1.385 . S
C5791 C5790 1.374 . S
C5792 C5789 1.499 . S
C5792 C5793 1.373 . S
C5792 C5794 1.389 . S
C5793 H5772 0.950 . S
C5793 C5792 1.373 . S
C5793 C5809 1.377 . S
C5794 C5792 1.389 . S
C5794 C5795 1.524 . S
C5794 C5808 1.377 . S
C5795 C5794 1.524 . S
C5795 C5796 1.397 . S
C5795 C5800 1.363 . S
C5796 H5773 0.950 . S
C5796 C5795 1.397 . S
C5796 C5797 1.334 . S
C5797 H5774 0.950 . S
C5797 C5796 1.334 . S
C5797 C5798 1.287 . S
C5798 C5797 1.287 . S
C5798 C5799 1.524 . S
C5798 H5817 0.913 . S
C5799 H5775 0.950 . S
C5799 C5798 1.524 . S
C5799 C5800 1.415 . S
C5800 H5776 0.950 . S
C5800 C5795 1.363 . S
C5800 C5799 1.415 . S
C5801 H5777 0.951 . S
C5801 C5802 1.366 . S
C5801 C5803 1.388 . S
C5802 C5801 1.366 . S
C5802 C5806 1.385 . S
C5803 H5778 0.951 . S
C5803 C5801 1.388 . S
C5803 C5804 1.366 . S
C5804 C5803 1.366 . S
C5804 C5805 1.414 . S
C5804 C5807 1.499 . S
C5805 H5779 0.950 . S
C5805 C5804 1.414 . S
C5805 C5806 1.374 . S
C5806 H5780 0.950 . S
C5806 C5802 1.385 . S
C5806 C5805 1.374 . S
C5807 C5804 1.499 . S
C5807 C5808 1.373 . S
C5807 C5809 1.389 . S
C5808 H5781 0.950 . S
C5808 C5794 1.377 . S
C5808 C5807 1.373 . S
C5809 C5793 1.377 . S
C5809 C5807 1.389 . S
C5809 C5810 1.524 . S
C5810 C5809 1.524 . S
C5810 C5811 1.397 . S
C5810 C5815 1.363 . S
C5811 H5782 0.950 . S
C5811 C5810 1.397 . S
C5811 C5812 1.334 . S
C5812 H5783 0.950 . S
C5812 C5811 1.334 . S
C5812 C5813 1.287 . S
C5813 C5812 1.287 . S
C5813 C5814 1.524 . S
C5813 H5816 0.999 . S
C5814 H5784 0.950 . S
C5814 C5813 1.524 . S
C5814 C5815 1.415 . S
C5815 H5785 0.950 . S
C5815 C5810 1.363 . S
C5815 C5814 1.415 . S
H5816 C5813 0.999 . S
H5817 C5798 0.913 . S
H5818 C5836 0.951 . S
H5819 C5838 0.951 . S
H5820 C5840 0.950 . S
H5821 C5841 0.950 . S
H5822 C5843 0.950 . S
H5823 C5846 0.950 . S
H5824 C5847 0.950 . S
H5825 C5849 0.950 . S
H5826 C5850 0.950 . S
H5827 C5851 0.951 . S
H5828 C5853 0.951 . S
H5829 C5855 0.950 . S
H5830 C5856 0.950 . S
H5831 C5858 0.950 . S
H5832 C5861 0.950 . S
H5833 C5862 0.950 . S
H5834 C5864 0.950 . S
H5835 C5865 0.950 . S
C5836 H5818 0.951 . S
C5836 C5837 1.366 . S
C5836 C5838 1.388 . S
C5837 C5836 1.366 . S
C5837 C5841 1.385 . S
C5838 H5819 0.951 . S
C5838 C5836 1.388 . S
C5838 C5839 1.366 . S
C5839 C5838 1.366 . S
C5839 C5840 1.414 . S
C5839 C5842 1.499 . S
C5840 H5820 0.950 . S
C5840 C5839 1.414 . S
C5840 C5841 1.374 . S
C5841 H5821 0.950 . S
C5841 C5837 1.385 . S
C5841 C5840 1.374 . S
C5842 C5839 1.499 . S
C5842 C5843 1.373 . S
C5842 C5844 1.389 . S
C5843 H5822 0.950 . S
C5843 C5842 1.373 . S
C5843 C5859 1.377 . S
C5844 C5842 1.389 . S
C5844 C5845 1.524 . S
C5844 C5858 1.377 . S
C5845 C5844 1.524 . S
C5845 C5846 1.397 . S
C5845 C5850 1.363 . S
C5846 H5823 0.950 . S
C5846 C5845 1.397 . S
C5846 C5847 1.334 . S
C5847 H5824 0.950 . S
C5847 C5846 1.334 . S
C5847 C5848 1.287 . S
C5848 C5847 1.287 . S
C5848 C5849 1.524 . S
C5848 H5867 0.913 . S
C5849 H5825 0.950 . S
C5849 C5848 1.524 . S
C5849 C5850 1.415 . S
C5850 H5826 0.950 . S
C5850 C5845 1.363 . S
C5850 C5849 1.415 . S
C5851 H5827 0.951 . S
C5851 C5852 1.366 . S
C5851 C5853 1.388 . S
C5852 C5851 1.366 . S
C5852 C5856 1.385 . S
C5853 H5828 0.951 . S
C5853 C5851 1.388 . S
C5853 C5854 1.366 . S
C5854 C5853 1.366 . S
C5854 C5855 1.414 . S
C5854 C5857 1.499 . S
C5855 H5829 0.950 . S
C5855 C5854 1.414 . S
C5855 C5856 1.374 . S
C5856 H5830 0.950 . S
C5856 C5852 1.385 . S
C5856 C5855 1.374 . S
C5857 C5854 1.499 . S
C5857 C5858 1.373 . S
C5857 C5859 1.389 . S
C5858 H5831 0.950 . S
C5858 C5844 1.377 . S
C5858 C5857 1.373 . S
C5859 C5843 1.377 . S
C5859 C5857 1.389 . S
C5859 C5860 1.524 . S
C5860 C5859 1.524 . S
C5860 C5861 1.397 . S
C5860 C5865 1.363 . S
C5861 H5832 0.950 . S
C5861 C5860 1.397 . S
C5861 C5862 1.334 . S
C5862 H5833 0.950 . S
C5862 C5861 1.334 . S
C5862 C5863 1.287 . S
C5863 C5862 1.287 . S
C5863 C5864 1.524 . S
C5863 H5866 0.999 . S
C5864 H5834 0.950 . S
C5864 C5863 1.524 . S
C5864 C5865 1.415 . S
C5865 H5835 0.950 . S
C5865 C5860 1.363 . S
C5865 C5864 1.415 . S
H5866 C5863 0.999 . S
H5867 C5848 0.913 . S
H5868 C5886 0.951 . S
H5869 C5888 0.951 . S
H5870 C5890 0.950 . S
H5871 C5891 0.950 . S
H5872 C5893 0.950 . S
H5873 C5896 0.950 . S
H5874 C5897 0.950 . S
H5875 C5899 0.950 . S
H5876 C5900 0.950 . S
H5877 C5901 0.951 . S
H5878 C5903 0.951 . S
H5879 C5905 0.950 . S
H5880 C5906 0.950 . S
H5881 C5908 0.950 . S
H5882 C5911 0.950 . S
H5883 C5912 0.950 . S
H5884 C5914 0.950 . S
H5885 C5915 0.950 . S
C5886 H5868 0.951 . S
C5886 C5887 1.366 . S
C5886 C5888 1.388 . S
C5887 C5886 1.366 . S
C5887 C5891 1.385 . S
C5888 H5869 0.951 . S
C5888 C5886 1.388 . S
C5888 C5889 1.366 . S
C5889 C5888 1.366 . S
C5889 C5890 1.414 . S
C5889 C5892 1.499 . S
C5890 H5870 0.950 . S
C5890 C5889 1.414 . S
C5890 C5891 1.374 . S
C5891 H5871 0.950 . S
C5891 C5887 1.385 . S
C5891 C5890 1.374 . S
C5892 C5889 1.499 . S
C5892 C5893 1.373 . S
C5892 C5894 1.389 . S
C5893 H5872 0.950 . S
C5893 C5892 1.373 . S
C5893 C5909 1.377 . S
C5894 C5892 1.389 . S
C5894 C5895 1.524 . S
C5894 C5908 1.377 . S
C5895 C5894 1.524 . S
C5895 C5896 1.397 . S
C5895 C5900 1.363 . S
C5896 H5873 0.950 . S
C5896 C5895 1.397 . S
C5896 C5897 1.334 . S
C5897 H5874 0.950 . S
C5897 C5896 1.334 . S
C5897 C5898 1.287 . S
C5898 C5897 1.287 . S
C5898 C5899 1.524 . S
C5898 H5917 0.913 . S
C5899 H5875 0.950 . S
C5899 C5898 1.524 . S
C5899 C5900 1.415 . S
C5900 H5876 0.950 . S
C5900 C5895 1.363 . S
C5900 C5899 1.415 . S
C5901 H5877 0.951 . S
C5901 C5902 1.366 . S
C5901 C5903 1.388 . S
C5902 C5901 1.366 . S
C5902 C5906 1.385 . S
C5903 H5878 0.951 . S
C5903 C5901 1.388 . S
C5903 C5904 1.366 . S
C5904 C5903 1.366 . S
C5904 C5905 1.414 . S
C5904 C5907 1.499 . S
C5905 H5879 0.950 . S
C5905 C5904 1.414 . S
C5905 C5906 1.374 . S
C5906 H5880 0.950 . S
C5906 C5902 1.385 . S
C5906 C5905 1.374 . S
C5907 C5904 1.499 . S
C5907 C5908 1.373 . S
C5907 C5909 1.389 . S
C5908 H5881 0.950 . S
C5908 C5894 1.377 . S
C5908 C5907 1.373 . S
C5909 C5893 1.377 . S
C5909 C5907 1.389 . S
C5909 C5910 1.524 . S
C5910 C5909 1.524 . S
C5910 C5911 1.397 . S
C5910 C5915 1.363 . S
C5911 H5882 0.950 . S
C5911 C5910 1.397 . S
C5911 C5912 1.334 . S
C5912 H5883 0.950 . S
C5912 C5911 1.334 . S
C5912 C5913 1.287 . S
C5913 C5912 1.287 . S
C5913 C5914 1.524 . S
C5913 H5916 0.999 . S
C5914 H5884 0.950 . S
C5914 C5913 1.524 . S
C5914 C5915 1.415 . S
C5915 H5885 0.950 . S
C5915 C5910 1.363 . S
C5915 C5914 1.415 . S
H5916 C5913 0.999 . S
H5917 C5898 0.913 . S
H5918 C5936 0.951 . S
H5919 C5938 0.951 . S
H5920 C5940 0.950 . S
H5921 C5941 0.950 . S
H5922 C5943 0.950 . S
H5923 C5946 0.950 . S
H5924 C5947 0.950 . S
H5925 C5949 0.950 . S
H5926 C5950 0.950 . S
H5927 C5951 0.951 . S
H5928 C5953 0.951 . S
H5929 C5955 0.950 . S
H5930 C5956 0.950 . S
H5931 C5958 0.950 . S
H5932 C5961 0.950 . S
H5933 C5962 0.950 . S
H5934 C5964 0.950 . S
H5935 C5965 0.950 . S
C5936 H5918 0.951 . S
C5936 C5937 1.366 . S
C5936 C5938 1.388 . S
C5937 C5936 1.366 . S
C5937 C5941 1.385 . S
C5938 H5919 0.951 . S
C5938 C5936 1.388 . S
C5938 C5939 1.366 . S
C5939 C5938 1.366 . S
C5939 C5940 1.414 . S
C5939 C5942 1.499 . S
C5940 H5920 0.950 . S
C5940 C5939 1.414 . S
C5940 C5941 1.374 . S
C5941 H5921 0.950 . S
C5941 C5937 1.385 . S
C5941 C5940 1.374 . S
C5942 C5939 1.499 . S
C5942 C5943 1.373 . S
C5942 C5944 1.389 . S
C5943 H5922 0.950 . S
C5943 C5942 1.373 . S
C5943 C5959 1.377 . S
C5944 C5942 1.389 . S
C5944 C5945 1.524 . S
C5944 C5958 1.377 . S
C5945 C5944 1.524 . S
C5945 C5946 1.397 . S
C5945 C5950 1.363 . S
C5946 H5923 0.950 . S
C5946 C5945 1.397 . S
C5946 C5947 1.334 . S
C5947 H5924 0.950 . S
C5947 C5946 1.334 . S
C5947 C5948 1.287 . S
C5948 C5947 1.287 . S
C5948 C5949 1.524 . S
C5948 H5967 0.913 . S
C5949 H5925 0.950 . S
C5949 C5948 1.524 . S
C5949 C5950 1.415 . S
C5950 H5926 0.950 . S
C5950 C5945 1.363 . S
C5950 C5949 1.415 . S
C5951 H5927 0.951 . S
C5951 C5952 1.366 . S
C5951 C5953 1.388 . S
C5952 C5951 1.366 . S
C5952 C5956 1.385 . S
C5953 H5928 0.951 . S
C5953 C5951 1.388 . S
C5953 C5954 1.366 . S
C5954 C5953 1.366 . S
C5954 C5955 1.414 . S
C5954 C5957 1.499 . S
C5955 H5929 0.950 . S
C5955 C5954 1.414 . S
C5955 C5956 1.374 . S
C5956 H5930 0.950 . S
C5956 C5952 1.385 . S
C5956 C5955 1.374 . S
C5957 C5954 1.499 . S
C5957 C5958 1.373 . S
C5957 C5959 1.389 . S
C5958 H5931 0.950 . S
C5958 C5944 1.377 . S
C5958 C5957 1.373 . S
C5959 C5943 1.377 . S
C5959 C5957 1.389 . S
C5959 C5960 1.524 . S
C5960 C5959 1.524 . S
C5960 C5961 1.397 . S
C5960 C5965 1.363 . S
C5961 H5932 0.950 . S
C5961 C5960 1.397 . S
C5961 C5962 1.334 . S
C5962 H5933 0.950 . S
C5962 C5961 1.334 . S
C5962 C5963 1.287 . S
C5963 C5962 1.287 . S
C5963 C5964 1.524 . S
C5963 H5966 0.999 . S
C5964 H5934 0.950 . S
C5964 C5963 1.524 . S
C5964 C5965 1.415 . S
C5965 H5935 0.950 . S
C5965 C5960 1.363 . S
C5965 C5964 1.415 . S
H5966 C5963 0.999 . S
H5967 C5948 0.913 . S
H5968 C5986 0.951 . S
H5969 C5988 0.951 . S
H5970 C5990 0.950 . S
H5971 C5991 0.950 . S
H5972 C5993 0.950 . S
H5973 C5996 0.950 . S
H5974 C5997 0.950 . S
H5975 C5999 0.950 . S
H5976 C6000 0.950 . S
H5977 C6001 0.951 . S
H5978 C6003 0.951 . S
H5979 C6005 0.950 . S
H5980 C6006 0.950 . S
H5981 C6008 0.950 . S
H5982 C6011 0.950 . S
H5983 C6012 0.950 . S
H5984 C6014 0.950 . S
H5985 C6015 0.950 . S
C5986 H5968 0.951 . S
C5986 C5987 1.366 . S
C5986 C5988 1.388 . S
C5987 C5986 1.366 . S
C5987 C5991 1.385 . S
C5988 H5969 0.951 . S
C5988 C5986 1.388 . S
C5988 C5989 1.366 . S
C5989 C5988 1.366 . S
C5989 C5990 1.414 . S
C5989 C5992 1.499 . S
C5990 H5970 0.950 . S
C5990 C5989 1.414 . S
C5990 C5991 1.374 . S
C5991 H5971 0.950 . S
C5991 C5987 1.385 . S
C5991 C5990 1.374 . S
C5992 C5989 1.499 . S
C5992 C5993 1.373 . S
C5992 C5994 1.389 . S
C5993 H5972 0.950 . S
C5993 C5992 1.373 . S
C5993 C6009 1.377 . S
C5994 C5992 1.389 . S
C5994 C5995 1.524 . S
C5994 C6008 1.377 . S
C5995 C5994 1.524 . S
C5995 C5996 1.397 . S
C5995 C6000 1.363 . S
C5996 H5973 0.950 . S
C5996 C5995 1.397 . S
C5996 C5997 1.334 . S
C5997 H5974 0.950 . S
C5997 C5996 1.334 . S
C5997 C5998 1.287 . S
C5998 C5997 1.287 . S
C5998 C5999 1.524 . S
C5998 H6017 0.913 . S
C5999 H5975 0.950 . S
C5999 C5998 1.524 . S
C5999 C6000 1.415 . S
C6000 H5976 0.950 . S
C6000 C5995 1.363 . S
C6000 C5999 1.415 . S
C6001 H5977 0.951 . S
C6001 C6002 1.366 . S
C6001 C6003 1.388 . S
C6002 C6001 1.366 . S
C6002 C6006 1.385 . S
C6003 H5978 0.951 . S
C6003 C6001 1.388 . S
C6003 C6004 1.366 . S
C6004 C6003 1.366 . S
C6004 C6005 1.414 . S
C6004 C6007 1.499 . S
C6005 H5979 0.950 . S
C6005 C6004 1.414 . S
C6005 C6006 1.374 . S
C6006 H5980 0.950 . S
C6006 C6002 1.385 . S
C6006 C6005 1.374 . S
C6007 C6004 1.499 . S
C6007 C6008 1.373 . S
C6007 C6009 1.389 . S
C6008 H5981 0.950 . S
C6008 C5994 1.377 . S
C6008 C6007 1.373 . S
C6009 C5993 1.377 . S
C6009 C6007 1.389 . S
C6009 C6010 1.524 . S
C6010 C6009 1.524 . S
C6010 C6011 1.397 . S
C6010 C6015 1.363 . S
C6011 H5982 0.950 . S
C6011 C6010 1.397 . S
C6011 C6012 1.334 . S
C6012 H5983 0.950 . S
C6012 C6011 1.334 . S
C6012 C6013 1.287 . S
C6013 C6012 1.287 . S
C6013 C6014 1.524 . S
C6013 H6016 0.999 . S
C6014 H5984 0.950 . S
C6014 C6013 1.524 . S
C6014 C6015 1.415 . S
C6015 H5985 0.950 . S
C6015 C6010 1.363 . S
C6015 C6014 1.415 . S
H6016 C6013 0.999 . S
H6017 C5998 0.913 . S
H6018 C6036 0.951 . S
H6019 C6038 0.951 . S
H6020 C6040 0.950 . S
H6021 C6041 0.950 . S
H6022 C6043 0.950 . S
H6023 C6046 0.950 . S
H6024 C6047 0.950 . S
H6025 C6049 0.950 . S
H6026 C6050 0.950 . S
H6027 C6051 0.951 . S
H6028 C6053 0.951 . S
H6029 C6055 0.950 . S
H6030 C6056 0.950 . S
H6031 C6058 0.950 . S
H6032 C6061 0.950 . S
H6033 C6062 0.950 . S
H6034 C6064 0.950 . S
H6035 C6065 0.950 . S
C6036 H6018 0.951 . S
C6036 C6037 1.366 . S
C6036 C6038 1.388 . S
C6037 C6036 1.366 . S
C6037 C6041 1.385 . S
C6038 H6019 0.951 . S
C6038 C6036 1.388 . S
C6038 C6039 1.366 . S
C6039 C6038 1.366 . S
C6039 C6040 1.414 . S
C6039 C6042 1.499 . S
C6040 H6020 0.950 . S
C6040 C6039 1.414 . S
C6040 C6041 1.374 . S
C6041 H6021 0.950 . S
C6041 C6037 1.385 . S
C6041 C6040 1.374 . S
C6042 C6039 1.499 . S
C6042 C6043 1.373 . S
C6042 C6044 1.389 . S
C6043 H6022 0.950 . S
C6043 C6042 1.373 . S
C6043 C6059 1.377 . S
C6044 C6042 1.389 . S
C6044 C6045 1.524 . S
C6044 C6058 1.377 . S
C6045 C6044 1.524 . S
C6045 C6046 1.397 . S
C6045 C6050 1.363 . S
C6046 H6023 0.950 . S
C6046 C6045 1.397 . S
C6046 C6047 1.334 . S
C6047 H6024 0.950 . S
C6047 C6046 1.334 . S
C6047 C6048 1.287 . S
C6048 C6047 1.287 . S
C6048 C6049 1.524 . S
C6048 H6067 0.913 . S
C6049 H6025 0.950 . S
C6049 C6048 1.524 . S
C6049 C6050 1.415 . S
C6050 H6026 0.950 . S
C6050 C6045 1.363 . S
C6050 C6049 1.415 . S
C6051 H6027 0.951 . S
C6051 C6052 1.366 . S
C6051 C6053 1.388 . S
C6052 C6051 1.366 . S
C6052 C6056 1.385 . S
C6053 H6028 0.951 . S
C6053 C6051 1.388 . S
C6053 C6054 1.366 . S
C6054 C6053 1.366 . S
C6054 C6055 1.414 . S
C6054 C6057 1.499 . S
C6055 H6029 0.950 . S
C6055 C6054 1.414 . S
C6055 C6056 1.374 . S
C6056 H6030 0.950 . S
C6056 C6052 1.385 . S
C6056 C6055 1.374 . S
C6057 C6054 1.499 . S
C6057 C6058 1.373 . S
C6057 C6059 1.389 . S
C6058 H6031 0.950 . S
C6058 C6044 1.377 . S
C6058 C6057 1.373 . S
C6059 C6043 1.377 . S
C6059 C6057 1.389 . S
C6059 C6060 1.524 . S
C6060 C6059 1.524 . S
C6060 C6061 1.397 . S
C6060 C6065 1.363 . S
C6061 H6032 0.950 . S
C6061 C6060 1.397 . S
C6061 C6062 1.334 . S
C6062 H6033 0.950 . S
C6062 C6061 1.334 . S
C6062 C6063 1.287 . S
C6063 C6062 1.287 . S
C6063 C6064 1.524 . S
C6063 H6066 0.999 . S
C6064 H6034 0.950 . S
C6064 C6063 1.524 . S
C6064 C6065 1.415 . S
C6065 H6035 0.950 . S
C6065 C6060 1.363 . S
C6065 C6064 1.415 . S
H6066 C6063 0.999 . S
H6067 C6048 0.913 . S
H6068 C6086 0.951 . S
H6069 C6088 0.951 . S
H6070 C6090 0.950 . S
H6071 C6091 0.950 . S
H6072 C6093 0.950 . S
H6073 C6096 0.950 . S
H6074 C6097 0.950 . S
H6075 C6099 0.950 . S
H6076 C6100 0.950 . S
H6077 C6101 0.951 . S
H6078 C6103 0.951 . S
H6079 C6105 0.950 . S
H6080 C6106 0.950 . S
H6081 C6108 0.950 . S
H6082 C6111 0.950 . S
H6083 C6112 0.950 . S
H6084 C6114 0.950 . S
H6085 C6115 0.950 . S
C6086 H6068 0.951 . S
C6086 C6087 1.366 . S
C6086 C6088 1.388 . S
C6087 C6086 1.366 . S
C6087 C6091 1.385 . S
C6088 H6069 0.951 . S
C6088 C6086 1.388 . S
C6088 C6089 1.366 . S
C6089 C6088 1.366 . S
C6089 C6090 1.414 . S
C6089 C6092 1.499 . S
C6090 H6070 0.950 . S
C6090 C6089 1.414 . S
C6090 C6091 1.374 . S
C6091 H6071 0.950 . S
C6091 C6087 1.385 . S
C6091 C6090 1.374 . S
C6092 C6089 1.499 . S
C6092 C6093 1.373 . S
C6092 C6094 1.389 . S
C6093 H6072 0.950 . S
C6093 C6092 1.373 . S
C6093 C6109 1.377 . S
C6094 C6092 1.389 . S
C6094 C6095 1.524 . S
C6094 C6108 1.377 . S
C6095 C6094 1.524 . S
C6095 C6096 1.397 . S
C6095 C6100 1.363 . S
C6096 H6073 0.950 . S
C6096 C6095 1.397 . S
C6096 C6097 1.334 . S
C6097 H6074 0.950 . S
C6097 C6096 1.334 . S
C6097 C6098 1.287 . S
C6098 C6097 1.287 . S
C6098 C6099 1.524 . S
C6098 H6117 0.913 . S
C6099 H6075 0.950 . S
C6099 C6098 1.524 . S
C6099 C6100 1.415 . S
C6100 H6076 0.950 . S
C6100 C6095 1.363 . S
C6100 C6099 1.415 . S
C6101 H6077 0.951 . S
C6101 C6102 1.366 . S
C6101 C6103 1.388 . S
C6102 C6101 1.366 . S
C6102 C6106 1.385 . S
C6103 H6078 0.951 . S
C6103 C6101 1.388 . S
C6103 C6104 1.366 . S
C6104 C6103 1.366 . S
C6104 C6105 1.414 . S
C6104 C6107 1.499 . S
C6105 H6079 0.950 . S
C6105 C6104 1.414 . S
C6105 C6106 1.374 . S
C6106 H6080 0.950 . S
C6106 C6102 1.385 . S
C6106 C6105 1.374 . S
C6107 C6104 1.499 . S
C6107 C6108 1.373 . S
C6107 C6109 1.389 . S
C6108 H6081 0.950 . S
C6108 C6094 1.377 . S
C6108 C6107 1.373 . S
C6109 C6093 1.377 . S
C6109 C6107 1.389 . S
C6109 C6110 1.524 . S
C6110 C6109 1.524 . S
C6110 C6111 1.397 . S
C6110 C6115 1.363 . S
C6111 H6082 0.950 . S
C6111 C6110 1.397 . S
C6111 C6112 1.334 . S
C6112 H6083 0.950 . S
C6112 C6111 1.334 . S
C6112 C6113 1.287 . S
C6113 C6112 1.287 . S
C6113 C6114 1.524 . S
C6113 H6116 0.999 . S
C6114 H6084 0.950 . S
C6114 C6113 1.524 . S
C6114 C6115 1.415 . S
C6115 H6085 0.950 . S
C6115 C6110 1.363 . S
C6115 C6114 1.415 . S
H6116 C6113 0.999 . S
H6117 C6098 0.913 . S
H6118 C6136 0.951 . S
H6119 C6138 0.951 . S
H6120 C6140 0.950 . S
H6121 C6141 0.950 . S
H6122 C6143 0.950 . S
H6123 C6146 0.950 . S
H6124 C6147 0.950 . S
H6125 C6149 0.950 . S
H6126 C6150 0.950 . S
H6127 C6151 0.951 . S
H6128 C6153 0.951 . S
H6129 C6155 0.950 . S
H6130 C6156 0.950 . S
H6131 C6158 0.950 . S
H6132 C6161 0.950 . S
H6133 C6162 0.950 . S
H6134 C6164 0.950 . S
H6135 C6165 0.950 . S
C6136 H6118 0.951 . S
C6136 C6137 1.366 . S
C6136 C6138 1.388 . S
C6137 C6136 1.366 . S
C6137 C6141 1.385 . S
C6138 H6119 0.951 . S
C6138 C6136 1.388 . S
C6138 C6139 1.366 . S
C6139 C6138 1.366 . S
C6139 C6140 1.414 . S
C6139 C6142 1.499 . S
C6140 H6120 0.950 . S
C6140 C6139 1.414 . S
C6140 C6141 1.374 . S
C6141 H6121 0.950 . S
C6141 C6137 1.385 . S
C6141 C6140 1.374 . S
C6142 C6139 1.499 . S
C6142 C6143 1.373 . S
C6142 C6144 1.389 . S
C6143 H6122 0.950 . S
C6143 C6142 1.373 . S
C6143 C6159 1.377 . S
C6144 C6142 1.389 . S
C6144 C6145 1.524 . S
C6144 C6158 1.377 . S
C6145 C6144 1.524 . S
C6145 C6146 1.397 . S
C6145 C6150 1.363 . S
C6146 H6123 0.950 . S
C6146 C6145 1.397 . S
C6146 C6147 1.334 . S
C6147 H6124 0.950 . S
C6147 C6146 1.334 . S
C6147 C6148 1.287 . S
C6148 C6147 1.287 . S
C6148 C6149 1.524 . S
C6148 H6167 0.913 . S
C6149 H6125 0.950 . S
C6149 C6148 1.524 . S
C6149 C6150 1.415 . S
C6150 H6126 0.950 . S
C6150 C6145 1.363 . S
C6150 C6149 1.415 . S
C6151 H6127 0.951 . S
C6151 C6152 1.366 . S
C6151 C6153 1.388 . S
C6152 C6151 1.366 . S
C6152 C6156 1.385 . S
C6153 H6128 0.951 . S
C6153 C6151 1.388 . S
C6153 C6154 1.366 . S
C6154 C6153 1.366 . S
C6154 C6155 1.414 . S
C6154 C6157 1.499 . S
C6155 H6129 0.950 . S
C6155 C6154 1.414 . S
C6155 C6156 1.374 . S
C6156 H6130 0.950 . S
C6156 C6152 1.385 . S
C6156 C6155 1.374 . S
C6157 C6154 1.499 . S
C6157 C6158 1.373 . S
C6157 C6159 1.389 . S
C6158 H6131 0.950 . S
C6158 C6144 1.377 . S
C6158 C6157 1.373 . S
C6159 C6143 1.377 . S
C6159 C6157 1.389 . S
C6159 C6160 1.524 . S
C6160 C6159 1.524 . S
C6160 C6161 1.397 . S
C6160 C6165 1.363 . S
C6161 H6132 0.950 . S
C6161 C6160 1.397 . S
C6161 C6162 1.334 . S
C6162 H6133 0.950 . S
C6162 C6161 1.334 . S
C6162 C6163 1.287 . S
C6163 C6162 1.287 . S
C6163 C6164 1.524 . S
C6163 H6166 0.999 . S
C6164 H6134 0.950 . S
C6164 C6163 1.524 . S
C6164 C6165 1.415 . S
C6165 H6135 0.950 . S
C6165 C6160 1.363 . S
C6165 C6164 1.415 . S
H6166 C6163 0.999 . S
H6167 C6148 0.913 . S
H6168 C6186 0.951 . S
H6169 C6188 0.951 . S
H6170 C6190 0.950 . S
H6171 C6191 0.950 . S
H6172 C6193 0.950 . S
H6173 C6196 0.950 . S
H6174 C6197 0.950 . S
H6175 C6199 0.950 . S
H6176 C6200 0.950 . S
H6177 C6201 0.951 . S
H6178 C6203 0.951 . S
H6179 C6205 0.950 . S
H6180 C6206 0.950 . S
H6181 C6208 0.950 . S
H6182 C6211 0.950 . S
H6183 C6212 0.950 . S
H6184 C6214 0.950 . S
H6185 C6215 0.950 . S
C6186 H6168 0.951 . S
C6186 C6187 1.366 . S
C6186 C6188 1.388 . S
C6187 C6186 1.366 . S
C6187 C6191 1.385 . S
C6188 H6169 0.951 . S
C6188 C6186 1.388 . S
C6188 C6189 1.366 . S
C6189 C6188 1.366 . S
C6189 C6190 1.414 . S
C6189 C6192 1.499 . S
C6190 H6170 0.950 . S
C6190 C6189 1.414 . S
C6190 C6191 1.374 . S
C6191 H6171 0.950 . S
C6191 C6187 1.385 . S
C6191 C6190 1.374 . S
C6192 C6189 1.499 . S
C6192 C6193 1.373 . S
C6192 C6194 1.389 . S
C6193 H6172 0.950 . S
C6193 C6192 1.373 . S
C6193 C6209 1.377 . S
C6194 C6192 1.389 . S
C6194 C6195 1.524 . S
C6194 C6208 1.377 . S
C6195 C6194 1.524 . S
C6195 C6196 1.397 . S
C6195 C6200 1.363 . S
C6196 H6173 0.950 . S
C6196 C6195 1.397 . S
C6196 C6197 1.334 . S
C6197 H6174 0.950 . S
C6197 C6196 1.334 . S
C6197 C6198 1.287 . S
C6198 C6197 1.287 . S
C6198 C6199 1.524 . S
C6198 H6217 0.913 . S
C6199 H6175 0.950 . S
C6199 C6198 1.524 . S
C6199 C6200 1.415 . S
C6200 H6176 0.950 . S
C6200 C6195 1.363 . S
C6200 C6199 1.415 . S
C6201 H6177 0.951 . S
C6201 C6202 1.366 . S
C6201 C6203 1.388 . S
C6202 C6201 1.366 . S
C6202 C6206 1.385 . S
C6203 H6178 0.951 . S
C6203 C6201 1.388 . S
C6203 C6204 1.366 . S
C6204 C6203 1.366 . S
C6204 C6205 1.414 . S
C6204 C6207 1.499 . S
C6205 H6179 0.950 . S
C6205 C6204 1.414 . S
C6205 C6206 1.374 . S
C6206 H6180 0.950 . S
C6206 C6202 1.385 . S
C6206 C6205 1.374 . S
C6207 C6204 1.499 . S
C6207 C6208 1.373 . S
C6207 C6209 1.389 . S
C6208 H6181 0.950 . S
C6208 C6194 1.377 . S
C6208 C6207 1.373 . S
C6209 C6193 1.377 . S
C6209 C6207 1.389 . S
C6209 C6210 1.524 . S
C6210 C6209 1.524 . S
C6210 C6211 1.397 . S
C6210 C6215 1.363 . S
C6211 H6182 0.950 . S
C6211 C6210 1.397 . S
C6211 C6212 1.334 . S
C6212 H6183 0.950 . S
C6212 C6211 1.334 . S
C6212 C6213 1.287 . S
C6213 C6212 1.287 . S
C6213 C6214 1.524 . S
C6213 H6216 0.999 . S
C6214 H6184 0.950 . S
C6214 C6213 1.524 . S
C6214 C6215 1.415 . S
C6215 H6185 0.950 . S
C6215 C6210 1.363 . S
C6215 C6214 1.415 . S
H6216 C6213 0.999 . S
H6217 C6198 0.913 . S
H6218 C6236 0.951 . S
H6219 C6238 0.951 . S
H6220 C6240 0.950 . S
H6221 C6241 0.950 . S
H6222 C6243 0.950 . S
H6223 C6246 0.950 . S
H6224 C6247 0.950 . S
H6225 C6249 0.950 . S
H6226 C6250 0.950 . S
H6227 C6251 0.951 . S
H6228 C6253 0.951 . S
H6229 C6255 0.950 . S
H6230 C6256 0.950 . S
H6231 C6258 0.950 . S
H6232 C6261 0.950 . S
H6233 C6262 0.950 . S
H6234 C6264 0.950 . S
H6235 C6265 0.950 . S
C6236 H6218 0.951 . S
C6236 C6237 1.366 . S
C6236 C6238 1.388 . S
C6237 C6236 1.366 . S
C6237 C6241 1.385 . S
C6238 H6219 0.951 . S
C6238 C6236 1.388 . S
C6238 C6239 1.366 . S
C6239 C6238 1.366 . S
C6239 C6240 1.414 . S
C6239 C6242 1.499 . S
C6240 H6220 0.950 . S
C6240 C6239 1.414 . S
C6240 C6241 1.374 . S
C6241 H6221 0.950 . S
C6241 C6237 1.385 . S
C6241 C6240 1.374 . S
C6242 C6239 1.499 . S
C6242 C6243 1.373 . S
C6242 C6244 1.389 . S
C6243 H6222 0.950 . S
C6243 C6242 1.373 . S
C6243 C6259 1.377 . S
C6244 C6242 1.389 . S
C6244 C6245 1.524 . S
C6244 C6258 1.377 . S
C6245 C6244 1.524 . S
C6245 C6246 1.397 . S
C6245 C6250 1.363 . S
C6246 H6223 0.950 . S
C6246 C6245 1.397 . S
C6246 C6247 1.334 . S
C6247 H6224 0.950 . S
C6247 C6246 1.334 . S
C6247 C6248 1.287 . S
C6248 C6247 1.287 . S
C6248 C6249 1.524 . S
C6248 H6267 0.913 . S
C6249 H6225 0.950 . S
C6249 C6248 1.524 . S
C6249 C6250 1.415 . S
C6250 H6226 0.950 . S
C6250 C6245 1.363 . S
C6250 C6249 1.415 . S
C6251 H6227 0.951 . S
C6251 C6252 1.366 . S
C6251 C6253 1.388 . S
C6252 C6251 1.366 . S
C6252 C6256 1.385 . S
C6253 H6228 0.951 . S
C6253 C6251 1.388 . S
C6253 C6254 1.366 . S
C6254 C6253 1.366 . S
C6254 C6255 1.414 . S
C6254 C6257 1.499 . S
C6255 H6229 0.950 . S
C6255 C6254 1.414 . S
C6255 C6256 1.374 . S
C6256 H6230 0.950 . S
C6256 C6252 1.385 . S
C6256 C6255 1.374 . S
C6257 C6254 1.499 . S
C6257 C6258 1.373 . S
C6257 C6259 1.389 . S
C6258 H6231 0.950 . S
C6258 C6244 1.377 . S
C6258 C6257 1.373 . S
C6259 C6243 1.377 . S
C6259 C6257 1.389 . S
C6259 C6260 1.524 . S
C6260 C6259 1.524 . S
C6260 C6261 1.397 . S
C6260 C6265 1.363 . S
C6261 H6232 0.950 . S
C6261 C6260 1.397 . S
C6261 C6262 1.334 . S
C6262 H6233 0.950 . S
C6262 C6261 1.334 . S
C6262 C6263 1.287 . S
C6263 C6262 1.287 . S
C6263 C6264 1.524 . S
C6263 H6266 0.999 . S
C6264 H6234 0.950 . S
C6264 C6263 1.524 . S
C6264 C6265 1.415 . S
C6265 H6235 0.950 . S
C6265 C6260 1.363 . S
C6265 C6264 1.415 . S
H6266 C6263 0.999 . S
H6267 C6248 0.913 . S
H6268 C6286 0.951 . S
H6269 C6288 0.951 . S
H6270 C6290 0.950 . S
H6271 C6291 0.950 . S
H6272 C6293 0.950 . S
H6273 C6296 0.950 . S
H6274 C6297 0.950 . S
H6275 C6299 0.950 . S
H6276 C6300 0.950 . S
H6277 C6301 0.951 . S
H6278 C6303 0.951 . S
H6279 C6305 0.950 . S
H6280 C6306 0.950 . S
H6281 C6308 0.950 . S
H6282 C6311 0.950 . S
H6283 C6312 0.950 . S
H6284 C6314 0.950 . S
H6285 C6315 0.950 . S
C6286 H6268 0.951 . S
C6286 C6287 1.366 . S
C6286 C6288 1.388 . S
C6287 C6286 1.366 . S
C6287 C6291 1.385 . S
C6288 H6269 0.951 . S
C6288 C6286 1.388 . S
C6288 C6289 1.366 . S
C6289 C6288 1.366 . S
C6289 C6290 1.414 . S
C6289 C6292 1.499 . S
C6290 H6270 0.950 . S
C6290 C6289 1.414 . S
C6290 C6291 1.374 . S
C6291 H6271 0.950 . S
C6291 C6287 1.385 . S
C6291 C6290 1.374 . S
C6292 C6289 1.499 . S
C6292 C6293 1.373 . S
C6292 C6294 1.389 . S
C6293 H6272 0.950 . S
C6293 C6292 1.373 . S
C6293 C6309 1.377 . S
C6294 C6292 1.389 . S
C6294 C6295 1.524 . S
C6294 C6308 1.377 . S
C6295 C6294 1.524 . S
C6295 C6296 1.397 . S
C6295 C6300 1.363 . S
C6296 H6273 0.950 . S
C6296 C6295 1.397 . S
C6296 C6297 1.334 . S
C6297 H6274 0.950 . S
C6297 C6296 1.334 . S
C6297 C6298 1.287 . S
C6298 C6297 1.287 . S
C6298 C6299 1.524 . S
C6298 H6317 0.913 . S
C6299 H6275 0.950 . S
C6299 C6298 1.524 . S
C6299 C6300 1.415 . S
C6300 H6276 0.950 . S
C6300 C6295 1.363 . S
C6300 C6299 1.415 . S
C6301 H6277 0.951 . S
C6301 C6302 1.366 . S
C6301 C6303 1.388 . S
C6302 C6301 1.366 . S
C6302 C6306 1.385 . S
C6303 H6278 0.951 . S
C6303 C6301 1.388 . S
C6303 C6304 1.366 . S
C6304 C6303 1.366 . S
C6304 C6305 1.414 . S
C6304 C6307 1.499 . S
C6305 H6279 0.950 . S
C6305 C6304 1.414 . S
C6305 C6306 1.374 . S
C6306 H6280 0.950 . S
C6306 C6302 1.385 . S
C6306 C6305 1.374 . S
C6307 C6304 1.499 . S
C6307 C6308 1.373 . S
C6307 C6309 1.389 . S
C6308 H6281 0.950 . S
C6308 C6294 1.377 . S
C6308 C6307 1.373 . S
C6309 C6293 1.377 . S
C6309 C6307 1.389 . S
C6309 C6310 1.524 . S
C6310 C6309 1.524 . S
C6310 C6311 1.397 . S
C6310 C6315 1.363 . S
C6311 H6282 0.950 . S
C6311 C6310 1.397 . S
C6311 C6312 1.334 . S
C6312 H6283 0.950 . S
C6312 C6311 1.334 . S
C6312 C6313 1.287 . S
C6313 C6312 1.287 . S
C6313 C6314 1.524 . S
C6313 H6316 0.999 . S
C6314 H6284 0.950 . S
C6314 C6313 1.524 . S
C6314 C6315 1.415 . S
C6315 H6285 0.950 . S
C6315 C6310 1.363 . S
C6315 C6314 1.415 . S
H6316 C6313 0.999 . S
H6317 C6298 0.913 . S
H6318 C6336 0.951 . S
H6319 C6338 0.951 . S
H6320 C6340 0.950 . S
H6321 C6341 0.950 . S
H6322 C6343 0.950 . S
H6323 C6346 0.950 . S
H6324 C6347 0.950 . S
H6325 C6349 0.950 . S
H6326 C6350 0.950 . S
H6327 C6351 0.951 . S
H6328 C6353 0.951 . S
H6329 C6355 0.950 . S
H6330 C6356 0.950 . S
H6331 C6358 0.950 . S
H6332 C6361 0.950 . S
H6333 C6362 0.950 . S
H6334 C6364 0.950 . S
H6335 C6365 0.950 . S
C6336 H6318 0.951 . S
C6336 C6337 1.366 . S
C6336 C6338 1.388 . S
C6337 C6336 1.366 . S
C6337 C6341 1.385 . S
C6338 H6319 0.951 . S
C6338 C6336 1.388 . S
C6338 C6339 1.366 . S
C6339 C6338 1.366 . S
C6339 C6340 1.414 . S
C6339 C6342 1.499 . S
C6340 H6320 0.950 . S
C6340 C6339 1.414 . S
C6340 C6341 1.374 . S
C6341 H6321 0.950 . S
C6341 C6337 1.385 . S
C6341 C6340 1.374 . S
C6342 C6339 1.499 . S
C6342 C6343 1.373 . S
C6342 C6344 1.389 . S
C6343 H6322 0.950 . S
C6343 C6342 1.373 . S
C6343 C6359 1.377 . S
C6344 C6342 1.389 . S
C6344 C6345 1.524 . S
C6344 C6358 1.377 . S
C6345 C6344 1.524 . S
C6345 C6346 1.397 . S
C6345 C6350 1.363 . S
C6346 H6323 0.950 . S
C6346 C6345 1.397 . S
C6346 C6347 1.334 . S
C6347 H6324 0.950 . S
C6347 C6346 1.334 . S
C6347 C6348 1.287 . S
C6348 C6347 1.287 . S
C6348 C6349 1.524 . S
C6348 H6367 0.913 . S
C6349 H6325 0.950 . S
C6349 C6348 1.524 . S
C6349 C6350 1.415 . S
C6350 H6326 0.950 . S
C6350 C6345 1.363 . S
C6350 C6349 1.415 . S
C6351 H6327 0.951 . S
C6351 C6352 1.366 . S
C6351 C6353 1.388 . S
C6352 C6351 1.366 . S
C6352 C6356 1.385 . S
C6353 H6328 0.951 . S
C6353 C6351 1.388 . S
C6353 C6354 1.366 . S
C6354 C6353 1.366 . S
C6354 C6355 1.414 . S
C6354 C6357 1.499 . S
C6355 H6329 0.950 . S
C6355 C6354 1.414 . S
C6355 C6356 1.374 . S
C6356 H6330 0.950 . S
C6356 C6352 1.385 . S
C6356 C6355 1.374 . S
C6357 C6354 1.499 . S
C6357 C6358 1.373 . S
C6357 C6359 1.389 . S
C6358 H6331 0.950 . S
C6358 C6344 1.377 . S
C6358 C6357 1.373 . S
C6359 C6343 1.377 . S
C6359 C6357 1.389 . S
C6359 C6360 1.524 . S
C6360 C6359 1.524 . S
C6360 C6361 1.397 . S
C6360 C6365 1.363 . S
C6361 H6332 0.950 . S
C6361 C6360 1.397 . S
C6361 C6362 1.334 . S
C6362 H6333 0.950 . S
C6362 C6361 1.334 . S
C6362 C6363 1.287 . S
C6363 C6362 1.287 . S
C6363 C6364 1.524 . S
C6363 H6366 0.999 . S
C6364 H6334 0.950 . S
C6364 C6363 1.524 . S
C6364 C6365 1.415 . S
C6365 H6335 0.950 . S
C6365 C6360 1.363 . S
C6365 C6364 1.415 . S
H6366 C6363 0.999 . S
H6367 C6348 0.913 . S
H6368 C6386 0.951 . S
H6369 C6388 0.951 . S
H6370 C6390 0.950 . S
H6371 C6391 0.950 . S
H6372 C6393 0.950 . S
H6373 C6396 0.950 . S
H6374 C6397 0.950 . S
H6375 C6399 0.950 . S
H6376 C6400 0.950 . S
H6377 C6401 0.951 . S
H6378 C6403 0.951 . S
H6379 C6405 0.950 . S
H6380 C6406 0.950 . S
H6381 C6408 0.950 . S
H6382 C6411 0.950 . S
H6383 C6412 0.950 . S
H6384 C6414 0.950 . S
H6385 C6415 0.950 . S
C6386 H6368 0.951 . S
C6386 C6387 1.366 . S
C6386 C6388 1.388 . S
C6387 C6386 1.366 . S
C6387 C6391 1.385 . S
C6388 H6369 0.951 . S
C6388 C6386 1.388 . S
C6388 C6389 1.366 . S
C6389 C6388 1.366 . S
C6389 C6390 1.414 . S
C6389 C6392 1.499 . S
C6390 H6370 0.950 . S
C6390 C6389 1.414 . S
C6390 C6391 1.374 . S
C6391 H6371 0.950 . S
C6391 C6387 1.385 . S
C6391 C6390 1.374 . S
C6392 C6389 1.499 . S
C6392 C6393 1.373 . S
C6392 C6394 1.389 . S
C6393 H6372 0.950 . S
C6393 C6392 1.373 . S
C6393 C6409 1.377 . S
C6394 C6392 1.389 . S
C6394 C6395 1.524 . S
C6394 C6408 1.377 . S
C6395 C6394 1.524 . S
C6395 C6396 1.397 . S
C6395 C6400 1.363 . S
C6396 H6373 0.950 . S
C6396 C6395 1.397 . S
C6396 C6397 1.334 . S
C6397 H6374 0.950 . S
C6397 C6396 1.334 . S
C6397 C6398 1.287 . S
C6398 C6397 1.287 . S
C6398 C6399 1.524 . S
C6398 H6417 0.913 . S
C6399 H6375 0.950 . S
C6399 C6398 1.524 . S
C6399 C6400 1.415 . S
C6400 H6376 0.950 . S
C6400 C6395 1.363 . S
C6400 C6399 1.415 . S
C6401 H6377 0.951 . S
C6401 C6402 1.366 . S
C6401 C6403 1.388 . S
C6402 C6401 1.366 . S
C6402 C6406 1.385 . S
C6403 H6378 0.951 . S
C6403 C6401 1.388 . S
C6403 C6404 1.366 . S
C6404 C6403 1.366 . S
C6404 C6405 1.414 . S
C6404 C6407 1.499 . S
C6405 H6379 0.950 . S
C6405 C6404 1.414 . S
C6405 C6406 1.374 . S
C6406 H6380 0.950 . S
C6406 C6402 1.385 . S
C6406 C6405 1.374 . S
C6407 C6404 1.499 . S
C6407 C6408 1.373 . S
C6407 C6409 1.389 . S
C6408 H6381 0.950 . S
C6408 C6394 1.377 . S
C6408 C6407 1.373 . S
C6409 C6393 1.377 . S
C6409 C6407 1.389 . S
C6409 C6410 1.524 . S
C6410 C6409 1.524 . S
C6410 C6411 1.397 . S
C6410 C6415 1.363 . S
C6411 H6382 0.950 . S
C6411 C6410 1.397 . S
C6411 C6412 1.334 . S
C6412 H6383 0.950 . S
C6412 C6411 1.334 . S
C6412 C6413 1.287 . S
C6413 C6412 1.287 . S
C6413 C6414 1.524 . S
C6413 H6416 0.999 . S
C6414 H6384 0.950 . S
C6414 C6413 1.524 . S
C6414 C6415 1.415 . S
C6415 H6385 0.950 . S
C6415 C6410 1.363 . S
C6415 C6414 1.415 . S
H6416 C6413 0.999 . S
H6417 C6398 0.913 . S
H6418 C6436 0.951 . S
H6419 C6438 0.951 . S
H6420 C6440 0.950 . S
H6421 C6441 0.950 . S
H6422 C6443 0.950 . S
H6423 C6446 0.950 . S
H6424 C6447 0.950 . S
H6425 C6449 0.950 . S
H6426 C6450 0.950 . S
H6427 C6451 0.951 . S
H6428 C6453 0.951 . S
H6429 C6455 0.950 . S
H6430 C6456 0.950 . S
H6431 C6458 0.950 . S
H6432 C6461 0.950 . S
H6433 C6462 0.950 . S
H6434 C6464 0.950 . S
H6435 C6465 0.950 . S
C6436 H6418 0.951 . S
C6436 C6437 1.366 . S
C6436 C6438 1.388 . S
C6437 C6436 1.366 . S
C6437 C6441 1.385 . S
C6438 H6419 0.951 . S
C6438 C6436 1.388 . S
C6438 C6439 1.366 . S
C6439 C6438 1.366 . S
C6439 C6440 1.414 . S
C6439 C6442 1.499 . S
C6440 H6420 0.950 . S
C6440 C6439 1.414 . S
C6440 C6441 1.374 . S
C6441 H6421 0.950 . S
C6441 C6437 1.385 . S
C6441 C6440 1.374 . S
C6442 C6439 1.499 . S
C6442 C6443 1.373 . S
C6442 C6444 1.389 . S
C6443 H6422 0.950 . S
C6443 C6442 1.373 . S
C6443 C6459 1.377 . S
C6444 C6442 1.389 . S
C6444 C6445 1.524 . S
C6444 C6458 1.377 . S
C6445 C6444 1.524 . S
C6445 C6446 1.397 . S
C6445 C6450 1.363 . S
C6446 H6423 0.950 . S
C6446 C6445 1.397 . S
C6446 C6447 1.334 . S
C6447 H6424 0.950 . S
C6447 C6446 1.334 . S
C6447 C6448 1.287 . S
C6448 C6447 1.287 . S
C6448 C6449 1.524 . S
C6448 H6467 0.913 . S
C6449 H6425 0.950 . S
C6449 C6448 1.524 . S
C6449 C6450 1.415 . S
C6450 H6426 0.950 . S
C6450 C6445 1.363 . S
C6450 C6449 1.415 . S
C6451 H6427 0.951 . S
C6451 C6452 1.366 . S
C6451 C6453 1.388 . S
C6452 C6451 1.366 . S
C6452 C6456 1.385 . S
C6453 H6428 0.951 . S
C6453 C6451 1.388 . S
C6453 C6454 1.366 . S
C6454 C6453 1.366 . S
C6454 C6455 1.414 . S
C6454 C6457 1.499 . S
C6455 H6429 0.950 . S
C6455 C6454 1.414 . S
C6455 C6456 1.374 . S
C6456 H6430 0.950 . S
C6456 C6452 1.385 . S
C6456 C6455 1.374 . S
C6457 C6454 1.499 . S
C6457 C6458 1.373 . S
C6457 C6459 1.389 . S
C6458 H6431 0.950 . S
C6458 C6444 1.377 . S
C6458 C6457 1.373 . S
C6459 C6443 1.377 . S
C6459 C6457 1.389 . S
C6459 C6460 1.524 . S
C6460 C6459 1.524 . S
C6460 C6461 1.397 . S
C6460 C6465 1.363 . S
C6461 H6432 0.950 . S
C6461 C6460 1.397 . S
C6461 C6462 1.334 . S
C6462 H6433 0.950 . S
C6462 C6461 1.334 . S
C6462 C6463 1.287 . S
C6463 C6462 1.287 . S
C6463 C6464 1.524 . S
C6463 H6466 0.999 . S
C6464 H6434 0.950 . S
C6464 C6463 1.524 . S
C6464 C6465 1.415 . S
C6465 H6435 0.950 . S
C6465 C6460 1.363 . S
C6465 C6464 1.415 . S
H6466 C6463 0.999 . S
H6467 C6448 0.913 . S
H6468 C6486 0.951 . S
H6469 C6488 0.951 . S
H6470 C6490 0.950 . S
H6471 C6491 0.950 . S
H6472 C6493 0.950 . S
H6473 C6496 0.950 . S
H6474 C6497 0.950 . S
H6475 C6499 0.950 . S
H6476 C6500 0.950 . S
H6477 C6501 0.951 . S
H6478 C6503 0.951 . S
H6479 C6505 0.950 . S
H6480 C6506 0.950 . S
H6481 C6508 0.950 . S
H6482 C6511 0.950 . S
H6483 C6512 0.950 . S
H6484 C6514 0.950 . S
H6485 C6515 0.950 . S
C6486 H6468 0.951 . S
C6486 C6487 1.366 . S
C6486 C6488 1.388 . S
C6487 C6486 1.366 . S
C6487 C6491 1.385 . S
C6488 H6469 0.951 . S
C6488 C6486 1.388 . S
C6488 C6489 1.366 . S
C6489 C6488 1.366 . S
C6489 C6490 1.414 . S
C6489 C6492 1.499 . S
C6490 H6470 0.950 . S
C6490 C6489 1.414 . S
C6490 C6491 1.374 . S
C6491 H6471 0.950 . S
C6491 C6487 1.385 . S
C6491 C6490 1.374 . S
C6492 C6489 1.499 . S
C6492 C6493 1.373 . S
C6492 C6494 1.389 . S
C6493 H6472 0.950 . S
C6493 C6492 1.373 . S
C6493 C6509 1.377 . S
C6494 C6492 1.389 . S
C6494 C6495 1.524 . S
C6494 C6508 1.377 . S
C6495 C6494 1.524 . S
C6495 C6496 1.397 . S
C6495 C6500 1.363 . S
C6496 H6473 0.950 . S
C6496 C6495 1.397 . S
C6496 C6497 1.334 . S
C6497 H6474 0.950 . S
C6497 C6496 1.334 . S
C6497 C6498 1.287 . S
C6498 C6497 1.287 . S
C6498 C6499 1.524 . S
C6498 H6517 0.913 . S
C6499 H6475 0.950 . S
C6499 C6498 1.524 . S
C6499 C6500 1.415 . S
C6500 H6476 0.950 . S
C6500 C6495 1.363 . S
C6500 C6499 1.415 . S
C6501 H6477 0.951 . S
C6501 C6502 1.366 . S
C6501 C6503 1.388 . S
C6502 C6501 1.366 . S
C6502 C6506 1.385 . S
C6503 H6478 0.951 . S
C6503 C6501 1.388 . S
C6503 C6504 1.366 . S
C6504 C6503 1.366 . S
C6504 C6505 1.414 . S
C6504 C6507 1.499 . S
C6505 H6479 0.950 . S
C6505 C6504 1.414 . S
C6505 C6506 1.374 . S
C6506 H6480 0.950 . S
C6506 C6502 1.385 . S
C6506 C6505 1.374 . S
C6507 C6504 1.499 . S
C6507 C6508 1.373 . S
C6507 C6509 1.389 . S
C6508 H6481 0.950 . S
C6508 C6494 1.377 . S
C6508 C6507 1.373 . S
C6509 C6493 1.377 . S
C6509 C6507 1.389 . S
C6509 C6510 1.524 . S
C6510 C6509 1.524 . S
C6510 C6511 1.397 . S
C6510 C6515 1.363 . S
C6511 H6482 0.950 . S
C6511 C6510 1.397 . S
C6511 C6512 1.334 . S
C6512 H6483 0.950 . S
C6512 C6511 1.334 . S
C6512 C6513 1.287 . S
C6513 C6512 1.287 . S
C6513 C6514 1.524 . S
C6513 H6516 0.999 . S
C6514 H6484 0.950 . S
C6514 C6513 1.524 . S
C6514 C6515 1.415 . S
C6515 H6485 0.950 . S
C6515 C6510 1.363 . S
C6515 C6514 1.415 . S
H6516 C6513 0.999 . S
H6517 C6498 0.913 . S
H6518 C6536 0.951 . S
H6519 C6538 0.951 . S
H6520 C6540 0.950 . S
H6521 C6541 0.950 . S
H6522 C6543 0.950 . S
H6523 C6546 0.950 . S
H6524 C6547 0.950 . S
H6525 C6549 0.950 . S
H6526 C6550 0.950 . S
H6527 C6551 0.951 . S
H6528 C6553 0.951 . S
H6529 C6555 0.950 . S
H6530 C6556 0.950 . S
H6531 C6558 0.950 . S
H6532 C6561 0.950 . S
H6533 C6562 0.950 . S
H6534 C6564 0.950 . S
H6535 C6565 0.950 . S
C6536 H6518 0.951 . S
C6536 C6537 1.366 . S
C6536 C6538 1.388 . S
C6537 C6536 1.366 . S
C6537 C6541 1.385 . S
C6538 H6519 0.951 . S
C6538 C6536 1.388 . S
C6538 C6539 1.366 . S
C6539 C6538 1.366 . S
C6539 C6540 1.414 . S
C6539 C6542 1.499 . S
C6540 H6520 0.950 . S
C6540 C6539 1.414 . S
C6540 C6541 1.374 . S
C6541 H6521 0.950 . S
C6541 C6537 1.385 . S
C6541 C6540 1.374 . S
C6542 C6539 1.499 . S
C6542 C6543 1.373 . S
C6542 C6544 1.389 . S
C6543 H6522 0.950 . S
C6543 C6542 1.373 . S
C6543 C6559 1.377 . S
C6544 C6542 1.389 . S
C6544 C6545 1.524 . S
C6544 C6558 1.377 . S
C6545 C6544 1.524 . S
C6545 C6546 1.397 . S
C6545 C6550 1.363 . S
C6546 H6523 0.950 . S
C6546 C6545 1.397 . S
C6546 C6547 1.334 . S
C6547 H6524 0.950 . S
C6547 C6546 1.334 . S
C6547 C6548 1.287 . S
C6548 C6547 1.287 . S
C6548 C6549 1.524 . S
C6548 H6567 0.913 . S
C6549 H6525 0.950 . S
C6549 C6548 1.524 . S
C6549 C6550 1.415 . S
C6550 H6526 0.950 . S
C6550 C6545 1.363 . S
C6550 C6549 1.415 . S
C6551 H6527 0.951 . S
C6551 C6552 1.366 . S
C6551 C6553 1.388 . S
C6552 C6551 1.366 . S
C6552 C6556 1.385 . S
C6553 H6528 0.951 . S
C6553 C6551 1.388 . S
C6553 C6554 1.366 . S
C6554 C6553 1.366 . S
C6554 C6555 1.414 . S
C6554 C6557 1.499 . S
C6555 H6529 0.950 . S
C6555 C6554 1.414 . S
C6555 C6556 1.374 . S
C6556 H6530 0.950 . S
C6556 C6552 1.385 . S
C6556 C6555 1.374 . S
C6557 C6554 1.499 . S
C6557 C6558 1.373 . S
C6557 C6559 1.389 . S
C6558 H6531 0.950 . S
C6558 C6544 1.377 . S
C6558 C6557 1.373 . S
C6559 C6543 1.377 . S
C6559 C6557 1.389 . S
C6559 C6560 1.524 . S
C6560 C6559 1.524 . S
C6560 C6561 1.397 . S
C6560 C6565 1.363 . S
C6561 H6532 0.950 . S
C6561 C6560 1.397 . S
C6561 C6562 1.334 . S
C6562 H6533 0.950 . S
C6562 C6561 1.334 . S
C6562 C6563 1.287 . S
C6563 C6562 1.287 . S
C6563 C6564 1.524 . S
C6563 H6566 0.999 . S
C6564 H6534 0.950 . S
C6564 C6563 1.524 . S
C6564 C6565 1.415 . S
C6565 H6535 0.950 . S
C6565 C6560 1.363 . S
C6565 C6564 1.415 . S
H6566 C6563 0.999 . S
H6567 C6548 0.913 . S
H6568 C6586 0.951 . S
H6569 C6588 0.951 . S
H6570 C6590 0.950 . S
H6571 C6591 0.950 . S
H6572 C6593 0.950 . S
H6573 C6596 0.950 . S
H6574 C6597 0.950 . S
H6575 C6599 0.950 . S
H6576 C6600 0.950 . S
H6577 C6601 0.951 . S
H6578 C6603 0.951 . S
H6579 C6605 0.950 . S
H6580 C6606 0.950 . S
H6581 C6608 0.950 . S
H6582 C6611 0.950 . S
H6583 C6612 0.950 . S
H6584 C6614 0.950 . S
H6585 C6615 0.950 . S
C6586 H6568 0.951 . S
C6586 C6587 1.366 . S
C6586 C6588 1.388 . S
C6587 C6586 1.366 . S
C6587 C6591 1.385 . S
C6588 H6569 0.951 . S
C6588 C6586 1.388 . S
C6588 C6589 1.366 . S
C6589 C6588 1.366 . S
C6589 C6590 1.414 . S
C6589 C6592 1.499 . S
C6590 H6570 0.950 . S
C6590 C6589 1.414 . S
C6590 C6591 1.374 . S
C6591 H6571 0.950 . S
C6591 C6587 1.385 . S
C6591 C6590 1.374 . S
C6592 C6589 1.499 . S
C6592 C6593 1.373 . S
C6592 C6594 1.389 . S
C6593 H6572 0.950 . S
C6593 C6592 1.373 . S
C6593 C6609 1.377 . S
C6594 C6592 1.389 . S
C6594 C6595 1.524 . S
C6594 C6608 1.377 . S
C6595 C6594 1.524 . S
C6595 C6596 1.397 . S
C6595 C6600 1.363 . S
C6596 H6573 0.950 . S
C6596 C6595 1.397 . S
C6596 C6597 1.334 . S
C6597 H6574 0.950 . S
C6597 C6596 1.334 . S
C6597 C6598 1.287 . S
C6598 C6597 1.287 . S
C6598 C6599 1.524 . S
C6598 H6617 0.913 . S
C6599 H6575 0.950 . S
C6599 C6598 1.524 . S
C6599 C6600 1.415 . S
C6600 H6576 0.950 . S
C6600 C6595 1.363 . S
C6600 C6599 1.415 . S
C6601 H6577 0.951 . S
C6601 C6602 1.366 . S
C6601 C6603 1.388 . S
C6602 C6601 1.366 . S
C6602 C6606 1.385 . S
C6603 H6578 0.951 . S
C6603 C6601 1.388 . S
C6603 C6604 1.366 . S
C6604 C6603 1.366 . S
C6604 C6605 1.414 . S
C6604 C6607 1.499 . S
C6605 H6579 0.950 . S
C6605 C6604 1.414 . S
C6605 C6606 1.374 . S
C6606 H6580 0.950 . S
C6606 C6602 1.385 . S
C6606 C6605 1.374 . S
C6607 C6604 1.499 . S
C6607 C6608 1.373 . S
C6607 C6609 1.389 . S
C6608 H6581 0.950 . S
C6608 C6594 1.377 . S
C6608 C6607 1.373 . S
C6609 C6593 1.377 . S
C6609 C6607 1.389 . S
C6609 C6610 1.524 . S
C6610 C6609 1.524 . S
C6610 C6611 1.397 . S
C6610 C6615 1.363 . S
C6611 H6582 0.950 . S
C6611 C6610 1.397 . S
C6611 C6612 1.334 . S
C6612 H6583 0.950 . S
C6612 C6611 1.334 . S
C6612 C6613 1.287 . S
C6613 C6612 1.287 . S
C6613 C6614 1.524 . S
C6613 H6616 0.999 . S
C6614 H6584 0.950 . S
C6614 C6613 1.524 . S
C6614 C6615 1.415 . S
C6615 H6585 0.950 . S
C6615 C6610 1.363 . S
C6615 C6614 1.415 . S
H6616 C6613 0.999 . S
H6617 C6598 0.913 . S
H6618 C6636 0.951 . S
H6619 C6638 0.951 . S
H6620 C6640 0.950 . S
H6621 C6641 0.950 . S
H6622 C6643 0.950 . S
H6623 C6646 0.950 . S
H6624 C6647 0.950 . S
H6625 C6649 0.950 . S
H6626 C6650 0.950 . S
H6627 C6651 0.951 . S
H6628 C6653 0.951 . S
H6629 C6655 0.950 . S
H6630 C6656 0.950 . S
H6631 C6658 0.950 . S
H6632 C6661 0.950 . S
H6633 C6662 0.950 . S
H6634 C6664 0.950 . S
H6635 C6665 0.950 . S
C6636 H6618 0.951 . S
C6636 C6637 1.366 . S
C6636 C6638 1.388 . S
C6637 C6636 1.366 . S
C6637 C6641 1.385 . S
C6638 H6619 0.951 . S
C6638 C6636 1.388 . S
C6638 C6639 1.366 . S
C6639 C6638 1.366 . S
C6639 C6640 1.414 . S
C6639 C6642 1.499 . S
C6640 H6620 0.950 . S
C6640 C6639 1.414 . S
C6640 C6641 1.374 . S
C6641 H6621 0.950 . S
C6641 C6637 1.385 . S
C6641 C6640 1.374 . S
C6642 C6639 1.499 . S
C6642 C6643 1.373 . S
C6642 C6644 1.389 . S
C6643 H6622 0.950 . S
C6643 C6642 1.373 . S
C6643 C6659 1.377 . S
C6644 C6642 1.389 . S
C6644 C6645 1.524 . S
C6644 C6658 1.377 . S
C6645 C6644 1.524 . S
C6645 C6646 1.397 . S
C6645 C6650 1.363 . S
C6646 H6623 0.950 . S
C6646 C6645 1.397 . S
C6646 C6647 1.334 . S
C6647 H6624 0.950 . S
C6647 C6646 1.334 . S
C6647 C6648 1.287 . S
C6648 C6647 1.287 . S
C6648 C6649 1.524 . S
C6648 H6667 0.913 . S
C6649 H6625 0.950 . S
C6649 C6648 1.524 . S
C6649 C6650 1.415 . S
C6650 H6626 0.950 . S
C6650 C6645 1.363 . S
C6650 C6649 1.415 . S
C6651 H6627 0.951 . S
C6651 C6652 1.366 . S
C6651 C6653 1.388 . S
C6652 C6651 1.366 . S
C6652 C6656 1.385 . S
C6653 H6628 0.951 . S
C6653 C6651 1.388 . S
C6653 C6654 1.366 . S
C6654 C6653 1.366 . S
C6654 C6655 1.414 . S
C6654 C6657 1.499 . S
C6655 H6629 0.950 . S
C6655 C6654 1.414 . S
C6655 C6656 1.374 . S
C6656 H6630 0.950 . S
C6656 C6652 1.385 . S
C6656 C6655 1.374 . S
C6657 C6654 1.499 . S
C6657 C6658 1.373 . S
C6657 C6659 1.389 . S
C6658 H6631 0.950 . S
C6658 C6644 1.377 . S
C6658 C6657 1.373 . S
C6659 C6643 1.377 . S
C6659 C6657 1.389 . S
C6659 C6660 1.524 . S
C6660 C6659 1.524 . S
C6660 C6661 1.397 . S
C6660 C6665 1.363 . S
C6661 H6632 0.950 . S
C6661 C6660 1.397 . S
C6661 C6662 1.334 . S
C6662 H6633 0.950 . S
C6662 C6661 1.334 . S
C6662 C6663 1.287 . S
C6663 C6662 1.287 . S
C6663 C6664 1.524 . S
C6663 H6666 0.999 . S
C6664 H6634 0.950 . S
C6664 C6663 1.524 . S
C6664 C6665 1.415 . S
C6665 H6635 0.950 . S
C6665 C6660 1.363 . S
C6665 C6664 1.415 . S
H6666 C6663 0.999 . S
H6667 C6648 0.913 . S
H6668 C6686 0.951 . S
H6669 C6688 0.951 . S
H6670 C6690 0.950 . S
H6671 C6691 0.950 . S
H6672 C6693 0.950 . S
H6673 C6696 0.950 . S
H6674 C6697 0.950 . S
H6675 C6699 0.950 . S
H6676 C6700 0.950 . S
H6677 C6701 0.951 . S
H6678 C6703 0.951 . S
H6679 C6705 0.950 . S
H6680 C6706 0.950 . S
H6681 C6708 0.950 . S
H6682 C6711 0.950 . S
H6683 C6712 0.950 . S
H6684 C6714 0.950 . S
H6685 C6715 0.950 . S
C6686 H6668 0.951 . S
C6686 C6687 1.366 . S
C6686 C6688 1.388 . S
C6687 C6686 1.366 . S
C6687 C6691 1.385 . S
C6688 H6669 0.951 . S
C6688 C6686 1.388 . S
C6688 C6689 1.366 . S
C6689 C6688 1.366 . S
C6689 C6690 1.414 . S
C6689 C6692 1.499 . S
C6690 H6670 0.950 . S
C6690 C6689 1.414 . S
C6690 C6691 1.374 . S
C6691 H6671 0.950 . S
C6691 C6687 1.385 . S
C6691 C6690 1.374 . S
C6692 C6689 1.499 . S
C6692 C6693 1.373 . S
C6692 C6694 1.389 . S
C6693 H6672 0.950 . S
C6693 C6692 1.373 . S
C6693 C6709 1.377 . S
C6694 C6692 1.389 . S
C6694 C6695 1.524 . S
C6694 C6708 1.377 . S
C6695 C6694 1.524 . S
C6695 C6696 1.397 . S
C6695 C6700 1.363 . S
C6696 H6673 0.950 . S
C6696 C6695 1.397 . S
C6696 C6697 1.334 . S
C6697 H6674 0.950 . S
C6697 C6696 1.334 . S
C6697 C6698 1.287 . S
C6698 C6697 1.287 . S
C6698 C6699 1.524 . S
C6698 H6717 0.913 . S
C6699 H6675 0.950 . S
C6699 C6698 1.524 . S
C6699 C6700 1.415 . S
C6700 H6676 0.950 . S
C6700 C6695 1.363 . S
C6700 C6699 1.415 . S
C6701 H6677 0.951 . S
C6701 C6702 1.366 . S
C6701 C6703 1.388 . S
C6702 C6701 1.366 . S
C6702 C6706 1.385 . S
C6703 H6678 0.951 . S
C6703 C6701 1.388 . S
C6703 C6704 1.366 . S
C6704 C6703 1.366 . S
C6704 C6705 1.414 . S
C6704 C6707 1.499 . S
C6705 H6679 0.950 . S
C6705 C6704 1.414 . S
C6705 C6706 1.374 . S
C6706 H6680 0.950 . S
C6706 C6702 1.385 . S
C6706 C6705 1.374 . S
C6707 C6704 1.499 . S
C6707 C6708 1.373 . S
C6707 C6709 1.389 . S
C6708 H6681 0.950 . S
C6708 C6694 1.377 . S
C6708 C6707 1.373 . S
C6709 C6693 1.377 . S
C6709 C6707 1.389 . S
C6709 C6710 1.524 . S
C6710 C6709 1.524 . S
C6710 C6711 1.397 . S
C6710 C6715 1.363 . S
C6711 H6682 0.950 . S
C6711 C6710 1.397 . S
C6711 C6712 1.334 . S
C6712 H6683 0.950 . S
C6712 C6711 1.334 . S
C6712 C6713 1.287 . S
C6713 C6712 1.287 . S
C6713 C6714 1.524 . S
C6713 H6716 0.999 . S
C6714 H6684 0.950 . S
C6714 C6713 1.524 . S
C6714 C6715 1.415 . S
C6715 H6685 0.950 . S
C6715 C6710 1.363 . S
C6715 C6714 1.415 . S
H6716 C6713 0.999 . S
H6717 C6698 0.913 . S
H6718 C6736 0.951 . S
H6719 C6738 0.951 . S
H6720 C6740 0.950 . S
H6721 C6741 0.950 . S
H6722 C6743 0.950 . S
H6723 C6746 0.950 . S
H6724 C6747 0.950 . S
H6725 C6749 0.950 . S
H6726 C6750 0.950 . S
H6727 C6751 0.951 . S
H6728 C6753 0.951 . S
H6729 C6755 0.950 . S
H6730 C6756 0.950 . S
H6731 C6758 0.950 . S
H6732 C6761 0.950 . S
H6733 C6762 0.950 . S
H6734 C6764 0.950 . S
H6735 C6765 0.950 . S
C6736 H6718 0.951 . S
C6736 C6737 1.366 . S
C6736 C6738 1.388 . S
C6737 C6736 1.366 . S
C6737 C6741 1.385 . S
C6738 H6719 0.951 . S
C6738 C6736 1.388 . S
C6738 C6739 1.366 . S
C6739 C6738 1.366 . S
C6739 C6740 1.414 . S
C6739 C6742 1.499 . S
C6740 H6720 0.950 . S
C6740 C6739 1.414 . S
C6740 C6741 1.374 . S
C6741 H6721 0.950 . S
C6741 C6737 1.385 . S
C6741 C6740 1.374 . S
C6742 C6739 1.499 . S
C6742 C6743 1.373 . S
C6742 C6744 1.389 . S
C6743 H6722 0.950 . S
C6743 C6742 1.373 . S
C6743 C6759 1.377 . S
C6744 C6742 1.389 . S
C6744 C6745 1.524 . S
C6744 C6758 1.377 . S
C6745 C6744 1.524 . S
C6745 C6746 1.397 . S
C6745 C6750 1.363 . S
C6746 H6723 0.950 . S
C6746 C6745 1.397 . S
C6746 C6747 1.334 . S
C6747 H6724 0.950 . S
C6747 C6746 1.334 . S
C6747 C6748 1.287 . S
C6748 C6747 1.287 . S
C6748 C6749 1.524 . S
C6748 H6767 0.913 . S
C6749 H6725 0.950 . S
C6749 C6748 1.524 . S
C6749 C6750 1.415 . S
C6750 H6726 0.950 . S
C6750 C6745 1.363 . S
C6750 C6749 1.415 . S
C6751 H6727 0.951 . S
C6751 C6752 1.366 . S
C6751 C6753 1.388 . S
C6752 C6751 1.366 . S
C6752 C6756 1.385 . S
C6753 H6728 0.951 . S
C6753 C6751 1.388 . S
C6753 C6754 1.366 . S
C6754 C6753 1.366 . S
C6754 C6755 1.414 . S
C6754 C6757 1.499 . S
C6755 H6729 0.950 . S
C6755 C6754 1.414 . S
C6755 C6756 1.374 . S
C6756 H6730 0.950 . S
C6756 C6752 1.385 . S
C6756 C6755 1.374 . S
C6757 C6754 1.499 . S
C6757 C6758 1.373 . S
C6757 C6759 1.389 . S
C6758 H6731 0.950 . S
C6758 C6744 1.377 . S
C6758 C6757 1.373 . S
C6759 C6743 1.377 . S
C6759 C6757 1.389 . S
C6759 C6760 1.524 . S
C6760 C6759 1.524 . S
C6760 C6761 1.397 . S
C6760 C6765 1.363 . S
C6761 H6732 0.950 . S
C6761 C6760 1.397 . S
C6761 C6762 1.334 . S
C6762 H6733 0.950 . S
C6762 C6761 1.334 . S
C6762 C6763 1.287 . S
C6763 C6762 1.287 . S
C6763 C6764 1.524 . S
C6763 H6766 0.999 . S
C6764 H6734 0.950 . S
C6764 C6763 1.524 . S
C6764 C6765 1.415 . S
C6765 H6735 0.950 . S
C6765 C6760 1.363 . S
C6765 C6764 1.415 . S
H6766 C6763 0.999 . S
H6767 C6748 0.913 . S
H6768 C6786 0.951 . S
H6769 C6788 0.951 . S
H6770 C6790 0.950 . S
H6771 C6791 0.950 . S
H6772 C6793 0.950 . S
H6773 C6796 0.950 . S
H6774 C6797 0.950 . S
H6775 C6799 0.950 . S
H6776 C6800 0.950 . S
H6777 C6801 0.951 . S
H6778 C6803 0.951 . S
H6779 C6805 0.950 . S
H6780 C6806 0.950 . S
H6781 C6808 0.950 . S
H6782 C6811 0.950 . S
H6783 C6812 0.950 . S
H6784 C6814 0.950 . S
H6785 C6815 0.950 . S
C6786 H6768 0.951 . S
C6786 C6787 1.366 . S
C6786 C6788 1.388 . S
C6787 C6786 1.366 . S
C6787 C6791 1.385 . S
C6788 H6769 0.951 . S
C6788 C6786 1.388 . S
C6788 C6789 1.366 . S
C6789 C6788 1.366 . S
C6789 C6790 1.414 . S
C6789 C6792 1.499 . S
C6790 H6770 0.950 . S
C6790 C6789 1.414 . S
C6790 C6791 1.374 . S
C6791 H6771 0.950 . S
C6791 C6787 1.385 . S
C6791 C6790 1.374 . S
C6792 C6789 1.499 . S
C6792 C6793 1.373 . S
C6792 C6794 1.389 . S
C6793 H6772 0.950 . S
C6793 C6792 1.373 . S
C6793 C6809 1.377 . S
C6794 C6792 1.389 . S
C6794 C6795 1.524 . S
C6794 C6808 1.377 . S
C6795 C6794 1.524 . S
C6795 C6796 1.397 . S
C6795 C6800 1.363 . S
C6796 H6773 0.950 . S
C6796 C6795 1.397 . S
C6796 C6797 1.334 . S
C6797 H6774 0.950 . S
C6797 C6796 1.334 . S
C6797 C6798 1.287 . S
C6798 C6797 1.287 . S
C6798 C6799 1.524 . S
C6798 H6817 0.913 . S
C6799 H6775 0.950 . S
C6799 C6798 1.524 . S
C6799 C6800 1.415 . S
C6800 H6776 0.950 . S
C6800 C6795 1.363 . S
C6800 C6799 1.415 . S
C6801 H6777 0.951 . S
C6801 C6802 1.366 . S
C6801 C6803 1.388 . S
C6802 C6801 1.366 . S
C6802 C6806 1.385 . S
C6803 H6778 0.951 . S
C6803 C6801 1.388 . S
C6803 C6804 1.366 . S
C6804 C6803 1.366 . S
C6804 C6805 1.414 . S
C6804 C6807 1.499 . S
C6805 H6779 0.950 . S
C6805 C6804 1.414 . S
C6805 C6806 1.374 . S
C6806 H6780 0.950 . S
C6806 C6802 1.385 . S
C6806 C6805 1.374 . S
C6807 C6804 1.499 . S
C6807 C6808 1.373 . S
C6807 C6809 1.389 . S
C6808 H6781 0.950 . S
C6808 C6794 1.377 . S
C6808 C6807 1.373 . S
C6809 C6793 1.377 . S
C6809 C6807 1.389 . S
C6809 C6810 1.524 . S
C6810 C6809 1.524 . S
C6810 C6811 1.397 . S
C6810 C6815 1.363 . S
C6811 H6782 0.950 . S
C6811 C6810 1.397 . S
C6811 C6812 1.334 . S
C6812 H6783 0.950 . S
C6812 C6811 1.334 . S
C6812 C6813 1.287 . S
C6813 C6812 1.287 . S
C6813 C6814 1.524 . S
C6813 H6816 0.999 . S
C6814 H6784 0.950 . S
C6814 C6813 1.524 . S
C6814 C6815 1.415 . S
C6815 H6785 0.950 . S
C6815 C6810 1.363 . S
C6815 C6814 1.415 . S
H6816 C6813 0.999 . S
H6817 C6798 0.913 . S
H6818 C6836 0.951 . S
H6819 C6838 0.951 . S
H6820 C6840 0.950 . S
H6821 C6841 0.950 . S
H6822 C6843 0.950 . S
H6823 C6846 0.950 . S
H6824 C6847 0.950 . S
H6825 C6849 0.950 . S
H6826 C6850 0.950 . S
H6827 C6851 0.951 . S
H6828 C6853 0.951 . S
H6829 C6855 0.950 . S
H6830 C6856 0.950 . S
H6831 C6858 0.950 . S
H6832 C6861 0.950 . S
H6833 C6862 0.950 . S
H6834 C6864 0.950 . S
H6835 C6865 0.950 . S
C6836 H6818 0.951 . S
C6836 C6837 1.366 . S
C6836 C6838 1.388 . S
C6837 C6836 1.366 . S
C6837 C6841 1.385 . S
C6838 H6819 0.951 . S
C6838 C6836 1.388 . S
C6838 C6839 1.366 . S
C6839 C6838 1.366 . S
C6839 C6840 1.414 . S
C6839 C6842 1.499 . S
C6840 H6820 0.950 . S
C6840 C6839 1.414 . S
C6840 C6841 1.374 . S
C6841 H6821 0.950 . S
C6841 C6837 1.385 . S
C6841 C6840 1.374 . S
C6842 C6839 1.499 . S
C6842 C6843 1.373 . S
C6842 C6844 1.389 . S
C6843 H6822 0.950 . S
C6843 C6842 1.373 . S
C6843 C6859 1.377 . S
C6844 C6842 1.389 . S
C6844 C6845 1.524 . S
C6844 C6858 1.377 . S
C6845 C6844 1.524 . S
C6845 C6846 1.397 . S
C6845 C6850 1.363 . S
C6846 H6823 0.950 . S
C6846 C6845 1.397 . S
C6846 C6847 1.334 . S
C6847 H6824 0.950 . S
C6847 C6846 1.334 . S
C6847 C6848 1.287 . S
C6848 C6847 1.287 . S
C6848 C6849 1.524 . S
C6848 H6867 0.913 . S
C6849 H6825 0.950 . S
C6849 C6848 1.524 . S
C6849 C6850 1.415 . S
C6850 H6826 0.950 . S
C6850 C6845 1.363 . S
C6850 C6849 1.415 . S
C6851 H6827 0.951 . S
C6851 C6852 1.366 . S
C6851 C6853 1.388 . S
C6852 C6851 1.366 . S
C6852 C6856 1.385 . S
C6853 H6828 0.951 . S
C6853 C6851 1.388 . S
C6853 C6854 1.366 . S
C6854 C6853 1.366 . S
C6854 C6855 1.414 . S
C6854 C6857 1.499 . S
C6855 H6829 0.950 . S
C6855 C6854 1.414 . S
C6855 C6856 1.374 . S
C6856 H6830 0.950 . S
C6856 C6852 1.385 . S
C6856 C6855 1.374 . S
C6857 C6854 1.499 . S
C6857 C6858 1.373 . S
C6857 C6859 1.389 . S
C6858 H6831 0.950 . S
C6858 C6844 1.377 . S
C6858 C6857 1.373 . S
C6859 C6843 1.377 . S
C6859 C6857 1.389 . S
C6859 C6860 1.524 . S
C6860 C6859 1.524 . S
C6860 C6861 1.397 . S
C6860 C6865 1.363 . S
C6861 H6832 0.950 . S
C6861 C6860 1.397 . S
C6861 C6862 1.334 . S
C6862 H6833 0.950 . S
C6862 C6861 1.334 . S
C6862 C6863 1.287 . S
C6863 C6862 1.287 . S
C6863 C6864 1.524 . S
C6863 H6866 0.999 . S
C6864 H6834 0.950 . S
C6864 C6863 1.524 . S
C6864 C6865 1.415 . S
C6865 H6835 0.950 . S
C6865 C6860 1.363 . S
C6865 C6864 1.415 . S
H6866 C6863 0.999 . S
H6867 C6848 0.913 . S
H6868 C6886 0.951 . S
H6869 C6888 0.951 . S
H6870 C6890 0.950 . S
H6871 C6891 0.950 . S
H6872 C6893 0.950 . S
H6873 C6896 0.950 . S
H6874 C6897 0.950 . S
H6875 C6899 0.950 . S
H6876 C6900 0.950 . S
H6877 C6901 0.951 . S
H6878 C6903 0.951 . S
H6879 C6905 0.950 . S
H6880 C6906 0.950 . S
H6881 C6908 0.950 . S
H6882 C6911 0.950 . S
H6883 C6912 0.950 . S
H6884 C6914 0.950 . S
H6885 C6915 0.950 . S
C6886 H6868 0.951 . S
C6886 C6887 1.366 . S
C6886 C6888 1.388 . S
C6887 C6886 1.366 . S
C6887 C6891 1.385 . S
C6888 H6869 0.951 . S
C6888 C6886 1.388 . S
C6888 C6889 1.366 . S
C6889 C6888 1.366 . S
C6889 C6890 1.414 . S
C6889 C6892 1.499 . S
C6890 H6870 0.950 . S
C6890 C6889 1.414 . S
C6890 C6891 1.374 . S
C6891 H6871 0.950 . S
C6891 C6887 1.385 . S
C6891 C6890 1.374 . S
C6892 C6889 1.499 . S
C6892 C6893 1.373 . S
C6892 C6894 1.389 . S
C6893 H6872 0.950 . S
C6893 C6892 1.373 . S
C6893 C6909 1.377 . S
C6894 C6892 1.389 . S
C6894 C6895 1.524 . S
C6894 C6908 1.377 . S
C6895 C6894 1.524 . S
C6895 C6896 1.397 . S
C6895 C6900 1.363 . S
C6896 H6873 0.950 . S
C6896 C6895 1.397 . S
C6896 C6897 1.334 . S
C6897 H6874 0.950 . S
C6897 C6896 1.334 . S
C6897 C6898 1.287 . S
C6898 C6897 1.287 . S
C6898 C6899 1.524 . S
C6898 H6917 0.913 . S
C6899 H6875 0.950 . S
C6899 C6898 1.524 . S
C6899 C6900 1.415 . S
C6900 H6876 0.950 . S
C6900 C6895 1.363 . S
C6900 C6899 1.415 . S
C6901 H6877 0.951 . S
C6901 C6902 1.366 . S
C6901 C6903 1.388 . S
C6902 C6901 1.366 . S
C6902 C6906 1.385 . S
C6903 H6878 0.951 . S
C6903 C6901 1.388 . S
C6903 C6904 1.366 . S
C6904 C6903 1.366 . S
C6904 C6905 1.414 . S
C6904 C6907 1.499 . S
C6905 H6879 0.950 . S
C6905 C6904 1.414 . S
C6905 C6906 1.374 . S
C6906 H6880 0.950 . S
C6906 C6902 1.385 . S
C6906 C6905 1.374 . S
C6907 C6904 1.499 . S
C6907 C6908 1.373 . S
C6907 C6909 1.389 . S
C6908 H6881 0.950 . S
C6908 C6894 1.377 . S
C6908 C6907 1.373 . S
C6909 C6893 1.377 . S
C6909 C6907 1.389 . S
C6909 C6910 1.524 . S
C6910 C6909 1.524 . S
C6910 C6911 1.397 . S
C6910 C6915 1.363 . S
C6911 H6882 0.950 . S
C6911 C6910 1.397 . S
C6911 C6912 1.334 . S
C6912 H6883 0.950 . S
C6912 C6911 1.334 . S
C6912 C6913 1.287 . S
C6913 C6912 1.287 . S
C6913 C6914 1.524 . S
C6913 H6916 0.999 . S
C6914 H6884 0.950 . S
C6914 C6913 1.524 . S
C6914 C6915 1.415 . S
C6915 H6885 0.950 . S
C6915 C6910 1.363 . S
C6915 C6914 1.415 . S
H6916 C6913 0.999 . S
H6917 C6898 0.913 . S
H6918 C6936 0.951 . S
H6919 C6938 0.951 . S
H6920 C6940 0.950 . S
H6921 C6941 0.950 . S
H6922 C6943 0.950 . S
H6923 C6946 0.950 . S
H6924 C6947 0.950 . S
H6925 C6949 0.950 . S
H6926 C6950 0.950 . S
H6927 C6951 0.951 . S
H6928 C6953 0.951 . S
H6929 C6955 0.950 . S
H6930 C6956 0.950 . S
H6931 C6958 0.950 . S
H6932 C6961 0.950 . S
H6933 C6962 0.950 . S
H6934 C6964 0.950 . S
H6935 C6965 0.950 . S
C6936 H6918 0.951 . S
C6936 C6937 1.366 . S
C6936 C6938 1.388 . S
C6937 C6936 1.366 . S
C6937 C6941 1.385 . S
C6938 H6919 0.951 . S
C6938 C6936 1.388 . S
C6938 C6939 1.366 . S
C6939 C6938 1.366 . S
C6939 C6940 1.414 . S
C6939 C6942 1.499 . S
C6940 H6920 0.950 . S
C6940 C6939 1.414 . S
C6940 C6941 1.374 . S
C6941 H6921 0.950 . S
C6941 C6937 1.385 . S
C6941 C6940 1.374 . S
C6942 C6939 1.499 . S
C6942 C6943 1.373 . S
C6942 C6944 1.389 . S
C6943 H6922 0.950 . S
C6943 C6942 1.373 . S
C6943 C6959 1.377 . S
C6944 C6942 1.389 . S
C6944 C6945 1.524 . S
C6944 C6958 1.377 . S
C6945 C6944 1.524 . S
C6945 C6946 1.397 . S
C6945 C6950 1.363 . S
C6946 H6923 0.950 . S
C6946 C6945 1.397 . S
C6946 C6947 1.334 . S
C6947 H6924 0.950 . S
C6947 C6946 1.334 . S
C6947 C6948 1.287 . S
C6948 C6947 1.287 . S
C6948 C6949 1.524 . S
C6948 H6967 0.913 . S
C6949 H6925 0.950 . S
C6949 C6948 1.524 . S
C6949 C6950 1.415 . S
C6950 H6926 0.950 . S
C6950 C6945 1.363 . S
C6950 C6949 1.415 . S
C6951 H6927 0.951 . S
C6951 C6952 1.366 . S
C6951 C6953 1.388 . S
C6952 C6951 1.366 . S
C6952 C6956 1.385 . S
C6953 H6928 0.951 . S
C6953 C6951 1.388 . S
C6953 C6954 1.366 . S
C6954 C6953 1.366 . S
C6954 C6955 1.414 . S
C6954 C6957 1.499 . S
C6955 H6929 0.950 . S
C6955 C6954 1.414 . S
C6955 C6956 1.374 . S
C6956 H6930 0.950 . S
C6956 C6952 1.385 . S
C6956 C6955 1.374 . S
C6957 C6954 1.499 . S
C6957 C6958 1.373 . S
C6957 C6959 1.389 . S
C6958 H6931 0.950 . S
C6958 C6944 1.377 . S
C6958 C6957 1.373 . S
C6959 C6943 1.377 . S
C6959 C6957 1.389 . S
C6959 C6960 1.524 . S
C6960 C6959 1.524 . S
C6960 C6961 1.397 . S
C6960 C6965 1.363 . S
C6961 H6932 0.950 . S
C6961 C6960 1.397 . S
C6961 C6962 1.334 . S
C6962 H6933 0.950 . S
C6962 C6961 1.334 . S
C6962 C6963 1.287 . S
C6963 C6962 1.287 . S
C6963 C6964 1.524 . S
C6963 H6966 0.999 . S
C6964 H6934 0.950 . S
C6964 C6963 1.524 . S
C6964 C6965 1.415 . S
C6965 H6935 0.950 . S
C6965 C6960 1.363 . S
C6965 C6964 1.415 . S
H6966 C6963 0.999 . S
H6967 C6948 0.913 . S
H6968 C6986 0.951 . S
H6969 C6988 0.951 . S
H6970 C6990 0.950 . S
H6971 C6991 0.950 . S
H6972 C6993 0.950 . S
H6973 C6996 0.950 . S
H6974 C6997 0.950 . S
H6975 C6999 0.950 . S
H6976 C7000 0.950 . S
H6977 C7001 0.951 . S
H6978 C7003 0.951 . S
H6979 C7005 0.950 . S
H6980 C7006 0.950 . S
H6981 C7008 0.950 . S
H6982 C7011 0.950 . S
H6983 C7012 0.950 . S
H6984 C7014 0.950 . S
H6985 C7015 0.950 . S
C6986 H6968 0.951 . S
C6986 C6987 1.366 . S
C6986 C6988 1.388 . S
C6987 C6986 1.366 . S
C6987 C6991 1.385 . S
C6988 H6969 0.951 . S
C6988 C6986 1.388 . S
C6988 C6989 1.366 . S
C6989 C6988 1.366 . S
C6989 C6990 1.414 . S
C6989 C6992 1.499 . S
C6990 H6970 0.950 . S
C6990 C6989 1.414 . S
C6990 C6991 1.374 . S
C6991 H6971 0.950 . S
C6991 C6987 1.385 . S
C6991 C6990 1.374 . S
C6992 C6989 1.499 . S
C6992 C6993 1.373 . S
C6992 C6994 1.389 . S
C6993 H6972 0.950 . S
C6993 C6992 1.373 . S
C6993 C7009 1.377 . S
C6994 C6992 1.389 . S
C6994 C6995 1.524 . S
C6994 C7008 1.377 . S
C6995 C6994 1.524 . S
C6995 C6996 1.397 . S
C6995 C7000 1.363 . S
C6996 H6973 0.950 . S
C6996 C6995 1.397 . S
C6996 C6997 1.334 . S
C6997 H6974 0.950 . S
C6997 C6996 1.334 . S
C6997 C6998 1.287 . S
C6998 C6997 1.287 . S
C6998 C6999 1.524 . S
C6998 H7017 0.913 . S
C6999 H6975 0.950 . S
C6999 C6998 1.524 . S
C6999 C7000 1.415 . S
C7000 H6976 0.950 . S
C7000 C6995 1.363 . S
C7000 C6999 1.415 . S
C7001 H6977 0.951 . S
C7001 C7002 1.366 . S
C7001 C7003 1.388 . S
C7002 C7001 1.366 . S
C7002 C7006 1.385 . S
C7003 H6978 0.951 . S
C7003 C7001 1.388 . S
C7003 C7004 1.366 . S
C7004 C7003 1.366 . S
C7004 C7005 1.414 . S
C7004 C7007 1.499 . S
C7005 H6979 0.950 . S
C7005 C7004 1.414 . S
C7005 C7006 1.374 . S
C7006 H6980 0.950 . S
C7006 C7002 1.385 . S
C7006 C7005 1.374 . S
C7007 C7004 1.499 . S
C7007 C7008 1.373 . S
C7007 C7009 1.389 . S
C7008 H6981 0.950 . S
C7008 C6994 1.377 . S
C7008 C7007 1.373 . S
C7009 C6993 1.377 . S
C7009 C7007 1.389 . S
C7009 C7010 1.524 . S
C7010 C7009 1.524 . S
C7010 C7011 1.397 . S
C7010 C7015 1.363 . S
C7011 H6982 0.950 . S
C7011 C7010 1.397 . S
C7011 C7012 1.334 . S
C7012 H6983 0.950 . S
C7012 C7011 1.334 . S
C7012 C7013 1.287 . S
C7013 C7012 1.287 . S
C7013 C7014 1.524 . S
C7013 H7016 0.999 . S
C7014 H6984 0.950 . S
C7014 C7013 1.524 . S
C7014 C7015 1.415 . S
C7015 H6985 0.950 . S
C7015 C7010 1.363 . S
C7015 C7014 1.415 . S
H7016 C7013 0.999 . S
H7017 C6998 0.913 . S
H7018 C7036 0.951 . S
H7019 C7038 0.951 . S
H7020 C7040 0.950 . S
H7021 C7041 0.950 . S
H7022 C7043 0.950 . S
H7023 C7046 0.950 . S
H7024 C7047 0.950 . S
H7025 C7049 0.950 . S
H7026 C7050 0.950 . S
H7027 C7051 0.951 . S
H7028 C7053 0.951 . S
H7029 C7055 0.950 . S
H7030 C7056 0.950 . S
H7031 C7058 0.950 . S
H7032 C7061 0.950 . S
H7033 C7062 0.950 . S
H7034 C7064 0.950 . S
H7035 C7065 0.950 . S
C7036 H7018 0.951 . S
C7036 C7037 1.366 . S
C7036 C7038 1.388 . S
C7037 C7036 1.366 . S
C7037 C7041 1.385 . S
C7038 H7019 0.951 . S
C7038 C7036 1.388 . S
C7038 C7039 1.366 . S
C7039 C7038 1.366 . S
C7039 C7040 1.414 . S
C7039 C7042 1.499 . S
C7040 H7020 0.950 . S
C7040 C7039 1.414 . S
C7040 C7041 1.374 . S
C7041 H7021 0.950 . S
C7041 C7037 1.385 . S
C7041 C7040 1.374 . S
C7042 C7039 1.499 . S
C7042 C7043 1.373 . S
C7042 C7044 1.389 . S
C7043 H7022 0.950 . S
C7043 C7042 1.373 . S
C7043 C7059 1.377 . S
C7044 C7042 1.389 . S
C7044 C7045 1.524 . S
C7044 C7058 1.377 . S
C7045 C7044 1.524 . S
C7045 C7046 1.397 . S
C7045 C7050 1.363 . S
C7046 H7023 0.950 . S
C7046 C7045 1.397 . S
C7046 C7047 1.334 . S
C7047 H7024 0.950 . S
C7047 C7046 1.334 . S
C7047 C7048 1.287 . S
C7048 C7047 1.287 . S
C7048 C7049 1.524 . S
C7048 H7067 0.913 . S
C7049 H7025 0.950 . S
C7049 C7048 1.524 . S
C7049 C7050 1.415 . S
C7050 H7026 0.950 . S
C7050 C7045 1.363 . S
C7050 C7049 1.415 . S
C7051 H7027 0.951 . S
C7051 C7052 1.366 . S
C7051 C7053 1.388 . S
C7052 C7051 1.366 . S
C7052 C7056 1.385 . S
C7053 H7028 0.951 . S
C7053 C7051 1.388 . S
C7053 C7054 1.366 . S
C7054 C7053 1.366 . S
C7054 C7055 1.414 . S
C7054 C7057 1.499 . S
C7055 H7029 0.950 . S
C7055 C7054 1.414 . S
C7055 C7056 1.374 . S
C7056 H7030 0.950 . S
C7056 C7052 1.385 . S
C7056 C7055 1.374 . S
C7057 C7054 1.499 . S
C7057 C7058 1.373 . S
C7057 C7059 1.389 . S
C7058 H7031 0.950 . S
C7058 C7044 1.377 . S
C7058 C7057 1.373 . S
C7059 C7043 1.377 . S
C7059 C7057 1.389 . S
C7059 C7060 1.524 . S
C7060 C7059 1.524 . S
C7060 C7061 1.397 . S
C7060 C7065 1.363 . S
C7061 H7032 0.950 . S
C7061 C7060 1.397 . S
C7061 C7062 1.334 . S
C7062 H7033 0.950 . S
C7062 C7061 1.334 . S
C7062 C7063 1.287 . S
C7063 C7062 1.287 . S
C7063 C7064 1.524 . S
C7063 H7066 0.999 . S
C7064 H7034 0.950 . S
C7064 C7063 1.524 . S
C7064 C7065 1.415 . S
C7065 H7035 0.950 . S
C7065 C7060 1.363 . S
C7065 C7064 1.415 . S
H7066 C7063 0.999 . S
H7067 C7048 0.913 . S
H7068 C7086 0.951 . S
H7069 C7088 0.951 . S
H7070 C7090 0.950 . S
H7071 C7091 0.950 . S
H7072 C7093 0.950 . S
H7073 C7096 0.950 . S
H7074 C7097 0.950 . S
H7075 C7099 0.950 . S
H7076 C7100 0.950 . S
H7077 C7101 0.951 . S
H7078 C7103 0.951 . S
H7079 C7105 0.950 . S
H7080 C7106 0.950 . S
H7081 C7108 0.950 . S
H7082 C7111 0.950 . S
H7083 C7112 0.950 . S
H7084 C7114 0.950 . S
H7085 C7115 0.950 . S
C7086 H7068 0.951 . S
C7086 C7087 1.366 . S
C7086 C7088 1.388 . S
C7087 C7086 1.366 . S
C7087 C7091 1.385 . S
C7088 H7069 0.951 . S
C7088 C7086 1.388 . S
C7088 C7089 1.366 . S
C7089 C7088 1.366 . S
C7089 C7090 1.414 . S
C7089 C7092 1.499 . S
C7090 H7070 0.950 . S
C7090 C7089 1.414 . S
C7090 C7091 1.374 . S
C7091 H7071 0.950 . S
C7091 C7087 1.385 . S
C7091 C7090 1.374 . S
C7092 C7089 1.499 . S
C7092 C7093 1.373 . S
C7092 C7094 1.389 . S
C7093 H7072 0.950 . S
C7093 C7092 1.373 . S
C7093 C7109 1.377 . S
C7094 C7092 1.389 . S
C7094 C7095 1.524 . S
C7094 C7108 1.377 . S
C7095 C7094 1.524 . S
C7095 C7096 1.397 . S
C7095 C7100 1.363 . S
C7096 H7073 0.950 . S
C7096 C7095 1.397 . S
C7096 C7097 1.334 . S
C7097 H7074 0.950 . S
C7097 C7096 1.334 . S
C7097 C7098 1.287 . S
C7098 C7097 1.287 . S
C7098 C7099 1.524 . S
C7098 H7117 0.913 . S
C7099 H7075 0.950 . S
C7099 C7098 1.524 . S
C7099 C7100 1.415 . S
C7100 H7076 0.950 . S
C7100 C7095 1.363 . S
C7100 C7099 1.415 . S
C7101 H7077 0.951 . S
C7101 C7102 1.366 . S
C7101 C7103 1.388 . S
C7102 C7101 1.366 . S
C7102 C7106 1.385 . S
C7103 H7078 0.951 . S
C7103 C7101 1.388 . S
C7103 C7104 1.366 . S
C7104 C7103 1.366 . S
C7104 C7105 1.414 . S
C7104 C7107 1.499 . S
C7105 H7079 0.950 . S
C7105 C7104 1.414 . S
C7105 C7106 1.374 . S
C7106 H7080 0.950 . S
C7106 C7102 1.385 . S
C7106 C7105 1.374 . S
C7107 C7104 1.499 . S
C7107 C7108 1.373 . S
C7107 C7109 1.389 . S
C7108 H7081 0.950 . S
C7108 C7094 1.377 . S
C7108 C7107 1.373 . S
C7109 C7093 1.377 . S
C7109 C7107 1.389 . S
C7109 C7110 1.524 . S
C7110 C7109 1.524 . S
C7110 C7111 1.397 . S
C7110 C7115 1.363 . S
C7111 H7082 0.950 . S
C7111 C7110 1.397 . S
C7111 C7112 1.334 . S
C7112 H7083 0.950 . S
C7112 C7111 1.334 . S
C7112 C7113 1.287 . S
C7113 C7112 1.287 . S
C7113 C7114 1.524 . S
C7113 H7116 0.999 . S
C7114 H7084 0.950 . S
C7114 C7113 1.524 . S
C7114 C7115 1.415 . S
C7115 H7085 0.950 . S
C7115 C7110 1.363 . S
C7115 C7114 1.415 . S
H7116 C7113 0.999 . S
H7117 C7098 0.913 . S
H7118 C7136 0.951 . S
H7119 C7138 0.951 . S
H7120 C7140 0.950 . S
H7121 C7141 0.950 . S
H7122 C7143 0.950 . S
H7123 C7146 0.950 . S
H7124 C7147 0.950 . S
H7125 C7149 0.950 . S
H7126 C7150 0.950 . S
H7127 C7151 0.951 . S
H7128 C7153 0.951 . S
H7129 C7155 0.950 . S
H7130 C7156 0.950 . S
H7131 C7158 0.950 . S
H7132 C7161 0.950 . S
H7133 C7162 0.950 . S
H7134 C7164 0.950 . S
H7135 C7165 0.950 . S
C7136 H7118 0.951 . S
C7136 C7137 1.366 . S
C7136 C7138 1.388 . S
C7137 C7136 1.366 . S
C7137 C7141 1.385 . S
C7138 H7119 0.951 . S
C7138 C7136 1.388 . S
C7138 C7139 1.366 . S
C7139 C7138 1.366 . S
C7139 C7140 1.414 . S
C7139 C7142 1.499 . S
C7140 H7120 0.950 . S
C7140 C7139 1.414 . S
C7140 C7141 1.374 . S
C7141 H7121 0.950 . S
C7141 C7137 1.385 . S
C7141 C7140 1.374 . S
C7142 C7139 1.499 . S
C7142 C7143 1.373 . S
C7142 C7144 1.389 . S
C7143 H7122 0.950 . S
C7143 C7142 1.373 . S
C7143 C7159 1.377 . S
C7144 C7142 1.389 . S
C7144 C7145 1.524 . S
C7144 C7158 1.377 . S
C7145 C7144 1.524 . S
C7145 C7146 1.397 . S
C7145 C7150 1.363 . S
C7146 H7123 0.950 . S
C7146 C7145 1.397 . S
C7146 C7147 1.334 . S
C7147 H7124 0.950 . S
C7147 C7146 1.334 . S
C7147 C7148 1.287 . S
C7148 C7147 1.287 . S
C7148 C7149 1.524 . S
C7148 H7167 0.913 . S
C7149 H7125 0.950 . S
C7149 C7148 1.524 . S
C7149 C7150 1.415 . S
C7150 H7126 0.950 . S
C7150 C7145 1.363 . S
C7150 C7149 1.415 . S
C7151 H7127 0.951 . S
C7151 C7152 1.366 . S
C7151 C7153 1.388 . S
C7152 C7151 1.366 . S
C7152 C7156 1.385 . S
C7153 H7128 0.951 . S
C7153 C7151 1.388 . S
C7153 C7154 1.366 . S
C7154 C7153 1.366 . S
C7154 C7155 1.414 . S
C7154 C7157 1.499 . S
C7155 H7129 0.950 . S
C7155 C7154 1.414 . S
C7155 C7156 1.374 . S
C7156 H7130 0.950 . S
C7156 C7152 1.385 . S
C7156 C7155 1.374 . S
C7157 C7154 1.499 . S
C7157 C7158 1.373 . S
C7157 C7159 1.389 . S
C7158 H7131 0.950 . S
C7158 C7144 1.377 . S
C7158 C7157 1.373 . S
C7159 C7143 1.377 . S
C7159 C7157 1.389 . S
C7159 C7160 1.524 . S
C7160 C7159 1.524 . S
C7160 C7161 1.397 . S
C7160 C7165 1.363 . S
C7161 H7132 0.950 . S
C7161 C7160 1.397 . S
C7161 C7162 1.334 . S
C7162 H7133 0.950 . S
C7162 C7161 1.334 . S
C7162 C7163 1.287 . S
C7163 C7162 1.287 . S
C7163 C7164 1.524 . S
C7163 H7166 0.999 . S
C7164 H7134 0.950 . S
C7164 C7163 1.524 . S
C7164 C7165 1.415 . S
C7165 H7135 0.950 . S
C7165 C7160 1.363 . S
C7165 C7164 1.415 . S
H7166 C7163 0.999 . S
H7167 C7148 0.913 . S
H7168 C7186 0.951 . S
H7169 C7188 0.951 . S
H7170 C7190 0.950 . S
H7171 C7191 0.950 . S
H7172 C7193 0.950 . S
H7173 C7196 0.950 . S
H7174 C7197 0.950 . S
H7175 C7199 0.950 . S
H7176 C7200 0.950 . S
H7177 C7201 0.951 . S
H7178 C7203 0.951 . S
H7179 C7205 0.950 . S
H7180 C7206 0.950 . S
H7181 C7208 0.950 . S
H7182 C7211 0.950 . S
H7183 C7212 0.950 . S
H7184 C7214 0.950 . S
H7185 C7215 0.950 . S
C7186 H7168 0.951 . S
C7186 C7187 1.366 . S
C7186 C7188 1.388 . S
C7187 C7186 1.366 . S
C7187 C7191 1.385 . S
C7188 H7169 0.951 . S
C7188 C7186 1.388 . S
C7188 C7189 1.366 . S
C7189 C7188 1.366 . S
C7189 C7190 1.414 . S
C7189 C7192 1.499 . S
C7190 H7170 0.950 . S
C7190 C7189 1.414 . S
C7190 C7191 1.374 . S
C7191 H7171 0.950 . S
C7191 C7187 1.385 . S
C7191 C7190 1.374 . S
C7192 C7189 1.499 . S
C7192 C7193 1.373 . S
C7192 C7194 1.389 . S
C7193 H7172 0.950 . S
C7193 C7192 1.373 . S
C7193 C7209 1.377 . S
C7194 C7192 1.389 . S
C7194 C7195 1.524 . S
C7194 C7208 1.377 . S
C7195 C7194 1.524 . S
C7195 C7196 1.397 . S
C7195 C7200 1.363 . S
C7196 H7173 0.950 . S
C7196 C7195 1.397 . S
C7196 C7197 1.334 . S
C7197 H7174 0.950 . S
C7197 C7196 1.334 . S
C7197 C7198 1.287 . S
C7198 C7197 1.287 . S
C7198 C7199 1.524 . S
C7198 H7217 0.913 . S
C7199 H7175 0.950 . S
C7199 C7198 1.524 . S
C7199 C7200 1.415 . S
C7200 H7176 0.950 . S
C7200 C7195 1.363 . S
C7200 C7199 1.415 . S
C7201 H7177 0.951 . S
C7201 C7202 1.366 . S
C7201 C7203 1.388 . S
C7202 C7201 1.366 . S
C7202 C7206 1.385 . S
C7203 H7178 0.951 . S
C7203 C7201 1.388 . S
C7203 C7204 1.366 . S
C7204 C7203 1.366 . S
C7204 C7205 1.414 . S
C7204 C7207 1.499 . S
C7205 H7179 0.950 . S
C7205 C7204 1.414 . S
C7205 C7206 1.374 . S
C7206 H7180 0.950 . S
C7206 C7202 1.385 . S
C7206 C7205 1.374 . S
C7207 C7204 1.499 . S
C7207 C7208 1.373 . S
C7207 C7209 1.389 . S
C7208 H7181 0.950 . S
C7208 C7194 1.377 . S
C7208 C7207 1.373 . S
C7209 C7193 1.377 . S
C7209 C7207 1.389 . S
C7209 C7210 1.524 . S
C7210 C7209 1.524 . S
C7210 C7211 1.397 . S
C7210 C7215 1.363 . S
C7211 H7182 0.950 . S
C7211 C7210 1.397 . S
C7211 C7212 1.334 . S
C7212 H7183 0.950 . S
C7212 C7211 1.334 . S
C7212 C7213 1.287 . S
C7213 C7212 1.287 . S
C7213 C7214 1.524 . S
C7213 H7216 0.999 . S
C7214 H7184 0.950 . S
C7214 C7213 1.524 . S
C7214 C7215 1.415 . S
C7215 H7185 0.950 . S
C7215 C7210 1.363 . S
C7215 C7214 1.415 . S
H7216 C7213 0.999 . S
H7217 C7198 0.913 . S
H7218 C7236 0.951 . S
H7219 C7238 0.951 . S
H7220 C7240 0.950 . S
H7221 C7241 0.950 . S
H7222 C7243 0.950 . S
H7223 C7246 0.950 . S
H7224 C7247 0.950 . S
H7225 C7249 0.950 . S
H7226 C7250 0.950 . S
H7227 C7251 0.951 . S
H7228 C7253 0.951 . S
H7229 C7255 0.950 . S
H7230 C7256 0.950 . S
H7231 C7258 0.950 . S
H7232 C7261 0.950 . S
H7233 C7262 0.950 . S
H7234 C7264 0.950 . S
H7235 C7265 0.950 . S
C7236 H7218 0.951 . S
C7236 C7237 1.366 . S
C7236 C7238 1.388 . S
C7237 C7236 1.366 . S
C7237 C7241 1.385 . S
C7238 H7219 0.951 . S
C7238 C7236 1.388 . S
C7238 C7239 1.366 . S
C7239 C7238 1.366 . S
C7239 C7240 1.414 . S
C7239 C7242 1.499 . S
C7240 H7220 0.950 . S
C7240 C7239 1.414 . S
C7240 C7241 1.374 . S
C7241 H7221 0.950 . S
C7241 C7237 1.385 . S
C7241 C7240 1.374 . S
C7242 C7239 1.499 . S
C7242 C7243 1.373 . S
C7242 C7244 1.389 . S
C7243 H7222 0.950 . S
C7243 C7242 1.373 . S
C7243 C7259 1.377 . S
C7244 C7242 1.389 . S
C7244 C7245 1.524 . S
C7244 C7258 1.377 . S
C7245 C7244 1.524 . S
C7245 C7246 1.397 . S
C7245 C7250 1.363 . S
C7246 H7223 0.950 . S
C7246 C7245 1.397 . S
C7246 C7247 1.334 . S
C7247 H7224 0.950 . S
C7247 C7246 1.334 . S
C7247 C7248 1.287 . S
C7248 C7247 1.287 . S
C7248 C7249 1.524 . S
C7248 H7267 0.913 . S
C7249 H7225 0.950 . S
C7249 C7248 1.524 . S
C7249 C7250 1.415 . S
C7250 H7226 0.950 . S
C7250 C7245 1.363 . S
C7250 C7249 1.415 . S
C7251 H7227 0.951 . S
C7251 C7252 1.366 . S
C7251 C7253 1.388 . S
C7252 C7251 1.366 . S
C7252 C7256 1.385 . S
C7253 H7228 0.951 . S
C7253 C7251 1.388 . S
C7253 C7254 1.366 . S
C7254 C7253 1.366 . S
C7254 C7255 1.414 . S
C7254 C7257 1.499 . S
C7255 H7229 0.950 . S
C7255 C7254 1.414 . S
C7255 C7256 1.374 . S
C7256 H7230 0.950 . S
C7256 C7252 1.385 . S
C7256 C7255 1.374 . S
C7257 C7254 1.499 . S
C7257 C7258 1.373 . S
C7257 C7259 1.389 . S
C7258 H7231 0.950 . S
C7258 C7244 1.377 . S
C7258 C7257 1.373 . S
C7259 C7243 1.377 . S
C7259 C7257 1.389 . S
C7259 C7260 1.524 . S
C7260 C7259 1.524 . S
C7260 C7261 1.397 . S
C7260 C7265 1.363 . S
C7261 H7232 0.950 . S
C7261 C7260 1.397 . S
C7261 C7262 1.334 . S
C7262 H7233 0.950 . S
C7262 C7261 1.334 . S
C7262 C7263 1.287 . S
C7263 C7262 1.287 . S
C7263 C7264 1.524 . S
C7263 H7266 0.999 . S
C7264 H7234 0.950 . S
C7264 C7263 1.524 . S
C7264 C7265 1.415 . S
C7265 H7235 0.950 . S
C7265 C7260 1.363 . S
C7265 C7264 1.415 . S
H7266 C7263 0.999 . S
H7267 C7248 0.913 . S
H7268 C7286 0.951 . S
H7269 C7288 0.951 . S
H7270 C7290 0.950 . S
H7271 C7291 0.950 . S
H7272 C7293 0.950 . S
H7273 C7296 0.950 . S
H7274 C7297 0.950 . S
H7275 C7299 0.950 . S
H7276 C7300 0.950 . S
H7277 C7301 0.951 . S
H7278 C7303 0.951 . S
H7279 C7305 0.950 . S
H7280 C7306 0.950 . S
H7281 C7308 0.950 . S
H7282 C7311 0.950 . S
H7283 C7312 0.950 . S
H7284 C7314 0.950 . S
H7285 C7315 0.950 . S
C7286 H7268 0.951 . S
C7286 C7287 1.366 . S
C7286 C7288 1.388 . S
C7287 C7286 1.366 . S
C7287 C7291 1.385 . S
C7288 H7269 0.951 . S
C7288 C7286 1.388 . S
C7288 C7289 1.366 . S
C7289 C7288 1.366 . S
C7289 C7290 1.414 . S
C7289 C7292 1.499 . S
C7290 H7270 0.950 . S
C7290 C7289 1.414 . S
C7290 C7291 1.374 . S
C7291 H7271 0.950 . S
C7291 C7287 1.385 . S
C7291 C7290 1.374 . S
C7292 C7289 1.499 . S
C7292 C7293 1.373 . S
C7292 C7294 1.389 . S
C7293 H7272 0.950 . S
C7293 C7292 1.373 . S
C7293 C7309 1.377 . S
C7294 C7292 1.389 . S
C7294 C7295 1.524 . S
C7294 C7308 1.377 . S
C7295 C7294 1.524 . S
C7295 C7296 1.397 . S
C7295 C7300 1.363 . S
C7296 H7273 0.950 . S
C7296 C7295 1.397 . S
C7296 C7297 1.334 . S
C7297 H7274 0.950 . S
C7297 C7296 1.334 . S
C7297 C7298 1.287 . S
C7298 C7297 1.287 . S
C7298 C7299 1.524 . S
C7298 H7317 0.913 . S
C7299 H7275 0.950 . S
C7299 C7298 1.524 . S
C7299 C7300 1.415 . S
C7300 H7276 0.950 . S
C7300 C7295 1.363 . S
C7300 C7299 1.415 . S
C7301 H7277 0.951 . S
C7301 C7302 1.366 . S
C7301 C7303 1.388 . S
C7302 C7301 1.366 . S
C7302 C7306 1.385 . S
C7303 H7278 0.951 . S
C7303 C7301 1.388 . S
C7303 C7304 1.366 . S
C7304 C7303 1.366 . S
C7304 C7305 1.414 . S
C7304 C7307 1.499 . S
C7305 H7279 0.950 . S
C7305 C7304 1.414 . S
C7305 C7306 1.374 . S
C7306 H7280 0.950 . S
C7306 C7302 1.385 . S
C7306 C7305 1.374 . S
C7307 C7304 1.499 . S
C7307 C7308 1.373 . S
C7307 C7309 1.389 . S
C7308 H7281 0.950 . S
C7308 C7294 1.377 . S
C7308 C7307 1.373 . S
C7309 C7293 1.377 . S
C7309 C7307 1.389 . S
C7309 C7310 1.524 . S
C7310 C7309 1.524 . S
C7310 C7311 1.397 . S
C7310 C7315 1.363 . S
C7311 H7282 0.950 . S
C7311 C7310 1.397 . S
C7311 C7312 1.334 . S
C7312 H7283 0.950 . S
C7312 C7311 1.334 . S
C7312 C7313 1.287 . S
C7313 C7312 1.287 . S
C7313 C7314 1.524 . S
C7313 H7316 0.999 . S
C7314 H7284 0.950 . S
C7314 C7313 1.524 . S
C7314 C7315 1.415 . S
C7315 H7285 0.950 . S
C7315 C7310 1.363 . S
C7315 C7314 1.415 . S
H7316 C7313 0.999 . S
H7317 C7298 0.913 . S
H7318 C7336 0.951 . S
H7319 C7338 0.951 . S
H7320 C7340 0.950 . S
H7321 C7341 0.950 . S
H7322 C7343 0.950 . S
H7323 C7346 0.950 . S
H7324 C7347 0.950 . S
H7325 C7349 0.950 . S
H7326 C7350 0.950 . S
H7327 C7351 0.951 . S
H7328 C7353 0.951 . S
H7329 C7355 0.950 . S
H7330 C7356 0.950 . S
H7331 C7358 0.950 . S
H7332 C7361 0.950 . S
H7333 C7362 0.950 . S
H7334 C7364 0.950 . S
H7335 C7365 0.950 . S
C7336 H7318 0.951 . S
C7336 C7337 1.366 . S
C7336 C7338 1.388 . S
C7337 C7336 1.366 . S
C7337 C7341 1.385 . S
C7338 H7319 0.951 . S
C7338 C7336 1.388 . S
C7338 C7339 1.366 . S
C7339 C7338 1.366 . S
C7339 C7340 1.414 . S
C7339 C7342 1.499 . S
C7340 H7320 0.950 . S
C7340 C7339 1.414 . S
C7340 C7341 1.374 . S
C7341 H7321 0.950 . S
C7341 C7337 1.385 . S
C7341 C7340 1.374 . S
C7342 C7339 1.499 . S
C7342 C7343 1.373 . S
C7342 C7344 1.389 . S
C7343 H7322 0.950 . S
C7343 C7342 1.373 . S
C7343 C7359 1.377 . S
C7344 C7342 1.389 . S
C7344 C7345 1.524 . S
C7344 C7358 1.377 . S
C7345 C7344 1.524 . S
C7345 C7346 1.397 . S
C7345 C7350 1.363 . S
C7346 H7323 0.950 . S
C7346 C7345 1.397 . S
C7346 C7347 1.334 . S
C7347 H7324 0.950 . S
C7347 C7346 1.334 . S
C7347 C7348 1.287 . S
C7348 C7347 1.287 . S
C7348 C7349 1.524 . S
C7348 H7367 0.913 . S
C7349 H7325 0.950 . S
C7349 C7348 1.524 . S
C7349 C7350 1.415 . S
C7350 H7326 0.950 . S
C7350 C7345 1.363 . S
C7350 C7349 1.415 . S
C7351 H7327 0.951 . S
C7351 C7352 1.366 . S
C7351 C7353 1.388 . S
C7352 C7351 1.366 . S
C7352 C7356 1.385 . S
C7353 H7328 0.951 . S
C7353 C7351 1.388 . S
C7353 C7354 1.366 . S
C7354 C7353 1.366 . S
C7354 C7355 1.414 . S
C7354 C7357 1.499 . S
C7355 H7329 0.950 . S
C7355 C7354 1.414 . S
C7355 C7356 1.374 . S
C7356 H7330 0.950 . S
C7356 C7352 1.385 . S
C7356 C7355 1.374 . S
C7357 C7354 1.499 . S
C7357 C7358 1.373 . S
C7357 C7359 1.389 . S
C7358 H7331 0.950 . S
C7358 C7344 1.377 . S
C7358 C7357 1.373 . S
C7359 C7343 1.377 . S
C7359 C7357 1.389 . S
C7359 C7360 1.524 . S
C7360 C7359 1.524 . S
C7360 C7361 1.397 . S
C7360 C7365 1.363 . S
C7361 H7332 0.950 . S
C7361 C7360 1.397 . S
C7361 C7362 1.334 . S
C7362 H7333 0.950 . S
C7362 C7361 1.334 . S
C7362 C7363 1.287 . S
C7363 C7362 1.287 . S
C7363 C7364 1.524 . S
C7363 H7366 0.999 . S
C7364 H7334 0.950 . S
C7364 C7363 1.524 . S
C7364 C7365 1.415 . S
C7365 H7335 0.950 . S
C7365 C7360 1.363 . S
C7365 C7364 1.415 . S
H7366 C7363 0.999 . S
H7367 C7348 0.913 . S
H7368 C7386 0.951 . S
H7369 C7388 0.951 . S
H7370 C7390 0.950 . S
H7371 C7391 0.950 . S
H7372 C7393 0.950 . S
H7373 C7396 0.950 . S
H7374 C7397 0.950 . S
H7375 C7399 0.950 . S
H7376 C7400 0.950 . S
H7377 C7401 0.951 . S
H7378 C7403 0.951 . S
H7379 C7405 0.950 . S
H7380 C7406 0.950 . S
H7381 C7408 0.950 . S
H7382 C7411 0.950 . S
H7383 C7412 0.950 . S
H7384 C7414 0.950 . S
H7385 C7415 0.950 . S
C7386 H7368 0.951 . S
C7386 C7387 1.366 . S
C7386 C7388 1.388 . S
C7387 C7386 1.366 . S
C7387 C7391 1.385 . S
C7388 H7369 0.951 . S
C7388 C7386 1.388 . S
C7388 C7389 1.366 . S
C7389 C7388 1.366 . S
C7389 C7390 1.414 . S
C7389 C7392 1.499 . S
C7390 H7370 0.950 . S
C7390 C7389 1.414 . S
C7390 C7391 1.374 . S
C7391 H7371 0.950 . S
C7391 C7387 1.385 . S
C7391 C7390 1.374 . S
C7392 C7389 1.499 . S
C7392 C7393 1.373 . S
C7392 C7394 1.389 . S
C7393 H7372 0.950 . S
C7393 C7392 1.373 . S
C7393 C7409 1.377 . S
C7394 C7392 1.389 . S
C7394 C7395 1.524 . S
C7394 C7408 1.377 . S
C7395 C7394 1.524 . S
C7395 C7396 1.397 . S
C7395 C7400 1.363 . S
C7396 H7373 0.950 . S
C7396 C7395 1.397 . S
C7396 C7397 1.334 . S
C7397 H7374 0.950 . S
C7397 C7396 1.334 . S
C7397 C7398 1.287 . S
C7398 C7397 1.287 . S
C7398 C7399 1.524 . S
C7398 H7417 0.913 . S
C7399 H7375 0.950 . S
C7399 C7398 1.524 . S
C7399 C7400 1.415 . S
C7400 H7376 0.950 . S
C7400 C7395 1.363 . S
C7400 C7399 1.415 . S
C7401 H7377 0.951 . S
C7401 C7402 1.366 . S
C7401 C7403 1.388 . S
C7402 C7401 1.366 . S
C7402 C7406 1.385 . S
C7403 H7378 0.951 . S
C7403 C7401 1.388 . S
C7403 C7404 1.366 . S
C7404 C7403 1.366 . S
C7404 C7405 1.414 . S
C7404 C7407 1.499 . S
C7405 H7379 0.950 . S
C7405 C7404 1.414 . S
C7405 C7406 1.374 . S
C7406 H7380 0.950 . S
C7406 C7402 1.385 . S
C7406 C7405 1.374 . S
C7407 C7404 1.499 . S
C7407 C7408 1.373 . S
C7407 C7409 1.389 . S
C7408 H7381 0.950 . S
C7408 C7394 1.377 . S
C7408 C7407 1.373 . S
C7409 C7393 1.377 . S
C7409 C7407 1.389 . S
C7409 C7410 1.524 . S
C7410 C7409 1.524 . S
C7410 C7411 1.397 . S
C7410 C7415 1.363 . S
C7411 H7382 0.950 . S
C7411 C7410 1.397 . S
C7411 C7412 1.334 . S
C7412 H7383 0.950 . S
C7412 C7411 1.334 . S
C7412 C7413 1.287 . S
C7413 C7412 1.287 . S
C7413 C7414 1.524 . S
C7413 H7416 0.999 . S
C7414 H7384 0.950 . S
C7414 C7413 1.524 . S
C7414 C7415 1.415 . S
C7415 H7385 0.950 . S
C7415 C7410 1.363 . S
C7415 C7414 1.415 . S
H7416 C7413 0.999 . S
H7417 C7398 0.913 . S
H7418 C7436 0.951 . S
H7419 C7438 0.951 . S
H7420 C7440 0.950 . S
H7421 C7441 0.950 . S
H7422 C7443 0.950 . S
H7423 C7446 0.950 . S
H7424 C7447 0.950 . S
H7425 C7449 0.950 . S
H7426 C7450 0.950 . S
H7427 C7451 0.951 . S
H7428 C7453 0.951 . S
H7429 C7455 0.950 . S
H7430 C7456 0.950 . S
H7431 C7458 0.950 . S
H7432 C7461 0.950 . S
H7433 C7462 0.950 . S
H7434 C7464 0.950 . S
H7435 C7465 0.950 . S
C7436 H7418 0.951 . S
C7436 C7437 1.366 . S
C7436 C7438 1.388 . S
C7437 C7436 1.366 . S
C7437 C7441 1.385 . S
C7438 H7419 0.951 . S
C7438 C7436 1.388 . S
C7438 C7439 1.366 . S
C7439 C7438 1.366 . S
C7439 C7440 1.414 . S
C7439 C7442 1.499 . S
C7440 H7420 0.950 . S
C7440 C7439 1.414 . S
C7440 C7441 1.374 . S
C7441 H7421 0.950 . S
C7441 C7437 1.385 . S
C7441 C7440 1.374 . S
C7442 C7439 1.499 . S
C7442 C7443 1.373 . S
C7442 C7444 1.389 . S
C7443 H7422 0.950 . S
C7443 C7442 1.373 . S
C7443 C7459 1.377 . S
C7444 C7442 1.389 . S
C7444 C7445 1.524 . S
C7444 C7458 1.377 . S
C7445 C7444 1.524 . S
C7445 C7446 1.397 . S
C7445 C7450 1.363 . S
C7446 H7423 0.950 . S
C7446 C7445 1.397 . S
C7446 C7447 1.334 . S
C7447 H7424 0.950 . S
C7447 C7446 1.334 . S
C7447 C7448 1.287 . S
C7448 C7447 1.287 . S
C7448 C7449 1.524 . S
C7448 H7467 0.913 . S
C7449 H7425 0.950 . S
C7449 C7448 1.524 . S
C7449 C7450 1.415 . S
C7450 H7426 0.950 . S
C7450 C7445 1.363 . S
C7450 C7449 1.415 . S
C7451 H7427 0.951 . S
C7451 C7452 1.366 . S
C7451 C7453 1.388 . S
C7452 C7451 1.366 . S
C7452 C7456 1.385 . S
C7453 H7428 0.951 . S
C7453 C7451 1.388 . S
C7453 C7454 1.366 . S
C7454 C7453 1.366 . S
C7454 C7455 1.414 . S
C7454 C7457 1.499 . S
C7455 H7429 0.950 . S
C7455 C7454 1.414 . S
C7455 C7456 1.374 . S
C7456 H7430 0.950 . S
C7456 C7452 1.385 . S
C7456 C7455 1.374 . S
C7457 C7454 1.499 . S
C7457 C7458 1.373 . S
C7457 C7459 1.389 . S
C7458 H7431 0.950 . S
C7458 C7444 1.377 . S
C7458 C7457 1.373 . S
C7459 C7443 1.377 . S
C7459 C7457 1.389 . S
C7459 C7460 1.524 . S
C7460 C7459 1.524 . S
C7460 C7461 1.397 . S
C7460 C7465 1.363 . S
C7461 H7432 0.950 . S
C7461 C7460 1.397 . S
C7461 C7462 1.334 . S
C7462 H7433 0.950 . S
C7462 C7461 1.334 . S
C7462 C7463 1.287 . S
C7463 C7462 1.287 . S
C7463 C7464 1.524 . S
C7463 H7466 0.999 . S
C7464 H7434 0.950 . S
C7464 C7463 1.524 . S
C7464 C7465 1.415 . S
C7465 H7435 0.950 . S
C7465 C7460 1.363 . S
C7465 C7464 1.415 . S
H7466 C7463 0.999 . S
H7467 C7448 0.913 . S
H7468 C7486 0.951 . S
H7469 C7488 0.951 . S
H7470 C7490 0.950 . S
H7471 C7491 0.950 . S
H7472 C7493 0.950 . S
H7473 C7496 0.950 . S
H7474 C7497 0.950 . S
H7475 C7499 0.950 . S
H7476 C7500 0.950 . S
H7477 C7501 0.951 . S
H7478 C7503 0.951 . S
H7479 C7505 0.950 . S
H7480 C7506 0.950 . S
H7481 C7508 0.950 . S
H7482 C7511 0.950 . S
H7483 C7512 0.950 . S
H7484 C7514 0.950 . S
H7485 C7515 0.950 . S
C7486 H7468 0.951 . S
C7486 C7487 1.366 . S
C7486 C7488 1.388 . S
C7487 C7486 1.366 . S
C7487 C7491 1.385 . S
C7488 H7469 0.951 . S
C7488 C7486 1.388 . S
C7488 C7489 1.366 . S
C7489 C7488 1.366 . S
C7489 C7490 1.414 . S
C7489 C7492 1.499 . S
C7490 H7470 0.950 . S
C7490 C7489 1.414 . S
C7490 C7491 1.374 . S
C7491 H7471 0.950 . S
C7491 C7487 1.385 . S
C7491 C7490 1.374 . S
C7492 C7489 1.499 . S
C7492 C7493 1.373 . S
C7492 C7494 1.389 . S
C7493 H7472 0.950 . S
C7493 C7492 1.373 . S
C7493 C7509 1.377 . S
C7494 C7492 1.389 . S
C7494 C7495 1.524 . S
C7494 C7508 1.377 . S
C7495 C7494 1.524 . S
C7495 C7496 1.397 . S
C7495 C7500 1.363 . S
C7496 H7473 0.950 . S
C7496 C7495 1.397 . S
C7496 C7497 1.334 . S
C7497 H7474 0.950 . S
C7497 C7496 1.334 . S
C7497 C7498 1.287 . S
C7498 C7497 1.287 . S
C7498 C7499 1.524 . S
C7498 H7517 0.913 . S
C7499 H7475 0.950 . S
C7499 C7498 1.524 . S
C7499 C7500 1.415 . S
C7500 H7476 0.950 . S
C7500 C7495 1.363 . S
C7500 C7499 1.415 . S
C7501 H7477 0.951 . S
C7501 C7502 1.366 . S
C7501 C7503 1.388 . S
C7502 C7501 1.366 . S
C7502 C7506 1.385 . S
C7503 H7478 0.951 . S
C7503 C7501 1.388 . S
C7503 C7504 1.366 . S
C7504 C7503 1.366 . S
C7504 C7505 1.414 . S
C7504 C7507 1.499 . S
C7505 H7479 0.950 . S
C7505 C7504 1.414 . S
C7505 C7506 1.374 . S
C7506 H7480 0.950 . S
C7506 C7502 1.385 . S
C7506 C7505 1.374 . S
C7507 C7504 1.499 . S
C7507 C7508 1.373 . S
C7507 C7509 1.389 . S
C7508 H7481 0.950 . S
C7508 C7494 1.377 . S
C7508 C7507 1.373 . S
C7509 C7493 1.377 . S
C7509 C7507 1.389 . S
C7509 C7510 1.524 . S
C7510 C7509 1.524 . S
C7510 C7511 1.397 . S
C7510 C7515 1.363 . S
C7511 H7482 0.950 . S
C7511 C7510 1.397 . S
C7511 C7512 1.334 . S
C7512 H7483 0.950 . S
C7512 C7511 1.334 . S
C7512 C7513 1.287 . S
C7513 C7512 1.287 . S
C7513 C7514 1.524 . S
C7513 H7516 0.999 . S
C7514 H7484 0.950 . S
C7514 C7513 1.524 . S
C7514 C7515 1.415 . S
C7515 H7485 0.950 . S
C7515 C7510 1.363 . S
C7515 C7514 1.415 . S
H7516 C7513 0.999 . S
H7517 C7498 0.913 . S
H7518 C7536 0.951 . S
H7519 C7538 0.951 . S
H7520 C7540 0.950 . S
H7521 C7541 0.950 . S
H7522 C7543 0.950 . S
H7523 C7546 0.950 . S
H7524 C7547 0.950 . S
H7525 C7549 0.950 . S
H7526 C7550 0.950 . S
H7527 C7551 0.951 . S
H7528 C7553 0.951 . S
H7529 C7555 0.950 . S
H7530 C7556 0.950 . S
H7531 C7558 0.950 . S
H7532 C7561 0.950 . S
H7533 C7562 0.950 . S
H7534 C7564 0.950 . S
H7535 C7565 0.950 . S
C7536 H7518 0.951 . S
C7536 C7537 1.366 . S
C7536 C7538 1.388 . S
C7537 C7536 1.366 . S
C7537 C7541 1.385 . S
C7538 H7519 0.951 . S
C7538 C7536 1.388 . S
C7538 C7539 1.366 . S
C7539 C7538 1.366 . S
C7539 C7540 1.414 . S
C7539 C7542 1.499 . S
C7540 H7520 0.950 . S
C7540 C7539 1.414 . S
C7540 C7541 1.374 . S
C7541 H7521 0.950 . S
C7541 C7537 1.385 . S
C7541 C7540 1.374 . S
C7542 C7539 1.499 . S
C7542 C7543 1.373 . S
C7542 C7544 1.389 . S
C7543 H7522 0.950 . S
C7543 C7542 1.373 . S
C7543 C7559 1.377 . S
C7544 C7542 1.389 . S
C7544 C7545 1.524 . S
C7544 C7558 1.377 . S
C7545 C7544 1.524 . S
C7545 C7546 1.397 . S
C7545 C7550 1.363 . S
C7546 H7523 0.950 . S
C7546 C7545 1.397 . S
C7546 C7547 1.334 . S
C7547 H7524 0.950 . S
C7547 C7546 1.334 . S
C7547 C7548 1.287 . S
C7548 C7547 1.287 . S
C7548 C7549 1.524 . S
C7548 H7567 0.913 . S
C7549 H7525 0.950 . S
C7549 C7548 1.524 . S
C7549 C7550 1.415 . S
C7550 H7526 0.950 . S
C7550 C7545 1.363 . S
C7550 C7549 1.415 . S
C7551 H7527 0.951 . S
C7551 C7552 1.366 . S
C7551 C7553 1.388 . S
C7552 C7551 1.366 . S
C7552 C7556 1.385 . S
C7553 H7528 0.951 . S
C7553 C7551 1.388 . S
C7553 C7554 1.366 . S
C7554 C7553 1.366 . S
C7554 C7555 1.414 . S
C7554 C7557 1.499 . S
C7555 H7529 0.950 . S
C7555 C7554 1.414 . S
C7555 C7556 1.374 . S
C7556 H7530 0.950 . S
C7556 C7552 1.385 . S
C7556 C7555 1.374 . S
C7557 C7554 1.499 . S
C7557 C7558 1.373 . S
C7557 C7559 1.389 . S
C7558 H7531 0.950 . S
C7558 C7544 1.377 . S
C7558 C7557 1.373 . S
C7559 C7543 1.377 . S
C7559 C7557 1.389 . S
C7559 C7560 1.524 . S
C7560 C7559 1.524 . S
C7560 C7561 1.397 . S
C7560 C7565 1.363 . S
C7561 H7532 0.950 . S
C7561 C7560 1.397 . S
C7561 C7562 1.334 . S
C7562 H7533 0.950 . S
C7562 C7561 1.334 . S
C7562 C7563 1.287 . S
C7563 C7562 1.287 . S
C7563 C7564 1.524 . S
C7563 H7566 0.999 . S
C7564 H7534 0.950 . S
C7564 C7563 1.524 . S
C7564 C7565 1.415 . S
C7565 H7535 0.950 . S
C7565 C7560 1.363 . S
C7565 C7564 1.415 . S
H7566 C7563 0.999 . S
H7567 C7548 0.913 . S
C2802 C1327 1.439 . S
C2787 C21 1.536 . S
C2852 C1389 1.355 . S
C2837 C42 1.476 . S
C2887 C82 1.542 . S
C2902 C1451 1.443 . S
C2952 C1519 1.420 . S
C2937 C135 1.461 . S
C2987 C175 1.397 . S
C3002 C1501 1.364 . S
C3037 C221 1.614 . S
C3052 C1309 1.533 . S
C3087 C255 1.632 . S
C3102 C1371 1.530 . S
C3152 C1433 1.530 . S
C3137 C301 1.634 . S
C3202 C1581 1.483 . S
C3187 C15 1.533 . S
C3237 C55 1.513 . S
C3252 C1619 1.390 . S
C3287 C101 1.631 . S
C3302 C1705 1.610 . S
C3352 C1749 1.467 . S
C3337 C141 1.521 . S
C3387 C162 1.383 . S
C3402 C1811 1.373 . S
C3452 C1873 1.554 . S
C3437 C215 1.588 . S
C3487 C261 1.620 . S
C3502 C1929 1.511 . S
C3552 C1991 1.443 . S
C3537 C282 1.551 . S
C3587 C2 1.579 . S
C3602 C1767 1.568 . S
C3637 C181 1.358 . S
C3652 C1891 1.342 . S
C3702 C1947 1.443 . S
C3687 C202 1.546 . S
C3737 C242 1.573 . S
C3752 C2009 1.465 . S
C3802 C1829 1.478 . S
C3787 C295 1.518 . S
C3852 C1637 1.527 . S
C3837 C95 1.636 . S
C3887 C122 1.507 . S
C3902 C1687 1.452 . S
C3952 C1563 1.540 . S
C3937 C61 1.575 . S
C4002 C2071 1.534 . S
C3987 C341 1.636 . S
C4037 C362 1.412 . S
C4052 C2121 1.368 . S
C4087 C402 1.486 . S
C4102 C2177 1.380 . S
C4152 C2263 1.450 . S
C4137 C455 1.500 . S
C4187 C495 1.482 . S
C4202 C2245 1.447 . S
C4237 C541 1.618 . S
C4252 C2053 1.528 . S
C4287 C575 1.516 . S
C4302 C2139 1.481 . S
C4337 C621 1.689 . S
C4352 C2195 1.591 . S
C4402 C1805 1.463 . S
C4387 C335 1.581 . S
C4437 C375 1.438 . S
C4452 C2325 1.397 . S
C4502 C1935 1.558 . S
C4487 C421 1.572 . S
C4537 C461 1.532 . S
C4552 C2387 1.466 . S
C4587 C482 1.425 . S
C4602 C1575 1.339 . S
C4652 C2431 1.551 . S
C4637 C535 1.592 . S
C4687 C581 1.566 . S
C4702 C1699 1.470 . S
C4752 C2487 1.504 . S
C4737 C602 1.605 . S
C4787 C322 1.664 . S
C4802 C2369 1.648 . S
C4852 C2449 1.409 . S
C4837 C501 1.431 . S
C4887 C522 1.539 . S
C4902 C1681 1.448 . S
C4952 C2505 1.389 . S
C4937 C562 1.516 . S
C4987 C615 1.683 . S
C5002 C1557 1.592 . S
C5037 C415 1.518 . S
C5052 C2307 1.481 . S
C5087 C442 1.490 . S
C5102 C1953 1.440 . S
C5137 C381 1.491 . S
C5152 C1823 1.361 . S
C5187 C661 1.446 . S
C5202 C2183 1.428 . S
C5252 C2257 1.326 . S
C5237 C682 1.445 . S
C5287 C722 1.515 . S
C5302 C2077 1.499 . S
C5337 C775 1.536 . S
C5352 C2115 1.410 . S
C5387 C815 1.553 . S
C5402 C2133 1.447 . S
C5437 C861 1.558 . S
C5452 C2201 1.551 . S
C5502 C2239 1.477 . S
C5487 C895 1.593 . S
C5537 C941 1.631 . S
C5552 C2059 1.596 . S
C5602 C2555 1.434 . S
C5587 C655 1.477 . S
C5637 C695 1.539 . S
C5652 C1867 1.437 . S
C5702 C2617 1.569 . S
C5687 C741 1.581 . S
C5737 C781 1.551 . S
C5752 C1997 1.509 . S
C5787 C802 1.477 . S
C5802 C2673 1.379 . S
C5837 C855 1.507 . S
C5852 C1625 1.462 . S
C5902 C2753 1.547 . S
C5887 C901 1.637 . S
C5937 C922 1.552 . S
C5952 C1743 1.431 . S
C6002 C2015 1.477 . S
C5987 C642 1.489 . S
C6052 C1643 1.494 . S
C6037 C821 1.511 . S
C6087 C842 1.481 . S
C6102 C2735 1.383 . S
C6137 C882 1.636 . S
C6152 C1761 1.543 . S
C6202 C2691 1.494 . S
C6187 C935 1.613 . S
C6252 C1885 1.373 . S
C6237 C735 1.502 . S
C6302 C2635 1.500 . S
C6287 C762 1.541 . S
C6352 C2573 1.494 . S
C6337 C701 1.525 . S
C6387 C981 1.487 . S
C6402 C1457 1.472 . S
C6437 C1002 1.467 . S
C6452 C1513 1.341 . S
C6502 C1333 1.463 . S
C6487 C1042 1.485 . S
C6552 C1395 1.424 . S
C6537 C1095 1.473 . S
C6602 C1377 1.517 . S
C6587 C1135 1.548 . S
C6652 C1439 1.585 . S
C6637 C1181 1.602 . S
C6702 C1495 1.433 . S
C6687 C1215 1.561 . S
C6737 C1261 1.624 . S
C6752 C1315 1.588 . S
C6787 C975 1.491 . S
C6802 C2679 1.443 . S
C6852 C2425 1.421 . S
C6837 C1015 1.517 . S
C6902 C2759 1.570 . S
C6887 C1061 1.582 . S
C6952 C2493 1.471 . S
C6937 C1101 1.512 . S
C6987 C1122 1.481 . S
C7002 C2549 1.389 . S
C7052 C2319 1.463 . S
C7037 C1175 1.582 . S
C7102 C2611 1.512 . S
C7087 C1221 1.612 . S
C7137 C1242 1.520 . S
C7152 C2381 1.398 . S
C7202 C2511 1.444 . S
C7187 C962 1.457 . S
C7252 C2301 1.405 . S
C7237 C1141 1.496 . S
C7302 C2629 1.490 . S
C7287 C1162 1.579 . S
C7337 C1202 1.663 . S
C7352 C2363 1.572 . S
C7387 C1255 1.592 . S
C7402 C2567 1.483 . S
C7437 C1055 1.495 . S
C7452 C2443 1.381 . S
C7487 C1082 1.489 . S
C7502 C2741 1.429 . S
C7552 C2697 1.484 . S
C7537 C1021 1.518 . S
