# Generated by pormake.
# Topology ptr, (4,4)-cn, num edge types: 1
# Building blocks:
#     Node 0, Type 0, BuildingBlock: KUFVIS_clean_sbu_0, # of connection points: 4
#     Node 1, Type 0, BuildingBlock: KUFVIS_clean_sbu_0, # of connection points: 4
#     Node 2, Type 0, BuildingBlock: KUFVIS_clean_sbu_0, # of connection points: 4
#     Node 3, Type 0, BuildingBlock: KUFVIS_clean_sbu_0, # of connection points: 4
#     Node 4, Type 0, BuildingBlock: KUFVIS_clean_sbu_0, # of connection points: 4
#     Node 5, Type 0, BuildingBlock: KUFVIS_clean_sbu_0, # of connection points: 4
#     Node 6, Type 0, BuildingBlock: KUFVIS_clean_sbu_0, # of connection points: 4
#     Node 7, Type 0, BuildingBlock: KUFVIS_clean_sbu_0, # of connection points: 4
#     Node 8, Type 0, BuildingBlock: KUFVIS_clean_sbu_0, # of connection points: 4
#     Node 9, Type 0, BuildingBlock: KUFVIS_clean_sbu_0, # of connection points: 4
#     Node 10, Type 0, BuildingBlock: KUFVIS_clean_sbu_0, # of connection points: 4
#     Node 11, Type 0, BuildingBlock: KUFVIS_clean_sbu_0, # of connection points: 4
#     Node 12, Type 0, BuildingBlock: KUFVIS_clean_sbu_0, # of connection points: 4
#     Node 13, Type 0, BuildingBlock: KUFVIS_clean_sbu_0, # of connection points: 4
#     Node 14, Type 0, BuildingBlock: KUFVIS_clean_sbu_0, # of connection points: 4
#     Node 15, Type 0, BuildingBlock: KUFVIS_clean_sbu_0, # of connection points: 4
#     Node 16, Type 0, BuildingBlock: KUFVIS_clean_sbu_0, # of connection points: 4
#     Node 17, Type 0, BuildingBlock: KUFVIS_clean_sbu_0, # of connection points: 4
#     Node 18, Type 1, BuildingBlock: KUFVIS_clean_linker_0, # of connection points: 4
#     Node 19, Type 1, BuildingBlock: KUFVIS_clean_linker_0, # of connection points: 4
#     Node 20, Type 1, BuildingBlock: KUFVIS_clean_linker_0, # of connection points: 4
#     Node 21, Type 1, BuildingBlock: KUFVIS_clean_linker_0, # of connection points: 4
#     Node 22, Type 1, BuildingBlock: KUFVIS_clean_linker_0, # of connection points: 4
#     Node 23, Type 1, BuildingBlock: KUFVIS_clean_linker_0, # of connection points: 4
#     Node 24, Type 1, BuildingBlock: KUFVIS_clean_linker_0, # of connection points: 4
#     Node 25, Type 1, BuildingBlock: KUFVIS_clean_linker_0, # of connection points: 4
#     Node 26, Type 1, BuildingBlock: KUFVIS_clean_linker_0, # of connection points: 4
#     Node 27, Type 1, BuildingBlock: KUFVIS_clean_linker_0, # of connection points: 4
#     Node 28, Type 1, BuildingBlock: KUFVIS_clean_linker_0, # of connection points: 4
#     Node 29, Type 1, BuildingBlock: KUFVIS_clean_linker_0, # of connection points: 4
#     Node 30, Type 1, BuildingBlock: KUFVIS_clean_linker_0, # of connection points: 4
#     Node 31, Type 1, BuildingBlock: KUFVIS_clean_linker_0, # of connection points: 4
#     Node 32, Type 1, BuildingBlock: KUFVIS_clean_linker_0, # of connection points: 4
#     Node 33, Type 1, BuildingBlock: KUFVIS_clean_linker_0, # of connection points: 4
#     Node 34, Type 1, BuildingBlock: KUFVIS_clean_linker_0, # of connection points: 4
#     Node 35, Type 1, BuildingBlock: KUFVIS_clean_linker_0, # of connection points: 4
#     Edge 36, Type (0, 1), BuildingBlock: XIVTED_clean_linker_0, # of connection points: 2
#     Edge 37, Type (0, 1), BuildingBlock: XIVTED_clean_linker_0, # of connection points: 2
#     Edge 38, Type (0, 1), BuildingBlock: XIVTED_clean_linker_0, # of connection points: 2
#     Edge 39, Type (0, 1), BuildingBlock: XIVTED_clean_linker_0, # of connection points: 2
#     Edge 40, Type (0, 1), BuildingBlock: XIVTED_clean_linker_0, # of connection points: 2
#     Edge 41, Type (0, 1), BuildingBlock: XIVTED_clean_linker_0, # of connection points: 2
#     Edge 42, Type (0, 1), BuildingBlock: XIVTED_clean_linker_0, # of connection points: 2
#     Edge 43, Type (0, 1), BuildingBlock: XIVTED_clean_linker_0, # of connection points: 2
#     Edge 44, Type (0, 1), BuildingBlock: XIVTED_clean_linker_0, # of connection points: 2
#     Edge 45, Type (0, 1), BuildingBlock: XIVTED_clean_linker_0, # of connection points: 2
#     Edge 46, Type (0, 1), BuildingBlock: XIVTED_clean_linker_0, # of connection points: 2
#     Edge 47, Type (0, 1), BuildingBlock: XIVTED_clean_linker_0, # of connection points: 2
#     Edge 48, Type (0, 1), BuildingBlock: XIVTED_clean_linker_0, # of connection points: 2
#     Edge 49, Type (0, 1), BuildingBlock: XIVTED_clean_linker_0, # of connection points: 2
#     Edge 50, Type (0, 1), BuildingBlock: XIVTED_clean_linker_0, # of connection points: 2
#     Edge 51, Type (0, 1), BuildingBlock: XIVTED_clean_linker_0, # of connection points: 2
#     Edge 52, Type (0, 1), BuildingBlock: XIVTED_clean_linker_0, # of connection points: 2
#     Edge 53, Type (0, 1), BuildingBlock: XIVTED_clean_linker_0, # of connection points: 2
#     Edge 54, Type (0, 1), BuildingBlock: XIVTED_clean_linker_0, # of connection points: 2
#     Edge 55, Type (0, 1), BuildingBlock: XIVTED_clean_linker_0, # of connection points: 2
#     Edge 56, Type (0, 1), BuildingBlock: XIVTED_clean_linker_0, # of connection points: 2
#     Edge 57, Type (0, 1), BuildingBlock: XIVTED_clean_linker_0, # of connection points: 2
#     Edge 58, Type (0, 1), BuildingBlock: XIVTED_clean_linker_0, # of connection points: 2
#     Edge 59, Type (0, 1), BuildingBlock: XIVTED_clean_linker_0, # of connection points: 2
#     Edge 60, Type (0, 1), BuildingBlock: XIVTED_clean_linker_0, # of connection points: 2
#     Edge 61, Type (0, 1), BuildingBlock: XIVTED_clean_linker_0, # of connection points: 2
#     Edge 62, Type (0, 1), BuildingBlock: XIVTED_clean_linker_0, # of connection points: 2
#     Edge 63, Type (0, 1), BuildingBlock: XIVTED_clean_linker_0, # of connection points: 2
#     Edge 64, Type (0, 1), BuildingBlock: XIVTED_clean_linker_0, # of connection points: 2
#     Edge 65, Type (0, 1), BuildingBlock: XIVTED_clean_linker_0, # of connection points: 2
#     Edge 66, Type (0, 1), BuildingBlock: XIVTED_clean_linker_0, # of connection points: 2
#     Edge 67, Type (0, 1), BuildingBlock: XIVTED_clean_linker_0, # of connection points: 2
#     Edge 68, Type (0, 1), BuildingBlock: XIVTED_clean_linker_0, # of connection points: 2
#     Edge 69, Type (0, 1), BuildingBlock: XIVTED_clean_linker_0, # of connection points: 2
#     Edge 70, Type (0, 1), BuildingBlock: XIVTED_clean_linker_0, # of connection points: 2
#     Edge 71, Type (0, 1), BuildingBlock: XIVTED_clean_linker_0, # of connection points: 2
#     Edge 72, Type (0, 1), BuildingBlock: XIVTED_clean_linker_0, # of connection points: 2
#     Edge 73, Type (0, 1), BuildingBlock: XIVTED_clean_linker_0, # of connection points: 2
#     Edge 74, Type (0, 1), BuildingBlock: XIVTED_clean_linker_0, # of connection points: 2
#     Edge 75, Type (0, 1), BuildingBlock: XIVTED_clean_linker_0, # of connection points: 2
#     Edge 76, Type (0, 1), BuildingBlock: XIVTED_clean_linker_0, # of connection points: 2
#     Edge 77, Type (0, 1), BuildingBlock: XIVTED_clean_linker_0, # of connection points: 2
#     Edge 78, Type (0, 1), BuildingBlock: XIVTED_clean_linker_0, # of connection points: 2
#     Edge 79, Type (0, 1), BuildingBlock: XIVTED_clean_linker_0, # of connection points: 2
#     Edge 80, Type (0, 1), BuildingBlock: XIVTED_clean_linker_0, # of connection points: 2
#     Edge 81, Type (0, 1), BuildingBlock: XIVTED_clean_linker_0, # of connection points: 2
#     Edge 82, Type (0, 1), BuildingBlock: XIVTED_clean_linker_0, # of connection points: 2
#     Edge 83, Type (0, 1), BuildingBlock: XIVTED_clean_linker_0, # of connection points: 2
#     Edge 84, Type (0, 1), BuildingBlock: XIVTED_clean_linker_0, # of connection points: 2
#     Edge 85, Type (0, 1), BuildingBlock: XIVTED_clean_linker_0, # of connection points: 2
#     Edge 86, Type (0, 1), BuildingBlock: XIVTED_clean_linker_0, # of connection points: 2
#     Edge 87, Type (0, 1), BuildingBlock: XIVTED_clean_linker_0, # of connection points: 2
#     Edge 88, Type (0, 1), BuildingBlock: XIVTED_clean_linker_0, # of connection points: 2
#     Edge 89, Type (0, 1), BuildingBlock: XIVTED_clean_linker_0, # of connection points: 2
#     Edge 90, Type (0, 1), BuildingBlock: XIVTED_clean_linker_0, # of connection points: 2
#     Edge 91, Type (0, 1), BuildingBlock: XIVTED_clean_linker_0, # of connection points: 2
#     Edge 92, Type (0, 1), BuildingBlock: XIVTED_clean_linker_0, # of connection points: 2
#     Edge 93, Type (0, 1), BuildingBlock: XIVTED_clean_linker_0, # of connection points: 2
#     Edge 94, Type (0, 1), BuildingBlock: XIVTED_clean_linker_0, # of connection points: 2
#     Edge 95, Type (0, 1), BuildingBlock: XIVTED_clean_linker_0, # of connection points: 2
#     Edge 96, Type (0, 1), BuildingBlock: XIVTED_clean_linker_0, # of connection points: 2
#     Edge 97, Type (0, 1), BuildingBlock: XIVTED_clean_linker_0, # of connection points: 2
#     Edge 98, Type (0, 1), BuildingBlock: XIVTED_clean_linker_0, # of connection points: 2
#     Edge 99, Type (0, 1), BuildingBlock: XIVTED_clean_linker_0, # of connection points: 2
#     Edge 100, Type (0, 1), BuildingBlock: XIVTED_clean_linker_0, # of connection points: 2
#     Edge 101, Type (0, 1), BuildingBlock: XIVTED_clean_linker_0, # of connection points: 2
#     Edge 102, Type (0, 1), BuildingBlock: XIVTED_clean_linker_0, # of connection points: 2
#     Edge 103, Type (0, 1), BuildingBlock: XIVTED_clean_linker_0, # of connection points: 2
#     Edge 104, Type (0, 1), BuildingBlock: XIVTED_clean_linker_0, # of connection points: 2
#     Edge 105, Type (0, 1), BuildingBlock: XIVTED_clean_linker_0, # of connection points: 2
#     Edge 106, Type (0, 1), BuildingBlock: XIVTED_clean_linker_0, # of connection points: 2
#     Edge 107, Type (0, 1), BuildingBlock: XIVTED_clean_linker_0, # of connection points: 2
# Relax obj value: 0.050
# Max RMSD: 0.134
# Mean RMSD: 0.089
data_MOF--net-ptr--node1-KUFVIS_clean_sbu_0--node2-KUFVIS_clean_linker_0--edge1-XIVTED_clean_linker_0
_symmetry_space_group_name_H-M    P1
_symmetry_Int_Tables_number       1
_symmetry_cell_setting            triclinic
loop_
_symmetry_equiv_pos_as_xyz
'x, y, z'
_cell_length_a     78.039125
_cell_length_b     77.756775
_cell_length_c     49.805227
_cell_angle_alpha  89.807899
_cell_angle_beta   90.568776
_cell_angle_gamma 119.54186
loop_
_atom_site_label
_atom_site_type_symbol
_atom_site_fract_x
_atom_site_fract_y
_atom_site_fract_z
_atom_type_partial_charge
Mn0 Mn 1.00939 0.36599 -0.00473 0.0
Mn1 Mn 0.05201 0.40818 0.98247 0.0
C2 C 1.00981 0.38934 0.96588 0.0
C3 C 0.98586 0.33309 0.98647 0.0
C4 C 0.02799 0.40224 0.03246 0.0
O5 O 0.03026 0.35917 0.0085 0.0
O6 O 0.05736 0.38802 -0.00116 0.0
C7 C 0.06672 0.39204 0.94036 0.0
N8 N 0.06178 0.40572 0.94848 0.0
C9 C 0.07134 0.42255 0.90601 0.0
C10 C 0.07664 0.40871 0.89726 0.0
C11 C 0.07425 0.39335 0.91448 0.0
C12 C 0.06385 0.42046 0.93198 0.0
H13 H 0.06492 0.38021 0.95351 0.0
C14 C 0.04898 0.37029 0.00776 0.0
O15 O 0.98747 0.3409 0.00998 0.0
O16 O 0.99864 0.344 0.96858 0.0
N17 N 0.04955 0.42923 0.96624 0.0
C18 C 0.04326 0.44108 0.97746 0.0
C19 C 0.04452 0.4571 0.96276 0.0
C20 C 0.05247 0.46095 0.93683 0.0
C21 C 0.05918 0.44877 0.92588 0.0
C22 C 0.05765 0.43308 0.94154 0.0
H23 H 0.03723 0.43829 -0.00257 0.0
O24 O 0.99356 0.37675 0.97742 0.0
O25 O 0.02532 0.38788 0.97159 0.0
O26 O 0.01483 0.38449 0.02728 0.0
O27 O 0.04271 0.41237 0.01729 0.0
C28 C 0.06701 0.45138 0.89987 0.0
C29 C 0.07299 0.43822 0.88989 0.0
H30 H 0.08246 0.40967 0.87732 0.0
H31 H 0.07824 0.38256 0.90783 0.0
H32 H 0.03934 0.46645 0.97138 0.0
H33 H 0.05325 0.47321 0.92546 0.0
H34 H 0.06824 0.4633 0.88723 0.0
H35 H 0.07874 0.44022 0.86973 0.0
Mn36 Mn 0.65837 0.64616 0.01429 0.0
Mn37 Mn 0.65731 0.60318 0.0305 0.0
C38 C 0.63525 0.62438 0.0443 0.0
C39 C 0.66977 0.68005 0.02011 0.0
C40 C 0.64003 0.6089 0.97879 0.0
O41 O 0.68523 0.6509 0.00155 0.0
O42 O 0.68303 0.62214 0.01461 0.0
C43 C 0.6874 0.61906 0.0739 0.0
N44 N 0.6689 0.60579 0.06528 0.0
C45 C 0.6608 0.58975 0.10836 0.0
C46 C 0.67981 0.60317 0.11765 0.0
C47 C 0.69314 0.61794 0.10037 0.0
C48 C 0.6559 0.59165 0.08182 0.0
H49 H 0.69769 0.63042 0.06067 0.0
C50 C 0.69247 0.63938 0.00418 0.0
O51 O 0.66232 0.67119 -0.00252 0.0
O52 O 0.67123 0.66939 0.03919 0.0
N53 N 0.63353 0.58314 0.04634 0.0
C54 C 0.61562 0.5716 0.03445 0.0
C55 C 0.60057 0.55617 0.04909 0.0
C56 C 0.60415 0.55255 0.07563 0.0
C57 C 0.6228 0.56435 0.08726 0.0
C58 C 0.63727 0.57944 0.07164 0.0
H59 H 0.61281 0.57419 0.01399 0.0
O60 O 0.63244 0.63748 0.03187 0.0
O61 O 0.65172 0.62462 0.03941 0.0
O62 O 0.64445 0.62676 0.98337 0.0
O63 O 0.6445 0.59881 -0.00521 0.0
C64 C 0.62751 0.56194 0.11389 0.0
C65 C 0.64646 0.5747 0.12448 0.0
H66 H 0.68429 0.60235 0.13805 0.0
H67 H 0.70781 0.6284 0.10742 0.0
H68 H 0.58623 0.5471 0.03994 0.0
H69 H 0.59245 0.54075 0.08694 0.0
H70 H 0.61658 0.55049 0.12651 0.0
H71 H 0.64983 0.57286 0.14508 0.0
Mn72 Mn 0.36998 1.0079 0.01507 0.0
Mn73 Mn 0.4125 0.05047 0.02782 0.0
C74 C 0.39247 1.00826 0.04627 0.0
C75 C 0.33641 0.98616 0.02238 0.0
C76 C 0.40641 0.02471 0.97905 0.0
O77 O 0.36449 0.02907 -0.00093 0.0
O78 O 0.39272 0.05621 0.01101 0.0
C79 C 0.39732 0.06663 0.06924 0.0
N80 N 0.41063 0.06117 0.06144 0.0
C81 C 0.42811 0.0718 0.10357 0.0
C82 C 0.41466 0.07766 0.11199 0.0
C83 C 0.39915 0.07499 0.09479 0.0
C84 C 0.42547 0.06347 0.07795 0.0
H85 H 0.3854 0.06463 0.05606 0.0
C86 C 0.37539 0.04784 0.00068 0.0
O87 O 0.3448 0.98607 8e-05 0.0
O88 O 0.34737 0.99925 0.0402 0.0
N89 N 0.4333 0.04778 0.04441 0.0
C90 C 0.44473 0.04089 0.03354 0.0
C91 C 0.46082 0.04234 0.04828 0.0
C92 C 0.4652 0.05112 0.07385 0.0
C93 C 0.45346 0.05844 0.08442 0.0
C94 C 0.43767 0.05667 0.06875 0.0
H95 H 0.44157 0.03427 0.01381 0.0
O96 O 0.3793 0.99179 0.03547 0.0
O97 O 0.39183 0.02406 0.03921 0.0
O98 O 0.38887 0.01138 0.98452 0.0
O99 O 0.41618 0.04027 -0.00671 0.0
C100 C 0.45665 0.06718 0.11004 0.0
C101 C 0.44391 0.07373 0.11969 0.0
H102 H 0.41604 0.08413 0.13167 0.0
H103 H 0.38867 0.0794 0.10118 0.0
H104 H 0.46983 0.03669 0.03995 0.0
H105 H 0.47753 0.05206 0.08525 0.0
H106 H 0.46872 0.06869 0.12265 0.0
H107 H 0.44635 0.08016 0.13958 0.0
Mn108 Mn 0.01816 0.65472 0.98825 0.0
Mn109 Mn 0.05921 0.65218 0.97374 0.0
C110 C 0.01648 0.6315 0.95774 0.0
C111 C 0.9971 0.66776 0.98136 0.0
C112 C 0.03544 0.63473 0.02414 0.0
O113 O 0.04032 0.68096 0.00269 0.0
O114 O 0.06648 0.67812 0.99038 0.0
C115 C 0.07484 0.68293 0.93151 0.0
N116 N 0.0689 0.66407 0.93956 0.0
C117 C 0.07718 0.65596 0.8968 0.0
C118 C 0.0835 0.67532 0.8881 0.0
C119 C 0.08224 0.68884 0.9055 0.0
C120 C 0.06987 0.6509 0.9229 0.0
H121 H 0.07393 0.69337 0.94485 0.0
C122 C 0.05889 0.68779 0.0009 0.0
O123 O 0.99752 0.65963 0.00397 0.0
O124 O 1.00932 0.66884 0.96303 0.0
N125 N 0.05494 0.62814 0.95733 0.0
C126 C 0.04766 0.60986 0.96851 0.0
C127 C 0.04757 0.59453 0.95357 0.0
C128 C 0.05524 0.59822 0.92748 0.0
C129 C 0.06299 0.61723 0.91659 0.0
C130 C 0.06272 0.63194 0.93245 0.0
H131 H 0.04189 0.60696 0.98863 0.0
O132 O 1.00071 0.62922 0.96941 0.0
O133 O 0.0328 0.64759 0.96363 0.0
O134 O 0.0224 0.63969 0.01911 0.0
O135 O 0.05006 0.63906 0.00885 0.0
C136 C 0.07071 0.62211 0.89048 0.0
C137 C 0.07769 0.64142 0.88053 0.0
H138 H 0.08923 0.67995 0.86806 0.0
H139 H 0.08701 0.70379 0.8989 0.0
H140 H 0.0416 0.57991 0.96214 0.0
H141 H 0.05502 0.58632 0.91594 0.0
H142 H 0.0711 0.61105 0.87774 0.0
H143 H 0.08332 0.64491 0.86028 0.0
Mn144 Mn 0.36785 0.37009 0.00544 0.0
Mn145 Mn 0.41124 0.37251 0.02199 0.0
C146 C 0.38852 0.3927 0.03733 0.0
C147 C 0.33384 0.35682 0.01126 0.0
C148 C 0.40535 0.3911 0.97159 0.0
O149 O 0.36446 0.344 0.99057 0.0
O150 O 0.39327 0.34687 0.0045 0.0
C151 C 0.39632 0.34107 0.06329 0.0
N152 N 0.40896 0.36006 0.05592 0.0
C153 C 0.42519 0.36735 0.09906 0.0
C154 C 0.41242 0.34784 0.10708 0.0
C155 C 0.39787 0.33468 0.08915 0.0
C156 C 0.42285 0.37291 0.07311 0.0
H157 H 0.38518 0.33088 0.04953 0.0
C158 C 0.37633 0.33719 -0.0068 0.0
O159 O 0.34236 0.36537 0.98902 0.0
O160 O 0.34492 0.3554 0.02973 0.0
N161 N 0.43038 0.3963 0.03939 0.0
C162 C 0.44113 0.41477 0.02886 0.0
C163 C 0.45613 0.42979 0.04439 0.0
C164 C 0.46017 0.4256 0.07038 0.0
C165 C 0.44916 0.4064 0.08062 0.0
C166 C 0.43438 0.39204 0.06422 0.0
H167 H 0.43825 0.41806 0.0088 0.0
O168 O 0.37517 0.39522 0.02514 0.0
O169 O 0.38915 0.37678 0.03111 0.0
O170 O 0.38729 0.38597 0.97549 0.0
O171 O 0.4153 0.38625 0.98729 0.0
C172 C 0.45214 0.40099 0.10654 0.0
C173 C 0.44006 0.38153 0.11584 0.0
H174 H 0.4136 0.34284 0.12698 0.0
H175 H 0.38792 0.31962 0.09522 0.0
H176 H 0.46459 0.44456 0.03632 0.0
H177 H 0.47169 0.43724 0.08235 0.0
H178 H 0.46348 0.41177 0.11965 0.0
H179 H 0.44229 0.37764 0.13597 0.0
Mn180 Mn 0.65636 0.00986 -0.00572 0.0
Mn181 Mn 0.61353 0.97067 0.97304 0.0
C182 C 0.63655 0.01433 0.96349 0.0
C183 C 0.69037 0.03066 0.99084 0.0
C184 C 0.61804 0.99097 0.0265 0.0
O185 O 0.65943 0.98626 0.00573 0.0
O186 O 0.63102 0.96153 0.9891 0.0
C187 C 0.62991 0.95757 0.9293 0.0
N188 N 0.61698 0.96336 0.93775 0.0
C189 C 0.60266 0.95882 0.89354 0.0
C190 C 0.61574 0.95269 0.88439 0.0
C191 C 0.62948 0.95215 0.90233 0.0
C192 C 0.60386 0.96415 0.92059 0.0
H193 H 0.64046 0.9571 0.94304 0.0
C194 C 0.64768 0.96794 0.00102 0.0
O195 O 0.68124 0.02902 0.01315 0.0
O196 O 0.67989 0.01975 0.97086 0.0
N197 N 0.59492 0.97686 0.95672 0.0
C198 C 0.58366 0.98358 0.96857 0.0
C199 C 0.5693 0.98519 0.95328 0.0
C200 C 0.56641 0.97956 0.92613 0.0
C201 C 0.57791 0.97233 0.9145 0.0
C202 C 0.59198 0.97103 0.93074 0.0
H203 H 0.58566 0.98774 0.9895 0.0
O204 O 0.64952 0.02912 0.97755 0.0
O205 O 0.63582 0.99742 0.96731 0.0
O206 O 0.63613 1.004 0.0238 0.0
O207 O 0.60835 0.9775 0.0091 0.0
C208 C 0.57613 0.9666 0.88735 0.0
C209 C 0.58859 0.95999 0.87683 0.0
H210 H 0.61544 0.94847 0.86361 0.0
H211 H 0.63967 0.94751 0.8954 0.0
H212 H 0.56044 0.99072 0.96243 0.0
H213 H 0.5554 0.98094 0.91436 0.0
H214 H 0.5654 0.96747 0.8743 0.0
H215 H 0.58728 0.9559 0.85583 0.0
Mn216 Mn 0.67123 0.69886 0.33202 0.0
Mn217 Mn 0.71259 0.74173 0.31785 0.0
C218 C 0.67011 0.72128 0.30244 0.0
C219 C 0.6487 0.66576 0.32338 0.0
C220 C 0.68906 0.73542 0.36844 0.0
O221 O 0.69299 0.69329 0.34486 0.0
O222 O 0.71933 0.72252 0.33438 0.0
C223 C 0.72807 0.72637 0.27571 0.0
N224 N 0.72223 0.73942 0.28368 0.0
C225 C 0.73053 0.75577 0.24082 0.0
C226 C 0.73673 0.74258 0.2322 0.0
C227 C 0.73542 0.72778 0.24969 0.0
C228 C 0.72327 0.75361 0.26693 0.0
H229 H 0.72713 0.71499 0.28908 0.0
C230 C 0.71159 0.70491 0.34368 0.0
O231 O 0.65006 0.67339 0.34698 0.0
O232 O 0.66127 0.67696 0.30551 0.0
N233 N 0.70861 0.76178 0.30137 0.0
C234 C 0.70134 0.77287 0.3124 0.0
C235 C 0.70125 0.7881 0.2973 0.0
C236 C 0.70885 0.79196 0.27118 0.0
C237 C 0.71652 0.78056 0.2604 0.0
C238 C 0.71625 0.76559 0.2764 0.0
H239 H 0.69556 0.77004 0.33251 0.0
O240 O 0.65428 0.70841 0.31451 0.0
O241 O 0.68612 0.72063 0.30782 0.0
O242 O 0.67629 0.71742 0.3638 0.0
O243 O 0.7034 0.74575 0.3528 0.0
C244 C 0.7242 0.78331 0.23428 0.0
C245 C 0.7311 0.77085 0.22444 0.0
H246 H 0.74242 0.74362 0.21215 0.0
H247 H 0.74011 0.7175 0.24315 0.0
H248 H 0.69531 0.79685 0.30578 0.0
H249 H 0.70864 0.80365 0.25953 0.0
H250 H 0.7246 0.79477 0.22144 0.0
H251 H 0.73668 0.77292 0.20417 0.0
Mn252 Mn 0.32518 0.98124 0.34955 0.0
Mn253 Mn 0.32604 0.9394 0.36661 0.0
C254 C 0.30116 0.95798 0.37721 0.0
C255 C 0.33315 0.0142 0.35627 0.0
C256 C 0.30999 0.94438 0.31355 0.0
O257 O 0.35339 0.98825 0.34011 0.0
O258 O 0.35162 0.95938 0.3514 0.0
C259 C 0.35523 0.95674 0.41095 0.0
N260 N 0.33718 0.94272 0.40184 0.0
C261 C 0.32921 0.92649 0.44479 0.0
C262 C 0.34776 0.94069 0.4546 0.0
C263 C 0.36078 0.95593 0.43763 0.0
C264 C 0.32445 0.92812 0.41807 0.0
H265 H 0.36531 0.96844 0.39797 0.0
C266 C 0.36102 0.97703 0.34228 0.0
O267 O 0.32842 1.00607 0.33268 0.0
O268 O 0.3344 1.00361 0.37559 0.0
N269 N 0.30256 0.91846 0.38187 0.0
C270 C 0.28505 0.90619 0.36951 0.0
C271 C 0.27028 0.89028 0.38384 0.0
C272 C 0.27379 0.88693 0.41054 0.0
C273 C 0.29206 0.89949 0.42266 0.0
C274 C 0.30622 0.9151 0.40737 0.0
H275 H 0.28232 0.90858 0.34891 0.0
O276 O 0.29792 0.97041 0.36376 0.0
O277 O 0.31847 0.95958 0.37451 0.0
O278 O 0.31425 0.96228 0.31747 0.0
O279 O 0.31378 0.93437 0.33057 0.0
C280 C 0.29671 0.89728 0.44939 0.0
C281 C 0.31521 0.91085 0.46051 0.0
H282 H 0.35211 0.94009 0.47514 0.0
H283 H 0.3751 0.96698 0.44508 0.0
H284 H 0.25624 0.88062 0.37432 0.0
H285 H 0.26232 0.87472 0.42159 0.0
H286 H 0.28606 0.88534 0.46169 0.0
H287 H 0.3185 0.90915 0.48121 0.0
Mn288 Mn 0.03461 0.33845 0.34061 0.0
Mn289 Mn 0.07856 0.37853 0.35608 0.0
C290 C 0.05515 0.33617 0.37268 0.0
C291 C 1.00061 0.31844 0.347 0.0
C292 C 0.07186 0.35339 0.30645 0.0
O293 O 0.03164 0.36137 0.32517 0.0
O294 O 0.06093 0.38674 0.33816 0.0
C295 C 0.06433 0.39614 0.39673 0.0
N296 N 0.07663 0.38921 0.3897 0.0
C297 C 0.09253 0.39748 0.43307 0.0
C298 C 0.08011 0.40483 0.44074 0.0
C299 C 0.0659 0.40408 0.42252 0.0
C300 C 0.09022 0.38967 0.40716 0.0
H301 H 0.0534 0.39563 0.38278 0.0
C302 C 0.0439 0.37989 0.32716 0.0
O303 O 1.0089 0.31806 0.32471 0.0
O304 O 1.0119 0.331 0.36509 0.0
N305 N 0.09736 0.37328 0.37386 0.0
C306 C 0.10782 0.36506 0.36364 0.0
C307 C 0.12251 0.36445 0.37944 0.0
C308 C 0.12653 0.37257 0.40542 0.0
C309 C 0.11583 0.38127 0.41533 0.0
C310 C 0.1014 0.3815 0.39863 0.0
H311 H 0.10493 0.35894 0.34361 0.0
O312 O 0.0416 0.32043 0.36084 0.0
O313 O 0.05611 0.35279 0.36589 0.0
O314 O 0.05371 0.34111 0.31065 0.0
O315 O 0.08221 0.3682 0.32171 0.0
C316 C 0.11871 0.38944 0.4413 0.0
C317 C 0.10699 0.39743 0.45022 0.0
H318 H 0.08129 0.41097 0.4606 0.0
H319 H 0.0562 0.40965 0.42832 0.0
H320 H 0.13073 0.35775 0.37162 0.0
H321 H 0.13777 0.37194 0.41763 0.0
H322 H 0.12972 0.38942 0.45469 0.0
H323 H 0.10915 0.40342 0.47036 0.0
Mn324 Mn 0.68802 0.98705 0.31769 0.0
Mn325 Mn 0.73055 0.98663 0.30561 0.0
C326 C 0.68827 0.96449 0.28747 0.0
C327 C 0.6658 0.99871 0.31011 0.0
C328 C 0.70576 0.96816 0.35491 0.0
O329 O 0.70908 0.01368 0.33289 0.0
O330 O 0.73621 0.01212 0.32211 0.0
C331 C 0.74602 0.01761 0.2637 0.0
N332 N 0.74079 0.99893 0.27181 0.0
C333 C 0.75097 0.99179 0.22982 0.0
C334 C 0.75657 0.01099 0.22106 0.0
C335 C 0.75401 0.02393 0.23804 0.0
C336 C 0.74301 0.98631 0.25554 0.0
H337 H 0.74411 0.02761 0.27671 0.0
C338 C 0.72778 0.02119 0.33198 0.0
O339 O 0.66635 0.99062 0.33266 0.0
O340 O 0.67852 1.00052 0.29208 0.0
N341 N 0.72797 0.96314 0.2895 0.0
C342 C 0.72139 0.94497 0.30073 0.0
C343 C 0.72276 0.93023 0.28625 0.0
C344 C 0.73115 0.9344 0.26058 0.0
C345 C 0.73817 0.95332 0.24966 0.0
C346 C 0.7365 0.96744 0.26508 0.0
H347 H 0.71509 0.94171 0.32054 0.0
O348 O 0.67194 0.96143 0.29827 0.0
O349 O 0.70401 0.98095 0.29397 0.0
O350 O 0.69237 0.97244 0.34894 0.0
O351 O 0.72091 0.97313 0.34044 0.0
C352 C 0.74652 0.95864 0.22393 0.0
C353 C 0.7528 0.97782 0.21395 0.0
H354 H 0.76276 0.01593 0.2013 0.0
H355 H 0.75823 0.03875 0.23139 0.0
H356 H 0.71735 0.91568 0.29486 0.0
H357 H 0.73203 0.92295 0.24939 0.0
H358 H 0.74795 0.94801 0.21152 0.0
H359 H 0.75894 0.98165 0.19399 0.0
Mn360 Mn 0.03158 0.70357 0.3416 0.0
Mn361 Mn 0.07408 0.7045 0.35937 0.0
C362 C 0.05249 0.72614 0.37342 0.0
C363 C 0.99767 0.69152 0.34638 0.0
C364 C 0.06944 0.72327 0.30831 0.0
O365 O 0.02733 0.677 0.3274 0.0
O366 O 0.05559 0.6789 0.34201 0.0
C367 C 0.05775 0.67335 0.40105 0.0
N368 N 0.07098 0.69214 0.39358 0.0
C369 C 0.08644 0.69933 0.43725 0.0
C370 C 0.07305 0.68003 0.44537 0.0
C371 C 0.0586 0.66701 0.42722 0.0
C372 C 0.08482 0.70484 0.41096 0.0
H373 H 0.04664 0.66328 0.38715 0.0
C374 C 0.03866 0.6696 0.33053 0.0
O375 O 1.00669 0.69963 0.32423 0.0
O376 O 1.0082 0.68981 0.36544 0.0
N377 N 0.09361 0.72809 0.37677 0.0
C378 C 0.10501 0.74641 0.36609 0.0
C379 C 0.12005 0.76126 0.38178 0.0
C380 C 0.12342 0.75706 0.40812 0.0
C381 C 0.11173 0.73802 0.41853 0.0
C382 C 0.097 0.7238 0.40193 0.0
H383 H 0.10262 0.74971 0.3458 0.0
O384 O 0.03958 0.72909 0.36071 0.0
O385 O 0.05252 0.70982 0.36776 0.0
O386 O 0.05149 0.71865 0.31188 0.0
O387 O 0.07899 0.71815 0.32439 0.0
C388 C 0.11391 0.73267 0.44489 0.0
C389 C 0.1012 0.71338 0.45429 0.0
H390 H 0.07367 0.67507 0.46553 0.0
H391 H 0.04817 0.65211 0.43336 0.0
H392 H 0.12902 0.77591 0.37358 0.0
H393 H 0.13494 0.76859 0.42023 0.0
H394 H 0.12514 0.74337 0.45821 0.0
H395 H 0.10284 0.70954 0.47471 0.0
Mn396 Mn 0.32467 0.34961 0.33104 0.0
Mn397 Mn 0.28122 0.3099 0.31306 0.0
C398 C 0.3046 0.35285 0.29926 0.0
C399 C 0.35863 0.36959 0.32639 0.0
C400 C 0.28708 0.33312 0.36441 0.0
O401 O 0.32756 0.32636 0.34483 0.0
O402 O 0.29885 0.30115 0.3298 0.0
C403 C 0.29607 0.29413 0.27066 0.0
N404 N 0.28362 0.30069 0.27853 0.0
C405 C 0.26828 0.2942 0.2348 0.0
C406 C 0.28085 0.28726 0.22628 0.0
C407 C 0.29486 0.2873 0.24426 0.0
C408 C 0.27023 0.3009 0.26131 0.0
H409 H 0.30684 0.2941 0.28441 0.0
C410 C 0.31574 0.30791 0.3412 0.0
O411 O 0.34988 0.36929 0.34854 0.0
O412 O 0.34776 0.3579 0.30723 0.0
N413 N 0.26257 0.31577 0.29613 0.0
C414 C 0.25201 0.32359 0.30719 0.0
C415 C 0.23753 0.32486 0.29171 0.0
C416 C 0.23386 0.31783 0.26516 0.0
C417 C 0.24469 0.30956 0.25434 0.0
C418 C 0.2589 0.30865 0.27074 0.0
H419 H 0.25464 0.32891 0.32763 0.0
O420 O 0.31791 0.36824 0.31204 0.0
O421 O 0.30367 0.33608 0.30496 0.0
O422 O 0.30514 0.34577 0.36068 0.0
O423 O 0.27703 0.31871 0.3484 0.0
C424 C 0.24215 0.30247 0.22778 0.0
C425 C 0.25402 0.29491 0.21796 0.0
H426 H 0.27995 0.28197 0.20594 0.0
H427 H 0.30467 0.28204 0.23779 0.0
H428 H 0.22922 0.33124 0.30022 0.0
H429 H 0.22278 0.31896 0.25321 0.0
H430 H 0.2313 0.30302 0.21461 0.0
H431 H 0.25213 0.28978 0.19738 0.0
Mn432 Mn 0.3428 0.03251 0.65927 0.0
Mn433 Mn 0.38569 0.07363 0.64356 0.0
C434 C 0.34315 0.05453 0.62761 0.0
C435 C 0.31945 0.99912 0.65361 0.0
C436 C 0.36266 0.07005 0.69386 0.0
O437 O 0.36364 0.02627 0.67429 0.0
O438 O 0.39091 0.05364 0.66065 0.0
C439 C 0.39898 0.0559 0.60183 0.0
N440 N 0.39456 0.07005 0.6095 0.0
C441 C 0.40374 0.0859 0.56636 0.0
C442 C 0.4085 0.07156 0.55804 0.0
C443 C 0.40604 0.05646 0.57582 0.0
C444 C 0.39669 0.08453 0.59247 0.0
H445 H 0.39714 0.04429 0.61545 0.0
C446 C 0.38233 0.03661 0.67179 0.0
O447 O 0.32082 1.0084 0.6758 0.0
O448 O 0.33211 0.00899 0.63502 0.0
N449 N 0.3833 0.09448 0.62656 0.0
C450 C 0.37756 0.10688 0.63746 0.0
C451 C 0.37895 0.12273 0.62219 0.0
C452 C 0.3865 0.12587 0.59606 0.0
C453 C 0.39267 0.11315 0.58545 0.0
C454 C 0.39101 0.09765 0.60166 0.0
H455 H 0.37191 0.10468 0.65762 0.0
O456 O 0.32692 0.04238 0.63954 0.0
O457 O 0.35867 0.05324 0.63401 0.0
O458 O 0.34862 0.0526 0.68924 0.0
O459 O 0.3775 0.07907 0.6785 0.0
C460 C 0.40009 0.11505 0.55928 0.0
C461 C 0.40551 0.10137 0.54969 0.0
H462 H 0.41395 0.07195 0.53801 0.0
H463 H 0.40961 0.0453 0.56952 0.0
H464 H 0.37421 0.13251 0.63055 0.0
H465 H 0.3874 0.13801 0.58426 0.0
H466 H 0.40142 0.12681 0.54623 0.0
H467 H 0.41094 0.10282 0.52941 0.0
Mn468 Mn 0.98773 0.31215 0.68481 0.0
Mn469 Mn 0.99116 0.27123 0.6988 0.0
C470 C 0.96461 0.28747 0.71189 0.0
C471 C 0.9945 0.34449 0.69353 0.0
C472 C 0.97444 0.27677 0.64654 0.0
O473 O 0.01619 0.32078 0.67468 0.0
O474 O 0.0165 0.2927 0.68482 0.0
C475 C 0.01968 0.28802 0.74398 0.0
N476 N 1.00201 0.27376 0.73409 0.0
C477 C 0.99401 0.25629 0.77613 0.0
C478 C 1.01218 0.27071 0.78671 0.0
C479 C 0.02504 0.28668 0.77058 0.0
C480 C 0.98947 0.25842 0.74949 0.0
H481 H 0.02961 0.30031 0.73167 0.0
C482 C 0.02495 0.31059 0.67646 0.0
O483 O 0.98972 0.33691 0.66963 0.0
O484 O 0.9963 0.33367 0.71204 0.0
N485 N 0.96802 0.24908 0.71281 0.0
C486 C 0.9508 0.23674 0.69986 0.0
C487 C 0.93622 0.22015 0.71334 0.0
C488 C 0.93959 0.21625 0.73984 0.0
C489 C 0.95755 0.22895 0.7526 0.0
C490 C 0.97158 0.2452 0.7381 0.0
H491 H 0.94814 0.2396 0.67945 0.0
O492 O 0.96047 0.29972 0.69958 0.0
O493 O 0.98224 0.29009 0.70838 0.0
O494 O 0.97737 0.29406 0.65187 0.0
O495 O 0.97923 0.26693 0.66252 0.0
C496 C 0.96197 0.22629 0.77926 0.0
C497 C 0.98015 0.24 0.79107 0.0
H498 H 0.01636 0.26974 0.80723 0.0
H499 H 0.03905 0.29791 0.77863 0.0
H500 H 0.9224 0.2104 0.70334 0.0
H501 H 0.92824 0.20353 0.75026 0.0
H502 H 0.95138 0.2139 0.79099 0.0
H503 H 0.98326 0.23795 0.81171 0.0
Mn504 Mn 0.7037 0.67677 0.67872 0.0
Mn505 Mn 0.74699 0.71865 0.6912 0.0
C506 C 0.72608 0.67647 0.70953 0.0
C507 C 0.67006 0.65547 0.68674 0.0
C508 C 0.74001 0.69269 0.64242 0.0
O509 O 0.69879 0.69845 0.6631 0.0
O510 O 0.72774 0.72503 0.67418 0.0
C511 C 0.73249 0.73563 0.7324 0.0
N512 N 0.74545 0.72967 0.72472 0.0
C513 C 0.76298 0.74012 0.76683 0.0
C514 C 0.7499 0.74648 0.77514 0.0
C515 C 0.73454 0.74415 0.75789 0.0
C516 C 0.76014 0.73163 0.74127 0.0
H517 H 0.7207 0.73391 0.71918 0.0
C518 C 0.71034 0.71716 0.66417 0.0
O519 O 0.67808 0.65524 0.66416 0.0
O520 O 0.68139 0.66855 0.70432 0.0
N521 N 0.76741 0.7154 0.7079 0.0
C522 C 0.77855 0.70816 0.69706 0.0
C523 C 0.79452 0.7093 0.71181 0.0
C524 C 0.79907 0.71815 0.73734 0.0
C525 C 0.78765 0.72585 0.74785 0.0
C526 C 0.77198 0.72438 0.73218 0.0
H527 H 0.77527 0.7015 0.67736 0.0
O528 O 0.7126 0.66016 0.69874 0.0
O529 O 0.72585 0.69252 0.70267 0.0
O530 O 0.72224 0.67983 0.64776 0.0
O531 O 0.75024 0.70804 0.65684 0.0
C532 C 0.79105 0.73472 0.77341 0.0
C533 C 0.77864 0.74172 0.78297 0.0
H534 H 0.75145 0.75309 0.79476 0.0
H535 H 0.72434 0.74895 0.7642 0.0
H536 H 0.80329 0.70337 0.70351 0.0
H537 H 0.8113 0.71886 0.74874 0.0
H538 H 0.80302 0.73601 0.78602 0.0
H539 H 0.78124 0.74826 0.80281 0.0
Mn540 Mn 0.34783 0.31825 0.65589 0.0
Mn541 Mn 0.38925 0.3159 0.64375 0.0
C542 C 0.34689 0.29444 0.6271 0.0
C543 C 0.32545 0.32925 0.6464 0.0
C544 C 0.36486 0.29907 0.69373 0.0
O545 O 0.36956 0.34533 0.66887 0.0
O546 O 0.3959 0.3418 0.6601 0.0
C547 C 0.40546 0.34669 0.60158 0.0
N548 N 0.3995 0.32785 0.60975 0.0
C549 C 0.40809 0.31971 0.56723 0.0
C550 C 0.41444 0.33906 0.55843 0.0
C551 C 0.41306 0.35258 0.57566 0.0
C552 C 0.40065 0.31469 0.59327 0.0
H553 H 0.40441 0.35714 0.61473 0.0
C554 C 0.38816 0.3519 0.66871 0.0
O555 O 0.32663 0.32294 0.67013 0.0
O556 O 0.33809 0.33034 0.62878 0.0
N557 N 0.38552 0.29195 0.62767 0.0
C558 C 0.37815 0.27366 0.63887 0.0
C559 C 0.37818 0.25833 0.62408 0.0
C560 C 0.38601 0.26201 0.59809 0.0
C561 C 0.39382 0.28102 0.58715 0.0
C562 C 0.39349 0.29574 0.6029 0.0
H563 H 0.37215 0.27074 0.65886 0.0
O564 O 0.33098 0.29191 0.63859 0.0
O565 O 0.36294 0.31091 0.6325 0.0
O566 O 0.35238 0.30469 0.6883 0.0
O567 O 0.37937 0.30264 0.67861 0.0
C568 C 0.40157 0.28583 0.56105 0.0
C569 C 0.40863 0.30515 0.55105 0.0
H570 H 0.42027 0.34366 0.53843 0.0
H571 H 0.41784 0.36752 0.56897 0.0
H572 H 0.37214 0.24371 0.63268 0.0
H573 H 0.38584 0.2501 0.58664 0.0
H574 H 0.40192 0.27473 0.54835 0.0
H575 H 0.41431 0.3086 0.53083 0.0
Mn576 Mn 0.6986 0.0397 0.67507 0.0
Mn577 Mn 0.74127 0.04076 0.69195 0.0
C578 C 0.71933 0.06175 0.70743 0.0
C579 C 0.66466 0.02686 0.68033 0.0
C580 C 0.73622 0.05994 0.6415 0.0
O581 O 0.6947 0.01356 0.65984 0.0
O582 O 0.7228 0.01515 0.6746 0.0
C583 C 0.72561 0.00946 0.73345 0.0
N584 N 0.73859 0.02834 0.72602 0.0
C585 C 0.75426 0.03562 0.76955 0.0
C586 C 0.74115 0.01622 0.77762 0.0
C587 C 0.72671 1.00311 0.75952 0.0
C588 C 0.75242 0.04112 0.74334 0.0
H589 H 0.71451 0.99933 0.7196 0.0
C590 C 0.70592 1.00603 0.66296 0.0
O591 O 0.67346 0.03563 0.65834 0.0
O592 O 0.67545 0.02512 0.69895 0.0
N593 N 0.7607 0.06442 0.70933 0.0
C594 C 0.77175 0.08284 0.69876 0.0
C595 C 0.78667 0.0978 0.71445 0.0
C596 C 0.79027 0.09362 0.74069 0.0
C597 C 0.77893 0.07449 0.75099 0.0
C598 C 0.7643 0.06016 0.73439 0.0
H599 H 0.76915 0.08614 0.67856 0.0
O600 O 0.7063 0.06477 0.69522 0.0
O601 O 0.71958 0.04569 0.70089 0.0
O602 O 0.71836 0.05548 0.64552 0.0
O603 O 0.74577 0.05449 0.65706 0.0
C604 C 0.78134 0.06916 0.77725 0.0
C605 C 0.76895 0.04977 0.78657 0.0
H606 H 0.74194 0.01126 0.79771 0.0
H607 H 0.71648 0.98814 0.76564 0.0
H608 H 0.79537 0.11253 0.70634 0.0
H609 H 0.80169 0.10524 0.75281 0.0
H610 H 0.7925 0.07994 0.79057 0.0
H611 H 0.77076 0.04593 0.80692 0.0
Mn612 Mn 0.99056 0.67807 0.65773 0.0
Mn613 Mn 0.94794 0.63818 0.63751 0.0
C614 C 0.97001 0.68182 0.62738 0.0
C615 C 0.02444 0.6992 0.65357 0.0
C616 C 0.95278 0.65865 0.69098 0.0
O617 O 0.99436 0.65488 0.66912 0.0
O618 O 0.96622 0.62969 0.65263 0.0
C619 C 0.96399 0.62547 0.5929 0.0
N620 N 0.95093 0.6309 0.60198 0.0
C621 C 0.93561 0.62572 0.55837 0.0
C622 C 0.94881 0.61996 0.54858 0.0
C623 C 0.96312 0.61992 0.56591 0.0
C624 C 0.93726 0.6312 0.58543 0.0
H625 H 0.97497 0.62537 0.60617 0.0
C626 C 0.98305 0.63652 0.66421 0.0
O627 O 0.01551 0.69762 0.67605 0.0
O628 O 0.01381 0.68814 0.63378 0.0
N629 N 0.92867 0.64378 0.62205 0.0
C630 C 0.91745 0.65034 0.63441 0.0
C631 C 0.9026 0.65152 0.61975 0.0
C632 C 0.89922 0.64565 0.59269 0.0
C633 C 0.91071 0.63863 0.58053 0.0
C634 C 0.92529 0.63776 0.59615 0.0
H635 H 0.91983 0.65469 0.65527 0.0
O636 O 0.98299 0.69685 0.64108 0.0
O637 O 0.96972 0.66513 0.63126 0.0
O638 O 0.97065 0.67206 0.68773 0.0
O639 O 0.94316 0.6449 0.6739 0.0
C640 C 0.90846 0.63271 0.55342 0.0
C641 C 0.92099 0.6264 0.5423 0.0
H642 H 0.94817 0.61564 0.52778 0.0
H643 H 0.97341 0.61557 0.55848 0.0
H644 H 0.89376 0.65692 0.6293 0.0
H645 H 0.88783 0.64671 0.5814 0.0
H646 H 0.89731 0.63322 0.54085 0.0
H647 H 0.91931 0.62218 0.52132 0.0
H648 H 0.24386 0.35048 0.11677 0.0
H649 H 0.18872 0.33526 0.07926 0.0
H650 H 0.19883 0.35094 0.16399 0.0
H651 H 0.16774 0.33511 0.16778 0.0
H652 H 0.11688 0.3324 0.13125 0.0
H653 H 0.16588 0.34396 0.08181 0.0
C654 C 0.22909 0.3484 0.11827 0.0
C655 C 0.22213 0.35019 0.14319 0.0
C656 C 0.21721 0.34315 0.09535 0.0
C657 C 0.19794 0.34021 0.09706 0.0
C658 C 0.1907 0.34306 0.12184 0.0
C659 C 0.20339 0.34846 0.14469 0.0
C660 C 0.16993 0.33976 0.12428 0.0
C661 C 0.16061 0.33618 0.14968 0.0
C662 C 0.14163 0.33376 0.15228 0.0
C663 C 0.13131 0.33373 0.12924 0.0
C664 C 0.1398 0.33694 0.10385 0.0
C665 C 0.15924 0.34047 0.10145 0.0
H666 H 0.68677 0.90096 0.1147 0.0
H667 H 0.67319 0.84799 0.07225 0.0
H668 H 0.68875 0.85418 0.15709 0.0
H669 H 0.67157 0.82237 0.1575 0.0
H670 H 0.67317 0.77502 0.11673 0.0
H671 H 0.68503 0.82686 0.07238 0.0
C672 C 0.68562 0.88647 0.11466 0.0
C673 C 0.68795 0.87856 0.13868 0.0
C674 C 0.68078 0.87574 0.09075 0.0
C675 C 0.67782 0.85638 0.09075 0.0
C676 C 0.68069 0.84803 0.11459 0.0
C677 C 0.68591 0.85957 0.1385 0.0
C678 C 0.67814 0.82747 0.11474 0.0
C679 C 0.67379 0.81654 0.13901 0.0
C680 C 0.67292 0.79811 0.13997 0.0
C681 C 0.67452 0.78961 0.11621 0.0
C682 C 0.67884 0.7998 0.09197 0.0
C683 C 0.68084 0.81882 0.09112 0.0
H684 H 0.24411 0.90241 0.1312 0.0
H685 H 0.19316 0.86071 0.08706 0.0
H686 H 0.2009 0.85082 0.17125 0.0
H687 H 0.16923 0.83548 0.17249 0.0
H688 H 0.12185 0.78741 0.13096 0.0
H689 H 0.17247 0.82817 0.08658 0.0
C690 C 0.23019 0.88865 0.13061 0.0
C691 C 0.22316 0.87758 0.154 0.0
C692 C 0.21969 0.88247 0.10647 0.0
C693 C 0.20148 0.86477 0.10568 0.0
C694 C 0.19396 0.85299 0.12917 0.0
C695 C 0.20555 0.85946 0.15304 0.0
C696 C 0.17386 0.83463 0.12941 0.0
C697 C 0.16334 0.82766 0.15381 0.0
C698 C 0.14475 0.81055 0.1545 0.0
C699 C 0.13605 0.80082 0.13051 0.0
C700 C 0.14578 0.80733 0.10605 0.0
C701 C 0.16485 0.82389 0.10554 0.0
H702 H 0.3434 0.1146 0.87668 0.0
H703 H 0.34044 0.15998 0.92134 0.0
H704 H 0.35216 0.16626 0.83562 0.0
H705 H 0.33977 0.18475 0.83434 0.0
H706 H 0.34307 0.23449 0.87442 0.0
H707 H 0.34887 0.19126 0.92088 0.0
C708 C 0.34373 0.12872 0.87714 0.0
C709 C 0.34695 0.13933 0.85342 0.0
C710 C 0.34197 0.13635 0.90163 0.0
C711 C 0.34254 0.15476 0.90225 0.0
C712 C 0.3454 0.16585 0.87827 0.0
C713 C 0.34859 0.15809 0.85419 0.0
C714 C 0.34463 0.18499 0.87776 0.0
C715 C 0.34198 0.19259 0.85301 0.0
C716 C 0.34188 0.21054 0.85167 0.0
C717 C 0.34291 0.22046 0.87535 0.0
C718 C 0.34489 0.21329 0.90024 0.0
C719 C 0.34635 0.19592 0.90149 0.0
H720 H 0.7808 0.11611 0.8893 0.0
H721 H 0.83214 0.15962 0.93092 0.0
H722 H 0.8247 0.16523 0.84541 0.0
H723 H 0.85713 0.17913 0.84603 0.0
H724 H 0.90181 0.2319 0.88335 0.0
H725 H 0.85022 0.19355 0.92796 0.0
C726 C 0.79483 0.12973 0.88881 0.0
C727 C 0.80193 0.13944 0.86441 0.0
C728 C 0.80554 0.13692 0.91266 0.0
C729 C 0.82369 0.1546 0.91243 0.0
C730 C 0.83107 0.16519 0.88813 0.0
C731 C 0.81969 0.1575 0.86428 0.0
C732 C 0.85089 0.18366 0.88721 0.0
C733 C 0.86223 0.1887 0.86345 0.0
C734 C 0.88053 0.20605 0.86199 0.0
C735 C 0.88782 0.21825 0.88452 0.0
C736 C 0.87712 0.21377 0.90824 0.0
C737 C 0.85863 0.19652 0.90971 0.0
H738 H 0.79182 0.67781 0.88332 0.0
H739 H 0.83607 0.66979 0.92337 0.0
H740 H 0.84004 0.68264 0.83789 0.0
H741 H 0.85737 0.66801 0.83646 0.0
H742 H 0.91145 0.67891 0.87303 0.0
H743 H 0.86853 0.68302 0.92126 0.0
C744 C 0.8057 0.67779 0.88251 0.0
C745 C 0.81494 0.68015 0.8579 0.0
C746 C 0.81349 0.67456 0.90607 0.0
C747 C 0.83077 0.67315 0.90504 0.0
C748 C 0.84092 0.67605 0.88045 0.0
C749 C 0.83268 0.67969 0.85699 0.0
C750 C 0.8601 0.67572 0.87905 0.0
C751 C 0.86656 0.67201 0.85428 0.0
C752 C 0.88532 0.67395 0.85193 0.0
C753 C 0.8972 0.67808 0.87473 0.0
C754 C 0.89106 0.68092 0.89972 0.0
C755 C 0.87261 0.67992 0.90194 0.0
H756 H 0.90733 0.68405 0.44989 0.0
H757 H 0.85288 0.67147 0.41264 0.0
H758 H 0.86297 0.68489 0.49808 0.0
H759 H 0.83211 0.67097 0.50182 0.0
H760 H 0.78148 0.66887 0.46559 0.0
H761 H 0.83017 0.67996 0.41585 0.0
C762 C 0.89272 0.68237 0.45158 0.0
C763 C 0.88584 0.6838 0.47672 0.0
C764 C 0.88098 0.67801 0.42864 0.0
C765 C 0.86197 0.67571 0.43055 0.0
C766 C 0.85483 0.67825 0.45563 0.0
C767 C 0.86739 0.68269 0.47853 0.0
C768 C 0.83428 0.67554 0.45827 0.0
C769 C 0.82504 0.67214 0.48373 0.0
C770 C 0.80619 0.66999 0.48643 0.0
C771 C 0.79587 0.67008 0.46349 0.0
C772 C 0.80429 0.67325 0.43808 0.0
C773 C 0.82363 0.67652 0.43554 0.0
H774 H 0.34542 0.2341 0.45029 0.0
H775 H 0.34434 0.18697 0.40496 0.0
H776 H 0.34001 0.1839 0.49211 0.0
H777 H 0.35233 0.16516 0.49038 0.0
H778 H 0.34234 0.11262 0.45067 0.0
H779 H 0.33403 0.15516 0.40637 0.0
C780 C 0.34494 0.21991 0.44985 0.0
C781 C 0.34385 0.21028 0.47391 0.0
C782 C 0.34471 0.21141 0.42515 0.0
C783 C 0.34382 0.19288 0.42435 0.0
C784 C 0.34274 0.18258 0.44849 0.0
C785 C 0.34193 0.19137 0.47316 0.0
C786 C 0.34292 0.16316 0.4484 0.0
C787 C 0.34781 0.1564 0.47226 0.0
C788 C 0.34727 0.13814 0.47325 0.0
C789 C 0.34296 0.12688 0.44995 0.0
C790 C 0.33859 0.13311 0.42587 0.0
C791 C 0.33827 0.15108 0.425 0.0
H792 H 0.91055 0.2366 0.46084 0.0
H793 H 0.85887 0.19497 0.41786 0.0
H794 H 0.86729 0.18557 0.50195 0.0
H795 H 0.83553 0.17095 0.50367 0.0
H796 H 0.78769 0.1224 0.46349 0.0
H797 H 0.8382 0.16222 0.41807 0.0
C798 C 0.89653 0.22295 0.46059 0.0
C799 C 0.88966 0.21208 0.48419 0.0
C800 C 0.88574 0.21668 0.43666 0.0
C801 C 0.86742 0.1991 0.4363 0.0
C802 C 0.86004 0.18754 0.45998 0.0
C803 C 0.87189 0.19408 0.48361 0.0
C804 C 0.83984 0.16934 0.46067 0.0
C805 C 0.82945 0.16285 0.48521 0.0
C806 C 0.8108 0.14586 0.48635 0.0
C807 C 0.80192 0.13577 0.46263 0.0
C808 C 0.81152 0.14179 0.438 0.0
C809 C 0.83065 0.15827 0.43709 0.0
H810 H 1.00978 0.45015 0.21 0.0
H811 H 0.01813 0.5005 0.25513 0.0
H812 H 1.00743 0.497 0.16891 0.0
H813 H 0.0223 0.52822 0.16965 0.0
H814 H 0.01459 0.57244 0.20886 0.0
H815 H 1.00868 0.52314 0.25472 0.0
C816 C 1.01009 0.46426 0.21063 0.0
C817 C 1.00891 0.47298 0.18675 0.0
C818 C 1.01293 0.47386 0.23524 0.0
C819 C 0.01498 0.49294 0.23602 0.0
C820 C 1.01311 0.50199 0.21211 0.0
C821 C 1.00969 0.49136 0.18765 0.0
C822 C 0.01465 0.52222 0.21208 0.0
C823 C 0.01868 0.53319 0.18783 0.0
C824 C 0.01776 0.55073 0.1864 0.0
C825 C 0.01443 0.55841 0.20973 0.0
C826 C 1.01169 0.54884 0.23437 0.0
C827 C 1.01156 0.53064 0.23561 0.0
H828 H 0.44978 0.44894 0.21909 0.0
H829 H 0.49961 0.49457 0.2604 0.0
H830 H 0.49252 0.4983 0.1743 0.0
H831 H 0.52481 0.51566 0.17515 0.0
H832 H 0.56693 0.56891 0.21441 0.0
H833 H 0.51614 0.52752 0.25767 0.0
C834 C 0.46352 0.46286 0.21837 0.0
C835 C 0.47048 0.47226 0.19375 0.0
C836 C 0.47389 0.47084 0.24222 0.0
C837 C 0.49147 0.489 0.24178 0.0
C838 C 0.49866 0.49939 0.21729 0.0
C839 C 0.48769 0.49083 0.19336 0.0
C840 C 0.51771 0.51873 0.21655 0.0
C841 C 0.5292 0.5249 0.19288 0.0
C842 C 0.54691 0.54298 0.19205 0.0
C843 C 0.55338 0.5548 0.215 0.0
C844 C 0.5425 0.54915 0.23859 0.0
C845 C 0.52465 0.53125 0.23944 0.0
H846 H 0.45922 0.01227 0.22123 0.0
H847 H 0.50363 1.0043 0.26098 0.0
H848 H 0.50647 0.01566 0.17511 0.0
H849 H 0.52323 1.00076 0.17325 0.0
H850 H 0.57723 0.01017 0.20802 0.0
H851 H 0.53579 0.01555 0.25802 0.0
C852 C 0.47301 0.01208 0.22027 0.0
C853 C 0.48182 0.01383 0.19547 0.0
C854 C 0.48108 0.00925 0.24387 0.0
C855 C 0.49815 1.00741 0.24263 0.0
C856 C 0.50784 0.00959 0.21779 0.0
C857 C 0.49941 0.01308 0.19438 0.0
C858 C 0.52669 1.00855 0.21592 0.0
C859 C 0.53259 1.00457 0.19086 0.0
C860 C 0.55108 1.006 0.18788 0.0
C861 C 0.56318 0.00971 0.2103 0.0
C862 C 0.55759 0.0127 0.23559 0.0
C863 C 0.53944 0.01233 0.23848 0.0
H864 H 0.57524 0.019 0.7846 0.0
H865 H 0.51955 1.00368 0.74922 0.0
H866 H 0.5305 0.01748 0.83449 0.0
H867 H 0.49992 1.0044 0.83916 0.0
H868 H 0.44788 0.99943 0.80351 0.0
H869 H 0.49599 0.01037 0.75279 0.0
C870 C 0.56041 0.01668 0.78682 0.0
C871 C 0.55365 0.01765 0.81224 0.0
C872 C 0.54822 0.01173 0.76428 0.0
C873 C 0.52891 1.00845 0.76687 0.0
C874 C 0.5219 0.01077 0.79218 0.0
C875 C 0.53484 0.01566 0.81471 0.0
C876 C 0.50114 1.00746 0.79533 0.0
C877 C 0.49237 1.00466 0.82105 0.0
C878 C 0.47331 1.00197 0.82401 0.0
C879 C 0.4624 1.001 0.80118 0.0
C880 C 0.4704 1.00363 0.77556 0.0
C881 C 0.48986 1.00736 0.77271 0.0
H882 H 0.01407 0.56844 0.77974 0.0
H883 H 1.01165 0.51899 0.73915 0.0
H884 H 1.00755 0.5195 0.82617 0.0
H885 H 0.01895 0.49976 0.82639 0.0
H886 H 1.00655 0.44516 0.79056 0.0
H887 H 0.99918 0.487 0.74309 0.0
C888 C 1.01324 0.55411 0.78075 0.0
C889 C 1.01197 0.5454 0.80569 0.0
C890 C 1.01283 0.54453 0.75695 0.0
C891 C 1.0113 0.52575 0.7579 0.0
C892 C 1.00981 0.51628 0.7829 0.0
C893 C 1.0095 0.52626 0.80667 0.0
C894 C 1.00902 0.49645 0.7845 0.0
C895 C 0.0139 0.4903 0.80892 0.0
C896 C 1.01276 0.47182 0.81118 0.0
C897 C 1.00754 0.45955 0.78878 0.0
C898 C 1.00295 0.46507 0.76427 0.0
C899 C 1.0035 0.4834 0.76204 0.0
H900 H 0.57814 0.56742 0.79308 0.0
H901 H 0.5265 0.52734 0.74858 0.0
H902 H 0.53323 0.51669 0.83276 0.0
H903 H 0.5016 0.5031 0.83364 0.0
H904 H 0.45378 0.45499 0.79289 0.0
H905 H 0.50497 0.49438 0.74817 0.0
C906 C 0.56393 0.55398 0.79239 0.0
C907 C 0.55637 0.54303 0.81579 0.0
C908 C 0.55349 0.54822 0.76817 0.0
C909 C 0.5348 0.53106 0.76722 0.0
C910 C 0.5268 0.51931 0.79063 0.0
C911 C 0.53832 0.52533 0.8146 0.0
C912 C 0.50632 0.50146 0.79077 0.0
C913 C 0.49563 0.49507 0.8151 0.0
C914 C 0.47686 0.47825 0.816 0.0
C915 C 0.4681 0.46826 0.79219 0.0
C916 C 0.47793 0.47418 0.7677 0.0
C917 C 0.49722 0.49049 0.76705 0.0
H918 H 0.67167 0.78396 0.54569 0.0
H919 H 0.68269 0.83565 0.58988 0.0
H920 H 0.66966 0.83093 0.50434 0.0
H921 H 0.68703 0.86238 0.50426 0.0
H922 H 0.68067 0.90795 0.54201 0.0
H923 H 0.67287 0.85836 0.58901 0.0
C924 C 0.6723 0.79821 0.54623 0.0
C925 C 0.67081 0.80673 0.52232 0.0
C926 C 0.67605 0.80829 0.57065 0.0
C927 C 0.67877 0.82764 0.57107 0.0
C928 C 0.67661 0.83645 0.54712 0.0
C929 C 0.67215 0.82535 0.523 0.0
C930 C 0.67901 0.85699 0.54662 0.0
C931 C 0.68358 0.8678 0.52219 0.0
C932 C 0.6833 0.88564 0.52025 0.0
C933 C 0.68009 0.89374 0.54327 0.0
C934 C 0.67688 0.88427 0.56809 0.0
C935 C 0.67613 0.86581 0.56982 0.0
H936 H 0.11577 0.78373 0.5513 0.0
H937 H 0.16614 0.8274 0.59389 0.0
H938 H 0.15869 0.83396 0.50842 0.0
H939 H 0.19027 0.8513 0.50801 0.0
H940 H 0.23639 0.90061 0.54938 0.0
H941 H 0.18629 0.85933 0.59373 0.0
C942 C 0.12959 0.79759 0.55111 0.0
C943 C 0.13664 0.80761 0.52693 0.0
C944 C 0.14005 0.80477 0.57509 0.0
C945 C 0.15794 0.82268 0.57522 0.0
C946 C 0.1653 0.83377 0.55119 0.0
C947 C 0.154 0.82606 0.52718 0.0
C948 C 0.18499 0.85265 0.55082 0.0
C949 C 0.19567 0.85952 0.52651 0.0
C950 C 0.2141 0.87681 0.52593 0.0
C951 C 0.22219 0.88716 0.54972 0.0
C952 C 0.21255 0.88057 0.57411 0.0
C953 C 0.19374 0.86369 0.57469 0.0
H954 H 0.11838 0.34152 0.55326 0.0
H955 H 0.16936 0.34661 0.59344 0.0
H956 H 0.16148 0.33645 0.50732 0.0
H957 H 0.19295 0.35136 0.50596 0.0
H958 H 0.23858 0.34371 0.54173 0.0
H959 H 0.18967 0.33446 0.58989 0.0
C960 C 0.13249 0.34201 0.55226 0.0
C961 C 0.13935 0.3398 0.52748 0.0
C962 C 0.14307 0.34419 0.57595 0.0
C963 C 0.16115 0.34431 0.57494 0.0
C964 C 0.16856 0.34197 0.55008 0.0
C965 C 0.15696 0.33909 0.52658 0.0
C966 C 0.18832 0.34286 0.54829 0.0
C967 C 0.19856 0.34755 0.52356 0.0
C968 C 0.21647 0.3476 0.52107 0.0
C969 C 0.22483 0.34391 0.54363 0.0
C970 C 0.21537 0.33943 0.56838 0.0
C971 C 0.19709 0.33876 0.57079 0.0
H972 H 0.99891 0.38634 0.07038 0.0
H973 H 0.03223 0.48999 0.14314 0.0
H974 H 0.04991 0.44123 0.04743 0.0
H975 H 0.98599 0.43412 0.17228 0.0
H976 H 0.03646 0.47285 0.1048 0.0
H977 H 0.99242 0.40389 0.10583 0.0
C978 C 1.00886 0.40204 0.07288 0.0
C979 C 0.02502 0.41227 0.05581 0.0
C980 C 0.02525 0.46436 0.11943 0.0
C981 C 0.01743 0.43255 0.09623 0.0
C982 C 0.02266 0.47417 0.14112 0.0
C983 C 1.00881 0.46343 0.16096 0.0
C984 C 0.01386 0.44367 0.11755 0.0
C985 C 0.99698 0.44292 0.15755 0.0
C986 C 1.00506 0.41208 0.09307 0.0
C987 C 0.0373 0.43266 0.06007 0.0
N988 N 0.99988 0.43369 0.1364 0.0
N989 N 0.03321 0.44212 0.07976 0.0
H990 H 0.64449 0.62164 0.09604 0.0
H991 H 0.53439 0.54656 0.14169 0.0
H992 H 0.59531 0.60071 0.04104 0.0
H993 H 0.58638 0.55762 0.18656 0.0
H994 H 0.55549 0.56641 0.10454 0.0
H995 H 0.62234 0.60014 0.13087 0.0
C996 C 0.62898 0.61236 0.09136 0.0
C997 C 0.62174 0.6122 0.06553 0.0
C998 C 0.56222 0.56426 0.12241 0.0
C999 C 0.59626 0.58773 0.10511 0.0
C1000 C 0.55019 0.55275 0.14343 0.0
C1001 C 0.55869 0.55062 0.16727 0.0
C1002 C 0.58282 0.57375 0.12549 0.0
C1003 C 0.57926 0.55912 0.16864 0.0
C1004 C 0.61633 0.60012 0.11118 0.0
C1005 C 0.60143 0.60071 0.06065 0.0
N1006 N 0.5906 0.57049 0.14823 0.0
N1007 N 0.58936 0.58868 0.0802 0.0
H1008 H 0.41617 0.99167 0.04504 0.0
H1009 H 0.46527 0.03731 0.18768 0.0
H1010 H 0.39732 0.02344 0.09649 0.0
H1011 H 0.47469 0.99355 0.14778 0.0
H1012 H 0.443 0.03497 0.15147 0.0
H1013 H 0.4393 0.99348 0.08036 0.0
C1014 C 0.41693 0.99898 0.06385 0.0
C1015 C 0.40557 1.00818 0.06764 0.0
C1016 C 0.45003 0.02598 0.15045 0.0
C1017 C 0.43157 0.0101 0.10796 0.0
C1018 C 0.46282 0.02736 0.17108 0.0
C1019 C 0.47165 0.01541 0.17094 0.0
C1020 C 0.44614 0.01269 0.12921 0.0
C1021 C 0.46822 1.00306 0.14866 0.0
C1022 C 0.43008 1.00002 0.08393 0.0
C1023 C 0.4065 0.01691 0.09251 0.0
N1024 N 0.45561 1.00191 0.12872 0.0
N1025 N 0.41946 0.01787 0.11164 0.0
H1026 H 0.44461 0.04813 0.96263 0.0
H1027 H 0.43691 0.97589 0.84343 0.0
H1028 H 0.3919 0.9931 0.94425 0.0
H1029 H 0.49051 0.02909 0.86439 0.0
H1030 H 0.42086 0.98076 0.88229 0.0
H1031 H 0.46193 0.0409 0.92783 0.0
C1032 C 0.43659 0.03458 0.95119 0.0
C1033 C 0.41666 0.02125 0.95643 0.0
C1034 C 0.43621 0.99124 0.87867 0.0
C1035 C 0.43663 0.01279 0.91657 0.0
C1036 C 0.4454 0.98838 0.8566 0.0
C1037 C 0.46505 1.00214 0.85068 0.0
C1038 C 0.44665 1.0081 0.89487 0.0
C1039 C 0.47539 0.01807 0.86836 0.0
C1040 C 0.44658 0.03041 0.9314 0.0
C1041 C 0.4072 1.00388 0.94094 0.0
N1042 N 0.466 0.02076 0.88946 0.0
N1043 N 0.41725 1.00018 0.92176 0.0
H1044 H 0.02284 0.39049 0.91568 0.0
H1045 H 0.99539 0.47014 0.85936 0.0
H1046 H 0.99498 0.41474 0.96521 0.0
H1047 H 0.03582 0.45527 0.82138 0.0
H1048 H 0.99406 0.45002 0.8983 0.0
H1049 H 0.02469 0.41237 0.8792 0.0
C1050 C 0.01718 0.40055 0.91878 0.0
C1051 C 1.00949 0.40152 0.94359 0.0
C1052 C 1.00342 0.45141 0.88157 0.0
C1053 C 1.01141 0.4265 0.90214 0.0
C1054 C 1.00437 0.46306 0.85955 0.0
C1055 C 0.01559 0.46417 0.83711 0.0
C1056 C 0.01363 0.44075 0.88085 0.0
C1057 C 0.02679 0.45457 0.83818 0.0
C1058 C 0.01822 0.41303 0.89804 0.0
C1059 C 1.0015 0.41407 0.94643 0.0
N1060 N 0.02532 0.44307 0.8595 0.0
N1061 N 1.0029 0.42635 0.92599 0.0
H1062 H 0.62789 0.62509 0.93914 0.0
H1063 H 0.56647 0.52452 0.85535 0.0
H1064 H 0.62455 0.57005 0.96299 0.0
H1065 H 0.57065 0.58035 0.83464 0.0
H1066 H 0.58684 0.54011 0.89561 0.0
H1067 H 0.60668 0.60836 0.90081 0.0
C1068 C 0.62279 0.60949 0.93629 0.0
C1069 C 0.6281 0.59902 0.95443 0.0
C1070 C 0.58322 0.54889 0.88224 0.0
C1071 C 0.60351 0.5796 0.91035 0.0
C1072 C 0.57152 0.53997 0.85942 0.0
C1073 C 0.56709 0.55123 0.84151 0.0
C1074 C 0.59038 0.56913 0.88713 0.0
C1075 C 0.57402 0.57121 0.84765 0.0
C1076 C 0.61058 0.59989 0.91436 0.0
C1077 C 0.62093 0.57878 0.94954 0.0
N1078 N 0.58534 0.5795 0.8698 0.0
N1079 N 0.60897 0.56972 0.928 0.0
H1080 H 0.99803 0.59118 0.95924 0.0
H1081 H 0.03785 0.58424 0.81526 0.0
H1082 H 0.02991 0.64097 0.90688 0.0
H1083 H 0.98978 0.5331 0.8521 0.0
H1084 H 0.03772 0.60459 0.85201 0.0
H1085 H 0.99655 0.56896 0.92302 0.0
C1086 C 1.00472 0.59737 0.94009 0.0
C1087 C 0.01488 0.61789 0.93621 0.0
C1088 C 0.02726 0.58891 0.85224 0.0
C1089 C 1.01301 0.59281 0.89493 0.0
C1090 C 0.02728 0.57724 0.8312 0.0
C1091 C 1.01353 0.55696 0.83027 0.0
C1092 C 0.01366 0.58028 0.87302 0.0
C1093 C 1.00061 0.54867 0.85196 0.0
C1094 C 1.00384 0.58474 0.9195 0.0
C1095 C 0.02272 0.62526 0.91092 0.0
N1096 N 1.00094 0.5604 0.87249 0.0
N1097 N 0.02184 0.61275 0.89132 0.0
H1098 H 0.44445 0.40762 0.95907 0.0
H1099 H 0.4382 0.46468 0.82891 0.0
H1100 H 0.3907 0.40583 0.93261 0.0
H1101 H 0.49256 0.4712 0.86126 0.0
H1102 H 0.42069 0.44436 0.86766 0.0
H1103 H 0.46219 0.43126 0.92368 0.0
C1104 C 0.43629 0.41207 0.94575 0.0
C1105 C 0.41593 0.40456 0.94889 0.0
C1106 C 0.43648 0.45044 0.86649 0.0
C1107 C 0.43641 0.43195 0.90818 0.0
C1108 C 0.44649 0.46209 0.84443 0.0
C1109 C 0.46686 0.46956 0.8418 0.0
C1110 C 0.44686 0.44604 0.886 0.0
C1111 C 0.47689 0.46585 0.86255 0.0
C1112 C 0.44652 0.42573 0.92559 0.0
C1113 C 0.40633 0.4111 0.93097 0.0
N1114 N 0.46675 0.45416 0.88359 0.0
N1115 N 0.41664 0.42437 0.91137 0.0
H1116 H 0.63716 1.00538 0.91145 0.0
H1117 H 0.56167 0.04005 0.85882 0.0
H1118 H 0.614 0.03233 0.96466 0.0
H1119 H 0.57324 0.99732 0.81988 0.0
H1120 H 0.58382 0.04213 0.89595 0.0
H1121 H 0.61842 1.00889 0.87439 0.0
C1122 C 0.62801 0.01199 0.91522 0.0
C1123 C 0.62628 0.01775 0.94111 0.0
C1124 C 0.58151 0.03244 0.87909 0.0
C1125 C 0.60493 0.02199 0.89903 0.0
C1126 C 0.56881 0.03114 0.85807 0.0
C1127 C 0.5659 0.0188 0.83595 0.0
C1128 C 0.59136 0.02144 0.87768 0.0
C1129 C 0.57547 1.00752 0.83604 0.0
C1130 C 0.61739 0.01408 0.89413 0.0
C1131 C 0.61509 0.02715 0.94494 0.0
N1132 N 0.58782 0.00925 0.85637 0.0
N1133 N 0.60445 0.02867 0.92413 0.0
H1134 H 0.5795 0.9661 0.04072 0.0
H1135 H 0.58539 0.03314 0.16581 0.0
H1136 H 0.63194 0.0193 0.06588 0.0
H1137 H 0.53471 0.9761 0.15023 0.0
H1138 H 0.60105 0.0295 0.12585 0.0
H1139 H 0.56171 0.97017 0.07816 0.0
C1140 C 0.58733 0.97856 0.05416 0.0
C1141 C 0.60733 0.99235 0.05011 0.0
C1142 C 0.58646 0.01777 0.13096 0.0
C1143 C 0.58691 0.99719 0.09274 0.0
C1144 C 0.57749 0.0199 0.15369 0.0
C1145 C 0.55884 1.00481 0.16136 0.0
C1146 C 0.57678 1.00037 0.11567 0.0
C1147 C 0.54912 0.98805 0.1449 0.0
C1148 C 0.57711 0.98089 0.07546 0.0
C1149 C 0.6166 1.00823 0.06815 0.0
N1150 N 0.5583 0.98617 0.12287 0.0
N1151 N 0.60631 0.01021 0.08856 0.0
H1152 H 1.00655 0.62208 0.06217 0.0
H1153 H 0.04599 0.56076 0.14745 0.0
H1154 H 0.05848 0.61895 0.04086 0.0
H1155 H 0.99429 0.56469 0.16692 0.0
H1156 H 0.05038 0.5809 0.10726 0.0
H1157 H 1.00177 0.60052 0.10026 0.0
C1158 C 0.01702 0.61696 0.06552 0.0
C1159 C 0.03298 0.62244 0.04821 0.0
C1160 C 0.03804 0.57727 0.1203 0.0
C1161 C 0.02748 0.5975 0.09192 0.0
C1162 C 0.03546 0.56567 0.14309 0.0
C1163 C 0.01986 0.56122 0.16063 0.0
C1164 C 0.02487 0.58436 0.11506 0.0
C1165 C 1.0067 0.56805 0.15415 0.0
C1166 C 0.01424 0.60455 0.08729 0.0
C1167 C 0.046 0.61521 0.05367 0.0
N1168 N 1.00955 0.57932 0.13202 0.0
N1169 N 0.04296 0.60311 0.07503 0.0
H1170 H 0.41005 0.4331 0.0384 0.0
H1171 H 0.45546 0.43328 0.18222 0.0
H1172 H 0.39133 0.38146 0.08784 0.0
H1173 H 0.46113 0.48702 0.14843 0.0
H1174 H 0.43413 0.41473 0.14512 0.0
H1175 H 0.43033 0.45387 0.07613 0.0
C1176 C 0.41021 0.42622 0.05727 0.0
C1177 C 0.39982 0.40558 0.05989 0.0
C1178 C 0.44008 0.43059 0.14559 0.0
C1179 C 0.42247 0.42898 0.10282 0.0
C1180 C 0.45224 0.44123 0.16691 0.0
C1181 C 0.45975 0.46173 0.16886 0.0
C1182 C 0.43572 0.44044 0.12536 0.0
C1183 C 0.4556 0.47124 0.1478 0.0
C1184 C 0.42171 0.43801 0.07871 0.0
C1185 C 0.39987 0.39728 0.08479 0.0
N1186 N 0.44381 0.46049 0.12684 0.0
N1187 N 0.41123 0.40898 0.1052 0.0
H1188 H 0.66044 0.71935 0.407 0.0
H1189 H 0.69318 0.82341 0.4779 0.0
H1190 H 0.71041 0.77456 0.38252 0.0
H1191 H 0.64782 0.76764 0.50869 0.0
H1192 H 0.69696 0.80605 0.43958 0.0
H1193 H 0.65387 0.73694 0.44235 0.0
C1194 C 0.67014 0.73513 0.40914 0.0
C1195 C 0.68604 0.74544 0.3917 0.0
C1196 C 0.68603 0.79762 0.45457 0.0
C1197 C 0.67836 0.76573 0.43193 0.0
C1198 C 0.68369 0.80756 0.47626 0.0
C1199 C 0.67024 0.79693 0.49657 0.0
C1200 C 0.67483 0.7769 0.45317 0.0
C1201 C 0.65851 0.77636 0.4936 0.0
C1202 C 0.66629 0.74518 0.42926 0.0
C1203 C 0.69801 0.76592 0.39547 0.0
N1204 N 0.66119 0.767 0.47244 0.0
N1205 N 0.69389 0.77538 0.41509 0.0
H1206 H 0.26136 0.93374 0.37188 0.0
H1207 H 0.25284 0.88884 0.51853 0.0
H1208 H 0.30905 0.95483 0.42939 0.0
H1209 H 0.20158 0.88306 0.47676 0.0
H1210 H 0.27334 0.90859 0.48165 0.0
H1211 H 0.23872 0.91175 0.40653 0.0
C1212 C 0.26699 0.93368 0.39182 0.0
C1213 C 0.28714 0.94536 0.39769 0.0
C1214 C 0.25759 0.9028 0.48027 0.0
C1215 C 0.2616 0.92068 0.43707 0.0
C1216 C 0.24586 0.89147 0.5013 0.0
C1217 C 0.22553 0.88461 0.50089 0.0
C1218 C 0.24897 0.90707 0.45829 0.0
C1219 C 0.21721 0.88813 0.47784 0.0
C1220 C 0.25414 0.9212 0.41149 0.0
C1221 C 0.29373 0.94537 0.42388 0.0
N1222 N 0.22902 0.89929 0.45743 0.0
N1223 N 0.28105 0.93303 0.44254 0.0
H1224 H 0.05707 0.35021 0.42274 0.0
H1225 H 0.1298 0.31474 0.48366 0.0
H1226 H 0.07666 0.31708 0.37534 0.0
H1227 H 0.1227 0.36246 0.51527 0.0
H1228 H 0.10787 0.31171 0.44585 0.0
H1229 H 0.07694 0.34951 0.46051 0.0
C1230 C 0.06568 0.34284 0.42037 0.0
C1231 C 0.06606 0.33447 0.39576 0.0
C1232 C 0.11117 0.3228 0.46115 0.0
C1233 C 0.08864 0.33338 0.43874 0.0
C1234 C 0.12379 0.32465 0.48256 0.0
C1235 C 0.12786 0.33868 0.50288 0.0
C1236 C 0.10252 0.33494 0.46034 0.0
C1237 C 0.11961 0.3511 0.50047 0.0
C1238 C 0.07696 0.34237 0.44188 0.0
C1239 C 0.07659 0.32423 0.39392 0.0
N1240 N 0.10725 0.34881 0.47982 0.0
N1241 N 0.0878 0.32423 0.41506 0.0
H1242 H 0.05631 0.32296 0.2696 0.0
H1243 H 0.15903 0.35853 0.19509 0.0
H1244 H 0.11081 0.3748 0.29246 0.0
H1245 H 0.10409 0.30866 0.16936 0.0
H1246 H 0.14233 0.3624 0.23408 0.0
H1247 H 0.07397 0.31598 0.23487 0.0
C1248 C 0.07194 0.33296 0.26727 0.0
C1249 C 0.082 0.34958 0.284 0.0
C1250 C 0.13397 0.35045 0.22009 0.0
C1251 C 0.10242 0.34148 0.24438 0.0
C1252 C 0.14357 0.34808 0.19802 0.0
C1253 C 0.13291 0.33333 0.17887 0.0
C1254 C 0.11355 0.33797 0.22302 0.0
C1255 C 0.11282 0.32036 0.18351 0.0
C1256 C 0.08206 0.32889 0.2475 0.0
C1257 C 0.10234 0.36187 0.28003 0.0
N1258 N 0.10376 0.3231 0.20492 0.0
N1259 N 0.11183 0.35757 0.26069 0.0
H1260 H 0.65265 0.74442 0.29962 0.0
H1261 H 0.69587 0.7824 0.15396 0.0
H1262 H 0.68308 0.72167 0.25252 0.0
H1263 H 0.64944 0.79157 0.18463 0.0
H1264 H 0.69333 0.76288 0.19313 0.0
H1265 H 0.65235 0.7638 0.2604 0.0
C1266 C 0.6592 0.74353 0.28097 0.0
C1267 C 0.66867 0.73223 0.27934 0.0
C1268 C 0.68368 0.76915 0.19149 0.0
C1269 C 0.66811 0.75378 0.23488 0.0
C1270 C 0.68506 0.78027 0.16902 0.0
C1271 C 0.67247 0.78819 0.16566 0.0
C1272 C 0.66991 0.7662 0.21136 0.0
C1273 C 0.6593 0.78557 0.18637 0.0
C1274 C 0.65899 0.75449 0.25871 0.0
C1275 C 0.67639 0.73091 0.25476 0.0
N1276 N 0.6583 0.77468 0.20846 0.0
N1277 N 0.67615 0.74174 0.23359 0.0
H1278 H 0.29562 0.90556 0.29852 0.0
H1279 H 0.23492 0.91414 0.17378 0.0
H1280 H 0.29729 0.95958 0.27326 0.0
H1281 H 0.23638 0.86058 0.19166 0.0
H1282 H 0.25636 0.93012 0.21225 0.0
H1283 H 0.27346 0.88829 0.26079 0.0
C1284 C 0.29153 0.91387 0.28494 0.0
C1285 C 0.29838 0.93412 0.28919 0.0
C1286 C 0.25202 0.91486 0.20794 0.0
C1287 C 0.27277 0.91429 0.24619 0.0
C1288 C 0.23972 0.90571 0.186 0.0
C1289 C 0.23407 0.88609 0.17943 0.0
C1290 C 0.2588 0.90435 0.22358 0.0
C1291 C 0.24043 0.87574 0.19613 0.0
C1292 C 0.27878 0.90393 0.26348 0.0
C1293 C 0.29245 0.944 0.27092 0.0
N1294 N 0.25262 0.88506 0.21741 0.0
N1295 N 0.27996 0.93398 0.25037 0.0
H1296 H 0.67176 0.92436 0.2901 0.0
H1297 H 0.71401 0.91767 0.14717 0.0
H1298 H 0.70286 0.97385 0.23702 0.0
H1299 H 0.66874 0.86604 0.18685 0.0
H1300 H 0.71373 0.93817 0.1839 0.0
H1301 H 0.67277 0.90235 0.25547 0.0
C1302 C 0.6788 0.93053 0.27111 0.0
C1303 C 0.688 0.95097 0.26665 0.0
C1304 C 0.704 0.92234 0.1848 0.0
C1305 C 0.68902 0.92608 0.22711 0.0
C1306 C 0.70424 0.9106 0.1639 0.0
C1307 C 0.69119 0.89014 0.16378 0.0
C1308 C 0.69077 0.91359 0.20601 0.0
C1309 C 0.67905 0.88175 0.18617 0.0
C1310 C 0.67939 0.91802 0.25143 0.0
C1311 C 0.69636 0.95826 0.24155 0.0
N1312 N 0.67901 0.89355 0.20633 0.0
N1313 N 0.69687 0.94587 0.22281 0.0
H1314 H 0.05518 0.7377 0.26864 0.0
H1315 H 0.16043 0.80344 0.19982 0.0
H1316 H 0.10869 0.73954 0.29633 0.0
H1317 H 0.106 0.79652 0.16711 0.0
H1318 H 0.14226 0.78303 0.23826 0.0
H1319 H 0.07391 0.76124 0.23333 0.0
C1320 C 0.07082 0.74293 0.26726 0.0
C1321 C 0.08028 0.73648 0.28553 0.0
C1322 C 0.13432 0.78614 0.22281 0.0
C1323 C 0.10193 0.76374 0.24523 0.0
C1324 C 0.14473 0.79798 0.20103 0.0
C1325 C 0.13469 0.80158 0.18018 0.0
C1326 C 0.11374 0.77788 0.22376 0.0
C1327 C 0.11428 0.79392 0.18262 0.0
C1328 C 0.08154 0.75647 0.24713 0.0
C1329 C 0.10067 0.74395 0.2827 0.0
N1330 N 0.10447 0.78233 0.20387 0.0
N1331 N 0.11077 0.75717 0.26301 0.0
H1332 H 0.30458 0.34091 0.24858 0.0
H1333 H 0.22997 0.37422 0.18802 0.0
H1334 H 0.28255 0.37143 0.29697 0.0
H1335 H 0.24143 0.32993 0.15396 0.0
H1336 H 0.25184 0.37755 0.22617 0.0
H1337 H 0.28576 0.34263 0.21028 0.0
C1338 C 0.29567 0.34793 0.25104 0.0
C1339 C 0.2943 0.35526 0.27601 0.0
C1340 C 0.24956 0.36722 0.21017 0.0
C1341 C 0.27282 0.35744 0.23244 0.0
C1342 C 0.23702 0.36522 0.18856 0.0
C1343 C 0.23416 0.35206 0.1675 0.0
C1344 C 0.25931 0.35608 0.21043 0.0
C1345 C 0.24361 0.34071 0.16926 0.0
C1346 C 0.28498 0.34899 0.22922 0.0
C1347 C 0.28337 0.36509 0.27804 0.0
N1348 N 0.25581 0.3431 0.19012 0.0
N1349 N 0.27268 0.3656 0.25657 0.0
H1350 H 0.30283 0.36129 0.40413 0.0
H1351 H 0.19923 0.32735 0.47485 0.0
H1352 H 0.24771 0.31228 0.37655 0.0
H1353 H 0.25514 0.3712 0.50783 0.0
H1354 H 0.21623 0.32488 0.43517 0.0
H1355 H 0.28523 0.36743 0.43969 0.0
C1356 C 0.28705 0.35173 0.40558 0.0
C1357 C 0.2768 0.33616 0.3873 0.0
C1358 C 0.22476 0.33524 0.45093 0.0
C1359 C 0.25647 0.34334 0.42789 0.0
C1360 C 0.21502 0.33683 0.47339 0.0
C1361 C 0.22583 0.34942 0.49466 0.0
C1362 C 0.24542 0.34635 0.44977 0.0
C1363 C 0.24631 0.36119 0.49193 0.0
C1364 C 0.27699 0.35533 0.42586 0.0
C1365 C 0.2563 0.32439 0.39022 0.0
N1366 N 0.25546 0.35924 0.47004 0.0
N1367 N 0.24684 0.32823 0.41008 0.0
H1368 H 0.72895 0.95289 0.37318 0.0
H1369 H 0.66023 0.89961 0.4995 0.0
H1370 H 0.67622 0.95527 0.39192 0.0
H1371 H 0.71195 0.89522 0.48202 0.0
H1372 H 0.6657 0.91929 0.4591 0.0
H1373 H 0.72315 0.93157 0.41223 0.0
C1374 C 0.71621 0.94904 0.38552 0.0
C1375 C 0.70308 0.95598 0.37919 0.0
C1376 C 0.67587 0.91401 0.46393 0.0
C1377 C 0.69632 0.93143 0.42382 0.0
C1378 C 0.67274 0.90277 0.48703 0.0
C1379 C 0.68577 0.89594 0.49423 0.0
C1380 C 0.6922 0.91858 0.44778 0.0
C1381 C 0.70155 0.90019 0.47713 0.0
C1382 C 0.71288 0.93679 0.40776 0.0
C1383 C 0.68679 0.95036 0.39591 0.0
N1384 N 0.70444 0.9114 0.45475 0.0
N1385 N 0.6839 0.93846 0.41738 0.0
H1386 H 0.05434 0.71527 0.4245 0.0
H1387 H 0.12598 0.82301 0.48356 0.0
H1388 H 0.0752 0.7665 0.37367 0.0
H1389 H 0.12294 0.7693 0.51291 0.0
H1390 H 0.10447 0.80408 0.44544 0.0
H1391 H 0.07481 0.73644 0.46127 0.0
C1392 C 0.06337 0.73102 0.42114 0.0
C1393 C 0.06392 0.73913 0.39587 0.0
C1394 C 0.10863 0.79657 0.4603 0.0
C1395 C 0.08708 0.76349 0.43775 0.0
C1396 C 0.12098 0.80736 0.48187 0.0
C1397 C 0.12594 0.79765 0.50174 0.0
C1398 C 0.10112 0.77602 0.45897 0.0
C1399 C 0.11906 0.77733 0.49853 0.0
C1400 C 0.07498 0.74311 0.44207 0.0
C1401 C 0.07499 0.75972 0.39278 0.0
N1402 N 0.10686 0.76721 0.47787 0.0
N1403 N 0.08644 0.77127 0.41343 0.0
H1404 H 0.3877 0.10852 0.70936 0.0
H1405 H 0.32168 0.10247 0.83487 0.0
H1406 H 0.33378 0.0563 0.73189 0.0
H1407 H 0.37541 0.15541 0.81446 0.0
H1408 H 0.32555 0.08596 0.79581 0.0
H1409 H 0.38351 0.12633 0.74684 0.0
C1410 C 0.37504 0.10074 0.72223 0.0
C1411 C 0.36108 0.08081 0.7174 0.0
C1412 C 0.33649 0.10121 0.7997 0.0
C1413 C 0.35616 0.10123 0.76021 0.0
C1414 C 0.33427 0.11064 0.82199 0.0
C1415 C 0.34834 0.13026 0.82797 0.0
C1416 C 0.35296 0.11142 0.78317 0.0
C1417 C 0.36422 0.14027 0.81047 0.0
C1418 C 0.37264 0.11097 0.74356 0.0
C1419 C 0.34495 0.0716 0.73474 0.0
N1420 N 0.36621 0.13067 0.78891 0.0
N1421 N 0.34295 0.08188 0.75528 0.0
H1422 H 0.92514 0.26147 0.70715 0.0
H1423 H 0.91961 0.21904 0.85525 0.0
H1424 H 0.9736 0.28422 0.76355 0.0
H1425 H 0.86746 0.20923 0.81184 0.0
H1426 H 0.93968 0.23794 0.81735 0.0
H1427 H 0.90359 0.23853 0.74186 0.0
C1428 C 0.93118 0.26155 0.72685 0.0
C1429 C 0.95124 0.27405 0.73238 0.0
C1430 C 0.92383 0.23144 0.81589 0.0
C1431 C 0.92693 0.24827 0.77188 0.0
C1432 C 0.91237 0.22053 0.83744 0.0
C1433 C 0.89189 0.21279 0.83677 0.0
C1434 C 0.91478 0.23457 0.79337 0.0
C1435 C 0.88322 0.21497 0.81311 0.0
C1436 C 0.91896 0.2485 0.74656 0.0
C1437 C 0.95836 0.27417 0.7583 0.0
N1438 N 0.89475 0.22588 0.79237 0.0
N1439 N 0.94627 0.26132 0.77703 0.0
H1440 H 0.74901 0.65902 0.70804 0.0
H1441 H 0.79893 0.7041 0.85052 0.0
H1442 H 0.73135 0.69166 0.75975 0.0
H1443 H 0.80783 0.66024 0.80995 0.0
H1444 H 0.77675 0.70219 0.81445 0.0
H1445 H 0.7721 0.66039 0.74313 0.0
C1446 C 0.75001 0.66641 0.72687 0.0
C1447 C 0.73902 0.67599 0.73079 0.0
C1448 C 0.78365 0.69308 0.81324 0.0
C1449 C 0.76497 0.67743 0.77084 0.0
C1450 C 0.79641 0.69425 0.83376 0.0
C1451 C 0.80505 0.68213 0.83338 0.0
C1452 C 0.77957 0.67983 0.7919 0.0
C1453 C 0.8015 0.66986 0.81098 0.0
C1454 C 0.76314 0.66721 0.74681 0.0
C1455 C 0.74024 0.68482 0.75567 0.0
N1456 N 0.78889 0.66891 0.79116 0.0
N1457 N 0.75317 0.68553 0.77466 0.0
H1458 H 0.77838 0.71521 0.62641 0.0
H1459 H 0.76898 0.64462 0.50421 0.0
H1460 H 0.7247 0.66139 0.60688 0.0
H1461 H 0.8236 0.69551 0.52843 0.0
H1462 H 0.75294 0.64927 0.5433 0.0
H1463 H 0.79526 0.7077 0.59137 0.0
C1464 C 0.77005 0.70186 0.61467 0.0
C1465 C 0.74997 0.68897 0.61967 0.0
C1466 C 0.7685 0.65926 0.54033 0.0
C1467 C 0.76945 0.68018 0.57944 0.0
C1468 C 0.77768 0.65654 0.51812 0.0
C1469 C 0.79764 0.66975 0.51305 0.0
C1470 C 0.77929 0.67544 0.55751 0.0
C1471 C 0.80823 0.68492 0.53169 0.0
C1472 C 0.77979 0.69752 0.59474 0.0
C1473 C 0.74013 0.67184 0.60377 0.0
N1474 N 0.79887 0.68751 0.55289 0.0
N1475 N 0.74995 0.66798 0.58438 0.0
H1476 H 0.3555 0.05486 0.57708 0.0
H1477 H 0.32977 0.13598 0.5215 0.0
H1478 H 0.32904 0.08042 0.62688 0.0
H1479 H 0.36927 0.12019 0.4827 0.0
H1480 H 0.32796 0.11535 0.55996 0.0
H1481 H 0.35725 0.07656 0.5403 0.0
C1482 C 0.35014 0.06517 0.58017 0.0
C1483 C 0.3429 0.0666 0.60513 0.0
C1484 C 0.33717 0.1166 0.54313 0.0
C1485 C 0.34468 0.0913 0.56339 0.0
C1486 C 0.33841 0.12854 0.52136 0.0
C1487 C 0.34952 0.1296 0.4988 0.0
C1488 C 0.34698 0.10557 0.54209 0.0
C1489 C 0.36027 0.11951 0.49951 0.0
C1490 C 0.3511 0.07752 0.55926 0.0
C1491 C 0.33525 0.07942 0.60799 0.0
N1492 N 0.35853 0.10773 0.52062 0.0
N1493 N 0.33658 0.09156 0.58741 0.0
H1494 H 0.96111 0.23848 0.62966 0.0
H1495 H 0.90302 0.2492 0.50315 0.0
H1496 H 0.96183 0.29248 0.60682 0.0
H1497 H 0.90186 0.19455 0.52253 0.0
H1498 H 0.92416 0.26476 0.542 0.0
H1499 H 0.93978 0.22189 0.59092 0.0
C1500 C 0.95698 0.24693 0.61641 0.0
C1501 C 0.96331 0.26696 0.62165 0.0
C1502 C 0.91932 0.24935 0.53792 0.0
C1503 C 0.93869 0.24793 0.57743 0.0
C1504 C 0.90722 0.24046 0.51571 0.0
C1505 C 0.90086 0.22062 0.50948 0.0
C1506 C 0.9252 0.23839 0.5542 0.0
C1507 C 0.90645 0.20988 0.52669 0.0
C1508 C 0.9447 0.23739 0.59437 0.0
C1509 C 0.95736 0.27705 0.60375 0.0
N1510 N 0.91845 0.21895 0.54824 0.0
N1511 N 0.94538 0.26742 0.58259 0.0
H1512 H 0.3606 0.30494 0.5767 0.0
H1513 H 0.32021 0.19615 0.51873 0.0
H1514 H 0.32887 0.25401 0.62726 0.0
H1515 H 0.37016 0.24826 0.48698 0.0
H1516 H 0.32005 0.21593 0.55725 0.0
H1517 H 0.35969 0.28333 0.54055 0.0
C1518 C 0.35359 0.28916 0.58017 0.0
C1519 C 0.34561 0.28123 0.60519 0.0
C1520 C 0.3311 0.2229 0.54188 0.0
C1521 C 0.3441 0.25634 0.56394 0.0
C1522 C 0.33129 0.21163 0.52006 0.0
C1523 C 0.34502 0.22067 0.49944 0.0
C1524 C 0.3446 0.24329 0.54274 0.0
C1525 C 0.35902 0.24079 0.50211 0.0
C1526 C 0.353 0.27682 0.55957 0.0
C1527 C 0.33572 0.26062 0.60837 0.0
N1528 N 0.35829 0.25142 0.5231 0.0
N1529 N 0.33542 0.24881 0.58801 0.0
H1530 H 0.72187 0.07471 0.60235 0.0
H1531 H 0.82668 0.13929 0.53187 0.0
H1532 H 0.77535 0.07603 0.629 0.0
H1533 H 0.77216 0.13221 0.49932 0.0
H1534 H 0.80872 0.11943 0.57078 0.0
H1535 H 0.74046 0.0981 0.56678 0.0
C1536 C 0.73748 0.07981 0.6007 0.0
C1537 C 0.74697 0.07323 0.61873 0.0
C1538 C 0.80071 0.12239 0.55526 0.0
C1539 C 0.76844 0.1003 0.57814 0.0
C1540 C 0.81101 0.13393 0.53321 0.0
C1541 C 0.80088 0.13731 0.51227 0.0
C1542 C 0.78014 0.11422 0.55641 0.0
C1543 C 0.7805 0.12978 0.5149 0.0
C1544 C 0.74811 0.09325 0.58042 0.0
C1545 C 0.7673 0.08053 0.61557 0.0
N1546 N 0.77079 0.11848 0.53642 0.0
N1547 N 0.77732 0.09365 0.59575 0.0
H1548 H 0.96989 0.67235 0.57538 0.0
H1549 H 0.8947 0.70715 0.52248 0.0
H1550 H 0.94699 0.69932 0.62898 0.0
H1551 H 0.9037 0.66199 0.48593 0.0
H1552 H 0.91683 0.70927 0.5597 0.0
H1553 H 0.95035 0.67511 0.53878 0.0
C1554 C 0.96062 0.6788 0.57935 0.0
C1555 C 0.95922 0.68478 0.60524 0.0
C1556 C 0.91392 0.69899 0.54338 0.0
C1557 C 0.93699 0.6882 0.56366 0.0
C1558 C 0.90123 0.69768 0.52232 0.0
C1559 C 0.89767 0.68467 0.50079 0.0
C1560 C 0.92312 0.68736 0.54256 0.0
C1561 C 0.90646 0.67268 0.50162 0.0
C1562 C 0.94954 0.68045 0.55852 0.0
C1563 C 0.94784 0.69397 0.60927 0.0
N1564 N 0.91887 0.67448 0.52191 0.0
N1565 N 0.9368 0.69512 0.58871 0.0
H1566 H 0.91438 0.63354 0.70566 0.0
H1567 H 0.92025 0.70068 0.83067 0.0
H1568 H 0.96675 0.68696 0.73041 0.0
H1569 H 0.86915 0.64413 0.81413 0.0
H1570 H 0.93617 0.69682 0.79116 0.0
H1571 H 0.89666 0.63758 0.7432 0.0
C1572 C 0.92222 0.64604 0.71904 0.0
C1573 C 0.94217 0.65992 0.7148 0.0
C1574 C 0.92144 0.68524 0.79597 0.0
C1575 C 0.92182 0.66471 0.7576 0.0
C1576 C 0.91233 0.68748 0.81848 0.0
C1577 C 0.89345 0.6726 0.82575 0.0
C1578 C 0.91167 0.66795 0.78048 0.0
C1579 C 0.88372 0.65593 0.80913 0.0
C1580 C 0.91204 0.64836 0.74041 0.0
C1581 C 0.95145 0.67584 0.7328 0.0
N1582 N 0.89302 0.65395 0.78731 0.0
N1583 N 0.94119 0.6778 0.75328 0.0
H1584 H 0.33618 0.28819 0.73189 0.0
H1585 H 0.36526 0.21536 0.8086 0.0
H1586 H 0.38509 0.2801 0.70946 0.0
H1587 H 0.32051 0.22823 0.83596 0.0
H1588 H 0.37043 0.23639 0.7694 0.0
H1589 H 0.32881 0.26464 0.7684 0.0
C1590 C 0.34548 0.2816 0.73471 0.0
C1591 C 0.36133 0.28623 0.7175 0.0
C1592 C 0.35936 0.23447 0.78385 0.0
C1593 C 0.35274 0.25896 0.75918 0.0
C1594 C 0.35623 0.22228 0.80605 0.0
C1595 C 0.34251 0.22014 0.82561 0.0
C1596 C 0.34864 0.24456 0.78119 0.0
C1597 C 0.3314 0.22967 0.82149 0.0
C1598 C 0.34118 0.26805 0.75552 0.0
C1599 C 0.37277 0.27709 0.7222 0.0
N1600 N 0.3348 0.24156 0.79984 0.0
N1601 N 0.36821 0.26387 0.74252 0.0
H1602 H 0.72034 0.04932 0.75779 0.0
H1603 H 0.79303 0.15578 0.82051 0.0
H1604 H 0.7421 0.10205 0.70988 0.0
H1605 H 0.78585 0.10062 0.85106 0.0
H1606 H 0.77183 0.13769 0.78182 0.0
H1607 H 0.74014 0.0693 0.79577 0.0
C1608 C 0.72943 0.06516 0.75534 0.0
C1609 C 0.7304 0.07404 0.73055 0.0
C1610 C 0.77497 0.12966 0.79709 0.0
C1611 C 0.75285 0.09707 0.77381 0.0
C1612 C 0.78714 0.13996 0.81902 0.0
C1613 C 0.79091 0.12966 0.83934 0.0
C1614 C 0.76646 0.10898 0.79578 0.0
C1615 C 0.7829 0.10914 0.83635 0.0
C1616 C 0.74066 0.07657 0.77697 0.0
C1617 C 0.74155 0.0947 0.72861 0.0
N1618 N 0.77096 0.09952 0.81524 0.0
N1619 N 0.75265 0.10558 0.74991 0.0
H1620 H 0.03917 0.33452 0.0319 0.0
H1621 H 0.15106 0.36705 0.0675 0.0
H1622 H 0.08912 0.38878 0.00479 0.0
H1623 H 0.10205 0.31054 0.08913 0.0
H1624 H 0.12891 0.37319 0.03892 0.0
H1625 H 0.06196 0.32372 0.04882 0.0
C1626 C 0.05486 0.34412 0.02939 0.0
C1627 C 0.06216 0.36273 0.01725 0.0
C1628 C 0.12304 0.35926 0.0495 0.0
C1629 C 0.08834 0.35043 0.03643 0.0
C1630 C 0.13577 0.35568 0.06554 0.0
C1631 C 0.12832 0.33837 0.08086 0.0
C1632 C 0.10273 0.34549 0.04902 0.0
C1633 C 0.1083 0.32419 0.07783 0.0
C1634 C 0.06788 0.33793 0.03896 0.0
C1635 C 0.0827 0.37444 0.01435 0.0
N1636 N 0.09614 0.3282 0.06266 0.0
N1637 N 0.095 0.36818 0.02403 0.0
H1638 H 0.69488 0.70593 0.05793 0.0
H1639 H 0.65354 0.77873 0.05118 0.0
H1640 H 0.65617 0.70159 0.99272 0.0
H1641 H 0.71128 0.79655 0.08346 0.0
H1642 H 0.65419 0.75136 0.02753 0.0
H1643 H 0.70089 0.73936 0.06744 0.0
C1644 C 0.68779 0.71209 0.04546 0.0
C1645 C 0.67498 0.70095 0.02455 0.0
C1646 C 0.66702 0.76169 0.039 0.0
C1647 C 0.68152 0.7391 0.03558 0.0
C1648 C 0.66677 0.77749 0.05212 0.0
C1649 C 0.68249 0.79005 0.06897 0.0
C1650 C 0.68287 0.75819 0.04345 0.0
C1651 C 0.699 0.78735 0.07032 0.0
C1652 C 0.6913 0.73121 0.05079 0.0
C1653 C 0.6662 0.7097 0.009 0.0
N1654 N 0.69855 0.77144 0.05837 0.0
N1655 N 0.66934 0.72811 0.01512 0.0
H1656 H 0.31388 0.95025 -0.00211 0.0
H1657 H 0.22397 0.91883 0.09841 0.0
H1658 H 0.31181 0.98779 0.05984 0.0
H1659 H 0.23777 0.87657 0.06356 0.0
H1660 H 0.2501 0.94502 0.07186 0.0
H1661 H 0.28085 0.92421 0.01086 0.0
C1662 C 0.30636 0.95315 0.01392 0.0
C1663 C 0.31568 0.97117 0.02798 0.0
C1664 C 0.24703 0.92993 0.06937 0.0
C1665 C 0.27784 0.94159 0.04255 0.0
C1666 C 0.2319 0.91494 0.08414 0.0
C1667 C 0.22866 0.89552 0.083 0.0
C1668 C 0.25901 0.92548 0.05329 0.0
C1669 C 0.23967 0.89132 0.06473 0.0
C1670 C 0.28755 0.93827 0.02131 0.0
C1671 C 0.30526 0.97408 0.04863 0.0
N1672 N 0.2546 0.90625 0.05086 0.0
N1673 N 0.28694 0.95944 0.0553 0.0
H1674 H 0.39276 0.08796 0.00649 0.0
H1675 H 0.31449 0.09855 0.9142 0.0
H1676 H 0.34069 0.03809 0.97326 0.0
H1677 H 0.36879 0.14781 0.94261 0.0
H1678 H 0.32024 0.07647 0.9434 0.0
H1679 H 0.38123 0.10989 0.98976 0.0
C1680 C 0.37886 0.08153 -0.00435 0.0
C1681 C 0.36785 0.06103 0.99095 0.0
C1682 C 0.33066 0.09217 0.94383 0.0
C1683 C 0.35444 0.08639 0.97179 0.0
C1684 C 0.32723 0.10481 0.92747 0.0
C1685 C 0.34121 0.12502 0.92603 0.0
C1686 C 0.34827 0.09978 0.95874 0.0
C1687 C 0.35759 0.13237 0.9433 0.0
C1688 C 0.37223 0.09415 0.98621 0.0
C1689 C 0.3498 0.05375 0.97714 0.0
N1690 N 0.36087 0.11969 0.95857 0.0
N1691 N 0.34375 0.06643 0.96785 0.0
H1692 H 0.96382 0.30107 0.01907 0.0
H1693 H 0.87869 0.24914 0.91066 0.0
H1694 H 0.9683 0.32166 0.93754 0.0
H1695 H 0.89733 0.21269 0.95288 0.0
H1696 H 0.90447 0.27824 0.93399 0.0
H1697 H 0.93351 0.27034 0.00628 0.0
C1698 C 0.95849 0.29908 -0.00148 0.0
C1699 C 0.96866 0.3138 0.97923 0.0
C1700 C 0.90244 0.26377 0.93884 0.0
C1701 C 0.93385 0.27944 0.96504 0.0
C1702 C 0.88756 0.24716 0.92592 0.0
C1703 C 0.8858 0.22852 0.9301 0.0
C1704 C 0.91551 0.2617 0.95628 0.0
C1705 C 0.89806 0.22679 0.94948 0.0
C1706 C 0.94125 0.28165 0.99135 0.0
C1707 C 0.96108 0.3106 0.95295 0.0
N1708 N 0.91266 0.24327 0.9617 0.0
N1709 N 0.94402 0.2939 0.94673 0.0
H1710 H 0.7118 0.61803 0.0042 0.0
H1711 H 0.80704 0.70181 0.93076 0.0
H1712 H 0.7199 0.67556 0.98347 0.0
H1713 H 0.7929 0.64092 0.93559 0.0
H1714 H 0.77929 0.69452 0.96006 0.0
H1715 H 0.74469 0.62811 0.98784 0.0
C1716 C 0.72047 0.63284 -0.00371 0.0
C1717 C 0.71283 0.64588 -0.00506 0.0
C1718 C 0.78252 0.68284 0.95531 0.0
C1719 C 0.75084 0.65755 0.97632 0.0
C1720 C 0.79853 0.68706 0.93896 0.0
C1721 C 0.80226 0.67194 0.93092 0.0
C1722 C 0.77008 0.66331 0.96359 0.0
C1723 C 0.79061 0.653 0.9416 0.0
C1724 C 0.73934 0.63858 0.98701 0.0
C1725 C 0.72501 0.66491 0.98468 0.0
N1726 N 0.77483 0.64913 0.95708 0.0
N1727 N 0.74336 0.67013 0.97564 0.0
H1728 H 0.99879 0.69414 0.94371 0.0
H1729 H 0.88578 0.6571 0.94298 0.0
H1730 H 0.96176 0.65559 0.0062 0.0
H1731 H 0.92778 0.71214 0.90678 0.0
H1732 H 0.91262 0.65727 0.96944 0.0
H1733 H 0.97281 0.7017 0.93151 0.0
C1734 C 0.98525 0.68744 0.95506 0.0
C1735 C 0.98239 0.67415 0.97589 0.0
C1736 C 0.91587 0.66964 0.95637 0.0
C1737 C 0.95238 0.68247 0.96177 0.0
C1738 C 0.90051 0.66966 0.94155 0.0
C1739 C 0.90463 0.68463 0.92274 0.0
C1740 C 0.93542 0.68451 0.95184 0.0
C1741 C 0.92404 0.70035 0.92115 0.0
C1742 C 0.97044 0.69182 0.94818 0.0
C1743 C 0.96456 0.66593 0.98999 0.0
N1744 N 0.93877 0.69965 0.93498 0.0
N1745 N 0.95007 0.66993 0.98236 0.0
H1746 H 0.39839 0.31863 -0.00588 0.0
H1747 H 0.3171 0.22103 0.91982 0.0
H1748 H 0.34089 0.30909 0.97076 0.0
H1749 H 0.37723 0.2348 0.93213 0.0
H1750 H 0.3235 0.24987 0.94683 0.0
H1751 H 0.38911 0.28555 0.97851 0.0
C1752 C 0.38377 0.30962 0.9857 0.0
C1753 C 0.37048 0.3169 0.98353 0.0
C1754 C 0.33519 0.24636 0.94423 0.0
C1755 C 0.35971 0.27859 0.96574 0.0
C1756 C 0.33145 0.22973 0.92918 0.0
C1757 C 0.34664 0.2255 0.92396 0.0
C1758 C 0.35431 0.25896 0.95398 0.0
C1759 C 0.36508 0.23743 0.93601 0.0
C1760 C 0.37848 0.29063 0.97687 0.0
C1761 C 0.35171 0.30428 0.97263 0.0
N1762 N 0.36849 0.2538 0.95015 0.0
N1763 N 0.34692 0.28579 0.96405 0.0
H1764 H 0.71642 0.02949 0.95588 0.0
H1765 H 0.7858 0.14263 0.95349 0.0
H1766 H 0.71183 0.06589 0.01734 0.0
H1767 H 0.80418 0.10229 0.92425 0.0
H1768 H 0.76043 0.11581 0.98045 0.0
H1769 H 0.74959 0.05616 0.94583 0.0
C1770 C 0.72254 0.04302 0.96752 0.0
C1771 C 0.71137 0.04553 0.98737 0.0
C1772 C 0.7705 0.11301 0.96894 0.0
C1773 C 0.74917 0.07633 0.97562 0.0
C1774 C 0.78514 0.12838 0.95386 0.0
C1775 C 0.79713 0.12463 0.93684 0.0
C1776 C 0.76763 0.09375 0.96632 0.0
C1777 C 0.7953 0.10576 0.93735 0.0
C1778 C 0.74151 0.05822 0.96188 0.0
C1779 C 0.72001 0.06336 0.0019 0.0
N1780 N 0.78048 0.09089 0.95124 0.0
N1781 N 0.73825 0.07827 -0.00466 0.0
H1782 H 0.62488 0.9276 -0.00011 0.0
H1783 H 0.70795 0.90905 0.066 0.0
H1784 H 0.68347 0.97409 0.02053 0.0
H1785 H 0.64648 0.86502 0.06334 0.0
H1786 H 0.70078 0.931 0.03872 0.0
H1787 H 0.63402 0.90315 0.01402 0.0
C1788 C 0.63971 0.93273 0.00731 0.0
C1789 C 0.65336 0.95305 0.00929 0.0
C1790 C 0.68891 0.91636 0.0435 0.0
C1791 C 0.66394 0.9249 0.02525 0.0
C1792 C 0.69305 0.90374 0.05869 0.0
C1793 C 0.67777 0.88523 0.0668 0.0
C1794 C 0.66932 0.91046 0.03647 0.0
C1795 C 0.65867 0.87911 0.05725 0.0
C1796 C 0.64491 0.91869 0.01531 0.0
C1797 C 0.67237 0.95865 0.01892 0.0
N1798 N 0.65491 0.89184 0.04292 0.0
N1799 N 0.67707 0.94465 0.02663 0.0
H1800 H 0.09928 0.70708 0.00131 0.0
H1801 H 0.11007 0.79904 0.08587 0.0
H1802 H 0.05018 0.71461 0.02445 0.0
H1803 H 0.15794 0.78745 0.07294 0.0
H1804 H 0.08934 0.77189 0.05542 0.0
H1805 H 0.12182 0.73938 0.02045 0.0
C1806 C 0.09317 0.71551 0.01032 0.0
C1807 C 0.07267 0.70788 0.01152 0.0
C1808 C 0.10448 0.77549 0.05876 0.0
C1809 C 0.09865 0.74516 0.03339 0.0
C1810 C 0.11637 0.79112 0.07589 0.0
C1811 C 0.13571 0.79543 0.08188 0.0
C1812 C 0.11192 0.76396 0.04765 0.0
C1813 C 0.14315 0.78466 0.06867 0.0
C1814 C 0.10613 0.73403 0.0212 0.0
C1815 C 0.0658 0.71972 0.02326 0.0
N1816 N 0.13114 0.7692 0.05246 0.0
N1817 N 0.07875 0.73769 0.03386 0.0
H1818 H 0.30925 0.32917 0.04706 0.0
H1819 H 0.23521 0.36874 0.05399 0.0
H1820 H 0.31082 0.37034 0.98759 0.0
H1821 H 0.22076 0.31113 0.08357 0.0
H1822 H 0.26124 0.36891 0.02649 0.0
H1823 H 0.276 0.32174 0.05922 0.0
C1824 C 0.30248 0.33647 0.03633 0.0
C1825 C 0.31284 0.35044 0.01636 0.0
C1826 C 0.2519 0.3559 0.03821 0.0
C1827 C 0.27486 0.34229 0.03052 0.0
C1828 C 0.23684 0.35569 0.05358 0.0
C1829 C 0.22567 0.33978 0.07077 0.0
C1830 C 0.25608 0.34032 0.04071 0.0
C1831 C 0.22887 0.32353 0.07026 0.0
C1832 C 0.28345 0.33216 0.04319 0.0
C1833 C 0.30333 0.35943 0.00308 0.0
N1834 N 0.24408 0.32442 0.05606 0.0
N1835 N 0.28502 0.3555 0.01074 0.0
H1836 H 0.70287 0.66901 0.36622 0.0
H1837 H 0.81521 0.70395 0.40283 0.0
H1838 H 0.75188 0.72501 0.34212 0.0
H1839 H 0.76689 0.64653 0.42267 0.0
H1840 H 0.79277 0.71003 0.37475 0.0
H1841 H 0.72629 0.65894 0.38262 0.0
C1842 C 0.7185 0.67917 0.36429 0.0
C1843 C 0.72532 0.698 0.35308 0.0
C1844 C 0.78713 0.69592 0.3848 0.0
C1845 C 0.75227 0.68653 0.37168 0.0
C1846 C 0.80002 0.69238 0.40053 0.0
C1847 C 0.79283 0.67479 0.41519 0.0
C1848 C 0.76692 0.68182 0.38393 0.0
C1849 C 0.77294 0.66037 0.41181 0.0
C1850 C 0.73189 0.67338 0.37355 0.0
C1851 C 0.74582 0.71044 0.3509 0.0
N1852 N 0.76062 0.66432 0.39692 0.0
N1853 N 0.7585 0.70455 0.36028 0.0
H1854 H 0.34521 0.04623 0.32251 0.0
H1855 H 0.30445 0.09923 0.41718 0.0
H1856 H 0.32292 0.02566 0.40197 0.0
H1857 H 0.3627 0.13466 0.38537 0.0
H1858 H 0.3024 0.07007 0.39541 0.0
H1859 H 0.34455 0.07713 0.33185 0.0
C1860 C 0.34026 0.04824 0.34188 0.0
C1861 C 0.33434 0.0335 0.36165 0.0
C1862 C 0.31531 0.08439 0.39232 0.0
C1863 C 0.33265 0.06806 0.37176 0.0
C1864 C 0.31633 0.10108 0.40427 0.0
C1865 C 0.3337 0.1194 0.40286 0.0
C1866 C 0.33163 0.08607 0.3785 0.0
C1867 C 0.34896 0.12085 0.38658 0.0
C1868 C 0.33982 0.06576 0.34709 0.0
C1869 C 0.32788 0.03674 0.38632 0.0
N1870 N 0.34773 0.1043 0.37531 0.0
N1871 N 0.32698 0.05354 0.39055 0.0
H1872 H 0.97724 0.28233 0.32331 0.0
H1873 H 0.89045 0.25322 0.42864 0.0
H1874 H 0.97664 0.32129 0.38426 0.0
H1875 H 0.90272 0.21015 0.39292 0.0
H1876 H 0.91567 0.27885 0.4004 0.0
H1877 H 0.94446 0.25667 0.33788 0.0
C1878 C 0.97005 0.28564 0.33937 0.0
C1879 C 0.97975 0.30394 0.35275 0.0
C1880 C 0.91246 0.2637 0.39812 0.0
C1881 C 0.94224 0.27477 0.36923 0.0
C1882 C 0.89786 0.24903 0.41391 0.0
C1883 C 0.89444 0.22955 0.41294 0.0
C1884 C 0.92378 0.25889 0.38123 0.0
C1885 C 0.90477 0.22495 0.39399 0.0
C1886 C 0.9514 0.27097 0.34771 0.0
C1887 C 0.96979 0.30736 0.37353 0.0
N1888 N 0.91923 0.2396 0.37914 0.0
N1889 N 0.95164 0.29292 0.38116 0.0
H1890 H 0.06703 0.42016 0.32583 0.0
H1891 H 0.98511 0.43934 0.25686 0.0
H1892 H 1.00817 0.37363 0.30651 0.0
H1893 H 0.04608 0.48393 0.26515 0.0
H1894 H 0.99164 0.41657 0.28334 0.0
H1895 H 0.05819 0.4445 0.3105 0.0
C1896 C 0.0522 0.41497 0.31834 0.0
C1897 C 0.03839 0.39464 0.31727 0.0
C1898 C 1.00351 0.43148 0.27999 0.0
C1899 C 0.02812 0.42281 0.2998 0.0
C1900 C 0.99972 0.44458 0.26528 0.0
C1901 C 0.01506 0.46358 0.25905 0.0
C1902 C 0.02285 0.43737 0.28842 0.0
C1903 C 0.03381 0.46951 0.26985 0.0
C1904 C 0.04717 0.42899 0.30966 0.0
C1905 C 0.01939 0.38906 0.3075 0.0
N1906 N 0.03725 0.45635 0.28368 0.0
N1907 N 0.01485 0.40305 0.29907 0.0
H1908 H 0.62563 0.63373 0.35562 0.0
H1909 H 0.54361 0.58422 0.24331 0.0
H1910 H 0.63269 0.65437 0.27378 0.0
H1911 H 0.56139 0.54634 0.28353 0.0
H1912 H 0.56837 0.61233 0.26933 0.0
H1913 H 0.59545 0.60319 0.3417 0.0
C1914 C 0.62092 0.63178 0.33479 0.0
C1915 C 0.63174 0.64647 0.31573 0.0
C1916 C 0.56632 0.59771 0.27317 0.0
C1917 C 0.59716 0.61244 0.30027 0.0
C1918 C 0.55205 0.58167 0.25866 0.0
C1919 C 0.55047 0.56301 0.26146 0.0
C1920 C 0.57895 0.59502 0.2907 0.0
C1921 C 0.56209 0.56051 0.2811 0.0
C1922 C 0.60375 0.61449 0.32698 0.0
C1923 C 0.62496 0.64335 0.28906 0.0
N1924 N 0.57618 0.57648 0.29478 0.0
N1925 N 0.60799 0.62682 0.28221 0.0
H1926 H 0.38773 0.01332 0.32092 0.0
H1927 H 0.46198 0.9768 0.27615 0.0
H1928 H 0.38166 0.95701 0.3441 0.0
H1929 H 0.47398 0.03678 0.2665 0.0
H1930 H 0.43471 0.97048 0.30607 0.0
H1931 H 0.42084 0.02331 0.30446 0.0
C1932 C 0.39334 1.00311 0.32272 0.0
C1933 C 0.38167 0.98419 0.33362 0.0
C1934 C 0.44363 0.9852 0.29801 0.0
C1935 C 0.41962 0.99553 0.31482 0.0
C1936 C 0.45938 0.98885 0.28127 0.0
C1937 C 0.47021 1.00732 0.26894 0.0
C1938 C 0.43856 1.00006 0.30204 0.0
C1939 C 0.46596 0.02234 0.27573 0.0
C1940 C 0.4123 1.00884 0.31342 0.0
C1941 C 0.3899 0.97166 0.33559 0.0
N1942 N 0.45023 0.01829 0.29135 0.0
N1943 N 0.4082 0.97747 0.32605 0.0
H1944 H 0.66606 0.02422 0.27185 0.0
H1945 H 0.55314 0.98807 0.27751 0.0
H1946 H 0.63075 0.98614 0.33589 0.0
H1947 H 0.59446 0.04377 0.24221 0.0
H1948 H 0.58055 0.98744 0.30139 0.0
H1949 H 0.63964 0.03157 0.26116 0.0
C1950 C 0.65281 0.01752 0.28379 0.0
C1951 C 0.65059 1.0045 0.30471 0.0
C1952 C 0.58354 1.00012 0.28911 0.0
C1953 C 0.62013 0.01263 0.2924 0.0
C1954 C 0.56786 1.00061 0.27583 0.0
C1955 C 0.57156 0.01604 0.258 0.0
C1956 C 0.60301 0.01495 0.28399 0.0
C1957 C 0.591 0.03167 0.25593 0.0
C1958 C 0.63776 0.0218 0.2778 0.0
C1959 C 0.63309 0.99629 0.31959 0.0
N1960 N 0.60603 0.0305 0.26817 0.0
N1961 N 0.6184 1.00022 0.31288 0.0
H1962 H 0.05744 0.64805 0.33802 0.0
H1963 H 0.98315 0.55825 0.24495 0.0
H1964 H 1.00497 0.64397 0.30203 0.0
H1965 H 0.03788 0.56509 0.27587 0.0
H1966 H 0.9874 0.58584 0.27316 0.0
H1967 H 0.04761 0.61501 0.32169 0.0
C1968 C 0.04381 0.64025 0.32668 0.0
C1969 C 0.03218 0.64909 0.32111 0.0
C1970 C 0.99824 0.58101 0.27437 0.0
C1971 C 0.02073 0.6108 0.3024 0.0
C1972 C 0.99565 0.56506 0.25859 0.0
C1973 C 1.01015 0.55934 0.25822 0.0
C1974 C 0.01555 0.59145 0.28974 0.0
C1975 C 0.02627 0.56889 0.27581 0.0
C1976 C 0.03816 0.62125 0.31746 0.0
C1977 C 0.01453 0.63793 0.30662 0.0
N1978 N 0.02871 0.5847 0.29052 0.0
N1979 N 1.00944 0.61945 0.2976 0.0
H1980 H 0.38369 0.36614 0.29197 0.0
H1981 H 0.4557 0.47858 0.28319 0.0
H1982 H 0.38127 0.40548 0.35071 0.0
H1983 H 0.4713 0.43583 0.25518 0.0
H1984 H 0.43051 0.45311 0.31192 0.0
H1985 H 0.41708 0.39163 0.28055 0.0
C1986 C 0.39033 0.38007 0.30272 0.0
C1987 C 0.3797 0.38378 0.32215 0.0
C1988 C 0.43994 0.44948 0.30026 0.0
C1989 C 0.41777 0.4132 0.30888 0.0
C1990 C 0.45447 0.46409 0.28414 0.0
C1991 C 0.46553 0.45922 0.26691 0.0
C1992 C 0.4363 0.42991 0.29852 0.0
C1993 C 0.46306 0.44011 0.26831 0.0
C1994 C 0.40942 0.3946 0.29632 0.0
C1995 C 0.38901 0.40206 0.33558 0.0
N1996 N 0.44837 0.42601 0.28326 0.0
N1997 N 0.40738 0.41629 0.32828 0.0
H1998 H 0.35144 0.31485 0.36235 0.0
H1999 H 0.31433 0.20092 0.38983 0.0
H2000 H 0.29432 0.26751 0.33774 0.0
H2001 H 0.37311 0.24746 0.40809 0.0
H2002 H 0.30857 0.22446 0.36395 0.0
H2003 H 0.36101 0.29023 0.37464 0.0
C2004 C 0.34089 0.29932 0.35956 0.0
C2005 C 0.32194 0.29333 0.34929 0.0
C2006 C 0.32294 0.22945 0.37295 0.0
C2007 C 0.33291 0.265 0.36304 0.0
C2008 C 0.32633 0.21589 0.38728 0.0
C2009 C 0.34422 0.22229 0.401 0.0
C2010 C 0.3375 0.24956 0.37268 0.0
C2011 C 0.35915 0.24198 0.39764 0.0
C2012 C 0.34642 0.28525 0.36638 0.0
C2013 C 0.30902 0.27294 0.34582 0.0
N2014 N 0.35532 0.25502 0.38432 0.0
N2015 N 0.31469 0.25957 0.35284 0.0
H2016 H 0.76812 0.0422 0.33216 0.0
H2017 H 0.77491 0.13154 0.41901 0.0
H2018 H 0.71742 0.04658 0.35644 0.0
H2019 H 0.82447 0.12293 0.4042 0.0
H2020 H 0.75474 0.10408 0.38866 0.0
H2021 H 0.78955 0.07456 0.3518 0.0
C2022 C 0.76142 0.04995 0.34155 0.0
C2023 C 0.7408 0.0414 0.3429 0.0
C2024 C 0.77011 0.10839 0.39161 0.0
C2025 C 0.76554 0.0788 0.3654 0.0
C2026 C 0.78167 0.12417 0.40872 0.0
C2027 C 0.80135 0.12942 0.41417 0.0
C2028 C 0.77824 0.09766 0.37991 0.0
C2029 C 0.8094 0.11941 0.40042 0.0
C2030 C 0.77375 0.06852 0.35272 0.0
C2031 C 0.73316 0.05242 0.35509 0.0
N2032 N 0.79772 0.1038 0.38422 0.0
N2033 N 0.74552 0.07047 0.36601 0.0
H2034 H 0.97505 0.70321 0.31749 0.0
H2035 H 0.89846 0.70417 0.38775 0.0
H2036 H 0.97268 0.66723 0.385 0.0
H2037 H 0.88496 0.64644 0.41565 0.0
H2038 H 0.92472 0.70525 0.35997 0.0
H2039 H 0.94182 0.69693 0.32829 0.0
C2040 C 0.96745 0.6938 0.33438 0.0
C2041 C 0.97676 0.68593 0.35059 0.0
C2042 C 0.91545 0.69194 0.37115 0.0
C2043 C 0.93882 0.67877 0.36309 0.0
C2044 C 0.90029 0.69125 0.38678 0.0
C2045 C 0.88937 0.67508 0.40368 0.0
C2046 C 0.91989 0.67648 0.37294 0.0
C2047 C 0.89286 0.65903 0.40254 0.0
C2048 C 0.94855 0.69035 0.34063 0.0
C2049 C 0.96618 0.67379 0.37216 0.0
N2050 N 0.90817 0.66037 0.38811 0.0
N2051 N 0.94783 0.67062 0.37779 0.0
H2052 H 0.42199 0.05271 0.66478 0.0
H2053 H 0.43219 0.97701 0.76306 0.0
H2054 H 0.37235 1.00309 0.70193 0.0
H2055 H 0.4812 0.03204 0.73667 0.0
H2056 H 0.41036 0.98251 0.73307 0.0
H2057 H 0.4437 0.04172 0.68387 0.0
C2058 C 0.41557 0.03944 0.67692 0.0
C2059 C 0.39524 0.029 0.68212 0.0
C2060 C 0.42593 0.99322 0.73347 0.0
C2061 C 0.4203 0.01627 0.70399 0.0
C2062 C 0.43842 0.99004 0.75044 0.0
C2063 C 0.45848 1.00424 0.75257 0.0
C2064 C 0.43356 0.01072 0.71849 0.0
C2065 C 0.46584 0.02074 0.73564 0.0
C2066 C 0.42806 0.03315 0.68775 0.0
C2067 C 0.38791 0.01173 0.69761 0.0
N2068 N 0.45332 0.02368 0.71959 0.0
N2069 N 0.40047 1.006 0.70821 0.0
H2070 H 0.9866 0.35557 0.74137 0.0
H2071 H 0.02504 0.46625 0.72127 0.0
H2072 H 1.00424 0.37649 0.66054 0.0
H2073 H 0.96936 0.43002 0.75969 0.0
H2074 H 0.02185 0.43653 0.699 0.0
H2075 H 0.98558 0.38582 0.75153 0.0
C2076 C 0.99049 0.36664 0.72584 0.0
C2077 C 0.99557 0.36356 0.70011 0.0
C2078 C 1.01002 0.43527 0.71151 0.0
C2079 C 0.99449 0.39821 0.71167 0.0
C2080 C 1.01168 0.45223 0.72387 0.0
C2081 C 0.99734 0.45056 0.74213 0.0
C2082 C 0.99422 0.41665 0.71819 0.0
C2083 C 0.98061 0.43193 0.74553 0.0
C2084 C 0.98968 0.38377 0.73157 0.0
C2085 C 1.00025 0.37835 0.68064 0.0
N2086 N 0.97979 0.41562 0.73437 0.0
N2087 N 0.99986 0.39523 0.68691 0.0
H2088 H 0.64651 0.65712 0.72582 0.0
H2089 H 0.55395 0.5826 0.75706 0.0
H2090 H 0.64678 0.61954 0.66255 0.0
H2091 H 0.57621 0.54505 0.72936 0.0
H2092 H 0.57988 0.61024 0.73209 0.0
H2093 H 0.61386 0.63097 0.739 0.0
C2094 C 0.63954 0.64348 0.71441 0.0
C2095 C 0.64939 0.64055 0.69302 0.0
C2096 C 0.5789 0.59588 0.73101 0.0
C2097 C 0.61184 0.61042 0.70794 0.0
C2098 C 0.5638 0.57999 0.74471 0.0
C2099 C 0.56282 0.56149 0.74499 0.0
C2100 C 0.59327 0.59328 0.71772 0.0
C2101 C 0.57629 0.55902 0.72929 0.0
C2102 C 0.62078 0.62858 0.72178 0.0
C2103 C 0.63967 0.62248 0.67907 0.0
N2104 N 0.59114 0.57481 0.71655 0.0
N2105 N 0.6216 0.60796 0.68709 0.0
H2106 H 0.67375 0.70855 0.64402 0.0
H2107 H 0.70922 0.82021 0.60148 0.0
H2108 H 0.73155 0.75755 0.66201 0.0
H2109 H 0.6495 0.77287 0.5918 0.0
H2110 H 0.71658 0.79828 0.62875 0.0
H2111 H 0.6637 0.73216 0.62803 0.0
C2112 C 0.68432 0.7242 0.64462 0.0
C2113 C 0.70359 0.73094 0.65417 0.0
C2114 C 0.70172 0.7928 0.62123 0.0
C2115 C 0.69214 0.75812 0.63609 0.0
C2116 C 0.69747 0.80545 0.60604 0.0
C2117 C 0.67874 0.79833 0.59446 0.0
C2118 C 0.68718 0.77285 0.62455 0.0
C2119 C 0.66413 0.7789 0.60047 0.0
C2120 C 0.67854 0.73771 0.63565 0.0
C2121 C 0.71657 0.75151 0.65467 0.0
N2122 N 0.66873 0.76674 0.61465 0.0
N2123 N 0.71066 0.76427 0.64564 0.0
H2124 H 0.31952 0.97096 0.6211 0.0
H2125 H 0.20684 0.90685 0.60397 0.0
H2126 H 0.28241 0.98117 0.67474 0.0
H2127 H 0.24449 0.88123 0.59644 0.0
H2128 H 0.23287 0.93414 0.63031 0.0
H2129 H 0.29155 0.93839 0.6102 0.0
C2130 C 0.30552 0.96624 0.63076 0.0
C2131 C 0.30325 0.97872 0.64884 0.0
C2132 C 0.23513 0.92215 0.62369 0.0
C2133 C 0.27111 0.94172 0.63607 0.0
C2134 C 0.22019 0.90648 0.60899 0.0
C2135 C 0.22351 0.89173 0.59829 0.0
C2136 C 0.25356 0.92323 0.62689 0.0
C2137 C 0.24134 0.89226 0.60461 0.0
C2138 C 0.2896 0.94764 0.62467 0.0
C2139 C 0.28477 0.9719 0.6608 0.0
N2140 N 0.25589 0.90801 0.61786 0.0
N2141 N 0.26926 0.954 0.65381 0.0
H2142 H 0.04855 0.3464 0.65159 0.0
H2143 H 0.13084 0.318 0.61751 0.0
H2144 H 0.04937 0.29493 0.68288 0.0
H2145 H 0.13258 0.37145 0.59028 0.0
H2146 H 0.1047 0.31275 0.64887 0.0
H2147 H 0.08207 0.35873 0.63508 0.0
C2148 C 0.05579 0.33777 0.65522 0.0
C2149 C 0.04589 0.3194 0.66823 0.0
C2150 C 0.11115 0.32594 0.63658 0.0
C2151 C 0.08433 0.33346 0.64943 0.0
C2152 C 0.1263 0.32907 0.619 0.0
C2153 C 0.13376 0.34511 0.60128 0.0
C2154 C 0.10333 0.33885 0.63612 0.0
C2155 C 0.12712 0.35886 0.60364 0.0
C2156 C 0.07497 0.34484 0.64584 0.0
C2157 C 0.05617 0.30899 0.67253 0.0
N2158 N 0.11199 0.35521 0.62027 0.0
N2159 N 0.07467 0.31604 0.66293 0.0
H2160 H 0.31056 0.32688 0.59625 0.0
H2161 H 0.23561 0.36206 0.61192 0.0
H2162 H 0.30175 0.33736 0.67869 0.0
H2163 H 0.21889 0.30672 0.57251 0.0
H2164 H 0.26209 0.35944 0.63587 0.0
H2165 H 0.28036 0.32718 0.58366 0.0
C2166 C 0.30246 0.3296 0.61165 0.0
C2167 C 0.30868 0.33212 0.63856 0.0
C2168 C 0.25211 0.34757 0.62271 0.0
C2169 C 0.27416 0.33251 0.62418 0.0
C2170 C 0.2369 0.34892 0.60935 0.0
C2171 C 0.225 0.33447 0.59045 0.0
C2172 C 0.25559 0.33198 0.61637 0.0
C2173 C 0.22765 0.31803 0.58713 0.0
C2174 C 0.28515 0.32954 0.60448 0.0
C2175 C 0.29742 0.33535 0.65771 0.0
N2176 N 0.24301 0.31751 0.59933 0.0
N2177 N 0.28069 0.33562 0.65013 0.0
H2178 H 0.72429 0.98409 0.67037 0.0
H2179 H 0.64901 0.89478 0.57763 0.0
H2180 H 0.67209 0.98076 0.63459 0.0
H2181 H 0.70275 0.90002 0.60996 0.0
H2182 H 0.65374 0.92266 0.60558 0.0
H2183 H 0.71384 0.95082 0.65439 0.0
C2184 C 0.7106 0.97641 0.65912 0.0
C2185 C 0.69922 0.98551 0.65352 0.0
C2186 C 0.66425 0.91742 0.60715 0.0
C2187 C 0.68705 0.94699 0.63525 0.0
C2188 C 0.66138 0.90132 0.59151 0.0
C2189 C 0.67548 0.89508 0.59163 0.0
C2190 C 0.68146 0.92749 0.62282 0.0
C2191 C 0.69145 0.90425 0.60952 0.0
C2192 C 0.70459 0.95728 0.65013 0.0
C2193 C 0.68147 0.97451 0.63919 0.0
N2194 N 0.6942 0.92024 0.62406 0.0
N2195 N 0.67602 0.95591 0.63038 0.0
H2196 H 0.05011 0.69777 0.6182 0.0
H2197 H 0.12086 0.81073 0.61643 0.0
H2198 H 0.04627 0.73441 0.67998 0.0
H2199 H 0.13805 0.76974 0.58608 0.0
H2200 H 0.09536 0.78404 0.6434 0.0
H2201 H 0.08339 0.72415 0.60804 0.0
C2202 C 0.05641 0.7113 0.62986 0.0
C2203 C 0.04542 0.71398 0.64983 0.0
C2204 C 0.1052 0.78105 0.63163 0.0
C2205 C 0.08337 0.74442 0.63801 0.0
C2206 C 0.11991 0.79635 0.61654 0.0
C2207 C 0.13156 0.79238 0.59917 0.0
C2208 C 0.10194 0.76168 0.62871 0.0
C2209 C 0.1294 0.77336 0.5994 0.0
C2210 C 0.07544 0.72633 0.62417 0.0
C2211 C 0.0543 0.73178 0.66442 0.0
N2212 N 0.11452 0.7586 0.61334 0.0
N2213 N 0.07262 0.74652 0.65783 0.0
H2214 H 0.96288 0.59633 0.65727 0.0
H2215 H 0.04198 0.5795 0.73811 0.0
H2216 H 0.01804 0.64354 0.68796 0.0
H2217 H 0.9829 0.53327 0.72062 0.0
H2218 H 0.03672 0.60192 0.70901 0.0
H2219 H 0.97287 0.5725 0.67112 0.0
C2220 C 0.97714 0.60176 0.66686 0.0
C2221 C 0.98949 0.62207 0.67183 0.0
C2222 C 0.02507 0.58673 0.71088 0.0
C2223 C 1.0011 0.59461 0.68752 0.0
C2224 C 0.0282 0.57385 0.7271 0.0
C2225 C 1.01283 0.55455 0.73169 0.0
C2226 C 1.00641 0.58026 0.69931 0.0
C2227 C 0.99514 0.54799 0.7174 0.0
C2228 C 0.98286 0.58807 0.67465 0.0
C2229 C 1.0079 0.62807 0.68401 0.0
N2230 N 0.99225 0.56096 0.70224 0.0
N2231 N 1.01307 0.61439 0.69161 0.0
H2232 H 0.37935 0.3797 0.68886 0.0
H2233 H 0.49009 0.45363 0.73586 0.0
H2234 H 0.4285 0.37078 0.67127 0.0
H2235 H 0.44199 0.4651 0.74726 0.0
H2236 H 0.46869 0.42544 0.70699 0.0
H2237 H 0.40253 0.41256 0.7065 0.0
C2238 C 0.39497 0.38461 0.6886 0.0
C2239 C 0.40186 0.37224 0.67879 0.0
C2240 C 0.46291 0.43438 0.71531 0.0
C2241 C 0.42858 0.40999 0.69891 0.0
C2242 C 0.47525 0.45064 0.73147 0.0
C2243 C 0.46778 0.46166 0.74393 0.0
C2244 C 0.44296 0.42906 0.71183 0.0
C2245 C 0.44828 0.45692 0.73801 0.0
C2246 C 0.40824 0.40344 0.69859 0.0
C2247 C 0.42236 0.3796 0.67883 0.0
N2248 N 0.43647 0.44081 0.72278 0.0
N2249 N 0.43492 0.39785 0.68889 0.0
H2250 H 0.6395 0.9983 0.7146 0.0
H2251 H 0.56648 0.0384 0.72419 0.0
H2252 H 0.6421 0.041 0.65697 0.0
H2253 H 0.55074 0.97957 0.74987 0.0
H2254 H 0.59238 0.03893 0.69606 0.0
H2255 H 0.60605 0.99053 0.72605 0.0
C2256 C 0.63292 1.00587 0.70412 0.0
C2257 C 0.64361 0.02038 0.68493 0.0
C2258 C 0.58277 0.0256 0.70702 0.0
C2259 C 0.6054 0.01183 0.69825 0.0
C2260 C 0.56779 0.0252 0.72274 0.0
C2261 C 0.55635 1.00883 0.73909 0.0
C2262 C 0.58659 0.00973 0.70834 0.0
C2263 C 0.5591 0.99235 0.73724 0.0
C2264 C 0.61377 1.00136 0.71055 0.0
C2265 C 0.63433 0.0297 0.67189 0.0
N2266 N 0.57426 0.99341 0.72277 0.0
N2267 N 0.6159 0.02556 0.67918 0.0
loop_
_geom_bond_atom_site_label_1
_geom_bond_atom_site_label_2
_geom_bond_distance
_geom_bond_site_symmetry_2
_ccdc_geom_bond_type
Mn0 O5 2.095 1_655 S
Mn0 O15 2.162 . S
Mn0 O16 2.297 1_554 S
Mn0 O24 2.385 1_554 S
Mn0 O25 2.209 1_654 S
Mn0 O26 2.094 . S
Mn1 O6 2.121 . S
Mn1 N8 2.257 1_554 S
Mn1 N17 2.282 1_554 S
Mn1 O25 2.215 1_554 S
Mn1 O27 2.117 . S
C2 O24 1.234 1_455 S
C2 O25 1.283 . S
C3 O15 1.281 1_556 S
C3 O16 1.236 . S
C4 O26 1.230 1_455 S
C4 O27 1.290 . S
O5 Mn0 2.095 1_455 S
O5 C14 1.250 . S
O6 Mn1 2.121 . S
O6 C14 1.258 . S
C7 N8 1.326 . S
C7 C11 1.460 . S
C7 H13 0.929 . S
N8 Mn1 2.257 1_556 S
N8 C7 1.326 . S
N8 C12 1.362 . S
C9 C10 1.258 . S
C9 C12 1.431 . S
C9 C29 1.449 . S
C10 C9 1.258 . S
C10 C11 1.477 . S
C10 H30 0.931 . S
C11 C7 1.460 . S
C11 C10 1.477 . S
C11 H31 0.930 . S
C12 N8 1.362 . S
C12 C9 1.431 . S
C12 C22 1.476 . S
H13 C7 0.929 . S
C14 O5 1.250 . S
C14 O6 1.258 . S
O15 Mn0 2.162 . S
O15 C3 1.281 1_554 S
O16 Mn0 2.297 1_556 S
O16 C3 1.236 . S
N17 Mn1 2.282 1_556 S
N17 C18 1.328 1_556 S
N17 C22 1.318 . S
C18 N17 1.328 1_554 S
C18 C19 1.457 1_554 S
C18 H23 0.929 . S
C19 C18 1.457 1_556 S
C19 C20 1.291 . S
C19 H32 0.931 . S
C20 C19 1.291 . S
C20 C21 1.373 . S
C20 H33 0.929 . S
C21 C20 1.373 . S
C21 C22 1.396 . S
C21 C28 1.403 . S
C22 C12 1.476 . S
C22 N17 1.318 . S
C22 C21 1.396 . S
H23 C18 0.929 . S
O24 Mn0 2.385 1_556 S
O24 C2 1.234 1_655 S
O25 Mn0 2.209 1_456 S
O25 Mn1 2.215 1_556 S
O25 C2 1.283 . S
O26 Mn0 2.094 . S
O26 C4 1.230 1_655 S
O27 Mn1 2.117 . S
O27 C4 1.290 . S
C28 C21 1.403 . S
C28 C29 1.399 . S
C28 H34 0.929 . S
C29 C9 1.449 . S
C29 C28 1.399 . S
C29 H35 0.930 . S
H30 C10 0.931 . S
H31 C11 0.930 . S
H32 C19 0.931 . S
H33 C20 0.929 . S
H34 C28 0.929 . S
H35 C29 0.930 . S
Mn36 O41 2.095 1_554 S
Mn36 O51 2.162 . S
Mn36 O52 2.297 . S
Mn36 O60 2.385 . S
Mn36 O61 2.209 . S
Mn36 O62 2.094 1_554 S
Mn37 O42 2.121 . S
Mn37 N44 2.257 1_556 S
Mn37 N53 2.282 1_556 S
Mn37 O61 2.215 1_556 S
Mn37 O63 2.117 . S
C38 O60 1.234 . S
C38 O61 1.283 . S
C39 O51 1.281 . S
C39 O52 1.236 . S
C40 O62 1.240 . S
C40 O63 1.264 . S
O41 Mn36 2.095 1_556 S
O41 C50 1.250 . S
O42 Mn37 2.121 . S
O42 C50 1.258 . S
C43 N44 1.326 . S
C43 C47 1.460 . S
C43 H49 0.929 . S
N44 Mn37 2.257 1_554 S
N44 C43 1.326 . S
N44 C48 1.362 . S
C45 C46 1.258 . S
C45 C48 1.431 . S
C45 C65 1.449 . S
C46 C45 1.258 . S
C46 C47 1.477 . S
C46 H66 0.931 . S
C47 C43 1.460 . S
C47 C46 1.477 . S
C47 H67 0.930 . S
C48 N44 1.362 . S
C48 C45 1.431 . S
C48 C58 1.476 . S
H49 C43 0.929 . S
C50 O41 1.250 . S
C50 O42 1.258 . S
O51 Mn36 2.162 . S
O51 C39 1.281 . S
O52 Mn36 2.297 . S
O52 C39 1.236 . S
N53 Mn37 2.282 1_554 S
N53 C54 1.328 . S
N53 C58 1.318 . S
C54 N53 1.328 . S
C54 C55 1.457 . S
C54 H59 0.929 1_554 S
C55 C54 1.457 . S
C55 C56 1.291 . S
C55 H68 0.931 . S
C56 C55 1.291 . S
C56 C57 1.373 . S
C56 H69 0.929 . S
C57 C56 1.373 . S
C57 C58 1.396 . S
C57 C64 1.403 . S
C58 C48 1.476 . S
C58 N53 1.318 . S
C58 C57 1.396 . S
H59 C54 0.929 1_556 S
O60 Mn36 2.385 . S
O60 C38 1.234 . S
O61 Mn36 2.209 . S
O61 Mn37 2.215 1_554 S
O61 C38 1.283 . S
O62 Mn36 2.094 1_556 S
O62 C40 1.240 . S
O63 Mn37 2.117 . S
O63 C40 1.264 . S
C64 C57 1.403 . S
C64 C65 1.399 . S
C64 H70 0.929 . S
C65 C45 1.449 . S
C65 C64 1.399 . S
C65 H71 0.930 . S
H66 C46 0.931 . S
H67 C47 0.930 . S
H68 C55 0.931 . S
H69 C56 0.929 . S
H70 C64 0.929 . S
H71 C65 0.930 . S
Mn72 O77 2.095 1_564 S
Mn72 O87 2.162 . S
Mn72 O88 2.297 . S
Mn72 O96 2.385 . S
Mn72 O97 2.209 1_565 S
Mn72 O98 2.094 1_554 S
Mn73 O78 2.121 1_554 S
Mn73 N80 2.257 . S
Mn73 N89 2.282 . S
Mn73 O97 2.215 . S
Mn73 O99 2.117 1_554 S
C74 O96 1.197 1_545 S
C74 O97 1.322 . S
C75 O87 1.281 . S
C75 O88 1.236 . S
C76 O98 1.253 . S
C76 O99 1.235 1_565 S
O77 Mn72 2.095 1_546 S
O77 C86 1.250 . S
O78 Mn73 2.121 1_556 S
O78 C86 1.258 . S
C79 N80 1.326 . S
C79 C83 1.460 . S
C79 H85 0.929 . S
N80 Mn73 2.257 . S
N80 C79 1.326 . S
N80 C84 1.362 . S
C81 C82 1.258 . S
C81 C84 1.431 . S
C81 C101 1.449 . S
C82 C81 1.258 . S
C82 C83 1.477 . S
C82 H102 0.931 . S
C83 C79 1.460 . S
C83 C82 1.477 . S
C83 H103 0.930 . S
C84 N80 1.362 . S
C84 C81 1.431 . S
C84 C94 1.476 . S
H85 C79 0.929 . S
C86 O77 1.250 . S
C86 O78 1.258 . S
O87 Mn72 2.162 . S
O87 C75 1.281 . S
O88 Mn72 2.297 . S
O88 C75 1.236 . S
N89 Mn73 2.282 . S
N89 C90 1.328 . S
N89 C94 1.318 . S
C90 N89 1.328 . S
C90 C91 1.457 . S
C90 H95 0.929 . S
C91 C90 1.457 . S
C91 C92 1.291 . S
C91 H104 0.931 . S
C92 C91 1.291 . S
C92 C93 1.373 . S
C92 H105 0.929 . S
C93 C92 1.373 . S
C93 C94 1.396 . S
C93 C100 1.403 . S
C94 C84 1.476 . S
C94 N89 1.318 . S
C94 C93 1.396 . S
H95 C90 0.929 . S
O96 Mn72 2.385 . S
O96 C74 1.197 1_565 S
O97 Mn72 2.209 1_545 S
O97 Mn73 2.215 . S
O97 C74 1.322 . S
O98 Mn72 2.094 1_556 S
O98 C76 1.253 . S
O99 Mn73 2.117 1_556 S
O99 C76 1.235 1_545 S
C100 C93 1.403 . S
C100 C101 1.399 . S
C100 H106 0.929 . S
C101 C81 1.449 . S
C101 C100 1.399 . S
C101 H107 0.930 . S
H102 C82 0.931 . S
H103 C83 0.930 . S
H104 C91 0.931 . S
H105 C92 0.929 . S
H106 C100 0.929 . S
H107 C101 0.930 . S
Mn108 O113 2.095 1_655 S
Mn108 O123 2.162 . S
Mn108 O124 2.297 1_554 S
Mn108 O132 2.385 1_554 S
Mn108 O133 2.209 1_654 S
Mn108 O134 2.094 . S
Mn109 O114 2.121 . S
Mn109 N116 2.257 1_554 S
Mn109 N125 2.282 1_554 S
Mn109 O133 2.215 1_554 S
Mn109 O135 2.117 . S
C110 O132 1.234 1_455 S
C110 O133 1.283 . S
C111 O123 1.281 1_556 S
C111 O124 1.236 . S
C112 O134 1.243 1_455 S
C112 O135 1.261 . S
O113 Mn108 2.095 1_455 S
O113 C122 1.250 . S
O114 Mn109 2.121 . S
O114 C122 1.258 . S
C115 N116 1.326 . S
C115 C119 1.460 . S
C115 H121 0.929 . S
N116 Mn109 2.257 1_556 S
N116 C115 1.326 . S
N116 C120 1.362 . S
C117 C118 1.258 . S
C117 C120 1.431 . S
C117 C137 1.449 . S
C118 C117 1.258 . S
C118 C119 1.477 . S
C118 H138 0.931 . S
C119 C115 1.460 . S
C119 C118 1.477 . S
C119 H139 0.930 . S
C120 N116 1.362 . S
C120 C117 1.431 . S
C120 C130 1.476 . S
H121 C115 0.929 . S
C122 O113 1.250 . S
C122 O114 1.258 . S
O123 Mn108 2.162 . S
O123 C111 1.281 1_554 S
O124 Mn108 2.297 1_556 S
O124 C111 1.236 . S
N125 Mn109 2.282 1_556 S
N125 C126 1.328 1_556 S
N125 C130 1.318 . S
C126 N125 1.328 1_554 S
C126 C127 1.457 1_554 S
C126 H131 0.929 . S
C127 C126 1.457 1_556 S
C127 C128 1.291 . S
C127 H140 0.931 . S
C128 C127 1.291 . S
C128 C129 1.373 . S
C128 H141 0.929 . S
C129 C128 1.373 . S
C129 C130 1.396 . S
C129 C136 1.403 . S
C130 C120 1.476 . S
C130 N125 1.318 . S
C130 C129 1.396 . S
H131 C126 0.929 . S
O132 Mn108 2.385 1_556 S
O132 C110 1.234 1_655 S
O133 Mn108 2.209 1_456 S
O133 Mn109 2.215 1_556 S
O133 C110 1.283 . S
O134 Mn108 2.094 . S
O134 C112 1.243 1_655 S
O135 Mn109 2.117 . S
O135 C112 1.261 . S
C136 C129 1.403 . S
C136 C137 1.399 . S
C136 H142 0.929 . S
C137 C117 1.449 . S
C137 C136 1.399 . S
C137 H143 0.930 . S
H138 C118 0.931 . S
H139 C119 0.930 . S
H140 C127 0.931 . S
H141 C128 0.929 . S
H142 C136 0.929 . S
H143 C137 0.930 . S
Mn144 O149 2.095 1_554 S
Mn144 O159 2.162 . S
Mn144 O160 2.297 . S
Mn144 O168 2.385 . S
Mn144 O169 2.209 . S
Mn144 O170 2.094 1_554 S
Mn145 O150 2.116 1_554 S
Mn145 N152 2.285 . S
Mn145 N161 2.297 . S
Mn145 O169 2.244 . S
Mn145 O171 2.090 1_554 S
C146 O168 1.234 . S
C146 O169 1.283 . S
C147 O159 1.281 . S
C147 O160 1.236 . S
C148 O170 1.240 . S
C148 O171 1.264 . S
O149 Mn144 2.095 1_556 S
O149 C158 1.250 . S
O150 Mn145 2.116 1_556 S
O150 C158 1.258 . S
C151 N152 1.326 . S
C151 C155 1.460 . S
C151 H157 0.929 . S
N152 Mn145 2.285 . S
N152 C151 1.326 . S
N152 C156 1.362 . S
C153 C154 1.258 . S
C153 C156 1.431 . S
C153 C173 1.449 . S
C154 C153 1.258 . S
C154 C155 1.477 . S
C154 H174 0.931 . S
C155 C151 1.460 . S
C155 C154 1.477 . S
C155 H175 0.930 . S
C156 N152 1.362 . S
C156 C153 1.431 . S
C156 C166 1.476 . S
H157 C151 0.929 . S
C158 O149 1.250 . S
C158 O150 1.258 . S
O159 Mn144 2.162 . S
O159 C147 1.281 . S
O160 Mn144 2.297 . S
O160 C147 1.236 . S
N161 Mn145 2.297 . S
N161 C162 1.328 . S
N161 C166 1.318 . S
C162 N161 1.328 . S
C162 C163 1.457 . S
C162 H167 0.929 1_554 S
C163 C162 1.457 . S
C163 C164 1.291 . S
C163 H176 0.931 . S
C164 C163 1.291 . S
C164 C165 1.373 . S
C164 H177 0.929 . S
C165 C164 1.373 . S
C165 C166 1.396 . S
C165 C172 1.403 . S
C166 C156 1.476 . S
C166 N161 1.318 . S
C166 C165 1.396 . S
H167 C162 0.929 1_556 S
O168 Mn144 2.385 . S
O168 C146 1.234 . S
O169 Mn144 2.209 . S
O169 Mn145 2.244 . S
O169 C146 1.283 . S
O170 Mn144 2.094 1_556 S
O170 C148 1.240 . S
O171 Mn145 2.090 1_556 S
O171 C148 1.264 . S
C172 C165 1.403 . S
C172 C173 1.399 . S
C172 H178 0.929 . S
C173 C153 1.449 . S
C173 C172 1.399 . S
C173 H179 0.930 . S
H174 C154 0.931 . S
H175 C155 0.930 . S
H176 C163 0.931 . S
H177 C164 0.929 . S
H178 C172 0.929 . S
H179 C173 0.930 . S
Mn180 O185 2.095 1_545 S
Mn180 O195 2.162 . S
Mn180 O196 2.297 1_554 S
Mn180 O204 2.385 1_554 S
Mn180 O205 2.209 1_544 S
Mn180 O206 2.094 . S
Mn181 O186 2.121 . S
Mn181 N188 2.257 1_554 S
Mn181 N197 2.282 1_554 S
Mn181 O205 2.215 1_554 S
Mn181 O207 2.117 . S
C182 O204 1.283 . S
C182 O205 1.234 1_545 S
C183 O195 1.281 1_556 S
C183 O196 1.236 . S
C184 O206 1.240 . S
C184 O207 1.264 1_545 S
O185 Mn180 2.095 1_565 S
O185 C194 1.250 . S
O186 Mn181 2.121 . S
O186 C194 1.258 . S
C187 N188 1.326 . S
C187 C191 1.460 . S
C187 H193 0.929 . S
N188 Mn181 2.257 1_556 S
N188 C187 1.326 . S
N188 C192 1.362 . S
C189 C190 1.258 . S
C189 C192 1.431 . S
C189 C209 1.449 . S
C190 C189 1.258 . S
C190 C191 1.477 . S
C190 H210 0.931 . S
C191 C187 1.460 . S
C191 C190 1.477 . S
C191 H211 0.930 . S
C192 N188 1.362 . S
C192 C189 1.431 . S
C192 C202 1.476 . S
H193 C187 0.929 . S
C194 O185 1.250 . S
C194 O186 1.258 . S
O195 Mn180 2.162 . S
O195 C183 1.281 1_554 S
O196 Mn180 2.297 1_556 S
O196 C183 1.236 . S
N197 Mn181 2.282 1_556 S
N197 C198 1.328 1_556 S
N197 C202 1.318 . S
C198 N197 1.328 1_554 S
C198 C199 1.457 1_554 S
C198 H203 0.929 . S
C199 C198 1.457 1_556 S
C199 C200 1.291 . S
C199 H212 0.931 . S
C200 C199 1.291 . S
C200 C201 1.373 . S
C200 H213 0.929 . S
C201 C200 1.373 . S
C201 C202 1.396 . S
C201 C208 1.403 . S
C202 C192 1.476 . S
C202 N197 1.318 . S
C202 C201 1.396 . S
H203 C198 0.929 . S
O204 Mn180 2.385 1_556 S
O204 C182 1.283 . S
O205 Mn180 2.209 1_566 S
O205 Mn181 2.215 1_556 S
O205 C182 1.234 1_565 S
O206 Mn180 2.094 . S
O206 C184 1.240 . S
O207 Mn181 2.117 . S
O207 C184 1.264 1_565 S
C208 C201 1.403 . S
C208 C209 1.399 . S
C208 H214 0.929 . S
C209 C189 1.449 . S
C209 C208 1.399 . S
C209 H215 0.930 . S
H210 C190 0.931 . S
H211 C191 0.930 . S
H212 C199 0.931 . S
H213 C200 0.929 . S
H214 C208 0.929 . S
H215 C209 0.930 . S
Mn216 O221 2.095 . S
Mn216 O231 2.162 . S
Mn216 O232 2.297 . S
Mn216 O240 2.385 . S
Mn216 O241 2.209 . S
Mn216 O242 2.094 . S
Mn217 O222 2.121 . S
Mn217 N224 2.257 . S
Mn217 N233 2.282 . S
Mn217 O241 2.215 . S
Mn217 O243 2.117 . S
C218 O240 1.234 . S
C218 O241 1.283 . S
C219 O231 1.281 . S
C219 O232 1.236 . S
C220 O242 1.240 . S
C220 O243 1.264 . S
O221 Mn216 2.095 . S
O221 C230 1.250 . S
O222 Mn217 2.121 . S
O222 C230 1.258 . S
C223 N224 1.326 . S
C223 C227 1.460 . S
C223 H229 0.929 . S
N224 Mn217 2.257 . S
N224 C223 1.326 . S
N224 C228 1.362 . S
C225 C226 1.258 . S
C225 C228 1.431 . S
C225 C245 1.449 . S
C226 C225 1.258 . S
C226 C227 1.477 . S
C226 H246 0.931 . S
C227 C223 1.460 . S
C227 C226 1.477 . S
C227 H247 0.930 . S
C228 N224 1.362 . S
C228 C225 1.431 . S
C228 C238 1.476 . S
H229 C223 0.929 . S
C230 O221 1.250 . S
C230 O222 1.258 . S
O231 Mn216 2.162 . S
O231 C219 1.281 . S
O232 Mn216 2.297 . S
O232 C219 1.236 . S
N233 Mn217 2.282 . S
N233 C234 1.328 . S
N233 C238 1.318 . S
C234 N233 1.328 . S
C234 C235 1.457 . S
C234 H239 0.929 . S
C235 C234 1.457 . S
C235 C236 1.291 . S
C235 H248 0.931 . S
C236 C235 1.291 . S
C236 C237 1.373 . S
C236 H249 0.929 . S
C237 C236 1.373 . S
C237 C238 1.396 . S
C237 C244 1.403 . S
C238 C228 1.476 . S
C238 N233 1.318 . S
C238 C237 1.396 . S
H239 C234 0.929 . S
O240 Mn216 2.385 . S
O240 C218 1.234 . S
O241 Mn216 2.209 . S
O241 Mn217 2.215 . S
O241 C218 1.283 . S
O242 Mn216 2.094 . S
O242 C220 1.240 . S
O243 Mn217 2.117 . S
O243 C220 1.264 . S
C244 C237 1.403 . S
C244 C245 1.399 . S
C244 H250 0.929 . S
C245 C225 1.449 . S
C245 C244 1.399 . S
C245 H251 0.930 . S
H246 C226 0.931 . S
H247 C227 0.930 . S
H248 C235 0.931 . S
H249 C236 0.929 . S
H250 C244 0.929 . S
H251 C245 0.930 . S
Mn252 O257 2.095 . S
Mn252 O267 2.162 1_565 S
Mn252 O268 2.297 1_565 S
Mn252 O276 2.385 . S
Mn252 O277 2.209 . S
Mn252 O278 2.094 . S
Mn253 O258 2.121 . S
Mn253 N260 2.257 . S
Mn253 N269 2.282 . S
Mn253 O277 2.215 . S
Mn253 O279 2.117 . S
C254 O276 1.234 . S
C254 O277 1.283 . S
C255 O267 1.281 . S
C255 O268 1.236 . S
C256 O278 1.240 . S
C256 O279 1.264 . S
O257 Mn252 2.095 . S
O257 C266 1.250 . S
O258 Mn253 2.121 . S
O258 C266 1.258 . S
C259 N260 1.326 . S
C259 C263 1.460 . S
C259 H265 0.929 . S
N260 Mn253 2.257 . S
N260 C259 1.326 . S
N260 C264 1.362 . S
C261 C262 1.258 . S
C261 C264 1.431 . S
C261 C281 1.449 . S
C262 C261 1.258 . S
C262 C263 1.477 . S
C262 H282 0.931 . S
C263 C259 1.460 . S
C263 C262 1.477 . S
C263 H283 0.930 . S
C264 N260 1.362 . S
C264 C261 1.431 . S
C264 C274 1.476 . S
H265 C259 0.929 . S
C266 O257 1.250 . S
C266 O258 1.258 . S
O267 Mn252 2.162 1_545 S
O267 C255 1.281 . S
O268 Mn252 2.297 1_545 S
O268 C255 1.236 . S
N269 Mn253 2.282 . S
N269 C270 1.328 . S
N269 C274 1.318 . S
C270 N269 1.328 . S
C270 C271 1.457 . S
C270 H275 0.929 . S
C271 C270 1.457 . S
C271 C272 1.291 . S
C271 H284 0.931 . S
C272 C271 1.291 . S
C272 C273 1.373 . S
C272 H285 0.929 . S
C273 C272 1.373 . S
C273 C274 1.396 . S
C273 C280 1.403 . S
C274 C264 1.476 . S
C274 N269 1.318 . S
C274 C273 1.396 . S
H275 C270 0.929 . S
O276 Mn252 2.385 . S
O276 C254 1.234 . S
O277 Mn252 2.209 . S
O277 Mn253 2.215 . S
O277 C254 1.283 . S
O278 Mn252 2.094 . S
O278 C256 1.240 . S
O279 Mn253 2.117 . S
O279 C256 1.264 . S
C280 C273 1.403 . S
C280 C281 1.399 . S
C280 H286 0.929 . S
C281 C261 1.449 . S
C281 C280 1.399 . S
C281 H287 0.930 . S
H282 C262 0.931 . S
H283 C263 0.930 . S
H284 C271 0.931 . S
H285 C272 0.929 . S
H286 C280 0.929 . S
H287 C281 0.930 . S
Mn288 O293 2.095 . S
Mn288 O303 2.162 1_455 S
Mn288 O304 2.297 1_455 S
Mn288 O312 2.385 . S
Mn288 O313 2.209 . S
Mn288 O314 2.094 . S
Mn289 O294 2.121 . S
Mn289 N296 2.257 . S
Mn289 N305 2.282 . S
Mn289 O313 2.215 . S
Mn289 O315 2.117 . S
C290 O312 1.234 . S
C290 O313 1.283 . S
C291 O303 1.281 . S
C291 O304 1.236 . S
C292 O314 1.240 . S
C292 O315 1.264 . S
O293 Mn288 2.095 . S
O293 C302 1.250 . S
O294 Mn289 2.121 . S
O294 C302 1.258 . S
C295 N296 1.326 . S
C295 C299 1.460 . S
C295 H301 0.929 . S
N296 Mn289 2.257 . S
N296 C295 1.326 . S
N296 C300 1.362 . S
C297 C298 1.258 . S
C297 C300 1.431 . S
C297 C317 1.449 . S
C298 C297 1.258 . S
C298 C299 1.477 . S
C298 H318 0.931 . S
C299 C295 1.460 . S
C299 C298 1.477 . S
C299 H319 0.930 . S
C300 N296 1.362 . S
C300 C297 1.431 . S
C300 C310 1.476 . S
H301 C295 0.929 . S
C302 O293 1.250 . S
C302 O294 1.258 . S
O303 Mn288 2.162 1_655 S
O303 C291 1.281 . S
O304 Mn288 2.297 1_655 S
O304 C291 1.236 . S
N305 Mn289 2.282 . S
N305 C306 1.328 . S
N305 C310 1.318 . S
C306 N305 1.328 . S
C306 C307 1.457 . S
C306 H311 0.929 . S
C307 C306 1.457 . S
C307 C308 1.291 . S
C307 H320 0.931 . S
C308 C307 1.291 . S
C308 C309 1.373 . S
C308 H321 0.929 . S
C309 C308 1.373 . S
C309 C310 1.396 . S
C309 C316 1.403 . S
C310 C300 1.476 . S
C310 N305 1.318 . S
C310 C309 1.396 . S
H311 C306 0.929 . S
O312 Mn288 2.385 . S
O312 C290 1.234 . S
O313 Mn288 2.209 . S
O313 Mn289 2.215 . S
O313 C290 1.283 . S
O314 Mn288 2.094 . S
O314 C292 1.240 . S
O315 Mn289 2.117 . S
O315 C292 1.264 . S
C316 C309 1.403 . S
C316 C317 1.399 . S
C316 H322 0.929 . S
C317 C297 1.449 . S
C317 C316 1.399 . S
C317 H323 0.930 . S
H318 C298 0.931 . S
H319 C299 0.930 . S
H320 C307 0.931 . S
H321 C308 0.929 . S
H322 C316 0.929 . S
H323 C317 0.930 . S
Mn324 O329 2.095 1_565 S
Mn324 O339 2.162 . S
Mn324 O340 2.297 . S
Mn324 O348 2.385 . S
Mn324 O349 2.209 . S
Mn324 O350 2.094 . S
Mn325 O330 2.121 1_565 S
Mn325 N332 2.257 . S
Mn325 N341 2.282 . S
Mn325 O349 2.215 . S
Mn325 O351 2.117 . S
C326 O348 1.234 . S
C326 O349 1.283 . S
C327 O339 1.281 . S
C327 O340 1.236 . S
C328 O350 1.240 . S
C328 O351 1.264 . S
O329 Mn324 2.095 1_545 S
O329 C338 1.250 . S
O330 Mn325 2.121 1_545 S
O330 C338 1.258 . S
C331 N332 1.326 1_545 S
C331 C335 1.460 . S
C331 H337 0.929 . S
N332 Mn325 2.257 . S
N332 C331 1.326 1_565 S
N332 C336 1.362 . S
C333 C334 1.258 . S
C333 C336 1.431 . S
C333 C353 1.449 . S
C334 C333 1.258 . S
C334 C335 1.477 1_565 S
C334 H354 0.947 1_565 S
C335 C331 1.460 . S
C335 C334 1.477 1_545 S
C335 H355 0.930 . S
C336 N332 1.362 . S
C336 C333 1.431 . S
C336 C346 1.476 . S
H337 C331 0.929 . S
C338 O329 1.250 . S
C338 O330 1.258 . S
O339 Mn324 2.162 . S
O339 C327 1.281 . S
O340 Mn324 2.297 . S
O340 C327 1.236 . S
N341 Mn325 2.282 . S
N341 C342 1.328 . S
N341 C346 1.318 . S
C342 N341 1.328 . S
C342 C343 1.457 . S
C342 H347 0.929 . S
C343 C342 1.457 . S
C343 C344 1.291 . S
C343 H356 0.931 . S
C344 C343 1.291 . S
C344 C345 1.373 . S
C344 H357 0.929 . S
C345 C344 1.373 . S
C345 C346 1.396 . S
C345 C352 1.403 . S
C346 C336 1.476 . S
C346 N341 1.318 . S
C346 C345 1.396 . S
H347 C342 0.929 . S
O348 Mn324 2.385 . S
O348 C326 1.234 . S
O349 Mn324 2.209 . S
O349 Mn325 2.215 . S
O349 C326 1.283 . S
O350 Mn324 2.094 . S
O350 C328 1.240 . S
O351 Mn325 2.117 . S
O351 C328 1.264 . S
C352 C345 1.403 . S
C352 C353 1.399 . S
C352 H358 0.929 . S
C353 C333 1.449 . S
C353 C352 1.399 . S
C353 H359 0.930 . S
H354 C334 0.947 1_545 S
H355 C335 0.930 . S
H356 C343 0.931 . S
H357 C344 0.929 . S
H358 C352 0.929 . S
H359 C353 0.930 . S
Mn360 O365 2.095 . S
Mn360 O375 2.162 1_455 S
Mn360 O376 2.297 1_455 S
Mn360 O384 2.385 . S
Mn360 O385 2.209 . S
Mn360 O386 2.094 . S
Mn361 O366 2.121 . S
Mn361 N368 2.257 . S
Mn361 N377 2.282 . S
Mn361 O385 2.215 . S
Mn361 O387 2.117 . S
C362 O384 1.234 . S
C362 O385 1.283 . S
C363 O375 1.281 . S
C363 O376 1.236 . S
C364 O386 1.240 . S
C364 O387 1.264 . S
O365 Mn360 2.095 . S
O365 C374 1.250 . S
O366 Mn361 2.121 . S
O366 C374 1.258 . S
C367 N368 1.326 . S
C367 C371 1.460 . S
C367 H373 0.929 . S
N368 Mn361 2.257 . S
N368 C367 1.326 . S
N368 C372 1.362 . S
C369 C370 1.258 . S
C369 C372 1.431 . S
C369 C389 1.449 . S
C370 C369 1.258 . S
C370 C371 1.477 . S
C370 H390 0.931 . S
C371 C367 1.460 . S
C371 C370 1.477 . S
C371 H391 0.930 . S
C372 N368 1.362 . S
C372 C369 1.431 . S
C372 C382 1.476 . S
H373 C367 0.929 . S
C374 O365 1.250 . S
C374 O366 1.258 . S
O375 Mn360 2.162 1_655 S
O375 C363 1.281 . S
O376 Mn360 2.297 1_655 S
O376 C363 1.236 . S
N377 Mn361 2.282 . S
N377 C378 1.328 . S
N377 C382 1.318 . S
C378 N377 1.328 . S
C378 C379 1.457 . S
C378 H383 0.929 . S
C379 C378 1.457 . S
C379 C380 1.291 . S
C379 H392 0.931 . S
C380 C379 1.291 . S
C380 C381 1.373 . S
C380 H393 0.929 . S
C381 C380 1.373 . S
C381 C382 1.396 . S
C381 C388 1.403 . S
C382 C372 1.476 . S
C382 N377 1.318 . S
C382 C381 1.396 . S
H383 C378 0.929 . S
O384 Mn360 2.385 . S
O384 C362 1.234 . S
O385 Mn360 2.209 . S
O385 Mn361 2.215 . S
O385 C362 1.283 . S
O386 Mn360 2.094 . S
O386 C364 1.240 . S
O387 Mn361 2.117 . S
O387 C364 1.264 . S
C388 C381 1.403 . S
C388 C389 1.399 . S
C388 H394 0.929 . S
C389 C369 1.449 . S
C389 C388 1.399 . S
C389 H395 0.930 . S
H390 C370 0.931 . S
H391 C371 0.930 . S
H392 C379 0.931 . S
H393 C380 0.929 . S
H394 C388 0.929 . S
H395 C389 0.930 . S
Mn396 O401 2.095 . S
Mn396 O411 2.162 . S
Mn396 O412 2.297 . S
Mn396 O420 2.385 . S
Mn396 O421 2.209 . S
Mn396 O422 2.094 . S
Mn397 O402 2.121 . S
Mn397 N404 2.257 . S
Mn397 N413 2.282 . S
Mn397 O421 2.215 . S
Mn397 O423 2.117 . S
C398 O420 1.234 . S
C398 O421 1.283 . S
C399 O411 1.281 . S
C399 O412 1.236 . S
C400 O422 1.240 . S
C400 O423 1.264 . S
O401 Mn396 2.095 . S
O401 C410 1.250 . S
O402 Mn397 2.121 . S
O402 C410 1.258 . S
C403 N404 1.326 . S
C403 C407 1.460 . S
C403 H409 0.929 . S
N404 Mn397 2.257 . S
N404 C403 1.326 . S
N404 C408 1.362 . S
C405 C406 1.258 . S
C405 C408 1.431 . S
C405 C425 1.449 . S
C406 C405 1.258 . S
C406 C407 1.477 . S
C406 H426 0.931 . S
C407 C403 1.460 . S
C407 C406 1.477 . S
C407 H427 0.930 . S
C408 N404 1.362 . S
C408 C405 1.431 . S
C408 C418 1.476 . S
H409 C403 0.929 . S
C410 O401 1.250 . S
C410 O402 1.258 . S
O411 Mn396 2.162 . S
O411 C399 1.281 . S
O412 Mn396 2.297 . S
O412 C399 1.236 . S
N413 Mn397 2.282 . S
N413 C414 1.328 . S
N413 C418 1.318 . S
C414 N413 1.328 . S
C414 C415 1.457 . S
C414 H419 0.929 . S
C415 C414 1.457 . S
C415 C416 1.291 . S
C415 H428 0.931 . S
C416 C415 1.291 . S
C416 C417 1.373 . S
C416 H429 0.929 . S
C417 C416 1.373 . S
C417 C418 1.396 . S
C417 C424 1.403 . S
C418 C408 1.476 . S
C418 N413 1.318 . S
C418 C417 1.396 . S
H419 C414 0.929 . S
O420 Mn396 2.385 . S
O420 C398 1.234 . S
O421 Mn396 2.209 . S
O421 Mn397 2.215 . S
O421 C398 1.283 . S
O422 Mn396 2.094 . S
O422 C400 1.240 . S
O423 Mn397 2.117 . S
O423 C400 1.264 . S
C424 C417 1.403 . S
C424 C425 1.399 . S
C424 H430 0.929 . S
C425 C405 1.449 . S
C425 C424 1.399 . S
C425 H431 0.930 . S
H426 C406 0.931 . S
H427 C407 0.930 . S
H428 C415 0.931 . S
H429 C416 0.929 . S
H430 C424 0.929 . S
H431 C425 0.930 . S
Mn432 O437 2.095 . S
Mn432 O447 2.162 1_545 S
Mn432 O448 2.297 1_545 S
Mn432 O456 2.385 . S
Mn432 O457 2.209 . S
Mn432 O458 2.094 . S
Mn433 O438 2.121 . S
Mn433 N440 2.257 . S
Mn433 N449 2.282 . S
Mn433 O457 2.215 . S
Mn433 O459 2.117 . S
C434 O456 1.234 . S
C434 O457 1.283 . S
C435 O447 1.281 . S
C435 O448 1.236 . S
C436 O458 1.240 . S
C436 O459 1.264 . S
O437 Mn432 2.095 . S
O437 C446 1.250 . S
O438 Mn433 2.121 . S
O438 C446 1.258 . S
C439 N440 1.326 . S
C439 C443 1.460 . S
C439 H445 0.929 . S
N440 Mn433 2.257 . S
N440 C439 1.326 . S
N440 C444 1.362 . S
C441 C442 1.258 . S
C441 C444 1.431 . S
C441 C461 1.449 . S
C442 C441 1.258 . S
C442 C443 1.477 . S
C442 H462 0.931 . S
C443 C439 1.460 . S
C443 C442 1.477 . S
C443 H463 0.930 . S
C444 N440 1.362 . S
C444 C441 1.431 . S
C444 C454 1.476 . S
H445 C439 0.929 . S
C446 O437 1.250 . S
C446 O438 1.258 . S
O447 Mn432 2.162 1_565 S
O447 C435 1.281 . S
O448 Mn432 2.297 1_565 S
O448 C435 1.236 . S
N449 Mn433 2.282 . S
N449 C450 1.328 . S
N449 C454 1.318 . S
C450 N449 1.328 . S
C450 C451 1.457 . S
C450 H455 0.929 . S
C451 C450 1.457 . S
C451 C452 1.291 . S
C451 H464 0.931 . S
C452 C451 1.291 . S
C452 C453 1.373 . S
C452 H465 0.929 . S
C453 C452 1.373 . S
C453 C454 1.396 . S
C453 C460 1.403 . S
C454 C444 1.476 . S
C454 N449 1.318 . S
C454 C453 1.396 . S
H455 C450 0.929 . S
O456 Mn432 2.385 . S
O456 C434 1.234 . S
O457 Mn432 2.209 . S
O457 Mn433 2.215 . S
O457 C434 1.283 . S
O458 Mn432 2.094 . S
O458 C436 1.240 . S
O459 Mn433 2.117 . S
O459 C436 1.264 . S
C460 C453 1.403 . S
C460 C461 1.399 . S
C460 H466 0.929 . S
C461 C441 1.449 . S
C461 C460 1.399 . S
C461 H467 0.930 . S
H462 C442 0.931 . S
H463 C443 0.930 . S
H464 C451 0.931 . S
H465 C452 0.929 . S
H466 C460 0.929 . S
H467 C461 0.930 . S
Mn468 O473 2.118 . S
Mn468 O483 2.162 . S
Mn468 O484 2.297 . S
Mn468 O492 2.385 . S
Mn468 O493 2.209 . S
Mn468 O494 2.094 . S
Mn469 O474 2.121 1_655 S
Mn469 N476 2.257 . S
Mn469 N485 2.282 . S
Mn469 O493 2.215 . S
Mn469 O495 2.117 . S
C470 O492 1.234 . S
C470 O493 1.283 . S
C471 O483 1.281 . S
C471 O484 1.236 . S
C472 O494 1.240 . S
C472 O495 1.264 . S
O473 Mn468 2.118 . S
O473 C482 1.225 1_655 S
O474 Mn469 2.121 1_455 S
O474 C482 1.258 . S
C475 N476 1.326 1_455 S
C475 C479 1.460 . S
C475 H481 0.929 . S
N476 Mn469 2.257 . S
N476 C475 1.326 1_655 S
N476 C480 1.362 . S
C477 C478 1.258 . S
C477 C480 1.431 . S
C477 C497 1.449 . S
C478 C477 1.258 . S
C478 C479 1.477 1_655 S
C478 H498 0.903 1_655 S
C479 C475 1.460 . S
C479 C478 1.477 1_455 S
C479 H499 0.930 . S
C480 N476 1.362 . S
C480 C477 1.431 . S
C480 C490 1.476 . S
H481 C475 0.929 . S
C482 O473 1.225 1_455 S
C482 O474 1.258 . S
O483 Mn468 2.162 . S
O483 C471 1.281 . S
O484 Mn468 2.297 . S
O484 C471 1.236 . S
N485 Mn469 2.282 . S
N485 C486 1.328 . S
N485 C490 1.318 . S
C486 N485 1.328 . S
C486 C487 1.457 . S
C486 H491 0.929 . S
C487 C486 1.457 . S
C487 C488 1.291 . S
C487 H500 0.931 . S
C488 C487 1.291 . S
C488 C489 1.373 . S
C488 H501 0.929 . S
C489 C488 1.373 . S
C489 C490 1.396 . S
C489 C496 1.403 . S
C490 C480 1.476 . S
C490 N485 1.318 . S
C490 C489 1.396 . S
H491 C486 0.929 . S
O492 Mn468 2.385 . S
O492 C470 1.234 . S
O493 Mn468 2.209 . S
O493 Mn469 2.215 . S
O493 C470 1.283 . S
O494 Mn468 2.094 . S
O494 C472 1.240 . S
O495 Mn469 2.117 . S
O495 C472 1.264 . S
C496 C489 1.403 . S
C496 C497 1.399 . S
C496 H502 0.929 . S
C497 C477 1.449 . S
C497 C496 1.399 . S
C497 H503 0.930 . S
H498 C478 0.903 1_455 S
H499 C479 0.930 . S
H500 C487 0.931 . S
H501 C488 0.929 . S
H502 C496 0.929 . S
H503 C497 0.930 . S
Mn504 O509 2.095 . S
Mn504 O519 2.162 . S
Mn504 O520 2.297 . S
Mn504 O528 2.385 . S
Mn504 O529 2.209 . S
Mn504 O530 2.094 . S
Mn505 O510 2.121 . S
Mn505 N512 2.257 . S
Mn505 N521 2.282 . S
Mn505 O529 2.215 . S
Mn505 O531 2.117 . S
C506 O528 1.234 . S
C506 O529 1.283 . S
C507 O519 1.281 . S
C507 O520 1.236 . S
C508 O530 1.240 . S
C508 O531 1.264 . S
O509 Mn504 2.095 . S
O509 C518 1.250 . S
O510 Mn505 2.121 . S
O510 C518 1.258 . S
C511 N512 1.326 . S
C511 C515 1.460 . S
C511 H517 0.929 . S
N512 Mn505 2.257 . S
N512 C511 1.326 . S
N512 C516 1.362 . S
C513 C514 1.258 . S
C513 C516 1.431 . S
C513 C533 1.449 . S
C514 C513 1.258 . S
C514 C515 1.477 . S
C514 H534 0.931 . S
C515 C511 1.460 . S
C515 C514 1.477 . S
C515 H535 0.930 . S
C516 N512 1.362 . S
C516 C513 1.431 . S
C516 C526 1.476 . S
H517 C511 0.929 . S
C518 O509 1.250 . S
C518 O510 1.258 . S
O519 Mn504 2.162 . S
O519 C507 1.281 . S
O520 Mn504 2.297 . S
O520 C507 1.236 . S
N521 Mn505 2.282 . S
N521 C522 1.328 . S
N521 C526 1.318 . S
C522 N521 1.328 . S
C522 C523 1.457 . S
C522 H527 0.929 . S
C523 C522 1.457 . S
C523 C524 1.291 . S
C523 H536 0.931 . S
C524 C523 1.291 . S
C524 C525 1.373 . S
C524 H537 0.929 . S
C525 C524 1.373 . S
C525 C526 1.396 . S
C525 C532 1.403 . S
C526 C516 1.476 . S
C526 N521 1.318 . S
C526 C525 1.396 . S
H527 C522 0.929 . S
O528 Mn504 2.385 . S
O528 C506 1.234 . S
O529 Mn504 2.209 . S
O529 Mn505 2.215 . S
O529 C506 1.283 . S
O530 Mn504 2.094 . S
O530 C508 1.240 . S
O531 Mn505 2.117 . S
O531 C508 1.264 . S
C532 C525 1.403 . S
C532 C533 1.399 . S
C532 H538 0.929 . S
C533 C513 1.449 . S
C533 C532 1.399 . S
C533 H539 0.930 . S
H534 C514 0.931 . S
H535 C515 0.930 . S
H536 C523 0.931 . S
H537 C524 0.929 . S
H538 C532 0.929 . S
H539 C533 0.930 . S
Mn540 O545 2.095 . S
Mn540 O555 2.162 . S
Mn540 O556 2.297 . S
Mn540 O564 2.385 . S
Mn540 O565 2.209 . S
Mn540 O566 2.094 . S
Mn541 O546 2.121 . S
Mn541 N548 2.257 . S
Mn541 N557 2.282 . S
Mn541 O565 2.215 . S
Mn541 O567 2.117 . S
C542 O564 1.234 . S
C542 O565 1.283 . S
C543 O555 1.281 . S
C543 O556 1.236 . S
C544 O566 1.240 . S
C544 O567 1.264 . S
O545 Mn540 2.095 . S
O545 C554 1.250 . S
O546 Mn541 2.121 . S
O546 C554 1.258 . S
C547 N548 1.326 . S
C547 C551 1.460 . S
C547 H553 0.929 . S
N548 Mn541 2.257 . S
N548 C547 1.326 . S
N548 C552 1.362 . S
C549 C550 1.258 . S
C549 C552 1.431 . S
C549 C569 1.449 . S
C550 C549 1.258 . S
C550 C551 1.477 . S
C550 H570 0.931 . S
C551 C547 1.460 . S
C551 C550 1.477 . S
C551 H571 0.930 . S
C552 N548 1.362 . S
C552 C549 1.431 . S
C552 C562 1.476 . S
H553 C547 0.929 . S
C554 O545 1.250 . S
C554 O546 1.258 . S
O555 Mn540 2.162 . S
O555 C543 1.281 . S
O556 Mn540 2.297 . S
O556 C543 1.236 . S
N557 Mn541 2.282 . S
N557 C558 1.328 . S
N557 C562 1.318 . S
C558 N557 1.328 . S
C558 C559 1.457 . S
C558 H563 0.929 . S
C559 C558 1.457 . S
C559 C560 1.291 . S
C559 H572 0.931 . S
C560 C559 1.291 . S
C560 C561 1.373 . S
C560 H573 0.929 . S
C561 C560 1.373 . S
C561 C562 1.396 . S
C561 C568 1.403 . S
C562 C552 1.476 . S
C562 N557 1.318 . S
C562 C561 1.396 . S
H563 C558 0.929 . S
O564 Mn540 2.385 . S
O564 C542 1.234 . S
O565 Mn540 2.209 . S
O565 Mn541 2.215 . S
O565 C542 1.283 . S
O566 Mn540 2.094 . S
O566 C544 1.240 . S
O567 Mn541 2.117 . S
O567 C544 1.264 . S
C568 C561 1.403 . S
C568 C569 1.399 . S
C568 H574 0.929 . S
C569 C549 1.449 . S
C569 C568 1.399 . S
C569 H575 0.930 . S
H570 C550 0.931 . S
H571 C551 0.930 . S
H572 C559 0.931 . S
H573 C560 0.929 . S
H574 C568 0.929 . S
H575 C569 0.930 . S
Mn576 O581 2.095 1_545 S
Mn576 O591 2.162 . S
Mn576 O592 2.297 . S
Mn576 O600 2.385 . S
Mn576 O601 2.209 . S
Mn576 O602 2.094 . S
Mn577 O582 2.121 1_545 S
Mn577 N584 2.257 . S
Mn577 N593 2.282 . S
Mn577 O601 2.215 . S
Mn577 O603 2.117 . S
C578 O600 1.234 . S
C578 O601 1.283 . S
C579 O591 1.281 . S
C579 O592 1.236 . S
C580 O602 1.240 . S
C580 O603 1.264 . S
O581 Mn576 2.095 1_565 S
O581 C590 1.250 . S
O582 Mn577 2.121 1_565 S
O582 C590 1.258 . S
C583 N584 1.326 1_565 S
C583 C587 1.460 . S
C583 H589 0.929 . S
N584 Mn577 2.257 . S
N584 C583 1.326 1_545 S
N584 C588 1.362 . S
C585 C586 1.258 . S
C585 C588 1.431 . S
C585 C605 1.449 . S
C586 C585 1.258 . S
C586 C587 1.477 1_545 S
C586 H606 0.931 1_545 S
C587 C583 1.460 . S
C587 C586 1.477 1_565 S
C587 H607 0.930 . S
C588 N584 1.362 . S
C588 C585 1.431 . S
C588 C598 1.476 . S
H589 C583 0.929 . S
C590 O581 1.250 . S
C590 O582 1.258 . S
O591 Mn576 2.162 . S
O591 C579 1.281 . S
O592 Mn576 2.297 . S
O592 C579 1.236 . S
N593 Mn577 2.282 . S
N593 C594 1.328 . S
N593 C598 1.318 . S
C594 N593 1.328 . S
C594 C595 1.457 . S
C594 H599 0.929 . S
C595 C594 1.457 . S
C595 C596 1.291 . S
C595 H608 0.931 . S
C596 C595 1.291 . S
C596 C597 1.373 . S
C596 H609 0.929 . S
C597 C596 1.373 . S
C597 C598 1.396 . S
C597 C604 1.403 . S
C598 C588 1.476 . S
C598 N593 1.318 . S
C598 C597 1.396 . S
H599 C594 0.929 . S
O600 Mn576 2.385 . S
O600 C578 1.234 . S
O601 Mn576 2.209 . S
O601 Mn577 2.215 . S
O601 C578 1.283 . S
O602 Mn576 2.094 . S
O602 C580 1.240 . S
O603 Mn577 2.117 . S
O603 C580 1.264 . S
C604 C597 1.403 . S
C604 C605 1.399 . S
C604 H610 0.929 . S
C605 C585 1.449 . S
C605 C604 1.399 . S
C605 H611 0.930 . S
H606 C586 0.931 1_565 S
H607 C587 0.930 . S
H608 C595 0.931 . S
H609 C596 0.929 . S
H610 C604 0.929 . S
H611 C605 0.930 . S
Mn612 O617 2.095 . S
Mn612 O627 2.162 1_655 S
Mn612 O628 2.297 1_655 S
Mn612 O636 2.385 . S
Mn612 O637 2.209 . S
Mn612 O638 2.094 . S
Mn613 O618 2.121 . S
Mn613 N620 2.257 . S
Mn613 N629 2.282 . S
Mn613 O637 2.215 . S
Mn613 O639 2.117 . S
C614 O636 1.234 . S
C614 O637 1.283 . S
C615 O627 1.281 . S
C615 O628 1.236 . S
C616 O638 1.240 . S
C616 O639 1.264 . S
O617 Mn612 2.095 . S
O617 C626 1.250 . S
O618 Mn613 2.121 . S
O618 C626 1.258 . S
C619 N620 1.326 . S
C619 C623 1.460 . S
C619 H625 0.929 . S
N620 Mn613 2.257 . S
N620 C619 1.326 . S
N620 C624 1.362 . S
C621 C622 1.258 . S
C621 C624 1.431 . S
C621 C641 1.449 . S
C622 C621 1.258 . S
C622 C623 1.477 . S
C622 H642 0.931 . S
C623 C619 1.460 . S
C623 C622 1.477 . S
C623 H643 0.930 . S
C624 N620 1.362 . S
C624 C621 1.431 . S
C624 C634 1.476 . S
H625 C619 0.929 . S
C626 O617 1.250 . S
C626 O618 1.258 . S
O627 Mn612 2.162 1_455 S
O627 C615 1.281 . S
O628 Mn612 2.297 1_455 S
O628 C615 1.236 . S
N629 Mn613 2.282 . S
N629 C630 1.328 . S
N629 C634 1.318 . S
C630 N629 1.328 . S
C630 C631 1.457 . S
C630 H635 0.929 . S
C631 C630 1.457 . S
C631 C632 1.291 . S
C631 H644 0.931 . S
C632 C631 1.291 . S
C632 C633 1.373 . S
C632 H645 0.929 . S
C633 C632 1.373 . S
C633 C634 1.396 . S
C633 C640 1.403 . S
C634 C624 1.476 . S
C634 N629 1.318 . S
C634 C633 1.396 . S
H635 C630 0.929 . S
O636 Mn612 2.385 . S
O636 C614 1.234 . S
O637 Mn612 2.209 . S
O637 Mn613 2.215 . S
O637 C614 1.283 . S
O638 Mn612 2.094 . S
O638 C616 1.240 . S
O639 Mn613 2.117 . S
O639 C616 1.264 . S
C640 C633 1.403 . S
C640 C641 1.399 . S
C640 H646 0.929 . S
C641 C621 1.449 . S
C641 C640 1.399 . S
C641 H647 0.930 . S
H642 C622 0.931 . S
H643 C623 0.930 . S
H644 C631 0.931 . S
H645 C632 0.929 . S
H646 C640 0.929 . S
H647 C641 0.930 . S
H648 C654 0.930 . S
H649 C657 0.931 . S
H650 C659 0.931 . S
H651 C661 0.930 . S
H652 C663 0.930 . S
H653 C665 0.931 . S
C654 H648 0.930 . S
C654 C655 1.380 . S
C654 C656 1.394 . S
C655 C654 1.380 . S
C655 C659 1.382 . S
C656 C654 1.394 . S
C656 C657 1.400 . S
C657 H649 0.931 . S
C657 C656 1.400 . S
C657 C658 1.375 . S
C658 C657 1.375 . S
C658 C659 1.415 . S
C658 C660 1.501 . S
C659 H650 0.931 . S
C659 C655 1.382 . S
C659 C658 1.415 . S
C660 C658 1.501 . S
C660 C661 1.384 . S
C660 C665 1.408 . S
C661 H651 0.930 . S
C661 C660 1.384 . S
C661 C662 1.389 . S
C662 C661 1.389 . S
C662 C663 1.405 . S
C663 H652 0.930 . S
C663 C662 1.405 . S
C663 C664 1.364 . S
C664 C663 1.364 . S
C664 C665 1.400 . S
C665 H653 0.931 . S
C665 C660 1.408 . S
C665 C664 1.400 . S
H666 C672 0.930 . S
H667 C675 0.931 . S
H668 C677 0.931 . S
H669 C679 0.930 . S
H670 C681 0.930 . S
H671 C683 0.931 . S
C672 H666 0.930 . S
C672 C673 1.380 . S
C672 C674 1.394 . S
C673 C672 1.380 . S
C673 C677 1.382 . S
C674 C672 1.394 . S
C674 C675 1.400 . S
C675 H667 0.931 . S
C675 C674 1.400 . S
C675 C676 1.375 . S
C676 C675 1.375 . S
C676 C677 1.415 . S
C676 C678 1.501 . S
C677 H668 0.931 . S
C677 C673 1.382 . S
C677 C676 1.415 . S
C678 C676 1.501 . S
C678 C679 1.384 . S
C678 C683 1.408 . S
C679 H669 0.930 . S
C679 C678 1.384 . S
C679 C680 1.389 . S
C680 C679 1.389 . S
C680 C681 1.405 . S
C681 H670 0.930 . S
C681 C680 1.405 . S
C681 C682 1.364 . S
C682 C681 1.364 . S
C682 C683 1.400 . S
C683 H671 0.931 . S
C683 C678 1.408 . S
C683 C682 1.400 . S
H684 C690 0.930 . S
H685 C693 0.931 . S
H686 C695 0.931 . S
H687 C697 0.930 . S
H688 C699 0.930 . S
H689 C701 0.931 . S
C690 H684 0.930 . S
C690 C691 1.380 . S
C690 C692 1.394 . S
C691 C690 1.380 . S
C691 C695 1.382 . S
C692 C690 1.394 . S
C692 C693 1.400 . S
C693 H685 0.931 . S
C693 C692 1.400 . S
C693 C694 1.375 . S
C694 C693 1.375 . S
C694 C695 1.415 . S
C694 C696 1.501 . S
C695 H686 0.931 . S
C695 C691 1.382 . S
C695 C694 1.415 . S
C696 C694 1.501 . S
C696 C697 1.384 . S
C696 C701 1.408 . S
C697 H687 0.930 . S
C697 C696 1.384 . S
C697 C698 1.389 . S
C698 C697 1.389 . S
C698 C699 1.405 . S
C699 H688 0.930 . S
C699 C698 1.405 . S
C699 C700 1.364 . S
C700 C699 1.364 . S
C700 C701 1.400 . S
C701 H689 0.931 . S
C701 C696 1.408 . S
C701 C700 1.400 . S
H702 C708 0.930 . S
H703 C711 0.931 . S
H704 C713 0.931 . S
H705 C715 0.930 . S
H706 C717 0.930 . S
H707 C719 0.931 . S
C708 H702 0.930 . S
C708 C709 1.380 . S
C708 C710 1.394 . S
C709 C708 1.380 . S
C709 C713 1.382 . S
C710 C708 1.394 . S
C710 C711 1.400 . S
C711 H703 0.931 . S
C711 C710 1.400 . S
C711 C712 1.375 . S
C712 C711 1.375 . S
C712 C713 1.415 . S
C712 C714 1.501 . S
C713 H704 0.931 . S
C713 C709 1.382 . S
C713 C712 1.415 . S
C714 C712 1.501 . S
C714 C715 1.384 . S
C714 C719 1.408 . S
C715 H705 0.930 . S
C715 C714 1.384 . S
C715 C716 1.389 . S
C716 C715 1.389 . S
C716 C717 1.405 . S
C717 H706 0.930 . S
C717 C716 1.405 . S
C717 C718 1.364 . S
C718 C717 1.364 . S
C718 C719 1.400 . S
C719 H707 0.931 . S
C719 C714 1.408 . S
C719 C718 1.400 . S
H720 C726 0.930 . S
H721 C729 0.931 . S
H722 C731 0.931 . S
H723 C733 0.930 . S
H724 C735 0.930 . S
H725 C737 0.931 . S
C726 H720 0.930 . S
C726 C727 1.380 . S
C726 C728 1.394 . S
C727 C726 1.380 . S
C727 C731 1.382 . S
C728 C726 1.394 . S
C728 C729 1.400 . S
C729 H721 0.931 . S
C729 C728 1.400 . S
C729 C730 1.375 . S
C730 C729 1.375 . S
C730 C731 1.415 . S
C730 C732 1.501 . S
C731 H722 0.931 . S
C731 C727 1.382 . S
C731 C730 1.415 . S
C732 C730 1.501 . S
C732 C733 1.384 . S
C732 C737 1.408 . S
C733 H723 0.930 . S
C733 C732 1.384 . S
C733 C734 1.389 . S
C734 C733 1.389 . S
C734 C735 1.405 . S
C735 H724 0.930 . S
C735 C734 1.405 . S
C735 C736 1.364 . S
C736 C735 1.364 . S
C736 C737 1.400 . S
C737 H725 0.931 . S
C737 C732 1.408 . S
C737 C736 1.400 . S
H738 C744 0.930 . S
H739 C747 0.931 . S
H740 C749 0.931 . S
H741 C751 0.930 . S
H742 C753 0.930 . S
H743 C755 0.931 . S
C744 H738 0.930 . S
C744 C745 1.380 . S
C744 C746 1.394 . S
C745 C744 1.380 . S
C745 C749 1.382 . S
C746 C744 1.394 . S
C746 C747 1.400 . S
C747 H739 0.931 . S
C747 C746 1.400 . S
C747 C748 1.375 . S
C748 C747 1.375 . S
C748 C749 1.415 . S
C748 C750 1.501 . S
C749 H740 0.931 . S
C749 C745 1.382 . S
C749 C748 1.415 . S
C750 C748 1.501 . S
C750 C751 1.384 . S
C750 C755 1.408 . S
C751 H741 0.930 . S
C751 C750 1.384 . S
C751 C752 1.389 . S
C752 C751 1.389 . S
C752 C753 1.405 . S
C753 H742 0.930 . S
C753 C752 1.405 . S
C753 C754 1.364 . S
C754 C753 1.364 . S
C754 C755 1.400 . S
C755 H743 0.931 . S
C755 C750 1.408 . S
C755 C754 1.400 . S
H756 C762 0.930 . S
H757 C765 0.931 . S
H758 C767 0.931 . S
H759 C769 0.930 . S
H760 C771 0.930 . S
H761 C773 0.931 . S
C762 H756 0.930 . S
C762 C763 1.380 . S
C762 C764 1.394 . S
C763 C762 1.380 . S
C763 C767 1.382 . S
C764 C762 1.394 . S
C764 C765 1.400 . S
C765 H757 0.931 . S
C765 C764 1.400 . S
C765 C766 1.375 . S
C766 C765 1.375 . S
C766 C767 1.415 . S
C766 C768 1.501 . S
C767 H758 0.931 . S
C767 C763 1.382 . S
C767 C766 1.415 . S
C768 C766 1.501 . S
C768 C769 1.384 . S
C768 C773 1.408 . S
C769 H759 0.930 . S
C769 C768 1.384 . S
C769 C770 1.389 . S
C770 C769 1.389 . S
C770 C771 1.405 . S
C771 H760 0.930 . S
C771 C770 1.405 . S
C771 C772 1.364 . S
C772 C771 1.364 . S
C772 C773 1.400 . S
C773 H761 0.931 . S
C773 C768 1.408 . S
C773 C772 1.400 . S
H774 C780 0.930 . S
H775 C783 0.931 . S
H776 C785 0.931 . S
H777 C787 0.930 . S
H778 C789 0.930 . S
H779 C791 0.931 . S
C780 H774 0.930 . S
C780 C781 1.380 . S
C780 C782 1.394 . S
C781 C780 1.380 . S
C781 C785 1.382 . S
C782 C780 1.394 . S
C782 C783 1.400 . S
C783 H775 0.931 . S
C783 C782 1.400 . S
C783 C784 1.375 . S
C784 C783 1.375 . S
C784 C785 1.415 . S
C784 C786 1.501 . S
C785 H776 0.931 . S
C785 C781 1.382 . S
C785 C784 1.415 . S
C786 C784 1.501 . S
C786 C787 1.384 . S
C786 C791 1.408 . S
C787 H777 0.930 . S
C787 C786 1.384 . S
C787 C788 1.389 . S
C788 C787 1.389 . S
C788 C789 1.405 . S
C789 H778 0.930 . S
C789 C788 1.405 . S
C789 C790 1.364 . S
C790 C789 1.364 . S
C790 C791 1.400 . S
C791 H779 0.931 . S
C791 C786 1.408 . S
C791 C790 1.400 . S
H792 C798 0.930 . S
H793 C801 0.931 . S
H794 C803 0.931 . S
H795 C805 0.930 . S
H796 C807 0.930 . S
H797 C809 0.931 . S
C798 H792 0.930 . S
C798 C799 1.380 . S
C798 C800 1.394 . S
C799 C798 1.380 . S
C799 C803 1.382 . S
C800 C798 1.394 . S
C800 C801 1.400 . S
C801 H793 0.931 . S
C801 C800 1.400 . S
C801 C802 1.375 . S
C802 C801 1.375 . S
C802 C803 1.415 . S
C802 C804 1.501 . S
C803 H794 0.931 . S
C803 C799 1.382 . S
C803 C802 1.415 . S
C804 C802 1.501 . S
C804 C805 1.384 . S
C804 C809 1.408 . S
C805 H795 0.930 . S
C805 C804 1.384 . S
C805 C806 1.389 . S
C806 C805 1.389 . S
C806 C807 1.405 . S
C807 H796 0.930 . S
C807 C806 1.405 . S
C807 C808 1.364 . S
C808 C807 1.364 . S
C808 C809 1.400 . S
C809 H797 0.931 . S
C809 C804 1.408 . S
C809 C808 1.400 . S
H810 C816 0.916 . S
H811 C819 0.931 . S
H812 C821 0.931 . S
H813 C823 0.930 . S
H814 C825 0.930 . S
H815 C827 0.940 1_655 S
C816 H810 0.916 . S
C816 C817 1.392 . S
C816 C818 1.397 1_655 S
C817 C816 1.392 . S
C817 C821 1.382 . S
C818 C816 1.397 1_455 S
C818 C819 1.400 . S
C819 H811 0.931 . S
C819 C818 1.400 . S
C819 C820 1.375 . S
C820 C819 1.375 . S
C820 C821 1.415 1_455 S
C820 C822 1.501 . S
C821 H812 0.931 . S
C821 C817 1.382 . S
C821 C820 1.415 1_655 S
C822 C820 1.501 . S
C822 C823 1.384 . S
C822 C827 1.420 . S
C823 H813 0.930 . S
C823 C822 1.384 . S
C823 C824 1.389 . S
C824 C823 1.389 . S
C824 C825 1.405 . S
C825 H814 0.930 . S
C825 C824 1.405 . S
C825 C826 1.359 . S
C826 C825 1.359 . S
C826 C827 1.396 . S
C827 H815 0.940 1_455 S
C827 C822 1.420 . S
C827 C826 1.396 . S
H828 C834 0.930 . S
H829 C837 0.931 . S
H830 C839 0.931 . S
H831 C841 0.930 . S
H832 C843 0.930 . S
H833 C845 0.931 . S
C834 H828 0.930 . S
C834 C835 1.380 . S
C834 C836 1.394 . S
C835 C834 1.380 . S
C835 C839 1.382 . S
C836 C834 1.394 . S
C836 C837 1.400 . S
C837 H829 0.931 . S
C837 C836 1.400 . S
C837 C838 1.375 . S
C838 C837 1.375 . S
C838 C839 1.415 . S
C838 C840 1.501 . S
C839 H830 0.931 . S
C839 C835 1.382 . S
C839 C838 1.415 . S
C840 C838 1.501 . S
C840 C841 1.384 . S
C840 C845 1.408 . S
C841 H831 0.930 . S
C841 C840 1.384 . S
C841 C842 1.389 . S
C842 C841 1.389 . S
C842 C843 1.405 . S
C843 H832 0.930 . S
C843 C842 1.405 . S
C843 C844 1.364 . S
C844 C843 1.364 . S
C844 C845 1.400 . S
C845 H833 0.931 . S
C845 C840 1.408 . S
C845 C844 1.400 . S
H846 C852 0.941 . S
H847 C855 0.931 . S
H848 C857 0.931 . S
H849 C859 0.930 . S
H850 C861 0.930 . S
H851 C863 0.921 1_545 S
C852 H846 0.941 . S
C852 C853 1.377 . S
C852 C854 1.386 1_545 S
C853 C852 1.377 . S
C853 C857 1.382 . S
C854 C852 1.386 1_565 S
C854 C855 1.400 . S
C855 H847 0.931 . S
C855 C854 1.400 . S
C855 C856 1.375 . S
C856 C855 1.375 . S
C856 C857 1.415 1_565 S
C856 C858 1.501 . S
C857 H848 0.931 . S
C857 C853 1.382 . S
C857 C856 1.415 1_545 S
C858 C856 1.501 . S
C858 C859 1.384 . S
C858 C863 1.400 . S
C859 H849 0.930 . S
C859 C858 1.384 . S
C859 C860 1.389 . S
C860 C859 1.389 . S
C860 C861 1.405 . S
C861 H850 0.930 . S
C861 C860 1.405 . S
C861 C862 1.373 . S
C862 C861 1.373 . S
C862 C863 1.407 . S
C863 H851 0.921 1_565 S
C863 C858 1.400 . S
C863 C862 1.407 . S
H864 C870 0.912 . S
H865 C873 0.931 . S
H866 C875 0.928 1_545 S
H867 C877 0.930 . S
H868 C879 0.930 . S
H869 C881 0.931 . S
C870 H864 0.912 . S
C870 C871 1.383 . S
C870 C872 1.414 1_545 S
C871 C870 1.383 . S
C871 C875 1.402 1_545 S
C872 C870 1.414 1_565 S
C872 C873 1.378 . S
C873 H865 0.931 . S
C873 C872 1.378 . S
C873 C874 1.375 . S
C874 C873 1.375 . S
C874 C875 1.413 . S
C874 C876 1.501 . S
C875 H866 0.928 1_565 S
C875 C871 1.402 1_565 S
C875 C874 1.413 . S
C876 C874 1.501 . S
C876 C877 1.384 . S
C876 C881 1.408 1_565 S
C877 H867 0.930 . S
C877 C876 1.384 . S
C877 C878 1.389 . S
C878 C877 1.389 . S
C878 C879 1.405 . S
C879 H868 0.930 . S
C879 C878 1.405 . S
C879 C880 1.364 1_565 S
C880 C879 1.364 1_545 S
C880 C881 1.400 . S
C881 H869 0.931 . S
C881 C876 1.408 1_545 S
C881 C880 1.400 . S
H882 C888 0.947 . S
H883 C891 0.931 . S
H884 C893 0.936 . S
H885 C895 0.930 . S
H886 C897 0.967 . S
H887 C899 0.931 . S
C888 H882 0.947 . S
C888 C889 1.376 . S
C888 C890 1.371 1_655 S
C889 C888 1.376 . S
C889 C893 1.364 1_655 S
C890 C888 1.371 1_455 S
C890 C891 1.431 . S
C891 H883 0.931 . S
C891 C890 1.431 . S
C891 C892 1.375 . S
C892 C891 1.375 . S
C892 C893 1.422 . S
C892 C894 1.501 . S
C893 H884 0.936 . S
C893 C889 1.364 1_455 S
C893 C892 1.422 . S
C894 C892 1.501 . S
C894 C895 1.384 . S
C894 C899 1.408 1_455 S
C895 H885 0.930 . S
C895 C894 1.384 . S
C895 C896 1.389 . S
C896 C895 1.389 . S
C896 C897 1.398 . S
C897 H886 0.967 . S
C897 C896 1.398 . S
C897 C898 1.339 1_455 S
C898 C897 1.339 1_655 S
C898 C899 1.400 . S
C899 H887 0.931 . S
C899 C894 1.408 1_655 S
C899 C898 1.400 . S
H900 C906 0.930 . S
H901 C909 0.931 . S
H902 C911 0.931 . S
H903 C913 0.930 . S
H904 C915 0.930 . S
H905 C917 0.931 . S
C906 H900 0.930 . S
C906 C907 1.380 . S
C906 C908 1.394 . S
C907 C906 1.380 . S
C907 C911 1.382 . S
C908 C906 1.394 . S
C908 C909 1.400 . S
C909 H901 0.931 . S
C909 C908 1.400 . S
C909 C910 1.375 . S
C910 C909 1.375 . S
C910 C911 1.415 . S
C910 C912 1.501 . S
C911 H902 0.931 . S
C911 C907 1.382 . S
C911 C910 1.415 . S
C912 C910 1.501 . S
C912 C913 1.384 . S
C912 C917 1.408 . S
C913 H903 0.930 . S
C913 C912 1.384 . S
C913 C914 1.389 . S
C914 C913 1.389 . S
C914 C915 1.405 . S
C915 H904 0.930 . S
C915 C914 1.405 . S
C915 C916 1.364 . S
C916 C915 1.364 . S
C916 C917 1.400 . S
C917 H905 0.931 . S
C917 C912 1.408 . S
C917 C916 1.400 . S
H918 C924 0.930 . S
H919 C927 0.931 . S
H920 C929 0.931 . S
H921 C931 0.930 . S
H922 C933 0.930 . S
H923 C935 0.931 . S
C924 H918 0.930 . S
C924 C925 1.380 . S
C924 C926 1.394 . S
C925 C924 1.380 . S
C925 C929 1.382 . S
C926 C924 1.394 . S
C926 C927 1.400 . S
C927 H919 0.931 . S
C927 C926 1.400 . S
C927 C928 1.375 . S
C928 C927 1.375 . S
C928 C929 1.415 . S
C928 C930 1.501 . S
C929 H920 0.931 . S
C929 C925 1.382 . S
C929 C928 1.415 . S
C930 C928 1.501 . S
C930 C931 1.384 . S
C930 C935 1.408 . S
C931 H921 0.930 . S
C931 C930 1.384 . S
C931 C932 1.389 . S
C932 C931 1.389 . S
C932 C933 1.405 . S
C933 H922 0.930 . S
C933 C932 1.405 . S
C933 C934 1.364 . S
C934 C933 1.364 . S
C934 C935 1.400 . S
C935 H923 0.931 . S
C935 C930 1.408 . S
C935 C934 1.400 . S
H936 C942 0.930 . S
H937 C945 0.931 . S
H938 C947 0.931 . S
H939 C949 0.930 . S
H940 C951 0.930 . S
H941 C953 0.931 . S
C942 H936 0.930 . S
C942 C943 1.380 . S
C942 C944 1.394 . S
C943 C942 1.380 . S
C943 C947 1.382 . S
C944 C942 1.394 . S
C944 C945 1.400 . S
C945 H937 0.931 . S
C945 C944 1.400 . S
C945 C946 1.375 . S
C946 C945 1.375 . S
C946 C947 1.415 . S
C946 C948 1.501 . S
C947 H938 0.931 . S
C947 C943 1.382 . S
C947 C946 1.415 . S
C948 C946 1.501 . S
C948 C949 1.384 . S
C948 C953 1.408 . S
C949 H939 0.930 . S
C949 C948 1.384 . S
C949 C950 1.389 . S
C950 C949 1.389 . S
C950 C951 1.405 . S
C951 H940 0.930 . S
C951 C950 1.405 . S
C951 C952 1.364 . S
C952 C951 1.364 . S
C952 C953 1.400 . S
C953 H941 0.931 . S
C953 C948 1.408 . S
C953 C952 1.400 . S
H954 C960 0.930 . S
H955 C963 0.931 . S
H956 C965 0.931 . S
H957 C967 0.930 . S
H958 C969 0.930 . S
H959 C971 0.931 . S
C960 H954 0.930 . S
C960 C961 1.380 . S
C960 C962 1.394 . S
C961 C960 1.380 . S
C961 C965 1.382 . S
C962 C960 1.394 . S
C962 C963 1.400 . S
C963 H955 0.931 . S
C963 C962 1.400 . S
C963 C964 1.375 . S
C964 C963 1.375 . S
C964 C965 1.415 . S
C964 C966 1.501 . S
C965 H956 0.931 . S
C965 C961 1.382 . S
C965 C964 1.415 . S
C966 C964 1.501 . S
C966 C967 1.384 . S
C966 C971 1.408 . S
C967 H957 0.930 . S
C967 C966 1.384 . S
C967 C968 1.389 . S
C968 C967 1.389 . S
C968 C969 1.405 . S
C969 H958 0.930 . S
C969 C968 1.405 . S
C969 C970 1.364 . S
C970 C969 1.364 . S
C970 C971 1.400 . S
C971 H959 0.931 . S
C971 C966 1.408 . S
C971 C970 1.400 . S
H972 C978 0.930 . S
H973 C982 0.930 . S
H974 C987 0.929 . S
H975 C985 0.929 . S
H976 C980 0.929 . S
H977 C986 0.929 . S
C978 H972 0.930 . S
C978 C979 1.367 . S
C978 C986 1.378 . S
C979 C978 1.367 . S
C979 C987 1.433 1_655 S
C980 H976 0.929 . S
C980 C982 1.378 . S
C980 C984 1.350 1_455 S
C981 C984 1.463 . S
C981 C986 1.350 . S
C981 N989 1.427 1_655 S
C982 H973 0.930 . S
C982 C980 1.378 . S
C982 C983 1.367 1_455 S
C983 C982 1.367 1_655 S
C983 C985 1.433 . S
C984 C980 1.350 1_655 S
C984 C981 1.463 . S
C984 N988 1.427 . S
C985 H975 0.929 . S
C985 C983 1.433 . S
C985 N988 1.384 . S
C986 H977 0.929 . S
C986 C978 1.378 . S
C986 C981 1.350 . S
C987 H974 0.929 . S
C987 C979 1.433 1_455 S
C987 N989 1.384 . S
N988 C984 1.427 . S
N988 C985 1.384 . S
N989 C981 1.427 1_455 S
N989 C987 1.384 . S
H990 C996 0.930 . S
H991 C1000 0.930 . S
H992 C1005 0.929 . S
H993 C1003 0.929 . S
H994 C998 0.929 . S
H995 C1004 0.929 . S
C996 H990 0.930 . S
C996 C997 1.367 . S
C996 C1004 1.378 . S
C997 C996 1.367 . S
C997 C1005 1.433 . S
C998 H994 0.929 . S
C998 C1000 1.378 . S
C998 C1002 1.350 . S
C999 C1002 1.463 . S
C999 C1004 1.350 . S
C999 N1007 1.427 . S
C1000 H991 0.930 . S
C1000 C998 1.378 . S
C1000 C1001 1.367 . S
C1001 C1000 1.367 . S
C1001 C1003 1.433 . S
C1002 C998 1.350 . S
C1002 C999 1.463 . S
C1002 N1006 1.427 . S
C1003 H993 0.929 . S
C1003 C1001 1.433 . S
C1003 N1006 1.384 . S
C1004 H995 0.929 . S
C1004 C996 1.378 . S
C1004 C999 1.350 . S
C1005 H992 0.929 . S
C1005 C997 1.433 . S
C1005 N1007 1.384 . S
N1006 C1002 1.427 . S
N1006 C1003 1.384 . S
N1007 C999 1.427 . S
N1007 C1005 1.384 . S
H1008 C1014 0.930 . S
H1009 C1018 0.930 . S
H1010 C1023 0.929 . S
H1011 C1021 0.929 . S
H1012 C1016 0.929 . S
H1013 C1022 0.929 . S
C1014 H1008 0.930 . S
C1014 C1015 1.367 1_565 S
C1014 C1022 1.378 . S
C1015 C1014 1.367 1_545 S
C1015 C1023 1.433 . S
C1016 H1012 0.929 . S
C1016 C1018 1.378 . S
C1016 C1020 1.350 . S
C1017 C1020 1.463 . S
C1017 C1022 1.350 1_545 S
C1017 N1025 1.427 . S
C1018 H1009 0.930 . S
C1018 C1016 1.378 . S
C1018 C1019 1.367 . S
C1019 C1018 1.367 . S
C1019 C1021 1.433 1_545 S
C1020 C1016 1.350 . S
C1020 C1017 1.463 . S
C1020 N1024 1.427 1_545 S
C1021 H1011 0.929 . S
C1021 C1019 1.433 1_565 S
C1021 N1024 1.384 . S
C1022 H1013 0.929 . S
C1022 C1014 1.378 . S
C1022 C1017 1.350 1_565 S
C1023 H1010 0.929 . S
C1023 C1015 1.433 . S
C1023 N1025 1.384 . S
N1024 C1020 1.427 1_565 S
N1024 C1021 1.384 . S
N1025 C1017 1.427 . S
N1025 C1023 1.384 . S
H1026 C1032 0.930 . S
H1027 C1036 0.930 . S
H1028 C1041 0.929 . S
H1029 C1039 0.929 . S
H1030 C1034 0.929 . S
H1031 C1040 0.929 . S
C1032 H1026 0.930 . S
C1032 C1033 1.367 1_545 S
C1032 C1040 1.378 . S
C1033 C1032 1.367 1_565 S
C1033 C1041 1.433 . S
C1034 H1030 0.929 . S
C1034 C1036 1.378 . S
C1034 C1038 1.350 . S
C1035 C1038 1.463 . S
C1035 C1040 1.350 1_565 S
C1035 N1043 1.427 . S
C1036 H1027 0.930 . S
C1036 C1034 1.378 . S
C1036 C1037 1.367 . S
C1037 C1036 1.367 . S
C1037 C1039 1.433 1_565 S
C1038 C1034 1.350 . S
C1038 C1035 1.463 . S
C1038 N1042 1.427 1_565 S
C1039 H1029 0.929 . S
C1039 C1037 1.433 1_545 S
C1039 N1042 1.384 . S
C1040 H1031 0.929 . S
C1040 C1032 1.378 . S
C1040 C1035 1.350 1_545 S
C1041 H1028 0.929 . S
C1041 C1033 1.433 . S
C1041 N1043 1.384 . S
N1042 C1038 1.427 1_545 S
N1042 C1039 1.384 . S
N1043 C1035 1.427 . S
N1043 C1041 1.384 . S
H1044 C1050 0.930 . S
H1045 C1054 0.930 . S
H1046 C1059 0.929 . S
H1047 C1057 0.929 . S
H1048 C1052 0.929 . S
H1049 C1058 0.929 . S
C1050 H1044 0.930 . S
C1050 C1051 1.367 . S
C1050 C1058 1.378 . S
C1051 C1050 1.367 . S
C1051 C1059 1.433 1_455 S
C1052 H1048 0.929 . S
C1052 C1054 1.378 . S
C1052 C1056 1.350 1_655 S
C1053 C1056 1.463 . S
C1053 C1058 1.350 . S
C1053 N1061 1.427 1_455 S
C1054 H1045 0.930 . S
C1054 C1052 1.378 . S
C1054 C1055 1.367 1_655 S
C1055 C1054 1.367 1_455 S
C1055 C1057 1.433 . S
C1056 C1052 1.350 1_455 S
C1056 C1053 1.463 . S
C1056 N1060 1.427 . S
C1057 H1047 0.929 . S
C1057 C1055 1.433 . S
C1057 N1060 1.384 . S
C1058 H1049 0.929 . S
C1058 C1050 1.378 . S
C1058 C1053 1.350 . S
C1059 H1046 0.929 . S
C1059 C1051 1.433 1_655 S
C1059 N1061 1.384 . S
N1060 C1056 1.427 . S
N1060 C1057 1.384 . S
N1061 C1053 1.427 1_655 S
N1061 C1059 1.384 . S
H1062 C1068 0.930 . S
H1063 C1072 0.930 . S
H1064 C1077 0.929 . S
H1065 C1075 0.929 . S
H1066 C1070 0.929 . S
H1067 C1076 0.929 . S
C1068 H1062 0.930 . S
C1068 C1069 1.367 . S
C1068 C1076 1.378 . S
C1069 C1068 1.367 . S
C1069 C1077 1.433 . S
C1070 H1066 0.929 . S
C1070 C1072 1.378 . S
C1070 C1074 1.350 . S
C1071 C1074 1.463 . S
C1071 C1076 1.350 . S
C1071 N1079 1.427 . S
C1072 H1063 0.930 . S
C1072 C1070 1.378 . S
C1072 C1073 1.367 . S
C1073 C1072 1.367 . S
C1073 C1075 1.433 . S
C1074 C1070 1.350 . S
C1074 C1071 1.463 . S
C1074 N1078 1.427 . S
C1075 H1065 0.929 . S
C1075 C1073 1.433 . S
C1075 N1078 1.384 . S
C1076 H1067 0.929 . S
C1076 C1068 1.378 . S
C1076 C1071 1.350 . S
C1077 H1064 0.929 . S
C1077 C1069 1.433 . S
C1077 N1079 1.384 . S
N1078 C1074 1.427 . S
N1078 C1075 1.384 . S
N1079 C1071 1.427 . S
N1079 C1077 1.384 . S
H1080 C1086 0.930 . S
H1081 C1090 0.930 . S
H1082 C1095 0.929 . S
H1083 C1093 0.929 . S
H1084 C1088 0.929 . S
H1085 C1094 0.929 . S
C1086 H1080 0.930 . S
C1086 C1087 1.367 1_655 S
C1086 C1094 1.378 . S
C1087 C1086 1.367 1_455 S
C1087 C1095 1.433 . S
C1088 H1084 0.929 . S
C1088 C1090 1.378 . S
C1088 C1092 1.350 . S
C1089 C1092 1.463 . S
C1089 C1094 1.350 1_455 S
C1089 N1097 1.427 . S
C1090 H1081 0.930 . S
C1090 C1088 1.378 . S
C1090 C1091 1.387 . S
C1091 C1090 1.387 . S
C1091 C1093 1.401 1_455 S
C1092 C1088 1.350 . S
C1092 C1089 1.463 . S
C1092 N1096 1.427 1_455 S
C1093 H1083 0.929 . S
C1093 C1091 1.401 1_655 S
C1093 N1096 1.384 . S
C1094 H1085 0.929 . S
C1094 C1086 1.378 . S
C1094 C1089 1.350 1_655 S
C1095 H1082 0.929 . S
C1095 C1087 1.433 . S
C1095 N1097 1.384 . S
N1096 C1092 1.427 1_655 S
N1096 C1093 1.384 . S
N1097 C1089 1.427 . S
N1097 C1095 1.384 . S
H1098 C1104 0.930 . S
H1099 C1108 0.930 . S
H1100 C1113 0.929 . S
H1101 C1111 0.929 . S
H1102 C1106 0.929 . S
H1103 C1112 0.929 . S
C1104 H1098 0.930 . S
C1104 C1105 1.367 . S
C1104 C1112 1.378 . S
C1105 C1104 1.367 . S
C1105 C1113 1.433 . S
C1106 H1102 0.929 . S
C1106 C1108 1.378 . S
C1106 C1110 1.350 . S
C1107 C1110 1.463 . S
C1107 C1112 1.350 . S
C1107 N1115 1.427 . S
C1108 H1099 0.930 . S
C1108 C1106 1.378 . S
C1108 C1109 1.367 . S
C1109 C1108 1.367 . S
C1109 C1111 1.433 . S
C1110 C1106 1.350 . S
C1110 C1107 1.463 . S
C1110 N1114 1.427 . S
C1111 H1101 0.929 . S
C1111 C1109 1.433 . S
C1111 N1114 1.384 . S
C1112 H1103 0.929 . S
C1112 C1104 1.378 . S
C1112 C1107 1.350 . S
C1113 H1100 0.929 . S
C1113 C1105 1.433 . S
C1113 N1115 1.384 . S
N1114 C1110 1.427 . S
N1114 C1111 1.384 . S
N1115 C1107 1.427 . S
N1115 C1113 1.384 . S
H1116 C1122 0.930 . S
H1117 C1126 0.930 . S
H1118 C1131 0.929 . S
H1119 C1129 0.929 . S
H1120 C1124 0.929 . S
H1121 C1130 0.929 . S
C1122 H1116 0.930 . S
C1122 C1123 1.367 . S
C1122 C1130 1.378 . S
C1123 C1122 1.367 . S
C1123 C1131 1.433 1_565 S
C1124 H1120 0.929 . S
C1124 C1126 1.378 . S
C1124 C1128 1.335 1_545 S
C1125 C1128 1.473 . S
C1125 C1130 1.350 . S
C1125 N1133 1.427 1_565 S
C1126 H1117 0.930 . S
C1126 C1124 1.378 . S
C1126 C1127 1.375 . S
C1127 C1126 1.375 . S
C1127 C1129 1.411 1_545 S
C1128 C1124 1.335 1_565 S
C1128 C1125 1.473 . S
C1128 N1132 1.433 . S
C1129 H1119 0.929 . S
C1129 C1127 1.411 1_565 S
C1129 N1132 1.384 . S
C1130 H1121 0.929 . S
C1130 C1122 1.378 . S
C1130 C1125 1.350 . S
C1131 H1118 0.929 . S
C1131 C1123 1.433 1_545 S
C1131 N1133 1.384 . S
N1132 C1128 1.433 . S
N1132 C1129 1.384 . S
N1133 C1125 1.427 1_545 S
N1133 C1131 1.384 . S
H1134 C1140 0.930 . S
H1135 C1144 0.930 . S
H1136 C1149 0.929 . S
H1137 C1147 0.929 . S
H1138 C1142 0.929 . S
H1139 C1148 0.929 . S
C1140 H1134 0.930 . S
C1140 C1141 1.367 1_565 S
C1140 C1148 1.378 . S
C1141 C1140 1.367 1_545 S
C1141 C1149 1.433 . S
C1142 H1138 0.929 . S
C1142 C1144 1.378 . S
C1142 C1146 1.350 . S
C1143 C1146 1.463 . S
C1143 C1148 1.350 1_545 S
C1143 N1151 1.427 . S
C1144 H1135 0.930 . S
C1144 C1142 1.378 . S
C1144 C1145 1.382 . S
C1145 C1144 1.382 . S
C1145 C1147 1.408 1_545 S
C1146 C1142 1.350 . S
C1146 C1143 1.463 . S
C1146 N1150 1.427 1_545 S
C1147 H1137 0.929 . S
C1147 C1145 1.408 1_565 S
C1147 N1150 1.384 . S
C1148 H1139 0.929 . S
C1148 C1140 1.378 . S
C1148 C1143 1.350 1_565 S
C1149 H1136 0.929 . S
C1149 C1141 1.433 . S
C1149 N1151 1.384 . S
N1150 C1146 1.427 1_565 S
N1150 C1147 1.384 . S
N1151 C1143 1.427 . S
N1151 C1149 1.384 . S
H1152 C1158 0.930 . S
H1153 C1162 0.930 . S
H1154 C1167 0.929 . S
H1155 C1165 0.929 . S
H1156 C1160 0.929 . S
H1157 C1166 0.929 . S
C1158 H1152 0.930 . S
C1158 C1159 1.367 . S
C1158 C1166 1.378 . S
C1159 C1158 1.367 . S
C1159 C1167 1.433 1_655 S
C1160 H1156 0.929 . S
C1160 C1162 1.378 . S
C1160 C1164 1.367 . S
C1161 C1164 1.455 1_655 S
C1161 C1166 1.350 . S
C1161 N1169 1.427 1_655 S
C1162 H1153 0.930 . S
C1162 C1160 1.378 . S
C1162 C1163 1.367 . S
C1163 C1162 1.367 . S
C1163 C1165 1.433 1_455 S
C1164 C1160 1.367 . S
C1164 C1161 1.455 1_455 S
C1164 N1168 1.417 1_455 S
C1165 H1155 0.929 . S
C1165 C1163 1.433 1_655 S
C1165 N1168 1.384 . S
C1166 H1157 0.929 . S
C1166 C1158 1.378 . S
C1166 C1161 1.350 . S
C1167 H1154 0.929 . S
C1167 C1159 1.433 1_455 S
C1167 N1169 1.384 . S
N1168 C1164 1.417 1_655 S
N1168 C1165 1.384 . S
N1169 C1161 1.427 1_455 S
N1169 C1167 1.384 . S
H1170 C1176 0.930 . S
H1171 C1180 0.930 . S
H1172 C1185 0.929 . S
H1173 C1183 0.929 . S
H1174 C1178 0.929 . S
H1175 C1184 0.929 . S
C1176 H1170 0.930 . S
C1176 C1177 1.367 . S
C1176 C1184 1.378 . S
C1177 C1176 1.367 . S
C1177 C1185 1.433 . S
C1178 H1174 0.929 . S
C1178 C1180 1.378 . S
C1178 C1182 1.350 . S
C1179 C1182 1.463 . S
C1179 C1184 1.350 . S
C1179 N1187 1.427 . S
C1180 H1171 0.930 . S
C1180 C1178 1.378 . S
C1180 C1181 1.367 . S
C1181 C1180 1.367 . S
C1181 C1183 1.433 . S
C1182 C1178 1.350 . S
C1182 C1179 1.463 . S
C1182 N1186 1.427 . S
C1183 H1173 0.929 . S
C1183 C1181 1.433 . S
C1183 N1186 1.384 . S
C1184 H1175 0.929 . S
C1184 C1176 1.378 . S
C1184 C1179 1.350 . S
C1185 H1172 0.929 . S
C1185 C1177 1.433 . S
C1185 N1187 1.384 . S
N1186 C1182 1.427 . S
N1186 C1183 1.384 . S
N1187 C1179 1.427 . S
N1187 C1185 1.384 . S
H1188 C1194 0.930 . S
H1189 C1198 0.930 . S
H1190 C1203 0.929 . S
H1191 C1201 0.929 . S
H1192 C1196 0.929 . S
H1193 C1202 0.929 . S
C1194 H1188 0.930 . S
C1194 C1195 1.367 . S
C1194 C1202 1.378 . S
C1195 C1194 1.367 . S
C1195 C1203 1.433 . S
C1196 H1192 0.929 . S
C1196 C1198 1.378 . S
C1196 C1200 1.350 . S
C1197 C1200 1.463 . S
C1197 C1202 1.350 . S
C1197 N1205 1.427 . S
C1198 H1189 0.930 . S
C1198 C1196 1.378 . S
C1198 C1199 1.367 . S
C1199 C1198 1.367 . S
C1199 C1201 1.433 . S
C1200 C1196 1.350 . S
C1200 C1197 1.463 . S
C1200 N1204 1.427 . S
C1201 H1191 0.929 . S
C1201 C1199 1.433 . S
C1201 N1204 1.384 . S
C1202 H1193 0.929 . S
C1202 C1194 1.378 . S
C1202 C1197 1.350 . S
C1203 H1190 0.929 . S
C1203 C1195 1.433 . S
C1203 N1205 1.384 . S
N1204 C1200 1.427 . S
N1204 C1201 1.384 . S
N1205 C1197 1.427 . S
N1205 C1203 1.384 . S
H1206 C1212 0.930 . S
H1207 C1216 0.930 . S
H1208 C1221 0.929 . S
H1209 C1219 0.929 . S
H1210 C1214 0.929 . S
H1211 C1220 0.929 . S
C1212 H1206 0.930 . S
C1212 C1213 1.367 . S
C1212 C1220 1.378 . S
C1213 C1212 1.367 . S
C1213 C1221 1.433 . S
C1214 H1210 0.929 . S
C1214 C1216 1.378 . S
C1214 C1218 1.350 . S
C1215 C1218 1.463 . S
C1215 C1220 1.350 . S
C1215 N1223 1.427 . S
C1216 H1207 0.930 . S
C1216 C1214 1.378 . S
C1216 C1217 1.367 . S
C1217 C1216 1.367 . S
C1217 C1219 1.433 . S
C1218 C1214 1.350 . S
C1218 C1215 1.463 . S
C1218 N1222 1.427 . S
C1219 H1209 0.929 . S
C1219 C1217 1.433 . S
C1219 N1222 1.384 . S
C1220 H1211 0.929 . S
C1220 C1212 1.378 . S
C1220 C1215 1.350 . S
C1221 H1208 0.929 . S
C1221 C1213 1.433 . S
C1221 N1223 1.384 . S
N1222 C1218 1.427 . S
N1222 C1219 1.384 . S
N1223 C1215 1.427 . S
N1223 C1221 1.384 . S
H1224 C1230 0.930 . S
H1225 C1234 0.930 . S
H1226 C1239 0.929 . S
H1227 C1237 0.929 . S
H1228 C1232 0.929 . S
H1229 C1238 0.929 . S
C1230 H1224 0.930 . S
C1230 C1231 1.367 . S
C1230 C1238 1.378 . S
C1231 C1230 1.367 . S
C1231 C1239 1.433 . S
C1232 H1228 0.929 . S
C1232 C1234 1.378 . S
C1232 C1236 1.350 . S
C1233 C1236 1.463 . S
C1233 C1238 1.350 . S
C1233 N1241 1.427 . S
C1234 H1225 0.930 . S
C1234 C1232 1.378 . S
C1234 C1235 1.367 . S
C1235 C1234 1.367 . S
C1235 C1237 1.433 . S
C1236 C1232 1.350 . S
C1236 C1233 1.463 . S
C1236 N1240 1.427 . S
C1237 H1227 0.929 . S
C1237 C1235 1.433 . S
C1237 N1240 1.384 . S
C1238 H1229 0.929 . S
C1238 C1230 1.378 . S
C1238 C1233 1.350 . S
C1239 H1226 0.929 . S
C1239 C1231 1.433 . S
C1239 N1241 1.384 . S
N1240 C1236 1.427 . S
N1240 C1237 1.384 . S
N1241 C1233 1.427 . S
N1241 C1239 1.384 . S
H1242 C1248 0.930 . S
H1243 C1252 0.930 . S
H1244 C1257 0.929 . S
H1245 C1255 0.929 . S
H1246 C1250 0.929 . S
H1247 C1256 0.929 . S
C1248 H1242 0.930 . S
C1248 C1249 1.367 . S
C1248 C1256 1.378 . S
C1249 C1248 1.367 . S
C1249 C1257 1.433 . S
C1250 H1246 0.929 . S
C1250 C1252 1.378 . S
C1250 C1254 1.350 . S
C1251 C1254 1.463 . S
C1251 C1256 1.350 . S
C1251 N1259 1.427 . S
C1252 H1243 0.930 . S
C1252 C1250 1.378 . S
C1252 C1253 1.367 . S
C1253 C1252 1.367 . S
C1253 C1255 1.433 . S
C1254 C1250 1.350 . S
C1254 C1251 1.463 . S
C1254 N1258 1.427 . S
C1255 H1245 0.929 . S
C1255 C1253 1.433 . S
C1255 N1258 1.384 . S
C1256 H1247 0.929 . S
C1256 C1248 1.378 . S
C1256 C1251 1.350 . S
C1257 H1244 0.929 . S
C1257 C1249 1.433 . S
C1257 N1259 1.384 . S
N1258 C1254 1.427 . S
N1258 C1255 1.384 . S
N1259 C1251 1.427 . S
N1259 C1257 1.384 . S
H1260 C1266 0.930 . S
H1261 C1270 0.930 . S
H1262 C1275 0.929 . S
H1263 C1273 0.929 . S
H1264 C1268 0.929 . S
H1265 C1274 0.929 . S
C1266 H1260 0.930 . S
C1266 C1267 1.367 . S
C1266 C1274 1.378 . S
C1267 C1266 1.367 . S
C1267 C1275 1.433 . S
C1268 H1264 0.929 . S
C1268 C1270 1.378 . S
C1268 C1272 1.350 . S
C1269 C1272 1.463 . S
C1269 C1274 1.350 . S
C1269 N1277 1.427 . S
C1270 H1261 0.930 . S
C1270 C1268 1.378 . S
C1270 C1271 1.367 . S
C1271 C1270 1.367 . S
C1271 C1273 1.433 . S
C1272 C1268 1.350 . S
C1272 C1269 1.463 . S
C1272 N1276 1.427 . S
C1273 H1263 0.929 . S
C1273 C1271 1.433 . S
C1273 N1276 1.384 . S
C1274 H1265 0.929 . S
C1274 C1266 1.378 . S
C1274 C1269 1.350 . S
C1275 H1262 0.929 . S
C1275 C1267 1.433 . S
C1275 N1277 1.384 . S
N1276 C1272 1.427 . S
N1276 C1273 1.384 . S
N1277 C1269 1.427 . S
N1277 C1275 1.384 . S
H1278 C1284 0.930 . S
H1279 C1288 0.930 . S
H1280 C1293 0.929 . S
H1281 C1291 0.929 . S
H1282 C1286 0.929 . S
H1283 C1292 0.929 . S
C1284 H1278 0.930 . S
C1284 C1285 1.367 . S
C1284 C1292 1.378 . S
C1285 C1284 1.367 . S
C1285 C1293 1.433 . S
C1286 H1282 0.929 . S
C1286 C1288 1.378 . S
C1286 C1290 1.350 . S
C1287 C1290 1.463 . S
C1287 C1292 1.350 . S
C1287 N1295 1.427 . S
C1288 H1279 0.930 . S
C1288 C1286 1.378 . S
C1288 C1289 1.367 . S
C1289 C1288 1.367 . S
C1289 C1291 1.433 . S
C1290 C1286 1.350 . S
C1290 C1287 1.463 . S
C1290 N1294 1.427 . S
C1291 H1281 0.929 . S
C1291 C1289 1.433 . S
C1291 N1294 1.384 . S
C1292 H1283 0.929 . S
C1292 C1284 1.378 . S
C1292 C1287 1.350 . S
C1293 H1280 0.929 . S
C1293 C1285 1.433 . S
C1293 N1295 1.384 . S
N1294 C1290 1.427 . S
N1294 C1291 1.384 . S
N1295 C1287 1.427 . S
N1295 C1293 1.384 . S
H1296 C1302 0.930 . S
H1297 C1306 0.930 . S
H1298 C1311 0.929 . S
H1299 C1309 0.929 . S
H1300 C1304 0.929 . S
H1301 C1310 0.929 . S
C1302 H1296 0.930 . S
C1302 C1303 1.367 . S
C1302 C1310 1.378 . S
C1303 C1302 1.367 . S
C1303 C1311 1.433 . S
C1304 H1300 0.929 . S
C1304 C1306 1.378 . S
C1304 C1308 1.350 . S
C1305 C1308 1.463 . S
C1305 C1310 1.350 . S
C1305 N1313 1.427 . S
C1306 H1297 0.930 . S
C1306 C1304 1.378 . S
C1306 C1307 1.367 . S
C1307 C1306 1.367 . S
C1307 C1309 1.433 . S
C1308 C1304 1.350 . S
C1308 C1305 1.463 . S
C1308 N1312 1.427 . S
C1309 H1299 0.929 . S
C1309 C1307 1.433 . S
C1309 N1312 1.384 . S
C1310 H1301 0.929 . S
C1310 C1302 1.378 . S
C1310 C1305 1.350 . S
C1311 H1298 0.929 . S
C1311 C1303 1.433 . S
C1311 N1313 1.384 . S
N1312 C1308 1.427 . S
N1312 C1309 1.384 . S
N1313 C1305 1.427 . S
N1313 C1311 1.384 . S
H1314 C1320 0.930 . S
H1315 C1324 0.930 . S
H1316 C1329 0.929 . S
H1317 C1327 0.929 . S
H1318 C1322 0.929 . S
H1319 C1328 0.929 . S
C1320 H1314 0.930 . S
C1320 C1321 1.367 . S
C1320 C1328 1.378 . S
C1321 C1320 1.367 . S
C1321 C1329 1.433 . S
C1322 H1318 0.929 . S
C1322 C1324 1.378 . S
C1322 C1326 1.350 . S
C1323 C1326 1.463 . S
C1323 C1328 1.350 . S
C1323 N1331 1.427 . S
C1324 H1315 0.930 . S
C1324 C1322 1.378 . S
C1324 C1325 1.367 . S
C1325 C1324 1.367 . S
C1325 C1327 1.433 . S
C1326 C1322 1.350 . S
C1326 C1323 1.463 . S
C1326 N1330 1.427 . S
C1327 H1317 0.929 . S
C1327 C1325 1.433 . S
C1327 N1330 1.384 . S
C1328 H1319 0.929 . S
C1328 C1320 1.378 . S
C1328 C1323 1.350 . S
C1329 H1316 0.929 . S
C1329 C1321 1.433 . S
C1329 N1331 1.384 . S
N1330 C1326 1.427 . S
N1330 C1327 1.384 . S
N1331 C1323 1.427 . S
N1331 C1329 1.384 . S
H1332 C1338 0.930 . S
H1333 C1342 0.930 . S
H1334 C1347 0.929 . S
H1335 C1345 0.929 . S
H1336 C1340 0.929 . S
H1337 C1346 0.929 . S
C1338 H1332 0.930 . S
C1338 C1339 1.367 . S
C1338 C1346 1.378 . S
C1339 C1338 1.367 . S
C1339 C1347 1.433 . S
C1340 H1336 0.929 . S
C1340 C1342 1.378 . S
C1340 C1344 1.350 . S
C1341 C1344 1.463 . S
C1341 C1346 1.350 . S
C1341 N1349 1.427 . S
C1342 H1333 0.930 . S
C1342 C1340 1.378 . S
C1342 C1343 1.367 . S
C1343 C1342 1.367 . S
C1343 C1345 1.433 . S
C1344 C1340 1.350 . S
C1344 C1341 1.463 . S
C1344 N1348 1.427 . S
C1345 H1335 0.929 . S
C1345 C1343 1.433 . S
C1345 N1348 1.384 . S
C1346 H1337 0.929 . S
C1346 C1338 1.378 . S
C1346 C1341 1.350 . S
C1347 H1334 0.929 . S
C1347 C1339 1.433 . S
C1347 N1349 1.384 . S
N1348 C1344 1.427 . S
N1348 C1345 1.384 . S
N1349 C1341 1.427 . S
N1349 C1347 1.384 . S
H1350 C1356 0.930 . S
H1351 C1360 0.930 . S
H1352 C1365 0.929 . S
H1353 C1363 0.929 . S
H1354 C1358 0.929 . S
H1355 C1364 0.929 . S
C1356 H1350 0.930 . S
C1356 C1357 1.367 . S
C1356 C1364 1.378 . S
C1357 C1356 1.367 . S
C1357 C1365 1.433 . S
C1358 H1354 0.929 . S
C1358 C1360 1.378 . S
C1358 C1362 1.350 . S
C1359 C1362 1.463 . S
C1359 C1364 1.350 . S
C1359 N1367 1.427 . S
C1360 H1351 0.930 . S
C1360 C1358 1.378 . S
C1360 C1361 1.367 . S
C1361 C1360 1.367 . S
C1361 C1363 1.433 . S
C1362 C1358 1.350 . S
C1362 C1359 1.463 . S
C1362 N1366 1.427 . S
C1363 H1353 0.929 . S
C1363 C1361 1.433 . S
C1363 N1366 1.384 . S
C1364 H1355 0.929 . S
C1364 C1356 1.378 . S
C1364 C1359 1.350 . S
C1365 H1352 0.929 . S
C1365 C1357 1.433 . S
C1365 N1367 1.384 . S
N1366 C1362 1.427 . S
N1366 C1363 1.384 . S
N1367 C1359 1.427 . S
N1367 C1365 1.384 . S
H1368 C1374 0.930 . S
H1369 C1378 0.930 . S
H1370 C1383 0.929 . S
H1371 C1381 0.929 . S
H1372 C1376 0.929 . S
H1373 C1382 0.929 . S
C1374 H1368 0.930 . S
C1374 C1375 1.367 . S
C1374 C1382 1.378 . S
C1375 C1374 1.367 . S
C1375 C1383 1.433 . S
C1376 H1372 0.929 . S
C1376 C1378 1.378 . S
C1376 C1380 1.350 . S
C1377 C1380 1.463 . S
C1377 C1382 1.350 . S
C1377 N1385 1.427 . S
C1378 H1369 0.930 . S
C1378 C1376 1.378 . S
C1378 C1379 1.367 . S
C1379 C1378 1.367 . S
C1379 C1381 1.433 . S
C1380 C1376 1.350 . S
C1380 C1377 1.463 . S
C1380 N1384 1.427 . S
C1381 H1371 0.929 . S
C1381 C1379 1.433 . S
C1381 N1384 1.384 . S
C1382 H1373 0.929 . S
C1382 C1374 1.378 . S
C1382 C1377 1.350 . S
C1383 H1370 0.929 . S
C1383 C1375 1.433 . S
C1383 N1385 1.384 . S
N1384 C1380 1.427 . S
N1384 C1381 1.384 . S
N1385 C1377 1.427 . S
N1385 C1383 1.384 . S
H1386 C1392 0.930 . S
H1387 C1396 0.930 . S
H1388 C1401 0.929 . S
H1389 C1399 0.929 . S
H1390 C1394 0.929 . S
H1391 C1400 0.929 . S
C1392 H1386 0.930 . S
C1392 C1393 1.367 . S
C1392 C1400 1.378 . S
C1393 C1392 1.367 . S
C1393 C1401 1.433 . S
C1394 H1390 0.929 . S
C1394 C1396 1.378 . S
C1394 C1398 1.350 . S
C1395 C1398 1.463 . S
C1395 C1400 1.350 . S
C1395 N1403 1.427 . S
C1396 H1387 0.930 . S
C1396 C1394 1.378 . S
C1396 C1397 1.367 . S
C1397 C1396 1.367 . S
C1397 C1399 1.433 . S
C1398 C1394 1.350 . S
C1398 C1395 1.463 . S
C1398 N1402 1.427 . S
C1399 H1389 0.929 . S
C1399 C1397 1.433 . S
C1399 N1402 1.384 . S
C1400 H1391 0.929 . S
C1400 C1392 1.378 . S
C1400 C1395 1.350 . S
C1401 H1388 0.929 . S
C1401 C1393 1.433 . S
C1401 N1403 1.384 . S
N1402 C1398 1.427 . S
N1402 C1399 1.384 . S
N1403 C1395 1.427 . S
N1403 C1401 1.384 . S
H1404 C1410 0.930 . S
H1405 C1414 0.930 . S
H1406 C1419 0.929 . S
H1407 C1417 0.929 . S
H1408 C1412 0.929 . S
H1409 C1418 0.929 . S
C1410 H1404 0.930 . S
C1410 C1411 1.367 . S
C1410 C1418 1.378 . S
C1411 C1410 1.367 . S
C1411 C1419 1.433 . S
C1412 H1408 0.929 . S
C1412 C1414 1.378 . S
C1412 C1416 1.350 . S
C1413 C1416 1.463 . S
C1413 C1418 1.350 . S
C1413 N1421 1.427 . S
C1414 H1405 0.930 . S
C1414 C1412 1.378 . S
C1414 C1415 1.367 . S
C1415 C1414 1.367 . S
C1415 C1417 1.433 . S
C1416 C1412 1.350 . S
C1416 C1413 1.463 . S
C1416 N1420 1.427 . S
C1417 H1407 0.929 . S
C1417 C1415 1.433 . S
C1417 N1420 1.384 . S
C1418 H1409 0.929 . S
C1418 C1410 1.378 . S
C1418 C1413 1.350 . S
C1419 H1406 0.929 . S
C1419 C1411 1.433 . S
C1419 N1421 1.384 . S
N1420 C1416 1.427 . S
N1420 C1417 1.384 . S
N1421 C1413 1.427 . S
N1421 C1419 1.384 . S
H1422 C1428 0.930 . S
H1423 C1432 0.930 . S
H1424 C1437 0.929 . S
H1425 C1435 0.929 . S
H1426 C1430 0.929 . S
H1427 C1436 0.929 . S
C1428 H1422 0.930 . S
C1428 C1429 1.367 . S
C1428 C1436 1.378 . S
C1429 C1428 1.367 . S
C1429 C1437 1.433 . S
C1430 H1426 0.929 . S
C1430 C1432 1.378 . S
C1430 C1434 1.350 . S
C1431 C1434 1.463 . S
C1431 C1436 1.350 . S
C1431 N1439 1.427 . S
C1432 H1423 0.930 . S
C1432 C1430 1.378 . S
C1432 C1433 1.367 . S
C1433 C1432 1.367 . S
C1433 C1435 1.433 . S
C1434 C1430 1.350 . S
C1434 C1431 1.463 . S
C1434 N1438 1.427 . S
C1435 H1425 0.929 . S
C1435 C1433 1.433 . S
C1435 N1438 1.384 . S
C1436 H1427 0.929 . S
C1436 C1428 1.378 . S
C1436 C1431 1.350 . S
C1437 H1424 0.929 . S
C1437 C1429 1.433 . S
C1437 N1439 1.384 . S
N1438 C1434 1.427 . S
N1438 C1435 1.384 . S
N1439 C1431 1.427 . S
N1439 C1437 1.384 . S
H1440 C1446 0.930 . S
H1441 C1450 0.930 . S
H1442 C1455 0.929 . S
H1443 C1453 0.929 . S
H1444 C1448 0.929 . S
H1445 C1454 0.929 . S
C1446 H1440 0.930 . S
C1446 C1447 1.367 . S
C1446 C1454 1.378 . S
C1447 C1446 1.367 . S
C1447 C1455 1.433 . S
C1448 H1444 0.929 . S
C1448 C1450 1.378 . S
C1448 C1452 1.350 . S
C1449 C1452 1.463 . S
C1449 C1454 1.350 . S
C1449 N1457 1.427 . S
C1450 H1441 0.930 . S
C1450 C1448 1.378 . S
C1450 C1451 1.367 . S
C1451 C1450 1.367 . S
C1451 C1453 1.433 . S
C1452 C1448 1.350 . S
C1452 C1449 1.463 . S
C1452 N1456 1.427 . S
C1453 H1443 0.929 . S
C1453 C1451 1.433 . S
C1453 N1456 1.384 . S
C1454 H1445 0.929 . S
C1454 C1446 1.378 . S
C1454 C1449 1.350 . S
C1455 H1442 0.929 . S
C1455 C1447 1.433 . S
C1455 N1457 1.384 . S
N1456 C1452 1.427 . S
N1456 C1453 1.384 . S
N1457 C1449 1.427 . S
N1457 C1455 1.384 . S
H1458 C1464 0.930 . S
H1459 C1468 0.930 . S
H1460 C1473 0.929 . S
H1461 C1471 0.929 . S
H1462 C1466 0.929 . S
H1463 C1472 0.929 . S
C1464 H1458 0.930 . S
C1464 C1465 1.367 . S
C1464 C1472 1.378 . S
C1465 C1464 1.367 . S
C1465 C1473 1.433 . S
C1466 H1462 0.929 . S
C1466 C1468 1.378 . S
C1466 C1470 1.350 . S
C1467 C1470 1.463 . S
C1467 C1472 1.350 . S
C1467 N1475 1.427 . S
C1468 H1459 0.930 . S
C1468 C1466 1.378 . S
C1468 C1469 1.367 . S
C1469 C1468 1.367 . S
C1469 C1471 1.433 . S
C1470 C1466 1.350 . S
C1470 C1467 1.463 . S
C1470 N1474 1.427 . S
C1471 H1461 0.929 . S
C1471 C1469 1.433 . S
C1471 N1474 1.384 . S
C1472 H1463 0.929 . S
C1472 C1464 1.378 . S
C1472 C1467 1.350 . S
C1473 H1460 0.929 . S
C1473 C1465 1.433 . S
C1473 N1475 1.384 . S
N1474 C1470 1.427 . S
N1474 C1471 1.384 . S
N1475 C1467 1.427 . S
N1475 C1473 1.384 . S
H1476 C1482 0.930 . S
H1477 C1486 0.930 . S
H1478 C1491 0.929 . S
H1479 C1489 0.929 . S
H1480 C1484 0.929 . S
H1481 C1490 0.929 . S
C1482 H1476 0.930 . S
C1482 C1483 1.367 . S
C1482 C1490 1.378 . S
C1483 C1482 1.367 . S
C1483 C1491 1.433 . S
C1484 H1480 0.929 . S
C1484 C1486 1.378 . S
C1484 C1488 1.350 . S
C1485 C1488 1.463 . S
C1485 C1490 1.350 . S
C1485 N1493 1.427 . S
C1486 H1477 0.930 . S
C1486 C1484 1.378 . S
C1486 C1487 1.367 . S
C1487 C1486 1.367 . S
C1487 C1489 1.433 . S
C1488 C1484 1.350 . S
C1488 C1485 1.463 . S
C1488 N1492 1.427 . S
C1489 H1479 0.929 . S
C1489 C1487 1.433 . S
C1489 N1492 1.384 . S
C1490 H1481 0.929 . S
C1490 C1482 1.378 . S
C1490 C1485 1.350 . S
C1491 H1478 0.929 . S
C1491 C1483 1.433 . S
C1491 N1493 1.384 . S
N1492 C1488 1.427 . S
N1492 C1489 1.384 . S
N1493 C1485 1.427 . S
N1493 C1491 1.384 . S
H1494 C1500 0.930 . S
H1495 C1504 0.930 . S
H1496 C1509 0.929 . S
H1497 C1507 0.929 . S
H1498 C1502 0.929 . S
H1499 C1508 0.929 . S
C1500 H1494 0.930 . S
C1500 C1501 1.367 . S
C1500 C1508 1.378 . S
C1501 C1500 1.367 . S
C1501 C1509 1.433 . S
C1502 H1498 0.929 . S
C1502 C1504 1.378 . S
C1502 C1506 1.350 . S
C1503 C1506 1.463 . S
C1503 C1508 1.350 . S
C1503 N1511 1.427 . S
C1504 H1495 0.930 . S
C1504 C1502 1.378 . S
C1504 C1505 1.367 . S
C1505 C1504 1.367 . S
C1505 C1507 1.433 . S
C1506 C1502 1.350 . S
C1506 C1503 1.463 . S
C1506 N1510 1.427 . S
C1507 H1497 0.929 . S
C1507 C1505 1.433 . S
C1507 N1510 1.384 . S
C1508 H1499 0.929 . S
C1508 C1500 1.378 . S
C1508 C1503 1.350 . S
C1509 H1496 0.929 . S
C1509 C1501 1.433 . S
C1509 N1511 1.384 . S
N1510 C1506 1.427 . S
N1510 C1507 1.384 . S
N1511 C1503 1.427 . S
N1511 C1509 1.384 . S
H1512 C1518 0.930 . S
H1513 C1522 0.930 . S
H1514 C1527 0.929 . S
H1515 C1525 0.929 . S
H1516 C1520 0.929 . S
H1517 C1526 0.929 . S
C1518 H1512 0.930 . S
C1518 C1519 1.367 . S
C1518 C1526 1.378 . S
C1519 C1518 1.367 . S
C1519 C1527 1.433 . S
C1520 H1516 0.929 . S
C1520 C1522 1.378 . S
C1520 C1524 1.350 . S
C1521 C1524 1.463 . S
C1521 C1526 1.350 . S
C1521 N1529 1.427 . S
C1522 H1513 0.930 . S
C1522 C1520 1.378 . S
C1522 C1523 1.367 . S
C1523 C1522 1.367 . S
C1523 C1525 1.433 . S
C1524 C1520 1.350 . S
C1524 C1521 1.463 . S
C1524 N1528 1.427 . S
C1525 H1515 0.929 . S
C1525 C1523 1.433 . S
C1525 N1528 1.384 . S
C1526 H1517 0.929 . S
C1526 C1518 1.378 . S
C1526 C1521 1.350 . S
C1527 H1514 0.929 . S
C1527 C1519 1.433 . S
C1527 N1529 1.384 . S
N1528 C1524 1.427 . S
N1528 C1525 1.384 . S
N1529 C1521 1.427 . S
N1529 C1527 1.384 . S
H1530 C1536 0.930 . S
H1531 C1540 0.930 . S
H1532 C1545 0.929 . S
H1533 C1543 0.929 . S
H1534 C1538 0.929 . S
H1535 C1544 0.929 . S
C1536 H1530 0.930 . S
C1536 C1537 1.367 . S
C1536 C1544 1.378 . S
C1537 C1536 1.367 . S
C1537 C1545 1.433 . S
C1538 H1534 0.929 . S
C1538 C1540 1.378 . S
C1538 C1542 1.350 . S
C1539 C1542 1.463 . S
C1539 C1544 1.350 . S
C1539 N1547 1.427 . S
C1540 H1531 0.930 . S
C1540 C1538 1.378 . S
C1540 C1541 1.367 . S
C1541 C1540 1.367 . S
C1541 C1543 1.433 . S
C1542 C1538 1.350 . S
C1542 C1539 1.463 . S
C1542 N1546 1.427 . S
C1543 H1533 0.929 . S
C1543 C1541 1.433 . S
C1543 N1546 1.384 . S
C1544 H1535 0.929 . S
C1544 C1536 1.378 . S
C1544 C1539 1.350 . S
C1545 H1532 0.929 . S
C1545 C1537 1.433 . S
C1545 N1547 1.384 . S
N1546 C1542 1.427 . S
N1546 C1543 1.384 . S
N1547 C1539 1.427 . S
N1547 C1545 1.384 . S
H1548 C1554 0.930 . S
H1549 C1558 0.930 . S
H1550 C1563 0.929 . S
H1551 C1561 0.929 . S
H1552 C1556 0.929 . S
H1553 C1562 0.929 . S
C1554 H1548 0.930 . S
C1554 C1555 1.367 . S
C1554 C1562 1.378 . S
C1555 C1554 1.367 . S
C1555 C1563 1.433 . S
C1556 H1552 0.929 . S
C1556 C1558 1.378 . S
C1556 C1560 1.350 . S
C1557 C1560 1.463 . S
C1557 C1562 1.350 . S
C1557 N1565 1.427 . S
C1558 H1549 0.930 . S
C1558 C1556 1.378 . S
C1558 C1559 1.367 . S
C1559 C1558 1.367 . S
C1559 C1561 1.433 . S
C1560 C1556 1.350 . S
C1560 C1557 1.463 . S
C1560 N1564 1.427 . S
C1561 H1551 0.929 . S
C1561 C1559 1.433 . S
C1561 N1564 1.384 . S
C1562 H1553 0.929 . S
C1562 C1554 1.378 . S
C1562 C1557 1.350 . S
C1563 H1550 0.929 . S
C1563 C1555 1.433 . S
C1563 N1565 1.384 . S
N1564 C1560 1.427 . S
N1564 C1561 1.384 . S
N1565 C1557 1.427 . S
N1565 C1563 1.384 . S
H1566 C1572 0.930 . S
H1567 C1576 0.930 . S
H1568 C1581 0.929 . S
H1569 C1579 0.929 . S
H1570 C1574 0.929 . S
H1571 C1580 0.929 . S
C1572 H1566 0.930 . S
C1572 C1573 1.367 . S
C1572 C1580 1.378 . S
C1573 C1572 1.367 . S
C1573 C1581 1.433 . S
C1574 H1570 0.929 . S
C1574 C1576 1.378 . S
C1574 C1578 1.350 . S
C1575 C1578 1.463 . S
C1575 C1580 1.350 . S
C1575 N1583 1.427 . S
C1576 H1567 0.930 . S
C1576 C1574 1.378 . S
C1576 C1577 1.367 . S
C1577 C1576 1.367 . S
C1577 C1579 1.433 . S
C1578 C1574 1.350 . S
C1578 C1575 1.463 . S
C1578 N1582 1.427 . S
C1579 H1569 0.929 . S
C1579 C1577 1.433 . S
C1579 N1582 1.384 . S
C1580 H1571 0.929 . S
C1580 C1572 1.378 . S
C1580 C1575 1.350 . S
C1581 H1568 0.929 . S
C1581 C1573 1.433 . S
C1581 N1583 1.384 . S
N1582 C1578 1.427 . S
N1582 C1579 1.384 . S
N1583 C1575 1.427 . S
N1583 C1581 1.384 . S
H1584 C1590 0.930 . S
H1585 C1594 0.930 . S
H1586 C1599 0.929 . S
H1587 C1597 0.929 . S
H1588 C1592 0.929 . S
H1589 C1598 0.929 . S
C1590 H1584 0.930 . S
C1590 C1591 1.367 . S
C1590 C1598 1.378 . S
C1591 C1590 1.367 . S
C1591 C1599 1.433 . S
C1592 H1588 0.929 . S
C1592 C1594 1.378 . S
C1592 C1596 1.350 . S
C1593 C1596 1.463 . S
C1593 C1598 1.350 . S
C1593 N1601 1.427 . S
C1594 H1585 0.930 . S
C1594 C1592 1.378 . S
C1594 C1595 1.367 . S
C1595 C1594 1.367 . S
C1595 C1597 1.433 . S
C1596 C1592 1.350 . S
C1596 C1593 1.463 . S
C1596 N1600 1.427 . S
C1597 H1587 0.929 . S
C1597 C1595 1.433 . S
C1597 N1600 1.384 . S
C1598 H1589 0.929 . S
C1598 C1590 1.378 . S
C1598 C1593 1.350 . S
C1599 H1586 0.929 . S
C1599 C1591 1.433 . S
C1599 N1601 1.384 . S
N1600 C1596 1.427 . S
N1600 C1597 1.384 . S
N1601 C1593 1.427 . S
N1601 C1599 1.384 . S
H1602 C1608 0.930 . S
H1603 C1612 0.930 . S
H1604 C1617 0.929 . S
H1605 C1615 0.929 . S
H1606 C1610 0.929 . S
H1607 C1616 0.929 . S
C1608 H1602 0.930 . S
C1608 C1609 1.367 . S
C1608 C1616 1.378 . S
C1609 C1608 1.367 . S
C1609 C1617 1.433 . S
C1610 H1606 0.929 . S
C1610 C1612 1.378 . S
C1610 C1614 1.350 . S
C1611 C1614 1.463 . S
C1611 C1616 1.350 . S
C1611 N1619 1.427 . S
C1612 H1603 0.930 . S
C1612 C1610 1.378 . S
C1612 C1613 1.367 . S
C1613 C1612 1.367 . S
C1613 C1615 1.433 . S
C1614 C1610 1.350 . S
C1614 C1611 1.463 . S
C1614 N1618 1.427 . S
C1615 H1605 0.929 . S
C1615 C1613 1.433 . S
C1615 N1618 1.384 . S
C1616 H1607 0.929 . S
C1616 C1608 1.378 . S
C1616 C1611 1.350 . S
C1617 H1604 0.929 . S
C1617 C1609 1.433 . S
C1617 N1619 1.384 . S
N1618 C1614 1.427 . S
N1618 C1615 1.384 . S
N1619 C1611 1.427 . S
N1619 C1617 1.384 . S
H1620 C1626 0.930 . S
H1621 C1630 0.930 . S
H1622 C1635 0.929 . S
H1623 C1633 0.929 . S
H1624 C1628 0.929 . S
H1625 C1634 0.929 . S
C1626 H1620 0.930 . S
C1626 C1627 1.367 . S
C1626 C1634 1.378 . S
C1627 C1626 1.367 . S
C1627 C1635 1.433 . S
C1628 H1624 0.929 . S
C1628 C1630 1.378 . S
C1628 C1632 1.350 . S
C1629 C1632 1.463 . S
C1629 C1634 1.350 . S
C1629 N1637 1.427 . S
C1630 H1621 0.930 . S
C1630 C1628 1.378 . S
C1630 C1631 1.367 . S
C1631 C1630 1.367 . S
C1631 C1633 1.433 . S
C1632 C1628 1.350 . S
C1632 C1629 1.463 . S
C1632 N1636 1.427 . S
C1633 H1623 0.929 . S
C1633 C1631 1.433 . S
C1633 N1636 1.384 . S
C1634 H1625 0.929 . S
C1634 C1626 1.378 . S
C1634 C1629 1.350 . S
C1635 H1622 0.929 . S
C1635 C1627 1.433 . S
C1635 N1637 1.384 . S
N1636 C1632 1.427 . S
N1636 C1633 1.384 . S
N1637 C1629 1.427 . S
N1637 C1635 1.384 . S
H1638 C1644 0.930 . S
H1639 C1648 0.930 . S
H1640 C1653 0.929 . S
H1641 C1651 0.929 . S
H1642 C1646 0.929 . S
H1643 C1652 0.929 . S
C1644 H1638 0.930 . S
C1644 C1645 1.367 . S
C1644 C1652 1.378 . S
C1645 C1644 1.367 . S
C1645 C1653 1.433 . S
C1646 H1642 0.929 . S
C1646 C1648 1.378 . S
C1646 C1650 1.350 . S
C1647 C1650 1.463 . S
C1647 C1652 1.350 . S
C1647 N1655 1.427 . S
C1648 H1639 0.930 . S
C1648 C1646 1.378 . S
C1648 C1649 1.367 . S
C1649 C1648 1.367 . S
C1649 C1651 1.433 . S
C1650 C1646 1.350 . S
C1650 C1647 1.463 . S
C1650 N1654 1.427 . S
C1651 H1641 0.929 . S
C1651 C1649 1.433 . S
C1651 N1654 1.384 . S
C1652 H1643 0.929 . S
C1652 C1644 1.378 . S
C1652 C1647 1.350 . S
C1653 H1640 0.929 . S
C1653 C1645 1.433 . S
C1653 N1655 1.384 . S
N1654 C1650 1.427 . S
N1654 C1651 1.384 . S
N1655 C1647 1.427 . S
N1655 C1653 1.384 . S
H1656 C1662 0.930 . S
H1657 C1666 0.930 . S
H1658 C1671 0.929 . S
H1659 C1669 0.929 . S
H1660 C1664 0.929 . S
H1661 C1670 0.929 . S
C1662 H1656 0.930 . S
C1662 C1663 1.367 . S
C1662 C1670 1.378 . S
C1663 C1662 1.367 . S
C1663 C1671 1.433 . S
C1664 H1660 0.929 . S
C1664 C1666 1.378 . S
C1664 C1668 1.350 . S
C1665 C1668 1.463 . S
C1665 C1670 1.350 . S
C1665 N1673 1.427 . S
C1666 H1657 0.930 . S
C1666 C1664 1.378 . S
C1666 C1667 1.367 . S
C1667 C1666 1.367 . S
C1667 C1669 1.433 . S
C1668 C1664 1.350 . S
C1668 C1665 1.463 . S
C1668 N1672 1.427 . S
C1669 H1659 0.929 . S
C1669 C1667 1.433 . S
C1669 N1672 1.384 . S
C1670 H1661 0.929 . S
C1670 C1662 1.378 . S
C1670 C1665 1.350 . S
C1671 H1658 0.929 . S
C1671 C1663 1.433 . S
C1671 N1673 1.384 . S
N1672 C1668 1.427 . S
N1672 C1669 1.384 . S
N1673 C1665 1.427 . S
N1673 C1671 1.384 . S
H1674 C1680 0.930 . S
H1675 C1684 0.930 . S
H1676 C1689 0.929 . S
H1677 C1687 0.929 . S
H1678 C1682 0.929 . S
H1679 C1688 0.929 . S
C1680 H1674 0.930 . S
C1680 C1681 1.367 . S
C1680 C1688 1.378 . S
C1681 C1680 1.367 . S
C1681 C1689 1.433 . S
C1682 H1678 0.929 . S
C1682 C1684 1.378 . S
C1682 C1686 1.350 . S
C1683 C1686 1.463 . S
C1683 C1688 1.350 . S
C1683 N1691 1.427 . S
C1684 H1675 0.930 . S
C1684 C1682 1.378 . S
C1684 C1685 1.367 . S
C1685 C1684 1.367 . S
C1685 C1687 1.433 . S
C1686 C1682 1.350 . S
C1686 C1683 1.463 . S
C1686 N1690 1.427 . S
C1687 H1677 0.929 . S
C1687 C1685 1.433 . S
C1687 N1690 1.384 . S
C1688 H1679 0.929 . S
C1688 C1680 1.378 . S
C1688 C1683 1.350 . S
C1689 H1676 0.929 . S
C1689 C1681 1.433 . S
C1689 N1691 1.384 . S
N1690 C1686 1.427 . S
N1690 C1687 1.384 . S
N1691 C1683 1.427 . S
N1691 C1689 1.384 . S
H1692 C1698 0.930 1_554 S
H1693 C1702 0.930 . S
H1694 C1707 0.929 . S
H1695 C1705 0.929 . S
H1696 C1700 0.929 . S
H1697 C1706 0.929 . S
C1698 H1692 0.930 1_556 S
C1698 C1699 1.367 . S
C1698 C1706 1.378 . S
C1699 C1698 1.367 . S
C1699 C1707 1.433 . S
C1700 H1696 0.929 . S
C1700 C1702 1.378 . S
C1700 C1704 1.350 . S
C1701 C1704 1.463 . S
C1701 C1706 1.350 . S
C1701 N1709 1.427 . S
C1702 H1693 0.930 . S
C1702 C1700 1.378 . S
C1702 C1703 1.367 . S
C1703 C1702 1.367 . S
C1703 C1705 1.433 . S
C1704 C1700 1.350 . S
C1704 C1701 1.463 . S
C1704 N1708 1.427 . S
C1705 H1695 0.929 . S
C1705 C1703 1.433 . S
C1705 N1708 1.384 . S
C1706 H1697 0.929 . S
C1706 C1698 1.378 . S
C1706 C1701 1.350 . S
C1707 H1694 0.929 . S
C1707 C1699 1.433 . S
C1707 N1709 1.384 . S
N1708 C1704 1.427 . S
N1708 C1705 1.384 . S
N1709 C1701 1.427 . S
N1709 C1707 1.384 . S
H1710 C1716 0.930 1_554 S
H1711 C1720 0.930 . S
H1712 C1725 0.929 . S
H1713 C1723 0.929 . S
H1714 C1718 0.929 . S
H1715 C1724 0.929 . S
C1716 H1710 0.930 1_556 S
C1716 C1717 1.367 . S
C1716 C1724 1.378 . S
C1717 C1716 1.367 . S
C1717 C1725 1.433 . S
C1718 H1714 0.929 . S
C1718 C1720 1.378 . S
C1718 C1722 1.350 . S
C1719 C1722 1.463 . S
C1719 C1724 1.350 . S
C1719 N1727 1.427 . S
C1720 H1711 0.930 . S
C1720 C1718 1.378 . S
C1720 C1721 1.367 . S
C1721 C1720 1.367 . S
C1721 C1723 1.433 . S
C1722 C1718 1.350 . S
C1722 C1719 1.463 . S
C1722 N1726 1.427 . S
C1723 H1713 0.929 . S
C1723 C1721 1.433 . S
C1723 N1726 1.384 . S
C1724 H1715 0.929 . S
C1724 C1716 1.378 . S
C1724 C1719 1.350 . S
C1725 H1712 0.929 . S
C1725 C1717 1.433 . S
C1725 N1727 1.384 . S
N1726 C1722 1.427 . S
N1726 C1723 1.384 . S
N1727 C1719 1.427 . S
N1727 C1725 1.384 . S
H1728 C1734 0.930 . S
H1729 C1738 0.930 . S
H1730 C1743 0.929 1_554 S
H1731 C1741 0.929 . S
H1732 C1736 0.929 . S
H1733 C1742 0.929 . S
C1734 H1728 0.930 . S
C1734 C1735 1.367 . S
C1734 C1742 1.378 . S
C1735 C1734 1.367 . S
C1735 C1743 1.433 . S
C1736 H1732 0.929 . S
C1736 C1738 1.378 . S
C1736 C1740 1.350 . S
C1737 C1740 1.463 . S
C1737 C1742 1.350 . S
C1737 N1745 1.427 . S
C1738 H1729 0.930 . S
C1738 C1736 1.378 . S
C1738 C1739 1.367 . S
C1739 C1738 1.367 . S
C1739 C1741 1.433 . S
C1740 C1736 1.350 . S
C1740 C1737 1.463 . S
C1740 N1744 1.427 . S
C1741 H1731 0.929 . S
C1741 C1739 1.433 . S
C1741 N1744 1.384 . S
C1742 H1733 0.929 . S
C1742 C1734 1.378 . S
C1742 C1737 1.350 . S
C1743 H1730 0.929 1_556 S
C1743 C1735 1.433 . S
C1743 N1745 1.384 . S
N1744 C1740 1.427 . S
N1744 C1741 1.384 . S
N1745 C1737 1.427 . S
N1745 C1743 1.384 . S
H1746 C1752 0.930 . S
H1747 C1756 0.930 . S
H1748 C1761 0.929 1_554 S
H1749 C1759 0.929 . S
H1750 C1754 0.929 . S
H1751 C1760 0.929 . S
C1752 H1746 0.930 . S
C1752 C1753 1.367 . S
C1752 C1760 1.378 . S
C1753 C1752 1.367 . S
C1753 C1761 1.433 . S
C1754 H1750 0.929 . S
C1754 C1756 1.378 . S
C1754 C1758 1.350 . S
C1755 C1758 1.463 . S
C1755 C1760 1.350 . S
C1755 N1763 1.427 . S
C1756 H1747 0.930 . S
C1756 C1754 1.378 . S
C1756 C1757 1.367 . S
C1757 C1756 1.367 . S
C1757 C1759 1.433 . S
C1758 C1754 1.350 . S
C1758 C1755 1.463 . S
C1758 N1762 1.427 . S
C1759 H1749 0.929 . S
C1759 C1757 1.433 . S
C1759 N1762 1.384 . S
C1760 H1751 0.929 . S
C1760 C1752 1.378 . S
C1760 C1755 1.350 . S
C1761 H1748 0.929 1_556 S
C1761 C1753 1.433 . S
C1761 N1763 1.384 . S
N1762 C1758 1.427 . S
N1762 C1759 1.384 . S
N1763 C1755 1.427 . S
N1763 C1761 1.384 . S
H1764 C1770 0.930 . S
H1765 C1774 0.930 . S
H1766 C1779 0.929 . S
H1767 C1777 0.929 . S
H1768 C1772 0.929 . S
H1769 C1778 0.929 . S
C1770 H1764 0.930 . S
C1770 C1771 1.367 . S
C1770 C1778 1.378 . S
C1771 C1770 1.367 . S
C1771 C1779 1.433 . S
C1772 H1768 0.929 . S
C1772 C1774 1.378 . S
C1772 C1776 1.350 . S
C1773 C1776 1.463 . S
C1773 C1778 1.350 . S
C1773 N1781 1.427 . S
C1774 H1765 0.930 . S
C1774 C1772 1.378 . S
C1774 C1775 1.367 . S
C1775 C1774 1.367 . S
C1775 C1777 1.433 . S
C1776 C1772 1.350 . S
C1776 C1773 1.463 . S
C1776 N1780 1.427 . S
C1777 H1767 0.929 . S
C1777 C1775 1.433 . S
C1777 N1780 1.384 . S
C1778 H1769 0.929 . S
C1778 C1770 1.378 . S
C1778 C1773 1.350 . S
C1779 H1766 0.929 . S
C1779 C1771 1.433 . S
C1779 N1781 1.384 . S
N1780 C1776 1.427 . S
N1780 C1777 1.384 . S
N1781 C1773 1.427 . S
N1781 C1779 1.384 . S
H1782 C1788 0.930 . S
H1783 C1792 0.930 . S
H1784 C1797 0.929 . S
H1785 C1795 0.929 . S
H1786 C1790 0.929 . S
H1787 C1796 0.929 . S
C1788 H1782 0.930 . S
C1788 C1789 1.367 . S
C1788 C1796 1.378 . S
C1789 C1788 1.367 . S
C1789 C1797 1.433 . S
C1790 H1786 0.929 . S
C1790 C1792 1.378 . S
C1790 C1794 1.350 . S
C1791 C1794 1.463 . S
C1791 C1796 1.350 . S
C1791 N1799 1.427 . S
C1792 H1783 0.930 . S
C1792 C1790 1.378 . S
C1792 C1793 1.367 . S
C1793 C1792 1.367 . S
C1793 C1795 1.433 . S
C1794 C1790 1.350 . S
C1794 C1791 1.463 . S
C1794 N1798 1.427 . S
C1795 H1785 0.929 . S
C1795 C1793 1.433 . S
C1795 N1798 1.384 . S
C1796 H1787 0.929 . S
C1796 C1788 1.378 . S
C1796 C1791 1.350 . S
C1797 H1784 0.929 . S
C1797 C1789 1.433 . S
C1797 N1799 1.384 . S
N1798 C1794 1.427 . S
N1798 C1795 1.384 . S
N1799 C1791 1.427 . S
N1799 C1797 1.384 . S
H1800 C1806 0.930 . S
H1801 C1810 0.930 . S
H1802 C1815 0.929 . S
H1803 C1813 0.929 . S
H1804 C1808 0.929 . S
H1805 C1814 0.929 . S
C1806 H1800 0.930 . S
C1806 C1807 1.367 . S
C1806 C1814 1.378 . S
C1807 C1806 1.367 . S
C1807 C1815 1.433 . S
C1808 H1804 0.929 . S
C1808 C1810 1.378 . S
C1808 C1812 1.350 . S
C1809 C1812 1.463 . S
C1809 C1814 1.350 . S
C1809 N1817 1.427 . S
C1810 H1801 0.930 . S
C1810 C1808 1.378 . S
C1810 C1811 1.367 . S
C1811 C1810 1.367 . S
C1811 C1813 1.433 . S
C1812 C1808 1.350 . S
C1812 C1809 1.463 . S
C1812 N1816 1.427 . S
C1813 H1803 0.929 . S
C1813 C1811 1.433 . S
C1813 N1816 1.384 . S
C1814 H1805 0.929 . S
C1814 C1806 1.378 . S
C1814 C1809 1.350 . S
C1815 H1802 0.929 . S
C1815 C1807 1.433 . S
C1815 N1817 1.384 . S
N1816 C1812 1.427 . S
N1816 C1813 1.384 . S
N1817 C1809 1.427 . S
N1817 C1815 1.384 . S
H1818 C1824 0.930 . S
H1819 C1828 0.930 . S
H1820 C1833 0.929 . S
H1821 C1831 0.929 . S
H1822 C1826 0.929 . S
H1823 C1832 0.929 . S
C1824 H1818 0.930 . S
C1824 C1825 1.367 . S
C1824 C1832 1.378 . S
C1825 C1824 1.367 . S
C1825 C1833 1.433 . S
C1826 H1822 0.929 . S
C1826 C1828 1.378 . S
C1826 C1830 1.350 . S
C1827 C1830 1.463 . S
C1827 C1832 1.350 . S
C1827 N1835 1.427 . S
C1828 H1819 0.930 . S
C1828 C1826 1.378 . S
C1828 C1829 1.367 . S
C1829 C1828 1.367 . S
C1829 C1831 1.433 . S
C1830 C1826 1.350 . S
C1830 C1827 1.463 . S
C1830 N1834 1.427 . S
C1831 H1821 0.929 . S
C1831 C1829 1.433 . S
C1831 N1834 1.384 . S
C1832 H1823 0.929 . S
C1832 C1824 1.378 . S
C1832 C1827 1.350 . S
C1833 H1820 0.929 . S
C1833 C1825 1.433 . S
C1833 N1835 1.384 . S
N1834 C1830 1.427 . S
N1834 C1831 1.384 . S
N1835 C1827 1.427 . S
N1835 C1833 1.384 . S
H1836 C1842 0.930 . S
H1837 C1846 0.930 . S
H1838 C1851 0.929 . S
H1839 C1849 0.929 . S
H1840 C1844 0.929 . S
H1841 C1850 0.929 . S
C1842 H1836 0.930 . S
C1842 C1843 1.367 . S
C1842 C1850 1.378 . S
C1843 C1842 1.367 . S
C1843 C1851 1.433 . S
C1844 H1840 0.929 . S
C1844 C1846 1.378 . S
C1844 C1848 1.350 . S
C1845 C1848 1.463 . S
C1845 C1850 1.350 . S
C1845 N1853 1.427 . S
C1846 H1837 0.930 . S
C1846 C1844 1.378 . S
C1846 C1847 1.367 . S
C1847 C1846 1.367 . S
C1847 C1849 1.433 . S
C1848 C1844 1.350 . S
C1848 C1845 1.463 . S
C1848 N1852 1.427 . S
C1849 H1839 0.929 . S
C1849 C1847 1.433 . S
C1849 N1852 1.384 . S
C1850 H1841 0.929 . S
C1850 C1842 1.378 . S
C1850 C1845 1.350 . S
C1851 H1838 0.929 . S
C1851 C1843 1.433 . S
C1851 N1853 1.384 . S
N1852 C1848 1.427 . S
N1852 C1849 1.384 . S
N1853 C1845 1.427 . S
N1853 C1851 1.384 . S
H1854 C1860 0.930 . S
H1855 C1864 0.930 . S
H1856 C1869 0.929 . S
H1857 C1867 0.929 . S
H1858 C1862 0.929 . S
H1859 C1868 0.929 . S
C1860 H1854 0.930 . S
C1860 C1861 1.367 . S
C1860 C1868 1.378 . S
C1861 C1860 1.367 . S
C1861 C1869 1.433 . S
C1862 H1858 0.929 . S
C1862 C1864 1.378 . S
C1862 C1866 1.350 . S
C1863 C1866 1.463 . S
C1863 C1868 1.350 . S
C1863 N1871 1.427 . S
C1864 H1855 0.930 . S
C1864 C1862 1.378 . S
C1864 C1865 1.367 . S
C1865 C1864 1.367 . S
C1865 C1867 1.433 . S
C1866 C1862 1.350 . S
C1866 C1863 1.463 . S
C1866 N1870 1.427 . S
C1867 H1857 0.929 . S
C1867 C1865 1.433 . S
C1867 N1870 1.384 . S
C1868 H1859 0.929 . S
C1868 C1860 1.378 . S
C1868 C1863 1.350 . S
C1869 H1856 0.929 . S
C1869 C1861 1.433 . S
C1869 N1871 1.384 . S
N1870 C1866 1.427 . S
N1870 C1867 1.384 . S
N1871 C1863 1.427 . S
N1871 C1869 1.384 . S
H1872 C1878 0.930 . S
H1873 C1882 0.930 . S
H1874 C1887 0.929 . S
H1875 C1885 0.929 . S
H1876 C1880 0.929 . S
H1877 C1886 0.929 . S
C1878 H1872 0.930 . S
C1878 C1879 1.367 . S
C1878 C1886 1.378 . S
C1879 C1878 1.367 . S
C1879 C1887 1.433 . S
C1880 H1876 0.929 . S
C1880 C1882 1.378 . S
C1880 C1884 1.350 . S
C1881 C1884 1.463 . S
C1881 C1886 1.350 . S
C1881 N1889 1.427 . S
C1882 H1873 0.930 . S
C1882 C1880 1.378 . S
C1882 C1883 1.367 . S
C1883 C1882 1.367 . S
C1883 C1885 1.433 . S
C1884 C1880 1.350 . S
C1884 C1881 1.463 . S
C1884 N1888 1.427 . S
C1885 H1875 0.929 . S
C1885 C1883 1.433 . S
C1885 N1888 1.384 . S
C1886 H1877 0.929 . S
C1886 C1878 1.378 . S
C1886 C1881 1.350 . S
C1887 H1874 0.929 . S
C1887 C1879 1.433 . S
C1887 N1889 1.384 . S
N1888 C1884 1.427 . S
N1888 C1885 1.384 . S
N1889 C1881 1.427 . S
N1889 C1887 1.384 . S
H1890 C1896 0.930 . S
H1891 C1900 0.930 . S
H1892 C1905 0.929 . S
H1893 C1903 0.929 . S
H1894 C1898 0.929 . S
H1895 C1904 0.929 . S
C1896 H1890 0.930 . S
C1896 C1897 1.367 . S
C1896 C1904 1.378 . S
C1897 C1896 1.367 . S
C1897 C1905 1.433 1_455 S
C1898 H1894 0.929 . S
C1898 C1900 1.378 . S
C1898 C1902 1.350 1_655 S
C1899 C1902 1.463 . S
C1899 C1904 1.350 . S
C1899 N1907 1.427 1_455 S
C1900 H1891 0.930 . S
C1900 C1898 1.378 . S
C1900 C1901 1.367 1_655 S
C1901 C1900 1.367 1_455 S
C1901 C1903 1.433 . S
C1902 C1898 1.350 1_455 S
C1902 C1899 1.463 . S
C1902 N1906 1.427 . S
C1903 H1893 0.929 . S
C1903 C1901 1.433 . S
C1903 N1906 1.384 . S
C1904 H1895 0.929 . S
C1904 C1896 1.378 . S
C1904 C1899 1.350 . S
C1905 H1892 0.929 . S
C1905 C1897 1.433 1_655 S
C1905 N1907 1.384 . S
N1906 C1902 1.427 . S
N1906 C1903 1.384 . S
N1907 C1899 1.427 1_655 S
N1907 C1905 1.384 . S
H1908 C1914 0.930 . S
H1909 C1918 0.930 . S
H1910 C1923 0.929 . S
H1911 C1921 0.929 . S
H1912 C1916 0.929 . S
H1913 C1922 0.929 . S
C1914 H1908 0.930 . S
C1914 C1915 1.367 . S
C1914 C1922 1.378 . S
C1915 C1914 1.367 . S
C1915 C1923 1.433 . S
C1916 H1912 0.929 . S
C1916 C1918 1.378 . S
C1916 C1920 1.350 . S
C1917 C1920 1.463 . S
C1917 C1922 1.350 . S
C1917 N1925 1.427 . S
C1918 H1909 0.930 . S
C1918 C1916 1.378 . S
C1918 C1919 1.367 . S
C1919 C1918 1.367 . S
C1919 C1921 1.433 . S
C1920 C1916 1.350 . S
C1920 C1917 1.463 . S
C1920 N1924 1.427 . S
C1921 H1911 0.929 . S
C1921 C1919 1.433 . S
C1921 N1924 1.384 . S
C1922 H1913 0.929 . S
C1922 C1914 1.378 . S
C1922 C1917 1.350 . S
C1923 H1910 0.929 . S
C1923 C1915 1.433 . S
C1923 N1925 1.384 . S
N1924 C1920 1.427 . S
N1924 C1921 1.384 . S
N1925 C1917 1.427 . S
N1925 C1923 1.384 . S
H1926 C1932 0.930 . S
H1927 C1936 0.930 . S
H1928 C1941 0.929 . S
H1929 C1939 0.929 1_545 S
H1930 C1934 0.929 . S
H1931 C1940 0.939 . S
C1932 H1926 0.930 . S
C1932 C1933 1.367 . S
C1932 C1940 1.378 . S
C1933 C1932 1.367 . S
C1933 C1941 1.433 . S
C1934 H1930 0.929 . S
C1934 C1936 1.378 . S
C1934 C1938 1.350 . S
C1935 C1938 1.463 . S
C1935 C1940 1.350 . S
C1935 N1943 1.427 . S
C1936 H1927 0.930 . S
C1936 C1934 1.378 . S
C1936 C1937 1.367 . S
C1937 C1936 1.367 . S
C1937 C1939 1.433 . S
C1938 C1934 1.350 . S
C1938 C1935 1.463 . S
C1938 N1942 1.427 . S
C1939 H1929 0.929 1_565 S
C1939 C1937 1.433 . S
C1939 N1942 1.384 . S
C1940 H1931 0.939 . S
C1940 C1932 1.378 . S
C1940 C1935 1.350 . S
C1941 H1928 0.929 . S
C1941 C1933 1.433 . S
C1941 N1943 1.384 . S
N1942 C1938 1.427 . S
N1942 C1939 1.384 . S
N1943 C1935 1.427 . S
N1943 C1941 1.384 . S
H1944 C1950 0.930 . S
H1945 C1954 0.930 . S
H1946 C1959 0.929 . S
H1947 C1957 0.931 . S
H1948 C1952 0.929 . S
H1949 C1958 0.929 . S
C1950 H1944 0.930 . S
C1950 C1951 1.367 . S
C1950 C1958 1.378 . S
C1951 C1950 1.367 . S
C1951 C1959 1.433 . S
C1952 H1948 0.929 . S
C1952 C1954 1.378 . S
C1952 C1956 1.350 . S
C1953 C1956 1.463 . S
C1953 C1958 1.350 . S
C1953 N1961 1.427 . S
C1954 H1945 0.930 . S
C1954 C1952 1.378 . S
C1954 C1955 1.369 . S
C1955 C1954 1.369 . S
C1955 C1957 1.443 1_565 S
C1956 C1952 1.350 . S
C1956 C1953 1.463 . S
C1956 N1960 1.427 . S
C1957 H1947 0.931 . S
C1957 C1955 1.443 1_545 S
C1957 N1960 1.379 1_545 S
C1958 H1949 0.929 . S
C1958 C1950 1.378 . S
C1958 C1953 1.350 . S
C1959 H1946 0.929 . S
C1959 C1951 1.433 . S
C1959 N1961 1.384 . S
N1960 C1956 1.427 . S
N1960 C1957 1.379 1_565 S
N1961 C1953 1.427 . S
N1961 C1959 1.384 . S
H1962 C1968 0.930 . S
H1963 C1972 0.930 . S
H1964 C1977 0.929 1_655 S
H1965 C1975 0.929 . S
H1966 C1970 0.929 . S
H1967 C1976 0.929 . S
C1968 H1962 0.930 . S
C1968 C1969 1.367 . S
C1968 C1976 1.378 . S
C1969 C1968 1.367 . S
C1969 C1977 1.433 . S
C1970 H1966 0.929 . S
C1970 C1972 1.378 . S
C1970 C1974 1.350 1_655 S
C1971 C1974 1.463 . S
C1971 C1976 1.350 . S
C1971 N1979 1.429 . S
C1972 H1963 0.930 . S
C1972 C1970 1.378 . S
C1972 C1973 1.353 1_655 S
C1973 C1972 1.353 1_455 S
C1973 C1975 1.441 . S
C1974 C1970 1.350 1_455 S
C1974 C1971 1.463 . S
C1974 N1978 1.427 . S
C1975 H1965 0.929 . S
C1975 C1973 1.441 . S
C1975 N1978 1.384 . S
C1976 H1967 0.929 . S
C1976 C1968 1.378 . S
C1976 C1971 1.350 . S
C1977 H1964 0.929 1_455 S
C1977 C1969 1.433 . S
C1977 N1979 1.382 . S
N1978 C1974 1.427 . S
N1978 C1975 1.384 . S
N1979 C1971 1.429 . S
N1979 C1977 1.382 . S
H1980 C1986 0.930 . S
H1981 C1990 0.930 . S
H1982 C1995 0.929 . S
H1983 C1993 0.929 . S
H1984 C1988 0.929 . S
H1985 C1994 0.929 . S
C1986 H1980 0.930 . S
C1986 C1987 1.367 . S
C1986 C1994 1.378 . S
C1987 C1986 1.367 . S
C1987 C1995 1.433 . S
C1988 H1984 0.929 . S
C1988 C1990 1.378 . S
C1988 C1992 1.350 . S
C1989 C1992 1.463 . S
C1989 C1994 1.350 . S
C1989 N1997 1.427 . S
C1990 H1981 0.930 . S
C1990 C1988 1.378 . S
C1990 C1991 1.367 . S
C1991 C1990 1.367 . S
C1991 C1993 1.433 . S
C1992 C1988 1.350 . S
C1992 C1989 1.463 . S
C1992 N1996 1.427 . S
C1993 H1983 0.929 . S
C1993 C1991 1.433 . S
C1993 N1996 1.384 . S
C1994 H1985 0.929 . S
C1994 C1986 1.378 . S
C1994 C1989 1.350 . S
C1995 H1982 0.929 . S
C1995 C1987 1.433 . S
C1995 N1997 1.384 . S
N1996 C1992 1.427 . S
N1996 C1993 1.384 . S
N1997 C1989 1.427 . S
N1997 C1995 1.384 . S
H1998 C2004 0.930 . S
H1999 C2008 0.930 . S
H2000 C2013 0.929 . S
H2001 C2011 0.929 . S
H2002 C2006 0.929 . S
H2003 C2012 0.929 . S
C2004 H1998 0.930 . S
C2004 C2005 1.367 . S
C2004 C2012 1.378 . S
C2005 C2004 1.367 . S
C2005 C2013 1.433 . S
C2006 H2002 0.929 . S
C2006 C2008 1.378 . S
C2006 C2010 1.350 . S
C2007 C2010 1.463 . S
C2007 C2012 1.350 . S
C2007 N2015 1.427 . S
C2008 H1999 0.930 . S
C2008 C2006 1.378 . S
C2008 C2009 1.367 . S
C2009 C2008 1.367 . S
C2009 C2011 1.433 . S
C2010 C2006 1.350 . S
C2010 C2007 1.463 . S
C2010 N2014 1.427 . S
C2011 H2001 0.929 . S
C2011 C2009 1.433 . S
C2011 N2014 1.384 . S
C2012 H2003 0.929 . S
C2012 C2004 1.378 . S
C2012 C2007 1.350 . S
C2013 H2000 0.929 . S
C2013 C2005 1.433 . S
C2013 N2015 1.384 . S
N2014 C2010 1.427 . S
N2014 C2011 1.384 . S
N2015 C2007 1.427 . S
N2015 C2013 1.384 . S
H2016 C2022 0.930 . S
H2017 C2026 0.930 . S
H2018 C2031 0.929 . S
H2019 C2029 0.929 . S
H2020 C2024 0.929 . S
H2021 C2030 0.929 . S
C2022 H2016 0.930 . S
C2022 C2023 1.367 . S
C2022 C2030 1.378 . S
C2023 C2022 1.367 . S
C2023 C2031 1.433 . S
C2024 H2020 0.929 . S
C2024 C2026 1.378 . S
C2024 C2028 1.350 . S
C2025 C2028 1.463 . S
C2025 C2030 1.350 . S
C2025 N2033 1.427 . S
C2026 H2017 0.930 . S
C2026 C2024 1.378 . S
C2026 C2027 1.367 . S
C2027 C2026 1.367 . S
C2027 C2029 1.433 . S
C2028 C2024 1.350 . S
C2028 C2025 1.463 . S
C2028 N2032 1.427 . S
C2029 H2019 0.929 . S
C2029 C2027 1.433 . S
C2029 N2032 1.384 . S
C2030 H2021 0.929 . S
C2030 C2022 1.378 . S
C2030 C2025 1.350 . S
C2031 H2018 0.929 . S
C2031 C2023 1.433 . S
C2031 N2033 1.384 . S
N2032 C2028 1.427 . S
N2032 C2029 1.384 . S
N2033 C2025 1.427 . S
N2033 C2031 1.384 . S
H2034 C2040 0.930 . S
H2035 C2044 0.930 . S
H2036 C2049 0.929 . S
H2037 C2047 0.929 . S
H2038 C2042 0.929 . S
H2039 C2048 0.929 . S
C2040 H2034 0.930 . S
C2040 C2041 1.367 . S
C2040 C2048 1.378 . S
C2041 C2040 1.367 . S
C2041 C2049 1.433 . S
C2042 H2038 0.929 . S
C2042 C2044 1.378 . S
C2042 C2046 1.350 . S
C2043 C2046 1.463 . S
C2043 C2048 1.350 . S
C2043 N2051 1.427 . S
C2044 H2035 0.930 . S
C2044 C2042 1.378 . S
C2044 C2045 1.367 . S
C2045 C2044 1.367 . S
C2045 C2047 1.433 . S
C2046 C2042 1.350 . S
C2046 C2043 1.463 . S
C2046 N2050 1.427 . S
C2047 H2037 0.929 . S
C2047 C2045 1.433 . S
C2047 N2050 1.384 . S
C2048 H2039 0.929 . S
C2048 C2040 1.378 . S
C2048 C2043 1.350 . S
C2049 H2036 0.929 . S
C2049 C2041 1.433 . S
C2049 N2051 1.384 . S
N2050 C2046 1.427 . S
N2050 C2047 1.384 . S
N2051 C2043 1.427 . S
N2051 C2049 1.384 . S
H2052 C2058 0.930 . S
H2053 C2062 0.930 . S
H2054 C2067 0.929 . S
H2055 C2065 0.929 . S
H2056 C2060 0.929 . S
H2057 C2066 0.929 . S
C2058 H2052 0.930 . S
C2058 C2059 1.367 . S
C2058 C2066 1.378 . S
C2059 C2058 1.367 . S
C2059 C2067 1.433 . S
C2060 H2056 0.929 . S
C2060 C2062 1.378 . S
C2060 C2064 1.350 . S
C2061 C2064 1.463 . S
C2061 C2066 1.350 . S
C2061 N2069 1.427 . S
C2062 H2053 0.930 . S
C2062 C2060 1.378 . S
C2062 C2063 1.367 . S
C2063 C2062 1.367 . S
C2063 C2065 1.433 . S
C2064 C2060 1.350 . S
C2064 C2061 1.463 . S
C2064 N2068 1.427 . S
C2065 H2055 0.929 . S
C2065 C2063 1.433 . S
C2065 N2068 1.384 . S
C2066 H2057 0.929 . S
C2066 C2058 1.378 . S
C2066 C2061 1.350 . S
C2067 H2054 0.929 . S
C2067 C2059 1.433 . S
C2067 N2069 1.384 . S
N2068 C2064 1.427 . S
N2068 C2065 1.384 . S
N2069 C2061 1.427 . S
N2069 C2067 1.384 . S
H2070 C2076 0.930 . S
H2071 C2080 0.930 . S
H2072 C2085 0.929 . S
H2073 C2083 0.929 . S
H2074 C2078 0.929 . S
H2075 C2084 0.929 . S
C2076 H2070 0.930 . S
C2076 C2077 1.367 . S
C2076 C2084 1.378 . S
C2077 C2076 1.367 . S
C2077 C2085 1.433 . S
C2078 H2074 0.929 . S
C2078 C2080 1.378 . S
C2078 C2082 1.350 . S
C2079 C2082 1.463 . S
C2079 C2084 1.350 . S
C2079 N2087 1.427 . S
C2080 H2071 0.930 . S
C2080 C2078 1.378 . S
C2080 C2081 1.367 . S
C2081 C2080 1.367 . S
C2081 C2083 1.433 . S
C2082 C2078 1.350 . S
C2082 C2079 1.463 . S
C2082 N2086 1.427 . S
C2083 H2073 0.929 . S
C2083 C2081 1.433 . S
C2083 N2086 1.384 . S
C2084 H2075 0.929 . S
C2084 C2076 1.378 . S
C2084 C2079 1.350 . S
C2085 H2072 0.929 . S
C2085 C2077 1.433 . S
C2085 N2087 1.384 . S
N2086 C2082 1.427 . S
N2086 C2083 1.384 . S
N2087 C2079 1.427 . S
N2087 C2085 1.384 . S
H2088 C2094 0.930 . S
H2089 C2098 0.930 . S
H2090 C2103 0.929 . S
H2091 C2101 0.929 . S
H2092 C2096 0.929 . S
H2093 C2102 0.929 . S
C2094 H2088 0.930 . S
C2094 C2095 1.367 . S
C2094 C2102 1.378 . S
C2095 C2094 1.367 . S
C2095 C2103 1.433 . S
C2096 H2092 0.929 . S
C2096 C2098 1.378 . S
C2096 C2100 1.350 . S
C2097 C2100 1.463 . S
C2097 C2102 1.350 . S
C2097 N2105 1.427 . S
C2098 H2089 0.930 . S
C2098 C2096 1.378 . S
C2098 C2099 1.367 . S
C2099 C2098 1.367 . S
C2099 C2101 1.433 . S
C2100 C2096 1.350 . S
C2100 C2097 1.463 . S
C2100 N2104 1.427 . S
C2101 H2091 0.929 . S
C2101 C2099 1.433 . S
C2101 N2104 1.384 . S
C2102 H2093 0.929 . S
C2102 C2094 1.378 . S
C2102 C2097 1.350 . S
C2103 H2090 0.929 . S
C2103 C2095 1.433 . S
C2103 N2105 1.384 . S
N2104 C2100 1.427 . S
N2104 C2101 1.384 . S
N2105 C2097 1.427 . S
N2105 C2103 1.384 . S
H2106 C2112 0.930 . S
H2107 C2116 0.930 . S
H2108 C2121 0.929 . S
H2109 C2119 0.929 . S
H2110 C2114 0.929 . S
H2111 C2120 0.929 . S
C2112 H2106 0.930 . S
C2112 C2113 1.367 . S
C2112 C2120 1.378 . S
C2113 C2112 1.367 . S
C2113 C2121 1.433 . S
C2114 H2110 0.929 . S
C2114 C2116 1.378 . S
C2114 C2118 1.350 . S
C2115 C2118 1.463 . S
C2115 C2120 1.350 . S
C2115 N2123 1.427 . S
C2116 H2107 0.930 . S
C2116 C2114 1.378 . S
C2116 C2117 1.367 . S
C2117 C2116 1.367 . S
C2117 C2119 1.433 . S
C2118 C2114 1.350 . S
C2118 C2115 1.463 . S
C2118 N2122 1.427 . S
C2119 H2109 0.929 . S
C2119 C2117 1.433 . S
C2119 N2122 1.384 . S
C2120 H2111 0.929 . S
C2120 C2112 1.378 . S
C2120 C2115 1.350 . S
C2121 H2108 0.929 . S
C2121 C2113 1.433 . S
C2121 N2123 1.384 . S
N2122 C2118 1.427 . S
N2122 C2119 1.384 . S
N2123 C2115 1.427 . S
N2123 C2121 1.384 . S
H2124 C2130 0.930 . S
H2125 C2134 0.930 . S
H2126 C2139 0.929 . S
H2127 C2137 0.929 . S
H2128 C2132 0.929 . S
H2129 C2138 0.929 . S
C2130 H2124 0.930 . S
C2130 C2131 1.367 . S
C2130 C2138 1.378 . S
C2131 C2130 1.367 . S
C2131 C2139 1.433 . S
C2132 H2128 0.929 . S
C2132 C2134 1.378 . S
C2132 C2136 1.350 . S
C2133 C2136 1.463 . S
C2133 C2138 1.350 . S
C2133 N2141 1.427 . S
C2134 H2125 0.930 . S
C2134 C2132 1.378 . S
C2134 C2135 1.367 . S
C2135 C2134 1.367 . S
C2135 C2137 1.433 . S
C2136 C2132 1.350 . S
C2136 C2133 1.463 . S
C2136 N2140 1.427 . S
C2137 H2127 0.929 . S
C2137 C2135 1.433 . S
C2137 N2140 1.384 . S
C2138 H2129 0.929 . S
C2138 C2130 1.378 . S
C2138 C2133 1.350 . S
C2139 H2126 0.929 . S
C2139 C2131 1.433 . S
C2139 N2141 1.384 . S
N2140 C2136 1.427 . S
N2140 C2137 1.384 . S
N2141 C2133 1.427 . S
N2141 C2139 1.384 . S
H2142 C2148 0.930 . S
H2143 C2152 0.930 . S
H2144 C2157 0.929 . S
H2145 C2155 0.929 . S
H2146 C2150 0.929 . S
H2147 C2156 0.929 . S
C2148 H2142 0.930 . S
C2148 C2149 1.367 . S
C2148 C2156 1.378 . S
C2149 C2148 1.367 . S
C2149 C2157 1.433 . S
C2150 H2146 0.929 . S
C2150 C2152 1.378 . S
C2150 C2154 1.350 . S
C2151 C2154 1.463 . S
C2151 C2156 1.350 . S
C2151 N2159 1.427 . S
C2152 H2143 0.930 . S
C2152 C2150 1.378 . S
C2152 C2153 1.367 . S
C2153 C2152 1.367 . S
C2153 C2155 1.433 . S
C2154 C2150 1.350 . S
C2154 C2151 1.463 . S
C2154 N2158 1.427 . S
C2155 H2145 0.929 . S
C2155 C2153 1.433 . S
C2155 N2158 1.384 . S
C2156 H2147 0.929 . S
C2156 C2148 1.378 . S
C2156 C2151 1.350 . S
C2157 H2144 0.929 . S
C2157 C2149 1.433 . S
C2157 N2159 1.384 . S
N2158 C2154 1.427 . S
N2158 C2155 1.384 . S
N2159 C2151 1.427 . S
N2159 C2157 1.384 . S
H2160 C2166 0.930 . S
H2161 C2170 0.930 . S
H2162 C2175 0.929 . S
H2163 C2173 0.929 . S
H2164 C2168 0.929 . S
H2165 C2174 0.929 . S
C2166 H2160 0.930 . S
C2166 C2167 1.367 . S
C2166 C2174 1.378 . S
C2167 C2166 1.367 . S
C2167 C2175 1.433 . S
C2168 H2164 0.929 . S
C2168 C2170 1.378 . S
C2168 C2172 1.350 . S
C2169 C2172 1.463 . S
C2169 C2174 1.350 . S
C2169 N2177 1.427 . S
C2170 H2161 0.930 . S
C2170 C2168 1.378 . S
C2170 C2171 1.367 . S
C2171 C2170 1.367 . S
C2171 C2173 1.433 . S
C2172 C2168 1.350 . S
C2172 C2169 1.463 . S
C2172 N2176 1.427 . S
C2173 H2163 0.929 . S
C2173 C2171 1.433 . S
C2173 N2176 1.384 . S
C2174 H2165 0.929 . S
C2174 C2166 1.378 . S
C2174 C2169 1.350 . S
C2175 H2162 0.929 . S
C2175 C2167 1.433 . S
C2175 N2177 1.384 . S
N2176 C2172 1.427 . S
N2176 C2173 1.384 . S
N2177 C2169 1.427 . S
N2177 C2175 1.384 . S
H2178 C2184 0.930 . S
H2179 C2188 0.930 . S
H2180 C2193 0.929 . S
H2181 C2191 0.929 . S
H2182 C2186 0.929 . S
H2183 C2192 0.929 . S
C2184 H2178 0.930 . S
C2184 C2185 1.367 . S
C2184 C2192 1.378 . S
C2185 C2184 1.367 . S
C2185 C2193 1.433 . S
C2186 H2182 0.929 . S
C2186 C2188 1.378 . S
C2186 C2190 1.350 . S
C2187 C2190 1.463 . S
C2187 C2192 1.350 . S
C2187 N2195 1.427 . S
C2188 H2179 0.930 . S
C2188 C2186 1.378 . S
C2188 C2189 1.367 . S
C2189 C2188 1.367 . S
C2189 C2191 1.433 . S
C2190 C2186 1.350 . S
C2190 C2187 1.463 . S
C2190 N2194 1.427 . S
C2191 H2181 0.929 . S
C2191 C2189 1.433 . S
C2191 N2194 1.384 . S
C2192 H2183 0.929 . S
C2192 C2184 1.378 . S
C2192 C2187 1.350 . S
C2193 H2180 0.929 . S
C2193 C2185 1.433 . S
C2193 N2195 1.384 . S
N2194 C2190 1.427 . S
N2194 C2191 1.384 . S
N2195 C2187 1.427 . S
N2195 C2193 1.384 . S
H2196 C2202 0.930 . S
H2197 C2206 0.930 . S
H2198 C2211 0.929 . S
H2199 C2209 0.929 . S
H2200 C2204 0.929 . S
H2201 C2210 0.929 . S
C2202 H2196 0.930 . S
C2202 C2203 1.367 . S
C2202 C2210 1.378 . S
C2203 C2202 1.367 . S
C2203 C2211 1.433 . S
C2204 H2200 0.929 . S
C2204 C2206 1.378 . S
C2204 C2208 1.350 . S
C2205 C2208 1.463 . S
C2205 C2210 1.350 . S
C2205 N2213 1.427 . S
C2206 H2197 0.930 . S
C2206 C2204 1.378 . S
C2206 C2207 1.367 . S
C2207 C2206 1.367 . S
C2207 C2209 1.433 . S
C2208 C2204 1.350 . S
C2208 C2205 1.463 . S
C2208 N2212 1.427 . S
C2209 H2199 0.929 . S
C2209 C2207 1.433 . S
C2209 N2212 1.384 . S
C2210 H2201 0.929 . S
C2210 C2202 1.378 . S
C2210 C2205 1.350 . S
C2211 H2198 0.929 . S
C2211 C2203 1.433 . S
C2211 N2213 1.384 . S
N2212 C2208 1.427 . S
N2212 C2209 1.384 . S
N2213 C2205 1.427 . S
N2213 C2211 1.384 . S
H2214 C2220 0.930 . S
H2215 C2224 0.930 . S
H2216 C2229 0.929 . S
H2217 C2227 0.929 . S
H2218 C2222 0.929 . S
H2219 C2228 0.929 . S
C2220 H2214 0.930 . S
C2220 C2221 1.367 . S
C2220 C2228 1.378 . S
C2221 C2220 1.367 . S
C2221 C2229 1.433 1_655 S
C2222 H2218 0.929 . S
C2222 C2224 1.378 . S
C2222 C2226 1.350 1_455 S
C2223 C2226 1.463 . S
C2223 C2228 1.350 . S
C2223 N2231 1.427 1_655 S
C2224 H2215 0.930 . S
C2224 C2222 1.378 . S
C2224 C2225 1.366 1_455 S
C2225 C2224 1.366 1_655 S
C2225 C2227 1.435 . S
C2226 C2222 1.350 1_655 S
C2226 C2223 1.463 . S
C2226 N2230 1.427 . S
C2227 H2217 0.929 . S
C2227 C2225 1.435 . S
C2227 N2230 1.384 . S
C2228 H2219 0.929 . S
C2228 C2220 1.378 . S
C2228 C2223 1.350 . S
C2229 H2216 0.929 . S
C2229 C2221 1.433 1_455 S
C2229 N2231 1.384 . S
N2230 C2226 1.427 . S
N2230 C2227 1.384 . S
N2231 C2223 1.427 1_455 S
N2231 C2229 1.384 . S
H2232 C2238 0.930 . S
H2233 C2242 0.930 . S
H2234 C2247 0.929 . S
H2235 C2245 0.929 . S
H2236 C2240 0.929 . S
H2237 C2246 0.929 . S
C2238 H2232 0.930 . S
C2238 C2239 1.367 . S
C2238 C2246 1.378 . S
C2239 C2238 1.367 . S
C2239 C2247 1.433 . S
C2240 H2236 0.929 . S
C2240 C2242 1.378 . S
C2240 C2244 1.350 . S
C2241 C2244 1.463 . S
C2241 C2246 1.350 . S
C2241 N2249 1.427 . S
C2242 H2233 0.930 . S
C2242 C2240 1.378 . S
C2242 C2243 1.367 . S
C2243 C2242 1.367 . S
C2243 C2245 1.433 . S
C2244 C2240 1.350 . S
C2244 C2241 1.463 . S
C2244 N2248 1.427 . S
C2245 H2235 0.929 . S
C2245 C2243 1.433 . S
C2245 N2248 1.384 . S
C2246 H2237 0.929 . S
C2246 C2238 1.378 . S
C2246 C2241 1.350 . S
C2247 H2234 0.929 . S
C2247 C2239 1.433 . S
C2247 N2249 1.384 . S
N2248 C2244 1.427 . S
N2248 C2245 1.384 . S
N2249 C2241 1.427 . S
N2249 C2247 1.384 . S
H2250 C2256 0.930 . S
H2251 C2260 0.930 . S
H2252 C2265 0.929 . S
H2253 C2263 0.929 . S
H2254 C2258 0.929 . S
H2255 C2264 0.929 . S
C2256 H2250 0.930 . S
C2256 C2257 1.367 1_565 S
C2256 C2264 1.378 . S
C2257 C2256 1.367 1_545 S
C2257 C2265 1.433 . S
C2258 H2254 0.929 . S
C2258 C2260 1.378 . S
C2258 C2262 1.350 . S
C2259 C2262 1.463 . S
C2259 C2264 1.350 1_545 S
C2259 N2267 1.427 . S
C2260 H2251 0.930 . S
C2260 C2258 1.378 . S
C2260 C2261 1.385 . S
C2261 C2260 1.385 . S
C2261 C2263 1.403 1_545 S
C2262 C2258 1.350 . S
C2262 C2259 1.463 . S
C2262 N2266 1.427 1_545 S
C2263 H2253 0.929 . S
C2263 C2261 1.403 1_565 S
C2263 N2266 1.384 . S
C2264 H2255 0.929 . S
C2264 C2256 1.378 . S
C2264 C2259 1.350 1_565 S
C2265 H2252 0.929 . S
C2265 C2257 1.433 . S
C2265 N2267 1.384 . S
N2266 C2262 1.427 1_565 S
N2266 C2263 1.384 . S
N2267 C2259 1.427 . S
N2267 C2265 1.384 . S
C979 C4 1.487 1_655 S
C983 C817 1.489 . S
C997 C38 1.676 . S
C1001 C842 1.657 . S
C1019 C853 1.509 . S
C1015 C74 1.497 . S
C1033 C76 1.502 . S
C1037 C878 1.482 . S
C1051 C2 1.605 . S
C1055 C896 1.612 . S
C1069 C40 1.521 . S
C1073 C907 1.497 . S
C1087 C110 1.559 . S
C1091 C889 1.582 1_455 S
C1109 C914 1.474 . S
C1105 C148 1.481 . S
C1127 C871 1.570 . S
C1123 C182 1.571 1_565 S
C1141 C184 1.521 . S
C1145 C860 1.537 1_545 S
C1163 C824 1.470 . S
C1159 C112 1.470 1_655 S
C1177 C146 1.585 . S
C1181 C835 1.585 . S
C1195 C220 1.586 . S
C1199 C925 1.563 . S
C1213 C254 1.714 . S
C1217 C950 1.701 . S
C1235 C961 1.582 . S
C1231 C290 1.608 . S
C1249 C292 1.541 . S
C1253 C662 1.525 . S
C1267 C218 1.660 . S
C1271 C680 1.656 . S
C1285 C256 1.538 . S
C1289 C691 1.519 . S
C1303 C326 1.610 . S
C1307 C673 1.608 . S
C1321 C364 1.517 . S
C1325 C698 1.504 . S
C1343 C655 1.608 . S
C1339 C398 1.611 . S
C1361 C968 1.579 . S
C1357 C400 1.590 . S
C1379 C932 1.476 . S
C1375 C328 1.477 . S
C1397 C943 1.628 . S
C1393 C362 1.632 . S
C1411 C436 1.553 . S
C1415 C709 1.534 . S
C1429 C470 1.701 . S
C1433 C734 1.692 . S
C1447 C506 1.600 . S
C1451 C745 1.583 . S
C1465 C508 1.567 . S
C1469 C770 1.556 . S
C1487 C788 1.650 . S
C1483 C434 1.666 . S
C1505 C799 1.531 . S
C1501 C472 1.550 . S
C1523 C781 1.651 . S
C1519 C542 1.659 . S
C1541 C806 1.507 . S
C1537 C580 1.521 . S
C1555 C614 1.601 . S
C1559 C763 1.595 . S
C1577 C752 1.540 . S
C1573 C616 1.542 . S
C1591 C544 1.490 . S
C1595 C716 1.484 . S
C1613 C727 1.606 . S
C1609 C578 1.610 . S
C1631 C664 1.460 . S
C1627 C14 1.483 . S
C1645 C39 1.474 . S
C1649 C682 1.414 . S
C1667 C692 1.383 . S
C1663 C75 1.461 . S
C1685 C710 1.328 . S
C1681 C86 1.345 . S
C1703 C736 1.428 . S
C1699 C3 1.501 . S
C1721 C746 1.404 . S
C1717 C50 1.432 . S
C1735 C111 1.526 . S
C1739 C754 1.435 . S
C1753 C158 1.419 . S
C1757 C718 1.373 . S
C1771 C183 1.593 . S
C1775 C728 1.513 . S
C1789 C194 1.507 . S
C1793 C674 1.465 . S
C1811 C700 1.364 . S
C1807 C122 1.432 . S
C1825 C147 1.444 . S
C1829 C656 1.370 . S
C1847 C772 1.426 . S
C1843 C230 1.463 . S
C1861 C255 1.541 . S
C1865 C790 1.464 . S
C1879 C291 1.485 . S
C1883 C800 1.403 . S
C1901 C818 1.300 . S
C1897 C302 1.306 . S
C1915 C219 1.497 . S
C1919 C844 1.424 . S
C1933 C266 1.390 . S
C1937 C854 1.406 . S
C1951 C327 1.410 . S
C1955 C862 1.339 . S
C1969 C374 1.375 . S
C1973 C826 1.338 . S
C1991 C836 1.509 . S
C1987 C399 1.582 . S
C2005 C410 1.504 . S
C2009 C782 1.469 . S
C2023 C338 1.474 . S
C2027 C808 1.432 . S
C2045 C764 1.421 . S
C2041 C363 1.506 . S
C2063 C880 1.397 . S
C2059 C446 1.388 . S
C2077 C471 1.449 . S
C2081 C898 1.391 . S
C2095 C507 1.444 . S
C2099 C908 1.376 . S
C2117 C926 1.321 . S
C2113 C518 1.365 . S
C2135 C952 1.483 . S
C2131 C435 1.549 . S
C2149 C482 1.493 . S
C2153 C962 1.466 . S
C2167 C543 1.494 . S
C2171 C970 1.400 . S
C2185 C590 1.473 . S
C2189 C934 1.425 . S
C2207 C944 1.539 . S
C2203 C615 1.619 . S
C2225 C890 1.380 1_655 S
C2221 C626 1.396 . S
C2243 C916 1.388 . S
C2239 C554 1.459 . S
C2257 C579 1.410 . S
C2261 C872 1.379 1_545 S
