# Generated by pormake.
# Topology ssa, (4,4)-cn, num edge types: 1
# Building blocks:
#     Node 0, Type 0, BuildingBlock: ESEHIV_clean_sbu_0, # of connection points: 4
#     Node 1, Type 0, BuildingBlock: ESEHIV_clean_sbu_0, # of connection points: 4
#     Node 2, Type 0, BuildingBlock: ESEHIV_clean_sbu_0, # of connection points: 4
#     Node 3, Type 0, BuildingBlock: ESEHIV_clean_sbu_0, # of connection points: 4
#     Node 4, Type 0, BuildingBlock: ESEHIV_clean_sbu_0, # of connection points: 4
#     Node 5, Type 0, BuildingBlock: ESEHIV_clean_sbu_0, # of connection points: 4
#     Node 6, Type 1, BuildingBlock: NAWXER_clean_linker_0, # of connection points: 4
#     Node 7, Type 1, BuildingBlock: NAWXER_clean_linker_0, # of connection points: 4
#     Node 8, Type 1, BuildingBlock: NAWXER_clean_linker_0, # of connection points: 4
#     Node 9, Type 1, BuildingBlock: NAWXER_clean_linker_0, # of connection points: 4
#     Node 10, Type 1, BuildingBlock: NAWXER_clean_linker_0, # of connection points: 4
#     Node 11, Type 1, BuildingBlock: NAWXER_clean_linker_0, # of connection points: 4
#     Edge 12, Type (0, 1), BuildingBlock: CIFDUS_clean_linker_0, # of connection points: 2
#     Edge 13, Type (0, 1), BuildingBlock: CIFDUS_clean_linker_0, # of connection points: 2
#     Edge 14, Type (0, 1), BuildingBlock: CIFDUS_clean_linker_0, # of connection points: 2
#     Edge 15, Type (0, 1), BuildingBlock: CIFDUS_clean_linker_0, # of connection points: 2
#     Edge 16, Type (0, 1), BuildingBlock: CIFDUS_clean_linker_0, # of connection points: 2
#     Edge 17, Type (0, 1), BuildingBlock: CIFDUS_clean_linker_0, # of connection points: 2
#     Edge 18, Type (0, 1), BuildingBlock: CIFDUS_clean_linker_0, # of connection points: 2
#     Edge 19, Type (0, 1), BuildingBlock: CIFDUS_clean_linker_0, # of connection points: 2
#     Edge 20, Type (0, 1), BuildingBlock: CIFDUS_clean_linker_0, # of connection points: 2
#     Edge 21, Type (0, 1), BuildingBlock: CIFDUS_clean_linker_0, # of connection points: 2
#     Edge 22, Type (0, 1), BuildingBlock: CIFDUS_clean_linker_0, # of connection points: 2
#     Edge 23, Type (0, 1), BuildingBlock: CIFDUS_clean_linker_0, # of connection points: 2
#     Edge 24, Type (0, 1), BuildingBlock: CIFDUS_clean_linker_0, # of connection points: 2
#     Edge 25, Type (0, 1), BuildingBlock: CIFDUS_clean_linker_0, # of connection points: 2
#     Edge 26, Type (0, 1), BuildingBlock: CIFDUS_clean_linker_0, # of connection points: 2
#     Edge 27, Type (0, 1), BuildingBlock: CIFDUS_clean_linker_0, # of connection points: 2
#     Edge 28, Type (0, 1), BuildingBlock: CIFDUS_clean_linker_0, # of connection points: 2
#     Edge 29, Type (0, 1), BuildingBlock: CIFDUS_clean_linker_0, # of connection points: 2
#     Edge 30, Type (0, 1), BuildingBlock: CIFDUS_clean_linker_0, # of connection points: 2
#     Edge 31, Type (0, 1), BuildingBlock: CIFDUS_clean_linker_0, # of connection points: 2
#     Edge 32, Type (0, 1), BuildingBlock: CIFDUS_clean_linker_0, # of connection points: 2
#     Edge 33, Type (0, 1), BuildingBlock: CIFDUS_clean_linker_0, # of connection points: 2
#     Edge 34, Type (0, 1), BuildingBlock: CIFDUS_clean_linker_0, # of connection points: 2
#     Edge 35, Type (0, 1), BuildingBlock: CIFDUS_clean_linker_0, # of connection points: 2
# Relax obj value: 0.009
# Max RMSD: 0.107
# Mean RMSD: 0.056
data_MOF--net-ssa--node1-ESEHIV_clean_sbu_0--node2-NAWXER_clean_linker_0--edge1-CIFDUS_clean_linker_0
_symmetry_space_group_name_H-M    P1
_symmetry_Int_Tables_number       1
_symmetry_cell_setting            triclinic
loop_
_symmetry_equiv_pos_as_xyz
'x, y, z'
_cell_length_a     52.489789
_cell_length_b     56.152471
_cell_length_c     37.808733
_cell_angle_alpha  88.551871
_cell_angle_beta   90.959724
_cell_angle_gamma 122.3626
loop_
_atom_site_label
_atom_site_type_symbol
_atom_site_fract_x
_atom_site_fract_y
_atom_site_fract_z
_atom_type_partial_charge
Cu0 Cu 0.0209 0.52716 0.99834 0.0
N1 N 0.02239 0.50566 0.96256 0.0
N2 N 1.00367 0.47244 0.92161 0.0
C3 C 0.99797 0.48742 0.94369 0.0
C4 C 0.03296 0.48141 0.92687 0.0
C5 C 0.04458 0.50217 0.95214 0.0
O6 O 0.98554 0.52946 0.98606 0.0
C7 C 0.02385 0.48911 0.04785 0.0
O8 O 0.01412 0.47108 0.02197 0.0
H9 H 0.97592 0.4842 0.9474 0.0
H10 H 0.06718 0.51314 0.96303 0.0
N11 N 0.05594 0.56301 0.9995 0.0
N12 N 0.09522 0.59991 0.02586 0.0
C13 C 0.06643 0.57806 0.02924 0.0
C14 C 0.0788 0.57583 0.97624 0.0
C15 C 0.10311 0.59868 0.99245 0.0
C16 C 0.98745 0.54048 0.95543 0.0
O17 O 0.01327 0.55206 0.93863 0.0
H18 H 0.054 0.57163 0.05384 0.0
H19 H 0.07851 0.56807 0.95025 0.0
O20 O 0.02237 0.51103 0.04441 0.0
H21 H 0.04489 0.47326 0.91388 0.0
H22 H 0.12522 0.61255 0.98106 0.0
Cu23 Cu 0.52804 0.02587 0.51265 0.0
N24 N 0.55098 0.02121 0.47909 0.0
N25 N 0.56281 0.99838 0.44129 0.0
C26 C 0.54191 0.99649 0.46362 0.0
C27 C 0.58607 0.02554 0.44291 0.0
C28 C 0.57871 0.03955 0.4662 0.0
O29 O 0.48647 0.9966 0.50226 0.0
C30 C 0.56484 0.02412 0.56789 0.0
O31 O 0.57593 0.01573 0.5438 0.0
H32 H 0.52056 0.97728 0.46947 0.0
H33 H 0.59275 0.0614 0.47359 0.0
N34 N 0.53222 0.06119 0.51008 0.0
N35 N 0.53225 0.09833 0.53047 0.0
C36 C 0.52202 0.07071 0.53516 0.0
C37 C 0.54939 0.08354 0.48855 0.0
C38 C 0.54949 0.1065 0.50113 0.0
C39 C 0.47666 1.00022 0.47287 0.0
O40 O 0.49375 0.02395 0.4551 0.0
H41 H 0.50895 0.05804 0.55774 0.0
H42 H 0.56199 0.0835 0.46626 0.0
O43 O 0.54163 0.02506 0.56057 0.0
H44 H 0.60692 0.03475 0.42829 0.0
H45 H 0.56196 0.12773 0.49011 0.0
Cu46 Cu 0.52491 0.50696 0.03762 0.0
N47 N 0.52262 0.47241 0.04016 0.0
N48 N 0.51767 0.43245 0.02166 0.0
C49 C 0.51893 0.45645 0.0121 0.0
C50 C 0.52076 0.43353 0.05728 0.0
C51 C 0.52379 0.45813 0.06857 0.0
O52 O 0.55096 0.52725 0.99753 0.0
C53 C 0.46233 0.4792 0.04604 0.0
O54 O 0.4653 0.45888 0.05889 0.0
H55 H 0.5175 0.46259 0.98514 0.0
H56 H 0.52625 0.46491 0.09561 0.0
N57 N 0.53981 0.52824 0.07898 0.0
N58 N 0.54726 0.56014 0.11912 0.0
C59 C 0.533 0.5471 0.08893 0.0
C60 C 0.55889 0.52915 0.10396 0.0
C61 C 0.56367 0.54894 0.12862 0.0
C62 C 0.57942 0.54171 1.0021 0.0
O63 O 0.59021 0.54546 0.03444 0.0
H64 H 0.51827 0.55155 0.07381 0.0
H65 H 0.56896 0.51665 0.10397 0.0
O66 O 0.48502 0.50081 0.03185 0.0
H67 H 0.52031 0.41748 0.07418 0.0
H68 H 0.57793 0.55449 0.15186 0.0
Cu69 Cu 1.00315 0.49088 0.5067 0.0
N70 N 1.00007 0.47481 0.46328 0.0
N71 N 0.017 0.46569 0.41504 0.0
C72 C 0.02296 0.48446 0.44036 0.0
C73 C 0.98911 0.44331 0.4222 0.0
C74 C 0.97869 0.44903 0.45208 0.0
O75 O 0.04225 0.52695 0.50499 0.0
C76 C 0.98994 0.46155 0.57424 0.0
O77 O 0.99428 0.48468 0.588 0.0
H78 H 0.04468 0.50371 0.4441 0.0
H79 H 0.95801 0.43464 0.4661 0.0
N80 N 0.97146 0.49646 0.51184 0.0
N81 N 0.93949 0.50448 0.53942 0.0
C82 C 0.96763 0.50935 0.53888 0.0
C83 C 0.94521 0.48361 0.49397 0.0
C84 C 0.92546 0.48853 0.51085 0.0
C85 C 0.04314 0.54677 0.48651 0.0
O86 O 0.01765 0.543 0.47443 0.0
H87 H 0.98477 0.52091 0.55868 0.0
H88 H 0.94008 0.47004 0.47169 0.0
O89 O 0.99664 0.46193 0.54189 0.0
H90 H 0.97783 0.42366 0.40811 0.0
H91 H 0.90193 0.47921 0.50401 0.0
Cu92 Cu 0.50609 0.99307 0.01402 0.0
N93 N 0.4826 0.99741 0.98034 0.0
N94 N 0.4724 0.02015 0.93892 0.0
C95 C 0.49253 0.02195 0.96294 0.0
C96 C 0.44855 0.99332 0.94143 0.0
C97 C 0.45504 0.9792 0.96695 0.0
O98 O 0.54723 0.02565 1.00619 0.0
C99 C 0.46384 0.98106 0.06969 0.0
O100 O 0.44762 0.9839 0.04516 0.0
H101 H 0.51413 0.04093 0.96817 0.0
H102 H 0.44073 0.95733 0.97513 0.0
N103 N 0.50597 0.96039 0.00755 0.0
N104 N 0.5148 0.92709 0.02433 0.0
C105 C 0.52177 0.95363 0.02906 0.0
C106 C 0.48851 0.93755 0.98781 0.0
C107 C 0.49404 0.9169 0.99805 0.0
C108 C 0.56305 0.02383 0.98236 0.0
O109 O 0.55244 0.99975 0.96649 0.0
H110 H 0.53722 0.9678 0.04885 0.0
H111 H 0.47186 0.93549 0.96879 0.0
O112 O 0.49055 0.98773 0.06233 0.0
H113 H 0.42816 0.98448 0.92568 0.0
H114 H 0.48233 0.89557 0.98844 0.0
Cu115 Cu 0.48581 0.49444 0.5182 0.0
N116 N 0.48821 0.52828 0.52359 0.0
N117 N 0.49199 0.56803 0.5052 0.0
C118 C 0.49036 0.54435 0.49563 0.0
C119 C 0.49108 0.56699 0.54092 0.0
C120 C 0.48854 0.54216 0.55227 0.0
O121 O 0.46717 0.482 0.47119 0.0
C122 C 0.54945 0.52328 0.53311 0.0
O123 O 0.54947 0.54657 0.52887 0.0
H124 H 0.49156 0.53902 0.46867 0.0
H125 H 0.48727 0.53488 0.57933 0.0
N126 N 0.46291 0.46917 0.55422 0.0
N127 N 0.45487 0.43988 0.59958 0.0
C128 C 0.4712 0.4528 0.57035 0.0
C129 C 0.44027 0.46649 0.57379 0.0
C130 C 0.435 0.44804 0.60177 0.0
C131 C 0.43854 0.46687 0.46733 0.0
O132 O 0.42161 0.45473 0.49534 0.0
H133 H 0.48975 0.45127 0.56145 0.0
H134 H 0.42946 0.47814 0.56906 0.0
O135 O 0.52573 0.49976 0.52533 0.0
H136 H 0.49206 0.58287 0.55754 0.0
H137 H 0.41905 0.44233 0.62303 0.0
C138 C 0.33377 0.4849 0.17323 0.0
C139 C 0.32323 0.46375 0.1478 0.0
C140 C 0.31349 0.48627 0.19532 0.0
C141 C 0.28238 0.46659 0.19217 0.0
C142 C 0.29208 0.44425 0.14454 0.0
C143 C 0.27184 0.44584 0.16631 0.0
C144 C 0.26041 0.46797 0.21451 0.0
C145 C 0.30822 0.44076 0.2927 0.0
C146 C 0.32616 0.46161 0.31749 0.0
C147 C 0.28836 0.44356 0.27028 0.0
C148 C 0.28564 0.46706 0.27255 0.0
C149 C 0.32417 0.48557 0.31888 0.0
C150 C 0.30381 0.48806 0.29698 0.0
C151 C 0.2621 0.46854 0.2519 0.0
C152 C 0.13656 0.43526 0.2872 0.0
C153 C 0.14064 0.45466 0.31286 0.0
C154 C 0.1612 0.43896 0.26863 0.0
C155 C 0.19032 0.46222 0.27525 0.0
C156 C 0.17 0.47735 0.3204 0.0
C157 C 0.19471 0.48096 0.3019 0.0
C158 C 0.21589 0.46724 0.25354 0.0
C159 C 0.1561 0.48545 0.18832 0.0
C160 C 0.14295 0.46865 0.1583 0.0
C161 C 0.18003 0.48613 0.20637 0.0
C162 C 0.19092 0.46931 0.19573 0.0
C163 C 0.15503 0.45301 0.14664 0.0
C164 C 0.17857 0.45329 0.16513 0.0
C165 C 0.21509 0.46836 0.21613 0.0
H166 H 0.3577 0.50008 0.17641 0.0
H167 H 0.32209 0.50282 0.2146 0.0
H168 H 0.28337 0.42788 0.12499 0.0
H169 H 0.24789 0.43061 0.16323 0.0
H170 H 0.3092 0.42203 0.2911 0.0
H171 H 0.27431 0.42687 0.25204 0.0
H172 H 0.33742 0.50179 0.33798 0.0
H173 H 0.30194 0.50625 0.29946 0.0
H174 H 0.11422 0.41764 0.28078 0.0
H175 H 0.15745 0.42398 0.24853 0.0
H176 H 0.17382 0.49235 0.34049 0.0
H177 H 0.21708 0.49885 0.3076 0.0
H178 H 0.14767 0.49781 0.19841 0.0
H179 H 0.18983 0.49972 0.22891 0.0
H180 H 0.14641 0.4405 0.12306 0.0
H181 H 0.1868 0.44054 0.15576 0.0
N182 N 0.23717 0.46812 0.19812 0.0
N183 N 0.23955 0.46793 0.26999 0.0
C184 C 0.8829 0.31104 0.8115 0.0
C185 C 0.87983 0.3283 0.83504 0.0
C186 C 0.8574 0.28788 0.79654 0.0
C187 C 0.82841 0.28159 0.80479 0.0
C188 C 0.85072 0.32145 0.84404 0.0
C189 C 0.82521 0.29817 0.82921 0.0
C190 C 0.80155 0.25823 0.78715 0.0
C191 C 0.84632 0.33075 0.71251 0.0
C192 C 0.86768 0.32953 0.69186 0.0
C193 C 0.82332 0.3067 0.72994 0.0
C194 C 0.82074 0.28064 0.727 0.0
C195 C 0.86424 0.30305 0.68769 0.0
C196 C 0.84089 0.2788 0.70499 0.0
C197 C 0.799 0.25653 0.75 0.0
C198 C 0.67134 0.15822 0.72765 0.0
C199 C 0.6761 0.14414 0.70074 0.0
C200 C 0.69575 0.18054 0.74545 0.0
C201 C 0.7255 0.18894 0.73726 0.0
C202 C 0.70596 0.15299 0.69223 0.0
C203 C 0.73033 0.17516 0.71022 0.0
C204 C 0.75174 0.21264 0.75572 0.0
C205 C 0.69695 0.14581 0.83984 0.0
C206 C 0.68631 0.15515 0.86683 0.0
C207 C 0.71885 0.16504 0.81586 0.0
C208 C 0.73038 0.19405 0.81801 0.0
C209 C 0.69836 0.18426 0.86926 0.0
C210 C 0.7202 0.20344 0.84527 0.0
C211 C 0.75385 0.21501 0.79313 0.0
H212 H 0.90501 0.31582 0.80402 0.0
H213 H 0.86034 0.27503 0.77821 0.0
H214 H 0.84768 0.33414 0.86256 0.0
H215 H 0.80302 0.29354 0.83609 0.0
H216 H 0.84752 0.35044 0.71562 0.0
H217 H 0.80791 0.3086 0.74659 0.0
H218 H 0.88023 0.30121 0.67217 0.0
H219 H 0.83944 0.25894 0.70254 0.0
H220 H 0.64872 0.15201 0.73505 0.0
H221 H 0.69133 0.19132 0.76546 0.0
H222 H 0.71061 0.14318 0.67113 0.0
H223 H 0.75305 0.1815 0.70304 0.0
H224 H 0.68809 0.12356 0.83693 0.0
H225 H 0.72682 0.15722 0.79569 0.0
H226 H 0.69114 0.19232 0.88997 0.0
H227 H 0.729 0.22572 0.84786 0.0
N228 N 0.77877 0.23776 0.80729 0.0
N229 N 0.77438 0.23364 0.73556 0.0
C230 C 0.58062 0.70306 0.2539 0.0
C231 C 0.56452 0.69085 0.22244 0.0
C232 C 0.5809 0.72577 0.26888 0.0
C233 C 0.56448 0.73658 0.25338 0.0
C234 C 0.54817 0.70176 0.20689 0.0
C235 C 0.54819 0.72429 0.22213 0.0
C236 C 0.566 0.7619 0.26778 0.0
C237 C 0.52268 0.70007 0.35811 0.0
C238 C 0.54266 0.70455 0.38619 0.0
C239 C 0.53106 0.72013 0.33101 0.0
C240 C 0.55934 0.74536 0.33171 0.0
C241 C 0.57101 0.73006 0.38681 0.0
C242 C 0.57908 0.75047 0.36003 0.0
C243 C 0.56693 0.76717 0.3043 0.0
C244 C 0.55577 0.86808 0.31266 0.0
C245 C 0.57818 0.88389 0.33812 0.0
C246 C 0.55382 0.84475 0.29698 0.0
C247 C 0.57446 0.83688 0.3061 0.0
C248 C 0.59855 0.87569 0.34739 0.0
C249 C 0.59659 0.85244 0.33172 0.0
C250 C 0.57201 0.81137 0.29133 0.0
C251 C 0.58663 0.86945 0.19911 0.0
C252 C 0.56274 0.85718 0.17452 0.0
C253 C 0.58943 0.85276 0.225 0.0
C254 C 0.56811 0.82364 0.22696 0.0
C255 C 0.5422 0.82787 0.17576 0.0
C256 C 0.54495 0.81127 0.20164 0.0
C257 C 0.56949 0.80548 0.2548 0.0
H258 H 0.59328 0.69521 0.267 0.0
H259 H 0.59471 0.73528 0.29211 0.0
H260 H 0.53593 0.69342 0.18236 0.0
H261 H 0.53561 0.7323 0.20918 0.0
H262 H 0.50033 0.68116 0.35715 0.0
H263 H 0.51518 0.71622 0.30984 0.0
H264 H 0.58715 0.73416 0.40769 0.0
H265 H 0.60087 0.77007 0.36112 0.0
H266 H 0.53975 0.87376 0.30474 0.0
H267 H 0.53592 0.83267 0.2781 0.0
H268 H 0.61571 0.88691 0.36736 0.0
H269 H 0.61244 0.84656 0.33972 0.0
H270 H 0.60305 0.89195 0.19842 0.0
H271 H 0.60803 0.86262 0.24362 0.0
H272 H 0.52336 0.81784 0.15748 0.0
H273 H 0.52839 0.78879 0.20251 0.0
N274 N 0.56687 0.78119 0.24456 0.0
N275 N 0.57044 0.79179 0.31461 0.0
C276 C 0.84355 0.53283 0.70248 0.0
C277 C 0.8315 0.51116 0.67765 0.0
C278 C 0.8248 0.53377 0.7276 0.0
C279 C 0.79388 0.51277 0.7285 0.0
C280 C 0.80097 0.48946 0.67991 0.0
C281 C 0.78237 0.49029 0.70503 0.0
C282 C 0.77239 0.51638 0.74881 0.0
C283 C 0.82997 0.5071 0.83109 0.0
C284 C 0.84433 0.52862 0.85614 0.0
C285 C 0.80806 0.50569 0.80788 0.0
C286 C 0.80028 0.52611 0.8085 0.0
C287 C 0.83604 0.54865 0.85731 0.0
C288 C 0.81431 0.54737 0.83388 0.0
C289 C 0.77628 0.52446 0.78468 0.0
C290 C 0.66003 0.51314 0.82079 0.0
C291 C 0.67007 0.53854 0.83835 0.0
C292 C 0.68002 0.50967 0.80097 0.0
C293 C 0.71049 0.53142 0.79849 0.0
C294 C 0.70052 0.56058 0.83481 0.0
C295 C 0.72059 0.5569 0.81546 0.0
C296 C 0.73216 0.52708 0.77991 0.0
C297 C 0.67499 0.53395 0.69327 0.0
C298 C 0.65929 0.51025 0.67151 0.0
C299 C 0.69677 0.53646 0.7176 0.0
C300 C 0.70332 0.51527 0.72088 0.0
C301 C 0.66589 0.48908 0.67494 0.0
C302 C 0.68774 0.49167 0.6991 0.0
C303 C 0.72804 0.51843 0.74443 0.0
H304 H 0.86703 0.54986 0.70115 0.0
H305 H 0.83409 0.5517 0.74482 0.0
H306 H 0.79123 0.47228 0.66143 0.0
H307 H 0.75859 0.47392 0.70513 0.0
H308 H 0.83525 0.49096 0.82986 0.0
H309 H 0.79684 0.48823 0.78992 0.0
H310 H 0.84669 0.56562 0.87603 0.0
H311 H 0.80861 0.56322 0.83545 0.0
H312 H 0.63698 0.49546 0.8234 0.0
H313 H 0.67188 0.48965 0.78852 0.0
H314 H 0.70902 0.58061 0.84735 0.0
H315 H 0.74404 0.57395 0.81378 0.0
H316 H 0.67041 0.5506 0.69156 0.0
H317 H 0.70896 0.55532 0.73321 0.0
H318 H 0.65463 0.47073 0.65836 0.0
H319 H 0.69259 0.47519 0.70064 0.0
N320 N 0.74839 0.51351 0.73049 0.0
N321 N 0.756 0.52973 0.79861 0.0
C322 C 0.19352 0.68526 0.21702 0.0
C323 C 0.1767 0.69262 0.19523 0.0
C324 C 0.21279 0.70367 0.24316 0.0
C325 C 0.21591 0.72989 0.2473 0.0
C326 C 0.17929 0.71852 0.20015 0.0
C327 C 0.19903 0.73714 0.22559 0.0
C328 C 0.23884 0.75117 0.27143 0.0
C329 C 0.16223 0.68907 0.34229 0.0
C330 C 0.16957 0.67833 0.37215 0.0
C331 C 0.18474 0.71069 0.32111 0.0
C332 C 0.21542 0.72179 0.32841 0.0
C333 C 0.20027 0.68913 0.37923 0.0
C334 C 0.22286 0.71065 0.35772 0.0
C335 C 0.23963 0.74699 0.30844 0.0
C336 C 0.32554 0.86261 0.36077 0.0
C337 C 0.34544 0.85923 0.38267 0.0
C338 C 0.30583 0.84141 0.33768 0.0
C339 C 0.30527 0.81621 0.33622 0.0
C340 C 0.34445 0.83368 0.38134 0.0
C341 C 0.3243 0.81228 0.35865 0.0
C342 C 0.28392 0.79354 0.31241 0.0
C343 C 0.35644 0.86287 0.24163 0.0
C344 C 0.3459 0.87208 0.21317 0.0
C345 C 0.33634 0.83905 0.26231 0.0
C346 C 0.30507 0.82412 0.25555 0.0
C347 C 0.31464 0.85681 0.20633 0.0
C348 C 0.29463 0.83334 0.2272 0.0
C349 C 0.28303 0.79767 0.27543 0.0
H350 H 0.19183 0.66536 0.21368 0.0
H351 H 0.22597 0.69788 0.2593 0.0
H352 H 0.16672 0.72474 0.18352 0.0
H353 H 0.20135 0.75739 0.22813 0.0
H354 H 0.13893 0.68114 0.33553 0.0
H355 H 0.17792 0.7194 0.29989 0.0
H356 H 0.20693 0.6817 0.40211 0.0
H357 H 0.24628 0.71902 0.36446 0.0
H358 H 0.32495 0.88156 0.36159 0.0
H359 H 0.29078 0.84458 0.32117 0.0
H360 H 0.35961 0.83033 0.3973 0.0
H361 H 0.324 0.79285 0.3581 0.0
H362 H 0.38025 0.87396 0.24794 0.0
H363 H 0.34546 0.83202 0.28298 0.0
H364 H 0.30546 0.8625 0.18421 0.0
H365 H 0.2708 0.82217 0.22083 0.0
N366 N 0.2604 0.77623 0.25666 0.0
N367 N 0.26238 0.76842 0.32734 0.0
C368 C 0.45079 0.14149 0.80666 0.0
C369 C 0.46981 0.14307 0.83428 0.0
C370 C 0.45479 0.16603 0.79104 0.0
C371 C 0.47803 0.19267 0.80253 0.0
C372 C 0.49311 0.16974 0.84574 0.0
C373 C 0.49702 0.19433 0.83017 0.0
C374 C 0.48068 0.21852 0.78767 0.0
C375 C 0.50984 0.18627 0.69969 0.0
C376 C 0.48856 0.17355 0.67229 0.0
C377 C 0.50649 0.20196 0.72533 0.0
C378 C 0.48196 0.20557 0.72393 0.0
C379 C 0.46406 0.17723 0.67084 0.0
C380 C 0.46103 0.19341 0.69613 0.0
C381 C 0.4787 0.22261 0.75095 0.0
C382 C 0.4825 0.33184 0.74067 0.0
C383 C 0.45707 0.32317 0.71895 0.0
C384 C 0.48848 0.3121 0.75489 0.0
C385 C 0.46887 0.28331 0.74809 0.0
C386 C 0.43766 0.29433 0.71202 0.0
C387 C 0.44358 0.27463 0.72636 0.0
C388 C 0.47453 0.26194 0.76281 0.0
C389 C 0.45984 0.304 0.85319 0.0
C390 C 0.4857 0.31916 0.87465 0.0
C391 C 0.45724 0.28406 0.82939 0.0
C392 C 0.48054 0.27896 0.82621 0.0
C393 C 0.50846 0.31316 0.87231 0.0
C394 C 0.50582 0.2932 0.8485 0.0
C395 C 0.47913 0.25933 0.79935 0.0
H396 H 0.43272 0.12126 0.79721 0.0
H397 H 0.43919 0.16413 0.77052 0.0
H398 H 0.50785 0.17159 0.86734 0.0
H399 H 0.51477 0.21464 0.83982 0.0
H400 H 0.52887 0.18371 0.70159 0.0
H401 H 0.52324 0.21149 0.74616 0.0
H402 H 0.44742 0.16783 0.64989 0.0
H403 H 0.44206 0.19604 0.69431 0.0
H404 H 0.49785 0.35389 0.74659 0.0
H405 H 0.50849 0.31935 0.771 0.0
H406 H 0.41826 0.28702 0.69481 0.0
H407 H 0.42831 0.25253 0.72054 0.0
H408 H 0.44152 0.30751 0.85476 0.0
H409 H 0.43713 0.27284 0.81316 0.0
H410 H 0.52879 0.32449 0.88813 0.0
H411 H 0.52402 0.28952 0.84671 0.0
N412 N 0.48165 0.23743 0.81042 0.0
N413 N 0.47491 0.24375 0.73998 0.0
H414 H 0.03023 0.44508 0.065 0.0
H415 H 0.06333 0.53111 0.0923 0.0
H416 H 0.10255 0.53227 0.12929 0.0
H417 H 0.13037 0.51036 0.14952 0.0
H418 H 0.09557 0.42347 0.12439 0.0
H419 H 0.05481 0.42159 0.0904 0.0
C420 C 0.04568 0.46396 0.0795 0.0
C421 C 0.04373 0.48798 0.07562 0.0
C422 C 0.06846 0.46461 0.10057 0.0
C423 C 0.06402 0.5122 0.0948 0.0
C424 C 0.08672 0.51299 0.11577 0.0
C425 C 0.11366 0.49078 0.13725 0.0
C426 C 0.11679 0.46728 0.13926 0.0
C427 C 0.0896 0.48953 0.11823 0.0
C428 C 0.0947 0.44229 0.12261 0.0
C429 C 0.07101 0.44103 0.10338 0.0
H430 H 0.56326 0.06406 0.60523 0.0
H431 H 0.61015 0.02045 0.59858 0.0
H432 H 0.64754 0.05251 0.6415 0.0
H433 H 0.6694 0.09551 0.67661 0.0
H434 H 0.62436 0.14111 0.67903 0.0
H435 H 0.58364 0.10549 0.64257 0.0
C436 C 0.58125 0.06111 0.61374 0.0
C437 C 0.58385 0.0398 0.59872 0.0
C438 C 0.60325 0.08024 0.63743 0.0
C439 C 0.6076 0.03663 0.60974 0.0
C440 C 0.62909 0.05508 0.63413 0.0
C441 C 0.65072 0.09773 0.66913 0.0
C442 C 0.6502 0.12118 0.68054 0.0
C443 C 0.62763 0.07747 0.64734 0.0
C444 C 0.62538 0.12324 0.67111 0.0
C445 C 0.60209 0.10293 0.64999 0.0
H446 H 0.59116 0.60317 0.157 0.0
H447 H 0.49927 0.56584 0.12133 0.0
H448 H 0.4962 0.6026 0.15046 0.0
H449 H 0.51956 0.64536 0.18631 0.0
H450 H 0.61245 0.68394 0.21944 0.0
H451 H 0.61483 0.64645 0.19195 0.0
C452 C 0.5704 0.60296 0.15586 0.0
C453 C 0.54549 0.58171 0.13697 0.0
C454 C 0.56887 0.62436 0.17246 0.0
C455 C 0.51889 0.58205 0.13534 0.0
C456 C 0.51707 0.60303 0.15215 0.0
C457 C 0.54046 0.64582 0.1873 0.0
C458 C 0.56569 0.6676 0.20536 0.0
C459 C 0.54197 0.62439 0.17069 0.0
C460 C 0.59237 0.66731 0.20656 0.0
C461 C 0.5939 0.64593 0.19051 0.0
H462 H 0.88863 0.50532 0.53565 0.0
H463 H 0.95858 0.51634 0.60793 0.0
H464 H 0.93241 0.52145 0.65673 0.0
H465 H 0.88752 0.5192 0.68005 0.0
H466 H 0.81638 0.50526 0.6081 0.0
H467 H 0.84478 0.50429 0.55833 0.0
C468 C 0.89818 0.50874 0.56203 0.0
C469 C 0.92553 0.51023 0.56779 0.0
C470 C 0.88256 0.51081 0.5903 0.0
C471 C 0.93779 0.51535 0.60225 0.0
C472 C 0.92266 0.51803 0.63043 0.0
C473 C 0.87846 0.5162 0.65341 0.0
C474 C 0.84982 0.512 0.64774 0.0
C475 C 0.89476 0.5153 0.6249 0.0
C476 C 0.83819 0.50806 0.61314 0.0
C477 C 0.85446 0.50764 0.58466 0.0
H478 H 0.41214 0.9714 0.09951 0.0
H479 H 0.48099 0.95205 0.11282 0.0
H480 H 0.45149 0.91769 0.15963 0.0
H481 H 0.40372 0.88965 0.19255 0.0
H482 H 0.33623 0.91108 0.18122 0.0
H483 H 0.36742 0.94764 0.13779 0.0
C484 C 0.42095 0.96002 0.11306 0.0
C485 C 0.44872 0.96429 0.10241 0.0
C486 C 0.40381 0.94017 0.13997 0.0
C487 C 0.45981 0.9494 0.12048 0.0
C488 C 0.44279 0.92951 0.14713 0.0
C489 C 0.39598 0.90262 0.18124 0.0
C490 C 0.36706 0.89683 0.18985 0.0
C491 C 0.41439 0.92421 0.15652 0.0
C492 C 0.35775 0.91412 0.17448 0.0
C493 C 0.37575 0.93533 0.14974 0.0
H494 H 0.41322 0.39474 0.63755 0.0
H495 H 0.5087 0.44784 0.61769 0.0
H496 H 0.51797 0.41714 0.65479 0.0
H497 H 0.49869 0.37342 0.68898 0.0
H498 H 0.40332 0.31985 0.70978 0.0
H499 H 0.39421 0.35242 0.67625 0.0
C500 C 0.43601 0.39969 0.64186 0.0
C501 C 0.46015 0.42317 0.62446 0.0
C502 C 0.44118 0.38176 0.6631 0.0
C503 C 0.48967 0.42946 0.63011 0.0
C504 C 0.49501 0.412 0.65146 0.0
C505 C 0.47597 0.36912 0.68685 0.0
C506 C 0.45173 0.34418 0.70171 0.0
C507 C 0.47089 0.3878 0.66748 0.0
C508 C 0.42235 0.33872 0.69813 0.0
C509 C 0.41712 0.35738 0.67908 0.0
H510 H 0.60894 0.99509 0.4161 0.0
H511 H 0.5118 0.95038 0.42018 0.0
H512 H 0.50794 0.91138 0.38835 0.0
H513 H 0.53201 0.88913 0.36054 0.0
H514 H 0.62912 0.93441 0.35491 0.0
H515 H 0.63298 0.97382 0.38589 0.0
C516 C 0.5869 0.97702 0.40973 0.0
C517 C 0.56074 0.97582 0.42098 0.0
C518 C 0.58477 0.95455 0.39114 0.0
C519 C 0.5324 0.95188 0.41261 0.0
C520 C 0.53013 0.92953 0.39413 0.0
C521 C 0.55403 0.90775 0.36563 0.0
C522 C 0.58022 0.90855 0.35547 0.0
C523 C 0.55615 0.93051 0.38345 0.0
C524 C 0.60854 0.93285 0.36286 0.0
C525 C 0.6108 0.95554 0.38046 0.0
H526 H 0.56519 0.5253 0.93335 0.0
H527 H 0.64063 0.57478 1.00338 0.0
H528 H 0.67549 0.57999 0.9577 0.0
H529 H 0.6841 0.56562 0.90117 0.0
H530 H 0.60935 0.51706 0.82992 0.0
H531 H 0.57471 0.51607 0.87309 0.0
C532 C 0.58929 0.53772 0.93836 0.0
C533 C 0.60021 0.5493 0.97195 0.0
C534 C 0.60933 0.54033 0.91206 0.0
C535 C 0.63153 0.56537 0.97792 0.0
C536 C 0.65153 0.5683 0.95184 0.0
C537 C 0.66039 0.55545 0.89447 0.0
C538 C 0.64945 0.54113 0.86237 0.0
C539 C 0.64062 0.55513 0.91925 0.0
C540 C 0.61843 0.5277 0.85472 0.0
C541 C 0.59857 0.52727 0.87933 0.0
H542 H 0.0522 0.59609 0.46115 0.0
H543 H 0.09835 0.55243 0.47948 0.0
H544 H 0.14224 0.58977 0.44675 0.0
H545 H 0.16564 0.63297 0.40833 0.0
H546 H 0.11859 0.67621 0.39194 0.0
H547 H 0.07696 0.64073 0.42791 0.0
C548 C 0.07202 0.59489 0.45847 0.0
C549 C 0.07189 0.57142 0.47274 0.0
C550 C 0.0969 0.61617 0.43928 0.0
C551 C 0.09788 0.57034 0.46909 0.0
C552 C 0.12289 0.59159 0.45004 0.0
C553 C 0.14647 0.63486 0.41296 0.0
C554 C 0.1452 0.6571 0.39648 0.0
C555 C 0.12241 0.61434 0.4343 0.0
C556 C 0.12001 0.65899 0.40306 0.0
C557 C 0.09619 0.6388 0.42403 0.0
H558 H 0.42884 0.02822 0.91508 0.0
H559 H 0.52465 0.06316 0.91182 0.0
H560 H 0.53226 0.10412 0.8784 0.0
H561 H 0.51202 0.13101 0.85211 0.0
H562 H 0.41631 0.0966 0.85549 0.0
H563 H 0.40823 0.05427 0.88619 0.0
C564 C 0.45127 0.04461 0.90657 0.0
C565 C 0.47614 0.04279 0.91627 0.0
C566 C 0.45552 0.06825 0.88744 0.0
C567 C 0.50518 0.06431 0.90529 0.0
C568 C 0.50956 0.08771 0.88605 0.0
C569 C 0.48942 0.11427 0.85968 0.0
C570 C 0.46485 0.11698 0.85173 0.0
C571 C 0.48497 0.09012 0.87749 0.0
C572 C 0.4356 0.09491 0.86111 0.0
C573 C 0.43097 0.07076 0.87881 0.0
H574 H 0.38199 0.42825 0.4443 0.0
H575 H 0.46168 0.50789 0.41518 0.0
H576 H 0.43432 0.51333 0.3658 0.0
H577 H 0.38623 0.49696 0.3334 0.0
H578 H 0.30754 0.41623 0.3613 0.0
H579 H 0.33587 0.40967 0.40833 0.0
C580 C 0.39354 0.44657 0.42678 0.0
C581 C 0.42386 0.46765 0.4336 0.0
C582 C 0.37767 0.4495 0.3983 0.0
C583 C 0.43847 0.49122 0.4105 0.0
C584 C 0.42271 0.49446 0.38237 0.0
C585 C 0.37544 0.47787 0.34965 0.0
C586 C 0.34474 0.45717 0.34397 0.0
C587 C 0.39209 0.47401 0.37644 0.0
C588 C 0.33113 0.43241 0.365 0.0
C589 C 0.34731 0.42869 0.392 0.0
H590 H 0.99954 0.42345 0.90877 0.0
H591 H 0.95772 0.47058 0.88652 0.0
H592 H 0.91595 0.43019 0.85659 0.0
H593 H 0.88982 0.38067 0.83987 0.0
H594 H 0.93067 0.33274 0.86279 0.0
H595 H 0.97447 0.37422 0.88888 0.0
C596 C 0.98155 0.42495 0.89675 0.0
C597 C 0.98156 0.44983 0.9 0.0
C598 C 0.95732 0.40143 0.88 0.0
C599 C 0.95796 0.45149 0.88466 0.0
C600 C 0.93409 0.42843 0.86758 0.0
C601 C 0.90827 0.3793 0.85071 0.0
C602 C 0.90688 0.35364 0.84977 0.0
C603 C 0.93321 0.40312 0.86578 0.0
C604 C 0.93125 0.3523 0.86317 0.0
C605 C 0.95624 0.37598 0.87818 0.0
H606 H 0.93866 0.54333 0.97614 0.0
H607 H 0.97592 0.52524 0.88752 0.0
H608 H 0.93488 0.51891 0.84972 0.0
H609 H 0.88978 0.52075 0.84034 0.0
H610 H 0.85247 0.54053 0.92719 0.0
H611 H 0.89196 0.54432 0.96662 0.0
C612 C 0.93752 0.53774 0.94867 0.0
C613 C 0.96044 0.53484 0.93472 0.0
C614 C 0.91396 0.53477 0.92646 0.0
C615 C 0.95877 0.52784 0.89892 0.0
C616 C 0.93525 0.52419 0.87718 0.0
C617 C 0.89 0.52557 0.86799 0.0
C618 C 0.86804 0.53031 0.88061 0.0
C619 C 0.91294 0.52797 0.89045 0.0
C620 C 0.8692 0.53704 0.91651 0.0
C621 C 0.89175 0.53908 0.93919 0.0
H622 H 0.44269 0.94424 0.49264 0.0
H623 H 0.44935 0.0041 0.41347 0.0
H624 H 0.40922 0.96603 0.37928 0.0
H625 H 0.37518 0.91587 0.36919 0.0
H626 H 0.36603 0.85529 0.44884 0.0
H627 H 0.40459 0.89346 0.4849 0.0
C628 C 0.43499 0.94896 0.46822 0.0
C629 C 0.44923 0.97703 0.4556 0.0
C630 C 0.41183 0.92681 0.44833 0.0
C631 C 0.43901 0.98273 0.42379 0.0
C632 C 0.41606 0.96094 0.40407 0.0
C633 C 0.38098 0.91085 0.39477 0.0
C634 C 0.36765 0.88253 0.40594 0.0
C635 C 0.40274 0.93289 0.41571 0.0
C636 C 0.37624 0.87676 0.43899 0.0
C637 C 0.39816 0.89864 0.45987 0.0
H638 H 0.49247 0.41988 0.9561 0.0
H639 H 0.53409 0.39473 0.03539 0.0
H640 H 0.52737 0.35729 0.99748 0.0
H641 H 0.50983 0.33154 0.94162 0.0
H642 H 0.46975 0.35773 0.86155 0.0
H643 H 0.47568 0.39467 0.89991 0.0
C644 C 0.50037 0.40645 0.96506 0.0
C645 C 0.51379 0.41035 0.99881 0.0
C646 C 0.49659 0.38493 0.94294 0.0
C647 C 0.52335 0.3922 0.00991 0.0
C648 C 0.51966 0.37079 0.98809 0.0
C649 C 0.5026 0.34544 0.93238 0.0
C650 C 0.48923 0.3416 0.89861 0.0
C651 C 0.50633 0.36694 0.95453 0.0
C652 C 0.47963 0.35972 0.88752 0.0
C653 C 0.48323 0.38106 0.90939 0.0
H654 H 0.02312 0.4231 0.39636 0.0
H655 H 0.06068 0.51217 0.3811 0.0
H656 H 0.10237 0.51664 0.34725 0.0
H657 H 0.12939 0.49558 0.32474 0.0
H658 H 0.09251 0.40666 0.3413 0.0
H659 H 0.04905 0.40161 0.37161 0.0
C660 C 0.04008 0.44332 0.38495 0.0
C661 C 0.03888 0.46728 0.39112 0.0
C662 C 0.06421 0.44578 0.36612 0.0
C663 C 0.06131 0.4935 0.37676 0.0
C664 C 0.08513 0.49606 0.35753 0.0
C665 C 0.11191 0.47515 0.33519 0.0
C666 C 0.11424 0.45158 0.33108 0.0
C667 C 0.08712 0.47244 0.35266 0.0
C668 C 0.09114 0.4251 0.34406 0.0
C669 C 0.06634 0.42221 0.36144 0.0
H670 H 0.57343 0.07574 0.96498 0.0
H671 H 0.61449 0.02672 0.96609 0.0
H672 H 0.65721 0.06374 0.93209 0.0
H673 H 0.68091 0.1082 0.89796 0.0
H674 H 0.6382 0.15588 0.8928 0.0
H675 H 0.59844 0.12154 0.9324 0.0
C676 C 0.59218 0.07361 0.95856 0.0
C677 C 0.5911 0.04876 0.96845 0.0
C678 C 0.61618 0.09457 0.93772 0.0
C679 C 0.61505 0.04583 0.95908 0.0
C680 C 0.63935 0.06688 0.9394 0.0
C681 C 0.66288 0.11108 0.90536 0.0
C682 C 0.66263 0.13463 0.89214 0.0
C683 C 0.63978 0.091 0.92777 0.0
C684 C 0.63927 0.13817 0.90272 0.0
C685 C 0.61637 0.11844 0.92531 0.0
H686 H 0.52093 0.62384 0.51785 0.0
H687 H 0.47079 0.56137 0.43845 0.0
H688 H 0.48241 0.59825 0.39472 0.0
H689 H 0.50947 0.64781 0.37794 0.0
H690 H 0.55665 0.71117 0.45733 0.0
H691 H 0.54401 0.67431 0.50199 0.0
C692 C 0.51212 0.61836 0.49117 0.0
C693 C 0.49553 0.58993 0.48128 0.0
C694 C 0.51875 0.63977 0.466 0.0
C695 C 0.48429 0.58312 0.44653 0.0
C696 C 0.49082 0.60418 0.42149 0.0
C697 C 0.51647 0.65374 0.40512 0.0
C698 C 0.53409 0.68235 0.41404 0.0
C699 C 0.5085 0.63255 0.43077 0.0
C700 C 0.54355 0.68937 0.44939 0.0
C701 C 0.53609 0.66829 0.47509 0.0
H702 H 0.4824 0.08415 0.56742 0.0
H703 H 0.5739 0.15215 0.5475 0.0
H704 H 0.56863 0.1815 0.58979 0.0
H705 H 0.53818 0.18763 0.63339 0.0
H706 H 0.44591 0.12043 0.65143 0.0
H707 H 0.45117 0.09104 0.60911 0.0
C708 C 0.50113 0.1054 0.5724 0.0
C709 C 0.52851 0.11593 0.55436 0.0
C710 C 0.49778 0.1223 0.59649 0.0
C711 C 0.55251 0.14364 0.56074 0.0
C712 C 0.54956 0.16038 0.58509 0.0
C713 C 0.51927 0.16653 0.62804 0.0
C714 C 0.49173 0.15617 0.64565 0.0
C715 C 0.52234 0.14991 0.60325 0.0
C716 C 0.46728 0.12894 0.6381 0.0
C717 C 0.47032 0.11209 0.614 0.0
H718 H 0.40897 0.43558 0.07047 0.0
H719 H 0.45607 0.52461 0.04514 0.0
H720 H 0.4162 0.52746 0.07314 0.0
H721 H 0.37044 0.5055 0.11005 0.0
H722 H 0.32394 0.41661 0.13564 0.0
H723 H 0.36106 0.41285 0.10232 0.0
C724 C 0.41029 0.45552 0.07054 0.0
C725 C 0.43559 0.47986 0.05601 0.0
C726 C 0.38757 0.45711 0.08718 0.0
C727 C 0.43681 0.50551 0.05604 0.0
C728 C 0.41415 0.50722 0.07236 0.0
C729 C 0.36846 0.48533 0.10816 0.0
C730 C 0.34472 0.46142 0.12551 0.0
C731 C 0.38989 0.48333 0.08892 0.0
C732 C 0.34201 0.43528 0.12242 0.0
C733 C 0.36326 0.43314 0.10348 0.0
H734 H 0.9704 0.45273 0.64255 0.0
H735 H 0.96668 0.40826 0.54921 0.0
H736 H 0.92957 0.36345 0.57762 0.0
H737 H 0.89477 0.33715 0.62714 0.0
H738 H 0.8999 0.38193 0.72089 0.0
H739 H 0.93933 0.42607 0.69393 0.0
C740 C 0.96186 0.43323 0.62853 0.0
C741 C 0.97135 0.43407 0.59363 0.0
C742 C 0.94022 0.40746 0.64489 0.0
C743 C 0.95994 0.40843 0.57608 0.0
C744 C 0.93849 0.38271 0.59225 0.0
C745 C 0.90478 0.35645 0.64194 0.0
C746 C 0.89365 0.35604 0.67583 0.0
C747 C 0.92794 0.382 0.62639 0.0
C748 C 0.90711 0.38149 0.69438 0.0
C749 C 0.92997 0.40684 0.67909 0.0
H750 H 0.5351 0.93894 0.09151 0.0
H751 H 0.51556 0.88069 0.00762 0.0
H752 H 0.53009 0.85428 0.04642 0.0
H753 H 0.54728 0.84741 0.10477 0.0
H754 H 0.56676 0.90646 0.18763 0.0
H755 H 0.55447 0.93373 0.14782 0.0
C756 C 0.53458 0.92089 0.08117 0.0
C757 C 0.52437 0.91198 0.04647 0.0
C758 C 0.54317 0.90609 0.10339 0.0
C759 C 0.52307 0.8879 0.03426 0.0
C760 C 0.53152 0.8729 0.05638 0.0
C761 C 0.54888 0.86629 0.11402 0.0
C762 C 0.55791 0.87491 0.1491 0.0
C763 C 0.54139 0.88171 0.0911 0.0
C764 C 0.56027 0.89959 0.16065 0.0
C765 C 0.55298 0.91505 0.13801 0.0
H766 H 0.54891 0.48021 0.56957 0.0
H767 H 0.60632 0.56878 0.54322 0.0
H768 H 0.64537 0.5725 0.58299 0.0
H769 H 0.66241 0.55129 0.62766 0.0
H770 H 0.60435 0.46314 0.65577 0.0
H771 H 0.56662 0.45862 0.61308 0.0
C772 C 0.57015 0.50022 0.57206 0.0
C773 C 0.5746 0.52417 0.55324 0.0
C774 C 0.59237 0.5024 0.59572 0.0
C775 C 0.60221 0.54999 0.55725 0.0
C776 C 0.62455 0.55218 0.58018 0.0
C777 C 0.64144 0.53111 0.62463 0.0
C778 C 0.63634 0.50764 0.64515 0.0
C779 C 0.61968 0.52867 0.60007 0.0
C780 C 0.60914 0.48155 0.64024 0.0
C781 C 0.58744 0.47895 0.61585 0.0
H782 H 0.07861 0.61831 0.0805 0.0
H783 H 0.15496 0.62133 0.03474 0.0
H784 H 0.18679 0.64931 0.08413 0.0
H785 H 0.19286 0.67285 0.1408 0.0
H786 H 0.11695 0.67141 0.18513 0.0
H787 H 0.08484 0.64255 0.13629 0.0
C788 C 0.1022 0.62507 0.08142 0.0
C789 C 0.11438 0.61775 0.05396 0.0
C790 C 0.12036 0.64124 0.10985 0.0
C791 C 0.14511 0.62697 0.05526 0.0
C792 C 0.16326 0.64277 0.08367 0.0
C793 C 0.16921 0.66594 0.13981 0.0
C794 C 0.15712 0.67393 0.16657 0.0
C795 C 0.15111 0.64995 0.11119 0.0
C796 C 0.12663 0.66537 0.16481 0.0
C797 C 0.10833 0.64895 0.13689 0.0
loop_
_geom_bond_atom_site_label_1
_geom_bond_atom_site_label_2
_geom_bond_distance
_geom_bond_site_symmetry_2
_ccdc_geom_bond_type
Cu0 N1 1.999 1_454 S
Cu0 O6 1.942 1_454 S
Cu0 N11 1.988 . S
Cu0 O20 1.992 . S
N1 Cu0 1.999 1_656 S
N1 C3 1.263 . S
N1 C5 1.389 1_556 S
N2 C3 1.358 . S
N2 C4 1.400 . S
C3 N1 1.263 . S
C3 N2 1.358 . S
C3 H9 0.930 . S
C4 N2 1.400 . S
C4 C5 1.351 1_556 S
C4 H21 0.930 . S
C5 N1 1.389 1_554 S
C5 C4 1.351 1_554 S
C5 H10 0.930 . S
O6 Cu0 1.942 1_656 S
O6 C16 1.282 . S
C7 O8 1.261 1_554 S
C7 O20 1.251 . S
O8 C7 1.261 1_556 S
H9 C3 0.930 . S
H10 C5 0.930 . S
N11 Cu0 1.988 . S
N11 C13 1.335 . S
N11 C14 1.390 . S
N12 C13 1.345 . S
N12 C15 1.336 . S
C13 N11 1.335 . S
C13 N12 1.345 . S
C13 H18 0.930 . S
C14 N11 1.390 . S
C14 C15 1.346 . S
C14 H19 0.930 1_554 S
C15 N12 1.336 . S
C15 C14 1.346 . S
C15 H22 0.929 . S
C16 O6 1.282 . S
C16 O17 1.216 1_655 S
O17 C16 1.216 1_455 S
H18 C13 0.930 . S
H19 C14 0.930 1_556 S
O20 Cu0 1.992 . S
O20 C7 1.251 . S
H21 C4 0.930 . S
H22 C15 0.929 . S
Cu23 N24 1.999 . S
Cu23 O29 1.974 . S
Cu23 N34 1.985 1_565 S
Cu23 O43 1.959 1_565 S
N24 Cu23 1.999 . S
N24 C26 1.263 . S
N24 C28 1.389 . S
N25 C26 1.358 . S
N25 C27 1.400 . S
C26 N24 1.263 . S
C26 N25 1.358 . S
C26 H32 0.930 . S
C27 N25 1.400 . S
C27 C28 1.351 . S
C27 H44 0.930 . S
C28 N24 1.389 . S
C28 C27 1.351 . S
C28 H33 0.930 . S
O29 Cu23 1.974 . S
O29 C39 1.282 . S
C30 O31 1.261 . S
C30 O43 1.251 . S
O31 C30 1.261 . S
H32 C26 0.930 . S
H33 C28 0.930 . S
N34 Cu23 1.985 1_545 S
N34 C36 1.335 . S
N34 C37 1.390 . S
N35 C36 1.345 . S
N35 C38 1.336 . S
C36 N34 1.335 . S
C36 N35 1.345 . S
C36 H41 0.930 . S
C37 N34 1.390 . S
C37 C38 1.346 . S
C37 H42 0.930 . S
C38 N35 1.336 . S
C38 C37 1.346 . S
C38 H45 0.929 . S
C39 O29 1.282 . S
C39 O40 1.216 . S
O40 C39 1.216 . S
H41 C36 0.930 . S
H42 C37 0.930 . S
O43 Cu23 1.959 1_545 S
O43 C30 1.251 . S
H44 C27 0.930 . S
H45 C38 0.929 . S
Cu46 N47 1.999 1_554 S
Cu46 O52 1.974 1_554 S
Cu46 N57 1.985 . S
Cu46 O66 1.959 . S
N47 Cu46 1.999 1_556 S
N47 C49 1.263 . S
N47 C51 1.389 . S
N48 C49 1.358 . S
N48 C50 1.400 . S
C49 N47 1.263 . S
C49 N48 1.358 . S
C49 H55 0.930 . S
C50 N48 1.400 . S
C50 C51 1.351 . S
C50 H67 0.930 . S
C51 N47 1.389 . S
C51 C50 1.351 . S
C51 H56 0.930 . S
O52 Cu46 1.974 1_556 S
O52 C62 1.282 . S
C53 O54 1.261 . S
C53 O66 1.251 . S
O54 C53 1.261 . S
H55 C49 0.930 . S
H56 C51 0.930 . S
N57 Cu46 1.985 . S
N57 C59 1.335 . S
N57 C60 1.390 . S
N58 C59 1.345 . S
N58 C61 1.336 . S
C59 N57 1.335 . S
C59 N58 1.345 . S
C59 H64 0.930 . S
C60 N57 1.390 . S
C60 C61 1.346 . S
C60 H65 0.930 . S
C61 N58 1.336 . S
C61 C60 1.346 . S
C61 H68 0.929 . S
C62 O52 1.282 . S
C62 O63 1.216 1_556 S
O63 C62 1.216 1_554 S
H64 C59 0.930 . S
H65 C60 0.930 . S
O66 Cu46 1.959 . S
O66 C53 1.251 . S
H67 C50 0.930 . S
H68 C61 0.929 . S
Cu69 N70 1.999 1_655 S
Cu69 O75 1.974 1_655 S
Cu69 N80 1.985 . S
Cu69 O89 1.959 . S
N70 Cu69 1.999 1_455 S
N70 C72 1.263 . S
N70 C74 1.389 1_455 S
N71 C72 1.358 . S
N71 C73 1.400 . S
C72 N70 1.263 . S
C72 N71 1.358 . S
C72 H78 0.930 . S
C73 N71 1.400 . S
C73 C74 1.351 1_455 S
C73 H90 0.930 . S
C74 N70 1.389 1_655 S
C74 C73 1.351 1_655 S
C74 H79 0.930 . S
O75 Cu69 1.974 1_455 S
O75 C85 1.282 . S
C76 O77 1.256 1_655 S
C76 O89 1.251 . S
O77 C76 1.256 1_455 S
H78 C72 0.930 . S
H79 C74 0.930 . S
N80 Cu69 1.985 . S
N80 C82 1.335 . S
N80 C83 1.390 . S
N81 C82 1.345 . S
N81 C84 1.336 . S
C82 N80 1.335 . S
C82 N81 1.345 . S
C82 H87 0.930 . S
C83 N80 1.390 . S
C83 C84 1.346 . S
C83 H88 0.930 1_655 S
C84 N81 1.336 . S
C84 C83 1.346 . S
C84 H91 0.929 . S
C85 O75 1.282 . S
C85 O86 1.216 . S
O86 C85 1.216 . S
H87 C82 0.930 . S
H88 C83 0.930 1_455 S
O89 Cu69 1.959 . S
O89 C76 1.251 . S
H90 C73 0.930 . S
H91 C84 0.929 . S
Cu92 N93 1.999 . S
Cu92 O98 1.974 1_554 S
Cu92 N103 1.985 1_545 S
Cu92 O112 1.959 1_545 S
N93 Cu92 1.999 . S
N93 C95 1.263 1_554 S
N93 C97 1.389 . S
N94 C95 1.358 . S
N94 C96 1.400 1_556 S
C95 N93 1.263 1_556 S
C95 N94 1.358 . S
C95 H101 0.930 . S
C96 N94 1.400 1_554 S
C96 C97 1.351 . S
C96 H113 0.930 . S
C97 N93 1.389 . S
C97 C96 1.351 . S
C97 H102 0.930 . S
O98 Cu92 1.974 1_556 S
O98 C108 1.282 . S
C99 O100 1.261 . S
C99 O112 1.251 . S
O100 C99 1.261 . S
H101 C95 0.930 . S
H102 C97 0.930 . S
N103 Cu92 1.985 1_565 S
N103 C105 1.335 . S
N103 C106 1.390 . S
N104 C105 1.345 . S
N104 C107 1.336 . S
C105 N103 1.335 . S
C105 N104 1.345 . S
C105 H110 0.930 . S
C106 N103 1.390 . S
C106 C107 1.346 . S
C106 H111 0.936 . S
C107 N104 1.336 . S
C107 C106 1.346 . S
C107 H114 0.929 . S
C108 O98 1.282 . S
C108 O109 1.216 . S
O109 C108 1.216 . S
H110 C105 0.930 . S
H111 C106 0.936 . S
O112 Cu92 1.959 1_565 S
O112 C99 1.251 . S
H113 C96 0.930 . S
H114 C107 0.929 . S
Cu115 N116 1.999 . S
Cu115 O121 1.974 . S
Cu115 N126 1.985 . S
Cu115 O135 1.959 . S
N116 Cu115 1.999 . S
N116 C118 1.263 . S
N116 C120 1.389 . S
N117 C118 1.358 . S
N117 C119 1.400 . S
C118 N116 1.263 . S
C118 N117 1.358 . S
C118 H124 0.930 . S
C119 N117 1.400 . S
C119 C120 1.351 . S
C119 H136 0.930 . S
C120 N116 1.389 . S
C120 C119 1.351 . S
C120 H125 0.930 . S
O121 Cu115 1.974 . S
O121 C131 1.282 . S
C122 O123 1.261 . S
C122 O135 1.251 . S
O123 C122 1.261 . S
H124 C118 0.930 . S
H125 C120 0.930 . S
N126 Cu115 1.985 . S
N126 C128 1.335 . S
N126 C129 1.390 . S
N127 C128 1.345 . S
N127 C130 1.336 . S
C128 N126 1.335 . S
C128 N127 1.345 . S
C128 H133 0.930 . S
C129 N126 1.390 . S
C129 C130 1.346 . S
C129 H134 0.930 . S
C130 N127 1.336 . S
C130 C129 1.346 . S
C130 H137 0.929 . S
C131 O121 1.282 . S
C131 O132 1.216 . S
O132 C131 1.216 . S
H133 C128 0.930 . S
H134 C129 0.930 . S
O135 Cu115 1.959 . S
O135 C122 1.251 . S
H136 C119 0.930 . S
H137 C130 0.929 . S
C138 C139 1.384 . S
C138 C140 1.384 . S
C138 H166 0.931 . S
C139 C138 1.384 . S
C139 C142 1.382 . S
C140 C138 1.384 . S
C140 C141 1.381 . S
C140 H167 0.930 . S
C141 C140 1.381 . S
C141 C143 1.381 . S
C141 C144 1.487 . S
C142 C139 1.382 . S
C142 C143 1.387 . S
C142 H168 0.930 . S
C143 C141 1.381 . S
C143 C142 1.387 . S
C143 H169 0.931 . S
C144 C141 1.487 . S
C144 C151 1.399 . S
C144 N182 1.343 . S
C145 C146 1.384 . S
C145 C147 1.384 . S
C145 H170 0.931 . S
C146 C145 1.384 . S
C146 C149 1.382 . S
C147 C145 1.384 . S
C147 C148 1.381 . S
C147 H171 0.930 . S
C148 C147 1.381 . S
C148 C150 1.381 . S
C148 C151 1.487 . S
C149 C146 1.382 . S
C149 C150 1.387 . S
C149 H172 0.930 . S
C150 C148 1.381 . S
C150 C149 1.387 . S
C150 H173 0.931 . S
C151 C144 1.399 . S
C151 C148 1.487 . S
C151 N183 1.343 . S
C152 C153 1.384 . S
C152 C154 1.384 . S
C152 H174 0.931 . S
C153 C152 1.384 . S
C153 C156 1.382 . S
C154 C152 1.384 . S
C154 C155 1.381 . S
C154 H175 0.930 . S
C155 C154 1.381 . S
C155 C157 1.381 . S
C155 C158 1.487 . S
C156 C153 1.382 . S
C156 C157 1.387 . S
C156 H176 0.930 . S
C157 C155 1.381 . S
C157 C156 1.387 . S
C157 H177 0.931 . S
C158 C155 1.487 . S
C158 C165 1.399 . S
C158 N183 1.343 . S
C159 C160 1.384 . S
C159 C161 1.384 . S
C159 H178 0.931 . S
C160 C159 1.384 . S
C160 C163 1.382 . S
C161 C159 1.384 . S
C161 C162 1.381 . S
C161 H179 0.930 . S
C162 C161 1.381 . S
C162 C164 1.381 . S
C162 C165 1.487 . S
C163 C160 1.382 . S
C163 C164 1.387 . S
C163 H180 0.930 . S
C164 C162 1.381 . S
C164 C163 1.387 . S
C164 H181 0.931 . S
C165 C158 1.399 . S
C165 C162 1.487 . S
C165 N182 1.343 . S
H166 C138 0.931 . S
H167 C140 0.930 . S
H168 C142 0.930 . S
H169 C143 0.931 . S
H170 C145 0.931 . S
H171 C147 0.930 . S
H172 C149 0.930 . S
H173 C150 0.931 . S
H174 C152 0.931 . S
H175 C154 0.930 . S
H176 C156 0.930 . S
H177 C157 0.931 . S
H178 C159 0.931 . S
H179 C161 0.930 . S
H180 C163 0.930 . S
H181 C164 0.931 . S
N182 C144 1.343 . S
N182 C165 1.343 . S
N183 C151 1.343 . S
N183 C158 1.343 . S
C184 C185 1.384 . S
C184 C186 1.384 . S
C184 H212 0.931 . S
C185 C184 1.384 . S
C185 C188 1.382 . S
C186 C184 1.384 . S
C186 C187 1.381 . S
C186 H213 0.930 . S
C187 C186 1.381 . S
C187 C189 1.381 . S
C187 C190 1.487 . S
C188 C185 1.382 . S
C188 C189 1.387 . S
C188 H214 0.930 . S
C189 C187 1.381 . S
C189 C188 1.387 . S
C189 H215 0.931 . S
C190 C187 1.487 . S
C190 C197 1.399 . S
C190 N228 1.343 . S
C191 C192 1.384 . S
C191 C193 1.384 . S
C191 H216 0.931 . S
C192 C191 1.384 . S
C192 C195 1.382 . S
C193 C191 1.384 . S
C193 C194 1.381 . S
C193 H217 0.930 . S
C194 C193 1.381 . S
C194 C196 1.381 . S
C194 C197 1.487 . S
C195 C192 1.382 . S
C195 C196 1.387 . S
C195 H218 0.930 . S
C196 C194 1.381 . S
C196 C195 1.387 . S
C196 H219 0.931 . S
C197 C190 1.399 . S
C197 C194 1.487 . S
C197 N229 1.343 . S
C198 C199 1.384 . S
C198 C200 1.384 . S
C198 H220 0.931 . S
C199 C198 1.384 . S
C199 C202 1.382 . S
C200 C198 1.384 . S
C200 C201 1.381 . S
C200 H221 0.930 . S
C201 C200 1.381 . S
C201 C203 1.381 . S
C201 C204 1.487 . S
C202 C199 1.382 . S
C202 C203 1.387 . S
C202 H222 0.930 . S
C203 C201 1.381 . S
C203 C202 1.387 . S
C203 H223 0.931 . S
C204 C201 1.487 . S
C204 C211 1.399 . S
C204 N229 1.343 . S
C205 C206 1.384 . S
C205 C207 1.384 . S
C205 H224 0.931 . S
C206 C205 1.384 . S
C206 C209 1.382 . S
C207 C205 1.384 . S
C207 C208 1.381 . S
C207 H225 0.930 . S
C208 C207 1.381 . S
C208 C210 1.381 . S
C208 C211 1.487 . S
C209 C206 1.382 . S
C209 C210 1.387 . S
C209 H226 0.930 . S
C210 C208 1.381 . S
C210 C209 1.387 . S
C210 H227 0.931 . S
C211 C204 1.399 . S
C211 C208 1.487 . S
C211 N228 1.343 . S
H212 C184 0.931 . S
H213 C186 0.930 . S
H214 C188 0.930 . S
H215 C189 0.931 . S
H216 C191 0.931 . S
H217 C193 0.930 . S
H218 C195 0.930 . S
H219 C196 0.931 . S
H220 C198 0.931 . S
H221 C200 0.930 . S
H222 C202 0.930 . S
H223 C203 0.931 . S
H224 C205 0.931 . S
H225 C207 0.930 . S
H226 C209 0.930 . S
H227 C210 0.931 . S
N228 C190 1.343 . S
N228 C211 1.343 . S
N229 C197 1.343 . S
N229 C204 1.343 . S
C230 C231 1.384 . S
C230 C232 1.384 . S
C230 H258 0.931 . S
C231 C230 1.384 . S
C231 C234 1.382 . S
C232 C230 1.384 . S
C232 C233 1.381 . S
C232 H259 0.930 . S
C233 C232 1.381 . S
C233 C235 1.381 . S
C233 C236 1.487 . S
C234 C231 1.382 . S
C234 C235 1.387 . S
C234 H260 0.930 . S
C235 C233 1.381 . S
C235 C234 1.387 . S
C235 H261 0.931 . S
C236 C233 1.487 . S
C236 C243 1.399 . S
C236 N274 1.343 . S
C237 C238 1.384 . S
C237 C239 1.384 . S
C237 H262 0.931 . S
C238 C237 1.384 . S
C238 C241 1.382 . S
C239 C237 1.384 . S
C239 C240 1.381 . S
C239 H263 0.930 . S
C240 C239 1.381 . S
C240 C242 1.381 . S
C240 C243 1.487 . S
C241 C238 1.382 . S
C241 C242 1.387 . S
C241 H264 0.930 . S
C242 C240 1.381 . S
C242 C241 1.387 . S
C242 H265 0.931 . S
C243 C236 1.399 . S
C243 C240 1.487 . S
C243 N275 1.343 . S
C244 C245 1.384 . S
C244 C246 1.384 . S
C244 H266 0.931 . S
C245 C244 1.384 . S
C245 C248 1.382 . S
C246 C244 1.384 . S
C246 C247 1.381 . S
C246 H267 0.930 . S
C247 C246 1.381 . S
C247 C249 1.381 . S
C247 C250 1.487 . S
C248 C245 1.382 . S
C248 C249 1.387 . S
C248 H268 0.930 . S
C249 C247 1.381 . S
C249 C248 1.387 . S
C249 H269 0.931 . S
C250 C247 1.487 . S
C250 C257 1.399 . S
C250 N275 1.343 . S
C251 C252 1.384 . S
C251 C253 1.384 . S
C251 H270 0.931 . S
C252 C251 1.384 . S
C252 C255 1.382 . S
C253 C251 1.384 . S
C253 C254 1.381 . S
C253 H271 0.930 . S
C254 C253 1.381 . S
C254 C256 1.381 . S
C254 C257 1.487 . S
C255 C252 1.382 . S
C255 C256 1.387 . S
C255 H272 0.930 . S
C256 C254 1.381 . S
C256 C255 1.387 . S
C256 H273 0.931 . S
C257 C250 1.399 . S
C257 C254 1.487 . S
C257 N274 1.343 . S
H258 C230 0.931 . S
H259 C232 0.930 . S
H260 C234 0.930 . S
H261 C235 0.931 . S
H262 C237 0.931 . S
H263 C239 0.930 . S
H264 C241 0.930 . S
H265 C242 0.931 . S
H266 C244 0.931 . S
H267 C246 0.930 . S
H268 C248 0.930 . S
H269 C249 0.931 . S
H270 C251 0.931 . S
H271 C253 0.930 . S
H272 C255 0.930 . S
H273 C256 0.931 . S
N274 C236 1.343 . S
N274 C257 1.343 . S
N275 C243 1.343 . S
N275 C250 1.343 . S
C276 C277 1.384 . S
C276 C278 1.384 . S
C276 H304 0.931 . S
C277 C276 1.384 . S
C277 C280 1.382 . S
C278 C276 1.384 . S
C278 C279 1.381 . S
C278 H305 0.930 . S
C279 C278 1.381 . S
C279 C281 1.381 . S
C279 C282 1.487 . S
C280 C277 1.382 . S
C280 C281 1.387 . S
C280 H306 0.930 . S
C281 C279 1.381 . S
C281 C280 1.387 . S
C281 H307 0.931 . S
C282 C279 1.487 . S
C282 C289 1.399 . S
C282 N320 1.343 . S
C283 C284 1.384 . S
C283 C285 1.384 . S
C283 H308 0.931 . S
C284 C283 1.384 . S
C284 C287 1.382 . S
C285 C283 1.384 . S
C285 C286 1.381 . S
C285 H309 0.930 . S
C286 C285 1.381 . S
C286 C288 1.381 . S
C286 C289 1.487 . S
C287 C284 1.382 . S
C287 C288 1.387 . S
C287 H310 0.930 . S
C288 C286 1.381 . S
C288 C287 1.387 . S
C288 H311 0.931 . S
C289 C282 1.399 . S
C289 C286 1.487 . S
C289 N321 1.343 . S
C290 C291 1.384 . S
C290 C292 1.384 . S
C290 H312 0.931 . S
C291 C290 1.384 . S
C291 C294 1.382 . S
C292 C290 1.384 . S
C292 C293 1.381 . S
C292 H313 0.930 . S
C293 C292 1.381 . S
C293 C295 1.381 . S
C293 C296 1.487 . S
C294 C291 1.382 . S
C294 C295 1.387 . S
C294 H314 0.930 . S
C295 C293 1.381 . S
C295 C294 1.387 . S
C295 H315 0.931 . S
C296 C293 1.487 . S
C296 C303 1.399 . S
C296 N321 1.343 . S
C297 C298 1.384 . S
C297 C299 1.384 . S
C297 H316 0.931 . S
C298 C297 1.384 . S
C298 C301 1.382 . S
C299 C297 1.384 . S
C299 C300 1.381 . S
C299 H317 0.930 . S
C300 C299 1.381 . S
C300 C302 1.381 . S
C300 C303 1.487 . S
C301 C298 1.382 . S
C301 C302 1.387 . S
C301 H318 0.930 . S
C302 C300 1.381 . S
C302 C301 1.387 . S
C302 H319 0.931 . S
C303 C296 1.399 . S
C303 C300 1.487 . S
C303 N320 1.343 . S
H304 C276 0.931 . S
H305 C278 0.930 . S
H306 C280 0.930 . S
H307 C281 0.931 . S
H308 C283 0.931 . S
H309 C285 0.930 . S
H310 C287 0.930 . S
H311 C288 0.931 . S
H312 C290 0.931 . S
H313 C292 0.930 . S
H314 C294 0.930 . S
H315 C295 0.931 . S
H316 C297 0.931 . S
H317 C299 0.930 . S
H318 C301 0.930 . S
H319 C302 0.931 . S
N320 C282 1.343 . S
N320 C303 1.343 . S
N321 C289 1.343 . S
N321 C296 1.343 . S
C322 C323 1.384 . S
C322 C324 1.384 . S
C322 H350 0.931 . S
C323 C322 1.384 . S
C323 C326 1.382 . S
C324 C322 1.384 . S
C324 C325 1.381 . S
C324 H351 0.930 . S
C325 C324 1.381 . S
C325 C327 1.381 . S
C325 C328 1.487 . S
C326 C323 1.382 . S
C326 C327 1.387 . S
C326 H352 0.930 . S
C327 C325 1.381 . S
C327 C326 1.387 . S
C327 H353 0.931 . S
C328 C325 1.487 . S
C328 C335 1.399 . S
C328 N366 1.343 . S
C329 C330 1.384 . S
C329 C331 1.384 . S
C329 H354 0.931 . S
C330 C329 1.384 . S
C330 C333 1.382 . S
C331 C329 1.384 . S
C331 C332 1.381 . S
C331 H355 0.930 . S
C332 C331 1.381 . S
C332 C334 1.381 . S
C332 C335 1.487 . S
C333 C330 1.382 . S
C333 C334 1.387 . S
C333 H356 0.930 . S
C334 C332 1.381 . S
C334 C333 1.387 . S
C334 H357 0.931 . S
C335 C328 1.399 . S
C335 C332 1.487 . S
C335 N367 1.343 . S
C336 C337 1.384 . S
C336 C338 1.384 . S
C336 H358 0.931 . S
C337 C336 1.384 . S
C337 C340 1.382 . S
C338 C336 1.384 . S
C338 C339 1.381 . S
C338 H359 0.930 . S
C339 C338 1.381 . S
C339 C341 1.381 . S
C339 C342 1.487 . S
C340 C337 1.382 . S
C340 C341 1.387 . S
C340 H360 0.930 . S
C341 C339 1.381 . S
C341 C340 1.387 . S
C341 H361 0.931 . S
C342 C339 1.487 . S
C342 C349 1.399 . S
C342 N367 1.343 . S
C343 C344 1.384 . S
C343 C345 1.384 . S
C343 H362 0.931 . S
C344 C343 1.384 . S
C344 C347 1.382 . S
C345 C343 1.384 . S
C345 C346 1.381 . S
C345 H363 0.930 . S
C346 C345 1.381 . S
C346 C348 1.381 . S
C346 C349 1.487 . S
C347 C344 1.382 . S
C347 C348 1.387 . S
C347 H364 0.930 . S
C348 C346 1.381 . S
C348 C347 1.387 . S
C348 H365 0.931 . S
C349 C342 1.399 . S
C349 C346 1.487 . S
C349 N366 1.343 . S
H350 C322 0.931 . S
H351 C324 0.930 . S
H352 C326 0.930 . S
H353 C327 0.931 . S
H354 C329 0.931 . S
H355 C331 0.930 . S
H356 C333 0.930 . S
H357 C334 0.931 . S
H358 C336 0.931 . S
H359 C338 0.930 . S
H360 C340 0.930 . S
H361 C341 0.931 . S
H362 C343 0.931 . S
H363 C345 0.930 . S
H364 C347 0.930 . S
H365 C348 0.931 . S
N366 C328 1.343 . S
N366 C349 1.343 . S
N367 C335 1.343 . S
N367 C342 1.343 . S
C368 C369 1.384 . S
C368 C370 1.384 . S
C368 H396 0.931 . S
C369 C368 1.384 . S
C369 C372 1.382 . S
C370 C368 1.384 . S
C370 C371 1.381 . S
C370 H397 0.930 . S
C371 C370 1.381 . S
C371 C373 1.381 . S
C371 C374 1.487 . S
C372 C369 1.382 . S
C372 C373 1.387 . S
C372 H398 0.930 . S
C373 C371 1.381 . S
C373 C372 1.387 . S
C373 H399 0.931 . S
C374 C371 1.487 . S
C374 C381 1.399 . S
C374 N412 1.343 . S
C375 C376 1.384 . S
C375 C377 1.384 . S
C375 H400 0.931 . S
C376 C375 1.384 . S
C376 C379 1.382 . S
C377 C375 1.384 . S
C377 C378 1.381 . S
C377 H401 0.930 . S
C378 C377 1.381 . S
C378 C380 1.381 . S
C378 C381 1.487 . S
C379 C376 1.382 . S
C379 C380 1.387 . S
C379 H402 0.930 . S
C380 C378 1.381 . S
C380 C379 1.387 . S
C380 H403 0.931 . S
C381 C374 1.399 . S
C381 C378 1.487 . S
C381 N413 1.343 . S
C382 C383 1.384 . S
C382 C384 1.384 . S
C382 H404 0.931 . S
C383 C382 1.384 . S
C383 C386 1.382 . S
C384 C382 1.384 . S
C384 C385 1.381 . S
C384 H405 0.930 . S
C385 C384 1.381 . S
C385 C387 1.381 . S
C385 C388 1.487 . S
C386 C383 1.382 . S
C386 C387 1.387 . S
C386 H406 0.930 . S
C387 C385 1.381 . S
C387 C386 1.387 . S
C387 H407 0.931 . S
C388 C385 1.487 . S
C388 C395 1.399 . S
C388 N413 1.343 . S
C389 C390 1.384 . S
C389 C391 1.384 . S
C389 H408 0.931 . S
C390 C389 1.384 . S
C390 C393 1.382 . S
C391 C389 1.384 . S
C391 C392 1.381 . S
C391 H409 0.930 . S
C392 C391 1.381 . S
C392 C394 1.381 . S
C392 C395 1.487 . S
C393 C390 1.382 . S
C393 C394 1.387 . S
C393 H410 0.930 . S
C394 C392 1.381 . S
C394 C393 1.387 . S
C394 H411 0.931 . S
C395 C388 1.399 . S
C395 C392 1.487 . S
C395 N412 1.343 . S
H396 C368 0.931 . S
H397 C370 0.930 . S
H398 C372 0.930 . S
H399 C373 0.931 . S
H400 C375 0.931 . S
H401 C377 0.930 . S
H402 C379 0.930 . S
H403 C380 0.931 . S
H404 C382 0.931 . S
H405 C384 0.930 . S
H406 C386 0.930 . S
H407 C387 0.931 . S
H408 C389 0.931 . S
H409 C391 0.930 . S
H410 C393 0.930 . S
H411 C394 0.931 . S
N412 C374 1.343 . S
N412 C395 1.343 . S
N413 C381 1.343 . S
N413 C388 1.343 . S
H414 C420 0.930 . S
H415 C423 0.930 . S
H416 C424 0.930 . S
H417 C425 0.930 . S
H418 C428 0.930 . S
H419 C429 0.930 . S
C420 H414 0.930 . S
C420 C421 1.355 . S
C420 C422 1.415 . S
C421 C420 1.355 . S
C421 C423 1.419 . S
C422 C420 1.415 . S
C422 C427 1.425 . S
C422 C429 1.409 . S
C423 H415 0.930 . S
C423 C421 1.419 . S
C423 C424 1.362 . S
C424 H416 0.930 . S
C424 C423 1.362 . S
C424 C427 1.409 . S
C425 H417 0.930 . S
C425 C426 1.355 . S
C425 C427 1.415 . S
C426 C425 1.355 . S
C426 C428 1.419 . S
C427 C422 1.425 . S
C427 C424 1.409 . S
C427 C425 1.415 . S
C428 H418 0.930 . S
C428 C426 1.419 . S
C428 C429 1.362 . S
C429 H419 0.930 . S
C429 C422 1.409 . S
C429 C428 1.362 . S
H430 C436 0.930 . S
H431 C439 0.930 . S
H432 C440 0.930 . S
H433 C441 0.930 . S
H434 C444 0.930 . S
H435 C445 0.930 . S
C436 H430 0.930 . S
C436 C437 1.355 . S
C436 C438 1.415 . S
C437 C436 1.355 . S
C437 C439 1.419 . S
C438 C436 1.415 . S
C438 C443 1.425 . S
C438 C445 1.409 . S
C439 H431 0.930 . S
C439 C437 1.419 . S
C439 C440 1.362 . S
C440 H432 0.930 . S
C440 C439 1.362 . S
C440 C443 1.409 . S
C441 H433 0.930 . S
C441 C442 1.355 . S
C441 C443 1.415 . S
C442 C441 1.355 . S
C442 C444 1.419 . S
C443 C438 1.425 . S
C443 C440 1.409 . S
C443 C441 1.415 . S
C444 H434 0.930 . S
C444 C442 1.419 . S
C444 C445 1.362 . S
C445 H435 0.930 . S
C445 C438 1.409 . S
C445 C444 1.362 . S
H446 C452 0.930 . S
H447 C455 0.930 . S
H448 C456 0.930 . S
H449 C457 0.930 . S
H450 C460 0.930 . S
H451 C461 0.930 . S
C452 H446 0.930 . S
C452 C453 1.355 . S
C452 C454 1.415 . S
C453 C452 1.355 . S
C453 C455 1.419 . S
C454 C452 1.415 . S
C454 C459 1.425 . S
C454 C461 1.409 . S
C455 H447 0.930 . S
C455 C453 1.419 . S
C455 C456 1.362 . S
C456 H448 0.930 . S
C456 C455 1.362 . S
C456 C459 1.409 . S
C457 H449 0.930 . S
C457 C458 1.355 . S
C457 C459 1.415 . S
C458 C457 1.355 . S
C458 C460 1.419 . S
C459 C454 1.425 . S
C459 C456 1.409 . S
C459 C457 1.415 . S
C460 H450 0.930 . S
C460 C458 1.419 . S
C460 C461 1.362 . S
C461 H451 0.930 . S
C461 C454 1.409 . S
C461 C460 1.362 . S
H462 C468 0.930 . S
H463 C471 0.930 . S
H464 C472 0.930 . S
H465 C473 0.930 . S
H466 C476 0.930 . S
H467 C477 0.930 . S
C468 H462 0.930 . S
C468 C469 1.355 . S
C468 C470 1.415 . S
C469 C468 1.355 . S
C469 C471 1.419 . S
C470 C468 1.415 . S
C470 C475 1.425 . S
C470 C477 1.409 . S
C471 H463 0.930 . S
C471 C469 1.419 . S
C471 C472 1.362 . S
C472 H464 0.930 . S
C472 C471 1.362 . S
C472 C475 1.409 . S
C473 H465 0.930 . S
C473 C474 1.355 . S
C473 C475 1.415 . S
C474 C473 1.355 . S
C474 C476 1.419 . S
C475 C470 1.425 . S
C475 C472 1.409 . S
C475 C473 1.415 . S
C476 H466 0.930 . S
C476 C474 1.419 . S
C476 C477 1.362 . S
C477 H467 0.930 . S
C477 C470 1.409 . S
C477 C476 1.362 . S
H478 C484 0.930 . S
H479 C487 0.930 . S
H480 C488 0.930 . S
H481 C489 0.930 . S
H482 C492 0.930 . S
H483 C493 0.930 . S
C484 H478 0.930 . S
C484 C485 1.355 . S
C484 C486 1.415 . S
C485 C484 1.355 . S
C485 C487 1.419 . S
C486 C484 1.415 . S
C486 C491 1.425 . S
C486 C493 1.409 . S
C487 H479 0.930 . S
C487 C485 1.419 . S
C487 C488 1.362 . S
C488 H480 0.930 . S
C488 C487 1.362 . S
C488 C491 1.409 . S
C489 H481 0.930 . S
C489 C490 1.355 . S
C489 C491 1.415 . S
C490 C489 1.355 . S
C490 C492 1.419 . S
C491 C486 1.425 . S
C491 C488 1.409 . S
C491 C489 1.415 . S
C492 H482 0.930 . S
C492 C490 1.419 . S
C492 C493 1.362 . S
C493 H483 0.930 . S
C493 C486 1.409 . S
C493 C492 1.362 . S
H494 C500 0.930 . S
H495 C503 0.930 . S
H496 C504 0.930 . S
H497 C505 0.930 . S
H498 C508 0.930 . S
H499 C509 0.930 . S
C500 H494 0.930 . S
C500 C501 1.355 . S
C500 C502 1.415 . S
C501 C500 1.355 . S
C501 C503 1.419 . S
C502 C500 1.415 . S
C502 C507 1.425 . S
C502 C509 1.409 . S
C503 H495 0.930 . S
C503 C501 1.419 . S
C503 C504 1.362 . S
C504 H496 0.930 . S
C504 C503 1.362 . S
C504 C507 1.409 . S
C505 H497 0.930 . S
C505 C506 1.355 . S
C505 C507 1.415 . S
C506 C505 1.355 . S
C506 C508 1.419 . S
C507 C502 1.425 . S
C507 C504 1.409 . S
C507 C505 1.415 . S
C508 H498 0.930 . S
C508 C506 1.419 . S
C508 C509 1.362 . S
C509 H499 0.930 . S
C509 C502 1.409 . S
C509 C508 1.362 . S
H510 C516 0.930 . S
H511 C519 0.930 . S
H512 C520 0.930 . S
H513 C521 0.930 . S
H514 C524 0.930 . S
H515 C525 0.930 . S
C516 H510 0.930 . S
C516 C517 1.355 . S
C516 C518 1.415 . S
C517 C516 1.355 . S
C517 C519 1.419 . S
C518 C516 1.415 . S
C518 C523 1.425 . S
C518 C525 1.409 . S
C519 H511 0.930 . S
C519 C517 1.419 . S
C519 C520 1.362 . S
C520 H512 0.930 . S
C520 C519 1.362 . S
C520 C523 1.409 . S
C521 H513 0.930 . S
C521 C522 1.355 . S
C521 C523 1.415 . S
C522 C521 1.355 . S
C522 C524 1.419 . S
C523 C518 1.425 . S
C523 C520 1.409 . S
C523 C521 1.415 . S
C524 H514 0.930 . S
C524 C522 1.419 . S
C524 C525 1.362 . S
C525 H515 0.930 . S
C525 C518 1.409 . S
C525 C524 1.362 . S
H526 C532 0.930 . S
H527 C535 0.930 1_554 S
H528 C536 0.930 . S
H529 C537 0.930 . S
H530 C540 0.930 . S
H531 C541 0.930 . S
C532 H526 0.930 . S
C532 C533 1.355 . S
C532 C534 1.415 . S
C533 C532 1.355 . S
C533 C535 1.419 . S
C534 C532 1.415 . S
C534 C539 1.425 . S
C534 C541 1.409 . S
C535 H527 0.930 1_556 S
C535 C533 1.419 . S
C535 C536 1.362 . S
C536 H528 0.930 . S
C536 C535 1.362 . S
C536 C539 1.409 . S
C537 H529 0.930 . S
C537 C538 1.355 . S
C537 C539 1.415 . S
C538 C537 1.355 . S
C538 C540 1.419 . S
C539 C534 1.425 . S
C539 C536 1.409 . S
C539 C537 1.415 . S
C540 H530 0.930 . S
C540 C538 1.419 . S
C540 C541 1.362 . S
C541 H531 0.930 . S
C541 C534 1.409 . S
C541 C540 1.362 . S
H542 C548 0.930 . S
H543 C551 0.930 . S
H544 C552 0.930 . S
H545 C553 0.930 . S
H546 C556 0.930 . S
H547 C557 0.930 . S
C548 H542 0.930 . S
C548 C549 1.355 . S
C548 C550 1.415 . S
C549 C548 1.355 . S
C549 C551 1.419 . S
C550 C548 1.415 . S
C550 C555 1.425 . S
C550 C557 1.409 . S
C551 H543 0.930 . S
C551 C549 1.419 . S
C551 C552 1.362 . S
C552 H544 0.930 . S
C552 C551 1.362 . S
C552 C555 1.409 . S
C553 H545 0.930 . S
C553 C554 1.355 . S
C553 C555 1.415 . S
C554 C553 1.355 . S
C554 C556 1.419 . S
C555 C550 1.425 . S
C555 C552 1.409 . S
C555 C553 1.415 . S
C556 H546 0.930 . S
C556 C554 1.419 . S
C556 C557 1.362 . S
C557 H547 0.930 . S
C557 C550 1.409 . S
C557 C556 1.362 . S
H558 C564 0.930 . S
H559 C567 0.930 . S
H560 C568 0.930 . S
H561 C569 0.930 . S
H562 C572 0.930 . S
H563 C573 0.930 . S
C564 H558 0.930 . S
C564 C565 1.355 . S
C564 C566 1.415 . S
C565 C564 1.355 . S
C565 C567 1.419 . S
C566 C564 1.415 . S
C566 C571 1.425 . S
C566 C573 1.409 . S
C567 H559 0.930 . S
C567 C565 1.419 . S
C567 C568 1.362 . S
C568 H560 0.930 . S
C568 C567 1.362 . S
C568 C571 1.409 . S
C569 H561 0.930 . S
C569 C570 1.355 . S
C569 C571 1.415 . S
C570 C569 1.355 . S
C570 C572 1.419 . S
C571 C566 1.425 . S
C571 C568 1.409 . S
C571 C569 1.415 . S
C572 H562 0.930 . S
C572 C570 1.419 . S
C572 C573 1.362 . S
C573 H563 0.930 . S
C573 C566 1.409 . S
C573 C572 1.362 . S
H574 C580 0.930 . S
H575 C583 0.930 . S
H576 C584 0.930 . S
H577 C585 0.930 . S
H578 C588 0.930 . S
H579 C589 0.930 . S
C580 H574 0.930 . S
C580 C581 1.355 . S
C580 C582 1.415 . S
C581 C580 1.355 . S
C581 C583 1.419 . S
C582 C580 1.415 . S
C582 C587 1.425 . S
C582 C589 1.409 . S
C583 H575 0.930 . S
C583 C581 1.419 . S
C583 C584 1.362 . S
C584 H576 0.930 . S
C584 C583 1.362 . S
C584 C587 1.409 . S
C585 H577 0.930 . S
C585 C586 1.355 . S
C585 C587 1.415 . S
C586 C585 1.355 . S
C586 C588 1.419 . S
C587 C582 1.425 . S
C587 C584 1.409 . S
C587 C585 1.415 . S
C588 H578 0.930 . S
C588 C586 1.419 . S
C588 C589 1.362 . S
C589 H579 0.930 . S
C589 C582 1.409 . S
C589 C588 1.362 . S
H590 C596 0.930 . S
H591 C599 0.930 . S
H592 C600 0.930 . S
H593 C601 0.930 . S
H594 C604 0.930 . S
H595 C605 0.930 . S
C596 H590 0.930 . S
C596 C597 1.355 . S
C596 C598 1.415 . S
C597 C596 1.355 . S
C597 C599 1.419 . S
C598 C596 1.415 . S
C598 C603 1.425 . S
C598 C605 1.409 . S
C599 H591 0.930 . S
C599 C597 1.419 . S
C599 C600 1.362 . S
C600 H592 0.930 . S
C600 C599 1.362 . S
C600 C603 1.409 . S
C601 H593 0.930 . S
C601 C602 1.355 . S
C601 C603 1.415 . S
C602 C601 1.355 . S
C602 C604 1.419 . S
C603 C598 1.425 . S
C603 C600 1.409 . S
C603 C601 1.415 . S
C604 H594 0.930 . S
C604 C602 1.419 . S
C604 C605 1.362 . S
C605 H595 0.930 . S
C605 C598 1.409 . S
C605 C604 1.362 . S
H606 C612 0.930 . S
H607 C615 0.930 . S
H608 C616 0.930 . S
H609 C617 0.930 . S
H610 C620 0.930 . S
H611 C621 0.930 . S
C612 H606 0.930 . S
C612 C613 1.355 . S
C612 C614 1.415 . S
C613 C612 1.355 . S
C613 C615 1.419 . S
C614 C612 1.415 . S
C614 C619 1.425 . S
C614 C621 1.409 . S
C615 H607 0.930 . S
C615 C613 1.419 . S
C615 C616 1.362 . S
C616 H608 0.930 . S
C616 C615 1.362 . S
C616 C619 1.409 . S
C617 H609 0.930 . S
C617 C618 1.355 . S
C617 C619 1.415 . S
C618 C617 1.355 . S
C618 C620 1.419 . S
C619 C614 1.425 . S
C619 C616 1.409 . S
C619 C617 1.415 . S
C620 H610 0.930 . S
C620 C618 1.419 . S
C620 C621 1.362 . S
C621 H611 0.930 . S
C621 C614 1.409 . S
C621 C620 1.362 . S
H622 C628 0.930 . S
H623 C631 0.930 . S
H624 C632 0.930 . S
H625 C633 0.930 . S
H626 C636 0.930 . S
H627 C637 0.930 . S
C628 H622 0.930 . S
C628 C629 1.355 . S
C628 C630 1.415 . S
C629 C628 1.355 . S
C629 C631 1.419 . S
C630 C628 1.415 . S
C630 C635 1.425 . S
C630 C637 1.409 . S
C631 H623 0.930 . S
C631 C629 1.419 . S
C631 C632 1.362 . S
C632 H624 0.930 . S
C632 C631 1.362 . S
C632 C635 1.409 . S
C633 H625 0.930 . S
C633 C634 1.355 . S
C633 C635 1.415 . S
C634 C633 1.355 . S
C634 C636 1.419 . S
C635 C630 1.425 . S
C635 C632 1.409 . S
C635 C633 1.415 . S
C636 H626 0.930 . S
C636 C634 1.419 . S
C636 C637 1.362 . S
C637 H627 0.930 . S
C637 C630 1.409 . S
C637 C636 1.362 . S
H638 C644 0.930 . S
H639 C647 0.930 . S
H640 C648 0.930 . S
H641 C649 0.930 . S
H642 C652 0.930 . S
H643 C653 0.930 . S
C644 H638 0.930 . S
C644 C645 1.355 . S
C644 C646 1.415 . S
C645 C644 1.355 . S
C645 C647 1.419 . S
C646 C644 1.415 . S
C646 C651 1.425 . S
C646 C653 1.409 . S
C647 H639 0.930 . S
C647 C645 1.419 . S
C647 C648 1.362 . S
C648 H640 0.930 . S
C648 C647 1.362 . S
C648 C651 1.409 . S
C649 H641 0.930 . S
C649 C650 1.355 . S
C649 C651 1.415 . S
C650 C649 1.355 . S
C650 C652 1.419 . S
C651 C646 1.425 . S
C651 C648 1.409 . S
C651 C649 1.415 . S
C652 H642 0.930 . S
C652 C650 1.419 . S
C652 C653 1.362 . S
C653 H643 0.930 . S
C653 C646 1.409 . S
C653 C652 1.362 . S
H654 C660 0.930 . S
H655 C663 0.930 . S
H656 C664 0.930 . S
H657 C665 0.930 . S
H658 C668 0.930 . S
H659 C669 0.930 . S
C660 H654 0.930 . S
C660 C661 1.355 . S
C660 C662 1.415 . S
C661 C660 1.355 . S
C661 C663 1.419 . S
C662 C660 1.415 . S
C662 C667 1.425 . S
C662 C669 1.409 . S
C663 H655 0.930 . S
C663 C661 1.419 . S
C663 C664 1.362 . S
C664 H656 0.930 . S
C664 C663 1.362 . S
C664 C667 1.409 . S
C665 H657 0.930 . S
C665 C666 1.355 . S
C665 C667 1.415 . S
C666 C665 1.355 . S
C666 C668 1.419 . S
C667 C662 1.425 . S
C667 C664 1.409 . S
C667 C665 1.415 . S
C668 H658 0.930 . S
C668 C666 1.419 . S
C668 C669 1.362 . S
C669 H659 0.930 . S
C669 C662 1.409 . S
C669 C668 1.362 . S
H670 C676 0.930 . S
H671 C679 0.930 . S
H672 C680 0.930 . S
H673 C681 0.930 . S
H674 C684 0.930 . S
H675 C685 0.930 . S
C676 H670 0.930 . S
C676 C677 1.355 . S
C676 C678 1.415 . S
C677 C676 1.355 . S
C677 C679 1.419 . S
C678 C676 1.415 . S
C678 C683 1.425 . S
C678 C685 1.409 . S
C679 H671 0.930 . S
C679 C677 1.419 . S
C679 C680 1.362 . S
C680 H672 0.930 . S
C680 C679 1.362 . S
C680 C683 1.409 . S
C681 H673 0.930 . S
C681 C682 1.355 . S
C681 C683 1.415 . S
C682 C681 1.355 . S
C682 C684 1.419 . S
C683 C678 1.425 . S
C683 C680 1.409 . S
C683 C681 1.415 . S
C684 H674 0.930 . S
C684 C682 1.419 . S
C684 C685 1.362 . S
C685 H675 0.930 . S
C685 C678 1.409 . S
C685 C684 1.362 . S
H686 C692 0.930 . S
H687 C695 0.930 . S
H688 C696 0.930 . S
H689 C697 0.930 . S
H690 C700 0.930 . S
H691 C701 0.930 . S
C692 H686 0.930 . S
C692 C693 1.355 . S
C692 C694 1.415 . S
C693 C692 1.355 . S
C693 C695 1.419 . S
C694 C692 1.415 . S
C694 C699 1.425 . S
C694 C701 1.409 . S
C695 H687 0.930 . S
C695 C693 1.419 . S
C695 C696 1.362 . S
C696 H688 0.930 . S
C696 C695 1.362 . S
C696 C699 1.409 . S
C697 H689 0.930 . S
C697 C698 1.355 . S
C697 C699 1.415 . S
C698 C697 1.355 . S
C698 C700 1.419 . S
C699 C694 1.425 . S
C699 C696 1.409 . S
C699 C697 1.415 . S
C700 H690 0.930 . S
C700 C698 1.419 . S
C700 C701 1.362 . S
C701 H691 0.930 . S
C701 C694 1.409 . S
C701 C700 1.362 . S
H702 C708 0.930 . S
H703 C711 0.930 . S
H704 C712 0.930 . S
H705 C713 0.930 . S
H706 C716 0.930 . S
H707 C717 0.930 . S
C708 H702 0.930 . S
C708 C709 1.355 . S
C708 C710 1.415 . S
C709 C708 1.355 . S
C709 C711 1.419 . S
C710 C708 1.415 . S
C710 C715 1.425 . S
C710 C717 1.409 . S
C711 H703 0.930 . S
C711 C709 1.419 . S
C711 C712 1.362 . S
C712 H704 0.930 . S
C712 C711 1.362 . S
C712 C715 1.409 . S
C713 H705 0.930 . S
C713 C714 1.355 . S
C713 C715 1.415 . S
C714 C713 1.355 . S
C714 C716 1.419 . S
C715 C710 1.425 . S
C715 C712 1.409 . S
C715 C713 1.415 . S
C716 H706 0.930 . S
C716 C714 1.419 . S
C716 C717 1.362 . S
C717 H707 0.930 . S
C717 C710 1.409 . S
C717 C716 1.362 . S
H718 C724 0.930 . S
H719 C727 0.930 . S
H720 C728 0.930 . S
H721 C729 0.930 . S
H722 C732 0.930 . S
H723 C733 0.930 . S
C724 H718 0.930 . S
C724 C725 1.355 . S
C724 C726 1.415 . S
C725 C724 1.355 . S
C725 C727 1.419 . S
C726 C724 1.415 . S
C726 C731 1.425 . S
C726 C733 1.409 . S
C727 H719 0.930 . S
C727 C725 1.419 . S
C727 C728 1.362 . S
C728 H720 0.930 . S
C728 C727 1.362 . S
C728 C731 1.409 . S
C729 H721 0.930 . S
C729 C730 1.355 . S
C729 C731 1.415 . S
C730 C729 1.355 . S
C730 C732 1.419 . S
C731 C726 1.425 . S
C731 C728 1.409 . S
C731 C729 1.415 . S
C732 H722 0.930 . S
C732 C730 1.419 . S
C732 C733 1.362 . S
C733 H723 0.930 . S
C733 C726 1.409 . S
C733 C732 1.362 . S
H734 C740 0.930 . S
H735 C743 0.930 . S
H736 C744 0.930 . S
H737 C745 0.930 . S
H738 C748 0.930 . S
H739 C749 0.930 . S
C740 H734 0.930 . S
C740 C741 1.355 . S
C740 C742 1.415 . S
C741 C740 1.355 . S
C741 C743 1.419 . S
C742 C740 1.415 . S
C742 C747 1.425 . S
C742 C749 1.409 . S
C743 H735 0.930 . S
C743 C741 1.419 . S
C743 C744 1.362 . S
C744 H736 0.930 . S
C744 C743 1.362 . S
C744 C747 1.409 . S
C745 H737 0.930 . S
C745 C746 1.355 . S
C745 C747 1.415 . S
C746 C745 1.355 . S
C746 C748 1.419 . S
C747 C742 1.425 . S
C747 C744 1.409 . S
C747 C745 1.415 . S
C748 H738 0.930 . S
C748 C746 1.419 . S
C748 C749 1.362 . S
C749 H739 0.930 . S
C749 C742 1.409 . S
C749 C748 1.362 . S
H750 C756 0.930 . S
H751 C759 0.930 . S
H752 C760 0.930 . S
H753 C761 0.930 . S
H754 C764 0.930 . S
H755 C765 0.930 . S
C756 H750 0.930 . S
C756 C757 1.355 . S
C756 C758 1.415 . S
C757 C756 1.355 . S
C757 C759 1.419 . S
C758 C756 1.415 . S
C758 C763 1.425 . S
C758 C765 1.409 . S
C759 H751 0.930 . S
C759 C757 1.419 . S
C759 C760 1.362 . S
C760 H752 0.930 . S
C760 C759 1.362 . S
C760 C763 1.409 . S
C761 H753 0.930 . S
C761 C762 1.355 . S
C761 C763 1.415 . S
C762 C761 1.355 . S
C762 C764 1.419 . S
C763 C758 1.425 . S
C763 C760 1.409 . S
C763 C761 1.415 . S
C764 H754 0.930 . S
C764 C762 1.419 . S
C764 C765 1.362 . S
C765 H755 0.930 . S
C765 C758 1.409 . S
C765 C764 1.362 . S
H766 C772 0.930 . S
H767 C775 0.930 . S
H768 C776 0.930 . S
H769 C777 0.930 . S
H770 C780 0.930 . S
H771 C781 0.930 . S
C772 H766 0.930 . S
C772 C773 1.355 . S
C772 C774 1.415 . S
C773 C772 1.355 . S
C773 C775 1.419 . S
C774 C772 1.415 . S
C774 C779 1.425 . S
C774 C781 1.409 . S
C775 H767 0.930 . S
C775 C773 1.419 . S
C775 C776 1.362 . S
C776 H768 0.930 . S
C776 C775 1.362 . S
C776 C779 1.409 . S
C777 H769 0.930 . S
C777 C778 1.355 . S
C777 C779 1.415 . S
C778 C777 1.355 . S
C778 C780 1.419 . S
C779 C774 1.425 . S
C779 C776 1.409 . S
C779 C777 1.415 . S
C780 H770 0.930 . S
C780 C778 1.419 . S
C780 C781 1.362 . S
C781 H771 0.930 . S
C781 C774 1.409 . S
C781 C780 1.362 . S
H782 C788 0.930 . S
H783 C791 0.930 . S
H784 C792 0.930 . S
H785 C793 0.930 . S
H786 C796 0.930 . S
H787 C797 0.930 . S
C788 H782 0.930 . S
C788 C789 1.355 . S
C788 C790 1.415 . S
C789 C788 1.355 . S
C789 C791 1.419 . S
C790 C788 1.415 . S
C790 C795 1.425 . S
C790 C797 1.409 . S
C791 H783 0.930 . S
C791 C789 1.419 . S
C791 C792 1.362 . S
C792 H784 0.930 . S
C792 C791 1.362 . S
C792 C795 1.409 . S
C793 H785 0.930 . S
C793 C794 1.355 . S
C793 C795 1.415 . S
C794 C793 1.355 . S
C794 C796 1.419 . S
C795 C790 1.425 . S
C795 C792 1.409 . S
C795 C793 1.415 . S
C796 H786 0.930 . S
C796 C794 1.419 . S
C796 C797 1.362 . S
C797 H787 0.930 . S
C797 C790 1.409 . S
C797 C796 1.362 . S
C421 C7 1.890 . S
C426 C160 1.881 . S
C437 C30 1.637 . S
C442 C199 1.612 . S
C458 C231 1.757 . S
C453 N58 1.732 . S
C474 C277 1.482 . S
C469 N81 1.438 . S
C490 C344 1.795 . S
C485 C99 1.804 . S
C506 C383 1.575 . S
C501 N127 1.546 . S
C517 N25 1.757 . S
C522 C245 1.770 . S
C533 C62 1.642 . S
C538 C291 1.633 . S
C554 C330 1.813 . S
C549 C85 1.836 . S
C570 C369 1.572 . S
C565 N94 1.569 . S
C581 C131 1.844 . S
C586 C146 1.810 . S
C602 C185 1.504 . S
C597 N2 1.513 . S
C618 C284 1.815 . S
C613 C16 1.814 . S
C629 C39 1.597 . S
C634 C337 1.592 . S
C650 C390 1.685 . S
C645 N48 1.675 . S
C661 N71 1.480 . S
C666 C153 1.505 . S
C677 C108 1.758 . S
C682 C206 1.740 . S
C693 N117 1.495 . S
C698 C238 1.547 . S
C709 N35 1.719 . S
C714 C376 1.754 . S
C730 C139 1.646 . S
C725 C53 1.655 . S
C741 C76 1.844 . S
C746 C192 1.819 . S
C757 N104 1.459 . S
C762 C252 1.473 . S
C773 C122 1.763 . S
C778 C298 1.724 . S
C789 N12 1.475 . S
C794 C323 1.503 . S
