# Generated by pormake.
# Topology pth, (4,4)-cn, num edge types: 1
# Building blocks:
#     Node 0, Type 0, BuildingBlock: CEKHIL_clean_sbu_0, # of connection points: 4
#     Node 1, Type 0, BuildingBlock: CEKHIL_clean_sbu_0, # of connection points: 4
#     Node 2, Type 0, BuildingBlock: CEKHIL_clean_sbu_0, # of connection points: 4
#     Node 3, Type 1, BuildingBlock: MIFKUJ_clean_linker_1, # of connection points: 4
#     Node 4, Type 1, BuildingBlock: MIFKUJ_clean_linker_1, # of connection points: 4
#     Node 5, Type 1, BuildingBlock: MIFKUJ_clean_linker_1, # of connection points: 4
#     Edge 6, Type (0, 1), BuildingBlock: CIFDUS_clean_linker_0, # of connection points: 2
#     Edge 7, Type (0, 1), BuildingBlock: CIFDUS_clean_linker_0, # of connection points: 2
#     Edge 8, Type (0, 1), BuildingBlock: CIFDUS_clean_linker_0, # of connection points: 2
#     Edge 9, Type (0, 1), BuildingBlock: CIFDUS_clean_linker_0, # of connection points: 2
#     Edge 10, Type (0, 1), BuildingBlock: CIFDUS_clean_linker_0, # of connection points: 2
#     Edge 11, Type (0, 1), BuildingBlock: CIFDUS_clean_linker_0, # of connection points: 2
#     Edge 12, Type (0, 1), BuildingBlock: CIFDUS_clean_linker_0, # of connection points: 2
#     Edge 13, Type (0, 1), BuildingBlock: CIFDUS_clean_linker_0, # of connection points: 2
#     Edge 14, Type (0, 1), BuildingBlock: CIFDUS_clean_linker_0, # of connection points: 2
#     Edge 15, Type (0, 1), BuildingBlock: CIFDUS_clean_linker_0, # of connection points: 2
#     Edge 16, Type (0, 1), BuildingBlock: CIFDUS_clean_linker_0, # of connection points: 2
#     Edge 17, Type (0, 1), BuildingBlock: CIFDUS_clean_linker_0, # of connection points: 2
# Relax obj value: 0.014
# Max RMSD: 0.064
# Mean RMSD: 0.055
data_MOF--net-pth--node1-CEKHIL_clean_sbu_0--node2-MIFKUJ_clean_linker_1--edge1-CIFDUS_clean_linker_0
_symmetry_space_group_name_H-M    P1
_symmetry_Int_Tables_number       1
_symmetry_cell_setting            triclinic
loop_
_symmetry_equiv_pos_as_xyz
'x, y, z'
_cell_length_a     26.101796
_cell_length_b     26.213719
_cell_length_c     57.622498
_cell_angle_alpha  90.762496
_cell_angle_beta   90.18161
_cell_angle_gamma 120.27698
loop_
_atom_site_label
_atom_site_type_symbol
_atom_site_fract_x
_atom_site_fract_y
_atom_site_fract_z
_atom_type_partial_charge
Co0 Co 0.01352 0.02698 0.06083 0.0
O1 O 0.97516 0.97181 0.0853 0.0
O2 O 0.04939 0.97817 0.06465 0.0
C3 C 0.02243 0.10547 0.08117 0.0
O4 O 0.06589 0.08044 0.03502 0.0
Co5 Co 0.95472 0.09263 0.03895 0.0
O6 O 0.03565 0.1449 0.02684 0.0
C7 C 0.90913 0.96695 0.02731 0.0
C8 C 0.01229 0.95358 0.08156 0.0
C9 C 0.07308 0.12743 0.02517 0.0
O10 O 0.95417 0.96903 0.03744 0.0
O11 O 0.89852 0.00959 0.02772 0.0
O12 O 0.06124 0.08879 0.08377 0.0
O13 O 0.978 0.07222 0.06766 0.0
Co14 Co 0.0086 0.03086 0.3716 0.0
O15 O 0.96645 0.04825 0.34851 0.0
O16 O 0.04567 0.11559 0.36794 0.0
C17 C 0.01251 0.95964 0.35058 0.0
O18 O 0.0654 0.02964 0.39598 0.0
Co19 Co 0.95124 0.90759 0.39397 0.0
O20 O 0.03269 0.93538 0.40551 0.0
C21 C 0.91399 0.99191 0.40901 0.0
C22 C 0.00513 0.1036 0.35218 0.0
C23 C 0.07212 0.98998 0.40632 0.0
O24 O 0.95444 0.03202 0.39635 0.0
O25 O 0.90356 0.9387 0.40955 0.0
O26 O 0.05086 0.015 0.34734 0.0
O27 O 0.97047 0.94931 0.36492 0.0
Co28 Co 0.00695 0.02068 0.70726 0.0
O29 O 0.06964 0.06191 0.68522 0.0
O30 O 0.05111 0.98024 0.70314 0.0
C31 C 0.9351 0.02257 0.68599 0.0
O32 O 0.94559 0.96413 0.73024 0.0
Co33 Co 0.94244 0.07986 0.73054 0.0
O34 O 0.88688 0.99932 0.74168 0.0
C35 C 0.06469 0.11488 0.74518 0.0
C36 C 0.08272 0.02076 0.68823 0.0
C37 C 0.90011 0.9587 0.74117 0.0
O38 O 0.06166 0.07124 0.73342 0.0
O39 O 0.02392 0.12842 0.74459 0.0
O40 O 0.94962 0.98271 0.68179 0.0
O41 O 0.96722 0.06225 0.70142 0.0
H42 H 0.15954 0.51658 0.18043 0.0
H43 H 0.16264 0.43885 0.15741 0.0
H44 H 0.98494 0.31355 0.1791 0.0
H45 H 0.98215 0.39135 0.20217 0.0
H46 H 0.0789 0.55508 0.17379 0.0
H47 H 0.14128 0.47604 0.23509 0.0
H48 H 0.14023 0.40266 0.26121 0.0
H49 H 0.96625 0.35983 0.28476 0.0
H50 H 0.96711 0.43254 0.2583 0.0
H51 H 0.96088 0.59032 0.25138 0.0
H52 H 0.95731 0.66976 0.27267 0.0
H53 H 0.13694 0.79225 0.25162 0.0
H54 H 0.13877 0.71315 0.22958 0.0
H55 H 0.04115 0.55014 0.25828 0.0
H56 H 0.97247 0.61779 0.19446 0.0
H57 H 0.96853 0.68626 0.16731 0.0
H58 H 0.15215 0.75118 0.14984 0.0
H59 H 0.15432 0.67998 0.17622 0.0
C60 C 0.07077 0.4596 0.1931 0.0
C61 C 0.12153 0.4722 0.1804 0.0
C62 C 0.12332 0.42782 0.16734 0.0
C63 C 0.07395 0.37031 0.16642 0.0
C64 C 0.02343 0.35763 0.17937 0.0
C65 C 0.02196 0.40185 0.19268 0.0
C66 C 0.0672 0.50765 0.20544 0.0
C67 C 0.07168 0.5545 0.19235 0.0
C68 C 0.05571 0.50575 0.22949 0.0
C69 C 0.05402 0.4594 0.24456 0.0
C70 C 0.10259 0.45031 0.24566 0.0
C71 C 0.10222 0.40884 0.26078 0.0
C72 C 0.05322 0.37554 0.2751 0.0
C73 C 0.00442 0.38437 0.27381 0.0
C74 C 0.00497 0.4261 0.25878 0.0
C75 C 0.04986 0.646 0.23876 0.0
C76 C 0.9992 0.63449 0.25124 0.0
C77 C 0.99752 0.67995 0.26358 0.0
C78 C 0.04694 0.73769 0.26401 0.0
C79 C 0.09759 0.74882 0.25139 0.0
C80 C 0.09887 0.70354 0.23882 0.0
C81 C 0.05299 0.59745 0.22663 0.0
C82 C 0.04845 0.55061 0.23974 0.0
C83 C 0.06414 0.59906 0.20259 0.0
C84 C 0.06377 0.64411 0.18744 0.0
C85 C 0.01195 0.64714 0.18488 0.0
C86 C 0.00996 0.68665 0.16937 0.0
C87 C 0.0601 0.72471 0.15627 0.0
C88 C 0.1123 0.72202 0.15922 0.0
C89 C 0.11389 0.68173 0.17448 0.0
H90 H 0.65506 0.1252 0.50952 0.0
H91 H 0.72833 0.11231 0.48794 0.0
H92 H 0.64268 0.93011 0.50944 0.0
H93 H 0.57268 0.94516 0.53217 0.0
H94 H 0.51925 0.04556 0.50579 0.0
H95 H 0.68849 0.10997 0.55715 0.0
H96 H 0.76233 0.09712 0.57863 0.0
H97 H 0.62297 0.95851 0.6182 0.0
H98 H 0.54858 0.96851 0.59579 0.0
H99 H 0.41887 0.98317 0.5989 0.0
H100 H 0.34735 0.98907 0.62383 0.0
H101 H 0.35053 0.1232 0.57986 0.0
H102 H 0.42699 0.12138 0.55641 0.0
H103 H 0.52407 0.05066 0.5918 0.0
H104 H 0.35711 0.96607 0.54119 0.0
H105 H 0.27427 0.95038 0.5165 0.0
H106 H 0.39394 0.09868 0.47485 0.0
H107 H 0.47644 0.11596 0.50041 0.0
C108 C 0.60896 0.03628 0.52255 0.0
C109 C 0.65245 0.08262 0.50955 0.0
C110 C 0.69407 0.07492 0.49708 0.0
C111 C 0.69201 0.02012 0.49688 0.0
C112 C 0.64708 0.97342 0.50956 0.0
C113 C 0.60643 0.98163 0.52242 0.0
C114 C 0.56608 0.04482 0.53638 0.0
C115 C 0.52055 0.04778 0.52462 0.0
C116 C 0.56694 0.04494 0.56092 0.0
C117 C 0.61261 0.03934 0.57442 0.0
C118 C 0.67348 0.07585 0.57004 0.0
C119 C 0.71571 0.06895 0.58243 0.0
C120 C 0.6979 0.0267 0.59987 0.0
C121 C 0.63744 0.99129 0.60475 0.0
C122 C 0.59512 0.99724 0.59202 0.0
C123 C 0.42854 0.0516 0.57557 0.0
C124 C 0.40474 0.0144 0.59471 0.0
C125 C 0.36279 0.01717 0.60884 0.0
C126 C 0.3423 0.05638 0.60397 0.0
C127 C 0.3656 0.09304 0.58455 0.0
C128 C 0.40878 0.09129 0.57075 0.0
C129 C 0.47538 0.04986 0.56133 0.0
C130 C 0.52229 0.04874 0.57299 0.0
C131 C 0.47427 0.04879 0.53667 0.0
C132 C 0.42309 0.04258 0.52285 0.0
C133 C 0.36541 0.99618 0.52712 0.0
C134 C 0.31812 0.98677 0.51275 0.0
C135 C 0.32745 0.02288 0.49349 0.0
C136 C 0.38499 0.07033 0.48961 0.0
C137 C 0.4323 0.07998 0.50412 0.0
H138 H 0.46751 0.39342 0.84062 0.0
H139 H 0.38416 0.32603 0.81549 0.0
H140 H 0.27074 0.37486 0.85233 0.0
H141 H 0.35482 0.44519 0.87579 0.0
H142 H 0.51521 0.51147 0.84218 0.0
H143 H 0.44567 0.36614 0.91249 0.0
H144 H 0.37043 0.30324 0.94048 0.0
H145 H 0.30783 0.42794 0.94345 0.0
H146 H 0.38611 0.49206 0.91727 0.0
H147 H 0.55682 0.64455 0.92568 0.0
H148 H 0.63502 0.7252 0.94854 0.0
H149 H 0.76256 0.68169 0.92095 0.0
H150 H 0.684 0.60278 0.89714 0.0
H151 H 0.51983 0.52665 0.92808 0.0
H152 H 0.59447 0.67911 0.8751 0.0
H153 H 0.65823 0.75917 0.84965 0.0
H154 H 0.6906 0.63889 0.80886 0.0
H155 H 0.62916 0.55921 0.83543 0.0
C156 C 0.41736 0.42354 0.86055 0.0
C157 C 0.42446 0.38907 0.84339 0.0
C158 C 0.37659 0.35021 0.82912 0.0
C159 C 0.32055 0.34502 0.83175 0.0
C160 C 0.31331 0.37821 0.84949 0.0
C161 C 0.36127 0.41762 0.86342 0.0
C162 C 0.46961 0.47016 0.87364 0.0
C163 C 0.51725 0.51389 0.86099 0.0
C164 C 0.47067 0.47523 0.89813 0.0
C165 C 0.42102 0.43341 0.91275 0.0
C166 C 0.41534 0.37943 0.91919 0.0
C167 C 0.37198 0.3434 0.93514 0.0
C168 C 0.33294 0.36041 0.94465 0.0
C169 C 0.33789 0.4138 0.9373 0.0
C170 C 0.38216 0.45033 0.92198 0.0
C171 C 0.61462 0.6177 0.90975 0.0
C172 C 0.60173 0.65263 0.9245 0.0
C173 C 0.64657 0.69848 0.93773 0.0
C174 C 0.70529 0.70973 0.93695 0.0
C175 C 0.71814 0.67491 0.92189 0.0
C176 C 0.67325 0.62955 0.90832 0.0
C177 C 0.56596 0.56745 0.89665 0.0
C178 C 0.51911 0.5232 0.90928 0.0
C179 C 0.5647 0.56343 0.8721 0.0
C180 C 0.60771 0.6131 0.85755 0.0
C181 C 0.61667 0.67013 0.86116 0.0
C182 C 0.65239 0.71582 0.84625 0.0
C183 C 0.67915 0.70549 0.82699 0.0
C184 C 0.67117 0.64864 0.82361 0.0
C185 C 0.63572 0.60291 0.83872 0.0
H186 H 0.11089 0.1826 0.11031 0.0
H187 H 0.94092 0.14112 0.08169 0.0
H188 H 0.94184 0.21915 0.10557 0.0
H189 H 0.98948 0.29741 0.13541 0.0
H190 H 0.16008 0.34054 0.16366 0.0
H191 H 0.16053 0.26383 0.13909 0.0
C192 C 0.07427 0.19092 0.1092 0.0
C193 C 0.0258 0.15591 0.09433 0.0
C194 C 0.07505 0.23595 0.12301 0.0
C195 C 0.97876 0.16738 0.09301 0.0
C196 C 0.97913 0.21189 0.10672 0.0
C197 C 0.02656 0.28971 0.13625 0.0
C198 C 0.07442 0.32411 0.15144 0.0
C199 C 0.02671 0.24599 0.12196 0.0
C200 C 0.12278 0.31459 0.15206 0.0
C201 C 0.12299 0.27071 0.13806 0.0
H202 H 0.86485 0.94584 0.45042 0.0
H203 H 0.8802 0.07288 0.40005 0.0
H204 H 0.81301 0.09311 0.42273 0.0
H205 H 0.74619 0.07076 0.45583 0.0
H206 H 0.73893 0.95028 0.50799 0.0
H207 H 0.80565 0.93064 0.48533 0.0
C208 C 0.85358 0.97807 0.44445 0.0
C209 C 0.8769 0.00737 0.42349 0.0
C210 C 0.81583 0.99016 0.45774 0.0
C211 C 0.86279 0.04977 0.41615 0.0
C212 C 0.82421 0.06116 0.42906 0.0
C213 C 0.75984 0.04101 0.46257 0.0
C214 C 0.73617 0.01135 0.48355 0.0
C215 C 0.8 0.03117 0.44979 0.0
C216 C 0.75445 0.97246 0.49162 0.0
C217 C 0.79328 0.96155 0.47877 0.0
H218 H 0.79352 0.925 0.76086 0.0
H219 H 0.92392 0.87117 0.75266 0.0
H220 H 0.86666 0.7873 0.77801 0.0
H221 H 0.78184 0.73216 0.8042 0.0
H222 H 0.65123 0.78622 0.81116 0.0
H223 H 0.70693 0.86745 0.78492 0.0
C224 C 0.80951 0.89491 0.7645 0.0
C225 C 0.86331 0.90485 0.75494 0.0
C226 C 0.77662 0.84704 0.77913 0.0
C227 C 0.88272 0.86477 0.75973 0.0
C228 C 0.85009 0.81686 0.77433 0.0
C229 C 0.76522 0.7613 0.79979 0.0
C230 C 0.71276 0.7534 0.81004 0.0
C231 C 0.79728 0.80794 0.78437 0.0
C232 C 0.69218 0.79194 0.80411 0.0
C233 C 0.72377 0.83825 0.78891 0.0
H234 H 0.07461 0.89574 0.0762 0.0
H235 H 0.95389 0.91359 0.12207 0.0
H236 H 0.95914 0.84607 0.14921 0.0
H237 H 0.99964 0.78419 0.16061 0.0
H238 H 0.11495 0.75967 0.11397 0.0
H239 H 0.11129 0.82852 0.08689 0.0
C240 C 0.0493 0.88458 0.09208 0.0
C241 C 0.01401 0.90982 0.09706 0.0
C242 C 0.05202 0.84501 0.10768 0.0
C243 C 0.9813 0.89475 0.11771 0.0
C244 C 0.98439 0.85622 0.13333 0.0
C245 C 0.02329 0.79291 0.14438 0.0
C246 C 0.05765 0.76653 0.13954 0.0
C247 C 0.01975 0.83128 0.12856 0.0
C248 C 0.08899 0.77995 0.11853 0.0
C249 C 0.08651 0.81901 0.10285 0.0
H250 H 0.10435 0.91748 0.42658 0.0
H251 H 0.16118 0.1021 0.41891 0.0
H252 H 0.24571 0.12896 0.44498 0.0
H253 H 0.30122 0.09926 0.47124 0.0
H254 H 0.24288 0.91391 0.47778 0.0
H255 H 0.16064 0.88834 0.45117 0.0
C256 C 0.13513 0.96375 0.43049 0.0
C257 C 0.12596 0.00762 0.42083 0.0
C258 C 0.18314 0.97878 0.44555 0.0
C259 C 0.16695 0.06729 0.42606 0.0
C260 C 0.21523 0.08269 0.44105 0.0
C261 C 0.27078 0.05332 0.4667 0.0
C262 C 0.27797 0.00858 0.47685 0.0
C263 C 0.22346 0.03871 0.45109 0.0
C264 C 0.23779 0.94926 0.47078 0.0
C265 C 0.19093 0.93453 0.45537 0.0
H266 H 0.09778 0.22194 0.76454 0.0
H267 H 0.14975 0.08975 0.76007 0.0
H268 H 0.23347 0.14895 0.7865 0.0
H269 H 0.29021 0.23738 0.81176 0.0
H270 H 0.23907 0.37057 0.81405 0.0
H271 H 0.15611 0.31104 0.78797 0.0
C272 C 0.12725 0.20581 0.76932 0.0
C273 C 0.11707 0.15117 0.76043 0.0
C274 C 0.17525 0.24003 0.78435 0.0
C275 C 0.15642 0.13162 0.76664 0.0
C276 C 0.20425 0.16539 0.78181 0.0
C277 C 0.2613 0.25368 0.8064 0.0
C278 C 0.27066 0.30817 0.8153 0.0
C279 C 0.21392 0.21961 0.79088 0.0
C280 C 0.23228 0.32819 0.80815 0.0
C281 C 0.18499 0.29441 0.79299 0.0
H282 H 0.8947 0.98201 0.64236 0.0
H283 H 0.86756 0.06761 0.70156 0.0
H284 H 0.78972 0.07419 0.68045 0.0
H285 H 0.7311 0.05804 0.64462 0.0
H286 H 0.76397 0.98028 0.58437 0.0
H287 H 0.8379 0.96817 0.60623 0.0
C288 C 0.8713 1.00161 0.65065 0.0
C289 C 0.88639 0.02393 0.6735 0.0
C290 C 0.82796 0.00694 0.63813 0.0
C291 C 0.85661 0.05015 0.68397 0.0
C292 C 0.81215 0.05394 0.67191 0.0
C293 C 0.75454 0.03836 0.63642 0.0
C294 C 0.74241 0.01977 0.61309 0.0
C295 C 0.79779 0.03294 0.64892 0.0
C296 C 0.77301 0.99481 0.60237 0.0
C297 C 0.81505 0.98786 0.61485 0.0
H298 H 0.92763 0.92566 0.98681 0.0
H299 H 0.79619 0.88952 0.03891 0.0
H300 H 0.72229 0.80399 0.01622 0.0
H301 H 0.69441 0.7424 0.98101 0.0
H302 H 0.82289 0.78439 0.92678 0.0
H303 H 0.8989 0.86374 0.951 0.0
C304 C 0.88293 0.89838 0.9932 0.0
C305 C 0.86705 0.91294 0.01448 0.0
C306 C 0.84027 0.85055 0.97967 0.0
C307 C 0.80904 0.87844 0.02259 0.0
C308 C 0.76691 0.82983 0.0096 0.0
C309 C 0.73876 0.76922 0.97427 0.0
C310 C 0.75243 0.75727 0.95193 0.0
C311 C 0.78181 0.81603 0.98796 0.0
C312 C 0.8109 0.79179 0.94394 0.0
C313 C 0.85445 0.83761 0.95773 0.0
H314 H 0.06961 0.96872 0.31038 0.0
H315 H 0.96 0.84326 0.36177 0.0
H316 H 0.96188 0.76366 0.3398 0.0
H317 H 0.99457 0.72999 0.30596 0.0
H318 H 0.09738 0.85471 0.253 0.0
H319 H 0.09897 0.93434 0.27582 0.0
C320 C 0.04643 0.92398 0.31683 0.0
C321 C 0.01499 0.91185 0.33771 0.0
C322 C 0.04655 0.87832 0.30384 0.0
C323 C 0.9845 0.85363 0.34572 0.0
C324 C 0.98556 0.80815 0.33317 0.0
C325 C 0.01664 0.77434 0.29917 0.0
C326 C 0.04611 0.78598 0.27775 0.0
C327 C 0.01617 0.81994 0.31213 0.0
C328 C 0.07533 0.84426 0.2696 0.0
C329 C 0.07592 0.88995 0.28257 0.0
H330 H 0.17186 0.11025 0.66456 0.0
H331 H 0.09752 0.92613 0.68065 0.0
H332 H 0.1699 0.92043 0.65556 0.0
H333 H 0.25168 0.96676 0.62809 0.0
H334 H 0.33198 0.15345 0.6148 0.0
H335 H 0.25867 0.15842 0.63918 0.0
C336 C 0.17171 0.06895 0.66264 0.0
C337 C 0.12925 0.01863 0.67437 0.0
C338 C 0.21395 0.06618 0.64843 0.0
C339 C 0.12987 0.96556 0.67188 0.0
C340 C 0.17108 0.96221 0.65745 0.0
C341 C 0.25419 0.00896 0.63076 0.0
C342 C 0.29762 0.0595 0.61926 0.0
C343 C 0.21311 0.01217 0.64553 0.0
C344 C 0.29854 0.11326 0.62277 0.0
C345 C 0.2569 0.11643 0.63699 0.0
H346 H 0.13865 0.24593 0.02262 0.0
H347 H 0.12399 0.08581 0.99465 0.0
H348 H 0.20358 0.14344 0.96716 0.0
H349 H 0.27258 0.23926 0.94958 0.0
H350 H 0.29321 0.39948 0.98097 0.0
H351 H 0.21534 0.34171 0.00824 0.0
C352 C 0.15328 0.22377 0.0106 0.0
C353 C 0.12532 0.16187 0.01044 0.0
C354 C 0.19949 0.25712 0.99522 0.0
C355 C 0.14509 0.13354 0.99508 0.0
C356 C 0.1903 0.16646 0.9793 0.0
C357 C 0.26101 0.26186 0.96258 0.0
C358 C 0.28818 0.32406 0.96253 0.0
C359 C 0.2173 0.22834 0.97899 0.0
C360 C 0.27185 0.35184 0.9797 0.0
C361 C 0.22761 0.31882 0.99562 0.0
H362 H 0.09338 0.21803 0.34707 0.0
H363 H 0.91392 0.09251 0.32553 0.0
H364 H 0.91245 0.16573 0.3003 0.0
H365 H 0.96314 0.2641 0.28315 0.0
H366 H 0.14335 0.3894 0.30372 0.0
H367 H 0.14377 0.31757 0.33025 0.0
C368 C 0.05382 0.20697 0.33701 0.0
C369 C 0.00384 0.14993 0.33821 0.0
C370 C 0.05359 0.24907 0.32216 0.0
C371 C 0.95307 0.13605 0.3249 0.0
C372 C 0.95216 0.17788 0.31043 0.0
C373 C 1.00231 0.27589 0.29361 0.0
C374 C 0.05312 0.332 0.29142 0.0
C375 C 1.00232 0.23432 0.30874 0.0
C376 C 0.10385 0.34625 0.30486 0.0
C377 C 0.10402 0.30531 0.32014 0.0
loop_
_geom_bond_atom_site_label_1
_geom_bond_atom_site_label_2
_geom_bond_distance
_geom_bond_site_symmetry_2
_ccdc_geom_bond_type
Co0 O1 2.216 1_445 S
Co0 O2 2.091 1_545 S
Co0 O4 2.004 . S
Co0 O10 2.021 1_445 S
Co0 O12 2.137 . S
Co0 O13 2.244 1_455 S
O1 Co0 2.216 1_665 S
O1 C8 1.247 1_655 S
O2 Co0 2.091 1_565 S
O2 C8 1.261 . S
C3 O12 1.247 . S
C3 O13 1.272 1_455 S
O4 Co0 2.004 . S
O4 C9 1.259 . S
Co5 O6 2.061 1_655 S
Co5 O11 2.052 . S
Co5 O13 2.135 . S
O6 Co5 2.061 1_455 S
O6 C9 1.235 . S
C7 O10 1.238 . S
C7 O11 1.241 1_565 S
C8 O1 1.247 1_455 S
C8 O2 1.261 . S
C9 O4 1.259 . S
C9 O6 1.235 . S
O10 Co0 2.021 1_665 S
O10 C7 1.238 . S
O11 Co5 2.052 . S
O11 C7 1.241 1_545 S
O12 Co0 2.137 . S
O12 C3 1.247 . S
O13 Co0 2.244 1_655 S
O13 C3 1.272 1_655 S
O13 Co5 2.135 . S
Co14 O15 2.216 1_455 S
Co14 O16 2.091 . S
Co14 O18 2.004 . S
Co14 O24 2.021 1_455 S
Co14 O26 2.137 . S
Co14 O27 2.244 1_445 S
O15 Co14 2.216 1_655 S
O15 C22 1.247 1_655 S
O16 Co14 2.091 . S
O16 C22 1.261 . S
C17 O26 1.247 1_565 S
C17 O27 1.272 1_455 S
O18 Co14 2.004 . S
O18 C23 1.259 . S
Co19 O20 2.061 1_655 S
Co19 O25 2.052 . S
Co19 O27 2.135 . S
O20 Co19 2.061 1_455 S
O20 C23 1.235 1_565 S
C21 O24 1.238 . S
C21 O25 1.241 1_545 S
C22 O15 1.247 1_455 S
C22 O16 1.261 . S
C23 O18 1.259 . S
C23 O20 1.235 1_545 S
O24 Co14 2.021 1_655 S
O24 C21 1.238 . S
O25 Co19 2.052 . S
O25 C21 1.241 1_565 S
O26 Co14 2.137 . S
O26 C17 1.247 1_545 S
O27 Co14 2.244 1_665 S
O27 C17 1.272 1_655 S
O27 Co19 2.135 . S
Co28 O29 2.216 . S
Co28 O30 2.091 1_545 S
Co28 O32 2.004 1_445 S
Co28 O38 2.021 . S
Co28 O40 2.137 1_445 S
Co28 O41 2.244 1_455 S
O29 Co28 2.216 . S
O29 C36 1.247 . S
O30 Co28 2.091 1_565 S
O30 C36 1.261 1_565 S
C31 O40 1.247 1_545 S
C31 O41 1.272 . S
O32 Co28 2.004 1_665 S
O32 C37 1.259 . S
Co33 O34 2.061 1_545 S
Co33 O39 2.052 1_655 S
Co33 O41 2.135 . S
O34 Co33 2.061 1_565 S
O34 C37 1.235 . S
C35 O38 1.238 . S
C35 O39 1.241 . S
C36 O29 1.247 . S
C36 O30 1.261 1_545 S
C37 O32 1.259 . S
C37 O34 1.235 . S
O38 Co28 2.021 . S
O38 C35 1.238 . S
O39 Co33 2.052 1_455 S
O39 C35 1.241 . S
O40 Co28 2.137 1_665 S
O40 C31 1.247 1_565 S
O41 Co28 2.244 1_655 S
O41 C31 1.272 . S
O41 Co33 2.135 . S
H42 C61 0.949 . S
H43 C62 0.950 . S
H44 C64 0.950 . S
H45 C65 0.950 . S
H46 C67 0.950 . S
H47 C70 0.950 . S
H48 C71 0.950 . S
H49 C73 0.951 . S
H50 C74 0.949 . S
H51 C76 0.949 . S
H52 C77 0.950 . S
H53 C79 0.950 . S
H54 C80 0.950 . S
H55 C82 0.950 1_655 S
H56 C85 0.950 . S
H57 C86 0.950 . S
H58 C88 0.951 . S
H59 C89 0.949 . S
C60 C61 1.376 . S
C60 C65 1.386 1_455 S
C60 C66 1.483 . S
C61 H42 0.949 . S
C61 C60 1.376 . S
C61 C62 1.397 . S
C62 H43 0.950 . S
C62 C61 1.397 . S
C62 C63 1.391 . S
C63 C62 1.391 . S
C63 C64 1.405 1_455 S
C64 H44 0.950 . S
C64 C63 1.405 1_655 S
C64 C65 1.367 . S
C65 H45 0.950 . S
C65 C60 1.386 1_655 S
C65 C64 1.367 . S
C66 C60 1.483 . S
C66 C67 1.382 . S
C66 C68 1.403 . S
C67 H46 0.950 . S
C67 C66 1.382 . S
C67 C83 1.411 . S
C68 C66 1.403 . S
C68 C69 1.489 . S
C68 C82 1.411 . S
C69 C68 1.489 . S
C69 C70 1.383 . S
C69 C74 1.382 1_455 S
C70 H47 0.950 . S
C70 C69 1.383 . S
C70 C71 1.395 . S
C71 H48 0.950 . S
C71 C70 1.395 . S
C71 C72 1.288 . S
C72 C71 1.288 . S
C72 C73 1.392 1_455 S
C73 H49 0.951 . S
C73 C72 1.392 1_655 S
C73 C74 1.392 . S
C74 H50 0.949 . S
C74 C69 1.382 1_655 S
C74 C73 1.392 . S
C75 C76 1.376 1_455 S
C75 C80 1.386 . S
C75 C81 1.483 . S
C76 H51 0.949 . S
C76 C75 1.376 1_655 S
C76 C77 1.397 . S
C77 H52 0.950 . S
C77 C76 1.397 . S
C77 C78 1.391 1_655 S
C78 C77 1.391 1_455 S
C78 C79 1.405 . S
C79 H53 0.950 . S
C79 C78 1.405 . S
C79 C80 1.367 . S
C80 H54 0.950 . S
C80 C75 1.386 . S
C80 C79 1.367 . S
C81 C75 1.483 . S
C81 C82 1.382 . S
C81 C83 1.403 . S
C82 H55 0.950 1_455 S
C82 C68 1.411 . S
C82 C81 1.382 . S
C83 C67 1.411 . S
C83 C81 1.403 . S
C83 C84 1.489 . S
C84 C83 1.489 . S
C84 C85 1.383 1_455 S
C84 C89 1.382 . S
C85 H56 0.950 . S
C85 C84 1.383 1_655 S
C85 C86 1.395 . S
C86 H57 0.950 . S
C86 C85 1.395 . S
C86 C87 1.288 1_655 S
C87 C86 1.288 1_455 S
C87 C88 1.392 . S
C88 H58 0.951 . S
C88 C87 1.392 . S
C88 C89 1.392 . S
C89 H59 0.949 . S
C89 C84 1.382 . S
C89 C88 1.392 . S
H90 C109 0.949 . S
H91 C110 0.950 . S
H92 C112 0.950 . S
H93 C113 0.950 . S
H94 C115 0.950 . S
H95 C118 0.950 . S
H96 C119 0.950 . S
H97 C121 0.951 . S
H98 C122 0.949 . S
H99 C124 0.949 . S
H100 C125 0.950 . S
H101 C127 0.950 . S
H102 C128 0.950 . S
H103 C130 0.950 . S
H104 C133 0.950 . S
H105 C134 0.950 . S
H106 C136 0.951 . S
H107 C137 0.949 . S
C108 C109 1.376 . S
C108 C113 1.386 1_545 S
C108 C114 1.483 . S
C109 H90 0.949 . S
C109 C108 1.376 . S
C109 C110 1.397 . S
C110 H91 0.950 . S
C110 C109 1.397 . S
C110 C111 1.391 . S
C111 C110 1.391 . S
C111 C112 1.405 1_545 S
C112 H92 0.950 . S
C112 C111 1.405 1_565 S
C112 C113 1.367 . S
C113 H93 0.950 . S
C113 C108 1.386 1_565 S
C113 C112 1.367 . S
C114 C108 1.483 . S
C114 C115 1.382 . S
C114 C116 1.403 . S
C115 H94 0.950 . S
C115 C114 1.382 . S
C115 C131 1.411 . S
C116 C114 1.403 . S
C116 C117 1.489 . S
C116 C130 1.411 . S
C117 C116 1.489 . S
C117 C118 1.383 . S
C117 C122 1.382 1_545 S
C118 H95 0.950 . S
C118 C117 1.383 . S
C118 C119 1.395 . S
C119 H96 0.950 . S
C119 C118 1.395 . S
C119 C120 1.288 . S
C120 C119 1.288 . S
C120 C121 1.392 1_545 S
C121 H97 0.951 . S
C121 C120 1.392 1_565 S
C121 C122 1.392 . S
C122 H98 0.949 . S
C122 C117 1.382 1_565 S
C122 C121 1.392 . S
C123 C124 1.376 1_545 S
C123 C128 1.386 . S
C123 C129 1.483 . S
C124 H99 0.949 . S
C124 C123 1.376 1_565 S
C124 C125 1.397 . S
C125 H100 0.950 . S
C125 C124 1.397 . S
C125 C126 1.391 1_565 S
C126 C125 1.391 1_545 S
C126 C127 1.405 . S
C127 H101 0.950 . S
C127 C126 1.405 . S
C127 C128 1.367 . S
C128 H102 0.950 . S
C128 C123 1.386 . S
C128 C127 1.367 . S
C129 C123 1.483 . S
C129 C130 1.382 . S
C129 C131 1.403 . S
C130 H103 0.950 . S
C130 C116 1.411 . S
C130 C129 1.382 . S
C131 C115 1.411 . S
C131 C129 1.403 . S
C131 C132 1.489 . S
C132 C131 1.489 . S
C132 C133 1.383 1_545 S
C132 C137 1.382 . S
C133 H104 0.950 . S
C133 C132 1.383 1_565 S
C133 C134 1.395 . S
C134 H105 0.950 . S
C134 C133 1.395 . S
C134 C135 1.288 1_565 S
C135 C134 1.288 1_545 S
C135 C136 1.392 . S
C136 H106 0.951 . S
C136 C135 1.392 . S
C136 C137 1.392 . S
C137 H107 0.949 . S
C137 C132 1.382 . S
C137 C136 1.392 . S
H138 C157 0.949 . S
H139 C158 0.950 . S
H140 C160 0.950 . S
H141 C161 0.950 . S
H142 C163 0.950 . S
H143 C166 0.950 . S
H144 C167 0.950 . S
H145 C169 0.951 . S
H146 C170 0.949 . S
H147 C172 0.949 . S
H148 C173 0.950 . S
H149 C175 0.950 . S
H150 C176 0.950 . S
H151 C178 0.950 . S
H152 C181 0.950 . S
H153 C182 0.950 . S
H154 C184 0.951 . S
H155 C185 0.949 . S
C156 C157 1.376 . S
C156 C161 1.386 . S
C156 C162 1.483 . S
C157 H138 0.949 . S
C157 C156 1.376 . S
C157 C158 1.397 . S
C158 H139 0.950 . S
C158 C157 1.397 . S
C158 C159 1.391 . S
C159 C158 1.391 . S
C159 C160 1.405 . S
C160 H140 0.950 . S
C160 C159 1.405 . S
C160 C161 1.367 . S
C161 H141 0.950 . S
C161 C156 1.386 . S
C161 C160 1.367 . S
C162 C156 1.483 . S
C162 C163 1.382 . S
C162 C164 1.403 . S
C163 H142 0.950 . S
C163 C162 1.382 . S
C163 C179 1.411 . S
C164 C162 1.403 . S
C164 C165 1.489 . S
C164 C178 1.411 . S
C165 C164 1.489 . S
C165 C166 1.383 . S
C165 C170 1.382 . S
C166 H143 0.950 . S
C166 C165 1.383 . S
C166 C167 1.395 . S
C167 H144 0.950 . S
C167 C166 1.395 . S
C167 C168 1.288 . S
C168 C167 1.288 . S
C168 C169 1.392 . S
C169 H145 0.951 . S
C169 C168 1.392 . S
C169 C170 1.392 . S
C170 H146 0.949 . S
C170 C165 1.382 . S
C170 C169 1.392 . S
C171 C172 1.376 . S
C171 C176 1.386 . S
C171 C177 1.483 . S
C172 H147 0.949 . S
C172 C171 1.376 . S
C172 C173 1.397 . S
C173 H148 0.950 . S
C173 C172 1.397 . S
C173 C174 1.391 . S
C174 C173 1.391 . S
C174 C175 1.405 . S
C175 H149 0.950 . S
C175 C174 1.405 . S
C175 C176 1.367 . S
C176 H150 0.950 . S
C176 C171 1.386 . S
C176 C175 1.367 . S
C177 C171 1.483 . S
C177 C178 1.382 . S
C177 C179 1.403 . S
C178 H151 0.950 . S
C178 C164 1.411 . S
C178 C177 1.382 . S
C179 C163 1.411 . S
C179 C177 1.403 . S
C179 C180 1.489 . S
C180 C179 1.489 . S
C180 C181 1.383 . S
C180 C185 1.382 . S
C181 H152 0.950 . S
C181 C180 1.383 . S
C181 C182 1.395 . S
C182 H153 0.950 . S
C182 C181 1.395 . S
C182 C183 1.288 . S
C183 C182 1.288 . S
C183 C184 1.392 . S
C184 H154 0.951 . S
C184 C183 1.392 . S
C184 C185 1.392 . S
C185 H155 0.949 . S
C185 C180 1.382 . S
C185 C184 1.392 . S
H186 C192 0.930 . S
H187 C195 0.930 . S
H188 C196 0.930 . S
H189 C197 0.930 . S
H190 C200 0.930 . S
H191 C201 0.930 . S
C192 H186 0.930 . S
C192 C193 1.355 . S
C192 C194 1.415 . S
C193 C192 1.355 . S
C193 C195 1.419 1_455 S
C194 C192 1.415 . S
C194 C199 1.425 1_455 S
C194 C201 1.409 . S
C195 H187 0.930 . S
C195 C193 1.419 1_655 S
C195 C196 1.362 . S
C196 H188 0.930 . S
C196 C195 1.362 . S
C196 C199 1.409 . S
C197 H189 0.930 . S
C197 C198 1.355 1_655 S
C197 C199 1.415 . S
C198 C197 1.355 1_455 S
C198 C200 1.419 . S
C199 C194 1.425 1_655 S
C199 C196 1.409 . S
C199 C197 1.415 . S
C200 H190 0.930 . S
C200 C198 1.419 . S
C200 C201 1.362 . S
C201 H191 0.930 . S
C201 C194 1.409 . S
C201 C200 1.362 . S
H202 C208 0.930 1_565 S
H203 C211 0.930 . S
H204 C212 0.930 . S
H205 C213 0.930 . S
H206 C216 0.930 . S
H207 C217 0.930 . S
C208 H202 0.930 1_545 S
C208 C209 1.355 . S
C208 C210 1.415 . S
C209 C208 1.355 . S
C209 C211 1.419 . S
C210 C208 1.415 . S
C210 C215 1.425 . S
C210 C217 1.409 1_545 S
C211 H203 0.930 . S
C211 C209 1.419 . S
C211 C212 1.362 . S
C212 H204 0.930 . S
C212 C211 1.362 . S
C212 C215 1.409 . S
C213 H205 0.930 . S
C213 C214 1.355 . S
C213 C215 1.415 . S
C214 C213 1.355 . S
C214 C216 1.419 1_545 S
C215 C210 1.425 . S
C215 C212 1.409 . S
C215 C213 1.415 . S
C216 H206 0.930 . S
C216 C214 1.419 1_565 S
C216 C217 1.362 . S
C217 H207 0.930 . S
C217 C210 1.409 1_565 S
C217 C216 1.362 . S
H218 C224 0.930 . S
H219 C227 0.930 . S
H220 C228 0.930 . S
H221 C229 0.930 . S
H222 C232 0.930 . S
H223 C233 0.930 . S
C224 H218 0.930 . S
C224 C225 1.355 . S
C224 C226 1.415 . S
C225 C224 1.355 . S
C225 C227 1.419 . S
C226 C224 1.415 . S
C226 C231 1.425 . S
C226 C233 1.409 . S
C227 H219 0.930 . S
C227 C225 1.419 . S
C227 C228 1.362 . S
C228 H220 0.930 . S
C228 C227 1.362 . S
C228 C231 1.409 . S
C229 H221 0.930 . S
C229 C230 1.355 . S
C229 C231 1.415 . S
C230 C229 1.355 . S
C230 C232 1.419 . S
C231 C226 1.425 . S
C231 C228 1.409 . S
C231 C229 1.415 . S
C232 H222 0.930 . S
C232 C230 1.419 . S
C232 C233 1.362 . S
C233 H223 0.930 . S
C233 C226 1.409 . S
C233 C232 1.362 . S
H234 C240 0.930 1_655 S
H235 C243 0.930 . S
H236 C244 0.930 . S
H237 C245 0.930 . S
H238 C248 0.930 . S
H239 C249 0.930 . S
C240 H234 0.930 1_455 S
C240 C241 1.355 . S
C240 C242 1.415 . S
C241 C240 1.355 . S
C241 C243 1.419 . S
C242 C240 1.415 . S
C242 C247 1.425 . S
C242 C249 1.409 1_455 S
C243 H235 0.930 . S
C243 C241 1.419 . S
C243 C244 1.362 . S
C244 H236 0.930 . S
C244 C243 1.362 . S
C244 C247 1.409 . S
C245 H237 0.930 . S
C245 C246 1.355 . S
C245 C247 1.415 . S
C246 C245 1.355 . S
C246 C248 1.419 1_455 S
C247 C242 1.425 . S
C247 C244 1.409 . S
C247 C245 1.415 . S
C248 H238 0.930 . S
C248 C246 1.419 1_655 S
C248 C249 1.362 . S
C249 H239 0.930 . S
C249 C242 1.409 1_655 S
C249 C248 1.362 . S
H250 C256 0.930 . S
H251 C259 0.930 . S
H252 C260 0.930 . S
H253 C261 0.930 . S
H254 C264 0.930 . S
H255 C265 0.930 . S
C256 H250 0.930 . S
C256 C257 1.355 1_565 S
C256 C258 1.415 1_565 S
C257 C256 1.355 1_545 S
C257 C259 1.419 . S
C258 C256 1.415 1_545 S
C258 C263 1.425 . S
C258 C265 1.409 1_545 S
C259 H251 0.930 . S
C259 C257 1.419 . S
C259 C260 1.362 . S
C260 H252 0.930 . S
C260 C259 1.362 . S
C260 C263 1.409 . S
C261 H253 0.930 . S
C261 C262 1.355 . S
C261 C263 1.415 . S
C262 C261 1.355 . S
C262 C264 1.419 1_545 S
C263 C258 1.425 . S
C263 C260 1.409 . S
C263 C261 1.415 . S
C264 H254 0.930 . S
C264 C262 1.419 1_565 S
C264 C265 1.362 . S
C265 H255 0.930 . S
C265 C258 1.409 1_565 S
C265 C264 1.362 . S
H266 C272 0.930 . S
H267 C275 0.930 . S
H268 C276 0.930 . S
H269 C277 0.930 . S
H270 C280 0.930 . S
H271 C281 0.930 . S
C272 H266 0.930 . S
C272 C273 1.355 . S
C272 C274 1.415 . S
C273 C272 1.355 . S
C273 C275 1.419 . S
C274 C272 1.415 . S
C274 C279 1.425 . S
C274 C281 1.409 . S
C275 H267 0.930 . S
C275 C273 1.419 . S
C275 C276 1.362 . S
C276 H268 0.930 . S
C276 C275 1.362 . S
C276 C279 1.409 . S
C277 H269 0.930 . S
C277 C278 1.355 . S
C277 C279 1.415 . S
C278 C277 1.355 . S
C278 C280 1.419 . S
C279 C274 1.425 . S
C279 C276 1.409 . S
C279 C277 1.415 . S
C280 H270 0.930 . S
C280 C278 1.419 . S
C280 C281 1.362 . S
C281 H271 0.930 . S
C281 C274 1.409 . S
C281 C280 1.362 . S
H282 C288 0.930 . S
H283 C291 0.932 . S
H284 C292 0.930 . S
H285 C293 0.930 1_565 S
H286 C296 0.930 . S
H287 C297 0.930 . S
C288 H282 0.930 . S
C288 C289 1.355 . S
C288 C290 1.415 . S
C289 C288 1.355 . S
C289 C291 1.419 1_545 S
C290 C288 1.415 . S
C290 C295 1.425 . S
C290 C297 1.409 . S
C291 H283 0.932 . S
C291 C289 1.419 1_565 S
C291 C292 1.360 . S
C292 H284 0.930 . S
C292 C291 1.360 . S
C292 C295 1.409 1_565 S
C293 H285 0.930 1_545 S
C293 C294 1.355 . S
C293 C295 1.415 . S
C294 C293 1.355 . S
C294 C296 1.419 . S
C295 C290 1.425 . S
C295 C292 1.409 1_545 S
C295 C293 1.415 . S
C296 H286 0.930 . S
C296 C294 1.419 . S
C296 C297 1.362 . S
C297 H287 0.930 . S
C297 C290 1.409 . S
C297 C296 1.362 . S
H298 C304 0.930 . S
H299 C307 0.930 . S
H300 C308 0.931 . S
H301 C309 0.930 . S
H302 C312 0.930 . S
H303 C313 0.930 . S
C304 H298 0.930 . S
C304 C305 1.355 1_556 S
C304 C306 1.415 . S
C305 C304 1.355 1_554 S
C305 C307 1.419 . S
C306 C304 1.415 . S
C306 C311 1.425 . S
C306 C313 1.409 . S
C307 H299 0.930 . S
C307 C305 1.419 . S
C307 C308 1.362 1_554 S
C308 H300 0.931 . S
C308 C307 1.362 1_556 S
C308 C311 1.409 . S
C309 H301 0.930 . S
C309 C310 1.355 . S
C309 C311 1.415 . S
C310 C309 1.355 . S
C310 C312 1.419 . S
C311 C306 1.425 . S
C311 C308 1.409 . S
C311 C309 1.415 . S
C312 H302 0.930 . S
C312 C310 1.419 . S
C312 C313 1.362 . S
C313 H303 0.930 . S
C313 C306 1.409 . S
C313 C312 1.362 . S
H314 C320 0.933 . S
H315 C323 0.930 . S
H316 C324 0.930 . S
H317 C325 0.930 . S
H318 C328 0.930 . S
H319 C329 0.930 . S
C320 H314 0.933 . S
C320 C321 1.354 1_655 S
C320 C322 1.412 1_655 S
C321 C320 1.354 1_455 S
C321 C323 1.419 . S
C322 C320 1.412 1_455 S
C322 C327 1.425 . S
C322 C329 1.409 1_455 S
C323 H315 0.930 . S
C323 C321 1.419 . S
C323 C324 1.362 . S
C324 H316 0.930 . S
C324 C323 1.362 . S
C324 C327 1.409 . S
C325 H317 0.930 . S
C325 C326 1.355 . S
C325 C327 1.415 . S
C326 C325 1.355 . S
C326 C328 1.419 1_455 S
C327 C322 1.425 . S
C327 C324 1.409 . S
C327 C325 1.415 . S
C328 H318 0.930 . S
C328 C326 1.419 1_655 S
C328 C329 1.362 . S
C329 H319 0.930 . S
C329 C322 1.409 1_655 S
C329 C328 1.362 . S
H330 C336 0.930 . S
H331 C339 0.930 . S
H332 C340 0.930 . S
H333 C341 0.930 . S
H334 C344 0.930 . S
H335 C345 0.930 . S
C336 H330 0.930 . S
C336 C337 1.355 . S
C336 C338 1.415 . S
C337 C336 1.355 . S
C337 C339 1.419 1_545 S
C338 C336 1.415 . S
C338 C343 1.425 . S
C338 C345 1.409 . S
C339 H331 0.930 . S
C339 C337 1.419 1_565 S
C339 C340 1.362 . S
C340 H332 0.930 . S
C340 C339 1.362 . S
C340 C343 1.409 1_565 S
C341 H333 0.930 . S
C341 C342 1.355 1_565 S
C341 C343 1.415 1_565 S
C342 C341 1.355 1_545 S
C342 C344 1.419 . S
C343 C338 1.425 . S
C343 C340 1.409 1_545 S
C343 C341 1.415 1_545 S
C344 H334 0.930 . S
C344 C342 1.419 . S
C344 C345 1.362 . S
C345 H335 0.930 . S
C345 C338 1.409 . S
C345 C344 1.362 . S
H346 C352 0.951 . S
H347 C355 0.930 . S
H348 C356 0.930 . S
H349 C357 0.930 . S
H350 C360 0.930 . S
H351 C361 0.934 . S
C352 H346 0.951 . S
C352 C353 1.351 1_554 S
C352 C354 1.397 1_554 S
C353 C352 1.351 1_556 S
C353 C355 1.419 . S
C354 C352 1.397 1_556 S
C354 C359 1.425 . S
C354 C361 1.409 . S
C355 H347 0.930 . S
C355 C353 1.419 . S
C355 C356 1.362 . S
C356 H348 0.930 . S
C356 C355 1.362 . S
C356 C359 1.409 . S
C357 H349 0.930 . S
C357 C358 1.355 . S
C357 C359 1.415 . S
C358 C357 1.355 . S
C358 C360 1.419 . S
C359 C354 1.425 . S
C359 C356 1.409 . S
C359 C357 1.415 . S
C360 H350 0.930 . S
C360 C358 1.419 . S
C360 C361 1.362 . S
C361 H351 0.934 . S
C361 C354 1.409 . S
C361 C360 1.362 . S
H362 C368 0.930 . S
H363 C371 0.930 . S
H364 C372 0.930 . S
H365 C373 0.930 . S
H366 C376 0.930 . S
H367 C377 0.930 . S
C368 H362 0.930 . S
C368 C369 1.355 . S
C368 C370 1.415 . S
C369 C368 1.355 . S
C369 C371 1.419 . S
C370 C368 1.415 . S
C370 C375 1.425 . S
C370 C377 1.409 . S
C371 H363 0.930 . S
C371 C369 1.419 . S
C371 C372 1.362 . S
C372 H364 0.930 . S
C372 C371 1.362 . S
C372 C375 1.409 . S
C373 H365 0.930 . S
C373 C374 1.355 . S
C373 C375 1.415 . S
C374 C373 1.355 . S
C374 C376 1.419 . S
C375 C370 1.425 . S
C375 C372 1.409 . S
C375 C373 1.415 . S
C376 H366 0.930 . S
C376 C374 1.419 . S
C376 C377 1.362 . S
C377 H367 0.930 . S
C377 C370 1.409 . S
C377 C376 1.362 . S
C198 C63 1.501 . S
C193 C3 1.507 . S
C209 C21 1.532 . S
C214 C111 1.538 . S
C225 C37 1.508 . S
C230 C183 1.511 . S
C241 C8 1.510 . S
C246 C87 1.494 . S
C262 C135 1.523 . S
C257 C23 1.520 . S
C273 C35 1.511 . S
C278 C159 1.526 . S
C294 C120 1.501 . S
C289 C31 1.496 . S
C305 C7 1.482 . S
C310 C174 1.522 . S
C326 C78 1.505 . S
C321 C17 1.506 . S
C342 C126 1.491 . S
C337 C36 1.487 . S
C358 C168 1.519 . S
C353 C9 1.481 1_556 S
C369 C22 1.511 . S
C374 C72 1.504 . S
