# Generated by pormake.
# Topology pyr, (3,6)-cn, num edge types: 1
# Building blocks:
#     Node 0, Type 0, BuildingBlock: VETTIZ_charged_linker_0, # of connection points: 3
#     Node 1, Type 0, BuildingBlock: VETTIZ_charged_linker_0, # of connection points: 3
#     Node 2, Type 0, BuildingBlock: VETTIZ_charged_linker_0, # of connection points: 3
#     Node 3, Type 0, BuildingBlock: VETTIZ_charged_linker_0, # of connection points: 3
#     Node 4, Type 0, BuildingBlock: VETTIZ_charged_linker_0, # of connection points: 3
#     Node 5, Type 0, BuildingBlock: VETTIZ_charged_linker_0, # of connection points: 3
#     Node 6, Type 0, BuildingBlock: VETTIZ_charged_linker_0, # of connection points: 3
#     Node 7, Type 0, BuildingBlock: VETTIZ_charged_linker_0, # of connection points: 3
#     Node 8, Type 1, BuildingBlock: MIFKUJ_clean_sbu_0, # of connection points: 6
#     Node 9, Type 1, BuildingBlock: MIFKUJ_clean_sbu_0, # of connection points: 6
#     Node 10, Type 1, BuildingBlock: MIFKUJ_clean_sbu_0, # of connection points: 6
#     Node 11, Type 1, BuildingBlock: MIFKUJ_clean_sbu_0, # of connection points: 6
#     Edge 12, Type (0, 1), BuildingBlock: AJUNOK_clean_linker_0, # of connection points: 2
#     Edge 13, Type (0, 1), BuildingBlock: AJUNOK_clean_linker_0, # of connection points: 2
#     Edge 14, Type (0, 1), BuildingBlock: AJUNOK_clean_linker_0, # of connection points: 2
#     Edge 15, Type (0, 1), BuildingBlock: AJUNOK_clean_linker_0, # of connection points: 2
#     Edge 16, Type (0, 1), BuildingBlock: AJUNOK_clean_linker_0, # of connection points: 2
#     Edge 17, Type (0, 1), BuildingBlock: AJUNOK_clean_linker_0, # of connection points: 2
#     Edge 18, Type (0, 1), BuildingBlock: AJUNOK_clean_linker_0, # of connection points: 2
#     Edge 19, Type (0, 1), BuildingBlock: AJUNOK_clean_linker_0, # of connection points: 2
#     Edge 20, Type (0, 1), BuildingBlock: AJUNOK_clean_linker_0, # of connection points: 2
#     Edge 21, Type (0, 1), BuildingBlock: AJUNOK_clean_linker_0, # of connection points: 2
#     Edge 22, Type (0, 1), BuildingBlock: AJUNOK_clean_linker_0, # of connection points: 2
#     Edge 23, Type (0, 1), BuildingBlock: AJUNOK_clean_linker_0, # of connection points: 2
#     Edge 24, Type (0, 1), BuildingBlock: AJUNOK_clean_linker_0, # of connection points: 2
#     Edge 25, Type (0, 1), BuildingBlock: AJUNOK_clean_linker_0, # of connection points: 2
#     Edge 26, Type (0, 1), BuildingBlock: AJUNOK_clean_linker_0, # of connection points: 2
#     Edge 27, Type (0, 1), BuildingBlock: AJUNOK_clean_linker_0, # of connection points: 2
#     Edge 28, Type (0, 1), BuildingBlock: AJUNOK_clean_linker_0, # of connection points: 2
#     Edge 29, Type (0, 1), BuildingBlock: AJUNOK_clean_linker_0, # of connection points: 2
#     Edge 30, Type (0, 1), BuildingBlock: AJUNOK_clean_linker_0, # of connection points: 2
#     Edge 31, Type (0, 1), BuildingBlock: AJUNOK_clean_linker_0, # of connection points: 2
#     Edge 32, Type (0, 1), BuildingBlock: AJUNOK_clean_linker_0, # of connection points: 2
#     Edge 33, Type (0, 1), BuildingBlock: AJUNOK_clean_linker_0, # of connection points: 2
#     Edge 34, Type (0, 1), BuildingBlock: AJUNOK_clean_linker_0, # of connection points: 2
#     Edge 35, Type (0, 1), BuildingBlock: AJUNOK_clean_linker_0, # of connection points: 2
# Relax obj value: 0.030
# Max RMSD: 0.082
# Mean RMSD: 0.049
data_MOF--net-pyr--node1-MIFKUJ_clean_sbu_0--node2-VETTIZ_charged_linker_0--edge1-AJUNOK_clean_linker_0
_symmetry_space_group_name_H-M    P1
_symmetry_Int_Tables_number       1
_symmetry_cell_setting            triclinic
loop_
_symmetry_equiv_pos_as_xyz
'x, y, z'
_cell_length_a     37.962749
_cell_length_b     34.408905
_cell_length_c     36.289529
_cell_angle_alpha  85.610066
_cell_angle_beta   88.026959
_cell_angle_gamma 96.022274
loop_
_atom_site_label
_atom_site_type_symbol
_atom_site_fract_x
_atom_site_fract_y
_atom_site_fract_z
_atom_type_partial_charge
C0 C 0.15614 0.10802 0.32004 0.0
C1 C 0.12475 0.12029 0.33451 0.0
C2 C 0.11206 0.15435 0.31843 0.0
C3 C 0.15994 0.16142 0.27189 0.0
C4 C 0.17317 0.12886 0.28861 0.0
C5 C 0.20507 0.11797 0.2676 0.0
H6 H 0.30621 0.13728 0.10934 0.0
C7 C 0.18135 0.17376 0.23754 0.0
C8 C 0.20783 0.14848 0.23478 0.0
H9 H 0.31749 0.06177 0.2082 0.0
H10 H 0.27014 0.08975 0.23914 0.0
H11 H 0.30091 0.21362 0.1543 0.0
H12 H 0.22164 0.13263 0.11097 0.0
H13 H 0.20985 0.18024 0.10083 0.0
H14 H 0.25114 0.16721 0.08198 0.0
H15 H 0.29235 0.21503 0.10593 0.0
H16 H 0.26772 0.24124 0.13748 0.0
C17 C 0.23751 0.12306 0.29228 0.0
C18 C 0.19627 0.07584 0.25577 0.0
C19 C 0.14642 0.28523 0.15162 0.0
C20 C 0.15912 0.30125 0.11632 0.0
C21 C 0.18714 0.28506 0.0986 0.0
C22 C 0.20266 0.25378 0.11606 0.0
C23 C 0.18984 0.23827 0.15152 0.0
C24 C 0.16207 0.2539 0.1686 0.0
C25 C 0.1511 0.23291 0.20568 0.0
C26 C 0.17753 0.2028 0.2085 0.0
C27 C 0.20008 0.20602 0.17672 0.0
C28 C 0.15658 0.26266 0.23546 0.0
C29 C 0.11236 0.2137 0.2038 0.0
C30 C 0.29854 0.1268 0.13768 0.0
C31 C 0.31479 0.09627 0.15587 0.0
C32 C 0.30441 0.08405 0.193 0.0
C33 C 0.27714 0.1006 0.21108 0.0
C34 C 0.26024 0.12995 0.192 0.0
C35 C 0.27171 0.1434 0.15633 0.0
C36 C 0.25235 0.17677 0.1414 0.0
C37 C 0.22674 0.18033 0.17369 0.0
C38 C 0.23108 0.15235 0.20294 0.0
C39 C 0.27955 0.21368 0.13405 0.0
C40 C 0.2328 0.16395 0.10681 0.0
H41 H 0.11833 0.20048 0.27596 0.0
H42 H 0.16614 0.08163 0.33176 0.0
H43 H 0.16923 0.0722 0.24475 0.0
H44 H 0.21424 0.06844 0.23351 0.0
H45 H 0.19703 0.05378 0.27966 0.0
H46 H 0.23414 0.14501 0.31274 0.0
H47 H 0.2416 0.09501 0.308 0.0
H48 H 0.2622 0.13452 0.27615 0.0
H49 H 0.12486 0.297 0.16587 0.0
H50 H 0.19681 0.29636 0.07101 0.0
H51 H 0.22386 0.24271 0.10116 0.0
H52 H 0.18167 0.28228 0.22943 0.0
H53 H 0.13451 0.28141 0.23626 0.0
H54 H 0.15918 0.24848 0.26344 0.0
H55 H 0.10564 0.20789 0.17498 0.0
H56 H 0.10771 0.18459 0.21937 0.0
H57 H 0.09305 0.23289 0.2141 0.0
H58 H 0.08796 0.16427 0.32944 0.0
C59 C 0.12963 0.17516 0.28735 0.0
C60 C 0.22943 0.88 0.62725 0.0
C61 C 0.2114 0.90768 0.64467 0.0
C62 C 0.22487 0.92246 0.67717 0.0
C63 C 0.27273 0.88101 0.67521 0.0
C64 C 0.25976 0.86697 0.64304 0.0
C65 C 0.2813 0.83662 0.62872 0.0
H66 H 0.41393 0.72098 0.65175 0.0
C67 C 0.30412 0.8607 0.68483 0.0
C68 C 0.3092 0.8346 0.65762 0.0
H69 H 0.34205 0.72622 0.56213 0.0
H70 H 0.31491 0.77833 0.58902 0.0
H71 H 0.4309 0.81413 0.65232 0.0
H72 H 0.35761 0.72977 0.71689 0.0
H73 H 0.37669 0.76239 0.7474 0.0
H74 H 0.40465 0.73342 0.72221 0.0
H75 H 0.44491 0.78253 0.68934 0.0
H76 H 0.43 0.82945 0.6973 0.0
C77 C 0.29776 0.85247 0.59011 0.0
C78 C 0.25682 0.79759 0.62897 0.0
C79 C 0.37138 0.8908 0.80062 0.0
C80 C 0.40098 0.8757 0.81648 0.0
C81 C 0.41687 0.84628 0.79908 0.0
C82 C 0.40378 0.83219 0.7665 0.0
C83 C 0.37429 0.84749 0.75091 0.0
C84 C 0.35852 0.87628 0.76789 0.0
C85 C 0.32721 0.88866 0.74723 0.0
C86 C 0.32722 0.86296 0.71489 0.0
C87 C 0.35485 0.83887 0.71736 0.0
C88 C 0.33506 0.93274 0.73428 0.0
C89 C 0.29357 0.87843 0.77294 0.0
C90 C 0.3925 0.73358 0.63783 0.0
C91 C 0.37962 0.71888 0.6052 0.0
C92 C 0.35181 0.73627 0.58783 0.0
C93 C 0.3362 0.7667 0.6034 0.0
C94 C 0.34856 0.7802 0.6367 0.0
C95 C 0.37664 0.76411 0.65301 0.0
C96 C 0.38677 0.78278 0.68782 0.0
C97 C 0.35978 0.81225 0.69002 0.0
C98 C 0.33731 0.81042 0.66015 0.0
C99 C 0.42519 0.80313 0.68178 0.0
C100 C 0.38149 0.75061 0.72044 0.0
H101 H 0.26418 0.92161 0.71731 0.0
H102 H 0.21968 0.86808 0.60229 0.0
H103 H 0.23862 0.79339 0.65399 0.0
H104 H 0.27144 0.7715 0.6302 0.0
H105 H 0.24026 0.79734 0.60433 0.0
H106 H 0.30382 0.88492 0.58837 0.0
H107 H 0.27935 0.8452 0.56789 0.0
H108 H 0.32347 0.84146 0.58396 0.0
H109 H 0.35831 0.91306 0.81358 0.0
H110 H 0.43984 0.83442 0.81054 0.0
H111 H 0.41721 0.80988 0.75473 0.0
H112 H 0.36338 0.93996 0.72494 0.0
H113 H 0.32969 0.95133 0.7571 0.0
H114 H 0.31983 0.94154 0.71025 0.0
H115 H 0.29506 0.85058 0.79026 0.0
H116 H 0.26912 0.8733 0.75762 0.0
H117 H 0.29042 0.90181 0.7919 0.0
H118 H 0.21179 0.94434 0.69072 0.0
C119 C 0.25538 0.90933 0.69249 0.0
C120 C 0.60697 0.21752 0.88468 0.0
C121 C 0.57524 0.19772 0.87391 0.0
C122 C 0.55821 0.21358 0.8432 0.0
C123 C 0.60429 0.26846 0.83501 0.0
C124 C 0.62089 0.25261 0.86504 0.0
C125 C 0.6542 0.27723 0.87343 0.0
H126 H 0.76863 0.44058 0.83678 0.0
C127 C 0.62573 0.30546 0.82109 0.0
C128 C 0.65493 0.31067 0.84359 0.0
H129 H 0.77345 0.34559 0.92103 0.0
H130 H 0.71977 0.31237 0.90025 0.0
H131 H 0.68371 0.4449 0.84449 0.0
H132 H 0.74717 0.38413 0.77189 0.0
H133 H 0.71405 0.40338 0.74569 0.0
H134 H 0.74633 0.43631 0.76644 0.0
H135 H 0.71254 0.47005 0.80802 0.0
H136 H 0.66779 0.45074 0.79968 0.0
C137 C 0.64922 0.29123 0.91272 0.0
C138 C 0.68581 0.25264 0.8685 0.0
C139 C 0.58727 0.38674 0.7096 0.0
C140 C 0.6016 0.42229 0.69049 0.0
C141 C 0.63296 0.44194 0.70279 0.0
C142 C 0.64973 0.42648 0.73364 0.0
C143 C 0.63509 0.39087 0.75242 0.0
C144 C 0.60431 0.37167 0.74033 0.0
C145 C 0.59254 0.33416 0.7636 0.0
C146 C 0.62146 0.3338 0.79143 0.0
C147 C 0.64635 0.3671 0.7848 0.0
C148 C 0.55586 0.33805 0.78219 0.0
C149 C 0.59289 0.29971 0.73854 0.0
C150 C 0.75803 0.41259 0.85066 0.0
C151 C 0.77488 0.39607 0.88113 0.0
C152 C 0.76044 0.35948 0.89825 0.0
C153 C 0.72937 0.34005 0.88589 0.0
C154 C 0.7125 0.35714 0.85584 0.0
C155 C 0.72695 0.39266 0.83851 0.0
C156 C 0.70562 0.40575 0.80644 0.0
C157 C 0.67583 0.3724 0.80775 0.0
C158 C 0.68007 0.34418 0.83683 0.0
C159 C 0.69175 0.44506 0.8147 0.0
C160 C 0.72937 0.40787 0.77061 0.0
H161 H 0.55842 0.25945 0.80055 0.0
H162 H 0.62055 0.20616 0.90829 0.0
H163 H 0.68085 0.23182 0.84677 0.0
H164 H 0.71068 0.27074 0.85888 0.0
H165 H 0.69037 0.23514 0.89456 0.0
H166 H 0.62137 0.29729 0.91815 0.0
H167 H 0.6554 0.26859 0.93432 0.0
H168 H 0.66536 0.3191 0.91661 0.0
H169 H 0.56314 0.37102 0.70088 0.0
H170 H 0.64488 0.46899 0.68813 0.0
H171 H 0.67356 0.44276 0.74154 0.0
H172 H 0.55413 0.36854 0.78979 0.0
H173 H 0.53416 0.33079 0.76328 0.0
H174 H 0.55069 0.31959 0.80845 0.0
H175 H 0.61586 0.30477 0.71823 0.0
H176 H 0.59602 0.27151 0.75405 0.0
H177 H 0.56837 0.29639 0.72271 0.0
H178 H 0.53398 0.19848 0.83406 0.0
C179 C 0.57256 0.24885 0.8237 0.0
C180 C 0.90031 0.7402 0.3537 0.0
C181 C 0.88546 0.75418 0.38562 0.0
C182 C 0.85732 0.73103 0.40561 0.0
C183 C 0.85515 0.68425 0.35919 0.0
C184 C 0.88472 0.70495 0.34104 0.0
C185 C 0.89599 0.68539 0.30729 0.0
H186 H 0.86225 0.54046 0.19145 0.0
C187 C 0.84266 0.65164 0.33719 0.0
C188 C 0.86659 0.65162 0.30688 0.0
H189 H 0.95517 0.6246 0.19093 0.0
H190 H 0.93005 0.65385 0.24292 0.0
H191 H 0.85238 0.52169 0.28157 0.0
H192 H 0.80661 0.60191 0.20469 0.0
H193 H 0.77418 0.58645 0.23989 0.0
H194 H 0.79002 0.55098 0.21087 0.0
H195 H 0.82407 0.50653 0.24544 0.0
H196 H 0.80586 0.51727 0.28934 0.0
C197 C 0.9326 0.67066 0.31412 0.0
C198 C 0.89572 0.71483 0.27293 0.0
C199 C 0.72404 0.57392 0.37364 0.0
C200 C 0.70187 0.54628 0.35619 0.0
C201 C 0.71364 0.53435 0.32185 0.0
C202 C 0.74709 0.549 0.3058 0.0
C203 C 0.76888 0.57652 0.3238 0.0
C204 C 0.75686 0.58895 0.35682 0.0
C205 C 0.78181 0.62093 0.37046 0.0
C206 C 0.81119 0.62526 0.34055 0.0
C207 C 0.80385 0.5988 0.31355 0.0
C208 C 0.79491 0.60589 0.40844 0.0
C209 C 0.76196 0.65813 0.37119 0.0
C210 C 0.8771 0.56522 0.20255 0.0
C211 C 0.91102 0.57974 0.18753 0.0
C212 C 0.92941 0.61223 0.2026 0.0
C213 C 0.91477 0.62924 0.23271 0.0
C214 C 0.88129 0.61372 0.24807 0.0
C215 C 0.86292 0.58237 0.23284 0.0
C216 C 0.82766 0.56977 0.25284 0.0
C217 C 0.82877 0.59735 0.28364 0.0
C218 C 0.86008 0.62343 0.28045 0.0
C219 C 0.82715 0.52646 0.26807 0.0
C220 C 0.79791 0.57731 0.22582 0.0
H221 H 0.82007 0.68081 0.40863 0.0
H222 H 0.92249 0.75702 0.33828 0.0
H223 H 0.87102 0.7296 0.27331 0.0
H224 H 0.89633 0.70069 0.24667 0.0
H225 H 0.9186 0.73785 0.27234 0.0
H226 H 0.93638 0.66418 0.34415 0.0
H227 H 0.95457 0.69291 0.30328 0.0
H228 H 0.93554 0.64269 0.30182 0.0
H229 H 0.71599 0.58401 0.39987 0.0
H230 H 0.69676 0.51423 0.30693 0.0
H231 H 0.75454 0.53869 0.27979 0.0
H232 H 0.79628 0.57365 0.41002 0.0
H233 H 0.77683 0.61201 0.4315 0.0
H234 H 0.8222 0.61848 0.41341 0.0
H235 H 0.74336 0.65977 0.34821 0.0
H236 H 0.77967 0.68576 0.36693 0.0
H237 H 0.74615 0.65806 0.39752 0.0
H238 H 0.84629 0.74056 0.43092 0.0
C239 C 0.8421 0.69632 0.39259 0.0
C240 C 0.84776 0.71951 0.88185 0.0
C241 C 0.88139 0.70787 0.87363 0.0
C242 C 0.90086 0.7252 0.84172 0.0
C243 C 0.85379 0.76552 0.82738 0.0
C244 C 0.83473 0.74856 0.85866 0.0
C245 C 0.80037 0.76584 0.8645 0.0
H246 H 0.69466 0.90539 0.81465 0.0
C247 C 0.83308 0.79515 0.80963 0.0
C248 C 0.80185 0.79569 0.83128 0.0
H249 H 0.68033 0.81878 0.90821 0.0
H250 H 0.73204 0.78988 0.88761 0.0
H251 H 0.7142 0.84344 0.75507 0.0
H252 H 0.77774 0.92405 0.81738 0.0
H253 H 0.79561 0.92823 0.7717 0.0
H254 H 0.75108 0.93977 0.7803 0.0
H255 H 0.7196 0.89524 0.74251 0.0
H256 H 0.75068 0.86344 0.72615 0.0
C257 C 0.76949 0.7329 0.86278 0.0
C258 C 0.8018 0.78548 0.90156 0.0
C259 C 0.88269 0.87419 0.69251 0.0
C260 C 0.87062 0.90478 0.67025 0.0
C261 C 0.83743 0.9174 0.67889 0.0
C262 C 0.81682 0.90013 0.70987 0.0
C263 C 0.82968 0.87009 0.73241 0.0
C264 C 0.86193 0.85736 0.72325 0.0
C265 C 0.87169 0.82543 0.75027 0.0
C266 C 0.83991 0.82092 0.77723 0.0
C267 C 0.81549 0.84723 0.76682 0.0
C268 C 0.87423 0.78816 0.72933 0.0
C269 C 0.90635 0.84062 0.76851 0.0
C270 C 0.70228 0.87973 0.83027 0.0
C271 C 0.6835 0.86432 0.8631 0.0
C272 C 0.69465 0.83134 0.88302 0.0
C273 C 0.72467 0.81466 0.87103 0.0
C274 C 0.74393 0.83128 0.8389 0.0
C275 C 0.7322 0.86271 0.81864 0.0
C276 C 0.75584 0.87622 0.785 0.0
C277 C 0.78427 0.84852 0.78912 0.0
C278 C 0.77727 0.82249 0.82088 0.0
C279 C 0.73413 0.86962 0.75021 0.0
C280 C 0.77083 0.9194 0.78837 0.0
H281 H 0.90337 0.7659 0.79473 0.0
H282 H 0.83176 0.70617 0.90568 0.0
H283 H 0.82918 0.79861 0.90625 0.0
H284 H 0.78552 0.81017 0.90229 0.0
H285 H 0.79348 0.76381 0.92534 0.0
H286 H 0.77572 0.71229 0.8419 0.0
H287 H 0.76443 0.7156 0.88991 0.0
H288 H 0.74463 0.74411 0.85394 0.0
H289 H 0.90806 0.86382 0.68634 0.0
H290 H 0.82787 0.94129 0.66225 0.0
H291 H 0.79199 0.91129 0.71543 0.0
H292 H 0.85303 0.78504 0.70899 0.0
H293 H 0.90015 0.78952 0.71386 0.0
H294 H 0.8703 0.76081 0.74766 0.0
H295 H 0.90872 0.87303 0.76956 0.0
H296 H 0.90733 0.82913 0.79771 0.0
H297 H 0.93013 0.83337 0.75285 0.0
H298 H 0.92687 0.71683 0.83487 0.0
C299 C 0.88721 0.75382 0.81852 0.0
C300 C 0.77316 0.117 0.38292 0.0
C301 C 0.7913 0.08882 0.36639 0.0
C302 C 0.77887 0.0743 0.33337 0.0
C303 C 0.73075 0.11552 0.33414 0.0
C304 C 0.74303 0.12972 0.36652 0.0
C305 C 0.72028 0.15885 0.38108 0.0
H306 H 0.58328 0.26826 0.359 0.0
C307 C 0.69888 0.13489 0.32435 0.0
C308 C 0.69263 0.16027 0.35188 0.0
H309 H 0.65285 0.26216 0.45072 0.0
H310 H 0.68346 0.21373 0.42199 0.0
H311 H 0.56976 0.1755 0.35563 0.0
H312 H 0.64162 0.26408 0.29435 0.0
H313 H 0.62428 0.23179 0.26262 0.0
H314 H 0.59472 0.25876 0.28806 0.0
H315 H 0.55537 0.20756 0.3192 0.0
H316 H 0.57202 0.1618 0.31013 0.0
C317 C 0.7038 0.14192 0.41942 0.0
C318 C 0.74353 0.19857 0.38157 0.0
C319 C 0.63357 0.10382 0.20766 0.0
C320 C 0.60372 0.11812 0.19161 0.0
C321 C 0.58708 0.14712 0.20885 0.0
C322 C 0.59958 0.16145 0.24156 0.0
C323 C 0.62918 0.14676 0.25749 0.0
C324 C 0.64583 0.11857 0.24052 0.0
C325 C 0.67722 0.10692 0.26147 0.0
C326 C 0.67621 0.13229 0.29398 0.0
C327 C 0.64795 0.15553 0.2914 0.0
C328 C 0.67023 0.06268 0.27407 0.0
C329 C 0.711 0.11822 0.23618 0.0
C330 C 0.60467 0.25602 0.37328 0.0
C331 C 0.61551 0.26915 0.40733 0.0
C332 C 0.64412 0.25293 0.42434 0.0
C333 C 0.66182 0.22464 0.40767 0.0
C334 C 0.65084 0.21208 0.37355 0.0
C335 C 0.62239 0.22734 0.35719 0.0
C336 C 0.61362 0.20946 0.32162 0.0
C337 C 0.64176 0.18131 0.31914 0.0
C338 C 0.66372 0.18331 0.34941 0.0
C339 C 0.57568 0.1876 0.32649 0.0
C340 C 0.61849 0.24255 0.28983 0.0
H341 H 0.74066 0.07529 0.29207 0.0
H342 H 0.78195 0.12846 0.40843 0.0
H343 H 0.761 0.20444 0.35606 0.0
H344 H 0.72794 0.22384 0.38205 0.0
H345 H 0.7608 0.19851 0.40567 0.0
H346 H 0.70026 0.1093 0.42144 0.0
H347 H 0.72093 0.15112 0.4421 0.0
H348 H 0.67686 0.15032 0.42468 0.0
H349 H 0.64725 0.08195 0.1948 0.0
H350 H 0.56393 0.15841 0.1972 0.0
H351 H 0.58557 0.18339 0.25324 0.0
H352 H 0.64186 0.05457 0.2828 0.0
H353 H 0.6766 0.04447 0.25126 0.0
H354 H 0.68518 0.0542 0.29842 0.0
H355 H 0.70922 0.14629 0.21931 0.0
H356 H 0.73525 0.12344 0.25181 0.0
H357 H 0.71471 0.09536 0.2168 0.0
H358 H 0.79271 0.05295 0.31988 0.0
C359 C 0.74876 0.08747 0.31718 0.0
C360 C 0.41779 0.60797 0.29997 0.0
C361 C 0.40256 0.5729 0.31929 0.0
C362 C 0.37221 0.55263 0.30558 0.0
C363 C 0.3717 0.60328 0.25521 0.0
C364 C 0.402 0.62259 0.26821 0.0
C365 C 0.41463 0.65978 0.24482 0.0
H366 H 0.39072 0.78638 0.09752 0.0
C367 C 0.36153 0.62679 0.22214 0.0
C368 C 0.38673 0.6599 0.21586 0.0
H369 H 0.475 0.79536 0.17445 0.0
H370 H 0.45009 0.73436 0.20774 0.0
H371 H 0.32946 0.762 0.15741 0.0
H372 H 0.39029 0.69555 0.08844 0.0
H373 H 0.34651 0.67319 0.08946 0.0
H374 H 0.35624 0.72357 0.07117 0.0
H375 H 0.32085 0.75789 0.10951 0.0
H376 H 0.29974 0.723 0.14533 0.0
C377 C 0.41352 0.69462 0.2693 0.0
C378 C 0.45183 0.65551 0.22773 0.0
C379 C 0.24973 0.58359 0.15536 0.0
C380 C 0.23377 0.60028 0.12435 0.0
C381 C 0.24972 0.63578 0.10636 0.0
C382 C 0.28125 0.6542 0.11864 0.0
C383 C 0.29704 0.63718 0.14949 0.0
C384 C 0.28133 0.60249 0.16739 0.0
C385 C 0.30197 0.58915 0.19992 0.0
C386 C 0.33253 0.62165 0.19852 0.0
C387 C 0.32934 0.64956 0.1689 0.0
C388 C 0.27794 0.58834 0.23539 0.0
C389 C 0.31483 0.5491 0.19252 0.0
C390 C 0.40374 0.77533 0.12166 0.0
C391 C 0.43491 0.79553 0.13327 0.0
C392 C 0.45121 0.77998 0.16465 0.0
C393 C 0.43658 0.7447 0.18402 0.0
C394 C 0.40529 0.72483 0.17194 0.0
C395 C 0.38951 0.74038 0.14122 0.0
C396 C 0.3564 0.71585 0.1322 0.0
C397 C 0.35487 0.68272 0.16239 0.0
C398 C 0.38345 0.68798 0.18568 0.0
C399 C 0.32485 0.74078 0.13596 0.0
C400 C 0.36227 0.70135 0.09323 0.0
H401 H 0.33337 0.55111 0.26489 0.0
H402 H 0.44154 0.62379 0.30943 0.0
H403 H 0.45362 0.62497 0.22031 0.0
H404 H 0.45806 0.67398 0.20163 0.0
H405 H 0.47281 0.66252 0.24752 0.0
H406 H 0.38976 0.69007 0.2886 0.0
H407 H 0.43733 0.69786 0.28621 0.0
H408 H 0.41127 0.72272 0.2532 0.0
H409 H 0.23799 0.55633 0.16977 0.0
H410 H 0.23749 0.64967 0.08301 0.0
H411 H 0.29194 0.68115 0.10367 0.0
H412 H 0.26209 0.61381 0.23412 0.0
H413 H 0.2591 0.56122 0.23877 0.0
H414 H 0.29302 0.59078 0.26071 0.0
H415 H 0.3218 0.54788 0.16262 0.0
H416 H 0.33927 0.54364 0.20679 0.0
H417 H 0.29389 0.52462 0.20068 0.0
H418 H 0.36009 0.52553 0.32 0.0
C419 C 0.35667 0.56765 0.27371 0.0
C420 C 0.09959 0.23678 0.6703 0.0
C421 C 0.11419 0.21762 0.64142 0.0
C422 C 0.1486 0.23111 0.62699 0.0
C423 C 0.15279 0.28289 0.66872 0.0
C424 C 0.11932 0.26931 0.68345 0.0
C425 C 0.10804 0.29327 0.71398 0.0
H426 H 0.144 0.44666 0.81885 0.0
C427 C 0.16617 0.31727 0.68818 0.0
C428 C 0.14018 0.32354 0.71486 0.0
H429 H 0.0502 0.36326 0.82382 0.0
H430 H 0.07486 0.32996 0.77455 0.0
H431 H 0.15262 0.45767 0.72951 0.0
H432 H 0.2006 0.38223 0.80917 0.0
H433 H 0.23352 0.40301 0.77604 0.0
H434 H 0.21156 0.43448 0.80468 0.0
H435 H 0.1856 0.47635 0.75981 0.0
H436 H 0.19766 0.45832 0.71627 0.0
C437 C 0.07458 0.31227 0.70197 0.0
C438 C 0.10266 0.26611 0.75026 0.0
C439 C 0.28667 0.38925 0.64883 0.0
C440 C 0.30655 0.42229 0.66082 0.0
C441 C 0.29253 0.44151 0.69011 0.0
C442 C 0.25926 0.42794 0.70716 0.0
C443 C 0.23964 0.39484 0.69476 0.0
C444 C 0.25357 0.37609 0.66611 0.0
C445 C 0.22928 0.34143 0.65642 0.0
C446 C 0.1983 0.34254 0.68371 0.0
C447 C 0.20437 0.37385 0.70617 0.0
C448 C 0.21873 0.34933 0.61583 0.0
C449 C 0.24843 0.3041 0.6639 0.0
C450 C 0.1289 0.42116 0.80929 0.0
C451 C 0.09487 0.40793 0.82486 0.0
C452 C 0.07608 0.37458 0.81172 0.0
C453 C 0.09057 0.3551 0.78325 0.0
C454 C 0.12437 0.36891 0.76761 0.0
C455 C 0.14303 0.40137 0.78069 0.0
C456 C 0.17856 0.41181 0.76056 0.0
C457 C 0.17814 0.38023 0.73341 0.0
C458 C 0.14627 0.35519 0.7377 0.0
C459 C 0.17901 0.45329 0.74058 0.0
C460 C 0.2078 0.40803 0.78891 0.0
H461 H 0.19384 0.27233 0.62802 0.0
H462 H 0.07331 0.22687 0.68217 0.0
H463 H 0.12217 0.24411 0.75127 0.0
H464 H 0.10714 0.28203 0.77526 0.0
H465 H 0.07572 0.24984 0.75257 0.0
H466 H 0.0764 0.32134 0.6718 0.0
H467 H 0.05029 0.29138 0.70757 0.0
H468 H 0.07114 0.3394 0.71542 0.0
H469 H 0.29678 0.37377 0.62652 0.0
H470 H 0.30709 0.46747 0.69943 0.0
H471 H 0.25001 0.44389 0.72919 0.0
H472 H 0.21565 0.38092 0.60942 0.0
H473 H 0.23927 0.34135 0.59608 0.0
H474 H 0.19285 0.33379 0.60998 0.0
H475 H 0.26662 0.30722 0.68715 0.0
H476 H 0.22996 0.27775 0.67269 0.0
H477 H 0.26454 0.29825 0.6392 0.0
H478 H 0.16089 0.21615 0.60556 0.0
C479 C 0.16787 0.2636 0.64034 0.0
Zn480 Zn 0.04478 0.01231 0.5351 0.0
Zn481 Zn 0.96323 0.97537 0.46081 0.0
C482 C 0.04873 0.07371 0.58697 0.0
O483 O 0.03086 0.04675 0.60993 0.0
C484 C 0.92658 0.90387 0.44514 0.0
O485 O 0.90216 0.92086 0.46243 0.0
O486 O 0.08488 0.98046 0.55077 0.0
O487 O 0.99865 0.98796 0.55921 0.0
O488 O 0.96041 0.97127 0.5167 0.0
C489 C 0.08468 0.9667 0.58439 0.0
O490 O 0.05747 0.97133 0.60632 0.0
O491 O 0.05657 0.06548 0.55432 0.0
C492 C 0.91815 0.03595 0.43216 0.0
O493 O 0.94597 0.06152 0.43498 0.0
O494 O 0.92014 5e-05 0.44214 0.0
O495 O 0.00653 0.00656 0.43635 0.0
O496 O 0.04367 0.0217 0.48004 0.0
O497 O 0.95807 0.92087 0.44228 0.0
C498 C 0.96817 0.97355 0.55035 0.0
C499 C 0.03591 0.0229 0.44626 0.0
Zn500 Zn 0.52891 0.97348 0.98102 0.0
Zn501 Zn 0.47946 0.01812 0.02526 0.0
C502 C 0.47692 0.92567 0.94417 0.0
O503 O 0.49136 0.89821 0.96366 0.0
C504 C 0.52919 0.06587 0.06388 0.0
O505 O 0.51458 0.0929 0.04397 0.0
O506 O 0.56805 0.9468 0.95907 0.0
O507 O 0.54516 0.03117 0.97401 0.0
O508 O 0.49064 0.04672 0.97492 0.0
C509 C 0.57199 0.94697 0.92415 0.0
O510 O 0.55108 0.96612 0.90304 0.0
O511 O 0.4872 0.96134 0.94858 0.0
C512 C 0.42552 0.02612 0.07853 0.0
O513 O 0.43794 0.99452 0.09323 0.0
O514 O 0.43926 0.04247 0.04808 0.0
O515 O 0.46405 0.96002 0.02995 0.0
O516 O 0.51905 0.94703 0.03236 0.0
O517 O 0.51977 0.03005 0.0593 0.0
C518 C 0.52287 0.05445 0.96381 0.0
C519 C 0.48664 0.93811 0.04212 0.0
Zn520 Zn 0.5141 0.46003 0.48322 0.0
Zn521 Zn 0.48399 0.52996 0.52913 0.0
C522 C 0.56381 0.48862 0.42603 0.0
O523 O 0.5421 0.46415 0.40927 0.0
C524 C 0.43996 0.48837 0.5856 0.0
O525 O 0.46337 0.50902 0.60408 0.0
O526 O 0.52278 0.40657 0.46663 0.0
O527 O 0.51783 0.45395 0.53903 0.0
O528 O 0.52926 0.51562 0.55117 0.0
C529 C 0.55352 0.39703 0.47366 0.0
O530 O 0.57433 0.42027 0.49265 0.0
O531 O 0.55653 0.49495 0.45942 0.0
C532 C 0.43913 0.58695 0.54359 0.0
O533 O 0.41937 0.56258 0.52472 0.0
O534 O 0.47107 0.58049 0.54881 0.0
O535 O 0.48238 0.53897 0.47383 0.0
O536 O 0.47018 0.47806 0.45964 0.0
O537 O 0.44385 0.49023 0.55049 0.0
C538 C 0.53202 0.47948 0.55911 0.0
C539 C 0.46787 0.51455 0.45294 0.0
Zn540 Zn 0.95893 0.50681 0.97612 0.0
Zn541 Zn 0.04949 0.48885 0.03311 0.0
C542 C 0.90614 0.4747 0.93097 0.0
O543 O 0.92749 0.49594 0.90618 0.0
C544 C 0.10005 0.52652 0.0763 0.0
O545 O 0.07981 0.50421 0.10131 0.0
O546 O 0.95313 0.55912 0.95041 0.0
O547 O 0.95836 0.51417 0.03099 0.0
O548 O 0.00711 0.50533 0.06099 0.0
C549 C 0.93152 0.58036 0.96422 0.0
O550 O 0.91524 0.56868 0.99629 0.0
O551 O 0.9144 0.47339 0.9647 0.0
C552 C 0.09371 0.43147 0.04643 0.0
O553 O 0.11109 0.4554 0.02046 0.0
O554 O 0.06289 0.43833 0.05722 0.0
O555 O 0.04906 0.47921 0.97896 0.0
O556 O 0.99976 0.48615 0.94944 0.0
O557 O 0.09142 0.52727 0.04269 0.0
C558 C 0.97539 0.51407 0.06056 0.0
C559 C 0.03141 0.47729 0.94993 0.0
C560 C 0.06788 0.08237 0.35709 0.0
C561 C 0.10318 0.09554 0.36372 0.0
C562 C 0.0467 0.05826 0.38369 0.0
C563 C 0.0599 0.04669 0.41815 0.0
H564 H 0.05662 0.09053 0.33094 0.0
H565 H 0.01956 0.04917 0.37727 0.0
S566 S 0.15099 0.07361 0.44883 0.0
N567 N 0.15077 0.09545 0.4067 0.0
N568 N 0.11091 0.05023 0.45724 0.0
C569 C 0.09534 0.05967 0.42507 0.0
C570 C 0.11702 0.084 0.3977 0.0
C571 C 0.42378 0.86288 0.87965 0.0
C572 C 0.41592 0.89006 0.85096 0.0
C573 C 0.44194 0.87497 0.91046 0.0
C574 C 0.45317 0.91481 0.91392 0.0
H575 H 0.41655 0.83179 0.87784 0.0
H576 H 0.44815 0.85264 0.93118 0.0
S577 S 0.43737 -0.00201 0.84723 0.0
N578 N 0.41932 0.95877 0.82858 0.0
N579 N 0.45327 0.98174 0.88661 0.0
C580 C 0.44404 0.94254 0.88619 0.0
C581 C 0.42546 0.93012 0.85472 0.0
C582 C 0.57471 0.41332 0.62928 0.0
C583 C 0.58434 0.43806 0.65719 0.0
C584 C 0.55815 0.42715 0.5977 0.0
C585 C 0.55044 0.46635 0.59266 0.0
H586 H 0.58027 0.38301 0.63171 0.0
H587 H 0.55142 0.40681 0.57704 0.0
S588 S 0.56884 0.54261 0.65866 0.0
N589 N 0.58403 0.50327 0.67849 0.0
N590 N 0.55311 0.52951 0.61906 0.0
C591 C 0.55991 0.49144 0.62047 0.0
C592 C 0.5768 0.47726 0.6527 0.0
C593 C 0.9082 0.554 0.12456 0.0
C594 C 0.9273 0.56107 0.15634 0.0
C595 C 0.92362 0.53793 0.09424 0.0
C596 C 0.95876 0.52797 0.09447 0.0
H597 H 0.88137 0.56182 0.12273 0.0
H598 H 0.90789 0.53384 0.07023 0.0
S599 S 0.01885 0.53749 0.17288 0.0
N600 N 0.98223 0.55453 0.18742 0.0
N601 N 0.01132 0.52451 0.13077 0.0
C602 C 0.97767 0.53375 0.12677 0.0
C603 C 0.96197 0.55029 0.15752 0.0
C604 C 0.36916 0.10086 0.11395 0.0
C605 C 0.34266 0.07756 0.13621 0.0
C606 C 0.39559 0.08393 0.0949 0.0
C607 C 0.3968 0.04315 0.09787 0.0
H608 H 0.36977 0.1325 0.11155 0.0
H609 H 0.41564 0.10299 0.07833 0.0
S610 S 0.33227 0.96884 0.14999 0.0
N611 N 0.31796 0.01125 0.15786 0.0
N612 N 0.36856 0.97965 0.12323 0.0
C613 C 0.37043 0.01944 0.11972 0.0
C614 C 0.34315 0.03659 0.13862 0.0
C615 C 0.17766 0.93481 0.5919 0.0
C616 C 0.17838 0.92083 0.62931 0.0
C617 C 0.14708 0.94877 0.57736 0.0
C618 C 0.11592 0.94903 0.59959 0.0
H619 H 0.20118 0.93581 0.57394 0.0
H620 H 0.14816 0.96008 0.54861 0.0
S621 S 0.10326 0.91162 0.69859 0.0
N622 N 0.14474 0.90543 0.68762 0.0
N623 N 0.08736 0.93142 0.66065 0.0
C624 C 0.11607 0.93381 0.63682 0.0
C625 C 0.14724 0.91984 0.65157 0.0
C626 C 0.83591 0.43112 0.86947 0.0
C627 C 0.80786 0.41636 0.89465 0.0
C628 C 0.86761 0.44956 0.88161 0.0
C629 C 0.87257 0.45394 0.91942 0.0
H630 H 0.83353 0.42795 0.84016 0.0
H631 H 0.88845 0.46029 0.86107 0.0
S632 S 0.80629 0.42241 0.99637 0.0
N633 N 0.78634 0.40891 0.95896 0.0
N634 N 0.84609 0.44305 0.98188 0.0
C635 C 0.8446 0.43951 0.94491 0.0
C636 C 0.81224 0.42087 0.9325 0.0
C637 C 0.64542 0.55628 0.39109 0.0
C638 C 0.66641 0.53091 0.37358 0.0
C639 C 0.61238 0.54247 0.4085 0.0
C640 C 0.59872 0.50303 0.40819 0.0
H641 H 0.65441 0.5872 0.39117 0.0
H642 H 0.59716 0.5629 0.42167 0.0
S643 S 0.64351 0.42377 0.36902 0.0
N644 N 0.67168 0.46354 0.3598 0.0
N645 N 0.6088 0.43832 0.39054 0.0
C646 C 0.61919 0.47732 0.39095 0.0
C647 C 0.65317 0.49107 0.37406 0.0
C648 C 0.10587 0.33376 0.09733 0.0
C649 C 0.143 0.33467 0.09811 0.0
C650 C 0.09002 0.36526 0.08068 0.0
C651 C 0.11077 0.39859 0.06398 0.0
H652 H 0.08894 0.30836 0.10942 0.0
H653 H 0.06136 0.36327 0.08052 0.0
S654 S 0.209 0.41692 0.06154 0.0
N655 N 0.19997 0.37274 0.08299 0.0
N656 N 0.1703 0.43163 0.05106 0.0
C657 C 0.14791 0.40007 0.06496 0.0
C658 C 0.164 0.36817 0.08216 0.0
C659 C 0.58247 0.13106 0.90321 0.0
C660 C 0.56037 0.1606 0.89494 0.0
C661 C 0.56993 0.09677 0.92504 0.0
C662 C 0.53475 0.0906 0.93965 0.0
H663 H 0.60981 0.13457 0.89281 0.0
H664 H 0.58816 0.07506 0.93068 0.0
S665 S 0.46624 0.15945 0.92629 0.0
N666 N 0.50177 0.18182 0.90308 0.0
N667 N 0.47789 0.11725 0.94395 0.0
C668 C 0.51219 0.11979 0.93116 0.0
C669 C 0.52505 0.15476 0.90883 0.0
C670 C 0.93238 0.80531 0.40481 0.0
C671 C 0.89684 0.7938 0.39736 0.0
C672 C 0.94216 0.84133 0.4197 0.0
C673 C 0.91666 0.86679 0.42777 0.0
H674 H 0.95248 0.78587 0.40019 0.0
H675 H 0.96965 0.84876 0.42583 0.0
S676 S 0.82094 0.85224 0.40823 0.0
N677 N 0.83693 0.8124 0.39532 0.0
N678 N 0.8549 0.87927 0.42374 0.0
C679 C 0.88134 0.85614 0.41886 0.0
C680 C 0.87156 0.81989 0.40351 0.0
C681 C 0.43139 0.68415 0.58539 0.0
C682 C 0.39447 0.68493 0.58973 0.0
C683 C 0.44575 0.65235 0.57061 0.0
C684 C 0.42369 0.62022 0.55952 0.0
H685 H 0.44933 0.70852 0.59306 0.0
H686 H 0.4743 0.6532 0.56747 0.0
S687 S 0.32528 0.60628 0.5687 0.0
N688 N 0.3363 0.64949 0.58435 0.0
N689 N 0.36299 0.5902 0.55617 0.0
C690 C 0.38673 0.62037 0.56441 0.0
C691 C 0.3722 0.65258 0.57959 0.0
C692 C 0.92923 0.93728 0.64582 0.0
C693 C 0.89383 0.92439 0.6393 0.0
C694 C 0.95269 0.95376 0.61699 0.0
C695 C 0.94178 0.95785 0.58032 0.0
H696 H 0.93897 0.93434 0.67351 0.0
H697 H 0.97981 0.96269 0.62359 0.0
S698 S 0.85107 0.92984 0.54904 0.0
N699 N 0.84842 0.91749 0.59401 0.0
N700 N 0.89241 0.94896 0.53947 0.0
C701 C 0.90607 0.94588 0.57356 0.0
C702 C 0.88211 0.92911 0.60313 0.0
C703 C 0.58086 0.13008 0.12836 0.0
C704 C 0.58923 0.10328 0.15712 0.0
C705 C 0.56298 0.11743 0.09758 0.0
C706 C 0.55257 0.0774 0.09422 0.0
H707 H 0.58744 0.16128 0.13009 0.0
H708 H 0.55637 0.13949 0.07679 0.0
S709 S 0.5701 0.99505 0.16104 0.0
N710 N 0.58728 0.03471 0.17963 0.0
N711 N 0.55388 0.01072 0.12163 0.0
C712 C 0.56227 0.05007 0.12199 0.0
C713 C 0.58054 0.06305 0.15344 0.0
C714 C 0.426 0.51894 0.35883 0.0
C715 C 0.41794 0.55796 0.35404 0.0
C716 C 0.44167 0.50487 0.39105 0.0
C717 C 0.44977 0.52929 0.41974 0.0
H718 H 0.42082 0.49936 0.33718 0.0
H719 H 0.44803 0.47484 0.39315 0.0
S720 S 0.43023 0.63278 0.42214 0.0
N721 N 0.41666 0.61989 0.38166 0.0
N722 N 0.4461 0.59389 0.44197 0.0
C723 C 0.44081 0.56811 0.41559 0.0
C724 C 0.42493 0.58233 0.38285 0.0
C725 C 0.09824 0.43584 0.88675 0.0
C726 C 0.07903 0.42817 0.85519 0.0
C727 C 0.08289 0.45237 0.91681 0.0
C728 C 0.0477 0.46219 0.9165 0.0
H729 H 0.12506 0.428 0.88869 0.0
H730 H 0.09869 0.45688 0.9407 0.0
S731 S 0.98726 0.451 0.83858 0.0
N732 N 0.02392 0.4339 0.8242 0.0
N733 N 0.99491 0.46475 0.88041 0.0
C734 C 0.02865 0.45577 0.88441 0.0
C735 C 0.04431 0.43881 0.85391 0.0
C736 C 0.65347 0.893 0.91518 0.0
C737 C 0.65393 0.88413 0.878 0.0
C738 C 0.62681 0.9132 0.92979 0.0
C739 C 0.59963 0.92549 0.90774 0.0
H740 H 0.67429 0.88493 0.933 0.0
H741 H 0.62784 0.91965 0.95851 0.0
S742 S 0.58744 0.90685 0.80928 0.0
N743 N 0.62396 0.88712 0.81992 0.0
N744 N 0.57392 0.92561 0.84717 0.0
C745 C 0.59948 0.91629 0.8706 0.0
C746 C 0.62661 0.89552 0.85577 0.0
C747 C 0.85126 0.10156 0.39282 0.0
C748 C 0.82309 0.07465 0.38358 0.0
C749 C 0.88175 0.08881 0.40859 0.0
C750 C 0.88512 0.04861 0.41617 0.0
H751 H 0.84995 0.13276 0.38731 0.0
H752 H 0.90283 0.11074 0.41483 0.0
S753 S 0.81761 0.96639 0.39881 0.0
N754 N 0.79974 0.00618 0.38424 0.0
N755 N 0.85672 0.98196 0.4139 0.0
C756 C 0.85672 0.02141 0.40755 0.0
C757 C 0.82585 0.03448 0.39123 0.0
C758 C 0.17128 0.56989 0.1365 0.0
C759 C 0.20002 0.5815 0.11125 0.0
C760 C 0.13886 0.55294 0.12471 0.0
C761 C 0.1339 0.54701 0.08719 0.0
H762 H 0.17373 0.57431 0.16559 0.0
H763 H 0.11751 0.5444 0.14525 0.0
S764 S 0.20174 0.57013 0.01036 0.0
N765 N 0.22209 0.58437 0.0473 0.0
N766 N 0.16102 0.55288 0.025 0.0
C767 C 0.1625 0.55839 0.06163 0.0
C768 C 0.19559 0.57551 0.0737 0.0
C769 C 0.34464 0.4428 0.60332 0.0
C770 C 0.3414 0.43707 0.64218 0.0
C771 C 0.37693 0.45806 0.58511 0.0
C772 C 0.40725 0.46815 0.60506 0.0
H773 H 0.32178 0.43638 0.58688 0.0
H774 H 0.37776 0.46304 0.55524 0.0
S775 S 0.41366 0.45447 0.70709 0.0
N776 N 0.37189 0.43958 0.69982 0.0
N777 N 0.4325 0.46837 0.66584 0.0
C778 C 0.40464 0.46119 0.64389 0.0
C779 C 0.37175 0.4457 0.66238 0.0
C780 C 0.91138 0.64668 0.88142 0.0
C781 C 0.89587 0.67701 0.89758 0.0
C782 C 0.92395 0.61625 0.90326 0.0
C783 C 0.92113 0.61477 0.9421 0.0
H784 H 0.91301 0.64586 0.85164 0.0
H785 H 0.93487 0.59304 0.88954 0.0
S786 S 0.88603 0.68903 0.99807 0.0
N787 N 0.88119 0.70546 0.95478 0.0
N788 N 0.90382 0.64743 0.99589 0.0
C789 C 0.90653 0.64536 0.95867 0.0
C790 C 0.89412 0.67666 0.9364 0.0
C791 C 0.42715 0.86145 0.10267 0.0
C792 C 0.44974 0.83279 0.11241 0.0
C793 C 0.43947 0.89545 0.08034 0.0
C794 C 0.47497 0.90233 0.06686 0.0
H795 H 0.39952 0.85738 0.11213 0.0
H796 H 0.42079 0.91631 0.07339 0.0
S797 S 0.54496 0.83619 0.08448 0.0
N798 N 0.50924 0.81328 0.10695 0.0
N799 N 0.53276 0.87751 0.06537 0.0
C800 C 0.49808 0.87419 0.07699 0.0
C801 C 0.48541 0.83941 0.09971 0.0
C802 C 0.079 0.15154 0.65141 0.0
C803 C 0.0944 0.18284 0.62692 0.0
C804 C 0.06328 0.11683 0.63822 0.0
C805 C 0.06244 0.11206 0.60002 0.0
H806 H 0.08022 0.15331 0.68103 0.0
H807 H 0.05274 0.09312 0.65822 0.0
S808 S 0.09505 0.18744 0.52439 0.0
N809 N 0.1047 0.20846 0.56272 0.0
N810 N 0.0757 0.14317 0.53786 0.0
C811 C 0.07639 0.14387 0.57524 0.0
C812 C 0.09223 0.17923 0.58869 0.0
C813 C 0.61967 0.33135 0.4392 0.0
C814 C 0.59838 0.30081 0.42453 0.0
C815 C 0.60473 0.36172 0.45545 0.0
C816 C 0.5678 0.36327 0.45741 0.0
H817 H 0.6483 0.33222 0.43762 0.0
H818 H 0.62252 0.38467 0.46586 0.0
S819 S 0.5 0.28953 0.42477 0.0
N820 N 0.53816 0.27299 0.4146 0.0
N821 N 0.51011 0.33092 0.44416 0.0
C822 C 0.54606 0.3329 0.443 0.0
C823 C 0.56132 0.30156 0.42676 0.0
loop_
_geom_bond_atom_site_label_1
_geom_bond_atom_site_label_2
_geom_bond_distance
_geom_bond_site_symmetry_2
_ccdc_geom_bond_type
C0 C1 1.391 . S
C0 C4 1.391 . S
C0 H42 0.948 . S
C1 C0 1.391 . S
C1 C2 1.391 . S
C2 C1 1.391 . S
C2 H58 0.947 . S
C2 C59 1.392 . S
C3 C4 1.391 . S
C3 C7 1.397 . S
C3 C59 1.419 . S
C4 C0 1.391 . S
C4 C3 1.391 . S
C4 C5 1.399 . S
C5 C4 1.399 . S
C5 C8 1.396 . S
C5 C17 1.453 . S
C5 C18 1.684 . S
H6 C30 0.948 . S
C7 C3 1.397 . S
C7 C8 1.394 . S
C7 C26 1.723 . S
C8 C5 1.396 . S
C8 C7 1.394 . S
C8 C38 1.723 . S
H9 C32 0.947 . S
H10 C33 0.948 . S
H11 C39 0.982 . S
H12 C40 0.979 . S
H13 C40 0.980 . S
H14 C40 0.983 . S
H15 C39 0.979 . S
H16 C39 0.977 . S
C17 C5 1.453 . S
C17 H46 0.982 . S
C17 H47 0.979 . S
C17 H48 0.977 . S
C18 C5 1.684 . S
C18 H43 0.979 . S
C18 H44 0.980 . S
C18 H45 0.983 . S
C19 C20 1.391 . S
C19 C24 1.391 . S
C19 H49 0.948 . S
C20 C19 1.391 . S
C20 C21 1.391 . S
C21 C20 1.391 . S
C21 C22 1.392 . S
C21 H50 0.947 . S
C22 C21 1.392 . S
C22 C23 1.419 . S
C22 H51 0.948 . S
C23 C22 1.419 . S
C23 C24 1.391 . S
C23 C27 1.397 . S
C24 C19 1.391 . S
C24 C23 1.391 . S
C24 C25 1.399 . S
C25 C24 1.399 . S
C25 C26 1.396 . S
C25 C28 1.453 . S
C25 C29 1.684 . S
C26 C7 1.723 . S
C26 C25 1.396 . S
C26 C27 1.394 . S
C27 C23 1.397 . S
C27 C26 1.394 . S
C27 C37 1.723 . S
C28 C25 1.453 . S
C28 H52 0.982 . S
C28 H53 0.979 . S
C28 H54 0.977 . S
C29 C25 1.684 . S
C29 H55 0.979 . S
C29 H56 0.980 . S
C29 H57 0.983 . S
C30 H6 0.948 . S
C30 C31 1.391 . S
C30 C35 1.391 . S
C31 C30 1.391 . S
C31 C32 1.391 . S
C32 H9 0.947 . S
C32 C31 1.391 . S
C32 C33 1.392 . S
C33 H10 0.948 . S
C33 C32 1.392 . S
C33 C34 1.419 . S
C34 C33 1.419 . S
C34 C35 1.391 . S
C34 C38 1.397 . S
C35 C30 1.391 . S
C35 C34 1.391 . S
C35 C36 1.399 . S
C36 C35 1.399 . S
C36 C37 1.396 . S
C36 C39 1.453 . S
C36 C40 1.684 . S
C37 C27 1.723 . S
C37 C36 1.396 . S
C37 C38 1.394 . S
C38 C8 1.723 . S
C38 C34 1.397 . S
C38 C37 1.394 . S
C39 H11 0.982 . S
C39 H15 0.979 . S
C39 H16 0.977 . S
C39 C36 1.453 . S
C40 H12 0.979 . S
C40 H13 0.980 . S
C40 H14 0.983 . S
C40 C36 1.684 . S
H41 C59 0.948 . S
H42 C0 0.948 . S
H43 C18 0.979 . S
H44 C18 0.980 . S
H45 C18 0.983 . S
H46 C17 0.982 . S
H47 C17 0.979 . S
H48 C17 0.977 . S
H49 C19 0.948 . S
H50 C21 0.947 . S
H51 C22 0.948 . S
H52 C28 0.982 . S
H53 C28 0.979 . S
H54 C28 0.977 . S
H55 C29 0.979 . S
H56 C29 0.980 . S
H57 C29 0.983 . S
H58 C2 0.947 . S
C59 C2 1.392 . S
C59 C3 1.419 . S
C59 H41 0.948 . S
C60 C61 1.391 . S
C60 C64 1.391 . S
C60 H102 0.948 . S
C61 C60 1.391 . S
C61 C62 1.391 . S
C62 C61 1.391 . S
C62 H118 0.947 . S
C62 C119 1.392 . S
C63 C64 1.391 . S
C63 C67 1.397 . S
C63 C119 1.419 . S
C64 C60 1.391 . S
C64 C63 1.391 . S
C64 C65 1.399 . S
C65 C64 1.399 . S
C65 C68 1.396 . S
C65 C77 1.453 . S
C65 C78 1.684 . S
H66 C90 0.948 . S
C67 C63 1.397 . S
C67 C68 1.394 . S
C67 C86 1.723 . S
C68 C65 1.396 . S
C68 C67 1.394 . S
C68 C98 1.723 . S
H69 C92 0.947 . S
H70 C93 0.948 . S
H71 C99 0.982 . S
H72 C100 0.979 . S
H73 C100 0.980 . S
H74 C100 0.983 . S
H75 C99 0.979 . S
H76 C99 0.977 . S
C77 C65 1.453 . S
C77 H106 0.982 . S
C77 H107 0.979 . S
C77 H108 0.977 . S
C78 C65 1.684 . S
C78 H103 0.979 . S
C78 H104 0.980 . S
C78 H105 0.983 . S
C79 C80 1.391 . S
C79 C84 1.391 . S
C79 H109 0.948 . S
C80 C79 1.391 . S
C80 C81 1.391 . S
C81 C80 1.391 . S
C81 C82 1.392 . S
C81 H110 0.947 . S
C82 C81 1.392 . S
C82 C83 1.419 . S
C82 H111 0.948 . S
C83 C82 1.419 . S
C83 C84 1.391 . S
C83 C87 1.397 . S
C84 C79 1.391 . S
C84 C83 1.391 . S
C84 C85 1.399 . S
C85 C84 1.399 . S
C85 C86 1.396 . S
C85 C88 1.453 . S
C85 C89 1.684 . S
C86 C67 1.723 . S
C86 C85 1.396 . S
C86 C87 1.394 . S
C87 C83 1.397 . S
C87 C86 1.394 . S
C87 C97 1.723 . S
C88 C85 1.453 . S
C88 H112 0.982 . S
C88 H113 0.979 . S
C88 H114 0.977 . S
C89 C85 1.684 . S
C89 H115 0.979 . S
C89 H116 0.980 . S
C89 H117 0.983 . S
C90 H66 0.948 . S
C90 C91 1.391 . S
C90 C95 1.391 . S
C91 C90 1.391 . S
C91 C92 1.391 . S
C92 H69 0.947 . S
C92 C91 1.391 . S
C92 C93 1.392 . S
C93 H70 0.948 . S
C93 C92 1.392 . S
C93 C94 1.419 . S
C94 C93 1.419 . S
C94 C95 1.391 . S
C94 C98 1.397 . S
C95 C90 1.391 . S
C95 C94 1.391 . S
C95 C96 1.399 . S
C96 C95 1.399 . S
C96 C97 1.396 . S
C96 C99 1.453 . S
C96 C100 1.684 . S
C97 C87 1.723 . S
C97 C96 1.396 . S
C97 C98 1.394 . S
C98 C68 1.723 . S
C98 C94 1.397 . S
C98 C97 1.394 . S
C99 H71 0.982 . S
C99 H75 0.979 . S
C99 H76 0.977 . S
C99 C96 1.453 . S
C100 H72 0.979 . S
C100 H73 0.980 . S
C100 H74 0.983 . S
C100 C96 1.684 . S
H101 C119 0.948 . S
H102 C60 0.948 . S
H103 C78 0.979 . S
H104 C78 0.980 . S
H105 C78 0.983 . S
H106 C77 0.982 . S
H107 C77 0.979 . S
H108 C77 0.977 . S
H109 C79 0.948 . S
H110 C81 0.947 . S
H111 C82 0.948 . S
H112 C88 0.982 . S
H113 C88 0.979 . S
H114 C88 0.977 . S
H115 C89 0.979 . S
H116 C89 0.980 . S
H117 C89 0.983 . S
H118 C62 0.947 . S
C119 C62 1.392 . S
C119 C63 1.419 . S
C119 H101 0.948 . S
C120 C121 1.391 . S
C120 C124 1.391 . S
C120 H162 0.948 . S
C121 C120 1.391 . S
C121 C122 1.391 . S
C122 C121 1.391 . S
C122 H178 0.947 . S
C122 C179 1.392 . S
C123 C124 1.391 . S
C123 C127 1.397 . S
C123 C179 1.419 . S
C124 C120 1.391 . S
C124 C123 1.391 . S
C124 C125 1.399 . S
C125 C124 1.399 . S
C125 C128 1.396 . S
C125 C137 1.453 . S
C125 C138 1.684 . S
H126 C150 0.948 . S
C127 C123 1.397 . S
C127 C128 1.394 . S
C127 C146 1.723 . S
C128 C125 1.396 . S
C128 C127 1.394 . S
C128 C158 1.723 . S
H129 C152 0.947 . S
H130 C153 0.948 . S
H131 C159 0.982 . S
H132 C160 0.979 . S
H133 C160 0.980 . S
H134 C160 0.983 . S
H135 C159 0.979 . S
H136 C159 0.977 . S
C137 C125 1.453 . S
C137 H166 0.982 . S
C137 H167 0.979 . S
C137 H168 0.977 . S
C138 C125 1.684 . S
C138 H163 0.979 . S
C138 H164 0.980 . S
C138 H165 0.983 . S
C139 C140 1.391 . S
C139 C144 1.391 . S
C139 H169 0.948 . S
C140 C139 1.391 . S
C140 C141 1.391 . S
C141 C140 1.391 . S
C141 C142 1.392 . S
C141 H170 0.947 . S
C142 C141 1.392 . S
C142 C143 1.419 . S
C142 H171 0.948 . S
C143 C142 1.419 . S
C143 C144 1.391 . S
C143 C147 1.397 . S
C144 C139 1.391 . S
C144 C143 1.391 . S
C144 C145 1.399 . S
C145 C144 1.399 . S
C145 C146 1.396 . S
C145 C148 1.453 . S
C145 C149 1.684 . S
C146 C127 1.723 . S
C146 C145 1.396 . S
C146 C147 1.394 . S
C147 C143 1.397 . S
C147 C146 1.394 . S
C147 C157 1.723 . S
C148 C145 1.453 . S
C148 H172 0.982 . S
C148 H173 0.979 . S
C148 H174 0.977 . S
C149 C145 1.684 . S
C149 H175 0.979 . S
C149 H176 0.980 . S
C149 H177 0.983 . S
C150 H126 0.948 . S
C150 C151 1.391 . S
C150 C155 1.391 . S
C151 C150 1.391 . S
C151 C152 1.391 . S
C152 H129 0.947 . S
C152 C151 1.391 . S
C152 C153 1.392 . S
C153 H130 0.948 . S
C153 C152 1.392 . S
C153 C154 1.419 . S
C154 C153 1.419 . S
C154 C155 1.391 . S
C154 C158 1.397 . S
C155 C150 1.391 . S
C155 C154 1.391 . S
C155 C156 1.399 . S
C156 C155 1.399 . S
C156 C157 1.396 . S
C156 C159 1.453 . S
C156 C160 1.684 . S
C157 C147 1.723 . S
C157 C156 1.396 . S
C157 C158 1.394 . S
C158 C128 1.723 . S
C158 C154 1.397 . S
C158 C157 1.394 . S
C159 H131 0.982 . S
C159 H135 0.979 . S
C159 H136 0.977 . S
C159 C156 1.453 . S
C160 H132 0.979 . S
C160 H133 0.980 . S
C160 H134 0.983 . S
C160 C156 1.684 . S
H161 C179 0.948 . S
H162 C120 0.948 . S
H163 C138 0.979 . S
H164 C138 0.980 . S
H165 C138 0.983 . S
H166 C137 0.982 . S
H167 C137 0.979 . S
H168 C137 0.977 . S
H169 C139 0.948 . S
H170 C141 0.947 . S
H171 C142 0.948 . S
H172 C148 0.982 . S
H173 C148 0.979 . S
H174 C148 0.977 . S
H175 C149 0.979 . S
H176 C149 0.980 . S
H177 C149 0.983 . S
H178 C122 0.947 . S
C179 C122 1.392 . S
C179 C123 1.419 . S
C179 H161 0.948 . S
C180 C181 1.391 . S
C180 C184 1.391 . S
C180 H222 0.948 . S
C181 C180 1.391 . S
C181 C182 1.391 . S
C182 C181 1.391 . S
C182 H238 0.947 . S
C182 C239 1.392 . S
C183 C184 1.391 . S
C183 C187 1.397 . S
C183 C239 1.419 . S
C184 C180 1.391 . S
C184 C183 1.391 . S
C184 C185 1.399 . S
C185 C184 1.399 . S
C185 C188 1.396 . S
C185 C197 1.453 . S
C185 C198 1.684 . S
H186 C210 0.948 . S
C187 C183 1.397 . S
C187 C188 1.394 . S
C187 C206 1.723 . S
C188 C185 1.396 . S
C188 C187 1.394 . S
C188 C218 1.723 . S
H189 C212 0.947 . S
H190 C213 0.948 . S
H191 C219 0.982 . S
H192 C220 0.979 . S
H193 C220 0.980 . S
H194 C220 0.983 . S
H195 C219 0.979 . S
H196 C219 0.977 . S
C197 C185 1.453 . S
C197 H226 0.982 . S
C197 H227 0.979 . S
C197 H228 0.977 . S
C198 C185 1.684 . S
C198 H223 0.979 . S
C198 H224 0.980 . S
C198 H225 0.983 . S
C199 C200 1.391 . S
C199 C204 1.391 . S
C199 H229 0.948 . S
C200 C199 1.391 . S
C200 C201 1.391 . S
C201 C200 1.391 . S
C201 C202 1.392 . S
C201 H230 0.947 . S
C202 C201 1.392 . S
C202 C203 1.419 . S
C202 H231 0.948 . S
C203 C202 1.419 . S
C203 C204 1.391 . S
C203 C207 1.397 . S
C204 C199 1.391 . S
C204 C203 1.391 . S
C204 C205 1.399 . S
C205 C204 1.399 . S
C205 C206 1.396 . S
C205 C208 1.453 . S
C205 C209 1.684 . S
C206 C187 1.723 . S
C206 C205 1.396 . S
C206 C207 1.394 . S
C207 C203 1.397 . S
C207 C206 1.394 . S
C207 C217 1.723 . S
C208 C205 1.453 . S
C208 H232 0.982 . S
C208 H233 0.979 . S
C208 H234 0.977 . S
C209 C205 1.684 . S
C209 H235 0.979 . S
C209 H236 0.980 . S
C209 H237 0.983 . S
C210 H186 0.948 . S
C210 C211 1.391 . S
C210 C215 1.391 . S
C211 C210 1.391 . S
C211 C212 1.391 . S
C212 H189 0.947 . S
C212 C211 1.391 . S
C212 C213 1.392 . S
C213 H190 0.948 . S
C213 C212 1.392 . S
C213 C214 1.419 . S
C214 C213 1.419 . S
C214 C215 1.391 . S
C214 C218 1.397 . S
C215 C210 1.391 . S
C215 C214 1.391 . S
C215 C216 1.399 . S
C216 C215 1.399 . S
C216 C217 1.396 . S
C216 C219 1.453 . S
C216 C220 1.684 . S
C217 C207 1.723 . S
C217 C216 1.396 . S
C217 C218 1.394 . S
C218 C188 1.723 . S
C218 C214 1.397 . S
C218 C217 1.394 . S
C219 H191 0.982 . S
C219 H195 0.979 . S
C219 H196 0.977 . S
C219 C216 1.453 . S
C220 H192 0.979 . S
C220 H193 0.980 . S
C220 H194 0.983 . S
C220 C216 1.684 . S
H221 C239 0.948 . S
H222 C180 0.948 . S
H223 C198 0.979 . S
H224 C198 0.980 . S
H225 C198 0.983 . S
H226 C197 0.982 . S
H227 C197 0.979 . S
H228 C197 0.977 . S
H229 C199 0.948 . S
H230 C201 0.947 . S
H231 C202 0.948 . S
H232 C208 0.982 . S
H233 C208 0.979 . S
H234 C208 0.977 . S
H235 C209 0.979 . S
H236 C209 0.980 . S
H237 C209 0.983 . S
H238 C182 0.947 . S
C239 C182 1.392 . S
C239 C183 1.419 . S
C239 H221 0.948 . S
C240 C241 1.391 . S
C240 C244 1.391 . S
C240 H282 0.948 . S
C241 C240 1.391 . S
C241 C242 1.391 . S
C242 C241 1.391 . S
C242 H298 0.947 . S
C242 C299 1.392 . S
C243 C244 1.391 . S
C243 C247 1.397 . S
C243 C299 1.419 . S
C244 C240 1.391 . S
C244 C243 1.391 . S
C244 C245 1.399 . S
C245 C244 1.399 . S
C245 C248 1.396 . S
C245 C257 1.453 . S
C245 C258 1.684 . S
H246 C270 0.948 . S
C247 C243 1.397 . S
C247 C248 1.394 . S
C247 C266 1.723 . S
C248 C245 1.396 . S
C248 C247 1.394 . S
C248 C278 1.723 . S
H249 C272 0.947 . S
H250 C273 0.948 . S
H251 C279 0.982 . S
H252 C280 0.979 . S
H253 C280 0.980 . S
H254 C280 0.983 . S
H255 C279 0.979 . S
H256 C279 0.977 . S
C257 C245 1.453 . S
C257 H286 0.982 . S
C257 H287 0.979 . S
C257 H288 0.977 . S
C258 C245 1.684 . S
C258 H283 0.979 . S
C258 H284 0.980 . S
C258 H285 0.983 . S
C259 C260 1.391 . S
C259 C264 1.391 . S
C259 H289 0.948 . S
C260 C259 1.391 . S
C260 C261 1.391 . S
C261 C260 1.391 . S
C261 C262 1.392 . S
C261 H290 0.947 . S
C262 C261 1.392 . S
C262 C263 1.419 . S
C262 H291 0.948 . S
C263 C262 1.419 . S
C263 C264 1.391 . S
C263 C267 1.397 . S
C264 C259 1.391 . S
C264 C263 1.391 . S
C264 C265 1.399 . S
C265 C264 1.399 . S
C265 C266 1.396 . S
C265 C268 1.453 . S
C265 C269 1.684 . S
C266 C247 1.723 . S
C266 C265 1.396 . S
C266 C267 1.394 . S
C267 C263 1.397 . S
C267 C266 1.394 . S
C267 C277 1.723 . S
C268 C265 1.453 . S
C268 H292 0.982 . S
C268 H293 0.979 . S
C268 H294 0.977 . S
C269 C265 1.684 . S
C269 H295 0.979 . S
C269 H296 0.980 . S
C269 H297 0.983 . S
C270 H246 0.948 . S
C270 C271 1.391 . S
C270 C275 1.391 . S
C271 C270 1.391 . S
C271 C272 1.391 . S
C272 H249 0.947 . S
C272 C271 1.391 . S
C272 C273 1.392 . S
C273 H250 0.948 . S
C273 C272 1.392 . S
C273 C274 1.419 . S
C274 C273 1.419 . S
C274 C275 1.391 . S
C274 C278 1.397 . S
C275 C270 1.391 . S
C275 C274 1.391 . S
C275 C276 1.399 . S
C276 C275 1.399 . S
C276 C277 1.396 . S
C276 C279 1.453 . S
C276 C280 1.684 . S
C277 C267 1.723 . S
C277 C276 1.396 . S
C277 C278 1.394 . S
C278 C248 1.723 . S
C278 C274 1.397 . S
C278 C277 1.394 . S
C279 H251 0.982 . S
C279 H255 0.979 . S
C279 H256 0.977 . S
C279 C276 1.453 . S
C280 H252 0.979 . S
C280 H253 0.980 . S
C280 H254 0.983 . S
C280 C276 1.684 . S
H281 C299 0.948 . S
H282 C240 0.948 . S
H283 C258 0.979 . S
H284 C258 0.980 . S
H285 C258 0.983 . S
H286 C257 0.982 . S
H287 C257 0.979 . S
H288 C257 0.977 . S
H289 C259 0.948 . S
H290 C261 0.947 . S
H291 C262 0.948 . S
H292 C268 0.982 . S
H293 C268 0.979 . S
H294 C268 0.977 . S
H295 C269 0.979 . S
H296 C269 0.980 . S
H297 C269 0.983 . S
H298 C242 0.947 . S
C299 C242 1.392 . S
C299 C243 1.419 . S
C299 H281 0.948 . S
C300 C301 1.391 . S
C300 C304 1.391 . S
C300 H342 0.948 . S
C301 C300 1.391 . S
C301 C302 1.391 . S
C302 C301 1.391 . S
C302 H358 0.947 . S
C302 C359 1.392 . S
C303 C304 1.391 . S
C303 C307 1.397 . S
C303 C359 1.419 . S
C304 C300 1.391 . S
C304 C303 1.391 . S
C304 C305 1.399 . S
C305 C304 1.399 . S
C305 C308 1.396 . S
C305 C317 1.453 . S
C305 C318 1.684 . S
H306 C330 0.948 . S
C307 C303 1.397 . S
C307 C308 1.394 . S
C307 C326 1.723 . S
C308 C305 1.396 . S
C308 C307 1.394 . S
C308 C338 1.723 . S
H309 C332 0.947 . S
H310 C333 0.948 . S
H311 C339 0.982 . S
H312 C340 0.979 . S
H313 C340 0.980 . S
H314 C340 0.983 . S
H315 C339 0.979 . S
H316 C339 0.977 . S
C317 C305 1.453 . S
C317 H346 0.982 . S
C317 H347 0.979 . S
C317 H348 0.977 . S
C318 C305 1.684 . S
C318 H343 0.979 . S
C318 H344 0.980 . S
C318 H345 0.983 . S
C319 C320 1.391 . S
C319 C324 1.391 . S
C319 H349 0.948 . S
C320 C319 1.391 . S
C320 C321 1.391 . S
C321 C320 1.391 . S
C321 C322 1.392 . S
C321 H350 0.947 . S
C322 C321 1.392 . S
C322 C323 1.419 . S
C322 H351 0.948 . S
C323 C322 1.419 . S
C323 C324 1.391 . S
C323 C327 1.397 . S
C324 C319 1.391 . S
C324 C323 1.391 . S
C324 C325 1.399 . S
C325 C324 1.399 . S
C325 C326 1.396 . S
C325 C328 1.453 . S
C325 C329 1.684 . S
C326 C307 1.723 . S
C326 C325 1.396 . S
C326 C327 1.394 . S
C327 C323 1.397 . S
C327 C326 1.394 . S
C327 C337 1.723 . S
C328 C325 1.453 . S
C328 H352 0.982 . S
C328 H353 0.979 . S
C328 H354 0.977 . S
C329 C325 1.684 . S
C329 H355 0.979 . S
C329 H356 0.980 . S
C329 H357 0.983 . S
C330 H306 0.948 . S
C330 C331 1.391 . S
C330 C335 1.391 . S
C331 C330 1.391 . S
C331 C332 1.391 . S
C332 H309 0.947 . S
C332 C331 1.391 . S
C332 C333 1.392 . S
C333 H310 0.948 . S
C333 C332 1.392 . S
C333 C334 1.419 . S
C334 C333 1.419 . S
C334 C335 1.391 . S
C334 C338 1.397 . S
C335 C330 1.391 . S
C335 C334 1.391 . S
C335 C336 1.399 . S
C336 C335 1.399 . S
C336 C337 1.396 . S
C336 C339 1.453 . S
C336 C340 1.684 . S
C337 C327 1.723 . S
C337 C336 1.396 . S
C337 C338 1.394 . S
C338 C308 1.723 . S
C338 C334 1.397 . S
C338 C337 1.394 . S
C339 H311 0.982 . S
C339 H315 0.979 . S
C339 H316 0.977 . S
C339 C336 1.453 . S
C340 H312 0.979 . S
C340 H313 0.980 . S
C340 H314 0.983 . S
C340 C336 1.684 . S
H341 C359 0.948 . S
H342 C300 0.948 . S
H343 C318 0.979 . S
H344 C318 0.980 . S
H345 C318 0.983 . S
H346 C317 0.982 . S
H347 C317 0.979 . S
H348 C317 0.977 . S
H349 C319 0.948 . S
H350 C321 0.947 . S
H351 C322 0.948 . S
H352 C328 0.982 . S
H353 C328 0.979 . S
H354 C328 0.977 . S
H355 C329 0.979 . S
H356 C329 0.980 . S
H357 C329 0.983 . S
H358 C302 0.947 . S
C359 C302 1.392 . S
C359 C303 1.419 . S
C359 H341 0.948 . S
C360 C361 1.391 . S
C360 C364 1.391 . S
C360 H402 0.948 . S
C361 C360 1.391 . S
C361 C362 1.391 . S
C362 C361 1.391 . S
C362 H418 0.947 . S
C362 C419 1.392 . S
C363 C364 1.391 . S
C363 C367 1.397 . S
C363 C419 1.419 . S
C364 C360 1.391 . S
C364 C363 1.391 . S
C364 C365 1.399 . S
C365 C364 1.399 . S
C365 C368 1.396 . S
C365 C377 1.453 . S
C365 C378 1.684 . S
H366 C390 0.948 . S
C367 C363 1.397 . S
C367 C368 1.394 . S
C367 C386 1.723 . S
C368 C365 1.396 . S
C368 C367 1.394 . S
C368 C398 1.723 . S
H369 C392 0.947 . S
H370 C393 0.948 . S
H371 C399 0.982 . S
H372 C400 0.979 . S
H373 C400 0.980 . S
H374 C400 0.983 . S
H375 C399 0.979 . S
H376 C399 0.977 . S
C377 C365 1.453 . S
C377 H406 0.982 . S
C377 H407 0.979 . S
C377 H408 0.977 . S
C378 C365 1.684 . S
C378 H403 0.979 . S
C378 H404 0.980 . S
C378 H405 0.983 . S
C379 C380 1.391 . S
C379 C384 1.391 . S
C379 H409 0.948 . S
C380 C379 1.391 . S
C380 C381 1.391 . S
C381 C380 1.391 . S
C381 C382 1.392 . S
C381 H410 0.947 . S
C382 C381 1.392 . S
C382 C383 1.419 . S
C382 H411 0.948 . S
C383 C382 1.419 . S
C383 C384 1.391 . S
C383 C387 1.397 . S
C384 C379 1.391 . S
C384 C383 1.391 . S
C384 C385 1.399 . S
C385 C384 1.399 . S
C385 C386 1.396 . S
C385 C388 1.453 . S
C385 C389 1.684 . S
C386 C367 1.723 . S
C386 C385 1.396 . S
C386 C387 1.394 . S
C387 C383 1.397 . S
C387 C386 1.394 . S
C387 C397 1.723 . S
C388 C385 1.453 . S
C388 H412 0.982 . S
C388 H413 0.979 . S
C388 H414 0.977 . S
C389 C385 1.684 . S
C389 H415 0.979 . S
C389 H416 0.980 . S
C389 H417 0.983 . S
C390 H366 0.948 . S
C390 C391 1.391 . S
C390 C395 1.391 . S
C391 C390 1.391 . S
C391 C392 1.391 . S
C392 H369 0.947 . S
C392 C391 1.391 . S
C392 C393 1.392 . S
C393 H370 0.948 . S
C393 C392 1.392 . S
C393 C394 1.419 . S
C394 C393 1.419 . S
C394 C395 1.391 . S
C394 C398 1.397 . S
C395 C390 1.391 . S
C395 C394 1.391 . S
C395 C396 1.399 . S
C396 C395 1.399 . S
C396 C397 1.396 . S
C396 C399 1.453 . S
C396 C400 1.684 . S
C397 C387 1.723 . S
C397 C396 1.396 . S
C397 C398 1.394 . S
C398 C368 1.723 . S
C398 C394 1.397 . S
C398 C397 1.394 . S
C399 H371 0.982 . S
C399 H375 0.979 . S
C399 H376 0.977 . S
C399 C396 1.453 . S
C400 H372 0.979 . S
C400 H373 0.980 . S
C400 H374 0.983 . S
C400 C396 1.684 . S
H401 C419 0.948 . S
H402 C360 0.948 . S
H403 C378 0.979 . S
H404 C378 0.980 . S
H405 C378 0.983 . S
H406 C377 0.982 . S
H407 C377 0.979 . S
H408 C377 0.977 . S
H409 C379 0.948 . S
H410 C381 0.947 . S
H411 C382 0.948 . S
H412 C388 0.982 . S
H413 C388 0.979 . S
H414 C388 0.977 . S
H415 C389 0.979 . S
H416 C389 0.980 . S
H417 C389 0.983 . S
H418 C362 0.947 . S
C419 C362 1.392 . S
C419 C363 1.419 . S
C419 H401 0.948 . S
C420 C421 1.391 . S
C420 C424 1.391 . S
C420 H462 0.948 . S
C421 C420 1.391 . S
C421 C422 1.391 . S
C422 C421 1.391 . S
C422 H478 0.947 . S
C422 C479 1.392 . S
C423 C424 1.391 . S
C423 C427 1.397 . S
C423 C479 1.419 . S
C424 C420 1.391 . S
C424 C423 1.391 . S
C424 C425 1.399 . S
C425 C424 1.399 . S
C425 C428 1.396 . S
C425 C437 1.453 . S
C425 C438 1.684 . S
H426 C450 0.948 . S
C427 C423 1.397 . S
C427 C428 1.394 . S
C427 C446 1.723 . S
C428 C425 1.396 . S
C428 C427 1.394 . S
C428 C458 1.723 . S
H429 C452 0.947 . S
H430 C453 0.948 . S
H431 C459 0.982 . S
H432 C460 0.979 . S
H433 C460 0.980 . S
H434 C460 0.983 . S
H435 C459 0.979 . S
H436 C459 0.977 . S
C437 C425 1.453 . S
C437 H466 0.982 . S
C437 H467 0.979 . S
C437 H468 0.977 . S
C438 C425 1.684 . S
C438 H463 0.979 . S
C438 H464 0.980 . S
C438 H465 0.983 . S
C439 C440 1.391 . S
C439 C444 1.391 . S
C439 H469 0.948 . S
C440 C439 1.391 . S
C440 C441 1.391 . S
C441 C440 1.391 . S
C441 C442 1.392 . S
C441 H470 0.947 . S
C442 C441 1.392 . S
C442 C443 1.419 . S
C442 H471 0.948 . S
C443 C442 1.419 . S
C443 C444 1.391 . S
C443 C447 1.397 . S
C444 C439 1.391 . S
C444 C443 1.391 . S
C444 C445 1.399 . S
C445 C444 1.399 . S
C445 C446 1.396 . S
C445 C448 1.453 . S
C445 C449 1.684 . S
C446 C427 1.723 . S
C446 C445 1.396 . S
C446 C447 1.394 . S
C447 C443 1.397 . S
C447 C446 1.394 . S
C447 C457 1.723 . S
C448 C445 1.453 . S
C448 H472 0.982 . S
C448 H473 0.979 . S
C448 H474 0.977 . S
C449 C445 1.684 . S
C449 H475 0.979 . S
C449 H476 0.980 . S
C449 H477 0.983 . S
C450 H426 0.948 . S
C450 C451 1.391 . S
C450 C455 1.391 . S
C451 C450 1.391 . S
C451 C452 1.391 . S
C452 H429 0.947 . S
C452 C451 1.391 . S
C452 C453 1.392 . S
C453 H430 0.948 . S
C453 C452 1.392 . S
C453 C454 1.419 . S
C454 C453 1.419 . S
C454 C455 1.391 . S
C454 C458 1.397 . S
C455 C450 1.391 . S
C455 C454 1.391 . S
C455 C456 1.399 . S
C456 C455 1.399 . S
C456 C457 1.396 . S
C456 C459 1.453 . S
C456 C460 1.684 . S
C457 C447 1.723 . S
C457 C456 1.396 . S
C457 C458 1.394 . S
C458 C428 1.723 . S
C458 C454 1.397 . S
C458 C457 1.394 . S
C459 H431 0.982 . S
C459 H435 0.979 . S
C459 H436 0.977 . S
C459 C456 1.453 . S
C460 H432 0.979 . S
C460 H433 0.980 . S
C460 H434 0.983 . S
C460 C456 1.684 . S
H461 C479 0.948 . S
H462 C420 0.948 . S
H463 C438 0.979 . S
H464 C438 0.980 . S
H465 C438 0.983 . S
H466 C437 0.982 . S
H467 C437 0.979 . S
H468 C437 0.977 . S
H469 C439 0.948 . S
H470 C441 0.947 . S
H471 C442 0.948 . S
H472 C448 0.982 . S
H473 C448 0.979 . S
H474 C448 0.977 . S
H475 C449 0.979 . S
H476 C449 0.980 . S
H477 C449 0.983 . S
H478 C422 0.947 . S
C479 C422 1.392 . S
C479 C423 1.419 . S
C479 H461 0.948 . S
Zn480 O486 1.969 1_545 S
Zn480 O487 1.965 1_545 S
Zn480 O491 2.024 . S
Zn480 O496 1.969 . S
Zn481 O488 1.969 . S
Zn481 O494 1.969 1_565 S
Zn481 O495 1.965 1_565 S
Zn481 O497 2.024 . S
C482 O483 1.229 . S
C482 O491 1.058 . S
O483 C482 1.229 . S
C484 O485 1.229 . S
C484 O497 1.058 . S
O485 C484 1.229 . S
O486 Zn480 1.969 1_565 S
O486 C489 1.267 . S
O487 Zn480 1.965 1_565 S
O487 C498 1.260 1_455 S
O488 Zn481 1.969 . S
O488 C498 1.258 . S
C489 O486 1.267 . S
C489 O490 1.228 . S
O490 C489 1.228 . S
O491 Zn480 2.024 . S
O491 C482 1.058 . S
C492 O493 1.228 . S
C492 O494 1.267 . S
O493 C492 1.228 . S
O494 Zn481 1.969 1_545 S
O494 C492 1.267 . S
O495 Zn481 1.965 1_545 S
O495 C499 1.260 1_655 S
O496 Zn480 1.969 . S
O496 C499 1.258 . S
O497 Zn481 2.024 . S
O497 C484 1.058 . S
C498 O487 1.260 1_655 S
C498 O488 1.258 . S
C499 O495 1.260 1_455 S
C499 O496 1.258 . S
Zn500 O506 1.969 . S
Zn500 O507 1.965 1_565 S
Zn500 O511 2.024 . S
Zn500 O516 1.969 . S
Zn501 O508 1.969 . S
Zn501 O514 1.969 . S
Zn501 O515 1.965 1_545 S
Zn501 O517 2.024 . S
C502 O503 1.229 . S
C502 O511 1.058 . S
O503 C502 1.229 . S
C504 O505 1.229 . S
C504 O517 1.058 . S
O505 C504 1.229 . S
O506 Zn500 1.969 . S
O506 C509 1.267 . S
O507 Zn500 1.965 1_545 S
O507 C518 1.260 . S
O508 Zn501 1.969 . S
O508 C518 1.258 1_554 S
C509 O506 1.267 . S
C509 O510 1.228 . S
O510 C509 1.228 . S
O511 Zn500 2.024 . S
O511 C502 1.058 . S
C512 O513 1.228 . S
C512 O514 1.267 . S
O513 C512 1.228 . S
O514 Zn501 1.969 . S
O514 C512 1.267 . S
O515 Zn501 1.965 1_565 S
O515 C519 1.260 . S
O516 Zn500 1.969 . S
O516 C519 1.258 1_556 S
O517 Zn501 2.024 . S
O517 C504 1.058 . S
C518 O507 1.260 . S
C518 O508 1.258 1_556 S
C519 O515 1.260 . S
C519 O516 1.258 1_554 S
Zn520 O526 1.969 . S
Zn520 O527 1.965 . S
Zn520 O531 2.024 . S
Zn520 O536 1.969 . S
Zn521 O528 1.969 . S
Zn521 O534 1.969 . S
Zn521 O535 1.965 . S
Zn521 O537 2.024 . S
C522 O523 1.229 . S
C522 O531 1.058 . S
O523 C522 1.229 . S
C524 O525 1.229 . S
C524 O537 1.058 . S
O525 C524 1.229 . S
O526 Zn520 1.969 . S
O526 C529 1.267 . S
O527 Zn520 1.965 . S
O527 C538 1.260 . S
O528 Zn521 1.969 . S
O528 C538 1.258 . S
C529 O526 1.267 . S
C529 O530 1.228 . S
O530 C529 1.228 . S
O531 Zn520 2.024 . S
O531 C522 1.058 . S
C532 O533 1.228 . S
C532 O534 1.267 . S
O533 C532 1.228 . S
O534 Zn521 1.969 . S
O534 C532 1.267 . S
O535 Zn521 1.965 . S
O535 C539 1.260 . S
O536 Zn520 1.969 . S
O536 C539 1.258 . S
O537 Zn521 2.024 . S
O537 C524 1.058 . S
C538 O527 1.260 . S
C538 O528 1.258 . S
C539 O535 1.260 . S
C539 O536 1.258 . S
Zn540 O546 1.969 . S
Zn540 O547 1.965 1_556 S
Zn540 O551 2.024 . S
Zn540 O556 1.974 . S
Zn541 O548 1.969 . S
Zn541 O554 1.969 . S
Zn541 O555 1.965 1_554 S
Zn541 O557 2.024 . S
C542 O543 1.229 . S
C542 O551 1.058 . S
O543 C542 1.229 . S
C544 O545 1.229 . S
C544 O557 1.058 . S
O545 C544 1.229 . S
O546 Zn540 1.969 . S
O546 C549 1.267 . S
O547 Zn540 1.965 1_554 S
O547 C558 1.260 . S
O548 Zn541 1.969 . S
O548 C558 1.258 1_455 S
C549 O546 1.267 . S
C549 O550 1.228 . S
O550 C549 1.228 . S
O551 Zn540 2.024 . S
O551 C542 1.058 . S
C552 O553 1.228 . S
C552 O554 1.267 . S
O553 C552 1.228 . S
O554 Zn541 1.969 . S
O554 C552 1.267 . S
O555 Zn541 1.965 1_556 S
O555 C559 1.260 . S
O556 Zn540 1.974 . S
O556 C559 1.253 1_655 S
O557 Zn541 2.024 . S
O557 C544 1.058 . S
C558 O547 1.260 . S
C558 O548 1.258 1_655 S
C559 O555 1.260 . S
C559 O556 1.253 1_455 S
C560 C561 1.369 . S
C560 C562 1.419 . S
C560 H564 0.930 . S
C561 C560 1.369 . S
C561 C570 1.429 . S
C562 C560 1.419 . S
C562 C563 1.363 . S
C562 H565 0.929 . S
C563 C562 1.363 . S
C563 C569 1.428 . S
H564 C560 0.930 . S
H565 C562 0.929 . S
S566 N567 1.613 . S
S566 N568 1.610 . S
N567 S566 1.613 . S
N567 C570 1.350 . S
N568 S566 1.610 . S
N568 C569 1.351 . S
C569 C563 1.428 . S
C569 N568 1.351 . S
C569 C570 1.434 . S
C570 C561 1.429 . S
C570 N567 1.350 . S
C570 C569 1.434 . S
C571 C572 1.369 . S
C571 C573 1.419 . S
C571 H575 0.930 . S
C572 C571 1.369 . S
C572 C581 1.429 . S
C573 C571 1.419 . S
C573 C574 1.363 . S
C573 H576 0.929 . S
C574 C573 1.363 . S
C574 C580 1.428 . S
H575 C571 0.930 . S
H576 C573 0.929 . S
S577 N578 1.613 1_545 S
S577 N579 1.610 1_545 S
N578 S577 1.613 1_565 S
N578 C581 1.350 . S
N579 S577 1.610 1_565 S
N579 C580 1.351 . S
C580 C574 1.428 . S
C580 N579 1.351 . S
C580 C581 1.434 . S
C581 C572 1.429 . S
C581 N578 1.350 . S
C581 C580 1.434 . S
C582 C583 1.369 . S
C582 C584 1.419 . S
C582 H586 0.930 . S
C583 C582 1.369 . S
C583 C592 1.429 . S
C584 C582 1.419 . S
C584 C585 1.363 . S
C584 H587 0.929 . S
C585 C584 1.363 . S
C585 C591 1.428 . S
H586 C582 0.930 . S
H587 C584 0.929 . S
S588 N589 1.613 . S
S588 N590 1.610 . S
N589 S588 1.613 . S
N589 C592 1.350 . S
N590 S588 1.610 . S
N590 C591 1.351 . S
C591 C585 1.428 . S
C591 N590 1.351 . S
C591 C592 1.434 . S
C592 C583 1.429 . S
C592 N589 1.350 . S
C592 C591 1.434 . S
C593 C594 1.369 . S
C593 C595 1.419 . S
C593 H597 0.930 . S
C594 C593 1.369 . S
C594 C603 1.429 . S
C595 C593 1.419 . S
C595 C596 1.363 . S
C595 H598 0.929 . S
C596 C595 1.363 . S
C596 C602 1.428 . S
H597 C593 0.930 . S
H598 C595 0.929 . S
S599 N600 1.613 1_455 S
S599 N601 1.610 1_455 S
N600 S599 1.613 1_655 S
N600 C603 1.350 . S
N601 S599 1.610 1_655 S
N601 C602 1.351 . S
C602 C596 1.428 . S
C602 N601 1.351 . S
C602 C603 1.434 . S
C603 C594 1.429 . S
C603 N600 1.350 . S
C603 C602 1.434 . S
C604 C605 1.369 . S
C604 C606 1.419 . S
C604 H608 0.930 . S
C605 C604 1.369 . S
C605 C614 1.429 . S
C606 C604 1.419 . S
C606 C607 1.363 . S
C606 H609 0.929 . S
C607 C606 1.363 . S
C607 C613 1.428 . S
H608 C604 0.930 . S
H609 C606 0.929 . S
S610 N611 1.613 . S
S610 N612 1.610 . S
N611 S610 1.613 . S
N611 C614 1.350 . S
N612 S610 1.610 . S
N612 C613 1.351 . S
C613 C607 1.428 . S
C613 N612 1.351 . S
C613 C614 1.434 . S
C614 C605 1.429 . S
C614 N611 1.350 . S
C614 C613 1.434 . S
C615 C616 1.369 . S
C615 C617 1.419 . S
C615 H619 0.930 . S
C616 C615 1.369 . S
C616 C625 1.429 . S
C617 C615 1.419 . S
C617 C618 1.363 . S
C617 H620 0.929 . S
C618 C617 1.363 . S
C618 C624 1.428 . S
H619 C615 0.930 . S
H620 C617 0.929 . S
S621 N622 1.613 . S
S621 N623 1.610 . S
N622 S621 1.613 . S
N622 C625 1.350 . S
N623 S621 1.610 . S
N623 C624 1.351 . S
C624 C618 1.428 . S
C624 N623 1.351 . S
C624 C625 1.434 . S
C625 C616 1.429 . S
C625 N622 1.350 . S
C625 C624 1.434 . S
C626 C627 1.369 . S
C626 C628 1.419 . S
C626 H630 0.930 . S
C627 C626 1.369 . S
C627 C636 1.429 . S
C628 C626 1.419 . S
C628 C629 1.363 . S
C628 H631 0.929 . S
C629 C628 1.363 . S
C629 C635 1.428 . S
H630 C626 0.930 . S
H631 C628 0.929 . S
S632 N633 1.613 . S
S632 N634 1.610 . S
N633 S632 1.613 . S
N633 C636 1.350 . S
N634 S632 1.610 . S
N634 C635 1.351 . S
C635 C629 1.428 . S
C635 N634 1.351 . S
C635 C636 1.434 . S
C636 C627 1.429 . S
C636 N633 1.350 . S
C636 C635 1.434 . S
C637 C638 1.369 . S
C637 C639 1.419 . S
C637 H641 0.930 . S
C638 C637 1.369 . S
C638 C647 1.429 . S
C639 C637 1.419 . S
C639 C640 1.363 . S
C639 H642 0.929 . S
C640 C639 1.363 . S
C640 C646 1.428 . S
H641 C637 0.930 . S
H642 C639 0.929 . S
S643 N644 1.613 . S
S643 N645 1.610 . S
N644 S643 1.613 . S
N644 C647 1.350 . S
N645 S643 1.610 . S
N645 C646 1.351 . S
C646 C640 1.428 . S
C646 N645 1.351 . S
C646 C647 1.434 . S
C647 C638 1.429 . S
C647 N644 1.350 . S
C647 C646 1.434 . S
C648 C649 1.369 . S
C648 C650 1.419 . S
C648 H652 0.930 . S
C649 C648 1.369 . S
C649 C658 1.429 . S
C650 C648 1.419 . S
C650 C651 1.363 . S
C650 H653 0.929 . S
C651 C650 1.363 . S
C651 C657 1.428 . S
H652 C648 0.930 . S
H653 C650 0.929 . S
S654 N655 1.613 . S
S654 N656 1.610 . S
N655 S654 1.613 . S
N655 C658 1.350 . S
N656 S654 1.610 . S
N656 C657 1.351 . S
C657 C651 1.428 . S
C657 N656 1.351 . S
C657 C658 1.434 . S
C658 C649 1.429 . S
C658 N655 1.350 . S
C658 C657 1.434 . S
C659 C660 1.369 . S
C659 C661 1.419 . S
C659 H663 0.930 . S
C660 C659 1.369 . S
C660 C669 1.429 . S
C661 C659 1.419 . S
C661 C662 1.363 . S
C661 H664 0.929 . S
C662 C661 1.363 . S
C662 C668 1.428 . S
H663 C659 0.930 . S
H664 C661 0.929 . S
S665 N666 1.613 . S
S665 N667 1.610 . S
N666 S665 1.613 . S
N666 C669 1.350 . S
N667 S665 1.610 . S
N667 C668 1.351 . S
C668 C662 1.428 . S
C668 N667 1.351 . S
C668 C669 1.434 . S
C669 C660 1.429 . S
C669 N666 1.350 . S
C669 C668 1.434 . S
C670 C671 1.369 . S
C670 C672 1.419 . S
C670 H674 0.930 . S
C671 C670 1.369 . S
C671 C680 1.429 . S
C672 C670 1.419 . S
C672 C673 1.363 . S
C672 H675 0.929 . S
C673 C672 1.363 . S
C673 C679 1.428 . S
H674 C670 0.930 . S
H675 C672 0.929 . S
S676 N677 1.613 . S
S676 N678 1.610 . S
N677 S676 1.613 . S
N677 C680 1.350 . S
N678 S676 1.610 . S
N678 C679 1.351 . S
C679 C673 1.428 . S
C679 N678 1.351 . S
C679 C680 1.434 . S
C680 C671 1.429 . S
C680 N677 1.350 . S
C680 C679 1.434 . S
C681 C682 1.369 . S
C681 C683 1.419 . S
C681 H685 0.930 . S
C682 C681 1.369 . S
C682 C691 1.429 . S
C683 C681 1.419 . S
C683 C684 1.363 . S
C683 H686 0.929 . S
C684 C683 1.363 . S
C684 C690 1.428 . S
H685 C681 0.930 . S
H686 C683 0.929 . S
S687 N688 1.613 . S
S687 N689 1.610 . S
N688 S687 1.613 . S
N688 C691 1.350 . S
N689 S687 1.610 . S
N689 C690 1.351 . S
C690 C684 1.428 . S
C690 N689 1.351 . S
C690 C691 1.434 . S
C691 C682 1.429 . S
C691 N688 1.350 . S
C691 C690 1.434 . S
C692 C693 1.369 . S
C692 C694 1.419 . S
C692 H696 0.930 . S
C693 C692 1.369 . S
C693 C702 1.429 . S
C694 C692 1.419 . S
C694 C695 1.363 . S
C694 H697 0.929 . S
C695 C694 1.363 . S
C695 C701 1.428 . S
H696 C692 0.930 . S
H697 C694 0.929 . S
S698 N699 1.613 . S
S698 N700 1.610 . S
N699 S698 1.613 . S
N699 C702 1.350 . S
N700 S698 1.610 . S
N700 C701 1.351 . S
C701 C695 1.428 . S
C701 N700 1.351 . S
C701 C702 1.434 . S
C702 C693 1.429 . S
C702 N699 1.350 . S
C702 C701 1.434 . S
C703 C704 1.369 . S
C703 C705 1.419 . S
C703 H707 0.930 . S
C704 C703 1.369 . S
C704 C713 1.429 . S
C705 C703 1.419 . S
C705 C706 1.363 . S
C705 H708 0.929 . S
C706 C705 1.363 . S
C706 C712 1.428 . S
H707 C703 0.930 . S
H708 C705 0.929 . S
S709 N710 1.613 1_565 S
S709 N711 1.615 . S
N710 S709 1.613 1_545 S
N710 C713 1.350 . S
N711 S709 1.615 . S
N711 C712 1.333 1_565 S
C712 C706 1.428 . S
C712 N711 1.333 1_545 S
C712 C713 1.434 . S
C713 C704 1.429 . S
C713 N710 1.350 . S
C713 C712 1.434 . S
C714 C715 1.369 . S
C714 C716 1.419 . S
C714 H718 0.930 . S
C715 C714 1.369 . S
C715 C724 1.429 . S
C716 C714 1.419 . S
C716 C717 1.363 . S
C716 H719 0.929 . S
C717 C716 1.363 . S
C717 C723 1.428 . S
H718 C714 0.930 . S
H719 C716 0.929 . S
S720 N721 1.613 . S
S720 N722 1.610 . S
N721 S720 1.613 . S
N721 C724 1.350 . S
N722 S720 1.610 . S
N722 C723 1.351 . S
C723 C717 1.428 . S
C723 N722 1.351 . S
C723 C724 1.434 . S
C724 C715 1.429 . S
C724 N721 1.350 . S
C724 C723 1.434 . S
C725 C726 1.369 . S
C725 C727 1.419 . S
C725 H729 0.930 . S
C726 C725 1.369 . S
C726 C735 1.429 . S
C727 C725 1.419 . S
C727 C728 1.363 . S
C727 H730 0.929 . S
C728 C727 1.363 . S
C728 C734 1.428 . S
H729 C725 0.930 . S
H730 C727 0.929 . S
S731 N732 1.613 . S
S731 N733 1.610 . S
N732 S731 1.613 . S
N732 C735 1.350 . S
N733 S731 1.610 . S
N733 C734 1.351 . S
C734 C728 1.428 . S
C734 N733 1.351 . S
C734 C735 1.434 . S
C735 C726 1.429 . S
C735 N732 1.350 . S
C735 C734 1.434 . S
C736 C737 1.369 . S
C736 C738 1.419 . S
C736 H740 0.930 . S
C737 C736 1.369 . S
C737 C746 1.429 . S
C738 C736 1.419 . S
C738 C739 1.363 . S
C738 H741 0.929 . S
C739 C738 1.363 . S
C739 C745 1.428 . S
H740 C736 0.930 . S
H741 C738 0.929 . S
S742 N743 1.613 . S
S742 N744 1.610 . S
N743 S742 1.613 . S
N743 C746 1.350 . S
N744 S742 1.610 . S
N744 C745 1.351 . S
C745 C739 1.428 . S
C745 N744 1.351 . S
C745 C746 1.434 . S
C746 C737 1.429 . S
C746 N743 1.350 . S
C746 C745 1.434 . S
C747 C748 1.369 . S
C747 C749 1.419 . S
C747 H751 0.930 . S
C748 C747 1.369 . S
C748 C757 1.429 . S
C749 C747 1.419 . S
C749 C750 1.363 . S
C749 H752 0.929 . S
C750 C749 1.363 . S
C750 C756 1.428 . S
H751 C747 0.930 . S
H752 C749 0.929 . S
S753 N754 1.613 . S
S753 N755 1.610 . S
N754 S753 1.613 . S
N754 C757 1.350 . S
N755 S753 1.610 . S
N755 C756 1.351 . S
C756 C750 1.428 . S
C756 N755 1.351 . S
C756 C757 1.434 . S
C757 C748 1.429 . S
C757 N754 1.350 . S
C757 C756 1.434 . S
C758 C759 1.369 . S
C758 C760 1.419 . S
C758 H762 0.930 . S
C759 C758 1.369 . S
C759 C768 1.429 . S
C760 C758 1.419 . S
C760 C761 1.363 . S
C760 H763 0.929 . S
C761 C760 1.363 . S
C761 C767 1.428 . S
H762 C758 0.930 . S
H763 C760 0.929 . S
S764 N765 1.613 . S
S764 N766 1.610 . S
N765 S764 1.613 . S
N765 C768 1.350 . S
N766 S764 1.610 . S
N766 C767 1.351 . S
C767 C761 1.428 . S
C767 N766 1.351 . S
C767 C768 1.434 . S
C768 C759 1.429 . S
C768 N765 1.350 . S
C768 C767 1.434 . S
C769 C770 1.369 . S
C769 C771 1.419 . S
C769 H773 0.930 . S
C770 C769 1.369 . S
C770 C779 1.429 . S
C771 C769 1.419 . S
C771 C772 1.363 . S
C771 H774 0.929 . S
C772 C771 1.363 . S
C772 C778 1.428 . S
H773 C769 0.930 . S
H774 C771 0.929 . S
S775 N776 1.613 . S
S775 N777 1.610 . S
N776 S775 1.613 . S
N776 C779 1.350 . S
N777 S775 1.610 . S
N777 C778 1.351 . S
C778 C772 1.428 . S
C778 N777 1.351 . S
C778 C779 1.434 . S
C779 C770 1.429 . S
C779 N776 1.350 . S
C779 C778 1.434 . S
C780 C781 1.369 . S
C780 C782 1.419 . S
C780 H784 0.930 . S
C781 C780 1.369 . S
C781 C790 1.429 . S
C782 C780 1.419 . S
C782 C783 1.363 . S
C782 H785 0.929 . S
C783 C782 1.363 . S
C783 C789 1.428 . S
H784 C780 0.930 . S
H785 C782 0.929 . S
S786 N787 1.613 . S
S786 N788 1.610 . S
N787 S786 1.613 . S
N787 C790 1.350 . S
N788 S786 1.610 . S
N788 C789 1.351 . S
C789 C783 1.428 . S
C789 N788 1.351 . S
C789 C790 1.434 . S
C790 C781 1.429 . S
C790 N787 1.350 . S
C790 C789 1.434 . S
C791 C792 1.369 . S
C791 C793 1.419 . S
C791 H795 0.930 . S
C792 C791 1.369 . S
C792 C801 1.429 . S
C793 C791 1.419 . S
C793 C794 1.363 . S
C793 H796 0.929 . S
C794 C793 1.363 . S
C794 C800 1.428 . S
H795 C791 0.930 . S
H796 C793 0.929 . S
S797 N798 1.613 . S
S797 N799 1.610 . S
N798 S797 1.613 . S
N798 C801 1.350 . S
N799 S797 1.610 . S
N799 C800 1.351 . S
C800 C794 1.428 . S
C800 N799 1.351 . S
C800 C801 1.434 . S
C801 C792 1.429 . S
C801 N798 1.350 . S
C801 C800 1.434 . S
C802 C803 1.369 . S
C802 C804 1.419 . S
C802 H806 0.930 . S
C803 C802 1.369 . S
C803 C812 1.429 . S
C804 C802 1.419 . S
C804 C805 1.363 . S
C804 H807 0.929 . S
C805 C804 1.363 . S
C805 C811 1.428 . S
H806 C802 0.930 . S
H807 C804 0.929 . S
S808 N809 1.613 . S
S808 N810 1.610 . S
N809 S808 1.613 . S
N809 C812 1.350 . S
N810 S808 1.610 . S
N810 C811 1.351 . S
C811 C805 1.428 . S
C811 N810 1.351 . S
C811 C812 1.434 . S
C812 C803 1.429 . S
C812 N809 1.350 . S
C812 C811 1.434 . S
C813 C814 1.369 . S
C813 C815 1.419 . S
C813 H817 0.930 . S
C814 C813 1.369 . S
C814 C823 1.429 . S
C815 C813 1.419 . S
C815 C816 1.363 . S
C815 H818 0.929 . S
C816 C815 1.363 . S
C816 C822 1.428 . S
H817 C813 0.930 . S
H818 C815 0.929 . S
S819 N820 1.613 . S
S819 N821 1.610 . S
N820 S819 1.613 . S
N820 C823 1.350 . S
N821 S819 1.610 . S
N821 C822 1.351 . S
C822 C816 1.428 . S
C822 N821 1.351 . S
C822 C823 1.434 . S
C823 C814 1.429 . S
C823 N820 1.350 . S
C823 C822 1.434 . S
C561 C1 1.460 . S
C563 C499 1.489 . S
C572 C80 1.267 . S
C574 C502 1.259 . S
C585 C538 1.791 . S
C583 C140 1.806 . S
C594 C211 1.700 . S
C596 C558 1.689 . S
C607 C512 1.638 . S
C605 C31 1.637 . S
C618 C489 1.474 . S
C616 C61 1.466 . S
C629 C542 1.573 . S
C627 C151 1.658 . S
C640 C522 1.417 . S
C638 C200 1.559 . S
C649 C20 1.366 . S
C651 C552 1.324 . S
C662 C518 1.656 . S
C660 C121 1.665 . S
C671 C181 1.612 . S
C673 C484 1.614 . S
C682 C91 1.313 . S
C684 C532 1.298 . S
C695 C498 1.490 . S
C693 C260 1.503 . S
C704 C320 1.270 . S
C706 C504 1.262 . S
C715 C361 1.795 . S
C717 C539 1.792 . S
C726 C451 1.704 . S
C728 C559 1.693 . S
C737 C271 1.628 . S
C739 C509 1.637 . S
C750 C492 1.472 . S
C748 C301 1.465 . S
C761 C544 1.571 . S
C759 C380 1.633 . S
C772 C524 1.418 . S
C770 C440 1.559 . S
C781 C241 1.338 . S
C783 C549 1.328 . S
C794 C519 1.658 . S
C792 C391 1.650 . S
C805 C482 1.620 . S
C803 C421 1.614 . S
C814 C331 1.319 . S
C816 C529 1.304 . S
