# Generated by pormake.
# Topology llk, (3,12)-cn, num edge types: 1
# Building blocks:
#     Node 0, Type 0, BuildingBlock: PAMTOO_clean_linker_0, # of connection points: 3
#     Node 1, Type 0, BuildingBlock: PAMTOO_clean_linker_0, # of connection points: 3
#     Node 2, Type 0, BuildingBlock: PAMTOO_clean_linker_0, # of connection points: 3
#     Node 3, Type 0, BuildingBlock: PAMTOO_clean_linker_0, # of connection points: 3
#     Node 4, Type 0, BuildingBlock: PAMTOO_clean_linker_0, # of connection points: 3
#     Node 5, Type 0, BuildingBlock: PAMTOO_clean_linker_0, # of connection points: 3
#     Node 6, Type 0, BuildingBlock: PAMTOO_clean_linker_0, # of connection points: 3
#     Node 7, Type 0, BuildingBlock: PAMTOO_clean_linker_0, # of connection points: 3
#     Node 8, Type 0, BuildingBlock: PAMTOO_clean_linker_0, # of connection points: 3
#     Node 9, Type 0, BuildingBlock: PAMTOO_clean_linker_0, # of connection points: 3
#     Node 10, Type 0, BuildingBlock: PAMTOO_clean_linker_0, # of connection points: 3
#     Node 11, Type 0, BuildingBlock: PAMTOO_clean_linker_0, # of connection points: 3
#     Node 12, Type 0, BuildingBlock: PAMTOO_clean_linker_0, # of connection points: 3
#     Node 13, Type 0, BuildingBlock: PAMTOO_clean_linker_0, # of connection points: 3
#     Node 14, Type 0, BuildingBlock: PAMTOO_clean_linker_0, # of connection points: 3
#     Node 15, Type 0, BuildingBlock: PAMTOO_clean_linker_0, # of connection points: 3
#     Node 16, Type 0, BuildingBlock: PAMTOO_clean_linker_0, # of connection points: 3
#     Node 17, Type 0, BuildingBlock: PAMTOO_clean_linker_0, # of connection points: 3
#     Node 18, Type 0, BuildingBlock: PAMTOO_clean_linker_0, # of connection points: 3
#     Node 19, Type 0, BuildingBlock: PAMTOO_clean_linker_0, # of connection points: 3
#     Node 20, Type 0, BuildingBlock: PAMTOO_clean_linker_0, # of connection points: 3
#     Node 21, Type 0, BuildingBlock: PAMTOO_clean_linker_0, # of connection points: 3
#     Node 22, Type 0, BuildingBlock: PAMTOO_clean_linker_0, # of connection points: 3
#     Node 23, Type 0, BuildingBlock: PAMTOO_clean_linker_0, # of connection points: 3
#     Node 24, Type 1, BuildingBlock: EZIPEK_clean_sbu_0, # of connection points: 12
#     Node 25, Type 1, BuildingBlock: EZIPEK_clean_sbu_0, # of connection points: 12
#     Node 26, Type 1, BuildingBlock: EZIPEK_clean_sbu_0, # of connection points: 12
#     Node 27, Type 1, BuildingBlock: EZIPEK_clean_sbu_0, # of connection points: 12
#     Node 28, Type 1, BuildingBlock: EZIPEK_clean_sbu_0, # of connection points: 12
#     Node 29, Type 1, BuildingBlock: EZIPEK_clean_sbu_0, # of connection points: 12
#     Edge 30, Type (0, 1), BuildingBlock: OJICUG_clean_linker_0, # of connection points: 2
#     Edge 31, Type (0, 1), BuildingBlock: OJICUG_clean_linker_0, # of connection points: 2
#     Edge 32, Type (0, 1), BuildingBlock: OJICUG_clean_linker_0, # of connection points: 2
#     Edge 33, Type (0, 1), BuildingBlock: OJICUG_clean_linker_0, # of connection points: 2
#     Edge 34, Type (0, 1), BuildingBlock: OJICUG_clean_linker_0, # of connection points: 2
#     Edge 35, Type (0, 1), BuildingBlock: OJICUG_clean_linker_0, # of connection points: 2
#     Edge 36, Type (0, 1), BuildingBlock: OJICUG_clean_linker_0, # of connection points: 2
#     Edge 37, Type (0, 1), BuildingBlock: OJICUG_clean_linker_0, # of connection points: 2
#     Edge 38, Type (0, 1), BuildingBlock: OJICUG_clean_linker_0, # of connection points: 2
#     Edge 39, Type (0, 1), BuildingBlock: OJICUG_clean_linker_0, # of connection points: 2
#     Edge 40, Type (0, 1), BuildingBlock: OJICUG_clean_linker_0, # of connection points: 2
#     Edge 41, Type (0, 1), BuildingBlock: OJICUG_clean_linker_0, # of connection points: 2
#     Edge 42, Type (0, 1), BuildingBlock: OJICUG_clean_linker_0, # of connection points: 2
#     Edge 43, Type (0, 1), BuildingBlock: OJICUG_clean_linker_0, # of connection points: 2
#     Edge 44, Type (0, 1), BuildingBlock: OJICUG_clean_linker_0, # of connection points: 2
#     Edge 45, Type (0, 1), BuildingBlock: OJICUG_clean_linker_0, # of connection points: 2
#     Edge 46, Type (0, 1), BuildingBlock: OJICUG_clean_linker_0, # of connection points: 2
#     Edge 47, Type (0, 1), BuildingBlock: OJICUG_clean_linker_0, # of connection points: 2
#     Edge 48, Type (0, 1), BuildingBlock: OJICUG_clean_linker_0, # of connection points: 2
#     Edge 49, Type (0, 1), BuildingBlock: OJICUG_clean_linker_0, # of connection points: 2
#     Edge 50, Type (0, 1), BuildingBlock: OJICUG_clean_linker_0, # of connection points: 2
#     Edge 51, Type (0, 1), BuildingBlock: OJICUG_clean_linker_0, # of connection points: 2
#     Edge 52, Type (0, 1), BuildingBlock: OJICUG_clean_linker_0, # of connection points: 2
#     Edge 53, Type (0, 1), BuildingBlock: OJICUG_clean_linker_0, # of connection points: 2
#     Edge 54, Type (0, 1), BuildingBlock: OJICUG_clean_linker_0, # of connection points: 2
#     Edge 55, Type (0, 1), BuildingBlock: OJICUG_clean_linker_0, # of connection points: 2
#     Edge 56, Type (0, 1), BuildingBlock: OJICUG_clean_linker_0, # of connection points: 2
#     Edge 57, Type (0, 1), BuildingBlock: OJICUG_clean_linker_0, # of connection points: 2
#     Edge 58, Type (0, 1), BuildingBlock: OJICUG_clean_linker_0, # of connection points: 2
#     Edge 59, Type (0, 1), BuildingBlock: OJICUG_clean_linker_0, # of connection points: 2
#     Edge 60, Type (0, 1), BuildingBlock: OJICUG_clean_linker_0, # of connection points: 2
#     Edge 61, Type (0, 1), BuildingBlock: OJICUG_clean_linker_0, # of connection points: 2
#     Edge 62, Type (0, 1), BuildingBlock: OJICUG_clean_linker_0, # of connection points: 2
#     Edge 63, Type (0, 1), BuildingBlock: OJICUG_clean_linker_0, # of connection points: 2
#     Edge 64, Type (0, 1), BuildingBlock: OJICUG_clean_linker_0, # of connection points: 2
#     Edge 65, Type (0, 1), BuildingBlock: OJICUG_clean_linker_0, # of connection points: 2
#     Edge 66, Type (0, 1), BuildingBlock: OJICUG_clean_linker_0, # of connection points: 2
#     Edge 67, Type (0, 1), BuildingBlock: OJICUG_clean_linker_0, # of connection points: 2
#     Edge 68, Type (0, 1), BuildingBlock: OJICUG_clean_linker_0, # of connection points: 2
#     Edge 69, Type (0, 1), BuildingBlock: OJICUG_clean_linker_0, # of connection points: 2
#     Edge 70, Type (0, 1), BuildingBlock: OJICUG_clean_linker_0, # of connection points: 2
#     Edge 71, Type (0, 1), BuildingBlock: OJICUG_clean_linker_0, # of connection points: 2
#     Edge 72, Type (0, 1), BuildingBlock: OJICUG_clean_linker_0, # of connection points: 2
#     Edge 73, Type (0, 1), BuildingBlock: OJICUG_clean_linker_0, # of connection points: 2
#     Edge 74, Type (0, 1), BuildingBlock: OJICUG_clean_linker_0, # of connection points: 2
#     Edge 75, Type (0, 1), BuildingBlock: OJICUG_clean_linker_0, # of connection points: 2
#     Edge 76, Type (0, 1), BuildingBlock: OJICUG_clean_linker_0, # of connection points: 2
#     Edge 77, Type (0, 1), BuildingBlock: OJICUG_clean_linker_0, # of connection points: 2
#     Edge 78, Type (0, 1), BuildingBlock: OJICUG_clean_linker_0, # of connection points: 2
#     Edge 79, Type (0, 1), BuildingBlock: OJICUG_clean_linker_0, # of connection points: 2
#     Edge 80, Type (0, 1), BuildingBlock: OJICUG_clean_linker_0, # of connection points: 2
#     Edge 81, Type (0, 1), BuildingBlock: OJICUG_clean_linker_0, # of connection points: 2
#     Edge 82, Type (0, 1), BuildingBlock: OJICUG_clean_linker_0, # of connection points: 2
#     Edge 83, Type (0, 1), BuildingBlock: OJICUG_clean_linker_0, # of connection points: 2
#     Edge 84, Type (0, 1), BuildingBlock: OJICUG_clean_linker_0, # of connection points: 2
#     Edge 85, Type (0, 1), BuildingBlock: OJICUG_clean_linker_0, # of connection points: 2
#     Edge 86, Type (0, 1), BuildingBlock: OJICUG_clean_linker_0, # of connection points: 2
#     Edge 87, Type (0, 1), BuildingBlock: OJICUG_clean_linker_0, # of connection points: 2
#     Edge 88, Type (0, 1), BuildingBlock: OJICUG_clean_linker_0, # of connection points: 2
#     Edge 89, Type (0, 1), BuildingBlock: OJICUG_clean_linker_0, # of connection points: 2
#     Edge 90, Type (0, 1), BuildingBlock: OJICUG_clean_linker_0, # of connection points: 2
#     Edge 91, Type (0, 1), BuildingBlock: OJICUG_clean_linker_0, # of connection points: 2
#     Edge 92, Type (0, 1), BuildingBlock: OJICUG_clean_linker_0, # of connection points: 2
#     Edge 93, Type (0, 1), BuildingBlock: OJICUG_clean_linker_0, # of connection points: 2
#     Edge 94, Type (0, 1), BuildingBlock: OJICUG_clean_linker_0, # of connection points: 2
#     Edge 95, Type (0, 1), BuildingBlock: OJICUG_clean_linker_0, # of connection points: 2
#     Edge 96, Type (0, 1), BuildingBlock: OJICUG_clean_linker_0, # of connection points: 2
#     Edge 97, Type (0, 1), BuildingBlock: OJICUG_clean_linker_0, # of connection points: 2
#     Edge 98, Type (0, 1), BuildingBlock: OJICUG_clean_linker_0, # of connection points: 2
#     Edge 99, Type (0, 1), BuildingBlock: OJICUG_clean_linker_0, # of connection points: 2
#     Edge 100, Type (0, 1), BuildingBlock: OJICUG_clean_linker_0, # of connection points: 2
#     Edge 101, Type (0, 1), BuildingBlock: OJICUG_clean_linker_0, # of connection points: 2
# Relax obj value: 0.070
# Max RMSD: 0.163
# Mean RMSD: 0.123
data_MOF--net-llk--node1-EZIPEK_clean_sbu_0--node2-PAMTOO_clean_linker_0--edge1-OJICUG_clean_linker_0
_symmetry_space_group_name_H-M    P1
_symmetry_Int_Tables_number       1
_symmetry_cell_setting            triclinic
loop_
_symmetry_equiv_pos_as_xyz
'x, y, z'
_cell_length_a     35.091607
_cell_length_b     35.591478
_cell_length_c     35.328886
_cell_angle_alpha  90.001134
_cell_angle_beta   90.009964
_cell_angle_gamma 90.007126
loop_
_atom_site_label
_atom_site_type_symbol
_atom_site_fract_x
_atom_site_fract_y
_atom_site_fract_z
_atom_type_partial_charge
H0 H 0.02234 0.36963 0.26086 0.0
H1 H 0.02512 0.2679 0.32537 0.0
H2 H 0.01318 0.26282 0.20405 0.0
H3 H 0.97889 0.18373 0.2596 0.0
C4 C 0.98957 0.20244 0.28244 0.0
O5 O 0.02041 0.22271 0.26852 0.0
H6 H 0.96538 0.22138 0.28977 0.0
C7 C 0.02095 0.33919 0.26162 0.0
C8 C 0.01655 0.31914 0.22784 0.0
C9 C 0.02226 0.32117 0.29669 0.0
C10 C 0.0236 0.28207 0.29828 0.0
C11 C 0.02035 0.26078 0.2652 0.0
C12 C 0.0165 0.27925 0.22963 0.0
H13 H 0.76849 1.00385 0.36293 0.0
H14 H 0.70022 1.00538 0.26231 0.0
H15 H 0.82192 0.0186 0.25425 0.0
H16 H 0.764 0.05589 0.17858 0.0
C17 C 0.74183 0.04432 0.19776 0.0
O18 O 0.75646 1.01281 0.2157 0.0
H19 H 0.7351 0.06704 0.21844 0.0
C20 C 0.76651 1.00631 0.33238 0.0
C21 C 0.79966 1.01212 0.31123 0.0
C22 C 0.73061 1.00563 0.31535 0.0
C23 C 0.72788 1.00609 0.27594 0.0
C24 C 0.76059 1.01055 0.25378 0.0
C25 C 0.79675 1.01398 0.27135 0.0
H26 H 0.02035 0.76447 0.36404 0.0
H27 H 0.02257 0.70088 0.26127 0.0
H28 H 0.01284 0.82144 0.25654 0.0
H29 H 0.97754 0.76563 0.1762 0.0
C30 C 0.98782 0.74337 0.19574 0.0
O31 O 0.01867 0.7574 0.216 0.0
H32 H 0.96339 0.73688 0.21482 0.0
C33 C 0.01905 0.76391 0.33337 0.0
C34 C 0.01559 0.79766 0.31325 0.0
C35 C 0.01996 0.72914 0.31505 0.0
C36 C 0.02145 0.72773 0.27567 0.0
C37 C 0.01876 0.76064 0.25435 0.0
C38 C 0.01557 0.79595 0.27304 0.0
H39 H 0.36717 1.00722 0.25614 0.0
H40 H 0.26515 1.0065 0.32277 0.0
H41 H 0.25806 0.02045 0.20193 0.0
H42 H 0.17889 0.05483 0.2618 0.0
C43 C 0.20008 0.04407 0.28251 0.0
O44 O 0.21872 1.01356 0.26659 0.0
H45 H 0.22016 0.06772 0.28808 0.0
C46 C 0.33636 1.00922 0.25774 0.0
C47 C 0.31533 1.0148 0.22458 0.0
C48 C 0.31883 1.00803 0.2932 0.0
C49 C 0.27915 1.00767 0.29546 0.0
C50 C 0.25712 1.01201 0.26279 0.0
C51 C 0.27511 1.016 0.22709 0.0
H52 H 0.02275 0.66296 0.75876 0.0
H53 H 0.02531 0.76465 0.69419 0.0
H54 H 0.01369 0.76979 0.81553 0.0
H55 H 0.97917 0.84878 0.76001 0.0
C56 C 0.98985 0.83011 0.73714 0.0
O57 O 0.02073 0.80988 0.75102 0.0
H58 H 0.96567 0.81115 0.72981 0.0
C59 C 0.02134 0.6934 0.75798 0.0
C60 C 0.01703 0.71346 0.79177 0.0
C61 C 0.02255 0.7114 0.7229 0.0
C62 C 0.02387 0.7505 0.72129 0.0
C63 C 0.0207 0.7718 0.75436 0.0
C64 C 0.01695 0.75336 0.78995 0.0
H65 H 0.36743 0.02471 0.76279 0.0
H66 H 0.26505 0.02612 0.69671 0.0
H67 H 0.25853 1.01237 0.81761 0.0
H68 H 0.17872 0.97846 0.75821 0.0
C69 C 0.19994 0.98894 0.73741 0.0
O70 O 0.21888 0.01939 0.75313 0.0
H71 H 0.21981 0.9651 0.73193 0.0
C72 C 0.3366 0.0229 0.76137 0.0
C73 C 0.31572 0.01755 0.79467 0.0
C74 C 0.31887 0.02421 0.72601 0.0
C75 C 0.27919 0.02484 0.72395 0.0
C76 C 0.25731 0.02069 0.75674 0.0
C77 C 0.27547 0.01663 0.79236 0.0
H78 H 0.02033 0.26814 0.6556 0.0
H79 H 0.02251 0.33188 0.75828 0.0
H80 H 0.01271 0.21133 0.76318 0.0
H81 H 0.97734 0.26715 0.84332 0.0
C82 C 0.98769 0.28945 0.82385 0.0
O83 O 0.01856 0.27542 0.80363 0.0
H84 H 0.96331 0.29601 0.80473 0.0
C85 C 0.01902 0.26875 0.68627 0.0
C86 C 0.01552 0.23503 0.70643 0.0
C87 C 0.01992 0.30355 0.70454 0.0
C88 C 0.02138 0.30501 0.74392 0.0
C89 C 0.01866 0.27213 0.76528 0.0
C90 C 0.01547 0.23679 0.74664 0.0
H91 H 0.76799 0.02835 0.65655 0.0
H92 H 0.70021 0.0276 0.75748 0.0
H93 H 0.822 1.01496 0.76515 0.0
H94 H 0.76481 0.97824 0.8415 0.0
C95 C 0.74246 0.98936 0.82225 0.0
O96 O 0.75671 0.02081 0.80391 0.0
H97 H 0.7359 0.96634 0.80185 0.0
C98 C 0.76616 0.02616 0.68713 0.0
C99 C 0.79945 0.02073 0.7082 0.0
C100 C 0.73034 0.02692 0.70432 0.0
C101 C 0.7278 0.02682 0.74374 0.0
C102 C 0.76064 0.02271 0.7658 0.0
C103 C 0.79672 0.01927 0.74811 0.0
H104 H 0.26035 0.36994 1.0032 0.0
H105 H 0.33022 0.27119 1.00258 0.0
H106 H 0.2086 0.26091 0.01529 0.0
H107 H 0.26838 0.18552 0.05022 0.0
C108 C 0.29052 0.20451 0.0384 0.0
O109 O 0.27503 0.22369 1.00781 0.0
H110 H 0.29837 0.22416 0.06171 0.0
C111 C 0.26284 0.33963 1.00529 0.0
C112 C 0.22998 0.31807 0.0106 0.0
C113 C 0.299 0.32334 1.00427 0.0
C114 C 0.30237 0.28426 1.00377 0.0
C115 C 0.27007 0.26155 1.00745 0.0
C116 C 0.23354 0.27838 0.01137 0.0
H117 H 0.26262 0.66269 0.01727 0.0
H118 H 0.33064 0.7626 0.01907 0.0
H119 H 0.20889 0.77094 1.00589 0.0
H120 H 0.26854 0.84781 0.97134 0.0
C121 C 0.29042 0.8284 0.98292 0.0
O122 O 0.27474 0.8092 0.01341 0.0
H123 H 0.29786 0.80883 0.95941 0.0
C124 C 0.26444 0.69308 0.01553 0.0
C125 C 0.23117 0.71409 0.01039 0.0
C126 C 0.30028 0.71004 0.01683 0.0
C127 C 0.30299 0.74912 0.0177 0.0
C128 C 0.27034 0.77128 0.01391 0.0
C129 C 0.2341 0.75385 0.00982 0.0
H130 H 0.76778 0.36805 0.01684 0.0
H131 H 0.70003 0.26792 0.01741 0.0
H132 H 0.822 0.2601 1.00565 0.0
H133 H 0.76404 0.18351 0.9693 0.0
C134 C 0.74186 0.2029 0.98034 0.0
O135 O 0.75646 0.22163 0.01157 0.0
H136 H 0.73524 0.22275 0.95682 0.0
C137 C 0.76603 0.33765 0.01506 0.0
C138 C 0.79935 0.31672 0.0103 0.0
C139 C 0.73028 0.32057 0.01592 0.0
C140 C 0.72766 0.28147 0.01643 0.0
C141 C 0.7605 0.2595 0.0128 0.0
C142 C 0.79666 0.27704 1.00939 0.0
H143 H 0.76977 0.66479 1.00206 0.0
H144 H 0.70059 0.76399 1.00136 0.0
H145 H 0.82241 0.77344 0.01353 0.0
H146 H 0.76447 0.84875 0.04982 0.0
C147 C 0.74204 0.82974 0.03859 0.0
O148 O 0.75644 0.81105 1.00725 0.0
H149 H 0.73506 0.80981 0.06193 0.0
C150 C 0.76754 0.69515 1.00386 0.0
C151 C 0.80051 0.71655 1.00881 0.0
C152 C 0.73156 0.71171 1.00288 0.0
C153 C 0.7284 0.7508 1.00244 0.0
C154 C 0.76093 0.77322 1.00614 0.0
C155 C 0.7973 0.75617 0.0097 0.0
H156 H 0.5222 0.8697 0.76082 0.0
H157 H 0.52508 0.76796 0.82531 0.0
H158 H 0.51348 0.76288 0.70396 0.0
H159 H 0.47926 0.68368 0.7594 0.0
C160 C 0.48984 0.7024 0.78228 0.0
O161 O 0.52064 0.72277 0.76844 0.0
H162 H 0.46557 0.72127 0.78958 0.0
C163 C 0.52087 0.83926 0.76158 0.0
C164 C 0.51663 0.8192 0.72777 0.0
C165 C 0.52214 0.82123 0.79665 0.0
C166 C 0.52358 0.78213 0.79822 0.0
C167 C 0.52048 0.76085 0.76513 0.0
C168 C 0.51667 0.77931 0.72956 0.0
H169 H 0.26858 0.50496 0.86309 0.0
H170 H 0.2003 0.5056 0.76245 0.0
H171 H 0.32199 0.51878 0.75429 0.0
H172 H 0.26442 0.55549 0.67839 0.0
C173 C 0.24213 0.54416 0.69759 0.0
O174 O 0.25655 0.51272 0.7158 0.0
H175 H 0.23543 0.56706 0.71807 0.0
C176 C 0.26658 0.5072 0.83253 0.0
C177 C 0.29973 0.51281 0.81131 0.0
C178 C 0.23067 0.5063 0.8155 0.0
C179 C 0.22794 0.50648 0.77608 0.0
C180 C 0.26067 0.51078 0.75389 0.0
C181 C 0.29681 0.51433 0.77143 0.0
H182 H 0.51974 0.26443 0.86406 0.0
H183 H 0.52216 0.20084 0.7613 0.0
H184 H 0.51244 0.3214 0.75654 0.0
H185 H 0.47722 0.26554 0.67617 0.0
C186 C 0.48752 0.24326 0.69568 0.0
O187 O 0.51832 0.25733 0.71601 0.0
H188 H 0.46308 0.23671 0.71473 0.0
C189 C 0.51849 0.26387 0.83339 0.0
C190 C 0.51509 0.29763 0.81327 0.0
C191 C 0.51944 0.2291 0.81507 0.0
C192 C 0.52099 0.22769 0.7757 0.0
C193 C 0.51833 0.26059 0.75436 0.0
C194 C 0.51513 0.29591 0.77305 0.0
H195 H 0.86746 0.50777 0.7563 0.0
H196 H 0.76537 0.50629 0.8228 0.0
H197 H 0.75831 0.51999 0.70192 0.0
H198 H 0.67868 0.55377 0.76185 0.0
C199 C 0.70004 0.54327 0.7825 0.0
O200 O 0.71895 0.51291 0.76658 0.0
H201 H 0.71989 0.56713 0.78795 0.0
C202 C 0.83664 0.50954 0.75785 0.0
C203 C 0.8156 0.51487 0.72465 0.0
C204 C 0.81906 0.50823 0.79328 0.0
C205 C 0.77939 0.50756 0.7955 0.0
C206 C 0.75736 0.51168 0.76281 0.0
C207 C 0.77536 0.51575 0.72711 0.0
H208 H 0.52207 0.16306 0.25859 0.0
H209 H 0.52468 0.26481 0.19411 0.0
H210 H 0.51335 0.26985 0.3155 0.0
H211 H 0.47893 0.349 0.26024 0.0
C212 C 0.48947 0.33036 0.23728 0.0
O213 O 0.52034 0.31 0.251 0.0
H214 H 0.46521 0.31147 0.22999 0.0
C215 C 0.5207 0.1935 0.25785 0.0
C216 C 0.51651 0.21353 0.29166 0.0
C217 C 0.52187 0.21154 0.22278 0.0
C218 C 0.52325 0.25064 0.22121 0.0
C219 C 0.5202 0.27192 0.25431 0.0
C220 C 0.5165 0.25344 0.28989 0.0
H221 H 0.86725 0.52485 0.26285 0.0
H222 H 0.76486 0.52611 0.19678 0.0
H223 H 0.75837 0.51235 0.31768 0.0
H224 H 0.67872 0.47823 0.25849 0.0
C225 C 0.69979 0.4888 0.23758 0.0
O226 O 0.7187 0.51931 0.25321 0.0
H227 H 0.71971 0.46504 0.23197 0.0
C228 C 0.83642 0.52301 0.26144 0.0
C229 C 0.81555 0.51762 0.29473 0.0
C230 C 0.81868 0.5243 0.22608 0.0
C231 C 0.779 0.52486 0.22402 0.0
C232 C 0.75713 0.52066 0.25681 0.0
C233 C 0.7753 0.51664 0.29243 0.0
H234 H 0.52262 0.77005 0.15574 0.0
H235 H 0.52869 0.83187 0.25956 0.0
H236 H 0.51857 0.71131 0.26234 0.0
H237 H 0.47848 0.76714 0.34254 0.0
C238 C 0.48944 0.7893 0.32325 0.0
O239 O 0.52069 0.77499 0.3038 0.0
H240 H 0.46557 0.79593 0.30353 0.0
C241 C 0.52388 0.77009 0.18641 0.0
C242 C 0.52274 0.73587 0.20602 0.0
C243 C 0.52652 0.80451 0.2053 0.0
C244 C 0.52621 0.80534 0.24471 0.0
C245 C 0.52196 0.77224 0.26543 0.0
C246 C 0.52035 0.7371 0.2462 0.0
H247 H 0.26767 0.52841 0.15665 0.0
H248 H 0.20019 0.52738 0.25776 0.0
H249 H 0.32203 0.51487 0.26506 0.0
H250 H 0.26487 0.478 0.34161 0.0
C251 C 0.24255 0.48913 0.32233 0.0
O252 O 0.25683 0.52058 0.30403 0.0
H253 H 0.23602 0.46611 0.30192 0.0
C254 C 0.26595 0.52615 0.18724 0.0
C255 C 0.2993 0.52073 0.20819 0.0
C256 C 0.23019 0.5268 0.20453 0.0
C257 C 0.22775 0.52665 0.24395 0.0
C258 C 0.26066 0.52255 0.26591 0.0
C259 C 0.2967 0.51918 0.2481 0.0
H260 H 0.76131 0.86983 0.5037 0.0
H261 H 0.83034 0.77055 0.50284 0.0
H262 H 0.70862 0.76115 0.51538 0.0
H263 H 0.76844 0.68503 0.55028 0.0
C264 C 0.79044 0.70424 0.53857 0.0
O265 O 0.77482 0.72346 0.50807 0.0
H266 H 0.7981 0.72384 0.56199 0.0
C267 C 0.76349 0.83949 0.5057 0.0
C268 C 0.73043 0.81818 0.51084 0.0
C269 C 0.79951 0.82289 0.50467 0.0
C270 C 0.80258 0.78381 0.50404 0.0
C271 C 0.77012 0.76135 0.50767 0.0
C272 C 0.7337 0.77845 0.51155 0.0
H273 H 0.76124 0.16281 0.51611 0.0
H274 H 0.83034 0.26207 0.51681 0.0
H275 H 0.70862 0.27149 0.50421 0.0
H276 H 0.76852 0.34753 0.46921 0.0
C277 C 0.79049 0.32832 0.48095 0.0
O278 O 0.77484 0.30917 0.51149 0.0
H279 H 0.79813 0.30868 0.45757 0.0
C280 C 0.76345 0.19315 0.51407 0.0
C281 C 0.7304 0.21447 0.50887 0.0
C282 C 0.79947 0.20974 0.51507 0.0
C283 C 0.80257 0.24882 0.51564 0.0
C284 C 0.77011 0.27129 0.51196 0.0
C285 C 0.73369 0.25419 0.50809 0.0
H286 H 0.26864 0.868 0.51628 0.0
H287 H 0.2002 0.7683 0.51689 0.0
H288 H 0.32214 0.7597 0.50535 0.0
H289 H 0.26428 0.68362 0.46902 0.0
C290 C 0.24195 0.70284 0.48005 0.0
O291 O 0.25638 0.72165 0.51131 0.0
H292 H 0.2352 0.72267 0.45655 0.0
C293 C 0.26665 0.83762 0.51451 0.0
C294 C 0.29982 0.81646 0.50982 0.0
C295 C 0.23079 0.82079 0.51537 0.0
C296 C 0.22792 0.78169 0.51591 0.0
C297 C 0.26062 0.7595 0.51239 0.0
C298 C 0.29689 0.77681 0.509 0.0
H299 H 0.26862 0.16468 0.50292 0.0
H300 H 0.20025 0.26441 0.50249 0.0
H301 H 0.32222 0.27295 0.51383 0.0
H302 H 0.26436 0.34908 0.55027 0.0
C303 C 0.24203 0.32984 0.53925 0.0
O304 O 0.25645 0.31104 0.50798 0.0
H305 H 0.23531 0.31 0.56275 0.0
C306 C 0.26666 0.19506 0.50471 0.0
C307 C 0.29986 0.2162 0.50935 0.0
C308 C 0.23081 0.21191 0.50394 0.0
C309 C 0.22797 0.25101 0.50341 0.0
C310 C 0.26069 0.27319 0.50688 0.0
C311 C 0.29696 0.25586 0.51021 0.0
C312 C 0.01422 0.92865 0.6062 0.0
C313 C 0.01585 0.92252 0.41966 0.0
C314 C 0.01577 0.11018 0.60005 0.0
C315 C 0.0142 0.10404 0.41345 0.0
C316 C 0.92456 0.10709 0.50905 0.0
C317 C 0.92461 0.92556 0.51057 0.0
C318 C 0.10735 0.1076 0.50834 0.0
C319 C 0.10736 0.92515 0.51136 0.0
C320 C 0.1082 0.01619 0.41681 0.0
C321 C 0.92476 1.01516 0.41701 0.0
C322 C 0.10813 0.01662 0.60298 0.0
C323 C 0.92465 0.01759 0.60251 0.0
Eu324 Eu 0.01607 0.94482 0.51241 0.0
O325 O 0.98243 0.98157 0.47735 0.0
O326 O 0.05004 0.98416 0.54449 0.0
Eu327 Eu 0.94445 0.01633 0.50978 0.0
Eu328 Eu 0.08872 0.01637 0.50988 0.0
O329 O 0.98257 0.98412 0.54463 0.0
O330 O 0.05028 0.98154 0.47755 0.0
Eu331 Eu 0.01633 0.01903 0.58131 0.0
Eu332 Eu 0.01639 1.01366 0.43836 0.0
O333 O 0.98244 0.05115 0.54222 0.0
O334 O 0.98264 0.04861 0.47503 0.0
O335 O 0.05002 0.04861 0.47527 0.0
O336 O 0.05019 0.05123 0.54212 0.0
Eu337 Eu 0.01605 0.08798 0.50726 0.0
O338 O 0.01348 0.9154 0.57058 0.0
O339 O 0.01475 0.91212 0.4562 0.0
O340 O 0.0147 0.12061 0.56351 0.0
O341 O 0.01342 0.11733 0.44906 0.0
O342 O 0.913 0.07141 0.50934 0.0
O343 O 0.91303 0.96122 0.51022 0.0
O344 O 0.11919 0.07211 0.51157 0.0
O345 O 0.1192 0.96064 0.50818 0.0
O346 O 0.07183 1.0133 0.4065 0.0
O347 O 0.96085 1.01206 0.40574 0.0
O348 O 0.07175 0.01947 0.61325 0.0
O349 O 0.96074 0.02066 0.61384 0.0
O350 O 0.07152 0.11935 0.50509 0.0
O351 O 0.96039 0.11928 0.50855 0.0
O352 O 0.07152 0.91341 0.51458 0.0
O353 O 0.96045 0.91342 0.51111 0.0
O354 O 0.01752 0.95788 0.40729 0.0
O355 O 0.01589 0.06768 0.40423 0.0
O356 O 0.01585 0.96501 0.61544 0.0
O357 O 0.01742 0.07481 0.61239 0.0
O358 O 0.91299 1.01508 0.56646 0.0
O359 O 0.91305 0.01764 0.45305 0.0
O360 O 0.12063 1.01418 0.56709 0.0
O361 O 0.12067 0.01861 0.45271 0.0
C362 C 0.52011 0.92883 0.10412 0.0
C363 C 0.51624 0.11016 0.09795 0.0
C364 C 0.51665 0.9225 0.92158 0.0
C365 C 0.51357 0.10385 0.91547 0.0
C366 C 0.60993 1.01356 0.91896 0.0
C367 C 0.60953 0.01979 0.10077 0.0
C368 C 0.42275 1.01365 0.9187 0.0
C369 C 0.4224 0.01845 0.10075 0.0
C370 C 0.42163 0.1067 0.01072 0.0
C371 C 0.60928 0.10711 1.00616 0.0
C372 C 0.42231 0.92517 0.01002 0.0
C373 C 0.61003 0.92632 0.01289 0.0
Eu374 Eu 0.51592 0.01849 0.08169 0.0
O375 O 0.54925 0.05122 0.04259 0.0
O376 O 0.48222 0.98319 0.04475 0.0
Eu377 Eu 0.58697 0.01668 0.0098 0.0
Eu378 Eu 0.44433 1.01597 0.00981 0.0
O379 O 0.54923 0.98398 0.04424 0.0
O380 O 0.48222 0.05069 0.0424 0.0
Eu381 Eu 0.51618 0.94444 0.01186 0.0
Eu382 Eu 0.51554 0.08818 1.00775 0.0
O383 O 0.54972 0.98162 0.97696 0.0
O384 O 0.54935 0.04936 0.97499 0.0
O385 O 0.48239 0.04867 0.97511 0.0
O386 O 0.48275 0.9818 0.97714 0.0
Eu387 Eu 0.51634 1.01415 0.93782 0.0
O388 O 0.51801 0.96454 0.11527 0.0
O389 O 0.51427 0.07487 0.11047 0.0
O390 O 0.51498 0.95779 0.90903 0.0
O391 O 0.51671 0.0682 0.90436 0.0
O392 O 0.62 0.01611 0.9552 0.0
O393 O 0.61973 0.01731 0.06456 0.0
O394 O 0.41145 0.01622 0.95462 0.0
O395 O 0.4112 1.01575 0.06482 0.0
O396 O 0.45779 0.11921 0.01068 0.0
O397 O 0.57312 0.11943 1.00412 0.0
O398 O 0.45855 0.91287 0.01062 0.0
O399 O 0.57398 0.91366 0.01402 0.0
O400 O 0.45904 1.01199 0.90693 0.0
O401 O 0.57387 1.0117 0.90637 0.0
O402 O 0.45865 0.02025 0.11259 0.0
O403 O 0.57341 0.02146 0.11325 0.0
O404 O 0.51839 0.12126 0.06203 0.0
O405 O 0.51179 0.11637 0.95099 0.0
O406 O 0.51918 0.91616 0.06863 0.0
O407 O 0.51852 0.91138 0.95751 0.0
O408 O 0.62003 0.96238 0.01083 0.0
O409 O 0.61953 0.0712 1.00917 0.0
O410 O 0.41192 0.96119 0.00986 0.0
O411 O 0.41148 0.0706 0.00986 0.0
C412 C 0.01369 0.42639 0.1038 0.0
C413 C 0.01145 0.42099 0.92099 0.0
C414 C 0.01163 0.61173 0.09877 0.0
C415 C 0.01438 0.60629 0.9159 0.0
C416 C 0.92298 0.60926 1.00889 0.0
C417 C 0.92223 0.42405 0.01057 0.0
C418 C 0.10607 0.60819 1.00746 0.0
C419 C 0.10525 0.42387 0.01282 0.0
C420 C 0.10489 0.51235 0.91838 0.0
C421 C 0.92097 0.51523 0.91908 0.0
C422 C 0.10444 0.51988 0.10182 0.0
C423 C 0.92057 0.51786 0.1003 0.0
Eu424 Eu 0.01363 0.4453 0.01206 0.0
O425 O 0.97973 0.48209 0.97725 0.0
O426 O 0.04702 0.48412 0.04494 0.0
Eu427 Eu 0.94135 0.51659 0.00974 0.0
Eu428 Eu 0.08542 0.51609 0.01005 0.0
O429 O 0.97943 0.48404 0.04462 0.0
O430 O 0.04729 0.48189 0.97703 0.0
Eu431 Eu 0.01298 0.51868 0.08201 0.0
Eu432 Eu 0.0133 0.51401 0.93775 0.0
O433 O 0.97991 0.5509 0.0423 0.0
O434 O 0.97989 0.5489 0.97506 0.0
O435 O 0.04741 0.54841 0.97498 0.0
O436 O 0.04736 0.55061 0.04284 0.0
Eu437 Eu 0.01422 0.5875 1.00767 0.0
O438 O 0.01556 0.41441 0.06811 0.0
O439 O 0.01292 0.41175 0.95757 0.0
O440 O 0.01346 0.62098 0.0622 0.0
O441 O 0.01637 0.61831 0.95158 0.0
O442 O 0.91082 0.57358 0.01125 0.0
O443 O 0.91035 0.45982 1.00818 0.0
O444 O 0.11756 0.57222 1.00685 0.0
O445 O 0.11705 0.45973 0.01354 0.0
O446 O 0.069 0.5114 0.90612 0.0
O447 O 0.95704 0.51478 0.90733 0.0
O448 O 0.06852 0.52109 0.11391 0.0
O449 O 0.95661 0.51808 0.11219 0.0
O450 O 0.06995 0.61961 1.00889 0.0
O451 O 0.95912 0.62014 1.00582 0.0
O452 O 0.06906 0.41273 0.0111 0.0
O453 O 0.9583 0.41296 0.01372 0.0
O454 O 0.01071 0.45638 0.90769 0.0
O455 O 0.01249 0.5701 0.90513 0.0
O456 O 0.01196 0.46258 0.1146 0.0
O457 O 0.01052 0.57633 0.11204 0.0
O458 O 0.90862 0.51757 0.06456 0.0
O459 O 0.90888 0.51572 0.95477 0.0
O460 O 0.11615 0.51784 0.06596 0.0
O461 O 0.11644 0.51419 0.95431 0.0
C462 C 0.51362 0.42898 0.10631 0.0
C463 C 0.51868 0.61056 0.0997 0.0
C464 C 0.51546 0.42252 0.91971 0.0
C465 C 0.51462 0.60408 0.91332 0.0
C466 C 0.60848 0.51549 0.91699 0.0
C467 C 0.60765 0.51659 0.10326 0.0
C468 C 0.42498 0.51593 0.91685 0.0
C469 C 0.42429 0.51799 0.10223 0.0
C470 C 0.42571 0.60809 0.00976 0.0
C471 C 0.60839 0.60687 1.00708 0.0
C472 C 0.4239 0.42644 0.01011 0.0
C473 C 0.60669 0.42458 0.0116 0.0
Eu474 Eu 0.5159 0.51934 0.08121 0.0
O475 O 0.55044 0.55101 0.04214 0.0
O476 O 0.48214 0.48444 0.04452 0.0
Eu477 Eu 0.58877 0.51591 0.01005 0.0
Eu478 Eu 0.44452 0.51709 0.0096 0.0
O479 O 0.54957 0.48414 0.04452 0.0
O480 O 0.48258 0.55185 0.042 0.0
Eu481 Eu 0.51553 0.44489 0.01249 0.0
Eu482 Eu 0.517 0.5881 1.0071 0.0
O483 O 0.55009 0.48132 0.97766 0.0
O484 O 0.55055 0.54838 0.97516 0.0
O485 O 0.48321 0.54893 0.97495 0.0
O486 O 0.48235 0.48196 0.97733 0.0
Eu487 Eu 0.51661 0.5137 0.9383 0.0
O488 O 0.51537 0.46536 0.11546 0.0
O489 O 0.51539 0.57532 0.11212 0.0
O490 O 0.51743 0.45785 0.90732 0.0
O491 O 0.51637 0.56771 0.90414 0.0
O492 O 0.62088 0.51782 0.95293 0.0
O493 O 0.62028 0.51368 0.06745 0.0
O494 O 0.41325 0.51866 0.95285 0.0
O495 O 0.41273 0.51585 0.06613 0.0
O496 O 0.46166 0.61996 0.00991 0.0
O497 O 0.57271 0.61881 1.00313 0.0
O498 O 0.45964 0.41402 0.01092 0.0
O499 O 0.57077 0.41307 0.01477 0.0
O500 O 0.46107 0.51244 0.90564 0.0
O501 O 0.57212 0.5129 0.90658 0.0
O502 O 0.46035 0.5207 0.11367 0.0
O503 O 0.57125 0.52001 0.11334 0.0
O504 O 0.52093 0.62078 0.06316 0.0
O505 O 0.51385 0.6174 0.94891 0.0
O506 O 0.51278 0.41565 0.07072 0.0
O507 O 0.51415 0.41216 0.95627 0.0
O508 O 0.61879 0.45999 1.00848 0.0
O509 O 0.61983 0.57138 0.01146 0.0
O510 O 0.41261 0.46221 0.00973 0.0
O511 O 0.4138 0.57253 1.00917 0.0
C512 C 0.01393 0.42872 0.60401 0.0
C513 C 0.01685 0.42252 0.42156 0.0
C514 C 0.0168 0.61009 0.59799 0.0
C515 C 0.01392 0.60389 0.41546 0.0
C516 C 0.92193 0.60701 0.51073 0.0
C517 C 0.92199 0.42557 0.50873 0.0
C518 C 0.1096 0.60673 0.50597 0.0
C519 C 0.10962 0.42594 0.51354 0.0
C520 C 0.10994 0.51331 0.41894 0.0
C521 C 0.92276 0.51392 0.41862 0.0
C522 C 0.10983 0.51946 0.60068 0.0
C523 C 0.92266 0.51866 0.60074 0.0
Eu524 Eu 0.01584 0.44453 0.51176 0.0
O525 O 0.98252 0.48194 0.47698 0.0
O526 O 0.04946 0.48351 0.54451 0.0
Eu527 Eu 0.94436 0.51629 0.5097 0.0
Eu528 Eu 0.08701 0.51633 0.50979 0.0
O529 O 0.98241 0.48374 0.54448 0.0
O530 O 0.04956 0.48159 0.47694 0.0
Eu531 Eu 0.01625 0.51843 0.58172 0.0
Eu532 Eu 0.01633 0.51418 0.43777 0.0
O533 O 0.98252 0.55071 0.54243 0.0
O534 O 0.98248 0.54891 0.47501 0.0
O535 O 0.04943 0.54918 0.47508 0.0
O536 O 0.04946 0.5511 0.54255 0.0
Eu537 Eu 0.0158 0.58819 0.50774 0.0
O538 O 0.01225 0.41624 0.56848 0.0
O539 O 0.01881 0.41142 0.45749 0.0
O540 O 0.01879 0.62122 0.56207 0.0
O541 O 0.0122 0.6164 0.45098 0.0
O542 O 0.91168 0.57095 0.5098 0.0
O543 O 0.91171 0.46161 0.5096 0.0
O544 O 0.11974 0.57078 0.50898 0.0
O545 O 0.11977 0.46189 0.51058 0.0
O546 O 0.07387 0.51164 0.40633 0.0
O547 O 0.95904 0.51209 0.40685 0.0
O548 O 0.07375 0.52107 0.61323 0.0
O549 O 0.95893 0.52052 0.61256 0.0
O550 O 0.07349 0.61918 0.50403 0.0
O551 O 0.95812 0.61942 0.51077 0.0
O552 O 0.07351 0.4135 0.51545 0.0
O553 O 0.95819 0.4132 0.50872 0.0
O554 O 0.01497 0.4578 0.40901 0.0
O555 O 0.01689 0.56824 0.40433 0.0
O556 O 0.01684 0.46438 0.61516 0.0
O557 O 0.01489 0.5748 0.61051 0.0
O558 O 0.91141 0.5159 0.56483 0.0
O559 O 0.91147 0.51666 0.45452 0.0
O560 O 0.11995 0.51705 0.56444 0.0
O561 O 0.12002 0.5157 0.45519 0.0
C562 C 0.51391 0.92636 0.60364 0.0
C563 C 0.51194 0.92087 0.42078 0.0
C564 C 0.51142 0.11169 0.59858 0.0
C565 C 0.51409 0.10622 0.4157 0.0
C566 C 0.42255 0.10887 0.50875 0.0
C567 C 0.42259 0.92368 0.51032 0.0
C568 C 0.60562 0.10848 0.50696 0.0
C569 C 0.60561 0.92412 0.51269 0.0
C570 C 0.60484 1.01239 0.41816 0.0
C571 C 0.42092 1.01482 0.4189 0.0
C572 C 0.60454 0.02015 0.60156 0.0
C573 C 0.42063 0.01754 0.60014 0.0
Eu574 Eu 0.5139 0.94523 0.51188 0.0
O575 O 0.47984 0.98189 0.47707 0.0
O576 O 0.54717 0.98417 0.54474 0.0
Eu577 Eu 0.44134 0.01627 0.50956 0.0
Eu578 Eu 0.58541 0.01629 0.50982 0.0
O579 O 0.47959 0.98388 0.54443 0.0
O580 O 0.54739 0.98195 0.47683 0.0
Eu581 Eu 0.51303 0.01864 0.58182 0.0
Eu582 Eu 0.51326 1.01392 0.43754 0.0
O583 O 0.47978 0.05071 0.54213 0.0
O584 O 0.47973 0.04872 0.47485 0.0
O585 O 0.54723 0.04845 0.47478 0.0
O586 O 0.54724 0.0507 0.54261 0.0
Eu587 Eu 0.51389 0.08744 0.50747 0.0
O588 O 0.51584 0.91437 0.56795 0.0
O589 O 0.51341 0.91166 0.45737 0.0
O590 O 0.51312 0.12094 0.56201 0.0
O591 O 0.51596 0.11825 0.45138 0.0
O592 O 0.41055 0.07314 0.51109 0.0
O593 O 0.41058 0.9594 0.50795 0.0
O594 O 0.61728 0.07256 0.50635 0.0
O595 O 0.61727 0.96004 0.51336 0.0
O596 O 0.56896 1.01143 0.40591 0.0
O597 O 0.45699 1.01445 0.40715 0.0
O598 O 0.56862 0.02119 0.61368 0.0
O599 O 0.45667 0.01791 0.61202 0.0
O600 O 0.56947 0.11976 0.50855 0.0
O601 O 0.45866 0.11989 0.50568 0.0
O602 O 0.56946 0.91286 0.51099 0.0
O603 O 0.4587 0.9127 0.51349 0.0
O604 O 0.511 0.95627 0.40748 0.0
O605 O 0.51233 0.07002 0.40492 0.0
O606 O 0.51211 0.96255 0.61442 0.0
O607 O 0.51045 0.07629 0.61186 0.0
O608 O 0.40866 0.01715 0.56441 0.0
O609 O 0.40885 1.01532 0.4546 0.0
O610 O 0.61621 0.01822 0.56568 0.0
O611 O 0.6164 1.01429 0.45408 0.0
C612 C 0.19773 0.15733 0.53235 0.0
C613 C 0.19692 0.18782 0.50707 0.0
H614 H 0.16998 0.10774 0.55199 0.0
C615 C 0.16469 0.19366 0.48432 0.0
H616 H 0.22171 0.15292 0.55118 0.0
C617 C 0.13455 0.16807 0.48551 0.0
C618 C 0.13683 0.13639 0.50909 0.0
H619 H 0.16341 0.21706 0.46476 0.0
H620 H 0.11029 0.17219 0.46699 0.0
C621 C 0.16819 0.13157 0.53297 0.0
C622 C 0.8665 0.1926 0.53318 0.0
C623 C 0.83339 0.18552 0.512 0.0
H624 H 0.92219 0.17288 0.54845 0.0
C625 C 0.83217 0.15424 0.48771 0.0
H626 H 0.86821 0.21658 0.55197 0.0
C627 C 0.86223 0.1291 0.48656 0.0
C628 C 0.8946 0.13537 0.50869 0.0
H629 H 0.80765 0.14882 0.46989 0.0
H630 H 0.86011 0.10465 0.46844 0.0
C631 C 0.89719 0.1677 0.53126 0.0
C632 C 0.86652 0.84003 0.48649 0.0
C633 C 0.83345 0.84709 0.50772 0.0
H634 H 0.92219 0.85978 0.47114 0.0
C635 C 0.83228 0.87835 0.53204 0.0
H636 H 0.8682 0.81607 0.46768 0.0
C637 C 0.86235 0.90349 0.53316 0.0
C638 C 0.89467 0.89726 0.51098 0.0
H639 H 0.80779 0.88376 0.5499 0.0
H640 H 0.86026 0.92794 0.5513 0.0
C641 C 0.89722 0.86494 0.48838 0.0
C642 C 0.19766 0.87543 0.48711 0.0
C643 C 0.19689 0.8449 0.51234 0.0
H644 H 0.16988 0.92506 0.4676 0.0
C645 C 0.16472 0.83905 0.53516 0.0
H646 H 0.22159 0.87986 0.46823 0.0
C647 C 0.13459 0.86464 0.53407 0.0
C648 C 0.13682 0.89636 0.51053 0.0
H649 H 0.16348 0.81561 0.55469 0.0
H650 H 0.11037 0.86051 0.55263 0.0
C651 C 0.16814 0.9012 0.4866 0.0
C652 C 0.49169 0.15916 0.18785 0.0
C653 C 0.51817 0.18874 0.18823 0.0
H654 H 0.47078 0.11097 0.15874 0.0
C655 C 0.54144 0.19489 0.15649 0.0
H656 H 0.47247 0.15457 0.21142 0.0
C657 C 0.53974 0.1702 0.12576 0.0
C658 C 0.5151 0.13917 0.12699 0.0
H659 H 0.56188 0.21769 0.15611 0.0
H660 H 0.55886 0.17426 0.10203 0.0
C661 C 0.49051 0.13435 0.15773 0.0
C662 C 0.87318 0.49588 0.19197 0.0
C663 C 0.84226 0.52096 0.19176 0.0
H664 H 0.92231 0.47572 0.16296 0.0
C665 C 0.83494 0.54254 0.15926 0.0
H666 H 0.87868 0.47779 0.21603 0.0
C667 C 0.85956 0.54041 0.12825 0.0
C668 C 0.89176 0.51711 0.12992 0.0
H669 H 0.81112 0.56186 0.15835 0.0
H670 H 0.85446 0.5581 0.10383 0.0
C671 C 0.89797 0.49438 0.16157 0.0
C672 C 0.50611 0.87056 0.19178 0.0
C673 C 0.52912 0.83939 0.18307 0.0
H674 H 0.4853 0.92416 0.17307 0.0
C675 C 0.55228 0.84024 0.15072 0.0
H676 H 0.488 0.87049 0.21661 0.0
C677 C 0.5501 0.87023 0.12578 0.0
C678 C 0.52533 0.90019 0.13317 0.0
H679 H 0.57104 0.81701 0.14395 0.0
H680 H 0.56716 0.86957 0.10021 0.0
C681 C 0.50442 0.90105 0.16695 0.0
C682 C 0.16306 0.54489 0.18756 0.0
C683 C 0.19595 0.52349 0.18061 0.0
H684 H 0.10743 0.56034 0.16753 0.0
C685 C 0.19676 0.49876 0.14962 0.0
H686 H 0.16171 0.56396 0.21141 0.0
C687 C 0.16653 0.49734 0.12451 0.0
C688 C 0.13441 0.51981 0.13041 0.0
H689 H 0.22115 0.48083 0.14435 0.0
H690 H 0.16838 0.47878 0.10027 0.0
C691 C 0.13221 0.54287 0.16258 0.0
C692 C 0.54176 0.83781 0.86296 0.0
C693 C 0.51849 0.84402 0.83121 0.0
H694 H 0.55919 0.85836 0.91746 0.0
C695 C 0.49203 0.87361 0.83163 0.0
H696 H 0.56219 0.81501 0.86331 0.0
C697 C 0.49087 0.89837 0.86179 0.0
C698 C 0.51545 0.89349 0.89253 0.0
H699 H 0.47281 0.87824 0.80807 0.0
H700 H 0.47116 0.92177 0.86081 0.0
C701 C 0.54007 0.86245 0.89373 0.0
C702 C 0.1974 0.53358 0.87094 0.0
C703 C 0.19655 0.5092 0.83966 0.0
H704 H 0.16904 0.55312 0.92047 0.0
C705 C 0.16363 0.48785 0.83256 0.0
H706 H 0.22177 0.55149 0.87637 0.0
C707 C 0.13279 0.48966 0.85755 0.0
C708 C 0.135 0.51243 0.88992 0.0
H709 H 0.16222 0.46903 0.80851 0.0
H710 H 0.10796 0.47229 0.85241 0.0
C711 C 0.16717 0.53477 0.89607 0.0
C712 C 0.53849 0.16293 0.83083 0.0
C713 C 0.51559 0.19458 0.83769 0.0
H714 H 0.55549 0.10838 0.85056 0.0
C715 C 0.48912 0.1939 0.86747 0.0
H716 H 0.55893 0.16278 0.80787 0.0
C717 C 0.48756 0.16344 0.89179 0.0
C718 C 0.51186 0.13276 0.88632 0.0
H719 H 0.4702 0.21742 0.87258 0.0
H720 H 0.46789 0.16422 0.91545 0.0
C721 C 0.53649 0.13195 0.85506 0.0
C722 C 0.87377 0.53663 0.82715 0.0
C723 C 0.84277 0.51164 0.82752 0.0
H724 H 0.92295 0.55687 0.85607 0.0
C725 C 0.8354 0.49028 0.86015 0.0
H726 H 0.87932 0.55457 0.80299 0.0
C727 C 0.86 0.49258 0.89117 0.0
C728 C 0.89225 0.51581 0.88937 0.0
H729 H 0.81153 0.47102 0.8612 0.0
H730 H 0.85483 0.47508 0.91571 0.0
C731 C 0.89856 0.53828 0.85756 0.0
C732 C 0.69878 0.65677 0.03095 0.0
C733 C 0.69786 0.68731 1.00573 0.0
H734 H 0.67121 0.60705 0.05053 0.0
C735 C 0.66572 0.69294 0.98282 0.0
H736 H 0.72268 0.6525 0.04989 0.0
C737 C 0.63573 0.66718 0.98388 0.0
C738 C 0.63806 0.63551 1.00749 0.0
H739 H 0.66437 0.71637 0.9633 0.0
H740 H 0.61149 0.67123 0.96533 0.0
C741 C 0.66939 0.63083 0.03144 0.0
C742 C 0.33375 0.65579 0.98815 0.0
C743 C 0.33444 0.68626 0.01344 0.0
H744 H 0.36225 0.60698 0.96773 0.0
C745 C 0.3672 0.6929 0.03529 0.0
H746 H 0.30947 0.65077 0.96988 0.0
C747 C 0.39805 0.66818 0.03312 0.0
C748 C 0.39593 0.63654 1.00952 0.0
H749 H 0.36846 0.71633 0.05482 0.0
H750 H 0.42272 0.67284 0.05096 0.0
C751 C 0.36398 0.63088 0.98663 0.0
C752 C 0.33128 0.37942 0.03103 0.0
C753 C 0.33274 0.34786 1.00712 0.0
H754 H 0.35896 0.42931 0.04996 0.0
C755 C 0.36597 0.34074 0.98615 0.0
H756 H 0.30669 0.38492 0.04873 0.0
C757 C 0.39656 0.36576 0.988 0.0
C758 C 0.39378 0.3983 0.01025 0.0
H759 H 0.36789 0.31658 0.96761 0.0
H760 H 0.4217 0.36047 0.97104 0.0
C761 C 0.36124 0.4047 0.03207 0.0
C762 C 0.6968 0.3747 0.9872 0.0
C763 C 0.69624 0.34443 0.01273 0.0
H764 H 0.66881 0.42408 0.96737 0.0
C765 C 0.66414 0.33863 0.03568 0.0
H766 H 0.72067 0.37906 0.96823 0.0
C767 C 0.63393 0.36413 0.03448 0.0
C768 C 0.63601 0.39566 0.0107 0.0
H769 H 0.66307 0.31536 0.05541 0.0
H770 H 0.6098 0.36011 0.05319 0.0
C771 C 0.66719 0.40036 0.98656 0.0
C772 C 0.0421 0.69477 0.65659 0.0
C773 C 0.01888 0.68858 0.68836 0.0
H774 H 0.05943 0.6742 0.60207 0.0
C775 C 0.99241 0.65898 0.688 0.0
H776 H 0.06252 0.71759 0.6562 0.0
C777 C 0.9912 0.63421 0.65784 0.0
C778 C 0.01572 0.63908 0.62706 0.0
H779 H 0.97323 0.65436 0.71158 0.0
H780 H 0.97147 0.61082 0.65886 0.0
C781 C 0.04036 0.67012 0.62583 0.0
C782 C 0.33507 0.04233 0.65915 0.0
C783 C 0.34243 0.02082 0.69169 0.0
H784 H 0.35452 0.05777 0.60365 0.0
C785 C 0.37334 0.99572 0.69191 0.0
H786 H 0.31126 0.06166 0.65822 0.0
C787 C 0.39809 0.99415 0.66147 0.0
C788 C 0.39184 0.01681 0.62978 0.0
H789 H 0.37887 0.97768 0.716 0.0
H790 H 0.42243 0.9755 0.66287 0.0
C791 C 0.35965 0.04013 0.62811 0.0
C792 C 0.98967 0.33861 0.65198 0.0
C793 C 0.01607 0.33803 0.68185 0.0
H794 H 0.96849 0.36818 0.60392 0.0
C795 C 0.03887 0.36975 0.68873 0.0
H796 H 0.97081 0.31503 0.64685 0.0
C797 C 0.03684 0.4007 0.66447 0.0
C798 C 0.0123 0.39979 0.63314 0.0
H799 H 0.05925 0.36998 0.71176 0.0
H800 H 0.05576 0.42434 0.669 0.0
C801 C 0.9881 0.36904 0.62763 0.0
C802 C 0.66321 0.04507 0.68731 0.0
C803 C 0.69614 0.02372 0.68031 0.0
H804 H 0.60754 0.06049 0.66737 0.0
C805 C 0.69696 0.9991 0.64923 0.0
H806 H 0.66183 0.06406 0.71123 0.0
C807 C 0.66672 0.99772 0.62413 0.0
C808 C 0.63456 0.02011 0.63012 0.0
H809 H 0.72136 0.9812 0.6439 0.0
H810 H 0.66858 0.97923 0.59984 0.0
C811 C 0.63235 0.04308 0.66235 0.0
C812 C 0.04202 0.33783 0.36294 0.0
C813 C 0.01867 0.34398 0.33125 0.0
H814 H 0.05954 0.35846 0.41739 0.0
C815 C 0.99216 0.37353 0.33169 0.0
H816 H 0.06248 0.31505 0.36327 0.0
C817 C 0.99103 0.39832 0.36183 0.0
C818 C 0.01569 0.39351 0.39251 0.0
H819 H 0.97288 0.3781 0.30817 0.0
H820 H 0.97127 0.42167 0.36087 0.0
C821 C 0.04037 0.36251 0.39369 0.0
C822 C 0.66347 0.98754 0.33237 0.0
C823 C 0.69651 1.00867 0.33951 0.0
H824 H 0.60769 0.97234 0.35217 0.0
C825 C 0.69751 0.03305 0.37079 0.0
H826 H 0.66195 0.96875 0.30831 0.0
C827 C 0.66727 0.03445 0.39589 0.0
C828 C 0.63495 1.01233 0.38971 0.0
H829 H 0.722 0.05079 0.37624 0.0
H830 H 0.66925 0.05278 0.42029 0.0
C831 C 0.63262 0.98956 0.35733 0.0
C832 C 0.98962 0.69399 0.36748 0.0
C833 C 0.01607 0.69462 0.33767 0.0
H834 H 0.96837 0.66435 0.41547 0.0
C835 C 0.03892 0.66293 0.33081 0.0
H836 H 0.97074 0.71754 0.37259 0.0
C837 C 0.03688 0.63196 0.35504 0.0
C838 C 0.01227 0.63282 0.38632 0.0
H839 H 0.05934 0.66275 0.30783 0.0
H840 H 0.05583 0.60835 0.35054 0.0
C841 C 0.98802 0.66353 0.3918 0.0
C842 C 0.37376 0.03616 0.32693 0.0
C843 C 0.34261 1.01134 0.32739 0.0
H844 H 0.42307 0.05622 0.35573 0.0
C845 C 0.33517 0.9901 0.36008 0.0
H846 H 0.37937 0.05402 0.30272 0.0
C847 C 0.35982 0.99234 0.39107 0.0
C848 C 0.39219 1.0154 0.38919 0.0
H849 H 0.31119 0.97097 0.36121 0.0
H850 H 0.35457 0.97494 0.41567 0.0
C851 C 0.39859 0.03775 0.35731 0.0
C852 C 0.99342 0.19197 0.35407 0.0
C853 C 1.00034 0.17898 0.317 0.0
H854 H 0.99236 0.17893 0.41357 0.0
C855 C 0.0149 0.14252 0.31243 0.0
H856 H 0.98225 0.21998 0.35856 0.0
C857 C 0.0204 0.11892 0.34379 0.0
C858 C 0.01187 0.13111 0.38088 0.0
H859 H 0.02076 0.13177 0.28435 0.0
H860 H 0.03071 0.09068 0.33874 0.0
C861 C 0.99918 0.16838 0.38563 0.0
C862 C 0.86815 0.99582 0.32686 0.0
C863 C 0.83564 0.01805 0.33294 0.0
H864 H 0.92222 0.97741 0.34897 0.0
C865 C 0.83478 0.04182 0.36485 0.0
H866 H 0.86955 0.97707 0.30275 0.0
C867 C 0.86382 0.0409 0.39178 0.0
C868 C 0.89527 0.01718 0.387 0.0
H869 H 0.81037 0.05974 0.37009 0.0
H870 H 0.86138 0.05846 0.41668 0.0
C871 C 0.89797 0.99569 0.35355 0.0
C872 C 0.98875 0.83216 0.3694 0.0
C873 C 0.01123 0.83302 0.33621 0.0
H874 H 0.97381 0.85852 0.42187 0.0
C875 C 0.03311 0.86542 0.32923 0.0
H876 H 0.9707 0.80821 0.37545 0.0
C877 C 0.03402 0.89503 0.35583 0.0
C878 C 0.01375 0.89246 0.39028 0.0
H879 H 0.05084 0.86712 0.30421 0.0
H880 H 0.05182 0.91926 0.35017 0.0
C881 C 0.99058 0.86097 0.39626 0.0
C882 C 0.14679 1.01058 0.31667 0.0
C883 C 0.17969 0.03279 0.31868 0.0
H884 H 0.09911 0.98733 0.34603 0.0
C885 C 0.19175 0.04586 0.35443 0.0
H886 H 0.13708 0.99983 0.28965 0.0
C887 C 0.16997 0.03868 0.38713 0.0
C888 C 0.13566 0.0184 0.38461 0.0
H889 H 0.21729 0.06278 0.35685 0.0
H890 H 0.17894 0.05061 0.41389 0.0
C891 C 0.12507 1.00353 0.3491 0.0
C892 C 0.01503 0.89011 0.70718 0.0
C893 C 1.00055 0.85362 0.7026 0.0
H894 H 0.03071 0.94201 0.68091 0.0
C895 C 0.99363 0.84064 0.66552 0.0
H896 H 0.02088 0.90086 0.73527 0.0
C897 C 0.99933 0.86427 0.63397 0.0
C898 C 0.01194 0.90156 0.63875 0.0
H899 H 0.98252 0.81261 0.66101 0.0
H900 H 0.99252 0.85372 0.60603 0.0
C901 C 0.02047 0.91375 0.67584 0.0
C902 C 0.14669 0.0224 0.70314 0.0
C903 C 0.17957 1.00018 0.70119 0.0
H904 H 0.09902 0.0456 0.67371 0.0
C905 C 0.19165 0.98706 0.66548 0.0
H906 H 0.13697 0.03321 0.73013 0.0
C907 C 0.16987 0.99417 0.63275 0.0
C908 C 0.13557 1.01446 0.63521 0.0
H909 H 0.21718 0.97013 0.66311 0.0
H910 H 0.17885 0.9822 0.60602 0.0
C911 C 0.12498 0.0294 0.67069 0.0
C912 C 0.98861 0.20048 0.65035 0.0
C913 C 0.01112 0.19965 0.68351 0.0
H914 H 0.97364 0.17412 0.59788 0.0
C915 C 0.03304 0.16727 0.69048 0.0
H916 H 0.97054 0.22442 0.6443 0.0
C917 C 0.03395 0.13766 0.66387 0.0
C918 C 0.01364 0.14022 0.62944 0.0
H919 H 0.0508 0.1656 0.71549 0.0
H920 H 0.05178 0.11346 0.66952 0.0
C921 C 0.99044 0.17168 0.62348 0.0
C922 C 0.83456 0.99108 0.65454 0.0
C923 C 0.83541 1.01487 0.68643 0.0
H924 H 0.86122 0.97437 0.60277 0.0
C925 C 0.86794 0.03708 0.69254 0.0
H926 H 0.81017 0.97313 0.64928 0.0
C927 C 0.8978 0.03717 0.6659 0.0
C928 C 0.89512 1.01564 0.63248 0.0
H929 H 0.86934 0.05584 0.71664 0.0
H930 H 0.92206 0.05542 0.6705 0.0
C931 C 0.86364 0.99195 0.62766 0.0
C932 C 0.33128 0.99917 0.15639 0.0
C933 C 0.33745 0.02094 0.18901 0.0
H934 H 0.35357 0.98127 0.10253 0.0
C935 C 0.36973 0.04452 0.19023 0.0
H936 H 0.30689 0.9806 0.15468 0.0
C937 C 0.39695 0.04375 0.16147 0.0
C938 C 0.39205 0.02046 0.12991 0.0
H939 H 0.37505 0.06217 0.21466 0.0
H940 H 0.42216 0.06107 0.16422 0.0
C941 C 0.35823 0.99923 0.12685 0.0
C942 C 0.03305 0.33613 0.15972 0.0
C943 C 0.01108 0.342 0.19248 0.0
H944 H 0.0512 0.3583 0.10589 0.0
C945 C 0.98787 0.37442 0.194 0.0
H946 H 0.05139 0.31175 0.15757 0.0
C947 C 0.98907 0.40168 0.16551 0.0
C948 C 0.01232 0.39681 0.13368 0.0
H949 H 0.96989 0.37964 0.21837 0.0
H950 H 0.97181 0.4267 0.1685 0.0
C951 C 0.03331 0.36309 0.13041 0.0
C952 C 0.66971 0.04403 0.18762 0.0
C953 C 0.70655 0.03439 0.175 0.0
H954 H 0.60989 0.04694 0.1743 0.0
C955 C 0.71041 0.01664 0.13983 0.0
H956 H 0.66589 0.0574 0.21489 0.0
C957 C 0.6786 1.01062 0.11674 0.0
C958 C 0.64185 0.02201 0.12823 0.0
H959 H 0.73833 1.00847 0.12964 0.0
H960 H 0.68309 0.99771 0.08933 0.0
C961 C 0.63764 0.0379 0.16446 0.0
C962 C 0.98943 0.672 0.18607 0.0
C963 C 0.99842 0.7084 0.17303 0.0
H964 H 0.98658 0.61288 0.17327 0.0
C965 C 0.01495 0.71202 0.13705 0.0
H966 H 0.97676 0.66825 0.21376 0.0
C967 C 0.02033 0.68049 0.11382 0.0
C968 C 0.00967 0.64415 0.12592 0.0
H969 H 0.02244 0.73955 0.1263 0.0
H970 H 0.0322 0.68484 0.08586 0.0
C971 C 0.99507 0.64024 0.16285 0.0
C972 C 0.33169 0.03299 0.86293 0.0
C973 C 0.33798 1.01144 0.83019 0.0
H974 H 0.35381 0.05063 0.91696 0.0
C975 C 0.37035 0.98799 0.82891 0.0
H976 H 0.30722 0.05145 0.86473 0.0
C977 C 0.3975 0.98866 0.85774 0.0
C978 C 0.39247 1.01172 0.88944 0.0
H979 H 0.37575 0.97045 0.80441 0.0
H980 H 0.42278 0.97144 0.85493 0.0
C981 C 0.35859 0.03283 0.89254 0.0
C982 C 0.98956 0.36081 0.83354 0.0
C983 C 0.99828 0.32437 0.84664 0.0
H984 H 0.98691 0.41994 0.84631 0.0
C985 C 0.01453 0.32068 0.88275 0.0
H986 H 0.9771 0.36461 0.80576 0.0
C987 C 0.0199 0.35218 0.90602 0.0
C988 C 0.00951 0.38856 0.89384 0.0
H989 H 0.02182 0.29312 0.89356 0.0
H990 H 0.03154 0.34778 0.93407 0.0
C991 C 0.99519 0.39255 0.8568 0.0
C992 C 0.71091 0.0169 0.88018 0.0
C993 C 0.70714 0.99919 0.84497 0.0
H994 H 0.68346 0.03571 0.93064 0.0
C995 C 0.67034 0.98952 0.83225 0.0
H996 H 0.73879 0.0251 0.89044 0.0
C997 C 0.63822 0.99559 0.85533 0.0
C998 C 0.64233 1.01143 0.8916 0.0
H999 H 0.66659 0.97619 0.80494 0.0
H1000 H 0.6105 0.98653 0.8454 0.0
C1001 C 0.67905 0.02285 0.90319 0.0
C1002 C 0.0337 0.69651 0.85987 0.0
C1003 C 0.01165 0.69062 0.82716 0.0
H1004 H 0.05196 0.67438 0.91368 0.0
C1005 C 0.98843 0.6582 0.8257 0.0
H1006 H 0.05205 0.72089 0.86196 0.0
C1007 C 0.98968 0.63097 0.85421 0.0
C1008 C 0.013 0.63585 0.88599 0.0
H1009 H 0.97038 0.65297 0.80137 0.0
H1010 H 0.97239 0.60595 0.85127 0.0
C1011 C 0.03402 0.66957 0.8892 0.0
C1012 C 0.16162 0.33404 0.99343 0.0
C1013 C 0.1937 0.33936 0.01665 0.0
H1014 H 0.10817 0.3568 0.97402 0.0
C1015 C 0.19423 0.37076 0.04107 0.0
H1016 H 0.16044 0.31046 0.9741 0.0
C1017 C 0.16553 0.39792 0.03976 0.0
C1018 C 0.13459 0.39384 0.0151 0.0
H1019 H 0.21829 0.37553 0.0597 0.0
H1020 H 0.16781 0.42242 0.0578 0.0
C1021 C 0.13205 0.36088 0.99302 0.0
C1022 C 0.16251 0.69811 0.02669 0.0
C1023 C 0.19514 0.69228 1.00437 0.0
H1024 H 0.10849 0.67591 0.0452 0.0
C1025 C 0.19612 0.66039 0.98059 0.0
H1026 H 0.16089 0.72211 0.04547 0.0
C1027 C 0.16727 0.63335 0.9817 0.0
C1028 C 0.13572 0.63801 1.00548 0.0
H1029 H 0.2205 0.65525 0.9625 0.0
H1030 H 0.16987 0.60854 0.96415 0.0
C1031 C 0.13283 0.67137 0.0269 0.0
C1032 C 0.32053 0.14591 0.01056 0.0
C1033 C 0.32526 0.18156 0.0268 0.0
H1034 H 0.34682 0.09481 0.99249 0.0
C1035 C 0.36262 0.19421 0.03423 0.0
H1036 H 0.29222 0.13555 1.00418 0.0
C1037 C 0.39432 0.1708 0.02752 0.0
C1038 C 0.38933 0.13417 0.01329 0.0
H1039 H 0.36719 0.22172 0.04652 0.0
H1040 H 0.42248 0.18083 0.03495 0.0
C1041 C 0.352 0.12254 1.00403 0.0
C1042 C 0.83482 0.36976 0.98045 0.0
C1043 C 0.83527 0.33853 1.00504 0.0
H1044 H 0.86088 0.42171 0.96413 0.0
C1045 C 0.86666 0.33384 0.02925 0.0
H1046 H 0.81121 0.374 0.96113 0.0
C1047 C 0.89567 0.36116 0.03042 0.0
C1048 C 0.89318 0.39391 1.00806 0.0
H1049 H 0.86767 0.31037 0.04874 0.0
H1050 H 0.91907 0.35756 0.05008 0.0
C1051 C 0.86297 0.39739 0.98244 0.0
C1052 C 0.71112 0.88779 0.01109 0.0
C1053 C 0.70695 0.85251 0.02819 0.0
H1054 H 0.68413 0.93829 0.99253 0.0
C1055 C 0.66993 0.83978 0.0369 0.0
H1056 H 0.73919 0.89809 1.00364 0.0
C1057 C 0.63797 0.86285 0.03052 0.0
C1058 C 0.64243 0.89915 0.01533 0.0
H1059 H 0.66586 0.81246 0.04978 0.0
H1060 H 0.61005 0.85284 0.03884 0.0
C1061 C 0.67941 0.91081 1.00486 0.0
C1062 C 0.83645 0.66446 0.03956 0.0
C1063 C 0.83661 0.6952 0.01435 0.0
H1064 H 0.86256 0.61268 0.05637 0.0
C1065 C 0.8676 0.69934 0.98956 0.0
H1066 H 0.81306 0.66062 0.05922 0.0
C1067 C 0.89647 0.67192 0.98844 0.0
C1068 C 0.89419 0.63958 0.0114 0.0
H1069 H 0.86831 0.7224 0.96956 0.0
H1070 H 0.91955 0.67504 0.96832 0.0
C1071 C 0.86444 0.63669 0.03762 0.0
C1072 C 0.3213 0.88599 0.01189 0.0
C1073 C 0.32553 0.85079 0.99459 0.0
H1074 H 0.34818 0.93656 0.03066 0.0
C1075 C 0.36269 0.8382 0.9861 0.0
H1076 H 0.29317 0.8963 0.01909 0.0
C1077 C 0.39463 0.86133 0.99277 0.0
C1078 C 0.39006 0.8976 1.00798 0.0
H1079 H 0.36688 0.81102 0.97296 0.0
H1080 H 0.42259 0.85147 0.98442 0.0
C1081 C 0.35299 0.90909 0.01836 0.0
C1082 C 0.71019 0.14598 1.00932 0.0
C1083 C 0.70647 0.1806 0.99082 0.0
H1084 H 0.68275 0.09617 0.02904 0.0
C1085 C 0.66967 0.19297 0.98072 0.0
H1086 H 0.73806 0.13597 0.01783 0.0
C1087 C 0.63753 0.1701 0.98713 0.0
C1088 C 0.64162 0.13438 1.00373 0.0
H1089 H 0.66592 0.21979 0.96674 0.0
H1090 H 0.60984 0.17973 0.9777 0.0
C1091 C 0.67833 0.12318 0.0156 0.0
C1092 C 0.5152 0.6425 0.81228 0.0
C1093 C 0.50062 0.67895 0.81684 0.0
H1094 H 0.53106 0.59068 0.8386 0.0
C1095 C 0.4937 0.69194 0.85391 0.0
H1096 H 0.52106 0.63174 0.7842 0.0
C1097 C 0.4995 0.66837 0.88547 0.0
C1098 C 0.51222 0.63112 0.88073 0.0
H1099 H 0.4825 0.71995 0.85839 0.0
H1100 H 0.49268 0.67893 0.91341 0.0
C1101 C 0.52074 0.61891 0.84365 0.0
C1102 C 0.36822 0.49647 0.82685 0.0
C1103 C 0.33576 0.51877 0.83292 0.0
H1104 H 0.42228 0.47801 0.84892 0.0
C1105 C 0.33503 0.54269 0.86472 0.0
H1106 H 0.36952 0.47761 0.80282 0.0
C1107 C 0.36414 0.54184 0.89157 0.0
C1108 C 0.39552 0.51802 0.88682 0.0
H1109 H 0.31067 0.56068 0.86995 0.0
H1110 H 0.36179 0.5595 0.91642 0.0
C1111 C 0.3981 0.49638 0.85347 0.0
C1112 C 0.53268 0.36537 0.82928 0.0
C1113 C 0.51075 0.33299 0.83624 0.0
H1114 H 0.55146 0.41918 0.85024 0.0
C1115 C 0.48825 0.33217 0.86941 0.0
H1116 H 0.55043 0.36705 0.80427 0.0
C1117 C 0.49011 0.36098 0.89629 0.0
C1118 C 0.51332 0.39244 0.89033 0.0
H1119 H 0.47016 0.30824 0.87546 0.0
H1120 H 0.47332 0.35854 0.92188 0.0
C1121 C 0.53362 0.39498 0.85589 0.0
C1122 C 0.69185 0.54526 0.85444 0.0
C1123 C 0.67987 0.53189 0.81879 0.0
H1124 H 0.67901 0.5503 0.91388 0.0
C1125 C 0.64719 0.50935 0.81695 0.0
H1126 H 0.71722 0.56244 0.85673 0.0
C1127 C 0.62555 0.50232 0.84944 0.0
C1128 C 0.63602 0.51751 0.88484 0.0
H1129 H 0.63754 0.49837 0.79 0.0
H1130 H 0.59971 0.48591 0.84649 0.0
C1131 C 0.67015 0.53809 0.88721 0.0
C1132 C 0.51442 0.39048 0.20734 0.0
C1133 C 0.5001 0.35393 0.20275 0.0
H1134 H 0.52992 0.44244 0.18107 0.0
C1135 C 0.49323 0.34094 0.16566 0.0
H1136 H 0.52022 0.40125 0.23543 0.0
C1137 C 0.49885 0.36459 0.13413 0.0
C1138 C 0.51133 0.40192 0.1389 0.0
H1139 H 0.48222 0.31287 0.16115 0.0
H1140 H 0.4921 0.35401 0.10618 0.0
C1141 C 0.51978 0.41415 0.17599 0.0
C1142 C 0.646 0.52175 0.20361 0.0
C1143 C 0.67919 0.49998 0.20147 0.0
H1144 H 0.59805 0.54461 0.17439 0.0
C1145 C 0.69141 0.48729 0.16566 0.0
H1146 H 0.63616 0.53222 0.23069 0.0
C1147 C 0.66954 0.4944 0.13299 0.0
C1148 C 0.63499 0.51426 0.1356 0.0
H1149 H 0.71717 0.47072 0.16314 0.0
H1150 H 0.67871 0.4828 0.10616 0.0
C1151 C 0.62419 0.52874 0.17121 0.0
C1152 C 0.54852 0.69989 0.15023 0.0
C1153 C 0.52493 0.70048 0.18268 0.0
H1154 H 0.56403 0.6723 0.09855 0.0
C1155 C 0.50112 0.66928 0.18908 0.0
H1156 H 0.56821 0.72269 0.14471 0.0
C1157 C 0.49961 0.63951 0.16265 0.0
C1158 C 0.52128 0.6407 0.12897 0.0
H1159 H 0.48256 0.6686 0.21355 0.0
H1160 H 0.48041 0.61624 0.16785 0.0
C1161 C 0.54618 0.67097 0.12354 0.0
C1162 C 0.33426 0.49133 0.15427 0.0
C1163 C 0.33519 0.51498 0.18628 0.0
H1164 H 0.36078 0.47487 0.10233 0.0
C1165 C 0.36773 0.53718 0.19239 0.0
H1166 H 0.30987 0.47339 0.14901 0.0
C1167 C 0.3975 0.5374 0.16566 0.0
C1168 C 0.39473 0.51602 0.13215 0.0
H1169 H 0.3692 0.55582 0.21658 0.0
H1170 H 0.42178 0.55562 0.1703 0.0
C1171 C 0.36325 0.49235 0.12729 0.0
C1172 C 0.83163 0.49916 0.65649 0.0
C1173 C 0.83773 0.52101 0.68906 0.0
H1174 H 0.85396 0.48124 0.60265 0.0
C1175 C 0.86993 0.5447 0.69022 0.0
H1176 H 0.8073 0.4805 0.6548 0.0
C1177 C 0.89714 0.54398 0.66145 0.0
C1178 C 0.89232 0.52062 0.62993 0.0
H1179 H 0.87519 0.56242 0.71461 0.0
H1180 H 0.9223 0.56139 0.66416 0.0
C1181 C 0.85858 0.49927 0.62693 0.0
C1182 C 0.48799 0.87444 0.69384 0.0
C1183 C 0.51123 0.84205 0.69238 0.0
H1184 H 0.47192 0.92669 0.66826 0.0
C1185 C 0.53327 0.83616 0.65967 0.0
H1186 H 0.46995 0.87967 0.71816 0.0
C1187 C 0.53356 0.8631 0.63033 0.0
C1188 C 0.51252 0.8968 0.63354 0.0
H1189 H 0.55163 0.8118 0.65758 0.0
H1190 H 0.55149 0.8583 0.60585 0.0
C1191 C 0.48922 0.90167 0.66532 0.0
C1192 C 0.21078 0.51657 0.63957 0.0
C1193 C 0.20688 0.53421 0.67481 0.0
H1194 H 0.18347 0.49769 0.58905 0.0
C1195 C 0.17003 0.54366 0.6875 0.0
H1196 H 0.23871 0.50853 0.62934 0.0
C1197 C 0.13796 0.53746 0.66437 0.0
C1198 C 0.14219 0.5217 0.62809 0.0
H1199 H 0.16618 0.55692 0.71483 0.0
H1200 H 0.11018 0.54636 0.67428 0.0
C1201 C 0.17897 0.51049 0.61651 0.0
C1202 C 0.48934 0.17189 0.68599 0.0
C1203 C 0.49818 0.20833 0.67293 0.0
H1204 H 0.48661 0.11276 0.67318 0.0
C1205 C 0.51456 0.212 0.63689 0.0
H1206 H 0.47677 0.16809 0.71371 0.0
C1207 C 0.51994 0.18049 0.61362 0.0
C1208 C 0.50944 0.14412 0.62575 0.0
H1209 H 0.52193 0.23955 0.62612 0.0
H1210 H 0.53169 0.18489 0.58562 0.0
C1211 C 0.49498 0.14015 0.66273 0.0
C1212 C 0.87019 0.48808 0.32896 0.0
C1213 C 0.83783 0.51155 0.33025 0.0
H1214 H 0.92266 0.47156 0.35494 0.0
C1215 C 0.83162 0.5332 0.36293 0.0
H1216 H 0.87554 0.47048 0.30449 0.0
C1217 C 0.85858 0.53311 0.39249 0.0
C1218 C 0.89244 0.51196 0.38939 0.0
H1219 H 0.80717 0.55168 0.36473 0.0
H1220 H 0.85386 0.55097 0.41687 0.0
C1221 C 0.8974 0.48881 0.35773 0.0
C1222 C 0.49114 0.86067 0.33301 0.0
C1223 C 0.49972 0.82423 0.3462 0.0
H1224 H 0.48826 0.9198 0.34579 0.0
C1225 C 0.5155 0.82053 0.38251 0.0
H1226 H 0.47908 0.86449 0.30505 0.0
C1227 C 0.52053 0.85204 0.40588 0.0
C1228 C 0.51026 0.88842 0.3936 0.0
H1229 H 0.52268 0.79297 0.39339 0.0
H1230 H 0.53184 0.84762 0.43405 0.0
C1231 C 0.49641 0.8924 0.35638 0.0
C1232 C 0.17041 0.48922 0.33229 0.0
C1233 C 0.20719 0.49895 0.34501 0.0
H1234 H 0.11057 0.48618 0.34542 0.0
C1235 C 0.21092 0.51674 0.38019 0.0
H1236 H 0.16669 0.47583 0.30501 0.0
C1237 C 0.17904 0.52268 0.40318 0.0
C1238 C 0.14234 0.5112 0.39158 0.0
H1239 H 0.23879 0.52498 0.39045 0.0
H1240 H 0.18342 0.5356 0.4306 0.0
C1241 C 0.13827 0.4953 0.35534 0.0
C1242 C 0.48796 0.15824 0.3256 0.0
C1243 C 0.51121 0.19065 0.32705 0.0
H1244 H 0.47196 0.10595 0.35115 0.0
C1245 C 0.53334 0.19648 0.35971 0.0
H1246 H 0.46985 0.15305 0.30131 0.0
C1247 C 0.53372 0.1695 0.389 0.0
C1248 C 0.51268 0.1358 0.3858 0.0
H1249 H 0.55171 0.22085 0.36179 0.0
H1250 H 0.55171 0.17427 0.41345 0.0
C1251 C 0.48928 0.13096 0.35407 0.0
C1252 C 0.66203 0.83419 0.49372 0.0
C1253 C 0.69425 0.83972 0.5167 0.0
H1254 H 0.60843 0.85673 0.47443 0.0
C1255 C 0.6949 0.87137 0.54081 0.0
H1256 H 0.66071 0.8104 0.47465 0.0
C1257 C 0.66617 0.8985 0.53941 0.0
C1258 C 0.63507 0.89418 0.51499 0.0
H1259 H 0.71902 0.8763 0.55931 0.0
H1260 H 0.66854 0.92316 0.55722 0.0
C1261 C 0.63244 0.86101 0.49322 0.0
C1262 C 0.69488 0.16129 0.47887 0.0
C1263 C 0.69422 0.19292 0.50299 0.0
H1264 H 0.66853 0.10949 0.46244 0.0
C1265 C 0.66202 0.19842 0.52599 0.0
H1266 H 0.719 0.15639 0.46037 0.0
C1267 C 0.63245 0.17157 0.52649 0.0
C1268 C 0.63508 0.13842 0.5047 0.0
H1269 H 0.66071 0.22219 0.54508 0.0
H1270 H 0.60845 0.17582 0.54529 0.0
C1271 C 0.66617 0.13413 0.48027 0.0
C1272 C 0.82085 0.64623 0.50998 0.0
C1273 C 0.82536 0.68159 0.52689 0.0
H1274 H 0.8474 0.59546 0.49134 0.0
C1275 C 0.86262 0.69415 0.53493 0.0
H1276 H 0.79263 0.63593 0.50313 0.0
C1277 C 0.89443 0.67089 0.52816 0.0
C1278 C 0.88964 0.6345 0.51326 0.0
H1279 H 0.86702 0.72145 0.54775 0.0
H1280 H 0.9225 0.6808 0.53608 0.0
C1281 C 0.85242 0.623 0.50339 0.0
C1282 C 0.36699 0.83357 0.52914 0.0
C1283 C 0.33586 0.83803 0.50456 0.0
H1284 H 0.41915 0.85752 0.55033 0.0
C1285 C 0.33566 0.86902 0.47966 0.0
H1286 H 0.36776 0.8103 0.54888 0.0
C1287 C 0.36377 0.89668 0.4817 0.0
C1288 C 0.39367 0.89345 0.50771 0.0
H1289 H 0.31223 0.87308 0.46009 0.0
H1290 H 0.36186 0.92085 0.46317 0.0
C1291 C 0.39596 0.86091 0.53037 0.0
C1292 C 0.16986 0.33983 0.53847 0.0
C1293 C 0.20674 0.35232 0.52885 0.0
H1294 H 0.11002 0.35301 0.54115 0.0
C1295 C 0.21063 0.3872 0.51087 0.0
H1296 H 0.166 0.31281 0.55203 0.0
C1297 C 0.17882 0.4101 0.50466 0.0
C1298 C 0.14201 0.39872 0.51604 0.0
H1299 H 0.23857 0.39733 0.50273 0.0
H1300 H 0.18335 0.43728 0.49162 0.0
C1301 C 0.13779 0.36279 0.53212 0.0
C1302 C 0.33568 0.16359 0.53945 0.0
C1303 C 0.33588 0.19459 0.51457 0.0
H1304 H 0.36183 0.11172 0.5559 0.0
C1305 C 0.36698 0.19901 0.48994 0.0
H1306 H 0.31227 0.15954 0.55905 0.0
C1307 C 0.39591 0.17164 0.48868 0.0
C1308 C 0.39362 0.13909 0.51134 0.0
H1309 H 0.36776 0.22228 0.47021 0.0
H1310 H 0.41908 0.175 0.4687 0.0
C1311 C 0.36374 0.13589 0.53737 0.0
C1312 C 0.82094 0.3863 0.50959 0.0
C1313 C 0.82542 0.35096 0.49262 0.0
H1314 H 0.84751 0.43705 0.52827 0.0
C1315 C 0.86267 0.33842 0.48452 0.0
H1316 H 0.79273 0.39657 0.51649 0.0
C1317 C 0.89449 0.36168 0.49128 0.0
C1318 C 0.88971 0.39805 0.50623 0.0
H1319 H 0.86706 0.31114 0.47166 0.0
H1320 H 0.92255 0.3518 0.48331 0.0
C1321 C 0.85251 0.40952 0.51617 0.0
C1322 C 0.1698 0.69283 0.48092 0.0
C1323 C 0.20669 0.68034 0.49047 0.0
H1324 H 0.10995 0.67965 0.47835 0.0
C1325 C 0.21061 0.64546 0.50844 0.0
H1326 H 0.16591 0.71985 0.46736 0.0
C1327 C 0.17882 0.62256 0.51473 0.0
C1328 C 0.14199 0.63394 0.50341 0.0
H1329 H 0.23857 0.63535 0.51654 0.0
H1330 H 0.18338 0.59539 0.52776 0.0
C1331 C 0.13774 0.66987 0.48733 0.0
loop_
_geom_bond_atom_site_label_1
_geom_bond_atom_site_label_2
_geom_bond_distance
_geom_bond_site_symmetry_2
_ccdc_geom_bond_type
H0 C7 0.929 . S
H1 C10 0.930 . S
H2 C12 0.929 . S
H3 C4 0.969 1_655 S
C4 H3 0.969 1_455 S
C4 O5 1.550 . S
C4 H6 0.973 . S
O5 C4 1.550 . S
O5 C11 1.412 . S
H6 C4 0.973 . S
C7 H0 0.929 . S
C7 C8 1.400 . S
C7 C9 1.364 . S
C8 C7 1.400 . S
C8 C12 1.377 . S
C9 C7 1.364 . S
C9 C10 1.374 . S
C10 H1 0.930 . S
C10 C9 1.374 . S
C10 C11 1.383 . S
C11 O5 1.412 . S
C11 C10 1.383 . S
C11 C12 1.394 . S
C12 H2 0.929 . S
C12 C8 1.377 . S
C12 C11 1.394 . S
H13 C20 0.928 1_565 S
H14 C23 0.931 1_565 S
H15 C25 0.928 1_565 S
H16 C17 0.969 . S
C17 H16 0.969 . S
C17 O18 1.550 1_545 S
C17 H19 0.973 1_545 S
O18 C17 1.550 1_565 S
O18 C24 1.412 1_565 S
H19 C17 0.973 1_565 S
C20 H13 0.928 1_545 S
C20 C21 1.400 . S
C20 C22 1.364 . S
C21 C20 1.400 . S
C21 C25 1.377 . S
C22 C20 1.364 . S
C22 C23 1.374 . S
C23 H14 0.931 1_545 S
C23 C22 1.374 . S
C23 C24 1.383 . S
C24 O18 1.412 1_545 S
C24 C23 1.383 . S
C24 C25 1.395 . S
C25 H15 0.928 1_545 S
C25 C21 1.377 . S
C25 C24 1.395 . S
H26 C33 0.929 . S
H27 C36 0.930 . S
H28 C38 0.929 . S
H29 C30 0.969 1_655 S
C30 H29 0.969 1_455 S
C30 O31 1.550 . S
C30 H32 0.973 . S
O31 C30 1.550 . S
O31 C37 1.412 . S
H32 C30 0.973 . S
C33 H26 0.929 . S
C33 C34 1.400 . S
C33 C35 1.364 . S
C34 C33 1.400 . S
C34 C38 1.377 . S
C35 C33 1.364 . S
C35 C36 1.374 . S
C36 H27 0.930 . S
C36 C35 1.374 . S
C36 C37 1.383 . S
C37 O31 1.412 . S
C37 C36 1.383 . S
C37 C38 1.394 . S
C38 H28 0.929 . S
C38 C34 1.377 . S
C38 C37 1.394 . S
H39 C46 0.928 . S
H40 C49 0.930 1_565 S
H41 C51 0.928 1_565 S
H42 C43 0.969 . S
C43 H42 0.969 . S
C43 O44 1.550 1_545 S
C43 H45 0.973 1_545 S
O44 C43 1.550 1_565 S
O44 C50 1.412 1_565 S
H45 C43 0.973 1_565 S
C46 H39 0.928 . S
C46 C47 1.400 . S
C46 C48 1.364 . S
C47 C46 1.400 . S
C47 C51 1.377 . S
C48 C46 1.364 . S
C48 C49 1.374 . S
C49 H40 0.930 1_545 S
C49 C48 1.374 . S
C49 C50 1.383 . S
C50 O44 1.412 1_545 S
C50 C49 1.383 . S
C50 C51 1.395 . S
C51 H41 0.928 1_545 S
C51 C47 1.377 . S
C51 C50 1.395 . S
H52 C59 0.929 . S
H53 C62 0.930 . S
H54 C64 0.929 . S
H55 C56 0.969 1_655 S
C56 H55 0.969 1_455 S
C56 O57 1.550 . S
C56 H58 0.973 . S
O57 C56 1.550 . S
O57 C63 1.412 . S
H58 C56 0.973 . S
C59 H52 0.929 . S
C59 C60 1.400 . S
C59 C61 1.364 . S
C60 C59 1.400 . S
C60 C64 1.377 . S
C61 C59 1.364 . S
C61 C62 1.374 . S
C62 H53 0.930 . S
C62 C61 1.374 . S
C62 C63 1.383 . S
C63 O57 1.412 . S
C63 C62 1.383 . S
C63 C64 1.394 . S
C64 H54 0.929 . S
C64 C60 1.377 . S
C64 C63 1.394 . S
H65 C72 0.928 . S
H66 C75 0.931 . S
H67 C77 0.928 . S
H68 C69 0.969 . S
C69 H68 0.969 . S
C69 O70 1.550 1_565 S
C69 H71 0.973 1_565 S
O70 C69 1.550 1_545 S
O70 C76 1.405 1_545 S
H71 C69 0.973 1_545 S
C72 H65 0.928 . S
C72 C73 1.400 1_545 S
C72 C74 1.364 1_545 S
C73 C72 1.400 1_565 S
C73 C77 1.377 1_565 S
C74 C72 1.364 1_565 S
C74 C75 1.374 1_565 S
C75 H66 0.931 . S
C75 C74 1.374 1_545 S
C75 C76 1.382 1_545 S
C76 O70 1.405 1_565 S
C76 C75 1.382 1_565 S
C76 C77 1.394 1_565 S
C77 H67 0.928 . S
C77 C73 1.377 1_545 S
C77 C76 1.394 1_545 S
H78 C85 0.929 . S
H79 C88 0.930 . S
H80 C90 0.929 . S
H81 C82 0.969 1_655 S
C82 H81 0.969 1_455 S
C82 O83 1.550 . S
C82 H84 0.973 . S
O83 C82 1.550 . S
O83 C89 1.412 . S
H84 C82 0.973 . S
C85 H78 0.929 . S
C85 C86 1.400 . S
C85 C87 1.364 . S
C86 C85 1.400 . S
C86 C90 1.377 . S
C87 C85 1.364 . S
C87 C88 1.374 . S
C88 H79 0.930 . S
C88 C87 1.374 . S
C88 C89 1.383 . S
C89 O83 1.412 . S
C89 C88 1.383 . S
C89 C90 1.394 . S
C90 H80 0.929 . S
C90 C86 1.377 . S
C90 C89 1.394 . S
H91 C98 0.928 . S
H92 C101 0.931 . S
H93 C103 0.928 . S
H94 C95 0.969 . S
C95 H94 0.969 . S
C95 O96 1.550 1_565 S
C95 H97 0.973 1_565 S
O96 C95 1.550 1_545 S
O96 C102 1.406 1_545 S
H97 C95 0.973 1_545 S
C98 H91 0.928 . S
C98 C99 1.400 1_545 S
C98 C100 1.364 . S
C99 C98 1.400 1_565 S
C99 C103 1.377 1_565 S
C100 C98 1.364 . S
C100 C101 1.374 . S
C101 H92 0.931 . S
C101 C100 1.374 . S
C101 C102 1.382 1_545 S
C102 O96 1.406 1_565 S
C102 C101 1.382 1_565 S
C102 C103 1.394 1_565 S
C103 H93 0.928 . S
C103 C99 1.377 1_545 S
C103 C102 1.394 1_545 S
H104 C111 0.928 . S
H105 C114 0.930 1_556 S
H106 C116 0.928 1_556 S
H107 C108 0.969 . S
C108 H107 0.969 . S
C108 O109 1.550 1_554 S
C108 H110 0.973 1_554 S
O109 C108 1.550 1_556 S
O109 C115 1.412 1_556 S
H110 C108 0.973 1_556 S
C111 H104 0.928 . S
C111 C112 1.400 . S
C111 C113 1.364 . S
C112 C111 1.400 . S
C112 C116 1.377 . S
C113 C111 1.364 . S
C113 C114 1.374 . S
C114 H105 0.930 1_554 S
C114 C113 1.374 . S
C114 C115 1.383 . S
C115 O109 1.412 1_554 S
C115 C114 1.383 . S
C115 C116 1.395 . S
C116 H106 0.928 1_554 S
C116 C112 1.377 . S
C116 C115 1.395 . S
H117 C124 0.928 . S
H118 C127 0.931 . S
H119 C129 0.928 . S
H120 C121 0.969 . S
C121 H120 0.969 . S
C121 O122 1.550 1_556 S
C121 H123 0.973 1_556 S
O122 C121 1.550 1_554 S
O122 C128 1.405 1_554 S
H123 C121 0.973 1_554 S
C124 H117 0.928 . S
C124 C125 1.400 1_554 S
C124 C126 1.364 1_554 S
C125 C124 1.400 1_556 S
C125 C129 1.377 1_556 S
C126 C124 1.364 1_556 S
C126 C127 1.374 1_556 S
C127 H118 0.931 . S
C127 C126 1.374 1_554 S
C127 C128 1.382 1_554 S
C128 O122 1.405 1_556 S
C128 C127 1.382 1_556 S
C128 C129 1.394 1_556 S
C129 H119 0.928 . S
C129 C125 1.377 1_554 S
C129 C128 1.394 1_554 S
H130 C137 0.928 . S
H131 C140 0.931 . S
H132 C142 0.928 . S
H133 C134 0.969 . S
C134 H133 0.969 . S
C134 O135 1.550 1_556 S
C134 H136 0.973 1_556 S
O135 C134 1.550 1_554 S
O135 C141 1.406 1_554 S
H136 C134 0.973 1_554 S
C137 H130 0.928 . S
C137 C138 1.400 1_554 S
C137 C139 1.364 . S
C138 C137 1.400 1_556 S
C138 C142 1.377 1_556 S
C139 C137 1.364 . S
C139 C140 1.374 . S
C140 H131 0.931 . S
C140 C139 1.374 . S
C140 C141 1.382 1_554 S
C141 O135 1.406 1_556 S
C141 C140 1.382 1_556 S
C141 C142 1.394 1_556 S
C142 H132 0.928 . S
C142 C138 1.377 1_554 S
C142 C141 1.394 1_554 S
H143 C150 0.928 . S
H144 C153 0.931 1_556 S
H145 C155 0.928 1_556 S
H146 C147 0.969 . S
C147 H146 0.969 . S
C147 O148 1.550 1_554 S
C147 H149 0.973 1_554 S
O148 C147 1.550 1_556 S
O148 C154 1.412 1_556 S
H149 C147 0.973 1_556 S
C150 H143 0.928 . S
C150 C151 1.400 . S
C150 C152 1.364 . S
C151 C150 1.400 . S
C151 C155 1.377 . S
C152 C150 1.364 . S
C152 C153 1.374 . S
C153 H144 0.931 1_554 S
C153 C152 1.374 . S
C153 C154 1.383 . S
C154 O148 1.412 1_554 S
C154 C153 1.383 . S
C154 C155 1.395 . S
C155 H145 0.928 1_554 S
C155 C151 1.377 . S
C155 C154 1.395 . S
H156 C163 0.929 . S
H157 C166 0.930 . S
H158 C168 0.929 . S
H159 C160 0.969 . S
C160 H159 0.969 . S
C160 O161 1.550 . S
C160 H162 0.973 . S
O161 C160 1.550 . S
O161 C167 1.412 . S
H162 C160 0.973 . S
C163 H156 0.929 . S
C163 C164 1.400 . S
C163 C165 1.364 . S
C164 C163 1.400 . S
C164 C168 1.377 . S
C165 C163 1.364 . S
C165 C166 1.374 . S
C166 H157 0.930 . S
C166 C165 1.374 . S
C166 C167 1.383 . S
C167 O161 1.412 . S
C167 C166 1.383 . S
C167 C168 1.394 . S
C168 H158 0.929 . S
C168 C164 1.377 . S
C168 C167 1.394 . S
H169 C176 0.929 . S
H170 C179 0.930 . S
H171 C181 0.929 . S
H172 C173 0.969 . S
C173 H172 0.969 . S
C173 O174 1.550 . S
C173 H175 0.973 . S
O174 C173 1.550 . S
O174 C180 1.412 . S
H175 C173 0.973 . S
C176 H169 0.929 . S
C176 C177 1.400 . S
C176 C178 1.364 . S
C177 C176 1.400 . S
C177 C181 1.377 . S
C178 C176 1.364 . S
C178 C179 1.374 . S
C179 H170 0.930 . S
C179 C178 1.374 . S
C179 C180 1.383 . S
C180 O174 1.412 . S
C180 C179 1.383 . S
C180 C181 1.394 . S
C181 H171 0.929 . S
C181 C177 1.377 . S
C181 C180 1.394 . S
H182 C189 0.929 . S
H183 C192 0.930 . S
H184 C194 0.929 . S
H185 C186 0.969 . S
C186 H185 0.969 . S
C186 O187 1.550 . S
C186 H188 0.973 . S
O187 C186 1.550 . S
O187 C193 1.412 . S
H188 C186 0.973 . S
C189 H182 0.929 . S
C189 C190 1.400 . S
C189 C191 1.364 . S
C190 C189 1.400 . S
C190 C194 1.377 . S
C191 C189 1.364 . S
C191 C192 1.374 . S
C192 H183 0.930 . S
C192 C191 1.374 . S
C192 C193 1.383 . S
C193 O187 1.412 . S
C193 C192 1.383 . S
C193 C194 1.394 . S
C194 H184 0.929 . S
C194 C190 1.377 . S
C194 C193 1.394 . S
H195 C202 0.929 . S
H196 C205 0.930 . S
H197 C207 0.929 . S
H198 C199 0.969 . S
C199 H198 0.969 . S
C199 O200 1.550 . S
C199 H201 0.973 . S
O200 C199 1.550 . S
O200 C206 1.412 . S
H201 C199 0.973 . S
C202 H195 0.929 . S
C202 C203 1.400 . S
C202 C204 1.364 . S
C203 C202 1.400 . S
C203 C207 1.377 . S
C204 C202 1.364 . S
C204 C205 1.374 . S
C205 H196 0.930 . S
C205 C204 1.374 . S
C205 C206 1.383 . S
C206 O200 1.412 . S
C206 C205 1.383 . S
C206 C207 1.394 . S
C207 H197 0.929 . S
C207 C203 1.377 . S
C207 C206 1.394 . S
H208 C215 0.929 . S
H209 C218 0.930 . S
H210 C220 0.929 . S
H211 C212 0.969 . S
C212 H211 0.969 . S
C212 O213 1.550 . S
C212 H214 0.973 . S
O213 C212 1.550 . S
O213 C219 1.412 . S
H214 C212 0.973 . S
C215 H208 0.929 . S
C215 C216 1.400 . S
C215 C217 1.364 . S
C216 C215 1.400 . S
C216 C220 1.377 . S
C217 C215 1.364 . S
C217 C218 1.374 . S
C218 H209 0.930 . S
C218 C217 1.374 . S
C218 C219 1.383 . S
C219 O213 1.412 . S
C219 C218 1.383 . S
C219 C220 1.394 . S
C220 H210 0.929 . S
C220 C216 1.377 . S
C220 C219 1.394 . S
H221 C228 0.929 . S
H222 C231 0.930 . S
H223 C233 0.929 . S
H224 C225 0.969 . S
C225 H224 0.969 . S
C225 O226 1.550 . S
C225 H227 0.973 . S
O226 C225 1.550 . S
O226 C232 1.412 . S
H227 C225 0.973 . S
C228 H221 0.929 . S
C228 C229 1.400 . S
C228 C230 1.364 . S
C229 C228 1.400 . S
C229 C233 1.377 . S
C230 C228 1.364 . S
C230 C231 1.374 . S
C231 H222 0.930 . S
C231 C230 1.374 . S
C231 C232 1.383 . S
C232 O226 1.412 . S
C232 C231 1.383 . S
C232 C233 1.394 . S
C233 H223 0.929 . S
C233 C229 1.377 . S
C233 C232 1.394 . S
H234 C241 0.929 . S
H235 C244 0.930 . S
H236 C246 0.929 . S
H237 C238 0.969 . S
C238 H237 0.969 . S
C238 O239 1.550 . S
C238 H240 0.973 . S
O239 C238 1.550 . S
O239 C245 1.412 . S
H240 C238 0.973 . S
C241 H234 0.929 . S
C241 C242 1.400 . S
C241 C243 1.364 . S
C242 C241 1.400 . S
C242 C246 1.377 . S
C243 C241 1.364 . S
C243 C244 1.374 . S
C244 H235 0.930 . S
C244 C243 1.374 . S
C244 C245 1.383 . S
C245 O239 1.412 . S
C245 C244 1.383 . S
C245 C246 1.394 . S
C246 H236 0.929 . S
C246 C242 1.377 . S
C246 C245 1.394 . S
H247 C254 0.929 . S
H248 C257 0.930 . S
H249 C259 0.929 . S
H250 C251 0.969 . S
C251 H250 0.969 . S
C251 O252 1.550 . S
C251 H253 0.973 . S
O252 C251 1.550 . S
O252 C258 1.412 . S
H253 C251 0.973 . S
C254 H247 0.929 . S
C254 C255 1.400 . S
C254 C256 1.364 . S
C255 C254 1.400 . S
C255 C259 1.377 . S
C256 C254 1.364 . S
C256 C257 1.374 . S
C257 H248 0.930 . S
C257 C256 1.374 . S
C257 C258 1.383 . S
C258 O252 1.412 . S
C258 C257 1.383 . S
C258 C259 1.394 . S
C259 H249 0.929 . S
C259 C255 1.377 . S
C259 C258 1.394 . S
H260 C267 0.929 . S
H261 C270 0.930 . S
H262 C272 0.929 . S
H263 C264 0.969 . S
C264 H263 0.969 . S
C264 O265 1.550 . S
C264 H266 0.973 . S
O265 C264 1.550 . S
O265 C271 1.412 . S
H266 C264 0.973 . S
C267 H260 0.929 . S
C267 C268 1.400 . S
C267 C269 1.364 . S
C268 C267 1.400 . S
C268 C272 1.377 . S
C269 C267 1.364 . S
C269 C270 1.374 . S
C270 H261 0.930 . S
C270 C269 1.374 . S
C270 C271 1.383 . S
C271 O265 1.412 . S
C271 C270 1.383 . S
C271 C272 1.394 . S
C272 H262 0.929 . S
C272 C268 1.377 . S
C272 C271 1.394 . S
H273 C280 0.929 . S
H274 C283 0.930 . S
H275 C285 0.929 . S
H276 C277 0.969 . S
C277 H276 0.969 . S
C277 O278 1.550 . S
C277 H279 0.973 . S
O278 C277 1.550 . S
O278 C284 1.412 . S
H279 C277 0.973 . S
C280 H273 0.929 . S
C280 C281 1.400 . S
C280 C282 1.364 . S
C281 C280 1.400 . S
C281 C285 1.377 . S
C282 C280 1.364 . S
C282 C283 1.374 . S
C283 H274 0.930 . S
C283 C282 1.374 . S
C283 C284 1.383 . S
C284 O278 1.412 . S
C284 C283 1.383 . S
C284 C285 1.394 . S
C285 H275 0.929 . S
C285 C281 1.377 . S
C285 C284 1.394 . S
H286 C293 0.929 . S
H287 C296 0.930 . S
H288 C298 0.929 . S
H289 C290 0.969 . S
C290 H289 0.969 . S
C290 O291 1.550 . S
C290 H292 0.973 . S
O291 C290 1.550 . S
O291 C297 1.412 . S
H292 C290 0.973 . S
C293 H286 0.929 . S
C293 C294 1.400 . S
C293 C295 1.364 . S
C294 C293 1.400 . S
C294 C298 1.377 . S
C295 C293 1.364 . S
C295 C296 1.374 . S
C296 H287 0.930 . S
C296 C295 1.374 . S
C296 C297 1.383 . S
C297 O291 1.412 . S
C297 C296 1.383 . S
C297 C298 1.394 . S
C298 H288 0.929 . S
C298 C294 1.377 . S
C298 C297 1.394 . S
H299 C306 0.929 . S
H300 C309 0.930 . S
H301 C311 0.929 . S
H302 C303 0.969 . S
C303 H302 0.969 . S
C303 O304 1.550 . S
C303 H305 0.973 . S
O304 C303 1.550 . S
O304 C310 1.412 . S
H305 C303 0.973 . S
C306 H299 0.929 . S
C306 C307 1.400 . S
C306 C308 1.364 . S
C307 C306 1.400 . S
C307 C311 1.377 . S
C308 C306 1.364 . S
C308 C309 1.374 . S
C309 H300 0.930 . S
C309 C308 1.374 . S
C309 C310 1.383 . S
C310 O304 1.412 . S
C310 C309 1.383 . S
C310 C311 1.394 . S
C311 H301 0.929 . S
C311 C307 1.377 . S
C311 C310 1.394 . S
C312 O338 1.283 . S
C312 O356 1.283 . S
C313 O339 1.283 . S
C313 O354 1.283 . S
C314 O340 1.283 . S
C314 O357 1.283 . S
C315 O341 1.283 . S
C315 O355 1.283 . S
C316 O342 1.283 . S
C316 O351 1.283 . S
C317 O343 1.283 . S
C317 O353 1.283 . S
C318 O344 1.283 . S
C318 O350 1.283 . S
C319 O345 1.283 . S
C319 O352 1.283 . S
C320 O346 1.283 . S
C320 O361 1.283 . S
C321 O347 1.283 . S
C321 O359 1.283 . S
C322 O348 1.283 . S
C322 O360 1.283 . S
C323 O349 1.283 . S
C323 O358 1.283 . S
Eu324 O325 2.370 1_455 S
Eu324 O326 2.370 . S
Eu324 O329 2.370 1_455 S
Eu324 O330 2.370 . S
Eu324 O338 2.363 . S
Eu324 O339 2.363 . S
Eu324 O352 2.363 . S
Eu324 O353 2.363 1_455 S
O325 Eu324 2.370 1_655 S
O325 Eu327 2.366 1_565 S
O325 Eu332 2.367 1_665 S
O326 Eu324 2.370 . S
O326 Eu328 2.366 1_565 S
O326 Eu331 2.366 1_565 S
Eu327 O325 2.366 1_545 S
Eu327 O329 2.366 1_545 S
Eu327 O333 2.374 . S
Eu327 O334 2.374 . S
Eu327 O342 2.369 . S
Eu327 O343 2.356 1_545 S
Eu327 O358 2.363 . S
Eu327 O359 2.363 . S
Eu328 O326 2.366 1_545 S
Eu328 O330 2.366 1_545 S
Eu328 O335 2.374 . S
Eu328 O336 2.374 . S
Eu328 O344 2.369 . S
Eu328 O345 2.356 1_545 S
Eu328 O360 2.363 . S
Eu328 O361 2.363 . S
O329 Eu324 2.370 1_655 S
O329 Eu327 2.366 1_565 S
O329 Eu331 2.366 1_665 S
O330 Eu324 2.370 . S
O330 Eu328 2.366 1_565 S
O330 Eu332 2.367 1_565 S
Eu331 O326 2.366 1_545 S
Eu331 O329 2.366 1_445 S
Eu331 O333 2.374 1_455 S
Eu331 O336 2.374 . S
Eu331 O348 2.363 . S
Eu331 O349 2.363 1_455 S
Eu331 O356 2.356 1_545 S
Eu331 O357 2.370 . S
Eu332 O325 2.367 1_445 S
Eu332 O330 2.367 1_545 S
Eu332 O334 2.373 1_455 S
Eu332 O335 2.373 . S
Eu332 O346 2.363 . S
Eu332 O347 2.363 1_455 S
Eu332 O354 2.357 1_545 S
Eu332 O355 2.369 . S
O333 Eu327 2.374 . S
O333 Eu331 2.374 1_655 S
O333 Eu337 2.370 1_655 S
O334 Eu327 2.374 . S
O334 Eu332 2.373 1_655 S
O334 Eu337 2.370 1_655 S
O335 Eu328 2.374 . S
O335 Eu332 2.373 . S
O335 Eu337 2.370 . S
O336 Eu328 2.374 . S
O336 Eu331 2.374 . S
O336 Eu337 2.370 . S
Eu337 O333 2.370 1_455 S
Eu337 O334 2.370 1_455 S
Eu337 O335 2.370 . S
Eu337 O336 2.370 . S
Eu337 O340 2.363 . S
Eu337 O341 2.363 . S
Eu337 O350 2.363 . S
Eu337 O351 2.363 1_455 S
O338 C312 1.283 . S
O338 Eu324 2.363 . S
O339 C313 1.283 . S
O339 Eu324 2.363 . S
O340 C314 1.283 . S
O340 Eu337 2.363 . S
O341 C315 1.283 . S
O341 Eu337 2.363 . S
O342 C316 1.283 . S
O342 Eu327 2.369 . S
O343 C317 1.283 . S
O343 Eu327 2.356 1_565 S
O344 C318 1.283 . S
O344 Eu328 2.369 . S
O345 C319 1.283 . S
O345 Eu328 2.356 1_565 S
O346 C320 1.283 . S
O346 Eu332 2.363 . S
O347 C321 1.283 . S
O347 Eu332 2.363 1_655 S
O348 C322 1.283 . S
O348 Eu331 2.363 . S
O349 C323 1.283 . S
O349 Eu331 2.363 1_655 S
O350 C318 1.283 . S
O350 Eu337 2.363 . S
O351 C316 1.283 . S
O351 Eu337 2.363 1_655 S
O352 C319 1.283 . S
O352 Eu324 2.363 . S
O353 C317 1.283 . S
O353 Eu324 2.363 1_655 S
O354 C313 1.283 . S
O354 Eu332 2.357 1_565 S
O355 C315 1.283 . S
O355 Eu332 2.369 . S
O356 C312 1.283 . S
O356 Eu331 2.356 1_565 S
O357 C314 1.283 . S
O357 Eu331 2.370 . S
O358 C323 1.283 . S
O358 Eu327 2.363 . S
O359 C321 1.283 . S
O359 Eu327 2.363 . S
O360 C322 1.283 . S
O360 Eu328 2.363 . S
O361 C320 1.283 . S
O361 Eu328 2.363 . S
C362 O388 1.283 . S
C362 O406 1.283 . S
C363 O389 1.283 . S
C363 O404 1.283 . S
C364 O390 1.283 . S
C364 O407 1.283 . S
C365 O391 1.283 . S
C365 O405 1.283 . S
C366 O392 1.283 . S
C366 O401 1.283 . S
C367 O393 1.283 . S
C367 O403 1.283 . S
C368 O394 1.283 . S
C368 O400 1.283 . S
C369 O395 1.283 . S
C369 O402 1.283 . S
C370 O396 1.283 . S
C370 O411 1.283 . S
C371 O397 1.283 . S
C371 O409 1.283 . S
C372 O398 1.283 1_554 S
C372 O410 1.283 . S
C373 O399 1.283 1_554 S
C373 O408 1.283 . S
Eu374 O375 2.370 . S
Eu374 O376 2.370 1_545 S
Eu374 O379 2.370 1_545 S
Eu374 O380 2.370 . S
Eu374 O388 2.364 1_545 S
Eu374 O389 2.362 . S
Eu374 O402 2.363 . S
Eu374 O403 2.363 . S
O375 Eu374 2.370 . S
O375 Eu377 2.378 . S
O375 Eu382 2.378 . S
O376 Eu374 2.370 1_565 S
O376 Eu378 2.370 1_565 S
O376 Eu381 2.370 . S
Eu377 O375 2.378 . S
Eu377 O379 2.370 1_545 S
Eu377 O383 2.362 1_544 S
Eu377 O384 2.370 1_554 S
Eu377 O392 2.356 1_554 S
Eu377 O393 2.369 . S
Eu377 O408 2.356 1_545 S
Eu377 O409 2.369 . S
Eu378 O376 2.370 1_545 S
Eu378 O380 2.378 . S
Eu378 O385 2.370 1_554 S
Eu378 O386 2.362 1_544 S
Eu378 O394 2.356 1_554 S
Eu378 O395 2.369 . S
Eu378 O410 2.356 1_545 S
Eu378 O411 2.369 . S
O379 Eu374 2.370 1_565 S
O379 Eu377 2.370 1_565 S
O379 Eu381 2.370 . S
O380 Eu374 2.370 . S
O380 Eu378 2.378 . S
O380 Eu382 2.378 . S
Eu381 O376 2.370 . S
Eu381 O379 2.370 . S
Eu381 O383 2.371 1_554 S
Eu381 O386 2.371 1_554 S
Eu381 O398 2.363 1_554 S
Eu381 O399 2.363 1_554 S
Eu381 O406 2.362 . S
Eu381 O407 2.364 1_554 S
Eu382 O375 2.378 . S
Eu382 O380 2.378 . S
Eu382 O384 2.362 1_554 S
Eu382 O385 2.362 1_554 S
Eu382 O396 2.363 . S
Eu382 O397 2.363 . S
Eu382 O404 2.377 . S
Eu382 O405 2.349 1_554 S
O383 Eu377 2.362 1_566 S
O383 Eu381 2.371 1_556 S
O383 Eu387 2.362 1_565 S
O384 Eu377 2.370 1_556 S
O384 Eu382 2.362 1_556 S
O384 Eu387 2.378 . S
O385 Eu378 2.370 1_556 S
O385 Eu382 2.362 1_556 S
O385 Eu387 2.378 . S
O386 Eu378 2.362 1_566 S
O386 Eu381 2.371 1_556 S
O386 Eu387 2.362 1_565 S
Eu387 O383 2.362 1_545 S
Eu387 O384 2.378 . S
Eu387 O385 2.378 . S
Eu387 O386 2.362 1_545 S
Eu387 O390 2.349 1_545 S
Eu387 O391 2.377 . S
Eu387 O400 2.363 . S
Eu387 O401 2.363 . S
O388 C362 1.283 . S
O388 Eu374 2.364 1_565 S
O389 C363 1.283 . S
O389 Eu374 2.362 . S
O390 C364 1.283 . S
O390 Eu387 2.349 1_565 S
O391 C365 1.283 . S
O391 Eu387 2.377 . S
O392 C366 1.283 . S
O392 Eu377 2.356 1_556 S
O393 C367 1.283 . S
O393 Eu377 2.369 . S
O394 C368 1.283 . S
O394 Eu378 2.356 1_556 S
O395 C369 1.283 . S
O395 Eu378 2.369 . S
O396 C370 1.283 . S
O396 Eu382 2.363 . S
O397 C371 1.283 . S
O397 Eu382 2.363 . S
O398 C372 1.283 1_556 S
O398 Eu381 2.363 1_556 S
O399 C373 1.283 1_556 S
O399 Eu381 2.363 1_556 S
O400 C368 1.283 . S
O400 Eu387 2.363 . S
O401 C366 1.283 . S
O401 Eu387 2.363 . S
O402 C369 1.283 . S
O402 Eu374 2.363 . S
O403 C367 1.283 . S
O403 Eu374 2.363 . S
O404 C363 1.283 . S
O404 Eu382 2.377 . S
O405 C365 1.283 . S
O405 Eu382 2.349 1_556 S
O406 C362 1.283 . S
O406 Eu381 2.362 . S
O407 C364 1.283 . S
O407 Eu381 2.364 1_556 S
O408 C373 1.283 . S
O408 Eu377 2.356 1_565 S
O409 C371 1.283 . S
O409 Eu377 2.369 . S
O410 C372 1.283 . S
O410 Eu378 2.356 1_565 S
O411 C370 1.283 . S
O411 Eu378 2.369 . S
C412 O438 1.283 . S
C412 O456 1.283 . S
C413 O439 1.283 . S
C413 O454 1.283 . S
C414 O440 1.283 . S
C414 O457 1.283 . S
C415 O441 1.283 . S
C415 O455 1.283 . S
C416 O442 1.283 . S
C416 O451 1.283 . S
C417 O443 1.283 . S
C417 O453 1.283 . S
C418 O444 1.283 . S
C418 O450 1.283 . S
C419 O445 1.283 . S
C419 O452 1.283 . S
C420 O446 1.283 . S
C420 O461 1.283 . S
C421 O447 1.283 . S
C421 O459 1.283 . S
C422 O448 1.283 . S
C422 O460 1.283 . S
C423 O449 1.283 . S
C423 O458 1.283 . S
Eu424 O425 2.366 1_454 S
Eu424 O426 2.374 . S
Eu424 O429 2.374 1_455 S
Eu424 O430 2.366 1_554 S
Eu424 O438 2.370 . S
Eu424 O439 2.356 1_554 S
Eu424 O452 2.363 . S
Eu424 O453 2.363 1_455 S
O425 Eu424 2.366 1_656 S
O425 Eu427 2.366 1_556 S
O425 Eu432 2.370 1_655 S
O426 Eu424 2.374 . S
O426 Eu428 2.374 . S
O426 Eu431 2.370 . S
Eu427 O425 2.366 1_554 S
Eu427 O429 2.374 . S
Eu427 O433 2.374 . S
Eu427 O434 2.366 1_554 S
Eu427 O442 2.363 . S
Eu427 O443 2.363 . S
Eu427 O458 2.369 . S
Eu427 O459 2.356 1_554 S
Eu428 O426 2.374 . S
Eu428 O430 2.366 1_554 S
Eu428 O435 2.366 1_554 S
Eu428 O436 2.374 . S
Eu428 O444 2.363 . S
Eu428 O445 2.363 . S
Eu428 O460 2.369 . S
Eu428 O461 2.356 1_554 S
O429 Eu424 2.374 1_655 S
O429 Eu427 2.374 . S
O429 Eu431 2.370 1_655 S
O430 Eu424 2.366 1_556 S
O430 Eu428 2.366 1_556 S
O430 Eu432 2.370 . S
Eu431 O426 2.370 . S
Eu431 O429 2.370 1_455 S
Eu431 O433 2.370 1_455 S
Eu431 O436 2.370 . S
Eu431 O448 2.363 . S
Eu431 O449 2.363 1_455 S
Eu431 O456 2.363 . S
Eu431 O457 2.363 . S
Eu432 O425 2.370 1_455 S
Eu432 O430 2.370 . S
Eu432 O434 2.370 1_455 S
Eu432 O435 2.370 . S
Eu432 O446 2.363 . S
Eu432 O447 2.363 1_455 S
Eu432 O454 2.363 . S
Eu432 O455 2.363 . S
O433 Eu427 2.374 . S
O433 Eu431 2.370 1_655 S
O433 Eu437 2.374 1_655 S
O434 Eu427 2.366 1_556 S
O434 Eu432 2.370 1_655 S
O434 Eu437 2.366 1_656 S
O435 Eu428 2.366 1_556 S
O435 Eu432 2.370 . S
O435 Eu437 2.366 1_556 S
O436 Eu428 2.374 . S
O436 Eu431 2.370 . S
O436 Eu437 2.374 . S
Eu437 O433 2.374 1_455 S
Eu437 O434 2.366 1_454 S
Eu437 O435 2.366 1_554 S
Eu437 O436 2.374 . S
Eu437 O440 2.369 . S
Eu437 O441 2.357 1_554 S
Eu437 O450 2.363 . S
Eu437 O451 2.363 1_455 S
O438 C412 1.283 . S
O438 Eu424 2.370 . S
O439 C413 1.283 . S
O439 Eu424 2.356 1_556 S
O440 C414 1.283 . S
O440 Eu437 2.369 . S
O441 C415 1.283 . S
O441 Eu437 2.357 1_556 S
O442 C416 1.283 . S
O442 Eu427 2.363 . S
O443 C417 1.283 . S
O443 Eu427 2.363 . S
O444 C418 1.283 . S
O444 Eu428 2.363 . S
O445 C419 1.283 . S
O445 Eu428 2.363 . S
O446 C420 1.283 . S
O446 Eu432 2.363 . S
O447 C421 1.283 . S
O447 Eu432 2.363 1_655 S
O448 C422 1.283 . S
O448 Eu431 2.363 . S
O449 C423 1.283 . S
O449 Eu431 2.363 1_655 S
O450 C418 1.283 . S
O450 Eu437 2.363 . S
O451 C416 1.283 . S
O451 Eu437 2.363 1_655 S
O452 C419 1.283 . S
O452 Eu424 2.363 . S
O453 C417 1.283 . S
O453 Eu424 2.363 1_655 S
O454 C413 1.283 . S
O454 Eu432 2.363 . S
O455 C415 1.283 . S
O455 Eu432 2.363 . S
O456 C412 1.283 . S
O456 Eu431 2.363 . S
O457 C414 1.283 . S
O457 Eu431 2.363 . S
O458 C423 1.283 . S
O458 Eu427 2.369 . S
O459 C421 1.283 . S
O459 Eu427 2.356 1_556 S
O460 C422 1.283 . S
O460 Eu428 2.369 . S
O461 C420 1.283 . S
O461 Eu428 2.356 1_556 S
C462 O488 1.283 . S
C462 O506 1.283 . S
C463 O489 1.283 . S
C463 O504 1.283 . S
C464 O490 1.283 . S
C464 O507 1.283 . S
C465 O491 1.283 . S
C465 O505 1.283 . S
C466 O492 1.283 . S
C466 O501 1.283 . S
C467 O493 1.283 . S
C467 O503 1.283 . S
C468 O494 1.283 . S
C468 O500 1.283 . S
C469 O495 1.283 . S
C469 O502 1.283 . S
C470 O496 1.283 . S
C470 O511 1.283 . S
C471 O497 1.283 . S
C471 O509 1.283 . S
C472 O498 1.283 . S
C472 O510 1.283 . S
C473 O499 1.283 . S
C473 O508 1.283 . S
Eu474 O475 2.370 . S
Eu474 O476 2.370 . S
Eu474 O479 2.370 . S
Eu474 O480 2.370 . S
Eu474 O488 2.363 . S
Eu474 O489 2.363 . S
Eu474 O502 2.363 . S
Eu474 O503 2.363 . S
O475 Eu474 2.370 . S
O475 Eu477 2.374 . S
O475 Eu482 2.374 . S
O476 Eu474 2.370 . S
O476 Eu478 2.374 . S
O476 Eu481 2.374 . S
Eu477 O475 2.374 . S
Eu477 O479 2.374 . S
Eu477 O483 2.366 1_554 S
Eu477 O484 2.366 1_554 S
Eu477 O492 2.356 1_554 S
Eu477 O493 2.369 . S
Eu477 O508 2.363 . S
Eu477 O509 2.363 . S
Eu478 O476 2.374 . S
Eu478 O480 2.374 . S
Eu478 O485 2.366 1_554 S
Eu478 O486 2.366 1_554 S
Eu478 O494 2.356 1_554 S
Eu478 O495 2.369 . S
Eu478 O510 2.363 . S
Eu478 O511 2.363 . S
O479 Eu474 2.370 . S
O479 Eu477 2.374 . S
O479 Eu481 2.374 . S
O480 Eu474 2.370 . S
O480 Eu478 2.374 . S
O480 Eu482 2.374 . S
Eu481 O476 2.374 . S
Eu481 O479 2.374 . S
Eu481 O483 2.366 1_554 S
Eu481 O486 2.366 1_554 S
Eu481 O498 2.363 . S
Eu481 O499 2.363 . S
Eu481 O506 2.370 . S
Eu481 O507 2.356 1_554 S
Eu482 O475 2.374 . S
Eu482 O480 2.374 . S
Eu482 O484 2.367 1_554 S
Eu482 O485 2.367 1_554 S
Eu482 O496 2.363 . S
Eu482 O497 2.363 . S
Eu482 O504 2.369 . S
Eu482 O505 2.357 1_554 S
O483 Eu477 2.366 1_556 S
O483 Eu481 2.366 1_556 S
O483 Eu487 2.370 . S
O484 Eu477 2.366 1_556 S
O484 Eu482 2.367 1_556 S
O484 Eu487 2.370 . S
O485 Eu478 2.366 1_556 S
O485 Eu482 2.367 1_556 S
O485 Eu487 2.370 . S
O486 Eu478 2.366 1_556 S
O486 Eu481 2.366 1_556 S
O486 Eu487 2.370 . S
Eu487 O483 2.370 . S
Eu487 O484 2.370 . S
Eu487 O485 2.370 . S
Eu487 O486 2.370 . S
Eu487 O490 2.363 . S
Eu487 O491 2.363 . S
Eu487 O500 2.363 . S
Eu487 O501 2.363 . S
O488 C462 1.283 . S
O488 Eu474 2.363 . S
O489 C463 1.283 . S
O489 Eu474 2.363 . S
O490 C464 1.283 . S
O490 Eu487 2.363 . S
O491 C465 1.283 . S
O491 Eu487 2.363 . S
O492 C466 1.283 . S
O492 Eu477 2.356 1_556 S
O493 C467 1.283 . S
O493 Eu477 2.369 . S
O494 C468 1.283 . S
O494 Eu478 2.356 1_556 S
O495 C469 1.283 . S
O495 Eu478 2.369 . S
O496 C470 1.283 . S
O496 Eu482 2.363 . S
O497 C471 1.283 . S
O497 Eu482 2.363 . S
O498 C472 1.283 . S
O498 Eu481 2.363 . S
O499 C473 1.283 . S
O499 Eu481 2.363 . S
O500 C468 1.283 . S
O500 Eu487 2.363 . S
O501 C466 1.283 . S
O501 Eu487 2.363 . S
O502 C469 1.283 . S
O502 Eu474 2.363 . S
O503 C467 1.283 . S
O503 Eu474 2.363 . S
O504 C463 1.283 . S
O504 Eu482 2.369 . S
O505 C465 1.283 . S
O505 Eu482 2.357 1_556 S
O506 C462 1.283 . S
O506 Eu481 2.370 . S
O507 C464 1.283 . S
O507 Eu481 2.356 1_556 S
O508 C473 1.283 . S
O508 Eu477 2.363 . S
O509 C471 1.283 . S
O509 Eu477 2.363 . S
O510 C472 1.283 . S
O510 Eu478 2.363 . S
O511 C470 1.283 . S
O511 Eu478 2.363 . S
C512 O538 1.283 . S
C512 O556 1.283 . S
C513 O539 1.283 . S
C513 O554 1.283 . S
C514 O540 1.283 . S
C514 O557 1.283 . S
C515 O541 1.283 . S
C515 O555 1.283 . S
C516 O542 1.283 . S
C516 O551 1.283 . S
C517 O543 1.283 . S
C517 O553 1.283 . S
C518 O544 1.283 . S
C518 O550 1.283 . S
C519 O545 1.283 . S
C519 O552 1.283 . S
C520 O546 1.283 . S
C520 O561 1.283 . S
C521 O547 1.283 . S
C521 O559 1.283 . S
C522 O548 1.283 . S
C522 O560 1.283 . S
C523 O549 1.283 . S
C523 O558 1.283 . S
Eu524 O525 2.370 1_455 S
Eu524 O526 2.370 . S
Eu524 O529 2.370 1_455 S
Eu524 O530 2.370 . S
Eu524 O538 2.363 . S
Eu524 O539 2.363 . S
Eu524 O552 2.363 . S
Eu524 O553 2.363 1_455 S
O525 Eu524 2.370 1_655 S
O525 Eu527 2.370 . S
O525 Eu532 2.370 1_655 S
O526 Eu524 2.370 . S
O526 Eu528 2.370 . S
O526 Eu531 2.370 . S
Eu527 O525 2.370 . S
Eu527 O529 2.370 . S
Eu527 O533 2.370 . S
Eu527 O534 2.370 . S
Eu527 O542 2.363 . S
Eu527 O543 2.363 . S
Eu527 O558 2.363 . S
Eu527 O559 2.363 . S
Eu528 O526 2.370 . S
Eu528 O530 2.370 . S
Eu528 O535 2.370 . S
Eu528 O536 2.370 . S
Eu528 O544 2.363 . S
Eu528 O545 2.363 . S
Eu528 O560 2.363 . S
Eu528 O561 2.363 . S
O529 Eu524 2.370 1_655 S
O529 Eu527 2.370 . S
O529 Eu531 2.370 1_655 S
O530 Eu524 2.370 . S
O530 Eu528 2.370 . S
O530 Eu532 2.370 . S
Eu531 O526 2.370 . S
Eu531 O529 2.370 1_455 S
Eu531 O533 2.370 1_455 S
Eu531 O536 2.370 . S
Eu531 O548 2.363 . S
Eu531 O549 2.363 1_455 S
Eu531 O556 2.363 . S
Eu531 O557 2.363 . S
Eu532 O525 2.370 1_455 S
Eu532 O530 2.370 . S
Eu532 O534 2.370 1_455 S
Eu532 O535 2.370 . S
Eu532 O546 2.363 . S
Eu532 O547 2.363 1_455 S
Eu532 O554 2.363 . S
Eu532 O555 2.363 . S
O533 Eu527 2.370 . S
O533 Eu531 2.370 1_655 S
O533 Eu537 2.370 1_655 S
O534 Eu527 2.370 . S
O534 Eu532 2.370 1_655 S
O534 Eu537 2.370 1_655 S
O535 Eu528 2.370 . S
O535 Eu532 2.370 . S
O535 Eu537 2.370 . S
O536 Eu528 2.370 . S
O536 Eu531 2.370 . S
O536 Eu537 2.370 . S
Eu537 O533 2.370 1_455 S
Eu537 O534 2.370 1_455 S
Eu537 O535 2.370 . S
Eu537 O536 2.370 . S
Eu537 O540 2.363 . S
Eu537 O541 2.363 . S
Eu537 O550 2.363 . S
Eu537 O551 2.363 1_455 S
O538 C512 1.283 . S
O538 Eu524 2.363 . S
O539 C513 1.283 . S
O539 Eu524 2.363 . S
O540 C514 1.283 . S
O540 Eu537 2.363 . S
O541 C515 1.283 . S
O541 Eu537 2.363 . S
O542 C516 1.283 . S
O542 Eu527 2.363 . S
O543 C517 1.283 . S
O543 Eu527 2.363 . S
O544 C518 1.283 . S
O544 Eu528 2.363 . S
O545 C519 1.283 . S
O545 Eu528 2.363 . S
O546 C520 1.283 . S
O546 Eu532 2.363 . S
O547 C521 1.283 . S
O547 Eu532 2.363 1_655 S
O548 C522 1.283 . S
O548 Eu531 2.363 . S
O549 C523 1.283 . S
O549 Eu531 2.363 1_655 S
O550 C518 1.283 . S
O550 Eu537 2.363 . S
O551 C516 1.283 . S
O551 Eu537 2.363 1_655 S
O552 C519 1.283 . S
O552 Eu524 2.363 . S
O553 C517 1.283 . S
O553 Eu524 2.363 1_655 S
O554 C513 1.283 . S
O554 Eu532 2.363 . S
O555 C515 1.283 . S
O555 Eu532 2.363 . S
O556 C512 1.283 . S
O556 Eu531 2.363 . S
O557 C514 1.283 . S
O557 Eu531 2.363 . S
O558 C523 1.283 . S
O558 Eu527 2.363 . S
O559 C521 1.283 . S
O559 Eu527 2.363 . S
O560 C522 1.283 . S
O560 Eu528 2.363 . S
O561 C520 1.283 . S
O561 Eu528 2.363 . S
C562 O588 1.283 . S
C562 O606 1.283 . S
C563 O589 1.283 . S
C563 O604 1.283 . S
C564 O590 1.283 . S
C564 O607 1.283 . S
C565 O591 1.283 . S
C565 O605 1.283 . S
C566 O592 1.283 . S
C566 O601 1.283 . S
C567 O593 1.283 . S
C567 O603 1.283 . S
C568 O594 1.283 . S
C568 O600 1.283 . S
C569 O595 1.283 . S
C569 O602 1.283 . S
C570 O596 1.283 . S
C570 O611 1.283 . S
C571 O597 1.283 . S
C571 O609 1.283 . S
C572 O598 1.283 . S
C572 O610 1.283 . S
C573 O599 1.283 . S
C573 O608 1.283 . S
Eu574 O575 2.370 . S
Eu574 O576 2.370 . S
Eu574 O579 2.370 . S
Eu574 O580 2.370 . S
Eu574 O588 2.363 . S
Eu574 O589 2.363 . S
Eu574 O602 2.363 . S
Eu574 O603 2.363 . S
O575 Eu574 2.370 . S
O575 Eu577 2.366 1_565 S
O575 Eu582 2.366 1_565 S
O576 Eu574 2.370 . S
O576 Eu578 2.366 1_565 S
O576 Eu581 2.366 1_565 S
Eu577 O575 2.366 1_545 S
Eu577 O579 2.366 1_545 S
Eu577 O583 2.374 . S
Eu577 O584 2.374 . S
Eu577 O592 2.369 . S
Eu577 O593 2.356 1_545 S
Eu577 O608 2.363 . S
Eu577 O609 2.363 . S
Eu578 O576 2.366 1_545 S
Eu578 O580 2.366 1_545 S
Eu578 O585 2.374 . S
Eu578 O586 2.374 . S
Eu578 O594 2.369 . S
Eu578 O595 2.356 1_545 S
Eu578 O610 2.363 . S
Eu578 O611 2.363 . S
O579 Eu574 2.370 . S
O579 Eu577 2.366 1_565 S
O579 Eu581 2.366 1_565 S
O580 Eu574 2.370 . S
O580 Eu578 2.366 1_565 S
O580 Eu582 2.366 1_565 S
Eu581 O576 2.366 1_545 S
Eu581 O579 2.366 1_545 S
Eu581 O583 2.374 . S
Eu581 O586 2.374 . S
Eu581 O598 2.363 . S
Eu581 O599 2.363 . S
Eu581 O606 2.356 1_545 S
Eu581 O607 2.370 . S
Eu582 O575 2.366 1_545 S
Eu582 O580 2.366 1_545 S
Eu582 O584 2.374 . S
Eu582 O585 2.374 . S
Eu582 O596 2.363 . S
Eu582 O597 2.363 . S
Eu582 O604 2.357 1_545 S
Eu582 O605 2.369 . S
O583 Eu577 2.374 . S
O583 Eu581 2.374 . S
O583 Eu587 2.370 . S
O584 Eu577 2.374 . S
O584 Eu582 2.374 . S
O584 Eu587 2.370 . S
O585 Eu578 2.374 . S
O585 Eu582 2.374 . S
O585 Eu587 2.370 . S
O586 Eu578 2.374 . S
O586 Eu581 2.374 . S
O586 Eu587 2.370 . S
Eu587 O583 2.370 . S
Eu587 O584 2.370 . S
Eu587 O585 2.370 . S
Eu587 O586 2.370 . S
Eu587 O590 2.363 . S
Eu587 O591 2.363 . S
Eu587 O600 2.363 . S
Eu587 O601 2.363 . S
O588 C562 1.283 . S
O588 Eu574 2.363 . S
O589 C563 1.283 . S
O589 Eu574 2.363 . S
O590 C564 1.283 . S
O590 Eu587 2.363 . S
O591 C565 1.283 . S
O591 Eu587 2.363 . S
O592 C566 1.283 . S
O592 Eu577 2.369 . S
O593 C567 1.283 . S
O593 Eu577 2.356 1_565 S
O594 C568 1.283 . S
O594 Eu578 2.369 . S
O595 C569 1.283 . S
O595 Eu578 2.356 1_565 S
O596 C570 1.283 . S
O596 Eu582 2.363 . S
O597 C571 1.283 . S
O597 Eu582 2.363 . S
O598 C572 1.283 . S
O598 Eu581 2.363 . S
O599 C573 1.283 . S
O599 Eu581 2.363 . S
O600 C568 1.283 . S
O600 Eu587 2.363 . S
O601 C566 1.283 . S
O601 Eu587 2.363 . S
O602 C569 1.283 . S
O602 Eu574 2.363 . S
O603 C567 1.283 . S
O603 Eu574 2.363 . S
O604 C563 1.283 . S
O604 Eu582 2.357 1_565 S
O605 C565 1.283 . S
O605 Eu582 2.369 . S
O606 C562 1.283 . S
O606 Eu581 2.356 1_565 S
O607 C564 1.283 . S
O607 Eu581 2.370 . S
O608 C573 1.283 . S
O608 Eu577 2.363 . S
O609 C571 1.283 . S
O609 Eu577 2.363 . S
O610 C572 1.283 . S
O610 Eu578 2.363 . S
O611 C570 1.283 . S
O611 Eu578 2.363 . S
C612 C613 1.387 . S
C612 H616 0.950 . S
C612 C621 1.390 . S
C613 C612 1.387 . S
C613 C615 1.387 . S
H614 C621 0.950 . S
C615 C613 1.387 . S
C615 C617 1.390 . S
C615 H619 0.950 . S
H616 C612 0.950 . S
C617 C615 1.390 . S
C617 C618 1.387 . S
C617 H620 0.950 . S
C618 C617 1.387 . S
C618 C621 1.387 . S
H619 C615 0.950 . S
H620 C617 0.950 . S
C621 C612 1.390 . S
C621 H614 0.950 . S
C621 C618 1.387 . S
C622 C623 1.387 . S
C622 H626 0.950 . S
C622 C631 1.390 . S
C623 C622 1.387 . S
C623 C625 1.387 . S
H624 C631 0.950 . S
C625 C623 1.387 . S
C625 C627 1.390 . S
C625 H629 0.950 . S
H626 C622 0.950 . S
C627 C625 1.390 . S
C627 C628 1.387 . S
C627 H630 0.950 . S
C628 C627 1.387 . S
C628 C631 1.387 . S
H629 C625 0.950 . S
H630 C627 0.950 . S
C631 C622 1.390 . S
C631 H624 0.950 . S
C631 C628 1.387 . S
C632 C633 1.387 . S
C632 H636 0.950 . S
C632 C641 1.390 . S
C633 C632 1.387 . S
C633 C635 1.387 . S
H634 C641 0.950 . S
C635 C633 1.387 . S
C635 C637 1.390 . S
C635 H639 0.950 . S
H636 C632 0.950 . S
C637 C635 1.390 . S
C637 C638 1.387 . S
C637 H640 0.950 . S
C638 C637 1.387 . S
C638 C641 1.387 . S
H639 C635 0.950 . S
H640 C637 0.950 . S
C641 C632 1.390 . S
C641 H634 0.950 . S
C641 C638 1.387 . S
C642 C643 1.387 . S
C642 H646 0.950 . S
C642 C651 1.390 . S
C643 C642 1.387 . S
C643 C645 1.387 . S
H644 C651 0.950 . S
C645 C643 1.387 . S
C645 C647 1.390 . S
C645 H649 0.950 . S
H646 C642 0.950 . S
C647 C645 1.390 . S
C647 C648 1.387 . S
C647 H650 0.950 . S
C648 C647 1.387 . S
C648 C651 1.387 . S
H649 C645 0.950 . S
H650 C647 0.950 . S
C651 C642 1.390 . S
C651 H644 0.950 . S
C651 C648 1.387 . S
C652 C653 1.387 . S
C652 H656 0.950 . S
C652 C661 1.390 . S
C653 C652 1.387 . S
C653 C655 1.387 . S
H654 C661 0.950 . S
C655 C653 1.387 . S
C655 C657 1.390 . S
C655 H659 0.950 . S
H656 C652 0.950 . S
C657 C655 1.390 . S
C657 C658 1.387 . S
C657 H660 0.950 . S
C658 C657 1.387 . S
C658 C661 1.387 . S
H659 C655 0.950 . S
H660 C657 0.950 . S
C661 C652 1.390 . S
C661 H654 0.950 . S
C661 C658 1.387 . S
C662 C663 1.387 . S
C662 H666 0.950 . S
C662 C671 1.390 . S
C663 C662 1.387 . S
C663 C665 1.387 . S
H664 C671 0.950 . S
C665 C663 1.387 . S
C665 C667 1.390 . S
C665 H669 0.950 . S
H666 C662 0.950 . S
C667 C665 1.390 . S
C667 C668 1.387 . S
C667 H670 0.950 . S
C668 C667 1.387 . S
C668 C671 1.387 . S
H669 C665 0.950 . S
H670 C667 0.950 . S
C671 C662 1.390 . S
C671 H664 0.950 . S
C671 C668 1.387 . S
C672 C673 1.387 . S
C672 H676 0.950 . S
C672 C681 1.390 . S
C673 C672 1.387 . S
C673 C675 1.387 . S
H674 C681 0.950 . S
C675 C673 1.387 . S
C675 C677 1.390 . S
C675 H679 0.950 . S
H676 C672 0.950 . S
C677 C675 1.390 . S
C677 C678 1.387 . S
C677 H680 0.950 . S
C678 C677 1.387 . S
C678 C681 1.387 . S
H679 C675 0.950 . S
H680 C677 0.950 . S
C681 C672 1.390 . S
C681 H674 0.950 . S
C681 C678 1.387 . S
C682 C683 1.387 . S
C682 H686 0.950 . S
C682 C691 1.390 . S
C683 C682 1.387 . S
C683 C685 1.387 . S
H684 C691 0.950 . S
C685 C683 1.387 . S
C685 C687 1.390 . S
C685 H689 0.950 . S
H686 C682 0.950 . S
C687 C685 1.390 . S
C687 C688 1.387 . S
C687 H690 0.950 . S
C688 C687 1.387 . S
C688 C691 1.387 . S
H689 C685 0.950 . S
H690 C687 0.950 . S
C691 C682 1.390 . S
C691 H684 0.950 . S
C691 C688 1.387 . S
C692 C693 1.387 . S
C692 H696 0.950 . S
C692 C701 1.390 . S
C693 C692 1.387 . S
C693 C695 1.387 . S
H694 C701 0.950 . S
C695 C693 1.387 . S
C695 C697 1.390 . S
C695 H699 0.950 . S
H696 C692 0.950 . S
C697 C695 1.390 . S
C697 C698 1.387 . S
C697 H700 0.950 . S
C698 C697 1.387 . S
C698 C701 1.387 . S
H699 C695 0.950 . S
H700 C697 0.950 . S
C701 C692 1.390 . S
C701 H694 0.950 . S
C701 C698 1.387 . S
C702 C703 1.387 . S
C702 H706 0.950 . S
C702 C711 1.390 . S
C703 C702 1.387 . S
C703 C705 1.387 . S
H704 C711 0.950 . S
C705 C703 1.387 . S
C705 C707 1.390 . S
C705 H709 0.950 . S
H706 C702 0.950 . S
C707 C705 1.390 . S
C707 C708 1.387 . S
C707 H710 0.950 . S
C708 C707 1.387 . S
C708 C711 1.387 . S
H709 C705 0.950 . S
H710 C707 0.950 . S
C711 C702 1.390 . S
C711 H704 0.950 . S
C711 C708 1.387 . S
C712 C713 1.387 . S
C712 H716 0.950 . S
C712 C721 1.390 . S
C713 C712 1.387 . S
C713 C715 1.387 . S
H714 C721 0.950 . S
C715 C713 1.387 . S
C715 C717 1.390 . S
C715 H719 0.950 . S
H716 C712 0.950 . S
C717 C715 1.390 . S
C717 C718 1.387 . S
C717 H720 0.950 . S
C718 C717 1.387 . S
C718 C721 1.387 . S
H719 C715 0.950 . S
H720 C717 0.950 . S
C721 C712 1.390 . S
C721 H714 0.950 . S
C721 C718 1.387 . S
C722 C723 1.387 . S
C722 H726 0.950 . S
C722 C731 1.390 . S
C723 C722 1.387 . S
C723 C725 1.387 . S
H724 C731 0.950 . S
C725 C723 1.387 . S
C725 C727 1.390 . S
C725 H729 0.950 . S
H726 C722 0.950 . S
C727 C725 1.390 . S
C727 C728 1.387 . S
C727 H730 0.950 . S
C728 C727 1.387 . S
C728 C731 1.387 . S
H729 C725 0.950 . S
H730 C727 0.950 . S
C731 C722 1.390 . S
C731 H724 0.950 . S
C731 C728 1.387 . S
C732 C733 1.392 . S
C732 H736 0.950 . S
C732 C741 1.390 . S
C733 C732 1.392 . S
C733 C735 1.383 1_554 S
H734 C741 0.950 . S
C735 C733 1.383 1_556 S
C735 C737 1.390 . S
C735 H739 0.950 . S
H736 C732 0.950 . S
C737 C735 1.390 . S
C737 C738 1.382 1_556 S
C737 H740 0.950 . S
C738 C737 1.382 1_554 S
C738 C741 1.393 . S
H739 C735 0.950 . S
H740 C737 0.950 . S
C741 C732 1.390 . S
C741 H734 0.950 . S
C741 C738 1.393 . S
C742 C743 1.383 1_556 S
C742 H746 0.950 . S
C742 C751 1.390 . S
C743 C742 1.383 1_554 S
C743 C745 1.392 . S
H744 C751 0.950 . S
C745 C743 1.392 . S
C745 C747 1.390 . S
C745 H749 0.950 . S
H746 C742 0.950 . S
C747 C745 1.390 . S
C747 C748 1.393 . S
C747 H750 0.950 . S
C748 C747 1.393 . S
C748 C751 1.382 1_554 S
H749 C745 0.950 . S
H750 C747 0.950 . S
C751 C742 1.390 . S
C751 H744 0.950 . S
C751 C748 1.382 1_556 S
C752 C753 1.395 . S
C752 H756 0.950 . S
C752 C761 1.390 . S
C753 C752 1.395 . S
C753 C755 1.380 1_554 S
H754 C761 0.950 . S
C755 C753 1.380 1_556 S
C755 C757 1.390 . S
C755 H759 0.950 . S
H756 C752 0.950 . S
C757 C755 1.390 . S
C757 C758 1.380 1_556 S
C757 H760 0.950 . S
C758 C757 1.380 1_554 S
C758 C761 1.395 . S
H759 C755 0.950 . S
H760 C757 0.950 . S
C761 C752 1.390 . S
C761 H754 0.950 . S
C761 C758 1.395 . S
C762 C763 1.380 1_556 S
C762 H766 0.950 . S
C762 C771 1.390 . S
C763 C762 1.380 1_554 S
C763 C765 1.395 . S
H764 C771 0.950 . S
C765 C763 1.395 . S
C765 C767 1.390 . S
C765 H769 0.950 . S
H766 C762 0.950 . S
C767 C765 1.390 . S
C767 C768 1.395 . S
C767 H770 0.950 . S
C768 C767 1.395 . S
C768 C771 1.380 1_554 S
H769 C765 0.950 . S
H770 C767 0.950 . S
C771 C762 1.390 . S
C771 H764 0.950 . S
C771 C768 1.380 1_556 S
C772 C773 1.387 . S
C772 H776 0.950 . S
C772 C781 1.390 . S
C773 C772 1.387 . S
C773 C775 1.387 1_455 S
H774 C781 0.950 . S
C775 C773 1.387 1_655 S
C775 C777 1.390 . S
C775 H779 0.950 . S
H776 C772 0.950 . S
C777 C775 1.390 . S
C777 C778 1.387 1_655 S
C777 H780 0.950 . S
C778 C777 1.387 1_455 S
C778 C781 1.387 . S
H779 C775 0.950 . S
H780 C777 0.950 . S
C781 C772 1.390 . S
C781 H774 0.950 . S
C781 C778 1.387 . S
C782 C783 1.393 . S
C782 H786 0.950 . S
C782 C791 1.390 . S
C783 C782 1.393 . S
C783 C785 1.382 1_545 S
H784 C791 0.950 . S
C785 C783 1.382 1_565 S
C785 C787 1.390 . S
C785 H789 0.950 . S
H786 C782 0.950 . S
C787 C785 1.390 . S
C787 C788 1.381 1_565 S
C787 H790 0.950 . S
C788 C787 1.381 1_545 S
C788 C791 1.394 . S
H789 C785 0.950 . S
H790 C787 0.950 . S
C791 C782 1.390 . S
C791 H784 0.950 . S
C791 C788 1.394 . S
C792 C793 1.387 1_655 S
C792 H796 0.950 . S
C792 C801 1.390 . S
C793 C792 1.387 1_455 S
C793 C795 1.387 . S
H794 C801 0.950 . S
C795 C793 1.387 . S
C795 C797 1.390 . S
C795 H799 0.950 . S
H796 C792 0.950 . S
C797 C795 1.390 . S
C797 C798 1.387 . S
C797 H800 0.950 . S
C798 C797 1.387 . S
C798 C801 1.387 1_455 S
H799 C795 0.950 . S
H800 C797 0.950 . S
C801 C792 1.390 . S
C801 H794 0.950 . S
C801 C798 1.387 1_655 S
C802 C803 1.395 . S
C802 H806 0.950 . S
C802 C811 1.390 . S
C803 C802 1.395 . S
C803 C805 1.379 1_545 S
H804 C811 0.950 . S
C805 C803 1.379 1_565 S
C805 C807 1.390 . S
C805 H809 0.950 . S
H806 C802 0.950 . S
C807 C805 1.390 . S
C807 C808 1.381 1_565 S
C807 H810 0.950 . S
C808 C807 1.381 1_545 S
C808 C811 1.394 . S
H809 C805 0.950 . S
H810 C807 0.950 . S
C811 C802 1.390 . S
C811 H804 0.950 . S
C811 C808 1.394 . S
C812 C813 1.387 . S
C812 H816 0.950 . S
C812 C821 1.390 . S
C813 C812 1.387 . S
C813 C815 1.387 1_455 S
H814 C821 0.950 . S
C815 C813 1.387 1_655 S
C815 C817 1.390 . S
C815 H819 0.950 . S
H816 C812 0.950 . S
C817 C815 1.390 . S
C817 C818 1.387 1_655 S
C817 H820 0.950 . S
C818 C817 1.387 1_455 S
C818 C821 1.387 . S
H819 C815 0.950 . S
H820 C817 0.950 . S
C821 C812 1.390 . S
C821 H814 0.950 . S
C821 C818 1.387 . S
C822 C823 1.383 1_565 S
C822 H826 0.950 . S
C822 C831 1.390 . S
C823 C822 1.383 1_545 S
C823 C825 1.392 . S
H824 C831 0.950 . S
C825 C823 1.392 . S
C825 C827 1.390 . S
C825 H829 0.950 . S
H826 C822 0.950 . S
C827 C825 1.390 . S
C827 C828 1.393 . S
C827 H830 0.950 . S
C828 C827 1.393 . S
C828 C831 1.382 1_545 S
H829 C825 0.950 . S
H830 C827 0.950 . S
C831 C822 1.390 . S
C831 H824 0.950 . S
C831 C828 1.382 1_565 S
C832 C833 1.387 1_655 S
C832 H836 0.950 . S
C832 C841 1.390 . S
C833 C832 1.387 1_455 S
C833 C835 1.387 . S
H834 C841 0.950 . S
C835 C833 1.387 . S
C835 C837 1.390 . S
C835 H839 0.950 . S
H836 C832 0.950 . S
C837 C835 1.390 . S
C837 C838 1.387 . S
C837 H840 0.950 . S
C838 C837 1.387 . S
C838 C841 1.387 1_455 S
H839 C835 0.950 . S
H840 C837 0.950 . S
C841 C832 1.390 . S
C841 H834 0.950 . S
C841 C838 1.387 1_655 S
C842 C843 1.395 . S
C842 H846 0.950 . S
C842 C851 1.390 . S
C843 C842 1.395 . S
C843 C845 1.380 1_545 S
H844 C851 0.950 . S
C845 C843 1.380 1_565 S
C845 C847 1.390 . S
C845 H849 0.950 . S
H846 C842 0.950 . S
C847 C845 1.390 . S
C847 C848 1.381 1_565 S
C847 H850 0.950 . S
C848 C847 1.381 1_545 S
C848 C851 1.393 . S
H849 C845 0.950 . S
H850 C847 0.950 . S
C851 C842 1.390 . S
C851 H844 0.950 . S
C851 C848 1.393 . S
C852 C853 1.387 1_655 S
C852 H856 0.950 . S
C852 C861 1.390 . S
C853 C852 1.387 1_455 S
C853 C855 1.387 . S
H854 C861 0.950 . S
C855 C853 1.387 . S
C855 C857 1.390 . S
C855 H859 0.950 . S
H856 C852 0.950 . S
C857 C855 1.390 . S
C857 C858 1.387 . S
C857 H860 0.950 . S
C858 C857 1.387 . S
C858 C861 1.387 1_455 S
H859 C855 0.950 . S
H860 C857 0.950 . S
C861 C852 1.390 . S
C861 H854 0.950 . S
C861 C858 1.387 1_655 S
C862 C863 1.383 1_565 S
C862 H866 0.950 . S
C862 C871 1.390 . S
C863 C862 1.383 1_545 S
C863 C865 1.392 . S
H864 C871 0.950 . S
C865 C863 1.392 . S
C865 C867 1.390 . S
C865 H869 0.950 . S
H866 C862 0.950 . S
C867 C865 1.390 . S
C867 C868 1.392 . S
C867 H870 0.950 . S
C868 C867 1.392 . S
C868 C871 1.383 1_545 S
H869 C865 0.950 . S
H870 C867 0.950 . S
C871 C862 1.390 . S
C871 H864 0.950 . S
C871 C868 1.383 1_565 S
C872 C873 1.387 1_655 S
C872 H876 0.950 . S
C872 C881 1.390 . S
C873 C872 1.387 1_455 S
C873 C875 1.387 . S
H874 C881 0.950 . S
C875 C873 1.387 . S
C875 C877 1.390 . S
C875 H879 0.950 . S
H876 C872 0.950 . S
C877 C875 1.390 . S
C877 C878 1.387 . S
C877 H880 0.950 . S
C878 C877 1.387 . S
C878 C881 1.387 1_455 S
H879 C875 0.950 . S
H880 C877 0.950 . S
C881 C872 1.390 . S
C881 H874 0.950 . S
C881 C878 1.387 1_655 S
C882 C883 1.380 1_565 S
C882 H886 0.950 . S
C882 C891 1.390 . S
C883 C882 1.380 1_545 S
C883 C885 1.395 . S
H884 C891 0.950 . S
C885 C883 1.395 . S
C885 C887 1.390 . S
C885 H889 0.950 . S
H886 C882 0.950 . S
C887 C885 1.390 . S
C887 C888 1.393 . S
C887 H890 0.950 . S
C888 C887 1.393 . S
C888 C891 1.382 1_545 S
H889 C885 0.950 . S
H890 C887 0.950 . S
C891 C882 1.390 . S
C891 H884 0.950 . S
C891 C888 1.382 1_565 S
C892 C893 1.387 1_655 S
C892 H896 0.950 . S
C892 C901 1.390 . S
C893 C892 1.387 1_455 S
C893 C895 1.387 . S
H894 C901 0.950 . S
C895 C893 1.387 . S
C895 C897 1.390 . S
C895 H899 0.950 . S
H896 C892 0.950 . S
C897 C895 1.390 . S
C897 C898 1.387 . S
C897 H900 0.950 . S
C898 C897 1.387 . S
C898 C901 1.387 1_455 S
H899 C895 0.950 . S
H900 C897 0.950 . S
C901 C892 1.390 . S
C901 H894 0.950 . S
C901 C898 1.387 1_655 S
C902 C903 1.393 . S
C902 H906 0.950 . S
C902 C911 1.390 . S
C903 C902 1.393 . S
C903 C905 1.382 1_545 S
H904 C911 0.950 . S
C905 C903 1.382 1_565 S
C905 C907 1.390 . S
C905 H909 0.950 . S
H906 C902 0.950 . S
C907 C905 1.390 . S
C907 C908 1.381 1_565 S
C907 H910 0.950 . S
C908 C907 1.381 1_545 S
C908 C911 1.394 . S
H909 C905 0.950 . S
H910 C907 0.950 . S
C911 C902 1.390 . S
C911 H904 0.950 . S
C911 C908 1.394 . S
C912 C913 1.387 1_655 S
C912 H916 0.950 . S
C912 C921 1.390 . S
C913 C912 1.387 1_455 S
C913 C915 1.387 . S
H914 C921 0.950 . S
C915 C913 1.387 . S
C915 C917 1.390 . S
C915 H919 0.950 . S
H916 C912 0.950 . S
C917 C915 1.390 . S
C917 C918 1.387 . S
C917 H920 0.950 . S
C918 C917 1.387 . S
C918 C921 1.387 1_455 S
H919 C915 0.950 . S
H920 C917 0.950 . S
C921 C912 1.390 . S
C921 H914 0.950 . S
C921 C918 1.387 1_655 S
C922 C923 1.379 1_565 S
C922 H926 0.950 . S
C922 C931 1.390 . S
C923 C922 1.379 1_545 S
C923 C925 1.396 . S
H924 C931 0.950 . S
C925 C923 1.396 . S
C925 C927 1.390 . S
C925 H929 0.950 . S
H926 C922 0.950 . S
C927 C925 1.390 . S
C927 C928 1.395 . S
C927 H930 0.950 . S
C928 C927 1.395 . S
C928 C931 1.380 1_545 S
H929 C925 0.950 . S
H930 C927 0.950 . S
C931 C922 1.390 . S
C931 H924 0.950 . S
C931 C928 1.380 1_565 S
C932 C933 1.382 1_565 S
C932 H936 0.950 . S
C932 C941 1.390 . S
C933 C932 1.382 1_545 S
C933 C935 1.393 . S
H934 C941 0.950 . S
C935 C933 1.393 . S
C935 C937 1.390 . S
C935 H939 0.950 . S
H936 C932 0.950 . S
C937 C935 1.390 . S
C937 C938 1.386 . S
C937 H940 0.950 . S
C938 C937 1.386 . S
C938 C941 1.389 1_545 S
H939 C935 0.950 . S
H940 C937 0.950 . S
C941 C932 1.390 . S
C941 H934 0.950 . S
C941 C938 1.389 1_565 S
C942 C943 1.387 . S
C942 H946 0.950 . S
C942 C951 1.390 . S
C943 C942 1.387 . S
C943 C945 1.387 1_455 S
H944 C951 0.950 . S
C945 C943 1.387 1_655 S
C945 C947 1.390 . S
C945 H949 0.950 . S
H946 C942 0.950 . S
C947 C945 1.390 . S
C947 C948 1.387 1_655 S
C947 H950 0.950 . S
C948 C947 1.387 1_455 S
C948 C951 1.387 . S
H949 C945 0.950 . S
H950 C947 0.950 . S
C951 C942 1.390 . S
C951 H944 0.950 . S
C951 C948 1.387 . S
C952 C953 1.385 1_565 S
C952 H956 0.950 . S
C952 C961 1.390 . S
C953 C952 1.385 1_545 S
C953 C955 1.390 . S
H954 C961 0.950 . S
C955 C953 1.390 . S
C955 C957 1.390 . S
C955 H959 0.950 . S
H956 C952 0.950 . S
C957 C955 1.390 . S
C957 C958 1.385 . S
C957 H960 0.950 . S
C958 C957 1.385 . S
C958 C961 1.390 1_545 S
H959 C955 0.950 . S
H960 C957 0.950 . S
C961 C952 1.390 . S
C961 H954 0.950 . S
C961 C958 1.390 1_565 S
C962 C963 1.387 1_655 S
C962 H966 0.950 . S
C962 C971 1.390 . S
C963 C962 1.387 1_455 S
C963 C965 1.387 . S
H964 C971 0.950 . S
C965 C963 1.387 . S
C965 C967 1.390 . S
C965 H969 0.950 . S
H966 C962 0.950 . S
C967 C965 1.390 . S
C967 C968 1.387 . S
C967 H970 0.950 . S
C968 C967 1.387 . S
C968 C971 1.387 1_455 S
H969 C965 0.950 . S
H970 C967 0.950 . S
C971 C962 1.390 . S
C971 H964 0.950 . S
C971 C968 1.387 1_655 S
C972 C973 1.394 . S
C972 H976 0.950 . S
C972 C981 1.390 . S
C973 C972 1.394 . S
C973 C975 1.381 1_545 S
H974 C981 0.950 . S
C975 C973 1.381 1_565 S
C975 C977 1.390 . S
C975 H979 0.950 . S
H976 C972 0.950 . S
C977 C975 1.390 . S
C977 C978 1.374 1_565 S
C977 H980 0.950 . S
C978 C977 1.374 1_545 S
C978 C981 1.401 . S
H979 C975 0.950 . S
H980 C977 0.950 . S
C981 C972 1.390 . S
C981 H974 0.950 . S
C981 C978 1.401 . S
C982 C983 1.387 1_655 S
C982 H986 0.950 . S
C982 C991 1.390 . S
C983 C982 1.387 1_455 S
C983 C985 1.387 . S
H984 C991 0.950 . S
C985 C983 1.387 . S
C985 C987 1.390 . S
C985 H989 0.950 . S
H986 C982 0.950 . S
C987 C985 1.390 . S
C987 C988 1.387 . S
C987 H990 0.950 . S
C988 C987 1.387 . S
C988 C991 1.387 1_455 S
H989 C985 0.950 . S
H990 C987 0.950 . S
C991 C982 1.390 . S
C991 H984 0.950 . S
C991 C988 1.387 1_655 S
C992 C993 1.378 1_565 S
C992 H996 0.950 . S
C992 C1001 1.390 . S
C993 C992 1.378 1_545 S
C993 C995 1.397 . S
H994 C1001 0.950 . S
C995 C993 1.397 . S
C995 C997 1.390 . S
C995 H999 0.950 . S
H996 C992 0.950 . S
C997 C995 1.390 . S
C997 C998 1.402 . S
C997 H1000 0.950 . S
C998 C997 1.402 . S
C998 C1001 1.373 1_545 S
H999 C995 0.950 . S
H1000 C997 0.950 . S
C1001 C992 1.390 . S
C1001 H994 0.950 . S
C1001 C998 1.373 1_565 S
C1002 C1003 1.387 . S
C1002 H1006 0.950 . S
C1002 C1011 1.390 . S
C1003 C1002 1.387 . S
C1003 C1005 1.387 1_455 S
H1004 C1011 0.950 . S
C1005 C1003 1.387 1_655 S
C1005 C1007 1.390 . S
C1005 H1009 0.950 . S
H1006 C1002 0.950 . S
C1007 C1005 1.390 . S
C1007 C1008 1.387 1_655 S
C1007 H1010 0.950 . S
C1008 C1007 1.387 1_455 S
C1008 C1011 1.387 . S
H1009 C1005 0.950 . S
H1010 C1007 0.950 . S
C1011 C1002 1.390 . S
C1011 H1004 0.950 . S
C1011 C1008 1.387 . S
C1012 C1013 1.380 1_556 S
C1012 H1016 0.950 . S
C1012 C1021 1.390 . S
C1013 C1012 1.380 1_554 S
C1013 C1015 1.395 . S
H1014 C1021 0.950 . S
C1015 C1013 1.395 . S
C1015 C1017 1.390 . S
C1015 H1019 0.950 . S
H1016 C1012 0.950 . S
C1017 C1015 1.390 . S
C1017 C1018 1.394 . S
C1017 H1020 0.950 . S
C1018 C1017 1.394 . S
C1018 C1021 1.381 1_554 S
H1019 C1015 0.950 . S
H1020 C1017 0.950 . S
C1021 C1012 1.390 . S
C1021 H1014 0.950 . S
C1021 C1018 1.381 1_556 S
C1022 C1023 1.392 . S
C1022 H1026 0.950 . S
C1022 C1031 1.390 . S
C1023 C1022 1.392 . S
C1023 C1025 1.383 1_554 S
H1024 C1031 0.950 . S
C1025 C1023 1.383 1_556 S
C1025 C1027 1.390 . S
C1025 H1029 0.950 . S
H1026 C1022 0.950 . S
C1027 C1025 1.390 . S
C1027 C1028 1.382 1_556 S
C1027 H1030 0.950 . S
C1028 C1027 1.382 1_554 S
C1028 C1031 1.393 . S
H1029 C1025 0.950 . S
H1030 C1027 0.950 . S
C1031 C1022 1.390 . S
C1031 H1024 0.950 . S
C1031 C1028 1.393 . S
C1032 C1033 1.396 . S
C1032 H1036 0.950 . S
C1032 C1041 1.390 . S
C1033 C1032 1.396 . S
C1033 C1035 1.379 1_554 S
H1034 C1041 0.950 . S
C1035 C1033 1.379 1_556 S
C1035 C1037 1.390 . S
C1035 H1039 0.950 . S
H1036 C1032 0.950 . S
C1037 C1035 1.390 . S
C1037 C1038 1.373 1_556 S
C1037 H1040 0.950 . S
C1038 C1037 1.373 1_554 S
C1038 C1041 1.402 . S
H1039 C1035 0.950 . S
H1040 C1037 0.950 . S
C1041 C1032 1.390 . S
C1041 H1034 0.950 . S
C1041 C1038 1.402 . S
C1042 C1043 1.380 1_556 S
C1042 H1046 0.950 . S
C1042 C1051 1.390 . S
C1043 C1042 1.380 1_554 S
C1043 C1045 1.395 . S
H1044 C1051 0.950 . S
C1045 C1043 1.395 . S
C1045 C1047 1.390 . S
C1045 H1049 0.950 . S
H1046 C1042 0.950 . S
C1047 C1045 1.390 . S
C1047 C1048 1.394 . S
C1047 H1050 0.950 . S
C1048 C1047 1.394 . S
C1048 C1051 1.381 1_554 S
H1049 C1045 0.950 . S
H1050 C1047 0.950 . S
C1051 C1042 1.390 . S
C1051 H1044 0.950 . S
C1051 C1048 1.381 1_556 S
C1052 C1053 1.391 . S
C1052 H1056 0.950 . S
C1052 C1061 1.390 . S
C1053 C1052 1.391 . S
C1053 C1055 1.384 1_554 S
H1054 C1061 0.950 . S
C1055 C1053 1.384 1_556 S
C1055 C1057 1.390 . S
C1055 H1059 0.950 . S
H1056 C1052 0.950 . S
C1057 C1055 1.390 . S
C1057 C1058 1.389 1_556 S
C1057 H1060 0.950 . S
C1058 C1057 1.389 1_554 S
C1058 C1061 1.385 . S
H1059 C1055 0.950 . S
H1060 C1057 0.950 . S
C1061 C1052 1.390 . S
C1061 H1054 0.950 . S
C1061 C1058 1.385 . S
C1062 C1063 1.392 . S
C1062 H1066 0.950 . S
C1062 C1071 1.390 . S
C1063 C1062 1.392 . S
C1063 C1065 1.383 1_554 S
H1064 C1071 0.950 . S
C1065 C1063 1.383 1_556 S
C1065 C1067 1.390 . S
C1065 H1069 0.950 . S
H1066 C1062 0.950 . S
C1067 C1065 1.390 . S
C1067 C1068 1.382 1_556 S
C1067 H1070 0.950 . S
C1068 C1067 1.382 1_554 S
C1068 C1071 1.393 . S
H1069 C1065 0.950 . S
H1070 C1067 0.950 . S
C1071 C1062 1.390 . S
C1071 H1064 0.950 . S
C1071 C1068 1.393 . S
C1072 C1073 1.384 1_556 S
C1072 H1076 0.950 . S
C1072 C1081 1.390 . S
C1073 C1072 1.384 1_554 S
C1073 C1075 1.391 . S
H1074 C1081 0.950 . S
C1075 C1073 1.391 . S
C1075 C1077 1.390 . S
C1075 H1079 0.950 . S
H1076 C1072 0.950 . S
C1077 C1075 1.390 . S
C1077 C1078 1.385 . S
C1077 H1080 0.950 . S
C1078 C1077 1.385 . S
C1078 C1081 1.389 1_554 S
H1079 C1075 0.950 . S
H1080 C1077 0.950 . S
C1081 C1072 1.390 . S
C1081 H1074 0.950 . S
C1081 C1078 1.389 1_556 S
C1082 C1083 1.379 1_556 S
C1082 H1086 0.950 . S
C1082 C1091 1.390 . S
C1083 C1082 1.379 1_554 S
C1083 C1085 1.396 . S
H1084 C1091 0.950 . S
C1085 C1083 1.396 . S
C1085 C1087 1.390 . S
C1085 H1089 0.950 . S
H1086 C1082 0.950 . S
C1087 C1085 1.390 . S
C1087 C1088 1.402 . S
C1087 H1090 0.950 . S
C1088 C1087 1.402 . S
C1088 C1091 1.373 1_554 S
H1089 C1085 0.950 . S
H1090 C1087 0.950 . S
C1091 C1082 1.390 . S
C1091 H1084 0.950 . S
C1091 C1088 1.373 1_556 S
C1092 C1093 1.387 . S
C1092 H1096 0.950 . S
C1092 C1101 1.390 . S
C1093 C1092 1.387 . S
C1093 C1095 1.387 . S
H1094 C1101 0.950 . S
C1095 C1093 1.387 . S
C1095 C1097 1.390 . S
C1095 H1099 0.950 . S
H1096 C1092 0.950 . S
C1097 C1095 1.390 . S
C1097 C1098 1.387 . S
C1097 H1100 0.950 . S
C1098 C1097 1.387 . S
C1098 C1101 1.387 . S
H1099 C1095 0.950 . S
H1100 C1097 0.950 . S
C1101 C1092 1.390 . S
C1101 H1094 0.950 . S
C1101 C1098 1.387 . S
C1102 C1103 1.387 . S
C1102 H1106 0.950 . S
C1102 C1111 1.390 . S
C1103 C1102 1.387 . S
C1103 C1105 1.387 . S
H1104 C1111 0.950 . S
C1105 C1103 1.387 . S
C1105 C1107 1.390 . S
C1105 H1109 0.950 . S
H1106 C1102 0.950 . S
C1107 C1105 1.390 . S
C1107 C1108 1.387 . S
C1107 H1110 0.950 . S
C1108 C1107 1.387 . S
C1108 C1111 1.387 . S
H1109 C1105 0.950 . S
H1110 C1107 0.950 . S
C1111 C1102 1.390 . S
C1111 H1104 0.950 . S
C1111 C1108 1.387 . S
C1112 C1113 1.387 . S
C1112 H1116 0.950 . S
C1112 C1121 1.390 . S
C1113 C1112 1.387 . S
C1113 C1115 1.387 . S
H1114 C1121 0.950 . S
C1115 C1113 1.387 . S
C1115 C1117 1.390 . S
C1115 H1119 0.950 . S
H1116 C1112 0.950 . S
C1117 C1115 1.390 . S
C1117 C1118 1.387 . S
C1117 H1120 0.950 . S
C1118 C1117 1.387 . S
C1118 C1121 1.387 . S
H1119 C1115 0.950 . S
H1120 C1117 0.950 . S
C1121 C1112 1.390 . S
C1121 H1114 0.950 . S
C1121 C1118 1.387 . S
C1122 C1123 1.387 . S
C1122 H1126 0.950 . S
C1122 C1131 1.390 . S
C1123 C1122 1.387 . S
C1123 C1125 1.387 . S
H1124 C1131 0.950 . S
C1125 C1123 1.387 . S
C1125 C1127 1.390 . S
C1125 H1129 0.950 . S
H1126 C1122 0.950 . S
C1127 C1125 1.390 . S
C1127 C1128 1.387 . S
C1127 H1130 0.950 . S
C1128 C1127 1.387 . S
C1128 C1131 1.387 . S
H1129 C1125 0.950 . S
H1130 C1127 0.950 . S
C1131 C1122 1.390 . S
C1131 H1124 0.950 . S
C1131 C1128 1.387 . S
C1132 C1133 1.387 . S
C1132 H1136 0.950 . S
C1132 C1141 1.390 . S
C1133 C1132 1.387 . S
C1133 C1135 1.387 . S
H1134 C1141 0.950 . S
C1135 C1133 1.387 . S
C1135 C1137 1.390 . S
C1135 H1139 0.950 . S
H1136 C1132 0.950 . S
C1137 C1135 1.390 . S
C1137 C1138 1.387 . S
C1137 H1140 0.950 . S
C1138 C1137 1.387 . S
C1138 C1141 1.387 . S
H1139 C1135 0.950 . S
H1140 C1137 0.950 . S
C1141 C1132 1.390 . S
C1141 H1134 0.950 . S
C1141 C1138 1.387 . S
C1142 C1143 1.387 . S
C1142 H1146 0.950 . S
C1142 C1151 1.390 . S
C1143 C1142 1.387 . S
C1143 C1145 1.387 . S
H1144 C1151 0.950 . S
C1145 C1143 1.387 . S
C1145 C1147 1.390 . S
C1145 H1149 0.950 . S
H1146 C1142 0.950 . S
C1147 C1145 1.390 . S
C1147 C1148 1.387 . S
C1147 H1150 0.950 . S
C1148 C1147 1.387 . S
C1148 C1151 1.387 . S
H1149 C1145 0.950 . S
H1150 C1147 0.950 . S
C1151 C1142 1.390 . S
C1151 H1144 0.950 . S
C1151 C1148 1.387 . S
C1152 C1153 1.387 . S
C1152 H1156 0.950 . S
C1152 C1161 1.390 . S
C1153 C1152 1.387 . S
C1153 C1155 1.387 . S
H1154 C1161 0.950 . S
C1155 C1153 1.387 . S
C1155 C1157 1.390 . S
C1155 H1159 0.950 . S
H1156 C1152 0.950 . S
C1157 C1155 1.390 . S
C1157 C1158 1.387 . S
C1157 H1160 0.950 . S
C1158 C1157 1.387 . S
C1158 C1161 1.387 . S
H1159 C1155 0.950 . S
H1160 C1157 0.950 . S
C1161 C1152 1.390 . S
C1161 H1154 0.950 . S
C1161 C1158 1.387 . S
C1162 C1163 1.387 . S
C1162 H1166 0.950 . S
C1162 C1171 1.390 . S
C1163 C1162 1.387 . S
C1163 C1165 1.387 . S
H1164 C1171 0.950 . S
C1165 C1163 1.387 . S
C1165 C1167 1.390 . S
C1165 H1169 0.950 . S
H1166 C1162 0.950 . S
C1167 C1165 1.390 . S
C1167 C1168 1.387 . S
C1167 H1170 0.950 . S
C1168 C1167 1.387 . S
C1168 C1171 1.387 . S
H1169 C1165 0.950 . S
H1170 C1167 0.950 . S
C1171 C1162 1.390 . S
C1171 H1164 0.950 . S
C1171 C1168 1.387 . S
C1172 C1173 1.387 . S
C1172 H1176 0.950 . S
C1172 C1181 1.390 . S
C1173 C1172 1.387 . S
C1173 C1175 1.387 . S
H1174 C1181 0.950 . S
C1175 C1173 1.387 . S
C1175 C1177 1.390 . S
C1175 H1179 0.950 . S
H1176 C1172 0.950 . S
C1177 C1175 1.390 . S
C1177 C1178 1.387 . S
C1177 H1180 0.950 . S
C1178 C1177 1.387 . S
C1178 C1181 1.387 . S
H1179 C1175 0.950 . S
H1180 C1177 0.950 . S
C1181 C1172 1.390 . S
C1181 H1174 0.950 . S
C1181 C1178 1.387 . S
C1182 C1183 1.387 . S
C1182 H1186 0.950 . S
C1182 C1191 1.390 . S
C1183 C1182 1.387 . S
C1183 C1185 1.387 . S
H1184 C1191 0.950 . S
C1185 C1183 1.387 . S
C1185 C1187 1.390 . S
C1185 H1189 0.950 . S
H1186 C1182 0.950 . S
C1187 C1185 1.390 . S
C1187 C1188 1.387 . S
C1187 H1190 0.950 . S
C1188 C1187 1.387 . S
C1188 C1191 1.387 . S
H1189 C1185 0.950 . S
H1190 C1187 0.950 . S
C1191 C1182 1.390 . S
C1191 H1184 0.950 . S
C1191 C1188 1.387 . S
C1192 C1193 1.387 . S
C1192 H1196 0.950 . S
C1192 C1201 1.390 . S
C1193 C1192 1.387 . S
C1193 C1195 1.387 . S
H1194 C1201 0.950 . S
C1195 C1193 1.387 . S
C1195 C1197 1.390 . S
C1195 H1199 0.950 . S
H1196 C1192 0.950 . S
C1197 C1195 1.390 . S
C1197 C1198 1.387 . S
C1197 H1200 0.950 . S
C1198 C1197 1.387 . S
C1198 C1201 1.387 . S
H1199 C1195 0.950 . S
H1200 C1197 0.950 . S
C1201 C1192 1.390 . S
C1201 H1194 0.950 . S
C1201 C1198 1.387 . S
C1202 C1203 1.387 . S
C1202 H1206 0.950 . S
C1202 C1211 1.390 . S
C1203 C1202 1.387 . S
C1203 C1205 1.387 . S
H1204 C1211 0.950 . S
C1205 C1203 1.387 . S
C1205 C1207 1.390 . S
C1205 H1209 0.950 . S
H1206 C1202 0.950 . S
C1207 C1205 1.390 . S
C1207 C1208 1.387 . S
C1207 H1210 0.950 . S
C1208 C1207 1.387 . S
C1208 C1211 1.387 . S
H1209 C1205 0.950 . S
H1210 C1207 0.950 . S
C1211 C1202 1.390 . S
C1211 H1204 0.950 . S
C1211 C1208 1.387 . S
C1212 C1213 1.387 . S
C1212 H1216 0.950 . S
C1212 C1221 1.390 . S
C1213 C1212 1.387 . S
C1213 C1215 1.387 . S
H1214 C1221 0.950 . S
C1215 C1213 1.387 . S
C1215 C1217 1.390 . S
C1215 H1219 0.950 . S
H1216 C1212 0.950 . S
C1217 C1215 1.390 . S
C1217 C1218 1.387 . S
C1217 H1220 0.950 . S
C1218 C1217 1.387 . S
C1218 C1221 1.387 . S
H1219 C1215 0.950 . S
H1220 C1217 0.950 . S
C1221 C1212 1.390 . S
C1221 H1214 0.950 . S
C1221 C1218 1.387 . S
C1222 C1223 1.387 . S
C1222 H1226 0.950 . S
C1222 C1231 1.390 . S
C1223 C1222 1.387 . S
C1223 C1225 1.387 . S
H1224 C1231 0.950 . S
C1225 C1223 1.387 . S
C1225 C1227 1.390 . S
C1225 H1229 0.950 . S
H1226 C1222 0.950 . S
C1227 C1225 1.390 . S
C1227 C1228 1.387 . S
C1227 H1230 0.950 . S
C1228 C1227 1.387 . S
C1228 C1231 1.387 . S
H1229 C1225 0.950 . S
H1230 C1227 0.950 . S
C1231 C1222 1.390 . S
C1231 H1224 0.950 . S
C1231 C1228 1.387 . S
C1232 C1233 1.387 . S
C1232 H1236 0.950 . S
C1232 C1241 1.390 . S
C1233 C1232 1.387 . S
C1233 C1235 1.387 . S
H1234 C1241 0.950 . S
C1235 C1233 1.387 . S
C1235 C1237 1.390 . S
C1235 H1239 0.950 . S
H1236 C1232 0.950 . S
C1237 C1235 1.390 . S
C1237 C1238 1.387 . S
C1237 H1240 0.950 . S
C1238 C1237 1.387 . S
C1238 C1241 1.387 . S
H1239 C1235 0.950 . S
H1240 C1237 0.950 . S
C1241 C1232 1.390 . S
C1241 H1234 0.950 . S
C1241 C1238 1.387 . S
C1242 C1243 1.387 . S
C1242 H1246 0.950 . S
C1242 C1251 1.390 . S
C1243 C1242 1.387 . S
C1243 C1245 1.387 . S
H1244 C1251 0.950 . S
C1245 C1243 1.387 . S
C1245 C1247 1.390 . S
C1245 H1249 0.950 . S
H1246 C1242 0.950 . S
C1247 C1245 1.390 . S
C1247 C1248 1.387 . S
C1247 H1250 0.950 . S
C1248 C1247 1.387 . S
C1248 C1251 1.387 . S
H1249 C1245 0.950 . S
H1250 C1247 0.950 . S
C1251 C1242 1.390 . S
C1251 H1244 0.950 . S
C1251 C1248 1.387 . S
C1252 C1253 1.387 . S
C1252 H1256 0.950 . S
C1252 C1261 1.390 . S
C1253 C1252 1.387 . S
C1253 C1255 1.387 . S
H1254 C1261 0.950 . S
C1255 C1253 1.387 . S
C1255 C1257 1.390 . S
C1255 H1259 0.950 . S
H1256 C1252 0.950 . S
C1257 C1255 1.390 . S
C1257 C1258 1.387 . S
C1257 H1260 0.950 . S
C1258 C1257 1.387 . S
C1258 C1261 1.387 . S
H1259 C1255 0.950 . S
H1260 C1257 0.950 . S
C1261 C1252 1.390 . S
C1261 H1254 0.950 . S
C1261 C1258 1.387 . S
C1262 C1263 1.387 . S
C1262 H1266 0.950 . S
C1262 C1271 1.390 . S
C1263 C1262 1.387 . S
C1263 C1265 1.387 . S
H1264 C1271 0.950 . S
C1265 C1263 1.387 . S
C1265 C1267 1.390 . S
C1265 H1269 0.950 . S
H1266 C1262 0.950 . S
C1267 C1265 1.390 . S
C1267 C1268 1.387 . S
C1267 H1270 0.950 . S
C1268 C1267 1.387 . S
C1268 C1271 1.387 . S
H1269 C1265 0.950 . S
H1270 C1267 0.950 . S
C1271 C1262 1.390 . S
C1271 H1264 0.950 . S
C1271 C1268 1.387 . S
C1272 C1273 1.387 . S
C1272 H1276 0.950 . S
C1272 C1281 1.390 . S
C1273 C1272 1.387 . S
C1273 C1275 1.387 . S
H1274 C1281 0.950 . S
C1275 C1273 1.387 . S
C1275 C1277 1.390 . S
C1275 H1279 0.950 . S
H1276 C1272 0.950 . S
C1277 C1275 1.390 . S
C1277 C1278 1.387 . S
C1277 H1280 0.950 . S
C1278 C1277 1.387 . S
C1278 C1281 1.387 . S
H1279 C1275 0.950 . S
H1280 C1277 0.950 . S
C1281 C1272 1.390 . S
C1281 H1274 0.950 . S
C1281 C1278 1.387 . S
C1282 C1283 1.387 . S
C1282 H1286 0.950 . S
C1282 C1291 1.390 . S
C1283 C1282 1.387 . S
C1283 C1285 1.387 . S
H1284 C1291 0.950 . S
C1285 C1283 1.387 . S
C1285 C1287 1.390 . S
C1285 H1289 0.950 . S
H1286 C1282 0.950 . S
C1287 C1285 1.390 . S
C1287 C1288 1.387 . S
C1287 H1290 0.950 . S
C1288 C1287 1.387 . S
C1288 C1291 1.387 . S
H1289 C1285 0.950 . S
H1290 C1287 0.950 . S
C1291 C1282 1.390 . S
C1291 H1284 0.950 . S
C1291 C1288 1.387 . S
C1292 C1293 1.387 . S
C1292 H1296 0.950 . S
C1292 C1301 1.390 . S
C1293 C1292 1.387 . S
C1293 C1295 1.387 . S
H1294 C1301 0.950 . S
C1295 C1293 1.387 . S
C1295 C1297 1.390 . S
C1295 H1299 0.950 . S
H1296 C1292 0.950 . S
C1297 C1295 1.390 . S
C1297 C1298 1.387 . S
C1297 H1300 0.950 . S
C1298 C1297 1.387 . S
C1298 C1301 1.387 . S
H1299 C1295 0.950 . S
H1300 C1297 0.950 . S
C1301 C1292 1.390 . S
C1301 H1294 0.950 . S
C1301 C1298 1.387 . S
C1302 C1303 1.387 . S
C1302 H1306 0.950 . S
C1302 C1311 1.390 . S
C1303 C1302 1.387 . S
C1303 C1305 1.387 . S
H1304 C1311 0.950 . S
C1305 C1303 1.387 . S
C1305 C1307 1.390 . S
C1305 H1309 0.950 . S
H1306 C1302 0.950 . S
C1307 C1305 1.390 . S
C1307 C1308 1.387 . S
C1307 H1310 0.950 . S
C1308 C1307 1.387 . S
C1308 C1311 1.387 . S
H1309 C1305 0.950 . S
H1310 C1307 0.950 . S
C1311 C1302 1.390 . S
C1311 H1304 0.950 . S
C1311 C1308 1.387 . S
C1312 C1313 1.387 . S
C1312 H1316 0.950 . S
C1312 C1321 1.390 . S
C1313 C1312 1.387 . S
C1313 C1315 1.387 . S
H1314 C1321 0.950 . S
C1315 C1313 1.387 . S
C1315 C1317 1.390 . S
C1315 H1319 0.950 . S
H1316 C1312 0.950 . S
C1317 C1315 1.390 . S
C1317 C1318 1.387 . S
C1317 H1320 0.950 . S
C1318 C1317 1.387 . S
C1318 C1321 1.387 . S
H1319 C1315 0.950 . S
H1320 C1317 0.950 . S
C1321 C1312 1.390 . S
C1321 H1314 0.950 . S
C1321 C1318 1.387 . S
C1322 C1323 1.387 . S
C1322 H1326 0.950 . S
C1322 C1331 1.390 . S
C1323 C1322 1.387 . S
C1323 C1325 1.387 . S
H1324 C1331 0.950 . S
C1325 C1323 1.387 . S
C1325 C1327 1.390 . S
C1325 H1329 0.950 . S
H1326 C1322 0.950 . S
C1327 C1325 1.390 . S
C1327 C1328 1.387 . S
C1327 H1330 0.950 . S
C1328 C1327 1.387 . S
C1328 C1331 1.387 . S
H1329 C1325 0.950 . S
H1330 C1327 0.950 . S
C1331 C1322 1.390 . S
C1331 H1324 0.950 . S
C1331 C1328 1.387 . S
C618 C318 1.627 . S
C613 C308 1.630 . S
C623 C282 1.471 . S
C628 C316 1.471 . S
C638 C317 1.471 . S
C633 C269 1.471 . S
C643 C295 1.630 . S
C648 C319 1.627 . S
C658 C363 1.582 . S
C653 C217 1.584 . S
C668 C423 1.591 . S
C663 C230 1.592 . S
C673 C243 1.594 . S
C678 C362 1.591 . S
C688 C422 1.441 . S
C683 C256 1.441 . S
C693 C165 1.584 . S
C698 C364 1.582 . S
C708 C420 1.441 . S
C703 C178 1.441 . S
C713 C191 1.594 . S
C718 C365 1.590 . S
C723 C204 1.592 . S
C728 C421 1.591 . S
C738 C471 1.627 . S
C733 C152 1.630 . S
C743 C126 1.471 1_554 S
C748 C470 1.471 . S
C753 C113 1.471 . S
C758 C472 1.471 . S
C768 C473 1.627 . S
C763 C139 1.630 . S
C773 C61 1.584 . S
C778 C514 1.582 . S
C783 C74 1.592 1_545 S
C788 C573 1.591 . S
C793 C87 1.594 . S
C798 C512 1.591 . S
C803 C100 1.441 . S
C808 C572 1.441 . S
C818 C513 1.582 . S
C813 C9 1.584 . S
C828 C570 1.441 . S
C823 C22 1.441 . S
C833 C35 1.594 . S
C838 C515 1.591 . S
C848 C571 1.591 . S
C843 C48 1.592 . S
C858 C315 1.543 . S
C853 C4 1.289 . S
C863 C21 1.404 . S
C868 C321 1.462 . S
C873 C34 1.656 . S
C878 C313 1.691 . S
C883 C43 1.192 . S
C888 C320 1.429 . S
C893 C56 1.289 . S
C898 C312 1.543 . S
C908 C322 1.429 . S
C903 C69 1.190 1_545 S
C913 C86 1.656 . S
C918 C314 1.691 . S
C928 C323 1.462 . S
C923 C99 1.408 1_545 S
C938 C369 1.596 . S
C933 C47 1.556 . S
C943 C8 1.599 . S
C948 C412 1.643 . S
C958 C367 1.393 . S
C953 C17 1.156 . S
C968 C414 1.515 . S
C963 C30 1.253 . S
C973 C73 1.556 1_545 S
C978 C368 1.596 . S
C988 C413 1.515 . S
C983 C82 1.253 . S
C998 C366 1.392 . S
C993 C95 1.147 1_545 S
C1008 C415 1.643 . S
C1003 C60 1.599 . S
C1018 C419 1.482 . S
C1013 C112 1.422 . S
C1023 C125 1.422 1_554 S
C1028 C418 1.482 . S
C1038 C370 1.484 . S
C1033 C108 1.243 . S
C1048 C417 1.640 . S
C1043 C138 1.600 1_554 S
C1053 C147 1.261 . S
C1058 C373 1.502 . S
C1063 C151 1.601 . S
C1068 C416 1.640 . S
C1078 C372 1.484 . S
C1073 C121 1.241 1_554 S
C1088 C371 1.502 . S
C1083 C134 1.258 1_554 S
C1098 C465 1.543 . S
C1093 C160 1.288 . S
C1108 C468 1.462 . S
C1103 C177 1.404 . S
C1113 C190 1.654 . S
C1118 C464 1.691 . S
C1128 C466 1.427 . S
C1123 C199 1.184 . S
C1138 C462 1.543 . S
C1133 C212 1.288 . S
C1143 C225 1.191 . S
C1148 C467 1.429 . S
C1153 C242 1.653 . S
C1158 C463 1.691 . S
C1168 C469 1.462 . S
C1163 C255 1.408 . S
C1178 C523 1.596 . S
C1173 C203 1.556 . S
C1183 C164 1.601 . S
C1188 C562 1.644 . S
C1198 C522 1.391 . S
C1193 C173 1.149 . S
C1208 C564 1.517 . S
C1203 C186 1.259 . S
C1218 C521 1.596 . S
C1213 C229 1.558 . S
C1223 C238 1.259 . S
C1228 C563 1.517 . S
C1238 C520 1.393 . S
C1233 C251 1.156 . S
C1248 C565 1.644 . S
C1243 C216 1.601 . S
C1258 C569 1.482 . S
C1253 C268 1.423 . S
C1263 C281 1.426 . S
C1268 C568 1.483 . S
C1278 C516 1.484 . S
C1273 C264 1.242 . S
C1283 C294 1.598 . S
C1288 C567 1.640 . S
C1298 C519 1.503 . S
C1293 C303 1.266 . S
C1308 C566 1.640 . S
C1303 C307 1.601 . S
C1318 C517 1.484 . S
C1313 C277 1.242 . S
C1323 C290 1.266 . S
C1328 C518 1.503 . S
