# Generated by pormake.
# Topology anh, (6,3)-cn, num edge types: 1
# Building blocks:
#     Node 0, Type 0, BuildingBlock: VOLQOD_clean_sbu_1, # of connection points: 6
#     Node 1, Type 0, BuildingBlock: VOLQOD_clean_sbu_1, # of connection points: 6
#     Node 2, Type 0, BuildingBlock: VOLQOD_clean_sbu_1, # of connection points: 6
#     Node 3, Type 1, BuildingBlock: INOVEN_clean_linker_0, # of connection points: 3
#     Node 4, Type 1, BuildingBlock: INOVEN_clean_linker_0, # of connection points: 3
#     Node 5, Type 1, BuildingBlock: INOVEN_clean_linker_0, # of connection points: 3
#     Node 6, Type 1, BuildingBlock: INOVEN_clean_linker_0, # of connection points: 3
#     Node 7, Type 1, BuildingBlock: INOVEN_clean_linker_0, # of connection points: 3
#     Node 8, Type 1, BuildingBlock: INOVEN_clean_linker_0, # of connection points: 3
#     Edge 9, Type (0, 1), BuildingBlock: KIFKEQ_clean_linker_1, # of connection points: 2
#     Edge 10, Type (0, 1), BuildingBlock: KIFKEQ_clean_linker_1, # of connection points: 2
#     Edge 11, Type (0, 1), BuildingBlock: KIFKEQ_clean_linker_1, # of connection points: 2
#     Edge 12, Type (0, 1), BuildingBlock: KIFKEQ_clean_linker_1, # of connection points: 2
#     Edge 13, Type (0, 1), BuildingBlock: KIFKEQ_clean_linker_1, # of connection points: 2
#     Edge 14, Type (0, 1), BuildingBlock: KIFKEQ_clean_linker_1, # of connection points: 2
#     Edge 15, Type (0, 1), BuildingBlock: KIFKEQ_clean_linker_1, # of connection points: 2
#     Edge 16, Type (0, 1), BuildingBlock: KIFKEQ_clean_linker_1, # of connection points: 2
#     Edge 17, Type (0, 1), BuildingBlock: KIFKEQ_clean_linker_1, # of connection points: 2
#     Edge 18, Type (0, 1), BuildingBlock: KIFKEQ_clean_linker_1, # of connection points: 2
#     Edge 19, Type (0, 1), BuildingBlock: KIFKEQ_clean_linker_1, # of connection points: 2
#     Edge 20, Type (0, 1), BuildingBlock: KIFKEQ_clean_linker_1, # of connection points: 2
#     Edge 21, Type (0, 1), BuildingBlock: KIFKEQ_clean_linker_1, # of connection points: 2
#     Edge 22, Type (0, 1), BuildingBlock: KIFKEQ_clean_linker_1, # of connection points: 2
#     Edge 23, Type (0, 1), BuildingBlock: KIFKEQ_clean_linker_1, # of connection points: 2
#     Edge 24, Type (0, 1), BuildingBlock: KIFKEQ_clean_linker_1, # of connection points: 2
#     Edge 25, Type (0, 1), BuildingBlock: KIFKEQ_clean_linker_1, # of connection points: 2
#     Edge 26, Type (0, 1), BuildingBlock: KIFKEQ_clean_linker_1, # of connection points: 2
# Relax obj value: 0.155
# Max RMSD: 0.215
# Mean RMSD: 0.133
data_MOF--net-anh--node1-VOLQOD_clean_sbu_1--node2-INOVEN_clean_linker_0--edge1-KIFKEQ_clean_linker_1
_symmetry_space_group_name_H-M    P1
_symmetry_Int_Tables_number       1
_symmetry_cell_setting            triclinic
loop_
_symmetry_equiv_pos_as_xyz
'x, y, z'
_cell_length_a     30.136757
_cell_length_b     30.075027
_cell_length_c     57.734873
_cell_angle_alpha  92.60824
_cell_angle_beta   92.317986
_cell_angle_gamma 120.44908
loop_
_atom_site_label
_atom_site_type_symbol
_atom_site_fract_x
_atom_site_fract_y
_atom_site_fract_z
_atom_type_partial_charge
O0 O 0.01318 0.59087 0.20978 0.0
Zn1 Zn 0.02209 0.60944 0.17673 0.0
O2 O 0.02762 0.55769 0.1574 0.0
Zn3 Zn 0.96982 0.52341 0.13399 0.0
Zn4 Zn 0.02772 0.50608 0.17682 0.0
Zn5 Zn 0.09109 0.59192 0.14174 0.0
O6 O -0.0065 0.52433 0.10192 0.0
O7 O 0.07796 0.57911 0.10697 0.0
O8 O 0.96117 0.61491 0.16551 0.0
O9 O 0.92915 0.55943 0.13414 0.0
O10 O 0.92111 0.44947 0.14056 0.0
O11 O 0.96247 0.43728 0.17 0.0
O12 O 0.08965 0.49818 0.17245 0.0
O13 O 0.08644 0.67995 0.17679 0.0
O14 O 0.13623 0.56407 0.15117 0.0
O15 O 0.13149 0.66831 0.15019 0.0
C16 C 0.01868 0.55821 0.22091 0.0
C17 C 0.0375 0.54973 0.09377 0.0
C18 C 0.9235 0.42067 0.15545 0.0
C19 C 0.92884 0.59353 0.14792 0.0
C20 C 0.13075 0.52651 0.16251 0.0
C21 C 0.12583 0.69755 0.16489 0.0
O22 O 0.02778 0.52557 0.21066 0.0
O23 O 0.4832 0.05418 0.44672 0.0
Zn24 Zn 0.46524 0.04897 0.47998 0.0
O25 O 0.51436 0.04065 0.49955 0.0
Zn26 Zn 0.55182 0.09988 0.52181 0.0
Zn27 Zn 0.56327 0.03486 0.48033 0.0
Zn28 Zn 0.47749 0.97975 0.51674 0.0
O29 O 0.55342 0.07899 0.55411 0.0
O30 O 0.49085 -0.00338 0.55143 0.0
O31 O 0.46213 0.11172 0.49096 0.0
O32 O 0.5172 0.14143 0.52236 0.0
O33 O 0.62439 0.14615 0.51334 0.0
O34 O 0.634 0.09814 0.48595 0.0
O35 O 0.56742 0.97171 0.48662 0.0
O36 O 0.39385 0.98703 0.48055 0.0
O37 O 0.50228 0.93097 0.5091 0.0
O38 O 0.40141 0.9417 0.5081 0.0
C39 C 0.51273 0.04337 0.43571 0.0
C40 C 0.52471 0.03724 0.56351 0.0
C41 C 0.65207 0.13971 0.49904 0.0
C42 C 0.4838 0.1432 0.50886 0.0
C43 C 0.53855 0.93292 0.49781 0.0
C44 C 0.37402 0.94838 0.4929 0.0
O45 O 0.54292 0.03161 0.44627 0.0
O46 O 0.52015 0.5086 0.78107 0.0
Zn47 Zn 0.50768 0.48954 0.81399 0.0
O48 O 0.56224 0.5438 0.83502 0.0
Zn49 Zn 0.53482 0.58047 0.85206 0.0
Zn50 Zn 0.61887 0.59177 0.81731 0.0
Zn51 Zn 0.58685 0.51252 0.85684 0.0
O52 O 0.53738 0.57182 0.88636 0.0
O53 O 0.56603 0.51711 0.88906 0.0
O54 O 0.43794 0.47904 0.82023 0.0
O55 O 0.46038 0.55136 0.84186 0.0
O56 O 0.57283 0.65607 0.84693 0.0
O57 O 0.63243 0.66431 0.8233 0.0
O58 O 0.68464 0.59307 0.82645 0.0
O59 O 0.5067 0.42258 0.81607 0.0
O60 O 0.664 0.54846 0.8579 0.0
O61 O 0.56088 0.43793 0.84664 0.0
C62 C 0.55938 0.54134 0.77116 0.0
C63 C 0.54851 0.54378 0.89833 0.0
C64 C 0.61094 0.6839 0.83518 0.0
C65 C 0.42635 0.50976 0.83046 0.0
C66 C 0.6971 0.57663 0.84405 0.0
C67 C 0.52969 0.40771 0.82993 0.0
O68 O 0.60129 0.57384 0.7828 0.0
H69 H 0.49572 0.04511 0.1929 0.0
H70 H 0.42076 0.99088 0.25592 0.0
H71 H 0.58291 0.10465 0.25891 0.0
N72 N 0.5907 0.11072 0.21425 0.0
N73 N 0.59109 0.12338 0.19396 0.0
C74 C 0.49739 0.04633 0.21171 0.0
C75 C 0.45255 0.01503 0.22297 0.0
C76 C 0.54443 0.0786 0.22482 0.0
C77 C 0.54644 0.07914 0.24908 0.0
C78 C 0.50191 0.04832 0.26063 0.0
C79 C 0.45508 0.01641 0.24735 0.0
H80 H 0.50563 0.50512 0.52822 0.0
H81 H 0.50242 0.4423 0.59396 0.0
H82 H 0.55281 0.60364 0.59137 0.0
N83 N 0.54174 0.6006 0.54457 0.0
N84 N 0.56827 0.64662 0.55242 0.0
C85 C 0.51228 0.51002 0.54699 0.0
C86 C 0.50095 0.46749 0.55977 0.0
C87 C 0.53219 0.55918 0.55823 0.0
C88 C 0.53949 0.5659 0.58265 0.0
C89 C 0.5274 0.52347 0.59578 0.0
C90 C 0.50923 0.47471 0.58409 0.0
H91 H 0.0287 0.53958 0.85262 0.0
H92 H -0.00966 0.56982 0.92037 0.0
H93 H 0.08465 0.5015 0.91385 0.0
N94 N 0.08611 0.50218 0.86709 0.0
N95 N 0.10433 0.47581 0.87424 0.0
C96 C 0.03062 0.53813 0.87134 0.0
C97 C 0.00569 0.5571 0.88519 0.0
C98 C 0.05848 0.51746 0.88148 0.0
C99 C 0.06203 0.51619 0.9058 0.0
C100 C 0.03861 0.5364 0.91985 0.0
C101 C 0.0102 0.5563 0.90945 0.0
H102 H 0.03458 0.58457 0.46259 0.0
H103 H 0.06919 0.65206 0.39671 0.0
H104 H 0.95133 0.49326 0.39951 0.0
N105 N 0.96149 0.49123 0.44595 0.0
N106 N 0.93355 0.44696 0.43622 0.0
C107 C 0.02717 0.58172 0.4439 0.0
C108 C 0.05652 0.6245 0.43102 0.0
C109 C -0.01042 0.53426 0.43264 0.0
C110 C 0.98074 0.52972 0.40829 0.0
C111 C 0.00945 0.572 0.39518 0.0
C112 C 0.04671 0.61932 0.40675 0.0
H113 H 0.59305 0.09266 0.80492 0.0
H114 H 0.54065 0.11596 0.73837 0.0
H115 H 0.59466 0.00938 0.74267 0.0
N116 N 0.61281 0.02075 0.78927 0.0
N117 N 0.62938 -0.00569 0.77998 0.0
C118 C 0.58527 0.08399 0.78627 0.0
C119 C 0.56635 0.10975 0.77296 0.0
C120 C 0.59569 0.04787 0.77549 0.0
C121 C 0.58706 0.03743 0.7512 0.0
C122 C 0.56706 0.06177 0.73784 0.0
C123 C 0.55622 0.09729 0.74882 0.0
H124 H 0.56247 0.56271 0.13943 0.0
H125 H 0.62447 0.58265 0.0722 0.0
H126 H 0.46186 0.51741 0.07704 0.0
N127 N 0.46568 0.52406 0.12402 0.0
N128 N 0.41996 0.49642 0.11606 0.0
C129 C 0.5572 0.55877 0.12061 0.0
C130 C 0.59995 0.57524 0.1072 0.0
C131 C 0.50737 0.53726 0.10991 0.0
C132 C 0.50011 0.53277 0.08549 0.0
C133 C 0.54261 0.5506 0.07195 0.0
C134 C 0.59213 0.57116 0.08287 0.0
H135 H 0.23287 0.59599 0.16375 0.0
H136 H 0.12357 0.43206 0.16241 0.0
H137 H 0.30254 0.57854 0.15884 0.0
H138 H 0.19382 0.41436 0.15704 0.0
H139 H 0.32117 0.43429 0.10278 0.0
H140 H 0.24807 0.43227 0.12087 0.0
H141 H 0.35194 0.53871 0.17706 0.0
H142 H 0.42465 0.54041 0.15904 0.0
C143 C 0.224 0.55621 0.16282 0.0
C144 C 0.17296 0.51533 0.16325 0.0
C145 C 0.26391 0.54622 0.16022 0.0
C146 C 0.25347 0.4951 0.15759 0.0
C147 C 0.20272 0.4541 0.15907 0.0
C148 C 0.16273 0.4642 0.16218 0.0
C149 C 0.32782 0.45579 0.11938 0.0
C150 C 0.37815 0.48775 0.12935 0.0
C151 C 0.28618 0.45448 0.12979 0.0
C152 C 0.29458 0.48566 0.15025 0.0
C153 C 0.3446 0.51456 0.16121 0.0
C154 C 0.38613 0.51551 0.15089 0.0
H155 H 0.69512 0.24051 0.51598 0.0
H156 H 0.72644 0.13817 0.474 0.0
H157 H 0.77237 0.31474 0.50381 0.0
H158 H 0.80475 0.21251 0.46242 0.0
H159 H 0.92414 0.44269 0.48307 0.0
H160 H 0.86508 0.36586 0.50254 0.0
H161 H 0.81473 0.27603 0.43619 0.0
H162 H 0.87456 0.35251 0.41712 0.0
C163 C 0.71923 0.23373 0.50466 0.0
C164 C 0.70405 0.18347 0.49557 0.0
C165 C 0.76378 0.27638 0.49778 0.0
C166 C 0.79427 0.2696 0.48182 0.0
C167 C 0.78138 0.21906 0.4743 0.0
C168 C 0.73661 0.17645 0.48102 0.0
C169 C 0.90092 0.40624 0.47281 0.0
C170 C 0.90334 0.403 0.44857 0.0
C171 C 0.86704 0.36235 0.48391 0.0
C172 C 0.83519 0.31477 0.47094 0.0
C173 C 0.83929 0.31168 0.44681 0.0
C174 C 0.8731 0.35539 0.43581 0.0
H175 H 0.56226 0.73417 0.85058 0.0
H176 H 0.6962 0.75825 0.81575 0.0
H177 H 0.57967 0.81921 0.84143 0.0
H178 H 0.71476 0.84444 0.8073 0.0
H179 H 0.66514 0.9382 0.76178 0.0
H180 H 0.67329 0.87088 0.7799 0.0
H181 H 0.63109 0.91157 0.84483 0.0
H182 H 0.62156 0.97803 0.82619 0.0
C183 C 0.59625 0.75815 0.84149 0.0
C184 C 0.62721 0.73896 0.83346 0.0
C185 C 0.60651 0.80726 0.8364 0.0
C186 C 0.64825 0.83849 0.82334 0.0
C187 C 0.68162 0.8209 0.81695 0.0
C188 C 0.67108 0.77155 0.82185 0.0
C189 C 0.65885 0.9333 0.78006 0.0
C190 C 0.64244 0.96262 0.79249 0.0
C191 C 0.66379 0.89505 0.79054 0.0
C192 C 0.65251 0.8855 0.81383 0.0
C193 C 0.6393 0.91741 0.82677 0.0
C194 C 0.63413 0.95564 0.81617 0.0
H195 H 0.88385 0.62312 0.18051 0.0
H196 H 0.88114 0.59104 0.10659 0.0
H197 H 0.8078 0.63203 0.17417 0.0
H198 H 0.80629 0.60116 0.1003 0.0
H199 H 0.69215 0.65432 0.09476 0.0
H200 H 0.77823 0.67153 0.10708 0.0
H201 H 0.71297 0.55692 0.15717 0.0
H202 H 0.62662 0.53784 0.14429 0.0
C203 C 0.86775 0.61923 0.1629 0.0
C204 C 0.88797 0.60605 0.14402 0.0
C205 C 0.82436 0.62421 0.15933 0.0
C206 C 0.8016 0.61745 0.13678 0.0
C207 C 0.82359 0.60711 0.11783 0.0
C208 C 0.8661 0.60096 0.12143 0.0
C209 C 0.69613 0.63309 0.10856 0.0
C210 C 0.65239 0.59381 0.11816 0.0
C211 C 0.74539 0.64331 0.11569 0.0
C212 C 0.75186 0.61523 0.13289 0.0
C213 C 0.70882 0.57932 0.14398 0.0
C214 C 0.65941 0.56848 0.1366 0.0
H215 H 0.3151 0.86563 0.51801 0.0
H216 H 0.30996 0.93749 0.45552 0.0
H217 H 0.23185 0.7893 0.50502 0.0
H218 H 0.22723 0.86103 0.44266 0.0
H219 H 0.15088 0.68693 0.41495 0.0
H220 H 0.21982 0.76988 0.4321 0.0
H221 H 0.13116 0.75645 0.49094 0.0
H222 H 0.05993 0.67366 0.47314 0.0
C223 C 0.29576 0.86567 0.50179 0.0
C224 C 0.31957 0.90724 0.48759 0.0
C225 C 0.24804 0.82213 0.49448 0.0
C226 C 0.22377 0.81938 0.47278 0.0
C227 C 0.24562 0.86233 0.4594 0.0
C228 C 0.29292 0.90605 0.46681 0.0
C229 C 0.14522 0.7019 0.43127 0.0
C230 C 0.0993 0.67399 0.44242 0.0
C231 C 0.18489 0.74937 0.44111 0.0
C232 C 0.18021 0.7697 0.46258 0.0
C233 C 0.13526 0.74148 0.47425 0.0
C234 C 0.09484 0.69408 0.46414 0.0
H235 H 0.48023 0.34017 0.79182 0.0
H236 H 0.56827 0.35967 0.85642 0.0
H237 H 0.48482 0.26386 0.78018 0.0
H238 H 0.57229 0.28265 0.84461 0.0
H239 H 0.52776 0.11277 0.81517 0.0
H240 H 0.51244 0.18021 0.83156 0.0
H241 H 0.57091 0.26595 0.77119 0.0
H242 H 0.58834 0.20068 0.75533 0.0
C243 C 0.49963 0.32766 0.80377 0.0
C244 C 0.52457 0.35653 0.82491 0.0
C245 C 0.50231 0.28403 0.79705 0.0
C246 C 0.5294 0.26797 0.81142 0.0
C247 C 0.55113 0.29437 0.83328 0.0
C248 C 0.54896 0.33851 0.83995 0.0
C249 C 0.53791 0.14634 0.80556 0.0
C250 C 0.5585 0.15085 0.78374 0.0
C251 C 0.52886 0.18464 0.81488 0.0
C252 C 0.5396 0.22753 0.80237 0.0
C253 C 0.56114 0.23255 0.78089 0.0
C254 C 0.5709 0.19497 0.77179 0.0
H255 H 0.63138 0.93732 0.49859 0.0
H256 H 0.46743 0.83191 0.50012 0.0
H257 H 0.64729 0.86703 0.507 0.0
H258 H 0.48316 0.76202 0.508 0.0
H259 H 0.52159 0.63843 0.50983 0.0
H260 H 0.52201 0.70925 0.49066 0.0
H261 H 0.62848 0.81795 0.54559 0.0
H262 H 0.62768 0.7466 0.56496 0.0
C263 C 0.59882 0.89888 0.50011 0.0
C264 C 0.54824 0.88985 0.49891 0.0
C265 C 0.60792 0.85892 0.50498 0.0
C266 C 0.56642 0.80934 0.50809 0.0
C267 C 0.51577 0.7998 0.50543 0.0
C268 C 0.50679 0.83979 0.50108 0.0
C269 C 0.54598 0.67754 0.51756 0.0
C270 C 0.57435 0.68743 0.53904 0.0
C271 C 0.54623 0.71796 0.50656 0.0
C272 C 0.57512 0.7688 0.51673 0.0
C273 C 0.60632 0.77907 0.53731 0.0
C274 C 0.60566 0.73849 0.54843 0.0
H275 H 0.74701 0.58401 0.88546 0.0
H276 H 0.76734 0.5949 0.81186 0.0
H277 H 0.83173 0.59329 0.89212 0.0
H278 H 0.85227 0.6033 0.81857 0.0
H279 H 0.9386 0.51432 0.84647 0.0
H280 H 0.87223 0.53324 0.83368 0.0
H281 H 0.92938 0.65755 0.88763 0.0
H282 H -0.00296 0.63997 0.90004 0.0
C283 C 0.76996 0.58908 0.87076 0.0
C284 C 0.7506 0.58837 0.84815 0.0
C285 C 0.81857 0.59484 0.87459 0.0
C286 C 0.84837 0.59912 0.85583 0.0
C287 C 0.82988 0.60016 0.83327 0.0
C288 C 0.78151 0.59545 0.82948 0.0
C289 C 0.93828 0.5469 0.85508 0.0
C290 C 0.97241 0.57498 0.87457 0.0
C291 C 0.90026 0.5577 0.84774 0.0
C292 C 0.89555 0.59643 0.85988 0.0
C293 C 0.93204 0.62712 0.87819 0.0
C294 C 0.97041 0.61676 0.88536 0.0
H295 H 0.20287 0.75539 0.13705 0.0
H296 H 0.14529 0.76184 0.20367 0.0
H297 H 0.27925 0.83998 0.14716 0.0
H298 H 0.22251 0.84502 0.21428 0.0
H299 H 0.35762 0.00313 0.2277 0.0
H300 H 0.2749 0.93358 0.20986 0.0
H301 H 0.35476 0.87177 0.17158 0.0
H302 H 0.43708 0.94265 0.18867 0.0
C303 C 0.20637 0.77509 0.1538 0.0
C304 C 0.1683 0.75173 0.16966 0.0
C305 C 0.25034 0.82346 0.15967 0.0
C306 C 0.25764 0.84922 0.18169 0.0
C307 C 0.21816 0.82687 0.19706 0.0
C308 C 0.17384 0.77888 0.19103 0.0
C309 C 0.35722 0.97512 0.21508 0.0
C310 C 0.40349 0.97794 0.20958 0.0
C311 C 0.30992 0.93507 0.20499 0.0
C312 C 0.30787 0.89646 0.18949 0.0
C313 C 0.35459 0.90101 0.18316 0.0
C314 C 0.4019 0.94154 0.193 0.0
H315 H 0.4858 0.18607 0.55136 0.0
H316 H 0.45378 0.19141 0.47824 0.0
H317 H 0.47484 0.2596 0.56034 0.0
H318 H 0.44357 0.26618 0.4873 0.0
H319 H 0.53464 0.44433 0.52027 0.0
H320 H 0.515 0.35897 0.50483 0.0
H321 H 0.40739 0.28855 0.55739 0.0
H322 H 0.42585 0.3738 0.57255 0.0
C323 C 0.47575 0.20265 0.53725 0.0
C324 C 0.47109 0.18354 0.51411 0.0
C325 C 0.46899 0.24436 0.5424 0.0
C326 C 0.45824 0.26828 0.52449 0.0
C327 C 0.45175 0.24814 0.50137 0.0
C328 C 0.45751 0.20553 0.49622 0.0
C329 C 0.50551 0.41059 0.52806 0.0
C330 C 0.48255 0.41578 0.54792 0.0
C331 C 0.49421 0.36175 0.51917 0.0
C332 C 0.46009 0.3175 0.53011 0.0
C333 C 0.43423 0.32231 0.54884 0.0
C334 C 0.44513 0.37103 0.5576 0.0
H335 H 0.33959 0.4136 0.82752 0.0
H336 H 0.39143 0.57675 0.83246 0.0
H337 H 0.25072 0.39352 0.83194 0.0
H338 H 0.30327 0.55677 0.83646 0.0
H339 H 0.14083 0.51269 0.83272 0.0
H340 H 0.21244 0.51072 0.81543 0.0
H341 H 0.21467 0.4153 0.86861 0.0
H342 H 0.14294 0.41759 0.886 0.0
C343 C 0.33176 0.44498 0.82901 0.0
C344 C 0.37221 0.49672 0.8299 0.0
C345 C 0.28113 0.4335 0.83156 0.0
C346 C 0.27032 0.4736 0.83442 0.0
C347 C 0.31046 0.5251 0.83396 0.0
C348 C 0.36095 0.53656 0.8319 0.0
C349 C 0.15557 0.49002 0.84031 0.0
C350 C 0.13707 0.46567 0.8609 0.0
C351 C 0.1965 0.48893 0.83041 0.0
C352 C 0.21921 0.46328 0.84084 0.0
C353 C 0.19753 0.43502 0.86014 0.0
C354 C 0.15682 0.43646 0.87014 0.0
H355 H 0.90174 0.36206 0.19253 0.0
H356 H 0.84168 0.36277 0.12341 0.0
H357 H 0.82193 0.28403 0.1987 0.0
H358 H 0.76219 0.28243 0.12904 0.0
H359 H 0.60521 0.18798 0.1614 0.0
H360 H 0.68792 0.25472 0.14889 0.0
H361 H 0.76617 0.1964 0.19127 0.0
H362 H 0.68371 0.13245 0.20475 0.0
C363 C 0.87193 0.3447 0.17837 0.0
C364 C 0.87793 0.36889 0.15755 0.0
C365 C 0.826 0.2995 0.18185 0.0
C366 C 0.78509 0.27662 0.16442 0.0
C367 C 0.79226 0.2994 0.14307 0.0
C368 C 0.83802 0.34526 0.13975 0.0
C369 C 0.6403 0.18946 0.16773 0.0
C370 C 0.63849 0.15623 0.18431 0.0
C371 C 0.68773 0.22737 0.1605 0.0
C372 C 0.7342 0.2318 0.16936 0.0
C373 C 0.73158 0.1955 0.18465 0.0
C374 C 0.68433 0.15856 0.19228 0.0
H375 H 0.11823 0.61327 0.0688 0.0
H376 H 0.96582 0.4768 0.06142 0.0
H377 H 0.12296 0.60862 0.0267 0.0
H378 H 0.9709 0.47225 0.01937 0.0
H379 H 0.02033 0.45673 0.94639 0.0
H380 H 0.02389 0.45825 0.98898 0.0
H381 H 0.07262 0.6206 0.9932 0.0
H382 H 0.06892 0.61899 0.95081 0.0
C383 C 0.08594 0.58207 0.05824 0.0
C384 C 0.0415 0.54559 0.06842 0.0
C385 C 0.08865 0.57955 0.03417 0.0
C386 C 0.0473 0.5401 0.01986 0.0
C387 C 0.00349 0.50278 0.03006 0.0
C388 C 0.00047 0.50566 0.0541 0.0
C389 C 0.03232 0.49275 0.95651 0.0
C390 C 0.04409 0.53768 0.94545 0.0
C391 C 0.03408 0.49356 0.98077 0.0
C392 C 0.04848 0.53954 0.99429 0.0
C393 C 0.0618 0.58478 0.98318 0.0
C394 C 0.05933 0.58378 0.95898 0.0
H395 H 0.55057 0.0011 0.40504 0.0
H396 H 0.47339 0.08905 0.40857 0.0
H397 H 0.54775 0.00216 0.36287 0.0
H398 H 0.47255 0.09211 0.36656 0.0
H399 H 0.43002 0.04265 0.28983 0.0
H400 H 0.43241 0.04005 0.33181 0.0
H401 H 0.58335 0.05608 0.33215 0.0
H402 H 0.57924 0.05478 0.28998 0.0
C403 C 0.53343 0.02107 0.39682 0.0
C404 C 0.51201 0.04479 0.41014 0.0
C405 C 0.53209 0.02198 0.37263 0.0
C406 C 0.50989 0.04721 0.36123 0.0
C407 C 0.48903 0.07144 0.37465 0.0
C408 C 0.48978 0.06994 0.39879 0.0
C409 C 0.46342 0.04488 0.2988 0.0
C410 C 0.50434 0.04873 0.28643 0.0
C411 C 0.46516 0.04419 0.32297 0.0
C412 C 0.50815 0.04799 0.33546 0.0
C413 C 0.5493 0.05236 0.32312 0.0
C414 C 0.5473 0.05245 0.29891 0.0
H415 H 0.63802 0.58108 0.7421 0.0
H416 H 0.47202 0.5036 0.74259 0.0
H417 H 0.63073 0.57896 0.69976 0.0
H418 H 0.46471 0.50375 0.70057 0.0
H419 H 0.46284 0.45564 0.62548 0.0
H420 H 0.47245 0.46162 0.66748 0.0
H421 H 0.61029 0.61211 0.66712 0.0
H422 H 0.60282 0.6042 0.62471 0.0
C423 C 0.60003 0.56412 0.73316 0.0
C424 C 0.55557 0.54198 0.74561 0.0
C425 C 0.59583 0.56322 0.70891 0.0
C426 C 0.54709 0.54085 0.69666 0.0
C427 C 0.50281 0.52011 0.7093 0.0
C428 C 0.50698 0.52022 0.73344 0.0
C429 C 0.49571 0.48973 0.63427 0.0
C430 C 0.53238 0.52917 0.62163 0.0
C431 C 0.50074 0.49359 0.65848 0.0
C432 C 0.54204 0.53748 0.67081 0.0
C433 C 0.57834 0.57744 0.65821 0.0
C434 C 0.57366 0.57325 0.63388 0.0
H435 H 0.60587 0.10662 0.59314 0.0
H436 H 0.45719 0.96597 0.59145 0.0
H437 H 0.61499 0.10712 0.6353 0.0
H438 H 0.46646 0.96684 0.6338 0.0
H439 H 0.48111 0.03813 0.71029 0.0
H440 H 0.47026 0.0275 0.66777 0.0
H441 H 0.62407 0.05199 0.6654 0.0
H442 H 0.63496 0.06276 0.70789 0.0
C443 C 0.5752 0.07573 0.60175 0.0
C444 C 0.53072 0.03633 0.58898 0.0
C445 C 0.58063 0.07586 0.62586 0.0
C446 C 0.54146 0.03698 0.63773 0.0
C447 C 0.49709 -0.00263 0.62502 0.0
C448 C 0.49193 -0.00319 0.60082 0.0
C449 C 0.51239 0.0409 0.70063 0.0
C450 C 0.55893 0.05146 0.71227 0.0
C451 C 0.50606 0.03444 0.67638 0.0
C452 C 0.54641 0.0391 0.66339 0.0
C453 C 0.59253 0.04856 0.67506 0.0
C454 C 0.59862 0.05437 0.6993 0.0
H455 H 0.54813 0.47472 0.92763 0.0
H456 H 0.53254 0.6098 0.926 0.0
H457 H 0.53979 0.47478 0.96951 0.0
H458 H 0.52444 0.60975 0.96791 0.0
H459 H 0.59306 0.62987 0.04464 0.0
H460 H 0.5885 0.62638 0.00221 0.0
H461 H 0.47376 0.46368 -0.00083 0.0
H462 H 0.47825 0.46735 0.04183 0.0
C463 C 0.5427 0.50426 0.93617 0.0
C464 C 0.54136 0.54249 0.92352 0.0
C465 C 0.5375 0.50399 0.9601 0.0
C466 C 0.53148 0.54227 0.97187 0.0
C467 C 0.52931 0.57998 0.95922 0.0
C468 C 0.53385 0.57989 0.93524 0.0
C469 C 0.56656 0.59352 0.03486 0.0
C470 C 0.53616 0.54882 0.04637 0.0
C471 C 0.5637 0.59158 0.01065 0.0
C472 C 0.53084 0.54475 -0.00252 0.0
C473 C 0.49959 0.50018 0.00898 0.0
C474 C 0.5019 0.50231 0.03328 0.0
H475 H 0.97195 0.59917 0.24642 0.0
H476 H 0.05347 0.51595 0.25252 0.0
H477 H 0.96292 0.5982 0.2881 0.0
H478 H 0.04672 0.51708 0.29438 0.0
H479 H -0.00644 0.48968 0.36628 0.0
H480 H -0.01014 0.48303 0.32407 0.0
H481 H 0.01185 0.63667 0.32349 0.0
H482 H 0.01142 0.64158 0.36556 0.0
C483 C 0.98835 0.58106 0.25672 0.0
C484 C 0.01358 0.55778 0.24623 0.0
C485 C 0.98336 0.58067 0.28065 0.0
C486 C 0.00419 0.55769 0.29468 0.0
C487 C 0.02932 0.53428 0.2841 0.0
C488 C 0.0336 0.53398 0.26011 0.0
C489 C -0.00373 0.52152 0.35713 0.0
C490 C 0.00307 0.56631 0.36936 0.0
C491 C -0.00496 0.51806 0.3329 0.0
C492 C 0.00124 0.55956 0.32032 0.0
C493 C 0.00652 0.60372 0.33253 0.0
C494 C 0.00703 0.60688 0.35673 0.0
loop_
_geom_bond_atom_site_label_1
_geom_bond_atom_site_label_2
_geom_bond_distance
_geom_bond_site_symmetry_2
_ccdc_geom_bond_type
O0 Zn1 1.953 . S
O0 C16 1.225 . S
Zn1 O0 1.953 . S
Zn1 O2 1.949 . S
Zn1 O8 1.919 1_455 S
Zn1 O13 1.924 . S
O2 Zn1 1.949 . S
O2 Zn3 1.923 1_455 S
O2 Zn4 1.950 . S
O2 Zn5 1.945 . S
Zn3 O2 1.923 1_655 S
Zn3 O6 1.935 . S
Zn3 O9 1.941 . S
Zn3 O10 1.965 . S
Zn4 O2 1.950 . S
Zn4 O11 1.938 1_455 S
Zn4 O12 1.906 . S
Zn4 O22 1.953 . S
Zn5 O2 1.945 . S
Zn5 O7 1.932 . S
Zn5 O14 1.977 . S
Zn5 O15 1.910 . S
O6 Zn3 1.935 . S
O6 C17 1.221 1_655 S
O7 Zn5 1.932 . S
O7 C17 1.307 . S
O8 Zn1 1.919 1_655 S
O8 C19 1.253 . S
O9 Zn3 1.941 . S
O9 C19 1.283 . S
O10 Zn3 1.965 . S
O10 C18 1.303 . S
O11 Zn4 1.938 1_655 S
O11 C18 1.247 . S
O12 Zn4 1.906 . S
O12 C20 1.304 . S
O13 Zn1 1.924 . S
O13 C21 1.311 . S
O14 Zn5 1.977 . S
O14 C20 1.272 . S
O15 Zn5 1.910 . S
O15 C21 1.231 . S
C16 O0 1.225 . S
C16 O22 1.298 . S
C17 O6 1.221 1_455 S
C17 O7 1.307 . S
C18 O10 1.303 . S
C18 O11 1.247 . S
C19 O8 1.253 . S
C19 O9 1.283 . S
C20 O12 1.304 . S
C20 O14 1.272 . S
C21 O13 1.311 . S
C21 O15 1.231 . S
O22 Zn4 1.953 . S
O22 C16 1.298 . S
O23 Zn24 1.953 . S
O23 C39 1.225 . S
Zn24 O23 1.953 . S
Zn24 O25 1.949 . S
Zn24 O31 1.919 . S
Zn24 O36 1.924 . S
O25 Zn24 1.949 . S
O25 Zn26 1.923 . S
O25 Zn27 1.950 . S
O25 Zn28 1.945 1_545 S
Zn26 O25 1.923 . S
Zn26 O29 1.933 . S
Zn26 O32 1.941 . S
Zn26 O33 1.965 . S
Zn27 O25 1.950 . S
Zn27 O34 1.938 . S
Zn27 O35 1.906 1_545 S
Zn27 O45 1.953 . S
Zn28 O25 1.945 1_565 S
Zn28 O30 1.932 1_565 S
Zn28 O37 1.977 . S
Zn28 O38 1.910 . S
O29 Zn26 1.933 . S
O29 C40 1.226 . S
O30 Zn28 1.932 1_545 S
O30 C40 1.307 . S
O31 Zn24 1.919 . S
O31 C42 1.253 . S
O32 Zn26 1.941 . S
O32 C42 1.283 . S
O33 Zn26 1.965 . S
O33 C41 1.303 . S
O34 Zn27 1.938 . S
O34 C41 1.247 . S
O35 Zn27 1.906 1_565 S
O35 C43 1.304 . S
O36 Zn24 1.924 . S
O36 C44 1.311 1_545 S
O37 Zn28 1.977 . S
O37 C43 1.272 . S
O38 Zn28 1.910 . S
O38 C44 1.231 . S
C39 O23 1.225 . S
C39 O45 1.298 . S
C40 O29 1.226 . S
C40 O30 1.307 . S
C41 O33 1.303 . S
C41 O34 1.247 . S
C42 O31 1.253 . S
C42 O32 1.283 . S
C43 O35 1.304 . S
C43 O37 1.272 . S
C44 O36 1.311 1_565 S
C44 O38 1.231 . S
O45 Zn27 1.953 . S
O45 C39 1.298 . S
O46 Zn47 1.953 . S
O46 C62 1.225 . S
Zn47 O46 1.953 . S
Zn47 O48 1.949 . S
Zn47 O54 1.919 . S
Zn47 O59 1.924 . S
O48 Zn47 1.949 . S
O48 Zn49 1.923 . S
O48 Zn50 1.950 . S
O48 Zn51 1.945 . S
Zn49 O48 1.923 . S
Zn49 O52 1.933 . S
Zn49 O55 1.941 . S
Zn49 O56 1.965 . S
Zn50 O48 1.950 . S
Zn50 O57 1.938 . S
Zn50 O58 1.906 . S
Zn50 O68 1.953 . S
Zn51 O48 1.945 . S
Zn51 O53 1.932 . S
Zn51 O60 1.977 . S
Zn51 O61 1.910 . S
O52 Zn49 1.933 . S
O52 C63 1.226 . S
O53 Zn51 1.932 . S
O53 C63 1.307 . S
O54 Zn47 1.919 . S
O54 C65 1.253 . S
O55 Zn49 1.941 . S
O55 C65 1.283 . S
O56 Zn49 1.965 . S
O56 C64 1.303 . S
O57 Zn50 1.938 . S
O57 C64 1.247 . S
O58 Zn50 1.906 . S
O58 C66 1.304 . S
O59 Zn47 1.924 . S
O59 C67 1.311 . S
O60 Zn51 1.977 . S
O60 C66 1.272 . S
O61 Zn51 1.910 . S
O61 C67 1.231 . S
C62 O46 1.225 . S
C62 O68 1.298 . S
C63 O52 1.226 . S
C63 O53 1.307 . S
C64 O56 1.303 . S
C64 O57 1.247 . S
C65 O54 1.253 . S
C65 O55 1.283 . S
C66 O58 1.304 . S
C66 O60 1.272 . S
C67 O59 1.311 . S
C67 O61 1.231 . S
O68 Zn50 1.953 . S
O68 C62 1.298 . S
H69 C74 0.929 . S
H70 C79 0.931 1_565 S
H71 C77 0.930 . S
N72 N73 1.234 . S
N72 C76 1.453 . S
N73 N72 1.234 . S
C74 H69 0.929 . S
C74 C75 1.373 . S
C74 C76 1.368 . S
C75 C74 1.373 . S
C75 C79 1.397 . S
C76 N72 1.453 . S
C76 C74 1.368 . S
C76 C77 1.373 . S
C77 H71 0.930 . S
C77 C76 1.373 . S
C77 C78 1.371 . S
C78 C77 1.371 . S
C78 C79 1.383 . S
C79 H70 0.931 1_545 S
C79 C75 1.397 . S
C79 C78 1.383 . S
H80 C85 0.929 . S
H81 C90 0.931 . S
H82 C88 0.930 . S
N83 N84 1.234 . S
N83 C87 1.453 . S
N84 N83 1.234 . S
C85 H80 0.929 . S
C85 C86 1.373 . S
C85 C87 1.368 . S
C86 C85 1.373 . S
C86 C90 1.397 . S
C87 N83 1.453 . S
C87 C85 1.368 . S
C87 C88 1.373 . S
C88 H82 0.930 . S
C88 C87 1.373 . S
C88 C89 1.371 . S
C89 C88 1.371 . S
C89 C90 1.383 . S
C90 H81 0.931 . S
C90 C86 1.397 . S
C90 C89 1.383 . S
H91 C96 0.929 . S
H92 C101 0.931 1_655 S
H93 C99 0.930 . S
N94 N95 1.234 . S
N94 C98 1.453 . S
N95 N94 1.234 . S
C96 H91 0.929 . S
C96 C97 1.373 . S
C96 C98 1.368 . S
C97 C96 1.373 . S
C97 C101 1.397 . S
C98 N94 1.453 . S
C98 C96 1.368 . S
C98 C99 1.373 . S
C99 H93 0.930 . S
C99 C98 1.373 . S
C99 C100 1.371 . S
C100 C99 1.371 . S
C100 C101 1.383 . S
C101 H92 0.931 1_455 S
C101 C97 1.397 . S
C101 C100 1.383 . S
H102 C107 0.929 . S
H103 C112 0.931 . S
H104 C110 0.930 1_655 S
N105 N106 1.234 . S
N105 C109 1.453 1_655 S
N106 N105 1.234 . S
C107 H102 0.929 . S
C107 C108 1.373 . S
C107 C109 1.368 . S
C108 C107 1.373 . S
C108 C112 1.397 . S
C109 N105 1.453 1_455 S
C109 C107 1.368 . S
C109 C110 1.373 . S
C110 H104 0.930 1_455 S
C110 C109 1.373 . S
C110 C111 1.371 . S
C111 C110 1.371 . S
C111 C112 1.383 . S
C112 H103 0.931 . S
C112 C108 1.397 . S
C112 C111 1.383 . S
H113 C118 0.929 . S
H114 C123 0.931 . S
H115 C121 0.930 1_565 S
N116 N117 1.234 . S
N116 C120 1.453 1_565 S
N117 N116 1.234 . S
C118 H113 0.929 . S
C118 C119 1.373 . S
C118 C120 1.368 . S
C119 C118 1.373 . S
C119 C123 1.397 . S
C120 N116 1.453 1_545 S
C120 C118 1.368 . S
C120 C121 1.373 . S
C121 H115 0.930 1_545 S
C121 C120 1.373 . S
C121 C122 1.371 . S
C122 C121 1.371 . S
C122 C123 1.383 . S
C123 H114 0.931 . S
C123 C119 1.397 . S
C123 C122 1.383 . S
H124 C129 0.929 . S
H125 C134 0.931 . S
H126 C132 0.930 . S
N127 N128 1.234 . S
N127 C131 1.453 . S
N128 N127 1.234 . S
C129 H124 0.929 . S
C129 C130 1.373 . S
C129 C131 1.368 . S
C130 C129 1.373 . S
C130 C134 1.397 . S
C131 N127 1.453 . S
C131 C129 1.368 . S
C131 C132 1.373 . S
C132 H126 0.930 . S
C132 C131 1.373 . S
C132 C133 1.371 . S
C133 C132 1.371 . S
C133 C134 1.383 . S
C134 H125 0.931 . S
C134 C130 1.397 . S
C134 C133 1.383 . S
H135 C143 0.950 . S
H136 C148 0.950 . S
H137 C145 0.950 . S
H138 C147 0.950 . S
H139 C149 0.950 . S
H140 C151 0.950 . S
H141 C153 0.950 . S
H142 C154 0.950 . S
C143 H135 0.950 . S
C143 C144 1.386 . S
C143 C145 1.391 . S
C144 C143 1.386 . S
C144 C148 1.393 . S
C145 H137 0.950 . S
C145 C143 1.391 . S
C145 C146 1.400 . S
C146 C145 1.400 . S
C146 C147 1.398 . S
C146 C152 1.491 . S
C147 H138 0.950 . S
C147 C146 1.398 . S
C147 C148 1.391 . S
C148 H136 0.950 . S
C148 C144 1.393 . S
C148 C147 1.391 . S
C149 H139 0.950 . S
C149 C150 1.386 . S
C149 C151 1.391 . S
C150 C149 1.386 . S
C150 C154 1.393 . S
C151 H140 0.950 . S
C151 C149 1.391 . S
C151 C152 1.400 . S
C152 C146 1.491 . S
C152 C151 1.400 . S
C152 C153 1.398 . S
C153 H141 0.950 . S
C153 C152 1.398 . S
C153 C154 1.391 . S
C154 H142 0.950 . S
C154 C150 1.393 . S
C154 C153 1.391 . S
H155 C163 0.950 . S
H156 C168 0.950 . S
H157 C165 0.950 . S
H158 C167 0.950 . S
H159 C169 0.950 . S
H160 C171 0.950 . S
H161 C173 0.950 . S
H162 C174 0.950 . S
C163 H155 0.950 . S
C163 C164 1.386 . S
C163 C165 1.391 . S
C164 C163 1.386 . S
C164 C168 1.393 . S
C165 H157 0.950 . S
C165 C163 1.391 . S
C165 C166 1.400 . S
C166 C165 1.400 . S
C166 C167 1.398 . S
C166 C172 1.491 . S
C167 H158 0.950 . S
C167 C166 1.398 . S
C167 C168 1.391 . S
C168 H156 0.950 . S
C168 C164 1.393 . S
C168 C167 1.391 . S
C169 H159 0.950 . S
C169 C170 1.386 . S
C169 C171 1.391 . S
C170 C169 1.386 . S
C170 C174 1.393 . S
C171 H160 0.950 . S
C171 C169 1.391 . S
C171 C172 1.400 . S
C172 C166 1.491 . S
C172 C171 1.400 . S
C172 C173 1.398 . S
C173 H161 0.950 . S
C173 C172 1.398 . S
C173 C174 1.391 . S
C174 H162 0.950 . S
C174 C170 1.393 . S
C174 C173 1.391 . S
H175 C183 0.950 . S
H176 C188 0.950 . S
H177 C185 0.950 . S
H178 C187 0.950 . S
H179 C189 0.950 . S
H180 C191 0.950 . S
H181 C193 0.950 . S
H182 C194 0.950 . S
C183 H175 0.950 . S
C183 C184 1.386 . S
C183 C185 1.391 . S
C184 C183 1.386 . S
C184 C188 1.393 . S
C185 H177 0.950 . S
C185 C183 1.391 . S
C185 C186 1.400 . S
C186 C185 1.400 . S
C186 C187 1.398 . S
C186 C192 1.491 . S
C187 H178 0.950 . S
C187 C186 1.398 . S
C187 C188 1.391 . S
C188 H176 0.950 . S
C188 C184 1.393 . S
C188 C187 1.391 . S
C189 H179 0.950 . S
C189 C190 1.386 . S
C189 C191 1.391 . S
C190 C189 1.386 . S
C190 C194 1.393 . S
C191 H180 0.950 . S
C191 C189 1.391 . S
C191 C192 1.400 . S
C192 C186 1.491 . S
C192 C191 1.400 . S
C192 C193 1.398 . S
C193 H181 0.950 . S
C193 C192 1.398 . S
C193 C194 1.391 . S
C194 H182 0.950 . S
C194 C190 1.393 . S
C194 C193 1.391 . S
H195 C203 0.950 . S
H196 C208 0.950 . S
H197 C205 0.950 . S
H198 C207 0.950 . S
H199 C209 0.950 . S
H200 C211 0.950 . S
H201 C213 0.950 . S
H202 C214 0.950 . S
C203 H195 0.950 . S
C203 C204 1.386 . S
C203 C205 1.391 . S
C204 C203 1.386 . S
C204 C208 1.393 . S
C205 H197 0.950 . S
C205 C203 1.391 . S
C205 C206 1.400 . S
C206 C205 1.400 . S
C206 C207 1.398 . S
C206 C212 1.491 . S
C207 H198 0.950 . S
C207 C206 1.398 . S
C207 C208 1.391 . S
C208 H196 0.950 . S
C208 C204 1.393 . S
C208 C207 1.391 . S
C209 H199 0.950 . S
C209 C210 1.386 . S
C209 C211 1.391 . S
C210 C209 1.386 . S
C210 C214 1.393 . S
C211 H200 0.950 . S
C211 C209 1.391 . S
C211 C212 1.400 . S
C212 C206 1.491 . S
C212 C211 1.400 . S
C212 C213 1.398 . S
C213 H201 0.950 . S
C213 C212 1.398 . S
C213 C214 1.391 . S
C214 H202 0.950 . S
C214 C210 1.393 . S
C214 C213 1.391 . S
H215 C223 0.950 . S
H216 C228 0.950 . S
H217 C225 0.950 . S
H218 C227 0.950 . S
H219 C229 0.950 . S
H220 C231 0.950 . S
H221 C233 0.950 . S
H222 C234 0.950 . S
C223 H215 0.950 . S
C223 C224 1.386 . S
C223 C225 1.391 . S
C224 C223 1.386 . S
C224 C228 1.393 . S
C225 H217 0.950 . S
C225 C223 1.391 . S
C225 C226 1.400 . S
C226 C225 1.400 . S
C226 C227 1.398 . S
C226 C232 1.491 . S
C227 H218 0.950 . S
C227 C226 1.398 . S
C227 C228 1.391 . S
C228 H216 0.950 . S
C228 C224 1.393 . S
C228 C227 1.391 . S
C229 H219 0.950 . S
C229 C230 1.386 . S
C229 C231 1.391 . S
C230 C229 1.386 . S
C230 C234 1.393 . S
C231 H220 0.950 . S
C231 C229 1.391 . S
C231 C232 1.400 . S
C232 C226 1.491 . S
C232 C231 1.400 . S
C232 C233 1.398 . S
C233 H221 0.950 . S
C233 C232 1.398 . S
C233 C234 1.391 . S
C234 H222 0.950 . S
C234 C230 1.393 . S
C234 C233 1.391 . S
H235 C243 0.950 . S
H236 C248 0.950 . S
H237 C245 0.950 . S
H238 C247 0.950 . S
H239 C249 0.950 . S
H240 C251 0.950 . S
H241 C253 0.950 . S
H242 C254 0.950 . S
C243 H235 0.950 . S
C243 C244 1.386 . S
C243 C245 1.391 . S
C244 C243 1.386 . S
C244 C248 1.393 . S
C245 H237 0.950 . S
C245 C243 1.391 . S
C245 C246 1.400 . S
C246 C245 1.400 . S
C246 C247 1.398 . S
C246 C252 1.491 . S
C247 H238 0.950 . S
C247 C246 1.398 . S
C247 C248 1.391 . S
C248 H236 0.950 . S
C248 C244 1.393 . S
C248 C247 1.391 . S
C249 H239 0.950 . S
C249 C250 1.386 . S
C249 C251 1.391 . S
C250 C249 1.386 . S
C250 C254 1.393 . S
C251 H240 0.950 . S
C251 C249 1.391 . S
C251 C252 1.400 . S
C252 C246 1.491 . S
C252 C251 1.400 . S
C252 C253 1.398 . S
C253 H241 0.950 . S
C253 C252 1.398 . S
C253 C254 1.391 . S
C254 H242 0.950 . S
C254 C250 1.393 . S
C254 C253 1.391 . S
H255 C263 0.950 . S
H256 C268 0.950 . S
H257 C265 0.950 . S
H258 C267 0.950 . S
H259 C269 0.950 . S
H260 C271 0.950 . S
H261 C273 0.950 . S
H262 C274 0.950 . S
C263 H255 0.950 . S
C263 C264 1.386 . S
C263 C265 1.391 . S
C264 C263 1.386 . S
C264 C268 1.393 . S
C265 H257 0.950 . S
C265 C263 1.391 . S
C265 C266 1.400 . S
C266 C265 1.400 . S
C266 C267 1.398 . S
C266 C272 1.491 . S
C267 H258 0.950 . S
C267 C266 1.398 . S
C267 C268 1.391 . S
C268 H256 0.950 . S
C268 C264 1.393 . S
C268 C267 1.391 . S
C269 H259 0.950 . S
C269 C270 1.386 . S
C269 C271 1.391 . S
C270 C269 1.386 . S
C270 C274 1.393 . S
C271 H260 0.950 . S
C271 C269 1.391 . S
C271 C272 1.400 . S
C272 C266 1.491 . S
C272 C271 1.400 . S
C272 C273 1.398 . S
C273 H261 0.950 . S
C273 C272 1.398 . S
C273 C274 1.391 . S
C274 H262 0.950 . S
C274 C270 1.393 . S
C274 C273 1.391 . S
H275 C283 0.950 . S
H276 C288 0.950 . S
H277 C285 0.950 . S
H278 C287 0.950 . S
H279 C289 0.950 . S
H280 C291 0.950 . S
H281 C293 0.950 . S
H282 C294 0.950 . S
C283 H275 0.950 . S
C283 C284 1.386 . S
C283 C285 1.391 . S
C284 C283 1.386 . S
C284 C288 1.393 . S
C285 H277 0.950 . S
C285 C283 1.391 . S
C285 C286 1.400 . S
C286 C285 1.400 . S
C286 C287 1.398 . S
C286 C292 1.491 . S
C287 H278 0.950 . S
C287 C286 1.398 . S
C287 C288 1.391 . S
C288 H276 0.950 . S
C288 C284 1.393 . S
C288 C287 1.391 . S
C289 H279 0.950 . S
C289 C290 1.386 . S
C289 C291 1.391 . S
C290 C289 1.386 . S
C290 C294 1.393 . S
C291 H280 0.950 . S
C291 C289 1.391 . S
C291 C292 1.400 . S
C292 C286 1.491 . S
C292 C291 1.400 . S
C292 C293 1.398 . S
C293 H281 0.950 . S
C293 C292 1.398 . S
C293 C294 1.391 . S
C294 H282 0.950 . S
C294 C290 1.393 . S
C294 C293 1.391 . S
H295 C303 0.950 . S
H296 C308 0.950 . S
H297 C305 0.950 . S
H298 C307 0.950 . S
H299 C309 0.950 . S
H300 C311 0.950 . S
H301 C313 0.950 . S
H302 C314 0.950 . S
C303 H295 0.950 . S
C303 C304 1.386 . S
C303 C305 1.391 . S
C304 C303 1.386 . S
C304 C308 1.393 . S
C305 H297 0.950 . S
C305 C303 1.391 . S
C305 C306 1.400 . S
C306 C305 1.400 . S
C306 C307 1.398 . S
C306 C312 1.491 . S
C307 H298 0.950 . S
C307 C306 1.398 . S
C307 C308 1.391 . S
C308 H296 0.950 . S
C308 C304 1.393 . S
C308 C307 1.391 . S
C309 H299 0.950 . S
C309 C310 1.386 . S
C309 C311 1.391 . S
C310 C309 1.386 . S
C310 C314 1.393 . S
C311 H300 0.950 . S
C311 C309 1.391 . S
C311 C312 1.400 . S
C312 C306 1.491 . S
C312 C311 1.400 . S
C312 C313 1.398 . S
C313 H301 0.950 . S
C313 C312 1.398 . S
C313 C314 1.391 . S
C314 H302 0.950 . S
C314 C310 1.393 . S
C314 C313 1.391 . S
H315 C323 0.950 . S
H316 C328 0.950 . S
H317 C325 0.950 . S
H318 C327 0.950 . S
H319 C329 0.950 . S
H320 C331 0.950 . S
H321 C333 0.950 . S
H322 C334 0.950 . S
C323 H315 0.950 . S
C323 C324 1.386 . S
C323 C325 1.391 . S
C324 C323 1.386 . S
C324 C328 1.393 . S
C325 H317 0.950 . S
C325 C323 1.391 . S
C325 C326 1.400 . S
C326 C325 1.400 . S
C326 C327 1.398 . S
C326 C332 1.491 . S
C327 H318 0.950 . S
C327 C326 1.398 . S
C327 C328 1.391 . S
C328 H316 0.950 . S
C328 C324 1.393 . S
C328 C327 1.391 . S
C329 H319 0.950 . S
C329 C330 1.386 . S
C329 C331 1.391 . S
C330 C329 1.386 . S
C330 C334 1.393 . S
C331 H320 0.950 . S
C331 C329 1.391 . S
C331 C332 1.400 . S
C332 C326 1.491 . S
C332 C331 1.400 . S
C332 C333 1.398 . S
C333 H321 0.950 . S
C333 C332 1.398 . S
C333 C334 1.391 . S
C334 H322 0.950 . S
C334 C330 1.393 . S
C334 C333 1.391 . S
H335 C343 0.950 . S
H336 C348 0.950 . S
H337 C345 0.950 . S
H338 C347 0.950 . S
H339 C349 0.950 . S
H340 C351 0.950 . S
H341 C353 0.950 . S
H342 C354 0.950 . S
C343 H335 0.950 . S
C343 C344 1.386 . S
C343 C345 1.391 . S
C344 C343 1.386 . S
C344 C348 1.393 . S
C345 H337 0.950 . S
C345 C343 1.391 . S
C345 C346 1.400 . S
C346 C345 1.400 . S
C346 C347 1.398 . S
C346 C352 1.491 . S
C347 H338 0.950 . S
C347 C346 1.398 . S
C347 C348 1.391 . S
C348 H336 0.950 . S
C348 C344 1.393 . S
C348 C347 1.391 . S
C349 H339 0.950 . S
C349 C350 1.386 . S
C349 C351 1.391 . S
C350 C349 1.386 . S
C350 C354 1.393 . S
C351 H340 0.950 . S
C351 C349 1.391 . S
C351 C352 1.400 . S
C352 C346 1.491 . S
C352 C351 1.400 . S
C352 C353 1.398 . S
C353 H341 0.950 . S
C353 C352 1.398 . S
C353 C354 1.391 . S
C354 H342 0.950 . S
C354 C350 1.393 . S
C354 C353 1.391 . S
H355 C363 0.950 . S
H356 C368 0.950 . S
H357 C365 0.950 . S
H358 C367 0.950 . S
H359 C369 0.950 . S
H360 C371 0.950 . S
H361 C373 0.950 . S
H362 C374 0.950 . S
C363 H355 0.950 . S
C363 C364 1.386 . S
C363 C365 1.391 . S
C364 C363 1.386 . S
C364 C368 1.393 . S
C365 H357 0.950 . S
C365 C363 1.391 . S
C365 C366 1.400 . S
C366 C365 1.400 . S
C366 C367 1.398 . S
C366 C372 1.491 . S
C367 H358 0.950 . S
C367 C366 1.398 . S
C367 C368 1.391 . S
C368 H356 0.950 . S
C368 C364 1.393 . S
C368 C367 1.391 . S
C369 H359 0.950 . S
C369 C370 1.386 . S
C369 C371 1.391 . S
C370 C369 1.386 . S
C370 C374 1.393 . S
C371 H360 0.950 . S
C371 C369 1.391 . S
C371 C372 1.400 . S
C372 C366 1.491 . S
C372 C371 1.400 . S
C372 C373 1.398 . S
C373 H361 0.950 . S
C373 C372 1.398 . S
C373 C374 1.391 . S
C374 H362 0.950 . S
C374 C370 1.393 . S
C374 C373 1.391 . S
H375 C383 0.950 . S
H376 C388 0.950 1_655 S
H377 C385 0.950 . S
H378 C387 0.950 . S
H379 C389 0.950 . S
H380 C391 0.950 . S
H381 C393 0.950 . S
H382 C394 0.950 . S
C383 H375 0.950 . S
C383 C384 1.386 . S
C383 C385 1.391 . S
C384 C383 1.386 . S
C384 C388 1.393 . S
C385 H377 0.950 . S
C385 C383 1.391 . S
C385 C386 1.400 . S
C386 C385 1.400 . S
C386 C387 1.398 . S
C386 C392 1.491 . S
C387 H378 0.950 . S
C387 C386 1.398 . S
C387 C388 1.391 . S
C388 H376 0.950 1_455 S
C388 C384 1.393 . S
C388 C387 1.391 . S
C389 H379 0.950 . S
C389 C390 1.386 . S
C389 C391 1.391 . S
C390 C389 1.386 . S
C390 C394 1.393 . S
C391 H380 0.950 . S
C391 C389 1.391 . S
C391 C392 1.400 1_556 S
C392 C386 1.491 . S
C392 C391 1.400 1_554 S
C392 C393 1.398 1_554 S
C393 H381 0.950 . S
C393 C392 1.398 1_556 S
C393 C394 1.391 . S
C394 H382 0.950 . S
C394 C390 1.393 . S
C394 C393 1.391 . S
H395 C403 0.950 . S
H396 C408 0.950 . S
H397 C405 0.950 . S
H398 C407 0.950 . S
H399 C409 0.950 . S
H400 C411 0.950 . S
H401 C413 0.950 . S
H402 C414 0.950 . S
C403 H395 0.950 . S
C403 C404 1.386 . S
C403 C405 1.391 . S
C404 C403 1.386 . S
C404 C408 1.393 . S
C405 H397 0.950 . S
C405 C403 1.391 . S
C405 C406 1.400 . S
C406 C405 1.400 . S
C406 C407 1.398 . S
C406 C412 1.491 . S
C407 H398 0.950 . S
C407 C406 1.398 . S
C407 C408 1.391 . S
C408 H396 0.950 . S
C408 C404 1.393 . S
C408 C407 1.391 . S
C409 H399 0.950 . S
C409 C410 1.386 . S
C409 C411 1.391 . S
C410 C409 1.386 . S
C410 C414 1.393 . S
C411 H400 0.950 . S
C411 C409 1.391 . S
C411 C412 1.400 . S
C412 C406 1.491 . S
C412 C411 1.400 . S
C412 C413 1.398 . S
C413 H401 0.950 . S
C413 C412 1.398 . S
C413 C414 1.391 . S
C414 H402 0.950 . S
C414 C410 1.393 . S
C414 C413 1.391 . S
H415 C423 0.950 . S
H416 C428 0.950 . S
H417 C425 0.950 . S
H418 C427 0.950 . S
H419 C429 0.950 . S
H420 C431 0.950 . S
H421 C433 0.950 . S
H422 C434 0.950 . S
C423 H415 0.950 . S
C423 C424 1.386 . S
C423 C425 1.391 . S
C424 C423 1.386 . S
C424 C428 1.393 . S
C425 H417 0.950 . S
C425 C423 1.391 . S
C425 C426 1.400 . S
C426 C425 1.400 . S
C426 C427 1.398 . S
C426 C432 1.491 . S
C427 H418 0.950 . S
C427 C426 1.398 . S
C427 C428 1.391 . S
C428 H416 0.950 . S
C428 C424 1.393 . S
C428 C427 1.391 . S
C429 H419 0.950 . S
C429 C430 1.386 . S
C429 C431 1.391 . S
C430 C429 1.386 . S
C430 C434 1.393 . S
C431 H420 0.950 . S
C431 C429 1.391 . S
C431 C432 1.400 . S
C432 C426 1.491 . S
C432 C431 1.400 . S
C432 C433 1.398 . S
C433 H421 0.950 . S
C433 C432 1.398 . S
C433 C434 1.391 . S
C434 H422 0.950 . S
C434 C430 1.393 . S
C434 C433 1.391 . S
H435 C443 0.950 . S
H436 C448 0.950 . S
H437 C445 0.950 . S
H438 C447 0.950 . S
H439 C449 0.950 . S
H440 C451 0.950 . S
H441 C453 0.950 . S
H442 C454 0.950 . S
C443 H435 0.950 . S
C443 C444 1.386 . S
C443 C445 1.391 . S
C444 C443 1.386 . S
C444 C448 1.393 . S
C445 H437 0.950 . S
C445 C443 1.391 . S
C445 C446 1.400 . S
C446 C445 1.400 . S
C446 C447 1.398 . S
C446 C452 1.491 . S
C447 H438 0.950 . S
C447 C446 1.398 . S
C447 C448 1.391 . S
C448 H436 0.950 . S
C448 C444 1.393 . S
C448 C447 1.391 . S
C449 H439 0.950 . S
C449 C450 1.386 . S
C449 C451 1.391 . S
C450 C449 1.386 . S
C450 C454 1.393 . S
C451 H440 0.950 . S
C451 C449 1.391 . S
C451 C452 1.400 . S
C452 C446 1.491 . S
C452 C451 1.400 . S
C452 C453 1.398 . S
C453 H441 0.950 . S
C453 C452 1.398 . S
C453 C454 1.391 . S
C454 H442 0.950 . S
C454 C450 1.393 . S
C454 C453 1.391 . S
H455 C463 0.950 . S
H456 C468 0.950 . S
H457 C465 0.950 . S
H458 C467 0.950 . S
H459 C469 0.950 . S
H460 C471 0.950 1_556 S
H461 C473 0.950 . S
H462 C474 0.950 . S
C463 H455 0.950 . S
C463 C464 1.386 . S
C463 C465 1.391 . S
C464 C463 1.386 . S
C464 C468 1.393 . S
C465 H457 0.950 . S
C465 C463 1.391 . S
C465 C466 1.400 . S
C466 C465 1.400 . S
C466 C467 1.398 . S
C466 C472 1.491 . S
C467 H458 0.950 . S
C467 C466 1.398 . S
C467 C468 1.391 . S
C468 H456 0.950 . S
C468 C464 1.393 . S
C468 C467 1.391 . S
C469 H459 0.950 . S
C469 C470 1.386 . S
C469 C471 1.391 . S
C470 C469 1.386 . S
C470 C474 1.393 . S
C471 H460 0.950 1_554 S
C471 C469 1.391 . S
C471 C472 1.400 1_554 S
C472 C466 1.491 . S
C472 C471 1.400 1_556 S
C472 C473 1.398 1_556 S
C473 H461 0.950 . S
C473 C472 1.398 1_554 S
C473 C474 1.391 . S
C474 H462 0.950 . S
C474 C470 1.393 . S
C474 C473 1.391 . S
H475 C483 0.950 1_655 S
H476 C488 0.950 . S
H477 C485 0.950 1_655 S
H478 C487 0.950 . S
H479 C489 0.950 . S
H480 C491 0.950 . S
H481 C493 0.950 1_655 S
H482 C494 0.932 1_655 S
C483 H475 0.950 1_455 S
C483 C484 1.386 . S
C483 C485 1.391 . S
C484 C483 1.386 . S
C484 C488 1.393 . S
C485 H477 0.950 1_455 S
C485 C483 1.391 . S
C485 C486 1.400 . S
C486 C485 1.400 . S
C486 C487 1.398 . S
C486 C492 1.491 . S
C487 H478 0.950 . S
C487 C486 1.398 . S
C487 C488 1.391 . S
C488 H476 0.950 . S
C488 C484 1.393 . S
C488 C487 1.391 . S
C489 H479 0.950 . S
C489 C490 1.386 . S
C489 C491 1.391 . S
C490 C489 1.386 . S
C490 C494 1.410 . S
C491 H480 0.950 . S
C491 C489 1.391 . S
C491 C492 1.400 . S
C492 C486 1.491 . S
C492 C491 1.400 . S
C492 C493 1.398 . S
C493 H481 0.950 1_455 S
C493 C492 1.398 . S
C493 C494 1.391 . S
C494 H482 0.932 1_455 S
C494 C490 1.410 . S
C494 C493 1.391 . S
C144 C20 1.289 . S
C150 N128 1.289 . S
C164 C41 1.308 . S
C170 N106 1.279 . S
C184 C64 1.335 . S
C190 N117 1.315 . S
C204 C19 1.274 . S
C210 C130 1.326 . S
C230 C108 1.290 . S
C224 C44 1.284 . S
C250 C119 1.242 . S
C244 C67 1.233 . S
C264 C43 1.258 . S
C270 N84 1.281 . S
C284 C66 1.175 . S
C290 C97 1.228 1_655 S
C304 C21 1.277 . S
C310 C75 1.284 1_565 S
C330 C86 1.308 . S
C324 C42 1.239 . S
C350 N95 1.308 . S
C344 C65 1.272 . S
C364 C18 1.313 . S
C370 N73 1.297 . S
C390 C100 1.507 . S
C384 C17 1.510 . S
C404 C39 1.527 . S
C410 C78 1.523 . S
C424 C62 1.529 . S
C430 C89 1.526 . S
C450 C122 1.511 . S
C444 C40 1.510 . S
C470 C133 1.514 . S
C464 C63 1.518 . S
C484 C16 1.519 . S
C490 C111 1.510 . S
