# Generated by pormake.
# Topology dag, (6,3)-cn, num edge types: 1
# Building blocks:
#     Node 0, Type 0, BuildingBlock: IZENUY_clean_sbu_0, # of connection points: 6
#     Node 1, Type 0, BuildingBlock: IZENUY_clean_sbu_0, # of connection points: 6
#     Node 2, Type 0, BuildingBlock: IZENUY_clean_sbu_0, # of connection points: 6
#     Node 3, Type 0, BuildingBlock: IZENUY_clean_sbu_0, # of connection points: 6
#     Node 4, Type 1, BuildingBlock: MIDCAF_clean_linker_0, # of connection points: 3
#     Node 5, Type 1, BuildingBlock: MIDCAF_clean_linker_0, # of connection points: 3
#     Node 6, Type 1, BuildingBlock: MIDCAF_clean_linker_0, # of connection points: 3
#     Node 7, Type 1, BuildingBlock: MIDCAF_clean_linker_0, # of connection points: 3
#     Node 8, Type 1, BuildingBlock: MIDCAF_clean_linker_0, # of connection points: 3
#     Node 9, Type 1, BuildingBlock: MIDCAF_clean_linker_0, # of connection points: 3
#     Node 10, Type 1, BuildingBlock: MIDCAF_clean_linker_0, # of connection points: 3
#     Node 11, Type 1, BuildingBlock: MIDCAF_clean_linker_0, # of connection points: 3
#     Edge 12, Type (0, 1), BuildingBlock: KIFKEQ_clean_linker_1, # of connection points: 2
#     Edge 13, Type (0, 1), BuildingBlock: KIFKEQ_clean_linker_1, # of connection points: 2
#     Edge 14, Type (0, 1), BuildingBlock: KIFKEQ_clean_linker_1, # of connection points: 2
#     Edge 15, Type (0, 1), BuildingBlock: KIFKEQ_clean_linker_1, # of connection points: 2
#     Edge 16, Type (0, 1), BuildingBlock: KIFKEQ_clean_linker_1, # of connection points: 2
#     Edge 17, Type (0, 1), BuildingBlock: KIFKEQ_clean_linker_1, # of connection points: 2
#     Edge 18, Type (0, 1), BuildingBlock: KIFKEQ_clean_linker_1, # of connection points: 2
#     Edge 19, Type (0, 1), BuildingBlock: KIFKEQ_clean_linker_1, # of connection points: 2
#     Edge 20, Type (0, 1), BuildingBlock: KIFKEQ_clean_linker_1, # of connection points: 2
#     Edge 21, Type (0, 1), BuildingBlock: KIFKEQ_clean_linker_1, # of connection points: 2
#     Edge 22, Type (0, 1), BuildingBlock: KIFKEQ_clean_linker_1, # of connection points: 2
#     Edge 23, Type (0, 1), BuildingBlock: KIFKEQ_clean_linker_1, # of connection points: 2
#     Edge 24, Type (0, 1), BuildingBlock: KIFKEQ_clean_linker_1, # of connection points: 2
#     Edge 25, Type (0, 1), BuildingBlock: KIFKEQ_clean_linker_1, # of connection points: 2
#     Edge 26, Type (0, 1), BuildingBlock: KIFKEQ_clean_linker_1, # of connection points: 2
#     Edge 27, Type (0, 1), BuildingBlock: KIFKEQ_clean_linker_1, # of connection points: 2
#     Edge 28, Type (0, 1), BuildingBlock: KIFKEQ_clean_linker_1, # of connection points: 2
#     Edge 29, Type (0, 1), BuildingBlock: KIFKEQ_clean_linker_1, # of connection points: 2
#     Edge 30, Type (0, 1), BuildingBlock: KIFKEQ_clean_linker_1, # of connection points: 2
#     Edge 31, Type (0, 1), BuildingBlock: KIFKEQ_clean_linker_1, # of connection points: 2
#     Edge 32, Type (0, 1), BuildingBlock: KIFKEQ_clean_linker_1, # of connection points: 2
#     Edge 33, Type (0, 1), BuildingBlock: KIFKEQ_clean_linker_1, # of connection points: 2
#     Edge 34, Type (0, 1), BuildingBlock: KIFKEQ_clean_linker_1, # of connection points: 2
#     Edge 35, Type (0, 1), BuildingBlock: KIFKEQ_clean_linker_1, # of connection points: 2
# Relax obj value: 0.260
# Max RMSD: 0.197
# Mean RMSD: 0.161
data_MOF--net-dag--node1-IZENUY_clean_sbu_0--node2-MIDCAF_clean_linker_0--edge1-KIFKEQ_clean_linker_1
_symmetry_space_group_name_H-M    P1
_symmetry_Int_Tables_number       1
_symmetry_cell_setting            triclinic
loop_
_symmetry_equiv_pos_as_xyz
'x, y, z'
_cell_length_a     47.14546
_cell_length_b     48.878127
_cell_length_c     41.379278
_cell_angle_alpha  94.998035
_cell_angle_beta   90.251676
_cell_angle_gamma 90.07656
loop_
_atom_site_label
_atom_site_type_symbol
_atom_site_fract_x
_atom_site_fract_y
_atom_site_fract_z
_atom_type_partial_charge
Fe0 Fe 0.19678 0.8437 0.09259 0.0
Fe1 Fe 0.14121 0.8611 0.06179 0.0
O2 O 0.1643 0.83491 0.07247 0.0
Fe3 Fe 0.15497 0.79987 0.06324 0.0
O4 O 0.15593 0.7936 0.10586 0.0
O5 O 0.19726 0.81345 0.11584 0.0
O6 O 0.17852 0.86155 0.12673 0.0
C7 C 0.16049 0.88033 0.12444 0.0
C8 C 0.21375 0.80132 0.04978 0.0
O9 O 0.14993 0.88482 0.09721 0.0
C10 C 0.13872 0.82173 0.00741 0.0
O11 O 0.20222 0.87573 0.07318 0.0
O12 O 0.16803 0.87552 0.03708 0.0
O13 O 0.19172 0.78827 0.05695 0.0
O14 O 0.21695 0.8263 0.05973 0.0
C15 C 0.10265 0.82466 0.08227 0.0
O16 O 0.12839 0.84201 0.02452 0.0
O17 O 0.15331 0.80382 0.02005 0.0
C18 C 0.19202 0.88378 0.0473 0.0
O19 O 0.11276 0.84859 0.08576 0.0
O20 O 0.11651 0.8052 0.06764 0.0
C21 C 0.17714 0.79843 0.12418 0.0
Fe22 Fe 0.69006 0.65639 0.49563 0.0
Fe23 Fe 0.65023 0.70094 0.52697 0.0
O24 O 0.65903 0.66586 0.51788 0.0
Fe25 Fe 0.63656 0.64016 0.53105 0.0
O26 O 0.66489 0.61524 0.53599 0.0
O27 O 0.70422 0.63763 0.52805 0.0
O28 O 0.71118 0.68596 0.51282 0.0
C29 C 0.70751 0.70201 0.53823 0.0
C30 C 0.64853 0.61857 0.46957 0.0
O31 O 0.68299 0.70728 0.54903 0.0
C32 C 0.59768 0.68006 0.51248 0.0
O33 O 0.67816 0.67423 0.46162 0.0
O34 O 0.66546 0.71249 0.48959 0.0
O35 O 0.62963 0.62655 0.48971 0.0
O36 O 0.67432 0.6252 0.47456 0.0
C37 C 0.63679 0.67649 0.58475 0.0
O38 O 0.61656 0.69682 0.50542 0.0
O39 O 0.60387 0.66016 0.52879 0.0
C40 C 0.67134 0.69919 0.46283 0.0
O41 O 0.6337 0.69574 0.56633 0.0
O42 O 0.64232 0.65242 0.57302 0.0
C43 C 0.69128 0.61854 0.54034 0.0
Fe44 Fe 0.84461 0.20069 0.02512 0.0
Fe45 Fe 0.86016 0.14048 0.03014 0.0
O46 O 0.83662 0.1653 0.01686 0.0
Fe47 Fe 0.80539 0.15459 0.9953 0.0
O48 O 0.81582 0.17226 0.96073 0.0
O49 O 0.82851 0.21118 0.9875 0.0
O50 O 0.87786 0.19716 0.00319 0.0
C51 C 0.89742 0.18118 0.01026 0.0
C52 C 0.78752 0.20079 0.03674 0.0
O53 O 0.89226 0.16135 0.02706 0.0
C54 C 0.80633 0.11733 0.04058 0.0
O55 O 0.86204 0.19653 0.06453 0.0
O56 O 0.85491 0.15307 0.07196 0.0
O57 O 0.7838 0.18376 0.01215 0.0
O58 O 0.81206 0.20667 0.04739 0.0
C59 C 0.84752 0.11765 0.96928 0.0
O60 O 0.83272 0.11481 0.03596 0.0
O61 O 0.79257 0.13595 0.02834 0.0
C62 C 0.86016 0.17734 0.08325 0.0
O63 O 0.8666 0.12658 0.98892 0.0
O64 O 0.82164 0.12361 0.97453 0.0
C65 C 0.82194 0.19736 0.96119 0.0
Fe66 Fe 0.36347 0.35961 0.55242 0.0
Fe67 Fe 0.31127 0.34156 0.58894 0.0
O68 O 0.34194 0.3332 0.56552 0.0
Fe69 Fe 0.35128 0.29844 0.55512 0.0
O70 O 0.38524 0.30273 0.57616 0.0
O71 O 0.39656 0.34019 0.55355 0.0
O72 O 0.37094 0.37276 0.59382 0.0
C73 C 0.35235 0.37999 0.61465 0.0
C74 C 0.36329 0.32419 0.4979 0.0
O75 O 0.32666 0.37274 0.61033 0.0
C76 C 0.29388 0.29657 0.54544 0.0
O77 O 0.33448 0.38394 0.54874 0.0
O78 O 0.2958 0.36073 0.55755 0.0
O79 O 0.36715 0.30471 0.51578 0.0
O80 O 0.35723 0.34793 0.51029 0.0
C81 C 0.33116 0.29816 0.61962 0.0
O82 O 0.29062 0.31172 0.57164 0.0
O83 O 0.31819 0.29219 0.53351 0.0
C84 C 0.30809 0.38016 0.54513 0.0
O85 O 0.32445 0.32318 0.62201 0.0
O86 O 0.33683 0.28574 0.59227 0.0
C87 C 0.40349 0.32027 0.56949 0.0
C88 C 0.96645 0.14029 0.29286 0.0
C89 C 0.9659 0.16832 0.28773 0.0
C90 C 0.98674 0.18583 0.30256 0.0
C91 C 0.00835 0.17527 0.32115 0.0
H92 H 0.07596 0.19599 0.38342 0.0
H93 H 0.10941 0.22476 0.41627 0.0
H94 H 0.1516 0.15226 0.44479 0.0
H95 H 0.11827 0.12336 0.41199 0.0
H96 H 0.11507 0.07039 0.35693 0.0
H97 H 0.13225 0.02692 0.33074 0.0
H98 H 0.0552 0.01866 0.27374 0.0
H99 H 0.03774 0.06132 0.30034 0.0
H100 H 0.9886 0.10781 0.31343 0.0
H101 H 0.95087 0.12624 0.28144 0.0
H102 H 0.98673 0.20753 0.29906 0.0
H103 H 0.02467 0.18909 0.33139 0.0
N104 N 0.05167 0.15066 0.36077 0.0
N105 N 0.08258 0.11336 0.36421 0.0
N106 N 0.04202 0.10852 0.33136 0.0
C107 C 0.07549 0.13989 0.37328 0.0
C108 C 0.06594 0.09753 0.34319 0.0
C109 C 0.03468 0.13496 0.34005 0.0
C110 C 0.09452 0.15734 0.39492 0.0
C111 C 0.09218 0.18613 0.39692 0.0
C112 C 0.11139 0.20264 0.41559 0.0
C113 C 0.13309 0.19072 0.43297 0.0
C114 C 0.13492 0.16197 0.43182 0.0
C115 C 0.11594 0.14545 0.41285 0.0
C116 C 0.07511 0.06959 0.33056 0.0
C117 C 0.10159 0.05906 0.3392 0.0
C118 C 0.11154 0.03421 0.32405 0.0
C119 C 0.09523 0.01933 0.29997 0.0
C120 C 0.06824 0.02929 0.29246 0.0
C121 C 0.05828 0.05401 0.30761 0.0
C122 C 0.00976 0.14694 0.32468 0.0
C123 C 0.98822 0.1297 0.31097 0.0
C124 C 0.439 0.53224 0.7897 0.0
C125 C 0.41067 0.52359 0.79167 0.0
C126 C 0.39211 0.53904 0.81255 0.0
C127 C 0.40135 0.56327 0.82992 0.0
H128 H 0.37537 0.62699 0.89354 0.0
H129 H 0.34089 0.65561 0.9239 0.0
H130 H 0.39773 0.72502 0.92446 0.0
H131 H 0.43265 0.6963 0.89442 0.0
H132 H 0.48205 0.69156 0.83714 0.0
H133 H 0.5207 0.71002 0.80626 0.0
H134 H 0.55566 0.62848 0.78854 0.0
H135 H 0.51739 0.61013 0.81932 0.0
H136 H 0.46996 0.56289 0.80394 0.0
H137 H 0.4538 0.52099 0.77363 0.0
H138 H 0.37025 0.53269 0.81495 0.0
H139 H 0.38623 0.57511 0.84497 0.0
N140 N 0.42025 0.61584 0.8606 0.0
N141 N 0.45228 0.65276 0.86222 0.0
N142 N 0.46323 0.61104 0.83268 0.0
C143 C 0.42722 0.64207 0.87143 0.0
C144 C 0.4705 0.63723 0.84305 0.0
C145 C 0.43817 0.60016 0.84125 0.0
C146 C 0.40682 0.65931 0.89131 0.0
C147 C 0.38069 0.64831 0.90017 0.0
C148 C 0.36078 0.66477 0.91744 0.0
C149 C 0.36647 0.69264 0.9263 0.0
C150 C 0.3928 0.70357 0.91813 0.0
C151 C 0.41276 0.68709 0.90079 0.0
C152 C 0.49645 0.64932 0.83024 0.0
C153 C 0.49842 0.67772 0.82738 0.0
C154 C 0.52045 0.68828 0.80958 0.0
C155 C 0.54108 0.67068 0.79478 0.0
C156 C 0.54026 0.64264 0.79985 0.0
C157 C 0.51814 0.63207 0.81727 0.0
C158 C 0.42933 0.57265 0.82664 0.0
C159 C 0.44822 0.55645 0.80696 0.0
C160 C 0.713 0.81088 0.24888 0.0
C161 C 0.72808 0.79179 0.26582 0.0
C162 C 0.75636 0.78592 0.25716 0.0
C163 C 0.76915 0.79848 0.23199 0.0
H164 H 0.84395 0.80119 0.18493 0.0
H165 H 0.89375 0.79197 0.1726 0.0
H166 H 0.88727 0.83865 0.08899 0.0
H167 H 0.83749 0.84787 0.10108 0.0
H168 H 0.7793 0.88373 0.09238 0.0
H169 H 0.76839 0.92906 0.07581 0.0
H170 H 0.72284 0.94849 0.16518 0.0
H171 H 0.73378 0.90282 0.18189 0.0
H172 H 0.71367 0.83814 0.21103 0.0
H173 H 0.69111 0.8157 0.25477 0.0
H174 H 0.76885 0.77183 0.27014 0.0
H175 H 0.791 0.7934 0.2262 0.0
N176 N 0.79399 0.82175 0.17759 0.0
N177 N 0.79496 0.8552 0.14052 0.0
N178 N 0.75594 0.85246 0.17515 0.0
C179 C 0.80752 0.83381 0.15368 0.0
C180 C 0.76925 0.86466 0.15107 0.0
C181 C 0.76813 0.83073 0.18829 0.0
C182 C 0.83674 0.8255 0.14415 0.0
C183 C 0.85298 0.80918 0.16363 0.0
C184 C 0.88156 0.804 0.15671 0.0
C185 C 0.89441 0.81473 0.12997 0.0
C186 C 0.87788 0.82995 0.10964 0.0
C187 C 0.84938 0.83537 0.11672 0.0
C188 C 0.75772 0.88984 0.13862 0.0
C189 C 0.76641 0.89742 0.10821 0.0
C190 C 0.75995 0.92333 0.09859 0.0
C191 C 0.74489 0.94239 0.1193 0.0
C192 C 0.73463 0.93424 0.14884 0.0
C193 C 0.74078 0.90807 0.15831 0.0
C194 C 0.75412 0.81749 0.21491 0.0
C195 C 0.7259 0.82364 0.22372 0.0
C196 C 0.78085 0.31798 0.75581 0.0
C197 C 0.77318 0.29079 0.76056 0.0
C198 C 0.75579 0.27622 0.7373 0.0
C199 C 0.74512 0.28889 0.71092 0.0
H200 H 0.66552 0.29368 0.66702 0.0
H201 H 0.61508 0.28591 0.65531 0.0
H202 H 0.61728 0.34768 0.58693 0.0
H203 H 0.6673 0.35558 0.59838 0.0
H204 H 0.7288 0.3863 0.5876 0.0
H205 H 0.73862 0.43249 0.57324 0.0
H206 H 0.77899 0.45197 0.66633 0.0
H207 H 0.76908 0.40535 0.68082 0.0
H208 H 0.77599 0.35181 0.72659 0.0
H209 H 0.79405 0.32987 0.77333 0.0
H210 H 0.7501 0.25501 0.73963 0.0
H211 H 0.73128 0.2772 0.6939 0.0
N212 N 0.7131 0.32075 0.66795 0.0
N213 N 0.7117 0.35639 0.63384 0.0
N214 N 0.74993 0.35335 0.6698 0.0
C215 C 0.69958 0.33377 0.6447 0.0
C216 C 0.73681 0.36626 0.64607 0.0
C217 C 0.73835 0.33024 0.68042 0.0
C218 C 0.67044 0.32562 0.63407 0.0
C219 C 0.65538 0.30529 0.64908 0.0
C220 C 0.62652 0.30077 0.64237 0.0
C221 C 0.61223 0.31657 0.6207 0.0
C222 C 0.62767 0.33561 0.60426 0.0
C223 C 0.65641 0.34004 0.61079 0.0
C224 C 0.74786 0.39233 0.63548 0.0
C225 C 0.74033 0.40022 0.60476 0.0
C226 C 0.7462 0.42665 0.59641 0.0
C227 C 0.75948 0.44593 0.61872 0.0
C228 C 0.76859 0.43756 0.64874 0.0
C229 C 0.76304 0.41087 0.65695 0.0
C230 C 0.75191 0.31635 0.7068 0.0
C231 C 0.77043 0.33059 0.72908 0.0
C232 C 0.45854 0.35915 0.28115 0.0
C233 C 0.45745 0.33115 0.28638 0.0
C234 C 0.47772 0.31327 0.2713 0.0
C235 C 0.49973 0.32353 0.25318 0.0
H236 H 0.56077 0.30932 0.17374 0.0
H237 H 0.59386 0.28175 0.13945 0.0
H238 H 0.6593 0.34255 0.16189 0.0
H239 H 0.62625 0.37036 0.19508 0.0
H240 H 0.61397 0.42398 0.23833 0.0
H241 H 0.63058 0.46578 0.2692 0.0
H242 H 0.54681 0.47885 0.30944 0.0
H243 H 0.53004 0.43755 0.27834 0.0
H244 H 0.48163 0.39133 0.26133 0.0
H245 H 0.44344 0.37354 0.29264 0.0
H246 H 0.47726 0.29155 0.2747 0.0
H247 H 0.51589 0.3095 0.24329 0.0
N248 N 0.54579 0.34842 0.21741 0.0
N249 N 0.57869 0.38471 0.22039 0.0
N250 N 0.53608 0.38949 0.24899 0.0
C251 C 0.57103 0.35894 0.20842 0.0
C252 C 0.56129 0.40016 0.24062 0.0
C253 C 0.52813 0.36375 0.23756 0.0
C254 C 0.59077 0.34213 0.18715 0.0
C255 C 0.58219 0.31685 0.17122 0.0
C256 C 0.6012 0.30097 0.15166 0.0
C257 C 0.62924 0.30995 0.14775 0.0
C258 C 0.63773 0.33522 0.16372 0.0
C259 C 0.61874 0.35114 0.18301 0.0
C260 C 0.57071 0.42719 0.25606 0.0
C261 C 0.59896 0.43598 0.25336 0.0
C262 C 0.60855 0.45986 0.2712 0.0
C263 C 0.59007 0.47553 0.29195 0.0
C264 C 0.56154 0.46741 0.29346 0.0
C265 C 0.55198 0.44355 0.27576 0.0
C266 C 0.50201 0.35188 0.25026 0.0
C267 C 0.48061 0.3694 0.26341 0.0
C268 C 0.28316 0.18856 0.83284 0.0
C269 C 0.2675 0.20346 0.8114 0.0
C270 C 0.2385 0.20806 0.81713 0.0
C271 C 0.22536 0.19799 0.84383 0.0
H272 H 0.15275 0.20747 0.89926 0.0
H273 H 0.10416 0.22031 0.91425 0.0
H274 H 0.11014 0.1725 0.99705 0.0
H275 H 0.15847 0.16019 0.98266 0.0
H276 H 0.21056 0.12129 0.99048 0.0
H277 H 0.22001 0.07648 0.00898 0.0
H278 H 0.27073 0.05534 0.92375 0.0
H279 H 0.26086 0.10043 0.9048 0.0
H280 H 0.28243 0.16647 0.87536 0.0
H281 H 0.30555 0.18471 0.82885 0.0
H282 H 0.22603 0.21972 0.80111 0.0
H283 H 0.20294 0.2019 0.84749 0.0
N284 N 0.20141 0.18247 0.90383 0.0
N285 N 0.19942 0.15075 0.94294 0.0
N286 N 0.23783 0.14999 0.90713 0.0
C287 C 0.18779 0.17219 0.92897 0.0
C288 C 0.22431 0.13948 0.93224 0.0
C289 C 0.22657 0.17167 0.893 0.0
C290 C 0.15949 0.18259 0.93958 0.0
C291 C 0.14383 0.20007 0.92095 0.0
C292 C 0.11594 0.2073 0.92941 0.0
C293 C 0.10323 0.19738 0.95679 0.0
C294 C 0.11934 0.18084 0.97606 0.0
C295 C 0.14707 0.17355 0.96759 0.0
C296 C 0.23462 0.11431 0.94593 0.0
C297 C 0.22414 0.10732 0.97587 0.0
C298 C 0.22978 0.08164 0.98666 0.0
C299 C 0.24599 0.06224 0.96774 0.0
C300 C 0.25791 0.06977 0.93869 0.0
C301 C 0.25241 0.09565 0.92796 0.0
C302 C 0.24084 0.18273 0.86512 0.0
C303 C 0.26989 0.17805 0.85932 0.0
C304 C 0.24578 0.71903 0.34171 0.0
C305 C 0.22205 0.70677 0.32566 0.0
C306 C 0.21186 0.68171 0.33532 0.0
C307 C 0.22526 0.66914 0.36041 0.0
H308 H 0.23148 0.59432 0.40649 0.0
H309 H 0.22053 0.54854 0.42292 0.0
H310 H 0.26946 0.56649 0.51071 0.0
H311 H 0.28029 0.6119 0.4945 0.0
H312 H 0.3361 0.64855 0.48624 0.0
H313 H 0.38477 0.66071 0.50033 0.0
H314 H 0.38665 0.71627 0.42471 0.0
H315 H 0.33778 0.70377 0.41008 0.0
H316 H 0.2776 0.7165 0.37808 0.0
H317 H 0.25446 0.7381 0.33451 0.0
H318 H 0.19352 0.67185 0.32351 0.0
H319 H 0.21701 0.64975 0.36713 0.0
N320 N 0.25353 0.64478 0.4137 0.0
N321 N 0.29296 0.64277 0.44819 0.0
N322 N 0.28987 0.67767 0.41311 0.0
C323 C 0.26766 0.63237 0.43713 0.0
C324 C 0.30429 0.66533 0.43627 0.0
C325 C 0.26441 0.66768 0.40184 0.0
C326 C 0.25705 0.60658 0.44902 0.0
C327 C 0.23933 0.58867 0.42963 0.0
C328 C 0.23315 0.56245 0.43895 0.0
C329 C 0.24419 0.55389 0.46805 0.0
C330 C 0.26035 0.57253 0.48833 0.0
C331 C 0.2668 0.5985 0.47887 0.0
C332 C 0.33299 0.675 0.44684 0.0
C333 C 0.34669 0.66356 0.47271 0.0
C334 C 0.37461 0.67071 0.481 0.0
C335 C 0.38962 0.68947 0.46364 0.0
C336 C 0.37573 0.70156 0.43835 0.0
C337 C 0.34766 0.69449 0.43011 0.0
C338 C 0.24928 0.68128 0.37613 0.0
C339 C 0.25922 0.70647 0.36658 0.0
C340 C 0.93531 0.96165 0.80131 0.0
C341 C 0.90672 0.96939 0.79912 0.0
C342 C 0.88832 0.95285 0.77899 0.0
C343 C 0.89805 0.92855 0.76237 0.0
H344 H 0.86951 0.85882 0.7135 0.0
H345 H 0.83578 0.82986 0.68191 0.0
H346 H 0.90295 0.77373 0.65116 0.0
H347 H 0.93717 0.80279 0.68316 0.0
H348 H 0.98479 0.80317 0.75324 0.0
H349 H 0.02491 0.78636 0.78358 0.0
H350 H 0.05427 0.86983 0.8048 0.0
H351 H 0.01494 0.88637 0.77425 0.0
H352 H 0.96702 0.93168 0.78788 0.0
H353 H 0.94999 0.97379 0.81685 0.0
H354 H 0.86625 0.95846 0.77649 0.0
H355 H 0.8831 0.91595 0.74775 0.0
N356 N 0.91842 0.87664 0.73203 0.0
N357 N 0.95189 0.84095 0.72977 0.0
N358 N 0.96154 0.88296 0.75972 0.0
C359 C 0.92625 0.85077 0.7209 0.0
C360 C 0.96972 0.8571 0.74911 0.0
C361 C 0.93598 0.89292 0.75134 0.0
C362 C 0.9061 0.83312 0.70094 0.0
C363 C 0.87727 0.84038 0.7 0.0
C364 C 0.85785 0.82371 0.68206 0.0
C365 C 0.86676 0.7995 0.66432 0.0
C366 C 0.8956 0.79234 0.66464 0.0
C367 C 0.9151 0.80891 0.68305 0.0
C368 C 0.99645 0.84614 0.76174 0.0
C369 C 0.00028 0.8178 0.76367 0.0
C370 C 0.02315 0.80819 0.78123 0.0
C371 C 0.04271 0.82673 0.79688 0.0
C372 C 0.03988 0.85486 0.79284 0.0
C373 C 0.01707 0.86442 0.77553 0.0
C374 C 0.92639 0.92019 0.7657 0.0
C375 C 0.94503 0.93735 0.78483 0.0
H376 H 0.18941 0.89059 0.18208 0.0
H377 H 0.11221 0.91016 0.1324 0.0
H378 H 0.1749 0.92121 0.22933 0.0
H379 H 0.09777 0.94022 0.17939 0.0
H380 H 0.06729 0.97197 0.27819 0.0
H381 H 0.08413 0.93569 0.23875 0.0
H382 H 0.1665 0.97429 0.23899 0.0
H383 H 0.14955 0.01113 0.27769 0.0
C384 C 0.16934 0.90128 0.18133 0.0
C385 C 0.15206 0.89819 0.15346 0.0
C386 C 0.1611 0.91878 0.20828 0.0
C387 C 0.13516 0.9329 0.20802 0.0
C388 C 0.11771 0.92933 0.1804 0.0
C389 C 0.12613 0.91232 0.15337 0.0
C390 C 0.08904 0.9727 0.27002 0.0
C391 C 0.10689 0.99476 0.28074 0.0
C392 C 0.09869 0.95185 0.24755 0.0
C393 C 0.1265 0.95239 0.23562 0.0
C394 C 0.145 0.97332 0.24797 0.0
C395 C 0.13526 0.99438 0.27022 0.0
H396 H 0.64104 0.6399 0.63068 0.0
H397 H 0.61597 0.7233 0.61773 0.0
H398 H 0.62314 0.64486 0.6857 0.0
H399 H 0.59858 0.7285 0.67344 0.0
H400 H 0.59766 0.65906 0.78745 0.0
H401 H 0.6268 0.66613 0.74022 0.0
H402 H 0.55776 0.71006 0.6993 0.0
H403 H 0.52898 0.70334 0.74652 0.0
C404 C 0.63215 0.65949 0.63976 0.0
C405 C 0.62947 0.68104 0.61957 0.0
C406 C 0.62214 0.66245 0.67153 0.0
C407 C 0.60928 0.68705 0.68399 0.0
C408 C 0.60804 0.70915 0.66441 0.0
C409 C 0.61808 0.70619 0.63253 0.0
C410 C 0.58902 0.67077 0.76866 0.0
C411 C 0.56094 0.68036 0.77049 0.0
C412 C 0.60564 0.67474 0.74158 0.0
C413 C 0.59444 0.68823 0.71571 0.0
C414 C 0.56718 0.69977 0.71885 0.0
C415 C 0.55063 0.69592 0.74598 0.0
H416 H 0.75115 0.10008 0.0323 0.0
H417 H 0.82793 0.0862 0.08579 0.0
H418 H 0.72886 0.06069 0.05516 0.0
H419 H 0.80571 0.04732 0.10869 0.0
H420 H 0.75681 0.98778 0.15998 0.0
H421 H 0.76559 0.03419 0.14492 0.0
H422 H 0.74039 0.00905 0.04636 0.0
H423 H 0.7313 0.96259 0.06149 0.0
C424 C 0.76303 0.08896 0.04939 0.0
C425 C 0.79134 0.09599 0.05708 0.0
C426 C 0.75033 0.06643 0.06235 0.0
C427 C 0.76554 0.05102 0.08373 0.0
C428 C 0.79334 0.059 0.0926 0.0
C429 C 0.80615 0.08112 0.07927 0.0
C430 C 0.75218 0.99237 0.13537 0.0
C431 C 0.74362 0.9715 0.11182 0.0
C432 C 0.75743 0.01889 0.12671 0.0
C433 C 0.75399 0.0251 0.09442 0.0
C434 C 0.74312 0.00486 0.07146 0.0
C435 C 0.7381 0.97825 0.08006 0.0
H436 H 0.42816 0.28293 0.60744 0.0
H437 H 0.44772 0.35019 0.5499 0.0
H438 H 0.47852 0.28014 0.62243 0.0
H439 H 0.49724 0.34706 0.56427 0.0
H440 H 0.57542 0.3591 0.62385 0.0
H441 H 0.52461 0.3579 0.61375 0.0
H442 H 0.52728 0.26936 0.59871 0.0
H443 H 0.57862 0.27061 0.60946 0.0
C444 C 0.44313 0.29693 0.59784 0.0
C445 C 0.43383 0.31695 0.57774 0.0
C446 C 0.47191 0.29528 0.60633 0.0
C447 C 0.49174 0.31367 0.59493 0.0
C448 C 0.48243 0.33303 0.57412 0.0
C449 C 0.45394 0.33471 0.56574 0.0
C450 C 0.56519 0.33936 0.61837 0.0
C451 C 0.58101 0.31499 0.61674 0.0
C452 C 0.53609 0.33866 0.6126 0.0
C453 C 0.52204 0.31357 0.60481 0.0
C454 C 0.53756 0.28899 0.60467 0.0
C455 C 0.56688 0.2897 0.61069 0.0
H456 H 0.68364 0.59468 0.42265 0.0
H457 H 0.59574 0.59923 0.45198 0.0
H458 H 0.67076 0.56243 0.37657 0.0
H459 H 0.58305 0.56671 0.40635 0.0
H460 H 0.56469 0.52541 0.30675 0.0
H461 H 0.57973 0.56182 0.34735 0.0
H462 H 0.65437 0.51494 0.36756 0.0
H463 H 0.63938 0.47863 0.32703 0.0
C464 C 0.66159 0.58881 0.41931 0.0
C465 C 0.64076 0.59942 0.44117 0.0
C466 C 0.65424 0.57027 0.39295 0.0
C467 C 0.62589 0.56199 0.38779 0.0
C468 C 0.60502 0.57294 0.40935 0.0
C469 C 0.61236 0.59143 0.4357 0.0
C470 C 0.58438 0.52297 0.31976 0.0
C471 C 0.60075 0.49907 0.31378 0.0
C472 C 0.59297 0.54379 0.34304 0.0
C473 C 0.61812 0.54117 0.36088 0.0
C474 C 0.63505 0.51775 0.354 0.0
C475 C 0.62647 0.49694 0.33072 0.0
H476 H 0.9172 0.2156 0.96631 0.0
H477 H 0.94505 0.16041 0.03617 0.0
H478 H 0.96685 0.22479 0.95328 0.0
H479 H 0.99415 0.16964 0.02325 0.0
H480 H 0.07892 0.2094 0.01624 0.0
H481 H 0.02851 0.20934 0.02919 0.0
H482 H 0.00803 0.19655 0.92721 0.0
H483 H 0.05852 0.19613 0.91416 0.0
C484 C 0.93385 0.20556 0.97897 0.0
C485 C 0.92719 0.18726 0.00224 0.0
C486 C 0.9622 0.21077 0.97145 0.0
C487 C 0.9843 0.19811 0.98747 0.0
C488 C 0.97757 0.18004 0.01089 0.0
C489 C 0.94939 0.17457 0.01807 0.0
C490 C 0.06368 0.20681 0.99655 0.0
C491 C 0.07276 0.20233 0.9642 0.0
C492 C 0.03484 0.20682 0.00397 0.0
C493 C 0.01442 0.20257 0.97922 0.0
C494 C 0.02333 0.20001 0.94675 0.0
C495 C 0.05225 0.19982 0.9393 0.0
H496 H 0.25336 0.39734 0.55712 0.0
H497 H 0.32604 0.40961 0.49688 0.0
H498 H 0.2294 0.43618 0.53472 0.0
H499 H 0.30228 0.44787 0.47451 0.0
H500 H 0.25253 0.50806 0.42677 0.0
H501 H 0.26068 0.46146 0.44149 0.0
H502 H 0.24121 0.48747 0.5413 0.0
H503 H 0.23254 0.53405 0.5265 0.0
C504 C 0.26391 0.40794 0.53863 0.0
C505 C 0.29163 0.40072 0.52892 0.0
C506 C 0.25028 0.43016 0.52593 0.0
C507 C 0.26395 0.445 0.50284 0.0
C508 C 0.29102 0.43665 0.49193 0.0
C509 C 0.30475 0.41489 0.50496 0.0
C510 C 0.24895 0.50364 0.45163 0.0
C511 C 0.24226 0.5248 0.47558 0.0
C512 C 0.25384 0.477 0.46009 0.0
C513 C 0.25197 0.47095 0.4926 0.0
C514 C 0.24273 0.4915 0.51603 0.0
C515 C 0.23801 0.51821 0.50761 0.0
H516 H 0.12931 0.86206 0.968 0.0
H517 H 0.13125 0.77377 0.96851 0.0
H518 H 0.11243 0.85749 0.91212 0.0
H519 H 0.11374 0.76917 0.91223 0.0
H520 H 0.03519 0.78923 0.84153 0.0
H521 H 0.06488 0.78326 0.88875 0.0
H522 H 0.12686 0.83892 0.85463 0.0
H523 H 0.09757 0.84443 0.80684 0.0
C524 C 0.12639 0.84165 0.95597 0.0
C525 C 0.13136 0.81828 0.9726 0.0
C526 C 0.11698 0.83903 0.92388 0.0
C527 C 0.11188 0.81297 0.90782 0.0
C528 C 0.11757 0.78948 0.9241 0.0
C529 C 0.12761 0.79211 0.95617 0.0
C530 C 0.05566 0.79934 0.84333 0.0
C531 C 0.06374 0.81773 0.82068 0.0
C532 C 0.07265 0.79594 0.87048 0.0
C533 C 0.09791 0.81097 0.87555 0.0
C534 C 0.10724 0.8274 0.85149 0.0
C535 C 0.09041 0.83062 0.82422 0.0
H536 H 0.90046 0.09915 0.95204 0.0
H537 H 0.81229 0.09163 0.92344 0.0
H538 H 0.91324 0.06535 0.90797 0.0
H539 H 0.82525 0.05811 0.87879 0.0
H540 H 0.85758 0.97328 0.83391 0.0
H541 H 0.84228 0.01094 0.87224 0.0
H542 H 0.91621 0.05778 0.84938 0.0
H543 H 0.9316 0.01996 0.81108 0.0
C544 C 0.8838 0.09045 0.93621 0.0
C545 C 0.8553 0.09795 0.94149 0.0
C546 C 0.89118 0.07122 0.91073 0.0
C547 C 0.87027 0.05903 0.88982 0.0
C548 C 0.84182 0.06689 0.89469 0.0
C549 C 0.83441 0.08617 0.92022 0.0
C550 C 0.87027 0.99183 0.83655 0.0
C551 C 0.89589 0.99357 0.81959 0.0
C552 C 0.8615 0.01344 0.85855 0.0
C553 C 0.87814 0.03729 0.86407 0.0
C554 C 0.90319 0.03947 0.84614 0.0
C555 C 0.91198 0.01784 0.82417 0.0
H556 H 0.38323 0.27773 0.46351 0.0
H557 H 0.35957 0.36195 0.45313 0.0
H558 H 0.4003 0.27334 0.40771 0.0
H559 H 0.37717 0.35775 0.3979 0.0
H560 H 0.40123 0.34398 0.29511 0.0
H561 H 0.37266 0.33728 0.34289 0.0
H562 H 0.44132 0.29161 0.38195 0.0
H563 H 0.46957 0.29806 0.33426 0.0
C564 C 0.38138 0.29521 0.44926 0.0
C565 C 0.37044 0.32033 0.46298 0.0
C566 C 0.39125 0.29271 0.41731 0.0
C567 C 0.39031 0.31523 0.39838 0.0
C568 C 0.37794 0.33986 0.41158 0.0
C569 C 0.36808 0.34236 0.44345 0.0
C570 C 0.40992 0.33201 0.31363 0.0
C571 C 0.43776 0.32182 0.31109 0.0
C572 C 0.39362 0.32824 0.34102 0.0
C573 C 0.40487 0.3143 0.3665 0.0
C574 C 0.43185 0.30225 0.36271 0.0
C575 C 0.4481 0.30594 0.33529 0.0
H576 H 0.1749 0.90778 0.99323 0.0
H577 H 0.24127 0.9107 0.06589 0.0
H578 H 0.19464 0.94833 0.9717 0.0
H579 H 0.26142 0.95107 0.04376 0.0
H580 H 0.25447 0.04465 0.0281 0.0
H581 H 0.24666 0.99857 0.04438 0.0
H582 H 0.23349 0.96853 0.94411 0.0
H583 H 0.24014 0.01489 0.92798 0.0
C584 C 0.194 0.91678 0.0043 0.0
C585 C 0.20623 0.9062 0.03162 0.0
C586 C 0.20549 0.93995 0.99173 0.0
C587 C 0.22955 0.95307 0.00611 0.0
C588 C 0.24264 0.94167 0.03242 0.0
C589 C 0.23113 0.91847 0.04502 0.0
C590 C 0.25028 0.02813 0.00949 0.0
C591 C 0.24752 0.03352 0.97681 0.0
C592 C 0.24608 0.00163 0.01878 0.0
C593 C 0.23907 0.9799 0.99558 0.0
C594 C 0.23838 0.98492 0.96263 0.0
C595 C 0.24255 0.01144 0.95334 0.0
H596 H 0.57503 0.71585 0.47142 0.0
H597 H 0.55177 0.65552 0.53708 0.0
H598 H 0.5246 0.72315 0.4598 0.0
H599 H 0.50205 0.66277 0.5255 0.0
H600 H 0.41511 0.69783 0.52315 0.0
H601 H 0.4658 0.69956 0.53507 0.0
H602 H 0.48397 0.69513 0.43258 0.0
H603 H 0.43317 0.69315 0.42055 0.0
C604 C 0.55924 0.70427 0.48344 0.0
C605 C 0.56744 0.68512 0.50517 0.0
C606 C 0.53044 0.70839 0.47673 0.0
C607 C 0.50941 0.69372 0.492 0.0
C608 C 0.51771 0.67475 0.51379 0.0
C609 C 0.5463 0.67043 0.5202 0.0
C610 C 0.42989 0.69743 0.50315 0.0
C611 C 0.42011 0.69492 0.4709 0.0
C612 C 0.4589 0.69847 0.50998 0.0
C613 C 0.47883 0.6971 0.48474 0.0
C614 C 0.4691 0.69637 0.45253 0.0
C615 C 0.44 0.69525 0.44567 0.0
H616 H 0.40506 0.40012 0.63133 0.0
H617 H 0.31765 0.40281 0.66263 0.0
H618 H 0.41787 0.43264 0.67695 0.0
H619 H 0.33066 0.43504 0.70866 0.0
H620 H 0.36087 0.51945 0.75756 0.0
H621 H 0.34606 0.48286 0.71733 0.0
H622 H 0.42213 0.43752 0.73597 0.0
H623 H 0.43698 0.4742 0.77634 0.0
C624 C 0.38858 0.4075 0.64804 0.0
C625 C 0.36026 0.39901 0.64312 0.0
C626 C 0.39599 0.42599 0.67438 0.0
C627 C 0.37528 0.43643 0.69646 0.0
C628 C 0.34705 0.4276 0.69187 0.0
C629 C 0.33962 0.40906 0.66554 0.0
C630 C 0.37415 0.50141 0.75363 0.0
C631 C 0.40019 0.49981 0.77006 0.0
C632 C 0.36567 0.48043 0.7305 0.0
C633 C 0.38303 0.45737 0.72325 0.0
C634 C 0.40854 0.45527 0.74058 0.0
C635 C 0.41702 0.47625 0.76373 0.0
H636 H 0.06998 0.85827 0.12287 0.0
H637 H 0.06811 0.78102 0.06347 0.0
H638 H 0.02004 0.85263 0.13589 0.0
H639 H 0.01804 0.77545 0.07659 0.0
H640 H 0.92181 0.80082 0.07275 0.0
H641 H 0.97298 0.80053 0.06316 0.0
H642 H 0.98791 0.82197 0.16527 0.0
H643 H 0.93681 0.82255 0.17481 0.0
C644 C 0.05897 0.83999 0.11278 0.0
C645 C 0.07297 0.82017 0.09199 0.0
C646 C 0.03042 0.83669 0.12042 0.0
C647 C 0.01518 0.81362 0.10719 0.0
C648 C 0.02926 0.79353 0.0869 0.0
C649 C 0.05794 0.79667 0.07956 0.0
C650 C 0.93607 0.80525 0.09314 0.0
C651 C 0.92535 0.81177 0.1245 0.0
C652 C 0.96532 0.80488 0.08771 0.0
C653 C 0.98437 0.81133 0.11347 0.0
C654 C 0.97367 0.81713 0.14495 0.0
C655 C 0.94446 0.81722 0.15043 0.0
H656 H 0.74734 0.604 0.53338 0.0
H657 H 0.67084 0.58602 0.58464 0.0
H658 H 0.77134 0.56573 0.55676 0.0
H659 H 0.69467 0.54822 0.60791 0.0
H660 H 0.7744 0.46785 0.56244 0.0
H661 H 0.76351 0.51401 0.54769 0.0
H662 H 0.7341 0.5364 0.64506 0.0
H663 H 0.74449 0.49018 0.65967 0.0
C664 C 0.73584 0.5922 0.55005 0.0
C665 C 0.70714 0.59776 0.55695 0.0
C666 C 0.74953 0.57031 0.56332 0.0
C667 C 0.7349 0.55405 0.5842 0.0
C668 C 0.70665 0.56057 0.59225 0.0
C669 C 0.6929 0.58207 0.57866 0.0
C670 C 0.76626 0.48286 0.58088 0.0
C671 C 0.75995 0.47529 0.61208 0.0
C672 C 0.76022 0.50934 0.57251 0.0
C673 C 0.74759 0.52866 0.59512 0.0
C674 C 0.74353 0.52179 0.62706 0.0
C675 C 0.74973 0.49539 0.63549 0.0
H676 H 0.8848 0.2234 0.11444 0.0
H677 H 0.85575 0.14169 0.13001 0.0
H678 H 0.90541 0.22791 0.16896 0.0
H679 H 0.87686 0.14586 0.18364 0.0
H680 H 0.90886 0.15839 0.28317 0.0
H681 H 0.87766 0.16683 0.23785 0.0
H682 H 0.94636 0.20785 0.19272 0.0
H683 H 0.97714 0.19999 0.23833 0.0
C684 C 0.88245 0.20658 0.12961 0.0
C685 C 0.86901 0.18203 0.11768 0.0
C686 C 0.89439 0.20911 0.16078 0.0
C687 C 0.89302 0.18718 0.18064 0.0
C688 C 0.87808 0.16332 0.1693 0.0
C689 C 0.86618 0.16081 0.13828 0.0
C690 C 0.91702 0.16974 0.26386 0.0
C691 C 0.94548 0.17827 0.26406 0.0
C692 C 0.89922 0.1745 0.23786 0.0
C693 C 0.90962 0.18759 0.21134 0.0
C694 C 0.93751 0.19792 0.2128 0.0
C695 C 0.95523 0.19337 0.23895 0.0
H696 H 0.21478 0.81099 0.17311 0.0
H697 H 0.14572 0.75569 0.14456 0.0
H698 H 0.22082 0.78876 0.22287 0.0
H699 H 0.1518 0.73337 0.19496 0.0
H700 H 0.20449 0.68189 0.26707 0.0
H701 H 0.18934 0.70423 0.21929 0.0
H702 H 0.19535 0.78333 0.27417 0.0
H703 H 0.2103 0.76107 0.32189 0.0
C704 C 0.20081 0.7941 0.17748 0.0
C705 C 0.17988 0.785 0.15474 0.0
C706 C 0.20412 0.78153 0.2062 0.0
C707 C 0.18668 0.75943 0.21291 0.0
C708 C 0.1656 0.75031 0.19033 0.0
C709 C 0.16208 0.76313 0.16158 0.0
C710 C 0.20193 0.70399 0.26912 0.0
C711 C 0.209 0.71977 0.2981 0.0
C712 C 0.19326 0.71677 0.24177 0.0
C713 C 0.19156 0.74554 0.24291 0.0
C714 C 0.19702 0.76115 0.27242 0.0
C715 C 0.20561 0.74841 0.2997 0.0
H716 H 0.70653 0.74483 0.58494 0.0
H717 H 0.76411 0.69031 0.52985 0.0
H718 H 0.74625 0.7665 0.61448 0.0
H719 H 0.80413 0.71165 0.56034 0.0
H720 H 0.86924 0.77835 0.60091 0.0
H721 H 0.83163 0.75377 0.56926 0.0
H722 H 0.77949 0.75611 0.65513 0.0
H723 H 0.81662 0.78121 0.6862 0.0
C724 C 0.7277 0.73737 0.57919 0.0
C725 C 0.73211 0.71576 0.55508 0.0
C726 C 0.75052 0.74969 0.59635 0.0
C727 C 0.77839 0.74057 0.59015 0.0
C728 C 0.78294 0.71926 0.56561 0.0
C729 C 0.76002 0.707 0.5482 0.0
C730 C 0.84982 0.77326 0.61295 0.0
C731 C 0.84562 0.78194 0.64583 0.0
C732 C 0.82831 0.75917 0.5949 0.0
C733 C 0.80234 0.75337 0.60953 0.0
C734 C 0.79887 0.76092 0.64285 0.0
C735 C 0.82017 0.77517 0.66072 0.0
H736 H 0.73103 0.18784 0.03037 0.0
H737 H 0.78868 0.24806 0.07683 0.0
H738 H 0.6908 0.21356 0.05495 0.0
H739 H 0.74864 0.2736 0.10095 0.0
H740 H 0.66995 0.32753 0.10734 0.0
H741 H 0.70706 0.30041 0.07915 0.0
H742 H 0.67229 0.22666 0.11365 0.0
H743 H 0.63552 0.25384 0.14287 0.0
C744 C 0.73511 0.20654 0.04571 0.0
C745 C 0.76303 0.21594 0.0516 0.0
C746 C 0.71213 0.22115 0.05984 0.0
C747 C 0.71667 0.24562 0.07962 0.0
C748 C 0.74454 0.25497 0.08546 0.0
C749 C 0.76746 0.24022 0.0718 0.0
C750 C 0.67022 0.30556 0.10911 0.0
C751 C 0.64996 0.29295 0.12781 0.0
C752 C 0.69141 0.29004 0.09283 0.0
C753 C 0.69263 0.26151 0.09449 0.0
C754 C 0.67169 0.24863 0.11186 0.0
C755 C 0.65061 0.26421 0.1285 0.0
H756 H 0.32571 0.24255 0.62082 0.0
H757 H 0.32882 0.31815 0.68327 0.0
H758 H 0.31433 0.21729 0.66752 0.0
H759 H 0.31757 0.29279 0.72988 0.0
H760 H 0.31599 0.23401 0.81045 0.0
H761 H 0.33621 0.25515 0.76406 0.0
H762 H 0.26968 0.21864 0.70243 0.0
H763 H 0.24952 0.19769 0.74866 0.0
C764 C 0.32444 0.25371 0.64456 0.0
C765 C 0.32789 0.28239 0.64832 0.0
C766 C 0.31781 0.23926 0.67122 0.0
C767 C 0.31492 0.25313 0.70222 0.0
C768 C 0.31984 0.28157 0.70628 0.0
C769 C 0.3261 0.29609 0.67956 0.0
C770 C 0.30599 0.23026 0.78685 0.0
C771 C 0.28115 0.21438 0.78306 0.0
C772 C 0.31744 0.24243 0.76043 0.0
C773 C 0.3045 0.23849 0.72971 0.0
C774 C 0.28024 0.22179 0.72576 0.0
C775 C 0.26858 0.21 0.75222 0.0
H776 H 0.6797 0.75407 0.45793 0.0
H777 H 0.66844 0.67674 0.40039 0.0
H778 H 0.68943 0.77658 0.40885 0.0
H779 H 0.67684 0.69936 0.3512 0.0
H780 H 0.73391 0.73837 0.27927 0.0
H781 H 0.71654 0.71693 0.32596 0.0
H782 H 0.67307 0.79196 0.35909 0.0
H783 H 0.69213 0.81405 0.31315 0.0
C784 C 0.67873 0.74201 0.43471 0.0
C785 C 0.67375 0.71359 0.43301 0.0
C786 C 0.68414 0.75493 0.40651 0.0
C787 C 0.68429 0.73975 0.37599 0.0
C788 C 0.67767 0.71158 0.3743 0.0
C789 C 0.6727 0.69862 0.40248 0.0
C790 C 0.72079 0.7504 0.29658 0.0
C791 C 0.71478 0.77807 0.29266 0.0
C792 C 0.7104 0.73793 0.32318 0.0
C793 C 0.69336 0.75268 0.34643 0.0
C794 C 0.68645 0.78009 0.34191 0.0
C795 C 0.69708 0.79266 0.31534 0.0
H796 H 0.80166 0.17505 0.90291 0.0
H797 H 0.83373 0.25102 0.95104 0.0
H798 H 0.79195 0.19825 0.85446 0.0
H799 H 0.82389 0.27424 0.90207 0.0
H800 H 0.82448 0.29537 0.79283 0.0
H801 H 0.83851 0.27341 0.84145 0.0
H802 H 0.75612 0.23504 0.84363 0.0
H803 H 0.74176 0.25738 0.79603 0.0
C804 C 0.80683 0.19667 0.90315 0.0
C805 C 0.81818 0.21125 0.93105 0.0
C806 C 0.80115 0.20995 0.87537 0.0
C807 C 0.8069 0.23806 0.87468 0.0
C808 C 0.81932 0.25251 0.902 0.0
C809 C 0.82481 0.23924 0.93003 0.0
C810 C 0.80927 0.28247 0.80389 0.0
C811 C 0.78209 0.27788 0.79023 0.0
C812 C 0.81735 0.26989 0.83164 0.0
C813 C 0.7985 0.25231 0.846 0.0
C814 C 0.77128 0.24806 0.83265 0.0
C815 C 0.76312 0.26079 0.80525 0.0
H816 H 0.29037 0.27266 0.48359 0.0
H817 H 0.24161 0.2881 0.57151 0.0
H818 H 0.25 0.24853 0.45737 0.0
H819 H 0.20119 0.26374 0.54511 0.0
H820 H 0.15279 0.18682 0.49463 0.0
H821 H 0.19074 0.21383 0.5227 0.0
H822 H 0.20006 0.26064 0.43957 0.0
H823 H 0.16227 0.23364 0.41151 0.0
C824 C 0.27105 0.27088 0.49733 0.0
C825 C 0.2692 0.28222 0.52965 0.0
C826 C 0.2479 0.25723 0.48223 0.0
C827 C 0.22251 0.25434 0.49923 0.0
C828 C 0.2206 0.26559 0.53156 0.0
C829 C 0.24367 0.27961 0.54657 0.0
C830 C 0.1629 0.20298 0.48249 0.0
C831 C 0.15467 0.20814 0.45092 0.0
C832 C 0.18442 0.21852 0.4986 0.0
C833 C 0.19833 0.23922 0.48322 0.0
C834 C 0.18978 0.24466 0.45186 0.0
C835 C 0.16805 0.22938 0.43594 0.0
H836 H 0.26545 0.82119 0.03213 0.0
H837 H 0.21418 0.74748 0.02622 0.0
H838 H 0.30286 0.7961 0.00148 0.0
H839 H 0.25157 0.72253 0.99626 0.0
H840 H 0.3097 0.69376 0.91361 0.0
H841 H 0.27341 0.72107 0.94294 0.0
H842 H 0.33754 0.75884 0.00713 0.0
H843 H 0.37399 0.73141 0.97766 0.0
C844 C 0.26218 0.79966 0.02443 0.0
C845 C 0.23679 0.78636 0.03163 0.0
C846 C 0.28366 0.78528 0.00701 0.0
C847 C 0.28011 0.75738 0.99633 0.0
C848 C 0.25479 0.74412 0.00368 0.0
C849 C 0.2334 0.75842 0.02108 0.0
C850 C 0.31606 0.70776 0.9341 0.0
C851 C 0.34468 0.71022 0.94353 0.0
C852 C 0.29527 0.72343 0.95089 0.0
C853 C 0.30257 0.74194 0.97753 0.0
C854 C 0.33128 0.74492 0.98653 0.0
C855 C 0.35214 0.72921 0.96968 0.0
loop_
_geom_bond_atom_site_label_1
_geom_bond_atom_site_label_2
_geom_bond_distance
_geom_bond_site_symmetry_2
_ccdc_geom_bond_type
Fe0 O2 1.918 . S
Fe0 O5 1.997 . S
Fe0 O6 2.002 . S
Fe0 O11 1.976 . S
Fe0 O14 1.996 . S
Fe1 O2 1.918 . S
Fe1 O9 1.997 . S
Fe1 O12 1.996 . S
Fe1 O16 1.976 . S
Fe1 O19 2.002 . S
O2 Fe0 1.918 . S
O2 Fe1 1.918 . S
O2 Fe3 1.918 . S
Fe3 O2 1.918 . S
Fe3 O4 2.002 . S
Fe3 O13 1.976 . S
Fe3 O17 1.996 . S
Fe3 O20 1.997 . S
O4 Fe3 2.002 . S
O4 C21 1.295 . S
O5 Fe0 1.997 . S
O5 C21 1.235 . S
O6 Fe0 2.002 . S
O6 C7 1.295 . S
C7 O6 1.295 . S
C7 O9 1.235 . S
C8 O13 1.287 . S
C8 O14 1.255 . S
O9 Fe1 1.997 . S
O9 C7 1.235 . S
C10 O16 1.287 . S
C10 O17 1.255 . S
O11 Fe0 1.976 . S
O11 C18 1.287 . S
O12 Fe1 1.996 . S
O12 C18 1.255 . S
O13 Fe3 1.976 . S
O13 C8 1.287 . S
O14 Fe0 1.996 . S
O14 C8 1.255 . S
C15 O19 1.295 . S
C15 O20 1.235 . S
O16 Fe1 1.976 . S
O16 C10 1.287 . S
O17 Fe3 1.996 . S
O17 C10 1.255 . S
C18 O11 1.287 . S
C18 O12 1.255 . S
O19 Fe1 2.002 . S
O19 C15 1.295 . S
O20 Fe3 1.997 . S
O20 C15 1.235 . S
C21 O4 1.295 . S
C21 O5 1.235 . S
Fe22 O24 1.918 . S
Fe22 O27 1.997 . S
Fe22 O28 2.002 . S
Fe22 O33 1.976 . S
Fe22 O36 1.996 . S
Fe23 O24 1.918 . S
Fe23 O31 1.997 . S
Fe23 O34 1.996 . S
Fe23 O38 1.976 . S
Fe23 O41 2.002 . S
O24 Fe22 1.918 . S
O24 Fe23 1.918 . S
O24 Fe25 1.918 . S
Fe25 O24 1.918 . S
Fe25 O26 2.002 . S
Fe25 O35 1.976 . S
Fe25 O39 1.996 . S
Fe25 O42 1.997 . S
O26 Fe25 2.002 . S
O26 C43 1.295 . S
O27 Fe22 1.997 . S
O27 C43 1.235 . S
O28 Fe22 2.002 . S
O28 C29 1.295 . S
C29 O28 1.295 . S
C29 O31 1.235 . S
C30 O35 1.287 . S
C30 O36 1.255 . S
O31 Fe23 1.997 . S
O31 C29 1.235 . S
C32 O38 1.287 . S
C32 O39 1.255 . S
O33 Fe22 1.976 . S
O33 C40 1.287 . S
O34 Fe23 1.996 . S
O34 C40 1.255 . S
O35 Fe25 1.976 . S
O35 C30 1.287 . S
O36 Fe22 1.996 . S
O36 C30 1.255 . S
C37 O41 1.295 . S
C37 O42 1.235 . S
O38 Fe23 1.976 . S
O38 C32 1.287 . S
O39 Fe25 1.996 . S
O39 C32 1.255 . S
C40 O33 1.287 . S
C40 O34 1.255 . S
O41 Fe23 2.002 . S
O41 C37 1.295 . S
O42 Fe25 1.997 . S
O42 C37 1.235 . S
C43 O26 1.295 . S
C43 O27 1.235 . S
Fe44 O46 1.918 . S
Fe44 O49 1.997 1_554 S
Fe44 O50 2.002 . S
Fe44 O55 1.976 . S
Fe44 O58 1.996 . S
Fe45 O46 1.918 . S
Fe45 O53 1.997 . S
Fe45 O56 1.996 . S
Fe45 O60 1.976 . S
Fe45 O63 2.002 1_554 S
O46 Fe44 1.918 . S
O46 Fe45 1.918 . S
O46 Fe47 1.913 1_554 S
Fe47 O46 1.913 1_556 S
Fe47 O48 2.012 . S
Fe47 O57 1.968 1_556 S
Fe47 O61 1.987 1_556 S
Fe47 O64 2.005 . S
O48 Fe47 2.012 . S
O48 C65 1.295 . S
O49 Fe44 1.997 1_556 S
O49 C65 1.235 . S
O50 Fe44 2.002 . S
O50 C51 1.295 1_554 S
C51 O50 1.295 1_556 S
C51 O53 1.235 1_556 S
C52 O57 1.287 . S
C52 O58 1.255 . S
O53 Fe45 1.997 . S
O53 C51 1.235 1_554 S
C54 O60 1.287 . S
C54 O61 1.255 . S
O55 Fe44 1.976 . S
O55 C62 1.287 . S
O56 Fe45 1.996 . S
O56 C62 1.255 . S
O57 Fe47 1.968 1_554 S
O57 C52 1.287 . S
O58 Fe44 1.996 . S
O58 C52 1.255 . S
C59 O63 1.295 . S
C59 O64 1.235 . S
O60 Fe45 1.976 . S
O60 C54 1.287 . S
O61 Fe47 1.987 1_554 S
O61 C54 1.255 . S
C62 O55 1.287 . S
C62 O56 1.255 . S
O63 Fe45 2.002 1_556 S
O63 C59 1.295 . S
O64 Fe47 2.005 . S
O64 C59 1.235 . S
C65 O48 1.295 . S
C65 O49 1.235 . S
Fe66 O68 1.918 . S
Fe66 O71 1.997 . S
Fe66 O72 2.002 . S
Fe66 O77 1.976 . S
Fe66 O80 1.996 . S
Fe67 O68 1.918 . S
Fe67 O75 1.997 . S
Fe67 O78 1.996 . S
Fe67 O82 1.976 . S
Fe67 O85 2.002 . S
O68 Fe66 1.918 . S
O68 Fe67 1.918 . S
O68 Fe69 1.918 . S
Fe69 O68 1.918 . S
Fe69 O70 2.002 . S
Fe69 O79 1.976 . S
Fe69 O83 1.996 . S
Fe69 O86 1.997 . S
O70 Fe69 2.002 . S
O70 C87 1.295 . S
O71 Fe66 1.997 . S
O71 C87 1.235 . S
O72 Fe66 2.002 . S
O72 C73 1.295 . S
C73 O72 1.295 . S
C73 O75 1.235 . S
C74 O79 1.287 . S
C74 O80 1.255 . S
O75 Fe67 1.997 . S
O75 C73 1.235 . S
C76 O82 1.287 . S
C76 O83 1.255 . S
O77 Fe66 1.976 . S
O77 C84 1.287 . S
O78 Fe67 1.996 . S
O78 C84 1.255 . S
O79 Fe69 1.976 . S
O79 C74 1.287 . S
O80 Fe66 1.996 . S
O80 C74 1.255 . S
C81 O85 1.295 . S
C81 O86 1.235 . S
O82 Fe67 1.976 . S
O82 C76 1.287 . S
O83 Fe69 1.996 . S
O83 C76 1.255 . S
C84 O77 1.287 . S
C84 O78 1.255 . S
O85 Fe67 2.002 . S
O85 C81 1.295 . S
O86 Fe69 1.997 . S
O86 C81 1.235 . S
C87 O70 1.295 . S
C87 O71 1.235 . S
C88 C89 1.384 . S
C88 H101 0.947 . S
C88 C123 1.382 1_655 S
C89 C88 1.384 . S
C89 C90 1.378 . S
C90 C89 1.378 . S
C90 C91 1.378 1_655 S
C90 H102 0.952 . S
C91 C90 1.378 1_455 S
C91 H103 0.950 . S
C91 C122 1.383 . S
H92 C111 0.947 . S
H93 C112 0.946 . S
H94 C114 0.953 . S
H95 C115 0.945 . S
H96 C117 0.952 . S
H97 C118 0.949 . S
H98 C120 0.950 . S
H99 C121 0.948 . S
H100 C123 0.951 . S
H101 C88 0.947 . S
H102 C90 0.952 . S
H103 C91 0.950 . S
N104 C107 1.382 . S
N104 C109 1.363 . S
N105 C107 1.371 . S
N105 C108 1.372 . S
N106 C108 1.361 . S
N106 C109 1.377 . S
C107 N104 1.382 . S
C107 N105 1.371 . S
C107 C110 1.480 . S
C108 N105 1.372 . S
C108 N106 1.361 . S
C108 C116 1.457 . S
C109 N104 1.363 . S
C109 N106 1.377 . S
C109 C122 1.479 . S
C110 C107 1.480 . S
C110 C111 1.383 . S
C110 C115 1.385 . S
C111 H92 0.947 . S
C111 C110 1.383 . S
C111 C112 1.388 . S
C112 H93 0.946 . S
C112 C111 1.388 . S
C112 C113 1.384 . S
C113 C112 1.384 . S
C113 C114 1.377 . S
C114 H94 0.953 . S
C114 C113 1.377 . S
C114 C115 1.369 . S
C115 H95 0.945 . S
C115 C110 1.385 . S
C115 C114 1.369 . S
C116 C108 1.457 . S
C116 C117 1.372 . S
C116 C121 1.364 . S
C117 H96 0.952 . S
C117 C116 1.372 . S
C117 C118 1.389 . S
C118 H97 0.949 . S
C118 C117 1.389 . S
C118 C119 1.387 . S
C119 C118 1.387 . S
C119 C120 1.372 . S
C120 H98 0.950 . S
C120 C119 1.372 . S
C120 C121 1.379 . S
C121 H99 0.948 . S
C121 C116 1.364 . S
C121 C120 1.379 . S
C122 C91 1.383 . S
C122 C109 1.479 . S
C122 C123 1.398 . S
C123 C88 1.382 1_455 S
C123 H100 0.951 . S
C123 C122 1.398 . S
C124 C125 1.384 . S
C124 H137 0.947 . S
C124 C159 1.382 . S
C125 C124 1.384 . S
C125 C126 1.378 . S
C126 C125 1.378 . S
C126 C127 1.378 . S
C126 H138 0.952 . S
C127 C126 1.378 . S
C127 H139 0.950 . S
C127 C158 1.383 . S
H128 C147 0.947 . S
H129 C148 0.946 . S
H130 C150 0.953 . S
H131 C151 0.945 . S
H132 C153 0.952 . S
H133 C154 0.949 . S
H134 C156 0.950 . S
H135 C157 0.948 . S
H136 C159 0.951 . S
H137 C124 0.947 . S
H138 C126 0.952 . S
H139 C127 0.950 . S
N140 C143 1.382 . S
N140 C145 1.363 . S
N141 C143 1.371 . S
N141 C144 1.372 . S
N142 C144 1.361 . S
N142 C145 1.377 . S
C143 N140 1.382 . S
C143 N141 1.371 . S
C143 C146 1.480 . S
C144 N141 1.372 . S
C144 N142 1.361 . S
C144 C152 1.457 . S
C145 N140 1.363 . S
C145 N142 1.377 . S
C145 C158 1.479 . S
C146 C143 1.480 . S
C146 C147 1.383 . S
C146 C151 1.385 . S
C147 H128 0.947 . S
C147 C146 1.383 . S
C147 C148 1.388 . S
C148 H129 0.946 . S
C148 C147 1.388 . S
C148 C149 1.384 . S
C149 C148 1.384 . S
C149 C150 1.377 . S
C150 H130 0.953 . S
C150 C149 1.377 . S
C150 C151 1.369 . S
C151 H131 0.945 . S
C151 C146 1.385 . S
C151 C150 1.369 . S
C152 C144 1.457 . S
C152 C153 1.372 . S
C152 C157 1.364 . S
C153 H132 0.952 . S
C153 C152 1.372 . S
C153 C154 1.389 . S
C154 H133 0.949 . S
C154 C153 1.389 . S
C154 C155 1.387 . S
C155 C154 1.387 . S
C155 C156 1.372 . S
C156 H134 0.950 . S
C156 C155 1.372 . S
C156 C157 1.379 . S
C157 H135 0.948 . S
C157 C152 1.364 . S
C157 C156 1.379 . S
C158 C127 1.383 . S
C158 C145 1.479 . S
C158 C159 1.398 . S
C159 C124 1.382 . S
C159 H136 0.951 . S
C159 C158 1.398 . S
C160 C161 1.384 . S
C160 H173 0.947 . S
C160 C195 1.382 . S
C161 C160 1.384 . S
C161 C162 1.378 . S
C162 C161 1.378 . S
C162 C163 1.378 . S
C162 H174 0.952 . S
C163 C162 1.378 . S
C163 H175 0.950 . S
C163 C194 1.383 . S
H164 C183 0.947 . S
H165 C184 0.946 . S
H166 C186 0.953 . S
H167 C187 0.945 . S
H168 C189 0.952 . S
H169 C190 0.949 . S
H170 C192 0.950 . S
H171 C193 0.948 . S
H172 C195 0.951 . S
H173 C160 0.947 . S
H174 C162 0.952 . S
H175 C163 0.950 . S
N176 C179 1.382 . S
N176 C181 1.363 . S
N177 C179 1.371 . S
N177 C180 1.372 . S
N178 C180 1.361 . S
N178 C181 1.377 . S
C179 N176 1.382 . S
C179 N177 1.371 . S
C179 C182 1.480 . S
C180 N177 1.372 . S
C180 N178 1.361 . S
C180 C188 1.457 . S
C181 N176 1.363 . S
C181 N178 1.377 . S
C181 C194 1.479 . S
C182 C179 1.480 . S
C182 C183 1.383 . S
C182 C187 1.385 . S
C183 H164 0.947 . S
C183 C182 1.383 . S
C183 C184 1.388 . S
C184 H165 0.946 . S
C184 C183 1.388 . S
C184 C185 1.384 . S
C185 C184 1.384 . S
C185 C186 1.377 . S
C186 H166 0.953 . S
C186 C185 1.377 . S
C186 C187 1.369 . S
C187 H167 0.945 . S
C187 C182 1.385 . S
C187 C186 1.369 . S
C188 C180 1.457 . S
C188 C189 1.372 . S
C188 C193 1.364 . S
C189 H168 0.952 . S
C189 C188 1.372 . S
C189 C190 1.389 . S
C190 H169 0.949 . S
C190 C189 1.389 . S
C190 C191 1.387 . S
C191 C190 1.387 . S
C191 C192 1.372 . S
C192 H170 0.950 . S
C192 C191 1.372 . S
C192 C193 1.379 . S
C193 H171 0.948 . S
C193 C188 1.364 . S
C193 C192 1.379 . S
C194 C163 1.383 . S
C194 C181 1.479 . S
C194 C195 1.398 . S
C195 C160 1.382 . S
C195 H172 0.951 . S
C195 C194 1.398 . S
C196 C197 1.384 . S
C196 H209 0.947 . S
C196 C231 1.382 . S
C197 C196 1.384 . S
C197 C198 1.378 . S
C198 C197 1.378 . S
C198 C199 1.378 . S
C198 H210 0.952 . S
C199 C198 1.378 . S
C199 H211 0.950 . S
C199 C230 1.383 . S
H200 C219 0.947 . S
H201 C220 0.946 . S
H202 C222 0.953 . S
H203 C223 0.945 . S
H204 C225 0.952 . S
H205 C226 0.949 . S
H206 C228 0.950 . S
H207 C229 0.948 . S
H208 C231 0.951 . S
H209 C196 0.947 . S
H210 C198 0.952 . S
H211 C199 0.950 . S
N212 C215 1.382 . S
N212 C217 1.363 . S
N213 C215 1.371 . S
N213 C216 1.372 . S
N214 C216 1.361 . S
N214 C217 1.377 . S
C215 N212 1.382 . S
C215 N213 1.371 . S
C215 C218 1.480 . S
C216 N213 1.372 . S
C216 N214 1.361 . S
C216 C224 1.457 . S
C217 N212 1.363 . S
C217 N214 1.377 . S
C217 C230 1.479 . S
C218 C215 1.480 . S
C218 C219 1.383 . S
C218 C223 1.385 . S
C219 H200 0.947 . S
C219 C218 1.383 . S
C219 C220 1.388 . S
C220 H201 0.946 . S
C220 C219 1.388 . S
C220 C221 1.384 . S
C221 C220 1.384 . S
C221 C222 1.377 . S
C222 H202 0.953 . S
C222 C221 1.377 . S
C222 C223 1.369 . S
C223 H203 0.945 . S
C223 C218 1.385 . S
C223 C222 1.369 . S
C224 C216 1.457 . S
C224 C225 1.372 . S
C224 C229 1.364 . S
C225 H204 0.952 . S
C225 C224 1.372 . S
C225 C226 1.389 . S
C226 H205 0.949 . S
C226 C225 1.389 . S
C226 C227 1.387 . S
C227 C226 1.387 . S
C227 C228 1.372 . S
C228 H206 0.950 . S
C228 C227 1.372 . S
C228 C229 1.379 . S
C229 H207 0.948 . S
C229 C224 1.364 . S
C229 C228 1.379 . S
C230 C199 1.383 . S
C230 C217 1.479 . S
C230 C231 1.398 . S
C231 C196 1.382 . S
C231 H208 0.951 . S
C231 C230 1.398 . S
C232 C233 1.384 . S
C232 H245 0.947 . S
C232 C267 1.382 . S
C233 C232 1.384 . S
C233 C234 1.378 . S
C234 C233 1.378 . S
C234 C235 1.378 . S
C234 H246 0.952 . S
C235 C234 1.378 . S
C235 H247 0.950 . S
C235 C266 1.383 . S
H236 C255 0.947 . S
H237 C256 0.946 . S
H238 C258 0.953 . S
H239 C259 0.945 . S
H240 C261 0.952 . S
H241 C262 0.949 . S
H242 C264 0.950 . S
H243 C265 0.948 . S
H244 C267 0.951 . S
H245 C232 0.947 . S
H246 C234 0.952 . S
H247 C235 0.950 . S
N248 C251 1.382 . S
N248 C253 1.363 . S
N249 C251 1.371 . S
N249 C252 1.372 . S
N250 C252 1.361 . S
N250 C253 1.377 . S
C251 N248 1.382 . S
C251 N249 1.371 . S
C251 C254 1.480 . S
C252 N249 1.372 . S
C252 N250 1.361 . S
C252 C260 1.457 . S
C253 N248 1.363 . S
C253 N250 1.377 . S
C253 C266 1.479 . S
C254 C251 1.480 . S
C254 C255 1.383 . S
C254 C259 1.385 . S
C255 H236 0.947 . S
C255 C254 1.383 . S
C255 C256 1.388 . S
C256 H237 0.946 . S
C256 C255 1.388 . S
C256 C257 1.384 . S
C257 C256 1.384 . S
C257 C258 1.377 . S
C258 H238 0.953 . S
C258 C257 1.377 . S
C258 C259 1.369 . S
C259 H239 0.945 . S
C259 C254 1.385 . S
C259 C258 1.369 . S
C260 C252 1.457 . S
C260 C261 1.372 . S
C260 C265 1.364 . S
C261 H240 0.952 . S
C261 C260 1.372 . S
C261 C262 1.389 . S
C262 H241 0.949 . S
C262 C261 1.389 . S
C262 C263 1.387 . S
C263 C262 1.387 . S
C263 C264 1.372 . S
C264 H242 0.950 . S
C264 C263 1.372 . S
C264 C265 1.379 . S
C265 H243 0.948 . S
C265 C260 1.364 . S
C265 C264 1.379 . S
C266 C235 1.383 . S
C266 C253 1.479 . S
C266 C267 1.398 . S
C267 C232 1.382 . S
C267 H244 0.951 . S
C267 C266 1.398 . S
C268 C269 1.384 . S
C268 H281 0.947 . S
C268 C303 1.382 . S
C269 C268 1.384 . S
C269 C270 1.378 . S
C270 C269 1.378 . S
C270 C271 1.378 . S
C270 H282 0.952 . S
C271 C270 1.378 . S
C271 H283 0.950 . S
C271 C302 1.383 . S
H272 C291 0.947 . S
H273 C292 0.946 . S
H274 C294 0.953 . S
H275 C295 0.945 . S
H276 C297 0.952 . S
H277 C298 0.949 . S
H278 C300 0.950 . S
H279 C301 0.948 . S
H280 C303 0.951 . S
H281 C268 0.947 . S
H282 C270 0.952 . S
H283 C271 0.950 . S
N284 C287 1.382 . S
N284 C289 1.363 . S
N285 C287 1.371 . S
N285 C288 1.372 . S
N286 C288 1.361 . S
N286 C289 1.377 . S
C287 N284 1.382 . S
C287 N285 1.371 . S
C287 C290 1.480 . S
C288 N285 1.372 . S
C288 N286 1.361 . S
C288 C296 1.457 . S
C289 N284 1.363 . S
C289 N286 1.377 . S
C289 C302 1.479 . S
C290 C287 1.480 . S
C290 C291 1.383 . S
C290 C295 1.385 . S
C291 H272 0.947 . S
C291 C290 1.383 . S
C291 C292 1.388 . S
C292 H273 0.946 . S
C292 C291 1.388 . S
C292 C293 1.384 . S
C293 C292 1.384 . S
C293 C294 1.377 . S
C294 H274 0.953 . S
C294 C293 1.377 . S
C294 C295 1.369 . S
C295 H275 0.945 . S
C295 C290 1.385 . S
C295 C294 1.369 . S
C296 C288 1.457 . S
C296 C297 1.372 . S
C296 C301 1.364 . S
C297 H276 0.952 . S
C297 C296 1.372 . S
C297 C298 1.389 . S
C298 H277 0.949 . S
C298 C297 1.389 . S
C298 C299 1.387 . S
C299 C298 1.387 . S
C299 C300 1.372 . S
C300 H278 0.950 . S
C300 C299 1.372 . S
C300 C301 1.379 . S
C301 H279 0.948 . S
C301 C296 1.364 . S
C301 C300 1.379 . S
C302 C271 1.383 . S
C302 C289 1.479 . S
C302 C303 1.398 . S
C303 C268 1.382 . S
C303 H280 0.951 . S
C303 C302 1.398 . S
C304 C305 1.384 . S
C304 H317 0.947 . S
C304 C339 1.382 . S
C305 C304 1.384 . S
C305 C306 1.378 . S
C306 C305 1.378 . S
C306 C307 1.378 . S
C306 H318 0.952 . S
C307 C306 1.378 . S
C307 H319 0.950 . S
C307 C338 1.383 . S
H308 C327 0.947 . S
H309 C328 0.946 . S
H310 C330 0.953 . S
H311 C331 0.945 . S
H312 C333 0.952 . S
H313 C334 0.949 . S
H314 C336 0.950 . S
H315 C337 0.948 . S
H316 C339 0.951 . S
H317 C304 0.947 . S
H318 C306 0.952 . S
H319 C307 0.950 . S
N320 C323 1.382 . S
N320 C325 1.363 . S
N321 C323 1.371 . S
N321 C324 1.372 . S
N322 C324 1.361 . S
N322 C325 1.377 . S
C323 N320 1.382 . S
C323 N321 1.371 . S
C323 C326 1.480 . S
C324 N321 1.372 . S
C324 N322 1.361 . S
C324 C332 1.457 . S
C325 N320 1.363 . S
C325 N322 1.377 . S
C325 C338 1.479 . S
C326 C323 1.480 . S
C326 C327 1.383 . S
C326 C331 1.385 . S
C327 H308 0.947 . S
C327 C326 1.383 . S
C327 C328 1.388 . S
C328 H309 0.946 . S
C328 C327 1.388 . S
C328 C329 1.384 . S
C329 C328 1.384 . S
C329 C330 1.377 . S
C330 H310 0.953 . S
C330 C329 1.377 . S
C330 C331 1.369 . S
C331 H311 0.945 . S
C331 C326 1.385 . S
C331 C330 1.369 . S
C332 C324 1.457 . S
C332 C333 1.372 . S
C332 C337 1.364 . S
C333 H312 0.952 . S
C333 C332 1.372 . S
C333 C334 1.389 . S
C334 H313 0.949 . S
C334 C333 1.389 . S
C334 C335 1.387 . S
C335 C334 1.387 . S
C335 C336 1.372 . S
C336 H314 0.950 . S
C336 C335 1.372 . S
C336 C337 1.379 . S
C337 H315 0.948 . S
C337 C332 1.364 . S
C337 C336 1.379 . S
C338 C307 1.383 . S
C338 C325 1.479 . S
C338 C339 1.398 . S
C339 C304 1.382 . S
C339 H316 0.951 . S
C339 C338 1.398 . S
C340 C341 1.384 . S
C340 H353 0.947 . S
C340 C375 1.382 . S
C341 C340 1.384 . S
C341 C342 1.378 . S
C342 C341 1.378 . S
C342 C343 1.378 . S
C342 H354 0.952 . S
C343 C342 1.378 . S
C343 H355 0.950 . S
C343 C374 1.383 . S
H344 C363 0.947 . S
H345 C364 0.946 . S
H346 C366 0.953 . S
H347 C367 0.945 . S
H348 C369 0.952 . S
H349 C370 0.949 . S
H350 C372 0.950 . S
H351 C373 0.948 . S
H352 C375 0.951 . S
H353 C340 0.947 . S
H354 C342 0.952 . S
H355 C343 0.950 . S
N356 C359 1.382 . S
N356 C361 1.363 . S
N357 C359 1.371 . S
N357 C360 1.372 . S
N358 C360 1.361 . S
N358 C361 1.377 . S
C359 N356 1.382 . S
C359 N357 1.371 . S
C359 C362 1.480 . S
C360 N357 1.372 . S
C360 N358 1.361 . S
C360 C368 1.457 . S
C361 N356 1.363 . S
C361 N358 1.377 . S
C361 C374 1.479 . S
C362 C359 1.480 . S
C362 C363 1.383 . S
C362 C367 1.385 . S
C363 H344 0.947 . S
C363 C362 1.383 . S
C363 C364 1.388 . S
C364 H345 0.946 . S
C364 C363 1.388 . S
C364 C365 1.384 . S
C365 C364 1.384 . S
C365 C366 1.377 . S
C366 H346 0.953 . S
C366 C365 1.377 . S
C366 C367 1.369 . S
C367 H347 0.945 . S
C367 C362 1.385 . S
C367 C366 1.369 . S
C368 C360 1.457 . S
C368 C369 1.372 . S
C368 C373 1.364 . S
C369 H348 0.952 . S
C369 C368 1.372 . S
C369 C370 1.389 1_655 S
C370 H349 0.949 . S
C370 C369 1.389 1_455 S
C370 C371 1.387 . S
C371 C370 1.387 . S
C371 C372 1.372 . S
C372 H350 0.950 . S
C372 C371 1.372 . S
C372 C373 1.379 1_455 S
C373 H351 0.948 . S
C373 C368 1.364 . S
C373 C372 1.379 1_655 S
C374 C343 1.383 . S
C374 C361 1.479 . S
C374 C375 1.398 . S
C375 C340 1.382 . S
C375 H352 0.951 . S
C375 C374 1.398 . S
H376 C384 0.950 . S
H377 C389 0.950 . S
H378 C386 0.950 . S
H379 C388 0.950 . S
H380 C390 0.950 . S
H381 C392 0.950 . S
H382 C394 0.950 . S
H383 C395 0.950 1_545 S
C384 H376 0.950 . S
C384 C385 1.386 . S
C384 C386 1.391 . S
C385 C384 1.386 . S
C385 C389 1.393 . S
C386 H378 0.950 . S
C386 C384 1.391 . S
C386 C387 1.400 . S
C387 C386 1.400 . S
C387 C388 1.398 . S
C387 C393 1.491 . S
C388 H379 0.950 . S
C388 C387 1.398 . S
C388 C389 1.391 . S
C389 H377 0.950 . S
C389 C385 1.393 . S
C389 C388 1.391 . S
C390 H380 0.950 . S
C390 C391 1.372 1_565 S
C390 C392 1.391 . S
C391 C390 1.372 1_545 S
C391 C395 1.386 1_545 S
C392 H381 0.950 . S
C392 C390 1.391 . S
C392 C393 1.400 . S
C393 C387 1.491 . S
C393 C392 1.400 . S
C393 C394 1.398 . S
C394 H382 0.950 . S
C394 C393 1.398 . S
C394 C395 1.391 . S
C395 H383 0.950 1_565 S
C395 C391 1.386 1_565 S
C395 C394 1.391 . S
H396 C404 0.950 . S
H397 C409 0.950 . S
H398 C406 0.950 . S
H399 C408 0.950 . S
H400 C410 0.950 . S
H401 C412 0.950 . S
H402 C414 0.950 . S
H403 C415 0.950 . S
C404 H396 0.950 . S
C404 C405 1.386 . S
C404 C406 1.391 . S
C405 C404 1.386 . S
C405 C409 1.393 . S
C406 H398 0.950 . S
C406 C404 1.391 . S
C406 C407 1.400 . S
C407 C406 1.400 . S
C407 C408 1.398 . S
C407 C413 1.491 . S
C408 H399 0.950 . S
C408 C407 1.398 . S
C408 C409 1.391 . S
C409 H397 0.950 . S
C409 C405 1.393 . S
C409 C408 1.391 . S
C410 H400 0.950 . S
C410 C411 1.386 . S
C410 C412 1.391 . S
C411 C410 1.386 . S
C411 C415 1.393 . S
C412 H401 0.950 . S
C412 C410 1.391 . S
C412 C413 1.400 . S
C413 C407 1.491 . S
C413 C412 1.400 . S
C413 C414 1.398 . S
C414 H402 0.950 . S
C414 C413 1.398 . S
C414 C415 1.391 . S
C415 H403 0.950 . S
C415 C411 1.393 . S
C415 C414 1.391 . S
H416 C424 0.950 . S
H417 C429 0.950 . S
H418 C426 0.950 . S
H419 C428 0.950 . S
H420 C430 0.950 . S
H421 C432 0.931 1_545 S
H422 C434 0.950 . S
H423 C435 0.950 . S
C424 H416 0.950 . S
C424 C425 1.386 . S
C424 C426 1.391 . S
C425 C424 1.386 . S
C425 C429 1.393 . S
C426 H418 0.950 . S
C426 C424 1.391 . S
C426 C427 1.400 . S
C427 C426 1.400 . S
C427 C428 1.398 . S
C427 C433 1.491 . S
C428 H419 0.950 . S
C428 C427 1.398 . S
C428 C429 1.391 . S
C429 H417 0.950 . S
C429 C425 1.393 . S
C429 C428 1.391 . S
C430 H420 0.950 . S
C430 C431 1.386 . S
C430 C432 1.421 . S
C431 C430 1.386 . S
C431 C435 1.393 . S
C432 H421 0.931 1_565 S
C432 C430 1.421 . S
C432 C433 1.390 1_565 S
C433 C427 1.491 . S
C433 C432 1.390 1_545 S
C433 C434 1.398 1_545 S
C434 H422 0.950 . S
C434 C433 1.398 1_565 S
C434 C435 1.391 . S
C435 H423 0.950 . S
C435 C431 1.393 . S
C435 C434 1.391 . S
H436 C444 0.950 . S
H437 C449 0.950 . S
H438 C446 0.950 . S
H439 C448 0.950 . S
H440 C450 0.950 . S
H441 C452 0.950 . S
H442 C454 0.950 . S
H443 C455 0.950 . S
C444 H436 0.950 . S
C444 C445 1.386 . S
C444 C446 1.391 . S
C445 C444 1.386 . S
C445 C449 1.393 . S
C446 H438 0.950 . S
C446 C444 1.391 . S
C446 C447 1.400 . S
C447 C446 1.400 . S
C447 C448 1.398 . S
C447 C453 1.491 . S
C448 H439 0.950 . S
C448 C447 1.398 . S
C448 C449 1.391 . S
C449 H437 0.950 . S
C449 C445 1.393 . S
C449 C448 1.391 . S
C450 H440 0.950 . S
C450 C451 1.386 . S
C450 C452 1.391 . S
C451 C450 1.386 . S
C451 C455 1.393 . S
C452 H441 0.950 . S
C452 C450 1.391 . S
C452 C453 1.400 . S
C453 C447 1.491 . S
C453 C452 1.400 . S
C453 C454 1.398 . S
C454 H442 0.950 . S
C454 C453 1.398 . S
C454 C455 1.391 . S
C455 H443 0.950 . S
C455 C451 1.393 . S
C455 C454 1.391 . S
H456 C464 0.950 . S
H457 C469 0.950 . S
H458 C466 0.950 . S
H459 C468 0.950 . S
H460 C470 0.950 . S
H461 C472 0.950 . S
H462 C474 0.950 . S
H463 C475 0.950 . S
C464 H456 0.950 . S
C464 C465 1.386 . S
C464 C466 1.391 . S
C465 C464 1.386 . S
C465 C469 1.393 . S
C466 H458 0.950 . S
C466 C464 1.391 . S
C466 C467 1.400 . S
C467 C466 1.400 . S
C467 C468 1.398 . S
C467 C473 1.491 . S
C468 H459 0.950 . S
C468 C467 1.398 . S
C468 C469 1.391 . S
C469 H457 0.950 . S
C469 C465 1.393 . S
C469 C468 1.391 . S
C470 H460 0.950 . S
C470 C471 1.386 . S
C470 C472 1.391 . S
C471 C470 1.386 . S
C471 C475 1.393 . S
C472 H461 0.950 . S
C472 C470 1.391 . S
C472 C473 1.400 . S
C473 C467 1.491 . S
C473 C472 1.400 . S
C473 C474 1.398 . S
C474 H462 0.950 . S
C474 C473 1.398 . S
C474 C475 1.391 . S
C475 H463 0.950 . S
C475 C471 1.393 . S
C475 C474 1.391 . S
H476 C484 0.950 . S
H477 C489 0.950 . S
H478 C486 0.950 . S
H479 C488 0.950 1_455 S
H480 C490 0.950 1_554 S
H481 C492 0.950 1_554 S
H482 C494 0.950 . S
H483 C495 0.950 . S
C484 H476 0.950 . S
C484 C485 1.386 . S
C484 C486 1.391 . S
C485 C484 1.386 . S
C485 C489 1.393 1_556 S
C486 H478 0.950 . S
C486 C484 1.391 . S
C486 C487 1.400 . S
C487 C486 1.400 . S
C487 C488 1.398 1_556 S
C487 C493 1.491 1_655 S
C488 H479 0.950 1_655 S
C488 C487 1.398 1_554 S
C488 C489 1.391 . S
C489 H477 0.950 . S
C489 C485 1.393 1_554 S
C489 C488 1.391 . S
C490 H480 0.950 1_556 S
C490 C491 1.386 . S
C490 C492 1.391 . S
C491 C490 1.386 . S
C491 C495 1.393 . S
C492 H481 0.950 1_556 S
C492 C490 1.391 . S
C492 C493 1.400 . S
C493 C487 1.491 1_455 S
C493 C492 1.400 . S
C493 C494 1.398 . S
C494 H482 0.950 . S
C494 C493 1.398 . S
C494 C495 1.391 . S
C495 H483 0.950 . S
C495 C491 1.393 . S
C495 C494 1.391 . S
H496 C504 0.950 . S
H497 C509 0.950 . S
H498 C506 0.950 . S
H499 C508 0.950 . S
H500 C510 0.950 . S
H501 C512 0.950 . S
H502 C514 0.950 . S
H503 C515 0.950 . S
C504 H496 0.950 . S
C504 C505 1.386 . S
C504 C506 1.391 . S
C505 C504 1.386 . S
C505 C509 1.393 . S
C506 H498 0.950 . S
C506 C504 1.391 . S
C506 C507 1.400 . S
C507 C506 1.400 . S
C507 C508 1.398 . S
C507 C513 1.491 . S
C508 H499 0.950 . S
C508 C507 1.398 . S
C508 C509 1.391 . S
C509 H497 0.950 . S
C509 C505 1.393 . S
C509 C508 1.391 . S
C510 H500 0.950 . S
C510 C511 1.386 . S
C510 C512 1.391 . S
C511 C510 1.386 . S
C511 C515 1.393 . S
C512 H501 0.950 . S
C512 C510 1.391 . S
C512 C513 1.400 . S
C513 C507 1.491 . S
C513 C512 1.400 . S
C513 C514 1.398 . S
C514 H502 0.950 . S
C514 C513 1.398 . S
C514 C515 1.391 . S
C515 H503 0.950 . S
C515 C511 1.393 . S
C515 C514 1.391 . S
H516 C524 0.950 . S
H517 C529 0.950 . S
H518 C526 0.950 . S
H519 C528 0.950 . S
H520 C530 0.950 . S
H521 C532 0.950 . S
H522 C534 0.950 . S
H523 C535 0.950 . S
C524 H516 0.950 . S
C524 C525 1.386 . S
C524 C526 1.391 . S
C525 C524 1.386 . S
C525 C529 1.393 . S
C526 H518 0.950 . S
C526 C524 1.391 . S
C526 C527 1.400 . S
C527 C526 1.400 . S
C527 C528 1.398 . S
C527 C533 1.491 . S
C528 H519 0.950 . S
C528 C527 1.398 . S
C528 C529 1.391 . S
C529 H517 0.950 . S
C529 C525 1.393 . S
C529 C528 1.391 . S
C530 H520 0.950 . S
C530 C531 1.386 . S
C530 C532 1.391 . S
C531 C530 1.386 . S
C531 C535 1.393 . S
C532 H521 0.950 . S
C532 C530 1.391 . S
C532 C533 1.400 . S
C533 C527 1.491 . S
C533 C532 1.400 . S
C533 C534 1.398 . S
C534 H522 0.950 . S
C534 C533 1.398 . S
C534 C535 1.391 . S
C535 H523 0.950 . S
C535 C531 1.393 . S
C535 C534 1.391 . S
H536 C544 0.950 . S
H537 C549 0.950 . S
H538 C546 0.950 . S
H539 C548 0.950 . S
H540 C550 0.950 . S
H541 C552 0.950 . S
H542 C554 0.950 . S
H543 C555 0.950 . S
C544 H536 0.950 . S
C544 C545 1.386 . S
C544 C546 1.391 . S
C545 C544 1.386 . S
C545 C549 1.393 . S
C546 H538 0.950 . S
C546 C544 1.391 . S
C546 C547 1.400 . S
C547 C546 1.400 . S
C547 C548 1.398 . S
C547 C553 1.491 . S
C548 H539 0.950 . S
C548 C547 1.398 . S
C548 C549 1.391 . S
C549 H537 0.950 . S
C549 C545 1.393 . S
C549 C548 1.391 . S
C550 H540 0.950 . S
C550 C551 1.386 . S
C550 C552 1.391 1_565 S
C551 C550 1.386 . S
C551 C555 1.393 1_565 S
C552 H541 0.950 . S
C552 C550 1.391 1_545 S
C552 C553 1.400 . S
C553 C547 1.491 . S
C553 C552 1.400 . S
C553 C554 1.398 . S
C554 H542 0.950 . S
C554 C553 1.398 . S
C554 C555 1.391 . S
C555 H543 0.950 . S
C555 C551 1.393 1_545 S
C555 C554 1.391 . S
H556 C564 0.950 . S
H557 C569 0.950 . S
H558 C566 0.950 . S
H559 C568 0.950 . S
H560 C570 0.950 . S
H561 C572 0.950 . S
H562 C574 0.950 . S
H563 C575 0.950 . S
C564 H556 0.950 . S
C564 C565 1.386 . S
C564 C566 1.391 . S
C565 C564 1.386 . S
C565 C569 1.393 . S
C566 H558 0.950 . S
C566 C564 1.391 . S
C566 C567 1.400 . S
C567 C566 1.400 . S
C567 C568 1.398 . S
C567 C573 1.491 . S
C568 H559 0.950 . S
C568 C567 1.398 . S
C568 C569 1.391 . S
C569 H557 0.950 . S
C569 C565 1.393 . S
C569 C568 1.391 . S
C570 H560 0.950 . S
C570 C571 1.386 . S
C570 C572 1.391 . S
C571 C570 1.386 . S
C571 C575 1.393 . S
C572 H561 0.950 . S
C572 C570 1.391 . S
C572 C573 1.400 . S
C573 C567 1.491 . S
C573 C572 1.400 . S
C573 C574 1.398 . S
C574 H562 0.950 . S
C574 C573 1.398 . S
C574 C575 1.391 . S
C575 H563 0.950 . S
C575 C571 1.393 . S
C575 C574 1.391 . S
H576 C584 0.950 . S
H577 C589 0.950 . S
H578 C586 0.950 . S
H579 C588 0.950 . S
H580 C590 0.950 . S
H581 C592 0.950 . S
H582 C594 0.950 1_565 S
H583 C595 0.950 . S
C584 H576 0.950 . S
C584 C585 1.386 1_556 S
C584 C586 1.391 . S
C585 C584 1.386 1_554 S
C585 C589 1.393 . S
C586 H578 0.950 . S
C586 C584 1.391 . S
C586 C587 1.400 1_556 S
C587 C586 1.400 1_554 S
C587 C588 1.398 . S
C587 C593 1.491 . S
C588 H579 0.950 . S
C588 C587 1.398 . S
C588 C589 1.391 . S
C589 H577 0.950 . S
C589 C585 1.393 . S
C589 C588 1.391 . S
C590 H580 0.950 . S
C590 C591 1.386 1_554 S
C590 C592 1.391 . S
C591 C590 1.386 1_556 S
C591 C595 1.393 . S
C592 H581 0.950 . S
C592 C590 1.391 . S
C592 C593 1.400 1_545 S
C593 C587 1.491 . S
C593 C592 1.400 1_565 S
C593 C594 1.398 1_564 S
C594 H582 0.950 1_545 S
C594 C593 1.398 1_546 S
C594 C595 1.391 . S
C595 H583 0.950 . S
C595 C591 1.393 . S
C595 C594 1.391 . S
H596 C604 0.950 . S
H597 C609 0.950 . S
H598 C606 0.950 . S
H599 C608 0.950 . S
H600 C610 0.950 . S
H601 C612 0.950 . S
H602 C614 0.950 . S
H603 C615 0.950 . S
C604 H596 0.950 . S
C604 C605 1.386 . S
C604 C606 1.391 . S
C605 C604 1.386 . S
C605 C609 1.393 . S
C606 H598 0.950 . S
C606 C604 1.391 . S
C606 C607 1.400 . S
C607 C606 1.400 . S
C607 C608 1.398 . S
C607 C613 1.491 . S
C608 H599 0.950 . S
C608 C607 1.398 . S
C608 C609 1.391 . S
C609 H597 0.950 . S
C609 C605 1.393 . S
C609 C608 1.391 . S
C610 H600 0.950 . S
C610 C611 1.386 . S
C610 C612 1.391 . S
C611 C610 1.386 . S
C611 C615 1.393 . S
C612 H601 0.950 . S
C612 C610 1.391 . S
C612 C613 1.400 . S
C613 C607 1.491 . S
C613 C612 1.400 . S
C613 C614 1.398 . S
C614 H602 0.950 . S
C614 C613 1.398 . S
C614 C615 1.391 . S
C615 H603 0.950 . S
C615 C611 1.393 . S
C615 C614 1.391 . S
H616 C624 0.950 . S
H617 C629 0.950 . S
H618 C626 0.950 . S
H619 C628 0.950 . S
H620 C630 0.950 . S
H621 C632 0.950 . S
H622 C634 0.950 . S
H623 C635 0.950 . S
C624 H616 0.950 . S
C624 C625 1.386 . S
C624 C626 1.391 . S
C625 C624 1.386 . S
C625 C629 1.393 . S
C626 H618 0.950 . S
C626 C624 1.391 . S
C626 C627 1.400 . S
C627 C626 1.400 . S
C627 C628 1.398 . S
C627 C633 1.491 . S
C628 H619 0.950 . S
C628 C627 1.398 . S
C628 C629 1.391 . S
C629 H617 0.950 . S
C629 C625 1.393 . S
C629 C628 1.391 . S
C630 H620 0.950 . S
C630 C631 1.386 . S
C630 C632 1.391 . S
C631 C630 1.386 . S
C631 C635 1.393 . S
C632 H621 0.950 . S
C632 C630 1.391 . S
C632 C633 1.400 . S
C633 C627 1.491 . S
C633 C632 1.400 . S
C633 C634 1.398 . S
C634 H622 0.950 . S
C634 C633 1.398 . S
C634 C635 1.391 . S
C635 H623 0.950 . S
C635 C631 1.393 . S
C635 C634 1.391 . S
H636 C644 0.950 . S
H637 C649 0.950 . S
H638 C646 0.950 . S
H639 C648 0.950 . S
H640 C650 0.950 . S
H641 C652 0.950 . S
H642 C654 0.950 . S
H643 C655 0.950 . S
C644 H636 0.950 . S
C644 C645 1.386 . S
C644 C646 1.391 . S
C645 C644 1.386 . S
C645 C649 1.393 . S
C646 H638 0.950 . S
C646 C644 1.391 . S
C646 C647 1.400 . S
C647 C646 1.400 . S
C647 C648 1.398 . S
C647 C653 1.491 1_455 S
C648 H639 0.950 . S
C648 C647 1.398 . S
C648 C649 1.391 . S
C649 H637 0.950 . S
C649 C645 1.393 . S
C649 C648 1.391 . S
C650 H640 0.950 . S
C650 C651 1.386 . S
C650 C652 1.391 . S
C651 C650 1.386 . S
C651 C655 1.393 . S
C652 H641 0.950 . S
C652 C650 1.391 . S
C652 C653 1.400 . S
C653 C647 1.491 1_655 S
C653 C652 1.400 . S
C653 C654 1.398 . S
C654 H642 0.950 . S
C654 C653 1.398 . S
C654 C655 1.391 . S
C655 H643 0.950 . S
C655 C651 1.393 . S
C655 C654 1.391 . S
H656 C664 0.950 . S
H657 C669 0.950 . S
H658 C666 0.950 . S
H659 C668 0.950 . S
H660 C670 0.950 . S
H661 C672 0.950 . S
H662 C674 0.950 . S
H663 C675 0.950 . S
C664 H656 0.950 . S
C664 C665 1.386 . S
C664 C666 1.391 . S
C665 C664 1.386 . S
C665 C669 1.393 . S
C666 H658 0.950 . S
C666 C664 1.391 . S
C666 C667 1.400 . S
C667 C666 1.400 . S
C667 C668 1.398 . S
C667 C673 1.491 . S
C668 H659 0.950 . S
C668 C667 1.398 . S
C668 C669 1.391 . S
C669 H657 0.950 . S
C669 C665 1.393 . S
C669 C668 1.391 . S
C670 H660 0.950 . S
C670 C671 1.386 . S
C670 C672 1.391 . S
C671 C670 1.386 . S
C671 C675 1.393 . S
C672 H661 0.950 . S
C672 C670 1.391 . S
C672 C673 1.400 . S
C673 C667 1.491 . S
C673 C672 1.400 . S
C673 C674 1.398 . S
C674 H662 0.950 . S
C674 C673 1.398 . S
C674 C675 1.391 . S
C675 H663 0.950 . S
C675 C671 1.393 . S
C675 C674 1.391 . S
H676 C684 0.950 . S
H677 C689 0.950 . S
H678 C686 0.950 . S
H679 C688 0.950 . S
H680 C690 0.950 . S
H681 C692 0.950 . S
H682 C694 0.950 . S
H683 C695 0.950 . S
C684 H676 0.950 . S
C684 C685 1.386 . S
C684 C686 1.391 . S
C685 C684 1.386 . S
C685 C689 1.393 . S
C686 H678 0.950 . S
C686 C684 1.391 . S
C686 C687 1.400 . S
C687 C686 1.400 . S
C687 C688 1.398 . S
C687 C693 1.491 . S
C688 H679 0.950 . S
C688 C687 1.398 . S
C688 C689 1.391 . S
C689 H677 0.950 . S
C689 C685 1.393 . S
C689 C688 1.391 . S
C690 H680 0.950 . S
C690 C691 1.386 . S
C690 C692 1.391 . S
C691 C690 1.386 . S
C691 C695 1.393 . S
C692 H681 0.950 . S
C692 C690 1.391 . S
C692 C693 1.400 . S
C693 C687 1.491 . S
C693 C692 1.400 . S
C693 C694 1.398 . S
C694 H682 0.950 . S
C694 C693 1.398 . S
C694 C695 1.391 . S
C695 H683 0.950 . S
C695 C691 1.393 . S
C695 C694 1.391 . S
H696 C704 0.950 . S
H697 C709 0.950 . S
H698 C706 0.950 . S
H699 C708 0.950 . S
H700 C710 0.950 . S
H701 C712 0.950 . S
H702 C714 0.950 . S
H703 C715 0.950 . S
C704 H696 0.950 . S
C704 C705 1.386 . S
C704 C706 1.391 . S
C705 C704 1.386 . S
C705 C709 1.393 . S
C706 H698 0.950 . S
C706 C704 1.391 . S
C706 C707 1.400 . S
C707 C706 1.400 . S
C707 C708 1.398 . S
C707 C713 1.491 . S
C708 H699 0.950 . S
C708 C707 1.398 . S
C708 C709 1.391 . S
C709 H697 0.950 . S
C709 C705 1.393 . S
C709 C708 1.391 . S
C710 H700 0.950 . S
C710 C711 1.386 . S
C710 C712 1.391 . S
C711 C710 1.386 . S
C711 C715 1.393 . S
C712 H701 0.950 . S
C712 C710 1.391 . S
C712 C713 1.400 . S
C713 C707 1.491 . S
C713 C712 1.400 . S
C713 C714 1.398 . S
C714 H702 0.950 . S
C714 C713 1.398 . S
C714 C715 1.391 . S
C715 H703 0.950 . S
C715 C711 1.393 . S
C715 C714 1.391 . S
H716 C724 0.950 . S
H717 C729 0.950 . S
H718 C726 0.950 . S
H719 C728 0.950 . S
H720 C730 0.950 . S
H721 C732 0.950 . S
H722 C734 0.950 . S
H723 C735 0.950 . S
C724 H716 0.950 . S
C724 C725 1.386 . S
C724 C726 1.391 . S
C725 C724 1.386 . S
C725 C729 1.393 . S
C726 H718 0.950 . S
C726 C724 1.391 . S
C726 C727 1.400 . S
C727 C726 1.400 . S
C727 C728 1.398 . S
C727 C733 1.491 . S
C728 H719 0.950 . S
C728 C727 1.398 . S
C728 C729 1.391 . S
C729 H717 0.950 . S
C729 C725 1.393 . S
C729 C728 1.391 . S
C730 H720 0.950 . S
C730 C731 1.386 . S
C730 C732 1.391 . S
C731 C730 1.386 . S
C731 C735 1.393 . S
C732 H721 0.950 . S
C732 C730 1.391 . S
C732 C733 1.400 . S
C733 C727 1.491 . S
C733 C732 1.400 . S
C733 C734 1.398 . S
C734 H722 0.950 . S
C734 C733 1.398 . S
C734 C735 1.391 . S
C735 H723 0.950 . S
C735 C731 1.393 . S
C735 C734 1.391 . S
H736 C744 0.950 . S
H737 C749 0.950 . S
H738 C746 0.950 . S
H739 C748 0.950 . S
H740 C750 0.950 . S
H741 C752 0.950 . S
H742 C754 0.950 . S
H743 C755 0.950 . S
C744 H736 0.950 . S
C744 C745 1.386 . S
C744 C746 1.391 . S
C745 C744 1.386 . S
C745 C749 1.393 . S
C746 H738 0.950 . S
C746 C744 1.391 . S
C746 C747 1.400 . S
C747 C746 1.400 . S
C747 C748 1.398 . S
C747 C753 1.491 . S
C748 H739 0.950 . S
C748 C747 1.398 . S
C748 C749 1.391 . S
C749 H737 0.950 . S
C749 C745 1.393 . S
C749 C748 1.391 . S
C750 H740 0.950 . S
C750 C751 1.386 . S
C750 C752 1.391 . S
C751 C750 1.386 . S
C751 C755 1.393 . S
C752 H741 0.950 . S
C752 C750 1.391 . S
C752 C753 1.400 . S
C753 C747 1.491 . S
C753 C752 1.400 . S
C753 C754 1.398 . S
C754 H742 0.950 . S
C754 C753 1.398 . S
C754 C755 1.391 . S
C755 H743 0.950 . S
C755 C751 1.393 . S
C755 C754 1.391 . S
H756 C764 0.950 . S
H757 C769 0.950 . S
H758 C766 0.950 . S
H759 C768 0.950 . S
H760 C770 0.950 . S
H761 C772 0.950 . S
H762 C774 0.950 . S
H763 C775 0.950 . S
C764 H756 0.950 . S
C764 C765 1.386 . S
C764 C766 1.391 . S
C765 C764 1.386 . S
C765 C769 1.393 . S
C766 H758 0.950 . S
C766 C764 1.391 . S
C766 C767 1.400 . S
C767 C766 1.400 . S
C767 C768 1.398 . S
C767 C773 1.491 . S
C768 H759 0.950 . S
C768 C767 1.398 . S
C768 C769 1.391 . S
C769 H757 0.950 . S
C769 C765 1.393 . S
C769 C768 1.391 . S
C770 H760 0.950 . S
C770 C771 1.386 . S
C770 C772 1.391 . S
C771 C770 1.386 . S
C771 C775 1.393 . S
C772 H761 0.950 . S
C772 C770 1.391 . S
C772 C773 1.400 . S
C773 C767 1.491 . S
C773 C772 1.400 . S
C773 C774 1.398 . S
C774 H762 0.950 . S
C774 C773 1.398 . S
C774 C775 1.391 . S
C775 H763 0.950 . S
C775 C771 1.393 . S
C775 C774 1.391 . S
H776 C784 0.950 . S
H777 C789 0.950 . S
H778 C786 0.950 . S
H779 C788 0.950 . S
H780 C790 0.950 . S
H781 C792 0.950 . S
H782 C794 0.950 . S
H783 C795 0.950 . S
C784 H776 0.950 . S
C784 C785 1.386 . S
C784 C786 1.391 . S
C785 C784 1.386 . S
C785 C789 1.393 . S
C786 H778 0.950 . S
C786 C784 1.391 . S
C786 C787 1.400 . S
C787 C786 1.400 . S
C787 C788 1.398 . S
C787 C793 1.491 . S
C788 H779 0.950 . S
C788 C787 1.398 . S
C788 C789 1.391 . S
C789 H777 0.950 . S
C789 C785 1.393 . S
C789 C788 1.391 . S
C790 H780 0.950 . S
C790 C791 1.386 . S
C790 C792 1.391 . S
C791 C790 1.386 . S
C791 C795 1.393 . S
C792 H781 0.950 . S
C792 C790 1.391 . S
C792 C793 1.400 . S
C793 C787 1.491 . S
C793 C792 1.400 . S
C793 C794 1.398 . S
C794 H782 0.950 . S
C794 C793 1.398 . S
C794 C795 1.391 . S
C795 H783 0.950 . S
C795 C791 1.393 . S
C795 C794 1.391 . S
H796 C804 0.950 . S
H797 C809 0.950 . S
H798 C806 0.950 . S
H799 C808 0.950 . S
H800 C810 0.950 . S
H801 C812 0.950 . S
H802 C814 0.950 . S
H803 C815 0.950 . S
C804 H796 0.950 . S
C804 C805 1.386 . S
C804 C806 1.391 . S
C805 C804 1.386 . S
C805 C809 1.393 . S
C806 H798 0.950 . S
C806 C804 1.391 . S
C806 C807 1.400 . S
C807 C806 1.400 . S
C807 C808 1.398 . S
C807 C813 1.491 . S
C808 H799 0.950 . S
C808 C807 1.398 . S
C808 C809 1.391 . S
C809 H797 0.950 . S
C809 C805 1.393 . S
C809 C808 1.391 . S
C810 H800 0.950 . S
C810 C811 1.386 . S
C810 C812 1.391 . S
C811 C810 1.386 . S
C811 C815 1.393 . S
C812 H801 0.950 . S
C812 C810 1.391 . S
C812 C813 1.400 . S
C813 C807 1.491 . S
C813 C812 1.400 . S
C813 C814 1.398 . S
C814 H802 0.950 . S
C814 C813 1.398 . S
C814 C815 1.391 . S
C815 H803 0.950 . S
C815 C811 1.393 . S
C815 C814 1.391 . S
H816 C824 0.950 . S
H817 C829 0.950 . S
H818 C826 0.950 . S
H819 C828 0.950 . S
H820 C830 0.950 . S
H821 C832 0.950 . S
H822 C834 0.950 . S
H823 C835 0.950 . S
C824 H816 0.950 . S
C824 C825 1.386 . S
C824 C826 1.391 . S
C825 C824 1.386 . S
C825 C829 1.393 . S
C826 H818 0.950 . S
C826 C824 1.391 . S
C826 C827 1.400 . S
C827 C826 1.400 . S
C827 C828 1.398 . S
C827 C833 1.491 . S
C828 H819 0.950 . S
C828 C827 1.398 . S
C828 C829 1.391 . S
C829 H817 0.950 . S
C829 C825 1.393 . S
C829 C828 1.391 . S
C830 H820 0.950 . S
C830 C831 1.386 . S
C830 C832 1.391 . S
C831 C830 1.386 . S
C831 C835 1.393 . S
C832 H821 0.950 . S
C832 C830 1.391 . S
C832 C833 1.400 . S
C833 C827 1.491 . S
C833 C832 1.400 . S
C833 C834 1.398 . S
C834 H822 0.950 . S
C834 C833 1.398 . S
C834 C835 1.391 . S
C835 H823 0.950 . S
C835 C831 1.393 . S
C835 C834 1.391 . S
H836 C844 0.950 . S
H837 C849 0.950 1_556 S
H838 C846 0.950 . S
H839 C848 0.950 . S
H840 C850 0.950 . S
H841 C852 0.950 . S
H842 C854 0.950 1_554 S
H843 C855 0.950 . S
C844 H836 0.950 . S
C844 C845 1.386 . S
C844 C846 1.391 . S
C845 C844 1.386 . S
C845 C849 1.393 . S
C846 H838 0.950 . S
C846 C844 1.391 . S
C846 C847 1.400 1_554 S
C847 C846 1.400 1_556 S
C847 C848 1.398 . S
C847 C853 1.491 . S
C848 H839 0.950 . S
C848 C847 1.398 . S
C848 C849 1.391 1_556 S
C849 H837 0.950 1_554 S
C849 C845 1.393 . S
C849 C848 1.391 1_554 S
C850 H840 0.950 . S
C850 C851 1.386 . S
C850 C852 1.391 . S
C851 C850 1.386 . S
C851 C855 1.393 . S
C852 H841 0.950 . S
C852 C850 1.391 . S
C852 C853 1.400 . S
C853 C847 1.491 . S
C853 C852 1.400 . S
C853 C854 1.398 . S
C854 H842 0.950 1_556 S
C854 C853 1.398 . S
C854 C855 1.391 . S
C855 H843 0.950 . S
C855 C851 1.393 . S
C855 C854 1.391 . S
C385 C7 1.576 . S
C391 C119 1.524 . S
C405 C37 1.513 . S
C411 C155 1.378 . S
C425 C54 1.699 . S
C431 C191 1.580 . S
C451 C221 1.466 . S
C445 C87 1.466 . S
C471 C263 1.447 . S
C465 C30 1.531 . S
C485 C51 1.516 . S
C491 C293 1.500 . S
C505 C84 1.740 . S
C511 C329 1.632 . S
C525 C10 1.475 1_556 S
C531 C371 1.316 . S
C545 C59 1.573 . S
C551 C341 1.522 . S
C571 C233 1.333 . S
C565 C74 1.454 . S
C591 C299 1.665 . S
C585 C18 1.738 . S
C605 C32 1.511 . S
C611 C335 1.498 . S
C631 C125 1.513 . S
C625 C73 1.567 . S
C645 C15 1.497 . S
C651 C185 1.452 . S
C671 C227 1.704 . S
C665 C43 1.780 . S
C691 C89 1.337 . S
C685 C62 1.456 . S
C711 C305 1.520 . S
C705 C21 1.561 . S
C731 C365 1.323 . S
C725 C29 1.357 . S
C745 C52 1.307 . S
C751 C257 1.261 . S
C771 C269 1.497 . S
C765 C81 1.549 . S
C791 C161 1.451 . S
C785 C40 1.520 . S
C805 C65 1.540 . S
C811 C197 1.491 . S
C831 C113 1.258 . S
C825 C76 1.313 . S
C851 C149 1.296 . S
C845 C8 1.354 . S
