# Generated by pormake.
# Topology eea, (3,6)-cn, num edge types: 1
# Building blocks:
#     Node 0, Type 0, BuildingBlock: BETDAH_clean_linker_0, # of connection points: 3
#     Node 1, Type 0, BuildingBlock: BETDAH_clean_linker_0, # of connection points: 3
#     Node 2, Type 0, BuildingBlock: BETDAH_clean_linker_0, # of connection points: 3
#     Node 3, Type 0, BuildingBlock: BETDAH_clean_linker_0, # of connection points: 3
#     Node 4, Type 0, BuildingBlock: BETDAH_clean_linker_0, # of connection points: 3
#     Node 5, Type 0, BuildingBlock: BETDAH_clean_linker_0, # of connection points: 3
#     Node 6, Type 0, BuildingBlock: BETDAH_clean_linker_0, # of connection points: 3
#     Node 7, Type 0, BuildingBlock: BETDAH_clean_linker_0, # of connection points: 3
#     Node 8, Type 0, BuildingBlock: BETDAH_clean_linker_0, # of connection points: 3
#     Node 9, Type 0, BuildingBlock: BETDAH_clean_linker_0, # of connection points: 3
#     Node 10, Type 0, BuildingBlock: BETDAH_clean_linker_0, # of connection points: 3
#     Node 11, Type 0, BuildingBlock: BETDAH_clean_linker_0, # of connection points: 3
#     Node 12, Type 0, BuildingBlock: BETDAH_clean_linker_0, # of connection points: 3
#     Node 13, Type 0, BuildingBlock: BETDAH_clean_linker_0, # of connection points: 3
#     Node 14, Type 0, BuildingBlock: BETDAH_clean_linker_0, # of connection points: 3
#     Node 15, Type 0, BuildingBlock: BETDAH_clean_linker_0, # of connection points: 3
#     Node 16, Type 0, BuildingBlock: BETDAH_clean_linker_0, # of connection points: 3
#     Node 17, Type 0, BuildingBlock: BETDAH_clean_linker_0, # of connection points: 3
#     Node 18, Type 1, BuildingBlock: HISSIN_clean_sbu_0, # of connection points: 6
#     Node 19, Type 1, BuildingBlock: HISSIN_clean_sbu_0, # of connection points: 6
#     Node 20, Type 1, BuildingBlock: HISSIN_clean_sbu_0, # of connection points: 6
#     Node 21, Type 1, BuildingBlock: HISSIN_clean_sbu_0, # of connection points: 6
#     Node 22, Type 1, BuildingBlock: HISSIN_clean_sbu_0, # of connection points: 6
#     Node 23, Type 1, BuildingBlock: HISSIN_clean_sbu_0, # of connection points: 6
#     Node 24, Type 1, BuildingBlock: HISSIN_clean_sbu_0, # of connection points: 6
#     Node 25, Type 1, BuildingBlock: HISSIN_clean_sbu_0, # of connection points: 6
#     Node 26, Type 1, BuildingBlock: HISSIN_clean_sbu_0, # of connection points: 6
#     Edge 27, Type (0, 1), BuildingBlock: AJUNOK_clean_linker_0, # of connection points: 2
#     Edge 28, Type (0, 1), BuildingBlock: AJUNOK_clean_linker_0, # of connection points: 2
#     Edge 29, Type (0, 1), BuildingBlock: AJUNOK_clean_linker_0, # of connection points: 2
#     Edge 30, Type (0, 1), BuildingBlock: AJUNOK_clean_linker_0, # of connection points: 2
#     Edge 31, Type (0, 1), BuildingBlock: AJUNOK_clean_linker_0, # of connection points: 2
#     Edge 32, Type (0, 1), BuildingBlock: AJUNOK_clean_linker_0, # of connection points: 2
#     Edge 33, Type (0, 1), BuildingBlock: AJUNOK_clean_linker_0, # of connection points: 2
#     Edge 34, Type (0, 1), BuildingBlock: AJUNOK_clean_linker_0, # of connection points: 2
#     Edge 35, Type (0, 1), BuildingBlock: AJUNOK_clean_linker_0, # of connection points: 2
#     Edge 36, Type (0, 1), BuildingBlock: AJUNOK_clean_linker_0, # of connection points: 2
#     Edge 37, Type (0, 1), BuildingBlock: AJUNOK_clean_linker_0, # of connection points: 2
#     Edge 38, Type (0, 1), BuildingBlock: AJUNOK_clean_linker_0, # of connection points: 2
#     Edge 39, Type (0, 1), BuildingBlock: AJUNOK_clean_linker_0, # of connection points: 2
#     Edge 40, Type (0, 1), BuildingBlock: AJUNOK_clean_linker_0, # of connection points: 2
#     Edge 41, Type (0, 1), BuildingBlock: AJUNOK_clean_linker_0, # of connection points: 2
#     Edge 42, Type (0, 1), BuildingBlock: AJUNOK_clean_linker_0, # of connection points: 2
#     Edge 43, Type (0, 1), BuildingBlock: AJUNOK_clean_linker_0, # of connection points: 2
#     Edge 44, Type (0, 1), BuildingBlock: AJUNOK_clean_linker_0, # of connection points: 2
#     Edge 45, Type (0, 1), BuildingBlock: AJUNOK_clean_linker_0, # of connection points: 2
#     Edge 46, Type (0, 1), BuildingBlock: AJUNOK_clean_linker_0, # of connection points: 2
#     Edge 47, Type (0, 1), BuildingBlock: AJUNOK_clean_linker_0, # of connection points: 2
#     Edge 48, Type (0, 1), BuildingBlock: AJUNOK_clean_linker_0, # of connection points: 2
#     Edge 49, Type (0, 1), BuildingBlock: AJUNOK_clean_linker_0, # of connection points: 2
#     Edge 50, Type (0, 1), BuildingBlock: AJUNOK_clean_linker_0, # of connection points: 2
#     Edge 51, Type (0, 1), BuildingBlock: AJUNOK_clean_linker_0, # of connection points: 2
#     Edge 52, Type (0, 1), BuildingBlock: AJUNOK_clean_linker_0, # of connection points: 2
#     Edge 53, Type (0, 1), BuildingBlock: AJUNOK_clean_linker_0, # of connection points: 2
#     Edge 54, Type (0, 1), BuildingBlock: AJUNOK_clean_linker_0, # of connection points: 2
#     Edge 55, Type (0, 1), BuildingBlock: AJUNOK_clean_linker_0, # of connection points: 2
#     Edge 56, Type (0, 1), BuildingBlock: AJUNOK_clean_linker_0, # of connection points: 2
#     Edge 57, Type (0, 1), BuildingBlock: AJUNOK_clean_linker_0, # of connection points: 2
#     Edge 58, Type (0, 1), BuildingBlock: AJUNOK_clean_linker_0, # of connection points: 2
#     Edge 59, Type (0, 1), BuildingBlock: AJUNOK_clean_linker_0, # of connection points: 2
#     Edge 60, Type (0, 1), BuildingBlock: AJUNOK_clean_linker_0, # of connection points: 2
#     Edge 61, Type (0, 1), BuildingBlock: AJUNOK_clean_linker_0, # of connection points: 2
#     Edge 62, Type (0, 1), BuildingBlock: AJUNOK_clean_linker_0, # of connection points: 2
#     Edge 63, Type (0, 1), BuildingBlock: AJUNOK_clean_linker_0, # of connection points: 2
#     Edge 64, Type (0, 1), BuildingBlock: AJUNOK_clean_linker_0, # of connection points: 2
#     Edge 65, Type (0, 1), BuildingBlock: AJUNOK_clean_linker_0, # of connection points: 2
#     Edge 66, Type (0, 1), BuildingBlock: AJUNOK_clean_linker_0, # of connection points: 2
#     Edge 67, Type (0, 1), BuildingBlock: AJUNOK_clean_linker_0, # of connection points: 2
#     Edge 68, Type (0, 1), BuildingBlock: AJUNOK_clean_linker_0, # of connection points: 2
#     Edge 69, Type (0, 1), BuildingBlock: AJUNOK_clean_linker_0, # of connection points: 2
#     Edge 70, Type (0, 1), BuildingBlock: AJUNOK_clean_linker_0, # of connection points: 2
#     Edge 71, Type (0, 1), BuildingBlock: AJUNOK_clean_linker_0, # of connection points: 2
#     Edge 72, Type (0, 1), BuildingBlock: AJUNOK_clean_linker_0, # of connection points: 2
#     Edge 73, Type (0, 1), BuildingBlock: AJUNOK_clean_linker_0, # of connection points: 2
#     Edge 74, Type (0, 1), BuildingBlock: AJUNOK_clean_linker_0, # of connection points: 2
#     Edge 75, Type (0, 1), BuildingBlock: AJUNOK_clean_linker_0, # of connection points: 2
#     Edge 76, Type (0, 1), BuildingBlock: AJUNOK_clean_linker_0, # of connection points: 2
#     Edge 77, Type (0, 1), BuildingBlock: AJUNOK_clean_linker_0, # of connection points: 2
#     Edge 78, Type (0, 1), BuildingBlock: AJUNOK_clean_linker_0, # of connection points: 2
#     Edge 79, Type (0, 1), BuildingBlock: AJUNOK_clean_linker_0, # of connection points: 2
#     Edge 80, Type (0, 1), BuildingBlock: AJUNOK_clean_linker_0, # of connection points: 2
# Relax obj value: 0.059
# Max RMSD: 0.223
# Mean RMSD: 0.160
data_MOF--net-eea--node1-HISSIN_clean_sbu_0--node2-BETDAH_clean_linker_0--edge1-AJUNOK_clean_linker_0
_symmetry_space_group_name_H-M    P1
_symmetry_Int_Tables_number       1
_symmetry_cell_setting            triclinic
loop_
_symmetry_equiv_pos_as_xyz
'x, y, z'
_cell_length_a     40.32139
_cell_length_b     40.285376
_cell_length_c     54.37588
_cell_angle_alpha  93.037078
_cell_angle_beta   93.429122
_cell_angle_gamma 119.84926
loop_
_atom_site_label
_atom_site_type_symbol
_atom_site_fract_x
_atom_site_fract_y
_atom_site_fract_z
_atom_type_partial_charge
H0 H 0.2552 0.06816 0.43485 0.0
H1 H 0.28609 0.18713 0.43405 0.0
H2 H 0.25835 0.11616 0.36577 0.0
C3 C 0.25892 0.09217 0.42486 0.0
C4 C 0.25383 0.08757 0.39886 0.0
C5 C 0.27046 0.12799 0.43787 0.0
C6 C 0.2765 0.15913 0.42444 0.0
C7 C 0.27212 0.15468 0.39848 0.0
C8 C 0.26082 0.11906 0.38584 0.0
N9 N 0.2824 0.18656 0.38473 0.0
C10 C 0.26505 0.20871 0.38654 0.0
H11 H 0.96127 0.20097 0.44405 0.0
H12 H 0.85322 0.09535 0.42711 0.0
H13 H 0.9312 0.14003 0.37142 0.0
C14 C 0.94131 0.17682 0.43104 0.0
C15 C 0.95086 0.17393 0.40681 0.0
C16 C 0.9061 0.14865 0.43864 0.0
C17 C 0.88084 0.1167 0.42183 0.0
C18 C 0.89024 0.11361 0.39766 0.0
C19 C 0.92482 0.14231 0.39032 0.0
N20 N 0.86478 0.08332 0.37963 0.0
C21 C 0.83752 0.04664 0.38467 0.0
H22 H 0.82281 0.76286 0.44799 0.0
H23 H 0.91488 0.73869 0.44282 0.0
H24 H 0.87856 0.77878 0.38091 0.0
C25 C 0.8451 0.76288 0.43778 0.0
C26 C 0.84826 0.77339 0.41337 0.0
C27 C 0.86935 0.75093 0.44888 0.0
C28 C 0.8973 0.74976 0.43514 0.0
C29 C 0.90125 0.76053 0.41085 0.0
C30 C 0.87655 0.77208 0.39999 0.0
N31 N 0.92462 0.75234 0.39607 0.0
C32 C 0.96043 0.77987 0.38965 0.0
H33 H 0.05228 0.24664 0.59061 0.0
H34 H 0.16443 0.25883 0.60539 0.0
H35 H 0.08749 0.2267 0.6619 0.0
C36 C 0.07311 0.2442 0.60275 0.0
C37 C 0.06423 0.23301 0.62675 0.0
C38 C 0.10928 0.25382 0.59473 0.0
C39 C 0.1363 0.25106 0.61097 0.0
C40 C 0.12802 0.24073 0.63504 0.0
C41 C 0.09251 0.23251 0.64284 0.0
N42 N 0.15672 0.24401 0.653 0.0
C43 C 0.17783 0.22546 0.65064 0.0
H44 H 0.75697 0.81182 0.60418 0.0
H45 H 0.73308 0.90479 0.61212 0.0
H46 H 0.76508 0.86594 0.67638 0.0
C47 C 0.75524 0.83357 0.61573 0.0
C48 C 0.76322 0.83651 0.64157 0.0
C49 C 0.7445 0.85821 0.60477 0.0
C50 C 0.7427 0.88652 0.62003 0.0
C51 C 0.75029 0.88923 0.64581 0.0
C52 C 0.7603 0.86422 0.65639 0.0
N53 N 0.74431 0.91423 0.66173 0.0
C54 C 0.76003 0.95311 0.65915 0.0
H55 H 0.19184 0.93993 0.59577 0.0
H56 H 0.09799 0.82347 0.58686 0.0
H57 H 0.12569 0.89059 0.65692 0.0
C58 C 0.16822 0.91606 0.6033 0.0
C59 C 0.16163 0.91977 0.62816 0.0
C60 C 0.14507 0.88173 0.58812 0.0
C61 C 0.11502 0.85073 0.59804 0.0
C62 C 0.10736 0.85405 0.62256 0.0
C63 C 0.13045 0.88874 0.63762 0.0
N64 N 0.07972 0.82045 0.63237 0.0
C65 C 0.05017 0.81808 0.64546 0.0
H66 H 0.92216 0.40504 0.76763 0.0
H67 H 0.95079 0.52283 0.76315 0.0
H68 H 0.91701 0.44608 0.69697 0.0
C69 C 0.92465 0.42793 0.75686 0.0
C70 C 0.91635 0.42069 0.73103 0.0
C71 C 0.93754 0.46478 0.76876 0.0
C72 C 0.94093 0.49424 0.75442 0.0
C73 C 0.93346 0.48731 0.72855 0.0
C74 C 0.92151 0.45077 0.71701 0.0
N75 N 0.94183 0.51763 0.71359 0.0
C76 C 0.92401 0.53945 0.71484 0.0
H77 H 0.61759 0.53892 0.7695 0.0
H78 H 0.52463 0.4213 0.75837 0.0
H79 H 0.61108 0.4641 0.70769 0.0
C80 C 0.60275 0.51121 0.75869 0.0
C81 C 0.6177 0.50577 0.73706 0.0
C82 C 0.5691 0.4809 0.76661 0.0
C83 C 0.55052 0.44479 0.75254 0.0
C84 C 0.56566 0.43908 0.73112 0.0
C85 C 0.59917 0.46936 0.7238 0.0
N86 N 0.54884 0.40331 0.71646 0.0
C87 C 0.51335 0.37131 0.71873 0.0
H88 H 0.48569 0.09055 0.78333 0.0
H89 H 0.58305 0.07494 0.77761 0.0
H90 H 0.54432 0.11487 0.71701 0.0
C91 C 0.50905 0.09321 0.77313 0.0
C92 C 0.51168 0.10465 0.74891 0.0
C93 C 0.53478 0.08278 0.78385 0.0
C94 C 0.56369 0.08398 0.77001 0.0
C95 C 0.56708 0.0955 0.74597 0.0
C96 C 0.54152 0.10637 0.73567 0.0
N97 N 0.58994 0.08764 0.73049 0.0
C98 C 0.62677 0.11453 0.72529 0.0
H99 H 0.72837 0.59165 0.92688 0.0
H100 H 0.81838 0.56295 0.93005 0.0
H101 H 0.73068 0.51693 0.9797 0.0
C102 C 0.7419 0.57688 0.93512 0.0
C103 C 0.72597 0.55491 0.955 0.0
C104 C 0.77532 0.58016 0.92587 0.0
C105 C 0.79327 0.56157 0.93722 0.0
C106 C 0.77718 0.5391 0.95688 0.0
C107 C 0.7435 0.53552 0.96521 0.0
N108 N 0.792 0.51729 0.96786 0.0
C109 C 0.82974 0.52485 0.96906 0.0
H110 H 0.42977 0.14626 0.94065 0.0
H111 H 0.39345 0.22982 0.95021 0.0
H112 H 0.44065 0.20145 1.01304 0.0
C113 C 0.42656 0.16676 0.95251 0.0
C114 C 0.43821 0.17204 0.978 0.0
C115 C 0.41001 0.18716 0.94228 0.0
C116 C 0.40643 0.21409 0.95773 0.0
C117 C 0.41724 0.21886 0.98325 0.0
C118 C 0.43246 0.19747 0.99329 0.0
N119 N 0.41083 0.24324 0.99946 0.0
C120 C 0.42362 0.28142 0.99588 0.0
H121 H 0.86588 0.2846 0.93067 0.0
H122 H 0.77655 0.16657 0.93124 0.0
H123 H 0.81549 0.24309 0.99798 0.0
C124 C 0.8444 0.26171 0.94016 0.0
C125 C 0.84256 0.26844 0.96551 0.0
C126 C 0.82014 0.22527 0.92735 0.0
C127 C 0.79432 0.19528 0.9405 0.0
C128 C 0.79201 0.20182 0.96582 0.0
C129 C 0.81595 0.23852 0.9782 0.0
N130 N 0.77097 0.17014 0.97955 0.0
C131 C 0.73489 0.15991 0.98685 0.0
H132 H 0.58792 0.7277 0.09865 0.0
H133 H 0.61913 0.84677 0.09783 0.0
H134 H 0.58586 0.77441 0.0297 0.0
C135 C 0.59096 0.75153 0.0887 0.0
C136 C 0.58354 0.74627 0.06276 0.0
C137 C 0.6037 0.78765 0.1017 0.0
C138 C 0.60872 0.81855 0.08828 0.0
C139 C 0.6021 0.81352 0.06235 0.0
C140 C 0.58978 0.77762 0.04976 0.0
N141 N 0.61104 0.84502 0.04841 0.0
C142 C 0.59283 0.86636 0.05043 0.0
H143 H 0.29462 0.88467 0.10656 0.0
H144 H 0.18664 0.77985 0.08564 0.0
H145 H 0.27113 0.82596 0.03386 0.0
C146 C 0.27542 0.86094 0.09303 0.0
C147 C 0.28706 0.85906 0.0694 0.0
C148 C 0.23886 0.83291 0.09907 0.0
C149 C 0.21492 0.80146 0.08147 0.0
C150 C 0.22678 0.79925 0.05792 0.0
C151 C 0.2624 0.82811 0.05207 0.0
N152 N 0.20297 0.77006 0.03883 0.0
C153 C 0.17504 0.73271 0.04204 0.0
H154 H 0.1536 0.42884 0.11486 0.0
H155 H 0.24426 0.40232 0.11611 0.0
H156 H 0.22686 0.45744 0.05527 0.0
C157 C 0.17815 0.43046 0.10667 0.0
C158 C 0.18742 0.44541 0.08357 0.0
C159 C 0.19893 0.41564 0.11884 0.0
C160 C 0.22874 0.41482 0.10734 0.0
C161 C 0.23919 0.43011 0.08467 0.0
C162 C 0.21894 0.44603 0.07292 0.0
N163 N 0.26673 0.4243 0.07298 0.0
C164 C 0.29691 0.45099 0.06085 0.0
H165 H 0.39409 0.92632 0.25767 0.0
H166 H 0.49415 0.91416 0.27051 0.0
H167 H 0.41025 0.87821 0.32291 0.0
C168 C 0.41051 0.91684 0.26871 0.0
C169 C 0.39771 0.90174 0.29126 0.0
C170 C 0.44511 0.92116 0.2608 0.0
C171 C 0.4672 0.91038 0.27603 0.0
C172 C 0.45457 0.89536 0.29863 0.0
C173 C 0.41995 0.89081 0.30578 0.0
N174 N 0.47635 0.88635 0.31569 0.0
C175 C 0.50478 0.87765 0.3108 0.0
H176 H 0.09345 0.48378 0.27021 0.0
H177 H 0.08371 0.58476 0.28448 0.0
H178 H 0.11455 0.53725 0.34445 0.0
C179 C 0.09534 0.50637 0.28298 0.0
C180 C 0.1059 0.50775 0.30833 0.0
C181 C 0.08647 0.53361 0.27417 0.0
C182 C 0.08971 0.56317 0.29101 0.0
C183 C 0.09974 0.56422 0.31637 0.0
C184 C 0.10743 0.53646 0.32479 0.0
N185 N 0.10107 0.59181 0.33424 0.0
C186 C 0.10623 0.62731 0.32916 0.0
H187 H 0.51972 0.6076 0.25905 0.0
H188 H 0.4365 0.48725 0.25631 0.0
H189 H 0.45672 0.56185 0.3219 0.0
C190 C 0.49798 0.58356 0.26762 0.0
C191 C 0.49046 0.58941 0.29192 0.0
C192 C 0.47881 0.54691 0.25457 0.0
C193 C 0.45094 0.51592 0.26591 0.0
C194 C 0.44217 0.52124 0.28986 0.0
C195 C 0.46219 0.55802 0.30299 0.0
N196 N 0.41691 0.48824 0.30135 0.0
C197 C 0.38467 0.48344 0.31233 0.0
Eu198 Eu 0.49672 1.00137 0.99907 0.0
Eu199 Eu 0.52178 0.03775 0.05813 0.0
C200 C 0.49676 0.07739 0.0167 0.0
C201 C 0.48917 0.99533 0.92803 0.0
C202 C 0.46664 0.00809 0.9155 0.0
C203 C 0.53043 0.01352 0.8943 0.0
C204 C 0.47588 0.02335 0.8927 0.0
C205 C 0.52128 0.99836 0.91716 0.0
C206 C 0.50761 0.02584 0.8817 0.0
C207 C 0.47837 0.97796 0.95185 0.0
O208 O 0.46766 0.98041 0.05668 0.0
O209 O 0.44218 0.97997 0.01804 0.0
C210 C 0.43781 0.96861 0.04041 0.0
O211 O 0.50278 0.95712 0.01934 0.0
O212 O 0.50569 0.0565 0.09151 0.0
O213 O 0.55863 0.05513 0.09307 0.0
O214 O 0.54478 0.99754 0.05199 0.0
C215 C 0.52876 0.96485 0.03788 0.0
O216 O 0.56099 0.03959 1.0031 0.0
O217 O 0.57191 0.07965 0.03833 0.0
O218 O 0.49231 0.06656 0.03925 0.0
O219 O 0.50424 0.97465 0.96542 0.0
O220 O 0.4588 0.98856 0.96524 0.0
O221 O 0.50819 0.06162 1.00016 0.0
C222 C 0.52328 0.03779 0.12812 0.0
C223 C 0.50462 0.99745 0.12618 0.0
C224 C 0.51827 0.03794 0.17253 0.0
C225 C 0.49269 0.9775 0.14724 0.0
C226 C 0.5302 0.05786 0.15146 0.0
C227 C 0.49893 0.99747 0.17067 0.0
C228 C 0.53407 0.05889 0.1058 0.0
C229 C 0.58288 0.0715 0.01757 0.0
H230 H 0.44156 0.00594 0.9232 0.0
H231 H 0.55544 0.01566 0.88649 0.0
H232 H 0.45765 0.03243 0.88339 0.0
H233 H 0.53929 0.98882 0.92622 0.0
H234 H 0.499 0.98136 0.10833 0.0
H235 H 0.52342 0.05419 0.19025 0.0
H236 H 0.47864 0.94642 0.14519 0.0
H237 H 0.5444 0.08896 0.15335 0.0
Eu238 Eu 0.02731 0.48994 0.99201 0.0
Eu239 Eu 1.00255 0.49372 0.04875 0.0
C240 C 0.96124 0.41757 1.01215 0.0
C241 C 0.02351 0.48335 0.92095 0.0
C242 C 0.00789 0.44997 0.90445 0.0
C243 C 0.00721 0.51488 0.88927 0.0
C244 C 0.99207 0.44897 0.88066 0.0
C245 C 0.02281 0.5158 0.91321 0.0
C246 C 0.99189 0.4815 0.87274 0.0
C247 C 0.04037 0.48338 0.94591 0.0
O248 O 0.04713 0.47513 0.05217 0.0
O249 O 0.07588 0.49165 0.01584 0.0
C250 C 0.07495 0.48091 0.03833 0.0
O251 O 0.05175 0.55247 1.00526 0.0
O252 O 0.97885 0.46269 0.0809 0.0
O253 O 0.9944 0.52259 0.08096 0.0
O254 O 0.05752 0.54954 0.04712 0.0
C255 C 0.06691 0.56916 0.02769 0.0
O256 O 0.9718 0.49074 0.98699 0.0
O257 O 0.97212 0.51748 0.02544 0.0
O258 O 0.95475 0.44055 0.02638 0.0
O259 O 0.05822 0.51565 0.96015 0.0
O260 O 0.01929 0.45427 0.95811 0.0
O261 O 0.99509 0.43041 1.00421 0.0
C262 C 0.99938 0.49985 0.1197 0.0
C263 C 0.0386 0.52556 0.1267 0.0
C264 C 0.99011 0.48653 0.1626 0.0
C265 C 0.05337 0.532 0.15162 0.0
C266 C 0.9754 0.48022 0.13779 0.0
C267 C 0.02914 0.51291 0.16989 0.0
C268 C 0.98265 0.49287 0.09377 0.0
C269 C 0.95926 0.508 1.0018 0.0
H270 H 0.00813 0.42461 0.90992 0.0
H271 H 0.00705 0.54022 0.88368 0.0
H272 H 0.9807 0.42297 0.86824 0.0
H273 H 0.0344 0.5419 0.92555 0.0
H274 H 0.05771 0.54077 0.11297 0.0
H275 H 0.97093 0.47052 0.17608 0.0
H276 H 0.08358 0.55234 0.15665 0.0
H277 H 0.94516 0.45995 0.13272 0.0
Eu278 Eu 0.52956 0.52473 0.03492 0.0
Eu279 Eu 0.49761 0.52084 0.97653 0.0
C280 C 0.54108 0.59772 1.01209 0.0
C281 C 0.53811 0.52785 0.10608 0.0
C282 C 0.51003 0.53769 0.11084 0.0
C283 C 0.54254 0.51626 0.14925 0.0
C284 C 0.49908 0.53779 0.13479 0.0
C285 C 0.55366 0.5164 0.12535 0.0
C286 C 0.51594 0.52801 0.1544 0.0
C287 C 0.55355 0.53217 0.08176 0.0
O288 O 0.56026 0.53886 0.97588 0.0
O289 O 0.573 0.51984 1.0128 0.0
C290 C 0.58236 0.53163 0.99077 0.0
O291 O 0.4865 0.46321 0.02282 0.0
O292 O 0.50245 0.55096 0.94355 0.0
O293 O 0.45988 0.4906 0.94261 0.0
O294 O 0.49466 0.46402 0.98157 0.0
C295 C 0.4842 0.44535 1.0014 0.0
O296 O 0.47414 0.52586 0.03679 0.0
O297 O 0.4449 0.50065 0.99734 0.0
O298 O 0.50922 0.57637 0.99756 0.0
O299 O 0.54245 0.50095 0.06714 0.0
O300 O 0.55508 0.5601 0.06986 0.0
O301 O 0.5606 0.58207 0.02029 0.0
C302 C 0.48916 0.51285 0.90589 0.0
C303 C 0.51827 0.50344 0.90509 0.0
C304 C 0.48424 0.51091 0.86097 0.0
C305 C 0.53049 0.49807 0.88238 0.0
C306 C 0.4721 0.51633 0.88369 0.0
C307 C 0.51389 0.50214 0.86005 0.0
C308 C 0.47712 0.52003 0.92974 0.0
C309 C 0.4433 0.50977 0.0207 0.0
H310 H 0.49742 0.54643 0.09622 0.0
H311 H 0.55524 0.50753 0.16381 0.0
H312 H 0.47843 0.54686 0.13813 0.0
H313 H 0.57516 0.50847 0.12204 0.0
H314 H 0.53174 0.50056 0.92206 0.0
H315 H 0.47024 0.51336 0.8441 0.0
H316 H 0.55338 0.49137 0.88231 0.0
H317 H 0.44948 0.52342 0.88392 0.0
Eu318 Eu 0.15213 0.32674 0.33084 0.0
Eu319 Eu 0.1756 0.36448 0.3893 0.0
C320 C 0.14097 0.3967 0.349 0.0
C321 C 0.14435 0.31869 0.25977 0.0
C322 C 0.12383 0.33542 0.24965 0.0
C323 C 0.18123 0.33406 0.22394 0.0
C324 C 0.13206 0.35141 0.22698 0.0
C325 C 0.17291 0.31795 0.24652 0.0
C326 C 0.16106 0.35117 0.21393 0.0
C327 C 0.13601 0.3015 0.28377 0.0
O328 O 0.11183 0.32413 0.38389 0.0
O329 O 0.10861 0.28154 0.35301 0.0
C330 C 0.0938 0.28996 0.37164 0.0
O331 O 0.19197 0.30898 0.348 0.0
O332 O 0.16202 0.3868 0.42245 0.0
O333 O 0.2119 0.37985 0.42421 0.0
O334 O 0.1771 0.30915 0.38777 0.0
C335 C 0.19189 0.29842 0.37035 0.0
O336 O 0.20514 0.38519 0.33064 0.0
O337 O 0.2308 0.39377 0.3709 0.0
O338 O 0.16782 0.40701 0.36751 0.0
O339 O 0.16505 0.30433 0.29754 0.0
O340 O 0.11284 0.307 0.29691 0.0
O341 O 0.12452 0.36234 0.33715 0.0
C342 C 0.17671 0.36588 0.45924 0.0
C343 C 0.16108 0.32584 0.45815 0.0
C344 C 0.16892 0.3669 0.50327 0.0
C345 C 0.14968 0.30652 0.4795 0.0
C346 C 0.18046 0.3862 0.48194 0.0
C347 C 0.15329 0.32678 0.50235 0.0
C348 C 0.18893 0.3865 0.43682 0.0
C349 C 0.23468 0.40177 0.3477 0.0
H350 H 0.10131 0.33611 0.25916 0.0
H351 H 0.20376 0.33343 0.21439 0.0
H352 H 0.11533 0.3635 0.2195 0.0
H353 H 0.18899 0.30497 0.25367 0.0
H354 H 0.15788 0.30954 0.4408 0.0
H355 H 0.17194 0.38337 0.52051 0.0
H356 H 0.13858 0.2758 0.47817 0.0
H357 H 0.1923 0.41706 0.48319 0.0
Eu358 Eu 0.68476 0.81641 0.32579 0.0
Eu359 Eu 0.65272 0.80679 0.38118 0.0
C360 C 0.60841 0.73981 0.3368 0.0
C361 C 0.68995 0.8171 0.25565 0.0
C362 C 0.65252 0.81066 0.25067 0.0
C363 C 0.69583 0.81447 0.2115 0.0
C364 C 0.63687 0.80624 0.22618 0.0
C365 C 0.71143 0.81894 0.23593 0.0
C366 C 0.65836 0.808 0.2063 0.0
C367 C 0.70705 0.82203 0.28121 0.0
O368 O 0.7108 0.81171 0.38651 0.0
O369 O 0.71385 0.78962 0.34756 0.0
C370 C 0.72633 0.79838 0.37125 0.0
O371 O 0.73039 0.8673 0.3505 0.0
O372 O 0.63693 0.77422 0.41344 0.0
O373 O 0.6331 0.82591 0.4127 0.0
O374 O 0.69246 0.87051 0.37929 0.0
C375 C 0.72448 0.8862 0.36849 0.0
O376 O 0.6477 0.84406 0.32622 0.0
O377 O 0.60887 0.8113 0.35599 0.0
O378 O 0.62123 0.74727 0.36038 0.0
O379 O 0.71066 0.851 0.29543 0.0
O380 O 0.69468 0.79089 0.29262 0.0
O381 O 0.6249 0.76537 0.32104 0.0
C382 C 0.64934 0.81092 0.45153 0.0
C383 C 0.6895 0.83274 0.4565 0.0
C384 C 0.64351 0.8081 0.49567 0.0
C385 C 0.70657 0.84208 0.48099 0.0
C386 C 0.62652 0.79887 0.47126 0.0
C387 C 0.68371 0.82966 0.50084 0.0
C388 C 0.63088 0.79891 0.42595 0.0
C389 C 0.61587 0.83208 0.33705 0.0
H390 H 0.63553 0.80923 0.26571 0.0
H391 H 0.713 0.81572 0.19661 0.0
H392 H 0.60821 0.80197 0.22282 0.0
H393 H 0.74033 0.82381 0.23943 0.0
H394 H 0.7076 0.84202 0.44146 0.0
H395 H 0.62518 0.79828 0.51057 0.0
H396 H 0.73762 0.85817 0.48435 0.0
H397 H 0.59551 0.78189 0.46776 0.0
Eu398 Eu 0.19888 0.86586 0.36884 0.0
Eu399 Eu 0.16707 0.86455 0.31098 0.0
C400 C 0.21191 0.94002 0.34708 0.0
C401 C 0.21038 0.87235 0.44024 0.0
C402 C 0.23233 0.90328 0.45825 0.0
C403 C 0.16374 0.8409 0.46979 0.0
C404 C 0.22014 0.90322 0.48174 0.0
C405 C 0.17585 0.84112 0.44611 0.0
C406 C 0.18575 0.87207 0.48785 0.0
C407 C 0.22407 0.87439 0.41549 0.0
O408 O 0.22952 0.88171 0.30981 0.0
O409 O 0.24237 0.86183 0.34644 0.0
C410 C 0.25156 0.87411 0.3245 0.0
O411 O 0.15712 0.80419 0.35585 0.0
O412 O 0.17046 0.89578 0.27882 0.0
O413 O 0.13029 0.83452 0.27658 0.0
O414 O 0.1658 0.80842 0.31471 0.0
C415 C 0.15447 0.78799 0.3337 0.0
O416 O 0.14329 0.86627 0.37121 0.0
O417 O 0.11403 0.84136 0.33179 0.0
O418 O 0.17951 0.91978 0.33289 0.0
O419 O 0.21147 0.84246 0.40124 0.0
O420 O 0.22605 0.90223 0.40333 0.0
O421 O 0.23059 0.92305 0.35417 0.0
C422 C 0.16125 0.85925 0.24052 0.0
C423 C 0.13575 0.83021 0.22219 0.0
C424 C 0.21217 0.87792 0.21313 0.0
C425 C 0.1483 0.8251 0.19954 0.0
C426 C 0.19975 0.8828 0.23583 0.0
C427 C 0.18651 0.84928 0.19466 0.0
C428 C 0.14742 0.86466 0.26429 0.0
C429 C 0.11223 0.84911 0.35539 0.0
H430 H 0.25892 0.92778 0.45407 0.0
H431 H 0.13745 0.81615 0.47403 0.0
H432 H 0.23756 0.92784 0.4951 0.0
H433 H 0.15825 0.81698 0.43247 0.0
H434 H 0.10599 0.81158 0.22535 0.0
H435 H 0.24193 0.89657 0.21 0.0
H436 H 0.12795 0.80281 0.18561 0.0
H437 H 0.22034 0.90515 0.24963 0.0
Eu438 Eu 0.81864 0.66942 0.66445 0.0
Eu439 Eu 0.84383 0.70222 0.72448 0.0
C440 C 0.80229 0.73145 0.68766 0.0
C441 C 0.81642 0.66536 0.59306 0.0
C442 C 0.84231 0.70462 0.59162 0.0
C443 C 0.81445 0.65413 0.54843 0.0
C444 C 0.85369 0.7186 0.56867 0.0
C445 C 0.80308 0.64022 0.57134 0.0
C446 C 0.83949 0.69356 0.54672 0.0
C447 C 0.80069 0.6506 0.61655 0.0
O448 O 0.78161 0.65599 0.72171 0.0
O449 O 0.77275 0.62207 0.6839 0.0
C450 C 0.76148 0.62562 0.70569 0.0
O451 O 0.85727 0.64815 0.67908 0.0
O452 O 0.83229 0.72415 0.75863 0.0
O453 O 0.88162 0.71636 0.75861 0.0
O454 O 0.84587 0.64734 0.71992 0.0
C455 C 0.85767 0.63596 0.70096 0.0
O456 O 0.87256 0.72741 0.66626 0.0
O457 O 0.89861 0.73143 0.70577 0.0
O458 O 0.83235 0.74384 0.70399 0.0
O459 O 0.81823 0.63736 0.63033 0.0
O460 O 0.79007 0.67107 0.62965 0.0
O461 O 0.78505 0.69592 0.67788 0.0
C462 C 0.84864 0.70257 0.79456 0.0
C463 C 0.82535 0.66236 0.7926 0.0
C464 C 0.85074 0.70325 0.83948 0.0
C465 C 0.81478 0.64276 0.8139 0.0
C466 C 0.86125 0.72284 0.81815 0.0
C467 C 0.82746 0.66291 0.83764 0.0
C468 C 0.85974 0.72338 0.77214 0.0
C469 C 0.9023 0.74165 0.68306 0.0
H470 H 0.85284 0.72462 0.60814 0.0
H471 H 0.80316 0.63405 0.53194 0.0
H472 H 0.87245 0.7492 0.56802 0.0
H473 H 0.78303 0.60987 0.572 0.0
H474 H 0.81532 0.64613 0.77456 0.0
H475 H 0.86029 0.71977 0.8574 0.0
H476 H 0.79687 0.61173 0.8118 0.0
H477 H 0.87908 0.75388 0.82008 0.0
Eu478 Eu 0.34217 0.14311 0.66287 0.0
Eu479 Eu 0.3157 0.13965 0.71963 0.0
C480 C 0.27618 0.06699 0.68031 0.0
C481 C 0.34565 0.14519 0.59216 0.0
C482 C 0.30932 0.14134 0.58691 0.0
C483 C 0.35547 0.15001 0.5486 0.0
C484 C 0.29596 0.14141 0.56256 0.0
C485 C 0.36882 0.15009 0.57293 0.0
C486 C 0.31863 0.14497 0.54307 0.0
C487 C 0.35868 0.14126 0.6171 0.0
O488 O 0.36109 0.12218 0.72205 0.0
O489 O 0.38986 0.14199 0.686 0.0
C490 C 0.38901 0.12956 0.70798 0.0
O491 O 0.36897 0.20447 0.67959 0.0
O492 O 0.29314 0.10661 0.7512 0.0
O493 O 0.30442 0.16525 0.75203 0.0
O494 O 0.37216 0.19476 0.72058 0.0
C495 C 0.38346 0.21744 0.70268 0.0
O496 O 0.28851 0.14779 0.65865 0.0
O497 O 0.28844 0.16838 0.69889 0.0
O498 O 0.26866 0.08799 0.69564 0.0
O499 O 0.37607 0.17206 0.63267 0.0
O500 O 0.33448 0.11122 0.62744 0.0
O501 O 0.31023 0.08193 0.67238 0.0
C502 C 0.31289 0.14333 0.78998 0.0
C503 C 0.35298 0.16532 0.79533 0.0
C504 C 0.3062 0.1356 0.83368 0.0
C505 C 0.36957 0.17243 0.8198 0.0
C506 C 0.28967 0.12863 0.80928 0.0
C507 C 0.34632 0.15731 0.83918 0.0
C508 C 0.29478 0.13545 0.76447 0.0
C509 C 0.27669 0.16353 0.6752 0.0
H510 H 0.29098 0.13734 0.60155 0.0
H511 H 0.37352 0.15265 0.53398 0.0
H512 H 0.26778 0.13825 0.55894 0.0
H513 H 0.39686 0.15289 0.57663 0.0
H514 H 0.37136 0.17688 0.7806 0.0
H515 H 0.28757 0.12425 0.8483 0.0
H516 H 0.40055 0.18927 0.82356 0.0
H517 H 0.25869 0.11178 0.80548 0.0
Eu518 Eu 0.86549 0.19451 0.70725 0.0
Eu519 Eu 0.83604 0.19396 0.64885 0.0
C520 C 0.87429 0.26881 0.68606 0.0
C521 C 0.87343 0.1978 0.7784 0.0
C522 C 0.84058 0.20089 0.78095 0.0
C523 C 0.88179 0.19749 0.82303 0.0
C524 C 0.82876 0.20285 0.80445 0.0
C525 C 0.89359 0.19558 0.79956 0.0
C526 C 0.84968 0.20188 0.82581 0.0
C527 C 0.88868 0.19985 0.75418 0.0
O528 O 0.89986 0.21678 0.65057 0.0
O529 O 0.90881 0.18982 0.68468 0.0
C530 C 0.92015 0.20568 0.66393 0.0
O531 O 0.82435 0.13317 0.6932 0.0
O532 O 0.84324 0.22461 0.61582 0.0
O533 O 0.7993 0.16468 0.6145 0.0
O534 O 0.83532 0.13797 0.65244 0.0
C535 C 0.82371 0.11737 0.67135 0.0
O536 O 0.80866 0.19277 0.70906 0.0
O537 O 0.78221 0.17147 0.66865 0.0
O538 O 0.84389 0.24748 0.67033 0.0
O539 O 0.87401 0.1681 0.73954 0.0
O540 O 0.89377 0.22898 0.74225 0.0
O541 O 0.8942 0.25398 0.69515 0.0
C542 C 0.8309 0.18603 0.57844 0.0
C543 C 0.85529 0.17046 0.57839 0.0
C544 C 0.83196 0.18802 0.53386 0.0
C545 C 0.86781 0.16359 0.55618 0.0
C546 C 0.81937 0.19476 0.55604 0.0
C547 C 0.85621 0.17223 0.53363 0.0
C548 C 0.81802 0.19395 0.60175 0.0
C549 C 0.77887 0.17785 0.69216 0.0
H550 H 0.8246 0.20264 0.76482 0.0
H551 H 0.89854 0.19676 0.83912 0.0
H552 H 0.80348 0.20546 0.80593 0.0
H553 H 0.9191 0.19337 0.79799 0.0
H554 H 0.86482 0.16386 0.59555 0.0
H555 H 0.82249 0.19491 0.5168 0.0
H556 H 0.88707 0.15212 0.5567 0.0
H557 H 0.80069 0.20691 0.55571 0.0
C558 C 0.35883 0.89934 0.07755 0.0
C559 C 0.32496 0.88904 0.06248 0.0
C560 C 0.39504 0.92518 0.07029 0.0
C561 C 0.39888 0.9418 0.04768 0.0
H562 H 0.35739 0.88655 0.09477 0.0
H563 H 0.42025 0.93167 0.08244 0.0
S564 S 0.3185 0.92711 1.00279 0.0
N565 N 0.2972 0.89959 0.02487 0.0
N566 N 0.36508 0.94776 1.01108 0.0
C567 C 0.36505 0.93254 0.03278 0.0
C568 C 0.32822 0.90631 0.04025 0.0
C569 C 0.14796 0.47805 0.0844 0.0
C570 C 0.16231 0.45811 0.0706 0.0
C571 C 0.12014 0.48565 0.07373 0.0
C572 C 0.10611 0.47458 0.04863 0.0
H573 H 0.1577 0.48722 0.10384 0.0
H574 H 0.10941 0.50023 0.08531 0.0
S575 S 0.13404 0.42226 1.004 0.0
N576 N 0.15971 0.4273 0.03021 0.0
N577 N 0.10897 0.44346 1.01 0.0
C578 C 0.12112 0.45603 0.03429 0.0
C579 C 0.14888 0.44745 0.04528 0.0
C580 C 0.59457 0.69159 0.0532 0.0
C581 C 0.57218 0.70883 0.04903 0.0
C582 C 0.58492 0.65647 0.0404 0.0
C583 C 0.5522 0.63684 0.02302 0.0
H584 H 0.61993 0.70548 0.06641 0.0
H585 H 0.6031 0.64438 0.04458 0.0
S586 S 0.48421 0.6704 1.00535 0.0
N587 N 0.51621 0.7044 0.0262 0.0
N588 N 0.49768 0.63794 1.00216 0.0
C589 C 0.5298 0.65413 0.01842 0.0
C590 C 0.53988 0.69019 0.03141 0.0
C591 C 0.90996 0.31468 0.98268 0.0
C592 C 0.87147 0.3056 0.97909 0.0
C593 C 0.93856 0.35054 0.99415 0.0
C594 C 0.9297 0.37864 1.00248 0.0
H595 H 0.91807 0.29403 0.97627 0.0
H596 H 0.96795 0.35646 0.9962 0.0
S597 S 0.83309 0.36922 0.99628 0.0
N598 N 0.82578 0.32736 0.98415 0.0
N599 N 0.87945 0.39501 1.00566 0.0
C600 C 0.89108 0.36966 0.99918 0.0
C601 C 0.86198 0.33306 0.98746 0.0
C602 C 0.6583 0.54273 0.94812 0.0
C603 C 0.69018 0.55069 0.96462 0.0
C604 C 0.62371 0.53662 0.95677 0.0
C605 C 0.61935 0.53787 0.98228 0.0
H606 H 0.65977 0.54043 0.92833 0.0
H607 H 0.6 0.53031 0.94326 0.0
S608 S 0.69527 0.56133 0.03326 0.0
N609 N 0.71601 0.56243 1.0078 0.0
N610 N 0.65085 0.54999 0.02396 0.0
C611 C 0.6512 0.54645 0.99899 0.0
C612 C 0.68657 0.5531 0.9902 0.0
C613 C 0.44212 0.1311 1.01004 0.0
C614 C 0.4556 0.1504 0.98878 0.0
C615 C 0.45686 0.10895 0.01979 0.0
C616 C 0.48549 0.1052 1.00856 0.0
H617 H 0.41916 0.13216 0.01877 0.0
H618 H 0.44463 0.09345 0.03561 0.0
S619 S 0.53397 0.15401 0.95449 0.0
N620 N 0.50184 0.16736 0.95833 0.0
N621 N 0.52921 0.12546 0.97635 0.0
C622 C 0.50036 0.12572 0.98794 0.0
C623 C 0.48546 0.14832 0.97811 0.0
C624 C 0.69043 0.14156 0.01961 0.0
C625 C 0.69637 0.14284 0.99438 0.0
C626 C 0.65329 0.11995 0.02718 0.0
C627 C 0.62114 0.09848 1.00969 0.0
H628 H 0.71475 0.15622 0.03359 0.0
H629 H 0.65 0.11858 0.04679 0.0
S630 S 0.62166 0.09578 0.94129 0.0
N631 N 0.6673 0.12347 0.95199 0.0
N632 N 0.59767 0.08283 0.96591 0.0
C633 C 0.62682 0.10114 0.98436 0.0
C634 C 0.66445 0.12331 0.97677 0.0
C635 C 0.88458 0.53994 0.99912 0.0
C636 C 0.86567 0.52577 0.97521 0.0
C637 C 0.91544 0.535 1.0073 0.0
C638 C 0.92844 0.51547 0.99188 0.0
H639 H 0.87457 0.55373 1.01196 0.0
H640 H 0.92848 0.54578 0.02611 0.0
S641 S 0.88882 0.47444 0.92686 0.0
N642 N 0.86228 0.49268 0.93581 0.0
N643 N 0.92032 0.48341 0.95075 0.0
C644 C 0.91029 0.50231 0.96747 0.0
C645 C 0.87884 0.5074 0.95926 0.0
C646 C 0.44043 0.34071 0.9755 0.0
C647 C 0.43912 0.32236 0.99694 0.0
C648 C 0.45552 0.38072 0.97695 0.0
C649 C 0.46946 0.40335 0.9999 0.0
H650 H 0.42966 0.3241 0.95761 0.0
H651 H 0.45577 0.39388 0.96004 0.0
S652 S 0.47372 0.36788 0.06114 0.0
N653 N 0.45381 0.32894 0.04138 0.0
N654 N 0.48218 0.4038 0.0444 0.0
C655 C 0.4686 0.38487 0.02138 0.0
C656 C 0.4534 0.3444 0.0198 0.0
C657 C 0.13231 0.67086 0.05885 0.0
C658 C 0.14725 0.69211 0.03868 0.0
C659 C 0.10633 0.63103 0.05517 0.0
C660 C 0.09453 0.61129 0.03119 0.0
H661 H 0.14085 0.68498 0.07751 0.0
H662 H 0.0954 0.61568 0.07125 0.0
S663 S 0.1271 0.65522 0.97249 0.0
N664 N 0.14949 0.69147 0.99425 0.0
N665 N 0.10098 0.61698 0.98706 0.0
C666 C 0.10969 0.63275 1.01094 0.0
C667 C 0.13601 0.6731 1.01478 0.0
C668 C 0.36744 0.49203 0.06508 0.0
C669 C 0.33275 0.4719 0.04975 0.0
C670 C 0.40301 0.50571 0.05534 0.0
C671 C 0.40531 0.49946 0.02984 0.0
H672 H 0.36708 0.49575 0.08494 0.0
H673 H 0.42879 0.51993 0.06816 0.0
S674 S 0.32188 0.45039 0.98176 0.0
N675 N 0.30231 0.44801 1.00792 0.0
N676 N 0.36881 0.47368 0.98931 0.0
C677 C 0.37051 0.4808 1.0142 0.0
C678 C 0.33433 0.46695 0.02423 0.0
C679 C 0.58968 0.92416 0.0631 0.0
C680 C 0.57392 0.88861 0.04907 0.0
C681 C 0.57402 0.94805 0.05988 0.0
C682 C 0.54224 0.93724 0.04235 0.0
H683 H 0.61484 0.93402 0.07617 0.0
H684 H 0.58773 0.97566 0.07078 0.0
S685 S 0.48957 0.84498 1.0022 0.0
N686 N 0.52431 0.84238 0.01804 0.0
N687 N 0.49452 0.88695 1.01178 0.0
C688 C 0.52558 0.90086 0.0288 0.0
C689 C 0.54158 0.87662 0.0322 0.0
C690 C 0.0098 0.1935 0.38434 0.0
C691 C 0.9874 0.20406 0.39817 0.0
C692 C 0.04365 0.22126 0.37528 0.0
C693 C 0.05659 0.26072 0.37981 0.0
H694 H 1.00128 0.16347 0.38069 0.0
H695 H 0.06019 0.21174 0.36511 0.0
S696 S 0.0068 0.30341 0.4132 0.0
N697 N 0.97941 0.25667 0.4145 0.0
N698 N 0.04313 0.30881 0.39799 0.0
C699 C 0.03414 0.27163 0.3933 0.0
C700 C 0.99962 0.24336 0.40237 0.0
C701 C 0.79898 0.76391 0.37865 0.0
C702 C 0.81998 0.78296 0.4016 0.0
C703 C 0.7693 0.76954 0.36863 0.0
C704 C 0.75933 0.79431 0.38122 0.0
H705 H 0.80466 0.7435 0.36875 0.0
H706 H 0.75337 0.75353 0.35124 0.0
S707 S 0.80903 0.85488 0.44034 0.0
N708 N 0.83115 0.83035 0.43538 0.0
N709 N 0.77562 0.84083 0.41686 0.0
C710 C 0.78129 0.81474 0.40368 0.0
C711 C 0.81148 0.80909 0.41378 0.0
C712 C 0.21104 0.03117 0.36813 0.0
C713 C 0.24406 0.05068 0.38513 0.0
C714 C 0.20128 0.99588 0.35521 0.0
C715 C 0.22455 0.97924 0.35864 0.0
H716 H 0.19224 0.04291 0.36521 0.0
H717 H 0.17498 0.98124 0.34288 0.0
S718 S 0.3165 0.02173 0.39933 0.0
N719 N 0.3013 0.05262 0.40355 0.0
N720 N 0.28391 0.987 0.37916 0.0
C721 C 0.25858 0.99956 0.37494 0.0
C722 C 0.26807 0.03507 0.38824 0.0
C723 C 0.53728 0.63195 0.32796 0.0
C724 C 0.51504 0.62792 0.30583 0.0
C725 C 0.56646 0.6684 0.33862 0.0
C726 C 0.57456 0.70199 0.32736 0.0
H727 H 0.53354 0.60666 0.33636 0.0
H728 H 0.58397 0.67007 0.35506 0.0
S729 S 0.52007 0.70727 0.27161 0.0
N730 N 0.49984 0.66086 0.27487 0.0
N731 N 0.55456 0.72905 0.29458 0.0
C732 C 0.55076 0.6984 0.30615 0.0
C733 C 0.52104 0.66148 0.29547 0.0
C734 C 0.32742 0.8809 0.28327 0.0
C735 C 0.36104 0.89684 0.29981 0.0
C736 C 0.29213 0.87373 0.29135 0.0
C737 C 0.28896 0.88161 0.31636 0.0
H738 H 0.32815 0.87314 0.26401 0.0
H739 H 0.26699 0.86124 0.27799 0.0
S740 S 0.36891 0.92807 0.36653 0.0
N741 N 0.38932 0.92413 0.34196 0.0
N742 N 0.32285 0.90905 0.35718 0.0
C743 C 0.32238 0.89836 0.33297 0.0
C744 C 0.35841 0.90639 0.32469 0.0
C745 C 0.14774 0.49094 0.33448 0.0
C746 C 0.11441 0.47889 0.31823 0.0
C747 C 0.15564 0.46427 0.34501 0.0
C748 C 0.13048 0.42452 0.33967 0.0
H749 H 0.16808 0.52131 0.33893 0.0
H750 H 0.18204 0.47492 0.35697 0.0
S751 S 0.03763 0.37826 0.29979 0.0
N752 N 0.05504 0.42479 0.29845 0.0
N753 N 0.06964 0.37449 0.31797 0.0
C754 C 0.09661 0.41214 0.32378 0.0
C755 C 0.08868 0.43934 0.31309 0.0
C756 C 0.31441 0.45556 0.30628 0.0
C757 C 0.34801 0.46947 0.32239 0.0
C758 C 0.27794 0.43534 0.31488 0.0
C759 C 0.27367 0.42799 0.33995 0.0
H760 H 0.31626 0.45892 0.28668 0.0
H761 H 0.25296 0.42417 0.3015 0.0
S762 S 0.35383 0.46112 0.38976 0.0
N763 N 0.37546 0.47662 0.36451 0.0
N764 N 0.30726 0.43889 0.38099 0.0
C765 C 0.30747 0.44348 0.35642 0.0
C766 C 0.34455 0.46408 0.34754 0.0
C767 C 0.57127 0.88892 0.31159 0.0
C768 C 0.53191 0.86409 0.31318 0.0
C769 C 0.59836 0.87783 0.31843 0.0
C770 C 0.58688 0.84198 0.32762 0.0
H771 H 0.5813 0.9175 0.3059 0.0
H772 H 0.62856 0.8981 0.31755 0.0
S773 S 0.48657 0.76569 0.33316 0.0
N774 N 0.48244 0.80141 0.32281 0.0
N775 N 0.53305 0.78073 0.33599 0.0
C776 C 0.54737 0.81651 0.32834 0.0
C777 C 0.51994 0.82758 0.32105 0.0
C778 C 0.10819 0.68438 0.34845 0.0
C779 C 0.11463 0.66626 0.32814 0.0
C780 C 0.12036 0.72359 0.3497 0.0
C781 C 0.13947 0.74602 0.33064 0.0
H782 H 0.09458 0.66839 0.36383 0.0
H783 H 0.11528 0.73646 0.36598 0.0
S784 S 0.1616 0.71061 0.27292 0.0
N785 N 0.1399 0.67223 0.28826 0.0
N786 N 0.16287 0.74624 0.29026 0.0
C787 C 0.14493 0.72762 0.30976 0.0
C788 C 0.13253 0.68758 0.30862 0.0
C789 C 0.77156 0.99328 0.38757 0.0
C790 C 0.81037 0.00617 0.38476 0.0
C791 C 0.74392 0.95394 0.38349 0.0
C792 C 0.75433 0.92662 0.37603 0.0
H793 H 0.76232 0.01376 0.39202 0.0
H794 H 0.71404 0.94514 0.38499 0.0
S795 S 0.8532 0.94618 0.36868 0.0
N796 N 0.85847 0.98896 0.3761 0.0
N797 N 0.80678 0.91519 0.36822 0.0
C798 C 0.79345 0.93929 0.37432 0.0
C799 C 0.82145 0.97912 0.37873 0.0
C800 C 1.00342 0.80282 0.35625 0.0
C801 C 0.99858 0.80233 0.38161 0.0
C802 C 0.04026 0.81933 0.34795 0.0
C803 C 0.07377 0.83593 0.36472 0.0
H804 H 0.9785 0.78917 0.34268 0.0
H805 H 0.04232 0.81805 0.32819 0.0
S806 S 0.07583 0.8427 0.43342 0.0
N807 N 0.02965 0.82045 0.42351 0.0
N808 N 0.09889 0.85167 0.40832 0.0
C809 C 0.06903 0.83661 0.39029 0.0
C810 C 0.03144 0.8197 0.39862 0.0
C811 C 0.24671 0.2458 0.36095 0.0
C812 C 0.24685 0.23136 0.38374 0.0
C813 C 0.22862 0.26718 0.35692 0.0
C814 C 0.20997 0.27495 0.37562 0.0
H815 H 0.26061 0.24044 0.34602 0.0
H816 H 0.22951 0.27775 0.33893 0.0
S817 S 0.20244 0.24259 0.43883 0.0
N818 N 0.22713 0.22539 0.4253 0.0
N819 N 0.1929 0.26592 0.41802 0.0
C820 C 0.21 0.26044 0.39866 0.0
C821 C 0.22852 0.23851 0.40267 0.0
C822 C 0.68604 0.55964 0.74573 0.0
C823 C 0.65356 0.53731 0.72867 0.0
C824 C 0.72077 0.58794 0.73803 0.0
C825 C 0.72459 0.59475 0.71293 0.0
H826 H 0.68488 0.55475 0.76514 0.0
H827 H 0.74502 0.60425 0.75186 0.0
S828 S 0.64736 0.54687 0.66119 0.0
N829 N 0.62672 0.52615 0.68572 0.0
N830 N 0.69241 0.57851 0.67125 0.0
C831 C 0.69231 0.57309 0.69571 0.0
C832 C 0.65673 0.54463 0.70358 0.0
C833 C 0.46739 0.13186 0.75176 0.0
C834 C 0.48176 0.11249 0.73738 0.0
C835 C 0.43737 0.13711 0.74214 0.0
C836 C 0.42103 0.12411 0.71754 0.0
H837 H 0.47931 0.14297 0.77073 0.0
H838 H 0.42711 0.15183 0.75401 0.0
S839 S 0.44637 0.07058 0.67212 0.0
N840 N 0.47532 0.07864 0.69729 0.0
N841 N 0.42068 0.09076 0.67899 0.0
C842 C 0.43532 0.10539 0.70276 0.0
C843 C 0.46523 0.09909 0.71269 0.0
C844 C 0.92804 0.36593 0.7237 0.0
C845 C 0.90521 0.38246 0.71856 0.0
C846 C 0.91829 0.32981 0.71244 0.0
C847 C 0.88509 0.30848 0.69564 0.0
H848 H 0.95379 0.38113 0.73652 0.0
H849 H 0.93685 0.31839 0.7173 0.0
S850 S 0.8156 0.33933 0.67601 0.0
N851 N 0.84814 0.37531 0.69555 0.0
N852 N 0.82947 0.30705 0.67435 0.0
C853 C 0.86221 0.32496 0.69007 0.0
C854 C 0.87235 0.36201 0.70153 0.0
C855 C 0.22918 0.96905 0.64375 0.0
C856 C 0.1896 0.95524 0.6442 0.0
C857 C 0.25671 0.00437 0.65632 0.0
C858 C 0.24597 0.02757 0.67 0.0
H859 H 0.23904 0.95269 0.63312 0.0
H860 H 0.28674 0.01391 0.65477 0.0
S861 S 0.14586 0.00353 0.67823 0.0
N862 N 0.14086 0.96661 0.66029 0.0
N863 N 0.19262 0.03312 0.68419 0.0
C864 C 0.20642 0.01336 0.67153 0.0
C865 C 0.17826 0.97719 0.65861 0.0
C866 C 0.01124 0.24834 0.63089 0.0
C867 C 0.02668 0.22453 0.63583 0.0
C868 C 0.97699 0.24204 0.64015 0.0
C869 C 0.95688 0.21196 0.65505 0.0
H870 H 0.02606 0.27255 0.62013 0.0
H871 H 0.96647 0.26132 0.63584 0.0
S872 S 0.98304 0.13932 0.67183 0.0
N873 N 0.01743 0.16782 0.65526 0.0
N874 N 0.95387 0.15691 0.67328 0.0
C875 C 0.97168 0.18768 0.65997 0.0
C876 C 0.00629 0.19371 0.65023 0.0
C877 C 0.80523 0.82329 0.67058 0.0
C878 C 0.7725 0.8094 0.65347 0.0
C879 C 0.81414 0.798 0.68226 0.0
C880 C 0.79043 0.7579 0.6774 0.0
H881 H 0.82443 0.85396 0.67465 0.0
H882 H 0.84022 0.81002 0.69473 0.0
S883 S 0.69905 0.70729 0.63591 0.0
N884 N 0.71498 0.75335 0.63352 0.0
N885 N 0.73109 0.7057 0.65541 0.0
C886 C 0.75684 0.74378 0.66089 0.0
C887 C 0.74807 0.76954 0.64891 0.0
C888 C 0.98113 0.79593 0.64144 0.0
C889 C 0.0148 0.80633 0.65663 0.0
C890 C 0.94505 0.77692 0.65058 0.0
C891 C 0.94127 0.76732 0.67525 0.0
H892 H 0.98249 0.80086 0.62203 0.0
H893 H 0.91987 0.76829 0.6378 0.0
S894 S 0.0221 0.79175 0.72291 0.0
N895 N 0.04314 0.80835 0.69763 0.0
N896 N 0.97555 0.77281 0.71515 0.0
C897 C 0.9753 0.77964 0.69096 0.0
C898 C 0.01202 0.79902 0.68153 0.0
C899 C 0.20454 0.19773 0.6791 0.0
C900 C 0.20067 0.20739 0.65513 0.0
C901 C 0.22853 0.18285 0.68513 0.0
C902 C 0.24958 0.1769 0.66737 0.0
H903 H 0.1894 0.20235 0.6935 0.0
H904 H 0.23079 0.17631 0.70401 0.0
S905 S 0.24848 0.19728 0.60155 0.0
N906 N 0.21893 0.20974 0.6133 0.0
N907 N 0.26415 0.18158 0.62441 0.0
C908 C 0.24519 0.18577 0.64305 0.0
C909 C 0.22075 0.20116 0.63698 0.0
C910 C 0.78 0.01493 0.64132 0.0
C911 C 0.77739 0.99432 0.6618 0.0
C912 C 0.7958 0.05503 0.64442 0.0
C913 C 0.80907 0.07543 0.66813 0.0
H914 H 0.76947 1.0 0.62292 0.0
H915 H 0.79686 0.06995 0.62823 0.0
S916 S 0.81022 0.03364 0.72728 0.0
N917 N 0.79044 0.99645 0.7061 0.0
N918 N 0.82008 0.07149 0.71219 0.0
C919 C 0.80715 0.05475 0.68861 0.0
C920 C 0.79128 0.01419 0.68536 0.0
C921 C 0.45738 0.32018 0.693 0.0
C922 C 0.47802 0.33487 0.71637 0.0
C923 C 0.42611 0.2826 0.689 0.0
C924 C 0.41447 0.25825 0.70826 0.0
H925 H 0.46621 0.33743 0.67746 0.0
H926 H 0.41167 0.27235 0.67045 0.0
S927 S 0.45862 0.285 0.77349 0.0
N928 N 0.48443 0.32387 0.75932 0.0
N929 N 0.42549 0.25307 0.75217 0.0
C930 C 0.43432 0.27346 0.73207 0.0
C931 C 0.46622 0.31184 0.73603 0.0
C932 C 0.69778 0.15096 0.7339 0.0
C933 C 0.66486 0.13546 0.71696 0.0
C934 C 0.73462 0.16601 0.72573 0.0
C935 C 0.73988 0.16574 0.70026 0.0
H936 H 0.69498 0.1503 0.75359 0.0
H937 H 0.75897 0.17668 0.73956 0.0
S938 S 0.66196 0.12982 0.64861 0.0
N939 N 0.63933 0.12199 0.67386 0.0
N940 N 0.70809 0.15008 0.65827 0.0
C941 C 0.70688 0.15137 0.68321 0.0
C942 C 0.66951 0.13624 0.69162 0.0
C943 C 0.90256 0.58305 0.73182 0.0
C944 C 0.90558 0.56193 0.71163 0.0
C945 C 0.88623 0.6064 0.72831 0.0
C946 C 0.87282 0.60952 0.70445 0.0
H947 H 0.91326 0.5819 0.75033 0.0
H948 H 0.88492 0.62274 0.74432 0.0
S949 S 0.87267 0.5575 0.6459 0.0
N950 N 0.89278 0.54384 0.66741 0.0
N951 N 0.86221 0.58756 0.66055 0.0
C952 C 0.87516 0.58767 0.68424 0.0
C953 C 0.89154 0.56388 0.68791 0.0
C954 C 0.49673 0.96919 0.23684 0.0
C955 C 0.45883 0.93863 0.23721 0.0
C956 C 0.5095 0.98779 0.21529 0.0
C957 C 0.48504 0.97639 0.19311 0.0
H958 H 0.51646 0.97948 0.25352 0.0
H959 H 0.53881 0.01136 0.21603 0.0
S960 S 0.38343 0.89718 0.18398 0.0
N961 N 0.39734 0.89703 0.21314 0.0
N962 N 0.42104 0.93228 0.17291 0.0
C963 C 0.44726 0.94545 0.19312 0.0
C964 C 0.43424 0.92659 0.21506 0.0
C965 C 0.09152 0.52365 0.22872 0.0
C966 C 0.07242 0.53016 0.24762 0.0
C967 C 0.07788 0.51891 0.20364 0.0
C968 C 0.04439 0.52014 0.19648 0.0
H969 H 0.11723 0.52217 0.23335 0.0
H970 H 0.09321 0.51341 0.18979 0.0
S971 S 0.98412 0.53708 0.23864 0.0
N972 N 0.01823 0.53762 0.25731 0.0
N973 N 0.99328 0.52974 0.21032 0.0
C974 C 0.02536 0.52719 0.21517 0.0
C975 C 0.03921 0.53199 0.24066 0.0
C976 C 0.45965 0.5211 0.20974 0.0
C977 C 0.48875 0.54094 0.22938 0.0
C978 C 0.46858 0.51672 0.18562 0.0
C979 C 0.50693 0.53169 0.18026 0.0
H980 H 0.42978 0.50952 0.21294 0.0
H981 H 0.44526 0.5015 0.17105 0.0
S982 S 0.59369 0.58511 0.2253 0.0
N983 N 0.55741 0.5745 0.242 0.0
N984 N 0.57421 0.56721 0.19671 0.0
C985 C 0.53624 0.55115 0.19982 0.0
C986 C 0.52716 0.55558 0.22433 0.0
C987 C 0.92719 0.44629 0.81222 0.0
C988 C 0.94997 0.47249 0.79583 0.0
C989 C 0.94039 0.45015 0.83725 0.0
C990 C 0.9768 0.4805 0.84693 0.0
H991 H 0.89923 0.4221 0.80552 0.0
H992 H 0.92225 0.42882 0.84905 0.0
S993 S 0.04783 0.55664 0.81198 0.0
N994 N 0.01092 0.5298 0.79122 0.0
N995 N 0.03535 0.53729 0.83832 0.0
C996 C 0.99941 0.50753 0.83099 0.0
C997 C 0.9861 0.50349 0.80545 0.0
C998 C 0.5447 0.45979 0.80775 0.0
C999 C 0.55412 0.48654 0.78999 0.0
C1000 C 0.53182 0.46507 0.83028 0.0
C1001 C 0.52747 0.49714 0.83592 0.0
H1002 H 0.54791 0.43484 0.80439 0.0
H1003 H 0.52496 0.4437 0.84335 0.0
S1004 S 0.54773 0.57538 0.79563 0.0
N1005 N 0.5574 0.54593 0.77943 0.0
N1006 N 0.53395 0.55621 0.82188 0.0
C1007 C 0.53655 0.52398 0.81827 0.0
C1008 C 0.54974 0.51865 0.79534 0.0
C1009 C 0.52416 0.0889 0.82861 0.0
C1010 C 0.52969 0.06852 0.80894 0.0
C1011 C 0.51753 0.0752 0.8521 0.0
C1012 C 0.51625 0.0406 0.85691 0.0
H1013 H 0.52492 0.11569 0.82581 0.0
H1014 H 0.51343 0.09188 0.86663 0.0
S1015 S 0.52631 0.97497 0.81142 0.0
N1016 N 0.53165 0.01098 0.79567 0.0
N1017 N 0.51955 0.9855 0.83977 0.0
C1018 C 0.52171 0.01993 0.83744 0.0
C1019 C 0.52833 0.0338 0.8135 0.0
C1020 C 0.15579 0.30426 0.56955 0.0
C1021 C 0.12029 0.27038 0.5705 0.0
C1022 C 0.16618 0.32197 0.54751 0.0
C1023 C 0.14163 0.30659 0.52535 0.0
H1024 H 0.17549 0.31781 0.58614 0.0
H1025 H 0.19379 0.34802 0.54786 0.0
S1026 S 0.04566 0.21794 0.51758 0.0
N1027 N 0.06093 0.22153 0.547 0.0
N1028 N 0.08003 0.25525 0.50578 0.0
C1029 C 0.1062 0.27247 0.52592 0.0
C1030 C 0.0956 0.25438 0.54841 0.0
C1031 C 0.70427 0.81452 0.56723 0.0
C1032 C 0.7315 0.85178 0.57782 0.0
C1033 C 0.6894 0.80771 0.54234 0.0
C1034 C 0.70134 0.83781 0.52691 0.0
H1035 H 0.69358 0.79048 0.57845 0.0
H1036 H 0.66824 0.77858 0.53512 0.0
S1037 S 0.773 0.94045 0.54527 0.0
N1038 N 0.77071 0.91903 0.5707 0.0
N1039 N 0.74253 0.90626 0.52392 0.0
C1040 C 0.72912 0.8751 0.53708 0.0
C1041 C 0.74414 0.88209 0.56252 0.0
C1042 C 0.19154 0.88691 0.55799 0.0
C1043 C 0.15403 0.87766 0.5624 0.0
C1044 C 0.20117 0.88419 0.53393 0.0
C1045 C 0.17376 0.87238 0.51323 0.0
H1046 H 0.21364 0.8962 0.57331 0.0
H1047 H 0.23042 0.89144 0.53152 0.0
S1048 S 0.0717 0.84619 0.51484 0.0
N1049 N 0.08934 0.85658 0.54421 0.0
N1050 N 0.10754 0.85214 0.49885 0.0
C1051 C 0.13602 0.86284 0.51742 0.0
C1052 C 0.12615 0.86535 0.54201 0.0
C1053 C 0.65132 0.82489 0.13845 0.0
C1054 C 0.61523 0.79385 0.12886 0.0
C1055 C 0.66461 0.82957 0.16353 0.0
C1056 C 0.64232 0.80352 0.18013 0.0
H1057 H 0.67003 0.84513 0.12632 0.0
H1058 H 0.69279 0.85365 0.16994 0.0
S1059 S 0.54496 0.71839 0.16468 0.0
N1060 N 0.55662 0.73762 0.13822 0.0
N1061 N 0.58192 0.74597 0.18526 0.0
C1062 C 0.60575 0.77289 0.17095 0.0
C1063 C 0.5922 0.76811 0.14536 0.0
C1064 C 0.20699 0.80588 0.13751 0.0
C1065 C 0.22522 0.83737 0.12333 0.0
C1066 C 0.19426 0.80976 0.16045 0.0
C1067 C 0.19949 0.84533 0.17016 0.0
H1068 H 0.20298 0.77813 0.13098 0.0
H1069 H 0.18075 0.78491 0.17086 0.0
S1070 S 0.24172 0.93559 0.13938 0.0
N1071 N 0.24487 0.90457 0.11997 0.0
N1072 N 0.22179 0.91189 0.16318 0.0
C1073 C 0.21696 0.87679 0.15601 0.0
C1074 C 0.2296 0.87282 0.13261 0.0
C1075 C 0.18357 0.36311 0.14677 0.0
C1076 C 0.18862 0.39962 0.14314 0.0
C1077 C 0.17443 0.34766 0.16959 0.0
C1078 C 0.17004 0.36809 0.18976 0.0
H1079 H 0.18638 0.34617 0.13177 0.0
H1080 H 0.17048 0.31929 0.17138 0.0
S1081 S 0.18262 0.46591 0.19034 0.0
N1082 N 0.1899 0.45641 0.1619 0.0
N1083 N 0.17305 0.42756 0.20481 0.0
C1084 C 0.17522 0.40474 0.18641 0.0
C1085 C 0.18442 0.42043 0.16313 0.0
C1086 C 0.76401 0.59459 0.88271 0.0
C1087 C 0.78986 0.60142 0.90356 0.0
C1088 C 0.77647 0.61426 0.86154 0.0
C1089 C 0.81532 0.64191 0.8603 0.0
H1090 H 0.73379 0.5736 0.88267 0.0
H1091 H 0.75532 0.60811 0.84612 0.0
S1092 S 0.89486 0.67029 0.90966 0.0
N1093 N 0.85629 0.63786 0.92152 0.0
N1094 N 0.8798 0.67443 0.88168 0.0
C1095 C 0.84156 0.64891 0.88094 0.0
C1096 C 0.82886 0.62872 0.90251 0.0
C1097 C 0.40465 0.20916 0.90061 0.0
C1098 C 0.39469 0.17895 0.91576 0.0
C1099 C 0.38961 0.20192 0.87568 0.0
C1100 C 0.36366 0.16425 0.86515 0.0
H1101 H 0.42425 0.23861 0.90807 0.0
H1102 H 0.39769 0.22602 0.86472 0.0
S1103 S 0.32869 0.07512 0.89684 0.0
N1104 N 0.35733 0.10996 0.91837 0.0
N1105 N 0.3295 0.09638 0.87156 0.0
C1106 C 0.35378 0.13381 0.88004 0.0
C1107 C 0.3692 0.14114 0.90532 0.0
C1108 C 0.82928 0.18696 0.89314 0.0
C1109 C 0.82433 0.21801 0.90084 0.0
C1110 C 0.83671 0.18153 0.86878 0.0
C1111 C 0.83911 0.20669 0.85105 0.0
H1112 H 0.82861 0.16736 0.90625 0.0
H1113 H 0.84098 0.15761 0.86384 0.0
S1114 S 0.82681 0.29159 0.86151 0.0
N1115 N 0.82087 0.2734 0.88848 0.0
N1116 N 0.83531 0.26353 0.84287 0.0
C1117 C 0.83327 0.23731 0.85834 0.0
C1118 C 0.82585 0.24291 0.88317 0.0
C1119 C 0.3155 0.16481 0.47566 0.0
C1120 C 0.28001 0.13377 0.46519 0.0
C1121 C 0.3272 0.16884 0.50097 0.0
C1122 C 0.30383 0.1421 0.51685 0.0
H1123 H 0.33508 0.18544 0.46406 0.0
H1124 H 0.35511 0.19276 0.50809 0.0
S1125 S 0.20729 0.05688 0.49892 0.0
N1126 N 0.22064 0.07701 0.47291 0.0
N1127 N 0.24298 0.08405 0.52038 0.0
C1128 C 0.26773 0.1116 0.50678 0.0
C1129 C 0.2558 0.10751 0.48099 0.0
C1130 C 0.89774 0.18954 0.47135 0.0
C1131 C 0.89465 0.15415 0.46347 0.0
C1132 C 0.88542 0.1951 0.49402 0.0
C1133 C 0.86984 0.16564 0.50992 0.0
H1134 H 0.90904 0.21295 0.45963 0.0
H1135 H 0.8882 0.22278 0.49917 0.0
S1136 S 0.85634 0.06784 0.49834 0.0
N1137 N 0.87564 0.08944 0.47373 0.0
N1138 N 0.85221 0.09978 0.51622 0.0
C1139 C 0.86708 0.13027 0.50246 0.0
C1140 C 0.87943 0.12453 0.47928 0.0
C1141 C 0.82563 0.71047 0.4795 0.0
C1142 C 0.86305 0.73674 0.47401 0.0
C1143 C 0.81853 0.69662 0.50288 0.0
C1144 C 0.84849 0.70851 0.52193 0.0
H1145 H 0.80151 0.70022 0.4655 0.0
H1146 H 0.78913 0.67674 0.50615 0.0
S1147 S 0.95185 0.77666 0.51718 0.0
N1148 N 0.93057 0.77416 0.48967 0.0
N1149 N 0.9173 0.74776 0.53353 0.0
C1150 C 0.88612 0.73469 0.51672 0.0
C1151 C 0.89339 0.74874 0.4928 0.0
loop_
_geom_bond_atom_site_label_1
_geom_bond_atom_site_label_2
_geom_bond_distance
_geom_bond_site_symmetry_2
_ccdc_geom_bond_type
H0 C3 0.929 . S
H1 C6 0.929 . S
H2 C8 0.930 . S
C3 H0 0.929 . S
C3 C4 1.398 . S
C3 C5 1.396 . S
C4 C3 1.398 . S
C4 C8 1.407 . S
C5 C3 1.396 . S
C5 C6 1.394 . S
C6 H1 0.929 . S
C6 C5 1.394 . S
C6 C7 1.382 . S
C7 C6 1.382 . S
C7 C8 1.392 . S
C7 N9 1.420 . S
C8 H2 0.930 . S
C8 C4 1.407 . S
C8 C7 1.392 . S
N9 C7 1.420 . S
N9 C10 1.244 . S
C10 N9 1.244 . S
H11 C14 0.929 . S
H12 C17 0.929 . S
H13 C19 0.930 . S
C14 H11 0.929 . S
C14 C15 1.398 . S
C14 C16 1.396 . S
C15 C14 1.398 . S
C15 C19 1.407 . S
C16 C14 1.396 . S
C16 C17 1.394 . S
C17 H12 0.929 . S
C17 C16 1.394 . S
C17 C18 1.382 . S
C18 C17 1.382 . S
C18 C19 1.392 . S
C18 N20 1.420 . S
C19 H13 0.930 . S
C19 C15 1.407 . S
C19 C18 1.392 . S
N20 C18 1.420 . S
N20 C21 1.244 . S
C21 N20 1.244 . S
H22 C25 0.929 . S
H23 C28 0.929 . S
H24 C30 0.930 . S
C25 H22 0.929 . S
C25 C26 1.398 . S
C25 C27 1.396 . S
C26 C25 1.398 . S
C26 C30 1.407 . S
C27 C25 1.396 . S
C27 C28 1.394 . S
C28 H23 0.929 . S
C28 C27 1.394 . S
C28 C29 1.382 . S
C29 C28 1.382 . S
C29 C30 1.392 . S
C29 N31 1.420 . S
C30 H24 0.930 . S
C30 C26 1.407 . S
C30 C29 1.392 . S
N31 C29 1.420 . S
N31 C32 1.244 . S
C32 N31 1.244 . S
H33 C36 0.929 . S
H34 C39 0.929 . S
H35 C41 0.930 . S
C36 H33 0.929 . S
C36 C37 1.398 . S
C36 C38 1.396 . S
C37 C36 1.398 . S
C37 C41 1.407 . S
C38 C36 1.396 . S
C38 C39 1.394 . S
C39 H34 0.929 . S
C39 C38 1.394 . S
C39 C40 1.382 . S
C40 C39 1.382 . S
C40 C41 1.392 . S
C40 N42 1.420 . S
C41 H35 0.930 . S
C41 C37 1.407 . S
C41 C40 1.392 . S
N42 C40 1.420 . S
N42 C43 1.244 . S
C43 N42 1.244 . S
H44 C47 0.929 . S
H45 C50 0.929 . S
H46 C52 0.930 . S
C47 H44 0.929 . S
C47 C48 1.398 . S
C47 C49 1.396 . S
C48 C47 1.398 . S
C48 C52 1.407 . S
C49 C47 1.396 . S
C49 C50 1.394 . S
C50 H45 0.929 . S
C50 C49 1.394 . S
C50 C51 1.382 . S
C51 C50 1.382 . S
C51 C52 1.392 . S
C51 N53 1.420 . S
C52 H46 0.930 . S
C52 C48 1.407 . S
C52 C51 1.392 . S
N53 C51 1.420 . S
N53 C54 1.244 . S
C54 N53 1.244 . S
H55 C58 0.929 . S
H56 C61 0.929 . S
H57 C63 0.930 . S
C58 H55 0.929 . S
C58 C59 1.398 . S
C58 C60 1.396 . S
C59 C58 1.398 . S
C59 C63 1.407 . S
C60 C58 1.396 . S
C60 C61 1.394 . S
C61 H56 0.929 . S
C61 C60 1.394 . S
C61 C62 1.382 . S
C62 C61 1.382 . S
C62 C63 1.392 . S
C62 N64 1.420 . S
C63 H57 0.930 . S
C63 C59 1.407 . S
C63 C62 1.392 . S
N64 C62 1.420 . S
N64 C65 1.244 . S
C65 N64 1.244 . S
H66 C69 0.929 . S
H67 C72 0.929 . S
H68 C74 0.930 . S
C69 H66 0.929 . S
C69 C70 1.398 . S
C69 C71 1.396 . S
C70 C69 1.398 . S
C70 C74 1.407 . S
C71 C69 1.396 . S
C71 C72 1.394 . S
C72 H67 0.929 . S
C72 C71 1.394 . S
C72 C73 1.382 . S
C73 C72 1.382 . S
C73 C74 1.392 . S
C73 N75 1.420 . S
C74 H68 0.930 . S
C74 C70 1.407 . S
C74 C73 1.392 . S
N75 C73 1.420 . S
N75 C76 1.244 . S
C76 N75 1.244 . S
H77 C80 0.929 . S
H78 C83 0.929 . S
H79 C85 0.930 . S
C80 H77 0.929 . S
C80 C81 1.398 . S
C80 C82 1.396 . S
C81 C80 1.398 . S
C81 C85 1.407 . S
C82 C80 1.396 . S
C82 C83 1.394 . S
C83 H78 0.929 . S
C83 C82 1.394 . S
C83 C84 1.382 . S
C84 C83 1.382 . S
C84 C85 1.392 . S
C84 N86 1.420 . S
C85 H79 0.930 . S
C85 C81 1.407 . S
C85 C84 1.392 . S
N86 C84 1.420 . S
N86 C87 1.244 . S
C87 N86 1.244 . S
H88 C91 0.929 . S
H89 C94 0.929 . S
H90 C96 0.930 . S
C91 H88 0.929 . S
C91 C92 1.398 . S
C91 C93 1.396 . S
C92 C91 1.398 . S
C92 C96 1.407 . S
C93 C91 1.396 . S
C93 C94 1.394 . S
C94 H89 0.929 . S
C94 C93 1.394 . S
C94 C95 1.382 . S
C95 C94 1.382 . S
C95 C96 1.392 . S
C95 N97 1.420 . S
C96 H90 0.930 . S
C96 C92 1.407 . S
C96 C95 1.392 . S
N97 C95 1.420 . S
N97 C98 1.244 . S
C98 N97 1.244 . S
H99 C102 0.929 . S
H100 C105 0.929 . S
H101 C107 0.930 . S
C102 H99 0.929 . S
C102 C103 1.398 . S
C102 C104 1.396 . S
C103 C102 1.398 . S
C103 C107 1.407 . S
C104 C102 1.396 . S
C104 C105 1.394 . S
C105 H100 0.929 . S
C105 C104 1.394 . S
C105 C106 1.382 . S
C106 C105 1.382 . S
C106 C107 1.392 . S
C106 N108 1.420 . S
C107 H101 0.930 . S
C107 C103 1.407 . S
C107 C106 1.392 . S
N108 C106 1.420 . S
N108 C109 1.244 . S
C109 N108 1.244 . S
H110 C113 0.929 . S
H111 C116 0.929 . S
H112 C118 0.930 1_554 S
C113 H110 0.929 . S
C113 C114 1.398 . S
C113 C115 1.396 . S
C114 C113 1.398 . S
C114 C118 1.407 . S
C115 C113 1.396 . S
C115 C116 1.394 . S
C116 H111 0.929 . S
C116 C115 1.394 . S
C116 C117 1.382 . S
C117 C116 1.382 . S
C117 C118 1.392 . S
C117 N119 1.420 . S
C118 H112 0.930 1_556 S
C118 C114 1.407 . S
C118 C117 1.392 . S
N119 C117 1.420 . S
N119 C120 1.244 . S
C120 N119 1.244 . S
H121 C124 0.929 . S
H122 C127 0.929 . S
H123 C129 0.930 . S
C124 H121 0.929 . S
C124 C125 1.398 . S
C124 C126 1.396 . S
C125 C124 1.398 . S
C125 C129 1.407 . S
C126 C124 1.396 . S
C126 C127 1.394 . S
C127 H122 0.929 . S
C127 C126 1.394 . S
C127 C128 1.382 . S
C128 C127 1.382 . S
C128 C129 1.392 . S
C128 N130 1.420 . S
C129 H123 0.930 . S
C129 C125 1.407 . S
C129 C128 1.392 . S
N130 C128 1.420 . S
N130 C131 1.244 . S
C131 N130 1.244 . S
H132 C135 0.929 . S
H133 C138 0.929 . S
H134 C140 0.930 . S
C135 H132 0.929 . S
C135 C136 1.398 . S
C135 C137 1.396 . S
C136 C135 1.398 . S
C136 C140 1.407 . S
C137 C135 1.396 . S
C137 C138 1.394 . S
C138 H133 0.929 . S
C138 C137 1.394 . S
C138 C139 1.382 . S
C139 C138 1.382 . S
C139 C140 1.392 . S
C139 N141 1.420 . S
C140 H134 0.930 . S
C140 C136 1.407 . S
C140 C139 1.392 . S
N141 C139 1.420 . S
N141 C142 1.244 . S
C142 N141 1.244 . S
H143 C146 0.929 . S
H144 C149 0.929 . S
H145 C151 0.930 . S
C146 H143 0.929 . S
C146 C147 1.398 . S
C146 C148 1.396 . S
C147 C146 1.398 . S
C147 C151 1.407 . S
C148 C146 1.396 . S
C148 C149 1.394 . S
C149 H144 0.929 . S
C149 C148 1.394 . S
C149 C150 1.382 . S
C150 C149 1.382 . S
C150 C151 1.392 . S
C150 N152 1.420 . S
C151 H145 0.930 . S
C151 C147 1.407 . S
C151 C150 1.392 . S
N152 C150 1.420 . S
N152 C153 1.244 . S
C153 N152 1.244 . S
H154 C157 0.929 . S
H155 C160 0.929 . S
H156 C162 0.930 . S
C157 H154 0.929 . S
C157 C158 1.398 . S
C157 C159 1.396 . S
C158 C157 1.398 . S
C158 C162 1.407 . S
C159 C157 1.396 . S
C159 C160 1.394 . S
C160 H155 0.929 . S
C160 C159 1.394 . S
C160 C161 1.382 . S
C161 C160 1.382 . S
C161 C162 1.392 . S
C161 N163 1.420 . S
C162 H156 0.930 . S
C162 C158 1.407 . S
C162 C161 1.392 . S
N163 C161 1.420 . S
N163 C164 1.244 . S
C164 N163 1.244 . S
H165 C168 0.929 . S
H166 C171 0.929 . S
H167 C173 0.930 . S
C168 H165 0.929 . S
C168 C169 1.398 . S
C168 C170 1.396 . S
C169 C168 1.398 . S
C169 C173 1.407 . S
C170 C168 1.396 . S
C170 C171 1.394 . S
C171 H166 0.929 . S
C171 C170 1.394 . S
C171 C172 1.382 . S
C172 C171 1.382 . S
C172 C173 1.392 . S
C172 N174 1.420 . S
C173 H167 0.930 . S
C173 C169 1.407 . S
C173 C172 1.392 . S
N174 C172 1.420 . S
N174 C175 1.244 . S
C175 N174 1.244 . S
H176 C179 0.929 . S
H177 C182 0.929 . S
H178 C184 0.930 . S
C179 H176 0.929 . S
C179 C180 1.398 . S
C179 C181 1.396 . S
C180 C179 1.398 . S
C180 C184 1.407 . S
C181 C179 1.396 . S
C181 C182 1.394 . S
C182 H177 0.929 . S
C182 C181 1.394 . S
C182 C183 1.382 . S
C183 C182 1.382 . S
C183 C184 1.392 . S
C183 N185 1.420 . S
C184 H178 0.930 . S
C184 C180 1.407 . S
C184 C183 1.392 . S
N185 C183 1.420 . S
N185 C186 1.244 . S
C186 N185 1.244 . S
H187 C190 0.929 . S
H188 C193 0.929 . S
H189 C195 0.930 . S
C190 H187 0.929 . S
C190 C191 1.398 . S
C190 C192 1.396 . S
C191 C190 1.398 . S
C191 C195 1.407 . S
C192 C190 1.396 . S
C192 C193 1.394 . S
C193 H188 0.929 . S
C193 C192 1.394 . S
C193 C194 1.382 . S
C194 C193 1.382 . S
C194 C195 1.392 . S
C194 N196 1.420 . S
C195 H189 0.930 . S
C195 C191 1.407 . S
C195 C194 1.392 . S
N196 C194 1.420 . S
N196 C197 1.244 . S
C197 N196 1.244 . S
Eu198 C207 2.828 1_565 S
Eu198 O209 2.392 . S
Eu198 O211 2.418 . S
Eu198 O216 2.373 1_565 S
Eu198 O219 2.488 . S
Eu198 O220 2.471 1_565 S
Eu198 O221 2.349 1_565 S
Eu199 O208 2.373 1_545 S
Eu199 O212 2.488 . S
Eu199 O213 2.471 1_545 S
Eu199 O214 2.349 1_545 S
Eu199 O217 2.392 . S
Eu199 O218 2.418 . S
Eu199 C228 2.828 . S
C200 O218 1.244 . S
C200 O221 1.265 1_554 S
C201 C202 1.379 . S
C201 C205 1.373 1_545 S
C201 C207 1.505 . S
C202 C201 1.379 . S
C202 C204 1.369 . S
C202 H230 0.930 . S
C203 C205 1.383 1_545 S
C203 C206 1.382 . S
C203 H231 0.930 1_545 S
C204 C202 1.369 . S
C204 C206 1.392 . S
C204 H232 0.930 . S
C205 C201 1.373 1_565 S
C205 C203 1.383 1_565 S
C205 H233 0.931 . S
C206 C203 1.382 . S
C206 C204 1.392 . S
C207 Eu198 2.828 1_545 S
C207 C201 1.505 . S
C207 O219 1.249 1_545 S
C207 O220 1.244 . S
O208 Eu199 2.373 1_565 S
O208 C210 1.258 . S
O209 Eu198 2.392 . S
O209 C210 1.242 1_556 S
C210 O208 1.258 . S
C210 O209 1.242 1_554 S
O211 Eu198 2.418 . S
O211 C215 1.244 1_556 S
O212 Eu199 2.488 . S
O212 C228 1.249 . S
O213 Eu199 2.471 1_565 S
O213 C228 1.244 1_565 S
O214 Eu199 2.349 1_565 S
O214 C215 1.265 . S
C215 O211 1.244 1_554 S
C215 O214 1.265 . S
O216 Eu198 2.373 1_545 S
O216 C229 1.258 . S
O217 Eu199 2.392 . S
O217 C229 1.242 1_554 S
O218 Eu199 2.418 . S
O218 C200 1.244 . S
O219 Eu198 2.488 . S
O219 C207 1.249 1_565 S
O220 Eu198 2.471 1_545 S
O220 C207 1.244 . S
O221 Eu198 2.349 1_545 S
O221 C200 1.265 1_556 S
C222 C223 1.379 . S
C222 C226 1.373 1_565 S
C222 C228 1.505 1_565 S
C223 C222 1.379 . S
C223 C225 1.369 . S
C223 H234 0.930 . S
C224 C226 1.383 . S
C224 C227 1.382 1_545 S
C224 H235 0.930 . S
C225 C223 1.369 . S
C225 C227 1.392 . S
C225 H236 0.930 . S
C226 C222 1.373 1_545 S
C226 C224 1.383 . S
C226 H237 0.931 . S
C227 C224 1.382 1_565 S
C227 C225 1.392 . S
C228 Eu199 2.828 . S
C228 O212 1.249 . S
C228 O213 1.244 1_545 S
C228 C222 1.505 1_545 S
C229 O216 1.258 . S
C229 O217 1.242 1_556 S
H230 C202 0.930 . S
H231 C203 0.930 1_565 S
H232 C204 0.930 . S
H233 C205 0.931 . S
H234 C223 0.930 . S
H235 C224 0.930 . S
H236 C225 0.930 . S
H237 C226 0.931 . S
Eu238 C247 2.829 . S
Eu238 O249 2.392 1_556 S
Eu238 O251 2.418 . S
Eu238 O256 2.373 1_455 S
Eu238 O259 2.488 . S
Eu238 O260 2.471 1_455 S
Eu238 O261 2.349 1_455 S
Eu239 O248 2.373 1_655 S
Eu239 O252 2.488 . S
Eu239 O253 2.471 1_655 S
Eu239 O254 2.349 1_655 S
Eu239 O257 2.392 . S
Eu239 O258 2.418 . S
Eu239 C268 2.828 1_655 S
C240 O258 1.244 1_556 S
C240 O261 1.265 . S
C241 C242 1.379 . S
C241 C245 1.373 1_655 S
C241 C247 1.504 1_655 S
C242 C241 1.379 . S
C242 C244 1.369 . S
C242 H270 0.930 . S
C243 C245 1.383 1_655 S
C243 C246 1.382 . S
C243 H271 0.930 1_655 S
C244 C242 1.369 . S
C244 C246 1.392 . S
C244 H272 0.930 . S
C245 C241 1.373 1_455 S
C245 C243 1.383 1_455 S
C245 H273 0.931 . S
C246 C243 1.382 . S
C246 C244 1.392 . S
C247 Eu238 2.829 . S
C247 C241 1.504 1_455 S
C247 O259 1.250 . S
C247 O260 1.244 1_455 S
O248 Eu239 2.373 1_455 S
O248 C250 1.258 . S
O249 Eu238 2.392 1_554 S
O249 C250 1.242 . S
C250 O248 1.258 . S
C250 O249 1.242 . S
O251 Eu238 2.418 . S
O251 C255 1.244 1_556 S
O252 Eu239 2.488 . S
O252 C268 1.249 1_655 S
O253 Eu239 2.471 1_455 S
O253 C268 1.244 . S
O254 Eu239 2.349 1_455 S
O254 C255 1.265 . S
C255 O251 1.244 1_554 S
C255 O254 1.265 . S
O256 Eu238 2.373 1_655 S
O256 C269 1.258 . S
O257 Eu239 2.392 . S
O257 C269 1.242 1_554 S
O258 Eu239 2.418 . S
O258 C240 1.244 1_554 S
O259 Eu238 2.488 . S
O259 C247 1.250 . S
O260 Eu238 2.471 1_655 S
O260 C247 1.244 1_655 S
O261 Eu238 2.349 1_655 S
O261 C240 1.265 . S
C262 C263 1.379 . S
C262 C266 1.373 1_455 S
C262 C268 1.505 . S
C263 C262 1.379 . S
C263 C265 1.369 . S
C263 H274 0.930 . S
C264 C266 1.383 1_455 S
C264 C267 1.382 . S
C264 H275 0.930 1_455 S
C265 C263 1.369 . S
C265 C267 1.392 . S
C265 H276 0.930 . S
C266 C262 1.373 1_655 S
C266 C264 1.383 1_655 S
C266 H277 0.931 . S
C267 C264 1.382 . S
C267 C265 1.392 . S
C268 Eu239 2.828 1_455 S
C268 O252 1.249 1_455 S
C268 O253 1.244 . S
C268 C262 1.505 . S
C269 O256 1.258 . S
C269 O257 1.242 1_556 S
H270 C242 0.930 . S
H271 C243 0.930 1_455 S
H272 C244 0.930 . S
H273 C245 0.931 . S
H274 C263 0.930 . S
H275 C264 0.930 1_655 S
H276 C265 0.930 . S
H277 C266 0.931 . S
Eu278 C287 2.828 . S
Eu278 O289 2.392 . S
Eu278 O291 2.418 . S
Eu278 O296 2.373 . S
Eu278 O299 2.488 . S
Eu278 O300 2.471 . S
Eu278 O301 2.349 . S
Eu279 O288 2.373 . S
Eu279 O292 2.488 . S
Eu279 O293 2.471 . S
Eu279 O294 2.349 . S
Eu279 O297 2.392 1_556 S
Eu279 O298 2.418 . S
Eu279 C308 2.828 . S
C280 O298 1.244 1_554 S
C280 O301 1.265 . S
C281 C282 1.379 . S
C281 C285 1.373 . S
C281 C287 1.505 . S
C282 C281 1.379 . S
C282 C284 1.369 . S
C282 H310 0.930 . S
C283 C285 1.383 . S
C283 C286 1.382 . S
C283 H311 0.930 . S
C284 C282 1.369 . S
C284 C286 1.392 . S
C284 H312 0.930 . S
C285 C281 1.373 . S
C285 C283 1.383 . S
C285 H313 0.931 . S
C286 C283 1.382 . S
C286 C284 1.392 . S
C287 Eu278 2.828 . S
C287 C281 1.505 . S
C287 O299 1.249 . S
C287 O300 1.244 . S
O288 Eu279 2.373 . S
O288 C290 1.258 . S
O289 Eu278 2.392 . S
O289 C290 1.242 1_554 S
C290 O288 1.258 . S
C290 O289 1.242 1_556 S
O291 Eu278 2.418 . S
O291 C295 1.244 . S
O292 Eu279 2.488 . S
O292 C308 1.249 . S
O293 Eu279 2.471 . S
O293 C308 1.244 . S
O294 Eu279 2.349 . S
O294 C295 1.265 1_556 S
C295 O291 1.244 . S
C295 O294 1.265 1_554 S
O296 Eu278 2.373 . S
O296 C309 1.258 . S
O297 Eu279 2.392 1_554 S
O297 C309 1.242 . S
O298 Eu279 2.418 . S
O298 C280 1.244 1_556 S
O299 Eu278 2.488 . S
O299 C287 1.249 . S
O300 Eu278 2.471 . S
O300 C287 1.244 . S
O301 Eu278 2.349 . S
O301 C280 1.265 . S
C302 C303 1.379 . S
C302 C306 1.373 . S
C302 C308 1.505 . S
C303 C302 1.379 . S
C303 C305 1.369 . S
C303 H314 0.930 . S
C304 C306 1.383 . S
C304 C307 1.382 . S
C304 H315 0.930 . S
C305 C303 1.369 . S
C305 C307 1.392 . S
C305 H316 0.930 . S
C306 C302 1.373 . S
C306 C304 1.383 . S
C306 H317 0.931 . S
C307 C304 1.382 . S
C307 C305 1.392 . S
C308 Eu279 2.828 . S
C308 O292 1.249 . S
C308 O293 1.244 . S
C308 C302 1.505 . S
C309 O296 1.258 . S
C309 O297 1.242 . S
H310 C282 0.930 . S
H311 C283 0.930 . S
H312 C284 0.930 . S
H313 C285 0.931 . S
H314 C303 0.930 . S
H315 C304 0.930 . S
H316 C305 0.930 . S
H317 C306 0.931 . S
Eu318 C327 2.828 . S
Eu318 O329 2.392 . S
Eu318 O331 2.418 . S
Eu318 O336 2.373 . S
Eu318 O339 2.488 . S
Eu318 O340 2.471 . S
Eu318 O341 2.349 . S
Eu319 O328 2.373 . S
Eu319 O332 2.488 . S
Eu319 O333 2.471 . S
Eu319 O334 2.349 . S
Eu319 O337 2.392 . S
Eu319 O338 2.418 . S
Eu319 C348 2.828 . S
C320 O338 1.244 . S
C320 O341 1.265 . S
C321 C322 1.379 . S
C321 C325 1.373 . S
C321 C327 1.505 . S
C322 C321 1.379 . S
C322 C324 1.369 . S
C322 H350 0.930 . S
C323 C325 1.383 . S
C323 C326 1.382 . S
C323 H351 0.930 . S
C324 C322 1.369 . S
C324 C326 1.392 . S
C324 H352 0.930 . S
C325 C321 1.373 . S
C325 C323 1.383 . S
C325 H353 0.931 . S
C326 C323 1.382 . S
C326 C324 1.392 . S
C327 Eu318 2.828 . S
C327 C321 1.505 . S
C327 O339 1.249 . S
C327 O340 1.244 . S
O328 Eu319 2.373 . S
O328 C330 1.258 . S
O329 Eu318 2.392 . S
O329 C330 1.242 . S
C330 O328 1.258 . S
C330 O329 1.242 . S
O331 Eu318 2.418 . S
O331 C335 1.244 . S
O332 Eu319 2.488 . S
O332 C348 1.249 . S
O333 Eu319 2.471 . S
O333 C348 1.244 . S
O334 Eu319 2.349 . S
O334 C335 1.265 . S
C335 O331 1.244 . S
C335 O334 1.265 . S
O336 Eu318 2.373 . S
O336 C349 1.258 . S
O337 Eu319 2.392 . S
O337 C349 1.242 . S
O338 Eu319 2.418 . S
O338 C320 1.244 . S
O339 Eu318 2.488 . S
O339 C327 1.249 . S
O340 Eu318 2.471 . S
O340 C327 1.244 . S
O341 Eu318 2.349 . S
O341 C320 1.265 . S
C342 C343 1.379 . S
C342 C346 1.373 . S
C342 C348 1.505 . S
C343 C342 1.379 . S
C343 C345 1.369 . S
C343 H354 0.930 . S
C344 C346 1.383 . S
C344 C347 1.382 . S
C344 H355 0.930 . S
C345 C343 1.369 . S
C345 C347 1.392 . S
C345 H356 0.930 . S
C346 C342 1.373 . S
C346 C344 1.383 . S
C346 H357 0.931 . S
C347 C344 1.382 . S
C347 C345 1.392 . S
C348 Eu319 2.828 . S
C348 O332 1.249 . S
C348 O333 1.244 . S
C348 C342 1.505 . S
C349 O336 1.258 . S
C349 O337 1.242 . S
H350 C322 0.930 . S
H351 C323 0.930 . S
H352 C324 0.930 . S
H353 C325 0.931 . S
H354 C343 0.930 . S
H355 C344 0.930 . S
H356 C345 0.930 . S
H357 C346 0.931 . S
Eu358 C367 2.828 . S
Eu358 O369 2.392 . S
Eu358 O371 2.418 . S
Eu358 O376 2.373 . S
Eu358 O379 2.488 . S
Eu358 O380 2.471 . S
Eu358 O381 2.349 . S
Eu359 O368 2.373 . S
Eu359 O372 2.488 . S
Eu359 O373 2.471 . S
Eu359 O374 2.349 . S
Eu359 O377 2.392 . S
Eu359 O378 2.418 . S
Eu359 C388 2.828 . S
C360 O378 1.244 . S
C360 O381 1.265 . S
C361 C362 1.379 . S
C361 C365 1.373 . S
C361 C367 1.505 . S
C362 C361 1.379 . S
C362 C364 1.369 . S
C362 H390 0.930 . S
C363 C365 1.383 . S
C363 C366 1.382 . S
C363 H391 0.930 . S
C364 C362 1.369 . S
C364 C366 1.392 . S
C364 H392 0.930 . S
C365 C361 1.373 . S
C365 C363 1.383 . S
C365 H393 0.931 . S
C366 C363 1.382 . S
C366 C364 1.392 . S
C367 Eu358 2.828 . S
C367 C361 1.505 . S
C367 O379 1.249 . S
C367 O380 1.244 . S
O368 Eu359 2.373 . S
O368 C370 1.258 . S
O369 Eu358 2.392 . S
O369 C370 1.242 . S
C370 O368 1.258 . S
C370 O369 1.242 . S
O371 Eu358 2.418 . S
O371 C375 1.244 . S
O372 Eu359 2.488 . S
O372 C388 1.249 . S
O373 Eu359 2.471 . S
O373 C388 1.244 . S
O374 Eu359 2.349 . S
O374 C375 1.265 . S
C375 O371 1.244 . S
C375 O374 1.265 . S
O376 Eu358 2.373 . S
O376 C389 1.258 . S
O377 Eu359 2.392 . S
O377 C389 1.242 . S
O378 Eu359 2.418 . S
O378 C360 1.244 . S
O379 Eu358 2.488 . S
O379 C367 1.249 . S
O380 Eu358 2.471 . S
O380 C367 1.244 . S
O381 Eu358 2.349 . S
O381 C360 1.265 . S
C382 C383 1.379 . S
C382 C386 1.373 . S
C382 C388 1.505 . S
C383 C382 1.379 . S
C383 C385 1.369 . S
C383 H394 0.930 . S
C384 C386 1.383 . S
C384 C387 1.382 . S
C384 H395 0.930 . S
C385 C383 1.369 . S
C385 C387 1.392 . S
C385 H396 0.930 . S
C386 C382 1.373 . S
C386 C384 1.383 . S
C386 H397 0.931 . S
C387 C384 1.382 . S
C387 C385 1.392 . S
C388 Eu359 2.828 . S
C388 O372 1.249 . S
C388 O373 1.244 . S
C388 C382 1.505 . S
C389 O376 1.258 . S
C389 O377 1.242 . S
H390 C362 0.930 . S
H391 C363 0.930 . S
H392 C364 0.930 . S
H393 C365 0.931 . S
H394 C383 0.930 . S
H395 C384 0.930 . S
H396 C385 0.930 . S
H397 C386 0.931 . S
Eu398 C407 2.828 . S
Eu398 O409 2.392 . S
Eu398 O411 2.418 . S
Eu398 O416 2.373 . S
Eu398 O419 2.488 . S
Eu398 O420 2.471 . S
Eu398 O421 2.349 . S
Eu399 O408 2.373 . S
Eu399 O412 2.488 . S
Eu399 O413 2.471 . S
Eu399 O414 2.349 . S
Eu399 O417 2.392 . S
Eu399 O418 2.418 . S
Eu399 C428 2.828 . S
C400 O418 1.244 . S
C400 O421 1.265 . S
C401 C402 1.379 . S
C401 C405 1.373 . S
C401 C407 1.505 . S
C402 C401 1.379 . S
C402 C404 1.369 . S
C402 H430 0.930 . S
C403 C405 1.383 . S
C403 C406 1.382 . S
C403 H431 0.930 . S
C404 C402 1.369 . S
C404 C406 1.392 . S
C404 H432 0.930 . S
C405 C401 1.373 . S
C405 C403 1.383 . S
C405 H433 0.931 . S
C406 C403 1.382 . S
C406 C404 1.392 . S
C407 Eu398 2.828 . S
C407 C401 1.505 . S
C407 O419 1.249 . S
C407 O420 1.244 . S
O408 Eu399 2.373 . S
O408 C410 1.258 . S
O409 Eu398 2.392 . S
O409 C410 1.242 . S
C410 O408 1.258 . S
C410 O409 1.242 . S
O411 Eu398 2.418 . S
O411 C415 1.244 . S
O412 Eu399 2.488 . S
O412 C428 1.249 . S
O413 Eu399 2.471 . S
O413 C428 1.244 . S
O414 Eu399 2.349 . S
O414 C415 1.265 . S
C415 O411 1.244 . S
C415 O414 1.265 . S
O416 Eu398 2.373 . S
O416 C429 1.258 . S
O417 Eu399 2.392 . S
O417 C429 1.242 . S
O418 Eu399 2.418 . S
O418 C400 1.244 . S
O419 Eu398 2.488 . S
O419 C407 1.249 . S
O420 Eu398 2.471 . S
O420 C407 1.244 . S
O421 Eu398 2.349 . S
O421 C400 1.265 . S
C422 C423 1.379 . S
C422 C426 1.373 . S
C422 C428 1.505 . S
C423 C422 1.379 . S
C423 C425 1.369 . S
C423 H434 0.930 . S
C424 C426 1.383 . S
C424 C427 1.382 . S
C424 H435 0.930 . S
C425 C423 1.369 . S
C425 C427 1.392 . S
C425 H436 0.930 . S
C426 C422 1.373 . S
C426 C424 1.383 . S
C426 H437 0.931 . S
C427 C424 1.382 . S
C427 C425 1.392 . S
C428 Eu399 2.828 . S
C428 O412 1.249 . S
C428 O413 1.244 . S
C428 C422 1.505 . S
C429 O416 1.258 . S
C429 O417 1.242 . S
H430 C402 0.930 . S
H431 C403 0.930 . S
H432 C404 0.930 . S
H433 C405 0.931 . S
H434 C423 0.930 . S
H435 C424 0.930 . S
H436 C425 0.930 . S
H437 C426 0.931 . S
Eu438 C447 2.828 . S
Eu438 O449 2.392 . S
Eu438 O451 2.418 . S
Eu438 O456 2.373 . S
Eu438 O459 2.488 . S
Eu438 O460 2.471 . S
Eu438 O461 2.349 . S
Eu439 O448 2.373 . S
Eu439 O452 2.488 . S
Eu439 O453 2.471 . S
Eu439 O454 2.349 . S
Eu439 O457 2.392 . S
Eu439 O458 2.418 . S
Eu439 C468 2.828 . S
C440 O458 1.244 . S
C440 O461 1.265 . S
C441 C442 1.379 . S
C441 C445 1.373 . S
C441 C447 1.505 . S
C442 C441 1.379 . S
C442 C444 1.369 . S
C442 H470 0.930 . S
C443 C445 1.383 . S
C443 C446 1.382 . S
C443 H471 0.930 . S
C444 C442 1.369 . S
C444 C446 1.392 . S
C444 H472 0.930 . S
C445 C441 1.373 . S
C445 C443 1.383 . S
C445 H473 0.931 . S
C446 C443 1.382 . S
C446 C444 1.392 . S
C447 Eu438 2.828 . S
C447 C441 1.505 . S
C447 O459 1.249 . S
C447 O460 1.244 . S
O448 Eu439 2.373 . S
O448 C450 1.258 . S
O449 Eu438 2.392 . S
O449 C450 1.242 . S
C450 O448 1.258 . S
C450 O449 1.242 . S
O451 Eu438 2.418 . S
O451 C455 1.244 . S
O452 Eu439 2.488 . S
O452 C468 1.249 . S
O453 Eu439 2.471 . S
O453 C468 1.244 . S
O454 Eu439 2.349 . S
O454 C455 1.265 . S
C455 O451 1.244 . S
C455 O454 1.265 . S
O456 Eu438 2.373 . S
O456 C469 1.258 . S
O457 Eu439 2.392 . S
O457 C469 1.242 . S
O458 Eu439 2.418 . S
O458 C440 1.244 . S
O459 Eu438 2.488 . S
O459 C447 1.249 . S
O460 Eu438 2.471 . S
O460 C447 1.244 . S
O461 Eu438 2.349 . S
O461 C440 1.265 . S
C462 C463 1.379 . S
C462 C466 1.373 . S
C462 C468 1.505 . S
C463 C462 1.379 . S
C463 C465 1.369 . S
C463 H474 0.930 . S
C464 C466 1.383 . S
C464 C467 1.382 . S
C464 H475 0.930 . S
C465 C463 1.369 . S
C465 C467 1.392 . S
C465 H476 0.930 . S
C466 C462 1.373 . S
C466 C464 1.383 . S
C466 H477 0.931 . S
C467 C464 1.382 . S
C467 C465 1.392 . S
C468 Eu439 2.828 . S
C468 O452 1.249 . S
C468 O453 1.244 . S
C468 C462 1.505 . S
C469 O456 1.258 . S
C469 O457 1.242 . S
H470 C442 0.930 . S
H471 C443 0.930 . S
H472 C444 0.930 . S
H473 C445 0.931 . S
H474 C463 0.930 . S
H475 C464 0.930 . S
H476 C465 0.930 . S
H477 C466 0.931 . S
Eu478 C487 2.828 . S
Eu478 O489 2.392 . S
Eu478 O491 2.418 . S
Eu478 O496 2.373 . S
Eu478 O499 2.488 . S
Eu478 O500 2.471 . S
Eu478 O501 2.349 . S
Eu479 O488 2.373 . S
Eu479 O492 2.488 . S
Eu479 O493 2.471 . S
Eu479 O494 2.349 . S
Eu479 O497 2.392 . S
Eu479 O498 2.418 . S
Eu479 C508 2.828 . S
C480 O498 1.244 . S
C480 O501 1.265 . S
C481 C482 1.379 . S
C481 C485 1.373 . S
C481 C487 1.505 . S
C482 C481 1.379 . S
C482 C484 1.369 . S
C482 H510 0.930 . S
C483 C485 1.383 . S
C483 C486 1.382 . S
C483 H511 0.930 . S
C484 C482 1.369 . S
C484 C486 1.392 . S
C484 H512 0.930 . S
C485 C481 1.373 . S
C485 C483 1.383 . S
C485 H513 0.931 . S
C486 C483 1.382 . S
C486 C484 1.392 . S
C487 Eu478 2.828 . S
C487 C481 1.505 . S
C487 O499 1.249 . S
C487 O500 1.244 . S
O488 Eu479 2.373 . S
O488 C490 1.258 . S
O489 Eu478 2.392 . S
O489 C490 1.242 . S
C490 O488 1.258 . S
C490 O489 1.242 . S
O491 Eu478 2.418 . S
O491 C495 1.244 . S
O492 Eu479 2.488 . S
O492 C508 1.249 . S
O493 Eu479 2.471 . S
O493 C508 1.244 . S
O494 Eu479 2.349 . S
O494 C495 1.265 . S
C495 O491 1.244 . S
C495 O494 1.265 . S
O496 Eu478 2.373 . S
O496 C509 1.258 . S
O497 Eu479 2.392 . S
O497 C509 1.242 . S
O498 Eu479 2.418 . S
O498 C480 1.244 . S
O499 Eu478 2.488 . S
O499 C487 1.249 . S
O500 Eu478 2.471 . S
O500 C487 1.244 . S
O501 Eu478 2.349 . S
O501 C480 1.265 . S
C502 C503 1.379 . S
C502 C506 1.373 . S
C502 C508 1.505 . S
C503 C502 1.379 . S
C503 C505 1.369 . S
C503 H514 0.930 . S
C504 C506 1.383 . S
C504 C507 1.382 . S
C504 H515 0.930 . S
C505 C503 1.369 . S
C505 C507 1.392 . S
C505 H516 0.930 . S
C506 C502 1.373 . S
C506 C504 1.383 . S
C506 H517 0.931 . S
C507 C504 1.382 . S
C507 C505 1.392 . S
C508 Eu479 2.828 . S
C508 O492 1.249 . S
C508 O493 1.244 . S
C508 C502 1.505 . S
C509 O496 1.258 . S
C509 O497 1.242 . S
H510 C482 0.930 . S
H511 C483 0.930 . S
H512 C484 0.930 . S
H513 C485 0.931 . S
H514 C503 0.930 . S
H515 C504 0.930 . S
H516 C505 0.930 . S
H517 C506 0.931 . S
Eu518 C527 2.828 . S
Eu518 O529 2.392 . S
Eu518 O531 2.418 . S
Eu518 O536 2.373 . S
Eu518 O539 2.488 . S
Eu518 O540 2.471 . S
Eu518 O541 2.349 . S
Eu519 O528 2.373 . S
Eu519 O532 2.488 . S
Eu519 O533 2.471 . S
Eu519 O534 2.349 . S
Eu519 O537 2.392 . S
Eu519 O538 2.418 . S
Eu519 C548 2.828 . S
C520 O538 1.244 . S
C520 O541 1.265 . S
C521 C522 1.379 . S
C521 C525 1.373 . S
C521 C527 1.505 . S
C522 C521 1.379 . S
C522 C524 1.369 . S
C522 H550 0.930 . S
C523 C525 1.383 . S
C523 C526 1.382 . S
C523 H551 0.930 . S
C524 C522 1.369 . S
C524 C526 1.392 . S
C524 H552 0.930 . S
C525 C521 1.373 . S
C525 C523 1.383 . S
C525 H553 0.931 . S
C526 C523 1.382 . S
C526 C524 1.392 . S
C527 Eu518 2.828 . S
C527 C521 1.505 . S
C527 O539 1.249 . S
C527 O540 1.244 . S
O528 Eu519 2.373 . S
O528 C530 1.258 . S
O529 Eu518 2.392 . S
O529 C530 1.242 . S
C530 O528 1.258 . S
C530 O529 1.242 . S
O531 Eu518 2.418 . S
O531 C535 1.244 . S
O532 Eu519 2.488 . S
O532 C548 1.249 . S
O533 Eu519 2.471 . S
O533 C548 1.244 . S
O534 Eu519 2.349 . S
O534 C535 1.265 . S
C535 O531 1.244 . S
C535 O534 1.265 . S
O536 Eu518 2.373 . S
O536 C549 1.258 . S
O537 Eu519 2.392 . S
O537 C549 1.242 . S
O538 Eu519 2.418 . S
O538 C520 1.244 . S
O539 Eu518 2.488 . S
O539 C527 1.249 . S
O540 Eu518 2.471 . S
O540 C527 1.244 . S
O541 Eu518 2.349 . S
O541 C520 1.265 . S
C542 C543 1.379 . S
C542 C546 1.373 . S
C542 C548 1.505 . S
C543 C542 1.379 . S
C543 C545 1.369 . S
C543 H554 0.930 . S
C544 C546 1.383 . S
C544 C547 1.382 . S
C544 H555 0.930 . S
C545 C543 1.369 . S
C545 C547 1.392 . S
C545 H556 0.930 . S
C546 C542 1.373 . S
C546 C544 1.383 . S
C546 H557 0.931 . S
C547 C544 1.382 . S
C547 C545 1.392 . S
C548 Eu519 2.828 . S
C548 O532 1.249 . S
C548 O533 1.244 . S
C548 C542 1.505 . S
C549 O536 1.258 . S
C549 O537 1.242 . S
H550 C522 0.930 . S
H551 C523 0.930 . S
H552 C524 0.930 . S
H553 C525 0.931 . S
H554 C543 0.930 . S
H555 C544 0.930 . S
H556 C545 0.930 . S
H557 C546 0.931 . S
C558 C559 1.369 . S
C558 C560 1.419 . S
C558 H562 0.930 . S
C559 C558 1.369 . S
C559 C568 1.429 . S
C560 C558 1.419 . S
C560 C561 1.363 . S
C560 H563 0.929 . S
C561 C560 1.363 . S
C561 C567 1.428 . S
H562 C558 0.930 . S
H563 C560 0.929 . S
S564 N565 1.613 . S
S564 N566 1.610 . S
N565 S564 1.613 . S
N565 C568 1.350 1_556 S
N566 S564 1.610 . S
N566 C567 1.351 1_556 S
C567 C561 1.428 . S
C567 N566 1.351 1_554 S
C567 C568 1.434 . S
C568 C559 1.429 . S
C568 N565 1.350 1_554 S
C568 C567 1.434 . S
C569 C570 1.369 . S
C569 C571 1.419 . S
C569 H573 0.930 . S
C570 C569 1.369 . S
C570 C579 1.429 . S
C571 C569 1.419 . S
C571 C572 1.363 . S
C571 H574 0.929 . S
C572 C571 1.363 . S
C572 C578 1.428 . S
H573 C569 0.930 . S
H574 C571 0.929 . S
S575 N576 1.613 1_556 S
S575 N577 1.610 . S
N576 S575 1.613 1_554 S
N576 C579 1.350 . S
N577 S575 1.610 . S
N577 C578 1.351 1_556 S
C578 C572 1.428 . S
C578 N577 1.351 1_554 S
C578 C579 1.434 . S
C579 C570 1.429 . S
C579 N576 1.350 . S
C579 C578 1.434 . S
C580 C581 1.369 . S
C580 C582 1.419 . S
C580 H584 0.930 . S
C581 C580 1.369 . S
C581 C590 1.429 . S
C582 C580 1.419 . S
C582 C583 1.363 . S
C582 H585 0.929 . S
C583 C582 1.363 . S
C583 C589 1.428 . S
H584 C580 0.930 . S
H585 C582 0.929 . S
S586 N587 1.613 . S
S586 N588 1.610 . S
N587 S586 1.613 . S
N587 C590 1.350 . S
N588 S586 1.610 . S
N588 C589 1.351 . S
C589 C583 1.428 . S
C589 N588 1.351 . S
C589 C590 1.434 . S
C590 C581 1.429 . S
C590 N587 1.350 . S
C590 C589 1.434 . S
C591 C592 1.369 . S
C591 C593 1.419 . S
C591 H595 0.930 . S
C592 C591 1.369 . S
C592 C601 1.429 . S
C593 C591 1.419 . S
C593 C594 1.363 . S
C593 H596 0.929 1_556 S
C594 C593 1.363 . S
C594 C600 1.428 . S
H595 C591 0.930 . S
H596 C593 0.929 1_554 S
S597 N598 1.613 . S
S597 N599 1.610 . S
N598 S597 1.613 . S
N598 C601 1.350 . S
N599 S597 1.610 . S
N599 C600 1.351 . S
C600 C594 1.428 . S
C600 N599 1.351 . S
C600 C601 1.434 . S
C601 C592 1.429 . S
C601 N598 1.350 . S
C601 C600 1.434 . S
C602 C603 1.369 . S
C602 C604 1.419 . S
C602 H606 0.930 . S
C603 C602 1.369 . S
C603 C612 1.429 . S
C604 C602 1.419 . S
C604 C605 1.363 . S
C604 H607 0.929 . S
C605 C604 1.363 . S
C605 C611 1.428 . S
H606 C602 0.930 . S
H607 C604 0.929 . S
S608 N609 1.613 1_554 S
S608 N610 1.610 . S
N609 S608 1.613 1_556 S
N609 C612 1.350 . S
N610 S608 1.610 . S
N610 C611 1.351 1_554 S
C611 C605 1.428 . S
C611 N610 1.351 1_556 S
C611 C612 1.434 . S
C612 C603 1.429 . S
C612 N609 1.350 . S
C612 C611 1.434 . S
C613 C614 1.369 . S
C613 C615 1.420 . S
C613 H617 0.923 1_556 S
C614 C613 1.369 . S
C614 C623 1.429 . S
C615 C613 1.420 . S
C615 C616 1.365 . S
C615 H618 0.926 1_556 S
C616 C615 1.365 . S
C616 C622 1.428 . S
H617 C613 0.923 1_554 S
H618 C615 0.926 1_554 S
S619 N620 1.613 . S
S619 N621 1.610 . S
N620 S619 1.613 . S
N620 C623 1.350 . S
N621 S619 1.610 . S
N621 C622 1.351 . S
C622 C616 1.428 . S
C622 N621 1.351 . S
C622 C623 1.434 . S
C623 C614 1.429 . S
C623 N620 1.350 . S
C623 C622 1.434 . S
C624 C625 1.369 . S
C624 C626 1.419 . S
C624 H628 0.930 . S
C625 C624 1.369 . S
C625 C634 1.429 . S
C626 C624 1.419 . S
C626 C627 1.363 . S
C626 H629 0.961 . S
C627 C626 1.363 . S
C627 C633 1.428 . S
H628 C624 0.930 . S
H629 C626 0.961 . S
S630 N631 1.613 . S
S630 N632 1.610 . S
N631 S630 1.613 . S
N631 C634 1.350 . S
N632 S630 1.610 . S
N632 C633 1.351 . S
C633 C627 1.428 . S
C633 N632 1.351 . S
C633 C634 1.434 . S
C634 C625 1.429 . S
C634 N631 1.350 . S
C634 C633 1.434 . S
C635 C636 1.369 . S
C635 C637 1.419 . S
C635 H639 0.930 . S
C636 C635 1.369 . S
C636 C645 1.429 . S
C637 C635 1.419 . S
C637 C638 1.363 . S
C637 H640 0.929 1_556 S
C638 C637 1.363 . S
C638 C644 1.428 . S
H639 C635 0.930 . S
H640 C637 0.929 1_554 S
S641 N642 1.613 . S
S641 N643 1.610 . S
N642 S641 1.613 . S
N642 C645 1.350 . S
N643 S641 1.610 . S
N643 C644 1.351 . S
C644 C638 1.428 . S
C644 N643 1.351 . S
C644 C645 1.434 . S
C645 C636 1.429 . S
C645 N642 1.350 . S
C645 C644 1.434 . S
C646 C647 1.369 . S
C646 C648 1.419 . S
C646 H650 0.930 . S
C647 C646 1.369 . S
C647 C656 1.429 1_556 S
C648 C646 1.419 . S
C648 C649 1.363 . S
C648 H651 0.929 . S
C649 C648 1.363 . S
C649 C655 1.428 1_556 S
H650 C646 0.930 . S
H651 C648 0.929 . S
S652 N653 1.613 . S
S652 N654 1.610 . S
N653 S652 1.613 . S
N653 C656 1.350 . S
N654 S652 1.610 . S
N654 C655 1.351 . S
C655 C649 1.428 1_554 S
C655 N654 1.351 . S
C655 C656 1.434 . S
C656 C647 1.429 1_554 S
C656 N653 1.350 . S
C656 C655 1.434 . S
C657 C658 1.369 . S
C657 C659 1.419 . S
C657 H661 0.930 . S
C658 C657 1.369 . S
C658 C667 1.429 . S
C659 C657 1.419 . S
C659 C660 1.363 . S
C659 H662 0.929 . S
C660 C659 1.363 . S
C660 C666 1.428 . S
H661 C657 0.930 . S
H662 C659 0.929 . S
S663 N664 1.613 . S
S663 N665 1.610 . S
N664 S663 1.613 . S
N664 C667 1.350 1_556 S
N665 S663 1.610 . S
N665 C666 1.351 1_556 S
C666 C660 1.428 . S
C666 N665 1.351 1_554 S
C666 C667 1.434 . S
C667 C658 1.429 . S
C667 N664 1.350 1_554 S
C667 C666 1.434 . S
C668 C669 1.369 . S
C668 C670 1.419 . S
C668 H672 0.930 . S
C669 C668 1.369 . S
C669 C678 1.429 . S
C670 C668 1.419 . S
C670 C671 1.363 . S
C670 H673 0.929 . S
C671 C670 1.363 . S
C671 C677 1.428 . S
H672 C668 0.930 . S
H673 C670 0.929 . S
S674 N675 1.613 1_556 S
S674 N676 1.610 . S
N675 S674 1.613 1_554 S
N675 C678 1.350 . S
N676 S674 1.610 . S
N676 C677 1.351 1_556 S
C677 C671 1.428 . S
C677 N676 1.351 1_554 S
C677 C678 1.434 . S
C678 C669 1.429 . S
C678 N675 1.350 . S
C678 C677 1.434 . S
C679 C680 1.369 . S
C679 C681 1.419 . S
C679 H683 0.930 . S
C680 C679 1.369 . S
C680 C689 1.429 . S
C681 C679 1.419 . S
C681 C682 1.363 . S
C681 H684 0.929 . S
C682 C681 1.363 . S
C682 C688 1.428 . S
H683 C679 0.930 . S
H684 C681 0.929 . S
S685 N686 1.613 . S
S685 N687 1.610 . S
N686 S685 1.613 . S
N686 C689 1.350 1_556 S
N687 S685 1.610 . S
N687 C688 1.351 1_556 S
C688 C682 1.428 . S
C688 N687 1.351 1_554 S
C688 C689 1.434 . S
C689 C680 1.429 . S
C689 N686 1.350 1_554 S
C689 C688 1.434 . S
C690 C691 1.369 . S
C690 C692 1.419 1_655 S
C690 H694 0.930 . S
C691 C690 1.369 . S
C691 C700 1.429 . S
C692 C690 1.419 1_455 S
C692 C693 1.363 . S
C692 H695 0.929 . S
C693 C692 1.363 . S
C693 C699 1.428 1_455 S
H694 C690 0.930 . S
H695 C692 0.929 . S
S696 N697 1.613 . S
S696 N698 1.610 . S
N697 S696 1.613 . S
N697 C700 1.350 . S
N698 S696 1.610 . S
N698 C699 1.351 . S
C699 C693 1.428 1_655 S
C699 N698 1.351 . S
C699 C700 1.434 . S
C700 C691 1.429 . S
C700 N697 1.350 . S
C700 C699 1.434 . S
C701 C702 1.369 . S
C701 C703 1.419 . S
C701 H705 0.930 . S
C702 C701 1.369 . S
C702 C711 1.429 . S
C703 C701 1.419 . S
C703 C704 1.363 . S
C703 H706 0.929 . S
C704 C703 1.363 . S
C704 C710 1.428 . S
H705 C701 0.930 . S
H706 C703 0.929 . S
S707 N708 1.613 . S
S707 N709 1.610 . S
N708 S707 1.613 . S
N708 C711 1.350 . S
N709 S707 1.610 . S
N709 C710 1.351 . S
C710 C704 1.428 . S
C710 N709 1.351 . S
C710 C711 1.434 . S
C711 C702 1.429 . S
C711 N708 1.350 . S
C711 C710 1.434 . S
C712 C713 1.369 . S
C712 C714 1.419 . S
C712 H716 0.930 . S
C713 C712 1.369 . S
C713 C722 1.429 . S
C714 C712 1.419 . S
C714 C715 1.363 1_545 S
C714 H717 0.929 1_545 S
C715 C714 1.363 1_565 S
C715 C721 1.428 1_565 S
H716 C712 0.930 . S
H717 C714 0.929 1_565 S
S718 N719 1.613 . S
S718 N720 1.610 . S
N719 S718 1.613 . S
N719 C722 1.350 . S
N720 S718 1.610 . S
N720 C721 1.351 . S
C721 C715 1.428 1_545 S
C721 N720 1.351 . S
C721 C722 1.434 . S
C722 C713 1.429 . S
C722 N719 1.350 . S
C722 C721 1.434 . S
C723 C724 1.369 . S
C723 C725 1.419 . S
C723 H727 0.930 . S
C724 C723 1.369 . S
C724 C733 1.429 . S
C725 C723 1.419 . S
C725 C726 1.363 . S
C725 H728 0.929 . S
C726 C725 1.363 . S
C726 C732 1.428 . S
H727 C723 0.930 . S
H728 C725 0.929 . S
S729 N730 1.613 . S
S729 N731 1.610 . S
N730 S729 1.613 . S
N730 C733 1.350 . S
N731 S729 1.610 . S
N731 C732 1.351 . S
C732 C726 1.428 . S
C732 N731 1.351 . S
C732 C733 1.434 . S
C733 C724 1.429 . S
C733 N730 1.350 . S
C733 C732 1.434 . S
C734 C735 1.369 . S
C734 C736 1.419 . S
C734 H738 0.930 . S
C735 C734 1.369 . S
C735 C744 1.429 . S
C736 C734 1.419 . S
C736 C737 1.363 . S
C736 H739 0.929 . S
C737 C736 1.363 . S
C737 C743 1.428 . S
H738 C734 0.930 . S
H739 C736 0.929 . S
S740 N741 1.613 . S
S740 N742 1.610 . S
N741 S740 1.613 . S
N741 C744 1.350 . S
N742 S740 1.610 . S
N742 C743 1.351 . S
C743 C737 1.428 . S
C743 N742 1.351 . S
C743 C744 1.434 . S
C744 C735 1.429 . S
C744 N741 1.350 . S
C744 C743 1.434 . S
C745 C746 1.369 . S
C745 C747 1.419 . S
C745 H749 0.930 . S
C746 C745 1.369 . S
C746 C755 1.429 . S
C747 C745 1.419 . S
C747 C748 1.363 . S
C747 H750 0.929 . S
C748 C747 1.363 . S
C748 C754 1.428 . S
H749 C745 0.930 . S
H750 C747 0.929 . S
S751 N752 1.613 . S
S751 N753 1.610 . S
N752 S751 1.613 . S
N752 C755 1.350 . S
N753 S751 1.610 . S
N753 C754 1.351 . S
C754 C748 1.428 . S
C754 N753 1.351 . S
C754 C755 1.434 . S
C755 C746 1.429 . S
C755 N752 1.350 . S
C755 C754 1.434 . S
C756 C757 1.369 . S
C756 C758 1.419 . S
C756 H760 0.930 . S
C757 C756 1.369 . S
C757 C766 1.429 . S
C758 C756 1.419 . S
C758 C759 1.363 . S
C758 H761 0.929 . S
C759 C758 1.363 . S
C759 C765 1.428 . S
H760 C756 0.930 . S
H761 C758 0.929 . S
S762 N763 1.613 . S
S762 N764 1.610 . S
N763 S762 1.613 . S
N763 C766 1.350 . S
N764 S762 1.610 . S
N764 C765 1.351 . S
C765 C759 1.428 . S
C765 N764 1.351 . S
C765 C766 1.434 . S
C766 C757 1.429 . S
C766 N763 1.350 . S
C766 C765 1.434 . S
C767 C768 1.369 . S
C767 C769 1.419 . S
C767 H771 0.930 . S
C768 C767 1.369 . S
C768 C777 1.429 . S
C769 C767 1.419 . S
C769 C770 1.363 . S
C769 H772 0.929 . S
C770 C769 1.363 . S
C770 C776 1.428 . S
H771 C767 0.930 . S
H772 C769 0.929 . S
S773 N774 1.613 . S
S773 N775 1.610 . S
N774 S773 1.613 . S
N774 C777 1.350 . S
N775 S773 1.610 . S
N775 C776 1.351 . S
C776 C770 1.428 . S
C776 N775 1.351 . S
C776 C777 1.434 . S
C777 C768 1.429 . S
C777 N774 1.350 . S
C777 C776 1.434 . S
C778 C779 1.369 . S
C778 C780 1.419 . S
C778 H782 0.930 . S
C779 C778 1.369 . S
C779 C788 1.429 . S
C780 C778 1.419 . S
C780 C781 1.363 . S
C780 H783 0.929 . S
C781 C780 1.363 . S
C781 C787 1.428 . S
H782 C778 0.930 . S
H783 C780 0.929 . S
S784 N785 1.613 . S
S784 N786 1.610 . S
N785 S784 1.613 . S
N785 C788 1.350 . S
N786 S784 1.610 . S
N786 C787 1.351 . S
C787 C781 1.428 . S
C787 N786 1.351 . S
C787 C788 1.434 . S
C788 C779 1.429 . S
C788 N785 1.350 . S
C788 C787 1.434 . S
C789 C790 1.369 1_565 S
C789 C791 1.419 . S
C789 H793 0.930 . S
C790 C789 1.369 1_545 S
C790 C799 1.429 1_545 S
C791 C789 1.419 . S
C791 C792 1.363 . S
C791 H794 0.929 . S
C792 C791 1.363 . S
C792 C798 1.428 . S
H793 C789 0.930 . S
H794 C791 0.929 . S
S795 N796 1.603 1_565 S
S795 N797 1.610 . S
N796 S795 1.603 1_545 S
N796 C799 1.349 1_545 S
N797 S795 1.610 . S
N797 C798 1.351 . S
C798 C792 1.428 . S
C798 N797 1.351 . S
C798 C799 1.434 . S
C799 C790 1.429 1_565 S
C799 N796 1.349 1_565 S
C799 C798 1.434 . S
C800 C801 1.369 . S
C800 C802 1.419 . S
C800 H804 0.930 . S
C801 C800 1.369 . S
C801 C810 1.429 . S
C802 C800 1.419 . S
C802 C803 1.363 . S
C802 H805 0.929 . S
C803 C802 1.363 . S
C803 C809 1.428 . S
H804 C800 0.930 . S
H805 C802 0.929 . S
S806 N807 1.613 . S
S806 N808 1.610 . S
N807 S806 1.613 . S
N807 C810 1.350 . S
N808 S806 1.610 . S
N808 C809 1.351 . S
C809 C803 1.428 . S
C809 N808 1.351 . S
C809 C810 1.434 . S
C810 C801 1.429 . S
C810 N807 1.350 . S
C810 C809 1.434 . S
C811 C812 1.369 . S
C811 C813 1.419 . S
C811 H815 0.930 . S
C812 C811 1.369 . S
C812 C821 1.429 . S
C813 C811 1.419 . S
C813 C814 1.363 . S
C813 H816 0.929 . S
C814 C813 1.363 . S
C814 C820 1.428 . S
H815 C811 0.930 . S
H816 C813 0.929 . S
S817 N818 1.613 . S
S817 N819 1.610 . S
N818 S817 1.613 . S
N818 C821 1.350 . S
N819 S817 1.610 . S
N819 C820 1.351 . S
C820 C814 1.428 . S
C820 N819 1.351 . S
C820 C821 1.434 . S
C821 C812 1.429 . S
C821 N818 1.350 . S
C821 C820 1.434 . S
C822 C823 1.369 . S
C822 C824 1.419 . S
C822 H826 0.930 . S
C823 C822 1.369 . S
C823 C832 1.429 . S
C824 C822 1.419 . S
C824 C825 1.363 . S
C824 H827 0.929 . S
C825 C824 1.363 . S
C825 C831 1.428 . S
H826 C822 0.930 . S
H827 C824 0.929 . S
S828 N829 1.613 . S
S828 N830 1.610 . S
N829 S828 1.613 . S
N829 C832 1.350 . S
N830 S828 1.610 . S
N830 C831 1.351 . S
C831 C825 1.428 . S
C831 N830 1.351 . S
C831 C832 1.434 . S
C832 C823 1.429 . S
C832 N829 1.350 . S
C832 C831 1.434 . S
C833 C834 1.369 . S
C833 C835 1.419 . S
C833 H837 0.930 . S
C834 C833 1.369 . S
C834 C843 1.429 . S
C835 C833 1.419 . S
C835 C836 1.363 . S
C835 H838 0.929 . S
C836 C835 1.363 . S
C836 C842 1.428 . S
H837 C833 0.930 . S
H838 C835 0.929 . S
S839 N840 1.613 . S
S839 N841 1.610 . S
N840 S839 1.613 . S
N840 C843 1.350 . S
N841 S839 1.610 . S
N841 C842 1.351 . S
C842 C836 1.428 . S
C842 N841 1.351 . S
C842 C843 1.434 . S
C843 C834 1.429 . S
C843 N840 1.350 . S
C843 C842 1.434 . S
C844 C845 1.369 . S
C844 C846 1.419 . S
C844 H848 0.930 . S
C845 C844 1.369 . S
C845 C854 1.429 . S
C846 C844 1.419 . S
C846 C847 1.363 . S
C846 H849 0.929 . S
C847 C846 1.363 . S
C847 C853 1.428 . S
H848 C844 0.930 . S
H849 C846 0.929 . S
S850 N851 1.613 . S
S850 N852 1.610 . S
N851 S850 1.613 . S
N851 C854 1.350 . S
N852 S850 1.610 . S
N852 C853 1.351 . S
C853 C847 1.428 . S
C853 N852 1.351 . S
C853 C854 1.434 . S
C854 C845 1.429 . S
C854 N851 1.350 . S
C854 C853 1.434 . S
C855 C856 1.369 . S
C855 C857 1.417 1_565 S
C855 H859 0.930 . S
C856 C855 1.369 . S
C856 C865 1.429 . S
C857 C855 1.417 1_545 S
C857 C858 1.365 . S
C857 H860 0.929 . S
C858 C857 1.365 . S
C858 C864 1.428 . S
H859 C855 0.930 . S
H860 C857 0.929 . S
S861 N862 1.613 1_545 S
S861 N863 1.610 . S
N862 S861 1.613 1_565 S
N862 C865 1.350 . S
N863 S861 1.610 . S
N863 C864 1.351 . S
C864 C858 1.428 . S
C864 N863 1.351 . S
C864 C865 1.434 1_545 S
C865 C856 1.429 . S
C865 N862 1.350 . S
C865 C864 1.434 1_565 S
C866 C867 1.369 . S
C866 C868 1.419 1_455 S
C866 H870 0.930 . S
C867 C866 1.369 . S
C867 C876 1.429 . S
C868 C866 1.419 1_655 S
C868 C869 1.363 . S
C868 H871 0.929 . S
C869 C868 1.363 . S
C869 C875 1.428 1_655 S
H870 C866 0.930 . S
H871 C868 0.929 . S
S872 N873 1.613 . S
S872 N874 1.623 . S
N873 S872 1.613 . S
N873 C876 1.350 . S
N874 S872 1.623 . S
N874 C875 1.350 . S
C875 C869 1.428 1_455 S
C875 N874 1.350 . S
C875 C876 1.434 . S
C876 C867 1.429 . S
C876 N873 1.350 . S
C876 C875 1.434 . S
C877 C878 1.369 . S
C877 C879 1.419 . S
C877 H881 0.930 . S
C878 C877 1.369 . S
C878 C887 1.429 . S
C879 C877 1.419 . S
C879 C880 1.363 . S
C879 H882 0.929 . S
C880 C879 1.363 . S
C880 C886 1.428 . S
H881 C877 0.930 . S
H882 C879 0.929 . S
S883 N884 1.613 . S
S883 N885 1.610 . S
N884 S883 1.613 . S
N884 C887 1.350 . S
N885 S883 1.610 . S
N885 C886 1.351 . S
C886 C880 1.428 . S
C886 N885 1.351 . S
C886 C887 1.434 . S
C887 C878 1.429 . S
C887 N884 1.350 . S
C887 C886 1.434 . S
C888 C889 1.360 1_655 S
C888 C890 1.419 . S
C888 H892 0.930 . S
C889 C888 1.360 1_455 S
C889 C898 1.415 1_455 S
C890 C888 1.419 . S
C890 C891 1.363 . S
C890 H893 0.929 . S
C891 C890 1.363 . S
C891 C897 1.428 . S
H892 C888 0.930 . S
H893 C890 0.929 . S
S894 N895 1.613 1_655 S
S894 N896 1.610 . S
N895 S894 1.613 1_455 S
N895 C898 1.350 1_455 S
N896 S894 1.610 . S
N896 C897 1.351 . S
C897 C891 1.428 . S
C897 N896 1.351 . S
C897 C898 1.434 . S
C898 C889 1.415 1_655 S
C898 N895 1.350 1_655 S
C898 C897 1.434 . S
C899 C900 1.369 . S
C899 C901 1.419 . S
C899 H903 0.930 . S
C900 C899 1.369 . S
C900 C909 1.429 . S
C901 C899 1.419 . S
C901 C902 1.363 . S
C901 H904 0.929 . S
C902 C901 1.363 . S
C902 C908 1.428 . S
H903 C899 0.930 . S
H904 C901 0.929 . S
S905 N906 1.613 . S
S905 N907 1.610 . S
N906 S905 1.613 . S
N906 C909 1.350 . S
N907 S905 1.610 . S
N907 C908 1.351 . S
C908 C902 1.428 . S
C908 N907 1.351 . S
C908 C909 1.434 . S
C909 C900 1.429 . S
C909 N906 1.350 . S
C909 C908 1.434 . S
C910 C911 1.383 . S
C910 C912 1.419 . S
C910 H914 0.930 . S
C911 C910 1.383 . S
C911 C920 1.435 . S
C912 C910 1.419 . S
C912 C913 1.363 . S
C912 H915 0.929 . S
C913 C912 1.363 . S
C913 C919 1.428 . S
H914 C910 0.930 . S
H915 C912 0.929 . S
S916 N917 1.613 . S
S916 N918 1.610 . S
N917 S916 1.613 . S
N917 C920 1.350 . S
N918 S916 1.610 . S
N918 C919 1.351 . S
C919 C913 1.428 . S
C919 N918 1.351 . S
C919 C920 1.434 . S
C920 C911 1.435 . S
C920 N917 1.350 . S
C920 C919 1.434 . S
C921 C922 1.369 . S
C921 C923 1.419 . S
C921 H925 0.930 . S
C922 C921 1.369 . S
C922 C931 1.429 . S
C923 C921 1.419 . S
C923 C924 1.363 . S
C923 H926 0.929 . S
C924 C923 1.363 . S
C924 C930 1.428 . S
H925 C921 0.930 . S
H926 C923 0.929 . S
S927 N928 1.613 . S
S927 N929 1.610 . S
N928 S927 1.613 . S
N928 C931 1.350 . S
N929 S927 1.610 . S
N929 C930 1.351 . S
C930 C924 1.428 . S
C930 N929 1.351 . S
C930 C931 1.434 . S
C931 C922 1.429 . S
C931 N928 1.350 . S
C931 C930 1.434 . S
C932 C933 1.369 . S
C932 C934 1.419 . S
C932 H936 0.930 . S
C933 C932 1.369 . S
C933 C942 1.429 . S
C934 C932 1.419 . S
C934 C935 1.363 . S
C934 H937 0.929 . S
C935 C934 1.363 . S
C935 C941 1.428 . S
H936 C932 0.930 . S
H937 C934 0.929 . S
S938 N939 1.613 . S
S938 N940 1.610 . S
N939 S938 1.613 . S
N939 C942 1.350 . S
N940 S938 1.610 . S
N940 C941 1.351 . S
C941 C935 1.428 . S
C941 N940 1.351 . S
C941 C942 1.434 . S
C942 C933 1.429 . S
C942 N939 1.350 . S
C942 C941 1.434 . S
C943 C944 1.369 . S
C943 C945 1.419 . S
C943 H947 0.930 . S
C944 C943 1.369 . S
C944 C953 1.429 . S
C945 C943 1.419 . S
C945 C946 1.363 . S
C945 H948 0.929 . S
C946 C945 1.363 . S
C946 C952 1.428 . S
H947 C943 0.930 . S
H948 C945 0.929 . S
S949 N950 1.613 . S
S949 N951 1.610 . S
N950 S949 1.613 . S
N950 C953 1.350 . S
N951 S949 1.610 . S
N951 C952 1.351 . S
C952 C946 1.428 . S
C952 N951 1.351 . S
C952 C953 1.434 . S
C953 C944 1.429 . S
C953 N950 1.350 . S
C953 C952 1.434 . S
C954 C955 1.369 . S
C954 C956 1.419 . S
C954 H958 0.930 . S
C955 C954 1.369 . S
C955 C964 1.429 . S
C956 C954 1.419 . S
C956 C957 1.363 . S
C956 H959 0.929 . S
C957 C956 1.363 . S
C957 C963 1.428 . S
H958 C954 0.930 . S
H959 C956 0.929 . S
S960 N961 1.613 . S
S960 N962 1.610 . S
N961 S960 1.613 . S
N961 C964 1.350 . S
N962 S960 1.610 . S
N962 C963 1.351 . S
C963 C957 1.428 . S
C963 N962 1.351 . S
C963 C964 1.434 . S
C964 C955 1.429 . S
C964 N961 1.350 . S
C964 C963 1.434 . S
C965 C966 1.369 . S
C965 C967 1.419 . S
C965 H969 0.930 . S
C966 C965 1.369 . S
C966 C975 1.429 . S
C967 C965 1.419 . S
C967 C968 1.363 . S
C967 H970 0.929 . S
C968 C967 1.363 . S
C968 C974 1.428 . S
H969 C965 0.930 . S
H970 C967 0.929 . S
S971 N972 1.613 . S
S971 N973 1.610 . S
N972 S971 1.613 . S
N972 C975 1.350 . S
N973 S971 1.610 . S
N973 C974 1.351 . S
C974 C968 1.428 . S
C974 N973 1.351 . S
C974 C975 1.434 . S
C975 C966 1.429 . S
C975 N972 1.350 . S
C975 C974 1.434 . S
C976 C977 1.369 . S
C976 C978 1.419 . S
C976 H980 0.930 . S
C977 C976 1.369 . S
C977 C986 1.429 . S
C978 C976 1.419 . S
C978 C979 1.363 . S
C978 H981 0.929 . S
C979 C978 1.363 . S
C979 C985 1.428 . S
H980 C976 0.930 . S
H981 C978 0.929 . S
S982 N983 1.613 . S
S982 N984 1.610 . S
N983 S982 1.613 . S
N983 C986 1.350 . S
N984 S982 1.610 . S
N984 C985 1.351 . S
C985 C979 1.428 . S
C985 N984 1.351 . S
C985 C986 1.434 . S
C986 C977 1.429 . S
C986 N983 1.350 . S
C986 C985 1.434 . S
C987 C988 1.369 . S
C987 C989 1.419 . S
C987 H991 0.930 . S
C988 C987 1.369 . S
C988 C997 1.429 . S
C989 C987 1.419 . S
C989 C990 1.363 . S
C989 H992 0.929 . S
C990 C989 1.363 . S
C990 C996 1.428 . S
H991 C987 0.930 . S
H992 C989 0.929 . S
S993 N994 1.613 . S
S993 N995 1.610 . S
N994 S993 1.613 . S
N994 C997 1.350 1_455 S
N995 S993 1.610 . S
N995 C996 1.351 1_455 S
C996 C990 1.428 . S
C996 N995 1.351 1_655 S
C996 C997 1.434 . S
C997 C988 1.429 . S
C997 N994 1.350 1_655 S
C997 C996 1.434 . S
C998 C999 1.369 . S
C998 C1000 1.419 . S
C998 H1002 0.930 . S
C999 C998 1.369 . S
C999 C1008 1.429 . S
C1000 C998 1.419 . S
C1000 C1001 1.363 . S
C1000 H1003 0.929 . S
C1001 C1000 1.363 . S
C1001 C1007 1.428 . S
H1002 C998 0.930 . S
H1003 C1000 0.929 . S
S1004 N1005 1.613 . S
S1004 N1006 1.610 . S
N1005 S1004 1.613 . S
N1005 C1008 1.350 . S
N1006 S1004 1.610 . S
N1006 C1007 1.351 . S
C1007 C1001 1.428 . S
C1007 N1006 1.351 . S
C1007 C1008 1.434 . S
C1008 C999 1.429 . S
C1008 N1005 1.350 . S
C1008 C1007 1.434 . S
C1009 C1010 1.369 . S
C1009 C1011 1.419 . S
C1009 H1013 0.930 . S
C1010 C1009 1.369 . S
C1010 C1019 1.429 . S
C1011 C1009 1.419 . S
C1011 C1012 1.363 . S
C1011 H1014 0.929 . S
C1012 C1011 1.363 . S
C1012 C1018 1.428 . S
H1013 C1009 0.930 . S
H1014 C1011 0.929 . S
S1015 N1016 1.613 1_565 S
S1015 N1017 1.610 . S
N1016 S1015 1.613 1_545 S
N1016 C1019 1.350 . S
N1017 S1015 1.610 . S
N1017 C1018 1.351 1_565 S
C1018 C1012 1.428 . S
C1018 N1017 1.351 1_545 S
C1018 C1019 1.434 . S
C1019 C1010 1.429 . S
C1019 N1016 1.350 . S
C1019 C1018 1.434 . S
C1020 C1021 1.369 . S
C1020 C1022 1.419 . S
C1020 H1024 0.930 . S
C1021 C1020 1.369 . S
C1021 C1030 1.429 . S
C1022 C1020 1.419 . S
C1022 C1023 1.363 . S
C1022 H1025 0.929 . S
C1023 C1022 1.363 . S
C1023 C1029 1.428 . S
H1024 C1020 0.930 . S
H1025 C1022 0.929 . S
S1026 N1027 1.613 . S
S1026 N1028 1.610 . S
N1027 S1026 1.613 . S
N1027 C1030 1.350 . S
N1028 S1026 1.610 . S
N1028 C1029 1.351 . S
C1029 C1023 1.428 . S
C1029 N1028 1.351 . S
C1029 C1030 1.434 . S
C1030 C1021 1.429 . S
C1030 N1027 1.350 . S
C1030 C1029 1.434 . S
C1031 C1032 1.369 . S
C1031 C1033 1.419 . S
C1031 H1035 0.930 . S
C1032 C1031 1.369 . S
C1032 C1041 1.429 . S
C1033 C1031 1.419 . S
C1033 C1034 1.363 . S
C1033 H1036 0.929 . S
C1034 C1033 1.363 . S
C1034 C1040 1.428 . S
H1035 C1031 0.930 . S
H1036 C1033 0.929 . S
S1037 N1038 1.613 . S
S1037 N1039 1.610 . S
N1038 S1037 1.613 . S
N1038 C1041 1.350 . S
N1039 S1037 1.610 . S
N1039 C1040 1.351 . S
C1040 C1034 1.428 . S
C1040 N1039 1.351 . S
C1040 C1041 1.434 . S
C1041 C1032 1.429 . S
C1041 N1038 1.350 . S
C1041 C1040 1.434 . S
C1042 C1043 1.369 . S
C1042 C1044 1.419 . S
C1042 H1046 0.930 . S
C1043 C1042 1.369 . S
C1043 C1052 1.429 . S
C1044 C1042 1.419 . S
C1044 C1045 1.363 . S
C1044 H1047 0.929 . S
C1045 C1044 1.363 . S
C1045 C1051 1.428 . S
H1046 C1042 0.930 . S
H1047 C1044 0.929 . S
S1048 N1049 1.613 . S
S1048 N1050 1.610 . S
N1049 S1048 1.613 . S
N1049 C1052 1.350 . S
N1050 S1048 1.610 . S
N1050 C1051 1.351 . S
C1051 C1045 1.428 . S
C1051 N1050 1.351 . S
C1051 C1052 1.434 . S
C1052 C1043 1.429 . S
C1052 N1049 1.350 . S
C1052 C1051 1.434 . S
C1053 C1054 1.369 . S
C1053 C1055 1.419 . S
C1053 H1057 0.930 . S
C1054 C1053 1.369 . S
C1054 C1063 1.429 . S
C1055 C1053 1.419 . S
C1055 C1056 1.363 . S
C1055 H1058 0.929 . S
C1056 C1055 1.363 . S
C1056 C1062 1.428 . S
H1057 C1053 0.930 . S
H1058 C1055 0.929 . S
S1059 N1060 1.613 . S
S1059 N1061 1.610 . S
N1060 S1059 1.613 . S
N1060 C1063 1.350 . S
N1061 S1059 1.610 . S
N1061 C1062 1.351 . S
C1062 C1056 1.428 . S
C1062 N1061 1.351 . S
C1062 C1063 1.434 . S
C1063 C1054 1.429 . S
C1063 N1060 1.350 . S
C1063 C1062 1.434 . S
C1064 C1065 1.369 . S
C1064 C1066 1.419 . S
C1064 H1068 0.930 . S
C1065 C1064 1.369 . S
C1065 C1074 1.429 . S
C1066 C1064 1.419 . S
C1066 C1067 1.363 . S
C1066 H1069 0.929 . S
C1067 C1066 1.363 . S
C1067 C1073 1.428 . S
H1068 C1064 0.930 . S
H1069 C1066 0.929 . S
S1070 N1071 1.613 . S
S1070 N1072 1.610 . S
N1071 S1070 1.613 . S
N1071 C1074 1.350 . S
N1072 S1070 1.610 . S
N1072 C1073 1.351 . S
C1073 C1067 1.428 . S
C1073 N1072 1.351 . S
C1073 C1074 1.434 . S
C1074 C1065 1.429 . S
C1074 N1071 1.350 . S
C1074 C1073 1.434 . S
C1075 C1076 1.369 . S
C1075 C1077 1.419 . S
C1075 H1079 0.930 . S
C1076 C1075 1.369 . S
C1076 C1085 1.429 . S
C1077 C1075 1.419 . S
C1077 C1078 1.363 . S
C1077 H1080 0.929 . S
C1078 C1077 1.363 . S
C1078 C1084 1.428 . S
H1079 C1075 0.930 . S
H1080 C1077 0.929 . S
S1081 N1082 1.613 . S
S1081 N1083 1.610 . S
N1082 S1081 1.613 . S
N1082 C1085 1.350 . S
N1083 S1081 1.610 . S
N1083 C1084 1.351 . S
C1084 C1078 1.428 . S
C1084 N1083 1.351 . S
C1084 C1085 1.434 . S
C1085 C1076 1.429 . S
C1085 N1082 1.350 . S
C1085 C1084 1.434 . S
C1086 C1087 1.369 . S
C1086 C1088 1.419 . S
C1086 H1090 0.930 . S
C1087 C1086 1.369 . S
C1087 C1096 1.429 . S
C1088 C1086 1.419 . S
C1088 C1089 1.363 . S
C1088 H1091 0.929 . S
C1089 C1088 1.363 . S
C1089 C1095 1.428 . S
H1090 C1086 0.930 . S
H1091 C1088 0.929 . S
S1092 N1093 1.613 . S
S1092 N1094 1.610 . S
N1093 S1092 1.613 . S
N1093 C1096 1.350 . S
N1094 S1092 1.610 . S
N1094 C1095 1.351 . S
C1095 C1089 1.428 . S
C1095 N1094 1.351 . S
C1095 C1096 1.434 . S
C1096 C1087 1.429 . S
C1096 N1093 1.350 . S
C1096 C1095 1.434 . S
C1097 C1098 1.369 . S
C1097 C1099 1.419 . S
C1097 H1101 0.930 . S
C1098 C1097 1.369 . S
C1098 C1107 1.429 . S
C1099 C1097 1.419 . S
C1099 C1100 1.363 . S
C1099 H1102 0.929 . S
C1100 C1099 1.363 . S
C1100 C1106 1.428 . S
H1101 C1097 0.930 . S
H1102 C1099 0.929 . S
S1103 N1104 1.613 . S
S1103 N1105 1.610 . S
N1104 S1103 1.613 . S
N1104 C1107 1.350 . S
N1105 S1103 1.610 . S
N1105 C1106 1.351 . S
C1106 C1100 1.428 . S
C1106 N1105 1.351 . S
C1106 C1107 1.434 . S
C1107 C1098 1.429 . S
C1107 N1104 1.350 . S
C1107 C1106 1.434 . S
C1108 C1109 1.369 . S
C1108 C1110 1.419 . S
C1108 H1112 0.930 . S
C1109 C1108 1.369 . S
C1109 C1118 1.429 . S
C1110 C1108 1.419 . S
C1110 C1111 1.363 . S
C1110 H1113 0.929 . S
C1111 C1110 1.363 . S
C1111 C1117 1.428 . S
H1112 C1108 0.930 . S
H1113 C1110 0.929 . S
S1114 N1115 1.613 . S
S1114 N1116 1.610 . S
N1115 S1114 1.613 . S
N1115 C1118 1.350 . S
N1116 S1114 1.610 . S
N1116 C1117 1.351 . S
C1117 C1111 1.428 . S
C1117 N1116 1.351 . S
C1117 C1118 1.434 . S
C1118 C1109 1.429 . S
C1118 N1115 1.350 . S
C1118 C1117 1.434 . S
C1119 C1120 1.369 . S
C1119 C1121 1.419 . S
C1119 H1123 0.930 . S
C1120 C1119 1.369 . S
C1120 C1129 1.429 . S
C1121 C1119 1.419 . S
C1121 C1122 1.363 . S
C1121 H1124 0.929 . S
C1122 C1121 1.363 . S
C1122 C1128 1.428 . S
H1123 C1119 0.930 . S
H1124 C1121 0.929 . S
S1125 N1126 1.613 . S
S1125 N1127 1.610 . S
N1126 S1125 1.613 . S
N1126 C1129 1.350 . S
N1127 S1125 1.610 . S
N1127 C1128 1.351 . S
C1128 C1122 1.428 . S
C1128 N1127 1.351 . S
C1128 C1129 1.434 . S
C1129 C1120 1.429 . S
C1129 N1126 1.350 . S
C1129 C1128 1.434 . S
C1130 C1131 1.369 . S
C1130 C1132 1.419 . S
C1130 H1134 0.930 . S
C1131 C1130 1.369 . S
C1131 C1140 1.429 . S
C1132 C1130 1.419 . S
C1132 C1133 1.363 . S
C1132 H1135 0.929 . S
C1133 C1132 1.363 . S
C1133 C1139 1.428 . S
H1134 C1130 0.930 . S
H1135 C1132 0.929 . S
S1136 N1137 1.613 . S
S1136 N1138 1.610 . S
N1137 S1136 1.613 . S
N1137 C1140 1.350 . S
N1138 S1136 1.610 . S
N1138 C1139 1.351 . S
C1139 C1133 1.428 . S
C1139 N1138 1.351 . S
C1139 C1140 1.434 . S
C1140 C1131 1.429 . S
C1140 N1137 1.350 . S
C1140 C1139 1.434 . S
C1141 C1142 1.369 . S
C1141 C1143 1.419 . S
C1141 H1145 0.930 . S
C1142 C1141 1.369 . S
C1142 C1151 1.429 . S
C1143 C1141 1.419 . S
C1143 C1144 1.363 . S
C1143 H1146 0.929 . S
C1144 C1143 1.363 . S
C1144 C1150 1.428 . S
H1145 C1141 0.930 . S
H1146 C1143 0.929 . S
S1147 N1148 1.613 . S
S1147 N1149 1.610 . S
N1148 S1147 1.613 . S
N1148 C1151 1.350 . S
N1149 S1147 1.610 . S
N1149 C1150 1.351 . S
C1150 C1144 1.428 . S
C1150 N1149 1.351 . S
C1150 C1151 1.434 . S
C1151 C1142 1.429 . S
C1151 N1148 1.350 . S
C1151 C1150 1.434 . S
C559 C147 1.653 . S
C561 C210 1.662 . S
C570 C158 1.747 . S
C572 C250 1.743 . S
C581 C136 1.585 . S
C583 C280 1.576 . S
C592 C125 1.490 . S
C594 C240 1.472 . S
C605 C290 1.517 . S
C603 C103 1.520 . S
C614 C114 1.400 . S
C616 C200 1.401 1_556 S
C627 C229 1.672 . S
C625 C131 1.646 . S
C638 C269 1.649 . S
C636 C109 1.633 . S
C647 C120 1.644 . S
C649 C295 1.665 1_556 S
C658 C153 1.520 . S
C660 C255 1.527 . S
C669 C164 1.486 . S
C671 C309 1.488 . S
C682 C215 1.523 . S
C680 C142 1.495 . S
C693 C330 1.662 . S
C691 C15 1.654 . S
C702 C26 1.745 . S
C704 C370 1.745 . S
C713 C4 1.587 . S
C715 C400 1.579 . S
C724 C191 1.491 . S
C726 C360 1.472 . S
C735 C169 1.519 . S
C737 C410 1.516 . S
C746 C180 1.404 . S
C748 C320 1.401 . S
C757 C197 1.652 . S
C759 C349 1.668 . S
C768 C175 1.637 . S
C770 C389 1.647 . S
C781 C415 1.670 . S
C779 C186 1.636 . S
C790 C21 1.520 . S
C792 C375 1.526 . S
C803 C429 1.490 . S
C801 C32 1.482 1_455 S
C812 C10 1.492 . S
C814 C335 1.525 . S
C825 C450 1.662 . S
C823 C81 1.653 . S
C834 C92 1.747 . S
C836 C490 1.743 . S
C847 C520 1.578 . S
C845 C70 1.584 . S
C858 C480 1.468 . S
C856 C59 1.493 . S
C869 C530 1.516 . S
C867 C37 1.519 . S
C878 C48 1.405 . S
C880 C440 1.400 . S
C889 C65 1.670 . S
C891 C469 1.670 . S
C900 C43 1.634 . S
C902 C509 1.648 . S
C913 C535 1.665 . S
C911 C54 1.625 1_545 S
C922 C87 1.515 . S
C924 C495 1.531 . S
C933 C98 1.485 . S
C935 C549 1.487 . S
C944 C76 1.494 . S
C946 C455 1.523 . S
C955 C170 1.587 . S
C957 C227 1.557 . S
C968 C267 1.855 . S
C966 C181 1.911 . S
C977 C192 1.548 . S
C979 C286 1.570 . S
C988 C71 1.729 . S
C990 C246 1.719 . S
C999 C82 1.674 . S
C1001 C307 1.650 . S
C1012 C206 1.371 . S
C1010 C93 1.363 . S
C1021 C38 1.589 . S
C1023 C347 1.556 . S
C1032 C49 1.911 . S
C1034 C387 1.856 . S
C1043 C60 1.555 . S
C1045 C406 1.568 . S
C1054 C137 1.725 . S
C1056 C366 1.722 . S
C1067 C427 1.650 . S
C1065 C148 1.674 . S
C1076 C159 1.363 . S
C1078 C326 1.372 . S
C1087 C104 1.590 . S
C1089 C467 1.553 . S
C1098 C115 1.907 . S
C1100 C507 1.859 . S
C1111 C526 1.571 . S
C1109 C126 1.549 . S
C1120 C5 1.725 . S
C1122 C486 1.723 . S
C1131 C16 1.678 . S
C1133 C547 1.647 . S
C1142 C27 1.365 . S
C1144 C446 1.372 . S
