# Generated by pormake.
# Topology rtl, (3,6)-cn, num edge types: 1
# Building blocks:
#     Node 0, Type 0, BuildingBlock: ESEHIV_clean_linker_0, # of connection points: 3
#     Node 1, Type 0, BuildingBlock: ESEHIV_clean_linker_0, # of connection points: 3
#     Node 2, Type 0, BuildingBlock: ESEHIV_clean_linker_0, # of connection points: 3
#     Node 3, Type 0, BuildingBlock: ESEHIV_clean_linker_0, # of connection points: 3
#     Node 4, Type 1, BuildingBlock: CIFDUS_clean_sbu_1, # of connection points: 6
#     Node 5, Type 1, BuildingBlock: CIFDUS_clean_sbu_1, # of connection points: 6
#     Edge 6, Type (0, 1), BuildingBlock: XUDNAN_clean_linker_2, # of connection points: 2
#     Edge 7, Type (0, 1), BuildingBlock: XUDNAN_clean_linker_2, # of connection points: 2
#     Edge 8, Type (0, 1), BuildingBlock: XUDNAN_clean_linker_2, # of connection points: 2
#     Edge 9, Type (0, 1), BuildingBlock: XUDNAN_clean_linker_2, # of connection points: 2
#     Edge 10, Type (0, 1), BuildingBlock: XUDNAN_clean_linker_2, # of connection points: 2
#     Edge 11, Type (0, 1), BuildingBlock: XUDNAN_clean_linker_2, # of connection points: 2
#     Edge 12, Type (0, 1), BuildingBlock: XUDNAN_clean_linker_2, # of connection points: 2
#     Edge 13, Type (0, 1), BuildingBlock: XUDNAN_clean_linker_2, # of connection points: 2
#     Edge 14, Type (0, 1), BuildingBlock: XUDNAN_clean_linker_2, # of connection points: 2
#     Edge 15, Type (0, 1), BuildingBlock: XUDNAN_clean_linker_2, # of connection points: 2
#     Edge 16, Type (0, 1), BuildingBlock: XUDNAN_clean_linker_2, # of connection points: 2
#     Edge 17, Type (0, 1), BuildingBlock: XUDNAN_clean_linker_2, # of connection points: 2
# Relax obj value: 0.028
# Max RMSD: 0.063
# Mean RMSD: 0.047
data_MOF--net-rtl--node1-CIFDUS_clean_sbu_1--node2-ESEHIV_clean_linker_0--edge1-XUDNAN_clean_linker_2
_symmetry_space_group_name_H-M    P1
_symmetry_Int_Tables_number       1
_symmetry_cell_setting            triclinic
loop_
_symmetry_equiv_pos_as_xyz
'x, y, z'
_cell_length_a     28.817225
_cell_length_b     32.617463
_cell_length_c     22.745357
_cell_angle_alpha  89.799439
_cell_angle_beta   97.994647
_cell_angle_gamma 90.387145
loop_
_atom_site_label
_atom_site_type_symbol
_atom_site_fract_x
_atom_site_fract_y
_atom_site_fract_z
_atom_type_partial_charge
H0 H 0.19509 0.92736 0.10415 0.0
H1 H 0.30446 0.85179 0.1917 0.0
H2 H 0.28924 0.86687 1.00201 0.0
C3 C 0.22584 0.90883 0.1021 0.0
C4 C 0.24059 0.90109 0.04672 0.0
C5 C 0.24943 0.89238 0.15484 0.0
C6 C 0.28667 0.86544 0.15142 0.0
C7 C 0.30024 0.85482 0.09645 0.0
C8 C 0.27762 0.87349 0.04422 0.0
H9 H 0.67847 0.62171 0.58763 0.0
H10 H 0.7716 0.69825 0.50291 0.0
H11 H 0.7944 0.68482 0.69171 0.0
C12 C 0.70918 0.6413 0.5912 0.0
C13 C 0.73423 0.65089 0.6476 0.0
C14 C 0.72242 0.65825 0.53879 0.0
C15 C 0.76098 0.68512 0.54288 0.0
C16 C 0.78621 0.6951 0.59811 0.0
C17 C 0.7732 0.6777 0.64987 0.0
H18 H 0.84303 0.11755 0.01288 0.0
H19 H 0.75672 0.20135 0.09463 0.0
H20 H 0.74557 0.19749 0.90608 0.0
C21 C 0.81666 0.14125 0.00838 0.0
C22 C 0.7979 0.15632 0.95155 0.0
C23 C 0.80066 0.15652 0.06001 0.0
C24 C 0.76777 0.18846 0.05497 0.0
C25 C 0.74978 0.20435 0.99933 0.0
C26 C 0.76315 0.18685 0.94843 0.0
H27 H 0.30076 0.44664 0.51109 0.0
H28 H 0.2514 0.33801 0.59069 0.0
H29 H 0.23521 0.34898 0.40072 0.0
C30 C 0.28335 0.41705 0.50605 0.0
C31 C 0.26921 0.40072 0.44897 0.0
C32 C 0.27678 0.39456 0.5571 0.0
C33 C 0.25609 0.3555 0.55127 0.0
C34 C 0.24086 0.3391 0.49491 0.0
C35 C 0.2469 0.36197 0.44409 0.0
O36 O 0.9796 0.04684 0.47118 0.0
Mn37 Mn 0.01657 0.01918 0.54876 0.0
O38 O 0.93573 0.99805 0.4241 0.0
Mn39 Mn 0.97867 0.96102 0.45703 0.0
O40 O 0.05398 0.99723 0.63045 0.0
O41 O 0.04961 0.07426 0.56271 0.0
Mn42 Mn 0.04882 0.08862 0.63704 0.0
O43 O 0.96084 0.03557 0.59374 0.0
O44 O 0.09433 0.05278 0.66852 0.0
O45 O 0.07168 1.00145 0.50378 0.0
O46 O 0.03645 0.96125 0.43081 0.0
O47 O 0.05377 0.13604 0.59441 0.0
O48 O 0.99158 0.08038 0.66306 0.0
C49 C 0.96611 0.92438 0.52657 0.0
C50 C 0.94572 0.03535 0.43194 0.0
C51 C 0.08479 0.01456 0.6698 0.0
C52 C 0.05208 0.11262 0.5485 0.0
C53 C 0.95818 0.05789 0.63938 0.0
C54 C 0.07254 0.97921 0.45755 0.0
O55 O 0.98578 0.96089 0.53636 0.0
O56 O 0.95448 0.91263 0.47208 0.0
O57 O 0.54242 0.54692 0.12053 0.0
Mn58 Mn 0.50257 0.51891 0.04501 0.0
O59 O 0.56285 0.49607 0.18442 0.0
Mn60 Mn 0.5259 0.45851 0.14067 0.0
O61 O 0.45996 0.49174 0.96919 0.0
O62 O 0.47331 0.57538 0.02292 0.0
Mn63 Mn 0.47577 0.57375 0.9443 0.0
O64 O 0.5606 0.52965 0.99984 0.0
O65 O 0.42338 0.54446 0.91929 0.0
O66 O 0.44481 0.50897 0.09326 0.0
O67 O 0.46506 0.45589 0.15321 0.0
O68 O 0.48323 0.62697 0.96381 0.0
O69 O 0.52739 0.5543 0.9139 0.0
C70 C 0.54931 0.42427 0.07597 0.0
C71 C 0.56414 0.53353 0.17026 0.0
C72 C 0.42657 0.50641 0.93067 0.0
C73 C 0.48059 0.61474 0.01741 0.0
C74 C 0.56271 0.54024 0.94613 0.0
C75 C 0.43526 0.48193 0.1314 0.0
O76 O 0.53121 0.46094 0.06392 0.0
O77 O 0.55212 0.41076 0.1301 0.0
H78 H 0.15062 0.31686 0.45241 0.0
H79 H 0.28498 0.26765 0.5279 0.0
H80 H 0.25101 0.19759 0.52322 0.0
H81 H 0.08458 0.25817 0.53586 0.0
H82 H 0.03527 0.25111 0.47857 0.0
H83 H 0.07262 0.2952 0.47671 0.0
H84 H 0.08656 0.27536 0.37029 0.0
H85 H 0.05009 0.23036 0.3727 0.0
H86 H 0.10941 0.22544 0.35707 0.0
H87 H 0.20141 0.13394 0.51748 0.0
H88 H 0.13861 0.08612 0.53614 0.0
H89 H 0.03479 0.17705 0.47293 0.0
C90 C 0.17295 0.29104 0.4664 0.0
C91 C 0.22055 0.29722 0.48935 0.0
C92 C 0.24859 0.2632 0.50938 0.0
C93 C 0.22967 0.22335 0.50632 0.0
C94 C 0.18252 0.21803 0.48332 0.0
C95 C 0.15431 0.25109 0.46468 0.0
C96 C 0.10342 0.23789 0.45039 0.0
C97 C 0.07217 0.26199 0.48766 0.0
C98 C 0.08636 0.24256 0.38364 0.0
C99 C 0.10691 0.19291 0.46782 0.0
C100 C 0.15315 0.18161 0.48356 0.0
C101 C 0.16515 0.14229 0.50446 0.0
C102 C 0.12906 0.11489 0.51385 0.0
C103 C 0.0817 0.1276 0.50502 0.0
C104 C 0.07052 0.1661 0.4781 0.0
H105 H 0.29923 0.7936 0.01413 0.0
H106 H 0.38124 0.84129 0.17412 0.0
H107 H 0.43281 0.7809 0.17818 0.0
H108 H 0.30218 0.68967 0.05049 0.0
H109 H 0.30986 0.67193 0.97749 0.0
H110 H 0.28034 0.71958 0.98582 0.0
H111 H 0.33893 0.75844 0.92863 0.0
H112 H 0.36775 0.7107 0.91843 0.0
H113 H 0.40095 0.75349 0.9525 0.0
H114 H 0.47627 0.71422 0.16358 0.0
H115 H 0.51048 0.65154 0.12553 0.0
H116 H 0.39718 0.64756 0.97936 0.0
C117 C 0.32851 0.79189 0.04945 0.0
C118 C 0.33568 0.82205 0.09417 0.0
C119 C 0.37435 0.8182 0.1399 0.0
C120 C 0.40395 0.78402 0.14258 0.0
C121 C 0.39476 0.75409 0.09893 0.0
C122 C 0.35844 0.75818 0.05267 0.0
C123 C 0.35658 0.72251 0.0103 0.0
C124 C 0.30943 0.69957 0.00583 0.0
C125 C 0.36666 0.73715 0.94885 0.0
C126 C 0.39633 0.69691 0.04109 0.0
C127 C 0.41856 0.7157 0.09169 0.0
C128 C 0.45874 0.69897 0.12441 0.0
C129 C 0.4777 0.66309 0.10317 0.0
C130 C 0.45588 0.64426 0.05064 0.0
C131 C 0.41384 0.66075 0.02072 0.0
H132 H 0.7905 0.77392 0.63865 0.0
H133 H 0.87079 0.68158 0.56189 0.0
H134 H 0.93664 0.7308 0.56205 0.0
H135 H 0.81746 0.85353 0.5519 0.0
H136 H 0.82132 0.89272 0.60819 0.0
H137 H 0.78585 0.84793 0.61459 0.0
H138 H 0.83191 0.83367 0.71877 0.0
H139 H 0.86826 0.87825 0.71196 0.0
H140 H 0.89473 0.82876 0.72717 0.0
H141 H 0.99102 0.7905 0.56433 0.0
H142 H 0.02059 0.85865 0.5412 0.0
H143 H 0.90132 0.91519 0.60385 0.0
C144 C 0.8226 0.76399 0.62352 0.0
C145 C 0.8264 0.72388 0.60159 0.0
C146 C 0.8679 0.71201 0.57991 0.0
C147 C 0.90551 0.73965 0.58039 0.0
C148 C 0.90091 0.77911 0.60246 0.0
C149 C 0.86015 0.79154 0.62261 0.0
C150 C 0.86145 0.83727 0.63521 0.0
C151 C 0.81904 0.85913 0.60031 0.0
C152 C 0.86423 0.84495 0.70225 0.0
C153 C 0.90728 0.84931 0.6137 0.0
C154 C 0.93083 0.81478 0.599 0.0
C155 C 0.97316 0.81767 0.57634 0.0
C156 C 0.99014 0.85668 0.56424 0.0
C157 C 0.96374 0.89229 0.57177 0.0
C158 C 0.92305 0.8887 0.59974 0.0
H159 H 0.66921 0.2155 0.0489 0.0
H160 H 0.7598 0.27443 0.93672 0.0
H161 H 0.70891 0.33557 0.9279 0.0
H162 H 0.5579 0.25673 0.97195 0.0
H163 H 0.53367 0.26291 0.04029 0.0
H164 H 0.57511 0.22264 0.03359 0.0
H165 H 0.62877 0.24967 0.1266 0.0
H166 H 0.58702 0.28926 0.13423 0.0
H167 H 0.6471 0.30266 0.1291 0.0
H168 H 0.6538 0.39429 0.94391 0.0
H169 H 0.60137 0.44342 0.98551 0.0
H170 H 0.54214 0.34281 0.07588 0.0
C171 C 0.67795 0.24115 0.02202 0.0
C172 C 0.71826 0.24035 0.99343 0.0
C173 C 0.72874 0.27444 0.95862 0.0
C174 C 0.69999 0.30922 0.9532 0.0
C175 C 0.66031 0.30913 0.98188 0.0
C176 C 0.64914 0.27575 0.0152 0.0
C177 C 0.60627 0.28403 0.04447 0.0
C178 C 0.56585 0.25484 0.02114 0.0
C179 C 0.61801 0.28127 0.11259 0.0
C180 C 0.59586 0.32763 0.02392 0.0
C181 C 0.62722 0.34187 0.98781 0.0
C182 C 0.62815 0.38319 0.97076 0.0
C183 C 0.59791 0.41091 0.99387 0.0
C184 C 0.56735 0.39678 0.03313 0.0
C185 C 0.56459 0.35433 0.04498 0.0
H186 H 0.2136 0.96553 0.18929 0.0
H187 H 0.24873 0.84207 0.25225 0.0
H188 H 0.22211 0.85841 0.34733 0.0
H189 H 0.23762 0.01927 0.3335 0.0
H190 H 0.18704 0.0517 0.31726 0.0
H191 H 0.21708 0.03382 0.25786 0.0
H192 H 0.13973 0.00254 0.20421 0.0
H193 H 0.10945 0.02116 0.26256 0.0
H194 H 0.10667 0.96744 0.24394 0.0
H195 H 0.18449 0.88455 0.43092 0.0
H196 H 0.12805 0.915 0.49032 0.0
H197 H 0.11115 0.01921 0.37124 0.0
C198 C 0.21609 0.94188 0.22306 0.0
C199 C 0.23433 0.90265 0.21317 0.0
C200 C 0.23662 0.87281 0.25896 0.0
C201 C 0.22141 0.88176 0.31332 0.0
C202 C 0.20357 0.9206 0.32136 0.0
C203 C 0.20014 0.95001 0.27717 0.0
C204 C 0.17371 0.98726 0.29396 0.0
C205 C 0.20579 0.02526 0.30106 0.0
C206 C 0.12979 0.99501 0.24849 0.0
C207 C 0.16104 0.97338 0.35338 0.0
C208 C 0.18004 0.9354 0.36922 0.0
C209 C 0.17028 0.91466 0.41977 0.0
C210 C 0.13859 0.93229 0.45355 0.0
C211 C 0.11683 0.96993 0.43617 0.0
C212 C 0.12909 0.99127 0.38656 0.0
H213 H 0.68603 0.5781 0.66522 0.0
H214 H 0.74638 0.68599 0.75947 0.0
H215 H 0.72393 0.65874 0.85176 0.0
H216 H 0.58463 0.57838 0.73441 0.0
H217 H 0.57856 0.52335 0.73605 0.0
H218 H 0.60749 0.54733 0.67973 0.0
H219 H 0.68042 0.50226 0.71188 0.0
H220 H 0.65195 0.4789 0.76947 0.0
H221 H 0.70827 0.50348 0.7879 0.0
H222 H 0.69046 0.62279 0.93388 0.0
H223 H 0.63458 0.58932 0.99224 0.0
H224 H 0.58742 0.50978 0.84371 0.0
C225 C 0.69485 0.59622 0.70496 0.0
C226 C 0.71965 0.63396 0.70408 0.0
C227 C 0.72967 0.65617 0.75814 0.0
C228 C 0.71675 0.64101 0.81136 0.0
C229 C 0.69285 0.60376 0.81049 0.0
C230 C 0.68101 0.58211 0.75841 0.0
C231 C 0.64946 0.54593 0.76793 0.0
C232 C 0.60224 0.54897 0.72715 0.0
C233 C 0.674 0.50523 0.75874 0.0
C234 C 0.64383 0.55174 0.8328 0.0
C235 C 0.67076 0.58429 0.85716 0.0
C236 C 0.66969 0.5969 0.91555 0.0
C237 C 0.63834 0.57731 0.94881 0.0
C238 C 0.60763 0.5463 0.92302 0.0
C239 C 0.6117 0.53244 0.86508 0.0
H240 H 0.89059 0.14974 0.1212 0.0
H241 H 0.7445 0.12354 0.13351 0.0
H242 H 0.76624 0.09823 0.23587 0.0
H243 H 0.93971 0.06274 0.20298 0.0
H244 H 0.98965 0.09002 0.24093 0.0
H245 H 0.96243 0.10732 0.16922 0.0
H246 H 0.95148 0.17913 0.21362 0.0
H247 H 0.97778 0.16158 0.28584 0.0
H248 H 0.92009 0.18372 0.27649 0.0
H249 H 0.80245 0.07415 0.33413 0.0
H250 H 0.85269 0.04468 0.4202 0.0
H251 H 0.97645 0.08648 0.34855 0.0
C252 C 0.86342 0.1384 0.14557 0.0
C253 C 0.8158 0.13856 0.11964 0.0
C254 C 0.78106 0.12382 0.1528 0.0
C255 C 0.79305 0.10963 0.21101 0.0
C256 C 0.83997 0.11077 0.23594 0.0
C257 C 0.8748 0.12443 0.20443 0.0
C258 C 0.92265 0.12118 0.24202 0.0
C259 C 0.95553 0.09365 0.212 0.0
C260 C 0.94428 0.16395 0.25525 0.0
C261 C 0.90931 0.1016 0.29817 0.0
C262 C 0.86122 0.09699 0.29394 0.0
C263 C 0.84008 0.07809 0.33842 0.0
C264 C 0.86884 0.06177 0.38738 0.0
C265 C 0.91819 0.06433 0.39161 0.0
C266 C 0.93875 0.08554 0.34731 0.0
H267 H 0.35882 0.38235 0.63162 0.0
H268 H 0.22599 0.44559 0.61644 0.0
H269 H 0.24675 0.47246 0.71855 0.0
H270 H 0.36654 0.35593 0.78965 0.0
H271 H 0.42886 0.36483 0.80454 0.0
H272 H 0.40253 0.34813 0.73192 0.0
H273 H 0.438 0.41105 0.68381 0.0
H274 H 0.4651 0.42737 0.75605 0.0
H275 H 0.42715 0.46179 0.7098 0.0
H276 H 0.2816 0.49275 0.8203 0.0
H277 H 0.33353 0.51593 0.90924 0.0
H278 H 0.44637 0.44247 0.85898 0.0
C279 C 0.33425 0.40177 0.65022 0.0
C280 C 0.29072 0.41189 0.6169 0.0
C281 C 0.25936 0.43756 0.64179 0.0
C282 C 0.27074 0.45262 0.69972 0.0
C283 C 0.31363 0.44162 0.73202 0.0
C284 C 0.34529 0.41737 0.70796 0.0
C285 C 0.39031 0.41264 0.7509 0.0
C286 C 0.39748 0.3677 0.7704 0.0
C287 C 0.43263 0.42923 0.72351 0.0
C288 C 0.37959 0.43906 0.80216 0.0
C289 C 0.33456 0.45441 0.79073 0.0
C290 C 0.31673 0.48066 0.82998 0.0
C291 C 0.34635 0.4933 0.88073 0.0
C292 C 0.39358 0.48031 0.89161 0.0
C293 C 0.40998 0.45169 0.85286 0.0
H294 H 0.69798 0.58213 0.49322 0.0
H295 H 0.68876 0.71159 0.4499 0.0
H296 H 0.64896 0.69484 0.34914 0.0
H297 H 0.72262 0.54928 0.34987 0.0
H298 H 0.68922 0.50242 0.35064 0.0
H299 H 0.71607 0.52478 0.41944 0.0
H300 H 0.6354 0.5262 0.45767 0.0
H301 H 0.6085 0.5035 0.38921 0.0
H302 H 0.5867 0.55124 0.41382 0.0
H303 H 0.61058 0.66278 0.25083 0.0
H304 H 0.57541 0.61828 0.16763 0.0
H305 H 0.61088 0.51121 0.27799 0.0
C306 C 0.6871 0.60694 0.46273 0.0
C307 C 0.69626 0.64816 0.4794 0.0
C308 C 0.68221 0.67976 0.43787 0.0
C309 C 0.65959 0.67055 0.38058 0.0
C310 C 0.6516 0.62953 0.36519 0.0
C311 C 0.66499 0.59827 0.40522 0.0
C312 C 0.65322 0.55672 0.37769 0.0
C313 C 0.69795 0.53185 0.37422 0.0
C314 C 0.6189 0.53304 0.41161 0.0
C315 C 0.63029 0.56945 0.31649 0.0
C316 C 0.62984 0.61146 0.30955 0.0
C317 C 0.61047 0.62979 0.25608 0.0
C318 C 0.59033 0.60441 0.20906 0.0
C319 C 0.58922 0.56132 0.21617 0.0
C320 C 0.61044 0.54402 0.27055 0.0
H321 H 0.83976 0.08147 0.92673 0.0
H322 H 0.79742 0.19932 0.84675 0.0
H323 H 0.8139 0.17505 0.75141 0.0
H324 H 0.94094 0.07893 0.85555 0.0
H325 H 0.94096 0.02407 0.84616 0.0
H326 H 0.91502 0.04603 0.90612 0.0
H327 H 0.83753 0.00761 0.86894 0.0
H328 H 0.86312 0.98654 0.80771 0.0
H329 H 0.80959 0.0154 0.79381 0.0
H330 H 0.83725 0.14178 0.66485 0.0
H331 H 0.89006 0.1109 0.60126 0.0
H332 H 0.93229 0.02 0.73694 0.0
C333 C 0.83342 0.1022 0.88932 0.0
C334 C 0.81361 0.14159 0.89483 0.0
C335 C 0.80833 0.16782 0.84422 0.0
C336 C 0.81808 0.15444 0.78914 0.0
C337 C 0.83547 0.11522 0.78478 0.0
C338 C 0.8452 0.09004 0.83386 0.0
C339 C 0.87275 0.0528 0.81873 0.0
C340 C 0.92024 0.05035 0.859 0.0
C341 C 0.84402 0.01324 0.82254 0.0
C342 C 0.87864 0.06241 0.7546 0.0
C343 C 0.85445 0.09743 0.73527 0.0
C344 C 0.85599 0.11403 0.67901 0.0
C345 C 0.88557 0.09601 0.6428 0.0
C346 C 0.91401 0.06253 0.66364 0.0
C347 C 0.90932 0.04457 0.71927 0.0
H348 H 0.30046 0.36661 0.35227 0.0
H349 H 0.26663 0.484 0.42387 0.0
H350 H 0.29312 0.51904 0.33748 0.0
H351 H 0.40321 0.39756 0.30458 0.0
H352 H 0.39624 0.36567 0.23936 0.0
H353 H 0.36915 0.3509 0.30273 0.0
H354 H 0.28838 0.34741 0.23638 0.0
H355 H 0.31528 0.36272 0.1727 0.0
H356 H 0.26704 0.39168 0.19345 0.0
H357 H 0.33387 0.5412 0.24812 0.0
H358 H 0.38742 0.54694 0.1717 0.0
H359 H 0.38776 0.41472 0.15681 0.0
C360 C 0.29699 0.3996 0.34904 0.0
C361 C 0.28092 0.42238 0.39481 0.0
C362 C 0.27894 0.46574 0.38959 0.0
C363 C 0.29353 0.48591 0.34031 0.0
C364 C 0.30962 0.46236 0.29622 0.0
C365 C 0.31114 0.42005 0.30034 0.0
C366 C 0.33387 0.40152 0.25079 0.0
C367 C 0.37822 0.37754 0.27586 0.0
C368 C 0.29904 0.37422 0.21097 0.0
C369 C 0.34585 0.43992 0.21844 0.0
C370 C 0.3315 0.47491 0.24473 0.0
C371 C 0.34417 0.51396 0.22632 0.0
C372 C 0.37409 0.51708 0.18225 0.0
C373 C 0.39093 0.48132 0.15746 0.0
C374 C 0.3744 0.44262 0.17382 0.0
H375 H 0.22261 0.87363 0.92881 0.0
H376 H 0.20693 0.97913 0.04097 0.0
H377 H 0.15876 0.01279 0.95834 0.0
H378 H 0.23676 0.9371 0.79854 0.0
H379 H 0.20662 0.90133 0.74601 0.0
H380 H 0.23778 0.883 0.81517 0.0
H381 H 0.16203 0.84698 0.83841 0.0
H382 H 0.13046 0.86586 0.76975 0.0
H383 H 0.10955 0.87664 0.83913 0.0
H384 H 0.10667 0.03236 0.87127 0.0
H385 H 0.07061 0.0492 0.77079 0.0
H386 H 0.12896 0.93914 0.70334 0.0
C387 C 0.20946 0.90395 0.93588 0.0
C388 C 0.2169 0.92269 0.99283 0.0
C389 C 0.19974 0.96285 0.99927 0.0
C390 C 0.17247 0.98252 0.95236 0.0
C391 C 0.16389 0.96248 0.89819 0.0
C392 C 0.18318 0.92499 0.88846 0.0
C393 C 0.17109 0.91273 0.82338 0.0
C394 C 0.21573 0.9083 0.79403 0.0
C395 C 0.14154 0.87319 0.81733 0.0
C396 C 0.14217 0.94946 0.79871 0.0
C397 C 0.13753 0.97672 0.84392 0.0
C398 C 0.11093 0.01193 0.83505 0.0
C399 C 0.09051 0.02107 0.7777 0.0
C400 C 0.09804 0.99608 0.72904 0.0
C401 C 0.12292 0.95887 0.73965 0.0
loop_
_geom_bond_atom_site_label_1
_geom_bond_atom_site_label_2
_geom_bond_distance
_geom_bond_site_symmetry_2
_ccdc_geom_bond_type
H0 C3 0.931 . S
H1 C6 0.928 . S
H2 C8 0.930 . S
C3 H0 0.931 . S
C3 C4 1.413 . S
C3 C5 1.360 . S
C4 C3 1.413 . S
C4 C8 1.429 . S
C5 C3 1.360 . S
C5 C6 1.372 . S
C6 H1 0.928 . S
C6 C5 1.372 . S
C6 C7 1.404 . S
C7 C6 1.404 . S
C7 C8 1.391 . S
C8 H2 0.930 . S
C8 C4 1.429 . S
C8 C7 1.391 . S
H9 C12 0.931 . S
H10 C15 0.928 . S
H11 C17 0.930 . S
C12 H9 0.931 . S
C12 C13 1.413 . S
C12 C14 1.360 . S
C13 C12 1.413 . S
C13 C17 1.429 . S
C14 C12 1.360 . S
C14 C15 1.372 . S
C15 H10 0.928 . S
C15 C14 1.372 . S
C15 C16 1.404 . S
C16 C15 1.404 . S
C16 C17 1.391 . S
C17 H11 0.930 . S
C17 C13 1.429 . S
C17 C16 1.391 . S
H18 C21 0.931 . S
H19 C24 0.928 . S
H20 C26 0.930 . S
C21 H18 0.931 . S
C21 C22 1.413 1_554 S
C21 C23 1.360 . S
C22 C21 1.413 1_556 S
C22 C26 1.429 . S
C23 C21 1.360 . S
C23 C24 1.372 . S
C24 H19 0.928 . S
C24 C23 1.372 . S
C24 C25 1.400 1_554 S
C25 C24 1.400 1_556 S
C25 C26 1.395 . S
C26 H20 0.930 . S
C26 C22 1.429 . S
C26 C25 1.395 . S
H27 C30 0.931 . S
H28 C33 0.928 . S
H29 C35 0.930 . S
C30 H27 0.931 . S
C30 C31 1.413 . S
C30 C32 1.360 . S
C31 C30 1.413 . S
C31 C35 1.429 . S
C32 C30 1.360 . S
C32 C33 1.372 . S
C33 H28 0.928 . S
C33 C32 1.372 . S
C33 C34 1.404 . S
C34 C33 1.404 . S
C34 C35 1.391 . S
C35 H29 0.930 . S
C35 C31 1.429 . S
C35 C34 1.391 . S
O36 Mn37 2.163 1_655 S
O36 C50 1.244 . S
Mn37 O36 2.163 1_455 S
Mn37 O40 2.160 1_545 S
Mn37 O41 2.221 . S
Mn37 O43 2.163 1_455 S
Mn37 O45 2.160 1_545 S
Mn37 O55 2.221 1_445 S
O38 Mn39 2.087 1_545 S
O38 C50 1.256 . S
Mn39 O38 2.087 1_565 S
Mn39 O46 2.089 1_655 S
Mn39 O55 2.290 . S
Mn39 O56 2.251 . S
O40 Mn37 2.160 1_565 S
O40 C51 1.239 . S
O41 Mn37 2.221 . S
O41 Mn42 2.290 . S
O41 C52 1.278 . S
Mn42 O41 2.290 . S
Mn42 O44 2.089 . S
Mn42 O47 2.251 . S
Mn42 O48 2.087 1_455 S
O43 Mn37 2.163 1_655 S
O43 C53 1.244 . S
O44 Mn42 2.089 . S
O44 C51 1.256 1_545 S
O45 Mn37 2.160 1_565 S
O45 C54 1.239 . S
O46 Mn39 2.089 1_455 S
O46 C54 1.256 . S
O47 Mn42 2.251 . S
O47 C52 1.241 . S
O48 Mn42 2.087 1_655 S
O48 C53 1.256 . S
C49 O55 1.278 . S
C49 O56 1.241 . S
C50 O36 1.244 . S
C50 O38 1.256 . S
C51 O40 1.239 . S
C51 O44 1.256 1_565 S
C52 O41 1.278 . S
C52 O47 1.241 . S
C53 O43 1.244 . S
C53 O48 1.256 . S
C54 O45 1.239 . S
C54 O46 1.256 . S
O55 Mn37 2.221 1_665 S
O55 Mn39 2.290 . S
O55 C49 1.278 . S
O56 Mn39 2.251 . S
O56 C49 1.241 . S
O57 Mn58 2.163 . S
O57 C71 1.244 . S
Mn58 O57 2.163 . S
Mn58 O61 2.160 1_554 S
Mn58 O62 2.221 . S
Mn58 O64 2.163 1_554 S
Mn58 O66 2.160 . S
Mn58 O76 2.221 . S
O59 Mn60 2.087 . S
O59 C71 1.256 . S
Mn60 O59 2.087 . S
Mn60 O67 2.089 . S
Mn60 O76 2.290 . S
Mn60 O77 2.251 . S
O61 Mn58 2.160 1_556 S
O61 C72 1.239 . S
O62 Mn58 2.221 . S
O62 Mn63 2.290 1_554 S
O62 C73 1.278 . S
Mn63 O62 2.290 1_556 S
Mn63 O65 2.089 . S
Mn63 O68 2.251 . S
Mn63 O69 2.087 . S
O64 Mn58 2.163 1_556 S
O64 C74 1.244 . S
O65 Mn63 2.089 . S
O65 C72 1.256 . S
O66 Mn58 2.160 . S
O66 C75 1.239 . S
O67 Mn60 2.089 . S
O67 C75 1.256 . S
O68 Mn63 2.251 . S
O68 C73 1.241 1_556 S
O69 Mn63 2.087 . S
O69 C74 1.256 . S
C70 O76 1.278 . S
C70 O77 1.241 . S
C71 O57 1.244 . S
C71 O59 1.256 . S
C72 O61 1.239 . S
C72 O65 1.256 . S
C73 O62 1.278 . S
C73 O68 1.241 1_554 S
C74 O64 1.244 . S
C74 O69 1.256 . S
C75 O66 1.239 . S
C75 O67 1.256 . S
O76 Mn58 2.221 . S
O76 Mn60 2.290 . S
O76 C70 1.278 . S
O77 Mn60 2.251 . S
O77 C70 1.241 . S
H78 C90 0.930 . S
H79 C92 0.930 . S
H80 C93 0.930 . S
H81 C97 0.959 . S
H82 C97 0.959 . S
H83 C97 0.961 . S
H84 C98 0.960 . S
H85 C98 0.961 . S
H86 C98 0.959 . S
H87 C101 0.929 . S
H88 C102 0.931 . S
H89 C104 0.930 . S
C90 H78 0.930 . S
C90 C91 1.399 . S
C90 C95 1.399 . S
C91 C90 1.399 . S
C91 C92 1.376 . S
C92 H79 0.930 . S
C92 C91 1.376 . S
C92 C93 1.388 . S
C93 H80 0.930 . S
C93 C92 1.388 . S
C93 C94 1.390 . S
C94 C93 1.390 . S
C94 C95 1.394 . S
C94 C100 1.465 . S
C95 C90 1.399 . S
C95 C94 1.394 . S
C95 C96 1.516 . S
C96 C95 1.516 . S
C96 C97 1.502 . S
C96 C98 1.561 . S
C96 C99 1.526 . S
C97 H81 0.959 . S
C97 H82 0.959 . S
C97 H83 0.961 . S
C97 C96 1.502 . S
C98 H84 0.960 . S
C98 H85 0.961 . S
C98 H86 0.959 . S
C98 C96 1.561 . S
C99 C96 1.526 . S
C99 C100 1.396 . S
C99 C104 1.390 . S
C100 C94 1.465 . S
C100 C99 1.396 . S
C100 C101 1.399 . S
C101 H87 0.929 . S
C101 C100 1.399 . S
C101 C102 1.385 . S
C102 H88 0.931 . S
C102 C101 1.385 . S
C102 C103 1.389 . S
C103 C102 1.389 . S
C103 C104 1.387 . S
C104 H89 0.930 . S
C104 C99 1.390 . S
C104 C103 1.387 . S
H105 C117 0.930 . S
H106 C119 0.930 . S
H107 C120 0.930 . S
H108 C124 0.959 . S
H109 C124 0.959 . S
H110 C124 0.961 . S
H111 C125 0.960 . S
H112 C125 0.961 . S
H113 C125 0.959 . S
H114 C128 0.929 . S
H115 C129 0.931 . S
H116 C131 0.930 1_556 S
C117 H105 0.930 . S
C117 C118 1.399 . S
C117 C122 1.399 . S
C118 C117 1.399 . S
C118 C119 1.376 . S
C119 H106 0.930 . S
C119 C118 1.376 . S
C119 C120 1.388 . S
C120 H107 0.930 . S
C120 C119 1.388 . S
C120 C121 1.390 . S
C121 C120 1.390 . S
C121 C122 1.394 . S
C121 C127 1.465 . S
C122 C117 1.399 . S
C122 C121 1.394 . S
C122 C123 1.516 . S
C123 C122 1.516 . S
C123 C124 1.502 1_554 S
C123 C125 1.561 1_554 S
C123 C126 1.526 . S
C124 H108 0.959 . S
C124 H109 0.959 . S
C124 H110 0.961 . S
C124 C123 1.502 1_556 S
C125 H111 0.960 . S
C125 H112 0.961 . S
C125 H113 0.959 . S
C125 C123 1.561 1_556 S
C126 C123 1.526 . S
C126 C127 1.396 . S
C126 C131 1.390 . S
C127 C121 1.465 . S
C127 C126 1.396 . S
C127 C128 1.399 . S
C128 H114 0.929 . S
C128 C127 1.399 . S
C128 C129 1.385 . S
C129 H115 0.931 . S
C129 C128 1.385 . S
C129 C130 1.389 . S
C130 C129 1.389 . S
C130 C131 1.387 . S
C131 H116 0.930 1_554 S
C131 C126 1.390 . S
C131 C130 1.387 . S
H132 C144 0.930 . S
H133 C146 0.930 . S
H134 C147 0.930 . S
H135 C151 0.959 . S
H136 C151 0.959 . S
H137 C151 0.961 . S
H138 C152 0.960 . S
H139 C152 0.961 . S
H140 C152 0.959 . S
H141 C155 0.929 . S
H142 C156 0.931 . S
H143 C158 0.930 . S
C144 H132 0.930 . S
C144 C145 1.399 . S
C144 C149 1.399 . S
C145 C144 1.399 . S
C145 C146 1.376 . S
C146 H133 0.930 . S
C146 C145 1.376 . S
C146 C147 1.388 . S
C147 H134 0.930 . S
C147 C146 1.388 . S
C147 C148 1.390 . S
C148 C147 1.390 . S
C148 C149 1.394 . S
C148 C154 1.465 . S
C149 C144 1.399 . S
C149 C148 1.394 . S
C149 C150 1.516 . S
C150 C149 1.516 . S
C150 C151 1.502 . S
C150 C152 1.561 . S
C150 C153 1.526 . S
C151 H135 0.959 . S
C151 H136 0.959 . S
C151 H137 0.961 . S
C151 C150 1.502 . S
C152 H138 0.960 . S
C152 H139 0.961 . S
C152 H140 0.959 . S
C152 C150 1.561 . S
C153 C150 1.526 . S
C153 C154 1.396 . S
C153 C158 1.390 . S
C154 C148 1.465 . S
C154 C153 1.396 . S
C154 C155 1.399 . S
C155 H141 0.929 . S
C155 C154 1.399 . S
C155 C156 1.385 . S
C156 H142 0.931 . S
C156 C155 1.385 . S
C156 C157 1.389 . S
C157 C156 1.389 . S
C157 C158 1.387 . S
C158 H143 0.930 . S
C158 C153 1.390 . S
C158 C157 1.387 . S
H159 C171 0.930 . S
H160 C173 0.930 . S
H161 C174 0.930 . S
H162 C178 0.959 . S
H163 C178 0.959 . S
H164 C178 0.961 . S
H165 C179 0.960 . S
H166 C179 0.961 . S
H167 C179 0.959 . S
H168 C182 0.929 . S
H169 C183 0.931 . S
H170 C185 0.930 . S
C171 H159 0.930 . S
C171 C172 1.399 1_554 S
C171 C176 1.399 . S
C172 C171 1.399 1_556 S
C172 C173 1.376 . S
C173 H160 0.930 . S
C173 C172 1.376 . S
C173 C174 1.388 . S
C174 H161 0.930 . S
C174 C173 1.388 . S
C174 C175 1.390 . S
C175 C174 1.390 . S
C175 C176 1.394 1_556 S
C175 C181 1.465 . S
C176 C171 1.399 . S
C176 C175 1.394 1_554 S
C176 C177 1.516 . S
C177 C176 1.516 . S
C177 C178 1.502 . S
C177 C179 1.561 . S
C177 C180 1.526 . S
C178 H162 0.959 . S
C178 H163 0.959 . S
C178 H164 0.961 . S
C178 C177 1.502 . S
C179 H165 0.960 . S
C179 H166 0.961 . S
C179 H167 0.959 . S
C179 C177 1.561 . S
C180 C177 1.526 . S
C180 C181 1.396 1_554 S
C180 C185 1.390 . S
C181 C175 1.465 . S
C181 C180 1.396 1_556 S
C181 C182 1.399 . S
C182 H168 0.929 . S
C182 C181 1.399 . S
C182 C183 1.385 . S
C183 H169 0.931 . S
C183 C182 1.385 . S
C183 C184 1.389 1_556 S
C184 C183 1.389 1_554 S
C184 C185 1.387 . S
C185 H170 0.930 . S
C185 C180 1.390 . S
C185 C184 1.387 . S
H186 C198 0.930 . S
H187 C200 0.930 . S
H188 C201 0.930 . S
H189 C205 0.959 . S
H190 C205 0.959 . S
H191 C205 0.961 . S
H192 C206 0.960 . S
H193 C206 0.961 . S
H194 C206 0.959 1_565 S
H195 C209 0.929 . S
H196 C210 0.931 . S
H197 C212 0.930 1_545 S
C198 H186 0.930 . S
C198 C199 1.399 . S
C198 C203 1.399 . S
C199 C198 1.399 . S
C199 C200 1.376 . S
C200 H187 0.930 . S
C200 C199 1.376 . S
C200 C201 1.388 . S
C201 H188 0.930 . S
C201 C200 1.388 . S
C201 C202 1.390 . S
C202 C201 1.390 . S
C202 C203 1.394 . S
C202 C208 1.465 . S
C203 C198 1.399 . S
C203 C202 1.394 . S
C203 C204 1.516 . S
C204 C203 1.516 . S
C204 C205 1.502 1_565 S
C204 C206 1.561 1_565 S
C204 C207 1.526 . S
C205 H189 0.959 . S
C205 H190 0.959 . S
C205 H191 0.961 . S
C205 C204 1.502 1_545 S
C206 H192 0.960 . S
C206 H193 0.961 . S
C206 H194 0.959 1_545 S
C206 C204 1.561 1_545 S
C207 C204 1.526 . S
C207 C208 1.396 . S
C207 C212 1.390 . S
C208 C202 1.465 . S
C208 C207 1.396 . S
C208 C209 1.399 . S
C209 H195 0.929 . S
C209 C208 1.399 . S
C209 C210 1.385 . S
C210 H196 0.931 . S
C210 C209 1.385 . S
C210 C211 1.389 . S
C211 C210 1.389 . S
C211 C212 1.387 . S
C212 H197 0.930 1_565 S
C212 C207 1.390 . S
C212 C211 1.387 . S
H213 C225 0.930 . S
H214 C227 0.930 . S
H215 C228 0.930 . S
H216 C232 0.959 . S
H217 C232 0.959 . S
H218 C232 0.961 . S
H219 C233 0.960 . S
H220 C233 0.961 . S
H221 C233 0.959 . S
H222 C236 0.929 . S
H223 C237 0.931 . S
H224 C239 0.930 . S
C225 H213 0.930 . S
C225 C226 1.399 . S
C225 C230 1.399 . S
C226 C225 1.399 . S
C226 C227 1.376 . S
C227 H214 0.930 . S
C227 C226 1.376 . S
C227 C228 1.388 . S
C228 H215 0.930 . S
C228 C227 1.388 . S
C228 C229 1.390 . S
C229 C228 1.390 . S
C229 C230 1.394 . S
C229 C235 1.465 . S
C230 C225 1.399 . S
C230 C229 1.394 . S
C230 C231 1.516 . S
C231 C230 1.516 . S
C231 C232 1.502 . S
C231 C233 1.561 . S
C231 C234 1.526 . S
C232 H216 0.959 . S
C232 H217 0.959 . S
C232 H218 0.961 . S
C232 C231 1.502 . S
C233 H219 0.960 . S
C233 H220 0.961 . S
C233 H221 0.959 . S
C233 C231 1.561 . S
C234 C231 1.526 . S
C234 C235 1.396 . S
C234 C239 1.390 . S
C235 C229 1.465 . S
C235 C234 1.396 . S
C235 C236 1.399 . S
C236 H222 0.929 . S
C236 C235 1.399 . S
C236 C237 1.385 . S
C237 H223 0.931 . S
C237 C236 1.385 . S
C237 C238 1.389 . S
C238 C237 1.389 . S
C238 C239 1.387 . S
C239 H224 0.930 . S
C239 C234 1.390 . S
C239 C238 1.387 . S
H240 C252 0.930 . S
H241 C254 0.930 . S
H242 C255 0.930 . S
H243 C259 0.959 . S
H244 C259 0.959 . S
H245 C259 0.961 . S
H246 C260 0.960 . S
H247 C260 0.961 . S
H248 C260 0.959 . S
H249 C263 0.929 . S
H250 C264 0.931 . S
H251 C266 0.930 . S
C252 H240 0.930 . S
C252 C253 1.399 . S
C252 C257 1.399 . S
C253 C252 1.399 . S
C253 C254 1.376 . S
C254 H241 0.930 . S
C254 C253 1.376 . S
C254 C255 1.388 . S
C255 H242 0.930 . S
C255 C254 1.388 . S
C255 C256 1.390 . S
C256 C255 1.390 . S
C256 C257 1.394 . S
C256 C262 1.465 . S
C257 C252 1.399 . S
C257 C256 1.394 . S
C257 C258 1.516 . S
C258 C257 1.516 . S
C258 C259 1.502 . S
C258 C260 1.561 . S
C258 C261 1.526 . S
C259 H243 0.959 . S
C259 H244 0.959 . S
C259 H245 0.961 . S
C259 C258 1.502 . S
C260 H246 0.960 . S
C260 H247 0.961 . S
C260 H248 0.959 . S
C260 C258 1.561 . S
C261 C258 1.526 . S
C261 C262 1.396 . S
C261 C266 1.390 . S
C262 C256 1.465 . S
C262 C261 1.396 . S
C262 C263 1.399 . S
C263 H249 0.929 . S
C263 C262 1.399 . S
C263 C264 1.385 . S
C264 H250 0.931 . S
C264 C263 1.385 . S
C264 C265 1.389 . S
C265 C264 1.389 . S
C265 C266 1.387 . S
C266 H251 0.930 . S
C266 C261 1.390 . S
C266 C265 1.387 . S
H267 C279 0.930 . S
H268 C281 0.930 . S
H269 C282 0.930 . S
H270 C286 0.959 . S
H271 C286 0.959 . S
H272 C286 0.961 . S
H273 C287 0.960 . S
H274 C287 0.961 . S
H275 C287 0.959 . S
H276 C290 0.929 . S
H277 C291 0.931 . S
H278 C293 0.930 . S
C279 H267 0.930 . S
C279 C280 1.399 . S
C279 C284 1.399 . S
C280 C279 1.399 . S
C280 C281 1.376 . S
C281 H268 0.930 . S
C281 C280 1.376 . S
C281 C282 1.388 . S
C282 H269 0.930 . S
C282 C281 1.388 . S
C282 C283 1.390 . S
C283 C282 1.390 . S
C283 C284 1.394 . S
C283 C289 1.465 . S
C284 C279 1.399 . S
C284 C283 1.394 . S
C284 C285 1.516 . S
C285 C284 1.516 . S
C285 C286 1.502 . S
C285 C287 1.561 . S
C285 C288 1.526 . S
C286 H270 0.959 . S
C286 H271 0.959 . S
C286 H272 0.961 . S
C286 C285 1.502 . S
C287 H273 0.960 . S
C287 H274 0.961 . S
C287 H275 0.959 . S
C287 C285 1.561 . S
C288 C285 1.526 . S
C288 C289 1.396 . S
C288 C293 1.390 . S
C289 C283 1.465 . S
C289 C288 1.396 . S
C289 C290 1.399 . S
C290 H276 0.929 . S
C290 C289 1.399 . S
C290 C291 1.385 . S
C291 H277 0.931 . S
C291 C290 1.385 . S
C291 C292 1.389 . S
C292 C291 1.389 . S
C292 C293 1.387 . S
C293 H278 0.930 . S
C293 C288 1.390 . S
C293 C292 1.387 . S
H294 C306 0.930 . S
H295 C308 0.930 . S
H296 C309 0.930 . S
H297 C313 0.959 . S
H298 C313 0.959 . S
H299 C313 0.961 . S
H300 C314 0.960 . S
H301 C314 0.961 . S
H302 C314 0.959 . S
H303 C317 0.929 . S
H304 C318 0.931 . S
H305 C320 0.930 . S
C306 H294 0.930 . S
C306 C307 1.399 . S
C306 C311 1.399 . S
C307 C306 1.399 . S
C307 C308 1.376 . S
C308 H295 0.930 . S
C308 C307 1.376 . S
C308 C309 1.388 . S
C309 H296 0.930 . S
C309 C308 1.388 . S
C309 C310 1.390 . S
C310 C309 1.390 . S
C310 C311 1.394 . S
C310 C316 1.465 . S
C311 C306 1.399 . S
C311 C310 1.394 . S
C311 C312 1.516 . S
C312 C311 1.516 . S
C312 C313 1.502 . S
C312 C314 1.561 . S
C312 C315 1.526 . S
C313 H297 0.959 . S
C313 H298 0.959 . S
C313 H299 0.961 . S
C313 C312 1.502 . S
C314 H300 0.960 . S
C314 H301 0.961 . S
C314 H302 0.959 . S
C314 C312 1.561 . S
C315 C312 1.526 . S
C315 C316 1.396 . S
C315 C320 1.390 . S
C316 C310 1.465 . S
C316 C315 1.396 . S
C316 C317 1.399 . S
C317 H303 0.929 . S
C317 C316 1.399 . S
C317 C318 1.385 . S
C318 H304 0.931 . S
C318 C317 1.385 . S
C318 C319 1.389 . S
C319 C318 1.389 . S
C319 C320 1.387 . S
C320 H305 0.930 . S
C320 C315 1.390 . S
C320 C319 1.387 . S
H321 C333 0.930 . S
H322 C335 0.930 . S
H323 C336 0.930 . S
H324 C340 0.959 . S
H325 C340 0.959 1_565 S
H326 C340 0.961 . S
H327 C341 0.960 . S
H328 C341 0.961 1_565 S
H329 C341 0.959 . S
H330 C344 0.929 . S
H331 C345 0.931 . S
H332 C347 0.930 . S
C333 H321 0.930 . S
C333 C334 1.399 . S
C333 C338 1.399 . S
C334 C333 1.399 . S
C334 C335 1.376 . S
C335 H322 0.930 . S
C335 C334 1.376 . S
C335 C336 1.388 . S
C336 H323 0.930 . S
C336 C335 1.388 . S
C336 C337 1.390 . S
C337 C336 1.390 . S
C337 C338 1.394 . S
C337 C343 1.465 . S
C338 C333 1.399 . S
C338 C337 1.394 . S
C338 C339 1.516 . S
C339 C338 1.516 . S
C339 C340 1.502 . S
C339 C341 1.561 . S
C339 C342 1.526 . S
C340 H324 0.959 . S
C340 H325 0.959 1_545 S
C340 H326 0.961 . S
C340 C339 1.502 . S
C341 H327 0.960 . S
C341 H328 0.961 1_545 S
C341 H329 0.959 . S
C341 C339 1.561 . S
C342 C339 1.526 . S
C342 C343 1.396 . S
C342 C347 1.390 . S
C343 C337 1.465 . S
C343 C342 1.396 . S
C343 C344 1.399 . S
C344 H330 0.929 . S
C344 C343 1.399 . S
C344 C345 1.385 . S
C345 H331 0.931 . S
C345 C344 1.385 . S
C345 C346 1.389 . S
C346 C345 1.389 . S
C346 C347 1.387 . S
C347 H332 0.930 . S
C347 C342 1.390 . S
C347 C346 1.387 . S
H348 C360 0.930 . S
H349 C362 0.930 . S
H350 C363 0.930 . S
H351 C367 0.959 . S
H352 C367 0.959 . S
H353 C367 0.961 . S
H354 C368 0.960 . S
H355 C368 0.961 . S
H356 C368 0.959 . S
H357 C371 0.929 . S
H358 C372 0.931 . S
H359 C374 0.930 . S
C360 H348 0.930 . S
C360 C361 1.399 . S
C360 C365 1.399 . S
C361 C360 1.399 . S
C361 C362 1.376 . S
C362 H349 0.930 . S
C362 C361 1.376 . S
C362 C363 1.388 . S
C363 H350 0.930 . S
C363 C362 1.388 . S
C363 C364 1.390 . S
C364 C363 1.390 . S
C364 C365 1.394 . S
C364 C370 1.465 . S
C365 C360 1.399 . S
C365 C364 1.394 . S
C365 C366 1.516 . S
C366 C365 1.516 . S
C366 C367 1.502 . S
C366 C368 1.561 . S
C366 C369 1.526 . S
C367 H351 0.959 . S
C367 H352 0.959 . S
C367 H353 0.961 . S
C367 C366 1.502 . S
C368 H354 0.960 . S
C368 H355 0.961 . S
C368 H356 0.959 . S
C368 C366 1.561 . S
C369 C366 1.526 . S
C369 C370 1.396 . S
C369 C374 1.390 . S
C370 C364 1.465 . S
C370 C369 1.396 . S
C370 C371 1.399 . S
C371 H357 0.929 . S
C371 C370 1.399 . S
C371 C372 1.385 . S
C372 H358 0.931 . S
C372 C371 1.385 . S
C372 C373 1.389 . S
C373 C372 1.389 . S
C373 C374 1.387 . S
C374 H359 0.930 . S
C374 C369 1.390 . S
C374 C373 1.387 . S
H375 C387 0.930 . S
H376 C389 0.930 1_554 S
H377 C390 0.930 1_545 S
H378 C394 0.959 . S
H379 C394 0.959 . S
H380 C394 0.961 . S
H381 C395 0.960 . S
H382 C395 0.961 . S
H383 C395 0.959 . S
H384 C398 0.929 . S
H385 C399 0.931 . S
H386 C401 0.930 . S
C387 H375 0.930 . S
C387 C388 1.399 . S
C387 C392 1.399 . S
C388 C387 1.399 . S
C388 C389 1.376 . S
C389 H376 0.930 1_556 S
C389 C388 1.376 . S
C389 C390 1.388 . S
C390 H377 0.930 1_565 S
C390 C389 1.388 . S
C390 C391 1.390 . S
C391 C390 1.390 . S
C391 C392 1.394 . S
C391 C397 1.465 . S
C392 C387 1.399 . S
C392 C391 1.394 . S
C392 C393 1.516 . S
C393 C392 1.516 . S
C393 C394 1.502 . S
C393 C395 1.561 . S
C393 C396 1.526 . S
C394 H378 0.959 . S
C394 H379 0.959 . S
C394 H380 0.961 . S
C394 C393 1.502 . S
C395 H381 0.960 . S
C395 H382 0.961 . S
C395 H383 0.959 . S
C395 C393 1.561 . S
C396 C393 1.526 . S
C396 C397 1.396 . S
C396 C401 1.390 . S
C397 C391 1.465 . S
C397 C396 1.396 . S
C397 C398 1.399 1_565 S
C398 H384 0.929 . S
C398 C397 1.399 1_545 S
C398 C399 1.385 . S
C399 H385 0.931 . S
C399 C398 1.385 . S
C399 C400 1.389 1_545 S
C400 C399 1.389 1_565 S
C400 C401 1.387 . S
C401 H386 0.930 . S
C401 C396 1.390 . S
C401 C400 1.387 . S
C103 C52 1.187 . S
C91 C34 1.406 . S
C118 C7 1.452 . S
C130 C73 1.319 . S
C145 C16 1.582 . S
C157 C49 1.304 . S
C172 C25 1.573 . S
C184 C70 1.423 . S
C211 C54 1.469 . S
C199 C5 1.499 . S
C238 C74 1.474 . S
C226 C13 1.543 . S
C253 C23 1.537 . S
C265 C50 1.443 . S
C280 C32 1.524 . S
C292 C72 1.413 . S
C319 C71 1.507 . S
C307 C14 1.509 . S
C346 C53 1.465 . S
C334 C22 1.539 . S
C373 C75 1.502 . S
C361 C31 1.523 . S
C388 C4 1.513 1_556 S
C400 C51 1.409 . S
