# Generated by pormake.
# Topology anh, (6,3)-cn, num edge types: 1
# Building blocks:
#     Node 0, Type 0, BuildingBlock: NUHQIS_clean_sbu_0, # of connection points: 6
#     Node 1, Type 0, BuildingBlock: NUHQIS_clean_sbu_0, # of connection points: 6
#     Node 2, Type 0, BuildingBlock: NUHQIS_clean_sbu_0, # of connection points: 6
#     Node 3, Type 1, BuildingBlock: MIDCAF_clean_linker_0, # of connection points: 3
#     Node 4, Type 1, BuildingBlock: MIDCAF_clean_linker_0, # of connection points: 3
#     Node 5, Type 1, BuildingBlock: MIDCAF_clean_linker_0, # of connection points: 3
#     Node 6, Type 1, BuildingBlock: MIDCAF_clean_linker_0, # of connection points: 3
#     Node 7, Type 1, BuildingBlock: MIDCAF_clean_linker_0, # of connection points: 3
#     Node 8, Type 1, BuildingBlock: MIDCAF_clean_linker_0, # of connection points: 3
#     Edge 9, Type (0, 1), BuildingBlock: ZUJKAS_clean_linker_0, # of connection points: 2
#     Edge 10, Type (0, 1), BuildingBlock: ZUJKAS_clean_linker_0, # of connection points: 2
#     Edge 11, Type (0, 1), BuildingBlock: ZUJKAS_clean_linker_0, # of connection points: 2
#     Edge 12, Type (0, 1), BuildingBlock: ZUJKAS_clean_linker_0, # of connection points: 2
#     Edge 13, Type (0, 1), BuildingBlock: ZUJKAS_clean_linker_0, # of connection points: 2
#     Edge 14, Type (0, 1), BuildingBlock: ZUJKAS_clean_linker_0, # of connection points: 2
#     Edge 15, Type (0, 1), BuildingBlock: ZUJKAS_clean_linker_0, # of connection points: 2
#     Edge 16, Type (0, 1), BuildingBlock: ZUJKAS_clean_linker_0, # of connection points: 2
#     Edge 17, Type (0, 1), BuildingBlock: ZUJKAS_clean_linker_0, # of connection points: 2
#     Edge 18, Type (0, 1), BuildingBlock: ZUJKAS_clean_linker_0, # of connection points: 2
#     Edge 19, Type (0, 1), BuildingBlock: ZUJKAS_clean_linker_0, # of connection points: 2
#     Edge 20, Type (0, 1), BuildingBlock: ZUJKAS_clean_linker_0, # of connection points: 2
#     Edge 21, Type (0, 1), BuildingBlock: ZUJKAS_clean_linker_0, # of connection points: 2
#     Edge 22, Type (0, 1), BuildingBlock: ZUJKAS_clean_linker_0, # of connection points: 2
#     Edge 23, Type (0, 1), BuildingBlock: ZUJKAS_clean_linker_0, # of connection points: 2
#     Edge 24, Type (0, 1), BuildingBlock: ZUJKAS_clean_linker_0, # of connection points: 2
#     Edge 25, Type (0, 1), BuildingBlock: ZUJKAS_clean_linker_0, # of connection points: 2
#     Edge 26, Type (0, 1), BuildingBlock: ZUJKAS_clean_linker_0, # of connection points: 2
# Relax obj value: 0.203
# Max RMSD: 0.184
# Mean RMSD: 0.150
data_MOF--net-anh--node1-NUHQIS_clean_sbu_0--node2-MIDCAF_clean_linker_0--edge1-ZUJKAS_clean_linker_0
_symmetry_space_group_name_H-M    P1
_symmetry_Int_Tables_number       1
_symmetry_cell_setting            triclinic
loop_
_symmetry_equiv_pos_as_xyz
'x, y, z'
_cell_length_a     44.898531
_cell_length_b     44.944245
_cell_length_c     82.032704
_cell_angle_alpha  90.119057
_cell_angle_beta   92.576352
_cell_angle_gamma 120.16831
loop_
_atom_site_label
_atom_site_type_symbol
_atom_site_fract_x
_atom_site_fract_y
_atom_site_fract_z
_atom_type_partial_charge
Tb0 Tb 0.11872 0.56983 0.16541 0.0
Eu1 Eu 0.08065 0.61486 0.16158 0.0
C2 C 0.09328 0.59007 0.19546 0.0
C3 C 1.03714 0.53069 0.16269 0.0
C4 C 0.18858 0.54973 0.17183 0.0
C5 C 0.23519 0.54242 0.18308 0.0
C6 C 0.20009 0.53135 0.18137 0.0
C7 C 0.21251 0.57953 0.16409 0.0
C8 C 0.24769 0.59049 0.16569 0.0
C9 C 0.25933 0.57206 0.17526 0.0
C10 C 0.15198 0.53923 0.17133 0.0
O11 O 0.1246 0.58322 0.13973 0.0
O12 O 0.08615 0.60268 0.13573 0.0
O13 O 0.13612 0.65327 0.15706 0.0
O14 O 0.15939 0.62396 0.17014 0.0
C15 C 0.10688 0.59285 0.1301 0.0
O16 O 1.04079 0.62369 0.1505 0.0
O17 O 1.07328 0.65621 0.17086 0.0
O18 O 0.09866 0.61758 0.18779 0.0
O19 O 0.09119 0.56399 0.18739 0.0
O20 O 1.06516 0.53012 0.15902 0.0
O21 O 1.03856 0.55994 0.16643 0.0
C22 C 0.16282 0.65248 0.16383 0.0
O23 O 0.14389 0.55424 0.18243 0.0
O24 O 0.13735 0.53823 0.15708 0.0
C25 C 1.01323 0.63355 0.17142 0.0
C26 C 0.94835 0.59053 0.18402 0.0
C27 C 0.95121 0.60911 0.16979 0.0
C28 C 0.98345 0.63044 0.16354 0.0
C29 C 1.01072 0.61777 0.18649 0.0
C30 C 0.97856 0.59657 0.19276 0.0
C31 C 1.04435 0.64509 0.16221 0.0
H32 H 0.2434 0.52739 0.19029 0.0
H33 H 0.18192 0.50856 0.18758 0.0
H34 H 0.20401 0.59441 0.15694 0.0
H35 H 0.2658 0.61344 0.15956 0.0
H36 H 0.92843 0.60481 0.16266 0.0
H37 H 0.98477 0.64198 0.15181 0.0
H38 H 1.03328 0.61943 0.19277 0.0
H39 H 0.9772 0.58298 0.20385 0.0
Tb40 Tb 0.64292 0.10352 0.49918 0.0
Eu41 Eu 0.55945 0.06056 0.49308 0.0
C42 C 0.5949 0.07545 0.52811 0.0
C43 C 0.60388 1.02121 0.49604 0.0
C44 C 0.72342 0.17488 0.51425 0.0
C45 C 0.77328 0.2318 0.51897 0.0
C46 C 0.75878 0.19776 0.51317 0.0
C47 C 0.70301 0.18582 0.52184 0.0
C48 C 0.71735 0.21976 0.52747 0.0
C49 C 0.7524 0.2433 0.52569 0.0
C50 C 0.70651 0.14112 0.50582 0.0
O51 O 0.63262 0.08693 0.47345 0.0
O52 O 0.58145 0.08592 0.46961 0.0
O53 O 0.57197 0.11484 0.49976 0.0
O54 O 0.62982 0.14397 0.49527 0.0
C55 C 0.60899 0.08782 0.46372 0.0
O56 O 0.5126 1.02486 0.47879 0.0
O57 O 0.50906 1.04734 0.50157 0.0
O58 O 0.57228 1.05062 0.51836 0.0
O59 O 0.61998 0.10328 0.52207 0.0
O60 O 0.63117 1.05012 0.50154 0.0
O61 O 0.57565 1.02046 0.49023 0.0
C62 C 0.60114 0.14386 0.49815 0.0
O63 O 0.68624 0.11527 0.51463 0.0
O64 O 0.69177 0.14024 0.49162 0.0
C65 C 0.46938 0.98911 0.49638 0.0
C66 C 0.42723 0.9252 0.51055 0.0
C67 C 0.45969 0.9335 0.50511 0.0
C68 C 0.48063 0.96521 0.49819 0.0
C69 C 0.43718 0.98116 0.50186 0.0
C70 C 0.41624 0.94945 0.50891 0.0
C71 C 0.49259 1.02342 0.49024 0.0
H72 H 0.80033 0.24962 0.51728 0.0
H73 H 0.77479 0.18977 0.50722 0.0
H74 H 0.67558 0.16853 0.52273 0.0
H75 H 0.70076 0.22798 0.53263 0.0
H76 H 0.46875 0.91528 0.50591 0.0
H77 H 0.50572 0.97111 0.49432 0.0
H78 H 0.42843 0.99962 0.50087 0.0
H79 H 0.39156 0.94403 0.51316 0.0
Tb80 Tb 0.62301 0.61658 0.83092 0.0
Eu81 Eu 0.58256 0.53408 0.82344 0.0
C82 C 0.60171 0.5645 0.85906 0.0
C83 C 0.66691 0.5788 0.8287 0.0
C84 C 0.62739 0.69424 0.84418 0.0
C85 C 0.61096 0.73789 0.84213 0.0
C86 C 0.6351 0.72741 0.83999 0.0
C87 C 0.59654 0.67271 0.85175 0.0
C88 C 0.5723 0.68296 0.85373 0.0
C89 C 0.57842 0.71498 0.84814 0.0
C90 C 0.6471 0.67927 0.83774 0.0
O91 O 0.63078 0.60879 0.80543 0.0
O92 O 0.57944 0.55937 0.80047 0.0
O93 O 0.54049 0.54525 0.83017 0.0
O94 O 0.56925 0.60321 0.82571 0.0
C95 C 0.6061 0.5868 0.79513 0.0
O96 O 0.57397 0.4902 0.8083 0.0
O97 O 0.54447 0.48199 0.82977 0.0
O98 O 0.60405 0.54317 0.84913 0.0
O99 O 0.6001 0.59092 0.85338 0.0
O100 O 0.6651 0.60538 0.83429 0.0
O101 O 0.6395 0.55125 0.82217 0.0
C102 C 0.5406 0.57444 0.82849 0.0
O103 O 0.65144 0.65855 0.84738 0.0
O104 O 0.63672 0.66602 0.82301 0.0
C105 C 0.56534 0.44447 0.82486 0.0
C106 C 0.5921 0.4027 0.83546 0.0
C107 C 0.57038 0.39373 0.8212 0.0
C108 C 0.55706 0.41449 0.81595 0.0
C109 C 0.58679 0.45334 0.83917 0.0
C110 C 0.59986 0.43249 0.84449 0.0
C111 C 0.55396 0.46795 0.81871 0.0
H112 H 0.61709 0.76325 0.83821 0.0
H113 H 0.65874 0.74436 0.83411 0.0
H114 H 0.58988 0.6468 0.85497 0.0
H115 H 0.54768 0.66451 0.85836 0.0
H116 H 0.56373 0.37066 0.8141 0.0
H117 H 0.5408 0.40746 0.80481 0.0
H118 H 0.59397 0.47675 0.84609 0.0
H119 H 0.61678 0.44016 0.85542 0.0
C120 C 0.51325 0.96892 0.20486 0.0
C121 C 0.49504 0.96861 0.19039 0.0
C122 C 0.5087 0.99939 0.18157 0.0
C123 C 0.53912 1.02958 0.18731 0.0
H124 H 0.66902 0.12394 0.18228 0.0
H125 H 0.71903 0.17601 0.17231 0.0
H126 H 0.70952 0.23689 0.21026 0.0
H127 H 0.66032 0.1855 0.2201 0.0
H128 H 0.65632 0.14584 0.25617 0.0
H129 H 0.65978 0.14643 0.28595 0.0
H130 H 0.57798 1.04019 0.28521 0.0
H131 H 0.57475 1.03931 0.25553 0.0
H132 H 0.55562 0.99775 0.22202 0.0
H133 H 0.5037 0.94627 0.21222 0.0
H134 H 0.49573 1.00027 0.17029 0.0
H135 H 0.54826 0.05294 0.18051 0.0
N136 N 0.60854 0.09014 0.20173 0.0
N137 N 0.6355 0.1194 0.22676 0.0
N138 N 0.58822 0.06364 0.22675 0.0
C139 C 0.63388 0.11898 0.21014 0.0
C140 C 0.61297 0.0919 0.23517 0.0
C141 C 0.58538 0.06221 0.21017 0.0
C142 C 0.66042 0.15042 0.20196 0.0
C143 C 0.67722 0.14859 0.18823 0.0
C144 C 0.70617 0.17842 0.18265 0.0
C145 C 0.7186 0.21091 0.19047 0.0
C146 C 0.70076 0.21266 0.20376 0.0
C147 C 0.67243 0.183 0.20946 0.0
C148 C 0.61526 0.09253 0.25335 0.0
C149 C 0.63909 0.12255 0.26233 0.0
C150 C 0.64097 0.12297 0.27943 0.0
C151 C 0.6192 0.09335 0.288 0.0
C152 C 0.59547 0.06334 0.27903 0.0
C153 C 0.59348 0.06294 0.26196 0.0
C154 C 0.55641 1.02986 0.20212 0.0
C155 C 0.54319 0.99883 0.21058 0.0
C156 C 0.63771 0.49262 0.5368 0.0
C157 C 0.61652 0.47321 0.52319 0.0
C158 C 0.59675 0.48554 0.51488 0.0
C159 C 0.59781 0.51604 0.52025 0.0
H160 H 0.58433 0.62068 0.51228 0.0
H161 H 0.58314 0.6717 0.502 0.0
H162 H 0.64919 0.73196 0.54338 0.0
H163 H 0.65065 0.68208 0.5533 0.0
H164 H 0.61214 0.6373 0.58696 0.0
H165 H 0.61367 0.63927 0.61665 0.0
H166 H 0.62363 0.54861 0.61792 0.0
H167 H 0.62256 0.54676 0.58818 0.0
H168 H 0.6543 0.53591 0.55309 0.0
H169 H 0.65301 0.48404 0.54369 0.0
H170 H 0.58025 0.47148 0.50429 0.0
H171 H 0.58165 0.52427 0.51389 0.0
N172 N 0.61517 0.58939 0.53348 0.0
N173 N 0.61611 0.61636 0.55834 0.0
N174 N 0.61675 0.56483 0.55869 0.0
C175 C 0.61557 0.61627 0.54176 0.0
C176 C 0.61645 0.59083 0.56691 0.0
C177 C 0.61606 0.56355 0.5421 0.0
C178 C 0.61759 0.64709 0.53363 0.0
C179 C 0.59908 0.64504 0.51894 0.0
C180 C 0.59812 0.67426 0.51317 0.0
C181 C 0.61612 0.7063 0.52181 0.0
C182 C 0.63538 0.70821 0.53617 0.0
C183 C 0.63603 0.67928 0.54195 0.0
C184 C 0.61721 0.59185 0.58508 0.0
C185 C 0.61468 0.61774 0.59352 0.0
C186 C 0.61537 0.61879 0.61058 0.0
C187 C 0.61874 0.59409 0.61969 0.0
C188 C 0.6214 0.56827 0.61129 0.0
C189 C 0.62056 0.5671 0.59421 0.0
C190 C 0.61815 0.53452 0.53425 0.0
C191 C 0.63834 0.52249 0.54225 0.0
C192 C 1.01063 0.60193 0.87223 0.0
C193 C 0.99439 0.58666 0.857 0.0
C194 C 1.00969 0.57193 0.84761 0.0
C195 C 1.04013 0.57236 0.85344 0.0
H196 H 0.14266 0.55571 0.84783 0.0
H197 H 0.19362 0.55577 0.83772 0.0
H198 H 0.25658 0.62465 0.87762 0.0
H199 H 0.20637 0.62448 0.88756 0.0
H200 H 0.16988 0.60268 0.92288 0.0
H201 H 0.17125 0.60238 0.95273 0.0
H202 H 1.06137 0.56245 0.9513 0.0
H203 H 1.05988 0.56295 0.92154 0.0
H204 H 1.05144 0.61371 0.89 0.0
H205 H 0.99972 0.61309 0.88001 0.0
H206 H 0.99813 0.56005 0.83577 0.0
H207 H 1.05082 0.56032 0.84609 0.0
N208 N 0.11176 0.58607 0.86825 0.0
N209 N 0.14007 0.58598 0.89322 0.0
N210 N 0.08692 0.58348 0.89331 0.0
C211 C 0.13947 0.58688 0.87662 0.0
C212 C 0.11383 0.58387 0.90164 0.0
C213 C 0.0854 0.5848 0.87675 0.0
C214 C 0.17027 0.59017 0.8685 0.0
C215 C 0.16754 0.57137 0.85421 0.0
C216 C 0.19675 0.57113 0.84853 0.0
C217 C 0.22952 0.59022 0.85683 0.0
C218 C 0.23216 0.60993 0.87073 0.0
C219 C 0.20313 0.60971 0.8765 0.0
C220 C 0.11478 0.58289 0.91977 0.0
C221 C 0.14598 0.59371 0.92891 0.0
C222 C 0.14682 0.59372 0.94602 0.0
C223 C 0.11642 0.58237 0.95435 0.0
C224 C 0.08518 0.57107 0.94522 0.0
C225 C 0.0844 0.57157 0.92816 0.0
C226 C 1.05561 0.58698 0.86892 0.0
C227 C 1.04045 0.60202 0.87805 0.0
C228 C 0.16815 0.62451 0.46077 0.0
C229 C 0.16992 0.63367 0.47734 0.0
C230 C 0.14109 0.63281 0.48386 0.0
C231 C 0.11166 0.62417 0.47395 0.0
H232 H 1.01656 0.62803 0.4708 0.0
H233 H 0.96754 0.60647 0.48808 0.0
H234 H 0.90753 0.52255 0.45319 0.0
H235 H 0.95588 0.54543 0.43562 0.0
H236 H 0.99716 0.55524 0.39904 0.0
H237 H 0.99925 0.54884 0.36965 0.0
H238 H 0.10785 0.62576 0.37264 0.0
H239 H 0.10599 0.63035 0.40199 0.0
H240 H 0.13846 0.60966 0.43805 0.0
H241 H 0.18979 0.62458 0.45542 0.0
H242 H 0.14174 0.64034 0.49648 0.0
H243 H 0.09029 0.62456 0.47935 0.0
N244 N 1.05067 0.60413 0.45342 0.0
N245 N 1.02158 0.59114 0.42762 0.0
N246 N 0.07954 0.60501 0.43024 0.0
C247 C 1.0217 0.59555 0.44402 0.0
C248 C 1.05074 0.59647 0.42065 0.0
C249 C 0.07957 0.60856 0.44667 0.0
C250 C 0.99007 0.58791 0.45207 0.0
C251 C 0.99241 0.60563 0.46663 0.0
C252 C 0.96437 0.59317 0.47655 0.0
C253 C 0.9338 0.56217 0.47233 0.0
C254 C 0.93046 0.54656 0.4569 0.0
C255 C 0.95831 0.55953 0.4468 0.0
C256 C 1.05144 0.59313 0.40279 0.0
C257 C 1.02143 0.57066 0.39335 0.0
C258 C 1.02265 0.56717 0.37648 0.0
C259 C 1.05378 0.58665 0.36865 0.0
C260 C 0.08359 0.60958 0.37818 0.0
C261 C 0.08251 0.61247 0.39505 0.0
C262 C 0.11039 0.61636 0.45723 0.0
C263 C 0.13874 0.61605 0.45081 0.0
C264 C 0.61567 0.142 0.79553 0.0
C265 C 0.62228 0.13662 0.81191 0.0
C266 C 0.61 0.10265 0.81689 0.0
C267 C 0.58984 0.07483 0.8061 0.0
H268 H 0.48866 0.98609 0.80621 0.0
H269 H 0.4574 0.93254 0.82055 0.0
H270 H 0.44745 0.87493 0.77647 0.0
H271 H 0.47858 0.92874 0.76192 0.0
H272 H 0.50853 0.97613 0.72861 0.0
H273 H 0.51586 0.98252 0.6993 0.0
H274 H 0.57842 0.09285 0.70663 0.0
H275 H 0.57199 0.08647 0.73583 0.0
H276 H 0.59058 0.11931 0.77235 0.0
H277 H 0.62392 0.16759 0.79121 0.0
H278 H 0.61512 0.09744 0.82927 0.0
H279 H 0.57986 1.04895 0.81045 0.0
N280 N 0.53432 1.02123 0.7854 0.0
N281 N 0.51362 0.99704 0.75906 0.0
N282 N 0.55939 0.05403 0.76262 0.0
C283 C 0.51178 0.99417 0.77555 0.0
C284 C 0.53733 1.02712 0.75252 0.0
C285 C 0.55823 1.05112 0.77905 0.0
C286 C 0.4869 0.96164 0.78303 0.0
C287 C 0.47924 0.96202 0.79944 0.0
C288 C 0.46116 0.93137 0.80766 0.0
C289 C 0.45048 0.89968 0.79968 0.0
C290 C 0.45526 0.89904 0.78288 0.0
C291 C 0.47329 0.92985 0.77459 0.0
C292 C 0.53988 1.03073 0.73461 0.0
C293 C 0.52372 1.00175 0.72395 0.0
C294 C 0.52782 1.00543 0.70713 0.0
C295 C 0.54798 1.03819 0.7006 0.0
C296 C 0.56338 0.06717 0.71125 0.0
C297 C 0.5595 0.06349 0.72803 0.0
C298 C 0.58213 0.08039 0.79 0.0
C299 C 0.59614 0.11423 0.78468 0.0
C300 C 0.63162 0.38558 0.10699 0.0
C301 C 0.63376 0.38557 0.12414 0.0
C302 C 0.60915 0.38867 0.13282 0.0
C303 C 0.58497 0.39483 0.12462 0.0
H304 H 0.54024 0.45104 0.13455 0.0
H305 H 0.51703 0.4791 0.15109 0.0
H306 H 0.46474 0.49 0.10804 0.0
H307 H 0.4877 0.46194 0.09145 0.0
H308 H 0.50657 0.44559 0.05614 0.0
H309 H 0.51441 0.46341 0.02786 0.0
H310 H 0.60442 0.45229 0.02726 0.0
H311 H 0.59663 0.43426 0.05558 0.0
H312 H 0.6078 0.39361 0.08561 0.0
H313 H 0.64992 0.38269 0.09996 0.0
H314 H 0.61016 0.38899 0.14604 0.0
H315 H 0.56767 0.399 0.13181 0.0
N316 N 0.54765 0.42343 0.10852 0.0
N317 N 0.53156 0.44259 0.08506 0.0
N318 N 0.56489 0.41609 0.08298 0.0
C319 C 0.5312 0.43884 0.10147 0.0
C320 C 0.54829 0.43129 0.07573 0.0
C321 C 0.56428 0.41167 0.09938 0.0
C322 C 0.51573 0.45414 0.11167 0.0
C323 C 0.5236 0.45918 0.1286 0.0
C324 C 0.51062 0.47552 0.13807 0.0
C325 C 0.48921 0.48672 0.13082 0.0
C326 C 0.48102 0.48136 0.11395 0.0
C327 C 0.49425 0.46537 0.10445 0.0
C328 C 0.55105 0.43861 0.05813 0.0
C329 C 0.52785 0.4466 0.04995 0.0
C330 C 0.53223 0.45668 0.03374 0.0
C331 C 0.56012 0.4594 0.02545 0.0
C332 C 0.58288 0.45068 0.03346 0.0
C333 C 0.57824 0.44012 0.04962 0.0
C334 C 0.58494 0.39814 0.10757 0.0
C335 C 0.60744 0.39181 0.09877 0.0
H336 H 0.29923 0.57696 0.20243 0.0
H337 H 0.35584 0.58124 0.20308 0.0
H338 H 0.3578 0.59177 0.15078 0.0
H339 H 0.30191 0.58826 0.15017 0.0
H340 H 0.36174 0.53269 0.18948 0.0
H341 H 0.45774 0.65299 0.16266 0.0
H342 H 0.41834 0.64795 0.17027 0.0
H343 H 0.41925 0.63443 0.14964 0.0
C344 C 0.31234 0.58123 0.19117 0.0
C345 C 0.29613 0.58192 0.17622 0.0
C346 C 0.34472 0.58389 0.19156 0.0
C347 C 0.3613 0.58715 0.17701 0.0
C348 C 0.34613 0.5903 0.16224 0.0
H349 H 0.42277 0.47219 0.1303 0.0
H350 H 0.39889 0.50079 0.14597 0.0
C351 C 0.31396 0.58799 0.16187 0.0
C352 C 0.39002 0.57994 0.17656 0.0
H353 H 0.46156 0.60107 0.15555 0.0
C354 C 0.38427 0.54833 0.18257 0.0
C355 C 0.41982 0.60044 0.16783 0.0
C356 C 0.42926 0.63602 0.16242 0.0
C357 C 0.40515 0.53491 0.17841 0.0
C358 C 0.43202 0.55334 0.16782 0.0
C359 C 0.44038 0.58668 0.1634 0.0
C360 C 0.44721 0.53599 0.159 0.0
C361 C 0.39676 0.49997 0.18441 0.0
C362 C 0.48238 0.54675 0.16103 0.0
C363 C 0.49611 0.53036 0.15206 0.0
C364 C 0.47488 0.5035 0.14079 0.0
C365 C 0.43972 0.49297 0.13881 0.0
C366 C 0.42604 0.50908 0.14784 0.0
H367 H 0.38365 0.49441 0.19611 0.0
H368 H 0.37906 0.47993 0.17525 0.0
H369 H 0.42044 0.49809 0.18615 0.0
H370 H 0.49908 0.56772 0.16949 0.0
H371 H 0.52339 0.53911 0.15367 0.0
H372 H 0.81195 0.28924 0.54279 0.0
H373 H 0.83877 0.35209 0.54359 0.0
H374 H 0.7513 0.34347 0.51521 0.0
H375 H 0.72407 0.28103 0.51495 0.0
H376 H 0.85807 0.38478 0.51694 0.0
H377 H 0.77202 0.4239 0.54361 0.0
H378 H 0.76649 0.38158 0.5464 0.0
H379 H 0.74861 0.39076 0.52827 0.0
C380 C 0.79811 0.30088 0.53719 0.0
C381 C 0.76607 0.28044 0.52878 0.0
C382 C 0.81329 0.33669 0.53771 0.0
C383 C 0.79691 0.3526 0.52962 0.0
C384 C 0.76403 0.33198 0.52199 0.0
H385 H 0.86321 0.5196 0.46846 0.0
H386 H 0.82788 0.47346 0.4867 0.0
C387 C 0.7486 0.29621 0.52171 0.0
C388 C 0.81668 0.38985 0.52628 0.0
H389 H 0.81043 0.46243 0.52331 0.0
C390 C 0.84806 0.40197 0.51878 0.0
C391 C 0.80346 0.41225 0.52848 0.0
C392 C 0.77094 0.40146 0.53729 0.0
C393 C 0.86559 0.43506 0.5126 0.0
C394 C 0.8516 0.4569 0.51413 0.0
C395 C 0.82096 0.4455 0.52217 0.0
C396 C 0.86764 0.49039 0.50611 0.0
C397 C 0.89808 0.44576 0.50369 0.0
C398 C 0.90072 0.5163 0.5115 0.0
C399 C 0.92128 0.54214 0.50098 0.0
C400 C 0.90884 0.54264 0.48495 0.0
C401 C 0.87394 0.51938 0.48051 0.0
C402 C 0.85352 0.49324 0.49101 0.0
H403 H 0.90242 0.42388 0.50142 0.0
H404 H 0.89698 0.45697 0.49178 0.0
H405 H 0.92065 0.46576 0.5111 0.0
H406 H 0.91192 0.51447 0.52316 0.0
H407 H 0.94795 0.55938 0.50493 0.0
H408 H 0.52457 0.69659 0.86848 0.0
H409 H 0.47483 0.70468 0.86391 0.0
H410 H 0.51829 0.75944 0.82011 0.0
H411 H 0.56605 0.74925 0.82378 0.0
H412 H 0.46913 0.75882 0.86351 0.0
H413 H 0.42232 0.69952 0.80277 0.0
H414 H 0.45109 0.69105 0.81541 0.0
H415 H 0.46792 0.72679 0.80175 0.0
C416 C 0.52323 0.70986 0.85772 0.0
C417 C 0.54959 0.72235 0.84653 0.0
C418 C 0.49475 0.71447 0.85515 0.0
C419 C 0.49215 0.73165 0.84137 0.0
C420 C 0.51885 0.74483 0.83048 0.0
H421 H 0.48415 0.89596 0.8269 0.0
H422 H 0.47696 0.84503 0.84003 0.0
C423 C 0.54687 0.73985 0.83288 0.0
C424 C 0.46381 0.73933 0.83884 0.0
H425 H 0.424 0.75587 0.8069 0.0
C426 C 0.45815 0.75714 0.85126 0.0
C427 C 0.44724 0.73531 0.82325 0.0
C428 C 0.44714 0.71164 0.81016 0.0
C429 C 0.44156 0.77593 0.84769 0.0
C430 C 0.43239 0.77841 0.83119 0.0
C431 C 0.43247 0.75563 0.81946 0.0
C432 C 0.43116 0.80913 0.82535 0.0
C433 C 0.4361 0.79462 0.86147 0.0
C434 C 0.40825 0.80658 0.81239 0.0
C435 C 0.4132 0.83614 0.80438 0.0
C436 C 0.44073 0.86871 0.80942 0.0
C437 C 0.4622 0.87133 0.82297 0.0
C438 C 0.45777 0.84198 0.83067 0.0
H439 H 0.42616 0.77752 0.87204 0.0
H440 H 0.46118 0.81721 0.86567 0.0
H441 H 0.41764 0.80332 0.85782 0.0
H442 H 0.38765 0.78162 0.80791 0.0
H443 H 0.39633 0.83348 0.79393 0.0
H444 H 0.88562 0.58705 0.18321 0.0
H445 H 0.82934 0.53465 0.18195 0.0
H446 H 0.8779 0.47422 0.19211 0.0
H447 H 0.93435 0.52636 0.1927 0.0
H448 H 0.84218 0.45507 0.1641 0.0
H449 H 0.7586 0.46148 0.20922 0.0
H450 H 0.77997 0.50167 0.1991 0.0
H451 H 0.80508 0.48783 0.21125 0.0
C452 C 0.88424 0.56272 0.18564 0.0
C453 C 0.91444 0.56087 0.18786 0.0
C454 C 0.85198 0.53275 0.18516 0.0
C455 C 0.84934 0.50046 0.18707 0.0
C456 C 0.87931 0.49887 0.19073 0.0
H457 H 0.63731 0.35463 0.15256 0.0
H458 H 0.6895 0.3705 0.16985 0.0
C459 C 0.9116 0.52881 0.19115 0.0
C460 C 0.81676 0.46898 0.18177 0.0
H461 H 0.72974 0.43423 0.18247 0.0
C462 C 0.81756 0.44971 0.16848 0.0
C463 C 0.78463 0.46132 0.18765 0.0
C464 C 0.7821 0.479 0.20272 0.0
C465 C 0.7872 0.426 0.15971 0.0
C466 C 0.75534 0.42175 0.16429 0.0
C467 C 0.75422 0.43788 0.17876 0.0
C468 C 0.72453 0.40645 0.15285 0.0
C469 C 0.78979 0.40739 0.14502 0.0
C470 C 0.72698 0.4209 0.13747 0.0
C471 C 0.69748 0.41184 0.12762 0.0
C472 C 0.66468 0.38853 0.13303 0.0
C473 C 0.66225 0.37272 0.14809 0.0
C474 C 0.69199 0.38169 0.15795 0.0
H475 H 0.81315 0.40491 0.14626 0.0
H476 H 0.76656 0.38143 0.14319 0.0
H477 H 0.79227 0.42244 0.13395 0.0
H478 H 0.75155 0.44109 0.13352 0.0
H479 H 0.70031 0.4252 0.11631 0.0
H480 H 0.35778 0.88489 0.50467 0.0
H481 H 0.32115 0.82546 0.512 0.0
H482 H 0.40762 0.82644 0.53769 0.0
H483 H 0.44472 0.88673 0.53061 0.0
H484 H 0.37648 0.77434 0.51529 0.0
H485 H 0.27614 0.77215 0.55185 0.0
H486 H 0.28218 0.7993 0.53489 0.0
H487 H 0.31732 0.8109 0.54982 0.0
C488 C 0.36889 0.87302 0.51237 0.0
C489 C 0.40423 0.89059 0.51699 0.0
C490 C 0.34781 0.83895 0.51662 0.0
C491 C 0.3615 0.82167 0.52566 0.0
C492 C 0.3965 0.83943 0.53086 0.0
H493 H 0.17992 0.62371 0.50978 0.0
H494 H 0.23215 0.65893 0.52719 0.0
C495 C 0.41766 0.87373 0.52666 0.0
C496 C 0.34006 0.78395 0.52715 0.0
H497 H 0.25548 0.72472 0.53083 0.0
C498 C 0.35036 0.76309 0.51927 0.0
C499 C 0.30648 0.76882 0.53292 0.0
C500 C 0.29513 0.78903 0.54302 0.0
C501 C 0.32624 0.7289 0.51468 0.0
C502 C 0.29114 0.71587 0.51774 0.0
C503 C 0.28221 0.73491 0.52801 0.0
C504 C 0.26312 0.68803 0.50734 0.0
C505 C 0.33808 0.70806 0.5054 0.0
C506 C 0.26349 0.6919 0.49035 0.0
C507 C 0.23377 0.67216 0.48045 0.0
C508 C 0.20288 0.64825 0.48732 0.0
C509 C 0.20322 0.64236 0.50416 0.0
C510 C 0.2331 0.66222 0.51411 0.0
H511 H 0.3637 0.71335 0.51047 0.0
H512 H 0.31948 0.68001 0.50585 0.0
H513 H 0.3411 0.71578 0.49247 0.0
H514 H 0.28588 0.71231 0.48483 0.0
H515 H 0.2344 0.67781 0.4676 0.0
H516 H 0.62277 0.37712 0.81659 0.0
H517 H 0.64308 0.33771 0.82458 0.0
H518 H 0.6162 0.34096 0.8741 0.0
H519 H 0.59549 0.38039 0.86614 0.0
H520 H 0.69286 0.34061 0.85303 0.0
H521 H 0.55429 0.23839 0.85469 0.0
H522 H 0.56653 0.27764 0.84403 0.0
H523 H 0.57023 0.27849 0.8659 0.0
C524 C 0.6214 0.36963 0.8292 0.0
C525 C 0.60707 0.3813 0.8407 0.0
C526 C 0.63342 0.34754 0.83379 0.0
C527 C 0.63114 0.33661 0.84991 0.0
C528 C 0.61829 0.34936 0.86162 0.0
H529 H 0.60728 0.1367 0.84405 0.0
H530 H 0.62089 0.18665 0.86104 0.0
C531 C 0.60643 0.37172 0.85705 0.0
C532 C 0.63771 0.30825 0.85351 0.0
H533 H 0.59441 0.22085 0.85162 0.0
C534 C 0.67153 0.31433 0.85323 0.0
C535 C 0.60988 0.27419 0.85413 0.0
C536 C 0.5731 0.26646 0.85471 0.0
C537 C 0.67794 0.28689 0.8521 0.0
C538 C 0.64969 0.25279 0.85057 0.0
C539 C 0.61623 0.24688 0.85264 0.0
C540 C 0.65268 0.22393 0.84359 0.0
C541 C 0.7148 0.2949 0.85189 0.0
C542 C 0.66824 0.22808 0.82864 0.0
C543 C 0.66146 0.19944 0.81908 0.0
C544 C 0.63794 0.16604 0.82398 0.0
C545 C 0.62543 0.1619 0.83974 0.0
C546 C 0.63305 0.19059 0.84951 0.0
H547 H 0.73145 0.31637 0.86069 0.0
H548 H 0.71736 0.27223 0.85499 0.0
H549 H 0.72453 0.30355 0.83958 0.0
H550 H 0.68303 0.2533 0.82354 0.0
H551 H 0.67259 0.20365 0.80728 0.0
H552 H 0.65752 1.01171 0.50676 0.0
H553 H 0.65797 0.95773 0.50937 0.0
H554 H 0.55199 0.90109 0.49095 0.0
H555 H 0.55153 0.95502 0.48799 0.0
H556 H 0.62106 0.90312 0.52787 0.0
H557 H 0.59258 0.85805 0.46312 0.0
H558 H 0.60425 0.90128 0.46931 0.0
H559 H 0.56087 0.86632 0.47119 0.0
C560 C 0.63433 0.98786 0.50309 0.0
C561 C 0.60454 0.9881 0.49705 0.0
C562 C 0.63461 0.95683 0.50463 0.0
C563 C 0.60521 0.92498 0.50013 0.0
C564 C 0.57538 0.92511 0.49414 0.0
H565 H 0.56015 0.71018 0.50874 0.0
H566 H 0.55674 0.76212 0.50308 0.0
C567 C 0.57509 0.95617 0.49255 0.0
C568 C 0.60554 0.89183 0.50236 0.0
H569 H 0.59193 0.81842 0.48243 0.0
C570 C 0.61482 0.88476 0.51787 0.0
C571 C 0.5972 0.86738 0.48943 0.0
C572 C 0.58847 0.87369 0.47229 0.0
C573 C 0.61574 0.85427 0.52083 0.0
C574 C 0.60776 0.83001 0.50788 0.0
C575 C 0.59807 0.8368 0.4924 0.0
C576 C 0.61019 0.79803 0.51017 0.0
C577 C 0.62465 0.84804 0.53795 0.0
C578 C 0.64158 0.80049 0.51548 0.0
C579 C 0.64365 0.77086 0.51863 0.0
C580 C 0.6144 0.73762 0.51652 0.0
C581 C 0.58329 0.73513 0.51046 0.0
C582 C 0.58125 0.76493 0.50731 0.0
H583 H 0.62043 0.86355 0.54715 0.0
H584 H 0.60906 0.82042 0.54092 0.0
H585 H 0.65231 0.85559 0.53902 0.0
H586 H 0.6646 0.8255 0.51736 0.0
H587 H 0.66831 0.77408 0.52287 0.0
H588 H 0.68094 0.52757 0.82054 0.0
H589 H 0.73561 0.52796 0.82426 0.0
H590 H 0.78478 0.63175 0.84404 0.0
H591 H 0.73021 0.63141 0.8406 0.0
H592 H 0.7995 0.56771 0.81213 0.0
H593 H 0.81117 0.58561 0.87936 0.0
H594 H 0.77192 0.57467 0.86758 0.0
H595 H 0.80696 0.61853 0.869 0.0
C596 C 0.70334 0.55056 0.82568 0.0
C597 C 0.70077 0.57941 0.83033 0.0
C598 C 0.73475 0.55074 0.8278 0.0
C599 C 0.76455 0.57964 0.83474 0.0
C600 C 0.76221 0.60873 0.83905 0.0
H601 H 0.97776 0.63745 0.86052 0.0
H602 H 0.92259 0.63444 0.85439 0.0
C603 C 0.73084 0.60858 0.83695 0.0
C604 C 0.79794 0.57946 0.83742 0.0
H605 H 0.86054 0.59207 0.86666 0.0
C606 C 0.81269 0.57283 0.82409 0.0
C607 C 0.81545 0.58597 0.853 0.0
C608 C 0.80044 0.59126 0.86809 0.0
C609 C 0.84462 0.57362 0.8258 0.0
C610 C 0.86236 0.58066 0.84135 0.0
C611 C 0.84735 0.58685 0.85469 0.0
C612 C 0.89677 0.58258 0.84411 0.0
C613 C 0.85957 0.56799 0.8108 0.0
C614 C 0.90136 0.55457 0.84032 0.0
C615 C 0.93323 0.5562 0.84387 0.0
C616 C 0.96136 0.58578 0.85148 0.0
C617 C 0.95678 0.61398 0.85491 0.0
C618 C 0.92507 0.61234 0.85135 0.0
H619 H 0.84794 0.57216 0.79942 0.0
H620 H 0.88795 0.58545 0.81104 0.0
H621 H 0.85422 0.54105 0.81039 0.0
H622 H 0.87998 0.53095 0.83505 0.0
H623 H 0.93538 0.53377 0.84122 0.0
H624 H 0.1792 0.71812 0.15533 0.0
H625 H 0.23526 0.77127 0.15819 0.0
H626 H 0.28117 0.71441 0.17852 0.0
H627 H 0.2253 0.66109 0.17556 0.0
H628 H 0.2769 0.80381 0.18583 0.0
H629 H 0.34807 0.76853 0.14377 0.0
H630 H 0.30165 0.74448 0.1443 0.0
H631 H 0.32789 0.73796 0.15945 0.0
C632 C 0.20121 0.71674 0.1603 0.0
C633 C 0.19742 0.68498 0.16515 0.0
C634 C 0.23339 0.74734 0.16198 0.0
C635 C 0.2629 0.74713 0.16838 0.0
C636 C 0.2592 0.71545 0.17323 0.0
H637 H 0.47811 0.90066 0.19271 0.0
H638 H 0.42222 0.84878 0.1871 0.0
C639 C 0.227 0.68485 0.17162 0.0
C640 C 0.29711 0.78009 0.17043 0.0
H641 H 0.38154 0.8194 0.16017 0.0
C642 C 0.2997 0.80726 0.18011 0.0
C643 C 0.32714 0.78489 0.16305 0.0
C644 C 0.32613 0.75758 0.15193 0.0
C645 C 0.33132 0.83838 0.18296 0.0
C646 C 0.36142 0.84319 0.17562 0.0
C647 C 0.35874 0.81607 0.16583 0.0
C648 C 0.39608 0.87551 0.17839 0.0
C649 C 0.33232 0.86531 0.19435 0.0
C650 C 0.40088 0.90833 0.175 0.0
C651 C 0.43304 0.93839 0.17838 0.0
C652 C 0.46149 0.93655 0.18516 0.0
C653 C 0.45688 0.90351 0.18787 0.0
C654 C 0.42478 0.87357 0.18453 0.0
H655 H 0.31019 0.85415 0.2024 0.0
H656 H 0.35661 0.87792 0.20213 0.0
H657 H 0.33086 0.88533 0.18705 0.0
H658 H 0.37965 0.91082 0.16984 0.0
H659 H 0.43526 0.96313 0.17612 0.0
H660 H 0.65782 0.20935 0.50076 0.0
H661 H 0.65927 0.26415 0.50432 0.0
H662 H 0.54811 0.21044 0.50235 0.0
H663 H 0.5465 0.15547 0.49935 0.0
H664 H 0.6374 0.29833 0.48597 0.0
H665 H 0.56658 0.26771 0.54267 0.0
H666 H 0.58156 0.24063 0.53444 0.0
H667 H 0.54206 0.23744 0.52634 0.0
C668 C 0.6336 0.20906 0.50114 0.0
C669 C 0.60201 0.17763 0.49986 0.0
C670 C 0.63448 0.24062 0.50318 0.0
C671 C 0.60384 0.24184 0.50397 0.0
C672 C 0.57225 0.21053 0.50232 0.0
H673 H 0.55911 0.41098 0.51364 0.0
H674 H 0.55585 0.35562 0.50813 0.0
C675 C 0.57135 0.17892 0.50045 0.0
C676 C 0.605 0.2758 0.50619 0.0
H677 H 0.57616 0.31871 0.52955 0.0
C678 C 0.62409 0.3027 0.49557 0.0
C679 C 0.58777 0.28204 0.5187 0.0
C680 C 0.56864 0.25557 0.53129 0.0
C681 C 0.62595 0.33497 0.49693 0.0
C682 C 0.60852 0.34105 0.50935 0.0
C683 C 0.58934 0.3142 0.51993 0.0
C684 C 0.61068 0.37531 0.5119 0.0
C685 C 0.64617 0.36217 0.48482 0.0
C686 C 0.64252 0.40517 0.51584 0.0
C687 C 0.64445 0.43688 0.519 0.0
C688 C 0.61457 0.43983 0.51833 0.0
C689 C 0.58274 0.41 0.51409 0.0
C690 C 0.58081 0.37816 0.51105 0.0
H691 H 0.65003 0.35084 0.47362 0.0
H692 H 0.63298 0.37667 0.48128 0.0
H693 H 0.67197 0.38067 0.49049 0.0
H694 H 0.66597 0.40386 0.51684 0.0
H695 H 0.66948 0.45914 0.52211 0.0
H696 H 0.53211 0.631 0.8291 0.0
H697 H 0.47988 0.63333 0.83357 0.0
H698 H 0.42142 0.52246 0.83452 0.0
H699 H 0.47415 0.52023 0.83121 0.0
H700 H 0.42265 0.61405 0.81774 0.0
H701 H 0.38732 0.54052 0.8744 0.0
H702 H 0.42799 0.55421 0.86545 0.0
H703 H 0.38963 0.5155 0.85801 0.0
C704 C 0.50828 0.60707 0.83052 0.0
C705 C 0.50783 0.57546 0.83013 0.0
C706 C 0.47814 0.60842 0.83297 0.0
C707 C 0.44629 0.57814 0.83488 0.0
C708 C 0.44555 0.54643 0.83379 0.0
H709 H 0.23367 0.53401 0.84626 0.0
H710 H 0.28546 0.53151 0.84018 0.0
C711 C 0.47586 0.54513 0.83168 0.0
C712 C 0.41403 0.57983 0.83763 0.0
H713 H 0.34429 0.55004 0.86155 0.0
C714 C 0.40573 0.60012 0.82741 0.0
C715 C 0.39158 0.56205 0.8503 0.0
C716 C 0.39977 0.54218 0.86276 0.0
C717 C 0.37577 0.60245 0.82924 0.0
C718 C 0.35303 0.58402 0.84165 0.0
C719 C 0.36128 0.56385 0.85189 0.0
C720 C 0.32108 0.58594 0.8445 0.0
C721 C 0.36845 0.62429 0.81765 0.0
C722 C 0.3234 0.6173 0.84895 0.0
C723 C 0.29376 0.61878 0.85247 0.0
C724 C 0.26074 0.58894 0.85163 0.0
C725 C 0.2584 0.55763 0.84686 0.0
C726 C 0.28815 0.55613 0.84349 0.0
H727 H 0.38293 0.62935 0.80639 0.0
H728 H 0.34048 0.61177 0.81416 0.0
H729 H 0.37649 0.64945 0.82376 0.0
H730 H 0.34832 0.64067 0.85009 0.0
H731 H 0.29681 0.64344 0.85599 0.0
H732 H 0.97229 0.52066 0.16773 0.0
H733 H 0.91849 0.46613 0.17107 0.0
H734 H 0.97189 0.41026 0.16413 0.0
H735 H 1.02566 0.46448 0.16065 0.0
H736 H 0.88221 0.4041 0.14889 0.0
H737 H 0.92545 0.37689 0.20869 0.0
H738 H 0.94597 0.41941 0.20033 0.0
H739 H 0.95458 0.3873 0.19251 0.0
C740 C 0.97267 0.49681 0.16681 0.0
C741 C 1.00367 0.49729 0.16391 0.0
C742 C 0.94174 0.46553 0.16873 0.0
C743 C 0.94096 0.43386 0.16805 0.0
C744 C 0.9717 0.43422 0.16492 0.0
H745 H 0.78064 0.2179 0.18196 0.0
H746 H 0.83401 0.27092 0.17586 0.0
C747 C 1.00253 0.4654 0.16284 0.0
C748 C 0.9083 0.40053 0.1708 0.0
H749 H 0.8718 0.33345 0.19702 0.0
C750 C 0.87994 0.3888 0.15946 0.0
C751 C 0.90515 0.38009 0.18449 0.0
C752 C 0.93423 0.39152 0.19731 0.0
C753 C 0.84903 0.35723 0.16134 0.0
C754 C 0.84573 0.33712 0.17515 0.0
C755 C 0.87411 0.34875 0.18644 0.0
C756 C 0.81275 0.30442 0.17825 0.0
C757 C 0.82043 0.34472 0.14821 0.0
C758 C 0.78275 0.30524 0.18165 0.0
C759 C 0.75221 0.27497 0.18518 0.0
C760 C 0.75061 0.2428 0.18539 0.0
C761 C 0.78058 0.24196 0.18173 0.0
C762 C 0.81129 0.27238 0.17835 0.0
H763 H 0.82867 0.36054 0.13715 0.0
H764 H 0.81143 0.31752 0.14468 0.0
H765 H 0.79814 0.34559 0.15296 0.0
H766 H 0.78309 0.32951 0.18185 0.0
H767 H 0.72977 0.27681 0.18783 0.0
H768 H 0.13126 0.55847 0.11239 0.0
H769 H 0.13434 0.55644 0.08274 0.0
H770 H 0.0943 0.62557 0.07763 0.0
H771 H 0.08986 0.62659 0.10715 0.0
H772 H 1.06291 0.57542 0.05609 0.0
H773 H 0.20303 0.62484 0.05356 0.0
H774 H 0.18213 0.58704 0.0655 0.0
H775 H 0.18359 0.62601 0.07213 0.0
C776 C 0.12337 0.57346 0.10496 0.0
C777 C 0.11038 0.59275 0.11217 0.0
C778 C 0.12536 0.57246 0.08798 0.0
C779 C 0.11518 0.59137 0.07787 0.0
C780 C 0.10241 0.6108 0.0851 0.0
H781 H 0.16091 0.6346 0.97557 0.0
H782 H 0.16028 0.63633 0.0054 0.0
C783 C 0.09991 0.61139 0.10202 0.0
C784 C 0.11638 0.58992 0.05974 0.0
H785 H 0.16916 0.60088 0.02875 0.0
C786 C 0.08623 0.58116 0.05014 0.0
C787 C 0.14687 0.59785 0.05187 0.0
C788 C 0.18082 0.60981 0.06129 0.0
C789 C 0.08562 0.57992 0.03299 0.0
C790 C 0.11571 0.58641 0.02514 0.0
C791 C 0.14595 0.59546 0.03472 0.0
C792 C 0.11657 0.58479 0.007 0.0
C793 C 1.05292 0.57263 0.02352 0.0
C794 C 0.09271 0.55504 0.99791 0.0
C795 C 0.09276 0.5542 0.98085 0.0
C796 C 0.11719 0.58281 0.97252 0.0
C797 C 0.14186 0.61211 0.98165 0.0
C798 C 0.14147 0.61313 0.9987 0.0
H799 H 1.03658 0.57892 0.03093 0.0
H800 H 1.05865 0.58758 0.01219 0.0
H801 H 1.03767 0.54481 0.02012 0.0
H802 H 1.07395 0.53242 0.004 0.0
H803 H 1.07381 0.53105 0.97416 0.0
H804 H 0.6592 0.08656 0.4462 0.0
H805 H 0.66351 0.08827 0.4165 0.0
H806 H 0.57155 0.09575 0.41095 0.0
H807 H 0.56669 0.09347 0.44046 0.0
H808 H 0.56974 1.0477 0.39004 0.0
H809 H 0.69414 0.17022 0.38695 0.0
H810 H 0.6961 0.13891 0.39983 0.0
H811 H 0.67022 0.15725 0.40522 0.0
C812 C 0.64 0.08877 0.43867 0.0
C813 C 0.61262 0.08991 0.44577 0.0
C814 C 0.64262 0.08994 0.42168 0.0
C815 C 0.61811 0.0926 0.41147 0.0
C816 C 0.59083 0.09379 0.41855 0.0
H817 H 0.62625 0.14418 0.30915 0.0
H818 H 0.62683 0.14362 0.339 0.0
C819 C 0.58813 0.09251 0.43547 0.0
C820 C 0.61997 0.093 0.39339 0.0
H821 H 0.67032 0.13775 0.36216 0.0
C822 C 0.59175 0.06739 0.38395 0.0
C823 C 0.64851 0.11894 0.38543 0.0
C824 C 0.67885 0.1481 0.39483 0.0
C825 C 0.59131 0.06688 0.36681 0.0
C826 C 0.62019 0.09232 0.35885 0.0
C827 C 0.64834 0.11808 0.36827 0.0
C828 C 0.62124 0.09305 0.34073 0.0
C829 C 0.55949 1.03958 0.35739 0.0
C830 C 0.61861 0.06511 0.33176 0.0
C831 C 0.61827 0.06535 0.3147 0.0
C832 C 0.62088 0.09369 0.30621 0.0
C833 C 0.62446 0.12205 0.31527 0.0
C834 C 0.62467 0.12173 0.33234 0.0
H835 H 0.53663 1.02798 0.36499 0.0
H836 H 0.55346 1.05034 0.34639 0.0
H837 H 0.56406 1.0187 0.35334 0.0
H838 H 0.61678 1.04305 0.33797 0.0
H839 H 0.61617 1.04338 0.30814 0.0
H840 H 0.66157 0.63403 0.77846 0.0
H841 H 0.6664 0.63821 0.74877 0.0
H842 H 0.56175 0.55411 0.74171 0.0
H843 H 0.5569 0.54936 0.77116 0.0
H844 H 0.60583 0.54533 0.72336 0.0
H845 H 0.62511 0.67644 0.7155 0.0
H846 H 0.6553 0.67433 0.7299 0.0
H847 H 0.61036 0.65324 0.73411 0.0
C848 C 0.63949 0.61666 0.77057 0.0
C849 C 0.60887 0.59135 0.77722 0.0
C850 C 0.64224 0.61918 0.7536 0.0
C851 C 0.61431 0.59668 0.74298 0.0
C852 C 0.58364 0.57175 0.74963 0.0
H853 H 0.57827 0.60716 0.63911 0.0
H854 H 0.57883 0.60841 0.66894 0.0
C855 C 0.58093 0.56912 0.76652 0.0
C856 C 0.61711 0.59785 0.72496 0.0
H857 H 0.63032 0.64881 0.69206 0.0
C858 C 0.61125 0.56799 0.71652 0.0
C859 C 0.62379 0.62728 0.71602 0.0
C860 C 0.6287 0.65957 0.72429 0.0
C861 C 0.61179 0.56669 0.69944 0.0
C862 C 0.61913 0.59632 0.69051 0.0
C863 C 0.62499 0.6262 0.69893 0.0
C864 C 0.61967 0.59641 0.67238 0.0
C865 C 0.60347 0.53323 0.69108 0.0
C866 C 0.64275 0.5897 0.66436 0.0
C867 C 0.64245 0.58891 0.64729 0.0
C868 C 0.6193 0.59518 0.63787 0.0
C869 C 0.59664 0.60252 0.64597 0.0
C870 C 0.59687 0.60316 0.66303 0.0
H871 H 0.5898 0.51097 0.69912 0.0
H872 H 0.58722 0.52847 0.67968 0.0
H873 H 0.62782 0.53454 0.68783 0.0
H874 H 0.66112 0.58519 0.67131 0.0
H875 H 0.66066 0.5838 0.64147 0.0
H876 H 0.6401 0.11844 0.55243 0.0
H877 H 0.63384 0.1122 0.58196 0.0
H878 H 0.53493 1.01991 0.57349 0.0
H879 H 0.54125 1.02543 0.54412 0.0
H880 H 0.58438 0.1111 0.60067 0.0
H881 H 0.58319 0.98753 0.60541 0.0
H882 H 0.5962 1.01313 0.5874 0.0
H883 H 0.55116 0.98532 0.59079 0.0
C884 C 0.6171 0.09673 0.55688 0.0
C885 C 0.5913 0.07228 0.54594 0.0
C886 C 0.61357 0.09322 0.57373 0.0
C887 C 0.58424 0.06521 0.57991 0.0
C888 C 0.5582 1.04118 0.56901 0.0
H889 H 0.50111 1.00346 0.67506 0.0
H890 H 0.51066 1.0106 0.64582 0.0
C891 C 0.56178 1.04453 0.5522 0.0
C892 C 0.5803 0.06152 0.59775 0.0
H893 H 0.56566 1.00572 0.62866 0.0
C894 C 0.5806 0.0882 0.60682 0.0
C895 C 0.5754 1.03161 0.60575 0.0
C896 C 0.5768 1.00292 0.59687 0.0
C897 C 0.57525 0.08539 0.6236 0.0
C898 C 0.56967 0.05522 0.63148 0.0
C899 C 0.56969 1.02868 0.62249 0.0
C900 C 0.56407 1.05086 0.64913 0.0
C901 C 0.57489 0.11434 0.63277 0.0
C902 C 0.59112 0.07081 0.66059 0.0
C903 C 0.58592 0.06654 0.67727 0.0
C904 C 0.55347 1.04227 0.68281 0.0
C905 C 0.52649 1.02211 0.67124 0.0
C906 C 0.53181 1.02629 0.65454 0.0
H907 H 0.57335 0.13298 0.62439 0.0
H908 H 0.55275 0.10404 0.64079 0.0
H909 H 0.59892 0.1284 0.64065 0.0
H910 H 0.61636 0.08951 0.65661 0.0
H911 H 0.60748 0.08199 0.68582 0.0
H912 H 0.58895 0.50493 0.87327 0.0
H913 H 0.58363 0.49184 0.9021 0.0
H914 H 0.60376 0.59423 0.91369 0.0
H915 H 0.60802 0.60727 0.88457 0.0
H916 H 0.63011 0.52038 0.92695 0.0
H917 H 0.51741 0.53604 0.93774 0.0
H918 H 0.53105 0.53472 0.91753 0.0
H919 H 0.55363 0.57346 0.93002 0.0
C920 C 0.59216 0.52473 0.88191 0.0
C921 C 0.59883 0.55715 0.87664 0.0
C922 C 0.58912 0.51717 0.89841 0.0
C923 C 0.59289 0.54189 0.91004 0.0
C924 C 0.59998 0.5745 0.90488 0.0
H925 H 0.62012 0.50978 0.01371 0.0
H926 H 0.62959 0.53244 0.98614 0.0
C927 C 0.60262 0.58199 0.88827 0.0
C928 C 0.58994 0.5332 0.92753 0.0
H929 H 0.54302 0.52404 0.96068 0.0
C930 C 0.61113 0.52127 0.93435 0.0
C931 C 0.56491 0.53404 0.93709 0.0
C932 C 0.54021 0.54494 0.93022 0.0
C933 C 0.60757 0.50951 0.95036 0.0
C934 C 0.58288 0.5108 0.96 0.0
C935 C 0.56206 0.52327 0.95328 0.0
C936 C 0.57718 0.49793 0.97685 0.0
C937 C 0.62938 0.49458 0.9565 0.0
C938 C 0.54433 0.47179 0.98092 0.0
C939 C 0.53877 0.45919 0.9967 0.0
C940 C 0.56604 0.47238 0.00866 0.0
C941 C 0.59884 0.49873 0.00461 0.0
C942 C 0.60428 0.51163 0.98888 0.0
H943 H 0.63966 0.48674 0.9463 0.0
H944 H 0.6517 0.51434 0.96413 0.0
H945 H 0.61438 0.47183 0.96407 0.0
H946 H 0.52304 0.46089 0.97182 0.0
H947 H 0.51326 0.43885 0.99952 0.0
H948 H 0.11785 0.64305 0.21778 0.0
H949 H 0.10973 0.63948 0.24714 0.0
H950 H 1.04652 0.52889 0.24199 0.0
H951 H 1.05627 0.53228 0.21279 0.0
H952 H 1.05576 0.61901 0.26366 0.0
H953 H 0.10998 0.53509 0.27866 0.0
H954 H 0.11368 0.55378 0.25892 0.0
H955 H 1.07461 0.51522 0.26375 0.0
C956 C 0.10247 0.61798 0.22297 0.0
C957 C 0.08802 0.58791 0.21311 0.0
C958 C 0.09779 0.61594 0.23973 0.0
C959 C 0.07809 0.58385 0.24688 0.0
C960 C 1.06281 0.55384 0.2369 0.0
H961 H 1.00367 0.57421 0.34461 0.0
H962 H 1.00721 0.57039 0.3152 0.0
C963 C 1.06819 0.55581 0.2202 0.0
C964 C 1.07297 0.58209 0.26468 0.0
H965 H 0.08015 0.54429 0.29953 0.0
C966 C 1.06128 0.6028 0.27152 0.0
C967 C 0.08055 0.56125 0.27498 0.0
C968 C 0.09574 0.54038 0.26873 0.0
C969 C 1.0572 0.60349 0.28834 0.0
C970 C 1.06346 0.58162 0.29855 0.0
C971 C 1.07495 0.56075 0.29169 0.0
C972 C 1.06005 0.58129 0.31648 0.0
C973 C 1.04749 0.62865 0.295 0.0
C974 C 0.08781 0.58662 0.32708 0.0
C975 C 0.0854 0.58742 0.34395 0.0
C976 C 1.05534 0.58348 0.35066 0.0
C977 C 1.02721 0.57722 0.33999 0.0
C978 C 1.0294 0.57566 0.32309 0.0
H979 H 1.05406 0.65023 0.28661 0.0
H980 H 1.01923 0.61518 0.29637 0.0
H981 H 1.06076 0.63961 0.3071 0.0
H982 H 0.11162 0.59063 0.32229 0.0
H983 H 0.10725 0.59122 0.3517 0.0
loop_
_geom_bond_atom_site_label_1
_geom_bond_atom_site_label_2
_geom_bond_distance
_geom_bond_site_symmetry_2
_ccdc_geom_bond_type
Tb0 C10 2.825 . S
Tb0 O11 2.347 . S
Tb0 O14 2.366 . S
Tb0 O19 2.418 . S
Tb0 O20 2.384 1_455 S
Tb0 O23 2.479 . S
Tb0 O24 2.471 . S
Eu1 O12 2.422 . S
Eu1 O13 2.400 . S
Eu1 O16 2.460 1_455 S
Eu1 O17 2.455 1_455 S
Eu1 O18 2.357 . S
Eu1 O21 2.363 1_455 S
Eu1 C31 2.805 1_455 S
C2 O18 1.259 . S
C2 O19 1.265 . S
C3 O20 1.255 . S
C3 O21 1.265 . S
C4 C6 1.380 . S
C4 C7 1.374 . S
C4 C10 1.507 . S
C5 C6 1.384 . S
C5 C9 1.387 . S
C5 H32 0.930 . S
C6 C4 1.380 . S
C6 C5 1.384 . S
C6 H33 0.931 . S
C7 C4 1.374 . S
C7 C8 1.390 . S
C7 H34 0.930 . S
C8 C7 1.390 . S
C8 C9 1.391 . S
C8 H35 0.930 . S
C9 C5 1.387 . S
C9 C8 1.391 . S
C10 Tb0 2.825 . S
C10 C4 1.507 . S
C10 O23 1.238 . S
C10 O24 1.247 . S
O11 Tb0 2.347 . S
O11 C15 1.259 . S
O12 Eu1 2.422 . S
O12 C15 1.265 . S
O13 Eu1 2.400 . S
O13 C22 1.255 . S
O14 Tb0 2.366 . S
O14 C22 1.265 . S
C15 O11 1.259 . S
C15 O12 1.265 . S
O16 Eu1 2.460 1_655 S
O16 C31 1.238 . S
O17 Eu1 2.455 1_655 S
O17 C31 1.247 . S
O18 Eu1 2.357 . S
O18 C2 1.259 . S
O19 Tb0 2.418 . S
O19 C2 1.265 . S
O20 Tb0 2.384 1_655 S
O20 C3 1.255 . S
O21 Eu1 2.363 1_655 S
O21 C3 1.265 . S
C22 O13 1.255 . S
C22 O14 1.265 . S
O23 Tb0 2.479 . S
O23 C10 1.238 . S
O24 Tb0 2.471 . S
O24 C10 1.247 . S
C25 C28 1.380 . S
C25 C29 1.374 . S
C25 C31 1.507 . S
C26 C27 1.387 . S
C26 C30 1.391 . S
C27 C26 1.387 . S
C27 C28 1.384 . S
C27 H36 0.930 . S
C28 C25 1.380 . S
C28 C27 1.384 . S
C28 H37 0.931 . S
C29 C25 1.374 . S
C29 C30 1.390 . S
C29 H38 0.930 . S
C30 C26 1.391 . S
C30 C29 1.390 . S
C30 H39 0.930 . S
C31 Eu1 2.805 1_655 S
C31 O16 1.238 . S
C31 O17 1.247 . S
C31 C25 1.507 . S
H32 C5 0.930 . S
H33 C6 0.931 . S
H34 C7 0.930 . S
H35 C8 0.930 . S
H36 C27 0.930 . S
H37 C28 0.931 . S
H38 C29 0.930 . S
H39 C30 0.930 . S
Tb40 C50 2.825 . S
Tb40 O51 2.347 . S
Tb40 O54 2.366 . S
Tb40 O59 2.418 . S
Tb40 O60 2.418 . S
Tb40 O63 2.479 . S
Tb40 O64 2.471 . S
Eu41 O52 2.418 . S
Eu41 O53 2.384 . S
Eu41 O56 2.479 1_545 S
Eu41 O57 2.471 1_545 S
Eu41 O58 2.347 . S
Eu41 O61 2.366 1_545 S
Eu41 C71 2.825 1_545 S
C42 O58 1.259 . S
C42 O59 1.265 . S
C43 O60 1.241 1_565 S
C43 O61 1.265 . S
C44 C46 1.380 . S
C44 C47 1.374 . S
C44 C50 1.507 . S
C45 C46 1.384 . S
C45 C49 1.387 . S
C45 H72 0.930 . S
C46 C44 1.380 . S
C46 C45 1.384 . S
C46 H73 0.931 . S
C47 C44 1.374 . S
C47 C48 1.390 . S
C47 H74 0.930 . S
C48 C47 1.390 . S
C48 C49 1.391 . S
C48 H75 0.930 . S
C49 C45 1.387 . S
C49 C48 1.391 . S
C50 Tb40 2.825 . S
C50 C44 1.507 . S
C50 O63 1.238 . S
C50 O64 1.247 . S
O51 Tb40 2.347 . S
O51 C55 1.259 . S
O52 Eu41 2.418 . S
O52 C55 1.265 . S
O53 Eu41 2.384 . S
O53 C62 1.255 . S
O54 Tb40 2.366 . S
O54 C62 1.265 . S
C55 O51 1.259 . S
C55 O52 1.265 . S
O56 Eu41 2.479 1_565 S
O56 C71 1.238 . S
O57 Eu41 2.471 1_565 S
O57 C71 1.247 . S
O58 Eu41 2.347 . S
O58 C42 1.259 . S
O59 Tb40 2.418 . S
O59 C42 1.265 . S
O60 Tb40 2.418 . S
O60 C43 1.241 1_545 S
O61 Eu41 2.366 1_565 S
O61 C43 1.265 . S
C62 O53 1.255 . S
C62 O54 1.265 . S
O63 Tb40 2.479 . S
O63 C50 1.238 . S
O64 Tb40 2.471 . S
O64 C50 1.247 . S
C65 C68 1.380 . S
C65 C69 1.374 . S
C65 C71 1.507 . S
C66 C67 1.387 . S
C66 C70 1.391 . S
C67 C66 1.387 . S
C67 C68 1.384 . S
C67 H76 0.930 . S
C68 C65 1.380 . S
C68 C67 1.384 . S
C68 H77 0.931 . S
C69 C65 1.374 . S
C69 C70 1.390 . S
C69 H78 0.930 . S
C70 C66 1.391 . S
C70 C69 1.390 . S
C70 H79 0.930 . S
C71 Eu41 2.825 1_565 S
C71 O56 1.238 . S
C71 O57 1.247 . S
C71 C65 1.507 . S
H72 C45 0.930 . S
H73 C46 0.931 . S
H74 C47 0.930 . S
H75 C48 0.930 . S
H76 C67 0.930 . S
H77 C68 0.931 . S
H78 C69 0.930 . S
H79 C70 0.930 . S
Tb80 C90 2.825 . S
Tb80 O91 2.347 . S
Tb80 O94 2.366 . S
Tb80 O99 2.418 . S
Tb80 O100 2.384 . S
Tb80 O103 2.479 . S
Tb80 O104 2.471 . S
Eu81 O92 2.418 . S
Eu81 O93 2.384 . S
Eu81 O96 2.479 . S
Eu81 O97 2.471 . S
Eu81 O98 2.347 . S
Eu81 O101 2.366 . S
Eu81 C111 2.825 . S
C82 O98 1.259 . S
C82 O99 1.265 . S
C83 O100 1.255 . S
C83 O101 1.265 . S
C84 C86 1.380 . S
C84 C87 1.374 . S
C84 C90 1.507 . S
C85 C86 1.384 . S
C85 C89 1.387 . S
C85 H112 0.930 . S
C86 C84 1.380 . S
C86 C85 1.384 . S
C86 H113 0.931 . S
C87 C84 1.374 . S
C87 C88 1.390 . S
C87 H114 0.930 . S
C88 C87 1.390 . S
C88 C89 1.391 . S
C88 H115 0.930 . S
C89 C85 1.387 . S
C89 C88 1.391 . S
C90 Tb80 2.825 . S
C90 C84 1.507 . S
C90 O103 1.238 . S
C90 O104 1.247 . S
O91 Tb80 2.347 . S
O91 C95 1.259 . S
O92 Eu81 2.418 . S
O92 C95 1.265 . S
O93 Eu81 2.384 . S
O93 C102 1.255 . S
O94 Tb80 2.366 . S
O94 C102 1.265 . S
C95 O91 1.259 . S
C95 O92 1.265 . S
O96 Eu81 2.479 . S
O96 C111 1.238 . S
O97 Eu81 2.471 . S
O97 C111 1.247 . S
O98 Eu81 2.347 . S
O98 C82 1.259 . S
O99 Tb80 2.418 . S
O99 C82 1.265 . S
O100 Tb80 2.384 . S
O100 C83 1.255 . S
O101 Eu81 2.366 . S
O101 C83 1.265 . S
C102 O93 1.255 . S
C102 O94 1.265 . S
O103 Tb80 2.479 . S
O103 C90 1.238 . S
O104 Tb80 2.471 . S
O104 C90 1.247 . S
C105 C108 1.380 . S
C105 C109 1.374 . S
C105 C111 1.507 . S
C106 C107 1.387 . S
C106 C110 1.391 . S
C107 C106 1.387 . S
C107 C108 1.384 . S
C107 H116 0.930 . S
C108 C105 1.380 . S
C108 C107 1.384 . S
C108 H117 0.931 . S
C109 C105 1.374 . S
C109 C110 1.390 . S
C109 H118 0.930 . S
C110 C106 1.391 . S
C110 C109 1.390 . S
C110 H119 0.930 . S
C111 Eu81 2.825 . S
C111 O96 1.238 . S
C111 O97 1.247 . S
C111 C105 1.507 . S
H112 C85 0.930 . S
H113 C86 0.931 . S
H114 C87 0.930 . S
H115 C88 0.930 . S
H116 C107 0.930 . S
H117 C108 0.931 . S
H118 C109 0.930 . S
H119 C110 0.930 . S
C120 C121 1.384 . S
C120 H133 0.947 . S
C120 C155 1.382 . S
C121 C120 1.384 . S
C121 C122 1.378 . S
C122 C121 1.378 . S
C122 C123 1.378 . S
C122 H134 0.952 . S
C123 C122 1.378 . S
C123 H135 0.950 . S
C123 C154 1.383 . S
H124 C143 0.947 . S
H125 C144 0.946 . S
H126 C146 0.953 . S
H127 C147 0.945 . S
H128 C149 0.952 . S
H129 C150 0.949 . S
H130 C152 0.950 . S
H131 C153 0.948 . S
H132 C155 0.951 . S
H133 C120 0.947 . S
H134 C122 0.952 . S
H135 C123 0.950 . S
N136 C139 1.382 . S
N136 C141 1.363 1_545 S
N137 C139 1.371 . S
N137 C140 1.372 . S
N138 C140 1.361 1_565 S
N138 C141 1.377 . S
C139 N136 1.382 . S
C139 N137 1.371 . S
C139 C142 1.480 . S
C140 N137 1.372 . S
C140 N138 1.361 1_545 S
C140 C148 1.457 . S
C141 N136 1.363 1_565 S
C141 N138 1.377 . S
C141 C154 1.479 . S
C142 C139 1.480 . S
C142 C143 1.383 . S
C142 C147 1.385 . S
C143 H124 0.947 . S
C143 C142 1.383 . S
C143 C144 1.388 . S
C144 H125 0.946 . S
C144 C143 1.388 . S
C144 C145 1.384 . S
C145 C144 1.384 . S
C145 C146 1.377 . S
C146 H126 0.953 . S
C146 C145 1.377 . S
C146 C147 1.369 . S
C147 H127 0.945 . S
C147 C142 1.385 . S
C147 C146 1.369 . S
C148 C140 1.457 . S
C148 C149 1.372 . S
C148 C153 1.364 1_545 S
C149 H128 0.952 . S
C149 C148 1.372 . S
C149 C150 1.389 . S
C150 H129 0.949 . S
C150 C149 1.389 . S
C150 C151 1.387 . S
C151 C150 1.387 . S
C151 C152 1.372 1_545 S
C152 H130 0.950 . S
C152 C151 1.372 1_565 S
C152 C153 1.379 . S
C153 H131 0.948 . S
C153 C148 1.364 1_565 S
C153 C152 1.379 . S
C154 C123 1.383 . S
C154 C141 1.479 . S
C154 C155 1.398 . S
C155 C120 1.382 . S
C155 H132 0.951 . S
C155 C154 1.398 . S
C156 C157 1.384 . S
C156 H169 0.947 . S
C156 C191 1.382 . S
C157 C156 1.384 . S
C157 C158 1.378 . S
C158 C157 1.378 . S
C158 C159 1.378 . S
C158 H170 0.952 . S
C159 C158 1.378 . S
C159 H171 0.950 . S
C159 C190 1.383 . S
H160 C179 0.947 . S
H161 C180 0.946 . S
H162 C182 0.953 . S
H163 C183 0.945 . S
H164 C185 0.952 . S
H165 C186 0.949 . S
H166 C188 0.950 . S
H167 C189 0.948 . S
H168 C191 0.951 . S
H169 C156 0.947 . S
H170 C158 0.952 . S
H171 C159 0.950 . S
N172 C175 1.382 . S
N172 C177 1.363 . S
N173 C175 1.371 . S
N173 C176 1.372 . S
N174 C176 1.361 . S
N174 C177 1.377 . S
C175 N172 1.382 . S
C175 N173 1.371 . S
C175 C178 1.480 . S
C176 N173 1.372 . S
C176 N174 1.361 . S
C176 C184 1.457 . S
C177 N172 1.363 . S
C177 N174 1.377 . S
C177 C190 1.479 . S
C178 C175 1.480 . S
C178 C179 1.383 . S
C178 C183 1.385 . S
C179 H160 0.947 . S
C179 C178 1.383 . S
C179 C180 1.388 . S
C180 H161 0.946 . S
C180 C179 1.388 . S
C180 C181 1.384 . S
C181 C180 1.384 . S
C181 C182 1.377 . S
C182 H162 0.953 . S
C182 C181 1.377 . S
C182 C183 1.369 . S
C183 H163 0.945 . S
C183 C178 1.385 . S
C183 C182 1.369 . S
C184 C176 1.457 . S
C184 C185 1.372 . S
C184 C189 1.364 . S
C185 H164 0.952 . S
C185 C184 1.372 . S
C185 C186 1.389 . S
C186 H165 0.949 . S
C186 C185 1.389 . S
C186 C187 1.387 . S
C187 C186 1.387 . S
C187 C188 1.372 . S
C188 H166 0.950 . S
C188 C187 1.372 . S
C188 C189 1.379 . S
C189 H167 0.948 . S
C189 C184 1.364 . S
C189 C188 1.379 . S
C190 C159 1.383 . S
C190 C177 1.479 . S
C190 C191 1.398 . S
C191 C156 1.382 . S
C191 H168 0.951 . S
C191 C190 1.398 . S
C192 C193 1.384 . S
C192 H205 0.947 . S
C192 C227 1.382 . S
C193 C192 1.384 . S
C193 C194 1.378 . S
C194 C193 1.378 . S
C194 C195 1.378 . S
C194 H206 0.952 . S
C195 C194 1.378 . S
C195 H207 0.950 . S
C195 C226 1.383 . S
H196 C215 0.947 . S
H197 C216 0.946 . S
H198 C218 0.953 . S
H199 C219 0.945 . S
H200 C221 0.952 . S
H201 C222 0.949 . S
H202 C224 0.950 . S
H203 C225 0.948 . S
H204 C227 0.951 . S
H205 C192 0.947 . S
H206 C194 0.952 . S
H207 C195 0.950 . S
N208 C211 1.382 . S
N208 C213 1.363 1_455 S
N209 C211 1.371 . S
N209 C212 1.372 . S
N210 C212 1.361 1_655 S
N210 C213 1.377 . S
C211 N208 1.382 . S
C211 N209 1.371 . S
C211 C214 1.480 . S
C212 N209 1.372 . S
C212 N210 1.361 1_455 S
C212 C220 1.457 . S
C213 N208 1.363 1_655 S
C213 N210 1.377 . S
C213 C226 1.479 . S
C214 C211 1.480 . S
C214 C215 1.383 . S
C214 C219 1.385 . S
C215 H196 0.947 . S
C215 C214 1.383 . S
C215 C216 1.388 . S
C216 H197 0.946 . S
C216 C215 1.388 . S
C216 C217 1.384 . S
C217 C216 1.384 . S
C217 C218 1.377 . S
C218 H198 0.953 . S
C218 C217 1.377 . S
C218 C219 1.369 . S
C219 H199 0.945 . S
C219 C214 1.385 . S
C219 C218 1.369 . S
C220 C212 1.457 . S
C220 C221 1.372 . S
C220 C225 1.364 1_455 S
C221 H200 0.952 . S
C221 C220 1.372 . S
C221 C222 1.389 . S
C222 H201 0.949 . S
C222 C221 1.389 . S
C222 C223 1.387 . S
C223 C222 1.387 . S
C223 C224 1.372 1_455 S
C224 H202 0.950 . S
C224 C223 1.372 1_655 S
C224 C225 1.379 . S
C225 H203 0.948 . S
C225 C220 1.364 1_655 S
C225 C224 1.379 . S
C226 C195 1.383 . S
C226 C213 1.479 . S
C226 C227 1.398 . S
C227 C192 1.382 . S
C227 H204 0.951 . S
C227 C226 1.398 . S
C228 C229 1.384 . S
C228 H241 0.947 . S
C228 C263 1.382 . S
C229 C228 1.384 . S
C229 C230 1.378 . S
C230 C229 1.378 . S
C230 C231 1.378 . S
C230 H242 0.952 . S
C231 C230 1.378 . S
C231 H243 0.950 . S
C231 C262 1.383 . S
H232 C251 0.947 . S
H233 C252 0.946 . S
H234 C254 0.953 . S
H235 C255 0.945 . S
H236 C257 0.952 . S
H237 C258 0.949 . S
H238 C260 0.950 . S
H239 C261 0.948 . S
H240 C263 0.951 . S
H241 C228 0.947 . S
H242 C230 0.952 . S
H243 C231 0.950 . S
N244 C247 1.382 1_455 S
N244 C249 1.363 . S
N245 C247 1.371 . S
N245 C248 1.372 1_655 S
N246 C248 1.361 . S
N246 C249 1.377 . S
C247 N244 1.382 1_655 S
C247 N245 1.371 . S
C247 C250 1.480 . S
C248 N245 1.372 1_455 S
C248 N246 1.361 . S
C248 C256 1.457 . S
C249 N244 1.363 . S
C249 N246 1.377 . S
C249 C262 1.479 . S
C250 C247 1.480 . S
C250 C251 1.383 . S
C250 C255 1.385 . S
C251 H232 0.947 . S
C251 C250 1.383 . S
C251 C252 1.388 . S
C252 H233 0.946 . S
C252 C251 1.388 . S
C252 C253 1.384 . S
C253 C252 1.384 . S
C253 C254 1.377 . S
C254 H234 0.953 . S
C254 C253 1.377 . S
C254 C255 1.369 . S
C255 H235 0.945 . S
C255 C250 1.385 . S
C255 C254 1.369 . S
C256 C248 1.457 . S
C256 C257 1.372 1_455 S
C256 C261 1.364 . S
C257 H236 0.952 . S
C257 C256 1.372 1_655 S
C257 C258 1.389 . S
C258 H237 0.949 . S
C258 C257 1.389 . S
C258 C259 1.387 1_655 S
C259 C258 1.387 1_455 S
C259 C260 1.372 . S
C260 H238 0.950 . S
C260 C259 1.372 . S
C260 C261 1.379 . S
C261 H239 0.948 . S
C261 C256 1.364 . S
C261 C260 1.379 . S
C262 C231 1.383 . S
C262 C249 1.479 . S
C262 C263 1.398 . S
C263 C228 1.382 . S
C263 H240 0.951 . S
C263 C262 1.398 . S
C264 C265 1.384 . S
C264 H277 0.947 . S
C264 C299 1.382 . S
C265 C264 1.384 . S
C265 C266 1.378 . S
C266 C265 1.378 . S
C266 C267 1.378 . S
C266 H278 0.952 . S
C267 C266 1.378 . S
C267 H279 0.950 . S
C267 C298 1.383 . S
H268 C287 0.947 . S
H269 C288 0.946 . S
H270 C290 0.953 . S
H271 C291 0.945 . S
H272 C293 0.952 . S
H273 C294 0.949 . S
H274 C296 0.950 . S
H275 C297 0.948 . S
H276 C299 0.951 . S
H277 C264 0.947 . S
H278 C266 0.952 . S
H279 C267 0.950 . S
N280 C283 1.382 1_545 S
N280 C285 1.363 . S
N281 C283 1.371 . S
N281 C284 1.372 1_565 S
N282 C284 1.361 . S
N282 C285 1.377 . S
C283 N280 1.382 1_565 S
C283 N281 1.371 . S
C283 C286 1.480 . S
C284 N281 1.372 1_545 S
C284 N282 1.361 . S
C284 C292 1.457 . S
C285 N280 1.363 . S
C285 N282 1.377 . S
C285 C298 1.479 . S
C286 C283 1.480 . S
C286 C287 1.383 . S
C286 C291 1.385 . S
C287 H268 0.947 . S
C287 C286 1.383 . S
C287 C288 1.388 . S
C288 H269 0.946 . S
C288 C287 1.388 . S
C288 C289 1.384 . S
C289 C288 1.384 . S
C289 C290 1.377 . S
C290 H270 0.953 . S
C290 C289 1.377 . S
C290 C291 1.369 . S
C291 H271 0.945 . S
C291 C286 1.385 . S
C291 C290 1.369 . S
C292 C284 1.457 . S
C292 C293 1.372 1_545 S
C292 C297 1.364 . S
C293 H272 0.952 . S
C293 C292 1.372 1_565 S
C293 C294 1.389 . S
C294 H273 0.949 . S
C294 C293 1.389 . S
C294 C295 1.387 1_565 S
C295 C294 1.387 1_545 S
C295 C296 1.372 . S
C296 H274 0.950 . S
C296 C295 1.372 . S
C296 C297 1.379 . S
C297 H275 0.948 . S
C297 C292 1.364 . S
C297 C296 1.379 . S
C298 C267 1.383 . S
C298 C285 1.479 . S
C298 C299 1.398 . S
C299 C264 1.382 . S
C299 H276 0.951 . S
C299 C298 1.398 . S
C300 C301 1.384 . S
C300 H313 0.947 . S
C300 C335 1.382 . S
C301 C300 1.384 . S
C301 C302 1.378 . S
C302 C301 1.378 . S
C302 C303 1.378 . S
C302 H314 0.952 . S
C303 C302 1.378 . S
C303 H315 0.950 . S
C303 C334 1.383 . S
H304 C323 0.947 . S
H305 C324 0.946 . S
H306 C326 0.953 . S
H307 C327 0.945 . S
H308 C329 0.952 . S
H309 C330 0.949 . S
H310 C332 0.950 . S
H311 C333 0.948 . S
H312 C335 0.951 . S
H313 C300 0.947 . S
H314 C302 0.952 . S
H315 C303 0.950 . S
N316 C319 1.382 . S
N316 C321 1.363 . S
N317 C319 1.371 . S
N317 C320 1.372 . S
N318 C320 1.361 . S
N318 C321 1.377 . S
C319 N316 1.382 . S
C319 N317 1.371 . S
C319 C322 1.480 . S
C320 N317 1.372 . S
C320 N318 1.361 . S
C320 C328 1.457 . S
C321 N316 1.363 . S
C321 N318 1.377 . S
C321 C334 1.479 . S
C322 C319 1.480 . S
C322 C323 1.383 . S
C322 C327 1.385 . S
C323 H304 0.947 . S
C323 C322 1.383 . S
C323 C324 1.388 . S
C324 H305 0.946 . S
C324 C323 1.388 . S
C324 C325 1.384 . S
C325 C324 1.384 . S
C325 C326 1.377 . S
C326 H306 0.953 . S
C326 C325 1.377 . S
C326 C327 1.369 . S
C327 H307 0.945 . S
C327 C322 1.385 . S
C327 C326 1.369 . S
C328 C320 1.457 . S
C328 C329 1.372 . S
C328 C333 1.364 . S
C329 H308 0.952 . S
C329 C328 1.372 . S
C329 C330 1.389 . S
C330 H309 0.949 . S
C330 C329 1.389 . S
C330 C331 1.387 . S
C331 C330 1.387 . S
C331 C332 1.372 . S
C332 H310 0.950 . S
C332 C331 1.372 . S
C332 C333 1.379 . S
C333 H311 0.948 . S
C333 C328 1.364 . S
C333 C332 1.379 . S
C334 C303 1.383 . S
C334 C321 1.479 . S
C334 C335 1.398 . S
C335 C300 1.382 . S
C335 H312 0.951 . S
C335 C334 1.398 . S
H336 C344 0.929 . S
H337 C346 0.930 . S
H338 C348 0.930 . S
H339 C351 0.929 . S
H340 C354 0.930 . S
H341 C356 0.960 . S
H342 C356 0.960 . S
H343 C356 0.960 . S
C344 H336 0.929 . S
C344 C345 1.377 . S
C344 C346 1.384 . S
C345 C344 1.377 . S
C345 C351 1.390 . S
C346 H337 0.930 . S
C346 C344 1.384 . S
C346 C347 1.372 . S
C347 C346 1.372 . S
C347 C348 1.400 . S
C347 C352 1.490 . S
C348 H338 0.930 . S
C348 C347 1.400 . S
C348 C351 1.386 . S
H349 C365 0.930 . S
H350 C366 0.931 . S
C351 H339 0.929 . S
C351 C345 1.390 . S
C351 C348 1.386 . S
C352 C347 1.490 . S
C352 C354 1.395 . S
C352 C355 1.403 . S
H353 C359 0.930 . S
C354 H340 0.930 . S
C354 C352 1.395 . S
C354 C357 1.403 . S
C355 C352 1.403 . S
C355 C356 1.524 . S
C355 C359 1.400 . S
C356 H341 0.960 . S
C356 H342 0.960 . S
C356 H343 0.960 . S
C356 C355 1.524 . S
C357 C354 1.403 . S
C357 C358 1.392 . S
C357 C361 1.495 . S
C358 C357 1.392 . S
C358 C359 1.385 . S
C358 C360 1.478 . S
C359 H353 0.930 . S
C359 C355 1.400 . S
C359 C358 1.385 . S
C360 C358 1.478 . S
C360 C362 1.381 . S
C360 C366 1.383 . S
C361 C357 1.495 . S
C361 H367 0.959 . S
C361 H368 0.961 . S
C361 H369 0.960 . S
C362 C360 1.381 . S
C362 C363 1.394 . S
C362 H370 0.930 . S
C363 C362 1.394 . S
C363 C364 1.383 . S
C363 H371 0.929 . S
C364 C363 1.383 . S
C364 C365 1.377 . S
C365 H349 0.930 . S
C365 C364 1.377 . S
C365 C366 1.379 . S
C366 H350 0.931 . S
C366 C360 1.383 . S
C366 C365 1.379 . S
H367 C361 0.959 . S
H368 C361 0.961 . S
H369 C361 0.960 . S
H370 C362 0.930 . S
H371 C363 0.929 . S
H372 C380 0.929 . S
H373 C382 0.930 . S
H374 C384 0.930 . S
H375 C387 0.929 . S
H376 C390 0.930 . S
H377 C392 0.960 . S
H378 C392 0.960 . S
H379 C392 0.960 . S
C380 H372 0.929 . S
C380 C381 1.377 . S
C380 C382 1.384 . S
C381 C380 1.377 . S
C381 C387 1.390 . S
C382 H373 0.930 . S
C382 C380 1.384 . S
C382 C383 1.372 . S
C383 C382 1.372 . S
C383 C384 1.400 . S
C383 C388 1.490 . S
C384 H374 0.930 . S
C384 C383 1.400 . S
C384 C387 1.386 . S
H385 C401 0.930 . S
H386 C402 0.931 . S
C387 H375 0.929 . S
C387 C381 1.390 . S
C387 C384 1.386 . S
C388 C383 1.490 . S
C388 C390 1.395 . S
C388 C391 1.403 . S
H389 C395 0.930 . S
C390 H376 0.930 . S
C390 C388 1.395 . S
C390 C393 1.403 . S
C391 C388 1.403 . S
C391 C392 1.524 . S
C391 C395 1.400 . S
C392 H377 0.960 . S
C392 H378 0.960 . S
C392 H379 0.960 . S
C392 C391 1.524 . S
C393 C390 1.403 . S
C393 C394 1.392 . S
C393 C397 1.495 . S
C394 C393 1.392 . S
C394 C395 1.385 . S
C394 C396 1.478 . S
C395 H389 0.930 . S
C395 C391 1.400 . S
C395 C394 1.385 . S
C396 C394 1.478 . S
C396 C398 1.381 . S
C396 C402 1.383 . S
C397 C393 1.495 . S
C397 H403 0.959 . S
C397 H404 0.961 . S
C397 H405 0.960 . S
C398 C396 1.381 . S
C398 C399 1.394 . S
C398 H406 0.930 . S
C399 C398 1.394 . S
C399 C400 1.383 . S
C399 H407 0.929 . S
C400 C399 1.383 . S
C400 C401 1.377 . S
C401 H385 0.930 . S
C401 C400 1.377 . S
C401 C402 1.379 . S
C402 H386 0.931 . S
C402 C396 1.383 . S
C402 C401 1.379 . S
H403 C397 0.959 . S
H404 C397 0.961 . S
H405 C397 0.960 . S
H406 C398 0.930 . S
H407 C399 0.929 . S
H408 C416 0.929 . S
H409 C418 0.930 . S
H410 C420 0.930 . S
H411 C423 0.929 . S
H412 C426 0.930 . S
H413 C428 0.960 . S
H414 C428 0.960 . S
H415 C428 0.960 . S
C416 H408 0.929 . S
C416 C417 1.377 . S
C416 C418 1.384 . S
C417 C416 1.377 . S
C417 C423 1.390 . S
C418 H409 0.930 . S
C418 C416 1.384 . S
C418 C419 1.372 . S
C419 C418 1.372 . S
C419 C420 1.400 . S
C419 C424 1.490 . S
C420 H410 0.930 . S
C420 C419 1.400 . S
C420 C423 1.386 . S
H421 C437 0.930 . S
H422 C438 0.931 . S
C423 H411 0.929 . S
C423 C417 1.390 . S
C423 C420 1.386 . S
C424 C419 1.490 . S
C424 C426 1.395 . S
C424 C427 1.403 . S
H425 C431 0.930 . S
C426 H412 0.930 . S
C426 C424 1.395 . S
C426 C429 1.403 . S
C427 C424 1.403 . S
C427 C428 1.524 . S
C427 C431 1.400 . S
C428 H413 0.960 . S
C428 H414 0.960 . S
C428 H415 0.960 . S
C428 C427 1.524 . S
C429 C426 1.403 . S
C429 C430 1.392 . S
C429 C433 1.495 . S
C430 C429 1.392 . S
C430 C431 1.385 . S
C430 C432 1.478 . S
C431 H425 0.930 . S
C431 C427 1.400 . S
C431 C430 1.385 . S
C432 C430 1.478 . S
C432 C434 1.381 . S
C432 C438 1.383 . S
C433 C429 1.495 . S
C433 H439 0.959 . S
C433 H440 0.961 . S
C433 H441 0.960 . S
C434 C432 1.381 . S
C434 C435 1.394 . S
C434 H442 0.930 . S
C435 C434 1.394 . S
C435 C436 1.383 . S
C435 H443 0.929 . S
C436 C435 1.383 . S
C436 C437 1.377 . S
C437 H421 0.930 . S
C437 C436 1.377 . S
C437 C438 1.379 . S
C438 H422 0.931 . S
C438 C432 1.383 . S
C438 C437 1.379 . S
H439 C433 0.959 . S
H440 C433 0.961 . S
H441 C433 0.960 . S
H442 C434 0.930 . S
H443 C435 0.929 . S
H444 C452 0.929 . S
H445 C454 0.930 . S
H446 C456 0.930 . S
H447 C459 0.929 . S
H448 C462 0.930 . S
H449 C464 0.960 . S
H450 C464 0.960 . S
H451 C464 0.960 . S
C452 H444 0.929 . S
C452 C453 1.377 . S
C452 C454 1.384 . S
C453 C452 1.377 . S
C453 C459 1.390 . S
C454 H445 0.930 . S
C454 C452 1.384 . S
C454 C455 1.372 . S
C455 C454 1.372 . S
C455 C456 1.400 . S
C455 C460 1.490 . S
C456 H446 0.930 . S
C456 C455 1.400 . S
C456 C459 1.386 . S
H457 C473 0.930 . S
H458 C474 0.931 . S
C459 H447 0.929 . S
C459 C453 1.390 . S
C459 C456 1.386 . S
C460 C455 1.490 . S
C460 C462 1.395 . S
C460 C463 1.403 . S
H461 C467 0.930 . S
C462 H448 0.930 . S
C462 C460 1.395 . S
C462 C465 1.403 . S
C463 C460 1.403 . S
C463 C464 1.524 . S
C463 C467 1.400 . S
C464 H449 0.960 . S
C464 H450 0.960 . S
C464 H451 0.960 . S
C464 C463 1.524 . S
C465 C462 1.403 . S
C465 C466 1.392 . S
C465 C469 1.495 . S
C466 C465 1.392 . S
C466 C467 1.385 . S
C466 C468 1.478 . S
C467 H461 0.930 . S
C467 C463 1.400 . S
C467 C466 1.385 . S
C468 C466 1.478 . S
C468 C470 1.381 . S
C468 C474 1.383 . S
C469 C465 1.495 . S
C469 H475 0.959 . S
C469 H476 0.961 . S
C469 H477 0.960 . S
C470 C468 1.381 . S
C470 C471 1.394 . S
C470 H478 0.930 . S
C471 C470 1.394 . S
C471 C472 1.383 . S
C471 H479 0.929 . S
C472 C471 1.383 . S
C472 C473 1.377 . S
C473 H457 0.930 . S
C473 C472 1.377 . S
C473 C474 1.379 . S
C474 H458 0.931 . S
C474 C468 1.383 . S
C474 C473 1.379 . S
H475 C469 0.959 . S
H476 C469 0.961 . S
H477 C469 0.960 . S
H478 C470 0.930 . S
H479 C471 0.929 . S
H480 C488 0.929 . S
H481 C490 0.930 . S
H482 C492 0.930 . S
H483 C495 0.929 . S
H484 C498 0.930 . S
H485 C500 0.960 . S
H486 C500 0.960 . S
H487 C500 0.960 . S
C488 H480 0.929 . S
C488 C489 1.377 . S
C488 C490 1.384 . S
C489 C488 1.377 . S
C489 C495 1.390 . S
C490 H481 0.930 . S
C490 C488 1.384 . S
C490 C491 1.372 . S
C491 C490 1.372 . S
C491 C492 1.400 . S
C491 C496 1.490 . S
C492 H482 0.930 . S
C492 C491 1.400 . S
C492 C495 1.386 . S
H493 C509 0.930 . S
H494 C510 0.931 . S
C495 H483 0.929 . S
C495 C489 1.390 . S
C495 C492 1.386 . S
C496 C491 1.490 . S
C496 C498 1.395 . S
C496 C499 1.403 . S
H497 C503 0.930 . S
C498 H484 0.930 . S
C498 C496 1.395 . S
C498 C501 1.403 . S
C499 C496 1.403 . S
C499 C500 1.524 . S
C499 C503 1.400 . S
C500 H485 0.960 . S
C500 H486 0.960 . S
C500 H487 0.960 . S
C500 C499 1.524 . S
C501 C498 1.403 . S
C501 C502 1.392 . S
C501 C505 1.495 . S
C502 C501 1.392 . S
C502 C503 1.385 . S
C502 C504 1.478 . S
C503 H497 0.930 . S
C503 C499 1.400 . S
C503 C502 1.385 . S
C504 C502 1.478 . S
C504 C506 1.381 . S
C504 C510 1.383 . S
C505 C501 1.495 . S
C505 H511 0.959 . S
C505 H512 0.961 . S
C505 H513 0.960 . S
C506 C504 1.381 . S
C506 C507 1.394 . S
C506 H514 0.930 . S
C507 C506 1.394 . S
C507 C508 1.383 . S
C507 H515 0.929 . S
C508 C507 1.383 . S
C508 C509 1.377 . S
C509 H493 0.930 . S
C509 C508 1.377 . S
C509 C510 1.379 . S
C510 H494 0.931 . S
C510 C504 1.383 . S
C510 C509 1.379 . S
H511 C505 0.959 . S
H512 C505 0.961 . S
H513 C505 0.960 . S
H514 C506 0.930 . S
H515 C507 0.929 . S
H516 C524 0.929 . S
H517 C526 0.930 . S
H518 C528 0.930 . S
H519 C531 0.929 . S
H520 C534 0.930 . S
H521 C536 0.960 . S
H522 C536 0.960 . S
H523 C536 0.960 . S
C524 H516 0.929 . S
C524 C525 1.377 . S
C524 C526 1.384 . S
C525 C524 1.377 . S
C525 C531 1.390 . S
C526 H517 0.930 . S
C526 C524 1.384 . S
C526 C527 1.372 . S
C527 C526 1.372 . S
C527 C528 1.400 . S
C527 C532 1.490 . S
C528 H518 0.930 . S
C528 C527 1.400 . S
C528 C531 1.386 . S
H529 C545 0.930 . S
H530 C546 0.931 . S
C531 H519 0.929 . S
C531 C525 1.390 . S
C531 C528 1.386 . S
C532 C527 1.490 . S
C532 C534 1.395 . S
C532 C535 1.403 . S
H533 C539 0.930 . S
C534 H520 0.930 . S
C534 C532 1.395 . S
C534 C537 1.403 . S
C535 C532 1.403 . S
C535 C536 1.524 . S
C535 C539 1.400 . S
C536 H521 0.960 . S
C536 H522 0.960 . S
C536 H523 0.960 . S
C536 C535 1.524 . S
C537 C534 1.403 . S
C537 C538 1.392 . S
C537 C541 1.495 . S
C538 C537 1.392 . S
C538 C539 1.385 . S
C538 C540 1.478 . S
C539 H533 0.930 . S
C539 C535 1.400 . S
C539 C538 1.385 . S
C540 C538 1.478 . S
C540 C542 1.381 . S
C540 C546 1.383 . S
C541 C537 1.495 . S
C541 H547 0.959 . S
C541 H548 0.961 . S
C541 H549 0.960 . S
C542 C540 1.381 . S
C542 C543 1.394 . S
C542 H550 0.930 . S
C543 C542 1.394 . S
C543 C544 1.383 . S
C543 H551 0.929 . S
C544 C543 1.383 . S
C544 C545 1.377 . S
C545 H529 0.930 . S
C545 C544 1.377 . S
C545 C546 1.379 . S
C546 H530 0.931 . S
C546 C540 1.383 . S
C546 C545 1.379 . S
H547 C541 0.959 . S
H548 C541 0.961 . S
H549 C541 0.960 . S
H550 C542 0.930 . S
H551 C543 0.929 . S
H552 C560 0.929 . S
H553 C562 0.930 . S
H554 C564 0.930 . S
H555 C567 0.929 . S
H556 C570 0.930 . S
H557 C572 0.960 . S
H558 C572 0.960 . S
H559 C572 0.960 . S
C560 H552 0.929 . S
C560 C561 1.377 . S
C560 C562 1.384 . S
C561 C560 1.377 . S
C561 C567 1.390 . S
C562 H553 0.930 . S
C562 C560 1.384 . S
C562 C563 1.372 . S
C563 C562 1.372 . S
C563 C564 1.400 . S
C563 C568 1.490 . S
C564 H554 0.930 . S
C564 C563 1.400 . S
C564 C567 1.386 . S
H565 C581 0.930 . S
H566 C582 0.931 . S
C567 H555 0.929 . S
C567 C561 1.390 . S
C567 C564 1.386 . S
C568 C563 1.490 . S
C568 C570 1.395 . S
C568 C571 1.403 . S
H569 C575 0.930 . S
C570 H556 0.930 . S
C570 C568 1.395 . S
C570 C573 1.403 . S
C571 C568 1.403 . S
C571 C572 1.524 . S
C571 C575 1.400 . S
C572 H557 0.960 . S
C572 H558 0.960 . S
C572 H559 0.960 . S
C572 C571 1.524 . S
C573 C570 1.403 . S
C573 C574 1.392 . S
C573 C577 1.495 . S
C574 C573 1.392 . S
C574 C575 1.385 . S
C574 C576 1.478 . S
C575 H569 0.930 . S
C575 C571 1.400 . S
C575 C574 1.385 . S
C576 C574 1.478 . S
C576 C578 1.381 . S
C576 C582 1.383 . S
C577 C573 1.495 . S
C577 H583 0.959 . S
C577 H584 0.961 . S
C577 H585 0.960 . S
C578 C576 1.381 . S
C578 C579 1.394 . S
C578 H586 0.930 . S
C579 C578 1.394 . S
C579 C580 1.383 . S
C579 H587 0.929 . S
C580 C579 1.383 . S
C580 C581 1.377 . S
C581 H565 0.930 . S
C581 C580 1.377 . S
C581 C582 1.379 . S
C582 H566 0.931 . S
C582 C576 1.383 . S
C582 C581 1.379 . S
H583 C577 0.959 . S
H584 C577 0.961 . S
H585 C577 0.960 . S
H586 C578 0.930 . S
H587 C579 0.929 . S
H588 C596 0.929 . S
H589 C598 0.930 . S
H590 C600 0.930 . S
H591 C603 0.929 . S
H592 C606 0.930 . S
H593 C608 0.960 . S
H594 C608 0.960 . S
H595 C608 0.960 . S
C596 H588 0.929 . S
C596 C597 1.377 . S
C596 C598 1.384 . S
C597 C596 1.377 . S
C597 C603 1.390 . S
C598 H589 0.930 . S
C598 C596 1.384 . S
C598 C599 1.372 . S
C599 C598 1.372 . S
C599 C600 1.400 . S
C599 C604 1.490 . S
C600 H590 0.930 . S
C600 C599 1.400 . S
C600 C603 1.386 . S
H601 C617 0.930 . S
H602 C618 0.931 . S
C603 H591 0.929 . S
C603 C597 1.390 . S
C603 C600 1.386 . S
C604 C599 1.490 . S
C604 C606 1.395 . S
C604 C607 1.403 . S
H605 C611 0.930 . S
C606 H592 0.930 . S
C606 C604 1.395 . S
C606 C609 1.403 . S
C607 C604 1.403 . S
C607 C608 1.524 . S
C607 C611 1.400 . S
C608 H593 0.960 . S
C608 H594 0.960 . S
C608 H595 0.960 . S
C608 C607 1.524 . S
C609 C606 1.403 . S
C609 C610 1.392 . S
C609 C613 1.495 . S
C610 C609 1.392 . S
C610 C611 1.385 . S
C610 C612 1.478 . S
C611 H605 0.930 . S
C611 C607 1.400 . S
C611 C610 1.385 . S
C612 C610 1.478 . S
C612 C614 1.381 . S
C612 C618 1.383 . S
C613 C609 1.495 . S
C613 H619 0.959 . S
C613 H620 0.961 . S
C613 H621 0.960 . S
C614 C612 1.381 . S
C614 C615 1.394 . S
C614 H622 0.930 . S
C615 C614 1.394 . S
C615 C616 1.383 . S
C615 H623 0.929 . S
C616 C615 1.383 . S
C616 C617 1.377 . S
C617 H601 0.930 . S
C617 C616 1.377 . S
C617 C618 1.379 . S
C618 H602 0.931 . S
C618 C612 1.383 . S
C618 C617 1.379 . S
H619 C613 0.959 . S
H620 C613 0.961 . S
H621 C613 0.960 . S
H622 C614 0.930 . S
H623 C615 0.929 . S
H624 C632 0.929 . S
H625 C634 0.930 . S
H626 C636 0.930 . S
H627 C639 0.929 . S
H628 C642 0.930 . S
H629 C644 0.960 . S
H630 C644 0.960 . S
H631 C644 0.960 . S
C632 H624 0.929 . S
C632 C633 1.377 . S
C632 C634 1.384 . S
C633 C632 1.377 . S
C633 C639 1.390 . S
C634 H625 0.930 . S
C634 C632 1.384 . S
C634 C635 1.372 . S
C635 C634 1.372 . S
C635 C636 1.400 . S
C635 C640 1.490 . S
C636 H626 0.930 . S
C636 C635 1.400 . S
C636 C639 1.386 . S
H637 C653 0.930 . S
H638 C654 0.931 . S
C639 H627 0.929 . S
C639 C633 1.390 . S
C639 C636 1.386 . S
C640 C635 1.490 . S
C640 C642 1.395 . S
C640 C643 1.403 . S
H641 C647 0.930 . S
C642 H628 0.930 . S
C642 C640 1.395 . S
C642 C645 1.403 . S
C643 C640 1.403 . S
C643 C644 1.524 . S
C643 C647 1.400 . S
C644 H629 0.960 . S
C644 H630 0.960 . S
C644 H631 0.960 . S
C644 C643 1.524 . S
C645 C642 1.403 . S
C645 C646 1.392 . S
C645 C649 1.495 . S
C646 C645 1.392 . S
C646 C647 1.385 . S
C646 C648 1.478 . S
C647 H641 0.930 . S
C647 C643 1.400 . S
C647 C646 1.385 . S
C648 C646 1.478 . S
C648 C650 1.381 . S
C648 C654 1.383 . S
C649 C645 1.495 . S
C649 H655 0.959 . S
C649 H656 0.961 . S
C649 H657 0.960 . S
C650 C648 1.381 . S
C650 C651 1.394 . S
C650 H658 0.930 . S
C651 C650 1.394 . S
C651 C652 1.383 . S
C651 H659 0.929 . S
C652 C651 1.383 . S
C652 C653 1.377 . S
C653 H637 0.930 . S
C653 C652 1.377 . S
C653 C654 1.379 . S
C654 H638 0.931 . S
C654 C648 1.383 . S
C654 C653 1.379 . S
H655 C649 0.959 . S
H656 C649 0.961 . S
H657 C649 0.960 . S
H658 C650 0.930 . S
H659 C651 0.929 . S
H660 C668 0.929 . S
H661 C670 0.930 . S
H662 C672 0.930 . S
H663 C675 0.929 . S
H664 C678 0.930 . S
H665 C680 0.960 . S
H666 C680 0.960 . S
H667 C680 0.960 . S
C668 H660 0.929 . S
C668 C669 1.377 . S
C668 C670 1.384 . S
C669 C668 1.377 . S
C669 C675 1.390 . S
C670 H661 0.930 . S
C670 C668 1.384 . S
C670 C671 1.372 . S
C671 C670 1.372 . S
C671 C672 1.400 . S
C671 C676 1.490 . S
C672 H662 0.930 . S
C672 C671 1.400 . S
C672 C675 1.386 . S
H673 C689 0.930 . S
H674 C690 0.931 . S
C675 H663 0.929 . S
C675 C669 1.390 . S
C675 C672 1.386 . S
C676 C671 1.490 . S
C676 C678 1.395 . S
C676 C679 1.403 . S
H677 C683 0.930 . S
C678 H664 0.930 . S
C678 C676 1.395 . S
C678 C681 1.403 . S
C679 C676 1.403 . S
C679 C680 1.524 . S
C679 C683 1.400 . S
C680 H665 0.960 . S
C680 H666 0.960 . S
C680 H667 0.960 . S
C680 C679 1.524 . S
C681 C678 1.403 . S
C681 C682 1.392 . S
C681 C685 1.495 . S
C682 C681 1.392 . S
C682 C683 1.385 . S
C682 C684 1.478 . S
C683 H677 0.930 . S
C683 C679 1.400 . S
C683 C682 1.385 . S
C684 C682 1.478 . S
C684 C686 1.381 . S
C684 C690 1.383 . S
C685 C681 1.495 . S
C685 H691 0.959 . S
C685 H692 0.961 . S
C685 H693 0.960 . S
C686 C684 1.381 . S
C686 C687 1.394 . S
C686 H694 0.930 . S
C687 C686 1.394 . S
C687 C688 1.383 . S
C687 H695 0.929 . S
C688 C687 1.383 . S
C688 C689 1.377 . S
C689 H673 0.930 . S
C689 C688 1.377 . S
C689 C690 1.379 . S
C690 H674 0.931 . S
C690 C684 1.383 . S
C690 C689 1.379 . S
H691 C685 0.959 . S
H692 C685 0.961 . S
H693 C685 0.960 . S
H694 C686 0.930 . S
H695 C687 0.929 . S
H696 C704 0.929 . S
H697 C706 0.930 . S
H698 C708 0.930 . S
H699 C711 0.929 . S
H700 C714 0.930 . S
H701 C716 0.960 . S
H702 C716 0.960 . S
H703 C716 0.960 . S
C704 H696 0.929 . S
C704 C705 1.377 . S
C704 C706 1.384 . S
C705 C704 1.377 . S
C705 C711 1.390 . S
C706 H697 0.930 . S
C706 C704 1.384 . S
C706 C707 1.372 . S
C707 C706 1.372 . S
C707 C708 1.400 . S
C707 C712 1.490 . S
C708 H698 0.930 . S
C708 C707 1.400 . S
C708 C711 1.386 . S
H709 C725 0.930 . S
H710 C726 0.931 . S
C711 H699 0.929 . S
C711 C705 1.390 . S
C711 C708 1.386 . S
C712 C707 1.490 . S
C712 C714 1.395 . S
C712 C715 1.403 . S
H713 C719 0.930 . S
C714 H700 0.930 . S
C714 C712 1.395 . S
C714 C717 1.403 . S
C715 C712 1.403 . S
C715 C716 1.524 . S
C715 C719 1.400 . S
C716 H701 0.960 . S
C716 H702 0.960 . S
C716 H703 0.960 . S
C716 C715 1.524 . S
C717 C714 1.403 . S
C717 C718 1.392 . S
C717 C721 1.495 . S
C718 C717 1.392 . S
C718 C719 1.385 . S
C718 C720 1.478 . S
C719 H713 0.930 . S
C719 C715 1.400 . S
C719 C718 1.385 . S
C720 C718 1.478 . S
C720 C722 1.381 . S
C720 C726 1.383 . S
C721 C717 1.495 . S
C721 H727 0.959 . S
C721 H728 0.961 . S
C721 H729 0.960 . S
C722 C720 1.381 . S
C722 C723 1.394 . S
C722 H730 0.930 . S
C723 C722 1.394 . S
C723 C724 1.383 . S
C723 H731 0.929 . S
C724 C723 1.383 . S
C724 C725 1.377 . S
C725 H709 0.930 . S
C725 C724 1.377 . S
C725 C726 1.379 . S
C726 H710 0.931 . S
C726 C720 1.383 . S
C726 C725 1.379 . S
H727 C721 0.959 . S
H728 C721 0.961 . S
H729 C721 0.960 . S
H730 C722 0.930 . S
H731 C723 0.929 . S
H732 C740 0.929 . S
H733 C742 0.930 . S
H734 C744 0.930 . S
H735 C747 0.929 . S
H736 C750 0.930 . S
H737 C752 0.960 . S
H738 C752 0.960 . S
H739 C752 0.960 . S
C740 H732 0.929 . S
C740 C741 1.377 . S
C740 C742 1.384 . S
C741 C740 1.377 . S
C741 C747 1.390 . S
C742 H733 0.930 . S
C742 C740 1.384 . S
C742 C743 1.372 . S
C743 C742 1.372 . S
C743 C744 1.400 . S
C743 C748 1.490 . S
C744 H734 0.930 . S
C744 C743 1.400 . S
C744 C747 1.386 . S
H745 C761 0.930 . S
H746 C762 0.931 . S
C747 H735 0.929 . S
C747 C741 1.390 . S
C747 C744 1.386 . S
C748 C743 1.490 . S
C748 C750 1.395 . S
C748 C751 1.403 . S
H749 C755 0.930 . S
C750 H736 0.930 . S
C750 C748 1.395 . S
C750 C753 1.403 . S
C751 C748 1.403 . S
C751 C752 1.524 . S
C751 C755 1.400 . S
C752 H737 0.960 . S
C752 H738 0.960 . S
C752 H739 0.960 . S
C752 C751 1.524 . S
C753 C750 1.403 . S
C753 C754 1.392 . S
C753 C757 1.495 . S
C754 C753 1.392 . S
C754 C755 1.385 . S
C754 C756 1.478 . S
C755 H749 0.930 . S
C755 C751 1.400 . S
C755 C754 1.385 . S
C756 C754 1.478 . S
C756 C758 1.381 . S
C756 C762 1.383 . S
C757 C753 1.495 . S
C757 H763 0.959 . S
C757 H764 0.961 . S
C757 H765 0.960 . S
C758 C756 1.381 . S
C758 C759 1.394 . S
C758 H766 0.930 . S
C759 C758 1.394 . S
C759 C760 1.383 . S
C759 H767 0.929 . S
C760 C759 1.383 . S
C760 C761 1.377 . S
C761 H745 0.930 . S
C761 C760 1.377 . S
C761 C762 1.379 . S
C762 H746 0.931 . S
C762 C756 1.383 . S
C762 C761 1.379 . S
H763 C757 0.959 . S
H764 C757 0.961 . S
H765 C757 0.960 . S
H766 C758 0.930 . S
H767 C759 0.929 . S
H768 C776 0.929 1_655 S
H769 C778 0.930 1_655 S
H770 C780 0.930 . S
H771 C783 0.929 . S
H772 C786 0.930 . S
H773 C788 0.960 . S
H774 C788 0.960 . S
H775 C788 0.960 . S
C776 H768 0.929 1_455 S
C776 C777 1.377 . S
C776 C778 1.384 . S
C777 C776 1.377 . S
C777 C783 1.390 . S
C778 H769 0.930 1_455 S
C778 C776 1.384 . S
C778 C779 1.372 . S
C779 C778 1.372 . S
C779 C780 1.400 . S
C779 C784 1.490 . S
C780 H770 0.930 . S
C780 C779 1.400 . S
C780 C783 1.386 . S
H781 C797 0.930 . S
H782 C798 0.931 . S
C783 H771 0.929 . S
C783 C777 1.390 . S
C783 C780 1.386 . S
C784 C779 1.490 . S
C784 C786 1.395 1_455 S
C784 C787 1.403 . S
H785 C791 0.930 . S
C786 H772 0.930 . S
C786 C784 1.395 1_655 S
C786 C789 1.403 . S
C787 C784 1.403 . S
C787 C788 1.524 . S
C787 C791 1.400 . S
C788 H773 0.960 . S
C788 H774 0.960 . S
C788 H775 0.960 . S
C788 C787 1.524 . S
C789 C786 1.403 . S
C789 C790 1.392 1_655 S
C789 C793 1.495 . S
C790 C789 1.392 1_455 S
C790 C791 1.385 . S
C790 C792 1.478 . S
C791 H785 0.930 . S
C791 C787 1.400 . S
C791 C790 1.385 . S
C792 C790 1.478 . S
C792 C794 1.381 . S
C792 C798 1.383 . S
C793 C789 1.495 . S
C793 H799 0.959 . S
C793 H800 0.961 . S
C793 H801 0.960 . S
C794 C792 1.381 . S
C794 C795 1.394 1_554 S
C794 H802 0.930 1_455 S
C795 C794 1.394 1_556 S
C795 C796 1.383 . S
C795 H803 0.929 1_455 S
C796 C795 1.383 . S
C796 C797 1.377 . S
C797 H781 0.930 . S
C797 C796 1.377 . S
C797 C798 1.379 1_556 S
C798 H782 0.931 . S
C798 C792 1.383 . S
C798 C797 1.379 1_554 S
H799 C793 0.959 . S
H800 C793 0.961 . S
H801 C793 0.960 . S
H802 C794 0.930 1_655 S
H803 C795 0.929 1_655 S
H804 C812 0.929 . S
H805 C814 0.930 . S
H806 C816 0.930 . S
H807 C819 0.929 . S
H808 C822 0.906 1_565 S
H809 C824 0.960 . S
H810 C824 0.960 . S
H811 C824 0.960 . S
C812 H804 0.929 . S
C812 C813 1.377 . S
C812 C814 1.384 . S
C813 C812 1.377 . S
C813 C819 1.390 . S
C814 H805 0.930 . S
C814 C812 1.384 . S
C814 C815 1.372 . S
C815 C814 1.372 . S
C815 C816 1.400 . S
C815 C820 1.490 . S
C816 H806 0.930 . S
C816 C815 1.400 . S
C816 C819 1.386 . S
H817 C833 0.930 . S
H818 C834 0.931 . S
C819 H807 0.929 . S
C819 C813 1.390 . S
C819 C816 1.386 . S
C820 C815 1.490 . S
C820 C822 1.423 . S
C820 C823 1.403 . S
H821 C827 0.930 . S
C822 H808 0.906 1_545 S
C822 C820 1.423 . S
C822 C825 1.400 1_545 S
C823 C820 1.403 . S
C823 C824 1.524 . S
C823 C827 1.400 . S
C824 H809 0.960 . S
C824 H810 0.960 . S
C824 H811 0.960 . S
C824 C823 1.524 . S
C825 C822 1.400 1_565 S
C825 C826 1.392 1_565 S
C825 C829 1.495 . S
C826 C825 1.392 1_545 S
C826 C827 1.385 . S
C826 C828 1.478 . S
C827 H821 0.930 . S
C827 C823 1.400 . S
C827 C826 1.385 . S
C828 C826 1.478 . S
C828 C830 1.381 . S
C828 C834 1.383 . S
C829 C825 1.495 . S
C829 H835 0.959 . S
C829 H836 0.961 . S
C829 H837 0.960 . S
C830 C828 1.381 . S
C830 C831 1.394 . S
C830 H838 0.932 1_545 S
C831 C830 1.394 . S
C831 C832 1.383 . S
C831 H839 0.929 . S
C832 C831 1.383 . S
C832 C833 1.377 . S
C833 H817 0.930 . S
C833 C832 1.377 . S
C833 C834 1.379 . S
C834 H818 0.931 . S
C834 C828 1.383 . S
C834 C833 1.379 . S
H835 C829 0.959 . S
H836 C829 0.961 . S
H837 C829 0.960 . S
H838 C830 0.932 1_565 S
H839 C831 0.929 . S
H840 C848 0.929 . S
H841 C850 0.930 . S
H842 C852 0.930 . S
H843 C855 0.929 . S
H844 C858 0.930 . S
H845 C860 0.960 . S
H846 C860 0.960 . S
H847 C860 0.960 . S
C848 H840 0.929 . S
C848 C849 1.377 . S
C848 C850 1.384 . S
C849 C848 1.377 . S
C849 C855 1.390 . S
C850 H841 0.930 . S
C850 C848 1.384 . S
C850 C851 1.372 . S
C851 C850 1.372 . S
C851 C852 1.400 . S
C851 C856 1.490 . S
C852 H842 0.930 . S
C852 C851 1.400 . S
C852 C855 1.386 . S
H853 C869 0.930 . S
H854 C870 0.931 . S
C855 H843 0.929 . S
C855 C849 1.390 . S
C855 C852 1.386 . S
C856 C851 1.490 . S
C856 C858 1.395 . S
C856 C859 1.403 . S
H857 C863 0.930 . S
C858 H844 0.930 . S
C858 C856 1.395 . S
C858 C861 1.403 . S
C859 C856 1.403 . S
C859 C860 1.524 . S
C859 C863 1.400 . S
C860 H845 0.960 . S
C860 H846 0.960 . S
C860 H847 0.960 . S
C860 C859 1.524 . S
C861 C858 1.403 . S
C861 C862 1.392 . S
C861 C865 1.495 . S
C862 C861 1.392 . S
C862 C863 1.385 . S
C862 C864 1.478 . S
C863 H857 0.930 . S
C863 C859 1.400 . S
C863 C862 1.385 . S
C864 C862 1.478 . S
C864 C866 1.381 . S
C864 C870 1.383 . S
C865 C861 1.495 . S
C865 H871 0.959 . S
C865 H872 0.961 . S
C865 H873 0.960 . S
C866 C864 1.381 . S
C866 C867 1.394 . S
C866 H874 0.930 . S
C867 C866 1.394 . S
C867 C868 1.383 . S
C867 H875 0.929 . S
C868 C867 1.383 . S
C868 C869 1.377 . S
C869 H853 0.930 . S
C869 C868 1.377 . S
C869 C870 1.379 . S
C870 H854 0.931 . S
C870 C864 1.383 . S
C870 C869 1.379 . S
H871 C865 0.959 . S
H872 C865 0.961 . S
H873 C865 0.960 . S
H874 C866 0.930 . S
H875 C867 0.929 . S
H876 C884 0.929 . S
H877 C886 0.930 . S
H878 C888 0.930 1_565 S
H879 C891 0.929 1_565 S
H880 C894 0.930 . S
H881 C896 0.960 . S
H882 C896 0.960 . S
H883 C896 0.960 . S
C884 H876 0.929 . S
C884 C885 1.377 . S
C884 C886 1.384 . S
C885 C884 1.377 . S
C885 C891 1.390 . S
C886 H877 0.930 . S
C886 C884 1.384 . S
C886 C887 1.372 . S
C887 C886 1.372 . S
C887 C888 1.400 . S
C887 C892 1.490 . S
C888 H878 0.930 1_545 S
C888 C887 1.400 . S
C888 C891 1.386 . S
H889 C905 0.930 . S
H890 C906 0.931 . S
C891 H879 0.929 1_545 S
C891 C885 1.390 . S
C891 C888 1.386 . S
C892 C887 1.490 . S
C892 C894 1.395 . S
C892 C895 1.403 1_545 S
H893 C899 0.930 . S
C894 H880 0.930 . S
C894 C892 1.395 . S
C894 C897 1.403 . S
C895 C892 1.403 1_565 S
C895 C896 1.524 . S
C895 C899 1.400 . S
C896 H881 0.960 . S
C896 H882 0.960 . S
C896 H883 0.960 . S
C896 C895 1.524 . S
C897 C894 1.403 . S
C897 C898 1.392 . S
C897 C901 1.495 . S
C898 C897 1.392 . S
C898 C899 1.385 1_545 S
C898 C900 1.478 . S
C899 H893 0.930 . S
C899 C895 1.400 . S
C899 C898 1.385 1_565 S
C900 C898 1.478 . S
C900 C902 1.381 . S
C900 C906 1.383 1_545 S
C901 C897 1.495 . S
C901 H907 0.959 . S
C901 H908 0.961 . S
C901 H909 0.960 . S
C902 C900 1.381 . S
C902 C903 1.394 . S
C902 H910 0.930 . S
C903 C902 1.394 . S
C903 C904 1.383 . S
C903 H911 0.929 . S
C904 C903 1.383 . S
C904 C905 1.377 1_545 S
C905 H889 0.930 . S
C905 C904 1.377 1_565 S
C905 C906 1.379 . S
C906 H890 0.931 . S
C906 C900 1.383 1_565 S
C906 C905 1.379 . S
H907 C901 0.959 . S
H908 C901 0.961 . S
H909 C901 0.960 . S
H910 C902 0.930 . S
H911 C903 0.929 . S
H912 C920 0.929 . S
H913 C922 0.930 . S
H914 C924 0.930 . S
H915 C927 0.929 . S
H916 C930 0.930 . S
H917 C932 0.960 . S
H918 C932 0.960 . S
H919 C932 0.960 . S
C920 H912 0.929 . S
C920 C921 1.377 . S
C920 C922 1.384 . S
C921 C920 1.377 . S
C921 C927 1.390 . S
C922 H913 0.930 . S
C922 C920 1.384 . S
C922 C923 1.372 . S
C923 C922 1.372 . S
C923 C924 1.400 . S
C923 C928 1.490 . S
C924 H914 0.930 . S
C924 C923 1.400 . S
C924 C927 1.386 . S
H925 C941 0.930 . S
H926 C942 0.931 . S
C927 H915 0.929 . S
C927 C921 1.390 . S
C927 C924 1.386 . S
C928 C923 1.490 . S
C928 C930 1.395 . S
C928 C931 1.403 . S
H929 C935 0.930 . S
C930 H916 0.930 . S
C930 C928 1.395 . S
C930 C933 1.403 . S
C931 C928 1.403 . S
C931 C932 1.524 . S
C931 C935 1.400 . S
C932 H917 0.960 . S
C932 H918 0.960 . S
C932 H919 0.960 . S
C932 C931 1.524 . S
C933 C930 1.403 . S
C933 C934 1.392 . S
C933 C937 1.495 . S
C934 C933 1.392 . S
C934 C935 1.385 . S
C934 C936 1.478 . S
C935 H929 0.930 . S
C935 C931 1.400 . S
C935 C934 1.385 . S
C936 C934 1.478 . S
C936 C938 1.381 . S
C936 C942 1.383 . S
C937 C933 1.495 . S
C937 H943 0.959 . S
C937 H944 0.961 . S
C937 H945 0.960 . S
C938 C936 1.381 . S
C938 C939 1.394 1_556 S
C938 H946 0.930 . S
C939 C938 1.394 1_554 S
C939 C940 1.383 . S
C939 H947 0.929 . S
C940 C939 1.383 . S
C940 C941 1.377 . S
C941 H925 0.930 . S
C941 C940 1.377 . S
C941 C942 1.379 1_554 S
C942 H926 0.931 . S
C942 C936 1.383 . S
C942 C941 1.379 1_556 S
H943 C937 0.959 . S
H944 C937 0.961 . S
H945 C937 0.960 . S
H946 C938 0.930 . S
H947 C939 0.929 . S
H948 C956 0.929 . S
H949 C958 0.930 . S
H950 C960 0.930 . S
H951 C963 0.929 . S
H952 C966 0.930 . S
H953 C968 0.960 . S
H954 C968 0.960 1_455 S
H955 C968 0.960 . S
C956 H948 0.929 . S
C956 C957 1.377 . S
C956 C958 1.384 . S
C957 C956 1.377 . S
C957 C963 1.390 1_455 S
C958 H949 0.930 . S
C958 C956 1.384 . S
C958 C959 1.372 . S
C959 C958 1.372 . S
C959 C960 1.400 1_455 S
C959 C964 1.490 . S
C960 H950 0.930 . S
C960 C959 1.400 1_655 S
C960 C963 1.386 . S
H961 C977 0.930 . S
H962 C978 0.931 . S
C963 H951 0.929 . S
C963 C957 1.390 1_655 S
C963 C960 1.386 . S
C964 C959 1.490 . S
C964 C966 1.395 . S
C964 C967 1.403 . S
H965 C971 0.930 1_655 S
C966 H952 0.930 . S
C966 C964 1.395 . S
C966 C969 1.403 . S
C967 C964 1.403 . S
C967 C968 1.524 1_455 S
C967 C971 1.400 . S
C968 H953 0.960 . S
C968 H954 0.960 1_655 S
C968 H955 0.960 . S
C968 C967 1.524 1_655 S
C969 C966 1.403 . S
C969 C970 1.392 . S
C969 C973 1.495 . S
C970 C969 1.392 . S
C970 C971 1.385 . S
C970 C972 1.478 . S
C971 H965 0.930 1_455 S
C971 C967 1.400 . S
C971 C970 1.385 . S
C972 C970 1.478 . S
C972 C974 1.381 . S
C972 C978 1.383 1_455 S
C973 C969 1.495 . S
C973 H979 0.959 . S
C973 H980 0.961 . S
C973 H981 0.960 . S
C974 C972 1.381 . S
C974 C975 1.394 . S
C974 H982 0.930 . S
C975 C974 1.394 . S
C975 C976 1.383 . S
C975 H983 0.929 . S
C976 C975 1.383 . S
C976 C977 1.377 1_455 S
C977 H961 0.930 . S
C977 C976 1.377 1_655 S
C977 C978 1.379 . S
C978 H962 0.931 . S
C978 C972 1.383 1_655 S
C978 C977 1.379 . S
H979 C973 0.959 . S
H980 C973 0.961 . S
H981 C973 0.960 . S
H982 C974 0.930 . S
H983 C975 0.929 . S
C345 C9 0.417 . S
C364 C325 0.444 . S
C381 C49 0.265 . S
C400 C253 0.273 . S
C417 C89 0.249 . S
C436 C289 0.404 . S
C453 C26 0.341 . S
C472 C301 0.187 . S
C508 C229 0.330 . S
C489 C66 0.411 . S
C544 C265 0.306 . S
C525 C106 0.412 . S
C561 C43 2.871 . S
C580 C181 2.801 . S
C597 C83 3.032 . S
C616 C193 2.997 . S
C633 C22 3.104 . S
C652 C121 3.058 . S
C688 C157 3.048 . S
C669 C62 3.091 . S
C724 C217 2.856 . S
C705 C102 2.926 . S
C741 C3 2.860 . S
C760 C145 2.810 . S
C796 C223 1.762 . S
C777 C15 1.723 . S
C813 C55 1.734 . S
C832 C151 1.761 . S
C849 C95 1.730 . S
C868 C187 1.758 . S
C904 C295 1.084 . S
C885 C42 1.080 . S
C940 C331 1.099 . S
C921 C82 1.092 . S
C957 C2 1.080 . S
C976 C259 1.096 . S
