# Generated by pormake.
# Topology pyr, (3,6)-cn, num edge types: 1
# Building blocks:
#     Node 0, Type 0, BuildingBlock: MIDCAF_clean_linker_0, # of connection points: 3
#     Node 1, Type 0, BuildingBlock: MIDCAF_clean_linker_0, # of connection points: 3
#     Node 2, Type 0, BuildingBlock: MIDCAF_clean_linker_0, # of connection points: 3
#     Node 3, Type 0, BuildingBlock: MIDCAF_clean_linker_0, # of connection points: 3
#     Node 4, Type 0, BuildingBlock: MIDCAF_clean_linker_0, # of connection points: 3
#     Node 5, Type 0, BuildingBlock: MIDCAF_clean_linker_0, # of connection points: 3
#     Node 6, Type 0, BuildingBlock: MIDCAF_clean_linker_0, # of connection points: 3
#     Node 7, Type 0, BuildingBlock: MIDCAF_clean_linker_0, # of connection points: 3
#     Node 8, Type 1, BuildingBlock: VOLQOD_clean_sbu_1, # of connection points: 6
#     Node 9, Type 1, BuildingBlock: VOLQOD_clean_sbu_1, # of connection points: 6
#     Node 10, Type 1, BuildingBlock: VOLQOD_clean_sbu_1, # of connection points: 6
#     Node 11, Type 1, BuildingBlock: VOLQOD_clean_sbu_1, # of connection points: 6
#     Edge 12, Type (0, 1), BuildingBlock: MIFKUJ_clean_linker_0, # of connection points: 2
#     Edge 13, Type (0, 1), BuildingBlock: MIFKUJ_clean_linker_0, # of connection points: 2
#     Edge 14, Type (0, 1), BuildingBlock: MIFKUJ_clean_linker_0, # of connection points: 2
#     Edge 15, Type (0, 1), BuildingBlock: MIFKUJ_clean_linker_0, # of connection points: 2
#     Edge 16, Type (0, 1), BuildingBlock: MIFKUJ_clean_linker_0, # of connection points: 2
#     Edge 17, Type (0, 1), BuildingBlock: MIFKUJ_clean_linker_0, # of connection points: 2
#     Edge 18, Type (0, 1), BuildingBlock: MIFKUJ_clean_linker_0, # of connection points: 2
#     Edge 19, Type (0, 1), BuildingBlock: MIFKUJ_clean_linker_0, # of connection points: 2
#     Edge 20, Type (0, 1), BuildingBlock: MIFKUJ_clean_linker_0, # of connection points: 2
#     Edge 21, Type (0, 1), BuildingBlock: MIFKUJ_clean_linker_0, # of connection points: 2
#     Edge 22, Type (0, 1), BuildingBlock: MIFKUJ_clean_linker_0, # of connection points: 2
#     Edge 23, Type (0, 1), BuildingBlock: MIFKUJ_clean_linker_0, # of connection points: 2
#     Edge 24, Type (0, 1), BuildingBlock: MIFKUJ_clean_linker_0, # of connection points: 2
#     Edge 25, Type (0, 1), BuildingBlock: MIFKUJ_clean_linker_0, # of connection points: 2
#     Edge 26, Type (0, 1), BuildingBlock: MIFKUJ_clean_linker_0, # of connection points: 2
#     Edge 27, Type (0, 1), BuildingBlock: MIFKUJ_clean_linker_0, # of connection points: 2
#     Edge 28, Type (0, 1), BuildingBlock: MIFKUJ_clean_linker_0, # of connection points: 2
#     Edge 29, Type (0, 1), BuildingBlock: MIFKUJ_clean_linker_0, # of connection points: 2
#     Edge 30, Type (0, 1), BuildingBlock: MIFKUJ_clean_linker_0, # of connection points: 2
#     Edge 31, Type (0, 1), BuildingBlock: MIFKUJ_clean_linker_0, # of connection points: 2
#     Edge 32, Type (0, 1), BuildingBlock: MIFKUJ_clean_linker_0, # of connection points: 2
#     Edge 33, Type (0, 1), BuildingBlock: MIFKUJ_clean_linker_0, # of connection points: 2
#     Edge 34, Type (0, 1), BuildingBlock: MIFKUJ_clean_linker_0, # of connection points: 2
#     Edge 35, Type (0, 1), BuildingBlock: MIFKUJ_clean_linker_0, # of connection points: 2
# Relax obj value: 0.035
# Max RMSD: 0.119
# Mean RMSD: 0.044
data_MOF--net-pry--node1-VOLQOD_clean_sbu_1--node2-MIDCAF_clean_linker_0--edge1-MIFKUJ_clean_linker_0
_symmetry_space_group_name_H-M    P1
_symmetry_Int_Tables_number       1
_symmetry_cell_setting            triclinic
loop_
_symmetry_equiv_pos_as_xyz
'x, y, z'
_cell_length_a     55.94793
_cell_length_b     55.982902
_cell_length_c     56.235276
_cell_angle_alpha  90.024612
_cell_angle_beta   90.126498
_cell_angle_gamma 90.192306
loop_
_atom_site_label
_atom_site_type_symbol
_atom_site_fract_x
_atom_site_fract_y
_atom_site_fract_z
_atom_type_partial_charge
C0 C 0.08984 0.13011 0.21755 0.0
C1 C 0.09692 0.10748 0.22566 0.0
C2 C 0.11322 0.09422 0.21209 0.0
C3 C 0.12255 0.10355 0.19101 0.0
H4 H 0.18531 0.10279 0.151 0.0
H5 H 0.22261 0.0873 0.13492 0.0
H6 H 0.2126 0.1293 0.07133 0.0
H7 H 0.17524 0.14482 0.08725 0.0
H8 H 0.13641 0.18541 0.08734 0.0
H9 H 0.12081 0.22208 0.07029 0.0
H10 H 0.0766 0.23237 0.13235 0.0
H11 H 0.0917 0.1953 0.14919 0.0
H12 H 0.09322 0.15692 0.19067 0.0
H13 H 0.07716 0.14064 0.22758 0.0
H14 H 0.11915 0.07681 0.21804 0.0
H15 H 0.13526 0.09293 0.18111 0.0
N16 N 0.1455 0.12626 0.15079 0.0
N17 N 0.1452 0.15514 0.12066 0.0
N18 N 0.11616 0.15609 0.15062 0.0
C19 C 0.15527 0.13555 0.13072 0.0
C20 C 0.12566 0.16553 0.13047 0.0
C21 C 0.12589 0.13636 0.16081 0.0
C22 C 0.17728 0.12514 0.12046 0.0
C23 C 0.19093 0.10864 0.13352 0.0
C24 C 0.21238 0.09986 0.1244 0.0
C25 C 0.22054 0.10719 0.10194 0.0
C26 C 0.20666 0.12323 0.08863 0.0
C27 C 0.18532 0.1322 0.09784 0.0
C28 C 0.11541 0.1874 0.11972 0.0
C29 C 0.12329 0.1954 0.09736 0.0
C30 C 0.11443 0.21653 0.08761 0.0
C31 C 0.09757 0.23028 0.10001 0.0
C32 C 0.08937 0.22208 0.12218 0.0
C33 C 0.09813 0.20085 0.1319 0.0
C34 C 0.1156 0.12627 0.18291 0.0
C35 C 0.09897 0.13936 0.19633 0.0
C36 C 0.31285 0.91917 0.61799 0.0
C37 C 0.29983 0.90658 0.60063 0.0
C38 C 0.30834 0.88434 0.59284 0.0
C39 C 0.32923 0.87471 0.60245 0.0
H40 H 0.37675 0.82052 0.59363 0.0
H41 H 0.39127 0.78254 0.57873 0.0
H42 H 0.44201 0.77902 0.63663 0.0
H43 H 0.42787 0.81738 0.65135 0.0
H44 H 0.43376 0.86287 0.68515 0.0
H45 H 0.45054 0.88054 0.7211 0.0
H46 H 0.3941 0.93302 0.72155 0.0
H47 H 0.37766 0.91585 0.68536 0.0
H48 H 0.34307 0.91954 0.64132 0.0
H49 H 0.30661 0.93626 0.62449 0.0
H50 H 0.29882 0.87437 0.57926 0.0
H51 H 0.33511 0.85743 0.59614 0.0
N52 N 0.37255 0.85548 0.62267 0.0
N53 N 0.40221 0.85577 0.65218 0.0
N54 N 0.37412 0.88672 0.65034 0.0
C55 C 0.39187 0.84511 0.63301 0.0
C56 C 0.39345 0.87662 0.66094 0.0
C57 C 0.36358 0.8763 0.63118 0.0
C58 C 0.40109 0.82209 0.62376 0.0
C59 C 0.39103 0.81174 0.60323 0.0
C60 C 0.39926 0.78983 0.59473 0.0
C61 C 0.41771 0.77765 0.60655 0.0
C62 C 0.42793 0.78805 0.62696 0.0
C63 C 0.41973 0.81002 0.63546 0.0
C64 C 0.40427 0.88784 0.68233 0.0
C65 C 0.42497 0.87826 0.69282 0.0
C66 C 0.43455 0.88832 0.71352 0.0
C67 C 0.42364 0.90816 0.72427 0.0
C68 C 0.40318 0.91797 0.71358 0.0
C69 C 0.39364 0.90797 0.69285 0.0
C70 C 0.34203 0.88705 0.6202 0.0
C71 C 0.33368 0.90949 0.62773 0.0
C72 C 0.60053 0.3244 0.94742 0.0
C73 C 0.58424 0.30984 0.93493 0.0
C74 C 0.57568 0.31771 0.91276 0.0
C75 C 0.58364 0.33927 0.90304 0.0
H76 H 0.56679 0.39263 0.85296 0.0
H77 H 0.5508 0.40582 0.81488 0.0
H78 H 0.61574 0.44571 0.8018 0.0
H79 H 0.63132 0.43328 0.84015 0.0
H80 H 0.66978 0.43729 0.87976 0.0
H81 H 0.70773 0.45313 0.89374 0.0
H82 H 0.70038 0.41296 0.95894 0.0
H83 H 0.66267 0.39644 0.94463 0.0
H84 H 0.6215 0.35642 0.94757 0.0
H85 H 0.60716 0.31914 0.96473 0.0
H86 H 0.5634 0.30684 0.90246 0.0
H87 H 0.57705 0.34442 0.88567 0.0
N88 N 0.60071 0.38394 0.88356 0.0
N89 N 0.63067 0.4132 0.88144 0.0
N90 N 0.63052 0.38575 0.9129 0.0
C91 C 0.61061 0.403 0.87229 0.0
C92 C 0.64069 0.40478 0.90179 0.0
C93 C 0.61054 0.3752 0.90388 0.0
C94 C 0.60038 0.41181 0.84961 0.0
C95 C 0.5776 0.40434 0.84203 0.0
C96 C 0.56847 0.41182 0.82012 0.0
C97 C 0.582 0.42676 0.80516 0.0
C98 C 0.60462 0.43454 0.81297 0.0
C99 C 0.61365 0.42725 0.83496 0.0
C100 C 0.66315 0.41548 0.91101 0.0
C101 C 0.67613 0.43189 0.89715 0.0
C102 C 0.6979 0.44112 0.90524 0.0
C103 C 0.70718 0.43433 0.92747 0.0
C104 C 0.69397 0.41828 0.94155 0.0
C105 C 0.67225 0.4089 0.93339 0.0
C106 C 0.60055 0.35341 0.91516 0.0
C107 C 0.60865 0.34588 0.93761 0.0
C108 C 0.82147 0.5939 0.44423 0.0
C109 C 0.80818 0.5777 0.43032 0.0
C110 C 0.81674 0.57159 0.40765 0.0
C111 C 0.83787 0.5816 0.39897 0.0
H112 H 0.88176 0.57927 0.3421 0.0
H113 H 0.89615 0.56698 0.30327 0.0
H114 H 0.95692 0.61425 0.3108 0.0
H115 H 0.94218 0.62712 0.34942 0.0
H116 H 0.93396 0.6717 0.3849 0.0
H117 H 0.94837 0.70886 0.40193 0.0
H118 H 0.90824 0.69479 0.46604 0.0
H119 H 0.89306 0.65787 0.4486 0.0
H120 H 0.85223 0.61665 0.44658 0.0
H121 H 0.8156 0.59875 0.46192 0.0
H122 H 0.80679 0.55952 0.39625 0.0
H123 H 0.84363 0.57669 0.38127 0.0
N124 N 0.88195 0.60179 0.38191 0.0
N125 N 0.91113 0.63183 0.3832 0.0
N126 N 0.8828 0.62882 0.41376 0.0
C127 C 0.90125 0.61266 0.37206 0.0
C128 C 0.90206 0.64002 0.40406 0.0
C129 C 0.87265 0.60966 0.40277 0.0
C130 C 0.91072 0.6043 0.34891 0.0
C131 C 0.89826 0.587 0.33558 0.0
C132 C 0.9066 0.57982 0.31332 0.0
C133 C 0.92769 0.58964 0.30387 0.0
C134 C 0.94041 0.6066 0.31738 0.0
C135 C 0.932 0.6139 0.3396 0.0
C136 C 0.91221 0.66179 0.4153 0.0
C137 C 0.9283 0.67637 0.40271 0.0
C138 C 0.93673 0.6977 0.41257 0.0
C139 C 0.92949 0.70492 0.43539 0.0
C140 C 0.91389 0.69001 0.44826 0.0
C141 C 0.90527 0.66875 0.4383 0.0
C142 C 0.85091 0.59817 0.41266 0.0
C143 C 0.84256 0.60408 0.43547 0.0
C144 C 0.8352 0.96822 0.93145 0.0
C145 C 0.82545 0.95835 0.95223 0.0
C146 C 0.83925 0.94245 0.96577 0.0
C147 C 0.86196 0.93563 0.95803 0.0
H148 H 0.90826 0.87854 0.96361 0.0
H149 H 0.92091 0.83831 0.97442 0.0
H150 H 0.97264 0.83919 0.91757 0.0
H151 H 0.96004 0.87919 0.90655 0.0
H152 H 0.95268 0.91432 0.86469 0.0
H153 H 0.96441 0.92875 0.82582 0.0
H154 H 0.92805 0.99544 0.83929 0.0
H155 H 0.91534 0.98046 0.87795 0.0
H156 H 0.86463 0.96913 0.90737 0.0
H157 H 0.82501 0.98074 0.92084 0.0
H158 H 0.8321 0.93451 0.98183 0.0
H159 H 0.87184 0.92272 0.96846 0.0
N160 N 0.90396 0.91524 0.93591 0.0
N161 N 0.93308 0.91585 0.90604 0.0
N162 N 0.90402 0.94581 0.90739 0.0
C163 C 0.92353 0.90534 0.9256 0.0
C164 C 0.92356 0.93614 0.89691 0.0
C165 C 0.89414 0.93552 0.92694 0.0
C166 C 0.93291 0.88208 0.93402 0.0
C167 C 0.92251 0.87029 0.95355 0.0
C168 C 0.92981 0.84727 0.95983 0.0
C169 C 0.94757 0.83554 0.94667 0.0
C170 C 0.95863 0.84766 0.92779 0.0
C171 C 0.95144 0.87067 0.92157 0.0
C172 C 0.93289 0.94616 0.87439 0.0
C173 C 0.94737 0.93218 0.85952 0.0
C174 C 0.95425 0.94055 0.83719 0.0
C175 C 0.94713 0.96328 0.82927 0.0
C176 C 0.93347 0.97766 0.84458 0.0
C177 C 0.9263 0.96914 0.86682 0.0
C178 C 0.87139 0.94478 0.9367 0.0
C179 C 0.85797 0.96163 0.92383 0.0
C180 C 0.59456 0.03921 0.34099 0.0
C181 C 0.5739 0.04793 0.32979 0.0
C182 C 0.55932 0.06416 0.34205 0.0
C183 C 0.56585 0.07234 0.36463 0.0
H184 H 0.55867 0.1322 0.40452 0.0
H185 H 0.54473 0.17193 0.41502 0.0
H186 H 0.58981 0.17151 0.4774 0.0
H187 H 0.60389 0.13161 0.46703 0.0
H188 H 0.64412 0.09008 0.47172 0.0
H189 H 0.68329 0.07898 0.4871 0.0
H190 H 0.69519 0.03534 0.42482 0.0
H191 H 0.65588 0.04562 0.40998 0.0
H192 H 0.6174 0.0406 0.37146 0.0
H193 H 0.60598 0.02647 0.33205 0.0
H194 H 0.54338 0.07131 0.33377 0.0
H195 H 0.55457 0.08541 0.37326 0.0
N196 N 0.58455 0.09474 0.40707 0.0
N197 N 0.61298 0.09693 0.43769 0.0
N198 N 0.6152 0.06645 0.40918 0.0
C199 C 0.59317 0.1058 0.42683 0.0
C200 C 0.62405 0.0772 0.42901 0.0
C201 C 0.59536 0.07499 0.3982 0.0
C202 C 0.58263 0.12872 0.4348 0.0
C203 C 0.56546 0.14035 0.42065 0.0
C204 C 0.55753 0.1632 0.42657 0.0
C205 C 0.56637 0.17486 0.44687 0.0
C206 C 0.58264 0.16287 0.46167 0.0
C207 C 0.59077 0.14006 0.45565 0.0
C208 C 0.64686 0.06888 0.43954 0.0
C209 C 0.65499 0.07789 0.46146 0.0
C210 C 0.67753 0.07163 0.47021 0.0
C211 C 0.69255 0.05639 0.45715 0.0
C212 C 0.68405 0.04682 0.43559 0.0
C213 C 0.66146 0.05287 0.42698 0.0
C214 C 0.58704 0.06436 0.37549 0.0
C215 C 0.60102 0.04725 0.36364 0.0
C216 C 0.32898 0.56553 0.09569 0.0
C217 C 0.31994 0.57402 0.07398 0.0
C218 C 0.33451 0.58844 0.05958 0.0
C219 C 0.35734 0.59513 0.06725 0.0
H220 H 0.39601 0.65834 0.07016 0.0
H221 H 0.40924 0.69822 0.05884 0.0
H222 H 0.47472 0.68828 0.09828 0.0
H223 H 0.46158 0.64827 0.10975 0.0
H224 H 0.44787 0.6164 0.16086 0.0
H225 H 0.46203 0.59949 0.19798 0.0
H226 H 0.43238 0.53085 0.17803 0.0
H227 H 0.41703 0.54829 0.1414 0.0
H228 H 0.35817 0.56554 0.12031 0.0
H229 H 0.31813 0.55423 0.10701 0.0
H230 H 0.32788 0.5953 0.04281 0.0
H231 H 0.36788 0.60686 0.05607 0.0
N232 N 0.39859 0.61698 0.08989 0.0
N233 N 0.42944 0.61554 0.1181 0.0
N234 N 0.40023 0.58537 0.11716 0.0
C235 C 0.41871 0.62667 0.09948 0.0
C236 C 0.4204 0.59481 0.12693 0.0
C237 C 0.38927 0.59633 0.09857 0.0
C238 C 0.42766 0.65011 0.09101 0.0
C239 C 0.41333 0.66448 0.07628 0.0
C240 C 0.42082 0.6874 0.06988 0.0
C241 C 0.4429 0.69636 0.07783 0.0
C242 C 0.45764 0.68175 0.09184 0.0
C243 C 0.45005 0.65889 0.09848 0.0
C244 C 0.43117 0.58373 0.14827 0.0
C245 C 0.44457 0.59763 0.16429 0.0
C246 C 0.45285 0.58784 0.18558 0.0
C247 C 0.44833 0.56374 0.19122 0.0
C248 C 0.43576 0.54959 0.17464 0.0
C249 C 0.42708 0.55954 0.15353 0.0
C250 C 0.36617 0.58724 0.08932 0.0
C251 C 0.35195 0.57191 0.1032 0.0
C252 C 0.08483 0.33073 0.56539 0.0
C253 C 0.06542 0.32066 0.57768 0.0
C254 C 0.05462 0.33391 0.59595 0.0
C255 C 0.06364 0.3563 0.60241 0.0
H256 H 0.055 0.411 0.65108 0.0
H257 H 0.04223 0.42722 0.68925 0.0
H258 H 0.10686 0.46937 0.69323 0.0
H259 H 0.1198 0.4532 0.65521 0.0
H260 H 0.16011 0.44572 0.61869 0.0
H261 H 0.19974 0.45585 0.60388 0.0
H262 H 0.18671 0.41371 0.54086 0.0
H263 H 0.14695 0.40336 0.55562 0.0
H264 H 0.1093 0.35995 0.56242 0.0
H265 H 0.0937 0.3209 0.55137 0.0
H266 H 0.0394 0.32679 0.60551 0.0
H267 H 0.0552 0.36572 0.61696 0.0
N268 N 0.08607 0.39984 0.61877 0.0
N269 N 0.11798 0.42703 0.6178 0.0
N270 N 0.1155 0.39655 0.58933 0.0
C271 C 0.09741 0.41924 0.62801 0.0
C272 C 0.12707 0.4159 0.59838 0.0
C273 C 0.09497 0.38839 0.5994 0.0
C274 C 0.08854 0.43061 0.65011 0.0
C275 C 0.06643 0.42387 0.65996 0.0
C276 C 0.05901 0.43326 0.68177 0.0
C277 C 0.07363 0.44943 0.69426 0.0
C278 C 0.09537 0.45671 0.6841 0.0
C279 C 0.1027 0.4475 0.66224 0.0
C280 C 0.15036 0.42359 0.58842 0.0
C281 C 0.16552 0.43875 0.60156 0.0
C282 C 0.18829 0.44448 0.59317 0.0
C283 C 0.1963 0.43544 0.57132 0.0
C284 C 0.1809 0.42099 0.55773 0.0
C285 C 0.1582 0.41499 0.56626 0.0
C286 C 0.08371 0.36595 0.59079 0.0
C287 C 0.09387 0.35311 0.57185 0.0
O288 O 0.99766 0.06296 0.53766 0.0
Zn289 Zn 0.98494 0.0293 0.53578 0.0
O290 O 0.00594 0.00858 0.51727 0.0
Zn291 Zn 0.9893 0.99736 0.48867 0.0
Zn292 Zn 0.03445 0.02674 0.50848 0.0
Zn293 Zn 0.01517 0.98096 0.53637 0.0
O294 O 0.98853 0.96143 0.48723 0.0
O295 O 0.00245 0.95017 0.52247 0.0
O296 O 0.95209 0.03047 0.52146 0.0
O297 O 0.95483 0.00805 0.48897 0.0
O298 O 0.00513 0.0099 0.4588 0.0
O299 O 0.03603 0.03051 0.47305 0.0
O300 O 0.06463 0.01047 0.5196 0.0
O301 O 0.98189 0.01742 0.56941 0.0
O302 O 0.05091 0.978 0.53775 0.0
O303 O 0.00355 0.98425 0.57007 0.0
C304 C 0.01764 0.0723 0.53202 0.0
C305 C 0.99329 0.94514 0.50231 0.0
C306 C 0.0235 0.02304 0.45563 0.0
C307 C 0.9427 0.02109 0.50303 0.0
C308 C 0.06824 0.99099 0.53074 0.0
C309 C 0.99045 0.99956 0.58052 0.0
O310 O 0.03375 0.06013 0.5217 0.0
O311 O 0.50856 0.05864 0.99284 0.0
Zn312 Zn 0.49411 0.02575 0.99561 0.0
O313 O 0.51315 0.00562 0.01695 0.0
Zn314 Zn 0.52628 0.97862 0.99933 0.0
Zn315 Zn 0.53944 0.02427 0.03055 0.0
Zn316 Zn 0.49283 0.99357 0.04248 0.0
O317 O 0.51694 0.94723 0.01429 0.0
O318 O 0.49057 0.95772 0.04179 0.0
O319 O 0.49155 0.01104 0.9628 0.0
O320 O 0.51325 0.97804 0.96607 0.0
O321 O 0.56225 0.98024 0.9975 0.0
O322 O 0.57127 0.01072 0.02119 0.0
O323 O 0.53821 0.02444 0.06632 0.0
O324 O 0.46065 0.03016 0.00827 0.0
O325 O 0.50592 0.00284 0.07452 0.0
O326 O 0.45971 0.00701 0.04028 0.0
C327 C 0.52585 0.0691 0.00337 0.0
C328 C 0.50185 0.94173 0.03032 0.0
C329 C 0.5776 0.99367 0.00765 0.0
C330 C 0.49994 0.99187 0.95394 0.0
C331 C 0.52393 0.01506 0.08128 0.0
C332 C 0.44955 0.02146 0.02605 0.0
O333 O 0.53875 0.05821 0.01857 0.0
O334 O 0.52913 0.49526 0.55167 0.0
Zn335 Zn 0.52611 0.50839 0.5184 0.0
O336 O 0.50603 0.48775 0.49853 0.0
Zn337 Zn 0.52494 0.47457 0.47237 0.0
Zn338 Zn 0.49326 0.46167 0.51781 0.0
Zn339 Zn 0.47958 0.50648 0.48567 0.0
O340 O 0.51178 0.48506 0.44057 0.0
O341 O 0.48206 0.50949 0.45012 0.0
O342 O 0.55911 0.51151 0.50471 0.0
O343 O 0.55914 0.48629 0.47418 0.0
O344 O 0.52517 0.43853 0.47316 0.0
O345 O 0.50337 0.42976 0.50494 0.0
O346 O 0.45729 0.46234 0.5186 0.0
O347 O 0.5121 0.54127 0.52164 0.0
O348 O 0.44779 0.49151 0.4936 0.0
O349 O 0.47903 0.53951 0.49984 0.0
C350 C 0.51954 0.47757 0.56225 0.0
C351 C 0.49524 0.49947 0.43462 0.0
C352 C 0.51591 0.42326 0.48722 0.0
C353 C 0.56984 0.50132 0.48755 0.0
C354 C 0.44172 0.47469 0.50759 0.0
C355 C 0.49314 0.55087 0.51362 0.0
O356 O 0.50526 0.46353 0.55142 0.0
O357 O 0.98609 0.51449 0.05303 0.0
Zn358 Zn 0.98972 0.50185 0.01956 0.0
O359 O 0.00943 0.52326 0.00016 0.0
Zn360 Zn 0.99035 0.53597 0.97382 0.0
Zn361 Zn 0.02121 0.54956 0.01987 0.0
Zn362 Zn 0.03664 0.50566 0.98743 0.0
O363 O 0.0034 0.5253 0.94211 0.0
O364 O 0.0355 0.50416 0.95172 0.0
O365 O 0.95673 0.49824 0.00556 0.0
O366 O 0.95633 0.52409 0.9756 0.0
O367 O 0.98987 0.57201 0.97431 0.0
O368 O 0.01063 0.5812 0.00679 0.0
O369 O 0.05724 0.54975 0.02182 0.0
O370 O 0.00445 0.46921 0.02203 0.0
O371 O 0.06781 0.52082 0.99702 0.0
O372 O 0.03725 0.47201 5e-05 0.0
C373 C 0.99459 0.53273 0.06368 0.0
C374 C 0.02137 0.51274 0.93616 0.0
C375 C 0.99849 0.58742 0.98866 0.0
C376 C 0.94584 0.50868 0.98861 0.0
C377 C 0.07328 0.53766 0.01126 0.0
C378 C 0.02339 0.46004 0.0135 0.0
O379 O 0.0083 0.54741 0.05304 0.0
H380 H 0.094 0.13079 0.26813 0.0
H381 H 0.08051 0.11468 0.3063 0.0
H382 H 0.06605 0.04668 0.2731 0.0
H383 H 0.0795 0.06272 0.23477 0.0
H384 H 0.02923 0.06324 0.30461 0.0
H385 H 0.11453 0.05095 0.30347 0.0
H386 H 0.15652 0.06357 0.29872 0.0
H387 H 0.14858 0.11396 0.35573 0.0
H388 H 0.10642 0.10188 0.36058 0.0
H389 H 0.01397 9e-05 0.41361 0.0
H390 H 0.0259 0.01254 0.37361 0.0
H391 H 0.0589 0.07591 0.40294 0.0
H392 H 0.04816 0.06289 0.44286 0.0
H393 H 0.08669 0.05939 0.37181 0.0
H394 H 0.00219 0.07491 0.37253 0.0
H395 H 0.95947 0.06511 0.37739 0.0
H396 H 0.96448 0.0125 0.32205 0.0
H397 H 0.00733 0.02179 0.31706 0.0
C398 C 0.08772 0.11248 0.26893 0.0
C399 C 0.08784 0.09797 0.24853 0.0
C400 C 0.08015 0.10329 0.29073 0.0
C401 C 0.07246 0.07947 0.29249 0.0
C402 C 0.07197 0.0651 0.27206 0.0
C403 C 0.07978 0.07422 0.25027 0.0
C404 C 0.0655 0.06948 0.31584 0.0
C405 C 0.04181 0.06206 0.31927 0.0
C406 C 0.08185 0.06852 0.33501 0.0
C407 C 0.10726 0.07565 0.33224 0.0
C408 C 0.12169 0.06485 0.31487 0.0
C409 C 0.14553 0.07189 0.31218 0.0
C410 C 0.1552 0.0896 0.32688 0.0
C411 C 0.14106 0.10026 0.34434 0.0
C412 C 0.1172 0.09331 0.34708 0.0
C413 C 0.02376 0.01667 0.41145 0.0
C414 C 0.03017 0.0305 0.43133 0.0
C415 C 0.03045 0.02386 0.38858 0.0
C416 C 0.04303 0.04538 0.38513 0.0
C417 C 0.0493 0.0592 0.40505 0.0
C418 C 0.04311 0.05176 0.4279 0.0
C419 C 0.05013 0.05347 0.36095 0.0
C420 C 0.07398 0.06047 0.35725 0.0
C421 C 0.03378 0.05443 0.34168 0.0
C422 C 0.00801 0.04887 0.3446 0.0
C423 C 0.99422 0.06114 0.36151 0.0
C424 C 0.96998 0.05569 0.36427 0.0
C425 C 0.95928 0.03815 0.35008 0.0
C426 C 0.9728 0.02606 0.33305 0.0
C427 C 0.99705 0.03142 0.33024 0.0
H428 H 0.94052 0.03395 0.35225 0.0
H429 H 0.17365 0.09502 0.32477 0.0
H430 H 0.4409 0.88356 0.76265 0.0
H431 H 0.4547 0.8997 0.80058 0.0
H432 H 0.44039 0.9712 0.7759 0.0
H433 H 0.4275 0.95523 0.73744 0.0
H434 H 0.48144 0.97004 0.80012 0.0
H435 H 0.40165 0.94303 0.8131 0.0
H436 H 0.36774 0.91481 0.81238 0.0
H437 H 0.4063 0.86681 0.85786 0.0
H438 H 0.44061 0.8946 0.85858 0.0
H439 H 0.48065 0.01984 0.91878 0.0
H440 H 0.46864 0.00734 0.87866 0.0
H441 H 0.49182 0.93556 0.8938 0.0
H442 H 0.50414 0.94785 0.93366 0.0
H443 H 0.44483 0.93913 0.87434 0.0
H444 H 0.52523 0.96708 0.85988 0.0
H445 H 0.558 0.99662 0.8608 0.0
H446 H 0.5162 0.04479 0.81846 0.0
H447 H 0.48301 0.01565 0.81758 0.0
C448 C 0.44104 0.90274 0.7651 0.0
C449 C 0.43298 0.91809 0.747 0.0
C450 C 0.44869 0.91193 0.78691 0.0
C451 C 0.44818 0.93663 0.79123 0.0
C452 C 0.44078 0.95207 0.77301 0.0
C453 C 0.43322 0.94289 0.75112 0.0
C454 C 0.45502 0.94622 0.81489 0.0
C455 C 0.47319 0.96353 0.81632 0.0
C456 C 0.4444 0.93759 0.83606 0.0
C457 C 0.42379 0.92081 0.83571 0.0
C458 C 0.40298 0.92637 0.82279 0.0
C459 C 0.38367 0.91046 0.82241 0.0
C460 C 0.38489 0.889 0.83502 0.0
C461 C 0.4054 0.88342 0.84808 0.0
C462 C 0.42477 0.89926 0.8485 0.0
C463 C 0.4833 0.00143 0.91351 0.0
C464 C 0.49336 0.98485 0.9294 0.0
C465 C 0.47649 0.99436 0.8906 0.0
C466 C 0.4794 0.97055 0.88335 0.0
C467 C 0.48944 0.95401 0.89912 0.0
C468 C 0.49656 0.96111 0.92185 0.0
C469 C 0.47143 0.96261 0.85952 0.0
C470 C 0.45298 0.94566 0.85809 0.0
C471 C 0.4816 0.97179 0.8384 0.0
C472 C 0.50153 0.9893 0.8389 0.0
C473 C 0.52293 0.98407 0.85096 0.0
C474 C 0.5416 0.00072 0.85144 0.0
C475 C 0.53916 0.0226 0.83976 0.0
C476 C 0.51805 0.02785 0.82753 0.0
C477 C 0.49931 0.01127 0.82703 0.0
H478 H 0.55364 0.03547 0.84014 0.0
H479 H 0.36991 0.87671 0.83471 0.0
H480 H 0.5568 0.39889 0.77376 0.0
H481 H 0.54421 0.40895 0.7335 0.0
H482 H 0.57555 0.47906 0.74104 0.0
H483 H 0.58701 0.46964 0.78192 0.0
H484 H 0.53473 0.482 0.71741 0.0
H485 H 0.605 0.43366 0.71186 0.0
H486 H 0.63036 0.39854 0.71953 0.0
H487 H 0.5784 0.35313 0.68577 0.0
H488 H 0.55256 0.38796 0.67819 0.0
H489 H 0.54459 0.50632 0.59299 0.0
H490 H 0.55365 0.4987 0.63488 0.0
H491 H 0.51615 0.43139 0.63084 0.0
H492 H 0.50702 0.43876 0.58901 0.0
H493 H 0.56025 0.42772 0.65253 0.0
H494 H 0.49038 0.47743 0.6576 0.0
H495 H 0.46649 0.51337 0.64907 0.0
H496 H 0.51967 0.55727 0.68293 0.0
H497 H 0.54406 0.5216 0.69135 0.0
C498 C 0.5606 0.41664 0.76711 0.0
C499 C 0.5731 0.43339 0.7811 0.0
C500 C 0.55364 0.42226 0.74393 0.0
C501 C 0.55939 0.44458 0.73407 0.0
C502 C 0.57109 0.46166 0.74822 0.0
C503 C 0.57785 0.45614 0.77151 0.0
C504 C 0.55385 0.44979 0.70878 0.0
C505 C 0.54056 0.47029 0.70321 0.0
C506 C 0.5612 0.43435 0.69024 0.0
C507 C 0.57675 0.41339 0.69467 0.0
C508 C 0.5989 0.41616 0.70623 0.0
C509 C 0.61337 0.39631 0.71054 0.0
C510 C 0.60596 0.37361 0.7032 0.0
C511 C 0.5841 0.37072 0.69147 0.0
C512 C 0.56954 0.39051 0.68715 0.0
C513 C 0.53824 0.48989 0.601 0.0
C514 C 0.52505 0.47315 0.58763 0.0
C515 C 0.54335 0.48563 0.62496 0.0
C516 C 0.5354 0.46457 0.63596 0.0
C517 C 0.5224 0.44777 0.62266 0.0
C518 C 0.51716 0.45206 0.59876 0.0
C519 C 0.54102 0.45977 0.66124 0.0
C520 C 0.5544 0.43939 0.66677 0.0
C521 C 0.53395 0.47543 0.67966 0.0
C522 C 0.51915 0.49686 0.6749 0.0
C523 C 0.49706 0.49476 0.66307 0.0
C524 C 0.48342 0.51508 0.65828 0.0
C525 C 0.49158 0.5376 0.6654 0.0
C526 C 0.51338 0.53982 0.6774 0.0
C527 C 0.52711 0.51956 0.6822 0.0
H528 H 0.481 0.55331 0.66165 0.0
H529 H 0.61719 0.35827 0.70655 0.0
H530 H 0.92691 0.54514 0.28337 0.0
H531 H 0.9385 0.53437 0.24293 0.0
H532 H 0.95955 0.60734 0.22953 0.0
H533 H 0.94692 0.61849 0.26952 0.0
H534 H 0.9343 0.59093 0.19367 0.0
H535 H 0.00101 0.56237 0.23895 0.0
H536 H 0.02138 0.53968 0.27058 0.0
H537 H 0.99366 0.47406 0.24195 0.0
H538 H 0.97284 0.49641 0.21031 0.0
H539 H 0.00231 0.57349 0.08931 0.0
H540 H 0.99096 0.58151 0.13041 0.0
H541 H 0.96111 0.51065 0.13624 0.0
H542 H 0.97232 0.5024 0.09494 0.0
H543 H 0.99002 0.52462 0.17558 0.0
H544 H 0.92405 0.55422 0.12955 0.0
H545 H 0.90505 0.57765 0.09761 0.0
H546 H 0.93314 0.64241 0.12779 0.0
H547 H 0.95262 0.61932 0.15973 0.0
C548 C 0.93387 0.55894 0.27179 0.0
C549 C 0.93597 0.5827 0.27973 0.0
C550 C 0.94075 0.55269 0.24874 0.0
C551 C 0.95014 0.56999 0.23326 0.0
C552 C 0.95241 0.59367 0.24118 0.0
C553 C 0.9454 0.59997 0.26416 0.0
C554 C 0.95691 0.56363 0.20856 0.0
C555 C 0.94674 0.57663 0.18978 0.0
C556 C 0.97268 0.54458 0.2034 0.0
C557 C 0.98516 0.53109 0.22241 0.0
C558 C 0.99909 0.54312 0.23951 0.0
C559 C 0.01075 0.53032 0.25742 0.0
C560 C 0.00876 0.50545 0.25831 0.0
C561 C 0.99515 0.49333 0.24126 0.0
C562 C 0.98343 0.50605 0.22332 0.0
C563 C 0.9934 0.55954 0.09929 0.0
C564 C 0.98815 0.53731 0.08879 0.0
C565 C 0.98687 0.5642 0.12277 0.0
C566 C 0.97506 0.54673 0.13624 0.0
C567 C 0.9702 0.52436 0.12606 0.0
C568 C 0.97653 0.51973 0.10246 0.0
C569 C 0.96757 0.55207 0.16089 0.0
C570 C 0.97757 0.53887 0.17959 0.0
C571 C 0.95179 0.57106 0.16601 0.0
C572 C 0.93998 0.58501 0.1469 0.0
C573 C 0.92635 0.57344 0.12926 0.0
C574 C 0.91546 0.58666 0.11118 0.0
C575 C 0.91794 0.6115 0.11064 0.0
C576 C 0.93126 0.62317 0.12822 0.0
C577 C 0.94221 0.61002 0.14633 0.0
H578 H 0.90949 0.62171 0.09662 0.0
H579 H 0.0178 0.49557 0.27219 0.0
H580 H 0.23031 0.09031 0.05737 0.0
H581 H 0.26874 0.07589 0.04228 0.0
H582 H 0.30135 0.09018 0.11041 0.0
H583 H 0.26308 0.10474 0.12554 0.0
H584 H 0.32905 0.10589 0.07242 0.0
H585 H 0.28688 0.03506 0.09752 0.0
H586 H 0.25287 0.00694 0.09834 0.0
H587 H 0.2604 0.99477 0.02334 0.0
H588 H 0.29427 0.0231 0.02202 0.0
H589 H 0.41904 0.00349 0.0595 0.0
H590 H 0.37933 0.01802 0.06983 0.0
H591 H 0.38395 0.07106 0.01442 0.0
H592 H 0.42385 0.05674 0.00397 0.0
H593 H 0.33736 0.02201 0.04509 0.0
H594 H 0.35814 0.12239 0.03653 0.0
H595 H 0.39288 0.14965 0.03808 0.0
H596 H 0.42939 0.10119 0.08474 0.0
H597 H 0.39477 0.07382 0.08371 0.0
C598 C 0.24573 0.09049 0.06906 0.0
C599 C 0.24371 0.09852 0.09266 0.0
C600 C 0.2676 0.08218 0.06046 0.0
C601 C 0.28781 0.0819 0.07528 0.0
C602 C 0.28594 0.09027 0.09871 0.0
C603 C 0.26405 0.09838 0.10738 0.0
C604 C 0.31086 0.07242 0.06658 0.0
C605 C 0.33086 0.0876 0.06631 0.0
C606 C 0.31321 0.04849 0.05885 0.0
C607 C 0.29293 0.03139 0.05963 0.0
C608 C 0.28115 0.02654 0.08117 0.0
C609 C 0.26193 0.01054 0.08173 0.0
C610 C 0.25443 0.99913 0.06089 0.0
C611 C 0.2662 0.00365 0.03946 0.0
C612 C 0.28542 0.01967 0.03879 0.0
C613 C 0.4116 0.01815 0.04936 0.0
C614 C 0.42473 0.02907 0.03101 0.0
C615 C 0.38884 0.02635 0.05524 0.0
C616 C 0.37882 0.04573 0.04304 0.0
C617 C 0.3915 0.05622 0.02421 0.0
C618 C 0.41426 0.04796 0.01823 0.0
C619 C 0.35554 0.05552 0.05079 0.0
C620 C 0.3355 0.04039 0.0509 0.0
C621 C 0.35323 0.07941 0.05866 0.0
C622 C 0.37396 0.09595 0.05981 0.0
C623 C 0.37355 0.11761 0.04718 0.0
C624 C 0.39322 0.13307 0.04796 0.0
C625 C 0.41336 0.12711 0.06143 0.0
C626 C 0.41382 0.10574 0.07424 0.0
C627 C 0.39419 0.09023 0.07354 0.0
H628 H 0.42859 0.13908 0.06198 0.0
H629 H 0.23955 0.98674 0.06136 0.0
H630 H 0.25781 0.88271 0.59381 0.0
H631 H 0.22001 0.89868 0.57915 0.0
H632 H 0.25247 0.96829 0.57152 0.0
H633 H 0.29038 0.95239 0.58647 0.0
H634 H 0.21015 0.97211 0.59177 0.0
H635 H 0.24001 0.93301 0.52269 0.0
H636 H 0.25704 0.90003 0.4992 0.0
H637 H 0.19512 0.85694 0.51364 0.0
H638 H 0.17786 0.88955 0.53752 0.0
H639 H 0.10952 0.01725 0.52706 0.0
H640 H 0.15024 0.00436 0.53655 0.0
H641 H 0.12368 0.93445 0.5552 0.0
H642 H 0.083 0.94711 0.54589 0.0
H643 H 0.16452 0.93325 0.52653 0.0
H644 H 0.13653 0.97198 0.59801 0.0
H645 H 0.11977 0.00538 0.62113 0.0
H646 H 0.17894 0.04994 0.60088 0.0
H647 H 0.19588 0.01687 0.57735 0.0
C648 C 0.25698 0.90135 0.58874 0.0
C649 C 0.27708 0.91627 0.59116 0.0
C650 C 0.23537 0.91046 0.58034 0.0
C651 C 0.23349 0.93461 0.57388 0.0
C652 C 0.25352 0.94959 0.57635 0.0
C653 C 0.27513 0.94051 0.58493 0.0
C654 C 0.21038 0.94428 0.56526 0.0
C655 C 0.2004 0.96388 0.5772 0.0
C656 C 0.19746 0.93333 0.54649 0.0
C657 C 0.20773 0.91368 0.53206 0.0
C658 C 0.2301 0.91644 0.52101 0.0
C659 C 0.23978 0.89782 0.5076 0.0
C660 C 0.22719 0.87638 0.50497 0.0
C661 C 0.20486 0.87355 0.5157 0.0
C662 C 0.19511 0.89211 0.52916 0.0
C663 C 0.11235 0.9991 0.5331 0.0
C664 C 0.093 0.98324 0.53582 0.0
C665 C 0.1356 0.99181 0.53856 0.0
C666 C 0.13989 0.96851 0.54668 0.0
C667 C 0.12071 0.95251 0.54894 0.0
C668 C 0.09746 0.95983 0.54372 0.0
C669 C 0.1643 0.96079 0.55324 0.0
C670 C 0.17447 0.94158 0.54091 0.0
C671 C 0.17746 0.97218 0.57153 0.0
C672 C 0.16732 0.99205 0.5857 0.0
C673 C 0.14585 0.98897 0.59831 0.0
C674 C 0.13634 0.00782 0.61153 0.0
C675 C 0.14824 0.02979 0.61241 0.0
C676 C 0.16971 0.03293 0.60014 0.0
C677 C 0.17928 0.01413 0.58687 0.0
H678 H 0.14085 0.04437 0.62266 0.0
H679 H 0.23472 0.86198 0.49458 0.0
H680 H 0.74227 0.40991 0.95122 0.0
H681 H 0.78165 0.42453 0.96326 0.0
H682 H 0.76561 0.49359 0.93341 0.0
H683 H 0.72588 0.47936 0.92185 0.0
H684 H 0.80985 0.47577 0.91935 0.0
H685 H 0.76583 0.48755 0.99175 0.0
H686 H 0.73964 0.47535 0.02483 0.0
H687 H 0.79058 0.42219 0.04597 0.0
H688 H 0.81693 0.43384 0.0128 0.0
H689 H 0.91317 0.53434 0.96307 0.0
H690 H 0.87177 0.52351 0.9542 0.0
H691 H 0.88036 0.45768 0.99318 0.0
H692 H 0.92145 0.46888 0.00292 0.0
H693 H 0.83892 0.47526 0.00277 0.0
H694 H 0.88195 0.46085 0.93045 0.0
H695 H 0.90841 0.47089 0.89686 0.0
H696 H 0.86004 0.52604 0.87483 0.0
H697 H 0.83343 0.51653 0.90848 0.0
C698 C 0.74689 0.42834 0.94758 0.0
C699 C 0.73084 0.44346 0.93558 0.0
C700 C 0.76947 0.43663 0.95438 0.0
C701 C 0.77647 0.46016 0.94931 0.0
C702 C 0.76054 0.47534 0.93742 0.0
C703 C 0.73789 0.46712 0.93074 0.0
C704 C 0.80069 0.46871 0.95584 0.0
C705 C 0.81614 0.47603 0.93762 0.0
C706 C 0.80901 0.46836 0.9796 0.0
C707 C 0.79325 0.46143 -0.00034 0.0
C708 C 0.77136 0.47313 0.00334 0.0
C709 C 0.7565 0.46634 0.02213 0.0
C710 C 0.76342 0.44797 0.03746 0.0
C711 C 0.78524 0.4364 0.03407 0.0
C712 C 0.80015 0.44311 0.01529 0.0
C713 C 0.90622 0.51758 0.96978 0.0
C714 C 0.92062 0.50241 0.98359 0.0
C715 C 0.88257 0.51135 0.96461 0.0
C716 C 0.87303 0.48955 0.97263 0.0
C717 C 0.88729 0.47457 0.98675 0.0
C718 C 0.91081 0.48098 0.99227 0.0
C719 C 0.84828 0.48224 0.96625 0.0
C720 C 0.83269 0.47512 0.98449 0.0
C721 C 0.83992 0.48246 0.94244 0.0
C722 C 0.85583 0.48813 0.92212 0.0
C723 C 0.87704 0.47523 0.91853 0.0
C724 C 0.89205 0.48081 0.89947 0.0
C725 C 0.88594 0.49914 0.88376 0.0
C726 C 0.86477 0.51187 0.88703 0.0
C727 C 0.84971 0.50638 0.90609 0.0
H728 H 0.89759 0.50343 0.86901 0.0
H729 H 0.75189 0.44273 0.052 0.0
H730 H 0.7904 0.53233 0.42429 0.0
H731 H 0.75094 0.5173 0.43551 0.0
H732 H 0.73428 0.58519 0.46754 0.0
H733 H 0.77339 0.60069 0.45578 0.0
H734 H 0.72042 0.54522 0.49525 0.0
H735 H 0.71354 0.57426 0.41449 0.0
H736 H 0.72488 0.57637 0.37219 0.0
H737 H 0.71013 0.50147 0.36418 0.0
H738 H 0.69904 0.49885 0.40656 0.0
H739 H 0.59494 0.53985 0.50398 0.0
H740 H 0.6364 0.55039 0.49573 0.0
H741 H 0.64388 0.48679 0.45301 0.0
H742 H 0.60202 0.4766 0.46046 0.0
H743 H 0.66375 0.52209 0.43119 0.0
H744 H 0.66876 0.4923 0.51049 0.0
H745 H 0.65818 0.48869 0.55288 0.0
H746 H 0.67738 0.56215 0.56423 0.0
H747 H 0.68777 0.5663 0.52183 0.0
C748 C 0.77833 0.54414 0.43363 0.0
C749 C 0.78504 0.56782 0.43894 0.0
C750 C 0.75585 0.53545 0.44013 0.0
C751 C 0.73967 0.55022 0.45216 0.0
C752 C 0.74657 0.57352 0.4583 0.0
C753 C 0.76899 0.5823 0.45165 0.0
C754 C 0.71519 0.54171 0.4575 0.0
C755 C 0.7079 0.54035 0.4813 0.0
C756 C 0.6992 0.53471 0.43926 0.0
C757 C 0.70571 0.53631 0.41375 0.0
C758 C 0.71291 0.5582 0.40376 0.0
C759 C 0.71925 0.5595 0.37976 0.0
C760 C 0.71829 0.53905 0.36553 0.0
C761 C 0.71091 0.51728 0.37524 0.0
C762 C 0.70458 0.51589 0.39924 0.0
C763 C 0.60542 0.52802 0.49291 0.0
C764 C 0.59519 0.50734 0.48293 0.0
C765 C 0.6292 0.53401 0.48832 0.0
C766 C 0.64346 0.51916 0.4741 0.0
C767 C 0.63328 0.4985 0.46409 0.0
C768 C 0.60935 0.49268 0.46838 0.0
C769 C 0.66872 0.52567 0.46907 0.0
C770 C 0.67622 0.52671 0.44527 0.0
C771 C 0.68499 0.5321 0.48736 0.0
C772 C 0.67886 0.52965 0.51292 0.0
C773 C 0.67057 0.50773 0.52198 0.0
C774 C 0.66463 0.50558 0.54602 0.0
C775 C 0.66706 0.52519 0.56123 0.0
C776 C 0.67549 0.54698 0.55243 0.0
C777 C 0.68143 0.54923 0.5284 0.0
H778 H 0.66244 0.5235 0.57983 0.0
H779 H 0.72321 0.54009 0.34695 0.0
H780 H 0.12381 0.26427 0.07671 0.0
H781 H 0.11009 0.30234 0.06078 0.0
H782 H 0.03878 0.28736 0.08585 0.0
H783 H 0.05215 0.24864 0.10093 0.0
H784 H 0.03733 0.30614 0.04237 0.0
H785 H 0.0757 0.32581 0.11588 0.0
H786 H 0.10811 0.32627 0.14566 0.0
H787 H 0.15434 0.3618 0.09603 0.0
H788 H 0.1223 0.36124 0.06582 0.0
H789 H 0.99585 0.42688 0.03661 0.0
H790 H 0.00766 0.38697 0.04969 0.0
H791 H 0.07751 0.39745 0.01906 0.0
H792 H 0.06591 0.43736 0.00585 0.0
H793 H 0.07897 0.38103 0.0656 0.0
H794 H 0.0394 0.36126 0.99215 0.0
H795 H 0.00606 0.36129 0.96341 0.0
H796 H 0.96084 0.32664 0.01456 0.0
H797 H 0.99384 0.32671 0.04374 0.0
C798 C 0.10513 0.26887 0.07856 0.0
C799 C 0.08908 0.25338 0.09013 0.0
C800 C 0.09737 0.29079 0.06968 0.0
C801 C 0.07349 0.29786 0.07244 0.0
C802 C 0.05732 0.28231 0.08363 0.0
C803 C 0.06504 0.26029 0.09243 0.0
C804 C 0.06548 0.32152 0.06372 0.0
C805 C 0.04623 0.32255 0.0477 0.0
C806 C 0.07734 0.3429 0.07038 0.0
C807 C 0.09667 0.34326 0.0885 0.0
C808 C 0.09284 0.33354 0.11125 0.0
C809 C 0.11113 0.33385 0.12822 0.0
C810 C 0.13329 0.344 0.12272 0.0
C811 C 0.13718 0.35391 0.10025 0.0
C812 C 0.11895 0.35362 0.0832 0.0
C813 C 0.01368 0.42065 0.03249 0.0
C814 C 0.02995 0.43534 0.0202 0.0
C815 C 0.02035 0.39781 0.03991 0.0
C816 C 0.04342 0.38927 0.03525 0.0
C817 C 0.05962 0.40375 0.02281 0.0
C818 C 0.05291 0.42651 0.01521 0.0
C819 C 0.05098 0.36559 0.04416 0.0
C820 C 0.07011 0.3646 0.06027 0.0
C821 C 0.03887 0.34432 0.03776 0.0
C822 C 0.01902 0.34421 0.02022 0.0
C823 C 0.02228 0.35384 0.99735 0.0
C824 C 0.00346 0.3538 0.98096 0.0
C825 C 0.98132 0.34403 0.98718 0.0
C826 C 0.97799 0.33423 0.00978 0.0
C827 C 0.99675 0.33424 0.02624 0.0
H828 H 0.96677 0.34402 0.97446 0.0
H829 H 0.14743 0.34423 0.13589 0.0
H830 H 0.61218 0.27747 0.95858 0.0
H831 H 0.60115 0.23761 0.97216 0.0
H832 H 0.52967 0.2476 0.94512 0.0
H833 H 0.54018 0.2881 0.93262 0.0
H834 H 0.52797 0.22487 0.98615 0.0
H835 H 0.57165 0.21557 0.91388 0.0
H836 H 0.6053 0.22094 0.88613 0.0
H837 H 0.65242 0.18617 0.93545 0.0
H838 H 0.6191 0.18089 0.96366 0.0
H839 H 0.49784 0.10072 0.97891 0.0
H840 H 0.507 0.14233 0.96914 0.0
H841 H 0.57496 0.1363 0.00492 0.0
H842 H 0.56597 0.09471 0.01489 0.0
H843 H 0.57786 0.15683 0.9595 0.0
H844 H 0.5319 0.16565 0.03137 0.0
H845 H 0.49675 0.1593 0.05701 0.0
H846 H 0.45202 0.19398 0.00548 0.0
H847 H 0.48686 0.20023 0.97936 0.0
C848 C 0.59396 0.27144 0.95592 0.0
C849 C 0.57711 0.28602 0.94437 0.0
C850 C 0.58777 0.24848 0.96344 0.0
C851 C 0.56472 0.23941 0.95923 0.0
C852 C 0.54761 0.25415 0.94841 0.0
C853 C 0.55373 0.27722 0.94106 0.0
C854 C 0.55867 0.21438 0.9656 0.0
C855 C 0.53872 0.20998 0.98009 0.0
C856 C 0.57284 0.19493 0.95791 0.0
C857 C 0.59293 0.19806 0.94099 0.0
C858 C 0.58923 0.20924 0.9189 0.0
C859 C 0.60823 0.21224 0.90307 0.0
C860 C 0.631 0.20396 0.90905 0.0
C861 C 0.63479 0.19261 0.93086 0.0
C862 C 0.61584 0.1896 0.94677 0.0
C863 C 0.51473 0.10824 0.98475 0.0
C864 C 0.53118 0.09439 0.99769 0.0
C865 C 0.51987 0.13204 0.97923 0.0
C866 C 0.54158 0.14238 0.98645 0.0
C867 C 0.55808 0.12862 0.99924 0.0
C868 C 0.55287 0.10489 0.00498 0.0
C869 C 0.54734 0.16742 0.98015 0.0
C870 C 0.56719 0.17177 0.9656 0.0
C871 C 0.53288 0.18673 0.9875 0.0
C872 C 0.51196 0.1832 0.0033 0.0
C873 C 0.51454 0.17175 0.02542 0.0
C874 C 0.49467 0.1682 0.04006 0.0
C875 C 0.47215 0.17617 0.03285 0.0
C876 C 0.46947 0.18779 0.01103 0.0
C877 C 0.48927 0.19136 0.99631 0.0
H878 H 0.4568 0.17341 0.04421 0.0
H879 H 0.64569 0.20629 0.89677 0.0
H880 H 0.90351 0.73673 0.46192 0.0
H881 H 0.91568 0.7763 0.47557 0.0
H882 H 0.98498 0.7666 0.44356 0.0
H883 H 0.97347 0.72641 0.43107 0.0
H884 H 0.99015 0.78923 0.48379 0.0
H885 H 0.93995 0.79827 0.41533 0.0
H886 H 0.90365 0.79268 0.39096 0.0
H887 H 0.86171 0.82778 0.44434 0.0
H888 H 0.89772 0.83329 0.46919 0.0
H889 H 0.9822 0.92666 0.45867 0.0
H890 H 0.97309 0.88521 0.44866 0.0
H891 H 0.98209 0.86522 0.52224 0.0
H892 H 0.992 0.90657 0.53227 0.0
H893 H 0.93858 0.8573 0.46053 0.0
H894 H 0.00118 0.80789 0.52636 0.0
H895 H 0.04015 0.81395 0.54613 0.0
H896 H 0.06226 0.86074 0.48978 0.0
H897 H 0.02357 0.85471 0.46953 0.0
C898 C 0.92153 0.74274 0.45821 0.0
C899 C 0.93743 0.72838 0.44518 0.0
C900 C 0.92837 0.76553 0.46579 0.0
C901 C 0.95108 0.77464 0.46017 0.0
C902 C 0.96731 0.76003 0.44798 0.0
C903 C 0.96058 0.73714 0.44061 0.0
C904 C 0.95761 0.79969 0.46613 0.0
C905 C 0.97884 0.80412 0.47877 0.0
C906 C 0.94316 0.81919 0.45914 0.0
C907 C 0.92148 0.81598 0.44421 0.0
C908 C 0.92295 0.80464 0.42194 0.0
C909 C 0.90244 0.80151 0.40803 0.0
C910 C 0.88038 0.80981 0.41612 0.0
C911 C 0.8788 0.82132 0.43812 0.0
C912 C 0.89926 0.82447 0.45211 0.0
C913 C 0.98235 0.91344 0.47273 0.0
C914 C 0.9879 0.91993 0.49627 0.0
C915 C 0.97707 0.88973 0.46698 0.0
C916 C 0.97709 0.872 0.48463 0.0
C917 C 0.98241 0.87846 0.50821 0.0
C918 C 0.98798 0.90215 0.51394 0.0
C919 C 0.97107 0.8469 0.47834 0.0
C920 C 0.94987 0.84244 0.46566 0.0
C921 C 0.98594 0.82747 0.48467 0.0
C922 C 0.00937 0.83104 0.49658 0.0
C923 C 0.01439 0.81941 0.51816 0.0
C924 C 0.03643 0.82284 0.52945 0.0
C925 C 0.05364 0.83779 0.51926 0.0
C926 C 0.04888 0.84925 0.49771 0.0
C927 C 0.02689 0.84585 0.48633 0.0
H928 H 0.07068 0.84044 0.52804 0.0
H929 H 0.86452 0.80737 0.40533 0.0
H930 H 0.4638 0.76139 0.60375 0.0
H931 H 0.47753 0.72297 0.58838 0.0
H932 H 0.40465 0.70272 0.57299 0.0
H933 H 0.39071 0.74069 0.58918 0.0
H934 H 0.42819 0.6663 0.59223 0.0
H935 H 0.44221 0.72212 0.52906 0.0
H936 H 0.45809 0.75881 0.5106 0.0
H937 H 0.52971 0.73677 0.52694 0.0
H938 H 0.51422 0.70008 0.54581 0.0
H939 H 0.44955 0.5725 0.5105 0.0
H940 H 0.43809 0.61142 0.52647 0.0
H941 H 0.51033 0.62323 0.55073 0.0
H942 H 0.52198 0.58415 0.53503 0.0
H943 H 0.48829 0.66361 0.52748 0.0
H944 H 0.4736 0.60752 0.59058 0.0
H945 H 0.45724 0.57043 0.60781 0.0
H946 H 0.38608 0.59281 0.59 0.0
H947 H 0.40207 0.62998 0.57243 0.0
C948 C 0.45066 0.74866 0.59736 0.0
C949 C 0.42616 0.75418 0.59757 0.0
C950 C 0.45856 0.72679 0.58835 0.0
C951 C 0.44214 0.71011 0.57921 0.0
C952 C 0.41765 0.71537 0.57984 0.0
C953 C 0.40973 0.73718 0.58889 0.0
C954 C 0.45044 0.68722 0.56885 0.0
C955 C 0.44113 0.66576 0.5779 0.0
C956 C 0.46767 0.68646 0.55044 0.0
C957 C 0.47704 0.70848 0.53907 0.0
C958 C 0.46134 0.72519 0.52889 0.0
C959 C 0.47027 0.74597 0.51832 0.0
C960 C 0.49489 0.75015 0.51766 0.0
C961 C 0.51064 0.73352 0.5275 0.0
C962 C 0.50179 0.71273 0.53812 0.0
C963 C 0.46308 0.58344 0.51902 0.0
C964 C 0.48667 0.57519 0.52158 0.0
C965 C 0.45647 0.60563 0.5282 0.0
C966 C 0.47334 0.62004 0.5399 0.0
C967 C 0.49708 0.61229 0.54177 0.0
C968 C 0.50366 0.58995 0.53286 0.0
C969 C 0.46595 0.64288 0.55082 0.0
C970 C 0.47542 0.66426 0.54187 0.0
C971 C 0.44878 0.64359 0.5692 0.0
C972 C 0.43905 0.62143 0.58001 0.0
C973 C 0.45448 0.60446 0.59019 0.0
C974 C 0.44527 0.58345 0.60005 0.0
C975 C 0.42064 0.57926 0.59995 0.0
C976 C 0.40516 0.5961 0.59005 0.0
C977 C 0.41428 0.61716 0.58018 0.0
H978 H 0.41356 0.56299 0.6076 0.0
H979 H 0.50177 0.76624 0.50946 0.0
H980 H 0.98803 0.95499 0.80363 0.0
H981 H 0.99522 0.96391 0.7619 0.0
H982 H 0.92716 0.99972 0.75756 0.0
H983 H 0.91901 0.98927 0.79881 0.0
H984 H 0.93122 0.97239 0.7215 0.0
H985 H 0.98279 0.0303 0.75681 0.0
H986 H 0.01438 0.04578 0.78334 0.0
H987 H 0.066 0.00095 0.74901 0.0
H988 H 0.03465 0.98495 0.72247 0.0
H989 H 0.95622 0.02214 0.60683 0.0
H990 H 0.94901 0.01844 0.64959 0.0
H991 H 0.00677 0.96795 0.65522 0.0
H992 H 0.01401 0.97131 0.61246 0.0
H993 H 0.00732 0.00536 0.69024 0.0
H994 H 0.95338 0.9468 0.65609 0.0
H995 H 0.92107 0.93352 0.62922 0.0
H996 H 0.87291 0.98339 0.6616 0.0
H997 H 0.90506 0.9972 0.68846 0.0
C998 C 0.97451 0.96467 0.79382 0.0
C999 C 0.95285 0.97124 0.80466 0.0
C1000 C 0.97882 0.9701 0.76998 0.0
C1001 C 0.96186 0.98275 0.75658 0.0
C1002 C 0.94055 0.98997 0.76752 0.0
C1003 C 0.93605 0.98422 0.79126 0.0
C1004 C 0.9657 0.98709 0.7308 0.0
C1005 C 0.94771 0.98003 0.71477 0.0
C1006 C 0.98736 0.99668 0.72186 0.0
C1007 C 0.0063 0.00628 0.73778 0.0
C1008 C 0.00084 0.02361 0.75503 0.0
C1009 C 0.01871 0.0325 0.77006 0.0
C1010 C 0.04217 0.02431 0.7679 0.0
C1011 C 0.04782 0.00726 0.75067 0.0
C1012 C 0.03 0.99829 0.73561 0.0
C1013 C 0.96737 0.01021 0.61715 0.0
C1014 C 0.98565 0.99696 0.60624 0.0
C1015 C 0.96321 0.00812 0.64154 0.0
C1016 C 0.97736 0.99291 0.65546 0.0
C1017 C 0.99571 0.9798 0.64471 0.0
C1018 C -0.00029 0.98165 0.62028 0.0
C1019 C 0.97294 0.99054 0.68126 0.0
C1020 C 0.99081 0.99794 0.69717 0.0
C1021 C 0.95106 0.98163 0.69013 0.0
C1022 C 0.93169 0.97321 0.6741 0.0
C1023 C 0.93596 0.95507 0.65734 0.0
C1024 C 0.91767 0.94742 0.64214 0.0
C1025 C 0.89497 0.95765 0.64365 0.0
C1026 C 0.89051 0.97551 0.66042 0.0
C1027 C 0.90875 0.98324 0.67565 0.0
H1028 H 0.88084 0.95171 0.63187 0.0
H1029 H 0.05599 0.03122 0.77955 0.0
H1030 H 0.60485 0.04679 0.29251 0.0
H1031 H 0.59557 0.03942 0.25065 0.0
H1032 H 0.5215 0.02781 0.26848 0.0
H1033 H 0.53071 0.03501 0.31058 0.0
H1034 H 0.54056 0.99444 0.2348 0.0
H1035 H 0.53552 0.07942 0.24773 0.0
H1036 H 0.55041 0.11855 0.26154 0.0
H1037 H 0.61008 0.11345 0.21394 0.0
H1038 H 0.59573 0.07409 0.20009 0.0
H1039 H 0.49357 0.00555 0.11816 0.0
H1040 H 0.50153 0.00992 0.16065 0.0
H1041 H 0.57291 0.03481 0.1452 0.0
H1042 H 0.56483 0.03122 0.10266 0.0
H1043 H 0.55441 0.06119 0.17837 0.0
H1044 H 0.56102 0.9769 0.16535 0.0
H1045 H 0.54797 0.93709 0.15164 0.0
H1046 H 0.48794 0.93964 0.19901 0.0
H1047 H 0.50045 0.97964 0.21277 0.0
C1048 C 0.58666 0.04226 0.28759 0.0
C1049 C 0.56848 0.0415 0.30479 0.0
C1050 C 0.58137 0.03821 0.26367 0.0
C1051 C 0.55783 0.03329 0.25652 0.0
C1052 C 0.53977 0.03164 0.2737 0.0
C1053 C 0.54501 0.03589 0.29766 0.0
C1054 C 0.552 0.03097 0.23097 0.0
C1055 C 0.54325 0.00908 0.22244 0.0
C1056 C 0.55613 0.04995 0.21489 0.0
C1057 C 0.56467 0.07371 0.22304 0.0
C1058 C 0.55192 0.08655 0.24034 0.0
C1059 C 0.56025 0.10879 0.24815 0.0
C1060 C 0.58121 0.11845 0.23866 0.0
C1061 C 0.59386 0.10593 0.22129 0.0
C1062 C 0.58563 0.08367 0.21344 0.0
C1063 C 0.51097 0.01196 0.1238 0.0
C1064 C 0.52859 0.01798 0.10702 0.0
C1065 C 0.51554 0.01432 0.14811 0.0
C1066 C 0.53796 0.02232 0.15615 0.0
C1067 C 0.55549 0.02857 0.13942 0.0
C1068 C 0.55085 0.02649 0.1151 0.0
C1069 C 0.54307 0.02453 0.18197 0.0
C1070 C 0.55167 0.04646 0.19061 0.0
C1071 C 0.53905 0.00548 0.19808 0.0
C1072 C 0.53154 0.98137 0.18992 0.0
C1073 C 0.54493 0.96905 0.17272 0.0
C1074 C 0.53765 0.94644 0.16496 0.0
C1075 C 0.5171 0.93587 0.1744 0.0
C1076 C 0.50383 0.94787 0.19168 0.0
C1077 C 0.51102 0.9705 0.19949 0.0
H1078 H 0.51149 0.91836 0.16836 0.0
H1079 H 0.58763 0.13567 0.24474 0.0
H1080 H 0.42459 0.53059 0.21852 0.0
H1081 H 0.43469 0.51696 0.25833 0.0
H1082 H 0.4972 0.5623 0.25839 0.0
H1083 H 0.48839 0.57449 0.21772 0.0
H1084 H 0.50757 0.52416 0.28094 0.0
H1085 H 0.44259 0.57923 0.28482 0.0
H1086 H 0.40286 0.59551 0.27503 0.0
H1087 H 0.36947 0.53197 0.30212 0.0
H1088 H 0.40904 0.51517 0.31178 0.0
H1089 H 0.47442 0.53913 0.41578 0.0
H1090 H 0.46863 0.54875 0.37386 0.0
H1091 H 0.50038 0.48142 0.3541 0.0
H1092 H 0.50731 0.47229 0.39607 0.0
H1093 H 0.44344 0.5311 0.3413 0.0
H1094 H 0.52615 0.48452 0.30005 0.0
H1095 H 0.56769 0.47459 0.31096 0.0
H1096 H 0.56899 0.53249 0.36105 0.0
H1097 H 0.52759 0.54295 0.35022 0.0
C1098 C 0.44086 0.53723 0.22663 0.0
C1099 C 0.4555 0.55393 0.21483 0.0
C1100 C 0.44642 0.52966 0.24964 0.0
C1101 C 0.46635 0.53909 0.26166 0.0
C1102 C 0.48158 0.55492 0.2496 0.0
C1103 C 0.47632 0.56214 0.2264 0.0
C1104 C 0.47072 0.53331 0.2871 0.0
C1105 C 0.49353 0.52563 0.29414 0.0
C1106 C 0.45261 0.53578 0.3045 0.0
C1107 C 0.42878 0.54585 0.2988 0.0
C1108 C 0.42678 0.56867 0.28854 0.0
C1109 C 0.40429 0.57799 0.28303 0.0
C1110 C 0.38366 0.56476 0.28789 0.0
C1111 C 0.38547 0.54218 0.29833 0.0
C1112 C 0.40792 0.53276 0.30384 0.0
C1113 C 0.48025 0.52641 0.40249 0.0
C1114 C 0.49141 0.505 0.4092 0.0
C1115 C 0.47689 0.5319 0.37851 0.0
C1116 C 0.48429 0.51596 0.36071 0.0
C1117 C 0.49503 0.49431 0.36741 0.0
C1118 C 0.49887 0.48904 0.39142 0.0
C1119 C 0.48031 0.52192 0.33523 0.0
C1120 C 0.4575 0.52956 0.32815 0.0
C1121 C 0.4987 0.52035 0.31801 0.0
C1122 C 0.52368 0.51433 0.3245 0.0
C1123 C 0.53534 0.49517 0.31334 0.0
C1124 C 0.55885 0.48944 0.31952 0.0
C1125 C 0.57094 0.50285 0.33675 0.0
C1126 C 0.55958 0.52207 0.34778 0.0
C1127 C 0.53608 0.52788 0.34165 0.0
H1128 H 0.58914 0.49838 0.34151 0.0
H1129 H 0.36626 0.57201 0.28362 0.0
H1130 H 0.10195 0.45118 0.73363 0.0
H1131 H 0.09077 0.46309 0.77391 0.0
H1132 H 0.01902 0.47772 0.74994 0.0
H1133 H 0.03016 0.46589 0.70938 0.0
H1134 H 0.03902 0.5135 0.78065 0.0
H1135 H 0.02685 0.42868 0.77813 0.0
H1136 H 0.03804 0.38691 0.77002 0.0
H1137 H 0.09633 0.3926 0.81953 0.0
H1138 H 0.0857 0.43455 0.82767 0.0
H1139 H 0.99163 0.52117 0.89828 0.0
H1140 H 0.99863 0.51146 0.8565 0.0
H1141 H 0.06816 0.48358 0.87456 0.0
H1142 H 0.06106 0.49264 0.91637 0.0
H1143 H 0.0462 0.45411 0.84574 0.0
H1144 H 0.06042 0.53886 0.84706 0.0
H1145 H 0.05074 0.58109 0.85485 0.0
H1146 H 0.99041 0.57624 0.80774 0.0
H1147 H 0.99956 0.53387 0.79991 0.0
C1148 C 0.08386 0.4572 0.73686 0.0
C1149 C 0.06691 0.45763 0.71839 0.0
C1150 C 0.07747 0.46384 0.75989 0.0
C1151 C 0.05404 0.4711 0.76487 0.0
C1152 C 0.03718 0.47212 0.7464 0.0
C1153 C 0.04352 0.46524 0.72334 0.0
C1154 C 0.04719 0.47705 0.78957 0.0
C1155 C 0.04019 0.50047 0.79488 0.0
C1156 C 0.04924 0.4601 0.80809 0.0
C1157 C 0.0556 0.43483 0.80335 0.0
C1158 C 0.04217 0.42109 0.78714 0.0
C1159 C 0.04839 0.39737 0.78256 0.0
C1160 C 0.06792 0.38712 0.79421 0.0
C1161 C 0.08122 0.40057 0.8105 0.0
C1162 C 0.07509 0.42431 0.81512 0.0
C1163 C 0.00846 0.51307 0.89335 0.0
C1164 C 0.02579 0.50768 0.91069 0.0
C1165 C 0.01247 0.50761 0.86943 0.0
C1166 C 0.03402 0.49699 0.86234 0.0
C1167 C 0.05137 0.49172 0.87961 0.0
C1168 C 0.0473 0.49697 0.90352 0.0
C1169 C 0.03839 0.49077 0.83706 0.0
C1170 C 0.04488 0.4672 0.83158 0.0
C1171 C 0.03604 0.50766 0.81844 0.0
C1172 C 0.03052 0.53313 0.82311 0.0
C1173 C 0.04498 0.54675 0.83852 0.0
C1174 C 0.03961 0.57071 0.84291 0.0
C1175 C 0.01993 0.58132 0.83185 0.0
C1176 C 0.00562 0.56799 0.81632 0.0
C1177 C 0.0109 0.544 0.81189 0.0
H1178 H 0.01581 0.59988 0.83527 0.0
H1179 H 0.0727 0.36875 0.79065 0.0
H1180 H 0.80807 0.971 0.99591 0.0
H1181 H 0.7663 0.97819 0.00676 0.0
H1182 H 0.74465 0.96338 0.93449 0.0
H1183 H 0.78633 0.95692 0.92351 0.0
H1184 H 0.72093 0.99959 0.9497 0.0
H1185 H 0.73837 0.92191 0.98097 0.0
H1186 H 0.76045 0.89204 0.00449 0.0
H1187 H 0.74489 0.93068 0.06856 0.0
H1188 H 0.72299 0.96098 0.04536 0.0
H1189 H 0.5982 0.97099 0.96992 0.0
H1190 H 0.64096 0.96616 0.962 0.0
H1191 H 0.65782 0.0022 0.02772 0.0
H1192 H 0.61512 0.0076 0.03557 0.0
H1193 H 0.68374 0.95664 0.01743 0.0
H1194 H 0.66467 0.03377 0.98399 0.0
H1195 H 0.64125 0.06133 0.959 0.0
H1196 H 0.65869 0.02025 0.89696 0.0
H1197 H 0.68192 0.99221 0.92166 0.0
C1198 C 0.79434 0.96934 0.9824 0.0
C1199 C 0.80038 0.96344 0.95889 0.0
C1200 C 0.7705 0.97335 0.9886 0.0
C1201 C 0.75226 0.97099 0.97151 0.0
C1202 C 0.75837 0.96537 0.94797 0.0
C1203 C 0.78219 0.9617 0.94171 0.0
C1204 C 0.72676 0.97427 0.97801 0.0
C1205 C 0.71282 0.98998 0.96437 0.0
C1206 C 0.71614 0.96205 0.99739 0.0
C1207 C 0.72927 0.94385 0.01139 0.0
C1208 C 0.73982 0.92414 5e-05 0.0
C1209 C 0.75228 0.90712 0.01333 0.0
C1210 C 0.75413 0.9095 0.038 0.0
C1211 C 0.74348 0.92888 0.04945 0.0
C1212 C 0.73103 0.94598 0.03624 0.0
C1213 C 0.611 0.97778 0.98274 0.0
C1214 C 0.60333 0.98975 0.00332 0.0
C1215 C 0.63537 0.97505 0.97817 0.0
C1216 C 0.65242 0.9839 0.99427 0.0
C1217 C 0.64486 0.99528 0.01512 0.0
C1218 C 0.6205 0.99842 0.0195 0.0
C1219 C 0.67816 0.98172 0.989 0.0
C1220 C 0.69205 0.96626 0.00286 0.0
C1221 C 0.68865 0.99383 0.96961 0.0
C1222 C 0.67482 0.01075 0.95471 0.0
C1223 C 0.66332 0.03048 0.96505 0.0
C1224 C 0.65012 0.04622 0.95093 0.0
C1225 C 0.64843 0.04251 0.92641 0.0
C1226 C 0.65999 0.02308 0.91596 0.0
C1227 C 0.67319 0.00727 0.93 0.0
H1228 H 0.6382 0.05471 0.91551 0.0
H1229 H 0.76377 0.8963 0.04825 0.0
H1230 H 0.72386 0.0874 0.4787 0.0
H1231 H 0.7657 0.08063 0.48858 0.0
H1232 H 0.7603 0.00852 0.46198 0.0
H1233 H 0.71795 0.01462 0.45345 0.0
H1234 H 0.78756 0.00893 0.49966 0.0
H1235 H 0.78402 0.05472 0.42801 0.0
H1236 H 0.772 0.0881 0.40206 0.0
H1237 H 0.80712 0.13783 0.44873 0.0
H1238 H 0.81908 0.10476 0.47515 0.0
H1239 H 0.91261 0.99349 0.47618 0.0
H1240 H 0.8696 0.99907 0.47003 0.0
H1241 H 0.87184 0.06298 0.5128 0.0
H1242 H 0.91471 0.05733 0.51945 0.0
H1243 H 0.84669 0.06645 0.46703 0.0
H1244 H 0.85053 0.01835 0.53823 0.0
H1245 H 0.86327 0.98358 0.56193 0.0
H1246 H 0.82832 0.93639 0.51258 0.0
H1247 H 0.81568 0.97089 0.48838 0.0
C1248 C 0.73134 0.0699 0.47545 0.0
C1249 C 0.71749 0.05162 0.46505 0.0
C1250 C 0.75542 0.06616 0.48081 0.0
C1251 C 0.76631 0.04426 0.47547 0.0
C1252 C 0.75234 0.02565 0.46605 0.0
C1253 C 0.72817 0.02926 0.46095 0.0
C1254 C 0.79241 0.04101 0.47899 0.0
C1255 C 0.80047 0.02138 0.49228 0.0
C1256 C 0.80932 0.05735 0.46956 0.0
C1257 C 0.80223 0.07729 0.45368 0.0
C1258 C 0.78902 0.07279 0.43283 0.0
C1259 C 0.78225 0.09166 0.41802 0.0
C1260 C 0.78874 0.11508 0.42378 0.0
C1261 C 0.80208 0.11968 0.44432 0.0
C1262 C 0.80887 0.10089 0.45921 0.0
C1263 C 0.90396 0.00879 0.48418 0.0
C1264 C 0.91701 0.02496 0.49833 0.0
C1265 C 0.87942 0.01188 0.48073 0.0
C1266 C 0.86764 0.03135 0.49108 0.0
C1267 C 0.88068 0.04782 0.50473 0.0
C1268 C 0.90512 0.04452 0.50854 0.0
C1269 C 0.84165 0.03453 0.48771 0.0
C1270 C 0.83369 0.0541 0.4744 0.0
C1271 C 0.8249 0.01794 0.49677 0.0
C1272 C 0.83239 0.99719 0.51135 0.0
C1273 C 0.84576 0.00055 0.53231 0.0
C1274 C 0.85292 0.98089 0.54586 0.0
C1275 C 0.84667 0.95778 0.53873 0.0
C1276 C 0.83318 0.9543 0.51806 0.0
C1277 C 0.826 0.9739 0.50443 0.0
H1278 H 0.85222 0.94259 0.54924 0.0
H1279 H 0.78348 0.12966 0.41229 0.0
H1280 H 0.30332 0.55744 0.03128 0.0
H1281 H 0.26162 0.55069 0.01962 0.0
H1282 H 0.2385 0.57381 0.0891 0.0
H1283 H 0.28014 0.57969 0.101 0.0
H1284 H 0.2134 0.53744 0.07682 0.0
H1285 H 0.23567 0.61032 0.03777 0.0
H1286 H 0.26001 0.63639 0.012 0.0
H1287 H 0.24485 0.59115 0.95211 0.0
H1288 H 0.22067 0.56463 0.97762 0.0
H1289 H 0.09225 0.56293 0.04845 0.0
H1290 H 0.13457 0.56884 0.05794 0.0
H1291 H 0.15432 0.52967 0.99499 0.0
H1292 H 0.11205 0.52341 0.98544 0.0
H1293 H 0.1808 0.5734 0.00296 0.0
H1294 H 0.15736 0.50119 0.04371 0.0
H1295 H 0.13196 0.47713 0.07038 0.0
H1296 H 0.14838 0.52432 0.12841 0.0
H1297 H 0.17362 0.54888 0.10198 0.0
C1298 C 0.28928 0.56099 0.04402 0.0
C1299 C 0.29488 0.56906 0.06702 0.0
C1300 C 0.26547 0.55726 0.03733 0.0
C1301 C 0.24684 0.56213 0.05334 0.0
C1302 C 0.25251 0.5699 0.07643 0.0
C1303 C 0.27629 0.57323 0.08324 0.0
C1304 C 0.22142 0.55915 0.04616 0.0
C1305 C 0.20627 0.54559 0.06081 0.0
C1306 C 0.21209 0.5694 0.02505 0.0
C1307 C 0.22656 0.58536 0.00966 0.0
C1308 C 0.23767 0.60584 0.01915 0.0
C1309 C 0.25141 0.62071 0.00458 0.0
C1310 C 0.25402 0.61539 0.98045 0.0
C1311 C 0.24284 0.59523 0.97082 0.0
C1312 C 0.2291 0.58028 0.98531 0.0
C1313 C 0.10558 0.55573 0.03651 0.0
C1314 C 0.0988 0.5426 0.01625 0.0
C1315 C 0.12972 0.55906 0.04201 0.0
C1316 C 0.14748 0.54954 0.02723 0.0
C1317 C 0.14082 0.53711 0.0066 0.0
C1318 C 0.11668 0.53349 0.00125 0.0
C1319 C 0.173 0.55194 0.03372 0.0
C1320 C 0.18808 0.56533 0.01893 0.0
C1321 C 0.1822 0.54185 0.05486 0.0
C1322 C 0.16719 0.527 0.07081 0.0
C1323 C 0.1554 0.50655 0.06211 0.0
C1324 C 0.14106 0.4928 0.07719 0.0
C1325 C 0.13851 0.49923 0.10106 0.0
C1326 C 0.15035 0.51938 0.10991 0.0
C1327 C 0.16469 0.53321 0.0949 0.0
H1328 H 0.1274 0.48856 0.11271 0.0
H1329 H 0.26467 0.62693 0.9692 0.0
H1330 H 0.21114 0.45084 0.52758 0.0
H1331 H 0.25225 0.45868 0.51469 0.0
H1332 H 0.27821 0.4378 0.58397 0.0
H1333 H 0.23719 0.43073 0.59705 0.0
H1334 H 0.30084 0.47553 0.57068 0.0
H1335 H 0.28142 0.40074 0.53321 0.0
H1336 H 0.25794 0.37319 0.50805 0.0
H1337 H 0.27027 0.41806 0.44736 0.0
H1338 H 0.29358 0.44605 0.47224 0.0
H1339 H 0.4218 0.44988 0.54439 0.0
H1340 H 0.37932 0.44445 0.55299 0.0
H1341 H 0.361 0.48344 0.48945 0.0
H1342 H 0.40355 0.48931 0.4808 0.0
H1343 H 0.33432 0.43894 0.49764 0.0
H1344 H 0.35619 0.51254 0.5367 0.0
H1345 H 0.38084 0.53798 0.56296 0.0
H1346 H 0.36496 0.49222 0.62215 0.0
H1347 H 0.3405 0.46632 0.59617 0.0
C1348 C 0.22568 0.44791 0.53998 0.0
C1349 C 0.22104 0.44023 0.5633 0.0
C1350 C 0.24915 0.4523 0.5326 0.0
C1351 C 0.26839 0.44855 0.54826 0.0
C1352 C 0.26369 0.44092 0.57158 0.0
C1353 C 0.24026 0.43688 0.57904 0.0
C1354 C 0.29347 0.45272 0.54061 0.0
C1355 C 0.30816 0.4673 0.55482 0.0
C1356 C 0.30299 0.44243 0.51964 0.0
C1357 C 0.28901 0.42562 0.50464 0.0
C1358 C 0.27897 0.40482 0.51454 0.0
C1359 C 0.26572 0.38911 0.50032 0.0
C1360 C 0.26255 0.39391 0.47614 0.0
C1361 C 0.2727 0.41439 0.46611 0.0
C1362 C 0.28594 0.43017 0.48025 0.0
C1363 C 0.40877 0.45717 0.53212 0.0
C1364 C 0.41604 0.47011 0.51195 0.0
C1365 C 0.38453 0.45411 0.53711 0.0
C1366 C 0.36713 0.46369 0.52191 0.0
C1367 C 0.37424 0.47596 0.50138 0.0
C1368 C 0.39851 0.47935 0.49654 0.0
C1369 C 0.34152 0.46135 0.52792 0.0
C1370 C 0.32682 0.44721 0.51339 0.0
C1371 C 0.33205 0.47173 0.54877 0.0
C1372 C 0.34669 0.48737 0.56443 0.0
C1373 C 0.35813 0.50778 0.55527 0.0
C1374 C 0.37203 0.52231 0.57011 0.0
C1375 C 0.3745 0.51668 0.59419 0.0
C1376 C 0.36304 0.49655 0.60349 0.0
C1377 C 0.34914 0.48195 0.58872 0.0
H1378 H 0.38524 0.52794 0.60567 0.0
H1379 H 0.2523 0.38172 0.46516 0.0
H1380 H 0.95561 0.81454 0.98997 0.0
H1381 H 0.96468 0.77243 0.99786 0.0
H1382 H 0.96218 0.7576 0.92261 0.0
H1383 H 0.95286 0.79946 0.91465 0.0
H1384 H 0.93648 0.72498 0.94942 0.0
H1385 H 0.01477 0.76167 0.94971 0.0
H1386 H 0.04518 0.79077 0.96301 0.0
H1387 H 0.03932 0.76458 0.03453 0.0
H1388 H 0.00862 0.73554 0.0217 0.0
H1389 H 0.98555 0.60913 0.94707 0.0
H1390 H 0.97758 0.65151 0.94056 0.0
H1391 H 0.99208 0.66587 0.01464 0.0
H1392 H 0.00109 0.6237 0.021 0.0
H1393 H 0.01109 0.69921 0.98958 0.0
H1394 H 0.93358 0.66275 0.99078 0.0
H1395 H 0.90219 0.63402 0.97905 0.0
H1396 H 0.90477 0.66004 0.90728 0.0
H1397 H 0.93641 0.68873 0.91851 0.0
C1398 C 0.95697 0.80226 0.97515 0.0
C1399 C 0.95367 0.81029 0.95169 0.0
C1400 C 0.96227 0.77829 0.97966 0.0
C1401 C 0.96424 0.76198 0.96079 0.0
C1402 C 0.96079 0.76993 0.9374 0.0
C1403 C 0.95566 0.79387 0.93288 0.0
C1404 C 0.96959 0.73651 0.96532 0.0
C1405 C 0.9529 0.71927 0.95796 0.0
C1406 C 0.99069 0.72923 0.9771 0.0
C1407 C 0.00923 0.7466 0.98479 0.0
C1408 C 0.01983 0.76225 0.96831 0.0
C1409 C 0.03714 0.77871 0.97576 0.0
C1410 C 0.04413 0.77957 -0.00039 0.0
C1411 C 0.03386 0.76392 0.01606 0.0
C1412 C 0.01652 0.74745 0.00871 0.0
C1413 C 0.98705 0.62133 0.96195 0.0
C1414 C 0.99386 0.61307 0.98456 0.0
C1415 C 0.98236 0.64555 0.95825 0.0
C1416 C 0.98377 0.66186 0.97721 0.0
C1417 C 0.99084 0.65366 -0.00027 0.0
C1418 C 0.99595 0.62953 0.00335 0.0
C1419 C 0.978 0.68749 0.97358 0.0
C1420 C 0.9946 0.70482 0.98111 0.0
C1421 C 0.95664 0.69489 0.96223 0.0
C1422 C 0.93752 0.67774 0.95545 0.0
C1423 C 0.92756 0.66224 0.97246 0.0
C1424 C 0.90971 0.64597 0.96591 0.0
C1425 C 0.90153 0.64516 0.94242 0.0
C1426 C 0.91114 0.66067 0.92546 0.0
C1427 C 0.92902 0.67695 0.93191 0.0
H1428 H 0.88771 0.63255 0.93738 0.0
H1429 H 0.05754 0.79232 0.00534 0.0
H1430 H 0.41595 0.73641 0.0825 0.0
H1431 H 0.42742 0.77758 0.07376 0.0
H1432 H 0.49726 0.75374 0.05179 0.0
H1433 H 0.48598 0.71243 0.06117 0.0
H1434 H 0.50157 0.79251 0.07747 0.0
H1435 H 0.45344 0.77023 0.01085 0.0
H1436 H 0.4181 0.75408 0.99 0.0
H1437 H 0.37427 0.80853 0.02112 0.0
H1438 H 0.40929 0.82482 0.04244 0.0
H1439 H 0.52882 0.90298 0.01792 0.0
H1440 H 0.52014 0.86082 0.02587 0.0
H1441 H 0.45512 0.8807 0.06173 0.0
H1442 H 0.46374 0.92286 0.05416 0.0
H1443 H 0.44988 0.84363 0.02703 0.0
H1444 H 0.49909 0.86472 0.0945 0.0
H1445 H 0.53524 0.88076 0.11404 0.0
H1446 H 0.57817 0.82813 0.07881 0.0
H1447 H 0.5423 0.81198 0.05879 0.0
C1448 C 0.43369 0.73994 0.07564 0.0
C1449 C 0.45001 0.72124 0.07229 0.0
C1450 C 0.44022 0.76347 0.07061 0.0
C1451 C 0.46306 0.76873 0.06167 0.0
C1452 C 0.47952 0.7501 0.05859 0.0
C1453 C 0.47308 0.72654 0.06393 0.0
C1454 C 0.46973 0.79374 0.05583 0.0
C1455 C 0.49046 0.80354 0.06612 0.0
C1456 C 0.45508 0.8083 0.04128 0.0
C1457 C 0.43397 0.79862 0.0284 0.0
C1458 C 0.43624 0.77866 0.01338 0.0
C1459 C 0.41626 0.76949 0.00146 0.0
C1460 C 0.39394 0.78024 0.00427 0.0
C1461 C 0.39156 0.80021 0.01897 0.0
C1462 C 0.41148 0.80944 0.03096 0.0
C1463 C 0.5127 0.89839 0.02755 0.0
C1464 C 0.49697 0.91626 0.03543 0.0
C1465 C 0.50782 0.87433 0.03212 0.0
C1466 C 0.48704 0.86774 0.04442 0.0
C1467 C 0.47126 0.88549 0.0522 0.0
C1468 C 0.47627 0.90955 0.04794 0.0
C1469 C 0.48148 0.8423 0.04885 0.0
C1470 C 0.461 0.83247 0.03826 0.0
C1471 C 0.49648 0.82768 0.06287 0.0
C1472 C 0.51805 0.83732 0.07494 0.0
C1473 C 0.51627 0.85671 0.09075 0.0
C1474 C 0.5367 0.86579 0.10195 0.0
C1475 C 0.559 0.85551 0.09761 0.0
C1476 C 0.5609 0.83609 0.08212 0.0
C1477 C 0.54052 0.82696 0.07085 0.0
H1478 H 0.5748 0.86257 0.1063 0.0
H1479 H 0.3785 0.77312 0.99503 0.0
H1480 H 0.05344 0.28576 0.60948 0.0
H1481 H 0.04353 0.24407 0.60115 0.0
H1482 H 0.05053 0.25734 0.52593 0.0
H1483 H 0.05982 0.29934 0.5341 0.0
H1484 H 0.01253 0.22829 0.53545 0.0
H1485 H 0.09586 0.23263 0.55562 0.0
H1486 H 0.13062 0.24349 0.58045 0.0
H1487 H 0.10322 0.20061 0.63758 0.0
H1488 H 0.0681 0.18976 0.61319 0.0
H1489 H 0.05857 0.09794 0.52403 0.0
H1490 H 0.06538 0.14046 0.53111 0.0
H1491 H 0.99379 0.1473 0.55852 0.0
H1492 H 0.98668 0.1048 0.55132 0.0
H1493 H 0.06487 0.16651 0.57127 0.0
H1494 H 0.97245 0.20245 0.54228 0.0
H1495 H 0.93966 0.19172 0.51483 0.0
H1496 H 0.98907 0.15403 0.47027 0.0
H1497 H 0.02218 0.16481 0.49726 0.0
C1498 C 0.05241 0.27996 0.59114 0.0
C1499 C 0.05751 0.29585 0.57244 0.0
C1500 C 0.04695 0.25607 0.58642 0.0
C1501 C 0.04662 0.24756 0.56295 0.0
C1502 C 0.05079 0.26355 0.54419 0.0
C1503 C 0.05628 0.28747 0.54888 0.0
C1504 C 0.04294 0.2218 0.55806 0.0
C1505 C 0.02391 0.21477 0.54333 0.0
C1506 C 0.05807 0.2042 0.56801 0.0
C1507 C 0.07924 0.21057 0.58266 0.0
C1508 C 0.09716 0.22566 0.57354 0.0
C1509 C 0.11694 0.23179 0.58752 0.0
C1510 C 0.1191 0.22279 0.6106 0.0
C1511 C 0.1015 0.20759 0.61971 0.0
C1512 C 0.08167 0.20143 0.60581 0.0
C1513 C 0.04424 0.10844 0.53159 0.0
C1514 C 0.02204 0.09794 0.53702 0.0
C1515 C 0.04821 0.13274 0.53568 0.0
C1516 C 0.03003 0.14706 0.54513 0.0
C1517 C 0.00796 0.13662 0.55091 0.0
C1518 C 0.00397 0.11229 0.54687 0.0
C1519 C 0.03423 0.17294 0.54894 0.0
C1520 C 0.05339 0.18 0.56348 0.0
C1521 C 0.01947 0.19055 0.53848 0.0
C1522 C -0.00026 0.18423 0.52194 0.0
C1523 C 0.97632 0.19195 0.52658 0.0
C1524 C 0.95768 0.18585 0.5111 0.0
C1525 C 0.96226 0.17214 0.49086 0.0
C1526 C 0.98552 0.16457 0.486 0.0
C1527 C 0.00423 0.17064 0.5014 0.0
H1528 H 0.9478 0.16742 0.47891 0.0
H1529 H 0.13443 0.22756 0.6214 0.0
H1530 H 0.56573 0.21184 0.41551 0.0
H1531 H 0.55629 0.25369 0.42347 0.0
H1532 H 0.54297 0.23672 0.49707 0.0
H1533 H 0.5524 0.19463 0.48919 0.0
H1534 H 0.50778 0.267 0.47524 0.0
H1535 H 0.59301 0.26187 0.48525 0.0
H1536 H 0.634 0.25122 0.47335 0.0
H1537 H 0.62831 0.29664 0.4121 0.0
H1538 H 0.58712 0.30729 0.42345 0.0
H1539 H 0.50683 0.3863 0.5177 0.0
H1540 H 0.5146 0.34392 0.51144 0.0
H1541 H 0.54169 0.35927 0.44128 0.0
H1542 H 0.53465 0.40184 0.44769 0.0
H1543 H 0.56993 0.32911 0.46247 0.0
H1544 H 0.48526 0.33392 0.45081 0.0
H1545 H 0.44369 0.34424 0.4609 0.0
H1546 H 0.44728 0.29946 0.52277 0.0
H1547 H 0.489 0.28912 0.51322 0.0
C1548 C 0.56054 0.21697 0.43333 0.0
C1549 C 0.55975 0.2 0.45174 0.0
C1550 C 0.55531 0.24088 0.43788 0.0
C1551 C 0.5491 0.24826 0.46087 0.0
C1552 C 0.54777 0.23132 0.47921 0.0
C1553 C 0.55327 0.20738 0.47473 0.0
C1554 C 0.5444 0.27379 0.46571 0.0
C1555 C 0.52141 0.2806 0.47282 0.0
C1556 C 0.56207 0.29147 0.46188 0.0
C1557 C 0.58689 0.2852 0.45509 0.0
C1558 C 0.60042 0.26943 0.46914 0.0
C1559 C 0.6237 0.26343 0.46251 0.0
C1560 C 0.63373 0.2732 0.44195 0.0
C1561 C 0.62051 0.28906 0.42801 0.0
C1562 C 0.5972 0.2951 0.43454 0.0
C1563 C 0.51435 0.38068 0.50088 0.0
C1564 C 0.52007 0.39747 0.48317 0.0
C1565 C 0.51868 0.35639 0.49729 0.0
C1566 C 0.52842 0.34833 0.47575 0.0
C1567 C 0.53415 0.36506 0.45804 0.0
C1568 C 0.53007 0.38939 0.46172 0.0
C1569 C 0.53316 0.32253 0.47189 0.0
C1570 C 0.55621 0.3156 0.46496 0.0
C1571 C 0.51544 0.30478 0.47565 0.0
C1572 C 0.49034 0.31094 0.48142 0.0
C1573 C 0.47725 0.32642 0.46667 0.0
C1574 C 0.45365 0.33225 0.47227 0.0
C1575 C 0.44287 0.32257 0.4925 0.0
C1576 C 0.45566 0.30698 0.50713 0.0
C1577 C 0.47928 0.30111 0.50161 0.0
H1578 H 0.42459 0.3271 0.4968 0.0
H1579 H 0.65176 0.26853 0.43685 0.0
loop_
_geom_bond_atom_site_label_1
_geom_bond_atom_site_label_2
_geom_bond_distance
_geom_bond_site_symmetry_2
_ccdc_geom_bond_type
C0 C1 1.384 . S
C0 H13 0.947 . S
C0 C35 1.382 . S
C1 C0 1.384 . S
C1 C2 1.378 . S
C2 C1 1.378 . S
C2 C3 1.378 . S
C2 H14 0.952 . S
C3 C2 1.378 . S
C3 H15 0.950 . S
C3 C34 1.383 . S
H4 C23 0.947 . S
H5 C24 0.946 . S
H6 C26 0.953 . S
H7 C27 0.945 . S
H8 C29 0.952 . S
H9 C30 0.949 . S
H10 C32 0.950 . S
H11 C33 0.948 . S
H12 C35 0.951 . S
H13 C0 0.947 . S
H14 C2 0.952 . S
H15 C3 0.950 . S
N16 C19 1.382 . S
N16 C21 1.363 . S
N17 C19 1.371 . S
N17 C20 1.372 . S
N18 C20 1.361 . S
N18 C21 1.377 . S
C19 N16 1.382 . S
C19 N17 1.371 . S
C19 C22 1.480 . S
C20 N17 1.372 . S
C20 N18 1.361 . S
C20 C28 1.457 . S
C21 N16 1.363 . S
C21 N18 1.377 . S
C21 C34 1.479 . S
C22 C19 1.480 . S
C22 C23 1.383 . S
C22 C27 1.385 . S
C23 H4 0.947 . S
C23 C22 1.383 . S
C23 C24 1.388 . S
C24 H5 0.946 . S
C24 C23 1.388 . S
C24 C25 1.384 . S
C25 C24 1.384 . S
C25 C26 1.377 . S
C26 H6 0.953 . S
C26 C25 1.377 . S
C26 C27 1.369 . S
C27 H7 0.945 . S
C27 C22 1.385 . S
C27 C26 1.369 . S
C28 C20 1.457 . S
C28 C29 1.372 . S
C28 C33 1.364 . S
C29 H8 0.952 . S
C29 C28 1.372 . S
C29 C30 1.389 . S
C30 H9 0.949 . S
C30 C29 1.389 . S
C30 C31 1.387 . S
C31 C30 1.387 . S
C31 C32 1.372 . S
C32 H10 0.950 . S
C32 C31 1.372 . S
C32 C33 1.379 . S
C33 H11 0.948 . S
C33 C28 1.364 . S
C33 C32 1.379 . S
C34 C3 1.383 . S
C34 C21 1.479 . S
C34 C35 1.398 . S
C35 C0 1.382 . S
C35 H12 0.951 . S
C35 C34 1.398 . S
C36 C37 1.384 . S
C36 H49 0.947 . S
C36 C71 1.382 . S
C37 C36 1.384 . S
C37 C38 1.378 . S
C38 C37 1.378 . S
C38 C39 1.378 . S
C38 H50 0.952 . S
C39 C38 1.378 . S
C39 H51 0.950 . S
C39 C70 1.383 . S
H40 C59 0.947 . S
H41 C60 0.946 . S
H42 C62 0.953 . S
H43 C63 0.945 . S
H44 C65 0.952 . S
H45 C66 0.949 . S
H46 C68 0.950 . S
H47 C69 0.948 . S
H48 C71 0.951 . S
H49 C36 0.947 . S
H50 C38 0.952 . S
H51 C39 0.950 . S
N52 C55 1.382 . S
N52 C57 1.363 . S
N53 C55 1.371 . S
N53 C56 1.372 . S
N54 C56 1.361 . S
N54 C57 1.377 . S
C55 N52 1.382 . S
C55 N53 1.371 . S
C55 C58 1.480 . S
C56 N53 1.372 . S
C56 N54 1.361 . S
C56 C64 1.457 . S
C57 N52 1.363 . S
C57 N54 1.377 . S
C57 C70 1.479 . S
C58 C55 1.480 . S
C58 C59 1.383 . S
C58 C63 1.385 . S
C59 H40 0.947 . S
C59 C58 1.383 . S
C59 C60 1.388 . S
C60 H41 0.946 . S
C60 C59 1.388 . S
C60 C61 1.384 . S
C61 C60 1.384 . S
C61 C62 1.377 . S
C62 H42 0.953 . S
C62 C61 1.377 . S
C62 C63 1.369 . S
C63 H43 0.945 . S
C63 C58 1.385 . S
C63 C62 1.369 . S
C64 C56 1.457 . S
C64 C65 1.372 . S
C64 C69 1.364 . S
C65 H44 0.952 . S
C65 C64 1.372 . S
C65 C66 1.389 . S
C66 H45 0.949 . S
C66 C65 1.389 . S
C66 C67 1.387 . S
C67 C66 1.387 . S
C67 C68 1.372 . S
C68 H46 0.950 . S
C68 C67 1.372 . S
C68 C69 1.379 . S
C69 H47 0.948 . S
C69 C64 1.364 . S
C69 C68 1.379 . S
C70 C39 1.383 . S
C70 C57 1.479 . S
C70 C71 1.398 . S
C71 C36 1.382 . S
C71 H48 0.951 . S
C71 C70 1.398 . S
C72 C73 1.384 . S
C72 H85 0.947 . S
C72 C107 1.382 . S
C73 C72 1.384 . S
C73 C74 1.378 . S
C74 C73 1.378 . S
C74 C75 1.378 . S
C74 H86 0.952 . S
C75 C74 1.378 . S
C75 H87 0.950 . S
C75 C106 1.383 . S
H76 C95 0.947 . S
H77 C96 0.946 . S
H78 C98 0.953 . S
H79 C99 0.945 . S
H80 C101 0.952 . S
H81 C102 0.949 . S
H82 C104 0.950 . S
H83 C105 0.948 . S
H84 C107 0.951 . S
H85 C72 0.947 . S
H86 C74 0.952 . S
H87 C75 0.950 . S
N88 C91 1.382 . S
N88 C93 1.363 . S
N89 C91 1.371 . S
N89 C92 1.372 . S
N90 C92 1.361 . S
N90 C93 1.377 . S
C91 N88 1.382 . S
C91 N89 1.371 . S
C91 C94 1.480 . S
C92 N89 1.372 . S
C92 N90 1.361 . S
C92 C100 1.457 . S
C93 N88 1.363 . S
C93 N90 1.377 . S
C93 C106 1.479 . S
C94 C91 1.480 . S
C94 C95 1.383 . S
C94 C99 1.385 . S
C95 H76 0.947 . S
C95 C94 1.383 . S
C95 C96 1.388 . S
C96 H77 0.946 . S
C96 C95 1.388 . S
C96 C97 1.384 . S
C97 C96 1.384 . S
C97 C98 1.377 . S
C98 H78 0.953 . S
C98 C97 1.377 . S
C98 C99 1.369 . S
C99 H79 0.945 . S
C99 C94 1.385 . S
C99 C98 1.369 . S
C100 C92 1.457 . S
C100 C101 1.372 . S
C100 C105 1.364 . S
C101 H80 0.952 . S
C101 C100 1.372 . S
C101 C102 1.389 . S
C102 H81 0.949 . S
C102 C101 1.389 . S
C102 C103 1.387 . S
C103 C102 1.387 . S
C103 C104 1.372 . S
C104 H82 0.950 . S
C104 C103 1.372 . S
C104 C105 1.379 . S
C105 H83 0.948 . S
C105 C100 1.364 . S
C105 C104 1.379 . S
C106 C75 1.383 . S
C106 C93 1.479 . S
C106 C107 1.398 . S
C107 C72 1.382 . S
C107 H84 0.951 . S
C107 C106 1.398 . S
C108 C109 1.384 . S
C108 H121 0.947 . S
C108 C143 1.382 . S
C109 C108 1.384 . S
C109 C110 1.378 . S
C110 C109 1.378 . S
C110 C111 1.378 . S
C110 H122 0.952 . S
C111 C110 1.378 . S
C111 H123 0.950 . S
C111 C142 1.383 . S
H112 C131 0.947 . S
H113 C132 0.946 . S
H114 C134 0.953 . S
H115 C135 0.945 . S
H116 C137 0.952 . S
H117 C138 0.949 . S
H118 C140 0.950 . S
H119 C141 0.948 . S
H120 C143 0.951 . S
H121 C108 0.947 . S
H122 C110 0.952 . S
H123 C111 0.950 . S
N124 C127 1.382 . S
N124 C129 1.363 . S
N125 C127 1.371 . S
N125 C128 1.372 . S
N126 C128 1.361 . S
N126 C129 1.377 . S
C127 N124 1.382 . S
C127 N125 1.371 . S
C127 C130 1.480 . S
C128 N125 1.372 . S
C128 N126 1.361 . S
C128 C136 1.457 . S
C129 N124 1.363 . S
C129 N126 1.377 . S
C129 C142 1.479 . S
C130 C127 1.480 . S
C130 C131 1.383 . S
C130 C135 1.385 . S
C131 H112 0.947 . S
C131 C130 1.383 . S
C131 C132 1.388 . S
C132 H113 0.946 . S
C132 C131 1.388 . S
C132 C133 1.384 . S
C133 C132 1.384 . S
C133 C134 1.377 . S
C134 H114 0.953 . S
C134 C133 1.377 . S
C134 C135 1.369 . S
C135 H115 0.945 . S
C135 C130 1.385 . S
C135 C134 1.369 . S
C136 C128 1.457 . S
C136 C137 1.372 . S
C136 C141 1.364 . S
C137 H116 0.952 . S
C137 C136 1.372 . S
C137 C138 1.389 . S
C138 H117 0.949 . S
C138 C137 1.389 . S
C138 C139 1.387 . S
C139 C138 1.387 . S
C139 C140 1.372 . S
C140 H118 0.950 . S
C140 C139 1.372 . S
C140 C141 1.379 . S
C141 H119 0.948 . S
C141 C136 1.364 . S
C141 C140 1.379 . S
C142 C111 1.383 . S
C142 C129 1.479 . S
C142 C143 1.398 . S
C143 C108 1.382 . S
C143 H120 0.951 . S
C143 C142 1.398 . S
C144 C145 1.384 . S
C144 H157 0.947 . S
C144 C179 1.382 . S
C145 C144 1.384 . S
C145 C146 1.378 . S
C146 C145 1.378 . S
C146 C147 1.378 . S
C146 H158 0.952 . S
C147 C146 1.378 . S
C147 H159 0.950 . S
C147 C178 1.383 . S
H148 C167 0.947 . S
H149 C168 0.946 . S
H150 C170 0.953 . S
H151 C171 0.945 . S
H152 C173 0.952 . S
H153 C174 0.949 . S
H154 C176 0.950 . S
H155 C177 0.948 . S
H156 C179 0.951 . S
H157 C144 0.947 . S
H158 C146 0.952 . S
H159 C147 0.950 . S
N160 C163 1.382 . S
N160 C165 1.363 . S
N161 C163 1.371 . S
N161 C164 1.372 . S
N162 C164 1.361 . S
N162 C165 1.377 . S
C163 N160 1.382 . S
C163 N161 1.371 . S
C163 C166 1.480 . S
C164 N161 1.372 . S
C164 N162 1.361 . S
C164 C172 1.457 . S
C165 N160 1.363 . S
C165 N162 1.377 . S
C165 C178 1.479 . S
C166 C163 1.480 . S
C166 C167 1.383 . S
C166 C171 1.385 . S
C167 H148 0.947 . S
C167 C166 1.383 . S
C167 C168 1.388 . S
C168 H149 0.946 . S
C168 C167 1.388 . S
C168 C169 1.384 . S
C169 C168 1.384 . S
C169 C170 1.377 . S
C170 H150 0.953 . S
C170 C169 1.377 . S
C170 C171 1.369 . S
C171 H151 0.945 . S
C171 C166 1.385 . S
C171 C170 1.369 . S
C172 C164 1.457 . S
C172 C173 1.372 . S
C172 C177 1.364 . S
C173 H152 0.952 . S
C173 C172 1.372 . S
C173 C174 1.389 . S
C174 H153 0.949 . S
C174 C173 1.389 . S
C174 C175 1.387 . S
C175 C174 1.387 . S
C175 C176 1.372 . S
C176 H154 0.950 . S
C176 C175 1.372 . S
C176 C177 1.379 . S
C177 H155 0.948 . S
C177 C172 1.364 . S
C177 C176 1.379 . S
C178 C147 1.383 . S
C178 C165 1.479 . S
C178 C179 1.398 . S
C179 C144 1.382 . S
C179 H156 0.951 . S
C179 C178 1.398 . S
C180 C181 1.384 . S
C180 H193 0.947 . S
C180 C215 1.382 . S
C181 C180 1.384 . S
C181 C182 1.378 . S
C182 C181 1.378 . S
C182 C183 1.378 . S
C182 H194 0.952 . S
C183 C182 1.378 . S
C183 H195 0.950 . S
C183 C214 1.383 . S
H184 C203 0.947 . S
H185 C204 0.946 . S
H186 C206 0.953 . S
H187 C207 0.945 . S
H188 C209 0.952 . S
H189 C210 0.949 . S
H190 C212 0.950 . S
H191 C213 0.948 . S
H192 C215 0.951 . S
H193 C180 0.947 . S
H194 C182 0.952 . S
H195 C183 0.950 . S
N196 C199 1.382 . S
N196 C201 1.363 . S
N197 C199 1.371 . S
N197 C200 1.372 . S
N198 C200 1.361 . S
N198 C201 1.377 . S
C199 N196 1.382 . S
C199 N197 1.371 . S
C199 C202 1.480 . S
C200 N197 1.372 . S
C200 N198 1.361 . S
C200 C208 1.457 . S
C201 N196 1.363 . S
C201 N198 1.377 . S
C201 C214 1.479 . S
C202 C199 1.480 . S
C202 C203 1.383 . S
C202 C207 1.385 . S
C203 H184 0.947 . S
C203 C202 1.383 . S
C203 C204 1.388 . S
C204 H185 0.946 . S
C204 C203 1.388 . S
C204 C205 1.384 . S
C205 C204 1.384 . S
C205 C206 1.377 . S
C206 H186 0.953 . S
C206 C205 1.377 . S
C206 C207 1.369 . S
C207 H187 0.945 . S
C207 C202 1.385 . S
C207 C206 1.369 . S
C208 C200 1.457 . S
C208 C209 1.372 . S
C208 C213 1.364 . S
C209 H188 0.952 . S
C209 C208 1.372 . S
C209 C210 1.389 . S
C210 H189 0.949 . S
C210 C209 1.389 . S
C210 C211 1.387 . S
C211 C210 1.387 . S
C211 C212 1.372 . S
C212 H190 0.950 . S
C212 C211 1.372 . S
C212 C213 1.379 . S
C213 H191 0.948 . S
C213 C208 1.364 . S
C213 C212 1.379 . S
C214 C183 1.383 . S
C214 C201 1.479 . S
C214 C215 1.398 . S
C215 C180 1.382 . S
C215 H192 0.951 . S
C215 C214 1.398 . S
C216 C217 1.384 . S
C216 H229 0.947 . S
C216 C251 1.382 . S
C217 C216 1.384 . S
C217 C218 1.378 . S
C218 C217 1.378 . S
C218 C219 1.378 . S
C218 H230 0.952 . S
C219 C218 1.378 . S
C219 H231 0.950 . S
C219 C250 1.383 . S
H220 C239 0.947 . S
H221 C240 0.946 . S
H222 C242 0.953 . S
H223 C243 0.945 . S
H224 C245 0.952 . S
H225 C246 0.949 . S
H226 C248 0.950 . S
H227 C249 0.948 . S
H228 C251 0.951 . S
H229 C216 0.947 . S
H230 C218 0.952 . S
H231 C219 0.950 . S
N232 C235 1.382 . S
N232 C237 1.363 . S
N233 C235 1.371 . S
N233 C236 1.372 . S
N234 C236 1.361 . S
N234 C237 1.377 . S
C235 N232 1.382 . S
C235 N233 1.371 . S
C235 C238 1.480 . S
C236 N233 1.372 . S
C236 N234 1.361 . S
C236 C244 1.457 . S
C237 N232 1.363 . S
C237 N234 1.377 . S
C237 C250 1.479 . S
C238 C235 1.480 . S
C238 C239 1.383 . S
C238 C243 1.385 . S
C239 H220 0.947 . S
C239 C238 1.383 . S
C239 C240 1.388 . S
C240 H221 0.946 . S
C240 C239 1.388 . S
C240 C241 1.384 . S
C241 C240 1.384 . S
C241 C242 1.377 . S
C242 H222 0.953 . S
C242 C241 1.377 . S
C242 C243 1.369 . S
C243 H223 0.945 . S
C243 C238 1.385 . S
C243 C242 1.369 . S
C244 C236 1.457 . S
C244 C245 1.372 . S
C244 C249 1.364 . S
C245 H224 0.952 . S
C245 C244 1.372 . S
C245 C246 1.389 . S
C246 H225 0.949 . S
C246 C245 1.389 . S
C246 C247 1.387 . S
C247 C246 1.387 . S
C247 C248 1.372 . S
C248 H226 0.950 . S
C248 C247 1.372 . S
C248 C249 1.379 . S
C249 H227 0.948 . S
C249 C244 1.364 . S
C249 C248 1.379 . S
C250 C219 1.383 . S
C250 C237 1.479 . S
C250 C251 1.398 . S
C251 C216 1.382 . S
C251 H228 0.951 . S
C251 C250 1.398 . S
C252 C253 1.384 . S
C252 H265 0.947 . S
C252 C287 1.382 . S
C253 C252 1.384 . S
C253 C254 1.378 . S
C254 C253 1.378 . S
C254 C255 1.378 . S
C254 H266 0.952 . S
C255 C254 1.378 . S
C255 H267 0.950 . S
C255 C286 1.383 . S
H256 C275 0.947 . S
H257 C276 0.946 . S
H258 C278 0.953 . S
H259 C279 0.945 . S
H260 C281 0.952 . S
H261 C282 0.949 . S
H262 C284 0.950 . S
H263 C285 0.948 . S
H264 C287 0.951 . S
H265 C252 0.947 . S
H266 C254 0.952 . S
H267 C255 0.950 . S
N268 C271 1.382 . S
N268 C273 1.363 . S
N269 C271 1.371 . S
N269 C272 1.372 . S
N270 C272 1.361 . S
N270 C273 1.377 . S
C271 N268 1.382 . S
C271 N269 1.371 . S
C271 C274 1.480 . S
C272 N269 1.372 . S
C272 N270 1.361 . S
C272 C280 1.457 . S
C273 N268 1.363 . S
C273 N270 1.377 . S
C273 C286 1.479 . S
C274 C271 1.480 . S
C274 C275 1.383 . S
C274 C279 1.385 . S
C275 H256 0.947 . S
C275 C274 1.383 . S
C275 C276 1.388 . S
C276 H257 0.946 . S
C276 C275 1.388 . S
C276 C277 1.384 . S
C277 C276 1.384 . S
C277 C278 1.377 . S
C278 H258 0.953 . S
C278 C277 1.377 . S
C278 C279 1.369 . S
C279 H259 0.945 . S
C279 C274 1.385 . S
C279 C278 1.369 . S
C280 C272 1.457 . S
C280 C281 1.372 . S
C280 C285 1.364 . S
C281 H260 0.952 . S
C281 C280 1.372 . S
C281 C282 1.389 . S
C282 H261 0.949 . S
C282 C281 1.389 . S
C282 C283 1.387 . S
C283 C282 1.387 . S
C283 C284 1.372 . S
C284 H262 0.950 . S
C284 C283 1.372 . S
C284 C285 1.379 . S
C285 H263 0.948 . S
C285 C280 1.364 . S
C285 C284 1.379 . S
C286 C255 1.383 . S
C286 C273 1.479 . S
C286 C287 1.398 . S
C287 C252 1.382 . S
C287 H264 0.951 . S
C287 C286 1.398 . S
O288 Zn289 1.964 . S
O288 C304 1.201 1_655 S
Zn289 O288 1.964 . S
Zn289 O290 1.949 1_655 S
Zn289 O296 1.919 . S
Zn289 O301 1.924 . S
O290 Zn289 1.949 1_455 S
O290 Zn291 1.923 1_445 S
O290 Zn292 1.950 . S
O290 Zn293 1.945 1_545 S
Zn291 O290 1.923 1_665 S
Zn291 O294 1.933 . S
Zn291 O297 1.941 1_565 S
Zn291 O298 1.965 1_665 S
Zn292 O290 1.950 . S
Zn292 O299 1.938 . S
Zn292 O300 1.911 . S
Zn292 O310 1.953 . S
Zn293 O290 1.945 1_565 S
Zn293 O295 1.932 1_455 S
Zn293 O302 1.977 . S
Zn293 O303 1.910 1_455 S
O294 Zn291 1.933 . S
O294 C305 1.226 . S
O295 Zn293 1.932 1_655 S
O295 C305 1.307 . S
O296 Zn289 1.919 . S
O296 C307 1.253 . S
O297 Zn291 1.941 1_545 S
O297 C307 1.283 . S
O298 Zn291 1.965 1_445 S
O298 C306 1.303 . S
O299 Zn292 1.938 . S
O299 C306 1.247 . S
O300 Zn292 1.911 . S
O300 C308 1.297 1_545 S
O301 Zn289 1.924 . S
O301 C309 1.310 1_545 S
O302 Zn293 1.977 . S
O302 C308 1.272 . S
O303 Zn293 1.910 1_655 S
O303 C309 1.232 . S
C304 O288 1.201 1_455 S
C304 O310 1.298 . S
C305 O294 1.226 . S
C305 O295 1.307 . S
C306 O298 1.303 . S
C306 O299 1.247 . S
C307 O296 1.253 . S
C307 O297 1.283 . S
C308 O300 1.297 1_565 S
C308 O302 1.272 . S
C309 O301 1.310 1_565 S
C309 O303 1.232 . S
O310 Zn292 1.953 . S
O310 C304 1.298 . S
O311 Zn312 1.953 . S
O311 C327 1.225 . S
Zn312 O311 1.953 . S
Zn312 O313 1.949 1_556 S
Zn312 O319 1.919 . S
Zn312 O324 1.924 1_556 S
O313 Zn312 1.949 1_554 S
O313 Zn314 1.923 1_545 S
O313 Zn315 1.950 . S
O313 Zn316 1.936 1_545 S
Zn314 O313 1.923 1_565 S
Zn314 O317 1.933 . S
Zn314 O320 1.941 1_554 S
Zn314 O321 1.965 . S
Zn315 O313 1.950 . S
Zn315 O322 1.938 . S
Zn315 O323 1.906 . S
Zn315 O333 1.953 . S
Zn316 O313 1.936 1_565 S
Zn316 O318 1.975 . S
Zn316 O325 1.965 1_565 S
Zn316 O326 1.887 1_565 S
O317 Zn314 1.933 . S
O317 C328 1.226 . S
O318 Zn316 1.975 . S
O318 C328 1.307 . S
O319 Zn312 1.919 . S
O319 C330 1.253 1_545 S
O320 Zn314 1.941 1_556 S
O320 C330 1.283 . S
O321 Zn314 1.965 . S
O321 C329 1.303 . S
O322 Zn315 1.938 . S
O322 C329 1.247 1_545 S
O323 Zn315 1.906 . S
O323 C331 1.304 . S
O324 Zn312 1.924 1_554 S
O324 C332 1.311 . S
O325 Zn316 1.965 1_545 S
O325 C331 1.272 . S
O326 Zn316 1.887 1_545 S
O326 C332 1.231 . S
C327 O311 1.225 . S
C327 O333 1.298 1_556 S
C328 O317 1.226 . S
C328 O318 1.307 . S
C329 O321 1.303 . S
C329 O322 1.247 1_565 S
C330 O319 1.253 1_565 S
C330 O320 1.283 . S
C331 O323 1.304 . S
C331 O325 1.272 . S
C332 O324 1.311 . S
C332 O326 1.231 . S
O333 Zn315 1.953 . S
O333 C327 1.298 1_554 S
O334 Zn335 1.953 . S
O334 C350 1.225 . S
Zn335 O334 1.953 . S
Zn335 O336 1.949 . S
Zn335 O342 1.919 . S
Zn335 O347 1.924 . S
O336 Zn335 1.949 . S
O336 Zn337 1.923 . S
O336 Zn338 1.950 . S
O336 Zn339 1.945 . S
Zn337 O336 1.923 . S
Zn337 O340 1.933 . S
Zn337 O343 1.941 . S
Zn337 O344 1.965 . S
Zn338 O336 1.950 . S
Zn338 O345 1.938 . S
Zn338 O346 1.906 . S
Zn338 O356 1.953 . S
Zn339 O336 1.945 . S
Zn339 O341 1.932 . S
Zn339 O348 1.977 . S
Zn339 O349 1.910 . S
O340 Zn337 1.933 . S
O340 C351 1.226 . S
O341 Zn339 1.932 . S
O341 C351 1.307 . S
O342 Zn335 1.919 . S
O342 C353 1.253 . S
O343 Zn337 1.941 . S
O343 C353 1.283 . S
O344 Zn337 1.965 . S
O344 C352 1.303 . S
O345 Zn338 1.938 . S
O345 C352 1.247 . S
O346 Zn338 1.906 . S
O346 C354 1.304 . S
O347 Zn335 1.924 . S
O347 C355 1.311 . S
O348 Zn339 1.977 . S
O348 C354 1.272 . S
O349 Zn339 1.910 . S
O349 C355 1.231 . S
C350 O334 1.225 . S
C350 O356 1.298 . S
C351 O340 1.226 . S
C351 O341 1.307 . S
C352 O344 1.303 . S
C352 O345 1.247 . S
C353 O342 1.253 . S
C353 O343 1.283 . S
C354 O346 1.304 . S
C354 O348 1.272 . S
C355 O347 1.311 . S
C355 O349 1.231 . S
O356 Zn338 1.953 . S
O356 C350 1.298 . S
O357 Zn358 1.953 . S
O357 C373 1.225 . S
Zn358 O357 1.953 . S
Zn358 O359 1.949 1_655 S
Zn358 O365 1.919 . S
Zn358 O370 1.938 . S
O359 Zn358 1.949 1_455 S
O359 Zn360 1.923 1_454 S
O359 Zn361 1.950 . S
O359 Zn362 1.945 1_554 S
Zn360 O359 1.923 1_656 S
Zn360 O363 1.933 1_655 S
Zn360 O366 1.941 . S
Zn360 O367 1.965 . S
Zn361 O359 1.950 . S
Zn361 O368 1.938 . S
Zn361 O369 1.906 . S
Zn361 O379 1.953 . S
Zn362 O359 1.945 1_556 S
Zn362 O364 1.932 . S
Zn362 O371 1.977 1_556 S
Zn362 O372 1.910 1_556 S
O363 Zn360 1.933 1_455 S
O363 C374 1.226 . S
O364 Zn362 1.932 . S
O364 C374 1.307 . S
O365 Zn358 1.919 . S
O365 C376 1.253 1_554 S
O366 Zn360 1.941 . S
O366 C376 1.283 . S
O367 Zn360 1.965 . S
O367 C375 1.303 . S
O368 Zn361 1.938 . S
O368 C375 1.247 1_454 S
O369 Zn361 1.906 . S
O369 C377 1.304 . S
O370 Zn358 1.938 . S
O370 C378 1.281 1_655 S
O371 Zn362 1.977 1_554 S
O371 C377 1.272 . S
O372 Zn362 1.910 1_554 S
O372 C378 1.231 . S
C373 O357 1.225 . S
C373 O379 1.298 1_655 S
C374 O363 1.226 . S
C374 O364 1.307 . S
C375 O367 1.303 . S
C375 O368 1.247 1_656 S
C376 O365 1.253 1_556 S
C376 O366 1.283 . S
C377 O369 1.304 . S
C377 O371 1.272 . S
C378 O370 1.281 1_455 S
C378 O372 1.231 . S
O379 Zn361 1.953 . S
O379 C373 1.298 1_455 S
H380 C398 0.951 . S
H381 C400 0.951 . S
H382 C402 0.950 . S
H383 C403 0.950 . S
H384 C405 0.950 . S
H385 C408 0.950 . S
H386 C409 0.950 . S
H387 C411 0.950 . S
H388 C412 0.950 . S
H389 C413 0.951 . S
H390 C415 0.951 . S
H391 C417 0.950 . S
H392 C418 0.950 . S
H393 C420 0.950 . S
H394 C423 0.950 . S
H395 C424 0.950 . S
H396 C426 0.950 . S
H397 C427 0.950 . S
C398 H380 0.951 . S
C398 C399 1.366 . S
C398 C400 1.388 . S
C399 C398 1.366 . S
C399 C403 1.385 . S
C400 H381 0.951 . S
C400 C398 1.388 . S
C400 C401 1.366 . S
C401 C400 1.366 . S
C401 C402 1.414 . S
C401 C404 1.499 . S
C402 H382 0.950 . S
C402 C401 1.414 . S
C402 C403 1.374 . S
C403 H383 0.950 . S
C403 C399 1.385 . S
C403 C402 1.374 . S
C404 C401 1.499 . S
C404 C405 1.373 . S
C404 C406 1.389 . S
C405 H384 0.950 . S
C405 C404 1.373 . S
C405 C421 1.377 . S
C406 C404 1.389 . S
C406 C407 1.524 . S
C406 C420 1.377 . S
C407 C406 1.524 . S
C407 C408 1.397 . S
C407 C412 1.363 . S
C408 H385 0.950 . S
C408 C407 1.397 . S
C408 C409 1.334 . S
C409 H386 0.950 . S
C409 C408 1.334 . S
C409 C410 1.287 . S
C410 C409 1.287 . S
C410 C411 1.524 . S
C410 H429 0.913 . S
C411 H387 0.950 . S
C411 C410 1.524 . S
C411 C412 1.415 . S
C412 H388 0.950 . S
C412 C407 1.363 . S
C412 C411 1.415 . S
C413 H389 0.951 . S
C413 C414 1.366 . S
C413 C415 1.388 . S
C414 C413 1.366 . S
C414 C418 1.385 . S
C415 H390 0.951 . S
C415 C413 1.388 . S
C415 C416 1.366 . S
C416 C415 1.366 . S
C416 C417 1.414 . S
C416 C419 1.499 . S
C417 H391 0.950 . S
C417 C416 1.414 . S
C417 C418 1.374 . S
C418 H392 0.950 . S
C418 C414 1.385 . S
C418 C417 1.374 . S
C419 C416 1.499 . S
C419 C420 1.373 . S
C419 C421 1.389 . S
C420 H393 0.950 . S
C420 C406 1.377 . S
C420 C419 1.373 . S
C421 C405 1.377 . S
C421 C419 1.389 . S
C421 C422 1.524 . S
C422 C421 1.524 . S
C422 C423 1.397 . S
C422 C427 1.363 . S
C423 H394 0.950 . S
C423 C422 1.397 . S
C423 C424 1.334 1_455 S
C424 H395 0.950 . S
C424 C423 1.334 1_655 S
C424 C425 1.287 1_645 S
C425 C424 1.287 1_465 S
C425 C426 1.524 . S
C425 H428 0.999 1_455 S
C426 H396 0.950 . S
C426 C425 1.524 . S
C426 C427 1.415 1_565 S
C427 H397 0.950 . S
C427 C422 1.363 . S
C427 C426 1.415 1_545 S
H428 C425 0.999 1_655 S
H429 C410 0.913 . S
H430 C448 0.951 . S
H431 C450 0.951 . S
H432 C452 0.950 . S
H433 C453 0.950 . S
H434 C455 0.950 . S
H435 C458 0.950 . S
H436 C459 0.950 . S
H437 C461 0.950 . S
H438 C462 0.950 . S
H439 C463 0.951 . S
H440 C465 0.951 . S
H441 C467 0.950 . S
H442 C468 0.950 . S
H443 C470 0.950 . S
H444 C473 0.950 . S
H445 C474 0.950 . S
H446 C476 0.950 . S
H447 C477 0.950 . S
C448 H430 0.951 . S
C448 C449 1.366 . S
C448 C450 1.388 . S
C449 C448 1.366 . S
C449 C453 1.385 . S
C450 H431 0.951 . S
C450 C448 1.388 . S
C450 C451 1.366 . S
C451 C450 1.366 . S
C451 C452 1.414 . S
C451 C454 1.499 . S
C452 H432 0.950 . S
C452 C451 1.414 . S
C452 C453 1.374 . S
C453 H433 0.950 . S
C453 C449 1.385 . S
C453 C452 1.374 . S
C454 C451 1.499 . S
C454 C455 1.373 . S
C454 C456 1.389 . S
C455 H434 0.950 . S
C455 C454 1.373 . S
C455 C471 1.377 . S
C456 C454 1.389 . S
C456 C457 1.524 . S
C456 C470 1.377 . S
C457 C456 1.524 . S
C457 C458 1.397 . S
C457 C462 1.363 . S
C458 H435 0.950 . S
C458 C457 1.397 . S
C458 C459 1.334 . S
C459 H436 0.950 . S
C459 C458 1.334 . S
C459 C460 1.287 . S
C460 C459 1.287 . S
C460 C461 1.524 . S
C460 H479 0.913 . S
C461 H437 0.950 . S
C461 C460 1.524 . S
C461 C462 1.415 . S
C462 H438 0.950 . S
C462 C457 1.363 . S
C462 C461 1.415 . S
C463 H439 0.951 . S
C463 C464 1.366 . S
C463 C465 1.388 . S
C464 C463 1.366 . S
C464 C468 1.385 . S
C465 H440 0.951 . S
C465 C463 1.388 . S
C465 C466 1.366 . S
C466 C465 1.366 . S
C466 C467 1.414 . S
C466 C469 1.499 . S
C467 H441 0.950 . S
C467 C466 1.414 . S
C467 C468 1.374 . S
C468 H442 0.950 . S
C468 C464 1.385 . S
C468 C467 1.374 . S
C469 C466 1.499 . S
C469 C470 1.373 . S
C469 C471 1.389 . S
C470 H443 0.950 . S
C470 C456 1.377 . S
C470 C469 1.373 . S
C471 C455 1.377 . S
C471 C469 1.389 . S
C471 C472 1.524 . S
C472 C471 1.524 . S
C472 C473 1.397 . S
C472 C477 1.363 . S
C473 H444 0.950 . S
C473 C472 1.397 . S
C473 C474 1.334 . S
C474 H445 0.950 . S
C474 C473 1.334 . S
C474 C475 1.287 . S
C475 C474 1.287 . S
C475 C476 1.524 . S
C475 H478 0.999 . S
C476 H446 0.950 . S
C476 C475 1.524 . S
C476 C477 1.415 . S
C477 H447 0.950 . S
C477 C472 1.363 . S
C477 C476 1.415 . S
H478 C475 0.999 . S
H479 C460 0.913 . S
H480 C498 0.951 . S
H481 C500 0.951 . S
H482 C502 0.950 . S
H483 C503 0.950 . S
H484 C505 0.950 . S
H485 C508 0.950 . S
H486 C509 0.950 . S
H487 C511 0.950 . S
H488 C512 0.950 . S
H489 C513 0.951 . S
H490 C515 0.951 . S
H491 C517 0.950 . S
H492 C518 0.950 . S
H493 C520 0.950 . S
H494 C523 0.950 . S
H495 C524 0.950 . S
H496 C526 0.950 . S
H497 C527 0.950 . S
C498 H480 0.951 . S
C498 C499 1.366 . S
C498 C500 1.388 . S
C499 C498 1.366 . S
C499 C503 1.385 . S
C500 H481 0.951 . S
C500 C498 1.388 . S
C500 C501 1.366 . S
C501 C500 1.366 . S
C501 C502 1.414 . S
C501 C504 1.499 . S
C502 H482 0.950 . S
C502 C501 1.414 . S
C502 C503 1.374 . S
C503 H483 0.950 . S
C503 C499 1.385 . S
C503 C502 1.374 . S
C504 C501 1.499 . S
C504 C505 1.373 . S
C504 C506 1.389 . S
C505 H484 0.950 . S
C505 C504 1.373 . S
C505 C521 1.377 . S
C506 C504 1.389 . S
C506 C507 1.524 . S
C506 C520 1.377 . S
C507 C506 1.524 . S
C507 C508 1.397 . S
C507 C512 1.363 . S
C508 H485 0.950 . S
C508 C507 1.397 . S
C508 C509 1.334 . S
C509 H486 0.950 . S
C509 C508 1.334 . S
C509 C510 1.287 . S
C510 C509 1.287 . S
C510 C511 1.524 . S
C510 H529 0.913 . S
C511 H487 0.950 . S
C511 C510 1.524 . S
C511 C512 1.415 . S
C512 H488 0.950 . S
C512 C507 1.363 . S
C512 C511 1.415 . S
C513 H489 0.951 . S
C513 C514 1.366 . S
C513 C515 1.388 . S
C514 C513 1.366 . S
C514 C518 1.385 . S
C515 H490 0.951 . S
C515 C513 1.388 . S
C515 C516 1.366 . S
C516 C515 1.366 . S
C516 C517 1.414 . S
C516 C519 1.499 . S
C517 H491 0.950 . S
C517 C516 1.414 . S
C517 C518 1.374 . S
C518 H492 0.950 . S
C518 C514 1.385 . S
C518 C517 1.374 . S
C519 C516 1.499 . S
C519 C520 1.373 . S
C519 C521 1.389 . S
C520 H493 0.950 . S
C520 C506 1.377 . S
C520 C519 1.373 . S
C521 C505 1.377 . S
C521 C519 1.389 . S
C521 C522 1.524 . S
C522 C521 1.524 . S
C522 C523 1.397 . S
C522 C527 1.363 . S
C523 H494 0.950 . S
C523 C522 1.397 . S
C523 C524 1.334 . S
C524 H495 0.950 . S
C524 C523 1.334 . S
C524 C525 1.287 . S
C525 C524 1.287 . S
C525 C526 1.524 . S
C525 H528 0.999 . S
C526 H496 0.950 . S
C526 C525 1.524 . S
C526 C527 1.415 . S
C527 H497 0.950 . S
C527 C522 1.363 . S
C527 C526 1.415 . S
H528 C525 0.999 . S
H529 C510 0.913 . S
H530 C548 0.951 . S
H531 C550 0.951 . S
H532 C552 0.950 . S
H533 C553 0.950 . S
H534 C555 0.950 . S
H535 C558 0.950 1_655 S
H536 C559 0.950 . S
H537 C561 0.950 . S
H538 C562 0.968 . S
H539 C563 0.951 . S
H540 C565 0.951 . S
H541 C567 0.950 . S
H542 C568 0.950 . S
H543 C570 0.950 . S
H544 C573 0.950 . S
H545 C574 0.950 . S
H546 C576 0.950 . S
H547 C577 0.950 . S
C548 H530 0.951 . S
C548 C549 1.366 . S
C548 C550 1.388 . S
C549 C548 1.366 . S
C549 C553 1.385 . S
C550 H531 0.951 . S
C550 C548 1.388 . S
C550 C551 1.366 . S
C551 C550 1.366 . S
C551 C552 1.414 . S
C551 C554 1.499 . S
C552 H532 0.950 . S
C552 C551 1.414 . S
C552 C553 1.374 . S
C553 H533 0.950 . S
C553 C549 1.385 . S
C553 C552 1.374 . S
C554 C551 1.499 . S
C554 C555 1.373 . S
C554 C556 1.389 . S
C555 H534 0.950 . S
C555 C554 1.373 . S
C555 C571 1.377 . S
C556 C554 1.389 . S
C556 C557 1.524 . S
C556 C570 1.377 . S
C557 C556 1.524 . S
C557 C558 1.397 1_655 S
C557 C562 1.376 . S
C558 H535 0.950 1_455 S
C558 C557 1.397 1_455 S
C558 C559 1.334 . S
C559 H536 0.950 . S
C559 C558 1.334 . S
C559 C560 1.287 . S
C560 C559 1.287 . S
C560 C561 1.524 . S
C560 H579 0.913 . S
C561 H537 0.950 . S
C561 C560 1.524 . S
C561 C562 1.386 1_455 S
C562 H538 0.968 . S
C562 C557 1.376 . S
C562 C561 1.386 1_655 S
C563 H539 0.951 . S
C563 C564 1.366 . S
C563 C565 1.388 . S
C564 C563 1.366 . S
C564 C568 1.385 . S
C565 H540 0.951 . S
C565 C563 1.388 . S
C565 C566 1.366 . S
C566 C565 1.366 . S
C566 C567 1.414 . S
C566 C569 1.499 . S
C567 H541 0.950 . S
C567 C566 1.414 . S
C567 C568 1.374 . S
C568 H542 0.950 . S
C568 C564 1.385 . S
C568 C567 1.374 . S
C569 C566 1.499 . S
C569 C570 1.373 . S
C569 C571 1.389 . S
C570 H543 0.950 . S
C570 C556 1.377 . S
C570 C569 1.373 . S
C571 C555 1.377 . S
C571 C569 1.389 . S
C571 C572 1.524 . S
C572 C571 1.524 . S
C572 C573 1.397 . S
C572 C577 1.363 . S
C573 H544 0.950 . S
C573 C572 1.397 . S
C573 C574 1.334 . S
C574 H545 0.950 . S
C574 C573 1.334 . S
C574 C575 1.287 . S
C575 C574 1.287 . S
C575 C576 1.524 . S
C575 H578 0.999 . S
C576 H546 0.950 . S
C576 C575 1.524 . S
C576 C577 1.415 . S
C577 H547 0.950 . S
C577 C572 1.363 . S
C577 C576 1.415 . S
H578 C575 0.999 . S
H579 C560 0.913 . S
H580 C598 0.951 . S
H581 C600 0.951 . S
H582 C602 0.950 . S
H583 C603 0.950 . S
H584 C605 0.950 . S
H585 C608 0.950 . S
H586 C609 0.950 . S
H587 C611 0.950 1_565 S
H588 C612 0.950 . S
H589 C613 0.951 . S
H590 C615 0.951 . S
H591 C617 0.950 . S
H592 C618 0.950 . S
H593 C620 0.950 . S
H594 C623 0.950 . S
H595 C624 0.950 . S
H596 C626 0.950 . S
H597 C627 0.950 . S
C598 H580 0.951 . S
C598 C599 1.366 . S
C598 C600 1.388 . S
C599 C598 1.366 . S
C599 C603 1.385 . S
C600 H581 0.951 . S
C600 C598 1.388 . S
C600 C601 1.366 . S
C601 C600 1.366 . S
C601 C602 1.414 . S
C601 C604 1.499 . S
C602 H582 0.950 . S
C602 C601 1.414 . S
C602 C603 1.374 . S
C603 H583 0.950 . S
C603 C599 1.385 . S
C603 C602 1.374 . S
C604 C601 1.499 . S
C604 C605 1.373 . S
C604 C606 1.389 . S
C605 H584 0.950 . S
C605 C604 1.373 . S
C605 C621 1.377 . S
C606 C604 1.389 . S
C606 C607 1.524 . S
C606 C620 1.377 . S
C607 C606 1.524 . S
C607 C608 1.397 . S
C607 C612 1.363 . S
C608 H585 0.950 . S
C608 C607 1.397 . S
C608 C609 1.334 . S
C609 H586 0.950 . S
C609 C608 1.334 . S
C609 C610 1.287 . S
C610 C609 1.287 . S
C610 C611 1.524 . S
C610 H629 0.913 1_545 S
C611 H587 0.950 1_545 S
C611 C610 1.524 . S
C611 C612 1.415 . S
C612 H588 0.950 . S
C612 C607 1.363 . S
C612 C611 1.415 . S
C613 H589 0.951 . S
C613 C614 1.366 . S
C613 C615 1.388 . S
C614 C613 1.366 . S
C614 C618 1.385 . S
C615 H590 0.951 . S
C615 C613 1.388 . S
C615 C616 1.366 . S
C616 C615 1.366 . S
C616 C617 1.414 . S
C616 C619 1.499 . S
C617 H591 0.950 . S
C617 C616 1.414 . S
C617 C618 1.374 . S
C618 H592 0.950 . S
C618 C614 1.385 . S
C618 C617 1.374 . S
C619 C616 1.499 . S
C619 C620 1.373 . S
C619 C621 1.389 . S
C620 H593 0.950 . S
C620 C606 1.377 . S
C620 C619 1.373 . S
C621 C605 1.377 . S
C621 C619 1.389 . S
C621 C622 1.524 . S
C622 C621 1.524 . S
C622 C623 1.397 . S
C622 C627 1.363 . S
C623 H594 0.950 . S
C623 C622 1.397 . S
C623 C624 1.334 . S
C624 H595 0.950 . S
C624 C623 1.334 . S
C624 C625 1.287 . S
C625 C624 1.287 . S
C625 C626 1.524 . S
C625 H628 0.999 . S
C626 H596 0.950 . S
C626 C625 1.524 . S
C626 C627 1.415 . S
C627 H597 0.950 . S
C627 C622 1.363 . S
C627 C626 1.415 . S
H628 C625 0.999 . S
H629 C610 0.913 1_565 S
H630 C648 0.951 . S
H631 C650 0.951 . S
H632 C652 0.950 . S
H633 C653 0.950 . S
H634 C655 0.950 . S
H635 C658 0.950 . S
H636 C659 0.950 . S
H637 C661 0.950 . S
H638 C662 0.950 . S
H639 C663 0.951 . S
H640 C665 0.951 . S
H641 C667 0.950 . S
H642 C668 0.950 . S
H643 C670 0.950 . S
H644 C673 0.950 . S
H645 C674 0.950 . S
H646 C676 0.950 . S
H647 C677 0.950 . S
C648 H630 0.951 . S
C648 C649 1.366 . S
C648 C650 1.388 . S
C649 C648 1.366 . S
C649 C653 1.385 . S
C650 H631 0.951 . S
C650 C648 1.388 . S
C650 C651 1.366 . S
C651 C650 1.366 . S
C651 C652 1.414 . S
C651 C654 1.499 . S
C652 H632 0.950 . S
C652 C651 1.414 . S
C652 C653 1.374 . S
C653 H633 0.950 . S
C653 C649 1.385 . S
C653 C652 1.374 . S
C654 C651 1.499 . S
C654 C655 1.373 . S
C654 C656 1.389 . S
C655 H634 0.950 . S
C655 C654 1.373 . S
C655 C671 1.377 . S
C656 C654 1.389 . S
C656 C657 1.524 . S
C656 C670 1.377 . S
C657 C656 1.524 . S
C657 C658 1.397 . S
C657 C662 1.363 . S
C658 H635 0.950 . S
C658 C657 1.397 . S
C658 C659 1.334 . S
C659 H636 0.950 . S
C659 C658 1.334 . S
C659 C660 1.287 . S
C660 C659 1.287 . S
C660 C661 1.524 . S
C660 H679 0.913 . S
C661 H637 0.950 . S
C661 C660 1.524 . S
C661 C662 1.415 . S
C662 H638 0.950 . S
C662 C657 1.363 . S
C662 C661 1.415 . S
C663 H639 0.951 . S
C663 C664 1.366 . S
C663 C665 1.388 . S
C664 C663 1.366 . S
C664 C668 1.385 . S
C665 H640 0.951 . S
C665 C663 1.388 . S
C665 C666 1.366 . S
C666 C665 1.366 . S
C666 C667 1.414 . S
C666 C669 1.499 . S
C667 H641 0.950 . S
C667 C666 1.414 . S
C667 C668 1.374 . S
C668 H642 0.950 . S
C668 C664 1.385 . S
C668 C667 1.374 . S
C669 C666 1.499 . S
C669 C670 1.373 . S
C669 C671 1.389 . S
C670 H643 0.950 . S
C670 C656 1.377 . S
C670 C669 1.373 . S
C671 C655 1.377 . S
C671 C669 1.389 . S
C671 C672 1.524 . S
C672 C671 1.524 . S
C672 C673 1.397 . S
C672 C677 1.363 . S
C673 H644 0.950 . S
C673 C672 1.397 . S
C673 C674 1.334 . S
C674 H645 0.950 . S
C674 C673 1.334 . S
C674 C675 1.287 . S
C675 C674 1.287 . S
C675 C676 1.524 1_565 S
C675 H678 1.002 . S
C676 H646 0.950 . S
C676 C675 1.524 1_545 S
C676 C677 1.415 1_545 S
C677 H647 0.950 . S
C677 C672 1.363 . S
C677 C676 1.415 1_565 S
H678 C675 1.002 . S
H679 C660 0.913 . S
H680 C698 0.951 . S
H681 C700 0.951 . S
H682 C702 0.950 . S
H683 C703 0.950 . S
H684 C705 0.950 . S
H685 C708 0.950 . S
H686 C709 0.950 . S
H687 C711 0.950 . S
H688 C712 0.950 . S
H689 C713 0.951 . S
H690 C715 0.951 . S
H691 C717 0.950 . S
H692 C718 0.950 . S
H693 C720 0.950 . S
H694 C723 0.950 . S
H695 C724 0.950 . S
H696 C726 0.950 . S
H697 C727 0.950 . S
C698 H680 0.951 . S
C698 C699 1.366 . S
C698 C700 1.388 . S
C699 C698 1.366 . S
C699 C703 1.385 . S
C700 H681 0.951 . S
C700 C698 1.388 . S
C700 C701 1.366 . S
C701 C700 1.366 . S
C701 C702 1.414 . S
C701 C704 1.499 . S
C702 H682 0.950 . S
C702 C701 1.414 . S
C702 C703 1.374 . S
C703 H683 0.950 . S
C703 C699 1.385 . S
C703 C702 1.374 . S
C704 C701 1.499 . S
C704 C705 1.373 . S
C704 C706 1.389 . S
C705 H684 0.950 . S
C705 C704 1.373 . S
C705 C721 1.377 . S
C706 C704 1.389 . S
C706 C707 1.524 . S
C706 C720 1.377 . S
C707 C706 1.524 . S
C707 C708 1.397 . S
C707 C712 1.363 . S
C708 H685 0.950 . S
C708 C707 1.397 . S
C708 C709 1.334 1_556 S
C709 H686 0.950 . S
C709 C708 1.334 1_554 S
C709 C710 1.287 . S
C710 C709 1.287 . S
C710 C711 1.524 1_554 S
C710 H729 0.913 . S
C711 H687 0.950 . S
C711 C710 1.524 1_556 S
C711 C712 1.415 . S
C712 H688 0.950 . S
C712 C707 1.363 . S
C712 C711 1.415 . S
C713 H689 0.951 . S
C713 C714 1.366 . S
C713 C715 1.388 . S
C714 C713 1.366 . S
C714 C718 1.385 . S
C715 H690 0.951 . S
C715 C713 1.388 . S
C715 C716 1.366 . S
C716 C715 1.366 . S
C716 C717 1.414 . S
C716 C719 1.499 . S
C717 H691 0.950 . S
C717 C716 1.414 . S
C717 C718 1.374 . S
C718 H692 0.950 . S
C718 C714 1.385 . S
C718 C717 1.374 . S
C719 C716 1.499 . S
C719 C720 1.373 . S
C719 C721 1.389 . S
C720 H693 0.950 . S
C720 C706 1.377 . S
C720 C719 1.373 . S
C721 C705 1.377 . S
C721 C719 1.389 . S
C721 C722 1.524 . S
C722 C721 1.524 . S
C722 C723 1.397 . S
C722 C727 1.363 . S
C723 H694 0.950 . S
C723 C722 1.397 . S
C723 C724 1.334 . S
C724 H695 0.950 . S
C724 C723 1.334 . S
C724 C725 1.287 . S
C725 C724 1.287 . S
C725 C726 1.524 . S
C725 H728 0.999 . S
C726 H696 0.950 . S
C726 C725 1.524 . S
C726 C727 1.415 . S
C727 H697 0.950 . S
C727 C722 1.363 . S
C727 C726 1.415 . S
H728 C725 0.999 . S
H729 C710 0.913 . S
H730 C748 0.951 . S
H731 C750 0.951 . S
H732 C752 0.950 . S
H733 C753 0.950 . S
H734 C755 0.950 . S
H735 C758 0.950 . S
H736 C759 0.950 . S
H737 C761 0.950 . S
H738 C762 0.950 . S
H739 C763 0.951 . S
H740 C765 0.951 . S
H741 C767 0.950 . S
H742 C768 0.950 . S
H743 C770 0.950 . S
H744 C773 0.950 . S
H745 C774 0.950 . S
H746 C776 0.950 . S
H747 C777 0.950 . S
C748 H730 0.951 . S
C748 C749 1.366 . S
C748 C750 1.388 . S
C749 C748 1.366 . S
C749 C753 1.385 . S
C750 H731 0.951 . S
C750 C748 1.388 . S
C750 C751 1.366 . S
C751 C750 1.366 . S
C751 C752 1.414 . S
C751 C754 1.499 . S
C752 H732 0.950 . S
C752 C751 1.414 . S
C752 C753 1.374 . S
C753 H733 0.950 . S
C753 C749 1.385 . S
C753 C752 1.374 . S
C754 C751 1.499 . S
C754 C755 1.373 . S
C754 C756 1.389 . S
C755 H734 0.950 . S
C755 C754 1.373 . S
C755 C771 1.377 . S
C756 C754 1.389 . S
C756 C757 1.524 . S
C756 C770 1.377 . S
C757 C756 1.524 . S
C757 C758 1.397 . S
C757 C762 1.363 . S
C758 H735 0.950 . S
C758 C757 1.397 . S
C758 C759 1.334 . S
C759 H736 0.950 . S
C759 C758 1.334 . S
C759 C760 1.287 . S
C760 C759 1.287 . S
C760 C761 1.524 . S
C760 H779 0.913 . S
C761 H737 0.950 . S
C761 C760 1.524 . S
C761 C762 1.415 . S
C762 H738 0.950 . S
C762 C757 1.363 . S
C762 C761 1.415 . S
C763 H739 0.951 . S
C763 C764 1.366 . S
C763 C765 1.388 . S
C764 C763 1.366 . S
C764 C768 1.385 . S
C765 H740 0.951 . S
C765 C763 1.388 . S
C765 C766 1.366 . S
C766 C765 1.366 . S
C766 C767 1.414 . S
C766 C769 1.499 . S
C767 H741 0.950 . S
C767 C766 1.414 . S
C767 C768 1.374 . S
C768 H742 0.950 . S
C768 C764 1.385 . S
C768 C767 1.374 . S
C769 C766 1.499 . S
C769 C770 1.373 . S
C769 C771 1.389 . S
C770 H743 0.950 . S
C770 C756 1.377 . S
C770 C769 1.373 . S
C771 C755 1.377 . S
C771 C769 1.389 . S
C771 C772 1.524 . S
C772 C771 1.524 . S
C772 C773 1.397 . S
C772 C777 1.363 . S
C773 H744 0.950 . S
C773 C772 1.397 . S
C773 C774 1.334 . S
C774 H745 0.950 . S
C774 C773 1.334 . S
C774 C775 1.287 . S
C775 C774 1.287 . S
C775 C776 1.524 . S
C775 H778 0.999 . S
C776 H746 0.950 . S
C776 C775 1.524 . S
C776 C777 1.415 . S
C777 H747 0.950 . S
C777 C772 1.363 . S
C777 C776 1.415 . S
H778 C775 0.999 . S
H779 C760 0.913 . S
H780 C798 0.951 . S
H781 C800 0.951 . S
H782 C802 0.950 . S
H783 C803 0.950 . S
H784 C805 0.950 . S
H785 C808 0.950 . S
H786 C809 0.950 . S
H787 C811 0.950 . S
H788 C812 0.950 . S
H789 C813 0.951 1_655 S
H790 C815 0.951 . S
H791 C817 0.950 . S
H792 C818 0.950 . S
H793 C820 0.950 . S
H794 C823 0.950 . S
H795 C824 0.950 . S
H796 C826 0.950 . S
H797 C827 0.950 . S
C798 H780 0.951 . S
C798 C799 1.366 . S
C798 C800 1.388 . S
C799 C798 1.366 . S
C799 C803 1.385 . S
C800 H781 0.951 . S
C800 C798 1.388 . S
C800 C801 1.366 . S
C801 C800 1.366 . S
C801 C802 1.414 . S
C801 C804 1.499 . S
C802 H782 0.950 . S
C802 C801 1.414 . S
C802 C803 1.374 . S
C803 H783 0.950 . S
C803 C799 1.385 . S
C803 C802 1.374 . S
C804 C801 1.499 . S
C804 C805 1.373 . S
C804 C806 1.389 . S
C805 H784 0.950 . S
C805 C804 1.373 . S
C805 C821 1.377 . S
C806 C804 1.389 . S
C806 C807 1.524 . S
C806 C820 1.377 . S
C807 C806 1.524 . S
C807 C808 1.397 . S
C807 C812 1.363 . S
C808 H785 0.950 . S
C808 C807 1.397 . S
C808 C809 1.334 . S
C809 H786 0.950 . S
C809 C808 1.334 . S
C809 C810 1.287 . S
C810 C809 1.287 . S
C810 C811 1.524 . S
C810 H829 0.913 . S
C811 H787 0.950 . S
C811 C810 1.524 . S
C811 C812 1.415 . S
C812 H788 0.950 . S
C812 C807 1.363 . S
C812 C811 1.415 . S
C813 H789 0.951 1_455 S
C813 C814 1.366 . S
C813 C815 1.388 . S
C814 C813 1.366 . S
C814 C818 1.385 . S
C815 H790 0.951 . S
C815 C813 1.388 . S
C815 C816 1.366 . S
C816 C815 1.366 . S
C816 C817 1.414 . S
C816 C819 1.499 . S
C817 H791 0.950 . S
C817 C816 1.414 . S
C817 C818 1.374 . S
C818 H792 0.950 . S
C818 C814 1.385 . S
C818 C817 1.374 . S
C819 C816 1.499 . S
C819 C820 1.373 . S
C819 C821 1.389 . S
C820 H793 0.950 . S
C820 C806 1.377 . S
C820 C819 1.373 . S
C821 C805 1.377 . S
C821 C819 1.389 . S
C821 C822 1.524 . S
C822 C821 1.524 . S
C822 C823 1.397 . S
C822 C827 1.363 . S
C823 H794 0.950 . S
C823 C822 1.397 . S
C823 C824 1.334 1_554 S
C824 H795 0.950 . S
C824 C823 1.334 1_556 S
C824 C825 1.298 . S
C825 C824 1.298 . S
C825 C826 1.519 1_456 S
C825 H828 0.991 1_455 S
C826 H796 0.950 . S
C826 C825 1.519 1_654 S
C826 C827 1.415 1_655 S
C827 H797 0.950 . S
C827 C822 1.363 . S
C827 C826 1.415 1_455 S
H828 C825 0.991 1_655 S
H829 C810 0.913 . S
H830 C848 0.951 . S
H831 C850 0.951 . S
H832 C852 0.950 . S
H833 C853 0.950 . S
H834 C855 0.950 . S
H835 C858 0.950 . S
H836 C859 0.950 . S
H837 C861 0.950 . S
H838 C862 0.950 . S
H839 C863 0.951 . S
H840 C865 0.951 . S
H841 C867 0.950 . S
H842 C868 0.950 . S
H843 C870 0.950 . S
H844 C873 0.950 . S
H845 C874 0.950 . S
H846 C876 0.950 . S
H847 C877 0.950 . S
C848 H830 0.951 . S
C848 C849 1.366 . S
C848 C850 1.388 . S
C849 C848 1.366 . S
C849 C853 1.385 . S
C850 H831 0.951 . S
C850 C848 1.388 . S
C850 C851 1.366 . S
C851 C850 1.366 . S
C851 C852 1.414 . S
C851 C854 1.499 . S
C852 H832 0.950 . S
C852 C851 1.414 . S
C852 C853 1.374 . S
C853 H833 0.950 . S
C853 C849 1.385 . S
C853 C852 1.374 . S
C854 C851 1.499 . S
C854 C855 1.373 . S
C854 C856 1.389 . S
C855 H834 0.950 . S
C855 C854 1.373 . S
C855 C871 1.377 . S
C856 C854 1.389 . S
C856 C857 1.524 . S
C856 C870 1.377 . S
C857 C856 1.524 . S
C857 C858 1.397 . S
C857 C862 1.363 . S
C858 H835 0.950 . S
C858 C857 1.397 . S
C858 C859 1.334 . S
C859 H836 0.950 . S
C859 C858 1.334 . S
C859 C860 1.287 . S
C860 C859 1.287 . S
C860 C861 1.524 . S
C860 H879 0.913 . S
C861 H837 0.950 . S
C861 C860 1.524 . S
C861 C862 1.415 . S
C862 H838 0.950 . S
C862 C857 1.363 . S
C862 C861 1.415 . S
C863 H839 0.951 . S
C863 C864 1.366 . S
C863 C865 1.388 . S
C864 C863 1.366 . S
C864 C868 1.385 . S
C865 H840 0.951 . S
C865 C863 1.388 . S
C865 C866 1.366 . S
C866 C865 1.366 . S
C866 C867 1.414 . S
C866 C869 1.499 . S
C867 H841 0.950 . S
C867 C866 1.414 . S
C867 C868 1.374 . S
C868 H842 0.950 . S
C868 C864 1.385 . S
C868 C867 1.374 . S
C869 C866 1.499 . S
C869 C870 1.373 . S
C869 C871 1.389 . S
C870 H843 0.950 . S
C870 C856 1.377 . S
C870 C869 1.373 . S
C871 C855 1.377 . S
C871 C869 1.389 . S
C871 C872 1.524 1_556 S
C872 C871 1.524 1_554 S
C872 C873 1.397 . S
C872 C877 1.363 . S
C873 H844 0.950 . S
C873 C872 1.397 . S
C873 C874 1.334 . S
C874 H845 0.950 . S
C874 C873 1.334 . S
C874 C875 1.287 . S
C875 C874 1.287 . S
C875 C876 1.524 . S
C875 H878 0.999 . S
C876 H846 0.950 . S
C876 C875 1.524 . S
C876 C877 1.415 . S
C877 H847 0.950 . S
C877 C872 1.363 . S
C877 C876 1.415 . S
H878 C875 0.999 . S
H879 C860 0.913 . S
H880 C898 0.951 . S
H881 C900 0.951 . S
H882 C902 0.950 . S
H883 C903 0.950 . S
H884 C905 0.950 . S
H885 C908 0.950 . S
H886 C909 0.950 . S
H887 C911 0.950 . S
H888 C912 0.950 . S
H889 C913 0.951 1_455 S
H890 C915 0.951 1_455 S
H891 C917 0.950 . S
H892 C918 0.950 . S
H893 C920 0.950 . S
H894 C923 0.950 1_655 S
H895 C924 0.950 . S
H896 C926 0.950 . S
H897 C927 0.950 . S
C898 H880 0.951 . S
C898 C899 1.366 . S
C898 C900 1.388 . S
C899 C898 1.366 . S
C899 C903 1.385 . S
C900 H881 0.951 . S
C900 C898 1.388 . S
C900 C901 1.366 . S
C901 C900 1.366 . S
C901 C902 1.414 . S
C901 C904 1.499 . S
C902 H882 0.950 . S
C902 C901 1.414 . S
C902 C903 1.374 . S
C903 H883 0.950 . S
C903 C899 1.385 . S
C903 C902 1.374 . S
C904 C901 1.499 . S
C904 C905 1.373 . S
C904 C906 1.389 . S
C905 H884 0.950 . S
C905 C904 1.373 . S
C905 C921 1.377 . S
C906 C904 1.389 . S
C906 C907 1.524 . S
C906 C920 1.377 . S
C907 C906 1.524 . S
C907 C908 1.397 . S
C907 C912 1.363 . S
C908 H885 0.950 . S
C908 C907 1.397 . S
C908 C909 1.334 . S
C909 H886 0.950 . S
C909 C908 1.334 . S
C909 C910 1.287 . S
C910 C909 1.287 . S
C910 C911 1.524 . S
C910 H929 0.913 . S
C911 H887 0.950 . S
C911 C910 1.524 . S
C911 C912 1.415 . S
C912 H888 0.950 . S
C912 C907 1.363 . S
C912 C911 1.415 . S
C913 H889 0.951 1_655 S
C913 C914 1.366 . S
C913 C915 1.388 . S
C914 C913 1.366 . S
C914 C918 1.385 . S
C915 H890 0.951 1_655 S
C915 C913 1.388 . S
C915 C916 1.366 . S
C916 C915 1.366 . S
C916 C917 1.414 . S
C916 C919 1.499 . S
C917 H891 0.950 . S
C917 C916 1.414 . S
C917 C918 1.374 . S
C918 H892 0.950 . S
C918 C914 1.385 . S
C918 C917 1.374 . S
C919 C916 1.499 . S
C919 C920 1.373 . S
C919 C921 1.389 . S
C920 H893 0.950 . S
C920 C906 1.377 . S
C920 C919 1.373 . S
C921 C905 1.377 . S
C921 C919 1.389 . S
C921 C922 1.524 1_655 S
C922 C921 1.524 1_455 S
C922 C923 1.397 . S
C922 C927 1.363 . S
C923 H894 0.950 1_455 S
C923 C922 1.397 . S
C923 C924 1.334 . S
C924 H895 0.950 . S
C924 C923 1.334 . S
C924 C925 1.287 . S
C925 C924 1.287 . S
C925 C926 1.524 . S
C925 H928 0.999 . S
C926 H896 0.950 . S
C926 C925 1.524 . S
C926 C927 1.415 . S
C927 H897 0.950 . S
C927 C922 1.363 . S
C927 C926 1.415 . S
H928 C925 0.999 . S
H929 C910 0.913 . S
H930 C948 0.951 . S
H931 C950 0.951 . S
H932 C952 0.950 . S
H933 C953 0.950 . S
H934 C955 0.950 . S
H935 C958 0.950 . S
H936 C959 0.950 . S
H937 C961 0.950 . S
H938 C962 0.950 . S
H939 C963 0.951 . S
H940 C965 0.951 . S
H941 C967 0.950 . S
H942 C968 0.950 . S
H943 C970 0.950 . S
H944 C973 0.950 . S
H945 C974 0.950 . S
H946 C976 0.950 . S
H947 C977 0.950 . S
C948 H930 0.951 . S
C948 C949 1.366 . S
C948 C950 1.388 . S
C949 C948 1.366 . S
C949 C953 1.385 . S
C950 H931 0.951 . S
C950 C948 1.388 . S
C950 C951 1.366 . S
C951 C950 1.366 . S
C951 C952 1.414 . S
C951 C954 1.499 . S
C952 H932 0.950 . S
C952 C951 1.414 . S
C952 C953 1.374 . S
C953 H933 0.950 . S
C953 C949 1.385 . S
C953 C952 1.374 . S
C954 C951 1.499 . S
C954 C955 1.373 . S
C954 C956 1.389 . S
C955 H934 0.950 . S
C955 C954 1.373 . S
C955 C971 1.377 . S
C956 C954 1.389 . S
C956 C957 1.524 . S
C956 C970 1.377 . S
C957 C956 1.524 . S
C957 C958 1.397 . S
C957 C962 1.363 . S
C958 H935 0.950 . S
C958 C957 1.397 . S
C958 C959 1.334 . S
C959 H936 0.950 . S
C959 C958 1.334 . S
C959 C960 1.287 . S
C960 C959 1.287 . S
C960 C961 1.524 . S
C960 H979 0.913 . S
C961 H937 0.950 . S
C961 C960 1.524 . S
C961 C962 1.415 . S
C962 H938 0.950 . S
C962 C957 1.363 . S
C962 C961 1.415 . S
C963 H939 0.951 . S
C963 C964 1.366 . S
C963 C965 1.388 . S
C964 C963 1.366 . S
C964 C968 1.385 . S
C965 H940 0.951 . S
C965 C963 1.388 . S
C965 C966 1.366 . S
C966 C965 1.366 . S
C966 C967 1.414 . S
C966 C969 1.499 . S
C967 H941 0.950 . S
C967 C966 1.414 . S
C967 C968 1.374 . S
C968 H942 0.950 . S
C968 C964 1.385 . S
C968 C967 1.374 . S
C969 C966 1.499 . S
C969 C970 1.373 . S
C969 C971 1.389 . S
C970 H943 0.950 . S
C970 C956 1.377 . S
C970 C969 1.373 . S
C971 C955 1.377 . S
C971 C969 1.389 . S
C971 C972 1.524 . S
C972 C971 1.524 . S
C972 C973 1.397 . S
C972 C977 1.363 . S
C973 H944 0.950 . S
C973 C972 1.397 . S
C973 C974 1.334 . S
C974 H945 0.950 . S
C974 C973 1.334 . S
C974 C975 1.287 . S
C975 C974 1.287 . S
C975 C976 1.524 . S
C975 H978 0.999 . S
C976 H946 0.950 . S
C976 C975 1.524 . S
C976 C977 1.415 . S
C977 H947 0.950 . S
C977 C972 1.363 . S
C977 C976 1.415 . S
H978 C975 0.999 . S
H979 C960 0.913 . S
H980 C998 0.951 . S
H981 C1000 0.951 . S
H982 C1002 0.950 1_545 S
H983 C1003 0.950 1_545 S
H984 C1005 0.950 . S
H985 C1008 0.950 1_655 S
H986 C1009 0.950 . S
H987 C1011 0.950 . S
H988 C1012 0.950 . S
H989 C1013 0.951 . S
H990 C1015 0.951 . S
H991 C1017 0.934 1_455 S
H992 C1018 0.950 1_455 S
H993 C1020 0.950 1_455 S
H994 C1023 0.950 . S
H995 C1024 0.950 . S
H996 C1026 0.950 1_545 S
H997 C1027 0.959 . S
C998 H980 0.951 . S
C998 C999 1.366 . S
C998 C1000 1.388 . S
C999 C998 1.366 . S
C999 C1003 1.385 . S
C1000 H981 0.951 . S
C1000 C998 1.388 . S
C1000 C1001 1.366 . S
C1001 C1000 1.366 . S
C1001 C1002 1.414 . S
C1001 C1004 1.499 . S
C1002 H982 0.950 1_565 S
C1002 C1001 1.414 . S
C1002 C1003 1.374 . S
C1003 H983 0.950 1_565 S
C1003 C999 1.385 . S
C1003 C1002 1.374 . S
C1004 C1001 1.499 . S
C1004 C1005 1.373 . S
C1004 C1006 1.389 . S
C1005 H984 0.950 . S
C1005 C1004 1.373 . S
C1005 C1021 1.377 . S
C1006 C1004 1.389 . S
C1006 C1007 1.524 1_655 S
C1006 C1020 1.377 . S
C1007 C1006 1.524 1_455 S
C1007 C1008 1.397 1_565 S
C1007 C1012 1.363 . S
C1008 H985 0.950 1_455 S
C1008 C1007 1.397 1_545 S
C1008 C1009 1.334 . S
C1009 H986 0.950 . S
C1009 C1008 1.334 . S
C1009 C1010 1.287 1_545 S
C1010 C1009 1.287 1_565 S
C1010 C1011 1.524 . S
C1010 H1029 0.913 . S
C1011 H987 0.950 . S
C1011 C1010 1.524 . S
C1011 C1012 1.415 . S
C1012 H988 0.950 . S
C1012 C1007 1.363 . S
C1012 C1011 1.415 . S
C1013 H989 0.951 . S
C1013 C1014 1.355 1_545 S
C1013 C1015 1.388 . S
C1014 C1013 1.355 1_565 S
C1014 C1018 1.399 . S
C1015 H990 0.951 . S
C1015 C1013 1.388 . S
C1015 C1016 1.366 1_545 S
C1016 C1015 1.366 1_565 S
C1016 C1017 1.414 . S
C1016 C1019 1.499 . S
C1017 H991 0.934 1_655 S
C1017 C1016 1.414 . S
C1017 C1018 1.374 . S
C1018 H992 0.950 1_655 S
C1018 C1014 1.399 . S
C1018 C1017 1.374 . S
C1019 C1016 1.499 . S
C1019 C1020 1.373 . S
C1019 C1021 1.389 . S
C1020 H993 0.950 1_655 S
C1020 C1006 1.377 . S
C1020 C1019 1.373 . S
C1021 C1005 1.377 . S
C1021 C1019 1.389 . S
C1021 C1022 1.524 . S
C1022 C1021 1.524 . S
C1022 C1023 1.397 . S
C1022 C1027 1.355 1_565 S
C1023 H994 0.950 . S
C1023 C1022 1.397 . S
C1023 C1024 1.334 . S
C1024 H995 0.950 . S
C1024 C1023 1.334 . S
C1024 C1025 1.287 . S
C1025 C1024 1.287 . S
C1025 C1026 1.524 . S
C1025 H1028 0.999 . S
C1026 H996 0.950 1_565 S
C1026 C1025 1.524 . S
C1026 C1027 1.414 1_565 S
C1027 H997 0.959 . S
C1027 C1022 1.355 1_545 S
C1027 C1026 1.414 1_545 S
H1028 C1025 0.999 . S
H1029 C1010 0.913 . S
H1030 C1048 0.951 . S
H1031 C1050 0.951 . S
H1032 C1052 0.950 . S
H1033 C1053 0.950 . S
H1034 C1055 0.950 . S
H1035 C1058 0.950 . S
H1036 C1059 0.950 . S
H1037 C1061 0.950 . S
H1038 C1062 0.950 . S
H1039 C1063 0.951 . S
H1040 C1065 0.951 . S
H1041 C1067 0.950 . S
H1042 C1068 0.950 . S
H1043 C1070 0.950 . S
H1044 C1073 0.950 . S
H1045 C1074 0.950 . S
H1046 C1076 0.950 . S
H1047 C1077 0.950 1_545 S
C1048 H1030 0.951 . S
C1048 C1049 1.366 . S
C1048 C1050 1.388 . S
C1049 C1048 1.366 . S
C1049 C1053 1.385 . S
C1050 H1031 0.951 . S
C1050 C1048 1.388 . S
C1050 C1051 1.366 . S
C1051 C1050 1.366 . S
C1051 C1052 1.414 . S
C1051 C1054 1.499 . S
C1052 H1032 0.950 . S
C1052 C1051 1.414 . S
C1052 C1053 1.374 . S
C1053 H1033 0.950 . S
C1053 C1049 1.385 . S
C1053 C1052 1.374 . S
C1054 C1051 1.499 . S
C1054 C1055 1.373 . S
C1054 C1056 1.389 . S
C1055 H1034 0.950 . S
C1055 C1054 1.373 . S
C1055 C1071 1.377 . S
C1056 C1054 1.389 . S
C1056 C1057 1.524 . S
C1056 C1070 1.377 . S
C1057 C1056 1.524 . S
C1057 C1058 1.397 . S
C1057 C1062 1.363 . S
C1058 H1035 0.950 . S
C1058 C1057 1.397 . S
C1058 C1059 1.334 . S
C1059 H1036 0.950 . S
C1059 C1058 1.334 . S
C1059 C1060 1.287 . S
C1060 C1059 1.287 . S
C1060 C1061 1.524 . S
C1060 H1079 0.913 . S
C1061 H1037 0.950 . S
C1061 C1060 1.524 . S
C1061 C1062 1.415 . S
C1062 H1038 0.950 . S
C1062 C1057 1.363 . S
C1062 C1061 1.415 . S
C1063 H1039 0.951 . S
C1063 C1064 1.366 . S
C1063 C1065 1.388 . S
C1064 C1063 1.366 . S
C1064 C1068 1.385 . S
C1065 H1040 0.951 . S
C1065 C1063 1.388 . S
C1065 C1066 1.366 . S
C1066 C1065 1.366 . S
C1066 C1067 1.414 . S
C1066 C1069 1.499 . S
C1067 H1041 0.950 . S
C1067 C1066 1.414 . S
C1067 C1068 1.374 . S
C1068 H1042 0.950 . S
C1068 C1064 1.385 . S
C1068 C1067 1.374 . S
C1069 C1066 1.499 . S
C1069 C1070 1.373 . S
C1069 C1071 1.389 . S
C1070 H1043 0.950 . S
C1070 C1056 1.377 . S
C1070 C1069 1.373 . S
C1071 C1055 1.377 . S
C1071 C1069 1.389 . S
C1071 C1072 1.524 1_545 S
C1072 C1071 1.524 1_565 S
C1072 C1073 1.397 . S
C1072 C1077 1.363 . S
C1073 H1044 0.950 . S
C1073 C1072 1.397 . S
C1073 C1074 1.334 . S
C1074 H1045 0.950 . S
C1074 C1073 1.334 . S
C1074 C1075 1.287 . S
C1075 C1074 1.287 . S
C1075 C1076 1.524 . S
C1075 H1078 0.999 . S
C1076 H1046 0.950 . S
C1076 C1075 1.524 . S
C1076 C1077 1.415 . S
C1077 H1047 0.950 1_565 S
C1077 C1072 1.363 . S
C1077 C1076 1.415 . S
H1078 C1075 0.999 . S
H1079 C1060 0.913 . S
H1080 C1098 0.951 . S
H1081 C1100 0.951 . S
H1082 C1102 0.950 . S
H1083 C1103 0.950 . S
H1084 C1105 0.950 . S
H1085 C1108 0.950 . S
H1086 C1109 0.950 . S
H1087 C1111 0.950 . S
H1088 C1112 0.950 . S
H1089 C1113 0.951 . S
H1090 C1115 0.951 . S
H1091 C1117 0.950 . S
H1092 C1118 0.950 . S
H1093 C1120 0.950 . S
H1094 C1123 0.950 . S
H1095 C1124 0.950 . S
H1096 C1126 0.950 . S
H1097 C1127 0.950 . S
C1098 H1080 0.951 . S
C1098 C1099 1.366 . S
C1098 C1100 1.388 . S
C1099 C1098 1.366 . S
C1099 C1103 1.385 . S
C1100 H1081 0.951 . S
C1100 C1098 1.388 . S
C1100 C1101 1.366 . S
C1101 C1100 1.366 . S
C1101 C1102 1.414 . S
C1101 C1104 1.499 . S
C1102 H1082 0.950 . S
C1102 C1101 1.414 . S
C1102 C1103 1.374 . S
C1103 H1083 0.950 . S
C1103 C1099 1.385 . S
C1103 C1102 1.374 . S
C1104 C1101 1.499 . S
C1104 C1105 1.373 . S
C1104 C1106 1.389 . S
C1105 H1084 0.950 . S
C1105 C1104 1.373 . S
C1105 C1121 1.377 . S
C1106 C1104 1.389 . S
C1106 C1107 1.524 . S
C1106 C1120 1.377 . S
C1107 C1106 1.524 . S
C1107 C1108 1.397 . S
C1107 C1112 1.363 . S
C1108 H1085 0.950 . S
C1108 C1107 1.397 . S
C1108 C1109 1.334 . S
C1109 H1086 0.950 . S
C1109 C1108 1.334 . S
C1109 C1110 1.287 . S
C1110 C1109 1.287 . S
C1110 C1111 1.524 . S
C1110 H1129 0.913 . S
C1111 H1087 0.950 . S
C1111 C1110 1.524 . S
C1111 C1112 1.415 . S
C1112 H1088 0.950 . S
C1112 C1107 1.363 . S
C1112 C1111 1.415 . S
C1113 H1089 0.951 . S
C1113 C1114 1.366 . S
C1113 C1115 1.388 . S
C1114 C1113 1.366 . S
C1114 C1118 1.385 . S
C1115 H1090 0.951 . S
C1115 C1113 1.388 . S
C1115 C1116 1.366 . S
C1116 C1115 1.366 . S
C1116 C1117 1.414 . S
C1116 C1119 1.499 . S
C1117 H1091 0.950 . S
C1117 C1116 1.414 . S
C1117 C1118 1.374 . S
C1118 H1092 0.950 . S
C1118 C1114 1.385 . S
C1118 C1117 1.374 . S
C1119 C1116 1.499 . S
C1119 C1120 1.373 . S
C1119 C1121 1.389 . S
C1120 H1093 0.950 . S
C1120 C1106 1.377 . S
C1120 C1119 1.373 . S
C1121 C1105 1.377 . S
C1121 C1119 1.389 . S
C1121 C1122 1.524 . S
C1122 C1121 1.524 . S
C1122 C1123 1.397 . S
C1122 C1127 1.363 . S
C1123 H1094 0.950 . S
C1123 C1122 1.397 . S
C1123 C1124 1.334 . S
C1124 H1095 0.950 . S
C1124 C1123 1.334 . S
C1124 C1125 1.287 . S
C1125 C1124 1.287 . S
C1125 C1126 1.524 . S
C1125 H1128 0.999 . S
C1126 H1096 0.950 . S
C1126 C1125 1.524 . S
C1126 C1127 1.415 . S
C1127 H1097 0.950 . S
C1127 C1122 1.363 . S
C1127 C1126 1.415 . S
H1128 C1125 0.999 . S
H1129 C1110 0.913 . S
H1130 C1148 0.951 . S
H1131 C1150 0.951 . S
H1132 C1152 0.950 . S
H1133 C1153 0.950 . S
H1134 C1155 0.950 . S
H1135 C1158 0.950 . S
H1136 C1159 0.950 . S
H1137 C1161 0.950 . S
H1138 C1162 0.950 . S
H1139 C1163 0.951 . S
H1140 C1165 0.951 . S
H1141 C1167 0.950 . S
H1142 C1168 0.950 . S
H1143 C1170 0.950 . S
H1144 C1173 0.950 . S
H1145 C1174 0.950 . S
H1146 C1176 0.950 . S
H1147 C1177 0.950 . S
C1148 H1130 0.951 . S
C1148 C1149 1.366 . S
C1148 C1150 1.388 . S
C1149 C1148 1.366 . S
C1149 C1153 1.385 . S
C1150 H1131 0.951 . S
C1150 C1148 1.388 . S
C1150 C1151 1.366 . S
C1151 C1150 1.366 . S
C1151 C1152 1.414 . S
C1151 C1154 1.499 . S
C1152 H1132 0.950 . S
C1152 C1151 1.414 . S
C1152 C1153 1.374 . S
C1153 H1133 0.950 . S
C1153 C1149 1.385 . S
C1153 C1152 1.374 . S
C1154 C1151 1.499 . S
C1154 C1155 1.373 . S
C1154 C1156 1.389 . S
C1155 H1134 0.950 . S
C1155 C1154 1.373 . S
C1155 C1171 1.377 . S
C1156 C1154 1.389 . S
C1156 C1157 1.524 . S
C1156 C1170 1.377 . S
C1157 C1156 1.524 . S
C1157 C1158 1.397 . S
C1157 C1162 1.363 . S
C1158 H1135 0.950 . S
C1158 C1157 1.397 . S
C1158 C1159 1.334 . S
C1159 H1136 0.950 . S
C1159 C1158 1.334 . S
C1159 C1160 1.287 . S
C1160 C1159 1.287 . S
C1160 C1161 1.524 . S
C1160 H1179 0.913 . S
C1161 H1137 0.950 . S
C1161 C1160 1.524 . S
C1161 C1162 1.415 . S
C1162 H1138 0.950 . S
C1162 C1157 1.363 . S
C1162 C1161 1.415 . S
C1163 H1139 0.951 . S
C1163 C1164 1.366 . S
C1163 C1165 1.388 . S
C1164 C1163 1.366 . S
C1164 C1168 1.385 . S
C1165 H1140 0.951 . S
C1165 C1163 1.388 . S
C1165 C1166 1.366 . S
C1166 C1165 1.366 . S
C1166 C1167 1.414 . S
C1166 C1169 1.499 . S
C1167 H1141 0.950 . S
C1167 C1166 1.414 . S
C1167 C1168 1.374 . S
C1168 H1142 0.950 . S
C1168 C1164 1.385 . S
C1168 C1167 1.374 . S
C1169 C1166 1.499 . S
C1169 C1170 1.373 . S
C1169 C1171 1.389 . S
C1170 H1143 0.950 . S
C1170 C1156 1.377 . S
C1170 C1169 1.373 . S
C1171 C1155 1.377 . S
C1171 C1169 1.389 . S
C1171 C1172 1.524 . S
C1172 C1171 1.524 . S
C1172 C1173 1.397 . S
C1172 C1177 1.363 . S
C1173 H1144 0.950 . S
C1173 C1172 1.397 . S
C1173 C1174 1.334 . S
C1174 H1145 0.950 . S
C1174 C1173 1.334 . S
C1174 C1175 1.287 . S
C1175 C1174 1.287 . S
C1175 C1176 1.524 . S
C1175 H1178 0.999 . S
C1176 H1146 0.950 . S
C1176 C1175 1.524 . S
C1176 C1177 1.415 . S
C1177 H1147 0.950 . S
C1177 C1172 1.363 . S
C1177 C1176 1.415 . S
H1178 C1175 0.999 . S
H1179 C1160 0.913 . S
H1180 C1198 0.951 . S
H1181 C1200 0.951 1_554 S
H1182 C1202 0.950 . S
H1183 C1203 0.950 . S
H1184 C1205 0.982 . S
H1185 C1208 0.950 . S
H1186 C1209 0.950 . S
H1187 C1211 0.950 . S
H1188 C1212 0.950 . S
H1189 C1213 0.951 1_545 S
H1190 C1215 0.954 . S
H1191 C1217 0.950 . S
H1192 C1218 0.950 . S
H1193 C1220 0.950 . S
H1194 C1223 0.950 . S
H1195 C1224 0.950 . S
H1196 C1226 0.950 . S
H1197 C1227 0.950 . S
C1198 H1180 0.951 . S
C1198 C1199 1.366 . S
C1198 C1200 1.388 . S
C1199 C1198 1.366 . S
C1199 C1203 1.385 . S
C1200 H1181 0.951 1_556 S
C1200 C1198 1.388 . S
C1200 C1201 1.366 . S
C1201 C1200 1.366 . S
C1201 C1202 1.414 . S
C1201 C1204 1.499 . S
C1202 H1182 0.950 . S
C1202 C1201 1.414 . S
C1202 C1203 1.374 . S
C1203 H1183 0.950 . S
C1203 C1199 1.385 . S
C1203 C1202 1.374 . S
C1204 C1201 1.499 . S
C1204 C1205 1.335 1_565 S
C1204 C1206 1.389 . S
C1205 H1184 0.982 . S
C1205 C1204 1.335 1_545 S
C1205 C1221 1.384 . S
C1206 C1204 1.389 . S
C1206 C1207 1.524 . S
C1206 C1220 1.377 . S
C1207 C1206 1.524 . S
C1207 C1208 1.397 . S
C1207 C1212 1.363 1_556 S
C1208 H1185 0.950 . S
C1208 C1207 1.397 . S
C1208 C1209 1.334 . S
C1209 H1186 0.950 . S
C1209 C1208 1.334 . S
C1209 C1210 1.287 . S
C1210 C1209 1.287 . S
C1210 C1211 1.524 1_556 S
C1210 H1229 0.913 1_556 S
C1211 H1187 0.950 . S
C1211 C1210 1.524 1_554 S
C1211 C1212 1.415 . S
C1212 H1188 0.950 . S
C1212 C1207 1.363 1_554 S
C1212 C1211 1.415 . S
C1213 H1189 0.951 1_565 S
C1213 C1214 1.366 . S
C1213 C1215 1.388 . S
C1214 C1213 1.366 . S
C1214 C1218 1.385 1_556 S
C1215 H1190 0.954 . S
C1215 C1213 1.388 . S
C1215 C1216 1.366 . S
C1216 C1215 1.366 . S
C1216 C1217 1.414 1_556 S
C1216 C1219 1.499 . S
C1217 H1191 0.950 . S
C1217 C1216 1.414 1_554 S
C1217 C1218 1.374 . S
C1218 H1192 0.950 . S
C1218 C1214 1.385 1_554 S
C1218 C1217 1.374 . S
C1219 C1216 1.499 . S
C1219 C1220 1.373 . S
C1219 C1221 1.389 1_565 S
C1220 H1193 0.950 . S
C1220 C1206 1.377 . S
C1220 C1219 1.373 . S
C1221 C1205 1.384 . S
C1221 C1219 1.389 1_545 S
C1221 C1222 1.524 . S
C1222 C1221 1.524 . S
C1222 C1223 1.397 . S
C1222 C1227 1.363 . S
C1223 H1194 0.950 . S
C1223 C1222 1.397 . S
C1223 C1224 1.334 . S
C1224 H1195 0.950 . S
C1224 C1223 1.334 . S
C1224 C1225 1.287 . S
C1225 C1224 1.287 . S
C1225 C1226 1.524 . S
C1225 H1228 0.999 . S
C1226 H1196 0.950 . S
C1226 C1225 1.524 . S
C1226 C1227 1.415 . S
C1227 H1197 0.950 . S
C1227 C1222 1.363 . S
C1227 C1226 1.415 . S
H1228 C1225 0.999 . S
H1229 C1210 0.913 1_554 S
H1230 C1248 0.951 . S
H1231 C1250 0.951 . S
H1232 C1252 0.988 . S
H1233 C1253 0.950 . S
H1234 C1255 0.950 . S
H1235 C1258 0.950 . S
H1236 C1259 0.950 . S
H1237 C1261 0.950 . S
H1238 C1262 0.950 . S
H1239 C1263 0.949 1_565 S
H1240 C1265 0.951 1_565 S
H1241 C1267 0.950 . S
H1242 C1268 0.950 . S
H1243 C1270 0.950 . S
H1244 C1273 0.950 . S
H1245 C1274 0.950 1_545 S
H1246 C1276 0.950 . S
H1247 C1277 0.950 . S
C1248 H1230 0.951 . S
C1248 C1249 1.366 . S
C1248 C1250 1.388 . S
C1249 C1248 1.366 . S
C1249 C1253 1.385 . S
C1250 H1231 0.951 . S
C1250 C1248 1.388 . S
C1250 C1251 1.366 . S
C1251 C1250 1.366 . S
C1251 C1252 1.414 . S
C1251 C1254 1.499 . S
C1252 H1232 0.988 . S
C1252 C1251 1.414 . S
C1252 C1253 1.374 . S
C1253 H1233 0.950 . S
C1253 C1249 1.385 . S
C1253 C1252 1.374 . S
C1254 C1251 1.499 . S
C1254 C1255 1.373 . S
C1254 C1256 1.389 . S
C1255 H1234 0.950 . S
C1255 C1254 1.373 . S
C1255 C1271 1.377 . S
C1256 C1254 1.389 . S
C1256 C1257 1.524 . S
C1256 C1270 1.377 . S
C1257 C1256 1.524 . S
C1257 C1258 1.397 . S
C1257 C1262 1.363 . S
C1258 H1235 0.950 . S
C1258 C1257 1.397 . S
C1258 C1259 1.334 . S
C1259 H1236 0.950 . S
C1259 C1258 1.334 . S
C1259 C1260 1.287 . S
C1260 C1259 1.287 . S
C1260 C1261 1.524 . S
C1260 H1279 0.913 . S
C1261 H1237 0.950 . S
C1261 C1260 1.524 . S
C1261 C1262 1.415 . S
C1262 H1238 0.950 . S
C1262 C1257 1.363 . S
C1262 C1261 1.415 . S
C1263 H1239 0.949 1_545 S
C1263 C1264 1.367 . S
C1263 C1265 1.388 . S
C1264 C1263 1.367 . S
C1264 C1268 1.385 . S
C1265 H1240 0.951 1_545 S
C1265 C1263 1.388 . S
C1265 C1266 1.366 . S
C1266 C1265 1.366 . S
C1266 C1267 1.414 . S
C1266 C1269 1.499 . S
C1267 H1241 0.950 . S
C1267 C1266 1.414 . S
C1267 C1268 1.374 . S
C1268 H1242 0.950 . S
C1268 C1264 1.385 . S
C1268 C1267 1.374 . S
C1269 C1266 1.499 . S
C1269 C1270 1.373 . S
C1269 C1271 1.389 . S
C1270 H1243 0.950 . S
C1270 C1256 1.377 . S
C1270 C1269 1.373 . S
C1271 C1255 1.377 . S
C1271 C1269 1.389 . S
C1271 C1272 1.506 1_545 S
C1272 C1271 1.506 1_565 S
C1272 C1273 1.384 1_565 S
C1272 C1277 1.391 . S
C1273 H1244 0.950 . S
C1273 C1272 1.384 1_545 S
C1273 C1274 1.334 1_545 S
C1274 H1245 0.950 1_565 S
C1274 C1273 1.334 1_565 S
C1274 C1275 1.287 . S
C1275 C1274 1.287 . S
C1275 C1276 1.524 . S
C1275 H1278 0.999 . S
C1276 H1246 0.950 . S
C1276 C1275 1.524 . S
C1276 C1277 1.415 . S
C1277 H1247 0.950 . S
C1277 C1272 1.391 . S
C1277 C1276 1.415 . S
H1278 C1275 0.999 . S
H1279 C1260 0.913 . S
H1280 C1298 0.951 . S
H1281 C1300 0.951 . S
H1282 C1302 0.950 . S
H1283 C1303 0.950 . S
H1284 C1305 0.950 . S
H1285 C1308 0.950 1_554 S
H1286 C1309 0.950 . S
H1287 C1311 0.950 . S
H1288 C1312 0.950 . S
H1289 C1313 0.951 . S
H1290 C1315 0.951 . S
H1291 C1317 0.950 1_556 S
H1292 C1318 0.950 . S
H1293 C1320 0.950 1_556 S
H1294 C1323 0.950 . S
H1295 C1324 0.950 . S
H1296 C1326 0.950 . S
H1297 C1327 0.950 . S
C1298 H1280 0.951 . S
C1298 C1299 1.366 . S
C1298 C1300 1.388 . S
C1299 C1298 1.366 . S
C1299 C1303 1.385 . S
C1300 H1281 0.951 . S
C1300 C1298 1.388 . S
C1300 C1301 1.366 . S
C1301 C1300 1.366 . S
C1301 C1302 1.414 . S
C1301 C1304 1.499 . S
C1302 H1282 0.950 . S
C1302 C1301 1.414 . S
C1302 C1303 1.374 . S
C1303 H1283 0.950 . S
C1303 C1299 1.385 . S
C1303 C1302 1.374 . S
C1304 C1301 1.499 . S
C1304 C1305 1.373 . S
C1304 C1306 1.389 . S
C1305 H1284 0.950 . S
C1305 C1304 1.373 . S
C1305 C1321 1.377 . S
C1306 C1304 1.389 . S
C1306 C1307 1.524 1_554 S
C1306 C1320 1.377 . S
C1307 C1306 1.524 1_556 S
C1307 C1308 1.397 . S
C1307 C1312 1.363 . S
C1308 H1285 0.950 1_556 S
C1308 C1307 1.397 . S
C1308 C1309 1.334 . S
C1309 H1286 0.950 . S
C1309 C1308 1.334 . S
C1309 C1310 1.287 . S
C1310 C1309 1.287 . S
C1310 C1311 1.524 . S
C1310 H1329 0.913 . S
C1311 H1287 0.950 . S
C1311 C1310 1.524 . S
C1311 C1312 1.415 . S
C1312 H1288 0.950 . S
C1312 C1307 1.363 . S
C1312 C1311 1.415 . S
C1313 H1289 0.951 . S
C1313 C1314 1.366 . S
C1313 C1315 1.388 . S
C1314 C1313 1.366 . S
C1314 C1318 1.385 1_554 S
C1315 H1290 0.951 . S
C1315 C1313 1.388 . S
C1315 C1316 1.366 . S
C1316 C1315 1.366 . S
C1316 C1317 1.414 . S
C1316 C1319 1.499 . S
C1317 H1291 0.950 1_554 S
C1317 C1316 1.414 . S
C1317 C1318 1.374 1_554 S
C1318 H1292 0.950 . S
C1318 C1314 1.385 1_556 S
C1318 C1317 1.374 1_556 S
C1319 C1316 1.499 . S
C1319 C1320 1.373 . S
C1319 C1321 1.389 . S
C1320 H1293 0.950 1_554 S
C1320 C1306 1.377 . S
C1320 C1319 1.373 . S
C1321 C1305 1.377 . S
C1321 C1319 1.389 . S
C1321 C1322 1.524 . S
C1322 C1321 1.524 . S
C1322 C1323 1.397 . S
C1322 C1327 1.363 . S
C1323 H1294 0.950 . S
C1323 C1322 1.397 . S
C1323 C1324 1.334 . S
C1324 H1295 0.950 . S
C1324 C1323 1.334 . S
C1324 C1325 1.287 . S
C1325 C1324 1.287 . S
C1325 C1326 1.524 . S
C1325 H1328 0.999 . S
C1326 H1296 0.950 . S
C1326 C1325 1.524 . S
C1326 C1327 1.415 . S
C1327 H1297 0.950 . S
C1327 C1322 1.363 . S
C1327 C1326 1.415 . S
H1328 C1325 0.999 . S
H1329 C1310 0.913 . S
H1330 C1348 0.951 . S
H1331 C1350 0.951 . S
H1332 C1352 0.950 . S
H1333 C1353 0.950 . S
H1334 C1355 0.950 . S
H1335 C1358 0.950 . S
H1336 C1359 0.950 . S
H1337 C1361 0.950 . S
H1338 C1362 0.950 . S
H1339 C1363 0.951 . S
H1340 C1365 0.951 . S
H1341 C1367 0.950 . S
H1342 C1368 0.950 . S
H1343 C1370 0.950 . S
H1344 C1373 0.950 . S
H1345 C1374 0.950 . S
H1346 C1376 0.950 . S
H1347 C1377 0.950 . S
C1348 H1330 0.951 . S
C1348 C1349 1.366 . S
C1348 C1350 1.388 . S
C1349 C1348 1.366 . S
C1349 C1353 1.385 . S
C1350 H1331 0.951 . S
C1350 C1348 1.388 . S
C1350 C1351 1.366 . S
C1351 C1350 1.366 . S
C1351 C1352 1.414 . S
C1351 C1354 1.499 . S
C1352 H1332 0.950 . S
C1352 C1351 1.414 . S
C1352 C1353 1.374 . S
C1353 H1333 0.950 . S
C1353 C1349 1.385 . S
C1353 C1352 1.374 . S
C1354 C1351 1.499 . S
C1354 C1355 1.373 . S
C1354 C1356 1.389 . S
C1355 H1334 0.950 . S
C1355 C1354 1.373 . S
C1355 C1371 1.377 . S
C1356 C1354 1.389 . S
C1356 C1357 1.524 . S
C1356 C1370 1.377 . S
C1357 C1356 1.524 . S
C1357 C1358 1.397 . S
C1357 C1362 1.363 . S
C1358 H1335 0.950 . S
C1358 C1357 1.397 . S
C1358 C1359 1.334 . S
C1359 H1336 0.950 . S
C1359 C1358 1.334 . S
C1359 C1360 1.287 . S
C1360 C1359 1.287 . S
C1360 C1361 1.524 . S
C1360 H1379 0.913 . S
C1361 H1337 0.950 . S
C1361 C1360 1.524 . S
C1361 C1362 1.415 . S
C1362 H1338 0.950 . S
C1362 C1357 1.363 . S
C1362 C1361 1.415 . S
C1363 H1339 0.951 . S
C1363 C1364 1.366 . S
C1363 C1365 1.388 . S
C1364 C1363 1.366 . S
C1364 C1368 1.385 . S
C1365 H1340 0.951 . S
C1365 C1363 1.388 . S
C1365 C1366 1.366 . S
C1366 C1365 1.366 . S
C1366 C1367 1.414 . S
C1366 C1369 1.499 . S
C1367 H1341 0.950 . S
C1367 C1366 1.414 . S
C1367 C1368 1.374 . S
C1368 H1342 0.950 . S
C1368 C1364 1.385 . S
C1368 C1367 1.374 . S
C1369 C1366 1.499 . S
C1369 C1370 1.373 . S
C1369 C1371 1.389 . S
C1370 H1343 0.950 . S
C1370 C1356 1.377 . S
C1370 C1369 1.373 . S
C1371 C1355 1.377 . S
C1371 C1369 1.389 . S
C1371 C1372 1.524 . S
C1372 C1371 1.524 . S
C1372 C1373 1.397 . S
C1372 C1377 1.363 . S
C1373 H1344 0.950 . S
C1373 C1372 1.397 . S
C1373 C1374 1.334 . S
C1374 H1345 0.950 . S
C1374 C1373 1.334 . S
C1374 C1375 1.287 . S
C1375 C1374 1.287 . S
C1375 C1376 1.524 . S
C1375 H1378 0.999 . S
C1376 H1346 0.950 . S
C1376 C1375 1.524 . S
C1376 C1377 1.415 . S
C1377 H1347 0.950 . S
C1377 C1372 1.363 . S
C1377 C1376 1.415 . S
H1378 C1375 0.999 . S
H1379 C1360 0.913 . S
H1380 C1398 0.951 . S
H1381 C1400 0.951 . S
H1382 C1402 0.950 . S
H1383 C1403 0.950 . S
H1384 C1405 0.950 . S
H1385 C1408 0.921 1_456 S
H1386 C1409 0.944 1_455 S
H1387 C1411 0.950 . S
H1388 C1412 0.950 . S
H1389 C1413 0.951 1_455 S
H1390 C1415 0.975 . S
H1391 C1417 0.971 . S
H1392 C1418 0.950 . S
H1393 C1420 0.950 1_554 S
H1394 C1423 0.950 . S
H1395 C1424 0.950 . S
H1396 C1426 0.950 . S
H1397 C1427 0.950 . S
C1398 H1380 0.951 . S
C1398 C1399 1.366 . S
C1398 C1400 1.388 . S
C1399 C1398 1.366 . S
C1399 C1403 1.385 . S
C1400 H1381 0.951 . S
C1400 C1398 1.388 . S
C1400 C1401 1.366 . S
C1401 C1400 1.366 . S
C1401 C1402 1.414 . S
C1401 C1404 1.499 . S
C1402 H1382 0.950 . S
C1402 C1401 1.414 . S
C1402 C1403 1.374 . S
C1403 H1383 0.950 . S
C1403 C1399 1.385 . S
C1403 C1402 1.374 . S
C1404 C1401 1.499 . S
C1404 C1405 1.373 . S
C1404 C1406 1.389 . S
C1405 H1384 0.950 . S
C1405 C1404 1.373 . S
C1405 C1421 1.377 . S
C1406 C1404 1.389 . S
C1406 C1407 1.524 1_556 S
C1406 C1420 1.377 . S
C1407 C1406 1.524 1_554 S
C1407 C1408 1.397 . S
C1407 C1412 1.363 . S
C1408 H1385 0.921 1_654 S
C1408 C1407 1.397 . S
C1408 C1409 1.336 . S
C1409 H1386 0.944 1_655 S
C1409 C1408 1.336 . S
C1409 C1410 1.291 . S
C1410 C1409 1.291 . S
C1410 C1411 1.524 . S
C1410 H1429 0.913 . S
C1411 H1387 0.950 . S
C1411 C1410 1.524 . S
C1411 C1412 1.415 . S
C1412 H1388 0.950 . S
C1412 C1407 1.363 . S
C1412 C1411 1.415 . S
C1413 H1389 0.951 1_655 S
C1413 C1414 1.366 . S
C1413 C1415 1.388 . S
C1414 C1413 1.366 . S
C1414 C1418 1.385 1_556 S
C1415 H1390 0.975 . S
C1415 C1413 1.388 . S
C1415 C1416 1.366 . S
C1416 C1415 1.366 . S
C1416 C1417 1.389 1_556 S
C1416 C1419 1.499 . S
C1417 H1391 0.971 . S
C1417 C1416 1.389 1_554 S
C1417 C1418 1.379 . S
C1418 H1392 0.950 . S
C1418 C1414 1.385 1_554 S
C1418 C1417 1.379 . S
C1419 C1416 1.499 . S
C1419 C1420 1.373 . S
C1419 C1421 1.389 . S
C1420 H1393 0.950 1_556 S
C1420 C1406 1.377 . S
C1420 C1419 1.373 . S
C1421 C1405 1.377 . S
C1421 C1419 1.389 . S
C1421 C1422 1.524 . S
C1422 C1421 1.524 . S
C1422 C1423 1.397 . S
C1422 C1427 1.363 . S
C1423 H1394 0.950 . S
C1423 C1422 1.397 . S
C1423 C1424 1.334 . S
C1424 H1395 0.950 . S
C1424 C1423 1.334 . S
C1424 C1425 1.287 . S
C1425 C1424 1.287 . S
C1425 C1426 1.524 . S
C1425 H1428 0.999 . S
C1426 H1396 0.950 . S
C1426 C1425 1.524 . S
C1426 C1427 1.415 . S
C1427 H1397 0.950 . S
C1427 C1422 1.363 . S
C1427 C1426 1.415 . S
H1428 C1425 0.999 . S
H1429 C1410 0.913 . S
H1430 C1448 0.951 . S
H1431 C1450 0.951 . S
H1432 C1452 0.950 . S
H1433 C1453 0.950 . S
H1434 C1455 0.950 . S
H1435 C1458 0.950 . S
H1436 C1459 0.950 . S
H1437 C1461 0.950 . S
H1438 C1462 0.950 . S
H1439 C1463 0.951 . S
H1440 C1465 0.951 . S
H1441 C1467 0.950 . S
H1442 C1468 0.950 . S
H1443 C1470 0.950 . S
H1444 C1473 0.950 . S
H1445 C1474 0.950 . S
H1446 C1476 0.950 . S
H1447 C1477 0.950 . S
C1448 H1430 0.951 . S
C1448 C1449 1.366 . S
C1448 C1450 1.388 . S
C1449 C1448 1.366 . S
C1449 C1453 1.385 . S
C1450 H1431 0.951 . S
C1450 C1448 1.388 . S
C1450 C1451 1.366 . S
C1451 C1450 1.366 . S
C1451 C1452 1.414 . S
C1451 C1454 1.499 . S
C1452 H1432 0.950 . S
C1452 C1451 1.414 . S
C1452 C1453 1.374 . S
C1453 H1433 0.950 . S
C1453 C1449 1.385 . S
C1453 C1452 1.374 . S
C1454 C1451 1.499 . S
C1454 C1455 1.373 . S
C1454 C1456 1.389 . S
C1455 H1434 0.950 . S
C1455 C1454 1.373 . S
C1455 C1471 1.377 . S
C1456 C1454 1.389 . S
C1456 C1457 1.524 . S
C1456 C1470 1.377 . S
C1457 C1456 1.524 . S
C1457 C1458 1.397 . S
C1457 C1462 1.363 . S
C1458 H1435 0.950 . S
C1458 C1457 1.397 . S
C1458 C1459 1.334 . S
C1459 H1436 0.950 . S
C1459 C1458 1.334 . S
C1459 C1460 1.287 . S
C1460 C1459 1.287 . S
C1460 C1461 1.524 . S
C1460 H1479 0.913 . S
C1461 H1437 0.950 . S
C1461 C1460 1.524 . S
C1461 C1462 1.415 . S
C1462 H1438 0.950 . S
C1462 C1457 1.363 . S
C1462 C1461 1.415 . S
C1463 H1439 0.951 . S
C1463 C1464 1.366 . S
C1463 C1465 1.388 . S
C1464 C1463 1.366 . S
C1464 C1468 1.385 . S
C1465 H1440 0.951 . S
C1465 C1463 1.388 . S
C1465 C1466 1.366 . S
C1466 C1465 1.366 . S
C1466 C1467 1.414 . S
C1466 C1469 1.499 . S
C1467 H1441 0.950 . S
C1467 C1466 1.414 . S
C1467 C1468 1.374 . S
C1468 H1442 0.950 . S
C1468 C1464 1.385 . S
C1468 C1467 1.374 . S
C1469 C1466 1.499 . S
C1469 C1470 1.373 . S
C1469 C1471 1.389 . S
C1470 H1443 0.950 . S
C1470 C1456 1.377 . S
C1470 C1469 1.373 . S
C1471 C1455 1.377 . S
C1471 C1469 1.389 . S
C1471 C1472 1.524 . S
C1472 C1471 1.524 . S
C1472 C1473 1.397 . S
C1472 C1477 1.363 . S
C1473 H1444 0.950 . S
C1473 C1472 1.397 . S
C1473 C1474 1.334 . S
C1474 H1445 0.950 . S
C1474 C1473 1.334 . S
C1474 C1475 1.287 . S
C1475 C1474 1.287 . S
C1475 C1476 1.524 . S
C1475 H1478 0.999 . S
C1476 H1446 0.950 . S
C1476 C1475 1.524 . S
C1476 C1477 1.415 . S
C1477 H1447 0.950 . S
C1477 C1472 1.363 . S
C1477 C1476 1.415 . S
H1478 C1475 0.999 . S
H1479 C1460 0.913 . S
H1480 C1498 0.951 . S
H1481 C1500 0.951 . S
H1482 C1502 0.950 . S
H1483 C1503 0.950 . S
H1484 C1505 0.950 . S
H1485 C1508 0.950 . S
H1486 C1509 0.950 . S
H1487 C1511 0.950 . S
H1488 C1512 0.950 . S
H1489 C1513 0.951 . S
H1490 C1515 0.951 . S
H1491 C1517 0.950 . S
H1492 C1518 0.950 . S
H1493 C1520 0.950 . S
H1494 C1523 0.950 . S
H1495 C1524 0.950 . S
H1496 C1526 0.950 . S
H1497 C1527 0.950 . S
C1498 H1480 0.951 . S
C1498 C1499 1.366 . S
C1498 C1500 1.388 . S
C1499 C1498 1.366 . S
C1499 C1503 1.385 . S
C1500 H1481 0.951 . S
C1500 C1498 1.388 . S
C1500 C1501 1.366 . S
C1501 C1500 1.366 . S
C1501 C1502 1.414 . S
C1501 C1504 1.499 . S
C1502 H1482 0.950 . S
C1502 C1501 1.414 . S
C1502 C1503 1.374 . S
C1503 H1483 0.950 . S
C1503 C1499 1.385 . S
C1503 C1502 1.374 . S
C1504 C1501 1.499 . S
C1504 C1505 1.373 . S
C1504 C1506 1.389 . S
C1505 H1484 0.950 . S
C1505 C1504 1.373 . S
C1505 C1521 1.377 . S
C1506 C1504 1.389 . S
C1506 C1507 1.524 . S
C1506 C1520 1.377 . S
C1507 C1506 1.524 . S
C1507 C1508 1.397 . S
C1507 C1512 1.363 . S
C1508 H1485 0.950 . S
C1508 C1507 1.397 . S
C1508 C1509 1.334 . S
C1509 H1486 0.950 . S
C1509 C1508 1.334 . S
C1509 C1510 1.287 . S
C1510 C1509 1.287 . S
C1510 C1511 1.524 . S
C1510 H1529 0.913 . S
C1511 H1487 0.950 . S
C1511 C1510 1.524 . S
C1511 C1512 1.415 . S
C1512 H1488 0.950 . S
C1512 C1507 1.363 . S
C1512 C1511 1.415 . S
C1513 H1489 0.951 . S
C1513 C1514 1.366 . S
C1513 C1515 1.388 . S
C1514 C1513 1.366 . S
C1514 C1518 1.385 . S
C1515 H1490 0.951 . S
C1515 C1513 1.388 . S
C1515 C1516 1.366 . S
C1516 C1515 1.366 . S
C1516 C1517 1.414 . S
C1516 C1519 1.499 . S
C1517 H1491 0.950 . S
C1517 C1516 1.414 . S
C1517 C1518 1.374 . S
C1518 H1492 0.950 . S
C1518 C1514 1.385 . S
C1518 C1517 1.374 . S
C1519 C1516 1.499 . S
C1519 C1520 1.373 . S
C1519 C1521 1.389 . S
C1520 H1493 0.950 . S
C1520 C1506 1.377 . S
C1520 C1519 1.373 . S
C1521 C1505 1.377 . S
C1521 C1519 1.389 . S
C1521 C1522 1.524 . S
C1522 C1521 1.524 . S
C1522 C1523 1.397 1_455 S
C1522 C1527 1.363 . S
C1523 H1494 0.950 . S
C1523 C1522 1.397 1_655 S
C1523 C1524 1.334 . S
C1524 H1495 0.950 . S
C1524 C1523 1.334 . S
C1524 C1525 1.287 . S
C1525 C1524 1.287 . S
C1525 C1526 1.524 . S
C1525 H1528 0.999 . S
C1526 H1496 0.950 . S
C1526 C1525 1.524 . S
C1526 C1527 1.415 1_655 S
C1527 H1497 0.950 . S
C1527 C1522 1.363 . S
C1527 C1526 1.415 1_455 S
H1528 C1525 0.999 . S
H1529 C1510 0.913 . S
H1530 C1548 0.951 . S
H1531 C1550 0.951 . S
H1532 C1552 0.950 . S
H1533 C1553 0.950 . S
H1534 C1555 0.950 . S
H1535 C1558 0.950 . S
H1536 C1559 0.950 . S
H1537 C1561 0.950 . S
H1538 C1562 0.950 . S
H1539 C1563 0.951 . S
H1540 C1565 0.951 . S
H1541 C1567 0.950 . S
H1542 C1568 0.950 . S
H1543 C1570 0.950 . S
H1544 C1573 0.950 . S
H1545 C1574 0.950 . S
H1546 C1576 0.950 . S
H1547 C1577 0.950 . S
C1548 H1530 0.951 . S
C1548 C1549 1.366 . S
C1548 C1550 1.388 . S
C1549 C1548 1.366 . S
C1549 C1553 1.385 . S
C1550 H1531 0.951 . S
C1550 C1548 1.388 . S
C1550 C1551 1.366 . S
C1551 C1550 1.366 . S
C1551 C1552 1.414 . S
C1551 C1554 1.499 . S
C1552 H1532 0.950 . S
C1552 C1551 1.414 . S
C1552 C1553 1.374 . S
C1553 H1533 0.950 . S
C1553 C1549 1.385 . S
C1553 C1552 1.374 . S
C1554 C1551 1.499 . S
C1554 C1555 1.373 . S
C1554 C1556 1.389 . S
C1555 H1534 0.950 . S
C1555 C1554 1.373 . S
C1555 C1571 1.377 . S
C1556 C1554 1.389 . S
C1556 C1557 1.524 . S
C1556 C1570 1.377 . S
C1557 C1556 1.524 . S
C1557 C1558 1.397 . S
C1557 C1562 1.363 . S
C1558 H1535 0.950 . S
C1558 C1557 1.397 . S
C1558 C1559 1.334 . S
C1559 H1536 0.950 . S
C1559 C1558 1.334 . S
C1559 C1560 1.287 . S
C1560 C1559 1.287 . S
C1560 C1561 1.524 . S
C1560 H1579 0.913 . S
C1561 H1537 0.950 . S
C1561 C1560 1.524 . S
C1561 C1562 1.415 . S
C1562 H1538 0.950 . S
C1562 C1557 1.363 . S
C1562 C1561 1.415 . S
C1563 H1539 0.951 . S
C1563 C1564 1.366 . S
C1563 C1565 1.388 . S
C1564 C1563 1.366 . S
C1564 C1568 1.385 . S
C1565 H1540 0.951 . S
C1565 C1563 1.388 . S
C1565 C1566 1.366 . S
C1566 C1565 1.366 . S
C1566 C1567 1.414 . S
C1566 C1569 1.499 . S
C1567 H1541 0.950 . S
C1567 C1566 1.414 . S
C1567 C1568 1.374 . S
C1568 H1542 0.950 . S
C1568 C1564 1.385 . S
C1568 C1567 1.374 . S
C1569 C1566 1.499 . S
C1569 C1570 1.373 . S
C1569 C1571 1.389 . S
C1570 H1543 0.950 . S
C1570 C1556 1.377 . S
C1570 C1569 1.373 . S
C1571 C1555 1.377 . S
C1571 C1569 1.389 . S
C1571 C1572 1.524 . S
C1572 C1571 1.524 . S
C1572 C1573 1.397 . S
C1572 C1577 1.363 . S
C1573 H1544 0.950 . S
C1573 C1572 1.397 . S
C1573 C1574 1.334 . S
C1574 H1545 0.950 . S
C1574 C1573 1.334 . S
C1574 C1575 1.287 . S
C1575 C1574 1.287 . S
C1575 C1576 1.524 . S
C1575 H1578 0.999 . S
C1576 H1546 0.950 . S
C1576 C1575 1.524 . S
C1576 C1577 1.415 . S
C1577 H1547 0.950 . S
C1577 C1572 1.363 . S
C1577 C1576 1.415 . S
H1578 C1575 0.999 . S
H1579 C1560 0.913 . S
C399 C1 1.594 . S
C414 C306 1.587 . S
C449 C67 1.596 . S
C464 C330 1.584 . S
C514 C350 1.390 . S
C499 C97 1.361 . S
C549 C133 1.424 . S
C564 C373 1.427 . S
C614 C332 1.697 . S
C599 C25 1.720 . S
C664 C308 1.682 . S
C649 C37 1.711 . S
C714 C376 1.589 . S
C699 C103 1.606 . S
C764 C353 1.566 . S
C749 C109 1.611 . S
C799 C31 1.344 . S
C814 C378 1.325 . S
C864 C327 1.661 . S
C849 C73 1.634 . S
C899 C139 1.673 . S
C914 C305 1.675 . S
C949 C61 1.318 . S
C964 C355 1.301 . S
C1014 C309 1.696 . S
C999 C175 1.698 . S
C1049 C181 1.607 . S
C1064 C331 1.631 . S
C1099 C247 1.851 . S
C1114 C351 1.858 . S
C1149 C277 1.843 . S
C1164 C374 1.851 . S
C1199 C145 1.585 . S
C1214 C329 1.557 1_556 S
C1264 C307 1.587 . S
C1249 C211 1.540 . S
C1314 C377 1.467 . S
C1299 C217 1.497 . S
C1364 C354 1.535 . S
C1349 C283 1.570 . S
C1399 C169 1.985 . S
C1414 C375 1.942 . S
C1464 C328 1.573 . S
C1449 C241 1.568 . S
C1514 C304 1.588 . S
C1499 C253 1.579 . S
C1549 C205 1.911 . S
C1564 C352 1.924 . S
