# Generated by pormake.
# Topology ctn, (3,4)-cn, num edge types: 1
# Building blocks:
#     Node 0, Type 0, BuildingBlock: QEWDON_clean_linker_0, # of connection points: 3
#     Node 1, Type 0, BuildingBlock: QEWDON_clean_linker_0, # of connection points: 3
#     Node 2, Type 0, BuildingBlock: QEWDON_clean_linker_0, # of connection points: 3
#     Node 3, Type 0, BuildingBlock: QEWDON_clean_linker_0, # of connection points: 3
#     Node 4, Type 0, BuildingBlock: QEWDON_clean_linker_0, # of connection points: 3
#     Node 5, Type 0, BuildingBlock: QEWDON_clean_linker_0, # of connection points: 3
#     Node 6, Type 0, BuildingBlock: QEWDON_clean_linker_0, # of connection points: 3
#     Node 7, Type 0, BuildingBlock: QEWDON_clean_linker_0, # of connection points: 3
#     Node 8, Type 0, BuildingBlock: QEWDON_clean_linker_0, # of connection points: 3
#     Node 9, Type 0, BuildingBlock: QEWDON_clean_linker_0, # of connection points: 3
#     Node 10, Type 0, BuildingBlock: QEWDON_clean_linker_0, # of connection points: 3
#     Node 11, Type 0, BuildingBlock: QEWDON_clean_linker_0, # of connection points: 3
#     Node 12, Type 0, BuildingBlock: QEWDON_clean_linker_0, # of connection points: 3
#     Node 13, Type 0, BuildingBlock: QEWDON_clean_linker_0, # of connection points: 3
#     Node 14, Type 0, BuildingBlock: QEWDON_clean_linker_0, # of connection points: 3
#     Node 15, Type 0, BuildingBlock: QEWDON_clean_linker_0, # of connection points: 3
#     Node 16, Type 1, BuildingBlock: UXUYUI_clean_sbu_0, # of connection points: 4
#     Node 17, Type 1, BuildingBlock: UXUYUI_clean_sbu_0, # of connection points: 4
#     Node 18, Type 1, BuildingBlock: UXUYUI_clean_sbu_0, # of connection points: 4
#     Node 19, Type 1, BuildingBlock: UXUYUI_clean_sbu_0, # of connection points: 4
#     Node 20, Type 1, BuildingBlock: UXUYUI_clean_sbu_0, # of connection points: 4
#     Node 21, Type 1, BuildingBlock: UXUYUI_clean_sbu_0, # of connection points: 4
#     Node 22, Type 1, BuildingBlock: UXUYUI_clean_sbu_0, # of connection points: 4
#     Node 23, Type 1, BuildingBlock: UXUYUI_clean_sbu_0, # of connection points: 4
#     Node 24, Type 1, BuildingBlock: UXUYUI_clean_sbu_0, # of connection points: 4
#     Node 25, Type 1, BuildingBlock: UXUYUI_clean_sbu_0, # of connection points: 4
#     Node 26, Type 1, BuildingBlock: UXUYUI_clean_sbu_0, # of connection points: 4
#     Node 27, Type 1, BuildingBlock: UXUYUI_clean_sbu_0, # of connection points: 4
#     Edge 28, Type (0, 1), BuildingBlock: ZUJKAS_clean_linker_0, # of connection points: 2
#     Edge 29, Type (0, 1), BuildingBlock: ZUJKAS_clean_linker_0, # of connection points: 2
#     Edge 30, Type (0, 1), BuildingBlock: ZUJKAS_clean_linker_0, # of connection points: 2
#     Edge 31, Type (0, 1), BuildingBlock: ZUJKAS_clean_linker_0, # of connection points: 2
#     Edge 32, Type (0, 1), BuildingBlock: ZUJKAS_clean_linker_0, # of connection points: 2
#     Edge 33, Type (0, 1), BuildingBlock: ZUJKAS_clean_linker_0, # of connection points: 2
#     Edge 34, Type (0, 1), BuildingBlock: ZUJKAS_clean_linker_0, # of connection points: 2
#     Edge 35, Type (0, 1), BuildingBlock: ZUJKAS_clean_linker_0, # of connection points: 2
#     Edge 36, Type (0, 1), BuildingBlock: ZUJKAS_clean_linker_0, # of connection points: 2
#     Edge 37, Type (0, 1), BuildingBlock: ZUJKAS_clean_linker_0, # of connection points: 2
#     Edge 38, Type (0, 1), BuildingBlock: ZUJKAS_clean_linker_0, # of connection points: 2
#     Edge 39, Type (0, 1), BuildingBlock: ZUJKAS_clean_linker_0, # of connection points: 2
#     Edge 40, Type (0, 1), BuildingBlock: ZUJKAS_clean_linker_0, # of connection points: 2
#     Edge 41, Type (0, 1), BuildingBlock: ZUJKAS_clean_linker_0, # of connection points: 2
#     Edge 42, Type (0, 1), BuildingBlock: ZUJKAS_clean_linker_0, # of connection points: 2
#     Edge 43, Type (0, 1), BuildingBlock: ZUJKAS_clean_linker_0, # of connection points: 2
#     Edge 44, Type (0, 1), BuildingBlock: ZUJKAS_clean_linker_0, # of connection points: 2
#     Edge 45, Type (0, 1), BuildingBlock: ZUJKAS_clean_linker_0, # of connection points: 2
#     Edge 46, Type (0, 1), BuildingBlock: ZUJKAS_clean_linker_0, # of connection points: 2
#     Edge 47, Type (0, 1), BuildingBlock: ZUJKAS_clean_linker_0, # of connection points: 2
#     Edge 48, Type (0, 1), BuildingBlock: ZUJKAS_clean_linker_0, # of connection points: 2
#     Edge 49, Type (0, 1), BuildingBlock: ZUJKAS_clean_linker_0, # of connection points: 2
#     Edge 50, Type (0, 1), BuildingBlock: ZUJKAS_clean_linker_0, # of connection points: 2
#     Edge 51, Type (0, 1), BuildingBlock: ZUJKAS_clean_linker_0, # of connection points: 2
#     Edge 52, Type (0, 1), BuildingBlock: ZUJKAS_clean_linker_0, # of connection points: 2
#     Edge 53, Type (0, 1), BuildingBlock: ZUJKAS_clean_linker_0, # of connection points: 2
#     Edge 54, Type (0, 1), BuildingBlock: ZUJKAS_clean_linker_0, # of connection points: 2
#     Edge 55, Type (0, 1), BuildingBlock: ZUJKAS_clean_linker_0, # of connection points: 2
#     Edge 56, Type (0, 1), BuildingBlock: ZUJKAS_clean_linker_0, # of connection points: 2
#     Edge 57, Type (0, 1), BuildingBlock: ZUJKAS_clean_linker_0, # of connection points: 2
#     Edge 58, Type (0, 1), BuildingBlock: ZUJKAS_clean_linker_0, # of connection points: 2
#     Edge 59, Type (0, 1), BuildingBlock: ZUJKAS_clean_linker_0, # of connection points: 2
#     Edge 60, Type (0, 1), BuildingBlock: ZUJKAS_clean_linker_0, # of connection points: 2
#     Edge 61, Type (0, 1), BuildingBlock: ZUJKAS_clean_linker_0, # of connection points: 2
#     Edge 62, Type (0, 1), BuildingBlock: ZUJKAS_clean_linker_0, # of connection points: 2
#     Edge 63, Type (0, 1), BuildingBlock: ZUJKAS_clean_linker_0, # of connection points: 2
#     Edge 64, Type (0, 1), BuildingBlock: ZUJKAS_clean_linker_0, # of connection points: 2
#     Edge 65, Type (0, 1), BuildingBlock: ZUJKAS_clean_linker_0, # of connection points: 2
#     Edge 66, Type (0, 1), BuildingBlock: ZUJKAS_clean_linker_0, # of connection points: 2
#     Edge 67, Type (0, 1), BuildingBlock: ZUJKAS_clean_linker_0, # of connection points: 2
#     Edge 68, Type (0, 1), BuildingBlock: ZUJKAS_clean_linker_0, # of connection points: 2
#     Edge 69, Type (0, 1), BuildingBlock: ZUJKAS_clean_linker_0, # of connection points: 2
#     Edge 70, Type (0, 1), BuildingBlock: ZUJKAS_clean_linker_0, # of connection points: 2
#     Edge 71, Type (0, 1), BuildingBlock: ZUJKAS_clean_linker_0, # of connection points: 2
#     Edge 72, Type (0, 1), BuildingBlock: ZUJKAS_clean_linker_0, # of connection points: 2
#     Edge 73, Type (0, 1), BuildingBlock: ZUJKAS_clean_linker_0, # of connection points: 2
#     Edge 74, Type (0, 1), BuildingBlock: ZUJKAS_clean_linker_0, # of connection points: 2
#     Edge 75, Type (0, 1), BuildingBlock: ZUJKAS_clean_linker_0, # of connection points: 2
# Relax obj value: 0.113
# Max RMSD: 0.280
# Mean RMSD: 0.161
data_MOF--net-ctn--node1-UXUYUI_clean_sbu_0--node2-QEWDON_clean_linker_0--edge1-ZUJKAS_clean_linker_0
_symmetry_space_group_name_H-M    P1
_symmetry_Int_Tables_number       1
_symmetry_cell_setting            triclinic
loop_
_symmetry_equiv_pos_as_xyz
'x, y, z'
_cell_length_a     81.120553
_cell_length_b     84.203027
_cell_length_c     89.518281
_cell_angle_alpha  97.607922
_cell_angle_beta   91.836125
_cell_angle_gamma 95.215747
loop_
_atom_site_label
_atom_site_type_symbol
_atom_site_fract_x
_atom_site_fract_y
_atom_site_fract_z
_atom_type_partial_charge
H0 H 0.0852 0.05239 0.06139 0.0
C1 C 0.07653 0.04879 0.06956 0.0
C2 C 0.07713 0.03375 0.07478 0.0
C3 C 0.06562 0.05971 0.07571 0.0
H4 H 0.06655 0.01805 0.08996 0.0
C5 C 0.06633 0.02964 0.08599 0.0
C6 C 0.05527 0.04036 0.09216 0.0
C7 C 0.0549 0.05526 0.08682 0.0
C8 C 0.06649 0.07644 0.07193 0.0
H9 H 0.04668 0.06377 0.09176 0.0
C10 C 0.06632 0.07977 0.05687 0.0
C11 C 0.0666 0.09582 0.05372 0.0
C12 C 0.06732 0.08932 0.08375 0.0
H13 H 0.06777 0.08716 0.09542 0.0
C14 C 0.06761 0.10511 0.08072 0.0
H15 H 0.06582 0.06992 0.04771 0.0
C16 C 0.06712 0.10836 0.06588 0.0
H17 H 0.06686 0.12077 0.06397 0.0
H18 H 0.06808 0.11489 0.08993 0.0
H19 H 0.32446 0.74578 0.23384 0.0
C20 C 0.31692 0.7344 0.23323 0.0
C21 C 0.32341 0.72114 0.2386 0.0
C22 C 0.3004 0.73326 0.2277 0.0
H23 H 0.3179 0.69638 0.24219 0.0
C24 C 0.31316 0.70659 0.23791 0.0
C25 C 0.29662 0.70526 0.23233 0.0
C26 C 0.29037 0.71871 0.22724 0.0
C27 C 0.29274 0.7478 0.22458 0.0
H28 H 0.27745 0.71814 0.22353 0.0
C29 C 0.29549 0.75459 0.2112 0.0
C30 C 0.28735 0.76809 0.20827 0.0
C31 C 0.28202 0.7546 0.23506 0.0
H32 H 0.27974 0.74948 0.24538 0.0
C33 C 0.27408 0.76797 0.2323 0.0
H34 H 0.30379 0.74931 0.20313 0.0
C35 C 0.27662 0.77462 0.21902 0.0
H36 H 0.26986 0.78471 0.21704 0.0
H37 H 0.26574 0.77308 0.24042 0.0
H38 H 0.01737 0.47474 0.03622 0.0
C39 C 0.00755 0.48261 0.03579 0.0
C40 C 1.00203 0.4907 0.04924 0.0
C41 C 1.00091 0.48508 0.02172 0.0
H42 H 0.9851 0.50744 0.05861 0.0
C43 C 0.98923 0.50086 0.04839 0.0
C44 C 0.98241 0.50336 0.03434 0.0
C45 C 0.98836 0.49541 0.0211 0.0
C46 C 0.00777 0.47786 0.00752 0.0
H47 H 0.98317 0.49723 0.01021 0.0
C48 C 0.00855 0.46112 1.00425 0.0
C49 C 0.01422 0.45444 0.99028 0.0
C50 C 0.01316 0.48788 0.99693 0.0
H51 H 0.01278 0.5008 0.99925 0.0
C52 C 0.01916 0.48136 0.98328 0.0
H53 H 0.00414 0.45331 0.01228 0.0
C54 C 0.01965 0.46477 0.97993 0.0
H55 H 0.02434 0.46001 0.96922 0.0
H56 H 0.02337 0.48918 0.97522 0.0
H57 H 0.76683 0.79378 0.24659 0.0
C58 C 0.76693 0.78844 0.23489 0.0
C59 C 0.77391 0.79744 0.22407 0.0
C60 C 0.76074 0.77231 0.23084 0.0
H61 H 0.77995 0.79674 0.20068 0.0
C62 C 0.77408 0.79012 0.20898 0.0
C63 C 0.76777 0.77396 0.20474 0.0
C64 C 0.76112 0.76517 0.21582 0.0
C65 C 0.75591 0.76225 0.2426 0.0
H66 H 0.75638 0.75266 0.21283 0.0
C67 C 0.74124 0.7641 0.25037 0.0
C68 C 0.73703 0.75439 0.26162 0.0
C69 C 0.76628 0.75067 0.24607 0.0
H70 H 0.7776 0.7491 0.24018 0.0
C71 C 0.76223 0.74115 0.25727 0.0
H72 H 0.73319 0.77301 0.24766 0.0
C73 C 0.74773 0.74298 0.26502 0.0
H74 H 0.74471 0.73523 0.27349 0.0
H75 H 0.77031 0.73227 0.25991 0.0
H76 H 0.09372 0.95667 0.488 0.0
C77 C 0.08484 0.96046 0.48021 0.0
C78 C 0.08734 0.97589 0.47574 0.0
C79 C 0.07138 0.94962 0.47405 0.0
H80 H 0.07805 0.99217 0.46151 0.0
C81 C 0.07602 0.98043 0.46522 0.0
C82 C 0.06255 0.96973 0.4589 0.0
C83 C 0.06025 0.9544 0.46352 0.0
C84 C 0.07006 0.9326 0.47697 0.0
H85 H 0.05018 0.94587 0.4584 0.0
C86 C 0.0695 0.92843 0.49173 0.0
C87 C 0.06823 0.91208 0.49403 0.0
C88 C 0.06942 0.92034 0.46464 0.0
H89 H 0.06997 0.92324 0.45321 0.0
C90 C 0.06826 0.90423 0.46687 0.0
H91 H 0.06997 0.93782 0.50131 0.0
C92 C 0.06764 0.90011 0.48142 0.0
H93 H 0.0664 0.88747 0.48277 0.0
H94 H 0.06776 0.89489 0.45727 0.0
H95 H 0.26468 0.69907 0.78691 0.0
C96 C 0.26178 0.70532 0.79775 0.0
C97 C 0.26807 0.70057 0.81111 0.0
C98 C 0.25197 0.71826 0.79817 0.0
H99 H 0.26948 0.70571 0.83541 0.0
C100 C 0.26434 0.70898 0.82504 0.0
C101 C 0.25453 0.72201 0.82567 0.0
C102 C 0.24811 0.72637 0.81215 0.0
C103 C 0.24762 0.72443 0.78395 0.0
H104 H 0.24104 0.73673 0.81247 0.0
C105 C 0.23104 0.72572 0.77942 0.0
C106 C 0.22731 0.73103 0.76548 0.0
C107 C 0.26041 0.72886 0.77467 0.0
H108 H 0.27324 0.72807 0.77799 0.0
C109 C 0.25682 0.73452 0.76112 0.0
H110 H 0.22113 0.72207 0.78644 0.0
C111 C 0.24043 0.73558 0.75653 0.0
H112 H 0.23803 0.74007 0.74596 0.0
H113 H 0.26677 0.73804 0.75412 0.0
H114 H 0.97758 0.57625 0.46427 0.0
C115 C 0.96949 0.56662 0.46783 0.0
C116 C 0.96654 0.5665 0.48324 0.0
C117 C 0.96143 0.55473 0.4569 0.0
H118 H 0.9533 0.5539 0.49936 0.0
C119 C 0.95574 0.55401 0.48754 0.0
C120 C 0.94751 0.54203 0.4767 0.0
C121 C 0.95049 0.54254 0.46138 0.0
C122 C 0.96253 0.55614 0.44068 0.0
H123 H 0.94377 0.53384 0.4528 0.0
C124 C 0.97663 0.55222 0.43271 0.0
C125 C 0.97676 0.55253 0.41699 0.0
C126 C 0.94882 0.56079 0.43297 0.0
H127 H 0.93787 0.56383 0.43894 0.0
C128 C 0.94907 0.56151 0.41752 0.0
H129 H 0.98713 0.54838 0.4386 0.0
C130 C 0.96288 0.55735 0.40955 0.0
H131 H 0.96274 0.55793 0.39753 0.0
H132 H 0.93846 0.56516 0.41167 0.0
H133 H 0.82746 0.8158 0.79936 0.0
C134 C 0.82571 0.80665 0.80675 0.0
C135 C 0.83347 0.79228 0.80387 0.0
C136 C 0.81637 0.80966 0.81957 0.0
H137 H 0.8375 0.76982 0.81206 0.0
C138 C 0.83117 0.78066 0.81382 0.0
C139 C 0.82167 0.78342 0.82662 0.0
C140 C 0.81424 0.79791 0.82928 0.0
C141 C 0.81049 0.82575 0.82396 0.0
H142 H 0.80692 0.80021 0.83913 0.0
C143 C 0.8011 0.83328 0.81386 0.0
C144 C 0.79591 0.84868 0.81843 0.0
C145 C 0.81462 0.83379 0.83857 0.0
H146 H 0.82197 0.82836 0.84649 0.0
C147 C 0.80955 0.84897 0.84309 0.0
H148 H 0.79784 0.82719 0.80258 0.0
C149 C 0.80027 0.85637 0.83314 0.0
H150 H 0.79625 0.86807 0.83706 0.0
H151 H 0.8128 0.85502 0.85437 0.0
H152 H 0.32445 0.3136 0.29858 0.0
C153 C 0.32253 0.3042 0.30569 0.0
C154 C 0.33084 0.29016 0.30295 0.0
C155 C 0.31231 0.30653 0.318 0.0
H156 H 0.33487 0.26752 0.3108 0.0
C157 C 0.32834 0.27823 0.31256 0.0
C158 C 0.31779 0.28022 0.32471 0.0
C159 C 0.30984 0.2944 0.32728 0.0
C160 C 0.3058 0.32234 0.32236 0.0
H161 H 0.30215 0.2963 0.33693 0.0
C162 C 0.29668 0.3298 0.31202 0.0
C163 C 0.29095 0.34497 0.31652 0.0
C164 C 0.30908 0.33019 0.33716 0.0
H165 H 0.31619 0.3248 0.34527 0.0
C166 C 0.30348 0.34517 0.3416 0.0
H167 H 0.29407 0.32384 0.30059 0.0
C168 C 0.2945 0.35253 0.33139 0.0
H169 H 0.29008 0.36407 0.33522 0.0
H170 H 0.3061 0.3511 0.35302 0.0
H171 H 0.51933 0.97775 0.54046 0.0
C172 C 0.50846 0.98429 0.54005 0.0
C173 C 0.50234 0.9918 0.55347 0.0
C174 C 0.50129 0.9861 0.52599 0.0
H175 H 0.48357 0.00637 0.56285 0.0
C176 C 0.48857 1.00077 0.55259 0.0
C177 C 0.48111 1.00245 0.53855 0.0
C178 C 0.48766 0.99512 0.52532 0.0
C179 C 0.50888 0.97986 0.51188 0.0
H180 H 0.48243 0.99676 0.51439 0.0
C181 C 0.50941 0.96323 0.50756 0.0
C182 C 0.51584 0.95751 0.49362 0.0
C183 C 0.51519 0.99075 0.50241 0.0
H184 H 0.5149 1.00359 0.50557 0.0
C185 C 0.52198 0.98517 0.48882 0.0
H186 H 0.50425 0.95481 0.51474 0.0
C187 C 0.52228 0.96869 0.48442 0.0
H188 H 0.52759 0.96468 0.47379 0.0
H189 H 0.52692 0.99365 0.48163 0.0
H190 H 0.27006 0.29606 0.74481 0.0
C191 C 0.26911 0.29078 0.73306 0.0
C192 C 0.27608 0.2994 0.72198 0.0
C193 C 0.262 0.27487 0.7292 0.0
H194 H 0.2805 0.29855 0.69822 0.0
C195 C 0.27538 0.29198 0.70689 0.0
C196 C 0.26821 0.2761 0.70288 0.0
C197 C 0.26152 0.26763 0.71413 0.0
C198 C 0.25724 0.26503 0.74114 0.0
H199 H 0.25652 0.25517 0.71128 0.0
C200 C 0.24288 0.26732 0.74926 0.0
C201 C 0.23868 0.25773 0.76062 0.0
C202 C 0.26735 0.25315 0.74438 0.0
H203 H 0.27843 0.25123 0.73821 0.0
C204 C 0.26332 0.24375 0.75568 0.0
H205 H 0.23505 0.27647 0.74674 0.0
C206 C 0.24911 0.246 0.76376 0.0
H207 H 0.2461 0.23831 0.77227 0.0
H208 H 0.27119 0.23462 0.75812 0.0
H209 H 0.82881 0.24706 0.74042 0.0
C210 C 0.82021 0.23634 0.73776 0.0
C211 C 0.82429 0.22173 0.74216 0.0
C212 C 0.80502 0.23734 0.73014 0.0
H213 H 0.81569 0.19688 0.74274 0.0
C214 C 0.81293 0.20801 0.73877 0.0
C215 C 0.79754 0.2088 0.73131 0.0
C216 C 0.79376 0.22353 0.72684 0.0
C217 C 0.8004 0.2533 0.72722 0.0
H218 H 0.78186 0.22441 0.7213 0.0
C219 C 0.79755 0.25682 0.71245 0.0
C220 C 0.79459 0.27257 0.71004 0.0
C221 C 0.79967 0.26541 0.73951 0.0
H222 H 0.80178 0.26291 0.75095 0.0
C223 C 0.79626 0.28083 0.73718 0.0
H224 H 0.79835 0.2476 0.7029 0.0
C225 C 0.79385 0.28445 0.72257 0.0
H226 H 0.79138 0.29657 0.72104 0.0
H227 H 0.79569 0.29008 0.74672 0.0
H228 H 0.58347 0.5494 0.55718 0.0
C229 C 0.5747 0.54674 0.5656 0.0
C230 C 0.57366 0.53161 0.57079 0.0
C231 C 0.56544 0.55896 0.57212 0.0
H232 H 0.56144 0.51695 0.58596 0.0
C233 C 0.56266 0.52869 0.5822 0.0
C234 C 0.55332 0.5408 0.5889 0.0
C235 C 0.55483 0.55589 0.58373 0.0
C236 C 0.5683 0.57553 0.56822 0.0
H237 H 0.54818 0.56555 0.58909 0.0
C238 C 0.56611 0.57886 0.55328 0.0
C239 C 0.56888 0.5948 0.54996 0.0
C240 C 0.57335 0.58822 0.57973 0.0
H241 H 0.5752 0.58593 0.59127 0.0
C242 C 0.57622 0.60393 0.57648 0.0
H243 H 0.56219 0.56913 0.54435 0.0
C244 C 0.57399 0.60723 0.56175 0.0
H245 H 0.57596 0.61962 0.55963 0.0
H246 H 0.58009 0.61361 0.58545 0.0
H247 H 0.59327 0.45894 0.98859 0.0
C248 C 0.58449 0.46251 0.98057 0.0
C249 C 0.58722 0.4776 0.97544 0.0
C250 C 0.57089 0.45166 0.97481 0.0
H251 H 0.57869 0.49286 0.95992 0.0
C252 C 0.57603 0.4817 0.96455 0.0
C253 C 0.56216 0.47114 0.95884 0.0
C254 C 0.55964 0.45621 0.96426 0.0
C255 C 0.56955 0.43476 0.97804 0.0
H256 H 0.54907 0.44782 0.96005 0.0
C257 C 0.56881 0.43084 0.99287 0.0
C258 C 0.5676 0.41456 0.99539 0.0
C259 C 0.56913 0.42234 0.96586 0.0
H260 H 0.5698 0.42506 0.95439 0.0
C261 C 0.56804 0.4063 0.96832 0.0
H262 H 0.56909 0.44035 1.00233 0.0
C263 C 0.56726 0.40242 0.98294 0.0
H264 H 0.56609 0.38982 0.98448 0.0
H265 H 0.56772 0.39683 0.95885 0.0
H266 H 0.76339 0.19652 0.28799 0.0
C267 C 0.76026 0.20269 0.2988 0.0
C268 C 0.76602 0.19764 0.3122 0.0
C269 C 0.75061 0.21574 0.29916 0.0
H270 H 0.76677 0.20233 0.3365 0.0
C271 C 0.76205 0.20592 0.32611 0.0
C272 C 0.7526 0.21921 0.3267 0.0
C273 C 0.74663 0.22382 0.31312 0.0
C274 C 0.74644 0.22203 0.28497 0.0
H275 H 0.73981 0.23433 0.31336 0.0
C276 C 0.72991 0.22347 0.28041 0.0
C277 C 0.72628 0.22918 0.26665 0.0
C278 C 0.75932 0.2266 0.27585 0.0
H279 H 0.77211 0.22568 0.2792 0.0
C280 C 0.75585 0.23264 0.26247 0.0
H281 H 0.71996 0.21966 0.28732 0.0
C282 C 0.7395 0.23395 0.25789 0.0
H283 H 0.73724 0.23882 0.24749 0.0
H284 H 0.76587 0.23631 0.2556 0.0
H285 H 0.47757 0.08016 0.96278 0.0
C286 C 0.46937 0.07042 0.96601 0.0
C287 C 0.46557 0.07022 0.98125 0.0
C288 C 0.46199 0.05848 0.95474 0.0
H289 H 0.45119 0.05743 0.99661 0.0
C290 C 0.45471 0.05746 0.98505 0.0
C291 C 0.44741 0.04532 0.97389 0.0
C292 C 0.4511 0.04599 0.95875 0.0
C293 C 0.4638 0.0601 0.93862 0.0
H294 H 0.44533 0.03687 0.94998 0.0
C295 C 0.47894 0.05831 0.9316 0.0
C296 C 0.48013 0.0596 0.91609 0.0
C297 C 0.44993 0.06326 0.93012 0.0
H298 H 0.43818 0.06465 0.93535 0.0
C299 C 0.45109 0.06472 0.91487 0.0
H300 H 0.48965 0.05581 0.93814 0.0
C301 C 0.46603 0.06288 0.90787 0.0
H302 H 0.46644 0.06369 0.89591 0.0
H303 H 0.44032 0.06714 0.9084 0.0
Li304 Li 0.27444 0.89168 0.0186 0.0
Li305 Li 0.26176 0.87413 0.03418 0.0
Li306 Li 0.25558 0.86899 0.00662 0.0
Li307 Li 0.24473 0.89301 0.02395 0.0
C308 C 0.29252 0.86588 0.01452 0.0
N309 N 0.32485 0.86105 0.00786 0.0
C310 C 0.30516 0.86961 0.02575 0.0
C311 C 0.29628 0.85948 0.99995 0.0
C312 C 0.32144 0.86716 0.02214 0.0
C313 C 0.31271 0.85718 0.9968 0.0
C314 C 0.26812 0.90243 0.05282 0.0
C315 C 0.2603 0.91225 0.07788 0.0
N316 N 0.27599 0.91121 0.08322 0.0
C317 C 0.28421 0.90161 0.05852 0.0
C318 C 0.25608 0.90792 0.06253 0.0
C319 C 0.28793 0.90603 0.07394 0.0
C320 C 0.29673 0.91978 0.02476 0.0
N321 N 0.29392 0.90558 0.01545 0.0
C322 C 0.31739 0.9126 1.00127 0.0
C323 C 0.30391 0.9019 1.00381 0.0
C324 C 0.32055 0.92737 0.01067 0.0
C325 C 0.31001 0.93089 0.02258 0.0
H326 H 0.28846 0.92263 0.03375 0.0
H327 H 0.30116 0.89088 0.99618 0.0
C328 C 0.27465 0.85029 0.04947 0.0
N329 N 0.2651 0.86281 0.05133 0.0
C330 C 0.27756 0.84151 0.06135 0.0
C331 C 0.26066 0.85855 0.07688 0.0
C332 C 0.25794 0.86687 0.06465 0.0
C333 C 0.27062 0.84564 0.07537 0.0
H334 H 0.27991 0.84698 0.03869 0.0
H335 H 0.24999 0.87651 0.06582 0.0
C336 C 0.26213 0.90274 0.99491 0.0
N337 N 0.27687 0.92435 0.97755 0.0
C338 C 0.26162 0.91927 0.99909 0.0
C339 C 0.27007 0.89719 0.98188 0.0
C340 C 0.26918 0.93001 0.99017 0.0
C341 C 0.27745 0.90831 0.97324 0.0
C342 C 0.23155 0.85976 0.03268 0.0
C343 C 0.23348 0.84331 0.0311 0.0
C344 C 0.22205 0.86653 0.04417 0.0
C345 C 0.22595 0.83389 0.04117 0.0
C346 C 0.21468 0.85669 0.05399 0.0
N347 N 0.21678 0.84072 0.05231 0.0
C348 C 0.2545 0.83792 0.98994 0.0
C349 C 0.24492 0.85774 0.97621 0.0
C350 C 0.25251 0.82642 0.97708 0.0
N351 N 0.25087 0.85327 0.98924 0.0
C352 C 0.24296 0.84669 0.96302 0.0
C353 C 0.24694 0.83083 0.96332 0.0
H354 H 0.25939 0.83475 1.00042 0.0
H355 H 0.24202 0.86999 0.97598 0.0
C356 C 0.23126 0.92235 0.0327 0.0
N357 N 0.22723 0.90666 0.02696 0.0
C358 C 0.21891 0.9328 0.03528 0.0
C359 C 0.19842 0.91077 0.02596 0.0
C360 C 0.2112 0.90074 0.02351 0.0
C361 C 0.2022 0.92706 0.03194 0.0
H362 H 0.2441 0.92672 0.0354 0.0
H363 H 0.20835 0.88822 0.0189 0.0
O364 O 0.2765 0.86814 0.01785 0.0
O365 O 0.26425 0.89819 0.03776 0.0
O366 O 0.25519 0.89207 1.00372 0.0
O367 O 0.23919 0.86927 0.0232 0.0
H368 H 0.30241 0.8743 0.03714 0.0
H369 H 0.28665 0.85653 0.99112 0.0
H370 H 0.33136 0.87006 0.03071 0.0
H371 H 0.31582 0.85235 0.98554 0.0
H372 H 0.25107 0.9164 0.08555 0.0
H373 H 0.29373 0.89765 0.05111 0.0
H374 H 0.24355 0.90859 0.05831 0.0
H375 H 0.30032 0.90539 0.07852 0.0
H376 H 0.32497 0.90954 0.99176 0.0
H377 H 0.31202 0.94211 0.03014 0.0
H378 H 0.28499 0.83144 0.05945 0.0
H379 H 0.25511 0.86235 0.08744 0.0
H380 H 0.25563 0.92376 0.00919 0.0
H381 H 0.27083 0.88444 0.97862 0.0
H382 H 0.26898 0.94284 0.99332 0.0
H383 H 0.28373 0.90419 0.96318 0.0
H384 H 0.24088 0.83793 0.02231 0.0
H385 H 0.22058 0.87928 0.04563 0.0
H386 H 0.22742 0.82116 0.04016 0.0
H387 H 0.20736 0.86178 0.06299 0.0
H388 H 0.25587 0.81437 0.97775 0.0
H389 H 0.23847 0.85052 0.95267 0.0
H390 H 0.22241 0.94517 0.04011 0.0
H391 H 0.18575 0.90585 0.02308 0.0
Li392 Li 0.12792 0.50701 0.26294 0.0
Li393 Li 0.1475 0.48871 0.25161 0.0
Li394 Li 0.14997 0.51819 0.24878 0.0
Li395 Li 0.12797 0.49979 0.23451 0.0
C396 C 0.15336 0.50987 0.28273 0.0
N397 N 0.15467 0.51374 0.3139 0.0
C398 C 0.15605 0.49686 0.29041 0.0
C399 C 0.15151 0.52489 0.29091 0.0
C400 C 0.15665 0.49906 0.30617 0.0
C401 C 0.15215 0.52659 0.30666 0.0
C402 C 0.11571 0.47002 0.24811 0.0
C403 C 0.10787 0.44514 0.23176 0.0
N404 N 0.10121 0.43865 0.24359 0.0
C405 C 0.10856 0.46317 0.26006 0.0
C406 C 0.11517 0.46099 0.2338 0.0
C407 C 0.10139 0.44727 0.25757 0.0
C408 C 0.10545 0.52441 0.28082 0.0
N409 N 0.11417 0.5113 0.27985 0.0
C410 C 0.10384 0.50463 0.30322 0.0
C411 C 0.11349 0.50142 0.29071 0.0
C412 C 0.09475 0.51817 0.30462 0.0
C413 C 0.09569 0.52812 0.29317 0.0
H414 H 0.10609 0.53205 0.27203 0.0
H415 H 0.12053 0.49107 0.28971 0.0
C416 C 0.17645 0.47283 0.2507 0.0
N417 N 0.16031 0.47109 0.25433 0.0
C418 C 0.18696 0.46103 0.25299 0.0
C419 C 0.16405 0.44574 0.26269 0.0
C420 C 0.15398 0.45786 0.26023 0.0
C421 C 0.18085 0.44728 0.25917 0.0
H422 H 0.18122 0.48352 0.24613 0.0
H423 H 0.14126 0.45686 0.2634 0.0
C424 C 0.1263 0.53665 0.2442 0.0
N425 N 0.12813 0.56826 0.23865 0.0
C426 C 0.12255 0.5402 0.22973 0.0
C427 C 0.1308 0.54918 0.25588 0.0
C428 C 0.12358 0.55626 0.22715 0.0
C429 C 0.13171 0.56508 0.25284 0.0
C430 C 0.15798 0.49139 0.22049 0.0
C431 C 0.16706 0.49989 0.21059 0.0
C432 C 0.15503 0.47465 0.21732 0.0
C433 C 0.17268 0.49153 0.19749 0.0
C434 C 0.16087 0.46672 0.20413 0.0
N435 N 0.16948 0.47525 0.19455 0.0
C436 C 0.17496 0.54377 0.25908 0.0
C437 C 0.16555 0.54232 0.23356 0.0
C438 C 0.18572 0.55743 0.25782 0.0
N439 N 0.16511 0.53658 0.24706 0.0
C440 C 0.17616 0.55589 0.23177 0.0
C441 C 0.18643 0.56366 0.24401 0.0
H442 H 0.17446 0.53891 0.26966 0.0
H443 H 0.1575 0.53644 0.22421 0.0
C444 C 0.09848 0.49036 0.21615 0.0
N445 N 0.11469 0.49609 0.21604 0.0
C446 C 0.08836 0.48855 0.20296 0.0
C447 C 0.11178 0.49863 0.1898 0.0
C448 C 0.12143 0.50022 0.20322 0.0
C449 C 0.09495 0.49284 0.18955 0.0
H450 H 0.09333 0.48744 0.22657 0.0
H451 H 0.1342 0.50517 0.20347 0.0
O452 O 0.15248 0.50789 0.2673 0.0
O453 O 0.12268 0.48563 0.25036 0.0
O454 O 0.12571 0.52098 0.24687 0.0
O455 O 0.15242 0.49943 0.2334 0.0
H456 H 0.15754 0.48517 0.28428 0.0
H457 H 0.14943 0.53509 0.28516 0.0
H458 H 0.15863 0.48907 0.31226 0.0
H459 H 0.15061 0.53812 0.31312 0.0
H460 H 0.10742 0.43802 0.22074 0.0
H461 H 0.10863 0.47001 0.27116 0.0
H462 H 0.12013 0.46619 0.2243 0.0
H463 H 0.09594 0.44179 0.26675 0.0
H464 H 0.10336 0.49646 0.31161 0.0
H465 H 0.08911 0.53879 0.29379 0.0
H466 H 0.19976 0.46268 0.24995 0.0
H467 H 0.15886 0.4355 0.26772 0.0
H468 H 0.11896 0.53069 0.22057 0.0
H469 H 0.13373 0.54666 0.26714 0.0
H470 H 0.12079 0.55918 0.21599 0.0
H471 H 0.13531 0.57489 0.26175 0.0
H472 H 0.1697 0.51281 0.21294 0.0
H473 H 0.14852 0.4678 0.22505 0.0
H474 H 0.17962 0.49797 0.18968 0.0
H475 H 0.15864 0.45377 0.20154 0.0
H476 H 0.19356 0.56292 0.26749 0.0
H477 H 0.17613 0.56039 0.22099 0.0
H478 H 0.07541 0.48427 0.20338 0.0
H479 H 0.11746 0.50196 0.17974 0.0
Li480 Li 0.77799 0.62975 0.99369 0.0
Li481 Li 0.79194 0.65475 0.01164 0.0
Li482 Li 0.79554 0.65079 0.98405 0.0
Li483 Li 0.80836 0.63448 0.99912 0.0
C484 C 0.76651 0.66325 0.98738 0.0
N485 N 0.75121 0.68413 0.97142 0.0
C486 C 0.77187 0.67966 0.98962 0.0
C487 C 0.75328 0.65745 0.97715 0.0
C488 C 0.76401 0.69003 0.9814 0.0
C489 C 0.74572 0.66821 0.96917 0.0
C490 C 0.79601 0.62057 0.02208 0.0
C491 C 0.80925 0.61427 0.04477 0.0
N492 N 0.80817 0.59849 0.03874 0.0
C493 C 0.79493 0.60429 0.01613 0.0
C494 C 0.80317 0.62562 0.03653 0.0
C495 C 0.80119 0.59332 0.02471 0.0
C496 C 0.76004 0.59931 0.98421 0.0
N497 N 0.75901 0.6144 0.99148 0.0
C498 C 0.731 0.60739 0.99749 0.0
C499 C 0.74488 0.61862 0.99803 0.0
C500 C 0.73167 0.59163 0.99015 0.0
C501 C 0.74644 0.58771 0.98335 0.0
H502 H 0.77149 0.59624 0.97922 0.0
H503 H 0.7445 0.63066 1.00389 0.0
C504 C 0.79483 0.68451 0.03146 0.0
N505 N 0.78861 0.66879 0.02954 0.0
C506 C 0.79281 0.69438 0.04501 0.0
C507 C 0.77775 0.67177 0.05414 0.0
C508 C 0.78001 0.66238 0.04044 0.0
C509 C 0.78432 0.68798 0.05665 0.0
H510 H 0.8016 0.6893 0.02257 0.0
H511 H 0.77505 0.64988 0.03853 0.0
C512 C 0.79711 0.62452 0.96442 0.0
N513 N 0.79914 0.62 0.93343 0.0
C514 C 0.81233 0.6274 0.95792 0.0
C515 C 0.78295 0.61915 0.95518 0.0
C516 C 0.81309 0.62512 0.94222 0.0
C517 C 0.78423 0.61697 0.93953 0.0
C518 C 0.82878 0.66129 1.0044 0.0
C519 C 0.84042 0.65791 0.99353 0.0
C520 C 0.83418 0.66763 0.01915 0.0
C521 C 0.85729 0.66072 0.99766 0.0
C522 C 0.85116 0.6703 0.02283 0.0
N523 N 0.86227 0.6668 0.0121 0.0
C524 C 0.81051 0.6746 0.9677 0.0
C525 C 0.78685 0.65977 0.9549 0.0
C526 C 0.81268 0.68381 0.95588 0.0
N527 N 0.7978 0.66278 0.96701 0.0
C528 C 0.78859 0.66864 0.94279 0.0
C529 C 0.80165 0.68089 0.94317 0.0
H530 H 0.81894 0.67698 0.97748 0.0
H531 H 0.77662 0.65059 0.95466 0.0
C532 C 0.83003 0.61013 0.99225 0.0
N533 N 0.82718 0.62277 1.00265 0.0
C534 C 0.84277 0.60056 0.99482 0.0
C535 C 0.84953 0.61723 0.0187 0.0
C536 C 0.8366 0.6264 0.01572 0.0
C537 C 0.85269 0.60403 0.00822 0.0
H538 H 0.82222 0.60729 0.98206 0.0
H539 H 0.83383 0.63616 0.02405 0.0
O540 O 0.77425 0.65288 0.99509 0.0
O541 O 0.79033 0.63154 0.01369 0.0
O542 O 0.7961 0.62677 0.97976 0.0
O543 O 0.81221 0.65858 1.00059 0.0
H544 H 0.78213 0.6843 0.99749 0.0
H545 H 0.74903 0.64475 0.97529 0.0
H546 H 0.7681 0.70275 0.98292 0.0
H547 H 0.73553 0.6639 0.96114 0.0
H548 H 0.81492 0.61801 0.05594 0.0
H549 H 0.78955 0.60022 0.00491 0.0
H550 H 0.80424 0.63821 0.04124 0.0
H551 H 0.80056 0.58069 0.02021 0.0
H552 H 0.72002 0.61093 1.0031 0.0
H553 H 0.7475 0.57582 0.9774 0.0
H554 H 0.79819 0.70677 0.04648 0.0
H555 H 0.77086 0.6664 0.06267 0.0
H556 H 0.82343 0.63138 0.96491 0.0
H557 H 0.77105 0.61695 0.96002 0.0
H558 H 0.82478 0.6274 0.93703 0.0
H559 H 0.77335 0.61295 0.93223 0.0
H560 H 0.83646 0.65315 0.98204 0.0
H561 H 0.82536 0.67025 0.02773 0.0
H562 H 0.86643 0.65808 0.98937 0.0
H563 H 0.85551 0.6751 0.03422 0.0
H564 H 0.82299 0.69303 0.95664 0.0
H565 H 0.77961 0.66614 0.93337 0.0
H566 H 0.84483 0.59055 0.98639 0.0
H567 H 0.85667 0.62017 0.02929 0.0
Li568 Li 0.90617 0.0273 0.28157 0.0
Li569 Li 0.92927 0.01147 0.29123 0.0
Li570 Li 0.92661 0.01597 0.26491 0.0
Li571 Li 0.90641 0.99796 0.2743 0.0
C572 C 0.94316 0.04219 0.27782 0.0
N573 N 0.96804 0.06057 0.26586 0.0
C574 C 0.95965 0.03897 0.27961 0.0
C575 C 0.93931 0.05481 0.27005 0.0
C576 C 0.97205 0.04839 0.27345 0.0
C577 C 0.95207 0.06395 0.26406 0.0
C578 C 0.89514 0.99893 0.30134 0.0
C579 C 0.89164 0.97504 0.31352 0.0
N580 N 0.87495 0.97575 0.31292 0.0
C581 C 0.87797 0.99947 0.30088 0.0
C582 C 0.90206 0.98665 0.30773 0.0
C583 C 0.86797 0.98762 0.30679 0.0
C584 C 0.87587 0.04135 0.28396 0.0
N585 N 0.89251 0.04434 0.28677 0.0
C586 C 0.88958 0.07182 0.29622 0.0
C587 C 0.89949 0.05918 0.29282 0.0
C588 C 0.87232 0.0691 0.29348 0.0
C589 C 0.86549 0.05359 0.28732 0.0
H590 H 0.8707 0.02949 0.27893 0.0
H591 H 0.91276 0.06122 0.29494 0.0
C592 C 0.95798 1.00279 0.30589 0.0
N593 N 0.94346 0.00946 0.30811 0.0
C594 C 0.96799 1.0003 0.31823 0.0
C595 C 0.94796 0.01171 0.33487 0.0
C596 C 0.93839 0.01405 0.32222 0.0
C597 C 0.96294 0.00464 0.33298 0.0
H598 H 0.96165 0.99916 0.29453 0.0
H599 H 0.92675 0.01928 0.32364 0.0
C600 C 0.89568 0.01956 0.24896 0.0
N601 N 0.88195 0.02967 0.2236 0.0
C602 C 0.88985 0.00832 0.23658 0.0
C603 C 0.89428 0.03592 0.24852 0.0
C604 C 0.88303 0.01368 0.22384 0.0
C605 C 0.88737 0.0408 0.23557 0.0
C606 C 0.93317 0.98309 0.26246 0.0
C607 C 0.92545 0.98158 0.2481 0.0
C608 C 0.94357 0.97162 0.26591 0.0
C609 C 0.92829 0.9686 0.23738 0.0
C610 C 0.9461 0.9588 0.25489 0.0
N611 N 0.93847 0.95757 0.24097 0.0
C612 C 0.95453 0.01231 0.24672 0.0
C613 C 0.93548 0.02861 0.23729 0.0
C614 C 0.96449 0.01373 0.23441 0.0
N615 N 0.94012 0.01942 0.24781 0.0
C616 C 0.9451 0.03042 0.22483 0.0
C617 C 0.95974 0.02277 0.22316 0.0
H618 H 0.95832 0.00548 0.25543 0.0
H619 H 0.92438 0.03464 0.2385 0.0
C620 C 0.87676 0.9789 0.26358 0.0
N621 N 0.89213 0.97842 0.2699 0.0
C622 C 0.86606 0.96481 0.26019 0.0
C623 C 0.88718 0.95001 0.27 0.0
C624 C 0.89744 0.96438 0.27322 0.0
C625 C 0.87124 0.95006 0.26335 0.0
H626 H 0.87278 0.99028 0.26125 0.0
H627 H 0.90966 0.96435 0.27839 0.0
O628 O 0.93081 0.03276 0.28333 0.0
O629 O 0.9051 0.01009 0.29517 0.0
O630 O 0.90201 0.01448 0.26168 0.0
O631 O 0.93049 0.99564 0.27318 0.0
H632 H 0.9628 0.02918 0.28553 0.0
H633 H 0.92659 0.05739 0.2685 0.0
H634 H 0.98487 0.04598 0.27466 0.0
H635 H 0.94927 0.07369 0.25793 0.0
H636 H 0.89682 0.96541 0.31842 0.0
H637 H 0.87241 0.00884 0.2959 0.0
H638 H 0.91532 0.98594 0.30799 0.0
H639 H 0.85465 0.98784 0.30645 0.0
H640 H 0.89534 0.08356 0.30106 0.0
H641 H 0.85229 0.05102 0.28484 0.0
H642 H 0.97933 0.99466 0.31622 0.0
H643 H 0.94368 0.01541 0.34602 0.0
H644 H 0.89048 0.99558 0.23682 0.0
H645 H 0.89873 0.04482 0.25794 0.0
H646 H 0.87852 0.00511 0.21416 0.0
H647 H 0.88635 0.05343 0.23504 0.0
H648 H 0.91743 0.99038 0.24525 0.0
H649 H 0.94959 0.97259 0.27701 0.0
H650 H 0.92242 0.96731 0.22621 0.0
H651 H 0.95412 0.94982 0.2574 0.0
H652 H 0.97586 0.00791 0.23379 0.0
H653 H 0.94092 0.03751 0.21646 0.0
H654 H 0.85381 0.96549 0.25529 0.0
H655 H 0.89179 0.93894 0.27251 0.0
Li656 Li 0.29098 0.15208 0.51177 0.0
Li657 Li 0.27784 0.12845 0.49379 0.0
Li658 Li 0.30772 0.13216 0.49873 0.0
Li659 Li 0.29471 0.14893 0.48336 0.0
C660 C 0.29449 0.11618 0.5199 0.0
N661 N 0.3047 0.09024 0.53243 0.0
C662 C 0.29155 0.10064 0.51204 0.0
C663 C 0.30264 0.11854 0.53413 0.0
C664 C 0.2968 0.08768 0.51857 0.0
C665 C 0.3077 0.10527 0.54027 0.0
C666 C 0.25724 0.1511 0.49455 0.0
C667 C 0.23063 0.14478 0.48126 0.0
N668 N 0.22303 0.14877 0.49437 0.0
C669 C 0.24917 0.15525 0.50788 0.0
C670 C 0.24791 0.14593 0.48111 0.0
C671 C 0.23187 0.15396 0.50755 0.0
C672 C 0.29025 0.18228 0.53035 0.0
N673 N 0.28814 0.16601 0.52989 0.0
C674 C 0.28175 0.16864 0.55592 0.0
C675 C 0.28378 0.1591 0.54225 0.0
C676 C 0.28399 0.18547 0.55683 0.0
C677 C 0.28815 0.19231 0.54379 0.0
H678 H 0.29362 0.18744 0.52031 0.0
H679 H 0.28176 0.14615 0.54146 0.0
C680 C 0.25574 0.10183 0.4794 0.0
N681 N 0.25864 0.11314 0.49174 0.0
C682 C 0.24203 0.09034 0.47854 0.0
C683 C 0.23458 0.10235 0.50313 0.0
C684 C 0.24849 0.11349 0.50356 0.0
C685 C 0.23122 0.09051 0.49052 0.0
H686 H 0.2642 0.10154 0.47031 0.0
H687 H 0.25133 0.12233 0.51342 0.0
C688 C 0.32779 0.15958 0.50436 0.0
N689 N 0.3611 0.16637 0.51243 0.0
C690 C 0.33972 0.15476 0.49423 0.0
C691 C 0.3328 0.16793 0.51856 0.0
C692 C 0.3565 0.15827 0.49854 0.0
C693 C 0.3497 0.17124 0.52243 0.0
C694 C 0.29766 0.12387 0.46404 0.0
C695 C 0.31349 0.12273 0.45851 0.0
C696 C 0.28419 0.12421 0.45399 0.0
C697 C 0.31558 0.122 0.44301 0.0
C698 C 0.28679 0.1235 0.43858 0.0
N699 N 0.3023 0.12242 0.43345 0.0
C700 C 0.32889 0.10697 0.49314 0.0
C701 C 0.33612 0.12503 0.51545 0.0
C702 C 0.34164 0.09761 0.49627 0.0
N703 N 0.32647 0.12049 0.50261 0.0
C704 C 0.34895 0.11603 0.51905 0.0
C705 C 0.35184 0.10207 0.50943 0.0
H706 H 0.32064 0.10318 0.48335 0.0
H707 H 0.3336 0.13545 0.52313 0.0
C708 C 0.28389 0.16878 0.46217 0.0
N709 N 0.29696 0.16124 0.46663 0.0
C710 C 0.28521 0.17791 0.4502 0.0
C711 C 0.31341 0.17134 0.44757 0.0
C712 C 0.31158 0.16248 0.45966 0.0
C713 C 0.30014 0.17932 0.44268 0.0
H714 H 0.27246 0.16786 0.468 0.0
H715 H 0.32186 0.15653 0.46342 0.0
O716 O 0.28994 0.12907 0.51344 0.0
O717 O 0.27417 0.15197 0.4947 0.0
O718 O 0.31129 0.15625 0.5004 0.0
O719 O 0.29538 0.12485 0.47921 0.0
H720 H 0.28553 0.09861 0.50091 0.0
H721 H 0.30532 0.13052 0.54025 0.0
H722 H 0.29467 0.0756 0.51259 0.0
H723 H 0.31411 0.10692 0.55123 0.0
H724 H 0.22326 0.14069 0.47096 0.0
H725 H 0.25617 0.15928 0.51838 0.0
H726 H 0.25393 0.14271 0.47069 0.0
H727 H 0.22546 0.15704 0.5178 0.0
H728 H 0.27824 0.1629 0.56564 0.0
H729 H 0.29003 0.20525 0.54405 0.0
H730 H 0.23988 0.08146 0.4686 0.0
H731 H 0.22676 0.10275 0.51273 0.0
H732 H 0.33609 0.14807 0.4833 0.0
H733 H 0.32374 0.17174 0.52655 0.0
H734 H 0.36586 0.15449 0.49086 0.0
H735 H 0.35376 0.17765 0.5334 0.0
H736 H 0.32412 0.12269 0.4661 0.0
H737 H 0.27187 0.12517 0.45806 0.0
H738 H 0.32778 0.12121 0.43859 0.0
H739 H 0.27648 0.12384 0.43069 0.0
H740 H 0.34317 0.08675 0.4887 0.0
H741 H 0.35651 0.11994 0.5293 0.0
H742 H 0.27472 0.18405 0.44709 0.0
H743 H 0.32509 0.1718 0.44205 0.0
Li744 Li 0.4299 0.5144 0.79096 0.0
Li745 Li 0.4083 0.52969 0.7812 0.0
Li746 Li 0.40751 0.50033 0.77435 0.0
Li747 Li 0.42827 0.5188 0.7642 0.0
C748 C 0.40476 0.51165 0.80945 0.0
N749 N 0.40409 0.51024 0.84009 0.0
C750 C 0.40042 0.5248 0.81925 0.0
C751 C 0.4087 0.49776 0.81523 0.0
C752 C 0.40015 0.52385 0.83471 0.0
C753 C 0.40832 0.4973 0.83075 0.0
C754 C 0.44602 0.54428 0.77857 0.0
C755 C 0.45827 0.5636 0.76354 0.0
N756 N 0.4735 0.56177 0.76951 0.0
C757 C 0.46178 0.54263 0.7846 0.0
C758 C 0.44421 0.55489 0.768 0.0
C759 C 0.47552 0.55158 0.77987 0.0
C760 C 0.45526 0.50111 0.80643 0.0
N761 N 0.44451 0.51266 0.80784 0.0
C762 C 0.45335 0.52053 0.83374 0.0
C763 C 0.44373 0.52261 0.82103 0.0
C764 C 0.46427 0.50849 0.83265 0.0
C765 C 0.46542 0.49889 0.81874 0.0
H766 H 0.45583 0.49352 0.79577 0.0
H767 H 0.4354 0.53197 0.82176 0.0
C768 C 0.37865 0.54335 0.78921 0.0
N769 N 0.3947 0.54698 0.78597 0.0
C770 C 0.36816 0.55556 0.79224 0.0
C771 C 0.39097 0.57505 0.78875 0.0
C772 C 0.40102 0.56246 0.78581 0.0
C773 C 0.37426 0.57169 0.79197 0.0
H774 H 0.37395 0.53092 0.78929 0.0
H775 H 0.41386 0.56504 0.78334 0.0
C776 C 0.43212 0.48306 0.76696 0.0
N777 N 0.43124 0.45106 0.75483 0.0
C778 C 0.43366 0.47884 0.75148 0.0
C779 C 0.43024 0.47103 0.7763 0.0
C780 C 0.43318 0.46259 0.74556 0.0
C781 C 0.42978 0.45491 0.76995 0.0
C782 C 0.39046 0.52325 0.75594 0.0
C783 C 0.37464 0.51549 0.75699 0.0
C784 C 0.39221 0.53807 0.75044 0.0
C785 C 0.3608 0.52275 0.75257 0.0
C786 C 0.37806 0.54495 0.74617 0.0
N787 N 0.36277 0.53721 0.74732 0.0
C788 C 0.38541 0.47401 0.78065 0.0
C789 C 0.39136 0.47386 0.7549 0.0
C790 C 0.3752 0.45961 0.77725 0.0
N791 N 0.39335 0.48073 0.76954 0.0
C792 C 0.3813 0.45943 0.75098 0.0
C793 C 0.37307 0.45207 0.76224 0.0
H794 H 0.38697 0.47982 0.79216 0.0
H795 H 0.3976 0.47961 0.74625 0.0
C796 C 0.45758 0.52053 0.74758 0.0
N797 N 0.44096 0.52166 0.74685 0.0
C798 C 0.467 0.52224 0.73498 0.0
C799 C 0.44199 0.52585 0.72095 0.0
C800 C 0.43308 0.52418 0.73386 0.0
C801 C 0.45923 0.5249 0.72136 0.0
H802 H 0.46352 0.51826 0.75798 0.0
H803 H 0.41982 0.52467 0.73345 0.0
O804 O 0.40525 0.51242 0.79429 0.0
O805 O 0.43245 0.53545 0.78289 0.0
O806 O 0.43217 0.49888 0.77293 0.0
O807 O 0.40414 0.51654 0.76058 0.0
H808 H 0.39744 0.53569 0.81501 0.0
H809 H 0.41226 0.48754 0.80783 0.0
H810 H 0.39687 0.53396 0.84244 0.0
H811 H 0.41146 0.48667 0.83539 0.0
H812 H 0.45707 0.57176 0.75528 0.0
H813 H 0.4634 0.53445 0.79278 0.0
H814 H 0.43212 0.5562 0.76312 0.0
H815 H 0.4878 0.55038 0.7844 0.0
H816 H 0.4523 0.52824 0.84429 0.0
H817 H 0.47378 0.48952 0.81754 0.0
H818 H 0.35534 0.55236 0.7945 0.0
H819 H 0.39629 0.58731 0.78864 0.0
H820 H 0.43505 0.488 0.74408 0.0
H821 H 0.42898 0.47409 0.78831 0.0
H822 H 0.43428 0.45914 0.73358 0.0
H823 H 0.42822 0.44546 0.77702 0.0
H824 H 0.37305 0.50407 0.76132 0.0
H825 H 0.40436 0.5443 0.7497 0.0
H826 H 0.34847 0.51692 0.75337 0.0
H827 H 0.37922 0.55647 0.74201 0.0
H828 H 0.36922 0.45433 0.78631 0.0
H829 H 0.37981 0.45421 0.73924 0.0
H830 H 0.48025 0.52158 0.73595 0.0
H831 H 0.43536 0.52753 0.71068 0.0
Li832 Li 0.77066 0.39083 0.51846 0.0
Li833 Li 0.75737 0.37101 0.53341 0.0
Li834 Li 0.75219 0.36858 0.50595 0.0
Li835 Li 0.74085 0.38984 0.5231 0.0
C836 C 0.77915 0.35441 0.50965 0.0
N837 N 0.78889 0.32697 0.49322 0.0
C838 C 0.77687 0.33964 0.51517 0.0
C839 C 0.78646 0.35525 0.49581 0.0
C840 C 0.78188 0.3259 0.5067 0.0
C841 C 0.79126 0.34124 0.48766 0.0
C842 C 0.76525 0.39725 0.55262 0.0
C843 C 0.76042 0.39608 0.57891 0.0
N844 N 0.77678 0.40055 0.58235 0.0
C845 C 0.78201 0.40188 0.55641 0.0
C846 C 0.75434 0.39439 0.56395 0.0
C847 C 0.7876 0.40348 0.57151 0.0
C848 C 0.78904 0.42122 0.5198 0.0
N849 N 0.79004 0.40511 0.51659 0.0
C850 C 0.81805 0.40964 0.50942 0.0
C851 C 0.80425 0.39918 0.51171 0.0
C852 C 0.81724 0.42639 0.51218 0.0
C853 C 0.80248 0.43212 0.51757 0.0
H854 H 0.77762 0.42561 0.52379 0.0
H855 H 0.80483 0.38632 0.50948 0.0
C856 C 0.7477 0.34989 0.55463 0.0
N857 N 0.76064 0.35915 0.54998 0.0
C858 C 0.74989 0.34125 0.56674 0.0
C859 C 0.77872 0.35171 0.56897 0.0
C860 C 0.776 0.36003 0.55675 0.0
C861 C 0.76556 0.34214 0.57418 0.0
H862 H 0.73568 0.34913 0.54888 0.0
H863 H 0.78613 0.36732 0.5527 0.0
C864 C 0.75731 0.40407 0.4965 0.0
N865 N 0.76953 0.42995 0.48275 0.0
C866 C 0.75101 0.41899 0.49982 0.0
C867 C 0.76978 0.40231 0.48614 0.0
C868 C 0.75735 0.43192 0.49274 0.0
C869 C 0.77582 0.41554 0.47934 0.0
C870 C 0.7192 0.36469 0.52206 0.0
C871 C 0.70967 0.36027 0.50862 0.0
C872 C 0.71138 0.36839 0.5356 0.0
C873 C 0.69242 0.35969 0.50895 0.0
C874 C 0.6941 0.3677 0.53545 0.0
N875 N 0.68506 0.3634 0.52224 0.0
C876 C 0.74384 0.33764 0.48944 0.0
C877 C 0.75038 0.35814 0.47426 0.0
C878 C 0.74204 0.32596 0.47669 0.0
N879 N 0.74817 0.35333 0.48802 0.0
C880 C 0.74874 0.34688 0.46122 0.0
C881 C 0.74468 0.33049 0.46232 0.0
H882 H 0.74206 0.33415 0.50052 0.0
H883 H 0.75371 0.37068 0.47341 0.0
C884 C 0.72226 0.4125 0.53976 0.0
N885 N 0.72264 0.40275 0.52642 0.0
C886 C 0.70935 0.42226 0.54247 0.0
C887 C 0.69745 0.41191 0.51762 0.0
C888 C 0.71064 0.40236 0.51538 0.0
C889 C 0.69667 0.42207 0.53134 0.0
H890 H 0.7321 0.41285 0.54824 0.0
H891 H 0.71134 0.39466 0.50479 0.0
O892 O 0.77391 0.36792 0.51759 0.0
O893 O 0.75959 0.39535 0.53788 0.0
O894 O 0.75146 0.39134 0.5035 0.0
O895 O 0.73611 0.36564 0.52193 0.0
H896 H 0.77112 0.33874 0.52581 0.0
H897 H 0.78813 0.36655 0.49128 0.0
H898 H 0.78012 0.31437 0.5108 0.0
H899 H 0.7968 0.34168 0.47687 0.0
H900 H 0.75214 0.39379 0.58779 0.0
H901 H 0.79064 0.40407 0.54778 0.0
H902 H 0.74136 0.39066 0.5612 0.0
H903 H 0.80054 0.40699 0.5746 0.0
H904 H 0.82924 0.40464 0.50556 0.0
H905 H 0.80114 0.44488 0.51969 0.0
H906 H 0.73944 0.33381 0.5701 0.0
H907 H 0.79097 0.35297 0.57441 0.0
H908 H 0.74145 0.42063 0.50787 0.0
H909 H 0.77499 0.39093 0.48362 0.0
H910 H 0.75264 0.44355 0.49525 0.0
H911 H 0.78556 0.41438 0.47142 0.0
H912 H 0.71553 0.35747 0.49803 0.0
H913 H 0.71859 0.37197 0.54608 0.0
H914 H 0.68488 0.35635 0.49863 0.0
H915 H 0.68789 0.37064 0.54583 0.0
H916 H 0.73864 0.31354 0.4781 0.0
H917 H 0.75108 0.35095 0.45044 0.0
H918 H 0.70948 0.43011 0.55309 0.0
H919 H 0.68792 0.41124 0.50875 0.0
Li920 Li 0.65142 0.99132 0.75216 0.0
Li921 Li 0.63227 0.00893 0.76456 0.0
Li922 Li 0.63204 1.00204 0.7368 0.0
Li923 Li 0.65444 0.02031 0.74978 0.0
C924 C 0.62476 0.97257 0.75636 0.0
N925 N 0.6218 0.94223 0.76519 0.0
C926 C 0.62244 0.97076 0.77147 0.0
C927 C 0.62537 0.95892 0.74571 0.0
C928 C 0.62101 0.95533 0.77572 0.0
C929 C 0.62392 0.9437 0.75041 0.0
C930 C 0.67261 0.01064 0.77386 0.0
C931 C 0.69324 0.01489 0.79436 0.0
N932 N 0.70517 0.01175 0.78435 0.0
C933 C 0.68509 0.00745 0.76376 0.0
C934 C 0.67671 0.01437 0.78928 0.0
C935 C 0.70147 0.00807 0.76929 0.0
C936 C 0.67203 0.96587 0.74369 0.0
N937 N 0.66366 0.97335 0.75508 0.0
C938 C 0.67385 0.95665 0.77224 0.0
C939 C 0.66444 0.96902 0.76917 0.0
C940 C 0.68274 0.94873 0.76075 0.0
C941 C 0.68167 0.95345 0.74629 0.0
H942 H 0.67151 0.96971 0.73266 0.0
H943 H 0.65799 0.97542 0.77812 0.0
C944 C 0.60343 0.01797 0.77908 0.0
N945 N 0.61896 0.01372 0.78153 0.0
C946 C 0.59343 0.02182 0.79121 0.0
C947 C 0.6155 0.01668 0.80816 0.0
C948 C 0.62512 0.01303 0.7957 0.0
C949 C 0.59942 0.02121 0.80602 0.0
H950 H 0.59884 0.01841 0.76767 0.0
H951 H 0.63749 0.00956 0.79732 0.0
C952 C 0.65645 0.99743 0.71872 0.0
N953 N 0.65569 0.98905 0.68776 0.0
C954 C 0.663 0.00839 0.70952 0.0
C955 C 0.64982 0.9821 0.71218 0.0
C956 C 0.66244 1.00396 0.69389 0.0
C957 C 0.64945 0.97812 0.69651 0.0
C958 C 0.62823 0.03865 0.75517 0.0
C959 C 0.61764 0.04775 0.748 0.0
C960 C 0.63643 0.04522 0.76888 0.0
C961 C 0.61537 0.0633 0.75471 0.0
C962 C 0.63383 0.06081 0.77522 0.0
N963 N 0.62344 0.06945 0.76807 0.0
C964 C 0.60763 0.98548 0.71491 0.0
C965 C 0.61896 0.0112 0.71023 0.0
C966 C 0.59756 0.98369 0.70169 0.0
N967 N 0.61807 0.99907 0.71886 0.0
C968 C 0.60912 0.00994 0.69696 0.0
C969 C 0.59818 0.99606 0.69253 0.0
H970 H 0.60708 0.97606 0.72204 0.0
H971 H 0.6274 0.02186 0.71365 0.0
C972 C 0.68013 0.04645 0.75878 0.0
N973 N 0.66833 0.03973 0.74809 0.0
C974 C 0.68975 0.06064 0.75694 0.0
C975 C 0.67454 0.06114 0.7334 0.0
C976 C 0.66519 0.04697 0.73573 0.0
C977 C 0.68711 0.06812 0.74405 0.0
H978 H 0.68208 0.04097 0.76883 0.0
H979 H 0.6553 0.04175 0.72769 0.0
O980 O 0.6265 0.98761 0.75204 0.0
O981 O 0.65642 0.00982 0.76878 0.0
O982 O 0.65655 1.00166 0.73404 0.0
O983 O 0.63064 0.02345 0.74866 0.0
H984 H 0.62191 0.98114 0.77987 0.0
H985 H 0.62701 0.96003 0.73396 0.0
H986 H 0.61932 0.95377 0.78739 0.0
H987 H 0.62448 0.93305 0.7423 0.0
H988 H 0.69658 0.01777 0.80627 0.0
H989 H 0.68223 0.00454 0.75179 0.0
H990 H 0.66723 0.01686 0.79726 0.0
H991 H 0.71124 0.00563 0.76161 0.0
H992 H 0.67455 0.95367 0.78363 0.0
H993 H 0.68826 0.94766 0.73707 0.0
H994 H 0.58104 0.02504 0.78899 0.0
H995 H 0.6207 0.01619 0.81937 0.0
H996 H 0.66856 0.02016 0.71436 0.0
H997 H 0.64481 0.97343 0.71911 0.0
H998 H 0.66739 0.01237 0.68664 0.0
H999 H 0.64417 0.96635 0.69131 0.0
H1000 H 0.61126 0.04283 0.73736 0.0
H1001 H 0.64474 0.03839 0.77456 0.0
H1002 H 0.60719 0.07048 0.7493 0.0
H1003 H 0.64008 0.06604 0.78582 0.0
H1004 H 0.58918 0.97287 0.69883 0.0
H1005 H 0.6102 0.01968 0.69016 0.0
H1006 H 0.69929 0.06559 0.76545 0.0
H1007 H 0.67179 0.06668 0.72348 0.0
Li1008 Li 0.04554 0.22986 0.8733 0.0
Li1009 Li 0.02942 0.24327 0.89306 0.0
Li1010 Li 0.03151 0.21391 0.89204 0.0
Li1011 Li 0.01528 0.2251 0.87349 0.0
C1012 C 0.0644 0.22685 0.89922 0.0
N1013 N 0.09425 0.21587 0.90667 0.0
C1014 C 0.07475 0.23544 0.91088 0.0
C1015 C 0.06922 0.21268 0.89133 0.0
C1016 C 0.0898 0.22969 0.91448 0.0
C1017 C 0.08436 0.20733 0.89528 0.0
C1018 C 0.02673 0.26106 0.87179 0.0
C1019 C 0.00935 0.28285 0.87601 0.0
N1020 N 0.02257 0.2935 0.87432 0.0
C1021 C 0.04012 0.2722 0.86996 0.0
C1022 C 0.01119 0.26639 0.87471 0.0
C1023 C 0.03777 0.28856 0.87132 0.0
C1024 C 0.06725 0.22254 0.84927 0.0
N1025 N 0.06497 0.23267 0.86202 0.0
C1026 C 0.09039 0.24845 0.85893 0.0
C1027 C 0.07631 0.2453 0.86707 0.0
C1028 C 0.09281 0.2385 0.84545 0.0
C1029 C 0.08109 0.2253 0.84072 0.0
H1030 H 0.05833 0.21232 0.8457 0.0
H1031 H 0.0743 0.25305 0.87735 0.0
C1032 C 0.0149 0.26611 0.91352 0.0
N1033 N 0.02902 0.26287 0.90643 0.0
C1034 C 0.01409 0.28079 0.92264 0.0
C1035 C 0.04252 0.2884 0.9173 0.0
C1036 C 0.04277 0.27355 0.90828 0.0
C1037 C 0.02798 0.29225 0.92454 0.0
H1038 H 0.00417 0.25738 0.91192 0.0
H1039 H 0.05386 0.27061 0.90254 0.0
C1040 C 0.02276 0.19853 0.85858 0.0
N1041 N 1.00352 0.17908 0.83606 0.0
C1042 C 0.01291 0.18506 0.86193 0.0
C1043 C 0.0227 0.20218 0.84379 0.0
C1044 C 1.00333 0.17534 0.85038 0.0
C1045 C 0.0129 0.19219 0.83256 0.0
C1046 C 0.99578 0.22022 0.89671 0.0
C1047 C 0.992 0.20445 0.8997 0.0
C1048 C 0.98298 0.23 0.89506 0.0
C1049 C 0.97546 0.19868 0.90087 0.0
C1050 C 0.9666 0.22377 0.89628 0.0
N1051 N 0.9632 0.20837 0.89913 0.0
C1052 C 0.03572 0.20334 0.91989 0.0
C1053 C 0.0362 0.18217 0.89973 0.0
C1054 C 0.03828 0.19286 0.93041 0.0
N1055 N 0.03464 0.19787 0.9049 0.0
C1056 C 0.03846 0.17116 0.90989 0.0
C1057 C 0.03951 0.17642 0.92554 0.0
H1058 H 0.03474 0.21595 0.92367 0.0
H1059 H 0.03576 0.17817 0.88773 0.0
C1060 C 0.99551 0.23173 0.84904 0.0
N1061 N 0.99574 0.22186 0.8599 0.0
C1062 C 0.9821 0.23041 0.83864 0.0
C1063 C 0.96935 0.20855 0.8505 0.0
C1064 C 0.9831 0.21022 0.86062 0.0
C1065 C 0.96871 0.21877 0.83934 0.0
H1066 H 0.00582 0.24063 0.84837 0.0
H1067 H 0.98369 0.20209 0.86893 0.0
O1068 O 0.04964 0.23236 0.8956 0.0
O1069 O 0.02887 0.24503 0.87096 0.0
O1070 O 0.032 0.20836 0.86979 0.0
O1071 O 0.01193 0.22613 0.89569 0.0
H1072 H 0.07118 0.24644 0.91707 0.0
H1073 H 0.06138 0.20588 0.88226 0.0
H1074 H 0.09794 0.23622 0.92349 0.0
H1075 H 0.08824 0.19638 0.88928 0.0
H1076 H 0.99742 0.28715 0.87839 0.0
H1077 H 0.0522 0.26829 0.86761 0.0
H1078 H 1.0007 0.25792 0.87612 0.0
H1079 H 0.04805 0.29733 0.87003 0.0
H1080 H 0.09907 0.25877 0.86297 0.0
H1081 H 0.08264 0.21714 0.83056 0.0
H1082 H 1.00257 0.28328 0.92784 0.0
H1083 H 0.05359 0.29676 0.91859 0.0
H1084 H 0.01238 0.18231 0.87337 0.0
H1085 H 0.02981 0.21283 0.84106 0.0
H1086 H 0.99563 0.16491 0.85282 0.0
H1087 H 0.01267 0.19493 0.82109 0.0
H1088 H 1.0017 0.19669 0.90101 0.0
H1089 H 0.98563 0.24221 0.8927 0.0
H1090 H 0.97236 0.18648 0.90312 0.0
H1091 H 0.95657 0.23117 0.89493 0.0
H1092 H 0.03949 0.19772 0.94225 0.0
H1093 H 0.03921 0.15866 0.90548 0.0
H1094 H 0.98211 0.23859 0.83027 0.0
H1095 H 0.95944 0.19921 0.85127 0.0
Li1096 Li 0.54182 0.73009 0.37268 0.0
Li1097 Li 0.52523 0.74532 0.39331 0.0
Li1098 Li 0.52782 0.71609 0.39172 0.0
Li1099 Li 0.51152 0.72587 0.37283 0.0
C1100 C 0.5559 0.72883 0.4054 0.0
N1101 N 0.57494 0.71649 0.42641 0.0
C1102 C 0.55397 0.73325 0.4208 0.0
C1103 C 0.56759 0.71824 0.40066 0.0
C1104 C 0.56369 0.72685 0.43125 0.0
C1105 C 0.57709 0.71212 0.41147 0.0
C1106 C 0.51712 0.75316 0.36071 0.0
C1107 C 0.4942 0.76735 0.35365 0.0
N1108 N 0.49928 0.76609 0.33925 0.0
C1109 C 0.52223 0.75214 0.34588 0.0
C1110 C 0.5031 0.76096 0.36468 0.0
C1111 C 0.51301 0.75871 0.33518 0.0
C1112 C 0.55964 0.72584 0.34597 0.0
N1113 N 0.56065 0.73229 0.36075 0.0
C1114 C 0.58859 0.74317 0.35854 0.0
C1115 C 0.57473 0.74079 0.36715 0.0
C1116 C 0.58791 0.73688 0.34314 0.0
C1117 C 0.57316 0.72804 0.3369 0.0
H1118 H 0.54823 0.7192 0.34118 0.0
H1119 H 0.57517 0.74578 0.37894 0.0
C1120 C 0.51973 0.76595 0.42028 0.0
N1121 N 0.52445 0.76531 0.40579 0.0
C1122 C 0.51875 0.78083 0.42909 0.0
C1123 C 0.52778 0.794 0.40795 0.0
C1124 C 0.52855 0.77891 0.39957 0.0
C1125 C 0.52271 0.79513 0.4229 0.0
H1126 H 0.5165 0.7549 0.42491 0.0
H1127 H 0.53237 0.77803 0.38805 0.0
C1128 C 0.52036 0.69407 0.36575 0.0
N1129 N 0.50558 0.66302 0.35844 0.0
C1130 C 0.50473 0.6898 0.37093 0.0
C1131 C 0.52847 0.68259 0.35682 0.0
C1132 C 0.49746 0.67404 0.36712 0.0
C1133 C 0.5208 0.66694 0.35326 0.0
C1134 C 0.49268 0.72823 0.40054 0.0
C1135 C 0.48437 0.71433 0.40475 0.0
C1136 C 0.48523 0.74266 0.4024 0.0
C1137 C 0.46863 0.71506 0.41055 0.0
C1138 C 0.46949 0.74289 0.40826 0.0
N1139 N 0.46158 0.7292 0.41216 0.0
C1140 C 0.52376 0.7025 0.41854 0.0
C1141 C 0.53814 0.68665 0.40039 0.0
C1142 C 0.52599 0.69192 0.42903 0.0
N1143 N 0.5299 0.69978 0.40458 0.0
C1144 C 0.54066 0.67571 0.41056 0.0
C1145 C 0.53472 0.67838 0.42519 0.0
H1146 H 0.51745 0.71315 0.42165 0.0
H1147 H 0.54317 0.6849 0.38932 0.0
C1148 C 0.49572 0.71933 0.34392 0.0
N1149 N 0.49246 0.72219 0.35881 0.0
C1150 C 0.483 0.71845 0.33283 0.0
C1151 C 0.46357 0.72238 0.35254 0.0
C1152 C 0.47669 0.72345 0.36324 0.0
C1153 C 0.46669 0.72015 0.33711 0.0
H1154 H 0.50834 0.71824 0.34066 0.0
H1155 H 0.4742 0.72565 0.37502 0.0
O1156 O 0.54608 0.73448 0.395 0.0
O1157 O 0.5257 0.74639 0.37125 0.0
O1158 O 0.52782 0.70939 0.36942 0.0
O1159 O 0.50818 0.72777 0.39498 0.0
H1160 H 0.5449 0.74137 0.42462 0.0
H1161 H 0.56912 0.71462 0.38876 0.0
H1162 H 0.56225 0.73006 0.44321 0.0
H1163 H 0.5861 0.70382 0.40798 0.0
H1164 H 0.48323 0.7733 0.35654 0.0
H1165 H 0.53308 0.74619 0.34263 0.0
H1166 H 0.49904 0.76193 0.37612 0.0
H1167 H 0.51674 0.7579 0.32363 0.0
H1168 H 0.59973 0.7498 0.36395 0.0
H1169 H 0.57193 0.72314 0.32507 0.0
H1170 H 0.51465 0.78111 0.44051 0.0
H1171 H 0.53124 0.80468 0.40279 0.0
H1172 H 0.49826 0.69856 0.37775 0.0
H1173 H 0.54059 0.68573 0.35273 0.0
H1174 H 0.48536 0.67056 0.37105 0.0
H1175 H 0.52694 0.65791 0.34638 0.0
H1176 H 0.49001 0.7031 0.40357 0.0
H1177 H 0.49148 0.75355 0.39931 0.0
H1178 H 0.46205 0.70438 0.4138 0.0
H1179 H 0.46356 0.75396 0.4097 0.0
H1180 H 0.521 0.69438 0.44008 0.0
H1181 H 0.54765 0.66558 0.40715 0.0
H1182 H 0.48591 0.71656 0.32104 0.0
H1183 H 0.45118 0.72384 0.35632 0.0
Li1184 Li 0.01823 0.77663 0.64082 0.0
Li1185 Li 0.99974 0.76344 0.658 0.0
Li1186 Li 0.02834 0.75992 0.65851 0.0
Li1187 Li 0.01119 0.7462 0.6372 0.0
C1188 C 0.01876 0.78558 0.6784 0.0
N1189 N 0.01911 0.79549 0.7091 0.0
C1190 C 0.01761 0.77422 0.68847 0.0
C1191 C 0.0201 0.80197 0.68394 0.0
C1192 C 0.0178 0.77947 0.70395 0.0
C1193 C 0.02026 0.80675 0.6995 0.0
C1194 C 0.98248 0.77024 0.63144 0.0
C1195 C 0.95497 0.76734 0.61974 0.0
N1196 N 0.95468 0.7836 0.6221 0.0
C1197 C 0.98196 0.78693 0.63363 0.0
C1198 C 0.96893 0.76036 0.62432 0.0
C1199 C 0.96778 0.79345 0.62888 0.0
C1200 C 0.02476 0.78996 0.61448 0.0
N1201 N 0.02333 0.79409 0.62954 0.0
C1202 C 0.02984 0.82194 0.62722 0.0
C1203 C 0.02577 0.80971 0.63604 0.0
C1204 C 0.03157 0.81801 0.61161 0.0
C1205 C 0.0289 0.80175 0.60528 0.0
H1206 H 0.02275 0.77743 0.60963 0.0
H1207 H 0.02462 0.81265 0.64807 0.0
C1208 C 0.97822 0.75619 0.68148 0.0
N1209 N 0.98098 0.76624 0.6709 0.0
C1210 C 0.96523 0.75799 0.69125 0.0
C1211 C 0.95843 0.78101 0.67972 0.0
C1212 C 0.97153 0.77869 0.67009 0.0
C1213 C 0.95506 0.7705 0.69044 0.0
H1214 H 0.98633 0.74695 0.6827 0.0
H1215 H 0.97431 0.78707 0.6622 0.0
C1216 C 0.04943 0.75798 0.63714 0.0
N1217 N 0.08317 0.75592 0.63946 0.0
C1218 C 0.05559 0.74297 0.63676 0.0
C1219 C 0.0604 0.77194 0.63859 0.0
C1220 C 0.0727 0.74219 0.63798 0.0
C1221 C 0.07743 0.77064 0.63976 0.0
C1222 C 0.99832 0.73005 0.65927 0.0
C1223 C 1.00149 0.7179 0.6679 0.0
C1224 C 0.98314 0.72918 0.65124 0.0
C1225 C 0.98938 0.70509 0.66837 0.0
C1226 C 0.97135 0.71619 0.65199 0.0
N1227 N 0.97468 0.70451 0.66047 0.0
C1228 C 0.05808 0.77045 0.67645 0.0
C1229 C 0.04929 0.74263 0.67482 0.0
C1230 C 0.07186 0.76863 0.68565 0.0
N1231 N 0.04718 0.75752 0.67123 0.0
C1232 C 0.06281 0.74028 0.68406 0.0
C1233 C 0.07435 0.75338 0.6896 0.0
H1234 H 0.05609 0.78217 0.67342 0.0
H1235 H 0.04052 0.73255 0.67038 0.0
C1236 C 0.99954 0.72919 0.60892 0.0
N1237 N 0.0075 0.72778 0.6222 0.0
C1238 C 0.99687 0.71596 0.59762 0.0
C1239 C 0.01072 0.7001 0.61386 0.0
C1240 C 0.01308 0.71363 0.62486 0.0
C1241 C 1.00252 0.70115 0.59999 0.0
H1242 H 0.99539 0.74065 0.60705 0.0
H1243 H 0.01939 0.71286 0.63553 0.0
O1244 O 0.01846 0.78077 0.66316 0.0
O1245 O 0.99641 0.76363 0.63569 0.0
O1246 O 0.03273 0.75904 0.63646 0.0
O1247 O 0.01018 0.74257 0.65861 0.0
H1248 H 0.01654 0.76148 0.68442 0.0
H1249 H 0.02097 0.81092 0.67629 0.0
H1250 H 0.0169 0.7708 0.71186 0.0
H1251 H 0.02128 0.8194 0.70395 0.0
H1252 H 0.94438 0.75983 0.61426 0.0
H1253 H 0.99226 0.79476 0.6392 0.0
H1254 H 0.9692 0.74743 0.62228 0.0
H1255 H 0.96717 0.80634 0.63063 0.0
H1256 H 0.03192 0.8343 0.6326 0.0
H1257 H 0.02986 0.79816 0.59329 0.0
H1258 H 0.96345 0.7499 0.69963 0.0
H1259 H 0.95101 0.79092 0.67876 0.0
H1260 H 0.04722 0.73207 0.63572 0.0
H1261 H 0.0558 0.78365 0.63897 0.0
H1262 H 0.07765 0.73067 0.63782 0.0
H1263 H 0.08608 0.78135 0.64098 0.0
H1264 H 0.01318 0.71837 0.6742 0.0
H1265 H 0.98045 0.73846 0.64456 0.0
H1266 H 0.99166 0.69562 0.67501 0.0
H1267 H 0.95954 0.71539 0.64584 0.0
H1268 H 0.08036 0.77907 0.68976 0.0
H1269 H 0.06438 0.72828 0.68662 0.0
H1270 H 0.99069 0.7174 0.58704 0.0
H1271 H 0.01512 0.6889 0.61625 0.0
Li1272 Li 0.5177 0.27744 0.14041 0.0
Li1273 Li 0.49976 0.26454 0.1598 0.0
Li1274 Li 0.52916 0.26125 0.15828 0.0
Li1275 Li 0.51045 0.24814 0.13826 0.0
C1276 C 0.52815 0.28896 0.17538 0.0
N1277 N 0.54788 0.30229 0.20043 0.0
C1278 C 0.52294 0.28714 0.18984 0.0
C1279 C 0.54328 0.29771 0.17365 0.0
C1280 C 0.53311 0.29394 0.20236 0.0
C1281 C 0.55312 0.3043 0.18646 0.0
C1282 C 0.4829 0.25729 0.12812 0.0
C1283 C 0.45906 0.23779 0.12305 0.0
N1284 N 0.45929 0.23964 0.10819 0.0
C1285 C 0.48287 0.25906 0.11282 0.0
C1286 C 0.47089 0.24662 0.13332 0.0
C1287 C 0.47083 0.25001 0.10291 0.0
C1288 C 0.5237 0.29096 0.11396 0.0
N1289 N 0.52151 0.29491 0.12893 0.0
C1290 C 0.52651 0.32296 0.12675 0.0
C1291 C 0.52275 0.31054 0.13544 0.0
C1292 C 0.52912 0.31922 0.11127 0.0
C1293 C 0.52755 0.30294 0.1049 0.0
H1294 H 0.52274 0.27842 0.10911 0.0
H1295 H 0.52109 0.31333 0.14741 0.0
C1296 C 0.47952 0.2573 0.18356 0.0
N1297 N 0.48176 0.26725 0.17287 0.0
C1298 C 0.46657 0.25892 0.19342 0.0
C1299 C 0.45856 0.28115 0.18121 0.0
C1300 C 0.47162 0.27902 0.17151 0.0
C1301 C 0.45588 0.271 0.19236 0.0
H1302 H 0.4879 0.24818 0.18452 0.0
H1303 H 0.47369 0.28678 0.1629 0.0
C1304 C 0.54704 0.26156 0.13007 0.0
N1305 N 0.57744 0.26476 0.11714 0.0
C1306 C 0.55333 0.24815 0.12214 0.0
C1307 C 0.55617 0.27662 0.13133 0.0
C1308 C 0.56874 0.25001 0.11572 0.0
C1309 C 0.57152 0.27798 0.12474 0.0
C1310 C 0.5164 0.22981 0.16101 0.0
C1311 C 0.53059 0.22551 0.15363 0.0
C1312 C 0.50816 0.21911 0.16958 0.0
C1313 C 0.53633 0.2106 0.15497 0.0
C1314 C 0.51427 0.2043 0.17064 0.0
N1315 N 0.52812 0.20038 0.16338 0.0
C1316 C 0.54504 0.25507 0.18514 0.0
C1317 C 0.564 0.26043 0.16648 0.0
C1318 C 0.558 0.25286 0.19511 0.0
N1319 N 0.54821 0.25885 0.17113 0.0
C1320 C 0.5773 0.25817 0.17601 0.0
C1321 C 0.57445 0.25435 0.1906 0.0
H1322 H 0.53238 0.25377 0.18857 0.0
H1323 H 0.56639 0.26327 0.15535 0.0
C1324 C 0.51103 0.2313 0.10911 0.0
N1325 N 0.50577 0.22975 0.12315 0.0
C1326 C 0.50828 0.21845 0.09746 0.0
C1327 C 0.49466 0.20258 0.1149 0.0
C1328 C 0.49756 0.21582 0.12619 0.0
C1329 C 0.5001 0.20375 0.10027 0.0
H1330 H 0.51732 0.2426 0.10695 0.0
H1331 H 0.49329 0.21494 0.13739 0.0
O1332 O 0.51855 0.28203 0.16298 0.0
O1333 O 0.49492 0.26557 0.13792 0.0
O1334 O 0.53184 0.25997 0.13621 0.0
O1335 O 0.51048 0.24434 0.15983 0.0
H1336 H 0.51126 0.28039 0.19136 0.0
H1337 H 0.54745 0.29929 0.16254 0.0
H1338 H 0.5293 0.29254 0.21362 0.0
H1339 H 0.56492 0.31101 0.1853 0.0
H1340 H 0.44974 0.22941 0.12688 0.0
H1341 H 0.49214 0.26722 0.10863 0.0
H1342 H 0.47085 0.24503 0.14512 0.0
H1343 H 0.4707 0.25118 0.09102 0.0
H1344 H 0.52774 0.33532 0.13217 0.0
H1345 H 0.52923 0.29949 0.093 0.0
H1346 H 0.46514 0.25099 0.20197 0.0
H1347 H 0.45055 0.29053 0.17991 0.0
H1348 H 0.54639 0.23642 0.12096 0.0
H1349 H 0.55155 0.28712 0.13743 0.0
H1350 H 0.57377 0.23973 0.10959 0.0
H1351 H 0.57874 0.28955 0.12567 0.0
H1352 H 0.53716 0.23358 0.14697 0.0
H1353 H 0.4971 0.22217 0.1753 0.0
H1354 H 0.54731 0.20714 0.14933 0.0
H1355 H 0.508 0.1959 0.17723 0.0
H1356 H 0.55513 0.25012 0.20627 0.0
H1357 H 0.58968 0.25913 0.17184 0.0
H1358 H 0.51238 0.22011 0.08634 0.0
H1359 H 0.48844 0.19151 0.11769 0.0
H1360 H 0.22578 0.73253 0.83687 0.0
H1361 H 0.22252 0.7499 0.86064 0.0
H1362 H 0.27507 0.75186 0.87088 0.0
H1363 H 0.27825 0.73414 0.84745 0.0
H1364 H 0.25862 0.74831 0.89526 0.0
H1365 H 0.23395 0.79753 0.86852 0.0
H1366 H 0.22151 0.77866 0.86405 0.0
H1367 H 0.24235 0.78075 0.85773 0.0
C1368 C 0.2366 0.73667 0.84424 0.0
C1369 C 0.25226 0.73198 0.84032 0.0
C1370 C 0.23476 0.74668 0.85776 0.0
C1371 C 0.2486 0.7525 0.86744 0.0
C1372 C 0.26419 0.74758 0.86362 0.0
H1373 H 0.25854 0.83581 0.93589 0.0
H1374 H 0.25824 0.81634 0.91302 0.0
C1375 C 0.266 0.73741 0.85024 0.0
C1376 C 0.24701 0.76369 0.88156 0.0
H1377 H 0.23421 0.80019 0.8952 0.0
C1378 C 0.25327 0.75965 0.89524 0.0
C1379 C 0.24025 0.77862 0.88154 0.0
C1380 C 0.23428 0.78425 0.86716 0.0
C1381 C 0.25309 0.77012 0.90883 0.0
C1382 C 0.24592 0.78485 0.90887 0.0
C1383 C 0.23955 0.78884 0.89522 0.0
C1384 C 0.24563 0.79667 0.92279 0.0
C1385 C 0.26116 0.7655 0.92285 0.0
C1386 C 0.23841 0.79222 0.93587 0.0
C1387 C 0.23876 0.8033 0.94903 0.0
C1388 C 0.246 0.81916 0.94926 0.0
C1389 C 0.25276 0.82372 0.93603 0.0
C1390 C 0.25262 0.81258 0.92296 0.0
H1391 H 0.27009 0.75641 0.92006 0.0
H1392 H 0.26782 0.77616 0.92987 0.0
H1393 H 0.25149 0.76015 0.92967 0.0
H1394 H 0.23249 0.78018 0.93593 0.0
H1395 H 0.23325 0.79952 0.95901 0.0
H1396 H 0.97571 0.53197 0.39076 0.0
H1397 H 0.99856 0.5257 0.37455 0.0
H1398 H 0.03286 0.55563 0.40652 0.0
H1399 H 0.00987 0.56205 0.42286 0.0
H1400 H 0.03469 0.56219 0.37585 0.0
H1401 H 0.03677 0.49725 0.37981 0.0
H1402 H 0.01635 0.50274 0.37591 0.0
H1403 H 0.02705 0.5106 0.39361 0.0
C1404 C 0.98814 0.53711 0.39442 0.0
C1405 C 0.991 0.54756 0.40805 0.0
C1406 C 1.0012 0.53341 0.3852 0.0
C1407 C 0.01743 0.54007 0.38939 0.0
C1408 C 0.02043 0.55028 0.40314 0.0
H1409 H 0.10128 0.51442 0.33425 0.0
H1410 H 0.08382 0.52016 0.35575 0.0
C1411 C 0.00733 0.55388 0.41248 0.0
C1412 C 0.03091 0.53718 0.37881 0.0
H1413 H 0.05019 0.5072 0.35898 0.0
C1414 C 0.03826 0.5502 0.37231 0.0
C1415 C 0.03564 0.52156 0.37429 0.0
C1416 C 0.02867 0.50724 0.38136 0.0
C1417 C 0.04966 0.54791 0.3609 0.0
C1418 C 0.05369 0.53216 0.3558 0.0
C1419 C 0.04694 0.51924 0.3628 0.0
C1420 C 0.06437 0.52879 0.34281 0.0
C1421 C 0.05715 0.56232 0.35427 0.0
C1422 C 0.05911 0.53153 0.32836 0.0
C1423 C 0.06894 0.52808 0.31602 0.0
C1424 C 0.08429 0.52182 0.31783 0.0
C1425 C 0.08947 0.51904 0.33236 0.0
C1426 C 0.07956 0.5224 0.34469 0.0
H1427 H 0.05619 0.57371 0.36188 0.0
H1428 H 0.0704 0.5612 0.35197 0.0
H1429 H 0.05044 0.56309 0.34343 0.0
H1430 H 0.04726 0.53614 0.3266 0.0
H1431 H 0.06435 0.53008 0.30499 0.0
H1432 H 0.82439 0.79004 0.85737 0.0
H1433 H 0.82092 0.77127 0.87586 0.0
H1434 H 0.81221 0.73162 0.83988 0.0
H1435 H 0.81572 0.75043 0.82123 0.0
H1436 H 0.79337 0.75107 0.87989 0.0
H1437 H 0.847 0.71583 0.86676 0.0
H1438 H 0.8448 0.73477 0.85988 0.0
H1439 H 0.83305 0.71668 0.85095 0.0
C1440 C 0.82169 0.77733 0.85336 0.0
C1441 C 0.82022 0.77175 0.83779 0.0
C1442 C 0.81978 0.7666 0.86396 0.0
C1443 C 0.81645 0.75001 0.8593 0.0
C1444 C 0.8151 0.74433 0.84377 0.0
H1445 H 0.79793 0.67063 0.91272 0.0
H1446 H 0.80084 0.68693 0.89203 0.0
C1447 C 0.81707 0.7551 0.83312 0.0
C1448 C 0.8138 0.73888 0.8708 0.0
H1449 H 0.82896 0.70702 0.8849 0.0
C1450 C 0.80116 0.74144 0.88097 0.0
C1451 C 0.82391 0.72625 0.87219 0.0
C1452 C 0.83805 0.72325 0.86197 0.0
C1453 C 0.79839 0.7318 0.89248 0.0
C1454 C 0.80868 0.71937 0.89404 0.0
C1455 C 0.82111 0.71657 0.88371 0.0
C1456 C 0.80698 0.70946 0.90658 0.0
C1457 C 0.78435 0.73492 0.9028 0.0
C1458 C 0.80967 0.71668 0.92162 0.0
C1459 C 0.80797 0.70742 0.93346 0.0
C1460 C 0.8036 0.69071 0.93052 0.0
C1461 C 0.80108 0.68349 0.9154 0.0
C1462 C 0.80285 0.69277 0.90356 0.0
H1463 H 0.77507 0.7418 0.89776 0.0
H1464 H 0.778 0.72345 0.90547 0.0
H1465 H 0.78938 0.74209 0.91354 0.0
H1466 H 0.81311 0.72951 0.92422 0.0
H1467 H 0.80987 0.71341 0.94494 0.0
H1468 H 0.07201 0.98447 0.43468 0.0
H1469 H 0.05446 0.99091 0.41403 0.0
H1470 H 0.0112 0.97066 0.43411 0.0
H1471 H 0.02867 0.96444 0.45504 0.0
H1472 H 0.03305 0.96858 0.3939 0.0
H1473 H 0.99877 0.01539 0.42569 0.0
H1474 H 0.01784 0.00923 0.433 0.0
H1475 H 0.99875 0.99674 0.43341 0.0
C1476 C 0.05873 0.98163 0.43487 0.0
C1477 C 0.05172 0.97407 0.4466 0.0
C1478 C 0.04873 0.98522 0.42299 0.0
C1479 C 0.03152 0.98144 0.42262 0.0
C1480 C 0.02444 0.97391 0.4343 0.0
H1481 H 0.952 0.99304 0.35847 0.0
H1482 H 0.96861 0.98732 0.38007 0.0
C1483 C 0.03445 0.97025 0.44618 0.0
C1484 C 0.02111 0.98485 0.40969 0.0
H1485 H 0.99024 0.00714 0.4001 0.0
C1486 C 0.02371 0.97704 0.39523 0.0
C1487 C 0.00889 0.99583 0.41148 0.0
C1488 C 0.00592 0.00491 0.4267 0.0
C1489 C 0.0143 0.97975 0.38253 0.0
C1490 C 1.0022 0.99089 0.38427 0.0
C1491 C 0.99953 0.99864 0.39876 0.0
C1492 C 0.99219 0.99465 0.37121 0.0
C1493 C 0.01716 0.97039 0.36741 0.0
C1494 C 0.99988 1.00095 0.35914 0.0
C1495 C 0.99042 1.00423 0.34676 0.0
C1496 C 0.97303 1.00147 0.34628 0.0
C1497 C 0.96535 0.99546 0.35853 0.0
C1498 C 0.97483 0.99212 0.37087 0.0
H1499 H 0.02326 0.95931 0.36866 0.0
H1500 H 0.00532 0.96692 0.36071 0.0
H1501 H 0.02539 0.97799 0.36099 0.0
H1502 H 0.01323 1.0034 0.35932 0.0
H1503 H 0.99672 0.00911 0.33765 0.0
H1504 H 0.29459 0.27563 0.68472 0.0
H1505 H 0.29582 0.26134 0.65924 0.0
H1506 H 0.24416 0.24404 0.65992 0.0
H1507 H 0.24301 0.258 0.68564 0.0
H1508 H 0.26149 0.22043 0.64953 0.0
H1509 H 0.27953 0.27227 0.61962 0.0
H1510 H 0.29385 0.27123 0.63505 0.0
H1511 H 0.27268 0.27473 0.63869 0.0
C1512 C 0.28343 0.26897 0.67935 0.0
C1513 C 0.26867 0.26802 0.68713 0.0
C1514 C 0.28412 0.26086 0.66474 0.0
C1515 C 0.26999 0.25188 0.65748 0.0
C1516 C 0.25521 0.25096 0.66523 0.0
H1517 H 0.26691 0.21216 0.56173 0.0
H1518 H 0.26262 0.22826 0.58595 0.0
C1519 C 0.25456 0.25891 0.67992 0.0
C1520 C 0.2709 0.24273 0.64217 0.0
H1521 H 0.28333 0.24617 0.60654 0.0
C1522 C 0.26612 0.22611 0.6401 0.0
C1523 C 0.27666 0.25013 0.62975 0.0
C1524 C 0.28079 0.2681 0.63084 0.0
C1525 C 0.26739 0.21662 0.62613 0.0
C1526 C 0.27413 0.22386 0.61398 0.0
C1527 C 0.27842 0.24056 0.6159 0.0
C1528 C 0.27696 0.21428 0.59925 0.0
C1529 C 0.26128 0.19898 0.62452 0.0
C1530 C 0.28675 0.2013 0.59861 0.0
C1531 C 0.28908 0.19203 0.58483 0.0
C1532 C 0.28194 0.19573 0.57136 0.0
C1533 C 0.27261 0.20906 0.57193 0.0
C1534 C 0.27011 0.21823 0.58576 0.0
H1535 H 0.25183 0.19657 0.63286 0.0
H1536 H 0.25579 0.19461 0.61302 0.0
H1537 H 0.27183 0.19193 0.6266 0.0
H1538 H 0.29262 0.19833 0.60878 0.0
H1539 H 0.29659 0.18202 0.58471 0.0
H1540 H 0.56003 0.52413 0.61241 0.0
H1541 H 0.54336 0.52048 0.63414 0.0
H1542 H 0.50677 0.54856 0.61734 0.0
H1543 H 0.52294 0.55157 0.59516 0.0
H1544 H 0.53475 0.54292 0.6559 0.0
H1545 H 0.47773 0.51025 0.62695 0.0
H1546 H 0.49684 0.51305 0.61744 0.0
H1547 H 0.48345 0.52901 0.62017 0.0
C1548 C 0.54825 0.52922 0.61311 0.0
C1549 C 0.54281 0.53805 0.6019 0.0
C1550 C 0.53879 0.52724 0.62565 0.0
C1551 C 0.52367 0.53404 0.62732 0.0
C1552 C 0.5182 0.54288 0.61618 0.0
H1553 H 0.45493 0.5447 0.69974 0.0
H1554 H 0.47057 0.54674 0.67704 0.0
C1555 C 0.52759 0.54478 0.60358 0.0
C1556 C 0.51406 0.53248 0.64103 0.0
H1557 H 0.47597 0.52013 0.65302 0.0
C1558 C 0.52193 0.53783 0.65525 0.0
C1559 C 0.49731 0.52585 0.64022 0.0
C1560 C 0.48837 0.51906 0.62539 0.0
C1561 C 0.51347 0.53697 0.66862 0.0
C1562 C 0.49672 0.53051 0.66778 0.0
C1563 C 0.48881 0.52515 0.65361 0.0
C1564 C 0.48722 0.52913 0.68153 0.0
C1565 C 0.52241 0.54325 0.68357 0.0
C1566 C 0.4913 0.51842 0.6915 0.0
C1567 C 0.48226 0.51706 0.70441 0.0
C1568 C 0.46895 0.52642 0.70764 0.0
C1569 C 0.46492 0.53713 0.69756 0.0
C1570 C 0.4739 0.5384 0.6846 0.0
H1571 H 0.53415 0.55069 0.68218 0.0
H1572 H 0.51441 0.55057 0.69098 0.0
H1573 H 0.52545 0.53293 0.68934 0.0
H1574 H 0.50138 0.51098 0.68921 0.0
H1575 H 0.48556 0.50846 0.7117 0.0
H1576 H 0.77388 0.25785 0.6864 0.0
H1577 H 0.76879 0.26767 0.66216 0.0
H1578 H 0.80632 0.3073 0.67486 0.0
H1579 H 0.81109 0.29777 0.6991 0.0
H1580 H 0.77844 0.31768 0.66527 0.0
H1581 H 0.7943 0.26673 0.6241 0.0
H1582 H 0.779 0.26111 0.63697 0.0
H1583 H 0.79971 0.26835 0.64399 0.0
C1584 C 0.78122 0.26848 0.68385 0.0
C1585 C 0.79281 0.2771 0.69463 0.0
C1586 C 0.77835 0.27407 0.66999 0.0
C1587 C 0.78725 0.28819 0.66661 0.0
C1588 C 0.79925 0.29642 0.6772 0.0
H1589 H 0.79279 0.3271 0.58167 0.0
H1590 H 0.79745 0.31386 0.60393 0.0
C1591 C 0.80197 0.29097 0.69105 0.0
C1592 C 0.78341 0.29517 0.6526 0.0
H1593 H 0.78161 0.28764 0.61408 0.0
C1594 C 0.77916 0.3111 0.65408 0.0
C1595 C 0.78448 0.28666 0.63798 0.0
C1596 C 0.78977 0.26982 0.63561 0.0
C1597 C 0.77603 0.31876 0.64142 0.0
C1598 C 0.77668 0.31013 0.62679 0.0
C1599 C 0.78094 0.2942 0.62528 0.0
C1600 C 0.77348 0.31764 0.61297 0.0
C1601 C 0.77255 0.33621 0.64387 0.0
C1602 C 0.75835 0.32395 0.61048 0.0
C1603 C 0.75575 0.3318 0.59789 0.0
C1604 C 0.76814 0.33331 0.58736 0.0
C1605 C 0.78309 0.3265 0.58966 0.0
C1606 C 0.78572 0.31876 0.60232 0.0
H1607 H 0.77704 0.3422 0.65527 0.0
H1608 H 0.77849 0.34298 0.63532 0.0
H1609 H 0.75898 0.33693 0.6429 0.0
H1610 H 0.74858 0.32296 0.61836 0.0
H1611 H 0.74412 0.33696 0.5966 0.0
H1612 H 0.5093 0.01611 0.57695 0.0
H1613 H 0.52461 0.01521 0.60074 0.0
H1614 H 0.53038 0.96499 0.58736 0.0
H1615 H 0.51495 0.96575 0.56353 0.0
H1616 H 0.5183 0.99599 0.62369 0.0
H1617 H 0.57814 0.98484 0.59757 0.0
H1618 H 0.56103 0.99139 0.58737 0.0
H1619 H 0.56088 0.9707 0.59038 0.0
C1620 C 0.51363 0.00481 0.57912 0.0
C1621 C 0.51093 0.99101 0.56829 0.0
C1622 C 0.52247 1.00434 0.59271 0.0
C1623 C 0.52887 0.99011 0.59572 0.0
C1624 C 0.52587 0.9762 0.58512 0.0
H1625 H 0.5906 0.96948 0.67134 0.0
H1626 H 0.573 0.96731 0.64826 0.0
C1627 C 0.51704 0.97665 0.57152 0.0
C1628 C 0.53872 0.98992 0.60996 0.0
H1629 H 0.57728 0.98472 0.62392 0.0
C1630 C 0.53119 0.99352 0.62375 0.0
C1631 C 0.55553 0.98666 0.61001 0.0
C1632 C 0.56446 0.98331 0.59556 0.0
C1633 C 0.54 0.99388 0.63759 0.0
C1634 C 0.55687 0.99085 0.63764 0.0
C1635 C 0.56434 0.98703 0.62385 0.0
C1636 C 0.56714 0.99205 0.65185 0.0
C1637 C 0.53109 0.99733 0.65203 0.0
C1638 C 0.56982 0.00671 0.66146 0.0
C1639 C 0.57979 0.00797 0.67468 0.0
C1640 C 0.5874 0.99461 0.67853 0.0
C1641 C 0.58475 0.97994 0.66883 0.0
C1642 C 0.57478 0.9787 0.65559 0.0
H1643 H 0.51744 0.99489 0.65012 0.0
H1644 H 0.53523 0.98999 0.66062 0.0
H1645 H 0.53387 0.01023 0.65664 0.0
H1646 H 0.56431 0.01725 0.65867 0.0
H1647 H 0.58144 0.01941 0.68193 0.0
H1648 H 0.83767 0.24319 0.76602 0.0
H1649 H 0.86284 0.24171 0.7813 0.0
H1650 H 0.8713 0.19713 0.75422 0.0
H1651 H 0.84599 0.19849 0.7389 0.0
H1652 H 0.87532 0.19542 0.78422 0.0
H1653 H 0.9105 0.25074 0.77054 0.0
H1654 H 0.89059 0.2544 0.77769 0.0
H1655 H 0.89188 0.24174 0.75999 0.0
C1656 C 0.84502 0.2332 0.76316 0.0
C1657 C 0.83991 0.22103 0.75115 0.0
C1658 C 0.85942 0.23237 0.77191 0.0
C1659 C 0.86914 0.21946 0.76875 0.0
C1660 C 0.86404 0.20725 0.75682 0.0
H1661 H 0.96867 0.21994 0.80892 0.0
H1662 H 0.9447 0.21896 0.7914 0.0
C1663 C 0.84957 0.20802 0.7481 0.0
C1664 C 0.88432 0.21848 0.77821 0.0
H1665 H 0.92108 0.23936 0.7915 0.0
C1666 C 0.88539 0.20497 0.78573 0.0
C1667 C 0.89758 0.23083 0.78 0.0
C1668 C 0.8977 0.24516 0.77151 0.0
C1669 C 0.89914 0.20366 0.79529 0.0
C1670 C 0.91202 0.21638 0.79767 0.0
C1671 C 0.91114 0.22969 0.78983 0.0
C1672 C 0.92649 0.2162 0.80825 0.0
C1673 C 0.89982 0.18857 0.8026 0.0
C1674 C 0.92426 0.21503 0.82357 0.0
C1675 C 0.93795 0.21553 0.83361 0.0
C1676 C 0.95416 0.21745 0.82856 0.0
C1677 C 0.95635 0.2186 0.8132 0.0
C1678 C 0.94267 0.21799 0.80316 0.0
H1679 H 0.89188 0.17828 0.79623 0.0
H1680 H 0.91269 0.18517 0.80344 0.0
H1681 H 0.8952 0.19069 0.81416 0.0
H1682 H 0.91193 0.21407 0.82786 0.0
H1683 H 0.93584 0.21487 0.84541 0.0
H1684 H 0.50691 0.94195 0.46548 0.0
H1685 H 0.50809 0.91356 0.45601 0.0
H1686 H 0.52515 0.90488 0.50006 0.0
H1687 H 0.52401 0.93345 0.50968 0.0
H1688 H 0.53665 0.89735 0.45576 0.0
H1689 H 0.48765 0.86857 0.48821 0.0
H1690 H 0.48926 0.88978 0.48649 0.0
H1691 H 0.50327 0.88217 0.49912 0.0
C1692 C 0.5109 0.93402 0.47318 0.0
C1693 C 0.5155 0.93998 0.48831 0.0
C1694 C 0.5115 0.91778 0.46776 0.0
C1695 C 0.51662 0.90709 0.47733 0.0
C1696 C 0.5209 0.91288 0.49254 0.0
H1697 H 0.53147 0.80495 0.45286 0.0
H1698 H 0.5304 0.83179 0.46708 0.0
C1699 C 0.52026 0.92919 0.49801 0.0
C1700 C 0.51828 0.89014 0.471 0.0
H1701 H 0.50248 0.85124 0.47186 0.0
C1702 C 0.52922 0.88727 0.45933 0.0
C1703 C 0.50866 0.877 0.47575 0.0
C1704 C 0.49644 0.87945 0.488 0.0
C1705 C 0.53063 0.87166 0.4521 0.0
C1706 C 0.52064 0.85858 0.4565 0.0
C1707 C 0.51007 0.86133 0.4685 0.0
C1708 C 0.52049 0.84211 0.44823 0.0
C1709 C 0.54277 0.86929 0.43976 0.0
C1710 C 0.51491 0.83895 0.43305 0.0
C1711 C 0.51541 0.82367 0.42493 0.0
C1712 C 0.52149 0.81118 0.43184 0.0
C1713 C 0.52664 0.81426 0.44721 0.0
C1714 C 0.5261 0.82959 0.45535 0.0
H1715 H 0.55241 0.87965 0.44043 0.0
H1716 H 0.54896 0.85814 0.44031 0.0
H1717 H 0.53601 0.86815 0.42863 0.0
H1718 H 0.51023 0.84838 0.42744 0.0
H1719 H 0.51099 0.82164 0.41323 0.0
H1720 H 0.23506 0.259 0.79096 0.0
H1721 H 0.20921 0.25809 0.80433 0.0
H1722 H 0.1815 0.25906 0.76261 0.0
H1723 H 0.20737 0.25983 0.74909 0.0
H1724 H 0.18218 0.27955 0.80561 0.0
H1725 H 0.16321 0.21663 0.77914 0.0
H1726 H 0.18431 0.22563 0.77932 0.0
H1727 H 0.16887 0.23113 0.76667 0.0
C1728 C 0.22347 0.25914 0.78465 0.0
C1729 C 0.22323 0.25935 0.76895 0.0
C1730 C 0.20873 0.25868 0.79231 0.0
C1731 C 0.19346 0.25829 0.78443 0.0
C1732 C 0.19318 0.25919 0.76887 0.0
H1733 H 0.09348 0.23754 0.81479 0.0
H1734 H 0.11739 0.24339 0.79973 0.0
C1735 C 0.20796 0.25976 0.76119 0.0
C1736 C 0.17787 0.25615 0.79245 0.0
H1737 H 0.14527 0.22861 0.79639 0.0
C1738 C 0.17403 0.26846 0.80357 0.0
C1739 C 0.16729 0.24167 0.78972 0.0
C1740 C 0.17109 0.22792 0.77814 0.0
C1741 C 0.15985 0.26669 0.81204 0.0
C1742 C 0.14949 0.25202 0.80961 0.0
C1743 C 0.15321 0.23983 0.79829 0.0
C1744 C 0.13493 0.2489 0.81886 0.0
C1745 C 0.15601 0.28064 0.82337 0.0
C1746 C 0.13684 0.24982 0.83461 0.0
C1747 C 0.12318 0.24652 0.84325 0.0
C1748 C 0.10736 0.24198 0.83628 0.0
C1749 C 0.10552 0.24086 0.82049 0.0
C1750 C 0.11916 0.24428 0.81187 0.0
H1751 H 0.16185 0.29227 0.82056 0.0
H1752 H 0.14244 0.28137 0.82397 0.0
H1753 H 0.16101 0.27901 0.83469 0.0
H1754 H 0.14895 0.25288 0.84023 0.0
H1755 H 0.12507 0.24724 0.85536 0.0
H1756 H 0.58857 0.61482 0.53492 0.0
H1757 H 0.58174 0.62517 0.51147 0.0
H1758 H 0.5358 0.5945 0.50634 0.0
H1759 H 0.54241 0.58434 0.53009 0.0
H1760 H 0.574 0.61102 0.48154 0.0
H1761 H 0.52099 0.64011 0.50755 0.0
H1762 H 0.53639 0.63197 0.51855 0.0
H1763 H 0.52051 0.61874 0.50763 0.0
C1764 C 0.57706 0.61018 0.52875 0.0
C1765 C 0.56592 0.59893 0.53448 0.0
C1766 C 0.57321 0.61604 0.5153 0.0
C1767 C 0.55813 0.61084 0.50729 0.0
C1768 C 0.54739 0.59889 0.51248 0.0
H1769 H 0.53382 0.64532 0.42095 0.0
H1770 H 0.53901 0.62761 0.43989 0.0
C1771 C 0.55126 0.59298 0.52597 0.0
C1772 C 0.55335 0.61879 0.49413 0.0
H1773 H 0.52647 0.64423 0.48267 0.0
C1774 C 0.5635 0.61814 0.48169 0.0
C1775 C 0.53978 0.62826 0.49446 0.0
C1776 C 0.52883 0.62998 0.50778 0.0
C1777 C 0.5606 0.62689 0.46967 0.0
C1778 C 0.54709 0.63643 0.47006 0.0
C1779 C 0.53677 0.63684 0.48237 0.0
C1780 C 0.54408 0.64697 0.45836 0.0
C1781 C 0.57241 0.62639 0.45697 0.0
C1782 C 0.54498 0.66371 0.46247 0.0
C1783 C 0.54204 0.67383 0.4517 0.0
C1784 C 0.53799 0.66746 0.43656 0.0
C1785 C 0.5371 0.65066 0.43246 0.0
C1786 C 0.54006 0.64051 0.44327 0.0
H1787 H 0.58397 0.6211 0.45984 0.0
H1788 H 0.56632 0.61892 0.4468 0.0
H1789 H 0.57573 0.63867 0.45408 0.0
H1790 H 0.54811 0.66897 0.47404 0.0
H1791 H 0.54312 0.68671 0.45524 0.0
H1792 H 0.83761 0.76451 0.78493 0.0
H1793 H 0.85777 0.76068 0.76528 0.0
H1794 H 0.87514 0.8111 0.77414 0.0
H1795 H 0.85567 0.81489 0.79419 0.0
H1796 H 0.86216 0.77419 0.73916 0.0
H1797 H 0.91786 0.79028 0.77755 0.0
H1798 H 0.89741 0.78644 0.7844 0.0
H1799 H 0.90388 0.80568 0.77874 0.0
C1800 C 0.84582 0.77476 0.7828 0.0
C1801 C 0.845 0.79 0.79124 0.0
C1802 C 0.85727 0.77257 0.77148 0.0
C1803 C 0.8682 0.78554 0.76841 0.0
C1804 C 0.8671 0.80083 0.77651 0.0
H1805 H 0.94638 0.79874 0.70572 0.0
H1806 H 0.92465 0.80225 0.72394 0.0
C1807 C 0.85574 0.80302 0.78785 0.0
C1808 C 0.88073 0.78313 0.75673 0.0
H1809 H 0.92231 0.78788 0.75125 0.0
C1810 C 0.87532 0.77709 0.74182 0.0
C1811 C 0.89792 0.78688 0.76019 0.0
C1812 C 0.90466 0.79253 0.77611 0.0
C1813 C 0.88659 0.77506 0.73025 0.0
C1814 C 0.90374 0.77902 0.7337 0.0
C1815 C 0.90915 0.78497 0.7486 0.0
C1816 C 0.91632 0.77689 0.72208 0.0
C1817 C 0.88006 0.769 0.71436 0.0
C1818 C 0.91888 0.76147 0.71501 0.0
C1819 C 0.93128 0.75943 0.7046 0.0
C1820 C 0.9414 0.77278 0.70103 0.0
C1821 C 0.93868 0.78823 0.70804 0.0
C1822 C 0.92634 0.79025 0.71853 0.0
H1823 H 0.86656 0.77004 0.71295 0.0
H1824 H 0.88667 0.77575 0.70613 0.0
H1825 H 0.88215 0.75612 0.71162 0.0
H1826 H 0.91147 0.75097 0.71774 0.0
H1827 H 0.93296 0.74738 0.69934 0.0
H1828 H 0.04858 0.92321 0.5168 0.0
H1829 H 0.04355 0.91187 0.54035 0.0
H1830 H 0.07923 0.87778 0.52884 0.0
H1831 H 0.0846 0.88928 0.50566 0.0
H1832 H 0.03101 0.88107 0.5419 0.0
H1833 H 0.0919 0.89212 0.57274 0.0
H1834 H 0.08686 0.9025 0.55704 0.0
H1835 H 0.09368 0.88261 0.5538 0.0
C1836 C 0.05569 0.91361 0.51954 0.0
C1837 C 0.06695 0.90711 0.50935 0.0
C1838 C 0.05272 0.90707 0.53294 0.0
C1839 C 0.06113 0.89406 0.53648 0.0
C1840 C 0.07284 0.88801 0.52657 0.0
H1841 H 0.05358 0.81687 0.58905 0.0
H1842 H 0.06024 0.83697 0.57225 0.0
C1843 C 0.07577 0.8945 0.51322 0.0
C1844 C 0.05662 0.88569 0.54964 0.0
H1845 H 0.07334 0.8704 0.5796 0.0
C1846 C 0.04019 0.87901 0.55033 0.0
C1847 C 0.06859 0.88297 0.56065 0.0
C1848 C 0.0862 0.89058 0.56112 0.0
C1849 C 0.03562 0.86899 0.5612 0.0
C1850 C 0.04778 0.86569 0.57176 0.0
C1851 C 0.06405 0.87286 0.57144 0.0
C1852 C 0.04408 0.85395 0.58251 0.0
C1853 C 0.01803 0.86135 0.56084 0.0
C1854 C 0.03296 0.85692 0.59403 0.0
C1855 C 0.02908 0.8454 0.60366 0.0
C1856 C 0.03622 0.83067 0.60191 0.0
C1857 C 0.04764 0.82794 0.59056 0.0
C1858 C 0.05156 0.83948 0.58101 0.0
H1859 H 0.01089 0.86294 0.55042 0.0
H1860 H 0.01783 0.84828 0.56161 0.0
H1861 H 0.01166 0.86698 0.57068 0.0
H1862 H 0.02719 0.86809 0.59551 0.0
H1863 H 0.0202 0.84786 0.61225 0.0
H1864 H 0.21418 0.72142 0.73695 0.0
H1865 H 0.18665 0.72483 0.72689 0.0
H1866 H 0.17311 0.74473 0.7712 0.0
H1867 H 0.20104 0.74187 0.78132 0.0
H1868 H 0.15566 0.71298 0.73338 0.0
H1869 H 0.16307 0.77978 0.74578 0.0
H1870 H 0.18024 0.76776 0.74705 0.0
H1871 H 0.1657 0.76929 0.76178 0.0
C1872 C 0.2054 0.72662 0.74458 0.0
C1873 C 0.20992 0.73164 0.7599 0.0
C1874 C 0.1896 0.72845 0.73882 0.0
C1875 C 0.1779 0.73532 0.74821 0.0
C1876 C 0.18207 0.73971 0.76367 0.0
H1877 H 0.07534 0.73547 0.71299 0.0
H1878 H 0.09958 0.7311 0.7284 0.0
C1879 C 0.19796 0.7379 0.76947 0.0
C1880 C 0.16157 0.73813 0.74154 0.0
H1881 H 0.13776 0.76783 0.73399 0.0
C1882 C 0.15166 0.72496 0.73362 0.0
C1883 C 0.15649 0.7538 0.74168 0.0
C1884 C 0.16695 0.76851 0.74941 0.0
C1885 C 0.13699 0.72702 0.72563 0.0
C1886 C 0.13189 0.74268 0.72581 0.0
C1887 C 0.14164 0.75583 0.73394 0.0
C1888 C 0.11698 0.74578 0.71694 0.0
C1889 C 0.12748 0.71248 0.71655 0.0
C1890 C 0.11858 0.7559 0.70569 0.0
C1891 C 0.10474 0.75852 0.69695 0.0
C1892 C 0.08898 0.75105 0.69927 0.0
C1893 C 0.08735 0.74116 0.71074 0.0
C1894 C 0.1012 0.73864 0.71955 0.0
H1895 H 0.13512 0.70216 0.71462 0.0
H1896 H 0.11653 0.70867 0.72278 0.0
H1897 H 0.12303 0.71533 0.70544 0.0
H1898 H 0.13063 0.76156 0.70349 0.0
H1899 H 0.10644 0.76609 0.68813 0.0
H1900 H 0.96887 0.59878 0.4811 0.0
H1901 H 0.97746 0.62112 0.50091 0.0
H1902 H 0.98788 0.58749 0.53152 0.0
H1903 H 0.97946 0.56502 0.5117 0.0
H1904 H 0.9677 0.61054 0.54334 0.0
H1905 H 0.0232 0.63938 0.51945 0.0
H1906 H 0.00522 0.63613 0.50679 0.0
H1907 H 0.01446 0.61915 0.51252 0.0
C1908 C 0.97339 0.5961 0.49191 0.0
C1909 C 0.97349 0.58007 0.49478 0.0
C1910 C 0.97828 0.60892 0.50325 0.0
C1911 C 0.98346 0.60599 0.51766 0.0
C1912 C 0.98394 0.59003 0.52048 0.0
H1913 H 0.02437 0.67902 0.59126 0.0
H1914 H 0.01996 0.65557 0.57173 0.0
C1915 C 0.97908 0.5772 0.50914 0.0
C1916 C 0.98723 0.61954 0.53008 0.0
H1917 H 0.01201 0.65456 0.54051 0.0
C1918 C 0.97746 0.6201 0.54277 0.0
C1919 C 1.00007 0.63194 0.52939 0.0
C1920 C 0.01146 0.6316 0.51638 0.0
C1921 C 0.9799 0.63293 0.55461 0.0
C1922 C 0.99231 0.64564 0.55365 0.0
C1923 C 1.00238 0.64488 0.54115 0.0
C1924 C 0.99494 0.65987 0.56548 0.0
C1925 C 0.96924 0.6327 0.5681 0.0
C1926 C 0.9824 0.67017 0.56834 0.0
C1927 C 0.98485 0.68354 0.57952 0.0
C1928 C 0.99993 0.68692 0.58806 0.0
C1929 C 0.01252 0.67664 0.58506 0.0
C1930 C 0.01007 0.6633 0.57383 0.0
H1931 H 0.96339 0.62041 0.56891 0.0
H1932 H 0.97662 0.63722 0.57872 0.0
H1933 H 0.95921 0.64067 0.56705 0.0
H1934 H 0.97071 0.66789 0.56187 0.0
H1935 H 0.97485 0.69112 0.58159 0.0
H1936 H 0.79381 0.8083 0.24931 0.0
H1937 H 0.80869 0.83492 0.25629 0.0
H1938 H 0.78876 0.85035 0.21595 0.0
H1939 H 0.7733 0.82389 0.20914 0.0
H1940 H 0.8326 0.84933 0.24014 0.0
H1941 H 0.78021 0.88721 0.2482 0.0
H1942 H 0.77753 0.86558 0.24726 0.0
H1943 H 0.77947 0.87471 0.23027 0.0
C1944 C 0.79224 0.81745 0.24208 0.0
C1945 C 0.78223 0.81396 0.2287 0.0
C1946 C 0.80089 0.83263 0.24603 0.0
C1947 C 0.79969 0.8447 0.23675 0.0
C1948 C 0.78963 0.84133 0.22344 0.0
H1949 H 0.85061 0.94049 0.23826 0.0
H1950 H 0.83308 0.91509 0.23192 0.0
C1951 C 0.78094 0.82614 0.21948 0.0
C1952 C 0.80972 0.86046 0.24062 0.0
H1953 H 0.80713 0.90099 0.24838 0.0
C1954 C 0.82702 0.86062 0.24201 0.0
C1955 C 0.80242 0.87518 0.243 0.0
C1956 C 0.78388 0.87573 0.24225 0.0
C1957 C 0.83725 0.87509 0.24555 0.0
C1958 C 0.82996 0.8898 0.24798 0.0
C1959 C 0.81267 0.88968 0.24651 0.0
C1960 C 0.84014 0.90541 0.25213 0.0
C1961 C 0.8558 0.87455 0.24638 0.0
C1962 C 0.84967 0.90851 0.26574 0.0
C1963 C 0.85962 0.92304 0.26945 0.0
C1964 C 0.86021 0.93481 0.25964 0.0
C1965 C 0.85035 0.93178 0.24615 0.0
C1966 C 0.84038 0.91724 0.24246 0.0
H1967 H 0.8595 0.86296 0.24068 0.0
H1968 H 0.86214 0.88455 0.24116 0.0
H1969 H 0.8602 0.87589 0.25839 0.0
H1970 H 0.8494 0.89967 0.27351 0.0
H1971 H 0.86677 0.92509 0.28007 0.0
H1972 H 0.79258 0.19308 0.29467 0.0
H1973 H 0.81027 0.17091 0.29322 0.0
H1974 H 0.78201 0.14991 0.32688 0.0
H1975 H 0.76417 0.17211 0.32839 0.0
H1976 H 0.82852 0.15996 0.32081 0.0
H1977 H 0.78305 0.11435 0.2872 0.0
H1978 H 0.78236 0.13568 0.28682 0.0
H1979 H 0.776 0.12694 0.30315 0.0
C1980 C 0.79006 0.1837 0.3017 0.0
C1981 C 0.7769 0.18428 0.31157 0.0
C1982 C 0.80023 0.1711 0.30092 0.0
C1983 C 0.79736 0.15876 0.30987 0.0
C1984 C 0.78435 0.15932 0.31983 0.0
H1985 H 0.84261 0.06819 0.30719 0.0
H1986 H 0.82469 0.09 0.31229 0.0
C1987 C 0.77424 0.17201 0.32073 0.0
C1988 C 0.80802 0.1453 0.30867 0.0
H1989 H 0.80904 0.10609 0.29334 0.0
C1990 C 0.82428 0.14814 0.31487 0.0
C1991 C 0.80237 0.12992 0.30101 0.0
C1992 C 0.78502 0.12641 0.29407 0.0
C1993 C 0.83511 0.13596 0.31358 0.0
C1994 C 0.82966 0.12067 0.30547 0.0
C1995 C 0.81326 0.1178 0.2995 0.0
C1996 C 0.84083 0.10758 0.30276 0.0
C1997 C 0.85218 0.13955 0.32116 0.0
C1998 C 0.8558 0.11011 0.29558 0.0
C1999 C 0.86611 0.0977 0.29275 0.0
C2000 C 0.86153 0.0824 0.29681 0.0
C2001 C 0.84644 0.07982 0.30384 0.0
C2002 C 0.83621 0.09229 0.3068 0.0
H2003 H 0.85249 0.1495 0.33068 0.0
H2004 H 0.85641 0.12878 0.3255 0.0
H2005 H 0.86107 0.14337 0.31286 0.0
H2006 H 0.85942 0.12163 0.29192 0.0
H2007 H 0.8775 0.09999 0.28707 0.0
H2008 H 0.4495 0.02783 0.9975 0.0
H2009 H 0.42915 0.00691 1.00423 0.0
H2010 H 0.39723 0.01322 0.96643 0.0
H2011 H 0.41751 0.03401 0.95961 0.0
H2012 H 0.39716 0.00869 0.01204 0.0
H2013 H 0.39928 0.96494 0.96034 0.0
H2014 H 0.41459 0.98196 0.96507 0.0
H2015 H 0.39487 0.98448 0.95635 0.0
C2016 C 0.43815 0.02473 0.99062 0.0
C2017 C 0.4352 0.03247 0.97793 0.0
C2018 C 0.42655 0.01275 0.99446 0.0
C2019 C 0.4118 0.00827 0.98567 0.0
C2020 C 0.40872 0.01614 0.97313 0.0
H2021 H 0.32032 0.95994 0.01134 0.0
H2022 H 0.34298 0.97928 0.006 0.0
C2023 C 0.42033 0.02804 0.96925 0.0
C2024 C 0.39935 0.99574 0.98988 0.0
H2025 H 0.37673 0.9603 0.97621 0.0
C2026 C 0.39278 0.99804 1.00425 0.0
C2027 C 0.39381 0.98173 0.97981 0.0
C2028 C 0.40112 0.97802 0.96459 0.0
C2029 C 0.3805 0.98695 0.00865 0.0
C2030 C 0.37437 0.97335 0.9983 0.0
C2031 C 0.38128 0.97082 0.98409 0.0
C2032 C 0.36071 0.96165 1.00189 0.0
C2033 C 0.37436 0.98982 0.02443 0.0
C2034 C 0.36298 0.94522 1.001 0.0
C2035 C 0.34999 0.93411 1.00394 0.0
C2036 C 0.33446 0.9392 0.00782 0.0
C2037 C 0.33222 0.95566 0.00867 0.0
C2038 C 0.34518 0.96675 0.00564 0.0
H2039 H 0.38355 0.99772 0.03219 0.0
H2040 H 0.3628 0.9959 0.02418 0.0
H2041 H 0.37162 0.97832 0.02906 0.0
H2042 H 0.37483 0.94099 0.99806 0.0
H2043 H 0.35215 0.92153 1.00329 0.0
H2044 H 0.26362 0.33206 0.29869 0.0
H2045 H 0.24473 0.34663 0.28471 0.0
H2046 H 0.27633 0.39066 0.29759 0.0
H2047 H 0.29523 0.3762 0.31134 0.0
H2048 H 0.22816 0.37216 0.29831 0.0
H2049 H 0.26631 0.39193 0.25279 0.0
H2050 H 0.27145 0.37588 0.26311 0.0
H2051 H 0.2767 0.39656 0.27106 0.0
C2052 C 0.26673 0.34476 0.29817 0.0
C2053 C 0.28088 0.35301 0.30612 0.0
C2054 C 0.2559 0.35308 0.29027 0.0
C2055 C 0.25919 0.36972 0.28998 0.0
C2056 C 0.27366 0.3778 0.29741 0.0
H2057 H 0.21279 0.45225 0.27087 0.0
H2058 H 0.23092 0.43214 0.27692 0.0
C2059 C 0.2844 0.36954 0.30536 0.0
C2060 C 0.24685 0.37904 0.28325 0.0
H2061 H 0.24269 0.40645 0.25878 0.0
C2062 C 0.2312 0.37945 0.28947 0.0
C2063 C 0.25088 0.3886 0.27178 0.0
C2064 C 0.26719 0.38813 0.26419 0.0
C2065 C 0.21979 0.38975 0.28509 0.0
C2066 C 0.22403 0.3997 0.27395 0.0
C2067 C 0.23947 0.39888 0.26736 0.0
C2068 C 0.21303 0.4117 0.26961 0.0
C2069 C 0.20364 0.39047 0.29295 0.0
C2070 C 0.19701 0.40691 0.26326 0.0
C2071 C 0.18658 0.41841 0.25977 0.0
C2072 C 0.19204 0.43494 0.26243 0.0
C2073 C 0.20823 0.43964 0.2685 0.0
C2074 C 0.21861 0.42815 0.27202 0.0
H2075 H 0.2039 0.38484 0.30349 0.0
H2076 H 0.20071 0.40312 0.29578 0.0
H2077 H 0.19348 0.3839 0.28534 0.0
H2078 H 0.19256 0.39427 0.261 0.0
H2079 H 0.17429 0.41435 0.25488 0.0
H2080 H 0.08968 0.00826 0.48549 0.0
H2081 H 0.11498 0.02682 0.48987 0.0
H2082 H 0.14462 0.9869 0.48128 0.0
H2083 H 0.11939 0.96826 0.47673 0.0
H2084 H 0.1447 0.02703 0.51048 0.0
H2085 H 0.15735 0.01799 0.44934 0.0
H2086 H 0.13722 0.01267 0.4563 0.0
H2087 H 0.15369 1.00014 0.45826 0.0
C2088 C 0.1016 1.00342 0.4847 0.0
C2089 C 0.10254 0.98681 0.48069 0.0
C2090 C 0.11602 0.01403 0.48725 0.0
C2091 C 0.13163 0.00824 0.4857 0.0
C2092 C 0.13266 0.9916 0.48239 0.0
H2093 H 0.22996 0.0581 0.48113 0.0
H2094 H 0.20618 0.03793 0.48073 0.0
C2095 C 0.11824 0.98096 0.47993 0.0
C2096 C 0.14675 0.01971 0.48672 0.0
H2097 H 0.17674 0.03526 0.46538 0.0
C2098 C 0.15175 0.02883 0.50065 0.0
C2099 C 0.15591 0.02199 0.47387 0.0
C2100 C 0.15078 0.0128 0.45854 0.0
C2101 C 0.1658 0.0401 0.50211 0.0
C2102 C 0.17481 0.04261 0.48918 0.0
C2103 C 0.16985 0.03335 0.47528 0.0
C2104 C 0.1893 0.05489 0.48973 0.0
C2105 C 0.17102 0.04898 0.51754 0.0
C2106 C 0.1877 0.07119 0.49471 0.0
C2107 C 0.20128 0.08273 0.49497 0.0
C2108 C 0.21671 0.07826 0.49006 0.0
C2109 C 0.21822 0.06197 0.48486 0.0
C2110 C 0.20465 0.05041 0.4847 0.0
H2111 H 0.16613 0.04234 0.52663 0.0
H2112 H 0.18472 0.05096 0.51907 0.0
H2113 H 0.166 0.06089 0.51884 0.0
H2114 H 0.17587 0.07503 0.49822 0.0
H2115 H 0.19964 0.09522 0.49881 0.0
H2116 H 0.76455 0.20804 0.73705 0.0
H2117 H 0.74492 0.18425 0.73755 0.0
H2118 H 0.78256 0.15358 0.72245 0.0
H2119 H 0.80226 0.17731 0.72194 0.0
H2120 H 0.73286 0.1581 0.71601 0.0
H2121 H 0.76953 0.13846 0.76249 0.0
H2122 H 0.77324 0.15822 0.75683 0.0
H2123 H 0.78102 0.14114 0.74604 0.0
C2124 C 0.76855 0.19625 0.73354 0.0
C2125 C 0.78501 0.19455 0.72957 0.0
C2126 C 0.75734 0.18266 0.73391 0.0
C2127 C 0.76238 0.16715 0.73034 0.0
C2128 C 0.77852 0.16544 0.72559 0.0
H2129 H 0.70018 0.07593 0.71782 0.0
H2130 H 0.71772 0.10021 0.71418 0.0
C2131 C 0.78975 0.179 0.72527 0.0
C2132 C 0.751 0.15278 0.73225 0.0
H2133 H 0.74676 0.12054 0.75177 0.0
C2134 C 0.73587 0.14987 0.72383 0.0
C2135 C 0.75483 0.14223 0.74265 0.0
C2136 C 0.77046 0.1452 0.75264 0.0
C2137 C 0.72459 0.13654 0.72535 0.0
C2138 C 0.72868 0.12571 0.73541 0.0
C2139 C 0.7437 0.12877 0.74398 0.0
C2140 C 0.71751 0.11123 0.73742 0.0
C2141 C 0.70827 0.13434 0.71641 0.0
C2142 C 0.71178 0.10919 0.75175 0.0
C2143 C 0.70182 0.09529 0.75388 0.0
C2144 C 0.6974 0.08309 0.74172 0.0
C2145 C 0.70312 0.0852 0.72737 0.0
C2146 C 0.71313 0.09909 0.72526 0.0
H2147 H 0.70518 0.14573 0.71247 0.0
H2148 H 0.70906 0.12528 0.70632 0.0
H2149 H 0.69804 0.12996 0.72321 0.0
H2150 H 0.71504 0.11838 0.76131 0.0
H2151 H 0.69748 0.09416 0.76504 0.0
H2152 H 0.47731 0.03207 0.55416 0.0
H2153 H 0.4548 0.04907 0.55106 0.0
H2154 H 0.43076 0.01252 0.51704 0.0
H2155 H 0.45299 0.99535 0.5203 0.0
H2156 H 0.44547 0.06066 0.52424 0.0
H2157 H 0.39317 0.02379 0.5451 0.0
H2158 H 0.41457 0.02082 0.54899 0.0
H2159 H 0.40461 0.01288 0.53098 0.0
C2160 C 0.46707 0.02753 0.54624 0.0
C2161 C 0.46693 0.01235 0.5375 0.0
C2162 C 0.45428 0.0373 0.5444 0.0
C2163 C 0.44102 0.032 0.53393 0.0
C2164 C 0.44073 0.01676 0.52536 0.0
H2165 H 0.37356 0.08753 0.49048 0.0
H2166 H 0.39527 0.07087 0.49687 0.0
C2167 C 0.45352 0.00702 0.52714 0.0
C2168 C 0.42795 0.0427 0.53136 0.0
H2169 H 0.38616 0.04521 0.53188 0.0
C2170 C 0.43252 0.05734 0.52601 0.0
C2171 C 0.41107 0.03842 0.53379 0.0
C2172 C 0.40553 0.02319 0.54016 0.0
C2173 C 0.42061 0.06762 0.52266 0.0
C2174 C 0.40367 0.06305 0.52456 0.0
C2175 C 0.39914 0.04861 0.53029 0.0
C2176 C 0.39046 0.07309 0.52066 0.0
C2177 C 0.42628 0.08336 0.51723 0.0
C2178 C 0.38031 0.07956 0.53184 0.0
C2179 C 0.36782 0.08899 0.52821 0.0
C2180 C 0.36515 0.09204 0.51328 0.0
C2181 C 0.37523 0.08536 0.50206 0.0
C2182 C 0.38775 0.07596 0.50572 0.0
H2183 H 0.43967 0.08692 0.52001 0.0
H2184 H 0.4243 0.08207 0.50479 0.0
H2185 H 0.41907 0.09316 0.52228 0.0
H2186 H 0.3821 0.07737 0.54341 0.0
H2187 H 0.3601 0.09373 0.53707 0.0
H2188 H 0.58355 0.52353 0.54181 0.0
H2189 H 0.60309 0.50405 0.53316 0.0
H2190 H 0.60899 0.49252 0.5784 0.0
H2191 H 0.58984 0.51207 0.58719 0.0
H2192 H 0.6366 0.50386 0.54368 0.0
H2193 H 0.59865 0.44811 0.55285 0.0
H2194 H 0.5899 0.46697 0.55201 0.0
H2195 H 0.60062 0.46343 0.56897 0.0
C2196 C 0.589 0.51685 0.54992 0.0
C2197 C 0.58495 0.51929 0.56518 0.0
C2198 C 0.60011 0.50567 0.54494 0.0
C2199 C 0.60727 0.49663 0.55509 0.0
C2200 C 0.6033 0.49907 0.5703 0.0
H2201 H 0.68037 0.42906 0.55742 0.0
H2202 H 0.65865 0.44717 0.56209 0.0
C2203 C 0.59228 0.51024 0.57529 0.0
C2204 C 0.61947 0.48514 0.55003 0.0
H2205 H 0.62728 0.44581 0.54875 0.0
C2206 C 0.63451 0.49113 0.5446 0.0
C2207 C 0.61672 0.46855 0.55129 0.0
C2208 C 0.60054 0.46132 0.55646 0.0
C2209 C 0.64715 0.48109 0.54096 0.0
C2210 C 0.64452 0.46453 0.5425 0.0
C2211 C 0.62932 0.45849 0.54761 0.0
C2212 C 0.65759 0.45339 0.53941 0.0
C2213 C 0.66343 0.48843 0.53609 0.0
C2214 C 0.66407 0.45065 0.52504 0.0
C2215 C 0.67664 0.4404 0.52236 0.0
C2216 C 0.68291 0.43258 0.53399 0.0
C2217 C 0.67609 0.43509 0.54828 0.0
C2218 C 0.66356 0.44536 0.55094 0.0
H2219 H 0.66488 0.50173 0.53905 0.0
H2220 H 0.67403 0.48341 0.54137 0.0
H2221 H 0.664 0.48562 0.52366 0.0
H2222 H 0.65944 0.45646 0.51588 0.0
H2223 H 0.68164 0.43885 0.51125 0.0
H2224 H 0.72439 0.23211 0.3367 0.0
H2225 H 0.72146 0.25042 0.36 0.0
H2226 H 0.77256 0.24729 0.37299 0.0
H2227 H 0.77567 0.22922 0.34972 0.0
H2228 H 0.72874 0.2458 0.39195 0.0
H2229 H 0.7673 0.29654 0.37261 0.0
H2230 H 0.75796 0.2795 0.35976 0.0
H2231 H 0.77624 0.27764 0.37101 0.0
C2232 C 0.73498 0.2353 0.34455 0.0
C2233 C 0.75026 0.22921 0.34135 0.0
C2234 C 0.73326 0.24568 0.35786 0.0
C2235 C 0.74684 0.25031 0.36811 0.0
C2236 C 0.76197 0.24395 0.36515 0.0
H2237 H 0.75519 0.3002 0.45945 0.0
H2238 H 0.75434 0.28048 0.43672 0.0
C2239 C 0.76368 0.23351 0.35191 0.0
C2240 C 0.74539 0.26213 0.38172 0.0
H2241 H 0.75948 0.30014 0.398 0.0
C2242 C 0.7354 0.2577 0.39328 0.0
C2243 C 0.75395 0.2777 0.38332 0.0
C2244 C 0.76438 0.28326 0.37099 0.0
C2245 C 0.73406 0.26834 0.4066 0.0
C2246 C 0.74302 0.28374 0.40838 0.0
C2247 C 0.7527 0.28829 0.39665 0.0
C2248 C 0.74266 0.29534 0.42236 0.0
C2249 C 0.72298 0.26309 0.41861 0.0
C2250 C 0.73652 0.3103 0.4218 0.0
C2251 C 0.73689 0.32159 0.4348 0.0
C2252 C 0.74358 0.3182 0.44861 0.0
C2253 C 0.74966 0.30313 0.44911 0.0
C2254 C 0.74922 0.29183 0.43611 0.0
H2255 H 0.71404 0.25263 0.41412 0.0
H2256 H 0.73072 0.2595 0.42782 0.0
H2257 H 0.71597 0.27311 0.42353 0.0
H2258 H 0.73144 0.31326 0.41129 0.0
H2259 H 0.7319 0.33296 0.43402 0.0
H2260 H 0.50078 0.03586 0.91828 0.0
H2261 H 0.52422 0.02963 0.90258 0.0
H2262 H 0.51734 0.07059 0.87959 0.0
H2263 H 0.49436 0.07712 0.89547 0.0
H2264 H 0.52217 0.02181 0.8719 0.0
H2265 H 0.56702 0.07547 0.88719 0.0
H2266 H 0.54971 0.07088 0.89859 0.0
H2267 H 0.54684 0.08075 0.88217 0.0
C2268 C 0.50457 0.04378 0.91016 0.0
C2269 C 0.49568 0.05696 0.9081 0.0
C2270 C 0.51789 0.04014 0.90113 0.0
C2271 C 0.52267 0.04973 0.89 0.0
C2272 C 0.51414 0.06319 0.88828 0.0
H2273 H 0.57942 0.04576 0.81065 0.0
H2274 H 0.56164 0.05194 0.83181 0.0
C2275 C 0.50086 0.06681 0.89727 0.0
C2276 C 0.53553 0.04496 0.87925 0.0
H2277 H 0.57077 0.05928 0.86353 0.0
C2278 C 0.53295 0.02989 0.87024 0.0
C2279 C 0.54958 0.05552 0.87705 0.0
C2280 C 0.55356 0.07149 0.88687 0.0
C2281 C 0.54361 0.0254 0.85868 0.0
C2282 C 0.55733 0.03618 0.85616 0.0
C2283 C 0.56018 0.05106 0.86543 0.0
C2284 C 0.56846 0.0325 0.84358 0.0
C2285 C 0.53972 0.00942 0.84882 0.0
C2286 C 0.57835 0.01963 0.84326 0.0
C2287 C 0.58849 0.01603 0.83114 0.0
C2288 C 0.58894 0.02523 0.8191 0.0
C2289 C 0.57918 0.03827 0.8196 0.0
C2290 C 0.56911 0.04189 0.83174 0.0
H2291 H 0.52698 1.00397 0.85029 0.0
H2292 H 0.54104 0.01082 0.83674 0.0
H2293 H 0.54859 1.00095 0.85181 0.0
H2294 H 0.5782 0.01235 0.85237 0.0
H2295 H 0.59576 0.00585 0.83108 0.0
H2296 H 0.34206 0.26536 0.33783 0.0
H2297 H 0.33893 0.24712 0.35701 0.0
H2298 H 0.28612 0.24971 0.35515 0.0
H2299 H 0.28911 0.26795 0.33598 0.0
H2300 H 0.31811 0.25696 0.3868 0.0
H2301 H 0.29838 0.19894 0.35047 0.0
H2302 H 0.31177 0.21461 0.34377 0.0
H2303 H 0.29029 0.21715 0.34616 0.0
C2304 C 0.32975 0.26183 0.34132 0.0
C2305 C 0.31582 0.26809 0.33538 0.0
C2306 C 0.328 0.25149 0.35232 0.0
C2307 C 0.3123 0.24707 0.35744 0.0
C2308 C 0.29833 0.25296 0.3513 0.0
H2309 H 0.27684 0.18299 0.42066 0.0
H2310 H 0.27976 0.19975 0.40042 0.0
C2311 C 0.30007 0.26341 0.3404 0.0
C2312 C 0.31055 0.23694 0.36974 0.0
H2313 H 0.29948 0.19862 0.37676 0.0
C2314 C 0.31409 0.24419 0.38465 0.0
C2315 C 0.30511 0.22037 0.36685 0.0
C2316 C 0.30117 0.21217 0.35096 0.0
C2317 C 0.31221 0.23531 0.39683 0.0
C2318 C 0.30709 0.21859 0.39396 0.0
C2319 C 0.30347 0.21139 0.37899 0.0
C2320 C 0.30538 0.2084 0.40633 0.0
C2321 C 0.31528 0.24405 0.41265 0.0
C2322 C 0.31884 0.20748 0.41633 0.0
C2323 C 0.31714 0.19812 0.4281 0.0
C2324 C 0.30197 0.18921 0.43002 0.0
C2325 C 0.2886 0.1899 0.41976 0.0
C2326 C 0.2903 0.19937 0.40806 0.0
H2327 H 0.31407 0.25714 0.41307 0.0
H2328 H 0.30652 0.23911 0.42053 0.0
H2329 H 0.32808 0.24266 0.41666 0.0
H2330 H 0.33073 0.214 0.41505 0.0
H2331 H 0.32769 0.19807 0.4358 0.0
H2332 H 0.54587 0.45078 0.93519 0.0
H2333 H 0.52861 0.45773 0.91479 0.0
H2334 H 0.53712 0.50796 0.93302 0.0
H2335 H 0.55307 0.501 0.95435 0.0
H2336 H 0.50699 0.50223 0.92314 0.0
H2337 H 0.54494 0.47464 0.87844 0.0
H2338 H 0.53677 0.45996 0.8897 0.0
H2339 H 0.55119 0.47653 0.89814 0.0
C2340 C 0.54383 0.46329 0.93514 0.0
C2341 C 0.55107 0.47531 0.94652 0.0
C2342 C 0.5342 0.46729 0.9232 0.0
C2343 C 0.53198 0.48343 0.92201 0.0
C2344 C 0.5388 0.49542 0.93352 0.0
H2345 H 0.49785 0.51196 0.83681 0.0
H2346 H 0.51428 0.50716 0.85898 0.0
C2347 C 0.54812 0.49141 0.94567 0.0
C2348 C 0.52244 0.48782 0.90888 0.0
H2349 H 0.5186 0.4818 0.87039 0.0
C2350 C 0.50964 0.49786 0.9116 0.0
C2351 C 0.52606 0.48246 0.89376 0.0
C2352 C 0.54061 0.47296 0.88983 0.0
C2353 C 0.50022 0.50246 0.89971 0.0
C2354 C 0.50315 0.49625 0.88462 0.0
C2355 C 0.51613 0.48642 0.88191 0.0
C2356 C 0.49307 0.49984 0.87145 0.0
C2357 C 0.48756 0.51428 0.90353 0.0
C2358 C 0.47567 0.4973 0.87096 0.0
C2359 C 0.46631 0.50046 0.85847 0.0
C2360 C 0.47419 0.50571 0.84603 0.0
C2361 C 0.49155 0.50794 0.84632 0.0
C2362 C 0.5009 0.50516 0.85896 0.0
H2363 H 0.49087 0.52195 0.91448 0.0
H2364 H 0.48637 0.52223 0.89468 0.0
H2365 H 0.47534 0.50756 0.9046 0.0
H2366 H 0.46928 0.49263 0.88013 0.0
H2367 H 0.45292 0.49844 0.85836 0.0
H2368 H 0.76228 0.78632 0.17829 0.0
H2369 H 0.76433 0.77298 0.15243 0.0
H2370 H 0.77805 0.73037 0.16968 0.0
H2371 H 0.77631 0.74361 0.19546 0.0
H2372 H 0.79224 0.7592 0.13873 0.0
H2373 H 0.73853 0.71366 0.13973 0.0
H2374 H 0.74185 0.73162 0.15335 0.0
H2375 H 0.75332 0.71466 0.15528 0.0
C2376 C 0.76581 0.77413 0.17658 0.0
C2377 C 0.76895 0.76598 0.18898 0.0
C2378 C 0.76691 0.76652 0.1618 0.0
C2379 C 0.77106 0.7506 0.15915 0.0
C2380 C 0.77445 0.74253 0.17147 0.0
H2381 H 0.7875 0.67911 0.08482 0.0
H2382 H 0.78411 0.69521 0.1091 0.0
C2383 C 0.7734 0.75012 0.18622 0.0
C2384 C 0.77215 0.7424 0.14354 0.0
H2385 H 0.75632 0.70943 0.11925 0.0
C2386 C 0.78429 0.74842 0.13438 0.0
C2387 C 0.76175 0.72834 0.13792 0.0
C2388 C 0.74802 0.72174 0.14701 0.0
C2389 C 0.78674 0.74037 0.11994 0.0
C2390 C 0.77655 0.72611 0.11445 0.0
C2391 C 0.76417 0.72032 0.1235 0.0
C2392 C 0.77887 0.71662 0.09958 0.0
C2393 C 0.80061 0.74686 0.11093 0.0
C2394 C 0.77696 0.72327 0.08612 0.0
C2395 C 0.77886 0.71406 0.07217 0.0
C2396 C 0.78255 0.69797 0.07143 0.0
C2397 C 0.78443 0.69138 0.08496 0.0
C2398 C 0.78258 0.70059 0.09886 0.0
H2399 H 0.80965 0.75557 0.1181 0.0
H2400 H 0.8073 0.73695 0.10532 0.0
H2401 H 0.79533 0.7532 0.10205 0.0
H2402 H 0.77376 0.73551 0.08638 0.0
H2403 H 0.77711 0.71943 0.06196 0.0
H2404 H 0.02272 0.04549 0.09636 0.0
H2405 H 0.00663 0.04165 0.11852 0.0
H2406 H 0.0482 0.02283 0.13899 0.0
H2407 H 0.06449 0.02696 0.11704 0.0
H2408 H 0.99815 0.01348 0.13224 0.0
H2409 H 0.03721 0.06037 0.17063 0.0
H2410 H 0.03797 0.05866 0.15035 0.0
H2411 H 0.0483 0.04514 0.16051 0.0
C2412 C 0.02844 0.04054 0.10558 0.0
C2413 C 0.04493 0.03662 0.10495 0.0
C2414 C 0.01921 0.03828 0.1182 0.0
C2415 C 0.0263 0.03218 0.1305 0.0
C2416 C 0.04256 0.02778 0.12972 0.0
H2417 H 0.97505 0.99904 0.20658 0.0
H2418 H 0.99125 1.00111 0.18419 0.0
C2419 C 0.05179 0.02998 0.11709 0.0
C2420 C 0.01678 0.03073 0.14424 0.0
H2421 H 0.01633 0.04495 0.18178 0.0
C2422 C 1.00212 0.02033 0.14308 0.0
C2423 C 0.02187 0.03986 0.15832 0.0
C2424 C 0.03711 0.05175 0.16008 0.0
C2425 C 0.99252 0.01867 0.15569 0.0
C2426 C 0.99781 0.02753 0.16985 0.0
C2427 C 0.01237 0.03807 0.17095 0.0
C2428 C 0.98824 0.02629 0.18359 0.0
C2429 C 0.97661 0.00769 0.15369 0.0
C2430 C 0.98153 0.03986 0.19093 0.0
C2431 C 0.97238 0.03875 0.2038 0.0
C2432 C 0.96985 0.02407 0.20968 0.0
C2433 C 0.97684 0.01056 0.20243 0.0
C2434 C 0.98596 0.01167 0.18953 0.0
H2435 H 0.97234 0.00479 0.14164 0.0
H2436 H 0.97866 0.99624 0.15801 0.0
H2437 H 0.96664 0.01323 0.16014 0.0
H2438 H 0.98326 0.05129 0.18661 0.0
H2439 H 0.96739 0.04945 0.20922 0.0
H2440 H 0.28957 0.79993 0.20442 0.0
H2441 H 0.28865 0.81132 0.18081 0.0
H2442 H 0.2897 0.76399 0.15585 0.0
H2443 H 0.2896 0.75232 0.1795 0.0
H2444 H 0.30829 0.81264 0.15795 0.0
H2445 H 0.24872 0.77787 0.13711 0.0
H2446 H 0.25705 0.77821 0.15607 0.0
H2447 H 0.26493 0.76554 0.14067 0.0
C2448 C 0.28948 0.79188 0.19392 0.0
C2449 C 0.2893 0.77514 0.1939 0.0
C2450 C 0.28911 0.79845 0.1804 0.0
C2451 C 0.28868 0.7885 0.16649 0.0
C2452 C 0.28954 0.77188 0.16641 0.0
H2453 H 0.299 0.8323 0.08293 0.0
H2454 H 0.30389 0.81748 0.10404 0.0
C2455 C 0.28974 0.76525 0.17998 0.0
C2456 C 0.28684 0.79563 0.15223 0.0
H2457 H 0.26152 0.79454 0.12077 0.0
C2458 C 0.29809 0.80864 0.14979 0.0
C2459 C 0.27338 0.7906 0.14168 0.0
C2460 C 0.26023 0.7774 0.14404 0.0
C2461 C 0.29617 0.81686 0.13725 0.0
C2462 C 0.28289 0.81163 0.12655 0.0
C2463 C 0.27176 0.79849 0.12889 0.0
C2464 C 0.27979 0.82007 0.11326 0.0
C2465 C 0.308 0.83148 0.13598 0.0
C2466 C 0.26436 0.82591 0.11097 0.0
C2467 C 0.26134 0.83402 0.09865 0.0
C2468 C 0.27371 0.83659 0.08831 0.0
C2469 C 0.28909 0.83049 0.09053 0.0
C2470 C 0.29203 0.82221 0.10277 0.0
H2471 H 0.3143 0.8365 0.14702 0.0
H2472 H 0.3177 0.82802 0.12804 0.0
H2473 H 0.30148 0.84108 0.13163 0.0
H2474 H 0.25465 0.8243 0.11882 0.0
H2475 H 0.24922 0.83816 0.09719 0.0
H2476 H 0.98791 0.48807 0.07644 0.0
H2477 H 1.0021 0.48718 0.10088 0.0
H2478 H 0.04923 0.48964 0.07996 0.0
H2479 H 0.03524 0.49064 0.0556 0.0
H2480 H 0.04618 0.46656 0.09964 0.0
H2481 H 0.02867 0.52567 0.12645 0.0
H2482 H 0.01164 0.51152 0.11874 0.0
H2483 H 0.02637 0.51937 0.10637 0.0
C2484 C 1.0013 0.48849 0.07707 0.0
C2485 C 0.01042 0.48942 0.06404 0.0
C2486 C 0.00939 0.48799 0.09104 0.0
C2487 C 0.02674 0.48854 0.09228 0.0
C2488 C 0.03583 0.48918 0.07927 0.0
H2489 H 0.09503 0.51428 0.16906 0.0
H2490 H 0.07799 0.51234 0.14578 0.0
C2491 C 0.02779 0.48967 0.06532 0.0
C2492 C 0.03557 0.48861 0.1071 0.0
H2493 H 0.04369 0.51076 0.1418 0.0
C2494 C 0.04558 0.47618 0.10889 0.0
C2495 C 0.03491 0.50127 0.11909 0.0
C2496 C 0.02495 0.51531 0.1176 0.0
C2497 C 0.05502 0.4761 0.12232 0.0
C2498 C 0.05425 0.48868 0.13437 0.0
C2499 C 0.04417 0.50106 0.1326 0.0
C2500 C 0.06445 0.48967 0.14861 0.0
C2501 C 0.06616 0.46282 0.12332 0.0
C2502 C 0.06241 0.47764 0.15804 0.0
C2503 C 0.07225 0.47864 0.17134 0.0
C2504 C 0.08431 0.49174 0.17549 0.0
C2505 C 0.08611 0.50388 0.1661 0.0
C2506 C 0.07628 0.50286 0.15283 0.0
H2507 H 0.06819 0.45625 0.11203 0.0
H2508 H 0.07837 0.46771 0.1288 0.0
H2509 H 0.06033 0.45405 0.13026 0.0
H2510 H 0.05317 0.46748 0.15514 0.0
H2511 H 0.07057 0.46905 0.17826 0.0
H2512 H 0.33883 0.74697 0.25748 0.0
H2513 H 0.36502 0.74842 0.27199 0.0
H2514 H 0.37171 0.69985 0.25265 0.0
H2515 H 0.34613 0.6987 0.23733 0.0
H2516 H 0.37175 0.73154 0.29334 0.0
H2517 H 0.41739 0.72038 0.2496 0.0
H2518 H 0.39662 0.72484 0.24512 0.0
H2519 H 0.40073 0.70465 0.24758 0.0
C2520 C 0.34611 0.73677 0.2559 0.0
C2521 C 0.34027 0.7227 0.24619 0.0
C2522 C 0.36105 0.73756 0.26435 0.0
C2523 C 0.37049 0.72431 0.26336 0.0
C2524 C 0.36491 0.71039 0.25342 0.0
H2525 H 0.43583 0.70386 0.33559 0.0
H2526 H 0.41293 0.70503 0.31742 0.0
C2527 C 0.35009 0.70966 0.24481 0.0
C2528 C 0.38536 0.72455 0.27364 0.0
H2529 H 0.42591 0.71655 0.27474 0.0
C2530 C 0.38363 0.72842 0.28923 0.0
C2531 C 0.40097 0.7207 0.26834 0.0
C2532 C 0.4041 0.71758 0.25173 0.0
C2533 C 0.39689 0.72818 0.29965 0.0
C2534 C 0.41221 0.72339 0.29441 0.0
C2535 C 0.4141 0.71995 0.2788 0.0
C2536 C 0.42641 0.72197 0.30495 0.0
C2537 C 0.39436 0.73333 0.31616 0.0
C2538 C 0.4419 0.73047 0.3036 0.0
C2539 C 0.4551 0.72958 0.31382 0.0
C2540 C 0.45305 0.72021 0.32564 0.0
C2541 C 0.43769 0.71138 0.32674 0.0
C2542 C 0.42457 0.71212 0.31641 0.0
H2543 H 0.3842 0.74132 0.31773 0.0
H2544 H 0.39087 0.72252 0.32165 0.0
H2545 H 0.40583 0.73976 0.32198 0.0
H2546 H 0.44367 0.73809 0.29481 0.0
H2547 H 0.46677 0.73659 0.31274 0.0
H2548 H 1.00346 0.4365 0.9636 0.0
H2549 H 0.00522 0.40782 0.95587 0.0
H2550 H 0.02649 0.40351 0.99975 0.0
H2551 H 0.025 0.43244 0.00753 0.0
H2552 H 0.04422 0.38979 0.97534 0.0
H2553 H 0.97737 0.36883 0.96815 0.0
H2554 H 0.98301 0.3858 0.95855 0.0
H2555 H 0.98502 0.38796 0.97881 0.0
C2556 C 0.00847 0.42945 0.97164 0.0
C2557 C 0.01418 0.43675 0.98615 0.0
C2558 C 0.00931 0.41303 0.96725 0.0
C2559 C 0.01579 0.40349 0.97729 0.0
C2560 C 0.02133 0.41065 0.99188 0.0
H2561 H 0.01283 0.29904 0.95133 0.0
H2562 H 0.01046 0.3255 0.96571 0.0
C2563 C 0.0204 0.42713 0.99632 0.0
C2564 C 0.01765 0.3863 0.9721 0.0
H2565 H 0.99599 0.35124 0.95595 0.0
C2566 C 0.03367 0.38128 0.9713 0.0
C2567 C 1.00387 0.37517 0.96698 0.0
C2568 C 0.98633 0.37965 0.96829 0.0
C2569 C 0.03631 0.36563 0.96485 0.0
C2570 C 0.02259 0.35482 0.95888 0.0
C2571 C 0.00652 0.3596 0.96036 0.0
C2572 C 0.02465 0.33873 0.95053 0.0
C2573 C 0.05379 0.36085 0.96436 0.0
C2574 C 0.03329 0.33739 0.93716 0.0
C2575 C 0.03458 0.32231 0.92886 0.0
C2576 C 0.02715 0.30824 0.93372 0.0
C2577 C 0.01854 0.30963 0.94717 0.0
C2578 C 0.01725 0.32473 0.95545 0.0
H2579 H 0.0621 0.36853 0.97307 0.0
H2580 H 0.05416 0.34807 0.96608 0.0
H2581 H 0.0587 0.36235 0.95315 0.0
H2582 H 0.03875 0.34806 0.93295 0.0
H2583 H 0.04101 0.32173 0.91842 0.0
H2584 H 0.73281 0.75618 0.29188 0.0
H2585 H 0.70669 0.75458 0.30476 0.0
H2586 H 0.67957 0.75312 0.26228 0.0
H2587 H 0.70577 0.755 0.24935 0.0
H2588 H 0.66591 0.77179 0.28537 0.0
H2589 H 0.67722 0.71268 0.30241 0.0
H2590 H 0.69357 0.72812 0.30885 0.0
H2591 H 0.68961 0.72192 0.28894 0.0
C2592 C 0.72127 0.75563 0.2853 0.0
C2593 C 0.72131 0.75553 0.26959 0.0
C2594 C 0.70636 0.75464 0.29266 0.0
C2595 C 0.69116 0.75328 0.28443 0.0
C2596 C 0.69116 0.75402 0.26884 0.0
H2597 H 0.5991 0.71592 0.32035 0.0
H2598 H 0.62303 0.72035 0.30504 0.0
C2599 C 0.70612 0.75515 0.26147 0.0
C2600 C 0.67534 0.75058 0.29206 0.0
H2601 H 0.65486 0.72545 0.31375 0.0
C2602 C 0.66344 0.76162 0.29151 0.0
C2603 C 0.67197 0.73712 0.29981 0.0
C2604 C 0.68368 0.72419 0.29993 0.0
C2605 C 0.64845 0.7598 0.29887 0.0
C2606 C 0.64547 0.74678 0.30727 0.0
C2607 C 0.6572 0.73553 0.30746 0.0
C2608 C 0.63034 0.74456 0.31602 0.0
C2609 C 0.63589 0.77171 0.29736 0.0
C2610 C 0.62646 0.75665 0.32735 0.0
C2611 C 0.61262 0.75424 0.336 0.0
C2612 C 0.60246 0.73958 0.33368 0.0
C2613 C 0.60644 0.72746 0.32233 0.0
C2614 C 0.62021 0.72993 0.31362 0.0
H2615 H 0.63763 0.77761 0.28706 0.0
H2616 H 0.62304 0.76581 0.29694 0.0
H2617 H 0.63742 0.78126 0.30725 0.0
H2618 H 0.63428 0.7679 0.32969 0.0
H2619 H 0.60988 0.76393 0.34449 0.0
H2620 H 0.08297 0.12142 0.04277 0.0
H2621 H 0.07818 0.13076 0.01861 0.0
H2622 H 0.04486 0.08824 1.00402 0.0
H2623 H 0.04858 0.07938 0.0288 0.0
H2624 H 0.08278 0.12114 0.99071 0.0
H2625 H 0.01493 0.12155 0.99703 0.0
H2626 H 0.02869 0.11765 0.01202 0.0
H2627 H 0.02221 0.10203 0.99668 0.0
C2628 C 0.07447 0.11407 0.03451 0.0
C2629 C 0.06579 0.09985 0.03796 0.0
C2630 C 0.07188 0.11937 0.02058 0.0
C2631 C 0.06076 0.11049 0.00957 0.0
C2632 C 0.05305 0.09563 0.01249 0.0
H2633 H 0.05676 0.14938 0.92254 0.0
H2634 H 0.06101 0.13127 0.94113 0.0
C2635 C 0.05541 0.09043 0.0266 0.0
C2636 C 0.05697 0.11733 0.99543 0.0
H2637 H 0.02557 0.13001 0.975 0.0
C2638 C 0.07025 0.123 0.98723 0.0
C2639 C 0.04063 0.11994 0.99093 0.0
C2640 C 0.02581 0.11512 0.99968 0.0
C2641 C 0.06776 0.13172 0.97512 0.0
C2642 C 0.05141 0.13426 0.97059 0.0
C2643 C 0.03809 0.12804 0.97841 0.0
C2644 C 0.04788 0.14446 0.95865 0.0
C2645 C 0.08278 0.13885 0.96793 0.0
C2646 C 0.03828 0.15745 0.9619 0.0
C2647 C 0.03527 0.1675 0.95109 0.0
C2648 C 0.04199 0.16502 0.93674 0.0
C2649 C 0.05128 0.15173 0.93338 0.0
C2650 C 0.054 0.14147 0.94414 0.0
H2651 H 0.09415 0.13961 0.97535 0.0
H2652 H 0.08488 0.13108 0.95728 0.0
H2653 H 0.08103 0.15111 0.96527 0.0
H2654 H 0.03325 0.15997 0.97294 0.0
H2655 H 0.02763 0.17723 0.95406 0.0
H2656 H 0.3362 0.26282 0.28395 0.0
H2657 H 0.35713 0.25973 0.26496 0.0
H2658 H 0.37321 0.31039 0.27465 0.0
H2659 H 0.35296 0.31345 0.29414 0.0
H2660 H 0.36199 0.27328 0.23925 0.0
H2661 H 0.41646 0.29091 0.2789 0.0
H2662 H 0.39586 0.28661 0.28527 0.0
H2663 H 0.40206 0.30591 0.2796 0.0
C2664 C 0.34431 0.27329 0.28217 0.0
C2665 C 0.3429 0.28837 0.2907 0.0
C2666 C 0.3562 0.27152 0.27122 0.0
C2667 C 0.36698 0.28476 0.26856 0.0
C2668 C 0.36531 0.29991 0.27672 0.0
H2669 H 0.44618 0.29912 0.20694 0.0
H2670 H 0.4241 0.30239 0.22484 0.0
C2671 C 0.3535 0.30168 0.28773 0.0
C2672 C 0.37993 0.28275 0.25721 0.0
H2673 H 0.42167 0.28837 0.25274 0.0
C2674 C 0.37504 0.2765 0.24222 0.0
C2675 C 0.39699 0.28692 0.26108 0.0
C2676 C 0.4032 0.29281 0.27711 0.0
C2677 C 0.3867 0.27459 0.23098 0.0
C2678 C 0.40371 0.27893 0.23484 0.0
C2679 C 0.40861 0.28515 0.2498 0.0
C2680 C 0.41667 0.2769 0.22357 0.0
C2681 C 0.38073 0.26822 0.215 0.0
C2682 C 0.41987 0.26149 0.21698 0.0
C2683 C 0.43249 0.25958 0.20677 0.0
C2684 C 0.44216 0.27306 0.20293 0.0
C2685 C 0.43884 0.2885 0.2095 0.0
C2686 C 0.42629 0.29039 0.21979 0.0
H2687 H 0.36719 0.26877 0.21323 0.0
H2688 H 0.38734 0.27511 0.20687 0.0
H2689 H 0.38335 0.25546 0.21244 0.0
H2690 H 0.41274 0.2509 0.21988 0.0
H2691 H 0.43464 0.24753 0.20184 0.0
H2692 H 0.54702 0.42539 0.01748 0.0
H2693 H 0.54142 0.41403 0.04093 0.0
H2694 H 0.57845 0.381 0.03084 0.0
H2695 H 0.58432 0.39249 0.00775 0.0
H2696 H 0.52953 0.38285 0.04198 0.0
H2697 H 0.58895 0.39557 0.07514 0.0
H2698 H 0.58428 0.40589 0.05929 0.0
H2699 H 0.59181 0.38628 0.05631 0.0
C2700 C 0.5543 0.41604 0.02053 0.0
C2701 C 0.56608 0.4098 0.01076 0.0
C2702 C 0.55102 0.40949 0.03387 0.0
C2703 C 0.55962 0.39675 0.03776 0.0
C2704 C 0.57188 0.39102 0.02831 0.0
H2705 H 0.55231 0.31922 0.08975 0.0
H2706 H 0.55904 0.33969 0.07336 0.0
C2707 C 0.57512 0.39751 0.01501 0.0
C2708 C 0.55474 0.38822 0.05072 0.0
H2709 H 0.57063 0.37326 0.08122 0.0
C2710 C 0.53842 0.38103 0.05075 0.0
C2711 C 0.56634 0.38581 0.06217 0.0
C2712 C 0.58377 0.39395 0.06333 0.0
C2713 C 0.53366 0.37078 0.06137 0.0
C2714 C 0.54548 0.36779 0.07237 0.0
C2715 C 0.56161 0.37549 0.07273 0.0
C2716 C 0.54166 0.35582 0.08288 0.0
C2717 C 0.51625 0.36257 0.06026 0.0
C2718 C 0.52981 0.35819 0.09385 0.0
C2719 C 0.52587 0.34644 0.10324 0.0
C2720 C 0.5337 0.33209 0.10179 0.0
C2721 C 0.54583 0.32998 0.091 0.0
C2722 C 0.54979 0.34173 0.08169 0.0
H2723 H 0.50954 0.36397 0.04957 0.0
H2724 H 0.51641 0.34953 0.06103 0.0
H2725 H 0.50922 0.3679 0.06979 0.0
H2726 H 0.52353 0.36907 0.09509 0.0
H2727 H 0.51645 0.34843 0.11139 0.0
H2728 H 0.71342 0.22167 0.23773 0.0
H2729 H 0.6859 0.22542 0.228 0.0
H2730 H 0.67162 0.2413 0.27313 0.0
H2731 H 0.69961 0.2384 0.28294 0.0
H2732 H 0.65569 0.21234 0.23258 0.0
H2733 H 0.65987 0.27819 0.25164 0.0
H2734 H 0.67752 0.26671 0.25234 0.0
H2735 H 0.66229 0.26604 0.26646 0.0
C2736 C 0.70453 0.22615 0.24562 0.0
C2737 C 0.70889 0.23006 0.2611 0.0
C2738 C 0.6887 0.22813 0.24003 0.0
C2739 C 0.67674 0.23396 0.24976 0.0
C2740 C 0.68075 0.23717 0.26533 0.0
H2741 H 0.57521 0.23256 0.21096 0.0
H2742 H 0.59864 0.22777 0.22704 0.0
C2743 C 0.69671 0.23531 0.27095 0.0
C2744 C 0.6603 0.23684 0.24333 0.0
H2745 H 0.63508 0.26639 0.23879 0.0
C2746 C 0.65111 0.22414 0.23402 0.0
C2747 C 0.65442 0.25228 0.24508 0.0
C2748 C 0.66407 0.26664 0.2543 0.0
C2749 C 0.6365 0.22651 0.22609 0.0
C2750 C 0.6306 0.24194 0.22787 0.0
C2751 C 0.63955 0.25455 0.2375 0.0
C2752 C 0.61588 0.24556 0.21901 0.0
C2753 C 0.62802 0.21263 0.21534 0.0
C2754 C 0.6175 0.25767 0.20964 0.0
C2755 C 0.60401 0.26074 0.2007 0.0
C2756 C 0.58855 0.25169 0.20083 0.0
C2757 C 0.58685 0.23985 0.21057 0.0
C2758 C 0.60033 0.23691 0.21964 0.0
H2759 H 0.63636 0.20303 0.21241 0.0
H2760 H 0.61714 0.20724 0.22073 0.0
H2761 H 0.62362 0.21673 0.20475 0.0
H2762 H 0.62932 0.26462 0.20904 0.0
H2763 H 0.60574 0.27021 0.19366 0.0
H2764 H 0.46927 0.10246 0.97864 0.0
H2765 H 0.47726 0.12496 0.99838 0.0
H2766 H 0.48233 0.09178 0.03067 0.0
H2767 H 0.47533 0.06915 0.0108 0.0
H2768 H 0.46132 0.13387 0.02287 0.0
H2769 H 0.52416 0.12089 0.04051 0.0
H2770 H 0.51339 0.11062 0.02352 0.0
H2771 H 0.50892 0.1043 0.04152 0.0
C2772 C 0.47256 0.09987 0.98982 0.0
C2773 C 0.47171 0.08391 0.99305 0.0
C2774 C 0.47696 0.1128 1.00116 0.0
C2775 C 0.48059 0.11012 0.01602 0.0
C2776 C 0.47995 0.09421 0.01926 0.0
H2777 H 0.47313 0.18112 0.09506 0.0
H2778 H 0.46869 0.15836 0.07497 0.0
C2779 C 0.47571 0.08125 0.00789 0.0
C2780 C 0.48401 0.12397 0.02823 0.0
H2781 H 0.51152 0.14046 0.05704 0.0
C2782 C 0.47237 0.13535 0.03027 0.0
C2783 C 0.4985 0.12606 0.0378 0.0
C2784 C 0.51204 0.11491 0.03565 0.0
C2785 C 0.47467 0.1486 0.0417 0.0
C2786 C 0.48879 0.15029 0.0517 0.0
C2787 C 0.50058 0.13906 0.04952 0.0
C2788 C 0.49173 0.16379 0.06431 0.0
C2789 C 0.4621 0.16081 0.04271 0.0
C2790 C 0.50646 0.17408 0.06542 0.0
C2791 C 0.50922 0.18691 0.07712 0.0
C2792 C 0.49729 0.1898 0.08801 0.0
C2793 C 0.48266 0.17927 0.08699 0.0
C2794 C 0.47998 0.16635 0.07535 0.0
H2795 H 0.45505 0.16044 0.0318 0.0
H2796 H 0.45308 0.15808 0.0513 0.0
H2797 H 0.46812 0.17321 0.04607 0.0
H2798 H 0.51579 0.17227 0.05713 0.0
H2799 H 0.5208 0.1945 0.07768 0.0
H2800 H 0.2673 0.32441 0.74219 0.0
H2801 H 0.28254 0.35102 0.74924 0.0
H2802 H 0.32045 0.33769 0.71861 0.0
H2803 H 0.30547 0.31114 0.71163 0.0
H2804 H 0.31504 0.35869 0.76172 0.0
H2805 H 0.3085 0.38044 0.70621 0.0
H2806 H 0.29591 0.36322 0.71107 0.0
H2807 H 0.31671 0.36126 0.7052 0.0
C2808 C 0.27889 0.32715 0.73698 0.0
C2809 C 0.28505 0.31569 0.72621 0.0
C2810 C 0.28755 0.34237 0.74097 0.0
C2811 C 0.30247 0.34644 0.73423 0.0
C2812 C 0.30875 0.33497 0.72366 0.0
H2813 H 0.37875 0.42586 0.74213 0.0
H2814 H 0.36108 0.40056 0.7358 0.0
C2815 C 0.30013 0.31979 0.71966 0.0
C2816 C 0.31181 0.36247 0.73854 0.0
H2817 H 0.32816 0.39573 0.72408 0.0
C2818 C 0.31778 0.36688 0.75354 0.0
C2819 C 0.31538 0.37311 0.72783 0.0
C2820 C 0.30867 0.36937 0.71171 0.0
C2821 C 0.32769 0.38141 0.75803 0.0
C2822 C 0.33149 0.39192 0.74726 0.0
C2823 C 0.3253 0.38762 0.73231 0.0
C2824 C 0.3421 0.40732 0.75119 0.0
C2825 C 0.33446 0.38515 0.77413 0.0
C2826 C 0.33719 0.4196 0.7618 0.0
C2827 C 0.34722 0.43411 0.76539 0.0
C2828 C 0.36234 0.43667 0.75837 0.0
C2829 C 0.36712 0.42438 0.74763 0.0
C2830 C 0.35708 0.40988 0.74405 0.0
H2831 H 0.33373 0.37426 0.77996 0.0
H2832 H 0.34757 0.39039 0.77463 0.0
H2833 H 0.3271 0.3941 0.78042 0.0
H2834 H 0.3255 0.41803 0.76719 0.0
H2835 H 0.34301 0.44342 0.77351 0.0
H2836 H 0.26807 0.67601 0.82848 0.0
H2837 H 0.28637 0.65424 0.82694 0.0
H2838 H 0.31119 0.67335 0.79037 0.0
H2839 H 0.29332 0.69528 0.79208 0.0
H2840 H 0.2905 0.63092 0.80194 0.0
H2841 H 0.34962 0.66803 0.81956 0.0
H2842 H 0.32965 0.67549 0.82263 0.0
H2843 H 0.33842 0.67486 0.80439 0.0
C2844 C 0.27756 0.67567 0.82024 0.0
C2845 C 0.2792 0.68738 0.81039 0.0
C2846 C 0.28794 0.66318 0.81932 0.0
C2847 C 0.30029 0.66228 0.80868 0.0
C2848 C 0.30194 0.67394 0.79884 0.0
H2849 H 0.37289 0.59825 0.77744 0.0
H2850 H 0.35472 0.61984 0.7822 0.0
C2851 C 0.29157 0.68637 0.79972 0.0
C2852 C 0.31114 0.64891 0.80745 0.0
H2853 H 0.35168 0.64096 0.80855 0.0
C2854 C 0.30386 0.63307 0.80353 0.0
C2855 C 0.32857 0.65177 0.80952 0.0
C2856 C 0.33705 0.66844 0.8144 0.0
C2857 C 0.3136 0.62005 0.80111 0.0
C2858 C 0.33106 0.62294 0.80293 0.0
C2859 C 0.3383 0.63876 0.8071 0.0
C2860 C 0.34209 0.60978 0.80022 0.0
C2861 C 0.30513 0.6034 0.79613 0.0
C2862 C 0.34118 0.59704 0.8089 0.0
C2863 C 0.3516 0.58468 0.80624 0.0
C2864 C 0.36324 0.58488 0.79491 0.0
C2865 C 0.36422 0.59779 0.78636 0.0
C2866 C 0.35379 0.61011 0.78902 0.0
H2867 H 0.29223 0.60377 0.79172 0.0
H2868 H 0.3121 0.59675 0.78724 0.0
H2869 H 0.30464 0.59656 0.80591 0.0
H2870 H 0.33252 0.59671 0.81783 0.0
H2871 H 0.3507 0.57509 0.81321 0.0
H2872 H 0.94179 0.51005 0.46506 0.0
H2873 H 0.92 0.49032 0.47139 0.0
H2874 H 0.90357 0.52595 0.50535 0.0
H2875 H 0.92468 0.54595 0.49858 0.0
H2876 H 0.9136 0.47805 0.49746 0.0
H2877 H 0.86097 0.51072 0.48112 0.0
H2878 H 0.88198 0.51621 0.47636 0.0
H2879 H 0.87511 0.52259 0.49493 0.0
C2880 C 0.93344 0.51375 0.47377 0.0
C2881 C 0.93498 0.52966 0.48122 0.0
C2882 C 0.92106 0.50241 0.47745 0.0
C2883 C 0.90993 0.50672 0.48864 0.0
C2884 C 0.91175 0.52243 0.49643 0.0
H2885 H 0.82829 0.45566 0.52845 0.0
H2886 H 0.85105 0.47478 0.52286 0.0
C2887 C 0.92404 0.5338 0.49269 0.0
C2888 C 0.89645 0.4948 0.49218 0.0
H2889 H 0.85441 0.48831 0.4942 0.0
C2890 C 0.90066 0.48026 0.49667 0.0
C2891 C 0.87953 0.49765 0.49109 0.0
C2892 C 0.87408 0.51256 0.48547 0.0
C2893 C 0.88844 0.46866 0.50038 0.0
C2894 C 0.87159 0.47164 0.49948 0.0
C2895 C 0.86736 0.48613 0.49497 0.0
C2896 C 0.85811 0.45981 0.50303 0.0
C2897 C 0.89362 0.4534 0.50546 0.0
C2898 C 0.85447 0.44511 0.49365 0.0
C2899 C 0.84133 0.43422 0.49668 0.0
C2900 C 0.83155 0.43781 0.50919 0.0
C2901 C 0.83536 0.45255 0.51861 0.0
C2902 C 0.84844 0.46347 0.5155 0.0
H2903 H 0.90712 0.45429 0.50837 0.0
H2904 H 0.88671 0.45052 0.51543 0.0
H2905 H 0.89067 0.44326 0.49624 0.0
H2906 H 0.86162 0.44218 0.48381 0.0
H2907 H 0.8386 0.42316 0.48901 0.0
H2908 H 0.76797 0.83604 0.80124 0.0
H2909 H 0.74849 0.85095 0.78833 0.0
H2910 H 0.78079 0.89467 0.80038 0.0
H2911 H 0.80021 0.8799 0.81322 0.0
H2912 H 0.74829 0.89668 0.80967 0.0
H2913 H 0.74927 0.87205 0.74897 0.0
H2914 H 0.74645 0.85746 0.76186 0.0
H2915 H 0.76569 0.86992 0.76247 0.0
C2916 C 0.77111 0.84873 0.80076 0.0
C2917 C 0.78555 0.85683 0.80834 0.0
C2918 C 0.75997 0.85725 0.79339 0.0
C2919 C 0.76319 0.87393 0.79339 0.0
C2920 C 0.77802 0.88182 0.80028 0.0
H2921 H 0.71384 0.9442 0.75082 0.0
H2922 H 0.73243 0.92487 0.75797 0.0
C2923 C 0.78909 0.87337 0.80763 0.0
C2924 C 0.75053 0.88357 0.78762 0.0
H2925 H 0.72936 0.89036 0.75579 0.0
C2926 C 0.74413 0.89527 0.79789 0.0
C2927 C 0.7452 0.88177 0.77224 0.0
C2928 C 0.75206 0.86972 0.76067 0.0
C2929 C 0.7326 0.90528 0.79324 0.0
C2930 C 0.72709 0.90338 0.77789 0.0
C2931 C 0.73349 0.89169 0.76757 0.0
C2932 C 0.71515 0.9139 0.77238 0.0
C2933 C 0.72673 0.91808 0.80474 0.0
C2934 C 0.6991 0.91387 0.77779 0.0
C2935 C 0.68843 0.92489 0.77373 0.0
C2936 C 0.69356 0.93612 0.76407 0.0
C2937 C 0.70942 0.93565 0.75818 0.0
C2938 C 0.72009 0.92464 0.76228 0.0
H2939 H 0.73491 0.92036 0.81514 0.0
H2940 H 0.72619 0.92957 0.80001 0.0
H2941 H 0.71408 0.91409 0.80796 0.0
H2942 H 0.69492 0.90549 0.78539 0.0
H2943 H 0.6762 0.9247 0.77824 0.0
H2944 H 0.61916 0.46998 0.97923 0.0
H2945 H 0.64431 0.48855 0.98452 0.0
H2946 H 0.61484 0.52886 0.98694 0.0
H2947 H 0.58966 0.51041 0.98231 0.0
H2948 H 0.65579 0.51041 0.96691 0.0
H2949 H 0.64555 0.5421 0.02356 0.0
H2950 H 0.63342 0.52369 0.01567 0.0
H2951 H 0.6285 0.5427 0.01046 0.0
C2952 C 0.61799 0.48278 0.98133 0.0
C2953 C 0.60236 0.48869 0.98035 0.0
C2954 C 0.6324 0.49339 0.98422 0.0
C2955 C 0.63149 0.51012 0.98629 0.0
C2956 C 0.61588 0.51603 0.98571 0.0
H2957 H 0.69861 0.59582 0.98684 0.0
H2958 H 0.67489 0.57561 0.98646 0.0
C2959 C 0.60149 0.50545 0.98287 0.0
C2960 C 0.64685 0.52141 0.98783 0.0
H2961 H 0.66636 0.55477 0.00941 0.0
C2962 C 0.6582 0.51998 0.97631 0.0
C2963 C 0.64999 0.53393 1.00007 0.0
C2964 C 0.6388 0.53562 0.01321 0.0
C2965 C 0.67231 0.53101 0.97645 0.0
C2966 C 0.67522 0.54373 0.9885 0.0
C2967 C 0.66403 0.54504 1.00014 0.0
C2968 C 0.68968 0.55596 0.98906 0.0
C2969 C 0.68373 0.52928 0.96348 0.0
C2970 C 0.70585 0.55164 0.99083 0.0
C2971 C 0.71945 0.56319 0.99118 0.0
C2972 C 0.71716 0.57932 0.98977 0.0
C2973 C 0.70087 0.58359 0.98813 0.0
C2974 C 0.68729 0.57204 0.98784 0.0
H2975 H 0.67805 0.52081 0.95371 0.0
H2976 H 0.68715 0.54113 0.9597 0.0
H2977 H 0.69529 0.52459 0.96725 0.0
H2978 H 0.70795 0.53935 0.99203 0.0
H2979 H 0.73176 0.5595 0.99278 0.0
H2980 H 0.29485 0.68597 0.25474 0.0
H2981 H 0.27645 0.66151 0.25557 0.0
H2982 H 0.25446 0.66618 0.21209 0.0
H2983 H 0.27308 0.69055 0.21098 0.0
H2984 H 0.23129 0.66045 0.23477 0.0
H2985 H 0.27884 0.61679 0.23042 0.0
H2986 H 0.28339 0.63384 0.24476 0.0
H2987 H 0.28256 0.63678 0.22524 0.0
C2988 C 0.28633 0.68167 0.2452 0.0
C2989 C 0.28558 0.69018 0.23272 0.0
C2990 C 0.27578 0.6677 0.24574 0.0
C2991 C 0.26425 0.66193 0.23381 0.0
C2992 C 0.26333 0.67041 0.22138 0.0
H2993 H 0.2059 0.5687 0.22033 0.0
H2994 H 0.22433 0.5927 0.21746 0.0
C2995 C 0.27393 0.68437 0.22081 0.0
C2996 C 0.25284 0.64728 0.23455 0.0
H2997 H 0.2519 0.60702 0.23674 0.0
C2998 C 0.23576 0.64875 0.23513 0.0
C2999 C 0.25872 0.63202 0.23487 0.0
C3000 C 0.27686 0.62965 0.23366 0.0
C3001 C 0.22443 0.63539 0.23638 0.0
C3002 C 0.23037 0.62023 0.23719 0.0
C3003 C 0.2474 0.61869 0.23625 0.0
C3004 C 0.21908 0.60579 0.23896 0.0
C3005 C 0.20619 0.63756 0.23669 0.0
C3006 C 0.21017 0.60514 0.25208 0.0
C3007 C 0.19962 0.59145 0.25376 0.0
C3008 C 0.19779 0.57815 0.24233 0.0
C3009 C 0.20686 0.57882 0.22925 0.0
C3010 C 0.21746 0.59248 0.22762 0.0
H3011 H 0.20336 0.64887 0.23243 0.0
H3012 H 0.19878 0.62726 0.2298 0.0
H3013 H 0.20222 0.63812 0.24848 0.0
H3014 H 0.21143 0.6152 0.26107 0.0
H3015 H 0.19274 0.59137 0.26392 0.0
H3016 H 0.98157 0.52665 0.01595 0.0
H3017 H 0.95966 0.54418 0.01284 0.0
H3018 H 0.93202 0.52303 0.04684 0.0
H3019 H 0.95412 0.50558 0.05016 0.0
H3020 H 0.92804 0.53552 1.00339 0.0
H3021 H 0.92994 0.57051 0.06055 0.0
H3022 H 0.94611 0.55819 0.05423 0.0
H3023 H 0.92712 0.54912 0.06056 0.0
C3024 C 0.97085 0.52578 0.02282 0.0
C3025 C 0.96953 0.51469 0.03327 0.0
C3026 C 0.95836 0.53584 0.02105 0.0
C3027 C 0.94424 0.53506 0.02969 0.0
C3028 C 0.94295 0.52412 0.04028 0.0
H3029 H 0.85137 0.57114 1.00382 0.0
H3030 H 0.87327 0.55429 0.0092 0.0
C3031 C 0.95555 0.51412 0.04214 0.0
C3032 C 0.9306 0.54514 0.02696 0.0
H3033 H 0.90742 0.57375 0.04391 0.0
C3034 C 0.92356 0.5439 0.01226 0.0
C3035 C 0.92487 0.55621 0.03848 0.0
C3036 C 0.93249 0.55874 0.05431 0.0
C3037 C 0.91095 0.55335 0.00876 0.0
C3038 C 0.90487 0.56408 0.02036 0.0
C3039 C 0.91197 0.56541 0.03505 0.0
C3040 C 0.8914 0.57427 0.0174 0.0
C3041 C 0.90456 0.55203 0.99257 0.0
C3042 C 0.89411 0.59111 0.02064 0.0
C3043 C 0.88156 0.60076 0.01767 0.0
C3044 C 0.86604 0.59378 0.0114 0.0
C3045 C 0.8633 0.5769 0.00836 0.0
C3046 C 0.87581 0.56725 0.01143 0.0
H3047 H 0.91352 0.54685 0.98461 0.0
H3048 H 0.89286 0.54395 0.991 0.0
H3049 H 0.90197 0.56396 0.98957 0.0
H3050 H 0.90602 0.59679 0.02528 0.0
H3051 H 0.8841 0.61372 0.02007 0.0
H3052 H 0.08725 0.02638 0.04582 0.0
H3053 H 0.10829 0.00852 0.03719 0.0
H3054 H 0.11631 0.99822 0.08263 0.0
H3055 H 0.09582 0.01639 0.09141 0.0
H3056 H 0.1454 0.0051 0.06892 0.0
H3057 H 0.10385 0.95929 0.03172 0.0
H3058 H 0.10325 0.97956 0.02765 0.0
H3059 H 0.09608 0.97429 0.04531 0.0
C3060 C 0.09354 0.02035 0.05398 0.0
C3061 C 0.0897 0.02273 0.06929 0.0
C3062 C 0.10543 0.01001 0.049 0.0
C3063 C 0.11369 1.00181 0.05922 0.0
C3064 C 0.11001 1.0043 0.07451 0.0
H3065 H 0.17195 0.92038 0.04377 0.0
H3066 H 0.15059 0.9387 0.04965 0.0
C3067 C 0.09817 0.01461 0.07949 0.0
C3068 C 0.12649 0.99095 0.05419 0.0
H3069 H 0.13257 0.95617 0.03153 0.0
C3070 C 0.14261 0.99442 0.06071 0.0
C3071 C 0.12278 0.97691 0.04362 0.0
C3072 C 0.10553 0.97215 0.03674 0.0
C3073 C 0.15511 0.98428 0.05697 0.0
C3074 C 0.15149 0.9704 0.04619 0.0
C3075 C 0.13536 0.96688 0.03969 0.0
C3076 C 0.16417 0.95914 0.04189 0.0
C3077 C 0.17196 0.9883 0.06491 0.0
C3078 C 0.17877 0.96444 0.03528 0.0
C3079 C 0.191 0.95399 0.03189 0.0
C3080 C 0.18884 0.93797 0.03493 0.0
C3081 C 0.17398 0.93258 0.04116 0.0
C3082 C 0.16177 0.94306 0.04459 0.0
H3083 H 0.17151 0.99689 0.07541 0.0
H3084 H 0.17711 0.97727 0.06782 0.0
H3085 H 0.18056 0.99395 0.05732 0.0
H3086 H 0.18073 0.97669 0.03278 0.0
H3087 H 0.20214 0.95845 0.02682 0.0
loop_
_geom_bond_atom_site_label_1
_geom_bond_atom_site_label_2
_geom_bond_distance
_geom_bond_site_symmetry_2
_ccdc_geom_bond_type
H0 C1 0.949 . S
C1 H0 0.949 . S
C1 C2 1.395 . S
C1 C3 1.391 . S
C2 C1 1.395 . S
C2 C5 1.390 . S
C3 C1 1.391 . S
C3 C7 1.387 . S
C3 C8 1.491 . S
H4 C5 0.950 . S
C5 C2 1.390 . S
C5 H4 0.950 . S
C5 C6 1.378 . S
C6 C5 1.378 . S
C6 C7 1.409 . S
C7 C3 1.387 . S
C7 C6 1.409 . S
C7 H9 0.951 . S
C8 C3 1.491 . S
C8 C10 1.382 . S
C8 C12 1.404 . S
H9 C7 0.951 . S
C10 C8 1.382 . S
C10 C11 1.390 . S
C10 H15 0.949 . S
C11 C10 1.390 . S
C11 C16 1.399 . S
C12 C8 1.404 . S
C12 H13 0.950 . S
C12 C14 1.375 . S
H13 C12 0.950 . S
C14 C12 1.375 . S
C14 C16 1.382 . S
C14 H18 0.950 . S
H15 C10 0.949 . S
C16 C11 1.399 . S
C16 C14 1.382 . S
C16 H17 0.952 . S
H17 C16 0.952 . S
H18 C14 0.950 . S
H19 C20 0.949 . S
C20 H19 0.949 . S
C20 C21 1.395 . S
C20 C22 1.391 . S
C21 C20 1.395 . S
C21 C24 1.390 . S
C22 C20 1.391 . S
C22 C26 1.387 . S
C22 C27 1.491 . S
H23 C24 0.950 . S
C24 C21 1.390 . S
C24 H23 0.950 . S
C24 C25 1.378 . S
C25 C24 1.378 . S
C25 C26 1.409 . S
C26 C22 1.387 . S
C26 C25 1.409 . S
C26 H28 0.951 . S
C27 C22 1.491 . S
C27 C29 1.382 . S
C27 C31 1.404 . S
H28 C26 0.951 . S
C29 C27 1.382 . S
C29 C30 1.390 . S
C29 H34 0.949 . S
C30 C29 1.390 . S
C30 C35 1.399 . S
C31 C27 1.404 . S
C31 H32 0.950 . S
C31 C33 1.375 . S
H32 C31 0.950 . S
C33 C31 1.375 . S
C33 C35 1.382 . S
C33 H37 0.950 . S
H34 C29 0.949 . S
C35 C30 1.399 . S
C35 C33 1.382 . S
C35 H36 0.952 . S
H36 C35 0.952 . S
H37 C33 0.950 . S
H38 C39 0.949 . S
C39 H38 0.949 . S
C39 C40 1.395 . S
C39 C41 1.391 1_455 S
C40 C39 1.395 . S
C40 C43 1.390 1_455 S
C41 C39 1.391 1_655 S
C41 C45 1.387 . S
C41 C46 1.488 1_654 S
H42 C43 0.950 . S
C43 C40 1.390 1_655 S
C43 H42 0.950 . S
C43 C44 1.378 . S
C44 C43 1.378 . S
C44 C45 1.409 . S
C45 C41 1.387 . S
C45 C44 1.409 . S
C45 H47 0.951 1_554 S
C46 C41 1.488 1_456 S
C46 C48 1.385 . S
C46 C50 1.404 . S
H47 C45 0.951 1_556 S
C48 C46 1.385 . S
C48 C49 1.390 . S
C48 H53 0.949 1_556 S
C49 C48 1.390 . S
C49 C54 1.399 . S
C50 C46 1.404 . S
C50 H51 0.951 1_455 S
C50 C52 1.374 . S
H51 C50 0.951 1_655 S
C52 C50 1.374 . S
C52 C54 1.382 . S
C52 H56 0.950 . S
H53 C48 0.949 1_554 S
C54 C49 1.399 . S
C54 C52 1.382 . S
C54 H55 0.952 . S
H55 C54 0.952 . S
H56 C52 0.950 . S
H57 C58 0.949 . S
C58 H57 0.949 . S
C58 C59 1.395 . S
C58 C60 1.391 . S
C59 C58 1.395 . S
C59 C62 1.390 . S
C60 C58 1.391 . S
C60 C64 1.387 . S
C60 C65 1.491 . S
H61 C62 0.950 . S
C62 C59 1.390 . S
C62 H61 0.950 . S
C62 C63 1.378 . S
C63 C62 1.378 . S
C63 C64 1.409 . S
C64 C60 1.387 . S
C64 C63 1.409 . S
C64 H66 0.951 . S
C65 C60 1.491 . S
C65 C67 1.382 . S
C65 C69 1.404 . S
H66 C64 0.951 . S
C67 C65 1.382 . S
C67 C68 1.390 . S
C67 H72 0.949 . S
C68 C67 1.390 . S
C68 C73 1.399 . S
C69 C65 1.404 . S
C69 H70 0.950 . S
C69 C71 1.375 . S
H70 C69 0.950 . S
C71 C69 1.375 . S
C71 C73 1.382 . S
C71 H75 0.950 . S
H72 C67 0.949 . S
C73 C68 1.399 . S
C73 C71 1.382 . S
C73 H74 0.952 . S
H74 C73 0.952 . S
H75 C71 0.950 . S
H76 C77 0.949 . S
C77 H76 0.949 . S
C77 C78 1.395 . S
C77 C79 1.391 . S
C78 C77 1.395 . S
C78 C81 1.390 . S
C79 C77 1.391 . S
C79 C83 1.387 . S
C79 C84 1.491 . S
H80 C81 0.950 . S
C81 C78 1.390 . S
C81 H80 0.950 . S
C81 C82 1.378 . S
C82 C81 1.378 . S
C82 C83 1.409 . S
C83 C79 1.387 . S
C83 C82 1.409 . S
C83 H85 0.951 . S
C84 C79 1.491 . S
C84 C86 1.382 . S
C84 C88 1.404 . S
H85 C83 0.951 . S
C86 C84 1.382 . S
C86 C87 1.390 . S
C86 H91 0.949 . S
C87 C86 1.390 . S
C87 C92 1.399 . S
C88 C84 1.404 . S
C88 H89 0.950 . S
C88 C90 1.375 . S
H89 C88 0.950 . S
C90 C88 1.375 . S
C90 C92 1.382 . S
C90 H94 0.950 . S
H91 C86 0.949 . S
C92 C87 1.399 . S
C92 C90 1.382 . S
C92 H93 0.952 . S
H93 C92 0.952 . S
H94 C90 0.950 . S
H95 C96 0.949 . S
C96 H95 0.949 . S
C96 C97 1.395 . S
C96 C98 1.391 . S
C97 C96 1.395 . S
C97 C100 1.390 . S
C98 C96 1.391 . S
C98 C102 1.387 . S
C98 C103 1.491 . S
H99 C100 0.950 . S
C100 C97 1.390 . S
C100 H99 0.950 . S
C100 C101 1.378 . S
C101 C100 1.378 . S
C101 C102 1.409 . S
C102 C98 1.387 . S
C102 C101 1.409 . S
C102 H104 0.951 . S
C103 C98 1.491 . S
C103 C105 1.382 . S
C103 C107 1.404 . S
H104 C102 0.951 . S
C105 C103 1.382 . S
C105 C106 1.390 . S
C105 H110 0.949 . S
C106 C105 1.390 . S
C106 C111 1.399 . S
C107 C103 1.404 . S
C107 H108 0.950 . S
C107 C109 1.375 . S
H108 C107 0.950 . S
C109 C107 1.375 . S
C109 C111 1.382 . S
C109 H113 0.950 . S
H110 C105 0.949 . S
C111 C106 1.399 . S
C111 C109 1.382 . S
C111 H112 0.952 . S
H112 C111 0.952 . S
H113 C109 0.950 . S
H114 C115 0.949 . S
C115 H114 0.949 . S
C115 C116 1.395 . S
C115 C117 1.391 . S
C116 C115 1.395 . S
C116 C119 1.390 . S
C117 C115 1.391 . S
C117 C121 1.387 . S
C117 C122 1.491 . S
H118 C119 0.950 . S
C119 C116 1.390 . S
C119 H118 0.950 . S
C119 C120 1.378 . S
C120 C119 1.378 . S
C120 C121 1.409 . S
C121 C117 1.387 . S
C121 C120 1.409 . S
C121 H123 0.951 . S
C122 C117 1.491 . S
C122 C124 1.382 . S
C122 C126 1.404 . S
H123 C121 0.951 . S
C124 C122 1.382 . S
C124 C125 1.390 . S
C124 H129 0.949 1_655 S
C125 C124 1.390 . S
C125 C130 1.399 . S
C126 C122 1.404 . S
C126 H127 0.950 . S
C126 C128 1.375 . S
H127 C126 0.950 . S
C128 C126 1.375 . S
C128 C130 1.382 . S
C128 H132 0.950 . S
H129 C124 0.949 1_455 S
C130 C125 1.399 . S
C130 C128 1.382 . S
C130 H131 0.952 . S
H131 C130 0.952 . S
H132 C128 0.950 . S
H133 C134 0.949 . S
C134 H133 0.949 . S
C134 C135 1.395 . S
C134 C136 1.391 . S
C135 C134 1.395 . S
C135 C138 1.390 . S
C136 C134 1.391 . S
C136 C140 1.387 . S
C136 C141 1.491 . S
H137 C138 0.950 . S
C138 C135 1.390 . S
C138 H137 0.950 . S
C138 C139 1.378 . S
C139 C138 1.378 . S
C139 C140 1.409 . S
C140 C136 1.387 . S
C140 C139 1.409 . S
C140 H142 0.951 . S
C141 C136 1.491 . S
C141 C143 1.382 . S
C141 C145 1.404 . S
H142 C140 0.951 . S
C143 C141 1.382 . S
C143 C144 1.390 . S
C143 H148 0.949 . S
C144 C143 1.390 . S
C144 C149 1.399 . S
C145 C141 1.404 . S
C145 H146 0.950 . S
C145 C147 1.375 . S
H146 C145 0.950 . S
C147 C145 1.375 . S
C147 C149 1.382 . S
C147 H151 0.950 . S
H148 C143 0.949 . S
C149 C144 1.399 . S
C149 C147 1.382 . S
C149 H150 0.952 . S
H150 C149 0.952 . S
H151 C147 0.950 . S
H152 C153 0.949 . S
C153 H152 0.949 . S
C153 C154 1.395 . S
C153 C155 1.391 . S
C154 C153 1.395 . S
C154 C157 1.390 . S
C155 C153 1.391 . S
C155 C159 1.387 . S
C155 C160 1.491 . S
H156 C157 0.950 . S
C157 C154 1.390 . S
C157 H156 0.950 . S
C157 C158 1.378 . S
C158 C157 1.378 . S
C158 C159 1.409 . S
C159 C155 1.387 . S
C159 C158 1.409 . S
C159 H161 0.951 . S
C160 C155 1.491 . S
C160 C162 1.382 . S
C160 C164 1.404 . S
H161 C159 0.951 . S
C162 C160 1.382 . S
C162 C163 1.390 . S
C162 H167 0.949 . S
C163 C162 1.390 . S
C163 C168 1.399 . S
C164 C160 1.404 . S
C164 H165 0.950 . S
C164 C166 1.375 . S
H165 C164 0.950 . S
C166 C164 1.375 . S
C166 C168 1.382 . S
C166 H170 0.950 . S
H167 C162 0.949 . S
C168 C163 1.399 . S
C168 C166 1.382 . S
C168 H169 0.952 . S
H169 C168 0.952 . S
H170 C166 0.950 . S
H171 C172 0.949 . S
C172 H171 0.949 . S
C172 C173 1.395 . S
C172 C174 1.391 . S
C173 C172 1.395 . S
C173 C176 1.390 . S
C174 C172 1.391 . S
C174 C178 1.387 . S
C174 C179 1.491 . S
H175 C176 0.994 . S
C176 C173 1.390 . S
C176 H175 0.994 . S
C176 C177 1.378 . S
C177 C176 1.378 . S
C177 C178 1.409 . S
C178 C174 1.387 . S
C178 C177 1.409 . S
C178 H180 0.951 . S
C179 C174 1.491 . S
C179 C181 1.382 . S
C179 C183 1.404 . S
H180 C178 0.951 . S
C181 C179 1.382 . S
C181 C182 1.390 . S
C181 H186 0.949 . S
C182 C181 1.390 . S
C182 C187 1.399 . S
C183 C179 1.404 . S
C183 H184 0.950 . S
C183 C185 1.375 . S
H184 C183 0.950 . S
C185 C183 1.375 . S
C185 C187 1.382 . S
C185 H189 0.950 . S
H186 C181 0.949 . S
C187 C182 1.399 . S
C187 C185 1.382 . S
C187 H188 0.952 . S
H188 C187 0.952 . S
H189 C185 0.950 . S
H190 C191 0.949 . S
C191 H190 0.949 . S
C191 C192 1.395 . S
C191 C193 1.391 . S
C192 C191 1.395 . S
C192 C195 1.390 . S
C193 C191 1.391 . S
C193 C197 1.387 . S
C193 C198 1.491 . S
H194 C195 0.950 . S
C195 C192 1.390 . S
C195 H194 0.950 . S
C195 C196 1.378 . S
C196 C195 1.378 . S
C196 C197 1.409 . S
C197 C193 1.387 . S
C197 C196 1.409 . S
C197 H199 0.951 . S
C198 C193 1.491 . S
C198 C200 1.382 . S
C198 C202 1.404 . S
H199 C197 0.951 . S
C200 C198 1.382 . S
C200 C201 1.390 . S
C200 H205 0.949 . S
C201 C200 1.390 . S
C201 C206 1.399 . S
C202 C198 1.404 . S
C202 H203 0.950 . S
C202 C204 1.375 . S
H203 C202 0.950 . S
C204 C202 1.375 . S
C204 C206 1.382 . S
C204 H208 0.950 . S
H205 C200 0.949 . S
C206 C201 1.399 . S
C206 C204 1.382 . S
C206 H207 0.952 . S
H207 C206 0.952 . S
H208 C204 0.950 . S
H209 C210 0.949 . S
C210 H209 0.949 . S
C210 C211 1.395 . S
C210 C212 1.391 . S
C211 C210 1.395 . S
C211 C214 1.390 . S
C212 C210 1.391 . S
C212 C216 1.387 . S
C212 C217 1.491 . S
H213 C214 0.950 . S
C214 C211 1.390 . S
C214 H213 0.950 . S
C214 C215 1.378 . S
C215 C214 1.378 . S
C215 C216 1.409 . S
C216 C212 1.387 . S
C216 C215 1.409 . S
C216 H218 0.951 . S
C217 C212 1.491 . S
C217 C219 1.382 . S
C217 C221 1.404 . S
H218 C216 0.951 . S
C219 C217 1.382 . S
C219 C220 1.390 . S
C219 H224 0.949 . S
C220 C219 1.390 . S
C220 C225 1.399 . S
C221 C217 1.404 . S
C221 H222 0.950 . S
C221 C223 1.375 . S
H222 C221 0.950 . S
C223 C221 1.375 . S
C223 C225 1.382 . S
C223 H227 0.950 . S
H224 C219 0.949 . S
C225 C220 1.399 . S
C225 C223 1.382 . S
C225 H226 0.952 . S
H226 C225 0.952 . S
H227 C223 0.950 . S
H228 C229 0.949 . S
C229 H228 0.949 . S
C229 C230 1.395 . S
C229 C231 1.391 . S
C230 C229 1.395 . S
C230 C233 1.390 . S
C231 C229 1.391 . S
C231 C235 1.387 . S
C231 C236 1.491 . S
H232 C233 0.950 . S
C233 C230 1.390 . S
C233 H232 0.950 . S
C233 C234 1.378 . S
C234 C233 1.378 . S
C234 C235 1.409 . S
C235 C231 1.387 . S
C235 C234 1.409 . S
C235 H237 0.951 . S
C236 C231 1.491 . S
C236 C238 1.382 . S
C236 C240 1.404 . S
H237 C235 0.951 . S
C238 C236 1.382 . S
C238 C239 1.390 . S
C238 H243 0.949 . S
C239 C238 1.390 . S
C239 C244 1.399 . S
C240 C236 1.404 . S
C240 H241 0.950 . S
C240 C242 1.375 . S
H241 C240 0.950 . S
C242 C240 1.375 . S
C242 C244 1.382 . S
C242 H246 0.950 . S
H243 C238 0.949 . S
C244 C239 1.399 . S
C244 C242 1.382 . S
C244 H245 0.952 . S
H245 C244 0.952 . S
H246 C242 0.950 . S
H247 C248 0.949 1_554 S
C248 H247 0.949 1_556 S
C248 C249 1.395 . S
C248 C250 1.391 . S
C249 C248 1.395 . S
C249 C252 1.390 . S
C250 C248 1.391 . S
C250 C254 1.387 . S
C250 C255 1.491 . S
H251 C252 0.950 . S
C252 C249 1.390 . S
C252 H251 0.950 . S
C252 C253 1.378 . S
C253 C252 1.378 . S
C253 C254 1.409 . S
C254 C250 1.387 . S
C254 C253 1.409 . S
C254 H256 0.951 . S
C255 C250 1.491 . S
C255 C257 1.382 1_556 S
C255 C259 1.404 . S
H256 C254 0.951 . S
C257 C255 1.382 1_554 S
C257 C258 1.390 . S
C257 H262 0.949 . S
C258 C257 1.390 . S
C258 C263 1.399 . S
C259 C255 1.404 . S
C259 H260 0.950 . S
C259 C261 1.375 . S
H260 C259 0.950 . S
C261 C259 1.375 . S
C261 C263 1.382 1_556 S
C261 H265 0.950 . S
H262 C257 0.949 . S
C263 C258 1.399 . S
C263 C261 1.382 1_554 S
C263 H264 0.952 . S
H264 C263 0.952 . S
H265 C261 0.950 . S
H266 C267 0.949 . S
C267 H266 0.949 . S
C267 C268 1.395 . S
C267 C269 1.391 . S
C268 C267 1.395 . S
C268 C271 1.390 . S
C269 C267 1.391 . S
C269 C273 1.387 . S
C269 C274 1.491 . S
H270 C271 0.950 . S
C271 C268 1.390 . S
C271 H270 0.950 . S
C271 C272 1.378 . S
C272 C271 1.378 . S
C272 C273 1.409 . S
C273 C269 1.387 . S
C273 C272 1.409 . S
C273 H275 0.951 . S
C274 C269 1.491 . S
C274 C276 1.382 . S
C274 C278 1.404 . S
H275 C273 0.951 . S
C276 C274 1.382 . S
C276 C277 1.390 . S
C276 H281 0.949 . S
C277 C276 1.390 . S
C277 C282 1.399 . S
C278 C274 1.404 . S
C278 H279 0.950 . S
C278 C280 1.375 . S
H279 C278 0.950 . S
C280 C278 1.375 . S
C280 C282 1.382 . S
C280 H284 0.950 . S
H281 C276 0.949 . S
C282 C277 1.399 . S
C282 C280 1.382 . S
C282 H283 0.952 . S
H283 C282 0.952 . S
H284 C280 0.950 . S
H285 C286 0.949 . S
C286 H285 0.949 . S
C286 C287 1.395 . S
C286 C288 1.391 . S
C287 C286 1.395 . S
C287 C290 1.390 . S
C288 C286 1.391 . S
C288 C292 1.387 . S
C288 C293 1.491 . S
H289 C290 0.950 . S
C290 C287 1.390 . S
C290 H289 0.950 . S
C290 C291 1.378 . S
C291 C290 1.378 . S
C291 C292 1.409 . S
C292 C288 1.387 . S
C292 C291 1.409 . S
C292 H294 0.951 . S
C293 C288 1.491 . S
C293 C295 1.382 . S
C293 C297 1.404 . S
H294 C292 0.951 . S
C295 C293 1.382 . S
C295 C296 1.390 . S
C295 H300 0.949 . S
C296 C295 1.390 . S
C296 C301 1.399 . S
C297 C293 1.404 . S
C297 H298 0.950 . S
C297 C299 1.375 . S
H298 C297 0.950 . S
C299 C297 1.375 . S
C299 C301 1.382 . S
C299 H303 0.950 . S
H300 C295 0.949 . S
C301 C296 1.399 . S
C301 C299 1.382 . S
C301 H302 0.952 . S
H302 C301 0.952 . S
H303 C299 0.950 . S
Li304 N321 1.990 . S
Li304 O364 1.956 . S
Li304 O365 1.970 . S
Li304 O366 1.961 . S
Li305 N329 1.990 . S
Li305 O364 1.970 . S
Li305 O365 1.956 . S
Li305 O367 1.961 . S
Li306 N351 1.990 1_554 S
Li306 O364 1.961 . S
Li306 O366 1.956 . S
Li306 O367 1.970 . S
Li307 N357 1.990 . S
Li307 O365 1.961 . S
Li307 O366 1.970 . S
Li307 O367 1.956 . S
C308 C310 1.348 . S
C308 C311 1.356 . S
C308 O364 1.325 . S
N309 C312 1.314 . S
N309 C313 1.279 . S
C310 C308 1.348 . S
C310 C312 1.353 . S
C310 H368 0.929 . S
C311 C308 1.356 . S
C311 C313 1.358 . S
C311 H369 0.930 . S
C312 N309 1.314 . S
C312 C310 1.353 . S
C312 H370 0.930 . S
C313 N309 1.279 . S
C313 C311 1.358 . S
C313 H371 0.930 . S
C314 C317 1.348 . S
C314 C318 1.356 . S
C314 O365 1.325 . S
C315 N316 1.279 . S
C315 C318 1.358 . S
C315 H372 0.930 . S
N316 C315 1.279 . S
N316 C319 1.314 . S
C317 C314 1.348 . S
C317 C319 1.353 . S
C317 H373 0.929 . S
C318 C314 1.356 . S
C318 C315 1.358 . S
C318 H374 0.930 . S
C319 N316 1.314 . S
C319 C317 1.353 . S
C319 H375 0.930 . S
C320 N321 1.314 . S
C320 C325 1.353 . S
C320 H326 0.930 . S
N321 Li304 1.990 . S
N321 C320 1.314 . S
N321 C323 1.279 . S
C322 C323 1.358 . S
C322 C324 1.356 . S
C322 H376 0.930 . S
C323 N321 1.279 . S
C323 C322 1.358 . S
C323 H327 0.930 . S
C324 C322 1.356 . S
C324 C325 1.348 . S
C325 C320 1.353 . S
C325 C324 1.348 . S
C325 H377 0.929 . S
H326 C320 0.930 . S
H327 C323 0.930 . S
C328 N329 1.314 . S
C328 C330 1.353 . S
C328 H334 0.930 . S
N329 Li305 1.990 . S
N329 C328 1.314 . S
N329 C332 1.279 . S
C330 C328 1.353 . S
C330 C333 1.348 . S
C330 H378 0.929 . S
C331 C332 1.358 . S
C331 C333 1.356 . S
C331 H379 0.930 . S
C332 N329 1.279 . S
C332 C331 1.358 . S
C332 H335 0.930 . S
C333 C330 1.348 . S
C333 C331 1.356 . S
H334 C328 0.930 . S
H335 C332 0.930 . S
C336 C338 1.350 . S
C336 C339 1.356 1_554 S
C336 O366 1.325 . S
N337 C340 1.314 . S
N337 C341 1.279 . S
C338 C336 1.350 . S
C338 C340 1.344 1_554 S
C338 H380 0.936 . S
C339 C336 1.356 1_556 S
C339 C341 1.358 . S
C339 H381 0.930 . S
C340 N337 1.314 . S
C340 C338 1.344 1_556 S
C340 H382 0.930 . S
C341 N337 1.279 . S
C341 C339 1.358 . S
C341 H383 0.930 . S
C342 C343 1.348 . S
C342 C344 1.356 . S
C342 O367 1.325 . S
C343 C342 1.348 . S
C343 C345 1.353 . S
C343 H384 0.929 . S
C344 C342 1.356 . S
C344 C346 1.358 . S
C344 H385 0.930 . S
C345 C343 1.353 . S
C345 N347 1.314 . S
C345 H386 0.930 . S
C346 C344 1.358 . S
C346 N347 1.279 . S
C346 H387 0.930 . S
N347 C345 1.314 . S
N347 C346 1.279 . S
C348 C350 1.353 . S
C348 N351 1.314 . S
C348 H354 0.930 1_556 S
C349 N351 1.279 . S
C349 C352 1.358 . S
C349 H355 0.930 . S
C350 C348 1.353 . S
C350 C353 1.348 . S
C350 H388 0.929 . S
N351 Li306 1.990 1_556 S
N351 C348 1.314 . S
N351 C349 1.279 . S
C352 C349 1.358 . S
C352 C353 1.356 . S
C352 H389 0.930 . S
C353 C350 1.348 . S
C353 C352 1.356 . S
H354 C348 0.930 1_554 S
H355 C349 0.930 . S
C356 N357 1.314 . S
C356 C358 1.353 . S
C356 H362 0.930 . S
N357 Li307 1.990 . S
N357 C356 1.314 . S
N357 C360 1.279 . S
C358 C356 1.353 . S
C358 C361 1.348 . S
C358 H390 0.929 . S
C359 C360 1.358 . S
C359 C361 1.356 . S
C359 H391 0.930 . S
C360 N357 1.279 . S
C360 C359 1.358 . S
C360 H363 0.930 . S
C361 C358 1.348 . S
C361 C359 1.356 . S
H362 C356 0.930 . S
H363 C360 0.930 . S
O364 Li304 1.956 . S
O364 Li305 1.970 . S
O364 Li306 1.961 . S
O364 C308 1.325 . S
O365 Li304 1.970 . S
O365 Li305 1.956 . S
O365 Li307 1.961 . S
O365 C314 1.325 . S
O366 Li304 1.961 . S
O366 Li306 1.956 . S
O366 Li307 1.970 . S
O366 C336 1.325 . S
O367 Li305 1.961 . S
O367 Li306 1.970 . S
O367 Li307 1.956 . S
O367 C342 1.325 . S
H368 C310 0.929 . S
H369 C311 0.930 . S
H370 C312 0.930 . S
H371 C313 0.930 . S
H372 C315 0.930 . S
H373 C317 0.929 . S
H374 C318 0.930 . S
H375 C319 0.930 . S
H376 C322 0.930 . S
H377 C325 0.929 . S
H378 C330 0.929 . S
H379 C331 0.930 . S
H380 C338 0.936 . S
H381 C339 0.930 . S
H382 C340 0.930 . S
H383 C341 0.930 . S
H384 C343 0.929 . S
H385 C344 0.930 . S
H386 C345 0.930 . S
H387 C346 0.930 . S
H388 C350 0.929 . S
H389 C352 0.930 . S
H390 C358 0.929 . S
H391 C359 0.930 . S
Li392 N409 1.990 . S
Li392 O452 1.956 . S
Li392 O453 1.970 . S
Li392 O454 1.961 . S
Li393 N417 1.990 . S
Li393 O452 1.970 . S
Li393 O453 1.956 . S
Li393 O455 1.961 . S
Li394 N439 1.990 . S
Li394 O452 1.961 . S
Li394 O454 1.956 . S
Li394 O455 1.970 . S
Li395 N445 1.990 . S
Li395 O453 1.961 . S
Li395 O454 1.970 . S
Li395 O455 1.956 . S
C396 C398 1.348 . S
C396 C399 1.356 . S
C396 O452 1.325 . S
N397 C400 1.314 . S
N397 C401 1.279 . S
C398 C396 1.348 . S
C398 C400 1.353 . S
C398 H456 0.929 . S
C399 C396 1.356 . S
C399 C401 1.358 . S
C399 H457 0.930 . S
C400 N397 1.314 . S
C400 C398 1.353 . S
C400 H458 0.930 . S
C401 N397 1.279 . S
C401 C399 1.358 . S
C401 H459 0.930 . S
C402 C405 1.348 . S
C402 C406 1.356 . S
C402 O453 1.325 . S
C403 N404 1.279 . S
C403 C406 1.358 . S
C403 H460 0.930 . S
N404 C403 1.279 . S
N404 C407 1.314 . S
C405 C402 1.348 . S
C405 C407 1.353 . S
C405 H461 0.929 . S
C406 C402 1.356 . S
C406 C403 1.358 . S
C406 H462 0.930 . S
C407 N404 1.314 . S
C407 C405 1.353 . S
C407 H463 0.930 . S
C408 N409 1.314 . S
C408 C413 1.353 . S
C408 H414 0.930 . S
N409 Li392 1.990 . S
N409 C408 1.314 . S
N409 C411 1.279 . S
C410 C411 1.358 . S
C410 C412 1.356 . S
C410 H464 0.930 . S
C411 N409 1.279 . S
C411 C410 1.358 . S
C411 H415 0.930 . S
C412 C410 1.356 . S
C412 C413 1.348 . S
C413 C408 1.353 . S
C413 C412 1.348 . S
C413 H465 0.929 . S
H414 C408 0.930 . S
H415 C411 0.930 . S
C416 N417 1.314 . S
C416 C418 1.353 . S
C416 H422 0.930 . S
N417 Li393 1.990 . S
N417 C416 1.314 . S
N417 C420 1.279 . S
C418 C416 1.353 . S
C418 C421 1.348 . S
C418 H466 0.929 . S
C419 C420 1.358 . S
C419 C421 1.356 . S
C419 H467 0.930 . S
C420 N417 1.279 . S
C420 C419 1.358 . S
C420 H423 0.930 . S
C421 C418 1.348 . S
C421 C419 1.356 . S
H422 C416 0.930 . S
H423 C420 0.930 . S
C424 C426 1.348 . S
C424 C427 1.356 . S
C424 O454 1.325 . S
N425 C428 1.314 . S
N425 C429 1.279 . S
C426 C424 1.348 . S
C426 C428 1.353 . S
C426 H468 0.929 . S
C427 C424 1.356 . S
C427 C429 1.358 . S
C427 H469 0.930 . S
C428 N425 1.314 . S
C428 C426 1.353 . S
C428 H470 0.930 . S
C429 N425 1.279 . S
C429 C427 1.358 . S
C429 H471 0.930 . S
C430 C431 1.348 . S
C430 C432 1.356 . S
C430 O455 1.325 . S
C431 C430 1.348 . S
C431 C433 1.353 . S
C431 H472 0.929 . S
C432 C430 1.356 . S
C432 C434 1.358 . S
C432 H473 0.930 . S
C433 C431 1.353 . S
C433 N435 1.314 . S
C433 H474 0.930 . S
C434 C432 1.358 . S
C434 N435 1.279 . S
C434 H475 0.930 . S
N435 C433 1.314 . S
N435 C434 1.279 . S
C436 C438 1.353 . S
C436 N439 1.314 . S
C436 H442 0.930 . S
C437 N439 1.279 . S
C437 C440 1.358 . S
C437 H443 0.930 . S
C438 C436 1.353 . S
C438 C441 1.348 . S
C438 H476 0.929 . S
N439 Li394 1.990 . S
N439 C436 1.314 . S
N439 C437 1.279 . S
C440 C437 1.358 . S
C440 C441 1.356 . S
C440 H477 0.930 . S
C441 C438 1.348 . S
C441 C440 1.356 . S
H442 C436 0.930 . S
H443 C437 0.930 . S
C444 N445 1.314 . S
C444 C446 1.353 . S
C444 H450 0.930 . S
N445 Li395 1.990 . S
N445 C444 1.314 . S
N445 C448 1.279 . S
C446 C444 1.353 . S
C446 C449 1.348 . S
C446 H478 0.929 . S
C447 C448 1.358 . S
C447 C449 1.356 . S
C447 H479 0.930 . S
C448 N445 1.279 . S
C448 C447 1.358 . S
C448 H451 0.930 . S
C449 C446 1.348 . S
C449 C447 1.356 . S
H450 C444 0.930 . S
H451 C448 0.930 . S
O452 Li392 1.956 . S
O452 Li393 1.970 . S
O452 Li394 1.961 . S
O452 C396 1.325 . S
O453 Li392 1.970 . S
O453 Li393 1.956 . S
O453 Li395 1.961 . S
O453 C402 1.325 . S
O454 Li392 1.961 . S
O454 Li394 1.956 . S
O454 Li395 1.970 . S
O454 C424 1.325 . S
O455 Li393 1.961 . S
O455 Li394 1.970 . S
O455 Li395 1.956 . S
O455 C430 1.325 . S
H456 C398 0.929 . S
H457 C399 0.930 . S
H458 C400 0.930 . S
H459 C401 0.930 . S
H460 C403 0.930 . S
H461 C405 0.929 . S
H462 C406 0.930 . S
H463 C407 0.930 . S
H464 C410 0.930 . S
H465 C413 0.929 . S
H466 C418 0.929 . S
H467 C419 0.930 . S
H468 C426 0.929 . S
H469 C427 0.930 . S
H470 C428 0.930 . S
H471 C429 0.930 . S
H472 C431 0.929 . S
H473 C432 0.930 . S
H474 C433 0.930 . S
H475 C434 0.930 . S
H476 C438 0.929 . S
H477 C440 0.930 . S
H478 C446 0.929 . S
H479 C447 0.930 . S
Li480 N497 1.990 . S
Li480 O540 1.959 1_556 S
Li480 O541 1.970 1_556 S
Li480 O542 1.961 . S
Li481 N505 1.990 . S
Li481 O540 2.022 . S
Li481 O541 1.956 . S
Li481 O543 1.961 . S
Li482 N527 1.990 . S
Li482 O540 1.913 1_556 S
Li482 O542 1.956 . S
Li482 O543 1.970 1_556 S
Li483 N533 1.990 . S
Li483 O541 1.961 . S
Li483 O542 1.970 1_554 S
Li483 O543 1.956 . S
C484 C486 1.383 . S
C484 C487 1.320 1_554 S
C484 O540 1.323 . S
N485 C488 1.298 1_556 S
N485 C489 1.294 . S
C486 C484 1.383 . S
C486 C488 1.353 . S
C486 H544 0.929 . S
C487 C484 1.320 1_556 S
C487 C489 1.358 . S
C487 H545 0.930 . S
C488 N485 1.298 1_554 S
C488 C486 1.353 . S
C488 H546 0.930 . S
C489 N485 1.294 . S
C489 C487 1.358 . S
C489 H547 0.930 . S
C490 C493 1.348 . S
C490 C494 1.356 . S
C490 O541 1.325 . S
C491 N492 1.279 . S
C491 C494 1.358 . S
C491 H548 0.930 . S
N492 C491 1.279 . S
N492 C495 1.314 . S
C493 C490 1.348 . S
C493 C495 1.353 . S
C493 H549 0.929 . S
C494 C490 1.356 . S
C494 C491 1.358 . S
C494 H550 0.930 . S
C495 N492 1.314 . S
C495 C493 1.353 . S
C495 H551 0.930 . S
C496 N497 1.314 . S
C496 C501 1.353 . S
C496 H502 0.930 . S
N497 Li480 1.990 . S
N497 C496 1.314 . S
N497 C499 1.279 . S
C498 C499 1.358 . S
C498 C500 1.356 . S
C498 H552 0.930 . S
C499 N497 1.279 . S
C499 C498 1.358 . S
C499 H503 0.930 1_556 S
C500 C498 1.356 . S
C500 C501 1.348 . S
C501 C496 1.353 . S
C501 C500 1.348 . S
C501 H553 0.929 . S
H502 C496 0.930 . S
H503 C499 0.930 1_554 S
C504 N505 1.314 . S
C504 C506 1.353 . S
C504 H510 0.930 . S
N505 Li481 1.990 . S
N505 C504 1.314 . S
N505 C508 1.279 . S
C506 C504 1.353 . S
C506 C509 1.348 . S
C506 H554 0.929 . S
C507 C508 1.358 . S
C507 C509 1.356 . S
C507 H555 0.930 . S
C508 N505 1.279 . S
C508 C507 1.358 . S
C508 H511 0.930 . S
C509 C506 1.348 . S
C509 C507 1.356 . S
H510 C504 0.930 . S
H511 C508 0.930 . S
C512 C514 1.348 . S
C512 C515 1.356 . S
C512 O542 1.325 . S
N513 C516 1.314 . S
N513 C517 1.279 . S
C514 C512 1.348 . S
C514 C516 1.353 . S
C514 H556 0.929 . S
C515 C512 1.356 . S
C515 C517 1.358 . S
C515 H557 0.930 . S
C516 N513 1.314 . S
C516 C514 1.353 . S
C516 H558 0.930 . S
C517 N513 1.279 . S
C517 C515 1.358 . S
C517 H559 0.930 . S
C518 C519 1.348 1_554 S
C518 C520 1.356 . S
C518 O543 1.325 . S
C519 C518 1.348 1_556 S
C519 C521 1.353 . S
C519 H560 0.929 . S
C520 C518 1.356 . S
C520 C522 1.358 . S
C520 H561 0.930 . S
C521 C519 1.353 . S
C521 N523 1.314 1_556 S
C521 H562 0.930 . S
C522 C520 1.358 . S
C522 N523 1.279 . S
C522 H563 0.930 . S
N523 C521 1.314 1_554 S
N523 C522 1.279 . S
C524 C526 1.353 . S
C524 N527 1.314 . S
C524 H530 0.930 . S
C525 N527 1.279 . S
C525 C528 1.358 . S
C525 H531 0.930 . S
C526 C524 1.353 . S
C526 C529 1.348 . S
C526 H564 0.929 . S
N527 Li482 1.990 . S
N527 C524 1.314 . S
N527 C525 1.279 . S
C528 C525 1.358 . S
C528 C529 1.356 . S
C528 H565 0.930 . S
C529 C526 1.348 . S
C529 C528 1.356 . S
H530 C524 0.930 . S
H531 C525 0.930 . S
C532 N533 1.314 . S
C532 C534 1.353 . S
C532 H538 0.930 . S
N533 Li483 1.990 . S
N533 C532 1.314 . S
N533 C536 1.279 . S
C534 C532 1.353 . S
C534 C537 1.367 . S
C534 H566 0.929 . S
C535 C536 1.359 1_556 S
C535 C537 1.341 1_556 S
C535 H567 0.933 . S
C536 N533 1.279 . S
C536 C535 1.359 1_554 S
C536 H539 0.931 1_554 S
C537 C534 1.367 . S
C537 C535 1.341 1_554 S
H538 C532 0.930 . S
H539 C536 0.931 1_556 S
O540 Li480 1.959 1_554 S
O540 Li481 2.022 . S
O540 Li482 1.913 1_554 S
O540 C484 1.323 . S
O541 Li480 1.970 1_554 S
O541 Li481 1.956 . S
O541 Li483 1.961 . S
O541 C490 1.325 . S
O542 Li480 1.961 . S
O542 Li482 1.956 . S
O542 Li483 1.970 1_556 S
O542 C512 1.325 . S
O543 Li481 1.961 . S
O543 Li482 1.970 1_554 S
O543 Li483 1.956 . S
O543 C518 1.325 . S
H544 C486 0.929 . S
H545 C487 0.930 . S
H546 C488 0.930 . S
H547 C489 0.930 . S
H548 C491 0.930 . S
H549 C493 0.929 . S
H550 C494 0.930 . S
H551 C495 0.930 . S
H552 C498 0.930 . S
H553 C501 0.929 . S
H554 C506 0.929 . S
H555 C507 0.930 . S
H556 C514 0.929 . S
H557 C515 0.930 . S
H558 C516 0.930 . S
H559 C517 0.930 . S
H560 C519 0.929 . S
H561 C520 0.930 . S
H562 C521 0.930 . S
H563 C522 0.930 . S
H564 C526 0.929 . S
H565 C528 0.930 . S
H566 C534 0.929 . S
H567 C535 0.933 . S
Li568 N585 1.990 . S
Li568 O628 1.956 . S
Li568 O629 1.970 . S
Li568 O630 1.961 . S
Li569 N593 1.990 . S
Li569 O628 1.970 . S
Li569 O629 1.956 . S
Li569 O631 1.924 1_545 S
Li570 N615 1.990 . S
Li570 O628 1.961 . S
Li570 O630 1.956 . S
Li570 O631 1.907 1_545 S
Li571 N621 1.990 . S
Li571 O629 1.961 1_565 S
Li571 O630 1.970 1_565 S
Li571 O631 1.957 . S
C572 C574 1.348 . S
C572 C575 1.356 . S
C572 O628 1.325 . S
N573 C576 1.314 . S
N573 C577 1.279 . S
C574 C572 1.348 . S
C574 C576 1.353 . S
C574 H632 0.929 . S
C575 C572 1.356 . S
C575 C577 1.358 . S
C575 H633 0.930 . S
C576 N573 1.314 . S
C576 C574 1.353 . S
C576 H634 0.930 . S
C577 N573 1.279 . S
C577 C575 1.358 . S
C577 H635 0.930 . S
C578 C581 1.348 . S
C578 C582 1.356 1_545 S
C578 O629 1.325 . S
C579 N580 1.279 1_565 S
C579 C582 1.358 . S
C579 H636 0.930 . S
N580 C579 1.279 1_545 S
N580 C583 1.314 . S
C581 C578 1.348 . S
C581 C583 1.353 . S
C581 H637 0.929 . S
C582 C578 1.356 1_565 S
C582 C579 1.358 . S
C582 H638 0.930 . S
C583 N580 1.314 . S
C583 C581 1.353 . S
C583 H639 0.930 . S
C584 N585 1.314 . S
C584 C589 1.353 . S
C584 H590 0.930 . S
N585 Li568 1.990 . S
N585 C584 1.314 . S
N585 C587 1.279 . S
C586 C587 1.358 . S
C586 C588 1.356 . S
C586 H640 0.930 . S
C587 N585 1.279 . S
C587 C586 1.358 . S
C587 H591 0.930 . S
C588 C586 1.356 . S
C588 C589 1.348 . S
C589 C584 1.353 . S
C589 C588 1.348 . S
C589 H641 0.929 . S
H590 C584 0.930 . S
H591 C587 0.930 . S
C592 N593 1.314 . S
C592 C594 1.353 . S
C592 H598 0.930 . S
N593 Li569 1.990 . S
N593 C592 1.314 . S
N593 C596 1.279 . S
C594 C592 1.353 . S
C594 C597 1.348 . S
C594 H642 1.000 . S
C595 C596 1.358 . S
C595 C597 1.356 . S
C595 H643 0.930 . S
C596 N593 1.279 . S
C596 C595 1.358 . S
C596 H599 0.930 . S
C597 C594 1.348 . S
C597 C595 1.356 . S
H598 C592 0.930 . S
H599 C596 0.930 . S
C600 C602 1.348 . S
C600 C603 1.356 . S
C600 O630 1.325 . S
N601 C604 1.314 . S
N601 C605 1.279 . S
C602 C600 1.348 . S
C602 C604 1.353 . S
C602 H644 0.929 1_545 S
C603 C600 1.356 . S
C603 C605 1.358 . S
C603 H645 0.930 . S
C604 N601 1.314 . S
C604 C602 1.353 . S
C604 H646 0.930 1_545 S
C605 N601 1.279 . S
C605 C603 1.358 . S
C605 H647 0.930 . S
C606 C607 1.348 . S
C606 C608 1.356 . S
C606 O631 1.384 . S
C607 C606 1.348 . S
C607 C609 1.353 . S
C607 H648 0.929 . S
C608 C606 1.356 . S
C608 C610 1.358 . S
C608 H649 0.930 . S
C609 C607 1.353 . S
C609 N611 1.314 . S
C609 H650 0.930 . S
C610 C608 1.358 . S
C610 N611 1.279 . S
C610 H651 0.930 . S
N611 C609 1.314 . S
N611 C610 1.279 . S
C612 C614 1.353 . S
C612 N615 1.314 . S
C612 H618 0.930 . S
C613 N615 1.279 . S
C613 C616 1.358 . S
C613 H619 0.930 . S
C614 C612 1.353 . S
C614 C617 1.348 . S
C614 H652 0.929 . S
N615 Li570 1.990 . S
N615 C612 1.314 . S
N615 C613 1.279 . S
C616 C613 1.358 . S
C616 C617 1.356 . S
C616 H653 0.930 . S
C617 C614 1.348 . S
C617 C616 1.356 . S
H618 C612 0.930 . S
H619 C613 0.930 . S
C620 N621 1.314 . S
C620 C622 1.353 . S
C620 H626 0.930 . S
N621 Li571 1.990 . S
N621 C620 1.314 . S
N621 C624 1.279 . S
C622 C620 1.353 . S
C622 C625 1.348 . S
C622 H654 0.929 . S
C623 C624 1.358 . S
C623 C625 1.356 . S
C623 H655 0.930 . S
C624 N621 1.279 . S
C624 C623 1.358 . S
C624 H627 0.930 . S
C625 C622 1.348 . S
C625 C623 1.356 . S
H626 C620 0.930 . S
H627 C624 0.930 . S
O628 Li568 1.956 . S
O628 Li569 1.970 . S
O628 Li570 1.961 . S
O628 C572 1.325 . S
O629 Li568 1.970 . S
O629 Li569 1.956 . S
O629 Li571 1.961 1_545 S
O629 C578 1.325 . S
O630 Li568 1.961 . S
O630 Li570 1.956 . S
O630 Li571 1.970 1_545 S
O630 C600 1.325 . S
O631 Li569 1.924 1_565 S
O631 Li570 1.907 1_565 S
O631 Li571 1.957 . S
O631 C606 1.384 . S
H632 C574 0.929 . S
H633 C575 0.930 . S
H634 C576 0.930 . S
H635 C577 0.930 . S
H636 C579 0.930 . S
H637 C581 0.929 . S
H638 C582 0.930 . S
H639 C583 0.930 . S
H640 C586 0.930 . S
H641 C589 0.929 . S
H642 C594 1.000 . S
H643 C595 0.930 . S
H644 C602 0.929 1_565 S
H645 C603 0.930 . S
H646 C604 0.930 1_565 S
H647 C605 0.930 . S
H648 C607 0.929 . S
H649 C608 0.930 . S
H650 C609 0.930 . S
H651 C610 0.930 . S
H652 C614 0.929 . S
H653 C616 0.930 . S
H654 C622 0.929 . S
H655 C623 0.930 . S
Li656 N673 1.990 . S
Li656 O716 1.956 . S
Li656 O717 1.970 . S
Li656 O718 1.961 . S
Li657 N681 1.990 . S
Li657 O716 1.970 . S
Li657 O717 1.956 . S
Li657 O719 1.961 . S
Li658 N703 1.990 . S
Li658 O716 1.961 . S
Li658 O718 1.956 . S
Li658 O719 1.970 . S
Li659 N709 1.990 . S
Li659 O717 1.961 . S
Li659 O718 1.970 . S
Li659 O719 1.956 . S
C660 C662 1.348 . S
C660 C663 1.356 . S
C660 O716 1.325 . S
N661 C664 1.314 . S
N661 C665 1.279 . S
C662 C660 1.348 . S
C662 C664 1.353 . S
C662 H720 0.929 . S
C663 C660 1.356 . S
C663 C665 1.358 . S
C663 H721 0.930 . S
C664 N661 1.314 . S
C664 C662 1.353 . S
C664 H722 0.930 . S
C665 N661 1.279 . S
C665 C663 1.358 . S
C665 H723 0.930 . S
C666 C669 1.348 . S
C666 C670 1.356 . S
C666 O717 1.325 . S
C667 N668 1.279 . S
C667 C670 1.358 . S
C667 H724 0.930 . S
N668 C667 1.279 . S
N668 C671 1.314 . S
C669 C666 1.348 . S
C669 C671 1.353 . S
C669 H725 0.929 . S
C670 C666 1.356 . S
C670 C667 1.358 . S
C670 H726 0.930 . S
C671 N668 1.314 . S
C671 C669 1.353 . S
C671 H727 0.930 . S
C672 N673 1.314 . S
C672 C677 1.353 . S
C672 H678 0.930 . S
N673 Li656 1.990 . S
N673 C672 1.314 . S
N673 C675 1.279 . S
C674 C675 1.358 . S
C674 C676 1.356 . S
C674 H728 0.930 . S
C675 N673 1.279 . S
C675 C674 1.358 . S
C675 H679 0.930 . S
C676 C674 1.356 . S
C676 C677 1.348 . S
C677 C672 1.353 . S
C677 C676 1.348 . S
C677 H729 0.929 . S
H678 C672 0.930 . S
H679 C675 0.930 . S
C680 N681 1.314 . S
C680 C682 1.353 . S
C680 H686 0.930 . S
N681 Li657 1.990 . S
N681 C680 1.314 . S
N681 C684 1.279 . S
C682 C680 1.353 . S
C682 C685 1.348 . S
C682 H730 0.929 . S
C683 C684 1.358 . S
C683 C685 1.356 . S
C683 H731 0.930 . S
C684 N681 1.279 . S
C684 C683 1.358 . S
C684 H687 0.930 . S
C685 C682 1.348 . S
C685 C683 1.356 . S
H686 C680 0.930 . S
H687 C684 0.930 . S
C688 C690 1.348 . S
C688 C691 1.356 . S
C688 O718 1.325 . S
N689 C692 1.314 . S
N689 C693 1.279 . S
C690 C688 1.348 . S
C690 C692 1.353 . S
C690 H732 0.929 . S
C691 C688 1.356 . S
C691 C693 1.358 . S
C691 H733 0.930 . S
C692 N689 1.314 . S
C692 C690 1.353 . S
C692 H734 0.930 . S
C693 N689 1.279 . S
C693 C691 1.358 . S
C693 H735 0.930 . S
C694 C695 1.348 . S
C694 C696 1.356 . S
C694 O719 1.325 . S
C695 C694 1.348 . S
C695 C697 1.353 . S
C695 H736 0.929 . S
C696 C694 1.356 . S
C696 C698 1.358 . S
C696 H737 0.930 . S
C697 C695 1.353 . S
C697 N699 1.314 . S
C697 H738 0.930 . S
C698 C696 1.358 . S
C698 N699 1.279 . S
C698 H739 0.930 . S
N699 C697 1.314 . S
N699 C698 1.279 . S
C700 C702 1.353 . S
C700 N703 1.314 . S
C700 H706 0.930 . S
C701 N703 1.279 . S
C701 C704 1.358 . S
C701 H707 0.930 . S
C702 C700 1.353 . S
C702 C705 1.348 . S
C702 H740 0.929 . S
N703 Li658 1.990 . S
N703 C700 1.314 . S
N703 C701 1.279 . S
C704 C701 1.358 . S
C704 C705 1.356 . S
C704 H741 0.930 . S
C705 C702 1.348 . S
C705 C704 1.356 . S
H706 C700 0.930 . S
H707 C701 0.930 . S
C708 N709 1.314 . S
C708 C710 1.353 . S
C708 H714 0.930 . S
N709 Li659 1.990 . S
N709 C708 1.314 . S
N709 C712 1.279 . S
C710 C708 1.353 . S
C710 C713 1.348 . S
C710 H742 0.929 . S
C711 C712 1.358 . S
C711 C713 1.356 . S
C711 H743 0.930 . S
C712 N709 1.279 . S
C712 C711 1.358 . S
C712 H715 0.930 . S
C713 C710 1.348 . S
C713 C711 1.356 . S
H714 C708 0.930 . S
H715 C712 0.930 . S
O716 Li656 1.956 . S
O716 Li657 1.970 . S
O716 Li658 1.961 . S
O716 C660 1.325 . S
O717 Li656 1.970 . S
O717 Li657 1.956 . S
O717 Li659 1.961 . S
O717 C666 1.325 . S
O718 Li656 1.961 . S
O718 Li658 1.956 . S
O718 Li659 1.970 . S
O718 C688 1.325 . S
O719 Li657 1.961 . S
O719 Li658 1.970 . S
O719 Li659 1.956 . S
O719 C694 1.325 . S
H720 C662 0.929 . S
H721 C663 0.930 . S
H722 C664 0.930 . S
H723 C665 0.930 . S
H724 C667 0.930 . S
H725 C669 0.929 . S
H726 C670 0.930 . S
H727 C671 0.930 . S
H728 C674 0.930 . S
H729 C677 0.929 . S
H730 C682 0.929 . S
H731 C683 0.930 . S
H732 C690 0.929 . S
H733 C691 0.930 . S
H734 C692 0.930 . S
H735 C693 0.930 . S
H736 C695 0.929 . S
H737 C696 0.930 . S
H738 C697 0.930 . S
H739 C698 0.930 . S
H740 C702 0.929 . S
H741 C704 0.930 . S
H742 C710 0.929 . S
H743 C711 0.930 . S
Li744 N761 1.990 . S
Li744 O804 1.956 . S
Li744 O805 1.970 . S
Li744 O806 1.961 . S
Li745 N769 1.990 . S
Li745 O804 1.970 . S
Li745 O805 1.956 . S
Li745 O807 1.961 . S
Li746 N791 1.990 . S
Li746 O804 1.961 . S
Li746 O806 1.956 . S
Li746 O807 1.970 . S
Li747 N797 1.990 . S
Li747 O805 1.961 . S
Li747 O806 1.970 . S
Li747 O807 1.956 . S
C748 C750 1.348 . S
C748 C751 1.356 . S
C748 O804 1.325 . S
N749 C752 1.314 . S
N749 C753 1.279 . S
C750 C748 1.348 . S
C750 C752 1.353 . S
C750 H808 0.929 . S
C751 C748 1.356 . S
C751 C753 1.358 . S
C751 H809 0.930 . S
C752 N749 1.314 . S
C752 C750 1.353 . S
C752 H810 0.930 . S
C753 N749 1.279 . S
C753 C751 1.358 . S
C753 H811 0.930 . S
C754 C757 1.348 . S
C754 C758 1.356 . S
C754 O805 1.325 . S
C755 N756 1.279 . S
C755 C758 1.358 . S
C755 H812 0.930 . S
N756 C755 1.279 . S
N756 C759 1.314 . S
C757 C754 1.348 . S
C757 C759 1.353 . S
C757 H813 0.929 . S
C758 C754 1.356 . S
C758 C755 1.358 . S
C758 H814 0.930 . S
C759 N756 1.314 . S
C759 C757 1.353 . S
C759 H815 0.930 . S
C760 N761 1.314 . S
C760 C765 1.353 . S
C760 H766 0.930 . S
N761 Li744 1.990 . S
N761 C760 1.314 . S
N761 C763 1.279 . S
C762 C763 1.358 . S
C762 C764 1.356 . S
C762 H816 0.930 . S
C763 N761 1.279 . S
C763 C762 1.358 . S
C763 H767 0.930 . S
C764 C762 1.356 . S
C764 C765 1.348 . S
C765 C760 1.353 . S
C765 C764 1.348 . S
C765 H817 0.929 . S
H766 C760 0.930 . S
H767 C763 0.930 . S
C768 N769 1.314 . S
C768 C770 1.353 . S
C768 H774 0.930 . S
N769 Li745 1.990 . S
N769 C768 1.314 . S
N769 C772 1.279 . S
C770 C768 1.353 . S
C770 C773 1.348 . S
C770 H818 0.929 . S
C771 C772 1.358 . S
C771 C773 1.356 . S
C771 H819 0.930 . S
C772 N769 1.279 . S
C772 C771 1.358 . S
C772 H775 0.930 . S
C773 C770 1.348 . S
C773 C771 1.356 . S
H774 C768 0.930 . S
H775 C772 0.930 . S
C776 C778 1.348 . S
C776 C779 1.356 . S
C776 O806 1.325 . S
N777 C780 1.314 . S
N777 C781 1.279 . S
C778 C776 1.348 . S
C778 C780 1.353 . S
C778 H820 0.929 . S
C779 C776 1.356 . S
C779 C781 1.358 . S
C779 H821 0.930 . S
C780 N777 1.314 . S
C780 C778 1.353 . S
C780 H822 0.930 . S
C781 N777 1.279 . S
C781 C779 1.358 . S
C781 H823 0.930 . S
C782 C783 1.348 . S
C782 C784 1.356 . S
C782 O807 1.325 . S
C783 C782 1.348 . S
C783 C785 1.353 . S
C783 H824 0.929 . S
C784 C782 1.356 . S
C784 C786 1.358 . S
C784 H825 0.930 . S
C785 C783 1.353 . S
C785 N787 1.314 . S
C785 H826 0.930 . S
C786 C784 1.358 . S
C786 N787 1.279 . S
C786 H827 0.930 . S
N787 C785 1.314 . S
N787 C786 1.279 . S
C788 C790 1.353 . S
C788 N791 1.314 . S
C788 H794 0.930 . S
C789 N791 1.279 . S
C789 C792 1.358 . S
C789 H795 0.930 . S
C790 C788 1.353 . S
C790 C793 1.348 . S
C790 H828 0.929 . S
N791 Li746 1.990 . S
N791 C788 1.314 . S
N791 C789 1.279 . S
C792 C789 1.358 . S
C792 C793 1.356 . S
C792 H829 0.930 . S
C793 C790 1.348 . S
C793 C792 1.356 . S
H794 C788 0.930 . S
H795 C789 0.930 . S
C796 N797 1.314 . S
C796 C798 1.353 . S
C796 H802 0.930 . S
N797 Li747 1.990 . S
N797 C796 1.314 . S
N797 C800 1.279 . S
C798 C796 1.353 . S
C798 C801 1.348 . S
C798 H830 0.929 . S
C799 C800 1.358 . S
C799 C801 1.356 . S
C799 H831 0.930 . S
C800 N797 1.279 . S
C800 C799 1.358 . S
C800 H803 0.930 . S
C801 C798 1.348 . S
C801 C799 1.356 . S
H802 C796 0.930 . S
H803 C800 0.930 . S
O804 Li744 1.956 . S
O804 Li745 1.970 . S
O804 Li746 1.961 . S
O804 C748 1.325 . S
O805 Li744 1.970 . S
O805 Li745 1.956 . S
O805 Li747 1.961 . S
O805 C754 1.325 . S
O806 Li744 1.961 . S
O806 Li746 1.956 . S
O806 Li747 1.970 . S
O806 C776 1.325 . S
O807 Li745 1.961 . S
O807 Li746 1.970 . S
O807 Li747 1.956 . S
O807 C782 1.325 . S
H808 C750 0.929 . S
H809 C751 0.930 . S
H810 C752 0.930 . S
H811 C753 0.930 . S
H812 C755 0.930 . S
H813 C757 0.929 . S
H814 C758 0.930 . S
H815 C759 0.930 . S
H816 C762 0.930 . S
H817 C765 0.929 . S
H818 C770 0.929 . S
H819 C771 0.930 . S
H820 C778 0.929 . S
H821 C779 0.930 . S
H822 C780 0.930 . S
H823 C781 0.930 . S
H824 C783 0.929 . S
H825 C784 0.930 . S
H826 C785 0.930 . S
H827 C786 0.930 . S
H828 C790 0.929 . S
H829 C792 0.930 . S
H830 C798 0.929 . S
H831 C799 0.930 . S
Li832 N849 1.990 . S
Li832 O892 1.956 . S
Li832 O893 1.970 . S
Li832 O894 1.961 . S
Li833 N857 1.990 . S
Li833 O892 1.970 . S
Li833 O893 1.956 . S
Li833 O895 1.961 . S
Li834 N879 1.990 . S
Li834 O892 1.961 . S
Li834 O894 1.956 . S
Li834 O895 1.970 . S
Li835 N885 1.990 . S
Li835 O893 1.961 . S
Li835 O894 1.970 . S
Li835 O895 1.956 . S
C836 C838 1.348 . S
C836 C839 1.356 . S
C836 O892 1.325 . S
N837 C840 1.314 . S
N837 C841 1.279 . S
C838 C836 1.348 . S
C838 C840 1.353 . S
C838 H896 0.929 . S
C839 C836 1.356 . S
C839 C841 1.358 . S
C839 H897 0.930 . S
C840 N837 1.314 . S
C840 C838 1.353 . S
C840 H898 0.930 . S
C841 N837 1.279 . S
C841 C839 1.358 . S
C841 H899 0.930 . S
C842 C845 1.348 . S
C842 C846 1.356 . S
C842 O893 1.325 . S
C843 N844 1.279 . S
C843 C846 1.358 . S
C843 H900 0.930 . S
N844 C843 1.279 . S
N844 C847 1.314 . S
C845 C842 1.348 . S
C845 C847 1.353 . S
C845 H901 0.929 . S
C846 C842 1.356 . S
C846 C843 1.358 . S
C846 H902 0.930 . S
C847 N844 1.314 . S
C847 C845 1.353 . S
C847 H903 0.930 . S
C848 N849 1.314 . S
C848 C853 1.353 . S
C848 H854 0.930 . S
N849 Li832 1.990 . S
N849 C848 1.314 . S
N849 C851 1.279 . S
C850 C851 1.358 . S
C850 C852 1.356 . S
C850 H904 0.930 . S
C851 N849 1.279 . S
C851 C850 1.358 . S
C851 H855 0.930 . S
C852 C850 1.356 . S
C852 C853 1.348 . S
C853 C848 1.353 . S
C853 C852 1.348 . S
C853 H905 0.929 . S
H854 C848 0.930 . S
H855 C851 0.930 . S
C856 N857 1.314 . S
C856 C858 1.353 . S
C856 H862 0.930 . S
N857 Li833 1.990 . S
N857 C856 1.314 . S
N857 C860 1.279 . S
C858 C856 1.353 . S
C858 C861 1.348 . S
C858 H906 0.929 . S
C859 C860 1.358 . S
C859 C861 1.356 . S
C859 H907 0.930 . S
C860 N857 1.279 . S
C860 C859 1.358 . S
C860 H863 0.930 . S
C861 C858 1.348 . S
C861 C859 1.356 . S
H862 C856 0.930 . S
H863 C860 0.930 . S
C864 C866 1.348 . S
C864 C867 1.356 . S
C864 O894 1.325 . S
N865 C868 1.314 . S
N865 C869 1.279 . S
C866 C864 1.348 . S
C866 C868 1.353 . S
C866 H908 0.929 . S
C867 C864 1.356 . S
C867 C869 1.358 . S
C867 H909 0.930 . S
C868 N865 1.314 . S
C868 C866 1.353 . S
C868 H910 0.930 . S
C869 N865 1.279 . S
C869 C867 1.358 . S
C869 H911 0.930 . S
C870 C871 1.348 . S
C870 C872 1.356 . S
C870 O895 1.325 . S
C871 C870 1.348 . S
C871 C873 1.353 . S
C871 H912 0.929 . S
C872 C870 1.356 . S
C872 C874 1.358 . S
C872 H913 0.930 . S
C873 C871 1.353 . S
C873 N875 1.314 . S
C873 H914 0.930 . S
C874 C872 1.358 . S
C874 N875 1.279 . S
C874 H915 0.930 . S
N875 C873 1.314 . S
N875 C874 1.279 . S
C876 C878 1.353 . S
C876 N879 1.314 . S
C876 H882 0.930 . S
C877 N879 1.279 . S
C877 C880 1.358 . S
C877 H883 0.930 . S
C878 C876 1.353 . S
C878 C881 1.348 . S
C878 H916 0.929 . S
N879 Li834 1.990 . S
N879 C876 1.314 . S
N879 C877 1.279 . S
C880 C877 1.358 . S
C880 C881 1.356 . S
C880 H917 0.930 . S
C881 C878 1.348 . S
C881 C880 1.356 . S
H882 C876 0.930 . S
H883 C877 0.930 . S
C884 N885 1.314 . S
C884 C886 1.353 . S
C884 H890 0.930 . S
N885 Li835 1.990 . S
N885 C884 1.314 . S
N885 C888 1.279 . S
C886 C884 1.353 . S
C886 C889 1.348 . S
C886 H918 0.929 . S
C887 C888 1.358 . S
C887 C889 1.356 . S
C887 H919 0.930 . S
C888 N885 1.279 . S
C888 C887 1.358 . S
C888 H891 0.930 . S
C889 C886 1.348 . S
C889 C887 1.356 . S
H890 C884 0.930 . S
H891 C888 0.930 . S
O892 Li832 1.956 . S
O892 Li833 1.970 . S
O892 Li834 1.961 . S
O892 C836 1.325 . S
O893 Li832 1.970 . S
O893 Li833 1.956 . S
O893 Li835 1.961 . S
O893 C842 1.325 . S
O894 Li832 1.961 . S
O894 Li834 1.956 . S
O894 Li835 1.970 . S
O894 C864 1.325 . S
O895 Li833 1.961 . S
O895 Li834 1.970 . S
O895 Li835 1.956 . S
O895 C870 1.325 . S
H896 C838 0.929 . S
H897 C839 0.930 . S
H898 C840 0.930 . S
H899 C841 0.930 . S
H900 C843 0.930 . S
H901 C845 0.929 . S
H902 C846 0.930 . S
H903 C847 0.930 . S
H904 C850 0.930 . S
H905 C853 0.929 . S
H906 C858 0.929 . S
H907 C859 0.930 . S
H908 C866 0.929 . S
H909 C867 0.930 . S
H910 C868 0.930 . S
H911 C869 0.930 . S
H912 C871 0.929 . S
H913 C872 0.930 . S
H914 C873 0.930 . S
H915 C874 0.930 . S
H916 C878 0.929 . S
H917 C880 0.930 . S
H918 C886 0.929 . S
H919 C887 0.930 . S
Li920 N937 1.990 1_545 S
Li920 O980 1.956 . S
Li920 O981 1.970 . S
Li920 O982 1.961 . S
Li921 N945 1.990 . S
Li921 O980 1.970 . S
Li921 O981 1.956 . S
Li921 O983 1.961 . S
Li922 N967 1.990 . S
Li922 O980 1.961 . S
Li922 O982 1.956 . S
Li922 O983 1.970 . S
Li923 N973 1.990 . S
Li923 O981 1.961 . S
Li923 O982 1.970 . S
Li923 O983 1.956 . S
C924 C926 1.348 . S
C924 C927 1.356 . S
C924 O980 1.325 1_565 S
N925 C928 1.314 . S
N925 C929 1.279 . S
C926 C924 1.348 . S
C926 C928 1.353 . S
C926 H984 0.929 . S
C927 C924 1.356 . S
C927 C929 1.358 . S
C927 H985 0.930 . S
C928 N925 1.314 . S
C928 C926 1.353 . S
C928 H986 0.930 . S
C929 N925 1.279 . S
C929 C927 1.358 . S
C929 H987 0.930 . S
C930 C933 1.348 . S
C930 C934 1.356 . S
C930 O981 1.325 . S
C931 N932 1.279 . S
C931 C934 1.358 . S
C931 H988 0.930 . S
N932 C931 1.279 . S
N932 C935 1.314 . S
C933 C930 1.348 . S
C933 C935 1.353 . S
C933 H989 0.929 . S
C934 C930 1.356 . S
C934 C931 1.358 . S
C934 H990 0.930 . S
C935 N932 1.314 . S
C935 C933 1.353 . S
C935 H991 0.930 . S
C936 N937 1.314 . S
C936 C941 1.353 . S
C936 H942 0.930 . S
N937 Li920 1.990 1_565 S
N937 C936 1.314 . S
N937 C939 1.279 . S
C938 C939 1.358 . S
C938 C940 1.356 . S
C938 H992 0.930 . S
C939 N937 1.279 . S
C939 C938 1.358 . S
C939 H943 0.930 . S
C940 C938 1.356 . S
C940 C941 1.348 . S
C941 C936 1.353 . S
C941 C940 1.348 . S
C941 H993 0.929 . S
H942 C936 0.930 . S
H943 C939 0.930 . S
C944 N945 1.314 . S
C944 C946 1.353 . S
C944 H950 0.930 . S
N945 Li921 1.990 . S
N945 C944 1.314 . S
N945 C948 1.279 . S
C946 C944 1.353 . S
C946 C949 1.348 . S
C946 H994 0.929 . S
C947 C948 1.358 . S
C947 C949 1.356 . S
C947 H995 0.930 . S
C948 N945 1.279 . S
C948 C947 1.358 . S
C948 H951 0.930 . S
C949 C946 1.348 . S
C949 C947 1.356 . S
H950 C944 0.930 . S
H951 C948 0.930 . S
C952 C954 1.348 . S
C952 C955 1.356 . S
C952 O982 1.325 . S
N953 C956 1.314 . S
N953 C957 1.283 1_545 S
C954 C952 1.348 . S
C954 C956 1.353 . S
C954 H996 0.929 . S
C955 C952 1.356 . S
C955 C957 1.359 1_545 S
C955 H997 0.930 1_545 S
C956 N953 1.314 . S
C956 C954 1.353 . S
C956 H998 0.930 . S
C957 N953 1.283 1_565 S
C957 C955 1.359 1_565 S
C957 H999 0.925 . S
C958 C959 1.348 . S
C958 C960 1.356 . S
C958 O983 1.325 . S
C959 C958 1.348 . S
C959 C961 1.353 . S
C959 H1000 0.929 . S
C960 C958 1.356 . S
C960 C962 1.358 . S
C960 H1001 0.930 . S
C961 C959 1.353 . S
C961 N963 1.314 . S
C961 H1002 0.930 . S
C962 C960 1.358 . S
C962 N963 1.279 . S
C962 H1003 0.930 . S
N963 C961 1.314 . S
N963 C962 1.279 . S
C964 C966 1.353 . S
C964 N967 1.314 . S
C964 H970 0.930 . S
C965 N967 1.279 . S
C965 C968 1.358 . S
C965 H971 0.930 . S
C966 C964 1.353 . S
C966 C969 1.348 . S
C966 H1004 0.918 1_545 S
N967 Li922 1.990 . S
N967 C964 1.314 . S
N967 C965 1.279 . S
C968 C965 1.358 . S
C968 C969 1.356 . S
C968 H1005 0.930 . S
C969 C966 1.348 . S
C969 C968 1.356 . S
H970 C964 0.930 . S
H971 C965 0.930 . S
C972 N973 1.314 . S
C972 C974 1.353 . S
C972 H978 0.930 . S
N973 Li923 1.990 . S
N973 C972 1.314 . S
N973 C976 1.279 . S
C974 C972 1.353 . S
C974 C977 1.348 . S
C974 H1006 0.929 . S
C975 C976 1.358 . S
C975 C977 1.356 . S
C975 H1007 0.930 . S
C976 N973 1.279 . S
C976 C975 1.358 . S
C976 H979 0.930 . S
C977 C974 1.348 . S
C977 C975 1.356 . S
H978 C972 0.930 . S
H979 C976 0.930 . S
O980 Li920 1.956 . S
O980 Li921 1.970 . S
O980 Li922 1.961 . S
O980 C924 1.325 1_545 S
O981 Li920 1.970 . S
O981 Li921 1.956 . S
O981 Li923 1.961 . S
O981 C930 1.325 . S
O982 Li920 1.961 . S
O982 Li922 1.956 . S
O982 Li923 1.970 . S
O982 C952 1.325 . S
O983 Li921 1.961 . S
O983 Li922 1.970 . S
O983 Li923 1.956 . S
O983 C958 1.325 . S
H984 C926 0.929 . S
H985 C927 0.930 . S
H986 C928 0.930 . S
H987 C929 0.930 . S
H988 C931 0.930 . S
H989 C933 0.929 . S
H990 C934 0.930 . S
H991 C935 0.930 . S
H992 C938 0.930 . S
H993 C941 0.929 . S
H994 C946 0.929 . S
H995 C947 0.930 . S
H996 C954 0.929 . S
H997 C955 0.930 1_565 S
H998 C956 0.930 . S
H999 C957 0.925 . S
H1000 C959 0.929 . S
H1001 C960 0.930 . S
H1002 C961 0.930 . S
H1003 C962 0.930 . S
H1004 C966 0.918 1_565 S
H1005 C968 0.930 . S
H1006 C974 0.929 . S
H1007 C975 0.930 . S
Li1008 N1025 1.990 . S
Li1008 O1068 1.956 . S
Li1008 O1069 1.970 . S
Li1008 O1070 1.961 . S
Li1009 N1033 1.990 . S
Li1009 O1068 1.970 . S
Li1009 O1069 1.956 . S
Li1009 O1071 1.961 1_455 S
Li1010 N1055 1.990 . S
Li1010 O1068 1.961 . S
Li1010 O1070 1.956 . S
Li1010 O1071 1.970 1_455 S
Li1011 N1061 1.990 . S
Li1011 O1069 1.961 1_655 S
Li1011 O1070 1.970 1_655 S
Li1011 O1071 1.956 . S
C1012 C1014 1.348 . S
C1012 C1015 1.356 . S
C1012 O1068 1.325 . S
N1013 C1016 1.314 . S
N1013 C1017 1.279 . S
C1014 C1012 1.348 . S
C1014 C1016 1.353 . S
C1014 H1072 0.929 . S
C1015 C1012 1.356 . S
C1015 C1017 1.358 . S
C1015 H1073 0.930 . S
C1016 N1013 1.314 . S
C1016 C1014 1.353 . S
C1016 H1074 0.930 . S
C1017 N1013 1.279 . S
C1017 C1015 1.358 . S
C1017 H1075 0.930 . S
C1018 C1021 1.348 . S
C1018 C1022 1.356 1_455 S
C1018 O1069 1.325 . S
C1019 N1020 1.279 1_655 S
C1019 C1022 1.358 . S
C1019 H1076 0.930 . S
N1020 C1019 1.279 1_455 S
N1020 C1023 1.314 . S
C1021 C1018 1.348 . S
C1021 C1023 1.353 . S
C1021 H1077 0.929 . S
C1022 C1018 1.356 1_655 S
C1022 C1019 1.358 . S
C1022 H1078 0.930 . S
C1023 N1020 1.314 . S
C1023 C1021 1.353 . S
C1023 H1079 0.930 . S
C1024 N1025 1.314 . S
C1024 C1029 1.353 . S
C1024 H1030 0.930 . S
N1025 Li1008 1.990 . S
N1025 C1024 1.314 . S
N1025 C1027 1.279 . S
C1026 C1027 1.358 . S
C1026 C1028 1.356 . S
C1026 H1080 0.930 . S
C1027 N1025 1.279 . S
C1027 C1026 1.358 . S
C1027 H1031 0.930 . S
C1028 C1026 1.356 . S
C1028 C1029 1.348 . S
C1029 C1024 1.353 . S
C1029 C1028 1.348 . S
C1029 H1081 0.929 . S
H1030 C1024 0.930 . S
H1031 C1027 0.930 . S
C1032 N1033 1.314 1_655 S
C1032 C1034 1.353 . S
C1032 H1038 0.930 . S
N1033 Li1009 1.990 . S
N1033 C1032 1.314 1_455 S
N1033 C1036 1.279 . S
C1034 C1032 1.353 . S
C1034 C1037 1.348 1_655 S
C1034 H1082 0.929 . S
C1035 C1036 1.358 . S
C1035 C1037 1.356 . S
C1035 H1083 0.930 . S
C1036 N1033 1.279 . S
C1036 C1035 1.358 . S
C1036 H1039 0.930 . S
C1037 C1034 1.348 1_455 S
C1037 C1035 1.356 . S
H1038 C1032 0.930 . S
H1039 C1036 0.930 . S
C1040 C1042 1.348 1_455 S
C1040 C1043 1.356 . S
C1040 O1070 1.325 . S
N1041 C1044 1.314 1_455 S
N1041 C1045 1.279 . S
C1042 C1040 1.348 1_655 S
C1042 C1044 1.353 . S
C1042 H1084 0.929 . S
C1043 C1040 1.356 . S
C1043 C1045 1.358 . S
C1043 H1085 0.930 . S
C1044 N1041 1.314 1_655 S
C1044 C1042 1.353 . S
C1044 H1086 0.930 . S
C1045 N1041 1.279 . S
C1045 C1043 1.358 . S
C1045 H1087 0.930 . S
C1046 C1047 1.348 . S
C1046 C1048 1.356 . S
C1046 O1071 1.325 . S
C1047 C1046 1.348 . S
C1047 C1049 1.353 . S
C1047 H1088 0.929 . S
C1048 C1046 1.356 . S
C1048 C1050 1.358 . S
C1048 H1089 0.930 . S
C1049 C1047 1.353 . S
C1049 N1051 1.314 . S
C1049 H1090 0.930 . S
C1050 C1048 1.358 . S
C1050 N1051 1.279 . S
C1050 H1091 0.930 . S
N1051 C1049 1.314 . S
N1051 C1050 1.279 . S
C1052 C1054 1.353 . S
C1052 N1055 1.314 . S
C1052 H1058 0.930 . S
C1053 N1055 1.279 . S
C1053 C1056 1.358 . S
C1053 H1059 0.930 . S
C1054 C1052 1.353 . S
C1054 C1057 1.348 . S
C1054 H1092 0.929 . S
N1055 Li1010 1.990 . S
N1055 C1052 1.314 . S
N1055 C1053 1.279 . S
C1056 C1053 1.358 . S
C1056 C1057 1.356 . S
C1056 H1093 0.930 . S
C1057 C1054 1.348 . S
C1057 C1056 1.356 . S
H1058 C1052 0.930 . S
H1059 C1053 0.930 . S
C1060 N1061 1.314 . S
C1060 C1062 1.353 . S
C1060 H1066 0.930 . S
N1061 Li1011 1.990 . S
N1061 C1060 1.314 . S
N1061 C1064 1.279 . S
C1062 C1060 1.353 . S
C1062 C1065 1.348 . S
C1062 H1094 0.929 . S
C1063 C1064 1.358 . S
C1063 C1065 1.356 . S
C1063 H1095 0.930 . S
C1064 N1061 1.279 . S
C1064 C1063 1.358 . S
C1064 H1067 0.930 . S
C1065 C1062 1.348 . S
C1065 C1063 1.356 . S
H1066 C1060 0.930 . S
H1067 C1064 0.930 . S
O1068 Li1008 1.956 . S
O1068 Li1009 1.970 . S
O1068 Li1010 1.961 . S
O1068 C1012 1.325 . S
O1069 Li1008 1.970 . S
O1069 Li1009 1.956 . S
O1069 Li1011 1.961 1_455 S
O1069 C1018 1.325 . S
O1070 Li1008 1.961 . S
O1070 Li1010 1.956 . S
O1070 Li1011 1.970 1_455 S
O1070 C1040 1.325 . S
O1071 Li1009 1.961 1_655 S
O1071 Li1010 1.970 1_655 S
O1071 Li1011 1.956 . S
O1071 C1046 1.325 . S
H1072 C1014 0.929 . S
H1073 C1015 0.930 . S
H1074 C1016 0.930 . S
H1075 C1017 0.930 . S
H1076 C1019 0.930 . S
H1077 C1021 0.929 . S
H1078 C1022 0.930 . S
H1079 C1023 0.930 . S
H1080 C1026 0.930 . S
H1081 C1029 0.929 . S
H1082 C1034 0.929 . S
H1083 C1035 0.930 . S
H1084 C1042 0.929 . S
H1085 C1043 0.930 . S
H1086 C1044 0.930 . S
H1087 C1045 0.930 . S
H1088 C1047 0.929 . S
H1089 C1048 0.930 . S
H1090 C1049 0.930 . S
H1091 C1050 0.930 . S
H1092 C1054 0.929 . S
H1093 C1056 0.930 . S
H1094 C1062 0.929 . S
H1095 C1063 0.930 . S
Li1096 N1113 1.990 . S
Li1096 O1156 1.956 . S
Li1096 O1157 1.970 . S
Li1096 O1158 1.961 . S
Li1097 N1121 1.990 . S
Li1097 O1156 1.970 . S
Li1097 O1157 1.956 . S
Li1097 O1159 1.961 . S
Li1098 N1143 1.990 . S
Li1098 O1156 1.961 . S
Li1098 O1158 1.956 . S
Li1098 O1159 1.970 . S
Li1099 N1149 1.990 . S
Li1099 O1157 1.961 . S
Li1099 O1158 1.970 . S
Li1099 O1159 1.956 . S
C1100 C1102 1.348 . S
C1100 C1103 1.356 . S
C1100 O1156 1.325 . S
N1101 C1104 1.314 . S
N1101 C1105 1.279 . S
C1102 C1100 1.348 . S
C1102 C1104 1.353 . S
C1102 H1160 0.929 . S
C1103 C1100 1.356 . S
C1103 C1105 1.358 . S
C1103 H1161 0.930 . S
C1104 N1101 1.314 . S
C1104 C1102 1.353 . S
C1104 H1162 0.930 . S
C1105 N1101 1.279 . S
C1105 C1103 1.358 . S
C1105 H1163 0.930 . S
C1106 C1109 1.348 . S
C1106 C1110 1.356 . S
C1106 O1157 1.325 . S
C1107 N1108 1.279 . S
C1107 C1110 1.358 . S
C1107 H1164 0.930 . S
N1108 C1107 1.279 . S
N1108 C1111 1.314 . S
C1109 C1106 1.348 . S
C1109 C1111 1.353 . S
C1109 H1165 0.929 . S
C1110 C1106 1.356 . S
C1110 C1107 1.358 . S
C1110 H1166 0.930 . S
C1111 N1108 1.314 . S
C1111 C1109 1.353 . S
C1111 H1167 0.930 . S
C1112 N1113 1.314 . S
C1112 C1117 1.353 . S
C1112 H1118 0.930 . S
N1113 Li1096 1.990 . S
N1113 C1112 1.314 . S
N1113 C1115 1.279 . S
C1114 C1115 1.358 . S
C1114 C1116 1.356 . S
C1114 H1168 0.930 . S
C1115 N1113 1.279 . S
C1115 C1114 1.358 . S
C1115 H1119 0.930 . S
C1116 C1114 1.356 . S
C1116 C1117 1.348 . S
C1117 C1112 1.353 . S
C1117 C1116 1.348 . S
C1117 H1169 0.929 . S
H1118 C1112 0.930 . S
H1119 C1115 0.930 . S
C1120 N1121 1.314 . S
C1120 C1122 1.353 . S
C1120 H1126 0.930 . S
N1121 Li1097 1.990 . S
N1121 C1120 1.314 . S
N1121 C1124 1.279 . S
C1122 C1120 1.353 . S
C1122 C1125 1.348 . S
C1122 H1170 0.929 . S
C1123 C1124 1.358 . S
C1123 C1125 1.356 . S
C1123 H1171 0.930 . S
C1124 N1121 1.279 . S
C1124 C1123 1.358 . S
C1124 H1127 0.930 . S
C1125 C1122 1.348 . S
C1125 C1123 1.356 . S
H1126 C1120 0.930 . S
H1127 C1124 0.930 . S
C1128 C1130 1.348 . S
C1128 C1131 1.356 . S
C1128 O1158 1.325 . S
N1129 C1132 1.314 . S
N1129 C1133 1.279 . S
C1130 C1128 1.348 . S
C1130 C1132 1.353 . S
C1130 H1172 0.929 . S
C1131 C1128 1.356 . S
C1131 C1133 1.358 . S
C1131 H1173 0.930 . S
C1132 N1129 1.314 . S
C1132 C1130 1.353 . S
C1132 H1174 0.930 . S
C1133 N1129 1.279 . S
C1133 C1131 1.358 . S
C1133 H1175 0.930 . S
C1134 C1135 1.348 . S
C1134 C1136 1.356 . S
C1134 O1159 1.325 . S
C1135 C1134 1.348 . S
C1135 C1137 1.353 . S
C1135 H1176 0.929 . S
C1136 C1134 1.356 . S
C1136 C1138 1.358 . S
C1136 H1177 0.930 . S
C1137 C1135 1.353 . S
C1137 N1139 1.314 . S
C1137 H1178 0.930 . S
C1138 C1136 1.358 . S
C1138 N1139 1.279 . S
C1138 H1179 0.930 . S
N1139 C1137 1.314 . S
N1139 C1138 1.279 . S
C1140 C1142 1.353 . S
C1140 N1143 1.314 . S
C1140 H1146 0.930 . S
C1141 N1143 1.279 . S
C1141 C1144 1.358 . S
C1141 H1147 0.930 . S
C1142 C1140 1.353 . S
C1142 C1145 1.348 . S
C1142 H1180 0.929 . S
N1143 Li1098 1.990 . S
N1143 C1140 1.314 . S
N1143 C1141 1.279 . S
C1144 C1141 1.358 . S
C1144 C1145 1.356 . S
C1144 H1181 0.930 . S
C1145 C1142 1.348 . S
C1145 C1144 1.356 . S
H1146 C1140 0.930 . S
H1147 C1141 0.930 . S
C1148 N1149 1.314 . S
C1148 C1150 1.353 . S
C1148 H1154 0.930 . S
N1149 Li1099 1.990 . S
N1149 C1148 1.314 . S
N1149 C1152 1.279 . S
C1150 C1148 1.353 . S
C1150 C1153 1.348 . S
C1150 H1182 0.929 . S
C1151 C1152 1.358 . S
C1151 C1153 1.356 . S
C1151 H1183 0.930 . S
C1152 N1149 1.279 . S
C1152 C1151 1.358 . S
C1152 H1155 0.930 . S
C1153 C1150 1.348 . S
C1153 C1151 1.356 . S
H1154 C1148 0.930 . S
H1155 C1152 0.930 . S
O1156 Li1096 1.956 . S
O1156 Li1097 1.970 . S
O1156 Li1098 1.961 . S
O1156 C1100 1.325 . S
O1157 Li1096 1.970 . S
O1157 Li1097 1.956 . S
O1157 Li1099 1.961 . S
O1157 C1106 1.325 . S
O1158 Li1096 1.961 . S
O1158 Li1098 1.956 . S
O1158 Li1099 1.970 . S
O1158 C1128 1.325 . S
O1159 Li1097 1.961 . S
O1159 Li1098 1.970 . S
O1159 Li1099 1.956 . S
O1159 C1134 1.325 . S
H1160 C1102 0.929 . S
H1161 C1103 0.930 . S
H1162 C1104 0.930 . S
H1163 C1105 0.930 . S
H1164 C1107 0.930 . S
H1165 C1109 0.929 . S
H1166 C1110 0.930 . S
H1167 C1111 0.930 . S
H1168 C1114 0.930 . S
H1169 C1117 0.929 . S
H1170 C1122 0.929 . S
H1171 C1123 0.930 . S
H1172 C1130 0.929 . S
H1173 C1131 0.930 . S
H1174 C1132 0.930 . S
H1175 C1133 0.930 . S
H1176 C1135 0.929 . S
H1177 C1136 0.930 . S
H1178 C1137 0.930 . S
H1179 C1138 0.930 . S
H1180 C1142 0.929 . S
H1181 C1144 0.930 . S
H1182 C1150 0.929 . S
H1183 C1151 0.930 . S
Li1184 N1201 1.990 . S
Li1184 O1244 1.956 . S
Li1184 O1245 1.970 1_455 S
Li1184 O1246 1.961 . S
Li1185 N1209 1.990 . S
Li1185 O1244 1.970 1_655 S
Li1185 O1245 1.956 . S
Li1185 O1247 1.961 . S
Li1186 N1231 1.990 . S
Li1186 O1244 1.961 . S
Li1186 O1246 1.956 . S
Li1186 O1247 1.970 1_455 S
Li1187 N1237 1.990 . S
Li1187 O1245 1.961 . S
Li1187 O1246 1.970 1_655 S
Li1187 O1247 1.956 . S
C1188 C1190 1.348 1_455 S
C1188 C1191 1.356 . S
C1188 O1244 1.325 . S
N1189 C1192 1.315 1_455 S
N1189 C1193 1.279 . S
C1190 C1188 1.348 1_655 S
C1190 C1192 1.353 . S
C1190 H1248 0.929 . S
C1191 C1188 1.356 . S
C1191 C1193 1.358 . S
C1191 H1249 0.930 . S
C1192 N1189 1.315 1_655 S
C1192 C1190 1.353 . S
C1192 H1250 0.929 . S
C1193 N1189 1.279 . S
C1193 C1191 1.358 . S
C1193 H1251 0.930 . S
C1194 C1197 1.348 . S
C1194 C1198 1.356 . S
C1194 O1245 1.325 . S
C1195 N1196 1.279 . S
C1195 C1198 1.358 . S
C1195 H1252 0.930 . S
N1196 C1195 1.279 . S
N1196 C1199 1.314 . S
C1197 C1194 1.348 . S
C1197 C1199 1.353 . S
C1197 H1253 0.929 . S
C1198 C1194 1.356 . S
C1198 C1195 1.358 . S
C1198 H1254 0.930 . S
C1199 N1196 1.314 . S
C1199 C1197 1.353 . S
C1199 H1255 0.930 . S
C1200 N1201 1.314 . S
C1200 C1205 1.353 . S
C1200 H1206 0.930 . S
N1201 Li1184 1.990 . S
N1201 C1200 1.314 . S
N1201 C1203 1.279 . S
C1202 C1203 1.358 . S
C1202 C1204 1.356 . S
C1202 H1256 0.930 . S
C1203 N1201 1.279 . S
C1203 C1202 1.358 . S
C1203 H1207 0.930 . S
C1204 C1202 1.356 . S
C1204 C1205 1.348 . S
C1205 C1200 1.353 . S
C1205 C1204 1.348 . S
C1205 H1257 0.929 . S
H1206 C1200 0.930 . S
H1207 C1203 0.930 . S
C1208 N1209 1.314 . S
C1208 C1210 1.353 . S
C1208 H1214 0.930 . S
N1209 Li1185 1.990 . S
N1209 C1208 1.314 . S
N1209 C1212 1.279 . S
C1210 C1208 1.353 . S
C1210 C1213 1.348 . S
C1210 H1258 0.929 . S
C1211 C1212 1.358 . S
C1211 C1213 1.356 . S
C1211 H1259 0.930 . S
C1212 N1209 1.279 . S
C1212 C1211 1.358 . S
C1212 H1215 0.930 . S
C1213 C1210 1.348 . S
C1213 C1211 1.356 . S
H1214 C1208 0.930 . S
H1215 C1212 0.930 . S
C1216 C1218 1.348 . S
C1216 C1219 1.356 . S
C1216 O1246 1.325 . S
N1217 C1220 1.314 . S
N1217 C1221 1.279 . S
C1218 C1216 1.348 . S
C1218 C1220 1.353 . S
C1218 H1260 0.929 . S
C1219 C1216 1.356 . S
C1219 C1221 1.358 . S
C1219 H1261 0.930 . S
C1220 N1217 1.314 . S
C1220 C1218 1.353 . S
C1220 H1262 0.930 . S
C1221 N1217 1.279 . S
C1221 C1219 1.358 . S
C1221 H1263 0.930 . S
C1222 C1223 1.348 1_655 S
C1222 C1224 1.356 . S
C1222 O1247 1.325 . S
C1223 C1222 1.348 1_455 S
C1223 C1225 1.353 1_455 S
C1223 H1264 0.929 . S
C1224 C1222 1.356 . S
C1224 C1226 1.358 . S
C1224 H1265 0.930 . S
C1225 C1223 1.353 1_655 S
C1225 N1227 1.314 . S
C1225 H1266 0.930 1_655 S
C1226 C1224 1.358 . S
C1226 N1227 1.279 . S
C1226 H1267 0.930 . S
N1227 C1225 1.314 . S
N1227 C1226 1.279 . S
C1228 C1230 1.353 . S
C1228 N1231 1.314 . S
C1228 H1234 0.930 . S
C1229 N1231 1.279 . S
C1229 C1232 1.358 . S
C1229 H1235 0.930 . S
C1230 C1228 1.353 . S
C1230 C1233 1.348 . S
C1230 H1268 0.929 . S
N1231 Li1186 1.990 . S
N1231 C1228 1.314 . S
N1231 C1229 1.279 . S
C1232 C1229 1.358 . S
C1232 C1233 1.356 . S
C1232 H1269 0.930 . S
C1233 C1230 1.348 . S
C1233 C1232 1.356 . S
H1234 C1228 0.930 . S
H1235 C1229 0.930 . S
C1236 N1237 1.314 . S
C1236 C1238 1.353 . S
C1236 H1242 0.930 . S
N1237 Li1187 1.990 . S
N1237 C1236 1.314 . S
N1237 C1240 1.279 . S
C1238 C1236 1.353 . S
C1238 C1241 1.348 . S
C1238 H1270 0.929 . S
C1239 C1240 1.358 . S
C1239 C1241 1.356 . S
C1239 H1271 0.930 . S
C1240 N1237 1.279 . S
C1240 C1239 1.358 . S
C1240 H1243 0.930 . S
C1241 C1238 1.348 . S
C1241 C1239 1.356 . S
H1242 C1236 0.930 . S
H1243 C1240 0.930 . S
O1244 Li1184 1.956 . S
O1244 Li1185 1.970 1_455 S
O1244 Li1186 1.961 . S
O1244 C1188 1.325 . S
O1245 Li1184 1.970 1_655 S
O1245 Li1185 1.956 . S
O1245 Li1187 1.961 . S
O1245 C1194 1.325 . S
O1246 Li1184 1.961 . S
O1246 Li1186 1.956 . S
O1246 Li1187 1.970 1_455 S
O1246 C1216 1.325 . S
O1247 Li1185 1.961 . S
O1247 Li1186 1.970 1_655 S
O1247 Li1187 1.956 . S
O1247 C1222 1.325 . S
H1248 C1190 0.929 . S
H1249 C1191 0.930 . S
H1250 C1192 0.929 . S
H1251 C1193 0.930 . S
H1252 C1195 0.930 . S
H1253 C1197 0.929 . S
H1254 C1198 0.930 . S
H1255 C1199 0.930 . S
H1256 C1202 0.930 . S
H1257 C1205 0.929 . S
H1258 C1210 0.929 . S
H1259 C1211 0.930 . S
H1260 C1218 0.929 . S
H1261 C1219 0.930 . S
H1262 C1220 0.930 . S
H1263 C1221 0.930 . S
H1264 C1223 0.929 . S
H1265 C1224 0.930 . S
H1266 C1225 0.930 1_455 S
H1267 C1226 0.930 . S
H1268 C1230 0.929 . S
H1269 C1232 0.930 . S
H1270 C1238 0.929 . S
H1271 C1239 0.930 . S
Li1272 N1289 1.990 . S
Li1272 O1332 1.956 . S
Li1272 O1333 1.970 . S
Li1272 O1334 1.961 . S
Li1273 N1297 1.990 . S
Li1273 O1332 1.970 . S
Li1273 O1333 1.956 . S
Li1273 O1335 1.961 . S
Li1274 N1319 1.990 . S
Li1274 O1332 1.961 . S
Li1274 O1334 1.956 . S
Li1274 O1335 1.970 . S
Li1275 N1325 1.990 . S
Li1275 O1333 1.961 . S
Li1275 O1334 1.970 . S
Li1275 O1335 1.956 . S
C1276 C1278 1.348 . S
C1276 C1279 1.356 . S
C1276 O1332 1.325 . S
N1277 C1280 1.314 . S
N1277 C1281 1.279 . S
C1278 C1276 1.348 . S
C1278 C1280 1.353 . S
C1278 H1336 0.929 . S
C1279 C1276 1.356 . S
C1279 C1281 1.358 . S
C1279 H1337 0.930 . S
C1280 N1277 1.314 . S
C1280 C1278 1.353 . S
C1280 H1338 0.930 . S
C1281 N1277 1.279 . S
C1281 C1279 1.358 . S
C1281 H1339 0.930 . S
C1282 C1285 1.348 . S
C1282 C1286 1.356 . S
C1282 O1333 1.325 . S
C1283 N1284 1.279 . S
C1283 C1286 1.358 . S
C1283 H1340 0.930 . S
N1284 C1283 1.279 . S
N1284 C1287 1.314 . S
C1285 C1282 1.348 . S
C1285 C1287 1.353 . S
C1285 H1341 0.929 . S
C1286 C1282 1.356 . S
C1286 C1283 1.358 . S
C1286 H1342 0.930 . S
C1287 N1284 1.314 . S
C1287 C1285 1.353 . S
C1287 H1343 0.930 . S
C1288 N1289 1.314 . S
C1288 C1293 1.353 . S
C1288 H1294 0.930 . S
N1289 Li1272 1.990 . S
N1289 C1288 1.314 . S
N1289 C1291 1.279 . S
C1290 C1291 1.358 . S
C1290 C1292 1.356 . S
C1290 H1344 0.930 . S
C1291 N1289 1.279 . S
C1291 C1290 1.358 . S
C1291 H1295 0.930 . S
C1292 C1290 1.356 . S
C1292 C1293 1.348 . S
C1293 C1288 1.353 . S
C1293 C1292 1.348 . S
C1293 H1345 0.929 . S
H1294 C1288 0.930 . S
H1295 C1291 0.930 . S
C1296 N1297 1.314 . S
C1296 C1298 1.353 . S
C1296 H1302 0.930 . S
N1297 Li1273 1.990 . S
N1297 C1296 1.314 . S
N1297 C1300 1.279 . S
C1298 C1296 1.353 . S
C1298 C1301 1.348 . S
C1298 H1346 0.929 . S
C1299 C1300 1.358 . S
C1299 C1301 1.356 . S
C1299 H1347 0.930 . S
C1300 N1297 1.279 . S
C1300 C1299 1.358 . S
C1300 H1303 0.930 . S
C1301 C1298 1.348 . S
C1301 C1299 1.356 . S
H1302 C1296 0.930 . S
H1303 C1300 0.930 . S
C1304 C1306 1.348 . S
C1304 C1307 1.356 . S
C1304 O1334 1.325 . S
N1305 C1308 1.314 . S
N1305 C1309 1.279 . S
C1306 C1304 1.348 . S
C1306 C1308 1.353 . S
C1306 H1348 0.929 . S
C1307 C1304 1.356 . S
C1307 C1309 1.358 . S
C1307 H1349 0.930 . S
C1308 N1305 1.314 . S
C1308 C1306 1.353 . S
C1308 H1350 0.930 . S
C1309 N1305 1.279 . S
C1309 C1307 1.358 . S
C1309 H1351 0.930 . S
C1310 C1311 1.348 . S
C1310 C1312 1.356 . S
C1310 O1335 1.325 . S
C1311 C1310 1.348 . S
C1311 C1313 1.353 . S
C1311 H1352 0.929 . S
C1312 C1310 1.356 . S
C1312 C1314 1.358 . S
C1312 H1353 0.930 . S
C1313 C1311 1.353 . S
C1313 N1315 1.314 . S
C1313 H1354 0.930 . S
C1314 C1312 1.358 . S
C1314 N1315 1.279 . S
C1314 H1355 0.930 . S
N1315 C1313 1.314 . S
N1315 C1314 1.279 . S
C1316 C1318 1.353 . S
C1316 N1319 1.314 . S
C1316 H1322 0.930 . S
C1317 N1319 1.279 . S
C1317 C1320 1.358 . S
C1317 H1323 0.930 . S
C1318 C1316 1.353 . S
C1318 C1321 1.348 . S
C1318 H1356 0.929 . S
N1319 Li1274 1.990 . S
N1319 C1316 1.314 . S
N1319 C1317 1.279 . S
C1320 C1317 1.358 . S
C1320 C1321 1.356 . S
C1320 H1357 0.930 . S
C1321 C1318 1.348 . S
C1321 C1320 1.356 . S
H1322 C1316 0.930 . S
H1323 C1317 0.930 . S
C1324 N1325 1.314 . S
C1324 C1326 1.353 . S
C1324 H1330 0.930 . S
N1325 Li1275 1.990 . S
N1325 C1324 1.314 . S
N1325 C1328 1.279 . S
C1326 C1324 1.353 . S
C1326 C1329 1.348 . S
C1326 H1358 0.929 . S
C1327 C1328 1.358 . S
C1327 C1329 1.356 . S
C1327 H1359 0.930 . S
C1328 N1325 1.279 . S
C1328 C1327 1.358 . S
C1328 H1331 0.930 . S
C1329 C1326 1.348 . S
C1329 C1327 1.356 . S
H1330 C1324 0.930 . S
H1331 C1328 0.930 . S
O1332 Li1272 1.956 . S
O1332 Li1273 1.970 . S
O1332 Li1274 1.961 . S
O1332 C1276 1.325 . S
O1333 Li1272 1.970 . S
O1333 Li1273 1.956 . S
O1333 Li1275 1.961 . S
O1333 C1282 1.325 . S
O1334 Li1272 1.961 . S
O1334 Li1274 1.956 . S
O1334 Li1275 1.970 . S
O1334 C1304 1.325 . S
O1335 Li1273 1.961 . S
O1335 Li1274 1.970 . S
O1335 Li1275 1.956 . S
O1335 C1310 1.325 . S
H1336 C1278 0.929 . S
H1337 C1279 0.930 . S
H1338 C1280 0.930 . S
H1339 C1281 0.930 . S
H1340 C1283 0.930 . S
H1341 C1285 0.929 . S
H1342 C1286 0.930 . S
H1343 C1287 0.930 . S
H1344 C1290 0.930 . S
H1345 C1293 0.929 . S
H1346 C1298 0.929 . S
H1347 C1299 0.930 . S
H1348 C1306 0.929 . S
H1349 C1307 0.930 . S
H1350 C1308 0.930 . S
H1351 C1309 0.930 . S
H1352 C1311 0.929 . S
H1353 C1312 0.930 . S
H1354 C1313 0.930 . S
H1355 C1314 0.930 . S
H1356 C1318 0.929 . S
H1357 C1320 0.930 . S
H1358 C1326 0.929 . S
H1359 C1327 0.930 . S
H1360 C1368 0.929 . S
H1361 C1370 0.930 . S
H1362 C1372 0.930 . S
H1363 C1375 0.929 . S
H1364 C1378 0.930 . S
H1365 C1380 0.960 . S
H1366 C1380 0.960 . S
H1367 C1380 0.960 . S
C1368 H1360 0.929 . S
C1368 C1369 1.377 . S
C1368 C1370 1.384 . S
C1369 C1368 1.377 . S
C1369 C1375 1.390 . S
C1370 H1361 0.930 . S
C1370 C1368 1.384 . S
C1370 C1371 1.372 . S
C1371 C1370 1.372 . S
C1371 C1372 1.400 . S
C1371 C1376 1.490 . S
C1372 H1362 0.930 . S
C1372 C1371 1.400 . S
C1372 C1375 1.386 . S
H1373 C1389 0.930 . S
H1374 C1390 0.931 . S
C1375 H1363 0.929 . S
C1375 C1369 1.390 . S
C1375 C1372 1.386 . S
C1376 C1371 1.490 . S
C1376 C1378 1.395 . S
C1376 C1379 1.403 . S
H1377 C1383 0.930 . S
C1378 H1364 0.930 . S
C1378 C1376 1.395 . S
C1378 C1381 1.403 . S
C1379 C1376 1.403 . S
C1379 C1380 1.524 . S
C1379 C1383 1.400 . S
C1380 H1365 0.960 . S
C1380 H1366 0.960 . S
C1380 H1367 0.960 . S
C1380 C1379 1.524 . S
C1381 C1378 1.403 . S
C1381 C1382 1.392 . S
C1381 C1385 1.495 . S
C1382 C1381 1.392 . S
C1382 C1383 1.385 . S
C1382 C1384 1.478 . S
C1383 H1377 0.930 . S
C1383 C1379 1.400 . S
C1383 C1382 1.385 . S
C1384 C1382 1.478 . S
C1384 C1386 1.381 . S
C1384 C1390 1.383 . S
C1385 C1381 1.495 . S
C1385 H1391 0.959 . S
C1385 H1392 0.961 . S
C1385 H1393 0.960 . S
C1386 C1384 1.381 . S
C1386 C1387 1.394 . S
C1386 H1394 0.930 . S
C1387 C1386 1.394 . S
C1387 C1388 1.383 . S
C1387 H1395 0.929 . S
C1388 C1387 1.383 . S
C1388 C1389 1.377 . S
C1389 H1373 0.930 . S
C1389 C1388 1.377 . S
C1389 C1390 1.379 . S
C1390 H1374 0.931 . S
C1390 C1384 1.383 . S
C1390 C1389 1.379 . S
H1391 C1385 0.959 . S
H1392 C1385 0.961 . S
H1393 C1385 0.960 . S
H1394 C1386 0.930 . S
H1395 C1387 0.929 . S
H1396 C1404 0.929 1_655 S
H1397 C1406 0.930 . S
H1398 C1408 0.930 . S
H1399 C1411 0.929 . S
H1400 C1414 0.930 . S
H1401 C1416 0.960 . S
H1402 C1416 0.960 . S
H1403 C1416 0.960 . S
C1404 H1396 0.929 1_455 S
C1404 C1405 1.377 . S
C1404 C1406 1.384 . S
C1405 C1404 1.377 . S
C1405 C1411 1.390 . S
C1406 H1397 0.930 . S
C1406 C1404 1.384 . S
C1406 C1407 1.372 . S
C1407 C1406 1.372 . S
C1407 C1408 1.400 . S
C1407 C1412 1.490 . S
C1408 H1398 0.930 . S
C1408 C1407 1.400 . S
C1408 C1411 1.386 . S
H1409 C1425 0.930 . S
H1410 C1426 0.931 . S
C1411 H1399 0.929 . S
C1411 C1405 1.390 . S
C1411 C1408 1.386 . S
C1412 C1407 1.490 . S
C1412 C1414 1.395 . S
C1412 C1415 1.403 . S
H1413 C1419 0.930 . S
C1414 H1400 0.930 . S
C1414 C1412 1.395 . S
C1414 C1417 1.403 . S
C1415 C1412 1.403 . S
C1415 C1416 1.524 . S
C1415 C1419 1.400 . S
C1416 H1401 0.960 . S
C1416 H1402 0.960 . S
C1416 H1403 0.960 . S
C1416 C1415 1.524 . S
C1417 C1414 1.403 . S
C1417 C1418 1.392 . S
C1417 C1421 1.495 . S
C1418 C1417 1.392 . S
C1418 C1419 1.385 . S
C1418 C1420 1.478 . S
C1419 H1413 0.930 . S
C1419 C1415 1.400 . S
C1419 C1418 1.385 . S
C1420 C1418 1.478 . S
C1420 C1422 1.381 . S
C1420 C1426 1.383 . S
C1421 C1417 1.495 . S
C1421 H1427 0.959 . S
C1421 H1428 0.961 . S
C1421 H1429 0.960 . S
C1422 C1420 1.381 . S
C1422 C1423 1.394 . S
C1422 H1430 0.930 . S
C1423 C1422 1.394 . S
C1423 C1424 1.383 . S
C1423 H1431 0.929 . S
C1424 C1423 1.383 . S
C1424 C1425 1.377 . S
C1425 H1409 0.930 . S
C1425 C1424 1.377 . S
C1425 C1426 1.379 . S
C1426 H1410 0.931 . S
C1426 C1420 1.383 . S
C1426 C1425 1.379 . S
H1427 C1421 0.959 . S
H1428 C1421 0.961 . S
H1429 C1421 0.960 . S
H1430 C1422 0.930 . S
H1431 C1423 0.929 . S
H1432 C1440 0.929 . S
H1433 C1442 0.930 . S
H1434 C1444 0.930 . S
H1435 C1447 0.929 . S
H1436 C1450 0.930 . S
H1437 C1452 0.960 . S
H1438 C1452 0.960 . S
H1439 C1452 0.960 . S
C1440 H1432 0.929 . S
C1440 C1441 1.377 . S
C1440 C1442 1.384 . S
C1441 C1440 1.377 . S
C1441 C1447 1.390 . S
C1442 H1433 0.930 . S
C1442 C1440 1.384 . S
C1442 C1443 1.372 . S
C1443 C1442 1.372 . S
C1443 C1444 1.400 . S
C1443 C1448 1.490 . S
C1444 H1434 0.930 . S
C1444 C1443 1.400 . S
C1444 C1447 1.386 . S
H1445 C1461 0.930 . S
H1446 C1462 0.931 . S
C1447 H1435 0.929 . S
C1447 C1441 1.390 . S
C1447 C1444 1.386 . S
C1448 C1443 1.490 . S
C1448 C1450 1.395 . S
C1448 C1451 1.403 . S
H1449 C1455 0.930 . S
C1450 H1436 0.930 . S
C1450 C1448 1.395 . S
C1450 C1453 1.403 . S
C1451 C1448 1.403 . S
C1451 C1452 1.524 . S
C1451 C1455 1.400 . S
C1452 H1437 0.960 . S
C1452 H1438 0.960 . S
C1452 H1439 0.960 . S
C1452 C1451 1.524 . S
C1453 C1450 1.403 . S
C1453 C1454 1.392 . S
C1453 C1457 1.495 . S
C1454 C1453 1.392 . S
C1454 C1455 1.385 . S
C1454 C1456 1.478 . S
C1455 H1449 0.930 . S
C1455 C1451 1.400 . S
C1455 C1454 1.385 . S
C1456 C1454 1.478 . S
C1456 C1458 1.381 . S
C1456 C1462 1.383 . S
C1457 C1453 1.495 . S
C1457 H1463 0.959 . S
C1457 H1464 0.961 . S
C1457 H1465 0.960 . S
C1458 C1456 1.381 . S
C1458 C1459 1.394 . S
C1458 H1466 0.930 . S
C1459 C1458 1.394 . S
C1459 C1460 1.383 . S
C1459 H1467 0.929 . S
C1460 C1459 1.383 . S
C1460 C1461 1.377 . S
C1461 H1445 0.930 . S
C1461 C1460 1.377 . S
C1461 C1462 1.379 . S
C1462 H1446 0.931 . S
C1462 C1456 1.383 . S
C1462 C1461 1.379 . S
H1463 C1457 0.959 . S
H1464 C1457 0.961 . S
H1465 C1457 0.960 . S
H1466 C1458 0.930 . S
H1467 C1459 0.929 . S
H1468 C1476 0.929 . S
H1469 C1478 0.930 1_545 S
H1470 C1480 0.930 . S
H1471 C1483 0.929 . S
H1472 C1486 0.930 . S
H1473 C1488 0.961 1_655 S
H1474 C1488 0.960 . S
H1475 C1488 0.960 1_565 S
C1476 H1468 0.929 . S
C1476 C1477 1.377 . S
C1476 C1478 1.384 . S
C1477 C1476 1.377 . S
C1477 C1483 1.390 . S
C1478 H1469 0.930 1_565 S
C1478 C1476 1.384 . S
C1478 C1479 1.372 . S
C1479 C1478 1.372 . S
C1479 C1480 1.400 . S
C1479 C1484 1.490 . S
C1480 H1470 0.930 . S
C1480 C1479 1.400 . S
C1480 C1483 1.386 . S
H1481 C1497 0.930 . S
H1482 C1498 0.931 . S
C1483 H1471 0.929 . S
C1483 C1477 1.390 . S
C1483 C1480 1.386 . S
C1484 C1479 1.490 . S
C1484 C1486 1.395 . S
C1484 C1487 1.403 . S
H1485 C1491 0.950 . S
C1486 H1472 0.930 . S
C1486 C1484 1.395 . S
C1486 C1489 1.403 . S
C1487 C1484 1.403 . S
C1487 C1488 1.524 1_565 S
C1487 C1491 1.387 1_565 S
C1488 H1473 0.961 1_455 S
C1488 H1474 0.960 . S
C1488 H1475 0.960 1_545 S
C1488 C1487 1.524 1_545 S
C1489 C1486 1.403 . S
C1489 C1490 1.392 . S
C1489 C1493 1.495 . S
C1490 C1489 1.392 . S
C1490 C1491 1.381 1_565 S
C1490 C1492 1.453 1_565 S
C1491 H1485 0.950 . S
C1491 C1487 1.387 1_545 S
C1491 C1490 1.381 1_545 S
C1492 C1490 1.453 1_545 S
C1492 C1494 1.438 . S
C1492 C1498 1.358 1_445 S
C1493 C1489 1.495 . S
C1493 H1499 0.959 . S
C1493 H1500 0.961 . S
C1493 H1501 0.960 . S
C1494 C1492 1.438 . S
C1494 C1495 1.394 . S
C1494 H1502 0.930 . S
C1495 C1494 1.394 . S
C1495 C1496 1.383 1_455 S
C1495 H1503 0.929 . S
C1496 C1495 1.383 1_655 S
C1496 C1497 1.377 1_545 S
C1497 H1481 0.930 . S
C1497 C1496 1.377 1_565 S
C1497 C1498 1.379 . S
C1498 H1482 0.931 . S
C1498 C1492 1.358 1_665 S
C1498 C1497 1.379 . S
H1499 C1493 0.959 . S
H1500 C1493 0.961 . S
H1501 C1493 0.960 . S
H1502 C1494 0.930 . S
H1503 C1495 0.929 . S
H1504 C1512 0.929 . S
H1505 C1514 0.930 . S
H1506 C1516 0.930 . S
H1507 C1519 0.929 . S
H1508 C1522 0.930 . S
H1509 C1524 0.960 . S
H1510 C1524 0.960 . S
H1511 C1524 0.960 . S
C1512 H1504 0.929 . S
C1512 C1513 1.377 . S
C1512 C1514 1.384 . S
C1513 C1512 1.377 . S
C1513 C1519 1.390 . S
C1514 H1505 0.930 . S
C1514 C1512 1.384 . S
C1514 C1515 1.372 . S
C1515 C1514 1.372 . S
C1515 C1516 1.400 . S
C1515 C1520 1.490 . S
C1516 H1506 0.930 . S
C1516 C1515 1.400 . S
C1516 C1519 1.386 . S
H1517 C1533 0.930 . S
H1518 C1534 0.931 . S
C1519 H1507 0.929 . S
C1519 C1513 1.390 . S
C1519 C1516 1.386 . S
C1520 C1515 1.490 . S
C1520 C1522 1.395 . S
C1520 C1523 1.403 . S
H1521 C1527 0.930 . S
C1522 H1508 0.930 . S
C1522 C1520 1.395 . S
C1522 C1525 1.403 . S
C1523 C1520 1.403 . S
C1523 C1524 1.524 . S
C1523 C1527 1.400 . S
C1524 H1509 0.960 . S
C1524 H1510 0.960 . S
C1524 H1511 0.960 . S
C1524 C1523 1.524 . S
C1525 C1522 1.403 . S
C1525 C1526 1.392 . S
C1525 C1529 1.495 . S
C1526 C1525 1.392 . S
C1526 C1527 1.385 . S
C1526 C1528 1.478 . S
C1527 H1521 0.930 . S
C1527 C1523 1.400 . S
C1527 C1526 1.385 . S
C1528 C1526 1.478 . S
C1528 C1530 1.381 . S
C1528 C1534 1.383 . S
C1529 C1525 1.495 . S
C1529 H1535 0.959 . S
C1529 H1536 0.961 . S
C1529 H1537 0.960 . S
C1530 C1528 1.381 . S
C1530 C1531 1.394 . S
C1530 H1538 0.930 . S
C1531 C1530 1.394 . S
C1531 C1532 1.383 . S
C1531 H1539 0.929 . S
C1532 C1531 1.383 . S
C1532 C1533 1.377 . S
C1533 H1517 0.930 . S
C1533 C1532 1.377 . S
C1533 C1534 1.379 . S
C1534 H1518 0.931 . S
C1534 C1528 1.383 . S
C1534 C1533 1.379 . S
H1535 C1529 0.959 . S
H1536 C1529 0.961 . S
H1537 C1529 0.960 . S
H1538 C1530 0.930 . S
H1539 C1531 0.929 . S
H1540 C1548 0.929 . S
H1541 C1550 0.930 . S
H1542 C1552 0.930 . S
H1543 C1555 0.929 . S
H1544 C1558 0.930 . S
H1545 C1560 0.960 . S
H1546 C1560 0.960 . S
H1547 C1560 0.960 . S
C1548 H1540 0.929 . S
C1548 C1549 1.377 . S
C1548 C1550 1.384 . S
C1549 C1548 1.377 . S
C1549 C1555 1.390 . S
C1550 H1541 0.930 . S
C1550 C1548 1.384 . S
C1550 C1551 1.372 . S
C1551 C1550 1.372 . S
C1551 C1552 1.400 . S
C1551 C1556 1.490 . S
C1552 H1542 0.930 . S
C1552 C1551 1.400 . S
C1552 C1555 1.386 . S
H1553 C1569 0.930 . S
H1554 C1570 0.931 . S
C1555 H1543 0.929 . S
C1555 C1549 1.390 . S
C1555 C1552 1.386 . S
C1556 C1551 1.490 . S
C1556 C1558 1.395 . S
C1556 C1559 1.403 . S
H1557 C1563 0.930 . S
C1558 H1544 0.930 . S
C1558 C1556 1.395 . S
C1558 C1561 1.403 . S
C1559 C1556 1.403 . S
C1559 C1560 1.524 . S
C1559 C1563 1.400 . S
C1560 H1545 0.960 . S
C1560 H1546 0.960 . S
C1560 H1547 0.960 . S
C1560 C1559 1.524 . S
C1561 C1558 1.403 . S
C1561 C1562 1.392 . S
C1561 C1565 1.495 . S
C1562 C1561 1.392 . S
C1562 C1563 1.385 . S
C1562 C1564 1.478 . S
C1563 H1557 0.930 . S
C1563 C1559 1.400 . S
C1563 C1562 1.385 . S
C1564 C1562 1.478 . S
C1564 C1566 1.381 . S
C1564 C1570 1.383 . S
C1565 C1561 1.495 . S
C1565 H1571 0.959 . S
C1565 H1572 0.961 . S
C1565 H1573 0.960 . S
C1566 C1564 1.381 . S
C1566 C1567 1.394 . S
C1566 H1574 0.930 . S
C1567 C1566 1.394 . S
C1567 C1568 1.383 . S
C1567 H1575 0.929 . S
C1568 C1567 1.383 . S
C1568 C1569 1.377 . S
C1569 H1553 0.930 . S
C1569 C1568 1.377 . S
C1569 C1570 1.379 . S
C1570 H1554 0.931 . S
C1570 C1564 1.383 . S
C1570 C1569 1.379 . S
H1571 C1565 0.959 . S
H1572 C1565 0.961 . S
H1573 C1565 0.960 . S
H1574 C1566 0.930 . S
H1575 C1567 0.929 . S
H1576 C1584 0.929 . S
H1577 C1586 0.930 . S
H1578 C1588 0.930 . S
H1579 C1591 0.929 . S
H1580 C1594 0.930 . S
H1581 C1596 0.960 . S
H1582 C1596 0.960 . S
H1583 C1596 0.960 . S
C1584 H1576 0.929 . S
C1584 C1585 1.377 . S
C1584 C1586 1.384 . S
C1585 C1584 1.377 . S
C1585 C1591 1.390 . S
C1586 H1577 0.930 . S
C1586 C1584 1.384 . S
C1586 C1587 1.372 . S
C1587 C1586 1.372 . S
C1587 C1588 1.400 . S
C1587 C1592 1.490 . S
C1588 H1578 0.930 . S
C1588 C1587 1.400 . S
C1588 C1591 1.386 . S
H1589 C1605 0.930 . S
H1590 C1606 0.931 . S
C1591 H1579 0.929 . S
C1591 C1585 1.390 . S
C1591 C1588 1.386 . S
C1592 C1587 1.490 . S
C1592 C1594 1.395 . S
C1592 C1595 1.403 . S
H1593 C1599 0.930 . S
C1594 H1580 0.930 . S
C1594 C1592 1.395 . S
C1594 C1597 1.403 . S
C1595 C1592 1.403 . S
C1595 C1596 1.524 . S
C1595 C1599 1.400 . S
C1596 H1581 0.960 . S
C1596 H1582 0.960 . S
C1596 H1583 0.960 . S
C1596 C1595 1.524 . S
C1597 C1594 1.403 . S
C1597 C1598 1.392 . S
C1597 C1601 1.495 . S
C1598 C1597 1.392 . S
C1598 C1599 1.385 . S
C1598 C1600 1.478 . S
C1599 H1593 0.930 . S
C1599 C1595 1.400 . S
C1599 C1598 1.385 . S
C1600 C1598 1.478 . S
C1600 C1602 1.381 . S
C1600 C1606 1.383 . S
C1601 C1597 1.495 . S
C1601 H1607 0.959 . S
C1601 H1608 0.961 . S
C1601 H1609 0.960 . S
C1602 C1600 1.381 . S
C1602 C1603 1.394 . S
C1602 H1610 0.930 . S
C1603 C1602 1.394 . S
C1603 C1604 1.383 . S
C1603 H1611 0.929 . S
C1604 C1603 1.383 . S
C1604 C1605 1.377 . S
C1605 H1589 0.930 . S
C1605 C1604 1.377 . S
C1605 C1606 1.379 . S
C1606 H1590 0.931 . S
C1606 C1600 1.383 . S
C1606 C1605 1.379 . S
H1607 C1601 0.959 . S
H1608 C1601 0.961 . S
H1609 C1601 0.960 . S
H1610 C1602 0.930 . S
H1611 C1603 0.929 . S
H1612 C1620 0.929 1_545 S
H1613 C1622 0.893 1_545 S
H1614 C1624 0.930 . S
H1615 C1627 0.929 . S
H1616 C1630 0.943 . S
H1617 C1632 0.960 . S
H1618 C1632 0.960 . S
H1619 C1632 0.960 . S
C1620 H1612 0.929 1_565 S
C1620 C1621 1.377 . S
C1620 C1622 1.385 . S
C1621 C1620 1.377 . S
C1621 C1627 1.390 . S
C1622 H1613 0.893 1_565 S
C1622 C1620 1.385 . S
C1622 C1623 1.409 . S
C1623 C1622 1.409 . S
C1623 C1624 1.400 . S
C1623 C1628 1.490 . S
C1624 H1614 0.930 . S
C1624 C1623 1.400 . S
C1624 C1627 1.386 . S
H1625 C1641 0.930 . S
H1626 C1642 0.931 . S
C1627 H1615 0.929 . S
C1627 C1621 1.390 . S
C1627 C1624 1.386 . S
C1628 C1623 1.490 . S
C1628 C1630 1.382 1_565 S
C1628 C1631 1.403 . S
H1629 C1635 0.930 . S
C1630 H1616 0.943 . S
C1630 C1628 1.382 1_545 S
C1630 C1633 1.404 . S
C1631 C1628 1.403 . S
C1631 C1632 1.524 . S
C1631 C1635 1.400 . S
C1632 H1617 0.960 . S
C1632 H1618 0.960 . S
C1632 H1619 0.960 . S
C1632 C1631 1.524 . S
C1633 C1630 1.404 . S
C1633 C1634 1.392 1_545 S
C1633 C1637 1.495 . S
C1634 C1633 1.392 1_565 S
C1634 C1635 1.385 . S
C1634 C1636 1.478 . S
C1635 H1629 0.930 . S
C1635 C1631 1.400 . S
C1635 C1634 1.385 . S
C1636 C1634 1.478 . S
C1636 C1638 1.381 1_565 S
C1636 C1642 1.383 . S
C1637 C1633 1.495 . S
C1637 H1643 0.959 . S
C1637 H1644 0.961 . S
C1637 H1645 0.960 . S
C1638 C1636 1.381 1_545 S
C1638 C1639 1.394 . S
C1638 H1646 0.930 . S
C1639 C1638 1.394 . S
C1639 C1640 1.383 . S
C1639 H1647 0.929 . S
C1640 C1639 1.383 . S
C1640 C1641 1.377 1_545 S
C1641 H1625 0.930 . S
C1641 C1640 1.377 1_565 S
C1641 C1642 1.379 . S
C1642 H1626 0.931 . S
C1642 C1636 1.383 . S
C1642 C1641 1.379 . S
H1643 C1637 0.959 . S
H1644 C1637 0.961 . S
H1645 C1637 0.960 . S
H1646 C1638 0.930 . S
H1647 C1639 0.929 . S
H1648 C1656 0.929 . S
H1649 C1658 0.930 . S
H1650 C1660 0.930 . S
H1651 C1663 0.929 . S
H1652 C1666 0.930 . S
H1653 C1668 0.960 . S
H1654 C1668 0.960 . S
H1655 C1668 0.960 . S
C1656 H1648 0.929 . S
C1656 C1657 1.377 . S
C1656 C1658 1.384 . S
C1657 C1656 1.377 . S
C1657 C1663 1.390 . S
C1658 H1649 0.930 . S
C1658 C1656 1.384 . S
C1658 C1659 1.372 . S
C1659 C1658 1.372 . S
C1659 C1660 1.400 . S
C1659 C1664 1.490 . S
C1660 H1650 0.930 . S
C1660 C1659 1.400 . S
C1660 C1663 1.386 . S
H1661 C1677 0.930 . S
H1662 C1678 0.931 . S
C1663 H1651 0.929 . S
C1663 C1657 1.390 . S
C1663 C1660 1.386 . S
C1664 C1659 1.490 . S
C1664 C1666 1.395 . S
C1664 C1667 1.403 . S
H1665 C1671 0.930 . S
C1666 H1652 0.930 . S
C1666 C1664 1.395 . S
C1666 C1669 1.403 . S
C1667 C1664 1.403 . S
C1667 C1668 1.524 . S
C1667 C1671 1.400 . S
C1668 H1653 0.960 . S
C1668 H1654 0.960 . S
C1668 H1655 0.960 . S
C1668 C1667 1.524 . S
C1669 C1666 1.403 . S
C1669 C1670 1.392 . S
C1669 C1673 1.495 . S
C1670 C1669 1.392 . S
C1670 C1671 1.385 . S
C1670 C1672 1.478 . S
C1671 H1665 0.930 . S
C1671 C1667 1.400 . S
C1671 C1670 1.385 . S
C1672 C1670 1.478 . S
C1672 C1674 1.381 . S
C1672 C1678 1.383 . S
C1673 C1669 1.495 . S
C1673 H1679 0.959 . S
C1673 H1680 0.961 . S
C1673 H1681 0.960 . S
C1674 C1672 1.381 . S
C1674 C1675 1.394 . S
C1674 H1682 0.930 . S
C1675 C1674 1.394 . S
C1675 C1676 1.383 . S
C1675 H1683 0.929 . S
C1676 C1675 1.383 . S
C1676 C1677 1.377 . S
C1677 H1661 0.930 . S
C1677 C1676 1.377 . S
C1677 C1678 1.379 . S
C1678 H1662 0.931 . S
C1678 C1672 1.383 . S
C1678 C1677 1.379 . S
H1679 C1673 0.959 . S
H1680 C1673 0.961 . S
H1681 C1673 0.960 . S
H1682 C1674 0.930 . S
H1683 C1675 0.929 . S
H1684 C1692 0.929 . S
H1685 C1694 0.930 . S
H1686 C1696 0.930 . S
H1687 C1699 0.929 . S
H1688 C1702 0.930 . S
H1689 C1704 0.960 . S
H1690 C1704 0.960 . S
H1691 C1704 0.960 . S
C1692 H1684 0.929 . S
C1692 C1693 1.377 . S
C1692 C1694 1.384 . S
C1693 C1692 1.377 . S
C1693 C1699 1.390 . S
C1694 H1685 0.930 . S
C1694 C1692 1.384 . S
C1694 C1695 1.372 . S
C1695 C1694 1.372 . S
C1695 C1696 1.400 . S
C1695 C1700 1.490 . S
C1696 H1686 0.930 . S
C1696 C1695 1.400 . S
C1696 C1699 1.386 . S
H1697 C1713 0.930 . S
H1698 C1714 0.931 . S
C1699 H1687 0.929 . S
C1699 C1693 1.390 . S
C1699 C1696 1.386 . S
C1700 C1695 1.490 . S
C1700 C1702 1.395 . S
C1700 C1703 1.403 . S
H1701 C1707 0.930 . S
C1702 H1688 0.930 . S
C1702 C1700 1.395 . S
C1702 C1705 1.403 . S
C1703 C1700 1.403 . S
C1703 C1704 1.524 . S
C1703 C1707 1.400 . S
C1704 H1689 0.960 . S
C1704 H1690 0.960 . S
C1704 H1691 0.960 . S
C1704 C1703 1.524 . S
C1705 C1702 1.403 . S
C1705 C1706 1.392 . S
C1705 C1709 1.495 . S
C1706 C1705 1.392 . S
C1706 C1707 1.385 . S
C1706 C1708 1.478 . S
C1707 H1701 0.930 . S
C1707 C1703 1.400 . S
C1707 C1706 1.385 . S
C1708 C1706 1.478 . S
C1708 C1710 1.381 . S
C1708 C1714 1.383 . S
C1709 C1705 1.495 . S
C1709 H1715 0.959 . S
C1709 H1716 0.961 . S
C1709 H1717 0.960 . S
C1710 C1708 1.381 . S
C1710 C1711 1.394 . S
C1710 H1718 0.930 . S
C1711 C1710 1.394 . S
C1711 C1712 1.383 . S
C1711 H1719 0.929 . S
C1712 C1711 1.383 . S
C1712 C1713 1.377 . S
C1713 H1697 0.930 . S
C1713 C1712 1.377 . S
C1713 C1714 1.379 . S
C1714 H1698 0.931 . S
C1714 C1708 1.383 . S
C1714 C1713 1.379 . S
H1715 C1709 0.959 . S
H1716 C1709 0.961 . S
H1717 C1709 0.960 . S
H1718 C1710 0.930 . S
H1719 C1711 0.929 . S
H1720 C1728 0.929 . S
H1721 C1730 0.930 . S
H1722 C1732 0.930 . S
H1723 C1735 0.929 . S
H1724 C1738 0.930 . S
H1725 C1740 0.960 . S
H1726 C1740 0.960 . S
H1727 C1740 0.960 . S
C1728 H1720 0.929 . S
C1728 C1729 1.377 . S
C1728 C1730 1.384 . S
C1729 C1728 1.377 . S
C1729 C1735 1.390 . S
C1730 H1721 0.930 . S
C1730 C1728 1.384 . S
C1730 C1731 1.372 . S
C1731 C1730 1.372 . S
C1731 C1732 1.400 . S
C1731 C1736 1.490 . S
C1732 H1722 0.930 . S
C1732 C1731 1.400 . S
C1732 C1735 1.386 . S
H1733 C1749 0.930 . S
H1734 C1750 0.931 . S
C1735 H1723 0.929 . S
C1735 C1729 1.390 . S
C1735 C1732 1.386 . S
C1736 C1731 1.490 . S
C1736 C1738 1.395 . S
C1736 C1739 1.403 . S
H1737 C1743 0.930 . S
C1738 H1724 0.930 . S
C1738 C1736 1.395 . S
C1738 C1741 1.403 . S
C1739 C1736 1.403 . S
C1739 C1740 1.524 . S
C1739 C1743 1.400 . S
C1740 H1725 0.960 . S
C1740 H1726 0.960 . S
C1740 H1727 0.960 . S
C1740 C1739 1.524 . S
C1741 C1738 1.403 . S
C1741 C1742 1.392 . S
C1741 C1745 1.495 . S
C1742 C1741 1.392 . S
C1742 C1743 1.385 . S
C1742 C1744 1.478 . S
C1743 H1737 0.930 . S
C1743 C1739 1.400 . S
C1743 C1742 1.385 . S
C1744 C1742 1.478 . S
C1744 C1746 1.381 . S
C1744 C1750 1.383 . S
C1745 C1741 1.495 . S
C1745 H1751 0.959 . S
C1745 H1752 0.961 . S
C1745 H1753 0.960 . S
C1746 C1744 1.381 . S
C1746 C1747 1.394 . S
C1746 H1754 0.930 . S
C1747 C1746 1.394 . S
C1747 C1748 1.383 . S
C1747 H1755 0.929 . S
C1748 C1747 1.383 . S
C1748 C1749 1.377 . S
C1749 H1733 0.930 . S
C1749 C1748 1.377 . S
C1749 C1750 1.379 . S
C1750 H1734 0.931 . S
C1750 C1744 1.383 . S
C1750 C1749 1.379 . S
H1751 C1745 0.959 . S
H1752 C1745 0.961 . S
H1753 C1745 0.960 . S
H1754 C1746 0.930 . S
H1755 C1747 0.929 . S
H1756 C1764 0.929 . S
H1757 C1766 0.930 . S
H1758 C1768 0.930 . S
H1759 C1771 0.929 . S
H1760 C1774 0.930 . S
H1761 C1776 0.960 . S
H1762 C1776 0.960 . S
H1763 C1776 0.960 . S
C1764 H1756 0.929 . S
C1764 C1765 1.377 . S
C1764 C1766 1.384 . S
C1765 C1764 1.377 . S
C1765 C1771 1.390 . S
C1766 H1757 0.930 . S
C1766 C1764 1.384 . S
C1766 C1767 1.372 . S
C1767 C1766 1.372 . S
C1767 C1768 1.400 . S
C1767 C1772 1.490 . S
C1768 H1758 0.930 . S
C1768 C1767 1.400 . S
C1768 C1771 1.386 . S
H1769 C1785 0.930 . S
H1770 C1786 0.931 . S
C1771 H1759 0.929 . S
C1771 C1765 1.390 . S
C1771 C1768 1.386 . S
C1772 C1767 1.490 . S
C1772 C1774 1.395 . S
C1772 C1775 1.403 . S
H1773 C1779 0.930 . S
C1774 H1760 0.930 . S
C1774 C1772 1.395 . S
C1774 C1777 1.403 . S
C1775 C1772 1.403 . S
C1775 C1776 1.524 . S
C1775 C1779 1.400 . S
C1776 H1761 0.960 . S
C1776 H1762 0.960 . S
C1776 H1763 0.960 . S
C1776 C1775 1.524 . S
C1777 C1774 1.403 . S
C1777 C1778 1.392 . S
C1777 C1781 1.495 . S
C1778 C1777 1.392 . S
C1778 C1779 1.385 . S
C1778 C1780 1.478 . S
C1779 H1773 0.930 . S
C1779 C1775 1.400 . S
C1779 C1778 1.385 . S
C1780 C1778 1.478 . S
C1780 C1782 1.381 . S
C1780 C1786 1.383 . S
C1781 C1777 1.495 . S
C1781 H1787 0.959 . S
C1781 H1788 0.961 . S
C1781 H1789 0.960 . S
C1782 C1780 1.381 . S
C1782 C1783 1.394 . S
C1782 H1790 0.930 . S
C1783 C1782 1.394 . S
C1783 C1784 1.383 . S
C1783 H1791 0.929 . S
C1784 C1783 1.383 . S
C1784 C1785 1.377 . S
C1785 H1769 0.930 . S
C1785 C1784 1.377 . S
C1785 C1786 1.379 . S
C1786 H1770 0.931 . S
C1786 C1780 1.383 . S
C1786 C1785 1.379 . S
H1787 C1781 0.959 . S
H1788 C1781 0.961 . S
H1789 C1781 0.960 . S
H1790 C1782 0.930 . S
H1791 C1783 0.929 . S
H1792 C1800 0.929 . S
H1793 C1802 0.930 . S
H1794 C1804 0.930 . S
H1795 C1807 0.929 . S
H1796 C1810 0.930 . S
H1797 C1812 0.960 . S
H1798 C1812 0.960 . S
H1799 C1812 0.960 . S
C1800 H1792 0.929 . S
C1800 C1801 1.377 . S
C1800 C1802 1.384 . S
C1801 C1800 1.377 . S
C1801 C1807 1.390 . S
C1802 H1793 0.930 . S
C1802 C1800 1.384 . S
C1802 C1803 1.372 . S
C1803 C1802 1.372 . S
C1803 C1804 1.400 . S
C1803 C1808 1.490 . S
C1804 H1794 0.930 . S
C1804 C1803 1.400 . S
C1804 C1807 1.386 . S
H1805 C1821 0.930 . S
H1806 C1822 0.931 . S
C1807 H1795 0.929 . S
C1807 C1801 1.390 . S
C1807 C1804 1.386 . S
C1808 C1803 1.490 . S
C1808 C1810 1.395 . S
C1808 C1811 1.403 . S
H1809 C1815 0.930 . S
C1810 H1796 0.930 . S
C1810 C1808 1.395 . S
C1810 C1813 1.403 . S
C1811 C1808 1.403 . S
C1811 C1812 1.524 . S
C1811 C1815 1.400 . S
C1812 H1797 0.960 . S
C1812 H1798 0.960 . S
C1812 H1799 0.960 . S
C1812 C1811 1.524 . S
C1813 C1810 1.403 . S
C1813 C1814 1.392 . S
C1813 C1817 1.495 . S
C1814 C1813 1.392 . S
C1814 C1815 1.385 . S
C1814 C1816 1.478 . S
C1815 H1809 0.930 . S
C1815 C1811 1.400 . S
C1815 C1814 1.385 . S
C1816 C1814 1.478 . S
C1816 C1818 1.381 . S
C1816 C1822 1.383 . S
C1817 C1813 1.495 . S
C1817 H1823 0.959 . S
C1817 H1824 0.961 . S
C1817 H1825 0.960 . S
C1818 C1816 1.381 . S
C1818 C1819 1.394 . S
C1818 H1826 0.930 . S
C1819 C1818 1.394 . S
C1819 C1820 1.383 . S
C1819 H1827 0.929 . S
C1820 C1819 1.383 . S
C1820 C1821 1.377 . S
C1821 H1805 0.930 . S
C1821 C1820 1.377 . S
C1821 C1822 1.379 . S
C1822 H1806 0.931 . S
C1822 C1816 1.383 . S
C1822 C1821 1.379 . S
H1823 C1817 0.959 . S
H1824 C1817 0.961 . S
H1825 C1817 0.960 . S
H1826 C1818 0.930 . S
H1827 C1819 0.929 . S
H1828 C1836 0.929 . S
H1829 C1838 0.930 . S
H1830 C1840 0.930 . S
H1831 C1843 0.929 . S
H1832 C1846 0.930 . S
H1833 C1848 0.960 . S
H1834 C1848 0.960 . S
H1835 C1848 0.960 . S
C1836 H1828 0.929 . S
C1836 C1837 1.377 . S
C1836 C1838 1.384 . S
C1837 C1836 1.377 . S
C1837 C1843 1.390 . S
C1838 H1829 0.930 . S
C1838 C1836 1.384 . S
C1838 C1839 1.372 . S
C1839 C1838 1.372 . S
C1839 C1840 1.400 . S
C1839 C1844 1.490 . S
C1840 H1830 0.930 . S
C1840 C1839 1.400 . S
C1840 C1843 1.386 . S
H1841 C1857 0.930 . S
H1842 C1858 0.931 . S
C1843 H1831 0.929 . S
C1843 C1837 1.390 . S
C1843 C1840 1.386 . S
C1844 C1839 1.490 . S
C1844 C1846 1.395 . S
C1844 C1847 1.403 . S
H1845 C1851 0.930 . S
C1846 H1832 0.930 . S
C1846 C1844 1.395 . S
C1846 C1849 1.403 . S
C1847 C1844 1.403 . S
C1847 C1848 1.524 . S
C1847 C1851 1.400 . S
C1848 H1833 0.960 . S
C1848 H1834 0.960 . S
C1848 H1835 0.960 . S
C1848 C1847 1.524 . S
C1849 C1846 1.403 . S
C1849 C1850 1.392 . S
C1849 C1853 1.495 . S
C1850 C1849 1.392 . S
C1850 C1851 1.385 . S
C1850 C1852 1.478 . S
C1851 H1845 0.930 . S
C1851 C1847 1.400 . S
C1851 C1850 1.385 . S
C1852 C1850 1.478 . S
C1852 C1854 1.381 . S
C1852 C1858 1.383 . S
C1853 C1849 1.495 . S
C1853 H1859 0.973 . S
C1853 H1860 0.961 . S
C1853 H1861 0.960 . S
C1854 C1852 1.381 . S
C1854 C1855 1.394 . S
C1854 H1862 0.930 . S
C1855 C1854 1.394 . S
C1855 C1856 1.383 . S
C1855 H1863 0.929 . S
C1856 C1855 1.383 . S
C1856 C1857 1.377 . S
C1857 H1841 0.930 . S
C1857 C1856 1.377 . S
C1857 C1858 1.379 . S
C1858 H1842 0.931 . S
C1858 C1852 1.383 . S
C1858 C1857 1.379 . S
H1859 C1853 0.973 . S
H1860 C1853 0.961 . S
H1861 C1853 0.960 . S
H1862 C1854 0.930 . S
H1863 C1855 0.929 . S
H1864 C1872 0.929 . S
H1865 C1874 0.930 . S
H1866 C1876 0.930 . S
H1867 C1879 0.929 . S
H1868 C1882 0.930 . S
H1869 C1884 0.960 . S
H1870 C1884 0.960 . S
H1871 C1884 0.960 . S
C1872 H1864 0.929 . S
C1872 C1873 1.377 . S
C1872 C1874 1.384 . S
C1873 C1872 1.377 . S
C1873 C1879 1.390 . S
C1874 H1865 0.930 . S
C1874 C1872 1.384 . S
C1874 C1875 1.372 . S
C1875 C1874 1.372 . S
C1875 C1876 1.400 . S
C1875 C1880 1.490 . S
C1876 H1866 0.930 . S
C1876 C1875 1.400 . S
C1876 C1879 1.386 . S
H1877 C1893 0.930 . S
H1878 C1894 0.931 . S
C1879 H1867 0.929 . S
C1879 C1873 1.390 . S
C1879 C1876 1.386 . S
C1880 C1875 1.490 . S
C1880 C1882 1.395 . S
C1880 C1883 1.403 . S
H1881 C1887 0.930 . S
C1882 H1868 0.930 . S
C1882 C1880 1.395 . S
C1882 C1885 1.403 . S
C1883 C1880 1.403 . S
C1883 C1884 1.524 . S
C1883 C1887 1.400 . S
C1884 H1869 0.960 . S
C1884 H1870 0.960 . S
C1884 H1871 0.960 . S
C1884 C1883 1.524 . S
C1885 C1882 1.403 . S
C1885 C1886 1.392 . S
C1885 C1889 1.495 . S
C1886 C1885 1.392 . S
C1886 C1887 1.385 . S
C1886 C1888 1.478 . S
C1887 H1881 0.930 . S
C1887 C1883 1.400 . S
C1887 C1886 1.385 . S
C1888 C1886 1.478 . S
C1888 C1890 1.381 . S
C1888 C1894 1.383 . S
C1889 C1885 1.495 . S
C1889 H1895 0.959 . S
C1889 H1896 0.961 . S
C1889 H1897 0.960 . S
C1890 C1888 1.381 . S
C1890 C1891 1.394 . S
C1890 H1898 0.930 . S
C1891 C1890 1.394 . S
C1891 C1892 1.383 . S
C1891 H1899 0.929 . S
C1892 C1891 1.383 . S
C1892 C1893 1.377 . S
C1893 H1877 0.930 . S
C1893 C1892 1.377 . S
C1893 C1894 1.379 . S
C1894 H1878 0.931 . S
C1894 C1888 1.383 . S
C1894 C1893 1.379 . S
H1895 C1889 0.959 . S
H1896 C1889 0.961 . S
H1897 C1889 0.960 . S
H1898 C1890 0.930 . S
H1899 C1891 0.929 . S
H1900 C1908 0.929 . S
H1901 C1910 0.930 . S
H1902 C1912 0.873 1_455 S
H1903 C1915 0.927 . S
H1904 C1918 0.930 . S
H1905 C1920 0.960 1_455 S
H1906 C1920 0.960 . S
H1907 C1920 0.960 1_455 S
C1908 H1900 0.929 . S
C1908 C1909 1.377 . S
C1908 C1910 1.384 . S
C1909 C1908 1.377 . S
C1909 C1915 1.390 . S
C1910 H1901 0.930 . S
C1910 C1908 1.384 . S
C1910 C1911 1.372 . S
C1911 C1910 1.372 . S
C1911 C1912 1.400 . S
C1911 C1916 1.490 . S
C1912 H1902 0.873 1_655 S
C1912 C1911 1.400 . S
C1912 C1915 1.386 . S
H1913 C1929 0.930 1_455 S
H1914 C1930 0.931 1_455 S
C1915 H1903 0.927 . S
C1915 C1909 1.390 . S
C1915 C1912 1.386 . S
C1916 C1911 1.490 . S
C1916 C1918 1.395 . S
C1916 C1919 1.403 . S
H1917 C1923 0.930 . S
C1918 H1904 0.930 . S
C1918 C1916 1.395 . S
C1918 C1921 1.403 . S
C1919 C1916 1.403 . S
C1919 C1920 1.524 . S
C1919 C1923 1.400 . S
C1920 H1905 0.960 1_655 S
C1920 H1906 0.960 . S
C1920 H1907 0.960 1_655 S
C1920 C1919 1.524 . S
C1921 C1918 1.403 . S
C1921 C1922 1.392 . S
C1921 C1925 1.495 . S
C1922 C1921 1.392 . S
C1922 C1923 1.385 . S
C1922 C1924 1.478 . S
C1923 H1917 0.930 . S
C1923 C1919 1.400 . S
C1923 C1922 1.385 . S
C1924 C1922 1.478 . S
C1924 C1926 1.381 . S
C1924 C1930 1.383 . S
C1925 C1921 1.495 . S
C1925 H1931 0.959 . S
C1925 H1932 0.961 . S
C1925 H1933 0.960 . S
C1926 C1924 1.381 . S
C1926 C1927 1.394 . S
C1926 H1934 0.930 . S
C1927 C1926 1.394 . S
C1927 C1928 1.383 . S
C1927 H1935 0.929 . S
C1928 C1927 1.383 . S
C1928 C1929 1.377 . S
C1929 H1913 0.930 1_655 S
C1929 C1928 1.377 . S
C1929 C1930 1.379 . S
C1930 H1914 0.931 1_655 S
C1930 C1924 1.383 . S
C1930 C1929 1.379 . S
H1931 C1925 0.959 . S
H1932 C1925 0.961 . S
H1933 C1925 0.960 . S
H1934 C1926 0.930 . S
H1935 C1927 0.929 . S
H1936 C1944 0.929 . S
H1937 C1946 0.930 . S
H1938 C1948 0.930 . S
H1939 C1951 0.929 . S
H1940 C1954 0.930 . S
H1941 C1956 0.960 . S
H1942 C1956 0.960 . S
H1943 C1956 0.960 . S
C1944 H1936 0.929 . S
C1944 C1945 1.377 . S
C1944 C1946 1.384 . S
C1945 C1944 1.377 . S
C1945 C1951 1.390 . S
C1946 H1937 0.930 . S
C1946 C1944 1.384 . S
C1946 C1947 1.372 . S
C1947 C1946 1.372 . S
C1947 C1948 1.400 . S
C1947 C1952 1.490 . S
C1948 H1938 0.930 . S
C1948 C1947 1.400 . S
C1948 C1951 1.386 . S
H1949 C1965 0.930 . S
H1950 C1966 0.931 . S
C1951 H1939 0.929 . S
C1951 C1945 1.390 . S
C1951 C1948 1.386 . S
C1952 C1947 1.490 . S
C1952 C1954 1.395 . S
C1952 C1955 1.403 . S
H1953 C1959 0.930 . S
C1954 H1940 0.930 . S
C1954 C1952 1.395 . S
C1954 C1957 1.403 . S
C1955 C1952 1.403 . S
C1955 C1956 1.524 . S
C1955 C1959 1.400 . S
C1956 H1941 0.960 . S
C1956 H1942 0.960 . S
C1956 H1943 0.960 . S
C1956 C1955 1.524 . S
C1957 C1954 1.403 . S
C1957 C1958 1.392 . S
C1957 C1961 1.495 . S
C1958 C1957 1.392 . S
C1958 C1959 1.385 . S
C1958 C1960 1.478 . S
C1959 H1953 0.930 . S
C1959 C1955 1.400 . S
C1959 C1958 1.385 . S
C1960 C1958 1.478 . S
C1960 C1962 1.381 . S
C1960 C1966 1.383 . S
C1961 C1957 1.495 . S
C1961 H1967 0.959 . S
C1961 H1968 0.961 . S
C1961 H1969 0.960 . S
C1962 C1960 1.381 . S
C1962 C1963 1.394 . S
C1962 H1970 0.930 . S
C1963 C1962 1.394 . S
C1963 C1964 1.383 . S
C1963 H1971 0.929 . S
C1964 C1963 1.383 . S
C1964 C1965 1.377 . S
C1965 H1949 0.930 . S
C1965 C1964 1.377 . S
C1965 C1966 1.379 . S
C1966 H1950 0.931 . S
C1966 C1960 1.383 . S
C1966 C1965 1.379 . S
H1967 C1961 0.959 . S
H1968 C1961 0.961 . S
H1969 C1961 0.960 . S
H1970 C1962 0.930 . S
H1971 C1963 0.929 . S
H1972 C1980 0.929 . S
H1973 C1982 0.930 . S
H1974 C1984 0.930 . S
H1975 C1987 0.929 . S
H1976 C1990 0.930 . S
H1977 C1992 0.960 . S
H1978 C1992 0.960 . S
H1979 C1992 0.960 . S
C1980 H1972 0.929 . S
C1980 C1981 1.377 . S
C1980 C1982 1.384 . S
C1981 C1980 1.377 . S
C1981 C1987 1.390 . S
C1982 H1973 0.930 . S
C1982 C1980 1.384 . S
C1982 C1983 1.372 . S
C1983 C1982 1.372 . S
C1983 C1984 1.400 . S
C1983 C1988 1.490 . S
C1984 H1974 0.930 . S
C1984 C1983 1.400 . S
C1984 C1987 1.386 . S
H1985 C2001 0.930 . S
H1986 C2002 0.931 . S
C1987 H1975 0.929 . S
C1987 C1981 1.390 . S
C1987 C1984 1.386 . S
C1988 C1983 1.490 . S
C1988 C1990 1.395 . S
C1988 C1991 1.403 . S
H1989 C1995 0.930 . S
C1990 H1976 0.930 . S
C1990 C1988 1.395 . S
C1990 C1993 1.403 . S
C1991 C1988 1.403 . S
C1991 C1992 1.524 . S
C1991 C1995 1.400 . S
C1992 H1977 0.960 . S
C1992 H1978 0.960 . S
C1992 H1979 0.960 . S
C1992 C1991 1.524 . S
C1993 C1990 1.403 . S
C1993 C1994 1.392 . S
C1993 C1997 1.495 . S
C1994 C1993 1.392 . S
C1994 C1995 1.385 . S
C1994 C1996 1.478 . S
C1995 H1989 0.930 . S
C1995 C1991 1.400 . S
C1995 C1994 1.385 . S
C1996 C1994 1.478 . S
C1996 C1998 1.381 . S
C1996 C2002 1.383 . S
C1997 C1993 1.495 . S
C1997 H2003 0.959 . S
C1997 H2004 0.961 . S
C1997 H2005 0.960 . S
C1998 C1996 1.381 . S
C1998 C1999 1.394 . S
C1998 H2006 0.930 . S
C1999 C1998 1.394 . S
C1999 C2000 1.383 . S
C1999 H2007 0.929 . S
C2000 C1999 1.383 . S
C2000 C2001 1.377 . S
C2001 H1985 0.930 . S
C2001 C2000 1.377 . S
C2001 C2002 1.379 . S
C2002 H1986 0.931 . S
C2002 C1996 1.383 . S
C2002 C2001 1.379 . S
H2003 C1997 0.959 . S
H2004 C1997 0.961 . S
H2005 C1997 0.960 . S
H2006 C1998 0.930 . S
H2007 C1999 0.929 . S
H2008 C2016 0.929 . S
H2009 C2018 0.930 1_554 S
H2010 C2020 0.930 1_565 S
H2011 C2023 0.929 . S
H2012 C2026 0.930 1_545 S
H2013 C2028 0.960 . S
H2014 C2028 0.960 . S
H2015 C2028 0.960 . S
C2016 H2008 0.929 . S
C2016 C2017 1.377 . S
C2016 C2018 1.384 . S
C2017 C2016 1.377 . S
C2017 C2023 1.390 . S
C2018 H2009 0.930 1_556 S
C2018 C2016 1.384 . S
C2018 C2019 1.372 . S
C2019 C2018 1.372 . S
C2019 C2020 1.400 . S
C2019 C2024 1.490 1_545 S
C2020 H2010 0.930 1_545 S
C2020 C2019 1.400 . S
C2020 C2023 1.386 . S
H2021 C2037 0.947 . S
H2022 C2038 0.931 1_556 S
C2023 H2011 0.929 . S
C2023 C2017 1.390 . S
C2023 C2020 1.386 . S
C2024 C2019 1.490 1_565 S
C2024 C2026 1.395 1_556 S
C2024 C2027 1.403 . S
H2025 C2031 0.930 . S
C2026 H2012 0.930 1_565 S
C2026 C2024 1.395 1_554 S
C2026 C2029 1.403 . S
C2027 C2024 1.403 . S
C2027 C2028 1.524 . S
C2027 C2031 1.400 . S
C2028 H2013 0.960 . S
C2028 H2014 0.960 . S
C2028 H2015 0.960 . S
C2028 C2027 1.524 . S
C2029 C2026 1.403 . S
C2029 C2030 1.392 . S
C2029 C2033 1.495 . S
C2030 C2029 1.392 . S
C2030 C2031 1.385 1_554 S
C2030 C2032 1.478 . S
C2031 H2025 0.930 . S
C2031 C2027 1.400 . S
C2031 C2030 1.385 1_556 S
C2032 C2030 1.478 . S
C2032 C2034 1.381 . S
C2032 C2038 1.383 . S
C2033 C2029 1.495 . S
C2033 H2039 0.959 1_565 S
C2033 H2040 0.961 . S
C2033 H2041 0.960 . S
C2034 C2032 1.381 . S
C2034 C2035 1.394 . S
C2034 H2042 0.930 . S
C2035 C2034 1.394 . S
C2035 C2036 1.383 . S
C2035 H2043 0.929 . S
C2036 C2035 1.383 . S
C2036 C2037 1.377 . S
C2037 H2021 0.947 . S
C2037 C2036 1.377 . S
C2037 C2038 1.379 . S
C2038 H2022 0.931 1_554 S
C2038 C2032 1.383 . S
C2038 C2037 1.379 . S
H2039 C2033 0.959 1_545 S
H2040 C2033 0.961 . S
H2041 C2033 0.960 . S
H2042 C2034 0.930 . S
H2043 C2035 0.929 . S
H2044 C2052 0.929 . S
H2045 C2054 0.930 . S
H2046 C2056 0.930 . S
H2047 C2059 0.929 . S
H2048 C2062 0.930 . S
H2049 C2064 0.960 . S
H2050 C2064 0.960 . S
H2051 C2064 0.960 . S
C2052 H2044 0.929 . S
C2052 C2053 1.377 . S
C2052 C2054 1.384 . S
C2053 C2052 1.377 . S
C2053 C2059 1.390 . S
C2054 H2045 0.930 . S
C2054 C2052 1.384 . S
C2054 C2055 1.372 . S
C2055 C2054 1.372 . S
C2055 C2056 1.400 . S
C2055 C2060 1.490 . S
C2056 H2046 0.930 . S
C2056 C2055 1.400 . S
C2056 C2059 1.386 . S
H2057 C2073 0.930 . S
H2058 C2074 0.931 . S
C2059 H2047 0.929 . S
C2059 C2053 1.390 . S
C2059 C2056 1.386 . S
C2060 C2055 1.490 . S
C2060 C2062 1.395 . S
C2060 C2063 1.403 . S
H2061 C2067 0.930 . S
C2062 H2048 0.930 . S
C2062 C2060 1.395 . S
C2062 C2065 1.403 . S
C2063 C2060 1.403 . S
C2063 C2064 1.524 . S
C2063 C2067 1.400 . S
C2064 H2049 0.960 . S
C2064 H2050 0.960 . S
C2064 H2051 0.960 . S
C2064 C2063 1.524 . S
C2065 C2062 1.403 . S
C2065 C2066 1.392 . S
C2065 C2069 1.495 . S
C2066 C2065 1.392 . S
C2066 C2067 1.385 . S
C2066 C2068 1.478 . S
C2067 H2061 0.930 . S
C2067 C2063 1.400 . S
C2067 C2066 1.385 . S
C2068 C2066 1.478 . S
C2068 C2070 1.381 . S
C2068 C2074 1.383 . S
C2069 C2065 1.495 . S
C2069 H2075 0.959 . S
C2069 H2076 0.961 . S
C2069 H2077 0.960 . S
C2070 C2068 1.381 . S
C2070 C2071 1.394 . S
C2070 H2078 0.930 . S
C2071 C2070 1.394 . S
C2071 C2072 1.383 . S
C2071 H2079 0.929 . S
C2072 C2071 1.383 . S
C2072 C2073 1.377 . S
C2073 H2057 0.930 . S
C2073 C2072 1.377 . S
C2073 C2074 1.379 . S
C2074 H2058 0.931 . S
C2074 C2068 1.383 . S
C2074 C2073 1.379 . S
H2075 C2069 0.959 . S
H2076 C2069 0.961 . S
H2077 C2069 0.960 . S
H2078 C2070 0.930 . S
H2079 C2071 0.929 . S
H2080 C2088 0.929 . S
H2081 C2090 0.930 . S
H2082 C2092 0.930 . S
H2083 C2095 0.929 . S
H2084 C2098 0.930 . S
H2085 C2100 0.960 . S
H2086 C2100 0.960 . S
H2087 C2100 0.958 . S
C2088 H2080 0.929 . S
C2088 C2089 1.377 1_545 S
C2088 C2090 1.384 . S
C2089 C2088 1.377 1_565 S
C2089 C2095 1.390 . S
C2090 H2081 0.930 . S
C2090 C2088 1.384 . S
C2090 C2091 1.372 . S
C2091 C2090 1.372 . S
C2091 C2092 1.400 . S
C2091 C2096 1.490 . S
C2092 H2082 0.930 . S
C2092 C2091 1.400 . S
C2092 C2095 1.386 1_545 S
H2093 C2109 0.930 . S
H2094 C2110 0.931 . S
C2095 H2083 0.929 . S
C2095 C2089 1.390 . S
C2095 C2092 1.386 1_565 S
C2096 C2091 1.490 . S
C2096 C2098 1.395 . S
C2096 C2099 1.403 . S
H2097 C2103 0.930 . S
C2098 H2084 0.930 . S
C2098 C2096 1.395 . S
C2098 C2101 1.403 . S
C2099 C2096 1.403 . S
C2099 C2100 1.524 . S
C2099 C2103 1.400 . S
C2100 H2085 0.960 . S
C2100 H2086 0.960 . S
C2100 H2087 0.958 . S
C2100 C2099 1.524 . S
C2101 C2098 1.403 . S
C2101 C2102 1.392 . S
C2101 C2105 1.495 . S
C2102 C2101 1.392 . S
C2102 C2103 1.385 . S
C2102 C2104 1.478 . S
C2103 H2097 0.930 . S
C2103 C2099 1.400 . S
C2103 C2102 1.385 . S
C2104 C2102 1.478 . S
C2104 C2106 1.381 . S
C2104 C2110 1.383 . S
C2105 C2101 1.495 . S
C2105 H2111 0.959 . S
C2105 H2112 0.961 . S
C2105 H2113 0.960 . S
C2106 C2104 1.381 . S
C2106 C2107 1.394 . S
C2106 H2114 0.930 . S
C2107 C2106 1.394 . S
C2107 C2108 1.383 . S
C2107 H2115 0.929 . S
C2108 C2107 1.383 . S
C2108 C2109 1.377 . S
C2109 H2093 0.930 . S
C2109 C2108 1.377 . S
C2109 C2110 1.379 . S
C2110 H2094 0.931 . S
C2110 C2104 1.383 . S
C2110 C2109 1.379 . S
H2111 C2105 0.959 . S
H2112 C2105 0.961 . S
H2113 C2105 0.960 . S
H2114 C2106 0.930 . S
H2115 C2107 0.929 . S
H2116 C2124 0.929 . S
H2117 C2126 0.930 . S
H2118 C2128 0.930 . S
H2119 C2131 0.929 . S
H2120 C2134 0.930 . S
H2121 C2136 0.960 . S
H2122 C2136 0.960 . S
H2123 C2136 0.960 . S
C2124 H2116 0.929 . S
C2124 C2125 1.377 . S
C2124 C2126 1.384 . S
C2125 C2124 1.377 . S
C2125 C2131 1.390 . S
C2126 H2117 0.930 . S
C2126 C2124 1.384 . S
C2126 C2127 1.372 . S
C2127 C2126 1.372 . S
C2127 C2128 1.400 . S
C2127 C2132 1.490 . S
C2128 H2118 0.930 . S
C2128 C2127 1.400 . S
C2128 C2131 1.386 . S
H2129 C2145 0.930 . S
H2130 C2146 0.931 . S
C2131 H2119 0.929 . S
C2131 C2125 1.390 . S
C2131 C2128 1.386 . S
C2132 C2127 1.490 . S
C2132 C2134 1.395 . S
C2132 C2135 1.403 . S
H2133 C2139 0.930 . S
C2134 H2120 0.930 . S
C2134 C2132 1.395 . S
C2134 C2137 1.403 . S
C2135 C2132 1.403 . S
C2135 C2136 1.524 . S
C2135 C2139 1.400 . S
C2136 H2121 0.960 . S
C2136 H2122 0.960 . S
C2136 H2123 0.960 . S
C2136 C2135 1.524 . S
C2137 C2134 1.403 . S
C2137 C2138 1.392 . S
C2137 C2141 1.495 . S
C2138 C2137 1.392 . S
C2138 C2139 1.385 . S
C2138 C2140 1.478 . S
C2139 H2133 0.930 . S
C2139 C2135 1.400 . S
C2139 C2138 1.385 . S
C2140 C2138 1.478 . S
C2140 C2142 1.381 . S
C2140 C2146 1.383 . S
C2141 C2137 1.495 . S
C2141 H2147 0.959 . S
C2141 H2148 0.961 . S
C2141 H2149 0.960 . S
C2142 C2140 1.381 . S
C2142 C2143 1.394 . S
C2142 H2150 0.930 . S
C2143 C2142 1.394 . S
C2143 C2144 1.383 . S
C2143 H2151 0.929 . S
C2144 C2143 1.383 . S
C2144 C2145 1.377 . S
C2145 H2129 0.930 . S
C2145 C2144 1.377 . S
C2145 C2146 1.379 . S
C2146 H2130 0.931 . S
C2146 C2140 1.383 . S
C2146 C2145 1.379 . S
H2147 C2141 0.959 . S
H2148 C2141 0.961 . S
H2149 C2141 0.960 . S
H2150 C2142 0.930 . S
H2151 C2143 0.929 . S
H2152 C2160 0.929 . S
H2153 C2162 0.930 . S
H2154 C2164 0.930 . S
H2155 C2167 0.929 1_565 S
H2156 C2170 0.930 . S
H2157 C2172 0.960 . S
H2158 C2172 0.960 . S
H2159 C2172 0.960 . S
C2160 H2152 0.929 . S
C2160 C2161 1.377 . S
C2160 C2162 1.384 . S
C2161 C2160 1.377 . S
C2161 C2167 1.390 . S
C2162 H2153 0.930 . S
C2162 C2160 1.384 . S
C2162 C2163 1.372 . S
C2163 C2162 1.372 . S
C2163 C2164 1.400 . S
C2163 C2168 1.490 . S
C2164 H2154 0.930 . S
C2164 C2163 1.400 . S
C2164 C2167 1.386 . S
H2165 C2181 0.930 . S
H2166 C2182 0.931 . S
C2167 H2155 0.929 1_545 S
C2167 C2161 1.390 . S
C2167 C2164 1.386 . S
C2168 C2163 1.490 . S
C2168 C2170 1.395 . S
C2168 C2171 1.403 . S
H2169 C2175 0.930 . S
C2170 H2156 0.930 . S
C2170 C2168 1.395 . S
C2170 C2173 1.403 . S
C2171 C2168 1.403 . S
C2171 C2172 1.524 . S
C2171 C2175 1.400 . S
C2172 H2157 0.960 . S
C2172 H2158 0.960 . S
C2172 H2159 0.960 . S
C2172 C2171 1.524 . S
C2173 C2170 1.403 . S
C2173 C2174 1.392 . S
C2173 C2177 1.495 . S
C2174 C2173 1.392 . S
C2174 C2175 1.385 . S
C2174 C2176 1.478 . S
C2175 H2169 0.930 . S
C2175 C2171 1.400 . S
C2175 C2174 1.385 . S
C2176 C2174 1.478 . S
C2176 C2178 1.381 . S
C2176 C2182 1.383 . S
C2177 C2173 1.495 . S
C2177 H2183 0.959 . S
C2177 H2184 0.961 . S
C2177 H2185 0.960 . S
C2178 C2176 1.381 . S
C2178 C2179 1.394 . S
C2178 H2186 0.930 . S
C2179 C2178 1.394 . S
C2179 C2180 1.383 . S
C2179 H2187 0.929 . S
C2180 C2179 1.383 . S
C2180 C2181 1.377 . S
C2181 H2165 0.930 . S
C2181 C2180 1.377 . S
C2181 C2182 1.379 . S
C2182 H2166 0.931 . S
C2182 C2176 1.383 . S
C2182 C2181 1.379 . S
H2183 C2177 0.959 . S
H2184 C2177 0.961 . S
H2185 C2177 0.960 . S
H2186 C2178 0.930 . S
H2187 C2179 0.929 . S
H2188 C2196 0.929 . S
H2189 C2198 0.930 . S
H2190 C2200 0.930 . S
H2191 C2203 0.929 . S
H2192 C2206 0.930 . S
H2193 C2208 0.960 . S
H2194 C2208 0.960 . S
H2195 C2208 0.960 . S
C2196 H2188 0.929 . S
C2196 C2197 1.377 . S
C2196 C2198 1.384 . S
C2197 C2196 1.377 . S
C2197 C2203 1.390 . S
C2198 H2189 0.930 . S
C2198 C2196 1.384 . S
C2198 C2199 1.372 . S
C2199 C2198 1.372 . S
C2199 C2200 1.400 . S
C2199 C2204 1.490 . S
C2200 H2190 0.930 . S
C2200 C2199 1.400 . S
C2200 C2203 1.386 . S
H2201 C2217 0.930 . S
H2202 C2218 0.931 . S
C2203 H2191 0.929 . S
C2203 C2197 1.390 . S
C2203 C2200 1.386 . S
C2204 C2199 1.490 . S
C2204 C2206 1.395 . S
C2204 C2207 1.403 . S
H2205 C2211 0.930 . S
C2206 H2192 0.930 . S
C2206 C2204 1.395 . S
C2206 C2209 1.403 . S
C2207 C2204 1.403 . S
C2207 C2208 1.524 . S
C2207 C2211 1.400 . S
C2208 H2193 0.960 . S
C2208 H2194 0.960 . S
C2208 H2195 0.960 . S
C2208 C2207 1.524 . S
C2209 C2206 1.403 . S
C2209 C2210 1.392 . S
C2209 C2213 1.495 . S
C2210 C2209 1.392 . S
C2210 C2211 1.385 . S
C2210 C2212 1.478 . S
C2211 H2205 0.930 . S
C2211 C2207 1.400 . S
C2211 C2210 1.385 . S
C2212 C2210 1.478 . S
C2212 C2214 1.381 . S
C2212 C2218 1.383 . S
C2213 C2209 1.495 . S
C2213 H2219 0.959 . S
C2213 H2220 0.961 . S
C2213 H2221 0.960 . S
C2214 C2212 1.381 . S
C2214 C2215 1.394 . S
C2214 H2222 0.930 . S
C2215 C2214 1.394 . S
C2215 C2216 1.383 . S
C2215 H2223 0.929 . S
C2216 C2215 1.383 . S
C2216 C2217 1.377 . S
C2217 H2201 0.930 . S
C2217 C2216 1.377 . S
C2217 C2218 1.379 . S
C2218 H2202 0.931 . S
C2218 C2212 1.383 . S
C2218 C2217 1.379 . S
H2219 C2213 0.959 . S
H2220 C2213 0.961 . S
H2221 C2213 0.960 . S
H2222 C2214 0.930 . S
H2223 C2215 0.929 . S
H2224 C2232 0.929 . S
H2225 C2234 0.930 . S
H2226 C2236 0.930 . S
H2227 C2239 0.929 . S
H2228 C2242 0.930 . S
H2229 C2244 0.960 . S
H2230 C2244 0.960 . S
H2231 C2244 0.960 . S
C2232 H2224 0.929 . S
C2232 C2233 1.377 . S
C2232 C2234 1.384 . S
C2233 C2232 1.377 . S
C2233 C2239 1.390 . S
C2234 H2225 0.930 . S
C2234 C2232 1.384 . S
C2234 C2235 1.372 . S
C2235 C2234 1.372 . S
C2235 C2236 1.400 . S
C2235 C2240 1.490 . S
C2236 H2226 0.930 . S
C2236 C2235 1.400 . S
C2236 C2239 1.386 . S
H2237 C2253 0.930 . S
H2238 C2254 0.931 . S
C2239 H2227 0.929 . S
C2239 C2233 1.390 . S
C2239 C2236 1.386 . S
C2240 C2235 1.490 . S
C2240 C2242 1.395 . S
C2240 C2243 1.403 . S
H2241 C2247 0.930 . S
C2242 H2228 0.930 . S
C2242 C2240 1.395 . S
C2242 C2245 1.403 . S
C2243 C2240 1.403 . S
C2243 C2244 1.524 . S
C2243 C2247 1.400 . S
C2244 H2229 0.960 . S
C2244 H2230 0.960 . S
C2244 H2231 0.960 . S
C2244 C2243 1.524 . S
C2245 C2242 1.403 . S
C2245 C2246 1.392 . S
C2245 C2249 1.495 . S
C2246 C2245 1.392 . S
C2246 C2247 1.385 . S
C2246 C2248 1.478 . S
C2247 H2241 0.930 . S
C2247 C2243 1.400 . S
C2247 C2246 1.385 . S
C2248 C2246 1.478 . S
C2248 C2250 1.381 . S
C2248 C2254 1.383 . S
C2249 C2245 1.495 . S
C2249 H2255 0.959 . S
C2249 H2256 0.961 . S
C2249 H2257 0.960 . S
C2250 C2248 1.381 . S
C2250 C2251 1.394 . S
C2250 H2258 0.930 . S
C2251 C2250 1.394 . S
C2251 C2252 1.383 . S
C2251 H2259 0.929 . S
C2252 C2251 1.383 . S
C2252 C2253 1.377 . S
C2253 H2237 0.930 . S
C2253 C2252 1.377 . S
C2253 C2254 1.379 . S
C2254 H2238 0.931 . S
C2254 C2248 1.383 . S
C2254 C2253 1.379 . S
H2255 C2249 0.959 . S
H2256 C2249 0.961 . S
H2257 C2249 0.960 . S
H2258 C2250 0.930 . S
H2259 C2251 0.929 . S
H2260 C2268 0.929 . S
H2261 C2270 0.930 . S
H2262 C2272 0.930 . S
H2263 C2275 0.929 . S
H2264 C2278 0.930 . S
H2265 C2280 0.960 . S
H2266 C2280 0.960 . S
H2267 C2280 0.960 . S
C2268 H2260 0.929 . S
C2268 C2269 1.377 . S
C2268 C2270 1.384 . S
C2269 C2268 1.377 . S
C2269 C2275 1.390 . S
C2270 H2261 0.930 . S
C2270 C2268 1.384 . S
C2270 C2271 1.372 . S
C2271 C2270 1.372 . S
C2271 C2272 1.400 . S
C2271 C2276 1.490 . S
C2272 H2262 0.930 . S
C2272 C2271 1.400 . S
C2272 C2275 1.386 . S
H2273 C2289 0.930 . S
H2274 C2290 0.931 . S
C2275 H2263 0.929 . S
C2275 C2269 1.390 . S
C2275 C2272 1.386 . S
C2276 C2271 1.490 . S
C2276 C2278 1.395 . S
C2276 C2279 1.403 . S
H2277 C2283 0.930 . S
C2278 H2264 0.930 . S
C2278 C2276 1.395 . S
C2278 C2281 1.403 . S
C2279 C2276 1.403 . S
C2279 C2280 1.524 . S
C2279 C2283 1.400 . S
C2280 H2265 0.960 . S
C2280 H2266 0.960 . S
C2280 H2267 0.960 . S
C2280 C2279 1.524 . S
C2281 C2278 1.403 . S
C2281 C2282 1.392 . S
C2281 C2285 1.495 . S
C2282 C2281 1.392 . S
C2282 C2283 1.385 . S
C2282 C2284 1.478 . S
C2283 H2277 0.930 . S
C2283 C2279 1.400 . S
C2283 C2282 1.385 . S
C2284 C2282 1.478 . S
C2284 C2286 1.381 . S
C2284 C2290 1.383 . S
C2285 C2281 1.495 . S
C2285 H2291 0.959 1_545 S
C2285 H2292 0.961 1_545 S
C2285 H2293 0.972 . S
C2286 C2284 1.381 . S
C2286 C2287 1.394 . S
C2286 H2294 0.930 . S
C2287 C2286 1.394 . S
C2287 C2288 1.383 . S
C2287 H2295 0.929 . S
C2288 C2287 1.383 . S
C2288 C2289 1.377 . S
C2289 H2273 0.930 . S
C2289 C2288 1.377 . S
C2289 C2290 1.379 . S
C2290 H2274 0.931 . S
C2290 C2284 1.383 . S
C2290 C2289 1.379 . S
H2291 C2285 0.959 1_565 S
H2292 C2285 0.961 1_565 S
H2293 C2285 0.972 . S
H2294 C2286 0.930 . S
H2295 C2287 0.929 . S
H2296 C2304 0.929 . S
H2297 C2306 0.930 . S
H2298 C2308 0.930 . S
H2299 C2311 0.929 . S
H2300 C2314 0.930 . S
H2301 C2316 0.960 . S
H2302 C2316 0.960 . S
H2303 C2316 0.960 . S
C2304 H2296 0.929 . S
C2304 C2305 1.377 . S
C2304 C2306 1.384 . S
C2305 C2304 1.377 . S
C2305 C2311 1.390 . S
C2306 H2297 0.930 . S
C2306 C2304 1.384 . S
C2306 C2307 1.372 . S
C2307 C2306 1.372 . S
C2307 C2308 1.400 . S
C2307 C2312 1.490 . S
C2308 H2298 0.930 . S
C2308 C2307 1.400 . S
C2308 C2311 1.386 . S
H2309 C2325 0.930 . S
H2310 C2326 0.931 . S
C2311 H2299 0.929 . S
C2311 C2305 1.390 . S
C2311 C2308 1.386 . S
C2312 C2307 1.490 . S
C2312 C2314 1.395 . S
C2312 C2315 1.403 . S
H2313 C2319 0.930 . S
C2314 H2300 0.930 . S
C2314 C2312 1.395 . S
C2314 C2317 1.403 . S
C2315 C2312 1.403 . S
C2315 C2316 1.524 . S
C2315 C2319 1.400 . S
C2316 H2301 0.960 . S
C2316 H2302 0.960 . S
C2316 H2303 0.960 . S
C2316 C2315 1.524 . S
C2317 C2314 1.403 . S
C2317 C2318 1.392 . S
C2317 C2321 1.495 . S
C2318 C2317 1.392 . S
C2318 C2319 1.385 . S
C2318 C2320 1.478 . S
C2319 H2313 0.930 . S
C2319 C2315 1.400 . S
C2319 C2318 1.385 . S
C2320 C2318 1.478 . S
C2320 C2322 1.381 . S
C2320 C2326 1.383 . S
C2321 C2317 1.495 . S
C2321 H2327 0.959 . S
C2321 H2328 0.961 . S
C2321 H2329 0.960 . S
C2322 C2320 1.381 . S
C2322 C2323 1.394 . S
C2322 H2330 0.930 . S
C2323 C2322 1.394 . S
C2323 C2324 1.383 . S
C2323 H2331 0.929 . S
C2324 C2323 1.383 . S
C2324 C2325 1.377 . S
C2325 H2309 0.930 . S
C2325 C2324 1.377 . S
C2325 C2326 1.379 . S
C2326 H2310 0.931 . S
C2326 C2320 1.383 . S
C2326 C2325 1.379 . S
H2327 C2321 0.959 . S
H2328 C2321 0.961 . S
H2329 C2321 0.960 . S
H2330 C2322 0.930 . S
H2331 C2323 0.929 . S
H2332 C2340 0.929 . S
H2333 C2342 0.930 . S
H2334 C2344 0.930 . S
H2335 C2347 0.929 . S
H2336 C2350 0.930 . S
H2337 C2352 0.960 . S
H2338 C2352 0.960 . S
H2339 C2352 0.960 . S
C2340 H2332 0.929 . S
C2340 C2341 1.377 . S
C2340 C2342 1.384 . S
C2341 C2340 1.377 . S
C2341 C2347 1.390 . S
C2342 H2333 0.930 . S
C2342 C2340 1.384 . S
C2342 C2343 1.372 . S
C2343 C2342 1.372 . S
C2343 C2344 1.400 . S
C2343 C2348 1.490 . S
C2344 H2334 0.930 . S
C2344 C2343 1.400 . S
C2344 C2347 1.386 . S
H2345 C2361 0.930 . S
H2346 C2362 0.931 . S
C2347 H2335 0.929 . S
C2347 C2341 1.390 . S
C2347 C2344 1.386 . S
C2348 C2343 1.490 . S
C2348 C2350 1.395 . S
C2348 C2351 1.403 . S
H2349 C2355 0.930 . S
C2350 H2336 0.930 . S
C2350 C2348 1.395 . S
C2350 C2353 1.403 . S
C2351 C2348 1.403 . S
C2351 C2352 1.524 . S
C2351 C2355 1.400 . S
C2352 H2337 0.960 . S
C2352 H2338 0.960 . S
C2352 H2339 0.960 . S
C2352 C2351 1.524 . S
C2353 C2350 1.403 . S
C2353 C2354 1.392 . S
C2353 C2357 1.495 . S
C2354 C2353 1.392 . S
C2354 C2355 1.385 . S
C2354 C2356 1.478 . S
C2355 H2349 0.930 . S
C2355 C2351 1.400 . S
C2355 C2354 1.385 . S
C2356 C2354 1.478 . S
C2356 C2358 1.381 . S
C2356 C2362 1.383 . S
C2357 C2353 1.495 . S
C2357 H2363 0.959 . S
C2357 H2364 0.961 . S
C2357 H2365 0.960 . S
C2358 C2356 1.381 . S
C2358 C2359 1.394 . S
C2358 H2366 0.930 . S
C2359 C2358 1.394 . S
C2359 C2360 1.383 . S
C2359 H2367 0.929 . S
C2360 C2359 1.383 . S
C2360 C2361 1.377 . S
C2361 H2345 0.930 . S
C2361 C2360 1.377 . S
C2361 C2362 1.379 . S
C2362 H2346 0.931 . S
C2362 C2356 1.383 . S
C2362 C2361 1.379 . S
H2363 C2357 0.959 . S
H2364 C2357 0.961 . S
H2365 C2357 0.960 . S
H2366 C2358 0.930 . S
H2367 C2359 0.929 . S
H2368 C2376 0.929 . S
H2369 C2378 0.930 . S
H2370 C2380 0.930 . S
H2371 C2383 0.929 . S
H2372 C2386 0.930 . S
H2373 C2388 0.960 . S
H2374 C2388 0.960 . S
H2375 C2388 0.960 . S
C2376 H2368 0.929 . S
C2376 C2377 1.377 . S
C2376 C2378 1.384 . S
C2377 C2376 1.377 . S
C2377 C2383 1.390 . S
C2378 H2369 0.930 . S
C2378 C2376 1.384 . S
C2378 C2379 1.372 . S
C2379 C2378 1.372 . S
C2379 C2380 1.400 . S
C2379 C2384 1.490 . S
C2380 H2370 0.930 . S
C2380 C2379 1.400 . S
C2380 C2383 1.386 . S
H2381 C2397 0.930 . S
H2382 C2398 0.931 . S
C2383 H2371 0.929 . S
C2383 C2377 1.390 . S
C2383 C2380 1.386 . S
C2384 C2379 1.490 . S
C2384 C2386 1.395 . S
C2384 C2387 1.403 . S
H2385 C2391 0.930 . S
C2386 H2372 0.930 . S
C2386 C2384 1.395 . S
C2386 C2389 1.403 . S
C2387 C2384 1.403 . S
C2387 C2388 1.524 . S
C2387 C2391 1.400 . S
C2388 H2373 0.960 . S
C2388 H2374 0.960 . S
C2388 H2375 0.960 . S
C2388 C2387 1.524 . S
C2389 C2386 1.403 . S
C2389 C2390 1.392 . S
C2389 C2393 1.495 . S
C2390 C2389 1.392 . S
C2390 C2391 1.385 . S
C2390 C2392 1.478 . S
C2391 H2385 0.930 . S
C2391 C2387 1.400 . S
C2391 C2390 1.385 . S
C2392 C2390 1.478 . S
C2392 C2394 1.381 . S
C2392 C2398 1.383 . S
C2393 C2389 1.495 . S
C2393 H2399 0.959 . S
C2393 H2400 0.961 . S
C2393 H2401 0.960 . S
C2394 C2392 1.381 . S
C2394 C2395 1.394 . S
C2394 H2402 0.930 . S
C2395 C2394 1.394 . S
C2395 C2396 1.383 . S
C2395 H2403 0.929 . S
C2396 C2395 1.383 . S
C2396 C2397 1.377 . S
C2397 H2381 0.930 . S
C2397 C2396 1.377 . S
C2397 C2398 1.379 . S
C2398 H2382 0.931 . S
C2398 C2392 1.383 . S
C2398 C2397 1.379 . S
H2399 C2393 0.959 . S
H2400 C2393 0.961 . S
H2401 C2393 0.960 . S
H2402 C2394 0.930 . S
H2403 C2395 0.929 . S
H2404 C2412 0.929 . S
H2405 C2414 0.930 1_655 S
H2406 C2416 0.930 . S
H2407 C2419 0.929 . S
H2408 C2422 0.930 . S
H2409 C2424 0.960 . S
H2410 C2424 0.960 . S
H2411 C2424 0.960 . S
C2412 H2404 0.929 . S
C2412 C2413 1.377 . S
C2412 C2414 1.384 . S
C2413 C2412 1.377 . S
C2413 C2419 1.390 . S
C2414 H2405 0.930 1_455 S
C2414 C2412 1.384 . S
C2414 C2415 1.372 . S
C2415 C2414 1.372 . S
C2415 C2416 1.400 . S
C2415 C2420 1.490 . S
C2416 H2406 0.930 . S
C2416 C2415 1.400 . S
C2416 C2419 1.386 . S
H2417 C2433 0.930 . S
H2418 C2434 0.931 . S
C2419 H2407 0.929 . S
C2419 C2413 1.390 . S
C2419 C2416 1.386 . S
C2420 C2415 1.490 . S
C2420 C2422 1.395 . S
C2420 C2423 1.403 . S
H2421 C2427 0.930 . S
C2422 H2408 0.930 . S
C2422 C2420 1.395 . S
C2422 C2425 1.403 1_455 S
C2423 C2420 1.403 . S
C2423 C2424 1.524 . S
C2423 C2427 1.400 . S
C2424 H2409 0.960 . S
C2424 H2410 0.960 . S
C2424 H2411 0.960 . S
C2424 C2423 1.524 . S
C2425 C2422 1.403 1_655 S
C2425 C2426 1.390 1_655 S
C2425 C2429 1.495 1_545 S
C2426 C2425 1.390 1_455 S
C2426 C2427 1.406 . S
C2426 C2428 1.462 1_455 S
C2427 H2421 0.930 . S
C2427 C2423 1.400 . S
C2427 C2426 1.406 . S
C2428 C2426 1.462 1_655 S
C2428 C2430 1.381 . S
C2428 C2434 1.383 1_655 S
C2429 C2425 1.495 1_565 S
C2429 H2435 0.959 . S
C2429 H2436 0.961 . S
C2429 H2437 0.960 . S
C2430 C2428 1.381 . S
C2430 C2431 1.394 . S
C2430 H2438 0.930 . S
C2431 C2430 1.394 . S
C2431 C2432 1.383 . S
C2431 H2439 0.929 . S
C2432 C2431 1.383 . S
C2432 C2433 1.377 1_655 S
C2433 H2417 0.930 . S
C2433 C2432 1.377 1_455 S
C2433 C2434 1.379 . S
C2434 H2418 0.931 . S
C2434 C2428 1.383 1_455 S
C2434 C2433 1.379 . S
H2435 C2429 0.959 . S
H2436 C2429 0.961 . S
H2437 C2429 0.960 . S
H2438 C2430 0.930 . S
H2439 C2431 0.929 . S
H2440 C2448 0.929 . S
H2441 C2450 0.930 . S
H2442 C2452 0.930 . S
H2443 C2455 0.929 . S
H2444 C2458 0.930 . S
H2445 C2460 0.960 . S
H2446 C2460 0.960 . S
H2447 C2460 0.960 . S
C2448 H2440 0.929 . S
C2448 C2449 1.377 . S
C2448 C2450 1.384 . S
C2449 C2448 1.377 . S
C2449 C2455 1.390 . S
C2450 H2441 0.930 . S
C2450 C2448 1.384 . S
C2450 C2451 1.372 . S
C2451 C2450 1.372 . S
C2451 C2452 1.400 . S
C2451 C2456 1.490 . S
C2452 H2442 0.930 . S
C2452 C2451 1.400 . S
C2452 C2455 1.386 . S
H2453 C2469 0.930 . S
H2454 C2470 0.931 . S
C2455 H2443 0.929 . S
C2455 C2449 1.390 . S
C2455 C2452 1.386 . S
C2456 C2451 1.490 . S
C2456 C2458 1.395 . S
C2456 C2459 1.403 . S
H2457 C2463 0.930 . S
C2458 H2444 0.930 . S
C2458 C2456 1.395 . S
C2458 C2461 1.403 . S
C2459 C2456 1.403 . S
C2459 C2460 1.524 . S
C2459 C2463 1.400 . S
C2460 H2445 0.960 . S
C2460 H2446 0.960 . S
C2460 H2447 0.960 . S
C2460 C2459 1.524 . S
C2461 C2458 1.403 . S
C2461 C2462 1.392 . S
C2461 C2465 1.495 . S
C2462 C2461 1.392 . S
C2462 C2463 1.385 . S
C2462 C2464 1.478 . S
C2463 H2457 0.930 . S
C2463 C2459 1.400 . S
C2463 C2462 1.385 . S
C2464 C2462 1.478 . S
C2464 C2466 1.381 . S
C2464 C2470 1.383 . S
C2465 C2461 1.495 . S
C2465 H2471 0.959 . S
C2465 H2472 0.961 . S
C2465 H2473 0.960 . S
C2466 C2464 1.381 . S
C2466 C2467 1.394 . S
C2466 H2474 0.930 . S
C2467 C2466 1.394 . S
C2467 C2468 1.383 . S
C2467 H2475 0.929 . S
C2468 C2467 1.383 . S
C2468 C2469 1.377 . S
C2469 H2453 0.930 . S
C2469 C2468 1.377 . S
C2469 C2470 1.379 . S
C2470 H2454 0.931 . S
C2470 C2464 1.383 . S
C2470 C2469 1.379 . S
H2471 C2465 0.959 . S
H2472 C2465 0.961 . S
H2473 C2465 0.960 . S
H2474 C2466 0.930 . S
H2475 C2467 0.929 . S
H2476 C2484 0.952 . S
H2477 C2486 0.930 . S
H2478 C2488 0.930 . S
H2479 C2491 0.929 . S
H2480 C2494 0.930 . S
H2481 C2496 0.960 . S
H2482 C2496 0.960 . S
H2483 C2496 0.960 . S
C2484 H2476 0.952 . S
C2484 C2485 1.377 . S
C2484 C2486 1.384 . S
C2485 C2484 1.377 . S
C2485 C2491 1.390 . S
C2486 H2477 0.930 . S
C2486 C2484 1.384 . S
C2486 C2487 1.372 . S
C2487 C2486 1.372 . S
C2487 C2488 1.400 . S
C2487 C2492 1.490 . S
C2488 H2478 0.930 . S
C2488 C2487 1.400 . S
C2488 C2491 1.386 . S
H2489 C2505 0.930 . S
H2490 C2506 0.931 . S
C2491 H2479 0.929 . S
C2491 C2485 1.390 . S
C2491 C2488 1.386 . S
C2492 C2487 1.490 . S
C2492 C2494 1.395 . S
C2492 C2495 1.403 . S
H2493 C2499 0.930 . S
C2494 H2480 0.930 . S
C2494 C2492 1.395 . S
C2494 C2497 1.403 . S
C2495 C2492 1.403 . S
C2495 C2496 1.524 . S
C2495 C2499 1.400 . S
C2496 H2481 0.960 . S
C2496 H2482 0.960 . S
C2496 H2483 0.960 . S
C2496 C2495 1.524 . S
C2497 C2494 1.403 . S
C2497 C2498 1.392 . S
C2497 C2501 1.495 . S
C2498 C2497 1.392 . S
C2498 C2499 1.385 . S
C2498 C2500 1.478 . S
C2499 H2493 0.930 . S
C2499 C2495 1.400 . S
C2499 C2498 1.385 . S
C2500 C2498 1.478 . S
C2500 C2502 1.381 . S
C2500 C2506 1.383 . S
C2501 C2497 1.495 . S
C2501 H2507 0.959 . S
C2501 H2508 0.961 . S
C2501 H2509 0.960 . S
C2502 C2500 1.381 . S
C2502 C2503 1.394 . S
C2502 H2510 0.930 . S
C2503 C2502 1.394 . S
C2503 C2504 1.383 . S
C2503 H2511 0.929 . S
C2504 C2503 1.383 . S
C2504 C2505 1.377 . S
C2505 H2489 0.930 . S
C2505 C2504 1.377 . S
C2505 C2506 1.379 . S
C2506 H2490 0.931 . S
C2506 C2500 1.383 . S
C2506 C2505 1.379 . S
H2507 C2501 0.959 . S
H2508 C2501 0.961 . S
H2509 C2501 0.960 . S
H2510 C2502 0.930 . S
H2511 C2503 0.929 . S
H2512 C2520 0.929 . S
H2513 C2522 0.930 . S
H2514 C2524 0.930 . S
H2515 C2527 0.929 . S
H2516 C2530 0.930 . S
H2517 C2532 0.960 . S
H2518 C2532 0.960 . S
H2519 C2532 0.960 . S
C2520 H2512 0.929 . S
C2520 C2521 1.377 . S
C2520 C2522 1.384 . S
C2521 C2520 1.377 . S
C2521 C2527 1.390 . S
C2522 H2513 0.930 . S
C2522 C2520 1.384 . S
C2522 C2523 1.372 . S
C2523 C2522 1.372 . S
C2523 C2524 1.400 . S
C2523 C2528 1.490 . S
C2524 H2514 0.930 . S
C2524 C2523 1.400 . S
C2524 C2527 1.386 . S
H2525 C2541 0.930 . S
H2526 C2542 0.931 . S
C2527 H2515 0.929 . S
C2527 C2521 1.390 . S
C2527 C2524 1.386 . S
C2528 C2523 1.490 . S
C2528 C2530 1.395 . S
C2528 C2531 1.403 . S
H2529 C2535 0.930 . S
C2530 H2516 0.930 . S
C2530 C2528 1.395 . S
C2530 C2533 1.403 . S
C2531 C2528 1.403 . S
C2531 C2532 1.524 . S
C2531 C2535 1.400 . S
C2532 H2517 0.960 . S
C2532 H2518 0.960 . S
C2532 H2519 0.960 . S
C2532 C2531 1.524 . S
C2533 C2530 1.403 . S
C2533 C2534 1.392 . S
C2533 C2537 1.495 . S
C2534 C2533 1.392 . S
C2534 C2535 1.385 . S
C2534 C2536 1.478 . S
C2535 H2529 0.930 . S
C2535 C2531 1.400 . S
C2535 C2534 1.385 . S
C2536 C2534 1.478 . S
C2536 C2538 1.381 . S
C2536 C2542 1.383 . S
C2537 C2533 1.495 . S
C2537 H2543 0.959 . S
C2537 H2544 0.961 . S
C2537 H2545 0.960 . S
C2538 C2536 1.381 . S
C2538 C2539 1.394 . S
C2538 H2546 0.930 . S
C2539 C2538 1.394 . S
C2539 C2540 1.383 . S
C2539 H2547 0.929 . S
C2540 C2539 1.383 . S
C2540 C2541 1.377 . S
C2541 H2525 0.930 . S
C2541 C2540 1.377 . S
C2541 C2542 1.379 . S
C2542 H2526 0.931 . S
C2542 C2536 1.383 . S
C2542 C2541 1.379 . S
H2543 C2537 0.959 . S
H2544 C2537 0.961 . S
H2545 C2537 0.960 . S
H2546 C2538 0.930 . S
H2547 C2539 0.929 . S
H2548 C2556 0.929 . S
H2549 C2558 0.930 . S
H2550 C2560 0.930 . S
H2551 C2563 0.929 . S
H2552 C2566 0.930 . S
H2553 C2568 0.960 . S
H2554 C2568 0.960 . S
H2555 C2568 0.960 . S
C2556 H2548 0.929 . S
C2556 C2557 1.377 . S
C2556 C2558 1.384 . S
C2557 C2556 1.377 . S
C2557 C2563 1.390 . S
C2558 H2549 0.930 . S
C2558 C2556 1.384 . S
C2558 C2559 1.372 . S
C2559 C2558 1.372 . S
C2559 C2560 1.400 . S
C2559 C2564 1.490 . S
C2560 H2550 0.930 . S
C2560 C2559 1.400 . S
C2560 C2563 1.386 . S
H2561 C2577 0.930 . S
H2562 C2578 0.931 . S
C2563 H2551 0.929 . S
C2563 C2557 1.390 . S
C2563 C2560 1.386 . S
C2564 C2559 1.490 . S
C2564 C2566 1.395 . S
C2564 C2567 1.403 1_455 S
H2565 C2571 0.930 . S
C2566 H2552 0.930 . S
C2566 C2564 1.395 . S
C2566 C2569 1.403 . S
C2567 C2564 1.403 1_655 S
C2567 C2568 1.524 . S
C2567 C2571 1.400 . S
C2568 H2553 0.960 . S
C2568 H2554 0.960 . S
C2568 H2555 0.960 . S
C2568 C2567 1.524 . S
C2569 C2566 1.403 . S
C2569 C2570 1.392 . S
C2569 C2573 1.495 . S
C2570 C2569 1.392 . S
C2570 C2571 1.385 1_455 S
C2570 C2572 1.478 . S
C2571 H2565 0.930 . S
C2571 C2567 1.400 . S
C2571 C2570 1.385 1_655 S
C2572 C2570 1.478 . S
C2572 C2574 1.381 . S
C2572 C2578 1.383 . S
C2573 C2569 1.495 . S
C2573 H2579 0.959 . S
C2573 H2580 0.961 . S
C2573 H2581 0.960 . S
C2574 C2572 1.381 . S
C2574 C2575 1.394 . S
C2574 H2582 0.930 . S
C2575 C2574 1.394 . S
C2575 C2576 1.383 . S
C2575 H2583 0.935 . S
C2576 C2575 1.383 . S
C2576 C2577 1.377 . S
C2577 H2561 0.930 . S
C2577 C2576 1.377 . S
C2577 C2578 1.379 . S
C2578 H2562 0.931 . S
C2578 C2572 1.383 . S
C2578 C2577 1.379 . S
H2579 C2573 0.959 . S
H2580 C2573 0.961 . S
H2581 C2573 0.960 . S
H2582 C2574 0.930 . S
H2583 C2575 0.935 . S
H2584 C2592 0.929 . S
H2585 C2594 0.930 . S
H2586 C2596 0.930 . S
H2587 C2599 0.929 . S
H2588 C2602 0.930 . S
H2589 C2604 0.960 . S
H2590 C2604 0.960 . S
H2591 C2604 0.960 . S
C2592 H2584 0.929 . S
C2592 C2593 1.377 . S
C2592 C2594 1.384 . S
C2593 C2592 1.377 . S
C2593 C2599 1.390 . S
C2594 H2585 0.930 . S
C2594 C2592 1.384 . S
C2594 C2595 1.372 . S
C2595 C2594 1.372 . S
C2595 C2596 1.400 . S
C2595 C2600 1.490 . S
C2596 H2586 0.930 . S
C2596 C2595 1.400 . S
C2596 C2599 1.386 . S
H2597 C2613 0.930 . S
H2598 C2614 0.931 . S
C2599 H2587 0.929 . S
C2599 C2593 1.390 . S
C2599 C2596 1.386 . S
C2600 C2595 1.490 . S
C2600 C2602 1.395 . S
C2600 C2603 1.403 . S
H2601 C2607 0.930 . S
C2602 H2588 0.930 . S
C2602 C2600 1.395 . S
C2602 C2605 1.403 . S
C2603 C2600 1.403 . S
C2603 C2604 1.524 . S
C2603 C2607 1.400 . S
C2604 H2589 0.960 . S
C2604 H2590 0.960 . S
C2604 H2591 0.960 . S
C2604 C2603 1.524 . S
C2605 C2602 1.403 . S
C2605 C2606 1.392 . S
C2605 C2609 1.495 . S
C2606 C2605 1.392 . S
C2606 C2607 1.385 . S
C2606 C2608 1.478 . S
C2607 H2601 0.930 . S
C2607 C2603 1.400 . S
C2607 C2606 1.385 . S
C2608 C2606 1.478 . S
C2608 C2610 1.381 . S
C2608 C2614 1.383 . S
C2609 C2605 1.495 . S
C2609 H2615 0.959 . S
C2609 H2616 0.961 . S
C2609 H2617 0.960 . S
C2610 C2608 1.381 . S
C2610 C2611 1.394 . S
C2610 H2618 0.930 . S
C2611 C2610 1.394 . S
C2611 C2612 1.383 . S
C2611 H2619 0.929 . S
C2612 C2611 1.383 . S
C2612 C2613 1.377 . S
C2613 H2597 0.930 . S
C2613 C2612 1.377 . S
C2613 C2614 1.379 . S
C2614 H2598 0.931 . S
C2614 C2608 1.383 . S
C2614 C2613 1.379 . S
H2615 C2609 0.959 . S
H2616 C2609 0.961 . S
H2617 C2609 0.960 . S
H2618 C2610 0.930 . S
H2619 C2611 0.929 . S
H2620 C2628 0.929 . S
H2621 C2630 0.930 . S
H2622 C2632 0.930 . S
H2623 C2635 0.929 . S
H2624 C2638 0.930 . S
H2625 C2640 0.960 . S
H2626 C2640 0.960 . S
H2627 C2640 0.960 1_455 S
C2628 H2620 0.929 . S
C2628 C2629 1.377 1_554 S
C2628 C2630 1.384 1_554 S
C2629 C2628 1.377 1_556 S
C2629 C2635 1.390 . S
C2630 H2621 0.930 . S
C2630 C2628 1.384 1_556 S
C2630 C2631 1.372 . S
C2631 C2630 1.372 . S
C2631 C2632 1.400 . S
C2631 C2636 1.490 . S
C2632 H2622 0.930 . S
C2632 C2631 1.400 . S
C2632 C2635 1.386 . S
H2633 C2649 0.930 . S
H2634 C2650 0.931 . S
C2635 H2623 0.929 . S
C2635 C2629 1.390 . S
C2635 C2632 1.386 . S
C2636 C2631 1.490 . S
C2636 C2638 1.395 . S
C2636 C2639 1.403 . S
H2637 C2643 0.945 . S
C2638 H2624 0.930 . S
C2638 C2636 1.395 . S
C2638 C2641 1.403 . S
C2639 C2636 1.403 . S
C2639 C2640 1.524 1_455 S
C2639 C2643 1.400 . S
C2640 H2625 0.960 . S
C2640 H2626 0.960 . S
C2640 H2627 0.960 1_655 S
C2640 C2639 1.524 1_655 S
C2641 C2638 1.403 . S
C2641 C2642 1.392 . S
C2641 C2645 1.495 . S
C2642 C2641 1.392 . S
C2642 C2643 1.385 . S
C2642 C2644 1.478 . S
C2643 H2637 0.945 . S
C2643 C2639 1.400 . S
C2643 C2642 1.385 . S
C2644 C2642 1.478 . S
C2644 C2646 1.381 . S
C2644 C2650 1.383 . S
C2645 C2641 1.495 . S
C2645 H2651 0.959 . S
C2645 H2652 0.961 . S
C2645 H2653 0.960 . S
C2646 C2644 1.381 . S
C2646 C2647 1.394 . S
C2646 H2654 0.930 . S
C2647 C2646 1.394 . S
C2647 C2648 1.383 . S
C2647 H2655 0.929 . S
C2648 C2647 1.383 . S
C2648 C2649 1.377 . S
C2649 H2633 0.930 . S
C2649 C2648 1.377 . S
C2649 C2650 1.379 . S
C2650 H2634 0.931 . S
C2650 C2644 1.383 . S
C2650 C2649 1.379 . S
H2651 C2645 0.959 . S
H2652 C2645 0.961 . S
H2653 C2645 0.960 . S
H2654 C2646 0.930 . S
H2655 C2647 0.929 . S
H2656 C2664 0.929 . S
H2657 C2666 0.930 . S
H2658 C2668 0.930 . S
H2659 C2671 0.929 . S
H2660 C2674 0.930 . S
H2661 C2676 0.960 . S
H2662 C2676 0.960 . S
H2663 C2676 0.960 . S
C2664 H2656 0.929 . S
C2664 C2665 1.377 . S
C2664 C2666 1.384 . S
C2665 C2664 1.377 . S
C2665 C2671 1.390 . S
C2666 H2657 0.930 . S
C2666 C2664 1.384 . S
C2666 C2667 1.372 . S
C2667 C2666 1.372 . S
C2667 C2668 1.400 . S
C2667 C2672 1.490 . S
C2668 H2658 0.930 . S
C2668 C2667 1.400 . S
C2668 C2671 1.386 . S
H2669 C2685 0.930 . S
H2670 C2686 0.931 . S
C2671 H2659 0.929 . S
C2671 C2665 1.390 . S
C2671 C2668 1.386 . S
C2672 C2667 1.490 . S
C2672 C2674 1.395 . S
C2672 C2675 1.403 . S
H2673 C2679 0.930 . S
C2674 H2660 0.930 . S
C2674 C2672 1.395 . S
C2674 C2677 1.403 . S
C2675 C2672 1.403 . S
C2675 C2676 1.524 . S
C2675 C2679 1.400 . S
C2676 H2661 0.960 . S
C2676 H2662 0.960 . S
C2676 H2663 0.960 . S
C2676 C2675 1.524 . S
C2677 C2674 1.403 . S
C2677 C2678 1.392 . S
C2677 C2681 1.495 . S
C2678 C2677 1.392 . S
C2678 C2679 1.385 . S
C2678 C2680 1.478 . S
C2679 H2673 0.930 . S
C2679 C2675 1.400 . S
C2679 C2678 1.385 . S
C2680 C2678 1.478 . S
C2680 C2682 1.381 . S
C2680 C2686 1.383 . S
C2681 C2677 1.495 . S
C2681 H2687 0.959 . S
C2681 H2688 0.961 . S
C2681 H2689 0.960 . S
C2682 C2680 1.381 . S
C2682 C2683 1.394 . S
C2682 H2690 0.930 . S
C2683 C2682 1.394 . S
C2683 C2684 1.383 . S
C2683 H2691 0.929 . S
C2684 C2683 1.383 . S
C2684 C2685 1.377 . S
C2685 H2669 0.930 . S
C2685 C2684 1.377 . S
C2685 C2686 1.379 . S
C2686 H2670 0.931 . S
C2686 C2680 1.383 . S
C2686 C2685 1.379 . S
H2687 C2681 0.959 . S
H2688 C2681 0.961 . S
H2689 C2681 0.960 . S
H2690 C2682 0.930 . S
H2691 C2683 0.929 . S
H2692 C2700 0.929 . S
H2693 C2702 0.930 . S
H2694 C2704 0.930 . S
H2695 C2707 0.929 . S
H2696 C2710 0.930 . S
H2697 C2712 0.960 . S
H2698 C2712 0.960 . S
H2699 C2712 0.960 . S
C2700 H2692 0.929 . S
C2700 C2701 1.377 . S
C2700 C2702 1.384 . S
C2701 C2700 1.377 . S
C2701 C2707 1.390 . S
C2702 H2693 0.930 . S
C2702 C2700 1.384 . S
C2702 C2703 1.372 . S
C2703 C2702 1.372 . S
C2703 C2704 1.400 . S
C2703 C2708 1.490 . S
C2704 H2694 0.930 . S
C2704 C2703 1.400 . S
C2704 C2707 1.386 . S
H2705 C2721 0.930 . S
H2706 C2722 0.931 . S
C2707 H2695 0.929 . S
C2707 C2701 1.390 . S
C2707 C2704 1.386 . S
C2708 C2703 1.490 . S
C2708 C2710 1.395 . S
C2708 C2711 1.403 . S
H2709 C2715 0.930 . S
C2710 H2696 0.930 . S
C2710 C2708 1.395 . S
C2710 C2713 1.403 . S
C2711 C2708 1.403 . S
C2711 C2712 1.524 . S
C2711 C2715 1.400 . S
C2712 H2697 0.960 . S
C2712 H2698 0.960 . S
C2712 H2699 0.960 . S
C2712 C2711 1.524 . S
C2713 C2710 1.403 . S
C2713 C2714 1.392 . S
C2713 C2717 1.495 . S
C2714 C2713 1.392 . S
C2714 C2715 1.385 . S
C2714 C2716 1.478 . S
C2715 H2709 0.930 . S
C2715 C2711 1.400 . S
C2715 C2714 1.385 . S
C2716 C2714 1.478 . S
C2716 C2718 1.381 . S
C2716 C2722 1.383 . S
C2717 C2713 1.495 . S
C2717 H2723 0.959 . S
C2717 H2724 0.961 . S
C2717 H2725 0.960 . S
C2718 C2716 1.381 . S
C2718 C2719 1.394 . S
C2718 H2726 0.930 . S
C2719 C2718 1.394 . S
C2719 C2720 1.383 . S
C2719 H2727 0.929 . S
C2720 C2719 1.383 . S
C2720 C2721 1.377 . S
C2721 H2705 0.930 . S
C2721 C2720 1.377 . S
C2721 C2722 1.379 . S
C2722 H2706 0.931 . S
C2722 C2716 1.383 . S
C2722 C2721 1.379 . S
H2723 C2717 0.959 . S
H2724 C2717 0.961 . S
H2725 C2717 0.960 . S
H2726 C2718 0.930 . S
H2727 C2719 0.929 . S
H2728 C2736 0.929 . S
H2729 C2738 0.930 . S
H2730 C2740 0.930 . S
H2731 C2743 0.929 . S
H2732 C2746 0.930 . S
H2733 C2748 0.960 . S
H2734 C2748 0.960 . S
H2735 C2748 0.960 . S
C2736 H2728 0.929 . S
C2736 C2737 1.377 . S
C2736 C2738 1.384 . S
C2737 C2736 1.377 . S
C2737 C2743 1.390 . S
C2738 H2729 0.930 . S
C2738 C2736 1.384 . S
C2738 C2739 1.372 . S
C2739 C2738 1.372 . S
C2739 C2740 1.400 . S
C2739 C2744 1.490 . S
C2740 H2730 0.930 . S
C2740 C2739 1.400 . S
C2740 C2743 1.386 . S
H2741 C2757 0.930 . S
H2742 C2758 0.931 . S
C2743 H2731 0.929 . S
C2743 C2737 1.390 . S
C2743 C2740 1.386 . S
C2744 C2739 1.490 . S
C2744 C2746 1.395 . S
C2744 C2747 1.403 . S
H2745 C2751 0.930 . S
C2746 H2732 0.930 . S
C2746 C2744 1.395 . S
C2746 C2749 1.403 . S
C2747 C2744 1.403 . S
C2747 C2748 1.524 . S
C2747 C2751 1.400 . S
C2748 H2733 0.960 . S
C2748 H2734 0.960 . S
C2748 H2735 0.960 . S
C2748 C2747 1.524 . S
C2749 C2746 1.403 . S
C2749 C2750 1.392 . S
C2749 C2753 1.495 . S
C2750 C2749 1.392 . S
C2750 C2751 1.385 . S
C2750 C2752 1.478 . S
C2751 H2745 0.930 . S
C2751 C2747 1.400 . S
C2751 C2750 1.385 . S
C2752 C2750 1.478 . S
C2752 C2754 1.381 . S
C2752 C2758 1.383 . S
C2753 C2749 1.495 . S
C2753 H2759 0.959 . S
C2753 H2760 0.961 . S
C2753 H2761 0.960 . S
C2754 C2752 1.381 . S
C2754 C2755 1.394 . S
C2754 H2762 0.930 . S
C2755 C2754 1.394 . S
C2755 C2756 1.383 . S
C2755 H2763 0.929 . S
C2756 C2755 1.383 . S
C2756 C2757 1.377 . S
C2757 H2741 0.930 . S
C2757 C2756 1.377 . S
C2757 C2758 1.379 . S
C2758 H2742 0.931 . S
C2758 C2752 1.383 . S
C2758 C2757 1.379 . S
H2759 C2753 0.959 . S
H2760 C2753 0.961 . S
H2761 C2753 0.960 . S
H2762 C2754 0.930 . S
H2763 C2755 0.929 . S
H2764 C2772 0.929 . S
H2765 C2774 0.930 . S
H2766 C2776 0.930 . S
H2767 C2779 0.929 . S
H2768 C2782 0.930 . S
H2769 C2784 0.960 . S
H2770 C2784 0.960 . S
H2771 C2784 0.960 . S
C2772 H2764 0.929 . S
C2772 C2773 1.377 . S
C2772 C2774 1.384 . S
C2773 C2772 1.377 . S
C2773 C2779 1.390 . S
C2774 H2765 0.930 . S
C2774 C2772 1.384 . S
C2774 C2775 1.372 1_556 S
C2775 C2774 1.372 1_554 S
C2775 C2776 1.400 . S
C2775 C2780 1.490 . S
C2776 H2766 0.930 . S
C2776 C2775 1.400 . S
C2776 C2779 1.386 1_554 S
H2777 C2793 0.930 . S
H2778 C2794 0.931 . S
C2779 H2767 0.929 . S
C2779 C2773 1.390 . S
C2779 C2776 1.386 1_556 S
C2780 C2775 1.490 . S
C2780 C2782 1.395 . S
C2780 C2783 1.403 . S
H2781 C2787 0.930 . S
C2782 H2768 0.930 . S
C2782 C2780 1.395 . S
C2782 C2785 1.403 . S
C2783 C2780 1.403 . S
C2783 C2784 1.524 . S
C2783 C2787 1.400 . S
C2784 H2769 0.960 . S
C2784 H2770 0.960 . S
C2784 H2771 0.960 . S
C2784 C2783 1.524 . S
C2785 C2782 1.403 . S
C2785 C2786 1.392 . S
C2785 C2789 1.495 . S
C2786 C2785 1.392 . S
C2786 C2787 1.385 . S
C2786 C2788 1.478 . S
C2787 H2781 0.930 . S
C2787 C2783 1.400 . S
C2787 C2786 1.385 . S
C2788 C2786 1.478 . S
C2788 C2790 1.381 . S
C2788 C2794 1.383 . S
C2789 C2785 1.495 . S
C2789 H2795 0.959 . S
C2789 H2796 0.961 . S
C2789 H2797 0.960 . S
C2790 C2788 1.381 . S
C2790 C2791 1.394 . S
C2790 H2798 0.930 . S
C2791 C2790 1.394 . S
C2791 C2792 1.383 . S
C2791 H2799 0.929 . S
C2792 C2791 1.383 . S
C2792 C2793 1.377 . S
C2793 H2777 0.930 . S
C2793 C2792 1.377 . S
C2793 C2794 1.379 . S
C2794 H2778 0.931 . S
C2794 C2788 1.383 . S
C2794 C2793 1.379 . S
H2795 C2789 0.959 . S
H2796 C2789 0.961 . S
H2797 C2789 0.960 . S
H2798 C2790 0.930 . S
H2799 C2791 0.929 . S
H2800 C2808 0.929 . S
H2801 C2810 0.930 . S
H2802 C2812 0.930 . S
H2803 C2815 0.929 . S
H2804 C2818 0.930 . S
H2805 C2820 0.960 . S
H2806 C2820 0.960 . S
H2807 C2820 0.960 . S
C2808 H2800 0.929 . S
C2808 C2809 1.377 . S
C2808 C2810 1.384 . S
C2809 C2808 1.377 . S
C2809 C2815 1.390 . S
C2810 H2801 0.930 . S
C2810 C2808 1.384 . S
C2810 C2811 1.372 . S
C2811 C2810 1.372 . S
C2811 C2812 1.400 . S
C2811 C2816 1.490 . S
C2812 H2802 0.930 . S
C2812 C2811 1.400 . S
C2812 C2815 1.386 . S
H2813 C2829 0.930 . S
H2814 C2830 0.931 . S
C2815 H2803 0.929 . S
C2815 C2809 1.390 . S
C2815 C2812 1.386 . S
C2816 C2811 1.490 . S
C2816 C2818 1.395 . S
C2816 C2819 1.403 . S
H2817 C2823 0.930 . S
C2818 H2804 0.930 . S
C2818 C2816 1.395 . S
C2818 C2821 1.403 . S
C2819 C2816 1.403 . S
C2819 C2820 1.524 . S
C2819 C2823 1.400 . S
C2820 H2805 0.960 . S
C2820 H2806 0.960 . S
C2820 H2807 0.960 . S
C2820 C2819 1.524 . S
C2821 C2818 1.403 . S
C2821 C2822 1.392 . S
C2821 C2825 1.495 . S
C2822 C2821 1.392 . S
C2822 C2823 1.385 . S
C2822 C2824 1.478 . S
C2823 H2817 0.930 . S
C2823 C2819 1.400 . S
C2823 C2822 1.385 . S
C2824 C2822 1.478 . S
C2824 C2826 1.381 . S
C2824 C2830 1.383 . S
C2825 C2821 1.495 . S
C2825 H2831 0.959 . S
C2825 H2832 0.961 . S
C2825 H2833 0.960 . S
C2826 C2824 1.381 . S
C2826 C2827 1.394 . S
C2826 H2834 0.930 . S
C2827 C2826 1.394 . S
C2827 C2828 1.383 . S
C2827 H2835 0.929 . S
C2828 C2827 1.383 . S
C2828 C2829 1.377 . S
C2829 H2813 0.930 . S
C2829 C2828 1.377 . S
C2829 C2830 1.379 . S
C2830 H2814 0.931 . S
C2830 C2824 1.383 . S
C2830 C2829 1.379 . S
H2831 C2825 0.959 . S
H2832 C2825 0.961 . S
H2833 C2825 0.960 . S
H2834 C2826 0.930 . S
H2835 C2827 0.929 . S
H2836 C2844 0.929 . S
H2837 C2846 0.930 . S
H2838 C2848 0.930 . S
H2839 C2851 0.929 . S
H2840 C2854 0.930 . S
H2841 C2856 0.960 . S
H2842 C2856 0.960 . S
H2843 C2856 0.960 . S
C2844 H2836 0.929 . S
C2844 C2845 1.377 . S
C2844 C2846 1.384 . S
C2845 C2844 1.377 . S
C2845 C2851 1.390 . S
C2846 H2837 0.930 . S
C2846 C2844 1.384 . S
C2846 C2847 1.372 . S
C2847 C2846 1.372 . S
C2847 C2848 1.400 . S
C2847 C2852 1.490 . S
C2848 H2838 0.930 . S
C2848 C2847 1.400 . S
C2848 C2851 1.386 . S
H2849 C2865 0.930 . S
H2850 C2866 0.931 . S
C2851 H2839 0.929 . S
C2851 C2845 1.390 . S
C2851 C2848 1.386 . S
C2852 C2847 1.490 . S
C2852 C2854 1.395 . S
C2852 C2855 1.403 . S
H2853 C2859 0.930 . S
C2854 H2840 0.930 . S
C2854 C2852 1.395 . S
C2854 C2857 1.403 . S
C2855 C2852 1.403 . S
C2855 C2856 1.524 . S
C2855 C2859 1.400 . S
C2856 H2841 0.960 . S
C2856 H2842 0.960 . S
C2856 H2843 0.960 . S
C2856 C2855 1.524 . S
C2857 C2854 1.403 . S
C2857 C2858 1.392 . S
C2857 C2861 1.495 . S
C2858 C2857 1.392 . S
C2858 C2859 1.385 . S
C2858 C2860 1.478 . S
C2859 H2853 0.930 . S
C2859 C2855 1.400 . S
C2859 C2858 1.385 . S
C2860 C2858 1.478 . S
C2860 C2862 1.381 . S
C2860 C2866 1.383 . S
C2861 C2857 1.495 . S
C2861 H2867 0.959 . S
C2861 H2868 0.961 . S
C2861 H2869 0.960 . S
C2862 C2860 1.381 . S
C2862 C2863 1.394 . S
C2862 H2870 0.930 . S
C2863 C2862 1.394 . S
C2863 C2864 1.383 . S
C2863 H2871 0.929 . S
C2864 C2863 1.383 . S
C2864 C2865 1.377 . S
C2865 H2849 0.930 . S
C2865 C2864 1.377 . S
C2865 C2866 1.379 . S
C2866 H2850 0.931 . S
C2866 C2860 1.383 . S
C2866 C2865 1.379 . S
H2867 C2861 0.959 . S
H2868 C2861 0.961 . S
H2869 C2861 0.960 . S
H2870 C2862 0.930 . S
H2871 C2863 0.929 . S
H2872 C2880 0.929 . S
H2873 C2882 0.930 . S
H2874 C2884 0.930 . S
H2875 C2887 0.929 . S
H2876 C2890 0.930 . S
H2877 C2892 0.960 . S
H2878 C2892 0.960 . S
H2879 C2892 0.960 . S
C2880 H2872 0.929 . S
C2880 C2881 1.377 . S
C2880 C2882 1.384 . S
C2881 C2880 1.377 . S
C2881 C2887 1.390 . S
C2882 H2873 0.930 . S
C2882 C2880 1.384 . S
C2882 C2883 1.372 . S
C2883 C2882 1.372 . S
C2883 C2884 1.400 . S
C2883 C2888 1.490 . S
C2884 H2874 0.930 . S
C2884 C2883 1.400 . S
C2884 C2887 1.386 . S
H2885 C2901 0.930 . S
H2886 C2902 0.931 . S
C2887 H2875 0.929 . S
C2887 C2881 1.390 . S
C2887 C2884 1.386 . S
C2888 C2883 1.490 . S
C2888 C2890 1.395 . S
C2888 C2891 1.403 . S
H2889 C2895 0.930 . S
C2890 H2876 0.930 . S
C2890 C2888 1.395 . S
C2890 C2893 1.403 . S
C2891 C2888 1.403 . S
C2891 C2892 1.524 . S
C2891 C2895 1.400 . S
C2892 H2877 0.960 . S
C2892 H2878 0.960 . S
C2892 H2879 0.960 . S
C2892 C2891 1.524 . S
C2893 C2890 1.403 . S
C2893 C2894 1.392 . S
C2893 C2897 1.495 . S
C2894 C2893 1.392 . S
C2894 C2895 1.385 . S
C2894 C2896 1.478 . S
C2895 H2889 0.930 . S
C2895 C2891 1.400 . S
C2895 C2894 1.385 . S
C2896 C2894 1.478 . S
C2896 C2898 1.381 . S
C2896 C2902 1.383 . S
C2897 C2893 1.495 . S
C2897 H2903 0.959 . S
C2897 H2904 0.961 . S
C2897 H2905 0.960 . S
C2898 C2896 1.381 . S
C2898 C2899 1.394 . S
C2898 H2906 0.930 . S
C2899 C2898 1.394 . S
C2899 C2900 1.383 . S
C2899 H2907 0.929 . S
C2900 C2899 1.383 . S
C2900 C2901 1.377 . S
C2901 H2885 0.930 . S
C2901 C2900 1.377 . S
C2901 C2902 1.379 . S
C2902 H2886 0.931 . S
C2902 C2896 1.383 . S
C2902 C2901 1.379 . S
H2903 C2897 0.959 . S
H2904 C2897 0.961 . S
H2905 C2897 0.960 . S
H2906 C2898 0.930 . S
H2907 C2899 0.929 . S
H2908 C2916 0.929 . S
H2909 C2918 0.930 . S
H2910 C2920 0.930 . S
H2911 C2923 0.929 . S
H2912 C2926 0.930 . S
H2913 C2928 0.960 . S
H2914 C2928 0.960 . S
H2915 C2928 0.960 . S
C2916 H2908 0.929 . S
C2916 C2917 1.377 . S
C2916 C2918 1.384 . S
C2917 C2916 1.377 . S
C2917 C2923 1.390 . S
C2918 H2909 0.930 . S
C2918 C2916 1.384 . S
C2918 C2919 1.372 . S
C2919 C2918 1.372 . S
C2919 C2920 1.400 . S
C2919 C2924 1.490 . S
C2920 H2910 0.930 . S
C2920 C2919 1.400 . S
C2920 C2923 1.386 . S
H2921 C2937 0.930 . S
H2922 C2938 0.931 . S
C2923 H2911 0.929 . S
C2923 C2917 1.390 . S
C2923 C2920 1.386 . S
C2924 C2919 1.490 . S
C2924 C2926 1.395 . S
C2924 C2927 1.403 . S
H2925 C2931 0.930 . S
C2926 H2912 0.930 . S
C2926 C2924 1.395 . S
C2926 C2929 1.403 . S
C2927 C2924 1.403 . S
C2927 C2928 1.524 . S
C2927 C2931 1.400 . S
C2928 H2913 0.960 . S
C2928 H2914 0.960 . S
C2928 H2915 0.960 . S
C2928 C2927 1.524 . S
C2929 C2926 1.403 . S
C2929 C2930 1.392 . S
C2929 C2933 1.495 . S
C2930 C2929 1.392 . S
C2930 C2931 1.385 . S
C2930 C2932 1.478 . S
C2931 H2925 0.930 . S
C2931 C2927 1.400 . S
C2931 C2930 1.385 . S
C2932 C2930 1.478 . S
C2932 C2934 1.381 . S
C2932 C2938 1.383 . S
C2933 C2929 1.495 . S
C2933 H2939 0.959 . S
C2933 H2940 0.961 . S
C2933 H2941 0.960 . S
C2934 C2932 1.381 . S
C2934 C2935 1.394 . S
C2934 H2942 0.930 . S
C2935 C2934 1.394 . S
C2935 C2936 1.383 . S
C2935 H2943 0.929 . S
C2936 C2935 1.383 . S
C2936 C2937 1.377 . S
C2937 H2921 0.930 . S
C2937 C2936 1.377 . S
C2937 C2938 1.379 . S
C2938 H2922 0.931 . S
C2938 C2932 1.383 . S
C2938 C2937 1.379 . S
H2939 C2933 0.959 . S
H2940 C2933 0.961 . S
H2941 C2933 0.960 . S
H2942 C2934 0.930 . S
H2943 C2935 0.929 . S
H2944 C2952 0.930 1_554 S
H2945 C2954 0.921 1_554 S
H2946 C2956 0.930 . S
H2947 C2959 0.929 . S
H2948 C2962 0.930 . S
H2949 C2964 0.960 . S
H2950 C2964 0.960 . S
H2951 C2964 0.960 . S
C2952 H2944 0.930 1_556 S
C2952 C2953 1.377 . S
C2952 C2954 1.380 . S
C2953 C2952 1.377 . S
C2953 C2959 1.390 . S
C2954 H2945 0.921 1_556 S
C2954 C2952 1.380 . S
C2954 C2955 1.386 . S
C2955 C2954 1.386 . S
C2955 C2956 1.400 . S
C2955 C2960 1.490 . S
C2956 H2946 0.930 . S
C2956 C2955 1.400 . S
C2956 C2959 1.386 . S
H2957 C2973 0.930 . S
H2958 C2974 0.931 . S
C2959 H2947 0.929 . S
C2959 C2953 1.390 . S
C2959 C2956 1.386 . S
C2960 C2955 1.490 . S
C2960 C2962 1.395 . S
C2960 C2963 1.403 1_556 S
H2961 C2967 0.940 . S
C2962 H2948 0.930 . S
C2962 C2960 1.395 . S
C2962 C2965 1.403 . S
C2963 C2960 1.403 1_554 S
C2963 C2964 1.524 . S
C2963 C2967 1.405 . S
C2964 H2949 0.960 . S
C2964 H2950 0.960 . S
C2964 H2951 0.960 . S
C2964 C2963 1.524 . S
C2965 C2962 1.403 . S
C2965 C2966 1.392 . S
C2965 C2969 1.495 . S
C2966 C2965 1.392 . S
C2966 C2967 1.371 1_556 S
C2966 C2968 1.478 . S
C2967 H2961 0.940 . S
C2967 C2963 1.405 . S
C2967 C2966 1.371 1_554 S
C2968 C2966 1.478 . S
C2968 C2970 1.381 . S
C2968 C2974 1.383 . S
C2969 C2965 1.495 . S
C2969 H2975 0.959 . S
C2969 H2976 0.961 . S
C2969 H2977 0.960 . S
C2970 C2968 1.381 . S
C2970 C2971 1.394 . S
C2970 H2978 0.893 1_556 S
C2971 C2970 1.394 . S
C2971 C2972 1.383 . S
C2971 H2979 0.929 1_556 S
C2972 C2971 1.383 . S
C2972 C2973 1.377 . S
C2973 H2957 0.930 . S
C2973 C2972 1.377 . S
C2973 C2974 1.379 . S
C2974 H2958 0.931 . S
C2974 C2968 1.383 . S
C2974 C2973 1.379 . S
H2975 C2969 0.959 . S
H2976 C2969 0.961 . S
H2977 C2969 0.960 . S
H2978 C2970 0.893 1_554 S
H2979 C2971 0.929 1_554 S
H2980 C2988 0.929 . S
H2981 C2990 0.930 . S
H2982 C2992 0.930 . S
H2983 C2995 0.929 . S
H2984 C2998 0.930 . S
H2985 C3000 0.960 . S
H2986 C3000 0.960 . S
H2987 C3000 0.960 . S
C2988 H2980 0.929 . S
C2988 C2989 1.377 . S
C2988 C2990 1.384 . S
C2989 C2988 1.377 . S
C2989 C2995 1.390 . S
C2990 H2981 0.930 . S
C2990 C2988 1.384 . S
C2990 C2991 1.372 . S
C2991 C2990 1.372 . S
C2991 C2992 1.400 . S
C2991 C2996 1.490 . S
C2992 H2982 0.930 . S
C2992 C2991 1.400 . S
C2992 C2995 1.386 . S
H2993 C3009 0.930 . S
H2994 C3010 0.931 . S
C2995 H2983 0.929 . S
C2995 C2989 1.390 . S
C2995 C2992 1.386 . S
C2996 C2991 1.490 . S
C2996 C2998 1.395 . S
C2996 C2999 1.403 . S
H2997 C3003 0.930 . S
C2998 H2984 0.930 . S
C2998 C2996 1.395 . S
C2998 C3001 1.403 . S
C2999 C2996 1.403 . S
C2999 C3000 1.524 . S
C2999 C3003 1.400 . S
C3000 H2985 0.960 . S
C3000 H2986 0.960 . S
C3000 H2987 0.960 . S
C3000 C2999 1.524 . S
C3001 C2998 1.403 . S
C3001 C3002 1.392 . S
C3001 C3005 1.495 . S
C3002 C3001 1.392 . S
C3002 C3003 1.385 . S
C3002 C3004 1.478 . S
C3003 H2997 0.930 . S
C3003 C2999 1.400 . S
C3003 C3002 1.385 . S
C3004 C3002 1.478 . S
C3004 C3006 1.381 . S
C3004 C3010 1.383 . S
C3005 C3001 1.495 . S
C3005 H3011 0.959 . S
C3005 H3012 0.961 . S
C3005 H3013 0.960 . S
C3006 C3004 1.381 . S
C3006 C3007 1.394 . S
C3006 H3014 0.930 . S
C3007 C3006 1.394 . S
C3007 C3008 1.383 . S
C3007 H3015 0.929 . S
C3008 C3007 1.383 . S
C3008 C3009 1.377 . S
C3009 H2993 0.930 . S
C3009 C3008 1.377 . S
C3009 C3010 1.379 . S
C3010 H2994 0.931 . S
C3010 C3004 1.383 . S
C3010 C3009 1.379 . S
H3011 C3005 0.959 . S
H3012 C3005 0.961 . S
H3013 C3005 0.960 . S
H3014 C3006 0.930 . S
H3015 C3007 0.929 . S
H3016 C3024 0.935 . S
H3017 C3026 0.930 1_556 S
H3018 C3028 0.930 . S
H3019 C3031 0.929 . S
H3020 C3034 0.930 . S
H3021 C3036 0.960 . S
H3022 C3036 0.960 . S
H3023 C3036 0.960 . S
C3024 H3016 0.935 . S
C3024 C3025 1.377 . S
C3024 C3026 1.384 . S
C3025 C3024 1.377 . S
C3025 C3031 1.390 . S
C3026 H3017 0.930 1_554 S
C3026 C3024 1.384 . S
C3026 C3027 1.372 . S
C3027 C3026 1.372 . S
C3027 C3028 1.400 . S
C3027 C3032 1.490 . S
C3028 H3018 0.930 . S
C3028 C3027 1.400 . S
C3028 C3031 1.386 . S
H3029 C3045 0.930 . S
H3030 C3046 0.931 . S
C3031 H3019 0.929 . S
C3031 C3025 1.390 . S
C3031 C3028 1.386 . S
C3032 C3027 1.490 . S
C3032 C3034 1.395 1_554 S
C3032 C3035 1.403 . S
H3033 C3039 0.930 . S
C3034 H3020 0.930 . S
C3034 C3032 1.395 1_556 S
C3034 C3037 1.403 . S
C3035 C3032 1.403 . S
C3035 C3036 1.524 . S
C3035 C3039 1.400 . S
C3036 H3021 0.960 . S
C3036 H3022 0.960 . S
C3036 H3023 0.960 . S
C3036 C3035 1.524 . S
C3037 C3034 1.403 . S
C3037 C3038 1.392 1_556 S
C3037 C3041 1.495 . S
C3038 C3037 1.392 1_554 S
C3038 C3039 1.385 . S
C3038 C3040 1.478 . S
C3039 H3033 0.930 . S
C3039 C3035 1.400 . S
C3039 C3038 1.385 . S
C3040 C3038 1.478 . S
C3040 C3042 1.381 1_554 S
C3040 C3046 1.383 . S
C3041 C3037 1.495 . S
C3041 H3047 0.959 . S
C3041 H3048 0.961 . S
C3041 H3049 0.960 . S
C3042 C3040 1.381 1_556 S
C3042 C3043 1.394 . S
C3042 H3050 0.930 . S
C3043 C3042 1.394 . S
C3043 C3044 1.360 1_556 S
C3043 H3051 0.929 . S
C3044 C3043 1.360 1_554 S
C3044 C3045 1.407 . S
C3045 H3029 0.930 . S
C3045 C3044 1.407 . S
C3045 C3046 1.379 . S
C3046 H3030 0.931 . S
C3046 C3040 1.383 . S
C3046 C3045 1.379 . S
H3047 C3041 0.959 . S
H3048 C3041 0.961 . S
H3049 C3041 0.960 . S
H3050 C3042 0.930 . S
H3051 C3043 0.929 . S
H3052 C3060 0.929 . S
H3053 C3062 0.930 . S
H3054 C3064 0.930 . S
H3055 C3067 0.932 . S
H3056 C3070 0.930 1_545 S
H3057 C3072 0.960 . S
H3058 C3072 0.960 . S
H3059 C3072 0.960 . S
C3060 H3052 0.929 . S
C3060 C3061 1.377 . S
C3060 C3062 1.384 1_545 S
C3061 C3060 1.377 . S
C3061 C3067 1.423 . S
C3062 H3053 0.930 . S
C3062 C3060 1.384 1_565 S
C3062 C3063 1.372 . S
C3063 C3062 1.372 . S
C3063 C3064 1.400 . S
C3063 C3068 1.490 . S
C3064 H3054 0.930 . S
C3064 C3063 1.400 . S
C3064 C3067 1.353 1_565 S
H3065 C3081 0.930 . S
H3066 C3082 0.931 . S
C3067 H3055 0.932 . S
C3067 C3061 1.423 . S
C3067 C3064 1.353 1_545 S
C3068 C3063 1.490 . S
C3068 C3070 1.395 . S
C3068 C3071 1.403 . S
H3069 C3075 0.930 . S
C3070 H3056 0.930 1_565 S
C3070 C3068 1.395 . S
C3070 C3073 1.403 . S
C3071 C3068 1.403 . S
C3071 C3072 1.524 . S
C3071 C3075 1.400 . S
C3072 H3057 0.960 . S
C3072 H3058 0.960 . S
C3072 H3059 0.960 . S
C3072 C3071 1.524 . S
C3073 C3070 1.403 . S
C3073 C3074 1.392 . S
C3073 C3077 1.495 . S
C3074 C3073 1.392 . S
C3074 C3075 1.385 . S
C3074 C3076 1.478 . S
C3075 H3069 0.930 . S
C3075 C3071 1.400 . S
C3075 C3074 1.385 . S
C3076 C3074 1.478 . S
C3076 C3078 1.381 . S
C3076 C3082 1.383 . S
C3077 C3073 1.495 . S
C3077 H3083 0.959 1_565 S
C3077 H3084 0.961 . S
C3077 H3085 0.960 . S
C3078 C3076 1.381 . S
C3078 C3079 1.394 . S
C3078 H3086 0.930 . S
C3079 C3078 1.394 . S
C3079 C3080 1.383 . S
C3079 H3087 0.929 . S
C3080 C3079 1.383 . S
C3080 C3081 1.377 . S
C3081 H3065 0.930 . S
C3081 C3080 1.377 . S
C3081 C3082 1.379 . S
C3082 H3066 0.931 . S
C3082 C3076 1.383 . S
C3082 C3081 1.379 . S
H3083 C3077 0.959 1_545 S
H3084 C3077 0.961 . S
H3085 C3077 0.960 . S
H3086 C3078 0.930 . S
H3087 C3079 0.929 . S
C1388 C353 1.905 . S
C1369 C101 1.901 . S
C1424 C412 0.919 . S
C1405 C125 0.864 1_455 S
C1441 C139 2.205 . S
C1460 C529 2.189 . S
C1496 C597 1.915 . S
C1477 C82 1.936 . S
C1532 C676 1.585 . S
C1513 C196 1.618 . S
C1568 C801 1.913 . S
C1549 C234 1.917 . S
C1585 C220 0.630 . S
C1604 C861 0.600 . S
C1640 C969 1.727 . S
C1621 C173 1.717 . S
C1657 C211 1.136 . S
C1676 C1065 1.148 . S
C1712 C1125 0.952 . S
C1693 C182 0.923 . S
C1729 C201 1.343 . S
C1748 C1028 1.454 . S
C1784 C1145 1.260 . S
C1765 C239 1.181 . S
C1801 C135 1.672 . S
C1820 C1213 1.691 . S
C1837 C87 2.000 . S
C1856 C1204 2.168 . S
C1873 C106 1.028 . S
C1892 C1233 1.130 . S
C1909 C116 1.169 . S
C1928 C1241 1.195 . S
C1945 C59 2.063 . S
C1964 C625 2.076 . S
C1981 C268 2.468 . S
C2000 C588 2.479 . S
C2036 C324 1.080 . S
C2017 C291 1.079 . S
C2072 C421 1.432 . S
C2053 C163 1.336 . S
C2089 C78 2.241 . S
C2108 C685 2.270 . S
C2144 C977 1.021 . S
C2125 C215 1.025 . S
C2180 C705 1.687 . S
C2161 C177 1.695 1_545 S
C2216 C889 1.931 . S
C2197 C230 1.920 . S
C2252 C881 1.931 . S
C2233 C272 1.924 . S
C2269 C296 0.890 . S
C2288 C949 0.914 . S
C2305 C158 2.202 . S
C2324 C713 2.198 . S
C2360 C764 1.870 . S
C2341 C253 1.904 . S
C2377 C63 1.601 . S
C2396 C509 1.594 . S
C2432 C617 1.901 . S
C2413 C6 1.922 . S
C2468 C333 0.608 . S
C2449 C30 0.623 . S
C2504 C449 1.741 . S
C2485 C40 1.735 . S
C2521 C21 1.166 . S
C2540 C1153 1.157 . S
C2557 C49 0.896 . S
C2576 C1037 0.928 . S
C2593 C68 1.332 . S
C2612 C1116 1.438 . S
C2629 C11 1.182 1_556 S
C2648 C1057 1.248 . S
C2684 C1301 1.637 . S
C2665 C154 1.626 . S
C2720 C1292 2.181 . S
C2701 C258 2.009 . S
C2756 C1321 1.203 . S
C2737 C277 1.083 . S
C2773 C287 1.174 . S
C2792 C1329 1.176 . S
C2809 C192 2.057 . S
C2828 C793 2.071 . S
C2864 C773 2.434 . S
C2845 C97 2.432 . S
C2900 C852 1.087 . S
C2881 C120 1.085 . S
C2936 C940 1.446 . S
C2917 C144 1.344 . S
C2953 C249 2.244 . S
C2972 C500 2.275 . S
C3008 C441 1.049 . S
C2989 C25 1.053 . S
C3025 C44 1.633 . S
C3044 C537 1.609 . S
C3080 C361 1.934 . S
C3061 C2 1.921 . S
