# Generated by pormake.
# Topology pyr, (3,6)-cn, num edge types: 1
# Building blocks:
#     Node 0, Type 0, BuildingBlock: QEWDON_clean_linker_0, # of connection points: 3
#     Node 1, Type 0, BuildingBlock: QEWDON_clean_linker_0, # of connection points: 3
#     Node 2, Type 0, BuildingBlock: QEWDON_clean_linker_0, # of connection points: 3
#     Node 3, Type 0, BuildingBlock: QEWDON_clean_linker_0, # of connection points: 3
#     Node 4, Type 0, BuildingBlock: QEWDON_clean_linker_0, # of connection points: 3
#     Node 5, Type 0, BuildingBlock: QEWDON_clean_linker_0, # of connection points: 3
#     Node 6, Type 0, BuildingBlock: QEWDON_clean_linker_0, # of connection points: 3
#     Node 7, Type 0, BuildingBlock: QEWDON_clean_linker_0, # of connection points: 3
#     Node 8, Type 1, BuildingBlock: PAMTUU_clean_sbu_0, # of connection points: 6
#     Node 9, Type 1, BuildingBlock: PAMTUU_clean_sbu_0, # of connection points: 6
#     Node 10, Type 1, BuildingBlock: PAMTUU_clean_sbu_0, # of connection points: 6
#     Node 11, Type 1, BuildingBlock: PAMTUU_clean_sbu_0, # of connection points: 6
#     Edge 12, Type (0, 1), BuildingBlock: AJUNOK_clean_linker_0, # of connection points: 2
#     Edge 13, Type (0, 1), BuildingBlock: AJUNOK_clean_linker_0, # of connection points: 2
#     Edge 14, Type (0, 1), BuildingBlock: AJUNOK_clean_linker_0, # of connection points: 2
#     Edge 15, Type (0, 1), BuildingBlock: AJUNOK_clean_linker_0, # of connection points: 2
#     Edge 16, Type (0, 1), BuildingBlock: AJUNOK_clean_linker_0, # of connection points: 2
#     Edge 17, Type (0, 1), BuildingBlock: AJUNOK_clean_linker_0, # of connection points: 2
#     Edge 18, Type (0, 1), BuildingBlock: AJUNOK_clean_linker_0, # of connection points: 2
#     Edge 19, Type (0, 1), BuildingBlock: AJUNOK_clean_linker_0, # of connection points: 2
#     Edge 20, Type (0, 1), BuildingBlock: AJUNOK_clean_linker_0, # of connection points: 2
#     Edge 21, Type (0, 1), BuildingBlock: AJUNOK_clean_linker_0, # of connection points: 2
#     Edge 22, Type (0, 1), BuildingBlock: AJUNOK_clean_linker_0, # of connection points: 2
#     Edge 23, Type (0, 1), BuildingBlock: AJUNOK_clean_linker_0, # of connection points: 2
#     Edge 24, Type (0, 1), BuildingBlock: AJUNOK_clean_linker_0, # of connection points: 2
#     Edge 25, Type (0, 1), BuildingBlock: AJUNOK_clean_linker_0, # of connection points: 2
#     Edge 26, Type (0, 1), BuildingBlock: AJUNOK_clean_linker_0, # of connection points: 2
#     Edge 27, Type (0, 1), BuildingBlock: AJUNOK_clean_linker_0, # of connection points: 2
#     Edge 28, Type (0, 1), BuildingBlock: AJUNOK_clean_linker_0, # of connection points: 2
#     Edge 29, Type (0, 1), BuildingBlock: AJUNOK_clean_linker_0, # of connection points: 2
#     Edge 30, Type (0, 1), BuildingBlock: AJUNOK_clean_linker_0, # of connection points: 2
#     Edge 31, Type (0, 1), BuildingBlock: AJUNOK_clean_linker_0, # of connection points: 2
#     Edge 32, Type (0, 1), BuildingBlock: AJUNOK_clean_linker_0, # of connection points: 2
#     Edge 33, Type (0, 1), BuildingBlock: AJUNOK_clean_linker_0, # of connection points: 2
#     Edge 34, Type (0, 1), BuildingBlock: AJUNOK_clean_linker_0, # of connection points: 2
#     Edge 35, Type (0, 1), BuildingBlock: AJUNOK_clean_linker_0, # of connection points: 2
# Relax obj value: 0.213
# Max RMSD: 0.245
# Mean RMSD: 0.189
data_MOF--net-pyr--node1-PAMTUU_clean_sbu_0--node2-QEWDON_clean_linker_0--edge1-AJUNOK_clean_linker_0
_symmetry_space_group_name_H-M    P1
_symmetry_Int_Tables_number       1
_symmetry_cell_setting            triclinic
loop_
_symmetry_equiv_pos_as_xyz
'x, y, z'
_cell_length_a     28.949272
_cell_length_b     30.302343
_cell_length_c     30.324867
_cell_angle_alpha  90.110462
_cell_angle_beta   89.758256
_cell_angle_gamma 112.567
loop_
_atom_site_label
_atom_site_type_symbol
_atom_site_fract_x
_atom_site_fract_y
_atom_site_fract_z
_atom_type_partial_charge
H0 H 0.46634 0.35194 0.19481 0.0
C1 C 0.45124 0.34573 0.22802 0.0
C2 C 0.45445 0.30786 0.25277 0.0
C3 C 0.42534 0.37319 0.24468 0.0
H4 H 0.43397 0.26837 0.31357 0.0
C5 C 0.43275 0.29838 0.29485 0.0
C6 C 0.40689 0.32536 0.31191 0.0
C7 C 0.40323 0.36264 0.28679 0.0
C8 C 0.41868 0.41077 0.21706 0.0
H9 H 0.38267 0.38304 0.29997 0.0
C10 C 0.37194 0.41499 0.21521 0.0
C11 C 0.36495 0.44963 0.18834 0.0
C12 C 0.45859 0.44203 0.19175 0.0
H13 H 0.49509 0.43994 0.19278 0.0
C14 C 0.45191 0.47678 0.16527 0.0
H15 H 0.34048 0.39049 0.23375 0.0
C16 C 0.40541 0.48063 0.16351 0.0
H17 H 0.40117 0.50813 0.14309 0.0
H18 H 0.48294 0.50089 0.14613 0.0
H19 H 0.16445 0.86936 0.81434 0.0
C20 C 0.18608 0.85049 0.80012 0.0
C21 C 0.23123 0.85445 0.81953 0.0
C22 C 0.16898 0.82305 0.7619 0.0
H23 H 0.29504 0.83492 0.81468 0.0
C24 C 0.25952 0.83108 0.80015 0.0
C25 C 0.24356 0.80429 0.76141 0.0
C26 C 0.1977 0.79982 0.74244 0.0
C27 C 0.12093 0.81966 0.74307 0.0
H28 H 0.18486 0.77912 0.71256 0.0
C29 C 0.1155 0.86111 0.72777 0.0
C30 C 0.06802 0.86066 0.71706 0.0
C31 C 0.07898 0.7768 0.74611 0.0
H32 H 0.08252 0.74468 0.75836 0.0
C33 C 0.03169 0.7759 0.73586 0.0
H34 H 0.14848 0.89379 0.72485 0.0
C35 C 0.026 0.8176 0.72237 0.0
H36 H 0.98849 0.81606 0.717 0.0
H37 H 0.99911 0.74306 0.73958 0.0
H38 H 0.75093 0.51817 0.93393 0.0
C39 C 0.73303 0.48126 0.94431 0.0
C40 C 0.75791 0.46215 0.97446 0.0
C41 C 0.68396 0.45361 0.92936 0.0
H42 H 0.74991 0.40147 1.01512 0.0
C43 C 0.73257 0.41501 0.98978 0.0
C44 C 0.68445 0.3858 0.97502 0.0
C45 C 0.66034 0.40584 0.94509 0.0
C46 C 0.65269 0.47713 0.90681 0.0
H47 H 0.62238 0.38475 0.93495 0.0
C48 C 0.65965 0.49539 0.86248 0.0
C49 C 0.62757 0.51733 0.84493 0.0
C50 C 0.61386 0.48133 0.93213 0.0
H51 H 0.60752 0.46814 0.96572 0.0
C52 C 0.58303 0.50281 0.91516 0.0
H53 H 0.68916 0.49246 0.84214 0.0
C54 C 0.58975 0.52056 0.8723 0.0
H55 H 0.56473 0.53673 0.8602 0.0
H56 H 0.55347 0.5057 0.93548 0.0
H57 H 0.93666 0.84573 0.40682 0.0
C58 C 0.90704 0.82094 0.42693 0.0
C59 C 0.89546 0.83653 0.46818 0.0
C60 C 0.87763 0.77504 0.40967 0.0
H61 H 0.84663 0.81574 0.52471 0.0
C62 C 0.85497 0.80464 0.49267 0.0
C63 C 0.82367 0.75967 0.47604 0.0
C64 C 0.8358 0.74509 0.43463 0.0
C65 C 0.88018 0.7649 0.36113 0.0
H66 H 0.81053 0.71198 0.42009 0.0
C67 C 0.90851 0.73986 0.34185 0.0
C68 C 0.90743 0.73201 0.29509 0.0
C69 C 0.85122 0.78085 0.33328 0.0
H70 H 0.82919 0.79966 0.34679 0.0
C71 C 0.84983 0.77281 0.28802 0.0
H72 H 0.93127 0.72732 0.36262 0.0
C73 C 0.87753 0.74886 0.26919 0.0
H74 H 0.87574 0.74356 0.23377 0.0
H75 H 0.82714 0.78544 0.26725 0.0
H76 H 0.70781 0.79755 1.00386 0.0
C77 C 0.71234 0.81321 0.97124 0.0
C78 C 0.75497 0.81846 0.94581 0.0
C79 C 0.67621 0.8295 0.95494 0.0
H80 H 0.79565 0.84792 0.88627 0.0
C81 C 0.76125 0.84091 0.90446 0.0
C82 C 0.72511 0.85662 0.88751 0.0
C83 C 0.6817 0.84868 0.9123 0.0
C84 C 0.63493 0.83102 0.98322 0.0
H85 H 0.6524 0.85869 0.89908 0.0
C86 C 0.62629 0.87364 0.98618 0.0
C87 C 0.58733 0.87627 1.01241 0.0
C88 C 0.60423 0.79081 1.00713 0.0
H89 H 0.61014 0.75765 1.00535 0.0
C90 C 0.56509 0.79303 1.03301 0.0
H91 H 0.65041 0.90512 0.9684 0.0
C92 C 0.55663 0.83543 1.03574 0.0
H93 H 0.52698 0.83662 0.05701 0.0
H94 H 0.54145 0.76188 0.05135 0.0
H95 H 0.93442 0.29399 0.53341 0.0
C96 C 0.92816 0.29972 0.49909 0.0
C97 C 0.95993 0.29333 0.4667 0.0
C98 C 0.88567 0.30874 0.48745 0.0
H99 H 0.97425 0.29292 0.39701 0.0
C100 C 0.95073 0.29916 0.42218 0.0
C101 C 0.90879 0.30873 0.40978 0.0
C102 C 0.87674 0.31379 0.44263 0.0
C103 C 0.84693 0.30578 0.52121 0.0
H104 H 0.84223 0.31713 0.433 0.0
C105 C 0.81822 0.33413 0.51776 0.0
C106 C 0.77856 0.32797 0.54731 0.0
C107 C 0.83601 0.27198 0.55555 0.0
H108 H 0.85599 0.2484 0.55863 0.0
C109 C 0.79776 0.2668 0.58563 0.0
H110 H 0.8267 0.36098 0.49213 0.0
C111 C 0.76903 0.29437 0.58151 0.0
H112 H 0.7386 0.28866 0.60457 0.0
H113 H 0.78962 0.24052 0.61171 0.0
H114 H 0.45948 0.83099 0.27709 0.0
C115 C 0.42132 0.81422 0.26556 0.0
C116 C 0.40248 0.83897 0.2351 0.0
C117 C 0.39246 0.76607 0.27788 0.0
H118 H 0.33846 0.83375 0.1961 0.0
C119 C 0.35394 0.81481 0.21802 0.0
C120 C 0.32559 0.76644 0.22718 0.0
C121 C 0.34469 0.74302 0.25817 0.0
C122 C 0.41634 0.73475 0.29901 0.0
H123 H 0.32394 0.70535 0.26459 0.0
C124 C 0.42765 0.7334 0.34511 0.0
C125 C 0.44747 0.69948 0.36111 0.0
C126 C 0.42531 0.70241 0.27041 0.0
H127 H 0.41732 0.70235 0.2355 0.0
C128 C 0.44356 0.66918 0.28589 0.0
H129 H 0.42129 0.7581 0.36781 0.0
C130 C 0.45406 0.66745 0.33035 0.0
H131 H 0.4676 0.64039 0.34078 0.0
H132 H 0.44941 0.64422 0.26314 0.0
H133 H 0.26258 0.50152 0.78756 0.0
C134 C 0.24074 0.46773 0.77204 0.0
C135 C 0.25583 0.45633 0.73013 0.0
C136 C 0.1993 0.43434 0.79518 0.0
H137 H 0.241 0.40092 0.68118 0.0
C138 C 0.22869 0.4107 0.71209 0.0
C139 C 0.18742 0.37648 0.73382 0.0
C140 C 0.17289 0.38915 0.77506 0.0
C141 C 0.19026 0.44026 0.84394 0.0
H142 H 0.14288 0.36247 0.7933 0.0
C143 C 0.17775 0.47773 0.8634 0.0
C144 C 0.16852 0.47807 0.91014 0.0
C145 C 0.19367 0.40477 0.87201 0.0
H146 H 0.20371 0.37631 0.85899 0.0
C147 C 0.18407 0.40474 0.91692 0.0
H148 H 0.17513 0.50575 0.84273 0.0
C149 C 0.17128 0.4404 0.93559 0.0
H150 H 0.16337 0.43836 0.97066 0.0
H151 H 0.18641 0.37655 0.93754 0.0
Tb152 Tb 0.10132 0.11117 0.57865 0.0
Tb153 Tb 0.99483 0.09932 0.62495 0.0
C154 C 1.00026 1.02644 0.55072 0.0
C155 C 0.22134 0.16125 0.5181 0.0
C156 C 0.28833 0.23037 0.46206 0.0
C157 C 0.24508 0.23586 0.47774 0.0
C158 C 0.21184 0.20156 0.5057 0.0
C159 C 0.26509 0.15637 0.50368 0.0
C160 C 0.29835 0.19063 0.4758 0.0
C161 C 0.1843 0.12268 0.5435 0.0
O162 O 0.06732 0.14674 0.53429 0.0
O163 O 1.01466 0.16169 0.58373 0.0
O164 O 0.0538 0.15276 0.66396 0.0
O165 O 0.11653 0.17928 0.61262 0.0
O166 O 0.91823 0.08749 0.62119 0.0
O167 O 0.95822 0.10397 0.68303 0.0
O168 O 1.00947 0.03819 0.64701 0.0
O169 O 0.09475 0.06971 0.63893 0.0
O170 O 0.04882 0.04064 0.55712 0.0
O171 O 0.97481 0.05045 0.56789 0.0
C172 C 0.03949 0.17013 0.54653 0.0
O173 O 0.17912 0.132 0.58478 0.0
O174 O 0.14124 0.10159 0.52421 0.0
C175 C 0.09539 0.18599 0.64913 0.0
C176 C 0.87355 0.05559 0.68778 0.0
C177 C 0.80363 0.98573 0.74151 0.0
C178 C 0.82959 0.03238 0.75729 0.0
C179 C 0.86347 0.06698 0.73052 0.0
C180 C 0.8473 1.0094 0.67118 0.0
C181 C 0.81229 0.97472 0.69788 0.0
C182 C 0.91495 0.09177 0.66382 0.0
C183 C 0.05334 0.03647 0.65384 0.0
H184 H 0.23644 0.26606 0.46753 0.0
H185 H 0.17805 0.20575 0.51661 0.0
H186 H 0.2727 0.12526 0.51278 0.0
H187 H 0.3307 0.18483 0.46338 0.0
H188 H 0.82581 0.0418 0.79118 0.0
H189 H 0.88379 0.10227 0.74406 0.0
H190 H 0.85485 0.99972 0.63832 0.0
H191 H 0.79311 0.93901 0.6849 0.0
Tb192 Tb 0.59896 0.12806 0.13802 0.0
Tb193 Tb 0.49355 0.10495 0.08704 0.0
C194 C 0.56556 0.05213 0.06058 0.0
C195 C 0.72034 0.18911 0.19874 0.0
C196 C 0.79947 0.25351 0.24846 0.0
C197 C 0.80921 0.22743 0.21378 0.0
C198 C 0.76989 0.19529 0.18928 0.0
C199 C 0.71096 0.21852 0.23046 0.0
C200 C 0.75019 0.25027 0.25527 0.0
C201 C 0.67938 0.14774 0.17987 0.0
O202 O 0.61816 0.17677 0.08108 0.0
O203 O 0.54114 0.17868 0.0687 0.0
O204 O 0.48925 0.13485 0.15126 0.0
O205 O 0.5714 0.18202 0.15902 0.0
O206 O 0.45487 0.11078 1.03054 0.0
O207 O 0.41552 0.08257 0.09134 0.0
O208 O 0.48296 0.03736 0.11909 0.0
O209 O 0.5429 0.06599 0.1727 0.0
O210 O 0.59259 0.06855 0.09598 0.0
O211 O 0.53013 0.06665 0.04803 0.0
C212 C 0.58997 0.19721 0.06315 0.0
O213 O 0.63548 0.13543 0.19846 0.0
O214 O 0.67656 0.14453 0.13701 0.0
C215 C 0.52433 0.17312 0.16728 0.0
C216 C 0.37519 0.0508 1.02485 0.0
C217 C 0.31543 0.9798 0.96736 0.0
C218 C 0.30979 1.02364 0.96989 0.0
C219 C 0.33968 0.05911 0.99856 0.0
C220 C 0.37891 1.00601 1.02404 0.0
C221 C 0.34926 0.97068 0.9952 0.0
C222 C 0.41134 0.09032 0.04957 0.0
C223 C 0.50339 0.03122 0.15605 0.0
H224 H 0.84686 0.22942 0.20768 0.0
H225 H 0.77796 0.1731 0.16481 0.0
H226 H 0.67307 0.21477 0.23823 0.0
H227 H 0.74123 0.26917 0.28221 0.0
H228 H 0.28425 0.03128 0.94806 0.0
H229 H 0.33663 0.09365 0.9988 0.0
H230 H 0.40614 0.9992 1.04433 0.0
H231 H 0.35419 0.93706 0.99317 0.0
Tb232 Tb 0.53456 0.56415 0.57924 0.0
Tb233 Tb 0.54348 0.66013 0.6298 0.0
C234 C 0.50117 0.64107 0.53336 0.0
C235 C 0.56869 0.46717 0.53845 0.0
C236 C 0.64051 0.42551 0.53576 0.0
C237 C 0.59366 0.40279 0.51539 0.0
C238 C 0.55806 0.42363 0.51659 0.0
C239 C 0.61529 0.48986 0.55881 0.0
C240 C 0.65094 0.46935 0.55734 0.0
C241 C 0.53156 0.48919 0.5404 0.0
O242 O 0.61442 0.60935 0.57541 0.0
O243 O 0.6094 0.68206 0.58665 0.0
O244 O 0.59113 0.63331 0.66937 0.0
O245 O 0.55817 0.55534 0.6465 0.0
O246 O 0.55284 0.73235 0.62647 0.0
O247 O 0.53958 0.69541 0.68864 0.0
O248 O 0.47932 0.60302 0.65912 0.0
O249 O 0.45765 0.55232 0.6004 0.0
O250 O 0.52419 0.61143 0.5287 0.0
O251 O 0.49332 0.65407 0.57324 0.0
C252 C 0.63377 0.65621 0.57171 0.0
O253 O 0.51199 0.48937 0.57909 0.0
O254 O 0.54505 0.53075 0.52147 0.0
C255 C 0.58443 0.588 0.6752 0.0
C256 C 0.49651 0.74554 0.67605 0.0
C257 C 0.40831 0.7596 0.69726 0.0
C258 C 0.44925 0.77475 0.72628 0.0
C259 C 0.49304 0.76782 0.71571 0.0
C260 C 0.45585 0.73095 0.64671 0.0
C261 C 0.41219 0.73812 0.65715 0.0
C262 C 0.54006 0.73295 0.66762 0.0
C263 C 0.44636 0.56644 0.63868 0.0
H264 H 0.58408 0.36843 0.49943 0.0
H265 H 0.52213 0.40556 0.5009 0.0
H266 H 0.62399 0.52338 0.5761 0.0
H267 H 0.68667 0.48772 0.57325 0.0
H268 H 0.44717 0.79162 0.75735 0.0
H269 H 0.5237 0.77878 0.73898 0.0
H270 H 0.45728 0.71291 0.6162 0.0
H271 H 0.38097 0.7256 0.63451 0.0
Tb272 Tb 0.04832 0.65997 0.06817 0.0
Tb273 Tb 0.03801 0.56834 0.12648 0.0
C274 C 0.09163 0.58478 1.03382 0.0
C275 C 1.00688 0.74678 1.01589 0.0
C276 C 0.92388 0.77095 0.99804 0.0
C277 C 0.96433 0.78334 0.96828 0.0
C278 C 1.00553 0.77143 0.97719 0.0
C279 C 0.96683 0.73484 1.04595 0.0
C280 C 0.92578 0.747 1.03719 0.0
C281 C 0.04739 0.72944 1.02277 0.0
O282 O 0.96861 0.61402 0.06632 0.0
O283 O 0.97648 0.5432 0.0789 0.0
O284 O 0.99027 0.59866 0.16214 0.0
O285 O 0.02653 0.67449 0.13449 0.0
O286 O 0.02833 0.49591 0.12683 0.0
O287 O 0.03836 0.53548 0.18743 0.0
O288 O 0.10227 0.62681 0.15366 0.0
O289 O 0.12442 0.67705 0.09411 0.0
O290 O 0.06712 0.61182 1.02304 0.0
O291 O 0.09475 0.57458 0.07562 0.0
C292 C 0.95111 0.56729 0.06267 0.0
O293 O 0.06555 0.73381 0.06249 0.0
O294 O 0.03883 0.68723 1.00669 0.0
C295 C 0.99897 0.64471 0.16477 0.0
C296 C 0.083 0.48468 0.17864 0.0
C297 C 0.17211 0.46788 0.18512 0.0
C298 C 0.16811 0.50771 0.20583 0.0
C299 C 0.12412 0.51623 0.20244 0.0
C300 C 0.08623 0.44356 0.15981 0.0
C301 C 0.13045 0.4353 0.16289 0.0
C302 C 0.03965 0.49733 0.16846 0.0
C303 C 0.13498 0.66373 0.13304 0.0
H304 H 0.9638 0.80187 0.93789 0.0
H305 H 0.03578 0.78046 0.95339 0.0
H306 H 0.96672 0.71503 0.07569 0.0
H307 H 0.89482 0.73632 0.06033 0.0
H308 H 0.19977 0.53336 0.22311 0.0
H309 H 0.12317 0.5485 0.21708 0.0
H310 H 0.05519 0.41878 0.14122 0.0
H311 H 0.13244 0.40393 0.1472 0.0
C312 C 0.32618 0.2949 0.353 0.0
C313 C 0.37852 0.31006 0.3535 0.0
C314 C 0.29735 0.27153 0.38944 0.0
C315 C 0.31995 0.26269 0.4276 0.0
H316 H 0.30723 0.29856 0.32333 0.0
H317 H 0.25697 0.25785 0.38668 0.0
S318 S 0.45626 0.30284 0.44779 0.0
N319 N 0.45224 0.31981 0.39669 0.0
N320 N 0.39807 0.27651 0.46568 0.0
C321 C 0.37248 0.28081 0.42957 0.0
C322 C 0.40178 0.30436 0.39237 0.0
C323 C 0.30087 0.91905 0.85727 0.0
C324 C 0.25111 0.88573 0.85817 0.0
C325 C 0.32122 0.94908 0.89312 0.0
C326 C 0.29243 0.94701 0.93091 0.0
H327 H 0.32417 0.92227 0.82843 0.0
H328 H 0.35967 0.97439 0.89121 0.0
S329 S 0.1611 0.86565 0.95075 0.0
N330 N 0.17396 0.85167 0.90074 0.0
N331 N 0.21247 0.90935 0.96805 0.0
C332 C 0.24278 0.91418 0.93254 0.0
C333 C 0.22198 0.88324 0.89608 0.0
C334 C 0.60833 0.50621 0.76291 0.0
C335 C 0.62999 0.53701 0.79862 0.0
C336 C 0.59598 0.52326 0.72284 0.0
C337 C 0.60416 0.57206 0.71629 0.0
H338 H 0.59798 0.4681 0.7669 0.0
H339 H 0.57784 0.49734 0.6974 0.0
S340 S 0.66302 0.66821 0.79874 0.0
N341 N 0.66127 0.61923 0.82378 0.0
N342 N 0.63873 0.6512 0.74938 0.0
C343 C 0.62805 0.6035 0.75115 0.0
C344 C 0.64059 0.58606 0.79185 0.0
C345 C 0.97426 0.73627 0.2399 0.0
C346 C 0.93758 0.70866 0.27029 0.0
C347 C 0.99418 0.71523 0.2072 0.0
C348 C 0.97844 0.66512 0.20255 0.0
H349 H 0.98605 0.7748 0.24005 0.0
H350 H 1.02145 0.73889 0.18453 0.0
S351 S 0.88392 0.57611 0.27457 0.0
N352 N 0.88691 0.62812 0.29405 0.0
N353 N 0.92449 0.58844 0.23336 0.0
C354 C 0.94295 0.63694 0.23381 0.0
C355 C 0.92253 0.65862 0.26725 0.0
C356 C 0.44511 0.22528 0.2319 0.0
C357 C 0.47494 0.27443 0.23291 0.0
C358 C 0.46202 0.19274 0.21159 0.0
C359 C 0.50968 0.20797 0.19191 0.0
H360 H 0.4078 0.21198 0.24598 0.0
H361 H 0.43723 0.15538 0.21091 0.0
S362 S 0.60293 0.33289 0.18704 0.0
N363 N 0.55472 0.33684 0.21359 0.0
N364 N 0.58697 0.27565 0.17549 0.0
C365 C 0.54043 0.25697 0.19359 0.0
C366 C 0.52288 0.29022 0.21393 0.0
C367 C 0.09317 0.95025 0.71905 0.0
C368 C 0.0626 0.90527 0.70149 0.0
C369 C 0.09011 0.99279 0.70378 0.0
C370 C 0.0551 0.99183 0.6716 0.0
H371 H 0.11978 0.95282 0.74488 0.0
H372 H 0.11491 1.02656 0.71753 0.0
S373 S 0.96768 0.88482 0.61331 0.0
N374 N 0.99832 0.86368 0.64756 0.0
N375 N 0.98969 0.94298 0.62211 0.0
C376 C 0.02372 0.94741 0.65431 0.0
C377 C 0.02807 0.90432 0.66849 0.0
C378 C 0.82127 0.53733 1.01022 0.0
C379 C 0.80927 0.49101 0.99279 0.0
C380 C 0.86708 0.56195 1.03232 0.0
C381 C 0.90281 0.54122 1.03843 0.0
H382 H 0.79442 0.55414 1.00802 0.0
H383 H 0.874 0.59712 1.04558 0.0
S384 S 0.89268 0.42342 0.99401 0.0
N385 N 0.83977 0.4278 0.97936 0.0
N386 N 0.92423 0.47293 1.02137 0.0
C387 C 0.89193 0.49568 1.01971 0.0
C388 C 0.84579 0.471 0.99685 0.0
C389 C 0.74625 0.75522 0.51805 0.0
C390 C 0.77553 0.73139 0.50027 0.0
C391 C 0.70155 0.73081 0.54142 0.0
C392 C 0.68324 0.681 0.54836 0.0
H393 H 0.75759 0.79338 0.51341 0.0
H394 H 0.68091 0.75148 0.55372 0.0
S395 S 0.74568 0.60109 0.50949 0.0
N396 N 0.78296 0.65462 0.49209 0.0
N397 N 0.69892 0.60862 0.53535 0.0
C398 C 0.71208 0.65649 0.53079 0.0
C399 C 0.75791 0.68156 0.5069 0.0
C400 C 0.29148 0.45774 0.22598 0.0
C401 C 0.31543 0.4535 0.18665 0.0
C402 C 0.24501 0.46216 0.22527 0.0
C403 C 0.22047 0.46168 0.18524 0.0
H404 H 0.3092 0.45836 0.25752 0.0
H405 H 0.22803 0.4658 0.25624 0.0
S406 S 0.26697 0.45082 0.07321 0.0
N407 N 0.31093 0.44862 0.10665 0.0
N408 N 0.22354 0.45687 0.10533 0.0
C409 C 0.24379 0.45706 0.14572 0.0
C410 C 0.29131 0.45306 0.14641 0.0
C411 C 0.60939 0.3185 1.00919 0.0
C412 C 0.65925 0.33564 0.99369 0.0
C413 C 0.58723 0.27374 1.03071 0.0
C414 C 0.61378 0.24376 1.03809 0.0
H415 H 0.58767 0.34051 1.00595 0.0
H416 H 0.5492 0.26314 1.04266 0.0
S417 S 0.74359 0.26908 0.99982 0.0
N418 N 0.73286 0.31637 0.98404 0.0
N419 N 0.69204 0.23375 1.02505 0.0
C420 C 0.66312 0.25985 1.02157 0.0
C421 C 0.6855 0.30514 0.99933 0.0
C422 C 0.97487 0.9079 0.48853 0.0
C423 C 0.92232 0.88704 0.48518 0.0
C424 C 0.99963 0.95316 0.50859 0.0
C425 C 0.97316 0.98007 0.52611 0.0
H426 H 0.99701 0.88839 0.47692 0.0
H427 H 0.03997 0.96659 0.51125 0.0
S428 S 0.83508 0.94362 0.52171 0.0
N429 N 0.84495 0.8989 0.49809 0.0
N430 N 0.89079 0.98265 0.53583 0.0
C431 C 0.92065 0.96024 0.52137 0.0
C432 C 0.89555 0.91429 0.50101 0.0
C433 C 0.2985 0.75824 0.76622 0.0
C434 C 0.27773 0.78447 0.7404 0.0
C435 C 0.33959 0.74885 0.75124 0.0
C436 C 0.3613 0.76514 0.70981 0.0
H437 H 0.28435 0.74691 0.79918 0.0
H438 H 0.35545 0.72989 0.7728 0.0
S439 S 0.31906 0.83276 0.62847 0.0
N440 N 0.28027 0.82454 0.67059 0.0
N441 N 0.35742 0.80639 0.64212 0.0
C442 C 0.33915 0.78898 0.68258 0.0
C443 C 0.2973 0.79871 0.69794 0.0
C444 C 0.7607 0.87349 0.81084 0.0
C445 C 0.73547 0.88516 0.846 0.0
C446 C 0.77942 0.90456 0.7751 0.0
C447 C 0.77275 0.94809 0.7727 0.0
H448 H 0.76821 0.84113 0.81191 0.0
H449 H 0.80202 0.89575 0.75078 0.0
S450 S 0.70134 0.99159 0.85151 0.0
N451 N 0.70084 0.94175 0.87367 0.0
N452 N 0.73178 0.9974 0.80439 0.0
C453 C 0.74302 0.95776 0.80511 0.0
C454 C 0.72538 0.927 0.84225 0.0
C455 C 0.88925 0.26137 0.34036 0.0
C456 C 0.89195 0.30269 0.36324 0.0
C457 C 0.86271 0.24805 0.30095 0.0
C458 C 0.8377 0.27544 0.28289 0.0
H459 H 0.90435 0.23702 0.35464 0.0
H460 H 0.85848 0.21396 0.28656 0.0
S461 S 0.84166 0.39168 0.32533 0.0
N462 N 0.87379 0.37464 0.36174 0.0
N463 N 0.82356 0.34941 0.28728 0.0
C464 C 0.84382 0.31903 0.30329 0.0
C465 C 0.87101 0.33268 0.34355 0.0
C466 C 0.50874 0.68888 0.41527 0.0
C467 C 0.46319 0.69499 0.40838 0.0
C468 C 0.5204 0.67246 0.4556 0.0
C469 C 0.48802 0.66235 0.49232 0.0
H470 H 0.53501 0.69471 0.38824 0.0
H471 H 0.55517 0.66699 0.45774 0.0
S472 S 0.3662 0.6767 0.49478 0.0
N473 N 0.38657 0.69186 0.4438 0.0
N474 N 0.40967 0.66348 0.52019 0.0
C475 C 0.44387 0.6714 0.48732 0.0
C476 C 0.4313 0.68718 0.44549 0.0
C477 C 0.11108 0.52307 0.92699 0.0
C478 C 0.15542 0.51536 0.93531 0.0
C479 C 0.09192 0.54757 0.95769 0.0
C480 C 0.11555 0.5646 0.99864 0.0
H481 H 0.08946 0.50771 0.89778 0.0
H482 H 0.0568 0.55084 0.95032 0.0
S483 S 0.23582 0.55935 1.03426 0.0
N484 N 0.22505 0.53219 0.9859 0.0
N485 N 0.18836 0.57565 1.04335 0.0
C486 C 0.16105 0.55923 1.00618 0.0
C487 C 0.18107 0.53549 0.97471 0.0
C488 C 0.62318 0.96373 1.02942 0.0
C489 C 0.58142 0.92264 1.01803 0.0
C490 C 0.61812 1.0067 1.03995 0.0
C491 C 0.57121 1.01058 1.03893 0.0
H492 H 0.65977 0.96208 1.03241 0.0
H493 H 0.65096 0.0366 0.05082 0.0
S494 S 0.45097 0.91477 1.0067 0.0
N495 N 0.49221 0.88946 1.0029 0.0
N496 N 0.48271 0.97042 1.02249 0.0
C497 C 0.52961 0.97062 1.02497 0.0
C498 C 0.53468 0.92657 1.01474 0.0
C499 C 0.99031 0.22689 0.45878 0.0
C500 C 0.99486 0.27022 0.4793 0.0
C501 C 1.01027 0.19615 0.47827 0.0
C502 C 0.03512 0.20788 0.51879 0.0
H503 H 0.96722 0.21448 0.42976 0.0
H504 H 1.00203 0.16124 0.46378 0.0
S505 S 0.06634 0.32091 0.58098 0.0
N506 N 0.03376 0.32659 0.53828 0.0
N507 N 0.07002 0.26813 0.57541 0.0
C508 C 0.04449 0.25303 0.53714 0.0
C509 C 0.02471 0.28447 0.5172 0.0
C510 C 0.2348 0.70794 0.22388 0.0
C511 C 0.27758 0.74004 0.20213 0.0
C512 C 0.18948 0.68381 0.20126 0.0
C513 C 0.18427 0.69052 0.15565 0.0
H514 H 0.23603 0.70185 0.25894 0.0
H515 H 0.15795 0.65991 0.2201 0.0
S516 S 0.28604 0.76697 0.08186 0.0
N517 N 0.31243 0.77411 0.13092 0.0
N518 N 0.22736 0.73003 0.0892 0.0
C519 C 0.22691 0.72189 0.13327 0.0
C520 C 0.2733 0.74618 0.15621 0.0
C521 C 0.34779 0.51225 0.72957 0.0
C522 C 0.30278 0.489 0.70636 0.0
C523 C 0.39343 0.5375 0.70743 0.0
C524 C 0.39672 0.54018 0.66092 0.0
H525 H 0.34826 0.50959 0.76515 0.0
H526 H 0.42687 0.55396 0.72707 0.0
S527 S 0.28938 0.49169 0.58438 0.0
N528 N 0.26414 0.4757 0.6337 0.0
N529 N 0.34989 0.52084 0.59267 0.0
C530 C 0.35194 0.51857 0.63732 0.0
C531 C 0.30521 0.49374 0.65981 0.0
C532 C 0.8145 0.77764 0.93373 0.0
C533 C 0.79482 0.80295 0.96216 0.0
C534 C 0.85576 0.76707 0.94586 0.0
C535 C 0.87892 0.78109 0.98705 0.0
H536 H 0.79827 0.76651 0.90144 0.0
H537 H 0.86981 0.7479 0.92269 0.0
S538 S 0.84236 0.84821 0.07361 0.0
N539 N 0.80194 0.84189 1.03344 0.0
N540 N 0.87913 0.82127 0.0565 0.0
C541 C 0.85901 0.80536 1.0163 0.0
C542 C 0.81705 0.81642 1.00383 0.0
C543 C 0.43106 0.89652 0.17084 0.0
C544 C 0.43344 0.88806 0.21647 0.0
C545 C 0.45403 0.94236 0.15221 0.0
C546 C 0.48168 0.98267 0.17782 0.0
H547 H 0.41048 0.86731 0.14899 0.0
H548 H 0.44986 0.94609 0.1171 0.0
S549 S 0.50272 0.98079 0.2985 0.0
N550 N 0.46766 0.92462 0.28663 0.0
N551 N 0.51208 1.01048 0.25146 0.0
C552 C 0.48644 0.97474 0.2232 0.0
C553 C 0.46228 0.92773 0.24244 0.0
C554 C 0.19168 0.30435 0.69317 0.0
C555 C 0.16255 0.32664 0.71424 0.0
C556 C 0.16991 0.2592 0.67264 0.0
C557 C 0.11784 0.23313 0.67294 0.0
H558 H 0.23206 0.32189 0.69247 0.0
H559 H 0.19427 0.24442 0.65659 0.0
S560 S 0.02368 0.27491 0.72142 0.0
N561 N 0.07777 0.3188 0.73202 0.0
N562 N 0.03736 0.23358 0.69528 0.0
C563 C 0.08811 0.2544 0.69424 0.0
C564 C 0.11022 0.30094 0.71445 0.0
C565 C 0.73366 0.37634 0.57984 0.0
C566 C 0.74603 0.35551 0.54247 0.0
C567 C 0.70014 0.39941 0.57711 0.0
C568 C 0.67755 0.40256 0.53688 0.0
H569 H 0.7497 0.37444 0.61165 0.0
H570 H 0.691 0.41397 0.60701 0.0
S571 S 0.69893 0.35577 0.42884 0.0
N572 N 0.73374 0.34028 0.46371 0.0
N573 N 0.6717 0.38491 0.45837 0.0
C574 C 0.69042 0.38288 0.499 0.0
C575 C 0.72455 0.35923 0.5018 0.0
loop_
_geom_bond_atom_site_label_1
_geom_bond_atom_site_label_2
_geom_bond_distance
_geom_bond_site_symmetry_2
_ccdc_geom_bond_type
H0 C1 0.949 . S
C1 H0 0.949 . S
C1 C2 1.395 . S
C1 C3 1.391 . S
C2 C1 1.395 . S
C2 C5 1.390 . S
C3 C1 1.391 . S
C3 C7 1.387 . S
C3 C8 1.491 . S
H4 C5 0.950 . S
C5 C2 1.390 . S
C5 H4 0.950 . S
C5 C6 1.378 . S
C6 C5 1.378 . S
C6 C7 1.409 . S
C7 C3 1.387 . S
C7 C6 1.409 . S
C7 H9 0.951 . S
C8 C3 1.491 . S
C8 C10 1.382 . S
C8 C12 1.404 . S
H9 C7 0.951 . S
C10 C8 1.382 . S
C10 C11 1.390 . S
C10 H15 0.949 . S
C11 C10 1.390 . S
C11 C16 1.399 . S
C12 C8 1.404 . S
C12 H13 0.950 . S
C12 C14 1.375 . S
H13 C12 0.950 . S
C14 C12 1.375 . S
C14 C16 1.382 . S
C14 H18 0.950 . S
H15 C10 0.949 . S
C16 C11 1.399 . S
C16 C14 1.382 . S
C16 H17 0.952 . S
H17 C16 0.952 . S
H18 C14 0.950 . S
H19 C20 0.949 . S
C20 H19 0.949 . S
C20 C21 1.395 . S
C20 C22 1.391 . S
C21 C20 1.395 . S
C21 C24 1.390 . S
C22 C20 1.391 . S
C22 C26 1.387 . S
C22 C27 1.491 . S
H23 C24 0.950 . S
C24 C21 1.390 . S
C24 H23 0.950 . S
C24 C25 1.378 . S
C25 C24 1.378 . S
C25 C26 1.409 . S
C26 C22 1.387 . S
C26 C25 1.409 . S
C26 H28 0.951 . S
C27 C22 1.491 . S
C27 C29 1.382 . S
C27 C31 1.404 . S
H28 C26 0.951 . S
C29 C27 1.382 . S
C29 C30 1.393 . S
C29 H34 0.949 . S
C30 C29 1.393 . S
C30 C35 1.398 1_455 S
C31 C27 1.404 . S
C31 H32 0.950 . S
C31 C33 1.375 1_455 S
H32 C31 0.950 . S
C33 C31 1.375 1_655 S
C33 C35 1.382 . S
C33 H37 0.950 . S
H34 C29 0.949 . S
C35 C30 1.398 1_655 S
C35 C33 1.382 . S
C35 H36 0.952 . S
H36 C35 0.952 . S
H37 C33 0.950 . S
H38 C39 0.949 . S
C39 H38 0.949 . S
C39 C40 1.395 . S
C39 C41 1.391 . S
C40 C39 1.395 . S
C40 C43 1.390 . S
C41 C39 1.391 . S
C41 C45 1.387 . S
C41 C46 1.491 . S
H42 C43 0.950 . S
C43 C40 1.390 . S
C43 H42 0.950 . S
C43 C44 1.378 . S
C44 C43 1.378 . S
C44 C45 1.409 . S
C45 C41 1.387 . S
C45 C44 1.409 . S
C45 H47 0.951 . S
C46 C41 1.491 . S
C46 C48 1.382 . S
C46 C50 1.404 . S
H47 C45 0.951 . S
C48 C46 1.382 . S
C48 C49 1.390 . S
C48 H53 0.949 . S
C49 C48 1.390 . S
C49 C54 1.399 . S
C50 C46 1.404 . S
C50 H51 0.950 . S
C50 C52 1.375 . S
H51 C50 0.950 . S
C52 C50 1.375 . S
C52 C54 1.382 . S
C52 H56 0.950 . S
H53 C48 0.949 . S
C54 C49 1.399 . S
C54 C52 1.382 . S
C54 H55 0.952 . S
H55 C54 0.952 . S
H56 C52 0.950 . S
H57 C58 0.949 . S
C58 H57 0.949 . S
C58 C59 1.395 . S
C58 C60 1.391 . S
C59 C58 1.395 . S
C59 C62 1.390 . S
C60 C58 1.391 . S
C60 C64 1.387 . S
C60 C65 1.491 . S
H61 C62 0.950 . S
C62 C59 1.390 . S
C62 H61 0.950 . S
C62 C63 1.378 . S
C63 C62 1.378 . S
C63 C64 1.409 . S
C64 C60 1.387 . S
C64 C63 1.409 . S
C64 H66 0.951 . S
C65 C60 1.491 . S
C65 C67 1.382 . S
C65 C69 1.404 . S
H66 C64 0.951 . S
C67 C65 1.382 . S
C67 C68 1.390 . S
C67 H72 0.949 . S
C68 C67 1.390 . S
C68 C73 1.399 . S
C69 C65 1.404 . S
C69 H70 0.950 . S
C69 C71 1.375 . S
H70 C69 0.950 . S
C71 C69 1.375 . S
C71 C73 1.382 . S
C71 H75 0.950 . S
H72 C67 0.949 . S
C73 C68 1.399 . S
C73 C71 1.382 . S
C73 H74 0.952 . S
H74 C73 0.952 . S
H75 C71 0.950 . S
H76 C77 0.949 . S
C77 H76 0.949 . S
C77 C78 1.395 . S
C77 C79 1.391 . S
C78 C77 1.395 . S
C78 C81 1.390 . S
C79 C77 1.391 . S
C79 C83 1.387 . S
C79 C84 1.491 . S
H80 C81 0.950 . S
C81 C78 1.390 . S
C81 H80 0.950 . S
C81 C82 1.378 . S
C82 C81 1.378 . S
C82 C83 1.409 . S
C83 C79 1.387 . S
C83 C82 1.409 . S
C83 H85 0.951 . S
C84 C79 1.491 . S
C84 C86 1.382 . S
C84 C88 1.404 . S
H85 C83 0.951 . S
C86 C84 1.382 . S
C86 C87 1.390 . S
C86 H91 0.949 . S
C87 C86 1.390 . S
C87 C92 1.399 . S
C88 C84 1.404 . S
C88 H89 0.950 . S
C88 C90 1.375 . S
H89 C88 0.950 . S
C90 C88 1.375 . S
C90 C92 1.382 . S
C90 H94 0.950 . S
H91 C86 0.949 . S
C92 C87 1.399 . S
C92 C90 1.382 . S
C92 H93 0.952 . S
H93 C92 0.952 . S
H94 C90 0.950 . S
H95 C96 0.949 . S
C96 H95 0.949 . S
C96 C97 1.395 . S
C96 C98 1.391 . S
C97 C96 1.395 . S
C97 C100 1.390 . S
C98 C96 1.391 . S
C98 C102 1.387 . S
C98 C103 1.491 . S
H99 C100 0.950 . S
C100 C97 1.390 . S
C100 H99 0.950 . S
C100 C101 1.378 . S
C101 C100 1.378 . S
C101 C102 1.409 . S
C102 C98 1.387 . S
C102 C101 1.409 . S
C102 H104 0.951 . S
C103 C98 1.491 . S
C103 C105 1.382 . S
C103 C107 1.404 . S
H104 C102 0.951 . S
C105 C103 1.382 . S
C105 C106 1.390 . S
C105 H110 0.949 . S
C106 C105 1.390 . S
C106 C111 1.399 . S
C107 C103 1.404 . S
C107 H108 0.950 . S
C107 C109 1.375 . S
H108 C107 0.950 . S
C109 C107 1.375 . S
C109 C111 1.382 . S
C109 H113 0.950 . S
H110 C105 0.949 . S
C111 C106 1.399 . S
C111 C109 1.382 . S
C111 H112 0.952 . S
H112 C111 0.952 . S
H113 C109 0.950 . S
H114 C115 0.949 . S
C115 H114 0.949 . S
C115 C116 1.395 . S
C115 C117 1.391 . S
C116 C115 1.395 . S
C116 C119 1.390 . S
C117 C115 1.391 . S
C117 C121 1.387 . S
C117 C122 1.491 . S
H118 C119 0.950 . S
C119 C116 1.390 . S
C119 H118 0.950 . S
C119 C120 1.378 . S
C120 C119 1.378 . S
C120 C121 1.409 . S
C121 C117 1.387 . S
C121 C120 1.409 . S
C121 H123 0.951 . S
C122 C117 1.491 . S
C122 C124 1.382 . S
C122 C126 1.404 . S
H123 C121 0.951 . S
C124 C122 1.382 . S
C124 C125 1.390 . S
C124 H129 0.949 . S
C125 C124 1.390 . S
C125 C130 1.399 . S
C126 C122 1.404 . S
C126 H127 0.950 . S
C126 C128 1.375 . S
H127 C126 0.950 . S
C128 C126 1.375 . S
C128 C130 1.382 . S
C128 H132 0.950 . S
H129 C124 0.949 . S
C130 C125 1.399 . S
C130 C128 1.382 . S
C130 H131 0.952 . S
H131 C130 0.952 . S
H132 C128 0.950 . S
H133 C134 0.949 . S
C134 H133 0.949 . S
C134 C135 1.395 . S
C134 C136 1.391 . S
C135 C134 1.395 . S
C135 C138 1.390 . S
C136 C134 1.391 . S
C136 C140 1.387 . S
C136 C141 1.491 . S
H137 C138 0.950 . S
C138 C135 1.390 . S
C138 H137 0.950 . S
C138 C139 1.378 . S
C139 C138 1.378 . S
C139 C140 1.409 . S
C140 C136 1.387 . S
C140 C139 1.409 . S
C140 H142 0.951 . S
C141 C136 1.491 . S
C141 C143 1.382 . S
C141 C145 1.404 . S
H142 C140 0.951 . S
C143 C141 1.382 . S
C143 C144 1.390 . S
C143 H148 0.949 . S
C144 C143 1.390 . S
C144 C149 1.399 . S
C145 C141 1.404 . S
C145 H146 0.950 . S
C145 C147 1.375 . S
H146 C145 0.950 . S
C147 C145 1.375 . S
C147 C149 1.382 . S
C147 H151 0.950 . S
H148 C143 0.949 . S
C149 C144 1.399 . S
C149 C147 1.382 . S
C149 H150 0.952 . S
H150 C149 0.952 . S
H151 C147 0.950 . S
Tb152 C161 2.764 . S
Tb152 O162 2.325 . S
Tb152 O165 2.303 . S
Tb152 O169 2.322 . S
Tb152 O170 2.349 1_545 S
Tb152 O173 2.415 . S
Tb152 O174 2.399 . S
Tb153 O163 2.322 . S
Tb153 O164 2.349 1_655 S
Tb153 O166 2.415 1_545 S
Tb153 O167 2.399 . S
Tb153 O168 2.325 1_655 S
Tb153 O171 2.303 1_545 S
Tb153 C182 2.764 1_545 S
C154 O170 1.261 1_655 S
C154 O171 1.257 . S
C155 C158 1.358 . S
C155 C159 1.332 . S
C155 C161 1.504 . S
C156 C157 1.373 . S
C156 C160 1.308 . S
C157 C156 1.373 . S
C157 C158 1.429 . S
C157 H184 0.932 . S
C158 C155 1.358 . S
C158 C157 1.429 . S
C158 H185 0.930 . S
C159 C155 1.332 . S
C159 C160 1.394 . S
C159 H186 0.932 . S
C160 C156 1.308 . S
C160 C159 1.394 . S
C160 H187 0.929 . S
C161 Tb152 2.764 . S
C161 C155 1.504 . S
C161 O173 1.239 . S
C161 O174 1.263 . S
O162 Tb152 2.325 . S
O162 C172 1.236 1_455 S
O163 Tb153 2.322 . S
O163 C172 1.257 . S
O164 Tb153 2.349 1_455 S
O164 C175 1.261 . S
O165 Tb152 2.303 . S
O165 C175 1.257 . S
O166 Tb153 2.415 1_565 S
O166 C182 1.239 . S
O167 Tb153 2.399 . S
O167 C182 1.263 1_545 S
O168 Tb153 2.325 1_455 S
O168 C183 1.236 1_545 S
O169 Tb152 2.322 . S
O169 C183 1.257 1_545 S
O170 Tb152 2.349 1_565 S
O170 C154 1.261 1_455 S
O171 Tb153 2.303 1_565 S
O171 C154 1.257 . S
C172 O162 1.236 1_655 S
C172 O163 1.257 . S
O173 Tb152 2.415 . S
O173 C161 1.239 . S
O174 Tb152 2.399 . S
O174 C161 1.263 . S
C175 O164 1.261 . S
C175 O165 1.257 . S
C176 C179 1.358 . S
C176 C180 1.332 . S
C176 C182 1.504 . S
C177 C178 1.373 . S
C177 C181 1.308 . S
C178 C177 1.373 . S
C178 C179 1.429 . S
C178 H188 0.932 . S
C179 C176 1.358 . S
C179 C178 1.429 . S
C179 H189 0.930 . S
C180 C176 1.332 . S
C180 C181 1.394 . S
C180 H190 0.932 . S
C181 C177 1.308 . S
C181 C180 1.394 . S
C181 H191 0.929 . S
C182 Tb153 2.764 1_565 S
C182 O166 1.239 . S
C182 O167 1.263 1_565 S
C182 C176 1.504 . S
C183 O168 1.236 1_565 S
C183 O169 1.257 1_565 S
H184 C157 0.932 . S
H185 C158 0.930 . S
H186 C159 0.932 . S
H187 C160 0.929 . S
H188 C178 0.932 . S
H189 C179 0.930 . S
H190 C180 0.932 . S
H191 C181 0.929 . S
Tb192 C201 2.764 . S
Tb192 O202 2.325 . S
Tb192 O205 2.303 . S
Tb192 O209 2.322 1_545 S
Tb192 O210 2.349 . S
Tb192 O213 2.415 . S
Tb192 O214 2.399 . S
Tb193 O203 2.322 . S
Tb193 O204 2.349 . S
Tb193 O206 2.416 1_544 S
Tb193 O207 2.399 1_545 S
Tb193 O208 2.325 1_545 S
Tb193 O211 2.303 . S
Tb193 C222 2.776 1_545 S
C194 O210 1.261 1_565 S
C194 O211 1.257 1_565 S
C195 C198 1.358 . S
C195 C199 1.332 . S
C195 C201 1.504 . S
C196 C197 1.373 . S
C196 C200 1.308 . S
C197 C196 1.373 . S
C197 C198 1.429 . S
C197 H224 0.932 . S
C198 C195 1.358 . S
C198 C197 1.429 . S
C198 H225 0.930 . S
C199 C195 1.332 . S
C199 C200 1.394 . S
C199 H226 0.932 . S
C200 C196 1.308 . S
C200 C199 1.394 . S
C200 H227 0.929 . S
C201 Tb192 2.764 . S
C201 C195 1.504 . S
C201 O213 1.239 . S
C201 O214 1.263 . S
O202 Tb192 2.325 . S
O202 C212 1.236 . S
O203 Tb193 2.322 . S
O203 C212 1.257 . S
O204 Tb193 2.349 . S
O204 C215 1.261 . S
O205 Tb192 2.303 . S
O205 C215 1.257 . S
O206 Tb193 2.416 1_566 S
O206 C222 1.239 1_556 S
O207 Tb193 2.399 1_565 S
O207 C222 1.275 . S
O208 Tb193 2.325 1_565 S
O208 C223 1.236 . S
O209 Tb192 2.322 1_565 S
O209 C223 1.257 . S
O210 Tb192 2.349 . S
O210 C194 1.261 1_545 S
O211 Tb193 2.303 . S
O211 C194 1.257 1_545 S
C212 O202 1.236 . S
C212 O203 1.257 . S
O213 Tb192 2.415 . S
O213 C201 1.239 . S
O214 Tb192 2.399 . S
O214 C201 1.263 . S
C215 O204 1.261 . S
C215 O205 1.257 . S
C216 C219 1.358 . S
C216 C220 1.332 . S
C216 C222 1.491 1_556 S
C217 C218 1.373 . S
C217 C221 1.308 . S
C218 C217 1.373 . S
C218 C219 1.429 . S
C218 H228 0.932 . S
C219 C216 1.358 . S
C219 C218 1.429 . S
C219 H229 0.930 . S
C220 C216 1.332 . S
C220 C221 1.394 . S
C220 H230 0.932 . S
C221 C217 1.308 . S
C221 C220 1.394 . S
C221 H231 0.929 . S
C222 Tb193 2.776 1_565 S
C222 O206 1.239 1_554 S
C222 O207 1.275 . S
C222 C216 1.491 1_554 S
C223 O208 1.236 . S
C223 O209 1.257 . S
H224 C197 0.932 . S
H225 C198 0.930 . S
H226 C199 0.932 . S
H227 C200 0.929 . S
H228 C218 0.932 . S
H229 C219 0.930 . S
H230 C220 0.932 . S
H231 C221 0.929 . S
Tb232 C241 2.764 . S
Tb232 O242 2.325 . S
Tb232 O245 2.303 . S
Tb232 O249 2.322 . S
Tb232 O250 2.349 . S
Tb232 O253 2.415 . S
Tb232 O254 2.399 . S
Tb233 O243 2.322 . S
Tb233 O244 2.349 . S
Tb233 O246 2.415 . S
Tb233 O247 2.399 . S
Tb233 O248 2.325 . S
Tb233 O251 2.303 . S
Tb233 C262 2.764 . S
C234 O250 1.261 . S
C234 O251 1.257 . S
C235 C238 1.358 . S
C235 C239 1.332 . S
C235 C241 1.504 . S
C236 C237 1.373 . S
C236 C240 1.308 . S
C237 C236 1.373 . S
C237 C238 1.429 . S
C237 H264 0.932 . S
C238 C235 1.358 . S
C238 C237 1.429 . S
C238 H265 0.930 . S
C239 C235 1.332 . S
C239 C240 1.394 . S
C239 H266 0.932 . S
C240 C236 1.308 . S
C240 C239 1.394 . S
C240 H267 0.929 . S
C241 Tb232 2.764 . S
C241 C235 1.504 . S
C241 O253 1.239 . S
C241 O254 1.263 . S
O242 Tb232 2.325 . S
O242 C252 1.236 . S
O243 Tb233 2.322 . S
O243 C252 1.257 . S
O244 Tb233 2.349 . S
O244 C255 1.261 . S
O245 Tb232 2.303 . S
O245 C255 1.257 . S
O246 Tb233 2.415 . S
O246 C262 1.239 . S
O247 Tb233 2.399 . S
O247 C262 1.263 . S
O248 Tb233 2.325 . S
O248 C263 1.236 . S
O249 Tb232 2.322 . S
O249 C263 1.257 . S
O250 Tb232 2.349 . S
O250 C234 1.261 . S
O251 Tb233 2.303 . S
O251 C234 1.257 . S
C252 O242 1.236 . S
C252 O243 1.257 . S
O253 Tb232 2.415 . S
O253 C241 1.239 . S
O254 Tb232 2.399 . S
O254 C241 1.263 . S
C255 O244 1.261 . S
C255 O245 1.257 . S
C256 C259 1.358 . S
C256 C260 1.332 . S
C256 C262 1.504 . S
C257 C258 1.373 . S
C257 C261 1.308 . S
C258 C257 1.373 . S
C258 C259 1.429 . S
C258 H268 0.932 . S
C259 C256 1.358 . S
C259 C258 1.429 . S
C259 H269 0.930 . S
C260 C256 1.332 . S
C260 C261 1.394 . S
C260 H270 0.932 . S
C261 C257 1.308 . S
C261 C260 1.394 . S
C261 H271 0.929 . S
C262 Tb233 2.764 . S
C262 O246 1.239 . S
C262 O247 1.263 . S
C262 C256 1.504 . S
C263 O248 1.236 . S
C263 O249 1.257 . S
H264 C237 0.932 . S
H265 C238 0.930 . S
H266 C239 0.932 . S
H267 C240 0.929 . S
H268 C258 0.932 . S
H269 C259 0.930 . S
H270 C260 0.932 . S
H271 C261 0.929 . S
Tb272 C281 2.764 1_455 S
Tb272 O282 2.325 1_455 S
Tb272 O285 2.303 1_556 S
Tb272 O289 2.322 1_556 S
Tb272 O290 2.349 . S
Tb272 O293 2.415 1_455 S
Tb272 O294 2.399 . S
Tb273 O283 2.322 1_455 S
Tb273 O284 2.349 . S
Tb273 O286 2.415 . S
Tb273 O287 2.399 . S
Tb273 O288 2.325 . S
Tb273 O291 2.303 1_554 S
Tb273 C302 2.764 . S
C274 O290 1.261 . S
C274 O291 1.257 . S
C275 C278 1.358 . S
C275 C279 1.332 . S
C275 C281 1.504 . S
C276 C277 1.373 . S
C276 C280 1.308 . S
C277 C276 1.373 . S
C277 C278 1.429 . S
C277 H304 0.932 . S
C278 C275 1.358 . S
C278 C277 1.429 . S
C278 H305 0.930 . S
C279 C275 1.332 . S
C279 C280 1.394 . S
C279 H306 0.932 . S
C280 C276 1.308 . S
C280 C279 1.394 . S
C280 H307 0.929 . S
C281 Tb272 2.764 1_655 S
C281 C275 1.504 . S
C281 O293 1.239 . S
C281 O294 1.263 1_655 S
O282 Tb272 2.325 1_655 S
O282 C292 1.236 . S
O283 Tb273 2.322 1_655 S
O283 C292 1.257 1_554 S
O284 Tb273 2.349 . S
O284 C295 1.261 . S
O285 Tb272 2.303 1_554 S
O285 C295 1.257 . S
O286 Tb273 2.415 . S
O286 C302 1.239 . S
O287 Tb273 2.399 . S
O287 C302 1.263 . S
O288 Tb273 2.325 . S
O288 C303 1.236 . S
O289 Tb272 2.322 1_554 S
O289 C303 1.257 . S
O290 Tb272 2.349 . S
O290 C274 1.261 . S
O291 Tb273 2.303 1_556 S
O291 C274 1.257 . S
C292 O282 1.236 . S
C292 O283 1.257 1_556 S
O293 Tb272 2.415 1_655 S
O293 C281 1.239 . S
O294 Tb272 2.399 . S
O294 C281 1.263 1_455 S
C295 O284 1.261 . S
C295 O285 1.257 . S
C296 C299 1.358 . S
C296 C300 1.332 . S
C296 C302 1.504 . S
C297 C298 1.373 . S
C297 C301 1.308 . S
C298 C297 1.373 . S
C298 C299 1.429 . S
C298 H308 0.932 . S
C299 C296 1.358 . S
C299 C298 1.429 . S
C299 H309 0.930 . S
C300 C296 1.332 . S
C300 C301 1.394 . S
C300 H310 0.932 . S
C301 C297 1.308 . S
C301 C300 1.394 . S
C301 H311 0.929 . S
C302 Tb273 2.764 . S
C302 O286 1.239 . S
C302 O287 1.263 . S
C302 C296 1.504 . S
C303 O288 1.236 . S
C303 O289 1.257 . S
H304 C277 0.932 . S
H305 C278 0.930 . S
H306 C279 0.932 . S
H307 C280 0.929 . S
H308 C298 0.932 . S
H309 C299 0.930 . S
H310 C300 0.932 . S
H311 C301 0.929 . S
C312 C313 1.369 . S
C312 C314 1.419 . S
C312 H316 0.930 . S
C313 C312 1.369 . S
C313 C322 1.429 . S
C314 C312 1.419 . S
C314 C315 1.363 . S
C314 H317 0.929 . S
C315 C314 1.363 . S
C315 C321 1.428 . S
H316 C312 0.930 . S
H317 C314 0.929 . S
S318 N319 1.613 . S
S318 N320 1.610 . S
N319 S318 1.613 . S
N319 C322 1.350 . S
N320 S318 1.610 . S
N320 C321 1.351 . S
C321 C315 1.428 . S
C321 N320 1.351 . S
C321 C322 1.434 . S
C322 C313 1.429 . S
C322 N319 1.350 . S
C322 C321 1.434 . S
C323 C324 1.369 . S
C323 C325 1.419 . S
C323 H327 0.930 . S
C324 C323 1.369 . S
C324 C333 1.429 . S
C325 C323 1.419 . S
C325 C326 1.363 . S
C325 H328 0.929 . S
C326 C325 1.363 . S
C326 C332 1.428 . S
H327 C323 0.930 . S
H328 C325 0.929 . S
S329 N330 1.613 . S
S329 N331 1.610 . S
N330 S329 1.613 . S
N330 C333 1.350 . S
N331 S329 1.610 . S
N331 C332 1.351 . S
C332 C326 1.428 . S
C332 N331 1.351 . S
C332 C333 1.434 . S
C333 C324 1.429 . S
C333 N330 1.350 . S
C333 C332 1.434 . S
C334 C335 1.369 . S
C334 C336 1.419 . S
C334 H338 0.930 . S
C335 C334 1.369 . S
C335 C344 1.429 . S
C336 C334 1.419 . S
C336 C337 1.363 . S
C336 H339 0.929 . S
C337 C336 1.363 . S
C337 C343 1.428 . S
H338 C334 0.930 . S
H339 C336 0.929 . S
S340 N341 1.613 . S
S340 N342 1.610 . S
N341 S340 1.613 . S
N341 C344 1.350 . S
N342 S340 1.610 . S
N342 C343 1.351 . S
C343 C337 1.428 . S
C343 N342 1.351 . S
C343 C344 1.434 . S
C344 C335 1.429 . S
C344 N341 1.350 . S
C344 C343 1.434 . S
C345 C346 1.369 . S
C345 C347 1.419 . S
C345 H349 0.930 . S
C346 C345 1.369 . S
C346 C355 1.429 . S
C347 C345 1.419 . S
C347 C348 1.363 . S
C347 H350 0.929 . S
C348 C347 1.363 . S
C348 C354 1.428 . S
H349 C345 0.930 . S
H350 C347 0.929 . S
S351 N352 1.613 . S
S351 N353 1.610 . S
N352 S351 1.613 . S
N352 C355 1.350 . S
N353 S351 1.610 . S
N353 C354 1.351 . S
C354 C348 1.428 . S
C354 N353 1.351 . S
C354 C355 1.434 . S
C355 C346 1.429 . S
C355 N352 1.350 . S
C355 C354 1.434 . S
C356 C357 1.369 . S
C356 C358 1.419 . S
C356 H360 0.930 . S
C357 C356 1.369 . S
C357 C366 1.429 . S
C358 C356 1.419 . S
C358 C359 1.363 . S
C358 H361 0.929 . S
C359 C358 1.363 . S
C359 C365 1.428 . S
H360 C356 0.930 . S
H361 C358 0.929 . S
S362 N363 1.613 . S
S362 N364 1.610 . S
N363 S362 1.613 . S
N363 C366 1.350 . S
N364 S362 1.610 . S
N364 C365 1.351 . S
C365 C359 1.428 . S
C365 N364 1.351 . S
C365 C366 1.434 . S
C366 C357 1.429 . S
C366 N363 1.350 . S
C366 C365 1.434 . S
C367 C368 1.369 . S
C367 C369 1.419 . S
C367 H371 0.930 . S
C368 C367 1.369 . S
C368 C377 1.429 1_455 S
C369 C367 1.419 . S
C369 C370 1.363 . S
C369 H372 0.929 . S
C370 C369 1.363 . S
C370 C376 1.428 . S
H371 C367 0.930 . S
H372 C369 0.929 . S
S373 N374 1.613 . S
S373 N375 1.610 . S
N374 S373 1.613 . S
N374 C377 1.350 . S
N375 S373 1.610 . S
N375 C376 1.351 1_655 S
C376 C370 1.428 . S
C376 N375 1.351 1_455 S
C376 C377 1.434 1_455 S
C377 C368 1.429 1_655 S
C377 N374 1.350 . S
C377 C376 1.434 1_655 S
C378 C379 1.369 . S
C378 C380 1.419 . S
C378 H382 0.930 . S
C379 C378 1.369 . S
C379 C388 1.429 . S
C380 C378 1.419 . S
C380 C381 1.363 . S
C380 H383 0.929 . S
C381 C380 1.363 . S
C381 C387 1.428 . S
H382 C378 0.930 . S
H383 C380 0.929 . S
S384 N385 1.613 1_554 S
S384 N386 1.610 . S
N385 S384 1.613 1_556 S
N385 C388 1.350 . S
N386 S384 1.610 . S
N386 C387 1.351 1_554 S
C387 C381 1.428 . S
C387 N386 1.351 1_556 S
C387 C388 1.434 . S
C388 C379 1.429 . S
C388 N385 1.350 . S
C388 C387 1.434 . S
C389 C390 1.369 . S
C389 C391 1.419 . S
C389 H393 0.930 . S
C390 C389 1.369 . S
C390 C399 1.429 . S
C391 C389 1.419 . S
C391 C392 1.363 . S
C391 H394 0.929 . S
C392 C391 1.363 . S
C392 C398 1.428 . S
H393 C389 0.930 . S
H394 C391 0.929 . S
S395 N396 1.613 . S
S395 N397 1.610 . S
N396 S395 1.613 . S
N396 C399 1.350 . S
N397 S395 1.610 . S
N397 C398 1.351 . S
C398 C392 1.428 . S
C398 N397 1.351 . S
C398 C399 1.434 . S
C399 C390 1.429 . S
C399 N396 1.350 . S
C399 C398 1.434 . S
C400 C401 1.369 . S
C400 C402 1.419 . S
C400 H404 0.930 . S
C401 C400 1.369 . S
C401 C410 1.429 . S
C402 C400 1.419 . S
C402 C403 1.363 . S
C402 H405 0.929 . S
C403 C402 1.363 . S
C403 C409 1.428 . S
H404 C400 0.930 . S
H405 C402 0.929 . S
S406 N407 1.613 . S
S406 N408 1.610 . S
N407 S406 1.613 . S
N407 C410 1.350 . S
N408 S406 1.610 . S
N408 C409 1.351 . S
C409 C403 1.428 . S
C409 N408 1.351 . S
C409 C410 1.434 . S
C410 C401 1.429 . S
C410 N407 1.350 . S
C410 C409 1.434 . S
C411 C412 1.369 . S
C411 C413 1.419 1_556 S
C411 H415 0.930 . S
C412 C411 1.369 . S
C412 C421 1.429 . S
C413 C411 1.419 1_554 S
C413 C414 1.363 . S
C413 H416 0.929 . S
C414 C413 1.363 . S
C414 C420 1.428 . S
H415 C411 0.930 . S
H416 C413 0.929 . S
S417 N418 1.613 1_554 S
S417 N419 1.610 . S
N418 S417 1.613 1_556 S
N418 C421 1.350 . S
N419 S417 1.610 . S
N419 C420 1.351 . S
C420 C414 1.428 . S
C420 N419 1.351 . S
C420 C421 1.434 1_554 S
C421 C412 1.429 . S
C421 N418 1.350 . S
C421 C420 1.434 1_556 S
C422 C423 1.369 . S
C422 C424 1.419 . S
C422 H426 0.930 . S
C423 C422 1.369 . S
C423 C432 1.429 . S
C424 C422 1.419 . S
C424 C425 1.363 . S
C424 H427 0.929 . S
C425 C424 1.363 . S
C425 C431 1.428 . S
H426 C422 0.930 . S
H427 C424 0.929 . S
S428 N429 1.613 . S
S428 N430 1.610 . S
N429 S428 1.613 . S
N429 C432 1.350 . S
N430 S428 1.610 . S
N430 C431 1.351 . S
C431 C425 1.428 . S
C431 N430 1.351 . S
C431 C432 1.434 . S
C432 C423 1.429 . S
C432 N429 1.350 . S
C432 C431 1.434 . S
C433 C434 1.369 . S
C433 C435 1.419 . S
C433 H437 0.930 . S
C434 C433 1.369 . S
C434 C443 1.429 . S
C435 C433 1.419 . S
C435 C436 1.363 . S
C435 H438 0.929 . S
C436 C435 1.363 . S
C436 C442 1.428 . S
H437 C433 0.930 . S
H438 C435 0.929 . S
S439 N440 1.613 . S
S439 N441 1.610 . S
N440 S439 1.613 . S
N440 C443 1.350 . S
N441 S439 1.610 . S
N441 C442 1.351 . S
C442 C436 1.428 . S
C442 N441 1.351 . S
C442 C443 1.434 . S
C443 C434 1.429 . S
C443 N440 1.350 . S
C443 C442 1.434 . S
C444 C445 1.369 . S
C444 C446 1.419 . S
C444 H448 0.930 . S
C445 C444 1.369 . S
C445 C454 1.429 . S
C446 C444 1.419 . S
C446 C447 1.363 . S
C446 H449 0.929 . S
C447 C446 1.363 . S
C447 C453 1.428 . S
H448 C444 0.930 . S
H449 C446 0.929 . S
S450 N451 1.613 . S
S450 N452 1.610 . S
N451 S450 1.613 . S
N451 C454 1.350 . S
N452 S450 1.610 . S
N452 C453 1.351 . S
C453 C447 1.428 . S
C453 N452 1.351 . S
C453 C454 1.434 . S
C454 C445 1.429 . S
C454 N451 1.350 . S
C454 C453 1.434 . S
C455 C456 1.369 . S
C455 C457 1.419 . S
C455 H459 0.930 . S
C456 C455 1.369 . S
C456 C465 1.429 . S
C457 C455 1.419 . S
C457 C458 1.363 . S
C457 H460 0.929 . S
C458 C457 1.363 . S
C458 C464 1.428 . S
H459 C455 0.930 . S
H460 C457 0.929 . S
S461 N462 1.613 . S
S461 N463 1.610 . S
N462 S461 1.613 . S
N462 C465 1.350 . S
N463 S461 1.610 . S
N463 C464 1.351 . S
C464 C458 1.428 . S
C464 N463 1.351 . S
C464 C465 1.434 . S
C465 C456 1.429 . S
C465 N462 1.350 . S
C465 C464 1.434 . S
C466 C467 1.369 . S
C466 C468 1.419 . S
C466 H470 0.930 . S
C467 C466 1.369 . S
C467 C476 1.429 . S
C468 C466 1.419 . S
C468 C469 1.363 . S
C468 H471 0.929 . S
C469 C468 1.363 . S
C469 C475 1.428 . S
H470 C466 0.930 . S
H471 C468 0.929 . S
S472 N473 1.613 . S
S472 N474 1.610 . S
N473 S472 1.613 . S
N473 C476 1.350 . S
N474 S472 1.610 . S
N474 C475 1.351 . S
C475 C469 1.428 . S
C475 N474 1.351 . S
C475 C476 1.434 . S
C476 C467 1.429 . S
C476 N473 1.350 . S
C476 C475 1.434 . S
C477 C478 1.369 . S
C477 C479 1.419 . S
C477 H481 0.930 . S
C478 C477 1.369 . S
C478 C487 1.429 . S
C479 C477 1.419 . S
C479 C480 1.363 . S
C479 H482 0.929 . S
C480 C479 1.363 . S
C480 C486 1.428 . S
H481 C477 0.930 . S
H482 C479 0.929 . S
S483 N484 1.613 . S
S483 N485 1.610 . S
N484 S483 1.613 . S
N484 C487 1.350 . S
N485 S483 1.610 . S
N485 C486 1.351 . S
C486 C480 1.428 . S
C486 N485 1.351 . S
C486 C487 1.434 . S
C487 C478 1.429 . S
C487 N484 1.350 . S
C487 C486 1.434 . S
C488 C489 1.369 1_554 S
C488 C490 1.419 . S
C488 H492 0.930 . S
C489 C488 1.369 1_556 S
C489 C498 1.429 . S
C490 C488 1.419 . S
C490 C491 1.363 . S
C490 H493 0.929 . S
C491 C490 1.363 . S
C491 C497 1.428 1_554 S
H492 C488 0.930 . S
H493 C490 0.929 . S
S494 N495 1.613 . S
S494 N496 1.610 . S
N495 S494 1.613 . S
N495 C498 1.350 . S
N496 S494 1.610 . S
N496 C497 1.351 . S
C497 C491 1.428 1_556 S
C497 N496 1.351 . S
C497 C498 1.434 . S
C498 C489 1.429 . S
C498 N495 1.350 . S
C498 C497 1.434 . S
C499 C500 1.369 . S
C499 C501 1.419 . S
C499 H503 0.930 . S
C500 C499 1.369 . S
C500 C509 1.429 1_655 S
C501 C499 1.419 . S
C501 C502 1.363 . S
C501 H504 0.929 . S
C502 C501 1.363 . S
C502 C508 1.428 1_655 S
H503 C499 0.930 . S
H504 C501 0.929 . S
S505 N506 1.613 . S
S505 N507 1.610 . S
N506 S505 1.613 . S
N506 C509 1.350 . S
N507 S505 1.610 . S
N507 C508 1.351 . S
C508 C502 1.428 1_455 S
C508 N507 1.351 . S
C508 C509 1.434 . S
C509 C500 1.429 1_455 S
C509 N506 1.350 . S
C509 C508 1.434 . S
C510 C511 1.369 . S
C510 C512 1.419 . S
C510 H514 0.930 . S
C511 C510 1.369 . S
C511 C520 1.429 . S
C512 C510 1.419 . S
C512 C513 1.363 . S
C512 H515 0.929 . S
C513 C512 1.363 . S
C513 C519 1.428 . S
H514 C510 0.930 . S
H515 C512 0.929 . S
S516 N517 1.613 . S
S516 N518 1.610 . S
N517 S516 1.613 . S
N517 C520 1.350 . S
N518 S516 1.610 . S
N518 C519 1.351 . S
C519 C513 1.428 . S
C519 N518 1.351 . S
C519 C520 1.434 . S
C520 C511 1.429 . S
C520 N517 1.350 . S
C520 C519 1.434 . S
C521 C522 1.369 . S
C521 C523 1.419 . S
C521 H525 0.930 . S
C522 C521 1.369 . S
C522 C531 1.429 . S
C523 C521 1.419 . S
C523 C524 1.363 . S
C523 H526 0.929 . S
C524 C523 1.363 . S
C524 C530 1.428 . S
H525 C521 0.930 . S
H526 C523 0.929 . S
S527 N528 1.613 . S
S527 N529 1.610 . S
N528 S527 1.613 . S
N528 C531 1.350 . S
N529 S527 1.610 . S
N529 C530 1.351 . S
C530 C524 1.428 . S
C530 N529 1.351 . S
C530 C531 1.434 . S
C531 C522 1.429 . S
C531 N528 1.350 . S
C531 C530 1.434 . S
C532 C533 1.369 . S
C532 C534 1.419 . S
C532 H536 0.930 . S
C533 C532 1.369 . S
C533 C542 1.429 . S
C534 C532 1.419 . S
C534 C535 1.363 . S
C534 H537 0.929 . S
C535 C534 1.363 . S
C535 C541 1.428 . S
H536 C532 0.930 . S
H537 C534 0.929 . S
S538 N539 1.601 1_554 S
S538 N540 1.595 1_554 S
N539 S538 1.601 1_556 S
N539 C542 1.350 . S
N540 S538 1.595 1_556 S
N540 C541 1.351 . S
C541 C535 1.428 . S
C541 N540 1.351 . S
C541 C542 1.434 . S
C542 C533 1.429 . S
C542 N539 1.350 . S
C542 C541 1.434 . S
C543 C544 1.369 . S
C543 C545 1.419 . S
C543 H547 0.930 . S
C544 C543 1.369 . S
C544 C553 1.429 . S
C545 C543 1.419 . S
C545 C546 1.363 . S
C545 H548 0.929 . S
C546 C545 1.363 . S
C546 C552 1.428 . S
H547 C543 0.930 . S
H548 C545 0.929 . S
S549 N550 1.613 . S
S549 N551 1.610 . S
N550 S549 1.613 . S
N550 C553 1.350 . S
N551 S549 1.610 . S
N551 C552 1.351 . S
C552 C546 1.428 . S
C552 N551 1.351 . S
C552 C553 1.434 . S
C553 C544 1.429 . S
C553 N550 1.350 . S
C553 C552 1.434 . S
C554 C555 1.369 . S
C554 C556 1.419 . S
C554 H558 0.930 . S
C555 C554 1.369 . S
C555 C564 1.429 . S
C556 C554 1.419 . S
C556 C557 1.363 . S
C556 H559 0.929 . S
C557 C556 1.363 . S
C557 C563 1.428 . S
H558 C554 0.930 . S
H559 C556 0.929 . S
S560 N561 1.613 1_655 S
S560 N562 1.610 1_655 S
N561 S560 1.613 1_455 S
N561 C564 1.350 . S
N562 S560 1.610 1_455 S
N562 C563 1.351 . S
C563 C557 1.428 . S
C563 N562 1.351 . S
C563 C564 1.434 . S
C564 C555 1.429 . S
C564 N561 1.350 . S
C564 C563 1.434 . S
C565 C566 1.369 . S
C565 C567 1.419 . S
C565 H569 0.930 . S
C566 C565 1.369 . S
C566 C575 1.429 . S
C567 C565 1.419 . S
C567 C568 1.363 . S
C567 H570 0.929 . S
C568 C567 1.363 . S
C568 C574 1.428 . S
H569 C565 0.930 . S
H570 C567 0.929 . S
S571 N572 1.613 . S
S571 N573 1.610 . S
N572 S571 1.613 . S
N572 C575 1.350 . S
N573 S571 1.610 . S
N573 C574 1.351 . S
C574 C568 1.428 . S
C574 N573 1.351 . S
C574 C575 1.434 . S
C575 C566 1.429 . S
C575 N572 1.350 . S
C575 C574 1.434 . S
C313 C6 1.119 . S
C315 C156 1.164 . S
C324 C21 1.445 . S
C326 C217 1.470 . S
C337 C255 2.096 . S
C335 C49 2.080 . S
C346 C68 2.169 . S
C348 C295 2.255 1_655 S
C359 C215 2.058 . S
C357 C2 1.990 . S
C370 C183 1.793 . S
C368 C30 1.728 . S
C381 C292 1.858 . S
C379 C40 1.879 . S
C392 C252 1.770 . S
C390 C63 1.842 . S
C401 C11 1.052 . S
C403 C297 1.280 . S
C414 C212 2.683 . S
C412 C44 2.683 . S
C423 C59 1.878 . S
C425 C154 1.857 . S
C434 C25 1.944 . S
C436 C257 1.952 . S
C447 C177 1.211 . S
C445 C82 1.201 . S
C456 C101 1.251 . S
C458 C196 1.294 . S
C467 C125 2.384 . S
C469 C234 2.384 . S
C478 C144 1.995 . S
C480 C274 2.031 . S
C489 C87 1.196 . S
C491 C194 1.301 . S
C502 C172 2.516 . S
C500 C97 2.388 . S
C513 C303 1.681 . S
C511 C120 1.749 . S
C524 C263 1.984 . S
C522 C135 1.994 . S
C533 C78 1.764 . S
C535 C276 1.856 . S
C546 C223 2.039 . S
C544 C116 2.018 . S
C557 C175 2.493 . S
C555 C139 2.531 . S
C566 C106 1.036 . S
C568 C236 1.457 . S
