# Generated by pormake.
# Topology dag, (6,3)-cn, num edge types: 1
# Building blocks:
#     Node 0, Type 0, BuildingBlock: IZENUY_clean_sbu_0, # of connection points: 6
#     Node 1, Type 0, BuildingBlock: IZENUY_clean_sbu_0, # of connection points: 6
#     Node 2, Type 0, BuildingBlock: IZENUY_clean_sbu_0, # of connection points: 6
#     Node 3, Type 0, BuildingBlock: IZENUY_clean_sbu_0, # of connection points: 6
#     Node 4, Type 1, BuildingBlock: ESEHIV_clean_linker_0, # of connection points: 3
#     Node 5, Type 1, BuildingBlock: ESEHIV_clean_linker_0, # of connection points: 3
#     Node 6, Type 1, BuildingBlock: ESEHIV_clean_linker_0, # of connection points: 3
#     Node 7, Type 1, BuildingBlock: ESEHIV_clean_linker_0, # of connection points: 3
#     Node 8, Type 1, BuildingBlock: ESEHIV_clean_linker_0, # of connection points: 3
#     Node 9, Type 1, BuildingBlock: ESEHIV_clean_linker_0, # of connection points: 3
#     Node 10, Type 1, BuildingBlock: ESEHIV_clean_linker_0, # of connection points: 3
#     Node 11, Type 1, BuildingBlock: ESEHIV_clean_linker_0, # of connection points: 3
#     Edge 12, Type (0, 1), BuildingBlock: MIFKUJ_clean_linker_0, # of connection points: 2
#     Edge 13, Type (0, 1), BuildingBlock: MIFKUJ_clean_linker_0, # of connection points: 2
#     Edge 14, Type (0, 1), BuildingBlock: MIFKUJ_clean_linker_0, # of connection points: 2
#     Edge 15, Type (0, 1), BuildingBlock: MIFKUJ_clean_linker_0, # of connection points: 2
#     Edge 16, Type (0, 1), BuildingBlock: MIFKUJ_clean_linker_0, # of connection points: 2
#     Edge 17, Type (0, 1), BuildingBlock: MIFKUJ_clean_linker_0, # of connection points: 2
#     Edge 18, Type (0, 1), BuildingBlock: MIFKUJ_clean_linker_0, # of connection points: 2
#     Edge 19, Type (0, 1), BuildingBlock: MIFKUJ_clean_linker_0, # of connection points: 2
#     Edge 20, Type (0, 1), BuildingBlock: MIFKUJ_clean_linker_0, # of connection points: 2
#     Edge 21, Type (0, 1), BuildingBlock: MIFKUJ_clean_linker_0, # of connection points: 2
#     Edge 22, Type (0, 1), BuildingBlock: MIFKUJ_clean_linker_0, # of connection points: 2
#     Edge 23, Type (0, 1), BuildingBlock: MIFKUJ_clean_linker_0, # of connection points: 2
#     Edge 24, Type (0, 1), BuildingBlock: MIFKUJ_clean_linker_0, # of connection points: 2
#     Edge 25, Type (0, 1), BuildingBlock: MIFKUJ_clean_linker_0, # of connection points: 2
#     Edge 26, Type (0, 1), BuildingBlock: MIFKUJ_clean_linker_0, # of connection points: 2
#     Edge 27, Type (0, 1), BuildingBlock: MIFKUJ_clean_linker_0, # of connection points: 2
#     Edge 28, Type (0, 1), BuildingBlock: MIFKUJ_clean_linker_0, # of connection points: 2
#     Edge 29, Type (0, 1), BuildingBlock: MIFKUJ_clean_linker_0, # of connection points: 2
#     Edge 30, Type (0, 1), BuildingBlock: MIFKUJ_clean_linker_0, # of connection points: 2
#     Edge 31, Type (0, 1), BuildingBlock: MIFKUJ_clean_linker_0, # of connection points: 2
#     Edge 32, Type (0, 1), BuildingBlock: MIFKUJ_clean_linker_0, # of connection points: 2
#     Edge 33, Type (0, 1), BuildingBlock: MIFKUJ_clean_linker_0, # of connection points: 2
#     Edge 34, Type (0, 1), BuildingBlock: MIFKUJ_clean_linker_0, # of connection points: 2
#     Edge 35, Type (0, 1), BuildingBlock: MIFKUJ_clean_linker_0, # of connection points: 2
# Relax obj value: 0.255
# Max RMSD: 0.192
# Mean RMSD: 0.159
data_MOF--net-dag--node1-IZENUY_clean_sbu_0--node2-ESEHIV_clean_linker_0--edge1-MIFKUJ_clean_linker_0
_symmetry_space_group_name_H-M    P1
_symmetry_Int_Tables_number       1
_symmetry_cell_setting            triclinic
loop_
_symmetry_equiv_pos_as_xyz
'x, y, z'
_cell_length_a     47.259988
_cell_length_b     49.139972
_cell_length_c     41.5781
_cell_angle_alpha  95.132733
_cell_angle_beta   90.183954
_cell_angle_gamma 89.994963
loop_
_atom_site_label
_atom_site_type_symbol
_atom_site_fract_x
_atom_site_fract_y
_atom_site_fract_z
_atom_type_partial_charge
Fe0 Fe 0.18626 0.83714 0.09046 0.0
Fe1 Fe 0.129 0.84976 0.06094 0.0
O2 O 0.15384 0.82577 0.07277 0.0
Fe3 Fe 0.14624 0.79039 0.06684 0.0
O4 O 0.14866 0.78699 0.10986 0.0
O5 O 0.18909 0.80897 0.11644 0.0
O6 O 0.16831 0.8563 0.12371 0.0
C7 C 0.15018 0.87461 0.12016 0.0
C8 C 0.2043 0.79332 0.05118 0.0
O9 O 0.13828 0.87634 0.09308 0.0
C10 C 0.12706 0.80773 0.01032 0.0
O11 O 0.18919 0.86734 0.0675 0.0
O12 O 0.15376 0.86288 0.03314 0.0
O13 O 0.18334 0.77991 0.06031 0.0
O14 O 0.2061 0.81872 0.05837 0.0
C15 C 0.09358 0.81395 0.08652 0.0
O16 O 0.11527 0.82754 0.02657 0.0
O17 O 0.14357 0.79185 0.02343 0.0
C18 C 0.17771 0.87254 0.04114 0.0
O19 O 0.1028 0.83808 0.08804 0.0
O20 O 0.10767 0.79449 0.07226 0.0
C21 C 0.17027 0.79356 0.1267 0.0
Fe22 Fe 0.69266 0.66429 0.493 0.0
Fe23 Fe 0.65249 0.70794 0.52512 0.0
O24 O 0.66191 0.67308 0.51612 0.0
Fe25 Fe 0.64057 0.64718 0.53036 0.0
O26 O 0.66988 0.62391 0.53622 0.0
O27 O 0.70839 0.64627 0.52481 0.0
O28 O 0.71298 0.69452 0.50905 0.0
C29 C 0.70974 0.71019 0.53472 0.0
C30 C 0.65276 0.62378 0.46989 0.0
O31 O 0.68546 0.71483 0.54646 0.0
C32 C 0.60067 0.6855 0.51074 0.0
O33 O 0.67919 0.68131 0.45937 0.0
O34 O 0.66677 0.71932 0.48749 0.0
O35 O 0.63392 0.63181 0.48992 0.0
O36 O 0.67792 0.63252 0.47298 0.0
C37 C 0.63934 0.68437 0.58303 0.0
O38 O 0.61873 0.70316 0.50448 0.0
O39 O 0.60726 0.6658 0.52694 0.0
C40 C 0.67191 0.70602 0.46065 0.0
O41 O 0.63637 0.70317 0.56438 0.0
O42 O 0.64581 0.66054 0.57188 0.0
C43 C 0.6963 0.62757 0.53842 0.0
Fe44 Fe 0.85277 0.20426 0.02422 0.0
Fe45 Fe 0.87308 0.14497 0.02017 0.0
O46 O 0.84737 0.16935 0.01137 0.0
Fe47 Fe 0.81647 0.15858 0.98965 0.0
O48 O 0.82472 0.17989 0.95776 0.0
O49 O 0.83505 0.21704 0.98908 0.0
O50 O 0.88553 0.20522 0.00161 0.0
C51 C 0.90634 0.18992 0.00576 0.0
C52 C 0.79633 0.19939 0.03666 0.0
O53 O 0.90331 0.1683 0.01971 0.0
C54 C 0.82164 0.11739 0.02892 0.0
O55 O 0.87118 0.1975 0.06192 0.0
O56 O 0.86819 0.15288 0.06297 0.0
O57 O 0.7933 0.18483 0.01013 0.0
O58 O 0.82059 0.20569 0.0475 0.0
C59 C 0.86021 0.12702 0.95807 0.0
O60 O 0.84781 0.11695 0.0226 0.0
O61 O 0.8062 0.13637 0.02027 0.0
C62 C 0.87108 0.17638 0.07745 0.0
O63 O 0.87927 0.13581 0.97763 0.0
O64 O 0.83425 0.13055 0.96509 0.0
C65 C 0.82928 0.20524 0.96147 0.0
Fe66 Fe 0.36517 0.35497 0.55561 0.0
Fe67 Fe 0.31023 0.3387 0.58733 0.0
O68 O 0.3414 0.32938 0.56566 0.0
Fe69 Fe 0.34901 0.29465 0.55413 0.0
O70 O 0.38199 0.29646 0.57674 0.0
O71 O 0.39694 0.33364 0.55671 0.0
O72 O 0.37148 0.36569 0.59789 0.0
C73 C 0.35214 0.37348 0.61747 0.0
C74 C 0.36473 0.32188 0.49954 0.0
O75 O 0.32639 0.36833 0.61068 0.0
C76 C 0.29221 0.29582 0.5418 0.0
O77 O 0.33797 0.38118 0.55251 0.0
O78 O 0.29784 0.35927 0.55596 0.0
O79 O 0.36664 0.30152 0.51621 0.0
O80 O 0.36002 0.3455 0.51295 0.0
C81 C 0.3269 0.294 0.61717 0.0
O82 O 0.28871 0.31062 0.56804 0.0
O83 O 0.31667 0.2906 0.53094 0.0
C84 C 0.31169 0.3791 0.54689 0.0
O85 O 0.32062 0.319 0.62 0.0
O86 O 0.33257 0.2818 0.58982 0.0
C87 C 0.40165 0.31282 0.57169 0.0
H88 H 0.02441 0.10011 0.3089 0.0
H89 H 0.10029 0.10496 0.3665 0.0
H90 H 0.04322 0.17349 0.36868 0.0
C91 C 0.0378 0.11098 0.32699 0.0
C92 C 0.03055 0.13765 0.33869 0.0
C93 C 0.06302 0.099 0.3367 0.0
C94 C 0.08043 0.11377 0.35946 0.0
C95 C 0.07341 0.14064 0.37141 0.0
C96 C 0.04815 0.15233 0.36115 0.0
H97 H 0.46175 0.59975 0.80182 0.0
H98 H 0.39354 0.60625 0.87 0.0
H99 H 0.44708 0.6757 0.8584 0.0
C100 C 0.4501 0.61149 0.82071 0.0
C101 C 0.45711 0.63903 0.8285 0.0
C102 C 0.42735 0.59939 0.8357 0.0
C103 C 0.41169 0.61525 0.85915 0.0
C104 C 0.4185 0.64289 0.86755 0.0
C105 C 0.44168 0.65442 0.85246 0.0
H106 H 0.8017 0.85947 0.11451 0.0
H107 H 0.78854 0.79656 0.17788 0.0
H108 H 0.72805 0.86185 0.17519 0.0
C109 C 0.78826 0.84991 0.13134 0.0
C110 C 0.76295 0.86278 0.14191 0.0
C111 C 0.79777 0.82623 0.14446 0.0
C112 C 0.78131 0.81497 0.16787 0.0
C113 C 0.75635 0.82786 0.17951 0.0
C114 C 0.74701 0.85153 0.166 0.0
H115 H 0.68476 0.3736 0.63087 0.0
H116 H 0.69843 0.31078 0.69513 0.0
H117 H 0.76009 0.37458 0.68872 0.0
C118 C 0.69796 0.3639 0.64791 0.0
C119 C 0.72377 0.37608 0.65759 0.0
C120 C 0.68843 0.34039 0.6615 0.0
C121 C 0.70557 0.32887 0.68441 0.0
C122 C 0.73144 0.34103 0.69444 0.0
C123 C 0.74035 0.36478 0.68097 0.0
H124 H 0.53293 0.3928 0.27812 0.0
H125 H 0.61357 0.38112 0.23179 0.0
H126 H 0.54668 0.32275 0.21049 0.0
C127 C 0.54643 0.38125 0.2609 0.0
C128 C 0.53621 0.357 0.24442 0.0
C129 C 0.57434 0.39004 0.25679 0.0
C130 C 0.59192 0.37465 0.23491 0.0
C131 C 0.58212 0.35037 0.21797 0.0
C132 C 0.55415 0.34181 0.22271 0.0
H133 H 0.17735 0.12807 0.93701 0.0
H134 H 0.20373 0.19564 0.88557 0.0
H135 H 0.25696 0.12452 0.88738 0.0
C136 C 0.19308 0.13772 0.92286 0.0
C137 C 0.21778 0.12338 0.91345 0.0
C138 C 0.18801 0.16393 0.91323 0.0
C139 C 0.20805 0.1758 0.89396 0.0
C140 C 0.23307 0.16177 0.88449 0.0
C141 C 0.23796 0.1357 0.89482 0.0
H142 H 0.30863 0.6235 0.45902 0.0
H143 H 0.30011 0.69772 0.41257 0.0
H144 H 0.23586 0.63523 0.40015 0.0
C145 C 0.29661 0.63641 0.44414 0.0
C146 C 0.27069 0.62698 0.43104 0.0
C147 C 0.30756 0.6618 0.43737 0.0
C148 C 0.29158 0.67825 0.41818 0.0
C149 C 0.26564 0.66894 0.4044 0.0
C150 C 0.25513 0.64334 0.41149 0.0
H151 H 0.98077 0.90086 0.76974 0.0
H152 H 0.9602 0.82579 0.71376 0.0
H153 H 0.90795 0.89677 0.70718 0.0
C154 C 0.96783 0.8899 0.75131 0.0
C155 C 0.94368 0.90243 0.73949 0.0
C156 C 0.97409 0.86242 0.74185 0.0
C157 C 0.95608 0.84731 0.72004 0.0
C158 C 0.93203 0.8596 0.70763 0.0
C159 C 0.92638 0.88726 0.71694 0.0
H160 H 0.16355 0.87389 0.18442 0.0
H161 H 0.15331 0.90944 0.22819 0.0
H162 H 0.11392 0.9586 0.15971 0.0
H163 H 0.12384 0.92343 0.11616 0.0
H164 H 0.15193 0.98765 0.20134 0.0
H165 H 0.07423 0.92306 0.20544 0.0
H166 H 0.05415 0.87749 0.21153 0.0
H167 H 0.09135 0.87815 0.30598 0.0
H168 H 0.1121 0.92352 0.30017 0.0
H169 H 0.0606 0.08397 0.27217 0.0
H170 H 0.0796 0.04298 0.24299 0.0
H171 H 0.10869 0.0144 0.33244 0.0
H172 H 0.08882 0.05547 0.36231 0.0
H173 H 0.08434 0.97274 0.2892 0.0
H174 H 0.1559 0.04056 0.28837 0.0
H175 H 0.17549 0.08631 0.28236 0.0
H176 H 0.15088 0.07959 0.18247 0.0
H177 H 0.1307 0.03397 0.18799 0.0
C178 C 0.15279 0.89233 0.17874 0.0
C179 C 0.14451 0.89586 0.14682 0.0
C180 C 0.14691 0.91254 0.20374 0.0
C181 C 0.13287 0.93659 0.1971 0.0
C182 C 0.12487 0.94021 0.16528 0.0
C183 C 0.13045 0.92001 0.14044 0.0
C184 C 0.1261 0.95822 0.223 0.0
C185 C 0.13717 0.98442 0.22057 0.0
C186 C 0.10762 0.9537 0.24869 0.0
C187 C 0.09502 0.92651 0.25221 0.0
C188 C 0.07836 0.91336 0.22737 0.0
C189 C 0.06683 0.88758 0.23078 0.0
C190 C 0.07156 0.87488 0.25907 0.0
C191 C 0.08778 0.88796 0.28403 0.0
C192 C 0.09943 0.9137 0.28069 0.0
C193 C 0.07045 0.06877 0.28586 0.0
C194 C 0.07304 0.07293 0.31964 0.0
C195 C 0.08159 0.04546 0.26906 0.0
C196 C 0.09588 0.02587 0.28552 0.0
C197 C 0.09783 0.02939 0.31933 0.0
C198 C 0.08664 0.05287 0.33628 0.0
C199 C 0.10936 0.00237 0.26674 0.0
C200 C 0.09964 0.97586 0.27049 0.0
C201 C 0.12923 0.00653 0.24226 0.0
C202 C 0.14166 0.03386 0.23866 0.0
C203 C 0.1545 0.04889 0.26516 0.0
C204 C 0.16573 0.07481 0.26184 0.0
C205 C 0.16441 0.08586 0.23206 0.0
C206 C 0.1519 0.07099 0.20552 0.0
C207 C 0.14059 0.04508 0.20872 0.0
H208 H 0.17311 0.10593 0.22954 0.0
H209 H 0.06257 0.85494 0.26168 0.0
H210 H 0.62057 0.73205 0.61519 0.0
H211 H 0.59734 0.73735 0.66782 0.0
H212 H 0.61238 0.65215 0.67946 0.0
H213 H 0.63624 0.6469 0.62763 0.0
H214 H 0.5504 0.71434 0.67961 0.0
H215 H 0.61127 0.63751 0.75486 0.0
H216 H 0.66072 0.62533 0.76593 0.0
H217 H 0.6883 0.7043 0.74212 0.0
H218 H 0.63898 0.71715 0.73135 0.0
H219 H 0.46318 0.63379 0.76329 0.0
H220 H 0.49925 0.65389 0.73121 0.0
H221 H 0.53562 0.69507 0.81763 0.0
H222 H 0.49974 0.67411 0.8503 0.0
H223 H 0.57586 0.67154 0.77937 0.0
H224 H 0.50016 0.73193 0.76529 0.0
H225 H 0.45131 0.74645 0.75483 0.0
H226 H 0.455 0.70601 0.65902 0.0
H227 H 0.50368 0.69086 0.66902 0.0
C228 C 0.61957 0.71462 0.62935 0.0
C229 C 0.62988 0.68894 0.61698 0.0
C230 C 0.60629 0.7177 0.65944 0.0
C231 C 0.60315 0.6952 0.6777 0.0
C232 C 0.61498 0.66998 0.66622 0.0
C233 C 0.62841 0.66693 0.63631 0.0
C234 C 0.58402 0.69667 0.70603 0.0
C235 C 0.55611 0.7054 0.70165 0.0
C236 C 0.59163 0.68573 0.73521 0.0
C237 C 0.62135 0.67827 0.74221 0.0
C238 C 0.62783 0.65239 0.75224 0.0
C239 C 0.65587 0.64533 0.75839 0.0
C240 C 0.67764 0.66402 0.75469 0.0
C241 C 0.67142 0.68982 0.7449 0.0
C242 C 0.64342 0.69698 0.73873 0.0
C243 C 0.47895 0.64697 0.77557 0.0
C244 C 0.47882 0.65215 0.80936 0.0
C245 C 0.49933 0.65877 0.75714 0.0
C246 C 0.51986 0.67633 0.77197 0.0
C247 C 0.51982 0.68172 0.80572 0.0
C248 C 0.49931 0.66984 0.82429 0.0
C249 C 0.54205 0.68761 0.75184 0.0
C250 C 0.57043 0.68125 0.75776 0.0
C251 C 0.535 0.70113 0.72425 0.0
C252 C 0.50563 0.71018 0.718 0.0
C253 C 0.49051 0.72597 0.74206 0.0
C254 C 0.46283 0.73433 0.73619 0.0
C255 C 0.45006 0.72714 0.70629 0.0
C256 C 0.46493 0.71158 0.68217 0.0
C257 C 0.49259 0.70314 0.68791 0.0
H258 H 0.42863 0.73365 0.70179 0.0
H259 H 0.69933 0.6585 0.75943 0.0
H260 H 0.84921 0.07309 0.04828 0.0
H261 H 0.82911 0.03326 0.07024 0.0
H262 H 0.74554 0.06804 0.06535 0.0
H263 H 0.76559 0.10821 0.0426 0.0
H264 H 0.80133 0.02682 0.12366 0.0
H265 H 0.69886 0.01319 0.04925 0.0
H266 H 0.67912 0.02501 0.99723 0.0
H267 H 0.76272 0.0255 0.95711 0.0
H268 H 0.78287 0.01336 0.00873 0.0
H269 H 0.74329 0.90854 0.17761 0.0
H270 H 0.74068 0.95484 0.16083 0.0
H271 H 0.76532 0.9247 0.06433 0.0
H272 H 0.76643 0.8782 0.08046 0.0
H273 H 0.73161 0.96743 0.06163 0.0
H274 H 0.81453 0.94494 0.12307 0.0
H275 H 0.83944 0.93025 0.17081 0.0
H276 H 0.80419 0.99806 0.22965 0.0
H277 H 0.77862 0.01287 0.18238 0.0
C278 C 0.82653 0.07242 0.05184 0.0
C279 C 0.80899 0.0938 0.04343 0.0
C280 C 0.81508 0.04963 0.06459 0.0
C281 C 0.78583 0.04759 0.06932 0.0
C282 C 0.76817 0.06909 0.06158 0.0
C283 C 0.77966 0.09203 0.04867 0.0
C284 C 0.77431 0.02248 0.08169 0.0
C285 C 0.78576 0.01403 0.11033 0.0
C286 C 0.75421 0.00567 0.06417 0.0
C287 C 0.74235 0.01276 0.03296 0.0
C288 C 0.71299 0.0158 0.0293 0.0
C289 C 0.70174 0.02254 -0.00011 0.0
C290 C 0.71967 0.02612 0.97393 0.0
C291 C 0.74887 0.02285 0.97728 0.0
C292 C 0.76021 0.01607 0.00661 0.0
C293 C 0.74709 0.91157 0.15251 0.0
C294 C 0.75557 0.88971 0.13048 0.0
C295 C 0.74582 0.93813 0.14303 0.0
C296 C 0.7535 0.94332 0.11155 0.0
C297 C 0.7595 0.92124 0.08882 0.0
C298 C 0.76042 0.89468 0.09816 0.0
C299 C 0.75908 0.97157 0.10325 0.0
C300 C 0.74653 0.98061 0.07545 0.0
C301 C 0.77889 0.98863 0.12097 0.0
C302 C 0.79437 0.97979 0.14932 0.0
C303 C 0.81193 0.95659 0.14625 0.0
C304 C 0.82618 0.94826 0.1732 0.0
C305 C 0.82335 0.96317 0.20324 0.0
C306 C 0.8063 0.98649 0.20639 0.0
C307 C 0.7919 0.99485 0.17954 0.0
H308 H 0.83442 0.95669 0.22407 0.0
H309 H 0.71092 0.03135 0.9512 0.0
H310 H 0.41971 0.28558 0.62251 0.0
H311 H 0.46889 0.2801 0.64038 0.0
H312 H 0.49845 0.32068 0.55906 0.0
H313 H 0.44964 0.32676 0.54156 0.0
H314 H 0.53083 0.27141 0.57488 0.0
H315 H 0.49486 0.3604 0.62164 0.0
H316 H 0.4581 0.38746 0.65194 0.0
H317 H 0.46929 0.33949 0.73245 0.0
H318 H 0.50621 0.31216 0.70252 0.0
H319 H 0.6623 0.33503 0.60235 0.0
H320 H 0.61369 0.32099 0.59019 0.0
H321 H 0.6013 0.30533 0.68966 0.0
H322 H 0.64947 0.32082 0.7024 0.0
H323 H 0.55877 0.33322 0.6707 0.0
H324 H 0.60492 0.25234 0.62792 0.0
H325 H 0.63998 0.224 0.59654 0.0
H326 H 0.6086 0.25283 0.5087 0.0
H327 H 0.57361 0.28167 0.53959 0.0
C328 C 0.43678 0.29292 0.60825 0.0
C329 C 0.43097 0.30676 0.58083 0.0
C330 C 0.46475 0.28977 0.61843 0.0
C331 C 0.48714 0.29994 0.60091 0.0
C332 C 0.4814 0.31256 0.57271 0.0
C333 C 0.45354 0.31619 0.56292 0.0
C334 C 0.51642 0.30012 0.6134 0.0
C335 C 0.53711 0.2848 0.59585 0.0
C336 C 0.52421 0.31706 0.64122 0.0
C337 C 0.50309 0.33419 0.65984 0.0
C338 C 0.48946 0.35566 0.64582 0.0
C339 C 0.46861 0.37102 0.66289 0.0
C340 C 0.46125 0.3651 0.69402 0.0
C341 C 0.47499 0.34402 0.70831 0.0
C342 C 0.49595 0.32864 0.69135 0.0
C343 C 0.64927 0.32858 0.62166 0.0
C344 C 0.65983 0.32911 0.65336 0.0
C345 C 0.62155 0.32019 0.61459 0.0
C346 C 0.6039 0.3117 0.63892 0.0
C347 C 0.61456 0.31163 0.67045 0.0
C348 C 0.64223 0.32025 0.67761 0.0
C349 C 0.57379 0.30488 0.63175 0.0
C350 C 0.55276 0.31912 0.65025 0.0
C351 C 0.56574 0.28668 0.60491 0.0
C352 C 0.58672 0.26931 0.58614 0.0
C353 C 0.60561 0.2528 0.60194 0.0
C354 C 0.62546 0.23661 0.58423 0.0
C355 C 0.62654 0.23664 0.55065 0.0
C356 C 0.60774 0.25283 0.53471 0.0
C357 C 0.58785 0.26907 0.55231 0.0
H358 H 0.64193 0.2241 0.53699 0.0
H359 H 0.4449 0.37685 0.70702 0.0
H360 H 0.60911 0.58743 0.4696 0.0
H361 H 0.60038 0.54797 0.43075 0.0
H362 H 0.67245 0.56956 0.37504 0.0
H363 H 0.68182 0.60892 0.41428 0.0
H364 H 0.61777 0.55502 0.33947 0.0
H365 H 0.68453 0.52253 0.41508 0.0
H366 H 0.70225 0.51586 0.46969 0.0
H367 H 0.62808 0.46934 0.48804 0.0
H368 H 0.60959 0.47623 0.43379 0.0
H369 H 0.61064 0.42992 0.23921 0.0
H370 H 0.62868 0.46943 0.27307 0.0
H371 H 0.58034 0.44502 0.35357 0.0
H372 H 0.56392 0.40466 0.32072 0.0
H373 H 0.62875 0.46172 0.37466 0.0
H374 H 0.55884 0.49727 0.30509 0.0
H375 H 0.53672 0.50571 0.25311 0.0
H376 H 0.61167 0.54722 0.22579 0.0
H377 H 0.63438 0.53871 0.27749 0.0
C378 C 0.62301 0.58395 0.44897 0.0
C379 C 0.64623 0.60122 0.44504 0.0
C380 C 0.61803 0.56135 0.4269 0.0
C381 C 0.63591 0.55585 0.40028 0.0
C382 C 0.65852 0.57352 0.39557 0.0
C383 C 0.66384 0.59589 0.41799 0.0
C384 C 0.63107 0.53126 0.37781 0.0
C385 C 0.62065 0.53455 0.34681 0.0
C386 C 0.6342 0.50473 0.38795 0.0
C387 C 0.64551 0.50018 0.42044 0.0
C388 C 0.67185 0.51111 0.43086 0.0
C389 C 0.68206 0.50726 0.46174 0.0
C390 C 0.66622 0.49231 0.48236 0.0
C391 C 0.64026 0.481 0.47206 0.0
C392 C 0.62992 0.48487 0.44124 0.0
C393 C 0.60413 0.43279 0.26423 0.0
C394 C 0.58548 0.41426 0.27704 0.0
C395 C 0.61422 0.45557 0.28348 0.0
C396 C 0.60549 0.46053 0.31577 0.0
C397 C 0.58732 0.44178 0.32872 0.0
C398 C 0.57758 0.41886 0.30969 0.0
C399 C 0.61486 0.4853 0.3362 0.0
C400 C 0.62616 0.48209 0.36696 0.0
C401 C 0.61202 0.51195 0.32606 0.0
C402 C 0.59843 0.51707 0.29497 0.0
C403 C 0.57068 0.50801 0.28789 0.0
C404 C 0.55803 0.51283 0.2585 0.0
C405 C 0.57282 0.52691 0.23611 0.0
C406 C 0.60027 0.53626 0.24312 0.0
C407 C 0.61304 0.53146 0.27246 0.0
H408 H 0.56298 0.53064 0.21338 0.0
H409 H 0.67407 0.48949 0.50632 0.0
H410 H 0.92148 0.21912 0.95551 0.0
H411 H 0.9698 0.2273 0.93674 0.0
H412 H 0.00373 0.18703 0.0164 0.0
H413 H 0.95581 0.17825 0.03475 0.0
H414 H 0.03358 0.23743 0.00089 0.0
H415 H 0.00098 0.14746 0.95344 0.0
H416 H 0.96521 0.11849 0.92376 0.0
H417 H 0.97005 0.16825 0.84414 0.0
H418 H 0.00606 0.19745 0.87342 0.0
H419 H 0.16197 0.16919 0.97184 0.0
H420 H 0.11443 0.1864 0.98411 0.0
H421 H 0.10487 0.20717 0.88599 0.0
H422 H 0.15237 0.1893 0.87336 0.0
H423 H 0.06113 0.17753 0.90355 0.0
H424 H 0.10762 0.25768 0.94793 0.0
H425 H 0.14298 0.28539 0.97989 0.0
H426 H 0.11173 0.25545 0.06695 0.0
H427 H 0.07644 0.22723 0.03549 0.0
C428 C 0.93931 0.21247 0.96925 0.0
C429 C 0.935 0.19789 0.9964 0.0
C430 C 0.96679 0.21715 0.95856 0.0
C431 C 0.9902 0.20782 0.97531 0.0
C432 C 0.9859 0.19455 0.00334 0.0
C433 C 0.95854 0.18938 0.01362 0.0
C434 C 0.01908 0.20897 0.96204 0.0
C435 C 0.03974 0.22454 0.97952 0.0
C436 C 0.02676 0.19261 0.93378 0.0
C437 C 0.00593 0.1747 0.91565 0.0
C438 C 0.99436 0.15221 0.92961 0.0
C439 C 0.97406 0.13577 0.91289 0.0
C440 C 0.96517 0.14165 0.88219 0.0
C441 C 0.97688 0.16378 0.86797 0.0
C442 C 0.99731 0.18022 0.88456 0.0
C443 C 0.14986 0.17773 0.95299 0.0
C444 C 0.16082 0.1778 0.92163 0.0
C445 C 0.1228 0.18782 0.96009 0.0
C446 C 0.10617 0.19834 0.93604 0.0
C447 C 0.11741 0.1993 0.90495 0.0
C448 C 0.14459 0.18924 0.89783 0.0
C449 C 0.07618 0.20557 0.94283 0.0
C450 C 0.05515 0.19133 0.92424 0.0
C451 C 0.06827 0.22322 0.97013 0.0
C452 C 0.08942 0.24022 0.98928 0.0
C453 C 0.10839 0.25685 0.97387 0.0
C454 C 0.12842 0.27268 0.99191 0.0
C455 C 0.12962 0.27216 0.02542 0.0
C456 C 0.11076 0.25584 0.04098 0.0
C457 C 0.0907 0.23996 0.02305 0.0
H458 H 0.14513 0.28443 0.03935 0.0
H459 H 0.94922 0.12906 0.86949 0.0
H460 H 0.25799 0.38016 0.52108 0.0
H461 H 0.23458 0.4192 0.49885 0.0
H462 H 0.30869 0.46862 0.52119 0.0
H463 H 0.33206 0.43024 0.5429 0.0
H464 H 0.25759 0.4948 0.54003 0.0
H465 H 0.30094 0.44055 0.44722 0.0
H466 H 0.30529 0.39786 0.41146 0.0
H467 H 0.21676 0.40114 0.38851 0.0
H468 H 0.2119 0.44374 0.42438 0.0
H469 H 0.29968 0.58059 0.41418 0.0
H470 H 0.289 0.53465 0.42869 0.0
H471 H 0.21089 0.56396 0.47274 0.0
H472 H 0.22159 0.61026 0.4579 0.0
H473 H 0.24586 0.49537 0.42144 0.0
H474 H 0.21094 0.53684 0.54663 0.0
H475 H 0.2122 0.57942 0.58302 0.0
H476 H 0.29099 0.60169 0.54134 0.0
H477 H 0.29033 0.5591 0.50508 0.0
C478 C 0.26915 0.39943 0.52132 0.0
C479 C 0.29689 0.40212 0.53365 0.0
C480 C 0.25577 0.42163 0.50868 0.0
C481 C 0.26989 0.44676 0.50865 0.0
C482 C 0.29736 0.44945 0.5213 0.0
C483 C 0.31077 0.42739 0.53348 0.0
C484 C 0.25725 0.4704 0.49435 0.0
C485 C 0.25414 0.4948 0.51421 0.0
C486 C 0.25291 0.47033 0.4607 0.0
C487 C 0.256 0.44511 0.43868 0.0
C488 C 0.2824 0.43207 0.43465 0.0
C489 C 0.28496 0.40792 0.41435 0.0
C490 C 0.2613 0.39675 0.3978 0.0
C491 C 0.23506 0.40979 0.40138 0.0
C492 C 0.23239 0.43394 0.42166 0.0
C493 C 0.27994 0.57705 0.42633 0.0
C494 C 0.26162 0.59883 0.43543 0.0
C495 C 0.27369 0.55079 0.43428 0.0
C496 C 0.24921 0.54593 0.45186 0.0
C497 C 0.22986 0.56733 0.45909 0.0
C498 C 0.236 0.59368 0.45077 0.0
C499 C 0.24709 0.51993 0.46709 0.0
C500 C 0.24761 0.49513 0.44744 0.0
C501 C 0.24952 0.51961 0.50098 0.0
C502 C 0.25034 0.54505 0.52292 0.0
C503 C 0.22852 0.55084 0.54531 0.0
C504 C 0.22914 0.57495 0.56591 0.0
C505 C 0.2516 0.5933 0.5644 0.0
C506 C 0.27356 0.58751 0.54241 0.0
C507 C 0.27306 0.56341 0.52184 0.0
H508 H 0.25202 0.61196 0.58033 0.0
H509 H 0.2633 0.37802 0.38216 0.0
H510 H 0.15898 0.81863 0.9592 0.0
H511 H 0.14241 0.82011 0.90325 0.0
H512 H 0.06158 0.78788 0.92937 0.0
H513 H 0.07791 0.78707 0.98537 0.0
H514 H 0.0832 0.76829 0.86398 0.0
H515 H 0.06573 0.85097 0.93612 0.0
H516 H 0.08127 0.8896 0.97399 0.0
H517 H 0.13671 0.9168 0.90186 0.0
H518 H 0.12206 0.87785 0.86375 0.0
H519 H 0.97067 0.81751 0.77522 0.0
H520 H 0.0063 0.80093 0.81128 0.0
H521 H 0.06571 0.86063 0.78181 0.0
H522 H 0.02939 0.87809 0.74682 0.0
H523 H 0.06502 0.86441 0.8423 0.0
H524 H 0.07527 0.78812 0.76573 0.0
H525 H 0.06091 0.74958 0.7271 0.0
H526 H 0.02219 0.71004 0.80377 0.0
H527 H 0.03594 0.74852 0.84283 0.0
C528 C 0.13804 0.81103 0.95258 0.0
C529 C 0.11966 0.80254 0.97614 0.0
C530 C 0.12861 0.81191 0.92077 0.0
C531 C 0.1008 0.80408 0.9123 0.0
C532 C 0.08318 0.79373 0.93543 0.0
C533 C 0.09244 0.79332 0.9673 0.0
C534 C 0.08848 0.81056 0.88116 0.0
C535 C 0.0792 0.78924 0.85899 0.0
C536 C 0.08419 0.83793 0.87441 0.0
C537 C 0.09307 0.86131 0.89726 0.0
C538 C 0.08149 0.86499 0.92846 0.0
C539 C 0.09013 0.88695 0.94994 0.0
C540 C 0.11004 0.90559 0.94034 0.0
C541 C 0.12141 0.90226 0.90926 0.0
C542 C 0.11297 0.88023 0.88773 0.0
C543 C 0.9916 0.82654 0.77579 0.0
C544 C 0.99738 0.84901 0.75828 0.0
C545 C 0.01207 0.81698 0.79632 0.0
C546 C 0.03894 0.82929 0.79915 0.0
C547 C 0.04518 0.85078 0.78015 0.0
C548 C 0.02452 0.86069 0.76009 0.0
C549 C 0.05895 0.82208 0.8248 0.0
C550 C 0.06962 0.84335 0.84631 0.0
C551 C 0.06483 0.79463 0.83057 0.0
C552 C 0.05653 0.77133 0.80721 0.0
C553 C 0.06353 0.7713 0.77434 0.0
C554 C 0.05552 0.74945 0.75236 0.0
C555 C 0.04062 0.7274 0.76296 0.0
C556 C 0.03374 0.72714 0.79559 0.0
C557 C 0.04168 0.74895 0.81768 0.0
H558 H 0.03443 0.7105 0.74591 0.0
H559 H 0.1166 0.92266 0.95695 0.0
H560 H 0.9131 0.11784 0.93288 0.0
H561 H 0.92674 0.08416 0.88866 0.0
H562 H 0.83921 0.06149 0.87391 0.0
H563 H 0.82538 0.095 0.918 0.0
H564 H 0.87445 0.01794 0.88317 0.0
H565 H 0.8721 0.09485 0.82013 0.0
H566 H 0.88443 0.14072 0.80505 0.0
H567 H 0.97158 0.11696 0.79488 0.0
H568 H 0.95994 0.07112 0.81075 0.0
H569 H 0.88985 0.92022 0.75373 0.0
H570 H 0.87553 0.96283 0.7833 0.0
H571 H 0.96257 0.98914 0.78985 0.0
H572 H 0.97708 0.94706 0.75826 0.0
H573 H 0.92796 0.03199 0.78351 0.0
H574 H 0.93265 0.95801 0.85082 0.0
H575 H 0.92244 0.91191 0.86683 0.0
H576 H 0.83367 0.93054 0.87093 0.0
H577 H 0.84333 0.97664 0.85446 0.0
C578 C 0.89674 0.10592 0.91994 0.0
C579 C 0.8682 0.10888 0.92918 0.0
C580 C 0.90455 0.08684 0.89456 0.0
C581 C 0.88396 0.07042 0.87801 0.0
C582 C 0.85539 0.07401 0.88641 0.0
C583 C 0.84754 0.09319 0.9116 0.0
C584 C 0.89236 0.04771 0.85414 0.0
C585 C 0.88573 0.02106 0.8611 0.0
C586 C 0.90804 0.05182 0.82602 0.0
C587 C 0.91517 0.07958 0.81702 0.0
C588 C 0.89397 0.09948 0.81513 0.0
C589 C 0.90083 0.12548 0.80634 0.0
C590 C 0.92877 0.13175 0.79902 0.0
C591 C 0.94993 0.11205 0.80049 0.0
C592 C 0.94322 0.08607 0.80947 0.0
C593 C 0.90598 0.93534 0.76041 0.0
C594 C 0.93473 0.92998 0.75375 0.0
C595 C 0.89773 0.95963 0.77774 0.0
C596 C 0.91805 0.97886 0.78947 0.0
C597 C 0.94656 0.97445 0.78126 0.0
C598 C 0.95484 0.95024 0.7635 0.0
C599 C 0.9097 0.00232 0.81243 0.0
C600 C 0.91653 0.02898 0.8055 0.0
C601 C 0.89455 0.99833 0.84095 0.0
C602 C 0.88869 0.97068 0.8511 0.0
C603 C 0.91093 0.95221 0.85492 0.0
C604 C 0.90525 0.92609 0.8641 0.0
C605 C 0.87742 0.91828 0.86982 0.0
C606 C 0.85522 0.9366 0.86645 0.0
C607 C 0.86078 0.96274 0.85721 0.0
H608 H 0.87306 0.89804 0.87693 0.0
H609 H 0.93403 0.15188 0.7922 0.0
H610 H 0.361 0.3602 0.4559 0.0
H611 H 0.38027 0.35721 0.40133 0.0
H612 H 0.40569 0.27391 0.4103 0.0
H613 H 0.38665 0.27674 0.46508 0.0
H614 H 0.44924 0.3064 0.39495 0.0
H615 H 0.35529 0.28724 0.35595 0.0
H616 H 0.30384 0.29519 0.35356 0.0
H617 H 0.31837 0.37409 0.31994 0.0
H618 H 0.36994 0.36676 0.32248 0.0
H619 H 0.52294 0.30412 0.25418 0.0
H620 H 0.48263 0.28901 0.28428 0.0
H621 H 0.44705 0.37005 0.28843 0.0
H622 H 0.48654 0.385 0.25661 0.0
H623 H 0.40538 0.33155 0.29307 0.0
H624 H 0.49487 0.35678 0.34297 0.0
H625 H 0.54669 0.35438 0.34917 0.0
H626 H 0.54037 0.26985 0.36702 0.0
H627 H 0.48848 0.27165 0.36028 0.0
C628 C 0.37028 0.34108 0.44612 0.0
C629 C 0.37269 0.31884 0.46503 0.0
C630 C 0.38105 0.33933 0.41478 0.0
C631 C 0.3943 0.31529 0.40174 0.0
C632 C 0.39547 0.29261 0.41994 0.0
C633 C 0.3846 0.2943 0.45125 0.0
C634 C 0.41018 0.31517 0.3711 0.0
C635 C 0.43949 0.31107 0.37241 0.0
C636 C 0.39756 0.32234 0.34211 0.0
C637 C 0.36653 0.32647 0.33953 0.0
C638 C 0.34753 0.30633 0.34814 0.0
C639 C 0.31833 0.31072 0.34676 0.0
C640 C 0.30785 0.33514 0.33664 0.0
C641 C 0.32653 0.35517 0.32774 0.0
C642 C 0.35575 0.35087 0.32906 0.0
C643 C 0.50592 0.31845 0.26003 0.0
C644 C 0.50839 0.34602 0.25379 0.0
C645 C 0.4829 0.30977 0.27743 0.0
C646 C 0.46234 0.32863 0.28944 0.0
C647 C 0.46285 0.35522 0.27972 0.0
C648 C 0.48565 0.36382 0.26188 0.0
C649 C 0.44433 0.32255 0.31702 0.0
C650 C 0.41486 0.32591 0.31531 0.0
C651 C 0.45676 0.3153 0.34611 0.0
C652 C 0.48787 0.31425 0.35072 0.0
C653 C 0.50456 0.33764 0.34801 0.0
C654 C 0.53393 0.33639 0.35161 0.0
C655 C 0.54682 0.31195 0.3584 0.0
C656 C 0.53035 0.28874 0.36168 0.0
C657 C 0.50096 0.28985 0.35794 0.0
H658 H 0.56957 0.31102 0.36121 0.0
H659 H 0.28524 0.33854 0.33566 0.0
H660 H 0.15461 0.89475 0.98923 0.0
H661 H 0.17248 0.93306 0.96211 0.0
H662 H 0.2475 0.93563 0.0218 0.0
H663 H 0.22921 0.89772 0.04993 0.0
H664 H 0.22621 0.98399 0.02277 0.0
H665 H 0.24942 0.91655 0.93881 0.0
H666 H 0.24232 0.87605 0.90021 0.0
H667 H 0.17655 0.91772 0.85276 0.0
H668 H 0.18279 0.95829 0.89148 0.0
H669 H 0.26402 0.10032 0.94014 0.0
H670 H 0.26823 0.05348 0.95603 0.0
H671 H 0.18391 0.03562 0.92003 0.0
H672 H 0.17969 0.08211 0.9041 0.0
H673 H 0.22218 0.99274 0.9049 0.0
H674 H 0.19288 0.05458 0.99737 0.0
H675 H 0.19912 0.09463 0.03695 0.0
H676 H 0.27799 0.06206 0.06784 0.0
H677 H 0.27237 0.02197 0.02809 0.0
C678 C 0.17508 0.9032 0.99636 0.0
C679 C 0.19032 0.8934 0.02202 0.0
C680 C 0.18543 0.92499 0.98059 0.0
C681 C 0.2115 0.9371 0.98968 0.0
C682 C 0.22734 0.9266 0.01438 0.0
C683 C 0.21686 0.90494 0.03042 0.0
C684 C 0.22056 0.96241 0.97567 0.0
C685 C 0.22613 0.98565 0.99692 0.0
C686 C 0.22015 0.96474 0.94195 0.0
C687 C 0.21652 0.94049 0.91822 0.0
C688 C 0.23331 0.91705 0.92028 0.0
C689 C 0.22943 0.89406 0.89837 0.0
C690 C 0.20897 0.89431 0.87408 0.0
C691 C 0.19243 0.91758 0.87157 0.0
C692 C 0.19614 0.94059 0.8935 0.0
C693 C 0.24659 0.08622 0.93532 0.0
C694 C 0.22139 0.09483 0.92135 0.0
C695 C 0.249 0.05957 0.94437 0.0
C696 C 0.22632 0.0412 0.93928 0.0
C697 C 0.20166 0.04948 0.92407 0.0
C698 C 0.19916 0.07609 0.91532 0.0
C699 C 0.22695 0.01409 0.95209 0.0
C700 C 0.22312 0.99067 0.93063 0.0
C701 C 0.2291 0.01147 0.98558 0.0
C702 C 0.2324 0.0355 0.00951 0.0
C703 C 0.21166 0.05609 0.01242 0.0
C704 C 0.21506 0.07876 0.03491 0.0
C705 C 0.23898 0.08093 0.05482 0.0
C706 C 0.25951 0.06038 0.05234 0.0
C707 C 0.25623 0.03769 0.02985 0.0
H708 H 0.24157 0.0985 0.07223 0.0
H709 H 0.20596 0.87647 0.85717 0.0
H710 H 0.57111 0.7328 0.50418 0.0
H711 H 0.52039 0.73683 0.49153 0.0
H712 H 0.51279 0.64904 0.48298 0.0
H713 H 0.56289 0.64488 0.49642 0.0
H714 H 0.48876 0.68024 0.42949 0.0
H715 H 0.491 0.67474 0.54658 0.0
H716 H 0.50566 0.69115 0.60194 0.0
H717 H 0.46741 0.76906 0.59104 0.0
H718 H 0.45285 0.7532 0.5354 0.0
H719 H 0.3538 0.62865 0.43508 0.0
H720 H 0.40267 0.64094 0.44754 0.0
H721 H 0.37792 0.72469 0.47207 0.0
H722 H 0.32826 0.71228 0.4606 0.0
H723 H 0.41809 0.70671 0.51471 0.0
H724 H 0.40796 0.70965 0.40163 0.0
H725 H 0.39292 0.69376 0.3463 0.0
H726 H 0.44623 0.62315 0.3481 0.0
H727 H 0.46125 0.63837 0.40366 0.0
C728 C 0.55856 0.71442 0.49943 0.0
C729 C 0.5708 0.68853 0.50135 0.0
C730 C 0.5297 0.71676 0.49236 0.0
C731 C 0.51302 0.69321 0.48646 0.0
C732 C 0.52541 0.6674 0.48753 0.0
C733 C 0.55395 0.66508 0.49527 0.0
C734 C 0.48251 0.69497 0.47923 0.0
C735 C 0.47325 0.68608 0.44802 0.0
C736 C 0.4625 0.70346 0.50328 0.0
C737 C 0.47123 0.71294 0.53668 0.0
C738 C 0.48601 0.69548 0.55585 0.0
C739 C 0.49422 0.70464 0.58731 0.0
C740 C 0.4876 0.73118 0.59994 0.0
C741 C 0.47261 0.74855 0.58118 0.0
C742 C 0.46437 0.73948 0.5497 0.0
C743 C 0.35851 0.6496 0.44376 0.0
C744 C 0.33704 0.66946 0.44698 0.0
C745 C 0.38657 0.65666 0.45051 0.0
C746 C 0.39397 0.6838 0.46021 0.0
C747 C 0.37263 0.70365 0.4644 0.0
C748 C 0.34435 0.69656 0.45766 0.0
C749 C 0.42423 0.691 0.46513 0.0
C750 C 0.4335 0.70155 0.49586 0.0
C751 C 0.44435 0.68428 0.44052 0.0
C752 C 0.43564 0.67512 0.40692 0.0
C753 C 0.41635 0.69065 0.39032 0.0
C754 C 0.40784 0.68176 0.3589 0.0
C755 C 0.41859 0.65745 0.34371 0.0
C756 C 0.43793 0.64199 0.35989 0.0
C757 C 0.44648 0.65076 0.39135 0.0
H758 H 0.41197 0.6506 0.31938 0.0
H759 H 0.494 0.73825 0.62428 0.0
H760 H 0.40459 0.38576 0.64308 0.0
H761 H 0.41605 0.4192 0.68857 0.0
H762 H 0.32722 0.43614 0.70282 0.0
H763 H 0.31556 0.40288 0.65762 0.0
H764 H 0.35999 0.48212 0.69548 0.0
H765 H 0.36156 0.4031 0.75523 0.0
H766 H 0.37657 0.35747 0.76882 0.0
H767 H 0.46191 0.38617 0.78267 0.0
H768 H 0.44762 0.43179 0.76828 0.0
H769 H 0.37335 0.58027 0.82503 0.0
H770 H 0.35915 0.5367 0.79706 0.0
H771 H 0.44658 0.51181 0.78951 0.0
H772 H 0.4609 0.55477 0.81926 0.0
H773 H 0.41339 0.46836 0.79568 0.0
H774 H 0.41531 0.54343 0.72953 0.0
H775 H 0.40335 0.58947 0.71448 0.0
H776 H 0.31526 0.568 0.70999 0.0
H777 H 0.32667 0.52193 0.72554 0.0
C778 C 0.38751 0.39642 0.65612 0.0
C779 C 0.35919 0.3919 0.6465 0.0
C780 C 0.39408 0.41534 0.68223 0.0
C781 C 0.37245 0.43002 0.69905 0.0
C782 C 0.34418 0.42495 0.69013 0.0
C783 C 0.33758 0.40594 0.66426 0.0
C784 C 0.37928 0.45254 0.72388 0.0
C785 C 0.37122 0.47903 0.71767 0.0
C786 C 0.39483 0.44851 0.75221 0.0
C787 C 0.40354 0.42087 0.76031 0.0
C788 C 0.38361 0.39962 0.76072 0.0
C789 C 0.39198 0.37375 0.76864 0.0
C790 C 0.42017 0.36894 0.77659 0.0
C791 C 0.44006 0.38995 0.77657 0.0
C792 C 0.43185 0.4158 0.76844 0.0
C793 C 0.38954 0.56521 0.8185 0.0
C794 C 0.41835 0.57123 0.82396 0.0
C795 C 0.38138 0.54037 0.80218 0.0
C796 C 0.40186 0.52133 0.79045 0.0
C797 C 0.43043 0.52632 0.79807 0.0
C798 C 0.4386 0.55102 0.81477 0.0
C799 C 0.39385 0.49783 0.76733 0.0
C800 C 0.40189 0.47131 0.77364 0.0
C801 C 0.37873 0.50174 0.73866 0.0
C802 C 0.37181 0.52935 0.72904 0.0
C803 C 0.39337 0.5486 0.72556 0.0
C804 C 0.38669 0.57469 0.71692 0.0
C805 C 0.35855 0.58168 0.71136 0.0
C806 C 0.33704 0.56257 0.71436 0.0
C807 C 0.3436 0.53646 0.72308 0.0
H808 H 0.35342 0.60189 0.70466 0.0
H809 H 0.42661 0.34895 0.78286 0.0
H810 H 0.06085 0.84832 0.12562 0.0
H811 H 0.01049 0.84399 0.1367 0.0
H812 H 0.00874 0.76593 0.08022 0.0
H813 H 0.0594 0.76989 0.06947 0.0
H814 H 0.9693 0.84279 0.09406 0.0
H815 H 0.9543 0.72747 0.10795 0.0
H816 H 0.98089 0.68908 0.12779 0.0
H817 H 0.02924 0.7453 0.19107 0.0
H818 H 0.00269 0.78396 0.17195 0.0
H819 H 0.82347 0.81852 0.08532 0.0
H820 H 0.87359 0.80876 0.07476 0.0
H821 H 0.88741 0.80108 0.17615 0.0
H822 H 0.83755 0.81076 0.18685 0.0
H823 H 0.92047 0.76535 0.13916 0.0
H824 H 0.89717 0.86123 0.1473 0.0
H825 H 0.87057 0.90155 0.13279 0.0
H826 H 0.90058 0.88844 0.03528 0.0
H827 H 0.92701 0.84772 0.0491 0.0
C828 C 0.04986 0.83005 0.11588 0.0
C829 C 0.06406 0.80954 0.09646 0.0
C830 C 0.02106 0.82764 0.12218 0.0
C831 C 0.00583 0.80471 0.10918 0.0
C832 C 0.02013 0.78369 0.09075 0.0
C833 C 0.04908 0.78599 0.08461 0.0
C834 C 0.9747 0.8038 0.11332 0.0
C835 C 0.95868 0.82578 0.10384 0.0
C836 C 0.96082 0.78173 0.12627 0.0
C837 C 0.97671 0.75862 0.13822 0.0
C838 C 0.97054 0.73162 0.12617 0.0
C839 C 0.98561 0.70982 0.13729 0.0
C840 C 0.00681 0.71476 0.16059 0.0
C841 C 0.01291 0.74151 0.17292 0.0
C842 C 0.99788 0.76337 0.16192 0.0
C843 C 0.83712 0.81427 0.10523 0.0
C844 C 0.82663 0.81565 0.13693 0.0
C845 C 0.86568 0.80862 0.09918 0.0
C846 C 0.88424 0.80458 0.12477 0.0
C847 C 0.87343 0.80405 0.15606 0.0
C848 C 0.84488 0.80958 0.16212 0.0
C849 C 0.91526 0.80425 0.11977 0.0
C850 C 0.93119 0.78213 0.12905 0.0
C851 C 0.92924 0.82651 0.10736 0.0
C852 C 0.91382 0.85127 0.09914 0.0
C853 C 0.89796 0.86685 0.12271 0.0
C854 C 0.88291 0.88978 0.11462 0.0
C855 C 0.88382 0.89752 0.08312 0.0
C856 C 0.89986 0.88239 0.05966 0.0
C857 C 0.91488 0.85939 0.0676 0.0
H858 H 0.87214 0.91527 0.07691 0.0
H859 H 0.01847 0.69785 0.16914 0.0
H860 H 0.68758 0.60813 0.59617 0.0
H861 H 0.70813 0.56678 0.6153 0.0
H862 H 0.76117 0.55695 0.53083 0.0
H863 H 0.74126 0.59907 0.51212 0.0
H864 H 0.72108 0.51262 0.54164 0.0
H865 H 0.79545 0.5644 0.59477 0.0
H866 H 0.8163 0.60281 0.62905 0.0
H867 H 0.76941 0.57952 0.71051 0.0
H868 H 0.74793 0.5412 0.67662 0.0
H869 H 0.74812 0.38347 0.59981 0.0
H870 H 0.75769 0.42723 0.57754 0.0
H871 H 0.72527 0.47028 0.66488 0.0
H872 H 0.71705 0.42664 0.68744 0.0
H873 H 0.76744 0.49734 0.6457 0.0
H874 H 0.68465 0.45564 0.59311 0.0
H875 H 0.65721 0.42058 0.56025 0.0
H876 H 0.71303 0.42771 0.48014 0.0
H877 H 0.74102 0.46259 0.51271 0.0
C878 C 0.70437 0.59766 0.58234 0.0
C879 C 0.71307 0.60669 0.55289 0.0
C880 C 0.71608 0.57412 0.59324 0.0
C881 C 0.73619 0.55896 0.57449 0.0
C882 C 0.74587 0.56861 0.54572 0.0
C883 C 0.73463 0.59263 0.53518 0.0
C884 C 0.74357 0.53129 0.58295 0.0
C885 C 0.732 0.50906 0.56389 0.0
C886 C 0.75698 0.52703 0.61246 0.0
C887 C 0.76998 0.54996 0.63307 0.0
C888 C 0.78942 0.56757 0.61993 0.0
C889 C 0.80138 0.58932 0.63932 0.0
C890 C 0.79416 0.59362 0.67193 0.0
C891 C 0.775 0.57615 0.68525 0.0
C892 C 0.76296 0.55438 0.66597 0.0
C893 C 0.74358 0.40241 0.61426 0.0
C894 C 0.73195 0.40203 0.64519 0.0
C895 C 0.74884 0.42732 0.60154 0.0
C896 C 0.74181 0.45209 0.61932 0.0
C897 C 0.73099 0.45151 0.65071 0.0
C898 C 0.72618 0.42667 0.66357 0.0
C899 C 0.74404 0.47862 0.60494 0.0
C900 C 0.75731 0.50065 0.62292 0.0
C901 C 0.73149 0.48288 0.57478 0.0
C902 C 0.71519 0.46136 0.5555 0.0
C903 C 0.69126 0.44948 0.56862 0.0
C904 C 0.67557 0.42971 0.55002 0.0
C905 C 0.68345 0.42183 0.51817 0.0
C906 C 0.70704 0.43372 0.50486 0.0
C907 C 0.72284 0.45347 0.52338 0.0
H908 H 0.67121 0.40659 0.50377 0.0
H909 H 0.80344 0.61048 0.6869 0.0
H910 H 0.88957 0.13603 0.11299 0.0
H911 H 0.90433 0.13997 0.16908 0.0
H912 H 0.88218 0.22557 0.17777 0.0
H913 H 0.86846 0.22195 0.12058 0.0
H914 H 0.92975 0.22123 0.20364 0.0
H915 H 0.84459 0.17692 0.21995 0.0
H916 H 0.80529 0.1443 0.20966 0.0
H917 H 0.86118 0.07758 0.22419 0.0
H918 H 0.90094 0.1097 0.23407 0.0
H919 H 0.97692 0.15017 0.36026 0.0
H920 H 0.93827 0.16906 0.32892 0.0
H921 H 0.99532 0.17394 0.2487 0.0
H922 H 0.03343 0.15552 0.27987 0.0
H923 H 0.9148 0.14703 0.27524 0.0
H924 H 0.98202 0.22383 0.20555 0.0
H925 H 0.01819 0.25921 0.21876 0.0
H926 H 0.99119 0.26701 0.31765 0.0
H927 H 0.95453 0.23199 0.30499 0.0
C928 C 0.88748 0.15566 0.12684 0.0
C929 C 0.87797 0.17872 0.11229 0.0
C930 C 0.89565 0.15784 0.15916 0.0
C931 C 0.8938 0.18294 0.17805 0.0
C932 C 0.88365 0.20593 0.16379 0.0
C933 C 0.87589 0.20387 0.13112 0.0
C934 C 0.90545 0.1853 0.21144 0.0
C935 C 0.92611 0.20529 0.21956 0.0
C936 C 0.89974 0.16538 0.2332 0.0
C937 C 0.87581 0.14582 0.2278 0.0
C938 C 0.84856 0.15529 0.22086 0.0
C939 C 0.82618 0.13687 0.21508 0.0
C940 C 0.83074 0.10889 0.21628 0.0
C941 C 0.85767 0.09928 0.22334 0.0
C942 C 0.88013 0.1176 0.22912 0.0
C943 C 0.98108 0.1559 0.33617 0.0
C944 C 0.0079 0.15163 0.32228 0.0
C945 C 0.95912 0.16659 0.31833 0.0
C946 C 0.964 0.17334 0.28664 0.0
C947 C 0.99115 0.1696 0.27333 0.0
C948 C 0.01287 0.1589 0.29099 0.0
C949 C 0.94062 0.18146 0.26563 0.0
C950 C 0.91769 0.16354 0.25991 0.0
C951 C 0.94358 0.20382 0.2467 0.0
C952 C 0.96546 0.2252 0.25428 0.0
C953 C 0.98358 0.23324 0.23006 0.0
C954 C 0.00424 0.2532 0.23747 0.0
C955 C 0.007 0.26534 0.26902 0.0
C956 C 0.98907 0.25756 0.29323 0.0
C957 C 0.96837 0.23762 0.28595 0.0
H958 H 0.02302 0.28078 0.27471 0.0
H959 H 0.8134 0.09466 0.21175 0.0
H960 H 0.13291 0.76515 0.16159 0.0
H961 H 0.1429 0.74309 0.21116 0.0
H962 H 0.22938 0.77087 0.20927 0.0
H963 H 0.21971 0.793 0.16031 0.0
H964 H 0.22234 0.71392 0.21587 0.0
H965 H 0.18594 0.80264 0.25989 0.0
H966 H 0.14892 0.83808 0.26686 0.0
H967 H 0.09234 0.78055 0.30468 0.0
H968 H 0.12888 0.74466 0.29745 0.0
H969 H 0.29072 0.69708 0.35825 0.0
H970 H 0.26825 0.71811 0.31425 0.0
H971 H 0.18619 0.69444 0.3473 0.0
H972 H 0.2085 0.67484 0.39325 0.0
H973 H 0.18327 0.7435 0.32406 0.0
H974 H 0.21844 0.6562 0.28596 0.0
H975 H 0.25306 0.61866 0.2784 0.0
H976 H 0.30818 0.66945 0.22769 0.0
H977 H 0.27408 0.70745 0.23537 0.0
C978 C 0.15402 0.76658 0.17183 0.0
C979 C 0.17555 0.78071 0.15696 0.0
C980 C 0.15962 0.75408 0.20014 0.0
C981 C 0.18686 0.75541 0.21372 0.0
C982 C 0.20825 0.76961 0.19904 0.0
C983 C 0.20263 0.7823 0.17109 0.0
C984 C 0.1938 0.74141 0.2427 0.0
C985 C 0.21391 0.72042 0.23957 0.0
C986 C 0.18181 0.7492 0.27326 0.0
C987 C 0.16002 0.77089 0.27777 0.0
C988 C 0.16552 0.79748 0.2694 0.0
C989 C 0.14464 0.81766 0.27346 0.0
C990 C 0.11828 0.81153 0.28612 0.0
C991 C 0.11276 0.78525 0.29482 0.0
C992 C 0.13354 0.76499 0.29077 0.0
C993 C 0.26784 0.697 0.35699 0.0
C994 C 0.25147 0.68413 0.37944 0.0
C995 C 0.25502 0.7087 0.33138 0.0
C996 C 0.22561 0.70718 0.32699 0.0
C997 C 0.20897 0.69555 0.35006 0.0
C998 C 0.22179 0.68415 0.37612 0.0
C999 C 0.21278 0.71673 0.29743 0.0
C1000 C 0.19145 0.73668 0.30034 0.0
C1001 C 0.22325 0.70765 0.26643 0.0
C1002 C 0.24375 0.68474 0.26142 0.0
C1003 C 0.23802 0.65942 0.27336 0.0
C1004 C 0.25755 0.63805 0.26904 0.0
C1005 C 0.28282 0.64168 0.25261 0.0
C1006 C 0.28859 0.66667 0.24041 0.0
C1007 C 0.26915 0.68813 0.2447 0.0
H1008 H 0.29792 0.62511 0.24931 0.0
H1009 H 0.10216 0.82714 0.28929 0.0
H1010 H 0.71036 0.74556 0.58931 0.0
H1011 H 0.75084 0.76975 0.61454 0.0
H1012 H 0.80566 0.7322 0.54061 0.0
H1013 H 0.76518 0.70754 0.51521 0.0
H1014 H 0.82882 0.73216 0.60165 0.0
H1015 H 0.78479 0.79661 0.53745 0.0
H1016 H 0.74475 0.82286 0.51802 0.0
H1017 H 0.73266 0.86211 0.61339 0.0
H1018 H 0.7721 0.83553 0.63369 0.0
H1019 H 0.94225 0.82302 0.65507 0.0
H1020 H 0.90718 0.79663 0.62156 0.0
H1021 H 0.84021 0.83235 0.68178 0.0
H1022 H 0.87493 0.85886 0.7148 0.0
H1023 H 0.82625 0.83323 0.62101 0.0
H1024 H 0.86468 0.76608 0.6869 0.0
H1025 H 0.9025 0.73864 0.70917 0.0
H1026 H 0.92366 0.70445 0.6136 0.0
H1027 H 0.88618 0.73199 0.59073 0.0
C1028 C 0.73097 0.74242 0.57829 0.0
C1029 C 0.73445 0.72477 0.55003 0.0
C1030 C 0.75411 0.75632 0.59276 0.0
C1031 C 0.78118 0.75305 0.57919 0.0
C1032 C 0.7849 0.73507 0.55137 0.0
C1033 C 0.76173 0.7211 0.53684 0.0
C1034 C 0.80542 0.76867 0.59412 0.0
C1035 C 0.82855 0.7543 0.6054 0.0
C1036 C 0.80476 0.79751 0.59946 0.0
C1037 C 0.78133 0.81391 0.58714 0.0
C1038 C 0.77349 0.8107 0.55435 0.0
C1039 C 0.7509 0.82566 0.54317 0.0
C1040 C 0.73621 0.84417 0.56442 0.0
C1041 C 0.74407 0.84777 0.59694 0.0
C1042 C 0.76653 0.83274 0.60831 0.0
C1043 C 0.92003 0.8251 0.66111 0.0
C1044 C 0.91128 0.84316 0.68733 0.0
C1045 C 0.90003 0.81002 0.64203 0.0
C1046 C 0.87104 0.81244 0.64922 0.0
C1047 C 0.86241 0.8303 0.67557 0.0
C1048 C 0.88227 0.84548 0.6944 0.0
C1049 C 0.84937 0.79672 0.62939 0.0
C1050 C 0.82674 0.81111 0.61699 0.0
C1051 C 0.85036 0.76791 0.62337 0.0
C1052 C 0.87287 0.75134 0.63708 0.0
C1053 C 0.87756 0.75288 0.67062 0.0
C1054 C 0.8989 0.73728 0.68335 0.0
C1055 C 0.91554 0.71988 0.6628 0.0
C1056 C 0.9108 0.71798 0.62948 0.0
C1057 C 0.88951 0.73358 0.61662 0.0
H1058 H 0.93204 0.70781 0.67271 0.0
H1059 H 0.71874 0.85574 0.55569 0.0
H1060 H 0.7953 0.22811 0.09584 0.0
H1061 H 0.75475 0.24936 0.12391 0.0
H1062 H 0.70001 0.2191 0.04551 0.0
H1063 H 0.74078 0.19785 0.01683 0.0
H1064 H 0.69055 0.27329 0.06487 0.0
H1065 H 0.69759 0.18995 0.11517 0.0
H1066 H 0.72222 0.15387 0.14191 0.0
H1067 H 0.74506 0.21209 0.2209 0.0
H1068 H 0.72092 0.24863 0.19442 0.0
H1069 H 0.57127 0.32241 0.15902 0.0
H1070 H 0.60354 0.29259 0.12611 0.0
H1071 H 0.66962 0.30952 0.19693 0.0
H1072 H 0.63727 0.33825 0.23046 0.0
H1073 H 0.66818 0.25677 0.178 0.0
H1074 H 0.66703 0.34056 0.12531 0.0
H1075 H 0.64489 0.3778 0.09814 0.0
H1076 H 0.61272 0.31961 0.02376 0.0
H1077 H 0.63437 0.28197 0.05075 0.0
C1078 C 0.77467 0.22583 0.08451 0.0
C1079 C 0.77131 0.21127 0.05404 0.0
C1080 C 0.75146 0.23789 0.10071 0.0
C1081 C 0.72433 0.23554 0.08696 0.0
C1082 C 0.72079 0.22104 0.05657 0.0
C1083 C 0.74407 0.20886 0.04029 0.0
C1084 C 0.70002 0.24905 0.1042 0.0
C1085 C 0.68519 0.26929 0.08936 0.0
C1086 C 0.69346 0.24412 0.13634 0.0
C1087 C 0.70755 0.22208 0.15269 0.0
C1088 C 0.70798 0.1951 0.13816 0.0
C1089 C 0.72185 0.17456 0.15328 0.0
C1090 C 0.73524 0.18069 0.18306 0.0
C1091 C 0.73469 0.20737 0.19784 0.0
C1092 C 0.72087 0.228 0.1828 0.0
C1093 C 0.59263 0.31963 0.16764 0.0
C1094 C 0.60175 0.33291 0.19725 0.0
C1095 C 0.6111 0.30275 0.1487 0.0
C1096 C 0.63909 0.29903 0.15891 0.0
C1097 C 0.64814 0.31212 0.18853 0.0
C1098 C 0.6297 0.32884 0.2075 0.0
C1099 C 0.65917 0.28154 0.13898 0.0
C1100 C 0.67318 0.26049 0.15332 0.0
C1101 C 0.66508 0.28584 0.10645 0.0
C1102 C 0.65201 0.30844 0.09027 0.0
C1103 C 0.65502 0.33569 0.10332 0.0
C1104 C 0.6426 0.35687 0.08792 0.0
C1105 C 0.62732 0.35107 0.0593 0.0
C1106 C 0.6245 0.32407 0.04597 0.0
C1107 C 0.63684 0.30281 0.0613 0.0
H1108 H 0.61773 0.3675 0.04741 0.0
H1109 H 0.74601 0.16477 0.1947 0.0
H1110 H 0.32011 0.31424 0.67992 0.0
H1111 H 0.31347 0.28853 0.72681 0.0
H1112 H 0.32274 0.21291 0.66659 0.0
H1113 H 0.32919 0.2385 0.61929 0.0
H1114 H 0.27536 0.21395 0.70341 0.0
H1115 H 0.37364 0.23211 0.72038 0.0
H1116 H 0.41642 0.26092 0.72472 0.0
H1117 H 0.38076 0.30896 0.80595 0.0
H1118 H 0.33756 0.2806 0.80189 0.0
H1119 H 0.25884 0.13468 0.83233 0.0
H1120 H 0.28486 0.15446 0.78959 0.0
H1121 H 0.27608 0.23464 0.8399 0.0
H1122 H 0.2509 0.21483 0.8836 0.0
H1123 H 0.32767 0.228 0.80733 0.0
H1124 H 0.22806 0.21419 0.78622 0.0
H1125 H 0.184 0.18724 0.78122 0.0
H1126 H 0.2215 0.13294 0.70659 0.0
H1127 H 0.26598 0.15935 0.71154 0.0
C1128 C 0.32095 0.29213 0.67662 0.0
C1129 C 0.32489 0.27838 0.64581 0.0
C1130 C 0.3174 0.27749 0.70352 0.0
C1131 C 0.31785 0.24885 0.70017 0.0
C1132 C 0.32243 0.23503 0.66962 0.0
C1133 C 0.3261 0.24968 0.64266 0.0
C1134 C 0.3111 0.23346 0.72812 0.0
C1135 C 0.28722 0.2165 0.72588 0.0
C1136 C 0.32612 0.23751 0.75766 0.0
C1137 C 0.35228 0.2543 0.76071 0.0
C1138 C 0.37485 0.24889 0.73908 0.0
C1139 C 0.39918 0.26512 0.74151 0.0
C1140 C 0.40129 0.28676 0.76558 0.0
C1141 C 0.37909 0.29217 0.78734 0.0
C1142 C 0.3547 0.27598 0.78503 0.0
C1143 C 0.26322 0.15639 0.83492 0.0
C1144 C 0.25251 0.17325 0.86122 0.0
C1145 C 0.27796 0.16768 0.81034 0.0
C1146 C 0.28195 0.19603 0.8114 0.0
C1147 C 0.2731 0.21271 0.83864 0.0
C1148 C 0.25845 0.2014 0.86337 0.0
C1149 C 0.292 0.2085 0.78245 0.0
C1150 C 0.31625 0.22506 0.78461 0.0
C1151 C 0.27724 0.20429 0.75275 0.0
C1152 C 0.25043 0.18854 0.74951 0.0
C1153 C 0.22698 0.19638 0.76892 0.0
C1154 C 0.20192 0.18122 0.76608 0.0
C1155 C 0.19998 0.15835 0.74366 0.0
C1156 C 0.22306 0.15063 0.72399 0.0
C1157 C 0.24819 0.16568 0.7268 0.0
H1158 H 0.18056 0.14664 0.74148 0.0
H1159 H 0.42016 0.29926 0.7674 0.0
H1160 H 0.68856 0.68538 0.4005 0.0
H1161 H 0.69412 0.70995 0.35259 0.0
H1162 H 0.66196 0.78332 0.40465 0.0
H1163 H 0.65696 0.759 0.45316 0.0
H1164 H 0.66156 0.73617 0.31413 0.0
H1165 H 0.69938 0.83789 0.38018 0.0
H1166 H 0.72232 0.85571 0.4312 0.0
H1167 H 0.76077 0.77751 0.43983 0.0
H1168 H 0.73838 0.75936 0.38866 0.0
H1169 H 0.69913 0.82366 0.19085 0.0
H1170 H 0.67639 0.80754 0.23868 0.0
H1171 H 0.75858 0.79342 0.27959 0.0
H1172 H 0.78117 0.81067 0.23319 0.0
H1173 H 0.72611 0.81609 0.32408 0.0
H1174 H 0.71741 0.74125 0.2402 0.0
H1175 H 0.70172 0.71958 0.18733 0.0
H1176 H 0.61516 0.7371 0.21258 0.0
H1177 H 0.63041 0.75916 0.26549 0.0
C1178 C 0.68246 0.7067 0.40179 0.0
C1179 C 0.67275 0.72034 0.43084 0.0
C1180 C 0.68547 0.72067 0.37426 0.0
C1181 C 0.67876 0.74854 0.37513 0.0
C1182 C 0.66766 0.76191 0.40359 0.0
C1183 C 0.66482 0.74797 0.43128 0.0
C1184 C 0.68555 0.76378 0.34695 0.0
C1185 C 0.67541 0.75385 0.31633 0.0
C1186 C 0.70378 0.78671 0.34975 0.0
C1187 C 0.71688 0.7972 0.38087 0.0
C1188 C 0.71269 0.82451 0.39302 0.0
C1189 C 0.72562 0.83467 0.42192 0.0
C1190 C 0.74293 0.81773 0.43876 0.0
C1191 C 0.74728 0.79057 0.42681 0.0
C1192 C 0.73444 0.78033 0.39788 0.0
C1193 C 0.71227 0.81733 0.21023 0.0
C1194 C 0.74196 0.81805 0.20799 0.0
C1195 C 0.69927 0.80797 0.2374 0.0
C1196 C 0.7158 0.79905 0.26259 0.0
C1197 C 0.74537 0.80019 0.2605 0.0
C1198 C 0.75828 0.8097 0.23367 0.0
C1199 C 0.70287 0.78798 0.29113 0.0
C1200 C 0.71167 0.79884 0.32191 0.0
C1201 C 0.68421 0.76537 0.28833 0.0
C1202 C 0.67506 0.75215 0.25658 0.0
C1203 C 0.69505 0.74067 0.23435 0.0
C1204 C 0.68624 0.72828 0.20442 0.0
C1205 C 0.65747 0.72705 0.19656 0.0
C1206 C 0.63744 0.73813 0.21867 0.0
C1207 C 0.64615 0.75057 0.24863 0.0
H1208 H 0.65069 0.71745 0.17337 0.0
H1209 H 0.75313 0.82572 0.46094 0.0
H1210 H 0.832 0.26093 0.96069 0.0
H1211 H 0.82235 0.28771 0.91501 0.0
H1212 H 0.8074 0.21344 0.85387 0.0
H1213 H 0.81738 0.18654 0.89907 0.0
H1214 H 0.83721 0.24983 0.82257 0.0
H1215 H 0.75282 0.24983 0.88793 0.0
H1216 H 0.72554 0.25788 0.93834 0.0
H1217 H 0.74647 0.34321 0.94372 0.0
H1218 H 0.77424 0.33557 0.89354 0.0
H1219 H 0.74478 0.28761 0.70005 0.0
H1220 H 0.76854 0.26853 0.74528 0.0
H1221 H 0.77958 0.34966 0.79249 0.0
H1222 H 0.75533 0.36885 0.74752 0.0
H1223 H 0.75673 0.31487 0.83238 0.0
H1224 H 0.83609 0.31505 0.76197 0.0
H1225 H 0.86233 0.30609 0.71097 0.0
H1226 H 0.85001 0.21981 0.71417 0.0
H1227 H 0.82332 0.22825 0.76496 0.0
C1228 C 0.82686 0.25029 0.93747 0.0
C1229 C 0.82512 0.2216 0.93364 0.0
C1230 C 0.82132 0.26562 0.91142 0.0
C1231 C 0.81384 0.25255 0.88118 0.0
C1232 C 0.81312 0.22393 0.87701 0.0
C1233 C 0.81866 0.20859 0.90297 0.0
C1234 C 0.80532 0.26851 0.85418 0.0
C1235 C 0.81955 0.26398 0.82461 0.0
C1236 C 0.7827 0.28743 0.85716 0.0
C1237 C 0.76588 0.29207 0.88722 0.0
C1238 C 0.75179 0.27027 0.90001 0.0
C1239 C 0.73621 0.27476 0.92851 0.0
C1240 C 0.73434 0.30103 0.94428 0.0
C1241 C 0.74798 0.32287 0.93152 0.0
C1242 C 0.76364 0.31847 0.90304 0.0
C1243 C 0.75244 0.30137 0.71998 0.0
C1244 C 0.74818 0.32969 0.72032 0.0
C1245 C 0.76622 0.29049 0.74566 0.0
C1246 C 0.77602 0.30772 0.7721 0.0
C1247 C 0.77228 0.33605 0.77223 0.0
C1248 C 0.75861 0.34697 0.74646 0.0
C1249 C 0.78832 0.29588 0.80053 0.0
C1250 C 0.77474 0.30113 0.8304 0.0
C1251 C 0.81141 0.27751 0.79773 0.0
C1252 C 0.82751 0.27232 0.76719 0.0
C1253 C 0.83877 0.29417 0.75168 0.0
C1254 C 0.85377 0.28918 0.72282 0.0
C1255 C 0.85778 0.2624 0.70931 0.0
C1256 C 0.84686 0.24055 0.72466 0.0
C1257 C 0.83183 0.24542 0.75351 0.0
H1258 H 0.8694 0.25859 0.68697 0.0
H1259 H 0.72227 0.30447 0.96635 0.0
H1260 H 0.29224 0.26133 0.48651 0.0
H1261 H 0.2518 0.23878 0.4592 0.0
H1262 H 0.19576 0.27792 0.53086 0.0
H1263 H 0.23629 0.30037 0.5588 0.0
H1264 H 0.18381 0.22426 0.51885 0.0
H1265 H 0.19767 0.29965 0.45613 0.0
H1266 H 0.22517 0.33105 0.42526 0.0
H1267 H 0.24758 0.26446 0.3561 0.0
H1268 H 0.22049 0.23257 0.38676 0.0
H1269 H 0.06317 0.17624 0.42473 0.0
H1270 H 0.09736 0.20617 0.45504 0.0
H1271 H 0.16428 0.17349 0.39268 0.0
H1272 H 0.13029 0.14419 0.36192 0.0
H1273 H 0.16652 0.2288 0.40168 0.0
H1274 H 0.15643 0.1532 0.46782 0.0
H1275 H 0.12993 0.12177 0.49966 0.0
H1276 H 0.10053 0.18968 0.56294 0.0
H1277 H 0.12657 0.22155 0.53118 0.0
C1278 C 0.27134 0.26526 0.4965 0.0
C1279 C 0.26752 0.28265 0.52489 0.0
C1280 C 0.24821 0.25244 0.48073 0.0
C1281 C 0.22075 0.25695 0.49279 0.0
C1282 C 0.2168 0.27425 0.52113 0.0
C1283 C 0.23997 0.28708 0.537 0.0
C1284 C 0.19641 0.24287 0.47613 0.0
C1285 C 0.17963 0.22567 0.49338 0.0
C1286 C 0.19128 0.24447 0.44281 0.0
C1287 C 0.20716 0.26367 0.42389 0.0
C1288 C 0.20857 0.29166 0.43442 0.0
C1289 C 0.22408 0.30956 0.41695 0.0
C1290 C 0.23815 0.29974 0.38877 0.0
C1291 C 0.23666 0.27203 0.37793 0.0
C1292 C 0.22118 0.25404 0.39532 0.0
C1293 C 0.08519 0.17546 0.41757 0.0
C1294 C 0.09409 0.15766 0.39118 0.0
C1295 C 0.10468 0.19247 0.43493 0.0
C1296 C 0.13337 0.19192 0.42618 0.0
C1297 C 0.14225 0.17421 0.39984 0.0
C1298 C 0.12284 0.15722 0.38254 0.0
C1299 C 0.15434 0.20976 0.44426 0.0
C1300 C 0.17044 0.2277 0.42725 0.0
C1301 C 0.1588 0.20892 0.47782 0.0
C1302 C 0.14316 0.18977 0.4969 0.0
C1303 C 0.14411 0.16144 0.48836 0.0
C1304 C 0.12922 0.14355 0.50642 0.0
C1305 C 0.11348 0.15373 0.53324 0.0
C1306 C 0.11267 0.18183 0.54211 0.0
C1307 C 0.1275 0.19981 0.5241 0.0
H1308 H 0.10197 0.13984 0.54721 0.0
H1309 H 0.25017 0.31363 0.37531 0.0
H1310 H 0.2457 0.81497 0.01564 0.0
H1311 H 0.28454 0.79065 0.98677 0.0
H1312 H 0.25575 0.71481 0.02004 0.0
H1313 H 0.2166 0.73885 0.04867 0.0
H1314 H 0.31689 0.72557 0.02549 0.0
H1315 H 0.2391 0.72445 0.94874 0.0
H1316 H 0.20192 0.74687 0.91877 0.0
H1317 H 0.26484 0.79511 0.87584 0.0
H1318 H 0.30237 0.77327 0.90598 0.0
H1319 H 0.3911 0.62865 0.92186 0.0
H1320 H 0.35682 0.6556 0.9547 0.0
H1321 H 0.37064 0.72384 0.89812 0.0
H1322 H 0.40304 0.69632 0.86349 0.0
H1323 H 0.31793 0.71902 0.90571 0.0
H1324 H 0.39604 0.72127 0.97864 0.0
H1325 H 0.43477 0.70295 0.01021 0.0
H1326 H 0.37484 0.65764 0.0616 0.0
H1327 H 0.33575 0.6754 0.03002 0.0
C1328 C 0.24771 0.79313 0.01693 0.0
C1329 C 0.22806 0.77878 0.03431 0.0
C1330 C 0.26986 0.77931 0.00044 0.0
C1331 C 0.27288 0.75101 0.00134 0.0
C1332 C 0.25372 0.73669 0.0192 0.0
C1333 C 0.23131 0.75042 0.03533 0.0
C1334 C 0.29544 0.73614 0.98263 0.0
C1335 C 0.31709 0.72381 0.99929 0.0
C1336 C 0.29599 0.73478 0.94857 0.0
C1337 C 0.2735 0.74741 0.92984 0.0
C1338 C 0.24499 0.73997 0.93307 0.0
C1339 C 0.22386 0.75255 0.91604 0.0
C1340 C 0.23101 0.77245 0.89548 0.0
C1341 C 0.25933 0.77971 0.89181 0.0
C1342 C 0.28054 0.76722 0.90883 0.0
C1343 C 0.38676 0.64933 0.91624 0.0
C1344 C 0.39993 0.6602 0.8899 0.0
C1345 C 0.36742 0.66491 0.9354 0.0
C1346 C 0.36136 0.69194 0.92922 0.0
C1347 C 0.37498 0.70306 0.90346 0.0
C1348 C 0.39388 0.68735 0.8839 0.0
C1349 C 0.33974 0.70814 0.94845 0.0
C1350 C 0.31808 0.72077 0.93191 0.0
C1351 C 0.33954 0.71022 0.98268 0.0
C1352 C 0.36299 0.69948 0.00174 0.0
C1353 C 0.39113 0.70723 0.9965 0.0
C1354 C 0.41315 0.69698 0.01442 0.0
C1355 C 0.40727 0.67909 0.03783 0.0
C1356 C 0.37936 0.67147 0.04342 0.0
C1357 C 0.35726 0.68165 0.02554 0.0
H1358 H 0.42435 0.67118 0.05169 0.0
H1359 H 0.21461 0.7822 0.88235 0.0
loop_
_geom_bond_atom_site_label_1
_geom_bond_atom_site_label_2
_geom_bond_distance
_geom_bond_site_symmetry_2
_ccdc_geom_bond_type
Fe0 O2 1.918 . S
Fe0 O5 1.997 . S
Fe0 O6 2.002 . S
Fe0 O11 1.976 . S
Fe0 O14 1.996 . S
Fe1 O2 1.918 . S
Fe1 O9 1.997 . S
Fe1 O12 1.996 . S
Fe1 O16 1.976 . S
Fe1 O19 2.002 . S
O2 Fe0 1.918 . S
O2 Fe1 1.918 . S
O2 Fe3 1.918 . S
Fe3 O2 1.918 . S
Fe3 O4 2.002 . S
Fe3 O13 1.976 . S
Fe3 O17 1.996 . S
Fe3 O20 1.997 . S
O4 Fe3 2.002 . S
O4 C21 1.295 . S
O5 Fe0 1.997 . S
O5 C21 1.235 . S
O6 Fe0 2.002 . S
O6 C7 1.295 . S
C7 O6 1.295 . S
C7 O9 1.235 . S
C8 O13 1.287 . S
C8 O14 1.255 . S
O9 Fe1 1.997 . S
O9 C7 1.235 . S
C10 O16 1.287 . S
C10 O17 1.255 . S
O11 Fe0 1.976 . S
O11 C18 1.287 . S
O12 Fe1 1.996 . S
O12 C18 1.255 . S
O13 Fe3 1.976 . S
O13 C8 1.287 . S
O14 Fe0 1.996 . S
O14 C8 1.255 . S
C15 O19 1.295 . S
C15 O20 1.235 . S
O16 Fe1 1.976 . S
O16 C10 1.287 . S
O17 Fe3 1.996 . S
O17 C10 1.255 . S
C18 O11 1.287 . S
C18 O12 1.255 . S
O19 Fe1 2.002 . S
O19 C15 1.295 . S
O20 Fe3 1.997 . S
O20 C15 1.235 . S
C21 O4 1.295 . S
C21 O5 1.235 . S
Fe22 O24 1.918 . S
Fe22 O27 1.997 . S
Fe22 O28 2.002 . S
Fe22 O33 1.976 . S
Fe22 O36 1.996 . S
Fe23 O24 1.918 . S
Fe23 O31 1.997 . S
Fe23 O34 1.996 . S
Fe23 O38 1.976 . S
Fe23 O41 2.002 . S
O24 Fe22 1.918 . S
O24 Fe23 1.918 . S
O24 Fe25 1.918 . S
Fe25 O24 1.918 . S
Fe25 O26 2.002 . S
Fe25 O35 1.976 . S
Fe25 O39 1.996 . S
Fe25 O42 1.997 . S
O26 Fe25 2.002 . S
O26 C43 1.295 . S
O27 Fe22 1.997 . S
O27 C43 1.235 . S
O28 Fe22 2.002 . S
O28 C29 1.295 . S
C29 O28 1.295 . S
C29 O31 1.235 . S
C30 O35 1.287 . S
C30 O36 1.255 . S
O31 Fe23 1.997 . S
O31 C29 1.235 . S
C32 O38 1.287 . S
C32 O39 1.255 . S
O33 Fe22 1.976 . S
O33 C40 1.287 . S
O34 Fe23 1.996 . S
O34 C40 1.255 . S
O35 Fe25 1.976 . S
O35 C30 1.287 . S
O36 Fe22 1.996 . S
O36 C30 1.255 . S
C37 O41 1.295 . S
C37 O42 1.235 . S
O38 Fe23 1.976 . S
O38 C32 1.287 . S
O39 Fe25 1.996 . S
O39 C32 1.255 . S
C40 O33 1.287 . S
C40 O34 1.255 . S
O41 Fe23 2.002 . S
O41 C37 1.295 . S
O42 Fe25 1.997 . S
O42 C37 1.235 . S
C43 O26 1.295 . S
C43 O27 1.235 . S
Fe44 O46 1.918 . S
Fe44 O49 1.997 1_554 S
Fe44 O50 2.002 . S
Fe44 O55 1.976 . S
Fe44 O58 1.996 . S
Fe45 O46 1.918 . S
Fe45 O53 1.997 . S
Fe45 O56 1.996 . S
Fe45 O60 1.976 . S
Fe45 O63 2.002 1_554 S
O46 Fe44 1.918 . S
O46 Fe45 1.918 . S
O46 Fe47 1.918 1_554 S
Fe47 O46 1.918 1_556 S
Fe47 O48 2.002 . S
Fe47 O57 1.976 1_556 S
Fe47 O61 1.996 1_556 S
Fe47 O64 1.997 . S
O48 Fe47 2.002 . S
O48 C65 1.295 . S
O49 Fe44 1.997 1_556 S
O49 C65 1.235 . S
O50 Fe44 2.002 . S
O50 C51 1.295 1_554 S
C51 O50 1.295 1_556 S
C51 O53 1.235 1_556 S
C52 O57 1.287 . S
C52 O58 1.255 . S
O53 Fe45 1.997 . S
O53 C51 1.235 1_554 S
C54 O60 1.287 . S
C54 O61 1.255 . S
O55 Fe44 1.976 . S
O55 C62 1.287 . S
O56 Fe45 1.996 . S
O56 C62 1.255 . S
O57 Fe47 1.976 1_554 S
O57 C52 1.287 . S
O58 Fe44 1.996 . S
O58 C52 1.255 . S
C59 O63 1.295 . S
C59 O64 1.235 . S
O60 Fe45 1.976 . S
O60 C54 1.287 . S
O61 Fe47 1.996 1_554 S
O61 C54 1.255 . S
C62 O55 1.287 . S
C62 O56 1.255 . S
O63 Fe45 2.002 1_556 S
O63 C59 1.295 . S
O64 Fe47 1.997 . S
O64 C59 1.235 . S
C65 O48 1.295 . S
C65 O49 1.235 . S
Fe66 O68 1.918 . S
Fe66 O71 1.997 . S
Fe66 O72 2.002 . S
Fe66 O77 1.976 . S
Fe66 O80 1.996 . S
Fe67 O68 1.918 . S
Fe67 O75 1.997 . S
Fe67 O78 1.996 . S
Fe67 O82 1.976 . S
Fe67 O85 2.002 . S
O68 Fe66 1.918 . S
O68 Fe67 1.918 . S
O68 Fe69 1.918 . S
Fe69 O68 1.918 . S
Fe69 O70 2.002 . S
Fe69 O79 1.976 . S
Fe69 O83 1.996 . S
Fe69 O86 1.997 . S
O70 Fe69 2.002 . S
O70 C87 1.295 . S
O71 Fe66 1.997 . S
O71 C87 1.235 . S
O72 Fe66 2.002 . S
O72 C73 1.295 . S
C73 O72 1.295 . S
C73 O75 1.235 . S
C74 O79 1.287 . S
C74 O80 1.255 . S
O75 Fe67 1.997 . S
O75 C73 1.235 . S
C76 O82 1.287 . S
C76 O83 1.255 . S
O77 Fe66 1.976 . S
O77 C84 1.287 . S
O78 Fe67 1.996 . S
O78 C84 1.255 . S
O79 Fe69 1.976 . S
O79 C74 1.287 . S
O80 Fe66 1.996 . S
O80 C74 1.255 . S
C81 O85 1.295 . S
C81 O86 1.235 . S
O82 Fe67 1.976 . S
O82 C76 1.287 . S
O83 Fe69 1.996 . S
O83 C76 1.255 . S
C84 O77 1.287 . S
C84 O78 1.255 . S
O85 Fe67 2.002 . S
O85 C81 1.295 . S
O86 Fe69 1.997 . S
O86 C81 1.235 . S
C87 O70 1.295 . S
C87 O71 1.235 . S
H88 C91 0.931 . S
H89 C94 0.928 . S
H90 C96 0.930 . S
C91 H88 0.931 . S
C91 C92 1.413 . S
C91 C93 1.360 . S
C92 C91 1.413 . S
C92 C96 1.429 . S
C93 C91 1.360 . S
C93 C94 1.372 . S
C94 H89 0.928 . S
C94 C93 1.372 . S
C94 C95 1.404 . S
C95 C94 1.404 . S
C95 C96 1.391 . S
C96 H90 0.930 . S
C96 C92 1.429 . S
C96 C95 1.391 . S
H97 C100 0.931 . S
H98 C103 0.928 . S
H99 C105 0.930 . S
C100 H97 0.931 . S
C100 C101 1.413 . S
C100 C102 1.360 . S
C101 C100 1.413 . S
C101 C105 1.429 . S
C102 C100 1.360 . S
C102 C103 1.372 . S
C103 H98 0.928 . S
C103 C102 1.372 . S
C103 C104 1.404 . S
C104 C103 1.404 . S
C104 C105 1.391 . S
C105 H99 0.930 . S
C105 C101 1.429 . S
C105 C104 1.391 . S
H106 C109 0.931 . S
H107 C112 0.928 . S
H108 C114 0.930 . S
C109 H106 0.931 . S
C109 C110 1.413 . S
C109 C111 1.360 . S
C110 C109 1.413 . S
C110 C114 1.429 . S
C111 C109 1.360 . S
C111 C112 1.372 . S
C112 H107 0.928 . S
C112 C111 1.372 . S
C112 C113 1.404 . S
C113 C112 1.404 . S
C113 C114 1.391 . S
C114 H108 0.930 . S
C114 C110 1.429 . S
C114 C113 1.391 . S
H115 C118 0.931 . S
H116 C121 0.928 . S
H117 C123 0.930 . S
C118 H115 0.931 . S
C118 C119 1.413 . S
C118 C120 1.360 . S
C119 C118 1.413 . S
C119 C123 1.429 . S
C120 C118 1.360 . S
C120 C121 1.372 . S
C121 H116 0.928 . S
C121 C120 1.372 . S
C121 C122 1.404 . S
C122 C121 1.404 . S
C122 C123 1.391 . S
C123 H117 0.930 . S
C123 C119 1.429 . S
C123 C122 1.391 . S
H124 C127 0.931 . S
H125 C130 0.928 . S
H126 C132 0.930 . S
C127 H124 0.931 . S
C127 C128 1.413 . S
C127 C129 1.360 . S
C128 C127 1.413 . S
C128 C132 1.429 . S
C129 C127 1.360 . S
C129 C130 1.372 . S
C130 H125 0.928 . S
C130 C129 1.372 . S
C130 C131 1.404 . S
C131 C130 1.404 . S
C131 C132 1.391 . S
C132 H126 0.930 . S
C132 C128 1.429 . S
C132 C131 1.391 . S
H133 C136 0.931 . S
H134 C139 0.928 . S
H135 C141 0.930 . S
C136 H133 0.931 . S
C136 C137 1.413 . S
C136 C138 1.360 . S
C137 C136 1.413 . S
C137 C141 1.429 . S
C138 C136 1.360 . S
C138 C139 1.372 . S
C139 H134 0.928 . S
C139 C138 1.372 . S
C139 C140 1.404 . S
C140 C139 1.404 . S
C140 C141 1.391 . S
C141 H135 0.930 . S
C141 C137 1.429 . S
C141 C140 1.391 . S
H142 C145 0.931 . S
H143 C148 0.928 . S
H144 C150 0.930 . S
C145 H142 0.931 . S
C145 C146 1.413 . S
C145 C147 1.360 . S
C146 C145 1.413 . S
C146 C150 1.429 . S
C147 C145 1.360 . S
C147 C148 1.372 . S
C148 H143 0.928 . S
C148 C147 1.372 . S
C148 C149 1.404 . S
C149 C148 1.404 . S
C149 C150 1.391 . S
C150 H144 0.930 . S
C150 C146 1.429 . S
C150 C149 1.391 . S
H151 C154 0.931 . S
H152 C157 0.928 . S
H153 C159 0.930 . S
C154 H151 0.931 . S
C154 C155 1.413 . S
C154 C156 1.360 . S
C155 C154 1.413 . S
C155 C159 1.429 . S
C156 C154 1.360 . S
C156 C157 1.372 . S
C157 H152 0.928 . S
C157 C156 1.372 . S
C157 C158 1.404 . S
C158 C157 1.404 . S
C158 C159 1.391 . S
C159 H153 0.930 . S
C159 C155 1.429 . S
C159 C158 1.391 . S
H160 C178 0.951 . S
H161 C180 0.951 . S
H162 C182 0.950 . S
H163 C183 0.950 . S
H164 C185 0.950 1_545 S
H165 C188 0.950 . S
H166 C189 0.950 . S
H167 C191 0.950 . S
H168 C192 0.950 . S
H169 C193 0.951 . S
H170 C195 0.951 . S
H171 C197 0.950 . S
H172 C198 0.950 . S
H173 C200 0.950 . S
H174 C203 0.950 . S
H175 C204 0.950 . S
H176 C206 0.950 . S
H177 C207 0.950 . S
C178 H160 0.951 . S
C178 C179 1.366 . S
C178 C180 1.388 . S
C179 C178 1.366 . S
C179 C183 1.385 . S
C180 H161 0.951 . S
C180 C178 1.388 . S
C180 C181 1.366 . S
C181 C180 1.366 . S
C181 C182 1.414 . S
C181 C184 1.499 . S
C182 H162 0.950 . S
C182 C181 1.414 . S
C182 C183 1.374 . S
C183 H163 0.950 . S
C183 C179 1.385 . S
C183 C182 1.374 . S
C184 C181 1.499 . S
C184 C185 1.373 . S
C184 C186 1.389 . S
C185 H164 0.950 1_565 S
C185 C184 1.373 . S
C185 C201 1.377 1_565 S
C186 C184 1.389 . S
C186 C187 1.524 . S
C186 C200 1.377 . S
C187 C186 1.524 . S
C187 C188 1.397 . S
C187 C192 1.363 . S
C188 H165 0.950 . S
C188 C187 1.397 . S
C188 C189 1.334 . S
C189 H166 0.950 . S
C189 C188 1.334 . S
C189 C190 1.287 . S
C190 C189 1.287 . S
C190 C191 1.524 . S
C190 H209 0.913 . S
C191 H167 0.950 . S
C191 C190 1.524 . S
C191 C192 1.415 . S
C192 H168 0.950 . S
C192 C187 1.363 . S
C192 C191 1.415 . S
C193 H169 0.951 . S
C193 C194 1.366 . S
C193 C195 1.388 . S
C194 C193 1.366 . S
C194 C198 1.385 . S
C195 H170 0.951 . S
C195 C193 1.388 . S
C195 C196 1.366 . S
C196 C195 1.366 . S
C196 C197 1.414 . S
C196 C199 1.499 . S
C197 H171 0.950 . S
C197 C196 1.414 . S
C197 C198 1.374 . S
C198 H172 0.950 . S
C198 C194 1.385 . S
C198 C197 1.374 . S
C199 C196 1.499 . S
C199 C200 1.373 1_545 S
C199 C201 1.389 . S
C200 H173 0.950 . S
C200 C186 1.377 . S
C200 C199 1.373 1_565 S
C201 C185 1.377 1_545 S
C201 C199 1.389 . S
C201 C202 1.524 . S
C202 C201 1.524 . S
C202 C203 1.397 . S
C202 C207 1.363 . S
C203 H174 0.950 . S
C203 C202 1.397 . S
C203 C204 1.334 . S
C204 H175 0.950 . S
C204 C203 1.334 . S
C204 C205 1.287 . S
C205 C204 1.287 . S
C205 C206 1.524 . S
C205 H208 0.999 . S
C206 H176 0.950 . S
C206 C205 1.524 . S
C206 C207 1.415 . S
C207 H177 0.950 . S
C207 C202 1.363 . S
C207 C206 1.415 . S
H208 C205 0.999 . S
H209 C190 0.913 . S
H210 C228 0.951 . S
H211 C230 0.951 . S
H212 C232 0.950 . S
H213 C233 0.950 . S
H214 C235 0.950 . S
H215 C238 0.950 . S
H216 C239 0.950 . S
H217 C241 0.950 . S
H218 C242 0.950 . S
H219 C243 0.951 . S
H220 C245 0.951 . S
H221 C247 0.950 . S
H222 C248 0.950 . S
H223 C250 0.950 . S
H224 C253 0.950 . S
H225 C254 0.950 . S
H226 C256 0.950 . S
H227 C257 0.950 . S
C228 H210 0.951 . S
C228 C229 1.366 . S
C228 C230 1.388 . S
C229 C228 1.366 . S
C229 C233 1.385 . S
C230 H211 0.951 . S
C230 C228 1.388 . S
C230 C231 1.366 . S
C231 C230 1.366 . S
C231 C232 1.414 . S
C231 C234 1.499 . S
C232 H212 0.950 . S
C232 C231 1.414 . S
C232 C233 1.374 . S
C233 H213 0.950 . S
C233 C229 1.385 . S
C233 C232 1.374 . S
C234 C231 1.499 . S
C234 C235 1.373 . S
C234 C236 1.389 . S
C235 H214 0.950 . S
C235 C234 1.373 . S
C235 C251 1.377 . S
C236 C234 1.389 . S
C236 C237 1.524 . S
C236 C250 1.377 . S
C237 C236 1.524 . S
C237 C238 1.397 . S
C237 C242 1.363 . S
C238 H215 0.950 . S
C238 C237 1.397 . S
C238 C239 1.334 . S
C239 H216 0.950 . S
C239 C238 1.334 . S
C239 C240 1.287 . S
C240 C239 1.287 . S
C240 C241 1.524 . S
C240 H259 0.913 . S
C241 H217 0.950 . S
C241 C240 1.524 . S
C241 C242 1.415 . S
C242 H218 0.950 . S
C242 C237 1.363 . S
C242 C241 1.415 . S
C243 H219 0.951 . S
C243 C244 1.366 . S
C243 C245 1.388 . S
C244 C243 1.366 . S
C244 C248 1.385 . S
C245 H220 0.951 . S
C245 C243 1.388 . S
C245 C246 1.366 . S
C246 C245 1.366 . S
C246 C247 1.414 . S
C246 C249 1.499 . S
C247 H221 0.950 . S
C247 C246 1.414 . S
C247 C248 1.374 . S
C248 H222 0.950 . S
C248 C244 1.385 . S
C248 C247 1.374 . S
C249 C246 1.499 . S
C249 C250 1.373 . S
C249 C251 1.389 . S
C250 H223 0.950 . S
C250 C236 1.377 . S
C250 C249 1.373 . S
C251 C235 1.377 . S
C251 C249 1.389 . S
C251 C252 1.524 . S
C252 C251 1.524 . S
C252 C253 1.397 . S
C252 C257 1.363 . S
C253 H224 0.950 . S
C253 C252 1.397 . S
C253 C254 1.334 . S
C254 H225 0.950 . S
C254 C253 1.334 . S
C254 C255 1.287 . S
C255 C254 1.287 . S
C255 C256 1.524 . S
C255 H258 0.999 . S
C256 H226 0.950 . S
C256 C255 1.524 . S
C256 C257 1.415 . S
C257 H227 0.950 . S
C257 C252 1.363 . S
C257 C256 1.415 . S
H258 C255 0.999 . S
H259 C240 0.913 . S
H260 C278 0.951 . S
H261 C280 0.951 . S
H262 C282 0.950 . S
H263 C283 0.950 . S
H264 C285 0.950 . S
H265 C288 0.949 . S
H266 C289 0.964 . S
H267 C291 0.950 . S
H268 C292 0.950 . S
H269 C293 0.951 . S
H270 C295 0.951 . S
H271 C297 0.950 . S
H272 C298 0.950 . S
H273 C300 0.950 . S
H274 C303 0.950 . S
H275 C304 0.950 . S
H276 C306 0.941 1_545 S
H277 C307 0.950 1_545 S
C278 H260 0.951 . S
C278 C279 1.366 . S
C278 C280 1.388 . S
C279 C278 1.366 . S
C279 C283 1.385 . S
C280 H261 0.951 . S
C280 C278 1.388 . S
C280 C281 1.366 . S
C281 C280 1.366 . S
C281 C282 1.414 . S
C281 C284 1.499 . S
C282 H262 0.950 . S
C282 C281 1.414 . S
C282 C283 1.374 . S
C283 H263 0.950 . S
C283 C279 1.385 . S
C283 C282 1.374 . S
C284 C281 1.499 . S
C284 C285 1.373 . S
C284 C286 1.389 1_545 S
C285 H264 0.950 . S
C285 C284 1.373 . S
C285 C301 1.377 1_545 S
C286 C284 1.389 1_565 S
C286 C287 1.524 . S
C286 C300 1.377 . S
C287 C286 1.524 . S
C287 C288 1.398 1_565 S
C287 C292 1.363 . S
C288 H265 0.949 . S
C288 C287 1.398 1_545 S
C288 C289 1.332 1_554 S
C289 H266 0.964 . S
C289 C288 1.332 1_556 S
C289 C290 1.275 1_545 S
C290 C289 1.275 1_565 S
C290 C291 1.524 . S
C290 H309 0.913 . S
C291 H267 0.950 . S
C291 C290 1.524 . S
C291 C292 1.415 1_556 S
C292 H268 0.950 . S
C292 C287 1.363 . S
C292 C291 1.415 1_554 S
C293 H269 0.951 . S
C293 C294 1.366 . S
C293 C295 1.388 . S
C294 C293 1.366 . S
C294 C298 1.385 . S
C295 H270 0.951 . S
C295 C293 1.388 . S
C295 C296 1.366 . S
C296 C295 1.366 . S
C296 C297 1.414 . S
C296 C299 1.499 . S
C297 H271 0.950 . S
C297 C296 1.414 . S
C297 C298 1.374 . S
C298 H272 0.950 . S
C298 C294 1.385 . S
C298 C297 1.374 . S
C299 C296 1.499 . S
C299 C300 1.373 . S
C299 C301 1.389 . S
C300 H273 0.950 . S
C300 C286 1.377 . S
C300 C299 1.373 . S
C301 C285 1.377 1_565 S
C301 C299 1.389 . S
C301 C302 1.524 . S
C302 C301 1.524 . S
C302 C303 1.397 . S
C302 C307 1.363 . S
C303 H274 0.950 . S
C303 C302 1.397 . S
C303 C304 1.334 . S
C304 H275 0.950 . S
C304 C303 1.334 . S
C304 C305 1.287 . S
C305 C304 1.287 . S
C305 C306 1.535 . S
C305 H308 0.999 . S
C306 H276 0.941 1_565 S
C306 C305 1.535 . S
C306 C307 1.414 . S
C307 H277 0.950 1_565 S
C307 C302 1.363 . S
C307 C306 1.414 . S
H308 C305 0.999 . S
H309 C290 0.913 . S
H310 C328 0.951 . S
H311 C330 0.951 . S
H312 C332 0.950 . S
H313 C333 0.950 . S
H314 C335 0.950 . S
H315 C338 0.950 . S
H316 C339 0.950 . S
H317 C341 0.950 . S
H318 C342 0.950 . S
H319 C343 0.951 . S
H320 C345 0.951 . S
H321 C347 0.950 . S
H322 C348 0.950 . S
H323 C350 0.950 . S
H324 C353 0.950 . S
H325 C354 0.950 . S
H326 C356 0.950 . S
H327 C357 0.950 . S
C328 H310 0.951 . S
C328 C329 1.366 . S
C328 C330 1.388 . S
C329 C328 1.366 . S
C329 C333 1.385 . S
C330 H311 0.951 . S
C330 C328 1.388 . S
C330 C331 1.366 . S
C331 C330 1.366 . S
C331 C332 1.414 . S
C331 C334 1.499 . S
C332 H312 0.950 . S
C332 C331 1.414 . S
C332 C333 1.374 . S
C333 H313 0.950 . S
C333 C329 1.385 . S
C333 C332 1.374 . S
C334 C331 1.499 . S
C334 C335 1.373 . S
C334 C336 1.389 . S
C335 H314 0.950 . S
C335 C334 1.373 . S
C335 C351 1.377 . S
C336 C334 1.389 . S
C336 C337 1.524 . S
C336 C350 1.377 . S
C337 C336 1.524 . S
C337 C338 1.397 . S
C337 C342 1.363 . S
C338 H315 0.950 . S
C338 C337 1.397 . S
C338 C339 1.334 . S
C339 H316 0.950 . S
C339 C338 1.334 . S
C339 C340 1.287 . S
C340 C339 1.287 . S
C340 C341 1.524 . S
C340 H359 0.913 . S
C341 H317 0.950 . S
C341 C340 1.524 . S
C341 C342 1.415 . S
C342 H318 0.950 . S
C342 C337 1.363 . S
C342 C341 1.415 . S
C343 H319 0.951 . S
C343 C344 1.366 . S
C343 C345 1.388 . S
C344 C343 1.366 . S
C344 C348 1.385 . S
C345 H320 0.951 . S
C345 C343 1.388 . S
C345 C346 1.366 . S
C346 C345 1.366 . S
C346 C347 1.414 . S
C346 C349 1.499 . S
C347 H321 0.950 . S
C347 C346 1.414 . S
C347 C348 1.374 . S
C348 H322 0.950 . S
C348 C344 1.385 . S
C348 C347 1.374 . S
C349 C346 1.499 . S
C349 C350 1.373 . S
C349 C351 1.389 . S
C350 H323 0.950 . S
C350 C336 1.377 . S
C350 C349 1.373 . S
C351 C335 1.377 . S
C351 C349 1.389 . S
C351 C352 1.524 . S
C352 C351 1.524 . S
C352 C353 1.397 . S
C352 C357 1.363 . S
C353 H324 0.950 . S
C353 C352 1.397 . S
C353 C354 1.334 . S
C354 H325 0.950 . S
C354 C353 1.334 . S
C354 C355 1.287 . S
C355 C354 1.287 . S
C355 C356 1.524 . S
C355 H358 0.999 . S
C356 H326 0.950 . S
C356 C355 1.524 . S
C356 C357 1.415 . S
C357 H327 0.950 . S
C357 C352 1.363 . S
C357 C356 1.415 . S
H358 C355 0.999 . S
H359 C340 0.913 . S
H360 C378 0.951 . S
H361 C380 0.951 . S
H362 C382 0.950 . S
H363 C383 0.950 . S
H364 C385 0.950 . S
H365 C388 0.950 . S
H366 C389 0.950 . S
H367 C391 0.950 . S
H368 C392 0.950 . S
H369 C393 0.951 . S
H370 C395 0.951 . S
H371 C397 0.950 . S
H372 C398 0.950 . S
H373 C400 0.950 . S
H374 C403 0.950 . S
H375 C404 0.950 . S
H376 C406 0.950 . S
H377 C407 0.950 . S
C378 H360 0.951 . S
C378 C379 1.366 . S
C378 C380 1.388 . S
C379 C378 1.366 . S
C379 C383 1.385 . S
C380 H361 0.951 . S
C380 C378 1.388 . S
C380 C381 1.366 . S
C381 C380 1.366 . S
C381 C382 1.414 . S
C381 C384 1.499 . S
C382 H362 0.950 . S
C382 C381 1.414 . S
C382 C383 1.374 . S
C383 H363 0.950 . S
C383 C379 1.385 . S
C383 C382 1.374 . S
C384 C381 1.499 . S
C384 C385 1.373 . S
C384 C386 1.389 . S
C385 H364 0.950 . S
C385 C384 1.373 . S
C385 C401 1.377 . S
C386 C384 1.389 . S
C386 C387 1.524 . S
C386 C400 1.377 . S
C387 C386 1.524 . S
C387 C388 1.397 . S
C387 C392 1.363 . S
C388 H365 0.950 . S
C388 C387 1.397 . S
C388 C389 1.334 . S
C389 H366 0.950 . S
C389 C388 1.334 . S
C389 C390 1.287 . S
C390 C389 1.287 . S
C390 C391 1.524 . S
C390 H409 0.913 . S
C391 H367 0.950 . S
C391 C390 1.524 . S
C391 C392 1.415 . S
C392 H368 0.950 . S
C392 C387 1.363 . S
C392 C391 1.415 . S
C393 H369 0.951 . S
C393 C394 1.366 . S
C393 C395 1.388 . S
C394 C393 1.366 . S
C394 C398 1.385 . S
C395 H370 0.951 . S
C395 C393 1.388 . S
C395 C396 1.366 . S
C396 C395 1.366 . S
C396 C397 1.414 . S
C396 C399 1.499 . S
C397 H371 0.950 . S
C397 C396 1.414 . S
C397 C398 1.374 . S
C398 H372 0.950 . S
C398 C394 1.385 . S
C398 C397 1.374 . S
C399 C396 1.499 . S
C399 C400 1.373 . S
C399 C401 1.389 . S
C400 H373 0.950 . S
C400 C386 1.377 . S
C400 C399 1.373 . S
C401 C385 1.377 . S
C401 C399 1.389 . S
C401 C402 1.524 . S
C402 C401 1.524 . S
C402 C403 1.397 . S
C402 C407 1.363 . S
C403 H374 0.950 . S
C403 C402 1.397 . S
C403 C404 1.334 . S
C404 H375 0.950 . S
C404 C403 1.334 . S
C404 C405 1.287 . S
C405 C404 1.287 . S
C405 C406 1.524 . S
C405 H408 0.999 . S
C406 H376 0.950 . S
C406 C405 1.524 . S
C406 C407 1.415 . S
C407 H377 0.950 . S
C407 C402 1.363 . S
C407 C406 1.415 . S
H408 C405 0.999 . S
H409 C390 0.913 . S
H410 C428 0.951 . S
H411 C430 0.951 . S
H412 C432 0.950 . S
H413 C433 0.950 . S
H414 C435 0.950 . S
H415 C438 0.950 . S
H416 C439 0.936 1_655 S
H417 C441 0.950 . S
H418 C442 0.950 . S
H419 C443 0.951 . S
H420 C445 0.951 . S
H421 C447 0.950 . S
H422 C448 0.950 . S
H423 C450 0.950 . S
H424 C453 0.950 . S
H425 C454 0.950 . S
H426 C456 0.950 . S
H427 C457 0.950 . S
C428 H410 0.951 . S
C428 C429 1.366 . S
C428 C430 1.388 . S
C429 C428 1.366 . S
C429 C433 1.385 1_556 S
C430 H411 0.951 . S
C430 C428 1.388 . S
C430 C431 1.366 . S
C431 C430 1.366 . S
C431 C432 1.414 1_556 S
C431 C434 1.499 1_655 S
C432 H412 0.950 . S
C432 C431 1.414 1_554 S
C432 C433 1.374 . S
C433 H413 0.950 . S
C433 C429 1.385 1_554 S
C433 C432 1.374 . S
C434 C431 1.499 1_455 S
C434 C435 1.373 . S
C434 C436 1.389 . S
C435 H414 0.950 . S
C435 C434 1.373 . S
C435 C451 1.377 . S
C436 C434 1.389 . S
C436 C437 1.524 . S
C436 C450 1.377 . S
C437 C436 1.524 . S
C437 C438 1.397 . S
C437 C442 1.363 . S
C438 H415 0.950 . S
C438 C437 1.397 . S
C438 C439 1.347 . S
C439 H416 0.936 1_455 S
C439 C438 1.347 . S
C439 C440 1.290 . S
C440 C439 1.290 . S
C440 C441 1.524 . S
C440 H459 0.913 1_455 S
C441 H417 0.950 . S
C441 C440 1.524 . S
C441 C442 1.415 . S
C442 H418 0.950 . S
C442 C437 1.363 . S
C442 C441 1.415 . S
C443 H419 0.951 . S
C443 C444 1.366 . S
C443 C445 1.388 . S
C444 C443 1.366 . S
C444 C448 1.385 . S
C445 H420 0.951 . S
C445 C443 1.388 . S
C445 C446 1.366 . S
C446 C445 1.366 . S
C446 C447 1.414 . S
C446 C449 1.499 . S
C447 H421 0.950 . S
C447 C446 1.414 . S
C447 C448 1.374 . S
C448 H422 0.950 . S
C448 C444 1.385 . S
C448 C447 1.374 . S
C449 C446 1.499 . S
C449 C450 1.373 . S
C449 C451 1.389 . S
C450 H423 0.950 . S
C450 C436 1.377 . S
C450 C449 1.373 . S
C451 C435 1.377 . S
C451 C449 1.389 . S
C451 C452 1.524 . S
C452 C451 1.524 . S
C452 C453 1.397 . S
C452 C457 1.363 1_556 S
C453 H424 0.950 . S
C453 C452 1.397 . S
C453 C454 1.334 . S
C454 H425 0.950 . S
C454 C453 1.334 . S
C454 C455 1.287 . S
C455 C454 1.287 . S
C455 C456 1.524 1_556 S
C455 H458 0.999 . S
C456 H426 0.950 . S
C456 C455 1.524 1_554 S
C456 C457 1.415 . S
C457 H427 0.950 . S
C457 C452 1.363 1_554 S
C457 C456 1.415 . S
H458 C455 0.999 . S
H459 C440 0.913 1_655 S
H460 C478 0.951 . S
H461 C480 0.951 . S
H462 C482 0.950 . S
H463 C483 0.950 . S
H464 C485 0.950 . S
H465 C488 0.950 . S
H466 C489 0.950 . S
H467 C491 0.950 . S
H468 C492 0.950 . S
H469 C493 0.951 . S
H470 C495 0.951 . S
H471 C497 0.950 . S
H472 C498 0.950 . S
H473 C500 0.950 . S
H474 C503 0.950 . S
H475 C504 0.950 . S
H476 C506 0.950 . S
H477 C507 0.950 . S
C478 H460 0.951 . S
C478 C479 1.366 . S
C478 C480 1.388 . S
C479 C478 1.366 . S
C479 C483 1.385 . S
C480 H461 0.951 . S
C480 C478 1.388 . S
C480 C481 1.366 . S
C481 C480 1.366 . S
C481 C482 1.414 . S
C481 C484 1.499 . S
C482 H462 0.950 . S
C482 C481 1.414 . S
C482 C483 1.374 . S
C483 H463 0.950 . S
C483 C479 1.385 . S
C483 C482 1.374 . S
C484 C481 1.499 . S
C484 C485 1.373 . S
C484 C486 1.389 . S
C485 H464 0.950 . S
C485 C484 1.373 . S
C485 C501 1.377 . S
C486 C484 1.389 . S
C486 C487 1.524 . S
C486 C500 1.377 . S
C487 C486 1.524 . S
C487 C488 1.397 . S
C487 C492 1.363 . S
C488 H465 0.950 . S
C488 C487 1.397 . S
C488 C489 1.334 . S
C489 H466 0.950 . S
C489 C488 1.334 . S
C489 C490 1.287 . S
C490 C489 1.287 . S
C490 C491 1.524 . S
C490 H509 0.913 . S
C491 H467 0.950 . S
C491 C490 1.524 . S
C491 C492 1.415 . S
C492 H468 0.950 . S
C492 C487 1.363 . S
C492 C491 1.415 . S
C493 H469 0.951 . S
C493 C494 1.366 . S
C493 C495 1.388 . S
C494 C493 1.366 . S
C494 C498 1.385 . S
C495 H470 0.951 . S
C495 C493 1.388 . S
C495 C496 1.366 . S
C496 C495 1.366 . S
C496 C497 1.414 . S
C496 C499 1.499 . S
C497 H471 0.950 . S
C497 C496 1.414 . S
C497 C498 1.374 . S
C498 H472 0.950 . S
C498 C494 1.385 . S
C498 C497 1.374 . S
C499 C496 1.499 . S
C499 C500 1.373 . S
C499 C501 1.389 . S
C500 H473 0.950 . S
C500 C486 1.377 . S
C500 C499 1.373 . S
C501 C485 1.377 . S
C501 C499 1.389 . S
C501 C502 1.524 . S
C502 C501 1.524 . S
C502 C503 1.397 . S
C502 C507 1.363 . S
C503 H474 0.950 . S
C503 C502 1.397 . S
C503 C504 1.334 . S
C504 H475 0.950 . S
C504 C503 1.334 . S
C504 C505 1.287 . S
C505 C504 1.287 . S
C505 C506 1.524 . S
C505 H508 0.999 . S
C506 H476 0.950 . S
C506 C505 1.524 . S
C506 C507 1.415 . S
C507 H477 0.950 . S
C507 C502 1.363 . S
C507 C506 1.415 . S
H508 C505 0.999 . S
H509 C490 0.913 . S
H510 C528 0.951 . S
H511 C530 0.951 . S
H512 C532 0.950 . S
H513 C533 0.950 . S
H514 C535 0.950 . S
H515 C538 0.950 . S
H516 C539 0.950 . S
H517 C541 0.950 . S
H518 C542 0.950 . S
H519 C543 0.951 . S
H520 C545 0.951 . S
H521 C547 0.950 . S
H522 C548 0.950 . S
H523 C550 0.950 . S
H524 C553 0.950 . S
H525 C554 0.950 . S
H526 C556 0.950 . S
H527 C557 0.950 . S
C528 H510 0.951 . S
C528 C529 1.366 . S
C528 C530 1.388 . S
C529 C528 1.366 . S
C529 C533 1.385 . S
C530 H511 0.951 . S
C530 C528 1.388 . S
C530 C531 1.366 . S
C531 C530 1.366 . S
C531 C532 1.414 . S
C531 C534 1.499 . S
C532 H512 0.950 . S
C532 C531 1.414 . S
C532 C533 1.374 . S
C533 H513 0.950 . S
C533 C529 1.385 . S
C533 C532 1.374 . S
C534 C531 1.499 . S
C534 C535 1.373 . S
C534 C536 1.389 . S
C535 H514 0.950 . S
C535 C534 1.373 . S
C535 C551 1.377 . S
C536 C534 1.389 . S
C536 C537 1.524 . S
C536 C550 1.377 . S
C537 C536 1.524 . S
C537 C538 1.397 . S
C537 C542 1.363 . S
C538 H515 0.950 . S
C538 C537 1.397 . S
C538 C539 1.334 . S
C539 H516 0.950 . S
C539 C538 1.334 . S
C539 C540 1.287 . S
C540 C539 1.287 . S
C540 C541 1.524 . S
C540 H559 0.913 . S
C541 H517 0.950 . S
C541 C540 1.524 . S
C541 C542 1.415 . S
C542 H518 0.950 . S
C542 C537 1.363 . S
C542 C541 1.415 . S
C543 H519 0.951 . S
C543 C544 1.366 . S
C543 C545 1.388 . S
C544 C543 1.366 . S
C544 C548 1.385 . S
C545 H520 0.951 . S
C545 C543 1.388 . S
C545 C546 1.366 1_655 S
C546 C545 1.366 1_455 S
C546 C547 1.414 . S
C546 C549 1.499 . S
C547 H521 0.950 . S
C547 C546 1.414 . S
C547 C548 1.374 1_455 S
C548 H522 0.950 . S
C548 C544 1.385 . S
C548 C547 1.374 1_655 S
C549 C546 1.499 . S
C549 C550 1.373 . S
C549 C551 1.389 . S
C550 H523 0.950 . S
C550 C536 1.377 . S
C550 C549 1.373 . S
C551 C535 1.377 . S
C551 C549 1.389 . S
C551 C552 1.524 . S
C552 C551 1.524 . S
C552 C553 1.397 . S
C552 C557 1.363 . S
C553 H524 0.950 . S
C553 C552 1.397 . S
C553 C554 1.334 . S
C554 H525 0.950 . S
C554 C553 1.334 . S
C554 C555 1.287 . S
C555 C554 1.287 . S
C555 C556 1.524 . S
C555 H558 0.999 . S
C556 H526 0.950 . S
C556 C555 1.524 . S
C556 C557 1.415 . S
C557 H527 0.950 . S
C557 C552 1.363 . S
C557 C556 1.415 . S
H558 C555 0.999 . S
H559 C540 0.913 . S
H560 C578 0.951 . S
H561 C580 0.951 . S
H562 C582 0.950 . S
H563 C583 0.950 . S
H564 C585 0.950 1_565 S
H565 C588 0.950 . S
H566 C589 0.950 . S
H567 C591 0.950 . S
H568 C592 0.950 . S
H569 C593 0.951 . S
H570 C595 0.951 . S
H571 C597 0.950 . S
H572 C598 0.950 . S
H573 C600 0.950 . S
H574 C603 0.950 . S
H575 C604 0.950 . S
H576 C606 0.950 . S
H577 C607 0.950 . S
C578 H560 0.951 . S
C578 C579 1.366 . S
C578 C580 1.388 . S
C579 C578 1.366 . S
C579 C583 1.385 . S
C580 H561 0.951 . S
C580 C578 1.388 . S
C580 C581 1.366 . S
C581 C580 1.366 . S
C581 C582 1.414 . S
C581 C584 1.499 . S
C582 H562 0.950 . S
C582 C581 1.414 . S
C582 C583 1.374 . S
C583 H563 0.950 . S
C583 C579 1.385 . S
C583 C582 1.374 . S
C584 C581 1.499 . S
C584 C585 1.373 . S
C584 C586 1.389 . S
C585 H564 0.950 1_545 S
C585 C584 1.373 . S
C585 C601 1.377 1_545 S
C586 C584 1.389 . S
C586 C587 1.524 . S
C586 C600 1.377 . S
C587 C586 1.524 . S
C587 C588 1.397 . S
C587 C592 1.363 . S
C588 H565 0.950 . S
C588 C587 1.397 . S
C588 C589 1.334 . S
C589 H566 0.950 . S
C589 C588 1.334 . S
C589 C590 1.287 . S
C590 C589 1.287 . S
C590 C591 1.524 . S
C590 H609 0.913 . S
C591 H567 0.950 . S
C591 C590 1.524 . S
C591 C592 1.415 . S
C592 H568 0.950 . S
C592 C587 1.363 . S
C592 C591 1.415 . S
C593 H569 0.951 . S
C593 C594 1.366 . S
C593 C595 1.388 . S
C594 C593 1.366 . S
C594 C598 1.385 . S
C595 H570 0.951 . S
C595 C593 1.388 . S
C595 C596 1.366 . S
C596 C595 1.366 . S
C596 C597 1.414 . S
C596 C599 1.499 . S
C597 H571 0.950 . S
C597 C596 1.414 . S
C597 C598 1.374 . S
C598 H572 0.950 . S
C598 C594 1.385 . S
C598 C597 1.374 . S
C599 C596 1.499 . S
C599 C600 1.373 1_565 S
C599 C601 1.389 . S
C600 H573 0.950 . S
C600 C586 1.377 . S
C600 C599 1.373 1_545 S
C601 C585 1.377 1_565 S
C601 C599 1.389 . S
C601 C602 1.524 . S
C602 C601 1.524 . S
C602 C603 1.397 . S
C602 C607 1.363 . S
C603 H574 0.950 . S
C603 C602 1.397 . S
C603 C604 1.334 . S
C604 H575 0.950 . S
C604 C603 1.334 . S
C604 C605 1.287 . S
C605 C604 1.287 . S
C605 C606 1.524 . S
C605 H608 0.999 . S
C606 H576 0.950 . S
C606 C605 1.524 . S
C606 C607 1.415 . S
C607 H577 0.950 . S
C607 C602 1.363 . S
C607 C606 1.415 . S
H608 C605 0.999 . S
H609 C590 0.913 . S
H610 C628 0.951 . S
H611 C630 0.951 . S
H612 C632 0.950 . S
H613 C633 0.950 . S
H614 C635 0.950 . S
H615 C638 0.950 . S
H616 C639 0.950 . S
H617 C641 0.950 . S
H618 C642 0.950 . S
H619 C643 0.951 . S
H620 C645 0.951 . S
H621 C647 0.950 . S
H622 C648 0.950 . S
H623 C650 0.950 . S
H624 C653 0.950 . S
H625 C654 0.950 . S
H626 C656 0.950 . S
H627 C657 0.950 . S
C628 H610 0.951 . S
C628 C629 1.366 . S
C628 C630 1.388 . S
C629 C628 1.366 . S
C629 C633 1.385 . S
C630 H611 0.951 . S
C630 C628 1.388 . S
C630 C631 1.366 . S
C631 C630 1.366 . S
C631 C632 1.414 . S
C631 C634 1.499 . S
C632 H612 0.950 . S
C632 C631 1.414 . S
C632 C633 1.374 . S
C633 H613 0.950 . S
C633 C629 1.385 . S
C633 C632 1.374 . S
C634 C631 1.499 . S
C634 C635 1.373 . S
C634 C636 1.389 . S
C635 H614 0.950 . S
C635 C634 1.373 . S
C635 C651 1.377 . S
C636 C634 1.389 . S
C636 C637 1.524 . S
C636 C650 1.377 . S
C637 C636 1.524 . S
C637 C638 1.397 . S
C637 C642 1.363 . S
C638 H615 0.950 . S
C638 C637 1.397 . S
C638 C639 1.334 . S
C639 H616 0.950 . S
C639 C638 1.334 . S
C639 C640 1.287 . S
C640 C639 1.287 . S
C640 C641 1.524 . S
C640 H659 0.913 . S
C641 H617 0.950 . S
C641 C640 1.524 . S
C641 C642 1.415 . S
C642 H618 0.950 . S
C642 C637 1.363 . S
C642 C641 1.415 . S
C643 H619 0.951 . S
C643 C644 1.366 . S
C643 C645 1.388 . S
C644 C643 1.366 . S
C644 C648 1.385 . S
C645 H620 0.951 . S
C645 C643 1.388 . S
C645 C646 1.366 . S
C646 C645 1.366 . S
C646 C647 1.414 . S
C646 C649 1.499 . S
C647 H621 0.950 . S
C647 C646 1.414 . S
C647 C648 1.374 . S
C648 H622 0.950 . S
C648 C644 1.385 . S
C648 C647 1.374 . S
C649 C646 1.499 . S
C649 C650 1.373 . S
C649 C651 1.389 . S
C650 H623 0.950 . S
C650 C636 1.377 . S
C650 C649 1.373 . S
C651 C635 1.377 . S
C651 C649 1.389 . S
C651 C652 1.524 . S
C652 C651 1.524 . S
C652 C653 1.397 . S
C652 C657 1.363 . S
C653 H624 0.950 . S
C653 C652 1.397 . S
C653 C654 1.334 . S
C654 H625 0.950 . S
C654 C653 1.334 . S
C654 C655 1.287 . S
C655 C654 1.287 . S
C655 C656 1.524 . S
C655 H658 0.999 . S
C656 H626 0.950 . S
C656 C655 1.524 . S
C656 C657 1.415 . S
C657 H627 0.950 . S
C657 C652 1.363 . S
C657 C656 1.415 . S
H658 C655 0.999 . S
H659 C640 0.913 . S
H660 C678 0.951 . S
H661 C680 0.951 . S
H662 C682 0.950 . S
H663 C683 0.950 . S
H664 C685 0.950 . S
H665 C688 0.950 . S
H666 C689 0.950 . S
H667 C691 0.950 . S
H668 C692 0.950 1_545 S
H669 C693 0.951 . S
H670 C695 0.951 . S
H671 C697 0.950 . S
H672 C698 0.950 . S
H673 C700 0.950 . S
H674 C703 0.950 . S
H675 C704 0.950 . S
H676 C706 0.950 . S
H677 C707 0.950 . S
C678 H660 0.951 . S
C678 C679 1.366 . S
C678 C680 1.388 . S
C679 C678 1.366 . S
C679 C683 1.385 . S
C680 H661 0.951 . S
C680 C678 1.388 . S
C680 C681 1.366 . S
C681 C680 1.366 . S
C681 C682 1.414 . S
C681 C684 1.499 1_554 S
C682 H662 0.950 . S
C682 C681 1.414 . S
C682 C683 1.374 . S
C683 H663 0.950 . S
C683 C679 1.385 . S
C683 C682 1.374 . S
C684 C681 1.499 1_556 S
C684 C685 1.373 1_566 S
C684 C686 1.389 1_565 S
C685 H664 0.950 . S
C685 C684 1.373 1_544 S
C685 C701 1.377 . S
C686 C684 1.389 1_545 S
C686 C687 1.524 1_545 S
C686 C700 1.377 . S
C687 C686 1.524 1_565 S
C687 C688 1.397 . S
C687 C692 1.363 . S
C688 H665 0.950 . S
C688 C687 1.397 . S
C688 C689 1.334 . S
C689 H666 0.950 . S
C689 C688 1.334 . S
C689 C690 1.287 . S
C690 C689 1.287 . S
C690 C691 1.524 . S
C690 H709 0.913 . S
C691 H667 0.950 . S
C691 C690 1.524 . S
C691 C692 1.415 . S
C692 H668 0.950 1_565 S
C692 C687 1.363 . S
C692 C691 1.415 . S
C693 H669 0.951 . S
C693 C694 1.366 . S
C693 C695 1.388 . S
C694 C693 1.366 . S
C694 C698 1.385 . S
C695 H670 0.951 . S
C695 C693 1.388 . S
C695 C696 1.366 . S
C696 C695 1.366 . S
C696 C697 1.414 . S
C696 C699 1.499 . S
C697 H671 0.950 . S
C697 C696 1.414 . S
C697 C698 1.374 . S
C698 H672 0.950 . S
C698 C694 1.385 . S
C698 C697 1.374 . S
C699 C696 1.499 . S
C699 C700 1.373 . S
C699 C701 1.389 1_556 S
C700 H673 0.950 . S
C700 C686 1.377 . S
C700 C699 1.373 . S
C701 C685 1.377 . S
C701 C699 1.389 1_554 S
C701 C702 1.524 . S
C702 C701 1.524 . S
C702 C703 1.397 . S
C702 C707 1.363 . S
C703 H674 0.950 . S
C703 C702 1.397 . S
C703 C704 1.334 . S
C704 H675 0.950 . S
C704 C703 1.334 . S
C704 C705 1.287 . S
C705 C704 1.287 . S
C705 C706 1.524 . S
C705 H708 0.999 . S
C706 H676 0.950 . S
C706 C705 1.524 . S
C706 C707 1.415 . S
C707 H677 0.950 . S
C707 C702 1.363 . S
C707 C706 1.415 . S
H708 C705 0.999 . S
H709 C690 0.913 . S
H710 C728 0.951 . S
H711 C730 0.951 . S
H712 C732 0.950 . S
H713 C733 0.950 . S
H714 C735 0.950 . S
H715 C738 0.950 . S
H716 C739 0.950 . S
H717 C741 0.950 . S
H718 C742 0.950 . S
H719 C743 0.951 . S
H720 C745 0.951 . S
H721 C747 0.950 . S
H722 C748 0.950 . S
H723 C750 0.950 . S
H724 C753 0.950 . S
H725 C754 0.950 . S
H726 C756 0.950 . S
H727 C757 0.950 . S
C728 H710 0.951 . S
C728 C729 1.366 . S
C728 C730 1.388 . S
C729 C728 1.366 . S
C729 C733 1.385 . S
C730 H711 0.951 . S
C730 C728 1.388 . S
C730 C731 1.366 . S
C731 C730 1.366 . S
C731 C732 1.414 . S
C731 C734 1.499 . S
C732 H712 0.950 . S
C732 C731 1.414 . S
C732 C733 1.374 . S
C733 H713 0.950 . S
C733 C729 1.385 . S
C733 C732 1.374 . S
C734 C731 1.499 . S
C734 C735 1.373 . S
C734 C736 1.389 . S
C735 H714 0.950 . S
C735 C734 1.373 . S
C735 C751 1.377 . S
C736 C734 1.389 . S
C736 C737 1.524 . S
C736 C750 1.377 . S
C737 C736 1.524 . S
C737 C738 1.397 . S
C737 C742 1.363 . S
C738 H715 0.950 . S
C738 C737 1.397 . S
C738 C739 1.334 . S
C739 H716 0.950 . S
C739 C738 1.334 . S
C739 C740 1.287 . S
C740 C739 1.287 . S
C740 C741 1.524 . S
C740 H759 0.913 . S
C741 H717 0.950 . S
C741 C740 1.524 . S
C741 C742 1.415 . S
C742 H718 0.950 . S
C742 C737 1.363 . S
C742 C741 1.415 . S
C743 H719 0.951 . S
C743 C744 1.366 . S
C743 C745 1.388 . S
C744 C743 1.366 . S
C744 C748 1.385 . S
C745 H720 0.951 . S
C745 C743 1.388 . S
C745 C746 1.366 . S
C746 C745 1.366 . S
C746 C747 1.414 . S
C746 C749 1.499 . S
C747 H721 0.950 . S
C747 C746 1.414 . S
C747 C748 1.374 . S
C748 H722 0.950 . S
C748 C744 1.385 . S
C748 C747 1.374 . S
C749 C746 1.499 . S
C749 C750 1.373 . S
C749 C751 1.389 . S
C750 H723 0.950 . S
C750 C736 1.377 . S
C750 C749 1.373 . S
C751 C735 1.377 . S
C751 C749 1.389 . S
C751 C752 1.524 . S
C752 C751 1.524 . S
C752 C753 1.397 . S
C752 C757 1.363 . S
C753 H724 0.950 . S
C753 C752 1.397 . S
C753 C754 1.334 . S
C754 H725 0.950 . S
C754 C753 1.334 . S
C754 C755 1.287 . S
C755 C754 1.287 . S
C755 C756 1.524 . S
C755 H758 0.999 . S
C756 H726 0.950 . S
C756 C755 1.524 . S
C756 C757 1.415 . S
C757 H727 0.950 . S
C757 C752 1.363 . S
C757 C756 1.415 . S
H758 C755 0.999 . S
H759 C740 0.913 . S
H760 C778 0.951 . S
H761 C780 0.951 . S
H762 C782 0.950 . S
H763 C783 0.950 . S
H764 C785 0.950 . S
H765 C788 0.950 . S
H766 C789 0.950 . S
H767 C791 0.950 . S
H768 C792 0.950 . S
H769 C793 0.951 . S
H770 C795 0.951 . S
H771 C797 0.950 . S
H772 C798 0.950 . S
H773 C800 0.950 . S
H774 C803 0.950 . S
H775 C804 0.950 . S
H776 C806 0.950 . S
H777 C807 0.950 . S
C778 H760 0.951 . S
C778 C779 1.366 . S
C778 C780 1.388 . S
C779 C778 1.366 . S
C779 C783 1.385 . S
C780 H761 0.951 . S
C780 C778 1.388 . S
C780 C781 1.366 . S
C781 C780 1.366 . S
C781 C782 1.414 . S
C781 C784 1.499 . S
C782 H762 0.950 . S
C782 C781 1.414 . S
C782 C783 1.374 . S
C783 H763 0.950 . S
C783 C779 1.385 . S
C783 C782 1.374 . S
C784 C781 1.499 . S
C784 C785 1.373 . S
C784 C786 1.389 . S
C785 H764 0.950 . S
C785 C784 1.373 . S
C785 C801 1.377 . S
C786 C784 1.389 . S
C786 C787 1.524 . S
C786 C800 1.377 . S
C787 C786 1.524 . S
C787 C788 1.397 . S
C787 C792 1.363 . S
C788 H765 0.950 . S
C788 C787 1.397 . S
C788 C789 1.334 . S
C789 H766 0.950 . S
C789 C788 1.334 . S
C789 C790 1.287 . S
C790 C789 1.287 . S
C790 C791 1.524 . S
C790 H809 0.913 . S
C791 H767 0.950 . S
C791 C790 1.524 . S
C791 C792 1.415 . S
C792 H768 0.950 . S
C792 C787 1.363 . S
C792 C791 1.415 . S
C793 H769 0.951 . S
C793 C794 1.366 . S
C793 C795 1.388 . S
C794 C793 1.366 . S
C794 C798 1.385 . S
C795 H770 0.951 . S
C795 C793 1.388 . S
C795 C796 1.366 . S
C796 C795 1.366 . S
C796 C797 1.414 . S
C796 C799 1.499 . S
C797 H771 0.950 . S
C797 C796 1.414 . S
C797 C798 1.374 . S
C798 H772 0.950 . S
C798 C794 1.385 . S
C798 C797 1.374 . S
C799 C796 1.499 . S
C799 C800 1.373 . S
C799 C801 1.389 . S
C800 H773 0.950 . S
C800 C786 1.377 . S
C800 C799 1.373 . S
C801 C785 1.377 . S
C801 C799 1.389 . S
C801 C802 1.524 . S
C802 C801 1.524 . S
C802 C803 1.397 . S
C802 C807 1.363 . S
C803 H774 0.950 . S
C803 C802 1.397 . S
C803 C804 1.334 . S
C804 H775 0.950 . S
C804 C803 1.334 . S
C804 C805 1.287 . S
C805 C804 1.287 . S
C805 C806 1.524 . S
C805 H808 0.999 . S
C806 H776 0.950 . S
C806 C805 1.524 . S
C806 C807 1.415 . S
C807 H777 0.950 . S
C807 C802 1.363 . S
C807 C806 1.415 . S
H808 C805 0.999 . S
H809 C790 0.913 . S
H810 C828 0.951 . S
H811 C830 0.951 . S
H812 C832 0.950 . S
H813 C833 0.950 . S
H814 C835 0.950 . S
H815 C838 0.950 . S
H816 C839 0.950 . S
H817 C841 0.950 . S
H818 C842 0.950 . S
H819 C843 0.951 . S
H820 C845 0.951 . S
H821 C847 0.950 . S
H822 C848 0.950 . S
H823 C850 0.950 . S
H824 C853 0.950 . S
H825 C854 0.950 . S
H826 C856 0.950 . S
H827 C857 0.950 . S
C828 H810 0.951 . S
C828 C829 1.366 . S
C828 C830 1.388 . S
C829 C828 1.366 . S
C829 C833 1.385 . S
C830 H811 0.951 . S
C830 C828 1.388 . S
C830 C831 1.366 . S
C831 C830 1.366 . S
C831 C832 1.414 . S
C831 C834 1.499 1_455 S
C832 H812 0.950 . S
C832 C831 1.414 . S
C832 C833 1.374 . S
C833 H813 0.950 . S
C833 C829 1.385 . S
C833 C832 1.374 . S
C834 C831 1.499 1_655 S
C834 C835 1.373 . S
C834 C836 1.389 . S
C835 H814 0.950 . S
C835 C834 1.373 . S
C835 C851 1.377 . S
C836 C834 1.389 . S
C836 C837 1.524 . S
C836 C850 1.377 . S
C837 C836 1.524 . S
C837 C838 1.397 . S
C837 C842 1.363 . S
C838 H815 0.950 . S
C838 C837 1.397 . S
C838 C839 1.334 1_655 S
C839 H816 0.950 . S
C839 C838 1.334 1_455 S
C839 C840 1.287 . S
C840 C839 1.287 . S
C840 C841 1.524 1_455 S
C840 H859 0.913 . S
C841 H817 0.950 . S
C841 C840 1.524 1_655 S
C841 C842 1.415 . S
C842 H818 0.950 . S
C842 C837 1.363 . S
C842 C841 1.415 . S
C843 H819 0.951 . S
C843 C844 1.366 . S
C843 C845 1.388 . S
C844 C843 1.366 . S
C844 C848 1.385 . S
C845 H820 0.951 . S
C845 C843 1.388 . S
C845 C846 1.366 . S
C846 C845 1.366 . S
C846 C847 1.414 . S
C846 C849 1.499 . S
C847 H821 0.950 . S
C847 C846 1.414 . S
C847 C848 1.374 . S
C848 H822 0.950 . S
C848 C844 1.385 . S
C848 C847 1.374 . S
C849 C846 1.499 . S
C849 C850 1.373 . S
C849 C851 1.389 . S
C850 H823 0.950 . S
C850 C836 1.377 . S
C850 C849 1.373 . S
C851 C835 1.377 . S
C851 C849 1.389 . S
C851 C852 1.524 . S
C852 C851 1.524 . S
C852 C853 1.397 . S
C852 C857 1.363 . S
C853 H824 0.950 . S
C853 C852 1.397 . S
C853 C854 1.334 . S
C854 H825 0.950 . S
C854 C853 1.334 . S
C854 C855 1.287 . S
C855 C854 1.287 . S
C855 C856 1.524 . S
C855 H858 0.999 . S
C856 H826 0.950 . S
C856 C855 1.524 . S
C856 C857 1.415 . S
C857 H827 0.950 . S
C857 C852 1.363 . S
C857 C856 1.415 . S
H858 C855 0.999 . S
H859 C840 0.913 . S
H860 C878 0.951 . S
H861 C880 0.951 . S
H862 C882 0.950 . S
H863 C883 0.950 . S
H864 C885 0.950 . S
H865 C888 0.950 . S
H866 C889 0.950 . S
H867 C891 0.950 . S
H868 C892 0.950 . S
H869 C893 0.951 . S
H870 C895 0.951 . S
H871 C897 0.950 . S
H872 C898 0.950 . S
H873 C900 0.950 . S
H874 C903 0.950 . S
H875 C904 0.950 . S
H876 C906 0.950 . S
H877 C907 0.950 . S
C878 H860 0.951 . S
C878 C879 1.366 . S
C878 C880 1.388 . S
C879 C878 1.366 . S
C879 C883 1.385 . S
C880 H861 0.951 . S
C880 C878 1.388 . S
C880 C881 1.366 . S
C881 C880 1.366 . S
C881 C882 1.414 . S
C881 C884 1.499 . S
C882 H862 0.950 . S
C882 C881 1.414 . S
C882 C883 1.374 . S
C883 H863 0.950 . S
C883 C879 1.385 . S
C883 C882 1.374 . S
C884 C881 1.499 . S
C884 C885 1.373 . S
C884 C886 1.389 . S
C885 H864 0.950 . S
C885 C884 1.373 . S
C885 C901 1.377 . S
C886 C884 1.389 . S
C886 C887 1.524 . S
C886 C900 1.377 . S
C887 C886 1.524 . S
C887 C888 1.397 . S
C887 C892 1.363 . S
C888 H865 0.950 . S
C888 C887 1.397 . S
C888 C889 1.334 . S
C889 H866 0.950 . S
C889 C888 1.334 . S
C889 C890 1.287 . S
C890 C889 1.287 . S
C890 C891 1.524 . S
C890 H909 0.913 . S
C891 H867 0.950 . S
C891 C890 1.524 . S
C891 C892 1.415 . S
C892 H868 0.950 . S
C892 C887 1.363 . S
C892 C891 1.415 . S
C893 H869 0.951 . S
C893 C894 1.366 . S
C893 C895 1.388 . S
C894 C893 1.366 . S
C894 C898 1.385 . S
C895 H870 0.951 . S
C895 C893 1.388 . S
C895 C896 1.366 . S
C896 C895 1.366 . S
C896 C897 1.414 . S
C896 C899 1.499 . S
C897 H871 0.950 . S
C897 C896 1.414 . S
C897 C898 1.374 . S
C898 H872 0.950 . S
C898 C894 1.385 . S
C898 C897 1.374 . S
C899 C896 1.499 . S
C899 C900 1.373 . S
C899 C901 1.389 . S
C900 H873 0.950 . S
C900 C886 1.377 . S
C900 C899 1.373 . S
C901 C885 1.377 . S
C901 C899 1.389 . S
C901 C902 1.524 . S
C902 C901 1.524 . S
C902 C903 1.397 . S
C902 C907 1.363 . S
C903 H874 0.950 . S
C903 C902 1.397 . S
C903 C904 1.334 . S
C904 H875 0.950 . S
C904 C903 1.334 . S
C904 C905 1.287 . S
C905 C904 1.287 . S
C905 C906 1.524 . S
C905 H908 0.999 . S
C906 H876 0.950 . S
C906 C905 1.524 . S
C906 C907 1.415 . S
C907 H877 0.950 . S
C907 C902 1.363 . S
C907 C906 1.415 . S
H908 C905 0.999 . S
H909 C890 0.913 . S
H910 C928 0.951 . S
H911 C930 0.951 . S
H912 C932 0.950 . S
H913 C933 0.950 . S
H914 C935 0.950 . S
H915 C938 0.950 . S
H916 C939 0.950 . S
H917 C941 0.950 . S
H918 C942 0.950 . S
H919 C943 0.951 . S
H920 C945 0.951 . S
H921 C947 0.950 . S
H922 C948 0.950 . S
H923 C950 0.950 . S
H924 C953 0.950 . S
H925 C954 0.950 . S
H926 C956 0.950 . S
H927 C957 0.950 . S
C928 H910 0.951 . S
C928 C929 1.366 . S
C928 C930 1.388 . S
C929 C928 1.366 . S
C929 C933 1.385 . S
C930 H911 0.951 . S
C930 C928 1.388 . S
C930 C931 1.366 . S
C931 C930 1.366 . S
C931 C932 1.414 . S
C931 C934 1.499 . S
C932 H912 0.950 . S
C932 C931 1.414 . S
C932 C933 1.374 . S
C933 H913 0.950 . S
C933 C929 1.385 . S
C933 C932 1.374 . S
C934 C931 1.499 . S
C934 C935 1.373 . S
C934 C936 1.389 . S
C935 H914 0.950 . S
C935 C934 1.373 . S
C935 C951 1.377 . S
C936 C934 1.389 . S
C936 C937 1.524 . S
C936 C950 1.377 . S
C937 C936 1.524 . S
C937 C938 1.397 . S
C937 C942 1.363 . S
C938 H915 0.950 . S
C938 C937 1.397 . S
C938 C939 1.334 . S
C939 H916 0.950 . S
C939 C938 1.334 . S
C939 C940 1.287 . S
C940 C939 1.287 . S
C940 C941 1.524 . S
C940 H959 0.913 . S
C941 H917 0.950 . S
C941 C940 1.524 . S
C941 C942 1.415 . S
C942 H918 0.950 . S
C942 C937 1.363 . S
C942 C941 1.415 . S
C943 H919 0.951 . S
C943 C944 1.366 . S
C943 C945 1.388 1_455 S
C944 C943 1.366 . S
C944 C948 1.385 . S
C945 H920 0.951 . S
C945 C943 1.388 1_655 S
C945 C946 1.373 . S
C946 C945 1.373 . S
C946 C947 1.387 1_655 S
C946 C949 1.519 . S
C947 H921 0.950 . S
C947 C946 1.387 1_455 S
C947 C948 1.374 . S
C948 H922 0.950 . S
C948 C944 1.385 . S
C948 C947 1.374 . S
C949 C946 1.519 . S
C949 C950 1.373 . S
C949 C951 1.389 . S
C950 H923 0.950 . S
C950 C936 1.377 . S
C950 C949 1.373 . S
C951 C935 1.377 . S
C951 C949 1.389 . S
C951 C952 1.524 . S
C952 C951 1.524 . S
C952 C953 1.397 1_655 S
C952 C957 1.363 . S
C953 H924 0.950 . S
C953 C952 1.397 1_455 S
C953 C954 1.334 . S
C954 H925 0.950 . S
C954 C953 1.334 . S
C954 C955 1.287 . S
C955 C954 1.287 . S
C955 C956 1.524 1_455 S
C955 H958 0.999 . S
C956 H926 0.950 . S
C956 C955 1.524 1_655 S
C956 C957 1.415 . S
C957 H927 0.950 . S
C957 C952 1.363 . S
C957 C956 1.415 . S
H958 C955 0.999 . S
H959 C940 0.913 . S
H960 C978 0.951 . S
H961 C980 0.951 . S
H962 C982 0.950 . S
H963 C983 0.950 . S
H964 C985 0.950 . S
H965 C988 0.950 . S
H966 C989 0.950 . S
H967 C991 0.950 . S
H968 C992 0.950 . S
H969 C993 0.951 . S
H970 C995 0.951 . S
H971 C997 0.950 . S
H972 C998 0.950 . S
H973 C1000 0.950 . S
H974 C1003 0.950 . S
H975 C1004 0.950 . S
H976 C1006 0.950 . S
H977 C1007 0.950 . S
C978 H960 0.951 . S
C978 C979 1.366 . S
C978 C980 1.388 . S
C979 C978 1.366 . S
C979 C983 1.385 . S
C980 H961 0.951 . S
C980 C978 1.388 . S
C980 C981 1.366 . S
C981 C980 1.366 . S
C981 C982 1.414 . S
C981 C984 1.499 . S
C982 H962 0.950 . S
C982 C981 1.414 . S
C982 C983 1.374 . S
C983 H963 0.950 . S
C983 C979 1.385 . S
C983 C982 1.374 . S
C984 C981 1.499 . S
C984 C985 1.373 . S
C984 C986 1.389 . S
C985 H964 0.950 . S
C985 C984 1.373 . S
C985 C1001 1.377 . S
C986 C984 1.389 . S
C986 C987 1.524 . S
C986 C1000 1.377 . S
C987 C986 1.524 . S
C987 C988 1.397 . S
C987 C992 1.363 . S
C988 H965 0.950 . S
C988 C987 1.397 . S
C988 C989 1.334 . S
C989 H966 0.950 . S
C989 C988 1.334 . S
C989 C990 1.287 . S
C990 C989 1.287 . S
C990 C991 1.524 . S
C990 H1009 0.913 . S
C991 H967 0.950 . S
C991 C990 1.524 . S
C991 C992 1.415 . S
C992 H968 0.950 . S
C992 C987 1.363 . S
C992 C991 1.415 . S
C993 H969 0.951 . S
C993 C994 1.366 . S
C993 C995 1.388 . S
C994 C993 1.366 . S
C994 C998 1.385 . S
C995 H970 0.951 . S
C995 C993 1.388 . S
C995 C996 1.366 . S
C996 C995 1.366 . S
C996 C997 1.414 . S
C996 C999 1.499 . S
C997 H971 0.950 . S
C997 C996 1.414 . S
C997 C998 1.374 . S
C998 H972 0.950 . S
C998 C994 1.385 . S
C998 C997 1.374 . S
C999 C996 1.499 . S
C999 C1000 1.373 . S
C999 C1001 1.389 . S
C1000 H973 0.950 . S
C1000 C986 1.377 . S
C1000 C999 1.373 . S
C1001 C985 1.377 . S
C1001 C999 1.389 . S
C1001 C1002 1.524 . S
C1002 C1001 1.524 . S
C1002 C1003 1.397 . S
C1002 C1007 1.363 . S
C1003 H974 0.950 . S
C1003 C1002 1.397 . S
C1003 C1004 1.334 . S
C1004 H975 0.950 . S
C1004 C1003 1.334 . S
C1004 C1005 1.287 . S
C1005 C1004 1.287 . S
C1005 C1006 1.524 . S
C1005 H1008 0.999 . S
C1006 H976 0.950 . S
C1006 C1005 1.524 . S
C1006 C1007 1.415 . S
C1007 H977 0.950 . S
C1007 C1002 1.363 . S
C1007 C1006 1.415 . S
H1008 C1005 0.999 . S
H1009 C990 0.913 . S
H1010 C1028 0.951 . S
H1011 C1030 0.951 . S
H1012 C1032 0.950 . S
H1013 C1033 0.950 . S
H1014 C1035 0.950 . S
H1015 C1038 0.950 . S
H1016 C1039 0.950 . S
H1017 C1041 0.950 . S
H1018 C1042 0.950 . S
H1019 C1043 0.951 . S
H1020 C1045 0.951 . S
H1021 C1047 0.950 . S
H1022 C1048 0.950 . S
H1023 C1050 0.950 . S
H1024 C1053 0.950 . S
H1025 C1054 0.950 . S
H1026 C1056 0.950 . S
H1027 C1057 0.950 . S
C1028 H1010 0.951 . S
C1028 C1029 1.366 . S
C1028 C1030 1.388 . S
C1029 C1028 1.366 . S
C1029 C1033 1.385 . S
C1030 H1011 0.951 . S
C1030 C1028 1.388 . S
C1030 C1031 1.366 . S
C1031 C1030 1.366 . S
C1031 C1032 1.414 . S
C1031 C1034 1.499 . S
C1032 H1012 0.950 . S
C1032 C1031 1.414 . S
C1032 C1033 1.374 . S
C1033 H1013 0.950 . S
C1033 C1029 1.385 . S
C1033 C1032 1.374 . S
C1034 C1031 1.499 . S
C1034 C1035 1.373 . S
C1034 C1036 1.389 . S
C1035 H1014 0.950 . S
C1035 C1034 1.373 . S
C1035 C1051 1.377 . S
C1036 C1034 1.389 . S
C1036 C1037 1.524 . S
C1036 C1050 1.377 . S
C1037 C1036 1.524 . S
C1037 C1038 1.397 . S
C1037 C1042 1.363 . S
C1038 H1015 0.950 . S
C1038 C1037 1.397 . S
C1038 C1039 1.334 . S
C1039 H1016 0.950 . S
C1039 C1038 1.334 . S
C1039 C1040 1.287 . S
C1040 C1039 1.287 . S
C1040 C1041 1.524 . S
C1040 H1059 0.913 . S
C1041 H1017 0.950 . S
C1041 C1040 1.524 . S
C1041 C1042 1.415 . S
C1042 H1018 0.950 . S
C1042 C1037 1.363 . S
C1042 C1041 1.415 . S
C1043 H1019 0.951 . S
C1043 C1044 1.366 . S
C1043 C1045 1.388 . S
C1044 C1043 1.366 . S
C1044 C1048 1.385 . S
C1045 H1020 0.951 . S
C1045 C1043 1.388 . S
C1045 C1046 1.366 . S
C1046 C1045 1.366 . S
C1046 C1047 1.414 . S
C1046 C1049 1.499 . S
C1047 H1021 0.950 . S
C1047 C1046 1.414 . S
C1047 C1048 1.374 . S
C1048 H1022 0.950 . S
C1048 C1044 1.385 . S
C1048 C1047 1.374 . S
C1049 C1046 1.499 . S
C1049 C1050 1.373 . S
C1049 C1051 1.389 . S
C1050 H1023 0.950 . S
C1050 C1036 1.377 . S
C1050 C1049 1.373 . S
C1051 C1035 1.377 . S
C1051 C1049 1.389 . S
C1051 C1052 1.524 . S
C1052 C1051 1.524 . S
C1052 C1053 1.397 . S
C1052 C1057 1.363 . S
C1053 H1024 0.950 . S
C1053 C1052 1.397 . S
C1053 C1054 1.334 . S
C1054 H1025 0.950 . S
C1054 C1053 1.334 . S
C1054 C1055 1.287 . S
C1055 C1054 1.287 . S
C1055 C1056 1.524 . S
C1055 H1058 0.999 . S
C1056 H1026 0.950 . S
C1056 C1055 1.524 . S
C1056 C1057 1.415 . S
C1057 H1027 0.950 . S
C1057 C1052 1.363 . S
C1057 C1056 1.415 . S
H1058 C1055 0.999 . S
H1059 C1040 0.913 . S
H1060 C1078 0.951 . S
H1061 C1080 0.951 . S
H1062 C1082 0.950 . S
H1063 C1083 0.950 . S
H1064 C1085 0.950 . S
H1065 C1088 0.950 . S
H1066 C1089 0.950 . S
H1067 C1091 0.950 . S
H1068 C1092 0.950 . S
H1069 C1093 0.951 . S
H1070 C1095 0.951 . S
H1071 C1097 0.950 . S
H1072 C1098 0.950 . S
H1073 C1100 0.950 . S
H1074 C1103 0.950 . S
H1075 C1104 0.950 . S
H1076 C1106 0.950 . S
H1077 C1107 0.950 . S
C1078 H1060 0.951 . S
C1078 C1079 1.366 . S
C1078 C1080 1.388 . S
C1079 C1078 1.366 . S
C1079 C1083 1.385 . S
C1080 H1061 0.951 . S
C1080 C1078 1.388 . S
C1080 C1081 1.366 . S
C1081 C1080 1.366 . S
C1081 C1082 1.414 . S
C1081 C1084 1.499 . S
C1082 H1062 0.950 . S
C1082 C1081 1.414 . S
C1082 C1083 1.374 . S
C1083 H1063 0.950 . S
C1083 C1079 1.385 . S
C1083 C1082 1.374 . S
C1084 C1081 1.499 . S
C1084 C1085 1.373 . S
C1084 C1086 1.389 . S
C1085 H1064 0.950 . S
C1085 C1084 1.373 . S
C1085 C1101 1.377 . S
C1086 C1084 1.389 . S
C1086 C1087 1.524 . S
C1086 C1100 1.377 . S
C1087 C1086 1.524 . S
C1087 C1088 1.397 . S
C1087 C1092 1.363 . S
C1088 H1065 0.950 . S
C1088 C1087 1.397 . S
C1088 C1089 1.334 . S
C1089 H1066 0.950 . S
C1089 C1088 1.334 . S
C1089 C1090 1.287 . S
C1090 C1089 1.287 . S
C1090 C1091 1.524 . S
C1090 H1109 0.913 . S
C1091 H1067 0.950 . S
C1091 C1090 1.524 . S
C1091 C1092 1.415 . S
C1092 H1068 0.950 . S
C1092 C1087 1.363 . S
C1092 C1091 1.415 . S
C1093 H1069 0.951 . S
C1093 C1094 1.366 . S
C1093 C1095 1.388 . S
C1094 C1093 1.366 . S
C1094 C1098 1.385 . S
C1095 H1070 0.951 . S
C1095 C1093 1.388 . S
C1095 C1096 1.366 . S
C1096 C1095 1.366 . S
C1096 C1097 1.414 . S
C1096 C1099 1.499 . S
C1097 H1071 0.950 . S
C1097 C1096 1.414 . S
C1097 C1098 1.374 . S
C1098 H1072 0.950 . S
C1098 C1094 1.385 . S
C1098 C1097 1.374 . S
C1099 C1096 1.499 . S
C1099 C1100 1.373 . S
C1099 C1101 1.389 . S
C1100 H1073 0.950 . S
C1100 C1086 1.377 . S
C1100 C1099 1.373 . S
C1101 C1085 1.377 . S
C1101 C1099 1.389 . S
C1101 C1102 1.524 . S
C1102 C1101 1.524 . S
C1102 C1103 1.397 . S
C1102 C1107 1.363 . S
C1103 H1074 0.950 . S
C1103 C1102 1.397 . S
C1103 C1104 1.334 . S
C1104 H1075 0.950 . S
C1104 C1103 1.334 . S
C1104 C1105 1.287 . S
C1105 C1104 1.287 . S
C1105 C1106 1.524 . S
C1105 H1108 0.999 . S
C1106 H1076 0.950 . S
C1106 C1105 1.524 . S
C1106 C1107 1.415 . S
C1107 H1077 0.950 . S
C1107 C1102 1.363 . S
C1107 C1106 1.415 . S
H1108 C1105 0.999 . S
H1109 C1090 0.913 . S
H1110 C1128 0.951 . S
H1111 C1130 0.951 . S
H1112 C1132 0.950 . S
H1113 C1133 0.950 . S
H1114 C1135 0.950 . S
H1115 C1138 0.950 . S
H1116 C1139 0.950 . S
H1117 C1141 0.950 . S
H1118 C1142 0.950 . S
H1119 C1143 0.951 . S
H1120 C1145 0.951 . S
H1121 C1147 0.950 . S
H1122 C1148 0.950 . S
H1123 C1150 0.950 . S
H1124 C1153 0.950 . S
H1125 C1154 0.950 . S
H1126 C1156 0.950 . S
H1127 C1157 0.950 . S
C1128 H1110 0.951 . S
C1128 C1129 1.366 . S
C1128 C1130 1.388 . S
C1129 C1128 1.366 . S
C1129 C1133 1.385 . S
C1130 H1111 0.951 . S
C1130 C1128 1.388 . S
C1130 C1131 1.366 . S
C1131 C1130 1.366 . S
C1131 C1132 1.414 . S
C1131 C1134 1.499 . S
C1132 H1112 0.950 . S
C1132 C1131 1.414 . S
C1132 C1133 1.374 . S
C1133 H1113 0.950 . S
C1133 C1129 1.385 . S
C1133 C1132 1.374 . S
C1134 C1131 1.499 . S
C1134 C1135 1.373 . S
C1134 C1136 1.389 . S
C1135 H1114 0.950 . S
C1135 C1134 1.373 . S
C1135 C1151 1.377 . S
C1136 C1134 1.389 . S
C1136 C1137 1.524 . S
C1136 C1150 1.377 . S
C1137 C1136 1.524 . S
C1137 C1138 1.397 . S
C1137 C1142 1.363 . S
C1138 H1115 0.950 . S
C1138 C1137 1.397 . S
C1138 C1139 1.334 . S
C1139 H1116 0.950 . S
C1139 C1138 1.334 . S
C1139 C1140 1.287 . S
C1140 C1139 1.287 . S
C1140 C1141 1.524 . S
C1140 H1159 0.913 . S
C1141 H1117 0.950 . S
C1141 C1140 1.524 . S
C1141 C1142 1.415 . S
C1142 H1118 0.950 . S
C1142 C1137 1.363 . S
C1142 C1141 1.415 . S
C1143 H1119 0.951 . S
C1143 C1144 1.366 . S
C1143 C1145 1.388 . S
C1144 C1143 1.366 . S
C1144 C1148 1.385 . S
C1145 H1120 0.951 . S
C1145 C1143 1.388 . S
C1145 C1146 1.366 . S
C1146 C1145 1.366 . S
C1146 C1147 1.414 . S
C1146 C1149 1.499 . S
C1147 H1121 0.950 . S
C1147 C1146 1.414 . S
C1147 C1148 1.374 . S
C1148 H1122 0.950 . S
C1148 C1144 1.385 . S
C1148 C1147 1.374 . S
C1149 C1146 1.499 . S
C1149 C1150 1.373 . S
C1149 C1151 1.389 . S
C1150 H1123 0.950 . S
C1150 C1136 1.377 . S
C1150 C1149 1.373 . S
C1151 C1135 1.377 . S
C1151 C1149 1.389 . S
C1151 C1152 1.524 . S
C1152 C1151 1.524 . S
C1152 C1153 1.397 . S
C1152 C1157 1.363 . S
C1153 H1124 0.950 . S
C1153 C1152 1.397 . S
C1153 C1154 1.334 . S
C1154 H1125 0.950 . S
C1154 C1153 1.334 . S
C1154 C1155 1.287 . S
C1155 C1154 1.287 . S
C1155 C1156 1.524 . S
C1155 H1158 0.999 . S
C1156 H1126 0.950 . S
C1156 C1155 1.524 . S
C1156 C1157 1.415 . S
C1157 H1127 0.950 . S
C1157 C1152 1.363 . S
C1157 C1156 1.415 . S
H1158 C1155 0.999 . S
H1159 C1140 0.913 . S
H1160 C1178 0.951 . S
H1161 C1180 0.951 . S
H1162 C1182 0.950 . S
H1163 C1183 0.950 . S
H1164 C1185 0.950 . S
H1165 C1188 0.950 . S
H1166 C1189 0.950 . S
H1167 C1191 0.950 . S
H1168 C1192 0.950 . S
H1169 C1193 0.951 . S
H1170 C1195 0.951 . S
H1171 C1197 0.950 . S
H1172 C1198 0.950 . S
H1173 C1200 0.950 . S
H1174 C1203 0.950 . S
H1175 C1204 0.950 . S
H1176 C1206 0.950 . S
H1177 C1207 0.950 . S
C1178 H1160 0.951 . S
C1178 C1179 1.366 . S
C1178 C1180 1.388 . S
C1179 C1178 1.366 . S
C1179 C1183 1.385 . S
C1180 H1161 0.951 . S
C1180 C1178 1.388 . S
C1180 C1181 1.366 . S
C1181 C1180 1.366 . S
C1181 C1182 1.414 . S
C1181 C1184 1.499 . S
C1182 H1162 0.950 . S
C1182 C1181 1.414 . S
C1182 C1183 1.374 . S
C1183 H1163 0.950 . S
C1183 C1179 1.385 . S
C1183 C1182 1.374 . S
C1184 C1181 1.499 . S
C1184 C1185 1.373 . S
C1184 C1186 1.389 . S
C1185 H1164 0.950 . S
C1185 C1184 1.373 . S
C1185 C1201 1.377 . S
C1186 C1184 1.389 . S
C1186 C1187 1.524 . S
C1186 C1200 1.377 . S
C1187 C1186 1.524 . S
C1187 C1188 1.397 . S
C1187 C1192 1.363 . S
C1188 H1165 0.950 . S
C1188 C1187 1.397 . S
C1188 C1189 1.334 . S
C1189 H1166 0.950 . S
C1189 C1188 1.334 . S
C1189 C1190 1.287 . S
C1190 C1189 1.287 . S
C1190 C1191 1.524 . S
C1190 H1209 0.913 . S
C1191 H1167 0.950 . S
C1191 C1190 1.524 . S
C1191 C1192 1.415 . S
C1192 H1168 0.950 . S
C1192 C1187 1.363 . S
C1192 C1191 1.415 . S
C1193 H1169 0.951 . S
C1193 C1194 1.366 . S
C1193 C1195 1.388 . S
C1194 C1193 1.366 . S
C1194 C1198 1.385 . S
C1195 H1170 0.951 . S
C1195 C1193 1.388 . S
C1195 C1196 1.366 . S
C1196 C1195 1.366 . S
C1196 C1197 1.414 . S
C1196 C1199 1.499 . S
C1197 H1171 0.950 . S
C1197 C1196 1.414 . S
C1197 C1198 1.374 . S
C1198 H1172 0.950 . S
C1198 C1194 1.385 . S
C1198 C1197 1.374 . S
C1199 C1196 1.499 . S
C1199 C1200 1.373 . S
C1199 C1201 1.389 . S
C1200 H1173 0.950 . S
C1200 C1186 1.377 . S
C1200 C1199 1.373 . S
C1201 C1185 1.377 . S
C1201 C1199 1.389 . S
C1201 C1202 1.524 . S
C1202 C1201 1.524 . S
C1202 C1203 1.397 . S
C1202 C1207 1.363 . S
C1203 H1174 0.950 . S
C1203 C1202 1.397 . S
C1203 C1204 1.334 . S
C1204 H1175 0.950 . S
C1204 C1203 1.334 . S
C1204 C1205 1.287 . S
C1205 C1204 1.287 . S
C1205 C1206 1.524 . S
C1205 H1208 0.999 . S
C1206 H1176 0.950 . S
C1206 C1205 1.524 . S
C1206 C1207 1.415 . S
C1207 H1177 0.950 . S
C1207 C1202 1.363 . S
C1207 C1206 1.415 . S
H1208 C1205 0.999 . S
H1209 C1190 0.913 . S
H1210 C1228 0.951 . S
H1211 C1230 0.951 . S
H1212 C1232 0.950 . S
H1213 C1233 0.950 . S
H1214 C1235 0.950 . S
H1215 C1238 0.950 . S
H1216 C1239 0.950 . S
H1217 C1241 0.950 . S
H1218 C1242 0.950 . S
H1219 C1243 0.951 . S
H1220 C1245 0.951 . S
H1221 C1247 0.950 . S
H1222 C1248 0.950 . S
H1223 C1250 0.950 . S
H1224 C1253 0.950 . S
H1225 C1254 0.950 . S
H1226 C1256 0.950 . S
H1227 C1257 0.950 . S
C1228 H1210 0.951 . S
C1228 C1229 1.366 . S
C1228 C1230 1.388 . S
C1229 C1228 1.366 . S
C1229 C1233 1.385 . S
C1230 H1211 0.951 . S
C1230 C1228 1.388 . S
C1230 C1231 1.366 . S
C1231 C1230 1.366 . S
C1231 C1232 1.414 . S
C1231 C1234 1.499 . S
C1232 H1212 0.950 . S
C1232 C1231 1.414 . S
C1232 C1233 1.374 . S
C1233 H1213 0.950 . S
C1233 C1229 1.385 . S
C1233 C1232 1.374 . S
C1234 C1231 1.499 . S
C1234 C1235 1.373 . S
C1234 C1236 1.389 . S
C1235 H1214 0.950 . S
C1235 C1234 1.373 . S
C1235 C1251 1.377 . S
C1236 C1234 1.389 . S
C1236 C1237 1.524 . S
C1236 C1250 1.377 . S
C1237 C1236 1.524 . S
C1237 C1238 1.397 . S
C1237 C1242 1.363 . S
C1238 H1215 0.950 . S
C1238 C1237 1.397 . S
C1238 C1239 1.334 . S
C1239 H1216 0.950 . S
C1239 C1238 1.334 . S
C1239 C1240 1.287 . S
C1240 C1239 1.287 . S
C1240 C1241 1.524 . S
C1240 H1259 0.913 . S
C1241 H1217 0.950 . S
C1241 C1240 1.524 . S
C1241 C1242 1.415 . S
C1242 H1218 0.950 . S
C1242 C1237 1.363 . S
C1242 C1241 1.415 . S
C1243 H1219 0.951 . S
C1243 C1244 1.366 . S
C1243 C1245 1.388 . S
C1244 C1243 1.366 . S
C1244 C1248 1.385 . S
C1245 H1220 0.951 . S
C1245 C1243 1.388 . S
C1245 C1246 1.366 . S
C1246 C1245 1.366 . S
C1246 C1247 1.414 . S
C1246 C1249 1.499 . S
C1247 H1221 0.950 . S
C1247 C1246 1.414 . S
C1247 C1248 1.374 . S
C1248 H1222 0.950 . S
C1248 C1244 1.385 . S
C1248 C1247 1.374 . S
C1249 C1246 1.499 . S
C1249 C1250 1.373 . S
C1249 C1251 1.389 . S
C1250 H1223 0.950 . S
C1250 C1236 1.377 . S
C1250 C1249 1.373 . S
C1251 C1235 1.377 . S
C1251 C1249 1.389 . S
C1251 C1252 1.524 . S
C1252 C1251 1.524 . S
C1252 C1253 1.397 . S
C1252 C1257 1.363 . S
C1253 H1224 0.950 . S
C1253 C1252 1.397 . S
C1253 C1254 1.334 . S
C1254 H1225 0.950 . S
C1254 C1253 1.334 . S
C1254 C1255 1.287 . S
C1255 C1254 1.287 . S
C1255 C1256 1.524 . S
C1255 H1258 0.999 . S
C1256 H1226 0.950 . S
C1256 C1255 1.524 . S
C1256 C1257 1.415 . S
C1257 H1227 0.950 . S
C1257 C1252 1.363 . S
C1257 C1256 1.415 . S
H1258 C1255 0.999 . S
H1259 C1240 0.913 . S
H1260 C1278 0.951 . S
H1261 C1280 0.951 . S
H1262 C1282 0.950 . S
H1263 C1283 0.950 . S
H1264 C1285 0.950 . S
H1265 C1288 0.950 . S
H1266 C1289 0.950 . S
H1267 C1291 0.950 . S
H1268 C1292 0.950 . S
H1269 C1293 0.951 . S
H1270 C1295 0.951 . S
H1271 C1297 0.950 . S
H1272 C1298 0.950 . S
H1273 C1300 0.950 . S
H1274 C1303 0.950 . S
H1275 C1304 0.950 . S
H1276 C1306 0.950 . S
H1277 C1307 0.950 . S
C1278 H1260 0.951 . S
C1278 C1279 1.366 . S
C1278 C1280 1.388 . S
C1279 C1278 1.366 . S
C1279 C1283 1.385 . S
C1280 H1261 0.951 . S
C1280 C1278 1.388 . S
C1280 C1281 1.366 . S
C1281 C1280 1.366 . S
C1281 C1282 1.414 . S
C1281 C1284 1.499 . S
C1282 H1262 0.950 . S
C1282 C1281 1.414 . S
C1282 C1283 1.374 . S
C1283 H1263 0.950 . S
C1283 C1279 1.385 . S
C1283 C1282 1.374 . S
C1284 C1281 1.499 . S
C1284 C1285 1.373 . S
C1284 C1286 1.389 . S
C1285 H1264 0.950 . S
C1285 C1284 1.373 . S
C1285 C1301 1.377 . S
C1286 C1284 1.389 . S
C1286 C1287 1.524 . S
C1286 C1300 1.377 . S
C1287 C1286 1.524 . S
C1287 C1288 1.397 . S
C1287 C1292 1.363 . S
C1288 H1265 0.950 . S
C1288 C1287 1.397 . S
C1288 C1289 1.334 . S
C1289 H1266 0.950 . S
C1289 C1288 1.334 . S
C1289 C1290 1.287 . S
C1290 C1289 1.287 . S
C1290 C1291 1.524 . S
C1290 H1309 0.913 . S
C1291 H1267 0.950 . S
C1291 C1290 1.524 . S
C1291 C1292 1.415 . S
C1292 H1268 0.950 . S
C1292 C1287 1.363 . S
C1292 C1291 1.415 . S
C1293 H1269 0.951 . S
C1293 C1294 1.366 . S
C1293 C1295 1.388 . S
C1294 C1293 1.366 . S
C1294 C1298 1.385 . S
C1295 H1270 0.951 . S
C1295 C1293 1.388 . S
C1295 C1296 1.366 . S
C1296 C1295 1.366 . S
C1296 C1297 1.414 . S
C1296 C1299 1.499 . S
C1297 H1271 0.950 . S
C1297 C1296 1.414 . S
C1297 C1298 1.374 . S
C1298 H1272 0.950 . S
C1298 C1294 1.385 . S
C1298 C1297 1.374 . S
C1299 C1296 1.499 . S
C1299 C1300 1.373 . S
C1299 C1301 1.389 . S
C1300 H1273 0.950 . S
C1300 C1286 1.377 . S
C1300 C1299 1.373 . S
C1301 C1285 1.377 . S
C1301 C1299 1.389 . S
C1301 C1302 1.524 . S
C1302 C1301 1.524 . S
C1302 C1303 1.397 . S
C1302 C1307 1.363 . S
C1303 H1274 0.950 . S
C1303 C1302 1.397 . S
C1303 C1304 1.334 . S
C1304 H1275 0.950 . S
C1304 C1303 1.334 . S
C1304 C1305 1.287 . S
C1305 C1304 1.287 . S
C1305 C1306 1.524 . S
C1305 H1308 0.999 . S
C1306 H1276 0.950 . S
C1306 C1305 1.524 . S
C1306 C1307 1.415 . S
C1307 H1277 0.950 . S
C1307 C1302 1.363 . S
C1307 C1306 1.415 . S
H1308 C1305 0.999 . S
H1309 C1290 0.913 . S
H1310 C1328 0.943 1_556 S
H1311 C1330 0.951 . S
H1312 C1332 0.950 . S
H1313 C1333 0.950 . S
H1314 C1335 0.950 1_554 S
H1315 C1338 0.950 . S
H1316 C1339 0.950 . S
H1317 C1341 0.950 . S
H1318 C1342 0.950 . S
H1319 C1343 0.951 . S
H1320 C1345 0.951 . S
H1321 C1347 0.950 . S
H1322 C1348 0.950 . S
H1323 C1350 0.950 . S
H1324 C1353 0.950 . S
H1325 C1354 0.950 . S
H1326 C1356 0.950 . S
H1327 C1357 0.950 . S
C1328 H1310 0.943 1_554 S
C1328 C1329 1.391 . S
C1328 C1330 1.372 1_554 S
C1329 C1328 1.391 . S
C1329 C1333 1.385 . S
C1330 H1311 0.951 . S
C1330 C1328 1.372 1_556 S
C1330 C1331 1.366 . S
C1331 C1330 1.366 . S
C1331 C1332 1.414 1_556 S
C1331 C1334 1.499 . S
C1332 H1312 0.950 . S
C1332 C1331 1.414 1_554 S
C1332 C1333 1.374 . S
C1333 H1313 0.950 . S
C1333 C1329 1.385 . S
C1333 C1332 1.374 . S
C1334 C1331 1.499 . S
C1334 C1335 1.373 . S
C1334 C1336 1.389 . S
C1335 H1314 0.950 1_556 S
C1335 C1334 1.373 . S
C1335 C1351 1.377 . S
C1336 C1334 1.389 . S
C1336 C1337 1.524 . S
C1336 C1350 1.377 . S
C1337 C1336 1.524 . S
C1337 C1338 1.397 . S
C1337 C1342 1.363 . S
C1338 H1315 0.950 . S
C1338 C1337 1.397 . S
C1338 C1339 1.334 . S
C1339 H1316 0.950 . S
C1339 C1338 1.334 . S
C1339 C1340 1.287 . S
C1340 C1339 1.287 . S
C1340 C1341 1.524 . S
C1340 H1359 0.913 . S
C1341 H1317 0.950 . S
C1341 C1340 1.524 . S
C1341 C1342 1.415 . S
C1342 H1318 0.950 . S
C1342 C1337 1.363 . S
C1342 C1341 1.415 . S
C1343 H1319 0.951 . S
C1343 C1344 1.366 . S
C1343 C1345 1.388 . S
C1344 C1343 1.366 . S
C1344 C1348 1.385 . S
C1345 H1320 0.951 . S
C1345 C1343 1.388 . S
C1345 C1346 1.366 . S
C1346 C1345 1.366 . S
C1346 C1347 1.414 . S
C1346 C1349 1.499 . S
C1347 H1321 0.950 . S
C1347 C1346 1.414 . S
C1347 C1348 1.374 . S
C1348 H1322 0.950 . S
C1348 C1344 1.385 . S
C1348 C1347 1.374 . S
C1349 C1346 1.499 . S
C1349 C1350 1.373 . S
C1349 C1351 1.389 . S
C1350 H1323 0.950 . S
C1350 C1336 1.377 . S
C1350 C1349 1.373 . S
C1351 C1335 1.377 . S
C1351 C1349 1.389 . S
C1351 C1352 1.524 . S
C1352 C1351 1.524 . S
C1352 C1353 1.397 . S
C1352 C1357 1.363 1_556 S
C1353 H1324 0.950 . S
C1353 C1352 1.397 . S
C1353 C1354 1.334 1_556 S
C1354 H1325 0.950 . S
C1354 C1353 1.334 1_554 S
C1354 C1355 1.287 . S
C1355 C1354 1.287 . S
C1355 C1356 1.524 . S
C1355 H1358 0.999 . S
C1356 H1326 0.950 . S
C1356 C1355 1.524 . S
C1356 C1357 1.415 . S
C1357 H1327 0.950 . S
C1357 C1352 1.363 1_554 S
C1357 C1356 1.415 . S
H1358 C1355 0.999 . S
H1359 C1340 0.913 . S
C179 C7 1.310 . S
C194 C93 1.304 . S
C229 C37 1.100 . S
C244 C101 1.086 . S
C279 C54 1.249 . S
C294 C110 1.219 . S
C344 C120 1.310 . S
C329 C87 1.306 . S
C394 C129 1.259 . S
C379 C30 1.274 . S
C429 C51 1.320 . S
C444 C138 1.323 . S
C479 C84 1.287 . S
C494 C146 1.253 . S
C529 C10 1.068 1_556 S
C544 C156 1.050 . S
C579 C59 1.327 . S
C594 C155 1.327 . S
C644 C128 1.051 . S
C629 C74 1.064 . S
C694 C137 1.258 . S
C679 C18 1.289 . S
C729 C32 1.294 . S
C744 C147 1.295 . S
C794 C102 1.313 . S
C779 C73 1.319 . S
C829 C15 1.302 . S
C844 C111 1.316 . S
C894 C119 1.288 . S
C879 C43 1.304 . S
C944 C92 1.055 . S
C929 C62 1.069 . S
C994 C149 1.320 . S
C979 C21 1.341 . S
C1044 C158 1.201 . S
C1029 C29 1.206 . S
C1079 C52 1.166 . S
C1094 C131 1.155 . S
C1144 C140 1.308 . S
C1129 C81 1.329 . S
C1194 C113 1.285 . S
C1179 C40 1.304 . S
C1229 C65 1.324 . S
C1244 C122 1.303 . S
C1294 C95 1.166 . S
C1279 C76 1.177 . S
C1344 C104 1.196 . S
C1329 C8 1.213 . S
