# Generated by pormake.
# Topology pyr, (3,6)-cn, num edge types: 1
# Building blocks:
#     Node 0, Type 0, BuildingBlock: VETTIZ_charged_linker_0, # of connection points: 3
#     Node 1, Type 0, BuildingBlock: VETTIZ_charged_linker_0, # of connection points: 3
#     Node 2, Type 0, BuildingBlock: VETTIZ_charged_linker_0, # of connection points: 3
#     Node 3, Type 0, BuildingBlock: VETTIZ_charged_linker_0, # of connection points: 3
#     Node 4, Type 0, BuildingBlock: VETTIZ_charged_linker_0, # of connection points: 3
#     Node 5, Type 0, BuildingBlock: VETTIZ_charged_linker_0, # of connection points: 3
#     Node 6, Type 0, BuildingBlock: VETTIZ_charged_linker_0, # of connection points: 3
#     Node 7, Type 0, BuildingBlock: VETTIZ_charged_linker_0, # of connection points: 3
#     Node 8, Type 1, BuildingBlock: JUFBIX_clean_sbu_0, # of connection points: 6
#     Node 9, Type 1, BuildingBlock: JUFBIX_clean_sbu_0, # of connection points: 6
#     Node 10, Type 1, BuildingBlock: JUFBIX_clean_sbu_0, # of connection points: 6
#     Node 11, Type 1, BuildingBlock: JUFBIX_clean_sbu_0, # of connection points: 6
#     Edge 12, Type (0, 1), None
#     Edge 13, Type (0, 1), None
#     Edge 14, Type (0, 1), None
#     Edge 15, Type (0, 1), None
#     Edge 16, Type (0, 1), None
#     Edge 17, Type (0, 1), None
#     Edge 18, Type (0, 1), None
#     Edge 19, Type (0, 1), None
#     Edge 20, Type (0, 1), None
#     Edge 21, Type (0, 1), None
#     Edge 22, Type (0, 1), None
#     Edge 23, Type (0, 1), None
#     Edge 24, Type (0, 1), None
#     Edge 25, Type (0, 1), None
#     Edge 26, Type (0, 1), None
#     Edge 27, Type (0, 1), None
#     Edge 28, Type (0, 1), None
#     Edge 29, Type (0, 1), None
#     Edge 30, Type (0, 1), None
#     Edge 31, Type (0, 1), None
#     Edge 32, Type (0, 1), None
#     Edge 33, Type (0, 1), None
#     Edge 34, Type (0, 1), None
#     Edge 35, Type (0, 1), None
# Relax obj value: 0.115
# Max RMSD: 0.116
# Mean RMSD: 0.044
data_MOF--net-pry--node1-JUFBIX_clean_sbu_0--node2-VETTIZ_charged_linker_0--edge1-none
_symmetry_space_group_name_H-M    P1
_symmetry_Int_Tables_number       1
_symmetry_cell_setting            triclinic
loop_
_symmetry_equiv_pos_as_xyz
'x, y, z'
_cell_length_a     24.638659
_cell_length_b     23.44346
_cell_length_c     24.979192
_cell_angle_alpha  83.110853
_cell_angle_beta   89.821601
_cell_angle_gamma 91.087446
loop_
_atom_site_label
_atom_site_type_symbol
_atom_site_fract_x
_atom_site_fract_y
_atom_site_fract_z
_atom_type_partial_charge
C0 C 0.15045 0.04436 0.35473 0.0
C1 C 0.09899 0.05896 0.37567 0.0
C2 C 0.06871 0.1006 0.3442 0.0
C3 C 0.13947 0.11452 0.27491 0.0
C4 C 0.16926 0.0718 0.30334 0.0
C5 C 0.22082 0.061 0.27154 0.0
H6 H 0.37245 0.12671 0.0338 0.0
C7 C 0.16935 0.13689 0.22434 0.0
C8 C 0.21692 0.10493 0.22035 0.0
H9 H 0.41261 1.0028 0.16892 0.0
H10 H 0.33162 0.02716 0.21692 0.0
H11 H 0.34285 0.22345 0.11247 0.0
H12 H 0.23771 0.10882 0.0351 0.0
H13 H 0.21318 0.17957 1.02445 0.0
H14 H 0.27857 0.16432 0.99773 0.0
H15 H 0.33226 0.23262 0.04089 0.0
H16 H 0.28621 0.26161 0.08645 0.0
C17 C 0.27069 0.07341 0.30563 0.0
C18 C 0.21838 0.99869 0.25783 0.0
C19 C 0.09518 0.3163 0.11603 0.0
C20 C 0.11054 0.35007 0.06782 0.0
C21 C 0.15464 0.33142 0.0383 0.0
C22 C 0.18365 0.28154 0.05738 0.0
C23 C 0.16859 0.24912 0.10663 0.0
C24 C 0.12418 0.26645 0.13419 0.0
C25 C 0.11143 0.22608 0.18406 0.0
C26 C 0.15752 0.18359 0.18443 0.0
C27 C 0.19121 0.19663 0.13887 0.0
C28 C 0.11422 0.26117 0.2329 0.0
C29 C 0.05529 0.19708 0.17567 0.0
C30 C 0.36341 0.10391 0.07321 0.0
C31 C 0.39923 0.06141 0.09644 0.0
C32 C 0.38605 0.03502 0.14918 0.0
C33 C 0.33869 0.0491 0.17722 0.0
C34 C 0.30336 0.09146 0.15353 0.0
C35 C 0.31693 0.11886 0.10257 0.0
C36 C 0.27839 0.16707 0.08557 0.0
C37 C 0.23809 0.16247 0.13264 0.0
C38 C 0.25198 0.11735 0.17315 0.0
C39 C 0.31132 0.22439 0.08059 0.0
C40 C 0.25051 0.15483 0.0327 0.0
H41 H 0.06329 0.16077 0.27515 0.0
H42 H 0.17489 0.01207 0.37735 0.0
H43 H 0.17903 0.98983 0.23845 0.0
H44 H 0.25067 0.99005 0.2294 0.0
H45 H 0.22211 0.96777 0.29494 0.0
H46 H 0.26723 0.11608 0.32045 0.0
H47 H 0.27408 0.04036 0.34122 0.0
H48 H 0.30883 0.0746 0.28224 0.0
H49 H 0.06119 0.32849 0.13952 0.0
H50 H 0.16768 0.35627 1.00097 0.0
H51 H 0.21699 0.27025 0.03317 0.0
H52 H 0.14928 0.29204 0.22863 0.0
H53 H 0.07679 0.28629 0.23599 0.0
H54 H 0.12056 0.23452 0.27174 0.0
H55 H 0.04454 0.19908 0.13225 0.0
H56 H 0.05468 0.1505 0.19022 0.0
H57 H 1.02227 0.21817 0.19588 0.0
H58 H 1.02975 0.11336 0.35858 0.0
C59 C 0.08857 0.12841 0.29509 0.0
C60 C 0.30393 0.95316 0.52135 0.0
C61 C 0.29165 0.00839 0.53457 0.0
C62 C 0.33385 0.04992 0.53484 0.0
C63 C 0.39775 0.97422 0.53585 0.0
C64 C 0.35839 0.93711 0.5212 0.0
C65 C 0.38133 0.87836 0.51759 0.0
H66 H 0.55004 0.6753 0.62695 0.0
C67 C 0.44181 0.94026 0.5606 0.0
C68 C 0.43603 0.88481 0.54561 0.0
H69 H 0.45229 0.67219 0.48398 0.0
H70 H 0.43126 0.77293 0.48567 0.0
H71 H 0.60414 0.81002 0.5927 0.0
H72 H 0.48199 0.72859 0.69453 0.0
H73 H 0.47837 0.79935 0.71178 0.0
H74 H 0.53965 0.75899 0.72386 0.0
H75 H 0.60972 0.7598 0.65278 0.0
H76 H 0.60517 0.83571 0.65694 0.0
C77 C 0.38782 0.87035 0.45708 0.0
C78 C 0.34439 0.83152 0.5488 0.0
C79 C 0.4807 0.98861 0.74722 0.0
C80 C 0.5033 0.95718 0.79215 0.0
C81 C 0.53553 0.90949 0.78538 0.0
C82 C 0.54037 0.89034 0.73428 0.0
C83 C 0.51211 0.91893 0.69049 0.0
C84 C 0.48521 0.96886 0.69694 0.0
C85 C 0.45371 0.99149 0.64822 0.0
C86 C 0.46778 0.94768 0.60994 0.0
C87 C 0.49903 0.90321 0.63636 0.0
C88 C 0.47382 0.05352 0.62823 0.0
C89 C 0.39279 0.98804 0.66505 0.0
C90 C 0.52314 0.69622 0.59681 0.0
C91 C 0.50143 0.66615 0.55609 0.0
C92 C 0.46788 0.69452 0.51644 0.0
C93 C 0.45557 0.75237 0.51742 0.0
C94 C 0.47541 0.78121 0.55944 0.0
C95 C 0.50933 0.75395 0.59785 0.0
C96 C 0.52776 0.79353 0.63805 0.0
C97 C 0.50083 0.8494 0.61542 0.0
C98 C 0.46955 0.84085 0.57008 0.0
C99 C 0.5902 0.80011 0.63527 0.0
C100 C 0.50605 0.76915 0.69495 0.0
H101 H 0.42036 0.06369 0.53696 0.0
H102 H 0.27203 0.92164 0.51759 0.0
H103 H 0.33771 0.84099 0.59087 0.0
H104 H 0.36205 0.78838 0.55077 0.0
H105 H 0.30435 0.82898 0.52886 0.0
H106 H 0.3709 0.90663 0.42978 0.0
H107 H 0.36602 0.83107 0.44719 0.0
H108 H 0.43123 0.8676 0.44559 0.0
H109 H 0.45681 0.02595 0.75214 0.0
H110 H 0.5542 0.88542 0.81998 0.0
H111 H 0.56398 0.85301 0.73081 0.0
H112 H 0.49902 0.07257 0.65866 0.0
H113 H 0.43933 0.08299 0.61996 0.0
H114 H 0.49929 0.0547 0.59127 0.0
H115 H 0.38115 0.94363 0.68269 0.0
H116 H 0.36483 0.9999 0.63176 0.0
H117 H 0.38418 0.01768 0.69537 0.0
H118 H 0.32508 0.09385 0.54056 0.0
C119 C 0.38792 0.03281 0.5343 0.0
C120 C 0.6425 0.19481 0.98935 0.0
C121 C 0.59593 0.16701 0.97068 0.0
C122 C 0.56878 0.19374 0.92526 0.0
C123 C 0.63543 0.27194 0.91524 0.0
C124 C 0.6617 0.24712 0.96069 0.0
C125 C 0.71131 0.28253 0.97291 0.0
H126 H 0.89643 0.49733 0.89609 0.0
C127 C 0.66691 0.32386 0.89237 0.0
C128 C 0.71174 0.33064 0.92557 0.0
H129 H 0.88597 0.38612 0.04695 0.0
H130 H 0.80366 0.34247 1.01739 0.0
H131 H 0.75586 0.52435 0.89191 0.0
H132 H 0.84562 0.40089 0.8112 0.0
H133 H 0.80495 0.44853 0.76811 0.0
H134 H 0.86319 0.47629 0.80034 0.0
H135 H 0.81193 0.54747 0.84768 0.0
H136 H 0.74711 0.52992 0.82074 0.0
C137 C 0.70186 0.30592 1.02762 0.0
C138 C 0.76165 0.24427 0.97193 0.0
C139 C 0.59619 0.42856 0.71809 0.0
C140 C 0.61616 0.47173 0.67896 0.0
C141 C 0.66746 0.49726 0.68889 0.0
C142 C 0.69736 0.48026 0.73675 0.0
C143 C 0.67666 0.43629 0.77535 0.0
C144 C 0.62698 0.41118 0.76453 0.0
C145 C 0.61247 0.36138 0.80532 0.0
C146 C 0.6595 0.36183 0.84436 0.0
C147 C 0.69798 0.40593 0.8279 0.0
C148 C 0.55795 0.37478 0.83211 0.0
C149 C 0.61147 0.30646 0.77585 0.0
C150 C 0.87634 0.46341 0.92258 0.0
C151 C 0.89892 0.44481 0.9742 0.0
C152 C 0.87034 0.40143 1.00744 0.0
C153 C 0.82229 0.37591 0.99003 0.0
C154 C 0.80064 0.3942 0.9388 0.0
C155 C 0.8265 0.43849 0.90625 0.0
C156 C 0.79377 0.45484 0.85483 0.0
C157 C 0.74478 0.41282 0.86192 0.0
C158 C 0.75042 0.3763 0.91109 0.0
C159 C 0.77619 0.51769 0.8534 0.0
C160 C 0.82871 0.44485 0.80571 0.0
H161 H 0.56461 0.26313 0.86394 0.0
H162 H 0.66425 0.17557 1.02434 0.0
H163 H 0.76154 0.2219 0.93509 0.0
H164 H 0.80029 0.26886 0.97112 0.0
H165 H 0.7618 0.21099 1.00757 0.0
H166 H 0.65788 0.30758 0.03744 0.0
H167 H 0.72133 0.27852 0.06127 0.0
H168 H 0.71689 0.35081 1.0272 0.0
H169 H 0.55816 0.40648 0.71164 0.0
H170 H 0.68474 0.53026 0.65934 0.0
H171 H 0.73599 0.501 0.74161 0.0
H172 H 0.55539 0.42136 0.83644 0.0
H173 H 0.52277 0.36324 0.80758 0.0
H174 H 0.55311 0.3529 0.87362 0.0
H175 H 0.63734 0.31182 0.7389 0.0
H176 H 0.62846 0.26867 0.8005 0.0
H177 H 0.5697 0.29568 0.76323 0.0
H178 H 0.53261 0.17407 0.9103 0.0
C179 C 0.58781 0.24579 0.89799 0.0
C180 C 0.05811 0.81621 0.47011 0.0
C181 C 0.0508 0.83995 0.51897 0.0
C182 C 1.03787 0.80365 0.56659 0.0
C183 C 1.02731 0.72454 0.51455 0.0
C184 C 0.04771 0.75711 0.46943 0.0
C185 C 0.05192 0.72141 0.42283 0.0
H186 H 0.97689 0.472 0.32563 0.0
C187 C 1.00983 0.66899 0.50048 0.0
C188 C 1.02768 0.66369 0.44818 0.0
H189 H 0.05727 0.62085 0.23877 0.0
H190 H 0.06733 0.66293 0.32175 0.0
H191 H 1.03713 0.46807 0.45103 0.0
H192 H 0.8837 0.55298 0.41467 0.0
H193 H 0.88791 0.47498 0.42791 0.0
H194 H 0.89978 0.51055 0.36354 0.0
H195 H 0.98235 0.42822 0.42434 0.0
H196 H 0.97658 0.45253 0.48972 0.0
C197 C 0.11245 0.71682 0.40821 0.0
C198 C 1.01692 0.7497 0.37607 0.0
C199 C 0.81789 0.61144 0.53172 0.0
C200 C 0.78958 0.56319 0.51684 0.0
C201 C 0.81702 0.51093 0.51688 0.0
C202 C 0.87373 0.51021 0.5212 0.0
C203 C 0.90155 0.56241 0.52296 0.0
C204 C 0.87448 0.60958 0.53605 0.0
C205 C 0.9133 0.65807 0.54392 0.0
C206 C 0.96597 0.63467 0.52263 0.0
C207 C 0.95609 0.58117 0.50424 0.0
C208 C 0.91519 0.66486 0.60457 0.0
C209 C 0.89525 0.71423 0.51017 0.0
C210 C 0.99649 0.51378 0.32373 0.0
C211 C 1.01445 0.54328 0.27451 0.0
C212 C 0.0417 0.5969 0.27542 0.0
C213 C 0.04721 0.62176 0.32379 0.0
C214 C 1.02358 0.59395 0.37145 0.0
C215 C 0.99885 0.54068 0.37067 0.0
C216 C 0.96804 0.52081 0.42157 0.0
C217 C 0.98052 0.57003 0.45476 0.0
C218 C 1.01394 0.61246 0.42532 0.0
C219 C 0.99218 0.46412 0.44817 0.0
C220 C 0.90686 0.51465 0.40676 0.0
H221 H 1.01767 0.71716 0.6011 0.0
H222 H 0.0696 0.84323 0.43344 0.0
H223 H 0.97702 0.76224 0.39155 0.0
H224 H 1.00742 0.72081 0.34559 0.0
H225 H 1.0374 0.78905 0.35564 0.0
H226 H 0.13738 0.70906 0.44534 0.0
H227 H 0.12769 0.75719 0.38464 0.0
H228 H 0.12031 0.68044 0.38524 0.0
H229 H 0.79653 0.6505 0.53611 0.0
H230 H 0.79541 0.47232 0.50867 0.0
H231 H 0.89486 0.47094 0.51812 0.0
H232 H 0.87388 0.65988 0.62281 0.0
H233 H 0.92958 0.70834 0.61156 0.0
H234 H 0.94153 0.63211 0.62673 0.0
H235 H 0.89289 0.7085 0.46668 0.0
H236 H 0.92362 0.75053 0.51462 0.0
H237 H 0.85499 0.72762 0.52368 0.0
H238 H 1.03392 0.82106 0.60467 0.0
C239 C 1.02674 0.74522 0.56459 0.0
C240 C 0.9433 0.69557 0.99773 0.0
C241 C 0.99117 0.67042 0.98003 0.0
C242 C 1.02025 0.7005 0.93643 0.0
C243 C 0.95253 0.77474 0.9247 0.0
C244 C 0.92477 0.74794 0.96926 0.0
C245 C 0.87479 0.78186 0.98061 0.0
H246 H 0.69325 0.99339 0.90068 0.0
C247 C 0.92124 0.82512 0.90059 0.0
C248 C 0.87533 0.83005 0.93303 0.0
H249 H 0.69999 0.88543 0.05321 0.0
H250 H 0.78092 0.84097 1.02394 0.0
H251 H 0.74068 0.89301 0.81965 0.0
H252 H 0.83291 0.02269 0.89358 0.0
H253 H 0.84188 0.02552 0.82254 0.0
H254 H 0.77718 0.04237 0.84915 0.0
H255 H 0.72573 0.96807 0.8047 0.0
H256 H 0.78298 0.93796 0.7741 0.0
C257 C 0.82421 0.74212 0.9794 0.0
C258 C 0.88303 0.80586 0.03526 0.0
C259 C 0.99242 0.92901 0.72237 0.0
C260 C 0.97102 0.96878 0.68167 0.0
C261 C 0.91899 0.99087 0.69141 0.0
C262 C 0.88976 0.97431 0.74028 0.0
C263 C 0.91156 0.93371 0.78036 0.0
C264 C 0.96193 0.91147 0.77 0.0
C265 C 0.97701 0.86406 0.81268 0.0
C266 C 0.92917 0.86247 0.85168 0.0
C267 C 0.89027 0.90397 0.83392 0.0
C268 C 0.98052 0.80785 0.78547 0.0
C269 C 1.03042 0.88253 0.8391 0.0
C270 C 0.7122 0.9601 0.9277 0.0
C271 C 0.68896 0.94282 0.97973 0.0
C272 C 0.71614 0.89994 1.01341 0.0
C273 C 0.76348 0.87403 0.99625 0.0
C274 C 0.78613 0.89154 0.94484 0.0
C275 C 0.76139 0.93495 0.91164 0.0
C276 C 0.79438 0.95016 0.85967 0.0
C277 C 0.84297 0.90967 0.86767 0.0
C278 C 0.83659 0.87401 0.91752 0.0
C279 C 0.75914 0.93689 0.81166 0.0
C280 C 0.81259 0.01375 0.85569 0.0
H281 H 1.0261 0.77123 0.87625 0.0
H282 H 0.92004 0.67416 0.03138 0.0
H283 H 0.92682 0.80975 0.04524 0.0
H284 H 0.86757 0.84997 0.03464 0.0
H285 H 0.86328 0.77755 0.06888 0.0
H286 H 0.82417 0.72063 0.94205 0.0
H287 H 0.82378 0.70819 1.01451 0.0
H288 H 0.78586 0.76564 0.97962 0.0
H289 H 1.031 0.90934 0.71613 0.0
H290 H 0.90061 0.02102 0.66082 0.0
H291 H 0.85066 0.99271 0.74473 0.0
H292 H 0.95537 0.80977 0.74838 0.0
H293 H 1.02288 0.79966 0.77359 0.0
H294 H 0.96422 0.76969 0.81126 0.0
H295 H 1.03115 0.9295 0.84224 0.0
H296 H 1.0352 0.86209 0.88101 0.0
H297 H 0.06642 0.87315 0.81498 0.0
H298 H 0.05753 0.68347 0.92221 0.0
C299 C 1.00162 0.7519 0.90924 0.0
C300 C 0.77413 0.06069 0.54426 0.0
C301 C 0.78639 1.00567 0.53047 0.0
C302 C 0.74453 0.96351 0.532 0.0
C303 C 0.68011 0.0385 0.53284 0.0
C304 C 0.7196 0.07607 0.54632 0.0
C305 C 0.69647 0.13472 0.54993 0.0
H306 H 0.5364 0.33969 0.43414 0.0
C307 C 0.63594 0.07207 0.50784 0.0
C308 C 0.64125 0.12758 0.52287 0.0
H309 H 0.62195 0.33913 0.5849 0.0
H310 H 0.63889 0.23686 0.58558 0.0
H311 H 0.4761 0.20867 0.46963 0.0
H312 H 0.60136 0.28339 0.36989 0.0
H313 H 0.60741 0.21153 0.35592 0.0
H314 H 0.54607 0.25049 0.3393 0.0
H315 H 0.47404 0.25648 0.40768 0.0
H316 H 0.47587 0.17979 0.407 0.0
C317 C 0.69146 0.1431 0.61043 0.0
C318 C 0.73257 0.18183 0.51801 0.0
C319 C 0.6034 0.02531 0.31944 0.0
C320 C 0.58139 0.05684 0.27431 0.0
C321 C 0.54816 0.10381 0.28067 0.0
C322 C 0.54159 0.12227 0.33182 0.0
C323 C 0.56927 0.09378 0.37601 0.0
C324 C 0.59705 0.04434 0.36986 0.0
C325 C 0.6278 0.02199 0.41913 0.0
C326 C 0.61151 0.06484 0.45765 0.0
C327 C 0.58068 0.10925 0.43052 0.0
C328 C 0.609 0.95927 0.43793 0.0
C329 C 0.68899 0.02744 0.40351 0.0
C330 C 0.56077 0.31796 0.46608 0.0
C331 C 0.58025 0.34734 0.50821 0.0
C332 C 0.6091 0.31754 0.55092 0.0
C333 C 0.61959 0.25911 0.55115 0.0
C334 C 0.60306 0.23127 0.50734 0.0
C335 C 0.57271 0.25958 0.46649 0.0
C336 C 0.55422 0.21981 0.42652 0.0
C337 C 0.57847 0.16314 0.45119 0.0
C338 C 0.608 0.17136 0.49769 0.0
C339 C 0.49157 0.216 0.42742 0.0
C340 C 0.5783 0.24213 0.37004 0.0
H341 H 0.65792 0.94888 0.53228 0.0
H342 H 0.80584 0.0927 0.54677 0.0
H343 H 0.73818 0.17268 0.4757 0.0
H344 H 0.71469 0.22484 0.51699 0.0
H345 H 0.77307 0.18455 0.53701 0.0
H346 H 0.71554 0.11142 0.63676 0.0
H347 H 0.70743 0.18584 0.61842 0.0
H348 H 0.64866 0.13813 0.6247 0.0
H349 H 0.62828 0.98865 0.31464 0.0
H350 H 0.52995 0.12784 0.24577 0.0
H351 H 0.51708 0.15897 0.33508 0.0
H352 H 0.58631 0.93954 0.40618 0.0
H353 H 0.6441 0.93103 0.44779 0.0
H354 H 0.58157 0.95698 0.47358 0.0
H355 H 0.69966 0.07214 0.38592 0.0
H356 H 0.71648 0.01682 0.43737 0.0
H357 H 0.69933 0.99796 0.37354 0.0
H358 H 0.75339 0.91968 0.52598 0.0
C359 C 0.69034 0.98002 0.53413 0.0
C360 C 0.48745 0.58506 0.34512 0.0
C361 C 0.46683 0.5418 0.38373 0.0
C362 C 0.41583 0.51624 0.3727 0.0
C363 C 0.4084 0.57736 0.28604 0.0
C364 C 0.45767 0.60252 0.2981 0.0
C365 C 0.47291 0.65264 0.25807 0.0
H366 H 0.42604 0.83983 0.03929 0.0
C367 C 0.3883 0.60797 0.23303 0.0
C368 C 0.42698 0.65224 0.21785 0.0
H369 H 0.5541 0.84115 0.15723 0.0
H370 H 0.52171 0.7514 0.20181 0.0
H371 H 0.32643 0.79201 0.12521 0.0
H372 H 0.43424 0.70897 1.0248 0.0
H373 H 0.376 0.66435 0.03354 0.0
H374 H 0.37073 0.73666 0.99971 0.0
H375 H 0.3286 0.80388 0.05277 0.0
H376 H 0.2894 0.74542 0.0873 0.0
C377 C 0.4726 0.70724 0.28802 0.0
C378 C 0.52826 0.63977 0.23259 0.0
C379 C 0.21296 0.5515 0.1327 0.0
C380 C 0.19196 0.57048 0.08046 0.0
C381 C 0.22165 0.61364 0.04811 0.0
C382 C 0.26919 0.63875 0.06705 0.0
C383 C 0.28915 0.62025 0.11896 0.0
C384 C 0.26233 0.57597 0.15061 0.0
C385 C 0.29348 0.55929 0.20301 0.0
C386 C 0.34259 0.60121 0.19757 0.0
C387 C 0.33833 0.63793 0.14834 0.0
C388 C 0.25709 0.56906 0.25117 0.0
C389 C 0.31112 0.49644 0.20481 0.0
C390 C 0.44687 0.82043 0.07481 0.0
C391 C 0.49251 0.84831 0.09513 0.0
C392 C 0.51858 0.82139 0.1411 0.0
C393 C 0.4993 0.76895 0.1673 0.0
C394 C 0.45247 0.74272 0.14841 0.0
C395 C 0.42735 0.76779 0.10241 0.0
C396 C 0.37852 0.73228 0.08834 0.0
C397 C 0.37706 0.68381 0.13531 0.0
C398 C 0.42076 0.69049 0.16989 0.0
C399 C 0.32782 0.77018 0.08808 0.0
C400 C 0.38998 0.70953 0.03368 0.0
H401 H 0.3485 0.51258 0.31835 0.0
H402 H 0.52523 0.6072 0.3524 0.0
H403 H 0.53138 0.59327 0.22813 0.0
H404 H 0.53401 0.66188 0.19127 0.0
H405 H 0.56266 0.65144 0.25804 0.0
H406 H 0.44596 0.70132 0.32443 0.0
H407 H 0.51395 0.71829 0.30161 0.0
H408 H 0.45572 0.74505 0.26329 0.0
H409 H 0.19193 0.51773 0.15855 0.0
H410 H 0.2072 0.6292 1.00819 0.0
H411 H 0.28873 0.67212 0.04033 0.0
H412 H 0.24062 0.6132 0.24558 0.0
H413 H 0.22229 0.53794 0.25514 0.0
H414 H 0.27967 0.56459 0.28949 0.0
H415 H 0.33308 0.48999 0.1671 0.0
H416 H 0.33877 0.48394 0.23868 0.0
H417 H 0.27525 0.46676 0.2089 0.0
H418 H 0.39806 0.48316 0.40185 0.0
C419 C 0.38695 0.5333 0.32415 0.0
C420 C 1.02016 0.2019 0.58614 0.0
C421 C 1.02723 0.17703 0.53787 0.0
C422 C 0.04164 0.21213 0.48995 0.0
C423 C 0.05373 0.29205 0.54072 0.0
C424 C 1.03209 0.2608 0.58599 0.0
C425 C 1.02872 0.29733 0.63201 0.0
H426 H 0.10932 0.54603 0.72672 0.0
C427 C 0.07222 0.34755 0.55408 0.0
C428 C 0.05421 0.35415 0.60601 0.0
H429 H 1.02785 0.39857 0.81478 0.0
H430 H 1.01519 0.35689 0.73205 0.0
H431 H 0.04761 0.54998 0.60092 0.0
H432 H 0.19989 0.46308 0.63829 0.0
H433 H 0.19679 0.54112 0.62353 0.0
H434 H 0.18486 0.50708 0.68838 0.0
H435 H 0.10273 0.58939 0.62755 0.0
H436 H 0.10842 0.56455 0.56239 0.0
C437 C 0.96834 0.30366 0.6464 0.0
C438 C 0.06317 0.26872 0.6791 0.0
C439 C 0.26522 0.40135 0.52647 0.0
C440 C 0.29352 0.44992 0.54082 0.0
C441 C 0.26667 0.50284 0.53782 0.0
C442 C 0.21018 0.50424 0.53148 0.0
C443 C 0.18196 0.45216 0.53069 0.0
C444 C 0.20884 0.40398 0.51996 0.0
C445 C 0.16958 0.35568 0.51257 0.0
C446 C 0.11676 0.38069 0.53183 0.0
C447 C 0.12705 0.43468 0.5491 0.0
C448 C 0.16887 0.34697 0.45235 0.0
C449 C 0.18609 0.30006 0.54813 0.0
C450 C 0.08897 0.50461 0.72891 0.0
C451 C 0.07171 0.47526 0.77843 0.0
C452 C 0.04321 0.42228 0.77793 0.0
C453 C 1.03617 0.39762 0.72968 0.0
C454 C 0.05963 0.42485 0.68172 0.0
C455 C 0.08531 0.4777 0.68204 0.0
C456 C 0.11608 0.49658 0.63089 0.0
C457 C 0.10269 0.44711 0.59822 0.0
C458 C 0.06867 0.4056 0.6281 0.0
C459 C 0.09258 0.55342 0.6039 0.0
C460 C 0.1774 0.50209 0.64542 0.0
H461 H 0.06467 0.29751 0.45441 0.0
H462 H 1.00783 0.1758 0.62306 0.0
H463 H 0.10229 0.25392 0.66376 0.0
H464 H 0.07441 0.29812 0.70862 0.0
H465 H 0.04142 0.23073 0.70061 0.0
H466 H 0.94357 0.31147 0.60917 0.0
H467 H 0.95222 0.26397 0.67045 0.0
H468 H 0.96131 0.34067 0.6688 0.0
H469 H 0.28622 0.36163 0.52417 0.0
H470 H 0.28827 0.54163 0.54551 0.0
H471 H 0.1893 0.54401 0.53283 0.0
H472 H 0.2107 0.3499 0.43524 0.0
H473 H 0.15328 0.30366 0.44624 0.0
H474 H 0.14407 0.38007 0.42862 0.0
H475 H 0.18772 0.30714 0.59134 0.0
H476 H 0.1572 0.26409 0.54408 0.0
H477 H 0.22637 0.28544 0.53591 0.0
H478 H 0.04564 0.19383 0.45232 0.0
C479 C 0.05435 0.27037 0.49115 0.0
Co480 Co 0.99795 0.00885 0.51131 0.0
C481 C 0.04961 0.9023 0.52 0.0
Co482 Co 0.07889 1.00789 0.54697 0.0
C483 C 0.88567 0.02177 0.5173 0.0
C484 C 0.90447 0.96546 0.45869 0.0
N485 N 0.92721 1.00289 0.4894 0.0
N486 N 0.83833 0.9959 0.50734 0.0
C487 C 0.84956 0.96116 0.46962 0.0
H488 H 0.8909 0.05024 0.54803 0.0
H489 H 0.92679 0.93965 0.4334 0.0
C490 C 1.02752 0.11452 0.53799 0.0
N491 N 0.14934 0.01379 0.56931 0.0
C492 C 0.19153 0.99531 0.54206 0.0
C493 C 0.17141 0.04925 0.60233 0.0
N494 N 0.23886 0.01923 0.55511 0.0
C495 C 0.22672 0.05259 0.5937 0.0
C496 C 0.07592 0.03496 0.43038 0.0
O497 O 0.98932 0.0885 0.51654 0.0
O498 O 0.06985 0.08744 0.55336 0.0
O499 O 0.10601 0.02807 0.47191 0.0
O500 O 1.02466 0.02834 0.43768 0.0
O501 O 0.08791 0.92849 0.54109 0.0
H502 H 0.14854 0.07395 0.6282 0.0
H503 H 0.18712 0.96799 0.51028 0.0
O504 O 1.00688 0.92908 0.50538 0.0
O505 O 0.97117 0.99024 0.58503 0.0
O506 O 0.05119 0.98774 0.62196 0.0
C507 C 0.99952 0.98315 0.62754 0.0
H508 H 0.82044 0.93376 0.45206 0.0
H509 H 0.25563 0.07806 0.61374 0.0
Co510 Co 0.52384 1.00239 0.99546 0.0
C511 C 0.51233 0.90611 0.07109 0.0
Co512 Co 0.56476 0.01286 0.07152 0.0
C513 C 0.52197 0.98145 0.88444 0.0
C514 C 0.44156 0.98721 0.916 0.0
N515 N 0.49444 0.99167 0.92917 0.0
N516 N 0.48853 0.97051 0.84457 0.0
C517 C 0.43784 0.97469 0.86369 0.0
H518 H 0.56567 0.98209 0.88041 0.0
H519 H 0.40779 0.9913 0.94291 0.0
C520 C 0.57627 0.10927 0.99544 0.0
N521 N 0.59389 0.02362 0.13753 0.0
C522 C 0.56566 0.02883 0.1831 0.0
C523 C 0.64594 0.03573 0.14933 0.0
N524 N 0.59776 0.04453 0.22212 0.0
C525 C 0.64848 0.04821 0.20177 0.0
C526 C 0.63714 0.96808 1.00006 0.0
O527 O 0.5468 0.07843 0.96798 0.0
O528 O 0.58907 0.08929 0.04322 0.0
O529 O 0.63368 0.98203 0.04779 0.0
O530 O 0.59441 0.97294 0.97137 0.0
O531 O 0.54103 0.93704 0.09916 0.0
H532 H 0.67949 0.03768 0.12111 0.0
H533 H 0.52228 0.02212 0.18788 0.0
O534 O 0.50033 0.926 1.02312 0.0
O535 O 0.45351 0.03229 1.02088 0.0
O536 O 0.49559 0.04237 0.09555 0.0
C537 C 0.45169 0.04611 0.06887 0.0
H538 H 0.40093 0.9678 0.84174 0.0
H539 H 0.68428 0.06095 0.22275 0.0
Co540 Co 0.57964 0.52349 0.51352 0.0
C541 C 0.49655 0.52717 0.43638 0.0
Co542 Co 0.50246 0.49015 0.54968 0.0
C543 C 0.69399 0.53032 0.50774 0.0
C544 C 0.65865 0.60396 0.46281 0.0
N545 N 0.64635 0.55141 0.48853 0.0
N546 N 0.735 0.56861 0.49741 0.0
C547 C 0.71333 0.61478 0.46843 0.0
H548 H 0.69766 0.4899 0.53331 0.0
H549 H 0.62916 0.63428 0.44535 0.0
C550 C 0.58584 0.48635 0.62664 0.0
N551 N 0.43555 0.46219 0.57438 0.0
C552 C 0.38832 0.4832 0.55399 0.0
C553 C 0.42289 0.4093 0.59917 0.0
N554 N 0.34737 0.44453 0.56238 0.0
C555 C 0.36851 0.39823 0.59165 0.0
C556 C 0.56504 0.40666 0.51211 0.0
O557 O 0.61145 0.50833 0.58481 0.0
O558 O 0.5353 0.47435 0.62172 0.0
O559 O 0.52078 0.4158 0.53509 0.0
O560 O 0.59815 0.44811 0.49868 0.0
O561 O 0.47081 0.50494 0.47803 0.0
H562 H 0.4521 0.37884 0.61692 0.0
H563 H 0.38518 0.5238 0.5286 0.0
O564 O 0.54691 0.53956 0.4417 0.0
O565 O 0.56142 0.59804 0.52865 0.0
O566 O 0.48375 0.56546 0.56419 0.0
C567 C 0.51692 0.607 0.55138 0.0
H568 H 0.73504 0.65434 0.45433 0.0
H569 H 0.3468 0.35833 0.60451 0.0
Co570 Co 0.06312 0.50845 0.98609 0.0
C571 C 0.95185 0.46889 0.99414 0.0
Co572 Co 1.0281 0.50816 0.06691 0.0
C573 C 0.06879 0.47802 0.87868 0.0
C574 C 0.11957 0.55114 0.8883 0.0
N575 N 0.08776 0.51055 0.91596 0.0
N576 N 0.08607 0.49749 0.82835 0.0
C577 C 0.1189 0.54312 0.83468 0.0
H578 H 1.0408 0.4422 0.88817 0.0
H579 H 0.13965 0.58605 0.90552 0.0
C580 C 0.13916 0.54734 0.05942 0.0
N581 N 1.00318 0.50623 0.13701 0.0
C582 C 1.02106 0.53916 0.17449 0.0
C583 C 0.97067 0.46595 0.16414 0.0
N584 N 1.00211 0.52036 0.22441 0.0
C585 C 0.96963 0.47463 0.21758 0.0
C586 C 0.08309 0.40595 0.05045 0.0
O587 O 0.13337 0.53894 1.01003 0.0
O588 O 0.09801 0.53799 0.09025 0.0
O589 O 0.05561 0.43075 0.0841 0.0
O590 O 0.0899 0.43177 1.00303 0.0
O591 O 0.95826 0.47693 0.04347 0.0
H592 H 0.95089 0.43102 0.14669 0.0
H593 H 0.04926 0.5749 0.16549 0.0
O594 O 0.99252 0.47912 0.96275 0.0
O595 O 1.03761 0.58437 0.96929 0.0
O596 O 1.00051 0.58673 0.0486 0.0
C597 C 1.01025 0.61136 1.00101 0.0
H598 H 0.14036 0.57002 0.80303 0.0
H599 H 0.94701 0.44827 0.24875 0.0
loop_
_geom_bond_atom_site_label_1
_geom_bond_atom_site_label_2
_geom_bond_distance
_geom_bond_site_symmetry_2
_ccdc_geom_bond_type
C0 C1 1.391 . S
C0 C4 1.391 . S
C0 H42 0.948 1_545 S
C1 C0 1.391 . S
C1 C2 1.391 . S
C2 C1 1.391 . S
C2 H58 0.947 1_455 S
C2 C59 1.392 . S
C3 C4 1.391 . S
C3 C7 1.397 . S
C3 C59 1.419 . S
C4 C0 1.391 . S
C4 C3 1.391 . S
C4 C5 1.399 . S
C5 C4 1.399 . S
C5 C8 1.396 . S
C5 C17 1.453 . S
C5 C18 1.684 1_545 S
H6 C30 0.948 1_556 S
C7 C3 1.397 . S
C7 C8 1.394 . S
C7 C26 1.723 . S
C8 C5 1.396 . S
C8 C7 1.394 . S
C8 C38 1.723 . S
H9 C32 0.947 . S
H10 C33 0.948 1_565 S
H11 C39 0.982 . S
H12 C40 0.979 . S
H13 C40 0.980 . S
H14 C40 0.983 . S
H15 C39 0.979 1_556 S
H16 C39 0.977 . S
C17 C5 1.453 . S
C17 H46 0.982 . S
C17 H47 0.979 1_545 S
C17 H48 0.977 . S
C18 C5 1.684 1_565 S
C18 H43 0.979 . S
C18 H44 0.980 . S
C18 H45 0.983 . S
C19 C20 1.391 . S
C19 C24 1.391 . S
C19 H49 0.948 1_455 S
C20 C19 1.391 . S
C20 C21 1.391 1_554 S
C21 C20 1.391 1_556 S
C21 C22 1.392 1_556 S
C21 H50 0.947 . S
C22 C21 1.392 1_554 S
C22 C23 1.419 . S
C22 H51 0.948 1_554 S
C23 C22 1.419 . S
C23 C24 1.391 . S
C23 C27 1.397 . S
C24 C19 1.391 . S
C24 C23 1.391 . S
C24 C25 1.399 . S
C25 C24 1.399 . S
C25 C26 1.396 . S
C25 C28 1.453 . S
C25 C29 1.684 1_455 S
C26 C7 1.723 . S
C26 C25 1.396 . S
C26 C27 1.394 . S
C27 C23 1.397 . S
C27 C26 1.394 . S
C27 C37 1.723 . S
C28 C25 1.453 . S
C28 H52 0.982 . S
C28 H53 0.979 . S
C28 H54 0.977 . S
C29 C25 1.684 1_655 S
C29 H55 0.979 . S
C29 H56 0.980 . S
C29 H57 0.983 . S
C30 H6 0.948 1_554 S
C30 C31 1.391 . S
C30 C35 1.391 . S
C31 C30 1.391 . S
C31 C32 1.391 1_545 S
C32 H9 0.947 . S
C32 C31 1.391 1_565 S
C32 C33 1.392 1_565 S
C33 H10 0.948 1_545 S
C33 C32 1.392 1_545 S
C33 C34 1.419 . S
C34 C33 1.419 . S
C34 C35 1.391 . S
C34 C38 1.397 . S
C35 C30 1.391 . S
C35 C34 1.391 . S
C35 C36 1.399 . S
C36 C35 1.399 . S
C36 C37 1.396 . S
C36 C39 1.453 . S
C36 C40 1.684 1_554 S
C37 C27 1.723 . S
C37 C36 1.396 . S
C37 C38 1.394 . S
C38 C8 1.723 . S
C38 C34 1.397 . S
C38 C37 1.394 . S
C39 H11 0.982 . S
C39 H15 0.979 1_554 S
C39 H16 0.977 . S
C39 C36 1.453 . S
C40 H12 0.979 . S
C40 H13 0.980 . S
C40 H14 0.983 . S
C40 C36 1.684 1_556 S
H41 C59 0.948 . S
H42 C0 0.948 1_565 S
H43 C18 0.979 . S
H44 C18 0.980 . S
H45 C18 0.983 . S
H46 C17 0.982 . S
H47 C17 0.979 1_565 S
H48 C17 0.977 . S
H49 C19 0.948 1_655 S
H50 C21 0.947 . S
H51 C22 0.948 1_556 S
H52 C28 0.982 . S
H53 C28 0.979 . S
H54 C28 0.977 . S
H55 C29 0.979 . S
H56 C29 0.980 . S
H57 C29 0.983 . S
H58 C2 0.947 1_655 S
C59 C2 1.392 . S
C59 C3 1.419 . S
C59 H41 0.948 . S
C60 C61 1.391 . S
C60 C64 1.391 . S
C60 H102 0.948 . S
C61 C60 1.391 . S
C61 C62 1.391 . S
C62 C61 1.391 . S
C62 H118 0.947 . S
C62 C119 1.392 . S
C63 C64 1.391 . S
C63 C67 1.397 . S
C63 C119 1.419 . S
C64 C60 1.391 . S
C64 C63 1.391 . S
C64 C65 1.399 . S
C65 C64 1.399 . S
C65 C68 1.396 . S
C65 C77 1.453 . S
C65 C78 1.684 . S
H66 C90 0.948 . S
C67 C63 1.397 . S
C67 C68 1.394 . S
C67 C86 1.723 . S
C68 C65 1.396 . S
C68 C67 1.394 . S
C68 C98 1.723 . S
H69 C92 0.947 . S
H70 C93 0.948 . S
H71 C99 0.982 . S
H72 C100 0.979 . S
H73 C100 0.980 . S
H74 C100 0.983 . S
H75 C99 0.979 . S
H76 C99 0.977 . S
C77 C65 1.453 . S
C77 H106 0.982 . S
C77 H107 0.979 . S
C77 H108 0.977 . S
C78 C65 1.684 . S
C78 H103 0.979 . S
C78 H104 0.980 . S
C78 H105 0.983 . S
C79 C80 1.391 . S
C79 C84 1.391 . S
C79 H109 0.948 . S
C80 C79 1.391 . S
C80 C81 1.391 . S
C81 C80 1.391 . S
C81 C82 1.392 . S
C81 H110 0.947 . S
C82 C81 1.392 . S
C82 C83 1.419 . S
C82 H111 0.948 . S
C83 C82 1.419 . S
C83 C84 1.391 . S
C83 C87 1.397 . S
C84 C79 1.391 . S
C84 C83 1.391 . S
C84 C85 1.399 . S
C85 C84 1.399 . S
C85 C86 1.396 . S
C85 C88 1.453 . S
C85 C89 1.684 . S
C86 C67 1.723 . S
C86 C85 1.396 . S
C86 C87 1.394 . S
C87 C83 1.397 . S
C87 C86 1.394 . S
C87 C97 1.723 . S
C88 C85 1.453 . S
C88 H112 0.982 . S
C88 H113 0.979 1_565 S
C88 H114 0.977 . S
C89 C85 1.684 . S
C89 H115 0.979 . S
C89 H116 0.980 . S
C89 H117 0.983 . S
C90 H66 0.948 . S
C90 C91 1.391 . S
C90 C95 1.391 . S
C91 C90 1.391 . S
C91 C92 1.391 . S
C92 H69 0.947 . S
C92 C91 1.391 . S
C92 C93 1.392 . S
C93 H70 0.948 . S
C93 C92 1.392 . S
C93 C94 1.419 . S
C94 C93 1.419 . S
C94 C95 1.391 . S
C94 C98 1.397 . S
C95 C90 1.391 . S
C95 C94 1.391 . S
C95 C96 1.399 . S
C96 C95 1.399 . S
C96 C97 1.396 . S
C96 C99 1.453 . S
C96 C100 1.684 . S
C97 C87 1.723 . S
C97 C96 1.396 . S
C97 C98 1.394 . S
C98 C68 1.723 . S
C98 C94 1.397 . S
C98 C97 1.394 . S
C99 H71 0.982 . S
C99 H75 0.979 . S
C99 H76 0.977 . S
C99 C96 1.453 . S
C100 H72 0.979 . S
C100 H73 0.980 . S
C100 H74 0.983 . S
C100 C96 1.684 . S
H101 C119 0.948 . S
H102 C60 0.948 . S
H103 C78 0.979 . S
H104 C78 0.980 . S
H105 C78 0.983 . S
H106 C77 0.982 . S
H107 C77 0.979 . S
H108 C77 0.977 . S
H109 C79 0.948 . S
H110 C81 0.947 . S
H111 C82 0.948 . S
H112 C88 0.982 . S
H113 C88 0.979 1_545 S
H114 C88 0.977 . S
H115 C89 0.979 . S
H116 C89 0.980 . S
H117 C89 0.983 . S
H118 C62 0.947 . S
C119 C62 1.392 . S
C119 C63 1.419 . S
C119 H101 0.948 . S
C120 C121 1.391 . S
C120 C124 1.391 . S
C120 H162 0.948 1_556 S
C121 C120 1.391 . S
C121 C122 1.391 . S
C122 C121 1.391 . S
C122 H178 0.947 . S
C122 C179 1.392 . S
C123 C124 1.391 . S
C123 C127 1.397 . S
C123 C179 1.419 . S
C124 C120 1.391 . S
C124 C123 1.391 . S
C124 C125 1.399 . S
C125 C124 1.399 . S
C125 C128 1.396 . S
C125 C137 1.453 1_556 S
C125 C138 1.684 . S
H126 C150 0.948 . S
C127 C123 1.397 . S
C127 C128 1.394 . S
C127 C146 1.723 . S
C128 C125 1.396 . S
C128 C127 1.394 . S
C128 C158 1.723 . S
H129 C152 0.947 1_554 S
H130 C153 0.948 . S
H131 C159 0.982 . S
H132 C160 0.979 . S
H133 C160 0.980 . S
H134 C160 0.983 . S
H135 C159 0.979 . S
H136 C159 0.977 . S
C137 C125 1.453 1_554 S
C137 H166 0.982 . S
C137 H167 0.979 . S
C137 H168 0.977 . S
C138 C125 1.684 . S
C138 H163 0.979 . S
C138 H164 0.980 . S
C138 H165 0.983 1_556 S
C139 C140 1.391 . S
C139 C144 1.391 . S
C139 H169 0.948 . S
C140 C139 1.391 . S
C140 C141 1.391 . S
C141 C140 1.391 . S
C141 C142 1.392 . S
C141 H170 0.947 . S
C142 C141 1.392 . S
C142 C143 1.419 . S
C142 H171 0.948 . S
C143 C142 1.419 . S
C143 C144 1.391 . S
C143 C147 1.397 . S
C144 C139 1.391 . S
C144 C143 1.391 . S
C144 C145 1.399 . S
C145 C144 1.399 . S
C145 C146 1.396 . S
C145 C148 1.453 . S
C145 C149 1.684 . S
C146 C127 1.723 . S
C146 C145 1.396 . S
C146 C147 1.394 . S
C147 C143 1.397 . S
C147 C146 1.394 . S
C147 C157 1.723 . S
C148 C145 1.453 . S
C148 H172 0.982 . S
C148 H173 0.979 . S
C148 H174 0.977 . S
C149 C145 1.684 . S
C149 H175 0.979 . S
C149 H176 0.980 . S
C149 H177 0.983 . S
C150 H126 0.948 . S
C150 C151 1.391 . S
C150 C155 1.391 . S
C151 C150 1.391 . S
C151 C152 1.391 . S
C152 H129 0.947 1_556 S
C152 C151 1.391 . S
C152 C153 1.392 . S
C153 H130 0.948 . S
C153 C152 1.392 . S
C153 C154 1.419 . S
C154 C153 1.419 . S
C154 C155 1.391 . S
C154 C158 1.397 . S
C155 C150 1.391 . S
C155 C154 1.391 . S
C155 C156 1.399 . S
C156 C155 1.399 . S
C156 C157 1.396 . S
C156 C159 1.453 . S
C156 C160 1.684 . S
C157 C147 1.723 . S
C157 C156 1.396 . S
C157 C158 1.394 . S
C158 C128 1.723 . S
C158 C154 1.397 . S
C158 C157 1.394 . S
C159 H131 0.982 . S
C159 H135 0.979 . S
C159 H136 0.977 . S
C159 C156 1.453 . S
C160 H132 0.979 . S
C160 H133 0.980 . S
C160 H134 0.983 . S
C160 C156 1.684 . S
H161 C179 0.948 . S
H162 C120 0.948 1_554 S
H163 C138 0.979 . S
H164 C138 0.980 . S
H165 C138 0.983 1_554 S
H166 C137 0.982 . S
H167 C137 0.979 . S
H168 C137 0.977 . S
H169 C139 0.948 . S
H170 C141 0.947 . S
H171 C142 0.948 . S
H172 C148 0.982 . S
H173 C148 0.979 . S
H174 C148 0.977 . S
H175 C149 0.979 . S
H176 C149 0.980 . S
H177 C149 0.983 . S
H178 C122 0.947 . S
C179 C122 1.392 . S
C179 C123 1.419 . S
C179 H161 0.948 . S
C180 C181 1.391 1_455 S
C180 C184 1.391 1_455 S
C180 H222 0.948 . S
C181 C180 1.391 1_655 S
C181 C182 1.391 . S
C182 C181 1.391 . S
C182 H238 0.947 . S
C182 C239 1.392 . S
C183 C184 1.391 . S
C183 C187 1.397 . S
C183 C239 1.419 . S
C184 C180 1.391 1_655 S
C184 C183 1.391 . S
C184 C185 1.399 . S
C185 C184 1.399 . S
C185 C188 1.396 . S
C185 C197 1.453 1_655 S
C185 C198 1.684 1_655 S
H186 C210 0.948 . S
C187 C183 1.397 . S
C187 C188 1.394 . S
C187 C206 1.723 . S
C188 C185 1.396 . S
C188 C187 1.394 . S
C188 C218 1.723 . S
H189 C212 0.947 . S
H190 C213 0.948 . S
H191 C219 0.982 . S
H192 C220 0.979 . S
H193 C220 0.980 . S
H194 C220 0.983 . S
H195 C219 0.979 . S
H196 C219 0.977 . S
C197 C185 1.453 1_455 S
C197 H226 0.982 . S
C197 H227 0.979 . S
C197 H228 0.977 . S
C198 C185 1.684 1_455 S
C198 H223 0.979 1_455 S
C198 H224 0.980 . S
C198 H225 0.983 . S
C199 C200 1.391 . S
C199 C204 1.391 . S
C199 H229 0.948 . S
C200 C199 1.391 . S
C200 C201 1.391 . S
C201 C200 1.391 . S
C201 C202 1.392 . S
C201 H230 0.947 . S
C202 C201 1.392 . S
C202 C203 1.419 . S
C202 H231 0.948 . S
C203 C202 1.419 . S
C203 C204 1.391 . S
C203 C207 1.397 . S
C204 C199 1.391 . S
C204 C203 1.391 . S
C204 C205 1.399 . S
C205 C204 1.399 . S
C205 C206 1.396 . S
C205 C208 1.453 . S
C205 C209 1.684 . S
C206 C187 1.723 . S
C206 C205 1.396 . S
C206 C207 1.394 . S
C207 C203 1.397 . S
C207 C206 1.394 . S
C207 C217 1.723 . S
C208 C205 1.453 . S
C208 H232 0.982 . S
C208 H233 0.979 . S
C208 H234 0.977 . S
C209 C205 1.684 . S
C209 H235 0.979 . S
C209 H236 0.980 . S
C209 H237 0.983 . S
C210 H186 0.948 . S
C210 C211 1.391 . S
C210 C215 1.391 . S
C211 C210 1.391 . S
C211 C212 1.391 1_655 S
C212 H189 0.947 . S
C212 C211 1.391 1_455 S
C212 C213 1.392 . S
C213 H190 0.948 . S
C213 C212 1.392 . S
C213 C214 1.419 1_455 S
C214 C213 1.419 1_655 S
C214 C215 1.391 . S
C214 C218 1.397 . S
C215 C210 1.391 . S
C215 C214 1.391 . S
C215 C216 1.399 . S
C216 C215 1.399 . S
C216 C217 1.396 . S
C216 C219 1.453 . S
C216 C220 1.684 . S
C217 C207 1.723 . S
C217 C216 1.396 . S
C217 C218 1.394 . S
C218 C188 1.723 . S
C218 C214 1.397 . S
C218 C217 1.394 . S
C219 H191 0.982 . S
C219 H195 0.979 . S
C219 H196 0.977 . S
C219 C216 1.453 . S
C220 H192 0.979 . S
C220 H193 0.980 . S
C220 H194 0.983 . S
C220 C216 1.684 . S
H221 C239 0.948 . S
H222 C180 0.948 . S
H223 C198 0.979 1_655 S
H224 C198 0.980 . S
H225 C198 0.983 . S
H226 C197 0.982 . S
H227 C197 0.979 . S
H228 C197 0.977 . S
H229 C199 0.948 . S
H230 C201 0.947 . S
H231 C202 0.948 . S
H232 C208 0.982 . S
H233 C208 0.979 . S
H234 C208 0.977 . S
H235 C209 0.979 . S
H236 C209 0.980 . S
H237 C209 0.983 . S
H238 C182 0.947 . S
C239 C182 1.392 . S
C239 C183 1.419 . S
C239 H221 0.948 . S
C240 C241 1.391 . S
C240 C244 1.391 . S
C240 H282 0.948 1_556 S
C241 C240 1.391 . S
C241 C242 1.391 . S
C242 C241 1.391 . S
C242 H298 0.947 1_655 S
C242 C299 1.392 . S
C243 C244 1.391 . S
C243 C247 1.397 . S
C243 C299 1.419 . S
C244 C240 1.391 . S
C244 C243 1.391 . S
C244 C245 1.399 . S
C245 C244 1.399 . S
C245 C248 1.396 . S
C245 C257 1.453 . S
C245 C258 1.684 1_556 S
H246 C270 0.948 1_545 S
C247 C243 1.397 . S
C247 C248 1.394 . S
C247 C266 1.723 . S
C248 C245 1.396 . S
C248 C247 1.394 . S
C248 C278 1.723 . S
H249 C272 0.947 1_554 S
H250 C273 0.948 1_554 S
H251 C279 0.982 . S
H252 C280 0.979 . S
H253 C280 0.980 . S
H254 C280 0.983 . S
H255 C279 0.979 1_545 S
H256 C279 0.977 . S
C257 C245 1.453 . S
C257 H286 0.982 . S
C257 H287 0.979 1_556 S
C257 H288 0.977 . S
C258 C245 1.684 1_554 S
C258 H283 0.979 . S
C258 H284 0.980 . S
C258 H285 0.983 . S
C259 C260 1.391 . S
C259 C264 1.391 . S
C259 H289 0.948 . S
C260 C259 1.391 . S
C260 C261 1.391 1_565 S
C261 C260 1.391 1_545 S
C261 C262 1.392 1_545 S
C261 H290 0.947 . S
C262 C261 1.392 1_565 S
C262 C263 1.419 . S
C262 H291 0.948 1_565 S
C263 C262 1.419 . S
C263 C264 1.391 . S
C263 C267 1.397 . S
C264 C259 1.391 . S
C264 C263 1.391 . S
C264 C265 1.399 . S
C265 C264 1.399 . S
C265 C266 1.396 . S
C265 C268 1.453 . S
C265 C269 1.684 1_655 S
C266 C247 1.723 . S
C266 C265 1.396 . S
C266 C267 1.394 . S
C267 C263 1.397 . S
C267 C266 1.394 . S
C267 C277 1.723 . S
C268 C265 1.453 . S
C268 H292 0.982 . S
C268 H293 0.979 . S
C268 H294 0.977 . S
C269 C265 1.684 1_455 S
C269 H295 0.979 . S
C269 H296 0.980 . S
C269 H297 0.983 . S
C270 H246 0.948 1_565 S
C270 C271 1.391 . S
C270 C275 1.391 . S
C271 C270 1.391 . S
C271 C272 1.391 . S
C272 H249 0.947 1_556 S
C272 C271 1.391 . S
C272 C273 1.392 . S
C273 H250 0.948 1_556 S
C273 C272 1.392 . S
C273 C274 1.419 . S
C274 C273 1.419 . S
C274 C275 1.391 . S
C274 C278 1.397 . S
C275 C270 1.391 . S
C275 C274 1.391 . S
C275 C276 1.399 . S
C276 C275 1.399 . S
C276 C277 1.396 . S
C276 C279 1.453 . S
C276 C280 1.684 1_565 S
C277 C267 1.723 . S
C277 C276 1.396 . S
C277 C278 1.394 . S
C278 C248 1.723 . S
C278 C274 1.397 . S
C278 C277 1.394 . S
C279 H251 0.982 . S
C279 H255 0.979 1_565 S
C279 H256 0.977 . S
C279 C276 1.453 . S
C280 H252 0.979 . S
C280 H253 0.980 . S
C280 H254 0.983 . S
C280 C276 1.684 1_545 S
H281 C299 0.948 . S
H282 C240 0.948 1_554 S
H283 C258 0.979 . S
H284 C258 0.980 . S
H285 C258 0.983 . S
H286 C257 0.982 . S
H287 C257 0.979 1_554 S
H288 C257 0.977 . S
H289 C259 0.948 . S
H290 C261 0.947 . S
H291 C262 0.948 1_545 S
H292 C268 0.982 . S
H293 C268 0.979 . S
H294 C268 0.977 . S
H295 C269 0.979 . S
H296 C269 0.980 . S
H297 C269 0.983 . S
H298 C242 0.947 1_455 S
C299 C242 1.392 . S
C299 C243 1.419 . S
C299 H281 0.948 . S
C300 C301 1.391 . S
C300 C304 1.391 . S
C300 H342 0.948 . S
C301 C300 1.391 . S
C301 C302 1.391 . S
C302 C301 1.391 . S
C302 H358 0.947 . S
C302 C359 1.392 . S
C303 C304 1.391 . S
C303 C307 1.397 . S
C303 C359 1.419 . S
C304 C300 1.391 . S
C304 C303 1.391 . S
C304 C305 1.399 . S
C305 C304 1.399 . S
C305 C308 1.396 . S
C305 C317 1.453 . S
C305 C318 1.684 . S
H306 C330 0.948 . S
C307 C303 1.397 . S
C307 C308 1.394 . S
C307 C326 1.723 . S
C308 C305 1.396 . S
C308 C307 1.394 . S
C308 C338 1.723 . S
H309 C332 0.947 . S
H310 C333 0.948 . S
H311 C339 0.982 . S
H312 C340 0.979 . S
H313 C340 0.980 . S
H314 C340 0.983 . S
H315 C339 0.979 . S
H316 C339 0.977 . S
C317 C305 1.453 . S
C317 H346 0.982 . S
C317 H347 0.979 . S
C317 H348 0.977 . S
C318 C305 1.684 . S
C318 H343 0.979 . S
C318 H344 0.980 . S
C318 H345 0.983 . S
C319 C320 1.391 . S
C319 C324 1.391 . S
C319 H349 0.948 . S
C320 C319 1.391 . S
C320 C321 1.391 . S
C321 C320 1.391 . S
C321 C322 1.392 . S
C321 H350 0.947 . S
C322 C321 1.392 . S
C322 C323 1.419 . S
C322 H351 0.948 . S
C323 C322 1.419 . S
C323 C324 1.391 . S
C323 C327 1.397 . S
C324 C319 1.391 . S
C324 C323 1.391 . S
C324 C325 1.399 . S
C325 C324 1.399 . S
C325 C326 1.396 . S
C325 C328 1.453 . S
C325 C329 1.684 . S
C326 C307 1.723 . S
C326 C325 1.396 . S
C326 C327 1.394 . S
C327 C323 1.397 . S
C327 C326 1.394 . S
C327 C337 1.723 . S
C328 C325 1.453 . S
C328 H352 0.982 . S
C328 H353 0.979 1_545 S
C328 H354 0.977 . S
C329 C325 1.684 . S
C329 H355 0.979 . S
C329 H356 0.980 . S
C329 H357 0.983 . S
C330 H306 0.948 . S
C330 C331 1.391 . S
C330 C335 1.391 . S
C331 C330 1.391 . S
C331 C332 1.391 . S
C332 H309 0.947 . S
C332 C331 1.391 . S
C332 C333 1.392 . S
C333 H310 0.948 . S
C333 C332 1.392 . S
C333 C334 1.419 . S
C334 C333 1.419 . S
C334 C335 1.391 . S
C334 C338 1.397 . S
C335 C330 1.391 . S
C335 C334 1.391 . S
C335 C336 1.399 . S
C336 C335 1.399 . S
C336 C337 1.396 . S
C336 C339 1.453 . S
C336 C340 1.684 . S
C337 C327 1.723 . S
C337 C336 1.396 . S
C337 C338 1.394 . S
C338 C308 1.723 . S
C338 C334 1.397 . S
C338 C337 1.394 . S
C339 H311 0.982 . S
C339 H315 0.979 . S
C339 H316 0.977 . S
C339 C336 1.453 . S
C340 H312 0.979 . S
C340 H313 0.980 . S
C340 H314 0.983 . S
C340 C336 1.684 . S
H341 C359 0.948 . S
H342 C300 0.948 . S
H343 C318 0.979 . S
H344 C318 0.980 . S
H345 C318 0.983 . S
H346 C317 0.982 . S
H347 C317 0.979 . S
H348 C317 0.977 . S
H349 C319 0.948 . S
H350 C321 0.947 . S
H351 C322 0.948 . S
H352 C328 0.982 . S
H353 C328 0.979 1_565 S
H354 C328 0.977 . S
H355 C329 0.979 . S
H356 C329 0.980 . S
H357 C329 0.983 . S
H358 C302 0.947 . S
C359 C302 1.392 . S
C359 C303 1.419 . S
C359 H341 0.948 . S
C360 C361 1.391 . S
C360 C364 1.391 . S
C360 H402 0.948 . S
C361 C360 1.391 . S
C361 C362 1.391 . S
C362 C361 1.391 . S
C362 H418 0.947 . S
C362 C419 1.392 . S
C363 C364 1.391 . S
C363 C367 1.397 . S
C363 C419 1.419 . S
C364 C360 1.391 . S
C364 C363 1.391 . S
C364 C365 1.399 . S
C365 C364 1.399 . S
C365 C368 1.396 . S
C365 C377 1.453 . S
C365 C378 1.684 . S
H366 C390 0.948 1_556 S
C367 C363 1.397 . S
C367 C368 1.394 . S
C367 C386 1.723 . S
C368 C365 1.396 . S
C368 C367 1.394 . S
C368 C398 1.723 . S
H369 C392 0.947 . S
H370 C393 0.948 . S
H371 C399 0.982 . S
H372 C400 0.979 . S
H373 C400 0.980 . S
H374 C400 0.983 . S
H375 C399 0.979 . S
H376 C399 0.977 . S
C377 C365 1.453 . S
C377 H406 0.982 . S
C377 H407 0.979 . S
C377 H408 0.977 . S
C378 C365 1.684 . S
C378 H403 0.979 . S
C378 H404 0.980 . S
C378 H405 0.983 . S
C379 C380 1.391 . S
C379 C384 1.391 . S
C379 H409 0.948 . S
C380 C379 1.391 . S
C380 C381 1.391 . S
C381 C380 1.391 . S
C381 C382 1.392 . S
C381 H410 0.947 1_554 S
C382 C381 1.392 . S
C382 C383 1.419 . S
C382 H411 0.948 . S
C383 C382 1.419 . S
C383 C384 1.391 . S
C383 C387 1.397 . S
C384 C379 1.391 . S
C384 C383 1.391 . S
C384 C385 1.399 . S
C385 C384 1.399 . S
C385 C386 1.396 . S
C385 C388 1.453 . S
C385 C389 1.684 . S
C386 C367 1.723 . S
C386 C385 1.396 . S
C386 C387 1.394 . S
C387 C383 1.397 . S
C387 C386 1.394 . S
C387 C397 1.723 . S
C388 C385 1.453 . S
C388 H412 0.982 . S
C388 H413 0.979 . S
C388 H414 0.977 . S
C389 C385 1.684 . S
C389 H415 0.979 . S
C389 H416 0.980 . S
C389 H417 0.983 . S
C390 H366 0.948 1_554 S
C390 C391 1.391 . S
C390 C395 1.391 . S
C391 C390 1.391 . S
C391 C392 1.391 . S
C392 H369 0.947 . S
C392 C391 1.391 . S
C392 C393 1.392 . S
C393 H370 0.948 . S
C393 C392 1.392 . S
C393 C394 1.419 . S
C394 C393 1.419 . S
C394 C395 1.391 . S
C394 C398 1.397 . S
C395 C390 1.391 . S
C395 C394 1.391 . S
C395 C396 1.399 . S
C396 C395 1.399 . S
C396 C397 1.396 . S
C396 C399 1.453 . S
C396 C400 1.684 1_554 S
C397 C387 1.723 . S
C397 C396 1.396 . S
C397 C398 1.394 . S
C398 C368 1.723 . S
C398 C394 1.397 . S
C398 C397 1.394 . S
C399 H371 0.982 . S
C399 H375 0.979 . S
C399 H376 0.977 . S
C399 C396 1.453 . S
C400 H372 0.979 . S
C400 H373 0.980 . S
C400 H374 0.983 . S
C400 C396 1.684 1_556 S
H401 C419 0.948 . S
H402 C360 0.948 . S
H403 C378 0.979 . S
H404 C378 0.980 . S
H405 C378 0.983 . S
H406 C377 0.982 . S
H407 C377 0.979 . S
H408 C377 0.977 . S
H409 C379 0.948 . S
H410 C381 0.947 1_556 S
H411 C382 0.948 . S
H412 C388 0.982 . S
H413 C388 0.979 . S
H414 C388 0.977 . S
H415 C389 0.979 . S
H416 C389 0.980 . S
H417 C389 0.983 . S
H418 C362 0.947 . S
C419 C362 1.392 . S
C419 C363 1.419 . S
C419 H401 0.948 . S
C420 C421 1.391 1_655 S
C420 C424 1.391 1_655 S
C420 H462 0.948 . S
C421 C420 1.391 1_455 S
C421 C422 1.391 . S
C422 C421 1.391 . S
C422 H478 0.947 . S
C422 C479 1.392 . S
C423 C424 1.391 . S
C423 C427 1.397 . S
C423 C479 1.419 . S
C424 C420 1.391 1_455 S
C424 C423 1.391 . S
C424 C425 1.399 . S
C425 C424 1.399 . S
C425 C428 1.396 . S
C425 C437 1.453 1_455 S
C425 C438 1.684 1_455 S
H426 C450 0.948 . S
C427 C423 1.397 . S
C427 C428 1.394 . S
C427 C446 1.723 . S
C428 C425 1.396 . S
C428 C427 1.394 . S
C428 C458 1.723 . S
H429 C452 0.947 . S
H430 C453 0.948 . S
H431 C459 0.982 . S
H432 C460 0.979 . S
H433 C460 0.980 . S
H434 C460 0.983 . S
H435 C459 0.979 . S
H436 C459 0.977 . S
C437 C425 1.453 1_655 S
C437 H466 0.982 . S
C437 H467 0.979 . S
C437 H468 0.977 . S
C438 C425 1.684 1_655 S
C438 H463 0.979 1_655 S
C438 H464 0.980 . S
C438 H465 0.983 . S
C439 C440 1.391 . S
C439 C444 1.391 . S
C439 H469 0.948 . S
C440 C439 1.391 . S
C440 C441 1.391 . S
C441 C440 1.391 . S
C441 C442 1.392 . S
C441 H470 0.947 . S
C442 C441 1.392 . S
C442 C443 1.419 . S
C442 H471 0.948 . S
C443 C442 1.419 . S
C443 C444 1.391 . S
C443 C447 1.397 . S
C444 C439 1.391 . S
C444 C443 1.391 . S
C444 C445 1.399 . S
C445 C444 1.399 . S
C445 C446 1.396 . S
C445 C448 1.453 . S
C445 C449 1.684 . S
C446 C427 1.723 . S
C446 C445 1.396 . S
C446 C447 1.394 . S
C447 C443 1.397 . S
C447 C446 1.394 . S
C447 C457 1.723 . S
C448 C445 1.453 . S
C448 H472 0.982 . S
C448 H473 0.979 . S
C448 H474 0.977 . S
C449 C445 1.684 . S
C449 H475 0.979 . S
C449 H476 0.980 . S
C449 H477 0.983 . S
C450 H426 0.948 . S
C450 C451 1.391 . S
C450 C455 1.391 . S
C451 C450 1.391 . S
C451 C452 1.391 1_455 S
C452 H429 0.947 . S
C452 C451 1.391 1_655 S
C452 C453 1.392 . S
C453 H430 0.948 . S
C453 C452 1.392 . S
C453 C454 1.419 1_655 S
C454 C453 1.419 1_455 S
C454 C455 1.391 . S
C454 C458 1.397 . S
C455 C450 1.391 . S
C455 C454 1.391 . S
C455 C456 1.399 . S
C456 C455 1.399 . S
C456 C457 1.396 . S
C456 C459 1.453 . S
C456 C460 1.684 . S
C457 C447 1.723 . S
C457 C456 1.396 . S
C457 C458 1.394 . S
C458 C428 1.723 . S
C458 C454 1.397 . S
C458 C457 1.394 . S
C459 H431 0.982 . S
C459 H435 0.979 . S
C459 H436 0.977 . S
C459 C456 1.453 . S
C460 H432 0.979 . S
C460 H433 0.980 . S
C460 H434 0.983 . S
C460 C456 1.684 . S
H461 C479 0.948 . S
H462 C420 0.948 . S
H463 C438 0.979 1_455 S
H464 C438 0.980 . S
H465 C438 0.983 . S
H466 C437 0.982 . S
H467 C437 0.979 . S
H468 C437 0.977 . S
H469 C439 0.948 . S
H470 C441 0.947 . S
H471 C442 0.948 . S
H472 C448 0.982 . S
H473 C448 0.979 . S
H474 C448 0.977 . S
H475 C449 0.979 . S
H476 C449 0.980 . S
H477 C449 0.983 . S
H478 C422 0.947 . S
C479 C422 1.392 . S
C479 C423 1.419 . S
C479 H461 0.948 . S
Co480 N485 2.057 . S
Co480 O497 2.021 . S
Co480 O500 2.062 . S
Co480 O504 2.117 1_545 S
Co480 O505 2.020 1_545 S
C481 O501 1.259 1_655 S
C481 O504 1.258 . S
Co482 N491 2.057 . S
Co482 O498 2.117 1_565 S
Co482 O499 2.020 1_565 S
Co482 O501 2.021 . S
Co482 O506 2.062 . S
C483 N485 1.316 . S
C483 N486 1.347 . S
C483 H488 0.931 . S
C484 N485 1.375 1_565 S
C484 C487 1.350 1_565 S
C484 H489 0.930 . S
N485 Co480 2.057 . S
N485 C483 1.316 . S
N485 C484 1.375 1_545 S
N486 C483 1.347 . S
N486 C487 1.373 . S
C487 C484 1.350 1_545 S
C487 N486 1.373 . S
C487 H508 0.931 1_545 S
H488 C483 0.931 . S
H489 C484 0.930 . S
C490 O497 1.259 1_455 S
C490 O498 1.258 . S
N491 Co482 2.057 . S
N491 C492 1.316 . S
N491 C493 1.375 1_565 S
C492 N491 1.316 . S
C492 N494 1.347 . S
C492 H503 0.931 . S
C493 N491 1.375 1_545 S
C493 C495 1.350 1_545 S
C493 H502 0.930 . S
N494 C492 1.347 . S
N494 C495 1.373 . S
C495 C493 1.350 1_565 S
C495 N494 1.373 . S
C495 H509 0.931 1_565 S
C496 O499 1.256 . S
C496 O500 1.255 1_455 S
O497 Co480 2.021 . S
O497 C490 1.259 1_655 S
O498 Co482 2.117 1_545 S
O498 C490 1.258 . S
O499 Co482 2.020 1_545 S
O499 C496 1.256 . S
O500 Co480 2.062 . S
O500 C496 1.255 1_655 S
O501 C481 1.259 1_455 S
O501 Co482 2.021 . S
H502 C493 0.930 . S
H503 C492 0.931 . S
O504 Co480 2.117 1_565 S
O504 C481 1.258 . S
O505 Co480 2.020 1_565 S
O505 C507 1.256 . S
O506 Co482 2.062 . S
O506 C507 1.255 1_455 S
C507 O505 1.256 . S
C507 O506 1.255 1_655 S
H508 C487 0.931 1_565 S
H509 C495 0.931 1_545 S
Co510 N515 2.057 . S
Co510 O527 2.021 1_565 S
Co510 O530 2.062 . S
Co510 O534 2.117 . S
Co510 O535 2.020 1_565 S
C511 O531 1.259 . S
C511 O534 1.258 1_554 S
Co512 N521 2.057 . S
Co512 O528 2.117 . S
Co512 O529 2.020 1_545 S
Co512 O531 2.021 1_545 S
Co512 O536 2.062 . S
C513 N515 1.316 . S
C513 N516 1.347 . S
C513 H518 0.931 1_565 S
C514 N515 1.375 . S
C514 C517 1.350 . S
C514 H519 0.930 . S
N515 Co510 2.057 . S
N515 C513 1.316 . S
N515 C514 1.375 . S
N516 C513 1.347 . S
N516 C517 1.373 . S
C517 C514 1.350 . S
C517 N516 1.373 . S
C517 H538 0.931 . S
H518 C513 0.931 1_545 S
H519 C514 0.930 . S
C520 O527 1.259 . S
C520 O528 1.258 1_556 S
N521 Co512 2.057 . S
N521 C522 1.316 . S
N521 C523 1.375 . S
C522 N521 1.316 . S
C522 N524 1.347 . S
C522 H533 0.931 1_545 S
C523 N521 1.375 . S
C523 C525 1.350 . S
C523 H532 0.930 . S
N524 C522 1.347 . S
N524 C525 1.373 . S
C525 C523 1.350 . S
C525 N524 1.373 . S
C525 H539 0.931 . S
C526 O529 1.256 1_556 S
C526 O530 1.255 . S
O527 Co510 2.021 1_545 S
O527 C520 1.259 . S
O528 Co512 2.117 . S
O528 C520 1.258 1_554 S
O529 Co512 2.020 1_565 S
O529 C526 1.256 1_554 S
O530 Co510 2.062 . S
O530 C526 1.255 . S
O531 C511 1.259 . S
O531 Co512 2.021 1_565 S
H532 C523 0.930 . S
H533 C522 0.931 1_565 S
O534 Co510 2.117 . S
O534 C511 1.258 1_556 S
O535 Co510 2.020 1_545 S
O535 C537 1.256 1_556 S
O536 Co512 2.062 . S
O536 C537 1.255 . S
C537 O535 1.256 1_554 S
C537 O536 1.255 . S
H538 C517 0.931 . S
H539 C525 0.931 . S
Co540 N545 2.057 . S
Co540 O557 2.021 . S
Co540 O560 2.062 . S
Co540 O564 2.117 . S
Co540 O565 2.020 . S
C541 O561 1.259 . S
C541 O564 1.258 . S
Co542 N551 2.057 . S
Co542 O558 2.117 . S
Co542 O559 2.020 . S
Co542 O561 2.021 . S
Co542 O566 2.062 . S
C543 N545 1.316 . S
C543 N546 1.347 . S
C543 H548 0.931 . S
C544 N545 1.375 . S
C544 C547 1.350 . S
C544 H549 0.930 . S
N545 Co540 2.057 . S
N545 C543 1.316 . S
N545 C544 1.375 . S
N546 C543 1.347 . S
N546 C547 1.373 . S
C547 C544 1.350 . S
C547 N546 1.373 . S
C547 H568 0.931 . S
H548 C543 0.931 . S
H549 C544 0.930 . S
C550 O557 1.259 . S
C550 O558 1.258 . S
N551 Co542 2.057 . S
N551 C552 1.316 . S
N551 C553 1.375 . S
C552 N551 1.316 . S
C552 N554 1.347 . S
C552 H563 0.931 . S
C553 N551 1.375 . S
C553 C555 1.350 . S
C553 H562 0.930 . S
N554 C552 1.347 . S
N554 C555 1.373 . S
C555 C553 1.350 . S
C555 N554 1.373 . S
C555 H569 0.931 . S
C556 O559 1.256 . S
C556 O560 1.255 . S
O557 Co540 2.021 . S
O557 C550 1.259 . S
O558 Co542 2.117 . S
O558 C550 1.258 . S
O559 Co542 2.020 . S
O559 C556 1.256 . S
O560 Co540 2.062 . S
O560 C556 1.255 . S
O561 C541 1.259 . S
O561 Co542 2.021 . S
H562 C553 0.930 . S
H563 C552 0.931 . S
O564 Co540 2.117 . S
O564 C541 1.258 . S
O565 Co540 2.020 . S
O565 C567 1.256 . S
O566 Co542 2.062 . S
O566 C567 1.255 . S
C567 O565 1.256 . S
C567 O566 1.255 . S
H568 C547 0.931 . S
H569 C555 0.931 . S
Co570 N575 2.057 . S
Co570 O587 2.021 . S
Co570 O590 2.062 . S
Co570 O594 2.117 1_455 S
Co570 O595 2.020 1_455 S
C571 O591 1.259 1_556 S
C571 O594 1.258 . S
Co572 N581 2.057 . S
Co572 O588 2.117 1_655 S
Co572 O589 2.020 1_655 S
Co572 O591 2.021 . S
Co572 O596 2.062 . S
C573 N575 1.316 . S
C573 N576 1.347 . S
C573 H578 0.931 . S
C574 N575 1.375 1_655 S
C574 C577 1.350 1_655 S
C574 H579 0.930 . S
N575 Co570 2.057 . S
N575 C573 1.316 . S
N575 C574 1.375 1_455 S
N576 C573 1.347 . S
N576 C577 1.373 . S
C577 C574 1.350 1_455 S
C577 N576 1.373 . S
C577 H598 0.931 1_455 S
H578 C573 0.931 . S
H579 C574 0.930 . S
C580 O587 1.259 1_554 S
C580 O588 1.258 . S
N581 Co572 2.057 . S
N581 C582 1.316 . S
N581 C583 1.375 1_655 S
C582 N581 1.316 . S
C582 N584 1.347 . S
C582 H593 0.931 . S
C583 N581 1.375 1_455 S
C583 C585 1.350 1_455 S
C583 H592 0.930 . S
N584 C582 1.347 . S
N584 C585 1.373 . S
C585 C583 1.350 1_655 S
C585 N584 1.373 . S
C585 H599 0.931 1_655 S
C586 O589 1.256 . S
C586 O590 1.255 1_554 S
O587 Co570 2.021 . S
O587 C580 1.259 1_556 S
O588 Co572 2.117 1_455 S
O588 C580 1.258 . S
O589 Co572 2.020 1_455 S
O589 C586 1.256 . S
O590 Co570 2.062 . S
O590 C586 1.255 1_556 S
O591 C571 1.259 1_554 S
O591 Co572 2.021 . S
H592 C583 0.930 . S
H593 C582 0.931 . S
O594 Co570 2.117 1_655 S
O594 C571 1.258 . S
O595 Co570 2.020 1_655 S
O595 C597 1.256 . S
O596 Co572 2.062 . S
O596 C597 1.255 1_554 S
C597 O595 1.256 . S
C597 O596 1.255 1_556 S
H598 C577 0.931 1_655 S
H599 C585 0.931 1_455 S
C1 C496 2.910 . S
C80 N516 1.642 . S
C550 C140 2.639 . S
C211 N584 1.902 . S
C537 C31 3.187 . S
N494 C61 1.420 . S
C571 C151 2.622 . S
N546 C200 1.509 . S
C20 C586 2.400 . S
C520 C121 2.071 . S
C181 C481 1.829 . S
C91 C567 1.660 . S
C507 C260 3.020 . S
C320 N524 1.641 . S
C361 C541 2.776 . S
C451 N576 1.902 . S
C271 C526 3.163 . S
N486 C301 1.420 . S
C580 C380 2.734 . S
N554 C440 1.509 . S
C241 C597 2.301 . S
C511 C391 2.243 . S
C490 C421 1.827 . S
C331 C556 1.660 . S
