# Generated by pormake.
# Topology pyr, (3,6)-cn, num edge types: 1
# Building blocks:
#     Node 0, Type 0, BuildingBlock: BETDAH_clean_linker_0, # of connection points: 3
#     Node 1, Type 0, BuildingBlock: BETDAH_clean_linker_0, # of connection points: 3
#     Node 2, Type 0, BuildingBlock: BETDAH_clean_linker_0, # of connection points: 3
#     Node 3, Type 0, BuildingBlock: BETDAH_clean_linker_0, # of connection points: 3
#     Node 4, Type 0, BuildingBlock: BETDAH_clean_linker_0, # of connection points: 3
#     Node 5, Type 0, BuildingBlock: BETDAH_clean_linker_0, # of connection points: 3
#     Node 6, Type 0, BuildingBlock: BETDAH_clean_linker_0, # of connection points: 3
#     Node 7, Type 0, BuildingBlock: BETDAH_clean_linker_0, # of connection points: 3
#     Node 8, Type 1, BuildingBlock: BETGAK_clean_sbu_0, # of connection points: 6
#     Node 9, Type 1, BuildingBlock: BETGAK_clean_sbu_0, # of connection points: 6
#     Node 10, Type 1, BuildingBlock: BETGAK_clean_sbu_0, # of connection points: 6
#     Node 11, Type 1, BuildingBlock: BETGAK_clean_sbu_0, # of connection points: 6
#     Edge 12, Type (0, 1), BuildingBlock: AJUNOK_clean_linker_0, # of connection points: 2
#     Edge 13, Type (0, 1), BuildingBlock: AJUNOK_clean_linker_0, # of connection points: 2
#     Edge 14, Type (0, 1), BuildingBlock: AJUNOK_clean_linker_0, # of connection points: 2
#     Edge 15, Type (0, 1), BuildingBlock: AJUNOK_clean_linker_0, # of connection points: 2
#     Edge 16, Type (0, 1), BuildingBlock: AJUNOK_clean_linker_0, # of connection points: 2
#     Edge 17, Type (0, 1), BuildingBlock: AJUNOK_clean_linker_0, # of connection points: 2
#     Edge 18, Type (0, 1), BuildingBlock: AJUNOK_clean_linker_0, # of connection points: 2
#     Edge 19, Type (0, 1), BuildingBlock: AJUNOK_clean_linker_0, # of connection points: 2
#     Edge 20, Type (0, 1), BuildingBlock: AJUNOK_clean_linker_0, # of connection points: 2
#     Edge 21, Type (0, 1), BuildingBlock: AJUNOK_clean_linker_0, # of connection points: 2
#     Edge 22, Type (0, 1), BuildingBlock: AJUNOK_clean_linker_0, # of connection points: 2
#     Edge 23, Type (0, 1), BuildingBlock: AJUNOK_clean_linker_0, # of connection points: 2
#     Edge 24, Type (0, 1), BuildingBlock: AJUNOK_clean_linker_0, # of connection points: 2
#     Edge 25, Type (0, 1), BuildingBlock: AJUNOK_clean_linker_0, # of connection points: 2
#     Edge 26, Type (0, 1), BuildingBlock: AJUNOK_clean_linker_0, # of connection points: 2
#     Edge 27, Type (0, 1), BuildingBlock: AJUNOK_clean_linker_0, # of connection points: 2
#     Edge 28, Type (0, 1), BuildingBlock: AJUNOK_clean_linker_0, # of connection points: 2
#     Edge 29, Type (0, 1), BuildingBlock: AJUNOK_clean_linker_0, # of connection points: 2
#     Edge 30, Type (0, 1), BuildingBlock: AJUNOK_clean_linker_0, # of connection points: 2
#     Edge 31, Type (0, 1), BuildingBlock: AJUNOK_clean_linker_0, # of connection points: 2
#     Edge 32, Type (0, 1), BuildingBlock: AJUNOK_clean_linker_0, # of connection points: 2
#     Edge 33, Type (0, 1), BuildingBlock: AJUNOK_clean_linker_0, # of connection points: 2
#     Edge 34, Type (0, 1), BuildingBlock: AJUNOK_clean_linker_0, # of connection points: 2
#     Edge 35, Type (0, 1), BuildingBlock: AJUNOK_clean_linker_0, # of connection points: 2
# Relax obj value: 0.215
# Max RMSD: 0.195
# Mean RMSD: 0.142
data_MOF--net-pyr--node1-BETGAK_clean_sbu_0--node2-BETDAH_clean_linker_0--edge1-AJUNOK_clean_linker_0
_symmetry_space_group_name_H-M    P1
_symmetry_Int_Tables_number       1
_symmetry_cell_setting            triclinic
loop_
_symmetry_equiv_pos_as_xyz
'x, y, z'
_cell_length_a     27.207609
_cell_length_b     30.058649
_cell_length_c     27.598988
_cell_angle_alpha  91.833123
_cell_angle_beta   89.584274
_cell_angle_gamma 109.91372
loop_
_atom_site_label
_atom_site_type_symbol
_atom_site_fract_x
_atom_site_fract_y
_atom_site_fract_z
_atom_type_partial_charge
H0 H 0.42574 0.30082 0.32716 0.0
H1 H 0.51262 0.37897 0.2078 0.0
H2 H 0.4058 0.43045 0.28809 0.0
C3 C 0.43722 0.33202 0.30526 0.0
C4 C 0.41241 0.36561 0.3122 0.0
C5 C 0.47285 0.33603 0.26721 0.0
C6 C 0.48653 0.37617 0.23831 0.0
C7 C 0.46224 0.4102 0.24528 0.0
C8 C 0.42573 0.40499 0.28286 0.0
N9 N 0.47017 0.44619 0.21097 0.0
C10 C 0.43035 0.46371 0.20083 0.0
H11 H 0.28852 0.86344 0.7995 0.0
H12 H 0.17278 0.92243 0.75627 0.0
H13 H 0.22032 0.83159 0.65721 0.0
C14 C 0.25963 0.86539 0.77353 0.0
C15 C 0.25697 0.84335 0.72773 0.0
C16 C 0.22925 0.89385 0.78424 0.0
C17 C 0.19542 0.89956 0.74875 0.0
C18 C 0.19166 0.87644 0.70315 0.0
C19 C 0.22179 0.84781 0.69308 0.0
N20 N 0.16113 0.88464 0.66561 0.0
C21 C 0.16399 0.93021 0.655 0.0
H22 H 0.7594 0.39917 1.02139 0.0
H23 H 0.75245 0.50805 0.92478 0.0
H24 H 0.6326 0.37095 0.92071 0.0
C25 C 0.74062 0.41101 0.99261 0.0
C26 C 0.69319 0.37906 0.97368 0.0
C27 C 0.76366 0.45794 0.97594 0.0
C28 C 0.73759 0.4723 0.93751 0.0
C29 C 0.69031 0.44057 0.91704 0.0
C30 C 0.66894 0.39481 0.93603 0.0
N31 N 0.65985 0.45225 0.87991 0.0
C32 C 0.67031 0.48907 0.84653 0.0
H33 H 0.86295 0.82108 0.53143 0.0
H34 H 0.97041 0.85451 0.41233 0.0
H35 H 0.84699 0.7187 0.41375 0.0
C36 C 0.87688 0.81067 0.4975 0.0
C37 C 0.85017 0.76529 0.47655 0.0
C38 C 0.92052 0.84325 0.4752 0.0
C39 C 0.93805 0.82926 0.43081 0.0
C40 C 0.91277 0.78416 0.40828 0.0
C41 C 0.86827 0.75241 0.43141 0.0
N42 N 0.92589 0.7773 0.3585 0.0
C43 C 0.93909 0.74032 0.33514 0.0
H44 H 0.78162 0.81632 0.90481 0.0
H45 H 0.6675 0.7835 1.01858 0.0
H46 H 0.67841 0.896 0.92129 0.0
C47 C 0.74761 0.82098 0.92199 0.0
C48 C 0.73089 0.85753 0.90721 0.0
C49 C 0.72552 0.79432 0.96223 0.0
C50 C 0.68413 0.80313 0.98666 0.0
C51 C 0.66629 0.8393 0.97176 0.0
C52 C 0.69031 0.86686 0.93217 0.0
N53 N 0.6262 0.84884 0.99875 0.0
C54 C 0.61777 0.89193 0.998 0.0
H55 H 0.85074 0.21037 0.5033 0.0
H56 H 0.78816 0.19139 0.6477 0.0
H57 H 0.71535 0.2472 0.53859 0.0
C58 C 0.82229 0.21358 0.52955 0.0
C59 C 0.78274 0.23046 0.51516 0.0
C60 C 0.82449 0.19917 0.57707 0.0
C61 C 0.78715 0.20266 0.61091 0.0
C62 C 0.74834 0.2207 0.59775 0.0
C63 C 0.7461 0.2344 0.54965 0.0
N64 N 0.71194 0.22444 0.63341 0.0
C65 C 0.68218 0.25319 0.62724 0.0
H66 H 0.36463 0.8499 0.20603 0.0
H67 H 0.37185 0.74034 0.30143 0.0
H68 H 0.49024 0.87871 0.3082 0.0
C69 C 0.3844 0.83762 0.23378 0.0
C70 C 0.43029 0.87027 0.25443 0.0
C71 C 0.36291 0.7901 0.24899 0.0
C72 C 0.38748 0.77613 0.28872 0.0
C73 C 0.43341 0.80857 0.31083 0.0
C74 C 0.45419 0.85472 0.29253 0.0
N75 N 0.46246 0.79795 0.3499 0.0
C76 C 0.45384 0.75922 0.3806 0.0
H77 H 0.27358 0.42305 0.696 0.0
H78 H 0.2875 0.52777 0.81113 0.0
H79 H 0.16981 0.38934 0.81784 0.0
C80 C 0.25957 0.43393 0.72963 0.0
C81 C 0.2178 0.40059 0.75353 0.0
C82 C 0.28559 0.48 0.74946 0.0
C83 C 0.26752 0.4932 0.79459 0.0
C84 C 0.2248 0.46073 0.81928 0.0
C85 C 0.20123 0.41465 0.79839 0.0
N86 N 0.21194 0.4685 0.86898 0.0
C87 C 0.19703 0.50496 0.89141 0.0
La88 La 0.08195 0.14179 0.56636 0.0
La89 La 0.06429 0.09972 0.66285 0.0
C90 C 0.0911 0.19268 0.49399 0.0
C91 C 0.13823 0.22609 0.47243 0.0
C92 C 0.18559 0.21721 0.47405 0.0
C93 C 0.23008 0.24753 0.45217 0.0
C94 C 0.22853 0.28788 0.42886 0.0
C95 C 0.18167 0.29803 0.4293 0.0
C96 C 0.13668 0.2671 0.45073 0.0
C97 C 0.15484 0.10701 0.59386 0.0
C98 C 0.12483 0.20812 0.66164 0.0
C99 C 0.05025 1.0499 0.73646 0.0
C100 C 1.00061 1.01978 0.75648 0.0
C101 C 0.95525 1.0062 0.72761 0.0
C102 C 0.90665 0.982 0.74769 0.0
C103 C 0.90277 0.97146 0.79699 0.0
C104 C 0.94828 0.98489 0.82574 0.0
C105 C 0.99697 1.00893 0.80556 0.0
C106 C 0.99161 0.13347 0.63454 0.0
C107 C 1.02253 1.033 0.56807 0.0
O108 O 0.08782 0.14828 0.49107 0.0
O109 O 0.07892 0.20472 0.53716 0.0
O110 O 0.14228 0.11058 0.54952 0.0
O111 O 0.13155 0.1284 0.61983 0.0
O112 O 0.10658 0.20485 0.61666 0.0
O113 O 0.12154 0.16895 0.68431 0.0
O114 O 0.05657 0.0949 0.73832 0.0
O115 O 0.06264 1.03635 0.69403 0.0
O116 O 1.00559 0.1331 0.67887 0.0
O117 O 1.01409 0.11147 0.60871 0.0
O118 O 0.04148 1.03623 0.61275 0.0
O119 O 1.02509 0.07199 0.54543 0.0
H120 H 0.18805 0.18623 0.49139 0.0
H121 H 0.26535 0.23845 0.4522 0.0
H122 H 0.17962 0.32948 0.41265 0.0
H123 H 0.10067 0.27496 0.44999 0.0
H124 H 0.95731 1.01529 0.68978 0.0
H125 H 0.87204 0.97237 0.72502 0.0
H126 H 0.94612 0.97674 0.86382 0.0
H127 H 1.03153 1.01984 0.82839 0.0
La128 La 0.60762 0.13506 0.14045 0.0
La129 La 0.51065 0.11665 0.08992 0.0
C130 C 0.70078 0.1605 0.17059 0.0
C131 C 0.72559 0.18869 0.21384 0.0
C132 C 0.70358 0.22013 0.23616 0.0
C133 C 0.71879 0.2383 0.28293 0.0
C134 C 0.75673 0.22584 0.30773 0.0
C135 C 0.78171 0.19743 0.28395 0.0
C136 C 0.76598 0.17873 0.23729 0.0
C137 C 0.52974 0.06341 0.17779 0.0
C138 C 0.53377 0.18341 0.18407 0.0
C139 C 0.41622 0.09506 1.0642 0.0
C140 C 0.38265 0.06715 1.02484 0.0
C141 C 0.40214 0.06673 0.97769 0.0
C142 C 0.36976 1.03983 0.94077 0.0
C143 C 0.31767 1.01248 0.95055 0.0
C144 C 0.29816 1.01289 0.99771 0.0
C145 C 0.33048 1.04024 1.03461 0.0
C146 C 0.58945 0.18802 1.05292 0.0
C147 C 0.58234 0.06473 1.04817 0.0
O148 O 0.66535 0.11986 0.17989 0.0
O149 O 0.68486 0.18265 0.13749 0.0
O150 O 0.56485 0.09629 0.20261 0.0
O151 O 0.53892 0.07204 0.13332 0.0
O152 O 0.58314 0.18716 0.18017 0.0
O153 O 0.49801 0.15235 0.15673 0.0
O154 O 0.45336 0.13364 1.05192 0.0
O155 O 0.43258 0.07123 0.09517 0.0
O156 O 0.55302 0.15645 1.02803 0.0
O157 O 0.57944 0.17938 0.09724 0.0
O158 O 0.53352 0.06355 1.05059 0.0
O159 O 0.61907 0.09574 0.07513 0.0
H160 H 0.67257 0.22855 0.21867 0.0
H161 H 0.69902 0.26008 0.30072 0.0
H162 H 0.81059 0.18688 0.30276 0.0
H163 H 0.78307 0.15425 0.22079 0.0
H164 H 0.44244 0.08691 0.96944 0.0
H165 H 0.38574 1.03952 0.90474 0.0
H166 H 0.25806 0.99209 1.00592 0.0
H167 H 0.31489 1.04018 0.07086 0.0
La168 La 0.55725 0.58417 0.57944 0.0
La169 La 0.57433 0.66367 0.63986 0.0
C170 C 0.565 0.51561 0.52875 0.0
C171 C 0.5695 0.47 0.54006 0.0
C172 C 0.55498 0.45069 0.58579 0.0
C173 C 0.56668 0.41093 0.59884 0.0
C174 C 0.59345 0.39044 0.56644 0.0
C175 C 0.60554 0.40853 0.51984 0.0
C176 C 0.59359 0.44809 0.50674 0.0
C177 C 0.4723 0.57829 0.63266 0.0
C178 C 0.60948 0.5853 0.68522 0.0
C179 C 0.56222 0.73134 0.68858 0.0
C180 C 0.51686 0.74699 0.69109 0.0
C181 C 0.52324 0.79432 0.70258 0.0
C182 C 0.47969 0.80891 0.70457 0.0
C183 C 0.42944 0.77619 0.69522 0.0
C184 C 0.42323 0.72891 0.68342 0.0
C185 C 0.46669 0.71447 0.68099 0.0
C186 C 0.65969 0.6691 0.58835 0.0
C187 C 0.52044 0.66094 0.53662 0.0
O188 O 0.52055 0.52104 0.53946 0.0
O189 O 0.60489 0.55244 0.54239 0.0
O190 O 0.47217 0.56571 0.58739 0.0
O191 O 0.51945 0.59339 0.64668 0.0
O192 O 0.5975 0.56437 0.64157 0.0
O193 O 0.60108 0.62548 0.6944 0.0
O194 O 0.58618 0.73655 0.64694 0.0
O195 O 0.55448 0.68957 0.70572 0.0
O196 O 0.65903 0.6819 0.63347 0.0
O197 O 0.61288 0.65451 0.57301 0.0
O198 O 0.52052 0.67337 0.58325 0.0
O199 O 0.54168 0.6288 0.52452 0.0
H200 H 0.53674 0.46756 0.61212 0.0
H201 H 0.55763 0.39802 0.63518 0.0
H202 H 0.62598 0.39309 0.49421 0.0
H203 H 0.60514 0.46276 0.47137 0.0
H204 H 0.56173 0.81981 0.71016 0.0
H205 H 0.48506 0.84549 0.71422 0.0
H206 H 0.3848 0.70327 0.67594 0.0
H207 H 0.46109 0.67781 0.67145 0.0
La208 La 0.06145 0.58073 0.13777 0.0
La209 La 0.06889 0.66302 0.08543 0.0
C210 C 0.08464 0.51234 0.16874 0.0
C211 C 0.13579 0.50656 0.17457 0.0
C212 C 0.14172 0.47297 0.20591 0.0
C213 C 0.19044 0.46737 0.21086 0.0
C214 C 0.23394 0.49563 0.18482 0.0
C215 C 0.2278 0.52929 0.15354 0.0
C216 C 0.17917 0.53467 0.14842 0.0
C217 C 1.01235 0.63306 0.184 0.0
C218 C 0.1649 0.67448 0.15102 0.0
C219 C 0.04383 0.72914 1.05207 0.0
C220 C 0.99154 0.73133 1.04191 0.0
C221 C 0.98147 0.74757 0.99731 0.0
C222 C 0.93151 0.74807 0.98665 0.0
C223 C 0.89078 0.73238 1.02048 0.0
C224 C 0.9008 0.71601 0.06508 0.0
C225 C 0.95061 0.71506 0.07556 0.0
C226 C 0.11975 0.61161 1.04032 0.0
C227 C 0.96469 0.57042 0.07299 0.0
O228 O 0.07581 0.54441 0.1971 0.0
O229 O 0.0711 0.51525 0.12396 0.0
O230 O 0.99664 0.58707 0.18241 0.0
O231 O 0.05533 0.64779 0.16106 0.0
O232 O 0.14184 0.62849 0.15753 0.0
O233 O 0.14221 0.69773 0.12439 0.0
O234 O 0.05802 0.6994 1.02469 0.0
O235 O 0.05494 0.72685 0.09772 0.0
O236 O 0.13499 0.65755 1.04258 0.0
O237 O 0.07598 0.59619 1.06207 0.0
O238 O 0.98848 0.61612 0.06606 0.0
O239 O 0.98679 0.54704 0.10012 0.0
H240 H 0.10869 0.45098 0.22632 0.0
H241 H 0.19424 0.44112 0.23516 0.0
H242 H 0.26037 0.5508 0.13229 0.0
H243 H 0.17534 0.56045 0.12354 0.0
H244 H 1.01227 0.7599 0.97075 0.0
H245 H 0.92499 0.76175 0.95236 0.0
H246 H 0.87009 0.70394 0.09176 0.0
H247 H 0.95699 0.70156 0.11001 0.0
C248 C 0.37028 0.34515 0.39297 0.0
C249 C 0.36628 0.35477 0.34405 0.0
C250 C 0.32544 0.32681 0.42134 0.0
C251 C 0.27505 0.3166 0.40145 0.0
H252 H 0.40819 0.35027 0.40886 0.0
H253 H 0.33016 0.3186 0.45859 0.0
S254 S 0.24434 0.3372 0.27504 0.0
N255 N 0.30878 0.35514 0.27726 0.0
N256 N 0.22433 0.31933 0.32999 0.0
C257 C 0.27084 0.32824 0.35305 0.0
C258 C 0.31654 0.34751 0.32443 0.0
C259 C 0.25776 0.97275 0.8267 0.0
C260 C 0.23994 0.92318 0.82949 0.0
C261 C 0.28031 1.00172 0.86705 0.0
C262 C 0.28515 0.98204 0.91153 0.0
H263 H 0.25762 0.98917 0.79235 0.0
H264 H 0.29619 1.03969 0.86289 0.0
S265 S 0.2389 0.85449 0.93887 0.0
N266 N 0.22414 0.85575 0.88109 0.0
N267 N 0.26652 0.91034 0.95716 0.0
C268 C 0.26409 0.93271 0.91569 0.0
C269 C 0.24149 0.90321 0.87453 0.0
C270 C 0.64693 0.55671 0.81322 0.0
C271 C 0.66273 0.51698 0.80537 0.0
C272 C 0.63131 0.57899 0.77441 0.0
C273 C 0.62986 0.5624 0.72555 0.0
H274 H 0.64515 0.57 0.84991 0.0
H275 H 0.61878 0.60884 0.78316 0.0
S276 S 0.6694 0.46019 0.68519 0.0
N277 N 0.67724 0.46277 0.74465 0.0
N278 N 0.64827 0.50392 0.67239 0.0
C279 C 0.6467 0.52314 0.71733 0.0
C280 C 0.66287 0.50072 0.75687 0.0
C281 C 0.93129 0.66459 0.28738 0.0
C282 C 0.95885 0.71265 0.29906 0.0
C283 C 0.94862 0.63952 0.25026 0.0
C284 C 0.99412 0.66127 0.22257 0.0
H285 H 0.89576 0.64622 0.30676 0.0
H286 H 0.92586 0.60262 0.24307 0.0
S287 S 0.08002 0.78688 0.2384 0.0
N288 N 1.03384 0.78104 0.27938 0.0
N289 N 0.06604 0.73459 0.21047 0.0
C290 C 1.02177 0.70942 0.234 0.0
C291 C 1.00426 0.73479 0.27184 0.0
C292 C 0.54167 0.30129 0.2431 0.0
C293 C 0.48896 0.29504 0.25268 0.0
C294 C 0.55647 0.26387 0.22403 0.0
C295 C 0.51892 0.2191 0.21318 0.0
H296 H 0.57148 0.33567 0.24921 0.0
H297 H 0.59726 0.27089 0.2154 0.0
S298 S 0.37604 0.18378 0.23431 0.0
N299 N 0.39939 0.24011 0.25177 0.0
N300 N 0.42721 0.16988 0.21668 0.0
C301 C 0.4664 0.21189 0.22471 0.0
C302 C 0.4514 0.24984 0.2442 0.0
C303 C 0.16415 0.98479 0.59123 0.0
C304 C 0.16834 0.97687 0.64047 0.0
C305 C 0.16394 1.02866 0.57603 0.0
C306 C 0.16722 0.06567 0.60979 0.0
H307 H 0.1593 0.95646 0.5644 0.0
H308 H 0.15825 1.03259 0.53781 0.0
S309 S 0.18794 0.06443 0.7423 0.0
N310 N 0.18247 1.01048 0.72247 0.0
N311 N 0.18192 0.09335 0.694 0.0
C312 C 0.17537 1.0591 0.65887 0.0
C313 C 0.17571 1.01436 0.67428 0.0
C314 C 0.82432 0.48527 1.04997 0.0
C315 C 0.81418 0.49056 1.00041 0.0
C316 C 0.8725 0.51076 0.07285 0.0
C317 C 0.91285 0.54477 1.04837 0.0
H318 H 0.79477 0.4609 0.07192 0.0
H319 H 0.87792 0.50407 0.11042 0.0
S320 S 0.9081 0.57581 0.91972 0.0
N321 N 0.85098 0.53409 0.92817 0.0
N322 N 0.9391 0.5841 0.97225 0.0
C323 C 0.90298 0.55244 0.99974 0.0
C324 C 0.85447 0.5252 0.9757 0.0
C325 C 0.75246 0.71678 0.48046 0.0
C326 C 0.80245 0.73344 0.50253 0.0
C327 C 0.70645 0.69416 0.50748 0.0
C328 C 0.70841 0.68731 0.55779 0.0
H329 H 0.74858 0.72324 0.44254 0.0
H330 H 0.66896 0.68373 0.48919 0.0
S331 S 0.82989 0.71887 0.63159 0.0
N332 N 0.85081 0.73711 0.57696 0.0
N333 N 0.76565 0.69541 0.6271 0.0
C334 C 0.75841 0.7016 0.57944 0.0
C335 C 0.80489 0.72438 0.55211 0.0
C336 C 0.3361 0.43566 0.18523 0.0
C337 C 0.38256 0.47354 0.19459 0.0
C338 C 0.2881 0.4431 0.18248 0.0
C339 C 0.28518 0.48875 0.1888 0.0
H340 H 0.33676 0.39993 0.18055 0.0
H341 H 0.25309 0.41296 0.17499 0.0
S342 S 0.39621 0.59929 0.21622 0.0
N343 N 0.4233 0.55777 0.21158 0.0
N344 N 0.33306 0.57219 0.20623 0.0
C345 C 0.33168 0.52694 0.19829 0.0
C346 C 0.38049 0.5192 0.2013 0.0
C347 C 0.61311 0.31111 1.00151 0.0
C348 C 0.66783 0.32988 0.99424 0.0
C349 C 0.58838 0.26578 1.02077 0.0
C350 C 0.61698 0.23683 1.03431 0.0
H351 H 0.58891 0.33183 0.99268 0.0
H352 H 0.54633 0.2533 1.02526 0.0
S353 S 0.76008 0.26623 1.02061 0.0
N354 N 0.74908 0.31315 1.00041 0.0
N355 N 0.7027 0.22937 1.03756 0.0
C356 C 0.67137 0.25466 1.02726 0.0
C357 C 0.69667 0.30064 1.00718 0.0
C358 C 1.00056 0.91033 0.5075 0.0
C359 C 0.94631 0.8924 0.4978 0.0
C360 C 1.02471 0.95531 0.53061 0.0
C361 C 0.9961 0.98505 0.54411 0.0
H362 H 1.02447 0.88902 0.49797 0.0
H363 H 0.06628 0.96705 0.53747 0.0
S364 S 0.85347 0.95597 0.52647 0.0
N365 N 0.865 0.90899 0.50372 0.0
N366 N 0.91045 0.993 0.54591 0.0
C367 C 0.94213 0.96787 0.53415 0.0
C368 C 0.91732 0.92185 0.51144 0.0
C369 C 0.30123 0.78445 0.74021 0.0
C370 C 0.29699 0.82244 0.71435 0.0
C371 C 0.34349 0.76855 0.73253 0.0
C372 C 0.38321 0.79092 0.69957 0.0
H373 H 0.27237 0.76776 0.7673 0.0
H374 H 0.34615 0.73974 0.75377 0.0
S375 S 0.38934 0.89115 0.62232 0.0
N376 N 0.33495 0.88126 0.65376 0.0
N377 N 0.41486 0.85162 0.63975 0.0
C378 C 0.3788 0.82826 0.67281 0.0
C379 C 0.33547 0.84397 0.68009 0.0
C380 C 0.7925 0.9368 0.88759 0.0
C381 C 0.76336 0.89046 0.87175 0.0
C382 C 0.83617 0.964 0.8616 0.0
C383 C 0.85162 0.94584 0.8188 0.0
H384 H 0.78416 0.9506 0.92226 0.0
H385 H 0.85953 0.99855 0.87631 0.0
S386 S 0.78389 0.82882 0.75912 0.0
N387 N 0.74935 0.82939 0.80846 0.0
N388 N 0.83145 0.88067 0.75927 0.0
C389 C 0.82016 0.90115 0.8005 0.0
C390 C 0.77591 0.87339 0.8271 0.0
C391 C 0.72666 0.21801 0.44133 0.0
C392 C 0.7763 0.23821 0.46301 0.0
C393 C 0.72048 0.21683 0.391 0.0
C394 C 0.76372 0.23535 0.36048 0.0
H395 H 0.69267 0.20046 0.46306 0.0
H396 H 0.68196 0.19881 0.37572 0.0
S397 S 0.9005 0.29872 0.39885 0.0
N398 N 0.86841 0.28296 0.45009 0.0
N399 N 0.8567 0.27874 0.35504 0.0
C400 C 0.81301 0.25806 0.3815 0.0
C401 C 0.8193 0.26004 0.43289 0.0
C402 C 0.48439 0.69428 0.41014 0.0
C403 C 0.4628 0.7301 0.42006 0.0
C404 C 0.50138 0.67159 0.44774 0.0
C405 C 0.49828 0.68375 0.49748 0.0
H406 H 0.48973 0.68457 0.37284 0.0
H407 H 0.51838 0.64495 0.43742 0.0
S408 S 0.44398 0.77519 0.54324 0.0
N409 N 0.43869 0.77623 0.48369 0.0
N410 N 0.47011 0.73419 0.55368 0.0
C411 C 0.47572 0.71902 0.50776 0.0
C412 C 0.45831 0.74198 0.46941 0.0
C413 C 0.12976 0.51212 0.95165 0.0
C414 C 0.17714 0.53336 0.92661 0.0
C415 C 0.11169 0.53695 0.98846 0.0
C416 C 0.14013 0.58443 1.00226 0.0
H417 H 0.10652 0.4756 0.94308 0.0
H418 H 0.07497 0.51874 1.00612 0.0
S419 S 0.26786 0.65599 0.94942 0.0
N420 N 0.25272 0.60451 0.9196 0.0
N421 N 0.21945 0.65102 0.98772 0.0
C422 C 0.18782 0.60586 0.97756 0.0
C423 C 0.20612 0.5805 0.94021 0.0
C424 C 0.5597 0.93927 1.00236 0.0
C425 C 0.61035 0.93721 1.00163 0.0
C426 C 0.5513 0.98199 1.01334 0.0
C427 C 0.59334 1.02397 1.0246 0.0
H428 H 0.52622 0.9073 0.99655 0.0
H429 H 0.51127 0.9812 1.01598 0.0
S430 S 0.73413 1.03725 1.02082 0.0
N431 N 0.70333 0.98054 1.00777 0.0
N432 N 0.68807 0.06109 1.0288 0.0
C433 C 0.6445 1.02263 1.02062 0.0
C434 C 0.65287 0.97908 1.00915 0.0
C435 C 0.89379 0.19714 0.63493 0.0
C436 C 0.86611 0.18077 0.59136 0.0
C437 C 0.93435 0.18142 0.64858 0.0
C438 C 0.94908 0.14939 0.61882 0.0
H439 H 0.88457 0.22281 0.65835 0.0
H440 H 0.95475 0.19496 0.6824 0.0
S441 S 0.88733 0.09377 0.50249 0.0
N442 N 0.85419 0.1283 0.52003 0.0
N443 N 0.93242 0.1009 0.54454 0.0
C444 C 0.92184 0.13265 0.57525 0.0
C445 C 0.87979 0.14781 0.56181 0.0
C446 C 0.27252 0.72474 0.24842 0.0
C447 C 0.31449 0.75653 0.22287 0.0
C448 C 0.22509 0.69723 0.22491 0.0
C449 C 0.21689 0.70073 0.17488 0.0
H450 H 0.27556 0.72214 0.28725 0.0
H451 H 0.19385 0.67428 0.24651 0.0
S452 S 0.31603 0.77182 0.08924 0.0
N453 N 0.34595 0.78376 0.14237 0.0
N454 N 0.25659 0.7349 0.09988 0.0
C455 C 0.25892 0.7307 0.14861 0.0
C456 C 0.30755 0.75768 0.17205 0.0
C457 C 0.3303 0.51506 0.67149 0.0
C458 C 0.33268 0.51199 0.72238 0.0
C459 C 0.375 0.53791 0.64357 0.0
C460 C 0.42489 0.55912 0.66478 0.0
H461 H 0.29348 0.49842 0.65266 0.0
H462 H 0.3705 0.5378 0.6046 0.0
S463 S 0.4533 0.56405 0.79669 0.0
N464 N 0.38986 0.53446 0.7929 0.0
N465 N 0.47332 0.57771 0.74069 0.0
C466 C 0.42773 0.55832 0.71582 0.0
C467 C 0.38198 0.53485 0.74442 0.0
C468 C 0.77739 0.7779 1.0288 0.0
C469 C 0.75387 0.76504 0.98287 0.0
C470 C 0.81943 0.76397 1.04242 0.0
C471 C 0.8393 0.73691 1.01044 0.0
H472 H 0.76658 0.80248 1.0525 0.0
H473 H 0.83909 0.77763 0.07653 0.0
S474 S 0.78389 0.68564 0.8907 0.0
N475 N 0.7477 0.71732 0.90893 0.0
N476 N 0.82689 0.69125 0.93448 0.0
C477 C 0.81262 0.71979 0.96664 0.0
C478 C 0.7697 0.7337 0.95293 0.0
C479 C 0.45731 0.92849 0.1851 0.0
C480 C 0.45364 0.92027 0.23548 0.0
C481 C 0.48054 0.97452 0.16667 0.0
C482 C 0.50125 1.01492 0.19761 0.0
H483 H 0.44316 0.89886 0.15945 0.0
H484 H 0.48321 0.97827 0.12773 0.0
S485 S 0.49725 1.01445 0.33226 0.0
N486 N 0.46977 0.95813 0.31573 0.0
N487 N 0.51337 1.04349 0.28149 0.0
C488 C 0.49651 1.00742 0.24794 0.0
C489 C 0.47292 0.96066 0.26668 0.0
C490 C 0.17952 0.34391 0.6819 0.0
C491 C 0.19308 0.35088 0.73158 0.0
C492 C 0.15786 0.29817 0.65997 0.0
C493 C 0.14906 0.25657 0.68629 0.0
H494 H 0.18532 0.3743 0.65958 0.0
H495 H 0.14809 0.29556 0.62182 0.0
S496 S 0.17935 0.25446 0.81725 0.0
N497 N 0.19699 0.31143 0.80617 0.0
N498 N 0.1567 0.22612 0.76544 0.0
C499 C 0.16279 0.26298 0.73599 0.0
C500 C 0.18449 0.30968 0.75842 0.0
C501 C 0.68961 0.32848 0.59224 0.0
C502 C 0.65853 0.28718 0.61448 0.0
C503 C 0.6679 0.36148 0.57664 0.0
C504 C 0.61437 0.35413 0.58284 0.0
H505 H 0.73094 0.33517 0.5865 0.0
H506 H 0.69331 0.39321 0.55995 0.0
S507 S 0.51669 0.25071 0.63896 0.0
N508 N 0.57221 0.2399 0.64206 0.0
N509 N 0.53082 0.30222 0.6127 0.0
C510 C 0.58296 0.3129 0.60548 0.0
C511 C 0.60522 0.27919 0.62125 0.0
loop_
_geom_bond_atom_site_label_1
_geom_bond_atom_site_label_2
_geom_bond_distance
_geom_bond_site_symmetry_2
_ccdc_geom_bond_type
H0 C3 0.929 . S
H1 C6 0.929 . S
H2 C8 0.930 . S
C3 H0 0.929 . S
C3 C4 1.398 . S
C3 C5 1.396 . S
C4 C3 1.398 . S
C4 C8 1.407 . S
C5 C3 1.396 . S
C5 C6 1.394 . S
C6 H1 0.929 . S
C6 C5 1.394 . S
C6 C7 1.382 . S
C7 C6 1.382 . S
C7 C8 1.392 . S
C7 N9 1.420 . S
C8 H2 0.930 . S
C8 C4 1.407 . S
C8 C7 1.392 . S
N9 C7 1.420 . S
N9 C10 1.244 . S
C10 N9 1.244 . S
H11 C14 0.929 . S
H12 C17 0.929 . S
H13 C19 0.930 . S
C14 H11 0.929 . S
C14 C15 1.398 . S
C14 C16 1.396 . S
C15 C14 1.398 . S
C15 C19 1.407 . S
C16 C14 1.396 . S
C16 C17 1.394 . S
C17 H12 0.929 . S
C17 C16 1.394 . S
C17 C18 1.382 . S
C18 C17 1.382 . S
C18 C19 1.392 . S
C18 N20 1.420 . S
C19 H13 0.930 . S
C19 C15 1.407 . S
C19 C18 1.392 . S
N20 C18 1.420 . S
N20 C21 1.244 . S
C21 N20 1.244 . S
H22 C25 0.929 . S
H23 C28 0.929 . S
H24 C30 0.930 . S
C25 H22 0.929 . S
C25 C26 1.398 . S
C25 C27 1.396 . S
C26 C25 1.398 . S
C26 C30 1.407 . S
C27 C25 1.396 . S
C27 C28 1.394 . S
C28 H23 0.929 . S
C28 C27 1.394 . S
C28 C29 1.382 . S
C29 C28 1.382 . S
C29 C30 1.392 . S
C29 N31 1.420 . S
C30 H24 0.930 . S
C30 C26 1.407 . S
C30 C29 1.392 . S
N31 C29 1.420 . S
N31 C32 1.244 . S
C32 N31 1.244 . S
H33 C36 0.929 . S
H34 C39 0.929 . S
H35 C41 0.930 . S
C36 H33 0.929 . S
C36 C37 1.398 . S
C36 C38 1.396 . S
C37 C36 1.398 . S
C37 C41 1.407 . S
C38 C36 1.396 . S
C38 C39 1.394 . S
C39 H34 0.929 . S
C39 C38 1.394 . S
C39 C40 1.382 . S
C40 C39 1.382 . S
C40 C41 1.392 . S
C40 N42 1.420 . S
C41 H35 0.930 . S
C41 C37 1.407 . S
C41 C40 1.392 . S
N42 C40 1.420 . S
N42 C43 1.244 . S
C43 N42 1.244 . S
H44 C47 0.929 . S
H45 C50 0.929 . S
H46 C52 0.930 . S
C47 H44 0.929 . S
C47 C48 1.398 . S
C47 C49 1.396 . S
C48 C47 1.398 . S
C48 C52 1.407 . S
C49 C47 1.396 . S
C49 C50 1.394 . S
C50 H45 0.929 . S
C50 C49 1.394 . S
C50 C51 1.382 . S
C51 C50 1.382 . S
C51 C52 1.392 . S
C51 N53 1.420 . S
C52 H46 0.930 . S
C52 C48 1.407 . S
C52 C51 1.392 . S
N53 C51 1.420 . S
N53 C54 1.244 . S
C54 N53 1.244 . S
H55 C58 0.929 . S
H56 C61 0.929 . S
H57 C63 0.930 . S
C58 H55 0.929 . S
C58 C59 1.398 . S
C58 C60 1.396 . S
C59 C58 1.398 . S
C59 C63 1.407 . S
C60 C58 1.396 . S
C60 C61 1.394 . S
C61 H56 0.929 . S
C61 C60 1.394 . S
C61 C62 1.382 . S
C62 C61 1.382 . S
C62 C63 1.392 . S
C62 N64 1.420 . S
C63 H57 0.930 . S
C63 C59 1.407 . S
C63 C62 1.392 . S
N64 C62 1.420 . S
N64 C65 1.244 . S
C65 N64 1.244 . S
H66 C69 0.929 . S
H67 C72 0.929 . S
H68 C74 0.930 . S
C69 H66 0.929 . S
C69 C70 1.398 . S
C69 C71 1.396 . S
C70 C69 1.398 . S
C70 C74 1.407 . S
C71 C69 1.396 . S
C71 C72 1.394 . S
C72 H67 0.929 . S
C72 C71 1.394 . S
C72 C73 1.382 . S
C73 C72 1.382 . S
C73 C74 1.392 . S
C73 N75 1.420 . S
C74 H68 0.930 . S
C74 C70 1.407 . S
C74 C73 1.392 . S
N75 C73 1.420 . S
N75 C76 1.244 . S
C76 N75 1.244 . S
H77 C80 0.929 . S
H78 C83 0.929 . S
H79 C85 0.930 . S
C80 H77 0.929 . S
C80 C81 1.398 . S
C80 C82 1.396 . S
C81 C80 1.398 . S
C81 C85 1.407 . S
C82 C80 1.396 . S
C82 C83 1.394 . S
C83 H78 0.929 . S
C83 C82 1.394 . S
C83 C84 1.382 . S
C84 C83 1.382 . S
C84 C85 1.392 . S
C84 N86 1.420 . S
C85 H79 0.930 . S
C85 C81 1.407 . S
C85 C84 1.392 . S
N86 C84 1.420 . S
N86 C87 1.244 . S
C87 N86 1.244 . S
La88 C90 2.928 . S
La88 O108 2.521 . S
La88 O109 2.628 . S
La88 O110 2.554 . S
La88 O111 2.763 . S
La88 O112 2.470 . S
La88 O117 2.482 1_455 S
La88 O119 2.503 1_445 S
La89 C99 2.928 1_545 S
La89 O111 2.489 1_655 S
La89 O113 2.503 1_655 S
La89 O114 2.521 1_545 S
La89 O115 2.628 1_545 S
La89 O116 2.554 . S
La89 O117 2.757 . S
La89 O118 2.470 1_545 S
C90 La88 2.928 . S
C90 C91 1.503 . S
C90 O108 1.261 . S
C90 O109 1.243 . S
C91 C90 1.503 . S
C91 C92 1.394 . S
C91 C96 1.373 . S
C92 C91 1.394 . S
C92 C93 1.380 . S
C92 H120 0.930 . S
C93 C92 1.380 . S
C93 C94 1.376 . S
C93 H121 0.930 . S
C94 C93 1.376 . S
C94 C95 1.370 . S
C95 C94 1.370 . S
C95 C96 1.396 . S
C95 H122 0.929 . S
C96 C91 1.373 . S
C96 C95 1.396 . S
C96 H123 0.929 . S
C97 O110 1.240 1_565 S
C97 O111 1.284 1_565 S
C98 O112 1.258 . S
C98 O113 1.256 . S
C99 La89 2.928 1_565 S
C99 C100 1.503 . S
C99 O114 1.261 . S
C99 O115 1.243 . S
C100 C99 1.503 . S
C100 C101 1.394 . S
C100 C105 1.373 . S
C101 C100 1.394 . S
C101 C102 1.380 . S
C101 H124 0.930 . S
C102 C101 1.380 . S
C102 C103 1.376 . S
C102 H125 0.930 . S
C103 C102 1.376 . S
C103 C104 1.370 . S
C104 C103 1.370 . S
C104 C105 1.396 . S
C104 H126 0.929 . S
C105 C100 1.373 . S
C105 C104 1.396 . S
C105 H127 0.929 . S
C106 O116 1.240 . S
C106 O117 1.289 . S
C107 O118 1.258 . S
C107 O119 1.256 . S
O108 La88 2.521 . S
O108 C90 1.261 . S
O109 La88 2.628 . S
O109 C90 1.243 . S
O110 La88 2.554 . S
O110 C97 1.240 1_545 S
O111 La88 2.763 . S
O111 La89 2.489 1_455 S
O111 C97 1.284 1_545 S
O112 La88 2.470 . S
O112 C98 1.258 . S
O113 La89 2.503 1_455 S
O113 C98 1.256 . S
O114 La89 2.521 1_565 S
O114 C99 1.261 . S
O115 La89 2.628 1_565 S
O115 C99 1.243 . S
O116 La89 2.554 . S
O116 C106 1.240 . S
O117 La88 2.482 1_655 S
O117 La89 2.757 . S
O117 C106 1.289 . S
O118 La89 2.470 1_565 S
O118 C107 1.258 . S
O119 La88 2.503 1_665 S
O119 C107 1.256 . S
H120 C92 0.930 . S
H121 C93 0.930 . S
H122 C95 0.929 . S
H123 C96 0.929 . S
H124 C101 0.930 . S
H125 C102 0.930 . S
H126 C104 0.929 . S
H127 C105 0.929 . S
La128 C130 2.928 . S
La128 O148 2.521 . S
La128 O149 2.628 . S
La128 O150 2.554 1_545 S
La128 O151 2.757 1_545 S
La128 O152 2.470 . S
La128 O157 2.482 . S
La128 O159 2.503 1_545 S
La129 C139 2.928 1_544 S
La129 O151 2.482 1_545 S
La129 O153 2.503 . S
La129 O154 2.521 1_554 S
La129 O155 2.628 1_544 S
La129 O156 2.554 1_554 S
La129 O157 2.757 . S
La129 O158 2.470 1_554 S
C130 La128 2.928 . S
C130 C131 1.503 . S
C130 O148 1.261 . S
C130 O149 1.243 . S
C131 C130 1.503 . S
C131 C132 1.394 . S
C131 C136 1.373 . S
C132 C131 1.394 . S
C132 C133 1.380 . S
C132 H160 0.930 . S
C133 C132 1.380 . S
C133 C134 1.376 . S
C133 H161 0.930 . S
C134 C133 1.376 . S
C134 C135 1.370 . S
C135 C134 1.370 . S
C135 C136 1.396 . S
C135 H162 0.929 . S
C136 C131 1.373 . S
C136 C135 1.396 . S
C136 H163 0.929 . S
C137 O150 1.240 . S
C137 O151 1.289 . S
C138 O152 1.258 . S
C138 O153 1.256 . S
C139 La129 2.928 1_566 S
C139 C140 1.503 . S
C139 O154 1.261 1_565 S
C139 O155 1.243 . S
C140 C139 1.503 . S
C140 C141 1.394 . S
C140 C145 1.373 . S
C141 C140 1.394 . S
C141 C142 1.380 . S
C141 H164 0.930 1_565 S
C142 C141 1.380 . S
C142 C143 1.376 . S
C142 H165 0.930 . S
C143 C142 1.376 . S
C143 C144 1.370 . S
C144 C143 1.370 . S
C144 C145 1.396 . S
C144 H166 0.929 . S
C145 C140 1.373 . S
C145 C144 1.396 . S
C145 H167 0.929 . S
C146 O156 1.240 1_554 S
C146 O157 1.289 . S
C147 O158 1.258 1_564 S
C147 O159 1.256 . S
O148 La128 2.521 . S
O148 C130 1.261 . S
O149 La128 2.628 . S
O149 C130 1.243 . S
O150 La128 2.554 1_565 S
O150 C137 1.240 . S
O151 La128 2.757 1_565 S
O151 La129 2.482 1_565 S
O151 C137 1.289 . S
O152 La128 2.470 . S
O152 C138 1.258 . S
O153 La129 2.503 . S
O153 C138 1.256 . S
O154 La129 2.521 1_556 S
O154 C139 1.261 1_545 S
O155 La129 2.628 1_566 S
O155 C139 1.243 . S
O156 La129 2.554 1_556 S
O156 C146 1.240 1_556 S
O157 La128 2.482 . S
O157 La129 2.757 . S
O157 C146 1.289 . S
O158 La129 2.470 1_556 S
O158 C147 1.258 1_546 S
O159 La128 2.503 1_565 S
O159 C147 1.256 . S
H160 C132 0.930 . S
H161 C133 0.930 . S
H162 C135 0.929 . S
H163 C136 0.929 . S
H164 C141 0.930 1_545 S
H165 C142 0.930 . S
H166 C144 0.929 . S
H167 C145 0.929 . S
La168 C170 2.928 . S
La168 O188 2.521 . S
La168 O189 2.628 . S
La168 O190 2.554 . S
La168 O191 2.757 . S
La168 O192 2.470 . S
La168 O197 2.482 . S
La168 O199 2.503 . S
La169 C179 2.928 . S
La169 O191 2.482 . S
La169 O193 2.503 . S
La169 O194 2.521 . S
La169 O195 2.628 . S
La169 O196 2.554 . S
La169 O197 2.757 . S
La169 O198 2.470 . S
C170 La168 2.928 . S
C170 C171 1.503 . S
C170 O188 1.261 . S
C170 O189 1.243 . S
C171 C170 1.503 . S
C171 C172 1.394 . S
C171 C176 1.373 . S
C172 C171 1.394 . S
C172 C173 1.380 . S
C172 H200 0.930 . S
C173 C172 1.380 . S
C173 C174 1.376 . S
C173 H201 0.930 . S
C174 C173 1.376 . S
C174 C175 1.370 . S
C175 C174 1.370 . S
C175 C176 1.396 . S
C175 H202 0.929 . S
C176 C171 1.373 . S
C176 C175 1.396 . S
C176 H203 0.929 . S
C177 O190 1.240 . S
C177 O191 1.289 . S
C178 O192 1.258 . S
C178 O193 1.256 . S
C179 La169 2.928 . S
C179 C180 1.503 . S
C179 O194 1.261 . S
C179 O195 1.243 . S
C180 C179 1.503 . S
C180 C181 1.394 . S
C180 C185 1.373 . S
C181 C180 1.394 . S
C181 C182 1.380 . S
C181 H204 0.930 . S
C182 C181 1.380 . S
C182 C183 1.376 . S
C182 H205 0.930 . S
C183 C182 1.376 . S
C183 C184 1.370 . S
C184 C183 1.370 . S
C184 C185 1.396 . S
C184 H206 0.929 . S
C185 C180 1.373 . S
C185 C184 1.396 . S
C185 H207 0.929 . S
C186 O196 1.240 . S
C186 O197 1.289 . S
C187 O198 1.258 . S
C187 O199 1.256 . S
O188 La168 2.521 . S
O188 C170 1.261 . S
O189 La168 2.628 . S
O189 C170 1.243 . S
O190 La168 2.554 . S
O190 C177 1.240 . S
O191 La168 2.757 . S
O191 La169 2.482 . S
O191 C177 1.289 . S
O192 La168 2.470 . S
O192 C178 1.258 . S
O193 La169 2.503 . S
O193 C178 1.256 . S
O194 La169 2.521 . S
O194 C179 1.261 . S
O195 La169 2.628 . S
O195 C179 1.243 . S
O196 La169 2.554 . S
O196 C186 1.240 . S
O197 La168 2.482 . S
O197 La169 2.757 . S
O197 C186 1.289 . S
O198 La169 2.470 . S
O198 C187 1.258 . S
O199 La168 2.503 . S
O199 C187 1.256 . S
H200 C172 0.930 . S
H201 C173 0.930 . S
H202 C175 0.929 . S
H203 C176 0.929 . S
H204 C181 0.930 . S
H205 C182 0.930 . S
H206 C184 0.929 . S
H207 C185 0.929 . S
La208 C210 2.928 . S
La208 O228 2.521 . S
La208 O229 2.628 . S
La208 O230 2.554 1_455 S
La208 O231 2.757 1_455 S
La208 O232 2.470 . S
La208 O237 2.482 1_554 S
La208 O239 2.503 1_455 S
La209 C219 2.928 1_455 S
La209 O231 2.482 1_456 S
La209 O233 2.503 1_556 S
La209 O234 2.521 1_455 S
La209 O235 2.628 1_455 S
La209 O236 2.554 . S
La209 O237 2.757 . S
La209 O238 2.470 1_455 S
C210 La208 2.928 . S
C210 C211 1.503 . S
C210 O228 1.261 . S
C210 O229 1.243 . S
C211 C210 1.503 . S
C211 C212 1.394 . S
C211 C216 1.373 . S
C212 C211 1.394 . S
C212 C213 1.380 . S
C212 H240 0.930 . S
C213 C212 1.380 . S
C213 C214 1.376 . S
C213 H241 0.930 . S
C214 C213 1.376 . S
C214 C215 1.370 . S
C215 C214 1.370 . S
C215 C216 1.396 . S
C215 H242 0.929 . S
C216 C211 1.373 . S
C216 C215 1.396 . S
C216 H243 0.929 . S
C217 O230 1.240 . S
C217 O231 1.289 . S
C218 O232 1.258 . S
C218 O233 1.256 . S
C219 La209 2.928 1_655 S
C219 C220 1.503 . S
C219 O234 1.261 . S
C219 O235 1.243 . S
C220 C219 1.503 . S
C220 C221 1.394 . S
C220 C225 1.373 . S
C221 C220 1.394 . S
C221 C222 1.380 . S
C221 H244 0.930 . S
C222 C221 1.380 . S
C222 C223 1.376 . S
C222 H245 0.930 . S
C223 C222 1.376 . S
C223 C224 1.370 . S
C224 C223 1.370 . S
C224 C225 1.396 . S
C224 H246 0.929 . S
C225 C220 1.373 . S
C225 C224 1.396 . S
C225 H247 0.929 . S
C226 O236 1.240 . S
C226 O237 1.289 . S
C227 O238 1.258 . S
C227 O239 1.256 1_556 S
O228 La208 2.521 . S
O228 C210 1.261 . S
O229 La208 2.628 . S
O229 C210 1.243 . S
O230 La208 2.554 1_655 S
O230 C217 1.240 . S
O231 La208 2.757 1_655 S
O231 La209 2.482 1_654 S
O231 C217 1.289 . S
O232 La208 2.470 . S
O232 C218 1.258 . S
O233 La209 2.503 1_554 S
O233 C218 1.256 . S
O234 La209 2.521 1_655 S
O234 C219 1.261 . S
O235 La209 2.628 1_655 S
O235 C219 1.243 . S
O236 La209 2.554 . S
O236 C226 1.240 . S
O237 La208 2.482 1_556 S
O237 La209 2.757 . S
O237 C226 1.289 . S
O238 La209 2.470 1_655 S
O238 C227 1.258 . S
O239 La208 2.503 1_655 S
O239 C227 1.256 1_554 S
H240 C212 0.930 . S
H241 C213 0.930 . S
H242 C215 0.929 . S
H243 C216 0.929 . S
H244 C221 0.930 . S
H245 C222 0.930 . S
H246 C224 0.929 . S
H247 C225 0.929 . S
C248 C249 1.369 . S
C248 C250 1.419 . S
C248 H252 0.930 . S
C249 C248 1.369 . S
C249 C258 1.429 . S
C250 C248 1.419 . S
C250 C251 1.363 . S
C250 H253 0.929 . S
C251 C250 1.363 . S
C251 C257 1.428 . S
H252 C248 0.930 . S
H253 C250 0.929 . S
S254 N255 1.613 . S
S254 N256 1.610 . S
N255 S254 1.613 . S
N255 C258 1.350 . S
N256 S254 1.610 . S
N256 C257 1.351 . S
C257 C251 1.428 . S
C257 N256 1.351 . S
C257 C258 1.434 . S
C258 C249 1.429 . S
C258 N255 1.350 . S
C258 C257 1.434 . S
C259 C260 1.369 . S
C259 C261 1.419 . S
C259 H263 0.930 . S
C260 C259 1.369 . S
C260 C269 1.429 . S
C261 C259 1.419 . S
C261 C262 1.363 . S
C261 H264 0.929 . S
C262 C261 1.363 . S
C262 C268 1.428 . S
H263 C259 0.930 . S
H264 C261 0.929 . S
S265 N266 1.613 . S
S265 N267 1.610 . S
N266 S265 1.613 . S
N266 C269 1.350 . S
N267 S265 1.610 . S
N267 C268 1.351 . S
C268 C262 1.428 . S
C268 N267 1.351 . S
C268 C269 1.434 . S
C269 C260 1.429 . S
C269 N266 1.350 . S
C269 C268 1.434 . S
C270 C271 1.369 . S
C270 C272 1.419 . S
C270 H274 0.930 . S
C271 C270 1.369 . S
C271 C280 1.429 . S
C272 C270 1.419 . S
C272 C273 1.363 . S
C272 H275 0.929 . S
C273 C272 1.363 . S
C273 C279 1.428 . S
H274 C270 0.930 . S
H275 C272 0.929 . S
S276 N277 1.613 . S
S276 N278 1.610 . S
N277 S276 1.613 . S
N277 C280 1.350 . S
N278 S276 1.610 . S
N278 C279 1.351 . S
C279 C273 1.428 . S
C279 N278 1.351 . S
C279 C280 1.434 . S
C280 C271 1.429 . S
C280 N277 1.350 . S
C280 C279 1.434 . S
C281 C282 1.369 . S
C281 C283 1.419 . S
C281 H285 0.930 . S
C282 C281 1.369 . S
C282 C291 1.429 . S
C283 C281 1.419 . S
C283 C284 1.363 . S
C283 H286 0.929 . S
C284 C283 1.363 . S
C284 C290 1.428 . S
H285 C281 0.930 . S
H286 C283 0.929 . S
S287 N288 1.613 1_455 S
S287 N289 1.610 . S
N288 S287 1.613 1_655 S
N288 C291 1.350 . S
N289 S287 1.610 . S
N289 C290 1.351 1_455 S
C290 C284 1.428 . S
C290 N289 1.351 1_655 S
C290 C291 1.434 . S
C291 C282 1.429 . S
C291 N288 1.350 . S
C291 C290 1.434 . S
C292 C293 1.369 . S
C292 C294 1.419 . S
C292 H296 0.930 . S
C293 C292 1.369 . S
C293 C302 1.429 . S
C294 C292 1.419 . S
C294 C295 1.363 . S
C294 H297 0.929 . S
C295 C294 1.363 . S
C295 C301 1.428 . S
H296 C292 0.930 . S
H297 C294 0.929 . S
S298 N299 1.613 . S
S298 N300 1.610 . S
N299 S298 1.613 . S
N299 C302 1.350 . S
N300 S298 1.610 . S
N300 C301 1.351 . S
C301 C295 1.428 . S
C301 N300 1.351 . S
C301 C302 1.434 . S
C302 C293 1.429 . S
C302 N299 1.350 . S
C302 C301 1.434 . S
C303 C304 1.369 . S
C303 C305 1.419 . S
C303 H307 0.930 . S
C304 C303 1.369 . S
C304 C313 1.429 . S
C305 C303 1.419 . S
C305 C306 1.363 . S
C305 H308 0.929 . S
C306 C305 1.363 . S
C306 C312 1.428 . S
H307 C303 0.930 . S
H308 C305 0.929 . S
S309 N310 1.613 1_545 S
S309 N311 1.610 . S
N310 S309 1.613 1_565 S
N310 C313 1.350 . S
N311 S309 1.610 . S
N311 C312 1.351 1_545 S
C312 C306 1.428 . S
C312 N311 1.351 1_565 S
C312 C313 1.434 . S
C313 C304 1.429 . S
C313 N310 1.350 . S
C313 C312 1.434 . S
C314 C315 1.369 . S
C314 C316 1.419 . S
C314 H318 0.930 . S
C315 C314 1.369 . S
C315 C324 1.429 . S
C316 C314 1.419 . S
C316 C317 1.363 . S
C316 H319 0.929 1_556 S
C317 C316 1.363 . S
C317 C323 1.428 . S
H318 C314 0.930 . S
H319 C316 0.929 1_554 S
S320 N321 1.613 . S
S320 N322 1.610 . S
N321 S320 1.613 . S
N321 C324 1.350 . S
N322 S320 1.610 . S
N322 C323 1.351 . S
C323 C317 1.428 . S
C323 N322 1.351 . S
C323 C324 1.434 . S
C324 C315 1.429 . S
C324 N321 1.350 . S
C324 C323 1.434 . S
C325 C326 1.369 . S
C325 C327 1.419 . S
C325 H329 0.930 . S
C326 C325 1.369 . S
C326 C335 1.429 . S
C327 C325 1.419 . S
C327 C328 1.363 . S
C327 H330 0.929 . S
C328 C327 1.363 . S
C328 C334 1.428 . S
H329 C325 0.930 . S
H330 C327 0.929 . S
S331 N332 1.613 . S
S331 N333 1.610 . S
N332 S331 1.613 . S
N332 C335 1.350 . S
N333 S331 1.610 . S
N333 C334 1.351 . S
C334 C328 1.428 . S
C334 N333 1.351 . S
C334 C335 1.434 . S
C335 C326 1.429 . S
C335 N332 1.350 . S
C335 C334 1.434 . S
C336 C337 1.369 . S
C336 C338 1.419 . S
C336 H340 0.930 . S
C337 C336 1.369 . S
C337 C346 1.429 . S
C338 C336 1.419 . S
C338 C339 1.363 . S
C338 H341 0.929 . S
C339 C338 1.363 . S
C339 C345 1.428 . S
H340 C336 0.930 . S
H341 C338 0.929 . S
S342 N343 1.613 . S
S342 N344 1.610 . S
N343 S342 1.613 . S
N343 C346 1.350 . S
N344 S342 1.610 . S
N344 C345 1.351 . S
C345 C339 1.428 . S
C345 N344 1.351 . S
C345 C346 1.434 . S
C346 C337 1.429 . S
C346 N343 1.350 . S
C346 C345 1.434 . S
C347 C348 1.369 . S
C347 C349 1.419 . S
C347 H351 0.930 . S
C348 C347 1.369 . S
C348 C357 1.429 . S
C349 C347 1.419 . S
C349 C350 1.363 . S
C349 H352 0.929 . S
C350 C349 1.363 . S
C350 C356 1.428 . S
H351 C347 0.930 . S
H352 C349 0.929 . S
S353 N354 1.613 1_554 S
S353 N355 1.610 . S
N354 S353 1.613 1_556 S
N354 C357 1.350 . S
N355 S353 1.610 . S
N355 C356 1.351 1_554 S
C356 C350 1.428 . S
C356 N355 1.351 1_556 S
C356 C357 1.434 . S
C357 C348 1.429 . S
C357 N354 1.350 . S
C357 C356 1.434 . S
C358 C359 1.369 . S
C358 C360 1.419 . S
C358 H362 0.930 . S
C359 C358 1.369 . S
C359 C368 1.429 . S
C360 C358 1.419 . S
C360 C361 1.363 . S
C360 H363 0.929 . S
C361 C360 1.363 . S
C361 C367 1.428 . S
H362 C358 0.930 . S
H363 C360 0.929 . S
S364 N365 1.613 . S
S364 N366 1.610 . S
N365 S364 1.613 . S
N365 C368 1.350 . S
N366 S364 1.610 . S
N366 C367 1.351 . S
C367 C361 1.428 . S
C367 N366 1.351 . S
C367 C368 1.434 . S
C368 C359 1.429 . S
C368 N365 1.350 . S
C368 C367 1.434 . S
C369 C370 1.369 . S
C369 C371 1.419 . S
C369 H373 0.930 . S
C370 C369 1.369 . S
C370 C379 1.429 . S
C371 C369 1.419 . S
C371 C372 1.363 . S
C371 H374 0.929 . S
C372 C371 1.363 . S
C372 C378 1.428 . S
H373 C369 0.930 . S
H374 C371 0.929 . S
S375 N376 1.613 . S
S375 N377 1.610 . S
N376 S375 1.613 . S
N376 C379 1.350 . S
N377 S375 1.610 . S
N377 C378 1.351 . S
C378 C372 1.428 . S
C378 N377 1.351 . S
C378 C379 1.434 . S
C379 C370 1.429 . S
C379 N376 1.350 . S
C379 C378 1.434 . S
C380 C381 1.369 . S
C380 C382 1.419 . S
C380 H384 0.930 . S
C381 C380 1.369 . S
C381 C390 1.429 . S
C382 C380 1.419 . S
C382 C383 1.363 . S
C382 H385 0.929 . S
C383 C382 1.363 . S
C383 C389 1.428 . S
H384 C380 0.930 . S
H385 C382 0.929 . S
S386 N387 1.613 . S
S386 N388 1.610 . S
N387 S386 1.613 . S
N387 C390 1.350 . S
N388 S386 1.610 . S
N388 C389 1.351 . S
C389 C383 1.428 . S
C389 N388 1.351 . S
C389 C390 1.434 . S
C390 C381 1.429 . S
C390 N387 1.350 . S
C390 C389 1.434 . S
C391 C392 1.369 . S
C391 C393 1.419 . S
C391 H395 0.930 . S
C392 C391 1.369 . S
C392 C401 1.429 . S
C393 C391 1.419 . S
C393 C394 1.363 . S
C393 H396 0.929 . S
C394 C393 1.363 . S
C394 C400 1.428 . S
H395 C391 0.930 . S
H396 C393 0.929 . S
S397 N398 1.613 . S
S397 N399 1.610 . S
N398 S397 1.613 . S
N398 C401 1.350 . S
N399 S397 1.610 . S
N399 C400 1.351 . S
C400 C394 1.428 . S
C400 N399 1.351 . S
C400 C401 1.434 . S
C401 C392 1.429 . S
C401 N398 1.350 . S
C401 C400 1.434 . S
C402 C403 1.369 . S
C402 C404 1.419 . S
C402 H406 0.930 . S
C403 C402 1.369 . S
C403 C412 1.429 . S
C404 C402 1.419 . S
C404 C405 1.363 . S
C404 H407 0.929 . S
C405 C404 1.363 . S
C405 C411 1.428 . S
H406 C402 0.930 . S
H407 C404 0.929 . S
S408 N409 1.613 . S
S408 N410 1.610 . S
N409 S408 1.613 . S
N409 C412 1.350 . S
N410 S408 1.610 . S
N410 C411 1.351 . S
C411 C405 1.428 . S
C411 N410 1.351 . S
C411 C412 1.434 . S
C412 C403 1.429 . S
C412 N409 1.350 . S
C412 C411 1.434 . S
C413 C414 1.369 . S
C413 C415 1.419 . S
C413 H417 0.930 . S
C414 C413 1.369 . S
C414 C423 1.429 . S
C415 C413 1.419 . S
C415 C416 1.363 . S
C415 H418 0.929 . S
C416 C415 1.363 . S
C416 C422 1.428 . S
H417 C413 0.930 . S
H418 C415 0.929 . S
S419 N420 1.613 . S
S419 N421 1.610 . S
N420 S419 1.613 . S
N420 C423 1.350 . S
N421 S419 1.610 . S
N421 C422 1.351 . S
C422 C416 1.428 . S
C422 N421 1.351 . S
C422 C423 1.434 . S
C423 C414 1.429 . S
C423 N420 1.350 . S
C423 C422 1.434 . S
C424 C425 1.369 . S
C424 C426 1.419 . S
C424 H428 0.930 . S
C425 C424 1.369 . S
C425 C434 1.429 . S
C426 C424 1.419 . S
C426 C427 1.363 . S
C426 H429 0.929 . S
C427 C426 1.363 . S
C427 C433 1.428 . S
H428 C424 0.930 . S
H429 C426 0.929 . S
S430 N431 1.613 1_554 S
S430 N432 1.610 . S
N431 S430 1.613 1_556 S
N431 C434 1.350 . S
N432 S430 1.610 . S
N432 C433 1.351 1_554 S
C433 C427 1.428 . S
C433 N432 1.351 1_556 S
C433 C434 1.434 . S
C434 C425 1.429 . S
C434 N431 1.350 . S
C434 C433 1.434 . S
C435 C436 1.369 . S
C435 C437 1.419 . S
C435 H439 0.930 . S
C436 C435 1.369 . S
C436 C445 1.429 . S
C437 C435 1.419 . S
C437 C438 1.363 . S
C437 H440 0.929 . S
C438 C437 1.363 . S
C438 C444 1.428 . S
H439 C435 0.930 . S
H440 C437 0.929 . S
S441 N442 1.613 . S
S441 N443 1.610 . S
N442 S441 1.613 . S
N442 C445 1.350 . S
N443 S441 1.610 . S
N443 C444 1.351 . S
C444 C438 1.428 . S
C444 N443 1.351 . S
C444 C445 1.434 . S
C445 C436 1.429 . S
C445 N442 1.350 . S
C445 C444 1.434 . S
C446 C447 1.369 . S
C446 C448 1.419 . S
C446 H450 0.930 . S
C447 C446 1.369 . S
C447 C456 1.429 . S
C448 C446 1.419 . S
C448 C449 1.363 . S
C448 H451 0.929 . S
C449 C448 1.363 . S
C449 C455 1.428 . S
H450 C446 0.930 . S
H451 C448 0.929 . S
S452 N453 1.613 . S
S452 N454 1.610 . S
N453 S452 1.613 . S
N453 C456 1.350 . S
N454 S452 1.610 . S
N454 C455 1.351 . S
C455 C449 1.428 . S
C455 N454 1.351 . S
C455 C456 1.434 . S
C456 C447 1.429 . S
C456 N453 1.350 . S
C456 C455 1.434 . S
C457 C458 1.369 . S
C457 C459 1.419 . S
C457 H461 0.930 . S
C458 C457 1.369 . S
C458 C467 1.429 . S
C459 C457 1.419 . S
C459 C460 1.363 . S
C459 H462 0.929 . S
C460 C459 1.363 . S
C460 C466 1.428 . S
H461 C457 0.930 . S
H462 C459 0.929 . S
S463 N464 1.613 . S
S463 N465 1.610 . S
N464 S463 1.613 . S
N464 C467 1.350 . S
N465 S463 1.610 . S
N465 C466 1.351 . S
C466 C460 1.428 . S
C466 N465 1.351 . S
C466 C467 1.434 . S
C467 C458 1.429 . S
C467 N464 1.350 . S
C467 C466 1.434 . S
C468 C469 1.369 . S
C468 C470 1.419 . S
C468 H472 0.930 . S
C469 C468 1.369 . S
C469 C478 1.429 . S
C470 C468 1.419 . S
C470 C471 1.363 . S
C470 H473 0.929 . S
C471 C470 1.363 . S
C471 C477 1.428 . S
H472 C468 0.930 . S
H473 C470 0.929 . S
S474 N475 1.613 . S
S474 N476 1.610 . S
N475 S474 1.613 . S
N475 C478 1.350 . S
N476 S474 1.610 . S
N476 C477 1.351 . S
C477 C471 1.428 . S
C477 N476 1.351 . S
C477 C478 1.434 . S
C478 C469 1.429 . S
C478 N475 1.350 . S
C478 C477 1.434 . S
C479 C480 1.369 . S
C479 C481 1.419 . S
C479 H483 0.930 . S
C480 C479 1.369 . S
C480 C489 1.429 . S
C481 C479 1.419 . S
C481 C482 1.363 . S
C481 H484 0.929 . S
C482 C481 1.363 . S
C482 C488 1.428 . S
H483 C479 0.930 . S
H484 C481 0.929 . S
S485 N486 1.613 . S
S485 N487 1.610 . S
N486 S485 1.613 . S
N486 C489 1.350 . S
N487 S485 1.610 . S
N487 C488 1.351 . S
C488 C482 1.428 . S
C488 N487 1.351 . S
C488 C489 1.434 . S
C489 C480 1.429 . S
C489 N486 1.350 . S
C489 C488 1.434 . S
C490 C491 1.369 . S
C490 C492 1.419 . S
C490 H494 0.930 . S
C491 C490 1.369 . S
C491 C500 1.429 . S
C492 C490 1.419 . S
C492 C493 1.363 . S
C492 H495 0.929 . S
C493 C492 1.363 . S
C493 C499 1.428 . S
H494 C490 0.930 . S
H495 C492 0.929 . S
S496 N497 1.613 . S
S496 N498 1.610 . S
N497 S496 1.613 . S
N497 C500 1.350 . S
N498 S496 1.610 . S
N498 C499 1.351 . S
C499 C493 1.428 . S
C499 N498 1.351 . S
C499 C500 1.434 . S
C500 C491 1.429 . S
C500 N497 1.350 . S
C500 C499 1.434 . S
C501 C502 1.369 . S
C501 C503 1.419 . S
C501 H505 0.930 . S
C502 C501 1.369 . S
C502 C511 1.429 . S
C503 C501 1.419 . S
C503 C504 1.363 . S
C503 H506 0.929 . S
C504 C503 1.363 . S
C504 C510 1.428 . S
H505 C501 0.930 . S
H506 C503 0.929 . S
S507 N508 1.613 . S
S507 N509 1.610 . S
N508 S507 1.613 . S
N508 C511 1.350 . S
N509 S507 1.610 . S
N509 C510 1.351 . S
C510 C504 1.428 . S
C510 N509 1.351 . S
C510 C511 1.434 . S
C511 C502 1.429 . S
C511 N508 1.350 . S
C511 C510 1.434 . S
C249 C4 1.107 . S
C251 C94 1.147 . S
C260 C16 1.242 . S
C262 C143 1.272 . S
C273 C178 2.167 . S
C271 C32 2.219 . S
C282 C43 2.396 . S
C284 C217 2.340 . S
C295 C138 2.519 . S
C293 C5 2.345 . S
C306 C97 0.531 . S
C304 C21 0.540 . S
C317 C227 1.948 . S
C315 C27 2.020 . S
C328 C186 1.776 . S
C326 C37 1.766 . S
C337 C10 1.438 . S
C339 C214 1.469 . S
C350 C146 2.523 1_556 S
C348 C26 2.624 . S
C359 C38 2.152 . S
C361 C107 2.148 . S
C370 C15 1.311 . S
C372 C183 1.346 . S
C383 C103 1.223 . S
C381 C48 1.213 . S
C392 C59 1.147 . S
C394 C134 1.165 . S
C403 C76 2.529 . S
C405 C187 2.467 . S
C414 C87 2.258 . S
C416 C226 2.250 . S
C425 C54 1.883 . S
C427 C147 2.060 1_556 S
C438 C106 1.262 . S
C436 C60 1.303 . S
C449 C218 1.842 . S
C447 C71 1.899 . S
C460 C177 1.715 . S
C458 C82 1.787 . S
C469 C49 1.671 . S
C471 C223 1.799 . S
C482 C137 2.040 . S
C480 C70 2.136 . S
C493 C98 2.547 . S
C491 C81 2.560 . S
C502 C65 1.066 . S
C504 C174 1.092 . S
